# Generated by pormake.
# Topology sod, (4)-cn, num edge types: 1
# Building blocks:
#     Node 0, Type 0, BuildingBlock: AZAVOO_clean_sbu_0, # of connection points: 4
#     Node 1, Type 0, BuildingBlock: AZAVOO_clean_sbu_0, # of connection points: 4
#     Node 2, Type 0, BuildingBlock: AZAVOO_clean_sbu_0, # of connection points: 4
#     Node 3, Type 0, BuildingBlock: AZAVOO_clean_sbu_0, # of connection points: 4
#     Node 4, Type 0, BuildingBlock: AZAVOO_clean_sbu_0, # of connection points: 4
#     Node 5, Type 0, BuildingBlock: AZAVOO_clean_sbu_0, # of connection points: 4
#     Node 6, Type 0, BuildingBlock: AZAVOO_clean_sbu_0, # of connection points: 4
#     Node 7, Type 0, BuildingBlock: AZAVOO_clean_sbu_0, # of connection points: 4
#     Node 8, Type 0, BuildingBlock: AZAVOO_clean_sbu_0, # of connection points: 4
#     Node 9, Type 0, BuildingBlock: AZAVOO_clean_sbu_0, # of connection points: 4
#     Node 10, Type 0, BuildingBlock: AZAVOO_clean_sbu_0, # of connection points: 4
#     Node 11, Type 0, BuildingBlock: AZAVOO_clean_sbu_0, # of connection points: 4
#     Edge 12, Type (0, 0), BuildingBlock: CIFDUS_clean_linker_0, # of connection points: 2
#     Edge 13, Type (0, 0), BuildingBlock: CIFDUS_clean_linker_0, # of connection points: 2
#     Edge 14, Type (0, 0), BuildingBlock: CIFDUS_clean_linker_0, # of connection points: 2
#     Edge 15, Type (0, 0), BuildingBlock: CIFDUS_clean_linker_0, # of connection points: 2
#     Edge 16, Type (0, 0), BuildingBlock: CIFDUS_clean_linker_0, # of connection points: 2
#     Edge 17, Type (0, 0), BuildingBlock: CIFDUS_clean_linker_0, # of connection points: 2
#     Edge 18, Type (0, 0), BuildingBlock: CIFDUS_clean_linker_0, # of connection points: 2
#     Edge 19, Type (0, 0), BuildingBlock: CIFDUS_clean_linker_0, # of connection points: 2
#     Edge 20, Type (0, 0), BuildingBlock: CIFDUS_clean_linker_0, # of connection points: 2
#     Edge 21, Type (0, 0), BuildingBlock: CIFDUS_clean_linker_0, # of connection points: 2
#     Edge 22, Type (0, 0), BuildingBlock: CIFDUS_clean_linker_0, # of connection points: 2
#     Edge 23, Type (0, 0), BuildingBlock: CIFDUS_clean_linker_0, # of connection points: 2
#     Edge 24, Type (0, 0), BuildingBlock: CIFDUS_clean_linker_0, # of connection points: 2
#     Edge 25, Type (0, 0), BuildingBlock: CIFDUS_clean_linker_0, # of connection points: 2
#     Edge 26, Type (0, 0), BuildingBlock: CIFDUS_clean_linker_0, # of connection points: 2
#     Edge 27, Type (0, 0), BuildingBlock: CIFDUS_clean_linker_0, # of connection points: 2
#     Edge 28, Type (0, 0), BuildingBlock: CIFDUS_clean_linker_0, # of connection points: 2
#     Edge 29, Type (0, 0), BuildingBlock: CIFDUS_clean_linker_0, # of connection points: 2
#     Edge 30, Type (0, 0), BuildingBlock: CIFDUS_clean_linker_0, # of connection points: 2
#     Edge 31, Type (0, 0), BuildingBlock: CIFDUS_clean_linker_0, # of connection points: 2
#     Edge 32, Type (0, 0), BuildingBlock: CIFDUS_clean_linker_0, # of connection points: 2
#     Edge 33, Type (0, 0), BuildingBlock: CIFDUS_clean_linker_0, # of connection points: 2
#     Edge 34, Type (0, 0), BuildingBlock: CIFDUS_clean_linker_0, # of connection points: 2
#     Edge 35, Type (0, 0), BuildingBlock: CIFDUS_clean_linker_0, # of connection points: 2
# Relax obj value: 0.126
# Max RMSD: 0.160
# Mean RMSD: 0.154
data_MOF--net-sod--node1-AZAVOO_clean_sbu_0--edge1-CIFDUS_clean_linker_0
_symmetry_space_group_name_H-M    P1
_symmetry_Int_Tables_number       1
_symmetry_cell_setting            triclinic
loop_
_symmetry_equiv_pos_as_xyz
'x, y, z'
_cell_length_a     37.323787
_cell_length_b     37.661528
_cell_length_c     38.636091
_cell_angle_alpha  89.980152
_cell_angle_beta   92.809402
_cell_angle_gamma 95.990787
loop_
_atom_site_label
_atom_site_type_symbol
_atom_site_fract_x
_atom_site_fract_y
_atom_site_fract_z
_atom_type_partial_charge
Mg0 Mg 0.01601 0.27096 0.50849 0.0
O1 O 0.96574 0.22983 0.51227 0.0
O2 O 0.9185 0.26157 0.5135 0.0
Mg3 Mg 0.93665 0.321 0.51564 0.0
C4 C 0.93175 0.23173 0.51266 0.0
C5 C 0.06949 0.21363 0.51924 0.0
O6 O 0.06664 0.22509 0.55098 0.0
O7 O -0.00061 0.28364 0.45143 0.0
O8 O 0.95436 0.31693 0.46069 0.0
O9 O 0.02426 0.27957 0.56718 0.0
O10 O -0.00915 0.30994 0.53248 0.0
C11 C 0.9753 0.30343 0.44035 0.0
C12 C 0.00405 0.30526 0.56307 0.0
O13 O 0.05095 0.22663 0.4947 0.0
Mg14 Mg 0.7465 -0.00966 0.4987 0.0
O15 O 0.7769 0.04666 0.49343 0.0
O16 O 0.73477 0.08324 0.48057 0.0
Mg17 Mg 0.67893 0.05229 0.47651 0.0
C18 C 0.76765 0.07783 0.48696 0.0
C19 C 0.82229 0.96212 0.50125 0.0
O20 O 0.81904 0.97197 0.46872 0.0
O21 O 0.72714 0.00634 0.5519 0.0
O22 O 0.68499 0.04159 0.53459 0.0
O23 O 0.74697 0.9797 0.44113 0.0
O24 O 0.70368 0.00372 0.46625 0.0
C25 C 0.70231 0.02608 0.5585 0.0
C26 C 0.71654 -0.00672 0.43827 0.0
O27 O 0.79765 0.96804 0.52155 0.0
Mg28 Mg 0.02456 0.76797 0.5202 0.0
O29 O 0.08063 0.80047 0.51437 0.0
O30 O 0.12052 0.76005 0.51512 0.0
Mg31 Mg 0.09312 0.70409 0.52361 0.0
C32 C 0.11298 0.79228 0.51264 0.0
C33 C 0.97365 0.82765 0.52616 0.0
O34 O 0.97195 0.8125 0.55675 0.0
O35 O 0.02364 0.74587 0.46414 0.0
O36 O 0.06398 0.70594 0.47038 0.0
O37 O 0.03011 0.76965 0.57912 0.0
O38 O 0.04917 0.7283 0.54649 0.0
C39 C 0.04085 0.7213 0.45198 0.0
C40 C 0.04606 0.74093 0.57686 0.0
O41 O -0.00591 0.816 0.50425 0.0
Mg42 Mg 0.296 0.04679 0.51088 0.0
O43 O 0.25825 -0.00563 0.50689 0.0
O44 O 0.29217 0.95064 0.49604 0.0
Mg45 Mg 0.3506 0.97485 0.49002 0.0
C46 C 0.26165 0.96141 0.50177 0.0
C47 C 0.227 0.08636 0.5112 0.0
O48 O 0.24932 0.07588 0.53538 0.0
O49 O 0.31953 0.03034 0.5643 0.0
O50 O 0.35606 -0.0093 0.54759 0.0
O51 O 0.28945 0.05633 0.45347 0.0
O52 O 0.33192 0.02681 0.47812 0.0
C53 C 0.34396 0.00947 0.57109 0.0
C54 C 0.31679 0.03831 0.4504 0.0
O55 O 0.24947 0.07563 0.53384 0.0
Mg56 Mg 0.49457 0.01117 0.23819 0.0
O57 O 0.54264 0.0079 0.27726 0.0
O58 O 0.58947 -0.00714 0.24865 0.0
Mg59 Mg 0.57124 0.9849 0.19154 0.0
C60 C 0.57549 0.00116 0.27665 0.0
C61 C 0.43299 0.02048 0.2856 0.0
O62 O 0.42175 -0.00846 0.26758 0.0
O63 O 0.52093 0.06449 0.21744 0.0
O64 O 0.56435 0.0447 0.18703 0.0
O65 O 0.47624 0.95286 0.24393 0.0
O66 O 0.51513 0.97444 0.20609 0.0
C67 C 0.54693 0.07003 0.19703 0.0
C68 C 0.49761 0.94716 0.21968 0.0
O69 O 0.46323 0.03742 0.27905 0.0
Mg70 Mg 0.04901 0.50051 0.27451 0.0
O71 O -0.00361 0.50102 0.24017 0.0
O72 O 0.95011 0.49474 0.27508 0.0
Mg73 Mg 0.97242 0.48751 0.33052 0.0
C74 C 0.96252 0.49913 0.24499 0.0
C75 C 0.10547 0.54811 0.2284 0.0
O76 O 0.1055 0.5729 0.2523 0.0
O77 O 0.04291 0.5567 0.29459 0.0
O78 O -0.00184 0.54616 0.33094 0.0
O79 O 0.04875 0.44158 0.26997 0.0
O80 O 0.02131 0.46853 0.31035 0.0
C81 C 0.0222 0.56743 0.31693 0.0
C82 C 0.02905 0.43923 0.29664 0.0
O83 O 0.08464 0.51934 0.23031 0.0
Mg84 Mg 0.55115 0.0021 0.78618 0.0
O85 O 0.50435 -0.00035 0.74503 0.0
O86 O 0.45235 -0.00169 0.77137 0.0
Mg87 Mg 0.46611 -0.00459 0.82985 0.0
C88 C 0.47003 -0.00097 0.7439 0.0
C89 C 0.61742 -0.0011 0.7424 0.0
O90 O 0.62093 0.97336 0.7651 0.0
O91 O 0.544 0.06004 0.8003 0.0
O92 O 0.49397 0.05317 0.83029 0.0
O93 O 0.54925 0.9428 0.78748 0.0
O94 O 0.51823 0.97405 0.82136 0.0
C95 C 0.52075 0.07282 0.8187 0.0
C96 C 0.52692 0.94333 0.81201 0.0
O97 O 0.59125 0.01781 0.74458 0.0
Mg98 Mg 0.01095 0.50897 0.74179 0.0
O99 O 0.06666 0.51037 0.77001 0.0
O100 O 0.10802 0.50475 0.73106 0.0
Mg101 Mg 0.07854 0.50207 0.67762 0.0
C102 C 0.09928 0.5083 0.76228 0.0
C103 C 0.95109 0.52331 0.78948 0.0
O104 O 0.93354 0.51737 0.75938 0.0
O105 O 0.02391 0.567 0.72457 0.0
O106 O 0.06407 0.55948 0.68477 0.0
O107 O 0.00414 0.44918 0.74319 0.0
O108 O 0.02775 0.48119 0.70031 0.0
C109 C 0.04527 0.57949 0.70157 0.0
C110 C 0.01855 0.45035 0.71339 0.0
O111 O -0.0147 0.5241 0.79106 0.0
Mg112 Mg 0.25611 0.50514 -0.00555 0.0
O113 O 0.29016 0.56044 -0.00478 0.0
O114 O 0.25013 0.60058 -0.0091 0.0
Mg115 Mg 0.19273 0.57376 -0.01417 0.0
C116 C 0.2826 0.59282 -0.00583 0.0
C117 C 0.29819 0.44481 0.02207 0.0
O118 O 0.26427 0.43384 0.02715 0.0
O119 O 0.24019 0.51423 0.05069 0.0
O120 O 0.20035 0.55428 0.04126 0.0
O121 O 0.25194 0.50185 0.93574 0.0
O122 O 0.21323 0.52544 0.9675 0.0
C123 C 0.21734 0.53433 0.06153 0.0
C124 C 0.2226 0.5172 0.9373 0.0
O125 O 0.30566 0.476 0.01004 0.0
Mg126 Mg 0.51602 0.26904 0.02406 0.0
O127 O 0.57356 0.29991 0.02152 0.0
O128 O 0.61114 0.25734 0.02409 0.0
Mg129 Mg 0.58125 0.20215 0.03056 0.0
C130 C 0.60545 0.2901 0.02138 0.0
C131 C 0.4566 0.31649 0.02382 0.0
O132 O 0.44757 0.28848 0.04305 0.0
O133 O 0.51779 0.24835 0.96776 0.0
O134 O 0.5557 0.20636 0.97587 0.0
O135 O 0.51721 0.26966 0.08272 0.0
O136 O 0.53717 0.22777 0.05153 0.0
C137 C 0.53467 0.22316 0.95635 0.0
C138 C 0.53166 0.23996 0.08161 0.0
O139 O 0.48655 0.31808 0.0091 0.0
Mg140 Mg 0.79795 0.53691 0.00541 0.0
O141 O 0.75912 0.48546 0.00535 0.0
O142 O 0.79057 0.43985 -0.00514 0.0
Mg143 Mg 0.84864 0.46199 -0.01634 0.0
C144 C 0.76104 0.45207 0.0017 0.0
C145 C 0.74164 0.59011 0.00765 0.0
O146 O 0.75678 0.59636 0.97799 0.0
O147 O 0.82565 0.5231 0.05845 0.0
O148 O 0.85974 0.4824 0.03899 0.0
O149 O 0.78986 0.54331 0.94714 0.0
O150 O 0.83251 0.51508 0.97241 0.0
C151 C 0.85088 0.50258 0.06302 0.0
C152 C 0.81797 0.52638 0.9444 0.0
O153 O 0.75369 0.56686 0.02783 0.0
Mg154 Mg 0.53682 0.77541 0.03006 0.0
O155 O 0.48644 0.73418 0.03176 0.0
O156 O 0.44109 0.76592 0.04363 0.0
Mg157 Mg 0.46156 0.82402 0.0555 0.0
C158 C 0.45296 0.73647 0.03589 0.0
C159 C 0.57833 0.70953 0.0245 0.0
O160 O 0.56518 0.70625 0.05539 0.0
O161 O 0.51469 0.79774 0.9783 0.0
O162 O 0.47331 0.83049 -0.00174 0.0
O163 O 0.55229 0.77132 0.08722 0.0
O164 O 0.51548 0.8082 0.06501 0.0
C165 C 0.49116 0.82001 0.97348 0.0
C166 C 0.53162 0.79618 0.09187 0.0
O167 O 0.56939 0.73482 0.00508 0.0
H168 H 0.02983 0.30819 0.39507 0.0
H169 H 0.91993 0.33117 0.40535 0.0
H170 H 0.92552 0.37381 0.35819 0.0
H171 H 0.96544 0.41319 0.32252 0.0
H172 H 0.07407 0.38855 0.30935 0.0
H173 H 0.06517 0.33794 0.34884 0.0
C174 C 0.00669 0.32145 0.3861 0.0
C175 C 0.97495 0.31735 0.40448 0.0
C176 C 0.01013 0.34639 0.359 0.0
C177 C 0.94504 0.33449 0.3922 0.0
C178 C 0.94822 0.35913 0.36535 0.0
C179 C -0.01325 0.39612 0.32771 0.0
C180 C 0.02047 0.40474 0.31378 0.0
C181 C 0.98128 0.3668 0.34999 0.0
C182 C 0.04787 0.38232 0.32006 0.0
C183 C 0.04286 0.35349 0.34273 0.0
H184 H 0.64876 0.01186 0.42745 0.0
H185 H 0.73868 0.97987 0.37332 0.0
H186 H 0.7032 0.9803 0.31832 0.0
H187 H 0.64588 -0.01228 0.28613 0.0
H188 H 0.55604 0.01888 0.34123 0.0
H189 H 0.59249 0.02092 0.39538 0.0
C190 C 0.66088 0.00544 0.40362 0.0
C191 C 0.69643 -0.00398 0.40452 0.0
C192 C 0.64024 0.00534 0.37229 0.0
C193 C 0.71141 -0.01272 0.37337 0.0
C194 C 0.6911 -0.01256 0.34193 0.0
C195 C 0.63423 -0.00495 0.30993 0.0
C196 C 0.59809 0.00298 0.30946 0.0
C197 C 0.65533 -0.00394 0.34115 0.0
C198 C 0.58363 0.0125 0.34067 0.0
C199 C 0.60449 0.01372 0.37173 0.0
H200 H 0.97447 0.60843 0.34435 0.0
H201 H 0.08658 0.6088 0.32178 0.0
H202 H 0.1018 0.6622 0.35749 0.0
H203 H 0.08473 0.70139 0.40357 0.0
H204 H 0.97274 0.70226 0.42538 0.0
H205 H 0.95579 0.6565 0.38088 0.0
C206 C 0.00208 0.62076 0.34657 0.0
C207 C 0.02946 0.60425 0.331 0.0
C208 C 0.01067 0.65159 0.36716 0.0
C209 C 0.06502 0.62083 0.33361 0.0
C210 C 0.0738 0.65128 0.35422 0.0
C211 C 0.0565 0.69251 0.39758 0.0
C212 C 0.03002 0.7049 0.41782 0.0
C213 C 0.04709 0.66589 0.37232 0.0
C214 C -0.00645 0.69331 0.40994 0.0
C215 C 0.98393 0.66675 0.38483 0.0
H216 H 0.3632 0.08253 0.41557 0.0
H217 H 0.30365 0.97825 0.41131 0.0
H218 H 0.333 0.96435 0.35819 0.0
H219 H 0.37806 0.98076 0.31529 0.0
H220 H 0.4408 0.08372 0.32162 0.0
H221 H 0.40771 0.09949 0.37159 0.0
C222 C 0.35634 0.05706 0.40251 0.0
C223 C 0.33103 0.03157 0.41659 0.0
C224 C 0.37409 0.04903 0.37268 0.0
C225 C 0.32271 -0.00169 0.40031 0.0
C226 C 0.33962 -0.00963 0.37018 0.0
C227 C 0.38432 0.0068 0.32736 0.0
C228 C 0.4119 0.03105 0.31472 0.0
C229 C 0.36571 0.01535 0.35643 0.0
C230 C 0.41982 0.06454 0.3309 0.0
C231 C 0.40088 0.07357 0.35946 0.0
H232 H 0.09716 0.61847 0.66724 0.0
H233 H -0.00622 0.62525 0.71067 0.0
H234 H -0.01177 0.68168 0.68045 0.0
H235 H 0.00776 0.72262 0.63314 0.0
H236 H 0.10936 0.71269 0.58762 0.0
H237 H 0.12097 0.66446 0.62751 0.0
C238 C 0.0737 0.63262 0.67067 0.0
C239 C 0.04559 0.61726 0.69059 0.0
C240 C 0.07028 0.66445 0.65254 0.0
C241 C 0.01572 0.63632 0.6953 0.0
C242 C 0.01242 0.66851 0.67782 0.0
C243 C 0.03299 0.71071 0.63295 0.0
C244 C 0.05758 0.7208 0.60738 0.0
C245 C 0.03881 0.68198 0.65516 0.0
C246 C 0.08995 0.70497 0.60689 0.0
C247 C 0.0965 0.67733 0.62958 0.0
H248 H 0.40202 0.01765 0.72838 0.0
H249 H 0.49374 0.97926 0.68203 0.0
H250 H 0.46209 0.97781 0.62532 0.0
H251 H 0.40926 -0.01195 0.5887 0.0
H252 H 0.3182 0.02962 0.63304 0.0
H253 H 0.3487 0.02914 0.69076 0.0
C254 C 0.415 0.00887 0.70587 0.0
C255 C 0.45025 -0.00149 0.70956 0.0
C256 C 0.3968 0.00865 0.673 0.0
C257 C 0.46678 -0.01246 0.68002 0.0
C258 C 0.44865 0.9866 0.64754 0.0
C259 C 0.3958 -0.00323 0.61096 0.0
C260 C 0.36128 0.00856 0.60652 0.0
C261 C 0.41375 -0.00286 0.64373 0.0
C262 C 0.3447 0.02034 0.63569 0.0
C263 C 0.36216 0.02007 0.66869 0.0
H264 H 0.02892 0.30644 0.63169 0.0
H265 H 0.96968 0.36462 0.55558 0.0
H266 H 0.9694 0.4137 0.59548 0.0
H267 H -0.0107 0.44272 0.64989 0.0
H268 H 0.04489 0.38622 0.72918 0.0
H269 H 0.04367 0.33412 0.69025 0.0
C270 C 0.01543 0.32959 0.62418 0.0
C271 C -0.00062 0.33158 0.59052 0.0
C272 C 0.01531 0.35839 0.64755 0.0
C273 C 0.98201 0.36187 0.58122 0.0
C274 C 0.98208 0.39036 0.60396 0.0
C275 C 0.00119 0.41894 0.65859 0.0
C276 C 0.01784 0.41826 0.69174 0.0
C277 C -0.00069 0.38924 0.63674 0.0
C278 C 0.0323 0.3872 0.70338 0.0
C279 C 0.03151 0.35754 0.6812 0.0
H280 H 0.62028 0.05066 0.69317 0.0
H281 H 0.66782 0.95535 0.72462 0.0
H282 H 0.70167 0.9573 0.67207 0.0
H283 H 0.71317 0.98278 0.61427 0.0
H284 H 0.66476 0.07781 0.58327 0.0
H285 H 0.63647 0.07941 0.63852 0.0
C286 C 0.63833 0.03051 0.68873 0.0
C287 C 0.64108 0.00268 0.71261 0.0
C288 C 0.65757 0.03161 0.65834 0.0
C289 C 0.66494 0.97701 0.70658 0.0
C290 C 0.68432 0.97803 0.67646 0.0
C291 C 0.69701 0.00419 0.61989 0.0
C292 C 0.69074 0.02979 0.59439 0.0
C293 C 0.68021 0.00475 0.65173 0.0
C294 C 0.66968 0.0574 0.60217 0.0
C295 C 0.65338 0.05838 0.6338 0.0
H296 H 0.39166 0.31727 0.05166 0.0
H297 H 0.46624 0.38035 -0.01141 0.0
H298 H 0.42484 0.42689 -0.01603 0.0
H299 H 0.36627 0.44885 -0.00305 0.0
H300 H 0.29244 0.38368 0.05927 0.0
H301 H 0.33492 0.33903 0.06527 0.0
C302 C 0.39907 0.34117 0.03688 0.0
C303 C 0.43208 0.34517 0.02042 0.0
C304 C 0.37522 0.3676 0.03431 0.0
C305 C 0.44099 0.37646 0.00144 0.0
C306 C 0.41733 0.40311 -0.00114 0.0
C307 C 0.35972 0.42506 0.01215 0.0
C308 C 0.32612 0.41973 0.02767 0.0
C309 C 0.38424 0.39893 0.01513 0.0
C310 C 0.31796 0.38854 0.04698 0.0
C311 C 0.34224 0.36288 0.05041 0.0
H312 H 0.35564 0.58995 0.00698 0.0
H313 H 0.27484 0.66377 -0.00706 0.0
H314 H 0.32004 0.71362 0.00539 0.0
H315 H 0.38162 0.73683 0.02128 0.0
H316 H 0.46433 0.6653 0.03381 0.0
H317 H 0.41925 0.61416 0.02103 0.0
C318 C 0.34799 0.61695 0.0064 0.0
C319 C 0.31165 0.62281 -0.00085 0.0
C320 C 0.37437 0.646 0.01359 0.0
C321 C 0.3024 0.65813 -0.0015 0.0
C322 C 0.32827 0.68684 0.00572 0.0
C323 C 0.38992 0.71006 0.0215 0.0
C324 C 0.42626 0.70493 0.02894 0.0
C325 C 0.36416 0.68109 0.01361 0.0
C326 C 0.43648 0.67003 0.02836 0.0
C327 C 0.41072 0.64079 0.021 0.0
H328 H 0.60869 0.36366 0.0204 0.0
H329 H 0.67473 0.2765 0.01316 0.0
H330 H 0.72772 0.31842 0.00631 0.0
H331 H 0.75607 0.37946 0.00234 0.0
H332 H 0.69163 0.46758 0.01022 0.0
H333 H 0.63775 0.42576 0.0168 0.0
C334 C 0.63465 0.35385 0.01731 0.0
C335 C 0.63738 0.31679 0.01737 0.0
C336 C 0.66556 0.3783 0.01346 0.0
C337 C 0.67146 0.30474 0.01338 0.0
C338 C 0.702 0.32874 0.00938 0.0
C339 C 0.73028 0.38966 0.00543 0.0
C340 C 0.72811 0.42672 0.00569 0.0
C341 C 0.69942 0.36553 0.00938 0.0
C342 C 0.69429 0.43922 0.00992 0.0
C343 C 0.66336 0.41529 0.01367 0.0
H344 H 0.70723 0.63552 0.9665 0.0
H345 H 0.70484 0.58666 0.06757 0.0
H346 H 0.65273 0.61779 0.08078 0.0
H347 H 0.60902 0.66001 0.06413 0.0
H348 H 0.61204 0.70914 0.96316 0.0
H349 H 0.66259 0.67627 0.94926 0.0
C350 C 0.69541 0.63164 -0.00852 0.0
C351 C 0.71015 0.60892 0.01612 0.0
C352 C 0.66546 0.6495 -0.00118 0.0
C353 C 0.69419 0.60408 0.0482 0.0
C354 C 0.66435 0.62183 0.05573 0.0
C355 C 0.62048 0.66335 0.03894 0.0
C356 C 0.60671 0.68713 0.01474 0.0
C357 C 0.64986 0.64471 0.03128 0.0
C358 C 0.62204 0.69108 -0.01772 0.0
C359 C 0.65106 0.67238 0.97436 0.0
H360 H 0.53086 0.81592 0.91572 0.0
H361 H 0.44101 0.86485 0.95452 0.0
H362 H 0.441 0.90454 0.90507 0.0
H363 H 0.47218 0.93166 0.85579 0.0
H364 H 0.56112 0.8828 0.81567 0.0
H365 H 0.55524 0.83662 0.86001 0.0
C366 C 0.51077 0.83469 0.91298 0.0
C367 C 0.48667 0.83789 0.93945 0.0
C368 C 0.51089 0.85785 0.88431 0.0
C369 C 0.46049 0.86214 0.93507 0.0
C370 C 0.4604 0.88502 0.90672 0.0
C371 C 0.48974 0.91046 0.85626 0.0
C372 C 0.51739 0.91106 0.83287 0.0
C373 C 0.4864 0.88412 0.88197 0.0
C374 C 0.53963 0.88308 0.83349 0.0
C375 C 0.53649 0.85675 0.85904 0.0
H376 H 0.23183 0.49976 0.86964 0.0
H377 H 0.15863 0.54586 0.93563 0.0
H378 H 0.11508 0.54825 0.88733 0.0
H379 H 0.09551 0.53373 0.82745 0.0
H380 H 0.16745 0.48756 0.76035 0.0
H381 H 0.21342 0.48866 0.80782 0.0
C382 C 0.20659 0.51081 0.87329 0.0
C383 C 0.19877 0.52272 0.90635 0.0
C384 C 0.18106 0.51166 0.84526 0.0
C385 C 0.16577 0.5368 0.91058 0.0
C386 C 0.14054 0.53794 0.88294 0.0
C387 C 0.12124 0.52391 0.82314 0.0
C388 C 0.12781 0.51021 0.79051 0.0
C389 C 0.14757 0.52481 0.85039 0.0
C390 C 0.16159 0.49815 0.78527 0.0
C391 C 0.18792 0.49874 0.81242 0.0
H392 H 0.47257 0.11613 0.84174 0.0
H393 H 0.58609 0.11221 0.82773 0.0
H394 H 0.60052 0.16438 0.86515 0.0
H395 H 0.58142 0.20286 0.91084 0.0
H396 H 0.46819 0.20775 0.92455 0.0
H397 H 0.45302 0.16414 0.87774 0.0
C398 C 0.5004 0.12733 0.8461 0.0
C399 C 0.52824 0.10978 0.83252 0.0
C400 C 0.50857 0.15733 0.86789 0.0
C401 C 0.56412 0.12497 0.83794 0.0
C402 C 0.57244 0.15471 0.85961 0.0
C403 C 0.55344 0.19536 0.90261 0.0
C404 C 0.52595 0.20817 0.92123 0.0
C405 C 0.545 0.16995 0.87604 0.0
C406 C 0.4898 0.1984 0.91043 0.0
C407 C 0.48114 0.17309 0.88397 0.0
H408 H 0.87959 0.53044 0.79481 0.0
H409 H 0.97747 0.51834 0.85609 0.0
H410 H 0.94396 0.51554 0.90874 0.0
H411 H 0.88743 0.51646 0.93739 0.0
H412 H 0.78971 0.53258 0.87782 0.0
H413 H 0.82255 0.5333 0.82422 0.0
C414 C 0.89359 0.52735 0.81971 0.0
C415 C 0.93101 0.52456 0.82147 0.0
C416 C 0.87416 0.52605 0.85004 0.0
C417 C 0.94878 0.52074 0.85395 0.0
C418 C 0.9296 0.51892 0.88409 0.0
C419 C 0.87311 0.51971 0.91266 0.0
C420 C 0.83607 0.52395 0.91146 0.0
C421 C 0.89233 0.52134 0.88239 0.0
C422 C 0.81815 0.52894 0.87931 0.0
C423 C 0.83696 0.52953 0.84875 0.0
H424 H 0.50974 0.12912 0.20123 0.0
H425 H 0.6024 0.09127 0.15594 0.0
H426 H 0.60904 0.1438 0.11946 0.0
H427 H 0.58341 0.19566 0.09419 0.0
H428 H 0.49119 0.23447 0.13854 0.0
H429 H 0.49014 0.18713 0.18209 0.0
C430 C 0.53185 0.13271 0.18394 0.0
C431 C 0.55493 0.10566 0.18085 0.0
C432 C 0.5355 0.16313 0.1626 0.0
C433 C 0.58371 0.11115 0.15853 0.0
C434 C 0.5876 0.14127 0.13752 0.0
C435 C 0.5635 0.19413 0.11376 0.0
C436 C 0.53706 0.21805 0.1128 0.0
C437 C 0.56281 0.16664 0.13833 0.0
C438 C 0.51188 0.21631 0.13879 0.0
C439 C 0.51105 0.18902 0.16348 0.0
H440 H 0.97721 0.50275 0.17677 0.0
H441 H 0.88925 0.50207 0.2453 0.0
H442 H 0.84668 0.50553 0.19562 0.0
H443 H 0.83396 0.50657 0.13172 0.0
H444 H 0.92285 0.50486 0.06463 0.0
H445 H 0.96514 0.50495 0.11445 0.0
C446 C 0.94877 0.50349 0.18098 0.0
C447 C 0.93664 0.50201 0.21482 0.0
C448 C 0.92436 0.50512 0.15234 0.0
C449 C 0.89952 0.50299 0.21955 0.0
C450 C 0.87505 0.50503 0.19111 0.0
C451 C 0.8626 0.50656 0.1282 0.0
C452 C 0.87518 0.50546 0.09455 0.0
C453 C 0.88708 0.50585 0.15725 0.0
C454 C 0.9124 0.50527 0.0903 0.0
C455 C 0.9367 0.50536 0.11877 0.0
H456 H 0.47302 0.8125 0.12456 0.0
H457 H 0.58915 0.82303 0.13221 0.0
H458 H 0.58943 0.86973 0.1763 0.0
H459 H 0.55638 0.91424 0.20493 0.0
H460 H 0.44019 0.90076 0.20041 0.0
H461 H 0.43994 0.84816 0.16322 0.0
C462 C 0.49826 0.82423 0.13684 0.0
C463 C 0.53099 0.81476 0.12521 0.0
C464 C 0.49815 0.85084 0.16226 0.0
C465 C 0.56364 0.82986 0.14113 0.0
C466 C 0.56381 0.85683 0.166 0.0
C467 C 0.53113 0.89913 0.19645 0.0
C468 C 0.49836 0.91138 0.20477 0.0
C469 C 0.53124 0.86859 0.1756 0.0
C470 C 0.46571 0.89161 0.19419 0.0
C471 C 0.46555 0.86173 0.17278 0.0
H472 H 0.199 0.58851 0.10031 0.0
H473 H 0.2096 0.47562 0.10311 0.0
H474 H 0.1765 0.47013 0.15643 0.0
H475 H 0.13847 0.49643 0.198 0.0
H476 H 0.12978 0.60972 0.1962 0.0
H477 H 0.16816 0.61617 0.14646 0.0
C478 C 0.19475 0.56285 0.11308 0.0
C479 C 0.20641 0.53244 0.09776 0.0
C480 C 0.17546 0.55992 0.14337 0.0
C481 C 0.20108 0.49941 0.11458 0.0
C482 C 0.18176 0.49622 0.14479 0.0
C483 C 0.14516 0.52254 0.18676 0.0
C484 C 0.13076 0.5525 0.20013 0.0
C485 C 0.16776 0.52608 0.15867 0.0
C486 C 0.14031 0.5863 0.18605 0.0
C487 C 0.16223 0.58996 0.15768 0.0
H488 H 0.87481 0.94005 0.46231 0.0
H489 H 0.83598 0.93507 0.56583 0.0
H490 H 0.88066 0.89455 0.58296 0.0
H491 H 0.92812 0.8577 0.56767 0.0
H492 H 0.96623 0.86173 0.46389 0.0
H493 H 0.9245 0.90556 0.44785 0.0
C494 C 0.87628 0.93041 0.48874 0.0
C495 C 0.85182 0.94052 0.51268 0.0
C496 C 0.90177 0.90673 0.49832 0.0
C497 C 0.85431 0.92773 0.54681 0.0
C498 C 0.87982 0.90445 0.55662 0.0
C499 C 0.92752 0.86828 0.54156 0.0
C500 C 0.9502 0.85616 0.51696 0.0
C501 C 0.90326 0.8933 0.53244 0.0
C502 C 0.94907 0.87042 0.48334 0.0
C503 C 0.92515 0.89548 0.47412 0.0
H504 H 0.8604 0.22733 0.49566 0.0
H505 H 0.94586 0.16182 0.52207 0.0
H506 H 0.90292 0.10802 0.51566 0.0
H507 H 0.84053 0.07985 0.50298 0.0
H508 H 0.75669 0.14722 0.4753 0.0
H509 H 0.7998 0.19987 0.48161 0.0
C510 C 0.86979 0.20135 0.50027 0.0
C511 C 0.90629 0.19872 0.50969 0.0
C512 C 0.84522 0.17075 0.4961 0.0
C513 C 0.91788 0.16468 0.51494 0.0
C514 C 0.89334 0.13391 0.51123 0.0
C515 C 0.83174 0.10602 0.49814 0.0
C516 C 0.79521 0.10933 0.48878 0.0
C517 C 0.85686 0.13662 0.5018 0.0
C518 C 0.78446 0.14359 0.48259 0.0
C519 C 0.80911 0.17389 0.48626 0.0
H520 H 0.11297 0.86533 0.51675 0.0
H521 H 0.18182 0.78272 0.49776 0.0
H522 H 0.23289 0.82739 0.49201 0.0
H523 H 0.25895 0.88943 0.49369 0.0
H524 H 0.19162 0.973 0.51326 0.0
H525 H 0.13937 0.92853 0.51731 0.0
C526 C 0.13909 0.85713 0.51118 0.0
C527 C 0.14332 0.82053 0.50788 0.0
C528 C 0.16884 0.88314 0.50807 0.0
C529 C 0.17754 0.81054 0.50071 0.0
C530 C 0.20694 0.83612 0.49735 0.0
C531 C 0.23289 0.89809 0.49874 0.0
C532 C 0.22945 0.93463 0.50323 0.0
C533 C 0.20301 0.87243 0.50123 0.0
C534 C 0.19525 0.9451 0.50973 0.0
C535 C 0.16527 0.91964 0.51207 0.0
H536 H 0.11413 0.18399 0.56611 0.0
H537 H 0.08389 0.18495 0.45683 0.0
H538 H 0.12926 0.14461 0.44546 0.0
H539 H 0.1791 0.11076 0.46632 0.0
H540 H 0.20964 0.11068 0.57544 0.0
H541 H 0.16253 0.14891 0.58711 0.0
C542 C 0.11727 0.17528 0.53978 0.0
C543 C 0.09563 0.18764 0.51235 0.0
C544 C 0.14357 0.1523 0.53341 0.0
C545 C 0.10015 0.17596 0.47844 0.0
C546 C 0.12614 0.15291 0.4719 0.0
C547 C 0.17521 0.11901 0.49267 0.0
C548 C 0.19779 0.10799 0.51987 0.0
C549 C 0.14821 0.14118 0.49914 0.0
C550 C 0.19265 0.11879 0.55397 0.0
C551 C 0.16572 0.1407 0.56066 0.0
loop_
_geom_bond_atom_site_label_1
_geom_bond_atom_site_label_2
_geom_bond_distance
_geom_bond_site_symmetry_2
_ccdc_geom_bond_type
Mg0 O1 2.028 . S
Mg0 O7 1.986 . S
Mg0 O9 2.114 . S
Mg0 O10 2.251 . S
Mg0 O13 2.010 . S
O1 Mg0 2.028 . S
O1 C4 1.250 1_455 S
O2 Mg3 2.028 . S
O2 C4 1.248 . S
Mg3 O2 2.028 . S
Mg3 O8 2.032 . S
Mg3 O10 2.079 1_655 S
C4 O1 1.250 1_655 S
C4 O2 1.248 . S
C5 O6 1.264 . S
C5 O13 1.249 . S
O6 C5 1.264 . S
O7 Mg0 1.986 . S
O7 C11 1.246 . S
O8 Mg3 2.032 . S
O8 C11 1.259 1_655 S
O9 Mg0 2.114 . S
O9 C12 1.252 . S
O10 Mg0 2.251 . S
O10 Mg3 2.079 1_455 S
O10 C12 1.273 . S
C11 O7 1.246 . S
C11 O8 1.259 1_455 S
C12 O9 1.252 . S
C12 O10 1.273 . S
O13 Mg0 2.010 . S
O13 C5 1.249 . S
Mg14 O15 2.028 . S
Mg14 O21 1.986 . S
Mg14 O23 2.114 . S
Mg14 O24 2.251 . S
Mg14 O27 2.010 1_545 S
O15 Mg14 2.028 . S
O15 C18 1.250 . S
O16 Mg17 2.028 . S
O16 C18 1.248 . S
Mg17 O16 2.028 . S
Mg17 O22 2.032 . S
Mg17 O24 2.079 . S
C18 O15 1.250 . S
C18 O16 1.248 . S
C19 O20 1.264 . S
C19 O27 1.249 . S
O20 C19 1.264 . S
O21 Mg14 1.986 . S
O21 C25 1.246 . S
O22 Mg17 2.032 . S
O22 C25 1.259 . S
O23 Mg14 2.114 . S
O23 C26 1.252 . S
O24 Mg14 2.251 . S
O24 Mg17 2.079 . S
O24 C26 1.273 . S
C25 O21 1.246 . S
C25 O22 1.259 . S
C26 O23 1.252 . S
C26 O24 1.273 . S
O27 Mg14 2.010 1_565 S
O27 C19 1.249 . S
Mg28 O29 2.028 . S
Mg28 O35 1.986 . S
Mg28 O37 2.114 . S
Mg28 O38 2.251 . S
Mg28 O41 2.010 1_455 S
O29 Mg28 2.028 . S
O29 C32 1.250 . S
O30 Mg31 2.028 . S
O30 C32 1.248 . S
Mg31 O30 2.028 . S
Mg31 O36 2.032 . S
Mg31 O38 2.079 . S
C32 O29 1.250 . S
C32 O30 1.248 . S
C33 O34 1.264 . S
C33 O41 1.249 . S
O34 C33 1.264 . S
O35 Mg28 1.986 . S
O35 C39 1.246 . S
O36 Mg31 2.032 . S
O36 C39 1.259 . S
O37 Mg28 2.114 . S
O37 C40 1.252 . S
O38 Mg28 2.251 . S
O38 Mg31 2.079 . S
O38 C40 1.273 . S
C39 O35 1.246 . S
C39 O36 1.259 . S
C40 O37 1.252 . S
C40 O38 1.273 . S
O41 Mg28 2.010 1_655 S
O41 C33 1.249 . S
Mg42 O43 2.020 1_545 S
Mg42 O49 1.986 . S
Mg42 O51 2.114 . S
Mg42 O52 2.251 . S
Mg42 O55 2.010 . S
O43 Mg42 2.020 1_565 S
O43 C46 1.263 . S
O44 Mg45 2.028 . S
O44 C46 1.248 . S
Mg45 O44 2.028 . S
Mg45 O50 2.032 . S
Mg45 O52 2.079 1_565 S
C46 O43 1.263 . S
C46 O44 1.248 . S
C47 O48 1.264 . S
C47 O55 1.249 . S
O48 C47 1.264 . S
O49 Mg42 1.986 . S
O49 C53 1.246 . S
O50 Mg45 2.032 . S
O50 C53 1.259 1_565 S
O51 Mg42 2.114 . S
O51 C54 1.252 . S
O52 Mg42 2.251 . S
O52 Mg45 2.079 1_545 S
O52 C54 1.273 . S
C53 O49 1.246 . S
C53 O50 1.259 1_545 S
C54 O51 1.252 . S
C54 O52 1.273 . S
O55 Mg42 2.010 . S
O55 C47 1.249 . S
Mg56 O57 2.028 . S
Mg56 O63 1.986 . S
Mg56 O65 2.114 1_545 S
Mg56 O66 2.251 1_545 S
Mg56 O69 2.010 . S
O57 Mg56 2.028 . S
O57 C60 1.250 . S
O58 Mg59 2.028 . S
O58 C60 1.248 . S
Mg59 O58 2.028 . S
Mg59 O64 2.032 . S
Mg59 O66 2.079 1_545 S
C60 O57 1.250 . S
C60 O58 1.248 . S
C61 O62 1.264 . S
C61 O69 1.249 . S
O62 C61 1.264 . S
O63 Mg56 1.986 . S
O63 C67 1.246 . S
O64 Mg59 2.032 . S
O64 C67 1.259 . S
O65 Mg56 2.114 1_565 S
O65 C68 1.252 . S
O66 Mg56 2.251 1_565 S
O66 Mg59 2.079 1_565 S
O66 C68 1.273 . S
C67 O63 1.246 . S
C67 O64 1.259 . S
C68 O65 1.252 . S
C68 O66 1.273 . S
O69 Mg56 2.010 . S
O69 C61 1.249 . S
Mg70 O71 2.028 . S
Mg70 O77 1.986 . S
Mg70 O79 2.114 . S
Mg70 O80 2.251 . S
Mg70 O83 2.010 . S
O71 Mg70 2.028 . S
O71 C74 1.250 1_455 S
O72 Mg73 2.028 . S
O72 C74 1.248 . S
Mg73 O72 2.028 . S
Mg73 O78 2.032 1_655 S
Mg73 O80 2.079 1_655 S
C74 O71 1.250 1_655 S
C74 O72 1.248 . S
C75 O76 1.264 . S
C75 O83 1.249 . S
O76 C75 1.264 . S
O77 Mg70 1.986 . S
O77 C81 1.246 . S
O78 Mg73 2.032 1_455 S
O78 C81 1.259 . S
O79 Mg70 2.114 . S
O79 C82 1.252 . S
O80 Mg70 2.251 . S
O80 Mg73 2.079 1_455 S
O80 C82 1.273 . S
C81 O77 1.246 . S
C81 O78 1.259 . S
C82 O79 1.252 . S
C82 O80 1.273 . S
O83 Mg70 2.010 . S
O83 C75 1.249 . S
Mg84 O85 2.028 . S
Mg84 O91 1.986 . S
Mg84 O93 2.114 1_545 S
Mg84 O94 2.251 1_545 S
Mg84 O97 2.010 . S
O85 Mg84 2.028 . S
O85 C88 1.250 . S
O86 Mg87 2.028 . S
O86 C88 1.248 . S
Mg87 O86 2.028 . S
Mg87 O92 2.032 . S
Mg87 O94 2.079 1_545 S
C88 O85 1.250 . S
C88 O86 1.248 . S
C89 O90 1.264 . S
C89 O97 1.249 . S
O90 C89 1.264 . S
O91 Mg84 1.986 . S
O91 C95 1.246 . S
O92 Mg87 2.032 . S
O92 C95 1.259 . S
O93 Mg84 2.114 1_565 S
O93 C96 1.252 . S
O94 Mg84 2.251 1_565 S
O94 Mg87 2.079 1_565 S
O94 C96 1.273 . S
C95 O91 1.246 . S
C95 O92 1.259 . S
C96 O93 1.252 . S
C96 O94 1.273 . S
O97 Mg84 2.010 . S
O97 C89 1.249 . S
Mg98 O99 2.028 . S
Mg98 O105 1.986 . S
Mg98 O107 2.114 . S
Mg98 O108 2.251 . S
Mg98 O111 2.010 1_455 S
O99 Mg98 2.028 . S
O99 C102 1.250 . S
O100 Mg101 2.028 . S
O100 C102 1.248 . S
Mg101 O100 2.028 . S
Mg101 O106 2.032 . S
Mg101 O108 2.079 . S
C102 O99 1.250 . S
C102 O100 1.248 . S
C103 O104 1.264 . S
C103 O111 1.249 . S
O104 C103 1.264 . S
O105 Mg98 1.986 . S
O105 C109 1.246 . S
O106 Mg101 2.032 . S
O106 C109 1.259 . S
O107 Mg98 2.114 . S
O107 C110 1.252 . S
O108 Mg98 2.251 . S
O108 Mg101 2.079 . S
O108 C110 1.273 . S
C109 O105 1.246 . S
C109 O106 1.259 . S
C110 O107 1.252 . S
C110 O108 1.273 . S
O111 Mg98 2.010 1_655 S
O111 C103 1.249 . S
Mg112 O113 2.028 . S
Mg112 O119 1.986 . S
Mg112 O121 2.114 1_554 S
Mg112 O122 2.251 1_554 S
Mg112 O125 2.010 . S
O113 Mg112 2.028 . S
O113 C116 1.250 . S
O114 Mg115 2.028 . S
O114 C116 1.248 . S
Mg115 O114 2.028 . S
Mg115 O120 2.032 . S
Mg115 O122 2.079 1_554 S
C116 O113 1.250 . S
C116 O114 1.248 . S
C117 O118 1.264 . S
C117 O125 1.249 . S
O118 C117 1.264 . S
O119 Mg112 1.986 . S
O119 C123 1.246 . S
O120 Mg115 2.032 . S
O120 C123 1.259 . S
O121 Mg112 2.114 1_556 S
O121 C124 1.252 . S
O122 Mg112 2.251 1_556 S
O122 Mg115 2.079 1_556 S
O122 C124 1.273 . S
C123 O119 1.246 . S
C123 O120 1.259 . S
C124 O121 1.252 . S
C124 O122 1.273 . S
O125 Mg112 2.010 . S
O125 C117 1.249 . S
Mg126 O127 2.028 . S
Mg126 O133 1.986 1_554 S
Mg126 O135 2.114 . S
Mg126 O136 2.251 . S
Mg126 O139 2.010 . S
O127 Mg126 2.028 . S
O127 C130 1.250 . S
O128 Mg129 2.028 . S
O128 C130 1.248 . S
Mg129 O128 2.028 . S
Mg129 O134 2.032 1_554 S
Mg129 O136 2.079 . S
C130 O127 1.250 . S
C130 O128 1.248 . S
C131 O132 1.264 . S
C131 O139 1.249 . S
O132 C131 1.264 . S
O133 Mg126 1.986 1_556 S
O133 C137 1.246 . S
O134 Mg129 2.032 1_556 S
O134 C137 1.259 . S
O135 Mg126 2.114 . S
O135 C138 1.252 . S
O136 Mg126 2.251 . S
O136 Mg129 2.079 . S
O136 C138 1.273 . S
C137 O133 1.246 . S
C137 O134 1.259 . S
C138 O135 1.252 . S
C138 O136 1.273 . S
O139 Mg126 2.010 . S
O139 C131 1.249 . S
Mg140 O141 2.028 . S
Mg140 O147 1.986 . S
Mg140 O149 2.114 1_554 S
Mg140 O150 2.251 . S
Mg140 O153 2.010 . S
O141 Mg140 2.028 . S
O141 C144 1.250 . S
O142 Mg143 2.028 . S
O142 C144 1.248 . S
Mg143 O142 2.028 . S
Mg143 O148 2.032 . S
Mg143 O150 2.079 . S
C144 O141 1.250 . S
C144 O142 1.248 . S
C145 O146 1.264 . S
C145 O153 1.249 . S
O146 C145 1.264 . S
O147 Mg140 1.986 . S
O147 C151 1.246 . S
O148 Mg143 2.032 . S
O148 C151 1.259 . S
O149 Mg140 2.114 1_556 S
O149 C152 1.252 . S
O150 Mg140 2.251 . S
O150 Mg143 2.079 . S
O150 C152 1.273 1_554 S
C151 O147 1.246 . S
C151 O148 1.259 . S
C152 O149 1.252 . S
C152 O150 1.273 1_556 S
O153 Mg140 2.010 . S
O153 C145 1.249 . S
Mg154 O155 2.028 . S
Mg154 O161 1.986 1_554 S
Mg154 O163 2.114 . S
Mg154 O164 2.251 . S
Mg154 O167 2.010 . S
O155 Mg154 2.028 . S
O155 C158 1.250 . S
O156 Mg157 2.028 . S
O156 C158 1.248 . S
Mg157 O156 2.028 . S
Mg157 O162 2.032 1_554 S
Mg157 O164 2.079 . S
C158 O155 1.250 . S
C158 O156 1.248 . S
C159 O160 1.264 . S
C159 O167 1.249 . S
O160 C159 1.264 . S
O161 Mg154 1.986 1_556 S
O161 C165 1.246 . S
O162 Mg157 2.032 1_556 S
O162 C165 1.259 . S
O163 Mg154 2.114 . S
O163 C166 1.252 . S
O164 Mg154 2.251 . S
O164 Mg157 2.079 . S
O164 C166 1.273 . S
C165 O161 1.246 . S
C165 O162 1.259 . S
C166 O163 1.252 . S
C166 O164 1.273 . S
O167 Mg154 2.010 . S
O167 C159 1.249 . S
H168 C174 0.930 . S
H169 C177 0.930 . S
H170 C178 0.930 . S
H171 C179 0.930 1_655 S
H172 C182 0.930 . S
H173 C183 0.930 . S
C174 H168 0.930 . S
C174 C175 1.355 . S
C174 C176 1.415 . S
C175 C174 1.355 . S
C175 C177 1.419 1_455 S
C176 C174 1.415 . S
C176 C181 1.425 . S
C176 C183 1.409 . S
C177 H169 0.930 . S
C177 C175 1.419 1_655 S
C177 C178 1.362 . S
C178 H170 0.930 . S
C178 C177 1.362 . S
C178 C181 1.409 1_655 S
C179 H171 0.930 1_455 S
C179 C180 1.355 . S
C179 C181 1.415 . S
C180 C179 1.355 . S
C180 C182 1.419 . S
C181 C176 1.425 . S
C181 C178 1.409 1_455 S
C181 C179 1.415 . S
C182 H172 0.930 . S
C182 C180 1.419 . S
C182 C183 1.362 . S
C183 H173 0.930 . S
C183 C176 1.409 . S
C183 C182 1.362 . S
H184 C190 0.930 . S
H185 C193 0.930 . S
H186 C194 0.930 1_565 S
H187 C195 0.930 . S
H188 C198 0.930 . S
H189 C199 0.930 . S
C190 H184 0.930 . S
C190 C191 1.355 . S
C190 C192 1.415 . S
C191 C190 1.355 . S
C191 C193 1.419 . S
C192 C190 1.415 . S
C192 C197 1.425 . S
C192 C199 1.409 . S
C193 H185 0.930 . S
C193 C191 1.419 . S
C193 C194 1.362 . S
C194 H186 0.930 1_545 S
C194 C193 1.362 . S
C194 C197 1.409 . S
C195 H187 0.930 . S
C195 C196 1.355 . S
C195 C197 1.415 . S
C196 C195 1.355 . S
C196 C198 1.419 . S
C197 C192 1.425 . S
C197 C194 1.409 . S
C197 C195 1.415 . S
C198 H188 0.930 . S
C198 C196 1.419 . S
C198 C199 1.362 . S
C199 H189 0.930 . S
C199 C192 1.409 . S
C199 C198 1.362 . S
H200 C206 0.930 . S
H201 C209 0.930 . S
H202 C210 0.930 . S
H203 C211 0.930 . S
H204 C214 0.930 . S
H205 C215 0.930 . S
C206 H200 0.930 . S
C206 C207 1.355 . S
C206 C208 1.415 . S
C207 C206 1.355 . S
C207 C209 1.419 . S
C208 C206 1.415 . S
C208 C213 1.425 . S
C208 C215 1.409 . S
C209 H201 0.930 . S
C209 C207 1.419 . S
C209 C210 1.362 . S
C210 H202 0.930 . S
C210 C209 1.362 . S
C210 C213 1.409 . S
C211 H203 0.930 . S
C211 C212 1.355 . S
C211 C213 1.415 . S
C212 C211 1.355 . S
C212 C214 1.419 . S
C213 C208 1.425 . S
C213 C210 1.409 . S
C213 C211 1.415 . S
C214 H204 0.930 . S
C214 C212 1.419 . S
C214 C215 1.362 . S
C215 H205 0.930 . S
C215 C208 1.409 . S
C215 C214 1.362 . S
H216 C222 0.930 . S
H217 C225 0.930 . S
H218 C226 0.930 . S
H219 C227 0.930 . S
H220 C230 0.930 . S
H221 C231 0.930 . S
C222 H216 0.930 . S
C222 C223 1.355 . S
C222 C224 1.415 . S
C223 C222 1.355 . S
C223 C225 1.419 1_545 S
C224 C222 1.415 . S
C224 C229 1.425 . S
C224 C231 1.409 . S
C225 H217 0.930 . S
C225 C223 1.419 1_565 S
C225 C226 1.362 . S
C226 H218 0.930 . S
C226 C225 1.362 . S
C226 C229 1.409 1_565 S
C227 H219 0.930 . S
C227 C228 1.355 1_565 S
C227 C229 1.415 1_565 S
C228 C227 1.355 1_545 S
C228 C230 1.419 . S
C229 C224 1.425 . S
C229 C226 1.409 1_545 S
C229 C227 1.415 1_545 S
C230 H220 0.930 . S
C230 C228 1.419 . S
C230 C231 1.362 . S
C231 H221 0.930 . S
C231 C224 1.409 . S
C231 C230 1.362 . S
H232 C238 0.930 . S
H233 C241 0.930 . S
H234 C242 0.930 . S
H235 C243 0.930 . S
H236 C246 0.930 . S
H237 C247 0.930 . S
C238 H232 0.930 . S
C238 C239 1.355 . S
C238 C240 1.415 . S
C239 C238 1.355 . S
C239 C241 1.419 . S
C240 C238 1.415 . S
C240 C245 1.425 . S
C240 C247 1.409 . S
C241 H233 0.930 . S
C241 C239 1.419 . S
C241 C242 1.362 . S
C242 H234 0.930 . S
C242 C241 1.362 . S
C242 C245 1.409 . S
C243 H235 0.930 . S
C243 C244 1.355 . S
C243 C245 1.415 . S
C244 C243 1.355 . S
C244 C246 1.419 . S
C245 C240 1.425 . S
C245 C242 1.409 . S
C245 C243 1.415 . S
C246 H236 0.930 . S
C246 C244 1.419 . S
C246 C247 1.362 . S
C247 H237 0.930 . S
C247 C240 1.409 . S
C247 C246 1.362 . S
H248 C254 0.930 . S
H249 C257 0.930 1_565 S
H250 C258 0.935 . S
H251 C259 0.930 1_565 S
H252 C262 0.930 . S
H253 C263 0.930 . S
C254 H248 0.930 . S
C254 C255 1.355 . S
C254 C256 1.415 . S
C255 C254 1.355 . S
C255 C257 1.419 . S
C256 C254 1.415 . S
C256 C261 1.425 . S
C256 C263 1.409 . S
C257 H249 0.930 1_545 S
C257 C255 1.419 . S
C257 C258 1.362 1_545 S
C258 H250 0.935 . S
C258 C257 1.362 1_565 S
C258 C261 1.405 1_565 S
C259 H251 0.930 1_545 S
C259 C260 1.355 . S
C259 C261 1.415 . S
C260 C259 1.355 . S
C260 C262 1.419 . S
C261 C256 1.425 . S
C261 C258 1.405 1_545 S
C261 C259 1.415 . S
C262 H252 0.930 . S
C262 C260 1.419 . S
C262 C263 1.362 . S
C263 H253 0.930 . S
C263 C256 1.409 . S
C263 C262 1.362 . S
H264 C270 0.930 . S
H265 C273 0.930 1_655 S
H266 C274 0.922 1_655 S
H267 C275 0.930 . S
H268 C278 0.930 . S
H269 C279 0.930 . S
C270 H264 0.930 . S
C270 C271 1.355 . S
C270 C272 1.415 . S
C271 C270 1.355 . S
C271 C273 1.419 . S
C272 C270 1.415 . S
C272 C277 1.425 . S
C272 C279 1.409 . S
C273 H265 0.930 1_455 S
C273 C271 1.419 . S
C273 C274 1.365 . S
C274 H266 0.922 1_455 S
C274 C273 1.365 . S
C274 C277 1.414 . S
C275 H267 0.930 . S
C275 C276 1.355 . S
C275 C277 1.415 . S
C276 C275 1.355 . S
C276 C278 1.419 . S
C277 C272 1.425 . S
C277 C274 1.414 . S
C277 C275 1.415 . S
C278 H268 0.930 . S
C278 C276 1.419 . S
C278 C279 1.362 . S
C279 H269 0.930 . S
C279 C272 1.409 . S
C279 C278 1.362 . S
H280 C286 0.930 . S
H281 C289 0.930 . S
H282 C290 0.930 . S
H283 C291 0.930 . S
H284 C294 0.930 . S
H285 C295 0.930 . S
C286 H280 0.930 . S
C286 C287 1.355 . S
C286 C288 1.415 . S
C287 C286 1.355 . S
C287 C289 1.419 . S
C288 C286 1.415 . S
C288 C293 1.425 . S
C288 C295 1.409 . S
C289 H281 0.930 . S
C289 C287 1.419 . S
C289 C290 1.362 . S
C290 H282 0.930 . S
C290 C289 1.362 . S
C290 C293 1.409 . S
C291 H283 0.930 . S
C291 C292 1.355 . S
C291 C293 1.415 . S
C292 C291 1.355 . S
C292 C294 1.419 . S
C293 C288 1.425 . S
C293 C290 1.409 . S
C293 C291 1.415 . S
C294 H284 0.930 . S
C294 C292 1.419 . S
C294 C295 1.362 . S
C295 H285 0.930 . S
C295 C288 1.409 . S
C295 C294 1.362 . S
H296 C302 0.930 1_556 S
H297 C305 0.930 . S
H298 C306 0.930 . S
H299 C307 0.930 . S
H300 C310 0.930 . S
H301 C311 0.930 . S
C302 H296 0.930 1_554 S
C302 C303 1.355 . S
C302 C304 1.415 . S
C303 C302 1.355 . S
C303 C305 1.419 . S
C304 C302 1.415 . S
C304 C309 1.425 . S
C304 C311 1.409 1_554 S
C305 H297 0.930 . S
C305 C303 1.419 . S
C305 C306 1.362 . S
C306 H298 0.930 . S
C306 C305 1.362 . S
C306 C309 1.409 . S
C307 H299 0.930 . S
C307 C308 1.355 . S
C307 C309 1.415 . S
C308 C307 1.355 . S
C308 C310 1.419 1_554 S
C309 C304 1.425 . S
C309 C306 1.409 . S
C309 C307 1.415 . S
C310 H300 0.930 . S
C310 C308 1.419 1_556 S
C310 C311 1.362 . S
C311 H301 0.930 . S
C311 C304 1.409 1_556 S
C311 C310 1.362 . S
H312 C318 0.930 1_556 S
H313 C321 0.930 . S
H314 C322 0.930 . S
H315 C323 0.930 . S
H316 C326 0.930 1_556 S
H317 C327 0.929 1_556 S
C318 H312 0.930 1_554 S
C318 C319 1.355 . S
C318 C320 1.415 . S
C319 C318 1.355 . S
C319 C321 1.419 . S
C320 C318 1.415 . S
C320 C325 1.425 . S
C320 C327 1.410 . S
C321 H313 0.930 . S
C321 C319 1.419 . S
C321 C322 1.362 . S
C322 H314 0.930 . S
C322 C321 1.362 . S
C322 C325 1.409 . S
C323 H315 0.930 . S
C323 C324 1.355 . S
C323 C325 1.415 . S
C324 C323 1.355 . S
C324 C326 1.419 . S
C325 C320 1.425 . S
C325 C322 1.409 . S
C325 C323 1.415 . S
C326 H316 0.930 1_554 S
C326 C324 1.419 . S
C326 C327 1.362 . S
C327 H317 0.929 1_554 S
C327 C320 1.410 . S
C327 C326 1.362 . S
H328 C334 0.930 . S
H329 C337 0.930 1_556 S
H330 C338 0.930 . S
H331 C339 0.930 . S
H332 C342 0.930 . S
H333 C343 0.930 . S
C334 H328 0.930 . S
C334 C335 1.355 . S
C334 C336 1.415 . S
C335 C334 1.355 . S
C335 C337 1.419 . S
C336 C334 1.415 . S
C336 C341 1.425 . S
C336 C343 1.409 . S
C337 H329 0.930 1_554 S
C337 C335 1.419 . S
C337 C338 1.362 1_554 S
C338 H330 0.930 . S
C338 C337 1.362 1_556 S
C338 C341 1.409 1_556 S
C339 H331 0.930 . S
C339 C340 1.355 . S
C339 C341 1.415 . S
C340 C339 1.355 . S
C340 C342 1.419 . S
C341 C336 1.425 . S
C341 C338 1.409 1_554 S
C341 C339 1.415 . S
C342 H332 0.930 . S
C342 C340 1.419 . S
C342 C343 1.362 . S
C343 H333 0.930 . S
C343 C336 1.409 . S
C343 C342 1.362 . S
H344 C350 0.930 . S
H345 C353 0.930 . S
H346 C354 0.930 . S
H347 C355 0.930 . S
H348 C358 0.930 . S
H349 C359 0.930 . S
C350 H344 0.930 . S
C350 C351 1.355 . S
C350 C352 1.415 . S
C351 C350 1.355 . S
C351 C353 1.419 . S
C352 C350 1.415 . S
C352 C357 1.425 . S
C352 C359 1.409 . S
C353 H345 0.930 . S
C353 C351 1.419 . S
C353 C354 1.362 . S
C354 H346 0.930 . S
C354 C353 1.362 . S
C354 C357 1.409 . S
C355 H347 0.930 . S
C355 C356 1.355 . S
C355 C357 1.415 . S
C356 C355 1.355 . S
C356 C358 1.419 . S
C357 C352 1.425 . S
C357 C354 1.409 . S
C357 C355 1.415 . S
C358 H348 0.930 . S
C358 C356 1.419 . S
C358 C359 1.362 . S
C359 H349 0.930 . S
C359 C352 1.409 . S
C359 C358 1.362 . S
H360 C366 0.930 . S
H361 C369 0.930 . S
H362 C370 0.930 . S
H363 C371 0.930 . S
H364 C374 0.930 . S
H365 C375 0.930 . S
C366 H360 0.930 . S
C366 C367 1.355 . S
C366 C368 1.415 . S
C367 C366 1.355 . S
C367 C369 1.419 . S
C368 C366 1.415 . S
C368 C373 1.425 . S
C368 C375 1.409 . S
C369 H361 0.930 . S
C369 C367 1.419 . S
C369 C370 1.362 . S
C370 H362 0.930 . S
C370 C369 1.362 . S
C370 C373 1.409 . S
C371 H363 0.930 . S
C371 C372 1.355 . S
C371 C373 1.415 . S
C372 C371 1.355 . S
C372 C374 1.419 . S
C373 C368 1.425 . S
C373 C370 1.409 . S
C373 C371 1.415 . S
C374 H364 0.930 . S
C374 C372 1.419 . S
C374 C375 1.362 . S
C375 H365 0.930 . S
C375 C368 1.409 . S
C375 C374 1.362 . S
H376 C382 0.930 . S
H377 C385 0.930 . S
H378 C386 0.930 . S
H379 C387 0.930 . S
H380 C390 0.930 . S
H381 C391 0.930 . S
C382 H376 0.930 . S
C382 C383 1.355 . S
C382 C384 1.415 . S
C383 C382 1.355 . S
C383 C385 1.419 . S
C384 C382 1.415 . S
C384 C389 1.425 . S
C384 C391 1.409 . S
C385 H377 0.930 . S
C385 C383 1.419 . S
C385 C386 1.362 . S
C386 H378 0.930 . S
C386 C385 1.362 . S
C386 C389 1.409 . S
C387 H379 0.930 . S
C387 C388 1.355 . S
C387 C389 1.415 . S
C388 C387 1.355 . S
C388 C390 1.419 . S
C389 C384 1.425 . S
C389 C386 1.409 . S
C389 C387 1.415 . S
C390 H380 0.930 . S
C390 C388 1.419 . S
C390 C391 1.362 . S
C391 H381 0.930 . S
C391 C384 1.409 . S
C391 C390 1.362 . S
H392 C398 0.930 . S
H393 C401 0.930 . S
H394 C402 0.930 . S
H395 C403 0.930 . S
H396 C406 0.930 . S
H397 C407 0.930 . S
C398 H392 0.930 . S
C398 C399 1.355 . S
C398 C400 1.415 . S
C399 C398 1.355 . S
C399 C401 1.419 . S
C400 C398 1.415 . S
C400 C405 1.425 . S
C400 C407 1.409 . S
C401 H393 0.930 . S
C401 C399 1.419 . S
C401 C402 1.362 . S
C402 H394 0.930 . S
C402 C401 1.362 . S
C402 C405 1.409 . S
C403 H395 0.930 . S
C403 C404 1.355 . S
C403 C405 1.415 . S
C404 C403 1.355 . S
C404 C406 1.419 . S
C405 C400 1.425 . S
C405 C402 1.409 . S
C405 C403 1.415 . S
C406 H396 0.930 . S
C406 C404 1.419 . S
C406 C407 1.362 . S
C407 H397 0.930 . S
C407 C400 1.409 . S
C407 C406 1.362 . S
H408 C414 0.930 . S
H409 C417 0.930 . S
H410 C418 0.930 . S
H411 C419 0.930 . S
H412 C422 0.930 . S
H413 C423 0.930 . S
C414 H408 0.930 . S
C414 C415 1.355 . S
C414 C416 1.415 . S
C415 C414 1.355 . S
C415 C417 1.419 . S
C416 C414 1.415 . S
C416 C421 1.425 . S
C416 C423 1.409 . S
C417 H409 0.930 . S
C417 C415 1.419 . S
C417 C418 1.362 . S
C418 H410 0.930 . S
C418 C417 1.362 . S
C418 C421 1.409 . S
C419 H411 0.930 . S
C419 C420 1.355 . S
C419 C421 1.415 . S
C420 C419 1.355 . S
C420 C422 1.419 . S
C421 C416 1.425 . S
C421 C418 1.409 . S
C421 C419 1.415 . S
C422 H412 0.930 . S
C422 C420 1.419 . S
C422 C423 1.362 . S
C423 H413 0.930 . S
C423 C416 1.409 . S
C423 C422 1.362 . S
H424 C430 0.930 . S
H425 C433 0.930 . S
H426 C434 0.930 . S
H427 C435 0.930 . S
H428 C438 0.930 . S
H429 C439 0.930 . S
C430 H424 0.930 . S
C430 C431 1.355 . S
C430 C432 1.415 . S
C431 C430 1.355 . S
C431 C433 1.419 . S
C432 C430 1.415 . S
C432 C437 1.425 . S
C432 C439 1.409 . S
C433 H425 0.930 . S
C433 C431 1.419 . S
C433 C434 1.362 . S
C434 H426 0.930 . S
C434 C433 1.362 . S
C434 C437 1.409 . S
C435 H427 0.930 . S
C435 C436 1.355 . S
C435 C437 1.415 . S
C436 C435 1.355 . S
C436 C438 1.419 . S
C437 C432 1.425 . S
C437 C434 1.409 . S
C437 C435 1.415 . S
C438 H428 0.930 . S
C438 C436 1.419 . S
C438 C439 1.362 . S
C439 H429 0.930 . S
C439 C432 1.409 . S
C439 C438 1.362 . S
H440 C446 0.930 . S
H441 C449 0.930 . S
H442 C450 0.930 . S
H443 C451 0.930 . S
H444 C454 0.930 . S
H445 C455 0.930 . S
C446 H440 0.930 . S
C446 C447 1.355 . S
C446 C448 1.415 . S
C447 C446 1.355 . S
C447 C449 1.419 . S
C448 C446 1.415 . S
C448 C453 1.425 . S
C448 C455 1.409 . S
C449 H441 0.930 . S
C449 C447 1.419 . S
C449 C450 1.362 . S
C450 H442 0.930 . S
C450 C449 1.362 . S
C450 C453 1.409 . S
C451 H443 0.930 . S
C451 C452 1.355 . S
C451 C453 1.415 . S
C452 C451 1.355 . S
C452 C454 1.419 . S
C453 C448 1.425 . S
C453 C450 1.409 . S
C453 C451 1.415 . S
C454 H444 0.930 . S
C454 C452 1.419 . S
C454 C455 1.362 . S
C455 H445 0.930 . S
C455 C448 1.409 . S
C455 C454 1.362 . S
H456 C462 0.930 . S
H457 C465 0.930 . S
H458 C466 0.930 . S
H459 C467 0.930 . S
H460 C470 0.930 . S
H461 C471 0.930 . S
C462 H456 0.930 . S
C462 C463 1.355 . S
C462 C464 1.415 . S
C463 C462 1.355 . S
C463 C465 1.419 . S
C464 C462 1.415 . S
C464 C469 1.425 . S
C464 C471 1.409 . S
C465 H457 0.930 . S
C465 C463 1.419 . S
C465 C466 1.362 . S
C466 H458 0.930 . S
C466 C465 1.362 . S
C466 C469 1.409 . S
C467 H459 0.930 . S
C467 C468 1.355 . S
C467 C469 1.415 . S
C468 C467 1.355 . S
C468 C470 1.419 . S
C469 C464 1.425 . S
C469 C466 1.409 . S
C469 C467 1.415 . S
C470 H460 0.930 . S
C470 C468 1.419 . S
C470 C471 1.362 . S
C471 H461 0.930 . S
C471 C464 1.409 . S
C471 C470 1.362 . S
H472 C478 0.930 . S
H473 C481 0.930 . S
H474 C482 0.930 . S
H475 C483 0.930 . S
H476 C486 0.930 . S
H477 C487 0.930 . S
C478 H472 0.930 . S
C478 C479 1.355 . S
C478 C480 1.415 . S
C479 C478 1.355 . S
C479 C481 1.419 . S
C480 C478 1.415 . S
C480 C485 1.425 . S
C480 C487 1.409 . S
C481 H473 0.930 . S
C481 C479 1.419 . S
C481 C482 1.362 . S
C482 H474 0.930 . S
C482 C481 1.362 . S
C482 C485 1.409 . S
C483 H475 0.930 . S
C483 C484 1.355 . S
C483 C485 1.415 . S
C484 C483 1.355 . S
C484 C486 1.419 . S
C485 C480 1.425 . S
C485 C482 1.409 . S
C485 C483 1.415 . S
C486 H476 0.930 . S
C486 C484 1.419 . S
C486 C487 1.362 . S
C487 H477 0.930 . S
C487 C480 1.409 . S
C487 C486 1.362 . S
H488 C494 0.930 . S
H489 C497 0.930 . S
H490 C498 0.930 . S
H491 C499 0.930 . S
H492 C502 0.930 . S
H493 C503 0.930 . S
C494 H488 0.930 . S
C494 C495 1.355 . S
C494 C496 1.415 . S
C495 C494 1.355 . S
C495 C497 1.419 . S
C496 C494 1.415 . S
C496 C501 1.425 . S
C496 C503 1.409 . S
C497 H489 0.930 . S
C497 C495 1.419 . S
C497 C498 1.362 . S
C498 H490 0.930 . S
C498 C497 1.362 . S
C498 C501 1.409 . S
C499 H491 0.930 . S
C499 C500 1.355 . S
C499 C501 1.415 . S
C500 C499 1.355 . S
C500 C502 1.419 . S
C501 C496 1.425 . S
C501 C498 1.409 . S
C501 C499 1.415 . S
C502 H492 0.930 . S
C502 C500 1.419 . S
C502 C503 1.362 . S
C503 H493 0.930 . S
C503 C496 1.409 . S
C503 C502 1.362 . S
H504 C510 0.930 . S
H505 C513 0.930 . S
H506 C514 0.930 . S
H507 C515 0.930 . S
H508 C518 0.930 . S
H509 C519 0.930 . S
C510 H504 0.930 . S
C510 C511 1.355 . S
C510 C512 1.415 . S
C511 C510 1.355 . S
C511 C513 1.419 . S
C512 C510 1.415 . S
C512 C517 1.425 . S
C512 C519 1.409 . S
C513 H505 0.930 . S
C513 C511 1.419 . S
C513 C514 1.362 . S
C514 H506 0.930 . S
C514 C513 1.362 . S
C514 C517 1.409 . S
C515 H507 0.930 . S
C515 C516 1.355 . S
C515 C517 1.415 . S
C516 C515 1.355 . S
C516 C518 1.419 . S
C517 C512 1.425 . S
C517 C514 1.409 . S
C517 C515 1.415 . S
C518 H508 0.930 . S
C518 C516 1.419 . S
C518 C519 1.362 . S
C519 H509 0.930 . S
C519 C512 1.409 . S
C519 C518 1.362 . S
H520 C526 0.930 . S
H521 C529 0.930 . S
H522 C530 0.930 . S
H523 C531 0.930 . S
H524 C534 0.930 . S
H525 C535 0.930 . S
C526 H520 0.930 . S
C526 C527 1.355 . S
C526 C528 1.415 . S
C527 C526 1.355 . S
C527 C529 1.419 . S
C528 C526 1.415 . S
C528 C533 1.425 . S
C528 C535 1.409 . S
C529 H521 0.930 . S
C529 C527 1.419 . S
C529 C530 1.362 . S
C530 H522 0.930 . S
C530 C529 1.362 . S
C530 C533 1.409 . S
C531 H523 0.930 . S
C531 C532 1.355 . S
C531 C533 1.415 . S
C532 C531 1.355 . S
C532 C534 1.419 . S
C533 C528 1.425 . S
C533 C530 1.409 . S
C533 C531 1.415 . S
C534 H524 0.930 . S
C534 C532 1.419 . S
C534 C535 1.362 . S
C535 H525 0.930 . S
C535 C528 1.409 . S
C535 C534 1.362 . S
H536 C542 0.930 . S
H537 C545 0.930 . S
H538 C546 0.930 . S
H539 C547 0.930 . S
H540 C550 0.930 . S
H541 C551 0.930 . S
C542 H536 0.930 . S
C542 C543 1.355 . S
C542 C544 1.415 . S
C543 C542 1.355 . S
C543 C545 1.419 . S
C544 C542 1.415 . S
C544 C549 1.425 . S
C544 C551 1.409 . S
C545 H537 0.930 . S
C545 C543 1.419 . S
C545 C546 1.362 . S
C546 H538 0.930 . S
C546 C545 1.362 . S
C546 C549 1.409 . S
C547 H539 0.930 . S
C547 C548 1.355 . S
C547 C549 1.415 . S
C548 C547 1.355 . S
C548 C550 1.419 . S
C549 C544 1.425 . S
C549 C546 1.409 . S
C549 C547 1.415 . S
C550 H540 0.930 . S
C550 C548 1.419 . S
C550 C551 1.362 . S
C551 H541 0.930 . S
C551 C544 1.409 . S
C551 C550 1.362 . S
C175 C11 1.280 . S
C180 C82 1.341 . S
C191 C26 1.340 . S
C196 C60 1.342 . S
C207 C81 1.240 . S
C212 C39 1.269 . S
C223 C54 1.426 . S
C228 C61 1.287 . S
C239 C109 1.364 . S
C244 C40 1.355 . S
C255 C88 1.217 . S
C260 C53 1.201 . S
C271 C12 1.403 . S
C276 C110 1.416 . S
C287 C89 1.111 . S
C292 C25 1.269 . S
C303 C131 1.268 . S
C308 C117 1.130 . S
C319 C116 1.223 . S
C324 C158 1.257 . S
C335 C130 1.200 . S
C340 C144 1.213 . S
C351 C145 1.287 . S
C356 C159 1.175 . S
C367 C165 1.282 . S
C372 C96 1.347 . S
C383 C124 1.322 . S
C388 C102 1.303 . S
C399 C95 1.240 . S
C404 C137 1.197 . S
C415 C103 1.292 . S
C420 C152 1.426 . S
C431 C67 1.318 . S
C436 C138 1.383 . S
C447 C74 1.219 . S
C452 C151 1.189 . S
C463 C166 1.400 . S
C468 C68 1.404 . S
C479 C123 1.287 . S
C484 C75 1.104 . S
C495 C19 1.250 . S
C500 C33 1.147 . S
C511 C4 1.262 . S
C516 C18 1.220 . S
C527 C32 1.202 . S
C532 C46 1.211 . S
C543 C5 1.299 . S
C548 C47 1.156 . S
