# Generated by pormake.
# Topology sma, (6)-cn, num edge types: 1
# Building blocks:
#     Node 0, Type 0, BuildingBlock: CUWYAW_clean_sbu_0, # of connection points: 6
#     Node 1, Type 0, BuildingBlock: CUWYAW_clean_sbu_0, # of connection points: 6
#     Node 2, Type 0, BuildingBlock: CUWYAW_clean_sbu_0, # of connection points: 6
#     Edge 3, Type (0, 0), BuildingBlock: MIFKUJ_clean_linker_0, # of connection points: 2
#     Edge 4, Type (0, 0), BuildingBlock: MIFKUJ_clean_linker_0, # of connection points: 2
#     Edge 5, Type (0, 0), BuildingBlock: MIFKUJ_clean_linker_0, # of connection points: 2
#     Edge 6, Type (0, 0), BuildingBlock: MIFKUJ_clean_linker_0, # of connection points: 2
#     Edge 7, Type (0, 0), BuildingBlock: MIFKUJ_clean_linker_0, # of connection points: 2
#     Edge 8, Type (0, 0), BuildingBlock: MIFKUJ_clean_linker_0, # of connection points: 2
#     Edge 9, Type (0, 0), BuildingBlock: MIFKUJ_clean_linker_0, # of connection points: 2
#     Edge 10, Type (0, 0), BuildingBlock: MIFKUJ_clean_linker_0, # of connection points: 2
#     Edge 11, Type (0, 0), BuildingBlock: MIFKUJ_clean_linker_0, # of connection points: 2
# Relax obj value: 0.086
# Max RMSD: 0.185
# Mean RMSD: 0.185
data_MOF--net-sma--node1-CUWYAW_clean_sbu_0--edge1-MIFKUJ_clean_linker_0
_symmetry_space_group_name_H-M    P1
_symmetry_Int_Tables_number       1
_symmetry_cell_setting            triclinic
loop_
_symmetry_equiv_pos_as_xyz
'x, y, z'
_cell_length_a     48.962972
_cell_length_b     48.770141
_cell_length_c     17.32903
_cell_angle_alpha  89.913801
_cell_angle_beta   90.08453
_cell_angle_gamma 119.76973
loop_
_atom_site_label
_atom_site_type_symbol
_atom_site_fract_x
_atom_site_fract_y
_atom_site_fract_z
_atom_type_partial_charge
C0 C 0.98179 0.42466 0.08909 0.0
Eu1 Eu 1.01504 0.48547 0.11141 0.0
C2 C 0.95146 0.398 0.11791 0.0
C3 C 0.94997 0.38348 0.18932 0.0
C4 C 0.9217 0.3579 0.21547 0.0
C5 C 0.89406 0.34597 0.17098 0.0
C6 C 0.89551 0.36054 0.09967 0.0
C7 C 0.92386 0.38612 0.07336 0.0
C8 C 1.01887 0.50947 0.25286 0.0
C9 C 0.98386 0.52981 0.1046 0.0
C10 C 0.09182 0.6165 0.18087 0.0
Eu11 Eu 0.06028 0.55813 0.13154 0.0
C12 C 0.12415 0.64195 0.20133 0.0
C13 C 0.14496 0.66211 0.14446 0.0
C14 C 0.17422 0.68783 0.16492 0.0
C15 C 0.18343 0.69424 0.24283 0.0
C16 C 0.16276 0.67376 0.29954 0.0
C17 C 0.1335 0.64806 0.27909 0.0
C18 C 0.05169 0.53692 -0.01586 0.0
C19 C 0.09158 0.51538 0.10674 0.0
O20 O 0.98052 0.44542 0.04311 0.0
O21 O 1.00499 0.43781 0.13881 0.0
O22 O 0.99335 0.4863 0.22501 0.0
O23 O 0.04153 0.51696 0.2078 0.0
O24 O 0.98048 0.50196 0.08585 0.0
O25 O 1.01115 0.55351 0.12976 0.0
O26 O 0.07813 0.59195 0.22668 0.0
O27 O 0.08546 0.6088 0.10806 0.0
O28 O 0.07816 0.5598 0.0104 0.0
O29 O 1.03142 0.52732 0.03671 0.0
O30 O 0.09522 0.54113 0.14141 0.0
O31 O 0.06376 0.49326 0.08063 0.0
H32 H 0.9707 0.39178 0.22526 0.0
H33 H 0.92146 0.34762 0.27108 0.0
H34 H 0.87485 0.3518 0.06332 0.0
H35 H 0.92419 0.39646 0.01776 0.0
H36 H 0.1384 0.65849 0.08406 0.0
H37 H 0.18923 0.70325 0.11963 0.0
H38 H 0.16913 0.67763 0.36003 0.0
H39 H 0.11795 0.63326 0.32449 0.0
C40 C 0.49408 0.08243 0.41779 0.0
Eu41 Eu 0.52306 0.05057 0.44327 0.0
C42 C 0.49831 0.11348 0.44072 0.0
C43 C 0.52466 0.13496 0.48364 0.0
C44 C 0.52754 0.16366 0.5084 0.0
C45 C 0.50405 0.17143 0.49099 0.0
C46 C 0.47784 0.14983 0.44736 0.0
C47 C 0.47502 0.1212 0.4226 0.0
C48 C 0.54533 0.04897 0.58361 0.0
C49 C 0.59824 0.08272 0.4298 0.0
C50 C 0.57984 0.97578 0.51505 0.0
Eu51 Eu 0.55187 1.00621 0.46464 0.0
C52 C 0.57354 0.94353 0.53602 0.0
C53 C 0.58442 0.92778 0.48795 0.0
C54 C 0.58108 0.89858 0.50955 0.0
C55 C 0.56695 0.88434 0.58022 0.0
C56 C 0.55563 0.8999 0.62784 0.0
C57 C 0.55896 0.92914 0.60616 0.0
C58 C 0.5373 1.01295 0.31744 0.0
C59 C 0.47771 0.97334 0.44338 0.0
O60 O 0.51503 0.08253 0.37053 0.0
O61 O 0.48656 0.06176 0.47356 0.0
O62 O 0.54704 0.07414 0.55417 0.0
O63 O 0.52988 1.0255 0.5407 0.0
O64 O 0.57322 0.08525 0.41216 0.0
O65 O 0.59559 0.05601 0.45789 0.0
O66 O 0.56878 0.98947 0.56028 0.0
O67 O 0.57817 0.98167 0.44199 0.0
O68 O 0.53492 0.98693 0.3445 0.0
O69 O 0.54798 0.03365 0.36909 0.0
O70 O 0.50051 0.97025 0.47586 0.0
O71 O 0.48235 1.00104 0.41789 0.0
H72 H 0.5428 0.12934 0.49881 0.0
H73 H 0.54785 0.17946 0.54261 0.0
H74 H 0.45951 0.15512 0.43187 0.0
H75 H 0.45447 0.10492 0.38973 0.0
H76 H 0.59601 0.93832 0.4339 0.0
H77 H 0.58967 0.88718 0.47074 0.0
H78 H 0.54498 0.88994 0.68307 0.0
H79 H 0.55062 0.94071 0.64518 0.0
C80 C 0.64148 0.5715 0.77319 0.0
Eu81 Eu 0.58043 0.54207 0.78837 0.0
C82 C 0.66774 0.56698 0.79906 0.0
C83 C 0.66356 0.54541 0.85793 0.0
C84 C 0.68912 0.54268 0.88493 0.0
C85 C 0.71942 0.56149 0.85363 0.0
C86 C 0.72329 0.58271 0.79377 0.0
C87 C 0.69772 0.58541 0.76689 0.0
C88 C 0.55302 0.51308 0.9206 0.0
C89 C 0.53661 0.46816 0.75369 0.0
C90 C 0.44858 0.48585 0.8436 0.0
Eu91 Eu 0.50755 0.51456 0.80057 0.0
C92 C 0.42261 0.49217 0.86309 0.0
C93 C 0.3993 0.48681 0.80816 0.0
C94 C 0.37333 0.49011 0.82785 0.0
C95 C 0.36981 0.49866 0.90321 0.0
C96 C 0.39337 0.50443 0.95789 0.0
C97 C 0.41935 0.50113 0.93819 0.0
C98 C 0.5328 0.5359 0.65908 0.0
C99 C 0.55025 0.58919 0.79496 0.0
O100 O 0.62216 0.55154 0.72182 0.0
O101 O 0.62683 0.57777 0.82759 0.0
O102 O 0.57687 0.51238 0.89108 0.0
O103 O 0.54654 0.53128 0.88341 0.0
O104 O 0.56457 0.49339 0.74175 0.0
O105 O 0.51263 0.47044 0.78304 0.0
O106 O 0.47226 0.49583 0.89177 0.0
O107 O 0.45753 0.48889 0.77142 0.0
O108 O 0.5083 0.53685 0.68484 0.0
O109 O 0.54082 0.52217 0.7076 0.0
O110 O 0.52358 0.56583 0.82236 0.0
O111 O 0.57329 0.58451 0.77039 0.0
H112 H 0.64063 0.53102 0.88385 0.0
H113 H 0.68524 0.52634 0.93158 0.0
H114 H 0.7461 0.5972 0.76738 0.0
H115 H 0.70145 0.60218 0.72139 0.0
H116 H 0.40084 0.47955 0.75004 0.0
H117 H 0.35593 0.48587 0.78387 0.0
H118 H 0.3913 0.51061 0.01674 0.0
H119 H 0.43655 0.50499 -0.01757 0.0
H120 H 0.0956 0.47013 0.02135 0.0
H121 H 0.1427 0.46715 -0.00976 0.0
H122 H 0.19901 0.55059 0.12649 0.0
H123 H 0.15212 0.55415 0.15648 0.0
H124 H 0.22757 0.55501 -0.00493 0.0
H125 H 0.17985 0.47481 0.1891 0.0
H126 H 0.13721 0.42714 0.25066 0.0
H127 H 0.13209 0.37179 0.05298 0.0
H128 H 0.17443 0.41924 -0.01023 0.0
H129 H 0.36628 0.54206 -0.00208 0.0
H130 H 0.31938 0.54442 0.0357 0.0
H131 H 0.2619 0.46277 0.89508 0.0
H132 H 0.30849 0.45958 0.85919 0.0
H133 H 0.23434 0.45765 0.03098 0.0
H134 H 0.28171 0.53822 0.83666 0.0
H135 H 0.3244 0.58599 0.77556 0.0
H136 H 0.33029 0.64076 0.97515 0.0
H137 H 0.2879 0.5932 0.03789 0.0
C138 C 0.11793 0.48774 0.0453 0.0
C139 C 0.11993 0.51235 0.09166 0.0
C140 C 0.14492 0.48594 0.0276 0.0
C141 C 0.17452 0.50845 0.0566 0.0
C142 C 0.17653 0.53292 0.10331 0.0
C143 C 0.14959 0.53484 0.12068 0.0
C144 C 0.20348 0.50703 0.03655 0.0
C145 C 0.22917 0.53384 0.00409 0.0
C146 C 0.2055 0.47923 0.04645 0.0
C147 C 0.18011 0.45064 0.08442 0.0
C148 C 0.16947 0.45252 0.15852 0.0
C149 C 0.14538 0.42553 0.19375 0.0
C150 C 0.1319 0.39647 0.15568 0.0
C151 C 0.14253 0.39432 0.08236 0.0
C152 C 0.16659 0.42125 0.04684 0.0
C153 C 0.34365 0.52445 0.97538 0.0
C154 C 0.34131 0.50069 0.92515 0.0
C155 C 0.31683 0.52601 -0.00349 0.0
C156 C 0.28703 0.50399 0.96761 0.0
C157 C 0.28458 0.48012 0.918 0.0
C158 C 0.31136 0.47852 0.89688 0.0
C159 C 0.25836 0.50561 -0.01052 0.0
C160 C 0.23273 0.47883 0.02221 0.0
C161 C 0.25641 0.53345 0.97997 0.0
C162 C 0.28185 0.56208 0.94228 0.0
C163 C 0.29228 0.5604 0.86777 0.0
C164 C 0.31639 0.58745 0.8328 0.0
C165 C 0.33011 0.61637 0.87153 0.0
C166 C 0.31968 0.61832 0.94526 0.0
C167 C 0.29559 0.59134 -0.01947 0.0
H168 H 0.34877 0.63729 0.84436 0.0
H169 H 0.11325 0.3756 0.18305 0.0
H170 H 0.61166 0.13952 0.36699 0.0
H171 H 0.66234 0.18239 0.32452 0.0
H172 H 0.70754 0.13069 0.40208 0.0
H173 H 0.65654 0.08734 0.44559 0.0
H174 H 0.74181 0.19305 0.44053 0.0
H175 H 0.69415 0.13451 0.2093 0.0
H176 H 0.65308 0.10841 0.1099 0.0
H177 H 0.65561 0.19601 0.06225 0.0
H178 H 0.69664 0.22269 0.16152 0.0
H179 H 0.88583 0.29229 0.24386 0.0
H180 H 0.83685 0.24731 0.28974 0.0
H181 H 0.78504 0.29163 0.2068 0.0
H182 H 0.83399 0.33672 0.16063 0.0
H183 H 0.75482 0.23108 0.17013 0.0
H184 H 0.80129 0.28951 0.40203 0.0
H185 H 0.84296 0.31642 0.49959 0.0
H186 H 0.84223 0.22961 0.54688 0.0
H187 H 0.80084 0.20226 0.44878 0.0
C188 C 0.6323 0.13713 0.37559 0.0
C189 C 0.62982 0.10972 0.40963 0.0
C190 C 0.66135 0.16172 0.35064 0.0
C191 C 0.6888 0.15965 0.35866 0.0
C192 C 0.68668 0.1328 0.39475 0.0
C193 C 0.65748 0.10801 0.41969 0.0
C194 C 0.71952 0.18565 0.32944 0.0
C195 C 0.74482 0.20101 0.38107 0.0
C196 C 0.72334 0.19666 0.25226 0.0
C197 C 0.6983 0.18054 0.19335 0.0
C198 C 0.68577 0.14816 0.1781 0.0
C199 C 0.66256 0.13328 0.12163 0.0
C200 C 0.65168 0.15051 0.08001 0.0
C201 C 0.66404 0.18269 0.09461 0.0
C202 C 0.68733 0.19772 0.15082 0.0
C203 C 0.86408 0.29267 0.23599 0.0
C204 C 0.86401 0.31833 0.19872 0.0
C205 C 0.836 0.26685 0.2623 0.0
C206 C 0.80712 0.2661 0.25278 0.0
C207 C 0.80693 0.29152 0.21491 0.0
C208 C 0.83499 0.31732 0.18829 0.0
C209 C 0.77709 0.23872 0.28135 0.0
C210 C 0.7519 0.22307 0.22954 0.0
C211 C 0.77336 0.22754 0.35839 0.0
C212 C 0.7982 0.24391 0.41747 0.0
C213 C 0.8102 0.27621 0.43279 0.0
C214 C 0.83373 0.29154 0.48826 0.0
C215 C 0.8453 0.27476 0.52925 0.0
C216 C 0.83329 0.24259 0.51499 0.0
C217 C 0.80977 0.22716 0.4595 0.0
H218 H 0.86352 0.28666 0.57219 0.0
H219 H 0.63373 0.13896 0.03632 0.0
H220 H 0.61088 0.86547 0.5614 0.0
H221 H 0.60749 0.81582 0.601 0.0
H222 H 0.51526 0.78441 0.6959 0.0
H223 H 0.51836 0.83405 0.65585 0.0
H224 H 0.5497 0.77086 0.79295 0.0
H225 H 0.52473 0.7554 0.52379 0.0
H226 H 0.53237 0.76804 0.38493 0.0
H227 H 0.61879 0.76553 0.3896 0.0
H228 H 0.61188 0.7533 0.52882 0.0
H229 H 0.50715 0.60796 0.82947 0.0
H230 H 0.51009 0.65826 0.79804 0.0
H231 H 0.60247 0.69242 0.70106 0.0
H232 H 0.59964 0.64216 0.73151 0.0
H233 H 0.56672 0.70409 0.60535 0.0
H234 H 0.59164 0.71979 0.8753 0.0
H235 H 0.58359 0.70685 0.01398 0.0
H236 H 0.49667 0.70834 0.00743 0.0
H237 H 0.504 0.72089 0.86839 0.0
C238 C 0.58966 0.84791 0.58982 0.0
C239 C 0.56479 0.85385 0.60477 0.0
C240 C 0.5878 0.81947 0.6127 0.0
C241 C 0.56095 0.79607 0.65073 0.0
C242 C 0.53625 0.80204 0.66672 0.0
C243 C 0.5381 0.83053 0.64388 0.0
C244 C 0.55879 0.76551 0.67397 0.0
C245 C 0.55298 0.75605 0.75167 0.0
C246 C 0.5637 0.74636 0.62065 0.0
C247 C 0.56794 0.75375 0.53693 0.0
C248 C 0.5455 0.75781 0.49537 0.0
C249 C 0.54967 0.76485 0.41656 0.0
C250 C 0.57609 0.76767 0.37851 0.0
C251 C 0.59836 0.76338 0.41918 0.0
C252 C 0.59431 0.75637 0.49802 0.0
C253 C 0.52828 0.62627 0.8023 0.0
C254 C 0.55316 0.62085 0.78317 0.0
C255 C 0.52995 0.65513 0.78444 0.0
C256 C 0.55658 0.67934 0.74737 0.0
C257 C 0.58164 0.67417 0.72947 0.0
C258 C 0.58002 0.64538 0.74735 0.0
C259 C 0.55788 0.70954 0.72446 0.0
C260 C 0.56345 0.7189 0.64669 0.0
C261 C 0.55269 0.72852 0.77769 0.0
C262 C 0.54822 0.72096 0.86125 0.0
C263 C 0.57068 0.71709 0.90328 0.0
C264 C 0.56627 0.70988 -0.01802 0.0
C265 C 0.53959 0.70669 0.01945 0.0
C266 C 0.5173 0.71078 0.97831 0.0
C267 C 0.52158 0.71796 0.89957 0.0
H268 H 0.53623 0.70112 0.08039 0.0
H269 H 0.57927 0.77311 0.31749 0.0
H270 H 0.77969 0.60975 0.87911 0.0
H271 H 0.82479 0.60623 0.9271 0.0
H272 H 0.76689 0.50505 0.94569 0.0
H273 H 0.72164 0.50837 0.89735 0.0
H274 H 0.80332 0.52802 0.07027 0.0
H275 H 0.81965 0.53974 0.79698 0.0
H276 H 0.82536 0.56449 0.66943 0.0
H277 H 0.90547 0.64957 0.75097 0.0
H278 H 0.89997 0.62547 0.87944 0.0
H279 H 0.92229 0.48515 0.08345 0.0
H280 H 0.87846 0.49316 0.04844 0.0
H281 H 0.94004 0.59406 0.05552 0.0
H282 H 0.98428 0.58623 0.09091 0.0
H283 H 0.9031 0.57383 0.92228 0.0
H284 H 0.88779 0.55966 0.19509 0.0
H285 H 0.88239 0.53288 0.31954 0.0
H286 H 0.80015 0.45031 0.23574 0.0
H287 H 0.80536 0.47642 0.11024 0.0
C288 C 0.77655 0.58668 0.89261 0.0
C289 C 0.74695 0.55932 0.88373 0.0
C290 C 0.80242 0.58471 0.92031 0.0
C291 C 0.79945 0.55533 0.9393 0.0
C292 C 0.76985 0.52802 0.9316 0.0
C293 C 0.74393 0.52997 0.90404 0.0
C294 C 0.82717 0.55305 0.96699 0.0
C295 C 0.825 0.53776 0.03742 0.0
C296 C 0.85583 0.56634 0.92522 0.0
C297 C 0.85917 0.58092 0.84809 0.0
C298 C 0.83832 0.56383 0.78793 0.0
C299 C 0.84155 0.57772 0.71542 0.0
C300 C 0.8657 0.60862 0.70217 0.0
C301 C 0.88673 0.62566 0.76136 0.0
C302 C 0.88358 0.61189 0.83402 0.0
C303 C 0.92656 0.5091 0.07831 0.0
C304 C 0.95686 0.53506 0.09018 0.0
C305 C 0.90138 0.51363 0.05843 0.0
C306 C 0.90586 0.54421 0.04964 0.0
C307 C 0.93601 0.57024 0.06207 0.0
C308 C 0.96123 0.56573 0.08281 0.0
C309 C 0.87915 0.54873 0.02523 0.0
C310 C 0.88149 0.56435 0.95536 0.0
C311 C 0.8506 0.53556 0.06721 0.0
C312 C 0.84713 0.51992 0.14299 0.0
C313 C 0.86868 0.53571 0.20298 0.0
C314 C 0.86564 0.52066 0.27375 0.0
C315 C 0.84098 0.48989 0.28549 0.0
C316 C 0.81926 0.47414 0.22654 0.0
C317 C 0.82223 0.48906 0.15559 0.0
H318 H 0.83868 0.47827 0.34031 0.0
H319 H 0.86818 0.61932 0.64598 0.0
H320 H 0.4615 0.9114 0.46706 0.0
H321 H 0.41198 0.86406 0.43454 0.0
H322 H 0.37374 0.92216 0.35676 0.0
H323 H 0.42346 0.96965 0.38739 0.0
H324 H 0.35351 0.8385 0.47996 0.0
H325 H 0.32393 0.88724 0.20681 0.0
H326 H 0.35161 0.92708 0.10527 0.0
H327 H 0.43408 0.91869 0.13859 0.0
H328 H 0.40675 0.8785 0.2395 0.0
H329 H 0.19556 0.73438 0.36547 0.0
H330 H 0.24534 0.78078 0.4011 0.0
H331 H 0.29051 0.76539 0.20578 0.0
H332 H 0.24079 0.71876 0.16995 0.0
H333 H 0.30874 0.82627 0.21692 0.0
H334 H 0.30194 0.74682 0.38987 0.0
H335 H 0.27733 0.70458 0.48736 0.0
H336 H 0.27316 0.76979 0.64657 0.0
H337 H 0.29737 0.81234 0.54957 0.0
C338 C 0.44254 0.9142 0.44343 0.0
C339 C 0.44668 0.94449 0.42943 0.0
C340 C 0.41413 0.887 0.42492 0.0
C341 C 0.38912 0.88936 0.39199 0.0
C342 C 0.39281 0.91958 0.38054 0.0
C343 C 0.42129 0.94679 0.39852 0.0
C344 C 0.35953 0.86028 0.36836 0.0
C345 C 0.34372 0.83593 0.42249 0.0
C346 C 0.3469 0.85638 0.29286 0.0
C347 C 0.36337 0.88009 0.23122 0.0
C348 C 0.34791 0.8938 0.19219 0.0
C349 C 0.36355 0.91645 0.13479 0.0
C350 C 0.39461 0.92548 0.11566 0.0
C351 C 0.41006 0.91176 0.15364 0.0
C352 C 0.39451 0.88906 0.21097 0.0
C353 C 0.21612 0.74056 0.33049 0.0
C354 C 0.21403 0.72255 0.26495 0.0
C355 C 0.24464 0.76725 0.35089 0.0
C356 C 0.27191 0.77654 0.30667 0.0
C357 C 0.26986 0.75882 0.24083 0.0
C358 C 0.24133 0.73214 0.2203 0.0
C359 C 0.30246 0.80476 0.32893 0.0
C360 C 0.31846 0.82893 0.27451 0.0
C361 C 0.31563 0.80816 0.4036 0.0
C362 C 0.30119 0.78269 0.46219 0.0
C363 C 0.29556 0.75209 0.44547 0.0
C364 C 0.28172 0.72811 0.50067 0.0
C365 C 0.27361 0.73448 0.57305 0.0
C366 C 0.27941 0.76488 0.59044 0.0
C367 C 0.29322 0.78895 0.5354 0.0
H368 H 0.2629 0.71587 0.61571 0.0
H369 H 0.40669 0.94306 0.07131 0.0
H370 H 0.58054 0.45472 0.69556 0.0
H371 H 0.57291 0.40427 0.64946 0.0
H372 H 0.47423 0.35996 0.70535 0.0
H373 H 0.48175 0.4106 0.75294 0.0
H374 H 0.49804 0.32364 0.75064 0.0
H375 H 0.49912 0.37481 0.51143 0.0
H376 H 0.51946 0.4173 0.4136 0.0
H377 H 0.60582 0.41509 0.40106 0.0
H378 H 0.58588 0.37221 0.4976 0.0
H379 H 0.45726 0.1813 0.54785 0.0
H380 H 0.46135 0.23089 0.59103 0.0
H381 H 0.56081 0.27979 0.5422 0.0
H382 H 0.55673 0.2304 0.49673 0.0
H383 H 0.53447 0.31328 0.49097 0.0
H384 H 0.53284 0.26133 0.72776 0.0
H385 H 0.51212 0.21785 0.8225 0.0
H386 H 0.42692 0.22219 0.84175 0.0
H387 H 0.44697 0.26543 0.74625 0.0
C388 C 0.55713 0.43433 0.69824 0.0
C389 C 0.53174 0.43688 0.72808 0.0
C390 C 0.55278 0.40543 0.67116 0.0
C391 C 0.52288 0.37828 0.67247 0.0
C392 C 0.49751 0.38056 0.70328 0.0
C393 C 0.50186 0.40956 0.73059 0.0
C394 C 0.5185 0.3475 0.64364 0.0
C395 C 0.50549 0.32125 0.69332 0.0
C396 C 0.52892 0.34442 0.56954 0.0
C397 C 0.54111 0.37049 0.51224 0.0
C398 C 0.52253 0.38354 0.48819 0.0
C399 C 0.53395 0.40764 0.43293 0.0
C400 C 0.56398 0.4191 0.40182 0.0
C401 C 0.58258 0.40627 0.42536 0.0
C402 C 0.57118 0.38194 0.48 0.0
C403 C 0.47999 0.20262 0.54562 0.0
C404 C 0.50666 0.20172 0.51862 0.0
C405 C 0.48235 0.23098 0.57113 0.0
C406 C 0.51146 0.25916 0.57071 0.0
C407 C 0.53809 0.25841 0.54335 0.0
C408 C 0.53577 0.23004 0.51794 0.0
C409 C 0.5141 0.28944 0.59805 0.0
C410 C 0.52683 0.31561 0.54811 0.0
C411 C 0.5034 0.29243 0.67187 0.0
C412 C 0.49127 0.26639 0.7292 0.0
C413 C 0.50957 0.25283 0.75168 0.0
C414 C 0.49797 0.22826 0.80562 0.0
C415 C 0.46818 0.2172 0.83795 0.0
C416 C 0.44997 0.23074 0.81655 0.0
C417 C 0.46145 0.25529 0.76256 0.0
H418 H 0.45925 0.19819 0.87974 0.0
H419 H 0.57275 0.43781 0.3592 0.0
H420 H 0.0895 0.56617 0.86072 0.0
H421 H 0.07248 0.57456 0.73453 0.0
H422 H 0.97534 0.51853 0.80455 0.0
H423 H 0.99212 0.50851 0.92837 0.0
H424 H 0.9805 0.50377 0.66983 0.0
H425 H 1.01076 0.60085 0.78644 0.0
H426 H 0.04288 0.64872 0.86366 0.0
H427 H 0.11734 0.68071 0.69701 0.0
H428 H 0.08594 0.6328 0.61935 0.0
H429 H 0.97068 0.51948 0.28841 0.0
H430 H 0.96613 0.54498 0.40517 0.0
H431 H 0.06162 0.57168 0.46643 0.0
H432 H 0.06645 0.54682 0.34902 0.0
H433 H 1.03674 0.60876 0.54244 0.0
H434 H 1.0102 0.49306 0.4989 0.0
H435 H 0.98013 0.44507 0.41979 0.0
H436 H 0.89632 0.45122 0.45111 0.0
H437 H 0.92608 0.49936 0.53002 0.0
C438 C 0.06456 0.55521 0.84841 0.0
C439 C 0.04216 0.53694 0.90416 0.0
C440 C 0.05484 0.56057 0.7772 0.0
C441 C 1.02266 0.54828 0.76167 0.0
C442 C 1.00028 0.52876 0.81604 0.0
C443 C 1.00994 0.52284 0.88645 0.0
C444 C 1.01251 0.55362 0.68586 0.0
C445 C 0.99175 0.52698 0.64316 0.0
C446 C 1.02685 0.58392 0.65118 0.0
C447 C 0.0459 0.61314 0.69693 0.0
C448 C 1.03404 0.61802 0.76633 0.0
C449 C 0.05213 0.64517 0.81023 0.0
C450 C 0.08213 0.66775 0.78524 0.0
C451 C 0.09407 0.66323 0.71621 0.0
C452 C 0.07608 0.63609 0.6721 0.0
C453 C 0.99098 0.53174 0.32577 0.0
C454 C 1.01852 0.53029 0.31248 0.0
C455 C 0.98856 0.54685 0.39129 0.0
C456 C 1.01326 0.55945 0.4448 0.0
C457 C 0.04228 0.56196 0.42562 0.0
C458 C 0.04485 0.54724 0.35958 0.0
C459 C 1.00625 0.55882 0.52718 0.0
C460 C 1.02384 0.5861 0.57126 0.0
C461 C 0.98846 0.52923 0.56412 0.0
C462 C 0.97024 0.49959 0.52011 0.0
C463 C 0.98531 0.48396 0.48923 0.0
C464 C 0.96837 0.45686 0.44427 0.0
C465 C 0.93632 0.44509 0.43048 0.0
C466 C 0.92113 0.46034 0.46189 0.0
C467 C 0.93799 0.48751 0.50676 0.0
H468 H 0.92327 0.42416 0.39544 0.0
H469 H 0.09611 0.68875 0.81935 0.0
H470 H 0.53029 0.97506 0.19448 0.0
H471 H 0.55557 0.99277 0.06857 0.0
H472 H 0.59254 0.08994 0.1381 0.0
H473 H 0.56544 0.07243 0.26035 0.0
H474 H 0.57535 0.08597 0.00571 0.0
H475 H 0.64074 0.05359 0.12251 0.0
H476 H 0.65608 1.02032 0.19691 0.0
H477 H 0.61598 0.94841 0.02285 0.0
H478 H 0.5999 0.98098 0.94782 0.0
H479 H 0.6018 0.09866 0.62355 0.0
H480 H 0.63102 0.10363 0.74223 0.0
H481 H 0.56489 1.0065 0.79839 0.0
H482 H 0.53602 1.00135 0.67948 0.0
H483 H 0.6251 0.03122 0.87579 0.0
H484 H 0.53778 0.0589 0.82625 0.0
H485 H 0.52096 0.09112 0.7514 0.0
H486 H 0.60823 0.17483 0.80461 0.0
H487 H 0.62557 0.14293 0.87916 0.0
C488 C 0.54329 1.00013 0.18191 0.0
C489 C 0.54624 1.02236 0.23718 0.0
C490 C 0.55839 1.01028 0.11096 0.0
C491 C 0.57727 0.04275 0.0955 0.0
C492 C 0.57879 0.06482 0.14937 0.0
C493 C 0.56301 0.05471 0.21907 0.0
C494 C 0.59299 0.05353 0.0202 0.0
C495 C 0.58746 0.07495 0.9787 0.0
C496 C 0.60928 0.03964 -0.0151 0.0
C497 C 0.61915 1.01989 0.02929 0.0
C498 C 0.63509 0.03067 0.10006 0.0
C499 C 0.6439 1.01189 0.14244 0.0
C500 C 0.63704 0.98228 0.11459 0.0
C501 C 0.62136 0.9714 0.04426 0.0
C502 C 0.61245 0.99006 0.00165 0.0
C503 C 0.59418 0.07816 0.66034 0.0
C504 C 0.56616 0.04996 0.64496 0.0
C505 C 0.61124 0.08084 0.72699 0.0
C506 C 0.59966 0.05565 0.77939 0.0
C507 C 0.57415 1.02622 0.75847 0.0
C508 C 0.55732 1.02342 0.69147 0.0
C509 C 0.60568 0.06196 0.86218 0.0
C510 C 0.61509 0.04377 0.90532 0.0
C511 C 0.59369 0.07939 0.90015 0.0
C512 C 0.58296 0.09864 0.85767 0.0
C513 C 0.55327 0.0842 0.82203 0.0
C514 C 0.5437 0.10236 0.77956 0.0
C515 C 0.56353 0.135 0.77318 0.0
C516 C 0.59292 0.14955 0.80951 0.0
C517 C 0.60264 0.13146 0.85182 0.0
H518 H 0.55611 0.14902 0.74015 0.0
H519 H 0.64386 0.96777 0.14754 0.0
H520 H 0.49866 0.53837 0.53722 0.0
H521 H 0.49566 0.51498 0.4106 0.0
H522 H 0.57204 0.499 0.47354 0.0
H523 H 0.57645 0.52411 0.59758 0.0
H524 H 0.57724 0.51356 0.33367 0.0
H525 H 0.49523 0.44061 0.48624 0.0
H526 H 0.45 0.41801 0.57436 0.0
H527 H 0.39334 0.42944 0.40205 0.0
H528 H 0.43837 0.45257 0.31278 0.0
H529 H 0.55232 0.46021 0.97104 0.0
H530 H 0.53421 0.43588 0.09768 0.0
H531 H 0.49397 0.49566 0.13864 0.0
H532 H 0.51221 0.52023 0.0127 0.0
H533 H 0.47035 0.43615 0.2396 0.0
H534 H 0.57225 0.53982 0.15633 0.0
H535 H 0.61696 0.56225 0.0652 0.0
H536 H 0.63406 0.48566 0.11352 0.0
H537 H 0.58927 0.46275 0.20452 0.0
C538 C 0.5155 0.53091 0.52277 0.0
C539 C 0.53733 0.53236 0.57726 0.0
C540 C 0.51334 0.51694 0.45136 0.0
C541 C 0.53261 0.5039 0.43472 0.0
C542 C 0.55649 0.50827 0.48615 0.0
C543 C 0.5591 0.52282 0.55666 0.0
C544 C 0.52802 0.48607 0.36303 0.0
C545 C 0.55401 0.49573 0.3145 0.0
C546 C 0.49779 0.46227 0.3387 0.0
C547 C 0.47035 0.44825 0.39219 0.0
C548 C 0.4732 0.43835 0.46674 0.0
C549 C 0.44755 0.42547 0.51714 0.0
C550 C 0.41878 0.42223 0.49378 0.0
C551 C 0.41563 0.43188 0.41997 0.0
C552 C 0.44122 0.44482 0.36932 0.0
C553 C 0.53848 0.46721 0.006 0.0
C554 C 0.53454 0.49279 -0.01573 0.0
C555 C 0.52758 0.4528 0.07742 0.0
C556 C 0.51344 0.46453 0.12757 0.0
C557 C 0.50489 0.48636 0.10036 0.0
C558 C 0.51573 0.50075 0.02896 0.0
C559 C 0.51921 0.46502 0.21063 0.0
C560 C 0.49366 0.4524 0.26146 0.0
C561 C 0.54995 0.48534 0.23858 0.0
C562 C 0.5776 0.49968 0.18686 0.0
C563 C 0.58574 0.52795 0.14771 0.0
C564 C 0.61097 0.54065 0.09598 0.0
C565 C 0.62834 0.52539 0.08361 0.0
C566 C 0.62058 0.49744 0.12317 0.0
C567 C 0.5953 0.4846 0.17481 0.0
H568 H 0.64783 0.53522 0.04344 0.0
H569 H 0.39895 0.41227 0.53291 0.0
loop_
_geom_bond_atom_site_label_1
_geom_bond_atom_site_label_2
_geom_bond_distance
_geom_bond_site_symmetry_2
_ccdc_geom_bond_type
C0 Eu1 2.835 . S
C0 C2 1.500 . S
C0 O20 1.257 . S
C0 O21 1.260 . S
Eu1 C0 2.835 . S
Eu1 O20 2.473 . S
Eu1 O21 2.480 . S
Eu1 O22 2.430 . S
Eu1 O23 2.670 1_655 S
Eu1 O24 2.394 . S
Eu1 O29 2.355 . S
Eu1 O31 2.374 1_655 S
C2 C0 1.500 . S
C2 C3 1.377 . S
C2 C7 1.377 . S
C3 C2 1.377 . S
C3 C4 1.395 . S
C3 H32 0.931 . S
C4 C3 1.395 . S
C4 C5 1.383 . S
C4 H33 0.931 . S
C5 C4 1.383 . S
C5 C6 1.394 . S
C6 C5 1.394 . S
C6 C7 1.378 . S
C6 H34 0.931 . S
C7 C2 1.377 . S
C7 C6 1.378 . S
C7 H35 0.931 . S
C8 O22 1.259 1_455 S
C8 O23 1.270 . S
C9 O24 1.251 . S
C9 O25 1.251 . S
C10 Eu11 2.835 . S
C10 C12 1.500 . S
C10 O26 1.257 . S
C10 O27 1.260 . S
Eu11 C10 2.835 . S
Eu11 O23 2.355 . S
Eu11 O25 2.374 1_455 S
Eu11 O26 2.473 . S
Eu11 O27 2.480 . S
Eu11 O28 2.430 . S
Eu11 O29 2.670 1_455 S
Eu11 O30 2.394 . S
C12 C10 1.500 . S
C12 C13 1.377 . S
C12 C17 1.377 . S
C13 C12 1.377 . S
C13 C14 1.395 . S
C13 H36 0.931 . S
C14 C13 1.395 . S
C14 C15 1.383 . S
C14 H37 0.931 . S
C15 C14 1.383 . S
C15 C16 1.394 . S
C16 C15 1.394 . S
C16 C17 1.378 . S
C16 H38 0.931 . S
C17 C12 1.377 . S
C17 C16 1.378 . S
C17 H39 0.931 . S
C18 O28 1.259 . S
C18 O29 1.270 1_455 S
C19 O30 1.251 . S
C19 O31 1.251 . S
O20 C0 1.257 . S
O20 Eu1 2.473 . S
O21 C0 1.260 . S
O21 Eu1 2.480 . S
O22 Eu1 2.430 . S
O22 C8 1.259 1_655 S
O23 Eu1 2.670 1_455 S
O23 C8 1.270 . S
O23 Eu11 2.355 . S
O24 Eu1 2.394 . S
O24 C9 1.251 . S
O25 C9 1.251 . S
O25 Eu11 2.374 1_655 S
O26 C10 1.257 . S
O26 Eu11 2.473 . S
O27 C10 1.260 . S
O27 Eu11 2.480 . S
O28 Eu11 2.430 . S
O28 C18 1.259 . S
O29 Eu1 2.355 . S
O29 Eu11 2.670 1_655 S
O29 C18 1.270 1_655 S
O30 Eu11 2.394 . S
O30 C19 1.251 . S
O31 Eu1 2.374 1_455 S
O31 C19 1.251 . S
H32 C3 0.931 . S
H33 C4 0.931 . S
H34 C6 0.931 . S
H35 C7 0.931 . S
H36 C13 0.931 . S
H37 C14 0.931 . S
H38 C16 0.931 . S
H39 C17 0.931 . S
C40 Eu41 2.835 . S
C40 C42 1.500 . S
C40 O60 1.257 . S
C40 O61 1.260 . S
Eu41 C40 2.835 . S
Eu41 O60 2.473 . S
Eu41 O61 2.480 . S
Eu41 O62 2.430 . S
Eu41 O63 2.670 1_545 S
Eu41 O64 2.394 . S
Eu41 O69 2.355 . S
Eu41 O71 2.374 1_545 S
C42 C40 1.500 . S
C42 C43 1.377 . S
C42 C47 1.377 . S
C43 C42 1.377 . S
C43 C44 1.395 . S
C43 H72 0.931 . S
C44 C43 1.395 . S
C44 C45 1.383 . S
C44 H73 0.931 . S
C45 C44 1.383 . S
C45 C46 1.394 . S
C46 C45 1.394 . S
C46 C47 1.378 . S
C46 H74 0.931 . S
C47 C42 1.377 . S
C47 C46 1.378 . S
C47 H75 0.931 . S
C48 O62 1.282 . S
C48 O63 1.258 1_545 S
C49 O64 1.251 . S
C49 O65 1.251 . S
C50 Eu51 2.835 . S
C50 C52 1.500 . S
C50 O66 1.257 . S
C50 O67 1.260 . S
Eu51 C50 2.835 . S
Eu51 O63 2.355 . S
Eu51 O65 2.374 1_565 S
Eu51 O66 2.473 . S
Eu51 O67 2.480 . S
Eu51 O68 2.430 . S
Eu51 O69 2.670 1_565 S
Eu51 O70 2.394 . S
C52 C50 1.500 . S
C52 C53 1.377 . S
C52 C57 1.377 . S
C53 C52 1.377 . S
C53 C54 1.395 . S
C53 H76 0.931 . S
C54 C53 1.395 . S
C54 C55 1.383 . S
C54 H77 0.931 . S
C55 C54 1.383 . S
C55 C56 1.394 . S
C56 C55 1.394 . S
C56 C57 1.378 . S
C56 H78 0.931 . S
C57 C52 1.377 . S
C57 C56 1.378 . S
C57 H79 0.931 . S
C58 O68 1.257 . S
C58 O69 1.271 1_565 S
C59 O70 1.251 . S
C59 O71 1.251 . S
O60 C40 1.257 . S
O60 Eu41 2.473 . S
O61 C40 1.260 . S
O61 Eu41 2.480 . S
O62 Eu41 2.430 . S
O62 C48 1.282 . S
O63 Eu41 2.670 1_565 S
O63 C48 1.258 1_565 S
O63 Eu51 2.355 . S
O64 Eu41 2.394 . S
O64 C49 1.251 . S
O65 C49 1.251 . S
O65 Eu51 2.374 1_545 S
O66 C50 1.257 . S
O66 Eu51 2.473 . S
O67 C50 1.260 . S
O67 Eu51 2.480 . S
O68 Eu51 2.430 . S
O68 C58 1.257 . S
O69 Eu41 2.355 . S
O69 Eu51 2.670 1_545 S
O69 C58 1.271 1_545 S
O70 Eu51 2.394 . S
O70 C59 1.251 . S
O71 Eu41 2.374 1_565 S
O71 C59 1.251 . S
H72 C43 0.931 . S
H73 C44 0.931 . S
H74 C46 0.931 . S
H75 C47 0.931 . S
H76 C53 0.931 . S
H77 C54 0.931 . S
H78 C56 0.931 . S
H79 C57 0.931 . S
C80 Eu81 2.835 . S
C80 C82 1.500 . S
C80 O100 1.257 . S
C80 O101 1.260 . S
Eu81 C80 2.835 . S
Eu81 O100 2.473 . S
Eu81 O101 2.480 . S
Eu81 O102 2.430 . S
Eu81 O103 2.670 . S
Eu81 O104 2.394 . S
Eu81 O109 2.355 . S
Eu81 O111 2.374 . S
C82 C80 1.500 . S
C82 C83 1.377 . S
C82 C87 1.377 . S
C83 C82 1.377 . S
C83 C84 1.395 . S
C83 H112 0.931 . S
C84 C83 1.395 . S
C84 C85 1.383 . S
C84 H113 0.931 . S
C85 C84 1.383 . S
C85 C86 1.394 . S
C86 C85 1.394 . S
C86 C87 1.378 . S
C86 H114 0.931 . S
C87 C82 1.377 . S
C87 C86 1.378 . S
C87 H115 0.931 . S
C88 O102 1.259 . S
C88 O103 1.270 . S
C89 O104 1.251 . S
C89 O105 1.251 . S
C90 Eu91 2.835 . S
C90 C92 1.500 . S
C90 O106 1.257 . S
C90 O107 1.260 . S
Eu91 C90 2.835 . S
Eu91 O103 2.355 . S
Eu91 O105 2.374 . S
Eu91 O106 2.473 . S
Eu91 O107 2.480 . S
Eu91 O108 2.430 . S
Eu91 O109 2.670 . S
Eu91 O110 2.394 . S
C92 C90 1.500 . S
C92 C93 1.377 . S
C92 C97 1.377 . S
C93 C92 1.377 . S
C93 C94 1.395 . S
C93 H116 0.931 . S
C94 C93 1.395 . S
C94 C95 1.383 . S
C94 H117 0.931 . S
C95 C94 1.383 . S
C95 C96 1.394 . S
C96 C95 1.394 . S
C96 C97 1.378 . S
C96 H118 0.931 . S
C97 C92 1.377 . S
C97 C96 1.378 . S
C97 H119 0.931 . S
C98 O108 1.259 . S
C98 O109 1.270 . S
C99 O110 1.251 . S
C99 O111 1.251 . S
O100 C80 1.257 . S
O100 Eu81 2.473 . S
O101 C80 1.260 . S
O101 Eu81 2.480 . S
O102 Eu81 2.430 . S
O102 C88 1.259 . S
O103 Eu81 2.670 . S
O103 C88 1.270 . S
O103 Eu91 2.355 . S
O104 Eu81 2.394 . S
O104 C89 1.251 . S
O105 C89 1.251 . S
O105 Eu91 2.374 . S
O106 C90 1.257 . S
O106 Eu91 2.473 . S
O107 C90 1.260 . S
O107 Eu91 2.480 . S
O108 Eu91 2.430 . S
O108 C98 1.259 . S
O109 Eu81 2.355 . S
O109 Eu91 2.670 . S
O109 C98 1.270 . S
O110 Eu91 2.394 . S
O110 C99 1.251 . S
O111 Eu81 2.374 . S
O111 C99 1.251 . S
H112 C83 0.931 . S
H113 C84 0.931 . S
H114 C86 0.931 . S
H115 C87 0.931 . S
H116 C93 0.931 . S
H117 C94 0.931 . S
H118 C96 0.931 . S
H119 C97 0.931 . S
H120 C138 0.951 . S
H121 C140 0.951 1_556 S
H122 C142 0.950 . S
H123 C143 0.950 . S
H124 C145 0.950 . S
H125 C148 0.950 . S
H126 C149 0.950 . S
H127 C151 0.950 . S
H128 C152 0.950 . S
H129 C153 0.951 1_554 S
H130 C155 0.951 . S
H131 C157 0.950 . S
H132 C158 0.950 . S
H133 C160 0.950 . S
H134 C163 0.950 . S
H135 C164 0.950 . S
H136 C166 0.950 . S
H137 C167 0.950 . S
C138 H120 0.951 . S
C138 C139 1.366 . S
C138 C140 1.388 . S
C139 C138 1.366 . S
C139 C143 1.385 . S
C140 H121 0.951 1_554 S
C140 C138 1.388 . S
C140 C141 1.366 . S
C141 C140 1.366 . S
C141 C142 1.414 . S
C141 C144 1.499 . S
C142 H122 0.950 . S
C142 C141 1.414 . S
C142 C143 1.374 . S
C143 H123 0.950 . S
C143 C139 1.385 . S
C143 C142 1.374 . S
C144 C141 1.499 . S
C144 C145 1.373 . S
C144 C146 1.389 . S
C145 H124 0.950 . S
C145 C144 1.373 . S
C145 C161 1.377 . S
C146 C144 1.389 . S
C146 C147 1.524 . S
C146 C160 1.377 1_554 S
C147 C146 1.524 . S
C147 C148 1.397 . S
C147 C152 1.363 1_554 S
C148 H125 0.950 . S
C148 C147 1.397 . S
C148 C149 1.334 . S
C149 H126 0.950 . S
C149 C148 1.334 . S
C149 C150 1.287 . S
C150 C149 1.287 . S
C150 C151 1.524 1_554 S
C150 H169 0.913 . S
C151 H127 0.950 . S
C151 C150 1.524 1_556 S
C151 C152 1.415 . S
C152 H128 0.950 . S
C152 C147 1.363 1_556 S
C152 C151 1.415 . S
C153 H129 0.951 1_556 S
C153 C154 1.366 . S
C153 C155 1.388 1_556 S
C154 C153 1.366 . S
C154 C158 1.385 . S
C155 H130 0.951 . S
C155 C153 1.388 1_554 S
C155 C156 1.366 1_554 S
C156 C155 1.366 1_556 S
C156 C157 1.414 . S
C156 C159 1.499 . S
C157 H131 0.950 . S
C157 C156 1.414 . S
C157 C158 1.374 . S
C158 H132 0.950 . S
C158 C154 1.385 . S
C158 C157 1.374 . S
C159 C156 1.499 . S
C159 C160 1.373 . S
C159 C161 1.389 1_556 S
C160 H133 0.950 . S
C160 C146 1.377 1_556 S
C160 C159 1.373 . S
C161 C145 1.377 . S
C161 C159 1.389 1_554 S
C161 C162 1.524 . S
C162 C161 1.524 . S
C162 C163 1.397 1_554 S
C162 C167 1.363 . S
C163 H134 0.950 . S
C163 C162 1.397 1_556 S
C163 C164 1.334 . S
C164 H135 0.950 . S
C164 C163 1.334 . S
C164 C165 1.287 1_556 S
C165 C164 1.287 1_554 S
C165 C166 1.524 . S
C165 H168 0.999 . S
C166 H136 0.950 . S
C166 C165 1.524 . S
C166 C167 1.415 . S
C167 H137 0.950 . S
C167 C162 1.363 . S
C167 C166 1.415 . S
H168 C165 0.999 . S
H169 C150 0.913 . S
H170 C188 0.951 . S
H171 C190 0.951 . S
H172 C192 0.950 . S
H173 C193 0.950 . S
H174 C195 0.950 . S
H175 C198 0.950 . S
H176 C199 0.950 . S
H177 C201 0.950 . S
H178 C202 0.950 . S
H179 C203 0.951 . S
H180 C205 0.951 . S
H181 C207 0.950 . S
H182 C208 0.950 . S
H183 C210 0.950 . S
H184 C213 0.950 . S
H185 C214 0.950 . S
H186 C216 0.950 . S
H187 C217 0.950 . S
C188 H170 0.951 . S
C188 C189 1.366 . S
C188 C190 1.388 . S
C189 C188 1.366 . S
C189 C193 1.385 . S
C190 H171 0.951 . S
C190 C188 1.388 . S
C190 C191 1.366 . S
C191 C190 1.366 . S
C191 C192 1.414 . S
C191 C194 1.499 . S
C192 H172 0.950 . S
C192 C191 1.414 . S
C192 C193 1.374 . S
C193 H173 0.950 . S
C193 C189 1.385 . S
C193 C192 1.374 . S
C194 C191 1.499 . S
C194 C195 1.373 . S
C194 C196 1.389 . S
C195 H174 0.950 . S
C195 C194 1.373 . S
C195 C211 1.377 . S
C196 C194 1.389 . S
C196 C197 1.524 . S
C196 C210 1.377 . S
C197 C196 1.524 . S
C197 C198 1.397 . S
C197 C202 1.363 . S
C198 H175 0.950 . S
C198 C197 1.397 . S
C198 C199 1.334 . S
C199 H176 0.950 . S
C199 C198 1.334 . S
C199 C200 1.287 . S
C200 C199 1.287 . S
C200 C201 1.524 . S
C200 H219 0.913 . S
C201 H177 0.950 . S
C201 C200 1.524 . S
C201 C202 1.415 . S
C202 H178 0.950 . S
C202 C197 1.363 . S
C202 C201 1.415 . S
C203 H179 0.951 . S
C203 C204 1.366 . S
C203 C205 1.388 . S
C204 C203 1.366 . S
C204 C208 1.385 . S
C205 H180 0.951 . S
C205 C203 1.388 . S
C205 C206 1.366 . S
C206 C205 1.366 . S
C206 C207 1.414 . S
C206 C209 1.499 . S
C207 H181 0.950 . S
C207 C206 1.414 . S
C207 C208 1.374 . S
C208 H182 0.950 . S
C208 C204 1.385 . S
C208 C207 1.374 . S
C209 C206 1.499 . S
C209 C210 1.373 . S
C209 C211 1.389 . S
C210 H183 0.950 . S
C210 C196 1.377 . S
C210 C209 1.373 . S
C211 C195 1.377 . S
C211 C209 1.389 . S
C211 C212 1.524 . S
C212 C211 1.524 . S
C212 C213 1.397 . S
C212 C217 1.363 . S
C213 H184 0.950 . S
C213 C212 1.397 . S
C213 C214 1.334 . S
C214 H185 0.950 . S
C214 C213 1.334 . S
C214 C215 1.287 . S
C215 C214 1.287 . S
C215 C216 1.524 . S
C215 H218 0.999 . S
C216 H186 0.950 . S
C216 C215 1.524 . S
C216 C217 1.415 . S
C217 H187 0.950 . S
C217 C212 1.363 . S
C217 C216 1.415 . S
H218 C215 0.999 . S
H219 C200 0.913 . S
H220 C238 0.951 . S
H221 C240 0.951 . S
H222 C242 0.950 . S
H223 C243 0.950 . S
H224 C245 0.950 . S
H225 C248 0.950 . S
H226 C249 0.950 . S
H227 C251 0.950 . S
H228 C252 0.950 . S
H229 C253 0.951 . S
H230 C255 0.951 . S
H231 C257 0.950 . S
H232 C258 0.950 . S
H233 C260 0.950 . S
H234 C263 0.950 . S
H235 C264 0.950 1_554 S
H236 C266 0.950 1_554 S
H237 C267 0.950 . S
C238 H220 0.951 . S
C238 C239 1.366 . S
C238 C240 1.388 . S
C239 C238 1.366 . S
C239 C243 1.385 . S
C240 H221 0.951 . S
C240 C238 1.388 . S
C240 C241 1.366 . S
C241 C240 1.366 . S
C241 C242 1.414 . S
C241 C244 1.499 . S
C242 H222 0.950 . S
C242 C241 1.414 . S
C242 C243 1.374 . S
C243 H223 0.950 . S
C243 C239 1.385 . S
C243 C242 1.374 . S
C244 C241 1.499 . S
C244 C245 1.373 . S
C244 C246 1.389 . S
C245 H224 0.950 . S
C245 C244 1.373 . S
C245 C261 1.377 . S
C246 C244 1.389 . S
C246 C247 1.524 . S
C246 C260 1.377 . S
C247 C246 1.524 . S
C247 C248 1.397 . S
C247 C252 1.363 . S
C248 H225 0.950 . S
C248 C247 1.397 . S
C248 C249 1.334 . S
C249 H226 0.950 . S
C249 C248 1.334 . S
C249 C250 1.287 . S
C250 C249 1.287 . S
C250 C251 1.524 . S
C250 H269 0.913 . S
C251 H227 0.950 . S
C251 C250 1.524 . S
C251 C252 1.415 . S
C252 H228 0.950 . S
C252 C247 1.363 . S
C252 C251 1.415 . S
C253 H229 0.951 . S
C253 C254 1.366 . S
C253 C255 1.388 . S
C254 C253 1.366 . S
C254 C258 1.385 . S
C255 H230 0.951 . S
C255 C253 1.388 . S
C255 C256 1.366 . S
C256 C255 1.366 . S
C256 C257 1.414 . S
C256 C259 1.499 . S
C257 H231 0.950 . S
C257 C256 1.414 . S
C257 C258 1.374 . S
C258 H232 0.950 . S
C258 C254 1.385 . S
C258 C257 1.374 . S
C259 C256 1.499 . S
C259 C260 1.373 . S
C259 C261 1.389 . S
C260 H233 0.950 . S
C260 C246 1.377 . S
C260 C259 1.373 . S
C261 C245 1.377 . S
C261 C259 1.389 . S
C261 C262 1.524 . S
C262 C261 1.524 . S
C262 C263 1.397 . S
C262 C267 1.363 . S
C263 H234 0.950 . S
C263 C262 1.397 . S
C263 C264 1.334 . S
C264 H235 0.950 1_556 S
C264 C263 1.334 . S
C264 C265 1.287 1_556 S
C265 C264 1.287 1_554 S
C265 C266 1.524 1_554 S
C265 H268 0.999 . S
C266 H236 0.950 1_556 S
C266 C265 1.524 1_556 S
C266 C267 1.415 . S
C267 H237 0.950 . S
C267 C262 1.363 . S
C267 C266 1.415 . S
H268 C265 0.999 . S
H269 C250 0.913 . S
H270 C288 0.951 . S
H271 C290 0.951 . S
H272 C292 0.950 . S
H273 C293 0.950 . S
H274 C295 0.950 . S
H275 C298 0.950 . S
H276 C299 0.950 . S
H277 C301 0.950 . S
H278 C302 0.950 . S
H279 C303 0.951 . S
H280 C305 0.951 . S
H281 C307 0.950 1_556 S
H282 C308 0.950 . S
H283 C310 0.950 . S
H284 C313 0.950 . S
H285 C314 0.950 . S
H286 C316 0.950 . S
H287 C317 0.950 . S
C288 H270 0.951 . S
C288 C289 1.366 . S
C288 C290 1.388 . S
C289 C288 1.366 . S
C289 C293 1.385 . S
C290 H271 0.951 . S
C290 C288 1.388 . S
C290 C291 1.366 . S
C291 C290 1.366 . S
C291 C292 1.414 . S
C291 C294 1.499 . S
C292 H272 0.950 . S
C292 C291 1.414 . S
C292 C293 1.374 . S
C293 H273 0.950 . S
C293 C289 1.385 . S
C293 C292 1.374 . S
C294 C291 1.499 . S
C294 C295 1.373 1_556 S
C294 C296 1.389 . S
C295 H274 0.950 . S
C295 C294 1.373 1_554 S
C295 C311 1.377 . S
C296 C294 1.389 . S
C296 C297 1.524 . S
C296 C310 1.377 . S
C297 C296 1.524 . S
C297 C298 1.397 . S
C297 C302 1.363 . S
C298 H275 0.950 . S
C298 C297 1.397 . S
C298 C299 1.334 . S
C299 H276 0.950 . S
C299 C298 1.334 . S
C299 C300 1.287 . S
C300 C299 1.287 . S
C300 C301 1.524 . S
C300 H319 0.913 . S
C301 H277 0.950 . S
C301 C300 1.524 . S
C301 C302 1.415 . S
C302 H278 0.950 . S
C302 C297 1.363 . S
C302 C301 1.415 . S
C303 H279 0.951 . S
C303 C304 1.366 . S
C303 C305 1.388 . S
C304 C303 1.366 . S
C304 C308 1.385 . S
C305 H280 0.951 . S
C305 C303 1.388 . S
C305 C306 1.366 . S
C306 C305 1.366 . S
C306 C307 1.414 . S
C306 C309 1.499 . S
C307 H281 0.950 1_554 S
C307 C306 1.414 . S
C307 C308 1.374 . S
C308 H282 0.950 . S
C308 C304 1.385 . S
C308 C307 1.374 . S
C309 C306 1.499 . S
C309 C310 1.373 1_554 S
C309 C311 1.389 . S
C310 H283 0.950 . S
C310 C296 1.377 . S
C310 C309 1.373 1_556 S
C311 C295 1.377 . S
C311 C309 1.389 . S
C311 C312 1.524 . S
C312 C311 1.524 . S
C312 C313 1.397 . S
C312 C317 1.363 . S
C313 H284 0.950 . S
C313 C312 1.397 . S
C313 C314 1.334 . S
C314 H285 0.950 . S
C314 C313 1.334 . S
C314 C315 1.287 . S
C315 C314 1.287 . S
C315 C316 1.524 . S
C315 H318 0.999 . S
C316 H286 0.950 . S
C316 C315 1.524 . S
C316 C317 1.415 . S
C317 H287 0.950 . S
C317 C312 1.363 . S
C317 C316 1.415 . S
H318 C315 0.999 . S
H319 C300 0.913 . S
H320 C338 0.951 . S
H321 C340 0.951 . S
H322 C342 0.950 . S
H323 C343 0.950 . S
H324 C345 0.950 . S
H325 C348 0.950 . S
H326 C349 0.950 . S
H327 C351 0.950 . S
H328 C352 0.950 . S
H329 C353 0.951 . S
H330 C355 0.951 . S
H331 C357 0.950 . S
H332 C358 0.950 . S
H333 C360 0.950 . S
H334 C363 0.950 . S
H335 C364 0.950 . S
H336 C366 0.950 . S
H337 C367 0.950 . S
C338 H320 0.951 . S
C338 C339 1.366 . S
C338 C340 1.388 . S
C339 C338 1.366 . S
C339 C343 1.385 . S
C340 H321 0.951 . S
C340 C338 1.388 . S
C340 C341 1.366 . S
C341 C340 1.366 . S
C341 C342 1.414 . S
C341 C344 1.499 . S
C342 H322 0.950 . S
C342 C341 1.414 . S
C342 C343 1.374 . S
C343 H323 0.950 . S
C343 C339 1.385 . S
C343 C342 1.374 . S
C344 C341 1.499 . S
C344 C345 1.373 . S
C344 C346 1.389 . S
C345 H324 0.950 . S
C345 C344 1.373 . S
C345 C361 1.377 . S
C346 C344 1.389 . S
C346 C347 1.524 . S
C346 C360 1.377 . S
C347 C346 1.524 . S
C347 C348 1.397 . S
C347 C352 1.363 . S
C348 H325 0.950 . S
C348 C347 1.397 . S
C348 C349 1.334 . S
C349 H326 0.950 . S
C349 C348 1.334 . S
C349 C350 1.287 . S
C350 C349 1.287 . S
C350 C351 1.524 . S
C350 H369 0.913 . S
C351 H327 0.950 . S
C351 C350 1.524 . S
C351 C352 1.415 . S
C352 H328 0.950 . S
C352 C347 1.363 . S
C352 C351 1.415 . S
C353 H329 0.951 . S
C353 C354 1.366 . S
C353 C355 1.388 . S
C354 C353 1.366 . S
C354 C358 1.385 . S
C355 H330 0.951 . S
C355 C353 1.388 . S
C355 C356 1.366 . S
C356 C355 1.366 . S
C356 C357 1.414 . S
C356 C359 1.499 . S
C357 H331 0.950 . S
C357 C356 1.414 . S
C357 C358 1.374 . S
C358 H332 0.950 . S
C358 C354 1.385 . S
C358 C357 1.374 . S
C359 C356 1.499 . S
C359 C360 1.373 . S
C359 C361 1.389 . S
C360 H333 0.950 . S
C360 C346 1.377 . S
C360 C359 1.373 . S
C361 C345 1.377 . S
C361 C359 1.389 . S
C361 C362 1.524 . S
C362 C361 1.524 . S
C362 C363 1.397 . S
C362 C367 1.363 . S
C363 H334 0.950 . S
C363 C362 1.397 . S
C363 C364 1.334 . S
C364 H335 0.950 . S
C364 C363 1.334 . S
C364 C365 1.287 . S
C365 C364 1.287 . S
C365 C366 1.524 . S
C365 H368 0.999 . S
C366 H336 0.950 . S
C366 C365 1.524 . S
C366 C367 1.415 . S
C367 H337 0.950 . S
C367 C362 1.363 . S
C367 C366 1.415 . S
H368 C365 0.999 . S
H369 C350 0.913 . S
H370 C388 0.951 . S
H371 C390 0.951 . S
H372 C392 0.950 . S
H373 C393 0.950 . S
H374 C395 0.950 . S
H375 C398 0.950 . S
H376 C399 0.950 . S
H377 C401 0.950 . S
H378 C402 0.950 . S
H379 C403 0.951 . S
H380 C405 0.951 . S
H381 C407 0.950 . S
H382 C408 0.950 . S
H383 C410 0.950 . S
H384 C413 0.950 . S
H385 C414 0.950 . S
H386 C416 0.950 . S
H387 C417 0.950 . S
C388 H370 0.951 . S
C388 C389 1.366 . S
C388 C390 1.388 . S
C389 C388 1.366 . S
C389 C393 1.385 . S
C390 H371 0.951 . S
C390 C388 1.388 . S
C390 C391 1.366 . S
C391 C390 1.366 . S
C391 C392 1.414 . S
C391 C394 1.499 . S
C392 H372 0.950 . S
C392 C391 1.414 . S
C392 C393 1.374 . S
C393 H373 0.950 . S
C393 C389 1.385 . S
C393 C392 1.374 . S
C394 C391 1.499 . S
C394 C395 1.373 . S
C394 C396 1.389 . S
C395 H374 0.950 . S
C395 C394 1.373 . S
C395 C411 1.377 . S
C396 C394 1.389 . S
C396 C397 1.524 . S
C396 C410 1.377 . S
C397 C396 1.524 . S
C397 C398 1.397 . S
C397 C402 1.363 . S
C398 H375 0.950 . S
C398 C397 1.397 . S
C398 C399 1.334 . S
C399 H376 0.950 . S
C399 C398 1.334 . S
C399 C400 1.287 . S
C400 C399 1.287 . S
C400 C401 1.524 . S
C400 H419 0.913 . S
C401 H377 0.950 . S
C401 C400 1.524 . S
C401 C402 1.415 . S
C402 H378 0.950 . S
C402 C397 1.363 . S
C402 C401 1.415 . S
C403 H379 0.951 . S
C403 C404 1.366 . S
C403 C405 1.388 . S
C404 C403 1.366 . S
C404 C408 1.385 . S
C405 H380 0.951 . S
C405 C403 1.388 . S
C405 C406 1.366 . S
C406 C405 1.366 . S
C406 C407 1.414 . S
C406 C409 1.499 . S
C407 H381 0.950 . S
C407 C406 1.414 . S
C407 C408 1.374 . S
C408 H382 0.950 . S
C408 C404 1.385 . S
C408 C407 1.374 . S
C409 C406 1.499 . S
C409 C410 1.373 . S
C409 C411 1.389 . S
C410 H383 0.950 . S
C410 C396 1.377 . S
C410 C409 1.373 . S
C411 C395 1.377 . S
C411 C409 1.389 . S
C411 C412 1.524 . S
C412 C411 1.524 . S
C412 C413 1.397 . S
C412 C417 1.363 . S
C413 H384 0.950 . S
C413 C412 1.397 . S
C413 C414 1.334 . S
C414 H385 0.950 . S
C414 C413 1.334 . S
C414 C415 1.287 . S
C415 C414 1.287 . S
C415 C416 1.524 . S
C415 H418 0.999 . S
C416 H386 0.950 . S
C416 C415 1.524 . S
C416 C417 1.415 . S
C417 H387 0.950 . S
C417 C412 1.363 . S
C417 C416 1.415 . S
H418 C415 0.999 . S
H419 C400 0.913 . S
H420 C438 0.951 . S
H421 C440 0.951 . S
H422 C442 0.950 . S
H423 C443 0.950 . S
H424 C445 0.950 . S
H425 C448 0.950 . S
H426 C449 0.950 . S
H427 C451 0.950 . S
H428 C452 0.950 . S
H429 C453 0.951 . S
H430 C455 0.951 . S
H431 C457 0.950 . S
H432 C458 0.950 . S
H433 C460 0.950 . S
H434 C463 0.950 . S
H435 C464 0.950 . S
H436 C466 0.950 . S
H437 C467 0.950 . S
C438 H420 0.951 . S
C438 C439 1.366 1_456 S
C438 C440 1.388 . S
C439 C438 1.366 1_654 S
C439 C443 1.385 1_554 S
C440 H421 0.951 . S
C440 C438 1.388 . S
C440 C441 1.366 . S
C441 C440 1.366 . S
C441 C442 1.414 1_455 S
C441 C444 1.499 . S
C442 H422 0.950 . S
C442 C441 1.414 1_655 S
C442 C443 1.374 . S
C443 H423 0.950 . S
C443 C439 1.385 1_556 S
C443 C442 1.374 . S
C444 C441 1.499 . S
C444 C445 1.373 1_455 S
C444 C446 1.389 . S
C445 H424 0.950 . S
C445 C444 1.373 1_655 S
C445 C461 1.377 . S
C446 C444 1.389 . S
C446 C447 1.524 . S
C446 C460 1.377 . S
C447 C446 1.524 . S
C447 C448 1.397 . S
C447 C452 1.363 . S
C448 H425 0.950 . S
C448 C447 1.397 . S
C448 C449 1.334 . S
C449 H426 0.950 . S
C449 C448 1.334 . S
C449 C450 1.287 . S
C450 C449 1.287 . S
C450 C451 1.524 . S
C450 H469 0.913 . S
C451 H427 0.950 . S
C451 C450 1.524 . S
C451 C452 1.415 . S
C452 H428 0.950 . S
C452 C447 1.363 . S
C452 C451 1.415 . S
C453 H429 0.951 . S
C453 C454 1.366 1_655 S
C453 C455 1.388 . S
C454 C453 1.366 1_455 S
C454 C458 1.385 . S
C455 H430 0.951 . S
C455 C453 1.388 . S
C455 C456 1.366 1_655 S
C456 C455 1.366 1_455 S
C456 C457 1.414 . S
C456 C459 1.499 . S
C457 H431 0.950 . S
C457 C456 1.414 . S
C457 C458 1.374 . S
C458 H432 0.950 . S
C458 C454 1.385 . S
C458 C457 1.374 . S
C459 C456 1.499 . S
C459 C460 1.373 . S
C459 C461 1.389 1_455 S
C460 H433 0.950 . S
C460 C446 1.377 . S
C460 C459 1.373 . S
C461 C445 1.377 . S
C461 C459 1.389 1_655 S
C461 C462 1.524 . S
C462 C461 1.524 . S
C462 C463 1.397 . S
C462 C467 1.363 . S
C463 H434 0.950 . S
C463 C462 1.397 . S
C463 C464 1.334 . S
C464 H435 0.950 . S
C464 C463 1.334 . S
C464 C465 1.287 . S
C465 C464 1.287 . S
C465 C466 1.524 . S
C465 H468 0.999 . S
C466 H436 0.950 . S
C466 C465 1.524 . S
C466 C467 1.415 . S
C467 H437 0.950 . S
C467 C462 1.363 . S
C467 C466 1.415 . S
H468 C465 0.999 . S
H469 C450 0.913 . S
H470 C488 0.951 . S
H471 C490 0.951 . S
H472 C492 0.950 . S
H473 C493 0.950 . S
H474 C495 0.950 . S
H475 C498 0.950 1_545 S
H476 C499 0.950 . S
H477 C501 0.950 . S
H478 C502 0.950 . S
H479 C503 0.951 . S
H480 C505 0.951 . S
H481 C507 0.950 . S
H482 C508 0.950 . S
H483 C510 0.950 . S
H484 C513 0.950 1_565 S
H485 C514 0.950 . S
H486 C516 0.950 . S
H487 C517 0.950 . S
C488 H470 0.951 . S
C488 C489 1.366 1_565 S
C488 C490 1.388 . S
C489 C488 1.366 1_545 S
C489 C493 1.385 . S
C490 H471 0.951 . S
C490 C488 1.388 . S
C490 C491 1.366 1_565 S
C491 C490 1.366 1_545 S
C491 C492 1.414 . S
C491 C494 1.499 . S
C492 H472 0.950 . S
C492 C491 1.414 . S
C492 C493 1.374 . S
C493 H473 0.950 . S
C493 C489 1.385 . S
C493 C492 1.374 . S
C494 C491 1.499 . S
C494 C495 1.373 . S
C494 C496 1.389 1_545 S
C495 H474 0.950 . S
C495 C494 1.373 . S
C495 C511 1.377 1_554 S
C496 C494 1.389 1_565 S
C496 C497 1.524 . S
C496 C510 1.377 1_554 S
C497 C496 1.524 . S
C497 C498 1.397 . S
C497 C502 1.363 . S
C498 H475 0.950 1_565 S
C498 C497 1.397 . S
C498 C499 1.334 . S
C499 H476 0.950 . S
C499 C498 1.334 . S
C499 C500 1.287 . S
C500 C499 1.287 . S
C500 C501 1.524 . S
C500 H519 0.913 . S
C501 H477 0.950 . S
C501 C500 1.524 . S
C501 C502 1.415 . S
C502 H478 0.950 . S
C502 C497 1.363 . S
C502 C501 1.415 . S
C503 H479 0.951 . S
C503 C504 1.366 1_545 S
C503 C505 1.388 . S
C504 C503 1.366 1_565 S
C504 C508 1.385 . S
C505 H480 0.951 . S
C505 C503 1.388 . S
C505 C506 1.366 1_545 S
C506 C505 1.366 1_565 S
C506 C507 1.414 . S
C506 C509 1.499 . S
C507 H481 0.950 . S
C507 C506 1.414 . S
C507 C508 1.374 . S
C508 H482 0.950 . S
C508 C504 1.385 . S
C508 C507 1.374 . S
C509 C506 1.499 . S
C509 C510 1.373 . S
C509 C511 1.389 1_565 S
C510 H483 0.950 . S
C510 C496 1.377 1_556 S
C510 C509 1.373 . S
C511 C495 1.377 1_556 S
C511 C509 1.389 1_545 S
C511 C512 1.524 . S
C512 C511 1.524 . S
C512 C513 1.397 . S
C512 C517 1.363 . S
C513 H484 0.950 1_545 S
C513 C512 1.397 . S
C513 C514 1.334 . S
C514 H485 0.950 . S
C514 C513 1.334 . S
C514 C515 1.287 . S
C515 C514 1.287 . S
C515 C516 1.524 . S
C515 H518 0.999 . S
C516 H486 0.950 . S
C516 C515 1.524 . S
C516 C517 1.415 . S
C517 H487 0.950 . S
C517 C512 1.363 . S
C517 C516 1.415 . S
H518 C515 0.999 . S
H519 C500 0.913 . S
H520 C538 0.951 . S
H521 C540 0.951 . S
H522 C542 0.950 . S
H523 C543 0.950 . S
H524 C545 0.950 . S
H525 C548 0.950 . S
H526 C549 0.950 . S
H527 C551 0.950 . S
H528 C552 0.950 . S
H529 C553 0.951 . S
H530 C555 0.951 . S
H531 C557 0.950 . S
H532 C558 0.950 . S
H533 C560 0.950 . S
H534 C563 0.950 . S
H535 C564 0.950 . S
H536 C566 0.950 . S
H537 C567 0.950 . S
C538 H520 0.951 . S
C538 C539 1.366 . S
C538 C540 1.388 . S
C539 C538 1.366 . S
C539 C543 1.385 . S
C540 H521 0.951 . S
C540 C538 1.388 . S
C540 C541 1.366 . S
C541 C540 1.366 . S
C541 C542 1.414 . S
C541 C544 1.499 . S
C542 H522 0.950 . S
C542 C541 1.414 . S
C542 C543 1.374 . S
C543 H523 0.950 . S
C543 C539 1.385 . S
C543 C542 1.374 . S
C544 C541 1.499 . S
C544 C545 1.373 . S
C544 C546 1.389 . S
C545 H524 0.950 . S
C545 C544 1.373 . S
C545 C561 1.377 . S
C546 C544 1.389 . S
C546 C547 1.524 . S
C546 C560 1.377 . S
C547 C546 1.524 . S
C547 C548 1.397 . S
C547 C552 1.363 . S
C548 H525 0.950 . S
C548 C547 1.397 . S
C548 C549 1.334 . S
C549 H526 0.950 . S
C549 C548 1.334 . S
C549 C550 1.287 . S
C550 C549 1.287 . S
C550 C551 1.524 . S
C550 H569 0.913 . S
C551 H527 0.950 . S
C551 C550 1.524 . S
C551 C552 1.415 . S
C552 H528 0.950 . S
C552 C547 1.363 . S
C552 C551 1.415 . S
C553 H529 0.951 . S
C553 C554 1.366 1_554 S
C553 C555 1.388 . S
C554 C553 1.366 1_556 S
C554 C558 1.385 1_556 S
C555 H530 0.951 . S
C555 C553 1.388 . S
C555 C556 1.366 . S
C556 C555 1.366 . S
C556 C557 1.414 . S
C556 C559 1.499 . S
C557 H531 0.950 . S
C557 C556 1.414 . S
C557 C558 1.374 . S
C558 H532 0.950 . S
C558 C554 1.385 1_554 S
C558 C557 1.374 . S
C559 C556 1.499 . S
C559 C560 1.373 . S
C559 C561 1.389 . S
C560 H533 0.950 . S
C560 C546 1.377 . S
C560 C559 1.373 . S
C561 C545 1.377 . S
C561 C559 1.389 . S
C561 C562 1.524 . S
C562 C561 1.524 . S
C562 C563 1.397 . S
C562 C567 1.363 . S
C563 H534 0.950 . S
C563 C562 1.397 . S
C563 C564 1.334 . S
C564 H535 0.950 . S
C564 C563 1.334 . S
C564 C565 1.287 . S
C565 C564 1.287 . S
C565 C566 1.524 . S
C565 H568 0.999 . S
C566 H536 0.950 . S
C566 C565 1.524 . S
C566 C567 1.415 . S
C567 H537 0.950 . S
C567 C562 1.363 . S
C567 C566 1.415 . S
H568 C565 0.999 . S
H569 C550 0.913 . S
C139 C19 1.880 . S
C154 C95 1.941 . S
C189 C49 2.259 . S
C204 C5 2.192 . S
C239 C55 1.941 . S
C254 C99 1.880 . S
C289 C85 2.191 . S
C304 C9 2.259 . S
C339 C59 1.881 . S
C354 C15 1.941 . S
C389 C89 2.259 . S
C404 C45 2.192 . S
C439 C18 0.435 1_655 S
C454 C8 0.435 . S
C489 C58 0.437 1_545 S
C504 C48 0.417 1_565 S
C539 C98 0.436 . S
C554 C88 0.436 . S
