# Generated by pormake.
# Topology wgf, (5)-cn, num edge types: 1
# Building blocks:
#     Node 0, Type 0, BuildingBlock: BEQFEK_clean_sbu_0, # of connection points: 5
#     Node 1, Type 0, BuildingBlock: BEQFEK_clean_sbu_0, # of connection points: 5
#     Node 2, Type 0, BuildingBlock: BEQFEK_clean_sbu_0, # of connection points: 5
#     Node 3, Type 0, BuildingBlock: BEQFEK_clean_sbu_0, # of connection points: 5
#     Node 4, Type 0, BuildingBlock: BEQFEK_clean_sbu_0, # of connection points: 5
#     Node 5, Type 0, BuildingBlock: BEQFEK_clean_sbu_0, # of connection points: 5
#     Node 6, Type 0, BuildingBlock: BEQFEK_clean_sbu_0, # of connection points: 5
#     Node 7, Type 0, BuildingBlock: BEQFEK_clean_sbu_0, # of connection points: 5
#     Node 8, Type 0, BuildingBlock: BEQFEK_clean_sbu_0, # of connection points: 5
#     Node 9, Type 0, BuildingBlock: BEQFEK_clean_sbu_0, # of connection points: 5
#     Node 10, Type 0, BuildingBlock: BEQFEK_clean_sbu_0, # of connection points: 5
#     Node 11, Type 0, BuildingBlock: BEQFEK_clean_sbu_0, # of connection points: 5
#     Node 12, Type 0, BuildingBlock: BEQFEK_clean_sbu_0, # of connection points: 5
#     Node 13, Type 0, BuildingBlock: BEQFEK_clean_sbu_0, # of connection points: 5
#     Node 14, Type 0, BuildingBlock: BEQFEK_clean_sbu_0, # of connection points: 5
#     Node 15, Type 0, BuildingBlock: BEQFEK_clean_sbu_0, # of connection points: 5
#     Node 16, Type 0, BuildingBlock: BEQFEK_clean_sbu_0, # of connection points: 5
#     Node 17, Type 0, BuildingBlock: BEQFEK_clean_sbu_0, # of connection points: 5
#     Node 18, Type 0, BuildingBlock: BEQFEK_clean_sbu_0, # of connection points: 5
#     Node 19, Type 0, BuildingBlock: BEQFEK_clean_sbu_0, # of connection points: 5
#     Node 20, Type 0, BuildingBlock: BEQFEK_clean_sbu_0, # of connection points: 5
#     Node 21, Type 0, BuildingBlock: BEQFEK_clean_sbu_0, # of connection points: 5
#     Node 22, Type 0, BuildingBlock: BEQFEK_clean_sbu_0, # of connection points: 5
#     Node 23, Type 0, BuildingBlock: BEQFEK_clean_sbu_0, # of connection points: 5
#     Node 24, Type 0, BuildingBlock: BEQFEK_clean_sbu_0, # of connection points: 5
#     Node 25, Type 0, BuildingBlock: BEQFEK_clean_sbu_0, # of connection points: 5
#     Node 26, Type 0, BuildingBlock: BEQFEK_clean_sbu_0, # of connection points: 5
#     Node 27, Type 0, BuildingBlock: BEQFEK_clean_sbu_0, # of connection points: 5
#     Node 28, Type 0, BuildingBlock: BEQFEK_clean_sbu_0, # of connection points: 5
#     Node 29, Type 0, BuildingBlock: BEQFEK_clean_sbu_0, # of connection points: 5
#     Node 30, Type 0, BuildingBlock: BEQFEK_clean_sbu_0, # of connection points: 5
#     Node 31, Type 0, BuildingBlock: BEQFEK_clean_sbu_0, # of connection points: 5
#     Edge 32, Type (0, 0), BuildingBlock: UVAHIK_clean_linker_0, # of connection points: 2
#     Edge 33, Type (0, 0), BuildingBlock: UVAHIK_clean_linker_0, # of connection points: 2
#     Edge 34, Type (0, 0), BuildingBlock: UVAHIK_clean_linker_0, # of connection points: 2
#     Edge 35, Type (0, 0), BuildingBlock: UVAHIK_clean_linker_0, # of connection points: 2
#     Edge 36, Type (0, 0), BuildingBlock: UVAHIK_clean_linker_0, # of connection points: 2
#     Edge 37, Type (0, 0), BuildingBlock: UVAHIK_clean_linker_0, # of connection points: 2
#     Edge 38, Type (0, 0), BuildingBlock: UVAHIK_clean_linker_0, # of connection points: 2
#     Edge 39, Type (0, 0), BuildingBlock: UVAHIK_clean_linker_0, # of connection points: 2
#     Edge 40, Type (0, 0), BuildingBlock: UVAHIK_clean_linker_0, # of connection points: 2
#     Edge 41, Type (0, 0), BuildingBlock: UVAHIK_clean_linker_0, # of connection points: 2
#     Edge 42, Type (0, 0), BuildingBlock: UVAHIK_clean_linker_0, # of connection points: 2
#     Edge 43, Type (0, 0), BuildingBlock: UVAHIK_clean_linker_0, # of connection points: 2
#     Edge 44, Type (0, 0), BuildingBlock: UVAHIK_clean_linker_0, # of connection points: 2
#     Edge 45, Type (0, 0), BuildingBlock: UVAHIK_clean_linker_0, # of connection points: 2
#     Edge 46, Type (0, 0), BuildingBlock: UVAHIK_clean_linker_0, # of connection points: 2
#     Edge 47, Type (0, 0), BuildingBlock: UVAHIK_clean_linker_0, # of connection points: 2
#     Edge 48, Type (0, 0), BuildingBlock: UVAHIK_clean_linker_0, # of connection points: 2
#     Edge 49, Type (0, 0), BuildingBlock: UVAHIK_clean_linker_0, # of connection points: 2
#     Edge 50, Type (0, 0), BuildingBlock: UVAHIK_clean_linker_0, # of connection points: 2
#     Edge 51, Type (0, 0), BuildingBlock: UVAHIK_clean_linker_0, # of connection points: 2
#     Edge 52, Type (0, 0), BuildingBlock: UVAHIK_clean_linker_0, # of connection points: 2
#     Edge 53, Type (0, 0), BuildingBlock: UVAHIK_clean_linker_0, # of connection points: 2
#     Edge 54, Type (0, 0), BuildingBlock: UVAHIK_clean_linker_0, # of connection points: 2
#     Edge 55, Type (0, 0), BuildingBlock: UVAHIK_clean_linker_0, # of connection points: 2
#     Edge 56, Type (0, 0), BuildingBlock: UVAHIK_clean_linker_0, # of connection points: 2
#     Edge 57, Type (0, 0), BuildingBlock: UVAHIK_clean_linker_0, # of connection points: 2
#     Edge 58, Type (0, 0), BuildingBlock: UVAHIK_clean_linker_0, # of connection points: 2
#     Edge 59, Type (0, 0), BuildingBlock: UVAHIK_clean_linker_0, # of connection points: 2
#     Edge 60, Type (0, 0), BuildingBlock: UVAHIK_clean_linker_0, # of connection points: 2
#     Edge 61, Type (0, 0), BuildingBlock: UVAHIK_clean_linker_0, # of connection points: 2
#     Edge 62, Type (0, 0), BuildingBlock: UVAHIK_clean_linker_0, # of connection points: 2
#     Edge 63, Type (0, 0), BuildingBlock: UVAHIK_clean_linker_0, # of connection points: 2
#     Edge 64, Type (0, 0), BuildingBlock: UVAHIK_clean_linker_0, # of connection points: 2
#     Edge 65, Type (0, 0), BuildingBlock: UVAHIK_clean_linker_0, # of connection points: 2
#     Edge 66, Type (0, 0), BuildingBlock: UVAHIK_clean_linker_0, # of connection points: 2
#     Edge 67, Type (0, 0), BuildingBlock: UVAHIK_clean_linker_0, # of connection points: 2
#     Edge 68, Type (0, 0), BuildingBlock: UVAHIK_clean_linker_0, # of connection points: 2
#     Edge 69, Type (0, 0), BuildingBlock: UVAHIK_clean_linker_0, # of connection points: 2
#     Edge 70, Type (0, 0), BuildingBlock: UVAHIK_clean_linker_0, # of connection points: 2
#     Edge 71, Type (0, 0), BuildingBlock: UVAHIK_clean_linker_0, # of connection points: 2
#     Edge 72, Type (0, 0), BuildingBlock: UVAHIK_clean_linker_0, # of connection points: 2
#     Edge 73, Type (0, 0), BuildingBlock: UVAHIK_clean_linker_0, # of connection points: 2
#     Edge 74, Type (0, 0), BuildingBlock: UVAHIK_clean_linker_0, # of connection points: 2
#     Edge 75, Type (0, 0), BuildingBlock: UVAHIK_clean_linker_0, # of connection points: 2
#     Edge 76, Type (0, 0), BuildingBlock: UVAHIK_clean_linker_0, # of connection points: 2
#     Edge 77, Type (0, 0), BuildingBlock: UVAHIK_clean_linker_0, # of connection points: 2
#     Edge 78, Type (0, 0), BuildingBlock: UVAHIK_clean_linker_0, # of connection points: 2
#     Edge 79, Type (0, 0), BuildingBlock: UVAHIK_clean_linker_0, # of connection points: 2
#     Edge 80, Type (0, 0), BuildingBlock: UVAHIK_clean_linker_0, # of connection points: 2
#     Edge 81, Type (0, 0), BuildingBlock: UVAHIK_clean_linker_0, # of connection points: 2
#     Edge 82, Type (0, 0), BuildingBlock: UVAHIK_clean_linker_0, # of connection points: 2
#     Edge 83, Type (0, 0), BuildingBlock: UVAHIK_clean_linker_0, # of connection points: 2
#     Edge 84, Type (0, 0), BuildingBlock: UVAHIK_clean_linker_0, # of connection points: 2
#     Edge 85, Type (0, 0), BuildingBlock: UVAHIK_clean_linker_0, # of connection points: 2
#     Edge 86, Type (0, 0), BuildingBlock: UVAHIK_clean_linker_0, # of connection points: 2
#     Edge 87, Type (0, 0), BuildingBlock: UVAHIK_clean_linker_0, # of connection points: 2
#     Edge 88, Type (0, 0), BuildingBlock: UVAHIK_clean_linker_0, # of connection points: 2
#     Edge 89, Type (0, 0), BuildingBlock: UVAHIK_clean_linker_0, # of connection points: 2
#     Edge 90, Type (0, 0), BuildingBlock: UVAHIK_clean_linker_0, # of connection points: 2
#     Edge 91, Type (0, 0), BuildingBlock: UVAHIK_clean_linker_0, # of connection points: 2
#     Edge 92, Type (0, 0), BuildingBlock: UVAHIK_clean_linker_0, # of connection points: 2
#     Edge 93, Type (0, 0), BuildingBlock: UVAHIK_clean_linker_0, # of connection points: 2
#     Edge 94, Type (0, 0), BuildingBlock: UVAHIK_clean_linker_0, # of connection points: 2
#     Edge 95, Type (0, 0), BuildingBlock: UVAHIK_clean_linker_0, # of connection points: 2
#     Edge 96, Type (0, 0), BuildingBlock: UVAHIK_clean_linker_0, # of connection points: 2
#     Edge 97, Type (0, 0), BuildingBlock: UVAHIK_clean_linker_0, # of connection points: 2
#     Edge 98, Type (0, 0), BuildingBlock: UVAHIK_clean_linker_0, # of connection points: 2
#     Edge 99, Type (0, 0), BuildingBlock: UVAHIK_clean_linker_0, # of connection points: 2
#     Edge 100, Type (0, 0), BuildingBlock: UVAHIK_clean_linker_0, # of connection points: 2
#     Edge 101, Type (0, 0), BuildingBlock: UVAHIK_clean_linker_0, # of connection points: 2
#     Edge 102, Type (0, 0), BuildingBlock: UVAHIK_clean_linker_0, # of connection points: 2
#     Edge 103, Type (0, 0), BuildingBlock: UVAHIK_clean_linker_0, # of connection points: 2
#     Edge 104, Type (0, 0), BuildingBlock: UVAHIK_clean_linker_0, # of connection points: 2
#     Edge 105, Type (0, 0), BuildingBlock: UVAHIK_clean_linker_0, # of connection points: 2
#     Edge 106, Type (0, 0), BuildingBlock: UVAHIK_clean_linker_0, # of connection points: 2
#     Edge 107, Type (0, 0), BuildingBlock: UVAHIK_clean_linker_0, # of connection points: 2
#     Edge 108, Type (0, 0), BuildingBlock: UVAHIK_clean_linker_0, # of connection points: 2
#     Edge 109, Type (0, 0), BuildingBlock: UVAHIK_clean_linker_0, # of connection points: 2
#     Edge 110, Type (0, 0), BuildingBlock: UVAHIK_clean_linker_0, # of connection points: 2
#     Edge 111, Type (0, 0), BuildingBlock: UVAHIK_clean_linker_0, # of connection points: 2
# Relax obj value: 0.544
# Max RMSD: 0.180
# Mean RMSD: 0.179
data_MOF--net-wgf--node1-BEQFEK_clean_sbu_0--edge1-UVAHIK_clean_linker_0
_symmetry_space_group_name_H-M    P1
_symmetry_Int_Tables_number       1
_symmetry_cell_setting            triclinic
loop_
_symmetry_equiv_pos_as_xyz
'x, y, z'
_cell_length_a     104.48376
_cell_length_b     104.48584
_cell_length_c     31.212222
_cell_angle_alpha  90.000174
_cell_angle_beta   89.985501
_cell_angle_gamma 90.024794
loop_
_atom_site_label
_atom_site_type_symbol
_atom_site_fract_x
_atom_site_fract_y
_atom_site_fract_z
_atom_type_partial_charge
Co0 Co 0.05973 0.06215 0.08334 0.0
Co1 Co 0.04757 0.08509 0.03574 0.0
C2 C 0.03312 0.07079 0.10412 0.0
O3 O 0.04261 0.06333 0.10966 0.0
O4 O 0.03354 0.07976 0.07636 0.0
C5 C 0.07013 0.04902 0.14846 0.0
O6 O 0.06434 0.05866 0.16728 0.0
C7 C 0.03114 0.09789 0.97395 0.0
C8 C 0.04272 0.11491 0.95755 0.0
C9 C 0.03173 0.10829 0.94624 0.0
N10 N 0.04141 0.09827 0.99961 0.0
N11 N 0.04808 0.10867 0.99067 0.0
C12 C 0.02204 0.08681 0.97255 0.0
H13 H 0.02583 0.07862 0.99128 0.0
H14 H 0.02022 0.08377 0.93905 0.0
H15 H 0.01276 0.08981 0.98666 0.0
C16 C 0.06172 0.05149 0.99661 0.0
N17 N 0.05848 0.06098 0.02361 0.0
N18 N 0.05375 0.0707 0.00198 0.0
C19 C 0.05412 0.06767 0.95975 0.0
C20 C 0.05908 0.05537 0.9551 0.0
C21 C 0.06655 0.03871 0.01096 0.0
H22 H 0.0611 0.03549 0.0395 0.0
H23 H 0.06569 0.0314 0.98534 0.0
H24 H 0.07675 0.03963 0.02034 0.0
O25 O 0.07048 0.07668 0.09986 0.0
O26 O 0.06163 0.09336 0.06825 0.0
H27 H 0.0562 0.07418 0.89466 0.0
H28 H 0.04036 0.07533 0.9162 0.0
C29 C 0.05064 0.07652 0.92394 0.0
H30 H 0.05252 0.08658 0.93308 0.0
H31 H 0.05677 0.11104 0.00512 0.0
O32 O 0.06897 0.04766 0.10826 0.0
C33 C 0.07018 0.08859 0.09229 0.0
Co34 Co 0.18741 0.8102 0.31974 0.0
Co35 Co 0.16324 0.79911 0.27516 0.0
C36 C 0.17666 0.78442 0.34418 0.0
O37 O 0.18454 0.79363 0.34841 0.0
O38 O 0.16781 0.78481 0.31592 0.0
C39 C 0.20535 0.82928 0.34485 0.0
O40 O 0.19616 0.83727 0.33448 0.0
C41 C 0.14784 0.78483 0.21274 0.0
C42 C 0.13221 0.79864 0.20128 0.0
C43 C 0.13736 0.78725 0.18656 0.0
N44 N 0.14897 0.79451 0.24072 0.0
N45 N 0.13932 0.80248 0.23475 0.0
C46 C 0.15761 0.77445 0.20772 0.0
H47 H 0.16655 0.77695 0.22504 0.0
H48 H 0.1597 0.77265 0.1734 0.0
H49 H 0.1537 0.76547 0.22145 0.0
C50 C 0.19729 0.8107 0.23194 0.0
N51 N 0.18787 0.80819 0.26005 0.0
N52 N 0.17763 0.80414 0.23955 0.0
C53 C 0.18022 0.80441 0.19695 0.0
C54 C 0.19277 0.80848 0.19096 0.0
C55 C 0.21061 0.81445 0.24447 0.0
H56 H 0.21374 0.80872 0.27245 0.0
H57 H 0.21751 0.81293 0.21793 0.0
H58 H 0.21071 0.82471 0.25358 0.0
O59 O 0.17415 0.82247 0.33718 0.0
O60 O 0.15679 0.81387 0.30876 0.0
H61 H 0.17323 0.80747 0.13285 0.0
H62 H 0.17091 0.79167 0.15355 0.0
C63 C 0.17072 0.80195 0.16208 0.0
H64 H 0.16098 0.80468 0.17257 0.0
H65 H 0.13816 0.81109 0.25123 0.0
O66 O 0.20366 0.81731 0.34041 0.0
C67 C 0.16215 0.8225 0.33107 0.0
Co68 Co 0.43938 0.93583 0.56627 0.0
Co69 Co 0.45277 0.91259 0.52435 0.0
C70 C 0.46642 0.92846 0.58957 0.0
O71 O 0.45655 0.93554 0.59318 0.0
O72 O 0.46655 0.91905 0.56354 0.0
C73 C 0.43498 0.96236 0.5865 0.0
O74 O 0.4463 0.96459 0.56974 0.0
C75 C 0.46988 0.89809 0.46848 0.0
C76 C 0.45767 0.88159 0.45156 0.0
C77 C 0.46923 0.88743 0.44187 0.0
N78 N 0.4591 0.89864 0.49168 0.0
N79 N 0.45204 0.88851 0.48261 0.0
C80 C 0.47969 0.90856 0.46792 0.0
H81 H 0.47604 0.91722 0.48447 0.0
H82 H 0.48243 0.91105 0.43462 0.0
H83 H 0.48842 0.90519 0.48471 0.0
C84 C 0.43651 0.94409 0.47607 0.0
N85 N 0.44037 0.93559 0.50581 0.0
N86 N 0.44632 0.92602 0.48693 0.0
C87 C 0.44655 0.92835 0.44413 0.0
C88 C 0.44053 0.94001 0.43607 0.0
C89 C 0.42853 0.95567 0.48514 0.0
H90 H 0.42171 0.95367 0.51148 0.0
H91 H 0.43484 0.96373 0.49446 0.0
H92 H 0.42306 0.9586 0.45628 0.0
O93 O 0.42893 0.92166 0.58714 0.0
O94 O 0.43878 0.90489 0.55925 0.0
H95 H 0.45106 0.9098 0.41894 0.0
H96 H 0.44964 0.92208 0.37878 0.0
C97 C 0.45296 0.91999 0.41171 0.0
H98 H 0.4634 0.92176 0.41272 0.0
H99 H 0.44295 0.88682 0.49526 0.0
O100 O 0.43056 0.95106 0.58713 0.0
C101 C 0.42992 0.90966 0.58215 0.0
Co102 Co 0.30966 0.18671 0.80911 0.0
Co103 Co 0.33432 0.19982 0.7752 0.0
C104 C 0.31687 0.21297 0.83831 0.0
O105 O 0.3093 0.20342 0.83869 0.0
O106 O 0.32693 0.21295 0.8151 0.0
C107 C 0.28314 0.18159 0.82938 0.0
O108 O 0.28118 0.19388 0.82325 0.0
C109 C 0.34848 0.21778 0.72284 0.0
C110 C 0.36634 0.20717 0.70988 0.0
C111 C 0.35961 0.21809 0.69849 0.0
N112 N 0.34857 0.20711 0.7466 0.0
N113 N 0.35946 0.20101 0.73994 0.0
C114 C 0.33704 0.22636 0.71898 0.0
H115 H 0.3285 0.22188 0.73389 0.0
H116 H 0.33497 0.2286 0.68495 0.0
H117 H 0.33909 0.23551 0.73565 0.0
C118 C 0.30364 0.18509 0.71705 0.0
N119 N 0.31139 0.18861 0.74942 0.0
N120 N 0.32188 0.19384 0.73388 0.0
C121 C 0.32109 0.19365 0.69052 0.0
C122 C 0.3095 0.1882 0.67867 0.0
C123 C 0.29063 0.17936 0.72303 0.0
H124 H 0.29143 0.17051 0.74247 0.0
H125 H 0.28451 0.18624 0.74062 0.0
H126 H 0.28593 0.17707 0.69215 0.0
O127 O 0.32352 0.17606 0.8319 0.0
O128 O 0.34128 0.18536 0.809 0.0
H129 H 0.33057 0.19268 0.62925 0.0
H130 H 0.33065 0.20811 0.65422 0.0
C131 C 0.33148 0.19771 0.66044 0.0
H132 H 0.34099 0.19563 0.67437 0.0
H133 H 0.36174 0.19214 0.75327 0.0
O134 O 0.29423 0.17699 0.82378 0.0
C135 C 0.33564 0.17655 0.82981 0.0
Co136 Co 0.07206 0.94772 0.49489 0.0
Co137 Co 0.05851 0.9282 0.55399 0.0
C138 C 0.04537 0.93739 0.4757 0.0
O139 O 0.05512 0.94431 0.46717 0.0
O140 O 0.045 0.93039 0.50926 0.0
C141 C 0.08304 0.95741 0.42374 0.0
O142 O 0.07849 0.94634 0.41078 0.0
C143 C 0.04223 0.91337 0.61369 0.0
C144 C 0.05733 0.90354 0.651 0.0
C145 C 0.0442 0.90476 0.64694 0.0
N146 N 0.05371 0.91699 0.59871 0.0
N147 N 0.06267 0.911 0.6209 0.0
C148 C 0.02981 0.91881 0.59835 0.0
H149 H 0.02559 0.91224 0.57425 0.0
H150 H 0.03138 0.92826 0.58297 0.0
H151 H 0.02296 0.91982 0.62532 0.0
C152 C 0.07187 0.96342 0.57399 0.0
N153 N 0.06964 0.95247 0.55251 0.0
N154 N 0.06357 0.94437 0.57758 0.0
C155 C 0.0616 0.95002 0.61594 0.0
C156 C 0.06683 0.96228 0.61503 0.0
C157 C 0.07771 0.97506 0.55404 0.0
H158 H 0.08769 0.97285 0.54435 0.0
H159 H 0.07233 0.97757 0.52457 0.0
H160 H 0.07769 0.98335 0.57622 0.0
O161 O 0.08347 0.93283 0.48953 0.0
O162 O 0.07287 0.91869 0.52805 0.0
H163 H 0.05982 0.93492 0.6617 0.0
H164 H 0.05415 0.95018 0.68083 0.0
C165 C 0.05472 0.9438 0.65249 0.0
H166 H 0.04493 0.9411 0.64215 0.0
H167 H 0.07247 0.91215 0.6158 0.0
O168 O 0.08098 0.96097 0.46203 0.0
C169 C 0.0822 0.92157 0.50395 0.0
Co170 Co 0.3061 0.82144 0.74925 0.0
Co171 Co 0.32413 0.80548 0.80658 0.0
C172 C 0.3161 0.79462 0.72513 0.0
O173 O 0.31027 0.80516 0.71859 0.0
O174 O 0.32198 0.79256 0.76028 0.0
C175 C 0.28326 0.82265 0.70393 0.0
O176 O 0.28234 0.81094 0.71899 0.0
C177 C 0.34279 0.7901 0.85602 0.0
C178 C 0.34484 0.80251 0.91303 0.0
C179 C 0.34935 0.79133 0.89462 0.0
N180 N 0.33473 0.80006 0.85234 0.0
N181 N 0.33613 0.80749 0.88625 0.0
C182 C 0.34496 0.78047 0.82131 0.0
H183 H 0.34407 0.78511 0.7895 0.0
H184 H 0.33754 0.7729 0.82357 0.0
H185 H 0.35458 0.77604 0.82405 0.0
C186 C 0.28974 0.8207 0.82726 0.0
N187 N 0.3006 0.81804 0.80571 0.0
N188 N 0.3078 0.81043 0.82903 0.0
C189 C 0.30146 0.80753 0.86547 0.0
C190 C 0.28986 0.81405 0.86571 0.0
C191 C 0.27909 0.8288 0.81019 0.0
H192 H 0.28293 0.8363 0.7886 0.0
H193 H 0.27237 0.82266 0.79191 0.0
H194 H 0.27364 0.83337 0.83656 0.0
O195 O 0.32092 0.83285 0.748 0.0
O196 O 0.3341 0.82011 0.78326 0.0
H197 H 0.31186 0.80403 0.92309 0.0
H198 H 0.29828 0.79377 0.91607 0.0
C199 C 0.30629 0.79854 0.89908 0.0
H200 H 0.31261 0.79119 0.88452 0.0
H201 H 0.33124 0.81609 0.89079 0.0
O202 O 0.29269 0.82952 0.71506 0.0
C203 C 0.332 0.83031 0.76224 0.0
Co204 Co 0.42205 0.04968 0.97963 0.0
Co205 Co 0.43711 0.067 0.04176 0.0
C206 C 0.44891 0.06043 0.96014 0.0
O207 O 0.43855 0.05456 0.95103 0.0
O208 O 0.45041 0.0658 0.99649 0.0
C209 C 0.41079 0.04406 0.90547 0.0
O210 O 0.41368 0.05628 0.90348 0.0
C211 C 0.4536 0.08136 0.102 0.0
C212 C 0.4386 0.0901 0.14262 0.0
C213 C 0.45171 0.08969 0.13622 0.0
N214 N 0.4421 0.07722 0.08878 0.0
N215 N 0.4332 0.08252 0.11305 0.0
C216 C 0.46599 0.07668 0.08372 0.0
H217 H 0.46456 0.06753 0.06634 0.0
H218 H 0.47317 0.07529 0.10948 0.0
H219 H 0.46972 0.08388 0.06074 0.0
C220 C 0.42318 0.03157 0.05358 0.0
N221 N 0.42543 0.04293 0.03458 0.0
N222 N 0.43204 0.05026 0.06072 0.0
C223 C 0.43449 0.04368 0.09695 0.0
C224 C 0.42889 0.03158 0.09399 0.0
C225 C 0.41551 0.02109 0.0334 0.0
H226 H 0.40815 0.0252 0.01179 0.0
H227 H 0.42197 0.01498 0.01393 0.0
H228 H 0.41082 0.01507 0.05815 0.0
O229 O 0.41026 0.06425 0.98392 0.0
O230 O 0.42278 0.07742 0.01958 0.0
H231 H 0.43759 0.05482 0.15341 0.0
H232 H 0.44734 0.04055 0.15043 0.0
C233 C 0.44313 0.04851 0.13164 0.0
H234 H 0.451 0.05421 0.11747 0.0
H235 H 0.4234 0.08098 0.10926 0.0
O236 O 0.41363 0.03787 0.9393 0.0
C237 C 0.41253 0.07523 0.99917 0.0
Co238 Co 0.19773 0.17502 0.23056 0.0
Co239 Co 0.18181 0.19077 0.29544 0.0
C240 C 0.18751 0.20211 0.21229 0.0
O241 O 0.19299 0.19158 0.20275 0.0
O242 O 0.18275 0.20392 0.24944 0.0
C243 C 0.20313 0.16453 0.15445 0.0
O244 O 0.19128 0.1686 0.15088 0.0
C245 C 0.16454 0.20583 0.35068 0.0
C246 C 0.16477 0.19382 0.40903 0.0
C247 C 0.15922 0.20462 0.39133 0.0
N248 N 0.17293 0.19623 0.34509 0.0
N249 N 0.17291 0.18904 0.37988 0.0
C250 C 0.1607 0.2149 0.31589 0.0
H251 H 0.16098 0.20998 0.28441 0.0
H252 H 0.16759 0.22298 0.3149 0.0
H253 H 0.15092 0.21871 0.32139 0.0
C254 C 0.21683 0.17551 0.30108 0.0
N255 N 0.20527 0.17818 0.28423 0.0
N256 N 0.19873 0.18532 0.31118 0.0
C257 C 0.20613 0.18775 0.34567 0.0
C258 C 0.21779 0.18149 0.34078 0.0
C259 C 0.2266 0.16728 0.27952 0.0
H260 H 0.22182 0.15982 0.25995 0.0
H261 H 0.23249 0.17331 0.25786 0.0
H262 H 0.23299 0.16267 0.30337 0.0
O263 O 0.18276 0.16395 0.23611 0.0
O264 O 0.1706 0.17662 0.27538 0.0
H265 H 0.19819 0.19197 0.40723 0.0
H266 H 0.21145 0.20198 0.39246 0.0
C267 C 0.20274 0.19713 0.38016 0.0
H268 H 0.19598 0.20442 0.36781 0.0
H269 H 0.17821 0.18063 0.38323 0.0
O270 O 0.20899 0.1662 0.18971 0.0
C271 C 0.17214 0.16645 0.25376 0.0
Co272 Co 0.94206 0.92355 0.01104 0.0
Co273 Co 0.92124 0.93977 0.05639 0.0
C274 C 0.93106 0.94817 0.97249 0.0
O275 O 0.938 0.93812 0.97163 0.0
O276 O 0.92405 0.95071 0.00488 0.0
C277 C 0.95266 0.90805 0.95149 0.0
O278 O 0.94076 0.90936 0.93868 0.0
C279 C 0.90491 0.95856 0.10211 0.0
C280 C 0.89229 0.94512 0.13699 0.0
C281 C 0.89443 0.95801 0.12973 0.0
N282 N 0.9086 0.94652 0.09348 0.0
N283 N 0.90099 0.93857 0.11432 0.0
C284 C 0.91182 0.97013 0.08593 0.0
H285 H 0.92157 0.96751 0.07482 0.0
H286 H 0.91248 0.97751 0.11142 0.0
H287 H 0.90647 0.97421 0.05842 0.0
C288 C 0.95565 0.92766 0.09345 0.0
N289 N 0.94563 0.92942 0.06701 0.0
N290 N 0.93691 0.93641 0.08644 0.0
C291 C 0.94123 0.93949 0.12589 0.0
C292 C 0.95324 0.934 0.13174 0.0
C293 C 0.96733 0.92017 0.08171 0.0
H294 H 0.97091 0.92341 0.05004 0.0
H295 H 0.97501 0.92123 0.10598 0.0
H296 H 0.96472 0.90991 0.07868 0.0
O297 O 0.92787 0.91123 0.0124 0.0
O298 O 0.91275 0.92385 0.03747 0.0
H299 H 0.93902 0.94827 0.18841 0.0
H300 H 0.93139 0.95655 0.14428 0.0
C301 C 0.9337 0.94703 0.15792 0.0
H302 H 0.92454 0.94205 0.16451 0.0
H303 H 0.90175 0.92862 0.1131 0.0
O304 O 0.9563 0.91397 0.98494 0.0
C305 C 0.91628 0.91318 0.02223 0.0
Co306 Co 0.82677 0.1952 0.74485 0.0
Co307 Co 0.81124 0.17421 0.79262 0.0
C308 C 0.80227 0.18359 0.70821 0.0
O309 O 0.81206 0.19088 0.70645 0.0
O310 O 0.80018 0.17656 0.74093 0.0
C311 C 0.84089 0.20646 0.68264 0.0
O312 O 0.8385 0.19502 0.66707 0.0
C313 C 0.79335 0.15634 0.83746 0.0
C314 C 0.80667 0.1491 0.88691 0.0
C315 C 0.79423 0.14799 0.87213 0.0
N316 N 0.80477 0.16214 0.83257 0.0
N317 N 0.81266 0.15766 0.86201 0.0
C318 C 0.78225 0.15826 0.80792 0.0
H319 H 0.78569 0.15982 0.77477 0.0
H320 H 0.77686 0.1669 0.81803 0.0
H321 H 0.77575 0.14986 0.80832 0.0
C322 C 0.82279 0.2091 0.82685 0.0
N323 N 0.82115 0.1989 0.80102 0.0
N324 N 0.81443 0.19013 0.82124 0.0
C325 C 0.81146 0.19455 0.86065 0.0
C326 C 0.81671 0.2067 0.86569 0.0
C327 C 0.83063 0.22055 0.81508 0.0
H328 H 0.83946 0.21746 0.79827 0.0
H329 H 0.82505 0.22665 0.79274 0.0
H330 H 0.83327 0.22626 0.84372 0.0
O331 O 0.83919 0.1811 0.74546 0.0
O332 O 0.82737 0.1659 0.77457 0.0
H333 H 0.80919 0.18039 0.90936 0.0
H334 H 0.79901 0.19418 0.91599 0.0
C335 C 0.80325 0.18753 0.89216 0.0
H336 H 0.79546 0.18241 0.87518 0.0
H337 H 0.82218 0.16053 0.86516 0.0
O338 O 0.83617 0.20951 0.71875 0.0
C339 C 0.83776 0.1696 0.75747 0.0
Co340 Co 0.55712 0.07124 0.50709 0.0
Co341 Co 0.57819 0.05665 0.55673 0.0
C342 C 0.56959 0.04685 0.47274 0.0
O343 O 0.56219 0.05652 0.47064 0.0
O344 O 0.57655 0.04493 0.50577 0.0
C345 C 0.53437 0.07256 0.45968 0.0
O346 O 0.53522 0.06003 0.46172 0.0
C347 C 0.59755 0.04059 0.60204 0.0
C348 C 0.60225 0.05396 0.65471 0.0
C349 C 0.60531 0.04208 0.63798 0.0
N350 N 0.59023 0.05112 0.59823 0.0
N351 N 0.59318 0.05907 0.62962 0.0
C352 C 0.59771 0.02991 0.57013 0.0
H353 H 0.59623 0.03374 0.5374 0.0
H354 H 0.58975 0.02321 0.57735 0.0
H355 H 0.60691 0.02462 0.57113 0.0
C356 C 0.54279 0.06733 0.58774 0.0
N357 N 0.5533 0.06596 0.56325 0.0
N358 N 0.56199 0.05941 0.58435 0.0
C359 C 0.55715 0.05624 0.62312 0.0
C360 C 0.54481 0.06118 0.6266 0.0
C361 C 0.5313 0.07496 0.57471 0.0
H362 H 0.53434 0.08357 0.5566 0.0
H363 H 0.52519 0.06903 0.55347 0.0
H364 H 0.5256 0.07798 0.60295 0.0
O365 O 0.57064 0.08411 0.5059 0.0
O366 O 0.58597 0.07307 0.53756 0.0
H367 H 0.5702 0.05426 0.67525 0.0
H368 H 0.55701 0.04318 0.67672 0.0
C369 C 0.56394 0.0481 0.65534 0.0
H370 H 0.56997 0.04088 0.6389 0.0
H371 H 0.58899 0.06805 0.63375 0.0
O372 O 0.54246 0.07934 0.47956 0.0
C373 C 0.5821 0.08315 0.51882 0.0
Co374 Co 0.67261 0.80533 0.25452 0.0
Co375 Co 0.68629 0.8285 0.29637 0.0
C376 C 0.69725 0.81661 0.21837 0.0
O377 O 0.68783 0.80887 0.21803 0.0
O378 O 0.69842 0.82493 0.24807 0.0
C379 C 0.66175 0.79189 0.19214 0.0
O380 O 0.66524 0.80278 0.17458 0.0
C381 C 0.70389 0.84591 0.34208 0.0
C382 C 0.68995 0.85955 0.36963 0.0
C383 C 0.7029 0.85686 0.36725 0.0
N384 N 0.69205 0.8424 0.33023 0.0
N385 N 0.68379 0.85067 0.34639 0.0
C386 C 0.71564 0.8383 0.33201 0.0
H387 H 0.71302 0.82852 0.32122 0.0
H388 H 0.72195 0.83771 0.36054 0.0
H389 H 0.721 0.8431 0.30585 0.0
C390 C 0.67605 0.79428 0.34118 0.0
N391 N 0.67738 0.80382 0.31258 0.0
N392 N 0.68307 0.81363 0.33098 0.0
C393 C 0.68541 0.81064 0.37237 0.0
C394 C 0.68109 0.79825 0.38016 0.0
C395 C 0.66974 0.78177 0.33131 0.0
H396 H 0.66069 0.7835 0.31368 0.0
H397 H 0.67611 0.77609 0.31017 0.0
H398 H 0.66769 0.77623 0.36085 0.0
O399 O 0.6596 0.81876 0.24705 0.0
O400 O 0.67023 0.83533 0.27247 0.0
H401 H 0.68674 0.82845 0.40584 0.0
H402 H 0.69303 0.81493 0.43541 0.0
C403 C 0.6921 0.81932 0.40322 0.0
H404 H 0.70178 0.82155 0.39081 0.0
H405 H 0.6739 0.85011 0.34221 0.0
O406 O 0.66433 0.78993 0.23137 0.0
C407 C 0.66034 0.83063 0.25493 0.0
Co408 Co 0.9429 0.05785 0.57554 0.0
Co409 Co 0.91682 0.0486 0.53982 0.0
C410 C 0.93061 0.03366 0.60777 0.0
O411 O 0.93955 0.04195 0.608 0.0
O412 O 0.92117 0.03467 0.58198 0.0
C413 C 0.96952 0.05704 0.59918 0.0
O414 O 0.96837 0.04452 0.59775 0.0
C415 C 0.89909 0.03401 0.48651 0.0
C416 C 0.88404 0.0484 0.47411 0.0
C417 C 0.88812 0.03629 0.4624 0.0
N418 N 0.90155 0.04447 0.50997 0.0
N419 N 0.89233 0.05289 0.5034 0.0
C420 C 0.90715 0.02217 0.48775 0.0
H421 H 0.91641 0.02396 0.4715 0.0
H422 H 0.90222 0.01397 0.47236 0.0
H423 H 0.90936 0.01973 0.52154 0.0
C424 C 0.95005 0.05745 0.48427 0.0
N425 N 0.94155 0.05545 0.51598 0.0
N426 N 0.93042 0.05219 0.49953 0.0
C427 C 0.93148 0.05246 0.45623 0.0
C428 C 0.944 0.05557 0.44538 0.0
C429 C 0.96354 0.06183 0.49106 0.0
H430 H 0.96358 0.07051 0.51149 0.0
H431 H 0.96896 0.05421 0.50785 0.0
H432 H 0.96841 0.06408 0.46037 0.0
O433 O 0.93118 0.07144 0.59555 0.0
O434 O 0.91251 0.06408 0.57278 0.0
H435 H 0.91167 0.05397 0.43859 0.0
H436 H 0.92268 0.05478 0.39411 0.0
C437 C 0.92075 0.05018 0.42547 0.0
H438 H 0.91978 0.03978 0.41989 0.0
H439 H 0.89212 0.06203 0.5169 0.0
O440 O 0.95998 0.06403 0.59021 0.0
C441 C 0.91908 0.07237 0.59281 0.0
Co442 Co 0.68898 0.1916 0.32355 0.0
Co443 Co 0.69924 0.16662 0.28184 0.0
C444 C 0.71402 0.17989 0.35135 0.0
O445 O 0.70537 0.18847 0.35347 0.0
O446 O 0.71324 0.17071 0.32435 0.0
C447 C 0.68733 0.21678 0.36154 0.0
O448 O 0.69972 0.21587 0.36806 0.0
C449 C 0.71379 0.14834 0.22843 0.0
C450 C 0.69812 0.13544 0.20828 0.0
C451 C 0.71102 0.13788 0.20268 0.0
N452 N 0.70298 0.15193 0.2483 0.0
N453 N 0.69373 0.144 0.23684 0.0
C454 C 0.72608 0.15566 0.23027 0.0
H455 H 0.7246 0.16514 0.24557 0.0
H456 H 0.73005 0.15692 0.19754 0.0
H457 H 0.73315 0.15014 0.24928 0.0
C458 C 0.6889 0.20035 0.23386 0.0
N459 N 0.69106 0.19132 0.26369 0.0
N460 N 0.69526 0.18083 0.24509 0.0
C461 C 0.69569 0.18287 0.20227 0.0
C462 C 0.69176 0.19534 0.19389 0.0
C463 C 0.68382 0.21342 0.24365 0.0
H464 H 0.67482 0.21253 0.26225 0.0
H465 H 0.69085 0.21864 0.26379 0.0
H466 H 0.6819 0.21901 0.21413 0.0
O467 O 0.67633 0.17891 0.34315 0.0
O468 O 0.68398 0.1612 0.31431 0.0
H469 H 0.69472 0.16418 0.17442 0.0
H470 H 0.69882 0.17671 0.13682 0.0
C471 C 0.70011 0.17322 0.17011 0.0
H472 H 0.7104 0.1712 0.1754 0.0
H473 H 0.68423 0.14484 0.24677 0.0
O474 O 0.68154 0.20788 0.34191 0.0
C475 C 0.67571 0.16692 0.3371 0.0
Co476 Co 0.55554 0.94064 0.0635 0.0
Co477 Co 0.58181 0.9499 0.02878 0.0
C478 C 0.56925 0.96369 0.10099 0.0
O479 O 0.56012 0.9556 0.09961 0.0
O480 O 0.57847 0.9632 0.07408 0.0
C481 C 0.52946 0.94176 0.09387 0.0
O482 O 0.53132 0.95412 0.09836 0.0
C483 C 0.60229 0.96359 0.98203 0.0
C484 C 0.61437 0.94721 0.96263 0.0
C485 C 0.61311 0.96032 0.9586 0.0
N486 N 0.59739 0.95284 0.999 0.0
N487 N 0.60482 0.94314 0.98803 0.0
C488 C 0.59593 0.97639 0.98434 0.0
H489 H 0.58605 0.97546 0.99706 0.0
H490 H 0.59573 0.98091 0.95216 0.0
H491 H 0.60154 0.9827 0.0059 0.0
C492 C 0.5482 0.94317 0.9729 0.0
N493 N 0.55681 0.9443 0.00471 0.0
N494 N 0.56787 0.94801 0.98889 0.0
C495 C 0.56664 0.94918 0.94588 0.0
C496 C 0.55409 0.94626 0.93448 0.0
C497 C 0.53483 0.93836 0.97913 0.0
H498 H 0.52934 0.94546 0.99813 0.0
H499 H 0.52987 0.93668 0.94821 0.0
H500 H 0.53506 0.92927 0.99747 0.0
O501 O 0.56647 0.92606 0.07942 0.0
O502 O 0.58522 0.93364 0.05874 0.0
H503 H 0.57423 0.95256 0.88226 0.0
H504 H 0.58018 0.96296 0.92377 0.0
C505 C 0.57723 0.95303 0.91632 0.0
H506 H 0.5856 0.94669 0.92138 0.0
H507 H 0.60302 0.93362 0.99617 0.0
O508 O 0.53829 0.93488 0.0782 0.0
C509 C 0.57853 0.925 0.07649 0.0
Co510 Co 0.80949 0.80509 0.82549 0.0
Co511 Co 0.79772 0.83004 0.78882 0.0
C512 C 0.78435 0.81478 0.85775 0.0
O513 O 0.79331 0.80651 0.85822 0.0
O514 O 0.78461 0.8242 0.83168 0.0
C515 C 0.81431 0.7782 0.84842 0.0
O516 O 0.80203 0.77577 0.84434 0.0
C517 C 0.78131 0.84547 0.73364 0.0
C518 C 0.79301 0.86295 0.72582 0.0
C519 C 0.78201 0.85697 0.71133 0.0
N520 N 0.79165 0.84458 0.75888 0.0
N521 N 0.79845 0.85518 0.7549 0.0
C522 C 0.77103 0.83549 0.73189 0.0
H523 H 0.76939 0.83152 0.76439 0.0
H524 H 0.77411 0.82747 0.7111 0.0
H525 H 0.76196 0.83955 0.71933 0.0
C526 C 0.81041 0.7981 0.73366 0.0
N527 N 0.80705 0.80613 0.76547 0.0
N528 N 0.80287 0.81694 0.74899 0.0
C529 C 0.80391 0.81624 0.70577 0.0
C530 C 0.80862 0.80423 0.69465 0.0
C531 C 0.81491 0.78467 0.74081 0.0
H532 H 0.80821 0.77978 0.76286 0.0
H533 H 0.81532 0.77908 0.71067 0.0
H534 H 0.82452 0.78485 0.75591 0.0
O535 O 0.82145 0.81853 0.84532 0.0
O536 O 0.81258 0.8363 0.82082 0.0
H537 H 0.80813 0.82615 0.64677 0.0
H538 H 0.79199 0.8277 0.66548 0.0
C539 C 0.80211 0.82728 0.67583 0.0
H540 H 0.80468 0.83638 0.69186 0.0
H541 H 0.80715 0.85682 0.77033 0.0
O542 O 0.81855 0.78936 0.84107 0.0
C543 C 0.82133 0.83064 0.84166 0.0
Co544 Co 0.56237 0.56284 0.56535 0.0
Co545 Co 0.54809 0.58329 0.51272 0.0
C546 C 0.53695 0.57484 0.5939 0.0
O547 O 0.54688 0.5679 0.59861 0.0
O548 O 0.53535 0.58151 0.5601 0.0
C549 C 0.56211 0.53904 0.6052 0.0
O550 O 0.55032 0.53906 0.59054 0.0
C551 C 0.53296 0.60292 0.46647 0.0
C552 C 0.54562 0.60596 0.41059 0.0
C553 C 0.53424 0.61 0.42891 0.0
N554 N 0.54307 0.59502 0.46962 0.0
N555 N 0.55065 0.59702 0.43644 0.0
C556 C 0.52293 0.60422 0.50042 0.0
H557 H 0.5274 0.60346 0.53255 0.0
H558 H 0.51592 0.5963 0.49713 0.0
H559 H 0.51789 0.61354 0.49796 0.0
C560 C 0.55972 0.54794 0.48545 0.0
N561 N 0.55811 0.55866 0.50867 0.0
N562 N 0.55131 0.56694 0.4867 0.0
C563 C 0.54791 0.5615 0.44908 0.0
C564 C 0.55312 0.54923 0.44705 0.0
C565 C 0.56808 0.53701 0.49877 0.0
H566 H 0.57593 0.54046 0.51966 0.0
H567 H 0.56229 0.52993 0.51685 0.0
H568 H 0.57224 0.53216 0.47036 0.0
O569 O 0.5752 0.57624 0.56735 0.0
O570 O 0.56399 0.59146 0.53555 0.0
H571 H 0.54469 0.57313 0.39393 0.0
H572 H 0.53351 0.56013 0.39976 0.0
C573 C 0.53901 0.56753 0.41742 0.0
H574 H 0.53229 0.5741 0.43393 0.0
H575 H 0.55928 0.59222 0.43143 0.0
O576 O 0.56948 0.54825 0.59583 0.0
C577 C 0.57402 0.58772 0.55493 0.0
Co578 Co 0.68518 0.30635 0.80447 0.0
Co579 Co 0.66005 0.29409 0.77149 0.0
C580 C 0.67609 0.28048 0.83566 0.0
O581 O 0.68383 0.28988 0.83537 0.0
O582 O 0.66624 0.28043 0.81154 0.0
C583 C 0.71203 0.30662 0.81739 0.0
O584 O 0.7113 0.29472 0.80393 0.0
C585 C 0.64321 0.27741 0.72253 0.0
C586 C 0.62684 0.29017 0.70918 0.0
C587 C 0.63183 0.27821 0.69966 0.0
N588 N 0.64491 0.28841 0.74386 0.0
N589 N 0.6349 0.29585 0.73694 0.0
C590 C 0.65325 0.26722 0.71946 0.0
H591 H 0.6625 0.27067 0.73261 0.0
H592 H 0.65461 0.26414 0.68575 0.0
H593 H 0.65009 0.25875 0.73815 0.0
C594 C 0.69105 0.30772 0.71221 0.0
N595 N 0.68331 0.30438 0.74483 0.0
N596 N 0.67286 0.29896 0.72965 0.0
C597 C 0.67382 0.29856 0.68632 0.0
C598 C 0.68538 0.30405 0.67412 0.0
C599 C 0.70382 0.31405 0.71754 0.0
H600 H 0.71093 0.30678 0.72759 0.0
H601 H 0.70728 0.31842 0.68737 0.0
H602 H 0.70322 0.32159 0.74243 0.0
O603 O 0.67253 0.31848 0.82683 0.0
O604 O 0.65457 0.30914 0.80578 0.0
H605 H 0.66517 0.29742 0.62367 0.0
H606 H 0.66425 0.2831 0.6553 0.0
C607 C 0.66372 0.29367 0.6566 0.0
H608 H 0.65412 0.29653 0.66814 0.0
H609 H 0.634 0.30515 0.74872 0.0
O610 O 0.70197 0.31338 0.81885 0.0
C611 C 0.66039 0.31809 0.82538 0.0
Co612 Co 0.9324 0.43916 0.06331 0.0
Co613 Co 0.94479 0.41578 0.01938 0.0
C614 C 0.95846 0.42877 0.09009 0.0
O615 O 0.94911 0.43656 0.09292 0.0
O616 O 0.95846 0.41981 0.06228 0.0
C617 C 0.93214 0.46541 0.08486 0.0
O618 O 0.94387 0.46521 0.06961 0.0
C619 C 0.96065 0.39817 0.96821 0.0
C620 C 0.94566 0.38585 0.93986 0.0
C621 C 0.95872 0.38801 0.94027 0.0
N622 N 0.94924 0.40178 0.98371 0.0
N623 N 0.94035 0.39423 0.96728 0.0
C624 C 0.97288 0.40523 0.9764 0.0
H625 H 0.97891 0.39953 0.99857 0.0
H626 H 0.97095 0.41469 0.99114 0.0
H627 H 0.97827 0.40654 0.94607 0.0
C628 C 0.93211 0.44917 0.97512 0.0
N629 N 0.93449 0.43981 0.00355 0.0
N630 N 0.94067 0.43045 0.98451 0.0
C631 C 0.94285 0.43386 0.94326 0.0
C632 C 0.9376 0.44596 0.93619 0.0
C633 C 0.92412 0.46076 0.98419 0.0
H634 H 0.91679 0.45857 0.00879 0.0
H635 H 0.93034 0.46862 0.99585 0.0
H636 H 0.91927 0.46411 0.9546 0.0
O637 O 0.92015 0.42596 0.08013 0.0
O638 O 0.92965 0.40916 0.05117 0.0
H639 H 0.9461 0.41664 0.90793 0.0
H640 H 0.95164 0.43097 0.88106 0.0
C641 C 0.95065 0.42614 0.9125 0.0
H642 H 0.9603 0.42456 0.92618 0.0
H643 H 0.93058 0.39515 0.97347 0.0
O644 O 0.92552 0.45525 0.0844 0.0
C645 C 0.92065 0.41402 0.07325 0.0
Co646 Co 0.80953 0.69666 0.30854 0.0
Co647 Co 0.83418 0.70724 0.26589 0.0
C648 C 0.82048 0.72253 0.33205 0.0
O649 O 0.81256 0.71335 0.3362 0.0
O650 O 0.82947 0.72201 0.30431 0.0
C651 C 0.78334 0.69665 0.33667 0.0
O652 O 0.78357 0.70903 0.32923 0.0
C653 C 0.85126 0.72002 0.20405 0.0
C654 C 0.86675 0.7057 0.19982 0.0
C655 C 0.86223 0.71684 0.18113 0.0
N656 N 0.84923 0.71095 0.23372 0.0
N657 N 0.85881 0.70271 0.23212 0.0
C658 C 0.84198 0.73056 0.1946 0.0
H659 H 0.83269 0.72877 0.21085 0.0
H660 H 0.8405 0.73162 0.15959 0.0
H661 H 0.846 0.73971 0.20663 0.0
C662 C 0.80086 0.69455 0.21948 0.0
N663 N 0.80978 0.69785 0.24851 0.0
N664 N 0.82016 0.70198 0.22886 0.0
C665 C 0.81805 0.70122 0.186 0.0
C666 C 0.80575 0.69662 0.17898 0.0
C667 C 0.78775 0.68978 0.23052 0.0
H668 H 0.78245 0.69745 0.24744 0.0
H669 H 0.7822 0.68701 0.20172 0.0
H670 H 0.78853 0.68142 0.25222 0.0
O671 O 0.8221 0.68417 0.32878 0.0
O672 O 0.83976 0.69277 0.30251 0.0
H673 H 0.82567 0.698 0.12283 0.0
H674 H 0.82729 0.71398 0.14261 0.0
C675 C 0.82776 0.70376 0.15188 0.0
H676 H 0.83748 0.70139 0.16344 0.0
H677 H 0.85941 0.69445 0.2508 0.0
O678 O 0.79318 0.68997 0.32882 0.0
C679 C 0.83417 0.68423 0.32462 0.0
Co680 Co 0.56804 0.43806 0.00596 0.0
Co681 Co 0.55332 0.4173 0.05595 0.0
C682 C 0.54242 0.42651 0.97573 0.0
O683 O 0.55241 0.43346 0.9721 0.0
O684 O 0.54072 0.41949 0.00869 0.0
C685 C 0.56756 0.46274 0.9738 0.0
O686 O 0.55606 0.46227 0.99082 0.0
C687 C 0.53866 0.39681 0.09984 0.0
C688 C 0.55112 0.39398 0.15631 0.0
C689 C 0.54008 0.38951 0.13685 0.0
N690 N 0.5484 0.40521 0.09802 0.0
N691 N 0.55585 0.40336 0.1316 0.0
C692 C 0.52892 0.39527 0.06511 0.0
H693 H 0.53345 0.39678 0.03339 0.0
H694 H 0.52135 0.40262 0.06918 0.0
H695 H 0.52451 0.38561 0.06599 0.0
C696 C 0.56538 0.45206 0.08812 0.0
N697 N 0.5638 0.44162 0.0634 0.0
N698 N 0.55654 0.43331 0.08358 0.0
C699 C 0.55275 0.43848 0.12117 0.0
C700 C 0.55822 0.45059 0.12532 0.0
C701 C 0.57428 0.46286 0.07762 0.0
H702 H 0.58207 0.4595 0.05627 0.0
H703 H 0.56892 0.47058 0.06117 0.0
H704 H 0.57849 0.46691 0.10733 0.0
O705 O 0.58079 0.42452 0.00157 0.0
O706 O 0.56917 0.4094 0.0323 0.0
H707 H 0.54831 0.42677 0.17519 0.0
H708 H 0.53734 0.43981 0.16695 0.0
C709 C 0.54317 0.43242 0.15051 0.0
H710 H 0.53679 0.4259 0.13233 0.0
H711 H 0.56423 0.40851 0.13754 0.0
O712 O 0.57497 0.45321 0.97793 0.0
C713 C 0.57928 0.41297 0.01299 0.0
Co714 Co 0.80019 0.32157 0.2408 0.0
Co715 Co 0.81834 0.3072 0.30197 0.0
C716 C 0.81218 0.29529 0.22049 0.0
O717 O 0.80592 0.30547 0.21246 0.0
O718 O 0.81762 0.29372 0.25668 0.0
C719 C 0.77889 0.32017 0.18917 0.0
O720 O 0.77829 0.30889 0.20772 0.0
C721 C 0.83712 0.29318 0.35509 0.0
C722 C 0.83763 0.3058 0.41194 0.0
C723 C 0.843 0.29483 0.39472 0.0
N724 N 0.82859 0.30267 0.34971 0.0
N725 N 0.82907 0.31024 0.38355 0.0
C726 C 0.84041 0.28366 0.32099 0.0
H727 H 0.83975 0.28822 0.28898 0.0
H728 H 0.83343 0.27566 0.32209 0.0
H729 H 0.85022 0.27983 0.32545 0.0
C730 C 0.78262 0.32009 0.31538 0.0
N731 N 0.794 0.31813 0.29622 0.0
N732 N 0.80137 0.31127 0.32151 0.0
C733 C 0.79466 0.3082 0.35707 0.0
C734 C 0.78259 0.31378 0.35452 0.0
C735 C 0.77165 0.327 0.29498 0.0
H736 H 0.77524 0.33449 0.27289 0.0
H737 H 0.76583 0.32006 0.27647 0.0
H738 H 0.76536 0.33145 0.31935 0.0
O739 O 0.81412 0.33397 0.2413 0.0
O740 O 0.82775 0.32229 0.27867 0.0
H741 H 0.80461 0.30615 0.41636 0.0
H742 H 0.79186 0.2949 0.40944 0.0
C743 C 0.79969 0.29998 0.3926 0.0
H744 H 0.80663 0.29291 0.37992 0.0
H745 H 0.82366 0.31857 0.38694 0.0
O746 O 0.7871 0.3282 0.20227 0.0
C747 C 0.82518 0.33224 0.25689 0.0
Co748 Co 0.92112 0.55851 0.49544 0.0
Co749 Co 0.93692 0.57778 0.54788 0.0
C750 C 0.9479 0.56783 0.46862 0.0
O751 O 0.93741 0.56179 0.46316 0.0
O752 O 0.94972 0.57459 0.50205 0.0
C753 C 0.92005 0.53493 0.45589 0.0
O754 O 0.93149 0.53416 0.47324 0.0
C755 C 0.95454 0.59315 0.60129 0.0
C756 C 0.94045 0.60495 0.63646 0.0
C757 C 0.95345 0.60282 0.63177 0.0
N758 N 0.9427 0.58983 0.58872 0.0
N759 N 0.93436 0.59703 0.60944 0.0
C760 C 0.96643 0.5865 0.58644 0.0
H761 H 0.96406 0.5774 0.56998 0.0
H762 H 0.97284 0.5845 0.61399 0.0
H763 H 0.9716 0.59276 0.56353 0.0
C764 C 0.92232 0.54364 0.57617 0.0
N765 N 0.9246 0.55427 0.55303 0.0
N766 N 0.93199 0.56204 0.57505 0.0
C767 C 0.93501 0.55637 0.61263 0.0
C768 C 0.92904 0.54442 0.61453 0.0
C769 C 0.91344 0.53316 0.56243 0.0
H770 H 0.90578 0.53707 0.5416 0.0
H771 H 0.91885 0.52586 0.54413 0.0
H772 H 0.90905 0.52844 0.5907 0.0
O773 O 0.90954 0.57309 0.49048 0.0
O774 O 0.92215 0.58704 0.52261 0.0
H775 H 0.93947 0.56917 0.66376 0.0
H776 H 0.94839 0.55435 0.66527 0.0
C777 C 0.94436 0.56183 0.64399 0.0
H778 H 0.95229 0.56654 0.62662 0.0
H779 H 0.92446 0.5964 0.60557 0.0
O780 O 0.91305 0.54446 0.46478 0.0
C781 C 0.91195 0.58444 0.50227 0.0
Co782 Co 0.69504 0.68029 0.73824 0.0
Co783 Co 0.67417 0.69222 0.79655 0.0
C784 C 0.68403 0.70726 0.72439 0.0
O785 O 0.69097 0.69759 0.71507 0.0
O786 O 0.67675 0.70718 0.75735 0.0
C787 C 0.71038 0.66279 0.6902 0.0
O788 O 0.70103 0.65466 0.69729 0.0
C789 C 0.65729 0.70515 0.86 0.0
C790 C 0.64918 0.688 0.89155 0.0
C791 C 0.64904 0.7012 0.89217 0.0
N792 N 0.66202 0.69467 0.8408 0.0
N793 N 0.65697 0.68448 0.85944 0.0
C794 C 0.66141 0.71854 0.8502 0.0
H795 H 0.65392 0.72325 0.83059 0.0
H796 H 0.67054 0.71855 0.83201 0.0
H797 H 0.66253 0.72411 0.88026 0.0
C798 C 0.7094 0.67938 0.81923 0.0
N799 N 0.69859 0.68148 0.7969 0.0
N800 N 0.69006 0.687 0.8217 0.0
C801 C 0.69527 0.68874 0.86086 0.0
C802 C 0.7077 0.68392 0.86065 0.0
C803 C 0.72155 0.67464 0.7994 0.0
H804 H 0.71983 0.66512 0.78477 0.0
H805 H 0.72448 0.68127 0.7734 0.0
H806 H 0.72945 0.67392 0.823 0.0
O807 O 0.6808 0.66867 0.72581 0.0
O808 O 0.66579 0.67857 0.76274 0.0
H809 H 0.67988 0.68993 0.90575 0.0
H810 H 0.69484 0.69613 0.9258 0.0
C811 C 0.68863 0.69536 0.89709 0.0
H812 H 0.68563 0.70506 0.88667 0.0
H813 H 0.65918 0.67508 0.851 0.0
O814 O 0.70993 0.67392 0.70652 0.0
C815 C 0.66922 0.6698 0.73714 0.0
Co816 Co 0.44812 0.42036 0.48498 0.0
Co817 Co 0.4265 0.43505 0.53196 0.0
C818 C 0.43797 0.44577 0.45224 0.0
O819 O 0.44526 0.43601 0.44937 0.0
O820 O 0.43019 0.447 0.48352 0.0
C821 C 0.4593 0.40702 0.42217 0.0
O822 O 0.44863 0.41139 0.40535 0.0
C823 C 0.41125 0.45376 0.58102 0.0
C824 C 0.39714 0.44077 0.61113 0.0
C825 C 0.40073 0.4535 0.60832 0.0
N826 N 0.41369 0.44171 0.56847 0.0
N827 N 0.40514 0.43404 0.58618 0.0
C828 C 0.41952 0.46494 0.56949 0.0
H829 H 0.42891 0.46163 0.55708 0.0
H830 H 0.421 0.4712 0.59778 0.0
H831 H 0.41472 0.47061 0.54409 0.0
C832 C 0.46064 0.4225 0.57021 0.0
N833 N 0.45084 0.42465 0.54317 0.0
N834 N 0.44165 0.43073 0.56361 0.0
C835 C 0.44531 0.43256 0.60465 0.0
C836 C 0.45751 0.42744 0.61023 0.0
C837 C 0.47252 0.41539 0.55804 0.0
H838 H 0.46989 0.40653 0.54052 0.0
H839 H 0.4783 0.42142 0.53606 0.0
H840 H 0.47835 0.41285 0.5865 0.0
O841 O 0.43358 0.40845 0.47943 0.0
O842 O 0.41808 0.41967 0.50905 0.0
H843 H 0.42824 0.43448 0.64187 0.0
H844 H 0.44248 0.44037 0.66842 0.0
C845 C 0.43747 0.43954 0.63725 0.0
H846 H 0.43533 0.44929 0.62526 0.0
H847 H 0.40491 0.42414 0.58184 0.0
O848 O 0.46228 0.41048 0.4599 0.0
C849 C 0.42193 0.40971 0.4898 0.0
Co850 Co 0.32178 0.69608 0.24319 0.0
Co851 Co 0.30603 0.67561 0.29248 0.0
C852 C 0.29639 0.68552 0.20974 0.0
O853 O 0.30644 0.69244 0.20693 0.0
O854 O 0.29439 0.67847 0.24253 0.0
C855 C 0.33585 0.70652 0.17963 0.0
O856 O 0.33226 0.69542 0.1639 0.0
C857 C 0.28884 0.65726 0.33831 0.0
C858 C 0.30243 0.65101 0.38846 0.0
C859 C 0.29013 0.6491 0.37335 0.0
N860 N 0.29991 0.66371 0.3335 0.0
N861 N 0.30797 0.65982 0.36335 0.0
C862 C 0.27779 0.65829 0.30807 0.0
H863 H 0.28128 0.6601 0.2751 0.0
H864 H 0.27169 0.6665 0.31775 0.0
H865 H 0.27196 0.64942 0.30828 0.0
C866 C 0.31947 0.70993 0.32576 0.0
N867 N 0.31708 0.69987 0.30004 0.0
N868 N 0.31021 0.69136 0.32094 0.0
C869 C 0.30784 0.69588 0.36071 0.0
C870 C 0.31369 0.70778 0.36524 0.0
C871 C 0.32775 0.72101 0.31322 0.0
H872 H 0.33614 0.71752 0.29485 0.0
H873 H 0.3222 0.72751 0.29214 0.0
H874 H 0.33113 0.72642 0.34164 0.0
O875 O 0.33354 0.68149 0.24188 0.0
O876 O 0.32146 0.66661 0.27147 0.0
H877 H 0.30546 0.6823 0.41118 0.0
H878 H 0.29545 0.69624 0.41609 0.0
C879 C 0.29958 0.68928 0.39305 0.0
H880 H 0.29171 0.68406 0.37682 0.0
H881 H 0.31733 0.6632 0.36645 0.0
O882 O 0.33173 0.70986 0.21625 0.0
C883 C 0.33177 0.67 0.25323 0.0
Co884 Co 0.05406 0.56893 0.00799 0.0
Co885 Co 0.07443 0.55384 0.05852 0.0
C886 C 0.06629 0.54412 0.97477 0.0
O887 O 0.05941 0.55415 0.97146 0.0
O888 O 0.07255 0.54174 0.00901 0.0
C889 C 0.03195 0.5713 0.95647 0.0
O890 O 0.03268 0.55876 0.95466 0.0
C891 C 0.09511 0.53932 0.10268 0.0
C892 C 0.0982 0.55245 0.15731 0.0
C893 C 0.10274 0.54134 0.13862 0.0
N894 N 0.08646 0.54883 0.10067 0.0
N895 N 0.08846 0.55666 0.13322 0.0
C896 C 0.09672 0.52936 0.06867 0.0
H897 H 0.09451 0.53348 0.03679 0.0
H898 H 0.0899 0.52142 0.07473 0.0
H899 H 0.10662 0.52551 0.06848 0.0
C900 C 0.03931 0.56563 0.08832 0.0
N901 N 0.0498 0.56381 0.06403 0.0
N902 N 0.05828 0.55715 0.08569 0.0
C903 C 0.05332 0.55434 0.12457 0.0
C904 C 0.04114 0.55968 0.12765 0.0
C905 C 0.02809 0.57354 0.07468 0.0
H906 H 0.03145 0.58212 0.05707 0.0
H907 H 0.02202 0.56781 0.05266 0.0
H908 H 0.02224 0.57661 0.10252 0.0
O909 O 0.06765 0.58174 0.00796 0.0
O910 O 0.08267 0.5697 0.03693 0.0
H911 H 0.06561 0.55229 0.17876 0.0
H912 H 0.0526 0.54104 0.17731 0.0
C913 C 0.05977 0.54614 0.15736 0.0
H914 H 0.06614 0.53907 0.14161 0.0
H915 H 0.08329 0.56506 0.13845 0.0
O916 O 0.03975 0.57741 0.97981 0.0
C917 C 0.07917 0.58007 0.01927 0.0
Co918 Co 0.17353 0.3046 0.74234 0.0
Co919 Co 0.18926 0.32508 0.79181 0.0
C920 C 0.19904 0.31516 0.70961 0.0
O921 O 0.18895 0.30832 0.70669 0.0
O922 O 0.20109 0.32217 0.74244 0.0
C923 C 0.15978 0.29361 0.67834 0.0
O924 O 0.16263 0.30494 0.66266 0.0
C925 C 0.20638 0.34329 0.83845 0.0
C926 C 0.19277 0.34941 0.88874 0.0
C927 C 0.20512 0.35129 0.87391 0.0
N928 N 0.19527 0.33695 0.83315 0.0
N929 N 0.18719 0.34076 0.86309 0.0
C930 C 0.21748 0.34226 0.80839 0.0
H931 H 0.21403 0.34062 0.77527 0.0
H932 H 0.22347 0.33396 0.81784 0.0
H933 H 0.2234 0.35108 0.80908 0.0
C934 C 0.17603 0.29065 0.82454 0.0
N935 N 0.17815 0.30086 0.79922 0.0
N936 N 0.18506 0.30933 0.82009 0.0
C937 C 0.18774 0.30465 0.8594 0.0
C938 C 0.18206 0.29267 0.86368 0.0
C939 C 0.16796 0.27945 0.81173 0.0
H940 H 0.15952 0.2828 0.79335 0.0
H941 H 0.17365 0.27307 0.79062 0.0
H942 H 0.16467 0.27394 0.84006 0.0
O943 O 0.16179 0.31915 0.74013 0.0
O944 O 0.17394 0.33402 0.76957 0.0
H945 H 0.19063 0.31804 0.91015 0.0
H946 H 0.20065 0.30406 0.91344 0.0
C947 C 0.19632 0.31111 0.89115 0.0
H948 H 0.20404 0.31637 0.8743 0.0
H949 H 0.17782 0.33742 0.86597 0.0
O950 O 0.16403 0.29056 0.71506 0.0
C951 C 0.16367 0.33068 0.75095 0.0
Co952 Co 0.44639 0.56613 0.0865 0.0
Co953 Co 0.42367 0.55325 0.03922 0.0
C954 C 0.43718 0.54013 0.11266 0.0
O955 O 0.44479 0.54957 0.11703 0.0
O956 O 0.42862 0.54009 0.08339 0.0
C957 C 0.4583 0.57901 0.14933 0.0
O958 O 0.44861 0.57341 0.16862 0.0
C959 C 0.41072 0.53625 0.9783 0.0
C960 C 0.39345 0.54765 0.96336 0.0
C961 C 0.39996 0.53662 0.95213 0.0
N962 N 0.41069 0.54678 0.00287 0.0
N963 N 0.40023 0.55342 0.99441 0.0
C964 C 0.4207 0.526 0.98119 0.0
H965 H 0.42403 0.52503 0.01477 0.0
H966 H 0.4291 0.52866 0.96145 0.0
H967 H 0.41689 0.51669 0.96976 0.0
C968 C 0.45716 0.56722 0.99915 0.0
N969 N 0.44789 0.56384 0.02685 0.0
N970 N 0.43805 0.55916 0.0057 0.0
C971 C 0.44065 0.55986 0.96325 0.0
C972 C 0.45292 0.56487 0.95766 0.0
C973 C 0.46994 0.57225 0.01271 0.0
H974 H 0.47286 0.56778 0.04344 0.0
H975 H 0.47736 0.57029 0.98811 0.0
H976 H 0.46924 0.58274 0.0177 0.0
O977 O 0.43159 0.57713 0.09981 0.0
O978 O 0.41522 0.56757 0.06876 0.0
H979 H 0.43328 0.56306 0.89955 0.0
H980 H 0.43152 0.54704 0.9194 0.0
C981 C 0.43112 0.55728 0.92849 0.0
H982 H 0.42133 0.5596 0.93959 0.0
H983 H 0.39797 0.56217 0.00855 0.0
O984 O 0.46051 0.57629 0.11038 0.0
C985 C 0.41973 0.57653 0.09157 0.0
Co986 Co 0.18293 0.69082 0.82312 0.0
Co987 Co 0.19521 0.66687 0.78103 0.0
C988 C 0.20885 0.68056 0.85094 0.0
O989 O 0.19948 0.68834 0.8534 0.0
O990 O 0.20898 0.67159 0.82306 0.0
C991 C 0.17969 0.71771 0.84742 0.0
O992 O 0.19151 0.71991 0.83514 0.0
C993 C 0.21041 0.64883 0.72809 0.0
C994 C 0.19491 0.63592 0.70656 0.0
C995 C 0.20784 0.63836 0.70207 0.0
N996 N 0.19943 0.65242 0.74698 0.0
N997 N 0.19028 0.64448 0.73466 0.0
C998 C 0.2227 0.65611 0.73129 0.0
H999 H 0.22112 0.66555 0.7467 0.0
H1000 H 0.22694 0.65744 0.69897 0.0
H1001 H 0.22959 0.65052 0.75081 0.0
C1002 C 0.1822 0.69973 0.73292 0.0
N1003 N 0.18502 0.69094 0.763 0.0
N1004 N 0.19039 0.68095 0.74463 0.0
C1005 C 0.19119 0.68318 0.70197 0.0
C1006 C 0.1861 0.6952 0.6933 0.0
C1007 C 0.17546 0.7121 0.74152 0.0
H1008 H 0.16791 0.71068 0.76603 0.0
H1009 H 0.18247 0.7192 0.75361 0.0
H1010 H 0.17102 0.71597 0.71193 0.0
O1011 O 0.17081 0.67748 0.84101 0.0
O1012 O 0.18047 0.66046 0.81439 0.0
H1013 H 0.19226 0.66487 0.6716 0.0
H1014 H 0.19679 0.67808 0.63733 0.0
C1015 C 0.19722 0.67425 0.67044 0.0
H1016 H 0.20737 0.67273 0.67931 0.0
H1017 H 0.18072 0.6453 0.74384 0.0
O1018 O 0.17496 0.70658 0.84379 0.0
C1019 C 0.17146 0.66547 0.83588 0.0
Co1020 Co 0.05395 0.43585 0.57405 0.0
Co1021 Co 0.07586 0.44932 0.52461 0.0
C1022 C 0.06661 0.46081 0.60453 0.0
O1023 O 0.05921 0.45116 0.60829 0.0
O1024 O 0.07361 0.46231 0.57129 0.0
C1025 C 0.04341 0.42353 0.63941 0.0
O1026 O 0.05488 0.42695 0.65239 0.0
C1027 C 0.09423 0.46412 0.47036 0.0
C1028 C 0.10349 0.44779 0.43752 0.0
C1029 C 0.10361 0.46099 0.44046 0.0
N1030 N 0.0889 0.45318 0.48438 0.0
N1031 N 0.09457 0.4435 0.46485 0.0
C1032 C 0.08975 0.47716 0.48316 0.0
H1033 H 0.07997 0.47665 0.49701 0.0
H1034 H 0.08982 0.48371 0.45516 0.0
H1035 H 0.09633 0.48107 0.50778 0.0
C1036 C 0.04109 0.43739 0.48958 0.0
N1037 N 0.05087 0.43994 0.5163 0.0
N1038 N 0.06007 0.44575 0.49504 0.0
C1039 C 0.05628 0.44729 0.45397 0.0
C1040 C 0.04415 0.44195 0.44906 0.0
C1041 C 0.0292 0.43045 0.5027 0.0
H1042 H 0.02567 0.43435 0.53358 0.0
H1043 H 0.02159 0.43127 0.47804 0.0
H1044 H 0.03151 0.42019 0.50773 0.0
O1045 O 0.06725 0.42276 0.57723 0.0
O1046 O 0.08342 0.43385 0.55141 0.0
H1047 H 0.05908 0.45447 0.38947 0.0
H1048 H 0.06851 0.46218 0.43079 0.0
C1049 C 0.0645 0.45294 0.41958 0.0
H1050 H 0.0726 0.44638 0.41296 0.0
H1051 H 0.0922 0.43391 0.46975 0.0
O1052 O 0.03951 0.42742 0.6031 0.0
C1053 C 0.07906 0.42385 0.56921 0.0
Co1054 Co 0.3093 0.30459 0.31256 0.0
Co1055 Co 0.29928 0.33035 0.27586 0.0
C1056 C 0.28548 0.31748 0.34738 0.0
O1057 O 0.29393 0.30869 0.34715 0.0
O1058 O 0.28585 0.32665 0.32032 0.0
C1059 C 0.3087 0.27862 0.34349 0.0
O1060 O 0.29622 0.28008 0.34548 0.0
C1061 C 0.28489 0.34979 0.22681 0.0
C1062 C 0.30078 0.36244 0.20682 0.0
C1063 C 0.28776 0.36049 0.20225 0.0
N1064 N 0.29576 0.3456 0.2449 0.0
N1065 N 0.30515 0.35338 0.23361 0.0
C1066 C 0.27239 0.34285 0.22916 0.0
H1067 H 0.27371 0.33314 0.24285 0.0
H1068 H 0.26801 0.34216 0.19683 0.0
H1069 H 0.26573 0.34833 0.24991 0.0
C1070 C 0.30683 0.29654 0.22265 0.0
N1071 N 0.30578 0.30542 0.25363 0.0
N1072 N 0.30177 0.31627 0.23695 0.0
C1073 C 0.30035 0.31461 0.19419 0.0
C1074 C 0.3034 0.30202 0.18397 0.0
C1075 C 0.31141 0.28315 0.22997 0.0
H1076 H 0.32055 0.28337 0.24803 0.0
H1077 H 0.30426 0.27794 0.24962 0.0
H1078 H 0.3129 0.27793 0.19941 0.0
O1079 O 0.32336 0.31618 0.32843 0.0
O1080 O 0.31529 0.33458 0.30625 0.0
H1081 H 0.30153 0.33364 0.16905 0.0
H1082 H 0.29707 0.32166 0.12993 0.0
C1083 C 0.29597 0.32475 0.16374 0.0
H1084 H 0.28573 0.32684 0.16978 0.0
H1085 H 0.31471 0.35211 0.24238 0.0
O1086 O 0.31555 0.28763 0.32883 0.0
C1087 C 0.32407 0.32825 0.32477 0.0
C1088 C 0.05439 0.97679 0.66345 0.0
C1089 C 0.06625 0.97226 0.64866 0.0
C1090 C 0.05384 0.98642 0.6946 0.0
C1091 C 0.0721 0.00065 0.78277 0.0
H1092 H 0.04969 0.02989 0.76803 0.0
C1093 C 0.0722 0.04187 0.90556 0.0
C1094 C 0.06046 0.04765 0.91552 0.0
C1095 C 0.07322 0.03348 0.8708 0.0
C1096 C 0.05588 0.02172 0.77308 0.0
H1097 H 0.08678 0.97415 0.65448 0.0
H1098 H 0.08587 0.99084 0.70971 0.0
H1099 H 0.05062 0.01341 0.71271 0.0
H1100 H 0.04063 0.04946 0.89671 0.0
H1101 H 0.04221 0.03452 0.83676 0.0
H1102 H 0.07707 0.00858 0.84359 0.0
C1103 C 0.077 0.98698 0.69718 0.0
C1104 C 0.05644 0.01229 0.7412 0.0
C1105 C 0.07754 0.97748 0.66557 0.0
C1106 C 0.04982 0.04519 0.88939 0.0
C1107 C 0.05077 0.03664 0.85494 0.0
C1108 C 0.07141 0.00996 0.81492 0.0
C1109 C 0.06514 0.99159 0.71196 0.0
C1110 C 0.06457 0.00166 0.74566 0.0
C1111 C 0.06245 0.03049 0.8455 0.0
C1112 C 0.06331 0.02067 0.8106 0.0
H1113 H 0.04556 0.97294 0.65061 0.0
H1114 H 0.04457 0.98971 0.70555 0.0
H1115 H 0.07833 0.99248 0.78739 0.0
H1116 H 0.08057 0.04372 0.92512 0.0
H1117 H 0.08246 0.02926 0.86407 0.0
C1118 C 0.20661 0.82131 0.14202 0.0
C1119 C 0.20012 0.80985 0.15067 0.0
C1120 C 0.21531 0.82205 0.10814 0.0
C1121 C 0.22706 0.80539 0.01011 0.0
H1122 H 0.25851 0.82337 0.0373 0.0
C1123 C 0.2728 0.80201 0.90499 0.0
C1124 C 0.27952 0.81345 0.89799 0.0
C1125 C 0.2627 0.80159 0.93446 0.0
C1126 C 0.24974 0.81843 0.02896 0.0
H1127 H 0.19705 0.79036 0.1297 0.0
H1128 H 0.21241 0.79153 0.07051 0.0
H1129 H 0.24123 0.82281 0.08941 0.0
H1130 H 0.2811 0.83338 0.91578 0.0
H1131 H 0.26345 0.83273 0.96734 0.0
H1132 H 0.23577 0.80086 0.94975 0.0
C1133 C 0.21072 0.80002 0.08958 0.0
C1134 C 0.23978 0.81814 0.05882 0.0
C1135 C 0.20192 0.79932 0.12341 0.0
C1136 C 0.27604 0.82445 0.92088 0.0
C1137 C 0.266 0.82404 0.95046 0.0
C1138 C 0.23707 0.80564 0.98023 0.0
C1139 C 0.2178 0.81129 0.0823 0.0
C1140 C 0.22828 0.81167 0.04979 0.0
C1141 C 0.25918 0.81261 0.95758 0.0
C1142 C 0.24852 0.8122 0.98928 0.0
H1143 H 0.20526 0.82958 0.16245 0.0
H1144 H 0.22032 0.83099 0.10284 0.0
H1145 H 0.21831 0.80041 0.00188 0.0
H1146 H 0.27528 0.79344 0.88732 0.0
H1147 H 0.25773 0.79262 0.93946 0.0
C1148 C 0.44504 0.96046 0.39797 0.0
C1149 C 0.44047 0.94784 0.39633 0.0
C1150 C 0.44414 0.96849 0.36238 0.0
C1151 C 0.427 0.97218 0.25812 0.0
H1152 H 0.45169 -0.00042 0.24354 0.0
C1153 C 0.43181 0.00831 0.11311 0.0
C1154 C 0.42946 0.02101 0.12595 0.0
C1155 C 0.43294 0.99852 0.14359 0.0
C1156 C 0.44475 0.99195 0.24726 0.0
H1157 H 0.4314 0.93368 0.35589 0.0
H1158 H 0.43048 0.94745 0.29248 0.0
H1159 H 0.45498 0.98366 0.2995 0.0
H1160 H 0.42603 0.03326 0.18081 0.0
H1161 H 0.42868 0.01626 0.23405 0.0
H1162 H 0.41707 0.98047 0.20447 0.0
C1163 C 0.4345 0.9513 0.32173 0.0
C1164 C 0.44654 0.98286 0.27957 0.0
C1165 C 0.43522 0.9433 0.35782 0.0
C1166 C 0.4281 0.02365 0.16989 0.0
C1167 C 0.42952 0.01393 0.20034 0.0
C1168 C 0.42537 0.98116 0.22514 0.0
C1169 C 0.43884 0.96408 0.32362 0.0
C1170 C 0.43754 0.97299 0.28624 0.0
C1171 C 0.43201 0.00131 0.18746 0.0
C1172 C 0.43411 0.99124 0.22004 0.0
H1173 H 0.44914 0.96423 0.42725 0.0
H1174 H 0.44733 0.97829 0.36587 0.0
H1175 H 0.41975 0.96488 0.26232 0.0
H1176 H 0.43312 0.00598 0.07962 0.0
H1177 H 0.43494 0.98885 0.13302 0.0
C1178 C 0.30061 0.17465 0.62002 0.0
C1179 C 0.30395 0.18681 0.6354 0.0
C1180 C 0.29324 0.17341 0.58289 0.0
C1181 C 0.27959 0.19134 0.48971 0.0
H1182 H 0.25253 0.16613 0.50034 0.0
C1183 C 0.2413 0.18338 0.35711 0.0
C1184 C 0.2287 0.18137 0.37125 0.0
C1185 C 0.25147 0.18348 0.38637 0.0
C1186 C 0.25997 0.17328 0.49688 0.0
H1187 H 0.30292 0.20715 0.62336 0.0
H1188 H 0.28981 0.20508 0.55882 0.0
H1189 H 0.26888 0.16752 0.55528 0.0
H1190 H 0.21686 0.17773 0.42686 0.0
H1191 H 0.23444 0.17825 0.47797 0.0
H1192 H 0.27024 0.19746 0.43213 0.0
C1193 C 0.29299 0.19646 0.57483 0.0
C1194 C 0.26951 0.17394 0.52814 0.0
C1195 C 0.30048 0.19768 0.61181 0.0
C1196 C 0.22646 0.17942 0.41509 0.0
C1197 C 0.23658 0.17956 0.44431 0.0
C1198 C 0.26998 0.19071 0.45843 0.0
C1199 C 0.28893 0.18431 0.56064 0.0
C1200 C 0.27939 0.18306 0.52528 0.0
C1201 C 0.24924 0.18157 0.43039 0.0
C1202 C 0.25995 0.18178 0.46196 0.0
H1203 H 0.30327 0.16615 0.63775 0.0
H1204 H 0.29059 0.16389 0.57239 0.0
H1205 H 0.28711 0.1984 0.48616 0.0
H1206 H 0.24329 0.18506 0.32353 0.0
H1207 H 0.26109 0.18497 0.37445 0.0
C1208 C 0.87099 0.02978 0.41079 0.0
C1209 C 0.88394 0.02973 0.42299 0.0
C1210 C 0.8673 0.02499 0.37072 0.0
C1211 C 0.88071 0.01784 0.264 0.0
H1212 H 0.85714 0.98923 0.26097 0.0
C1213 C 0.88577 0.98054 0.13318 0.0
C1214 C 0.88745 0.96841 0.15171 0.0
C1215 C 0.88001 0.99041 0.1566 0.0
C1216 C 0.86359 0.99735 0.26101 0.0
H1217 H 0.9032 0.02509 0.40205 0.0
H1218 H 0.89683 0.01654 0.3335 0.0
H1219 H 0.85787 0.00298 0.32416 0.0
H1220 H 0.88339 0.95678 0.20773 0.0
H1221 H 0.87371 0.97383 0.24847 0.0
H1222 H 0.88743 0.01153 0.20314 0.0
C1223 C 0.88949 0.02027 0.3546 0.0
C1224 C 0.86393 0.00527 0.29705 0.0
C1225 C 0.89312 0.0249 0.39447 0.0
C1226 C 0.88238 0.96606 0.19263 0.0
C1227 C 0.87665 0.97584 0.21589 0.0
C1228 C 0.88046 0.00989 0.2282 0.0
C1229 C 0.87659 0.02041 0.34206 0.0
C1230 C 0.87313 0.015 0.29992 0.0
C1231 C 0.87576 0.98824 0.19876 0.0
C1232 C 0.87255 -0.00099 0.22775 0.0
H1233 H 0.86376 0.03365 0.43202 0.0
H1234 H 0.85728 0.02509 0.36183 0.0
H1235 H 0.88768 0.02551 0.26516 0.0
H1236 H 0.889 0.98251 0.10095 0.0
H1237 H 0.87928 -0.00018 0.14229 0.0
C1238 C 0.7716 0.14478 0.89703 0.0
C1239 C 0.78426 0.14034 0.89387 0.0
C1240 C 0.76303 0.13894 0.92527 0.0
C1241 C 0.76434 0.12759 0.02996 0.0
H1242 H 0.72893 0.11735 0.01622 0.0
C1243 C 0.73111 0.12791 0.17531 0.0
C1244 C 0.71885 0.13277 0.16763 0.0
C1245 C 0.73882 0.12408 0.14102 0.0
C1246 C 0.73878 0.12027 0.02071 0.0
H1247 H 0.79761 0.12584 0.91574 0.0
H1248 H 0.78273 0.11603 0.96639 0.0
H1249 H 0.74267 0.11936 0.95319 0.0
H1250 H 0.70478 0.13727 0.1191 0.0
H1251 H 0.71837 0.1315 0.05928 0.0
H1252 H 0.7604 0.12988 0.0963 0.0
C1253 C 0.77943 0.12382 0.94632 0.0
C1254 C 0.74664 0.12126 0.98462 0.0
C1255 C 0.78792 0.12949 0.91755 0.0
C1256 C 0.71421 0.13344 0.12561 0.0
C1257 C 0.72201 0.12998 0.09133 0.0
C1258 C 0.75643 0.12696 0.06582 0.0
C1259 C 0.76708 0.12878 0.95137 0.0
C1260 C 0.75937 0.12523 0.98901 0.0
C1261 C 0.73453 0.12547 0.09842 0.0
C1262 C 0.74342 0.1237 0.06158 0.0
H1263 H 0.76855 0.15335 0.88055 0.0
H1264 H 0.75359 0.14306 0.92938 0.0
H1265 H 0.77412 0.13083 0.03392 0.0
H1266 H 0.73476 0.1272 0.2077 0.0
H1267 H 0.74826 0.12036 0.14797 0.0
C1268 C 0.61147 0.01984 0.65998 0.0
C1269 C 0.61416 0.033 0.6589 0.0
C1270 C 0.61811 0.01183 0.68807 0.0
C1271 C 0.62808 0.01423 0.79471 0.0
H1272 H 0.63992 0.97932 0.78168 0.0
C1273 C 0.62455 0.98031 0.93687 0.0
C1274 C 0.61975 0.96818 0.92654 0.0
C1275 C 0.6296 0.98816 0.90478 0.0
C1276 C 0.63658 0.98904 0.78597 0.0
H1277 H 0.62654 0.04793 0.6838 0.0
H1278 H 0.63778 0.03397 0.73397 0.0
H1279 H 0.63838 0.99317 0.71883 0.0
H1280 H 0.61687 0.95442 0.87562 0.0
H1281 H 0.62481 0.96825 0.81943 0.0
H1282 H 0.62484 0.00996 0.86034 0.0
C1283 C 0.63071 0.02986 0.7126 0.0
C1284 C 0.63586 0.99698 0.75001 0.0
C1285 C 0.62423 0.03782 0.6841 0.0
C1286 C 0.62058 0.96376 0.88427 0.0
C1287 C 0.62529 0.97169 0.85208 0.0
C1288 C 0.62846 0.00623 0.83036 0.0
C1289 C 0.62733 0.01692 0.71601 0.0
C1290 C 0.63118 0.00948 0.75399 0.0
C1291 C 0.62956 0.98415 0.86163 0.0
C1292 C 0.63218 0.99334 0.82619 0.0
H1293 H 0.60355 0.01586 0.64208 0.0
H1294 H 0.61519 0.00191 0.69075 0.0
H1295 H 0.6243 0.02382 0.79846 0.0
H1296 H 0.62418 0.98378 0.96954 0.0
H1297 H 0.63312 0.99753 0.91369 0.0
C1298 C 0.77319 0.87393 0.66334 0.0
C1299 C 0.77491 0.86089 0.67272 0.0
C1300 C 0.76773 0.8777 0.62442 0.0
C1301 C 0.74815 0.88123 0.55214 0.0
H1302 H 0.75494 0.86003 0.45275 0.0
C1303 C 0.70976 0.86747 0.43444 0.0
C1304 C 0.71285 0.86322 0.39307 0.0
C1305 C 0.71927 0.872 0.46168 0.0
C1306 C 0.75312 0.86635 0.47955 0.0
H1307 H 0.77281 0.84162 0.64773 0.0
H1308 H 0.76279 0.84806 0.58146 0.0
H1309 H 0.7687 0.85845 0.51498 0.0
H1310 H 0.72796 0.86195 0.34571 0.0
H1311 H 0.7447 0.86989 0.39349 0.0
H1312 H 0.7324 0.88898 0.51689 0.0
C1313 C 0.76573 0.85544 0.6038 0.0
C1314 C 0.76091 0.86528 0.51555 0.0
C1315 C 0.77116 0.8517 0.64246 0.0
C1316 C 0.72543 0.86465 0.37807 0.0
C1317 C 0.73497 0.86931 0.40532 0.0
C1318 C 0.74043 0.88243 0.51585 0.0
C1319 C 0.76407 0.86846 0.5941 0.0
C1320 C 0.758 0.87211 0.55307 0.0
C1321 C 0.73207 0.87255 0.448 0.0
C1322 C 0.74235 0.8744 0.4802 0.0
H1323 H 0.77621 0.88121 0.6859 0.0
H1324 H 0.76657 0.88781 0.61776 0.0
H1325 H 0.74576 0.88674 0.58045 0.0
H1326 H 0.70011 0.86657 0.44676 0.0
H1327 H 0.71665 0.87422 0.49441 0.0
C1328 C 0.55294 0.54234 0.36977 0.0
C1329 C 0.55154 0.53932 0.41337 0.0
C1330 C 0.55239 0.53268 0.33864 0.0
C1331 C 0.55848 0.4985 0.32531 0.0
H1332 H 0.5384 0.50138 0.22141 0.0
C1333 C 0.55625 0.45703 0.20276 0.0
C1334 C 0.55604 0.46034 0.15919 0.0
C1335 C 0.55469 0.46643 0.23434 0.0
C1336 C 0.54422 0.50046 0.24993 0.0
H1337 H 0.54765 0.52397 0.45828 0.0
H1338 H 0.54712 0.50712 0.40425 0.0
H1339 H 0.53776 0.51855 0.27436 0.0
H1340 H 0.55338 0.476 0.11456 0.0
H1341 H 0.5514 0.49241 0.16905 0.0
H1342 H 0.56534 0.4807 0.30064 0.0
C1343 C 0.54878 0.5169 0.39414 0.0
C1344 C 0.54379 0.5103 0.28032 0.0
C1345 C 0.54915 0.52655 0.42507 0.0
C1346 C 0.55394 0.47317 0.14786 0.0
C1347 C 0.55255 0.48258 0.17927 0.0
C1348 C 0.55907 0.48875 0.29468 0.0
C1349 C 0.55056 0.51983 0.35066 0.0
C1350 C 0.55091 0.50942 0.31832 0.0
C1351 C 0.55297 0.47939 0.22304 0.0
C1352 C 0.55196 0.48959 0.25646 0.0
H1353 H 0.55487 0.55208 0.35985 0.0
H1354 H 0.55384 0.53519 0.30532 0.0
H1355 H 0.56419 0.49763 0.35413 0.0
H1356 H 0.55787 0.44721 0.21247 0.0
H1357 H 0.55484 0.46352 0.26762 0.0
C1358 C 0.69424 0.31688 0.61376 0.0
C1359 C 0.69126 0.30488 0.63116 0.0
C1360 C 0.70259 0.31787 0.57894 0.0
C1361 C 0.71936 0.29992 0.49311 0.0
H1362 H 0.74629 0.3247 0.51405 0.0
C1363 C 0.7664 0.3007 0.39444 0.0
C1364 C 0.77179 0.31267 0.38498 0.0
C1365 C 0.75594 0.29974 0.42232 0.0
C1366 C 0.73877 0.31787 0.50717 0.0
H1367 H 0.69379 0.28445 0.62434 0.0
H1368 H 0.70834 0.2861 0.56293 0.0
H1369 H 0.72839 0.3232 0.56343 0.0
H1370 H 0.77054 0.33302 0.39678 0.0
H1371 H 0.75208 0.33149 0.44448 0.0
H1372 H 0.72978 0.29461 0.43673 0.0
C1373 C 0.70426 0.29477 0.57613 0.0
C1374 C 0.72847 0.31701 0.53558 0.0
C1375 C 0.69591 0.2938 0.61114 0.0
C1376 C 0.76653 0.32368 0.40365 0.0
C1377 C 0.75603 0.32276 0.43125 0.0
C1378 C 0.72964 0.30085 0.46442 0.0
C1379 C 0.70809 0.30685 0.56079 0.0
C1380 C 0.71865 0.30803 0.52899 0.0
C1381 C 0.75059 0.31077 0.44108 0.0
C1382 C 0.73952 0.30982 0.47116 0.0
H1383 H 0.69072 0.32554 0.62879 0.0
H1384 H 0.70515 0.3273 0.56733 0.0
H1385 H 0.71191 0.29294 0.48705 0.0
H1386 H 0.77021 0.29209 0.37994 0.0
H1387 H 0.75214 0.29034 0.42947 0.0
C1388 C 0.93024 0.53669 0.6909 0.0
C1389 C 0.9307 0.53408 0.64684 0.0
C1390 C 0.93171 0.52682 0.72092 0.0
C1391 C 0.94223 0.49249 0.7308 0.0
H1392 H 0.9243 0.49485 0.83922 0.0
C1393 C 0.9352 0.45124 0.85767 0.0
C1394 C 0.93907 0.45475 0.89914 0.0
C1395 C 0.93497 0.46039 0.82466 0.0
C1396 C 0.92936 0.49409 0.80901 0.0
H1397 H 0.93341 0.51907 0.59977 0.0
H1398 H 0.93504 0.50184 0.65143 0.0
H1399 H 0.92196 0.51192 0.7867 0.0
H1400 H 0.94651 0.47025 0.93798 0.0
H1401 H 0.94567 0.48622 0.88104 0.0
H1402 H 0.94919 0.47432 0.75323 0.0
C1403 C 0.93391 0.5115 0.66332 0.0
C1404 C 0.92814 0.50393 0.77897 0.0
C1405 C 0.9327 0.52139 0.63347 0.0
C1406 C 0.94324 0.46734 0.90652 0.0
C1407 C 0.94279 0.47648 0.87399 0.0
C1408 C 0.94322 0.4825 0.7606 0.0
C1409 C 0.93345 0.51403 0.70758 0.0
C1410 C 0.93465 0.50338 0.7395 0.0
C1411 C 0.93842 0.47317 0.833 0.0
C1412 C 0.9369 0.48329 0.80013 0.0
H1413 H 0.92865 0.54636 0.70221 0.0
H1414 H 0.93155 0.52928 0.75459 0.0
H1415 H 0.94761 0.49173 0.70129 0.0
H1416 H 0.93184 0.44162 0.85125 0.0
H1417 H 0.93157 0.45763 0.79321 0.0
C1418 C 0.7948 0.68279 0.12529 0.0
C1419 C 0.79877 0.69501 0.13821 0.0
C1420 C 0.78598 0.68138 0.09195 0.0
C1421 C 0.76912 0.69885 0.00395 0.0
H1422 H 0.74285 0.67336 0.02482 0.0
C1423 C 0.7216 0.6972 0.90841 0.0
C1424 C 0.71765 0.6851 0.89412 0.0
C1425 C 0.73179 0.69835 0.9373 0.0
C1426 C 0.75017 0.68044 0.0183 0.0
H1427 H 0.79722 0.71529 0.1258 0.0
H1428 H 0.78164 0.71294 0.06783 0.0
H1429 H 0.76071 0.67536 0.0744 0.0
H1430 H 0.72098 0.66473 0.89885 0.0
H1431 H 0.73871 0.66666 0.94978 0.0
H1432 H 0.75832 0.70409 0.94824 0.0
C1433 C 0.78543 0.70439 0.08274 0.0
C1434 C 0.76048 0.68156 0.04662 0.0
C1435 C 0.79436 0.70577 0.1159 0.0
C1436 C 0.72385 0.67415 0.90972 0.0
C1437 C 0.73395 0.67527 0.93886 0.0
C1438 C 0.75875 0.6978 0.97577 0.0
C1439 C 0.78083 0.69218 0.07119 0.0
C1440 C 0.77012 0.69077 0.03986 0.0
C1441 C 0.73814 0.68739 0.95266 0.0
C1442 C 0.74915 0.68858 0.98264 0.0
H1443 H 0.79809 0.67437 0.14229 0.0
H1444 H 0.78292 0.67182 0.0833 0.0
H1445 H 0.77642 0.70595 0.99736 0.0
H1446 H 0.71701 0.70578 0.89644 0.0
H1447 H 0.73469 0.7078 0.94766 0.0
C1448 C 0.39484 0.47654 0.62067 0.0
C1449 C 0.39547 0.46384 0.63519 0.0
C1450 C 0.39106 0.4863 0.64853 0.0
C1451 C 0.3779 0.49237 0.75811 0.0
H1452 H 0.4031 0.5196 0.75916 0.0
C1453 C 0.40682 0.5245 0.88724 0.0
C1454 C 0.39697 0.52883 0.9141 0.0
C1455 C 0.40396 0.51834 0.84891 0.0
C1456 C 0.39596 0.51208 0.75922 0.0
H1457 H 0.39169 0.45123 0.68893 0.0
H1458 H 0.38544 0.46814 0.73751 0.0
H1459 H 0.40178 0.50547 0.69761 0.0
H1460 H 0.37641 0.53041 0.92161 0.0
H1461 H 0.37136 0.5196 0.85413 0.0
H1462 H 0.37283 0.4984 0.82135 0.0
C1463 C 0.38767 0.47066 0.7047 0.0
C1464 C 0.39505 0.5041 0.72361 0.0
C1465 C 0.39138 0.46095 0.67691 0.0
C1466 C 0.38418 0.52696 0.90172 0.0
C1467 C 0.3813 0.52081 0.86318 0.0
C1468 C 0.3789 0.5003 0.79394 0.0
C1469 C 0.38784 0.48349 0.69127 0.0
C1470 C 0.38642 0.49379 0.72352 0.0
C1471 C 0.39118 0.51654 0.83622 0.0
C1472 C 0.38835 0.50984 0.79556 0.0
H1473 H 0.39742 0.47897 0.58812 0.0
H1474 H 0.39104 0.49608 0.63703 0.0
H1475 H 0.37097 0.48467 0.75855 0.0
H1476 H 0.41676 0.52624 0.89486 0.0
H1477 H 0.41179 0.51498 0.82917 0.0
C1478 C 0.28496 0.63034 0.41915 0.0
C1479 C 0.28063 0.64084 0.39491 0.0
C1480 C 0.27682 0.62426 0.44811 0.0
C1481 C 0.24423 0.62012 0.48718 0.0
H1482 H 0.25765 0.63053 0.59762 0.0
C1483 C 0.21137 0.63298 0.62585 0.0
C1484 C 0.21595 0.63309 0.668 0.0
C1485 C 0.21931 0.62925 0.59229 0.0
C1486 C 0.2538 0.6271 0.56755 0.0
H1487 H 0.26411 0.65267 0.38047 0.0
H1488 H 0.24981 0.64169 0.42979 0.0
H1489 H 0.27127 0.63145 0.53502 0.0
H1490 H 0.23196 0.62855 0.70913 0.0
H1491 H 0.24576 0.6213 0.65072 0.0
H1492 H 0.22673 0.61576 0.51943 0.0
C1493 C 0.25949 0.63816 0.42601 0.0
C1494 C 0.26165 0.6277 0.53154 0.0
C1495 C 0.2677 0.64441 0.39752 0.0
C1496 C 0.22835 0.62871 0.67661 0.0
C1497 C 0.23622 0.62463 0.64308 0.0
C1498 C 0.23645 0.61916 0.52346 0.0
C1499 C 0.26418 0.62845 0.45283 0.0
C1500 C 0.25675 0.62474 0.49093 0.0
C1501 C 0.23195 0.62525 0.60026 0.0
C1502 C 0.24094 0.62327 0.5638 0.0
H1503 H 0.29487 0.62734 0.4177 0.0
H1504 H 0.28062 0.61683 0.4687 0.0
H1505 H 0.24032 0.61774 0.45603 0.0
H1506 H 0.20183 0.63641 0.61855 0.0
H1507 H 0.21567 0.63019 0.55999 0.0
C1508 C 0.11312 0.46584 0.3697 0.0
C1509 C 0.11124 0.4694 0.41253 0.0
C1510 C 0.11976 0.47382 0.34181 0.0
C1511 C 0.12652 0.50788 0.32843 0.0
H1512 H 0.1393 0.49502 0.21994 0.0
C1513 C 0.12223 0.53901 0.18359 0.0
C1514 C 0.11281 0.53325 0.15779 0.0
C1515 C 0.1295 0.53164 0.21176 0.0
C1516 C 0.13607 0.49881 0.25039 0.0
H1517 H 0.11581 0.4835 0.46103 0.0
H1518 H 0.12766 0.4975 0.41228 0.0
H1519 H 0.13856 0.48086 0.28213 0.0
H1520 H 0.10445 0.51514 0.13859 0.0
H1521 H 0.11732 0.50229 0.18688 0.0
H1522 H 0.12358 0.52565 0.29631 0.0
C1523 C 0.12363 0.48871 0.39986 0.0
C1524 C 0.1355 0.4907 0.28591 0.0
C1525 C 0.11678 0.48076 0.42774 0.0
C1526 C 0.11178 0.51987 0.15724 0.0
C1527 C 0.11917 0.51248 0.18509 0.0
C1528 C 0.12737 0.51604 0.29325 0.0
C1529 C 0.12491 0.48549 0.35622 0.0
C1530 C 0.12978 0.49488 0.32435 0.0
C1531 C 0.12752 0.5184 0.21435 0.0
C1532 C 0.13131 0.51132 0.25324 0.0
H1533 H 0.10898 0.4571 0.35716 0.0
H1534 H 0.12022 0.47107 0.30841 0.0
H1535 H 0.12208 0.51151 0.35729 0.0
H1536 H 0.1233 0.54932 0.18436 0.0
H1537 H 0.1359 0.5364 0.23396 0.0
C1538 C 0.21043 0.36973 0.92101 0.0
C1539 C 0.21468 0.35933 0.89614 0.0
C1540 C 0.21863 0.37562 0.95019 0.0
C1541 C 0.25136 0.37952 0.98837 0.0
H1542 H 0.23811 0.36924 0.09918 0.0
C1543 C 0.28437 0.36641 0.12638 0.0
C1544 C 0.27982 0.36624 0.16857 0.0
C1545 C 0.27644 0.37031 0.093 0.0
C1546 C 0.24191 0.37263 0.069 0.0
H1547 H 0.2311 0.34744 0.88103 0.0
H1548 H 0.24552 0.35811 0.93068 0.0
H1549 H 0.22436 0.36836 0.03692 0.0
H1550 H 0.2639 0.37087 0.21 0.0
H1551 H 0.25013 0.37842 0.15195 0.0
H1552 H 0.26895 0.3838 0.02017 0.0
C1553 C 0.23585 0.36171 0.92721 0.0
C1554 C 0.23399 0.37205 0.03319 0.0
C1555 C 0.22758 0.35564 0.89852 0.0
C1556 C 0.2675 0.37078 0.17745 0.0
C1557 C 0.25963 0.37502 0.14411 0.0
C1558 C 0.25922 0.38046 0.02446 0.0
C1559 C 0.23127 0.37135 0.9545 0.0
C1560 C 0.23881 0.37497 0.99244 0.0
C1561 C 0.26384 0.3744 0.10121 0.0
C1562 C 0.25479 0.3764 0.06494 0.0
H1563 H 0.20054 0.37281 0.91979 0.0
H1564 H 0.21491 0.38301 0.97114 0.0
H1565 H 0.25522 0.38188 0.95712 0.0
H1566 H 0.29385 0.36285 0.11886 0.0
H1567 H 0.28004 0.36938 0.06064 0.0
C1568 C 0.9821 0.0765 0.61717 0.0
C1569 C 0.98082 0.06311 0.61865 0.0
C1570 C 0.9905 0.08273 0.64479 0.0
C1571 C 0.00107 0.07732 0.7528 0.0
H1572 H 0.01853 0.10987 0.73991 0.0
C1573 C 0.03309 0.11001 0.86718 0.0
C1574 C 0.02547 0.10903 0.90413 0.0
C1575 C 0.02804 0.10682 0.82724 0.0
C1576 C 0.01366 0.10079 0.74381 0.0
H1577 H 0.98855 0.04563 0.64566 0.0
H1578 H 0.00337 0.05656 0.69381 0.0
H1579 H 0.01173 0.09798 0.67603 0.0
H1580 H 0.0063 0.10585 0.92807 0.0
H1581 H 0.99739 0.10034 0.85805 0.0
H1582 H 0.00292 0.08002 0.8202 0.0
C1583 C 0.99763 0.06222 0.67199 0.0
C1584 C 0.00983 0.09399 0.70742 0.0
C1585 C 0.9892 0.05597 0.64432 0.0
C1586 C 0.01239 0.10639 0.90004 0.0
C1587 C 0.00733 0.10321 0.86011 0.0
C1588 C 0.00481 0.08411 0.78894 0.0
C1589 C 0.99777 0.07567 0.67424 0.0
C1590 C 0.00344 0.08221 0.71167 0.0
C1591 C 0.01532 0.10268 0.82388 0.0
C1592 C 0.011 0.09597 0.78487 0.0
H1593 H 0.97592 0.08224 0.597 0.0
H1594 H 0.99042 0.0931 0.64568 0.0
H1595 H 0.99593 0.06841 0.7572 0.0
H1596 H 0.04323 0.11206 0.86954 0.0
H1597 H 0.03439 0.10652 0.79981 0.0
C1598 C 0.13494 0.76922 0.13474 0.0
C1599 C 0.13569 0.78239 0.14277 0.0
C1600 C 0.13589 0.76466 0.09279 0.0
C1601 C 0.15444 0.77074 0.00294 0.0
H1602 H 0.13276 0.74713 0.94051 0.0
C1603 C 0.1756 0.74064 0.86713 0.0
C1604 C 0.17196 0.72772 0.86831 0.0
C1605 C 0.16862 0.74979 0.89007 0.0
C1606 C 0.13897 0.75367 0.95759 0.0
H1607 H 0.13739 0.8012 0.11383 0.0
H1608 H 0.13945 0.79314 0.04064 0.0
H1609 H 0.12435 0.75815 0.00357 0.0
H1610 H 0.1579 0.7143 0.89296 0.0
H1611 H 0.14629 0.72988 0.93429 0.0
H1612 H 0.16946 0.76546 0.96039 0.0
C1613 C 0.13785 0.78642 0.06654 0.0
C1614 C 0.13408 0.76003 0.99335 0.0
C1615 C 0.13665 0.79099 0.10828 0.0
C1616 C 0.16097 0.72419 0.89135 0.0
C1617 C 0.15417 0.73322 0.91476 0.0
C1618 C 0.15944 0.76414 0.96795 0.0
C1619 C 0.13782 0.77323 0.05873 0.0
C1620 C 0.14192 0.76832 0.01684 0.0
C1621 C 0.15802 0.74611 0.9152 0.0
C1622 C 0.15191 0.75515 0.94579 0.0
H1623 H 0.13426 0.76247 0.16099 0.0
H1624 H 0.13601 0.75442 0.08728 0.0
H1625 H 0.16065 0.77706 0.02099 0.0
H1626 H 0.18394 0.74365 0.84909 0.0
H1627 H 0.17173 0.75967 0.88896 0.0
C1628 C 0.51175 0.94172 0.14757 0.0
C1629 C 0.51884 0.93527 0.11608 0.0
C1630 C 0.50441 0.9348 0.17687 0.0
C1631 C 0.49231 0.90249 0.20621 0.0
H1632 H 0.50154 0.91372 0.32053 0.0
C1633 C 0.48914 0.88807 0.39776 0.0
C1634 C 0.47588 0.88618 0.40052 0.0
C1635 C 0.49473 0.89104 0.35839 0.0
C1636 C 0.49906 0.91032 0.28882 0.0
H1637 H 0.52241 0.91677 0.08674 0.0
H1638 H 0.50978 0.90473 0.13817 0.0
H1639 H 0.50831 0.92619 0.25914 0.0
H1640 H 0.45832 0.88421 0.36404 0.0
H1641 H 0.46802 0.88947 0.29562 0.0
H1642 H 0.48316 0.88648 0.23641 0.0
C1643 C 0.50992 0.91507 0.14055 0.0
C1644 C 0.50268 0.91764 0.25365 0.0
C1645 C 0.51723 0.92198 0.11123 0.0
C1646 C 0.46858 0.88567 0.36278 0.0
C1647 C 0.47415 0.88869 0.32349 0.0
C1648 C 0.48864 0.89514 0.24159 0.0
C1649 C 0.50405 0.92135 0.17505 0.0
C1650 C 0.49929 0.91386 0.212 0.0
C1651 C 0.4871 0.89218 0.32142 0.0
C1652 C 0.49199 0.899 0.28326 0.0
H1653 H 0.51266 0.95197 0.15175 0.0
H1654 H 0.49967 0.9399 0.20259 0.0
H1655 H 0.48962 0.89933 0.17441 0.0
H1656 H 0.49497 0.88825 0.42643 0.0
H1657 H 0.50483 0.89336 0.35743 0.0
C1658 C 0.36223 0.21767 0.61966 0.0
C1659 C 0.36094 0.22485 0.65743 0.0
C1660 C 0.35931 0.22315 0.58013 0.0
C1661 C 0.33697 0.24709 0.54262 0.0
H1662 H 0.35059 0.2394 0.42994 0.0
C1663 C 0.3082 0.26052 0.39575 0.0
C1664 C 0.31508 0.26813 0.36674 0.0
C1665 C 0.3147 0.25307 0.42582 0.0
C1666 C 0.34669 0.24159 0.46124 0.0
H1667 H 0.35737 0.24369 0.68353 0.0
H1668 H 0.35251 0.25342 0.61417 0.0
H1669 H 0.36245 0.23277 0.49393 0.0
H1670 H 0.33406 0.27265 0.34267 0.0
H1671 H 0.34534 0.25984 0.39544 0.0
H1672 H 0.32137 0.25605 0.51053 0.0
C1673 C 0.35539 0.24347 0.61519 0.0
C1674 C 0.35347 0.23782 0.49776 0.0
C1675 C 0.35825 0.23796 0.65475 0.0
C1676 C 0.32849 0.26704 0.36517 0.0
C1677 C 0.33498 0.25963 0.39525 0.0
C1678 C 0.33022 0.25081 0.50632 0.0
C1679 C 0.35514 0.2359 0.57791 0.0
C1680 C 0.34869 0.24061 0.53881 0.0
C1681 C 0.32816 0.25313 0.42728 0.0
C1682 C 0.33498 0.2481 0.46524 0.0
H1683 H 0.36425 0.20751 0.62097 0.0
H1684 H 0.35921 0.21708 0.552 0.0
H1685 H 0.33287 0.24911 0.57378 0.0
H1686 H 0.29786 0.26103 0.39737 0.0
H1687 H 0.3092 0.24787 0.44956 0.0
C1688 C 0.02311 0.89413 0.66049 0.0
C1689 C 0.03476 0.89893 0.67592 0.0
C1690 C 0.01399 0.88933 0.68899 0.0
C1691 C 0.99355 0.89123 0.75644 0.0
H1692 H 0.00205 0.8777 0.86863 0.0
C1693 C 0.95704 0.89352 0.89013 0.0
C1694 C 0.96168 0.90065 0.92503 0.0
C1695 C 0.9655 0.88808 0.86085 0.0
C1696 C -0.00047 0.88133 0.83725 0.0
H1697 H 0.04642 0.90184 0.73247 0.0
H1698 H 0.03041 0.89403 0.78229 0.0
H1699 H 0.01805 0.87724 0.81146 0.0
H1700 H 0.97875 0.9067 0.95894 0.0
H1701 H 0.99358 0.89736 0.9072 0.0
H1702 H 0.97522 0.89572 0.78244 0.0
C1703 C 0.02831 0.89363 0.74835 0.0
C1704 C 0.00866 0.88113 0.80459 0.0
C1705 C 0.03745 0.89825 0.71985 0.0
C1706 C 0.97492 0.90135 0.9321 0.0
C1707 C 0.9834 0.89591 0.90269 0.0
C1708 C 0.9844 0.89128 0.78883 0.0
C1709 C 0.01635 0.88938 0.7334 0.0
C1710 C 0.00595 0.88664 0.76444 0.0
C1711 C 0.97874 0.88968 0.86594 0.0
C1712 C 0.98747 0.88683 0.83001 0.0
H1713 H 0.02101 0.89416 0.62653 0.0
H1714 H 0.00498 0.88588 0.67635 0.0
H1715 H 0.99113 0.8957 0.7262 0.0
H1716 H 0.94687 0.89259 0.8843 0.0
H1717 H 0.96168 0.88318 0.83306 0.0
C1718 C 0.34718 0.71193 0.112 0.0
C1719 C 0.34475 0.71467 0.15522 0.0
C1720 C 0.35517 0.71979 0.08793 0.0
C1721 C 0.36531 0.75317 0.085 0.0
H1722 H 0.37997 0.74139 0.97788 0.0
C1723 C 0.36693 0.7871 0.94651 0.0
C1724 C 0.35817 0.78236 0.9162 0.0
C1725 C 0.37286 0.77883 0.97545 0.0
C1726 C 0.37622 0.74485 0.0081 0.0
H1727 H 0.34943 0.7273 0.20808 0.0
H1728 H 0.36365 0.741 0.16609 0.0
H1729 H 0.37625 0.72615 0.03587 0.0
H1730 H 0.34952 0.76511 0.89052 0.0
H1731 H 0.36005 0.75074 0.94002 0.0
H1732 H 0.36469 0.77172 0.05659 0.0
C1733 C 0.35913 0.73291 0.15052 0.0
C1734 C 0.37396 0.73613 0.04116 0.0
C1735 C 0.35096 0.7251 0.17455 0.0
C1736 C 0.35644 0.76909 0.91256 0.0
C1737 C 0.36248 0.76081 0.94116 0.0
C1738 C 0.36778 0.7619 0.0523 0.0
C1739 C 0.36108 0.73053 0.1066 0.0
C1740 C 0.36757 0.74005 0.07866 0.0
C1741 C 0.37015 0.76569 0.97437 0.0
C1742 C 0.37241 0.75765 0.01253 0.0
H1743 H 0.34257 0.70392 0.09623 0.0
H1744 H 0.35615 0.71777 0.05407 0.0
H1745 H 0.3604 0.7566 0.11331 0.0
H1746 H 0.36851 0.7973 0.94983 0.0
H1747 H 0.37875 0.78281 0.00073 0.0
C1748 C 0.51978 0.07128 0.39688 0.0
C1749 C 0.52585 0.0787 0.42831 0.0
C1750 C 0.51341 0.07718 0.36308 0.0
C1751 C 0.49694 0.10576 0.32924 0.0
H1752 H 0.50284 0.09089 0.2171 0.0
C1753 C 0.47332 0.09952 0.14981 0.0
C1754 C 0.46122 0.09571 0.16472 0.0
C1755 C 0.48277 0.10331 0.1788 0.0
C1756 C 0.5013 0.09549 0.24777 0.0
H1757 H 0.5294 0.09809 0.45053 0.0
H1758 H 0.51796 0.10838 0.39147 0.0
H1759 H 0.51673 0.08515 0.27638 0.0
H1760 H 0.44899 0.09446 0.22076 0.0
H1761 H 0.46538 0.10082 0.27105 0.0
H1762 H 0.48106 0.11558 0.30102 0.0
C1763 C 0.51835 0.09803 0.39285 0.0
C1764 C 0.50915 0.09204 0.28184 0.0
C1765 C 0.52485 0.09213 0.42656 0.0
C1766 C 0.4583 0.09712 0.20835 0.0
C1767 C 0.46769 0.10092 0.23722 0.0
C1768 C 0.48905 0.10921 0.29506 0.0
C1769 C 0.51291 0.09058 0.36027 0.0
C1770 C 0.50657 0.09658 0.32323 0.0
C1771 C 0.48019 0.10344 0.223 0.0
C1772 C 0.49072 0.10352 0.25461 0.0
H1773 H 0.52036 0.06093 0.39739 0.0
H1774 H 0.50898 0.07123 0.3388 0.0
H1775 H 0.49487 0.10948 0.36089 0.0
H1776 H 0.47563 0.09921 0.11606 0.0
H1777 H 0.49227 0.10546 0.16691 0.0
C1778 C 0.14215 0.20784 0.44589 0.0
C1779 C 0.15015 0.21304 0.41411 0.0
C1780 C 0.13563 0.21584 0.47424 0.0
C1781 C 0.12828 0.24961 0.50117 0.0
H1782 H 0.14358 0.2409 0.61046 0.0
C1783 C 0.15007 0.28695 0.60913 0.0
C1784 C 0.1521 0.28458 0.65284 0.0
C1785 C 0.14374 0.278 0.58377 0.0
C1786 C 0.1388 0.24343 0.58089 0.0
H1787 H 0.15701 0.2307 0.38569 0.0
H1788 H 0.14549 0.24461 0.43452 0.0
H1789 H 0.14238 0.22492 0.55475 0.0
H1790 H 0.1482 0.27151 0.70518 0.0
H1791 H 0.13681 0.25594 0.66099 0.0
H1792 H 0.12519 0.26833 0.52684 0.0
C1793 C 0.14408 0.23436 0.43712 0.0
C1794 C 0.13813 0.2342 0.54876 0.0
C1795 C 0.15069 0.22637 0.40898 0.0
C1796 C 0.14697 0.27345 0.67134 0.0
C1797 C 0.14044 0.26456 0.64602 0.0
C1798 C 0.12875 0.2588 0.53362 0.0
C1799 C 0.13699 0.22916 0.47122 0.0
C1800 C 0.1336 0.23745 0.50784 0.0
C1801 C 0.13912 0.26653 0.60162 0.0
C1802 C 0.13481 0.25605 0.57284 0.0
H1803 H 0.1415 0.19758 0.45038 0.0
H1804 H 0.1302 0.21161 0.50023 0.0
H1805 H 0.12458 0.25227 0.47 0.0
H1806 H 0.15386 0.29547 0.59398 0.0
H1807 H 0.14316 0.27981 0.54967 0.0
C1808 C 0.96657 0.94602 0.18487 0.0
C1809 C 0.96148 0.93439 0.17031 0.0
C1810 C 0.97487 0.94629 0.22012 0.0
C1811 C 0.99553 0.92479 0.28708 0.0
H1812 H 0.99717 0.95463 0.36071 0.0
C1813 C 0.02603 0.92683 0.44292 0.0
C1814 C 0.03451 0.93728 0.44496 0.0
C1815 C 0.01641 0.92639 0.4116 0.0
C1816 C 0.99681 0.94624 0.34037 0.0
H1817 H 0.96071 0.91399 0.18136 0.0
H1818 H 0.97466 0.91442 0.24407 0.0
H1819 H 0.98156 0.95392 0.30267 0.0
H1820 H 0.03921 0.95565 0.41664 0.0
H1821 H 0.02222 0.95501 0.36295 0.0
H1822 H 0.01061 0.91705 0.32586 0.0
C1823 C 0.9727 0.92334 0.22771 0.0
C1824 C 0.98792 0.94584 0.30679 0.0
C1825 C 0.9646 0.92307 0.19199 0.0
C1826 C 0.03288 0.94744 0.41589 0.0
C1827 C 0.02311 0.94711 0.38523 0.0
C1828 C 0.00424 0.9251 0.32117 0.0
C1829 C 0.9781 0.93494 0.24212 0.0
C1830 C 0.98723 0.93517 0.27923 0.0
C1831 C 0.01489 0.93651 0.38234 0.0
C1832 C 0.00507 0.93588 0.34788 0.0
H1833 H 0.96436 0.95486 0.16832 0.0
H1834 H 0.97895 0.9554 0.2294 0.0
H1835 H 0.99557 0.9165 0.26632 0.0
H1836 H 0.02705 0.91883 0.46473 0.0
H1837 H 0.01016 0.91812 0.4102 0.0
C1838 C 0.81967 0.2104 0.94449 0.0
C1839 C 0.81615 0.21509 0.90399 0.0
C1840 C 0.81925 0.21837 0.98057 0.0
C1841 C 0.80388 0.24759 0.02176 0.0
H1842 H 0.83246 0.24908 0.10086 0.0
C1843 C 0.80794 0.28793 0.14556 0.0
C1844 C 0.81292 0.28532 0.18652 0.0
C1845 C 0.80833 0.27875 0.11315 0.0
C1846 C 0.8243 0.24865 0.07953 0.0
H1847 H 0.80932 0.23167 0.86935 0.0
H1848 H 0.80849 0.2456 0.93232 0.0
H1849 H 0.83305 0.23417 0.04049 0.0
H1850 H 0.82232 0.27089 0.22523 0.0
H1851 H 0.8228 0.25467 0.16855 0.0
H1852 H 0.79502 0.2619 0.06062 0.0
C1853 C 0.81158 0.23578 0.9363 0.0
C1854 C 0.82467 0.24012 0.04484 0.0
C1855 C 0.81213 0.22785 0.90022 0.0
C1856 C 0.81841 0.27323 0.19408 0.0
C1857 C 0.81873 0.26396 0.16149 0.0
C1858 C 0.80346 0.25601 0.05654 0.0
C1859 C 0.81515 0.23114 0.97692 0.0
C1860 C 0.81454 0.23965 0.01517 0.0
C1861 C 0.81361 0.26658 0.12062 0.0
C1862 C 0.81376 0.25684 0.08552 0.0
H1863 H 0.82286 0.2006 0.94815 0.0
H1864 H 0.82198 0.21449 0.01143 0.0
H1865 H 0.79581 0.24728 -1e-05 0.0
H1866 H 0.80373 0.29715 0.13824 0.0
H1867 H 0.80459 0.28129 0.08194 0.0
C1868 C 0.53951 0.06363 0.7047 0.0
C1869 C 0.53574 0.06021 0.66306 0.0
C1870 C 0.53059 0.06368 0.7383 0.0
C1871 C 0.49547 0.06514 0.75705 0.0
H1872 H 0.50421 0.05454 0.87244 0.0
C1873 C 0.45702 0.05635 0.88578 0.0
C1874 C 0.4593 0.06087 0.92756 0.0
C1875 C 0.46667 0.05662 0.85481 0.0
C1876 C 0.50167 0.05767 0.84048 0.0
H1877 H 0.51995 0.05356 0.62418 0.0
H1878 H 0.50444 0.0534 0.6826 0.0
H1879 H 0.52049 0.0539 0.81617 0.0
H1880 H 0.47364 0.06917 0.96943 0.0
H1881 H 0.49057 0.0696 0.9151 0.0
H1882 H 0.47664 0.06875 0.78113 0.0
C1883 C 0.51415 0.05641 0.68937 0.0
C1884 C 0.511 0.05731 0.80818 0.0
C1885 C 0.52304 0.05643 0.65589 0.0
C1886 C 0.47154 0.06563 0.93758 0.0
C1887 C 0.48126 0.06581 0.90654 0.0
C1888 C 0.48616 0.06544 0.7892 0.0
C1889 C 0.51773 0.06025 0.73092 0.0
C1890 C 0.50798 0.06092 0.7659 0.0
C1891 C 0.47891 0.06135 0.86471 0.0
C1892 C 0.48909 0.0616 0.83122 0.0
H1893 H 0.54924 0.06666 0.71098 0.0
H1894 H 0.53369 0.06678 0.76972 0.0
H1895 H 0.49285 0.06831 0.72521 0.0
H1896 H 0.44773 0.0526 0.8768 0.0
H1897 H 0.46458 0.05295 0.82312 0.0
C1898 C 0.68865 0.77893 0.41977 0.0
C1899 C 0.6821 0.79064 0.42006 0.0
C1900 C 0.6893 0.77144 0.45683 0.0
C1901 C 0.67253 0.7644 0.55701 0.0
H1902 H 0.70462 0.74844 0.58892 0.0
C1903 C 0.67668 0.72937 0.70189 0.0
C1904 C 0.68429 0.71845 0.69487 0.0
C1905 C 0.67673 0.73953 0.67236 0.0
C1906 C 0.69554 0.75272 0.58033 0.0
H1907 H 0.67103 0.80375 0.45884 0.0
H1908 H 0.67201 0.79053 0.52393 0.0
H1909 H 0.70407 0.7635 0.5294 0.0
H1910 H 0.69797 0.7098 0.65116 0.0
H1911 H 0.69785 0.72716 0.60007 0.0
H1912 H 0.66389 0.75326 0.60693 0.0
C1913 C 0.6767 0.78718 0.49508 0.0
C1914 C 0.69525 0.76139 0.54625 0.0
C1915 C 0.6762 0.79477 0.45805 0.0
C1916 C 0.69202 0.71804 0.65797 0.0
C1917 C 0.69204 0.7281 0.62862 0.0
C1918 C 0.67279 0.7556 0.59095 0.0
C1919 C 0.68328 0.77543 0.49486 0.0
C1920 C 0.68371 0.76715 0.53365 0.0
C1921 C 0.6844 0.73899 0.63522 0.0
C1922 C 0.68426 0.74943 0.60246 0.0
H1923 H 0.69324 0.77556 0.39077 0.0
H1924 H 0.69432 0.76238 0.45547 0.0
H1925 H 0.66347 0.76865 0.54791 0.0
H1926 H 0.67062 0.73003 0.72996 0.0
H1927 H 0.6708 0.74781 0.67871 0.0
C1928 C 0.02097 0.05855 0.15984 0.0
C1929 C 0.02162 0.06903 0.13162 0.0
C1930 C 0.01058 0.05703 0.18748 0.0
C1931 C 0.98523 0.07511 0.24232 0.0
H1932 H 0.97269 0.04111 0.26925 0.0
C1933 C 0.94687 0.06613 0.37381 0.0
C1934 C 0.95 0.05629 0.40253 0.0
C1935 C 0.95377 0.0676 0.33556 0.0
C1936 C 0.97609 0.05067 0.26216 0.0
H1937 H 0.01164 0.08605 0.11002 0.0
H1938 H 0.9934 0.08336 0.15856 0.0
H1939 H 0.98807 0.04396 0.21129 0.0
H1940 H 0.9625 0.04018 0.41408 0.0
H1941 H 0.97448 0.0426 0.34739 0.0
H1942 H 0.97343 0.08176 0.29395 0.0
C1943 C 0.00104 0.07637 0.15929 0.0
C1944 C 0.98492 0.05231 0.22895 0.0
C1945 C 0.01146 0.07787 0.13133 0.0
C1946 C 0.95986 0.04775 0.39206 0.0
C1947 C 0.96667 0.04913 0.35383 0.0
C1948 C 0.97635 0.07347 0.27556 0.0
C1949 C 0.00051 0.06595 0.18785 0.0
C1950 C 0.98987 0.0645 0.21933 0.0
C1951 C 0.96385 0.05918 0.32535 0.0
C1952 C 0.97193 0.06118 0.28658 0.0
H1953 H 0.02859 0.05154 0.1611 0.0
H1954 H 0.01063 0.04902 0.20947 0.0
H1955 H 0.9889 0.08462 0.23603 0.0
H1956 H 0.9394 0.07292 0.38162 0.0
H1957 H 0.95132 0.07539 0.31422 0.0
C1958 C 0.68878 0.27061 0.89512 0.0
C1959 C 0.67829 0.26996 0.86692 0.0
C1960 C 0.69036 0.26153 0.92749 0.0
C1961 C 0.68165 0.22926 0.9643 0.0
H1962 H 0.68889 0.24344 0.07651 0.0
C1963 C 0.68249 0.1986 0.12058 0.0
C1964 C 0.69125 0.20219 0.15245 0.0
C1965 C 0.68105 0.20608 0.08358 0.0
C1966 C 0.68709 0.23925 0.04536 0.0
H1967 H 0.66154 0.25881 0.84971 0.0
H1968 H 0.6644 0.24282 0.90646 0.0
H1969 H 0.68614 0.25768 0.01574 0.0
H1970 H 0.70573 0.21595 0.17035 0.0
H1971 H 0.70363 0.22877 0.10543 0.0
H1972 H 0.68279 0.21077 0.99399 0.0
C1973 C 0.67135 0.25046 0.90331 0.0
C1974 C 0.68545 0.24745 0.01049 0.0
C1975 C 0.6697 0.25963 0.87091 0.0
C1976 C 0.69888 0.21305 0.14617 0.0
C1977 C 0.69755 0.22045 0.10915 0.0
C1978 C 0.68341 0.22099 0.99927 0.0
C1979 C 0.68155 0.25149 0.93253 0.0
C1980 C 0.68282 0.24257 0.96948 0.0
C1981 C 0.68841 0.21726 0.07776 0.0
C1982 C 0.68628 0.22589 0.04024 0.0
H1983 H 0.69567 0.27833 0.89295 0.0
H1984 H 0.69844 0.26247 0.949 0.0
H1985 H 0.67968 0.22522 0.93303 0.0
H1986 H 0.67644 0.19028 0.12505 0.0
H1987 H 0.67385 0.20336 0.06036 0.0
C1988 C 0.53739 0.95376 0.88336 0.0
C1989 C 0.5481 0.94605 0.89153 0.0
C1990 C 0.53059 0.95251 0.84503 0.0
C1991 C 0.52299 0.92887 0.7621 0.0
H1992 H 0.50833 0.95813 0.7036 0.0
C1993 C 0.48848 0.92306 0.61729 0.0
C1994 C 0.47763 0.93104 0.61767 0.0
C1995 C 0.49863 0.92521 0.64585 0.0
C1996 C 0.51227 0.94984 0.71968 0.0
H1997 H 0.56031 0.93116 0.86614 0.0
H1998 H 0.54839 0.92891 0.79868 0.0
H1999 H 0.52341 0.96149 0.76212 0.0
H2000 H 0.46915 0.94771 0.64802 0.0
H2001 H 0.4866 0.95129 0.6977 0.0
H2002 H 0.51153 0.91722 0.72066 0.0
C2003 C 0.54525 0.93593 0.82194 0.0
C2004 C 0.52095 0.95178 0.75317 0.0
C2005 C 0.55213 0.93729 0.86025 0.0
C2006 C 0.47733 0.94135 0.64664 0.0
C2007 C 0.48743 0.94349 0.67506 0.0
C2008 C 0.51424 0.92693 0.72869 0.0
C2009 C 0.53428 0.94342 0.81415 0.0
C2010 C 0.52622 0.94133 0.77538 0.0
C2011 C 0.49819 0.9354 0.67535 0.0
C2012 C 0.50855 0.9374 0.70764 0.0
H2013 H 0.53406 0.9605 0.90726 0.0
H2014 H 0.52211 0.95831 0.84038 0.0
H2015 H 0.52677 0.92061 0.77879 0.0
H2016 H 0.48907 0.91505 0.59536 0.0
H2017 H 0.50682 0.91887 0.64484 0.0
C2018 C 0.81142 0.73233 0.39847 0.0
C2019 C 0.81964 0.73336 0.36287 0.0
C2020 C 0.81127 0.74172 0.43018 0.0
C2021 C 0.81604 0.77463 0.45725 0.0
H2022 H 0.82398 0.76185 0.57092 0.0
C2023 C 0.80257 0.79972 0.61822 0.0
C2024 C 0.81166 0.79919 0.65132 0.0
C2025 C 0.80487 0.79353 0.5791 0.0
C2026 C 0.82187 0.76562 0.53936 0.0
H2027 H 0.83376 0.74548 0.33199 0.0
H2028 H 0.83321 0.7622 0.38759 0.0
H2029 H 0.82528 0.7475 0.5094 0.0
H2030 H 0.83071 0.79282 0.66827 0.0
H2031 H 0.83463 0.78177 0.60049 0.0
H2032 H 0.81211 0.79266 0.48776 0.0
C2033 C 0.82702 0.75394 0.39067 0.0
C2034 C 0.82257 0.75739 0.50423 0.0
C2035 C 0.82734 0.74437 0.359 0.0
C2036 C 0.8234 0.79308 0.64366 0.0
C2037 C 0.82566 0.7868 0.60486 0.0
C2038 C 0.81512 0.78286 0.49269 0.0
C2039 C 0.81917 0.75252 0.42694 0.0
C2040 C 0.81955 0.76176 0.46294 0.0
C2041 C 0.81629 0.78666 0.57256 0.0
C2042 C 0.81796 0.77839 0.53417 0.0
H2043 H 0.80531 0.72404 0.40271 0.0
H2044 H 0.80507 0.74046 0.45771 0.0
H2045 H 0.81359 0.77818 0.42569 0.0
H2046 H 0.79345 0.80441 0.62329 0.0
H2047 H 0.79746 0.79355 0.55486 0.0
C2048 C 0.52929 0.62727 0.37653 0.0
C2049 C 0.5249 0.61829 0.40675 0.0
C2050 C 0.52096 0.63221 0.3457 0.0
C2051 C 0.48739 0.63069 0.30577 0.0
H2052 H 0.50327 0.61406 0.20827 0.0
C2053 C 0.46244 0.59214 0.21421 0.0
C2054 C 0.46525 0.5894 0.17123 0.0
C2055 C 0.46852 0.60219 0.23515 0.0
C2056 C 0.49866 0.61913 0.23428 0.0
H2057 H 0.50805 0.60845 0.43068 0.0
H2058 H 0.49362 0.61726 0.37825 0.0
H2059 H 0.51655 0.62252 0.26499 0.0
H2060 H 0.47638 0.5953 0.11594 0.0
H2061 H 0.48719 0.6129 0.15296 0.0
H2062 H 0.46942 0.62639 0.27628 0.0
C2063 C 0.50343 0.62062 0.37837 0.0
C2064 C 0.50631 0.62405 0.26695 0.0
C2065 C 0.51176 0.61555 0.40879 0.0
C2066 C 0.47414 0.59709 0.1493 0.0
C2067 C 0.48025 0.60722 0.17036 0.0
C2068 C 0.47973 0.62589 0.27284 0.0
C2069 C 0.50813 0.62828 0.34481 0.0
C2070 C 0.50069 0.62888 0.30455 0.0
C2071 C 0.47756 0.60981 0.21366 0.0
C2072 C 0.48528 0.6191 0.23863 0.0
H2073 H 0.53936 0.62963 0.37444 0.0
H2074 H 0.52481 0.63815 0.32031 0.0
H2075 H 0.48284 0.63458 0.33411 0.0
H2076 H 0.45561 0.58643 0.23201 0.0
H2077 H 0.46647 0.60364 0.26882 0.0
C2078 C 0.62836 0.27736 0.62135 0.0
C2079 C 0.62898 0.27086 0.66065 0.0
C2080 C 0.63046 0.27078 0.58317 0.0
C2081 C 0.65081 0.24433 0.55469 0.0
H2082 H 0.64141 0.25312 0.43815 0.0
C2083 C 0.68498 0.23334 0.41865 0.0
C2084 C 0.67959 0.22627 0.38498 0.0
C2085 C 0.67709 0.23977 0.44757 0.0
C2086 C 0.64409 0.25056 0.47056 0.0
H2087 H 0.63009 0.25229 0.69097 0.0
H2088 H 0.63347 0.24064 0.624 0.0
H2089 H 0.62793 0.26026 0.49785 0.0
H2090 H 0.66185 0.22161 0.35217 0.0
H2091 H 0.64812 0.23276 0.40289 0.0
H2092 H 0.66694 0.23473 0.52789 0.0
C2093 C 0.6318 0.25087 0.62271 0.0
C2094 C 0.63638 0.25461 0.50462 0.0
C2095 C 0.6298 0.25748 0.66095 0.0
C2096 C 0.66628 0.22683 0.37823 0.0
C2097 C 0.6584 0.23326 0.40715 0.0
C2098 C 0.65849 0.24035 0.52084 0.0
C2099 C 0.63311 0.2576 0.58391 0.0
C2100 C 0.63978 0.25166 0.54709 0.0
C2101 C 0.6637 0.23925 0.44321 0.0
C2102 C 0.65535 0.24361 0.47853 0.0
H2103 H 0.62771 0.28771 0.62034 0.0
H2104 H 0.63138 0.27625 0.55386 0.0
H2105 H 0.65388 0.24211 0.58699 0.0
H2106 H 0.69521 0.2332 0.42443 0.0
H2107 H 0.68143 0.24461 0.47463 0.0
C2108 C 0.96459 0.38315 0.86514 0.0
C2109 C 0.96788 0.38305 0.90867 0.0
C2110 C 0.974 0.38151 0.83401 0.0
C2111 C 0.99559 0.37839 0.77092 0.0
H2112 H 0.02377 0.40022 0.80528 0.0
C2113 C 0.02287 0.41232 0.65742 0.0
C2114 C 0.03589 0.41453 0.66554 0.0
C2115 C 0.01584 0.40418 0.68414 0.0
C2116 C 0.01616 0.39386 0.79517 0.0
H2117 H 0.98299 0.37935 0.95437 0.0
H2118 H -0.00053 0.37603 0.89994 0.0
H2119 H 0.00923 0.39223 0.85891 0.0
H2120 H 0.05202 0.40925 0.70576 0.0
H2121 H 0.03982 0.39506 0.75181 0.0
H2122 H 0.00224 0.3809 0.70642 0.0
C2123 C 0.98975 0.37791 0.88969 0.0
C2124 C 0.00781 0.38918 0.82609 0.0
C2125 C 0.98036 0.37979 0.92084 0.0
C2126 C 0.04191 0.40797 0.69926 0.0
C2127 C 0.03495 0.39979 0.72558 0.0
C2128 C 0.00394 0.38318 0.73978 0.0
C2129 C 0.98683 0.37956 0.84601 0.0
C2130 C 0.99716 0.38176 0.81427 0.0
C2131 C 0.02178 0.39809 0.71907 0.0
C2132 C 0.01406 0.39128 0.7516 0.0
H2133 H 0.95497 0.38561 0.85507 0.0
H2134 H 0.97136 0.38291 0.8008 0.0
H2135 H 0.98759 0.37252 0.76084 0.0
H2136 H 0.01804 0.41717 0.63137 0.0
H2137 H 0.00566 0.40313 0.67864 0.0
C2138 C 0.8654 0.73335 0.12424 0.0
C2139 C 0.8648 0.72046 0.13642 0.0
C2140 C 0.8647 0.73667 0.08094 0.0
C2141 C 0.84585 0.72743 0.99603 0.0
H2142 H 0.86529 0.75079 0.92494 0.0
C2143 C 0.81999 0.75546 0.86594 0.0
C2144 C 0.82322 0.76849 0.86513 0.0
C2145 C 0.8281 0.74663 0.8859 0.0
C2146 C 0.8597 0.74429 0.94443 0.0
H2147 H 0.86396 0.70087 0.11339 0.0
H2148 H 0.86232 0.70675 0.03793 0.0
H2149 H 0.87527 0.74131 0.98824 0.0
H2150 H 0.83776 0.78241 0.88241 0.0
H2151 H 0.85131 0.76742 0.91911 0.0
H2152 H 0.82985 0.73136 0.95616 0.0
C2153 C 0.8636 0.71422 0.06163 0.0
C2154 C 0.86549 0.73879 0.98029 0.0
C2155 C 0.86454 0.7109 0.10473 0.0
C2156 C 0.83496 0.77243 0.88259 0.0
C2157 C 0.84288 0.76372 0.90328 0.0
C2158 C 0.83993 0.7332 0.96106 0.0
C2159 C 0.86319 0.72712 0.04966 0.0
C2160 C 0.85844 0.73067 0.00701 0.0
C2161 C 0.83941 0.75074 0.90634 0.0
C2162 C 0.8466 0.74218 0.9359 0.0
H2163 H 0.8656 0.74084 0.14823 0.0
H2164 H 0.86422 0.74669 0.07223 0.0
H2165 H 0.84023 0.72124 0.01659 0.0
H2166 H 0.81109 0.75214 0.85199 0.0
H2167 H 0.82525 0.73667 0.88659 0.0
C2168 C 0.53602 0.37126 0.18619 0.0
C2169 C 0.53119 0.38036 0.15721 0.0
C2170 C 0.5279 0.36527 0.2155 0.0
C2171 C 0.49417 0.36308 0.25272 0.0
H2172 H 0.50776 0.37901 0.35527 0.0
C2173 C 0.46417 0.39526 0.355 0.0
C2174 C 0.46707 0.3977 0.39811 0.0
C2175 C 0.4714 0.38659 0.33145 0.0
C2176 C 0.50382 0.37408 0.32776 0.0
H2177 H 0.51386 0.38939 0.13372 0.0
H2178 H 0.49975 0.37877 0.18369 0.0
H2179 H 0.52207 0.37351 0.29736 0.0
H2180 H 0.47942 0.3925 0.45114 0.0
H2181 H 0.49212 0.37718 0.40981 0.0
H2182 H 0.47577 0.36436 0.28234 0.0
C2183 C 0.50978 0.37613 0.18367 0.0
C2184 C 0.51208 0.3709 0.29438 0.0
C2185 C 0.51791 0.38224 0.15474 0.0
C2186 C 0.4771 0.39094 0.41771 0.0
C2187 C 0.48432 0.38213 0.39411 0.0
C2188 C 0.48592 0.36607 0.28645 0.0
C2189 C 0.51481 0.36826 0.21606 0.0
C2190 C 0.50718 0.36629 0.25538 0.0
C2191 C 0.48168 0.38001 0.35045 0.0
C2192 C 0.49054 0.37257 0.32283 0.0
H2193 H 0.54622 0.36955 0.18856 0.0
H2194 H 0.53199 0.3592 0.24006 0.0
H2195 H 0.49021 0.35936 0.22317 0.0
H2196 H 0.45647 0.40029 0.33895 0.0
H2197 H 0.46925 0.38552 0.2977 0.0
C2198 C 0.8534 0.22685 0.67644 0.0
C2199 C 0.84863 0.2156 0.65772 0.0
C2200 C 0.86007 0.23577 0.6516 0.0
C2201 C 0.87294 0.24127 0.54041 0.0
H2202 H 0.85902 0.27518 0.55886 0.0
C2203 C 0.8514 0.27312 0.41372 0.0
C2204 C 0.85209 0.28648 0.41776 0.0
C2205 C 0.85794 0.26525 0.44239 0.0
C2206 C 0.86335 0.26588 0.55369 0.0
H2207 H 0.84761 0.20454 0.599 0.0
H2208 H 0.85854 0.22023 0.55548 0.0
H2209 H 0.85732 0.25936 0.61501 0.0
H2210 H 0.86092 0.30208 0.45286 0.0
H2211 H 0.872 0.28826 0.50391 0.0
H2212 H 0.87765 0.2476 0.47698 0.0
C2213 C 0.85759 0.22212 0.58943 0.0
C2214 C 0.86239 0.25675 0.58606 0.0
C2215 C 0.85112 0.21316 0.61433 0.0
C2216 C 0.86016 0.29179 0.44911 0.0
C2217 C 0.86657 0.28392 0.47815 0.0
C2218 C 0.87367 0.25035 0.50769 0.0
C2219 C 0.8619 0.23369 0.60744 0.0
C2220 C 0.86647 0.24411 0.57886 0.0
C2221 C 0.86506 0.2706 0.4761 0.0
C2222 C 0.86826 0.26252 0.51338 0.0
H2223 H 0.8518 0.22886 0.71007 0.0
H2224 H 0.86344 0.24446 0.66673 0.0
H2225 H 0.87659 0.23174 0.53434 0.0
H2226 H 0.84498 0.26867 0.39097 0.0
H2227 H 0.85641 0.255 0.44061 0.0
C2228 C 0.02398 0.59191 0.92609 0.0
C2229 C 0.02402 0.57844 0.92566 0.0
C2230 C 0.01819 0.59875 0.89298 0.0
C2231 C 0.00886 0.59482 0.78052 0.0
H2232 H 0.98505 0.62257 0.80149 0.0
C2233 C 0.96029 0.60981 0.70407 0.0
C2234 C 0.96337 0.60783 0.66082 0.0
C2235 C 0.96992 0.61179 0.73409 0.0
C2236 C 0.99184 0.61498 0.79508 0.0
H2237 H 0.01742 0.56158 0.89162 0.0
H2238 H 0.00711 0.57353 0.83426 0.0
H2239 H 0.99719 0.61352 0.86113 0.0
H2240 H 0.97862 0.60872 0.6138 0.0
H2241 H 0.99559 0.61194 0.66655 0.0
H2242 H 0.0029 0.5955 0.71538 0.0
C2243 C 0.01185 0.57878 0.85964 0.0
C2244 C 0.99879 0.60983 0.82915 0.0
C2245 C 0.01761 0.57194 0.89274 0.0
C2246 C 0.97607 0.60953 0.64727 0.0
C2247 C 0.98575 0.61153 0.67738 0.0
C2248 C 0.00192 0.59993 0.74658 0.0
C2249 C 0.01238 0.59222 0.8589 0.0
C2250 C 0.00686 0.59928 0.82238 0.0
C2251 C 0.98281 0.61191 0.72133 0.0
C2252 C 0.99284 0.60961 0.75389 0.0
H2253 H 0.02881 0.59719 0.9512 0.0
H2254 H 0.01865 0.6091 0.89327 0.0
H2255 H 0.01531 0.58691 0.77434 0.0
H2256 H 0.95054 0.60877 0.71541 0.0
H2257 H 0.96728 0.612 0.76764 0.0
C2258 C 0.63464 0.71867 0.91722 0.0
C2259 C 0.64349 0.70901 0.92636 0.0
C2260 C 0.6301 0.72654 0.95007 0.0
C2261 C 0.63343 0.73225 0.06933 0.0
H2262 H 0.63231 0.7676 0.03264 0.0
C2263 C 0.65612 0.78285 0.12145 0.0
C2264 C 0.65493 0.78237 0.1661 0.0
C2265 C 0.6497 0.77409 0.09584 0.0
C2266 C 0.63266 0.75777 0.04352 0.0
H2267 H 0.65433 0.69954 0.97605 0.0
H2268 H 0.64739 0.71374 0.03258 0.0
H2269 H 0.63016 0.75087 0.98015 0.0
H2270 H 0.64585 0.77263 0.2193 0.0
H2271 H 0.6342 0.75738 0.17421 0.0
H2272 H 0.63763 0.73927 0.13195 0.0
C2273 C 0.64328 0.71506 0.0011 0.0
C2274 C 0.63116 0.74808 0.01334 0.0
C2275 C 0.64746 0.70698 0.96857 0.0
C2276 C 0.64701 0.77308 0.18484 0.0
C2277 C 0.64034 0.76438 0.15901 0.0
C2278 C 0.63543 0.74196 0.09929 0.0
C2279 C 0.63474 0.72517 0.99226 0.0
C2280 C 0.63236 0.73516 0.0254 0.0
C2281 C 0.64168 0.76475 0.11412 0.0
C2282 C 0.6359 0.75481 0.0861 0.0
H2283 H 0.63135 0.72019 0.8847 0.0
H2284 H 0.62327 0.73395 0.94199 0.0
H2285 H 0.63371 0.72243 0.08033 0.0
H2286 H 0.66227 0.78985 0.10616 0.0
H2287 H 0.65141 0.77444 0.06165 0.0
C2288 C 0.52117 0.42 0.94368 0.0
C2289 C 0.53285 0.42663 0.94039 0.0
C2290 C 0.51232 0.42021 0.90983 0.0
C2291 C 0.50423 0.43834 0.81015 0.0
H2292 H 0.48514 0.40776 0.78062 0.0
C2293 C 0.47784 0.43278 0.64861 0.0
C2294 C 0.46551 0.42747 0.64947 0.0
C2295 C 0.48547 0.43281 0.68547 0.0
C2296 C 0.49031 0.41642 0.78874 0.0
H2297 H 0.54438 0.43857 0.89845 0.0
H2298 H 0.52923 0.43866 0.83971 0.0
H2299 H 0.49944 0.40754 0.84252 0.0
H2300 H 0.4515 0.41785 0.6891 0.0
H2301 H 0.46485 0.41783 0.75377 0.0
H2302 H 0.49532 0.4471 0.75578 0.0
C2303 C 0.52669 0.43355 0.86866 0.0
C2304 C 0.49849 0.41631 0.82434 0.0
C2305 C 0.53546 0.43341 0.90242 0.0
C2306 C 0.46096 0.42208 0.68778 0.0
C2307 C 0.46863 0.42199 0.72462 0.0
C2308 C 0.49615 0.4384 0.77442 0.0
C2309 C 0.51496 0.427 0.87183 0.0
C2310 C 0.50568 0.42724 0.83531 0.0
C2311 C 0.48097 0.42741 0.72394 0.0
C2312 C 0.48917 0.42742 0.76303 0.0
H2313 H 0.51882 0.4147 0.97245 0.0
H2314 H 0.50334 0.41516 0.9137 0.0
H2315 H 0.50934 0.44704 0.81805 0.0
H2316 H 0.48155 0.43698 0.61941 0.0
H2317 H 0.49497 0.43693 0.6837 0.0
C2318 C 0.32134 0.77259 0.69649 0.0
C2319 C 0.31617 0.78489 0.69032 0.0
C2320 C 0.32148 0.76367 0.66282 0.0
C2321 C 0.3208 0.7619 0.54489 0.0
H2322 H 0.30905 0.72703 0.56061 0.0
C2323 C 0.31089 0.72914 0.40034 0.0
C2324 C 0.31398 0.71612 0.40368 0.0
C2325 C 0.31145 0.73711 0.4363 0.0
C2326 C 0.31254 0.73667 0.55572 0.0
H2327 H 0.30705 0.79737 0.64376 0.0
H2328 H 0.30741 0.78196 0.5856 0.0
H2329 H 0.3099 0.74155 0.62198 0.0
H2330 H 0.32006 0.70116 0.44709 0.0
H2331 H 0.32127 0.71508 0.50995 0.0
H2332 H 0.32359 0.75713 0.47899 0.0
C2333 C 0.3114 0.7792 0.61628 0.0
C2334 C 0.31301 0.74499 0.59095 0.0
C2335 C 0.31113 0.78802 0.64983 0.0
C2336 C 0.31753 0.71117 0.44377 0.0
C2337 C 0.31818 0.71915 0.47977 0.0
C2338 C 0.32043 0.75359 0.50984 0.0
C2339 C 0.31662 0.76694 0.62222 0.0
C2340 C 0.31696 0.75776 0.58576 0.0
C2341 C 0.31522 0.73226 0.4765 0.0
C2342 C 0.31612 0.74091 0.51455 0.0
H2343 H 0.32529 0.76985 0.72723 0.0
H2344 H 0.3256 0.7543 0.6683 0.0
H2345 H 0.3241 0.77162 0.53999 0.0
H2346 H 0.30795 0.73315 0.36988 0.0
H2347 H 0.30881 0.74707 0.43259 0.0
C2348 C 0.9554 0.56082 0.39594 0.0
C2349 C 0.95804 0.56681 0.43532 0.0
C2350 C 0.96485 0.55972 0.36442 0.0
C2351 C 0.99638 0.57298 0.33053 0.0
H2352 H 0.99685 0.54278 0.2583 0.0
C2353 C 0.03646 0.56327 0.20558 0.0
C2354 C 0.03226 0.55948 0.16477 0.0
C2355 C 0.02788 0.56377 0.24007 0.0
C2356 C 0.99681 0.5513 0.27804 0.0
H2357 H 0.97282 0.57628 0.47239 0.0
H2358 H 0.98942 0.57411 0.41776 0.0
H2359 H 0.98121 0.5444 0.31594 0.0
H2360 H 0.01597 0.55288 0.12814 0.0
H2361 H 0.00097 0.55363 0.18834 0.0
H2362 H 0.01212 0.57976 0.29266 0.0
C2363 C 0.97993 0.57047 0.41087 0.0
C2364 C 0.98779 0.55228 0.31107 0.0
C2365 C 0.97042 0.57167 0.44236 0.0
C2366 C 0.01942 0.5559 0.15926 0.0
C2367 C 0.01087 0.55626 0.19378 0.0
C2368 C 0.00548 0.57194 0.29771 0.0
C2369 C 0.97728 0.56447 0.37142 0.0
C2370 C 0.98733 0.5632 0.3375 0.0
C2371 C 0.01496 0.56032 0.23453 0.0
C2372 C 0.00571 0.56115 0.27078 0.0
H2373 H 0.94596 0.55702 0.38918 0.0
H2374 H 0.96231 0.55528 0.33425 0.0
H2375 H 0.99625 0.58161 0.3497 0.0
H2376 H 0.04631 0.56614 0.2106 0.0
H2377 H 0.03136 0.56683 0.27111 0.0
C2378 C 0.19036 0.20939 0.13649 0.0
C2379 C 0.18654 0.21216 0.17872 0.0
C2380 C 0.1893 0.21856 0.1042 0.0
C2381 C 0.18736 0.2531 0.0839 0.0
H2382 H 0.17431 0.24222 0.97344 0.0
C2383 C 0.17952 0.28843 0.94235 0.0
C2384 C 0.18247 0.28394 0.90111 0.0
C2385 C 0.17959 0.28008 0.97746 0.0
C2386 C 0.17812 0.24541 0.00388 0.0
H2387 H 0.1787 0.2269 0.22004 0.0
H2388 H 0.17694 0.24304 0.16329 0.0
H2389 H 0.17508 0.22706 0.03255 0.0
H2390 H 0.18821 0.26736 0.86432 0.0
H2391 H 0.18853 0.2528 0.9254 0.0
H2392 H 0.19063 0.27141 0.05494 0.0
C2393 C 0.18077 0.2337 0.15545 0.0
C2394 C 0.17852 0.23671 0.03785 0.0
C2395 C 0.18173 0.22444 0.18788 0.0
C2396 C 0.18569 0.27102 0.89569 0.0
C2397 C 0.18582 0.26268 0.93072 0.0
C2398 C 0.18703 0.26182 0.04976 0.0
C2399 C 0.18445 0.23081 0.11316 0.0
C2400 C 0.18328 0.2404 0.07811 0.0
C2401 C 0.18267 0.26706 0.97207 0.0
C2402 C 0.18255 0.25803 0.00913 0.0
H2403 H 0.19412 0.20006 0.1281 0.0
H2404 H 0.1924 0.21608 0.07214 0.0
H2405 H 0.19117 0.2562 0.11445 0.0
H2406 H 0.1769 0.29836 0.94729 0.0
H2407 H 0.17698 0.28378 0.00867 0.0
C2408 C 0.46669 0.57876 0.91084 0.0
C2409 C 0.45987 0.56732 0.91687 0.0
C2410 C 0.47397 0.58071 0.87378 0.0
C2411 C 0.47901 0.5696 0.76231 0.0
H2412 H 0.51366 0.58181 0.78008 0.0
C2413 C 0.51507 0.58037 0.62327 0.0
C2414 C 0.52732 0.57505 0.62902 0.0
C2415 C 0.50611 0.58026 0.65684 0.0
C2416 C 0.504 0.57842 0.77455 0.0
H2417 H 0.45501 0.54908 0.88814 0.0
H2418 H 0.4676 0.55253 0.82302 0.0
H2419 H 0.49912 0.58005 0.84092 0.0
H2420 H 0.53973 0.56552 0.67486 0.0
H2421 H 0.52427 0.5655 0.73295 0.0
H2422 H 0.48404 0.5678 0.69584 0.0
C2423 C 0.4673 0.56002 0.84697 0.0
C2424 C 0.49563 0.57751 0.80937 0.0
C2425 C 0.46009 0.55804 0.88426 0.0
C2426 C 0.53041 0.56972 0.66912 0.0
C2427 C 0.52156 0.56976 0.70263 0.0
C2428 C 0.48736 0.57066 0.72729 0.0
C2429 C 0.47451 0.57129 0.84162 0.0
C2430 C 0.48308 0.57294 0.80382 0.0
C2431 C 0.50931 0.57501 0.69698 0.0
C2432 C 0.50002 0.57489 0.73318 0.0
H2433 H 0.46646 0.58622 0.93493 0.0
H2434 H 0.47924 0.58958 0.87036 0.0
H2435 H 0.46937 0.56614 0.75693 0.0
H2436 H 0.51237 0.58453 0.59279 0.0
H2437 H 0.49674 0.58441 0.65162 0.0
C2438 C 0.18651 0.77409 0.40849 0.0
C2439 C 0.17757 0.77352 0.3748 0.0
C2440 C 0.18695 0.76457 0.43971 0.0
C2441 C 0.17936 0.73139 0.46577 0.0
H2442 H 0.17978 0.74406 0.58253 0.0
C2443 C 0.17883 0.6982 0.61713 0.0
C2444 C 0.18595 0.70244 0.65251 0.0
C2445 C 0.1775 0.70601 0.58078 0.0
C2446 C 0.17985 0.74032 0.55018 0.0
H2447 H 0.16239 0.76207 0.34686 0.0
H2448 H 0.16331 0.74519 0.40172 0.0
H2449 H 0.17788 0.75905 0.5234 0.0
H2450 H 0.19776 0.71774 0.67726 0.0
H2451 H 0.19585 0.73117 0.61381 0.0
H2452 H 0.18167 0.71262 0.49277 0.0
C2453 C 0.1699 0.75317 0.40369 0.0
C2454 C 0.17868 0.74893 0.51627 0.0
C2455 C 0.16936 0.76285 0.37241 0.0
C2456 C 0.19214 0.71432 0.6504 0.0
C2457 C 0.19092 0.72205 0.61417 0.0
C2458 C 0.18066 0.72271 0.4999 0.0
C2459 C 0.17854 0.7541 0.43814 0.0
C2460 C 0.17864 0.74461 0.47367 0.0
C2461 C 0.18331 0.71818 0.57927 0.0
C2462 C 0.18117 0.72711 0.54255 0.0
H2463 H 0.19306 0.78209 0.41148 0.0
H2464 H 0.19384 0.76545 0.46548 0.0
H2465 H 0.17938 0.7278 0.43321 0.0
H2466 H 0.17389 0.68909 0.61829 0.0
H2467 H 0.17153 0.70273 0.55464 0.0
C2468 C 0.0337 0.42811 0.39382 0.0
C2469 C 0.03665 0.44038 0.40911 0.0
C2470 C 0.02638 0.42656 0.35659 0.0
C2471 C 0.01375 0.44454 0.26135 0.0
H2472 H 0.99028 0.41585 0.25484 0.0
C2473 C 0.97118 0.44164 0.14277 0.0
C2474 C 0.96914 0.42998 0.12127 0.0
C2475 C 0.98051 0.44266 0.17472 0.0
C2476 C 0.9969 0.42383 0.25596 0.0
H2477 H 0.03425 0.46066 0.39813 0.0
H2478 H 0.02106 0.45807 0.33408 0.0
H2479 H 0.00406 0.41821 0.31726 0.0
H2480 H 0.97548 0.41029 0.11611 0.0
H2481 H 0.99164 0.41202 0.17282 0.0
H2482 H 0.00606 0.45039 0.20069 0.0
C2483 C 0.02468 0.44957 0.34974 0.0
C2484 C 0.00487 0.42519 0.29176 0.0
C2485 C 0.03217 0.45109 0.38663 0.0
C2486 C 0.97684 0.41942 0.13195 0.0
C2487 C 0.98603 0.42038 0.16457 0.0
C2488 C 0.00563 0.44328 0.22589 0.0
C2489 C 0.02164 0.43726 0.33411 0.0
C2490 C 0.01339 0.4356 0.29517 0.0
C2491 C 0.98789 0.432 0.18652 0.0
C2492 C 0.99707 0.43294 0.22288 0.0
H2493 H 0.03713 0.41971 0.4106 0.0
H2494 H 0.02453 0.41693 0.34537 0.0
H2495 H 0.02034 0.45253 0.26207 0.0
H2496 H 0.96545 0.44998 0.13527 0.0
H2497 H 0.98166 0.45172 0.19122 0.0
C2498 C 0.30347 0.22363 0.89453 0.0
C2499 C 0.31424 0.2239 0.8675 0.0
C2500 C 0.3015 0.23324 0.9249 0.0
C2501 C 0.31046 0.26609 0.95709 0.0
H2502 H 0.30162 0.25384 0.07055 0.0
C2503 C 0.31168 0.29812 0.10988 0.0
C2504 C 0.30274 0.29545 0.14217 0.0
C2505 C 0.31232 0.29039 0.07322 0.0
C2506 C 0.30386 0.2575 0.03896 0.0
H2507 H 0.3311 0.23488 0.85012 0.0
H2508 H 0.32762 0.2517 0.90342 0.0
H2509 H 0.30415 0.23866 0.01236 0.0
H2510 H 0.28709 0.28317 0.16118 0.0
H2511 H 0.2878 0.26996 0.09674 0.0
H2512 H 0.31014 0.28499 0.98395 0.0
C2513 C 0.32071 0.24401 0.9009 0.0
C2514 C 0.30535 0.24876 0.00555 0.0
C2515 C 0.32273 0.23433 0.87049 0.0
C2516 C 0.29405 0.28537 0.13653 0.0
C2517 C 0.29459 0.27774 0.09985 0.0
C2518 C 0.30888 0.27489 0.9906 0.0
C2519 C 0.31021 0.24341 0.92905 0.0
C2520 C 0.30863 0.25292 0.96418 0.0
C2521 C 0.30398 0.27989 0.06827 0.0
C2522 C 0.30551 0.2707 0.03199 0.0
H2523 H 0.29666 0.21583 0.89298 0.0
H2524 H 0.29319 0.23262 0.94557 0.0
H2525 H 0.31292 0.2696 0.92549 0.0
H2526 H 0.31855 0.30579 0.11396 0.0
H2527 H 0.31973 0.29228 0.04982 0.0
C2528 C 0.0878 0.03293 0.15414 0.0
C2529 C 0.07831 0.04043 0.17373 0.0
C2530 C 0.09561 0.02497 0.17889 0.0
C2531 C 0.10282 0.01662 0.29354 0.0
H2532 H 0.10537 0.98229 0.24783 0.0
C2533 C 0.09853 0.97503 0.40811 0.0
C2534 C 0.08991 0.96571 0.39353 0.0
C2535 C 0.10428 0.98345 0.37912 0.0
C2536 C 0.10471 0.99183 0.26125 0.0
H2537 H 0.0696 0.04566 0.23424 0.0
H2538 H 0.08251 0.03139 0.27686 0.0
H2539 H 0.10125 -4e-05 0.19974 0.0
H2540 H 0.08103 0.95733 0.33746 0.0
H2541 H 0.09012 0.97241 0.28761 0.0
H2542 H 0.10444 0.0084 0.35547 0.0
C2543 C 0.08446 0.03193 0.24285 0.0
C2544 C 0.10257 0.00205 0.23341 0.0
C2545 C 0.07686 0.04 0.2183 0.0
C2546 C 0.08761 0.96449 0.34954 0.0
C2547 C 0.09305 0.97308 0.32078 0.0
C2548 C 0.10446 0.00636 0.32149 0.0
C2549 C 0.0939 0.02423 0.22356 0.0
C2550 C 0.10059 0.01443 0.24975 0.0
C2551 C 0.10118 0.98295 0.33522 0.0
C2552 C 0.10438 0.99373 0.30589 0.0
H2553 H 0.08923 0.03326 0.11977 0.0
H2554 H 0.10284 0.01928 0.16296 0.0
H2555 H 0.10204 0.02615 0.30693 0.0
H2556 H 0.10068 0.97593 0.44193 0.0
H2557 H 0.11076 0.99065 0.39145 0.0
C2558 C 0.26414 0.81951 0.65754 0.0
C2559 C 0.27473 0.82697 0.66934 0.0
C2560 C 0.25736 0.82234 0.62033 0.0
C2561 C 0.25201 0.8464 0.53545 0.0
H2562 H 0.24485 0.81597 0.46858 0.0
C2563 C 0.22798 0.82683 0.36707 0.0
C2564 C 0.21651 0.83374 0.36905 0.0
C2565 C 0.23747 0.82884 0.39767 0.0
C2566 C 0.24701 0.82463 0.48622 0.0
H2567 H 0.28595 0.84381 0.65332 0.0
H2568 H 0.27421 0.84859 0.58782 0.0
H2569 H 0.25559 0.81394 0.53673 0.0
H2570 H 0.20635 0.84902 0.40136 0.0
H2571 H 0.22263 0.85213 0.45615 0.0
H2572 H 0.24345 0.85709 0.48431 0.0
C2573 C 0.27112 0.84061 0.60743 0.0
C2574 C 0.25293 0.82342 0.52584 0.0
C2575 C 0.27786 0.83784 0.64488 0.0
C2576 C 0.21515 0.84356 0.39934 0.0
C2577 C 0.22452 0.84537 0.43063 0.0
C2578 C 0.2461 0.84764 0.49547 0.0
C2579 C 0.2611 0.83261 0.59405 0.0
C2580 C 0.25524 0.83424 0.55131 0.0
C2581 C 0.23544 0.83751 0.43146 0.0
C2582 C 0.24336 0.83672 0.47074 0.0
H2583 H 0.2614 0.81119 0.6761 0.0
H2584 H 0.24944 0.81621 0.61134 0.0
H2585 H 0.25374 0.85491 0.5544 0.0
H2586 H 0.2293 0.81935 0.3434 0.0
H2587 H 0.24598 0.82293 0.39665 0.0
C2588 C 0.40425 0.02427 0.86575 0.0
C2589 C 0.40596 0.0376 0.86678 0.0
C2590 C 0.40195 0.0181 0.82681 0.0
C2591 C 0.41362 0.02115 0.72211 0.0
H2592 H 0.39135 0.99275 0.69368 0.0
C2593 C 0.42936 0.98549 0.5947 0.0
C2594 C 0.4275 0.97267 0.60634 0.0
C2595 C 0.42269 0.9952 0.61592 0.0
C2596 C 0.39768 0.00064 0.70116 0.0
H2597 H 0.40527 0.05503 0.8288 0.0
H2598 H 0.40166 0.04415 0.76097 0.0
H2599 H 0.38617 0.00645 0.75474 0.0
H2600 H 0.41692 0.95982 0.64788 0.0
H2601 H 0.40602 0.97657 0.68656 0.0
H2602 H 0.42589 0.01478 0.67223 0.0
C2603 C 0.40206 0.03855 0.79015 0.0
C2604 C 0.39462 0.00852 0.73582 0.0
C2605 C 0.40421 0.04472 0.82898 0.0
C2606 C 0.41855 0.96965 0.63826 0.0
C2607 C 0.41214 0.97931 0.66011 0.0
C2608 C 0.41687 0.01311 0.6883 0.0
C2609 C 0.40142 0.02518 0.78858 0.0
C2610 C 0.40281 0.01856 0.74728 0.0
C2611 C 0.41431 0.99224 0.64993 0.0
C2612 C 0.40923 0.00242 0.67852 0.0
H2613 H 0.40543 0.01857 0.89445 0.0
H2614 H 0.40159 0.00774 0.82614 0.0
H2615 H 0.42014 0.0288 0.73072 0.0
H2616 H 0.43605 0.98802 0.56956 0.0
H2617 H 0.42439 0.00502 0.60646 0.0
C2618 C 0.2763 0.16121 0.86411 0.0
C2619 C 0.2731 0.1734 0.84815 0.0
C2620 C 0.26761 0.15439 0.88913 0.0
C2621 C 0.25314 0.15354 0.97414 0.0
H2622 H 0.21672 0.14841 0.95848 0.0
C2623 C 0.20516 0.16238 0.07564 0.0
C2624 C 0.20974 0.15936 0.11664 0.0
C2625 C 0.21204 0.15884 0.03938 0.0
C2626 C 0.22688 0.14982 0.96349 0.0
H2627 H 0.25787 0.18736 0.84195 0.0
H2628 H 0.2426 0.17532 0.88552 0.0
H2629 H 0.23034 0.15235 0.89621 0.0
H2630 H 0.22445 0.14933 0.1521 0.0
H2631 H 0.23625 0.14255 0.08851 0.0
H2632 H 0.24976 0.15251 0.04116 0.0
C2633 C 0.25187 0.17114 0.87877 0.0
C2634 C 0.23465 0.15193 0.92776 0.0
C2635 C 0.26064 0.17807 0.85422 0.0
C2636 C 0.22086 0.15196 0.12075 0.0
C2637 C 0.22762 0.14813 0.08429 0.0
C2638 C 0.24537 0.15178 0.00987 0.0
C2639 C 0.25552 0.15953 0.89791 0.0
C2640 C 0.24775 0.15427 0.93309 0.0
C2641 C 0.22356 0.15195 0.04317 0.0
C2642 C 0.23204 0.15048 0.00518 0.0
H2643 H 0.2858 0.15727 0.85963 0.0
H2644 H 0.27059 0.14546 0.90366 0.0
H2645 H 0.26324 0.15544 0.979 0.0
H2646 H 0.19659 0.16808 0.07151 0.0
H2647 H 0.20866 0.16222 0.00864 0.0
C2648 C 0.92383 0.96816 0.93396 0.0
C2649 C 0.93094 0.95673 0.93432 0.0
C2650 C 0.9236 0.97597 0.89738 0.0
C2651 C 0.91913 0.9872 0.80805 0.0
H2652 H 0.95032 0.99119 0.74204 0.0
C2653 C 0.92031 0.01517 0.64699 0.0
C2654 C 0.93084 0.02335 0.64072 0.0
C2655 C 0.92018 0.00639 0.68106 0.0
C2656 C 0.94152 0.99025 0.76015 0.0
H2657 H 0.94329 0.94455 0.896 0.0
H2658 H 0.94273 0.95799 0.83258 0.0
H2659 H 0.95039 0.97787 0.8059 0.0
H2660 H 0.94966 0.02841 0.66498 0.0
H2661 H 0.94938 0.01332 0.72398 0.0
H2662 H 0.91039 -7e-05 0.76286 0.0
C2663 C 0.93751 0.96109 0.8607 0.0
C2664 C 0.94153 0.98247 0.79663 0.0
C2665 C 0.93778 0.95332 0.89718 0.0
C2666 C 0.94137 0.02227 0.66861 0.0
C2667 C 0.94125 0.01353 0.7025 0.0
C2668 C 0.91914 0.99501 0.77152 0.0
C2669 C 0.93045 0.97254 0.86023 0.0
C2670 C 0.93035 0.98085 0.82122 0.0
C2671 C 0.93061 0.00556 0.70956 0.0
C2672 C 0.93036 0.99671 0.7472 0.0
H2673 H 0.91846 0.97111 0.96194 0.0
H2674 H 0.91817 0.9848 0.89846 0.0
H2675 H 0.9103 0.98607 0.82582 0.0
H2676 H 0.91203 0.01573 0.6262 0.0
H2677 H 0.9119 0.00029 0.68514 0.0
C2678 C 0.78231 0.17556 0.67125 0.0
C2679 C 0.7935 0.18305 0.67061 0.0
C2680 C 0.77431 0.17492 0.6352 0.0
C2681 C 0.76663 0.19232 0.53445 0.0
H2682 H 0.74981 0.16061 0.503 0.0
C2683 C 0.73315 0.17003 0.38851 0.0
C2684 C 0.7246 0.18032 0.38332 0.0
C2685 C 0.74226 0.17014 0.42162 0.0
C2686 C 0.75455 0.16951 0.51102 0.0
H2687 H 0.80507 0.19564 0.63101 0.0
H2688 H 0.7913 0.19439 0.5685 0.0
H2689 H 0.76417 0.16108 0.56472 0.0
H2690 H 0.71923 0.19894 0.40851 0.0
H2691 H 0.73488 0.19907 0.46572 0.0
H2692 H 0.75721 0.20072 0.48052 0.0
C2693 C 0.78853 0.18918 0.59702 0.0
C2694 C 0.76265 0.16983 0.54683 0.0
C2695 C 0.79648 0.18985 0.63298 0.0
C2696 C 0.72563 0.19083 0.41131 0.0
C2697 C 0.7347 0.19095 0.44416 0.0
C2698 C 0.75856 0.192 0.49872 0.0
C2699 C 0.77731 0.18174 0.59757 0.0
C2700 C 0.76876 0.18126 0.55918 0.0
C2701 C 0.74307 0.18057 0.45012 0.0
C2702 C 0.75231 0.18063 0.48667 0.0
H2703 H 0.77969 0.17019 0.69963 0.0
H2704 H 0.76567 0.16922 0.63707 0.0
H2705 H 0.77103 0.20134 0.5431 0.0
H2706 H 0.73262 0.16177 0.36763 0.0
H2707 H 0.74864 0.16204 0.42493 0.0
C2708 C 0.55934 0.97332 0.16667 0.0
C2709 C 0.56943 0.97313 0.13679 0.0
C2710 C 0.55975 0.98135 0.20243 0.0
C2711 C 0.5593 0.00378 0.26325 0.0
H2712 H 0.59107 0.00906 0.32496 0.0
C2713 C 0.56285 0.04093 0.39832 0.0
C2714 C 0.57009 0.03806 0.43513 0.0
C2715 C 0.56323 0.03303 0.36231 0.0
C2716 C 0.58209 0.00759 0.30833 0.0
H2717 H 0.58785 0.9815 0.12118 0.0
H2718 H 0.58846 0.99576 0.18342 0.0
H2719 H 0.59084 0.99552 0.26104 0.0
H2720 H 0.5835 0.0245 0.46245 0.0
H2721 H 0.58399 0.01048 0.39944 0.0
H2722 H 0.55045 0.01549 0.31084 0.0
C2723 C 0.58029 0.98949 0.17936 0.0
C2724 C 0.58199 -3e-05 0.27128 0.0
C2725 C 0.57989 0.9814 0.14341 0.0
C2726 C 0.57778 0.02701 0.43475 0.0
C2727 C 0.57813 0.01902 0.39849 0.0
C2728 C 0.5594 0.01134 0.30018 0.0
C2729 C 0.57024 0.98952 0.20948 0.0
C2730 C 0.57058 0.99794 0.24826 0.0
C2731 C 0.57079 0.02191 0.36184 0.0
C2732 C 0.57079 0.01342 0.32321 0.0
H2733 H 0.55114 0.96707 0.16298 0.0
H2734 H 0.55192 0.98091 0.22512 0.0
H2735 H 0.55035 0.00259 0.24624 0.0
H2736 H 0.55688 0.0494 0.39703 0.0
H2737 H 0.55765 0.03576 0.33453 0.0
C2738 C 0.71719 0.82439 0.18048 0.0
C2739 C 0.70656 0.81613 0.18228 0.0
C2740 C 0.72554 0.82411 0.14525 0.0
C2741 C 0.73531 0.80361 0.05311 0.0
H2742 H 0.74891 0.83529 0.00719 0.0
C2743 C 0.77452 0.80438 0.92242 0.0
C2744 C 0.77421 0.8141 0.89122 0.0
C2745 C 0.76598 0.80448 0.95693 0.0
C2746 C 0.74509 0.82635 0.01929 0.0
H2747 H 0.69647 0.80108 0.14811 0.0
H2748 H 0.71081 0.80074 0.08708 0.0
H2749 H 0.7349 0.83585 0.06971 0.0
H2750 H 0.76428 0.83133 0.87134 0.0
H2751 H 0.74919 0.83135 0.9311 0.0
H2752 H 0.7452 0.79413 0.00218 0.0
C2753 C 0.71288 0.80729 0.11306 0.0
C2754 C 0.7372 0.82666 0.05562 0.0
C2755 C 0.70458 0.80754 0.14815 0.0
C2756 C 0.76483 0.8237 0.89475 0.0
C2757 C 0.75625 0.82378 0.9293 0.0
C2758 C 0.74316 0.8033 0.01679 0.0
C2759 C 0.72347 0.81557 0.11099 0.0
C2760 C 0.73218 0.81529 0.07299 0.0
C2761 C 0.75683 0.81427 0.96122 0.0
C2762 C 0.74817 0.81466 0.99935 0.0
H2763 H 0.71902 0.83112 0.20616 0.0
H2764 H 0.73368 0.83053 0.14504 0.0
H2765 H 0.73177 0.79463 0.06578 0.0
H2766 H 0.78163 0.79685 0.92099 0.0
H2767 H 0.76685 0.79707 0.98101 0.0
C2768 C 0.58077 0.47143 0.91426 0.0
C2769 C 0.57102 0.47321 0.94467 0.0
C2770 C 0.58223 0.48006 0.88064 0.0
C2771 C 0.56158 0.50141 0.81959 0.0
H2772 H 0.59253 0.50785 0.75448 0.0
C2773 C 0.57688 0.53229 0.66353 0.0
C2774 C 0.56599 0.52985 0.63839 0.0
C2775 C 0.57918 0.52515 0.70043 0.0
C2776 C 0.58383 0.50619 0.77247 0.0
H2777 H 0.55626 0.48613 0.96715 0.0
H2778 H 0.55911 0.5015 0.90918 0.0
H2779 H 0.59404 0.49822 0.82557 0.0
H2780 H 0.54972 0.51725 0.6294 0.0
H2781 H 0.55398 0.50448 0.69313 0.0
H2782 H 0.55137 0.50963 0.76737 0.0
C2783 C 0.56527 0.49317 0.91028 0.0
C2784 C 0.58468 0.50063 0.81305 0.0
C2785 C 0.56366 0.48442 0.94354 0.0
C2786 C 0.55807 0.51946 0.64862 0.0
C2787 C 0.56046 0.51222 0.68524 0.0
C2788 C 0.56074 0.50704 0.77938 0.0
C2789 C 0.57409 0.49071 0.87725 0.0
C2790 C 0.57354 0.49805 0.83679 0.0
C2791 C 0.5707 0.51537 0.71249 0.0
C2792 C 0.57182 0.50931 0.75508 0.0
H2793 H 0.58665 0.46289 0.91455 0.0
H2794 H 0.5891 0.47785 0.85572 0.0
H2795 H 0.55278 0.49933 0.83656 0.0
H2796 H 0.58321 0.54021 0.65629 0.0
H2797 H 0.58714 0.52783 0.72076 0.0
C2798 C 0.72365 0.32316 0.85941 0.0
C2799 C 0.72388 0.3115 0.83705 0.0
C2800 C 0.7336 0.32637 0.887 0.0
C2801 C 0.75528 0.30829 0.95474 0.0
H2802 H 0.76079 0.34188 0.00419 0.0
C2803 C 0.77747 0.3314 0.11887 0.0
C2804 C 0.77271 0.32212 0.14738 0.0
C2805 C 0.77359 0.33145 0.07611 0.0
C2806 C 0.75952 0.33244 0.99054 0.0
H2807 H 0.73552 0.29504 0.82065 0.0
H2808 H 0.75316 0.30086 0.86794 0.0
H2809 H 0.75296 0.34007 0.93088 0.0
H2810 H 0.75939 0.30637 0.15468 0.0
H2811 H 0.75219 0.30679 0.08057 0.0
H2812 H 0.76189 0.30064 0.01405 0.0
C2813 C 0.74503 0.30725 0.8656 0.0
C2814 C 0.75497 0.33139 0.94862 0.0
C2815 C 0.73496 0.30393 0.83842 0.0
C2816 C 0.76331 0.31353 0.13327 0.0
C2817 C 0.75932 0.31368 0.09071 0.0
C2818 C 0.75998 0.30933 0.99625 0.0
C2819 C 0.74405 0.31806 0.89234 0.0
C2820 C 0.7522 0.3193 0.93101 0.0
C2821 C 0.76479 0.32231 0.06133 0.0
C2822 C 0.76155 0.3214 0.0153 0.0
H2823 H 0.71533 0.32934 0.8584 0.0
H2824 H 0.73244 0.33477 0.90694 0.0
H2825 H 0.75322 0.2988 0.94262 0.0
H2826 H 0.78476 0.33814 0.12884 0.0
H2827 H 0.77794 0.33823 0.05429 0.0
C2828 C 0.90751 0.53117 0.3893 0.0
C2829 C 0.91692 0.52704 0.41838 0.0
C2830 C 0.90684 0.52586 0.34842 0.0
C2831 C 0.90558 0.51033 0.26572 0.0
H2832 H 0.9394 0.50384 0.21947 0.0
C2833 C 0.91557 0.4759 0.12978 0.0
C2834 C 0.92721 0.47672 0.10745 0.0
C2835 C 0.91222 0.48528 0.1593 0.0
C2836 C 0.92987 0.50592 0.23124 0.0
H2837 H 0.93189 0.5131 0.42974 0.0
H2838 H 0.9304 0.50346 0.3589 0.0
H2839 H 0.93728 0.51226 0.29116 0.0
H2840 H 0.94351 0.48888 0.09342 0.0
H2841 H 0.93745 0.50552 0.14432 0.0
H2842 H 0.8982 0.50409 0.20528 0.0
C2843 C 0.92393 0.51119 0.36699 0.0
C2844 C 0.92866 0.51045 0.27286 0.0
C2845 C 0.9247 0.51661 0.40766 0.0
C2846 C 0.93464 0.48785 0.11109 0.0
C2847 C 0.93118 0.49736 0.14027 0.0
C2848 C 0.90679 0.5059 0.22371 0.0
C2849 C 0.91547 0.51624 0.3363 0.0
C2850 C 0.91651 0.51226 0.29106 0.0
C2851 C 0.92037 0.49573 0.16663 0.0
C2852 C 0.91896 0.50324 0.20656 0.0
H2853 H 0.9013 0.53917 0.3968 0.0
H2854 H 0.90018 0.52989 0.32552 0.0
H2855 H 0.89609 0.51179 0.2788 0.0
H2856 H 0.90949 0.46753 0.12703 0.0
H2857 H 0.90383 0.48367 0.17896 0.0
C2858 C 0.77333 0.67776 0.37184 0.0
C2859 C 0.77258 0.6907 0.35974 0.0
C2860 C 0.7647 0.67269 0.40124 0.0
C2861 C 0.7464 0.68464 0.49171 0.0
H2862 H 0.73699 0.64895 0.5053 0.0
C2863 C 0.71534 0.65403 0.61813 0.0
C2864 C 0.71939 0.66061 0.65494 0.0
C2865 C 0.72205 0.65543 0.57973 0.0
C2866 C 0.73952 0.65895 0.50181 0.0
H2867 H 0.76125 0.70802 0.36463 0.0
H2868 H 0.7459 0.69905 0.4153 0.0
H2869 H 0.74554 0.65642 0.43676 0.0
H2870 H 0.7344 0.67228 0.68254 0.0
H2871 H 0.74647 0.67423 0.61605 0.0
H2872 H 0.74021 0.6873 0.55605 0.0
C2873 C 0.75347 0.69296 0.40317 0.0
C2874 C 0.74443 0.66322 0.46268 0.0
C2875 C 0.76222 0.69809 0.37403 0.0
C2876 C 0.73102 0.66727 0.6543 0.0
C2877 C 0.73783 0.66848 0.6162 0.0
C2878 C 0.74146 0.6804 0.5305 0.0
C2879 C 0.75505 0.68042 0.41877 0.0
C2880 C 0.7481 0.67609 0.45748 0.0
C2881 C 0.73296 0.66327 0.57801 0.0
C2882 C 0.73821 0.66747 0.53632 0.0
H2883 H 0.7811 0.67174 0.36084 0.0
H2884 H 0.76622 0.66301 0.41255 0.0
H2885 H 0.74933 0.69456 0.4892 0.0
H2886 H 0.70636 0.64884 0.61789 0.0
H2887 H 0.71809 0.65125 0.55087 0.0
C2888 C 0.42863 0.51961 0.14447 0.0
C2889 C 0.43784 0.52945 0.14419 0.0
C2890 C 0.42877 0.51019 0.1765 0.0
C2891 C 0.44963 0.49545 0.25949 0.0
H2892 H 0.41751 0.48519 0.31139 0.0
C2893 C 0.44652 0.45408 0.38225 0.0
C2894 C 0.43825 0.45555 0.41751 0.0
C2895 C 0.44649 0.46293 0.34863 0.0
C2896 C 0.42657 0.48801 0.29747 0.0
H2897 H 0.45458 0.53684 0.17716 0.0
H2898 H 0.45477 0.52054 0.23263 0.0
H2899 H 0.41749 0.50064 0.25271 0.0
H2900 H 0.42352 0.46767 0.44496 0.0
H2901 H 0.42357 0.48319 0.38646 0.0
H2902 H 0.45874 0.48305 0.30475 0.0
C2903 C 0.44749 0.52001 0.20799 0.0
C2904 C 0.42655 0.49675 0.2634 0.0
C2905 C 0.44734 0.52943 0.17615 0.0
C2906 C 0.43001 0.4662 0.41835 0.0
C2907 C 0.42997 0.47506 0.38462 0.0
C2908 C 0.44965 0.4867 0.29345 0.0
C2909 C 0.43815 0.51033 0.20889 0.0
C2910 C 0.43809 0.50063 0.24407 0.0
C2911 C 0.43819 0.47353 0.34923 0.0
C2912 C 0.43813 0.48288 0.31302 0.0
H2913 H 0.42117 0.51931 0.12041 0.0
H2914 H 0.42151 0.50278 0.17587 0.0
H2915 H 0.45869 0.4981 0.24517 0.0
H2916 H 0.45296 0.44598 0.38028 0.0
H2917 H 0.45284 0.46133 0.32172 0.0
C2918 C 0.27636 0.67745 0.17327 0.0
C2919 C 0.2873 0.68532 0.17298 0.0
C2920 C 0.26823 0.67692 0.13752 0.0
C2921 C 0.25953 0.69486 0.03879 0.0
H2922 H 0.24485 0.66249 0.00302 0.0
C2923 C 0.2193 0.69183 0.91267 0.0
C2924 C 0.2192 0.68153 0.88359 0.0
C2925 C 0.22814 0.69229 0.94621 0.0
C2926 C 0.24898 0.67159 0.01228 0.0
H2927 H 0.29818 0.69881 0.13453 0.0
H2928 H 0.28417 0.69779 0.07262 0.0
H2929 H 0.25895 0.66323 0.06539 0.0
H2930 H 0.22867 0.66377 0.86662 0.0
H2931 H 0.24426 0.66466 0.92508 0.0
H2932 H 0.24976 0.7032 0.98543 0.0
C2933 C 0.28173 0.69215 0.10058 0.0
C2934 C 0.25692 0.67204 0.04846 0.0
C2935 C 0.28982 0.69269 0.13619 0.0
C2936 C 0.22846 0.67185 0.88834 0.0
C2937 C 0.23732 0.6723 0.92212 0.0
C2938 C 0.2516 0.6944 0.00271 0.0
C2939 C 0.27083 0.68424 0.10063 0.0
C2940 C 0.26228 0.68369 0.06227 0.0
C2941 C 0.23718 0.68247 0.95177 0.0
C2942 C 0.24615 0.68278 0.98904 0.0
H2943 H 0.27411 0.67164 0.20098 0.0
H2944 H 0.25985 0.67084 0.13894 0.0
H2945 H 0.26336 0.70403 0.04861 0.0
H2946 H 0.21233 0.69946 0.91018 0.0
H2947 H 0.22761 0.70019 0.9686 0.0
C2948 C 0.06485 0.46545 0.68288 0.0
C2949 C 0.06752 0.46985 0.64118 0.0
C2950 C 0.06573 0.47366 0.71809 0.0
C2951 C 0.06177 0.5063 0.75119 0.0
H2952 H 0.08299 0.49769 0.84893 0.0
C2953 C 0.06531 0.54056 0.89565 0.0
C2954 C 0.0673 0.53555 0.9369 0.0
C2955 C 0.06613 0.53275 0.85941 0.0
C2956 C 0.07682 0.50018 0.82238 0.0
H2957 H 0.07319 0.48639 0.60387 0.0
H2958 H 0.07421 0.50098 0.66573 0.0
H2959 H 0.08292 0.48383 0.78599 0.0
H2960 H 0.07172 0.51832 0.97239 0.0
H2961 H 0.07245 0.50444 0.90941 0.0
H2962 H 0.055 0.52215 0.78776 0.0
C2963 C 0.07163 0.49106 0.67085 0.0
C2964 C 0.07691 0.49228 0.78608 0.0
C2965 C 0.07107 0.48272 0.63555 0.0
C2966 C 0.07017 0.52247 0.94103 0.0
C2967 C 0.07068 0.51454 0.90469 0.0
C2968 C 0.06143 0.51404 0.7878 0.0
C2969 C 0.06903 0.48657 0.71247 0.0
C2970 C 0.06941 0.49528 0.75011 0.0
C2971 C 0.06864 0.51956 0.86319 0.0
C2972 C 0.06899 0.51116 0.82407 0.0
H2973 H 0.06219 0.45556 0.68844 0.0
H2974 H 0.06361 0.46998 0.74975 0.0
H2975 H 0.05574 0.50871 0.72413 0.0
H2976 H 0.06328 0.55064 0.89121 0.0
H2977 H 0.06488 0.53718 0.82835 0.0
C2978 C 0.2193 0.32282 0.67354 0.0
C2979 C 0.20813 0.3153 0.67287 0.0
C2980 C 0.22745 0.32326 0.6378 0.0
C2981 C 0.23548 0.30536 0.53838 0.0
H2982 H 0.2514 0.33724 0.50367 0.0
C2983 C 0.26694 0.3274 0.38748 0.0
C2984 C 0.27558 0.31722 0.38167 0.0
C2985 C 0.25832 0.32736 0.42201 0.0
C2986 C 0.24693 0.32829 0.51265 0.0
H2987 H 0.19681 0.30237 0.63371 0.0
H2988 H 0.21082 0.30324 0.57186 0.0
H2989 H 0.23735 0.33685 0.56624 0.0
H2990 H 0.28172 0.29892 0.40754 0.0
H2991 H 0.26693 0.29894 0.46728 0.0
H2992 H 0.24479 0.29683 0.4845 0.0
C2993 C 0.21345 0.30865 0.6001 0.0
C2994 C 0.23901 0.32802 0.54893 0.0
C2995 C 0.20536 0.3082 0.63569 0.0
C2996 C 0.27521 0.30693 0.41074 0.0
C2997 C 0.26664 0.30689 0.44506 0.0
C2998 C 0.24335 0.30563 0.50219 0.0
C2999 C 0.22461 0.31618 0.60057 0.0
C3000 C 0.23319 0.31654 0.5623 0.0
C3001 C 0.25812 0.31713 0.45139 0.0
C3002 C 0.24925 0.31707 0.48892 0.0
H3003 H 0.22174 0.32843 0.70157 0.0
H3004 H 0.23603 0.32904 0.63952 0.0
H3005 H 0.23129 0.29631 0.54788 0.0
H3006 H 0.26696 0.33549 0.36578 0.0
H3007 H 0.25179 0.33534 0.42562 0.0
C3008 C 0.14861 0.16274 0.24692 0.0
C3009 C 0.16115 0.15793 0.24579 0.0
C3010 C 0.13834 0.15514 0.23362 0.0
C3011 C 0.13198 0.12649 0.16681 0.0
H3012 H 0.0977 0.12949 0.21345 0.0
C3013 C 0.09147 0.09134 0.12703 0.0
C3014 C 0.08011 0.09684 0.11147 0.0
C3015 C 0.10101 0.09899 0.1448 0.0
C3016 C 0.10723 0.12866 0.20007 0.0
H3017 H 0.17274 0.14117 0.23282 0.0
H3018 H 0.15482 0.12771 0.21172 0.0
H3019 H 0.11515 0.14195 0.24497 0.0
H3020 H 0.06972 0.11463 0.10306 0.0
H3021 H 0.08644 0.12804 0.13523 0.0
H3022 H 0.12409 0.1129 0.12285 0.0
C3023 C 0.1529 0.1375 0.22101 0.0
C3024 C 0.11722 0.13579 0.21796 0.0
C3025 C 0.16317 0.14517 0.23348 0.0
C3026 C 0.0784 0.11015 0.11463 0.0
C3027 C 0.0879 0.1178 0.13318 0.0
C3028 C 0.12207 0.11923 0.1495 0.0
C3029 C 0.1404 0.1425 0.21963 0.0
C3030 C 0.12974 0.13478 0.20156 0.0
C3031 C 0.09931 0.11226 0.14801 0.0
C3032 C 0.10963 0.12025 0.16597 0.0
H3033 H 0.14678 0.17257 0.25605 0.0
H3034 H 0.12889 0.15937 0.23265 0.0
H3035 H 0.14139 0.12571 0.15247 0.0
H3036 H 0.09308 0.08111 0.12501 0.0
H3037 H 0.10972 0.09452 0.15626 0.0
C3038 C 0.14113 0.83098 0.35686 0.0
C3039 C 0.15432 0.83276 0.35026 0.0
C3040 C 0.13378 0.84063 0.37566 0.0
C3041 C 0.13157 0.87484 0.38851 0.0
H3042 H 0.11123 0.8676 0.48958 0.0
C3043 C 0.08772 0.89856 0.49307 0.0
C3044 C 0.09127 0.9115 0.49064 0.0
C3045 C 0.09588 0.88904 0.47775 0.0
C3046 C 0.11669 0.86977 0.461 0.0
H3047 H 0.17011 0.84608 0.35747 0.0
H3048 H 0.15713 0.86309 0.38923 0.0
H3049 H 0.1242 0.8507 0.45768 0.0
H3050 H 0.10633 0.92462 0.47177 0.0
H3051 H 0.12085 0.90797 0.44685 0.0
H3052 H 0.12373 0.89369 0.39027 0.0
C3053 C 0.15258 0.85416 0.38031 0.0
C3054 C 0.12416 0.86009 0.44296 0.0
C3055 C 0.15998 0.84442 0.36233 0.0
C3056 C 0.1033 0.91472 0.47374 0.0
C3057 C 0.11157 0.90516 0.45913 0.0
C3058 C 0.12392 0.88446 0.40601 0.0
C3059 C 0.13945 0.8523 0.38733 0.0
C3060 C 0.13165 0.86256 0.40661 0.0
C3061 C 0.10789 0.8922 0.46035 0.0
C3062 C 0.11636 0.88206 0.44249 0.0
H3063 H 0.13652 0.82208 0.34798 0.0
H3064 H 0.12364 0.83905 0.3806 0.0
H3065 H 0.13721 0.8769 0.3602 0.0
H3066 H 0.07845 0.8958 0.50559 0.0
H3067 H 0.09257 0.87922 0.47853 0.0
C3068 C 0.40883 0.90622 0.6178 0.0
C3069 C 0.42055 0.90121 0.60352 0.0
C3070 C 0.39996 0.89841 0.63846 0.0
C3071 C 0.39135 0.86435 0.65541 0.0
H3072 H 0.36976 0.8788 0.74426 0.0
C3073 C 0.35544 0.83426 0.75355 0.0
C3074 C 0.34281 0.83885 0.75166 0.0
C3075 C 0.3656 0.84186 0.73951 0.0
C3076 C 0.37574 0.87467 0.71951 0.0
H3077 H 0.43223 0.88411 0.6 0.0
H3078 H 0.4169 0.8705 0.63749 0.0
H3079 H 0.38656 0.89186 0.71215 0.0
H3080 H 0.33096 0.85519 0.73542 0.0
H3081 H 0.34881 0.86859 0.7118 0.0
H3082 H 0.38058 0.84706 0.6636 0.0
C3083 C 0.41441 0.88041 0.63175 0.0
C3084 C 0.38531 0.88215 0.70087 0.0
C3085 C 0.42323 0.88821 0.61042 0.0
C3086 C 0.34059 0.85138 0.73711 0.0
C3087 C 0.35078 0.85906 0.72378 0.0
C3088 C 0.38191 0.85681 0.67459 0.0
C3089 C 0.40265 0.88542 0.64602 0.0
C3090 C 0.39309 0.87716 0.66801 0.0
C3091 C 0.36333 0.85427 0.72411 0.0
C3092 C 0.37392 0.86197 0.70631 0.0
H3093 H 0.40643 0.91619 0.61257 0.0
H3094 H 0.39089 0.90255 0.64795 0.0
H3095 H 0.397 0.86022 0.62982 0.0
H3096 H 0.35746 0.82463 0.76451 0.0
H3097 H 0.37522 0.83801 0.74026 0.0
C3098 C 0.39108 0.08331 0.9764 0.0
C3099 C 0.4036 0.08583 0.99027 0.0
C3100 C 0.38304 0.09332 0.96407 0.0
C3101 C 0.37162 0.11438 0.91098 0.0
H3102 H 0.37318 0.14832 0.96115 0.0
C3103 C 0.33729 0.15502 0.86385 0.0
C3104 C 0.3432 0.16652 0.85143 0.0
C3105 C 0.34437 0.14535 0.88343 0.0
C3106 C 0.37272 0.13888 0.94685 0.0
H3107 H 0.41745 0.10082 0.00326 0.0
H3108 H 0.40366 0.11821 0.9802 0.0
H3109 H 0.38553 0.1309 0.99309 0.0
H3110 H 0.36111 0.17704 0.8506 0.0
H3111 H 0.37348 0.16012 0.88573 0.0
H3112 H 0.35859 0.12237 0.86536 0.0
C3113 C 0.39986 0.10857 0.97984 0.0
C3114 C 0.3798 0.12891 0.96496 0.0
C3115 C 0.40781 0.09858 0.99287 0.0
C3116 C 0.35631 0.16826 0.85968 0.0
C3117 C 0.36336 0.15864 0.87995 0.0
C3118 C 0.36441 0.12429 0.89337 0.0
C3119 C 0.38745 0.10605 0.96457 0.0
C3120 C 0.37941 0.11655 0.94704 0.0
C3121 C 0.35745 0.14707 0.89157 0.0
C3122 C 0.36497 0.13662 0.91096 0.0
H3123 H 0.38753 0.07359 0.97453 0.0
H3124 H 0.37344 0.09104 0.95356 0.0
H3125 H 0.3713 0.1051 0.89562 0.0
H3126 H 0.3272 0.15338 0.85787 0.0
H3127 H 0.33961 0.13653 0.89234 0.0
C3128 C 0.91026 0.89105 0.99874 0.0
C3129 C 0.90658 0.90334 0.01232 0.0
C3130 C 0.90108 0.88229 0.98453 0.0
C3131 C 0.87086 0.88211 0.92987 0.0
H3132 H 0.86704 0.84695 0.96743 0.0
C3133 C 0.82917 0.85141 0.87068 0.0
C3134 C 0.83131 0.83836 0.86281 0.0
C3135 C 0.83846 0.85881 0.89091 0.0
C3136 C 0.86811 0.85668 0.95612 0.0
H3137 H 0.89034 0.91588 0.02355 0.0
H3138 H 0.8744 0.90066 0.99795 0.0
H3139 H 0.88321 0.86064 0.00089 0.0
H3140 H 0.84487 0.8228 0.86983 0.0
H3141 H 0.86138 0.83587 0.90374 0.0
H3142 H 0.85622 0.87824 0.88416 0.0
C3143 C 0.88438 0.89784 0.9984 0.0
C3144 C 0.87731 0.86451 0.97548 0.0
C3145 C 0.89351 0.90651 0.01315 0.0
C3146 C 0.84295 0.83284 0.87562 0.0
C3147 C 0.85237 0.84031 0.8953 0.0
C3148 C 0.86185 0.87428 0.91008 0.0
C3149 C 0.88812 0.88578 0.98316 0.0
C3150 C 0.87861 0.87732 0.9628 0.0
C3151 C 0.85024 0.85341 0.90307 0.0
C3152 C 0.86023 0.86151 0.92329 0.0
H3153 H 0.92025 0.88831 0.99792 0.0
H3154 H 0.90416 0.87304 0.97278 0.0
H3155 H 0.87189 0.89191 0.91902 0.0
H3156 H 0.82022 0.85591 0.86171 0.0
H3157 H 0.83634 0.86877 0.89732 0.0
C3158 C 0.91897 0.09426 0.62579 0.0
C3159 C 0.91242 0.083 0.6145 0.0
C3160 C 0.91253 0.10424 0.64645 0.0
C3161 C 0.88519 0.11097 0.71492 0.0
H3162 H 0.88396 0.14435 0.6609 0.0
C3163 C 0.84553 0.14706 0.75243 0.0
C3164 C 0.84805 0.16022 0.74946 0.0
C3165 C 0.85489 0.13814 0.7415 0.0
C3166 C 0.88441 0.1352 0.67709 0.0
H3167 H 0.89407 0.07326 0.61657 0.0
H3168 H 0.88294 0.09056 0.6534 0.0
H3169 H 0.89787 0.12779 0.63153 0.0
H3170 H 0.86259 0.17438 0.73465 0.0
H3171 H 0.87911 0.15879 0.71687 0.0
H3172 H 0.87181 0.11825 0.76058 0.0
C3173 C 0.89302 0.09168 0.64601 0.0
C3174 C 0.89235 0.12572 0.66008 0.0
C3175 C 0.89937 0.08184 0.62467 0.0
C3176 C 0.86032 0.16429 0.73689 0.0
C3177 C 0.86976 0.15535 0.72646 0.0
C3178 C 0.87742 0.12049 0.73236 0.0
C3179 C 0.89952 0.10296 0.65696 0.0
C3180 C 0.89252 0.11344 0.67821 0.0
C3181 C 0.86709 0.14216 0.72791 0.0
C3182 C 0.87664 0.13261 0.71292 0.0
H3183 H 0.92903 0.09542 0.61825 0.0
H3184 H 0.9177 0.11289 0.6546 0.0
H3185 H 0.88531 0.10158 0.72969 0.0
H3186 H 0.83616 0.1436 0.76182 0.0
H3187 H 0.85238 0.12808 0.74228 0.0
C3188 C 0.65784 0.16485 0.3903 0.0
C3189 C 0.66555 0.15936 0.35826 0.0
C3190 C 0.64877 0.15744 0.41195 0.0
C3191 C 0.64077 0.1237 0.43608 0.0
H3192 H 0.60732 0.13741 0.46403 0.0
C3193 C 0.60377 0.09319 0.5258 0.0
C3194 C 0.59128 0.09352 0.5092 0.0
C3195 C 0.6128 0.1023 0.51314 0.0
C3196 C 0.61661 0.13343 0.45635 0.0
H3197 H 0.66949 0.14192 0.32288 0.0
H3198 H 0.65349 0.12914 0.35979 0.0
H3199 H 0.62301 0.15098 0.42822 0.0
H3200 H 0.57832 0.10398 0.46761 0.0
H3201 H 0.59411 0.11962 0.4448 0.0
H3202 H 0.63423 0.106 0.46225 0.0
C3203 C 0.65468 0.13905 0.36907 0.0
C3204 C 0.62565 0.14125 0.43624 0.0
C3205 C 0.66379 0.14642 0.34766 0.0
C3206 C 0.58786 0.10345 0.48105 0.0
C3207 C 0.59691 0.11249 0.46815 0.0
C3208 C 0.63173 0.11587 0.45592 0.0
C3209 C 0.64717 0.14443 0.40183 0.0
C3210 C 0.63777 0.13641 0.42531 0.0
C3211 C 0.60956 0.11187 0.48336 0.0
C3212 C 0.61948 0.12059 0.46582 0.0
H3213 H 0.659 0.17479 0.39934 0.0
H3214 H 0.64321 0.16185 0.43725 0.0
H3215 H 0.6501 0.11974 0.42883 0.0
H3216 H 0.60667 0.08575 0.54791 0.0
H3217 H 0.62239 0.1017 0.52611 0.0
C3218 C 0.63815 0.83431 0.22664 0.0
C3219 C 0.64976 0.83923 0.24245 0.0
C3220 C 0.62841 0.84257 0.21333 0.0
C3221 C 0.61819 0.87669 0.21877 0.0
H3222 H 0.60091 0.86906 0.11176 0.0
C3223 C 0.5981 0.91489 0.10685 0.0
C3224 C 0.58506 0.91397 0.09629 0.0
C3225 C 0.60424 0.90488 0.12789 0.0
C3226 C 0.60553 0.87119 0.142 0.0
H3227 H 0.66018 0.85667 0.25705 0.0
H3228 H 0.64347 0.87098 0.23278 0.0
H3229 H 0.61498 0.85304 0.14406 0.0
H3230 H 0.56831 0.9017 0.09838 0.0
H3231 H 0.57931 0.88389 0.13422 0.0
H3232 H 0.60935 0.89514 0.21504 0.0
C3233 C 0.64168 0.86077 0.23162 0.0
C3234 C 0.61354 0.86203 0.16062 0.0
C3235 C 0.65134 0.85255 0.24523 0.0
C3236 C 0.57835 0.90268 0.10628 0.0
C3237 C 0.58461 0.89252 0.12664 0.0
C3238 C 0.61036 0.88588 0.19982 0.0
C3239 C 0.63012 0.85591 0.21533 0.0
C3240 C 0.62024 0.86482 0.19864 0.0
C3241 C 0.59754 0.89366 0.13811 0.0
C3242 C 0.60423 0.8833 0.16083 0.0
H3243 H 0.63662 0.82408 0.22431 0.0
H3244 H 0.61957 0.83851 0.20138 0.0
H3245 H 0.62292 0.87903 0.24863 0.0
H3246 H 0.60352 0.92348 0.09973 0.0
H3247 H 0.61426 0.90588 0.13614 0.0
C3248 C 0.64654 0.66508 0.71782 0.0
C3249 C 0.65945 0.66134 0.71816 0.0
C3250 C 0.63736 0.65758 0.69733 0.0
C3251 C 0.61851 0.63721 0.67166 0.0
H3252 H 0.62758 0.61836 0.56896 0.0
C3253 C 0.58137 0.61006 0.56968 0.0
C3254 C 0.58419 0.59697 0.56548 0.0
C3255 C 0.59069 0.61855 0.58458 0.0
C3256 C 0.62496 0.62362 0.59758 0.0
H3257 H 0.67283 0.64662 0.69841 0.0
H3258 H 0.65672 0.63319 0.66435 0.0
H3259 H 0.64355 0.63193 0.6036 0.0
H3260 H 0.59909 0.58262 0.57116 0.0
H3261 H 0.61545 0.59756 0.59617 0.0
H3262 H 0.59982 0.62904 0.66481 0.0
C3263 C 0.65373 0.64215 0.67856 0.0
C3264 C 0.6341 0.63129 0.61769 0.0
C3265 C 0.66295 0.64978 0.69844 0.0
C3266 C 0.59665 0.59265 0.57435 0.0
C3267 C 0.60601 0.60118 0.58842 0.0
C3268 C 0.60933 0.62972 0.6511 0.0
C3269 C 0.64083 0.64602 0.67735 0.0
C3270 C 0.63103 0.63808 0.65527 0.0
C3271 C 0.60302 0.61413 0.59457 0.0
C3272 C 0.61251 0.62278 0.61416 0.0
H3273 H 0.64357 0.67402 0.73235 0.0
H3274 H 0.62759 0.661 0.69643 0.0
H3275 H 0.61584 0.64209 0.70093 0.0
H3276 H 0.57184 0.61364 0.56316 0.0
H3277 H 0.58822 0.62854 0.58895 0.0
C3278 C 0.63998 0.32603 0.85759 0.0
C3279 C 0.65293 0.32808 0.84756 0.0
C3280 C 0.63301 0.33534 0.87954 0.0
C3281 C 0.63106 0.36946 0.89798 0.0
H3282 H 0.61103 0.36028 0.99801 0.0
C3283 C 0.60128 0.40718 0.98782 0.0
C3284 C 0.58905 0.40336 0.0014 0.0
C3285 C 0.61015 0.39812 0.97367 0.0
C3286 C 0.61646 0.36298 0.96988 0.0
H3287 H 0.66869 0.34156 0.85212 0.0
H3288 H 0.65635 0.35797 0.88966 0.0
H3289 H 0.62422 0.34412 0.96286 0.0
H3290 H 0.57659 0.38703 0.0117 0.0
H3291 H 0.59182 0.37131 0.98568 0.0
H3292 H 0.62294 0.38813 0.90346 0.0
C3293 C 0.65169 0.34909 0.88084 0.0
C3294 C 0.62403 0.35374 0.94993 0.0
C3295 C 0.65873 0.33969 0.8595 0.0
C3296 C 0.58597 0.39028 0.00163 0.0
C3297 C 0.59475 0.38124 0.98693 0.0
C3298 C 0.62333 0.37867 0.9175 0.0
C3299 C 0.6388 0.34695 0.89124 0.0
C3300 C 0.6313 0.35688 0.91362 0.0
C3301 C 0.6069 0.38506 0.97223 0.0
C3302 C 0.61583 0.37551 0.95346 0.0
H3303 H 0.63526 0.31717 0.84892 0.0
H3304 H 0.62303 0.33355 0.88689 0.0
H3305 H 0.63651 0.37207 0.86977 0.0
H3306 H 0.60398 0.4172 0.98769 0.0
H3307 H 0.6195 0.40138 0.96346 0.0
C3308 C 0.83251 0.35373 0.23145 0.0
C3309 C 0.83548 0.3414 0.2464 0.0
C3310 C 0.84219 0.36189 0.21711 0.0
C3311 C 0.87285 0.3608 0.16485 0.0
H3312 H 0.87657 0.3962 0.19988 0.0
C3313 C 0.9135 0.39256 0.09933 0.0
C3314 C 0.91092 0.4056 0.09276 0.0
C3315 C 0.90459 0.38475 0.12005 0.0
C3316 C 0.87555 0.38639 0.18921 0.0
H3317 H 0.85094 0.32807 0.25925 0.0
H3318 H 0.86783 0.34228 0.2332 0.0
H3319 H 0.86047 0.38273 0.23424 0.0
H3320 H 0.89686 0.42062 0.10153 0.0
H3321 H 0.88107 0.40692 0.13585 0.0
H3322 H 0.88744 0.36445 0.11857 0.0
C3323 C 0.85801 0.34561 0.23293 0.0
C3324 C 0.8664 0.37868 0.20918 0.0
C3325 C 0.84836 0.33753 0.24801 0.0
C3326 C 0.89915 0.41062 0.10647 0.0
C3327 C 0.89015 0.40277 0.12651 0.0
C3328 C 0.88184 0.36854 0.14434 0.0
C3329 C 0.85497 0.35777 0.21679 0.0
C3330 C 0.86498 0.36583 0.19714 0.0
C3331 C 0.8928 0.38976 0.13399 0.0
C3332 C 0.8833 0.38146 0.15619 0.0
H3333 H 0.82267 0.35698 0.22999 0.0
H3334 H 0.83964 0.37122 0.20462 0.0
H3335 H 0.87179 0.35094 0.15462 0.0
H3336 H 0.92255 0.38844 0.08946 0.0
H3337 H 0.90708 0.37484 0.12584 0.0
C3338 C 0.83615 0.66269 0.35887 0.0
C3339 C 0.84185 0.67422 0.34576 0.0
C3340 C 0.84348 0.65313 0.37818 0.0
C3341 C 0.87722 0.64273 0.39189 0.0
H3342 H 0.86268 0.62103 0.48026 0.0
C3343 C 0.90747 0.60768 0.49128 0.0
C3344 C 0.9032 0.59492 0.49013 0.0
C3345 C 0.89965 0.61753 0.47638 0.0
C3346 C 0.86681 0.62702 0.45553 0.0
H3347 H 0.85961 0.68494 0.34356 0.0
H3348 H 0.87231 0.66852 0.37876 0.0
H3349 H 0.84977 0.63817 0.44923 0.0
H3350 H 0.88721 0.58254 0.47424 0.0
H3351 H 0.87342 0.59991 0.44898 0.0
H3352 H 0.89437 0.63174 0.3992 0.0
C3353 C 0.86227 0.66663 0.3729 0.0
C3354 C 0.85942 0.63678 0.43754 0.0
C3355 C 0.85498 0.67609 0.35293 0.0
C3356 C 0.89077 0.59227 0.47533 0.0
C3357 C 0.88287 0.60218 0.46108 0.0
C3358 C 0.88465 0.63313 0.41039 0.0
C3359 C 0.85664 0.65498 0.38544 0.0
C3360 C 0.86453 0.64473 0.40533 0.0
C3361 C 0.88736 0.61485 0.46076 0.0
C3362 C 0.87949 0.62517 0.4422 0.0
H3363 H 0.82605 0.66095 0.35349 0.0
H3364 H 0.83886 0.64421 0.38667 0.0
H3365 H 0.8814 0.64844 0.36653 0.0
H3366 H 0.91699 0.61003 0.50249 0.0
H3367 H 0.90326 0.62726 0.47669 0.0
C3368 C 0.39942 0.40214 0.48116 0.0
C3369 C 0.4126 0.39967 0.47822 0.0
C3370 C 0.39054 0.39295 0.46843 0.0
C3371 C 0.38745 0.36406 0.40084 0.0
H3372 H 0.35428 0.36221 0.45638 0.0
C3373 C 0.34645 0.32882 0.35364 0.0
C3374 C 0.33496 0.33518 0.34388 0.0
C3375 C 0.35661 0.33546 0.37254 0.0
C3376 C 0.36354 0.36261 0.44075 0.0
H3377 H 0.42681 0.38545 0.4608 0.0
H3378 H 0.41126 0.36921 0.43974 0.0
H3379 H 0.37099 0.3757 0.48694 0.0
H3380 H 0.32506 0.35343 0.34644 0.0
H3381 H 0.34269 0.3649 0.38029 0.0
H3382 H 0.37987 0.35081 0.35485 0.0
C3383 C 0.40779 0.37839 0.45089 0.0
C3384 C 0.37308 0.37039 0.45799 0.0
C3385 C 0.41671 0.38767 0.46317 0.0
C3386 C 0.33381 0.34827 0.35344 0.0
C3387 C 0.34384 0.35482 0.37303 0.0
C3388 C 0.37795 0.35611 0.38399 0.0
C3389 C 0.39459 0.38097 0.453 0.0
C3390 C 0.38503 0.3715 0.43759 0.0
C3391 C 0.3553 0.34847 0.38276 0.0
C3392 C 0.36583 0.35559 0.40324 0.0
H3393 H 0.39593 0.41131 0.49236 0.0
H3394 H 0.38048 0.3954 0.46966 0.0
H3395 H 0.39648 0.36478 0.38399 0.0
H3396 H 0.34761 0.31874 0.34651 0.0
H3397 H 0.3654 0.33041 0.37979 0.0
C3398 C 0.35412 0.66405 0.23299 0.0
C3399 C 0.34156 0.66031 0.24294 0.0
C3400 C 0.36315 0.65497 0.22032 0.0
C3401 C 0.36913 0.61982 0.21522 0.0
H3402 H 0.39258 0.62969 0.12464 0.0
C3403 C 0.39783 0.58392 0.11227 0.0
C3404 C 0.41105 0.58626 0.10967 0.0
C3405 C 0.38969 0.59297 0.13069 0.0
C3406 C 0.38614 0.62686 0.15015 0.0
H3407 H 0.32862 0.64415 0.24808 0.0
H3408 H 0.34419 0.62839 0.22439 0.0
H3409 H 0.37775 0.64544 0.15371 0.0
H3410 H 0.42611 0.59996 0.1237 0.0
H3411 H 0.41176 0.61592 0.1549 0.0
H3412 H 0.37726 0.60105 0.21004 0.0
C3413 C 0.34723 0.63825 0.22749 0.0
C3414 C 0.37769 0.63588 0.16707 0.0
C3415 C 0.33826 0.6473 0.24086 0.0
C3416 C 0.41596 0.59789 0.12532 0.0
C3417 C 0.40778 0.60702 0.14304 0.0
C3418 C 0.37743 0.61075 0.19775 0.0
C3419 C 0.35976 0.64199 0.21659 0.0
C3420 C 0.36906 0.63248 0.19978 0.0
C3421 C 0.39461 0.60459 0.14611 0.0
C3422 C 0.38597 0.6142 0.16506 0.0
H3423 H 0.35696 0.67401 0.23473 0.0
H3424 H 0.37278 0.65817 0.21318 0.0
H3425 H 0.3628 0.6169 0.24089 0.0
H3426 H 0.39379 0.57503 0.10062 0.0
H3427 H 0.37953 0.59095 0.13248 0.0
C3428 C 0.10191 0.58664 0.00807 0.0
C3429 C 0.08885 0.58986 0.0085 0.0
C3430 C 0.11097 0.59533 0.99283 0.0
C3431 C 0.11765 0.62891 0.97126 0.0
H3432 H 0.13862 0.61596 0.87835 0.0
C3433 C 0.15009 0.66205 0.87041 0.0
C3434 C 0.16186 0.6571 0.85632 0.0
C3435 C 0.14112 0.65409 0.89022 0.0
C3436 C 0.13303 0.6197 0.90473 0.0
H3437 H 0.07512 0.60496 0.99564 0.0
H3438 H 0.09107 0.62026 0.96976 0.0
H3439 H 0.12348 0.60178 0.91378 0.0
H3440 H 0.17357 0.64 0.85262 0.0
H3441 H 0.1582 0.62625 0.88847 0.0
H3442 H 0.12739 0.64675 0.96311 0.0
C3443 C 0.09421 0.61096 0.98086 0.0
C3444 C 0.12432 0.61158 0.92486 0.0
C3445 C 0.08511 0.60219 0.99548 0.0
C3446 C 0.16452 0.64407 0.86269 0.0
C3447 C 0.15566 0.63617 0.88307 0.0
C3448 C 0.12653 0.63701 0.95158 0.0
C3449 C 0.10716 0.60747 0.97842 0.0
C3450 C 0.11656 0.61611 0.95822 0.0
C3451 C 0.14381 0.64104 0.89691 0.0
C3452 C 0.13432 0.63251 0.918 0.0
H3453 H 0.10511 0.57723 0.01789 0.0
H3454 H 0.12093 0.5925 0.99154 0.0
H3455 H 0.11177 0.63258 0.99707 0.0
H3456 H 0.14775 0.67206 0.86574 0.0
H3457 H 0.13202 0.65814 0.89977 0.0
C3458 C 0.08316 0.4017 0.59587 0.0
C3459 C 0.0879 0.41376 0.58381 0.0
C3460 C 0.09132 0.39254 0.61348 0.0
C3461 C 0.10817 0.37831 0.67548 0.0
H3462 H 0.14353 0.37497 0.6394 0.0
C3463 C 0.14196 0.33693 0.72469 0.0
C3464 C 0.15428 0.34051 0.73826 0.0
C3465 C 0.13355 0.34607 0.70828 0.0
C3466 C 0.13369 0.3759 0.64996 0.0
H3467 H 0.10491 0.4256 0.57991 0.0
H3468 H 0.11906 0.40979 0.61188 0.0
H3469 H 0.12953 0.39005 0.60259 0.0
H3470 H 0.16732 0.3565 0.74645 0.0
H3471 H 0.15265 0.37243 0.71705 0.0
H3472 H 0.11234 0.36381 0.72199 0.0
C3473 C 0.10912 0.40726 0.60686 0.0
C3474 C 0.12568 0.38455 0.629 0.0
C3475 C 0.101 0.41636 0.58866 0.0
C3476 C 0.15788 0.35345 0.73633 0.0
C3477 C 0.14954 0.36255 0.71928 0.0
C3478 C 0.11614 0.36953 0.69599 0.0
C3479 C 0.10435 0.3953 0.62001 0.0
C3480 C 0.11282 0.38589 0.64159 0.0
C3481 C 0.13739 0.35889 0.70457 0.0
C3482 C 0.12897 0.36831 0.6835 0.0
H3483 H 0.07312 0.39939 0.59218 0.0
H3484 H 0.08737 0.38332 0.62225 0.0
H3485 H 0.0984 0.37927 0.68665 0.0
H3486 H 0.1389 0.32703 0.7259 0.0
H3487 H 0.12422 0.34304 0.69698 0.0
loop_
_geom_bond_atom_site_label_1
_geom_bond_atom_site_label_2
_geom_bond_distance
_geom_bond_site_symmetry_2
_ccdc_geom_bond_type
Co0 O3 1.970 . S
Co0 N17 1.989 . S
Co0 O25 1.967 . S
Co0 O32 1.920 . S
Co1 O4 1.966 . S
Co1 N10 2.022 1_554 S
Co1 N18 1.993 1_554 S
Co1 O26 1.941 . S
C2 O3 1.258 . S
C2 O4 1.263 . S
O3 Co0 1.970 . S
O3 C2 1.258 . S
O4 Co1 1.966 . S
O4 C2 1.263 . S
C5 O6 1.235 . S
C5 O32 1.289 . S
O6 C5 1.235 . S
C7 C9 1.400 . S
C7 N10 1.351 . S
C7 C12 1.501 . S
C8 C9 1.387 . S
C8 N11 1.341 . S
C9 C7 1.400 . S
C9 C8 1.387 . S
N10 Co1 2.022 1_556 S
N10 C7 1.351 . S
N10 N11 1.365 . S
N11 C8 1.341 . S
N11 N10 1.365 . S
N11 H31 0.862 . S
C12 C7 1.501 . S
C12 H13 0.961 1_556 S
C12 H14 0.961 . S
C12 H15 0.960 . S
H13 C12 0.961 1_554 S
H14 C12 0.961 . S
H15 C12 0.960 . S
C16 N17 1.342 . S
C16 C20 1.401 1_554 S
C16 C21 1.499 . S
N17 Co0 1.989 . S
N17 C16 1.342 . S
N17 N18 1.388 1_554 S
N18 Co1 1.993 1_556 S
N18 N17 1.388 1_556 S
N18 C19 1.346 . S
C19 N18 1.346 . S
C19 C20 1.396 . S
C19 C29 1.510 . S
C20 C16 1.401 1_556 S
C20 C19 1.396 . S
C21 C16 1.499 . S
C21 H22 0.959 . S
C21 H23 0.960 . S
C21 H24 0.961 . S
H22 C21 0.959 . S
H23 C21 0.960 . S
H24 C21 0.961 . S
O25 Co0 1.967 . S
O25 C33 1.258 . S
O26 Co1 1.941 . S
O26 C33 1.266 . S
H27 C29 0.959 . S
H28 C29 0.961 . S
C29 C19 1.510 . S
C29 H27 0.959 . S
C29 H28 0.961 . S
C29 H30 0.960 . S
H30 C29 0.960 . S
H31 N11 0.862 . S
O32 Co0 1.920 . S
O32 C5 1.289 . S
C33 O25 1.258 . S
C33 O26 1.266 . S
Co34 O37 1.970 . S
Co34 N51 1.989 . S
Co34 O59 1.967 . S
Co34 O66 1.920 . S
Co35 O38 1.966 . S
Co35 N44 2.022 . S
Co35 N52 1.993 . S
Co35 O60 1.941 . S
C36 O37 1.258 . S
C36 O38 1.263 . S
O37 Co34 1.970 . S
O37 C36 1.258 . S
O38 Co35 1.966 . S
O38 C36 1.263 . S
C39 O40 1.235 . S
C39 O66 1.289 . S
O40 C39 1.235 . S
C41 C43 1.400 . S
C41 N44 1.351 . S
C41 C46 1.501 . S
C42 C43 1.387 . S
C42 N45 1.341 . S
C43 C41 1.400 . S
C43 C42 1.387 . S
N44 Co35 2.022 . S
N44 C41 1.351 . S
N44 N45 1.365 . S
N45 C42 1.341 . S
N45 N44 1.365 . S
N45 H65 0.862 . S
C46 C41 1.501 . S
C46 H47 0.961 . S
C46 H48 0.961 . S
C46 H49 0.960 . S
H47 C46 0.961 . S
H48 C46 0.961 . S
H49 C46 0.960 . S
C50 N51 1.342 . S
C50 C54 1.401 . S
C50 C55 1.499 . S
N51 Co34 1.989 . S
N51 C50 1.342 . S
N51 N52 1.388 . S
N52 Co35 1.993 . S
N52 N51 1.388 . S
N52 C53 1.346 . S
C53 N52 1.346 . S
C53 C54 1.396 . S
C53 C63 1.510 . S
C54 C50 1.401 . S
C54 C53 1.396 . S
C55 C50 1.499 . S
C55 H56 0.959 . S
C55 H57 0.960 . S
C55 H58 0.961 . S
H56 C55 0.959 . S
H57 C55 0.960 . S
H58 C55 0.961 . S
O59 Co34 1.967 . S
O59 C67 1.258 . S
O60 Co35 1.941 . S
O60 C67 1.266 . S
H61 C63 0.959 . S
H62 C63 0.961 . S
C63 C53 1.510 . S
C63 H61 0.959 . S
C63 H62 0.961 . S
C63 H64 0.960 . S
H64 C63 0.960 . S
H65 N45 0.862 . S
O66 Co34 1.920 . S
O66 C39 1.289 . S
C67 O59 1.258 . S
C67 O60 1.266 . S
Co68 O71 1.970 . S
Co68 N85 1.989 . S
Co68 O93 1.967 . S
Co68 O100 1.920 . S
Co69 O72 1.966 . S
Co69 N78 2.022 . S
Co69 N86 1.993 . S
Co69 O94 1.941 . S
C70 O71 1.258 . S
C70 O72 1.263 . S
O71 Co68 1.970 . S
O71 C70 1.258 . S
O72 Co69 1.966 . S
O72 C70 1.263 . S
C73 O74 1.235 . S
C73 O100 1.289 . S
O74 C73 1.235 . S
C75 C77 1.400 . S
C75 N78 1.351 . S
C75 C80 1.501 . S
C76 C77 1.387 . S
C76 N79 1.341 . S
C77 C75 1.400 . S
C77 C76 1.387 . S
N78 Co69 2.022 . S
N78 C75 1.351 . S
N78 N79 1.365 . S
N79 C76 1.341 . S
N79 N78 1.365 . S
N79 H99 0.862 . S
C80 C75 1.501 . S
C80 H81 0.961 . S
C80 H82 0.961 . S
C80 H83 0.960 . S
H81 C80 0.961 . S
H82 C80 0.961 . S
H83 C80 0.960 . S
C84 N85 1.342 . S
C84 C88 1.401 . S
C84 C89 1.499 . S
N85 Co68 1.989 . S
N85 C84 1.342 . S
N85 N86 1.388 . S
N86 Co69 1.993 . S
N86 N85 1.388 . S
N86 C87 1.346 . S
C87 N86 1.346 . S
C87 C88 1.396 . S
C87 C97 1.510 . S
C88 C84 1.401 . S
C88 C87 1.396 . S
C89 C84 1.499 . S
C89 H90 0.959 . S
C89 H91 0.960 . S
C89 H92 0.961 . S
H90 C89 0.959 . S
H91 C89 0.960 . S
H92 C89 0.961 . S
O93 Co68 1.967 . S
O93 C101 1.258 . S
O94 Co69 1.941 . S
O94 C101 1.266 . S
H95 C97 0.959 . S
H96 C97 0.961 . S
C97 C87 1.510 . S
C97 H95 0.959 . S
C97 H96 0.961 . S
C97 H98 0.960 . S
H98 C97 0.960 . S
H99 N79 0.862 . S
O100 Co68 1.920 . S
O100 C73 1.289 . S
C101 O93 1.258 . S
C101 O94 1.266 . S
Co102 O105 1.970 . S
Co102 N119 1.989 . S
Co102 O127 1.967 . S
Co102 O134 1.920 . S
Co103 O106 1.966 . S
Co103 N112 2.022 . S
Co103 N120 1.993 . S
Co103 O128 1.941 . S
C104 O105 1.258 . S
C104 O106 1.263 . S
O105 Co102 1.970 . S
O105 C104 1.258 . S
O106 Co103 1.966 . S
O106 C104 1.263 . S
C107 O108 1.235 . S
C107 O134 1.289 . S
O108 C107 1.235 . S
C109 C111 1.400 . S
C109 N112 1.351 . S
C109 C114 1.501 . S
C110 C111 1.387 . S
C110 N113 1.341 . S
C111 C109 1.400 . S
C111 C110 1.387 . S
N112 Co103 2.022 . S
N112 C109 1.351 . S
N112 N113 1.365 . S
N113 C110 1.341 . S
N113 N112 1.365 . S
N113 H133 0.862 . S
C114 C109 1.501 . S
C114 H115 0.961 . S
C114 H116 0.961 . S
C114 H117 0.960 . S
H115 C114 0.961 . S
H116 C114 0.961 . S
H117 C114 0.960 . S
C118 N119 1.342 . S
C118 C122 1.401 . S
C118 C123 1.499 . S
N119 Co102 1.989 . S
N119 C118 1.342 . S
N119 N120 1.388 . S
N120 Co103 1.993 . S
N120 N119 1.388 . S
N120 C121 1.346 . S
C121 N120 1.346 . S
C121 C122 1.396 . S
C121 C131 1.510 . S
C122 C118 1.401 . S
C122 C121 1.396 . S
C123 C118 1.499 . S
C123 H124 0.959 . S
C123 H125 0.960 . S
C123 H126 0.961 . S
H124 C123 0.959 . S
H125 C123 0.960 . S
H126 C123 0.961 . S
O127 Co102 1.967 . S
O127 C135 1.258 . S
O128 Co103 1.941 . S
O128 C135 1.266 . S
H129 C131 0.959 . S
H130 C131 0.961 . S
C131 C121 1.510 . S
C131 H129 0.959 . S
C131 H130 0.961 . S
C131 H132 0.960 . S
H132 C131 0.960 . S
H133 N113 0.862 . S
O134 Co102 1.920 . S
O134 C107 1.289 . S
C135 O127 1.258 . S
C135 O128 1.266 . S
Co136 O139 1.970 . S
Co136 N153 1.989 . S
Co136 O161 1.967 . S
Co136 O168 1.920 . S
Co137 O140 1.966 . S
Co137 N146 2.022 . S
Co137 N154 1.993 . S
Co137 O162 1.941 . S
C138 O139 1.258 . S
C138 O140 1.263 . S
O139 Co136 1.970 . S
O139 C138 1.258 . S
O140 Co137 1.966 . S
O140 C138 1.263 . S
C141 O142 1.235 . S
C141 O168 1.289 . S
O142 C141 1.235 . S
C143 C145 1.400 . S
C143 N146 1.351 . S
C143 C148 1.501 . S
C144 C145 1.387 . S
C144 N147 1.341 . S
C145 C143 1.400 . S
C145 C144 1.387 . S
N146 Co137 2.022 . S
N146 C143 1.351 . S
N146 N147 1.365 . S
N147 C144 1.341 . S
N147 N146 1.365 . S
N147 H167 0.862 . S
C148 C143 1.501 . S
C148 H149 0.961 . S
C148 H150 0.961 . S
C148 H151 0.960 . S
H149 C148 0.961 . S
H150 C148 0.961 . S
H151 C148 0.960 . S
C152 N153 1.342 . S
C152 C156 1.401 . S
C152 C157 1.499 . S
N153 Co136 1.989 . S
N153 C152 1.342 . S
N153 N154 1.388 . S
N154 Co137 1.993 . S
N154 N153 1.388 . S
N154 C155 1.346 . S
C155 N154 1.346 . S
C155 C156 1.396 . S
C155 C165 1.510 . S
C156 C152 1.401 . S
C156 C155 1.396 . S
C157 C152 1.499 . S
C157 H158 0.959 . S
C157 H159 0.960 . S
C157 H160 0.961 . S
H158 C157 0.959 . S
H159 C157 0.960 . S
H160 C157 0.961 . S
O161 Co136 1.967 . S
O161 C169 1.258 . S
O162 Co137 1.941 . S
O162 C169 1.266 . S
H163 C165 0.959 . S
H164 C165 0.961 . S
C165 C155 1.510 . S
C165 H163 0.959 . S
C165 H164 0.961 . S
C165 H166 0.960 . S
H166 C165 0.960 . S
H167 N147 0.862 . S
O168 Co136 1.920 . S
O168 C141 1.289 . S
C169 O161 1.258 . S
C169 O162 1.266 . S
Co170 O173 1.970 . S
Co170 N187 1.989 . S
Co170 O195 1.967 . S
Co170 O202 1.920 . S
Co171 O174 1.966 . S
Co171 N180 2.022 . S
Co171 N188 1.993 . S
Co171 O196 1.941 . S
C172 O173 1.258 . S
C172 O174 1.263 . S
O173 Co170 1.970 . S
O173 C172 1.258 . S
O174 Co171 1.966 . S
O174 C172 1.263 . S
C175 O176 1.235 . S
C175 O202 1.289 . S
O176 C175 1.235 . S
C177 C179 1.400 . S
C177 N180 1.351 . S
C177 C182 1.501 . S
C178 C179 1.387 . S
C178 N181 1.341 . S
C179 C177 1.400 . S
C179 C178 1.387 . S
N180 Co171 2.022 . S
N180 C177 1.351 . S
N180 N181 1.365 . S
N181 C178 1.341 . S
N181 N180 1.365 . S
N181 H201 0.862 . S
C182 C177 1.501 . S
C182 H183 0.961 . S
C182 H184 0.961 . S
C182 H185 0.960 . S
H183 C182 0.961 . S
H184 C182 0.961 . S
H185 C182 0.960 . S
C186 N187 1.342 . S
C186 C190 1.401 . S
C186 C191 1.499 . S
N187 Co170 1.989 . S
N187 C186 1.342 . S
N187 N188 1.388 . S
N188 Co171 1.993 . S
N188 N187 1.388 . S
N188 C189 1.346 . S
C189 N188 1.346 . S
C189 C190 1.396 . S
C189 C199 1.510 . S
C190 C186 1.401 . S
C190 C189 1.396 . S
C191 C186 1.499 . S
C191 H192 0.959 . S
C191 H193 0.960 . S
C191 H194 0.961 . S
H192 C191 0.959 . S
H193 C191 0.960 . S
H194 C191 0.961 . S
O195 Co170 1.967 . S
O195 C203 1.258 . S
O196 Co171 1.941 . S
O196 C203 1.266 . S
H197 C199 0.959 . S
H198 C199 0.961 . S
C199 C189 1.510 . S
C199 H197 0.959 . S
C199 H198 0.961 . S
C199 H200 0.960 . S
H200 C199 0.960 . S
H201 N181 0.862 . S
O202 Co170 1.920 . S
O202 C175 1.289 . S
C203 O195 1.258 . S
C203 O196 1.266 . S
Co204 O207 1.970 . S
Co204 N221 1.989 1_556 S
Co204 O229 1.967 . S
Co204 O236 1.920 . S
Co205 O208 1.966 1_554 S
Co205 N214 2.022 . S
Co205 N222 1.993 . S
Co205 O230 1.941 . S
C206 O207 1.258 . S
C206 O208 1.263 . S
O207 Co204 1.970 . S
O207 C206 1.258 . S
O208 Co205 1.966 1_556 S
O208 C206 1.263 . S
C209 O210 1.235 . S
C209 O236 1.289 . S
O210 C209 1.235 . S
C211 C213 1.400 . S
C211 N214 1.351 . S
C211 C216 1.501 . S
C212 C213 1.387 . S
C212 N215 1.341 . S
C213 C211 1.400 . S
C213 C212 1.387 . S
N214 Co205 2.022 . S
N214 C211 1.351 . S
N214 N215 1.365 . S
N215 C212 1.341 . S
N215 N214 1.365 . S
N215 H235 0.862 . S
C216 C211 1.501 . S
C216 H217 0.961 . S
C216 H218 0.961 . S
C216 H219 0.960 . S
H217 C216 0.961 . S
H218 C216 0.961 . S
H219 C216 0.960 . S
C220 N221 1.342 . S
C220 C224 1.401 . S
C220 C225 1.499 . S
N221 Co204 1.989 1_554 S
N221 C220 1.342 . S
N221 N222 1.388 . S
N222 Co205 1.993 . S
N222 N221 1.388 . S
N222 C223 1.346 . S
C223 N222 1.346 . S
C223 C224 1.396 . S
C223 C233 1.510 . S
C224 C220 1.401 . S
C224 C223 1.396 . S
C225 C220 1.499 . S
C225 H226 0.952 1_554 S
C225 H227 0.960 . S
C225 H228 0.961 . S
H226 C225 0.952 1_556 S
H227 C225 0.960 . S
H228 C225 0.961 . S
O229 Co204 1.967 . S
O229 C237 1.258 . S
O230 Co205 1.941 . S
O230 C237 1.266 1_554 S
H231 C233 0.959 . S
H232 C233 0.961 . S
C233 C223 1.510 . S
C233 H231 0.959 . S
C233 H232 0.961 . S
C233 H234 0.960 . S
H234 C233 0.960 . S
H235 N215 0.862 . S
O236 Co204 1.920 . S
O236 C209 1.289 . S
C237 O229 1.258 . S
C237 O230 1.266 1_556 S
Co238 O241 1.970 . S
Co238 N255 1.989 . S
Co238 O263 1.967 . S
Co238 O270 1.920 . S
Co239 O242 1.966 . S
Co239 N248 2.022 . S
Co239 N256 1.993 . S
Co239 O264 1.941 . S
C240 O241 1.258 . S
C240 O242 1.263 . S
O241 Co238 1.970 . S
O241 C240 1.258 . S
O242 Co239 1.966 . S
O242 C240 1.263 . S
C243 O244 1.235 . S
C243 O270 1.289 . S
O244 C243 1.235 . S
C245 C247 1.400 . S
C245 N248 1.351 . S
C245 C250 1.501 . S
C246 C247 1.387 . S
C246 N249 1.341 . S
C247 C245 1.400 . S
C247 C246 1.387 . S
N248 Co239 2.022 . S
N248 C245 1.351 . S
N248 N249 1.365 . S
N249 C246 1.341 . S
N249 N248 1.365 . S
N249 H269 0.862 . S
C250 C245 1.501 . S
C250 H251 0.961 . S
C250 H252 0.961 . S
C250 H253 0.960 . S
H251 C250 0.961 . S
H252 C250 0.961 . S
H253 C250 0.960 . S
C254 N255 1.342 . S
C254 C258 1.401 . S
C254 C259 1.499 . S
N255 Co238 1.989 . S
N255 C254 1.342 . S
N255 N256 1.388 . S
N256 Co239 1.993 . S
N256 N255 1.388 . S
N256 C257 1.346 . S
C257 N256 1.346 . S
C257 C258 1.396 . S
C257 C267 1.510 . S
C258 C254 1.401 . S
C258 C257 1.396 . S
C259 C254 1.499 . S
C259 H260 0.959 . S
C259 H261 0.960 . S
C259 H262 0.961 . S
H260 C259 0.959 . S
H261 C259 0.960 . S
H262 C259 0.961 . S
O263 Co238 1.967 . S
O263 C271 1.258 . S
O264 Co239 1.941 . S
O264 C271 1.266 . S
H265 C267 0.959 . S
H266 C267 0.961 . S
C267 C257 1.510 . S
C267 H265 0.959 . S
C267 H266 0.961 . S
C267 H268 0.960 . S
H268 C267 0.960 . S
H269 N249 0.862 . S
O270 Co238 1.920 . S
O270 C243 1.289 . S
C271 O263 1.258 . S
C271 O264 1.266 . S
Co272 O275 1.970 . S
Co272 N289 1.989 1_556 S
Co272 O297 1.967 . S
Co272 O304 1.920 . S
Co273 O276 1.966 1_554 S
Co273 N282 2.022 . S
Co273 N290 1.993 . S
Co273 O298 1.941 . S
C274 O275 1.258 . S
C274 O276 1.263 . S
O275 Co272 1.970 . S
O275 C274 1.258 . S
O276 Co273 1.966 1_556 S
O276 C274 1.263 . S
C277 O278 1.235 . S
C277 O304 1.289 . S
O278 C277 1.235 . S
C279 C281 1.400 . S
C279 N282 1.351 . S
C279 C284 1.501 . S
C280 C281 1.387 . S
C280 N283 1.341 . S
C281 C279 1.400 . S
C281 C280 1.387 . S
N282 Co273 2.022 . S
N282 C279 1.351 . S
N282 N283 1.365 . S
N283 C280 1.341 . S
N283 N282 1.365 . S
N283 H303 0.862 . S
C284 C279 1.501 . S
C284 H285 0.961 . S
C284 H286 0.961 . S
C284 H287 0.960 . S
H285 C284 0.961 . S
H286 C284 0.961 . S
H287 C284 0.960 . S
C288 N289 1.342 . S
C288 C292 1.401 . S
C288 C293 1.499 . S
N289 Co272 1.989 1_554 S
N289 C288 1.342 . S
N289 N290 1.388 . S
N290 Co273 1.993 . S
N290 N289 1.388 . S
N290 C291 1.346 . S
C291 N290 1.346 . S
C291 C292 1.396 . S
C291 C301 1.510 . S
C292 C288 1.401 . S
C292 C291 1.396 . S
C293 C288 1.499 . S
C293 H294 0.959 1_554 S
C293 H295 0.960 . S
C293 H296 0.961 . S
H294 C293 0.959 1_556 S
H295 C293 0.960 . S
H296 C293 0.961 . S
O297 Co272 1.967 . S
O297 C305 1.258 . S
O298 Co273 1.941 . S
O298 C305 1.266 1_554 S
H299 C301 0.959 . S
H300 C301 0.961 . S
C301 C291 1.510 . S
C301 H299 0.959 . S
C301 H300 0.961 . S
C301 H302 0.960 . S
H302 C301 0.960 . S
H303 N283 0.862 . S
O304 Co272 1.920 . S
O304 C277 1.289 . S
C305 O297 1.258 . S
C305 O298 1.266 1_556 S
Co306 O309 1.970 . S
Co306 N323 1.989 . S
Co306 O331 1.967 . S
Co306 O338 1.920 . S
Co307 O310 1.966 . S
Co307 N316 2.022 . S
Co307 N324 1.993 . S
Co307 O332 1.941 . S
C308 O309 1.258 . S
C308 O310 1.263 . S
O309 Co306 1.970 . S
O309 C308 1.258 . S
O310 Co307 1.966 . S
O310 C308 1.263 . S
C311 O312 1.235 . S
C311 O338 1.289 . S
O312 C311 1.235 . S
C313 C315 1.400 . S
C313 N316 1.351 . S
C313 C318 1.501 . S
C314 C315 1.387 . S
C314 N317 1.341 . S
C315 C313 1.400 . S
C315 C314 1.387 . S
N316 Co307 2.022 . S
N316 C313 1.351 . S
N316 N317 1.365 . S
N317 C314 1.341 . S
N317 N316 1.365 . S
N317 H337 0.862 . S
C318 C313 1.501 . S
C318 H319 0.961 . S
C318 H320 0.961 . S
C318 H321 0.960 . S
H319 C318 0.961 . S
H320 C318 0.961 . S
H321 C318 0.960 . S
C322 N323 1.342 . S
C322 C326 1.401 . S
C322 C327 1.499 . S
N323 Co306 1.989 . S
N323 C322 1.342 . S
N323 N324 1.388 . S
N324 Co307 1.993 . S
N324 N323 1.388 . S
N324 C325 1.346 . S
C325 N324 1.346 . S
C325 C326 1.396 . S
C325 C335 1.510 . S
C326 C322 1.401 . S
C326 C325 1.396 . S
C327 C322 1.499 . S
C327 H328 0.959 . S
C327 H329 0.960 . S
C327 H330 0.961 . S
H328 C327 0.959 . S
H329 C327 0.960 . S
H330 C327 0.961 . S
O331 Co306 1.967 . S
O331 C339 1.258 . S
O332 Co307 1.941 . S
O332 C339 1.266 . S
H333 C335 0.959 . S
H334 C335 0.961 . S
C335 C325 1.510 . S
C335 H333 0.959 . S
C335 H334 0.961 . S
C335 H336 0.960 . S
H336 C335 0.960 . S
H337 N317 0.862 . S
O338 Co306 1.920 . S
O338 C311 1.289 . S
C339 O331 1.258 . S
C339 O332 1.266 . S
Co340 O343 1.970 . S
Co340 N357 1.989 . S
Co340 O365 1.967 . S
Co340 O372 1.920 . S
Co341 O344 1.966 . S
Co341 N350 2.022 . S
Co341 N358 1.993 . S
Co341 O366 1.941 . S
C342 O343 1.258 . S
C342 O344 1.263 . S
O343 Co340 1.970 . S
O343 C342 1.258 . S
O344 Co341 1.966 . S
O344 C342 1.263 . S
C345 O346 1.235 . S
C345 O372 1.289 . S
O346 C345 1.235 . S
C347 C349 1.400 . S
C347 N350 1.351 . S
C347 C352 1.501 . S
C348 C349 1.387 . S
C348 N351 1.341 . S
C349 C347 1.400 . S
C349 C348 1.387 . S
N350 Co341 2.022 . S
N350 C347 1.351 . S
N350 N351 1.365 . S
N351 C348 1.341 . S
N351 N350 1.365 . S
N351 H371 0.862 . S
C352 C347 1.501 . S
C352 H353 0.961 . S
C352 H354 0.961 . S
C352 H355 0.960 . S
H353 C352 0.961 . S
H354 C352 0.961 . S
H355 C352 0.960 . S
C356 N357 1.342 . S
C356 C360 1.401 . S
C356 C361 1.499 . S
N357 Co340 1.989 . S
N357 C356 1.342 . S
N357 N358 1.388 . S
N358 Co341 1.993 . S
N358 N357 1.388 . S
N358 C359 1.346 . S
C359 N358 1.346 . S
C359 C360 1.396 . S
C359 C369 1.510 . S
C360 C356 1.401 . S
C360 C359 1.396 . S
C361 C356 1.499 . S
C361 H362 0.959 . S
C361 H363 0.960 . S
C361 H364 0.961 . S
H362 C361 0.959 . S
H363 C361 0.960 . S
H364 C361 0.961 . S
O365 Co340 1.967 . S
O365 C373 1.258 . S
O366 Co341 1.941 . S
O366 C373 1.266 . S
H367 C369 0.959 . S
H368 C369 0.961 . S
C369 C359 1.510 . S
C369 H367 0.959 . S
C369 H368 0.961 . S
C369 H370 0.960 . S
H370 C369 0.960 . S
H371 N351 0.862 . S
O372 Co340 1.920 . S
O372 C345 1.289 . S
C373 O365 1.258 . S
C373 O366 1.266 . S
Co374 O377 1.970 . S
Co374 N391 1.989 . S
Co374 O399 1.967 . S
Co374 O406 1.920 . S
Co375 O378 1.966 . S
Co375 N384 2.022 . S
Co375 N392 1.993 . S
Co375 O400 1.941 . S
C376 O377 1.258 . S
C376 O378 1.263 . S
O377 Co374 1.970 . S
O377 C376 1.258 . S
O378 Co375 1.966 . S
O378 C376 1.263 . S
C379 O380 1.235 . S
C379 O406 1.289 . S
O380 C379 1.235 . S
C381 C383 1.400 . S
C381 N384 1.351 . S
C381 C386 1.501 . S
C382 C383 1.387 . S
C382 N385 1.341 . S
C383 C381 1.400 . S
C383 C382 1.387 . S
N384 Co375 2.022 . S
N384 C381 1.351 . S
N384 N385 1.365 . S
N385 C382 1.341 . S
N385 N384 1.365 . S
N385 H405 0.862 . S
C386 C381 1.501 . S
C386 H387 0.961 . S
C386 H388 0.961 . S
C386 H389 0.960 . S
H387 C386 0.961 . S
H388 C386 0.961 . S
H389 C386 0.960 . S
C390 N391 1.342 . S
C390 C394 1.401 . S
C390 C395 1.499 . S
N391 Co374 1.989 . S
N391 C390 1.342 . S
N391 N392 1.388 . S
N392 Co375 1.993 . S
N392 N391 1.388 . S
N392 C393 1.346 . S
C393 N392 1.346 . S
C393 C394 1.396 . S
C393 C403 1.510 . S
C394 C390 1.401 . S
C394 C393 1.396 . S
C395 C390 1.499 . S
C395 H396 0.959 . S
C395 H397 0.960 . S
C395 H398 0.961 . S
H396 C395 0.959 . S
H397 C395 0.960 . S
H398 C395 0.961 . S
O399 Co374 1.967 . S
O399 C407 1.258 . S
O400 Co375 1.941 . S
O400 C407 1.266 . S
H401 C403 0.959 . S
H402 C403 0.961 . S
C403 C393 1.510 . S
C403 H401 0.959 . S
C403 H402 0.961 . S
C403 H404 0.960 . S
H404 C403 0.960 . S
H405 N385 0.862 . S
O406 Co374 1.920 . S
O406 C379 1.289 . S
C407 O399 1.258 . S
C407 O400 1.266 . S
Co408 O411 1.970 . S
Co408 N425 1.989 . S
Co408 O433 1.967 . S
Co408 O440 1.920 . S
Co409 O412 1.966 . S
Co409 N418 2.022 . S
Co409 N426 1.993 . S
Co409 O434 1.941 . S
C410 O411 1.258 . S
C410 O412 1.263 . S
O411 Co408 1.970 . S
O411 C410 1.258 . S
O412 Co409 1.966 . S
O412 C410 1.263 . S
C413 O414 1.235 . S
C413 O440 1.289 . S
O414 C413 1.235 . S
C415 C417 1.400 . S
C415 N418 1.351 . S
C415 C420 1.501 . S
C416 C417 1.387 . S
C416 N419 1.341 . S
C417 C415 1.400 . S
C417 C416 1.387 . S
N418 Co409 2.022 . S
N418 C415 1.351 . S
N418 N419 1.365 . S
N419 C416 1.341 . S
N419 N418 1.365 . S
N419 H439 0.862 . S
C420 C415 1.501 . S
C420 H421 0.961 . S
C420 H422 0.961 . S
C420 H423 0.960 . S
H421 C420 0.961 . S
H422 C420 0.961 . S
H423 C420 0.960 . S
C424 N425 1.342 . S
C424 C428 1.401 . S
C424 C429 1.499 . S
N425 Co408 1.989 . S
N425 C424 1.342 . S
N425 N426 1.388 . S
N426 Co409 1.993 . S
N426 N425 1.388 . S
N426 C427 1.346 . S
C427 N426 1.346 . S
C427 C428 1.396 . S
C427 C437 1.510 . S
C428 C424 1.401 . S
C428 C427 1.396 . S
C429 C424 1.499 . S
C429 H430 0.959 . S
C429 H431 0.960 . S
C429 H432 0.961 . S
H430 C429 0.959 . S
H431 C429 0.960 . S
H432 C429 0.961 . S
O433 Co408 1.967 . S
O433 C441 1.258 . S
O434 Co409 1.941 . S
O434 C441 1.266 . S
H435 C437 0.959 . S
H436 C437 0.961 . S
C437 C427 1.510 . S
C437 H435 0.959 . S
C437 H436 0.961 . S
C437 H438 0.960 . S
H438 C437 0.960 . S
H439 N419 0.862 . S
O440 Co408 1.920 . S
O440 C413 1.289 . S
C441 O433 1.258 . S
C441 O434 1.266 . S
Co442 O445 1.970 . S
Co442 N459 1.989 . S
Co442 O467 1.967 . S
Co442 O474 1.920 . S
Co443 O446 1.966 . S
Co443 N452 2.022 . S
Co443 N460 1.993 . S
Co443 O468 1.941 . S
C444 O445 1.258 . S
C444 O446 1.263 . S
O445 Co442 1.970 . S
O445 C444 1.258 . S
O446 Co443 1.966 . S
O446 C444 1.263 . S
C447 O448 1.235 . S
C447 O474 1.289 . S
O448 C447 1.235 . S
C449 C451 1.400 . S
C449 N452 1.351 . S
C449 C454 1.501 . S
C450 C451 1.387 . S
C450 N453 1.341 . S
C451 C449 1.400 . S
C451 C450 1.387 . S
N452 Co443 2.022 . S
N452 C449 1.351 . S
N452 N453 1.365 . S
N453 C450 1.341 . S
N453 N452 1.365 . S
N453 H473 0.862 . S
C454 C449 1.501 . S
C454 H455 0.961 . S
C454 H456 0.961 . S
C454 H457 0.960 . S
H455 C454 0.961 . S
H456 C454 0.961 . S
H457 C454 0.960 . S
C458 N459 1.342 . S
C458 C462 1.401 . S
C458 C463 1.499 . S
N459 Co442 1.989 . S
N459 C458 1.342 . S
N459 N460 1.388 . S
N460 Co443 1.993 . S
N460 N459 1.388 . S
N460 C461 1.346 . S
C461 N460 1.346 . S
C461 C462 1.396 . S
C461 C471 1.510 . S
C462 C458 1.401 . S
C462 C461 1.396 . S
C463 C458 1.499 . S
C463 H464 0.959 . S
C463 H465 0.960 . S
C463 H466 0.961 . S
H464 C463 0.959 . S
H465 C463 0.960 . S
H466 C463 0.961 . S
O467 Co442 1.967 . S
O467 C475 1.258 . S
O468 Co443 1.941 . S
O468 C475 1.266 . S
H469 C471 0.959 . S
H470 C471 0.961 . S
C471 C461 1.510 . S
C471 H469 0.959 . S
C471 H470 0.961 . S
C471 H472 0.960 . S
H472 C471 0.960 . S
H473 N453 0.862 . S
O474 Co442 1.920 . S
O474 C447 1.289 . S
C475 O467 1.258 . S
C475 O468 1.266 . S
Co476 O479 1.970 . S
Co476 N493 1.989 . S
Co476 O501 1.967 . S
Co476 O508 1.920 . S
Co477 O480 1.966 . S
Co477 N486 2.022 1_554 S
Co477 N494 1.993 1_554 S
Co477 O502 1.941 . S
C478 O479 1.258 . S
C478 O480 1.263 . S
O479 Co476 1.970 . S
O479 C478 1.258 . S
O480 Co477 1.966 . S
O480 C478 1.263 . S
C481 O482 1.235 . S
C481 O508 1.289 . S
O482 C481 1.235 . S
C483 C485 1.400 . S
C483 N486 1.351 . S
C483 C488 1.501 . S
C484 C485 1.387 . S
C484 N487 1.341 . S
C485 C483 1.400 . S
C485 C484 1.387 . S
N486 Co477 2.022 1_556 S
N486 C483 1.351 . S
N486 N487 1.365 . S
N487 C484 1.341 . S
N487 N486 1.365 . S
N487 H507 0.862 . S
C488 C483 1.501 . S
C488 H489 0.961 1_556 S
C488 H490 0.961 . S
C488 H491 0.960 . S
H489 C488 0.961 1_554 S
H490 C488 0.961 . S
H491 C488 0.960 . S
C492 N493 1.342 . S
C492 C496 1.401 1_554 S
C492 C497 1.499 . S
N493 Co476 1.989 . S
N493 C492 1.342 . S
N493 N494 1.388 1_554 S
N494 Co477 1.993 1_556 S
N494 N493 1.388 1_556 S
N494 C495 1.346 . S
C495 N494 1.346 . S
C495 C496 1.396 . S
C495 C505 1.510 . S
C496 C492 1.401 1_556 S
C496 C495 1.396 . S
C497 C492 1.499 . S
C497 H498 0.959 . S
C497 H499 0.960 . S
C497 H500 0.961 . S
H498 C497 0.959 . S
H499 C497 0.960 . S
H500 C497 0.961 . S
O501 Co476 1.967 . S
O501 C509 1.258 . S
O502 Co477 1.941 . S
O502 C509 1.266 . S
H503 C505 0.959 . S
H504 C505 0.961 . S
C505 C495 1.510 . S
C505 H503 0.959 . S
C505 H504 0.961 . S
C505 H506 0.960 . S
H506 C505 0.960 . S
H507 N487 0.862 . S
O508 Co476 1.920 . S
O508 C481 1.289 . S
C509 O501 1.258 . S
C509 O502 1.266 . S
Co510 O513 1.970 . S
Co510 N527 1.989 . S
Co510 O535 1.967 . S
Co510 O542 1.920 . S
Co511 O514 1.966 . S
Co511 N520 2.022 . S
Co511 N528 1.993 . S
Co511 O536 1.941 . S
C512 O513 1.258 . S
C512 O514 1.263 . S
O513 Co510 1.970 . S
O513 C512 1.258 . S
O514 Co511 1.966 . S
O514 C512 1.263 . S
C515 O516 1.235 . S
C515 O542 1.289 . S
O516 C515 1.235 . S
C517 C519 1.400 . S
C517 N520 1.351 . S
C517 C522 1.501 . S
C518 C519 1.387 . S
C518 N521 1.341 . S
C519 C517 1.400 . S
C519 C518 1.387 . S
N520 Co511 2.022 . S
N520 C517 1.351 . S
N520 N521 1.365 . S
N521 C518 1.341 . S
N521 N520 1.365 . S
N521 H541 0.862 . S
C522 C517 1.501 . S
C522 H523 0.961 . S
C522 H524 0.961 . S
C522 H525 0.960 . S
H523 C522 0.961 . S
H524 C522 0.961 . S
H525 C522 0.960 . S
C526 N527 1.342 . S
C526 C530 1.401 . S
C526 C531 1.499 . S
N527 Co510 1.989 . S
N527 C526 1.342 . S
N527 N528 1.388 . S
N528 Co511 1.993 . S
N528 N527 1.388 . S
N528 C529 1.346 . S
C529 N528 1.346 . S
C529 C530 1.396 . S
C529 C539 1.510 . S
C530 C526 1.401 . S
C530 C529 1.396 . S
C531 C526 1.499 . S
C531 H532 0.959 . S
C531 H533 0.960 . S
C531 H534 0.961 . S
H532 C531 0.959 . S
H533 C531 0.960 . S
H534 C531 0.961 . S
O535 Co510 1.967 . S
O535 C543 1.258 . S
O536 Co511 1.941 . S
O536 C543 1.266 . S
H537 C539 0.959 . S
H538 C539 0.961 . S
C539 C529 1.510 . S
C539 H537 0.959 . S
C539 H538 0.961 . S
C539 H540 0.960 . S
H540 C539 0.960 . S
H541 N521 0.862 . S
O542 Co510 1.920 . S
O542 C515 1.289 . S
C543 O535 1.258 . S
C543 O536 1.266 . S
Co544 O547 1.970 . S
Co544 N561 1.989 . S
Co544 O569 1.967 . S
Co544 O576 1.920 . S
Co545 O548 1.966 . S
Co545 N554 2.022 . S
Co545 N562 1.993 . S
Co545 O570 1.941 . S
C546 O547 1.258 . S
C546 O548 1.263 . S
O547 Co544 1.970 . S
O547 C546 1.258 . S
O548 Co545 1.966 . S
O548 C546 1.263 . S
C549 O550 1.235 . S
C549 O576 1.289 . S
O550 C549 1.235 . S
C551 C553 1.400 . S
C551 N554 1.351 . S
C551 C556 1.501 . S
C552 C553 1.387 . S
C552 N555 1.341 . S
C553 C551 1.400 . S
C553 C552 1.387 . S
N554 Co545 2.022 . S
N554 C551 1.351 . S
N554 N555 1.365 . S
N555 C552 1.341 . S
N555 N554 1.365 . S
N555 H575 0.862 . S
C556 C551 1.501 . S
C556 H557 0.961 . S
C556 H558 0.961 . S
C556 H559 0.960 . S
H557 C556 0.961 . S
H558 C556 0.961 . S
H559 C556 0.960 . S
C560 N561 1.342 . S
C560 C564 1.401 . S
C560 C565 1.499 . S
N561 Co544 1.989 . S
N561 C560 1.342 . S
N561 N562 1.388 . S
N562 Co545 1.993 . S
N562 N561 1.388 . S
N562 C563 1.346 . S
C563 N562 1.346 . S
C563 C564 1.396 . S
C563 C573 1.510 . S
C564 C560 1.401 . S
C564 C563 1.396 . S
C565 C560 1.499 . S
C565 H566 0.959 . S
C565 H567 0.960 . S
C565 H568 0.961 . S
H566 C565 0.959 . S
H567 C565 0.960 . S
H568 C565 0.961 . S
O569 Co544 1.967 . S
O569 C577 1.258 . S
O570 Co545 1.941 . S
O570 C577 1.266 . S
H571 C573 0.959 . S
H572 C573 0.961 . S
C573 C563 1.510 . S
C573 H571 0.959 . S
C573 H572 0.961 . S
C573 H574 0.960 . S
H574 C573 0.960 . S
H575 N555 0.862 . S
O576 Co544 1.920 . S
O576 C549 1.289 . S
C577 O569 1.258 . S
C577 O570 1.266 . S
Co578 O581 1.970 . S
Co578 N595 1.989 . S
Co578 O603 1.967 . S
Co578 O610 1.920 . S
Co579 O582 1.966 . S
Co579 N588 2.022 . S
Co579 N596 1.993 . S
Co579 O604 1.941 . S
C580 O581 1.258 . S
C580 O582 1.263 . S
O581 Co578 1.970 . S
O581 C580 1.258 . S
O582 Co579 1.966 . S
O582 C580 1.263 . S
C583 O584 1.235 . S
C583 O610 1.289 . S
O584 C583 1.235 . S
C585 C587 1.400 . S
C585 N588 1.351 . S
C585 C590 1.501 . S
C586 C587 1.387 . S
C586 N589 1.341 . S
C587 C585 1.400 . S
C587 C586 1.387 . S
N588 Co579 2.022 . S
N588 C585 1.351 . S
N588 N589 1.365 . S
N589 C586 1.341 . S
N589 N588 1.365 . S
N589 H609 0.862 . S
C590 C585 1.501 . S
C590 H591 0.961 . S
C590 H592 0.961 . S
C590 H593 0.960 . S
H591 C590 0.961 . S
H592 C590 0.961 . S
H593 C590 0.960 . S
C594 N595 1.342 . S
C594 C598 1.401 . S
C594 C599 1.499 . S
N595 Co578 1.989 . S
N595 C594 1.342 . S
N595 N596 1.388 . S
N596 Co579 1.993 . S
N596 N595 1.388 . S
N596 C597 1.346 . S
C597 N596 1.346 . S
C597 C598 1.396 . S
C597 C607 1.510 . S
C598 C594 1.401 . S
C598 C597 1.396 . S
C599 C594 1.499 . S
C599 H600 0.959 . S
C599 H601 0.960 . S
C599 H602 0.961 . S
H600 C599 0.959 . S
H601 C599 0.960 . S
H602 C599 0.961 . S
O603 Co578 1.967 . S
O603 C611 1.258 . S
O604 Co579 1.941 . S
O604 C611 1.266 . S
H605 C607 0.959 . S
H606 C607 0.961 . S
C607 C597 1.510 . S
C607 H605 0.959 . S
C607 H606 0.961 . S
C607 H608 0.960 . S
H608 C607 0.960 . S
H609 N589 0.862 . S
O610 Co578 1.920 . S
O610 C583 1.289 . S
C611 O603 1.258 . S
C611 O604 1.266 . S
Co612 O615 1.970 . S
Co612 N629 1.989 . S
Co612 O637 1.967 . S
Co612 O644 1.920 . S
Co613 O616 1.966 . S
Co613 N622 2.022 1_554 S
Co613 N630 1.993 1_554 S
Co613 O638 1.941 . S
C614 O615 1.258 . S
C614 O616 1.263 . S
O615 Co612 1.970 . S
O615 C614 1.258 . S
O616 Co613 1.966 . S
O616 C614 1.263 . S
C617 O618 1.235 . S
C617 O644 1.289 . S
O618 C617 1.235 . S
C619 C621 1.400 . S
C619 N622 1.351 . S
C619 C624 1.501 . S
C620 C621 1.387 . S
C620 N623 1.341 . S
C621 C619 1.400 . S
C621 C620 1.387 . S
N622 Co613 2.022 1_556 S
N622 C619 1.351 . S
N622 N623 1.365 . S
N623 C620 1.341 . S
N623 N622 1.365 . S
N623 H643 0.862 . S
C624 C619 1.501 . S
C624 H625 0.961 1_556 S
C624 H626 0.961 . S
C624 H627 0.960 . S
H625 C624 0.961 1_554 S
H626 C624 0.961 . S
H627 C624 0.960 . S
C628 N629 1.342 . S
C628 C632 1.401 1_554 S
C628 C633 1.499 . S
N629 Co612 1.989 . S
N629 C628 1.342 . S
N629 N630 1.388 1_554 S
N630 Co613 1.993 1_556 S
N630 N629 1.388 1_556 S
N630 C631 1.346 . S
C631 N630 1.346 . S
C631 C632 1.396 . S
C631 C641 1.510 . S
C632 C628 1.401 1_556 S
C632 C631 1.396 . S
C633 C628 1.499 . S
C633 H634 0.959 . S
C633 H635 0.960 . S
C633 H636 0.961 . S
H634 C633 0.959 . S
H635 C633 0.960 . S
H636 C633 0.961 . S
O637 Co612 1.967 . S
O637 C645 1.258 . S
O638 Co613 1.941 . S
O638 C645 1.266 . S
H639 C641 0.959 . S
H640 C641 0.961 . S
C641 C631 1.510 . S
C641 H639 0.959 . S
C641 H640 0.961 . S
C641 H642 0.960 . S
H642 C641 0.960 . S
H643 N623 0.862 . S
O644 Co612 1.920 . S
O644 C617 1.289 . S
C645 O637 1.258 . S
C645 O638 1.266 . S
Co646 O649 1.970 . S
Co646 N663 1.989 . S
Co646 O671 1.967 . S
Co646 O678 1.920 . S
Co647 O650 1.966 . S
Co647 N656 2.022 . S
Co647 N664 1.993 . S
Co647 O672 1.941 . S
C648 O649 1.258 . S
C648 O650 1.263 . S
O649 Co646 1.970 . S
O649 C648 1.258 . S
O650 Co647 1.966 . S
O650 C648 1.263 . S
C651 O652 1.235 . S
C651 O678 1.289 . S
O652 C651 1.235 . S
C653 C655 1.400 . S
C653 N656 1.351 . S
C653 C658 1.501 . S
C654 C655 1.387 . S
C654 N657 1.341 . S
C655 C653 1.400 . S
C655 C654 1.387 . S
N656 Co647 2.022 . S
N656 C653 1.351 . S
N656 N657 1.365 . S
N657 C654 1.341 . S
N657 N656 1.365 . S
N657 H677 0.862 . S
C658 C653 1.501 . S
C658 H659 0.961 . S
C658 H660 0.961 . S
C658 H661 0.960 . S
H659 C658 0.961 . S
H660 C658 0.961 . S
H661 C658 0.960 . S
C662 N663 1.342 . S
C662 C666 1.401 . S
C662 C667 1.499 . S
N663 Co646 1.989 . S
N663 C662 1.342 . S
N663 N664 1.388 . S
N664 Co647 1.993 . S
N664 N663 1.388 . S
N664 C665 1.346 . S
C665 N664 1.346 . S
C665 C666 1.396 . S
C665 C675 1.510 . S
C666 C662 1.401 . S
C666 C665 1.396 . S
C667 C662 1.499 . S
C667 H668 0.959 . S
C667 H669 0.960 . S
C667 H670 0.961 . S
H668 C667 0.959 . S
H669 C667 0.960 . S
H670 C667 0.961 . S
O671 Co646 1.967 . S
O671 C679 1.258 . S
O672 Co647 1.941 . S
O672 C679 1.266 . S
H673 C675 0.959 . S
H674 C675 0.961 . S
C675 C665 1.510 . S
C675 H673 0.959 . S
C675 H674 0.961 . S
C675 H676 0.960 . S
H676 C675 0.960 . S
H677 N657 0.862 . S
O678 Co646 1.920 . S
O678 C651 1.289 . S
C679 O671 1.258 . S
C679 O672 1.266 . S
Co680 O683 1.970 . S
Co680 N697 1.989 1_556 S
Co680 O705 1.967 . S
Co680 O712 1.920 . S
Co681 O684 1.966 1_554 S
Co681 N690 2.022 . S
Co681 N698 1.993 . S
Co681 O706 1.941 . S
C682 O683 1.258 . S
C682 O684 1.263 . S
O683 Co680 1.970 . S
O683 C682 1.258 . S
O684 Co681 1.966 1_556 S
O684 C682 1.263 . S
C685 O686 1.235 . S
C685 O712 1.289 . S
O686 C685 1.235 . S
C687 C689 1.400 . S
C687 N690 1.351 . S
C687 C692 1.501 . S
C688 C689 1.387 . S
C688 N691 1.341 . S
C689 C687 1.400 . S
C689 C688 1.387 . S
N690 Co681 2.022 . S
N690 C687 1.351 . S
N690 N691 1.365 . S
N691 C688 1.341 . S
N691 N690 1.365 . S
N691 H711 0.862 . S
C692 C687 1.501 . S
C692 H693 0.961 . S
C692 H694 0.961 . S
C692 H695 0.960 . S
H693 C692 0.961 . S
H694 C692 0.961 . S
H695 C692 0.960 . S
C696 N697 1.342 . S
C696 C700 1.401 . S
C696 C701 1.499 . S
N697 Co680 1.989 1_554 S
N697 C696 1.342 . S
N697 N698 1.388 . S
N698 Co681 1.993 . S
N698 N697 1.388 . S
N698 C699 1.346 . S
C699 N698 1.346 . S
C699 C700 1.396 . S
C699 C709 1.510 . S
C700 C696 1.401 . S
C700 C699 1.396 . S
C701 C696 1.499 . S
C701 H702 0.952 1_554 S
C701 H703 0.960 . S
C701 H704 0.961 . S
H702 C701 0.952 1_556 S
H703 C701 0.960 . S
H704 C701 0.961 . S
O705 Co680 1.967 . S
O705 C713 1.258 . S
O706 Co681 1.941 . S
O706 C713 1.266 1_554 S
H707 C709 0.959 . S
H708 C709 0.961 . S
C709 C699 1.510 . S
C709 H707 0.959 . S
C709 H708 0.961 . S
C709 H710 0.960 . S
H710 C709 0.960 . S
H711 N691 0.862 . S
O712 Co680 1.920 . S
O712 C685 1.289 . S
C713 O705 1.258 . S
C713 O706 1.266 1_556 S
Co714 O717 1.970 . S
Co714 N731 1.989 . S
Co714 O739 1.967 . S
Co714 O746 1.920 . S
Co715 O718 1.966 . S
Co715 N724 2.022 . S
Co715 N732 1.993 . S
Co715 O740 1.941 . S
C716 O717 1.258 . S
C716 O718 1.263 . S
O717 Co714 1.970 . S
O717 C716 1.258 . S
O718 Co715 1.966 . S
O718 C716 1.263 . S
C719 O720 1.235 . S
C719 O746 1.289 . S
O720 C719 1.235 . S
C721 C723 1.400 . S
C721 N724 1.351 . S
C721 C726 1.501 . S
C722 C723 1.387 . S
C722 N725 1.341 . S
C723 C721 1.400 . S
C723 C722 1.387 . S
N724 Co715 2.022 . S
N724 C721 1.351 . S
N724 N725 1.365 . S
N725 C722 1.341 . S
N725 N724 1.365 . S
N725 H745 0.862 . S
C726 C721 1.501 . S
C726 H727 0.961 . S
C726 H728 0.961 . S
C726 H729 0.960 . S
H727 C726 0.961 . S
H728 C726 0.961 . S
H729 C726 0.960 . S
C730 N731 1.342 . S
C730 C734 1.401 . S
C730 C735 1.499 . S
N731 Co714 1.989 . S
N731 C730 1.342 . S
N731 N732 1.388 . S
N732 Co715 1.993 . S
N732 N731 1.388 . S
N732 C733 1.346 . S
C733 N732 1.346 . S
C733 C734 1.396 . S
C733 C743 1.510 . S
C734 C730 1.401 . S
C734 C733 1.396 . S
C735 C730 1.499 . S
C735 H736 0.959 . S
C735 H737 0.960 . S
C735 H738 0.961 . S
H736 C735 0.959 . S
H737 C735 0.960 . S
H738 C735 0.961 . S
O739 Co714 1.967 . S
O739 C747 1.258 . S
O740 Co715 1.941 . S
O740 C747 1.266 . S
H741 C743 0.959 . S
H742 C743 0.961 . S
C743 C733 1.510 . S
C743 H741 0.959 . S
C743 H742 0.961 . S
C743 H744 0.960 . S
H744 C743 0.960 . S
H745 N725 0.862 . S
O746 Co714 1.920 . S
O746 C719 1.289 . S
C747 O739 1.258 . S
C747 O740 1.266 . S
Co748 O751 1.970 . S
Co748 N765 1.989 . S
Co748 O773 1.967 . S
Co748 O780 1.920 . S
Co749 O752 1.966 . S
Co749 N758 2.022 . S
Co749 N766 1.993 . S
Co749 O774 1.941 . S
C750 O751 1.258 . S
C750 O752 1.263 . S
O751 Co748 1.970 . S
O751 C750 1.258 . S
O752 Co749 1.966 . S
O752 C750 1.263 . S
C753 O754 1.235 . S
C753 O780 1.289 . S
O754 C753 1.235 . S
C755 C757 1.400 . S
C755 N758 1.351 . S
C755 C760 1.501 . S
C756 C757 1.387 . S
C756 N759 1.341 . S
C757 C755 1.400 . S
C757 C756 1.387 . S
N758 Co749 2.022 . S
N758 C755 1.351 . S
N758 N759 1.365 . S
N759 C756 1.341 . S
N759 N758 1.365 . S
N759 H779 0.862 . S
C760 C755 1.501 . S
C760 H761 0.961 . S
C760 H762 0.961 . S
C760 H763 0.960 . S
H761 C760 0.961 . S
H762 C760 0.961 . S
H763 C760 0.960 . S
C764 N765 1.342 . S
C764 C768 1.401 . S
C764 C769 1.499 . S
N765 Co748 1.989 . S
N765 C764 1.342 . S
N765 N766 1.388 . S
N766 Co749 1.993 . S
N766 N765 1.388 . S
N766 C767 1.346 . S
C767 N766 1.346 . S
C767 C768 1.396 . S
C767 C777 1.510 . S
C768 C764 1.401 . S
C768 C767 1.396 . S
C769 C764 1.499 . S
C769 H770 0.959 . S
C769 H771 0.960 . S
C769 H772 0.961 . S
H770 C769 0.959 . S
H771 C769 0.960 . S
H772 C769 0.961 . S
O773 Co748 1.967 . S
O773 C781 1.258 . S
O774 Co749 1.941 . S
O774 C781 1.266 . S
H775 C777 0.959 . S
H776 C777 0.961 . S
C777 C767 1.510 . S
C777 H775 0.959 . S
C777 H776 0.961 . S
C777 H778 0.960 . S
H778 C777 0.960 . S
H779 N759 0.862 . S
O780 Co748 1.920 . S
O780 C753 1.289 . S
C781 O773 1.258 . S
C781 O774 1.266 . S
Co782 O785 1.970 . S
Co782 N799 1.989 . S
Co782 O807 1.967 . S
Co782 O814 1.920 . S
Co783 O786 1.966 . S
Co783 N792 2.022 . S
Co783 N800 1.993 . S
Co783 O808 1.941 . S
C784 O785 1.258 . S
C784 O786 1.263 . S
O785 Co782 1.970 . S
O785 C784 1.258 . S
O786 Co783 1.966 . S
O786 C784 1.263 . S
C787 O788 1.235 . S
C787 O814 1.289 . S
O788 C787 1.235 . S
C789 C791 1.400 . S
C789 N792 1.351 . S
C789 C794 1.501 . S
C790 C791 1.387 . S
C790 N793 1.341 . S
C791 C789 1.400 . S
C791 C790 1.387 . S
N792 Co783 2.022 . S
N792 C789 1.351 . S
N792 N793 1.365 . S
N793 C790 1.341 . S
N793 N792 1.365 . S
N793 H813 0.862 . S
C794 C789 1.501 . S
C794 H795 0.961 . S
C794 H796 0.961 . S
C794 H797 0.960 . S
H795 C794 0.961 . S
H796 C794 0.961 . S
H797 C794 0.960 . S
C798 N799 1.342 . S
C798 C802 1.401 . S
C798 C803 1.499 . S
N799 Co782 1.989 . S
N799 C798 1.342 . S
N799 N800 1.388 . S
N800 Co783 1.993 . S
N800 N799 1.388 . S
N800 C801 1.346 . S
C801 N800 1.346 . S
C801 C802 1.396 . S
C801 C811 1.510 . S
C802 C798 1.401 . S
C802 C801 1.396 . S
C803 C798 1.499 . S
C803 H804 0.959 . S
C803 H805 0.960 . S
C803 H806 0.961 . S
H804 C803 0.959 . S
H805 C803 0.960 . S
H806 C803 0.961 . S
O807 Co782 1.967 . S
O807 C815 1.258 . S
O808 Co783 1.941 . S
O808 C815 1.266 . S
H809 C811 0.959 . S
H810 C811 0.961 . S
C811 C801 1.510 . S
C811 H809 0.959 . S
C811 H810 0.961 . S
C811 H812 0.960 . S
H812 C811 0.960 . S
H813 N793 0.862 . S
O814 Co782 1.920 . S
O814 C787 1.289 . S
C815 O807 1.258 . S
C815 O808 1.266 . S
Co816 O819 1.970 . S
Co816 N833 1.989 . S
Co816 O841 1.967 . S
Co816 O848 1.920 . S
Co817 O820 1.966 . S
Co817 N826 2.022 . S
Co817 N834 1.993 . S
Co817 O842 1.941 . S
C818 O819 1.258 . S
C818 O820 1.263 . S
O819 Co816 1.970 . S
O819 C818 1.258 . S
O820 Co817 1.966 . S
O820 C818 1.263 . S
C821 O822 1.235 . S
C821 O848 1.289 . S
O822 C821 1.235 . S
C823 C825 1.400 . S
C823 N826 1.351 . S
C823 C828 1.501 . S
C824 C825 1.387 . S
C824 N827 1.341 . S
C825 C823 1.400 . S
C825 C824 1.387 . S
N826 Co817 2.022 . S
N826 C823 1.351 . S
N826 N827 1.365 . S
N827 C824 1.341 . S
N827 N826 1.365 . S
N827 H847 0.862 . S
C828 C823 1.501 . S
C828 H829 0.961 . S
C828 H830 0.961 . S
C828 H831 0.960 . S
H829 C828 0.961 . S
H830 C828 0.961 . S
H831 C828 0.960 . S
C832 N833 1.342 . S
C832 C836 1.401 . S
C832 C837 1.499 . S
N833 Co816 1.989 . S
N833 C832 1.342 . S
N833 N834 1.388 . S
N834 Co817 1.993 . S
N834 N833 1.388 . S
N834 C835 1.346 . S
C835 N834 1.346 . S
C835 C836 1.396 . S
C835 C845 1.510 . S
C836 C832 1.401 . S
C836 C835 1.396 . S
C837 C832 1.499 . S
C837 H838 0.959 . S
C837 H839 0.960 . S
C837 H840 0.961 . S
H838 C837 0.959 . S
H839 C837 0.960 . S
H840 C837 0.961 . S
O841 Co816 1.967 . S
O841 C849 1.258 . S
O842 Co817 1.941 . S
O842 C849 1.266 . S
H843 C845 0.959 . S
H844 C845 0.961 . S
C845 C835 1.510 . S
C845 H843 0.959 . S
C845 H844 0.961 . S
C845 H846 0.960 . S
H846 C845 0.960 . S
H847 N827 0.862 . S
O848 Co816 1.920 . S
O848 C821 1.289 . S
C849 O841 1.258 . S
C849 O842 1.266 . S
Co850 O853 1.970 . S
Co850 N867 1.989 . S
Co850 O875 1.967 . S
Co850 O882 1.920 . S
Co851 O854 1.966 . S
Co851 N860 2.022 . S
Co851 N868 1.993 . S
Co851 O876 1.941 . S
C852 O853 1.258 . S
C852 O854 1.263 . S
O853 Co850 1.970 . S
O853 C852 1.258 . S
O854 Co851 1.966 . S
O854 C852 1.263 . S
C855 O856 1.235 . S
C855 O882 1.289 . S
O856 C855 1.235 . S
C857 C859 1.400 . S
C857 N860 1.351 . S
C857 C862 1.501 . S
C858 C859 1.387 . S
C858 N861 1.341 . S
C859 C857 1.400 . S
C859 C858 1.387 . S
N860 Co851 2.022 . S
N860 C857 1.351 . S
N860 N861 1.365 . S
N861 C858 1.341 . S
N861 N860 1.365 . S
N861 H881 0.862 . S
C862 C857 1.501 . S
C862 H863 0.961 . S
C862 H864 0.961 . S
C862 H865 0.960 . S
H863 C862 0.961 . S
H864 C862 0.961 . S
H865 C862 0.960 . S
C866 N867 1.342 . S
C866 C870 1.401 . S
C866 C871 1.499 . S
N867 Co850 1.989 . S
N867 C866 1.342 . S
N867 N868 1.388 . S
N868 Co851 1.993 . S
N868 N867 1.388 . S
N868 C869 1.346 . S
C869 N868 1.346 . S
C869 C870 1.396 . S
C869 C879 1.510 . S
C870 C866 1.401 . S
C870 C869 1.396 . S
C871 C866 1.499 . S
C871 H872 0.959 . S
C871 H873 0.960 . S
C871 H874 0.961 . S
H872 C871 0.959 . S
H873 C871 0.960 . S
H874 C871 0.961 . S
O875 Co850 1.967 . S
O875 C883 1.258 . S
O876 Co851 1.941 . S
O876 C883 1.266 . S
H877 C879 0.959 . S
H878 C879 0.961 . S
C879 C869 1.510 . S
C879 H877 0.959 . S
C879 H878 0.961 . S
C879 H880 0.960 . S
H880 C879 0.960 . S
H881 N861 0.862 . S
O882 Co850 1.920 . S
O882 C855 1.289 . S
C883 O875 1.258 . S
C883 O876 1.266 . S
Co884 O887 1.970 . S
Co884 N901 1.989 1_556 S
Co884 O909 1.967 . S
Co884 O916 1.920 . S
Co885 O888 1.966 1_554 S
Co885 N894 2.022 . S
Co885 N902 1.993 . S
Co885 O910 1.941 . S
C886 O887 1.258 . S
C886 O888 1.263 . S
O887 Co884 1.970 . S
O887 C886 1.258 . S
O888 Co885 1.966 1_556 S
O888 C886 1.263 . S
C889 O890 1.235 . S
C889 O916 1.289 . S
O890 C889 1.235 . S
C891 C893 1.400 . S
C891 N894 1.351 . S
C891 C896 1.501 . S
C892 C893 1.387 . S
C892 N895 1.341 . S
C893 C891 1.400 . S
C893 C892 1.387 . S
N894 Co885 2.022 . S
N894 C891 1.351 . S
N894 N895 1.365 . S
N895 C892 1.341 . S
N895 N894 1.365 . S
N895 H915 0.862 . S
C896 C891 1.501 . S
C896 H897 0.961 . S
C896 H898 0.961 . S
C896 H899 0.960 . S
H897 C896 0.961 . S
H898 C896 0.961 . S
H899 C896 0.960 . S
C900 N901 1.342 . S
C900 C904 1.401 . S
C900 C905 1.499 . S
N901 Co884 1.989 1_554 S
N901 C900 1.342 . S
N901 N902 1.388 . S
N902 Co885 1.993 . S
N902 N901 1.388 . S
N902 C903 1.346 . S
C903 N902 1.346 . S
C903 C904 1.396 . S
C903 C913 1.510 . S
C904 C900 1.401 . S
C904 C903 1.396 . S
C905 C900 1.499 . S
C905 H906 0.959 1_554 S
C905 H907 0.960 . S
C905 H908 0.961 . S
H906 C905 0.959 1_556 S
H907 C905 0.960 . S
H908 C905 0.961 . S
O909 Co884 1.967 . S
O909 C917 1.258 . S
O910 Co885 1.941 . S
O910 C917 1.266 1_554 S
H911 C913 0.959 . S
H912 C913 0.961 . S
C913 C903 1.510 . S
C913 H911 0.959 . S
C913 H912 0.961 . S
C913 H914 0.960 . S
H914 C913 0.960 . S
H915 N895 0.862 . S
O916 Co884 1.920 . S
O916 C889 1.289 . S
C917 O909 1.258 . S
C917 O910 1.266 1_556 S
Co918 O921 1.970 . S
Co918 N935 1.989 . S
Co918 O943 1.967 . S
Co918 O950 1.920 . S
Co919 O922 1.966 . S
Co919 N928 2.022 . S
Co919 N936 1.993 . S
Co919 O944 1.941 . S
C920 O921 1.258 . S
C920 O922 1.263 . S
O921 Co918 1.970 . S
O921 C920 1.258 . S
O922 Co919 1.966 . S
O922 C920 1.263 . S
C923 O924 1.235 . S
C923 O950 1.289 . S
O924 C923 1.235 . S
C925 C927 1.400 . S
C925 N928 1.351 . S
C925 C930 1.501 . S
C926 C927 1.387 . S
C926 N929 1.341 . S
C927 C925 1.400 . S
C927 C926 1.387 . S
N928 Co919 2.022 . S
N928 C925 1.351 . S
N928 N929 1.365 . S
N929 C926 1.341 . S
N929 N928 1.365 . S
N929 H949 0.862 . S
C930 C925 1.501 . S
C930 H931 0.961 . S
C930 H932 0.961 . S
C930 H933 0.960 . S
H931 C930 0.961 . S
H932 C930 0.961 . S
H933 C930 0.960 . S
C934 N935 1.342 . S
C934 C938 1.401 . S
C934 C939 1.499 . S
N935 Co918 1.989 . S
N935 C934 1.342 . S
N935 N936 1.388 . S
N936 Co919 1.993 . S
N936 N935 1.388 . S
N936 C937 1.346 . S
C937 N936 1.346 . S
C937 C938 1.396 . S
C937 C947 1.510 . S
C938 C934 1.401 . S
C938 C937 1.396 . S
C939 C934 1.499 . S
C939 H940 0.959 . S
C939 H941 0.960 . S
C939 H942 0.961 . S
H940 C939 0.959 . S
H941 C939 0.960 . S
H942 C939 0.961 . S
O943 Co918 1.967 . S
O943 C951 1.258 . S
O944 Co919 1.941 . S
O944 C951 1.266 . S
H945 C947 0.959 . S
H946 C947 0.961 . S
C947 C937 1.510 . S
C947 H945 0.959 . S
C947 H946 0.961 . S
C947 H948 0.960 . S
H948 C947 0.960 . S
H949 N929 0.862 . S
O950 Co918 1.920 . S
O950 C923 1.289 . S
C951 O943 1.258 . S
C951 O944 1.266 . S
Co952 O955 1.970 . S
Co952 N969 1.989 . S
Co952 O977 1.967 . S
Co952 O984 1.920 . S
Co953 O956 1.966 . S
Co953 N962 2.022 1_554 S
Co953 N970 1.993 1_554 S
Co953 O978 1.941 . S
C954 O955 1.258 . S
C954 O956 1.263 . S
O955 Co952 1.970 . S
O955 C954 1.258 . S
O956 Co953 1.966 . S
O956 C954 1.263 . S
C957 O958 1.235 . S
C957 O984 1.289 . S
O958 C957 1.235 . S
C959 C961 1.400 . S
C959 N962 1.351 . S
C959 C964 1.501 . S
C960 C961 1.387 . S
C960 N963 1.341 . S
C961 C959 1.400 . S
C961 C960 1.387 . S
N962 Co953 2.022 1_556 S
N962 C959 1.351 . S
N962 N963 1.365 . S
N963 C960 1.341 . S
N963 N962 1.365 . S
N963 H983 0.862 . S
C964 C959 1.501 . S
C964 H965 0.961 1_556 S
C964 H966 0.961 . S
C964 H967 0.960 . S
H965 C964 0.961 1_554 S
H966 C964 0.961 . S
H967 C964 0.960 . S
C968 N969 1.342 . S
C968 C972 1.401 1_554 S
C968 C973 1.499 . S
N969 Co952 1.989 . S
N969 C968 1.342 . S
N969 N970 1.388 1_554 S
N970 Co953 1.993 1_556 S
N970 N969 1.388 1_556 S
N970 C971 1.346 . S
C971 N970 1.346 . S
C971 C972 1.396 . S
C971 C981 1.510 . S
C972 C968 1.401 1_556 S
C972 C971 1.396 . S
C973 C968 1.499 . S
C973 H974 0.959 . S
C973 H975 0.960 . S
C973 H976 0.961 . S
H974 C973 0.959 . S
H975 C973 0.960 . S
H976 C973 0.961 . S
O977 Co952 1.967 . S
O977 C985 1.258 . S
O978 Co953 1.941 . S
O978 C985 1.266 . S
H979 C981 0.959 . S
H980 C981 0.961 . S
C981 C971 1.510 . S
C981 H979 0.959 . S
C981 H980 0.961 . S
C981 H982 0.960 . S
H982 C981 0.960 . S
H983 N963 0.862 . S
O984 Co952 1.920 . S
O984 C957 1.289 . S
C985 O977 1.258 . S
C985 O978 1.266 . S
Co986 O989 1.970 . S
Co986 N1003 1.989 . S
Co986 O1011 1.967 . S
Co986 O1018 1.920 . S
Co987 O990 1.966 . S
Co987 N996 2.022 . S
Co987 N1004 1.993 . S
Co987 O1012 1.941 . S
C988 O989 1.258 . S
C988 O990 1.263 . S
O989 Co986 1.970 . S
O989 C988 1.258 . S
O990 Co987 1.966 . S
O990 C988 1.263 . S
C991 O992 1.235 . S
C991 O1018 1.289 . S
O992 C991 1.235 . S
C993 C995 1.400 . S
C993 N996 1.351 . S
C993 C998 1.501 . S
C994 C995 1.387 . S
C994 N997 1.341 . S
C995 C993 1.400 . S
C995 C994 1.387 . S
N996 Co987 2.022 . S
N996 C993 1.351 . S
N996 N997 1.365 . S
N997 C994 1.341 . S
N997 N996 1.365 . S
N997 H1017 0.862 . S
C998 C993 1.501 . S
C998 H999 0.961 . S
C998 H1000 0.961 . S
C998 H1001 0.960 . S
H999 C998 0.961 . S
H1000 C998 0.961 . S
H1001 C998 0.960 . S
C1002 N1003 1.342 . S
C1002 C1006 1.401 . S
C1002 C1007 1.499 . S
N1003 Co986 1.989 . S
N1003 C1002 1.342 . S
N1003 N1004 1.388 . S
N1004 Co987 1.993 . S
N1004 N1003 1.388 . S
N1004 C1005 1.346 . S
C1005 N1004 1.346 . S
C1005 C1006 1.396 . S
C1005 C1015 1.510 . S
C1006 C1002 1.401 . S
C1006 C1005 1.396 . S
C1007 C1002 1.499 . S
C1007 H1008 0.959 . S
C1007 H1009 0.960 . S
C1007 H1010 0.961 . S
H1008 C1007 0.959 . S
H1009 C1007 0.960 . S
H1010 C1007 0.961 . S
O1011 Co986 1.967 . S
O1011 C1019 1.258 . S
O1012 Co987 1.941 . S
O1012 C1019 1.266 . S
H1013 C1015 0.959 . S
H1014 C1015 0.961 . S
C1015 C1005 1.510 . S
C1015 H1013 0.959 . S
C1015 H1014 0.961 . S
C1015 H1016 0.960 . S
H1016 C1015 0.960 . S
H1017 N997 0.862 . S
O1018 Co986 1.920 . S
O1018 C991 1.289 . S
C1019 O1011 1.258 . S
C1019 O1012 1.266 . S
Co1020 O1023 1.970 . S
Co1020 N1037 1.989 . S
Co1020 O1045 1.967 . S
Co1020 O1052 1.920 . S
Co1021 O1024 1.966 . S
Co1021 N1030 2.022 . S
Co1021 N1038 1.993 . S
Co1021 O1046 1.941 . S
C1022 O1023 1.258 . S
C1022 O1024 1.263 . S
O1023 Co1020 1.970 . S
O1023 C1022 1.258 . S
O1024 Co1021 1.966 . S
O1024 C1022 1.263 . S
C1025 O1026 1.235 . S
C1025 O1052 1.289 . S
O1026 C1025 1.235 . S
C1027 C1029 1.400 . S
C1027 N1030 1.351 . S
C1027 C1032 1.501 . S
C1028 C1029 1.387 . S
C1028 N1031 1.341 . S
C1029 C1027 1.400 . S
C1029 C1028 1.387 . S
N1030 Co1021 2.022 . S
N1030 C1027 1.351 . S
N1030 N1031 1.365 . S
N1031 C1028 1.341 . S
N1031 N1030 1.365 . S
N1031 H1051 0.862 . S
C1032 C1027 1.501 . S
C1032 H1033 0.961 . S
C1032 H1034 0.961 . S
C1032 H1035 0.960 . S
H1033 C1032 0.961 . S
H1034 C1032 0.961 . S
H1035 C1032 0.960 . S
C1036 N1037 1.342 . S
C1036 C1040 1.401 . S
C1036 C1041 1.499 . S
N1037 Co1020 1.989 . S
N1037 C1036 1.342 . S
N1037 N1038 1.388 . S
N1038 Co1021 1.993 . S
N1038 N1037 1.388 . S
N1038 C1039 1.346 . S
C1039 N1038 1.346 . S
C1039 C1040 1.396 . S
C1039 C1049 1.510 . S
C1040 C1036 1.401 . S
C1040 C1039 1.396 . S
C1041 C1036 1.499 . S
C1041 H1042 0.959 . S
C1041 H1043 0.960 . S
C1041 H1044 0.961 . S
H1042 C1041 0.959 . S
H1043 C1041 0.960 . S
H1044 C1041 0.961 . S
O1045 Co1020 1.967 . S
O1045 C1053 1.258 . S
O1046 Co1021 1.941 . S
O1046 C1053 1.266 . S
H1047 C1049 0.959 . S
H1048 C1049 0.961 . S
C1049 C1039 1.510 . S
C1049 H1047 0.959 . S
C1049 H1048 0.961 . S
C1049 H1050 0.960 . S
H1050 C1049 0.960 . S
H1051 N1031 0.862 . S
O1052 Co1020 1.920 . S
O1052 C1025 1.289 . S
C1053 O1045 1.258 . S
C1053 O1046 1.266 . S
Co1054 O1057 1.970 . S
Co1054 N1071 1.989 . S
Co1054 O1079 1.967 . S
Co1054 O1086 1.920 . S
Co1055 O1058 1.966 . S
Co1055 N1064 2.022 . S
Co1055 N1072 1.993 . S
Co1055 O1080 1.941 . S
C1056 O1057 1.258 . S
C1056 O1058 1.263 . S
O1057 Co1054 1.970 . S
O1057 C1056 1.258 . S
O1058 Co1055 1.966 . S
O1058 C1056 1.263 . S
C1059 O1060 1.235 . S
C1059 O1086 1.289 . S
O1060 C1059 1.235 . S
C1061 C1063 1.400 . S
C1061 N1064 1.351 . S
C1061 C1066 1.501 . S
C1062 C1063 1.387 . S
C1062 N1065 1.341 . S
C1063 C1061 1.400 . S
C1063 C1062 1.387 . S
N1064 Co1055 2.022 . S
N1064 C1061 1.351 . S
N1064 N1065 1.365 . S
N1065 C1062 1.341 . S
N1065 N1064 1.365 . S
N1065 H1085 0.862 . S
C1066 C1061 1.501 . S
C1066 H1067 0.961 . S
C1066 H1068 0.961 . S
C1066 H1069 0.960 . S
H1067 C1066 0.961 . S
H1068 C1066 0.961 . S
H1069 C1066 0.960 . S
C1070 N1071 1.342 . S
C1070 C1074 1.401 . S
C1070 C1075 1.499 . S
N1071 Co1054 1.989 . S
N1071 C1070 1.342 . S
N1071 N1072 1.388 . S
N1072 Co1055 1.993 . S
N1072 N1071 1.388 . S
N1072 C1073 1.346 . S
C1073 N1072 1.346 . S
C1073 C1074 1.396 . S
C1073 C1083 1.510 . S
C1074 C1070 1.401 . S
C1074 C1073 1.396 . S
C1075 C1070 1.499 . S
C1075 H1076 0.959 . S
C1075 H1077 0.960 . S
C1075 H1078 0.961 . S
H1076 C1075 0.959 . S
H1077 C1075 0.960 . S
H1078 C1075 0.961 . S
O1079 Co1054 1.967 . S
O1079 C1087 1.258 . S
O1080 Co1055 1.941 . S
O1080 C1087 1.266 . S
H1081 C1083 0.959 . S
H1082 C1083 0.961 . S
C1083 C1073 1.510 . S
C1083 H1081 0.959 . S
C1083 H1082 0.961 . S
C1083 H1084 0.960 . S
H1084 C1083 0.960 . S
H1085 N1065 0.862 . S
O1086 Co1054 1.920 . S
O1086 C1059 1.289 . S
C1087 O1079 1.258 . S
C1087 O1080 1.266 . S
C1088 C1089 1.349 . S
C1088 C1090 1.327 . S
C1088 H1113 0.950 . S
C1089 C1088 1.349 . S
C1089 C1105 1.349 . S
C1090 C1088 1.327 . S
C1090 C1109 1.429 . S
C1090 H1114 0.950 . S
C1091 C1108 1.574 1_565 S
C1091 C1110 1.368 . S
C1091 H1115 0.949 . S
H1092 C1096 0.949 . S
C1093 C1094 1.349 . S
C1093 C1095 1.327 . S
C1093 H1116 0.950 . S
C1094 C1093 1.349 . S
C1094 C1106 1.349 . S
C1095 C1093 1.327 . S
C1095 C1111 1.429 . S
C1095 H1117 0.950 . S
C1096 H1092 0.949 . S
C1096 C1104 1.574 1_545 S
C1096 C1112 1.368 . S
H1097 C1105 0.950 . S
H1098 C1103 0.950 . S
H1099 C1104 0.949 . S
H1100 C1106 0.950 . S
H1101 C1107 0.950 . S
H1102 C1108 0.949 . S
C1103 H1098 0.950 . S
C1103 C1105 1.327 . S
C1103 C1109 1.429 . S
C1104 C1096 1.574 1_565 S
C1104 H1099 0.949 . S
C1104 C1110 1.368 . S
C1105 C1089 1.349 . S
C1105 H1097 0.950 . S
C1105 C1103 1.327 . S
C1106 C1094 1.349 . S
C1106 H1100 0.950 . S
C1106 C1107 1.327 . S
C1107 H1101 0.950 . S
C1107 C1106 1.327 . S
C1107 C1111 1.429 . S
C1108 C1091 1.574 1_545 S
C1108 H1102 0.949 . S
C1108 C1112 1.368 . S
C1109 C1090 1.429 . S
C1109 C1103 1.429 . S
C1109 C1110 1.523 . S
C1110 C1091 1.368 . S
C1110 C1104 1.368 . S
C1110 C1109 1.523 . S
C1111 C1095 1.429 . S
C1111 C1107 1.429 . S
C1111 C1112 1.523 . S
C1112 C1096 1.368 . S
C1112 C1108 1.368 . S
C1112 C1111 1.523 . S
H1113 C1088 0.950 . S
H1114 C1090 0.950 . S
H1115 C1091 0.949 . S
H1116 C1093 0.950 . S
H1117 C1095 0.950 . S
C1118 C1119 1.349 . S
C1118 C1120 1.327 . S
C1118 H1143 0.950 . S
C1119 C1118 1.349 . S
C1119 C1135 1.349 . S
C1120 C1118 1.327 . S
C1120 C1139 1.429 . S
C1120 H1144 0.950 . S
C1121 C1138 1.574 1_554 S
C1121 C1140 1.368 . S
C1121 H1145 0.949 . S
H1122 C1126 0.949 . S
C1123 C1124 1.349 . S
C1123 C1125 1.327 . S
C1123 H1146 0.950 . S
C1124 C1123 1.349 . S
C1124 C1136 1.349 . S
C1125 C1123 1.327 . S
C1125 C1141 1.429 . S
C1125 H1147 0.950 . S
C1126 H1122 0.949 . S
C1126 C1134 1.574 . S
C1126 C1142 1.356 1_554 S
H1127 C1135 0.950 . S
H1128 C1133 0.950 . S
H1129 C1134 0.949 . S
H1130 C1136 0.950 . S
H1131 C1137 0.950 . S
H1132 C1138 0.949 . S
C1133 H1128 0.950 . S
C1133 C1135 1.327 . S
C1133 C1139 1.429 . S
C1134 C1126 1.574 . S
C1134 H1129 0.949 . S
C1134 C1140 1.368 . S
C1135 C1119 1.349 . S
C1135 H1127 0.950 . S
C1135 C1133 1.327 . S
C1136 C1124 1.349 . S
C1136 H1130 0.950 . S
C1136 C1137 1.327 . S
C1137 H1131 0.950 . S
C1137 C1136 1.327 . S
C1137 C1141 1.429 . S
C1138 C1121 1.574 1_556 S
C1138 H1132 0.949 . S
C1138 C1142 1.370 . S
C1139 C1120 1.429 . S
C1139 C1133 1.429 . S
C1139 C1140 1.523 . S
C1140 C1121 1.368 . S
C1140 C1134 1.368 . S
C1140 C1139 1.523 . S
C1141 C1125 1.429 . S
C1141 C1137 1.429 . S
C1141 C1142 1.537 . S
C1142 C1126 1.356 1_556 S
C1142 C1138 1.370 . S
C1142 C1141 1.537 . S
H1143 C1118 0.950 . S
H1144 C1120 0.950 . S
H1145 C1121 0.949 . S
H1146 C1123 0.950 . S
H1147 C1125 0.950 . S
C1148 C1149 1.349 . S
C1148 C1150 1.327 . S
C1148 H1173 0.950 . S
C1149 C1148 1.349 . S
C1149 C1165 1.349 . S
C1150 C1148 1.327 . S
C1150 C1169 1.429 . S
C1150 H1174 0.950 . S
C1151 C1168 1.574 . S
C1151 C1170 1.368 . S
C1151 H1175 0.949 . S
H1152 C1156 0.949 . S
C1153 C1154 1.349 . S
C1153 C1155 1.327 . S
C1153 H1176 0.950 . S
C1154 C1153 1.349 . S
C1154 C1166 1.349 . S
C1155 C1153 1.327 . S
C1155 C1171 1.429 . S
C1155 H1177 0.950 . S
C1156 H1152 0.949 . S
C1156 C1164 1.574 . S
C1156 C1172 1.368 . S
H1157 C1165 0.950 . S
H1158 C1163 0.950 . S
H1159 C1164 0.949 . S
H1160 C1166 0.950 . S
H1161 C1167 0.950 . S
H1162 C1168 0.949 . S
C1163 H1158 0.950 . S
C1163 C1165 1.327 . S
C1163 C1169 1.429 . S
C1164 C1156 1.574 . S
C1164 H1159 0.949 . S
C1164 C1170 1.368 1_545 S
C1165 C1149 1.349 . S
C1165 H1157 0.950 . S
C1165 C1163 1.327 . S
C1166 C1154 1.349 . S
C1166 H1160 0.950 . S
C1166 C1167 1.327 . S
C1167 H1161 0.950 . S
C1167 C1166 1.327 . S
C1167 C1171 1.429 . S
C1168 C1151 1.574 . S
C1168 H1162 0.949 . S
C1168 C1172 1.368 1_565 S
C1169 C1150 1.429 . S
C1169 C1163 1.429 . S
C1169 C1170 1.523 . S
C1170 C1151 1.368 . S
C1170 C1164 1.368 1_565 S
C1170 C1169 1.523 . S
C1171 C1155 1.429 . S
C1171 C1167 1.429 . S
C1171 C1172 1.523 . S
C1172 C1156 1.368 . S
C1172 C1168 1.368 1_545 S
C1172 C1171 1.523 . S
H1173 C1148 0.950 . S
H1174 C1150 0.950 . S
H1175 C1151 0.949 . S
H1176 C1153 0.950 . S
H1177 C1155 0.950 . S
C1178 C1179 1.349 . S
C1178 C1180 1.327 . S
C1178 H1203 0.950 . S
C1179 C1178 1.349 . S
C1179 C1195 1.349 . S
C1180 C1178 1.327 . S
C1180 C1199 1.429 . S
C1180 H1204 0.950 . S
C1181 C1198 1.574 . S
C1181 C1200 1.368 . S
C1181 H1205 0.949 . S
H1182 C1186 0.949 . S
C1183 C1184 1.349 . S
C1183 C1185 1.327 . S
C1183 H1206 0.950 . S
C1184 C1183 1.349 . S
C1184 C1196 1.349 . S
C1185 C1183 1.327 . S
C1185 C1201 1.429 . S
C1185 H1207 0.950 . S
C1186 H1182 0.949 . S
C1186 C1194 1.574 . S
C1186 C1202 1.368 . S
H1187 C1195 0.950 . S
H1188 C1193 0.950 . S
H1189 C1194 0.949 . S
H1190 C1196 0.950 . S
H1191 C1197 0.950 . S
H1192 C1198 0.949 . S
C1193 H1188 0.950 . S
C1193 C1195 1.327 . S
C1193 C1199 1.429 . S
C1194 C1186 1.574 . S
C1194 H1189 0.949 . S
C1194 C1200 1.368 . S
C1195 C1179 1.349 . S
C1195 H1187 0.950 . S
C1195 C1193 1.327 . S
C1196 C1184 1.349 . S
C1196 H1190 0.950 . S
C1196 C1197 1.327 . S
C1197 H1191 0.950 . S
C1197 C1196 1.327 . S
C1197 C1201 1.429 . S
C1198 C1181 1.574 . S
C1198 H1192 0.949 . S
C1198 C1202 1.368 . S
C1199 C1180 1.429 . S
C1199 C1193 1.429 . S
C1199 C1200 1.523 . S
C1200 C1181 1.368 . S
C1200 C1194 1.368 . S
C1200 C1199 1.523 . S
C1201 C1185 1.429 . S
C1201 C1197 1.429 . S
C1201 C1202 1.523 . S
C1202 C1186 1.368 . S
C1202 C1198 1.368 . S
C1202 C1201 1.523 . S
H1203 C1178 0.950 . S
H1204 C1180 0.950 . S
H1205 C1181 0.949 . S
H1206 C1183 0.950 . S
H1207 C1185 0.950 . S
C1208 C1209 1.349 . S
C1208 C1210 1.327 . S
C1208 H1233 0.950 . S
C1209 C1208 1.349 . S
C1209 C1225 1.349 . S
C1210 C1208 1.327 . S
C1210 C1229 1.429 . S
C1210 H1234 0.950 . S
C1211 C1228 1.574 . S
C1211 C1230 1.368 . S
C1211 H1235 0.949 . S
H1212 C1216 0.949 . S
C1213 C1214 1.349 . S
C1213 C1215 1.327 . S
C1213 H1236 0.950 . S
C1214 C1213 1.349 . S
C1214 C1226 1.349 . S
C1215 C1213 1.327 . S
C1215 C1231 1.429 . S
C1215 H1237 0.950 . S
C1216 H1212 0.949 . S
C1216 C1224 1.574 . S
C1216 C1232 1.368 . S
H1217 C1225 0.950 . S
H1218 C1223 0.950 . S
H1219 C1224 0.949 . S
H1220 C1226 0.950 . S
H1221 C1227 0.950 . S
H1222 C1228 0.949 . S
C1223 H1218 0.950 . S
C1223 C1225 1.327 . S
C1223 C1229 1.429 . S
C1224 C1216 1.574 . S
C1224 H1219 0.949 . S
C1224 C1230 1.368 1_565 S
C1225 C1209 1.349 . S
C1225 H1217 0.950 . S
C1225 C1223 1.327 . S
C1226 C1214 1.349 . S
C1226 H1220 0.950 . S
C1226 C1227 1.327 . S
C1227 H1221 0.950 . S
C1227 C1226 1.327 . S
C1227 C1231 1.429 . S
C1228 C1211 1.574 . S
C1228 H1222 0.949 . S
C1228 C1232 1.368 1_545 S
C1229 C1210 1.429 . S
C1229 C1223 1.429 . S
C1229 C1230 1.523 . S
C1230 C1211 1.368 . S
C1230 C1224 1.368 1_545 S
C1230 C1229 1.523 . S
C1231 C1215 1.429 . S
C1231 C1227 1.429 . S
C1231 C1232 1.523 . S
C1232 C1216 1.368 . S
C1232 C1228 1.368 1_565 S
C1232 C1231 1.523 . S
H1233 C1208 0.950 . S
H1234 C1210 0.950 . S
H1235 C1211 0.949 . S
H1236 C1213 0.950 . S
H1237 C1215 0.950 . S
C1238 C1239 1.349 . S
C1238 C1240 1.327 . S
C1238 H1263 0.950 . S
C1239 C1238 1.349 . S
C1239 C1255 1.349 . S
C1240 C1238 1.327 . S
C1240 C1259 1.429 . S
C1240 H1264 0.950 . S
C1241 C1258 1.574 . S
C1241 C1260 1.368 . S
C1241 H1265 0.949 . S
H1242 C1246 0.949 . S
C1243 C1244 1.349 . S
C1243 C1245 1.327 . S
C1243 H1266 0.950 . S
C1244 C1243 1.349 . S
C1244 C1256 1.349 . S
C1245 C1243 1.327 . S
C1245 C1261 1.429 . S
C1245 H1267 0.950 . S
C1246 H1242 0.949 . S
C1246 C1254 1.574 1_554 S
C1246 C1262 1.368 . S
H1247 C1255 0.950 . S
H1248 C1253 0.950 . S
H1249 C1254 0.949 . S
H1250 C1256 0.950 . S
H1251 C1257 0.950 . S
H1252 C1258 0.949 . S
C1253 H1248 0.950 . S
C1253 C1255 1.327 . S
C1253 C1259 1.429 . S
C1254 C1246 1.574 1_556 S
C1254 H1249 0.949 . S
C1254 C1260 1.368 1_556 S
C1255 C1239 1.349 . S
C1255 H1247 0.950 . S
C1255 C1253 1.327 . S
C1256 C1244 1.349 . S
C1256 H1250 0.950 . S
C1256 C1257 1.327 . S
C1257 H1251 0.950 . S
C1257 C1256 1.327 . S
C1257 C1261 1.429 . S
C1258 C1241 1.574 . S
C1258 H1252 0.949 . S
C1258 C1262 1.368 . S
C1259 C1240 1.429 . S
C1259 C1253 1.429 . S
C1259 C1260 1.523 1_556 S
C1260 C1241 1.368 . S
C1260 C1254 1.368 1_554 S
C1260 C1259 1.523 1_554 S
C1261 C1245 1.429 . S
C1261 C1257 1.429 . S
C1261 C1262 1.523 . S
C1262 C1246 1.368 . S
C1262 C1258 1.368 . S
C1262 C1261 1.523 . S
H1263 C1238 0.950 . S
H1264 C1240 0.950 . S
H1265 C1241 0.949 . S
H1266 C1243 0.950 . S
H1267 C1245 0.950 . S
C1268 C1269 1.349 . S
C1268 C1270 1.327 . S
C1268 H1293 0.950 . S
C1269 C1268 1.349 . S
C1269 C1285 1.349 . S
C1270 C1268 1.327 . S
C1270 C1289 1.429 . S
C1270 H1294 0.950 . S
C1271 C1288 1.580 1_545 S
C1271 C1290 1.368 . S
C1271 H1295 0.949 . S
H1272 C1276 0.949 . S
C1273 C1274 1.349 . S
C1273 C1275 1.327 . S
C1273 H1296 0.950 . S
C1274 C1273 1.349 . S
C1274 C1286 1.349 . S
C1275 C1273 1.327 . S
C1275 C1291 1.429 . S
C1275 H1297 0.950 . S
C1276 H1272 0.949 . S
C1276 C1284 1.568 . S
C1276 C1292 1.368 . S
H1277 C1285 0.950 . S
H1278 C1283 0.950 . S
H1279 C1284 0.949 1_545 S
H1280 C1286 0.950 . S
H1281 C1287 0.950 . S
H1282 C1288 0.949 . S
C1283 H1278 0.950 . S
C1283 C1285 1.327 . S
C1283 C1289 1.429 . S
C1284 C1276 1.568 . S
C1284 H1279 0.949 1_565 S
C1284 C1290 1.373 1_565 S
C1285 C1269 1.349 . S
C1285 H1277 0.950 . S
C1285 C1283 1.327 . S
C1286 C1274 1.349 . S
C1286 H1280 0.950 . S
C1286 C1287 1.327 . S
C1287 H1281 0.950 . S
C1287 C1286 1.327 . S
C1287 C1291 1.429 . S
C1288 C1271 1.580 1_565 S
C1288 H1282 0.949 . S
C1288 C1292 1.362 . S
C1289 C1270 1.429 . S
C1289 C1283 1.429 . S
C1289 C1290 1.523 . S
C1290 C1271 1.368 . S
C1290 C1284 1.373 1_545 S
C1290 C1289 1.523 . S
C1291 C1275 1.429 . S
C1291 C1287 1.429 . S
C1291 C1292 1.523 . S
C1292 C1276 1.368 . S
C1292 C1288 1.362 . S
C1292 C1291 1.523 . S
H1293 C1268 0.950 . S
H1294 C1270 0.950 . S
H1295 C1271 0.949 . S
H1296 C1273 0.950 . S
H1297 C1275 0.950 . S
C1298 C1299 1.349 . S
C1298 C1300 1.327 . S
C1298 H1323 0.950 . S
C1299 C1298 1.349 . S
C1299 C1315 1.349 . S
C1300 C1298 1.327 . S
C1300 C1319 1.429 . S
C1300 H1324 0.950 . S
C1301 C1318 1.574 . S
C1301 C1320 1.368 . S
C1301 H1325 0.949 . S
H1302 C1306 0.949 . S
C1303 C1304 1.349 . S
C1303 C1305 1.327 . S
C1303 H1326 0.950 . S
C1304 C1303 1.349 . S
C1304 C1316 1.349 . S
C1305 C1303 1.327 . S
C1305 C1321 1.429 . S
C1305 H1327 0.950 . S
C1306 H1302 0.949 . S
C1306 C1314 1.574 . S
C1306 C1322 1.368 . S
H1307 C1315 0.950 . S
H1308 C1313 0.950 . S
H1309 C1314 0.949 . S
H1310 C1316 0.950 . S
H1311 C1317 0.950 . S
H1312 C1318 0.949 . S
C1313 H1308 0.950 . S
C1313 C1315 1.327 . S
C1313 C1319 1.429 . S
C1314 C1306 1.574 . S
C1314 H1309 0.949 . S
C1314 C1320 1.368 . S
C1315 C1299 1.349 . S
C1315 H1307 0.950 . S
C1315 C1313 1.327 . S
C1316 C1304 1.349 . S
C1316 H1310 0.950 . S
C1316 C1317 1.327 . S
C1317 H1311 0.950 . S
C1317 C1316 1.327 . S
C1317 C1321 1.429 . S
C1318 C1301 1.574 . S
C1318 H1312 0.949 . S
C1318 C1322 1.368 . S
C1319 C1300 1.429 . S
C1319 C1313 1.429 . S
C1319 C1320 1.523 . S
C1320 C1301 1.368 . S
C1320 C1314 1.368 . S
C1320 C1319 1.523 . S
C1321 C1305 1.429 . S
C1321 C1317 1.429 . S
C1321 C1322 1.523 . S
C1322 C1306 1.368 . S
C1322 C1318 1.368 . S
C1322 C1321 1.523 . S
H1323 C1298 0.950 . S
H1324 C1300 0.950 . S
H1325 C1301 0.949 . S
H1326 C1303 0.950 . S
H1327 C1305 0.950 . S
C1328 C1329 1.349 . S
C1328 C1330 1.327 . S
C1328 H1353 0.950 . S
C1329 C1328 1.349 . S
C1329 C1345 1.349 . S
C1330 C1328 1.327 . S
C1330 C1349 1.429 . S
C1330 H1354 0.950 . S
C1331 C1348 1.574 . S
C1331 C1350 1.368 . S
C1331 H1355 0.949 . S
H1332 C1336 0.949 . S
C1333 C1334 1.349 . S
C1333 C1335 1.327 . S
C1333 H1356 0.950 . S
C1334 C1333 1.349 . S
C1334 C1346 1.349 . S
C1335 C1333 1.327 . S
C1335 C1351 1.429 . S
C1335 H1357 0.950 . S
C1336 H1332 0.949 . S
C1336 C1344 1.574 . S
C1336 C1352 1.368 . S
H1337 C1345 0.950 . S
H1338 C1343 0.950 . S
H1339 C1344 0.949 . S
H1340 C1346 0.950 . S
H1341 C1347 0.950 . S
H1342 C1348 0.949 . S
C1343 H1338 0.950 . S
C1343 C1345 1.327 . S
C1343 C1349 1.429 . S
C1344 C1336 1.574 . S
C1344 H1339 0.949 . S
C1344 C1350 1.368 . S
C1345 C1329 1.349 . S
C1345 H1337 0.950 . S
C1345 C1343 1.327 . S
C1346 C1334 1.349 . S
C1346 H1340 0.950 . S
C1346 C1347 1.327 . S
C1347 H1341 0.950 . S
C1347 C1346 1.327 . S
C1347 C1351 1.429 . S
C1348 C1331 1.574 . S
C1348 H1342 0.949 . S
C1348 C1352 1.368 . S
C1349 C1330 1.429 . S
C1349 C1343 1.429 . S
C1349 C1350 1.523 . S
C1350 C1331 1.368 . S
C1350 C1344 1.368 . S
C1350 C1349 1.523 . S
C1351 C1335 1.429 . S
C1351 C1347 1.429 . S
C1351 C1352 1.523 . S
C1352 C1336 1.368 . S
C1352 C1348 1.368 . S
C1352 C1351 1.523 . S
H1353 C1328 0.950 . S
H1354 C1330 0.950 . S
H1355 C1331 0.949 . S
H1356 C1333 0.950 . S
H1357 C1335 0.950 . S
C1358 C1359 1.349 . S
C1358 C1360 1.327 . S
C1358 H1383 0.950 . S
C1359 C1358 1.349 . S
C1359 C1375 1.349 . S
C1360 C1358 1.327 . S
C1360 C1379 1.429 . S
C1360 H1384 0.950 . S
C1361 C1378 1.574 . S
C1361 C1380 1.368 . S
C1361 H1385 0.949 . S
H1362 C1366 0.949 . S
C1363 C1364 1.349 . S
C1363 C1365 1.327 . S
C1363 H1386 0.950 . S
C1364 C1363 1.349 . S
C1364 C1376 1.349 . S
C1365 C1363 1.327 . S
C1365 C1381 1.429 . S
C1365 H1387 0.950 . S
C1366 H1362 0.949 . S
C1366 C1374 1.574 . S
C1366 C1382 1.368 . S
H1367 C1375 0.950 . S
H1368 C1373 0.950 . S
H1369 C1374 0.949 . S
H1370 C1376 0.950 . S
H1371 C1377 0.950 . S
H1372 C1378 0.949 . S
C1373 H1368 0.950 . S
C1373 C1375 1.327 . S
C1373 C1379 1.429 . S
C1374 C1366 1.574 . S
C1374 H1369 0.949 . S
C1374 C1380 1.368 . S
C1375 C1359 1.349 . S
C1375 H1367 0.950 . S
C1375 C1373 1.327 . S
C1376 C1364 1.349 . S
C1376 H1370 0.950 . S
C1376 C1377 1.327 . S
C1377 H1371 0.950 . S
C1377 C1376 1.327 . S
C1377 C1381 1.429 . S
C1378 C1361 1.574 . S
C1378 H1372 0.949 . S
C1378 C1382 1.368 . S
C1379 C1360 1.429 . S
C1379 C1373 1.429 . S
C1379 C1380 1.523 . S
C1380 C1361 1.368 . S
C1380 C1374 1.368 . S
C1380 C1379 1.523 . S
C1381 C1365 1.429 . S
C1381 C1377 1.429 . S
C1381 C1382 1.523 . S
C1382 C1366 1.368 . S
C1382 C1378 1.368 . S
C1382 C1381 1.523 . S
H1383 C1358 0.950 . S
H1384 C1360 0.950 . S
H1385 C1361 0.949 . S
H1386 C1363 0.950 . S
H1387 C1365 0.950 . S
C1388 C1389 1.349 . S
C1388 C1390 1.327 . S
C1388 H1413 0.950 . S
C1389 C1388 1.349 . S
C1389 C1405 1.349 . S
C1390 C1388 1.327 . S
C1390 C1409 1.429 . S
C1390 H1414 0.950 . S
C1391 C1408 1.574 . S
C1391 C1410 1.368 . S
C1391 H1415 0.949 . S
H1392 C1396 0.949 . S
C1393 C1394 1.349 . S
C1393 C1395 1.327 . S
C1393 H1416 0.950 . S
C1394 C1393 1.349 . S
C1394 C1406 1.349 . S
C1395 C1393 1.327 . S
C1395 C1411 1.429 . S
C1395 H1417 0.950 . S
C1396 H1392 0.949 . S
C1396 C1404 1.574 . S
C1396 C1412 1.368 . S
H1397 C1405 0.950 . S
H1398 C1403 0.950 . S
H1399 C1404 0.949 . S
H1400 C1406 0.950 . S
H1401 C1407 0.950 . S
H1402 C1408 0.949 . S
C1403 H1398 0.950 . S
C1403 C1405 1.327 . S
C1403 C1409 1.429 . S
C1404 C1396 1.574 . S
C1404 H1399 0.949 . S
C1404 C1410 1.368 . S
C1405 C1389 1.349 . S
C1405 H1397 0.950 . S
C1405 C1403 1.327 . S
C1406 C1394 1.349 . S
C1406 H1400 0.950 . S
C1406 C1407 1.327 . S
C1407 H1401 0.950 . S
C1407 C1406 1.327 . S
C1407 C1411 1.429 . S
C1408 C1391 1.574 . S
C1408 H1402 0.949 . S
C1408 C1412 1.368 . S
C1409 C1390 1.429 . S
C1409 C1403 1.429 . S
C1409 C1410 1.523 . S
C1410 C1391 1.368 . S
C1410 C1404 1.368 . S
C1410 C1409 1.523 . S
C1411 C1395 1.429 . S
C1411 C1407 1.429 . S
C1411 C1412 1.523 . S
C1412 C1396 1.368 . S
C1412 C1408 1.368 . S
C1412 C1411 1.523 . S
H1413 C1388 0.950 . S
H1414 C1390 0.950 . S
H1415 C1391 0.949 . S
H1416 C1393 0.950 . S
H1417 C1395 0.950 . S
C1418 C1419 1.349 . S
C1418 C1420 1.327 . S
C1418 H1443 0.950 . S
C1419 C1418 1.349 . S
C1419 C1435 1.349 . S
C1420 C1418 1.327 . S
C1420 C1439 1.429 . S
C1420 H1444 0.950 . S
C1421 C1438 1.574 1_554 S
C1421 C1440 1.368 . S
C1421 H1445 0.949 . S
H1422 C1426 0.949 . S
C1423 C1424 1.349 . S
C1423 C1425 1.327 . S
C1423 H1446 0.950 . S
C1424 C1423 1.349 . S
C1424 C1436 1.349 . S
C1425 C1423 1.327 . S
C1425 C1441 1.429 . S
C1425 H1447 0.950 . S
C1426 H1422 0.949 . S
C1426 C1434 1.574 . S
C1426 C1442 1.356 1_554 S
H1427 C1435 0.950 . S
H1428 C1433 0.950 . S
H1429 C1434 0.949 . S
H1430 C1436 0.950 . S
H1431 C1437 0.950 . S
H1432 C1438 0.949 . S
C1433 H1428 0.950 . S
C1433 C1435 1.327 . S
C1433 C1439 1.429 . S
C1434 C1426 1.574 . S
C1434 H1429 0.949 . S
C1434 C1440 1.368 . S
C1435 C1419 1.349 . S
C1435 H1427 0.950 . S
C1435 C1433 1.327 . S
C1436 C1424 1.349 . S
C1436 H1430 0.950 . S
C1436 C1437 1.327 . S
C1437 H1431 0.950 . S
C1437 C1436 1.327 . S
C1437 C1441 1.429 . S
C1438 C1421 1.574 1_556 S
C1438 H1432 0.949 . S
C1438 C1442 1.370 . S
C1439 C1420 1.429 . S
C1439 C1433 1.429 . S
C1439 C1440 1.523 . S
C1440 C1421 1.368 . S
C1440 C1434 1.368 . S
C1440 C1439 1.523 . S
C1441 C1425 1.429 . S
C1441 C1437 1.429 . S
C1441 C1442 1.537 . S
C1442 C1426 1.356 1_556 S
C1442 C1438 1.370 . S
C1442 C1441 1.537 . S
H1443 C1418 0.950 . S
H1444 C1420 0.950 . S
H1445 C1421 0.949 . S
H1446 C1423 0.950 . S
H1447 C1425 0.950 . S
C1448 C1449 1.349 . S
C1448 C1450 1.327 . S
C1448 H1473 0.950 . S
C1449 C1448 1.349 . S
C1449 C1465 1.349 . S
C1450 C1448 1.327 . S
C1450 C1469 1.429 . S
C1450 H1474 0.950 . S
C1451 C1468 1.574 . S
C1451 C1470 1.368 . S
C1451 H1475 0.949 . S
H1452 C1456 0.949 . S
C1453 C1454 1.349 . S
C1453 C1455 1.327 . S
C1453 H1476 0.950 . S
C1454 C1453 1.349 . S
C1454 C1466 1.349 . S
C1455 C1453 1.327 . S
C1455 C1471 1.429 . S
C1455 H1477 0.950 . S
C1456 H1452 0.949 . S
C1456 C1464 1.574 . S
C1456 C1472 1.368 . S
H1457 C1465 0.950 . S
H1458 C1463 0.950 . S
H1459 C1464 0.949 . S
H1460 C1466 0.950 . S
H1461 C1467 0.950 . S
H1462 C1468 0.949 . S
C1463 H1458 0.950 . S
C1463 C1465 1.327 . S
C1463 C1469 1.429 . S
C1464 C1456 1.574 . S
C1464 H1459 0.949 . S
C1464 C1470 1.368 . S
C1465 C1449 1.349 . S
C1465 H1457 0.950 . S
C1465 C1463 1.327 . S
C1466 C1454 1.349 . S
C1466 H1460 0.950 . S
C1466 C1467 1.327 . S
C1467 H1461 0.950 . S
C1467 C1466 1.327 . S
C1467 C1471 1.429 . S
C1468 C1451 1.574 . S
C1468 H1462 0.949 . S
C1468 C1472 1.368 . S
C1469 C1450 1.429 . S
C1469 C1463 1.429 . S
C1469 C1470 1.523 . S
C1470 C1451 1.368 . S
C1470 C1464 1.368 . S
C1470 C1469 1.523 . S
C1471 C1455 1.429 . S
C1471 C1467 1.429 . S
C1471 C1472 1.523 . S
C1472 C1456 1.368 . S
C1472 C1468 1.368 . S
C1472 C1471 1.523 . S
H1473 C1448 0.950 . S
H1474 C1450 0.950 . S
H1475 C1451 0.949 . S
H1476 C1453 0.950 . S
H1477 C1455 0.950 . S
C1478 C1479 1.349 . S
C1478 C1480 1.327 . S
C1478 H1503 0.950 . S
C1479 C1478 1.349 . S
C1479 C1495 1.349 . S
C1480 C1478 1.327 . S
C1480 C1499 1.429 . S
C1480 H1504 0.950 . S
C1481 C1498 1.574 . S
C1481 C1500 1.368 . S
C1481 H1505 0.949 . S
H1482 C1486 0.949 . S
C1483 C1484 1.349 . S
C1483 C1485 1.327 . S
C1483 H1506 0.950 . S
C1484 C1483 1.349 . S
C1484 C1496 1.349 . S
C1485 C1483 1.327 . S
C1485 C1501 1.429 . S
C1485 H1507 0.950 . S
C1486 H1482 0.949 . S
C1486 C1494 1.574 . S
C1486 C1502 1.368 . S
H1487 C1495 0.950 . S
H1488 C1493 0.950 . S
H1489 C1494 0.949 . S
H1490 C1496 0.950 . S
H1491 C1497 0.950 . S
H1492 C1498 0.949 . S
C1493 H1488 0.950 . S
C1493 C1495 1.327 . S
C1493 C1499 1.429 . S
C1494 C1486 1.574 . S
C1494 H1489 0.949 . S
C1494 C1500 1.368 . S
C1495 C1479 1.349 . S
C1495 H1487 0.950 . S
C1495 C1493 1.327 . S
C1496 C1484 1.349 . S
C1496 H1490 0.950 . S
C1496 C1497 1.327 . S
C1497 H1491 0.950 . S
C1497 C1496 1.327 . S
C1497 C1501 1.429 . S
C1498 C1481 1.574 . S
C1498 H1492 0.949 . S
C1498 C1502 1.368 . S
C1499 C1480 1.429 . S
C1499 C1493 1.429 . S
C1499 C1500 1.523 . S
C1500 C1481 1.368 . S
C1500 C1494 1.368 . S
C1500 C1499 1.523 . S
C1501 C1485 1.429 . S
C1501 C1497 1.429 . S
C1501 C1502 1.523 . S
C1502 C1486 1.368 . S
C1502 C1498 1.368 . S
C1502 C1501 1.523 . S
H1503 C1478 0.950 . S
H1504 C1480 0.950 . S
H1505 C1481 0.949 . S
H1506 C1483 0.950 . S
H1507 C1485 0.950 . S
C1508 C1509 1.349 . S
C1508 C1510 1.327 . S
C1508 H1533 0.950 . S
C1509 C1508 1.349 . S
C1509 C1525 1.349 . S
C1510 C1508 1.327 . S
C1510 C1529 1.429 . S
C1510 H1534 0.950 . S
C1511 C1528 1.574 . S
C1511 C1530 1.368 . S
C1511 H1535 0.949 . S
H1512 C1516 0.949 . S
C1513 C1514 1.349 . S
C1513 C1515 1.327 . S
C1513 H1536 0.950 . S
C1514 C1513 1.349 . S
C1514 C1526 1.349 . S
C1515 C1513 1.327 . S
C1515 C1531 1.429 . S
C1515 H1537 0.950 . S
C1516 H1512 0.949 . S
C1516 C1524 1.574 . S
C1516 C1532 1.368 . S
H1517 C1525 0.950 . S
H1518 C1523 0.950 . S
H1519 C1524 0.949 . S
H1520 C1526 0.950 . S
H1521 C1527 0.950 . S
H1522 C1528 0.949 . S
C1523 H1518 0.950 . S
C1523 C1525 1.327 . S
C1523 C1529 1.429 . S
C1524 C1516 1.574 . S
C1524 H1519 0.949 . S
C1524 C1530 1.368 . S
C1525 C1509 1.349 . S
C1525 H1517 0.950 . S
C1525 C1523 1.327 . S
C1526 C1514 1.349 . S
C1526 H1520 0.950 . S
C1526 C1527 1.327 . S
C1527 H1521 0.950 . S
C1527 C1526 1.327 . S
C1527 C1531 1.429 . S
C1528 C1511 1.574 . S
C1528 H1522 0.949 . S
C1528 C1532 1.368 . S
C1529 C1510 1.429 . S
C1529 C1523 1.429 . S
C1529 C1530 1.523 . S
C1530 C1511 1.368 . S
C1530 C1524 1.368 . S
C1530 C1529 1.523 . S
C1531 C1515 1.429 . S
C1531 C1527 1.429 . S
C1531 C1532 1.523 . S
C1532 C1516 1.368 . S
C1532 C1528 1.368 . S
C1532 C1531 1.523 . S
H1533 C1508 0.950 . S
H1534 C1510 0.950 . S
H1535 C1511 0.949 . S
H1536 C1513 0.950 . S
H1537 C1515 0.950 . S
C1538 C1539 1.349 . S
C1538 C1540 1.327 . S
C1538 H1563 0.950 . S
C1539 C1538 1.349 . S
C1539 C1555 1.349 . S
C1540 C1538 1.327 . S
C1540 C1559 1.429 . S
C1540 H1564 0.950 . S
C1541 C1558 1.574 1_556 S
C1541 C1560 1.368 1_556 S
C1541 H1565 0.949 . S
H1542 C1546 0.949 . S
C1543 C1544 1.349 . S
C1543 C1545 1.327 . S
C1543 H1566 0.950 . S
C1544 C1543 1.349 . S
C1544 C1556 1.349 . S
C1545 C1543 1.327 . S
C1545 C1561 1.429 . S
C1545 H1567 0.950 . S
C1546 H1542 0.949 . S
C1546 C1554 1.574 . S
C1546 C1562 1.368 . S
H1547 C1555 0.950 . S
H1548 C1553 0.950 . S
H1549 C1554 0.949 . S
H1550 C1556 0.950 . S
H1551 C1557 0.950 . S
H1552 C1558 0.949 . S
C1553 H1548 0.950 . S
C1553 C1555 1.327 . S
C1553 C1559 1.429 . S
C1554 C1546 1.574 . S
C1554 H1549 0.949 . S
C1554 C1560 1.368 . S
C1555 C1539 1.349 . S
C1555 H1547 0.950 . S
C1555 C1553 1.327 . S
C1556 C1544 1.349 . S
C1556 H1550 0.950 . S
C1556 C1557 1.327 . S
C1557 H1551 0.950 . S
C1557 C1556 1.327 . S
C1557 C1561 1.429 . S
C1558 C1541 1.574 1_554 S
C1558 H1552 0.949 . S
C1558 C1562 1.368 . S
C1559 C1540 1.429 . S
C1559 C1553 1.429 . S
C1559 C1560 1.523 1_556 S
C1560 C1541 1.368 1_554 S
C1560 C1554 1.368 . S
C1560 C1559 1.523 1_554 S
C1561 C1545 1.429 . S
C1561 C1557 1.429 . S
C1561 C1562 1.523 . S
C1562 C1546 1.368 . S
C1562 C1558 1.368 . S
C1562 C1561 1.523 . S
H1563 C1538 0.950 . S
H1564 C1540 0.950 . S
H1565 C1541 0.949 . S
H1566 C1543 0.950 . S
H1567 C1545 0.950 . S
C1568 C1569 1.349 . S
C1568 C1570 1.327 . S
C1568 H1593 0.950 . S
C1569 C1568 1.349 . S
C1569 C1585 1.349 . S
C1570 C1568 1.327 . S
C1570 C1589 1.429 . S
C1570 H1594 0.950 . S
C1571 C1588 1.574 1_655 S
C1571 C1590 1.368 . S
C1571 H1595 0.949 . S
H1572 C1576 0.947 . S
C1573 C1574 1.349 . S
C1573 C1575 1.327 . S
C1573 H1596 0.950 . S
C1574 C1573 1.349 . S
C1574 C1586 1.349 . S
C1575 C1573 1.327 . S
C1575 C1591 1.429 . S
C1575 H1597 0.950 . S
C1576 H1572 0.947 . S
C1576 C1584 1.622 . S
C1576 C1592 1.326 1_655 S
H1577 C1585 0.950 . S
H1578 C1583 0.950 . S
H1579 C1584 0.949 . S
H1580 C1586 0.950 . S
H1581 C1587 0.950 . S
H1582 C1588 0.949 . S
C1583 H1578 0.950 . S
C1583 C1585 1.327 . S
C1583 C1589 1.429 . S
C1584 C1576 1.622 . S
C1584 H1579 0.949 . S
C1584 C1590 1.368 . S
C1585 C1569 1.349 . S
C1585 H1577 0.950 . S
C1585 C1583 1.327 . S
C1586 C1574 1.349 . S
C1586 H1580 0.950 . S
C1586 C1587 1.327 . S
C1587 H1581 0.950 . S
C1587 C1586 1.327 . S
C1587 C1591 1.429 . S
C1588 C1571 1.574 1_455 S
C1588 H1582 0.949 . S
C1588 C1592 1.368 . S
C1589 C1570 1.429 . S
C1589 C1583 1.429 . S
C1589 C1590 1.523 . S
C1590 C1571 1.368 . S
C1590 C1584 1.368 . S
C1590 C1589 1.523 . S
C1591 C1575 1.429 . S
C1591 C1587 1.429 . S
C1591 C1592 1.523 . S
C1592 C1576 1.326 1_455 S
C1592 C1588 1.368 . S
C1592 C1591 1.523 . S
H1593 C1568 0.950 . S
H1594 C1570 0.950 . S
H1595 C1571 0.949 . S
H1596 C1573 0.950 . S
H1597 C1575 0.950 . S
C1598 C1599 1.349 . S
C1598 C1600 1.327 . S
C1598 H1623 0.950 . S
C1599 C1598 1.349 . S
C1599 C1615 1.349 . S
C1600 C1598 1.327 . S
C1600 C1619 1.429 . S
C1600 H1624 0.950 . S
C1601 C1618 1.574 1_554 S
C1601 C1620 1.368 . S
C1601 H1625 0.949 . S
H1602 C1606 0.949 . S
C1603 C1604 1.349 . S
C1603 C1605 1.327 . S
C1603 H1626 0.950 . S
C1604 C1603 1.349 . S
C1604 C1616 1.349 . S
C1605 C1603 1.327 . S
C1605 C1621 1.429 . S
C1605 H1627 0.950 . S
C1606 H1602 0.949 . S
C1606 C1614 1.574 . S
C1606 C1622 1.368 . S
H1607 C1615 0.950 . S
H1608 C1613 0.950 . S
H1609 C1614 0.949 . S
H1610 C1616 0.950 . S
H1611 C1617 0.950 1_554 S
H1612 C1618 0.949 . S
C1613 H1608 0.950 . S
C1613 C1615 1.327 . S
C1613 C1619 1.429 . S
C1614 C1606 1.574 . S
C1614 H1609 0.949 . S
C1614 C1620 1.368 . S
C1615 C1599 1.349 . S
C1615 H1607 0.950 . S
C1615 C1613 1.327 . S
C1616 C1604 1.349 . S
C1616 H1610 0.950 . S
C1616 C1617 1.327 . S
C1617 H1611 0.950 1_556 S
C1617 C1616 1.327 . S
C1617 C1621 1.429 . S
C1618 C1601 1.574 1_556 S
C1618 H1612 0.949 . S
C1618 C1622 1.368 1_556 S
C1619 C1600 1.429 . S
C1619 C1613 1.429 . S
C1619 C1620 1.523 . S
C1620 C1601 1.368 . S
C1620 C1614 1.368 . S
C1620 C1619 1.523 . S
C1621 C1605 1.429 . S
C1621 C1617 1.429 . S
C1621 C1622 1.523 1_556 S
C1622 C1606 1.368 . S
C1622 C1618 1.368 1_554 S
C1622 C1621 1.523 1_554 S
H1623 C1598 0.950 . S
H1624 C1600 0.950 . S
H1625 C1601 0.949 . S
H1626 C1603 0.950 . S
H1627 C1605 0.950 . S
C1628 C1629 1.349 . S
C1628 C1630 1.327 . S
C1628 H1653 0.950 . S
C1629 C1628 1.349 . S
C1629 C1645 1.349 . S
C1630 C1628 1.327 . S
C1630 C1649 1.429 . S
C1630 H1654 0.950 . S
C1631 C1648 1.574 . S
C1631 C1650 1.368 . S
C1631 H1655 0.949 . S
H1632 C1636 0.949 . S
C1633 C1634 1.349 . S
C1633 C1635 1.327 . S
C1633 H1656 0.950 . S
C1634 C1633 1.349 . S
C1634 C1646 1.349 . S
C1635 C1633 1.327 . S
C1635 C1651 1.429 . S
C1635 H1657 0.950 . S
C1636 H1632 0.949 . S
C1636 C1644 1.574 . S
C1636 C1652 1.368 . S
H1637 C1645 0.950 . S
H1638 C1643 0.950 . S
H1639 C1644 0.949 . S
H1640 C1646 0.950 . S
H1641 C1647 0.950 . S
H1642 C1648 0.949 . S
C1643 H1638 0.950 . S
C1643 C1645 1.327 . S
C1643 C1649 1.429 . S
C1644 C1636 1.574 . S
C1644 H1639 0.949 . S
C1644 C1650 1.368 . S
C1645 C1629 1.349 . S
C1645 H1637 0.950 . S
C1645 C1643 1.327 . S
C1646 C1634 1.349 . S
C1646 H1640 0.950 . S
C1646 C1647 1.327 . S
C1647 H1641 0.950 . S
C1647 C1646 1.327 . S
C1647 C1651 1.429 . S
C1648 C1631 1.574 . S
C1648 H1642 0.949 . S
C1648 C1652 1.368 . S
C1649 C1630 1.429 . S
C1649 C1643 1.429 . S
C1649 C1650 1.523 . S
C1650 C1631 1.368 . S
C1650 C1644 1.368 . S
C1650 C1649 1.523 . S
C1651 C1635 1.429 . S
C1651 C1647 1.429 . S
C1651 C1652 1.523 . S
C1652 C1636 1.368 . S
C1652 C1648 1.368 . S
C1652 C1651 1.523 . S
H1653 C1628 0.950 . S
H1654 C1630 0.950 . S
H1655 C1631 0.949 . S
H1656 C1633 0.950 . S
H1657 C1635 0.950 . S
C1658 C1659 1.349 . S
C1658 C1660 1.327 . S
C1658 H1683 0.950 . S
C1659 C1658 1.349 . S
C1659 C1675 1.349 . S
C1660 C1658 1.327 . S
C1660 C1679 1.429 . S
C1660 H1684 0.950 . S
C1661 C1678 1.574 . S
C1661 C1680 1.368 . S
C1661 H1685 0.949 . S
H1662 C1666 0.949 . S
C1663 C1664 1.349 . S
C1663 C1665 1.327 . S
C1663 H1686 0.950 . S
C1664 C1663 1.349 . S
C1664 C1676 1.349 . S
C1665 C1663 1.327 . S
C1665 C1681 1.429 . S
C1665 H1687 0.950 . S
C1666 H1662 0.949 . S
C1666 C1674 1.574 . S
C1666 C1682 1.368 . S
H1667 C1675 0.950 . S
H1668 C1673 0.950 . S
H1669 C1674 0.949 . S
H1670 C1676 0.950 . S
H1671 C1677 0.950 . S
H1672 C1678 0.949 . S
C1673 H1668 0.950 . S
C1673 C1675 1.327 . S
C1673 C1679 1.429 . S
C1674 C1666 1.574 . S
C1674 H1669 0.949 . S
C1674 C1680 1.368 . S
C1675 C1659 1.349 . S
C1675 H1667 0.950 . S
C1675 C1673 1.327 . S
C1676 C1664 1.349 . S
C1676 H1670 0.950 . S
C1676 C1677 1.327 . S
C1677 H1671 0.950 . S
C1677 C1676 1.327 . S
C1677 C1681 1.429 . S
C1678 C1661 1.574 . S
C1678 H1672 0.949 . S
C1678 C1682 1.368 . S
C1679 C1660 1.429 . S
C1679 C1673 1.429 . S
C1679 C1680 1.523 . S
C1680 C1661 1.368 . S
C1680 C1674 1.368 . S
C1680 C1679 1.523 . S
C1681 C1665 1.429 . S
C1681 C1677 1.429 . S
C1681 C1682 1.523 . S
C1682 C1666 1.368 . S
C1682 C1678 1.368 . S
C1682 C1681 1.523 . S
H1683 C1658 0.950 . S
H1684 C1660 0.950 . S
H1685 C1661 0.949 . S
H1686 C1663 0.950 . S
H1687 C1665 0.950 . S
C1688 C1689 1.349 . S
C1688 C1690 1.327 . S
C1688 H1713 0.950 . S
C1689 C1688 1.349 . S
C1689 C1705 1.349 . S
C1690 C1688 1.327 . S
C1690 C1709 1.429 . S
C1690 H1714 0.950 . S
C1691 C1708 1.574 1_455 S
C1691 C1710 1.368 . S
C1691 H1715 0.949 . S
H1692 C1696 0.949 . S
C1693 C1694 1.349 . S
C1693 C1695 1.327 . S
C1693 H1716 0.950 . S
C1694 C1693 1.349 . S
C1694 C1706 1.349 . S
C1695 C1693 1.327 . S
C1695 C1711 1.429 . S
C1695 H1717 0.950 . S
C1696 H1692 0.949 . S
C1696 C1704 1.574 1_655 S
C1696 C1712 1.368 . S
H1697 C1705 0.950 . S
H1698 C1703 0.950 . S
H1699 C1704 0.949 . S
H1700 C1706 0.950 . S
H1701 C1707 0.950 . S
H1702 C1708 0.949 . S
C1703 H1698 0.950 . S
C1703 C1705 1.327 . S
C1703 C1709 1.429 . S
C1704 C1696 1.574 1_455 S
C1704 H1699 0.949 . S
C1704 C1710 1.368 . S
C1705 C1689 1.349 . S
C1705 H1697 0.950 . S
C1705 C1703 1.327 . S
C1706 C1694 1.349 . S
C1706 H1700 0.950 . S
C1706 C1707 1.327 . S
C1707 H1701 0.950 . S
C1707 C1706 1.327 . S
C1707 C1711 1.429 . S
C1708 C1691 1.574 1_655 S
C1708 H1702 0.949 . S
C1708 C1712 1.368 . S
C1709 C1690 1.429 . S
C1709 C1703 1.429 . S
C1709 C1710 1.523 . S
C1710 C1691 1.368 . S
C1710 C1704 1.368 . S
C1710 C1709 1.523 . S
C1711 C1695 1.429 . S
C1711 C1707 1.429 . S
C1711 C1712 1.523 . S
C1712 C1696 1.368 . S
C1712 C1708 1.368 . S
C1712 C1711 1.523 . S
H1713 C1688 0.950 . S
H1714 C1690 0.950 . S
H1715 C1691 0.949 . S
H1716 C1693 0.950 . S
H1717 C1695 0.950 . S
C1718 C1719 1.349 . S
C1718 C1720 1.327 . S
C1718 H1743 0.950 . S
C1719 C1718 1.349 . S
C1719 C1735 1.349 . S
C1720 C1718 1.327 . S
C1720 C1739 1.429 . S
C1720 H1744 0.950 . S
C1721 C1738 1.574 . S
C1721 C1740 1.368 . S
C1721 H1745 0.949 . S
H1722 C1726 0.949 . S
C1723 C1724 1.349 . S
C1723 C1725 1.327 . S
C1723 H1746 0.950 . S
C1724 C1723 1.349 . S
C1724 C1736 1.349 . S
C1725 C1723 1.327 . S
C1725 C1741 1.429 . S
C1725 H1747 0.950 1_556 S
C1726 H1722 0.949 . S
C1726 C1734 1.574 1_556 S
C1726 C1742 1.368 1_556 S
H1727 C1735 0.950 . S
H1728 C1733 0.950 . S
H1729 C1734 0.949 . S
H1730 C1736 0.950 . S
H1731 C1737 0.950 . S
H1732 C1738 0.949 . S
C1733 H1728 0.950 . S
C1733 C1735 1.327 . S
C1733 C1739 1.429 . S
C1734 C1726 1.574 1_554 S
C1734 H1729 0.949 . S
C1734 C1740 1.368 . S
C1735 C1719 1.349 . S
C1735 H1727 0.950 . S
C1735 C1733 1.327 . S
C1736 C1724 1.349 . S
C1736 H1730 0.950 . S
C1736 C1737 1.327 . S
C1737 H1731 0.950 . S
C1737 C1736 1.327 . S
C1737 C1741 1.429 . S
C1738 C1721 1.574 . S
C1738 H1732 0.949 . S
C1738 C1742 1.368 . S
C1739 C1720 1.429 . S
C1739 C1733 1.429 . S
C1739 C1740 1.523 . S
C1740 C1721 1.368 . S
C1740 C1734 1.368 . S
C1740 C1739 1.523 . S
C1741 C1725 1.429 . S
C1741 C1737 1.429 . S
C1741 C1742 1.523 1_556 S
C1742 C1726 1.368 1_554 S
C1742 C1738 1.368 . S
C1742 C1741 1.523 1_554 S
H1743 C1718 0.950 . S
H1744 C1720 0.950 . S
H1745 C1721 0.949 . S
H1746 C1723 0.950 . S
H1747 C1725 0.950 1_554 S
C1748 C1749 1.349 . S
C1748 C1750 1.327 . S
C1748 H1773 0.950 . S
C1749 C1748 1.349 . S
C1749 C1765 1.349 . S
C1750 C1748 1.327 . S
C1750 C1769 1.429 . S
C1750 H1774 0.950 . S
C1751 C1768 1.574 . S
C1751 C1770 1.368 . S
C1751 H1775 0.949 . S
H1752 C1756 0.949 . S
C1753 C1754 1.349 . S
C1753 C1755 1.327 . S
C1753 H1776 0.950 . S
C1754 C1753 1.349 . S
C1754 C1766 1.349 . S
C1755 C1753 1.327 . S
C1755 C1771 1.429 . S
C1755 H1777 0.950 . S
C1756 H1752 0.949 . S
C1756 C1764 1.574 . S
C1756 C1772 1.368 . S
H1757 C1765 0.950 . S
H1758 C1763 0.950 . S
H1759 C1764 0.949 . S
H1760 C1766 0.950 . S
H1761 C1767 0.950 . S
H1762 C1768 0.949 . S
C1763 H1758 0.950 . S
C1763 C1765 1.327 . S
C1763 C1769 1.429 . S
C1764 C1756 1.574 . S
C1764 H1759 0.949 . S
C1764 C1770 1.368 . S
C1765 C1749 1.349 . S
C1765 H1757 0.950 . S
C1765 C1763 1.327 . S
C1766 C1754 1.349 . S
C1766 H1760 0.950 . S
C1766 C1767 1.327 . S
C1767 H1761 0.950 . S
C1767 C1766 1.327 . S
C1767 C1771 1.429 . S
C1768 C1751 1.574 . S
C1768 H1762 0.949 . S
C1768 C1772 1.368 . S
C1769 C1750 1.429 . S
C1769 C1763 1.429 . S
C1769 C1770 1.523 . S
C1770 C1751 1.368 . S
C1770 C1764 1.368 . S
C1770 C1769 1.523 . S
C1771 C1755 1.429 . S
C1771 C1767 1.429 . S
C1771 C1772 1.523 . S
C1772 C1756 1.368 . S
C1772 C1768 1.368 . S
C1772 C1771 1.523 . S
H1773 C1748 0.950 . S
H1774 C1750 0.950 . S
H1775 C1751 0.949 . S
H1776 C1753 0.950 . S
H1777 C1755 0.950 . S
C1778 C1779 1.349 . S
C1778 C1780 1.327 . S
C1778 H1803 0.950 . S
C1779 C1778 1.349 . S
C1779 C1795 1.349 . S
C1780 C1778 1.327 . S
C1780 C1799 1.429 . S
C1780 H1804 0.950 . S
C1781 C1798 1.574 . S
C1781 C1800 1.368 . S
C1781 H1805 0.949 . S
H1782 C1786 0.949 . S
C1783 C1784 1.349 . S
C1783 C1785 1.327 . S
C1783 H1806 0.950 . S
C1784 C1783 1.349 . S
C1784 C1796 1.349 . S
C1785 C1783 1.327 . S
C1785 C1801 1.429 . S
C1785 H1807 0.950 . S
C1786 H1782 0.949 . S
C1786 C1794 1.574 . S
C1786 C1802 1.368 . S
H1787 C1795 0.950 . S
H1788 C1793 0.950 . S
H1789 C1794 0.949 . S
H1790 C1796 0.950 . S
H1791 C1797 0.950 . S
H1792 C1798 0.949 . S
C1793 H1788 0.950 . S
C1793 C1795 1.327 . S
C1793 C1799 1.429 . S
C1794 C1786 1.574 . S
C1794 H1789 0.949 . S
C1794 C1800 1.368 . S
C1795 C1779 1.349 . S
C1795 H1787 0.950 . S
C1795 C1793 1.327 . S
C1796 C1784 1.349 . S
C1796 H1790 0.950 . S
C1796 C1797 1.327 . S
C1797 H1791 0.950 . S
C1797 C1796 1.327 . S
C1797 C1801 1.429 . S
C1798 C1781 1.574 . S
C1798 H1792 0.949 . S
C1798 C1802 1.368 . S
C1799 C1780 1.429 . S
C1799 C1793 1.429 . S
C1799 C1800 1.523 . S
C1800 C1781 1.368 . S
C1800 C1794 1.368 . S
C1800 C1799 1.523 . S
C1801 C1785 1.429 . S
C1801 C1797 1.429 . S
C1801 C1802 1.523 . S
C1802 C1786 1.368 . S
C1802 C1798 1.368 . S
C1802 C1801 1.523 . S
H1803 C1778 0.950 . S
H1804 C1780 0.950 . S
H1805 C1781 0.949 . S
H1806 C1783 0.950 . S
H1807 C1785 0.950 . S
C1808 C1809 1.349 . S
C1808 C1810 1.327 . S
C1808 H1833 0.950 . S
C1809 C1808 1.349 . S
C1809 C1825 1.349 . S
C1810 C1808 1.327 . S
C1810 C1829 1.429 . S
C1810 H1834 0.950 . S
C1811 C1828 1.574 . S
C1811 C1830 1.368 1_455 S
C1811 H1835 0.959 . S
H1812 C1816 0.949 . S
C1813 C1814 1.349 . S
C1813 C1815 1.327 . S
C1813 H1836 0.950 . S
C1814 C1813 1.349 . S
C1814 C1826 1.349 . S
C1815 C1813 1.327 . S
C1815 C1831 1.429 . S
C1815 H1837 0.950 . S
C1816 H1812 0.949 . S
C1816 C1824 1.574 1_455 S
C1816 C1832 1.368 . S
H1817 C1825 0.950 . S
H1818 C1823 0.950 . S
H1819 C1824 0.949 . S
H1820 C1826 0.950 . S
H1821 C1827 0.950 . S
H1822 C1828 0.949 . S
C1823 H1818 0.950 . S
C1823 C1825 1.327 . S
C1823 C1829 1.429 . S
C1824 C1816 1.574 1_655 S
C1824 H1819 0.949 . S
C1824 C1830 1.368 . S
C1825 C1809 1.349 . S
C1825 H1817 0.950 . S
C1825 C1823 1.327 . S
C1826 C1814 1.349 . S
C1826 H1820 0.950 . S
C1826 C1827 1.327 . S
C1827 H1821 0.950 . S
C1827 C1826 1.327 . S
C1827 C1831 1.429 . S
C1828 C1811 1.574 . S
C1828 H1822 0.949 . S
C1828 C1832 1.368 . S
C1829 C1810 1.429 . S
C1829 C1823 1.429 . S
C1829 C1830 1.523 . S
C1830 C1811 1.368 1_655 S
C1830 C1824 1.368 . S
C1830 C1829 1.523 . S
C1831 C1815 1.429 . S
C1831 C1827 1.429 . S
C1831 C1832 1.523 . S
C1832 C1816 1.368 . S
C1832 C1828 1.368 . S
C1832 C1831 1.523 . S
H1833 C1808 0.950 . S
H1834 C1810 0.950 . S
H1835 C1811 0.959 . S
H1836 C1813 0.950 . S
H1837 C1815 0.950 . S
C1838 C1839 1.349 . S
C1838 C1840 1.327 . S
C1838 H1863 0.950 . S
C1839 C1838 1.349 . S
C1839 C1855 1.349 . S
C1840 C1838 1.327 . S
C1840 C1859 1.429 . S
C1840 H1864 0.950 . S
C1841 C1858 1.574 1_556 S
C1841 C1860 1.368 . S
C1841 H1865 0.949 . S
H1842 C1846 0.949 . S
C1843 C1844 1.349 . S
C1843 C1845 1.327 . S
C1843 H1866 0.950 . S
C1844 C1843 1.349 . S
C1844 C1856 1.349 . S
C1845 C1843 1.327 . S
C1845 C1861 1.429 . S
C1845 H1867 0.950 . S
C1846 H1842 0.949 . S
C1846 C1854 1.574 . S
C1846 C1862 1.368 . S
H1847 C1855 0.950 . S
H1848 C1853 0.950 . S
H1849 C1854 0.949 . S
H1850 C1856 0.950 . S
H1851 C1857 0.950 . S
H1852 C1858 0.949 . S
C1853 H1848 0.950 . S
C1853 C1855 1.327 . S
C1853 C1859 1.429 . S
C1854 C1846 1.574 . S
C1854 H1849 0.949 . S
C1854 C1860 1.368 1_554 S
C1855 C1839 1.349 . S
C1855 H1847 0.950 . S
C1855 C1853 1.327 . S
C1856 C1844 1.349 . S
C1856 H1850 0.950 . S
C1856 C1857 1.327 . S
C1857 H1851 0.950 . S
C1857 C1856 1.327 . S
C1857 C1861 1.429 . S
C1858 C1841 1.574 1_554 S
C1858 H1852 0.949 . S
C1858 C1862 1.368 . S
C1859 C1840 1.429 . S
C1859 C1853 1.429 . S
C1859 C1860 1.523 . S
C1860 C1841 1.368 . S
C1860 C1854 1.368 1_556 S
C1860 C1859 1.523 . S
C1861 C1845 1.429 . S
C1861 C1857 1.429 . S
C1861 C1862 1.523 . S
C1862 C1846 1.368 . S
C1862 C1858 1.368 . S
C1862 C1861 1.523 . S
H1863 C1838 0.950 . S
H1864 C1840 0.950 . S
H1865 C1841 0.949 . S
H1866 C1843 0.950 . S
H1867 C1845 0.950 . S
C1868 C1869 1.349 . S
C1868 C1870 1.327 . S
C1868 H1893 0.950 . S
C1869 C1868 1.349 . S
C1869 C1885 1.349 . S
C1870 C1868 1.327 . S
C1870 C1889 1.429 . S
C1870 H1894 0.950 . S
C1871 C1888 1.574 . S
C1871 C1890 1.368 . S
C1871 H1895 0.949 . S
H1872 C1876 0.949 . S
C1873 C1874 1.349 . S
C1873 C1875 1.327 . S
C1873 H1896 0.950 . S
C1874 C1873 1.349 . S
C1874 C1886 1.349 . S
C1875 C1873 1.327 . S
C1875 C1891 1.429 . S
C1875 H1897 0.950 . S
C1876 H1872 0.949 . S
C1876 C1884 1.574 . S
C1876 C1892 1.368 . S
H1877 C1885 0.950 . S
H1878 C1883 0.950 . S
H1879 C1884 0.949 . S
H1880 C1886 0.950 . S
H1881 C1887 0.950 . S
H1882 C1888 0.949 . S
C1883 H1878 0.950 . S
C1883 C1885 1.327 . S
C1883 C1889 1.429 . S
C1884 C1876 1.574 . S
C1884 H1879 0.949 . S
C1884 C1890 1.368 . S
C1885 C1869 1.349 . S
C1885 H1877 0.950 . S
C1885 C1883 1.327 . S
C1886 C1874 1.349 . S
C1886 H1880 0.950 . S
C1886 C1887 1.327 . S
C1887 H1881 0.950 . S
C1887 C1886 1.327 . S
C1887 C1891 1.429 . S
C1888 C1871 1.574 . S
C1888 H1882 0.949 . S
C1888 C1892 1.368 . S
C1889 C1870 1.429 . S
C1889 C1883 1.429 . S
C1889 C1890 1.523 . S
C1890 C1871 1.368 . S
C1890 C1884 1.368 . S
C1890 C1889 1.523 . S
C1891 C1875 1.429 . S
C1891 C1887 1.429 . S
C1891 C1892 1.523 . S
C1892 C1876 1.368 . S
C1892 C1888 1.368 . S
C1892 C1891 1.523 . S
H1893 C1868 0.950 . S
H1894 C1870 0.950 . S
H1895 C1871 0.949 . S
H1896 C1873 0.950 . S
H1897 C1875 0.950 . S
C1898 C1899 1.349 . S
C1898 C1900 1.327 . S
C1898 H1923 0.950 . S
C1899 C1898 1.349 . S
C1899 C1915 1.349 . S
C1900 C1898 1.327 . S
C1900 C1919 1.429 . S
C1900 H1924 0.950 . S
C1901 C1918 1.574 . S
C1901 C1920 1.368 . S
C1901 H1925 0.949 . S
H1902 C1906 0.949 . S
C1903 C1904 1.349 . S
C1903 C1905 1.327 . S
C1903 H1926 0.950 . S
C1904 C1903 1.349 . S
C1904 C1916 1.349 . S
C1905 C1903 1.327 . S
C1905 C1921 1.429 . S
C1905 H1927 0.950 . S
C1906 H1902 0.949 . S
C1906 C1914 1.574 . S
C1906 C1922 1.368 . S
H1907 C1915 0.950 . S
H1908 C1913 0.950 . S
H1909 C1914 0.949 . S
H1910 C1916 0.950 . S
H1911 C1917 0.950 . S
H1912 C1918 0.949 . S
C1913 H1908 0.950 . S
C1913 C1915 1.327 . S
C1913 C1919 1.429 . S
C1914 C1906 1.574 . S
C1914 H1909 0.949 . S
C1914 C1920 1.368 . S
C1915 C1899 1.349 . S
C1915 H1907 0.950 . S
C1915 C1913 1.327 . S
C1916 C1904 1.349 . S
C1916 H1910 0.950 . S
C1916 C1917 1.327 . S
C1917 H1911 0.950 . S
C1917 C1916 1.327 . S
C1917 C1921 1.429 . S
C1918 C1901 1.574 . S
C1918 H1912 0.949 . S
C1918 C1922 1.368 . S
C1919 C1900 1.429 . S
C1919 C1913 1.429 . S
C1919 C1920 1.523 . S
C1920 C1901 1.368 . S
C1920 C1914 1.368 . S
C1920 C1919 1.523 . S
C1921 C1905 1.429 . S
C1921 C1917 1.429 . S
C1921 C1922 1.523 . S
C1922 C1906 1.368 . S
C1922 C1918 1.368 . S
C1922 C1921 1.523 . S
H1923 C1898 0.950 . S
H1924 C1900 0.950 . S
H1925 C1901 0.949 . S
H1926 C1903 0.950 . S
H1927 C1905 0.950 . S
C1928 C1929 1.349 . S
C1928 C1930 1.327 . S
C1928 H1953 0.950 . S
C1929 C1928 1.349 . S
C1929 C1945 1.349 . S
C1930 C1928 1.327 . S
C1930 C1949 1.429 . S
C1930 H1954 0.950 . S
C1931 C1948 1.574 1_455 S
C1931 C1950 1.368 . S
C1931 H1955 0.949 . S
H1932 C1936 0.949 . S
C1933 C1934 1.349 . S
C1933 C1935 1.327 . S
C1933 H1956 0.950 . S
C1934 C1933 1.349 . S
C1934 C1946 1.349 . S
C1935 C1933 1.327 . S
C1935 C1951 1.429 . S
C1935 H1957 0.950 . S
C1936 H1932 0.949 . S
C1936 C1944 1.574 . S
C1936 C1952 1.368 1_455 S
H1937 C1945 0.950 . S
H1938 C1943 0.950 . S
H1939 C1944 0.949 . S
H1940 C1946 0.950 . S
H1941 C1947 0.950 . S
H1942 C1948 0.949 . S
C1943 H1938 0.950 . S
C1943 C1945 1.327 . S
C1943 C1949 1.429 . S
C1944 C1936 1.574 . S
C1944 H1939 0.949 . S
C1944 C1950 1.368 . S
C1945 C1929 1.349 . S
C1945 H1937 0.950 . S
C1945 C1943 1.327 . S
C1946 C1934 1.349 . S
C1946 H1940 0.950 . S
C1946 C1947 1.327 . S
C1947 H1941 0.950 . S
C1947 C1946 1.327 . S
C1947 C1951 1.429 . S
C1948 C1931 1.574 1_655 S
C1948 H1942 0.949 . S
C1948 C1952 1.368 . S
C1949 C1930 1.429 . S
C1949 C1943 1.429 . S
C1949 C1950 1.523 . S
C1950 C1931 1.368 . S
C1950 C1944 1.368 . S
C1950 C1949 1.523 . S
C1951 C1935 1.429 . S
C1951 C1947 1.429 . S
C1951 C1952 1.523 . S
C1952 C1936 1.368 1_655 S
C1952 C1948 1.368 . S
C1952 C1951 1.523 . S
H1953 C1928 0.950 . S
H1954 C1930 0.950 . S
H1955 C1931 0.949 . S
H1956 C1933 0.950 . S
H1957 C1935 0.950 . S
C1958 C1959 1.349 . S
C1958 C1960 1.327 . S
C1958 H1983 0.950 . S
C1959 C1958 1.349 . S
C1959 C1975 1.349 . S
C1960 C1958 1.327 . S
C1960 C1979 1.429 . S
C1960 H1984 0.950 . S
C1961 C1978 1.574 1_556 S
C1961 C1980 1.368 1_556 S
C1961 H1985 0.949 . S
H1962 C1966 0.949 . S
C1963 C1964 1.349 . S
C1963 C1965 1.327 . S
C1963 H1986 0.950 . S
C1964 C1963 1.349 . S
C1964 C1976 1.349 . S
C1965 C1963 1.327 . S
C1965 C1981 1.429 . S
C1965 H1987 0.950 . S
C1966 H1962 0.949 . S
C1966 C1974 1.574 . S
C1966 C1982 1.368 . S
H1967 C1975 0.950 . S
H1968 C1973 0.950 . S
H1969 C1974 0.949 . S
H1970 C1976 0.950 . S
H1971 C1977 0.950 . S
H1972 C1978 0.949 . S
C1973 H1968 0.950 . S
C1973 C1975 1.327 . S
C1973 C1979 1.429 . S
C1974 C1966 1.574 . S
C1974 H1969 0.949 . S
C1974 C1980 1.368 . S
C1975 C1959 1.349 . S
C1975 H1967 0.950 . S
C1975 C1973 1.327 . S
C1976 C1964 1.349 . S
C1976 H1970 0.950 . S
C1976 C1977 1.327 . S
C1977 H1971 0.950 . S
C1977 C1976 1.327 . S
C1977 C1981 1.429 . S
C1978 C1961 1.574 1_554 S
C1978 H1972 0.949 . S
C1978 C1982 1.368 . S
C1979 C1960 1.429 . S
C1979 C1973 1.429 . S
C1979 C1980 1.523 1_556 S
C1980 C1961 1.368 1_554 S
C1980 C1974 1.368 . S
C1980 C1979 1.523 1_554 S
C1981 C1965 1.429 . S
C1981 C1977 1.429 . S
C1981 C1982 1.523 . S
C1982 C1966 1.368 . S
C1982 C1978 1.368 . S
C1982 C1981 1.523 . S
H1983 C1958 0.950 . S
H1984 C1960 0.950 . S
H1985 C1961 0.949 . S
H1986 C1963 0.950 . S
H1987 C1965 0.950 . S
C1988 C1989 1.349 . S
C1988 C1990 1.327 . S
C1988 H2013 0.950 . S
C1989 C1988 1.349 . S
C1989 C2005 1.349 . S
C1990 C1988 1.327 . S
C1990 C2009 1.429 . S
C1990 H2014 0.950 . S
C1991 C2008 1.574 . S
C1991 C2010 1.368 . S
C1991 H2015 0.949 . S
H1992 C1996 0.949 . S
C1993 C1994 1.349 . S
C1993 C1995 1.327 . S
C1993 H2016 0.950 . S
C1994 C1993 1.349 . S
C1994 C2006 1.349 . S
C1995 C1993 1.327 . S
C1995 C2011 1.429 . S
C1995 H2017 0.950 . S
C1996 H1992 0.949 . S
C1996 C2004 1.574 . S
C1996 C2012 1.368 . S
H1997 C2005 0.950 . S
H1998 C2003 0.950 . S
H1999 C2004 0.949 . S
H2000 C2006 0.950 . S
H2001 C2007 0.950 . S
H2002 C2008 0.949 . S
C2003 H1998 0.950 . S
C2003 C2005 1.327 . S
C2003 C2009 1.429 . S
C2004 C1996 1.574 . S
C2004 H1999 0.949 . S
C2004 C2010 1.368 . S
C2005 C1989 1.349 . S
C2005 H1997 0.950 . S
C2005 C2003 1.327 . S
C2006 C1994 1.349 . S
C2006 H2000 0.950 . S
C2006 C2007 1.327 . S
C2007 H2001 0.950 . S
C2007 C2006 1.327 . S
C2007 C2011 1.429 . S
C2008 C1991 1.574 . S
C2008 H2002 0.949 . S
C2008 C2012 1.368 . S
C2009 C1990 1.429 . S
C2009 C2003 1.429 . S
C2009 C2010 1.523 . S
C2010 C1991 1.368 . S
C2010 C2004 1.368 . S
C2010 C2009 1.523 . S
C2011 C1995 1.429 . S
C2011 C2007 1.429 . S
C2011 C2012 1.523 . S
C2012 C1996 1.368 . S
C2012 C2008 1.368 . S
C2012 C2011 1.523 . S
H2013 C1988 0.950 . S
H2014 C1990 0.950 . S
H2015 C1991 0.949 . S
H2016 C1993 0.950 . S
H2017 C1995 0.950 . S
C2018 C2019 1.349 . S
C2018 C2020 1.327 . S
C2018 H2043 0.950 . S
C2019 C2018 1.349 . S
C2019 C2035 1.349 . S
C2020 C2018 1.327 . S
C2020 C2039 1.429 . S
C2020 H2044 0.950 . S
C2021 C2038 1.574 . S
C2021 C2040 1.368 . S
C2021 H2045 0.949 . S
H2022 C2026 0.949 . S
C2023 C2024 1.349 . S
C2023 C2025 1.327 . S
C2023 H2046 0.950 . S
C2024 C2023 1.349 . S
C2024 C2036 1.349 . S
C2025 C2023 1.327 . S
C2025 C2041 1.429 . S
C2025 H2047 0.950 . S
C2026 H2022 0.949 . S
C2026 C2034 1.574 . S
C2026 C2042 1.368 . S
H2027 C2035 0.950 . S
H2028 C2033 0.950 . S
H2029 C2034 0.949 . S
H2030 C2036 0.950 . S
H2031 C2037 0.950 . S
H2032 C2038 0.949 . S
C2033 H2028 0.950 . S
C2033 C2035 1.327 . S
C2033 C2039 1.429 . S
C2034 C2026 1.574 . S
C2034 H2029 0.949 . S
C2034 C2040 1.368 . S
C2035 C2019 1.349 . S
C2035 H2027 0.950 . S
C2035 C2033 1.327 . S
C2036 C2024 1.349 . S
C2036 H2030 0.950 . S
C2036 C2037 1.327 . S
C2037 H2031 0.950 . S
C2037 C2036 1.327 . S
C2037 C2041 1.429 . S
C2038 C2021 1.574 . S
C2038 H2032 0.949 . S
C2038 C2042 1.368 . S
C2039 C2020 1.429 . S
C2039 C2033 1.429 . S
C2039 C2040 1.523 . S
C2040 C2021 1.368 . S
C2040 C2034 1.368 . S
C2040 C2039 1.523 . S
C2041 C2025 1.429 . S
C2041 C2037 1.429 . S
C2041 C2042 1.523 . S
C2042 C2026 1.368 . S
C2042 C2038 1.368 . S
C2042 C2041 1.523 . S
H2043 C2018 0.950 . S
H2044 C2020 0.950 . S
H2045 C2021 0.949 . S
H2046 C2023 0.950 . S
H2047 C2025 0.950 . S
C2048 C2049 1.349 . S
C2048 C2050 1.327 . S
C2048 H2073 0.950 . S
C2049 C2048 1.349 . S
C2049 C2065 1.349 . S
C2050 C2048 1.327 . S
C2050 C2069 1.429 . S
C2050 H2074 0.950 . S
C2051 C2068 1.574 . S
C2051 C2070 1.368 . S
C2051 H2075 0.949 . S
H2052 C2056 0.949 . S
C2053 C2054 1.349 . S
C2053 C2055 1.327 . S
C2053 H2076 0.950 . S
C2054 C2053 1.349 . S
C2054 C2066 1.349 . S
C2055 C2053 1.327 . S
C2055 C2071 1.429 . S
C2055 H2077 0.950 . S
C2056 H2052 0.949 . S
C2056 C2064 1.574 . S
C2056 C2072 1.368 . S
H2057 C2065 0.950 . S
H2058 C2063 0.950 . S
H2059 C2064 0.949 . S
H2060 C2066 0.950 . S
H2061 C2067 0.950 . S
H2062 C2068 0.949 . S
C2063 H2058 0.950 . S
C2063 C2065 1.327 . S
C2063 C2069 1.429 . S
C2064 C2056 1.574 . S
C2064 H2059 0.949 . S
C2064 C2070 1.368 . S
C2065 C2049 1.349 . S
C2065 H2057 0.950 . S
C2065 C2063 1.327 . S
C2066 C2054 1.349 . S
C2066 H2060 0.950 . S
C2066 C2067 1.327 . S
C2067 H2061 0.950 . S
C2067 C2066 1.327 . S
C2067 C2071 1.429 . S
C2068 C2051 1.574 . S
C2068 H2062 0.949 . S
C2068 C2072 1.368 . S
C2069 C2050 1.429 . S
C2069 C2063 1.429 . S
C2069 C2070 1.523 . S
C2070 C2051 1.368 . S
C2070 C2064 1.368 . S
C2070 C2069 1.523 . S
C2071 C2055 1.429 . S
C2071 C2067 1.429 . S
C2071 C2072 1.523 . S
C2072 C2056 1.368 . S
C2072 C2068 1.368 . S
C2072 C2071 1.523 . S
H2073 C2048 0.950 . S
H2074 C2050 0.950 . S
H2075 C2051 0.949 . S
H2076 C2053 0.950 . S
H2077 C2055 0.950 . S
C2078 C2079 1.349 . S
C2078 C2080 1.327 . S
C2078 H2103 0.950 . S
C2079 C2078 1.349 . S
C2079 C2095 1.349 . S
C2080 C2078 1.327 . S
C2080 C2099 1.429 . S
C2080 H2104 0.950 . S
C2081 C2098 1.574 . S
C2081 C2100 1.368 . S
C2081 H2105 0.949 . S
H2082 C2086 0.949 . S
C2083 C2084 1.349 . S
C2083 C2085 1.327 . S
C2083 H2106 0.950 . S
C2084 C2083 1.349 . S
C2084 C2096 1.349 . S
C2085 C2083 1.327 . S
C2085 C2101 1.429 . S
C2085 H2107 0.950 . S
C2086 H2082 0.949 . S
C2086 C2094 1.574 . S
C2086 C2102 1.368 . S
H2087 C2095 0.950 . S
H2088 C2093 0.950 . S
H2089 C2094 0.949 . S
H2090 C2096 0.950 . S
H2091 C2097 0.950 . S
H2092 C2098 0.949 . S
C2093 H2088 0.950 . S
C2093 C2095 1.327 . S
C2093 C2099 1.429 . S
C2094 C2086 1.574 . S
C2094 H2089 0.949 . S
C2094 C2100 1.368 . S
C2095 C2079 1.349 . S
C2095 H2087 0.950 . S
C2095 C2093 1.327 . S
C2096 C2084 1.349 . S
C2096 H2090 0.950 . S
C2096 C2097 1.327 . S
C2097 H2091 0.950 . S
C2097 C2096 1.327 . S
C2097 C2101 1.429 . S
C2098 C2081 1.574 . S
C2098 H2092 0.949 . S
C2098 C2102 1.368 . S
C2099 C2080 1.429 . S
C2099 C2093 1.429 . S
C2099 C2100 1.523 . S
C2100 C2081 1.368 . S
C2100 C2094 1.368 . S
C2100 C2099 1.523 . S
C2101 C2085 1.429 . S
C2101 C2097 1.429 . S
C2101 C2102 1.523 . S
C2102 C2086 1.368 . S
C2102 C2098 1.368 . S
C2102 C2101 1.523 . S
H2103 C2078 0.950 . S
H2104 C2080 0.950 . S
H2105 C2081 0.949 . S
H2106 C2083 0.950 . S
H2107 C2085 0.950 . S
C2108 C2109 1.349 . S
C2108 C2110 1.327 . S
C2108 H2133 0.950 . S
C2109 C2108 1.349 . S
C2109 C2125 1.349 . S
C2110 C2108 1.327 . S
C2110 C2129 1.429 . S
C2110 H2134 0.950 . S
C2111 C2128 1.574 1_655 S
C2111 C2130 1.368 . S
C2111 H2135 0.949 . S
H2112 C2116 0.949 . S
C2113 C2114 1.349 . S
C2113 C2115 1.327 . S
C2113 H2136 0.950 . S
C2114 C2113 1.349 . S
C2114 C2126 1.349 . S
C2115 C2113 1.327 . S
C2115 C2131 1.429 . S
C2115 H2137 0.950 . S
C2116 H2112 0.949 . S
C2116 C2124 1.574 1_455 S
C2116 C2132 1.368 . S
H2117 C2125 0.950 . S
H2118 C2123 0.950 . S
H2119 C2124 0.949 . S
H2120 C2126 0.950 . S
H2121 C2127 0.950 . S
H2122 C2128 0.949 . S
C2123 H2118 0.950 . S
C2123 C2125 1.327 . S
C2123 C2129 1.429 . S
C2124 C2116 1.574 1_655 S
C2124 H2119 0.949 . S
C2124 C2130 1.368 . S
C2125 C2109 1.349 . S
C2125 H2117 0.950 . S
C2125 C2123 1.327 . S
C2126 C2114 1.349 . S
C2126 H2120 0.950 . S
C2126 C2127 1.327 . S
C2127 H2121 0.950 . S
C2127 C2126 1.327 . S
C2127 C2131 1.429 . S
C2128 C2111 1.574 1_455 S
C2128 H2122 0.949 . S
C2128 C2132 1.368 . S
C2129 C2110 1.429 . S
C2129 C2123 1.429 . S
C2129 C2130 1.523 . S
C2130 C2111 1.368 . S
C2130 C2124 1.368 . S
C2130 C2129 1.523 . S
C2131 C2115 1.429 . S
C2131 C2127 1.429 . S
C2131 C2132 1.523 . S
C2132 C2116 1.368 . S
C2132 C2128 1.368 . S
C2132 C2131 1.523 . S
H2133 C2108 0.950 . S
H2134 C2110 0.950 . S
H2135 C2111 0.949 . S
H2136 C2113 0.950 . S
H2137 C2115 0.950 . S
C2138 C2139 1.349 . S
C2138 C2140 1.327 . S
C2138 H2163 0.950 . S
C2139 C2138 1.349 . S
C2139 C2155 1.349 . S
C2140 C2138 1.327 . S
C2140 C2159 1.429 . S
C2140 H2164 0.950 . S
C2141 C2158 1.574 1_554 S
C2141 C2160 1.368 . S
C2141 H2165 0.949 . S
H2142 C2146 0.949 . S
C2143 C2144 1.349 . S
C2143 C2145 1.327 . S
C2143 H2166 0.950 . S
C2144 C2143 1.349 . S
C2144 C2156 1.349 . S
C2145 C2143 1.327 . S
C2145 C2161 1.429 . S
C2145 H2167 0.950 . S
C2146 H2142 0.949 . S
C2146 C2154 1.574 . S
C2146 C2162 1.368 . S
H2147 C2155 0.950 . S
H2148 C2153 0.950 . S
H2149 C2154 0.949 . S
H2150 C2156 0.950 . S
H2151 C2157 0.950 1_554 S
H2152 C2158 0.949 . S
C2153 H2148 0.950 . S
C2153 C2155 1.327 . S
C2153 C2159 1.429 . S
C2154 C2146 1.574 . S
C2154 H2149 0.949 . S
C2154 C2160 1.368 . S
C2155 C2139 1.349 . S
C2155 H2147 0.950 . S
C2155 C2153 1.327 . S
C2156 C2144 1.349 . S
C2156 H2150 0.950 . S
C2156 C2157 1.327 . S
C2157 H2151 0.950 1_556 S
C2157 C2156 1.327 . S
C2157 C2161 1.429 . S
C2158 C2141 1.574 1_556 S
C2158 H2152 0.949 . S
C2158 C2162 1.368 1_556 S
C2159 C2140 1.429 . S
C2159 C2153 1.429 . S
C2159 C2160 1.523 . S
C2160 C2141 1.368 . S
C2160 C2154 1.368 . S
C2160 C2159 1.523 . S
C2161 C2145 1.429 . S
C2161 C2157 1.429 . S
C2161 C2162 1.523 1_556 S
C2162 C2146 1.368 . S
C2162 C2158 1.368 1_554 S
C2162 C2161 1.523 1_554 S
H2163 C2138 0.950 . S
H2164 C2140 0.950 . S
H2165 C2141 0.949 . S
H2166 C2143 0.950 . S
H2167 C2145 0.950 . S
C2168 C2169 1.349 . S
C2168 C2170 1.327 . S
C2168 H2193 0.950 . S
C2169 C2168 1.349 . S
C2169 C2185 1.349 . S
C2170 C2168 1.327 . S
C2170 C2189 1.429 . S
C2170 H2194 0.950 . S
C2171 C2188 1.574 . S
C2171 C2190 1.368 . S
C2171 H2195 0.949 . S
H2172 C2176 0.949 . S
C2173 C2174 1.349 . S
C2173 C2175 1.327 . S
C2173 H2196 0.950 . S
C2174 C2173 1.349 . S
C2174 C2186 1.349 . S
C2175 C2173 1.327 . S
C2175 C2191 1.429 . S
C2175 H2197 0.950 . S
C2176 H2172 0.949 . S
C2176 C2184 1.574 . S
C2176 C2192 1.368 . S
H2177 C2185 0.950 . S
H2178 C2183 0.950 . S
H2179 C2184 0.949 . S
H2180 C2186 0.950 . S
H2181 C2187 0.950 . S
H2182 C2188 0.949 . S
C2183 H2178 0.950 . S
C2183 C2185 1.327 . S
C2183 C2189 1.429 . S
C2184 C2176 1.574 . S
C2184 H2179 0.949 . S
C2184 C2190 1.368 . S
C2185 C2169 1.349 . S
C2185 H2177 0.950 . S
C2185 C2183 1.327 . S
C2186 C2174 1.349 . S
C2186 H2180 0.950 . S
C2186 C2187 1.327 . S
C2187 H2181 0.950 . S
C2187 C2186 1.327 . S
C2187 C2191 1.429 . S
C2188 C2171 1.574 . S
C2188 H2182 0.949 . S
C2188 C2192 1.368 . S
C2189 C2170 1.429 . S
C2189 C2183 1.429 . S
C2189 C2190 1.523 . S
C2190 C2171 1.368 . S
C2190 C2184 1.368 . S
C2190 C2189 1.523 . S
C2191 C2175 1.429 . S
C2191 C2187 1.429 . S
C2191 C2192 1.523 . S
C2192 C2176 1.368 . S
C2192 C2188 1.368 . S
C2192 C2191 1.523 . S
H2193 C2168 0.950 . S
H2194 C2170 0.950 . S
H2195 C2171 0.949 . S
H2196 C2173 0.950 . S
H2197 C2175 0.950 . S
C2198 C2199 1.349 . S
C2198 C2200 1.327 . S
C2198 H2223 0.950 . S
C2199 C2198 1.349 . S
C2199 C2215 1.349 . S
C2200 C2198 1.327 . S
C2200 C2219 1.429 . S
C2200 H2224 0.950 . S
C2201 C2218 1.574 . S
C2201 C2220 1.368 . S
C2201 H2225 0.949 . S
H2202 C2206 0.949 . S
C2203 C2204 1.349 . S
C2203 C2205 1.327 . S
C2203 H2226 0.950 . S
C2204 C2203 1.349 . S
C2204 C2216 1.349 . S
C2205 C2203 1.327 . S
C2205 C2221 1.429 . S
C2205 H2227 0.950 . S
C2206 H2202 0.949 . S
C2206 C2214 1.574 . S
C2206 C2222 1.368 . S
H2207 C2215 0.950 . S
H2208 C2213 0.950 . S
H2209 C2214 0.949 . S
H2210 C2216 0.950 . S
H2211 C2217 0.950 . S
H2212 C2218 0.949 . S
C2213 H2208 0.950 . S
C2213 C2215 1.327 . S
C2213 C2219 1.429 . S
C2214 C2206 1.574 . S
C2214 H2209 0.949 . S
C2214 C2220 1.368 . S
C2215 C2199 1.349 . S
C2215 H2207 0.950 . S
C2215 C2213 1.327 . S
C2216 C2204 1.349 . S
C2216 H2210 0.950 . S
C2216 C2217 1.327 . S
C2217 H2211 0.950 . S
C2217 C2216 1.327 . S
C2217 C2221 1.429 . S
C2218 C2201 1.574 . S
C2218 H2212 0.949 . S
C2218 C2222 1.368 . S
C2219 C2200 1.429 . S
C2219 C2213 1.429 . S
C2219 C2220 1.523 . S
C2220 C2201 1.368 . S
C2220 C2214 1.368 . S
C2220 C2219 1.523 . S
C2221 C2205 1.429 . S
C2221 C2217 1.429 . S
C2221 C2222 1.523 . S
C2222 C2206 1.368 . S
C2222 C2218 1.368 . S
C2222 C2221 1.523 . S
H2223 C2198 0.950 . S
H2224 C2200 0.950 . S
H2225 C2201 0.949 . S
H2226 C2203 0.950 . S
H2227 C2205 0.950 . S
C2228 C2229 1.349 . S
C2228 C2230 1.327 . S
C2228 H2253 0.950 . S
C2229 C2228 1.349 . S
C2229 C2245 1.349 . S
C2230 C2228 1.327 . S
C2230 C2249 1.429 . S
C2230 H2254 0.950 . S
C2231 C2248 1.574 1_455 S
C2231 C2250 1.368 . S
C2231 H2255 0.949 . S
H2232 C2236 0.944 1_655 S
C2233 C2234 1.349 . S
C2233 C2235 1.327 . S
C2233 H2256 0.950 . S
C2234 C2233 1.349 . S
C2234 C2246 1.349 . S
C2235 C2233 1.327 . S
C2235 C2251 1.429 . S
C2235 H2257 0.950 . S
C2236 H2232 0.944 1_455 S
C2236 C2244 1.572 . S
C2236 C2252 1.370 1_455 S
H2237 C2245 0.950 . S
H2238 C2243 0.950 . S
H2239 C2244 0.949 . S
H2240 C2246 0.950 . S
H2241 C2247 0.950 . S
H2242 C2248 0.949 . S
C2243 H2238 0.950 . S
C2243 C2245 1.327 . S
C2243 C2249 1.429 . S
C2244 C2236 1.572 . S
C2244 H2239 0.949 . S
C2244 C2250 1.368 . S
C2245 C2229 1.349 . S
C2245 H2237 0.950 . S
C2245 C2243 1.327 . S
C2246 C2234 1.349 . S
C2246 H2240 0.950 . S
C2246 C2247 1.327 . S
C2247 H2241 0.950 . S
C2247 C2246 1.327 . S
C2247 C2251 1.429 . S
C2248 C2231 1.574 1_655 S
C2248 H2242 0.949 . S
C2248 C2252 1.368 . S
C2249 C2230 1.429 . S
C2249 C2243 1.429 . S
C2249 C2250 1.523 . S
C2250 C2231 1.368 . S
C2250 C2244 1.368 . S
C2250 C2249 1.523 . S
C2251 C2235 1.429 . S
C2251 C2247 1.429 . S
C2251 C2252 1.523 . S
C2252 C2236 1.370 1_655 S
C2252 C2248 1.368 . S
C2252 C2251 1.523 . S
H2253 C2228 0.950 . S
H2254 C2230 0.950 . S
H2255 C2231 0.949 . S
H2256 C2233 0.950 . S
H2257 C2235 0.950 . S
C2258 C2259 1.349 . S
C2258 C2260 1.327 . S
C2258 H2283 0.950 . S
C2259 C2258 1.349 . S
C2259 C2275 1.349 . S
C2260 C2258 1.327 . S
C2260 C2279 1.429 . S
C2260 H2284 0.950 . S
C2261 C2278 1.574 . S
C2261 C2280 1.368 . S
C2261 H2285 0.949 . S
H2262 C2266 0.949 . S
C2263 C2264 1.349 . S
C2263 C2265 1.327 . S
C2263 H2286 0.950 . S
C2264 C2263 1.349 . S
C2264 C2276 1.349 . S
C2265 C2263 1.327 . S
C2265 C2281 1.429 . S
C2265 H2287 0.950 . S
C2266 H2262 0.949 . S
C2266 C2274 1.574 . S
C2266 C2282 1.368 . S
H2267 C2275 0.950 . S
H2268 C2273 0.950 . S
H2269 C2274 0.949 1_556 S
H2270 C2276 0.950 . S
H2271 C2277 0.950 . S
H2272 C2278 0.949 . S
C2273 H2268 0.950 . S
C2273 C2275 1.327 . S
C2273 C2279 1.429 . S
C2274 C2266 1.574 . S
C2274 H2269 0.949 1_554 S
C2274 C2280 1.368 . S
C2275 C2259 1.349 . S
C2275 H2267 0.950 . S
C2275 C2273 1.327 . S
C2276 C2264 1.349 . S
C2276 H2270 0.950 . S
C2276 C2277 1.327 . S
C2277 H2271 0.950 . S
C2277 C2276 1.327 . S
C2277 C2281 1.429 . S
C2278 C2261 1.574 . S
C2278 H2272 0.949 . S
C2278 C2282 1.368 . S
C2279 C2260 1.429 . S
C2279 C2273 1.429 . S
C2279 C2280 1.523 1_556 S
C2280 C2261 1.368 . S
C2280 C2274 1.368 . S
C2280 C2279 1.523 1_554 S
C2281 C2265 1.429 . S
C2281 C2277 1.429 . S
C2281 C2282 1.523 . S
C2282 C2266 1.368 . S
C2282 C2278 1.368 . S
C2282 C2281 1.523 . S
H2283 C2258 0.950 . S
H2284 C2260 0.950 . S
H2285 C2261 0.949 . S
H2286 C2263 0.950 . S
H2287 C2265 0.950 . S
C2288 C2289 1.349 . S
C2288 C2290 1.327 . S
C2288 H2313 0.950 . S
C2289 C2288 1.349 . S
C2289 C2305 1.349 . S
C2290 C2288 1.327 . S
C2290 C2309 1.429 . S
C2290 H2314 0.950 . S
C2291 C2308 1.574 . S
C2291 C2310 1.368 . S
C2291 H2315 0.949 . S
H2292 C2296 0.949 . S
C2293 C2294 1.349 . S
C2293 C2295 1.327 . S
C2293 H2316 0.950 . S
C2294 C2293 1.349 . S
C2294 C2306 1.349 . S
C2295 C2293 1.327 . S
C2295 C2311 1.429 . S
C2295 H2317 0.950 . S
C2296 H2292 0.949 . S
C2296 C2304 1.574 . S
C2296 C2312 1.368 . S
H2297 C2305 0.950 . S
H2298 C2303 0.950 . S
H2299 C2304 0.949 . S
H2300 C2306 0.950 . S
H2301 C2307 0.950 . S
H2302 C2308 0.949 . S
C2303 H2298 0.950 . S
C2303 C2305 1.327 . S
C2303 C2309 1.429 . S
C2304 C2296 1.574 . S
C2304 H2299 0.949 . S
C2304 C2310 1.368 . S
C2305 C2289 1.349 . S
C2305 H2297 0.950 . S
C2305 C2303 1.327 . S
C2306 C2294 1.349 . S
C2306 H2300 0.950 . S
C2306 C2307 1.327 . S
C2307 H2301 0.950 . S
C2307 C2306 1.327 . S
C2307 C2311 1.429 . S
C2308 C2291 1.574 . S
C2308 H2302 0.949 . S
C2308 C2312 1.368 . S
C2309 C2290 1.429 . S
C2309 C2303 1.429 . S
C2309 C2310 1.523 . S
C2310 C2291 1.368 . S
C2310 C2304 1.368 . S
C2310 C2309 1.523 . S
C2311 C2295 1.429 . S
C2311 C2307 1.429 . S
C2311 C2312 1.523 . S
C2312 C2296 1.368 . S
C2312 C2308 1.368 . S
C2312 C2311 1.523 . S
H2313 C2288 0.950 . S
H2314 C2290 0.950 . S
H2315 C2291 0.949 . S
H2316 C2293 0.950 . S
H2317 C2295 0.950 . S
C2318 C2319 1.349 . S
C2318 C2320 1.327 . S
C2318 H2343 0.950 . S
C2319 C2318 1.349 . S
C2319 C2335 1.349 . S
C2320 C2318 1.327 . S
C2320 C2339 1.429 . S
C2320 H2344 0.950 . S
C2321 C2338 1.574 . S
C2321 C2340 1.368 . S
C2321 H2345 0.949 . S
H2322 C2326 0.949 . S
C2323 C2324 1.349 . S
C2323 C2325 1.327 . S
C2323 H2346 0.950 . S
C2324 C2323 1.349 . S
C2324 C2336 1.349 . S
C2325 C2323 1.327 . S
C2325 C2341 1.429 . S
C2325 H2347 0.950 . S
C2326 H2322 0.949 . S
C2326 C2334 1.574 . S
C2326 C2342 1.368 . S
H2327 C2335 0.950 . S
H2328 C2333 0.950 . S
H2329 C2334 0.949 . S
H2330 C2336 0.950 . S
H2331 C2337 0.950 . S
H2332 C2338 0.949 . S
C2333 H2328 0.950 . S
C2333 C2335 1.327 . S
C2333 C2339 1.429 . S
C2334 C2326 1.574 . S
C2334 H2329 0.949 . S
C2334 C2340 1.368 . S
C2335 C2319 1.349 . S
C2335 H2327 0.950 . S
C2335 C2333 1.327 . S
C2336 C2324 1.349 . S
C2336 H2330 0.950 . S
C2336 C2337 1.327 . S
C2337 H2331 0.950 . S
C2337 C2336 1.327 . S
C2337 C2341 1.429 . S
C2338 C2321 1.574 . S
C2338 H2332 0.949 . S
C2338 C2342 1.368 . S
C2339 C2320 1.429 . S
C2339 C2333 1.429 . S
C2339 C2340 1.523 . S
C2340 C2321 1.368 . S
C2340 C2334 1.368 . S
C2340 C2339 1.523 . S
C2341 C2325 1.429 . S
C2341 C2337 1.429 . S
C2341 C2342 1.523 . S
C2342 C2326 1.368 . S
C2342 C2338 1.368 . S
C2342 C2341 1.523 . S
H2343 C2318 0.950 . S
H2344 C2320 0.950 . S
H2345 C2321 0.949 . S
H2346 C2323 0.950 . S
H2347 C2325 0.950 . S
C2348 C2349 1.349 . S
C2348 C2350 1.327 . S
C2348 H2373 0.950 . S
C2349 C2348 1.349 . S
C2349 C2365 1.349 . S
C2350 C2348 1.327 . S
C2350 C2369 1.429 . S
C2350 H2374 0.950 . S
C2351 C2368 1.574 1_655 S
C2351 C2370 1.368 . S
C2351 H2375 0.949 . S
H2352 C2356 0.949 . S
C2353 C2354 1.349 . S
C2353 C2355 1.327 . S
C2353 H2376 0.950 . S
C2354 C2353 1.349 . S
C2354 C2366 1.349 . S
C2355 C2353 1.327 . S
C2355 C2371 1.429 . S
C2355 H2377 0.950 . S
C2356 H2352 0.949 . S
C2356 C2364 1.574 . S
C2356 C2372 1.368 1_655 S
H2357 C2365 0.950 . S
H2358 C2363 0.950 . S
H2359 C2364 0.949 . S
H2360 C2366 0.950 . S
H2361 C2367 0.950 . S
H2362 C2368 0.949 . S
C2363 H2358 0.950 . S
C2363 C2365 1.327 . S
C2363 C2369 1.429 . S
C2364 C2356 1.574 . S
C2364 H2359 0.949 . S
C2364 C2370 1.368 . S
C2365 C2349 1.349 . S
C2365 H2357 0.950 . S
C2365 C2363 1.327 . S
C2366 C2354 1.349 . S
C2366 H2360 0.950 . S
C2366 C2367 1.327 . S
C2367 H2361 0.950 . S
C2367 C2366 1.327 . S
C2367 C2371 1.429 . S
C2368 C2351 1.574 1_455 S
C2368 H2362 0.949 . S
C2368 C2372 1.368 . S
C2369 C2350 1.429 . S
C2369 C2363 1.429 . S
C2369 C2370 1.523 . S
C2370 C2351 1.368 . S
C2370 C2364 1.368 . S
C2370 C2369 1.523 . S
C2371 C2355 1.429 . S
C2371 C2367 1.429 . S
C2371 C2372 1.523 . S
C2372 C2356 1.368 1_455 S
C2372 C2368 1.368 . S
C2372 C2371 1.523 . S
H2373 C2348 0.950 . S
H2374 C2350 0.950 . S
H2375 C2351 0.949 . S
H2376 C2353 0.950 . S
H2377 C2355 0.950 . S
C2378 C2379 1.349 . S
C2378 C2380 1.327 . S
C2378 H2403 0.950 . S
C2379 C2378 1.349 . S
C2379 C2395 1.349 . S
C2380 C2378 1.327 . S
C2380 C2399 1.429 . S
C2380 H2404 0.950 . S
C2381 C2398 1.574 . S
C2381 C2400 1.368 . S
C2381 H2405 0.949 . S
H2382 C2386 0.949 . S
C2383 C2384 1.349 . S
C2383 C2385 1.327 . S
C2383 H2406 0.950 . S
C2384 C2383 1.349 . S
C2384 C2396 1.349 . S
C2385 C2383 1.327 . S
C2385 C2401 1.429 . S
C2385 H2407 0.950 . S
C2386 H2382 0.949 . S
C2386 C2394 1.574 1_556 S
C2386 C2402 1.368 . S
H2387 C2395 0.950 . S
H2388 C2393 0.950 . S
H2389 C2394 0.949 . S
H2390 C2396 0.950 . S
H2391 C2397 0.950 . S
H2392 C2398 0.949 . S
C2393 H2388 0.950 . S
C2393 C2395 1.327 . S
C2393 C2399 1.429 . S
C2394 C2386 1.574 1_554 S
C2394 H2389 0.949 . S
C2394 C2400 1.368 . S
C2395 C2379 1.349 . S
C2395 H2387 0.950 . S
C2395 C2393 1.327 . S
C2396 C2384 1.349 . S
C2396 H2390 0.950 . S
C2396 C2397 1.327 . S
C2397 H2391 0.950 . S
C2397 C2396 1.327 . S
C2397 C2401 1.429 . S
C2398 C2381 1.574 . S
C2398 H2392 0.949 . S
C2398 C2402 1.368 1_554 S
C2399 C2380 1.429 . S
C2399 C2393 1.429 . S
C2399 C2400 1.523 . S
C2400 C2381 1.368 . S
C2400 C2394 1.368 . S
C2400 C2399 1.523 . S
C2401 C2385 1.429 . S
C2401 C2397 1.429 . S
C2401 C2402 1.523 . S
C2402 C2386 1.368 . S
C2402 C2398 1.368 1_556 S
C2402 C2401 1.523 . S
H2403 C2378 0.950 . S
H2404 C2380 0.950 . S
H2405 C2381 0.949 . S
H2406 C2383 0.950 . S
H2407 C2385 0.950 . S
C2408 C2409 1.349 . S
C2408 C2410 1.327 . S
C2408 H2433 0.950 . S
C2409 C2408 1.349 . S
C2409 C2425 1.349 . S
C2410 C2408 1.327 . S
C2410 C2429 1.429 . S
C2410 H2434 0.950 . S
C2411 C2428 1.574 . S
C2411 C2430 1.368 . S
C2411 H2435 0.949 . S
H2412 C2416 0.949 . S
C2413 C2414 1.349 . S
C2413 C2415 1.327 . S
C2413 H2436 0.950 . S
C2414 C2413 1.349 . S
C2414 C2426 1.349 . S
C2415 C2413 1.327 . S
C2415 C2431 1.429 . S
C2415 H2437 0.950 . S
C2416 H2412 0.949 . S
C2416 C2424 1.574 . S
C2416 C2432 1.368 . S
H2417 C2425 0.950 . S
H2418 C2423 0.950 . S
H2419 C2424 0.949 . S
H2420 C2426 0.950 . S
H2421 C2427 0.950 . S
H2422 C2428 0.949 . S
C2423 H2418 0.950 . S
C2423 C2425 1.327 . S
C2423 C2429 1.429 . S
C2424 C2416 1.574 . S
C2424 H2419 0.949 . S
C2424 C2430 1.368 . S
C2425 C2409 1.349 . S
C2425 H2417 0.950 . S
C2425 C2423 1.327 . S
C2426 C2414 1.349 . S
C2426 H2420 0.950 . S
C2426 C2427 1.327 . S
C2427 H2421 0.950 . S
C2427 C2426 1.327 . S
C2427 C2431 1.429 . S
C2428 C2411 1.574 . S
C2428 H2422 0.949 . S
C2428 C2432 1.368 . S
C2429 C2410 1.429 . S
C2429 C2423 1.429 . S
C2429 C2430 1.523 . S
C2430 C2411 1.368 . S
C2430 C2424 1.368 . S
C2430 C2429 1.523 . S
C2431 C2415 1.429 . S
C2431 C2427 1.429 . S
C2431 C2432 1.523 . S
C2432 C2416 1.368 . S
C2432 C2428 1.368 . S
C2432 C2431 1.523 . S
H2433 C2408 0.950 . S
H2434 C2410 0.950 . S
H2435 C2411 0.949 . S
H2436 C2413 0.950 . S
H2437 C2415 0.950 . S
C2438 C2439 1.349 . S
C2438 C2440 1.327 . S
C2438 H2463 0.950 . S
C2439 C2438 1.349 . S
C2439 C2455 1.349 . S
C2440 C2438 1.327 . S
C2440 C2459 1.429 . S
C2440 H2464 0.950 . S
C2441 C2458 1.574 . S
C2441 C2460 1.368 . S
C2441 H2465 0.949 . S
H2442 C2446 0.949 . S
C2443 C2444 1.349 . S
C2443 C2445 1.327 . S
C2443 H2466 0.950 . S
C2444 C2443 1.349 . S
C2444 C2456 1.349 . S
C2445 C2443 1.327 . S
C2445 C2461 1.429 . S
C2445 H2467 0.950 . S
C2446 H2442 0.949 . S
C2446 C2454 1.574 . S
C2446 C2462 1.368 . S
H2447 C2455 0.950 . S
H2448 C2453 0.950 . S
H2449 C2454 0.949 . S
H2450 C2456 0.950 . S
H2451 C2457 0.950 . S
H2452 C2458 0.949 . S
C2453 H2448 0.950 . S
C2453 C2455 1.327 . S
C2453 C2459 1.429 . S
C2454 C2446 1.574 . S
C2454 H2449 0.949 . S
C2454 C2460 1.368 . S
C2455 C2439 1.349 . S
C2455 H2447 0.950 . S
C2455 C2453 1.327 . S
C2456 C2444 1.349 . S
C2456 H2450 0.950 . S
C2456 C2457 1.327 . S
C2457 H2451 0.950 . S
C2457 C2456 1.327 . S
C2457 C2461 1.429 . S
C2458 C2441 1.574 . S
C2458 H2452 0.949 . S
C2458 C2462 1.368 . S
C2459 C2440 1.429 . S
C2459 C2453 1.429 . S
C2459 C2460 1.523 . S
C2460 C2441 1.368 . S
C2460 C2454 1.368 . S
C2460 C2459 1.523 . S
C2461 C2445 1.429 . S
C2461 C2457 1.429 . S
C2461 C2462 1.523 . S
C2462 C2446 1.368 . S
C2462 C2458 1.368 . S
C2462 C2461 1.523 . S
H2463 C2438 0.950 . S
H2464 C2440 0.950 . S
H2465 C2441 0.949 . S
H2466 C2443 0.950 . S
H2467 C2445 0.950 . S
C2468 C2469 1.349 . S
C2468 C2470 1.327 . S
C2468 H2493 0.950 . S
C2469 C2468 1.349 . S
C2469 C2485 1.349 . S
C2470 C2468 1.327 . S
C2470 C2489 1.429 . S
C2470 H2494 0.950 . S
C2471 C2488 1.574 1_455 S
C2471 C2490 1.368 . S
C2471 H2495 0.949 . S
H2472 C2476 0.949 . S
C2473 C2474 1.349 . S
C2473 C2475 1.327 . S
C2473 H2496 0.950 . S
C2474 C2473 1.349 . S
C2474 C2486 1.349 . S
C2475 C2473 1.327 . S
C2475 C2491 1.429 . S
C2475 H2497 0.950 . S
C2476 H2472 0.949 . S
C2476 C2484 1.574 . S
C2476 C2492 1.368 . S
H2477 C2485 0.950 . S
H2478 C2483 0.950 . S
H2479 C2484 0.949 . S
H2480 C2486 0.950 . S
H2481 C2487 0.950 . S
H2482 C2488 0.949 . S
C2483 H2478 0.950 . S
C2483 C2485 1.327 . S
C2483 C2489 1.429 . S
C2484 C2476 1.574 . S
C2484 H2479 0.949 . S
C2484 C2490 1.368 1_655 S
C2485 C2469 1.349 . S
C2485 H2477 0.950 . S
C2485 C2483 1.327 . S
C2486 C2474 1.349 . S
C2486 H2480 0.950 . S
C2486 C2487 1.327 . S
C2487 H2481 0.950 . S
C2487 C2486 1.327 . S
C2487 C2491 1.429 . S
C2488 C2471 1.574 1_655 S
C2488 H2482 0.949 . S
C2488 C2492 1.368 . S
C2489 C2470 1.429 . S
C2489 C2483 1.429 . S
C2489 C2490 1.523 . S
C2490 C2471 1.368 . S
C2490 C2484 1.368 1_455 S
C2490 C2489 1.523 . S
C2491 C2475 1.429 . S
C2491 C2487 1.429 . S
C2491 C2492 1.523 . S
C2492 C2476 1.368 . S
C2492 C2488 1.368 . S
C2492 C2491 1.523 . S
H2493 C2468 0.950 . S
H2494 C2470 0.950 . S
H2495 C2471 0.949 . S
H2496 C2473 0.950 . S
H2497 C2475 0.950 . S
C2498 C2499 1.349 . S
C2498 C2500 1.327 . S
C2498 H2523 0.950 . S
C2499 C2498 1.349 . S
C2499 C2515 1.349 . S
C2500 C2498 1.327 . S
C2500 C2519 1.429 . S
C2500 H2524 0.950 . S
C2501 C2518 1.574 1_556 S
C2501 C2520 1.368 1_556 S
C2501 H2525 0.949 . S
H2502 C2506 0.949 . S
C2503 C2504 1.349 . S
C2503 C2505 1.327 . S
C2503 H2526 0.950 . S
C2504 C2503 1.349 . S
C2504 C2516 1.349 . S
C2505 C2503 1.327 . S
C2505 C2521 1.429 . S
C2505 H2527 0.950 . S
C2506 H2502 0.949 . S
C2506 C2514 1.574 . S
C2506 C2522 1.368 . S
H2507 C2515 0.950 . S
H2508 C2513 0.950 . S
H2509 C2514 0.949 . S
H2510 C2516 0.950 . S
H2511 C2517 0.950 . S
H2512 C2518 0.949 . S
C2513 H2508 0.950 . S
C2513 C2515 1.327 . S
C2513 C2519 1.429 . S
C2514 C2506 1.574 . S
C2514 H2509 0.949 . S
C2514 C2520 1.368 . S
C2515 C2499 1.349 . S
C2515 H2507 0.950 . S
C2515 C2513 1.327 . S
C2516 C2504 1.349 . S
C2516 H2510 0.950 . S
C2516 C2517 1.327 . S
C2517 H2511 0.950 . S
C2517 C2516 1.327 . S
C2517 C2521 1.429 . S
C2518 C2501 1.574 1_554 S
C2518 H2512 0.949 . S
C2518 C2522 1.368 . S
C2519 C2500 1.429 . S
C2519 C2513 1.429 . S
C2519 C2520 1.523 1_556 S
C2520 C2501 1.368 1_554 S
C2520 C2514 1.368 . S
C2520 C2519 1.523 1_554 S
C2521 C2505 1.429 . S
C2521 C2517 1.429 . S
C2521 C2522 1.523 . S
C2522 C2506 1.368 . S
C2522 C2518 1.368 . S
C2522 C2521 1.523 . S
H2523 C2498 0.950 . S
H2524 C2500 0.950 . S
H2525 C2501 0.949 . S
H2526 C2503 0.950 . S
H2527 C2505 0.950 . S
C2528 C2529 1.349 . S
C2528 C2530 1.327 . S
C2528 H2553 0.950 . S
C2529 C2528 1.349 . S
C2529 C2545 1.349 . S
C2530 C2528 1.327 . S
C2530 C2549 1.429 . S
C2530 H2554 0.950 . S
C2531 C2548 1.574 . S
C2531 C2550 1.368 . S
C2531 H2555 0.949 . S
H2532 C2536 0.949 . S
C2533 C2534 1.349 . S
C2533 C2535 1.327 . S
C2533 H2556 0.950 . S
C2534 C2533 1.349 . S
C2534 C2546 1.349 . S
C2535 C2533 1.327 . S
C2535 C2551 1.429 . S
C2535 H2557 0.950 . S
C2536 H2532 0.949 . S
C2536 C2544 1.574 . S
C2536 C2552 1.368 . S
H2537 C2545 0.950 . S
H2538 C2543 0.950 . S
H2539 C2544 0.949 . S
H2540 C2546 0.950 . S
H2541 C2547 0.950 . S
H2542 C2548 0.949 . S
C2543 H2538 0.950 . S
C2543 C2545 1.327 . S
C2543 C2549 1.429 . S
C2544 C2536 1.574 . S
C2544 H2539 0.949 . S
C2544 C2550 1.368 1_565 S
C2545 C2529 1.349 . S
C2545 H2537 0.950 . S
C2545 C2543 1.327 . S
C2546 C2534 1.349 . S
C2546 H2540 0.950 . S
C2546 C2547 1.327 . S
C2547 H2541 0.950 . S
C2547 C2546 1.327 . S
C2547 C2551 1.429 . S
C2548 C2531 1.574 . S
C2548 H2542 0.949 . S
C2548 C2552 1.368 1_545 S
C2549 C2530 1.429 . S
C2549 C2543 1.429 . S
C2549 C2550 1.523 . S
C2550 C2531 1.368 . S
C2550 C2544 1.368 1_545 S
C2550 C2549 1.523 . S
C2551 C2535 1.429 . S
C2551 C2547 1.429 . S
C2551 C2552 1.523 . S
C2552 C2536 1.368 . S
C2552 C2548 1.368 1_565 S
C2552 C2551 1.523 . S
H2553 C2528 0.950 . S
H2554 C2530 0.950 . S
H2555 C2531 0.949 . S
H2556 C2533 0.950 . S
H2557 C2535 0.950 . S
C2558 C2559 1.349 . S
C2558 C2560 1.327 . S
C2558 H2583 0.950 . S
C2559 C2558 1.349 . S
C2559 C2575 1.349 . S
C2560 C2558 1.327 . S
C2560 C2579 1.429 . S
C2560 H2584 0.950 . S
C2561 C2578 1.574 . S
C2561 C2580 1.368 . S
C2561 H2585 0.949 . S
H2562 C2566 0.949 . S
C2563 C2564 1.349 . S
C2563 C2565 1.327 . S
C2563 H2586 0.950 . S
C2564 C2563 1.349 . S
C2564 C2576 1.349 . S
C2565 C2563 1.327 . S
C2565 C2581 1.429 . S
C2565 H2587 0.950 . S
C2566 H2562 0.949 . S
C2566 C2574 1.574 . S
C2566 C2582 1.368 . S
H2567 C2575 0.950 . S
H2568 C2573 0.950 . S
H2569 C2574 0.949 . S
H2570 C2576 0.950 . S
H2571 C2577 0.950 . S
H2572 C2578 0.949 . S
C2573 H2568 0.950 . S
C2573 C2575 1.327 . S
C2573 C2579 1.429 . S
C2574 C2566 1.574 . S
C2574 H2569 0.949 . S
C2574 C2580 1.368 . S
C2575 C2559 1.349 . S
C2575 H2567 0.950 . S
C2575 C2573 1.327 . S
C2576 C2564 1.349 . S
C2576 H2570 0.950 . S
C2576 C2577 1.327 . S
C2577 H2571 0.950 . S
C2577 C2576 1.327 . S
C2577 C2581 1.429 . S
C2578 C2561 1.574 . S
C2578 H2572 0.949 . S
C2578 C2582 1.368 . S
C2579 C2560 1.429 . S
C2579 C2573 1.429 . S
C2579 C2580 1.523 . S
C2580 C2561 1.368 . S
C2580 C2574 1.368 . S
C2580 C2579 1.523 . S
C2581 C2565 1.429 . S
C2581 C2577 1.429 . S
C2581 C2582 1.523 . S
C2582 C2566 1.368 . S
C2582 C2578 1.368 . S
C2582 C2581 1.523 . S
H2583 C2558 0.950 . S
H2584 C2560 0.950 . S
H2585 C2561 0.949 . S
H2586 C2563 0.950 . S
H2587 C2565 0.950 . S
C2588 C2589 1.349 . S
C2588 C2590 1.327 . S
C2588 H2613 0.950 . S
C2589 C2588 1.349 . S
C2589 C2605 1.349 . S
C2590 C2588 1.327 . S
C2590 C2609 1.429 . S
C2590 H2614 0.950 . S
C2591 C2608 1.569 . S
C2591 C2610 1.368 . S
C2591 H2615 0.949 . S
H2592 C2596 0.949 . S
C2593 C2594 1.349 . S
C2593 C2595 1.327 . S
C2593 H2616 0.950 . S
C2594 C2593 1.349 . S
C2594 C2606 1.349 . S
C2595 C2593 1.327 . S
C2595 C2611 1.429 . S
C2595 H2617 0.950 . S
C2596 H2592 0.949 . S
C2596 C2604 1.570 . S
C2596 C2612 1.368 . S
H2597 C2605 0.950 . S
H2598 C2603 0.950 . S
H2599 C2604 0.949 1_545 S
H2600 C2606 0.950 . S
H2601 C2607 0.950 . S
H2602 C2608 0.949 1_565 S
C2603 H2598 0.950 . S
C2603 C2605 1.327 . S
C2603 C2609 1.429 . S
C2604 C2596 1.570 . S
C2604 H2599 0.949 1_565 S
C2604 C2610 1.372 1_565 S
C2605 C2589 1.349 . S
C2605 H2597 0.950 . S
C2605 C2603 1.327 . S
C2606 C2594 1.349 . S
C2606 H2600 0.950 . S
C2606 C2607 1.327 . S
C2607 H2601 0.950 . S
C2607 C2606 1.327 . S
C2607 C2611 1.429 . S
C2608 C2591 1.569 . S
C2608 H2602 0.949 1_545 S
C2608 C2612 1.373 1_545 S
C2609 C2590 1.429 . S
C2609 C2603 1.429 . S
C2609 C2610 1.523 . S
C2610 C2591 1.368 . S
C2610 C2604 1.372 1_545 S
C2610 C2609 1.523 . S
C2611 C2595 1.429 . S
C2611 C2607 1.429 . S
C2611 C2612 1.523 . S
C2612 C2596 1.368 . S
C2612 C2608 1.373 1_565 S
C2612 C2611 1.523 . S
H2613 C2588 0.950 . S
H2614 C2590 0.950 . S
H2615 C2591 0.949 . S
H2616 C2593 0.950 . S
H2617 C2595 0.950 . S
C2618 C2619 1.349 . S
C2618 C2620 1.327 . S
C2618 H2643 0.950 . S
C2619 C2618 1.349 . S
C2619 C2635 1.349 . S
C2620 C2618 1.327 . S
C2620 C2639 1.429 . S
C2620 H2644 0.950 . S
C2621 C2638 1.574 1_556 S
C2621 C2640 1.368 1_556 S
C2621 H2645 0.949 . S
H2622 C2626 0.949 . S
C2623 C2624 1.349 . S
C2623 C2625 1.327 . S
C2623 H2646 0.950 . S
C2624 C2623 1.349 . S
C2624 C2636 1.349 . S
C2625 C2623 1.327 . S
C2625 C2641 1.429 . S
C2625 H2647 0.950 . S
C2626 H2622 0.949 . S
C2626 C2634 1.574 . S
C2626 C2642 1.368 . S
H2627 C2635 0.950 . S
H2628 C2633 0.950 . S
H2629 C2634 0.949 . S
H2630 C2636 0.950 . S
H2631 C2637 0.950 . S
H2632 C2638 0.949 . S
C2633 H2628 0.950 . S
C2633 C2635 1.327 . S
C2633 C2639 1.429 . S
C2634 C2626 1.574 . S
C2634 H2629 0.949 . S
C2634 C2640 1.368 . S
C2635 C2619 1.349 . S
C2635 H2627 0.950 . S
C2635 C2633 1.327 . S
C2636 C2624 1.349 . S
C2636 H2630 0.950 . S
C2636 C2637 1.327 . S
C2637 H2631 0.950 . S
C2637 C2636 1.327 . S
C2637 C2641 1.429 . S
C2638 C2621 1.574 1_554 S
C2638 H2632 0.949 . S
C2638 C2642 1.368 . S
C2639 C2620 1.429 . S
C2639 C2633 1.429 . S
C2639 C2640 1.523 1_556 S
C2640 C2621 1.368 1_554 S
C2640 C2634 1.368 . S
C2640 C2639 1.523 1_554 S
C2641 C2625 1.429 . S
C2641 C2637 1.429 . S
C2641 C2642 1.523 . S
C2642 C2626 1.368 . S
C2642 C2638 1.368 . S
C2642 C2641 1.523 . S
H2643 C2618 0.950 . S
H2644 C2620 0.950 . S
H2645 C2621 0.949 . S
H2646 C2623 0.950 . S
H2647 C2625 0.950 . S
C2648 C2649 1.349 . S
C2648 C2650 1.327 . S
C2648 H2673 0.950 . S
C2649 C2648 1.349 . S
C2649 C2665 1.349 . S
C2650 C2648 1.327 . S
C2650 C2669 1.429 . S
C2650 H2674 0.950 . S
C2651 C2668 1.574 . S
C2651 C2670 1.368 . S
C2651 H2675 0.949 . S
H2652 C2656 0.949 . S
C2653 C2654 1.349 . S
C2653 C2655 1.327 . S
C2653 H2676 0.950 . S
C2654 C2653 1.349 . S
C2654 C2666 1.349 . S
C2655 C2653 1.327 . S
C2655 C2671 1.429 . S
C2655 H2677 0.950 . S
C2656 H2652 0.949 . S
C2656 C2664 1.574 . S
C2656 C2672 1.368 . S
H2657 C2665 0.950 . S
H2658 C2663 0.950 . S
H2659 C2664 0.949 . S
H2660 C2666 0.950 . S
H2661 C2667 0.950 . S
H2662 C2668 0.949 . S
C2663 H2658 0.950 . S
C2663 C2665 1.327 . S
C2663 C2669 1.429 . S
C2664 C2656 1.574 . S
C2664 H2659 0.949 . S
C2664 C2670 1.368 1_545 S
C2665 C2649 1.349 . S
C2665 H2657 0.950 . S
C2665 C2663 1.327 . S
C2666 C2654 1.349 . S
C2666 H2660 0.950 . S
C2666 C2667 1.327 . S
C2667 H2661 0.950 . S
C2667 C2666 1.327 . S
C2667 C2671 1.429 . S
C2668 C2651 1.574 . S
C2668 H2662 0.949 . S
C2668 C2672 1.368 1_565 S
C2669 C2650 1.429 . S
C2669 C2663 1.429 . S
C2669 C2670 1.523 . S
C2670 C2651 1.368 . S
C2670 C2664 1.368 1_565 S
C2670 C2669 1.523 . S
C2671 C2655 1.429 . S
C2671 C2667 1.429 . S
C2671 C2672 1.523 . S
C2672 C2656 1.368 . S
C2672 C2668 1.368 1_545 S
C2672 C2671 1.523 . S
H2673 C2648 0.950 . S
H2674 C2650 0.950 . S
H2675 C2651 0.949 . S
H2676 C2653 0.950 . S
H2677 C2655 0.950 . S
C2678 C2679 1.349 . S
C2678 C2680 1.327 . S
C2678 H2703 0.950 . S
C2679 C2678 1.349 . S
C2679 C2695 1.349 . S
C2680 C2678 1.327 . S
C2680 C2699 1.429 . S
C2680 H2704 0.950 . S
C2681 C2698 1.574 . S
C2681 C2700 1.368 . S
C2681 H2705 0.949 . S
H2682 C2686 0.949 . S
C2683 C2684 1.349 . S
C2683 C2685 1.327 . S
C2683 H2706 0.950 . S
C2684 C2683 1.349 . S
C2684 C2696 1.349 . S
C2685 C2683 1.327 . S
C2685 C2701 1.429 . S
C2685 H2707 0.950 . S
C2686 H2682 0.949 . S
C2686 C2694 1.574 . S
C2686 C2702 1.368 . S
H2687 C2695 0.950 . S
H2688 C2693 0.950 . S
H2689 C2694 0.949 . S
H2690 C2696 0.950 . S
H2691 C2697 0.950 . S
H2692 C2698 0.949 . S
C2693 H2688 0.950 . S
C2693 C2695 1.327 . S
C2693 C2699 1.429 . S
C2694 C2686 1.574 . S
C2694 H2689 0.949 . S
C2694 C2700 1.368 . S
C2695 C2679 1.349 . S
C2695 H2687 0.950 . S
C2695 C2693 1.327 . S
C2696 C2684 1.349 . S
C2696 H2690 0.950 . S
C2696 C2697 1.327 . S
C2697 H2691 0.950 . S
C2697 C2696 1.327 . S
C2697 C2701 1.429 . S
C2698 C2681 1.574 . S
C2698 H2692 0.949 . S
C2698 C2702 1.368 . S
C2699 C2680 1.429 . S
C2699 C2693 1.429 . S
C2699 C2700 1.523 . S
C2700 C2681 1.368 . S
C2700 C2694 1.368 . S
C2700 C2699 1.523 . S
C2701 C2685 1.429 . S
C2701 C2697 1.429 . S
C2701 C2702 1.523 . S
C2702 C2686 1.368 . S
C2702 C2698 1.368 . S
C2702 C2701 1.523 . S
H2703 C2678 0.950 . S
H2704 C2680 0.950 . S
H2705 C2681 0.949 . S
H2706 C2683 0.950 . S
H2707 C2685 0.950 . S
C2708 C2709 1.349 . S
C2708 C2710 1.327 . S
C2708 H2733 0.950 . S
C2709 C2708 1.349 . S
C2709 C2725 1.349 . S
C2710 C2708 1.327 . S
C2710 C2729 1.429 . S
C2710 H2734 0.950 . S
C2711 C2728 1.585 . S
C2711 C2730 1.357 1_545 S
C2711 H2735 0.949 . S
H2712 C2716 0.949 . S
C2713 C2714 1.349 . S
C2713 C2715 1.327 . S
C2713 H2736 0.950 . S
C2714 C2713 1.349 . S
C2714 C2726 1.349 . S
C2715 C2713 1.327 . S
C2715 C2731 1.429 . S
C2715 H2737 0.950 . S
C2716 H2712 0.949 . S
C2716 C2724 1.589 . S
C2716 C2732 1.353 1_565 S
H2717 C2725 0.950 . S
H2718 C2723 0.950 . S
H2719 C2724 0.949 . S
H2720 C2726 0.950 . S
H2721 C2727 0.950 . S
H2722 C2728 0.949 . S
C2723 H2718 0.950 . S
C2723 C2725 1.327 . S
C2723 C2729 1.429 . S
C2724 C2716 1.589 . S
C2724 H2719 0.949 . S
C2724 C2730 1.368 . S
C2725 C2709 1.349 . S
C2725 H2717 0.950 . S
C2725 C2723 1.327 . S
C2726 C2714 1.349 . S
C2726 H2720 0.950 . S
C2726 C2727 1.327 . S
C2727 H2721 0.950 . S
C2727 C2726 1.327 . S
C2727 C2731 1.429 . S
C2728 C2711 1.585 . S
C2728 H2722 0.949 . S
C2728 C2732 1.368 . S
C2729 C2710 1.429 . S
C2729 C2723 1.429 . S
C2729 C2730 1.523 . S
C2730 C2711 1.357 1_565 S
C2730 C2724 1.368 . S
C2730 C2729 1.523 . S
C2731 C2715 1.429 . S
C2731 C2727 1.429 . S
C2731 C2732 1.523 . S
C2732 C2716 1.353 1_545 S
C2732 C2728 1.368 . S
C2732 C2731 1.523 . S
H2733 C2708 0.950 . S
H2734 C2710 0.950 . S
H2735 C2711 0.949 . S
H2736 C2713 0.950 . S
H2737 C2715 0.950 . S
C2738 C2739 1.349 . S
C2738 C2740 1.327 . S
C2738 H2763 0.950 . S
C2739 C2738 1.349 . S
C2739 C2755 1.349 . S
C2740 C2738 1.327 . S
C2740 C2759 1.429 . S
C2740 H2764 0.950 . S
C2741 C2758 1.574 1_554 S
C2741 C2760 1.368 . S
C2741 H2765 0.949 . S
H2742 C2746 0.949 . S
C2743 C2744 1.349 . S
C2743 C2745 1.327 . S
C2743 H2766 0.950 . S
C2744 C2743 1.349 . S
C2744 C2756 1.349 . S
C2745 C2743 1.327 . S
C2745 C2761 1.429 . S
C2745 H2767 0.950 . S
C2746 H2742 0.949 . S
C2746 C2754 1.574 . S
C2746 C2762 1.385 . S
H2747 C2755 0.950 . S
H2748 C2753 0.950 . S
H2749 C2754 0.949 . S
H2750 C2756 0.950 . S
H2751 C2757 0.950 . S
H2752 C2758 0.949 . S
C2753 H2748 0.950 . S
C2753 C2755 1.327 . S
C2753 C2759 1.429 . S
C2754 C2746 1.574 . S
C2754 H2749 0.949 . S
C2754 C2760 1.368 . S
C2755 C2739 1.349 . S
C2755 H2747 0.950 . S
C2755 C2753 1.327 . S
C2756 C2744 1.349 . S
C2756 H2750 0.950 . S
C2756 C2757 1.327 . S
C2757 H2751 0.950 . S
C2757 C2756 1.327 . S
C2757 C2761 1.429 . S
C2758 C2741 1.574 1_556 S
C2758 H2752 0.949 . S
C2758 C2762 1.366 1_556 S
C2759 C2740 1.429 . S
C2759 C2753 1.429 . S
C2759 C2760 1.523 . S
C2760 C2741 1.368 . S
C2760 C2754 1.368 . S
C2760 C2759 1.523 . S
C2761 C2745 1.429 . S
C2761 C2757 1.429 . S
C2761 C2762 1.505 1_556 S
C2762 C2746 1.385 . S
C2762 C2758 1.366 1_554 S
C2762 C2761 1.505 1_554 S
H2763 C2738 0.950 . S
H2764 C2740 0.950 . S
H2765 C2741 0.949 . S
H2766 C2743 0.950 . S
H2767 C2745 0.950 . S
C2768 C2769 1.349 . S
C2768 C2770 1.327 . S
C2768 H2793 0.950 . S
C2769 C2768 1.349 . S
C2769 C2785 1.349 . S
C2770 C2768 1.327 . S
C2770 C2789 1.429 . S
C2770 H2794 0.950 . S
C2771 C2788 1.574 . S
C2771 C2790 1.368 . S
C2771 H2795 0.949 . S
H2772 C2776 0.949 . S
C2773 C2774 1.349 . S
C2773 C2775 1.327 . S
C2773 H2796 0.950 . S
C2774 C2773 1.349 . S
C2774 C2786 1.349 . S
C2775 C2773 1.327 . S
C2775 C2791 1.429 . S
C2775 H2797 0.950 . S
C2776 H2772 0.949 . S
C2776 C2784 1.574 . S
C2776 C2792 1.368 . S
H2777 C2785 0.950 . S
H2778 C2783 0.950 . S
H2779 C2784 0.949 . S
H2780 C2786 0.950 . S
H2781 C2787 0.950 . S
H2782 C2788 0.949 . S
C2783 H2778 0.950 . S
C2783 C2785 1.327 . S
C2783 C2789 1.429 . S
C2784 C2776 1.574 . S
C2784 H2779 0.949 . S
C2784 C2790 1.368 . S
C2785 C2769 1.349 . S
C2785 H2777 0.950 . S
C2785 C2783 1.327 . S
C2786 C2774 1.349 . S
C2786 H2780 0.950 . S
C2786 C2787 1.327 . S
C2787 H2781 0.950 . S
C2787 C2786 1.327 . S
C2787 C2791 1.429 . S
C2788 C2771 1.574 . S
C2788 H2782 0.949 . S
C2788 C2792 1.368 . S
C2789 C2770 1.429 . S
C2789 C2783 1.429 . S
C2789 C2790 1.523 . S
C2790 C2771 1.368 . S
C2790 C2784 1.368 . S
C2790 C2789 1.523 . S
C2791 C2775 1.429 . S
C2791 C2787 1.429 . S
C2791 C2792 1.523 . S
C2792 C2776 1.368 . S
C2792 C2788 1.368 . S
C2792 C2791 1.523 . S
H2793 C2768 0.950 . S
H2794 C2770 0.950 . S
H2795 C2771 0.949 . S
H2796 C2773 0.950 . S
H2797 C2775 0.950 . S
C2798 C2799 1.349 . S
C2798 C2800 1.327 . S
C2798 H2823 0.950 . S
C2799 C2798 1.349 . S
C2799 C2815 1.349 . S
C2800 C2798 1.327 . S
C2800 C2819 1.429 . S
C2800 H2824 0.950 . S
C2801 C2818 1.574 1_556 S
C2801 C2820 1.368 1_556 S
C2801 H2825 0.949 . S
H2802 C2806 0.949 . S
C2803 C2804 1.349 . S
C2803 C2805 1.327 . S
C2803 H2826 0.950 . S
C2804 C2803 1.349 . S
C2804 C2816 1.349 . S
C2805 C2803 1.327 . S
C2805 C2821 1.429 . S
C2805 H2827 0.950 . S
C2806 H2802 0.949 . S
C2806 C2814 1.574 . S
C2806 C2822 1.368 . S
H2807 C2815 0.950 . S
H2808 C2813 0.950 . S
H2809 C2814 0.949 . S
H2810 C2816 0.950 . S
H2811 C2817 0.950 . S
H2812 C2818 0.949 . S
C2813 H2808 0.950 . S
C2813 C2815 1.327 . S
C2813 C2819 1.429 . S
C2814 C2806 1.574 . S
C2814 H2809 0.949 . S
C2814 C2820 1.368 . S
C2815 C2799 1.349 . S
C2815 H2807 0.950 . S
C2815 C2813 1.327 . S
C2816 C2804 1.349 . S
C2816 H2810 0.950 . S
C2816 C2817 1.327 . S
C2817 H2811 0.950 . S
C2817 C2816 1.327 . S
C2817 C2821 1.429 . S
C2818 C2801 1.574 1_554 S
C2818 H2812 0.949 . S
C2818 C2822 1.368 . S
C2819 C2800 1.429 . S
C2819 C2813 1.429 . S
C2819 C2820 1.523 1_556 S
C2820 C2801 1.368 1_554 S
C2820 C2814 1.368 . S
C2820 C2819 1.523 1_554 S
C2821 C2805 1.429 . S
C2821 C2817 1.429 . S
C2821 C2822 1.523 . S
C2822 C2806 1.368 . S
C2822 C2818 1.368 . S
C2822 C2821 1.523 . S
H2823 C2798 0.950 . S
H2824 C2800 0.950 . S
H2825 C2801 0.949 . S
H2826 C2803 0.950 . S
H2827 C2805 0.950 . S
C2828 C2829 1.349 . S
C2828 C2830 1.327 . S
C2828 H2853 0.950 . S
C2829 C2828 1.349 . S
C2829 C2845 1.349 . S
C2830 C2828 1.327 . S
C2830 C2849 1.429 . S
C2830 H2854 0.950 . S
C2831 C2848 1.574 . S
C2831 C2850 1.368 . S
C2831 H2855 0.949 . S
H2832 C2836 0.949 . S
C2833 C2834 1.349 . S
C2833 C2835 1.327 . S
C2833 H2856 0.950 . S
C2834 C2833 1.349 . S
C2834 C2846 1.349 . S
C2835 C2833 1.327 . S
C2835 C2851 1.429 . S
C2835 H2857 0.950 . S
C2836 H2832 0.949 . S
C2836 C2844 1.574 . S
C2836 C2852 1.368 . S
H2837 C2845 0.950 . S
H2838 C2843 0.950 . S
H2839 C2844 0.949 . S
H2840 C2846 0.950 . S
H2841 C2847 0.950 . S
H2842 C2848 0.949 . S
C2843 H2838 0.950 . S
C2843 C2845 1.327 . S
C2843 C2849 1.429 . S
C2844 C2836 1.574 . S
C2844 H2839 0.949 . S
C2844 C2850 1.368 . S
C2845 C2829 1.349 . S
C2845 H2837 0.950 . S
C2845 C2843 1.327 . S
C2846 C2834 1.349 . S
C2846 H2840 0.950 . S
C2846 C2847 1.327 . S
C2847 H2841 0.950 . S
C2847 C2846 1.327 . S
C2847 C2851 1.429 . S
C2848 C2831 1.574 . S
C2848 H2842 0.949 . S
C2848 C2852 1.368 . S
C2849 C2830 1.429 . S
C2849 C2843 1.429 . S
C2849 C2850 1.523 . S
C2850 C2831 1.368 . S
C2850 C2844 1.368 . S
C2850 C2849 1.523 . S
C2851 C2835 1.429 . S
C2851 C2847 1.429 . S
C2851 C2852 1.523 . S
C2852 C2836 1.368 . S
C2852 C2848 1.368 . S
C2852 C2851 1.523 . S
H2853 C2828 0.950 . S
H2854 C2830 0.950 . S
H2855 C2831 0.949 . S
H2856 C2833 0.950 . S
H2857 C2835 0.950 . S
C2858 C2859 1.349 . S
C2858 C2860 1.327 . S
C2858 H2883 0.950 . S
C2859 C2858 1.349 . S
C2859 C2875 1.349 . S
C2860 C2858 1.327 . S
C2860 C2879 1.429 . S
C2860 H2884 0.950 . S
C2861 C2878 1.574 . S
C2861 C2880 1.368 . S
C2861 H2885 0.949 . S
H2862 C2866 0.949 . S
C2863 C2864 1.349 . S
C2863 C2865 1.327 . S
C2863 H2886 0.950 . S
C2864 C2863 1.349 . S
C2864 C2876 1.349 . S
C2865 C2863 1.327 . S
C2865 C2881 1.429 . S
C2865 H2887 0.950 . S
C2866 H2862 0.949 . S
C2866 C2874 1.574 . S
C2866 C2882 1.368 . S
H2867 C2875 0.950 . S
H2868 C2873 0.950 . S
H2869 C2874 0.949 . S
H2870 C2876 0.950 . S
H2871 C2877 0.950 . S
H2872 C2878 0.949 . S
C2873 H2868 0.950 . S
C2873 C2875 1.327 . S
C2873 C2879 1.429 . S
C2874 C2866 1.574 . S
C2874 H2869 0.949 . S
C2874 C2880 1.368 . S
C2875 C2859 1.349 . S
C2875 H2867 0.950 . S
C2875 C2873 1.327 . S
C2876 C2864 1.349 . S
C2876 H2870 0.950 . S
C2876 C2877 1.327 . S
C2877 H2871 0.950 . S
C2877 C2876 1.327 . S
C2877 C2881 1.429 . S
C2878 C2861 1.574 . S
C2878 H2872 0.949 . S
C2878 C2882 1.368 . S
C2879 C2860 1.429 . S
C2879 C2873 1.429 . S
C2879 C2880 1.523 . S
C2880 C2861 1.368 . S
C2880 C2874 1.368 . S
C2880 C2879 1.523 . S
C2881 C2865 1.429 . S
C2881 C2877 1.429 . S
C2881 C2882 1.523 . S
C2882 C2866 1.368 . S
C2882 C2878 1.368 . S
C2882 C2881 1.523 . S
H2883 C2858 0.950 . S
H2884 C2860 0.950 . S
H2885 C2861 0.949 . S
H2886 C2863 0.950 . S
H2887 C2865 0.950 . S
C2888 C2889 1.349 . S
C2888 C2890 1.327 . S
C2888 H2913 0.950 . S
C2889 C2888 1.349 . S
C2889 C2905 1.349 . S
C2890 C2888 1.327 . S
C2890 C2909 1.429 . S
C2890 H2914 0.950 . S
C2891 C2908 1.574 . S
C2891 C2910 1.368 . S
C2891 H2915 0.949 . S
H2892 C2896 0.949 . S
C2893 C2894 1.349 . S
C2893 C2895 1.327 . S
C2893 H2916 0.950 . S
C2894 C2893 1.349 . S
C2894 C2906 1.349 . S
C2895 C2893 1.327 . S
C2895 C2911 1.429 . S
C2895 H2917 0.950 . S
C2896 H2892 0.949 . S
C2896 C2904 1.574 . S
C2896 C2912 1.368 . S
H2897 C2905 0.950 . S
H2898 C2903 0.950 . S
H2899 C2904 0.949 . S
H2900 C2906 0.950 . S
H2901 C2907 0.950 . S
H2902 C2908 0.949 . S
C2903 H2898 0.950 . S
C2903 C2905 1.327 . S
C2903 C2909 1.429 . S
C2904 C2896 1.574 . S
C2904 H2899 0.949 . S
C2904 C2910 1.368 . S
C2905 C2889 1.349 . S
C2905 H2897 0.950 . S
C2905 C2903 1.327 . S
C2906 C2894 1.349 . S
C2906 H2900 0.950 . S
C2906 C2907 1.327 . S
C2907 H2901 0.950 . S
C2907 C2906 1.327 . S
C2907 C2911 1.429 . S
C2908 C2891 1.574 . S
C2908 H2902 0.949 . S
C2908 C2912 1.368 . S
C2909 C2890 1.429 . S
C2909 C2903 1.429 . S
C2909 C2910 1.523 . S
C2910 C2891 1.368 . S
C2910 C2904 1.368 . S
C2910 C2909 1.523 . S
C2911 C2895 1.429 . S
C2911 C2907 1.429 . S
C2911 C2912 1.523 . S
C2912 C2896 1.368 . S
C2912 C2908 1.368 . S
C2912 C2911 1.523 . S
H2913 C2888 0.950 . S
H2914 C2890 0.950 . S
H2915 C2891 0.949 . S
H2916 C2893 0.950 . S
H2917 C2895 0.950 . S
C2918 C2919 1.349 . S
C2918 C2920 1.327 . S
C2918 H2943 0.950 . S
C2919 C2918 1.349 . S
C2919 C2935 1.349 . S
C2920 C2918 1.327 . S
C2920 C2939 1.429 . S
C2920 H2944 0.950 . S
C2921 C2938 1.574 1_554 S
C2921 C2940 1.368 . S
C2921 H2945 0.949 . S
H2922 C2926 0.949 . S
C2923 C2924 1.349 . S
C2923 C2925 1.327 . S
C2923 H2946 0.950 . S
C2924 C2923 1.349 . S
C2924 C2936 1.349 . S
C2925 C2923 1.327 . S
C2925 C2941 1.429 . S
C2925 H2947 0.950 . S
C2926 H2922 0.949 . S
C2926 C2934 1.574 . S
C2926 C2942 1.385 . S
H2927 C2935 0.950 . S
H2928 C2933 0.950 . S
H2929 C2934 0.949 . S
H2930 C2936 0.950 . S
H2931 C2937 0.950 . S
H2932 C2938 0.949 . S
C2933 H2928 0.950 . S
C2933 C2935 1.327 . S
C2933 C2939 1.429 . S
C2934 C2926 1.574 . S
C2934 H2929 0.949 . S
C2934 C2940 1.368 . S
C2935 C2919 1.349 . S
C2935 H2927 0.950 . S
C2935 C2933 1.327 . S
C2936 C2924 1.349 . S
C2936 H2930 0.950 . S
C2936 C2937 1.327 . S
C2937 H2931 0.950 . S
C2937 C2936 1.327 . S
C2937 C2941 1.429 . S
C2938 C2921 1.574 1_556 S
C2938 H2932 0.949 . S
C2938 C2942 1.366 1_556 S
C2939 C2920 1.429 . S
C2939 C2933 1.429 . S
C2939 C2940 1.523 . S
C2940 C2921 1.368 . S
C2940 C2934 1.368 . S
C2940 C2939 1.523 . S
C2941 C2925 1.429 . S
C2941 C2937 1.429 . S
C2941 C2942 1.505 1_556 S
C2942 C2926 1.385 . S
C2942 C2938 1.366 1_554 S
C2942 C2941 1.505 1_554 S
H2943 C2918 0.950 . S
H2944 C2920 0.950 . S
H2945 C2921 0.949 . S
H2946 C2923 0.950 . S
H2947 C2925 0.950 . S
C2948 C2949 1.349 . S
C2948 C2950 1.327 . S
C2948 H2973 0.950 . S
C2949 C2948 1.349 . S
C2949 C2965 1.349 . S
C2950 C2948 1.327 . S
C2950 C2969 1.429 . S
C2950 H2974 0.950 . S
C2951 C2968 1.574 . S
C2951 C2970 1.368 . S
C2951 H2975 0.949 . S
H2952 C2956 0.949 . S
C2953 C2954 1.349 . S
C2953 C2955 1.327 . S
C2953 H2976 0.950 . S
C2954 C2953 1.349 . S
C2954 C2966 1.349 . S
C2955 C2953 1.327 . S
C2955 C2971 1.429 . S
C2955 H2977 0.950 . S
C2956 H2952 0.949 . S
C2956 C2964 1.574 . S
C2956 C2972 1.368 . S
H2957 C2965 0.950 . S
H2958 C2963 0.950 . S
H2959 C2964 0.949 . S
H2960 C2966 0.950 . S
H2961 C2967 0.950 . S
H2962 C2968 0.949 . S
C2963 H2958 0.950 . S
C2963 C2965 1.327 . S
C2963 C2969 1.429 . S
C2964 C2956 1.574 . S
C2964 H2959 0.949 . S
C2964 C2970 1.368 . S
C2965 C2949 1.349 . S
C2965 H2957 0.950 . S
C2965 C2963 1.327 . S
C2966 C2954 1.349 . S
C2966 H2960 0.950 . S
C2966 C2967 1.327 . S
C2967 H2961 0.950 . S
C2967 C2966 1.327 . S
C2967 C2971 1.429 . S
C2968 C2951 1.574 . S
C2968 H2962 0.949 . S
C2968 C2972 1.368 . S
C2969 C2950 1.429 . S
C2969 C2963 1.429 . S
C2969 C2970 1.523 . S
C2970 C2951 1.368 . S
C2970 C2964 1.368 . S
C2970 C2969 1.523 . S
C2971 C2955 1.429 . S
C2971 C2967 1.429 . S
C2971 C2972 1.523 . S
C2972 C2956 1.368 . S
C2972 C2968 1.368 . S
C2972 C2971 1.523 . S
H2973 C2948 0.950 . S
H2974 C2950 0.950 . S
H2975 C2951 0.949 . S
H2976 C2953 0.950 . S
H2977 C2955 0.950 . S
C2978 C2979 1.349 . S
C2978 C2980 1.327 . S
C2978 H3003 0.950 . S
C2979 C2978 1.349 . S
C2979 C2995 1.349 . S
C2980 C2978 1.327 . S
C2980 C2999 1.429 . S
C2980 H3004 0.950 . S
C2981 C2998 1.574 . S
C2981 C3000 1.368 . S
C2981 H3005 0.949 . S
H2982 C2986 0.949 . S
C2983 C2984 1.349 . S
C2983 C2985 1.327 . S
C2983 H3006 0.950 . S
C2984 C2983 1.349 . S
C2984 C2996 1.349 . S
C2985 C2983 1.327 . S
C2985 C3001 1.429 . S
C2985 H3007 0.950 . S
C2986 H2982 0.949 . S
C2986 C2994 1.574 . S
C2986 C3002 1.368 . S
H2987 C2995 0.950 . S
H2988 C2993 0.950 . S
H2989 C2994 0.949 . S
H2990 C2996 0.950 . S
H2991 C2997 0.950 . S
H2992 C2998 0.949 . S
C2993 H2988 0.950 . S
C2993 C2995 1.327 . S
C2993 C2999 1.429 . S
C2994 C2986 1.574 . S
C2994 H2989 0.949 . S
C2994 C3000 1.368 . S
C2995 C2979 1.349 . S
C2995 H2987 0.950 . S
C2995 C2993 1.327 . S
C2996 C2984 1.349 . S
C2996 H2990 0.950 . S
C2996 C2997 1.327 . S
C2997 H2991 0.950 . S
C2997 C2996 1.327 . S
C2997 C3001 1.429 . S
C2998 C2981 1.574 . S
C2998 H2992 0.949 . S
C2998 C3002 1.368 . S
C2999 C2980 1.429 . S
C2999 C2993 1.429 . S
C2999 C3000 1.523 . S
C3000 C2981 1.368 . S
C3000 C2994 1.368 . S
C3000 C2999 1.523 . S
C3001 C2985 1.429 . S
C3001 C2997 1.429 . S
C3001 C3002 1.523 . S
C3002 C2986 1.368 . S
C3002 C2998 1.368 . S
C3002 C3001 1.523 . S
H3003 C2978 0.950 . S
H3004 C2980 0.950 . S
H3005 C2981 0.949 . S
H3006 C2983 0.950 . S
H3007 C2985 0.950 . S
C3008 C3009 1.349 . S
C3008 C3010 1.327 . S
C3008 H3033 0.950 . S
C3009 C3008 1.349 . S
C3009 C3025 1.349 . S
C3010 C3008 1.327 . S
C3010 C3029 1.429 . S
C3010 H3034 0.950 . S
C3011 C3028 1.574 . S
C3011 C3030 1.368 . S
C3011 H3035 0.949 . S
H3012 C3016 0.949 . S
C3013 C3014 1.349 . S
C3013 C3015 1.327 . S
C3013 H3036 0.950 . S
C3014 C3013 1.349 . S
C3014 C3026 1.349 . S
C3015 C3013 1.327 . S
C3015 C3031 1.429 . S
C3015 H3037 0.950 . S
C3016 H3012 0.949 . S
C3016 C3024 1.574 . S
C3016 C3032 1.368 . S
H3017 C3025 0.950 . S
H3018 C3023 0.950 . S
H3019 C3024 0.949 . S
H3020 C3026 0.950 . S
H3021 C3027 0.950 . S
H3022 C3028 0.949 . S
C3023 H3018 0.950 . S
C3023 C3025 1.327 . S
C3023 C3029 1.429 . S
C3024 C3016 1.574 . S
C3024 H3019 0.949 . S
C3024 C3030 1.368 . S
C3025 C3009 1.349 . S
C3025 H3017 0.950 . S
C3025 C3023 1.327 . S
C3026 C3014 1.349 . S
C3026 H3020 0.950 . S
C3026 C3027 1.327 . S
C3027 H3021 0.950 . S
C3027 C3026 1.327 . S
C3027 C3031 1.429 . S
C3028 C3011 1.574 . S
C3028 H3022 0.949 . S
C3028 C3032 1.368 . S
C3029 C3010 1.429 . S
C3029 C3023 1.429 . S
C3029 C3030 1.523 . S
C3030 C3011 1.368 . S
C3030 C3024 1.368 . S
C3030 C3029 1.523 . S
C3031 C3015 1.429 . S
C3031 C3027 1.429 . S
C3031 C3032 1.523 . S
C3032 C3016 1.368 . S
C3032 C3028 1.368 . S
C3032 C3031 1.523 . S
H3033 C3008 0.950 . S
H3034 C3010 0.950 . S
H3035 C3011 0.949 . S
H3036 C3013 0.950 . S
H3037 C3015 0.950 . S
C3038 C3039 1.349 . S
C3038 C3040 1.327 . S
C3038 H3063 0.950 . S
C3039 C3038 1.349 . S
C3039 C3055 1.349 . S
C3040 C3038 1.327 . S
C3040 C3059 1.429 . S
C3040 H3064 0.950 . S
C3041 C3058 1.574 . S
C3041 C3060 1.368 . S
C3041 H3065 0.949 . S
H3042 C3046 0.949 . S
C3043 C3044 1.349 . S
C3043 C3045 1.327 . S
C3043 H3066 0.950 . S
C3044 C3043 1.349 . S
C3044 C3056 1.349 . S
C3045 C3043 1.327 . S
C3045 C3061 1.429 . S
C3045 H3067 0.950 . S
C3046 H3042 0.949 . S
C3046 C3054 1.574 . S
C3046 C3062 1.368 . S
H3047 C3055 0.950 . S
H3048 C3053 0.950 . S
H3049 C3054 0.949 . S
H3050 C3056 0.950 . S
H3051 C3057 0.950 . S
H3052 C3058 0.949 . S
C3053 H3048 0.950 . S
C3053 C3055 1.327 . S
C3053 C3059 1.429 . S
C3054 C3046 1.574 . S
C3054 H3049 0.949 . S
C3054 C3060 1.368 . S
C3055 C3039 1.349 . S
C3055 H3047 0.950 . S
C3055 C3053 1.327 . S
C3056 C3044 1.349 . S
C3056 H3050 0.950 . S
C3056 C3057 1.327 . S
C3057 H3051 0.950 . S
C3057 C3056 1.327 . S
C3057 C3061 1.429 . S
C3058 C3041 1.574 . S
C3058 H3052 0.949 . S
C3058 C3062 1.368 . S
C3059 C3040 1.429 . S
C3059 C3053 1.429 . S
C3059 C3060 1.523 . S
C3060 C3041 1.368 . S
C3060 C3054 1.368 . S
C3060 C3059 1.523 . S
C3061 C3045 1.429 . S
C3061 C3057 1.429 . S
C3061 C3062 1.523 . S
C3062 C3046 1.368 . S
C3062 C3058 1.368 . S
C3062 C3061 1.523 . S
H3063 C3038 0.950 . S
H3064 C3040 0.950 . S
H3065 C3041 0.949 . S
H3066 C3043 0.950 . S
H3067 C3045 0.950 . S
C3068 C3069 1.349 . S
C3068 C3070 1.327 . S
C3068 H3093 0.950 . S
C3069 C3068 1.349 . S
C3069 C3085 1.349 . S
C3070 C3068 1.327 . S
C3070 C3089 1.429 . S
C3070 H3094 0.950 . S
C3071 C3088 1.574 . S
C3071 C3090 1.368 . S
C3071 H3095 0.949 . S
H3072 C3076 0.949 . S
C3073 C3074 1.349 . S
C3073 C3075 1.327 . S
C3073 H3096 0.950 . S
C3074 C3073 1.349 . S
C3074 C3086 1.349 . S
C3075 C3073 1.327 . S
C3075 C3091 1.429 . S
C3075 H3097 0.950 . S
C3076 H3072 0.949 . S
C3076 C3084 1.574 . S
C3076 C3092 1.368 . S
H3077 C3085 0.950 . S
H3078 C3083 0.950 . S
H3079 C3084 0.949 . S
H3080 C3086 0.950 . S
H3081 C3087 0.950 . S
H3082 C3088 0.949 . S
C3083 H3078 0.950 . S
C3083 C3085 1.327 . S
C3083 C3089 1.429 . S
C3084 C3076 1.574 . S
C3084 H3079 0.949 . S
C3084 C3090 1.368 . S
C3085 C3069 1.349 . S
C3085 H3077 0.950 . S
C3085 C3083 1.327 . S
C3086 C3074 1.349 . S
C3086 H3080 0.950 . S
C3086 C3087 1.327 . S
C3087 H3081 0.950 . S
C3087 C3086 1.327 . S
C3087 C3091 1.429 . S
C3088 C3071 1.574 . S
C3088 H3082 0.949 . S
C3088 C3092 1.368 . S
C3089 C3070 1.429 . S
C3089 C3083 1.429 . S
C3089 C3090 1.523 . S
C3090 C3071 1.368 . S
C3090 C3084 1.368 . S
C3090 C3089 1.523 . S
C3091 C3075 1.429 . S
C3091 C3087 1.429 . S
C3091 C3092 1.523 . S
C3092 C3076 1.368 . S
C3092 C3088 1.368 . S
C3092 C3091 1.523 . S
H3093 C3068 0.950 . S
H3094 C3070 0.950 . S
H3095 C3071 0.949 . S
H3096 C3073 0.950 . S
H3097 C3075 0.950 . S
C3098 C3099 1.348 . S
C3098 C3100 1.327 1_554 S
C3098 H3123 0.950 . S
C3099 C3098 1.348 . S
C3099 C3115 1.350 1_554 S
C3100 C3098 1.327 1_556 S
C3100 C3119 1.429 . S
C3100 H3124 0.950 1_556 S
C3101 C3118 1.574 . S
C3101 C3120 1.368 . S
C3101 H3125 0.949 . S
H3102 C3106 0.949 . S
C3103 C3104 1.349 . S
C3103 C3105 1.327 . S
C3103 H3126 0.950 . S
C3104 C3103 1.349 . S
C3104 C3116 1.349 . S
C3105 C3103 1.327 . S
C3105 C3121 1.429 . S
C3105 H3127 0.950 . S
C3106 H3102 0.949 . S
C3106 C3114 1.574 . S
C3106 C3122 1.368 . S
H3107 C3115 0.950 . S
H3108 C3113 0.950 . S
H3109 C3114 0.949 . S
H3110 C3116 0.950 . S
H3111 C3117 0.950 . S
H3112 C3118 0.949 . S
C3113 H3108 0.950 . S
C3113 C3115 1.327 . S
C3113 C3119 1.429 . S
C3114 C3106 1.574 . S
C3114 H3109 0.949 . S
C3114 C3120 1.368 . S
C3115 C3099 1.350 1_556 S
C3115 H3107 0.950 . S
C3115 C3113 1.327 . S
C3116 C3104 1.349 . S
C3116 H3110 0.950 . S
C3116 C3117 1.327 . S
C3117 H3111 0.950 . S
C3117 C3116 1.327 . S
C3117 C3121 1.429 . S
C3118 C3101 1.574 . S
C3118 H3112 0.949 . S
C3118 C3122 1.368 . S
C3119 C3100 1.429 . S
C3119 C3113 1.429 . S
C3119 C3120 1.523 . S
C3120 C3101 1.368 . S
C3120 C3114 1.368 . S
C3120 C3119 1.523 . S
C3121 C3105 1.429 . S
C3121 C3117 1.429 . S
C3121 C3122 1.523 . S
C3122 C3106 1.368 . S
C3122 C3118 1.368 . S
C3122 C3121 1.523 . S
H3123 C3098 0.950 . S
H3124 C3100 0.950 1_554 S
H3125 C3101 0.949 . S
H3126 C3103 0.950 . S
H3127 C3105 0.950 . S
C3128 C3129 1.349 . S
C3128 C3130 1.330 . S
C3128 H3153 0.946 1_556 S
C3129 C3128 1.349 . S
C3129 C3145 1.355 . S
C3130 C3128 1.330 . S
C3130 C3149 1.429 . S
C3130 H3154 0.950 . S
C3131 C3148 1.574 . S
C3131 C3150 1.368 . S
C3131 H3155 0.949 . S
H3132 C3136 0.949 . S
C3133 C3134 1.349 . S
C3133 C3135 1.327 . S
C3133 H3156 0.950 . S
C3134 C3133 1.349 . S
C3134 C3146 1.349 . S
C3135 C3133 1.327 . S
C3135 C3151 1.429 . S
C3135 H3157 0.950 . S
C3136 H3132 0.949 . S
C3136 C3144 1.574 . S
C3136 C3152 1.368 . S
H3137 C3145 0.950 . S
H3138 C3143 0.950 . S
H3139 C3144 0.949 . S
H3140 C3146 0.950 . S
H3141 C3147 0.950 . S
H3142 C3148 0.949 . S
C3143 H3138 0.950 . S
C3143 C3145 1.327 . S
C3143 C3149 1.429 . S
C3144 C3136 1.574 . S
C3144 H3139 0.949 . S
C3144 C3150 1.368 . S
C3145 C3129 1.355 . S
C3145 H3137 0.950 . S
C3145 C3143 1.327 . S
C3146 C3134 1.349 . S
C3146 H3140 0.950 . S
C3146 C3147 1.327 . S
C3147 H3141 0.950 . S
C3147 C3146 1.327 . S
C3147 C3151 1.429 . S
C3148 C3131 1.574 . S
C3148 H3142 0.949 . S
C3148 C3152 1.368 . S
C3149 C3130 1.429 . S
C3149 C3143 1.429 . S
C3149 C3150 1.523 . S
C3150 C3131 1.368 . S
C3150 C3144 1.368 . S
C3150 C3149 1.523 . S
C3151 C3135 1.429 . S
C3151 C3147 1.429 . S
C3151 C3152 1.523 . S
C3152 C3136 1.368 . S
C3152 C3148 1.368 . S
C3152 C3151 1.523 . S
H3153 C3128 0.946 1_554 S
H3154 C3130 0.950 . S
H3155 C3131 0.949 . S
H3156 C3133 0.950 . S
H3157 C3135 0.950 . S
C3158 C3159 1.349 . S
C3158 C3160 1.327 . S
C3158 H3183 0.950 . S
C3159 C3158 1.349 . S
C3159 C3175 1.349 . S
C3160 C3158 1.327 . S
C3160 C3179 1.429 . S
C3160 H3184 0.950 . S
C3161 C3178 1.574 . S
C3161 C3180 1.368 . S
C3161 H3185 0.949 . S
H3162 C3166 0.949 . S
C3163 C3164 1.349 . S
C3163 C3165 1.327 . S
C3163 H3186 0.950 . S
C3164 C3163 1.349 . S
C3164 C3176 1.349 . S
C3165 C3163 1.327 . S
C3165 C3181 1.429 . S
C3165 H3187 0.950 . S
C3166 H3162 0.949 . S
C3166 C3174 1.574 . S
C3166 C3182 1.368 . S
H3167 C3175 0.950 . S
H3168 C3173 0.950 . S
H3169 C3174 0.949 . S
H3170 C3176 0.950 . S
H3171 C3177 0.950 . S
H3172 C3178 0.949 . S
C3173 H3168 0.950 . S
C3173 C3175 1.327 . S
C3173 C3179 1.429 . S
C3174 C3166 1.574 . S
C3174 H3169 0.949 . S
C3174 C3180 1.368 . S
C3175 C3159 1.349 . S
C3175 H3167 0.950 . S
C3175 C3173 1.327 . S
C3176 C3164 1.349 . S
C3176 H3170 0.950 . S
C3176 C3177 1.327 . S
C3177 H3171 0.950 . S
C3177 C3176 1.327 . S
C3177 C3181 1.429 . S
C3178 C3161 1.574 . S
C3178 H3172 0.949 . S
C3178 C3182 1.368 . S
C3179 C3160 1.429 . S
C3179 C3173 1.429 . S
C3179 C3180 1.523 . S
C3180 C3161 1.368 . S
C3180 C3174 1.368 . S
C3180 C3179 1.523 . S
C3181 C3165 1.429 . S
C3181 C3177 1.429 . S
C3181 C3182 1.523 . S
C3182 C3166 1.368 . S
C3182 C3178 1.368 . S
C3182 C3181 1.523 . S
H3183 C3158 0.950 . S
H3184 C3160 0.950 . S
H3185 C3161 0.949 . S
H3186 C3163 0.950 . S
H3187 C3165 0.950 . S
C3188 C3189 1.349 . S
C3188 C3190 1.327 . S
C3188 H3213 0.950 . S
C3189 C3188 1.349 . S
C3189 C3205 1.349 . S
C3190 C3188 1.327 . S
C3190 C3209 1.429 . S
C3190 H3214 0.950 . S
C3191 C3208 1.574 . S
C3191 C3210 1.368 . S
C3191 H3215 0.949 . S
H3192 C3196 0.949 . S
C3193 C3194 1.349 . S
C3193 C3195 1.327 . S
C3193 H3216 0.950 . S
C3194 C3193 1.349 . S
C3194 C3206 1.349 . S
C3195 C3193 1.327 . S
C3195 C3211 1.429 . S
C3195 H3217 0.950 . S
C3196 H3192 0.949 . S
C3196 C3204 1.574 . S
C3196 C3212 1.368 . S
H3197 C3205 0.950 . S
H3198 C3203 0.950 . S
H3199 C3204 0.949 . S
H3200 C3206 0.950 . S
H3201 C3207 0.950 . S
H3202 C3208 0.949 . S
C3203 H3198 0.950 . S
C3203 C3205 1.327 . S
C3203 C3209 1.429 . S
C3204 C3196 1.574 . S
C3204 H3199 0.949 . S
C3204 C3210 1.368 . S
C3205 C3189 1.349 . S
C3205 H3197 0.950 . S
C3205 C3203 1.327 . S
C3206 C3194 1.349 . S
C3206 H3200 0.950 . S
C3206 C3207 1.327 . S
C3207 H3201 0.950 . S
C3207 C3206 1.327 . S
C3207 C3211 1.429 . S
C3208 C3191 1.574 . S
C3208 H3202 0.949 . S
C3208 C3212 1.368 . S
C3209 C3190 1.429 . S
C3209 C3203 1.429 . S
C3209 C3210 1.523 . S
C3210 C3191 1.368 . S
C3210 C3204 1.368 . S
C3210 C3209 1.523 . S
C3211 C3195 1.429 . S
C3211 C3207 1.429 . S
C3211 C3212 1.523 . S
C3212 C3196 1.368 . S
C3212 C3208 1.368 . S
C3212 C3211 1.523 . S
H3213 C3188 0.950 . S
H3214 C3190 0.950 . S
H3215 C3191 0.949 . S
H3216 C3193 0.950 . S
H3217 C3195 0.950 . S
C3218 C3219 1.349 . S
C3218 C3220 1.327 . S
C3218 H3243 0.950 . S
C3219 C3218 1.349 . S
C3219 C3235 1.349 . S
C3220 C3218 1.327 . S
C3220 C3239 1.429 . S
C3220 H3244 0.950 . S
C3221 C3238 1.574 . S
C3221 C3240 1.368 . S
C3221 H3245 0.949 . S
H3222 C3226 0.949 . S
C3223 C3224 1.349 . S
C3223 C3225 1.327 . S
C3223 H3246 0.950 . S
C3224 C3223 1.349 . S
C3224 C3236 1.349 . S
C3225 C3223 1.327 . S
C3225 C3241 1.429 . S
C3225 H3247 0.950 . S
C3226 H3222 0.949 . S
C3226 C3234 1.574 . S
C3226 C3242 1.368 . S
H3227 C3235 0.950 . S
H3228 C3233 0.950 . S
H3229 C3234 0.949 . S
H3230 C3236 0.950 . S
H3231 C3237 0.950 . S
H3232 C3238 0.949 . S
C3233 H3228 0.950 . S
C3233 C3235 1.327 . S
C3233 C3239 1.429 . S
C3234 C3226 1.574 . S
C3234 H3229 0.949 . S
C3234 C3240 1.368 . S
C3235 C3219 1.349 . S
C3235 H3227 0.950 . S
C3235 C3233 1.327 . S
C3236 C3224 1.349 . S
C3236 H3230 0.950 . S
C3236 C3237 1.327 . S
C3237 H3231 0.950 . S
C3237 C3236 1.327 . S
C3237 C3241 1.429 . S
C3238 C3221 1.574 . S
C3238 H3232 0.949 . S
C3238 C3242 1.368 . S
C3239 C3220 1.429 . S
C3239 C3233 1.429 . S
C3239 C3240 1.523 . S
C3240 C3221 1.368 . S
C3240 C3234 1.368 . S
C3240 C3239 1.523 . S
C3241 C3225 1.429 . S
C3241 C3237 1.429 . S
C3241 C3242 1.523 . S
C3242 C3226 1.368 . S
C3242 C3238 1.368 . S
C3242 C3241 1.523 . S
H3243 C3218 0.950 . S
H3244 C3220 0.950 . S
H3245 C3221 0.949 . S
H3246 C3223 0.950 . S
H3247 C3225 0.950 . S
C3248 C3249 1.349 . S
C3248 C3250 1.327 . S
C3248 H3273 0.950 . S
C3249 C3248 1.349 . S
C3249 C3265 1.349 . S
C3250 C3248 1.327 . S
C3250 C3269 1.429 . S
C3250 H3274 0.950 . S
C3251 C3268 1.574 . S
C3251 C3270 1.368 . S
C3251 H3275 0.949 . S
H3252 C3256 0.949 . S
C3253 C3254 1.349 . S
C3253 C3255 1.327 . S
C3253 H3276 0.950 . S
C3254 C3253 1.349 . S
C3254 C3266 1.349 . S
C3255 C3253 1.327 . S
C3255 C3271 1.429 . S
C3255 H3277 0.950 . S
C3256 H3252 0.949 . S
C3256 C3264 1.574 . S
C3256 C3272 1.368 . S
H3257 C3265 0.950 . S
H3258 C3263 0.950 . S
H3259 C3264 0.949 . S
H3260 C3266 0.950 . S
H3261 C3267 0.950 . S
H3262 C3268 0.949 . S
C3263 H3258 0.950 . S
C3263 C3265 1.327 . S
C3263 C3269 1.429 . S
C3264 C3256 1.574 . S
C3264 H3259 0.949 . S
C3264 C3270 1.368 . S
C3265 C3249 1.349 . S
C3265 H3257 0.950 . S
C3265 C3263 1.327 . S
C3266 C3254 1.349 . S
C3266 H3260 0.950 . S
C3266 C3267 1.327 . S
C3267 H3261 0.950 . S
C3267 C3266 1.327 . S
C3267 C3271 1.429 . S
C3268 C3251 1.574 . S
C3268 H3262 0.949 . S
C3268 C3272 1.368 . S
C3269 C3250 1.429 . S
C3269 C3263 1.429 . S
C3269 C3270 1.523 . S
C3270 C3251 1.368 . S
C3270 C3264 1.368 . S
C3270 C3269 1.523 . S
C3271 C3255 1.429 . S
C3271 C3267 1.429 . S
C3271 C3272 1.523 . S
C3272 C3256 1.368 . S
C3272 C3268 1.368 . S
C3272 C3271 1.523 . S
H3273 C3248 0.950 . S
H3274 C3250 0.950 . S
H3275 C3251 0.949 . S
H3276 C3253 0.950 . S
H3277 C3255 0.950 . S
C3278 C3279 1.349 . S
C3278 C3280 1.327 . S
C3278 H3303 0.950 . S
C3279 C3278 1.349 . S
C3279 C3295 1.349 . S
C3280 C3278 1.327 . S
C3280 C3299 1.429 . S
C3280 H3304 0.950 . S
C3281 C3298 1.574 . S
C3281 C3300 1.368 . S
C3281 H3305 0.949 . S
H3282 C3286 0.949 . S
C3283 C3284 1.349 1_556 S
C3283 C3285 1.327 . S
C3283 H3306 0.950 . S
C3284 C3283 1.349 1_554 S
C3284 C3296 1.349 1_554 S
C3285 C3283 1.327 . S
C3285 C3301 1.429 . S
C3285 H3307 0.950 . S
C3286 H3282 0.949 . S
C3286 C3294 1.574 . S
C3286 C3302 1.368 . S
H3287 C3295 0.950 . S
H3288 C3293 0.950 . S
H3289 C3294 0.949 . S
H3290 C3296 0.950 1_554 S
H3291 C3297 0.950 . S
H3292 C3298 0.949 . S
C3293 H3288 0.950 . S
C3293 C3295 1.327 . S
C3293 C3299 1.429 . S
C3294 C3286 1.574 . S
C3294 H3289 0.949 . S
C3294 C3300 1.368 . S
C3295 C3279 1.349 . S
C3295 H3287 0.950 . S
C3295 C3293 1.327 . S
C3296 C3284 1.349 1_556 S
C3296 H3290 0.950 1_556 S
C3296 C3297 1.327 . S
C3297 H3291 0.950 . S
C3297 C3296 1.327 . S
C3297 C3301 1.429 . S
C3298 C3281 1.574 . S
C3298 H3292 0.949 . S
C3298 C3302 1.368 . S
C3299 C3280 1.429 . S
C3299 C3293 1.429 . S
C3299 C3300 1.523 . S
C3300 C3281 1.368 . S
C3300 C3294 1.368 . S
C3300 C3299 1.523 . S
C3301 C3285 1.429 . S
C3301 C3297 1.429 . S
C3301 C3302 1.523 . S
C3302 C3286 1.368 . S
C3302 C3298 1.368 . S
C3302 C3301 1.523 . S
H3303 C3278 0.950 . S
H3304 C3280 0.950 . S
H3305 C3281 0.949 . S
H3306 C3283 0.950 . S
H3307 C3285 0.950 . S
C3308 C3309 1.349 . S
C3308 C3310 1.327 . S
C3308 H3333 0.950 . S
C3309 C3308 1.349 . S
C3309 C3325 1.349 . S
C3310 C3308 1.327 . S
C3310 C3329 1.429 . S
C3310 H3334 0.950 . S
C3311 C3328 1.574 . S
C3311 C3330 1.368 . S
C3311 H3335 0.949 . S
H3312 C3316 0.949 . S
C3313 C3314 1.349 . S
C3313 C3315 1.327 . S
C3313 H3336 0.950 . S
C3314 C3313 1.349 . S
C3314 C3326 1.349 . S
C3315 C3313 1.327 . S
C3315 C3331 1.429 . S
C3315 H3337 0.950 . S
C3316 H3312 0.949 . S
C3316 C3324 1.574 . S
C3316 C3332 1.368 . S
H3317 C3325 0.950 . S
H3318 C3323 0.950 . S
H3319 C3324 0.949 . S
H3320 C3326 0.950 . S
H3321 C3327 0.950 . S
H3322 C3328 0.949 . S
C3323 H3318 0.950 . S
C3323 C3325 1.327 . S
C3323 C3329 1.429 . S
C3324 C3316 1.574 . S
C3324 H3319 0.949 . S
C3324 C3330 1.368 . S
C3325 C3309 1.349 . S
C3325 H3317 0.950 . S
C3325 C3323 1.327 . S
C3326 C3314 1.349 . S
C3326 H3320 0.950 . S
C3326 C3327 1.327 . S
C3327 H3321 0.950 . S
C3327 C3326 1.327 . S
C3327 C3331 1.429 . S
C3328 C3311 1.574 . S
C3328 H3322 0.949 . S
C3328 C3332 1.368 . S
C3329 C3310 1.429 . S
C3329 C3323 1.429 . S
C3329 C3330 1.523 . S
C3330 C3311 1.368 . S
C3330 C3324 1.368 . S
C3330 C3329 1.523 . S
C3331 C3315 1.429 . S
C3331 C3327 1.429 . S
C3331 C3332 1.523 . S
C3332 C3316 1.368 . S
C3332 C3328 1.368 . S
C3332 C3331 1.523 . S
H3333 C3308 0.950 . S
H3334 C3310 0.950 . S
H3335 C3311 0.949 . S
H3336 C3313 0.950 . S
H3337 C3315 0.950 . S
C3338 C3339 1.349 . S
C3338 C3340 1.327 . S
C3338 H3363 0.950 . S
C3339 C3338 1.349 . S
C3339 C3355 1.349 . S
C3340 C3338 1.327 . S
C3340 C3359 1.429 . S
C3340 H3364 0.950 . S
C3341 C3358 1.574 . S
C3341 C3360 1.368 . S
C3341 H3365 0.949 . S
H3342 C3346 0.949 . S
C3343 C3344 1.349 . S
C3343 C3345 1.327 . S
C3343 H3366 0.950 . S
C3344 C3343 1.349 . S
C3344 C3356 1.349 . S
C3345 C3343 1.327 . S
C3345 C3361 1.429 . S
C3345 H3367 0.950 . S
C3346 H3342 0.949 . S
C3346 C3354 1.574 . S
C3346 C3362 1.368 . S
H3347 C3355 0.950 . S
H3348 C3353 0.950 . S
H3349 C3354 0.949 . S
H3350 C3356 0.950 . S
H3351 C3357 0.950 . S
H3352 C3358 0.949 . S
C3353 H3348 0.950 . S
C3353 C3355 1.327 . S
C3353 C3359 1.429 . S
C3354 C3346 1.574 . S
C3354 H3349 0.949 . S
C3354 C3360 1.368 . S
C3355 C3339 1.349 . S
C3355 H3347 0.950 . S
C3355 C3353 1.327 . S
C3356 C3344 1.349 . S
C3356 H3350 0.950 . S
C3356 C3357 1.327 . S
C3357 H3351 0.950 . S
C3357 C3356 1.327 . S
C3357 C3361 1.429 . S
C3358 C3341 1.574 . S
C3358 H3352 0.949 . S
C3358 C3362 1.368 . S
C3359 C3340 1.429 . S
C3359 C3353 1.429 . S
C3359 C3360 1.523 . S
C3360 C3341 1.368 . S
C3360 C3354 1.368 . S
C3360 C3359 1.523 . S
C3361 C3345 1.429 . S
C3361 C3357 1.429 . S
C3361 C3362 1.523 . S
C3362 C3346 1.368 . S
C3362 C3358 1.368 . S
C3362 C3361 1.523 . S
H3363 C3338 0.950 . S
H3364 C3340 0.950 . S
H3365 C3341 0.949 . S
H3366 C3343 0.950 . S
H3367 C3345 0.950 . S
C3368 C3369 1.349 . S
C3368 C3370 1.327 . S
C3368 H3393 0.950 . S
C3369 C3368 1.349 . S
C3369 C3385 1.349 . S
C3370 C3368 1.327 . S
C3370 C3389 1.429 . S
C3370 H3394 0.950 . S
C3371 C3388 1.574 . S
C3371 C3390 1.368 . S
C3371 H3395 0.949 . S
H3372 C3376 0.949 . S
C3373 C3374 1.349 . S
C3373 C3375 1.327 . S
C3373 H3396 0.950 . S
C3374 C3373 1.349 . S
C3374 C3386 1.349 . S
C3375 C3373 1.327 . S
C3375 C3391 1.429 . S
C3375 H3397 0.950 . S
C3376 H3372 0.949 . S
C3376 C3384 1.574 . S
C3376 C3392 1.368 . S
H3377 C3385 0.950 . S
H3378 C3383 0.950 . S
H3379 C3384 0.949 . S
H3380 C3386 0.950 . S
H3381 C3387 0.950 . S
H3382 C3388 0.949 . S
C3383 H3378 0.950 . S
C3383 C3385 1.327 . S
C3383 C3389 1.429 . S
C3384 C3376 1.574 . S
C3384 H3379 0.949 . S
C3384 C3390 1.368 . S
C3385 C3369 1.349 . S
C3385 H3377 0.950 . S
C3385 C3383 1.327 . S
C3386 C3374 1.349 . S
C3386 H3380 0.950 . S
C3386 C3387 1.327 . S
C3387 H3381 0.950 . S
C3387 C3386 1.327 . S
C3387 C3391 1.429 . S
C3388 C3371 1.574 . S
C3388 H3382 0.949 . S
C3388 C3392 1.368 . S
C3389 C3370 1.429 . S
C3389 C3383 1.429 . S
C3389 C3390 1.523 . S
C3390 C3371 1.368 . S
C3390 C3384 1.368 . S
C3390 C3389 1.523 . S
C3391 C3375 1.429 . S
C3391 C3387 1.429 . S
C3391 C3392 1.523 . S
C3392 C3376 1.368 . S
C3392 C3388 1.368 . S
C3392 C3391 1.523 . S
H3393 C3368 0.950 . S
H3394 C3370 0.950 . S
H3395 C3371 0.949 . S
H3396 C3373 0.950 . S
H3397 C3375 0.950 . S
C3398 C3399 1.349 . S
C3398 C3400 1.327 . S
C3398 H3423 0.950 . S
C3399 C3398 1.349 . S
C3399 C3415 1.349 . S
C3400 C3398 1.327 . S
C3400 C3419 1.429 . S
C3400 H3424 0.950 . S
C3401 C3418 1.574 . S
C3401 C3420 1.368 . S
C3401 H3425 0.949 . S
H3402 C3406 0.949 . S
C3403 C3404 1.349 . S
C3403 C3405 1.327 . S
C3403 H3426 0.950 . S
C3404 C3403 1.349 . S
C3404 C3416 1.349 . S
C3405 C3403 1.327 . S
C3405 C3421 1.429 . S
C3405 H3427 0.950 . S
C3406 H3402 0.949 . S
C3406 C3414 1.574 . S
C3406 C3422 1.368 . S
H3407 C3415 0.950 . S
H3408 C3413 0.950 . S
H3409 C3414 0.949 . S
H3410 C3416 0.950 . S
H3411 C3417 0.950 . S
H3412 C3418 0.949 . S
C3413 H3408 0.950 . S
C3413 C3415 1.327 . S
C3413 C3419 1.429 . S
C3414 C3406 1.574 . S
C3414 H3409 0.949 . S
C3414 C3420 1.368 . S
C3415 C3399 1.349 . S
C3415 H3407 0.950 . S
C3415 C3413 1.327 . S
C3416 C3404 1.349 . S
C3416 H3410 0.950 . S
C3416 C3417 1.327 . S
C3417 H3411 0.950 . S
C3417 C3416 1.327 . S
C3417 C3421 1.429 . S
C3418 C3401 1.574 . S
C3418 H3412 0.949 . S
C3418 C3422 1.368 . S
C3419 C3400 1.429 . S
C3419 C3413 1.429 . S
C3419 C3420 1.523 . S
C3420 C3401 1.368 . S
C3420 C3414 1.368 . S
C3420 C3419 1.523 . S
C3421 C3405 1.429 . S
C3421 C3417 1.429 . S
C3421 C3422 1.523 . S
C3422 C3406 1.368 . S
C3422 C3418 1.368 . S
C3422 C3421 1.523 . S
H3423 C3398 0.950 . S
H3424 C3400 0.950 . S
H3425 C3401 0.949 . S
H3426 C3403 0.950 . S
H3427 C3405 0.950 . S
C3428 C3429 1.357 . S
C3428 C3430 1.327 . S
C3428 H3453 0.950 . S
C3429 C3428 1.357 . S
C3429 C3445 1.347 1_556 S
C3430 C3428 1.327 . S
C3430 C3449 1.429 . S
C3430 H3454 0.950 . S
C3431 C3448 1.574 . S
C3431 C3450 1.368 . S
C3431 H3455 0.949 . S
H3432 C3436 0.949 . S
C3433 C3434 1.349 . S
C3433 C3435 1.327 . S
C3433 H3456 0.950 . S
C3434 C3433 1.349 . S
C3434 C3446 1.349 . S
C3435 C3433 1.327 . S
C3435 C3451 1.429 . S
C3435 H3457 0.950 . S
C3436 H3432 0.949 . S
C3436 C3444 1.574 . S
C3436 C3452 1.368 . S
H3437 C3445 0.950 . S
H3438 C3443 0.950 . S
H3439 C3444 0.949 . S
H3440 C3446 0.950 . S
H3441 C3447 0.950 . S
H3442 C3448 0.949 . S
C3443 H3438 0.950 . S
C3443 C3445 1.327 1_556 S
C3443 C3449 1.429 . S
C3444 C3436 1.574 . S
C3444 H3439 0.949 . S
C3444 C3450 1.368 . S
C3445 C3429 1.347 1_554 S
C3445 H3437 0.950 . S
C3445 C3443 1.327 1_554 S
C3446 C3434 1.349 . S
C3446 H3440 0.950 . S
C3446 C3447 1.327 . S
C3447 H3441 0.950 . S
C3447 C3446 1.327 . S
C3447 C3451 1.429 . S
C3448 C3431 1.574 . S
C3448 H3442 0.949 . S
C3448 C3452 1.368 . S
C3449 C3430 1.429 . S
C3449 C3443 1.429 . S
C3449 C3450 1.523 . S
C3450 C3431 1.368 . S
C3450 C3444 1.368 . S
C3450 C3449 1.523 . S
C3451 C3435 1.429 . S
C3451 C3447 1.429 . S
C3451 C3452 1.523 . S
C3452 C3436 1.368 . S
C3452 C3448 1.368 . S
C3452 C3451 1.523 . S
H3453 C3428 0.950 . S
H3454 C3430 0.950 . S
H3455 C3431 0.949 . S
H3456 C3433 0.950 . S
H3457 C3435 0.950 . S
C3458 C3459 1.349 . S
C3458 C3460 1.327 . S
C3458 H3483 0.950 . S
C3459 C3458 1.349 . S
C3459 C3475 1.349 . S
C3460 C3458 1.327 . S
C3460 C3479 1.429 . S
C3460 H3484 0.950 . S
C3461 C3478 1.574 . S
C3461 C3480 1.368 . S
C3461 H3485 0.949 . S
H3462 C3466 0.949 . S
C3463 C3464 1.349 . S
C3463 C3465 1.327 . S
C3463 H3486 0.950 . S
C3464 C3463 1.349 . S
C3464 C3476 1.349 . S
C3465 C3463 1.327 . S
C3465 C3481 1.429 . S
C3465 H3487 0.950 . S
C3466 H3462 0.949 . S
C3466 C3474 1.574 . S
C3466 C3482 1.368 . S
H3467 C3475 0.950 . S
H3468 C3473 0.950 . S
H3469 C3474 0.949 . S
H3470 C3476 0.950 . S
H3471 C3477 0.950 . S
H3472 C3478 0.949 . S
C3473 H3468 0.950 . S
C3473 C3475 1.327 . S
C3473 C3479 1.429 . S
C3474 C3466 1.574 . S
C3474 H3469 0.949 . S
C3474 C3480 1.368 . S
C3475 C3459 1.349 . S
C3475 H3467 0.950 . S
C3475 C3473 1.327 . S
C3476 C3464 1.349 . S
C3476 H3470 0.950 . S
C3476 C3477 1.327 . S
C3477 H3471 0.950 . S
C3477 C3476 1.327 . S
C3477 C3481 1.429 . S
C3478 C3461 1.574 . S
C3478 H3472 0.949 . S
C3478 C3482 1.368 . S
C3479 C3460 1.429 . S
C3479 C3473 1.429 . S
C3479 C3480 1.523 . S
C3480 C3461 1.368 . S
C3480 C3474 1.368 . S
C3480 C3479 1.523 . S
C3481 C3465 1.429 . S
C3481 C3477 1.429 . S
C3481 C3482 1.523 . S
C3482 C3466 1.368 . S
C3482 C3478 1.368 . S
C3482 C3481 1.523 . S
H3483 C3458 0.950 . S
H3484 C3460 0.950 . S
H3485 C3461 0.949 . S
H3486 C3463 0.950 . S
H3487 C3465 0.950 . S
C1089 C156 2.168 . S
C1094 C20 2.168 . S
C1119 C54 2.168 . S
C1124 C190 2.168 . S
C1149 C88 2.168 . S
C1154 C224 2.168 . S
C1179 C122 2.168 . S
C1184 C258 2.168 . S
C1209 C417 0.786 . S
C1214 C281 0.786 . S
C1239 C315 0.785 . S
C1244 C451 0.785 . S
C1269 C349 0.786 . S
C1274 C485 0.786 . S
C1299 C519 0.786 . S
C1304 C383 0.786 . S
C1329 C564 2.168 . S
C1334 C700 2.168 . S
C1359 C598 2.168 . S
C1364 C734 2.168 . S
C1389 C768 2.168 . S
C1394 C632 2.168 . S
C1419 C666 2.168 . S
C1424 C802 2.168 . S
C1449 C825 0.786 . S
C1454 C961 0.786 . S
C1479 C859 0.786 . S
C1484 C995 0.786 . S
C1509 C1029 0.786 . S
C1514 C893 0.786 . S
C1539 C927 0.785 . S
C1544 C1063 0.785 . S
C1569 C413 0.883 . S
C1574 C9 0.901 . S
C1599 C43 0.901 . S
C1604 C991 0.883 . S
C1629 C481 0.883 . S
C1634 C77 0.902 . S
C1659 C111 0.901 . S
C1664 C1059 0.883 . S
C1689 C145 0.902 . S
C1694 C277 0.883 . S
C1719 C855 0.883 . S
C1724 C179 0.901 . S
C1749 C345 0.883 . S
C1754 C213 0.901 . S
C1779 C247 0.901 . S
C1784 C923 0.883 . S
C1809 C292 2.363 . S
C1814 C138 2.370 . S
C1839 C326 2.363 . S
C1844 C716 2.370 . S
C1869 C360 2.363 . S
C1874 C206 2.370 . S
C1899 C394 2.363 . S
C1904 C784 2.370 . S
C1929 C2 2.370 . S
C1934 C428 2.363 . S
C1959 C580 2.370 . S
C1964 C462 2.363 . S
C1989 C496 2.363 . S
C1994 C70 2.370 . S
C2019 C648 2.370 . S
C2024 C530 2.363 . S
C2049 C553 0.902 . S
C2054 C957 0.883 . S
C2079 C587 0.901 . S
C2084 C447 0.883 . S
C2109 C621 0.901 . S
C2114 C1025 0.883 . S
C2139 C655 0.901 . S
C2144 C515 0.883 . S
C2169 C689 0.901 . S
C2174 C821 0.883 . S
C2199 C311 0.883 . S
C2204 C723 0.901 . S
C2229 C889 0.883 . S
C2234 C757 0.902 . S
C2259 C791 0.901 . S
C2264 C379 0.883 . S
C2289 C682 2.370 . S
C2294 C836 2.363 . S
C2319 C172 2.370 . S
C2324 C870 2.363 . S
C2349 C750 2.370 . S
C2354 C904 2.363 . S
C2379 C240 2.370 . S
C2384 C938 2.363 . S
C2409 C972 2.363 . S
C2414 C546 2.370 . S
C2439 C36 2.370 . S
C2444 C1006 2.363 . S
C2469 C1040 2.363 . S
C2474 C614 2.370 . S
C2499 C104 2.370 . S
C2504 C1074 2.363 . S
C2529 C5 0.968 . S
C2534 C141 0.968 . S
C2559 C175 0.967 . S
C2564 C39 0.967 . S
C2589 C209 0.968 . S
C2594 C73 0.968 . S
C2619 C107 0.968 . S
C2624 C243 0.968 . S
C2649 C274 2.559 . S
C2654 C410 2.559 . S
C2679 C308 2.559 . S
C2684 C444 2.559 . S
C2709 C478 2.559 . S
C2714 C342 2.559 . S
C2739 C376 2.559 . S
C2744 C512 2.559 . S
C2769 C685 0.968 . S
C2774 C549 0.968 . S
C2799 C583 0.968 . S
C2804 C719 0.968 . S
C2829 C753 0.968 . S
C2834 C617 0.968 . S
C2859 C651 0.967 . S
C2864 C787 0.967 . S
C2889 C954 2.559 . S
C2894 C818 2.559 . S
C2919 C852 2.559 . S
C2924 C988 2.559 . S
C2949 C1022 2.559 . S
C2954 C886 2.559 . S
C2979 C920 2.559 . S
C2984 C1056 2.559 . S
C3009 C271 0.217 . S
C3014 C33 0.217 . S
C3039 C67 0.217 . S
C3044 C169 0.217 . S
C3069 C101 0.217 . S
C3074 C203 0.217 . S
C3099 C237 0.218 1_554 S
C3104 C135 0.217 . S
C3129 C305 0.223 . S
C3134 C543 0.213 . S
C3159 C441 0.212 . S
C3164 C339 0.212 . S
C3189 C475 0.212 . S
C3194 C373 0.212 . S
C3219 C407 0.213 . S
C3224 C509 0.213 . S
C3249 C815 0.217 . S
C3254 C577 0.217 . S
C3279 C611 0.217 . S
C3284 C713 0.218 1_554 S
C3309 C747 0.217 . S
C3314 C645 0.217 . S
C3339 C679 0.217 . S
C3344 C781 0.217 . S
C3369 C849 0.212 . S
C3374 C1087 0.212 . S
C3399 C883 0.213 . S
C3404 C985 0.213 . S
C3429 C917 0.223 . S
C3434 C1019 0.213 . S
C3459 C1053 0.212 . S
C3464 C951 0.212 . S
