# Generated by pormake.
# Topology sxg, (6)-cn, num edge types: 1
# Building blocks:
#     Node 0, Type 0, BuildingBlock: KUMJIN_clean_sbu_0, # of connection points: 6
#     Node 1, Type 0, BuildingBlock: KUMJIN_clean_sbu_0, # of connection points: 6
#     Node 2, Type 0, BuildingBlock: KUMJIN_clean_sbu_0, # of connection points: 6
#     Node 3, Type 0, BuildingBlock: KUMJIN_clean_sbu_0, # of connection points: 6
#     Node 4, Type 0, BuildingBlock: KUMJIN_clean_sbu_0, # of connection points: 6
#     Node 5, Type 0, BuildingBlock: KUMJIN_clean_sbu_0, # of connection points: 6
#     Node 6, Type 0, BuildingBlock: KUMJIN_clean_sbu_0, # of connection points: 6
#     Node 7, Type 0, BuildingBlock: KUMJIN_clean_sbu_0, # of connection points: 6
#     Node 8, Type 0, BuildingBlock: KUMJIN_clean_sbu_0, # of connection points: 6
#     Node 9, Type 0, BuildingBlock: KUMJIN_clean_sbu_0, # of connection points: 6
#     Node 10, Type 0, BuildingBlock: KUMJIN_clean_sbu_0, # of connection points: 6
#     Node 11, Type 0, BuildingBlock: KUMJIN_clean_sbu_0, # of connection points: 6
#     Node 12, Type 0, BuildingBlock: KUMJIN_clean_sbu_0, # of connection points: 6
#     Node 13, Type 0, BuildingBlock: KUMJIN_clean_sbu_0, # of connection points: 6
#     Node 14, Type 0, BuildingBlock: KUMJIN_clean_sbu_0, # of connection points: 6
#     Node 15, Type 0, BuildingBlock: KUMJIN_clean_sbu_0, # of connection points: 6
#     Node 16, Type 0, BuildingBlock: KUMJIN_clean_sbu_0, # of connection points: 6
#     Node 17, Type 0, BuildingBlock: KUMJIN_clean_sbu_0, # of connection points: 6
#     Node 18, Type 0, BuildingBlock: KUMJIN_clean_sbu_0, # of connection points: 6
#     Node 19, Type 0, BuildingBlock: KUMJIN_clean_sbu_0, # of connection points: 6
#     Node 20, Type 0, BuildingBlock: KUMJIN_clean_sbu_0, # of connection points: 6
#     Node 21, Type 0, BuildingBlock: KUMJIN_clean_sbu_0, # of connection points: 6
#     Node 22, Type 0, BuildingBlock: KUMJIN_clean_sbu_0, # of connection points: 6
#     Node 23, Type 0, BuildingBlock: KUMJIN_clean_sbu_0, # of connection points: 6
#     Edge 24, Type (0, 0), None
#     Edge 25, Type (0, 0), None
#     Edge 26, Type (0, 0), None
#     Edge 27, Type (0, 0), None
#     Edge 28, Type (0, 0), None
#     Edge 29, Type (0, 0), None
#     Edge 30, Type (0, 0), None
#     Edge 31, Type (0, 0), None
#     Edge 32, Type (0, 0), None
#     Edge 33, Type (0, 0), None
#     Edge 34, Type (0, 0), None
#     Edge 35, Type (0, 0), None
#     Edge 36, Type (0, 0), None
#     Edge 37, Type (0, 0), None
#     Edge 38, Type (0, 0), None
#     Edge 39, Type (0, 0), None
#     Edge 40, Type (0, 0), None
#     Edge 41, Type (0, 0), None
#     Edge 42, Type (0, 0), None
#     Edge 43, Type (0, 0), None
#     Edge 44, Type (0, 0), None
#     Edge 45, Type (0, 0), None
#     Edge 46, Type (0, 0), None
#     Edge 47, Type (0, 0), None
#     Edge 48, Type (0, 0), None
#     Edge 49, Type (0, 0), None
#     Edge 50, Type (0, 0), None
#     Edge 51, Type (0, 0), None
#     Edge 52, Type (0, 0), None
#     Edge 53, Type (0, 0), None
#     Edge 54, Type (0, 0), None
#     Edge 55, Type (0, 0), None
#     Edge 56, Type (0, 0), None
#     Edge 57, Type (0, 0), None
#     Edge 58, Type (0, 0), None
#     Edge 59, Type (0, 0), None
#     Edge 60, Type (0, 0), None
#     Edge 61, Type (0, 0), None
#     Edge 62, Type (0, 0), None
#     Edge 63, Type (0, 0), None
#     Edge 64, Type (0, 0), None
#     Edge 65, Type (0, 0), None
#     Edge 66, Type (0, 0), None
#     Edge 67, Type (0, 0), None
#     Edge 68, Type (0, 0), None
#     Edge 69, Type (0, 0), None
#     Edge 70, Type (0, 0), None
#     Edge 71, Type (0, 0), None
#     Edge 72, Type (0, 0), None
#     Edge 73, Type (0, 0), None
#     Edge 74, Type (0, 0), None
#     Edge 75, Type (0, 0), None
#     Edge 76, Type (0, 0), None
#     Edge 77, Type (0, 0), None
#     Edge 78, Type (0, 0), None
#     Edge 79, Type (0, 0), None
#     Edge 80, Type (0, 0), None
#     Edge 81, Type (0, 0), None
#     Edge 82, Type (0, 0), None
#     Edge 83, Type (0, 0), None
#     Edge 84, Type (0, 0), None
#     Edge 85, Type (0, 0), None
#     Edge 86, Type (0, 0), None
#     Edge 87, Type (0, 0), None
#     Edge 88, Type (0, 0), None
#     Edge 89, Type (0, 0), None
#     Edge 90, Type (0, 0), None
#     Edge 91, Type (0, 0), None
#     Edge 92, Type (0, 0), None
#     Edge 93, Type (0, 0), None
#     Edge 94, Type (0, 0), None
#     Edge 95, Type (0, 0), None
# Relax obj value: 0.151
# Max RMSD: 0.244
# Mean RMSD: 0.244
data_MOF--net-sxg--node1-KUMJIN_clean_sbu_0--edge1-none
_symmetry_space_group_name_H-M    P1
_symmetry_Int_Tables_number       1
_symmetry_cell_setting            triclinic
loop_
_symmetry_equiv_pos_as_xyz
'x, y, z'
_cell_length_a     28.4949
_cell_length_b     28.494846
_cell_length_c     28.494939
_cell_angle_alpha  90.000003
_cell_angle_beta   89.999992
_cell_angle_gamma 89.999997
loop_
_atom_site_label
_atom_site_type_symbol
_atom_site_fract_x
_atom_site_fract_y
_atom_site_fract_z
_atom_type_partial_charge
Eu0 Eu 0.02741 0.4338 0.29975 0.0
C1 C 0.0696 0.27173 0.41316 0.0
C2 C 0.09231 0.30496 0.53258 0.0
C3 C 0.07657 0.21156 0.52599 0.0
C4 C 0.08119 0.31314 0.44456 0.0
C5 C 0.06407 0.2198 0.43603 0.0
C6 C 0.08826 0.25642 0.5571 0.0
C7 C 0.0473 0.20226 0.35124 0.0
N8 N 0.06517 0.28173 0.36742 0.0
C9 C 0.0504 0.24825 0.33741 0.0
C10 C 0.05306 0.18788 0.39748 0.0
Eu11 Eu 0.10728 0.35094 0.34604 0.0
N12 N 0.08701 0.36547 0.42671 0.0
C13 C 0.09589 0.41174 0.45936 0.0
C14 C 0.10318 0.36082 0.55777 0.0
C15 C 0.10442 0.41154 0.52163 0.0
H16 H 0.04638 0.25422 0.30077 0.0
H17 H 0.11049 0.44493 0.53836 0.0
H18 H 0.09152 0.25413 0.59438 0.0
H19 H 0.04392 0.17655 0.32389 0.0
H20 H 0.09635 0.4458 0.44336 0.0
H21 H 0.02009 0.42977 0.10459 0.0
H22 H 0.11005 0.36441 0.5947 0.0
H23 H 0.03693 0.52728 0.38943 0.0
H24 H 1.01907 0.39576 0.18127 0.0
H25 H 0.05892 0.66535 0.37129 0.0
H26 H 0.07492 0.1808 0.54924 0.0
H27 H 0.04054 0.51176 0.08914 0.0
H28 H 0.07433 0.59777 0.11454 0.0
H29 H 0.0492 0.15039 0.4006 0.0
H30 H 0.07804 0.66846 0.18059 0.0
N31 N 0.04021 0.45649 0.21938 0.0
C32 C 0.03029 0.43165 0.17923 0.0
C33 C 0.04197 0.49857 0.12474 0.0
C34 C 0.05567 0.52781 0.16078 0.0
C35 C 0.03008 0.45175 0.13394 0.0
C36 C 0.04922 0.50232 0.21587 0.0
H37 H 0.06676 0.6946 0.28724 0.0
N38 N 0.0422 0.51614 0.3136 0.0
C39 C 0.0545 0.63764 0.34553 0.0
C40 C 0.04899 0.5352 0.26644 0.0
C41 C 0.04215 0.54751 0.35702 0.0
C42 C 0.0614 0.65754 0.29351 0.0
C43 C 0.06188 0.62146 0.25184 0.0
O44 O 0.95302 0.44233 0.32029 0.0
O45 O 0.02906 0.36903 0.34816 0.0
O46 O 0.07896 0.32241 0.27623 0.0
O47 O 1.01319 0.36571 0.25746 0.0
O48 O 1.00033 0.42952 0.37476 0.0
O49 O 0.97101 0.45338 0.24934 0.0
O50 O 0.15371 0.29807 0.31411 0.0
O51 O 0.09572 0.39377 0.28191 0.0
O52 O 0.09206 0.47665 0.33095 0.0
O53 O 0.13666 0.42222 0.37279 0.0
O54 O 0.16246 0.39549 0.31063 0.0
O55 O 0.16486 0.31474 0.38514 0.0
C56 C 1.00565 0.38528 0.38339 0.0
C57 C 0.90187 0.49357 0.27642 0.0
C58 C 0.83013 0.53309 0.24473 0.0
C59 C 0.86386 0.49559 0.24317 0.0
C60 C 0.83552 0.56701 0.28029 0.0
C61 C 0.90502 0.52906 0.31008 0.0
C62 C 0.87182 0.5647 0.31248 0.0
C63 C 0.04054 0.32883 0.2504 0.0
C64 C 0.937 0.45397 0.27915 0.0
C65 C 0.06994 0.63337 0.19179 0.0
C66 C 0.06607 0.5885 0.14946 0.0
C67 C 0.13878 0.40585 0.27334 0.0
C68 C 0.18516 0.23463 0.36062 0.0
C69 C 0.22385 0.21426 0.38627 0.0
C70 C 0.22845 0.16371 0.39139 0.0
C71 C 0.19207 0.1361 0.37399 0.0
C72 C 0.15485 0.2032 0.33836 0.0
C73 C 0.15613 0.15555 0.34796 0.0
C74 C 0.12772 0.46666 0.36024 0.0
C75 C 0.17751 0.28699 0.35138 0.0
H76 H 0.86053 0.46837 0.21688 0.0
H77 H 0.81142 0.59617 0.28384 0.0
H78 H 0.93252 0.52793 0.33612 0.0
H79 H 0.87377 0.591 0.33965 0.0
H80 H 0.25092 0.23707 0.40005 0.0
H81 H 0.1932 0.09872 0.37677 0.0
H82 H 0.13007 0.21524 0.31253 0.0
H83 H 0.12981 0.1331 0.33373 0.0
Eu84 Eu 0.51236 0.60597 0.79975 0.0
C85 C 0.47016 0.76803 0.91316 0.0
C86 C 0.44746 0.73481 0.03258 0.0
C87 C 0.4632 0.82821 0.02599 0.0
C88 C 0.45857 0.72662 0.94456 0.0
C89 C 0.4757 0.81997 0.93603 0.0
C90 C 0.45151 0.78335 0.0571 0.0
C91 C 0.49246 0.8375 0.85124 0.0
N92 N 0.47459 0.75804 0.86742 0.0
C93 C 0.48936 0.79152 0.83741 0.0
C94 C 0.4867 0.85189 0.89748 0.0
Eu95 Eu 0.43248 0.68883 0.84604 0.0
N96 N 0.45275 0.6743 0.92671 0.0
C97 C 0.44387 0.62802 0.95936 0.0
C98 C 0.43659 0.67895 0.05777 0.0
C99 C 0.43534 0.62823 0.02163 0.0
H100 H 0.49338 0.78555 0.80077 0.0
H101 H 0.42927 0.59484 0.03836 0.0
H102 H 0.44824 0.78564 0.09438 0.0
H103 H 0.49585 0.86322 0.82389 0.0
H104 H 0.44341 0.59396 0.94336 0.0
H105 H 0.51968 0.61 0.60459 0.0
H106 H 0.42972 0.67535 0.0947 0.0
H107 H 0.50283 0.51249 0.88943 0.0
H108 H 0.5207 0.644 0.68127 0.0
H109 H 0.48085 0.37442 0.87129 0.0
H110 H 0.46484 0.85897 0.04924 0.0
H111 H 0.49923 0.52801 0.58914 0.0
H112 H 0.46544 0.442 0.61454 0.0
H113 H 0.49056 0.88938 0.9006 0.0
H114 H 0.46172 0.37131 0.68059 0.0
N115 N 0.49956 0.58328 0.71938 0.0
C116 C 0.50947 0.60812 0.67923 0.0
C117 C 0.49779 0.5412 0.62474 0.0
C118 C 0.48409 0.51196 0.66078 0.0
C119 C 0.50968 0.58802 0.63394 0.0
C120 C 0.49055 0.53745 0.71587 0.0
H121 H 0.47301 0.34517 0.78724 0.0
N122 N 0.49757 0.52363 0.8136 0.0
C123 C 0.48527 0.40213 0.84553 0.0
C124 C 0.49077 0.50456 0.76644 0.0
C125 C 0.49762 0.49226 0.85702 0.0
C126 C 0.47836 0.38223 0.79351 0.0
C127 C 0.47788 0.4183 0.75184 0.0
O128 O 0.58674 0.59744 0.82029 0.0
O129 O 0.5107 0.67074 0.84816 0.0
O130 O 0.4608 0.71735 0.77623 0.0
O131 O 0.52657 0.67406 0.75746 0.0
O132 O 0.53944 0.61025 0.87476 0.0
O133 O 0.56876 0.58639 0.74934 0.0
O134 O 0.38606 0.7417 0.81411 0.0
O135 O 0.44405 0.646 0.78191 0.0
O136 O 0.4477 0.56312 0.83095 0.0
O137 O 0.4031 0.61754 0.87279 0.0
O138 O 0.37731 0.64428 0.81063 0.0
O139 O 0.3749 0.72503 0.88514 0.0
C140 C 0.53412 0.65449 0.88339 0.0
C141 C 0.63789 0.5462 0.77642 0.0
C142 C 0.70964 0.50667 0.74473 0.0
C143 C 0.67591 0.54418 0.74317 0.0
C144 C 0.70424 0.47275 0.78029 0.0
C145 C 0.63474 0.51071 0.81008 0.0
C146 C 0.66795 0.47507 0.81248 0.0
C147 C 0.49922 0.71094 0.7504 0.0
C148 C 0.60277 0.5858 0.77915 0.0
C149 C 0.46983 0.4064 0.69179 0.0
C150 C 0.47369 0.45127 0.64946 0.0
C151 C 0.40098 0.63392 0.77334 0.0
C152 C 0.3546 0.80513 0.86062 0.0
C153 C 0.31592 0.82551 0.88627 0.0
C154 C 0.31132 0.87606 0.89139 0.0
C155 C 0.34769 0.90367 0.87399 0.0
C156 C 0.38492 0.83657 0.83836 0.0
C157 C 0.38364 0.88421 0.84796 0.0
C158 C 0.41204 0.57311 0.86024 0.0
C159 C 0.36225 0.75278 0.85138 0.0
H160 H 0.67924 0.5714 0.71688 0.0
H161 H 0.72835 0.44359 0.78384 0.0
H162 H 0.60724 0.51183 0.83612 0.0
H163 H 0.66599 0.44876 0.83965 0.0
H164 H 0.28885 0.80269 0.90005 0.0
H165 H 0.34657 0.94105 0.87677 0.0
H166 H 0.40969 0.82452 0.81253 0.0
H167 H 0.40996 0.90667 0.83373 0.0
Eu168 Eu 0.52741 0.10597 0.74001 0.0
C169 C 0.5696 0.26803 0.6266 0.0
C170 C 0.59231 0.23481 0.50718 0.0
C171 C 0.57657 0.32821 0.51377 0.0
C172 C 0.58119 0.22662 0.5952 0.0
C173 C 0.56407 0.31997 0.60373 0.0
C174 C 0.58826 0.28335 0.48266 0.0
C175 C 0.5473 0.3375 0.68852 0.0
N176 N 0.56517 0.25804 0.67234 0.0
C177 C 0.5504 0.29152 0.70235 0.0
C178 C 0.55306 0.35189 0.64229 0.0
Eu179 Eu 0.60728 0.18883 0.69372 0.0
N180 N 0.58701 0.1743 0.61305 0.0
C181 C 0.59589 0.12802 0.5804 0.0
C182 C 0.60318 0.17895 0.48199 0.0
C183 C 0.60442 0.12823 0.51813 0.0
H184 H 0.54638 0.28555 0.739 0.0
H185 H 0.61049 0.09484 0.5014 0.0
H186 H 0.59152 0.28564 0.44539 0.0
H187 H 0.54392 0.36322 0.71588 0.0
H188 H 0.59635 0.09396 0.5964 0.0
H189 H 0.52009 0.11 0.93517 0.0
H190 H 0.61005 0.17535 0.44506 0.0
H191 H 0.53693 1.01249 0.65034 0.0
H192 H 0.51907 0.144 0.85849 0.0
H193 H 0.55892 0.87442 0.66847 0.0
H194 H 0.57492 0.35897 0.49052 0.0
H195 H 0.54054 0.02801 0.95062 0.0
H196 H 0.57433 0.942 0.92522 0.0
H197 H 0.5492 0.38938 0.63917 0.0
H198 H 0.57804 0.87131 0.85917 0.0
N199 N 0.54021 0.08328 0.82038 0.0
C200 C 0.53029 0.10812 0.86053 0.0
C201 C 0.54197 0.0412 0.91503 0.0
C202 C 0.55567 1.01196 0.87898 0.0
C203 C 0.53008 0.08802 0.90583 0.0
C204 C 0.54922 0.03745 0.8239 0.0
H205 H 0.56676 0.84517 0.75253 0.0
N206 N 0.5422 0.02363 0.72617 0.0
C207 C 0.5545 0.90213 0.69423 0.0
C208 C 0.54899 1.00456 0.77332 0.0
C209 C 0.54215 0.99226 0.68275 0.0
C210 C 0.5614 0.88223 0.74625 0.0
C211 C 0.56188 0.9183 0.78792 0.0
O212 O 0.45302 0.09744 0.71947 0.0
O213 O 0.52906 0.17074 0.69161 0.0
O214 O 0.57896 0.21735 0.76353 0.0
O215 O 0.51319 0.17406 0.78231 0.0
O216 O 0.50033 0.11025 0.665 0.0
O217 O 0.47101 0.08639 0.79042 0.0
O218 O 0.65371 0.2417 0.72566 0.0
O219 O 0.59572 0.146 0.75785 0.0
O220 O 0.59206 0.06312 0.70882 0.0
O221 O 0.63666 0.11754 0.66698 0.0
O222 O 0.66246 0.14428 0.72913 0.0
O223 O 0.66486 0.22503 0.65462 0.0
C224 C 0.50565 0.15449 0.65637 0.0
C225 C 0.40187 0.0462 0.76334 0.0
C226 C 0.33013 1.00667 0.79504 0.0
C227 C 0.36386 0.04418 0.7966 0.0
C228 C 0.33552 0.97275 0.75947 0.0
C229 C 0.40502 1.01071 0.72968 0.0
C230 C 0.37182 0.97507 0.72728 0.0
C231 C 0.54054 0.21094 0.78936 0.0
C232 C 0.437 0.0858 0.76061 0.0
C233 C 0.56994 0.9064 0.84797 0.0
C234 C 0.56607 0.95127 0.89031 0.0
C235 C 0.63878 0.13392 0.76643 0.0
C236 C 0.68516 0.30513 0.67915 0.0
C237 C 0.72385 0.32551 0.65349 0.0
C238 C 0.72845 0.37606 0.64838 0.0
C239 C 0.69207 0.40367 0.66578 0.0
C240 C 0.65485 0.33657 0.70141 0.0
C241 C 0.65613 0.38421 0.69181 0.0
C242 C 0.62772 0.07311 0.67952 0.0
C243 C 0.67751 0.25278 0.68838 0.0
H244 H 0.36053 0.0714 0.82288 0.0
H245 H 0.31142 0.94359 0.75592 0.0
H246 H 0.43252 1.01183 0.70364 0.0
H247 H 0.37377 0.94876 0.70011 0.0
H248 H 0.75092 0.30269 0.63971 0.0
H249 H 0.6932 0.44105 0.663 0.0
H250 H 0.63007 0.32452 0.72724 0.0
H251 H 0.62981 0.40667 0.70603 0.0
Eu252 Eu 1.01236 0.9338 0.24001 0.0
C253 C 0.97016 0.77173 0.1266 0.0
C254 C 0.94746 0.80496 1.00718 0.0
C255 C 0.9632 0.71156 1.01377 0.0
C256 C 0.95857 0.81314 0.0952 0.0
C257 C 0.9757 0.7198 0.10373 0.0
C258 C 0.95151 0.75642 0.98266 0.0
C259 C 0.99246 0.70226 0.18852 0.0
N260 N 0.97459 0.78173 0.17234 0.0
C261 C 0.98936 0.74825 0.20235 0.0
C262 C 0.9867 0.68788 0.14229 0.0
Eu263 Eu 0.93248 0.85094 0.19372 0.0
N264 N 0.95275 0.86547 0.11305 0.0
C265 C 0.94387 0.91174 0.0804 0.0
C266 C 0.93659 0.86082 0.98199 0.0
C267 C 0.93534 0.91153 1.01813 0.0
H268 H 0.99338 0.75422 0.239 0.0
H269 H 0.92927 0.94493 1.0014 0.0
H270 H 0.94824 0.75413 0.94539 0.0
H271 H 0.99585 0.67655 0.21588 0.0
H272 H 0.94341 0.9458 0.0964 0.0
H273 H 1.01968 0.92977 0.43517 0.0
H274 H 0.92972 0.86441 0.94506 0.0
H275 H 1.00283 0.02728 0.15034 0.0
H276 H 0.0207 0.89576 0.35849 0.0
H277 H 0.98085 0.16535 0.16847 0.0
H278 H 0.96484 0.6808 0.99052 0.0
H279 H 0.99923 1.01176 0.45062 0.0
H280 H 0.96544 0.09777 0.42522 0.0
H281 H 0.99056 0.65039 0.13917 0.0
H282 H 0.96172 0.16846 0.35917 0.0
N283 N 0.99956 0.95649 0.32038 0.0
C284 C 1.00947 0.93165 0.36053 0.0
C285 C 0.99779 0.99857 0.41503 0.0
C286 C 0.98409 0.02781 0.37898 0.0
C287 C 1.00968 0.95175 0.40583 0.0
C288 C 0.99055 1.00232 0.3239 0.0
H289 H 0.97301 0.1946 0.25253 0.0
N290 N 0.99757 1.01614 0.22617 0.0
C291 C 0.98527 0.13764 0.19423 0.0
C292 C 0.99077 0.0352 0.27332 0.0
C293 C 0.99762 0.04751 0.18275 0.0
C294 C 0.97836 0.15754 0.24625 0.0
C295 C 0.97788 0.12146 0.28792 0.0
O296 O 0.08674 0.94233 0.21947 0.0
O297 O 1.0107 0.86903 0.19161 0.0
O298 O 0.9608 0.82241 0.26353 0.0
O299 O 0.02657 0.86571 0.28231 0.0
O300 O 0.03944 0.92952 0.165 0.0
O301 O 0.06876 0.95338 0.29043 0.0
O302 O 0.88606 0.79807 0.22566 0.0
O303 O 0.94405 0.89377 0.25785 0.0
O304 O 0.9477 0.97665 0.20882 0.0
O305 O 0.9031 0.92222 0.16698 0.0
O306 O 0.87731 0.89549 0.22913 0.0
O307 O 0.8749 0.81474 0.15462 0.0
C308 C 0.03412 0.88528 0.15637 0.0
C309 C 0.13789 0.99357 0.26334 0.0
C310 C 0.20964 0.03309 0.29504 0.0
C311 C 0.17591 0.99559 0.2966 0.0
C312 C 0.20424 0.06701 0.25947 0.0
C313 C 0.13474 0.02906 0.22968 0.0
C314 C 0.16795 0.0647 0.22728 0.0
C315 C 0.99922 0.82883 0.28936 0.0
C316 C 0.10277 0.95397 0.26062 0.0
C317 C 0.96983 0.13337 0.34797 0.0
C318 C 0.97369 0.0885 0.39031 0.0
C319 C 0.90098 0.90585 0.26643 0.0
C320 C 0.8546 0.73463 0.17915 0.0
C321 C 0.81592 0.71426 0.15349 0.0
C322 C 0.81132 0.66371 0.14838 0.0
C323 C 0.84769 0.6361 0.16577 0.0
C324 C 0.88492 0.7032 0.20141 0.0
C325 C 0.88364 0.65555 0.19181 0.0
C326 C 0.91204 0.96666 0.17952 0.0
C327 C 0.86225 0.78698 0.18838 0.0
H328 H 0.17924 0.96837 0.32288 0.0
H329 H 0.22835 0.09617 0.25592 0.0
H330 H 0.10724 0.02793 0.20364 0.0
H331 H 0.16599 0.091 0.20011 0.0
H332 H 0.78885 0.73707 0.13971 0.0
H333 H 0.84657 0.59872 0.163 0.0
H334 H 0.90969 0.71524 0.22724 0.0
H335 H 0.90996 0.6331 0.20603 0.0
Eu336 Eu 0.29975 0.02741 0.43379 0.0
C337 C 0.41317 0.0696 0.27173 0.0
C338 C 0.53258 0.09232 0.30496 0.0
C339 C 0.52599 0.07657 0.21156 0.0
C340 C 0.44456 0.08119 0.31314 0.0
C341 C 0.43604 0.06407 0.2198 0.0
C342 C 0.55711 0.08827 0.25641 0.0
C343 C 0.35125 0.0473 0.20226 0.0
N344 N 0.36742 0.06518 0.28172 0.0
C345 C 0.33741 0.05041 0.24824 0.0
C346 C 0.39748 0.05306 0.18787 0.0
Eu347 Eu 0.34604 0.10729 0.35093 0.0
N348 N 0.42672 0.08702 0.36546 0.0
C349 C 0.45937 0.0959 0.41174 0.0
C350 C 0.55777 0.10319 0.36082 0.0
C351 C 0.52163 0.10443 0.41153 0.0
H352 H 0.30077 0.04639 0.25421 0.0
H353 H 0.53836 0.1105 0.44493 0.0
H354 H 0.59438 0.09154 0.25412 0.0
H355 H 0.32389 0.04392 0.17655 0.0
H356 H 0.44336 0.09635 0.4458 0.0
H357 H 0.10459 0.02009 0.42976 0.0
H358 H 0.5947 0.11006 0.36441 0.0
H359 H 0.38942 0.03694 0.52727 0.0
H360 H 0.18127 1.01907 0.39576 0.0
H361 H 0.37129 0.05891 0.66534 0.0
H362 H 0.54924 0.07493 0.18079 0.0
H363 H 0.08914 0.04054 0.51175 0.0
H364 H 0.11454 0.07433 0.59776 0.0
H365 H 0.4006 0.0492 0.15039 0.0
H366 H 0.18059 0.07804 0.66845 0.0
N367 N 0.21938 0.04021 0.45648 0.0
C368 C 0.17923 0.0303 0.43164 0.0
C369 C 0.12473 0.04197 0.49857 0.0
C370 C 0.16078 0.05568 0.5278 0.0
C371 C 0.13393 0.03009 0.45175 0.0
C372 C 0.21586 0.04922 0.50231 0.0
H373 H 0.28724 0.06675 0.69459 0.0
N374 N 0.3136 0.0422 0.51613 0.0
C375 C 0.34553 0.0545 0.63763 0.0
C376 C 0.26644 0.049 0.5352 0.0
C377 C 0.35702 0.04215 0.5475 0.0
C378 C 0.29351 0.0614 0.65753 0.0
C379 C 0.25184 0.06188 0.62146 0.0
O380 O 0.32028 0.95303 0.44231 0.0
O381 O 0.34816 0.02907 0.36903 0.0
O382 O 0.27623 0.07896 0.32241 0.0
O383 O 0.25746 1.01319 0.3657 0.0
O384 O 0.37476 1.00033 0.42952 0.0
O385 O 0.24933 0.97102 0.45338 0.0
O386 O 0.31411 0.15371 0.29806 0.0
O387 O 0.28189 0.09571 0.39374 0.0
O388 O 0.33094 0.09207 0.47664 0.0
O389 O 0.37279 0.13666 0.42222 0.0
O390 O 0.31068 0.16251 0.39548 0.0
O391 O 0.38514 0.16486 0.31472 0.0
C392 C 0.38339 1.00565 0.38528 0.0
C393 C 0.27642 0.90187 0.49356 0.0
C394 C 0.24472 0.83013 0.53308 0.0
C395 C 0.24316 0.86386 0.49558 0.0
C396 C 0.28029 0.83552 0.567 0.0
C397 C 0.31008 0.90503 0.52904 0.0
C398 C 0.31248 0.87182 0.56468 0.0
C399 C 0.25041 0.04054 0.32882 0.0
C400 C 0.27914 0.937 0.45396 0.0
C401 C 0.19179 0.06994 0.63336 0.0
C402 C 0.14946 0.06607 0.5885 0.0
C403 C 0.27339 0.1388 0.40579 0.0
C404 C 0.36061 0.18516 0.23462 0.0
C405 C 0.38627 0.22385 0.21425 0.0
C406 C 0.39139 0.22845 0.1637 0.0
C407 C 0.37399 0.19207 0.13609 0.0
C408 C 0.33835 0.15485 0.20318 0.0
C409 C 0.34795 0.15613 0.15554 0.0
C410 C 0.36024 0.12772 0.46666 0.0
C411 C 0.35138 0.17751 0.28697 0.0
H412 H 0.21688 0.86053 0.46836 0.0
H413 H 0.28384 0.81142 0.59616 0.0
H414 H 0.33612 0.93252 0.52792 0.0
H415 H 0.33965 0.87377 0.59099 0.0
H416 H 0.40005 0.25091 0.23706 0.0
H417 H 0.37676 0.1932 0.09871 0.0
H418 H 0.31252 0.13007 0.21523 0.0
H419 H 0.33373 0.12981 0.13309 0.0
Eu420 Eu 0.24002 1.01235 0.93379 0.0
C421 C 0.1266 0.97016 0.77173 0.0
C422 C 1.00718 0.94745 0.80496 0.0
C423 C 1.01377 0.96319 0.71156 0.0
C424 C 0.0952 0.95857 0.81314 0.0
C425 C 0.10373 0.9757 0.7198 0.0
C426 C 0.98266 0.9515 0.75641 0.0
C427 C 0.18852 0.99246 0.70226 0.0
N428 N 0.17234 0.97459 0.78172 0.0
C429 C 0.20235 0.98936 0.74824 0.0
C430 C 0.14228 0.9867 0.68787 0.0
Eu431 Eu 0.19373 0.93248 0.85093 0.0
N432 N 0.11305 0.95275 0.86546 0.0
C433 C 0.0804 0.94387 0.91174 0.0
C434 C 0.98199 0.93658 0.86082 0.0
C435 C 1.01813 0.93534 0.91153 0.0
H436 H 0.23899 0.99337 0.75421 0.0
H437 H 1.0014 0.92927 0.94493 0.0
H438 H 0.94539 0.94822 0.75412 0.0
H439 H 0.21587 0.99585 0.67655 0.0
H440 H 0.0964 0.94341 0.9458 0.0
H441 H 0.43518 1.01968 0.92976 0.0
H442 H 0.94506 0.92971 0.86441 0.0
H443 H 0.15034 1.00283 0.02727 0.0
H444 H 0.35849 0.02069 0.89576 0.0
H445 H 0.16848 0.98085 0.16534 0.0
H446 H 0.99052 0.96483 0.68079 0.0
H447 H 0.45062 0.99923 1.01175 0.0
H448 H 0.42523 0.96544 0.09776 0.0
H449 H 0.13916 0.99056 0.65039 0.0
H450 H 0.35918 0.96173 0.16845 0.0
N451 N 0.32039 0.99956 0.95648 0.0
C452 C 0.36054 1.00947 0.93164 0.0
C453 C 0.41503 0.99779 0.99857 0.0
C454 C 0.37899 0.98409 0.0278 0.0
C455 C 0.40583 1.00968 0.95174 0.0
C456 C 0.3239 0.99054 1.00231 0.0
H457 H 0.25253 0.97302 0.19459 0.0
N458 N 0.22617 0.99756 1.01613 0.0
C459 C 0.19424 0.98527 0.13763 0.0
C460 C 0.27333 0.99077 0.0352 0.0
C461 C 0.18275 0.99762 0.0475 0.0
C462 C 0.24625 0.97837 0.15753 0.0
C463 C 0.28793 0.97789 0.12146 0.0
O464 O 0.21948 0.08674 0.94231 0.0
O465 O 0.19161 1.0107 0.86903 0.0
O466 O 0.26353 0.96081 0.82241 0.0
O467 O 0.28231 0.02658 0.8657 0.0
O468 O 0.16501 0.03944 0.92952 0.0
O469 O 0.29043 0.06875 0.95338 0.0
O470 O 0.22566 0.88606 0.79806 0.0
O471 O 0.25788 0.94406 0.89374 0.0
O472 O 0.20883 0.9477 0.97664 0.0
O473 O 0.16697 0.90311 0.92222 0.0
O474 O 0.22909 0.87725 0.89548 0.0
O475 O 0.15462 0.87491 0.81472 0.0
C476 C 0.15637 0.03411 0.88528 0.0
C477 C 0.26334 0.13789 0.99356 0.0
C478 C 0.29504 0.20964 0.03308 0.0
C479 C 0.2966 0.17591 0.99558 0.0
C480 C 0.25947 0.20424 0.067 0.0
C481 C 0.22968 0.13474 0.02904 0.0
C482 C 0.22729 0.16795 0.06468 0.0
C483 C 0.28936 0.99923 0.82882 0.0
C484 C 0.26062 0.10277 0.95396 0.0
C485 C 0.34798 0.96983 0.13336 0.0
C486 C 0.39031 0.97369 0.0885 0.0
C487 C 0.26637 0.90097 0.90579 0.0
C488 C 0.17915 0.8546 0.73462 0.0
C489 C 0.1535 0.81592 0.71425 0.0
C490 C 0.14838 0.81132 0.6637 0.0
C491 C 0.16578 0.84769 0.63609 0.0
C492 C 0.20141 0.88492 0.70318 0.0
C493 C 0.19181 0.88364 0.65554 0.0
C494 C 0.17953 0.91205 0.96666 0.0
C495 C 0.18839 0.86226 0.78697 0.0
H496 H 0.32289 0.17924 0.96836 0.0
H497 H 0.25592 0.22835 0.09616 0.0
H498 H 0.20365 0.10724 0.02792 0.0
H499 H 0.20011 0.16599 0.09099 0.0
H500 H 0.13971 0.78885 0.73706 0.0
H501 H 0.163 0.84657 0.59871 0.0
H502 H 0.22725 0.9097 0.71523 0.0
H503 H 0.20604 0.90996 0.63309 0.0
Eu504 Eu 0.79975 0.51235 0.60597 0.0
C505 C 0.91317 0.47016 0.76803 0.0
C506 C 0.03258 0.44745 0.73481 0.0
C507 C 0.02599 0.46319 0.82821 0.0
C508 C 0.94456 0.45857 0.72663 0.0
C509 C 0.93604 0.4757 0.81997 0.0
C510 C 0.05711 0.4515 0.78335 0.0
C511 C 0.85125 0.49246 0.8375 0.0
N512 N 0.86742 0.47459 0.75804 0.0
C513 C 0.83741 0.48936 0.79152 0.0
C514 C 0.89748 0.4867 0.85189 0.0
Eu515 Eu 0.84604 0.43248 0.68883 0.0
N516 N 0.92672 0.45275 0.6743 0.0
C517 C 0.95937 0.44387 0.62802 0.0
C518 C 0.05777 0.43658 0.67895 0.0
C519 C 0.02163 0.43533 0.62823 0.0
H520 H 0.80077 0.49337 0.78555 0.0
H521 H 0.03836 0.42927 0.59484 0.0
H522 H 0.09438 0.44822 0.78564 0.0
H523 H 0.82389 0.49585 0.86322 0.0
H524 H 0.94336 0.44341 0.59396 0.0
H525 H 0.60459 0.51968 0.61 0.0
H526 H 0.0947 0.42971 0.67535 0.0
H527 H 0.88942 0.50283 0.51249 0.0
H528 H 0.68127 0.52069 0.64401 0.0
H529 H 0.87129 0.48085 0.37442 0.0
H530 H 0.04924 0.46483 0.85897 0.0
H531 H 0.58914 0.49923 0.52801 0.0
H532 H 0.61454 0.46544 0.442 0.0
H533 H 0.9006 0.49056 0.88938 0.0
H534 H 0.68059 0.46173 0.37131 0.0
N535 N 0.71938 0.49956 0.58328 0.0
C536 C 0.67923 0.50947 0.60812 0.0
C537 C 0.62473 0.49779 0.5412 0.0
C538 C 0.66078 0.48409 0.51196 0.0
C539 C 0.63393 0.50968 0.58802 0.0
C540 C 0.71586 0.49054 0.53745 0.0
H541 H 0.78724 0.47302 0.34517 0.0
N542 N 0.8136 0.49756 0.52363 0.0
C543 C 0.84553 0.48527 0.40213 0.0
C544 C 0.76644 0.49077 0.50457 0.0
C545 C 0.85702 0.49762 0.49226 0.0
C546 C 0.79351 0.47837 0.38223 0.0
C547 C 0.75184 0.47789 0.41831 0.0
O548 O 0.82028 0.58674 0.59745 0.0
O549 O 0.84816 0.5107 0.67074 0.0
O550 O 0.77623 0.46081 0.71735 0.0
O551 O 0.75746 0.52658 0.67406 0.0
O552 O 0.87476 0.53944 0.61024 0.0
O553 O 0.74933 0.56875 0.58639 0.0
O554 O 0.81411 0.38606 0.7417 0.0
O555 O 0.78189 0.44406 0.64602 0.0
O556 O 0.83094 0.4477 0.56312 0.0
O557 O 0.87279 0.40311 0.61754 0.0
O558 O 0.81068 0.37725 0.64429 0.0
O559 O 0.88514 0.37491 0.72504 0.0
C560 C 0.88339 0.53411 0.65448 0.0
C561 C 0.77642 0.63789 0.5462 0.0
C562 C 0.74472 0.70964 0.50668 0.0
C563 C 0.74316 0.67591 0.54419 0.0
C564 C 0.78029 0.70424 0.47276 0.0
C565 C 0.81008 0.63474 0.51072 0.0
C566 C 0.81248 0.66795 0.47508 0.0
C567 C 0.75041 0.49923 0.71094 0.0
C568 C 0.77914 0.60277 0.58581 0.0
C569 C 0.69179 0.46983 0.4064 0.0
C570 C 0.64946 0.47369 0.45127 0.0
C571 C 0.77339 0.40097 0.63398 0.0
C572 C 0.86061 0.3546 0.80514 0.0
C573 C 0.88627 0.31592 0.82552 0.0
C574 C 0.89139 0.31132 0.87606 0.0
C575 C 0.87398 0.34769 0.90367 0.0
C576 C 0.83835 0.38492 0.83658 0.0
C577 C 0.84795 0.38364 0.88422 0.0
C578 C 0.86024 0.41205 0.57311 0.0
C579 C 0.85138 0.36226 0.75279 0.0
H580 H 0.71688 0.67924 0.57141 0.0
H581 H 0.78384 0.72835 0.4436 0.0
H582 H 0.83612 0.60724 0.51184 0.0
H583 H 0.83965 0.66599 0.44877 0.0
H584 H 0.90005 0.28885 0.8027 0.0
H585 H 0.87676 0.34657 0.94106 0.0
H586 H 0.81252 0.4097 0.82453 0.0
H587 H 0.83373 0.40996 0.90667 0.0
Eu588 Eu 0.74002 0.52741 0.10597 0.0
C589 C 0.6266 0.5696 0.26803 0.0
C590 C 0.50718 0.59232 0.23481 0.0
C591 C 0.51377 0.57657 0.32821 0.0
C592 C 0.5952 0.58119 0.22663 0.0
C593 C 0.60373 0.56407 0.31997 0.0
C594 C 0.48266 0.58827 0.28335 0.0
C595 C 0.68852 0.5473 0.3375 0.0
N596 N 0.67234 0.56518 0.25804 0.0
C597 C 0.70235 0.55041 0.29152 0.0
C598 C 0.64228 0.55306 0.35189 0.0
Eu599 Eu 0.69373 0.60729 0.18883 0.0
N600 N 0.61305 0.58702 0.1743 0.0
C601 C 0.5804 0.5959 0.12802 0.0
C602 C 0.48199 0.60319 0.17895 0.0
C603 C 0.51813 0.60443 0.12823 0.0
H604 H 0.73899 0.54639 0.28555 0.0
H605 H 0.5014 0.6105 0.09484 0.0
H606 H 0.44539 0.59154 0.28564 0.0
H607 H 0.71587 0.54392 0.36322 0.0
H608 H 0.5964 0.59635 0.09396 0.0
H609 H 0.93518 0.52009 0.11 0.0
H610 H 0.44506 0.61006 0.17535 0.0
H611 H 0.65034 0.53694 1.01249 0.0
H612 H 0.85849 0.51907 0.14401 0.0
H613 H 0.66848 0.55891 0.87442 0.0
H614 H 0.49052 0.57493 0.35897 0.0
H615 H 0.95062 0.54054 0.02801 0.0
H616 H 0.92523 0.57433 0.942 0.0
H617 H 0.63916 0.5492 0.38938 0.0
H618 H 0.85917 0.57804 0.87131 0.0
N619 N 0.82039 0.54021 0.08328 0.0
C620 C 0.86054 0.5303 0.10812 0.0
C621 C 0.91503 0.54197 0.0412 0.0
C622 C 0.87899 0.55568 1.01196 0.0
C623 C 0.90583 0.53009 0.08802 0.0
C624 C 0.8239 0.54922 0.03745 0.0
H625 H 0.75253 0.56675 0.84517 0.0
N626 N 0.72617 0.5422 0.02363 0.0
C627 C 0.69424 0.5545 0.90213 0.0
C628 C 0.77333 0.549 1.00457 0.0
C629 C 0.68275 0.54215 0.99226 0.0
C630 C 0.74625 0.5614 0.88223 0.0
C631 C 0.78793 0.56188 0.91831 0.0
O632 O 0.71948 0.45303 0.09745 0.0
O633 O 0.69161 0.52907 0.17074 0.0
O634 O 0.76353 0.57896 0.21735 0.0
O635 O 0.78231 0.51319 0.17406 0.0
O636 O 0.66501 0.50033 0.11024 0.0
O637 O 0.79043 0.47102 0.08639 0.0
O638 O 0.72566 0.65371 0.2417 0.0
O639 O 0.75788 0.59571 0.14602 0.0
O640 O 0.70883 0.59207 0.06312 0.0
O641 O 0.66697 0.63666 0.11754 0.0
O642 O 0.72909 0.66251 0.14429 0.0
O643 O 0.65462 0.66486 0.22504 0.0
C644 C 0.65637 0.50565 0.15448 0.0
C645 C 0.76334 0.40187 0.0462 0.0
C646 C 0.79504 0.33013 1.00668 0.0
C647 C 0.7966 0.36386 0.04419 0.0
C648 C 0.75947 0.33552 0.97276 0.0
C649 C 0.72968 0.40503 1.01072 0.0
C650 C 0.72729 0.37182 0.97508 0.0
C651 C 0.78936 0.54054 0.21094 0.0
C652 C 0.76062 0.437 0.08581 0.0
C653 C 0.84798 0.56994 0.9064 0.0
C654 C 0.89031 0.56607 0.95127 0.0
C655 C 0.76637 0.6388 0.13398 0.0
C656 C 0.67915 0.68516 0.30514 0.0
C657 C 0.6535 0.72385 0.32552 0.0
C658 C 0.64838 0.72845 0.37606 0.0
C659 C 0.66578 0.69207 0.40367 0.0
C660 C 0.70141 0.65485 0.33658 0.0
C661 C 0.69181 0.65613 0.38422 0.0
C662 C 0.67953 0.62772 0.07311 0.0
C663 C 0.68839 0.67751 0.25279 0.0
H664 H 0.82289 0.36053 0.07141 0.0
H665 H 0.75592 0.31142 0.9436 0.0
H666 H 0.70365 0.43252 1.01184 0.0
H667 H 0.70011 0.37377 0.94877 0.0
H668 H 0.63971 0.75091 0.3027 0.0
H669 H 0.663 0.6932 0.44106 0.0
H670 H 0.72725 0.63007 0.32453 0.0
H671 H 0.70604 0.62981 0.40667 0.0
Eu672 Eu 0.43379 0.29975 0.02741 0.0
C673 C 0.27173 0.41317 0.0696 0.0
C674 C 0.30496 0.53258 0.09231 0.0
C675 C 0.21155 0.52599 0.07657 0.0
C676 C 0.31314 0.44456 0.08119 0.0
C677 C 0.21979 0.43603 0.06407 0.0
C678 C 0.25641 0.55711 0.08826 0.0
C679 C 0.20225 0.35125 0.04731 0.0
N680 N 0.28172 0.36742 0.06518 0.0
C681 C 0.24824 0.33741 0.05041 0.0
C682 C 0.18787 0.39748 0.05306 0.0
Eu683 Eu 0.35093 0.34604 0.10728 0.0
N684 N 0.36546 0.42672 0.08701 0.0
C685 C 0.41174 0.45937 0.09589 0.0
C686 C 0.36082 0.55777 0.10318 0.0
C687 C 0.41153 0.52163 0.10442 0.0
H688 H 0.25421 0.30077 0.0464 0.0
H689 H 0.44492 0.53837 0.11049 0.0
H690 H 0.25412 0.59438 0.09153 0.0
H691 H 0.17654 0.32389 0.04392 0.0
H692 H 0.4458 0.44336 0.09635 0.0
H693 H 0.42977 0.10459 0.02009 0.0
H694 H 0.36441 0.5947 0.11005 0.0
H695 H 0.52727 0.38943 0.03694 0.0
H696 H 0.39576 0.18127 1.01907 0.0
H697 H 0.66534 0.37129 0.05891 0.0
H698 H 0.18079 0.54924 0.07492 0.0
H699 H 0.51176 0.08915 0.04054 0.0
H700 H 0.59776 0.11454 0.07433 0.0
H701 H 0.15038 0.4006 0.0492 0.0
H702 H 0.66846 0.1806 0.07804 0.0
N703 N 0.45648 0.21938 0.04021 0.0
C704 C 0.43165 0.17923 0.03029 0.0
C705 C 0.49857 0.12474 0.04197 0.0
C706 C 0.52781 0.16078 0.05568 0.0
C707 C 0.45175 0.13394 0.03008 0.0
C708 C 0.50231 0.21587 0.04922 0.0
H709 H 0.6946 0.28724 0.06675 0.0
N710 N 0.51614 0.3136 0.0422 0.0
C711 C 0.63763 0.34554 0.0545 0.0
C712 C 0.5352 0.26644 0.049 0.0
C713 C 0.5475 0.35702 0.04215 0.0
C714 C 0.65754 0.29352 0.0614 0.0
C715 C 0.62146 0.25185 0.06188 0.0
O716 O 0.44232 0.32029 0.95302 0.0
O717 O 0.36903 0.34816 0.02907 0.0
O718 O 0.32241 0.27623 0.07895 0.0
O719 O 0.36571 0.25746 1.01318 0.0
O720 O 0.42952 0.37476 1.00033 0.0
O721 O 0.45338 0.24934 0.97101 0.0
O722 O 0.29807 0.3141 0.15371 0.0
O723 O 0.39374 0.28189 0.0957 0.0
O724 O 0.47664 0.33094 0.09206 0.0
O725 O 0.42222 0.37279 0.13666 0.0
O726 O 0.39548 0.31068 0.16251 0.0
O727 O 0.31472 0.38515 0.16485 0.0
C728 C 0.38528 0.38339 1.00565 0.0
C729 C 0.49357 0.27642 0.90187 0.0
C730 C 0.5331 0.24472 0.83013 0.0
C731 C 0.49559 0.24316 0.86386 0.0
C732 C 0.56701 0.28029 0.83552 0.0
C733 C 0.52905 0.31008 0.90502 0.0
C734 C 0.56469 0.31248 0.87182 0.0
C735 C 0.32882 0.25041 0.04053 0.0
C736 C 0.45397 0.27914 0.937 0.0
C737 C 0.63336 0.1918 0.06994 0.0
C738 C 0.5885 0.14946 0.06607 0.0
C739 C 0.40579 0.27339 0.13879 0.0
C740 C 0.23463 0.36061 0.18516 0.0
C741 C 0.21425 0.38628 0.22382 0.0
C742 C 0.1637 0.39138 0.22842 0.0
C743 C 0.13609 0.37397 0.19205 0.0
C744 C 0.20319 0.33832 0.15485 0.0
C745 C 0.15555 0.34792 0.15612 0.0
C746 C 0.46666 0.36024 0.12772 0.0
C747 C 0.28698 0.35138 0.1775 0.0
H748 H 0.46837 0.21687 0.86053 0.0
H749 H 0.59617 0.28384 0.81142 0.0
H750 H 0.52793 0.33612 0.93252 0.0
H751 H 0.591 0.33965 0.87377 0.0
H752 H 0.23706 0.40009 0.25088 0.0
H753 H 0.09871 0.37675 0.19317 0.0
H754 H 0.21525 0.31249 0.13008 0.0
H755 H 0.1331 0.33368 0.12981 0.0
Eu756 Eu 0.93379 0.24002 1.01236 0.0
C757 C 0.77173 0.1266 0.97016 0.0
C758 C 0.80496 1.00718 0.94746 0.0
C759 C 0.71155 1.01377 0.9632 0.0
C760 C 0.81314 0.0952 0.95857 0.0
C761 C 0.71979 0.10373 0.9757 0.0
C762 C 0.75641 0.98266 0.9515 0.0
C763 C 0.70225 0.18852 0.99245 0.0
N764 N 0.78172 0.17235 0.97459 0.0
C765 C 0.74824 0.20236 0.98935 0.0
C766 C 0.68787 0.14229 0.9867 0.0
Eu767 Eu 0.85093 0.19373 0.93248 0.0
N768 N 0.86546 0.11305 0.95275 0.0
C769 C 0.91174 0.0804 0.94387 0.0
C770 C 0.86081 0.98199 0.93659 0.0
C771 C 0.91153 1.01813 0.93534 0.0
H772 H 0.75421 0.239 0.99336 0.0
H773 H 0.94492 1.0014 0.92927 0.0
H774 H 0.75412 0.94539 0.94823 0.0
H775 H 0.67654 0.21588 0.99584 0.0
H776 H 0.9458 0.0964 0.94341 0.0
H777 H 0.92977 0.43518 1.01968 0.0
H778 H 0.86441 0.94506 0.92972 0.0
H779 H 0.02727 0.15034 1.00283 0.0
H780 H 0.89576 0.35849 0.0207 0.0
H781 H 0.16534 0.16847 0.98085 0.0
H782 H 0.68079 0.99052 0.96484 0.0
H783 H 1.01176 0.45062 0.99923 0.0
H784 H 0.09776 0.42522 0.96544 0.0
H785 H 0.65038 0.13916 0.99056 0.0
H786 H 0.16845 0.35917 0.96172 0.0
N787 N 0.95648 0.32038 0.99955 0.0
C788 C 0.93165 0.36054 1.00947 0.0
C789 C 0.99857 0.41503 0.99779 0.0
C790 C 0.02781 0.37898 0.98408 0.0
C791 C 0.95175 0.40583 1.00968 0.0
C792 C 1.00231 0.3239 0.99054 0.0
H793 H 0.1946 0.25253 0.97301 0.0
N794 N 1.01613 0.22617 0.99756 0.0
C795 C 0.13763 0.19423 0.98527 0.0
C796 C 0.0352 0.27332 0.99076 0.0
C797 C 0.0475 0.18275 0.99761 0.0
C798 C 0.15753 0.24625 0.97836 0.0
C799 C 0.12146 0.28792 0.97788 0.0
O800 O 0.94232 0.21948 0.08674 0.0
O801 O 0.86903 0.19161 1.0107 0.0
O802 O 0.82241 0.26353 0.96081 0.0
O803 O 0.86571 0.28231 0.02658 0.0
O804 O 0.92952 0.16501 0.03944 0.0
O805 O 0.95338 0.29043 0.06875 0.0
O806 O 0.79807 0.22566 0.88605 0.0
O807 O 0.89374 0.25788 0.94406 0.0
O808 O 0.97664 0.20883 0.9477 0.0
O809 O 0.92222 0.16698 0.90311 0.0
O810 O 0.89548 0.22909 0.87726 0.0
O811 O 0.81472 0.15462 0.87491 0.0
C812 C 0.88528 0.15637 0.03411 0.0
C813 C 0.99357 0.26334 0.13789 0.0
C814 C 0.0331 0.29505 0.20963 0.0
C815 C 0.99559 0.2966 0.17591 0.0
C816 C 0.06701 0.25947 0.20424 0.0
C817 C 0.02905 0.22968 0.13474 0.0
C818 C 0.06469 0.22729 0.16795 0.0
C819 C 0.82882 0.28936 0.99923 0.0
C820 C 0.95397 0.26062 0.10277 0.0
C821 C 0.13336 0.34797 0.96983 0.0
C822 C 0.0885 0.39031 0.97369 0.0
C823 C 0.90579 0.26637 0.90097 0.0
C824 C 0.73463 0.17916 0.85461 0.0
C825 C 0.71425 0.15349 0.81594 0.0
C826 C 0.6637 0.14838 0.81135 0.0
C827 C 0.63609 0.1658 0.84771 0.0
C828 C 0.70319 0.20144 0.88491 0.0
C829 C 0.65555 0.19185 0.88364 0.0
C830 C 0.96666 0.17953 0.91205 0.0
C831 C 0.78698 0.18839 0.86226 0.0
H832 H 0.96837 0.32289 0.17923 0.0
H833 H 0.09617 0.25593 0.22834 0.0
H834 H 0.02793 0.20365 0.10725 0.0
H835 H 0.091 0.20011 0.16599 0.0
H836 H 0.73706 0.13968 0.78888 0.0
H837 H 0.59871 0.16302 0.84659 0.0
H838 H 0.71525 0.22728 0.90968 0.0
H839 H 0.6331 0.20609 0.90995 0.0
Eu840 Eu 0.60597 0.79975 0.51236 0.0
C841 C 0.76804 0.91317 0.47016 0.0
C842 C 0.73481 0.03258 0.44745 0.0
C843 C 0.82821 0.02599 0.4632 0.0
C844 C 0.72663 0.94456 0.45857 0.0
C845 C 0.81997 0.93603 0.4757 0.0
C846 C 0.78335 0.05711 0.4515 0.0
C847 C 0.83751 0.85125 0.49245 0.0
N848 N 0.75805 0.86742 0.47459 0.0
C849 C 0.79153 0.83741 0.48935 0.0
C850 C 0.8519 0.89748 0.4867 0.0
Eu851 Eu 0.68883 0.84604 0.43248 0.0
N852 N 0.6743 0.92672 0.45275 0.0
C853 C 0.62803 0.95937 0.44387 0.0
C854 C 0.67895 0.05777 0.43659 0.0
C855 C 0.62824 0.02163 0.43534 0.0
H856 H 0.78556 0.80077 0.49336 0.0
H857 H 0.59484 0.03837 0.42927 0.0
H858 H 0.78565 0.09438 0.44823 0.0
H859 H 0.86322 0.82389 0.49584 0.0
H860 H 0.59397 0.94337 0.44341 0.0
H861 H 0.61 0.60459 0.51968 0.0
H862 H 0.67536 0.0947 0.42972 0.0
H863 H 0.51249 0.88943 0.50283 0.0
H864 H 0.644 0.68127 0.5207 0.0
H865 H 0.37442 0.87129 0.48085 0.0
H866 H 0.85897 0.04924 0.46484 0.0
H867 H 0.52801 0.58915 0.49923 0.0
H868 H 0.442 0.61454 0.46543 0.0
H869 H 0.88938 0.9006 0.49056 0.0
H870 H 0.37131 0.6806 0.46172 0.0
N871 N 0.58328 0.71938 0.49955 0.0
C872 C 0.60812 0.67923 0.50947 0.0
C873 C 0.5412 0.62474 0.49779 0.0
C874 C 0.51196 0.66078 0.48408 0.0
C875 C 0.58802 0.63394 0.50968 0.0
C876 C 0.53745 0.71587 0.49054 0.0
H877 H 0.34517 0.78724 0.47301 0.0
N878 N 0.52363 0.8136 0.49756 0.0
C879 C 0.40213 0.84554 0.48527 0.0
C880 C 0.50457 0.76644 0.49076 0.0
C881 C 0.49226 0.85702 0.49761 0.0
C882 C 0.38223 0.79352 0.47836 0.0
C883 C 0.41831 0.75185 0.47788 0.0
O884 O 0.59744 0.82029 0.58674 0.0
O885 O 0.67074 0.84816 0.5107 0.0
O886 O 0.71735 0.77623 0.46081 0.0
O887 O 0.67406 0.75746 0.52658 0.0
O888 O 0.61025 0.87476 0.53944 0.0
O889 O 0.58638 0.74934 0.56875 0.0
O890 O 0.7417 0.8141 0.38605 0.0
O891 O 0.64602 0.78189 0.44406 0.0
O892 O 0.56312 0.83094 0.4477 0.0
O893 O 0.61754 0.87279 0.40311 0.0
O894 O 0.64429 0.81068 0.37726 0.0
O895 O 0.72504 0.88515 0.37491 0.0
C896 C 0.65448 0.88339 0.53411 0.0
C897 C 0.5462 0.77642 0.63789 0.0
C898 C 0.50667 0.74472 0.70963 0.0
C899 C 0.54418 0.74316 0.67591 0.0
C900 C 0.47275 0.78029 0.70424 0.0
C901 C 0.51071 0.81008 0.63474 0.0
C902 C 0.47507 0.81248 0.66795 0.0
C903 C 0.71094 0.75041 0.49923 0.0
C904 C 0.5858 0.77914 0.60277 0.0
C905 C 0.4064 0.6918 0.46983 0.0
C906 C 0.45127 0.64946 0.47369 0.0
C907 C 0.63398 0.77339 0.40097 0.0
C908 C 0.80514 0.86061 0.35461 0.0
C909 C 0.82552 0.88628 0.31594 0.0
C910 C 0.87607 0.89138 0.31135 0.0
C911 C 0.90368 0.87397 0.34771 0.0
C912 C 0.83657 0.83832 0.38491 0.0
C913 C 0.88421 0.84792 0.38364 0.0
C914 C 0.57311 0.86024 0.41205 0.0
C915 C 0.75279 0.85138 0.36226 0.0
H916 H 0.5714 0.71687 0.67923 0.0
H917 H 0.44359 0.78384 0.72834 0.0
H918 H 0.51184 0.83612 0.60725 0.0
H919 H 0.44877 0.83965 0.66599 0.0
H920 H 0.80271 0.90009 0.28888 0.0
H921 H 0.94106 0.87675 0.34659 0.0
H922 H 0.82452 0.81249 0.40968 0.0
H923 H 0.90666 0.83368 0.40995 0.0
Eu924 Eu 0.10597 0.74002 0.52741 0.0
C925 C 0.26804 0.6266 0.5696 0.0
C926 C 0.23481 0.50718 0.59231 0.0
C927 C 0.32821 0.51377 0.57657 0.0
C928 C 0.22663 0.5952 0.58119 0.0
C929 C 0.31997 0.60373 0.56407 0.0
C930 C 0.28335 0.48266 0.58826 0.0
C931 C 0.33751 0.68852 0.54731 0.0
N932 N 0.25805 0.67235 0.56518 0.0
C933 C 0.29153 0.70236 0.55041 0.0
C934 C 0.3519 0.64229 0.55306 0.0
Eu935 Eu 0.18883 0.69373 0.60728 0.0
N936 N 0.1743 0.61305 0.58701 0.0
C937 C 0.12803 0.5804 0.59589 0.0
C938 C 0.17895 0.48199 0.60318 0.0
C939 C 0.12824 0.51813 0.60442 0.0
H940 H 0.28556 0.739 0.5464 0.0
H941 H 0.09484 0.5014 0.61049 0.0
H942 H 0.28565 0.44539 0.59153 0.0
H943 H 0.36322 0.71588 0.54392 0.0
H944 H 0.09397 0.5964 0.59635 0.0
H945 H 0.10999 0.93518 0.52008 0.0
H946 H 0.17536 0.44506 0.61005 0.0
H947 H 1.01249 0.65034 0.53694 0.0
H948 H 0.144 0.85849 0.51907 0.0
H949 H 0.87442 0.66847 0.55891 0.0
H950 H 0.35897 0.49052 0.57492 0.0
H951 H 0.02801 0.95062 0.54054 0.0
H952 H 0.942 0.92522 0.57433 0.0
H953 H 0.38938 0.63916 0.5492 0.0
H954 H 0.87131 0.85917 0.57804 0.0
N955 N 0.08328 0.82038 0.54021 0.0
C956 C 0.10812 0.86054 0.53029 0.0
C957 C 0.0412 0.91503 0.54197 0.0
C958 C 1.01196 0.87898 0.55568 0.0
C959 C 0.08802 0.90583 0.53008 0.0
C960 C 0.03745 0.8239 0.54922 0.0
H961 H 0.84517 0.75252 0.56675 0.0
N962 N 0.02363 0.72617 0.5422 0.0
C963 C 0.90213 0.69423 0.5545 0.0
C964 C 1.00457 0.77332 0.549 0.0
C965 C 0.99226 0.68275 0.54215 0.0
C966 C 0.88223 0.74625 0.5614 0.0
C967 C 0.91831 0.78792 0.56188 0.0
O968 O 0.09744 0.71948 0.45302 0.0
O969 O 0.17074 0.69161 0.52907 0.0
O970 O 0.21735 0.76353 0.57895 0.0
O971 O 0.17406 0.78231 0.51318 0.0
O972 O 0.11024 0.66501 0.50033 0.0
O973 O 0.08638 0.79043 0.47101 0.0
O974 O 0.24169 0.72566 0.65371 0.0
O975 O 0.14602 0.75788 0.5957 0.0
O976 O 0.06312 0.70883 0.59206 0.0
O977 O 0.11754 0.66698 0.63666 0.0
O978 O 0.14429 0.72909 0.66251 0.0
O979 O 0.22504 0.65462 0.66485 0.0
C980 C 0.15448 0.65637 0.50565 0.0
C981 C 0.0462 0.76334 0.40187 0.0
C982 C 1.00667 0.79505 0.33013 0.0
C983 C 0.04418 0.7966 0.36386 0.0
C984 C 0.97275 0.75947 0.33552 0.0
C985 C 1.01071 0.72968 0.40502 0.0
C986 C 0.97507 0.72729 0.37182 0.0
C987 C 0.21094 0.78936 0.54053 0.0
C988 C 0.0858 0.76062 0.437 0.0
C989 C 0.9064 0.84797 0.56994 0.0
C990 C 0.95127 0.89031 0.56607 0.0
C991 C 0.13398 0.76637 0.63879 0.0
C992 C 0.30514 0.67916 0.68516 0.0
C993 C 0.32552 0.65349 0.72382 0.0
C994 C 0.37607 0.64838 0.72842 0.0
C995 C 0.40368 0.6658 0.69205 0.0
C996 C 0.33657 0.70144 0.65485 0.0
C997 C 0.38421 0.69185 0.65612 0.0
C998 C 0.07311 0.67953 0.62772 0.0
C999 C 0.25279 0.68839 0.67751 0.0
H1000 H 0.0714 0.82289 0.36053 0.0
H1001 H 0.94359 0.75593 0.31142 0.0
H1002 H 1.01184 0.70365 0.43252 0.0
H1003 H 0.94877 0.70011 0.37377 0.0
H1004 H 0.30271 0.63968 0.75088 0.0
H1005 H 0.44106 0.66302 0.69317 0.0
H1006 H 0.32452 0.72728 0.63008 0.0
H1007 H 0.40666 0.70609 0.62981 0.0
Eu1008 Eu 0.93254 0.68881 0.69373 0.0
C1009 C 0.99077 0.50456 0.77332 0.0
C1010 C 0.9841 0.51196 0.87898 0.0
C1011 C 0.96983 0.4064 0.84797 0.0
C1012 C 0.99055 0.53745 0.82389 0.0
C1013 C 0.97788 0.4183 0.78792 0.0
C1014 C 0.9737 0.45127 0.8903 0.0
C1015 C 0.98526 0.40212 0.69423 0.0
N1016 N 0.99757 0.52362 0.72616 0.0
C1017 C 0.99762 0.49225 0.68274 0.0
C1018 C 0.97836 0.38222 0.74625 0.0
Eu1019 Eu 1.01237 0.60595 0.74001 0.0
N1020 N 0.99951 0.58329 0.82037 0.0
C1021 C 1.00947 0.60812 0.86052 0.0
C1022 C 0.99777 0.54121 0.91502 0.0
C1023 C 1.00966 0.58802 0.90582 0.0
H1024 H 1.00283 0.51247 0.65033 0.0
H1025 H 1.01965 0.61001 0.93516 0.0
H1026 H 0.96549 0.44199 0.92523 0.0
H1027 H 0.98083 0.37441 0.66848 0.0
H1028 H 0.02068 0.64401 0.85847 0.0
H1029 H 0.9293 0.59483 0.5014 0.0
H1030 H 0.99919 0.52803 0.95062 0.0
H1031 H 0.99343 0.78552 0.73899 0.0
H1032 H 0.94344 0.59396 0.59641 0.0
H1033 H 0.99585 0.8632 0.71588 0.0
H1034 H 0.96173 0.37131 0.85918 0.0
H1035 H 0.92973 0.67535 0.44506 0.0
H1036 H 0.94826 0.78564 0.44539 0.0
H1037 H 0.973 0.34516 0.75253 0.0
H1038 H 0.96485 0.85898 0.49053 0.0
N1039 N 0.95275 0.67431 0.61304 0.0
C1040 C 0.94389 0.62802 0.5804 0.0
C1041 C 0.9366 0.67894 0.48199 0.0
C1042 C 0.94747 0.73481 0.50718 0.0
C1043 C 0.93536 0.62823 0.51814 0.0
C1044 C 0.95858 0.72663 0.5952 0.0
H1045 H 0.99054 0.88938 0.63918 0.0
N1046 N 0.97462 0.75803 0.67234 0.0
C1047 C 0.99248 0.83749 0.68852 0.0
C1048 C 0.97017 0.76803 0.6266 0.0
C1049 C 0.98939 0.79151 0.70235 0.0
C1050 C 0.9867 0.85189 0.64229 0.0
C1051 C 0.9757 0.81997 0.60373 0.0
O1052 O 0.88612 0.74167 0.72567 0.0
O1053 O 0.94407 0.64598 0.75798 0.0
O1054 O 0.9477 0.56313 0.70882 0.0
O1055 O 0.90314 0.61755 0.66696 0.0
O1056 O 0.87731 0.64434 0.72909 0.0
O1057 O 0.87495 0.72501 0.65464 0.0
O1058 O 0.08676 0.59744 0.71947 0.0
O1059 O 1.01073 0.67068 0.69167 0.0
O1060 O 0.96084 0.71734 0.76353 0.0
O1061 O 0.02662 0.67405 0.78229 0.0
O1062 O 0.03933 0.61022 0.6649 0.0
O1063 O 0.06876 0.58635 0.79041 0.0
C1064 C 0.90094 0.634 0.76641 0.0
C1065 C 0.85462 0.80509 0.67918 0.0
C1066 C 0.8113 0.876 0.64843 0.0
C1067 C 0.81591 0.82546 0.65356 0.0
C1068 C 0.8477 0.90362 0.66579 0.0
C1069 C 0.88494 0.83654 0.70142 0.0
C1070 C 0.88366 0.88417 0.6918 0.0
C1071 C 0.91206 0.57312 0.67952 0.0
C1072 C 0.8623 0.75275 0.68841 0.0
C1073 C 0.9632 0.82821 0.51378 0.0
C1074 C 0.95152 0.78335 0.48266 0.0
C1075 C 0.03409 0.65449 0.65638 0.0
C1076 C 0.13791 0.5462 0.76333 0.0
C1077 C 0.17592 0.5442 0.79659 0.0
C1078 C 0.20965 0.5067 0.79504 0.0
C1079 C 0.20426 0.47277 0.75948 0.0
C1080 C 0.13475 0.51071 0.72969 0.0
C1081 C 0.16796 0.47507 0.7273 0.0
C1082 C 0.99926 0.71093 0.78935 0.0
C1083 C 0.10278 0.58579 0.76061 0.0
H1084 H 0.78883 0.80264 0.6398 0.0
H1085 H 0.84658 0.941 0.66299 0.0
H1086 H 0.90973 0.8245 0.72725 0.0
H1087 H 0.90999 0.90663 0.70601 0.0
H1088 H 0.17924 0.57143 0.82287 0.0
H1089 H 0.22837 0.44361 0.75594 0.0
H1090 H 0.10725 0.51182 0.70365 0.0
H1091 H 0.166 0.44875 0.70014 0.0
Eu1092 Eu 0.60723 0.35096 0.19373 0.0
C1093 C 0.549 0.53521 0.27332 0.0
C1094 C 0.55566 0.52781 0.37898 0.0
C1095 C 0.56993 0.63337 0.34797 0.0
C1096 C 0.54921 0.50232 0.32389 0.0
C1097 C 0.56188 0.62147 0.28792 0.0
C1098 C 0.56607 0.5885 0.3903 0.0
C1099 C 0.55451 0.63764 0.19423 0.0
N1100 N 0.5422 0.51615 0.22616 0.0
C1101 C 0.54215 0.54752 0.18274 0.0
C1102 C 0.56141 0.65755 0.24625 0.0
Eu1103 Eu 0.52739 0.43381 0.24001 0.0
N1104 N 0.54026 0.45648 0.32037 0.0
C1105 C 0.5303 0.43165 0.36052 0.0
C1106 C 0.542 0.49856 0.41502 0.0
C1107 C 0.5301 0.45174 0.40582 0.0
H1108 H 0.53693 0.52729 0.15033 0.0
H1109 H 0.52011 0.42976 0.43516 0.0
H1110 H 0.57427 0.59777 0.42523 0.0
H1111 H 0.55893 0.66536 0.16848 0.0
H1112 H 0.51908 0.39576 0.35847 0.0
H1113 H 0.61046 0.44494 1.0014 0.0
H1114 H 0.54058 0.51174 0.45062 0.0
H1115 H 0.54634 0.25425 0.23899 0.0
H1116 H 0.59632 0.4458 0.09641 0.0
H1117 H 0.54391 0.17656 0.21588 0.0
H1118 H 0.57803 0.66846 0.35918 0.0
H1119 H 0.61003 0.36442 0.94506 0.0
H1120 H 0.59151 0.25412 0.94539 0.0
H1121 H 0.56676 0.6946 0.25253 0.0
H1122 H 0.57492 0.18079 0.99053 0.0
N1123 N 0.58701 0.36546 0.11304 0.0
C1124 C 0.59588 0.41174 0.0804 0.0
C1125 C 0.60316 0.36082 0.98199 0.0
C1126 C 0.5923 0.30496 1.00718 0.0
C1127 C 0.60441 0.41154 1.01814 0.0
C1128 C 0.58118 0.31314 0.0952 0.0
H1129 H 0.54922 0.15039 0.13918 0.0
N1130 N 0.56514 0.28173 0.17234 0.0
C1131 C 0.54728 0.20227 0.18852 0.0
C1132 C 0.5696 0.27174 0.1266 0.0
C1133 C 0.55038 0.24826 0.20235 0.0
C1134 C 0.55306 0.18788 0.14229 0.0
C1135 C 0.56407 0.2198 0.10373 0.0
O1136 O 0.65365 0.29809 0.22567 0.0
O1137 O 0.59569 0.39378 0.25798 0.0
O1138 O 0.59206 0.47664 0.20882 0.0
O1139 O 0.63663 0.42221 0.16696 0.0
O1140 O 0.66245 0.39543 0.22909 0.0
O1141 O 0.66481 0.31476 0.15464 0.0
O1142 O 0.45301 0.44233 0.21947 0.0
O1143 O 0.52903 0.36909 0.19167 0.0
O1144 O 0.57892 0.32243 0.26353 0.0
O1145 O 0.51315 0.36571 0.28229 0.0
O1146 O 0.50043 0.42955 0.1649 0.0
O1147 O 0.471 0.45341 0.29041 0.0
C1148 C 0.63882 0.40576 0.26641 0.0
C1149 C 0.68515 0.23467 0.17918 0.0
C1150 C 0.72846 0.16377 0.14843 0.0
C1151 C 0.72386 0.21431 0.15356 0.0
C1152 C 0.69207 0.13615 0.16579 0.0
C1153 C 0.65483 0.20323 0.20142 0.0
C1154 C 0.65611 0.15559 0.1918 0.0
C1155 C 0.62771 0.46664 0.17952 0.0
C1156 C 0.67747 0.28702 0.18841 0.0
C1157 C 0.57656 0.21155 1.01378 0.0
C1158 C 0.58825 0.25641 0.98266 0.0
C1159 C 0.50567 0.38528 0.15638 0.0
C1160 C 0.40186 0.49356 0.26333 0.0
C1161 C 0.36385 0.49556 0.29659 0.0
C1162 C 0.33012 0.53306 0.29504 0.0
C1163 C 0.33551 0.567 0.25948 0.0
C1164 C 0.40501 0.52906 0.22969 0.0
C1165 C 0.3718 0.5647 0.2273 0.0
C1166 C 0.5405 0.32884 0.28935 0.0
C1167 C 0.43699 0.45397 0.26061 0.0
H1168 H 0.75094 0.23713 0.1398 0.0
H1169 H 0.69319 0.09877 0.16299 0.0
H1170 H 0.63004 0.21527 0.22725 0.0
H1171 H 0.62978 0.13313 0.20601 0.0
H1172 H 0.36052 0.46834 0.32287 0.0
H1173 H 0.3114 0.59615 0.25594 0.0
H1174 H 0.43251 0.52795 0.20365 0.0
H1175 H 0.37376 0.59102 0.20014 0.0
Eu1176 Eu 0.43254 0.85096 0.34603 0.0
C1177 C 0.49077 0.03521 0.26644 0.0
C1178 C 0.4841 0.02781 0.16078 0.0
C1179 C 0.46983 0.13337 0.19179 0.0
C1180 C 0.49055 1.00232 0.21587 0.0
C1181 C 0.47788 0.12147 0.25184 0.0
C1182 C 0.4737 0.0885 0.14946 0.0
C1183 C 0.48526 0.13764 0.34553 0.0
N1184 N 0.49757 1.01615 0.3136 0.0
C1185 C 0.49762 0.04752 0.35702 0.0
C1186 C 0.47836 0.15755 0.29351 0.0
Eu1187 Eu 0.51237 0.93381 0.29976 0.0
N1188 N 0.49951 0.95648 0.21939 0.0
C1189 C 0.50947 0.93165 0.17924 0.0
C1190 C 0.49777 0.99856 0.12474 0.0
C1191 C 0.50966 0.95174 0.13395 0.0
H1192 H 0.50283 0.02729 0.38943 0.0
H1193 H 0.51965 0.92976 0.1046 0.0
H1194 H 0.46549 0.09777 0.11453 0.0
H1195 H 0.48083 0.16536 0.37128 0.0
H1196 H 0.52068 0.89576 0.18129 0.0
H1197 H 0.4293 0.94494 0.53836 0.0
H1198 H 0.49919 1.01174 0.08914 0.0
H1199 H 0.49343 0.75425 0.30078 0.0
H1200 H 0.44344 0.9458 0.44336 0.0
H1201 H 0.49585 0.67656 0.32388 0.0
H1202 H 0.46173 0.16846 0.18059 0.0
H1203 H 0.42973 0.86442 0.5947 0.0
H1204 H 0.44826 0.75412 0.59438 0.0
H1205 H 0.473 0.1946 0.28723 0.0
H1206 H 0.46485 0.68079 0.54924 0.0
N1207 N 0.45275 0.86546 0.42672 0.0
C1208 C 0.44389 0.91174 0.45936 0.0
C1209 C 0.4366 0.86082 0.55777 0.0
C1210 C 0.44747 0.80496 0.53258 0.0
C1211 C 0.43536 0.91154 0.52163 0.0
C1212 C 0.45858 0.81314 0.44457 0.0
H1213 H 0.49054 0.65039 0.40058 0.0
N1214 N 0.47462 0.78173 0.36743 0.0
C1215 C 0.49248 0.70227 0.35124 0.0
C1216 C 0.47017 0.77174 0.41317 0.0
C1217 C 0.48939 0.74826 0.33741 0.0
C1218 C 0.4867 0.68788 0.39747 0.0
C1219 C 0.4757 0.7198 0.43603 0.0
O1220 O 0.38612 0.79809 0.31409 0.0
O1221 O 0.44407 0.89378 0.28178 0.0
O1222 O 0.4477 0.97664 0.33094 0.0
O1223 O 0.40314 0.92221 0.3728 0.0
O1224 O 0.37731 0.89543 0.31068 0.0
O1225 O 0.37495 0.81476 0.38513 0.0
O1226 O 0.58676 0.94233 0.32029 0.0
O1227 O 0.51073 0.86909 0.34809 0.0
O1228 O 0.46084 0.82243 0.27623 0.0
O1229 O 0.52662 0.86571 0.25748 0.0
O1230 O 0.53933 0.92955 0.37486 0.0
O1231 O 0.56876 0.95341 0.24935 0.0
C1232 C 0.40094 0.90576 0.27335 0.0
C1233 C 0.35462 0.73467 0.36058 0.0
C1234 C 0.3113 0.66377 0.39133 0.0
C1235 C 0.31591 0.71431 0.38621 0.0
C1236 C 0.3477 0.63615 0.37398 0.0
C1237 C 0.38494 0.70323 0.33834 0.0
C1238 C 0.38366 0.65559 0.34796 0.0
C1239 C 0.41206 0.96664 0.36025 0.0
C1240 C 0.3623 0.78702 0.35136 0.0
C1241 C 0.4632 0.71156 0.52599 0.0
C1242 C 0.45152 0.75641 0.5571 0.0
C1243 C 0.53409 0.88528 0.38338 0.0
C1244 C 0.63791 0.99356 0.27643 0.0
C1245 C 0.67592 0.99556 0.24317 0.0
C1246 C 0.70965 0.03306 0.24472 0.0
C1247 C 0.70426 0.067 0.28028 0.0
C1248 C 0.63475 0.02906 0.31008 0.0
C1249 C 0.66796 0.0647 0.31246 0.0
C1250 C 0.49926 0.82884 0.25041 0.0
C1251 C 0.60278 0.95397 0.27915 0.0
H1252 H 0.28883 0.73713 0.39996 0.0
H1253 H 0.34658 0.59877 0.37677 0.0
H1254 H 0.40973 0.71527 0.31252 0.0
H1255 H 0.40999 0.63313 0.33376 0.0
H1256 H 0.67924 0.96834 0.21689 0.0
H1257 H 0.72837 0.09615 0.28382 0.0
H1258 H 0.60725 0.02795 0.33611 0.0
H1259 H 0.666 0.09102 0.33963 0.0
Eu1260 Eu 0.10723 0.18881 0.84603 0.0
C1261 C 0.04899 1.00456 0.76644 0.0
C1262 C 0.05566 1.01196 0.66078 0.0
C1263 C 0.06993 0.9064 0.69179 0.0
C1264 C 0.04921 0.03745 0.71587 0.0
C1265 C 0.06188 0.9183 0.75184 0.0
C1266 C 0.06607 0.95127 0.64946 0.0
C1267 C 0.05451 0.90212 0.84553 0.0
N1268 N 0.0422 0.02362 0.8136 0.0
C1269 C 0.04215 0.99225 0.85702 0.0
C1270 C 0.06141 0.88222 0.79351 0.0
Eu1271 Eu 0.02739 0.10595 0.79976 0.0
N1272 N 0.04026 0.08329 0.71939 0.0
C1273 C 0.0303 0.10812 0.67924 0.0
C1274 C 0.042 0.04121 0.62474 0.0
C1275 C 0.0301 0.08803 0.63395 0.0
H1276 H 0.03693 1.01247 0.88943 0.0
H1277 H 0.02011 0.11001 0.6046 0.0
H1278 H 0.07427 0.94199 0.61453 0.0
H1279 H 0.05893 0.87441 0.87128 0.0
H1280 H 1.01908 0.14401 0.68129 0.0
H1281 H 0.11046 0.09483 0.03836 0.0
H1282 H 0.04058 0.02803 0.58914 0.0
H1283 H 0.04634 0.28552 0.80078 0.0
H1284 H 0.09632 0.09396 0.94336 0.0
H1285 H 0.04391 0.3632 0.82388 0.0
H1286 H 0.07803 0.87131 0.68059 0.0
H1287 H 0.11003 0.17535 0.0947 0.0
H1288 H 0.09151 0.28564 0.09438 0.0
H1289 H 0.06676 0.84516 0.78723 0.0
H1290 H 0.07492 0.35898 0.04924 0.0
N1291 N 0.08701 0.17431 0.92672 0.0
C1292 C 0.09588 0.12802 0.95936 0.0
C1293 C 0.10316 0.17894 0.05777 0.0
C1294 C 0.0923 0.23481 0.03258 0.0
C1295 C 0.10441 0.12823 0.02163 0.0
C1296 C 0.08118 0.22663 0.94457 0.0
H1297 H 0.04922 0.38938 0.90058 0.0
N1298 N 0.06514 0.25803 0.86743 0.0
C1299 C 0.04728 0.33749 0.85124 0.0
C1300 C 0.0696 0.26803 0.91317 0.0
C1301 C 0.05038 0.29151 0.83741 0.0
C1302 C 0.05306 0.35189 0.89747 0.0
C1303 C 0.06407 0.31997 0.93603 0.0
O1304 O 0.15365 0.24167 0.81409 0.0
O1305 O 0.09569 0.14598 0.78178 0.0
O1306 O 0.09206 0.06313 0.83094 0.0
O1307 O 0.13663 0.11755 0.8728 0.0
O1308 O 0.16245 0.14434 0.81068 0.0
O1309 O 0.16481 0.22501 0.88513 0.0
O1310 O 0.95301 0.09744 0.82029 0.0
O1311 O 0.02903 0.17068 0.84809 0.0
O1312 O 0.07892 0.21734 0.77623 0.0
O1313 O 1.01315 0.17405 0.75748 0.0
O1314 O 1.00043 0.11022 0.87486 0.0
O1315 O 0.971 0.08636 0.74935 0.0
C1316 C 0.13882 0.134 0.77335 0.0
C1317 C 0.18515 0.30509 0.86058 0.0
C1318 C 0.22846 0.376 0.89134 0.0
C1319 C 0.22386 0.32546 0.88621 0.0
C1320 C 0.19207 0.40362 0.87398 0.0
C1321 C 0.15483 0.33654 0.83834 0.0
C1322 C 0.15611 0.38417 0.84796 0.0
C1323 C 0.12771 0.07312 0.86025 0.0
C1324 C 0.17747 0.25275 0.85136 0.0
C1325 C 0.07656 0.32821 0.02599 0.0
C1326 C 0.08825 0.28335 0.0571 0.0
C1327 C 1.00567 0.15449 0.88338 0.0
C1328 C 0.90186 0.0462 0.77643 0.0
C1329 C 0.86385 0.0442 0.74317 0.0
C1330 C 0.83011 1.0067 0.74472 0.0
C1331 C 0.83551 0.97277 0.78028 0.0
C1332 C 0.90501 1.01071 0.81008 0.0
C1333 C 0.8718 0.97507 0.81246 0.0
C1334 C 0.0405 0.21093 0.75041 0.0
C1335 C 0.93699 0.08579 0.77915 0.0
H1336 H 0.25094 0.30264 0.89996 0.0
H1337 H 0.19319 0.441 0.87677 0.0
H1338 H 0.13004 0.3245 0.81252 0.0
H1339 H 0.12978 0.40663 0.83376 0.0
H1340 H 0.86052 0.07143 0.71689 0.0
H1341 H 0.8114 0.94361 0.78382 0.0
H1342 H 0.93251 1.01182 0.83611 0.0
H1343 H 0.87376 0.94875 0.83963 0.0
Eu1344 Eu 0.69374 0.93254 0.68881 0.0
C1345 C 0.77332 0.99077 0.50456 0.0
C1346 C 0.87898 0.9841 0.51196 0.0
C1347 C 0.84798 0.96983 0.4064 0.0
C1348 C 0.82389 0.99055 0.53745 0.0
C1349 C 0.78793 0.97788 0.4183 0.0
C1350 C 0.89031 0.9737 0.45127 0.0
C1351 C 0.69424 0.98526 0.40213 0.0
N1352 N 0.72616 0.99756 0.52362 0.0
C1353 C 0.68275 0.99761 0.49225 0.0
C1354 C 0.74626 0.97836 0.38222 0.0
Eu1355 Eu 0.74001 1.01237 0.60596 0.0
N1356 N 0.82037 0.9995 0.58329 0.0
C1357 C 0.86053 1.00946 0.60812 0.0
C1358 C 0.91503 0.99777 0.54121 0.0
C1359 C 0.90582 1.00966 0.58803 0.0
H1360 H 0.65034 1.00283 0.51248 0.0
H1361 H 0.93517 1.01965 0.61001 0.0
H1362 H 0.92523 0.96549 0.44199 0.0
H1363 H 0.66848 0.98084 0.37441 0.0
H1364 H 0.85848 0.02068 0.64401 0.0
H1365 H 0.5014 0.9293 0.59483 0.0
H1366 H 0.95063 0.99919 0.52803 0.0
H1367 H 0.73898 0.99342 0.78552 0.0
H1368 H 0.59641 0.94344 0.59396 0.0
H1369 H 0.71588 0.99585 0.8632 0.0
H1370 H 0.85918 0.96174 0.37131 0.0
H1371 H 0.44506 0.92972 0.67535 0.0
H1372 H 0.44539 0.94824 0.78565 0.0
H1373 H 0.75254 0.97301 0.34516 0.0
H1374 H 0.49053 0.96484 0.85898 0.0
N1375 N 0.61304 0.95275 0.67431 0.0
C1376 C 0.5804 0.94389 0.62802 0.0
C1377 C 0.48199 0.93659 0.67894 0.0
C1378 C 0.50718 0.94746 0.73481 0.0
C1379 C 0.51814 0.93535 0.62823 0.0
C1380 C 0.5952 0.95858 0.72663 0.0
H1381 H 0.63917 0.99054 0.88938 0.0
N1382 N 0.67233 0.97462 0.75803 0.0
C1383 C 0.68852 0.99248 0.83749 0.0
C1384 C 0.62659 0.97017 0.76803 0.0
C1385 C 0.70235 0.98938 0.79151 0.0
C1386 C 0.64229 0.9867 0.85189 0.0
C1387 C 0.60373 0.9757 0.81997 0.0
O1388 O 0.72568 0.88612 0.74168 0.0
O1389 O 0.75801 0.94408 0.646 0.0
O1390 O 0.70883 0.9477 0.56313 0.0
O1391 O 0.66696 0.90314 0.61755 0.0
O1392 O 0.72904 0.87726 0.64435 0.0
O1393 O 0.65464 0.87496 0.72502 0.0
O1394 O 0.71948 0.08676 0.59745 0.0
O1395 O 0.69167 1.01073 0.67067 0.0
O1396 O 0.76353 0.96085 0.71734 0.0
O1397 O 0.78229 0.02662 0.67406 0.0
O1398 O 0.66491 0.03933 0.61021 0.0
O1399 O 0.79042 0.06876 0.58635 0.0
C1400 C 0.76636 0.90093 0.63406 0.0
C1401 C 0.67919 0.85462 0.8051 0.0
C1402 C 0.64843 0.81131 0.876 0.0
C1403 C 0.65356 0.81591 0.82546 0.0
C1404 C 0.66579 0.8477 0.90362 0.0
C1405 C 0.70143 0.88494 0.83655 0.0
C1406 C 0.69181 0.88366 0.88418 0.0
C1407 C 0.67952 0.91206 0.57312 0.0
C1408 C 0.68841 0.8623 0.75276 0.0
C1409 C 0.51377 0.9632 0.82821 0.0
C1410 C 0.48266 0.95151 0.78335 0.0
C1411 C 0.65638 0.03409 0.65449 0.0
C1412 C 0.76334 0.13791 0.54621 0.0
C1413 C 0.7966 0.17592 0.54421 0.0
C1414 C 0.79505 0.20965 0.50671 0.0
C1415 C 0.75948 0.20426 0.47278 0.0
C1416 C 0.72969 0.13475 0.51071 0.0
C1417 C 0.7273 0.16796 0.47508 0.0
C1418 C 0.78935 0.99927 0.71094 0.0
C1419 C 0.76062 0.10278 0.5858 0.0
H1420 H 0.63981 0.78883 0.80264 0.0
H1421 H 0.663 0.84658 0.94101 0.0
H1422 H 0.72726 0.90973 0.82451 0.0
H1423 H 0.70601 0.90999 0.90664 0.0
H1424 H 0.82288 0.17924 0.57143 0.0
H1425 H 0.75594 0.22836 0.44362 0.0
H1426 H 0.70366 0.10725 0.51183 0.0
H1427 H 0.70014 0.166 0.44876 0.0
Eu1428 Eu 0.84603 0.10723 0.18881 0.0
C1429 C 0.76644 0.049 1.00456 0.0
C1430 C 0.66078 0.05566 1.01196 0.0
C1431 C 0.69179 0.06993 0.9064 0.0
C1432 C 0.71587 0.04922 0.03745 0.0
C1433 C 0.75184 0.06188 0.9183 0.0
C1434 C 0.64946 0.06607 0.95127 0.0
C1435 C 0.84553 0.05451 0.90213 0.0
N1436 N 0.8136 0.0422 0.02362 0.0
C1437 C 0.85702 0.04215 0.99225 0.0
C1438 C 0.79351 0.0614 0.88222 0.0
Eu1439 Eu 0.79975 0.0274 0.10596 0.0
N1440 N 0.71939 0.04026 0.08329 0.0
C1441 C 0.67924 0.0303 0.10812 0.0
C1442 C 0.62474 0.042 0.04121 0.0
C1443 C 0.63394 0.03011 0.08803 0.0
H1444 H 0.88943 0.03694 1.01248 0.0
H1445 H 0.6046 0.02012 0.11001 0.0
H1446 H 0.61453 0.07427 0.94199 0.0
H1447 H 0.87128 0.05893 0.87441 0.0
H1448 H 0.68129 1.01909 0.14401 0.0
H1449 H 0.03836 0.11047 0.09483 0.0
H1450 H 0.58914 0.04058 0.02803 0.0
H1451 H 0.80078 0.04635 0.28552 0.0
H1452 H 0.94336 0.09632 0.09397 0.0
H1453 H 0.82388 0.04391 0.3632 0.0
H1454 H 0.68058 0.07803 0.87131 0.0
H1455 H 0.0947 0.11004 0.17535 0.0
H1456 H 0.09438 0.09153 0.28565 0.0
H1457 H 0.78723 0.06676 0.84516 0.0
H1458 H 0.04924 0.07493 0.35898 0.0
N1459 N 0.92672 0.08702 0.17431 0.0
C1460 C 0.95936 0.09588 0.12802 0.0
C1461 C 0.05778 0.10317 0.17894 0.0
C1462 C 0.03259 0.09231 0.23481 0.0
C1463 C 0.02163 0.10441 0.12823 0.0
C1464 C 0.94457 0.08119 0.22663 0.0
H1465 H 0.90059 0.04922 0.38938 0.0
N1466 N 0.86743 0.06515 0.25803 0.0
C1467 C 0.85125 0.04728 0.33749 0.0
C1468 C 0.91317 0.0696 0.26803 0.0
C1469 C 0.83742 0.05039 0.29151 0.0
C1470 C 0.89748 0.05306 0.35189 0.0
C1471 C 0.93603 0.06407 0.31997 0.0
O1472 O 0.81409 0.15365 0.24168 0.0
O1473 O 0.78176 0.09569 0.146 0.0
O1474 O 0.83093 0.09207 0.06313 0.0
O1475 O 0.8728 0.13663 0.11755 0.0
O1476 O 0.81072 0.1625 0.14435 0.0
O1477 O 0.88513 0.16481 0.22502 0.0
O1478 O 0.82028 0.95301 0.09745 0.0
O1479 O 0.84809 0.02904 0.17067 0.0
O1480 O 0.77623 0.07892 0.21734 0.0
O1481 O 0.75748 1.01314 0.17406 0.0
O1482 O 0.87486 1.00044 0.11021 0.0
O1483 O 0.74935 0.97101 0.08635 0.0
C1484 C 0.77341 0.13884 0.13406 0.0
C1485 C 0.86058 0.18515 0.3051 0.0
C1486 C 0.89133 0.22846 0.376 0.0
C1487 C 0.8862 0.22386 0.32546 0.0
C1488 C 0.87397 0.19207 0.40362 0.0
C1489 C 0.83834 0.15482 0.33655 0.0
C1490 C 0.84795 0.15611 0.38418 0.0
C1491 C 0.86025 0.12771 0.07312 0.0
C1492 C 0.85135 0.17746 0.25276 0.0
C1493 C 0.02599 0.07657 0.32821 0.0
C1494 C 0.05711 0.08826 0.28335 0.0
C1495 C 0.88338 1.00568 0.15449 0.0
C1496 C 0.77643 0.90186 0.04621 0.0
C1497 C 0.74317 0.86385 0.04421 0.0
C1498 C 0.74472 0.83012 1.00671 0.0
C1499 C 0.78028 0.83551 0.97278 0.0
C1500 C 0.81008 0.90501 1.01071 0.0
C1501 C 0.81246 0.87181 0.97508 0.0
C1502 C 0.75042 0.0405 0.21094 0.0
C1503 C 0.77914 0.93699 0.0858 0.0
H1504 H 0.89996 0.25093 0.30264 0.0
H1505 H 0.87677 0.19319 0.44101 0.0
H1506 H 0.81251 0.13004 0.32451 0.0
H1507 H 0.83375 0.12978 0.40664 0.0
H1508 H 0.71689 0.86052 0.07143 0.0
H1509 H 0.78382 0.8114 0.94362 0.0
H1510 H 0.83611 0.93252 1.01183 0.0
H1511 H 0.83963 0.87376 0.94876 0.0
Eu1512 Eu 0.19374 0.60723 0.35096 0.0
C1513 C 0.27332 0.549 0.5352 0.0
C1514 C 0.37898 0.55566 0.5278 0.0
C1515 C 0.34798 0.56993 0.63336 0.0
C1516 C 0.32389 0.54922 0.50231 0.0
C1517 C 0.28793 0.56188 0.62146 0.0
C1518 C 0.39031 0.56607 0.5885 0.0
C1519 C 0.19424 0.55451 0.63764 0.0
N1520 N 0.22616 0.5422 0.51614 0.0
C1521 C 0.18275 0.54215 0.54751 0.0
C1522 C 0.24626 0.5614 0.65754 0.0
Eu1523 Eu 0.24001 0.5274 0.43381 0.0
N1524 N 0.32037 0.54026 0.45647 0.0
C1525 C 0.36053 0.5303 0.43164 0.0
C1526 C 0.41503 0.542 0.49855 0.0
C1527 C 0.40582 0.53011 0.45174 0.0
H1528 H 0.15034 0.53694 0.52729 0.0
H1529 H 0.43517 0.52012 0.42975 0.0
H1530 H 0.42523 0.57427 0.59777 0.0
H1531 H 0.16848 0.55893 0.66535 0.0
H1532 H 0.35848 0.51909 0.39576 0.0
H1533 H 1.0014 0.61047 0.44493 0.0
H1534 H 0.45063 0.54058 0.51173 0.0
H1535 H 0.23898 0.54635 0.25424 0.0
H1536 H 0.09641 0.59632 0.4458 0.0
H1537 H 0.21588 0.54391 0.17656 0.0
H1538 H 0.35918 0.57803 0.66845 0.0
H1539 H 0.94506 0.61004 0.36442 0.0
H1540 H 0.94539 0.59153 0.25412 0.0
H1541 H 0.25254 0.56676 0.6946 0.0
H1542 H 0.99053 0.57493 0.18079 0.0
N1543 N 0.11304 0.58702 0.36545 0.0
C1544 C 0.0804 0.59588 0.41174 0.0
C1545 C 0.98199 0.60317 0.36082 0.0
C1546 C 1.00718 0.59231 0.30496 0.0
C1547 C 1.01814 0.60442 0.41153 0.0
C1548 C 0.0952 0.58119 0.31313 0.0
H1549 H 0.13918 0.54922 0.15039 0.0
N1550 N 0.17233 0.56515 0.28173 0.0
C1551 C 0.18852 0.54728 0.20227 0.0
C1552 C 0.12659 0.5696 0.27173 0.0
C1553 C 0.20235 0.55039 0.24825 0.0
C1554 C 0.14229 0.55306 0.18788 0.0
C1555 C 0.10373 0.56407 0.2198 0.0
O1556 O 0.22568 0.65365 0.29809 0.0
O1557 O 0.258 0.59569 0.39376 0.0
O1558 O 0.20883 0.59207 0.47664 0.0
O1559 O 0.16696 0.63663 0.42221 0.0
O1560 O 0.22904 0.6625 0.39542 0.0
O1561 O 0.15464 0.66481 0.31474 0.0
O1562 O 0.21948 0.45301 0.44231 0.0
O1563 O 0.19167 0.52904 0.36909 0.0
O1564 O 0.26353 0.57892 0.32242 0.0
O1565 O 0.28229 0.51314 0.36571 0.0
O1566 O 0.16491 0.50044 0.42955 0.0
O1567 O 0.29042 0.47101 0.45341 0.0
C1568 C 0.26636 0.63884 0.4057 0.0
C1569 C 0.17919 0.68515 0.23466 0.0
C1570 C 0.14843 0.72846 0.16376 0.0
C1571 C 0.15356 0.72386 0.2143 0.0
C1572 C 0.16579 0.69207 0.13614 0.0
C1573 C 0.20143 0.65483 0.20322 0.0
C1574 C 0.19181 0.65611 0.15558 0.0
C1575 C 0.17952 0.62771 0.46664 0.0
C1576 C 0.18841 0.67746 0.28701 0.0
C1577 C 1.01377 0.57657 0.21155 0.0
C1578 C 0.98266 0.58826 0.25641 0.0
C1579 C 0.15638 0.50568 0.38528 0.0
C1580 C 0.26334 0.40186 0.49355 0.0
C1581 C 0.2966 0.36385 0.49556 0.0
C1582 C 0.29505 0.33012 0.53305 0.0
C1583 C 0.25948 0.33551 0.56699 0.0
C1584 C 0.22969 0.40501 0.52905 0.0
C1585 C 0.2273 0.37181 0.56469 0.0
C1586 C 0.28935 0.5405 0.32883 0.0
C1587 C 0.26062 0.43699 0.45397 0.0
H1588 H 0.13981 0.75093 0.23712 0.0
H1589 H 0.163 0.69319 0.09876 0.0
H1590 H 0.22726 0.63004 0.21526 0.0
H1591 H 0.20601 0.62978 0.13312 0.0
H1592 H 0.32288 0.36052 0.46833 0.0
H1593 H 0.25594 0.3114 0.59614 0.0
H1594 H 0.20366 0.43252 0.52794 0.0
H1595 H 0.20014 0.37376 0.591 0.0
Eu1596 Eu 0.34603 0.43254 0.85096 0.0
C1597 C 0.26644 0.49077 0.0352 0.0
C1598 C 0.16078 0.4841 0.0278 0.0
C1599 C 0.19179 0.46983 0.13336 0.0
C1600 C 0.21587 0.49055 1.00231 0.0
C1601 C 0.25184 0.47788 0.12146 0.0
C1602 C 0.14946 0.4737 0.0885 0.0
C1603 C 0.34553 0.48526 0.13764 0.0
N1604 N 0.3136 0.49756 1.01614 0.0
C1605 C 0.35702 0.49761 0.04751 0.0
C1606 C 0.29351 0.47836 0.15754 0.0
Eu1607 Eu 0.29975 0.51237 0.93381 0.0
N1608 N 0.21939 0.4995 0.95647 0.0
C1609 C 0.17924 0.50946 0.93164 0.0
C1610 C 0.12474 0.49777 0.99855 0.0
C1611 C 0.13394 0.50966 0.95174 0.0
H1612 H 0.38943 0.50283 0.02729 0.0
H1613 H 0.1046 0.51965 0.92975 0.0
H1614 H 0.11453 0.46549 0.09777 0.0
H1615 H 0.37128 0.48084 0.16535 0.0
H1616 H 0.18129 0.52068 0.89576 0.0
H1617 H 0.53836 0.4293 0.94493 0.0
H1618 H 0.08914 0.49919 1.01173 0.0
H1619 H 0.30078 0.49342 0.75424 0.0
H1620 H 0.44336 0.44344 0.9458 0.0
H1621 H 0.32388 0.49585 0.67656 0.0
H1622 H 0.18058 0.46174 0.16845 0.0
H1623 H 0.5947 0.42972 0.86442 0.0
H1624 H 0.59438 0.44824 0.75412 0.0
H1625 H 0.28723 0.47301 0.1946 0.0
H1626 H 0.54924 0.46484 0.68079 0.0
N1627 N 0.42672 0.45275 0.86545 0.0
C1628 C 0.45936 0.44389 0.91174 0.0
C1629 C 0.55778 0.43659 0.86082 0.0
C1630 C 0.53259 0.44746 0.80496 0.0
C1631 C 0.52163 0.43535 0.91153 0.0
C1632 C 0.44457 0.45858 0.81313 0.0
H1633 H 0.40059 0.49054 0.65039 0.0
N1634 N 0.36743 0.47462 0.78173 0.0
C1635 C 0.35125 0.49248 0.70227 0.0
C1636 C 0.41317 0.47017 0.77173 0.0
C1637 C 0.33742 0.48938 0.74825 0.0
C1638 C 0.39748 0.4867 0.68788 0.0
C1639 C 0.43603 0.4757 0.7198 0.0
O1640 O 0.31409 0.38612 0.79809 0.0
O1641 O 0.28176 0.44408 0.89376 0.0
O1642 O 0.33093 0.4477 0.97664 0.0
O1643 O 0.3728 0.40314 0.92221 0.0
O1644 O 0.31072 0.37726 0.89542 0.0
O1645 O 0.38513 0.37496 0.81474 0.0
O1646 O 0.32028 0.58676 0.94231 0.0
O1647 O 0.34809 0.51073 0.86909 0.0
O1648 O 0.27623 0.46085 0.82242 0.0
O1649 O 0.25748 0.52662 0.86571 0.0
O1650 O 0.37486 0.53933 0.92955 0.0
O1651 O 0.24935 0.56876 0.95341 0.0
C1652 C 0.27341 0.40093 0.9057 0.0
C1653 C 0.36058 0.35462 0.73466 0.0
C1654 C 0.39133 0.31131 0.66376 0.0
C1655 C 0.3862 0.31591 0.7143 0.0
C1656 C 0.37397 0.3477 0.63614 0.0
C1657 C 0.33834 0.38494 0.70322 0.0
C1658 C 0.34795 0.38366 0.65558 0.0
C1659 C 0.36025 0.41206 0.96664 0.0
C1660 C 0.35135 0.3623 0.78701 0.0
C1661 C 0.52599 0.4632 0.71155 0.0
C1662 C 0.55711 0.45151 0.75641 0.0
C1663 C 0.38338 0.53409 0.88528 0.0
C1664 C 0.27643 0.63791 0.99355 0.0
C1665 C 0.24317 0.67592 0.99556 0.0
C1666 C 0.24472 0.70965 0.03305 0.0
C1667 C 0.28028 0.70426 0.06699 0.0
C1668 C 0.31008 0.63475 0.02905 0.0
C1669 C 0.31246 0.66796 0.06469 0.0
C1670 C 0.25042 0.49927 0.82883 0.0
C1671 C 0.27914 0.60278 0.95397 0.0
H1672 H 0.39996 0.28883 0.73712 0.0
H1673 H 0.37677 0.34658 0.59876 0.0
H1674 H 0.31251 0.40973 0.71526 0.0
H1675 H 0.33375 0.40999 0.63312 0.0
H1676 H 0.21689 0.67924 0.96833 0.0
H1677 H 0.28382 0.72836 0.09614 0.0
H1678 H 0.33611 0.60725 0.02794 0.0
H1679 H 0.33963 0.666 0.091 0.0
Eu1680 Eu 0.68881 0.69374 0.93254 0.0
C1681 C 0.50456 0.77332 0.99076 0.0
C1682 C 0.51196 0.87898 0.9841 0.0
C1683 C 0.4064 0.84797 0.96983 0.0
C1684 C 0.53745 0.82389 0.99054 0.0
C1685 C 0.4183 0.78792 0.97788 0.0
C1686 C 0.45127 0.8903 0.97369 0.0
C1687 C 0.40213 0.69423 0.98526 0.0
N1688 N 0.52362 0.72616 0.99756 0.0
C1689 C 0.49225 0.68274 0.99761 0.0
C1690 C 0.38222 0.74625 0.97836 0.0
Eu1691 Eu 0.60596 0.74001 1.01237 0.0
N1692 N 0.58329 0.82037 0.9995 0.0
C1693 C 0.60812 0.86052 1.00947 0.0
C1694 C 0.54121 0.91503 0.99776 0.0
C1695 C 0.58802 0.90582 1.00966 0.0
H1696 H 0.51248 0.65033 1.00283 0.0
H1697 H 0.61001 0.93517 1.01965 0.0
H1698 H 0.44199 0.92523 0.96549 0.0
H1699 H 0.37441 0.66848 0.98083 0.0
H1700 H 0.64401 0.85848 0.02068 0.0
H1701 H 0.59483 0.5014 0.9293 0.0
H1702 H 0.52803 0.95062 0.99919 0.0
H1703 H 0.78553 0.73899 0.99341 0.0
H1704 H 0.59397 0.59641 0.94344 0.0
H1705 H 0.86321 0.71588 0.99584 0.0
H1706 H 0.37131 0.85917 0.96174 0.0
H1707 H 0.67535 0.44506 0.92973 0.0
H1708 H 0.78565 0.44539 0.94825 0.0
H1709 H 0.34517 0.75253 0.973 0.0
H1710 H 0.85898 0.49053 0.96484 0.0
N1711 N 0.67431 0.61304 0.95275 0.0
C1712 C 0.62803 0.5804 0.94389 0.0
C1713 C 0.67895 0.48199 0.9366 0.0
C1714 C 0.73481 0.50718 0.94747 0.0
C1715 C 0.62823 0.51814 0.93536 0.0
C1716 C 0.72663 0.5952 0.95858 0.0
H1717 H 0.88938 0.63918 0.99054 0.0
N1718 N 0.75804 0.67234 0.97462 0.0
C1719 C 0.8375 0.68852 0.99247 0.0
C1720 C 0.76803 0.6266 0.97017 0.0
C1721 C 0.79152 0.70235 0.98937 0.0
C1722 C 0.85189 0.64229 0.9867 0.0
C1723 C 0.81997 0.60373 0.9757 0.0
O1724 O 0.74167 0.72568 0.88611 0.0
O1725 O 0.646 0.75801 0.94408 0.0
O1726 O 0.56313 0.70883 0.9477 0.0
O1727 O 0.61755 0.66696 0.90314 0.0
O1728 O 0.64435 0.72905 0.87727 0.0
O1729 O 0.72502 0.65464 0.87497 0.0
O1730 O 0.59745 0.71948 0.08676 0.0
O1731 O 0.67068 0.69168 1.01073 0.0
O1732 O 0.71734 0.76353 0.96085 0.0
O1733 O 0.67406 0.78229 0.02663 0.0
O1734 O 0.61022 0.66491 0.03933 0.0
O1735 O 0.58635 0.79042 0.06876 0.0
C1736 C 0.63406 0.76636 0.90093 0.0
C1737 C 0.8051 0.6792 0.85462 0.0
C1738 C 0.87601 0.64844 0.81133 0.0
C1739 C 0.82546 0.65355 0.81593 0.0
C1740 C 0.90362 0.66581 0.84771 0.0
C1741 C 0.83654 0.70146 0.88494 0.0
C1742 C 0.88418 0.69185 0.88366 0.0
C1743 C 0.57312 0.67952 0.91206 0.0
C1744 C 0.75275 0.68841 0.8623 0.0
C1745 C 0.82822 0.51377 0.9632 0.0
C1746 C 0.78336 0.48266 0.95151 0.0
C1747 C 0.65449 0.65638 0.03409 0.0
C1748 C 0.5462 0.76334 0.13791 0.0
C1749 C 0.5442 0.7966 0.17592 0.0
C1750 C 0.5067 0.79505 0.20965 0.0
C1751 C 0.47277 0.75949 0.20426 0.0
C1752 C 0.51071 0.72969 0.13475 0.0
C1753 C 0.47507 0.7273 0.16796 0.0
C1754 C 0.71094 0.78935 0.99928 0.0
C1755 C 0.58579 0.76062 0.10278 0.0
H1756 H 0.80265 0.63977 0.78886 0.0
H1757 H 0.94101 0.66301 0.8466 0.0
H1758 H 0.8245 0.72729 0.90972 0.0
H1759 H 0.90663 0.70606 0.90998 0.0
H1760 H 0.57142 0.82288 0.17924 0.0
H1761 H 0.44361 0.75595 0.22836 0.0
H1762 H 0.51182 0.70366 0.10725 0.0
H1763 H 0.44875 0.70014 0.166 0.0
Eu1764 Eu 0.18881 0.84603 0.10723 0.0
C1765 C 1.00456 0.76645 0.049 0.0
C1766 C 1.01196 0.66079 0.05567 0.0
C1767 C 0.9064 0.69179 0.06993 0.0
C1768 C 0.03745 0.71588 0.04922 0.0
C1769 C 0.9183 0.75185 0.06188 0.0
C1770 C 0.95127 0.64946 0.06607 0.0
C1771 C 0.90213 0.84553 0.0545 0.0
N1772 N 0.02362 0.81361 0.0422 0.0
C1773 C 0.99225 0.85702 0.04215 0.0
C1774 C 0.88222 0.79352 0.0614 0.0
Eu1775 Eu 0.10596 0.79976 0.02739 0.0
N1776 N 0.08329 0.7194 0.04026 0.0
C1777 C 0.10812 0.67924 0.0303 0.0
C1778 C 0.04121 0.62474 0.042 0.0
C1779 C 0.08803 0.63395 0.0301 0.0
H1780 H 1.01248 0.88943 0.03694 0.0
H1781 H 0.11001 0.6046 0.02011 0.0
H1782 H 0.94199 0.61454 0.07427 0.0
H1783 H 0.87441 0.87129 0.05893 0.0
H1784 H 0.14401 0.68129 1.01908 0.0
H1785 H 0.09484 0.03836 0.11046 0.0
H1786 H 0.02803 0.58914 0.04058 0.0
H1787 H 0.28553 0.80078 0.04636 0.0
H1788 H 0.09397 0.94336 0.09632 0.0
H1789 H 0.36321 0.82388 0.04392 0.0
H1790 H 0.87131 0.68059 0.07803 0.0
H1791 H 0.17535 0.0947 0.11003 0.0
H1792 H 0.28565 0.09438 0.09152 0.0
H1793 H 0.84517 0.78724 0.06676 0.0
H1794 H 0.35898 0.04924 0.07492 0.0
N1795 N 0.17431 0.92672 0.08701 0.0
C1796 C 0.12803 0.95936 0.09587 0.0
C1797 C 0.17895 0.05778 0.10316 0.0
C1798 C 0.23481 0.03259 0.0923 0.0
C1799 C 0.12823 0.02163 0.10441 0.0
C1800 C 0.22663 0.94457 0.08118 0.0
H1801 H 0.38938 0.90059 0.04922 0.0
N1802 N 0.25804 0.86743 0.06515 0.0
C1803 C 0.3375 0.85124 0.04729 0.0
C1804 C 0.26803 0.91317 0.0696 0.0
C1805 C 0.29152 0.83741 0.05039 0.0
C1806 C 0.35189 0.89747 0.05306 0.0
C1807 C 0.31997 0.93603 0.06407 0.0
O1808 O 0.24167 0.81409 0.15365 0.0
O1809 O 0.146 0.78176 0.09568 0.0
O1810 O 0.06313 0.83094 0.09206 0.0
O1811 O 0.11755 0.8728 0.13662 0.0
O1812 O 0.14435 0.81072 0.1625 0.0
O1813 O 0.22502 0.88513 0.1648 0.0
O1814 O 0.09745 0.82029 0.953 0.0
O1815 O 0.17068 0.84809 0.02903 0.0
O1816 O 0.21734 0.77623 0.07891 0.0
O1817 O 0.17406 0.75748 1.01314 0.0
O1818 O 0.11022 0.87486 1.00043 0.0
O1819 O 0.08635 0.74935 0.97101 0.0
C1820 C 0.13406 0.77341 0.13883 0.0
C1821 C 0.3051 0.86057 0.18514 0.0
C1822 C 0.37601 0.89133 0.22843 0.0
C1823 C 0.32546 0.88621 0.22384 0.0
C1824 C 0.40362 0.87396 0.19205 0.0
C1825 C 0.33654 0.83831 0.15483 0.0
C1826 C 0.38418 0.84792 0.1561 0.0
C1827 C 0.07312 0.86025 0.1277 0.0
C1828 C 0.25275 0.85135 0.17746 0.0
C1829 C 0.32822 0.02599 0.07656 0.0
C1830 C 0.28336 0.05711 0.08825 0.0
C1831 C 0.15449 0.88339 1.00568 0.0
C1832 C 0.0462 0.77643 0.90186 0.0
C1833 C 0.0442 0.74317 0.86385 0.0
C1834 C 1.0067 0.74472 0.83012 0.0
C1835 C 0.97277 0.78028 0.83551 0.0
C1836 C 1.01071 0.81008 0.90501 0.0
C1837 C 0.97507 0.81246 0.8718 0.0
C1838 C 0.21094 0.75042 0.04049 0.0
C1839 C 0.08579 0.77915 0.93699 0.0
H1840 H 0.30265 0.89999 0.2509 0.0
H1841 H 0.44101 0.87676 0.19316 0.0
H1842 H 0.3245 0.81248 0.13005 0.0
H1843 H 0.40663 0.83371 0.12978 0.0
H1844 H 0.07142 0.71688 0.86052 0.0
H1845 H 0.94361 0.78382 0.8114 0.0
H1846 H 1.01182 0.83611 0.93251 0.0
H1847 H 0.94875 0.83963 0.87376 0.0
Eu1848 Eu 0.35096 0.19374 0.60723 0.0
C1849 C 0.5352 0.27332 0.549 0.0
C1850 C 0.52781 0.37898 0.55567 0.0
C1851 C 0.63336 0.34797 0.56993 0.0
C1852 C 0.50232 0.32389 0.54922 0.0
C1853 C 0.62146 0.28792 0.56188 0.0
C1854 C 0.5885 0.3903 0.56607 0.0
C1855 C 0.63764 0.19423 0.55451 0.0
N1856 N 0.51614 0.22616 0.5422 0.0
C1857 C 0.54751 0.18274 0.54215 0.0
C1858 C 0.65754 0.24625 0.5614 0.0
Eu1859 Eu 0.43381 0.24001 0.52739 0.0
N1860 N 0.45647 0.32037 0.54026 0.0
C1861 C 0.43165 0.36052 0.5303 0.0
C1862 C 0.49856 0.41503 0.542 0.0
C1863 C 0.45174 0.40582 0.5301 0.0
H1864 H 0.52729 0.15033 0.53694 0.0
H1865 H 0.42976 0.43517 0.52011 0.0
H1866 H 0.59777 0.42523 0.57427 0.0
H1867 H 0.66535 0.16848 0.55893 0.0
H1868 H 0.39576 0.35848 0.51908 0.0
H1869 H 0.44493 1.0014 0.61046 0.0
H1870 H 0.51174 0.45062 0.54058 0.0
H1871 H 0.25424 0.23899 0.54636 0.0
H1872 H 0.4458 0.09641 0.59632 0.0
H1873 H 0.17655 0.21588 0.54392 0.0
H1874 H 0.66845 0.35917 0.57803 0.0
H1875 H 0.36441 0.94506 0.61003 0.0
H1876 H 0.25412 0.94539 0.59152 0.0
H1877 H 0.6946 0.25253 0.56676 0.0
H1878 H 0.18078 0.99053 0.57492 0.0
N1879 N 0.36545 0.11304 0.58701 0.0
C1880 C 0.41174 0.0804 0.59587 0.0
C1881 C 0.36082 0.98199 0.60316 0.0
C1882 C 0.30495 1.00718 0.5923 0.0
C1883 C 0.41153 1.01814 0.60441 0.0
C1884 C 0.31313 0.0952 0.58118 0.0
H1885 H 0.15038 0.13918 0.54922 0.0
N1886 N 0.28173 0.17234 0.56515 0.0
C1887 C 0.20226 0.18852 0.54729 0.0
C1888 C 0.27173 0.1266 0.5696 0.0
C1889 C 0.24825 0.20236 0.55039 0.0
C1890 C 0.18787 0.14229 0.55306 0.0
C1891 C 0.21979 0.10373 0.56407 0.0
O1892 O 0.2981 0.22568 0.65365 0.0
O1893 O 0.39376 0.25801 0.59568 0.0
O1894 O 0.47664 0.20883 0.59206 0.0
O1895 O 0.42221 0.16696 0.63662 0.0
O1896 O 0.39542 0.22904 0.6625 0.0
O1897 O 0.31474 0.15464 0.6648 0.0
O1898 O 0.44232 0.21948 0.453 0.0
O1899 O 0.36909 0.19168 0.52903 0.0
O1900 O 0.32243 0.26353 0.57891 0.0
O1901 O 0.36571 0.28229 0.51314 0.0
O1902 O 0.42955 0.16491 0.50043 0.0
O1903 O 0.45342 0.29042 0.47101 0.0
C1904 C 0.4057 0.26636 0.63883 0.0
C1905 C 0.23467 0.1792 0.68514 0.0
C1906 C 0.16376 0.14844 0.72843 0.0
C1907 C 0.2143 0.15355 0.72384 0.0
C1908 C 0.13614 0.16581 0.69205 0.0
C1909 C 0.20323 0.20146 0.65483 0.0
C1910 C 0.15559 0.19185 0.6561 0.0
C1911 C 0.46664 0.17952 0.6277 0.0
C1912 C 0.28701 0.18841 0.67746 0.0
C1913 C 0.21155 1.01377 0.57656 0.0
C1914 C 0.25641 0.98266 0.58825 0.0
C1915 C 0.38528 0.15638 0.50568 0.0
C1916 C 0.49356 0.26334 0.40186 0.0
C1917 C 0.49557 0.2966 0.36385 0.0
C1918 C 0.53307 0.29505 0.33012 0.0
C1919 C 0.567 0.25949 0.33551 0.0
C1920 C 0.52906 0.22969 0.40501 0.0
C1921 C 0.56469 0.2273 0.3718 0.0
C1922 C 0.32883 0.28935 0.54049 0.0
C1923 C 0.45397 0.26062 0.43699 0.0
H1924 H 0.23712 0.13977 0.7509 0.0
H1925 H 0.09876 0.16301 0.69316 0.0
H1926 H 0.21527 0.22729 0.63005 0.0
H1927 H 0.13313 0.20606 0.62978 0.0
H1928 H 0.46834 0.32288 0.36052 0.0
H1929 H 0.59615 0.25595 0.3114 0.0
H1930 H 0.52794 0.20366 0.43251 0.0
H1931 H 0.59101 0.20014 0.37376 0.0
Eu1932 Eu 0.85096 0.34603 0.43254 0.0
C1933 C 0.0352 0.26645 0.49076 0.0
C1934 C 0.02781 0.16079 0.4841 0.0
C1935 C 0.13336 0.19179 0.46983 0.0
C1936 C 1.00232 0.21588 0.49054 0.0
C1937 C 0.12146 0.25185 0.47788 0.0
C1938 C 0.0885 0.14946 0.47369 0.0
C1939 C 0.13764 0.34553 0.48526 0.0
N1940 N 1.01614 0.31361 0.49756 0.0
C1941 C 0.04751 0.35702 0.49761 0.0
C1942 C 0.15754 0.29352 0.47836 0.0
Eu1943 Eu 0.93381 0.29976 0.51237 0.0
N1944 N 0.95647 0.2194 0.4995 0.0
C1945 C 0.93165 0.17924 0.50947 0.0
C1946 C 0.99856 0.12474 0.49776 0.0
C1947 C 0.95174 0.13395 0.50966 0.0
H1948 H 0.02729 0.38944 0.50283 0.0
H1949 H 0.92976 0.1046 0.51965 0.0
H1950 H 0.09777 0.11454 0.46549 0.0
H1951 H 0.16535 0.37129 0.48083 0.0
H1952 H 0.89576 0.18129 0.52068 0.0
H1953 H 0.94493 0.53836 0.4293 0.0
H1954 H 1.01174 0.08914 0.49919 0.0
H1955 H 0.75424 0.30078 0.49341 0.0
H1956 H 0.9458 0.44336 0.44344 0.0
H1957 H 0.67655 0.32388 0.49584 0.0
H1958 H 0.16845 0.18059 0.46174 0.0
H1959 H 0.86441 0.5947 0.42973 0.0
H1960 H 0.75412 0.59438 0.44825 0.0
H1961 H 0.1946 0.28724 0.473 0.0
H1962 H 0.68078 0.54924 0.46484 0.0
N1963 N 0.86545 0.42672 0.45275 0.0
C1964 C 0.91174 0.45936 0.44389 0.0
C1965 C 0.86082 0.55778 0.4366 0.0
C1966 C 0.80495 0.53259 0.44747 0.0
C1967 C 0.91153 0.52163 0.43536 0.0
C1968 C 0.81313 0.44457 0.45858 0.0
H1969 H 0.65038 0.40059 0.49054 0.0
N1970 N 0.78173 0.36743 0.47462 0.0
C1971 C 0.70226 0.35124 0.49247 0.0
C1972 C 0.77173 0.41317 0.47017 0.0
C1973 C 0.74825 0.33741 0.48937 0.0
C1974 C 0.68787 0.39747 0.4867 0.0
C1975 C 0.71979 0.43603 0.4757 0.0
O1976 O 0.7981 0.31409 0.38611 0.0
O1977 O 0.89376 0.28176 0.44408 0.0
O1978 O 0.97664 0.33094 0.4477 0.0
O1979 O 0.92221 0.3728 0.40314 0.0
O1980 O 0.89542 0.31072 0.37727 0.0
O1981 O 0.81474 0.38513 0.37497 0.0
O1982 O 0.94232 0.32029 0.58676 0.0
O1983 O 0.86909 0.34809 0.51073 0.0
O1984 O 0.82243 0.27623 0.46085 0.0
O1985 O 0.86571 0.25748 0.52663 0.0
O1986 O 0.92955 0.37486 0.53933 0.0
O1987 O 0.95342 0.24935 0.56876 0.0
C1988 C 0.9057 0.27341 0.40093 0.0
C1989 C 0.73467 0.36057 0.35462 0.0
C1990 C 0.66376 0.39133 0.31133 0.0
C1991 C 0.7143 0.38621 0.31593 0.0
C1992 C 0.63614 0.37396 0.34771 0.0
C1993 C 0.70323 0.33831 0.38494 0.0
C1994 C 0.65559 0.34792 0.38366 0.0
C1995 C 0.96664 0.36025 0.41206 0.0
C1996 C 0.78701 0.35135 0.3623 0.0
C1997 C 0.71155 0.52599 0.4632 0.0
C1998 C 0.75641 0.55711 0.45151 0.0
C1999 C 0.88528 0.38339 0.53409 0.0
C2000 C 0.99356 0.27643 0.63791 0.0
C2001 C 0.99557 0.24317 0.67592 0.0
C2002 C 0.03307 0.24472 0.70965 0.0
C2003 C 0.067 0.28028 0.70426 0.0
C2004 C 0.02906 0.31008 0.63475 0.0
C2005 C 0.06469 0.31246 0.66796 0.0
C2006 C 0.82883 0.25042 0.49928 0.0
C2007 C 0.95397 0.27915 0.60278 0.0
H2008 H 0.73712 0.39999 0.28886 0.0
H2009 H 0.59876 0.37676 0.3466 0.0
H2010 H 0.71527 0.31248 0.40972 0.0
H2011 H 0.63313 0.33371 0.40998 0.0
H2012 H 0.96834 0.21688 0.67924 0.0
H2013 H 0.09616 0.28382 0.72836 0.0
H2014 H 0.02794 0.33611 0.60725 0.0
H2015 H 0.09101 0.33963 0.666 0.0
loop_
_geom_bond_atom_site_label_1
_geom_bond_atom_site_label_2
_geom_bond_distance
_geom_bond_site_symmetry_2
_ccdc_geom_bond_type
Eu0 N31 2.657 . S
Eu0 N38 2.609 . S
Eu0 O44 2.558 1_455 S
Eu0 O45 2.612 1_455 S
Eu0 O47 2.339 1_455 S
Eu0 O48 2.563 1_455 S
Eu0 O49 2.419 1_455 S
Eu0 O51 2.380 . S
Eu0 O52 2.432 . S
Eu0 C64 2.848 1_455 S
C1 C4 1.429 1_655 S
C1 C5 1.411 . S
C1 N8 1.377 1_655 S
C2 C4 1.420 1_655 S
C2 C6 1.423 . S
C2 C14 1.392 1_655 S
C3 C5 1.420 . S
C3 C6 1.351 . S
C3 H26 0.931 . S
C4 C1 1.429 1_455 S
C4 C2 1.420 1_455 S
C4 N12 1.362 . S
C5 C1 1.411 . S
C5 C3 1.420 . S
C5 C10 1.395 . S
C6 C2 1.423 . S
C6 C3 1.351 . S
C6 H18 0.930 . S
C7 C9 1.410 . S
C7 C10 1.386 . S
C7 H19 0.930 . S
N8 C1 1.377 1_455 S
N8 C9 1.317 1_455 S
N8 Eu11 2.609 . S
C9 C7 1.410 . S
C9 N8 1.317 1_655 S
C9 H16 0.924 1_655 S
C10 C5 1.395 . S
C10 C7 1.386 . S
C10 H29 0.930 . S
Eu11 N8 2.609 . S
Eu11 N12 2.657 . S
Eu11 O45 2.380 1_455 S
Eu11 O46 2.432 . S
Eu11 O50 2.558 . S
Eu11 O51 2.612 . S
Eu11 O53 2.339 . S
Eu11 O54 2.563 . S
Eu11 O55 2.419 . S
Eu11 C75 2.848 . S
N12 C4 1.362 . S
N12 Eu11 2.657 . S
N12 C13 1.334 . S
C13 N12 1.334 . S
C13 C15 1.413 . S
C13 H20 0.929 . S
C14 C2 1.392 1_455 S
C14 C15 1.367 . S
C14 H22 0.930 1_455 S
C15 C13 1.413 . S
C15 C14 1.367 . S
C15 H17 0.930 . S
H16 C9 0.924 1_455 S
H17 C15 0.930 . S
H18 C6 0.930 . S
H19 C7 0.930 . S
H20 C13 0.929 . S
H21 C35 0.930 . S
H22 C14 0.930 1_655 S
H23 C41 0.930 . S
H24 C32 0.929 . S
H25 C39 0.930 . S
H26 C3 0.931 . S
H27 C33 0.930 . S
H28 C66 0.930 . S
H29 C10 0.930 . S
H30 C65 0.931 . S
N31 Eu0 2.657 . S
N31 C32 1.334 . S
N31 C36 1.362 . S
C32 H24 0.929 . S
C32 N31 1.334 . S
C32 C35 1.413 . S
C33 H27 0.930 . S
C33 C34 1.392 . S
C33 C35 1.367 . S
C34 C33 1.392 . S
C34 C36 1.420 . S
C34 C66 1.423 . S
C35 H21 0.930 . S
C35 C32 1.413 . S
C35 C33 1.367 . S
C36 N31 1.362 . S
C36 C34 1.420 . S
C36 C40 1.429 . S
H37 C42 0.930 . S
N38 Eu0 2.609 . S
N38 C40 1.377 . S
N38 C41 1.321 . S
C39 H25 0.930 . S
C39 C41 1.400 . S
C39 C42 1.386 . S
C40 C36 1.429 . S
C40 N38 1.377 . S
C40 C43 1.411 . S
C41 H23 0.930 . S
C41 N38 1.321 . S
C41 C39 1.400 . S
C42 H37 0.930 . S
C42 C39 1.386 . S
C42 C43 1.395 . S
C43 C40 1.411 . S
C43 C42 1.395 . S
C43 C65 1.420 . S
O44 Eu0 2.558 1_655 S
O44 C64 1.257 . S
O45 Eu0 2.612 1_655 S
O45 Eu11 2.380 1_655 S
O45 C56 1.276 . S
O46 Eu11 2.432 . S
O46 C63 1.264 1_455 S
O47 Eu0 2.339 1_655 S
O47 C63 1.254 . S
O48 Eu0 2.563 1_655 S
O48 C56 1.235 . S
O49 Eu0 2.419 1_655 S
O49 C64 1.249 . S
O50 Eu11 2.558 . S
O50 C75 1.257 . S
O51 Eu0 2.380 . S
O51 Eu11 2.612 . S
O51 C67 1.276 . S
O52 Eu0 2.432 . S
O52 C74 1.264 . S
O53 Eu11 2.339 . S
O53 C74 1.254 . S
O54 Eu11 2.563 . S
O54 C67 1.235 . S
O55 Eu11 2.419 . S
O55 C75 1.249 . S
C56 O45 1.276 . S
C56 O48 1.235 . S
C57 C59 1.393 . S
C57 C61 1.395 . S
C57 C64 1.492 . S
C58 C59 1.392 . S
C58 C60 1.386 . S
C59 C57 1.393 . S
C59 C58 1.392 . S
C59 H76 0.930 . S
C60 C58 1.386 . S
C60 C62 1.395 . S
C60 H77 0.930 . S
C61 C57 1.395 . S
C61 C62 1.379 . S
C61 H78 0.930 . S
C62 C60 1.395 . S
C62 C61 1.379 . S
C62 H79 0.930 . S
C63 O46 1.264 1_655 S
C63 O47 1.254 . S
C64 Eu0 2.848 1_655 S
C64 O44 1.257 . S
C64 O49 1.249 . S
C64 C57 1.492 . S
C65 H30 0.931 . S
C65 C43 1.420 . S
C65 C66 1.351 . S
C66 H28 0.930 . S
C66 C34 1.423 . S
C66 C65 1.351 . S
C67 O51 1.276 . S
C67 O54 1.235 . S
C68 C69 1.393 . S
C68 C72 1.395 . S
C68 C75 1.492 . S
C69 C68 1.393 . S
C69 C70 1.392 . S
C69 H80 0.930 . S
C70 C69 1.392 . S
C70 C71 1.386 . S
C71 C70 1.386 . S
C71 C73 1.395 . S
C71 H81 0.930 . S
C72 C68 1.395 . S
C72 C73 1.379 . S
C72 H82 0.930 . S
C73 C71 1.395 . S
C73 C72 1.379 . S
C73 H83 0.930 . S
C74 O52 1.264 . S
C74 O53 1.254 . S
C75 Eu11 2.848 . S
C75 O50 1.257 . S
C75 O55 1.249 . S
C75 C68 1.492 . S
H76 C59 0.930 . S
H77 C60 0.930 . S
H78 C61 0.930 . S
H79 C62 0.930 . S
H80 C69 0.930 . S
H81 C71 0.930 . S
H82 C72 0.930 . S
H83 C73 0.930 . S
Eu84 N115 2.657 . S
Eu84 N122 2.609 . S
Eu84 O128 2.558 . S
Eu84 O129 2.612 . S
Eu84 O131 2.339 . S
Eu84 O132 2.563 . S
Eu84 O133 2.419 . S
Eu84 O135 2.380 . S
Eu84 O136 2.432 . S
Eu84 C148 2.848 . S
C85 C88 1.429 . S
C85 C89 1.411 . S
C85 N92 1.377 . S
C86 C88 1.420 . S
C86 C90 1.423 . S
C86 C98 1.392 . S
C87 C89 1.420 . S
C87 C90 1.351 . S
C87 H110 0.931 . S
C88 C85 1.429 . S
C88 C86 1.420 . S
C88 N96 1.362 . S
C89 C85 1.411 . S
C89 C87 1.420 . S
C89 C94 1.395 . S
C90 C86 1.423 . S
C90 C87 1.351 . S
C90 H102 0.930 . S
C91 C93 1.400 . S
C91 C94 1.386 . S
C91 H103 0.930 . S
N92 C85 1.377 . S
N92 C93 1.321 . S
N92 Eu95 2.609 . S
C93 C91 1.400 . S
C93 N92 1.321 . S
C93 H100 0.930 . S
C94 C89 1.395 . S
C94 C91 1.386 . S
C94 H113 0.930 . S
Eu95 N92 2.609 . S
Eu95 N96 2.657 . S
Eu95 O129 2.380 . S
Eu95 O130 2.432 . S
Eu95 O134 2.558 . S
Eu95 O135 2.612 . S
Eu95 O137 2.339 . S
Eu95 O138 2.563 . S
Eu95 O139 2.419 . S
Eu95 C159 2.848 . S
N96 C88 1.362 . S
N96 Eu95 2.657 . S
N96 C97 1.334 . S
C97 N96 1.334 . S
C97 C99 1.413 . S
C97 H104 0.929 . S
C98 C86 1.392 . S
C98 C99 1.367 . S
C98 H106 0.930 1_556 S
C99 C97 1.413 . S
C99 C98 1.367 . S
C99 H101 0.930 . S
H100 C93 0.930 . S
H101 C99 0.930 . S
H102 C90 0.930 . S
H103 C91 0.930 . S
H104 C97 0.929 . S
H105 C119 0.930 . S
H106 C98 0.930 1_554 S
H107 C125 0.930 . S
H108 C116 0.929 . S
H109 C123 0.930 . S
H110 C87 0.931 . S
H111 C117 0.930 . S
H112 C150 0.930 . S
H113 C94 0.930 . S
H114 C149 0.931 . S
N115 Eu84 2.657 . S
N115 C116 1.334 . S
N115 C120 1.362 . S
C116 H108 0.929 . S
C116 N115 1.334 . S
C116 C119 1.413 . S
C117 H111 0.930 . S
C117 C118 1.392 . S
C117 C119 1.367 . S
C118 C117 1.392 . S
C118 C120 1.420 . S
C118 C150 1.423 . S
C119 H105 0.930 . S
C119 C116 1.413 . S
C119 C117 1.367 . S
C120 N115 1.362 . S
C120 C118 1.420 . S
C120 C124 1.429 . S
H121 C126 0.930 . S
N122 Eu84 2.609 . S
N122 C124 1.377 . S
N122 C125 1.321 . S
C123 H109 0.930 . S
C123 C125 1.400 . S
C123 C126 1.386 . S
C124 C120 1.429 . S
C124 N122 1.377 . S
C124 C127 1.411 . S
C125 H107 0.930 . S
C125 N122 1.321 . S
C125 C123 1.400 . S
C126 H121 0.930 . S
C126 C123 1.386 . S
C126 C127 1.395 . S
C127 C124 1.411 . S
C127 C126 1.395 . S
C127 C149 1.420 . S
O128 Eu84 2.558 . S
O128 C148 1.257 . S
O129 Eu84 2.612 . S
O129 Eu95 2.380 . S
O129 C140 1.276 . S
O130 Eu95 2.432 . S
O130 C147 1.264 . S
O131 Eu84 2.339 . S
O131 C147 1.254 . S
O132 Eu84 2.563 . S
O132 C140 1.235 . S
O133 Eu84 2.419 . S
O133 C148 1.249 . S
O134 Eu95 2.558 . S
O134 C159 1.257 . S
O135 Eu84 2.380 . S
O135 Eu95 2.612 . S
O135 C151 1.276 . S
O136 Eu84 2.432 . S
O136 C158 1.264 . S
O137 Eu95 2.339 . S
O137 C158 1.254 . S
O138 Eu95 2.563 . S
O138 C151 1.235 . S
O139 Eu95 2.419 . S
O139 C159 1.249 . S
C140 O129 1.276 . S
C140 O132 1.235 . S
C141 C143 1.393 . S
C141 C145 1.395 . S
C141 C148 1.492 . S
C142 C143 1.392 . S
C142 C144 1.386 . S
C143 C141 1.393 . S
C143 C142 1.392 . S
C143 H160 0.930 . S
C144 C142 1.386 . S
C144 C146 1.395 . S
C144 H161 0.930 . S
C145 C141 1.395 . S
C145 C146 1.379 . S
C145 H162 0.930 . S
C146 C144 1.395 . S
C146 C145 1.379 . S
C146 H163 0.930 . S
C147 O130 1.264 . S
C147 O131 1.254 . S
C148 Eu84 2.848 . S
C148 O128 1.257 . S
C148 O133 1.249 . S
C148 C141 1.492 . S
C149 H114 0.931 . S
C149 C127 1.420 . S
C149 C150 1.351 . S
C150 H112 0.930 . S
C150 C118 1.423 . S
C150 C149 1.351 . S
C151 O135 1.276 . S
C151 O138 1.235 . S
C152 C153 1.393 . S
C152 C156 1.395 . S
C152 C159 1.492 . S
C153 C152 1.393 . S
C153 C154 1.392 . S
C153 H164 0.930 . S
C154 C153 1.392 . S
C154 C155 1.386 . S
C155 C154 1.386 . S
C155 C157 1.395 . S
C155 H165 0.930 . S
C156 C152 1.395 . S
C156 C157 1.379 . S
C156 H166 0.930 . S
C157 C155 1.395 . S
C157 C156 1.379 . S
C157 H167 0.930 . S
C158 O136 1.264 . S
C158 O137 1.254 . S
C159 Eu95 2.848 . S
C159 O134 1.257 . S
C159 O139 1.249 . S
C159 C152 1.492 . S
H160 C143 0.930 . S
H161 C144 0.930 . S
H162 C145 0.930 . S
H163 C146 0.930 . S
H164 C153 0.930 . S
H165 C155 0.930 . S
H166 C156 0.930 . S
H167 C157 0.930 . S
Eu168 N199 2.657 . S
Eu168 N206 2.609 . S
Eu168 O212 2.558 . S
Eu168 O213 2.612 . S
Eu168 O215 2.339 . S
Eu168 O216 2.563 . S
Eu168 O217 2.419 . S
Eu168 O219 2.380 . S
Eu168 O220 2.432 . S
Eu168 C232 2.848 . S
C169 C172 1.429 . S
C169 C173 1.411 . S
C169 N176 1.377 . S
C170 C172 1.420 . S
C170 C174 1.423 . S
C170 C182 1.392 . S
C171 C173 1.420 . S
C171 C174 1.351 . S
C171 H194 0.931 . S
C172 C169 1.429 . S
C172 C170 1.420 . S
C172 N180 1.362 . S
C173 C169 1.411 . S
C173 C171 1.420 . S
C173 C178 1.395 . S
C174 C170 1.423 . S
C174 C171 1.351 . S
C174 H186 0.930 . S
C175 C177 1.400 . S
C175 C178 1.386 . S
C175 H187 0.930 . S
N176 C169 1.377 . S
N176 C177 1.321 . S
N176 Eu179 2.609 . S
C177 C175 1.400 . S
C177 N176 1.321 . S
C177 H184 0.930 . S
C178 C173 1.395 . S
C178 C175 1.386 . S
C178 H197 0.930 . S
Eu179 N176 2.609 . S
Eu179 N180 2.657 . S
Eu179 O213 2.380 . S
Eu179 O214 2.432 . S
Eu179 O218 2.558 . S
Eu179 O219 2.612 . S
Eu179 O221 2.339 . S
Eu179 O222 2.563 . S
Eu179 O223 2.419 . S
Eu179 C243 2.848 . S
N180 C172 1.362 . S
N180 Eu179 2.657 . S
N180 C181 1.334 . S
C181 N180 1.334 . S
C181 C183 1.413 . S
C181 H188 0.929 . S
C182 C170 1.392 . S
C182 C183 1.367 . S
C182 H190 0.930 . S
C183 C181 1.413 . S
C183 C182 1.367 . S
C183 H185 0.930 . S
H184 C177 0.930 . S
H185 C183 0.930 . S
H186 C174 0.930 . S
H187 C175 0.930 . S
H188 C181 0.929 . S
H189 C203 0.930 . S
H190 C182 0.930 . S
H191 C209 0.930 . S
H192 C200 0.929 . S
H193 C207 0.930 . S
H194 C171 0.931 . S
H195 C201 0.930 . S
H196 C234 0.930 . S
H197 C178 0.930 . S
H198 C233 0.931 . S
N199 Eu168 2.657 . S
N199 C200 1.334 . S
N199 C204 1.362 . S
C200 H192 0.929 . S
C200 N199 1.334 . S
C200 C203 1.413 . S
C201 H195 0.930 . S
C201 C202 1.392 . S
C201 C203 1.367 . S
C202 C201 1.392 . S
C202 C204 1.420 . S
C202 C234 1.423 . S
C203 H189 0.930 . S
C203 C200 1.413 . S
C203 C201 1.367 . S
C204 N199 1.362 . S
C204 C202 1.420 . S
C204 C208 1.429 . S
H205 C210 0.930 . S
N206 Eu168 2.609 . S
N206 C208 1.377 . S
N206 C209 1.321 . S
C207 H193 0.930 . S
C207 C209 1.400 1_565 S
C207 C210 1.386 . S
C208 C204 1.429 . S
C208 N206 1.377 . S
C208 C211 1.411 1_545 S
C209 H191 0.930 . S
C209 N206 1.321 . S
C209 C207 1.400 1_545 S
C210 H205 0.930 . S
C210 C207 1.386 . S
C210 C211 1.395 . S
C211 C208 1.411 1_565 S
C211 C210 1.395 . S
C211 C233 1.420 . S
O212 Eu168 2.558 . S
O212 C232 1.257 . S
O213 Eu168 2.612 . S
O213 Eu179 2.380 . S
O213 C224 1.276 . S
O214 Eu179 2.432 . S
O214 C231 1.264 . S
O215 Eu168 2.339 . S
O215 C231 1.254 . S
O216 Eu168 2.563 . S
O216 C224 1.235 . S
O217 Eu168 2.419 . S
O217 C232 1.249 . S
O218 Eu179 2.558 . S
O218 C243 1.257 . S
O219 Eu168 2.380 . S
O219 Eu179 2.612 . S
O219 C235 1.276 . S
O220 Eu168 2.432 . S
O220 C242 1.264 . S
O221 Eu179 2.339 . S
O221 C242 1.254 . S
O222 Eu179 2.563 . S
O222 C235 1.235 . S
O223 Eu179 2.419 . S
O223 C243 1.249 . S
C224 O213 1.276 . S
C224 O216 1.235 . S
C225 C227 1.393 . S
C225 C229 1.395 1_545 S
C225 C232 1.492 . S
C226 C227 1.392 1_565 S
C226 C228 1.386 . S
C227 C225 1.393 . S
C227 C226 1.392 1_545 S
C227 H244 0.930 . S
C228 C226 1.386 . S
C228 C230 1.395 . S
C228 H245 0.930 . S
C229 C225 1.395 1_565 S
C229 C230 1.379 . S
C229 H246 0.930 . S
C230 C228 1.395 . S
C230 C229 1.379 . S
C230 H247 0.930 . S
C231 O214 1.264 . S
C231 O215 1.254 . S
C232 Eu168 2.848 . S
C232 O212 1.257 . S
C232 O217 1.249 . S
C232 C225 1.492 . S
C233 H198 0.931 . S
C233 C211 1.420 . S
C233 C234 1.351 1_565 S
C234 H196 0.930 . S
C234 C202 1.423 . S
C234 C233 1.351 1_545 S
C235 O219 1.276 . S
C235 O222 1.235 . S
C236 C237 1.393 . S
C236 C240 1.395 . S
C236 C243 1.492 . S
C237 C236 1.393 . S
C237 C238 1.392 . S
C237 H248 0.930 . S
C238 C237 1.392 . S
C238 C239 1.386 . S
C239 C238 1.386 . S
C239 C241 1.395 . S
C239 H249 0.930 . S
C240 C236 1.395 . S
C240 C241 1.379 . S
C240 H250 0.930 . S
C241 C239 1.395 . S
C241 C240 1.379 . S
C241 H251 0.930 . S
C242 O220 1.264 . S
C242 O221 1.254 . S
C243 Eu179 2.848 . S
C243 O218 1.257 . S
C243 O223 1.249 . S
C243 C236 1.492 . S
H244 C227 0.930 . S
H245 C228 0.930 . S
H246 C229 0.930 . S
H247 C230 0.930 . S
H248 C237 0.930 . S
H249 C239 0.930 . S
H250 C240 0.930 . S
H251 C241 0.930 . S
Eu252 N283 2.657 . S
Eu252 N290 2.609 . S
Eu252 O296 2.558 1_655 S
Eu252 O297 2.612 1_655 S
Eu252 O299 2.339 1_655 S
Eu252 O300 2.563 1_655 S
Eu252 O301 2.419 1_655 S
Eu252 O303 2.380 . S
Eu252 O304 2.432 . S
Eu252 C316 2.848 1_655 S
C253 C256 1.429 1_455 S
C253 C257 1.411 . S
C253 N260 1.377 1_455 S
C254 C256 1.420 1_455 S
C254 C258 1.423 . S
C254 C266 1.392 1_455 S
C255 C257 1.420 . S
C255 C258 1.351 . S
C255 H278 0.931 . S
C256 C253 1.429 1_655 S
C256 C254 1.420 1_655 S
C256 N264 1.362 . S
C257 C253 1.411 . S
C257 C255 1.420 . S
C257 C262 1.395 . S
C258 C254 1.423 . S
C258 C255 1.351 . S
C258 H270 0.930 . S
C259 C261 1.410 . S
C259 C262 1.386 . S
C259 H271 0.930 . S
N260 C253 1.377 1_655 S
N260 C261 1.317 1_655 S
N260 Eu263 2.609 . S
C261 C259 1.410 . S
C261 N260 1.317 1_455 S
C261 H268 0.924 1_455 S
C262 C257 1.395 . S
C262 C259 1.386 . S
C262 H281 0.930 . S
Eu263 N260 2.609 . S
Eu263 N264 2.657 . S
Eu263 O297 2.380 1_655 S
Eu263 O298 2.432 . S
Eu263 O302 2.558 . S
Eu263 O303 2.612 . S
Eu263 O305 2.339 . S
Eu263 O306 2.563 . S
Eu263 O307 2.419 . S
Eu263 C327 2.848 . S
N264 C256 1.362 . S
N264 Eu263 2.657 . S
N264 C265 1.334 . S
C265 N264 1.334 . S
C265 C267 1.413 . S
C265 H272 0.929 . S
C266 C254 1.392 1_655 S
C266 C267 1.367 . S
C266 H274 0.930 1_654 S
C267 C265 1.413 . S
C267 C266 1.367 . S
C267 H269 0.930 . S
H268 C261 0.924 1_655 S
H269 C267 0.930 . S
H270 C258 0.930 . S
H271 C259 0.930 . S
H272 C265 0.929 . S
H273 C287 0.930 . S
H274 C266 0.930 1_456 S
H275 C293 0.930 . S
H276 C284 0.929 . S
H277 C291 0.930 . S
H278 C255 0.931 . S
H279 C285 0.930 . S
H280 C318 0.930 . S
H281 C262 0.930 . S
H282 C317 0.931 . S
N283 Eu252 2.657 . S
N283 C284 1.334 . S
N283 C288 1.362 . S
C284 H276 0.929 . S
C284 N283 1.334 . S
C284 C287 1.413 . S
C285 H279 0.930 . S
C285 C286 1.392 . S
C285 C287 1.367 . S
C286 C285 1.392 . S
C286 C288 1.420 . S
C286 C318 1.423 . S
C287 H273 0.930 . S
C287 C284 1.413 . S
C287 C285 1.367 . S
C288 N283 1.362 . S
C288 C286 1.420 . S
C288 C292 1.429 . S
H289 C294 0.930 . S
N290 Eu252 2.609 . S
N290 C292 1.377 . S
N290 C293 1.321 . S
C291 H277 0.930 . S
C291 C293 1.400 1_545 S
C291 C294 1.386 . S
C292 C288 1.429 . S
C292 N290 1.377 . S
C292 C295 1.411 1_565 S
C293 H275 0.930 . S
C293 N290 1.321 . S
C293 C291 1.400 1_565 S
C294 H289 0.930 . S
C294 C291 1.386 . S
C294 C295 1.395 . S
C295 C292 1.411 1_545 S
C295 C294 1.395 . S
C295 C317 1.420 . S
O296 Eu252 2.558 1_455 S
O296 C316 1.257 . S
O297 Eu252 2.612 1_455 S
O297 Eu263 2.380 1_455 S
O297 C308 1.276 . S
O298 Eu263 2.432 . S
O298 C315 1.264 1_655 S
O299 Eu252 2.339 1_455 S
O299 C315 1.254 . S
O300 Eu252 2.563 1_455 S
O300 C308 1.235 . S
O301 Eu252 2.419 1_455 S
O301 C316 1.249 . S
O302 Eu263 2.558 . S
O302 C327 1.257 . S
O303 Eu252 2.380 . S
O303 Eu263 2.612 . S
O303 C319 1.276 . S
O304 Eu252 2.432 . S
O304 C326 1.264 . S
O305 Eu263 2.339 . S
O305 C326 1.254 . S
O306 Eu263 2.563 . S
O306 C319 1.235 . S
O307 Eu263 2.419 . S
O307 C327 1.249 . S
C308 O297 1.276 . S
C308 O300 1.235 . S
C309 C311 1.393 . S
C309 C313 1.395 1_565 S
C309 C316 1.492 . S
C310 C311 1.392 1_545 S
C310 C312 1.386 . S
C311 C309 1.393 . S
C311 C310 1.392 1_565 S
C311 H328 0.930 . S
C312 C310 1.386 . S
C312 C314 1.395 . S
C312 H329 0.930 . S
C313 C309 1.395 1_545 S
C313 C314 1.379 . S
C313 H330 0.930 . S
C314 C312 1.395 . S
C314 C313 1.379 . S
C314 H331 0.930 . S
C315 O298 1.264 1_455 S
C315 O299 1.254 . S
C316 Eu252 2.848 1_455 S
C316 O296 1.257 . S
C316 O301 1.249 . S
C316 C309 1.492 . S
C317 H282 0.931 . S
C317 C295 1.420 . S
C317 C318 1.351 1_545 S
C318 H280 0.930 . S
C318 C286 1.423 . S
C318 C317 1.351 1_565 S
C319 O303 1.276 . S
C319 O306 1.235 . S
C320 C321 1.393 . S
C320 C324 1.395 . S
C320 C327 1.492 . S
C321 C320 1.393 . S
C321 C322 1.392 . S
C321 H332 0.930 . S
C322 C321 1.392 . S
C322 C323 1.386 . S
C323 C322 1.386 . S
C323 C325 1.395 . S
C323 H333 0.930 . S
C324 C320 1.395 . S
C324 C325 1.379 . S
C324 H334 0.930 . S
C325 C323 1.395 . S
C325 C324 1.379 . S
C325 H335 0.930 . S
C326 O304 1.264 . S
C326 O305 1.254 . S
C327 Eu263 2.848 . S
C327 O302 1.257 . S
C327 O307 1.249 . S
C327 C320 1.492 . S
H328 C311 0.930 . S
H329 C312 0.930 . S
H330 C313 0.930 . S
H331 C314 0.930 . S
H332 C321 0.930 . S
H333 C323 0.930 . S
H334 C324 0.930 . S
H335 C325 0.930 . S
Eu336 N367 2.657 . S
Eu336 N374 2.609 . S
Eu336 O380 2.558 1_545 S
Eu336 O381 2.612 1_545 S
Eu336 O383 2.339 1_545 S
Eu336 O384 2.563 1_545 S
Eu336 O385 2.419 1_545 S
Eu336 O387 2.380 . S
Eu336 O388 2.432 . S
Eu336 C400 2.848 1_545 S
C337 C340 1.429 1_565 S
C337 C341 1.411 . S
C337 N344 1.377 1_565 S
C338 C340 1.420 1_565 S
C338 C342 1.423 . S
C338 C350 1.392 1_565 S
C339 C341 1.420 . S
C339 C342 1.351 . S
C339 H362 0.931 . S
C340 C337 1.429 1_545 S
C340 C338 1.420 1_545 S
C340 N348 1.362 . S
C341 C337 1.411 . S
C341 C339 1.420 . S
C341 C346 1.395 . S
C342 C338 1.423 . S
C342 C339 1.351 . S
C342 H354 0.930 . S
C343 C345 1.410 . S
C343 C346 1.386 . S
C343 H355 0.930 . S
N344 C337 1.377 1_545 S
N344 C345 1.317 1_545 S
N344 Eu347 2.609 . S
C345 C343 1.410 . S
C345 N344 1.317 1_565 S
C345 H352 0.924 1_565 S
C346 C341 1.395 . S
C346 C343 1.386 . S
C346 H365 0.930 . S
Eu347 N344 2.609 . S
Eu347 N348 2.657 . S
Eu347 O381 2.380 1_545 S
Eu347 O382 2.432 . S
Eu347 O386 2.558 . S
Eu347 O387 2.612 . S
Eu347 O389 2.339 . S
Eu347 O390 2.563 . S
Eu347 O391 2.419 . S
Eu347 C411 2.848 . S
N348 C340 1.362 . S
N348 Eu347 2.657 . S
N348 C349 1.334 . S
C349 N348 1.334 . S
C349 C351 1.413 . S
C349 H356 0.929 . S
C350 C338 1.392 1_545 S
C350 C351 1.367 . S
C350 H358 0.930 1_545 S
C351 C349 1.413 . S
C351 C350 1.367 . S
C351 H353 0.930 . S
H352 C345 0.924 1_545 S
H353 C351 0.930 . S
H354 C342 0.930 . S
H355 C343 0.930 . S
H356 C349 0.929 . S
H357 C371 0.930 . S
H358 C350 0.930 1_565 S
H359 C377 0.930 . S
H360 C368 0.929 . S
H361 C375 0.930 . S
H362 C339 0.931 . S
H363 C369 0.930 . S
H364 C402 0.930 . S
H365 C346 0.930 . S
H366 C401 0.931 . S
N367 Eu336 2.657 . S
N367 C368 1.334 . S
N367 C372 1.362 . S
C368 H360 0.929 . S
C368 N367 1.334 . S
C368 C371 1.413 . S
C369 H363 0.930 . S
C369 C370 1.392 . S
C369 C371 1.367 . S
C370 C369 1.392 . S
C370 C372 1.420 . S
C370 C402 1.423 . S
C371 H357 0.930 . S
C371 C368 1.413 . S
C371 C369 1.367 . S
C372 N367 1.362 . S
C372 C370 1.420 . S
C372 C376 1.429 . S
H373 C378 0.930 . S
N374 Eu336 2.609 . S
N374 C376 1.377 . S
N374 C377 1.321 . S
C375 H361 0.930 . S
C375 C377 1.400 . S
C375 C378 1.386 . S
C376 C372 1.429 . S
C376 N374 1.377 . S
C376 C379 1.411 . S
C377 H359 0.930 . S
C377 N374 1.321 . S
C377 C375 1.400 . S
C378 H373 0.930 . S
C378 C375 1.386 . S
C378 C379 1.395 . S
C379 C376 1.411 . S
C379 C378 1.395 . S
C379 C401 1.420 . S
O380 Eu336 2.558 1_565 S
O380 C400 1.257 . S
O381 Eu336 2.612 1_565 S
O381 Eu347 2.380 1_565 S
O381 C392 1.276 . S
O382 Eu347 2.432 . S
O382 C399 1.264 1_545 S
O383 Eu336 2.339 1_565 S
O383 C399 1.254 . S
O384 Eu336 2.563 1_565 S
O384 C392 1.235 . S
O385 Eu336 2.419 1_565 S
O385 C400 1.249 . S
O386 Eu347 2.558 . S
O386 C411 1.257 . S
O387 Eu336 2.380 . S
O387 Eu347 2.612 . S
O387 C403 1.276 . S
O388 Eu336 2.432 . S
O388 C410 1.264 . S
O389 Eu347 2.339 . S
O389 C410 1.254 . S
O390 Eu347 2.563 . S
O390 C403 1.235 . S
O391 Eu347 2.419 . S
O391 C411 1.249 . S
C392 O381 1.276 . S
C392 O384 1.235 . S
C393 C395 1.393 . S
C393 C397 1.395 . S
C393 C400 1.492 . S
C394 C395 1.392 . S
C394 C396 1.386 . S
C395 C393 1.393 . S
C395 C394 1.392 . S
C395 H412 0.930 . S
C396 C394 1.386 . S
C396 C398 1.395 . S
C396 H413 0.930 . S
C397 C393 1.395 . S
C397 C398 1.379 . S
C397 H414 0.930 . S
C398 C396 1.395 . S
C398 C397 1.379 . S
C398 H415 0.930 . S
C399 O382 1.264 1_565 S
C399 O383 1.254 . S
C400 Eu336 2.848 1_565 S
C400 O380 1.257 . S
C400 O385 1.249 . S
C400 C393 1.492 . S
C401 H366 0.931 . S
C401 C379 1.420 . S
C401 C402 1.351 . S
C402 H364 0.930 . S
C402 C370 1.423 . S
C402 C401 1.351 . S
C403 O387 1.276 . S
C403 O390 1.235 . S
C404 C405 1.393 . S
C404 C408 1.395 . S
C404 C411 1.492 . S
C405 C404 1.393 . S
C405 C406 1.392 . S
C405 H416 0.930 . S
C406 C405 1.392 . S
C406 C407 1.386 . S
C407 C406 1.386 . S
C407 C409 1.395 . S
C407 H417 0.930 . S
C408 C404 1.395 . S
C408 C409 1.379 . S
C408 H418 0.930 . S
C409 C407 1.395 . S
C409 C408 1.379 . S
C409 H419 0.930 . S
C410 O388 1.264 . S
C410 O389 1.254 . S
C411 Eu347 2.848 . S
C411 O386 1.257 . S
C411 O391 1.249 . S
C411 C404 1.492 . S
H412 C395 0.930 . S
H413 C396 0.930 . S
H414 C397 0.930 . S
H415 C398 0.930 . S
H416 C405 0.930 . S
H417 C407 0.930 . S
H418 C408 0.930 . S
H419 C409 0.930 . S
Eu420 N451 2.657 . S
Eu420 N458 2.609 . S
Eu420 O464 2.558 1_565 S
Eu420 O465 2.612 1_565 S
Eu420 O467 2.339 1_565 S
Eu420 O468 2.563 1_565 S
Eu420 O469 2.419 1_565 S
Eu420 O471 2.380 . S
Eu420 O472 2.432 . S
Eu420 C484 2.848 1_565 S
C421 C424 1.429 1_545 S
C421 C425 1.411 . S
C421 N428 1.377 1_545 S
C422 C424 1.420 1_545 S
C422 C426 1.423 . S
C422 C434 1.392 1_545 S
C423 C425 1.420 . S
C423 C426 1.351 . S
C423 H446 0.931 . S
C424 C421 1.429 1_565 S
C424 C422 1.420 1_565 S
C424 N432 1.362 . S
C425 C421 1.411 . S
C425 C423 1.420 . S
C425 C430 1.395 . S
C426 C422 1.423 . S
C426 C423 1.351 . S
C426 H438 0.930 . S
C427 C429 1.410 . S
C427 C430 1.386 . S
C427 H439 0.930 . S
N428 C421 1.377 1_565 S
N428 C429 1.317 1_565 S
N428 Eu431 2.609 . S
C429 C427 1.410 . S
C429 N428 1.317 1_545 S
C429 H436 0.924 1_545 S
C430 C425 1.395 . S
C430 C427 1.386 . S
C430 H449 0.930 . S
Eu431 N428 2.609 . S
Eu431 N432 2.657 . S
Eu431 O465 2.380 1_565 S
Eu431 O466 2.432 . S
Eu431 O470 2.558 . S
Eu431 O471 2.612 . S
Eu431 O473 2.339 . S
Eu431 O474 2.563 . S
Eu431 O475 2.419 . S
Eu431 C495 2.848 . S
N432 C424 1.362 . S
N432 Eu431 2.657 . S
N432 C433 1.334 . S
C433 N432 1.334 . S
C433 C435 1.413 . S
C433 H440 0.929 . S
C434 C422 1.392 1_565 S
C434 C435 1.367 . S
C434 H442 0.930 1_465 S
C435 C433 1.413 . S
C435 C434 1.367 . S
C435 H437 0.930 . S
H436 C429 0.924 1_565 S
H437 C435 0.930 . S
H438 C426 0.930 . S
H439 C427 0.930 . S
H440 C433 0.929 . S
H441 C455 0.930 . S
H442 C434 0.930 1_645 S
H443 C461 0.930 . S
H444 C452 0.929 . S
H445 C459 0.930 . S
H446 C423 0.931 . S
H447 C453 0.930 . S
H448 C486 0.930 . S
H449 C430 0.930 . S
H450 C485 0.931 . S
N451 Eu420 2.657 . S
N451 C452 1.334 . S
N451 C456 1.362 . S
C452 H444 0.929 . S
C452 N451 1.334 . S
C452 C455 1.413 . S
C453 H447 0.930 . S
C453 C454 1.392 . S
C453 C455 1.367 . S
C454 C453 1.392 . S
C454 C456 1.420 . S
C454 C486 1.423 . S
C455 H441 0.930 . S
C455 C452 1.413 . S
C455 C453 1.367 . S
C456 N451 1.362 . S
C456 C454 1.420 . S
C456 C460 1.429 . S
H457 C462 0.930 . S
N458 Eu420 2.609 . S
N458 C460 1.377 . S
N458 C461 1.321 . S
C459 H445 0.930 . S
C459 C461 1.400 1_554 S
C459 C462 1.386 . S
C460 C456 1.429 . S
C460 N458 1.377 . S
C460 C463 1.411 1_556 S
C461 H443 0.930 . S
C461 N458 1.321 . S
C461 C459 1.400 1_556 S
C462 H457 0.930 . S
C462 C459 1.386 . S
C462 C463 1.395 . S
C463 C460 1.411 1_554 S
C463 C462 1.395 . S
C463 C485 1.420 . S
O464 Eu420 2.558 1_545 S
O464 C484 1.257 . S
O465 Eu420 2.612 1_545 S
O465 Eu431 2.380 1_545 S
O465 C476 1.276 . S
O466 Eu431 2.432 . S
O466 C483 1.264 1_565 S
O467 Eu420 2.339 1_545 S
O467 C483 1.254 . S
O468 Eu420 2.563 1_545 S
O468 C476 1.235 . S
O469 Eu420 2.419 1_545 S
O469 C484 1.249 . S
O470 Eu431 2.558 . S
O470 C495 1.257 . S
O471 Eu420 2.380 . S
O471 Eu431 2.612 . S
O471 C487 1.276 . S
O472 Eu420 2.432 . S
O472 C494 1.264 . S
O473 Eu431 2.339 . S
O473 C494 1.254 . S
O474 Eu431 2.563 . S
O474 C487 1.235 . S
O475 Eu431 2.419 . S
O475 C495 1.249 . S
C476 O465 1.276 . S
C476 O468 1.235 . S
C477 C479 1.393 . S
C477 C481 1.395 1_556 S
C477 C484 1.492 . S
C478 C479 1.392 1_554 S
C478 C480 1.386 . S
C479 C477 1.393 . S
C479 C478 1.392 1_556 S
C479 H496 0.930 . S
C480 C478 1.386 . S
C480 C482 1.395 . S
C480 H497 0.930 . S
C481 C477 1.395 1_554 S
C481 C482 1.379 . S
C481 H498 0.930 . S
C482 C480 1.395 . S
C482 C481 1.379 . S
C482 H499 0.930 . S
C483 O466 1.264 1_545 S
C483 O467 1.254 . S
C484 Eu420 2.848 1_545 S
C484 O464 1.257 . S
C484 O469 1.249 . S
C484 C477 1.492 . S
C485 H450 0.931 . S
C485 C463 1.420 . S
C485 C486 1.351 1_554 S
C486 H448 0.930 . S
C486 C454 1.423 . S
C486 C485 1.351 1_556 S
C487 O471 1.276 . S
C487 O474 1.235 . S
C488 C489 1.393 . S
C488 C492 1.395 . S
C488 C495 1.492 . S
C489 C488 1.393 . S
C489 C490 1.392 . S
C489 H500 0.930 . S
C490 C489 1.392 . S
C490 C491 1.386 . S
C491 C490 1.386 . S
C491 C493 1.395 . S
C491 H501 0.930 . S
C492 C488 1.395 . S
C492 C493 1.379 . S
C492 H502 0.930 . S
C493 C491 1.395 . S
C493 C492 1.379 . S
C493 H503 0.930 . S
C494 O472 1.264 . S
C494 O473 1.254 . S
C495 Eu431 2.848 . S
C495 O470 1.257 . S
C495 O475 1.249 . S
C495 C488 1.492 . S
H496 C479 0.930 . S
H497 C480 0.930 . S
H498 C481 0.930 . S
H499 C482 0.930 . S
H500 C489 0.930 . S
H501 C491 0.930 . S
H502 C492 0.930 . S
H503 C493 0.930 . S
Eu504 N535 2.657 . S
Eu504 N542 2.609 . S
Eu504 O548 2.558 . S
Eu504 O549 2.612 . S
Eu504 O551 2.339 . S
Eu504 O552 2.563 . S
Eu504 O553 2.419 . S
Eu504 O555 2.380 . S
Eu504 O556 2.432 . S
Eu504 C568 2.848 . S
C505 C508 1.429 . S
C505 C509 1.411 . S
C505 N512 1.377 . S
C506 C508 1.420 . S
C506 C510 1.423 . S
C506 C518 1.392 . S
C507 C509 1.420 . S
C507 C510 1.351 . S
C507 H530 0.931 . S
C508 C505 1.429 . S
C508 C506 1.420 . S
C508 N516 1.362 . S
C509 C505 1.411 . S
C509 C507 1.420 . S
C509 C514 1.395 . S
C510 C506 1.423 . S
C510 C507 1.351 . S
C510 H522 0.930 . S
C511 C513 1.400 . S
C511 C514 1.386 . S
C511 H523 0.930 . S
N512 C505 1.377 . S
N512 C513 1.321 . S
N512 Eu515 2.609 . S
C513 C511 1.400 . S
C513 N512 1.321 . S
C513 H520 0.930 . S
C514 C509 1.395 . S
C514 C511 1.386 . S
C514 H533 0.930 . S
Eu515 N512 2.609 . S
Eu515 N516 2.657 . S
Eu515 O549 2.380 . S
Eu515 O550 2.432 . S
Eu515 O554 2.558 . S
Eu515 O555 2.612 . S
Eu515 O557 2.339 . S
Eu515 O558 2.563 . S
Eu515 O559 2.419 . S
Eu515 C579 2.848 . S
N516 C508 1.362 . S
N516 Eu515 2.657 . S
N516 C517 1.334 . S
C517 N516 1.334 . S
C517 C519 1.413 . S
C517 H524 0.929 . S
C518 C506 1.392 . S
C518 C519 1.367 . S
C518 H526 0.930 1_655 S
C519 C517 1.413 . S
C519 C518 1.367 . S
C519 H521 0.930 . S
H520 C513 0.930 . S
H521 C519 0.930 . S
H522 C510 0.930 . S
H523 C511 0.930 . S
H524 C517 0.929 . S
H525 C539 0.930 . S
H526 C518 0.930 1_455 S
H527 C545 0.930 . S
H528 C536 0.929 . S
H529 C543 0.930 . S
H530 C507 0.931 . S
H531 C537 0.930 . S
H532 C570 0.930 . S
H533 C514 0.930 . S
H534 C569 0.931 . S
N535 Eu504 2.657 . S
N535 C536 1.334 . S
N535 C540 1.362 . S
C536 H528 0.929 . S
C536 N535 1.334 . S
C536 C539 1.413 . S
C537 H531 0.930 . S
C537 C538 1.392 . S
C537 C539 1.367 . S
C538 C537 1.392 . S
C538 C540 1.420 . S
C538 C570 1.423 . S
C539 H525 0.930 . S
C539 C536 1.413 . S
C539 C537 1.367 . S
C540 N535 1.362 . S
C540 C538 1.420 . S
C540 C544 1.429 . S
H541 C546 0.930 . S
N542 Eu504 2.609 . S
N542 C544 1.377 . S
N542 C545 1.321 . S
C543 H529 0.930 . S
C543 C545 1.400 . S
C543 C546 1.386 . S
C544 C540 1.429 . S
C544 N542 1.377 . S
C544 C547 1.411 . S
C545 H527 0.930 . S
C545 N542 1.321 . S
C545 C543 1.400 . S
C546 H541 0.930 . S
C546 C543 1.386 . S
C546 C547 1.395 . S
C547 C544 1.411 . S
C547 C546 1.395 . S
C547 C569 1.420 . S
O548 Eu504 2.558 . S
O548 C568 1.257 . S
O549 Eu504 2.612 . S
O549 Eu515 2.380 . S
O549 C560 1.276 . S
O550 Eu515 2.432 . S
O550 C567 1.264 . S
O551 Eu504 2.339 . S
O551 C567 1.254 . S
O552 Eu504 2.563 . S
O552 C560 1.235 . S
O553 Eu504 2.419 . S
O553 C568 1.249 . S
O554 Eu515 2.558 . S
O554 C579 1.257 . S
O555 Eu504 2.380 . S
O555 Eu515 2.612 . S
O555 C571 1.276 . S
O556 Eu504 2.432 . S
O556 C578 1.264 . S
O557 Eu515 2.339 . S
O557 C578 1.254 . S
O558 Eu515 2.563 . S
O558 C571 1.235 . S
O559 Eu515 2.419 . S
O559 C579 1.249 . S
C560 O549 1.276 . S
C560 O552 1.235 . S
C561 C563 1.393 . S
C561 C565 1.395 . S
C561 C568 1.492 . S
C562 C563 1.392 . S
C562 C564 1.386 . S
C563 C561 1.393 . S
C563 C562 1.392 . S
C563 H580 0.930 . S
C564 C562 1.386 . S
C564 C566 1.395 . S
C564 H581 0.930 . S
C565 C561 1.395 . S
C565 C566 1.379 . S
C565 H582 0.930 . S
C566 C564 1.395 . S
C566 C565 1.379 . S
C566 H583 0.930 . S
C567 O550 1.264 . S
C567 O551 1.254 . S
C568 Eu504 2.848 . S
C568 O548 1.257 . S
C568 O553 1.249 . S
C568 C561 1.492 . S
C569 H534 0.931 . S
C569 C547 1.420 . S
C569 C570 1.351 . S
C570 H532 0.930 . S
C570 C538 1.423 . S
C570 C569 1.351 . S
C571 O555 1.276 . S
C571 O558 1.235 . S
C572 C573 1.393 . S
C572 C576 1.395 . S
C572 C579 1.492 . S
C573 C572 1.393 . S
C573 C574 1.392 . S
C573 H584 0.930 . S
C574 C573 1.392 . S
C574 C575 1.386 . S
C575 C574 1.386 . S
C575 C577 1.395 . S
C575 H585 0.930 . S
C576 C572 1.395 . S
C576 C577 1.379 . S
C576 H586 0.930 . S
C577 C575 1.395 . S
C577 C576 1.379 . S
C577 H587 0.930 . S
C578 O556 1.264 . S
C578 O557 1.254 . S
C579 Eu515 2.848 . S
C579 O554 1.257 . S
C579 O559 1.249 . S
C579 C572 1.492 . S
H580 C563 0.930 . S
H581 C564 0.930 . S
H582 C565 0.930 . S
H583 C566 0.930 . S
H584 C573 0.930 . S
H585 C575 0.930 . S
H586 C576 0.930 . S
H587 C577 0.930 . S
Eu588 N619 2.657 . S
Eu588 N626 2.609 . S
Eu588 O632 2.558 . S
Eu588 O633 2.612 . S
Eu588 O635 2.339 . S
Eu588 O636 2.563 . S
Eu588 O637 2.419 . S
Eu588 O639 2.380 . S
Eu588 O640 2.432 . S
Eu588 C652 2.848 . S
C589 C592 1.429 . S
C589 C593 1.411 . S
C589 N596 1.377 . S
C590 C592 1.420 . S
C590 C594 1.423 . S
C590 C602 1.392 . S
C591 C593 1.420 . S
C591 C594 1.351 . S
C591 H614 0.931 . S
C592 C589 1.429 . S
C592 C590 1.420 . S
C592 N600 1.362 . S
C593 C589 1.411 . S
C593 C591 1.420 . S
C593 C598 1.395 . S
C594 C590 1.423 . S
C594 C591 1.351 . S
C594 H606 0.930 . S
C595 C597 1.400 . S
C595 C598 1.386 . S
C595 H607 0.930 . S
N596 C589 1.377 . S
N596 C597 1.321 . S
N596 Eu599 2.609 . S
C597 C595 1.400 . S
C597 N596 1.321 . S
C597 H604 0.930 . S
C598 C593 1.395 . S
C598 C595 1.386 . S
C598 H617 0.930 . S
Eu599 N596 2.609 . S
Eu599 N600 2.657 . S
Eu599 O633 2.380 . S
Eu599 O634 2.432 . S
Eu599 O638 2.558 . S
Eu599 O639 2.612 . S
Eu599 O641 2.339 . S
Eu599 O642 2.563 . S
Eu599 O643 2.419 . S
Eu599 C663 2.848 . S
N600 C592 1.362 . S
N600 Eu599 2.657 . S
N600 C601 1.334 . S
C601 N600 1.334 . S
C601 C603 1.413 . S
C601 H608 0.929 . S
C602 C590 1.392 . S
C602 C603 1.367 . S
C602 H610 0.930 . S
C603 C601 1.413 . S
C603 C602 1.367 . S
C603 H605 0.930 . S
H604 C597 0.930 . S
H605 C603 0.930 . S
H606 C594 0.930 . S
H607 C595 0.930 . S
H608 C601 0.929 . S
H609 C623 0.930 . S
H610 C602 0.930 . S
H611 C629 0.930 . S
H612 C620 0.929 . S
H613 C627 0.930 . S
H614 C591 0.931 . S
H615 C621 0.930 . S
H616 C654 0.930 . S
H617 C598 0.930 . S
H618 C653 0.931 . S
N619 Eu588 2.657 . S
N619 C620 1.334 . S
N619 C624 1.362 . S
C620 H612 0.929 . S
C620 N619 1.334 . S
C620 C623 1.413 . S
C621 H615 0.930 . S
C621 C622 1.392 . S
C621 C623 1.367 . S
C622 C621 1.392 . S
C622 C624 1.420 . S
C622 C654 1.423 . S
C623 H609 0.930 . S
C623 C620 1.413 . S
C623 C621 1.367 . S
C624 N619 1.362 . S
C624 C622 1.420 . S
C624 C628 1.429 . S
H625 C630 0.930 . S
N626 Eu588 2.609 . S
N626 C628 1.377 . S
N626 C629 1.321 . S
C627 H613 0.930 . S
C627 C629 1.400 1_556 S
C627 C630 1.386 . S
C628 C624 1.429 . S
C628 N626 1.377 . S
C628 C631 1.411 1_554 S
C629 H611 0.930 . S
C629 N626 1.321 . S
C629 C627 1.400 1_554 S
C630 H625 0.930 . S
C630 C627 1.386 . S
C630 C631 1.395 . S
C631 C628 1.411 1_556 S
C631 C630 1.395 . S
C631 C653 1.420 . S
O632 Eu588 2.558 . S
O632 C652 1.257 . S
O633 Eu588 2.612 . S
O633 Eu599 2.380 . S
O633 C644 1.276 . S
O634 Eu599 2.432 . S
O634 C651 1.264 . S
O635 Eu588 2.339 . S
O635 C651 1.254 . S
O636 Eu588 2.563 . S
O636 C644 1.235 . S
O637 Eu588 2.419 . S
O637 C652 1.249 . S
O638 Eu599 2.558 . S
O638 C663 1.257 . S
O639 Eu588 2.380 . S
O639 Eu599 2.612 . S
O639 C655 1.276 . S
O640 Eu588 2.432 . S
O640 C662 1.264 . S
O641 Eu599 2.339 . S
O641 C662 1.254 . S
O642 Eu599 2.563 . S
O642 C655 1.235 . S
O643 Eu599 2.419 . S
O643 C663 1.249 . S
C644 O633 1.276 . S
C644 O636 1.235 . S
C645 C647 1.393 . S
C645 C649 1.395 1_554 S
C645 C652 1.492 . S
C646 C647 1.392 1_556 S
C646 C648 1.386 . S
C647 C645 1.393 . S
C647 C646 1.392 1_554 S
C647 H664 0.930 . S
C648 C646 1.386 . S
C648 C650 1.395 . S
C648 H665 0.930 . S
C649 C645 1.395 1_556 S
C649 C650 1.379 . S
C649 H666 0.930 . S
C650 C648 1.395 . S
C650 C649 1.379 . S
C650 H667 0.930 . S
C651 O634 1.264 . S
C651 O635 1.254 . S
C652 Eu588 2.848 . S
C652 O632 1.257 . S
C652 O637 1.249 . S
C652 C645 1.492 . S
C653 H618 0.931 . S
C653 C631 1.420 . S
C653 C654 1.351 1_556 S
C654 H616 0.930 . S
C654 C622 1.423 . S
C654 C653 1.351 1_554 S
C655 O639 1.276 . S
C655 O642 1.235 . S
C656 C657 1.393 . S
C656 C660 1.395 . S
C656 C663 1.492 . S
C657 C656 1.393 . S
C657 C658 1.392 . S
C657 H668 0.930 . S
C658 C657 1.392 . S
C658 C659 1.386 . S
C659 C658 1.386 . S
C659 C661 1.395 . S
C659 H669 0.930 . S
C660 C656 1.395 . S
C660 C661 1.379 . S
C660 H670 0.930 . S
C661 C659 1.395 . S
C661 C660 1.379 . S
C661 H671 0.930 . S
C662 O640 1.264 . S
C662 O641 1.254 . S
C663 Eu599 2.848 . S
C663 O638 1.257 . S
C663 O643 1.249 . S
C663 C656 1.492 . S
H664 C647 0.930 . S
H665 C648 0.930 . S
H666 C649 0.930 . S
H667 C650 0.930 . S
H668 C657 0.930 . S
H669 C659 0.930 . S
H670 C660 0.930 . S
H671 C661 0.930 . S
Eu672 N703 2.657 . S
Eu672 N710 2.609 . S
Eu672 O716 2.558 1_554 S
Eu672 O717 2.612 1_554 S
Eu672 O719 2.339 1_554 S
Eu672 O720 2.563 1_554 S
Eu672 O721 2.419 1_554 S
Eu672 O723 2.380 . S
Eu672 O724 2.432 . S
Eu672 C736 2.848 1_554 S
C673 C676 1.429 1_556 S
C673 C677 1.411 . S
C673 N680 1.377 1_556 S
C674 C676 1.420 1_556 S
C674 C678 1.423 . S
C674 C686 1.392 1_556 S
C675 C677 1.420 . S
C675 C678 1.351 . S
C675 H698 0.931 . S
C676 C673 1.429 1_554 S
C676 C674 1.420 1_554 S
C676 N684 1.362 . S
C677 C673 1.411 . S
C677 C675 1.420 . S
C677 C682 1.395 . S
C678 C674 1.423 . S
C678 C675 1.351 . S
C678 H690 0.930 . S
C679 C681 1.410 . S
C679 C682 1.386 . S
C679 H691 0.930 . S
N680 C673 1.377 1_554 S
N680 C681 1.317 1_554 S
N680 Eu683 2.609 . S
C681 C679 1.410 . S
C681 N680 1.317 1_556 S
C681 H688 0.924 1_556 S
C682 C677 1.395 . S
C682 C679 1.386 . S
C682 H701 0.930 . S
Eu683 N680 2.609 . S
Eu683 N684 2.657 . S
Eu683 O717 2.380 1_554 S
Eu683 O718 2.432 . S
Eu683 O722 2.558 . S
Eu683 O723 2.612 . S
Eu683 O725 2.339 . S
Eu683 O726 2.563 . S
Eu683 O727 2.419 . S
Eu683 C747 2.848 . S
N684 C676 1.362 . S
N684 Eu683 2.657 . S
N684 C685 1.334 . S
C685 N684 1.334 . S
C685 C687 1.413 . S
C685 H692 0.929 . S
C686 C674 1.392 1_554 S
C686 C687 1.367 . S
C686 H694 0.930 1_554 S
C687 C685 1.413 . S
C687 C686 1.367 . S
C687 H689 0.930 . S
H688 C681 0.924 1_554 S
H689 C687 0.930 . S
H690 C678 0.930 . S
H691 C679 0.930 . S
H692 C685 0.929 . S
H693 C707 0.930 . S
H694 C686 0.930 1_556 S
H695 C713 0.930 . S
H696 C704 0.929 . S
H697 C711 0.930 . S
H698 C675 0.931 . S
H699 C705 0.930 . S
H700 C738 0.930 . S
H701 C682 0.930 . S
H702 C737 0.931 . S
N703 Eu672 2.657 . S
N703 C704 1.334 . S
N703 C708 1.362 . S
C704 H696 0.929 . S
C704 N703 1.334 . S
C704 C707 1.413 . S
C705 H699 0.930 . S
C705 C706 1.392 . S
C705 C707 1.367 . S
C706 C705 1.392 . S
C706 C708 1.420 . S
C706 C738 1.423 . S
C707 H693 0.930 . S
C707 C704 1.413 . S
C707 C705 1.367 . S
C708 N703 1.362 . S
C708 C706 1.420 . S
C708 C712 1.429 . S
H709 C714 0.930 . S
N710 Eu672 2.609 . S
N710 C712 1.377 . S
N710 C713 1.321 . S
C711 H697 0.930 . S
C711 C713 1.400 . S
C711 C714 1.386 . S
C712 C708 1.429 . S
C712 N710 1.377 . S
C712 C715 1.411 . S
C713 H695 0.930 . S
C713 N710 1.321 . S
C713 C711 1.400 . S
C714 H709 0.930 . S
C714 C711 1.386 . S
C714 C715 1.395 . S
C715 C712 1.411 . S
C715 C714 1.395 . S
C715 C737 1.420 . S
O716 Eu672 2.558 1_556 S
O716 C736 1.257 . S
O717 Eu672 2.612 1_556 S
O717 Eu683 2.380 1_556 S
O717 C728 1.276 . S
O718 Eu683 2.432 . S
O718 C735 1.264 1_554 S
O719 Eu672 2.339 1_556 S
O719 C735 1.254 . S
O720 Eu672 2.563 1_556 S
O720 C728 1.235 . S
O721 Eu672 2.419 1_556 S
O721 C736 1.249 . S
O722 Eu683 2.558 . S
O722 C747 1.257 . S
O723 Eu672 2.380 . S
O723 Eu683 2.612 . S
O723 C739 1.276 . S
O724 Eu672 2.432 . S
O724 C746 1.264 . S
O725 Eu683 2.339 . S
O725 C746 1.254 . S
O726 Eu683 2.563 . S
O726 C739 1.235 . S
O727 Eu683 2.419 . S
O727 C747 1.249 . S
C728 O717 1.276 . S
C728 O720 1.235 . S
C729 C731 1.393 . S
C729 C733 1.395 . S
C729 C736 1.492 . S
C730 C731 1.392 . S
C730 C732 1.386 . S
C731 C729 1.393 . S
C731 C730 1.392 . S
C731 H748 0.930 . S
C732 C730 1.386 . S
C732 C734 1.395 . S
C732 H749 0.930 . S
C733 C729 1.395 . S
C733 C734 1.379 . S
C733 H750 0.930 . S
C734 C732 1.395 . S
C734 C733 1.379 . S
C734 H751 0.930 . S
C735 O718 1.264 1_556 S
C735 O719 1.254 . S
C736 Eu672 2.848 1_556 S
C736 O716 1.257 . S
C736 O721 1.249 . S
C736 C729 1.492 . S
C737 H702 0.931 . S
C737 C715 1.420 . S
C737 C738 1.351 . S
C738 H700 0.930 . S
C738 C706 1.423 . S
C738 C737 1.351 . S
C739 O723 1.276 . S
C739 O726 1.235 . S
C740 C741 1.393 . S
C740 C744 1.395 . S
C740 C747 1.492 . S
C741 C740 1.393 . S
C741 C742 1.392 . S
C741 H752 0.930 . S
C742 C741 1.392 . S
C742 C743 1.386 . S
C743 C742 1.386 . S
C743 C745 1.395 . S
C743 H753 0.930 . S
C744 C740 1.395 . S
C744 C745 1.379 . S
C744 H754 0.930 . S
C745 C743 1.395 . S
C745 C744 1.379 . S
C745 H755 0.930 . S
C746 O724 1.264 . S
C746 O725 1.254 . S
C747 Eu683 2.848 . S
C747 O722 1.257 . S
C747 O727 1.249 . S
C747 C740 1.492 . S
H748 C731 0.930 . S
H749 C732 0.930 . S
H750 C733 0.930 . S
H751 C734 0.930 . S
H752 C741 0.930 . S
H753 C743 0.930 . S
H754 C744 0.930 . S
H755 C745 0.930 . S
Eu756 N787 2.657 . S
Eu756 N794 2.609 . S
Eu756 O800 2.558 1_556 S
Eu756 O801 2.612 1_556 S
Eu756 O803 2.339 1_556 S
Eu756 O804 2.563 1_556 S
Eu756 O805 2.419 1_556 S
Eu756 O807 2.380 . S
Eu756 O808 2.432 . S
Eu756 C820 2.848 1_556 S
C757 C760 1.429 1_554 S
C757 C761 1.411 . S
C757 N764 1.377 1_554 S
C758 C760 1.420 1_554 S
C758 C762 1.423 . S
C758 C770 1.392 1_554 S
C759 C761 1.420 . S
C759 C762 1.351 . S
C759 H782 0.931 . S
C760 C757 1.429 1_556 S
C760 C758 1.420 1_556 S
C760 N768 1.362 . S
C761 C757 1.411 . S
C761 C759 1.420 . S
C761 C766 1.395 . S
C762 C758 1.423 . S
C762 C759 1.351 . S
C762 H774 0.930 . S
C763 C765 1.410 . S
C763 C766 1.386 . S
C763 H775 0.930 . S
N764 C757 1.377 1_556 S
N764 C765 1.317 1_556 S
N764 Eu767 2.609 . S
C765 C763 1.410 . S
C765 N764 1.317 1_554 S
C765 H772 0.924 1_554 S
C766 C761 1.395 . S
C766 C763 1.386 . S
C766 H785 0.930 . S
Eu767 N764 2.609 . S
Eu767 N768 2.657 . S
Eu767 O801 2.380 1_556 S
Eu767 O802 2.432 . S
Eu767 O806 2.558 . S
Eu767 O807 2.612 . S
Eu767 O809 2.339 . S
Eu767 O810 2.563 . S
Eu767 O811 2.419 . S
Eu767 C831 2.848 . S
N768 C760 1.362 . S
N768 Eu767 2.657 . S
N768 C769 1.334 . S
C769 N768 1.334 . S
C769 C771 1.413 . S
C769 H776 0.929 . S
C770 C758 1.392 1_556 S
C770 C771 1.367 . S
C770 H778 0.930 1_546 S
C771 C769 1.413 . S
C771 C770 1.367 . S
C771 H773 0.930 . S
H772 C765 0.924 1_556 S
H773 C771 0.930 . S
H774 C762 0.930 . S
H775 C763 0.930 . S
H776 C769 0.929 . S
H777 C791 0.930 . S
H778 C770 0.930 1_564 S
H779 C797 0.930 . S
H780 C788 0.929 . S
H781 C795 0.930 . S
H782 C759 0.931 . S
H783 C789 0.930 . S
H784 C822 0.930 . S
H785 C766 0.930 . S
H786 C821 0.931 . S
N787 Eu756 2.657 . S
N787 C788 1.334 . S
N787 C792 1.362 . S
C788 H780 0.929 . S
C788 N787 1.334 . S
C788 C791 1.413 . S
C789 H783 0.930 . S
C789 C790 1.392 . S
C789 C791 1.367 . S
C790 C789 1.392 . S
C790 C792 1.420 . S
C790 C822 1.423 . S
C791 H777 0.930 . S
C791 C788 1.413 . S
C791 C789 1.367 . S
C792 N787 1.362 . S
C792 C790 1.420 . S
C792 C796 1.429 . S
H793 C798 0.930 . S
N794 Eu756 2.609 . S
N794 C796 1.377 . S
N794 C797 1.321 . S
C795 H781 0.930 . S
C795 C797 1.400 1_455 S
C795 C798 1.386 . S
C796 C792 1.429 . S
C796 N794 1.377 . S
C796 C799 1.411 1_655 S
C797 H779 0.930 . S
C797 N794 1.321 . S
C797 C795 1.400 1_655 S
C798 H793 0.930 . S
C798 C795 1.386 . S
C798 C799 1.395 . S
C799 C796 1.411 1_455 S
C799 C798 1.395 . S
C799 C821 1.420 . S
O800 Eu756 2.558 1_554 S
O800 C820 1.257 . S
O801 Eu756 2.612 1_554 S
O801 Eu767 2.380 1_554 S
O801 C812 1.276 . S
O802 Eu767 2.432 . S
O802 C819 1.264 1_556 S
O803 Eu756 2.339 1_554 S
O803 C819 1.254 . S
O804 Eu756 2.563 1_554 S
O804 C812 1.235 . S
O805 Eu756 2.419 1_554 S
O805 C820 1.249 . S
O806 Eu767 2.558 . S
O806 C831 1.257 . S
O807 Eu756 2.380 . S
O807 Eu767 2.612 . S
O807 C823 1.276 . S
O808 Eu756 2.432 . S
O808 C830 1.264 . S
O809 Eu767 2.339 . S
O809 C830 1.254 . S
O810 Eu767 2.563 . S
O810 C823 1.235 . S
O811 Eu767 2.419 . S
O811 C831 1.249 . S
C812 O801 1.276 . S
C812 O804 1.235 . S
C813 C815 1.393 . S
C813 C817 1.395 1_655 S
C813 C820 1.492 . S
C814 C815 1.392 1_455 S
C814 C816 1.386 . S
C815 C813 1.393 . S
C815 C814 1.392 1_655 S
C815 H832 0.930 . S
C816 C814 1.386 . S
C816 C818 1.395 . S
C816 H833 0.930 . S
C817 C813 1.395 1_455 S
C817 C818 1.379 . S
C817 H834 0.930 . S
C818 C816 1.395 . S
C818 C817 1.379 . S
C818 H835 0.930 . S
C819 O802 1.264 1_554 S
C819 O803 1.254 . S
C820 Eu756 2.848 1_554 S
C820 O800 1.257 . S
C820 O805 1.249 . S
C820 C813 1.492 . S
C821 H786 0.931 . S
C821 C799 1.420 . S
C821 C822 1.351 1_455 S
C822 H784 0.930 . S
C822 C790 1.423 . S
C822 C821 1.351 1_655 S
C823 O807 1.276 . S
C823 O810 1.235 . S
C824 C825 1.393 . S
C824 C828 1.395 . S
C824 C831 1.492 . S
C825 C824 1.393 . S
C825 C826 1.392 . S
C825 H836 0.930 . S
C826 C825 1.392 . S
C826 C827 1.386 . S
C827 C826 1.386 . S
C827 C829 1.395 . S
C827 H837 0.930 . S
C828 C824 1.395 . S
C828 C829 1.379 . S
C828 H838 0.930 . S
C829 C827 1.395 . S
C829 C828 1.379 . S
C829 H839 0.930 . S
C830 O808 1.264 . S
C830 O809 1.254 . S
C831 Eu767 2.848 . S
C831 O806 1.257 . S
C831 O811 1.249 . S
C831 C824 1.492 . S
H832 C815 0.930 . S
H833 C816 0.930 . S
H834 C817 0.930 . S
H835 C818 0.930 . S
H836 C825 0.930 . S
H837 C827 0.930 . S
H838 C828 0.930 . S
H839 C829 0.930 . S
Eu840 N871 2.657 . S
Eu840 N878 2.609 . S
Eu840 O884 2.558 . S
Eu840 O885 2.612 . S
Eu840 O887 2.339 . S
Eu840 O888 2.563 . S
Eu840 O889 2.419 . S
Eu840 O891 2.380 . S
Eu840 O892 2.432 . S
Eu840 C904 2.848 . S
C841 C844 1.429 . S
C841 C845 1.411 . S
C841 N848 1.377 . S
C842 C844 1.420 . S
C842 C846 1.423 . S
C842 C854 1.392 . S
C843 C845 1.420 . S
C843 C846 1.351 . S
C843 H866 0.931 . S
C844 C841 1.429 . S
C844 C842 1.420 . S
C844 N852 1.362 . S
C845 C841 1.411 . S
C845 C843 1.420 . S
C845 C850 1.395 . S
C846 C842 1.423 . S
C846 C843 1.351 . S
C846 H858 0.930 . S
C847 C849 1.400 . S
C847 C850 1.386 . S
C847 H859 0.930 . S
N848 C841 1.377 . S
N848 C849 1.321 . S
N848 Eu851 2.609 . S
C849 C847 1.400 . S
C849 N848 1.321 . S
C849 H856 0.930 . S
C850 C845 1.395 . S
C850 C847 1.386 . S
C850 H869 0.930 . S
Eu851 N848 2.609 . S
Eu851 N852 2.657 . S
Eu851 O885 2.380 . S
Eu851 O886 2.432 . S
Eu851 O890 2.558 . S
Eu851 O891 2.612 . S
Eu851 O893 2.339 . S
Eu851 O894 2.563 . S
Eu851 O895 2.419 . S
Eu851 C915 2.848 . S
N852 C844 1.362 . S
N852 Eu851 2.657 . S
N852 C853 1.334 . S
C853 N852 1.334 . S
C853 C855 1.413 . S
C853 H860 0.929 . S
C854 C842 1.392 . S
C854 C855 1.367 . S
C854 H862 0.930 1_565 S
C855 C853 1.413 . S
C855 C854 1.367 . S
C855 H857 0.930 . S
H856 C849 0.930 . S
H857 C855 0.930 . S
H858 C846 0.930 . S
H859 C847 0.930 . S
H860 C853 0.929 . S
H861 C875 0.930 . S
H862 C854 0.930 1_545 S
H863 C881 0.930 . S
H864 C872 0.929 . S
H865 C879 0.930 . S
H866 C843 0.931 . S
H867 C873 0.930 . S
H868 C906 0.930 . S
H869 C850 0.930 . S
H870 C905 0.931 . S
N871 Eu840 2.657 . S
N871 C872 1.334 . S
N871 C876 1.362 . S
C872 H864 0.929 . S
C872 N871 1.334 . S
C872 C875 1.413 . S
C873 H867 0.930 . S
C873 C874 1.392 . S
C873 C875 1.367 . S
C874 C873 1.392 . S
C874 C876 1.420 . S
C874 C906 1.423 . S
C875 H861 0.930 . S
C875 C872 1.413 . S
C875 C873 1.367 . S
C876 N871 1.362 . S
C876 C874 1.420 . S
C876 C880 1.429 . S
H877 C882 0.930 . S
N878 Eu840 2.609 . S
N878 C880 1.377 . S
N878 C881 1.321 . S
C879 H865 0.930 . S
C879 C881 1.400 . S
C879 C882 1.386 . S
C880 C876 1.429 . S
C880 N878 1.377 . S
C880 C883 1.411 . S
C881 H863 0.930 . S
C881 N878 1.321 . S
C881 C879 1.400 . S
C882 H877 0.930 . S
C882 C879 1.386 . S
C882 C883 1.395 . S
C883 C880 1.411 . S
C883 C882 1.395 . S
C883 C905 1.420 . S
O884 Eu840 2.558 . S
O884 C904 1.257 . S
O885 Eu840 2.612 . S
O885 Eu851 2.380 . S
O885 C896 1.276 . S
O886 Eu851 2.432 . S
O886 C903 1.264 . S
O887 Eu840 2.339 . S
O887 C903 1.254 . S
O888 Eu840 2.563 . S
O888 C896 1.235 . S
O889 Eu840 2.419 . S
O889 C904 1.249 . S
O890 Eu851 2.558 . S
O890 C915 1.257 . S
O891 Eu840 2.380 . S
O891 Eu851 2.612 . S
O891 C907 1.276 . S
O892 Eu840 2.432 . S
O892 C914 1.264 . S
O893 Eu851 2.339 . S
O893 C914 1.254 . S
O894 Eu851 2.563 . S
O894 C907 1.235 . S
O895 Eu851 2.419 . S
O895 C915 1.249 . S
C896 O885 1.276 . S
C896 O888 1.235 . S
C897 C899 1.393 . S
C897 C901 1.395 . S
C897 C904 1.492 . S
C898 C899 1.392 . S
C898 C900 1.386 . S
C899 C897 1.393 . S
C899 C898 1.392 . S
C899 H916 0.930 . S
C900 C898 1.386 . S
C900 C902 1.395 . S
C900 H917 0.930 . S
C901 C897 1.395 . S
C901 C902 1.379 . S
C901 H918 0.930 . S
C902 C900 1.395 . S
C902 C901 1.379 . S
C902 H919 0.930 . S
C903 O886 1.264 . S
C903 O887 1.254 . S
C904 Eu840 2.848 . S
C904 O884 1.257 . S
C904 O889 1.249 . S
C904 C897 1.492 . S
C905 H870 0.931 . S
C905 C883 1.420 . S
C905 C906 1.351 . S
C906 H868 0.930 . S
C906 C874 1.423 . S
C906 C905 1.351 . S
C907 O891 1.276 . S
C907 O894 1.235 . S
C908 C909 1.393 . S
C908 C912 1.395 . S
C908 C915 1.492 . S
C909 C908 1.393 . S
C909 C910 1.392 . S
C909 H920 0.930 . S
C910 C909 1.392 . S
C910 C911 1.386 . S
C911 C910 1.386 . S
C911 C913 1.395 . S
C911 H921 0.930 . S
C912 C908 1.395 . S
C912 C913 1.379 . S
C912 H922 0.930 . S
C913 C911 1.395 . S
C913 C912 1.379 . S
C913 H923 0.930 . S
C914 O892 1.264 . S
C914 O893 1.254 . S
C915 Eu851 2.848 . S
C915 O890 1.257 . S
C915 O895 1.249 . S
C915 C908 1.492 . S
H916 C899 0.930 . S
H917 C900 0.930 . S
H918 C901 0.930 . S
H919 C902 0.930 . S
H920 C909 0.930 . S
H921 C911 0.930 . S
H922 C912 0.930 . S
H923 C913 0.930 . S
Eu924 N955 2.657 . S
Eu924 N962 2.609 . S
Eu924 O968 2.558 . S
Eu924 O969 2.612 . S
Eu924 O971 2.339 . S
Eu924 O972 2.563 . S
Eu924 O973 2.419 . S
Eu924 O975 2.380 . S
Eu924 O976 2.432 . S
Eu924 C988 2.848 . S
C925 C928 1.429 . S
C925 C929 1.411 . S
C925 N932 1.377 . S
C926 C928 1.420 . S
C926 C930 1.423 . S
C926 C938 1.392 . S
C927 C929 1.420 . S
C927 C930 1.351 . S
C927 H950 0.931 . S
C928 C925 1.429 . S
C928 C926 1.420 . S
C928 N936 1.362 . S
C929 C925 1.411 . S
C929 C927 1.420 . S
C929 C934 1.395 . S
C930 C926 1.423 . S
C930 C927 1.351 . S
C930 H942 0.930 . S
C931 C933 1.400 . S
C931 C934 1.386 . S
C931 H943 0.930 . S
N932 C925 1.377 . S
N932 C933 1.321 . S
N932 Eu935 2.609 . S
C933 C931 1.400 . S
C933 N932 1.321 . S
C933 H940 0.930 . S
C934 C929 1.395 . S
C934 C931 1.386 . S
C934 H953 0.930 . S
Eu935 N932 2.609 . S
Eu935 N936 2.657 . S
Eu935 O969 2.380 . S
Eu935 O970 2.432 . S
Eu935 O974 2.558 . S
Eu935 O975 2.612 . S
Eu935 O977 2.339 . S
Eu935 O978 2.563 . S
Eu935 O979 2.419 . S
Eu935 C999 2.848 . S
N936 C928 1.362 . S
N936 Eu935 2.657 . S
N936 C937 1.334 . S
C937 N936 1.334 . S
C937 C939 1.413 . S
C937 H944 0.929 . S
C938 C926 1.392 . S
C938 C939 1.367 . S
C938 H946 0.930 . S
C939 C937 1.413 . S
C939 C938 1.367 . S
C939 H941 0.930 . S
H940 C933 0.930 . S
H941 C939 0.930 . S
H942 C930 0.930 . S
H943 C931 0.930 . S
H944 C937 0.929 . S
H945 C959 0.930 . S
H946 C938 0.930 . S
H947 C965 0.930 . S
H948 C956 0.929 . S
H949 C963 0.930 . S
H950 C927 0.931 . S
H951 C957 0.930 . S
H952 C990 0.930 . S
H953 C934 0.930 . S
H954 C989 0.931 . S
N955 Eu924 2.657 . S
N955 C956 1.334 . S
N955 C960 1.362 . S
C956 H948 0.929 . S
C956 N955 1.334 . S
C956 C959 1.413 . S
C957 H951 0.930 . S
C957 C958 1.392 . S
C957 C959 1.367 . S
C958 C957 1.392 . S
C958 C960 1.420 . S
C958 C990 1.423 . S
C959 H945 0.930 . S
C959 C956 1.413 . S
C959 C957 1.367 . S
C960 N955 1.362 . S
C960 C958 1.420 . S
C960 C964 1.429 . S
H961 C966 0.930 . S
N962 Eu924 2.609 . S
N962 C964 1.377 . S
N962 C965 1.321 . S
C963 H949 0.930 . S
C963 C965 1.400 1_655 S
C963 C966 1.386 . S
C964 C960 1.429 . S
C964 N962 1.377 . S
C964 C967 1.411 1_455 S
C965 H947 0.930 . S
C965 N962 1.321 . S
C965 C963 1.400 1_455 S
C966 H961 0.930 . S
C966 C963 1.386 . S
C966 C967 1.395 . S
C967 C964 1.411 1_655 S
C967 C966 1.395 . S
C967 C989 1.420 . S
O968 Eu924 2.558 . S
O968 C988 1.257 . S
O969 Eu924 2.612 . S
O969 Eu935 2.380 . S
O969 C980 1.276 . S
O970 Eu935 2.432 . S
O970 C987 1.264 . S
O971 Eu924 2.339 . S
O971 C987 1.254 . S
O972 Eu924 2.563 . S
O972 C980 1.235 . S
O973 Eu924 2.419 . S
O973 C988 1.249 . S
O974 Eu935 2.558 . S
O974 C999 1.257 . S
O975 Eu924 2.380 . S
O975 Eu935 2.612 . S
O975 C991 1.276 . S
O976 Eu924 2.432 . S
O976 C998 1.264 . S
O977 Eu935 2.339 . S
O977 C998 1.254 . S
O978 Eu935 2.563 . S
O978 C991 1.235 . S
O979 Eu935 2.419 . S
O979 C999 1.249 . S
C980 O969 1.276 . S
C980 O972 1.235 . S
C981 C983 1.393 . S
C981 C985 1.395 1_455 S
C981 C988 1.492 . S
C982 C983 1.392 1_655 S
C982 C984 1.386 . S
C983 C981 1.393 . S
C983 C982 1.392 1_455 S
C983 H1000 0.930 . S
C984 C982 1.386 . S
C984 C986 1.395 . S
C984 H1001 0.930 . S
C985 C981 1.395 1_655 S
C985 C986 1.379 . S
C985 H1002 0.930 . S
C986 C984 1.395 . S
C986 C985 1.379 . S
C986 H1003 0.930 . S
C987 O970 1.264 . S
C987 O971 1.254 . S
C988 Eu924 2.848 . S
C988 O968 1.257 . S
C988 O973 1.249 . S
C988 C981 1.492 . S
C989 H954 0.931 . S
C989 C967 1.420 . S
C989 C990 1.351 1_655 S
C990 H952 0.930 . S
C990 C958 1.423 . S
C990 C989 1.351 1_455 S
C991 O975 1.276 . S
C991 O978 1.235 . S
C992 C993 1.393 . S
C992 C996 1.395 . S
C992 C999 1.492 . S
C993 C992 1.393 . S
C993 C994 1.392 . S
C993 H1004 0.930 . S
C994 C993 1.392 . S
C994 C995 1.386 . S
C995 C994 1.386 . S
C995 C997 1.395 . S
C995 H1005 0.930 . S
C996 C992 1.395 . S
C996 C997 1.379 . S
C996 H1006 0.930 . S
C997 C995 1.395 . S
C997 C996 1.379 . S
C997 H1007 0.930 . S
C998 O976 1.264 . S
C998 O977 1.254 . S
C999 Eu935 2.848 . S
C999 O974 1.257 . S
C999 O979 1.249 . S
C999 C992 1.492 . S
H1000 C983 0.930 . S
H1001 C984 0.930 . S
H1002 C985 0.930 . S
H1003 C986 0.930 . S
H1004 C993 0.930 . S
H1005 C995 0.930 . S
H1006 C996 0.930 . S
H1007 C997 0.930 . S
Eu1008 N1039 2.657 . S
Eu1008 N1046 2.609 . S
Eu1008 O1052 2.558 . S
Eu1008 O1053 2.612 . S
Eu1008 O1055 2.339 . S
Eu1008 O1056 2.563 . S
Eu1008 O1057 2.419 . S
Eu1008 O1059 2.380 1_655 S
Eu1008 O1060 2.432 . S
Eu1008 C1072 2.848 . S
C1009 C1012 1.429 . S
C1009 C1013 1.411 . S
C1009 N1016 1.377 . S
C1010 C1012 1.420 . S
C1010 C1014 1.423 . S
C1010 C1022 1.392 . S
C1011 C1013 1.420 . S
C1011 C1014 1.351 . S
C1011 H1034 0.931 . S
C1012 C1009 1.429 . S
C1012 C1010 1.420 . S
C1012 N1020 1.362 . S
C1013 C1009 1.411 . S
C1013 C1011 1.420 . S
C1013 C1018 1.395 . S
C1014 C1010 1.423 . S
C1014 C1011 1.351 . S
C1014 H1026 0.930 . S
C1015 C1017 1.400 . S
C1015 C1018 1.386 . S
C1015 H1027 0.930 . S
N1016 C1009 1.377 . S
N1016 C1017 1.321 . S
N1016 Eu1019 2.609 . S
C1017 C1015 1.400 . S
C1017 N1016 1.321 . S
C1017 H1024 0.930 . S
C1018 C1013 1.395 . S
C1018 C1015 1.386 . S
C1018 H1037 0.930 . S
Eu1019 N1016 2.609 . S
Eu1019 N1020 2.657 . S
Eu1019 O1053 2.380 . S
Eu1019 O1054 2.432 . S
Eu1019 O1058 2.558 1_655 S
Eu1019 O1059 2.612 1_655 S
Eu1019 O1061 2.339 1_655 S
Eu1019 O1062 2.563 1_655 S
Eu1019 O1063 2.419 1_655 S
Eu1019 C1083 2.848 1_655 S
N1020 C1012 1.362 . S
N1020 Eu1019 2.657 . S
N1020 C1021 1.334 . S
C1021 N1020 1.334 . S
C1021 C1023 1.413 . S
C1021 H1028 0.929 . S
C1022 C1010 1.392 . S
C1022 C1023 1.367 . S
C1022 H1030 0.930 . S
C1023 C1021 1.413 . S
C1023 C1022 1.367 . S
C1023 H1025 0.930 . S
H1024 C1017 0.930 . S
H1025 C1023 0.930 . S
H1026 C1014 0.930 . S
H1027 C1015 0.930 . S
H1028 C1021 0.929 . S
H1029 C1043 0.930 . S
H1030 C1022 0.930 . S
H1031 C1049 0.924 1_655 S
H1032 C1040 0.929 . S
H1033 C1047 0.930 . S
H1034 C1011 0.931 . S
H1035 C1041 0.930 1_455 S
H1036 C1074 0.930 . S
H1037 C1018 0.930 . S
H1038 C1073 0.931 . S
N1039 Eu1008 2.657 . S
N1039 C1040 1.334 . S
N1039 C1044 1.362 . S
C1040 H1032 0.929 . S
C1040 N1039 1.334 . S
C1040 C1043 1.413 . S
C1041 H1035 0.930 1_655 S
C1041 C1042 1.392 1_655 S
C1041 C1043 1.367 . S
C1042 C1041 1.392 1_455 S
C1042 C1044 1.420 1_455 S
C1042 C1074 1.423 . S
C1043 H1029 0.930 . S
C1043 C1040 1.413 . S
C1043 C1041 1.367 . S
C1044 N1039 1.362 . S
C1044 C1042 1.420 1_655 S
C1044 C1048 1.429 1_655 S
H1045 C1050 0.930 . S
N1046 Eu1008 2.609 . S
N1046 C1048 1.377 1_655 S
N1046 C1049 1.317 1_655 S
C1047 H1033 0.930 . S
C1047 C1049 1.410 . S
C1047 C1050 1.386 . S
C1048 C1044 1.429 1_455 S
C1048 N1046 1.377 1_455 S
C1048 C1051 1.411 . S
C1049 H1031 0.924 1_455 S
C1049 N1046 1.317 1_455 S
C1049 C1047 1.410 . S
C1050 H1045 0.930 . S
C1050 C1047 1.386 . S
C1050 C1051 1.395 . S
C1051 C1048 1.411 . S
C1051 C1050 1.395 . S
C1051 C1073 1.420 . S
O1052 Eu1008 2.558 . S
O1052 C1072 1.257 . S
O1053 Eu1008 2.612 . S
O1053 Eu1019 2.380 . S
O1053 C1064 1.276 . S
O1054 Eu1019 2.432 . S
O1054 C1071 1.264 . S
O1055 Eu1008 2.339 . S
O1055 C1071 1.254 . S
O1056 Eu1008 2.563 . S
O1056 C1064 1.235 . S
O1057 Eu1008 2.419 . S
O1057 C1072 1.249 . S
O1058 Eu1019 2.558 1_455 S
O1058 C1083 1.257 . S
O1059 Eu1008 2.380 1_455 S
O1059 Eu1019 2.612 1_455 S
O1059 C1075 1.276 . S
O1060 Eu1008 2.432 . S
O1060 C1082 1.264 1_655 S
O1061 Eu1019 2.339 1_455 S
O1061 C1082 1.254 . S
O1062 Eu1019 2.563 1_455 S
O1062 C1075 1.235 . S
O1063 Eu1019 2.419 1_455 S
O1063 C1083 1.249 . S
C1064 O1053 1.276 . S
C1064 O1056 1.235 . S
C1065 C1067 1.393 . S
C1065 C1069 1.395 . S
C1065 C1072 1.492 . S
C1066 C1067 1.392 . S
C1066 C1068 1.386 . S
C1067 C1065 1.393 . S
C1067 C1066 1.392 . S
C1067 H1084 0.930 . S
C1068 C1066 1.386 . S
C1068 C1070 1.395 . S
C1068 H1085 0.930 . S
C1069 C1065 1.395 . S
C1069 C1070 1.379 . S
C1069 H1086 0.930 . S
C1070 C1068 1.395 . S
C1070 C1069 1.379 . S
C1070 H1087 0.930 . S
C1071 O1054 1.264 . S
C1071 O1055 1.254 . S
C1072 Eu1008 2.848 . S
C1072 O1052 1.257 . S
C1072 O1057 1.249 . S
C1072 C1065 1.492 . S
C1073 H1038 0.931 . S
C1073 C1051 1.420 . S
C1073 C1074 1.351 . S
C1074 H1036 0.930 . S
C1074 C1042 1.423 . S
C1074 C1073 1.351 . S
C1075 O1059 1.276 . S
C1075 O1062 1.235 . S
C1076 C1077 1.393 . S
C1076 C1080 1.395 . S
C1076 C1083 1.492 . S
C1077 C1076 1.393 . S
C1077 C1078 1.392 . S
C1077 H1088 0.930 . S
C1078 C1077 1.392 . S
C1078 C1079 1.386 . S
C1079 C1078 1.386 . S
C1079 C1081 1.395 . S
C1079 H1089 0.930 . S
C1080 C1076 1.395 . S
C1080 C1081 1.379 . S
C1080 H1090 0.930 . S
C1081 C1079 1.395 . S
C1081 C1080 1.379 . S
C1081 H1091 0.930 . S
C1082 O1060 1.264 1_455 S
C1082 O1061 1.254 . S
C1083 Eu1019 2.848 1_455 S
C1083 O1058 1.257 . S
C1083 O1063 1.249 . S
C1083 C1076 1.492 . S
H1084 C1067 0.930 . S
H1085 C1068 0.930 . S
H1086 C1069 0.930 . S
H1087 C1070 0.930 . S
H1088 C1077 0.930 . S
H1089 C1079 0.930 . S
H1090 C1080 0.930 . S
H1091 C1081 0.930 . S
Eu1092 N1123 2.657 . S
Eu1092 N1130 2.609 . S
Eu1092 O1136 2.558 . S
Eu1092 O1137 2.612 . S
Eu1092 O1139 2.339 . S
Eu1092 O1140 2.563 . S
Eu1092 O1141 2.419 . S
Eu1092 O1143 2.380 . S
Eu1092 O1144 2.432 . S
Eu1092 C1156 2.848 . S
C1093 C1096 1.429 . S
C1093 C1097 1.411 . S
C1093 N1100 1.377 . S
C1094 C1096 1.420 . S
C1094 C1098 1.423 . S
C1094 C1106 1.392 . S
C1095 C1097 1.420 . S
C1095 C1098 1.351 . S
C1095 H1118 0.931 . S
C1096 C1093 1.429 . S
C1096 C1094 1.420 . S
C1096 N1104 1.362 . S
C1097 C1093 1.411 . S
C1097 C1095 1.420 . S
C1097 C1102 1.395 . S
C1098 C1094 1.423 . S
C1098 C1095 1.351 . S
C1098 H1110 0.930 . S
C1099 C1101 1.400 . S
C1099 C1102 1.386 . S
C1099 H1111 0.930 . S
N1100 C1093 1.377 . S
N1100 C1101 1.321 . S
N1100 Eu1103 2.609 . S
C1101 C1099 1.400 . S
C1101 N1100 1.321 . S
C1101 H1108 0.930 . S
C1102 C1097 1.395 . S
C1102 C1099 1.386 . S
C1102 H1121 0.930 . S
Eu1103 N1100 2.609 . S
Eu1103 N1104 2.657 . S
Eu1103 O1137 2.380 . S
Eu1103 O1138 2.432 . S
Eu1103 O1142 2.558 . S
Eu1103 O1143 2.612 . S
Eu1103 O1145 2.339 . S
Eu1103 O1146 2.563 . S
Eu1103 O1147 2.419 . S
Eu1103 C1167 2.848 . S
N1104 C1096 1.362 . S
N1104 Eu1103 2.657 . S
N1104 C1105 1.334 . S
C1105 N1104 1.334 . S
C1105 C1107 1.413 . S
C1105 H1112 0.929 . S
C1106 C1094 1.392 . S
C1106 C1107 1.367 . S
C1106 H1114 0.930 . S
C1107 C1105 1.413 . S
C1107 C1106 1.367 . S
C1107 H1109 0.930 . S
H1108 C1101 0.930 . S
H1109 C1107 0.930 . S
H1110 C1098 0.930 . S
H1111 C1099 0.930 . S
H1112 C1105 0.929 . S
H1113 C1127 0.930 . S
H1114 C1106 0.930 . S
H1115 C1133 0.930 . S
H1116 C1124 0.929 . S
H1117 C1131 0.930 . S
H1118 C1095 0.931 . S
H1119 C1125 0.930 1_556 S
H1120 C1158 0.930 . S
H1121 C1102 0.930 . S
H1122 C1157 0.931 . S
N1123 Eu1092 2.657 . S
N1123 C1124 1.334 . S
N1123 C1128 1.362 . S
C1124 H1116 0.929 . S
C1124 N1123 1.334 . S
C1124 C1127 1.413 . S
C1125 H1119 0.930 1_554 S
C1125 C1126 1.392 . S
C1125 C1127 1.367 . S
C1126 C1125 1.392 . S
C1126 C1128 1.420 . S
C1126 C1158 1.423 . S
C1127 H1113 0.930 . S
C1127 C1124 1.413 . S
C1127 C1125 1.367 . S
C1128 N1123 1.362 . S
C1128 C1126 1.420 . S
C1128 C1132 1.429 . S
H1129 C1134 0.930 . S
N1130 Eu1092 2.609 . S
N1130 C1132 1.377 . S
N1130 C1133 1.321 . S
C1131 H1117 0.930 . S
C1131 C1133 1.400 . S
C1131 C1134 1.386 . S
C1132 C1128 1.429 . S
C1132 N1130 1.377 . S
C1132 C1135 1.411 . S
C1133 H1115 0.930 . S
C1133 N1130 1.321 . S
C1133 C1131 1.400 . S
C1134 H1129 0.930 . S
C1134 C1131 1.386 . S
C1134 C1135 1.395 . S
C1135 C1132 1.411 . S
C1135 C1134 1.395 . S
C1135 C1157 1.420 . S
O1136 Eu1092 2.558 . S
O1136 C1156 1.257 . S
O1137 Eu1092 2.612 . S
O1137 Eu1103 2.380 . S
O1137 C1148 1.276 . S
O1138 Eu1103 2.432 . S
O1138 C1155 1.264 . S
O1139 Eu1092 2.339 . S
O1139 C1155 1.254 . S
O1140 Eu1092 2.563 . S
O1140 C1148 1.235 . S
O1141 Eu1092 2.419 . S
O1141 C1156 1.249 . S
O1142 Eu1103 2.558 . S
O1142 C1167 1.257 . S
O1143 Eu1092 2.380 . S
O1143 Eu1103 2.612 . S
O1143 C1159 1.276 . S
O1144 Eu1092 2.432 . S
O1144 C1166 1.264 . S
O1145 Eu1103 2.339 . S
O1145 C1166 1.254 . S
O1146 Eu1103 2.563 . S
O1146 C1159 1.235 . S
O1147 Eu1103 2.419 . S
O1147 C1167 1.249 . S
C1148 O1137 1.276 . S
C1148 O1140 1.235 . S
C1149 C1151 1.393 . S
C1149 C1153 1.395 . S
C1149 C1156 1.492 . S
C1150 C1151 1.392 . S
C1150 C1152 1.386 . S
C1151 C1149 1.393 . S
C1151 C1150 1.392 . S
C1151 H1168 0.930 . S
C1152 C1150 1.386 . S
C1152 C1154 1.395 . S
C1152 H1169 0.930 . S
C1153 C1149 1.395 . S
C1153 C1154 1.379 . S
C1153 H1170 0.930 . S
C1154 C1152 1.395 . S
C1154 C1153 1.379 . S
C1154 H1171 0.930 . S
C1155 O1138 1.264 . S
C1155 O1139 1.254 . S
C1156 Eu1092 2.848 . S
C1156 O1136 1.257 . S
C1156 O1141 1.249 . S
C1156 C1149 1.492 . S
C1157 H1122 0.931 . S
C1157 C1135 1.420 . S
C1157 C1158 1.351 . S
C1158 H1120 0.930 . S
C1158 C1126 1.423 . S
C1158 C1157 1.351 . S
C1159 O1143 1.276 . S
C1159 O1146 1.235 . S
C1160 C1161 1.393 . S
C1160 C1164 1.395 . S
C1160 C1167 1.492 . S
C1161 C1160 1.393 . S
C1161 C1162 1.392 . S
C1161 H1172 0.930 . S
C1162 C1161 1.392 . S
C1162 C1163 1.386 . S
C1163 C1162 1.386 . S
C1163 C1165 1.395 . S
C1163 H1173 0.930 . S
C1164 C1160 1.395 . S
C1164 C1165 1.379 . S
C1164 H1174 0.930 . S
C1165 C1163 1.395 . S
C1165 C1164 1.379 . S
C1165 H1175 0.930 . S
C1166 O1144 1.264 . S
C1166 O1145 1.254 . S
C1167 Eu1103 2.848 . S
C1167 O1142 1.257 . S
C1167 O1147 1.249 . S
C1167 C1160 1.492 . S
H1168 C1151 0.930 . S
H1169 C1152 0.930 . S
H1170 C1153 0.930 . S
H1171 C1154 0.930 . S
H1172 C1161 0.930 . S
H1173 C1163 0.930 . S
H1174 C1164 0.930 . S
H1175 C1165 0.930 . S
Eu1176 N1207 2.657 . S
Eu1176 N1214 2.609 . S
Eu1176 O1220 2.558 . S
Eu1176 O1221 2.612 . S
Eu1176 O1223 2.339 . S
Eu1176 O1224 2.563 . S
Eu1176 O1225 2.419 . S
Eu1176 O1227 2.380 . S
Eu1176 O1228 2.432 . S
Eu1176 C1240 2.848 . S
C1177 C1180 1.429 . S
C1177 C1181 1.411 1_565 S
C1177 N1184 1.377 . S
C1178 C1180 1.420 . S
C1178 C1182 1.423 . S
C1178 C1190 1.392 . S
C1179 C1181 1.420 . S
C1179 C1182 1.351 1_545 S
C1179 H1202 0.931 . S
C1180 C1177 1.429 . S
C1180 C1178 1.420 . S
C1180 N1188 1.362 . S
C1181 C1177 1.411 1_545 S
C1181 C1179 1.420 . S
C1181 C1186 1.395 . S
C1182 C1178 1.423 . S
C1182 C1179 1.351 1_565 S
C1182 H1194 0.930 . S
C1183 C1185 1.400 1_545 S
C1183 C1186 1.386 . S
C1183 H1195 0.930 . S
N1184 C1177 1.377 . S
N1184 C1185 1.321 . S
N1184 Eu1187 2.609 . S
C1185 C1183 1.400 1_565 S
C1185 N1184 1.321 . S
C1185 H1192 0.930 . S
C1186 C1181 1.395 . S
C1186 C1183 1.386 . S
C1186 H1205 0.930 . S
Eu1187 N1184 2.609 . S
Eu1187 N1188 2.657 . S
Eu1187 O1221 2.380 . S
Eu1187 O1222 2.432 . S
Eu1187 O1226 2.558 . S
Eu1187 O1227 2.612 . S
Eu1187 O1229 2.339 . S
Eu1187 O1230 2.563 . S
Eu1187 O1231 2.419 . S
Eu1187 C1251 2.848 . S
N1188 C1180 1.362 . S
N1188 Eu1187 2.657 . S
N1188 C1189 1.334 . S
C1189 N1188 1.334 . S
C1189 C1191 1.413 . S
C1189 H1196 0.929 . S
C1190 C1178 1.392 . S
C1190 C1191 1.367 . S
C1190 H1198 0.930 . S
C1191 C1189 1.413 . S
C1191 C1190 1.367 . S
C1191 H1193 0.930 . S
H1192 C1185 0.930 . S
H1193 C1191 0.930 . S
H1194 C1182 0.930 . S
H1195 C1183 0.930 . S
H1196 C1189 0.929 . S
H1197 C1211 0.930 . S
H1198 C1190 0.930 . S
H1199 C1217 0.930 . S
H1200 C1208 0.929 . S
H1201 C1215 0.930 . S
H1202 C1179 0.931 . S
H1203 C1209 0.930 . S
H1204 C1242 0.930 . S
H1205 C1186 0.930 . S
H1206 C1241 0.931 . S
N1207 Eu1176 2.657 . S
N1207 C1208 1.334 . S
N1207 C1212 1.362 . S
C1208 H1200 0.929 . S
C1208 N1207 1.334 . S
C1208 C1211 1.413 . S
C1209 H1203 0.930 . S
C1209 C1210 1.392 . S
C1209 C1211 1.367 . S
C1210 C1209 1.392 . S
C1210 C1212 1.420 . S
C1210 C1242 1.423 . S
C1211 H1197 0.930 . S
C1211 C1208 1.413 . S
C1211 C1209 1.367 . S
C1212 N1207 1.362 . S
C1212 C1210 1.420 . S
C1212 C1216 1.429 . S
H1213 C1218 0.930 . S
N1214 Eu1176 2.609 . S
N1214 C1216 1.377 . S
N1214 C1217 1.321 . S
C1215 H1201 0.930 . S
C1215 C1217 1.400 . S
C1215 C1218 1.386 . S
C1216 C1212 1.429 . S
C1216 N1214 1.377 . S
C1216 C1219 1.411 . S
C1217 H1199 0.930 . S
C1217 N1214 1.321 . S
C1217 C1215 1.400 . S
C1218 H1213 0.930 . S
C1218 C1215 1.386 . S
C1218 C1219 1.395 . S
C1219 C1216 1.411 . S
C1219 C1218 1.395 . S
C1219 C1241 1.420 . S
O1220 Eu1176 2.558 . S
O1220 C1240 1.257 . S
O1221 Eu1176 2.612 . S
O1221 Eu1187 2.380 . S
O1221 C1232 1.276 . S
O1222 Eu1187 2.432 . S
O1222 C1239 1.264 . S
O1223 Eu1176 2.339 . S
O1223 C1239 1.254 . S
O1224 Eu1176 2.563 . S
O1224 C1232 1.235 . S
O1225 Eu1176 2.419 . S
O1225 C1240 1.249 . S
O1226 Eu1187 2.558 . S
O1226 C1251 1.257 . S
O1227 Eu1176 2.380 . S
O1227 Eu1187 2.612 . S
O1227 C1243 1.276 . S
O1228 Eu1176 2.432 . S
O1228 C1250 1.264 . S
O1229 Eu1187 2.339 . S
O1229 C1250 1.254 . S
O1230 Eu1187 2.563 . S
O1230 C1243 1.235 . S
O1231 Eu1187 2.419 . S
O1231 C1251 1.249 . S
C1232 O1221 1.276 . S
C1232 O1224 1.235 . S
C1233 C1235 1.393 . S
C1233 C1237 1.395 . S
C1233 C1240 1.492 . S
C1234 C1235 1.392 . S
C1234 C1236 1.386 . S
C1235 C1233 1.393 . S
C1235 C1234 1.392 . S
C1235 H1252 0.930 . S
C1236 C1234 1.386 . S
C1236 C1238 1.395 . S
C1236 H1253 0.930 . S
C1237 C1233 1.395 . S
C1237 C1238 1.379 . S
C1237 H1254 0.930 . S
C1238 C1236 1.395 . S
C1238 C1237 1.379 . S
C1238 H1255 0.930 . S
C1239 O1222 1.264 . S
C1239 O1223 1.254 . S
C1240 Eu1176 2.848 . S
C1240 O1220 1.257 . S
C1240 O1225 1.249 . S
C1240 C1233 1.492 . S
C1241 H1206 0.931 . S
C1241 C1219 1.420 . S
C1241 C1242 1.351 . S
C1242 H1204 0.930 . S
C1242 C1210 1.423 . S
C1242 C1241 1.351 . S
C1243 O1227 1.276 . S
C1243 O1230 1.235 . S
C1244 C1245 1.393 . S
C1244 C1248 1.395 1_565 S
C1244 C1251 1.492 . S
C1245 C1244 1.393 . S
C1245 C1246 1.392 1_565 S
C1245 H1256 0.930 . S
C1246 C1245 1.392 1_545 S
C1246 C1247 1.386 . S
C1247 C1246 1.386 . S
C1247 C1249 1.395 . S
C1247 H1257 0.930 . S
C1248 C1244 1.395 1_545 S
C1248 C1249 1.379 . S
C1248 H1258 0.930 . S
C1249 C1247 1.395 . S
C1249 C1248 1.379 . S
C1249 H1259 0.930 . S
C1250 O1228 1.264 . S
C1250 O1229 1.254 . S
C1251 Eu1187 2.848 . S
C1251 O1226 1.257 . S
C1251 O1231 1.249 . S
C1251 C1244 1.492 . S
H1252 C1235 0.930 . S
H1253 C1236 0.930 . S
H1254 C1237 0.930 . S
H1255 C1238 0.930 . S
H1256 C1245 0.930 . S
H1257 C1247 0.930 . S
H1258 C1248 0.930 . S
H1259 C1249 0.930 . S
Eu1260 N1291 2.657 . S
Eu1260 N1298 2.609 . S
Eu1260 O1304 2.558 . S
Eu1260 O1305 2.612 . S
Eu1260 O1307 2.339 . S
Eu1260 O1308 2.563 . S
Eu1260 O1309 2.419 . S
Eu1260 O1311 2.380 1_455 S
Eu1260 O1312 2.432 . S
Eu1260 C1324 2.848 . S
C1261 C1264 1.429 . S
C1261 C1265 1.411 1_545 S
C1261 N1268 1.377 . S
C1262 C1264 1.420 . S
C1262 C1266 1.423 . S
C1262 C1274 1.392 . S
C1263 C1265 1.420 . S
C1263 C1266 1.351 1_565 S
C1263 H1286 0.931 . S
C1264 C1261 1.429 . S
C1264 C1262 1.420 . S
C1264 N1272 1.362 . S
C1265 C1261 1.411 1_565 S
C1265 C1263 1.420 . S
C1265 C1270 1.395 . S
C1266 C1262 1.423 . S
C1266 C1263 1.351 1_545 S
C1266 H1278 0.930 . S
C1267 C1269 1.400 1_565 S
C1267 C1270 1.386 . S
C1267 H1279 0.930 . S
N1268 C1261 1.377 . S
N1268 C1269 1.321 . S
N1268 Eu1271 2.609 . S
C1269 C1267 1.400 1_545 S
C1269 N1268 1.321 . S
C1269 H1276 0.930 . S
C1270 C1265 1.395 . S
C1270 C1267 1.386 . S
C1270 H1289 0.930 . S
Eu1271 N1268 2.609 . S
Eu1271 N1272 2.657 . S
Eu1271 O1305 2.380 . S
Eu1271 O1306 2.432 . S
Eu1271 O1310 2.558 1_455 S
Eu1271 O1311 2.612 1_455 S
Eu1271 O1313 2.339 1_455 S
Eu1271 O1314 2.563 1_455 S
Eu1271 O1315 2.419 1_455 S
Eu1271 C1335 2.848 1_455 S
N1272 C1264 1.362 . S
N1272 Eu1271 2.657 . S
N1272 C1273 1.334 . S
C1273 N1272 1.334 . S
C1273 C1275 1.413 . S
C1273 H1280 0.929 . S
C1274 C1262 1.392 . S
C1274 C1275 1.367 . S
C1274 H1282 0.930 . S
C1275 C1273 1.413 . S
C1275 C1274 1.367 . S
C1275 H1277 0.930 . S
H1276 C1269 0.930 . S
H1277 C1275 0.930 . S
H1278 C1266 0.930 . S
H1279 C1267 0.930 . S
H1280 C1273 0.929 . S
H1281 C1295 0.930 . S
H1282 C1274 0.930 . S
H1283 C1301 0.924 1_455 S
H1284 C1292 0.929 . S
H1285 C1299 0.930 . S
H1286 C1263 0.931 . S
H1287 C1293 0.930 1_654 S
H1288 C1326 0.930 . S
H1289 C1270 0.930 . S
H1290 C1325 0.931 . S
N1291 Eu1260 2.657 . S
N1291 C1292 1.334 . S
N1291 C1296 1.362 . S
C1292 H1284 0.929 . S
C1292 N1291 1.334 . S
C1292 C1295 1.413 . S
C1293 H1287 0.930 1_456 S
C1293 C1294 1.392 1_455 S
C1293 C1295 1.367 . S
C1294 C1293 1.392 1_655 S
C1294 C1296 1.420 1_655 S
C1294 C1326 1.423 . S
C1295 H1281 0.930 . S
C1295 C1292 1.413 . S
C1295 C1293 1.367 . S
C1296 N1291 1.362 . S
C1296 C1294 1.420 1_455 S
C1296 C1300 1.429 1_455 S
H1297 C1302 0.930 . S
N1298 Eu1260 2.609 . S
N1298 C1300 1.377 1_455 S
N1298 C1301 1.317 1_455 S
C1299 H1285 0.930 . S
C1299 C1301 1.410 . S
C1299 C1302 1.386 . S
C1300 C1296 1.429 1_655 S
C1300 N1298 1.377 1_655 S
C1300 C1303 1.411 . S
C1301 H1283 0.924 1_655 S
C1301 N1298 1.317 1_655 S
C1301 C1299 1.410 . S
C1302 H1297 0.930 . S
C1302 C1299 1.386 . S
C1302 C1303 1.395 . S
C1303 C1300 1.411 . S
C1303 C1302 1.395 . S
C1303 C1325 1.420 . S
O1304 Eu1260 2.558 . S
O1304 C1324 1.257 . S
O1305 Eu1260 2.612 . S
O1305 Eu1271 2.380 . S
O1305 C1316 1.276 . S
O1306 Eu1271 2.432 . S
O1306 C1323 1.264 . S
O1307 Eu1260 2.339 . S
O1307 C1323 1.254 . S
O1308 Eu1260 2.563 . S
O1308 C1316 1.235 . S
O1309 Eu1260 2.419 . S
O1309 C1324 1.249 . S
O1310 Eu1271 2.558 1_655 S
O1310 C1335 1.257 . S
O1311 Eu1260 2.380 1_655 S
O1311 Eu1271 2.612 1_655 S
O1311 C1327 1.276 . S
O1312 Eu1260 2.432 . S
O1312 C1334 1.264 1_455 S
O1313 Eu1271 2.339 1_655 S
O1313 C1334 1.254 . S
O1314 Eu1271 2.563 1_655 S
O1314 C1327 1.235 . S
O1315 Eu1271 2.419 1_655 S
O1315 C1335 1.249 . S
C1316 O1305 1.276 . S
C1316 O1308 1.235 . S
C1317 C1319 1.393 . S
C1317 C1321 1.395 . S
C1317 C1324 1.492 . S
C1318 C1319 1.392 . S
C1318 C1320 1.386 . S
C1319 C1317 1.393 . S
C1319 C1318 1.392 . S
C1319 H1336 0.930 . S
C1320 C1318 1.386 . S
C1320 C1322 1.395 . S
C1320 H1337 0.930 . S
C1321 C1317 1.395 . S
C1321 C1322 1.379 . S
C1321 H1338 0.930 . S
C1322 C1320 1.395 . S
C1322 C1321 1.379 . S
C1322 H1339 0.930 . S
C1323 O1306 1.264 . S
C1323 O1307 1.254 . S
C1324 Eu1260 2.848 . S
C1324 O1304 1.257 . S
C1324 O1309 1.249 . S
C1324 C1317 1.492 . S
C1325 H1290 0.931 . S
C1325 C1303 1.420 . S
C1325 C1326 1.351 . S
C1326 H1288 0.930 . S
C1326 C1294 1.423 . S
C1326 C1325 1.351 . S
C1327 O1311 1.276 . S
C1327 O1314 1.235 . S
C1328 C1329 1.393 . S
C1328 C1332 1.395 1_545 S
C1328 C1335 1.492 . S
C1329 C1328 1.393 . S
C1329 C1330 1.392 1_545 S
C1329 H1340 0.930 . S
C1330 C1329 1.392 1_565 S
C1330 C1331 1.386 . S
C1331 C1330 1.386 . S
C1331 C1333 1.395 . S
C1331 H1341 0.930 . S
C1332 C1328 1.395 1_565 S
C1332 C1333 1.379 . S
C1332 H1342 0.930 . S
C1333 C1331 1.395 . S
C1333 C1332 1.379 . S
C1333 H1343 0.930 . S
C1334 O1312 1.264 1_655 S
C1334 O1313 1.254 . S
C1335 Eu1271 2.848 1_655 S
C1335 O1310 1.257 . S
C1335 O1315 1.249 . S
C1335 C1328 1.492 . S
H1336 C1319 0.930 . S
H1337 C1320 0.930 . S
H1338 C1321 0.930 . S
H1339 C1322 0.930 . S
H1340 C1329 0.930 . S
H1341 C1331 0.930 . S
H1342 C1332 0.930 . S
H1343 C1333 0.930 . S
Eu1344 N1375 2.657 . S
Eu1344 N1382 2.609 . S
Eu1344 O1388 2.558 . S
Eu1344 O1389 2.612 . S
Eu1344 O1391 2.339 . S
Eu1344 O1392 2.563 . S
Eu1344 O1393 2.419 . S
Eu1344 O1395 2.380 1_565 S
Eu1344 O1396 2.432 . S
Eu1344 C1408 2.848 . S
C1345 C1348 1.429 . S
C1345 C1349 1.411 . S
C1345 N1352 1.377 . S
C1346 C1348 1.420 . S
C1346 C1350 1.423 . S
C1346 C1358 1.392 . S
C1347 C1349 1.420 . S
C1347 C1350 1.351 . S
C1347 H1370 0.931 . S
C1348 C1345 1.429 . S
C1348 C1346 1.420 . S
C1348 N1356 1.362 . S
C1349 C1345 1.411 . S
C1349 C1347 1.420 . S
C1349 C1354 1.395 . S
C1350 C1346 1.423 . S
C1350 C1347 1.351 . S
C1350 H1362 0.930 . S
C1351 C1353 1.400 . S
C1351 C1354 1.386 . S
C1351 H1363 0.930 . S
N1352 C1345 1.377 . S
N1352 C1353 1.321 . S
N1352 Eu1355 2.609 . S
C1353 C1351 1.400 . S
C1353 N1352 1.321 . S
C1353 H1360 0.930 . S
C1354 C1349 1.395 . S
C1354 C1351 1.386 . S
C1354 H1373 0.930 . S
Eu1355 N1352 2.609 . S
Eu1355 N1356 2.657 . S
Eu1355 O1389 2.380 . S
Eu1355 O1390 2.432 . S
Eu1355 O1394 2.558 1_565 S
Eu1355 O1395 2.612 1_565 S
Eu1355 O1397 2.339 1_565 S
Eu1355 O1398 2.563 1_565 S
Eu1355 O1399 2.419 1_565 S
Eu1355 C1419 2.848 1_565 S
N1356 C1348 1.362 . S
N1356 Eu1355 2.657 . S
N1356 C1357 1.334 . S
C1357 N1356 1.334 . S
C1357 C1359 1.413 . S
C1357 H1364 0.929 . S
C1358 C1346 1.392 . S
C1358 C1359 1.367 . S
C1358 H1366 0.930 . S
C1359 C1357 1.413 . S
C1359 C1358 1.367 . S
C1359 H1361 0.930 . S
H1360 C1353 0.930 . S
H1361 C1359 0.930 . S
H1362 C1350 0.930 . S
H1363 C1351 0.930 . S
H1364 C1357 0.929 . S
H1365 C1379 0.930 . S
H1366 C1358 0.930 . S
H1367 C1385 0.924 1_565 S
H1368 C1376 0.929 . S
H1369 C1383 0.930 . S
H1370 C1347 0.931 . S
H1371 C1377 0.930 1_545 S
H1372 C1410 0.930 . S
H1373 C1354 0.930 . S
H1374 C1409 0.931 . S
N1375 Eu1344 2.657 . S
N1375 C1376 1.334 . S
N1375 C1380 1.362 . S
C1376 H1368 0.929 . S
C1376 N1375 1.334 . S
C1376 C1379 1.413 . S
C1377 H1371 0.930 1_565 S
C1377 C1378 1.392 1_565 S
C1377 C1379 1.367 . S
C1378 C1377 1.392 1_545 S
C1378 C1380 1.420 1_545 S
C1378 C1410 1.423 . S
C1379 H1365 0.930 . S
C1379 C1376 1.413 . S
C1379 C1377 1.367 . S
C1380 N1375 1.362 . S
C1380 C1378 1.420 1_565 S
C1380 C1384 1.429 1_565 S
H1381 C1386 0.930 . S
N1382 Eu1344 2.609 . S
N1382 C1384 1.377 1_565 S
N1382 C1385 1.317 1_565 S
C1383 H1369 0.930 . S
C1383 C1385 1.410 . S
C1383 C1386 1.386 . S
C1384 C1380 1.429 1_545 S
C1384 N1382 1.377 1_545 S
C1384 C1387 1.411 . S
C1385 H1367 0.924 1_545 S
C1385 N1382 1.317 1_545 S
C1385 C1383 1.410 . S
C1386 H1381 0.930 . S
C1386 C1383 1.386 . S
C1386 C1387 1.395 . S
C1387 C1384 1.411 . S
C1387 C1386 1.395 . S
C1387 C1409 1.420 . S
O1388 Eu1344 2.558 . S
O1388 C1408 1.257 . S
O1389 Eu1344 2.612 . S
O1389 Eu1355 2.380 . S
O1389 C1400 1.276 . S
O1390 Eu1355 2.432 . S
O1390 C1407 1.264 . S
O1391 Eu1344 2.339 . S
O1391 C1407 1.254 . S
O1392 Eu1344 2.563 . S
O1392 C1400 1.235 . S
O1393 Eu1344 2.419 . S
O1393 C1408 1.249 . S
O1394 Eu1355 2.558 1_545 S
O1394 C1419 1.257 . S
O1395 Eu1344 2.380 1_545 S
O1395 Eu1355 2.612 1_545 S
O1395 C1411 1.276 . S
O1396 Eu1344 2.432 . S
O1396 C1418 1.264 1_565 S
O1397 Eu1355 2.339 1_545 S
O1397 C1418 1.254 . S
O1398 Eu1355 2.563 1_545 S
O1398 C1411 1.235 . S
O1399 Eu1355 2.419 1_545 S
O1399 C1419 1.249 . S
C1400 O1389 1.276 . S
C1400 O1392 1.235 . S
C1401 C1403 1.393 . S
C1401 C1405 1.395 . S
C1401 C1408 1.492 . S
C1402 C1403 1.392 . S
C1402 C1404 1.386 . S
C1403 C1401 1.393 . S
C1403 C1402 1.392 . S
C1403 H1420 0.930 . S
C1404 C1402 1.386 . S
C1404 C1406 1.395 . S
C1404 H1421 0.930 . S
C1405 C1401 1.395 . S
C1405 C1406 1.379 . S
C1405 H1422 0.930 . S
C1406 C1404 1.395 . S
C1406 C1405 1.379 . S
C1406 H1423 0.930 . S
C1407 O1390 1.264 . S
C1407 O1391 1.254 . S
C1408 Eu1344 2.848 . S
C1408 O1388 1.257 . S
C1408 O1393 1.249 . S
C1408 C1401 1.492 . S
C1409 H1374 0.931 . S
C1409 C1387 1.420 . S
C1409 C1410 1.351 . S
C1410 H1372 0.930 . S
C1410 C1378 1.423 . S
C1410 C1409 1.351 . S
C1411 O1395 1.276 . S
C1411 O1398 1.235 . S
C1412 C1413 1.393 . S
C1412 C1416 1.395 . S
C1412 C1419 1.492 . S
C1413 C1412 1.393 . S
C1413 C1414 1.392 . S
C1413 H1424 0.930 . S
C1414 C1413 1.392 . S
C1414 C1415 1.386 . S
C1415 C1414 1.386 . S
C1415 C1417 1.395 . S
C1415 H1425 0.930 . S
C1416 C1412 1.395 . S
C1416 C1417 1.379 . S
C1416 H1426 0.930 . S
C1417 C1415 1.395 . S
C1417 C1416 1.379 . S
C1417 H1427 0.930 . S
C1418 O1396 1.264 1_545 S
C1418 O1397 1.254 . S
C1419 Eu1355 2.848 1_545 S
C1419 O1394 1.257 . S
C1419 O1399 1.249 . S
C1419 C1412 1.492 . S
H1420 C1403 0.930 . S
H1421 C1404 0.930 . S
H1422 C1405 0.930 . S
H1423 C1406 0.930 . S
H1424 C1413 0.930 . S
H1425 C1415 0.930 . S
H1426 C1416 0.930 . S
H1427 C1417 0.930 . S
Eu1428 N1459 2.657 . S
Eu1428 N1466 2.609 . S
Eu1428 O1472 2.558 . S
Eu1428 O1473 2.612 . S
Eu1428 O1475 2.339 . S
Eu1428 O1476 2.563 . S
Eu1428 O1477 2.419 . S
Eu1428 O1479 2.380 1_545 S
Eu1428 O1480 2.432 . S
Eu1428 C1492 2.848 . S
C1429 C1432 1.429 . S
C1429 C1433 1.411 1_554 S
C1429 N1436 1.377 . S
C1430 C1432 1.420 . S
C1430 C1434 1.423 . S
C1430 C1442 1.392 . S
C1431 C1433 1.420 . S
C1431 C1434 1.351 1_556 S
C1431 H1454 0.931 . S
C1432 C1429 1.429 . S
C1432 C1430 1.420 . S
C1432 N1440 1.362 . S
C1433 C1429 1.411 1_556 S
C1433 C1431 1.420 . S
C1433 C1438 1.395 . S
C1434 C1430 1.423 . S
C1434 C1431 1.351 1_554 S
C1434 H1446 0.930 . S
C1435 C1437 1.400 1_556 S
C1435 C1438 1.386 . S
C1435 H1447 0.930 . S
N1436 C1429 1.377 . S
N1436 C1437 1.321 . S
N1436 Eu1439 2.609 . S
C1437 C1435 1.400 1_554 S
C1437 N1436 1.321 . S
C1437 H1444 0.930 . S
C1438 C1433 1.395 . S
C1438 C1435 1.386 . S
C1438 H1457 0.930 . S
Eu1439 N1436 2.609 . S
Eu1439 N1440 2.657 . S
Eu1439 O1473 2.380 . S
Eu1439 O1474 2.432 . S
Eu1439 O1478 2.558 1_545 S
Eu1439 O1479 2.612 1_545 S
Eu1439 O1481 2.339 1_545 S
Eu1439 O1482 2.563 1_545 S
Eu1439 O1483 2.419 1_545 S
Eu1439 C1503 2.848 1_545 S
N1440 C1432 1.362 . S
N1440 Eu1439 2.657 . S
N1440 C1441 1.334 . S
C1441 N1440 1.334 . S
C1441 C1443 1.413 . S
C1441 H1448 0.929 . S
C1442 C1430 1.392 . S
C1442 C1443 1.367 . S
C1442 H1450 0.930 . S
C1443 C1441 1.413 . S
C1443 C1442 1.367 . S
C1443 H1445 0.930 . S
H1444 C1437 0.930 . S
H1445 C1443 0.930 . S
H1446 C1434 0.930 . S
H1447 C1435 0.930 . S
H1448 C1441 0.929 . S
H1449 C1463 0.930 . S
H1450 C1442 0.930 . S
H1451 C1469 0.924 1_545 S
H1452 C1460 0.929 . S
H1453 C1467 0.930 . S
H1454 C1431 0.931 . S
H1455 C1461 0.930 1_465 S
H1456 C1494 0.930 . S
H1457 C1438 0.930 . S
H1458 C1493 0.931 . S
N1459 Eu1428 2.657 . S
N1459 C1460 1.334 . S
N1459 C1464 1.362 . S
C1460 H1452 0.929 . S
C1460 N1459 1.334 . S
C1460 C1463 1.413 . S
C1461 H1455 0.930 1_645 S
C1461 C1462 1.392 1_545 S
C1461 C1463 1.367 . S
C1462 C1461 1.392 1_565 S
C1462 C1464 1.420 1_565 S
C1462 C1494 1.423 . S
C1463 H1449 0.930 . S
C1463 C1460 1.413 . S
C1463 C1461 1.367 . S
C1464 N1459 1.362 . S
C1464 C1462 1.420 1_545 S
C1464 C1468 1.429 1_545 S
H1465 C1470 0.930 . S
N1466 Eu1428 2.609 . S
N1466 C1468 1.377 1_545 S
N1466 C1469 1.317 1_545 S
C1467 H1453 0.930 . S
C1467 C1469 1.410 . S
C1467 C1470 1.386 . S
C1468 C1464 1.429 1_565 S
C1468 N1466 1.377 1_565 S
C1468 C1471 1.411 . S
C1469 H1451 0.924 1_565 S
C1469 N1466 1.317 1_565 S
C1469 C1467 1.410 . S
C1470 H1465 0.930 . S
C1470 C1467 1.386 . S
C1470 C1471 1.395 . S
C1471 C1468 1.411 . S
C1471 C1470 1.395 . S
C1471 C1493 1.420 . S
O1472 Eu1428 2.558 . S
O1472 C1492 1.257 . S
O1473 Eu1428 2.612 . S
O1473 Eu1439 2.380 . S
O1473 C1484 1.276 . S
O1474 Eu1439 2.432 . S
O1474 C1491 1.264 . S
O1475 Eu1428 2.339 . S
O1475 C1491 1.254 . S
O1476 Eu1428 2.563 . S
O1476 C1484 1.235 . S
O1477 Eu1428 2.419 . S
O1477 C1492 1.249 . S
O1478 Eu1439 2.558 1_565 S
O1478 C1503 1.257 . S
O1479 Eu1428 2.380 1_565 S
O1479 Eu1439 2.612 1_565 S
O1479 C1495 1.276 . S
O1480 Eu1428 2.432 . S
O1480 C1502 1.264 1_545 S
O1481 Eu1439 2.339 1_565 S
O1481 C1502 1.254 . S
O1482 Eu1439 2.563 1_565 S
O1482 C1495 1.235 . S
O1483 Eu1439 2.419 1_565 S
O1483 C1503 1.249 . S
C1484 O1473 1.276 . S
C1484 O1476 1.235 . S
C1485 C1487 1.393 . S
C1485 C1489 1.395 . S
C1485 C1492 1.492 . S
C1486 C1487 1.392 . S
C1486 C1488 1.386 . S
C1487 C1485 1.393 . S
C1487 C1486 1.392 . S
C1487 H1504 0.930 . S
C1488 C1486 1.386 . S
C1488 C1490 1.395 . S
C1488 H1505 0.930 . S
C1489 C1485 1.395 . S
C1489 C1490 1.379 . S
C1489 H1506 0.930 . S
C1490 C1488 1.395 . S
C1490 C1489 1.379 . S
C1490 H1507 0.930 . S
C1491 O1474 1.264 . S
C1491 O1475 1.254 . S
C1492 Eu1428 2.848 . S
C1492 O1472 1.257 . S
C1492 O1477 1.249 . S
C1492 C1485 1.492 . S
C1493 H1458 0.931 . S
C1493 C1471 1.420 . S
C1493 C1494 1.351 . S
C1494 H1456 0.930 . S
C1494 C1462 1.423 . S
C1494 C1493 1.351 . S
C1495 O1479 1.276 . S
C1495 O1482 1.235 . S
C1496 C1497 1.393 . S
C1496 C1500 1.395 1_554 S
C1496 C1503 1.492 . S
C1497 C1496 1.393 . S
C1497 C1498 1.392 1_554 S
C1497 H1508 0.930 . S
C1498 C1497 1.392 1_556 S
C1498 C1499 1.386 . S
C1499 C1498 1.386 . S
C1499 C1501 1.395 . S
C1499 H1509 0.930 . S
C1500 C1496 1.395 1_556 S
C1500 C1501 1.379 . S
C1500 H1510 0.930 . S
C1501 C1499 1.395 . S
C1501 C1500 1.379 . S
C1501 H1511 0.930 . S
C1502 O1480 1.264 1_565 S
C1502 O1481 1.254 . S
C1503 Eu1439 2.848 1_565 S
C1503 O1478 1.257 . S
C1503 O1483 1.249 . S
C1503 C1496 1.492 . S
H1504 C1487 0.930 . S
H1505 C1488 0.930 . S
H1506 C1489 0.930 . S
H1507 C1490 0.930 . S
H1508 C1497 0.930 . S
H1509 C1499 0.930 . S
H1510 C1500 0.930 . S
H1511 C1501 0.930 . S
Eu1512 N1543 2.657 . S
Eu1512 N1550 2.609 . S
Eu1512 O1556 2.558 . S
Eu1512 O1557 2.612 . S
Eu1512 O1559 2.339 . S
Eu1512 O1560 2.563 . S
Eu1512 O1561 2.419 . S
Eu1512 O1563 2.380 . S
Eu1512 O1564 2.432 . S
Eu1512 C1576 2.848 . S
C1513 C1516 1.429 . S
C1513 C1517 1.411 . S
C1513 N1520 1.377 . S
C1514 C1516 1.420 . S
C1514 C1518 1.423 . S
C1514 C1526 1.392 . S
C1515 C1517 1.420 . S
C1515 C1518 1.351 . S
C1515 H1538 0.931 . S
C1516 C1513 1.429 . S
C1516 C1514 1.420 . S
C1516 N1524 1.362 . S
C1517 C1513 1.411 . S
C1517 C1515 1.420 . S
C1517 C1522 1.395 . S
C1518 C1514 1.423 . S
C1518 C1515 1.351 . S
C1518 H1530 0.930 . S
C1519 C1521 1.400 . S
C1519 C1522 1.386 . S
C1519 H1531 0.930 . S
N1520 C1513 1.377 . S
N1520 C1521 1.321 . S
N1520 Eu1523 2.609 . S
C1521 C1519 1.400 . S
C1521 N1520 1.321 . S
C1521 H1528 0.930 . S
C1522 C1517 1.395 . S
C1522 C1519 1.386 . S
C1522 H1541 0.930 . S
Eu1523 N1520 2.609 . S
Eu1523 N1524 2.657 . S
Eu1523 O1557 2.380 . S
Eu1523 O1558 2.432 . S
Eu1523 O1562 2.558 . S
Eu1523 O1563 2.612 . S
Eu1523 O1565 2.339 . S
Eu1523 O1566 2.563 . S
Eu1523 O1567 2.419 . S
Eu1523 C1587 2.848 . S
N1524 C1516 1.362 . S
N1524 Eu1523 2.657 . S
N1524 C1525 1.334 . S
C1525 N1524 1.334 . S
C1525 C1527 1.413 . S
C1525 H1532 0.929 . S
C1526 C1514 1.392 . S
C1526 C1527 1.367 . S
C1526 H1534 0.930 . S
C1527 C1525 1.413 . S
C1527 C1526 1.367 . S
C1527 H1529 0.930 . S
H1528 C1521 0.930 . S
H1529 C1527 0.930 . S
H1530 C1518 0.930 . S
H1531 C1519 0.930 . S
H1532 C1525 0.929 . S
H1533 C1547 0.930 . S
H1534 C1526 0.930 . S
H1535 C1553 0.930 . S
H1536 C1544 0.929 . S
H1537 C1551 0.930 . S
H1538 C1515 0.931 . S
H1539 C1545 0.930 1_655 S
H1540 C1578 0.930 . S
H1541 C1522 0.930 . S
H1542 C1577 0.931 . S
N1543 Eu1512 2.657 . S
N1543 C1544 1.334 . S
N1543 C1548 1.362 . S
C1544 H1536 0.929 . S
C1544 N1543 1.334 . S
C1544 C1547 1.413 . S
C1545 H1539 0.930 1_455 S
C1545 C1546 1.392 . S
C1545 C1547 1.367 . S
C1546 C1545 1.392 . S
C1546 C1548 1.420 . S
C1546 C1578 1.423 . S
C1547 H1533 0.930 . S
C1547 C1544 1.413 . S
C1547 C1545 1.367 . S
C1548 N1543 1.362 . S
C1548 C1546 1.420 . S
C1548 C1552 1.429 . S
H1549 C1554 0.930 . S
N1550 Eu1512 2.609 . S
N1550 C1552 1.377 . S
N1550 C1553 1.321 . S
C1551 H1537 0.930 . S
C1551 C1553 1.400 . S
C1551 C1554 1.386 . S
C1552 C1548 1.429 . S
C1552 N1550 1.377 . S
C1552 C1555 1.411 . S
C1553 H1535 0.930 . S
C1553 N1550 1.321 . S
C1553 C1551 1.400 . S
C1554 H1549 0.930 . S
C1554 C1551 1.386 . S
C1554 C1555 1.395 . S
C1555 C1552 1.411 . S
C1555 C1554 1.395 . S
C1555 C1577 1.420 . S
O1556 Eu1512 2.558 . S
O1556 C1576 1.257 . S
O1557 Eu1512 2.612 . S
O1557 Eu1523 2.380 . S
O1557 C1568 1.276 . S
O1558 Eu1523 2.432 . S
O1558 C1575 1.264 . S
O1559 Eu1512 2.339 . S
O1559 C1575 1.254 . S
O1560 Eu1512 2.563 . S
O1560 C1568 1.235 . S
O1561 Eu1512 2.419 . S
O1561 C1576 1.249 . S
O1562 Eu1523 2.558 . S
O1562 C1587 1.257 . S
O1563 Eu1512 2.380 . S
O1563 Eu1523 2.612 . S
O1563 C1579 1.276 . S
O1564 Eu1512 2.432 . S
O1564 C1586 1.264 . S
O1565 Eu1523 2.339 . S
O1565 C1586 1.254 . S
O1566 Eu1523 2.563 . S
O1566 C1579 1.235 . S
O1567 Eu1523 2.419 . S
O1567 C1587 1.249 . S
C1568 O1557 1.276 . S
C1568 O1560 1.235 . S
C1569 C1571 1.393 . S
C1569 C1573 1.395 . S
C1569 C1576 1.492 . S
C1570 C1571 1.392 . S
C1570 C1572 1.386 . S
C1571 C1569 1.393 . S
C1571 C1570 1.392 . S
C1571 H1588 0.930 . S
C1572 C1570 1.386 . S
C1572 C1574 1.395 . S
C1572 H1589 0.930 . S
C1573 C1569 1.395 . S
C1573 C1574 1.379 . S
C1573 H1590 0.930 . S
C1574 C1572 1.395 . S
C1574 C1573 1.379 . S
C1574 H1591 0.930 . S
C1575 O1558 1.264 . S
C1575 O1559 1.254 . S
C1576 Eu1512 2.848 . S
C1576 O1556 1.257 . S
C1576 O1561 1.249 . S
C1576 C1569 1.492 . S
C1577 H1542 0.931 . S
C1577 C1555 1.420 . S
C1577 C1578 1.351 . S
C1578 H1540 0.930 . S
C1578 C1546 1.423 . S
C1578 C1577 1.351 . S
C1579 O1563 1.276 . S
C1579 O1566 1.235 . S
C1580 C1581 1.393 . S
C1580 C1584 1.395 . S
C1580 C1587 1.492 . S
C1581 C1580 1.393 . S
C1581 C1582 1.392 . S
C1581 H1592 0.930 . S
C1582 C1581 1.392 . S
C1582 C1583 1.386 . S
C1583 C1582 1.386 . S
C1583 C1585 1.395 . S
C1583 H1593 0.930 . S
C1584 C1580 1.395 . S
C1584 C1585 1.379 . S
C1584 H1594 0.930 . S
C1585 C1583 1.395 . S
C1585 C1584 1.379 . S
C1585 H1595 0.930 . S
C1586 O1564 1.264 . S
C1586 O1565 1.254 . S
C1587 Eu1523 2.848 . S
C1587 O1562 1.257 . S
C1587 O1567 1.249 . S
C1587 C1580 1.492 . S
H1588 C1571 0.930 . S
H1589 C1572 0.930 . S
H1590 C1573 0.930 . S
H1591 C1574 0.930 . S
H1592 C1581 0.930 . S
H1593 C1583 0.930 . S
H1594 C1584 0.930 . S
H1595 C1585 0.930 . S
Eu1596 N1627 2.657 . S
Eu1596 N1634 2.609 . S
Eu1596 O1640 2.558 . S
Eu1596 O1641 2.612 . S
Eu1596 O1643 2.339 . S
Eu1596 O1644 2.563 . S
Eu1596 O1645 2.419 . S
Eu1596 O1647 2.380 . S
Eu1596 O1648 2.432 . S
Eu1596 C1660 2.848 . S
C1597 C1600 1.429 . S
C1597 C1601 1.411 1_556 S
C1597 N1604 1.377 . S
C1598 C1600 1.420 . S
C1598 C1602 1.423 . S
C1598 C1610 1.392 . S
C1599 C1601 1.420 . S
C1599 C1602 1.351 1_554 S
C1599 H1622 0.931 . S
C1600 C1597 1.429 . S
C1600 C1598 1.420 . S
C1600 N1608 1.362 . S
C1601 C1597 1.411 1_554 S
C1601 C1599 1.420 . S
C1601 C1606 1.395 . S
C1602 C1598 1.423 . S
C1602 C1599 1.351 1_556 S
C1602 H1614 0.930 . S
C1603 C1605 1.400 1_554 S
C1603 C1606 1.386 . S
C1603 H1615 0.930 . S
N1604 C1597 1.377 . S
N1604 C1605 1.321 . S
N1604 Eu1607 2.609 . S
C1605 C1603 1.400 1_556 S
C1605 N1604 1.321 . S
C1605 H1612 0.930 . S
C1606 C1601 1.395 . S
C1606 C1603 1.386 . S
C1606 H1625 0.930 . S
Eu1607 N1604 2.609 . S
Eu1607 N1608 2.657 . S
Eu1607 O1641 2.380 . S
Eu1607 O1642 2.432 . S
Eu1607 O1646 2.558 . S
Eu1607 O1647 2.612 . S
Eu1607 O1649 2.339 . S
Eu1607 O1650 2.563 . S
Eu1607 O1651 2.419 . S
Eu1607 C1671 2.848 . S
N1608 C1600 1.362 . S
N1608 Eu1607 2.657 . S
N1608 C1609 1.334 . S
C1609 N1608 1.334 . S
C1609 C1611 1.413 . S
C1609 H1616 0.929 . S
C1610 C1598 1.392 . S
C1610 C1611 1.367 . S
C1610 H1618 0.930 . S
C1611 C1609 1.413 . S
C1611 C1610 1.367 . S
C1611 H1613 0.930 . S
H1612 C1605 0.930 . S
H1613 C1611 0.930 . S
H1614 C1602 0.930 . S
H1615 C1603 0.930 . S
H1616 C1609 0.929 . S
H1617 C1631 0.930 . S
H1618 C1610 0.930 . S
H1619 C1637 0.930 . S
H1620 C1628 0.929 . S
H1621 C1635 0.930 . S
H1622 C1599 0.931 . S
H1623 C1629 0.930 . S
H1624 C1662 0.930 . S
H1625 C1606 0.930 . S
H1626 C1661 0.931 . S
N1627 Eu1596 2.657 . S
N1627 C1628 1.334 . S
N1627 C1632 1.362 . S
C1628 H1620 0.929 . S
C1628 N1627 1.334 . S
C1628 C1631 1.413 . S
C1629 H1623 0.930 . S
C1629 C1630 1.392 . S
C1629 C1631 1.367 . S
C1630 C1629 1.392 . S
C1630 C1632 1.420 . S
C1630 C1662 1.423 . S
C1631 H1617 0.930 . S
C1631 C1628 1.413 . S
C1631 C1629 1.367 . S
C1632 N1627 1.362 . S
C1632 C1630 1.420 . S
C1632 C1636 1.429 . S
H1633 C1638 0.930 . S
N1634 Eu1596 2.609 . S
N1634 C1636 1.377 . S
N1634 C1637 1.321 . S
C1635 H1621 0.930 . S
C1635 C1637 1.400 . S
C1635 C1638 1.386 . S
C1636 C1632 1.429 . S
C1636 N1634 1.377 . S
C1636 C1639 1.411 . S
C1637 H1619 0.930 . S
C1637 N1634 1.321 . S
C1637 C1635 1.400 . S
C1638 H1633 0.930 . S
C1638 C1635 1.386 . S
C1638 C1639 1.395 . S
C1639 C1636 1.411 . S
C1639 C1638 1.395 . S
C1639 C1661 1.420 . S
O1640 Eu1596 2.558 . S
O1640 C1660 1.257 . S
O1641 Eu1596 2.612 . S
O1641 Eu1607 2.380 . S
O1641 C1652 1.276 . S
O1642 Eu1607 2.432 . S
O1642 C1659 1.264 . S
O1643 Eu1596 2.339 . S
O1643 C1659 1.254 . S
O1644 Eu1596 2.563 . S
O1644 C1652 1.235 . S
O1645 Eu1596 2.419 . S
O1645 C1660 1.249 . S
O1646 Eu1607 2.558 . S
O1646 C1671 1.257 . S
O1647 Eu1596 2.380 . S
O1647 Eu1607 2.612 . S
O1647 C1663 1.276 . S
O1648 Eu1596 2.432 . S
O1648 C1670 1.264 . S
O1649 Eu1607 2.339 . S
O1649 C1670 1.254 . S
O1650 Eu1607 2.563 . S
O1650 C1663 1.235 . S
O1651 Eu1607 2.419 . S
O1651 C1671 1.249 . S
C1652 O1641 1.276 . S
C1652 O1644 1.235 . S
C1653 C1655 1.393 . S
C1653 C1657 1.395 . S
C1653 C1660 1.492 . S
C1654 C1655 1.392 . S
C1654 C1656 1.386 . S
C1655 C1653 1.393 . S
C1655 C1654 1.392 . S
C1655 H1672 0.930 . S
C1656 C1654 1.386 . S
C1656 C1658 1.395 . S
C1656 H1673 0.930 . S
C1657 C1653 1.395 . S
C1657 C1658 1.379 . S
C1657 H1674 0.930 . S
C1658 C1656 1.395 . S
C1658 C1657 1.379 . S
C1658 H1675 0.930 . S
C1659 O1642 1.264 . S
C1659 O1643 1.254 . S
C1660 Eu1596 2.848 . S
C1660 O1640 1.257 . S
C1660 O1645 1.249 . S
C1660 C1653 1.492 . S
C1661 H1626 0.931 . S
C1661 C1639 1.420 . S
C1661 C1662 1.351 . S
C1662 H1624 0.930 . S
C1662 C1630 1.423 . S
C1662 C1661 1.351 . S
C1663 O1647 1.276 . S
C1663 O1650 1.235 . S
C1664 C1665 1.393 . S
C1664 C1668 1.395 1_556 S
C1664 C1671 1.492 . S
C1665 C1664 1.393 . S
C1665 C1666 1.392 1_556 S
C1665 H1676 0.930 . S
C1666 C1665 1.392 1_554 S
C1666 C1667 1.386 . S
C1667 C1666 1.386 . S
C1667 C1669 1.395 . S
C1667 H1677 0.930 . S
C1668 C1664 1.395 1_554 S
C1668 C1669 1.379 . S
C1668 H1678 0.930 . S
C1669 C1667 1.395 . S
C1669 C1668 1.379 . S
C1669 H1679 0.930 . S
C1670 O1648 1.264 . S
C1670 O1649 1.254 . S
C1671 Eu1607 2.848 . S
C1671 O1646 1.257 . S
C1671 O1651 1.249 . S
C1671 C1664 1.492 . S
H1672 C1655 0.930 . S
H1673 C1656 0.930 . S
H1674 C1657 0.930 . S
H1675 C1658 0.930 . S
H1676 C1665 0.930 . S
H1677 C1667 0.930 . S
H1678 C1668 0.930 . S
H1679 C1669 0.930 . S
Eu1680 N1711 2.657 . S
Eu1680 N1718 2.609 . S
Eu1680 O1724 2.558 . S
Eu1680 O1725 2.612 . S
Eu1680 O1727 2.339 . S
Eu1680 O1728 2.563 . S
Eu1680 O1729 2.419 . S
Eu1680 O1731 2.380 1_556 S
Eu1680 O1732 2.432 . S
Eu1680 C1744 2.848 . S
C1681 C1684 1.429 . S
C1681 C1685 1.411 . S
C1681 N1688 1.377 . S
C1682 C1684 1.420 . S
C1682 C1686 1.423 . S
C1682 C1694 1.392 . S
C1683 C1685 1.420 . S
C1683 C1686 1.351 . S
C1683 H1706 0.931 . S
C1684 C1681 1.429 . S
C1684 C1682 1.420 . S
C1684 N1692 1.362 . S
C1685 C1681 1.411 . S
C1685 C1683 1.420 . S
C1685 C1690 1.395 . S
C1686 C1682 1.423 . S
C1686 C1683 1.351 . S
C1686 H1698 0.930 . S
C1687 C1689 1.400 . S
C1687 C1690 1.386 . S
C1687 H1699 0.930 . S
N1688 C1681 1.377 . S
N1688 C1689 1.321 . S
N1688 Eu1691 2.609 . S
C1689 C1687 1.400 . S
C1689 N1688 1.321 . S
C1689 H1696 0.930 . S
C1690 C1685 1.395 . S
C1690 C1687 1.386 . S
C1690 H1709 0.930 . S
Eu1691 N1688 2.609 . S
Eu1691 N1692 2.657 . S
Eu1691 O1725 2.380 . S
Eu1691 O1726 2.432 . S
Eu1691 O1730 2.558 1_556 S
Eu1691 O1731 2.612 1_556 S
Eu1691 O1733 2.339 1_556 S
Eu1691 O1734 2.563 1_556 S
Eu1691 O1735 2.419 1_556 S
Eu1691 C1755 2.848 1_556 S
N1692 C1684 1.362 . S
N1692 Eu1691 2.657 . S
N1692 C1693 1.334 . S
C1693 N1692 1.334 . S
C1693 C1695 1.413 . S
C1693 H1700 0.929 . S
C1694 C1682 1.392 . S
C1694 C1695 1.367 . S
C1694 H1702 0.930 . S
C1695 C1693 1.413 . S
C1695 C1694 1.367 . S
C1695 H1697 0.930 . S
H1696 C1689 0.930 . S
H1697 C1695 0.930 . S
H1698 C1686 0.930 . S
H1699 C1687 0.930 . S
H1700 C1693 0.929 . S
H1701 C1715 0.930 . S
H1702 C1694 0.930 . S
H1703 C1721 0.924 1_556 S
H1704 C1712 0.929 . S
H1705 C1719 0.930 . S
H1706 C1683 0.931 . S
H1707 C1713 0.930 1_554 S
H1708 C1746 0.930 . S
H1709 C1690 0.930 . S
H1710 C1745 0.931 . S
N1711 Eu1680 2.657 . S
N1711 C1712 1.334 . S
N1711 C1716 1.362 . S
C1712 H1704 0.929 . S
C1712 N1711 1.334 . S
C1712 C1715 1.413 . S
C1713 H1707 0.930 1_556 S
C1713 C1714 1.392 1_556 S
C1713 C1715 1.367 . S
C1714 C1713 1.392 1_554 S
C1714 C1716 1.420 1_554 S
C1714 C1746 1.423 . S
C1715 H1701 0.930 . S
C1715 C1712 1.413 . S
C1715 C1713 1.367 . S
C1716 N1711 1.362 . S
C1716 C1714 1.420 1_556 S
C1716 C1720 1.429 1_556 S
H1717 C1722 0.930 . S
N1718 Eu1680 2.609 . S
N1718 C1720 1.377 1_556 S
N1718 C1721 1.317 1_556 S
C1719 H1705 0.930 . S
C1719 C1721 1.410 . S
C1719 C1722 1.386 . S
C1720 C1716 1.429 1_554 S
C1720 N1718 1.377 1_554 S
C1720 C1723 1.411 . S
C1721 H1703 0.924 1_554 S
C1721 N1718 1.317 1_554 S
C1721 C1719 1.410 . S
C1722 H1717 0.930 . S
C1722 C1719 1.386 . S
C1722 C1723 1.395 . S
C1723 C1720 1.411 . S
C1723 C1722 1.395 . S
C1723 C1745 1.420 . S
O1724 Eu1680 2.558 . S
O1724 C1744 1.257 . S
O1725 Eu1680 2.612 . S
O1725 Eu1691 2.380 . S
O1725 C1736 1.276 . S
O1726 Eu1691 2.432 . S
O1726 C1743 1.264 . S
O1727 Eu1680 2.339 . S
O1727 C1743 1.254 . S
O1728 Eu1680 2.563 . S
O1728 C1736 1.235 . S
O1729 Eu1680 2.419 . S
O1729 C1744 1.249 . S
O1730 Eu1691 2.558 1_554 S
O1730 C1755 1.257 . S
O1731 Eu1680 2.380 1_554 S
O1731 Eu1691 2.612 1_554 S
O1731 C1747 1.276 . S
O1732 Eu1680 2.432 . S
O1732 C1754 1.264 1_556 S
O1733 Eu1691 2.339 1_554 S
O1733 C1754 1.254 . S
O1734 Eu1691 2.563 1_554 S
O1734 C1747 1.235 . S
O1735 Eu1691 2.419 1_554 S
O1735 C1755 1.249 . S
C1736 O1725 1.276 . S
C1736 O1728 1.235 . S
C1737 C1739 1.393 . S
C1737 C1741 1.395 . S
C1737 C1744 1.492 . S
C1738 C1739 1.392 . S
C1738 C1740 1.386 . S
C1739 C1737 1.393 . S
C1739 C1738 1.392 . S
C1739 H1756 0.930 . S
C1740 C1738 1.386 . S
C1740 C1742 1.395 . S
C1740 H1757 0.930 . S
C1741 C1737 1.395 . S
C1741 C1742 1.379 . S
C1741 H1758 0.930 . S
C1742 C1740 1.395 . S
C1742 C1741 1.379 . S
C1742 H1759 0.930 . S
C1743 O1726 1.264 . S
C1743 O1727 1.254 . S
C1744 Eu1680 2.848 . S
C1744 O1724 1.257 . S
C1744 O1729 1.249 . S
C1744 C1737 1.492 . S
C1745 H1710 0.931 . S
C1745 C1723 1.420 . S
C1745 C1746 1.351 . S
C1746 H1708 0.930 . S
C1746 C1714 1.423 . S
C1746 C1745 1.351 . S
C1747 O1731 1.276 . S
C1747 O1734 1.235 . S
C1748 C1749 1.393 . S
C1748 C1752 1.395 . S
C1748 C1755 1.492 . S
C1749 C1748 1.393 . S
C1749 C1750 1.392 . S
C1749 H1760 0.930 . S
C1750 C1749 1.392 . S
C1750 C1751 1.386 . S
C1751 C1750 1.386 . S
C1751 C1753 1.395 . S
C1751 H1761 0.930 . S
C1752 C1748 1.395 . S
C1752 C1753 1.379 . S
C1752 H1762 0.930 . S
C1753 C1751 1.395 . S
C1753 C1752 1.379 . S
C1753 H1763 0.930 . S
C1754 O1732 1.264 1_554 S
C1754 O1733 1.254 . S
C1755 Eu1691 2.848 1_554 S
C1755 O1730 1.257 . S
C1755 O1735 1.249 . S
C1755 C1748 1.492 . S
H1756 C1739 0.930 . S
H1757 C1740 0.930 . S
H1758 C1741 0.930 . S
H1759 C1742 0.930 . S
H1760 C1749 0.930 . S
H1761 C1751 0.930 . S
H1762 C1752 0.930 . S
H1763 C1753 0.930 . S
Eu1764 N1795 2.657 . S
Eu1764 N1802 2.609 . S
Eu1764 O1808 2.558 . S
Eu1764 O1809 2.612 . S
Eu1764 O1811 2.339 . S
Eu1764 O1812 2.563 . S
Eu1764 O1813 2.419 . S
Eu1764 O1815 2.380 1_554 S
Eu1764 O1816 2.432 . S
Eu1764 C1828 2.848 . S
C1765 C1768 1.429 . S
C1765 C1769 1.411 1_455 S
C1765 N1772 1.377 . S
C1766 C1768 1.420 . S
C1766 C1770 1.423 . S
C1766 C1778 1.392 . S
C1767 C1769 1.420 . S
C1767 C1770 1.351 1_655 S
C1767 H1790 0.931 . S
C1768 C1765 1.429 . S
C1768 C1766 1.420 . S
C1768 N1776 1.362 . S
C1769 C1765 1.411 1_655 S
C1769 C1767 1.420 . S
C1769 C1774 1.395 . S
C1770 C1766 1.423 . S
C1770 C1767 1.351 1_455 S
C1770 H1782 0.930 . S
C1771 C1773 1.400 1_655 S
C1771 C1774 1.386 . S
C1771 H1783 0.930 . S
N1772 C1765 1.377 . S
N1772 C1773 1.321 . S
N1772 Eu1775 2.609 . S
C1773 C1771 1.400 1_455 S
C1773 N1772 1.321 . S
C1773 H1780 0.930 . S
C1774 C1769 1.395 . S
C1774 C1771 1.386 . S
C1774 H1793 0.930 . S
Eu1775 N1772 2.609 . S
Eu1775 N1776 2.657 . S
Eu1775 O1809 2.380 . S
Eu1775 O1810 2.432 . S
Eu1775 O1814 2.558 1_554 S
Eu1775 O1815 2.612 1_554 S
Eu1775 O1817 2.339 1_554 S
Eu1775 O1818 2.563 1_554 S
Eu1775 O1819 2.419 1_554 S
Eu1775 C1839 2.848 1_554 S
N1776 C1768 1.362 . S
N1776 Eu1775 2.657 . S
N1776 C1777 1.334 . S
C1777 N1776 1.334 . S
C1777 C1779 1.413 . S
C1777 H1784 0.929 . S
C1778 C1766 1.392 . S
C1778 C1779 1.367 . S
C1778 H1786 0.930 . S
C1779 C1777 1.413 . S
C1779 C1778 1.367 . S
C1779 H1781 0.930 . S
H1780 C1773 0.930 . S
H1781 C1779 0.930 . S
H1782 C1770 0.930 . S
H1783 C1771 0.930 . S
H1784 C1777 0.929 . S
H1785 C1799 0.930 . S
H1786 C1778 0.930 . S
H1787 C1805 0.924 1_554 S
H1788 C1796 0.929 . S
H1789 C1803 0.930 . S
H1790 C1767 0.931 . S
H1791 C1797 0.930 1_546 S
H1792 C1830 0.930 . S
H1793 C1774 0.930 . S
H1794 C1829 0.931 . S
N1795 Eu1764 2.657 . S
N1795 C1796 1.334 . S
N1795 C1800 1.362 . S
C1796 H1788 0.929 . S
C1796 N1795 1.334 . S
C1796 C1799 1.413 . S
C1797 H1791 0.930 1_564 S
C1797 C1798 1.392 1_554 S
C1797 C1799 1.367 . S
C1798 C1797 1.392 1_556 S
C1798 C1800 1.420 1_556 S
C1798 C1830 1.423 . S
C1799 H1785 0.930 . S
C1799 C1796 1.413 . S
C1799 C1797 1.367 . S
C1800 N1795 1.362 . S
C1800 C1798 1.420 1_554 S
C1800 C1804 1.429 1_554 S
H1801 C1806 0.930 . S
N1802 Eu1764 2.609 . S
N1802 C1804 1.377 1_554 S
N1802 C1805 1.317 1_554 S
C1803 H1789 0.930 . S
C1803 C1805 1.410 . S
C1803 C1806 1.386 . S
C1804 C1800 1.429 1_556 S
C1804 N1802 1.377 1_556 S
C1804 C1807 1.411 . S
C1805 H1787 0.924 1_556 S
C1805 N1802 1.317 1_556 S
C1805 C1803 1.410 . S
C1806 H1801 0.930 . S
C1806 C1803 1.386 . S
C1806 C1807 1.395 . S
C1807 C1804 1.411 . S
C1807 C1806 1.395 . S
C1807 C1829 1.420 . S
O1808 Eu1764 2.558 . S
O1808 C1828 1.257 . S
O1809 Eu1764 2.612 . S
O1809 Eu1775 2.380 . S
O1809 C1820 1.276 . S
O1810 Eu1775 2.432 . S
O1810 C1827 1.264 . S
O1811 Eu1764 2.339 . S
O1811 C1827 1.254 . S
O1812 Eu1764 2.563 . S
O1812 C1820 1.235 . S
O1813 Eu1764 2.419 . S
O1813 C1828 1.249 . S
O1814 Eu1775 2.558 1_556 S
O1814 C1839 1.257 . S
O1815 Eu1764 2.380 1_556 S
O1815 Eu1775 2.612 1_556 S
O1815 C1831 1.276 . S
O1816 Eu1764 2.432 . S
O1816 C1838 1.264 1_554 S
O1817 Eu1775 2.339 1_556 S
O1817 C1838 1.254 . S
O1818 Eu1775 2.563 1_556 S
O1818 C1831 1.235 . S
O1819 Eu1775 2.419 1_556 S
O1819 C1839 1.249 . S
C1820 O1809 1.276 . S
C1820 O1812 1.235 . S
C1821 C1823 1.393 . S
C1821 C1825 1.395 . S
C1821 C1828 1.492 . S
C1822 C1823 1.392 . S
C1822 C1824 1.386 . S
C1823 C1821 1.393 . S
C1823 C1822 1.392 . S
C1823 H1840 0.930 . S
C1824 C1822 1.386 . S
C1824 C1826 1.395 . S
C1824 H1841 0.930 . S
C1825 C1821 1.395 . S
C1825 C1826 1.379 . S
C1825 H1842 0.930 . S
C1826 C1824 1.395 . S
C1826 C1825 1.379 . S
C1826 H1843 0.930 . S
C1827 O1810 1.264 . S
C1827 O1811 1.254 . S
C1828 Eu1764 2.848 . S
C1828 O1808 1.257 . S
C1828 O1813 1.249 . S
C1828 C1821 1.492 . S
C1829 H1794 0.931 . S
C1829 C1807 1.420 . S
C1829 C1830 1.351 . S
C1830 H1792 0.930 . S
C1830 C1798 1.423 . S
C1830 C1829 1.351 . S
C1831 O1815 1.276 . S
C1831 O1818 1.235 . S
C1832 C1833 1.393 . S
C1832 C1836 1.395 1_455 S
C1832 C1839 1.492 . S
C1833 C1832 1.393 . S
C1833 C1834 1.392 1_455 S
C1833 H1844 0.930 . S
C1834 C1833 1.392 1_655 S
C1834 C1835 1.386 . S
C1835 C1834 1.386 . S
C1835 C1837 1.395 . S
C1835 H1845 0.930 . S
C1836 C1832 1.395 1_655 S
C1836 C1837 1.379 . S
C1836 H1846 0.930 . S
C1837 C1835 1.395 . S
C1837 C1836 1.379 . S
C1837 H1847 0.930 . S
C1838 O1816 1.264 1_556 S
C1838 O1817 1.254 . S
C1839 Eu1775 2.848 1_556 S
C1839 O1814 1.257 . S
C1839 O1819 1.249 . S
C1839 C1832 1.492 . S
H1840 C1823 0.930 . S
H1841 C1824 0.930 . S
H1842 C1825 0.930 . S
H1843 C1826 0.930 . S
H1844 C1833 0.930 . S
H1845 C1835 0.930 . S
H1846 C1836 0.930 . S
H1847 C1837 0.930 . S
Eu1848 N1879 2.657 . S
Eu1848 N1886 2.609 . S
Eu1848 O1892 2.558 . S
Eu1848 O1893 2.612 . S
Eu1848 O1895 2.339 . S
Eu1848 O1896 2.563 . S
Eu1848 O1897 2.419 . S
Eu1848 O1899 2.380 . S
Eu1848 O1900 2.432 . S
Eu1848 C1912 2.848 . S
C1849 C1852 1.429 . S
C1849 C1853 1.411 . S
C1849 N1856 1.377 . S
C1850 C1852 1.420 . S
C1850 C1854 1.423 . S
C1850 C1862 1.392 . S
C1851 C1853 1.420 . S
C1851 C1854 1.351 . S
C1851 H1874 0.931 . S
C1852 C1849 1.429 . S
C1852 C1850 1.420 . S
C1852 N1860 1.362 . S
C1853 C1849 1.411 . S
C1853 C1851 1.420 . S
C1853 C1858 1.395 . S
C1854 C1850 1.423 . S
C1854 C1851 1.351 . S
C1854 H1866 0.930 . S
C1855 C1857 1.400 . S
C1855 C1858 1.386 . S
C1855 H1867 0.930 . S
N1856 C1849 1.377 . S
N1856 C1857 1.321 . S
N1856 Eu1859 2.609 . S
C1857 C1855 1.400 . S
C1857 N1856 1.321 . S
C1857 H1864 0.930 . S
C1858 C1853 1.395 . S
C1858 C1855 1.386 . S
C1858 H1877 0.930 . S
Eu1859 N1856 2.609 . S
Eu1859 N1860 2.657 . S
Eu1859 O1893 2.380 . S
Eu1859 O1894 2.432 . S
Eu1859 O1898 2.558 . S
Eu1859 O1899 2.612 . S
Eu1859 O1901 2.339 . S
Eu1859 O1902 2.563 . S
Eu1859 O1903 2.419 . S
Eu1859 C1923 2.848 . S
N1860 C1852 1.362 . S
N1860 Eu1859 2.657 . S
N1860 C1861 1.334 . S
C1861 N1860 1.334 . S
C1861 C1863 1.413 . S
C1861 H1868 0.929 . S
C1862 C1850 1.392 . S
C1862 C1863 1.367 . S
C1862 H1870 0.930 . S
C1863 C1861 1.413 . S
C1863 C1862 1.367 . S
C1863 H1865 0.930 . S
H1864 C1857 0.930 . S
H1865 C1863 0.930 . S
H1866 C1854 0.930 . S
H1867 C1855 0.930 . S
H1868 C1861 0.929 . S
H1869 C1883 0.930 . S
H1870 C1862 0.930 . S
H1871 C1889 0.930 . S
H1872 C1880 0.929 . S
H1873 C1887 0.930 . S
H1874 C1851 0.931 . S
H1875 C1881 0.930 1_565 S
H1876 C1914 0.930 . S
H1877 C1858 0.930 . S
H1878 C1913 0.931 . S
N1879 Eu1848 2.657 . S
N1879 C1880 1.334 . S
N1879 C1884 1.362 . S
C1880 H1872 0.929 . S
C1880 N1879 1.334 . S
C1880 C1883 1.413 . S
C1881 H1875 0.930 1_545 S
C1881 C1882 1.392 . S
C1881 C1883 1.367 . S
C1882 C1881 1.392 . S
C1882 C1884 1.420 . S
C1882 C1914 1.423 . S
C1883 H1869 0.930 . S
C1883 C1880 1.413 . S
C1883 C1881 1.367 . S
C1884 N1879 1.362 . S
C1884 C1882 1.420 . S
C1884 C1888 1.429 . S
H1885 C1890 0.930 . S
N1886 Eu1848 2.609 . S
N1886 C1888 1.377 . S
N1886 C1889 1.321 . S
C1887 H1873 0.930 . S
C1887 C1889 1.400 . S
C1887 C1890 1.386 . S
C1888 C1884 1.429 . S
C1888 N1886 1.377 . S
C1888 C1891 1.411 . S
C1889 H1871 0.930 . S
C1889 N1886 1.321 . S
C1889 C1887 1.400 . S
C1890 H1885 0.930 . S
C1890 C1887 1.386 . S
C1890 C1891 1.395 . S
C1891 C1888 1.411 . S
C1891 C1890 1.395 . S
C1891 C1913 1.420 . S
O1892 Eu1848 2.558 . S
O1892 C1912 1.257 . S
O1893 Eu1848 2.612 . S
O1893 Eu1859 2.380 . S
O1893 C1904 1.276 . S
O1894 Eu1859 2.432 . S
O1894 C1911 1.264 . S
O1895 Eu1848 2.339 . S
O1895 C1911 1.254 . S
O1896 Eu1848 2.563 . S
O1896 C1904 1.235 . S
O1897 Eu1848 2.419 . S
O1897 C1912 1.249 . S
O1898 Eu1859 2.558 . S
O1898 C1923 1.257 . S
O1899 Eu1848 2.380 . S
O1899 Eu1859 2.612 . S
O1899 C1915 1.276 . S
O1900 Eu1848 2.432 . S
O1900 C1922 1.264 . S
O1901 Eu1859 2.339 . S
O1901 C1922 1.254 . S
O1902 Eu1859 2.563 . S
O1902 C1915 1.235 . S
O1903 Eu1859 2.419 . S
O1903 C1923 1.249 . S
C1904 O1893 1.276 . S
C1904 O1896 1.235 . S
C1905 C1907 1.393 . S
C1905 C1909 1.395 . S
C1905 C1912 1.492 . S
C1906 C1907 1.392 . S
C1906 C1908 1.386 . S
C1907 C1905 1.393 . S
C1907 C1906 1.392 . S
C1907 H1924 0.930 . S
C1908 C1906 1.386 . S
C1908 C1910 1.395 . S
C1908 H1925 0.930 . S
C1909 C1905 1.395 . S
C1909 C1910 1.379 . S
C1909 H1926 0.930 . S
C1910 C1908 1.395 . S
C1910 C1909 1.379 . S
C1910 H1927 0.930 . S
C1911 O1894 1.264 . S
C1911 O1895 1.254 . S
C1912 Eu1848 2.848 . S
C1912 O1892 1.257 . S
C1912 O1897 1.249 . S
C1912 C1905 1.492 . S
C1913 H1878 0.931 . S
C1913 C1891 1.420 . S
C1913 C1914 1.351 . S
C1914 H1876 0.930 . S
C1914 C1882 1.423 . S
C1914 C1913 1.351 . S
C1915 O1899 1.276 . S
C1915 O1902 1.235 . S
C1916 C1917 1.393 . S
C1916 C1920 1.395 . S
C1916 C1923 1.492 . S
C1917 C1916 1.393 . S
C1917 C1918 1.392 . S
C1917 H1928 0.930 . S
C1918 C1917 1.392 . S
C1918 C1919 1.386 . S
C1919 C1918 1.386 . S
C1919 C1921 1.395 . S
C1919 H1929 0.930 . S
C1920 C1916 1.395 . S
C1920 C1921 1.379 . S
C1920 H1930 0.930 . S
C1921 C1919 1.395 . S
C1921 C1920 1.379 . S
C1921 H1931 0.930 . S
C1922 O1900 1.264 . S
C1922 O1901 1.254 . S
C1923 Eu1859 2.848 . S
C1923 O1898 1.257 . S
C1923 O1903 1.249 . S
C1923 C1916 1.492 . S
H1924 C1907 0.930 . S
H1925 C1908 0.930 . S
H1926 C1909 0.930 . S
H1927 C1910 0.930 . S
H1928 C1917 0.930 . S
H1929 C1919 0.930 . S
H1930 C1920 0.930 . S
H1931 C1921 0.930 . S
Eu1932 N1963 2.657 . S
Eu1932 N1970 2.609 . S
Eu1932 O1976 2.558 . S
Eu1932 O1977 2.612 . S
Eu1932 O1979 2.339 . S
Eu1932 O1980 2.563 . S
Eu1932 O1981 2.419 . S
Eu1932 O1983 2.380 . S
Eu1932 O1984 2.432 . S
Eu1932 C1996 2.848 . S
C1933 C1936 1.429 . S
C1933 C1937 1.411 1_655 S
C1933 N1940 1.377 . S
C1934 C1936 1.420 . S
C1934 C1938 1.423 . S
C1934 C1946 1.392 . S
C1935 C1937 1.420 . S
C1935 C1938 1.351 1_455 S
C1935 H1958 0.931 . S
C1936 C1933 1.429 . S
C1936 C1934 1.420 . S
C1936 N1944 1.362 . S
C1937 C1933 1.411 1_455 S
C1937 C1935 1.420 . S
C1937 C1942 1.395 . S
C1938 C1934 1.423 . S
C1938 C1935 1.351 1_655 S
C1938 H1950 0.930 . S
C1939 C1941 1.400 1_455 S
C1939 C1942 1.386 . S
C1939 H1951 0.930 . S
N1940 C1933 1.377 . S
N1940 C1941 1.321 . S
N1940 Eu1943 2.609 . S
C1941 C1939 1.400 1_655 S
C1941 N1940 1.321 . S
C1941 H1948 0.930 . S
C1942 C1937 1.395 . S
C1942 C1939 1.386 . S
C1942 H1961 0.930 . S
Eu1943 N1940 2.609 . S
Eu1943 N1944 2.657 . S
Eu1943 O1977 2.380 . S
Eu1943 O1978 2.432 . S
Eu1943 O1982 2.558 . S
Eu1943 O1983 2.612 . S
Eu1943 O1985 2.339 . S
Eu1943 O1986 2.563 . S
Eu1943 O1987 2.419 . S
Eu1943 C2007 2.848 . S
N1944 C1936 1.362 . S
N1944 Eu1943 2.657 . S
N1944 C1945 1.334 . S
C1945 N1944 1.334 . S
C1945 C1947 1.413 . S
C1945 H1952 0.929 . S
C1946 C1934 1.392 . S
C1946 C1947 1.367 . S
C1946 H1954 0.930 . S
C1947 C1945 1.413 . S
C1947 C1946 1.367 . S
C1947 H1949 0.930 . S
H1948 C1941 0.930 . S
H1949 C1947 0.930 . S
H1950 C1938 0.930 . S
H1951 C1939 0.930 . S
H1952 C1945 0.929 . S
H1953 C1967 0.930 . S
H1954 C1946 0.930 . S
H1955 C1973 0.930 . S
H1956 C1964 0.929 . S
H1957 C1971 0.930 . S
H1958 C1935 0.931 . S
H1959 C1965 0.930 . S
H1960 C1998 0.930 . S
H1961 C1942 0.930 . S
H1962 C1997 0.931 . S
N1963 Eu1932 2.657 . S
N1963 C1964 1.334 . S
N1963 C1968 1.362 . S
C1964 H1956 0.929 . S
C1964 N1963 1.334 . S
C1964 C1967 1.413 . S
C1965 H1959 0.930 . S
C1965 C1966 1.392 . S
C1965 C1967 1.367 . S
C1966 C1965 1.392 . S
C1966 C1968 1.420 . S
C1966 C1998 1.423 . S
C1967 H1953 0.930 . S
C1967 C1964 1.413 . S
C1967 C1965 1.367 . S
C1968 N1963 1.362 . S
C1968 C1966 1.420 . S
C1968 C1972 1.429 . S
H1969 C1974 0.930 . S
N1970 Eu1932 2.609 . S
N1970 C1972 1.377 . S
N1970 C1973 1.321 . S
C1971 H1957 0.930 . S
C1971 C1973 1.400 . S
C1971 C1974 1.386 . S
C1972 C1968 1.429 . S
C1972 N1970 1.377 . S
C1972 C1975 1.411 . S
C1973 H1955 0.930 . S
C1973 N1970 1.321 . S
C1973 C1971 1.400 . S
C1974 H1969 0.930 . S
C1974 C1971 1.386 . S
C1974 C1975 1.395 . S
C1975 C1972 1.411 . S
C1975 C1974 1.395 . S
C1975 C1997 1.420 . S
O1976 Eu1932 2.558 . S
O1976 C1996 1.257 . S
O1977 Eu1932 2.612 . S
O1977 Eu1943 2.380 . S
O1977 C1988 1.276 . S
O1978 Eu1943 2.432 . S
O1978 C1995 1.264 . S
O1979 Eu1932 2.339 . S
O1979 C1995 1.254 . S
O1980 Eu1932 2.563 . S
O1980 C1988 1.235 . S
O1981 Eu1932 2.419 . S
O1981 C1996 1.249 . S
O1982 Eu1943 2.558 . S
O1982 C2007 1.257 . S
O1983 Eu1932 2.380 . S
O1983 Eu1943 2.612 . S
O1983 C1999 1.276 . S
O1984 Eu1932 2.432 . S
O1984 C2006 1.264 . S
O1985 Eu1943 2.339 . S
O1985 C2006 1.254 . S
O1986 Eu1943 2.563 . S
O1986 C1999 1.235 . S
O1987 Eu1943 2.419 . S
O1987 C2007 1.249 . S
C1988 O1977 1.276 . S
C1988 O1980 1.235 . S
C1989 C1991 1.393 . S
C1989 C1993 1.395 . S
C1989 C1996 1.492 . S
C1990 C1991 1.392 . S
C1990 C1992 1.386 . S
C1991 C1989 1.393 . S
C1991 C1990 1.392 . S
C1991 H2008 0.930 . S
C1992 C1990 1.386 . S
C1992 C1994 1.395 . S
C1992 H2009 0.930 . S
C1993 C1989 1.395 . S
C1993 C1994 1.379 . S
C1993 H2010 0.930 . S
C1994 C1992 1.395 . S
C1994 C1993 1.379 . S
C1994 H2011 0.930 . S
C1995 O1978 1.264 . S
C1995 O1979 1.254 . S
C1996 Eu1932 2.848 . S
C1996 O1976 1.257 . S
C1996 O1981 1.249 . S
C1996 C1989 1.492 . S
C1997 H1962 0.931 . S
C1997 C1975 1.420 . S
C1997 C1998 1.351 . S
C1998 H1960 0.930 . S
C1998 C1966 1.423 . S
C1998 C1997 1.351 . S
C1999 O1983 1.276 . S
C1999 O1986 1.235 . S
C2000 C2001 1.393 . S
C2000 C2004 1.395 1_655 S
C2000 C2007 1.492 . S
C2001 C2000 1.393 . S
C2001 C2002 1.392 1_655 S
C2001 H2012 0.930 . S
C2002 C2001 1.392 1_455 S
C2002 C2003 1.386 . S
C2003 C2002 1.386 . S
C2003 C2005 1.395 . S
C2003 H2013 0.930 . S
C2004 C2000 1.395 1_455 S
C2004 C2005 1.379 . S
C2004 H2014 0.930 . S
C2005 C2003 1.395 . S
C2005 C2004 1.379 . S
C2005 H2015 0.930 . S
C2006 O1984 1.264 . S
C2006 O1985 1.254 . S
C2007 Eu1943 2.848 . S
C2007 O1982 1.257 . S
C2007 O1987 1.249 . S
C2007 C2000 1.492 . S
H2008 C1991 0.930 . S
H2009 C1992 0.930 . S
H2010 C1993 0.930 . S
H2011 C1994 0.930 . S
H2012 C2001 0.930 . S
H2013 C2003 0.930 . S
H2014 C2004 0.930 . S
H2015 C2005 0.930 . S
C74 C1579 3.354 . S
C1663 C158 3.354 . S
C242 C1411 3.354 . S
C326 C1495 3.354 . S
C1915 C410 3.354 . S
C494 C1831 3.354 . S
C1999 C578 3.354 . S
C662 C1747 3.354 . S
C746 C1159 3.354 . S
C830 C1327 3.354 . S
C1243 C914 3.354 . S
C998 C1075 3.354 . S
C1071 C560 3.354 . S
C1155 C644 3.354 . S
C1239 C392 3.354 . S
C476 C1323 3.354 . S
C1407 C896 3.354 . S
C812 C1491 3.354 . S
C980 C1575 3.354 . S
C728 C1659 3.354 . S
C140 C1743 3.354 . S
C308 C1827 3.354 . S
C224 C1911 3.354 . S
C1995 C56 3.354 . S
C403 C70 1.563 . S
C487 C154 1.563 . S
C571 C238 1.563 . S
C655 C322 1.563 . S
C406 C739 1.563 . S
C490 C991 1.563 . S
C574 C823 1.563 . S
C658 C907 1.563 . S
C742 C67 1.563 . S
C826 C235 1.563 . S
C910 C319 1.563 . S
C151 C994 1.563 . S
C1400 C1066 1.563 . S
C1484 C1150 1.563 . S
C1234 C1568 1.563 . S
C1318 C1652 1.563 . S
C1736 C1402 1.563 . S
C1486 C1988 1.563 . S
C1820 C1570 1.563 . S
C1654 C1904 1.563 . S
C1064 C1738 1.563 . S
C1822 C1232 1.563 . S
C1906 C1316 1.563 . S
C1148 C1990 1.563 . S
C63 C814 2.079 1_655 S
C898 C147 2.079 . S
C730 C231 2.079 . S
C982 C315 2.079 1_655 S
C399 C310 2.079 1_565 S
C226 C483 2.079 1_565 S
C567 C142 2.079 . S
C58 C651 2.079 . S
C735 C478 2.079 1_556 S
C819 C646 2.079 1_554 S
C903 C562 2.079 . S
C987 C394 2.079 . S
C1082 C1834 2.079 1_455 S
C1166 C1918 2.079 . S
C1750 C1250 2.079 . S
C2002 C1334 2.079 1_455 S
C1418 C1330 2.079 1_545 S
C1502 C1246 2.079 1_565 S
C1162 C1586 2.079 . S
C1670 C1078 2.079 . S
C1754 C1498 2.079 1_554 S
C1666 C1838 2.079 1_554 S
C1922 C1582 2.079 . S
C2006 C1414 2.079 . S
