# Generated by pormake.
# Topology unb, (4)-cn, num edge types: 1
# Building blocks:
#     Node 0, Type 0, BuildingBlock: GALJAG_clean_sbu_0, # of connection points: 4
#     Node 1, Type 0, BuildingBlock: GALJAG_clean_sbu_0, # of connection points: 4
#     Node 2, Type 0, BuildingBlock: GALJAG_clean_sbu_0, # of connection points: 4
#     Node 3, Type 0, BuildingBlock: GALJAG_clean_sbu_0, # of connection points: 4
#     Node 4, Type 0, BuildingBlock: GALJAG_clean_sbu_0, # of connection points: 4
#     Node 5, Type 0, BuildingBlock: GALJAG_clean_sbu_0, # of connection points: 4
#     Node 6, Type 0, BuildingBlock: GALJAG_clean_sbu_0, # of connection points: 4
#     Node 7, Type 0, BuildingBlock: GALJAG_clean_sbu_0, # of connection points: 4
#     Node 8, Type 0, BuildingBlock: GALJAG_clean_sbu_0, # of connection points: 4
#     Node 9, Type 0, BuildingBlock: GALJAG_clean_sbu_0, # of connection points: 4
#     Node 10, Type 0, BuildingBlock: GALJAG_clean_sbu_0, # of connection points: 4
#     Node 11, Type 0, BuildingBlock: GALJAG_clean_sbu_0, # of connection points: 4
#     Node 12, Type 0, BuildingBlock: GALJAG_clean_sbu_0, # of connection points: 4
#     Node 13, Type 0, BuildingBlock: GALJAG_clean_sbu_0, # of connection points: 4
#     Node 14, Type 0, BuildingBlock: GALJAG_clean_sbu_0, # of connection points: 4
#     Node 15, Type 0, BuildingBlock: GALJAG_clean_sbu_0, # of connection points: 4
#     Node 16, Type 0, BuildingBlock: GALJAG_clean_sbu_0, # of connection points: 4
#     Node 17, Type 0, BuildingBlock: GALJAG_clean_sbu_0, # of connection points: 4
#     Edge 18, Type (0, 0), BuildingBlock: OJICUG_clean_linker_0, # of connection points: 2
#     Edge 19, Type (0, 0), BuildingBlock: OJICUG_clean_linker_0, # of connection points: 2
#     Edge 20, Type (0, 0), BuildingBlock: OJICUG_clean_linker_0, # of connection points: 2
#     Edge 21, Type (0, 0), BuildingBlock: OJICUG_clean_linker_0, # of connection points: 2
#     Edge 22, Type (0, 0), BuildingBlock: OJICUG_clean_linker_0, # of connection points: 2
#     Edge 23, Type (0, 0), BuildingBlock: OJICUG_clean_linker_0, # of connection points: 2
#     Edge 24, Type (0, 0), BuildingBlock: OJICUG_clean_linker_0, # of connection points: 2
#     Edge 25, Type (0, 0), BuildingBlock: OJICUG_clean_linker_0, # of connection points: 2
#     Edge 26, Type (0, 0), BuildingBlock: OJICUG_clean_linker_0, # of connection points: 2
#     Edge 27, Type (0, 0), BuildingBlock: OJICUG_clean_linker_0, # of connection points: 2
#     Edge 28, Type (0, 0), BuildingBlock: OJICUG_clean_linker_0, # of connection points: 2
#     Edge 29, Type (0, 0), BuildingBlock: OJICUG_clean_linker_0, # of connection points: 2
#     Edge 30, Type (0, 0), BuildingBlock: OJICUG_clean_linker_0, # of connection points: 2
#     Edge 31, Type (0, 0), BuildingBlock: OJICUG_clean_linker_0, # of connection points: 2
#     Edge 32, Type (0, 0), BuildingBlock: OJICUG_clean_linker_0, # of connection points: 2
#     Edge 33, Type (0, 0), BuildingBlock: OJICUG_clean_linker_0, # of connection points: 2
#     Edge 34, Type (0, 0), BuildingBlock: OJICUG_clean_linker_0, # of connection points: 2
#     Edge 35, Type (0, 0), BuildingBlock: OJICUG_clean_linker_0, # of connection points: 2
#     Edge 36, Type (0, 0), BuildingBlock: OJICUG_clean_linker_0, # of connection points: 2
#     Edge 37, Type (0, 0), BuildingBlock: OJICUG_clean_linker_0, # of connection points: 2
#     Edge 38, Type (0, 0), BuildingBlock: OJICUG_clean_linker_0, # of connection points: 2
#     Edge 39, Type (0, 0), BuildingBlock: OJICUG_clean_linker_0, # of connection points: 2
#     Edge 40, Type (0, 0), BuildingBlock: OJICUG_clean_linker_0, # of connection points: 2
#     Edge 41, Type (0, 0), BuildingBlock: OJICUG_clean_linker_0, # of connection points: 2
#     Edge 42, Type (0, 0), BuildingBlock: OJICUG_clean_linker_0, # of connection points: 2
#     Edge 43, Type (0, 0), BuildingBlock: OJICUG_clean_linker_0, # of connection points: 2
#     Edge 44, Type (0, 0), BuildingBlock: OJICUG_clean_linker_0, # of connection points: 2
#     Edge 45, Type (0, 0), BuildingBlock: OJICUG_clean_linker_0, # of connection points: 2
#     Edge 46, Type (0, 0), BuildingBlock: OJICUG_clean_linker_0, # of connection points: 2
#     Edge 47, Type (0, 0), BuildingBlock: OJICUG_clean_linker_0, # of connection points: 2
#     Edge 48, Type (0, 0), BuildingBlock: OJICUG_clean_linker_0, # of connection points: 2
#     Edge 49, Type (0, 0), BuildingBlock: OJICUG_clean_linker_0, # of connection points: 2
#     Edge 50, Type (0, 0), BuildingBlock: OJICUG_clean_linker_0, # of connection points: 2
#     Edge 51, Type (0, 0), BuildingBlock: OJICUG_clean_linker_0, # of connection points: 2
#     Edge 52, Type (0, 0), BuildingBlock: OJICUG_clean_linker_0, # of connection points: 2
#     Edge 53, Type (0, 0), BuildingBlock: OJICUG_clean_linker_0, # of connection points: 2
# Relax obj value: 0.185
# Max RMSD: 0.139
# Mean RMSD: 0.139
data_MOF--net-unb--node1-GALJAG_clean_sbu_0--edge1-OJICUG_clean_linker_0
_symmetry_space_group_name_H-M    P1
_symmetry_Int_Tables_number       1
_symmetry_cell_setting            triclinic
loop_
_symmetry_equiv_pos_as_xyz
'x, y, z'
_cell_length_a     45.630636
_cell_length_b     45.700093
_cell_length_c     19.759055
_cell_angle_alpha  90.0038
_cell_angle_beta   89.960721
_cell_angle_gamma 119.96082
loop_
_atom_site_label
_atom_site_type_symbol
_atom_site_fract_x
_atom_site_fract_y
_atom_site_fract_z
_atom_type_partial_charge
In0 In 0.12362 0.25569 0.08112 0.0
O1 O 0.1533 0.30101 0.15057 0.0
O2 O 0.11601 0.25568 0.19651 0.0
C3 C 0.14151 0.28889 0.96306 0.0
C4 C 0.1588 0.22309 0.06747 0.0
C5 C 0.05701 0.22527 0.0522 0.0
O6 O 0.14059 0.30304 0.01733 0.0
O7 O 0.13391 0.25849 0.96898 0.0
O8 O 0.07136 0.20889 0.06937 0.0
O9 O 0.07558 0.25691 0.05523 0.0
C10 C 0.13836 0.28629 0.20429 0.0
O11 O 0.12736 0.20773 0.07879 0.0
O12 O 0.1728 0.25487 0.06902 0.0
In13 In 0.72427 0.862 0.08597 0.0
O14 O 0.77183 0.91402 0.08301 0.0
O15 O 0.72437 0.91154 0.07128 0.0
C16 C 0.75644 0.82719 0.05944 0.0
C17 C 0.69343 0.84647 0.20927 0.0
C18 C 0.69109 0.84504 0.96765 0.0
O19 O 0.77205 0.858 0.07586 0.0
O20 O 0.72466 0.81338 0.06193 0.0
O21 O 0.6771 0.83015 0.02218 0.0
O22 O 0.72128 0.86842 0.97345 0.0
C23 C 0.75617 0.92965 0.07015 0.0
O24 O 0.67879 0.84669 0.15544 0.0
O25 O 0.72406 0.85462 0.20153 0.0
In26 In 0.12562 0.85412 0.06772 0.0
O27 O 0.0743 0.85106 0.06027 0.0
O28 O 0.07602 0.80614 0.04248 0.0
C29 C 0.16134 0.92169 0.05204 0.0
C30 C 0.14138 0.83852 0.19036 0.0
C31 C 0.14205 0.83767 0.94915 0.0
O32 O 0.13018 0.90607 0.06593 0.0
O33 O 0.17505 0.90361 0.05206 0.0
O34 O 0.14125 0.82268 0.00347 0.0
O35 O 0.13477 0.86071 0.95521 0.0
C36 C 0.05856 0.82053 0.04212 0.0
O37 O 0.15513 0.8375 0.13586 0.0
O38 O 0.11966 0.84773 0.18355 0.0
In39 In 0.25921 0.12325 0.92202 0.0
O40 O 0.30489 0.13929 0.85292 0.0
O41 O 0.25934 0.13051 0.80663 0.0
C42 C 0.29212 0.14022 0.04035 0.0
C43 C 0.22664 0.15754 0.94884 0.0
C44 C 0.22774 0.05571 0.93744 0.0
O45 O 0.30632 0.15488 0.98577 0.0
O46 O 0.26185 0.11703 0.03457 0.0
O47 O 0.21197 0.07113 0.92371 0.0
O48 O 0.25952 0.07399 0.93737 0.0
C49 C 0.29011 0.13917 0.79904 0.0
O50 O 0.21124 0.12681 0.93195 0.0
O51 O 0.25845 0.17159 0.94654 0.0
In52 In 0.85635 0.12858 0.91759 0.0
O53 O 0.84228 0.15963 0.84793 0.0
O54 O 0.84773 0.12071 0.80231 0.0
C55 C 0.84073 0.14678 0.03528 0.0
C56 C 0.82143 0.06203 0.94742 0.0
C57 C 0.9242 0.16221 0.93131 0.0
O58 O 0.82441 0.14379 0.98162 0.0
O59 O 0.86485 0.14109 0.02888 0.0
O60 O 0.90748 0.13094 0.91907 0.0
O61 O 0.90703 0.17693 0.93059 0.0
C62 C 0.84089 0.14407 0.79436 0.0
O63 O 0.85195 0.07681 0.92875 0.0
O64 O 0.80776 0.08012 0.94551 0.0
In65 In 0.85729 0.72854 0.91 0.0
O66 O 0.91 0.77517 0.91302 0.0
O67 O 0.90613 0.72711 0.92359 0.0
C68 C 0.8226 0.76093 0.9357 0.0
C69 C 0.84146 0.69765 0.78708 0.0
C70 C 0.84086 0.6959 0.02875 0.0
O71 O 0.85352 0.7764 0.91976 0.0
O72 O 0.80863 0.72919 0.93309 0.0
O73 O 0.82639 0.68145 0.97425 0.0
O74 O 0.86346 0.72638 0.0228 0.0
C75 C 0.92496 0.75876 0.925 0.0
O76 O 0.83965 0.68254 0.84155 0.0
O77 O 0.85158 0.72875 0.79405 0.0
In78 In 0.78917 0.59704 0.40598 0.0
O79 O 0.79544 0.59722 0.52182 0.0
O80 O 0.80513 0.6428 0.47464 0.0
C81 C 0.80566 0.63015 0.28774 0.0
C82 C 0.8237 0.56459 0.37975 0.0
C83 C 0.72154 0.5648 0.3895 0.0
O84 O 0.82066 0.64421 0.34211 0.0
O85 O 0.78254 0.59988 0.29363 0.0
O86 O 0.73736 0.54941 0.40294 0.0
O87 O 0.73942 0.59657 0.39053 0.0
C88 C 0.80429 0.62801 0.52896 0.0
O89 O 0.79307 0.54931 0.39771 0.0
O90 O 0.83767 0.59635 0.3807 0.0
In91 In 0.39029 0.19452 0.41769 0.0
O92 O 0.34482 0.17846 0.4872 0.0
O93 O 0.3906 0.18776 0.53326 0.0
C94 C 0.35715 0.17817 0.29963 0.0
C95 C 0.42202 0.26206 0.40178 0.0
C96 C 0.42142 0.1589 0.39003 0.0
O97 O 0.34283 0.16375 0.35431 0.0
O98 O 0.38767 0.2008 0.30517 0.0
O99 O 0.43753 0.18965 0.40685 0.0
O100 O 0.38969 0.14554 0.39294 0.0
C101 C 0.35979 0.17891 0.54103 0.0
O102 O 0.4378 0.24652 0.41436 0.0
O103 O 0.39023 0.24392 0.40342 0.0
In104 In 0.78765 0.19213 0.41354 0.0
O105 O 0.80275 0.16161 0.48241 0.0
O106 O 0.79504 0.19894 0.52911 0.0
C107 C 0.80452 0.17604 0.29484 0.0
C108 C 0.71988 0.15654 0.39851 0.0
C109 C 0.8221 0.25913 0.38788 0.0
O110 O 0.82004 0.17772 0.34894 0.0
O111 O 0.78061 0.18206 0.30123 0.0
O112 O 0.79126 0.24367 0.40443 0.0
O113 O 0.83615 0.24138 0.38965 0.0
C114 C 0.80297 0.17631 0.53648 0.0
O115 O 0.73563 0.18783 0.41093 0.0
O116 O 0.73796 0.14281 0.39947 0.0
In117 In 0.91915 0.45928 0.24331 0.0
O118 O 0.96505 0.48837 0.17454 0.0
O119 O 0.919 0.45339 0.12737 0.0
C120 C 0.95195 0.47556 0.36192 0.0
C121 C 0.88774 0.49553 0.2596 0.0
C122 C 0.88752 0.39222 0.26798 0.0
O123 O 0.96649 0.47591 0.30721 0.0
O124 O 0.92131 0.46728 0.35625 0.0
O125 O 0.8717 0.40731 0.25211 0.0
O126 O 0.91929 0.41039 0.26601 0.0
C127 C 0.95002 0.47476 0.12019 0.0
O128 O 0.87183 0.46424 0.24733 0.0
O129 O 0.91951 0.50894 0.2577 0.0
In130 In 0.52084 0.46112 0.25303 0.0
O131 O 0.51723 0.40965 0.26197 0.0
O132 O 0.47229 0.41191 0.27644 0.0
C133 C 0.58837 0.4975 0.27031 0.0
C134 C 0.50528 0.47648 0.13013 0.0
C135 C 0.50363 0.47667 0.37153 0.0
O136 O 0.57327 0.46652 0.25532 0.0
O137 O 0.56985 0.51073 0.27037 0.0
O138 O 0.49005 0.47779 0.31659 0.0
O139 O 0.52575 0.46805 0.36607 0.0
C140 C 0.48641 0.39424 0.27867 0.0
O141 O 0.5037 0.48996 0.18454 0.0
O142 O 0.51515 0.45529 0.13714 0.0
In143 In 0.5196 0.05689 0.25196 0.0
O144 O 0.4883 0.01186 0.1823 0.0
O145 O 0.52719 0.05623 0.13662 0.0
C146 C 0.50215 0.02313 0.36973 0.0
C147 C 0.58639 0.08892 0.2802 0.0
C148 C 0.48563 0.09066 0.26721 0.0
O149 O 0.50665 0.05246 0.3631 0.0
O150 O 0.50592 0.01021 0.31623 0.0
O151 O 0.517 0.10543 0.25529 0.0
O152 O 0.471 0.05882 0.2654 0.0
C153 C 0.50381 0.02607 0.12867 0.0
O154 O 0.57135 0.10447 0.26203 0.0
O155 O 0.56839 0.05718 0.27874 0.0
In156 In 0.45734 0.92492 0.74786 0.0
O157 O 0.48781 0.9703 0.81719 0.0
O158 O 0.44944 0.92565 0.86309 0.0
C159 C 0.4744 0.95835 0.62971 0.0
C160 C 0.49281 0.89254 0.73468 0.0
C161 C 0.39055 0.89196 0.71917 0.0
O162 O 0.47074 0.97137 0.68317 0.0
O163 O 0.46999 0.92906 0.63655 0.0
O164 O 0.40606 0.87679 0.73671 0.0
O165 O 0.40806 0.92372 0.72148 0.0
C166 C 0.47241 0.95601 0.87085 0.0
O167 O 0.46139 0.87716 0.7463 0.0
O168 O 0.5067 0.92433 0.73549 0.0
In169 In 0.05092 0.52127 0.73899 0.0
O170 O 0.09918 0.57243 0.73006 0.0
O171 O 0.05238 0.57068 0.71341 0.0
C172 C 0.08248 0.48523 0.72247 0.0
C173 C 0.01989 0.50608 0.86206 0.0
C174 C 0.01775 0.50517 0.6208 0.0
O175 O 0.09819 0.51632 0.73664 0.0
O176 O 0.05069 0.47175 0.7229 0.0
O177 O 0.00374 0.50613 0.67531 0.0
O178 O 0.04798 0.51201 0.62655 0.0
C179 C 0.08422 0.58807 0.71204 0.0
O180 O 0.00511 0.49178 0.80796 0.0
O181 O 0.05071 0.52798 0.85467 0.0
In182 In 0.45191 0.52341 0.749 0.0
O183 O 0.39982 0.51892 0.74524 0.0
O184 O 0.40241 0.47402 0.73463 0.0
C185 C 0.48848 0.59026 0.72342 0.0
C186 C 0.4673 0.50811 0.87206 0.0
C187 C 0.46768 0.50644 0.63045 0.0
O188 O 0.45762 0.57582 0.7397 0.0
O189 O 0.50149 0.57158 0.72572 0.0
O190 O 0.48089 0.50469 0.68537 0.0
O191 O 0.44662 0.51645 0.63589 0.0
C192 C 0.38425 0.48764 0.73281 0.0
O193 O 0.46931 0.49489 0.81762 0.0
O194 O 0.45709 0.52904 0.865 0.0
In195 In 0.59223 0.79124 0.59033 0.0
O196 O 0.63751 0.80556 0.52067 0.0
O197 O 0.59292 0.79968 0.4751 0.0
C198 C 0.62572 0.80747 0.70833 0.0
C199 C 0.56044 0.82626 0.61819 0.0
C200 C 0.55849 0.72352 0.605 0.0
O201 O 0.63945 0.8229 0.65408 0.0
O202 O 0.59563 0.78388 0.70239 0.0
O203 O 0.54376 0.74003 0.59199 0.0
O204 O 0.59037 0.74081 0.60462 0.0
C205 C 0.62324 0.80683 0.46712 0.0
O206 O 0.54477 0.7957 0.60013 0.0
O207 O 0.59222 0.83986 0.61681 0.0
In208 In 0.19098 0.7877 0.57167 0.0
O209 O 0.16229 0.80501 0.50322 0.0
O210 O 0.19589 0.79213 0.4554 0.0
C211 C 0.1744 0.80387 0.69038 0.0
C212 C 0.15442 0.72022 0.5889 0.0
C213 C 0.25815 0.82359 0.59568 0.0
O214 O 0.17353 0.81771 0.63564 0.0
O215 O 0.18348 0.78212 0.68472 0.0
O216 O 0.24323 0.79267 0.58019 0.0
O217 O 0.23976 0.83694 0.59347 0.0
C218 C 0.17503 0.80246 0.44854 0.0
O219 O 0.18579 0.7354 0.57686 0.0
O220 O 0.14113 0.73866 0.58621 0.0
In221 In 0.18461 0.38679 0.58523 0.0
O222 O 0.15426 0.34135 0.51613 0.0
O223 O 0.1915 0.38654 0.46973 0.0
C224 C 0.16906 0.35378 0.70351 0.0
C225 C 0.25153 0.41947 0.61143 0.0
C226 C 0.14886 0.41859 0.60235 0.0
O227 O 0.17533 0.38377 0.69761 0.0
O228 O 0.17014 0.33986 0.64903 0.0
O229 O 0.17999 0.43417 0.58802 0.0
O230 O 0.13521 0.38683 0.60185 0.0
C231 C 0.169 0.35598 0.46219 0.0
O232 O 0.23604 0.43474 0.59441 0.0
O233 O 0.23391 0.3877 0.60943 0.0
C234 C 0.17854 0.35521 0.33721 0.0
C235 C 0.16095 0.33829 0.39604 0.0
H236 H 0.18526 0.35201 0.23069 0.0
C237 C 0.13585 0.30403 0.39138 0.0
H238 H 0.19804 0.38156 0.33912 0.0
C239 C 0.12855 0.28704 0.32926 0.0
C240 C 0.14618 0.30395 0.27045 0.0
H241 H 0.12186 0.29025 0.43583 0.0
H242 H 0.10907 0.26068 0.32732 0.0
C243 C 0.17124 0.33823 0.27512 0.0
C244 C 0.62438 0.81809 0.34241 0.0
C245 C 0.64107 0.81673 0.401 0.0
H246 H 0.62783 0.82861 0.2361 0.0
C247 C 0.67526 0.82545 0.39613 0.0
H248 H 0.59809 0.8116 0.34446 0.0
C249 C 0.69237 0.83532 0.33407 0.0
C250 C 0.67566 0.83664 0.27546 0.0
H251 H 0.68889 0.82474 0.44038 0.0
H252 H 0.71866 0.84181 0.332 0.0
C253 C 0.64147 0.82791 0.28034 0.0
C254 C 0.18181 0.80941 0.32234 0.0
C255 C 0.16632 0.81139 0.38227 0.0
H256 H 0.18613 0.8165 0.21482 0.0
C257 C 0.14253 0.82237 0.37857 0.0
H258 H 0.20025 0.80108 0.32349 0.0
C259 C 0.13441 0.8312 0.31636 0.0
C260 C 0.14996 0.82931 0.25645 0.0
H261 H 0.13014 0.8242 0.42385 0.0
H262 H 0.11599 0.83955 0.31525 0.0
C263 C 0.17373 0.81829 0.26011 0.0
C264 C 0.30765 0.15911 0.61192 0.0
C265 C 0.34216 0.16905 0.60727 0.0
H266 H 0.26412 0.1418 0.67595 0.0
C267 C 0.35933 0.16893 0.66613 0.0
H268 H 0.29366 0.15887 0.56745 0.0
C269 C 0.34235 0.15907 0.72828 0.0
C270 C 0.30783 0.14912 0.73291 0.0
H271 H 0.38589 0.17638 0.6642 0.0
H272 H 0.35632 0.1593 0.77277 0.0
C273 C 0.29067 0.14926 0.67405 0.0
C274 C 0.82068 0.14217 0.60729 0.0
C275 C 0.81241 0.16794 0.60261 0.0
H276 H 0.83618 0.11443 0.67131 0.0
C277 C 0.81371 0.1858 0.66145 0.0
H278 H 0.81997 0.12794 0.56287 0.0
C279 C 0.8231 0.17811 0.72352 0.0
C280 C 0.83137 0.15234 0.72821 0.0
H281 H 0.80756 0.20582 0.65955 0.0
H282 H 0.82383 0.19236 0.76792 0.0
C283 C 0.83003 0.13444 0.66939 0.0
C284 C 0.82133 0.64531 0.71697 0.0
C285 C 0.83204 0.67997 0.7209 0.0
H286 H 0.80415 0.6017 0.65346 0.0
C287 C 0.83336 0.69731 0.66126 0.0
H288 H 0.81999 0.63119 0.76204 0.0
C289 C 0.82419 0.68035 0.59907 0.0
C290 C 0.81354 0.6457 0.59513 0.0
H291 H 0.84144 0.72398 0.6626 0.0
H292 H 0.82553 0.69446 0.55399 0.0
C293 C 0.81221 0.62837 0.65478 0.0
C294 C 0.95047 0.46644 0.99458 0.0
C295 C 0.96773 0.48291 0.05397 0.0
H296 H 0.95343 0.46077 0.88756 0.0
C297 C 0.00238 0.50704 0.04977 0.0
H298 H 0.92381 0.4477 0.99613 0.0
C299 C 0.01939 0.51454 0.98759 0.0
C300 C 0.00213 0.49803 0.92823 0.0
H301 H 0.01644 0.52016 0.09463 0.0
H302 H 0.04604 0.53327 0.98606 0.0
C303 C 0.96748 0.47391 0.93242 0.0
C304 C 0.48419 0.50796 0.06017 0.0
C305 C 0.49574 0.48464 0.06398 0.0
H306 H 0.46606 0.53362 0.99671 0.0
C307 C 0.49769 0.46903 0.00426 0.0
H308 H 0.48234 0.52038 0.10532 0.0
C309 C 0.48832 0.47661 0.94209 0.0
C310 C 0.47677 0.49994 0.93826 0.0
H311 H 0.50644 0.45094 0.00552 0.0
H312 H 0.49018 0.46419 0.89694 0.0
C313 C 0.4748 0.51553 -0.00202 0.0
C314 C 0.51389 0.02479 0.00393 0.0
C315 C 0.49559 0.00833 0.06249 0.0
H316 H 0.52097 0.02116 0.89767 0.0
C317 C 0.46959 0.97444 0.05755 0.0
H318 H 0.53409 0.05085 0.00604 0.0
C319 C 0.4621 0.95737 0.99548 0.0
C320 C 0.48043 0.97382 0.93694 0.0
H321 H 0.45503 0.961 0.10175 0.0
H322 H 0.44192 0.9313 0.99338 0.0
C323 C 0.50639 0.00773 0.94187 0.0
C324 C 0.15546 0.33895 0.89128 0.0
C325 C 0.14938 0.30582 0.89701 0.0
H326 H 0.16628 0.38005 0.825 0.0
C327 C 0.14984 0.28845 0.83867 0.0
H328 H 0.15514 0.35283 0.93547 0.0
C329 C 0.15613 0.30395 0.77543 0.0
C330 C 0.16202 0.33703 0.76968 0.0
H331 H 0.14518 0.26281 0.84178 0.0
H332 H 0.15636 0.29007 0.73119 0.0
C333 C 0.16172 0.35444 0.82807 0.0
C334 C 0.62546 0.79901 0.83281 0.0
C335 C 0.64272 0.81683 0.77435 0.0
H336 H 0.62726 0.79411 0.94025 0.0
C337 C 0.67584 0.844 0.77994 0.0
H338 H 0.59982 0.77796 0.82988 0.0
C339 C 0.69145 0.85325 0.84308 0.0
C340 C 0.67417 0.83547 0.90156 0.0
H341 H 0.68964 0.85819 0.73567 0.0
H342 H 0.71708 0.87433 0.84602 0.0
C343 C 0.64107 0.80827 0.89596 0.0
C344 C 0.15887 0.80349 0.87783 0.0
C345 C 0.15038 0.82894 0.88316 0.0
H346 H 0.17315 0.77559 0.81212 0.0
C347 C 0.14968 0.84606 0.82462 0.0
H348 H 0.15956 0.78993 0.9222 0.0
C349 C 0.15736 0.83784 0.76167 0.0
C350 C 0.16592 0.81244 0.75636 0.0
H351 H 0.14316 0.8658 0.82737 0.0
H352 H 0.15668 0.85142 0.71731 0.0
C353 C 0.16661 0.79532 0.81489 0.0
C354 C 0.30678 0.14218 0.22831 0.0
C355 C 0.34023 0.16872 0.23362 0.0
H356 H 0.26535 0.11222 0.1624 0.0
C357 C 0.3579 0.18582 0.17492 0.0
H358 H 0.29268 0.12857 0.2728 0.0
C359 C 0.34236 0.17646 0.11178 0.0
C360 C 0.30893 0.14987 0.10645 0.0
H361 H 0.3838 0.20639 0.17768 0.0
H362 H 0.35648 0.19005 0.06728 0.0
C363 C 0.29124 0.13281 0.16516 0.0
C364 C 0.85058 0.15687 0.1591 0.0
C365 C 0.83178 0.15495 0.10126 0.0
H366 H 0.85656 0.16493 0.26611 0.0
C367 C 0.80403 0.16 0.10752 0.0
H368 H 0.87212 0.15302 0.15565 0.0
C369 C 0.79514 0.16675 0.17073 0.0
C370 C 0.81385 0.16852 0.22861 0.0
H371 H 0.78909 0.15857 0.06374 0.0
H372 H 0.77357 0.17054 0.17421 0.0
C373 C 0.84167 0.16358 0.22231 0.0
C374 C 0.80576 0.64536 0.10031 0.0
C375 C 0.83191 0.67897 0.09481 0.0
H376 H 0.77688 0.60359 0.1662 0.0
C377 C 0.84934 0.69658 0.15325 0.0
H378 H 0.79191 0.63128 0.05603 0.0
C379 C 0.84076 0.6808 0.21629 0.0
C380 C 0.81462 0.64719 0.22177 0.0
H381 H 0.86963 0.72259 0.15035 0.0
H382 H 0.85461 0.69487 0.26059 0.0
C383 C 0.79717 0.62959 0.16333 0.0
C384 C 0.95126 0.48298 0.48658 0.0
C385 C 0.96895 0.48346 0.42792 0.0
H386 H 0.95292 0.48946 0.59407 0.0
C387 C 0.00264 0.49103 0.43316 0.0
H388 H 0.92519 0.47717 0.48388 0.0
C389 C 0.01841 0.49795 0.49616 0.0
C390 C 0.00073 0.49745 0.55483 0.0
H391 H 0.01679 0.49151 0.38871 0.0
H392 H 0.04448 0.50373 0.49883 0.0
C393 C 0.96706 0.48995 0.5496 0.0
C394 C 0.46097 0.50108 0.50537 0.0
C395 C 0.47655 0.49831 0.56446 0.0
H396 H 0.45743 0.49641 0.39751 0.0
C397 C 0.50093 0.48832 0.55968 0.0
H398 H 0.44206 0.50878 0.50774 0.0
C399 C 0.50974 0.48135 0.49668 0.0
C400 C 0.49425 0.48423 0.43757 0.0
H401 H 0.51331 0.48603 0.6045 0.0
H402 H 0.52869 0.47371 0.49434 0.0
C403 C 0.46975 0.49407 0.44235 0.0
C404 C 0.4858 0.95914 0.50631 0.0
C405 C 0.48189 0.97518 0.56351 0.0
H406 H 0.49514 0.96175 0.39969 0.0
C407 C 0.48433 0.00683 0.55639 0.0
H408 H 0.48397 0.93465 0.51044 0.0
C409 C 0.49059 0.02223 0.49303 0.0
C410 C 0.49452 0.0062 0.43584 0.0
H411 H 0.48127 0.01964 0.59964 0.0
H412 H 0.49243 0.04673 0.48893 0.0
C413 C 0.49206 0.97454 0.44294 0.0
C414 C 0.15827 0.17138 0.0244 0.0
C415 C 0.17659 0.20573 0.0421 0.0
H416 H 0.15961 0.12941 0.97947 0.0
C417 C 0.2114 0.22421 0.02793 0.0
H418 H 0.13133 0.15658 0.03392 0.0
C419 C 0.22754 0.20871 0.99632 0.0
C420 C 0.20913 0.17449 0.97775 0.0
H421 H 0.22612 0.2508 0.04039 0.0
H422 H 0.25444 0.22355 0.98645 0.0
C423 C 0.17437 0.15594 0.99233 0.0
C424 C 0.77022 0.01212 0.99636 0.0
C425 C 0.80447 0.02784 0.97753 0.0
H426 H 0.72816 0.96886 0.0414 0.0
C427 C 0.8231 0.0118 0.99278 0.0
H428 H 0.75532 0.02406 0.98596 0.0
C429 C 0.80775 0.98056 0.02578 0.0
C430 C 0.77337 0.96458 0.04369 0.0
H431 H 0.84966 0.02351 0.97974 0.0
H432 H 0.82265 0.96858 0.03583 0.0
C433 C 0.75478 0.98071 0.0288 0.0
C434 C 0.97549 0.75559 0.96379 0.0
C435 C 0.96007 0.775 0.95041 0.0
H436 H 0.01864 0.75469 0.00404 0.0
C437 C 0.97704 0.80929 0.9686 0.0
H438 H 0.96287 0.72901 0.95094 0.0
C439 C 0.00861 0.8238 0.00026 0.0
C440 C 0.02399 0.80438 0.01386 0.0
H441 H 0.96562 0.8248 0.95972 0.0
H442 H 0.02111 0.85033 0.01346 0.0
C443 C 0.00723 0.77019 0.99489 0.0
C444 C 0.77081 0.75978 0.98103 0.0
C445 C 0.80535 0.77823 0.96437 0.0
H446 H 0.72835 0.76072 0.02492 0.0
C447 C 0.82389 0.81268 0.98115 0.0
H448 H 0.75593 0.73311 0.96934 0.0
C449 C 0.80824 0.82834 0.01414 0.0
C450 C 0.77368 0.80992 0.03057 0.0
H451 H 0.85064 0.82747 0.96971 0.0
H452 H 0.82314 0.855 0.0259 0.0
C453 C 0.7551 0.77551 0.0135 0.0
C454 C 0.2134 0.97291 0.00985 0.0
C455 C 0.17882 0.95668 0.02611 0.0
H456 H 0.25596 0.01687 0.96802 0.0
C457 C 0.16025 0.97275 0.01058 0.0
H458 H 0.22827 0.96096 0.0205 0.0
C459 C 0.1759 0.00437 0.97921 0.0
C460 C 0.21052 0.02071 0.96325 0.0
H461 H 0.13345 0.96066 0.02164 0.0
H462 H 0.16098 0.01626 0.96853 0.0
C463 C 0.22915 0.00471 0.97903 0.0
C464 C 0.97438 0.15953 0.97394 0.0
C465 C 0.95927 0.17885 0.95704 0.0
H466 H 0.01678 0.1589 0.01883 0.0
C467 C 0.9764 0.21349 0.97248 0.0
H468 H 0.96162 0.13269 0.96342 0.0
C469 C 0.00789 0.22845 0.0046 0.0
C470 C 0.02274 0.20901 0.02248 0.0
H471 H 0.96525 0.22897 0.96066 0.0
H472 H 0.02058 0.25525 0.0155 0.0
C473 C 0.00574 0.17443 0.00656 0.0
C474 C 0.87467 0.56487 0.33196 0.0
C475 C 0.84042 0.54683 0.35088 0.0
H476 H 0.91643 0.56286 0.28727 0.0
C477 C 0.82151 0.51212 0.33652 0.0
H478 H 0.88979 0.59173 0.34169 0.0
C479 C 0.83656 0.49575 0.30412 0.0
C480 C 0.87091 0.51369 0.28591 0.0
H481 H 0.79494 0.49762 0.34967 0.0
H482 H 0.82144 0.46887 0.29463 0.0
C483 C 0.88981 0.54843 0.3001 0.0
C484 C 0.43533 0.34395 0.32661 0.0
C485 C 0.46963 0.35994 0.30813 0.0
H486 H 0.39347 0.30062 0.37184 0.0
C487 C 0.48853 0.34423 0.32384 0.0
H488 H 0.42023 0.35564 0.31588 0.0
C489 C 0.47339 0.31307 0.35711 0.0
C490 C 0.43899 0.29688 0.37489 0.0
H491 H 0.51514 0.35616 0.31109 0.0
H492 H 0.48849 0.30135 0.36759 0.0
C493 C 0.42012 0.31265 0.3594 0.0
C494 C 0.63677 0.08791 0.32738 0.0
C495 C 0.62085 0.10631 0.30912 0.0
H496 H 0.68044 0.08932 0.37093 0.0
C497 C 0.63703 0.14101 0.32377 0.0
H498 H 0.62474 0.06106 0.3174 0.0
C499 C 0.66859 0.15704 0.35565 0.0
C500 C 0.68474 0.13875 0.37303 0.0
H501 H 0.62518 0.15576 0.31114 0.0
H502 H 0.68066 0.18392 0.3653 0.0
C503 C 0.66848 0.10401 0.35871 0.0
C504 C 0.43403 0.09091 0.30913 0.0
C505 C 0.46873 0.10869 0.2938 0.0
H506 H 0.39195 0.09274 0.35249 0.0
C507 C 0.48787 0.143 0.31149 0.0
H508 H 0.41869 0.06436 0.29674 0.0
C509 C 0.4727 0.15907 0.34461 0.0
C510 C 0.43803 0.14123 0.36028 0.0
H511 H 0.51476 0.15728 0.30111 0.0
H512 H 0.48807 0.18557 0.35737 0.0
C513 C 0.41881 0.10705 0.34179 0.0
C514 C 0.82043 0.30964 0.34405 0.0
C515 C 0.83917 0.29376 0.35988 0.0
H516 H 0.82087 0.35287 0.30101 0.0
C517 C 0.87371 0.31007 0.34321 0.0
H518 H 0.79367 0.29751 0.35552 0.0
C519 C 0.88926 0.34171 0.31175 0.0
C520 C 0.8705 0.35753 0.29569 0.0
H521 H 0.88873 0.29831 0.3542 0.0
H522 H 0.91603 0.35387 0.30035 0.0
C523 C 0.83591 0.34114 0.31202 0.0
C524 C 0.63875 0.54959 0.31479 0.0
C525 C 0.62318 0.51523 0.29739 0.0
H526 H 0.68195 0.59216 0.35863 0.0
C527 C 0.63966 0.49706 0.31298 0.0
H528 H 0.62646 0.56414 0.30413 0.0
C529 C 0.67102 0.51289 0.34551 0.0
C530 C 0.6867 0.54729 0.3626 0.0
H531 H 0.62808 0.47043 0.30108 0.0
H532 H 0.68325 0.49829 0.35619 0.0
C533 C 0.67029 0.56552 0.34678 0.0
C534 C 0.50826 0.8251 0.66083 0.0
C535 C 0.5431 0.84345 0.64684 0.0
H536 H 0.46522 0.82604 0.70136 0.0
C537 C 0.56161 0.87766 0.66541 0.0
H538 H 0.49341 0.79858 0.64794 0.0
C539 C 0.54549 0.89337 0.69632 0.0
C540 C 0.51061 0.87507 0.7099 0.0
H541 H 0.58857 0.89235 0.65596 0.0
H542 H 0.56027 0.91996 0.70876 0.0
C543 C 0.49221 0.84072 0.69229 0.0
C544 C 0.15371 0.6689 0.63485 0.0
C545 C 0.13601 0.68544 0.61593 0.0
H546 H 0.15137 0.62553 0.68168 0.0
C547 C 0.10124 0.67 0.6302 0.0
H548 H 0.1806 0.68036 0.62532 0.0
C549 C 0.08454 0.63869 0.66287 0.0
C550 C 0.10233 0.62234 0.68248 0.0
H551 H 0.08699 0.6823 0.61685 0.0
H552 H 0.05767 0.62726 0.67264 0.0
C553 C 0.13707 0.63773 0.66802 0.0
C554 C 0.33304 0.48784 0.68857 0.0
C555 C 0.34933 0.46974 0.70629 0.0
H556 H 0.2897 0.48629 0.64307 0.0
C557 C 0.33349 0.43509 0.69125 0.0
H558 H 0.3448 0.51466 0.69872 0.0
C559 C 0.30204 0.4189 0.65898 0.0
C560 C 0.28594 0.43709 0.64056 0.0
H561 H 0.34559 0.42055 0.70367 0.0
H562 H 0.29031 0.3921 0.64858 0.0
C563 C 0.30171 0.4717 0.65581 0.0
C564 C 0.14993 0.47037 0.64623 0.0
C565 C 0.13139 0.43591 0.62962 0.0
H566 H 0.1492 0.51274 0.6905 0.0
C567 C 0.09685 0.41745 0.64625 0.0
H568 H 0.1767 0.48515 0.63495 0.0
C569 C 0.08113 0.43323 0.67849 0.0
C570 C 0.09973 0.46767 0.69535 0.0
H571 H 0.082 0.39076 0.63479 0.0
H572 H 0.05435 0.4185 0.68973 0.0
C573 C 0.1343 0.48605 0.67902 0.0
C574 C 0.54111 0.6398 0.67805 0.0
C575 C 0.50666 0.62476 0.69493 0.0
H576 H 0.58446 0.68269 0.63536 0.0
C577 C 0.48906 0.64176 0.67887 0.0
H578 H 0.55525 0.62712 0.68911 0.0
C579 C 0.5056 0.67323 0.64685 0.0
C580 C 0.54015 0.68848 0.63072 0.0
H581 H 0.46238 0.6306 0.69041 0.0
H582 H 0.49145 0.68594 0.63605 0.0
C583 C 0.55773 0.67142 0.64655 0.0
C584 C 0.30931 0.82351 0.641 0.0
C585 C 0.29281 0.84148 0.62375 0.0
H586 H 0.35279 0.82522 0.68621 0.0
C587 C 0.30837 0.87602 0.63962 0.0
H588 H 0.29777 0.79678 0.63014 0.0
C589 C 0.33981 0.89227 0.67199 0.0
C590 C 0.35617 0.87424 0.68977 0.0
H591 H 0.29613 0.89046 0.62751 0.0
H592 H 0.35134 0.919 0.68292 0.0
C593 C 0.34061 0.8397 0.67392 0.0
loop_
_geom_bond_atom_site_label_1
_geom_bond_atom_site_label_2
_geom_bond_distance
_geom_bond_site_symmetry_2
_ccdc_geom_bond_type
In0 O1 2.294 . S
In0 O2 2.326 . S
In0 O6 2.266 1_554 S
In0 O7 2.326 1_554 S
In0 O8 2.266 . S
In0 O9 2.326 . S
In0 O11 2.294 . S
In0 O12 2.326 . S
O1 In0 2.294 . S
O1 C10 1.240 . S
O2 In0 2.326 . S
O2 C10 1.252 . S
C3 O6 1.252 . S
C3 O7 1.260 . S
C4 O11 1.240 . S
C4 O12 1.252 . S
C5 O8 1.252 . S
C5 O9 1.260 . S
O6 In0 2.266 1_556 S
O6 C3 1.252 . S
O7 In0 2.326 1_556 S
O7 C3 1.260 . S
O8 In0 2.266 . S
O8 C5 1.252 . S
O9 In0 2.326 . S
O9 C5 1.260 . S
C10 O1 1.240 . S
C10 O2 1.252 . S
O11 In0 2.294 . S
O11 C4 1.240 . S
O12 In0 2.326 . S
O12 C4 1.252 . S
In13 O14 2.294 . S
In13 O15 2.326 . S
In13 O19 2.266 . S
In13 O20 2.326 . S
In13 O21 2.266 1_554 S
In13 O22 2.326 1_554 S
In13 O24 2.294 . S
In13 O25 2.326 . S
O14 In13 2.294 . S
O14 C23 1.240 . S
O15 In13 2.326 . S
O15 C23 1.252 . S
C16 O19 1.252 . S
C16 O20 1.260 . S
C17 O24 1.240 . S
C17 O25 1.252 . S
C18 O21 1.252 . S
C18 O22 1.260 . S
O19 In13 2.266 . S
O19 C16 1.252 . S
O20 In13 2.326 . S
O20 C16 1.260 . S
O21 In13 2.266 1_556 S
O21 C18 1.252 . S
O22 In13 2.326 1_556 S
O22 C18 1.260 . S
C23 O14 1.240 . S
C23 O15 1.252 . S
O24 In13 2.294 . S
O24 C17 1.240 . S
O25 In13 2.326 . S
O25 C17 1.252 . S
In26 O27 2.294 . S
In26 O28 2.326 . S
In26 O32 2.266 . S
In26 O33 2.326 . S
In26 O34 2.266 1_554 S
In26 O35 2.326 1_554 S
In26 O37 2.294 . S
In26 O38 2.326 . S
O27 In26 2.294 . S
O27 C36 1.240 . S
O28 In26 2.326 . S
O28 C36 1.252 . S
C29 O32 1.252 . S
C29 O33 1.260 . S
C30 O37 1.240 . S
C30 O38 1.252 . S
C31 O34 1.252 . S
C31 O35 1.260 . S
O32 In26 2.266 . S
O32 C29 1.252 . S
O33 In26 2.326 . S
O33 C29 1.260 . S
O34 In26 2.266 1_556 S
O34 C31 1.252 . S
O35 In26 2.326 1_556 S
O35 C31 1.260 . S
C36 O27 1.240 . S
C36 O28 1.252 . S
O37 In26 2.294 . S
O37 C30 1.240 . S
O38 In26 2.326 . S
O38 C30 1.252 . S
In39 O40 2.294 . S
In39 O41 2.326 . S
In39 O45 2.266 1_556 S
In39 O46 2.326 1_556 S
In39 O47 2.266 . S
In39 O48 2.326 . S
In39 O50 2.294 . S
In39 O51 2.326 . S
O40 In39 2.294 . S
O40 C49 1.240 . S
O41 In39 2.326 . S
O41 C49 1.252 . S
C42 O45 1.252 . S
C42 O46 1.260 . S
C43 O50 1.240 . S
C43 O51 1.252 . S
C44 O47 1.252 . S
C44 O48 1.260 . S
O45 In39 2.266 1_554 S
O45 C42 1.252 . S
O46 In39 2.326 1_554 S
O46 C42 1.260 . S
O47 In39 2.266 . S
O47 C44 1.252 . S
O48 In39 2.326 . S
O48 C44 1.260 . S
C49 O40 1.240 . S
C49 O41 1.252 . S
O50 In39 2.294 . S
O50 C43 1.240 . S
O51 In39 2.326 . S
O51 C43 1.252 . S
In52 O53 2.294 . S
In52 O54 2.326 . S
In52 O58 2.266 1_556 S
In52 O59 2.326 1_556 S
In52 O60 2.266 . S
In52 O61 2.326 . S
In52 O63 2.294 . S
In52 O64 2.326 . S
O53 In52 2.294 . S
O53 C62 1.240 . S
O54 In52 2.326 . S
O54 C62 1.252 . S
C55 O58 1.252 . S
C55 O59 1.260 . S
C56 O63 1.240 . S
C56 O64 1.252 . S
C57 O60 1.252 . S
C57 O61 1.260 . S
O58 In52 2.266 1_554 S
O58 C55 1.252 . S
O59 In52 2.326 1_554 S
O59 C55 1.260 . S
O60 In52 2.266 . S
O60 C57 1.252 . S
O61 In52 2.326 . S
O61 C57 1.260 . S
C62 O53 1.240 . S
C62 O54 1.252 . S
O63 In52 2.294 . S
O63 C56 1.240 . S
O64 In52 2.326 . S
O64 C56 1.252 . S
In65 O66 2.294 . S
In65 O67 2.326 . S
In65 O71 2.266 . S
In65 O72 2.326 . S
In65 O73 2.266 1_556 S
In65 O74 2.326 1_556 S
In65 O76 2.294 . S
In65 O77 2.326 . S
O66 In65 2.294 . S
O66 C75 1.240 . S
O67 In65 2.326 . S
O67 C75 1.252 . S
C68 O71 1.252 . S
C68 O72 1.260 . S
C69 O76 1.240 . S
C69 O77 1.252 . S
C70 O73 1.252 . S
C70 O74 1.260 . S
O71 In65 2.266 . S
O71 C68 1.252 . S
O72 In65 2.326 . S
O72 C68 1.260 . S
O73 In65 2.266 1_554 S
O73 C70 1.252 . S
O74 In65 2.326 1_554 S
O74 C70 1.260 . S
C75 O66 1.240 . S
C75 O67 1.252 . S
O76 In65 2.294 . S
O76 C69 1.240 . S
O77 In65 2.326 . S
O77 C69 1.252 . S
In78 O79 2.294 . S
In78 O80 2.326 . S
In78 O84 2.266 . S
In78 O85 2.326 . S
In78 O86 2.266 . S
In78 O87 2.326 . S
In78 O89 2.294 . S
In78 O90 2.326 . S
O79 In78 2.294 . S
O79 C88 1.240 . S
O80 In78 2.326 . S
O80 C88 1.252 . S
C81 O84 1.252 . S
C81 O85 1.260 . S
C82 O89 1.240 . S
C82 O90 1.252 . S
C83 O86 1.252 . S
C83 O87 1.260 . S
O84 In78 2.266 . S
O84 C81 1.252 . S
O85 In78 2.326 . S
O85 C81 1.260 . S
O86 In78 2.266 . S
O86 C83 1.252 . S
O87 In78 2.326 . S
O87 C83 1.260 . S
C88 O79 1.240 . S
C88 O80 1.252 . S
O89 In78 2.294 . S
O89 C82 1.240 . S
O90 In78 2.326 . S
O90 C82 1.252 . S
In91 O92 2.294 . S
In91 O93 2.326 . S
In91 O97 2.266 . S
In91 O98 2.326 . S
In91 O99 2.266 . S
In91 O100 2.326 . S
In91 O102 2.294 . S
In91 O103 2.326 . S
O92 In91 2.294 . S
O92 C101 1.240 . S
O93 In91 2.326 . S
O93 C101 1.252 . S
C94 O97 1.252 . S
C94 O98 1.260 . S
C95 O102 1.240 . S
C95 O103 1.252 . S
C96 O99 1.252 . S
C96 O100 1.260 . S
O97 In91 2.266 . S
O97 C94 1.252 . S
O98 In91 2.326 . S
O98 C94 1.260 . S
O99 In91 2.266 . S
O99 C96 1.252 . S
O100 In91 2.326 . S
O100 C96 1.260 . S
C101 O92 1.240 . S
C101 O93 1.252 . S
O102 In91 2.294 . S
O102 C95 1.240 . S
O103 In91 2.326 . S
O103 C95 1.252 . S
In104 O105 2.294 . S
In104 O106 2.326 . S
In104 O110 2.266 . S
In104 O111 2.326 . S
In104 O112 2.266 . S
In104 O113 2.326 . S
In104 O115 2.294 . S
In104 O116 2.326 . S
O105 In104 2.294 . S
O105 C114 1.240 . S
O106 In104 2.326 . S
O106 C114 1.252 . S
C107 O110 1.252 . S
C107 O111 1.260 . S
C108 O115 1.240 . S
C108 O116 1.252 . S
C109 O112 1.252 . S
C109 O113 1.260 . S
O110 In104 2.266 . S
O110 C107 1.252 . S
O111 In104 2.326 . S
O111 C107 1.260 . S
O112 In104 2.266 . S
O112 C109 1.252 . S
O113 In104 2.326 . S
O113 C109 1.260 . S
C114 O105 1.240 . S
C114 O106 1.252 . S
O115 In104 2.294 . S
O115 C108 1.240 . S
O116 In104 2.326 . S
O116 C108 1.252 . S
In117 O118 2.294 . S
In117 O119 2.326 . S
In117 O123 2.265 1_655 S
In117 O124 2.326 . S
In117 O125 2.266 . S
In117 O126 2.326 . S
In117 O128 2.294 . S
In117 O129 2.326 . S
O118 In117 2.294 . S
O118 C127 1.240 . S
O119 In117 2.326 . S
O119 C127 1.252 . S
C120 O123 1.251 1_655 S
C120 O124 1.260 . S
C121 O128 1.240 . S
C121 O129 1.252 . S
C122 O125 1.252 . S
C122 O126 1.260 . S
O123 In117 2.265 1_455 S
O123 C120 1.251 1_455 S
O124 In117 2.326 . S
O124 C120 1.260 . S
O125 In117 2.266 . S
O125 C122 1.252 . S
O126 In117 2.326 . S
O126 C122 1.260 . S
C127 O118 1.240 . S
C127 O119 1.252 . S
O128 In117 2.294 . S
O128 C121 1.240 . S
O129 In117 2.326 . S
O129 C121 1.252 . S
In130 O131 2.294 . S
In130 O132 2.326 . S
In130 O136 2.266 . S
In130 O137 2.326 . S
In130 O138 2.266 . S
In130 O139 2.326 . S
In130 O141 2.294 . S
In130 O142 2.326 . S
O131 In130 2.294 . S
O131 C140 1.240 . S
O132 In130 2.326 . S
O132 C140 1.252 . S
C133 O136 1.252 . S
C133 O137 1.260 . S
C134 O141 1.240 . S
C134 O142 1.252 . S
C135 O138 1.252 . S
C135 O139 1.260 . S
O136 In130 2.266 . S
O136 C133 1.252 . S
O137 In130 2.326 . S
O137 C133 1.260 . S
O138 In130 2.266 . S
O138 C135 1.252 . S
O139 In130 2.326 . S
O139 C135 1.260 . S
C140 O131 1.240 . S
C140 O132 1.252 . S
O141 In130 2.294 . S
O141 C134 1.240 . S
O142 In130 2.326 . S
O142 C134 1.252 . S
In143 O144 2.294 . S
In143 O145 2.326 . S
In143 O149 2.266 1_545 S
In143 O150 2.326 . S
In143 O151 2.266 . S
In143 O152 2.326 . S
In143 O154 2.294 . S
In143 O155 2.326 . S
O144 In143 2.294 . S
O144 C153 1.240 . S
O145 In143 2.326 . S
O145 C153 1.252 . S
C146 O149 1.252 1_545 S
C146 O150 1.260 . S
C147 O154 1.240 . S
C147 O155 1.252 . S
C148 O151 1.252 . S
C148 O152 1.260 . S
O149 In143 2.266 1_565 S
O149 C146 1.252 1_565 S
O150 In143 2.326 . S
O150 C146 1.260 . S
O151 In143 2.266 . S
O151 C148 1.252 . S
O152 In143 2.326 . S
O152 C148 1.260 . S
C153 O144 1.240 . S
C153 O145 1.252 . S
O154 In143 2.294 . S
O154 C147 1.240 . S
O155 In143 2.326 . S
O155 C147 1.252 . S
In156 O157 2.294 . S
In156 O158 2.326 . S
In156 O162 2.265 1_565 S
In156 O163 2.326 . S
In156 O164 2.266 . S
In156 O165 2.326 . S
In156 O167 2.294 . S
In156 O168 2.326 . S
O157 In156 2.294 . S
O157 C166 1.240 . S
O158 In156 2.326 . S
O158 C166 1.252 . S
C159 O162 1.251 1_565 S
C159 O163 1.260 . S
C160 O167 1.240 . S
C160 O168 1.252 . S
C161 O164 1.252 . S
C161 O165 1.260 . S
O162 In156 2.265 1_545 S
O162 C159 1.251 1_545 S
O163 In156 2.326 . S
O163 C159 1.260 . S
O164 In156 2.266 . S
O164 C161 1.252 . S
O165 In156 2.326 . S
O165 C161 1.260 . S
C166 O157 1.240 . S
C166 O158 1.252 . S
O167 In156 2.294 . S
O167 C160 1.240 . S
O168 In156 2.326 . S
O168 C160 1.252 . S
In169 O170 2.294 . S
In169 O171 2.326 . S
In169 O175 2.266 . S
In169 O176 2.326 . S
In169 O177 2.266 1_455 S
In169 O178 2.326 . S
In169 O180 2.294 . S
In169 O181 2.326 . S
O170 In169 2.294 . S
O170 C179 1.240 . S
O171 In169 2.326 . S
O171 C179 1.252 . S
C172 O175 1.252 . S
C172 O176 1.260 . S
C173 O180 1.240 . S
C173 O181 1.252 . S
C174 O177 1.252 1_455 S
C174 O178 1.260 . S
O175 In169 2.266 . S
O175 C172 1.252 . S
O176 In169 2.326 . S
O176 C172 1.260 . S
O177 In169 2.266 1_655 S
O177 C174 1.252 1_655 S
O178 In169 2.326 . S
O178 C174 1.260 . S
C179 O170 1.240 . S
C179 O171 1.252 . S
O180 In169 2.294 . S
O180 C173 1.240 . S
O181 In169 2.326 . S
O181 C173 1.252 . S
In182 O183 2.294 . S
In182 O184 2.326 . S
In182 O188 2.266 . S
In182 O189 2.326 . S
In182 O190 2.266 . S
In182 O191 2.326 . S
In182 O193 2.294 . S
In182 O194 2.326 . S
O183 In182 2.294 . S
O183 C192 1.240 . S
O184 In182 2.326 . S
O184 C192 1.252 . S
C185 O188 1.252 . S
C185 O189 1.260 . S
C186 O193 1.240 . S
C186 O194 1.252 . S
C187 O190 1.252 . S
C187 O191 1.260 . S
O188 In182 2.266 . S
O188 C185 1.252 . S
O189 In182 2.326 . S
O189 C185 1.260 . S
O190 In182 2.266 . S
O190 C187 1.252 . S
O191 In182 2.326 . S
O191 C187 1.260 . S
C192 O183 1.240 . S
C192 O184 1.252 . S
O193 In182 2.294 . S
O193 C186 1.240 . S
O194 In182 2.326 . S
O194 C186 1.252 . S
In195 O196 2.294 . S
In195 O197 2.326 . S
In195 O201 2.266 . S
In195 O202 2.326 . S
In195 O203 2.266 . S
In195 O204 2.326 . S
In195 O206 2.294 . S
In195 O207 2.326 . S
O196 In195 2.294 . S
O196 C205 1.240 . S
O197 In195 2.326 . S
O197 C205 1.252 . S
C198 O201 1.252 . S
C198 O202 1.260 . S
C199 O206 1.240 . S
C199 O207 1.252 . S
C200 O203 1.252 . S
C200 O204 1.260 . S
O201 In195 2.266 . S
O201 C198 1.252 . S
O202 In195 2.326 . S
O202 C198 1.260 . S
O203 In195 2.266 . S
O203 C200 1.252 . S
O204 In195 2.326 . S
O204 C200 1.260 . S
C205 O196 1.240 . S
C205 O197 1.252 . S
O206 In195 2.294 . S
O206 C199 1.240 . S
O207 In195 2.326 . S
O207 C199 1.252 . S
In208 O209 2.294 . S
In208 O210 2.326 . S
In208 O214 2.266 . S
In208 O215 2.326 . S
In208 O216 2.266 . S
In208 O217 2.326 . S
In208 O219 2.294 . S
In208 O220 2.326 . S
O209 In208 2.294 . S
O209 C218 1.240 . S
O210 In208 2.326 . S
O210 C218 1.252 . S
C211 O214 1.252 . S
C211 O215 1.260 . S
C212 O219 1.240 . S
C212 O220 1.252 . S
C213 O216 1.252 . S
C213 O217 1.260 . S
O214 In208 2.266 . S
O214 C211 1.252 . S
O215 In208 2.326 . S
O215 C211 1.260 . S
O216 In208 2.266 . S
O216 C213 1.252 . S
O217 In208 2.326 . S
O217 C213 1.260 . S
C218 O209 1.240 . S
C218 O210 1.252 . S
O219 In208 2.294 . S
O219 C212 1.240 . S
O220 In208 2.326 . S
O220 C212 1.252 . S
In221 O222 2.294 . S
In221 O223 2.326 . S
In221 O227 2.266 . S
In221 O228 2.326 . S
In221 O229 2.266 . S
In221 O230 2.326 . S
In221 O232 2.294 . S
In221 O233 2.326 . S
O222 In221 2.294 . S
O222 C231 1.240 . S
O223 In221 2.326 . S
O223 C231 1.252 . S
C224 O227 1.252 . S
C224 O228 1.260 . S
C225 O232 1.240 . S
C225 O233 1.252 . S
C226 O229 1.252 . S
C226 O230 1.260 . S
O227 In221 2.266 . S
O227 C224 1.252 . S
O228 In221 2.326 . S
O228 C224 1.260 . S
O229 In221 2.266 . S
O229 C226 1.252 . S
O230 In221 2.326 . S
O230 C226 1.260 . S
C231 O222 1.240 . S
C231 O223 1.252 . S
O232 In221 2.294 . S
O232 C225 1.240 . S
O233 In221 2.326 . S
O233 C225 1.252 . S
C234 C235 1.387 . S
C234 H238 0.950 . S
C234 C243 1.390 . S
C235 C234 1.387 . S
C235 C237 1.387 . S
H236 C243 0.950 . S
C237 C235 1.387 . S
C237 C239 1.390 . S
C237 H241 0.950 . S
H238 C234 0.950 . S
C239 C237 1.390 . S
C239 C240 1.387 . S
C239 H242 0.950 . S
C240 C239 1.387 . S
C240 C243 1.387 . S
H241 C237 0.950 . S
H242 C239 0.950 . S
C243 C234 1.390 . S
C243 H236 0.950 . S
C243 C240 1.387 . S
C244 C245 1.387 . S
C244 H248 0.950 . S
C244 C253 1.390 . S
C245 C244 1.387 . S
C245 C247 1.387 . S
H246 C253 0.950 . S
C247 C245 1.387 . S
C247 C249 1.390 . S
C247 H251 0.950 . S
H248 C244 0.950 . S
C249 C247 1.390 . S
C249 C250 1.387 . S
C249 H252 0.950 . S
C250 C249 1.387 . S
C250 C253 1.387 . S
H251 C247 0.950 . S
H252 C249 0.950 . S
C253 C244 1.390 . S
C253 H246 0.950 . S
C253 C250 1.387 . S
C254 C255 1.387 . S
C254 H258 0.950 . S
C254 C263 1.390 . S
C255 C254 1.387 . S
C255 C257 1.387 . S
H256 C263 0.950 . S
C257 C255 1.387 . S
C257 C259 1.390 . S
C257 H261 0.950 . S
H258 C254 0.950 . S
C259 C257 1.390 . S
C259 C260 1.387 . S
C259 H262 0.950 . S
C260 C259 1.387 . S
C260 C263 1.387 . S
H261 C257 0.950 . S
H262 C259 0.950 . S
C263 C254 1.390 . S
C263 H256 0.950 . S
C263 C260 1.387 . S
C264 C265 1.387 . S
C264 H268 0.950 . S
C264 C273 1.390 . S
C265 C264 1.387 . S
C265 C267 1.387 . S
H266 C273 0.950 . S
C267 C265 1.387 . S
C267 C269 1.390 . S
C267 H271 0.950 . S
H268 C264 0.950 . S
C269 C267 1.390 . S
C269 C270 1.387 . S
C269 H272 0.950 . S
C270 C269 1.387 . S
C270 C273 1.387 . S
H271 C267 0.950 . S
H272 C269 0.950 . S
C273 C264 1.390 . S
C273 H266 0.950 . S
C273 C270 1.387 . S
C274 C275 1.387 . S
C274 H278 0.950 . S
C274 C283 1.390 . S
C275 C274 1.387 . S
C275 C277 1.387 . S
H276 C283 0.950 . S
C277 C275 1.387 . S
C277 C279 1.390 . S
C277 H281 0.950 . S
H278 C274 0.950 . S
C279 C277 1.390 . S
C279 C280 1.387 . S
C279 H282 0.950 . S
C280 C279 1.387 . S
C280 C283 1.387 . S
H281 C277 0.950 . S
H282 C279 0.950 . S
C283 C274 1.390 . S
C283 H276 0.950 . S
C283 C280 1.387 . S
C284 C285 1.387 . S
C284 H288 0.950 . S
C284 C293 1.390 . S
C285 C284 1.387 . S
C285 C287 1.387 . S
H286 C293 0.950 . S
C287 C285 1.387 . S
C287 C289 1.390 . S
C287 H291 0.950 . S
H288 C284 0.950 . S
C289 C287 1.390 . S
C289 C290 1.387 . S
C289 H292 0.950 . S
C290 C289 1.387 . S
C290 C293 1.387 . S
H291 C287 0.950 . S
H292 C289 0.950 . S
C293 C284 1.390 . S
C293 H286 0.950 . S
C293 C290 1.387 . S
C294 C295 1.387 . S
C294 H298 0.950 . S
C294 C303 1.390 1_554 S
C295 C294 1.387 . S
C295 C297 1.387 1_655 S
H296 C303 0.950 . S
C297 C295 1.387 1_455 S
C297 C299 1.390 1_554 S
C297 H301 0.950 . S
H298 C294 0.950 . S
C299 C297 1.390 1_556 S
C299 C300 1.387 . S
C299 H302 0.950 . S
C300 C299 1.387 . S
C300 C303 1.387 1_455 S
H301 C297 0.950 . S
H302 C299 0.950 . S
C303 C294 1.390 1_556 S
C303 H296 0.950 . S
C303 C300 1.387 1_655 S
C304 C305 1.387 . S
C304 H308 0.950 . S
C304 C313 1.390 1_554 S
C305 C304 1.387 . S
C305 C307 1.387 . S
H306 C313 0.950 . S
C307 C305 1.387 . S
C307 C309 1.390 1_554 S
C307 H311 0.950 . S
H308 C304 0.950 . S
C309 C307 1.390 1_556 S
C309 C310 1.387 . S
C309 H312 0.950 . S
C310 C309 1.387 . S
C310 C313 1.387 . S
H311 C307 0.950 . S
H312 C309 0.950 . S
C313 C304 1.390 1_556 S
C313 H306 0.950 . S
C313 C310 1.387 . S
C314 C315 1.387 . S
C314 H318 0.950 . S
C314 C323 1.390 1_544 S
C315 C314 1.387 . S
C315 C317 1.387 . S
H316 C323 0.950 . S
C317 C315 1.387 . S
C317 C319 1.390 1_544 S
C317 H321 0.950 . S
H318 C314 0.950 . S
C319 C317 1.390 1_566 S
C319 C320 1.387 . S
C319 H322 0.950 . S
C320 C319 1.387 . S
C320 C323 1.387 . S
H321 C317 0.950 . S
H322 C319 0.950 . S
C323 C314 1.390 1_566 S
C323 H316 0.950 . S
C323 C320 1.387 . S
C324 C325 1.387 . S
C324 H328 0.950 . S
C324 C333 1.390 . S
C325 C324 1.387 . S
C325 C327 1.387 . S
H326 C333 0.950 . S
C327 C325 1.387 . S
C327 C329 1.390 . S
C327 H331 0.950 . S
H328 C324 0.950 . S
C329 C327 1.390 . S
C329 C330 1.387 . S
C329 H332 0.950 . S
C330 C329 1.387 . S
C330 C333 1.387 . S
H331 C327 0.950 . S
H332 C329 0.950 . S
C333 C324 1.390 . S
C333 H326 0.950 . S
C333 C330 1.387 . S
C334 C335 1.387 . S
C334 H338 0.950 . S
C334 C343 1.390 . S
C335 C334 1.387 . S
C335 C337 1.387 . S
H336 C343 0.950 . S
C337 C335 1.387 . S
C337 C339 1.390 . S
C337 H341 0.950 . S
H338 C334 0.950 . S
C339 C337 1.390 . S
C339 C340 1.387 . S
C339 H342 0.950 . S
C340 C339 1.387 . S
C340 C343 1.387 . S
H341 C337 0.950 . S
H342 C339 0.950 . S
C343 C334 1.390 . S
C343 H336 0.950 . S
C343 C340 1.387 . S
C344 C345 1.387 . S
C344 H348 0.950 . S
C344 C353 1.390 . S
C345 C344 1.387 . S
C345 C347 1.387 . S
H346 C353 0.950 . S
C347 C345 1.387 . S
C347 C349 1.390 . S
C347 H351 0.950 . S
H348 C344 0.950 . S
C349 C347 1.390 . S
C349 C350 1.387 . S
C349 H352 0.950 . S
C350 C349 1.387 . S
C350 C353 1.387 . S
H351 C347 0.950 . S
H352 C349 0.950 . S
C353 C344 1.390 . S
C353 H346 0.950 . S
C353 C350 1.387 . S
C354 C355 1.387 . S
C354 H358 0.950 . S
C354 C363 1.390 . S
C355 C354 1.387 . S
C355 C357 1.387 . S
H356 C363 0.950 . S
C357 C355 1.387 . S
C357 C359 1.390 . S
C357 H361 0.950 . S
H358 C354 0.950 . S
C359 C357 1.390 . S
C359 C360 1.387 . S
C359 H362 0.950 . S
C360 C359 1.387 . S
C360 C363 1.387 . S
H361 C357 0.950 . S
H362 C359 0.950 . S
C363 C354 1.390 . S
C363 H356 0.950 . S
C363 C360 1.387 . S
C364 C365 1.387 . S
C364 H368 0.950 . S
C364 C373 1.390 . S
C365 C364 1.387 . S
C365 C367 1.387 . S
H366 C373 0.950 . S
C367 C365 1.387 . S
C367 C369 1.390 . S
C367 H371 0.950 . S
H368 C364 0.950 . S
C369 C367 1.390 . S
C369 C370 1.387 . S
C369 H372 0.950 . S
C370 C369 1.387 . S
C370 C373 1.387 . S
H371 C367 0.950 . S
H372 C369 0.950 . S
C373 C364 1.390 . S
C373 H366 0.950 . S
C373 C370 1.387 . S
C374 C375 1.387 . S
C374 H378 0.950 . S
C374 C383 1.390 . S
C375 C374 1.387 . S
C375 C377 1.387 . S
H376 C383 0.950 . S
C377 C375 1.387 . S
C377 C379 1.390 . S
C377 H381 0.950 . S
H378 C374 0.950 . S
C379 C377 1.390 . S
C379 C380 1.387 . S
C379 H382 0.950 . S
C380 C379 1.387 . S
C380 C383 1.387 . S
H381 C377 0.950 . S
H382 C379 0.950 . S
C383 C374 1.390 . S
C383 H376 0.950 . S
C383 C380 1.387 . S
C384 C385 1.387 . S
C384 H388 0.950 . S
C384 C393 1.390 . S
C385 C384 1.387 . S
C385 C387 1.387 1_655 S
H386 C393 0.950 . S
C387 C385 1.387 1_455 S
C387 C389 1.390 . S
C387 H391 0.950 . S
H388 C384 0.950 . S
C389 C387 1.390 . S
C389 C390 1.387 . S
C389 H392 0.950 . S
C390 C389 1.387 . S
C390 C393 1.387 1_455 S
H391 C387 0.950 . S
H392 C389 0.950 . S
C393 C384 1.390 . S
C393 H386 0.950 . S
C393 C390 1.387 1_655 S
C394 C395 1.387 . S
C394 H398 0.950 . S
C394 C403 1.390 . S
C395 C394 1.387 . S
C395 C397 1.387 . S
H396 C403 0.950 . S
C397 C395 1.387 . S
C397 C399 1.390 . S
C397 H401 0.950 . S
H398 C394 0.950 . S
C399 C397 1.390 . S
C399 C400 1.387 . S
C399 H402 0.950 . S
C400 C399 1.387 . S
C400 C403 1.387 . S
H401 C397 0.950 . S
H402 C399 0.950 . S
C403 C394 1.390 . S
C403 H396 0.950 . S
C403 C400 1.387 . S
C404 C405 1.387 . S
C404 H408 0.950 . S
C404 C413 1.390 1_565 S
C405 C404 1.387 . S
C405 C407 1.387 . S
H406 C413 0.950 . S
C407 C405 1.387 . S
C407 C409 1.390 1_565 S
C407 H411 0.950 . S
H408 C404 0.950 . S
C409 C407 1.390 1_545 S
C409 C410 1.387 . S
C409 H412 0.950 . S
C410 C409 1.387 . S
C410 C413 1.387 . S
H411 C407 0.950 . S
H412 C409 0.950 . S
C413 C404 1.390 1_545 S
C413 H406 0.950 . S
C413 C410 1.387 . S
C414 C415 1.387 . S
C414 H418 0.950 . S
C414 C423 1.390 . S
C415 C414 1.387 . S
C415 C417 1.387 1_554 S
H416 C423 0.950 . S
C417 C415 1.387 1_556 S
C417 C419 1.390 . S
C417 H421 0.950 . S
H418 C414 0.950 . S
C419 C417 1.390 . S
C419 C420 1.387 . S
C419 H422 0.950 . S
C420 C419 1.387 . S
C420 C423 1.387 1_556 S
H421 C417 0.950 . S
H422 C419 0.950 . S
C423 C414 1.390 . S
C423 H416 0.950 . S
C423 C420 1.387 1_554 S
C424 C425 1.387 . S
C424 H428 0.950 . S
C424 C433 1.390 1_546 S
C425 C424 1.387 . S
C425 C427 1.387 . S
H426 C433 0.950 . S
C427 C425 1.387 . S
C427 C429 1.390 1_546 S
C427 H431 0.950 . S
H428 C424 0.950 . S
C429 C427 1.390 1_564 S
C429 C430 1.387 . S
C429 H432 0.950 . S
C430 C429 1.387 . S
C430 C433 1.387 . S
H431 C427 0.950 . S
H432 C429 0.950 . S
C433 C424 1.390 1_564 S
C433 H426 0.950 . S
C433 C430 1.387 . S
C434 C435 1.387 1_554 S
C434 H438 0.950 . S
C434 C443 1.390 1_655 S
C435 C434 1.387 1_556 S
C435 C437 1.387 . S
H436 C443 0.950 . S
C437 C435 1.387 . S
C437 C439 1.390 1_655 S
C437 H441 0.950 . S
H438 C434 0.950 . S
C439 C437 1.390 1_455 S
C439 C440 1.387 1_556 S
C439 H442 0.950 . S
C440 C439 1.387 1_554 S
C440 C443 1.387 . S
H441 C437 0.950 . S
H442 C439 0.950 . S
C443 C434 1.390 1_455 S
C443 H436 0.950 . S
C443 C440 1.387 . S
C444 C445 1.387 1_554 S
C444 H448 0.950 . S
C444 C453 1.390 . S
C445 C444 1.387 1_556 S
C445 C447 1.387 . S
H446 C453 0.950 . S
C447 C445 1.387 . S
C447 C449 1.390 . S
C447 H451 0.950 . S
H448 C444 0.950 . S
C449 C447 1.390 . S
C449 C450 1.387 1_556 S
C449 H452 0.950 . S
C450 C449 1.387 1_554 S
C450 C453 1.387 . S
H451 C447 0.950 . S
H452 C449 0.950 . S
C453 C444 1.390 . S
C453 H446 0.950 . S
C453 C450 1.387 . S
C454 C455 1.387 . S
C454 H458 0.950 . S
C454 C463 1.390 1_564 S
C455 C454 1.387 . S
C455 C457 1.387 . S
H456 C463 0.950 . S
C457 C455 1.387 . S
C457 C459 1.390 1_564 S
C457 H461 0.950 . S
H458 C454 0.950 . S
C459 C457 1.390 1_546 S
C459 C460 1.387 . S
C459 H462 0.950 . S
C460 C459 1.387 . S
C460 C463 1.387 . S
H461 C457 0.950 . S
H462 C459 0.950 . S
C463 C454 1.390 1_546 S
C463 H456 0.950 . S
C463 C460 1.387 . S
C464 C465 1.387 1_554 S
C464 H468 0.950 . S
C464 C473 1.390 1_655 S
C465 C464 1.387 1_556 S
C465 C467 1.387 . S
H466 C473 0.950 . S
C467 C465 1.387 . S
C467 C469 1.390 1_655 S
C467 H471 0.950 . S
H468 C464 0.950 . S
C469 C467 1.390 1_455 S
C469 C470 1.387 1_556 S
C469 H472 0.950 . S
C470 C469 1.387 1_554 S
C470 C473 1.387 . S
H471 C467 0.950 . S
H472 C469 0.950 . S
C473 C464 1.390 1_455 S
C473 H466 0.950 . S
C473 C470 1.387 . S
C474 C475 1.387 . S
C474 H478 0.950 . S
C474 C483 1.390 . S
C475 C474 1.387 . S
C475 C477 1.387 . S
H476 C483 0.950 . S
C477 C475 1.387 . S
C477 C479 1.390 . S
C477 H481 0.950 . S
H478 C474 0.950 . S
C479 C477 1.390 . S
C479 C480 1.387 . S
C479 H482 0.950 . S
C480 C479 1.387 . S
C480 C483 1.387 . S
H481 C477 0.950 . S
H482 C479 0.950 . S
C483 C474 1.390 . S
C483 H476 0.950 . S
C483 C480 1.387 . S
C484 C485 1.387 . S
C484 H488 0.950 . S
C484 C493 1.390 . S
C485 C484 1.387 . S
C485 C487 1.387 . S
H486 C493 0.950 . S
C487 C485 1.387 . S
C487 C489 1.390 . S
C487 H491 0.950 . S
H488 C484 0.950 . S
C489 C487 1.390 . S
C489 C490 1.387 . S
C489 H492 0.950 . S
C490 C489 1.387 . S
C490 C493 1.387 . S
H491 C487 0.950 . S
H492 C489 0.950 . S
C493 C484 1.390 . S
C493 H486 0.950 . S
C493 C490 1.387 . S
C494 C495 1.387 . S
C494 H498 0.950 . S
C494 C503 1.390 . S
C495 C494 1.387 . S
C495 C497 1.387 . S
H496 C503 0.950 . S
C497 C495 1.387 . S
C497 C499 1.390 . S
C497 H501 0.950 . S
H498 C494 0.950 . S
C499 C497 1.390 . S
C499 C500 1.387 . S
C499 H502 0.950 . S
C500 C499 1.387 . S
C500 C503 1.387 . S
H501 C497 0.950 . S
H502 C499 0.950 . S
C503 C494 1.390 . S
C503 H496 0.950 . S
C503 C500 1.387 . S
C504 C505 1.387 . S
C504 H508 0.950 . S
C504 C513 1.390 . S
C505 C504 1.387 . S
C505 C507 1.387 . S
H506 C513 0.950 . S
C507 C505 1.387 . S
C507 C509 1.390 . S
C507 H511 0.950 . S
H508 C504 0.950 . S
C509 C507 1.390 . S
C509 C510 1.387 . S
C509 H512 0.950 . S
C510 C509 1.387 . S
C510 C513 1.387 . S
H511 C507 0.950 . S
H512 C509 0.950 . S
C513 C504 1.390 . S
C513 H506 0.950 . S
C513 C510 1.387 . S
C514 C515 1.387 . S
C514 H518 0.950 . S
C514 C523 1.390 . S
C515 C514 1.387 . S
C515 C517 1.387 . S
H516 C523 0.950 . S
C517 C515 1.387 . S
C517 C519 1.390 . S
C517 H521 0.950 . S
H518 C514 0.950 . S
C519 C517 1.390 . S
C519 C520 1.387 . S
C519 H522 0.950 . S
C520 C519 1.387 . S
C520 C523 1.387 . S
H521 C517 0.950 . S
H522 C519 0.950 . S
C523 C514 1.390 . S
C523 H516 0.950 . S
C523 C520 1.387 . S
C524 C525 1.387 . S
C524 H528 0.950 . S
C524 C533 1.390 . S
C525 C524 1.387 . S
C525 C527 1.387 . S
H526 C533 0.950 . S
C527 C525 1.387 . S
C527 C529 1.390 . S
C527 H531 0.950 . S
H528 C524 0.950 . S
C529 C527 1.390 . S
C529 C530 1.387 . S
C529 H532 0.950 . S
C530 C529 1.387 . S
C530 C533 1.387 . S
H531 C527 0.950 . S
H532 C529 0.950 . S
C533 C524 1.390 . S
C533 H526 0.950 . S
C533 C530 1.387 . S
C534 C535 1.387 . S
C534 H538 0.950 . S
C534 C543 1.390 . S
C535 C534 1.387 . S
C535 C537 1.387 . S
H536 C543 0.950 . S
C537 C535 1.387 . S
C537 C539 1.390 . S
C537 H541 0.950 . S
H538 C534 0.950 . S
C539 C537 1.390 . S
C539 C540 1.387 . S
C539 H542 0.950 . S
C540 C539 1.387 . S
C540 C543 1.387 . S
H541 C537 0.950 . S
H542 C539 0.950 . S
C543 C534 1.390 . S
C543 H536 0.950 . S
C543 C540 1.387 . S
C544 C545 1.387 . S
C544 H548 0.950 . S
C544 C553 1.390 . S
C545 C544 1.387 . S
C545 C547 1.387 . S
H546 C553 0.950 . S
C547 C545 1.387 . S
C547 C549 1.390 . S
C547 H551 0.950 . S
H548 C544 0.950 . S
C549 C547 1.390 . S
C549 C550 1.387 . S
C549 H552 0.950 . S
C550 C549 1.387 . S
C550 C553 1.387 . S
H551 C547 0.950 . S
H552 C549 0.950 . S
C553 C544 1.390 . S
C553 H546 0.950 . S
C553 C550 1.387 . S
C554 C555 1.387 . S
C554 H558 0.950 . S
C554 C563 1.390 . S
C555 C554 1.387 . S
C555 C557 1.387 . S
H556 C563 0.950 . S
C557 C555 1.387 . S
C557 C559 1.390 . S
C557 H561 0.950 . S
H558 C554 0.950 . S
C559 C557 1.390 . S
C559 C560 1.387 . S
C559 H562 0.950 . S
C560 C559 1.387 . S
C560 C563 1.387 . S
H561 C557 0.950 . S
H562 C559 0.950 . S
C563 C554 1.390 . S
C563 H556 0.950 . S
C563 C560 1.387 . S
C564 C565 1.387 . S
C564 H568 0.950 . S
C564 C573 1.390 . S
C565 C564 1.387 . S
C565 C567 1.387 . S
H566 C573 0.950 . S
C567 C565 1.387 . S
C567 C569 1.390 . S
C567 H571 0.950 . S
H568 C564 0.950 . S
C569 C567 1.390 . S
C569 C570 1.387 . S
C569 H572 0.950 . S
C570 C569 1.387 . S
C570 C573 1.387 . S
H571 C567 0.950 . S
H572 C569 0.950 . S
C573 C564 1.390 . S
C573 H566 0.950 . S
C573 C570 1.387 . S
C574 C575 1.387 . S
C574 H578 0.950 . S
C574 C583 1.390 . S
C575 C574 1.387 . S
C575 C577 1.387 . S
H576 C583 0.950 . S
C577 C575 1.387 . S
C577 C579 1.390 . S
C577 H581 0.950 . S
H578 C574 0.950 . S
C579 C577 1.390 . S
C579 C580 1.387 . S
C579 H582 0.950 . S
C580 C579 1.387 . S
C580 C583 1.387 . S
H581 C577 0.950 . S
H582 C579 0.950 . S
C583 C574 1.390 . S
C583 H576 0.950 . S
C583 C580 1.387 . S
C584 C585 1.387 . S
C584 H588 0.950 . S
C584 C593 1.390 . S
C585 C584 1.387 . S
C585 C587 1.387 . S
H586 C593 0.950 . S
C587 C585 1.387 . S
C587 C589 1.390 . S
C587 H591 0.950 . S
H588 C584 0.950 . S
C589 C587 1.390 . S
C589 C590 1.387 . S
C589 H592 0.950 . S
C590 C589 1.387 . S
C590 C593 1.387 . S
H591 C587 0.950 . S
H592 C589 0.950 . S
C593 C584 1.390 . S
C593 H586 0.950 . S
C593 C590 1.387 . S
C235 C231 1.793 . S
C240 C10 1.793 . S
C245 C205 1.793 . S
C250 C17 1.793 . S
C255 C218 1.793 . S
C260 C30 1.793 . S
C265 C101 1.793 . S
C270 C49 1.793 . S
C275 C114 1.793 . S
C280 C62 1.793 . S
C285 C69 1.793 . S
C290 C88 1.793 . S
C295 C127 1.792 . S
C300 C173 1.792 . S
C305 C134 1.793 . S
C310 C186 1.792 . S
C315 C153 1.793 . S
C320 C166 1.793 . S
C325 C3 0.676 . S
C330 C224 0.676 . S
C335 C198 0.677 . S
C340 C18 0.678 . S
C345 C31 0.681 . S
C350 C211 0.680 . S
C355 C94 0.676 . S
C360 C42 0.676 . S
C365 C55 0.676 . S
C370 C107 0.676 . S
C375 C70 0.676 . S
C380 C81 0.676 . S
C385 C120 0.677 . S
C390 C174 0.678 . S
C395 C187 0.676 . S
C400 C135 0.676 . S
C405 C159 0.681 . S
C410 C146 0.681 . S
C415 C4 1.834 . S
C420 C43 1.834 . S
C425 C56 1.832 . S
C430 C23 1.832 . S
C435 C75 1.832 . S
C440 C36 1.833 . S
C445 C68 1.685 . S
C450 C16 1.684 . S
C455 C29 1.685 . S
C460 C44 1.685 . S
C465 C57 1.684 . S
C470 C5 1.684 . S
C475 C82 1.832 . S
C480 C121 1.833 . S
C485 C140 1.832 . S
C490 C95 1.832 . S
C495 C147 1.832 . S
C500 C108 1.832 . S
C505 C148 1.685 . S
C510 C96 1.684 . S
C515 C109 1.684 . S
C520 C122 1.684 . S
C525 C133 1.684 . S
C530 C83 1.685 . S
C535 C199 1.834 . S
C540 C160 1.834 . S
C545 C212 1.834 . S
C550 C179 1.834 . S
C555 C192 1.834 . S
C560 C225 1.834 . S
C565 C226 1.684 . S
C570 C172 1.684 . S
C575 C185 1.685 . S
C580 C200 1.685 . S
C585 C213 1.685 . S
C590 C161 1.684 . S
