# Generated by pormake.
# Topology pcb, (4)-cn, num edge types: 1
# Building blocks:
#     Node 0, Type 0, BuildingBlock: QUQFOY_clean_sbu_3, # of connection points: 4
#     Node 1, Type 0, BuildingBlock: QUQFOY_clean_sbu_3, # of connection points: 4
#     Node 2, Type 0, BuildingBlock: QUQFOY_clean_sbu_3, # of connection points: 4
#     Node 3, Type 0, BuildingBlock: QUQFOY_clean_sbu_3, # of connection points: 4
#     Node 4, Type 0, BuildingBlock: QUQFOY_clean_sbu_3, # of connection points: 4
#     Node 5, Type 0, BuildingBlock: QUQFOY_clean_sbu_3, # of connection points: 4
#     Node 6, Type 0, BuildingBlock: QUQFOY_clean_sbu_3, # of connection points: 4
#     Node 7, Type 0, BuildingBlock: QUQFOY_clean_sbu_3, # of connection points: 4
#     Node 8, Type 0, BuildingBlock: QUQFOY_clean_sbu_3, # of connection points: 4
#     Node 9, Type 0, BuildingBlock: QUQFOY_clean_sbu_3, # of connection points: 4
#     Node 10, Type 0, BuildingBlock: QUQFOY_clean_sbu_3, # of connection points: 4
#     Node 11, Type 0, BuildingBlock: QUQFOY_clean_sbu_3, # of connection points: 4
#     Node 12, Type 0, BuildingBlock: QUQFOY_clean_sbu_3, # of connection points: 4
#     Node 13, Type 0, BuildingBlock: QUQFOY_clean_sbu_3, # of connection points: 4
#     Node 14, Type 0, BuildingBlock: QUQFOY_clean_sbu_3, # of connection points: 4
#     Node 15, Type 0, BuildingBlock: QUQFOY_clean_sbu_3, # of connection points: 4
#     Edge 16, Type (0, 0), BuildingBlock: TEMPAE_clean_linker_10, # of connection points: 2
#     Edge 17, Type (0, 0), BuildingBlock: TEMPAE_clean_linker_10, # of connection points: 2
#     Edge 18, Type (0, 0), BuildingBlock: TEMPAE_clean_linker_10, # of connection points: 2
#     Edge 19, Type (0, 0), BuildingBlock: TEMPAE_clean_linker_10, # of connection points: 2
#     Edge 20, Type (0, 0), BuildingBlock: TEMPAE_clean_linker_10, # of connection points: 2
#     Edge 21, Type (0, 0), BuildingBlock: TEMPAE_clean_linker_10, # of connection points: 2
#     Edge 22, Type (0, 0), BuildingBlock: TEMPAE_clean_linker_10, # of connection points: 2
#     Edge 23, Type (0, 0), BuildingBlock: TEMPAE_clean_linker_10, # of connection points: 2
#     Edge 24, Type (0, 0), BuildingBlock: TEMPAE_clean_linker_10, # of connection points: 2
#     Edge 25, Type (0, 0), BuildingBlock: TEMPAE_clean_linker_10, # of connection points: 2
#     Edge 26, Type (0, 0), BuildingBlock: TEMPAE_clean_linker_10, # of connection points: 2
#     Edge 27, Type (0, 0), BuildingBlock: TEMPAE_clean_linker_10, # of connection points: 2
#     Edge 28, Type (0, 0), BuildingBlock: TEMPAE_clean_linker_10, # of connection points: 2
#     Edge 29, Type (0, 0), BuildingBlock: TEMPAE_clean_linker_10, # of connection points: 2
#     Edge 30, Type (0, 0), BuildingBlock: TEMPAE_clean_linker_10, # of connection points: 2
#     Edge 31, Type (0, 0), BuildingBlock: TEMPAE_clean_linker_10, # of connection points: 2
#     Edge 32, Type (0, 0), BuildingBlock: TEMPAE_clean_linker_10, # of connection points: 2
#     Edge 33, Type (0, 0), BuildingBlock: TEMPAE_clean_linker_10, # of connection points: 2
#     Edge 34, Type (0, 0), BuildingBlock: TEMPAE_clean_linker_10, # of connection points: 2
#     Edge 35, Type (0, 0), BuildingBlock: TEMPAE_clean_linker_10, # of connection points: 2
#     Edge 36, Type (0, 0), BuildingBlock: TEMPAE_clean_linker_10, # of connection points: 2
#     Edge 37, Type (0, 0), BuildingBlock: TEMPAE_clean_linker_10, # of connection points: 2
#     Edge 38, Type (0, 0), BuildingBlock: TEMPAE_clean_linker_10, # of connection points: 2
#     Edge 39, Type (0, 0), BuildingBlock: TEMPAE_clean_linker_10, # of connection points: 2
#     Edge 40, Type (0, 0), BuildingBlock: TEMPAE_clean_linker_10, # of connection points: 2
#     Edge 41, Type (0, 0), BuildingBlock: TEMPAE_clean_linker_10, # of connection points: 2
#     Edge 42, Type (0, 0), BuildingBlock: TEMPAE_clean_linker_10, # of connection points: 2
#     Edge 43, Type (0, 0), BuildingBlock: TEMPAE_clean_linker_10, # of connection points: 2
#     Edge 44, Type (0, 0), BuildingBlock: TEMPAE_clean_linker_10, # of connection points: 2
#     Edge 45, Type (0, 0), BuildingBlock: TEMPAE_clean_linker_10, # of connection points: 2
#     Edge 46, Type (0, 0), BuildingBlock: TEMPAE_clean_linker_10, # of connection points: 2
#     Edge 47, Type (0, 0), BuildingBlock: TEMPAE_clean_linker_10, # of connection points: 2
# Relax obj value: 0.313
# Max RMSD: 0.170
# Mean RMSD: 0.170
data_MOF--net-pcb--node1-QUQFOY_clean_sbu_3--edge1-TEMPAE_clean_linker_10
_symmetry_space_group_name_H-M    P1
_symmetry_Int_Tables_number       1
_symmetry_cell_setting            triclinic
loop_
_symmetry_equiv_pos_as_xyz
'x, y, z'
_cell_length_a     41.830976
_cell_length_b     51.147222
_cell_length_c     51.199594
_cell_angle_alpha  90.114711
_cell_angle_beta   89.987728
_cell_angle_gamma 90.009692
loop_
_atom_site_label
_atom_site_type_symbol
_atom_site_fract_x
_atom_site_fract_y
_atom_site_fract_z
_atom_type_partial_charge
C0 C 0.1039 0.10142 0.13008 0.0
O1 O 0.10577 0.08149 0.11532 0.0
Cd2 Cd 0.14956 0.05218 0.1111 0.0
O3 O 0.12737 0.10836 0.14444 0.0
Cd4 Cd 0.1838 0.09283 0.15076 0.0
C5 C 0.20059 0.09764 0.08566 0.0
O6 O 0.16884 0.04785 0.1546 0.0
O7 O 0.21947 0.05354 0.15228 0.0
O8 O 0.18208 0.10999 0.19537 0.0
C9 C 0.19634 0.03773 0.15495 0.0
O10 O 0.18524 0.07639 0.08239 0.0
C11 C 0.20766 0.1232 0.19324 0.0
O12 O 0.20208 0.10837 0.10809 0.0
O13 O 0.2222 0.12189 0.17151 0.0
C14 C 0.8811 0.14877 0.10243 0.0
O15 O 0.87874 0.13584 0.08133 0.0
Cd16 Cd 0.83372 0.13244 0.05324 0.0
O17 O 0.85758 0.16177 0.11159 0.0
Cd18 Cd 0.80025 0.16828 0.09853 0.0
C19 C 0.78628 0.10257 0.09895 0.0
O20 O 0.81152 0.17509 0.05332 0.0
O21 O 0.7617 0.16998 0.06123 0.0
O22 O 0.80097 0.21226 0.11729 0.0
C23 C 0.78339 0.17424 0.04446 0.0
O24 O 0.80043 0.10141 0.07694 0.0
C25 C 0.77662 0.20869 0.13169 0.0
O26 O 0.78466 0.12403 0.11156 0.0
O27 O 0.76329 0.18642 0.13042 0.0
C28 C 0.88197 0.87331 0.15127 0.0
O29 O 0.88019 0.89598 0.1413 0.0
Cd30 Cd 0.83268 0.92076 0.13491 0.0
O31 O 0.85714 0.86216 0.16059 0.0
Cd32 Cd 0.79927 0.87331 0.16765 0.0
C33 C 0.78935 0.87344 0.10187 0.0
O34 O 0.80704 0.91884 0.17614 0.0
O35 O 0.75809 0.90859 0.16951 0.0
O36 O 0.80107 0.85378 0.21103 0.0
C37 C 0.77832 0.92631 0.17473 0.0
O38 O 0.80386 0.89537 0.10163 0.0
C39 C 0.77742 0.83866 0.2072 0.0
O40 O 0.78561 0.86089 0.12311 0.0
O41 O 0.76405 0.83977 0.18496 0.0
C42 C 0.08845 0.80277 0.09078 0.0
O43 O 0.09088 0.81141 0.06761 0.0
Cd44 Cd 0.13883 0.81826 0.04359 0.0
O45 O 0.11307 0.79483 0.10321 0.0
Cd46 Cd 0.17165 0.7885 0.09413 0.0
C47 C 0.17908 0.85447 0.09068 0.0
O48 O 0.16719 0.77875 0.0486 0.0
O49 O 0.2148 0.78817 0.06054 0.0
O50 O 0.17188 0.74537 0.11454 0.0
C51 C 0.19601 0.78214 0.04206 0.0
O52 O 0.16578 0.85311 0.06829 0.0
C53 C 0.19417 0.75071 0.13055 0.0
O54 O 0.18264 0.8341 0.10468 0.0
O55 O 0.2058 0.77364 0.12955 0.0
C56 C 0.09631 0.87654 0.82105 0.0
O57 O 0.09775 0.89842 0.83279 0.0
Cd58 Cd 0.14478 0.92271 0.842 0.0
O59 O 0.12143 0.86606 0.81143 0.0
Cd60 Cd 0.17946 0.87821 0.80656 0.0
C61 C 0.18745 0.87349 0.87233 0.0
O62 O 0.17063 0.92408 0.8008 0.0
O63 O 0.21963 0.9145 0.80801 0.0
O64 O 0.17973 0.86064 0.7621 0.0
C65 C 0.19905 0.93202 0.80316 0.0
O66 O 0.1728 0.89529 0.87403 0.0
C67 C 0.20376 0.84589 0.76572 0.0
O68 O 0.19187 0.86265 0.85023 0.0
O69 O 0.21645 0.84643 0.78824 0.0
C70 C 0.10451 0.16596 0.87322 0.0
O71 O 0.10775 0.15774 0.89647 0.0
Cd72 Cd 0.15683 0.15126 0.91906 0.0
O73 O 0.12872 0.1736 0.86006 0.0
Cd74 Cd 0.18761 0.18011 0.86738 0.0
C75 C 0.19485 0.11416 0.87138 0.0
O76 O 0.18467 0.19091 0.91264 0.0
O77 O 0.23205 0.18177 0.89986 0.0
O78 O 0.18562 0.22282 0.8465 0.0
C79 C 0.21379 0.1882 0.91857 0.0
O80 O 0.18224 0.11586 0.89402 0.0
C81 C 0.20746 0.21782 0.82997 0.0
O82 O 0.19832 0.13438 0.85715 0.0
O83 O 0.21993 0.19519 0.83088 0.0
C84 C 0.89581 0.09593 0.81769 0.0
O85 O 0.89436 0.07361 0.82846 0.0
Cd86 Cd 0.84755 0.0484 0.8361 0.0
O87 O 0.87076 0.10666 0.80826 0.0
Cd88 Cd 0.81288 0.09457 0.80247 0.0
C89 C 0.80357 0.09581 0.8683 0.0
O90 O 0.82145 0.04885 0.79508 0.0
O91 O 0.77256 0.05853 0.8026 0.0
O92 O 0.81225 0.11343 0.75861 0.0
C93 C 0.793 0.04097 0.79742 0.0
O94 O 0.81827 0.07398 0.86897 0.0
C95 C 0.78836 0.12817 0.76292 0.0
O96 O 0.79977 0.10792 0.84682 0.0
O97 O 0.77601 0.12711 0.78555 0.0
C98 C 0.8881 0.80949 0.87715 0.0
O99 O 0.88578 0.8193 0.89989 0.0
Cd100 Cd 0.83775 0.82824 0.92296 0.0
O101 O 0.86332 0.80147 0.86494 0.0
Cd102 Cd 0.80454 0.79667 0.87434 0.0
C103 C 0.79904 0.86278 0.87403 0.0
O104 O 0.80933 0.78841 0.92009 0.0
O105 O 0.76176 0.79823 0.90839 0.0
O106 O 0.80397 0.75281 0.85541 0.0
C107 C 0.78061 0.79204 0.92675 0.0
O108 O 0.81234 0.86245 0.89645 0.0
C109 C 0.78133 0.75749 0.83955 0.0
O110 O 0.79463 0.84168 0.86128 0.0
O111 O 0.76961 0.7804 0.83996 0.0
C112 C 0.59286 0.59433 0.65415 0.0
O113 O 0.59378 0.57193 0.64339 0.0
Cd114 Cd 0.64011 0.54629 0.63523 0.0
O115 O 0.61819 0.60476 0.66343 0.0
Cd116 Cd 0.67587 0.59208 0.66915 0.0
C117 C 0.6843 0.59368 0.60326 0.0
O118 O 0.66675 0.54641 0.676 0.0
O119 O 0.71574 0.55572 0.66842 0.0
O120 O 0.67675 0.61088 0.71309 0.0
C121 C 0.69506 0.53828 0.67334 0.0
O122 O 0.66918 0.57203 0.60244 0.0
C123 C 0.7007 0.62554 0.70879 0.0
O124 O 0.68871 0.60551 0.62486 0.0
O125 O 0.71307 0.62436 0.68617 0.0
C126 C 0.38957 0.6667 0.59168 0.0
O127 O 0.3878 0.65788 0.56851 0.0
Cd128 Cd 0.34055 0.65082 0.54363 0.0
O129 O 0.36459 0.67471 0.60362 0.0
Cd130 Cd 0.30628 0.68095 0.59347 0.0
C131 C 0.29909 0.61494 0.59014 0.0
O132 O 0.31207 0.69038 0.54803 0.0
O133 O 0.26407 0.68126 0.55911 0.0
O134 O 0.30581 0.7241 0.61397 0.0
C135 C 0.28343 0.68705 0.54096 0.0
O136 O 0.31312 0.61611 0.56804 0.0
C137 C 0.28316 0.71886 0.62966 0.0
O138 O 0.29496 0.63543 0.60392 0.0
O139 O 0.27135 0.69601 0.62837 0.0
C140 C 0.38714 0.37604 0.63779 0.0
O141 O 0.38583 0.39759 0.62553 0.0
Cd142 Cd 0.33918 0.42265 0.61716 0.0
O143 O 0.36206 0.36619 0.64807 0.0
Cd144 Cd 0.30441 0.37919 0.65336 0.0
C145 C 0.29364 0.37458 0.58781 0.0
O146 O 0.31496 0.42479 0.65907 0.0
O147 O 0.26538 0.41633 0.65319 0.0
O148 O 0.30487 0.36153 0.69765 0.0
C149 C 0.28674 0.43336 0.6576 0.0
O150 O 0.30902 0.39599 0.58568 0.0
C151 C 0.28051 0.34707 0.6943 0.0
O152 O 0.2898 0.36391 0.61001 0.0
O153 O 0.26719 0.34792 0.67204 0.0
C154 C 0.59753 0.30681 0.59028 0.0
O155 O 0.60052 0.31648 0.56758 0.0
Cd156 Cd 0.64898 0.32538 0.54532 0.0
O157 O 0.62194 0.299 0.60309 0.0
Cd158 Cd 0.68105 0.2944 0.5945 0.0
C159 C 0.68665 0.36051 0.59444 0.0
O160 O 0.67671 0.28528 0.54892 0.0
O161 O 0.72406 0.29583 0.56046 0.0
O162 O 0.68229 0.25096 0.61434 0.0
C163 C 0.70536 0.28902 0.54219 0.0
O164 O 0.67383 0.36007 0.57184 0.0
C165 C 0.70482 0.25633 0.63012 0.0
O166 O 0.69068 0.33949 0.6073 0.0
O167 O 0.71611 0.27936 0.62921 0.0
C168 C 0.59333 0.37258 0.31932 0.0
O169 O 0.59475 0.39477 0.33045 0.0
Cd170 Cd 0.64152 0.41994 0.33824 0.0
O171 O 0.61837 0.36202 0.30966 0.0
Cd172 Cd 0.67618 0.37428 0.30372 0.0
C173 C 0.68641 0.37253 0.36945 0.0
O174 O 0.66697 0.41986 0.2969 0.0
O175 O 0.71613 0.41067 0.30381 0.0
O176 O 0.67621 0.35604 0.25955 0.0
C177 C 0.69533 0.42803 0.29899 0.0
O178 O 0.67122 0.39412 0.37057 0.0
C179 C 0.69988 0.34097 0.26348 0.0
O180 O 0.69031 0.36075 0.34775 0.0
O181 O 0.7125 0.34166 0.28602 0.0
C182 C 0.5922 0.65859 0.37804 0.0
O183 O 0.5941 0.64844 0.40062 0.0
Cd184 Cd 0.64153 0.63988 0.42466 0.0
O185 O 0.61718 0.66693 0.36636 0.0
Cd186 Cd 0.67566 0.67163 0.37672 0.0
C187 C 0.68228 0.60554 0.37672 0.0
O188 O 0.66942 0.68005 0.42233 0.0
O189 O 0.71753 0.67095 0.41151 0.0
O190 O 0.67688 0.71515 0.35727 0.0
C191 C 0.69802 0.67687 0.42953 0.0
O192 O 0.66835 0.6057 0.39888 0.0
C193 C 0.69972 0.71002 0.34171 0.0
O194 O 0.68654 0.62668 0.3641 0.0
O195 O 0.71133 0.6871 0.34267 0.0
C196 C 0.38523 0.59332 0.31855 0.0
O197 O 0.38414 0.5715 0.33033 0.0
Cd198 Cd 0.33774 0.54672 0.34003 0.0
O199 O 0.35992 0.60363 0.30912 0.0
Cd200 Cd 0.30195 0.59091 0.30471 0.0
C201 C 0.29466 0.59569 0.37062 0.0
O202 O 0.31189 0.54527 0.2989 0.0
O203 O 0.26263 0.55385 0.30604 0.0
O204 O 0.30074 0.60876 0.26042 0.0
C205 C 0.28375 0.53672 0.30126 0.0
O206 O 0.30965 0.57405 0.37225 0.0
C207 C 0.27634 0.62303 0.26438 0.0
O208 O 0.28984 0.60636 0.34854 0.0
O209 O 0.26391 0.62209 0.28698 0.0
C210 C 0.38389 0.30358 0.37288 0.0
O211 O 0.38062 0.31248 0.3959 0.0
Cd212 Cd 0.33181 0.31948 0.4186 0.0
O213 O 0.35971 0.29556 0.35987 0.0
Cd214 Cd 0.3008 0.28937 0.36766 0.0
C215 C 0.29298 0.35533 0.37058 0.0
O216 O 0.30431 0.27957 0.41306 0.0
O217 O 0.25693 0.28921 0.40079 0.0
O218 O 0.30172 0.24604 0.34763 0.0
C219 C 0.27542 0.28291 0.41937 0.0
O220 O 0.30567 0.35417 0.39321 0.0
C221 C 0.28001 0.251 0.33101 0.0
O222 O 0.28983 0.33483 0.35663 0.0
O223 O 0.26804 0.27382 0.33154 0.0
C224 C 0.24657 0.23778 0.29278 0.0
C225 C 0.26934 0.23123 0.31177 0.0
C226 C 0.23662 0.21943 0.2741 0.0
C227 C 0.24968 0.1939 0.27447 0.0
C228 C 0.27242 0.18707 0.29374 0.0
C229 C 0.28204 0.20586 0.31216 0.0
C230 C 0.21238 0.22745 0.25377 0.0
C231 C 0.28677 0.16001 0.29477 0.0
C232 C 0.20307 0.14128 0.23853 0.0
C233 C 0.21942 0.14011 0.21464 0.0
C234 C 0.21307 0.15831 0.25844 0.0
C235 C 0.23996 0.17458 0.25428 0.0
C236 C 0.25693 0.17311 0.23041 0.0
C237 C 0.24648 0.15585 0.21089 0.0
C238 C 0.1945 0.15927 0.28372 0.0
C239 C 0.2857 0.19019 0.22526 0.0
H240 H 0.23666 0.25735 0.29237 0.0
H241 H 0.2996 0.20066 0.32682 0.0
H242 H 0.22287 0.22544 0.23396 0.0
H243 H 0.19125 0.21436 0.25464 0.0
H244 H 0.2042 0.24795 0.25641 0.0
H245 H 0.30358 0.15763 0.3114 0.0
H246 H 0.26755 0.14516 0.29654 0.0
H247 H 0.29982 0.15586 0.27636 0.0
H248 H 0.18218 0.12912 0.24158 0.0
H249 H 0.25925 0.15503 0.19248 0.0
H250 H 0.18378 0.17895 0.28629 0.0
H251 H 0.21075 0.15594 0.30051 0.0
H252 H 0.17507 0.14448 0.28434 0.0
H253 H 0.27853 0.21107 0.22573 0.0
H254 H 0.29693 0.18598 0.20603 0.0
H255 H 0.30387 0.18736 0.24077 0.0
C256 C 0.69796 0.32287 0.21806 0.0
C257 C 0.71178 0.32301 0.24302 0.0
C258 C 0.70838 0.30525 0.19881 0.0
C259 C 0.73309 0.28732 0.20474 0.0
C260 C 0.74742 0.28761 0.22977 0.0
C261 C 0.73663 0.30549 0.2486 0.0
C262 C 0.69265 0.30556 0.17227 0.0
C263 C 0.77379 0.26873 0.23683 0.0
C264 C 0.73904 0.22403 0.16638 0.0
C265 C 0.76471 0.22924 0.14956 0.0
C266 C 0.72821 0.24292 0.18417 0.0
C267 C 0.74335 0.26765 0.18508 0.0
C268 C 0.76889 0.27323 0.16783 0.0
C269 C 0.77932 0.25392 0.15029 0.0
C270 C 0.70095 0.23624 0.20233 0.0
C271 C 0.7855 0.29944 0.1682 0.0
H272 H 0.67879 0.33641 0.21361 0.0
H273 H 0.74743 0.30549 0.26784 0.0
H274 H 0.71094 0.30817 0.1568 0.0
H275 H 0.6807 0.28654 0.16859 0.0
H276 H 0.67461 0.32139 0.17047 0.0
H277 H 0.78298 0.27195 0.25694 0.0
H278 H 0.76486 0.24835 0.23533 0.0
H279 H 0.79396 0.27067 0.2229 0.0
H280 H 0.72762 0.20501 0.16591 0.0
H281 H 0.79912 0.25809 0.13728 0.0
H282 H 0.68135 0.25068 0.20011 0.0
H283 H 0.70921 0.23728 0.2229 0.0
H284 H 0.69118 0.21638 0.19863 0.0
H285 H 0.76783 0.31536 0.16538 0.0
H286 H 0.80412 0.30103 0.15281 0.0
H287 H 0.79693 0.30264 0.1875 0.0
C288 C 0.7404 0.80358 0.22249 0.0
C289 C 0.76605 0.82048 0.22759 0.0
C290 C 0.72958 0.78597 0.24148 0.0
C291 C 0.74476 0.78531 0.26617 0.0
C292 C 0.77052 0.80244 0.27153 0.0
C293 C 0.78089 0.81983 0.25214 0.0
C294 C 0.70206 0.76795 0.23506 0.0
C295 C 0.78724 0.80226 0.29767 0.0
C296 C 0.69871 0.75479 0.32222 0.0
C297 C 0.71189 0.7296 0.32301 0.0
C298 C 0.70948 0.77328 0.30402 0.0
C299 C 0.73395 0.76634 0.28622 0.0
C300 C 0.74761 0.74106 0.28712 0.0
C301 C 0.73643 0.72299 0.30553 0.0
C302 C 0.69442 0.80011 0.30363 0.0
C303 C 0.77375 0.73297 0.26841 0.0
H304 H 0.72882 0.80399 0.20355 0.0
H305 H 0.80071 0.83287 0.25621 0.0
H306 H 0.70987 0.74729 0.23673 0.0
H307 H 0.68234 0.77089 0.24926 0.0
H308 H 0.69261 0.77116 0.21505 0.0
H309 H 0.80653 0.81715 0.29886 0.0
H310 H 0.76975 0.80605 0.31352 0.0
H311 H 0.7978 0.78271 0.3013 0.0
H312 H 0.67977 0.76004 0.3357 0.0
H313 H 0.74674 0.70355 0.30605 0.0
H314 H 0.68277 0.8035 0.28447 0.0
H315 H 0.71308 0.81534 0.30603 0.0
H316 H 0.67627 0.80264 0.31927 0.0
H317 H 0.76486 0.7341 0.24803 0.0
H318 H 0.78235 0.71276 0.2721 0.0
H319 H 0.79432 0.74657 0.27004 0.0
C320 C 0.23705 0.65653 0.2493 0.0
C321 C 0.26339 0.64043 0.24391 0.0
C322 C 0.22518 0.67387 0.23047 0.0
C323 C 0.23998 0.67512 0.20565 0.0
C324 C 0.26624 0.65862 0.19992 0.0
C325 C 0.27766 0.64146 0.21914 0.0
C326 C 0.19712 0.69118 0.2373 0.0
C327 C 0.28257 0.65938 0.17363 0.0
C328 C 0.19321 0.70589 0.15007 0.0
C329 C 0.20606 0.73122 0.14951 0.0
C330 C 0.2042 0.68732 0.16811 0.0
C331 C 0.22856 0.69429 0.186 0.0
C332 C 0.24172 0.71978 0.18544 0.0
C333 C 0.23033 0.73793 0.16719 0.0
C334 C 0.18963 0.66031 0.16813 0.0
C335 C 0.26771 0.72794 0.20426 0.0
H336 H 0.22587 0.65581 0.26838 0.0
H337 H 0.29799 0.62904 0.21483 0.0
H338 H 0.20437 0.71201 0.2362 0.0
H339 H 0.17752 0.68825 0.223 0.0
H340 H 0.18772 0.68725 0.25721 0.0
H341 H 0.30198 0.64465 0.17197 0.0
H342 H 0.26491 0.6558 0.15785 0.0
H343 H 0.29292 0.67907 0.1703 0.0
H344 H 0.17449 0.70057 0.13643 0.0
H345 H 0.24039 0.75746 0.16687 0.0
H346 H 0.17838 0.65636 0.18735 0.0
H347 H 0.20854 0.64538 0.1652 0.0
H348 H 0.17127 0.65786 0.15265 0.0
H349 H 0.25899 0.72612 0.22464 0.0
H350 H 0.27568 0.7484 0.20105 0.0
H351 H 0.28867 0.71481 0.20221 0.0
C352 C 0.28455 0.76348 0.64977 0.0
C353 C 0.27127 0.73831 0.64874 0.0
C354 C 0.27383 0.78191 0.66812 0.0
C355 C 0.2493 0.77498 0.68585 0.0
C356 C 0.23562 0.74968 0.68476 0.0
C357 C 0.24676 0.73166 0.6662 0.0
C358 C 0.28893 0.80873 0.6687 0.0
C359 C 0.20944 0.74157 0.70338 0.0
C360 C 0.24195 0.81181 0.74993 0.0
C361 C 0.21606 0.82847 0.74493 0.0
C362 C 0.25327 0.79453 0.73075 0.0
C363 C 0.23834 0.79394 0.70595 0.0
C364 C 0.21249 0.81097 0.70063 0.0
C365 C 0.20162 0.82804 0.72021 0.0
C366 C 0.28089 0.77664 0.73715 0.0
C367 C 0.19605 0.8109 0.67437 0.0
H368 H 0.30347 0.76875 0.6363 0.0
H369 H 0.23637 0.71225 0.66551 0.0
H370 H 0.27031 0.82397 0.66623 0.0
H371 H 0.3004 0.81213 0.68795 0.0
H372 H 0.30723 0.81123 0.65318 0.0
H373 H 0.20095 0.72132 0.69965 0.0
H374 H 0.21822 0.7428 0.72379 0.0
H375 H 0.18882 0.7551 0.70169 0.0
H376 H 0.25325 0.81205 0.76899 0.0
H377 H 0.18163 0.84089 0.7162 0.0
H378 H 0.30058 0.77956 0.72292 0.0
H379 H 0.27316 0.75595 0.73552 0.0
H380 H 0.29036 0.77999 0.75714 0.0
H381 H 0.21372 0.81455 0.65864 0.0
H382 H 0.17692 0.82591 0.67311 0.0
H383 H 0.18531 0.79142 0.67062 0.0
C384 C 0.24151 0.23112 0.79219 0.0
C385 C 0.21789 0.23742 0.81058 0.0
C386 C 0.25157 0.24946 0.7736 0.0
C387 C 0.23769 0.27469 0.77345 0.0
C388 C 0.21392 0.28122 0.79202 0.0
C389 C 0.20427 0.26248 0.81037 0.0
C390 C 0.27694 0.24179 0.75403 0.0
C391 C 0.19863 0.30796 0.79244 0.0
C392 C 0.28399 0.32854 0.73937 0.0
C393 C 0.26871 0.32945 0.71502 0.0
C394 C 0.27383 0.31107 0.75876 0.0
C395 C 0.24782 0.29412 0.75361 0.0
C396 C 0.23198 0.29524 0.72922 0.0
C397 C 0.2426 0.31292 0.71022 0.0
C398 C 0.29122 0.31045 0.7846 0.0
C399 C 0.20415 0.27745 0.72304 0.0
H400 H 0.25213 0.21179 0.79224 0.0
H401 H 0.18602 0.26748 0.82456 0.0
H402 H 0.26736 0.24357 0.73391 0.0
H403 H 0.29767 0.25523 0.75558 0.0
H404 H 0.2855 0.22144 0.75692 0.0
H405 H 0.18076 0.31003 0.80837 0.0
H406 H 0.21723 0.32322 0.79498 0.0
H407 H 0.18659 0.31176 0.77352 0.0
H408 H 0.30416 0.34129 0.74321 0.0
H409 H 0.23066 0.31354 0.69144 0.0
H410 H 0.3022 0.29093 0.78753 0.0
H411 H 0.27411 0.31364 0.80085 0.0
H412 H 0.31031 0.32551 0.78582 0.0
H413 H 0.212 0.25675 0.72383 0.0
H414 H 0.19388 0.28129 0.70341 0.0
H415 H 0.18504 0.27994 0.73786 0.0
C416 C 0.74957 0.16226 0.74834 0.0
C417 C 0.77567 0.14599 0.74271 0.0
C418 C 0.73766 0.17972 0.72963 0.0
C419 C 0.75219 0.18091 0.70471 0.0
C420 C 0.77832 0.16433 0.69878 0.0
C421 C 0.78977 0.14706 0.71788 0.0
C422 C 0.70976 0.19711 0.73666 0.0
C423 C 0.79438 0.16507 0.67238 0.0
C424 C 0.70453 0.21146 0.64952 0.0
C425 C 0.71725 0.23682 0.64882 0.0
C426 C 0.7159 0.19293 0.66745 0.0
C427 C 0.74051 0.19999 0.68508 0.0
C428 C 0.75359 0.2255 0.68433 0.0
C429 C 0.74181 0.2436 0.66621 0.0
C430 C 0.7014 0.16589 0.66769 0.0
C431 C 0.77984 0.23374 0.70286 0.0
H432 H 0.73852 0.16152 0.76747 0.0
H433 H 0.80992 0.13451 0.71339 0.0
H434 H 0.717 0.21793 0.73531 0.0
H435 H 0.6899 0.19408 0.72262 0.0
H436 H 0.7007 0.19336 0.75671 0.0
H437 H 0.81389 0.15043 0.67066 0.0
H438 H 0.77659 0.16132 0.65675 0.0
H439 H 0.80454 0.18479 0.66888 0.0
H440 H 0.68558 0.20608 0.63611 0.0
H441 H 0.75177 0.26316 0.66577 0.0
H442 H 0.69035 0.16202 0.687 0.0
H443 H 0.72031 0.15098 0.6647 0.0
H444 H 0.68289 0.16335 0.65234 0.0
H445 H 0.7714 0.23207 0.72333 0.0
H446 H 0.78781 0.25418 0.69944 0.0
H447 H 0.80075 0.22057 0.7007 0.0
C448 C 0.78248 0.71211 0.82123 0.0
C449 C 0.76931 0.73733 0.82128 0.0
C450 C 0.77159 0.69296 0.80369 0.0
C451 C 0.74699 0.69924 0.78579 0.0
C452 C 0.73342 0.72458 0.7859 0.0
C453 C 0.74473 0.74332 0.80366 0.0
C454 C 0.78659 0.66612 0.80414 0.0
C455 C 0.70716 0.73199 0.76706 0.0
C456 C 0.7392 0.66 0.72319 0.0
C457 C 0.71324 0.64362 0.72891 0.0
C458 C 0.7507 0.67794 0.74167 0.0
C459 C 0.7359 0.67951 0.76648 0.0
C460 C 0.71 0.66276 0.77254 0.0
C461 C 0.69896 0.645 0.75366 0.0
C462 C 0.77837 0.6955 0.73451 0.0
C463 C 0.69369 0.66388 0.79883 0.0
H464 H 0.80144 0.70734 0.83483 0.0
H465 H 0.73442 0.76276 0.80361 0.0
H466 H 0.76792 0.65103 0.80727 0.0
H467 H 0.79797 0.66192 0.78501 0.0
H468 H 0.80494 0.66419 0.8197 0.0
H469 H 0.69874 0.75238 0.77002 0.0
H470 H 0.71584 0.72995 0.74668 0.0
H471 H 0.68652 0.71857 0.76935 0.0
H472 H 0.75039 0.65902 0.70411 0.0
H473 H 0.67892 0.63237 0.75821 0.0
H474 H 0.79808 0.69311 0.7488 0.0
H475 H 0.77071 0.71625 0.73531 0.0
H476 H 0.78778 0.69133 0.71464 0.0
H477 H 0.71143 0.66085 0.81465 0.0
H478 H 0.67455 0.64894 0.80076 0.0
H479 H 0.68298 0.6835 0.80184 0.0
C480 C 0.25066 0.16908 0.95211 0.0
C481 C 0.22256 0.18275 0.94601 0.0
C482 C 0.25471 0.15766 0.97684 0.0
C483 C 0.22995 0.15983 -0.00442 0.0
C484 C 0.20324 0.17599 -0.0096 0.0
C485 C 0.2 0.18741 0.96572 0.0
C486 C 0.28409 0.14139 0.982 0.0
C487 C 0.17635 0.17904 0.00987 0.0
C488 C 0.20623 0.10234 0.03739 0.0
C489 C 0.21361 0.11143 0.06254 0.0
C490 C 0.21331 0.11729 0.01527 0.0
C491 C 0.22866 0.1418 0.01828 0.0
C492 C 0.23864 0.15009 0.04337 0.0
C493 C 0.23072 0.1349 0.06529 0.0
C494 C 0.20222 0.10767 -0.01116 0.0
C495 C 0.25592 0.1757 0.04729 0.0
H496 H 0.26845 0.16571 0.93708 0.0
H497 H 0.17851 0.19838 0.96127 0.0
H498 H 0.29237 0.14385 0.00244 0.0
H499 H 0.27827 0.12042 0.97907 0.0
H500 H 0.30393 0.14657 0.96854 0.0
H501 H 0.15917 0.19454 0.00406 0.0
H502 H 0.16314 0.16028 0.01148 0.0
H503 H 0.18589 0.18383 0.0295 0.0
H504 H 0.19329 0.08413 0.03499 0.0
H505 H 0.23692 0.14194 0.08462 0.0
H506 H 0.22224 0.10807 0.97464 0.0
H507 H 0.18324 0.12081 0.98129 0.0
H508 H 0.19253 0.08746 -0.01037 0.0
H509 H 0.2735 0.17915 0.03144 0.0
H510 H 0.26854 0.17633 0.06637 0.0
H511 H 0.23839 0.19196 0.04687 0.0
C512 C 0.79986 0.0963 0.91705 0.0
C513 C 0.79271 0.10806 0.89303 0.0
C514 C 0.79303 0.10897 0.94069 0.0
C515 C 0.77851 0.13397 0.94036 0.0
C516 C 0.76952 0.14532 0.91629 0.0
C517 C 0.77684 0.13227 0.89287 0.0
C518 C 0.80296 0.09616 0.96599 0.0
C519 C 0.75361 0.17178 0.91519 0.0
C520 C 0.75095 0.15612 0.00744 0.0
C521 C 0.77834 0.16922 0.01633 0.0
C522 C 0.74956 0.14601 0.98191 0.0
C523 C 0.77616 0.14915 0.96508 0.0
C524 C 0.80263 0.1643 0.9733 0.0
C525 C 0.80335 0.17418 -0.0012 0.0
C526 C 0.72068 0.13035 0.97368 0.0
C527 C 0.83139 0.16831 0.95591 0.0
H528 H 0.81188 0.07752 0.91743 0.0
H529 H 0.77092 0.14143 0.87443 0.0
H530 H 0.82221 0.10782 0.97533 0.0
H531 H 0.78254 0.09557 0.97981 0.0
H532 H 0.81185 0.0759 0.96301 0.0
H533 H 0.74387 0.17608 0.89547 0.0
H534 H 0.7339 0.173 0.92964 0.0
H535 H 0.77125 0.18716 0.92027 0.0
H536 H 0.73146 0.15231 0.02086 0.0
H537 H 0.82442 0.18458 0.0055 0.0
H538 H 0.72668 0.10922 0.97405 0.0
H539 H 0.71353 0.13528 0.95341 0.0
H540 H 0.7 0.13369 -0.01312 0.0
H541 H 0.84412 0.14944 0.95333 0.0
H542 H 0.84845 0.18278 0.96418 0.0
H543 H 0.82388 0.17506 0.93628 0.0
C544 C 0.79589 0.79263 0.97364 0.0
C545 C 0.77303 0.79798 0.95436 0.0
C546 C 0.79314 0.80322 -0.00123 0.0
C547 C 0.76669 0.81938 0.00486 0.0
C548 C 0.74203 0.82289 -0.01376 0.0
C549 C 0.74552 0.81217 0.96109 0.0
C550 C 0.81991 0.79884 0.01807 0.0
C551 C 0.71314 0.83952 -0.00779 0.0
C552 C 0.76211 0.83772 0.07659 0.0
C553 C 0.77915 0.86139 0.07686 0.0
C554 C 0.7559 0.82453 0.05304 0.0
C555 C 0.76735 0.8351 0.0293 0.0
C556 C 0.78296 0.85967 0.02932 0.0
C557 C 0.78851 0.87257 0.05306 0.0
C558 C 0.73859 0.79864 0.05374 0.0
C559 C 0.79559 0.87164 0.0044 0.0
H560 H 0.817 0.78139 0.96865 0.0
H561 H 0.72763 0.81624 0.94634 0.0
H562 H 0.83305 0.81744 0.0212 0.0
H563 H 0.8102 0.79264 0.03724 0.0
H564 H 0.83717 0.78381 0.01121 0.0
H565 H 0.69362 0.83628 0.97785 0.0
H566 H 0.70392 0.83538 0.0121 0.0
H567 H 0.71999 0.86046 -0.00839 0.0
H568 H 0.75444 0.82906 0.09484 0.0
H569 H 0.80149 0.89091 0.05301 0.0
H570 H 0.75591 0.78257 0.05038 0.0
H571 H 0.72042 0.79757 0.03798 0.0
H572 H 0.72662 0.79529 0.07281 0.0
H573 H 0.8151 0.85926 -0.00354 0.0
H574 H 0.80506 0.8917 0.0075 0.0
H575 H 0.77647 0.87247 -0.01058 0.0
C576 C 0.23106 0.80346 0.00856 0.0
C577 C 0.20364 0.78888 0.01467 0.0
C578 C 0.2343 0.81546 -0.01597 0.0
C579 C 0.20952 0.81281 0.96537 0.0
C580 C 0.18329 0.79615 0.97065 0.0
C581 C 0.18075 0.78431 -0.00481 0.0
C582 C 0.26298 0.8326 0.97891 0.0
C583 C 0.15643 0.79261 0.95123 0.0
C584 C 0.18737 0.86899 0.92095 0.0
C585 C 0.19712 0.8596 0.89646 0.0
C586 C 0.1927 0.85445 0.94371 0.0
C587 C 0.20846 0.82999 0.94201 0.0
C588 C 0.22011 0.82111 0.91762 0.0
C589 C 0.21414 0.83596 0.89508 0.0
C590 C 0.17989 0.86463 0.96938 0.0
C591 C 0.23751 0.79538 0.91511 0.0
H592 H 0.24899 0.80693 0.02344 0.0
H593 H 0.15971 0.77278 -0.00032 0.0
H594 H 0.27206 0.82967 0.95875 0.0
H595 H 0.25591 0.85343 0.98083 0.0
H596 H 0.28265 0.8287 -0.00706 0.0
H597 H 0.1396 0.77689 0.95715 0.0
H598 H 0.14282 0.81116 0.94952 0.0
H599 H 0.16606 0.78787 0.93161 0.0
H600 H 0.17436 0.88728 0.92228 0.0
H601 H 0.22208 0.82864 0.87629 0.0
H602 H 0.19904 0.86476 -0.01564 0.0
H603 H 0.16065 0.85152 0.97651 0.0
H604 H 0.17004 0.88473 0.96767 0.0
H605 H 0.25582 0.79341 0.93066 0.0
H606 H 0.24931 0.79323 0.89579 0.0
H607 H 0.22028 0.77907 0.91754 0.0
C608 C 0.06033 0.12555 0.15356 0.0
C609 C 0.07372 0.11628 0.13022 0.0
C610 C 0.02895 0.13551 0.15401 0.0
C611 C 0.01112 0.13654 0.1305 0.0
C612 C 0.02573 0.1292 0.10663 0.0
C613 C 0.05669 0.1189 0.10685 0.0
C614 C 0.01421 0.14308 0.17982 0.0
C615 C 0.00792 0.13048 0.08098 0.0
C616 C 0.9232 0.12295 0.1239 0.0
C617 C 0.9116 0.14746 0.11651 0.0
C618 C 0.95511 0.1197 0.1314 0.0
C619 C 0.97607 0.14144 0.13075 0.0
C620 C 0.96375 0.16669 0.12538 0.0
C621 C 0.9314 0.16943 0.11838 0.0
C622 C 0.96702 0.0925 0.13746 0.0
C623 C 0.98526 0.19034 0.12454 0.0
H624 H 0.07355 0.1235 0.17165 0.0
H625 H 0.06728 0.11207 0.08874 0.0
H626 H -0.00033 0.16111 0.17789 0.0
H627 H -0.00198 0.12722 0.1864 0.0
H628 H 0.03264 0.14621 0.19513 0.0
H629 H 0.02387 0.12703 0.06397 0.0
H630 H 0.9888 0.11543 0.08073 0.0
H631 H -0.00369 0.14983 0.07864 0.0
H632 H 0.90767 0.10601 0.12241 0.0
H633 H 0.92231 0.18836 0.11242 0.0
H634 H 0.98288 0.09275 0.15481 0.0
H635 H 0.98119 0.08505 0.1207 0.0
H636 H 0.94705 0.07865 0.14113 0.0
H637 H 0.00295 0.18989 0.14067 0.0
H638 H 0.97137 0.20882 0.12578 0.0
H639 H -0.00127 0.19033 0.10587 0.0
C640 C 0.7954 0.97283 0.17422 0.0
C641 C 0.77105 0.95432 0.17074 0.0
C642 C 0.79195 -0.00155 0.16511 0.0
C643 C 0.76326 0.00583 0.15245 0.0
C644 C 0.7374 -0.01199 0.1512 0.0
C645 C 0.74164 0.96232 0.16029 0.0
C646 C 0.82011 0.01686 0.167 0.0
C647 C 0.70615 -0.00461 0.1385 0.0
C648 C 0.76124 0.07811 0.13624 0.0
C649 C 0.77469 0.07803 0.1111 0.0
C650 C 0.75494 0.05457 0.1494 0.0
C651 C 0.76266 0.03053 0.13723 0.0
C652 C 0.7741 0.03033 0.1112 0.0
C653 C 0.77979 0.05406 0.09842 0.0
C654 C 0.74194 0.05555 0.17688 0.0
C655 C 0.7826 0.0051 0.09744 0.0
H656 H 0.81802 0.96688 0.18266 0.0
H657 H 0.72257 0.94818 0.15781 0.0
H658 H 0.83011 0.02022 0.1472 0.0
H659 H 0.81248 0.03609 0.17485 0.0
H660 H 0.83942 0.00902 0.17965 0.0
H661 H 0.68662 0.98175 0.14401 0.0
H662 H 0.69906 0.01558 0.14396 0.0
H663 H 0.70893 -0.00521 0.11696 0.0
H664 H 0.75682 0.09653 0.1461 0.0
H665 H 0.78979 0.05373 0.0789 0.0
H666 H 0.76165 0.05203 0.19093 0.0
H667 H 0.72375 0.04006 0.17994 0.0
H668 H 0.73108 0.07484 0.18144 0.0
H669 H 0.80341 -0.00407 0.10727 0.0
H670 H 0.78875 0.00819 0.07657 0.0
H671 H 0.76242 -0.00892 0.09854 0.0
C672 C 0.91439 0.83193 0.15216 0.0
C673 C 0.91291 0.85925 0.14997 0.0
C674 C 0.94288 0.81836 0.14666 0.0
C675 C 0.97036 0.83251 0.13885 0.0
C676 C 0.96954 0.86017 0.1385 0.0
C677 C 0.94087 0.87317 0.14403 0.0
C678 C 0.94292 0.78888 0.14756 0.0
C679 C -0.00164 0.87609 0.13052 0.0
C680 C 0.05468 0.80624 0.13119 0.0
C681 C 0.05697 0.80462 0.10389 0.0
C682 C 0.02574 0.81335 0.14327 0.0
C683 C -0.00136 0.81887 0.12763 0.0
C684 C 0.0002 0.815 0.10028 0.0
C685 C 0.02933 0.80797 0.08877 0.0
C686 C 0.02489 0.81691 0.17252 0.0
C687 C 0.97181 0.82036 0.08286 0.0
H688 H 0.89293 0.82102 0.15686 0.0
H689 H 0.9401 0.89431 0.14271 0.0
H690 H 0.94193 0.78103 0.12736 0.0
H691 H 0.96521 0.78148 0.15667 0.0
H692 H 0.92209 0.78112 0.15855 0.0
H693 H -0.0053 0.89738 0.13365 0.0
H694 H 0.01975 0.86987 0.14168 0.0
H695 H 0.00348 0.87275 0.1095 0.0
H696 H 0.07591 0.80356 0.14303 0.0
H697 H 0.03078 0.80632 0.06769 0.0
H698 H 0.00229 0.80916 0.1808 0.0
H699 H 0.02599 0.83807 0.17724 0.0
H700 H 0.04538 0.80707 0.1822 0.0
H701 H 0.95009 0.81067 0.09061 0.0
H702 H 0.97583 0.81353 0.06251 0.0
H703 H 0.96706 0.84171 0.08241 0.0
C704 C 0.22842 -0.00141 0.14116 0.0
C705 C 0.2 0.00923 0.15111 0.0
C706 C 0.22978 0.97231 0.13313 0.0
C707 C 0.20211 0.95647 0.13517 0.0
C708 C 0.17412 0.96669 0.14687 0.0
C709 C 0.17343 -0.00708 0.15471 0.0
C710 C 0.26017 0.96198 0.12102 0.0
C711 C 0.14414 0.95044 0.14959 0.0
C712 C 0.18404 0.90299 0.08619 0.0
C713 C 0.18878 0.88035 0.10112 0.0
C714 C 0.18993 0.92786 0.09667 0.0
C715 C 0.20092 0.93021 0.12272 0.0
C716 C 0.20741 0.90745 0.13746 0.0
C717 C 0.2012 0.88276 0.1265 0.0
C718 C 0.1828 0.95167 0.08026 0.0
C719 C 0.2194 0.90918 0.16521 0.0
H720 H 0.24907 0.01109 0.13841 0.0
H721 H 0.15151 0.00097 0.16266 0.0
H722 H 0.26607 0.9424 0.12895 0.0
H723 H 0.25676 0.95976 0.09964 0.0
H724 H 0.28075 0.97529 0.12442 0.0
H725 H 0.12537 0.96058 0.16114 0.0
H726 H 0.13434 0.94601 0.12993 0.0
H727 H 0.14964 0.93151 0.15913 0.0
H728 H 0.17474 0.90137 0.06649 0.0
H729 H 0.2052 0.8654 0.13815 0.0
H730 H 0.20357 0.96515 0.08023 0.0
H731 H 0.16225 0.96245 0.08878 0.0
H732 H 0.1769 0.94651 0.05973 0.0
H733 H 0.2396 0.92318 0.16662 0.0
H734 H 0.22735 0.8899 0.17275 0.0
H735 H 0.20002 0.9166 0.17803 0.0
C736 C 0.94733 0.81293 0.87952 0.0
C737 C 0.91976 0.81001 0.86423 0.0
C738 C 0.9768 0.81912 0.86815 0.0
C739 C 0.97878 0.82255 0.84077 0.0
C740 C 0.95173 0.81722 0.82498 0.0
C741 C 0.92241 0.81098 0.83693 0.0
C742 C 0.0051 0.82428 0.88576 0.0
C743 C 0.95303 0.8202 0.7957 0.0
C744 C 0.03712 0.87659 0.82561 0.0
C745 C 0.06529 0.8626 0.82064 0.0
C746 C 0.00816 0.86369 0.83016 0.0
C747 C 0.00727 0.83602 0.82977 0.0
C748 C 0.035 0.8218 0.82263 0.0
C749 C 0.0638 0.8353 0.81812 0.0
C750 C 0.97911 0.8797 0.8374 0.0
C751 C 0.03488 0.79233 0.82159 0.0
H752 H 0.94557 0.81171 0.90061 0.0
H753 H 0.90123 0.80858 0.82497 0.0
H754 H 0.02671 0.8142 0.87826 0.0
H755 H 0.01029 0.84556 0.8861 0.0
H756 H 0.0007 0.81773 0.90612 0.0
H757 H 0.9328 0.81 0.78599 0.0
H758 H 0.95173 0.84125 0.79064 0.0
H759 H 0.97584 0.81246 0.78777 0.0
H760 H 0.03795 0.89773 0.82711 0.0
H761 H 0.08545 0.82435 0.81413 0.0
H762 H 0.97331 0.8766 0.85833 0.0
H763 H 0.95807 0.87341 0.82581 0.0
H764 H 0.98292 0.90096 0.83422 0.0
H765 H 0.03611 0.78448 0.84175 0.0
H766 H 0.05563 0.78461 0.81044 0.0
H767 H 0.01251 0.78492 0.81258 0.0
C768 C 0.23412 0.96848 0.81933 0.0
C769 C 0.20543 0.9601 0.80786 0.0
C770 C 0.2377 -0.00559 0.82805 0.0
C771 C 0.21195 0.01217 0.82528 0.0
C772 C 0.18383 0.00421 0.81212 0.0
C773 C 0.18098 0.97832 0.80351 0.0
C774 C 0.26824 0.00232 0.84161 0.0
C775 C 0.15582 0.02254 0.80865 0.0
C776 C 0.19598 0.06541 0.87501 0.0
C777 C 0.20342 0.08805 0.86083 0.0
C778 C 0.2003 0.0405 0.86411 0.0
C779 C 0.21259 0.03811 0.83845 0.0
C780 C 0.22199 0.06076 0.82461 0.0
C781 C 0.21716 0.0855 0.83592 0.0
C782 C 0.18996 0.01681 0.87954 0.0
C783 C 0.23563 0.05896 0.79737 0.0
H784 H 0.25318 0.95453 0.82264 0.0
H785 H 0.15887 0.97205 0.79439 0.0
H786 H 0.2765 0.02169 0.83458 0.0
H787 H 0.26382 0.0041 0.8629 0.0
H788 H 0.28763 -0.0122 0.83851 0.0
H789 H 0.13679 0.01397 0.79616 0.0
H790 H 0.14535 0.02724 0.82801 0.0
H791 H 0.16381 0.04119 0.79978 0.0
H792 H 0.18559 0.06711 0.89434 0.0
H793 H 0.22331 0.10285 0.82488 0.0
H794 H 0.20938 0.00206 0.88002 0.0
H795 H 0.16902 0.00758 0.86992 0.0
H796 H 0.18328 0.02183 0.89995 0.0
H797 H 0.25433 0.04361 0.79635 0.0
H798 H 0.24608 0.07782 0.79084 0.0
H799 H 0.21643 0.05336 0.7835 0.0
C800 C 0.04548 0.16056 0.87667 0.0
C801 C 0.07255 0.16408 0.8609 0.0
C802 C 0.01592 0.15371 0.86582 0.0
C803 C 0.01331 0.15019 0.83847 0.0
C804 C 0.03983 0.15586 0.82222 0.0
C805 C 0.06923 0.16278 0.83365 0.0
C806 C 0.98819 0.14816 0.88389 0.0
C807 C 0.03787 0.15269 0.79297 0.0
C808 C 0.95494 0.09607 0.82307 0.0
C809 C 0.92676 0.11002 0.81808 0.0
C810 C 0.98382 0.10901 0.8279 0.0
C811 C 0.98462 0.13668 0.82782 0.0
C812 C 0.95682 0.15089 0.82091 0.0
C813 C 0.92812 0.13736 0.81607 0.0
C814 C 0.01296 0.09303 0.83491 0.0
C815 C 0.95683 0.18038 0.82032 0.0
H816 H 0.04771 0.16198 0.89772 0.0
H817 H 0.08999 0.16561 0.8213 0.0
H818 H 0.9662 0.15798 0.87682 0.0
H819 H 0.9834 0.12682 0.88419 0.0
H820 H -0.00701 0.15473 0.90421 0.0
H821 H 0.05798 0.16265 0.78289 0.0
H822 H 0.03878 0.13158 0.78795 0.0
H823 H 0.01497 0.16054 0.78538 0.0
H824 H 0.95422 0.07491 0.82422 0.0
H825 H 0.90645 0.14828 0.81212 0.0
H826 H 0.01891 0.0961 0.85581 0.0
H827 H 0.0339 0.09939 0.82325 0.0
H828 H 0.00918 0.07177 0.83161 0.0
H829 H 0.95653 0.18801 0.84062 0.0
H830 H 0.93561 0.18822 0.8099 0.0
H831 H 0.97879 0.18789 0.81077 0.0
C832 C 0.79885 0.91167 0.87445 0.0
C833 C 0.79063 0.8882 0.86194 0.0
C834 C 0.79436 0.93583 0.86211 0.0
C835 C 0.78111 0.93659 0.83667 0.0
C836 C 0.77111 0.91313 0.82449 0.0
C837 C 0.77611 0.88917 0.83722 0.0
C838 C 0.80534 0.96044 0.8758 0.0
C839 C 0.7565 0.91321 0.79753 0.0
C840 C 0.75836 0.00502 0.81499 0.0
C841 C 0.78664 0.013 0.80262 0.0
C842 C 0.7552 0.97948 0.82476 0.0
C843 C 0.78095 0.9617 0.82209 0.0
C844 C 0.80848 0.9691 0.80783 0.0
C845 C 0.81093 -0.00537 0.79821 0.0
C846 C 0.72526 0.97214 0.83947 0.0
C847 C 0.83642 0.9507 0.80438 0.0
H848 H 0.80988 0.91119 0.8936 0.0
H849 H 0.76939 0.87116 0.82747 0.0
H850 H 0.82569 0.96914 0.86495 0.0
H851 H 0.78584 0.97513 0.87612 0.0
H852 H 0.8131 0.9567 0.8962 0.0
H853 H 0.74597 0.89395 0.79233 0.0
H854 H 0.73764 0.92839 0.79611 0.0
H855 H 0.77514 0.91805 0.7829 0.0
H856 H 0.7394 0.01908 0.81834 0.0
H857 H 0.8327 0.00059 0.78839 0.0
H858 H 0.73049 0.97166 0.86071 0.0
H859 H 0.71698 0.95235 0.83371 0.0
H860 H 0.7056 -0.01366 0.83608 0.0
H861 H 0.848 0.94729 0.82358 0.0
H862 H 0.85466 0.95857 0.79071 0.0
H863 H 0.82815 0.93148 0.79694 0.0
C864 C 0.73196 0.65643 0.46431 0.0
C865 C 0.70485 0.67092 0.45722 0.0
C866 C 0.73455 0.64549 0.48939 0.0
C867 C 0.70941 0.64913 0.50756 0.0
C868 C 0.68343 0.66564 0.50119 0.0
C869 C 0.68155 0.67641 0.47612 0.0
C870 C 0.76295 0.62845 0.49567 0.0
C871 C 0.6562 0.6702 0.52005 0.0
C872 C 0.68552 0.59554 0.55448 0.0
C873 C 0.69473 0.60619 0.57859 0.0
C874 C 0.6917 0.60876 0.53107 0.0
C875 C 0.70774 0.63314 0.53173 0.0
C876 C 0.71888 0.64324 0.55581 0.0
C877 C 0.7121 0.6297 0.579 0.0
C878 C 0.67942 0.59731 0.50576 0.0
C879 C 0.73654 0.66894 0.55723 0.0
H880 H 0.75018 0.65224 0.44984 0.0
H881 H 0.66074 0.68789 0.47085 0.0
H882 H 0.77168 0.6323 0.51577 0.0
H883 H 0.75571 0.6076 0.4947 0.0
H884 H 0.78292 0.63154 0.48171 0.0
H885 H 0.63953 0.68561 0.51313 0.0
H886 H 0.6425 0.65178 0.52255 0.0
H887 H 0.66547 0.67595 0.53952 0.0
H888 H 0.6723 0.57732 0.55391 0.0
H889 H 0.71964 0.63797 0.59751 0.0
H890 H 0.69888 0.59639 0.49108 0.0
H891 H 0.66039 0.61008 0.49771 0.0
H892 H 0.66944 0.57735 0.50836 0.0
H893 H 0.75521 0.66997 0.54187 0.0
H894 H 0.74795 0.672 0.57659 0.0
H895 H 0.71957 0.68522 0.55372 0.0
C896 C 0.29991 0.68468 0.49436 0.0
C897 C 0.27652 0.68016 0.51345 0.0
C898 C 0.29795 0.67282 0.46974 0.0
C899 C 0.27183 0.65619 0.464 0.0
C900 C 0.24663 0.65352 0.48227 0.0
C901 C 0.24928 0.66556 0.50688 0.0
C902 C 0.32523 0.67638 0.45073 0.0
C903 C 0.2181 0.63635 0.47666 0.0
C904 C 0.26807 0.63331 0.39348 0.0
C905 C 0.28497 0.60961 0.39481 0.0
C906 C 0.26197 0.64812 0.41607 0.0
C907 C 0.2733 0.63913 0.44048 0.0
C908 C 0.28898 0.61464 0.44211 0.0
C909 C 0.2945 0.60015 0.41928 0.0
C910 C 0.24474 0.67393 0.41363 0.0
C911 C 0.30143 0.60434 0.46781 0.0
H912 H 0.32084 0.69621 0.49922 0.0
H913 H 0.23099 0.66211 0.52147 0.0
H914 H 0.33886 0.65783 0.44911 0.0
H915 H 0.31603 0.68116 0.431 0.0
H916 H 0.34194 0.69208 0.45698 0.0
H917 H 0.19819 0.64008 0.49054 0.0
H918 H 0.20932 0.63944 0.45646 0.0
H919 H 0.22521 0.61553 0.47837 0.0
H920 H 0.26033 0.64069 0.37469 0.0
H921 H 0.30741 0.58182 0.42057 0.0
H922 H 0.26195 0.69017 0.41658 0.0
H923 H 0.22604 0.67578 0.42889 0.0
H924 H 0.23342 0.6763 0.39414 0.0
H925 H 0.3206 0.61741 0.47521 0.0
H926 H 0.31128 0.58424 0.46601 0.0
H927 H 0.28208 0.60417 0.48262 0.0
C928 C 0.28981 0.28345 0.46637 0.0
C929 C 0.26768 0.28956 0.44676 0.0
C930 C 0.28828 0.29549 0.49092 0.0
C931 C 0.26381 0.3139 0.49604 0.0
C932 C 0.23941 0.31802 0.47732 0.0
C933 C 0.24165 0.30579 0.45278 0.0
C934 C 0.31467 0.29034 0.51038 0.0
C935 C 0.21248 0.337 0.48233 0.0
C936 C 0.26277 0.3386 0.56597 0.0
C937 C 0.28217 0.36094 0.56402 0.0
C938 C 0.25477 0.32387 0.54373 0.0
C939 C 0.26687 0.33145 0.51908 0.0
C940 C 0.28511 0.35468 0.51683 0.0
C941 C 0.29235 0.36922 0.53929 0.0
C942 C 0.2347 0.29954 0.54681 0.0
C943 C 0.29852 0.36344 0.49087 0.0
H944 H 0.30973 0.27063 0.46193 0.0
H945 H 0.2243 0.31046 0.43778 0.0
H946 H 0.33024 0.30786 0.51185 0.0
H947 H 0.3046 0.28663 0.53006 0.0
H948 H 0.32971 0.27337 0.50466 0.0
H949 H 0.19232 0.33396 0.46853 0.0
H950 H 0.20344 0.33514 0.50261 0.0
H951 H 0.22142 0.35727 0.47987 0.0
H952 H 0.25445 0.33222 0.58496 0.0
H953 H 0.30721 0.38649 0.53755 0.0
H954 H 0.25014 0.28201 0.54489 0.0
H955 H 0.21627 0.2984 0.53127 0.0
H956 H 0.22269 0.29882 0.56615 0.0
H957 H 0.31613 0.34885 0.48373 0.0
H958 H 0.31056 0.38276 0.49218 0.0
H959 H 0.2792 0.3647 0.4761 0.0
C960 C 0.6877 0.36982 0.41817 0.0
C961 C 0.69771 0.36009 0.39389 0.0
C962 C 0.69494 0.35658 0.44136 0.0
C963 C 0.713 0.33317 0.44032 0.0
C964 C 0.7249 0.32411 0.41607 0.0
C965 C 0.71691 0.33757 0.39309 0.0
C966 C 0.6817 0.36689 0.46684 0.0
C967 C 0.74477 0.29954 0.41425 0.0
C968 C 0.7385 0.31085 0.50771 0.0
C969 C 0.71253 0.29491 0.51454 0.0
C970 C 0.74055 0.32192 0.48265 0.0
C971 C 0.71599 0.31695 0.46425 0.0
C972 C 0.69145 0.29892 0.47033 0.0
C973 C 0.69013 0.28803 0.49536 0.0
C974 C 0.76754 0.34054 0.47665 0.0
C975 C 0.66487 0.29293 0.45126 0.0
H976 H 0.673 0.38726 0.41903 0.0
H977 H 0.7251 0.33006 0.37444 0.0
H978 H 0.66395 0.35285 0.47476 0.0
H979 H 0.70107 0.36886 0.48149 0.0
H980 H 0.66986 0.3862 0.46453 0.0
H981 H 0.75656 0.29757 0.3949 0.0
H982 H 0.76337 0.29929 0.4297 0.0
H983 H 0.72924 0.28223 0.41731 0.0
H984 H 0.75604 0.31611 0.52239 0.0
H985 H 0.67024 0.27541 0.50044 0.0
H986 H 0.75867 0.36094 0.478 0.0
H987 H 0.77656 0.33749 0.45649 0.0
H988 H 0.7877 0.33826 0.49057 0.0
H989 H 0.64955 0.31048 0.4489 0.0
H990 H 0.6496 0.27645 0.45791 0.0
H991 H 0.67477 0.288 0.43178 0.0
C992 C 0.53384 0.59554 0.64817 0.0
C993 C 0.56231 0.60897 0.65356 0.0
C994 C 0.50555 0.60903 0.64261 0.0
C995 C 0.50565 0.63671 0.64243 0.0
C996 C 0.5336 0.65041 0.65 0.0
C997 C 0.56172 0.63634 0.65549 0.0
C998 C 0.47621 0.59357 0.63493 0.0
C999 C 0.53451 0.67989 0.65048 0.0
C1000 C 0.44864 0.66084 0.59086 0.0
C1001 C 0.42067 0.66492 0.60541 0.0
C1002 C 0.47731 0.65375 0.60303 0.0
C1003 C 0.47809 0.65065 0.63049 0.0
C1004 C 0.45075 0.65704 0.64553 0.0
C1005 C 0.42224 0.66412 0.63277 0.0
C1006 C 0.50598 0.64742 0.58621 0.0
C1007 C 0.45081 0.65445 0.67487 0.0
H1008 H 0.53395 0.57437 0.6471 0.0
H1009 H 0.58359 0.64686 0.65981 0.0
H1010 H 0.45498 0.60061 0.64583 0.0
H1011 H 0.47136 0.59639 0.61381 0.0
H1012 H 0.47911 0.57231 0.63863 0.0
H1013 H 0.55521 0.68734 0.66187 0.0
H1014 H 0.53656 0.68731 0.6302 0.0
H1015 H 0.51217 0.68797 0.65893 0.0
H1016 H 0.44778 0.66189 0.56972 0.0
H1017 H 0.40078 0.66742 0.64418 0.0
H1018 H 0.51028 0.626 0.58646 0.0
H1019 H 0.52772 0.65706 0.59401 0.0
H1020 H 0.50259 0.65362 0.56562 0.0
H1021 H 0.44854 0.63351 0.68018 0.0
H1022 H 0.43061 0.66527 0.68393 0.0
H1023 H 0.47359 0.66173 0.68326 0.0
C1024 C 0.29659 0.5662 0.58674 0.0
C1025 C 0.28939 0.58912 0.60064 0.0
C1026 C 0.29096 0.5415 0.5976 0.0
C1027 C 0.27761 0.53961 0.62295 0.0
C1028 C 0.26851 0.56259 0.63647 0.0
C1029 C 0.27462 0.5871 0.62519 0.0
C1030 C 0.30099 0.51745 0.58251 0.0
C1031 C 0.25382 0.56133 0.66337 0.0
C1032 C 0.2531 0.47059 0.64141 0.0
C1033 C 0.2812 0.46158 0.65333 0.0
C1034 C 0.25062 0.4966 0.6328 0.0
C1035 C 0.27686 0.51379 0.6362 0.0
C1036 C 0.30426 0.50524 0.64994 0.0
C1037 C 0.30604 0.47928 0.65838 0.0
C1038 C 0.22082 0.50515 0.61858 0.0
C1039 C 0.33271 0.52297 0.65414 0.0
H1040 H 0.30775 0.5675 0.56768 0.0
H1041 H 0.26865 0.60468 0.636 0.0
H1042 H 0.32121 0.50778 0.59268 0.0
H1043 H 0.28106 0.50318 0.58159 0.0
H1044 H 0.30861 0.52214 0.56227 0.0
H1045 H 0.24377 0.58047 0.66955 0.0
H1046 H 0.23458 0.54642 0.66399 0.0
H1047 H 0.27231 0.55543 0.67773 0.0
H1048 H 0.23375 0.45703 0.63755 0.0
H1049 H 0.32767 0.47249 0.66787 0.0
H1050 H 0.22597 0.50657 0.59737 0.0
H1051 H 0.2131 0.52479 0.62531 0.0
H1052 H 0.20081 0.49115 0.62136 0.0
H1053 H 0.34415 0.52726 0.63507 0.0
H1054 H 0.35091 0.51407 0.66719 0.0
H1055 H 0.32501 0.54187 0.66272 0.0
C1056 C 0.56165 0.31032 0.6294 0.0
C1057 C 0.56541 0.30724 0.60235 0.0
C1058 C 0.53172 0.31699 0.64005 0.0
C1059 C 0.50521 0.32053 0.6232 0.0
C1060 C 0.50834 0.31476 0.59627 0.0
C1061 C 0.5384 0.30825 0.58619 0.0
C1062 C 0.5292 0.32249 0.66893 0.0
C1063 C 0.48066 0.31792 0.57759 0.0
C1064 C 0.41951 0.33496 0.64325 0.0
C1065 C 0.41807 0.36198 0.63866 0.0
C1066 C 0.44839 0.32116 0.64011 0.0
C1067 C 0.47625 0.33479 0.63224 0.0
C1068 C 0.47531 0.36231 0.62949 0.0
C1069 C 0.44629 0.37551 0.6327 0.0
C1070 C 0.44853 0.29188 0.64357 0.0
C1071 C 0.50449 0.37772 0.62137 0.0
H1072 H 0.58243 0.30941 0.64201 0.0
H1073 H 0.5411 0.3054 0.56531 0.0
H1074 H 0.52995 0.34393 0.67224 0.0
H1075 H 0.50623 0.31516 0.67689 0.0
H1076 H 0.54922 0.31346 0.67996 0.0
H1077 H 0.48587 0.30939 0.55807 0.0
H1078 H 0.45884 0.3085 0.5855 0.0
H1079 H 0.47537 0.33903 0.57506 0.0
H1080 H 0.39783 0.32438 0.64802 0.0
H1081 H 0.44551 0.39647 0.6296 0.0
H1082 H 0.47062 0.28537 0.65364 0.0
H1083 H 0.44799 0.28231 0.62412 0.0
H1084 H 0.42744 0.28507 0.65487 0.0
H1085 H 0.52517 0.37273 0.63397 0.0
H1086 H 0.50047 0.39917 0.62243 0.0
H1087 H 0.51101 0.37259 0.60098 0.0
C1088 C 0.67641 0.49215 0.67168 0.0
C1089 C 0.70091 0.51036 0.66742 0.0
C1090 C 0.67835 0.46676 0.66152 0.0
C1091 C 0.70556 0.45933 0.64685 0.0
C1092 C 0.73147 0.47695 0.64419 0.0
C1093 C 0.72884 0.50235 0.65453 0.0
C1094 C 0.65025 0.44852 0.66497 0.0
C1095 C 0.76107 0.46959 0.62901 0.0
C1096 C 0.70992 0.38685 0.63121 0.0
C1097 C 0.6951 0.38593 0.60661 0.0
C1098 C 0.71512 0.41077 0.64405 0.0
C1099 C 0.70504 0.43427 0.63209 0.0
C1100 C 0.69143 0.43357 0.60677 0.0
C1101 C 0.68673 0.40944 0.59431 0.0
C1102 C 0.73009 0.41077 0.67088 0.0
C1103 C 0.68035 0.45823 0.59334 0.0
H1104 H 0.65489 0.49814 0.68187 0.0
H1105 H 0.74794 0.51629 0.65126 0.0
H1106 H 0.63846 0.44528 0.64581 0.0
H1107 H 0.65841 0.42921 0.67218 0.0
H1108 H 0.63222 0.45642 0.67882 0.0
H1109 H 0.78087 0.48371 0.63222 0.0
H1110 H 0.76938 0.44976 0.63453 0.0
H1111 H 0.7554 0.46916 0.60785 0.0
H1112 H 0.71676 0.36882 0.6408 0.0
H1113 H 0.67545 0.40899 0.57526 0.0
H1114 H 0.71172 0.41583 0.68568 0.0
H1115 H 0.74918 0.42577 0.67215 0.0
H1116 H 0.74041 0.39143 0.67597 0.0
H1117 H 0.66017 0.46693 0.60442 0.0
H1118 H 0.67233 0.45454 0.57298 0.0
H1119 H 0.69988 0.47289 0.59296 0.0
C1120 C 0.44293 0.30818 0.37657 0.0
C1121 C 0.41593 0.305 0.36066 0.0
C1122 C 0.47265 0.3148 0.3659 0.0
C1123 C 0.47548 0.31841 0.3386 0.0
C1124 C 0.44902 0.313 0.32219 0.0
C1125 C 0.41944 0.30631 0.33344 0.0
C1126 C 0.50031 0.32008 0.38414 0.0
C1127 C 0.45122 0.31626 0.29297 0.0
C1128 C 0.53416 0.37251 0.32427 0.0
C1129 C 0.56237 0.35853 0.31936 0.0
C1130 C 0.50518 0.35959 0.32867 0.0
C1131 C 0.50429 0.33193 0.32824 0.0
C1132 C 0.53213 0.31771 0.32139 0.0
C1133 C 0.56095 0.33122 0.31698 0.0
C1134 C 0.476 0.37559 0.33562 0.0
C1135 C 0.53204 0.28823 0.32043 0.0
H1136 H 0.44053 0.30673 0.3976 0.0
H1137 H 0.3987 0.30373 0.321 0.0
H1138 H 0.52227 0.31021 0.37705 0.0
H1139 H 0.50524 0.3414 0.38471 0.0
H1140 H 0.49532 0.31338 0.40437 0.0
H1141 H 0.43118 0.30632 0.28273 0.0
H1142 H 0.45034 0.33738 0.2881 0.0
H1143 H 0.47417 0.30843 0.28543 0.0
H1144 H 0.53494 0.39366 0.32568 0.0
H1145 H 0.58263 0.32029 0.31306 0.0
H1146 H 0.46979 0.37238 0.35645 0.0
H1147 H 0.45519 0.36935 0.32373 0.0
H1148 H 0.47988 0.39686 0.33259 0.0
H1149 H 0.53222 0.28043 0.34063 0.0
H1150 H 0.5533 0.28044 0.30999 0.0
H1151 H 0.51012 0.28084 0.31071 0.0
C1152 C 0.72871 0.4642 0.31779 0.0
C1153 C 0.70119 0.45602 0.30442 0.0
C1154 C 0.73096 0.4897 0.32793 0.0
C1155 C 0.70509 0.50723 0.32457 0.0
C1156 C 0.67845 0.49966 0.30929 0.0
C1157 C 0.67688 0.47418 0.29936 0.0
C1158 C 0.75998 0.49722 0.34375 0.0
C1159 C 0.65043 0.51781 0.30506 0.0
C1160 C 0.68339 0.55665 0.37674 0.0
C1161 C 0.6918 0.5803 0.36474 0.0
C1162 C 0.68907 0.53263 0.36436 0.0
C1163 C 0.70374 0.5322 0.33942 0.0
C1164 C 0.71393 0.55586 0.32783 0.0
C1165 C 0.70772 0.57966 0.34058 0.0
C1166 C 0.67784 0.50779 0.37739 0.0
C1167 C 0.73002 0.55614 0.30145 0.0
H1168 H 0.74766 0.45029 0.32168 0.0
H1169 H 0.65572 0.46805 0.28876 0.0
H1170 H 0.76818 0.51718 0.33859 0.0
H1171 H 0.75367 0.49737 0.3648 0.0
H1172 H 0.78006 0.48331 0.34081 0.0
H1173 H 0.63307 0.50987 0.29066 0.0
H1174 H 0.63778 0.52095 0.32386 0.0
H1175 H 0.65879 0.53717 0.29813 0.0
H1176 H 0.67128 0.55688 0.39546 0.0
H1177 H 0.71462 0.59781 0.33125 0.0
H1178 H 0.69756 0.49333 0.37822 0.0
H1179 H 0.65823 0.49894 0.36575 0.0
H1180 H 0.66896 0.5113 0.39755 0.0
H1181 H 0.74919 0.54118 0.30055 0.0
H1182 H 0.74052 0.57555 0.29686 0.0
H1183 H 0.7123 0.55122 0.28609 0.0
C1184 C 0.53298 0.65445 0.37948 0.0
C1185 C 0.5608 0.6583 0.3647 0.0
C1186 C 0.50377 0.64873 0.36746 0.0
C1187 C 0.50227 0.64679 0.3399 0.0
C1188 C 0.52953 0.65308 0.32474 0.0
C1189 C 0.55861 0.65877 0.33736 0.0
C1190 C 0.47523 0.64249 0.38444 0.0
C1191 C 0.52872 0.65178 0.29532 0.0
C1192 C 0.44448 0.59332 0.32183 0.0
C1193 C 0.41614 0.60739 0.31795 0.0
C1194 C 0.47341 0.60613 0.32675 0.0
C1195 C 0.47406 0.63378 0.32787 0.0
C1196 C 0.44617 0.64818 0.32159 0.0
C1197 C 0.4174 0.63477 0.31668 0.0
C1198 C 0.50263 0.58994 0.333 0.0
C1199 C 0.44606 0.67766 0.32205 0.0
H1200 H 0.53435 0.65459 0.40063 0.0
H1201 H 0.57996 0.66195 0.32579 0.0
H1202 H 0.45372 0.65302 0.37741 0.0
H1203 H 0.47006 0.62123 0.38334 0.0
H1204 H 0.47932 0.64778 0.40523 0.0
H1205 H 0.54883 0.66286 0.28647 0.0
H1206 H 0.53066 0.63109 0.28898 0.0
H1207 H 0.50583 0.65958 0.28763 0.0
H1208 H 0.44378 0.57213 0.32232 0.0
H1209 H 0.39559 0.64577 0.31351 0.0
H1210 H 0.50837 0.59186 0.35408 0.0
H1211 H 0.52361 0.59703 0.32183 0.0
H1212 H 0.49903 0.56888 0.3285 0.0
H1213 H 0.44437 0.68455 0.34256 0.0
H1214 H 0.42542 0.68576 0.31106 0.0
H1215 H 0.46851 0.68562 0.31369 0.0
C1216 C 0.27095 0.38317 0.33447 0.0
C1217 C 0.28375 0.38114 0.35974 0.0
C1218 C 0.26544 0.4077 0.32301 0.0
C1219 C 0.27312 0.43068 0.3371 0.0
C1220 C 0.28438 0.42876 0.36311 0.0
C1221 C 0.28947 0.40404 0.37412 0.0
C1222 C 0.25298 0.40896 0.29538 0.0
C1223 C 0.29284 0.45281 0.37883 0.0
C1224 C 0.30373 0.49098 0.30269 0.0
C1225 C 0.27834 0.50856 0.30615 0.0
C1226 C 0.30163 0.46516 0.31151 0.0
C1227 C 0.27329 0.45654 0.32388 0.0
C1228 C 0.24669 0.47358 0.32574 0.0
C1229 C 0.24956 0.49951 0.31691 0.0
C1230 C 0.33057 0.44763 0.30907 0.0
C1231 C 0.21588 0.46493 0.33839 0.0
H1232 H 0.26612 0.3656 0.32327 0.0
H1233 H 0.29906 0.40273 0.39374 0.0
H1234 H 0.23367 0.42374 0.29377 0.0
H1235 H 0.27254 0.41506 0.28208 0.0
H1236 H 0.24368 0.38978 0.28858 0.0
H1237 H 0.2987 0.44809 0.39945 0.0
H1238 H 0.31382 0.46263 0.36989 0.0
H1239 H 0.27276 0.46697 0.37862 0.0
H1240 H 0.32595 0.49775 0.29414 0.0
H1241 H 0.22977 0.51295 0.31951 0.0
H1242 H 0.32385 0.42871 0.29999 0.0
H1243 H 0.3402 0.44333 0.3288 0.0
H1244 H 0.34987 0.45666 0.29723 0.0
H1245 H 0.20878 0.44528 0.33122 0.0
H1246 H 0.19606 0.47886 0.33461 0.0
H1247 H 0.21937 0.46346 0.35982 0.0
loop_
_geom_bond_atom_site_label_1
_geom_bond_atom_site_label_2
_geom_bond_distance
_geom_bond_site_symmetry_2
_ccdc_geom_bond_type
C0 O1 1.306 . S
C0 O3 1.160 . S
O1 C0 1.306 . S
O1 Cd2 2.228 . S
Cd2 O1 2.228 . S
Cd2 O6 2.273 . S
Cd2 O10 2.277 . S
O3 C0 1.160 . S
O3 Cd4 2.203 . S
Cd4 O3 2.203 . S
Cd4 O6 2.411 . S
Cd4 O7 2.333 . S
Cd4 O8 2.352 . S
Cd4 O12 2.277 . S
Cd4 O13 2.356 . S
C5 O10 1.209 . S
C5 O12 1.226 . S
O6 Cd2 2.273 . S
O6 Cd4 2.411 . S
O6 C9 1.320 . S
O7 Cd4 2.333 . S
O7 C9 1.214 . S
O8 Cd4 2.352 . S
O8 C11 1.258 . S
C9 O6 1.320 . S
C9 O7 1.214 . S
O10 Cd2 2.277 . S
O10 C5 1.209 . S
C11 O8 1.258 . S
C11 O13 1.282 . S
O12 Cd4 2.277 . S
O12 C5 1.226 . S
O13 Cd4 2.356 . S
O13 C11 1.282 . S
C14 O15 1.306 . S
C14 O17 1.160 . S
O15 C14 1.306 . S
O15 Cd16 2.228 . S
Cd16 O15 2.228 . S
Cd16 O20 2.273 . S
Cd16 O24 2.277 . S
O17 C14 1.160 . S
O17 Cd18 2.203 . S
Cd18 O17 2.203 . S
Cd18 O20 2.411 . S
Cd18 O21 2.333 . S
Cd18 O22 2.352 . S
Cd18 O26 2.277 . S
Cd18 O27 2.356 . S
C19 O24 1.209 . S
C19 O26 1.226 . S
O20 Cd16 2.273 . S
O20 Cd18 2.411 . S
O20 C23 1.320 . S
O21 Cd18 2.333 . S
O21 C23 1.214 . S
O22 Cd18 2.352 . S
O22 C25 1.258 . S
C23 O20 1.320 . S
C23 O21 1.214 . S
O24 Cd16 2.277 . S
O24 C19 1.209 . S
C25 O22 1.258 . S
C25 O27 1.282 . S
O26 Cd18 2.277 . S
O26 C19 1.226 . S
O27 Cd18 2.356 . S
O27 C25 1.282 . S
C28 O29 1.306 . S
C28 O31 1.160 . S
O29 C28 1.306 . S
O29 Cd30 2.228 . S
Cd30 O29 2.228 . S
Cd30 O34 2.273 . S
Cd30 O38 2.277 . S
O31 C28 1.160 . S
O31 Cd32 2.203 . S
Cd32 O31 2.203 . S
Cd32 O34 2.411 . S
Cd32 O35 2.333 . S
Cd32 O36 2.352 . S
Cd32 O40 2.277 . S
Cd32 O41 2.356 . S
C33 O38 1.209 . S
C33 O40 1.226 . S
O34 Cd30 2.273 . S
O34 Cd32 2.411 . S
O34 C37 1.320 . S
O35 Cd32 2.333 . S
O35 C37 1.214 . S
O36 Cd32 2.352 . S
O36 C39 1.258 . S
C37 O34 1.320 . S
C37 O35 1.214 . S
O38 Cd30 2.277 . S
O38 C33 1.209 . S
C39 O36 1.258 . S
C39 O41 1.282 . S
O40 Cd32 2.277 . S
O40 C33 1.226 . S
O41 Cd32 2.356 . S
O41 C39 1.282 . S
C42 O43 1.306 . S
C42 O45 1.160 . S
O43 C42 1.306 . S
O43 Cd44 2.228 . S
Cd44 O43 2.228 . S
Cd44 O48 2.273 . S
Cd44 O52 2.277 . S
O45 C42 1.160 . S
O45 Cd46 2.203 . S
Cd46 O45 2.203 . S
Cd46 O48 2.411 . S
Cd46 O49 2.333 . S
Cd46 O50 2.352 . S
Cd46 O54 2.277 . S
Cd46 O55 2.356 . S
C47 O52 1.209 . S
C47 O54 1.226 . S
O48 Cd44 2.273 . S
O48 Cd46 2.411 . S
O48 C51 1.320 . S
O49 Cd46 2.333 . S
O49 C51 1.214 . S
O50 Cd46 2.352 . S
O50 C53 1.258 . S
C51 O48 1.320 . S
C51 O49 1.214 . S
O52 Cd44 2.277 . S
O52 C47 1.209 . S
C53 O50 1.258 . S
C53 O55 1.282 . S
O54 Cd46 2.277 . S
O54 C47 1.226 . S
O55 Cd46 2.356 . S
O55 C53 1.282 . S
C56 O57 1.306 . S
C56 O59 1.160 . S
O57 C56 1.306 . S
O57 Cd58 2.228 . S
Cd58 O57 2.228 . S
Cd58 O62 2.273 . S
Cd58 O66 2.277 . S
O59 C56 1.160 . S
O59 Cd60 2.203 . S
Cd60 O59 2.203 . S
Cd60 O62 2.411 . S
Cd60 O63 2.333 . S
Cd60 O64 2.352 . S
Cd60 O68 2.277 . S
Cd60 O69 2.356 . S
C61 O66 1.209 . S
C61 O68 1.226 . S
O62 Cd58 2.273 . S
O62 Cd60 2.411 . S
O62 C65 1.320 . S
O63 Cd60 2.333 . S
O63 C65 1.214 . S
O64 Cd60 2.352 . S
O64 C67 1.258 . S
C65 O62 1.320 . S
C65 O63 1.214 . S
O66 Cd58 2.277 . S
O66 C61 1.209 . S
C67 O64 1.258 . S
C67 O69 1.282 . S
O68 Cd60 2.277 . S
O68 C61 1.226 . S
O69 Cd60 2.356 . S
O69 C67 1.282 . S
C70 O71 1.306 . S
C70 O73 1.160 . S
O71 C70 1.306 . S
O71 Cd72 2.228 . S
Cd72 O71 2.228 . S
Cd72 O76 2.273 . S
Cd72 O80 2.277 . S
O73 C70 1.160 . S
O73 Cd74 2.203 . S
Cd74 O73 2.203 . S
Cd74 O76 2.411 . S
Cd74 O77 2.333 . S
Cd74 O78 2.352 . S
Cd74 O82 2.277 . S
Cd74 O83 2.356 . S
C75 O80 1.209 . S
C75 O82 1.226 . S
O76 Cd72 2.273 . S
O76 Cd74 2.411 . S
O76 C79 1.320 . S
O77 Cd74 2.333 . S
O77 C79 1.214 . S
O78 Cd74 2.352 . S
O78 C81 1.258 . S
C79 O76 1.320 . S
C79 O77 1.214 . S
O80 Cd72 2.277 . S
O80 C75 1.209 . S
C81 O78 1.258 . S
C81 O83 1.282 . S
O82 Cd74 2.277 . S
O82 C75 1.226 . S
O83 Cd74 2.356 . S
O83 C81 1.282 . S
C84 O85 1.306 . S
C84 O87 1.160 . S
O85 C84 1.306 . S
O85 Cd86 2.228 . S
Cd86 O85 2.228 . S
Cd86 O90 2.273 . S
Cd86 O94 2.277 . S
O87 C84 1.160 . S
O87 Cd88 2.203 . S
Cd88 O87 2.203 . S
Cd88 O90 2.411 . S
Cd88 O91 2.333 . S
Cd88 O92 2.352 . S
Cd88 O96 2.277 . S
Cd88 O97 2.356 . S
C89 O94 1.209 . S
C89 O96 1.226 . S
O90 Cd86 2.273 . S
O90 Cd88 2.411 . S
O90 C93 1.320 . S
O91 Cd88 2.333 . S
O91 C93 1.214 . S
O92 Cd88 2.352 . S
O92 C95 1.258 . S
C93 O90 1.320 . S
C93 O91 1.214 . S
O94 Cd86 2.277 . S
O94 C89 1.209 . S
C95 O92 1.258 . S
C95 O97 1.282 . S
O96 Cd88 2.277 . S
O96 C89 1.226 . S
O97 Cd88 2.356 . S
O97 C95 1.282 . S
C98 O99 1.306 . S
C98 O101 1.160 . S
O99 C98 1.306 . S
O99 Cd100 2.228 . S
Cd100 O99 2.228 . S
Cd100 O104 2.273 . S
Cd100 O108 2.277 . S
O101 C98 1.160 . S
O101 Cd102 2.203 . S
Cd102 O101 2.203 . S
Cd102 O104 2.411 . S
Cd102 O105 2.333 . S
Cd102 O106 2.352 . S
Cd102 O110 2.277 . S
Cd102 O111 2.356 . S
C103 O108 1.209 . S
C103 O110 1.226 . S
O104 Cd100 2.273 . S
O104 Cd102 2.411 . S
O104 C107 1.320 . S
O105 Cd102 2.333 . S
O105 C107 1.214 . S
O106 Cd102 2.352 . S
O106 C109 1.258 . S
C107 O104 1.320 . S
C107 O105 1.214 . S
O108 Cd100 2.277 . S
O108 C103 1.209 . S
C109 O106 1.258 . S
C109 O111 1.282 . S
O110 Cd102 2.277 . S
O110 C103 1.226 . S
O111 Cd102 2.356 . S
O111 C109 1.282 . S
C112 O113 1.306 . S
C112 O115 1.160 . S
O113 C112 1.306 . S
O113 Cd114 2.228 . S
Cd114 O113 2.228 . S
Cd114 O118 2.273 . S
Cd114 O122 2.277 . S
O115 C112 1.160 . S
O115 Cd116 2.203 . S
Cd116 O115 2.203 . S
Cd116 O118 2.411 . S
Cd116 O119 2.333 . S
Cd116 O120 2.352 . S
Cd116 O124 2.277 . S
Cd116 O125 2.356 . S
C117 O122 1.209 . S
C117 O124 1.226 . S
O118 Cd114 2.273 . S
O118 Cd116 2.411 . S
O118 C121 1.320 . S
O119 Cd116 2.333 . S
O119 C121 1.214 . S
O120 Cd116 2.352 . S
O120 C123 1.258 . S
C121 O118 1.320 . S
C121 O119 1.214 . S
O122 Cd114 2.277 . S
O122 C117 1.209 . S
C123 O120 1.258 . S
C123 O125 1.282 . S
O124 Cd116 2.277 . S
O124 C117 1.226 . S
O125 Cd116 2.356 . S
O125 C123 1.282 . S
C126 O127 1.306 . S
C126 O129 1.160 . S
O127 C126 1.306 . S
O127 Cd128 2.228 . S
Cd128 O127 2.228 . S
Cd128 O132 2.273 . S
Cd128 O136 2.277 . S
O129 C126 1.160 . S
O129 Cd130 2.203 . S
Cd130 O129 2.203 . S
Cd130 O132 2.411 . S
Cd130 O133 2.333 . S
Cd130 O134 2.352 . S
Cd130 O138 2.277 . S
Cd130 O139 2.356 . S
C131 O136 1.209 . S
C131 O138 1.226 . S
O132 Cd128 2.273 . S
O132 Cd130 2.411 . S
O132 C135 1.320 . S
O133 Cd130 2.333 . S
O133 C135 1.214 . S
O134 Cd130 2.352 . S
O134 C137 1.258 . S
C135 O132 1.320 . S
C135 O133 1.214 . S
O136 Cd128 2.277 . S
O136 C131 1.209 . S
C137 O134 1.258 . S
C137 O139 1.282 . S
O138 Cd130 2.277 . S
O138 C131 1.226 . S
O139 Cd130 2.356 . S
O139 C137 1.282 . S
C140 O141 1.306 . S
C140 O143 1.160 . S
O141 C140 1.306 . S
O141 Cd142 2.228 . S
Cd142 O141 2.228 . S
Cd142 O146 2.273 . S
Cd142 O150 2.277 . S
O143 C140 1.160 . S
O143 Cd144 2.203 . S
Cd144 O143 2.203 . S
Cd144 O146 2.411 . S
Cd144 O147 2.333 . S
Cd144 O148 2.352 . S
Cd144 O152 2.277 . S
Cd144 O153 2.356 . S
C145 O150 1.209 . S
C145 O152 1.226 . S
O146 Cd142 2.273 . S
O146 Cd144 2.411 . S
O146 C149 1.320 . S
O147 Cd144 2.333 . S
O147 C149 1.214 . S
O148 Cd144 2.352 . S
O148 C151 1.258 . S
C149 O146 1.320 . S
C149 O147 1.214 . S
O150 Cd142 2.277 . S
O150 C145 1.209 . S
C151 O148 1.258 . S
C151 O153 1.282 . S
O152 Cd144 2.277 . S
O152 C145 1.226 . S
O153 Cd144 2.356 . S
O153 C151 1.282 . S
C154 O155 1.306 . S
C154 O157 1.160 . S
O155 C154 1.306 . S
O155 Cd156 2.228 . S
Cd156 O155 2.228 . S
Cd156 O160 2.273 . S
Cd156 O164 2.277 . S
O157 C154 1.160 . S
O157 Cd158 2.203 . S
Cd158 O157 2.203 . S
Cd158 O160 2.411 . S
Cd158 O161 2.333 . S
Cd158 O162 2.352 . S
Cd158 O166 2.277 . S
Cd158 O167 2.356 . S
C159 O164 1.209 . S
C159 O166 1.226 . S
O160 Cd156 2.273 . S
O160 Cd158 2.411 . S
O160 C163 1.320 . S
O161 Cd158 2.333 . S
O161 C163 1.214 . S
O162 Cd158 2.352 . S
O162 C165 1.258 . S
C163 O160 1.320 . S
C163 O161 1.214 . S
O164 Cd156 2.277 . S
O164 C159 1.209 . S
C165 O162 1.258 . S
C165 O167 1.282 . S
O166 Cd158 2.277 . S
O166 C159 1.226 . S
O167 Cd158 2.356 . S
O167 C165 1.282 . S
C168 O169 1.306 . S
C168 O171 1.160 . S
O169 C168 1.306 . S
O169 Cd170 2.228 . S
Cd170 O169 2.228 . S
Cd170 O174 2.273 . S
Cd170 O178 2.277 . S
O171 C168 1.160 . S
O171 Cd172 2.203 . S
Cd172 O171 2.203 . S
Cd172 O174 2.411 . S
Cd172 O175 2.333 . S
Cd172 O176 2.352 . S
Cd172 O180 2.277 . S
Cd172 O181 2.356 . S
C173 O178 1.209 . S
C173 O180 1.226 . S
O174 Cd170 2.273 . S
O174 Cd172 2.411 . S
O174 C177 1.320 . S
O175 Cd172 2.333 . S
O175 C177 1.214 . S
O176 Cd172 2.352 . S
O176 C179 1.258 . S
C177 O174 1.320 . S
C177 O175 1.214 . S
O178 Cd170 2.277 . S
O178 C173 1.209 . S
C179 O176 1.258 . S
C179 O181 1.282 . S
O180 Cd172 2.277 . S
O180 C173 1.226 . S
O181 Cd172 2.356 . S
O181 C179 1.282 . S
C182 O183 1.306 . S
C182 O185 1.160 . S
O183 C182 1.306 . S
O183 Cd184 2.228 . S
Cd184 O183 2.228 . S
Cd184 O188 2.273 . S
Cd184 O192 2.277 . S
O185 C182 1.160 . S
O185 Cd186 2.203 . S
Cd186 O185 2.203 . S
Cd186 O188 2.411 . S
Cd186 O189 2.333 . S
Cd186 O190 2.352 . S
Cd186 O194 2.277 . S
Cd186 O195 2.356 . S
C187 O192 1.209 . S
C187 O194 1.226 . S
O188 Cd184 2.273 . S
O188 Cd186 2.411 . S
O188 C191 1.320 . S
O189 Cd186 2.333 . S
O189 C191 1.214 . S
O190 Cd186 2.352 . S
O190 C193 1.258 . S
C191 O188 1.320 . S
C191 O189 1.214 . S
O192 Cd184 2.277 . S
O192 C187 1.209 . S
C193 O190 1.258 . S
C193 O195 1.282 . S
O194 Cd186 2.277 . S
O194 C187 1.226 . S
O195 Cd186 2.356 . S
O195 C193 1.282 . S
C196 O197 1.306 . S
C196 O199 1.160 . S
O197 C196 1.306 . S
O197 Cd198 2.228 . S
Cd198 O197 2.228 . S
Cd198 O202 2.273 . S
Cd198 O206 2.277 . S
O199 C196 1.160 . S
O199 Cd200 2.203 . S
Cd200 O199 2.203 . S
Cd200 O202 2.411 . S
Cd200 O203 2.333 . S
Cd200 O204 2.352 . S
Cd200 O208 2.277 . S
Cd200 O209 2.356 . S
C201 O206 1.209 . S
C201 O208 1.226 . S
O202 Cd198 2.273 . S
O202 Cd200 2.411 . S
O202 C205 1.320 . S
O203 Cd200 2.333 . S
O203 C205 1.214 . S
O204 Cd200 2.352 . S
O204 C207 1.258 . S
C205 O202 1.320 . S
C205 O203 1.214 . S
O206 Cd198 2.277 . S
O206 C201 1.209 . S
C207 O204 1.258 . S
C207 O209 1.282 . S
O208 Cd200 2.277 . S
O208 C201 1.226 . S
O209 Cd200 2.356 . S
O209 C207 1.282 . S
C210 O211 1.306 . S
C210 O213 1.160 . S
O211 C210 1.306 . S
O211 Cd212 2.228 . S
Cd212 O211 2.228 . S
Cd212 O216 2.273 . S
Cd212 O220 2.277 . S
O213 C210 1.160 . S
O213 Cd214 2.203 . S
Cd214 O213 2.203 . S
Cd214 O216 2.411 . S
Cd214 O217 2.333 . S
Cd214 O218 2.352 . S
Cd214 O222 2.277 . S
Cd214 O223 2.356 . S
C215 O220 1.209 . S
C215 O222 1.226 . S
O216 Cd212 2.273 . S
O216 Cd214 2.411 . S
O216 C219 1.320 . S
O217 Cd214 2.333 . S
O217 C219 1.214 . S
O218 Cd214 2.352 . S
O218 C221 1.258 . S
C219 O216 1.320 . S
C219 O217 1.214 . S
O220 Cd212 2.277 . S
O220 C215 1.209 . S
C221 O218 1.258 . S
C221 O223 1.282 . S
O222 Cd214 2.277 . S
O222 C215 1.226 . S
O223 Cd214 2.356 . S
O223 C221 1.282 . S
C224 C225 1.391 . S
C224 C226 1.394 . S
C224 H240 0.931 . S
C225 C224 1.391 . S
C225 C229 1.376 . S
C226 C224 1.394 . S
C226 C227 1.369 . S
C226 C230 1.531 . S
C227 C226 1.369 . S
C227 C228 1.410 . S
C227 C235 1.503 . S
C228 C227 1.410 . S
C228 C229 1.392 . S
C228 C231 1.511 . S
C229 C225 1.376 . S
C229 C228 1.392 . S
C229 H241 0.929 . S
C230 C226 1.531 . S
C230 H242 0.960 . S
C230 H243 0.962 . S
C230 H244 0.960 . S
C231 C228 1.511 . S
C231 H245 0.961 . S
C231 H246 0.961 . S
C231 H247 0.961 . S
C232 C233 1.370 . S
C232 C234 1.363 . S
C232 H248 0.931 . S
C233 C232 1.370 . S
C233 C237 1.408 . S
C234 C232 1.363 . S
C234 C235 1.370 . S
C234 C238 1.524 . S
C235 C227 1.503 . S
C235 C234 1.370 . S
C235 C236 1.403 . S
C236 C235 1.403 . S
C236 C237 1.404 . S
C236 C239 1.539 . S
C237 C233 1.408 . S
C237 C236 1.404 . S
C237 H249 0.930 . S
C238 C234 1.524 . S
C238 H250 0.956 . S
C238 H251 0.961 . S
C238 H252 0.961 . S
C239 C236 1.539 . S
C239 H253 0.958 . S
C239 H254 0.961 . S
C239 H255 0.960 . S
H240 C224 0.931 . S
H241 C229 0.929 . S
H242 C230 0.960 . S
H243 C230 0.962 . S
H244 C230 0.960 . S
H245 C231 0.961 . S
H246 C231 0.961 . S
H247 C231 0.961 . S
H248 C232 0.931 . S
H249 C237 0.930 . S
H250 C238 0.956 . S
H251 C238 0.961 . S
H252 C238 0.961 . S
H253 C239 0.958 . S
H254 C239 0.961 . S
H255 C239 0.960 . S
C256 C257 1.391 . S
C256 C258 1.394 . S
C256 H272 0.931 . S
C257 C256 1.391 . S
C257 C261 1.376 . S
C258 C256 1.394 . S
C258 C259 1.369 . S
C258 C262 1.531 . S
C259 C258 1.369 . S
C259 C260 1.410 . S
C259 C267 1.503 . S
C260 C259 1.410 . S
C260 C261 1.392 . S
C260 C263 1.511 . S
C261 C257 1.376 . S
C261 C260 1.392 . S
C261 H273 0.929 . S
C262 C258 1.531 . S
C262 H274 0.960 . S
C262 H275 0.962 . S
C262 H276 0.960 . S
C263 C260 1.511 . S
C263 H277 0.961 . S
C263 H278 0.961 . S
C263 H279 0.961 . S
C264 C265 1.370 . S
C264 C266 1.363 . S
C264 H280 0.931 . S
C265 C264 1.370 . S
C265 C269 1.408 . S
C266 C264 1.363 . S
C266 C267 1.370 . S
C266 C270 1.524 . S
C267 C259 1.503 . S
C267 C266 1.370 . S
C267 C268 1.403 . S
C268 C267 1.403 . S
C268 C269 1.404 . S
C268 C271 1.539 . S
C269 C265 1.408 . S
C269 C268 1.404 . S
C269 H281 0.930 . S
C270 C266 1.524 . S
C270 H282 0.956 . S
C270 H283 0.961 . S
C270 H284 0.961 . S
C271 C268 1.539 . S
C271 H285 0.958 . S
C271 H286 0.961 . S
C271 H287 0.960 . S
H272 C256 0.931 . S
H273 C261 0.929 . S
H274 C262 0.960 . S
H275 C262 0.962 . S
H276 C262 0.960 . S
H277 C263 0.961 . S
H278 C263 0.961 . S
H279 C263 0.961 . S
H280 C264 0.931 . S
H281 C269 0.930 . S
H282 C270 0.956 . S
H283 C270 0.961 . S
H284 C270 0.961 . S
H285 C271 0.958 . S
H286 C271 0.961 . S
H287 C271 0.960 . S
C288 C289 1.391 . S
C288 C290 1.394 . S
C288 H304 0.931 . S
C289 C288 1.391 . S
C289 C293 1.376 . S
C290 C288 1.394 . S
C290 C291 1.369 . S
C290 C294 1.531 . S
C291 C290 1.369 . S
C291 C292 1.410 . S
C291 C299 1.503 . S
C292 C291 1.410 . S
C292 C293 1.392 . S
C292 C295 1.511 . S
C293 C289 1.376 . S
C293 C292 1.392 . S
C293 H305 0.929 . S
C294 C290 1.531 . S
C294 H306 0.960 . S
C294 H307 0.962 . S
C294 H308 0.960 . S
C295 C292 1.511 . S
C295 H309 0.961 . S
C295 H310 0.961 . S
C295 H311 0.961 . S
C296 C297 1.370 . S
C296 C298 1.363 . S
C296 H312 0.931 . S
C297 C296 1.370 . S
C297 C301 1.408 . S
C298 C296 1.363 . S
C298 C299 1.370 . S
C298 C302 1.524 . S
C299 C291 1.503 . S
C299 C298 1.370 . S
C299 C300 1.403 . S
C300 C299 1.403 . S
C300 C301 1.404 . S
C300 C303 1.539 . S
C301 C297 1.408 . S
C301 C300 1.404 . S
C301 H313 0.930 . S
C302 C298 1.524 . S
C302 H314 0.956 . S
C302 H315 0.961 . S
C302 H316 0.961 . S
C303 C300 1.539 . S
C303 H317 0.958 . S
C303 H318 0.961 . S
C303 H319 0.960 . S
H304 C288 0.931 . S
H305 C293 0.929 . S
H306 C294 0.960 . S
H307 C294 0.962 . S
H308 C294 0.960 . S
H309 C295 0.961 . S
H310 C295 0.961 . S
H311 C295 0.961 . S
H312 C296 0.931 . S
H313 C301 0.930 . S
H314 C302 0.956 . S
H315 C302 0.961 . S
H316 C302 0.961 . S
H317 C303 0.958 . S
H318 C303 0.961 . S
H319 C303 0.960 . S
C320 C321 1.391 . S
C320 C322 1.394 . S
C320 H336 0.931 . S
C321 C320 1.391 . S
C321 C325 1.376 . S
C322 C320 1.394 . S
C322 C323 1.369 . S
C322 C326 1.531 . S
C323 C322 1.369 . S
C323 C324 1.410 . S
C323 C331 1.503 . S
C324 C323 1.410 . S
C324 C325 1.392 . S
C324 C327 1.511 . S
C325 C321 1.376 . S
C325 C324 1.392 . S
C325 H337 0.929 . S
C326 C322 1.531 . S
C326 H338 0.960 . S
C326 H339 0.962 . S
C326 H340 0.960 . S
C327 C324 1.511 . S
C327 H341 0.961 . S
C327 H342 0.961 . S
C327 H343 0.961 . S
C328 C329 1.370 . S
C328 C330 1.363 . S
C328 H344 0.931 . S
C329 C328 1.370 . S
C329 C333 1.408 . S
C330 C328 1.363 . S
C330 C331 1.370 . S
C330 C334 1.524 . S
C331 C323 1.503 . S
C331 C330 1.370 . S
C331 C332 1.403 . S
C332 C331 1.403 . S
C332 C333 1.404 . S
C332 C335 1.539 . S
C333 C329 1.408 . S
C333 C332 1.404 . S
C333 H345 0.930 . S
C334 C330 1.524 . S
C334 H346 0.956 . S
C334 H347 0.961 . S
C334 H348 0.961 . S
C335 C332 1.539 . S
C335 H349 0.958 . S
C335 H350 0.961 . S
C335 H351 0.960 . S
H336 C320 0.931 . S
H337 C325 0.929 . S
H338 C326 0.960 . S
H339 C326 0.962 . S
H340 C326 0.960 . S
H341 C327 0.961 . S
H342 C327 0.961 . S
H343 C327 0.961 . S
H344 C328 0.931 . S
H345 C333 0.930 . S
H346 C334 0.956 . S
H347 C334 0.961 . S
H348 C334 0.961 . S
H349 C335 0.958 . S
H350 C335 0.961 . S
H351 C335 0.960 . S
C352 C353 1.391 . S
C352 C354 1.394 . S
C352 H368 0.931 . S
C353 C352 1.391 . S
C353 C357 1.376 . S
C354 C352 1.394 . S
C354 C355 1.369 . S
C354 C358 1.531 . S
C355 C354 1.369 . S
C355 C356 1.410 . S
C355 C363 1.503 . S
C356 C355 1.410 . S
C356 C357 1.392 . S
C356 C359 1.511 . S
C357 C353 1.376 . S
C357 C356 1.392 . S
C357 H369 0.929 . S
C358 C354 1.531 . S
C358 H370 0.960 . S
C358 H371 0.962 . S
C358 H372 0.960 . S
C359 C356 1.511 . S
C359 H373 0.961 . S
C359 H374 0.961 . S
C359 H375 0.961 . S
C360 C361 1.370 . S
C360 C362 1.363 . S
C360 H376 0.931 . S
C361 C360 1.370 . S
C361 C365 1.408 . S
C362 C360 1.363 . S
C362 C363 1.370 . S
C362 C366 1.524 . S
C363 C355 1.503 . S
C363 C362 1.370 . S
C363 C364 1.403 . S
C364 C363 1.403 . S
C364 C365 1.404 . S
C364 C367 1.539 . S
C365 C361 1.408 . S
C365 C364 1.404 . S
C365 H377 0.930 . S
C366 C362 1.524 . S
C366 H378 0.956 . S
C366 H379 0.961 . S
C366 H380 0.961 . S
C367 C364 1.539 . S
C367 H381 0.958 . S
C367 H382 0.961 . S
C367 H383 0.960 . S
H368 C352 0.931 . S
H369 C357 0.929 . S
H370 C358 0.960 . S
H371 C358 0.962 . S
H372 C358 0.960 . S
H373 C359 0.961 . S
H374 C359 0.961 . S
H375 C359 0.961 . S
H376 C360 0.931 . S
H377 C365 0.930 . S
H378 C366 0.956 . S
H379 C366 0.961 . S
H380 C366 0.961 . S
H381 C367 0.958 . S
H382 C367 0.961 . S
H383 C367 0.960 . S
C384 C385 1.391 . S
C384 C386 1.394 . S
C384 H400 0.931 . S
C385 C384 1.391 . S
C385 C389 1.376 . S
C386 C384 1.394 . S
C386 C387 1.369 . S
C386 C390 1.531 . S
C387 C386 1.369 . S
C387 C388 1.410 . S
C387 C395 1.503 . S
C388 C387 1.410 . S
C388 C389 1.392 . S
C388 C391 1.511 . S
C389 C385 1.376 . S
C389 C388 1.392 . S
C389 H401 0.929 . S
C390 C386 1.531 . S
C390 H402 0.960 . S
C390 H403 0.962 . S
C390 H404 0.960 . S
C391 C388 1.511 . S
C391 H405 0.961 . S
C391 H406 0.961 . S
C391 H407 0.961 . S
C392 C393 1.370 . S
C392 C394 1.363 . S
C392 H408 0.931 . S
C393 C392 1.370 . S
C393 C397 1.408 . S
C394 C392 1.363 . S
C394 C395 1.370 . S
C394 C398 1.524 . S
C395 C387 1.503 . S
C395 C394 1.370 . S
C395 C396 1.403 . S
C396 C395 1.403 . S
C396 C397 1.404 . S
C396 C399 1.539 . S
C397 C393 1.408 . S
C397 C396 1.404 . S
C397 H409 0.930 . S
C398 C394 1.524 . S
C398 H410 0.956 . S
C398 H411 0.961 . S
C398 H412 0.961 . S
C399 C396 1.539 . S
C399 H413 0.958 . S
C399 H414 0.961 . S
C399 H415 0.960 . S
H400 C384 0.931 . S
H401 C389 0.929 . S
H402 C390 0.960 . S
H403 C390 0.962 . S
H404 C390 0.960 . S
H405 C391 0.961 . S
H406 C391 0.961 . S
H407 C391 0.961 . S
H408 C392 0.931 . S
H409 C397 0.930 . S
H410 C398 0.956 . S
H411 C398 0.961 . S
H412 C398 0.961 . S
H413 C399 0.958 . S
H414 C399 0.961 . S
H415 C399 0.960 . S
C416 C417 1.391 . S
C416 C418 1.394 . S
C416 H432 0.931 . S
C417 C416 1.391 . S
C417 C421 1.376 . S
C418 C416 1.394 . S
C418 C419 1.369 . S
C418 C422 1.531 . S
C419 C418 1.369 . S
C419 C420 1.410 . S
C419 C427 1.503 . S
C420 C419 1.410 . S
C420 C421 1.392 . S
C420 C423 1.511 . S
C421 C417 1.376 . S
C421 C420 1.392 . S
C421 H433 0.929 . S
C422 C418 1.531 . S
C422 H434 0.960 . S
C422 H435 0.962 . S
C422 H436 0.960 . S
C423 C420 1.511 . S
C423 H437 0.961 . S
C423 H438 0.961 . S
C423 H439 0.961 . S
C424 C425 1.370 . S
C424 C426 1.363 . S
C424 H440 0.931 . S
C425 C424 1.370 . S
C425 C429 1.408 . S
C426 C424 1.363 . S
C426 C427 1.370 . S
C426 C430 1.524 . S
C427 C419 1.503 . S
C427 C426 1.370 . S
C427 C428 1.403 . S
C428 C427 1.403 . S
C428 C429 1.404 . S
C428 C431 1.539 . S
C429 C425 1.408 . S
C429 C428 1.404 . S
C429 H441 0.930 . S
C430 C426 1.524 . S
C430 H442 0.956 . S
C430 H443 0.961 . S
C430 H444 0.961 . S
C431 C428 1.539 . S
C431 H445 0.958 . S
C431 H446 0.961 . S
C431 H447 0.960 . S
H432 C416 0.931 . S
H433 C421 0.929 . S
H434 C422 0.960 . S
H435 C422 0.962 . S
H436 C422 0.960 . S
H437 C423 0.961 . S
H438 C423 0.961 . S
H439 C423 0.961 . S
H440 C424 0.931 . S
H441 C429 0.930 . S
H442 C430 0.956 . S
H443 C430 0.961 . S
H444 C430 0.961 . S
H445 C431 0.958 . S
H446 C431 0.961 . S
H447 C431 0.960 . S
C448 C449 1.391 . S
C448 C450 1.394 . S
C448 H464 0.931 . S
C449 C448 1.391 . S
C449 C453 1.376 . S
C450 C448 1.394 . S
C450 C451 1.369 . S
C450 C454 1.531 . S
C451 C450 1.369 . S
C451 C452 1.410 . S
C451 C459 1.503 . S
C452 C451 1.410 . S
C452 C453 1.392 . S
C452 C455 1.511 . S
C453 C449 1.376 . S
C453 C452 1.392 . S
C453 H465 0.929 . S
C454 C450 1.531 . S
C454 H466 0.960 . S
C454 H467 0.962 . S
C454 H468 0.960 . S
C455 C452 1.511 . S
C455 H469 0.961 . S
C455 H470 0.961 . S
C455 H471 0.961 . S
C456 C457 1.370 . S
C456 C458 1.363 . S
C456 H472 0.931 . S
C457 C456 1.370 . S
C457 C461 1.408 . S
C458 C456 1.363 . S
C458 C459 1.370 . S
C458 C462 1.524 . S
C459 C451 1.503 . S
C459 C458 1.370 . S
C459 C460 1.403 . S
C460 C459 1.403 . S
C460 C461 1.404 . S
C460 C463 1.539 . S
C461 C457 1.408 . S
C461 C460 1.404 . S
C461 H473 0.930 . S
C462 C458 1.524 . S
C462 H474 0.956 . S
C462 H475 0.961 . S
C462 H476 0.961 . S
C463 C460 1.539 . S
C463 H477 0.958 . S
C463 H478 0.961 . S
C463 H479 0.960 . S
H464 C448 0.931 . S
H465 C453 0.929 . S
H466 C454 0.960 . S
H467 C454 0.962 . S
H468 C454 0.960 . S
H469 C455 0.961 . S
H470 C455 0.961 . S
H471 C455 0.961 . S
H472 C456 0.931 . S
H473 C461 0.930 . S
H474 C462 0.956 . S
H475 C462 0.961 . S
H476 C462 0.961 . S
H477 C463 0.958 . S
H478 C463 0.961 . S
H479 C463 0.960 . S
C480 C481 1.391 . S
C480 C482 1.394 . S
C480 H496 0.931 . S
C481 C480 1.391 . S
C481 C485 1.376 . S
C482 C480 1.394 . S
C482 C483 1.369 . S
C482 C486 1.531 . S
C483 C482 1.369 . S
C483 C484 1.410 . S
C483 C491 1.503 1_556 S
C484 C483 1.410 . S
C484 C485 1.392 . S
C484 C487 1.511 . S
C485 C481 1.376 . S
C485 C484 1.392 . S
C485 H497 0.929 . S
C486 C482 1.531 . S
C486 H498 0.960 . S
C486 H499 0.962 . S
C486 H500 0.960 . S
C487 C484 1.511 . S
C487 H501 0.961 . S
C487 H502 0.961 1_556 S
C487 H503 0.961 . S
C488 C489 1.370 . S
C488 C490 1.363 . S
C488 H504 0.931 . S
C489 C488 1.370 . S
C489 C493 1.408 . S
C490 C488 1.363 . S
C490 C491 1.370 . S
C490 C494 1.524 . S
C491 C483 1.503 1_554 S
C491 C490 1.370 . S
C491 C492 1.403 . S
C492 C491 1.403 . S
C492 C493 1.404 . S
C492 C495 1.539 . S
C493 C489 1.408 . S
C493 C492 1.404 . S
C493 H505 0.930 . S
C494 C490 1.524 . S
C494 H506 0.955 . S
C494 H507 0.961 . S
C494 H508 0.961 . S
C495 C492 1.539 . S
C495 H509 0.958 . S
C495 H510 0.961 . S
C495 H511 0.960 . S
H496 C480 0.931 . S
H497 C485 0.929 . S
H498 C486 0.960 . S
H499 C486 0.962 . S
H500 C486 0.960 . S
H501 C487 0.961 . S
H502 C487 0.961 1_554 S
H503 C487 0.961 . S
H504 C488 0.931 . S
H505 C493 0.930 . S
H506 C494 0.955 . S
H507 C494 0.961 . S
H508 C494 0.961 . S
H509 C495 0.958 . S
H510 C495 0.961 . S
H511 C495 0.960 . S
C512 C513 1.391 . S
C512 C514 1.394 . S
C512 H528 0.931 . S
C513 C512 1.391 . S
C513 C517 1.376 . S
C514 C512 1.394 . S
C514 C515 1.369 . S
C514 C518 1.531 . S
C515 C514 1.369 . S
C515 C516 1.410 . S
C515 C523 1.503 1_556 S
C516 C515 1.410 . S
C516 C517 1.392 . S
C516 C519 1.511 . S
C517 C513 1.376 . S
C517 C516 1.392 . S
C517 H529 0.929 . S
C518 C514 1.531 . S
C518 H530 0.960 1_556 S
C518 H531 0.962 . S
C518 H532 0.960 . S
C519 C516 1.511 . S
C519 H533 0.961 . S
C519 H534 0.961 . S
C519 H535 0.961 . S
C520 C521 1.370 . S
C520 C522 1.363 . S
C520 H536 0.931 . S
C521 C520 1.370 . S
C521 C525 1.408 . S
C522 C520 1.363 . S
C522 C523 1.370 . S
C522 C526 1.524 . S
C523 C515 1.503 1_554 S
C523 C522 1.370 . S
C523 C524 1.403 . S
C524 C523 1.403 . S
C524 C525 1.404 . S
C524 C527 1.539 . S
C525 C521 1.408 . S
C525 C524 1.404 . S
C525 H537 0.930 . S
C526 C522 1.524 . S
C526 H538 0.940 1_554 S
C526 H539 0.961 1_554 S
C526 H540 0.961 . S
C527 C524 1.539 . S
C527 H541 0.958 . S
C527 H542 0.961 . S
C527 H543 0.988 . S
H528 C512 0.931 . S
H529 C517 0.929 . S
H530 C518 0.960 1_554 S
H531 C518 0.962 . S
H532 C518 0.960 . S
H533 C519 0.961 . S
H534 C519 0.961 . S
H535 C519 0.961 . S
H536 C520 0.931 . S
H537 C525 0.930 . S
H538 C526 0.940 1_556 S
H539 C526 0.961 1_556 S
H540 C526 0.961 . S
H541 C527 0.958 . S
H542 C527 0.961 . S
H543 C527 0.988 . S
C544 C545 1.391 . S
C544 C546 1.394 . S
C544 H560 0.931 . S
C545 C544 1.391 . S
C545 C549 1.376 . S
C546 C544 1.394 . S
C546 C547 1.369 . S
C546 C550 1.531 . S
C547 C546 1.369 . S
C547 C548 1.410 . S
C547 C555 1.503 1_556 S
C548 C547 1.410 . S
C548 C549 1.392 . S
C548 C551 1.511 . S
C549 C545 1.376 . S
C549 C548 1.392 . S
C549 H561 0.929 . S
C550 C546 1.531 . S
C550 H562 0.960 . S
C550 H563 0.962 . S
C550 H564 0.960 . S
C551 C548 1.511 . S
C551 H565 0.961 . S
C551 H566 0.961 1_556 S
C551 H567 0.961 . S
C552 C553 1.370 . S
C552 C554 1.363 . S
C552 H568 0.931 . S
C553 C552 1.370 . S
C553 C557 1.408 . S
C554 C552 1.363 . S
C554 C555 1.370 . S
C554 C558 1.524 . S
C555 C547 1.503 1_554 S
C555 C554 1.370 . S
C555 C556 1.403 . S
C556 C555 1.403 . S
C556 C557 1.404 . S
C556 C559 1.539 . S
C557 C553 1.408 . S
C557 C556 1.404 . S
C557 H569 0.930 . S
C558 C554 1.524 . S
C558 H570 0.956 . S
C558 H571 0.961 . S
C558 H572 0.961 . S
C559 C556 1.539 . S
C559 H573 0.958 . S
C559 H574 0.961 . S
C559 H575 0.960 1_554 S
H560 C544 0.931 . S
H561 C549 0.929 . S
H562 C550 0.960 . S
H563 C550 0.962 . S
H564 C550 0.960 . S
H565 C551 0.961 . S
H566 C551 0.961 1_554 S
H567 C551 0.961 . S
H568 C552 0.931 . S
H569 C557 0.930 . S
H570 C558 0.956 . S
H571 C558 0.961 . S
H572 C558 0.961 . S
H573 C559 0.958 . S
H574 C559 0.961 . S
H575 C559 0.960 1_556 S
C576 C577 1.391 . S
C576 C578 1.394 . S
C576 H592 0.931 . S
C577 C576 1.391 . S
C577 C581 1.376 . S
C578 C576 1.394 . S
C578 C579 1.369 . S
C578 C582 1.531 . S
C579 C578 1.369 . S
C579 C580 1.410 . S
C579 C587 1.503 1_554 S
C580 C579 1.410 . S
C580 C581 1.392 . S
C580 C583 1.511 . S
C581 C577 1.376 . S
C581 C580 1.392 . S
C581 H593 0.929 . S
C582 C578 1.531 . S
C582 H594 0.960 . S
C582 H595 0.962 . S
C582 H596 0.960 . S
C583 C580 1.511 . S
C583 H597 0.961 . S
C583 H598 0.961 1_554 S
C583 H599 0.961 . S
C584 C585 1.370 . S
C584 C586 1.363 . S
C584 H600 0.931 . S
C585 C584 1.370 . S
C585 C589 1.408 . S
C586 C584 1.363 . S
C586 C587 1.370 . S
C586 C590 1.524 . S
C587 C579 1.503 1_556 S
C587 C586 1.370 . S
C587 C588 1.403 . S
C588 C587 1.403 . S
C588 C589 1.404 . S
C588 C591 1.539 . S
C589 C585 1.408 . S
C589 C588 1.404 . S
C589 H601 0.930 . S
C590 C586 1.524 . S
C590 H602 0.956 1_556 S
C590 H603 0.962 1_556 S
C590 H604 0.961 . S
C591 C588 1.539 . S
C591 H605 0.958 . S
C591 H606 0.961 . S
C591 H607 0.960 . S
H592 C576 0.931 . S
H593 C581 0.929 . S
H594 C582 0.960 . S
H595 C582 0.962 . S
H596 C582 0.960 . S
H597 C583 0.961 . S
H598 C583 0.961 1_556 S
H599 C583 0.961 . S
H600 C584 0.931 . S
H601 C589 0.930 . S
H602 C590 0.956 1_554 S
H603 C590 0.962 1_554 S
H604 C590 0.961 . S
H605 C591 0.958 . S
H606 C591 0.961 . S
H607 C591 0.960 . S
C608 C609 1.391 . S
C608 C610 1.394 . S
C608 H624 0.931 . S
C609 C608 1.391 . S
C609 C613 1.376 . S
C610 C608 1.394 . S
C610 C611 1.369 . S
C610 C614 1.531 . S
C611 C610 1.369 . S
C611 C612 1.410 . S
C611 C619 1.503 1_455 S
C612 C611 1.410 . S
C612 C613 1.392 . S
C612 C615 1.511 . S
C613 C609 1.376 . S
C613 C612 1.392 . S
C613 H625 0.929 . S
C614 C610 1.531 . S
C614 H626 0.960 1_455 S
C614 H627 0.962 . S
C614 H628 0.960 . S
C615 C612 1.511 . S
C615 H629 0.961 . S
C615 H630 0.961 1_455 S
C615 H631 0.961 . S
C616 C617 1.370 . S
C616 C618 1.363 . S
C616 H632 0.931 . S
C617 C616 1.370 . S
C617 C621 1.408 . S
C618 C616 1.363 . S
C618 C619 1.370 . S
C618 C622 1.524 . S
C619 C611 1.503 1_655 S
C619 C618 1.370 . S
C619 C620 1.403 . S
C620 C619 1.403 . S
C620 C621 1.404 . S
C620 C623 1.539 . S
C621 C617 1.408 . S
C621 C620 1.404 . S
C621 H633 0.930 . S
C622 C618 1.524 . S
C622 H634 0.948 1_655 S
C622 H635 0.961 1_655 S
C622 H636 0.961 . S
C623 C620 1.539 . S
C623 H637 0.958 . S
C623 H638 0.961 . S
C623 H639 0.960 . S
H624 C608 0.931 . S
H625 C613 0.929 . S
H626 C614 0.960 1_655 S
H627 C614 0.962 . S
H628 C614 0.960 . S
H629 C615 0.961 . S
H630 C615 0.961 1_655 S
H631 C615 0.961 . S
H632 C616 0.931 . S
H633 C621 0.930 . S
H634 C622 0.948 1_455 S
H635 C622 0.961 1_455 S
H636 C622 0.961 . S
H637 C623 0.958 . S
H638 C623 0.961 . S
H639 C623 0.960 . S
C640 C641 1.391 . S
C640 C642 1.394 . S
C640 H656 0.931 . S
C641 C640 1.391 . S
C641 C645 1.376 . S
C642 C640 1.394 . S
C642 C643 1.369 . S
C642 C646 1.531 . S
C643 C642 1.369 . S
C643 C644 1.410 . S
C643 C651 1.503 1_565 S
C644 C643 1.410 . S
C644 C645 1.392 . S
C644 C647 1.511 . S
C645 C641 1.376 . S
C645 C644 1.392 . S
C645 H657 0.929 . S
C646 C642 1.531 . S
C646 H658 0.960 . S
C646 H659 0.962 . S
C646 H660 0.960 . S
C647 C644 1.511 . S
C647 H661 0.961 . S
C647 H662 0.961 1_565 S
C647 H663 0.961 . S
C648 C649 1.370 . S
C648 C650 1.363 . S
C648 H664 0.931 . S
C649 C648 1.370 . S
C649 C653 1.408 . S
C650 C648 1.363 . S
C650 C651 1.370 . S
C650 C654 1.524 . S
C651 C643 1.503 1_545 S
C651 C650 1.370 . S
C651 C652 1.403 . S
C652 C651 1.403 . S
C652 C653 1.404 . S
C652 C655 1.539 . S
C653 C649 1.408 . S
C653 C652 1.404 . S
C653 H665 0.930 . S
C654 C650 1.524 . S
C654 H666 0.956 . S
C654 H667 0.961 . S
C654 H668 0.961 . S
C655 C652 1.539 . S
C655 H669 0.958 . S
C655 H670 0.961 . S
C655 H671 0.960 1_545 S
H656 C640 0.931 . S
H657 C645 0.929 . S
H658 C646 0.960 . S
H659 C646 0.962 . S
H660 C646 0.960 . S
H661 C647 0.961 . S
H662 C647 0.961 1_545 S
H663 C647 0.961 . S
H664 C648 0.931 . S
H665 C653 0.930 . S
H666 C654 0.956 . S
H667 C654 0.961 . S
H668 C654 0.961 . S
H669 C655 0.958 . S
H670 C655 0.961 . S
H671 C655 0.960 1_565 S
C672 C673 1.391 . S
C672 C674 1.394 . S
C672 H688 0.931 . S
C673 C672 1.391 . S
C673 C677 1.376 . S
C674 C672 1.394 . S
C674 C675 1.369 . S
C674 C678 1.531 . S
C675 C674 1.369 . S
C675 C676 1.410 . S
C675 C683 1.503 1_655 S
C676 C675 1.410 . S
C676 C677 1.392 . S
C676 C679 1.511 . S
C677 C673 1.376 . S
C677 C676 1.392 . S
C677 H689 0.929 . S
C678 C674 1.531 . S
C678 H690 0.960 1_655 S
C678 H691 0.962 . S
C678 H692 0.960 . S
C679 C676 1.511 . S
C679 H693 0.961 . S
C679 H694 0.961 1_655 S
C679 H695 0.961 . S
C680 C681 1.370 . S
C680 C682 1.363 . S
C680 H696 0.931 . S
C681 C680 1.370 . S
C681 C685 1.408 . S
C682 C680 1.363 . S
C682 C683 1.370 . S
C682 C686 1.524 . S
C683 C675 1.503 1_455 S
C683 C682 1.370 . S
C683 C684 1.403 . S
C684 C683 1.403 . S
C684 C685 1.404 . S
C684 C687 1.539 . S
C685 C681 1.408 . S
C685 C684 1.404 . S
C685 H697 0.930 . S
C686 C682 1.524 . S
C686 H698 0.956 . S
C686 H699 0.961 1_455 S
C686 H700 0.961 . S
C687 C684 1.539 . S
C687 H701 0.958 . S
C687 H702 0.961 . S
C687 H703 0.935 1_455 S
H688 C672 0.931 . S
H689 C677 0.929 . S
H690 C678 0.960 1_455 S
H691 C678 0.962 . S
H692 C678 0.960 . S
H693 C679 0.961 . S
H694 C679 0.961 1_455 S
H695 C679 0.961 . S
H696 C680 0.931 . S
H697 C685 0.930 . S
H698 C686 0.956 . S
H699 C686 0.961 1_655 S
H700 C686 0.961 . S
H701 C687 0.958 . S
H702 C687 0.961 . S
H703 C687 0.935 1_655 S
C704 C705 1.391 . S
C704 C706 1.394 . S
C704 H720 0.931 . S
C705 C704 1.391 . S
C705 C709 1.376 . S
C706 C704 1.394 . S
C706 C707 1.369 . S
C706 C710 1.531 . S
C707 C706 1.369 . S
C707 C708 1.410 . S
C707 C715 1.503 1_545 S
C708 C707 1.410 . S
C708 C709 1.392 . S
C708 C711 1.511 . S
C709 C705 1.376 . S
C709 C708 1.392 . S
C709 H721 0.929 . S
C710 C706 1.531 . S
C710 H722 0.960 1_545 S
C710 H723 0.970 . S
C710 H724 0.960 . S
C711 C708 1.511 . S
C711 H725 0.961 . S
C711 H726 0.961 . S
C711 H727 0.961 . S
C712 C713 1.370 . S
C712 C714 1.363 . S
C712 H728 0.931 . S
C713 C712 1.370 . S
C713 C717 1.408 . S
C714 C712 1.363 . S
C714 C715 1.370 . S
C714 C718 1.524 . S
C715 C707 1.503 1_565 S
C715 C714 1.370 . S
C715 C716 1.403 . S
C716 C715 1.403 . S
C716 C717 1.404 . S
C716 C719 1.539 . S
C717 C713 1.408 . S
C717 C716 1.404 . S
C717 H729 0.930 . S
C718 C714 1.524 . S
C718 H730 0.956 . S
C718 H731 0.961 1_565 S
C718 H732 0.961 . S
C719 C716 1.539 . S
C719 H733 0.958 . S
C719 H734 0.961 . S
C719 H735 0.960 . S
H720 C704 0.931 . S
H721 C709 0.929 . S
H722 C710 0.960 1_565 S
H723 C710 0.970 . S
H724 C710 0.960 . S
H725 C711 0.961 . S
H726 C711 0.961 . S
H727 C711 0.961 . S
H728 C712 0.931 . S
H729 C717 0.930 . S
H730 C718 0.956 . S
H731 C718 0.961 1_545 S
H732 C718 0.961 . S
H733 C719 0.958 . S
H734 C719 0.961 . S
H735 C719 0.960 . S
C736 C737 1.391 . S
C736 C738 1.394 . S
C736 H752 0.931 . S
C737 C736 1.391 . S
C737 C741 1.376 . S
C738 C736 1.394 . S
C738 C739 1.369 . S
C738 C742 1.531 . S
C739 C738 1.369 . S
C739 C740 1.410 . S
C739 C747 1.503 1_655 S
C740 C739 1.410 . S
C740 C741 1.392 . S
C740 C743 1.511 . S
C741 C737 1.376 . S
C741 C740 1.392 . S
C741 H753 0.929 . S
C742 C738 1.531 . S
C742 H754 0.932 1_655 S
C742 H755 0.962 . S
C742 H756 0.960 . S
C743 C740 1.511 . S
C743 H757 0.961 . S
C743 H758 0.961 1_655 S
C743 H759 0.961 . S
C744 C745 1.370 . S
C744 C746 1.363 . S
C744 H760 0.931 . S
C745 C744 1.370 . S
C745 C749 1.408 . S
C746 C744 1.363 . S
C746 C747 1.370 . S
C746 C750 1.524 . S
C747 C739 1.503 1_455 S
C747 C746 1.370 . S
C747 C748 1.403 . S
C748 C747 1.403 . S
C748 C749 1.404 . S
C748 C751 1.539 . S
C749 C745 1.408 . S
C749 C748 1.404 . S
C749 H761 0.930 . S
C750 C746 1.524 . S
C750 H762 0.956 . S
C750 H763 0.968 . S
C750 H764 0.961 . S
C751 C748 1.539 . S
C751 H765 0.958 . S
C751 H766 0.961 . S
C751 H767 0.960 1_455 S
H752 C736 0.931 . S
H753 C741 0.929 . S
H754 C742 0.932 1_455 S
H755 C742 0.962 . S
H756 C742 0.960 . S
H757 C743 0.961 . S
H758 C743 0.961 1_455 S
H759 C743 0.961 . S
H760 C744 0.931 . S
H761 C749 0.930 . S
H762 C750 0.956 . S
H763 C750 0.968 . S
H764 C750 0.961 . S
H765 C751 0.958 . S
H766 C751 0.961 . S
H767 C751 0.960 1_655 S
C768 C769 1.391 . S
C768 C770 1.394 . S
C768 H784 0.931 . S
C769 C768 1.391 . S
C769 C773 1.376 . S
C770 C768 1.394 . S
C770 C771 1.369 . S
C770 C774 1.531 . S
C771 C770 1.369 . S
C771 C772 1.410 . S
C771 C779 1.503 1_565 S
C772 C771 1.410 . S
C772 C773 1.392 . S
C772 C775 1.511 . S
C773 C769 1.376 . S
C773 C772 1.392 . S
C773 H785 0.929 . S
C774 C770 1.531 . S
C774 H786 0.960 1_565 S
C774 H787 0.971 . S
C774 H788 0.960 . S
C775 C772 1.511 . S
C775 H789 0.961 . S
C775 H790 0.961 . S
C775 H791 0.961 . S
C776 C777 1.370 . S
C776 C778 1.363 . S
C776 H792 0.931 . S
C777 C776 1.370 . S
C777 C781 1.408 . S
C778 C776 1.363 . S
C778 C779 1.370 . S
C778 C782 1.524 . S
C779 C771 1.503 1_545 S
C779 C778 1.370 . S
C779 C780 1.403 . S
C780 C779 1.403 . S
C780 C781 1.404 . S
C780 C783 1.539 . S
C781 C777 1.408 . S
C781 C780 1.404 . S
C781 H793 0.930 . S
C782 C778 1.524 . S
C782 H794 0.956 . S
C782 H795 0.961 1_545 S
C782 H796 0.961 . S
C783 C780 1.539 . S
C783 H797 0.958 . S
C783 H798 0.961 . S
C783 H799 0.960 . S
H784 C768 0.931 . S
H785 C773 0.929 . S
H786 C774 0.960 1_545 S
H787 C774 0.971 . S
H788 C774 0.960 . S
H789 C775 0.961 . S
H790 C775 0.961 . S
H791 C775 0.961 . S
H792 C776 0.931 . S
H793 C781 0.930 . S
H794 C782 0.956 . S
H795 C782 0.961 1_565 S
H796 C782 0.961 . S
H797 C783 0.958 . S
H798 C783 0.961 . S
H799 C783 0.960 . S
C800 C801 1.391 . S
C800 C802 1.394 . S
C800 H816 0.931 . S
C801 C800 1.391 . S
C801 C805 1.376 . S
C802 C800 1.394 . S
C802 C803 1.369 . S
C802 C806 1.531 . S
C803 C802 1.369 . S
C803 C804 1.410 . S
C803 C811 1.503 1_455 S
C804 C803 1.410 . S
C804 C805 1.392 . S
C804 C807 1.511 . S
C805 C801 1.376 . S
C805 C804 1.392 . S
C805 H817 0.929 . S
C806 C802 1.531 . S
C806 H818 0.960 1_455 S
C806 H819 0.962 . S
C806 H820 0.960 . S
C807 C804 1.511 . S
C807 H821 0.961 . S
C807 H822 0.961 1_455 S
C807 H823 0.961 . S
C808 C809 1.370 . S
C808 C810 1.363 . S
C808 H824 0.931 . S
C809 C808 1.370 . S
C809 C813 1.408 . S
C810 C808 1.363 . S
C810 C811 1.370 . S
C810 C814 1.524 . S
C811 C803 1.503 1_655 S
C811 C810 1.370 . S
C811 C812 1.403 . S
C812 C811 1.403 . S
C812 C813 1.404 . S
C812 C815 1.539 . S
C813 C809 1.408 . S
C813 C812 1.404 . S
C813 H825 0.930 . S
C814 C810 1.524 . S
C814 H826 0.956 . S
C814 H827 0.967 . S
C814 H828 0.961 . S
C815 C812 1.539 . S
C815 H829 0.958 . S
C815 H830 0.961 . S
C815 H831 0.960 1_655 S
H816 C800 0.931 . S
H817 C805 0.929 . S
H818 C806 0.960 1_655 S
H819 C806 0.962 . S
H820 C806 0.960 . S
H821 C807 0.961 . S
H822 C807 0.961 1_655 S
H823 C807 0.961 . S
H824 C808 0.931 . S
H825 C813 0.930 . S
H826 C814 0.956 . S
H827 C814 0.967 . S
H828 C814 0.961 . S
H829 C815 0.958 . S
H830 C815 0.961 . S
H831 C815 0.960 1_455 S
C832 C833 1.391 . S
C832 C834 1.394 . S
C832 H848 0.931 . S
C833 C832 1.391 . S
C833 C837 1.376 . S
C834 C832 1.394 . S
C834 C835 1.369 . S
C834 C838 1.531 . S
C835 C834 1.369 . S
C835 C836 1.410 . S
C835 C843 1.503 1_565 S
C836 C835 1.410 . S
C836 C837 1.392 . S
C836 C839 1.511 . S
C837 C833 1.376 . S
C837 C836 1.392 . S
C837 H849 0.929 . S
C838 C834 1.531 . S
C838 H850 0.960 1_565 S
C838 H851 0.962 . S
C838 H852 0.960 . S
C839 C836 1.511 . S
C839 H853 0.961 . S
C839 H854 0.961 . S
C839 H855 0.961 . S
C840 C841 1.370 . S
C840 C842 1.363 . S
C840 H856 0.931 . S
C841 C840 1.370 . S
C841 C845 1.408 . S
C842 C840 1.363 . S
C842 C843 1.370 . S
C842 C846 1.524 . S
C843 C835 1.503 1_545 S
C843 C842 1.370 . S
C843 C844 1.403 . S
C844 C843 1.403 . S
C844 C845 1.404 . S
C844 C847 1.539 . S
C845 C841 1.408 . S
C845 C844 1.404 . S
C845 H857 0.930 . S
C846 C842 1.524 . S
C846 H858 0.956 1_545 S
C846 H859 0.961 1_545 S
C846 H860 0.961 . S
C847 C844 1.539 . S
C847 H861 0.958 . S
C847 H862 0.961 . S
C847 H863 0.960 . S
H848 C832 0.931 . S
H849 C837 0.929 . S
H850 C838 0.960 1_545 S
H851 C838 0.962 . S
H852 C838 0.960 . S
H853 C839 0.961 . S
H854 C839 0.961 . S
H855 C839 0.961 . S
H856 C840 0.931 . S
H857 C845 0.930 . S
H858 C846 0.956 1_565 S
H859 C846 0.961 1_565 S
H860 C846 0.961 . S
H861 C847 0.958 . S
H862 C847 0.961 . S
H863 C847 0.960 . S
C864 C865 1.391 . S
C864 C866 1.394 . S
C864 H880 0.931 . S
C865 C864 1.391 . S
C865 C869 1.376 . S
C866 C864 1.394 . S
C866 C867 1.369 . S
C866 C870 1.531 . S
C867 C866 1.369 . S
C867 C868 1.410 . S
C867 C875 1.503 . S
C868 C867 1.410 . S
C868 C869 1.392 . S
C868 C871 1.511 . S
C869 C865 1.376 . S
C869 C868 1.392 . S
C869 H881 0.929 . S
C870 C866 1.531 . S
C870 H882 0.960 . S
C870 H883 0.962 . S
C870 H884 0.960 . S
C871 C868 1.511 . S
C871 H885 0.961 . S
C871 H886 0.961 . S
C871 H887 0.961 . S
C872 C873 1.370 . S
C872 C874 1.363 . S
C872 H888 0.931 . S
C873 C872 1.370 . S
C873 C877 1.408 . S
C874 C872 1.363 . S
C874 C875 1.370 . S
C874 C878 1.524 . S
C875 C867 1.503 . S
C875 C874 1.370 . S
C875 C876 1.403 . S
C876 C875 1.403 . S
C876 C877 1.404 . S
C876 C879 1.539 . S
C877 C873 1.408 . S
C877 C876 1.404 . S
C877 H889 0.930 . S
C878 C874 1.524 . S
C878 H890 0.956 . S
C878 H891 0.961 . S
C878 H892 0.961 . S
C879 C876 1.539 . S
C879 H893 0.958 . S
C879 H894 0.961 . S
C879 H895 0.960 . S
H880 C864 0.931 . S
H881 C869 0.929 . S
H882 C870 0.960 . S
H883 C870 0.962 . S
H884 C870 0.960 . S
H885 C871 0.961 . S
H886 C871 0.961 . S
H887 C871 0.961 . S
H888 C872 0.931 . S
H889 C877 0.930 . S
H890 C878 0.956 . S
H891 C878 0.961 . S
H892 C878 0.961 . S
H893 C879 0.958 . S
H894 C879 0.961 . S
H895 C879 0.960 . S
C896 C897 1.391 . S
C896 C898 1.394 . S
C896 H912 0.931 . S
C897 C896 1.391 . S
C897 C901 1.376 . S
C898 C896 1.394 . S
C898 C899 1.369 . S
C898 C902 1.531 . S
C899 C898 1.369 . S
C899 C900 1.410 . S
C899 C907 1.503 . S
C900 C899 1.410 . S
C900 C901 1.392 . S
C900 C903 1.511 . S
C901 C897 1.376 . S
C901 C900 1.392 . S
C901 H913 0.929 . S
C902 C898 1.531 . S
C902 H914 0.960 . S
C902 H915 0.962 . S
C902 H916 0.960 . S
C903 C900 1.511 . S
C903 H917 0.961 . S
C903 H918 0.961 . S
C903 H919 0.961 . S
C904 C905 1.370 . S
C904 C906 1.363 . S
C904 H920 0.931 . S
C905 C904 1.370 . S
C905 C909 1.408 . S
C906 C904 1.363 . S
C906 C907 1.370 . S
C906 C910 1.524 . S
C907 C899 1.503 . S
C907 C906 1.370 . S
C907 C908 1.403 . S
C908 C907 1.403 . S
C908 C909 1.404 . S
C908 C911 1.539 . S
C909 C905 1.408 . S
C909 C908 1.404 . S
C909 H921 0.930 . S
C910 C906 1.524 . S
C910 H922 0.956 . S
C910 H923 0.961 . S
C910 H924 0.961 . S
C911 C908 1.539 . S
C911 H925 0.958 . S
C911 H926 0.961 . S
C911 H927 0.960 . S
H912 C896 0.931 . S
H913 C901 0.929 . S
H914 C902 0.960 . S
H915 C902 0.962 . S
H916 C902 0.960 . S
H917 C903 0.961 . S
H918 C903 0.961 . S
H919 C903 0.961 . S
H920 C904 0.931 . S
H921 C909 0.930 . S
H922 C910 0.956 . S
H923 C910 0.961 . S
H924 C910 0.961 . S
H925 C911 0.958 . S
H926 C911 0.961 . S
H927 C911 0.960 . S
C928 C929 1.391 . S
C928 C930 1.394 . S
C928 H944 0.931 . S
C929 C928 1.391 . S
C929 C933 1.376 . S
C930 C928 1.394 . S
C930 C931 1.369 . S
C930 C934 1.531 . S
C931 C930 1.369 . S
C931 C932 1.410 . S
C931 C939 1.503 . S
C932 C931 1.410 . S
C932 C933 1.392 . S
C932 C935 1.511 . S
C933 C929 1.376 . S
C933 C932 1.392 . S
C933 H945 0.929 . S
C934 C930 1.531 . S
C934 H946 0.960 . S
C934 H947 0.962 . S
C934 H948 0.960 . S
C935 C932 1.511 . S
C935 H949 0.961 . S
C935 H950 0.961 . S
C935 H951 0.961 . S
C936 C937 1.370 . S
C936 C938 1.363 . S
C936 H952 0.931 . S
C937 C936 1.370 . S
C937 C941 1.408 . S
C938 C936 1.363 . S
C938 C939 1.370 . S
C938 C942 1.524 . S
C939 C931 1.503 . S
C939 C938 1.370 . S
C939 C940 1.403 . S
C940 C939 1.403 . S
C940 C941 1.404 . S
C940 C943 1.539 . S
C941 C937 1.408 . S
C941 C940 1.404 . S
C941 H953 0.930 . S
C942 C938 1.524 . S
C942 H954 0.956 . S
C942 H955 0.961 . S
C942 H956 0.961 . S
C943 C940 1.539 . S
C943 H957 0.958 . S
C943 H958 0.961 . S
C943 H959 0.960 . S
H944 C928 0.931 . S
H945 C933 0.929 . S
H946 C934 0.960 . S
H947 C934 0.962 . S
H948 C934 0.960 . S
H949 C935 0.961 . S
H950 C935 0.961 . S
H951 C935 0.961 . S
H952 C936 0.931 . S
H953 C941 0.930 . S
H954 C942 0.956 . S
H955 C942 0.961 . S
H956 C942 0.961 . S
H957 C943 0.958 . S
H958 C943 0.961 . S
H959 C943 0.960 . S
C960 C961 1.391 . S
C960 C962 1.394 . S
C960 H976 0.931 . S
C961 C960 1.391 . S
C961 C965 1.376 . S
C962 C960 1.394 . S
C962 C963 1.369 . S
C962 C966 1.531 . S
C963 C962 1.369 . S
C963 C964 1.410 . S
C963 C971 1.503 . S
C964 C963 1.410 . S
C964 C965 1.392 . S
C964 C967 1.511 . S
C965 C961 1.376 . S
C965 C964 1.392 . S
C965 H977 0.929 . S
C966 C962 1.531 . S
C966 H978 0.960 . S
C966 H979 0.962 . S
C966 H980 0.960 . S
C967 C964 1.511 . S
C967 H981 0.961 . S
C967 H982 0.961 . S
C967 H983 0.961 . S
C968 C969 1.370 . S
C968 C970 1.363 . S
C968 H984 0.931 . S
C969 C968 1.370 . S
C969 C973 1.408 . S
C970 C968 1.363 . S
C970 C971 1.370 . S
C970 C974 1.524 . S
C971 C963 1.503 . S
C971 C970 1.370 . S
C971 C972 1.403 . S
C972 C971 1.403 . S
C972 C973 1.404 . S
C972 C975 1.539 . S
C973 C969 1.408 . S
C973 C972 1.404 . S
C973 H985 0.930 . S
C974 C970 1.524 . S
C974 H986 0.956 . S
C974 H987 0.961 . S
C974 H988 0.961 . S
C975 C972 1.539 . S
C975 H989 0.958 . S
C975 H990 0.961 . S
C975 H991 0.960 . S
H976 C960 0.931 . S
H977 C965 0.929 . S
H978 C966 0.960 . S
H979 C966 0.962 . S
H980 C966 0.960 . S
H981 C967 0.961 . S
H982 C967 0.961 . S
H983 C967 0.961 . S
H984 C968 0.931 . S
H985 C973 0.930 . S
H986 C974 0.956 . S
H987 C974 0.961 . S
H988 C974 0.961 . S
H989 C975 0.958 . S
H990 C975 0.961 . S
H991 C975 0.960 . S
C992 C993 1.391 . S
C992 C994 1.394 . S
C992 H1008 0.931 . S
C993 C992 1.391 . S
C993 C997 1.376 . S
C994 C992 1.394 . S
C994 C995 1.369 . S
C994 C998 1.531 . S
C995 C994 1.369 . S
C995 C996 1.410 . S
C995 C1003 1.503 . S
C996 C995 1.410 . S
C996 C997 1.392 . S
C996 C999 1.511 . S
C997 C993 1.376 . S
C997 C996 1.392 . S
C997 H1009 0.929 . S
C998 C994 1.531 . S
C998 H1010 0.960 . S
C998 H1011 0.962 . S
C998 H1012 0.960 . S
C999 C996 1.511 . S
C999 H1013 0.961 . S
C999 H1014 0.961 . S
C999 H1015 0.961 . S
C1000 C1001 1.370 . S
C1000 C1002 1.363 . S
C1000 H1016 0.931 . S
C1001 C1000 1.370 . S
C1001 C1005 1.408 . S
C1002 C1000 1.363 . S
C1002 C1003 1.370 . S
C1002 C1006 1.524 . S
C1003 C995 1.503 . S
C1003 C1002 1.370 . S
C1003 C1004 1.403 . S
C1004 C1003 1.403 . S
C1004 C1005 1.404 . S
C1004 C1007 1.539 . S
C1005 C1001 1.408 . S
C1005 C1004 1.404 . S
C1005 H1017 0.930 . S
C1006 C1002 1.524 . S
C1006 H1018 0.956 . S
C1006 H1019 0.961 . S
C1006 H1020 0.961 . S
C1007 C1004 1.539 . S
C1007 H1021 0.958 . S
C1007 H1022 0.961 . S
C1007 H1023 0.960 . S
H1008 C992 0.931 . S
H1009 C997 0.929 . S
H1010 C998 0.960 . S
H1011 C998 0.962 . S
H1012 C998 0.960 . S
H1013 C999 0.961 . S
H1014 C999 0.961 . S
H1015 C999 0.961 . S
H1016 C1000 0.931 . S
H1017 C1005 0.930 . S
H1018 C1006 0.956 . S
H1019 C1006 0.961 . S
H1020 C1006 0.961 . S
H1021 C1007 0.958 . S
H1022 C1007 0.961 . S
H1023 C1007 0.960 . S
C1024 C1025 1.391 . S
C1024 C1026 1.394 . S
C1024 H1040 0.931 . S
C1025 C1024 1.391 . S
C1025 C1029 1.376 . S
C1026 C1024 1.394 . S
C1026 C1027 1.369 . S
C1026 C1030 1.531 . S
C1027 C1026 1.369 . S
C1027 C1028 1.410 . S
C1027 C1035 1.503 . S
C1028 C1027 1.410 . S
C1028 C1029 1.392 . S
C1028 C1031 1.511 . S
C1029 C1025 1.376 . S
C1029 C1028 1.392 . S
C1029 H1041 0.929 . S
C1030 C1026 1.531 . S
C1030 H1042 0.960 . S
C1030 H1043 0.962 . S
C1030 H1044 0.960 . S
C1031 C1028 1.511 . S
C1031 H1045 0.961 . S
C1031 H1046 0.961 . S
C1031 H1047 0.961 . S
C1032 C1033 1.370 . S
C1032 C1034 1.363 . S
C1032 H1048 0.931 . S
C1033 C1032 1.370 . S
C1033 C1037 1.408 . S
C1034 C1032 1.363 . S
C1034 C1035 1.370 . S
C1034 C1038 1.524 . S
C1035 C1027 1.503 . S
C1035 C1034 1.370 . S
C1035 C1036 1.403 . S
C1036 C1035 1.403 . S
C1036 C1037 1.404 . S
C1036 C1039 1.539 . S
C1037 C1033 1.408 . S
C1037 C1036 1.404 . S
C1037 H1049 0.930 . S
C1038 C1034 1.524 . S
C1038 H1050 0.956 . S
C1038 H1051 0.961 . S
C1038 H1052 0.961 . S
C1039 C1036 1.539 . S
C1039 H1053 0.958 . S
C1039 H1054 0.961 . S
C1039 H1055 0.960 . S
H1040 C1024 0.931 . S
H1041 C1029 0.929 . S
H1042 C1030 0.960 . S
H1043 C1030 0.962 . S
H1044 C1030 0.960 . S
H1045 C1031 0.961 . S
H1046 C1031 0.961 . S
H1047 C1031 0.961 . S
H1048 C1032 0.931 . S
H1049 C1037 0.930 . S
H1050 C1038 0.956 . S
H1051 C1038 0.961 . S
H1052 C1038 0.961 . S
H1053 C1039 0.958 . S
H1054 C1039 0.961 . S
H1055 C1039 0.960 . S
C1056 C1057 1.391 . S
C1056 C1058 1.394 . S
C1056 H1072 0.931 . S
C1057 C1056 1.391 . S
C1057 C1061 1.376 . S
C1058 C1056 1.394 . S
C1058 C1059 1.369 . S
C1058 C1062 1.531 . S
C1059 C1058 1.369 . S
C1059 C1060 1.410 . S
C1059 C1067 1.503 . S
C1060 C1059 1.410 . S
C1060 C1061 1.392 . S
C1060 C1063 1.511 . S
C1061 C1057 1.376 . S
C1061 C1060 1.392 . S
C1061 H1073 0.929 . S
C1062 C1058 1.531 . S
C1062 H1074 0.960 . S
C1062 H1075 0.962 . S
C1062 H1076 0.960 . S
C1063 C1060 1.511 . S
C1063 H1077 0.961 . S
C1063 H1078 0.961 . S
C1063 H1079 0.961 . S
C1064 C1065 1.370 . S
C1064 C1066 1.363 . S
C1064 H1080 0.931 . S
C1065 C1064 1.370 . S
C1065 C1069 1.408 . S
C1066 C1064 1.363 . S
C1066 C1067 1.370 . S
C1066 C1070 1.524 . S
C1067 C1059 1.503 . S
C1067 C1066 1.370 . S
C1067 C1068 1.403 . S
C1068 C1067 1.403 . S
C1068 C1069 1.404 . S
C1068 C1071 1.539 . S
C1069 C1065 1.408 . S
C1069 C1068 1.404 . S
C1069 H1081 0.930 . S
C1070 C1066 1.524 . S
C1070 H1082 0.956 . S
C1070 H1083 0.961 . S
C1070 H1084 0.961 . S
C1071 C1068 1.539 . S
C1071 H1085 0.958 . S
C1071 H1086 0.961 . S
C1071 H1087 0.960 . S
H1072 C1056 0.931 . S
H1073 C1061 0.929 . S
H1074 C1062 0.960 . S
H1075 C1062 0.962 . S
H1076 C1062 0.960 . S
H1077 C1063 0.961 . S
H1078 C1063 0.961 . S
H1079 C1063 0.961 . S
H1080 C1064 0.931 . S
H1081 C1069 0.930 . S
H1082 C1070 0.956 . S
H1083 C1070 0.961 . S
H1084 C1070 0.961 . S
H1085 C1071 0.958 . S
H1086 C1071 0.961 . S
H1087 C1071 0.960 . S
C1088 C1089 1.391 . S
C1088 C1090 1.394 . S
C1088 H1104 0.931 . S
C1089 C1088 1.391 . S
C1089 C1093 1.376 . S
C1090 C1088 1.394 . S
C1090 C1091 1.369 . S
C1090 C1094 1.531 . S
C1091 C1090 1.369 . S
C1091 C1092 1.410 . S
C1091 C1099 1.503 . S
C1092 C1091 1.410 . S
C1092 C1093 1.392 . S
C1092 C1095 1.511 . S
C1093 C1089 1.376 . S
C1093 C1092 1.392 . S
C1093 H1105 0.929 . S
C1094 C1090 1.531 . S
C1094 H1106 0.960 . S
C1094 H1107 0.962 . S
C1094 H1108 0.960 . S
C1095 C1092 1.511 . S
C1095 H1109 0.961 . S
C1095 H1110 0.961 . S
C1095 H1111 0.961 . S
C1096 C1097 1.370 . S
C1096 C1098 1.363 . S
C1096 H1112 0.931 . S
C1097 C1096 1.370 . S
C1097 C1101 1.408 . S
C1098 C1096 1.363 . S
C1098 C1099 1.370 . S
C1098 C1102 1.524 . S
C1099 C1091 1.503 . S
C1099 C1098 1.370 . S
C1099 C1100 1.403 . S
C1100 C1099 1.403 . S
C1100 C1101 1.404 . S
C1100 C1103 1.539 . S
C1101 C1097 1.408 . S
C1101 C1100 1.404 . S
C1101 H1113 0.930 . S
C1102 C1098 1.524 . S
C1102 H1114 0.956 . S
C1102 H1115 0.961 . S
C1102 H1116 0.961 . S
C1103 C1100 1.539 . S
C1103 H1117 0.958 . S
C1103 H1118 0.961 . S
C1103 H1119 0.960 . S
H1104 C1088 0.931 . S
H1105 C1093 0.929 . S
H1106 C1094 0.960 . S
H1107 C1094 0.962 . S
H1108 C1094 0.960 . S
H1109 C1095 0.961 . S
H1110 C1095 0.961 . S
H1111 C1095 0.961 . S
H1112 C1096 0.931 . S
H1113 C1101 0.930 . S
H1114 C1102 0.956 . S
H1115 C1102 0.961 . S
H1116 C1102 0.961 . S
H1117 C1103 0.958 . S
H1118 C1103 0.961 . S
H1119 C1103 0.960 . S
C1120 C1121 1.391 . S
C1120 C1122 1.394 . S
C1120 H1136 0.931 . S
C1121 C1120 1.391 . S
C1121 C1125 1.376 . S
C1122 C1120 1.394 . S
C1122 C1123 1.369 . S
C1122 C1126 1.531 . S
C1123 C1122 1.369 . S
C1123 C1124 1.410 . S
C1123 C1131 1.503 . S
C1124 C1123 1.410 . S
C1124 C1125 1.392 . S
C1124 C1127 1.511 . S
C1125 C1121 1.376 . S
C1125 C1124 1.392 . S
C1125 H1137 0.929 . S
C1126 C1122 1.531 . S
C1126 H1138 0.960 . S
C1126 H1139 0.962 . S
C1126 H1140 0.960 . S
C1127 C1124 1.511 . S
C1127 H1141 0.961 . S
C1127 H1142 0.961 . S
C1127 H1143 0.961 . S
C1128 C1129 1.370 . S
C1128 C1130 1.363 . S
C1128 H1144 0.931 . S
C1129 C1128 1.370 . S
C1129 C1133 1.408 . S
C1130 C1128 1.363 . S
C1130 C1131 1.370 . S
C1130 C1134 1.524 . S
C1131 C1123 1.503 . S
C1131 C1130 1.370 . S
C1131 C1132 1.403 . S
C1132 C1131 1.403 . S
C1132 C1133 1.404 . S
C1132 C1135 1.539 . S
C1133 C1129 1.408 . S
C1133 C1132 1.404 . S
C1133 H1145 0.930 . S
C1134 C1130 1.524 . S
C1134 H1146 0.956 . S
C1134 H1147 0.961 . S
C1134 H1148 0.961 . S
C1135 C1132 1.539 . S
C1135 H1149 0.958 . S
C1135 H1150 0.961 . S
C1135 H1151 0.960 . S
H1136 C1120 0.931 . S
H1137 C1125 0.929 . S
H1138 C1126 0.960 . S
H1139 C1126 0.962 . S
H1140 C1126 0.960 . S
H1141 C1127 0.961 . S
H1142 C1127 0.961 . S
H1143 C1127 0.961 . S
H1144 C1128 0.931 . S
H1145 C1133 0.930 . S
H1146 C1134 0.956 . S
H1147 C1134 0.961 . S
H1148 C1134 0.961 . S
H1149 C1135 0.958 . S
H1150 C1135 0.961 . S
H1151 C1135 0.960 . S
C1152 C1153 1.391 . S
C1152 C1154 1.394 . S
C1152 H1168 0.931 . S
C1153 C1152 1.391 . S
C1153 C1157 1.376 . S
C1154 C1152 1.394 . S
C1154 C1155 1.369 . S
C1154 C1158 1.531 . S
C1155 C1154 1.369 . S
C1155 C1156 1.410 . S
C1155 C1163 1.503 . S
C1156 C1155 1.410 . S
C1156 C1157 1.392 . S
C1156 C1159 1.511 . S
C1157 C1153 1.376 . S
C1157 C1156 1.392 . S
C1157 H1169 0.929 . S
C1158 C1154 1.531 . S
C1158 H1170 0.960 . S
C1158 H1171 0.962 . S
C1158 H1172 0.960 . S
C1159 C1156 1.511 . S
C1159 H1173 0.961 . S
C1159 H1174 0.961 . S
C1159 H1175 0.961 . S
C1160 C1161 1.370 . S
C1160 C1162 1.363 . S
C1160 H1176 0.931 . S
C1161 C1160 1.370 . S
C1161 C1165 1.408 . S
C1162 C1160 1.363 . S
C1162 C1163 1.370 . S
C1162 C1166 1.524 . S
C1163 C1155 1.503 . S
C1163 C1162 1.370 . S
C1163 C1164 1.403 . S
C1164 C1163 1.403 . S
C1164 C1165 1.404 . S
C1164 C1167 1.539 . S
C1165 C1161 1.408 . S
C1165 C1164 1.404 . S
C1165 H1177 0.930 . S
C1166 C1162 1.524 . S
C1166 H1178 0.956 . S
C1166 H1179 0.961 . S
C1166 H1180 0.961 . S
C1167 C1164 1.539 . S
C1167 H1181 0.958 . S
C1167 H1182 0.961 . S
C1167 H1183 0.960 . S
H1168 C1152 0.931 . S
H1169 C1157 0.929 . S
H1170 C1158 0.960 . S
H1171 C1158 0.962 . S
H1172 C1158 0.960 . S
H1173 C1159 0.961 . S
H1174 C1159 0.961 . S
H1175 C1159 0.961 . S
H1176 C1160 0.931 . S
H1177 C1165 0.930 . S
H1178 C1166 0.956 . S
H1179 C1166 0.961 . S
H1180 C1166 0.961 . S
H1181 C1167 0.958 . S
H1182 C1167 0.961 . S
H1183 C1167 0.960 . S
C1184 C1185 1.391 . S
C1184 C1186 1.394 . S
C1184 H1200 0.931 . S
C1185 C1184 1.391 . S
C1185 C1189 1.376 . S
C1186 C1184 1.394 . S
C1186 C1187 1.369 . S
C1186 C1190 1.531 . S
C1187 C1186 1.369 . S
C1187 C1188 1.410 . S
C1187 C1195 1.503 . S
C1188 C1187 1.410 . S
C1188 C1189 1.392 . S
C1188 C1191 1.511 . S
C1189 C1185 1.376 . S
C1189 C1188 1.392 . S
C1189 H1201 0.929 . S
C1190 C1186 1.531 . S
C1190 H1202 0.960 . S
C1190 H1203 0.962 . S
C1190 H1204 0.960 . S
C1191 C1188 1.511 . S
C1191 H1205 0.961 . S
C1191 H1206 0.961 . S
C1191 H1207 0.961 . S
C1192 C1193 1.370 . S
C1192 C1194 1.363 . S
C1192 H1208 0.931 . S
C1193 C1192 1.370 . S
C1193 C1197 1.408 . S
C1194 C1192 1.363 . S
C1194 C1195 1.370 . S
C1194 C1198 1.524 . S
C1195 C1187 1.503 . S
C1195 C1194 1.370 . S
C1195 C1196 1.403 . S
C1196 C1195 1.403 . S
C1196 C1197 1.404 . S
C1196 C1199 1.539 . S
C1197 C1193 1.408 . S
C1197 C1196 1.404 . S
C1197 H1209 0.930 . S
C1198 C1194 1.524 . S
C1198 H1210 0.956 . S
C1198 H1211 0.961 . S
C1198 H1212 0.961 . S
C1199 C1196 1.539 . S
C1199 H1213 0.958 . S
C1199 H1214 0.961 . S
C1199 H1215 0.960 . S
H1200 C1184 0.931 . S
H1201 C1189 0.929 . S
H1202 C1190 0.960 . S
H1203 C1190 0.962 . S
H1204 C1190 0.960 . S
H1205 C1191 0.961 . S
H1206 C1191 0.961 . S
H1207 C1191 0.961 . S
H1208 C1192 0.931 . S
H1209 C1197 0.930 . S
H1210 C1198 0.956 . S
H1211 C1198 0.961 . S
H1212 C1198 0.961 . S
H1213 C1199 0.958 . S
H1214 C1199 0.961 . S
H1215 C1199 0.960 . S
C1216 C1217 1.391 . S
C1216 C1218 1.394 . S
C1216 H1232 0.931 . S
C1217 C1216 1.391 . S
C1217 C1221 1.376 . S
C1218 C1216 1.394 . S
C1218 C1219 1.369 . S
C1218 C1222 1.531 . S
C1219 C1218 1.369 . S
C1219 C1220 1.410 . S
C1219 C1227 1.503 . S
C1220 C1219 1.410 . S
C1220 C1221 1.392 . S
C1220 C1223 1.511 . S
C1221 C1217 1.376 . S
C1221 C1220 1.392 . S
C1221 H1233 0.929 . S
C1222 C1218 1.531 . S
C1222 H1234 0.960 . S
C1222 H1235 0.962 . S
C1222 H1236 0.960 . S
C1223 C1220 1.511 . S
C1223 H1237 0.961 . S
C1223 H1238 0.961 . S
C1223 H1239 0.961 . S
C1224 C1225 1.370 . S
C1224 C1226 1.363 . S
C1224 H1240 0.931 . S
C1225 C1224 1.370 . S
C1225 C1229 1.408 . S
C1226 C1224 1.363 . S
C1226 C1227 1.370 . S
C1226 C1230 1.524 . S
C1227 C1219 1.503 . S
C1227 C1226 1.370 . S
C1227 C1228 1.403 . S
C1228 C1227 1.403 . S
C1228 C1229 1.404 . S
C1228 C1231 1.539 . S
C1229 C1225 1.408 . S
C1229 C1228 1.404 . S
C1229 H1241 0.930 . S
C1230 C1226 1.524 . S
C1230 H1242 0.956 . S
C1230 H1243 0.961 . S
C1230 H1244 0.961 . S
C1231 C1228 1.539 . S
C1231 H1245 0.958 . S
C1231 H1246 0.961 . S
C1231 H1247 0.960 . S
H1232 C1216 0.931 . S
H1233 C1221 0.929 . S
H1234 C1222 0.960 . S
H1235 C1222 0.962 . S
H1236 C1222 0.960 . S
H1237 C1223 0.961 . S
H1238 C1223 0.961 . S
H1239 C1223 0.961 . S
H1240 C1224 0.931 . S
H1241 C1229 0.930 . S
H1242 C1230 0.956 . S
H1243 C1230 0.961 . S
H1244 C1230 0.961 . S
H1245 C1231 0.958 . S
H1246 C1231 0.961 . S
H1247 C1231 0.960 . S
C225 C221 1.016 . S
C233 C11 1.032 . S
C257 C179 1.050 . S
C265 C25 1.038 . S
C289 C39 1.017 . S
C297 C193 1.034 . S
C321 C207 1.016 . S
C329 C53 1.032 . S
C353 C137 1.056 . S
C361 C67 1.043 . S
C385 C81 1.018 . S
C393 C151 1.036 . S
C417 C95 1.024 . S
C425 C165 1.040 . S
C449 C109 1.051 . S
C457 C123 1.039 . S
C481 C79 1.455 . S
C489 C5 1.481 . S
C513 C89 1.476 . S
C521 C23 1.447 . S
C545 C107 1.431 . S
C553 C33 1.481 . S
C577 C51 1.461 . S
C585 C61 1.482 . S
C609 C0 1.551 . S
C617 C14 1.532 . S
C641 C37 1.432 . S
C649 C19 1.481 . S
C673 C28 1.498 . S
C681 C42 1.522 . S
C705 C9 1.449 . S
C713 C47 1.481 . S
C737 C98 1.528 . S
C745 C56 1.539 . S
C769 C65 1.449 . S
C777 C75 1.481 . S
C801 C70 1.515 . S
C809 C84 1.535 . S
C833 C103 1.476 . S
C841 C93 1.445 . S
C865 C191 1.445 . S
C873 C117 1.480 . S
C897 C135 1.428 . S
C905 C201 1.481 . S
C929 C219 1.437 . S
C937 C145 1.480 . S
C961 C173 1.478 . S
C969 C163 1.460 . S
C993 C112 1.549 . S
C1001 C126 1.537 . S
C1025 C131 1.475 . S
C1033 C149 1.441 . S
C1057 C154 1.545 . S
C1065 C140 1.526 . S
C1089 C121 1.450 . S
C1097 C159 1.481 . S
C1121 C210 1.536 . S
C1129 C168 1.540 . S
C1153 C177 1.448 . S
C1161 C187 1.481 . S
C1185 C182 1.534 . S
C1193 C196 1.539 . S
C1217 C215 1.479 . S
C1225 C205 1.461 . S
