# Generated by pormake.
# Topology sra, (4)-cn, num edge types: 1
# Building blocks:
#     Node 0, Type 0, BuildingBlock: UXUYUI_clean_sbu_0, # of connection points: 4
#     Node 1, Type 0, BuildingBlock: UXUYUI_clean_sbu_0, # of connection points: 4
#     Node 2, Type 0, BuildingBlock: UXUYUI_clean_sbu_0, # of connection points: 4
#     Node 3, Type 0, BuildingBlock: UXUYUI_clean_sbu_0, # of connection points: 4
#     Node 4, Type 0, BuildingBlock: UXUYUI_clean_sbu_0, # of connection points: 4
#     Node 5, Type 0, BuildingBlock: UXUYUI_clean_sbu_0, # of connection points: 4
#     Node 6, Type 0, BuildingBlock: UXUYUI_clean_sbu_0, # of connection points: 4
#     Node 7, Type 0, BuildingBlock: UXUYUI_clean_sbu_0, # of connection points: 4
#     Edge 8, Type (0, 0), BuildingBlock: UVAHIK_clean_linker_0, # of connection points: 2
#     Edge 9, Type (0, 0), BuildingBlock: UVAHIK_clean_linker_0, # of connection points: 2
#     Edge 10, Type (0, 0), BuildingBlock: UVAHIK_clean_linker_0, # of connection points: 2
#     Edge 11, Type (0, 0), BuildingBlock: UVAHIK_clean_linker_0, # of connection points: 2
#     Edge 12, Type (0, 0), BuildingBlock: UVAHIK_clean_linker_0, # of connection points: 2
#     Edge 13, Type (0, 0), BuildingBlock: UVAHIK_clean_linker_0, # of connection points: 2
#     Edge 14, Type (0, 0), BuildingBlock: UVAHIK_clean_linker_0, # of connection points: 2
#     Edge 15, Type (0, 0), BuildingBlock: UVAHIK_clean_linker_0, # of connection points: 2
#     Edge 16, Type (0, 0), BuildingBlock: UVAHIK_clean_linker_0, # of connection points: 2
#     Edge 17, Type (0, 0), BuildingBlock: UVAHIK_clean_linker_0, # of connection points: 2
#     Edge 18, Type (0, 0), BuildingBlock: UVAHIK_clean_linker_0, # of connection points: 2
#     Edge 19, Type (0, 0), BuildingBlock: UVAHIK_clean_linker_0, # of connection points: 2
#     Edge 20, Type (0, 0), BuildingBlock: UVAHIK_clean_linker_0, # of connection points: 2
#     Edge 21, Type (0, 0), BuildingBlock: UVAHIK_clean_linker_0, # of connection points: 2
#     Edge 22, Type (0, 0), BuildingBlock: UVAHIK_clean_linker_0, # of connection points: 2
#     Edge 23, Type (0, 0), BuildingBlock: UVAHIK_clean_linker_0, # of connection points: 2
# Relax obj value: 0.133
# Max RMSD: 0.099
# Mean RMSD: 0.099
data_MOF--net-sra--node1-UXUYUI_clean_sbu_0--edge1-UVAHIK_clean_linker_0
_symmetry_space_group_name_H-M    P1
_symmetry_Int_Tables_number       1
_symmetry_cell_setting            triclinic
loop_
_symmetry_equiv_pos_as_xyz
'x, y, z'
_cell_length_a     45.357106
_cell_length_b     75.483709
_cell_length_c     75.320004
_cell_angle_alpha  90.025676
_cell_angle_beta   90.010165
_cell_angle_gamma 89.974862
loop_
_atom_site_label
_atom_site_type_symbol
_atom_site_fract_x
_atom_site_fract_y
_atom_site_fract_z
_atom_type_partial_charge
Li0 Li 0.99695 0.09348 0.15915 0.0
Li1 Li 0.02353 0.06791 0.1715 0.0
Li2 Li 0.99526 0.065 0.14283 0.0
Li3 Li 0.97044 0.06703 0.17159 0.0
C4 C 0.04857 0.08904 0.13733 0.0
N5 N 0.08607 0.10713 0.11479 0.0
C6 C 0.07677 0.09387 0.14303 0.0
C7 C 0.03967 0.09313 0.12004 0.0
C8 C 0.09533 0.1031 0.13148 0.0
C9 C 0.05888 0.10234 0.10888 0.0
C10 C 0.00941 0.0884 0.19961 0.0
C11 C 0.02605 0.07981 0.22879 0.0
N12 N 0.03735 0.09632 0.23123 0.0
C13 C 0.02097 0.10533 0.20247 0.0
C14 C 0.01173 0.07557 0.21292 0.0
C15 C 0.03509 0.10905 0.21853 0.0
C16 C 0.96931 0.12668 0.1582 0.0
N17 N 0.99606 0.11861 0.15717 0.0
C18 C 0.02021 0.14662 0.15447 0.0
C19 C 0.02131 0.12816 0.15549 0.0
C20 C 0.99288 0.15532 0.15543 0.0
C21 C 0.96719 0.14511 0.15731 0.0
H22 H 0.94962 0.11877 0.1598 0.0
H23 H 0.04236 0.12153 0.1553 0.0
C24 C 0.06543 0.04384 0.18572 0.0
N25 N 0.05852 0.06127 0.18373 0.0
C26 C 0.09092 0.0389 0.19491 0.0
C27 C 0.10145 0.06991 0.1999 0.0
C28 C 0.07616 0.07424 0.19034 0.0
C29 C 0.10904 0.05206 0.20228 0.0
H30 H 0.05116 0.0338 0.18016 0.0
H31 H 0.07053 0.08799 0.18822 0.0
C32 C 0.94442 0.08651 0.1361 0.0
N33 N 0.90899 0.09836 0.1087 0.0
C34 C 0.91532 0.08058 0.13465 0.0
C35 C 0.95532 0.09869 0.12378 0.0
C36 C 0.89781 0.08665 0.12066 0.0
C37 C 0.93712 0.10447 0.10998 0.0
C38 C 0.9838 0.03308 0.1682 0.0
C39 C 0.96803 0.02317 0.15572 0.0
C40 C 0.98472 0.02752 0.18588 0.0
C41 C 0.95304 0.00797 0.16122 0.0
C42 C 0.9694 0.01226 0.19087 0.0
N43 N 0.95399 0.00289 0.17854 0.0
C44 C 0.02148 0.04969 0.11275 0.0
C45 C 0.96936 0.05142 0.11119 0.0
C46 C 0.0227 0.04209 0.09587 0.0
N47 N 0.99511 0.05437 0.11994 0.0
C48 C 0.96956 0.04397 0.09423 0.0
C49 C 0.9965 0.03927 0.08634 0.0
H50 H 0.04159 0.052 0.12012 0.0
H51 H 0.94863 0.05468 0.1174 0.0
C52 C 0.9328 0.06601 0.20127 0.0
N53 N 0.93629 0.05997 0.18441 0.0
C54 C 0.90751 0.06177 0.21089 0.0
C55 C 0.88981 0.0451 0.18565 0.0
C56 C 0.91547 0.0497 0.17649 0.0
C57 C 0.8855 0.05126 0.20307 0.0
H58 H 0.94937 0.07445 0.20713 0.0
H59 H 0.91863 0.04524 0.16299 0.0
O60 O 0.03017 0.07994 0.14849 0.0
O61 O 0.99576 0.08447 0.1839 0.0
O62 O 0.96184 0.08064 0.14973 0.0
O63 O 0.9983 0.04811 0.16311 0.0
H64 H 0.08421 0.09064 0.15627 0.0
H65 H 0.01833 0.08904 0.11517 0.0
H66 H 0.11713 0.10704 0.13579 0.0
H67 H 0.05222 0.10562 0.09549 0.0
H68 H 0.02819 0.06997 0.23914 0.0
H69 H 0.01922 0.11545 0.19237 0.0
H70 H 0.00278 0.06245 0.21096 0.0
H71 H 0.04428 0.12207 0.22089 0.0
H72 H 0.04059 0.15401 0.15339 0.0
H73 H 0.94566 0.15129 0.158 0.0
H74 H 0.09621 0.02499 0.19647 0.0
H75 H 0.11519 0.08041 0.20516 0.0
H76 H 0.9064 0.0713 0.14417 0.0
H77 H 0.97743 0.10383 0.12497 0.0
H78 H 0.87533 0.08207 0.11931 0.0
H79 H 0.94531 0.11387 0.10034 0.0
H80 H 0.96719 0.02726 0.14197 0.0
H81 H 0.99702 0.03496 0.19567 0.0
H82 H 0.9406 0.00023 0.15174 0.0
H83 H 0.96976 0.00787 0.20453 0.0
H84 H 0.04393 0.0387 0.09022 0.0
H85 H 0.94883 0.04168 0.08746 0.0
H86 H 0.90487 0.06713 0.22414 0.0
H87 H 0.87352 0.03687 0.17913 0.0
Li88 Li -0.00084 0.43601 0.14265 0.0
Li89 Li 0.02451 0.43247 0.17032 0.0
Li90 Li 0.99476 0.40824 0.15917 0.0
Li91 Li 0.97152 0.43591 0.17215 0.0
C92 C 0.04539 0.41474 0.13336 0.0
N93 N 0.07549 0.40719 0.10238 0.0
C94 C 0.07395 0.42121 0.1308 0.0
C95 C 0.03225 0.4043 0.12024 0.0
C96 C 0.08877 0.41728 0.11503 0.0
C97 C 0.04779 0.40067 0.10465 0.0
C98 C 0.01637 0.46826 0.16532 0.0
C99 C 0.02269 0.49671 0.17937 0.0
N100 N 0.0489 0.49868 0.17082 0.0
C101 C 0.04332 0.47057 0.15666 0.0
C102 C 0.0059 0.48141 0.17677 0.0
C103 C 0.05947 0.48604 0.15963 0.0
C104 C 0.97262 0.44764 0.11098 0.0
N105 N -0.00105 0.44614 0.11948 0.0
C106 C 0.02409 0.45871 0.09462 0.0
C107 C 0.02439 0.45172 0.11175 0.0
C108 C 0.99728 0.46019 0.08541 0.0
C109 C 0.97126 0.45465 0.09385 0.0
H110 H 0.95264 0.44334 0.1175 0.0
H111 H 0.04498 0.45077 0.11883 0.0
C112 C 0.08195 0.42443 0.18027 0.0
N113 N 0.06054 0.43677 0.18277 0.0
C114 C 0.10872 0.42577 0.18925 0.0
C115 C 0.09114 0.45261 0.20317 0.0
C116 C 0.06445 0.45057 0.19414 0.0
C117 C 0.11378 0.44008 0.20082 0.0
H118 H 0.07793 0.4133 0.17156 0.0
H119 H 0.04678 0.45989 0.19641 0.0
C120 C 0.93991 0.41319 0.14294 0.0
N121 N 0.89435 0.3925 0.13017 0.0
C122 C 0.91446 0.41072 0.15311 0.0
C123 C 0.942 0.40535 0.12618 0.0
C124 C 0.89171 0.40015 0.14645 0.0
C125 C 0.91879 0.39487 0.11999 0.0
C126 C 0.01097 0.41482 0.19906 0.0
C127 C 0.02916 0.39997 0.20076 0.0
C128 C 0.00949 0.42721 0.21283 0.0
C129 C 0.04585 0.39784 0.2162 0.0
C130 C 0.02652 0.42459 0.22806 0.0
N131 N 0.04422 0.4101 0.22941 0.0
C132 C 0.01636 0.37385 0.15338 0.0
C133 C 0.96584 0.37474 0.16129 0.0
C134 C 0.01563 0.3554 0.15242 0.0
N135 N 0.99161 0.38312 0.15755 0.0
C136 C 0.96404 0.35629 0.16037 0.0
C137 C 0.98917 0.34635 0.15588 0.0
H138 H 0.03685 0.38078 0.15108 0.0
H139 H 0.94675 0.38232 0.1652 0.0
C140 C 0.92337 0.4588 0.17882 0.0
N141 N 0.93871 0.44457 0.18487 0.0
C142 C 0.89778 0.4643 0.18758 0.0
C143 C 0.9048 0.44057 0.20874 0.0
C144 C 0.93014 0.43553 0.19956 0.0
C145 C 0.88806 0.45503 0.20267 0.0
H146 H 0.93072 0.46566 0.16701 0.0
H147 H 0.94258 0.42409 0.20388 0.0
O148 O 0.03048 0.41856 0.14867 0.0
O149 O 0.00027 0.45319 0.1627 0.0
O150 O 0.96234 0.42354 0.14923 0.0
O151 O 0.9952 0.41742 0.18383 0.0
H152 H 0.08442 0.42935 0.14081 0.0
H153 H 0.01035 0.39901 0.12211 0.0
H154 H 0.11081 0.42228 0.11282 0.0
H155 H 0.03785 0.39264 0.09437 0.0
H156 H 0.0149 0.507 0.1882 0.0
H157 H 0.05196 0.46035 0.14805 0.0
H158 H 0.98507 0.47977 0.18359 0.0
H159 H 0.08047 0.48796 0.15311 0.0
H160 H 0.04459 0.46312 0.08872 0.0
H161 H 0.95014 0.45549 0.08718 0.0
H162 H 0.12501 0.41545 0.18736 0.0
H163 H 0.09393 0.46392 0.21184 0.0
H164 H 0.91237 0.41676 0.16606 0.0
H165 H 0.96124 0.40741 0.11797 0.0
H166 H 0.87197 0.39803 0.15422 0.0
H167 H 0.92016 0.38867 0.10706 0.0
H168 H 0.03062 0.39032 0.19016 0.0
H169 H 0.99567 0.43884 0.21163 0.0
H170 H 0.06018 0.38648 0.21766 0.0
H171 H 0.02578 0.43413 0.23877 0.0
H172 H 0.03575 0.3483 0.14936 0.0
H173 H 0.94315 0.34992 0.1631 0.0
H174 H 0.88563 0.47558 0.18253 0.0
H175 H 0.89784 0.43283 0.22009 0.0
Li176 Li 0.99776 0.93423 0.85556 0.0
Li177 Li 0.97156 0.93115 0.82734 0.0
Li178 Li -0.00019 0.90566 0.84075 0.0
Li179 Li 0.02603 0.93059 0.82682 0.0
C180 C 0.94556 0.91835 0.86402 0.0
N181 N 0.90798 0.91925 0.89288 0.0
C182 C 0.91896 0.92765 0.86303 0.0
C183 C 0.95282 0.90928 0.87959 0.0
C184 C 0.90031 0.92801 0.87779 0.0
C185 C 0.9336 0.90996 0.89406 0.0
C186 C 0.99173 0.96636 0.82779 0.0
C187 C 0.99122 0.98751 0.8038 0.0
N188 N 0.97605 0.99906 0.81423 0.0
C189 C 0.97654 0.97854 0.83837 0.0
C190 C -0.00051 0.97097 0.81044 0.0
C191 C 0.96864 0.99495 0.83124 0.0
C192 C 0.0228 0.94505 0.88798 0.0
N193 N 0.99777 0.94569 0.87809 0.0
C194 C 0.97317 0.96224 0.90073 0.0
C195 C 0.97332 0.95428 0.88401 0.0
C196 C -0.00141 0.96159 0.9114 0.0
C197 C 0.02372 0.95294 0.90473 0.0
H198 H 0.04215 0.93845 0.88283 0.0
H199 H 0.95388 0.95493 0.87577 0.0
C200 C 0.92854 0.92539 0.8013 0.0
N201 N 0.937 0.93701 0.81412 0.0
C202 C 0.90334 0.9286 0.79121 0.0
C203 C 0.89514 0.95536 0.80814 0.0
C204 C 0.92076 0.95171 0.81779 0.0
C205 C 0.88627 0.94374 0.79458 0.0
H206 H 0.94118 0.91347 0.79904 0.0
H207 H 0.92728 0.96043 0.82844 0.0
C208 C 0.05171 0.90769 0.85839 0.0
N209 N 0.08848 0.88314 0.87423 0.0
C210 C 0.07835 0.90301 0.85032 0.0
C211 C 0.04402 0.9001 0.87466 0.0
C212 C 0.09657 0.89052 0.8585 0.0
C213 C 0.06282 0.88766 0.88242 0.0
C214 C 0.00311 0.91075 0.79808 0.0
C215 C 0.0123 0.89408 0.79217 0.0
C216 C -0.00125 0.92437 0.78581 0.0
C217 C 0.0175 0.89142 0.77409 0.0
C218 C 0.00415 0.92119 0.76783 0.0
N219 N 0.01338 0.90492 0.76239 0.0
C220 C 0.97731 0.87197 0.85035 0.0
C221 C 0.02503 0.87173 0.83756 0.0
C222 C 0.97744 0.85351 0.85159 0.0
N223 N 0.0009 0.88065 0.84342 0.0
C224 C 0.02624 0.8533 0.8387 0.0
C225 C 0.00211 0.84389 0.84564 0.0
H226 H 0.95814 0.87936 0.85457 0.0
H227 H 0.04319 0.87892 0.83172 0.0
C228 C 0.07256 0.95295 0.81479 0.0
N229 N 0.06054 0.93648 0.81378 0.0
C230 C 0.09845 0.95688 0.80549 0.0
C231 C 0.09886 0.92687 0.7943 0.0
C232 C 0.07328 0.92349 0.80394 0.0
C233 C 0.11202 0.94371 0.79509 0.0
H234 H 0.06224 0.96296 0.82298 0.0
H235 H 0.06387 0.91037 0.8038 0.0
O236 O 0.96418 0.91796 0.84973 0.0
O237 O -0.00026 0.95026 0.8346 0.0
O238 O 0.03345 0.91978 0.8505 0.0
O239 O 0.99814 0.9136 0.81578 0.0
H240 H 0.91285 0.93461 0.85105 0.0
H241 H 0.97302 0.90176 0.88048 0.0
H242 H 0.87974 0.93525 0.87725 0.0
H243 H 0.93903 0.90308 0.90622 0.0
H244 H 0.99699 0.99121 0.79036 0.0
H245 H 0.97067 0.9753 0.85189 0.0
H246 H 0.01205 0.96197 0.80224 0.0
H247 H 0.95664 0.00444 0.83923 0.0
H248 H 0.95318 0.96861 0.90533 0.0
H249 H 0.04402 0.95243 0.91228 0.0
H250 H 0.89688 0.9191 0.78115 0.0
H251 H 0.88247 0.96713 0.8112 0.0
H252 H 0.08483 0.90888 0.83784 0.0
H253 H 0.02379 0.90381 0.88125 0.0
H254 H 0.11715 0.88669 0.85234 0.0
H255 H 0.05705 0.88161 0.89496 0.0
H256 H 0.01553 0.88333 0.80146 0.0
H257 H 0.99092 0.93719 0.79008 0.0
H258 H 0.02479 0.87862 0.76934 0.0
H259 H 0.00089 0.93163 0.75819 0.0
H260 H 0.9581 0.84684 0.85672 0.0
H261 H 0.04586 0.84653 0.83412 0.0
H262 H 0.10799 0.96997 0.80675 0.0
H263 H 0.10815 0.91634 0.78631 0.0
Li264 Li 0.9702 0.5657 0.82492 0.0
Li265 Li 0.99575 0.59119 0.83826 0.0
Li266 Li 0.02328 0.56541 0.82515 0.0
Li267 Li 0.99809 0.56225 0.85362 0.0
C268 C 0.98389 0.58744 0.79769 0.0
N269 N 0.95588 0.59648 0.7664 0.0
C270 C 0.9716 0.6043 0.79565 0.0
C271 C 0.98225 0.57525 0.78375 0.0
C272 C 0.95746 0.6086 0.77974 0.0
C273 C 0.96789 0.58005 0.76806 0.0
C274 C 0.9439 0.58552 0.85956 0.0
C275 C 0.93302 0.59835 0.88816 0.0
N276 N 0.90551 0.6026 0.88236 0.0
C277 C 0.91539 0.58982 0.85396 0.0
C278 C 0.95269 0.58965 0.87686 0.0
C279 C 0.89637 0.59853 0.86566 0.0
C280 C 0.92946 0.54156 0.80972 0.0
N281 N 0.93565 0.559 0.8123 0.0
C282 C 0.89245 0.56755 0.79634 0.0
C283 C 0.91754 0.57193 0.80607 0.0
C284 C 0.88558 0.54968 0.79337 0.0
C285 C 0.90422 0.53655 0.80032 0.0
H286 H 0.94409 0.53155 0.815 0.0
H287 H 0.92258 0.58567 0.80866 0.0
C288 C 0.02243 0.62455 0.83946 0.0
N289 N 0.99597 0.61625 0.84105 0.0
C290 C 0.02426 0.64296 0.84081 0.0
C291 C 0.97154 0.64397 0.84542 0.0
C292 C 0.97072 0.62555 0.84385 0.0
C293 C -0.00144 0.6529 0.84382 0.0
H294 H 0.04212 0.61682 0.83703 0.0
H295 H 0.94984 0.61877 0.84451 0.0
C296 C 0.01077 0.53126 0.8271 0.0
N297 N 0.04129 0.50179 0.81545 0.0
C298 C 0.02649 0.52084 0.83917 0.0
C299 C 0.01026 0.52658 0.80915 0.0
C300 C 0.04185 0.50601 0.833 0.0
C301 C 0.02593 0.51167 0.80351 0.0
C302 C 0.04813 0.58383 0.86148 0.0
C303 C 0.07702 0.57759 0.86318 0.0
C304 C 0.03709 0.59585 0.87393 0.0
C305 C 0.09414 0.58317 0.87755 0.0
C306 C 0.0549 0.60114 0.8881 0.0
N307 N 0.08281 0.59472 0.88962 0.0
C308 C 0.06141 0.56589 0.79572 0.0
C309 C 0.0787 0.54867 0.81987 0.0
C310 C 0.08689 0.56219 0.78604 0.0
N311 N 0.05781 0.55913 0.81229 0.0
C312 C 0.10455 0.54459 0.81066 0.0
C313 C 0.10897 0.55147 0.79353 0.0
H314 H 0.04476 0.57446 0.79013 0.0
H315 H 0.07542 0.54362 0.83315 0.0
C316 C 0.97185 0.54674 0.88359 0.0
N317 N 0.99823 0.55096 0.87617 0.0
C318 C 0.97072 0.5388 0.9003 0.0
C319 C 0.02399 0.53918 0.90118 0.0
C320 C 0.02407 0.54711 0.88445 0.0
C321 C 0.99704 0.53501 0.90938 0.0
H322 H 0.95165 0.54962 0.87652 0.0
H323 H 0.04476 0.55011 0.87807 0.0
O324 O 0.99761 0.58295 0.81323 0.0
O325 O 0.96278 0.57698 0.84824 0.0
O326 O 0.99592 0.54595 0.83284 0.0
O327 O 0.03111 0.57847 0.84746 0.0
H328 H 0.9728 0.61393 0.80625 0.0
H329 H 0.99178 0.56219 0.78508 0.0
H330 H 0.94772 0.62157 0.778 0.0
H331 H 0.96628 0.5707 0.75721 0.0
H332 H 0.93958 0.60165 0.90157 0.0
H333 H 0.90806 0.58656 0.84071 0.0
H334 H 0.9743 0.58599 0.88162 0.0
H335 H 0.87432 0.60204 0.86145 0.0
H336 H 0.87828 0.57802 0.79143 0.0
H337 H 0.89951 0.52263 0.79832 0.0
H338 H 0.04554 0.64934 0.83957 0.0
H339 H 0.95116 0.65118 0.84741 0.0
H340 H 0.02701 0.52423 0.85311 0.0
H341 H 0.99801 0.53442 0.79967 0.0
H342 H 0.05426 0.49788 0.84217 0.0
H343 H 0.02589 0.50795 0.78963 0.0
H344 H 0.08608 0.56844 0.85357 0.0
H345 H 0.01516 0.60123 0.87256 0.0
H346 H 0.11645 0.57834 0.87909 0.0
H347 H 0.04658 0.61041 0.89784 0.0
H348 H 0.08959 0.56808 0.77304 0.0
H349 H 0.12089 0.53618 0.81689 0.0
H350 H 0.94947 0.5355 0.90596 0.0
H351 H 0.04482 0.53657 0.90771 0.0
Li352 Li 0.52458 0.56705 0.67314 0.0
Li353 Li 0.49795 0.59319 0.65947 0.0
Li354 Li 0.47186 0.56785 0.67019 0.0
Li355 Li 0.49873 0.56491 0.64296 0.0
C356 C 0.47876 0.58793 0.69806 0.0
N357 N 0.4396 0.59453 0.72539 0.0
C358 C 0.45788 0.60146 0.69648 0.0
C359 C 0.47975 0.57777 0.71356 0.0
C360 C 0.43827 0.60458 0.71044 0.0
C361 C 0.45977 0.58131 0.72723 0.0
C362 C 0.5563 0.58925 0.64427 0.0
C363 C 0.58263 0.60382 0.6206 0.0
N364 N 0.60427 0.60836 0.63224 0.0
C365 C 0.57899 0.59386 0.65596 0.0
C366 C 0.55829 0.59408 0.6264 0.0
C367 C 0.60298 0.6036 0.64964 0.0
C368 C 0.57947 0.55025 0.6778 0.0
N369 N 0.55831 0.55995 0.68607 0.0
C370 C 0.58673 0.56094 0.71271 0.0
C371 C 0.56146 0.56536 0.70315 0.0
C372 C 0.60943 0.55125 0.70447 0.0
C373 C 0.60541 0.54579 0.68676 0.0
H374 H 0.57645 0.54635 0.66409 0.0
H375 H 0.54458 0.57337 0.70928 0.0
C376 C 0.47379 0.62748 0.65316 0.0
N377 N 0.4987 0.61853 0.65774 0.0
C378 C 0.47381 0.64596 0.65234 0.0
C379 C 0.52498 0.64577 0.66121 0.0
C380 C 0.52387 0.62731 0.66201 0.0
C381 C 0.49969 0.65539 0.65636 0.0
H382 H 0.45369 0.62028 0.65045 0.0
H383 H 0.54302 0.62003 0.66631 0.0
C384 C 0.48489 0.53289 0.66746 0.0
N385 N 0.45572 0.50197 0.67605 0.0
C386 C 0.45975 0.52787 0.65799 0.0
C387 C 0.49541 0.52213 0.68116 0.0
C388 C 0.44524 0.5122 0.66259 0.0
C389 C 0.48029 0.50655 0.68533 0.0
C390 C 0.45438 0.58744 0.63206 0.0
C391 C 0.42574 0.58366 0.62632 0.0
C392 C 0.47291 0.59764 0.62135 0.0
C393 C 0.41611 0.59023 0.60998 0.0
C394 C 0.46245 0.60399 0.60511 0.0
N395 N 0.43451 0.60018 0.5998 0.0
C396 C 0.41106 0.56938 0.67647 0.0
C397 C 0.43583 0.54944 0.69565 0.0
C398 C 0.38425 0.56583 0.68479 0.0
N399 N 0.43611 0.56114 0.68192 0.0
C400 C 0.4095 0.54556 0.70442 0.0
C401 C 0.38326 0.55382 0.699 0.0
H402 H 0.41204 0.57904 0.66592 0.0
H403 H 0.45613 0.54343 0.70009 0.0
C404 C 0.52802 0.55129 0.61282 0.0
N405 N 0.50112 0.55426 0.62019 0.0
C406 C 0.53021 0.54379 0.5959 0.0
C407 C 0.47698 0.54243 0.59463 0.0
C408 C 0.47585 0.54975 0.61161 0.0
C409 C 0.50442 0.53944 0.58655 0.0
H410 H 0.54776 0.55481 0.62005 0.0
H411 H 0.45478 0.55182 0.61796 0.0
O412 O 0.49763 0.58442 0.68431 0.0
O413 O 0.53277 0.57956 0.65021 0.0
O414 O 0.49932 0.5482 0.66328 0.0
O415 O 0.46444 0.5806 0.64777 0.0
H416 H 0.45656 0.60932 0.68453 0.0
H417 H 0.49525 0.56696 0.71489 0.0
H418 H 0.42191 0.61496 0.70935 0.0
H419 H 0.46013 0.57346 0.73924 0.0
H420 H 0.58438 0.60771 0.60682 0.0
H421 H 0.57791 0.59021 0.66982 0.0
H422 H 0.54137 0.59026 0.61703 0.0
H423 H 0.62055 0.6074 0.65857 0.0
H424 H 0.58847 0.56522 0.72639 0.0
H425 H 0.6224 0.53859 0.6797 0.0
H426 H 0.45356 0.65277 0.64898 0.0
H427 H 0.54549 0.65239 0.66436 0.0
H428 H 0.45134 0.5361 0.64738 0.0
H429 H 0.51492 0.52585 0.68856 0.0
H430 H 0.42562 0.5082 0.65547 0.0
H431 H 0.48807 0.49812 0.69596 0.0
H432 H 0.41123 0.57551 0.63426 0.0
H433 H 0.49506 0.60068 0.62558 0.0
H434 H 0.39405 0.58734 0.60535 0.0
H435 H 0.47657 0.61194 0.59672 0.0
H436 H 0.36464 0.57279 0.68045 0.0
H437 H 0.40969 0.53622 0.71533 0.0
H438 H 0.55176 0.54169 0.59008 0.0
H439 H 0.45663 0.53896 0.58796 0.0
Li440 Li 0.49778 0.93665 0.64204 0.0
Li441 Li 0.52334 0.93371 0.66966 0.0
Li442 Li 0.4974 0.9086 0.65901 0.0
Li443 Li 0.47077 0.93527 0.67183 0.0
C444 C 0.54018 0.9124 0.63216 0.0
N445 N 0.55767 0.89621 0.60097 0.0
C446 C 0.5695 0.91351 0.62656 0.0
C447 C 0.51977 0.90309 0.62187 0.0
C448 C 0.57791 0.90524 0.61075 0.0
C449 C 0.52903 0.89497 0.60617 0.0
C450 C 0.51233 0.96885 0.66554 0.0
C451 C 0.5183 0.99603 0.68194 0.0
N452 N 0.54325 -0.00044 0.67256 0.0
C453 C 0.53787 0.97278 0.65596 0.0
C454 C 0.50231 0.98058 0.67857 0.0
C455 C 0.55326 0.98836 0.65975 0.0
C456 C 0.46945 0.95056 0.61188 0.0
N457 N 0.49622 0.94694 0.61912 0.0
C458 C 0.52077 0.95795 0.59335 0.0
C459 C 0.52165 0.95058 0.61033 0.0
C460 C 0.49342 0.96162 0.58538 0.0
C461 C 0.46752 0.95786 0.59488 0.0
H462 H 0.4496 0.94778 0.61932 0.0
H463 H 0.54265 0.94774 0.61648 0.0
C464 C 0.5832 0.93013 0.6771 0.0
N465 N 0.55919 0.93989 0.68165 0.0
C466 C 0.61017 0.93294 0.68552 0.0
C467 C 0.58731 0.95579 0.70328 0.0
C468 C 0.56071 0.9525 0.69453 0.0
C469 C 0.61252 0.94592 0.69882 0.0
H470 H 0.58123 0.91985 0.66719 0.0
H471 H 0.54118 0.95977 0.6983 0.0
C472 C 0.43843 0.91367 0.64338 0.0
N473 N 0.38781 0.89674 0.63196 0.0
C474 C 0.41623 0.90932 0.6555 0.0
C475 C 0.4347 0.90957 0.62541 0.0
C476 C 0.39085 0.90073 0.64948 0.0
C477 C 0.40902 0.90095 0.61992 0.0
C478 C 0.51321 0.91609 0.69867 0.0
C479 C 0.5342 0.90259 0.69995 0.0
C480 C 0.50982 0.92809 0.71267 0.0
C481 C 0.55164 0.90139 0.71519 0.0
C482 C 0.52765 0.92642 0.72771 0.0
N483 N 0.54804 0.91324 0.72864 0.0
C484 C 0.52382 0.87492 0.65653 0.0
C485 C 0.47165 0.87393 0.65753 0.0
C486 C 0.52528 0.85645 0.65569 0.0
N487 N 0.49727 0.88327 0.65737 0.0
C488 C 0.47206 0.85546 0.65653 0.0
C489 C 0.49914 0.8465 0.65565 0.0
H490 H 0.54392 0.88261 0.65663 0.0
H491 H 0.45086 0.88071 0.65868 0.0
C492 C 0.41817 0.95459 0.67588 0.0
N493 N 0.43669 0.943 0.68403 0.0
C494 C 0.39166 0.95943 0.684 0.0
C495 C 0.40433 0.9407 0.70891 0.0
C496 C 0.43037 0.93606 0.70023 0.0
C497 C 0.38444 0.95237 0.70069 0.0
H498 H 0.42372 0.95973 0.6629 0.0
H499 H 0.44514 0.92652 0.70617 0.0
O500 O 0.5316 0.92075 0.64745 0.0
O501 O 0.49703 0.95365 0.66212 0.0
O502 O 0.46327 0.92232 0.64901 0.0
O503 O 0.49643 0.91771 0.68367 0.0
H504 H 0.58556 0.92082 0.63426 0.0
H505 H 0.49708 0.90206 0.62601 0.0
H506 H 0.60052 0.90603 0.60624 0.0
H507 H 0.51344 0.8877 0.59811 0.0
H508 H 0.51091 0.00521 0.69204 0.0
H509 H 0.54592 0.96378 0.64588 0.0
H510 H 0.4825 0.9777 0.68605 0.0
H511 H 0.57319 0.99153 0.65254 0.0
H512 H 0.54126 0.96051 0.58644 0.0
H513 H 0.44601 0.96072 0.58933 0.0
H514 H 0.62879 0.9247 0.68193 0.0
H515 H 0.5881 0.96595 0.71343 0.0
H516 H 0.41873 0.91227 0.66946 0.0
H517 H 0.45137 0.91304 0.61576 0.0
H518 H 0.3736 0.89719 0.65873 0.0
H519 H 0.40591 0.89766 0.60607 0.0
H520 H 0.5372 0.89325 0.68922 0.0
H521 H 0.49403 0.9388 0.71178 0.0
H522 H 0.5681 0.89108 0.71632 0.0
H523 H 0.52543 0.93569 0.73858 0.0
H524 H 0.54661 0.85004 0.65496 0.0
H525 H 0.45142 0.84826 0.65685 0.0
H526 H 0.37687 0.96847 0.67726 0.0
H527 H 0.39929 0.9347 0.72161 0.0
Li528 Li 0.47581 0.43102 0.32882 0.0
Li529 Li 0.50342 0.43391 0.35611 0.0
Li530 Li 0.52958 0.43268 0.32655 0.0
Li531 Li 0.50534 0.40625 0.34011 0.0
C532 C 0.49674 0.46696 0.32837 0.0
N533 N 0.48628 0.49963 0.31308 0.0
C534 C 0.48311 0.48038 0.33818 0.0
C535 C 0.50529 0.4702 0.31083 0.0
C536 C 0.47794 0.4968 0.33019 0.0
C537 C 0.49975 0.48679 0.30333 0.0
C538 C 0.45292 0.41841 0.36548 0.0
C539 C 0.44315 0.41146 0.39616 0.0
N540 N 0.41784 0.4211 0.39533 0.0
C541 C 0.42674 0.42817 0.36489 0.0
C542 C 0.46113 0.40988 0.38118 0.0
C543 C 0.40933 0.42939 0.38014 0.0
C544 C 0.42176 0.42117 0.31504 0.0
N545 N 0.43915 0.43571 0.31705 0.0
C546 C 0.40393 0.4536 0.30163 0.0
C547 C 0.4306 0.45181 0.31075 0.0
C548 C 0.38628 0.43863 0.29878 0.0
C549 C 0.39533 0.42227 0.30567 0.0
H550 H 0.42875 0.40861 0.32051 0.0
H551 H 0.44434 0.46327 0.31257 0.0
C552 C 0.52867 0.44259 0.38924 0.0
N553 N 0.5044 0.44475 0.37889 0.0
C554 C 0.53003 0.45044 0.40601 0.0
C555 C 0.48137 0.46255 0.40115 0.0
C556 C 0.48115 0.45469 0.38439 0.0
C557 C 0.50609 0.46052 0.41225 0.0
H558 H 0.5471 0.4349 0.38441 0.0
H559 H 0.46235 0.45646 0.37577 0.0
C560 C 0.48793 0.4105 0.30058 0.0
N561 N 0.45474 0.40168 0.27111 0.0
C562 C 0.47491 0.39377 0.29932 0.0
C563 C 0.48435 0.42267 0.28676 0.0
C564 C 0.45817 0.38957 0.28432 0.0
C565 C 0.46739 0.41799 0.27201 0.0
C566 C 0.55893 0.40791 0.35476 0.0
C567 C 0.58404 0.40442 0.34459 0.0
C568 C 0.55388 0.3983 0.37033 0.0
C569 C 0.60356 0.39119 0.35008 0.0
C570 C 0.5739 0.38516 0.37535 0.0
N571 N 0.59811 0.3819 0.3652 0.0
C572 C 0.58238 0.45164 0.31999 0.0
C573 C 0.56615 0.43287 0.29671 0.0
C574 C 0.60767 0.45611 0.31038 0.0
N575 N 0.56247 0.4401 0.31307 0.0
C576 C 0.59097 0.43701 0.28663 0.0
C577 C 0.61239 0.44857 0.29354 0.0
H578 H 0.57889 0.45706 0.33313 0.0
H579 H 0.55001 0.42366 0.2916 0.0
C580 C 0.48585 0.3723 0.3506 0.0
N581 N 0.50762 0.38117 0.34198 0.0
C582 C 0.48645 0.35383 0.35159 0.0
C583 C 0.532 0.354 0.33494 0.0
C584 C 0.53025 0.37244 0.33404 0.0
C585 C 0.50979 0.34438 0.34371 0.0
H586 H 0.46772 0.37954 0.35643 0.0
H587 H 0.54688 0.37981 0.3269 0.0
O588 O 0.50214 0.45088 0.33604 0.0
O589 O 0.47035 0.41715 0.35072 0.0
O590 O 0.50386 0.41499 0.31533 0.0
O591 O 0.5394 0.42067 0.34951 0.0
H592 H 0.47652 0.47813 0.35179 0.0
H593 H 0.51597 0.46002 0.30307 0.0
H594 H 0.46731 0.50728 0.3376 0.0
H595 H 0.50614 0.48946 0.28976 0.0
H596 H 0.44931 0.40501 0.40844 0.0
H597 H 0.42007 0.43487 0.35285 0.0
H598 H 0.48126 0.40223 0.38183 0.0
H599 H 0.38909 0.43697 0.37992 0.0
H600 H 0.39752 0.46643 0.29647 0.0
H601 H 0.38202 0.41049 0.30388 0.0
H602 H 0.54983 0.44879 0.41387 0.0
H603 H 0.46221 0.46999 0.40539 0.0
H604 H 0.47741 0.38418 0.30988 0.0
H605 H 0.49427 0.43567 0.28751 0.0
H606 H 0.4478 0.37671 0.28322 0.0
H607 H 0.46423 0.42733 0.26129 0.0
H608 H 0.58829 0.41174 0.33252 0.0
H609 H 0.5346 0.4009 0.37837 0.0
H610 H 0.62301 0.38827 0.3423 0.0
H611 H 0.57019 0.37755 0.3873 0.0
H612 H 0.62375 0.46491 0.3163 0.0
H613 H 0.59344 0.43111 0.27361 0.0
H614 H 0.46845 0.34706 0.35812 0.0
H615 H 0.55061 0.34741 0.32884 0.0
Li616 Li 0.49847 0.09162 0.33767 0.0
Li617 Li 0.47085 0.06611 0.32344 0.0
Li618 Li 0.49662 0.06287 0.35346 0.0
Li619 Li 0.52317 0.06633 0.32649 0.0
C620 C 0.43726 0.08648 0.35096 0.0
N621 N 0.38429 0.10242 0.35958 0.0
C622 C 0.4186 0.09272 0.33757 0.0
C623 C 0.42894 0.08834 0.36874 0.0
C624 C 0.39192 0.10074 0.3422 0.0
C625 C 0.40209 0.09645 0.37282 0.0
C626 C 0.51552 0.08518 0.29787 0.0
C627 C 0.5302 0.0755 0.26864 0.0
N628 N 0.55138 0.08824 0.26835 0.0
C629 C 0.53734 0.09823 0.29723 0.0
C630 C 0.51186 0.07374 0.28343 0.0
C631 C 0.55529 0.09954 0.28222 0.0
C632 C 0.52708 0.12448 0.34051 0.0
N633 N 0.49994 0.11683 0.34075 0.0
C634 C 0.47706 0.14513 0.34461 0.0
C635 C 0.47515 0.12676 0.34285 0.0
C636 C 0.50474 0.15339 0.344 0.0
C637 C 0.53001 0.14284 0.34199 0.0
H638 H 0.54651 0.11631 0.33901 0.0
H639 H 0.45381 0.12056 0.34297 0.0
C640 C 0.41643 0.04885 0.31789 0.0
N641 N 0.43679 0.05969 0.31037 0.0
C642 C 0.39022 0.04496 0.30893 0.0
C643 C 0.40698 0.06308 0.28448 0.0
C644 C 0.43252 0.06686 0.29404 0.0
C645 C 0.3851 0.0522 0.29198 0.0
H646 H 0.42026 0.04358 0.33105 0.0
H647 H 0.44866 0.07583 0.28857 0.0
C648 C 0.53815 0.08667 0.365 0.0
N649 N 0.55177 0.10299 0.39684 0.0
C650 C 0.56735 0.08735 0.37091 0.0
C651 C 0.51589 0.09427 0.37534 0.0
C652 C 0.57379 0.09566 0.38702 0.0
C653 C 0.52321 0.10247 0.39137 0.0
C654 C 0.50999 0.03134 0.32914 0.0
C655 C 0.53484 0.02657 0.33901 0.0
C656 C 0.49992 0.02022 0.3156 0.0
C657 C 0.54951 0.0108 0.33498 0.0
C658 C 0.51518 0.00455 0.312 0.0
N659 N 0.53947 0.00021 0.32167 0.0
C660 C 0.46739 0.04725 0.38268 0.0
C661 C 0.51954 0.04787 0.38476 0.0
C662 C 0.46533 0.03916 0.39931 0.0
N663 N 0.49419 0.05156 0.37588 0.0
C664 C 0.51853 0.03975 0.40138 0.0
C665 C 0.49116 0.03534 0.40889 0.0
H666 H 0.44763 0.05009 0.37516 0.0
H667 H 0.54058 0.05128 0.37897 0.0
C668 C 0.58404 0.06727 0.32037 0.0
N669 N 0.55884 0.05933 0.31474 0.0
C670 C 0.61086 0.06355 0.31211 0.0
C671 C 0.58537 0.04357 0.29228 0.0
C672 C 0.55905 0.0476 0.30101 0.0
C673 C 0.61171 0.05164 0.2978 0.0
H674 H 0.5832 0.0768 0.33106 0.0
H675 H 0.53872 0.04166 0.29654 0.0
O676 O 0.46323 0.07826 0.34671 0.0
O677 O 0.49808 0.08351 0.31262 0.0
O678 O 0.53163 0.0784 0.34928 0.0
O679 O 0.49542 0.04675 0.33278 0.0
H680 H 0.42487 0.0917 0.32376 0.0
H681 H 0.44306 0.0836 0.37929 0.0
H682 H 0.37733 0.10569 0.33197 0.0
H683 H 0.39541 0.09799 0.38652 0.0
H684 H 0.52776 0.06663 0.25745 0.0
H685 H 0.54055 0.10718 0.30825 0.0
H686 H 0.49556 0.06329 0.28381 0.0
H687 H 0.57236 0.10953 0.28161 0.0
H688 H 0.45704 0.15283 0.34598 0.0
H689 H 0.55178 0.14872 0.34162 0.0
H690 H 0.37389 0.03679 0.31545 0.0
H691 H 0.40441 0.06876 0.27138 0.0
H692 H 0.58488 0.08144 0.36317 0.0
H693 H 0.49322 0.09392 0.37106 0.0
H694 H 0.59629 0.09626 0.39174 0.0
H695 H 0.50617 0.10843 0.39946 0.0
H696 H 0.54293 0.03508 0.34949 0.0
H697 H 0.48064 0.02375 0.30789 0.0
H698 H 0.56892 0.00699 0.34241 0.0
H699 H 0.50775 0.99585 0.3015 0.0
H700 H 0.44382 0.03575 0.40452 0.0
H701 H 0.53895 0.03721 0.40838 0.0
H702 H 0.63058 0.0703 0.31657 0.0
H703 H 0.5851 0.03428 0.28132 0.0
C704 C 0.0039 0.31727 0.14219 0.0
C705 C 0.98807 0.32666 0.15521 0.0
C706 C 0.00355 0.29876 0.14187 0.0
C707 C 0.98841 0.25995 0.17046 0.0
H708 H 0.98659 0.23457 0.1257 0.0
C709 C 0.9727 0.1842 0.1666 0.0
C710 C 0.99127 0.17496 0.15487 0.0
C711 C 0.97167 0.20269 0.16637 0.0
C712 C 0.98735 0.24148 0.13829 0.0
H713 H 0.95938 0.32384 0.17809 0.0
H714 H 0.95801 0.29163 0.17717 0.0
H715 H 0.98557 0.26689 0.12574 0.0
H716 H 0.0229 0.17785 0.13348 0.0
H717 H 0.02122 0.2102 0.13316 0.0
H718 H 0.99 0.23453 0.18299 0.0
C719 C 0.97111 0.29857 0.16738 0.0
C720 C 0.98681 0.26 0.13833 0.0
C721 C 0.97157 0.31707 0.16775 0.0
C722 C 0.00856 0.18461 0.14279 0.0
C723 C 0.00739 0.20311 0.14249 0.0
C724 C 0.98879 0.24145 0.17042 0.0
C725 C 0.98724 0.28917 0.15451 0.0
C726 C 0.9874 0.26947 0.15442 0.0
C727 C 0.98905 0.21235 0.15434 0.0
C728 C 0.98833 0.23201 0.15434 0.0
H729 H 0.01655 0.32421 0.13219 0.0
H730 H 0.01647 0.29197 0.13188 0.0
H731 H 0.98944 0.2668 0.18308 0.0
H732 H 0.95932 0.17715 0.17617 0.0
H733 H 0.95712 0.20944 0.17556 0.0
C734 C 0.01519 0.81446 0.83218 0.0
C735 C 0.00232 0.82418 0.8461 0.0
C736 C 0.01509 0.79597 0.83241 0.0
C737 C 0.00518 0.75734 0.86229 0.0
H738 H 0.99323 0.73227 0.81791 0.0
C739 C 0.98401 0.68173 0.85792 0.0
C740 C -0.00023 0.6725 0.84478 0.0
C741 C 0.98467 0.70024 0.85854 0.0
C742 C 0.99684 0.73909 0.83038 0.0
H743 H 0.97954 0.82193 0.87133 0.0
H744 H 0.97842 0.78967 0.87142 0.0
H745 H 0.99322 0.76452 0.81814 0.0
H746 H 0.02845 0.6754 0.82194 0.0
H747 H 0.02958 0.70773 0.82302 0.0
H748 H 0.00826 0.73176 0.8745 0.0
C749 C 0.98907 0.79637 0.86045 0.0
C750 C 0.99692 0.75758 0.83052 0.0
C751 C 0.98936 0.8149 0.86028 0.0
C752 C 0.01629 0.68215 0.83231 0.0
C753 C 0.01672 0.70064 0.83283 0.0
C754 C 0.00484 0.73882 0.86215 0.0
C755 C 0.00187 0.78668 0.84648 0.0
C756 C 0.00127 0.76696 0.84646 0.0
C757 C 0.00084 0.70988 0.84591 0.0
C758 C 0.00084 0.72952 0.84618 0.0
H759 H 0.025 0.82112 0.8209 0.0
H760 H 0.02555 0.78897 0.82155 0.0
H761 H 0.00901 0.76411 0.87476 0.0
H762 H 0.97126 0.67463 0.86778 0.0
H763 H 0.97208 0.70702 0.86871 0.0
C764 C 0.51632 0.68478 0.66854 0.0
C765 C 0.50014 0.67511 0.65588 0.0
C766 C 0.51665 0.70327 0.66817 0.0
C767 C 0.50075 0.74175 0.63892 0.0
H768 H 0.50035 0.76754 0.68346 0.0
C769 C 0.48101 0.8174 0.64384 0.0
C770 C 0.50006 0.82687 0.65509 0.0
C771 C 0.4815 0.79889 0.64358 0.0
C772 C 0.50072 0.76051 0.67092 0.0
H773 H 0.47183 0.67749 0.63277 0.0
H774 H 0.47147 0.70972 0.63256 0.0
H775 H 0.49978 0.73527 0.68374 0.0
H776 H 0.5344 0.82441 0.67496 0.0
H777 H 0.53517 0.79203 0.67454 0.0
H778 H 0.50106 0.76713 0.62616 0.0
C779 C 0.48439 0.70298 0.64259 0.0
C780 C 0.50049 0.742 0.67106 0.0
C781 C 0.48426 0.68447 0.64286 0.0
C782 C 0.51964 0.81746 0.66605 0.0
C783 C 0.5199 0.79895 0.66593 0.0
C784 C 0.50069 0.76027 0.63879 0.0
C785 C 0.50058 0.71264 0.65525 0.0
C786 C 0.50061 0.73237 0.65506 0.0
C787 C 0.5008 0.78948 0.65471 0.0
C788 C 0.50078 0.76983 0.6548 0.0
H789 H 0.52849 0.67807 0.67892 0.0
H790 H 0.52971 0.71022 0.67799 0.0
H791 H 0.50134 0.7348 0.62634 0.0
H792 H 0.46583 0.82432 0.63517 0.0
H793 H 0.4664 0.79193 0.63488 0.0
C794 C 0.50006 0.31537 0.3592 0.0
C795 C 0.51059 0.32464 0.34429 0.0
C796 C 0.5001 0.29686 0.35951 0.0
C797 C 0.50522 0.25773 0.32955 0.0
H798 H 0.5196 0.23248 0.37354 0.0
C799 C 0.52432 0.18217 0.33246 0.0
C800 C 0.50708 0.17294 0.34489 0.0
C801 C 0.52541 0.20066 0.33272 0.0
C802 C 0.51541 0.23939 0.36119 0.0
H803 H 0.52944 0.32147 0.31797 0.0
H804 H 0.531 0.28938 0.31892 0.0
H805 H 0.52079 0.2648 0.37331 0.0
H806 H 0.47811 0.17574 0.3676 0.0
H807 H 0.48039 0.20815 0.3682 0.0
H808 H 0.50059 0.23221 0.31742 0.0
C809 C 0.52196 0.29638 0.33022 0.0
C810 C 0.51594 0.25791 0.36104 0.0
C811 C 0.52154 0.31487 0.32981 0.0
C812 C 0.49144 0.18255 0.35781 0.0
C813 C 0.49288 0.20104 0.35823 0.0
C814 C 0.50513 0.23923 0.32966 0.0
C815 C 0.51103 0.28709 0.34502 0.0
C816 C 0.51077 0.26735 0.34522 0.0
C817 C 0.50963 0.21027 0.34556 0.0
C818 C 0.51014 0.22989 0.34549 0.0
H819 H 0.49184 0.32239 0.37072 0.0
H820 H 0.49116 0.29022 0.37105 0.0
H821 H 0.50049 0.26447 0.31718 0.0
H822 H 0.53641 0.17509 0.32229 0.0
H823 H 0.53864 0.20747 0.32288 0.0
C824 C 0.3418 0.03272 0.28396 0.0
C825 C 0.35683 0.04899 0.28241 0.0
C826 C 0.31502 0.02998 0.27514 0.0
C827 C 0.27207 0.04452 0.23694 0.0
H828 H 0.20247 0.03197 0.26408 0.0
C829 C 0.15748 0.03632 0.20451 0.0
C830 C 0.13607 0.04737 0.21218 0.0
C831 C 0.1843 0.03336 0.21318 0.0
C832 C 0.22181 0.03531 0.25634 0.0
H833 H 0.35475 0.07521 0.27053 0.0
H834 H 0.30892 0.07007 0.25466 0.0
H835 H 0.25075 0.03283 0.27874 0.0
H836 H 0.12506 0.06328 0.23518 0.0
H837 H 0.17174 0.05783 0.25052 0.0
H838 H 0.24318 0.04731 0.21462 0.0
C839 C 0.31801 0.05947 0.26267 0.0
C840 C 0.24935 0.03571 0.26468 0.0
C841 C 0.34441 0.06234 0.27171 0.0
C842 C 0.14134 0.05478 0.22898 0.0
C843 C 0.16789 0.05157 0.23779 0.0
C844 C 0.24466 0.04381 0.22854 0.0
C845 C 0.30304 0.04331 0.26434 0.0
C846 C 0.27458 0.04074 0.25513 0.0
C847 C 0.18984 0.04113 0.22981 0.0
C848 C 0.21919 0.03959 0.23825 0.0
H849 H 0.35081 0.02203 0.29184 0.0
H850 H 0.30386 0.01738 0.27657 0.0
H851 H 0.29127 0.04836 0.2293 0.0
H852 H 0.15392 0.03054 0.19152 0.0
H853 H 0.20089 0.02524 0.20679 0.0
C854 C 0.65261 0.46912 0.28313 0.0
C855 C 0.63994 0.45211 0.28346 0.0
C856 C 0.67865 0.47224 0.27366 0.0
C857 C 0.72436 0.45369 0.23756 0.0
H858 H 0.7881 0.48012 0.25938 0.0
C859 C 0.83459 0.4635 0.20134 0.0
C860 C 0.85978 0.45961 0.2115 0.0
C861 C 0.80722 0.4658 0.20954 0.0
C862 C 0.77047 0.47274 0.25311 0.0
H863 H 0.64523 0.42497 0.27449 0.0
H864 H 0.69029 0.43043 0.25794 0.0
H865 H 0.74091 0.47738 0.27481 0.0
H866 H 0.8763 0.45615 0.23829 0.0
H867 H 0.82848 0.45981 0.25256 0.0
H868 H 0.75409 0.44844 0.2162 0.0
C869 C 0.67984 0.44144 0.2647 0.0
C870 C 0.74338 0.47131 0.26187 0.0
C871 C 0.65396 0.43832 0.27419 0.0
C872 C 0.85723 0.45889 0.23008 0.0
C873 C 0.82987 0.4612 0.23828 0.0
C874 C 0.75136 0.45516 0.2288 0.0
C875 C 0.69246 0.45843 0.26429 0.0
C876 C 0.72024 0.46146 0.25433 0.0
C877 C 0.80443 0.46427 0.22807 0.0
C878 C 0.77491 0.46442 0.23661 0.0
H879 H 0.64222 0.48007 0.29 0.0
H880 H 0.68777 0.4855 0.27349 0.0
H881 H 0.70682 0.44622 0.2313 0.0
H882 H 0.83575 0.46404 0.18699 0.0
H883 H 0.78809 0.46837 0.20132 0.0
C884 C 0.14518 0.96379 0.77723 0.0
C885 C 0.13991 0.94726 0.78529 0.0
C886 C 0.17099 0.9667 0.76745 0.0
C887 C 0.22591 0.943 0.74143 0.0
H888 H 0.27816 0.9827 0.75035 0.0
C889 C 0.32946 0.9547 0.69914 0.0
C890 C 0.35557 0.95615 0.70907 0.0
C891 C 0.30203 0.9562 0.70743 0.0
C892 C 0.26364 0.97162 0.74768 0.0
H893 H 0.15856 0.92116 0.79004 0.0
H894 H 0.20282 0.9261 0.77254 0.0
H895 H 0.23201 0.98 0.76717 0.0
H896 H 0.37353 0.96128 0.73523 0.0
H897 H 0.32549 0.96403 0.74974 0.0
H898 H 0.25748 0.93444 0.72217 0.0
C899 C 0.18684 0.93671 0.77368 0.0
C900 C 0.23726 0.97014 0.75721 0.0
C901 C 0.16136 0.93388 0.78362 0.0
C902 C 0.35373 0.95998 0.7273 0.0
C903 C 0.32628 0.96169 0.73556 0.0
C904 C 0.25197 0.94462 0.73175 0.0
C905 C 0.19178 0.95307 0.76538 0.0
C906 C 0.21847 0.95562 0.75438 0.0
C907 C 0.30019 0.95939 0.72578 0.0
C908 C 0.27133 0.95878 0.73496 0.0
H909 H 0.12908 0.97435 0.77808 0.0
H910 H 0.17432 0.97943 0.76112 0.0
H911 H 0.21166 0.93176 0.73893 0.0
H912 H 0.33022 0.95164 0.68509 0.0
H913 H 0.28222 0.95448 0.69958 0.0
C914 C 0.65331 0.53172 0.71108 0.0
C915 C 0.63746 0.54749 0.71409 0.0
C916 C 0.68006 0.52859 0.71979 0.0
C917 C 0.7225 0.54068 0.75925 0.0
H918 H 0.79225 0.53134 0.73094 0.0
C919 C 0.838 0.53311 0.79057 0.0
C920 C 0.8587 0.54492 0.78335 0.0
C921 C 0.81123 0.53005 0.78187 0.0
C922 C 0.77289 0.53377 0.739 0.0
H923 H 0.6379 0.57241 0.72859 0.0
H924 H 0.68376 0.56657 0.74418 0.0
H925 H 0.74375 0.53238 0.71661 0.0
H926 H 0.86852 0.56208 0.76109 0.0
H927 H 0.82193 0.55653 0.74574 0.0
H928 H 0.7516 0.54249 0.78156 0.0
C929 C 0.67533 0.55663 0.73512 0.0
C930 C 0.74521 0.53427 0.73084 0.0
C931 C 0.64893 0.55991 0.72621 0.0
C932 C 0.8528 0.553 0.76695 0.0
C933 C 0.82629 0.54972 0.75812 0.0
C934 C 0.75009 0.53991 0.76744 0.0
C935 C 0.69122 0.54101 0.73192 0.0
C936 C 0.71989 0.53817 0.74084 0.0
C937 C 0.80502 0.53851 0.76567 0.0
C938 C 0.7756 0.53687 0.75732 0.0
H939 H 0.64502 0.52172 0.70206 0.0
H940 H 0.69191 0.5164 0.71718 0.0
H941 H 0.70325 0.54363 0.76723 0.0
H942 H 0.84203 0.5268 0.80325 0.0
H943 H 0.79519 0.52132 0.78793 0.0
C944 C 0.66777 0.9478 0.69893 0.0
C945 C 0.64094 0.94867 0.70824 0.0
C946 C 0.69459 0.94916 0.70791 0.0
C947 C 0.72917 0.96406 0.74963 0.0
H948 H 0.78828 0.92881 0.73794 0.0
C949 C 0.83263 0.9517 0.79294 0.0
C950 C 0.85894 0.94699 0.7843 0.0
C951 C 0.8064 0.95344 0.78335 0.0
C952 C 0.77227 0.93895 0.74119 0.0
H953 H 0.62135 0.95199 0.73432 0.0
H954 H 0.66828 0.95456 0.74997 0.0
H955 H 0.74193 0.9293 0.72173 0.0
H956 H 0.87877 0.94129 0.75875 0.0
H957 H 0.8332 0.94467 0.74194 0.0
H958 H 0.75958 0.97372 0.7691 0.0
C959 C 0.66847 0.95293 0.73569 0.0
C960 C 0.74565 0.9392 0.7319 0.0
C961 C 0.64159 0.95149 0.7267 0.0
C962 C 0.8587 0.94465 0.7658 0.0
C963 C 0.83257 0.94653 0.75619 0.0
C964 C 0.75593 0.96389 0.75887 0.0
C965 C 0.69524 0.95151 0.72641 0.0
C966 C 0.72377 0.9517 0.73605 0.0
C967 C 0.80597 0.95064 0.76488 0.0
C968 C 0.77778 0.95129 0.75479 0.0
H969 H 0.66806 0.946 0.68466 0.0
H970 H 0.71488 0.94832 0.70037 0.0
H971 H 0.7128 0.97396 0.753 0.0
H972 H 0.83212 0.95341 0.80722 0.0
H973 H 0.78629 0.95641 0.7905 0.0
C974 C 0.35425 0.55003 0.72708 0.0
C975 C 0.35513 0.55045 0.70844 0.0
C976 C 0.32746 0.54791 0.73599 0.0
C977 C 0.24761 0.55427 0.72947 0.0
H978 H 0.24129 0.52707 0.77298 0.0
C979 C 0.13661 0.54529 0.76531 0.0
C980 C 0.13688 0.54819 0.78375 0.0
C981 C 0.16298 0.54357 0.7559 0.0
C982 C 0.24278 0.53478 0.76089 0.0
H983 H 0.32885 0.54827 0.6845 0.0
H984 H 0.28211 0.5444 0.70002 0.0
H985 H 0.28796 0.52763 0.75681 0.0
H986 H 0.16515 0.55119 0.8068 0.0
H987 H 0.21116 0.54809 0.79037 0.0
H988 H 0.20257 0.56155 0.7336 0.0
C989 C 0.30202 0.54608 0.70778 0.0
C990 C 0.2695 0.53512 0.75164 0.0
C991 C 0.32878 0.54827 0.69889 0.0
C992 C 0.16413 0.54875 0.79264 0.0
C993 C 0.19051 0.54698 0.78323 0.0
C994 C 0.22091 0.55387 0.73867 0.0
C995 C 0.30098 0.54611 0.72644 0.0
C996 C 0.27228 0.54499 0.73589 0.0
C997 C 0.19023 0.54466 0.76472 0.0
C998 C 0.21824 0.54424 0.75455 0.0
H999 H 0.37416 0.55191 0.73481 0.0
H1000 H 0.32741 0.54825 0.75036 0.0
H1001 H 0.24911 0.56226 0.71757 0.0
H1002 H 0.11598 0.54447 0.75811 0.0
H1003 H 0.16205 0.54149 0.74168 0.0
C1004 C 0.66608 0.04567 0.29788 0.0
C1005 C 0.6398 0.04819 0.28834 0.0
C1006 C 0.69283 0.04345 0.28896 0.0
C1007 C 0.72535 0.03335 0.24483 0.0
H1008 H 0.79248 0.05909 0.26355 0.0
C1009 C 0.83037 0.0483 0.20402 0.0
C1010 C 0.85771 0.04749 0.2128 0.0
C1011 C 0.80409 0.04614 0.21345 0.0
C1012 C 0.77409 0.05159 0.25828 0.0
H1013 H 0.62086 0.0502 0.26199 0.0
H1014 H 0.66758 0.04654 0.24641 0.0
H1015 H 0.746 0.05947 0.27965 0.0
H1016 H 0.87887 0.04291 0.23821 0.0
H1017 H 0.83296 0.03926 0.25468 0.0
H1018 H 0.75344 0.02585 0.22321 0.0
C1019 C 0.6675 0.04594 0.26077 0.0
C1020 C 0.74742 0.0518 0.26752 0.0
C1021 C 0.64071 0.04806 0.26969 0.0
C1022 C 0.85817 0.04394 0.23112 0.0
C1023 C 0.83189 0.04183 0.24055 0.0
C1024 C 0.75204 0.0332 0.23554 0.0
C1025 C 0.69393 0.04382 0.27031 0.0
C1026 C 0.72265 0.04278 0.26085 0.0
C1027 C 0.80455 0.04318 0.23186 0.0
C1028 C 0.77663 0.04243 0.24211 0.0
H1029 H 0.66597 0.04544 0.31226 0.0
H1030 H 0.71269 0.04152 0.29671 0.0
H1031 H 0.70683 0.02605 0.23945 0.0
H1032 H 0.8292 0.05125 0.18997 0.0
H1033 H 0.78337 0.04747 0.20642 0.0
C1034 C 0.16874 0.43583 0.20269 0.0
C1035 C 0.14227 0.44163 0.21056 0.0
C1036 C 0.1952 0.43632 0.21213 0.0
C1037 C 0.2348 0.45825 0.24747 0.0
H1038 H 0.2768 0.41385 0.25292 0.0
C1039 C 0.33659 0.45191 0.2933 0.0
C1040 C 0.35876 0.43992 0.2884 0.0
C1041 C 0.31015 0.45262 0.28377 0.0
C1042 C 0.26577 0.42646 0.25128 0.0
H1043 H 0.12335 0.45279 0.23461 0.0
H1044 H 0.16997 0.45432 0.25074 0.0
H1045 H 0.23119 0.41466 0.23592 0.0
H1046 H 0.37148 0.41974 0.26949 0.0
H1047 H 0.3261 0.4215 0.25229 0.0
H1048 H 0.26973 0.47029 0.26221 0.0
C1049 C 0.16989 0.44927 0.23727 0.0
C1050 C 0.23951 0.42685 0.24164 0.0
C1051 C 0.14324 0.44847 0.22796 0.0
C1052 C 0.35445 0.42894 0.27362 0.0
C1053 C 0.32833 0.42989 0.26387 0.0
C1054 C 0.26142 0.45796 0.25683 0.0
C1055 C 0.19596 0.44295 0.22951 0.0
C1056 C 0.22379 0.44272 0.23968 0.0
C1057 C 0.30562 0.44158 0.26893 0.0
C1058 C 0.27728 0.44203 0.2589 0.0
H1059 H 0.16911 0.4309 0.18919 0.0
H1060 H 0.21517 0.43156 0.20582 0.0
H1061 H 0.22307 0.47068 0.24601 0.0
H1062 H 0.33944 0.46043 0.30475 0.0
H1063 H 0.2931 0.46159 0.28829 0.0
C1064 C 0.97981 0.03867 0.05463 0.0
C1065 C 0.9972 0.03147 0.06827 0.0
C1066 C 0.98036 0.03132 0.03761 0.0
C1067 C 0.0248 0.00208 0.00838 0.0
H1068 H 0.95201 0.99898 0.98152 0.0
C1069 C 0.01389 0.96168 0.94349 0.0
C1070 C -0.00111 0.96985 0.92934 0.0
C1071 C 0.01406 0.96938 0.96036 0.0
C1072 C 0.97255 -9e-05 0.98881 0.0
H1073 H 0.02852 0.01081 0.07486 0.0
H1074 H 0.02914 0.99776 0.04524 0.0
H1075 H 0.95151 0.01189 0.01119 0.0
H1076 H 0.9727 0.99275 0.92187 0.0
H1077 H 0.97257 0.00597 0.9514 0.0
H1078 H 0.04567 0.98979 0.98603 0.0
C1079 C 0.01555 0.00933 0.04755 0.0
C1080 C 0.9723 0.00734 0.00579 0.0
C1081 C 0.01516 0.01677 0.06455 0.0
C1082 C 0.98404 0.98591 0.9325 0.0
C1083 C 0.98402 0.99353 0.94941 0.0
C1084 C 0.02498 0.99452 0.99144 0.0
C1085 C 0.99815 0.01651 0.03387 0.0
C1086 C -0.00156 0.00856 0.01579 0.0
C1087 C -0.00096 0.98535 0.96351 0.0
C1088 C -0.00113 0.99338 0.98147 0.0
H1089 H 0.96607 0.05016 0.05705 0.0
H1090 H 0.9671 0.03741 0.02733 0.0
H1091 H 0.04542 0.00307 0.01556 0.0
H1092 H 0.02513 0.94915 0.94163 0.0
H1093 H 0.02551 0.96266 0.97104 0.0
C1094 C 0.01703 0.51376 0.93204 0.0
C1095 C 0.99641 0.52684 0.92732 0.0
C1096 C 0.01673 0.5063 0.94901 0.0
C1097 C 0.9691 0.4992 0.98799 0.0
H1098 H 0.04321 0.49264 0.01282 0.0
C1099 C 0.9746 0.47958 0.06205 0.0
C1100 C 0.99657 0.46747 0.06713 0.0
C1101 C 0.97427 0.48664 0.0449 0.0
C1102 C 0.02235 0.49417 0.00599 0.0
H1103 H 0.95943 0.54244 0.93681 0.0
H1104 H 0.95881 0.52932 0.96639 0.0
H1105 H 0.04317 0.50516 0.98301 0.0
H1106 H 0.03496 0.45292 0.05809 0.0
H1107 H 0.03425 0.4651 0.02813 0.0
H1108 H 0.94828 0.48813 0.01094 0.0
C1109 C 0.97499 0.5247 0.95688 0.0
C1110 C 0.02234 0.50136 0.98891 0.0
C1111 C 0.97534 0.5322 0.93992 0.0
C1112 C 0.01803 0.46245 0.05465 0.0
C1113 C 0.01763 0.46944 0.0375 0.0
C1114 C 0.96912 0.49195 0.00506 0.0
C1115 C 0.99576 0.51172 0.96163 0.0
C1116 C 0.99572 0.50397 0.97973 0.0
C1117 C 0.99583 0.48169 0.03243 0.0
C1118 C 0.99575 0.48935 0.01426 0.0
H1119 H 0.03324 0.50912 0.92256 0.0
H1120 H 0.03274 0.49613 0.95219 0.0
H1121 H 0.94827 0.50084 0.98116 0.0
H1122 H 0.95799 0.48388 0.07144 0.0
H1123 H 0.95742 0.49624 0.04152 0.0
C1124 C 0.4936 0.48552 0.43308 0.0
C1125 C 0.50691 0.46892 0.43015 0.0
C1126 C 0.4939 0.49325 0.44992 0.0
C1127 C 0.53412 0.4942 0.49185 0.0
H1128 H 0.46063 0.51135 0.51177 0.0
C1129 C 0.52514 0.51769 0.5647 0.0
C1130 C 0.50597 0.53181 0.56846 0.0
C1131 C 0.5258 0.51014 0.54775 0.0
C1132 C 0.48146 0.50692 0.50633 0.0
H1133 H 0.53089 0.44748 0.44287 0.0
H1134 H 0.53216 0.46132 0.47212 0.0
H1135 H 0.46099 0.49822 0.48222 0.0
H1136 H 0.47318 0.5495 0.55737 0.0
H1137 H 0.47487 0.53674 0.52769 0.0
H1138 H 0.55482 0.50325 0.5157 0.0
C1139 C 0.52152 0.46827 0.46129 0.0
C1140 C 0.48158 0.49931 0.48943 0.0
C1141 C 0.52087 0.4604 0.44449 0.0
C1142 C 0.48786 0.53845 0.55489 0.0
C1143 C 0.48877 0.53106 0.5379 0.0
C1144 C 0.53409 0.50203 0.50868 0.0
C1145 C 0.50787 0.48471 0.46417 0.0
C1146 C 0.50789 0.49285 0.48205 0.0
C1147 C 0.50753 0.51669 0.53414 0.0
C1148 C 0.50773 0.50846 0.51616 0.0
H1149 H 0.4832 0.49269 0.42232 0.0
H1150 H 0.48352 0.50605 0.45177 0.0
H1151 H 0.55475 0.48947 0.48637 0.0
H1152 H 0.53913 0.51222 0.57499 0.0
H1153 H 0.54019 0.49892 0.54546 0.0
C1154 C 0.47144 0.96295 0.55482 0.0
C1155 C 0.49199 0.96929 0.56726 0.0
C1156 C 0.47052 0.96994 0.53765 0.0
C1157 C 0.51606 0.99449 0.5053 0.0
H1158 H 0.44127 0.00274 0.48174 0.0
C1159 C 0.50983 0.01358 0.43141 0.0
C1160 C 0.48969 0.02693 0.42668 0.0
C1161 C 0.50926 0.00614 0.44838 0.0
C1162 C 0.46233 0.00062 0.48818 0.0
H1163 H 0.52715 0.98825 0.57159 0.0
H1164 H 0.52545 0.00053 0.54169 0.0
H1165 H 0.4419 0.99114 0.51197 0.0
H1166 H 0.45305 0.04286 0.43604 0.0
H1167 H 0.45214 0.02992 0.46571 0.0
H1168 H 0.5365 0.00434 0.48172 0.0
C1169 C 0.51042 0.98991 0.54508 0.0
C1170 C 0.4627 0.99378 0.50543 0.0
C1171 C 0.51139 0.98289 0.56222 0.0
C1172 C 0.46864 0.03246 0.43921 0.0
C1173 C 0.46811 0.02503 0.45621 0.0
C1174 C 0.51569 0.00132 0.48808 0.0
C1175 C 0.49009 0.98345 0.53255 0.0
C1176 C 0.48958 0.99067 0.5142 0.0
C1177 C 0.48859 0.01189 0.46104 0.0
C1178 C 0.48883 0.00447 0.47931 0.0
H1179 H 0.45645 0.95232 0.55824 0.0
H1180 H 0.45487 0.9645 0.52826 0.0
H1181 H 0.53715 0.99205 0.51158 0.0
H1182 H 0.52598 0.00882 0.42196 0.0
H1183 H 0.52497 0.99581 0.45155 0.0
loop_
_geom_bond_atom_site_label_1
_geom_bond_atom_site_label_2
_geom_bond_distance
_geom_bond_site_symmetry_2
_ccdc_geom_bond_type
Li0 N17 1.990 . S
Li0 O60 1.956 . S
Li0 O61 1.970 1_455 S
Li0 O62 1.961 1_455 S
Li1 N25 1.990 . S
Li1 O60 1.970 . S
Li1 O61 1.946 1_455 S
Li1 O63 1.961 . S
Li2 N47 1.990 . S
Li2 O60 1.951 1_655 S
Li2 O62 1.966 . S
Li2 O63 1.970 1_655 S
Li3 N53 1.990 . S
Li3 O61 1.970 . S
Li3 O62 1.970 . S
Li3 O63 1.956 1_655 S
C4 C6 1.348 . S
C4 C7 1.356 . S
C4 O60 1.325 . S
N5 C8 1.314 . S
N5 C9 1.279 . S
C6 C4 1.348 . S
C6 C8 1.353 . S
C6 H64 0.929 . S
C7 C4 1.356 . S
C7 C9 1.358 . S
C7 H65 0.930 . S
C8 N5 1.314 . S
C8 C6 1.353 . S
C8 H66 0.930 . S
C9 N5 1.279 . S
C9 C7 1.358 . S
C9 H67 0.930 . S
C10 C13 1.351 . S
C10 C14 1.354 1_455 S
C10 O61 1.324 1_455 S
C11 N12 1.279 1_655 S
C11 C14 1.358 . S
C11 H68 0.930 . S
N12 C11 1.279 1_455 S
N12 C15 1.314 . S
C13 C10 1.351 . S
C13 C15 1.353 . S
C13 H69 0.929 . S
C14 C10 1.354 1_655 S
C14 C11 1.358 . S
C14 H70 0.930 . S
C15 N12 1.314 . S
C15 C13 1.353 . S
C15 H71 0.930 . S
C16 N17 1.314 1_655 S
C16 C21 1.353 . S
C16 H22 0.930 . S
N17 Li0 1.990 . S
N17 C16 1.314 1_455 S
N17 C19 1.279 . S
C18 C19 1.358 . S
C18 C20 1.370 . S
C18 H72 0.930 . S
C19 N17 1.279 . S
C19 C18 1.358 . S
C19 H23 0.930 . S
C20 C18 1.370 . S
C20 C21 1.334 1_455 S
C21 C16 1.353 . S
C21 C20 1.334 1_655 S
C21 H73 0.929 . S
H22 C16 0.930 . S
H23 C19 0.930 . S
C24 N25 1.314 . S
C24 C26 1.353 . S
C24 H30 0.930 . S
N25 Li1 1.990 . S
N25 C24 1.314 . S
N25 C28 1.279 . S
C26 C24 1.353 . S
C26 C29 1.348 . S
C26 H74 0.929 . S
C27 C28 1.358 . S
C27 C29 1.356 . S
C27 H75 0.930 . S
C28 N25 1.279 . S
C28 C27 1.358 . S
C28 H31 0.930 . S
C29 C26 1.348 . S
C29 C27 1.356 . S
H30 C24 0.930 . S
H31 C28 0.930 . S
C32 C34 1.348 . S
C32 C35 1.356 . S
C32 O62 1.325 . S
N33 C36 1.314 . S
N33 C37 1.279 . S
C34 C32 1.348 . S
C34 C36 1.353 . S
C34 H76 0.929 . S
C35 C32 1.356 . S
C35 C37 1.358 . S
C35 H77 0.930 . S
C36 N33 1.314 . S
C36 C34 1.353 . S
C36 H78 0.930 . S
C37 N33 1.279 . S
C37 C35 1.358 . S
C37 H79 0.930 . S
C38 C39 1.342 1_455 S
C38 C40 1.359 . S
C38 O63 1.325 . S
C39 C38 1.342 1_655 S
C39 C41 1.353 . S
C39 H80 0.929 . S
C40 C38 1.359 . S
C40 C42 1.358 . S
C40 H81 0.930 . S
C41 C39 1.353 . S
C41 N43 1.314 1_545 S
C41 H82 0.930 1_545 S
C42 C40 1.358 . S
C42 N43 1.279 1_445 S
C42 H83 0.930 . S
N43 C41 1.314 1_565 S
N43 C42 1.279 1_665 S
C44 C46 1.353 . S
C44 N47 1.286 1_455 S
C44 H50 0.930 . S
C45 N47 1.307 . S
C45 C48 1.358 . S
C45 H51 0.930 . S
C46 C44 1.353 . S
C46 C49 1.358 . S
C46 H84 0.929 . S
N47 Li2 1.990 . S
N47 C44 1.286 1_655 S
N47 C45 1.307 . S
C48 C45 1.358 . S
C48 C49 1.346 1_655 S
C48 H85 0.930 . S
C49 C46 1.358 . S
C49 C48 1.346 1_455 S
H50 C44 0.930 . S
H51 C45 0.930 . S
C52 N53 1.314 . S
C52 C54 1.353 . S
C52 H58 0.930 . S
N53 Li3 1.990 . S
N53 C52 1.314 . S
N53 C56 1.279 . S
C54 C52 1.353 . S
C54 C57 1.348 . S
C54 H86 0.929 . S
C55 C56 1.358 . S
C55 C57 1.356 . S
C55 H87 0.930 . S
C56 N53 1.279 . S
C56 C55 1.358 . S
C56 H59 0.930 . S
C57 C54 1.348 . S
C57 C55 1.356 . S
H58 C52 0.930 . S
H59 C56 0.930 . S
O60 Li0 1.956 . S
O60 Li1 1.970 . S
O60 Li2 1.951 1_455 S
O60 C4 1.325 . S
O61 Li0 1.970 1_655 S
O61 Li1 1.946 1_655 S
O61 Li3 1.970 . S
O61 C10 1.324 1_655 S
O62 Li0 1.961 1_655 S
O62 Li2 1.966 . S
O62 Li3 1.970 . S
O62 C32 1.325 . S
O63 Li1 1.961 . S
O63 Li2 1.970 1_455 S
O63 Li3 1.956 1_455 S
O63 C38 1.325 . S
H64 C6 0.929 . S
H65 C7 0.930 . S
H66 C8 0.930 . S
H67 C9 0.930 . S
H68 C11 0.930 . S
H69 C13 0.929 . S
H70 C14 0.930 . S
H71 C15 0.930 . S
H72 C18 0.930 . S
H73 C21 0.929 . S
H74 C26 0.929 . S
H75 C27 0.930 . S
H76 C34 0.929 . S
H77 C35 0.930 . S
H78 C36 0.930 . S
H79 C37 0.930 . S
H80 C39 0.929 . S
H81 C40 0.930 . S
H82 C41 0.930 1_565 S
H83 C42 0.930 . S
H84 C46 0.929 . S
H85 C48 0.930 . S
H86 C54 0.929 . S
H87 C55 0.930 . S
Li88 N105 1.991 . S
Li88 O148 1.985 . S
Li88 O149 1.969 1_455 S
Li88 O150 1.931 1_455 S
Li89 N113 1.990 . S
Li89 O148 1.970 . S
Li89 O149 1.938 1_455 S
Li89 O151 1.961 . S
Li90 N135 1.991 . S
Li90 O148 1.941 1_655 S
Li90 O150 1.975 . S
Li90 O151 1.970 1_655 S
Li91 N141 1.990 . S
Li91 O149 1.978 . S
Li91 O150 1.970 . S
Li91 O151 1.956 1_655 S
C92 C94 1.348 . S
C92 C95 1.356 . S
C92 O148 1.325 . S
N93 C96 1.314 . S
N93 C97 1.279 . S
C94 C92 1.348 . S
C94 C96 1.353 . S
C94 H152 0.929 . S
C95 C92 1.356 . S
C95 C97 1.358 . S
C95 H153 0.930 . S
C96 N93 1.314 . S
C96 C94 1.353 . S
C96 H154 0.930 . S
C97 N93 1.279 . S
C97 C95 1.358 . S
C97 H155 0.930 . S
C98 C101 1.347 . S
C98 C102 1.356 1_455 S
C98 O149 1.324 1_455 S
C99 N100 1.279 1_655 S
C99 C102 1.358 . S
C99 H156 0.930 . S
N100 C99 1.279 1_455 S
N100 C103 1.314 . S
C101 C98 1.347 . S
C101 C103 1.353 . S
C101 H157 0.929 . S
C102 C98 1.356 1_655 S
C102 C99 1.358 . S
C102 H158 0.930 . S
C103 N100 1.314 . S
C103 C101 1.353 . S
C103 H159 0.930 . S
C104 N105 1.314 1_655 S
C104 C109 1.353 . S
C104 H110 0.930 . S
N105 Li88 1.991 . S
N105 C104 1.314 1_455 S
N105 C107 1.279 . S
C106 C107 1.358 . S
C106 C108 1.360 . S
C106 H160 0.930 . S
C107 N105 1.279 . S
C107 C106 1.358 . S
C107 H111 0.930 . S
C108 C106 1.360 . S
C108 C109 1.344 1_455 S
C109 C104 1.353 . S
C109 C108 1.344 1_655 S
C109 H161 0.929 . S
H110 C104 0.930 . S
H111 C107 0.930 . S
C112 N113 1.314 . S
C112 C114 1.353 . S
C112 H118 0.930 . S
N113 Li89 1.990 . S
N113 C112 1.314 . S
N113 C116 1.279 . S
C114 C112 1.353 . S
C114 C117 1.348 . S
C114 H162 0.929 . S
C115 C116 1.358 . S
C115 C117 1.356 . S
C115 H163 0.930 . S
C116 N113 1.279 . S
C116 C115 1.358 . S
C116 H119 0.930 . S
C117 C114 1.348 . S
C117 C115 1.356 . S
H118 C112 0.930 . S
H119 C116 0.930 . S
C120 C122 1.348 . S
C120 C123 1.356 . S
C120 O150 1.325 . S
N121 C124 1.314 . S
N121 C125 1.279 . S
C122 C120 1.348 . S
C122 C124 1.353 . S
C122 H164 0.929 . S
C123 C120 1.356 . S
C123 C125 1.358 . S
C123 H165 0.930 . S
C124 N121 1.314 . S
C124 C122 1.353 . S
C124 H166 0.930 . S
C125 N121 1.279 . S
C125 C123 1.358 . S
C125 H167 0.930 . S
C126 C127 1.346 1_455 S
C126 C128 1.357 . S
C126 O151 1.325 . S
C127 C126 1.346 1_655 S
C127 C129 1.353 . S
C127 H168 0.929 . S
C128 C126 1.357 . S
C128 C130 1.358 . S
C128 H169 0.930 . S
C129 C127 1.353 . S
C129 N131 1.314 . S
C129 H170 0.930 . S
C130 C128 1.358 . S
C130 N131 1.279 1_455 S
C130 H171 0.930 . S
N131 C129 1.314 . S
N131 C130 1.279 1_655 S
C132 C134 1.353 . S
C132 N135 1.314 1_455 S
C132 H138 0.930 . S
C133 N135 1.279 . S
C133 C136 1.358 . S
C133 H139 0.930 . S
C134 C132 1.353 . S
C134 C137 1.348 . S
C134 H172 0.929 . S
N135 Li90 1.991 . S
N135 C132 1.314 1_655 S
N135 C133 1.279 . S
C136 C133 1.358 . S
C136 C137 1.356 1_655 S
C136 H173 0.930 . S
C137 C134 1.348 . S
C137 C136 1.356 1_455 S
H138 C132 0.930 . S
H139 C133 0.930 . S
C140 N141 1.314 . S
C140 C142 1.353 . S
C140 H146 0.930 . S
N141 Li91 1.990 . S
N141 C140 1.314 . S
N141 C144 1.279 . S
C142 C140 1.353 . S
C142 C145 1.348 . S
C142 H174 0.929 . S
C143 C144 1.358 . S
C143 C145 1.356 . S
C143 H175 0.930 . S
C144 N141 1.279 . S
C144 C143 1.358 . S
C144 H147 0.930 . S
C145 C142 1.348 . S
C145 C143 1.356 . S
H146 C140 0.930 . S
H147 C144 0.930 . S
O148 Li88 1.985 . S
O148 Li89 1.970 . S
O148 Li90 1.941 1_455 S
O148 C92 1.325 . S
O149 Li88 1.969 1_655 S
O149 Li89 1.938 1_655 S
O149 Li91 1.978 . S
O149 C98 1.324 1_655 S
O150 Li88 1.931 1_655 S
O150 Li90 1.975 . S
O150 Li91 1.970 . S
O150 C120 1.325 . S
O151 Li89 1.961 . S
O151 Li90 1.970 1_455 S
O151 Li91 1.956 1_455 S
O151 C126 1.325 . S
H152 C94 0.929 . S
H153 C95 0.930 . S
H154 C96 0.930 . S
H155 C97 0.930 . S
H156 C99 0.930 . S
H157 C101 0.929 . S
H158 C102 0.930 . S
H159 C103 0.930 . S
H160 C106 0.930 . S
H161 C109 0.929 . S
H162 C114 0.929 . S
H163 C115 0.930 . S
H164 C122 0.929 . S
H165 C123 0.930 . S
H166 C124 0.930 . S
H167 C125 0.930 . S
H168 C127 0.929 . S
H169 C128 0.930 . S
H170 C129 0.930 . S
H171 C130 0.930 . S
H172 C134 0.929 . S
H173 C136 0.930 . S
H174 C142 0.929 . S
H175 C143 0.930 . S
Li176 N193 1.990 . S
Li176 O236 1.966 . S
Li176 O237 1.970 1_655 S
Li176 O238 1.951 1_655 S
Li177 N201 1.990 . S
Li177 O236 1.970 . S
Li177 O237 1.956 1_655 S
Li177 O239 1.970 . S
Li178 N223 1.990 . S
Li178 O236 1.961 1_455 S
Li178 O238 1.956 . S
Li178 O239 1.970 1_455 S
Li179 N229 1.990 . S
Li179 O237 1.961 . S
Li179 O238 1.970 . S
Li179 O239 1.946 1_455 S
C180 C182 1.348 . S
C180 C183 1.356 . S
C180 O236 1.325 . S
N181 C184 1.314 . S
N181 C185 1.279 . S
C182 C180 1.348 . S
C182 C184 1.353 . S
C182 H240 0.929 . S
C183 C180 1.356 . S
C183 C185 1.358 . S
C183 H241 0.930 . S
C184 N181 1.314 . S
C184 C182 1.353 . S
C184 H242 0.930 . S
C185 N181 1.279 . S
C185 C183 1.358 . S
C185 H243 0.930 . S
C186 C189 1.342 1_455 S
C186 C190 1.359 . S
C186 O237 1.325 . S
C187 N188 1.279 1_465 S
C187 C190 1.358 . S
C187 H244 0.930 . S
N188 C187 1.279 1_645 S
N188 C191 1.314 1_545 S
C189 C186 1.342 1_655 S
C189 C191 1.353 . S
C189 H245 0.929 . S
C190 C186 1.359 . S
C190 C187 1.358 . S
C190 H246 0.930 . S
C191 N188 1.314 1_565 S
C191 C189 1.353 . S
C191 H247 0.930 1_565 S
C192 N193 1.286 1_455 S
C192 C197 1.353 . S
C192 H198 0.930 . S
N193 Li176 1.990 . S
N193 C192 1.286 1_655 S
N193 C195 1.307 . S
C194 C195 1.358 . S
C194 C196 1.346 1_655 S
C194 H248 0.930 . S
C195 N193 1.307 . S
C195 C194 1.358 . S
C195 H199 0.930 . S
C196 C194 1.346 1_455 S
C196 C197 1.358 . S
C197 C192 1.353 . S
C197 C196 1.358 . S
C197 H249 0.929 . S
H198 C192 0.930 . S
H199 C195 0.930 . S
C200 N201 1.314 . S
C200 C202 1.353 . S
C200 H206 0.930 . S
N201 Li177 1.990 . S
N201 C200 1.314 . S
N201 C204 1.279 . S
C202 C200 1.353 . S
C202 C205 1.348 . S
C202 H250 0.929 . S
C203 C204 1.358 . S
C203 C205 1.356 . S
C203 H251 0.930 . S
C204 N201 1.279 . S
C204 C203 1.358 . S
C204 H207 0.930 . S
C205 C202 1.348 . S
C205 C203 1.356 . S
H206 C200 0.930 . S
H207 C204 0.930 . S
C208 C210 1.348 . S
C208 C211 1.356 . S
C208 O238 1.325 . S
N209 C212 1.314 . S
N209 C213 1.279 . S
C210 C208 1.348 . S
C210 C212 1.353 . S
C210 H252 0.929 . S
C211 C208 1.356 . S
C211 C213 1.358 . S
C211 H253 0.930 . S
C212 N209 1.314 . S
C212 C210 1.353 . S
C212 H254 0.930 . S
C213 N209 1.279 . S
C213 C211 1.358 . S
C213 H255 0.930 . S
C214 C215 1.351 . S
C214 C216 1.354 1_455 S
C214 O239 1.324 1_455 S
C215 C214 1.351 . S
C215 C217 1.353 . S
C215 H256 0.929 . S
C216 C214 1.354 1_655 S
C216 C218 1.358 . S
C216 H257 0.930 . S
C217 C215 1.353 . S
C217 N219 1.314 . S
C217 H258 0.930 . S
C218 C216 1.358 . S
C218 N219 1.279 1_655 S
C218 H259 0.930 . S
N219 C217 1.314 . S
N219 C218 1.279 1_455 S
C220 C222 1.353 . S
C220 N223 1.314 1_655 S
C220 H226 0.930 . S
C221 N223 1.279 . S
C221 C224 1.358 . S
C221 H227 0.930 . S
C222 C220 1.353 . S
C222 C225 1.334 1_655 S
C222 H260 0.929 . S
N223 Li178 1.990 . S
N223 C220 1.314 1_455 S
N223 C221 1.279 . S
C224 C221 1.358 . S
C224 C225 1.370 . S
C224 H261 0.930 . S
C225 C222 1.334 1_455 S
C225 C224 1.370 . S
H226 C220 0.930 . S
H227 C221 0.930 . S
C228 N229 1.314 . S
C228 C230 1.353 . S
C228 H234 0.930 . S
N229 Li179 1.990 . S
N229 C228 1.314 . S
N229 C232 1.279 . S
C230 C228 1.353 . S
C230 C233 1.348 . S
C230 H262 0.929 . S
C231 C232 1.358 . S
C231 C233 1.356 . S
C231 H263 0.930 . S
C232 N229 1.279 . S
C232 C231 1.358 . S
C232 H235 0.930 . S
C233 C230 1.348 . S
C233 C231 1.356 . S
H234 C228 0.930 . S
H235 C232 0.930 . S
O236 Li176 1.966 . S
O236 Li177 1.970 . S
O236 Li178 1.961 1_655 S
O236 C180 1.325 . S
O237 Li176 1.970 1_455 S
O237 Li177 1.956 1_455 S
O237 Li179 1.961 . S
O237 C186 1.325 . S
O238 Li176 1.951 1_455 S
O238 Li178 1.956 . S
O238 Li179 1.970 . S
O238 C208 1.325 . S
O239 Li177 1.970 . S
O239 Li178 1.970 1_655 S
O239 Li179 1.946 1_655 S
O239 C214 1.324 1_655 S
H240 C182 0.929 . S
H241 C183 0.930 . S
H242 C184 0.930 . S
H243 C185 0.930 . S
H244 C187 0.930 . S
H245 C189 0.929 . S
H246 C190 0.930 . S
H247 C191 0.930 1_545 S
H248 C194 0.930 . S
H249 C197 0.929 . S
H250 C202 0.929 . S
H251 C203 0.930 . S
H252 C210 0.929 . S
H253 C211 0.930 . S
H254 C212 0.930 . S
H255 C213 0.930 . S
H256 C215 0.929 . S
H257 C216 0.930 . S
H258 C217 0.930 . S
H259 C218 0.930 . S
H260 C222 0.929 . S
H261 C224 0.930 . S
H262 C230 0.929 . S
H263 C231 0.930 . S
Li264 N281 1.990 . S
Li264 O324 1.956 1_655 S
Li264 O325 1.970 . S
Li264 O326 1.978 . S
Li265 N289 1.991 . S
Li265 O324 1.970 1_655 S
Li265 O325 1.975 . S
Li265 O327 1.941 1_655 S
Li266 N311 1.990 . S
Li266 O324 1.961 . S
Li266 O326 1.938 1_455 S
Li266 O327 1.970 . S
Li267 N317 1.991 . S
Li267 O325 1.931 1_455 S
Li267 O326 1.969 1_455 S
Li267 O327 1.985 . S
C268 C270 1.346 1_455 S
C268 C271 1.357 . S
C268 O324 1.325 . S
N269 C272 1.314 . S
N269 C273 1.279 1_655 S
C270 C268 1.346 1_655 S
C270 C272 1.353 . S
C270 H328 0.929 . S
C271 C268 1.357 . S
C271 C273 1.358 . S
C271 H329 0.930 . S
C272 N269 1.314 . S
C272 C270 1.353 . S
C272 H330 0.930 . S
C273 N269 1.279 1_455 S
C273 C271 1.358 . S
C273 H331 0.930 . S
C274 C277 1.348 . S
C274 C278 1.356 . S
C274 O325 1.325 . S
C275 N276 1.279 . S
C275 C278 1.358 . S
C275 H332 0.930 . S
N276 C275 1.279 . S
N276 C279 1.314 . S
C277 C274 1.348 . S
C277 C279 1.353 . S
C277 H333 0.929 . S
C278 C274 1.356 . S
C278 C275 1.358 . S
C278 H334 0.930 . S
C279 N276 1.314 . S
C279 C277 1.353 . S
C279 H335 0.930 . S
C280 N281 1.314 . S
C280 C285 1.353 . S
C280 H286 0.930 . S
N281 Li264 1.990 . S
N281 C280 1.314 . S
N281 C283 1.279 . S
C282 C283 1.358 . S
C282 C284 1.356 . S
C282 H336 0.930 . S
C283 N281 1.279 . S
C283 C282 1.358 . S
C283 H287 0.930 . S
C284 C282 1.356 . S
C284 C285 1.348 . S
C285 C280 1.353 . S
C285 C284 1.348 . S
C285 H337 0.929 . S
H286 C280 0.930 . S
H287 C283 0.930 . S
C288 N289 1.314 1_455 S
C288 C290 1.353 . S
C288 H294 0.930 . S
N289 Li265 1.991 . S
N289 C288 1.314 1_655 S
N289 C292 1.279 . S
C290 C288 1.353 . S
C290 C293 1.348 . S
C290 H338 0.929 . S
C291 C292 1.358 . S
C291 C293 1.356 1_655 S
C291 H339 0.930 . S
C292 N289 1.279 . S
C292 C291 1.358 . S
C292 H295 0.930 . S
C293 C290 1.348 . S
C293 C291 1.356 1_455 S
H294 C288 0.930 . S
H295 C292 0.930 . S
C296 C298 1.347 . S
C296 C299 1.356 1_455 S
C296 O326 1.324 1_455 S
N297 C300 1.314 . S
N297 C301 1.279 1_455 S
C298 C296 1.347 . S
C298 C300 1.353 . S
C298 H340 0.929 . S
C299 C296 1.356 1_655 S
C299 C301 1.358 . S
C299 H341 0.930 . S
C300 N297 1.314 . S
C300 C298 1.353 . S
C300 H342 0.930 . S
C301 N297 1.279 1_655 S
C301 C299 1.358 . S
C301 H343 0.930 . S
C302 C303 1.348 . S
C302 C304 1.356 . S
C302 O327 1.325 . S
C303 C302 1.348 . S
C303 C305 1.353 . S
C303 H344 0.929 . S
C304 C302 1.356 . S
C304 C306 1.358 . S
C304 H345 0.930 . S
C305 C303 1.353 . S
C305 N307 1.314 . S
C305 H346 0.930 . S
C306 C304 1.358 . S
C306 N307 1.279 . S
C306 H347 0.930 . S
N307 C305 1.314 . S
N307 C306 1.279 . S
C308 C310 1.353 . S
C308 N311 1.314 . S
C308 H314 0.930 . S
C309 N311 1.279 . S
C309 C312 1.358 . S
C309 H315 0.930 . S
C310 C308 1.353 . S
C310 C313 1.348 . S
C310 H348 0.929 . S
N311 Li266 1.990 . S
N311 C308 1.314 . S
N311 C309 1.279 . S
C312 C309 1.358 . S
C312 C313 1.356 . S
C312 H349 0.930 . S
C313 C310 1.348 . S
C313 C312 1.356 . S
H314 C308 0.930 . S
H315 C309 0.930 . S
C316 N317 1.314 1_655 S
C316 C318 1.353 . S
C316 H322 0.930 . S
N317 Li267 1.991 . S
N317 C316 1.314 1_455 S
N317 C320 1.279 . S
C318 C316 1.353 . S
C318 C321 1.344 1_655 S
C318 H350 0.929 . S
C319 C320 1.358 . S
C319 C321 1.360 . S
C319 H351 0.930 . S
C320 N317 1.279 . S
C320 C319 1.358 . S
C320 H323 0.930 . S
C321 C318 1.344 1_455 S
C321 C319 1.360 . S
H322 C316 0.930 . S
H323 C320 0.930 . S
O324 Li264 1.956 1_455 S
O324 Li265 1.970 1_455 S
O324 Li266 1.961 . S
O324 C268 1.325 . S
O325 Li264 1.970 . S
O325 Li265 1.975 . S
O325 Li267 1.931 1_655 S
O325 C274 1.325 . S
O326 Li264 1.978 . S
O326 Li266 1.938 1_655 S
O326 Li267 1.969 1_655 S
O326 C296 1.324 1_655 S
O327 Li265 1.941 1_455 S
O327 Li266 1.970 . S
O327 Li267 1.985 . S
O327 C302 1.325 . S
H328 C270 0.929 . S
H329 C271 0.930 . S
H330 C272 0.930 . S
H331 C273 0.930 . S
H332 C275 0.930 . S
H333 C277 0.929 . S
H334 C278 0.930 . S
H335 C279 0.930 . S
H336 C282 0.930 . S
H337 C285 0.929 . S
H338 C290 0.929 . S
H339 C291 0.930 . S
H340 C298 0.929 . S
H341 C299 0.930 . S
H342 C300 0.930 . S
H343 C301 0.930 . S
H344 C303 0.929 . S
H345 C304 0.930 . S
H346 C305 0.930 . S
H347 C306 0.930 . S
H348 C310 0.929 . S
H349 C312 0.930 . S
H350 C318 0.929 . S
H351 C319 0.930 . S
Li352 N369 1.990 . S
Li352 O412 1.956 . S
Li352 O413 1.970 . S
Li352 O414 1.961 . S
Li353 N377 1.990 . S
Li353 O412 1.970 . S
Li353 O413 1.956 . S
Li353 O415 1.961 . S
Li354 N399 1.990 . S
Li354 O412 1.961 . S
Li354 O414 1.956 . S
Li354 O415 1.970 . S
Li355 N405 1.990 . S
Li355 O413 1.961 . S
Li355 O414 1.970 . S
Li355 O415 1.956 . S
C356 C358 1.348 . S
C356 C359 1.356 . S
C356 O412 1.325 . S
N357 C360 1.314 . S
N357 C361 1.279 . S
C358 C356 1.348 . S
C358 C360 1.353 . S
C358 H416 0.929 . S
C359 C356 1.356 . S
C359 C361 1.358 . S
C359 H417 0.930 . S
C360 N357 1.314 . S
C360 C358 1.353 . S
C360 H418 0.930 . S
C361 N357 1.279 . S
C361 C359 1.358 . S
C361 H419 0.930 . S
C362 C365 1.348 . S
C362 C366 1.356 . S
C362 O413 1.325 . S
C363 N364 1.279 . S
C363 C366 1.358 . S
C363 H420 0.930 . S
N364 C363 1.279 . S
N364 C367 1.314 . S
C365 C362 1.348 . S
C365 C367 1.353 . S
C365 H421 0.929 . S
C366 C362 1.356 . S
C366 C363 1.358 . S
C366 H422 0.930 . S
C367 N364 1.314 . S
C367 C365 1.353 . S
C367 H423 0.930 . S
C368 N369 1.314 . S
C368 C373 1.353 . S
C368 H374 0.930 . S
N369 Li352 1.990 . S
N369 C368 1.314 . S
N369 C371 1.279 . S
C370 C371 1.358 . S
C370 C372 1.356 . S
C370 H424 0.930 . S
C371 N369 1.279 . S
C371 C370 1.358 . S
C371 H375 0.930 . S
C372 C370 1.356 . S
C372 C373 1.348 . S
C373 C368 1.353 . S
C373 C372 1.348 . S
C373 H425 0.929 . S
H374 C368 0.930 . S
H375 C371 0.930 . S
C376 N377 1.314 . S
C376 C378 1.353 . S
C376 H382 0.930 . S
N377 Li353 1.990 . S
N377 C376 1.314 . S
N377 C380 1.279 . S
C378 C376 1.353 . S
C378 C381 1.348 . S
C378 H426 0.929 . S
C379 C380 1.358 . S
C379 C381 1.356 . S
C379 H427 0.930 . S
C380 N377 1.279 . S
C380 C379 1.358 . S
C380 H383 0.930 . S
C381 C378 1.348 . S
C381 C379 1.356 . S
H382 C376 0.930 . S
H383 C380 0.930 . S
C384 C386 1.348 . S
C384 C387 1.356 . S
C384 O414 1.325 . S
N385 C388 1.314 . S
N385 C389 1.279 . S
C386 C384 1.348 . S
C386 C388 1.353 . S
C386 H428 0.929 . S
C387 C384 1.356 . S
C387 C389 1.358 . S
C387 H429 0.930 . S
C388 N385 1.314 . S
C388 C386 1.353 . S
C388 H430 0.930 . S
C389 N385 1.279 . S
C389 C387 1.358 . S
C389 H431 0.930 . S
C390 C391 1.348 . S
C390 C392 1.356 . S
C390 O415 1.325 . S
C391 C390 1.348 . S
C391 C393 1.353 . S
C391 H432 0.929 . S
C392 C390 1.356 . S
C392 C394 1.358 . S
C392 H433 0.930 . S
C393 C391 1.353 . S
C393 N395 1.314 . S
C393 H434 0.930 . S
C394 C392 1.358 . S
C394 N395 1.279 . S
C394 H435 0.930 . S
N395 C393 1.314 . S
N395 C394 1.279 . S
C396 C398 1.353 . S
C396 N399 1.314 . S
C396 H402 0.930 . S
C397 N399 1.279 . S
C397 C400 1.358 . S
C397 H403 0.930 . S
C398 C396 1.353 . S
C398 C401 1.348 . S
C398 H436 0.929 . S
N399 Li354 1.990 . S
N399 C396 1.314 . S
N399 C397 1.279 . S
C400 C397 1.358 . S
C400 C401 1.356 . S
C400 H437 0.930 . S
C401 C398 1.348 . S
C401 C400 1.356 . S
H402 C396 0.930 . S
H403 C397 0.930 . S
C404 N405 1.314 . S
C404 C406 1.353 . S
C404 H410 0.930 . S
N405 Li355 1.990 . S
N405 C404 1.314 . S
N405 C408 1.279 . S
C406 C404 1.353 . S
C406 C409 1.348 . S
C406 H438 0.929 . S
C407 C408 1.358 . S
C407 C409 1.356 . S
C407 H439 0.930 . S
C408 N405 1.279 . S
C408 C407 1.358 . S
C408 H411 0.930 . S
C409 C406 1.348 . S
C409 C407 1.356 . S
H410 C404 0.930 . S
H411 C408 0.930 . S
O412 Li352 1.956 . S
O412 Li353 1.970 . S
O412 Li354 1.961 . S
O412 C356 1.325 . S
O413 Li352 1.970 . S
O413 Li353 1.956 . S
O413 Li355 1.961 . S
O413 C362 1.325 . S
O414 Li352 1.961 . S
O414 Li354 1.956 . S
O414 Li355 1.970 . S
O414 C384 1.325 . S
O415 Li353 1.961 . S
O415 Li354 1.970 . S
O415 Li355 1.956 . S
O415 C390 1.325 . S
H416 C358 0.929 . S
H417 C359 0.930 . S
H418 C360 0.930 . S
H419 C361 0.930 . S
H420 C363 0.930 . S
H421 C365 0.929 . S
H422 C366 0.930 . S
H423 C367 0.930 . S
H424 C370 0.930 . S
H425 C373 0.929 . S
H426 C378 0.929 . S
H427 C379 0.930 . S
H428 C386 0.929 . S
H429 C387 0.930 . S
H430 C388 0.930 . S
H431 C389 0.930 . S
H432 C391 0.929 . S
H433 C392 0.930 . S
H434 C393 0.930 . S
H435 C394 0.930 . S
H436 C398 0.929 . S
H437 C400 0.930 . S
H438 C406 0.929 . S
H439 C407 0.930 . S
Li440 N457 1.990 . S
Li440 O500 1.956 . S
Li440 O501 1.970 . S
Li440 O502 1.961 . S
Li441 N465 1.990 . S
Li441 O500 1.970 . S
Li441 O501 1.956 . S
Li441 O503 1.961 . S
Li442 N487 1.990 . S
Li442 O500 1.961 . S
Li442 O502 1.956 . S
Li442 O503 1.970 . S
Li443 N493 1.990 . S
Li443 O501 1.961 . S
Li443 O502 1.970 . S
Li443 O503 1.956 . S
C444 C446 1.348 . S
C444 C447 1.356 . S
C444 O500 1.325 . S
N445 C448 1.314 . S
N445 C449 1.279 . S
C446 C444 1.348 . S
C446 C448 1.353 . S
C446 H504 0.929 . S
C447 C444 1.356 . S
C447 C449 1.358 . S
C447 H505 0.930 . S
C448 N445 1.314 . S
C448 C446 1.353 . S
C448 H506 0.930 . S
C449 N445 1.279 . S
C449 C447 1.358 . S
C449 H507 0.930 . S
C450 C453 1.348 . S
C450 C454 1.356 . S
C450 O501 1.325 . S
C451 N452 1.279 1_565 S
C451 C454 1.358 . S
C451 H508 0.930 . S
N452 C451 1.279 1_545 S
N452 C455 1.314 1_545 S
C453 C450 1.348 . S
C453 C455 1.353 . S
C453 H509 0.929 . S
C454 C450 1.356 . S
C454 C451 1.358 . S
C454 H510 0.930 . S
C455 N452 1.314 1_565 S
C455 C453 1.353 . S
C455 H511 0.930 1_565 S
C456 N457 1.314 . S
C456 C461 1.353 . S
C456 H462 0.930 . S
N457 Li440 1.990 . S
N457 C456 1.314 . S
N457 C459 1.279 . S
C458 C459 1.358 . S
C458 C460 1.356 . S
C458 H512 0.930 . S
C459 N457 1.279 . S
C459 C458 1.358 . S
C459 H463 0.930 . S
C460 C458 1.356 . S
C460 C461 1.348 . S
C461 C456 1.353 . S
C461 C460 1.348 . S
C461 H513 0.929 . S
H462 C456 0.930 . S
H463 C459 0.930 . S
C464 N465 1.314 . S
C464 C466 1.353 . S
C464 H470 0.930 . S
N465 Li441 1.990 . S
N465 C464 1.314 . S
N465 C468 1.279 . S
C466 C464 1.353 . S
C466 C469 1.348 . S
C466 H514 0.929 . S
C467 C468 1.358 . S
C467 C469 1.356 . S
C467 H515 0.930 . S
C468 N465 1.279 . S
C468 C467 1.358 . S
C468 H471 0.930 . S
C469 C466 1.348 . S
C469 C467 1.356 . S
H470 C464 0.930 . S
H471 C468 0.930 . S
C472 C474 1.348 . S
C472 C475 1.356 . S
C472 O502 1.325 . S
N473 C476 1.314 . S
N473 C477 1.279 . S
C474 C472 1.348 . S
C474 C476 1.353 . S
C474 H516 0.929 . S
C475 C472 1.356 . S
C475 C477 1.358 . S
C475 H517 0.930 . S
C476 N473 1.314 . S
C476 C474 1.353 . S
C476 H518 0.930 . S
C477 N473 1.279 . S
C477 C475 1.358 . S
C477 H519 0.930 . S
C478 C479 1.348 . S
C478 C480 1.356 . S
C478 O503 1.325 . S
C479 C478 1.348 . S
C479 C481 1.353 . S
C479 H520 0.929 . S
C480 C478 1.356 . S
C480 C482 1.358 . S
C480 H521 0.930 . S
C481 C479 1.353 . S
C481 N483 1.314 . S
C481 H522 0.930 . S
C482 C480 1.358 . S
C482 N483 1.279 . S
C482 H523 0.930 . S
N483 C481 1.314 . S
N483 C482 1.279 . S
C484 C486 1.353 . S
C484 N487 1.314 . S
C484 H490 0.930 . S
C485 N487 1.279 . S
C485 C488 1.358 . S
C485 H491 0.930 . S
C486 C484 1.353 . S
C486 C489 1.348 . S
C486 H524 0.929 . S
N487 Li442 1.990 . S
N487 C484 1.314 . S
N487 C485 1.279 . S
C488 C485 1.358 . S
C488 C489 1.356 . S
C488 H525 0.930 . S
C489 C486 1.348 . S
C489 C488 1.356 . S
H490 C484 0.930 . S
H491 C485 0.930 . S
C492 N493 1.314 . S
C492 C494 1.353 . S
C492 H498 0.930 . S
N493 Li443 1.990 . S
N493 C492 1.314 . S
N493 C496 1.279 . S
C494 C492 1.353 . S
C494 C497 1.348 . S
C494 H526 0.929 . S
C495 C496 1.358 . S
C495 C497 1.356 . S
C495 H527 0.930 . S
C496 N493 1.279 . S
C496 C495 1.358 . S
C496 H499 0.930 . S
C497 C494 1.348 . S
C497 C495 1.356 . S
H498 C492 0.930 . S
H499 C496 0.930 . S
O500 Li440 1.956 . S
O500 Li441 1.970 . S
O500 Li442 1.961 . S
O500 C444 1.325 . S
O501 Li440 1.970 . S
O501 Li441 1.956 . S
O501 Li443 1.961 . S
O501 C450 1.325 . S
O502 Li440 1.961 . S
O502 Li442 1.956 . S
O502 Li443 1.970 . S
O502 C472 1.325 . S
O503 Li441 1.961 . S
O503 Li442 1.970 . S
O503 Li443 1.956 . S
O503 C478 1.325 . S
H504 C446 0.929 . S
H505 C447 0.930 . S
H506 C448 0.930 . S
H507 C449 0.930 . S
H508 C451 0.930 . S
H509 C453 0.929 . S
H510 C454 0.930 . S
H511 C455 0.930 1_545 S
H512 C458 0.930 . S
H513 C461 0.929 . S
H514 C466 0.929 . S
H515 C467 0.930 . S
H516 C474 0.929 . S
H517 C475 0.930 . S
H518 C476 0.930 . S
H519 C477 0.930 . S
H520 C479 0.929 . S
H521 C480 0.930 . S
H522 C481 0.930 . S
H523 C482 0.930 . S
H524 C486 0.929 . S
H525 C488 0.930 . S
H526 C494 0.929 . S
H527 C495 0.930 . S
Li528 N545 1.990 . S
Li528 O588 1.956 . S
Li528 O589 1.970 . S
Li528 O590 1.961 . S
Li529 N553 1.990 . S
Li529 O588 1.970 . S
Li529 O589 1.956 . S
Li529 O591 1.961 . S
Li530 N575 1.990 . S
Li530 O588 1.961 . S
Li530 O590 1.956 . S
Li530 O591 1.970 . S
Li531 N581 1.990 . S
Li531 O589 1.961 . S
Li531 O590 1.970 . S
Li531 O591 1.956 . S
C532 C534 1.348 . S
C532 C535 1.356 . S
C532 O588 1.325 . S
N533 C536 1.314 . S
N533 C537 1.279 . S
C534 C532 1.348 . S
C534 C536 1.353 . S
C534 H592 0.929 . S
C535 C532 1.356 . S
C535 C537 1.358 . S
C535 H593 0.930 . S
C536 N533 1.314 . S
C536 C534 1.353 . S
C536 H594 0.930 . S
C537 N533 1.279 . S
C537 C535 1.358 . S
C537 H595 0.930 . S
C538 C541 1.348 . S
C538 C542 1.356 . S
C538 O589 1.325 . S
C539 N540 1.279 . S
C539 C542 1.358 . S
C539 H596 0.930 . S
N540 C539 1.279 . S
N540 C543 1.314 . S
C541 C538 1.348 . S
C541 C543 1.353 . S
C541 H597 0.929 . S
C542 C538 1.356 . S
C542 C539 1.358 . S
C542 H598 0.930 . S
C543 N540 1.314 . S
C543 C541 1.353 . S
C543 H599 0.930 . S
C544 N545 1.314 . S
C544 C549 1.353 . S
C544 H550 0.930 . S
N545 Li528 1.990 . S
N545 C544 1.314 . S
N545 C547 1.279 . S
C546 C547 1.358 . S
C546 C548 1.356 . S
C546 H600 0.930 . S
C547 N545 1.279 . S
C547 C546 1.358 . S
C547 H551 0.930 . S
C548 C546 1.356 . S
C548 C549 1.348 . S
C549 C544 1.353 . S
C549 C548 1.348 . S
C549 H601 0.929 . S
H550 C544 0.930 . S
H551 C547 0.930 . S
C552 N553 1.314 . S
C552 C554 1.353 . S
C552 H558 0.930 . S
N553 Li529 1.990 . S
N553 C552 1.314 . S
N553 C556 1.279 . S
C554 C552 1.353 . S
C554 C557 1.348 . S
C554 H602 0.929 . S
C555 C556 1.358 . S
C555 C557 1.356 . S
C555 H603 0.930 . S
C556 N553 1.279 . S
C556 C555 1.358 . S
C556 H559 0.930 . S
C557 C554 1.348 . S
C557 C555 1.356 . S
H558 C552 0.930 . S
H559 C556 0.930 . S
C560 C562 1.348 . S
C560 C563 1.356 . S
C560 O590 1.325 . S
N561 C564 1.314 . S
N561 C565 1.279 . S
C562 C560 1.348 . S
C562 C564 1.353 . S
C562 H604 0.929 . S
C563 C560 1.356 . S
C563 C565 1.358 . S
C563 H605 0.930 . S
C564 N561 1.314 . S
C564 C562 1.353 . S
C564 H606 0.930 . S
C565 N561 1.279 . S
C565 C563 1.358 . S
C565 H607 0.930 . S
C566 C567 1.348 . S
C566 C568 1.356 . S
C566 O591 1.325 . S
C567 C566 1.348 . S
C567 C569 1.353 . S
C567 H608 0.929 . S
C568 C566 1.356 . S
C568 C570 1.358 . S
C568 H609 0.930 . S
C569 C567 1.353 . S
C569 N571 1.314 . S
C569 H610 0.930 . S
C570 C568 1.358 . S
C570 N571 1.279 . S
C570 H611 0.930 . S
N571 C569 1.314 . S
N571 C570 1.279 . S
C572 C574 1.353 . S
C572 N575 1.314 . S
C572 H578 0.930 . S
C573 N575 1.279 . S
C573 C576 1.358 . S
C573 H579 0.930 . S
C574 C572 1.353 . S
C574 C577 1.348 . S
C574 H612 0.929 . S
N575 Li530 1.990 . S
N575 C572 1.314 . S
N575 C573 1.279 . S
C576 C573 1.358 . S
C576 C577 1.356 . S
C576 H613 0.930 . S
C577 C574 1.348 . S
C577 C576 1.356 . S
H578 C572 0.930 . S
H579 C573 0.930 . S
C580 N581 1.314 . S
C580 C582 1.353 . S
C580 H586 0.930 . S
N581 Li531 1.990 . S
N581 C580 1.314 . S
N581 C584 1.279 . S
C582 C580 1.353 . S
C582 C585 1.348 . S
C582 H614 0.929 . S
C583 C584 1.358 . S
C583 C585 1.356 . S
C583 H615 0.930 . S
C584 N581 1.279 . S
C584 C583 1.358 . S
C584 H587 0.930 . S
C585 C582 1.348 . S
C585 C583 1.356 . S
H586 C580 0.930 . S
H587 C584 0.930 . S
O588 Li528 1.956 . S
O588 Li529 1.970 . S
O588 Li530 1.961 . S
O588 C532 1.325 . S
O589 Li528 1.970 . S
O589 Li529 1.956 . S
O589 Li531 1.961 . S
O589 C538 1.325 . S
O590 Li528 1.961 . S
O590 Li530 1.956 . S
O590 Li531 1.970 . S
O590 C560 1.325 . S
O591 Li529 1.961 . S
O591 Li530 1.970 . S
O591 Li531 1.956 . S
O591 C566 1.325 . S
H592 C534 0.929 . S
H593 C535 0.930 . S
H594 C536 0.930 . S
H595 C537 0.930 . S
H596 C539 0.930 . S
H597 C541 0.929 . S
H598 C542 0.930 . S
H599 C543 0.930 . S
H600 C546 0.930 . S
H601 C549 0.929 . S
H602 C554 0.929 . S
H603 C555 0.930 . S
H604 C562 0.929 . S
H605 C563 0.930 . S
H606 C564 0.930 . S
H607 C565 0.930 . S
H608 C567 0.929 . S
H609 C568 0.930 . S
H610 C569 0.930 . S
H611 C570 0.930 . S
H612 C574 0.929 . S
H613 C576 0.930 . S
H614 C582 0.929 . S
H615 C583 0.930 . S
Li616 N633 1.990 . S
Li616 O676 1.956 . S
Li616 O677 1.970 . S
Li616 O678 1.961 . S
Li617 N641 1.990 . S
Li617 O676 1.970 . S
Li617 O677 1.956 . S
Li617 O679 1.961 . S
Li618 N663 1.990 . S
Li618 O676 1.961 . S
Li618 O678 1.956 . S
Li618 O679 1.970 . S
Li619 N669 1.990 . S
Li619 O677 1.961 . S
Li619 O678 1.970 . S
Li619 O679 1.956 . S
C620 C622 1.348 . S
C620 C623 1.356 . S
C620 O676 1.325 . S
N621 C624 1.314 . S
N621 C625 1.279 . S
C622 C620 1.348 . S
C622 C624 1.353 . S
C622 H680 0.929 . S
C623 C620 1.356 . S
C623 C625 1.358 . S
C623 H681 0.930 . S
C624 N621 1.314 . S
C624 C622 1.353 . S
C624 H682 0.930 . S
C625 N621 1.279 . S
C625 C623 1.358 . S
C625 H683 0.930 . S
C626 C629 1.348 . S
C626 C630 1.356 . S
C626 O677 1.325 . S
C627 N628 1.279 . S
C627 C630 1.358 . S
C627 H684 0.930 . S
N628 C627 1.279 . S
N628 C631 1.314 . S
C629 C626 1.348 . S
C629 C631 1.353 . S
C629 H685 0.929 . S
C630 C626 1.356 . S
C630 C627 1.358 . S
C630 H686 0.930 . S
C631 N628 1.314 . S
C631 C629 1.353 . S
C631 H687 0.930 . S
C632 N633 1.314 . S
C632 C637 1.353 . S
C632 H638 0.930 . S
N633 Li616 1.990 . S
N633 C632 1.314 . S
N633 C635 1.279 . S
C634 C635 1.358 . S
C634 C636 1.356 . S
C634 H688 0.930 . S
C635 N633 1.279 . S
C635 C634 1.358 . S
C635 H639 0.930 . S
C636 C634 1.356 . S
C636 C637 1.348 . S
C637 C632 1.353 . S
C637 C636 1.348 . S
C637 H689 0.929 . S
H638 C632 0.930 . S
H639 C635 0.930 . S
C640 N641 1.314 . S
C640 C642 1.353 . S
C640 H646 0.930 . S
N641 Li617 1.990 . S
N641 C640 1.314 . S
N641 C644 1.279 . S
C642 C640 1.353 . S
C642 C645 1.348 . S
C642 H690 0.929 . S
C643 C644 1.358 . S
C643 C645 1.356 . S
C643 H691 0.930 . S
C644 N641 1.279 . S
C644 C643 1.358 . S
C644 H647 0.930 . S
C645 C642 1.348 . S
C645 C643 1.356 . S
H646 C640 0.930 . S
H647 C644 0.930 . S
C648 C650 1.348 . S
C648 C651 1.356 . S
C648 O678 1.325 . S
N649 C652 1.314 . S
N649 C653 1.279 . S
C650 C648 1.348 . S
C650 C652 1.353 . S
C650 H692 0.929 . S
C651 C648 1.356 . S
C651 C653 1.358 . S
C651 H693 0.930 . S
C652 N649 1.314 . S
C652 C650 1.353 . S
C652 H694 0.930 . S
C653 N649 1.279 . S
C653 C651 1.358 . S
C653 H695 0.930 . S
C654 C655 1.348 . S
C654 C656 1.356 . S
C654 O679 1.325 . S
C655 C654 1.348 . S
C655 C657 1.353 . S
C655 H696 0.929 . S
C656 C654 1.356 . S
C656 C658 1.358 . S
C656 H697 0.930 . S
C657 C655 1.353 . S
C657 N659 1.314 1_545 S
C657 H698 0.930 1_545 S
C658 C656 1.358 . S
C658 N659 1.279 1_545 S
C658 H699 0.930 . S
N659 C657 1.314 1_565 S
N659 C658 1.279 1_565 S
C660 C662 1.353 . S
C660 N663 1.314 . S
C660 H666 0.930 . S
C661 N663 1.279 . S
C661 C664 1.358 . S
C661 H667 0.930 . S
C662 C660 1.353 . S
C662 C665 1.348 . S
C662 H700 0.929 . S
N663 Li618 1.990 . S
N663 C660 1.314 . S
N663 C661 1.279 . S
C664 C661 1.358 . S
C664 C665 1.356 . S
C664 H701 0.930 . S
C665 C662 1.348 . S
C665 C664 1.356 . S
H666 C660 0.930 . S
H667 C661 0.930 . S
C668 N669 1.314 . S
C668 C670 1.353 . S
C668 H674 0.930 . S
N669 Li619 1.990 . S
N669 C668 1.314 . S
N669 C672 1.279 . S
C670 C668 1.353 . S
C670 C673 1.348 . S
C670 H702 0.929 . S
C671 C672 1.358 . S
C671 C673 1.356 . S
C671 H703 0.930 . S
C672 N669 1.279 . S
C672 C671 1.358 . S
C672 H675 0.930 . S
C673 C670 1.348 . S
C673 C671 1.356 . S
H674 C668 0.930 . S
H675 C672 0.930 . S
O676 Li616 1.956 . S
O676 Li617 1.970 . S
O676 Li618 1.961 . S
O676 C620 1.325 . S
O677 Li616 1.970 . S
O677 Li617 1.956 . S
O677 Li619 1.961 . S
O677 C626 1.325 . S
O678 Li616 1.961 . S
O678 Li618 1.956 . S
O678 Li619 1.970 . S
O678 C648 1.325 . S
O679 Li617 1.961 . S
O679 Li618 1.970 . S
O679 Li619 1.956 . S
O679 C654 1.325 . S
H680 C622 0.929 . S
H681 C623 0.930 . S
H682 C624 0.930 . S
H683 C625 0.930 . S
H684 C627 0.930 . S
H685 C629 0.929 . S
H686 C630 0.930 . S
H687 C631 0.930 . S
H688 C634 0.930 . S
H689 C637 0.929 . S
H690 C642 0.929 . S
H691 C643 0.930 . S
H692 C650 0.929 . S
H693 C651 0.930 . S
H694 C652 0.930 . S
H695 C653 0.930 . S
H696 C655 0.929 . S
H697 C656 0.930 . S
H698 C657 0.930 1_565 S
H699 C658 0.930 . S
H700 C662 0.929 . S
H701 C664 0.930 . S
H702 C670 0.929 . S
H703 C671 0.930 . S
C704 C705 1.354 . S
C704 C706 1.327 . S
C704 H729 0.950 . S
C705 C704 1.354 . S
C705 C721 1.344 1_455 S
C706 C704 1.327 . S
C706 C725 1.433 . S
C706 H730 0.950 . S
C707 C724 1.574 . S
C707 C726 1.364 1_655 S
C707 H731 0.949 . S
H708 C712 0.949 . S
C709 C710 1.346 1_655 S
C709 C711 1.327 . S
C709 H732 0.950 . S
C710 C709 1.346 1_455 S
C710 C722 1.352 . S
C711 C709 1.327 . S
C711 C727 1.425 1_655 S
C711 H733 0.950 . S
C712 H708 0.949 . S
C712 C720 1.574 . S
C712 C728 1.373 . S
H713 C721 0.950 . S
H714 C719 0.950 . S
H715 C720 0.949 . S
H716 C722 0.950 . S
H717 C723 0.950 . S
H718 C724 0.949 . S
C719 H714 0.950 . S
C719 C721 1.327 . S
C719 C725 1.424 1_655 S
C720 C712 1.574 . S
C720 H715 0.949 . S
C720 C726 1.373 . S
C721 C705 1.344 1_655 S
C721 H713 0.950 . S
C721 C719 1.327 . S
C722 C710 1.352 . S
C722 H716 0.950 . S
C722 C723 1.327 . S
C723 H717 0.950 . S
C723 C722 1.327 . S
C723 C727 1.432 . S
C724 C707 1.574 . S
C724 H718 0.949 . S
C724 C728 1.364 1_655 S
C725 C706 1.433 . S
C725 C719 1.424 1_455 S
C725 C726 1.523 . S
C726 C707 1.364 1_455 S
C726 C720 1.373 . S
C726 C725 1.523 . S
C727 C711 1.425 1_455 S
C727 C723 1.432 . S
C727 C728 1.523 . S
C728 C712 1.373 . S
C728 C724 1.364 1_455 S
C728 C727 1.523 . S
H729 C704 0.950 . S
H730 C706 0.950 . S
H731 C707 0.949 . S
H732 C709 0.950 . S
H733 C711 0.950 . S
C734 C735 1.352 . S
C734 C736 1.327 . S
C734 H759 0.950 . S
C735 C734 1.352 . S
C735 C751 1.346 1_455 S
C736 C734 1.327 . S
C736 C755 1.432 . S
C736 H760 0.950 . S
C737 C754 1.574 . S
C737 C756 1.364 1_655 S
C737 H761 0.949 . S
H738 C742 0.949 . S
C739 C740 1.344 1_655 S
C739 C741 1.327 . S
C739 H762 0.950 . S
C740 C739 1.344 1_455 S
C740 C752 1.354 . S
C741 C739 1.327 . S
C741 C757 1.424 1_655 S
C741 H763 0.950 . S
C742 H738 0.949 . S
C742 C750 1.574 . S
C742 C758 1.373 . S
H743 C751 0.950 . S
H744 C749 0.950 . S
H745 C750 0.949 . S
H746 C752 0.950 . S
H747 C753 0.950 . S
H748 C754 0.949 . S
C749 H744 0.950 . S
C749 C751 1.327 . S
C749 C755 1.425 1_655 S
C750 C742 1.574 . S
C750 H745 0.949 . S
C750 C756 1.373 . S
C751 C735 1.346 1_655 S
C751 H743 0.950 . S
C751 C749 1.327 . S
C752 C740 1.354 . S
C752 H746 0.950 . S
C752 C753 1.327 . S
C753 H747 0.950 . S
C753 C752 1.327 . S
C753 C757 1.433 . S
C754 C737 1.574 . S
C754 H748 0.949 . S
C754 C758 1.364 1_655 S
C755 C736 1.432 . S
C755 C749 1.425 1_455 S
C755 C756 1.523 . S
C756 C737 1.364 1_455 S
C756 C750 1.373 . S
C756 C755 1.523 . S
C757 C741 1.424 1_455 S
C757 C753 1.433 . S
C757 C758 1.523 . S
C758 C742 1.373 . S
C758 C754 1.364 1_455 S
C758 C757 1.523 . S
H759 C734 0.950 . S
H760 C736 0.950 . S
H761 C737 0.949 . S
H762 C739 0.950 . S
H763 C741 0.950 . S
C764 C765 1.349 . S
C764 C766 1.327 . S
C764 H789 0.950 . S
C765 C764 1.349 . S
C765 C781 1.349 . S
C766 C764 1.327 . S
C766 C785 1.429 . S
C766 H790 0.950 . S
C767 C784 1.574 . S
C767 C786 1.368 . S
C767 H791 0.949 . S
H768 C772 0.949 . S
C769 C770 1.349 . S
C769 C771 1.327 . S
C769 H792 0.950 . S
C770 C769 1.349 . S
C770 C782 1.349 . S
C771 C769 1.327 . S
C771 C787 1.429 . S
C771 H793 0.950 . S
C772 H768 0.949 . S
C772 C780 1.574 . S
C772 C788 1.368 . S
H773 C781 0.950 . S
H774 C779 0.950 . S
H775 C780 0.949 . S
H776 C782 0.950 . S
H777 C783 0.950 . S
H778 C784 0.949 . S
C779 H774 0.950 . S
C779 C781 1.327 . S
C779 C785 1.429 . S
C780 C772 1.574 . S
C780 H775 0.949 . S
C780 C786 1.368 . S
C781 C765 1.349 . S
C781 H773 0.950 . S
C781 C779 1.327 . S
C782 C770 1.349 . S
C782 H776 0.950 . S
C782 C783 1.327 . S
C783 H777 0.950 . S
C783 C782 1.327 . S
C783 C787 1.429 . S
C784 C767 1.574 . S
C784 H778 0.949 . S
C784 C788 1.368 . S
C785 C766 1.429 . S
C785 C779 1.429 . S
C785 C786 1.523 . S
C786 C767 1.368 . S
C786 C780 1.368 . S
C786 C785 1.523 . S
C787 C771 1.429 . S
C787 C783 1.429 . S
C787 C788 1.523 . S
C788 C772 1.368 . S
C788 C784 1.368 . S
C788 C787 1.523 . S
H789 C764 0.950 . S
H790 C766 0.950 . S
H791 C767 0.949 . S
H792 C769 0.950 . S
H793 C771 0.950 . S
C794 C795 1.349 . S
C794 C796 1.327 . S
C794 H819 0.950 . S
C795 C794 1.349 . S
C795 C811 1.349 . S
C796 C794 1.327 . S
C796 C815 1.429 . S
C796 H820 0.950 . S
C797 C814 1.574 . S
C797 C816 1.368 . S
C797 H821 0.949 . S
H798 C802 0.949 . S
C799 C800 1.349 . S
C799 C801 1.327 . S
C799 H822 0.950 . S
C800 C799 1.349 . S
C800 C812 1.349 . S
C801 C799 1.327 . S
C801 C817 1.429 . S
C801 H823 0.950 . S
C802 H798 0.949 . S
C802 C810 1.574 . S
C802 C818 1.368 . S
H803 C811 0.950 . S
H804 C809 0.950 . S
H805 C810 0.949 . S
H806 C812 0.950 . S
H807 C813 0.950 . S
H808 C814 0.949 . S
C809 H804 0.950 . S
C809 C811 1.327 . S
C809 C815 1.429 . S
C810 C802 1.574 . S
C810 H805 0.949 . S
C810 C816 1.368 . S
C811 C795 1.349 . S
C811 H803 0.950 . S
C811 C809 1.327 . S
C812 C800 1.349 . S
C812 H806 0.950 . S
C812 C813 1.327 . S
C813 H807 0.950 . S
C813 C812 1.327 . S
C813 C817 1.429 . S
C814 C797 1.574 . S
C814 H808 0.949 . S
C814 C818 1.368 . S
C815 C796 1.429 . S
C815 C809 1.429 . S
C815 C816 1.523 . S
C816 C797 1.368 . S
C816 C810 1.368 . S
C816 C815 1.523 . S
C817 C801 1.429 . S
C817 C813 1.429 . S
C817 C818 1.523 . S
C818 C802 1.368 . S
C818 C814 1.368 . S
C818 C817 1.523 . S
H819 C794 0.950 . S
H820 C796 0.950 . S
H821 C797 0.949 . S
H822 C799 0.950 . S
H823 C801 0.950 . S
C824 C825 1.349 . S
C824 C826 1.327 . S
C824 H849 0.950 . S
C825 C824 1.349 . S
C825 C841 1.349 . S
C826 C824 1.327 . S
C826 C845 1.429 . S
C826 H850 0.950 . S
C827 C844 1.574 . S
C827 C846 1.368 . S
C827 H851 0.949 . S
H828 C832 0.949 . S
C829 C830 1.349 . S
C829 C831 1.327 . S
C829 H852 0.950 . S
C830 C829 1.349 . S
C830 C842 1.349 . S
C831 C829 1.327 . S
C831 C847 1.429 . S
C831 H853 0.950 . S
C832 H828 0.949 . S
C832 C840 1.574 . S
C832 C848 1.368 . S
H833 C841 0.950 . S
H834 C839 0.950 . S
H835 C840 0.949 . S
H836 C842 0.950 . S
H837 C843 0.950 . S
H838 C844 0.949 . S
C839 H834 0.950 . S
C839 C841 1.327 . S
C839 C845 1.429 . S
C840 C832 1.574 . S
C840 H835 0.949 . S
C840 C846 1.368 . S
C841 C825 1.349 . S
C841 H833 0.950 . S
C841 C839 1.327 . S
C842 C830 1.349 . S
C842 H836 0.950 . S
C842 C843 1.327 . S
C843 H837 0.950 . S
C843 C842 1.327 . S
C843 C847 1.429 . S
C844 C827 1.574 . S
C844 H838 0.949 . S
C844 C848 1.368 . S
C845 C826 1.429 . S
C845 C839 1.429 . S
C845 C846 1.523 . S
C846 C827 1.368 . S
C846 C840 1.368 . S
C846 C845 1.523 . S
C847 C831 1.429 . S
C847 C843 1.429 . S
C847 C848 1.523 . S
C848 C832 1.368 . S
C848 C844 1.368 . S
C848 C847 1.523 . S
H849 C824 0.950 . S
H850 C826 0.950 . S
H851 C827 0.949 . S
H852 C829 0.950 . S
H853 C831 0.950 . S
C854 C855 1.349 . S
C854 C856 1.327 . S
C854 H879 0.950 . S
C855 C854 1.349 . S
C855 C871 1.349 . S
C856 C854 1.327 . S
C856 C875 1.429 . S
C856 H880 0.950 . S
C857 C874 1.574 . S
C857 C876 1.368 . S
C857 H881 0.949 . S
H858 C862 0.949 . S
C859 C860 1.349 . S
C859 C861 1.327 . S
C859 H882 0.950 . S
C860 C859 1.349 . S
C860 C872 1.349 . S
C861 C859 1.327 . S
C861 C877 1.429 . S
C861 H883 0.950 . S
C862 H858 0.949 . S
C862 C870 1.574 . S
C862 C878 1.368 . S
H863 C871 0.950 . S
H864 C869 0.950 . S
H865 C870 0.949 . S
H866 C872 0.950 . S
H867 C873 0.950 . S
H868 C874 0.949 . S
C869 H864 0.950 . S
C869 C871 1.327 . S
C869 C875 1.429 . S
C870 C862 1.574 . S
C870 H865 0.949 . S
C870 C876 1.368 . S
C871 C855 1.349 . S
C871 H863 0.950 . S
C871 C869 1.327 . S
C872 C860 1.349 . S
C872 H866 0.950 . S
C872 C873 1.327 . S
C873 H867 0.950 . S
C873 C872 1.327 . S
C873 C877 1.429 . S
C874 C857 1.574 . S
C874 H868 0.949 . S
C874 C878 1.368 . S
C875 C856 1.429 . S
C875 C869 1.429 . S
C875 C876 1.523 . S
C876 C857 1.368 . S
C876 C870 1.368 . S
C876 C875 1.523 . S
C877 C861 1.429 . S
C877 C873 1.429 . S
C877 C878 1.523 . S
C878 C862 1.368 . S
C878 C874 1.368 . S
C878 C877 1.523 . S
H879 C854 0.950 . S
H880 C856 0.950 . S
H881 C857 0.949 . S
H882 C859 0.950 . S
H883 C861 0.950 . S
C884 C885 1.349 . S
C884 C886 1.327 . S
C884 H909 0.950 . S
C885 C884 1.349 . S
C885 C901 1.349 . S
C886 C884 1.327 . S
C886 C905 1.429 . S
C886 H910 0.950 . S
C887 C904 1.574 . S
C887 C906 1.368 . S
C887 H911 0.949 . S
H888 C892 0.949 . S
C889 C890 1.349 . S
C889 C891 1.327 . S
C889 H912 0.950 . S
C890 C889 1.349 . S
C890 C902 1.349 . S
C891 C889 1.327 . S
C891 C907 1.429 . S
C891 H913 0.950 . S
C892 H888 0.949 . S
C892 C900 1.574 . S
C892 C908 1.368 . S
H893 C901 0.950 . S
H894 C899 0.950 . S
H895 C900 0.949 . S
H896 C902 0.950 . S
H897 C903 0.950 . S
H898 C904 0.949 . S
C899 H894 0.950 . S
C899 C901 1.327 . S
C899 C905 1.429 . S
C900 C892 1.574 . S
C900 H895 0.949 . S
C900 C906 1.368 . S
C901 C885 1.349 . S
C901 H893 0.950 . S
C901 C899 1.327 . S
C902 C890 1.349 . S
C902 H896 0.950 . S
C902 C903 1.327 . S
C903 H897 0.950 . S
C903 C902 1.327 . S
C903 C907 1.429 . S
C904 C887 1.574 . S
C904 H898 0.949 . S
C904 C908 1.368 . S
C905 C886 1.429 . S
C905 C899 1.429 . S
C905 C906 1.523 . S
C906 C887 1.368 . S
C906 C900 1.368 . S
C906 C905 1.523 . S
C907 C891 1.429 . S
C907 C903 1.429 . S
C907 C908 1.523 . S
C908 C892 1.368 . S
C908 C904 1.368 . S
C908 C907 1.523 . S
H909 C884 0.950 . S
H910 C886 0.950 . S
H911 C887 0.949 . S
H912 C889 0.950 . S
H913 C891 0.950 . S
C914 C915 1.349 . S
C914 C916 1.327 . S
C914 H939 0.950 . S
C915 C914 1.349 . S
C915 C931 1.349 . S
C916 C914 1.327 . S
C916 C935 1.429 . S
C916 H940 0.950 . S
C917 C934 1.574 . S
C917 C936 1.368 . S
C917 H941 0.949 . S
H918 C922 0.949 . S
C919 C920 1.349 . S
C919 C921 1.327 . S
C919 H942 0.950 . S
C920 C919 1.349 . S
C920 C932 1.349 . S
C921 C919 1.327 . S
C921 C937 1.429 . S
C921 H943 0.950 . S
C922 H918 0.949 . S
C922 C930 1.574 . S
C922 C938 1.368 . S
H923 C931 0.950 . S
H924 C929 0.950 . S
H925 C930 0.949 . S
H926 C932 0.950 . S
H927 C933 0.950 . S
H928 C934 0.949 . S
C929 H924 0.950 . S
C929 C931 1.327 . S
C929 C935 1.429 . S
C930 C922 1.574 . S
C930 H925 0.949 . S
C930 C936 1.368 . S
C931 C915 1.349 . S
C931 H923 0.950 . S
C931 C929 1.327 . S
C932 C920 1.349 . S
C932 H926 0.950 . S
C932 C933 1.327 . S
C933 H927 0.950 . S
C933 C932 1.327 . S
C933 C937 1.429 . S
C934 C917 1.574 . S
C934 H928 0.949 . S
C934 C938 1.368 . S
C935 C916 1.429 . S
C935 C929 1.429 . S
C935 C936 1.523 . S
C936 C917 1.368 . S
C936 C930 1.368 . S
C936 C935 1.523 . S
C937 C921 1.429 . S
C937 C933 1.429 . S
C937 C938 1.523 . S
C938 C922 1.368 . S
C938 C934 1.368 . S
C938 C937 1.523 . S
H939 C914 0.950 . S
H940 C916 0.950 . S
H941 C917 0.949 . S
H942 C919 0.950 . S
H943 C921 0.950 . S
C944 C945 1.349 . S
C944 C946 1.327 . S
C944 H969 0.950 . S
C945 C944 1.349 . S
C945 C961 1.349 . S
C946 C944 1.327 . S
C946 C965 1.429 . S
C946 H970 0.950 . S
C947 C964 1.574 . S
C947 C966 1.368 . S
C947 H971 0.949 . S
H948 C952 0.949 . S
C949 C950 1.349 . S
C949 C951 1.327 . S
C949 H972 0.950 . S
C950 C949 1.349 . S
C950 C962 1.349 . S
C951 C949 1.327 . S
C951 C967 1.429 . S
C951 H973 0.950 . S
C952 H948 0.949 . S
C952 C960 1.574 . S
C952 C968 1.368 . S
H953 C961 0.950 . S
H954 C959 0.950 . S
H955 C960 0.949 . S
H956 C962 0.950 . S
H957 C963 0.950 . S
H958 C964 0.949 . S
C959 H954 0.950 . S
C959 C961 1.327 . S
C959 C965 1.429 . S
C960 C952 1.574 . S
C960 H955 0.949 . S
C960 C966 1.368 . S
C961 C945 1.349 . S
C961 H953 0.950 . S
C961 C959 1.327 . S
C962 C950 1.349 . S
C962 H956 0.950 . S
C962 C963 1.327 . S
C963 H957 0.950 . S
C963 C962 1.327 . S
C963 C967 1.429 . S
C964 C947 1.574 . S
C964 H958 0.949 . S
C964 C968 1.368 . S
C965 C946 1.429 . S
C965 C959 1.429 . S
C965 C966 1.523 . S
C966 C947 1.368 . S
C966 C960 1.368 . S
C966 C965 1.523 . S
C967 C951 1.429 . S
C967 C963 1.429 . S
C967 C968 1.523 . S
C968 C952 1.368 . S
C968 C964 1.368 . S
C968 C967 1.523 . S
H969 C944 0.950 . S
H970 C946 0.950 . S
H971 C947 0.949 . S
H972 C949 0.950 . S
H973 C951 0.950 . S
C974 C975 1.349 . S
C974 C976 1.327 . S
C974 H999 0.950 . S
C975 C974 1.349 . S
C975 C991 1.349 . S
C976 C974 1.327 . S
C976 C995 1.429 . S
C976 H1000 0.950 . S
C977 C994 1.574 . S
C977 C996 1.368 . S
C977 H1001 0.949 . S
H978 C982 0.949 . S
C979 C980 1.349 . S
C979 C981 1.327 . S
C979 H1002 0.950 . S
C980 C979 1.349 . S
C980 C992 1.349 . S
C981 C979 1.327 . S
C981 C997 1.429 . S
C981 H1003 0.950 . S
C982 H978 0.949 . S
C982 C990 1.574 . S
C982 C998 1.368 . S
H983 C991 0.950 . S
H984 C989 0.950 . S
H985 C990 0.949 . S
H986 C992 0.950 . S
H987 C993 0.950 . S
H988 C994 0.949 . S
C989 H984 0.950 . S
C989 C991 1.327 . S
C989 C995 1.429 . S
C990 C982 1.574 . S
C990 H985 0.949 . S
C990 C996 1.368 . S
C991 C975 1.349 . S
C991 H983 0.950 . S
C991 C989 1.327 . S
C992 C980 1.349 . S
C992 H986 0.950 . S
C992 C993 1.327 . S
C993 H987 0.950 . S
C993 C992 1.327 . S
C993 C997 1.429 . S
C994 C977 1.574 . S
C994 H988 0.949 . S
C994 C998 1.368 . S
C995 C976 1.429 . S
C995 C989 1.429 . S
C995 C996 1.523 . S
C996 C977 1.368 . S
C996 C990 1.368 . S
C996 C995 1.523 . S
C997 C981 1.429 . S
C997 C993 1.429 . S
C997 C998 1.523 . S
C998 C982 1.368 . S
C998 C994 1.368 . S
C998 C997 1.523 . S
H999 C974 0.950 . S
H1000 C976 0.950 . S
H1001 C977 0.949 . S
H1002 C979 0.950 . S
H1003 C981 0.950 . S
C1004 C1005 1.349 . S
C1004 C1006 1.327 . S
C1004 H1029 0.950 . S
C1005 C1004 1.349 . S
C1005 C1021 1.349 . S
C1006 C1004 1.327 . S
C1006 C1025 1.429 . S
C1006 H1030 0.950 . S
C1007 C1024 1.574 . S
C1007 C1026 1.368 . S
C1007 H1031 0.949 . S
H1008 C1012 0.949 . S
C1009 C1010 1.349 . S
C1009 C1011 1.327 . S
C1009 H1032 0.950 . S
C1010 C1009 1.349 . S
C1010 C1022 1.349 . S
C1011 C1009 1.327 . S
C1011 C1027 1.429 . S
C1011 H1033 0.950 . S
C1012 H1008 0.949 . S
C1012 C1020 1.574 . S
C1012 C1028 1.368 . S
H1013 C1021 0.950 . S
H1014 C1019 0.950 . S
H1015 C1020 0.949 . S
H1016 C1022 0.950 . S
H1017 C1023 0.950 . S
H1018 C1024 0.949 . S
C1019 H1014 0.950 . S
C1019 C1021 1.327 . S
C1019 C1025 1.429 . S
C1020 C1012 1.574 . S
C1020 H1015 0.949 . S
C1020 C1026 1.368 . S
C1021 C1005 1.349 . S
C1021 H1013 0.950 . S
C1021 C1019 1.327 . S
C1022 C1010 1.349 . S
C1022 H1016 0.950 . S
C1022 C1023 1.327 . S
C1023 H1017 0.950 . S
C1023 C1022 1.327 . S
C1023 C1027 1.429 . S
C1024 C1007 1.574 . S
C1024 H1018 0.949 . S
C1024 C1028 1.368 . S
C1025 C1006 1.429 . S
C1025 C1019 1.429 . S
C1025 C1026 1.523 . S
C1026 C1007 1.368 . S
C1026 C1020 1.368 . S
C1026 C1025 1.523 . S
C1027 C1011 1.429 . S
C1027 C1023 1.429 . S
C1027 C1028 1.523 . S
C1028 C1012 1.368 . S
C1028 C1024 1.368 . S
C1028 C1027 1.523 . S
H1029 C1004 0.950 . S
H1030 C1006 0.950 . S
H1031 C1007 0.949 . S
H1032 C1009 0.950 . S
H1033 C1011 0.950 . S
C1034 C1035 1.349 . S
C1034 C1036 1.327 . S
C1034 H1059 0.950 . S
C1035 C1034 1.349 . S
C1035 C1051 1.349 . S
C1036 C1034 1.327 . S
C1036 C1055 1.429 . S
C1036 H1060 0.950 . S
C1037 C1054 1.574 . S
C1037 C1056 1.368 . S
C1037 H1061 0.949 . S
H1038 C1042 0.949 . S
C1039 C1040 1.349 . S
C1039 C1041 1.327 . S
C1039 H1062 0.950 . S
C1040 C1039 1.349 . S
C1040 C1052 1.349 . S
C1041 C1039 1.327 . S
C1041 C1057 1.429 . S
C1041 H1063 0.950 . S
C1042 H1038 0.949 . S
C1042 C1050 1.574 . S
C1042 C1058 1.368 . S
H1043 C1051 0.950 . S
H1044 C1049 0.950 . S
H1045 C1050 0.949 . S
H1046 C1052 0.950 . S
H1047 C1053 0.950 . S
H1048 C1054 0.949 . S
C1049 H1044 0.950 . S
C1049 C1051 1.327 . S
C1049 C1055 1.429 . S
C1050 C1042 1.574 . S
C1050 H1045 0.949 . S
C1050 C1056 1.368 . S
C1051 C1035 1.349 . S
C1051 H1043 0.950 . S
C1051 C1049 1.327 . S
C1052 C1040 1.349 . S
C1052 H1046 0.950 . S
C1052 C1053 1.327 . S
C1053 H1047 0.950 . S
C1053 C1052 1.327 . S
C1053 C1057 1.429 . S
C1054 C1037 1.574 . S
C1054 H1048 0.949 . S
C1054 C1058 1.368 . S
C1055 C1036 1.429 . S
C1055 C1049 1.429 . S
C1055 C1056 1.523 . S
C1056 C1037 1.368 . S
C1056 C1050 1.368 . S
C1056 C1055 1.523 . S
C1057 C1041 1.429 . S
C1057 C1053 1.429 . S
C1057 C1058 1.523 . S
C1058 C1042 1.368 . S
C1058 C1054 1.368 . S
C1058 C1057 1.523 . S
H1059 C1034 0.950 . S
H1060 C1036 0.950 . S
H1061 C1037 0.949 . S
H1062 C1039 0.950 . S
H1063 C1041 0.950 . S
C1064 C1065 1.339 1_655 S
C1064 C1066 1.327 . S
C1064 H1089 0.950 . S
C1065 C1064 1.339 1_455 S
C1065 C1081 1.359 . S
C1066 C1064 1.327 . S
C1066 C1085 1.419 1_655 S
C1066 H1090 0.950 . S
C1067 C1084 1.574 1_554 S
C1067 C1086 1.380 1_565 S
C1067 H1091 0.949 . S
H1068 C1072 0.949 . S
C1069 C1070 1.359 . S
C1069 C1071 1.327 . S
C1069 H1092 0.950 . S
C1070 C1069 1.359 . S
C1070 C1082 1.339 1_455 S
C1071 C1069 1.327 . S
C1071 C1087 1.439 . S
C1071 H1093 0.950 . S
C1072 H1068 0.949 . S
C1072 C1080 1.574 1_556 S
C1072 C1088 1.357 1_645 S
H1073 C1081 0.950 . S
H1074 C1079 0.950 1_565 S
H1075 C1080 0.949 . S
H1076 C1082 0.950 . S
H1077 C1083 0.950 1_545 S
H1078 C1084 0.949 . S
C1079 H1074 0.950 1_545 S
C1079 C1081 1.327 . S
C1079 C1085 1.439 . S
C1080 C1072 1.574 1_554 S
C1080 H1075 0.949 . S
C1080 C1086 1.357 1_655 S
C1081 C1065 1.359 . S
C1081 H1073 0.950 . S
C1081 C1079 1.327 . S
C1082 C1070 1.339 1_655 S
C1082 H1076 0.950 . S
C1082 C1083 1.327 . S
C1083 H1077 0.950 1_565 S
C1083 C1082 1.327 . S
C1083 C1087 1.419 1_655 S
C1084 C1067 1.574 1_556 S
C1084 H1078 0.949 . S
C1084 C1088 1.380 . S
C1085 C1066 1.419 1_455 S
C1085 C1079 1.439 . S
C1085 C1086 1.523 . S
C1086 C1067 1.380 1_545 S
C1086 C1080 1.357 1_455 S
C1086 C1085 1.523 . S
C1087 C1071 1.439 . S
C1087 C1083 1.419 1_455 S
C1087 C1088 1.523 . S
C1088 C1072 1.357 1_465 S
C1088 C1084 1.380 . S
C1088 C1087 1.523 . S
H1089 C1064 0.950 . S
H1090 C1066 0.950 . S
H1091 C1067 0.949 . S
H1092 C1069 0.950 . S
H1093 C1071 0.950 . S
C1094 C1095 1.351 1_455 S
C1094 C1096 1.327 . S
C1094 H1119 0.950 . S
C1095 C1094 1.351 1_655 S
C1095 C1111 1.347 . S
C1096 C1094 1.327 . S
C1096 C1115 1.430 1_455 S
C1096 H1120 0.950 . S
C1097 C1114 1.574 1_556 S
C1097 C1116 1.366 . S
C1097 H1121 0.949 . S
H1098 C1102 0.949 . S
C1099 C1100 1.347 . S
C1099 C1101 1.327 . S
C1099 H1122 0.950 . S
C1100 C1099 1.347 . S
C1100 C1112 1.351 1_655 S
C1101 C1099 1.327 . S
C1101 C1117 1.427 . S
C1101 H1123 0.950 . S
C1102 H1098 0.949 . S
C1102 C1110 1.574 1_554 S
C1102 C1118 1.370 1_455 S
H1103 C1111 0.950 . S
H1104 C1109 0.950 . S
H1105 C1110 0.949 . S
H1106 C1112 0.950 . S
H1107 C1113 0.950 . S
H1108 C1114 0.949 . S
C1109 H1104 0.950 . S
C1109 C1111 1.327 . S
C1109 C1115 1.427 . S
C1110 C1102 1.574 1_556 S
C1110 H1105 0.949 . S
C1110 C1116 1.370 1_455 S
C1111 C1095 1.347 . S
C1111 H1103 0.950 . S
C1111 C1109 1.327 . S
C1112 C1100 1.351 1_455 S
C1112 H1106 0.950 . S
C1112 C1113 1.327 . S
C1113 H1107 0.950 . S
C1113 C1112 1.327 . S
C1113 C1117 1.430 1_455 S
C1114 C1097 1.574 1_554 S
C1114 H1108 0.949 . S
C1114 C1118 1.366 . S
C1115 C1096 1.430 1_655 S
C1115 C1109 1.427 . S
C1115 C1116 1.523 . S
C1116 C1097 1.366 . S
C1116 C1110 1.370 1_655 S
C1116 C1115 1.523 . S
C1117 C1101 1.427 . S
C1117 C1113 1.430 1_655 S
C1117 C1118 1.523 . S
C1118 C1102 1.370 1_655 S
C1118 C1114 1.366 . S
C1118 C1117 1.523 . S
H1119 C1094 0.950 . S
H1120 C1096 0.950 . S
H1121 C1097 0.949 . S
H1122 C1099 0.950 . S
H1123 C1101 0.950 . S
C1124 C1125 1.349 . S
C1124 C1126 1.327 . S
C1124 H1149 0.950 . S
C1125 C1124 1.349 . S
C1125 C1141 1.349 . S
C1126 C1124 1.327 . S
C1126 C1145 1.429 . S
C1126 H1150 0.950 . S
C1127 C1144 1.574 . S
C1127 C1146 1.368 . S
C1127 H1151 0.949 . S
H1128 C1132 0.949 . S
C1129 C1130 1.349 . S
C1129 C1131 1.327 . S
C1129 H1152 0.950 . S
C1130 C1129 1.349 . S
C1130 C1142 1.349 . S
C1131 C1129 1.327 . S
C1131 C1147 1.429 . S
C1131 H1153 0.950 . S
C1132 H1128 0.949 . S
C1132 C1140 1.574 . S
C1132 C1148 1.368 . S
H1133 C1141 0.950 . S
H1134 C1139 0.950 . S
H1135 C1140 0.949 . S
H1136 C1142 0.950 . S
H1137 C1143 0.950 . S
H1138 C1144 0.949 . S
C1139 H1134 0.950 . S
C1139 C1141 1.327 . S
C1139 C1145 1.429 . S
C1140 C1132 1.574 . S
C1140 H1135 0.949 . S
C1140 C1146 1.368 . S
C1141 C1125 1.349 . S
C1141 H1133 0.950 . S
C1141 C1139 1.327 . S
C1142 C1130 1.349 . S
C1142 H1136 0.950 . S
C1142 C1143 1.327 . S
C1143 H1137 0.950 . S
C1143 C1142 1.327 . S
C1143 C1147 1.429 . S
C1144 C1127 1.574 . S
C1144 H1138 0.949 . S
C1144 C1148 1.368 . S
C1145 C1126 1.429 . S
C1145 C1139 1.429 . S
C1145 C1146 1.523 . S
C1146 C1127 1.368 . S
C1146 C1140 1.368 . S
C1146 C1145 1.523 . S
C1147 C1131 1.429 . S
C1147 C1143 1.429 . S
C1147 C1148 1.523 . S
C1148 C1132 1.368 . S
C1148 C1144 1.368 . S
C1148 C1147 1.523 . S
H1149 C1124 0.950 . S
H1150 C1126 0.950 . S
H1151 C1127 0.949 . S
H1152 C1129 0.950 . S
H1153 C1131 0.950 . S
C1154 C1155 1.349 . S
C1154 C1156 1.327 . S
C1154 H1179 0.950 . S
C1155 C1154 1.349 . S
C1155 C1171 1.349 . S
C1156 C1154 1.327 . S
C1156 C1175 1.429 . S
C1156 H1180 0.950 . S
C1157 C1174 1.574 1_565 S
C1157 C1176 1.368 . S
C1157 H1181 0.949 . S
H1158 C1162 0.949 . S
C1159 C1160 1.349 . S
C1159 C1161 1.327 . S
C1159 H1182 0.950 . S
C1160 C1159 1.349 . S
C1160 C1172 1.349 . S
C1161 C1159 1.327 . S
C1161 C1177 1.429 . S
C1161 H1183 0.950 . S
C1162 H1158 0.949 . S
C1162 C1170 1.574 1_545 S
C1162 C1178 1.368 . S
H1163 C1171 0.950 . S
H1164 C1169 0.950 . S
H1165 C1170 0.949 . S
H1166 C1172 0.950 . S
H1167 C1173 0.950 . S
H1168 C1174 0.949 . S
C1169 H1164 0.950 . S
C1169 C1171 1.327 . S
C1169 C1175 1.429 . S
C1170 C1162 1.574 1_565 S
C1170 H1165 0.949 . S
C1170 C1176 1.368 . S
C1171 C1155 1.349 . S
C1171 H1163 0.950 . S
C1171 C1169 1.327 . S
C1172 C1160 1.349 . S
C1172 H1166 0.950 . S
C1172 C1173 1.327 . S
C1173 H1167 0.950 . S
C1173 C1172 1.327 . S
C1173 C1177 1.429 . S
C1174 C1157 1.574 1_545 S
C1174 H1168 0.949 . S
C1174 C1178 1.368 . S
C1175 C1156 1.429 . S
C1175 C1169 1.429 . S
C1175 C1176 1.523 . S
C1176 C1157 1.368 . S
C1176 C1170 1.368 . S
C1176 C1175 1.523 . S
C1177 C1161 1.429 . S
C1177 C1173 1.429 . S
C1177 C1178 1.523 . S
C1178 C1162 1.368 . S
C1178 C1174 1.368 . S
C1178 C1177 1.523 . S
H1179 C1154 0.950 . S
H1180 C1156 0.950 . S
H1181 C1157 0.949 . S
H1182 C1159 0.950 . S
H1183 C1161 0.950 . S
C705 C137 1.515 . S
C710 C20 1.515 . S
C735 C225 1.515 . S
C740 C293 1.515 . S
C765 C381 1.515 . S
C770 C489 1.515 . S
C795 C585 1.515 . S
C800 C636 1.515 . S
C825 C645 1.375 . S
C830 C29 1.375 . S
C855 C577 1.375 . S
C860 C145 1.375 . S
C885 C233 1.375 . S
C890 C497 1.375 . S
C915 C372 1.375 . S
C920 C284 1.375 . S
C945 C469 1.382 . S
C950 C205 1.382 . S
C975 C401 1.382 . S
C980 C313 1.382 . S
C1005 C673 1.382 . S
C1010 C57 1.382 . S
C1035 C117 1.382 . S
C1040 C548 1.382 . S
C1065 C49 1.096 . S
C1070 C196 1.096 . S
C1095 C321 1.096 1_655 S
C1100 C108 1.096 1_655 S
C1125 C557 1.096 . S
C1130 C409 1.096 . S
C1155 C460 1.096 . S
C1160 C665 1.096 . S
