# Generated by pormake.
# Topology whh, (6)-cn, num edge types: 1
# Building blocks:
#     Node 0, Type 0, BuildingBlock: MAKGUD_clean_sbu_1, # of connection points: 6
#     Node 1, Type 0, BuildingBlock: MAKGUD_clean_sbu_1, # of connection points: 6
#     Node 2, Type 0, BuildingBlock: MAKGUD_clean_sbu_1, # of connection points: 6
#     Node 3, Type 0, BuildingBlock: MAKGUD_clean_sbu_1, # of connection points: 6
#     Node 4, Type 0, BuildingBlock: MAKGUD_clean_sbu_1, # of connection points: 6
#     Node 5, Type 0, BuildingBlock: MAKGUD_clean_sbu_1, # of connection points: 6
#     Node 6, Type 0, BuildingBlock: MAKGUD_clean_sbu_1, # of connection points: 6
#     Node 7, Type 0, BuildingBlock: MAKGUD_clean_sbu_1, # of connection points: 6
#     Node 8, Type 0, BuildingBlock: MAKGUD_clean_sbu_1, # of connection points: 6
#     Node 9, Type 0, BuildingBlock: MAKGUD_clean_sbu_1, # of connection points: 6
#     Node 10, Type 0, BuildingBlock: MAKGUD_clean_sbu_1, # of connection points: 6
#     Node 11, Type 0, BuildingBlock: MAKGUD_clean_sbu_1, # of connection points: 6
#     Node 12, Type 0, BuildingBlock: MAKGUD_clean_sbu_1, # of connection points: 6
#     Node 13, Type 0, BuildingBlock: MAKGUD_clean_sbu_1, # of connection points: 6
#     Node 14, Type 0, BuildingBlock: MAKGUD_clean_sbu_1, # of connection points: 6
#     Node 15, Type 0, BuildingBlock: MAKGUD_clean_sbu_1, # of connection points: 6
#     Edge 16, Type (0, 0), BuildingBlock: KIFKEQ_clean_linker_1, # of connection points: 2
#     Edge 17, Type (0, 0), BuildingBlock: KIFKEQ_clean_linker_1, # of connection points: 2
#     Edge 18, Type (0, 0), BuildingBlock: KIFKEQ_clean_linker_1, # of connection points: 2
#     Edge 19, Type (0, 0), BuildingBlock: KIFKEQ_clean_linker_1, # of connection points: 2
#     Edge 20, Type (0, 0), BuildingBlock: KIFKEQ_clean_linker_1, # of connection points: 2
#     Edge 21, Type (0, 0), BuildingBlock: KIFKEQ_clean_linker_1, # of connection points: 2
#     Edge 22, Type (0, 0), BuildingBlock: KIFKEQ_clean_linker_1, # of connection points: 2
#     Edge 23, Type (0, 0), BuildingBlock: KIFKEQ_clean_linker_1, # of connection points: 2
#     Edge 24, Type (0, 0), BuildingBlock: KIFKEQ_clean_linker_1, # of connection points: 2
#     Edge 25, Type (0, 0), BuildingBlock: KIFKEQ_clean_linker_1, # of connection points: 2
#     Edge 26, Type (0, 0), BuildingBlock: KIFKEQ_clean_linker_1, # of connection points: 2
#     Edge 27, Type (0, 0), BuildingBlock: KIFKEQ_clean_linker_1, # of connection points: 2
#     Edge 28, Type (0, 0), BuildingBlock: KIFKEQ_clean_linker_1, # of connection points: 2
#     Edge 29, Type (0, 0), BuildingBlock: KIFKEQ_clean_linker_1, # of connection points: 2
#     Edge 30, Type (0, 0), BuildingBlock: KIFKEQ_clean_linker_1, # of connection points: 2
#     Edge 31, Type (0, 0), BuildingBlock: KIFKEQ_clean_linker_1, # of connection points: 2
#     Edge 32, Type (0, 0), BuildingBlock: KIFKEQ_clean_linker_1, # of connection points: 2
#     Edge 33, Type (0, 0), BuildingBlock: KIFKEQ_clean_linker_1, # of connection points: 2
#     Edge 34, Type (0, 0), BuildingBlock: KIFKEQ_clean_linker_1, # of connection points: 2
#     Edge 35, Type (0, 0), BuildingBlock: KIFKEQ_clean_linker_1, # of connection points: 2
#     Edge 36, Type (0, 0), BuildingBlock: KIFKEQ_clean_linker_1, # of connection points: 2
#     Edge 37, Type (0, 0), BuildingBlock: KIFKEQ_clean_linker_1, # of connection points: 2
#     Edge 38, Type (0, 0), BuildingBlock: KIFKEQ_clean_linker_1, # of connection points: 2
#     Edge 39, Type (0, 0), BuildingBlock: KIFKEQ_clean_linker_1, # of connection points: 2
#     Edge 40, Type (0, 0), BuildingBlock: KIFKEQ_clean_linker_1, # of connection points: 2
#     Edge 41, Type (0, 0), BuildingBlock: KIFKEQ_clean_linker_1, # of connection points: 2
#     Edge 42, Type (0, 0), BuildingBlock: KIFKEQ_clean_linker_1, # of connection points: 2
#     Edge 43, Type (0, 0), BuildingBlock: KIFKEQ_clean_linker_1, # of connection points: 2
#     Edge 44, Type (0, 0), BuildingBlock: KIFKEQ_clean_linker_1, # of connection points: 2
#     Edge 45, Type (0, 0), BuildingBlock: KIFKEQ_clean_linker_1, # of connection points: 2
#     Edge 46, Type (0, 0), BuildingBlock: KIFKEQ_clean_linker_1, # of connection points: 2
#     Edge 47, Type (0, 0), BuildingBlock: KIFKEQ_clean_linker_1, # of connection points: 2
#     Edge 48, Type (0, 0), BuildingBlock: KIFKEQ_clean_linker_1, # of connection points: 2
#     Edge 49, Type (0, 0), BuildingBlock: KIFKEQ_clean_linker_1, # of connection points: 2
#     Edge 50, Type (0, 0), BuildingBlock: KIFKEQ_clean_linker_1, # of connection points: 2
#     Edge 51, Type (0, 0), BuildingBlock: KIFKEQ_clean_linker_1, # of connection points: 2
#     Edge 52, Type (0, 0), BuildingBlock: KIFKEQ_clean_linker_1, # of connection points: 2
#     Edge 53, Type (0, 0), BuildingBlock: KIFKEQ_clean_linker_1, # of connection points: 2
#     Edge 54, Type (0, 0), BuildingBlock: KIFKEQ_clean_linker_1, # of connection points: 2
#     Edge 55, Type (0, 0), BuildingBlock: KIFKEQ_clean_linker_1, # of connection points: 2
#     Edge 56, Type (0, 0), BuildingBlock: KIFKEQ_clean_linker_1, # of connection points: 2
#     Edge 57, Type (0, 0), BuildingBlock: KIFKEQ_clean_linker_1, # of connection points: 2
#     Edge 58, Type (0, 0), BuildingBlock: KIFKEQ_clean_linker_1, # of connection points: 2
#     Edge 59, Type (0, 0), BuildingBlock: KIFKEQ_clean_linker_1, # of connection points: 2
#     Edge 60, Type (0, 0), BuildingBlock: KIFKEQ_clean_linker_1, # of connection points: 2
#     Edge 61, Type (0, 0), BuildingBlock: KIFKEQ_clean_linker_1, # of connection points: 2
#     Edge 62, Type (0, 0), BuildingBlock: KIFKEQ_clean_linker_1, # of connection points: 2
#     Edge 63, Type (0, 0), BuildingBlock: KIFKEQ_clean_linker_1, # of connection points: 2
# Relax obj value: 0.311
# Max RMSD: 0.214
# Mean RMSD: 0.214
data_MOF--net-whh--node1-MAKGUD_clean_sbu_1--edge1-KIFKEQ_clean_linker_1
_symmetry_space_group_name_H-M    P1
_symmetry_Int_Tables_number       1
_symmetry_cell_setting            triclinic
loop_
_symmetry_equiv_pos_as_xyz
'x, y, z'
_cell_length_a     40.626426
_cell_length_b     40.776252
_cell_length_c     35.753874
_cell_angle_alpha  90.000286
_cell_angle_beta   90.09665
_cell_angle_gamma 89.973964
loop_
_atom_site_label
_atom_site_type_symbol
_atom_site_fract_x
_atom_site_fract_y
_atom_site_fract_z
_atom_type_partial_charge
O0 O 0.1582 0.72295 0.03037 0.0
Tb1 Tb 0.11148 0.71159 0.05916 0.0
C2 C 0.06691 0.70767 0.13025 0.0
O3 O 0.05543 0.66457 0.06194 0.0
Tb4 Tb 1.03217 0.64349 0.11067 0.0
C5 C 0.06592 0.59945 0.15004 0.0
O6 O 0.10127 0.6655 0.02821 0.0
O7 O 0.97979 0.63126 0.11057 0.0
C8 C 0.9595 0.63604 0.08228 0.0
O9 O 0.96979 0.65181 0.05247 0.0
O10 O 0.09145 0.69327 0.11218 0.0
O11 O 1.03975 0.69078 0.13676 0.0
O12 O 0.07756 0.75209 0.04889 0.0
C13 C 0.07473 0.64916 0.03857 0.0
C14 C 0.17462 0.73186 0.06007 0.0
O15 O 0.05707 0.59586 0.1152 0.0
O16 O 0.05601 0.62788 0.16208 0.0
C17 C 0.08829 0.78177 0.04105 0.0
O18 O 0.11988 0.78632 0.03529 0.0
O19 O 0.15562 0.72859 0.0891 0.0
O20 O 0.83722 0.15437 0.04482 0.0
Tb21 Tb 0.87564 0.12208 0.0674 0.0
C22 C 0.87856 0.08326 0.14298 0.0
O23 O 0.93034 0.08582 0.08053 0.0
Tb24 Tb 0.9477 0.05414 0.12391 0.0
C25 C 0.98837 0.08194 0.17277 0.0
O26 O 0.91558 0.10878 0.02846 0.0
O27 O 0.96148 1.00333 0.11211 0.0
C28 C 0.95595 0.98846 0.08001 0.0
O29 O 0.93916 1.00357 0.05373 0.0
O30 O 0.88893 0.11026 0.12596 0.0
O31 O 0.89778 0.05701 0.14566 0.0
O32 O 0.83798 0.08433 0.06512 0.0
C33 C 0.93714 0.08992 0.04525 0.0
C34 C 0.84786 0.18147 0.05982 0.0
O35 O 0.99331 0.08059 0.13682 0.0
O36 O 0.96062 0.06767 0.18086 0.0
C37 C 0.81125 0.08803 0.08541 0.0
O38 O 0.808 0.11481 0.10553 0.0
O39 O 0.8748 0.17524 0.07844 0.0
O40 O 0.50871 0.96113 0.13997 0.0
Tb41 Tb 0.54094 0.9352 0.10135 0.0
C42 C 0.49992 0.924 0.03017 0.0
O43 O 0.48137 0.88881 0.1078 0.0
Tb44 Tb 0.46275 0.86417 0.05776 0.0
C45 C 0.40066 0.84137 0.05829 0.0
O46 O 0.53045 0.89407 0.13746 0.0
O47 O 0.4985 0.82467 0.05156 0.0
C48 C 0.49363 0.79672 0.06912 0.0
O49 O 0.46601 0.79255 0.08755 0.0
O50 O 0.52043 0.91004 0.05342 0.0
O51 O 0.47221 0.90815 0.02318 0.0
O52 O 0.59391 0.94079 0.10636 0.0
C53 C 0.50387 0.87656 0.13061 0.0
C54 C 0.51164 0.98993 0.12469 0.0
O55 O 0.41756 0.85028 0.08765 0.0
O56 O 0.4186 0.84612 0.02854 0.0
C57 C 0.61267 0.94243 0.07652 0.0
O58 O 0.59963 0.9364 0.04364 0.0
O59 O 0.53062 0.9876 0.09545 0.0
O60 O 0.72754 0.42228 0.04545 0.0
Tb61 Tb 0.69409 0.45556 0.07538 0.0
C62 C 0.70331 0.49442 0.15014 0.0
O63 O 0.66101 0.51556 0.03914 0.0
Tb64 Tb 0.65624 0.53172 0.09623 0.0
C65 C 0.60007 0.51213 0.12798 0.0
O66 O 0.64708 0.46302 0.04623 0.0
O67 O 0.65309 0.58505 0.09551 0.0
C68 C 0.64225 0.59974 0.06507 0.0
O69 O 0.63868 0.58226 0.03449 0.0
O70 O 0.69392 0.46626 0.13516 0.0
O71 O 0.69728 0.52305 0.13407 0.0
O72 O 0.73153 0.49302 0.06577 0.0
C73 C 0.64165 0.49135 0.02985 0.0
C74 C 0.72108 0.39613 0.06506 0.0
O75 O 0.60442 0.53911 0.10942 0.0
O76 O 0.62747 0.49562 0.12798 0.0
C77 C 0.76042 0.48785 0.08157 0.0
O78 O 0.76453 0.46051 0.10048 0.0
O79 O 0.69866 0.40331 0.08977 0.0
O80 O 0.16155 0.83608 0.43275 0.0
Tb81 Tb 0.12746 0.87233 0.40892 0.0
C82 C 0.08472 0.87061 0.33484 0.0
O83 O 0.06697 0.90344 0.43392 0.0
Tb84 Tb 0.04633 0.92134 0.38256 0.0
C85 C 0.07849 0.96989 0.34854 0.0
O86 O 0.11923 0.91503 0.4448 0.0
O87 O 0.99427 0.93325 0.38927 0.0
C88 C 0.98566 0.96443 0.39008 0.0
O89 O 1.00869 0.98674 0.3862 0.0
O90 O 0.11328 0.87918 0.35007 0.0
O91 O 0.05593 0.87728 0.35039 0.0
O92 O 0.09057 0.83475 0.41866 0.0
C93 C 0.08824 0.92222 0.45089 0.0
C94 C 0.18724 0.84446 0.41324 0.0
O95 O 0.07308 0.96808 0.38425 0.0
O96 O 0.06559 0.94451 0.33223 0.0
C97 C 0.09084 0.80911 0.39637 0.0
O98 O 0.11358 0.80716 0.37042 0.0
O99 O 0.17945 0.86929 0.39201 0.0
O100 O 0.73838 0.15042 0.44868 0.0
Tb101 Tb 0.70786 0.11365 0.42025 0.0
C102 C 0.70715 0.07412 0.34477 0.0
O103 O 0.66434 0.05898 0.41579 0.0
Tb104 Tb 0.64352 1.0376 0.3663 0.0
C105 C 0.59615 0.0715 0.33235 0.0
O106 O 0.66475 0.10072 0.45471 0.0
O107 O 0.63274 0.98534 0.36286 0.0
C108 C 0.64127 0.9634 0.3881 0.0
O109 O 0.66053 0.97194 0.416 0.0
O110 O 0.69346 0.09879 0.36318 0.0
O111 O 0.69039 0.04668 0.33932 0.0
O112 O 0.75188 0.0832 0.42605 0.0
C113 C 0.64885 0.07496 0.442 0.0
C114 C 0.73001 0.17547 0.42828 0.0
O115 O 0.59351 0.05766 0.3651 0.0
O116 O 0.62558 0.06642 0.3193 0.0
C117 C 0.754 0.05144 0.4197 0.0
O118 O 0.72757 1.03456 0.41112 0.0
O119 O 0.70832 0.16587 0.40363 0.0
O120 O 0.42545 0.71957 0.43051 0.0
Tb121 Tb 0.4651 0.69642 0.39782 0.0
C122 C 0.503 0.70111 0.32187 0.0
O123 O 0.52655 0.66475 0.42735 0.0
Tb124 Tb 0.54477 0.65506 0.37215 0.0
C125 C 0.52441 0.59743 0.34496 0.0
O126 O 0.47379 0.65021 0.42745 0.0
O127 O 0.59822 0.65314 0.36917 0.0
C128 C 0.61663 0.65543 0.39937 0.0
O129 O 0.60338 0.66651 0.43036 0.0
O130 O 0.47627 0.68984 0.33855 0.0
O131 O 0.53301 0.69496 0.33439 0.0
O132 O 0.50095 0.73536 0.40663 0.0
C133 C 0.50397 0.64436 0.43891 0.0
C134 C 0.40383 0.72048 0.40354 0.0
O135 O 0.55008 0.60204 0.36597 0.0
O136 O 0.50977 0.62543 0.33986 0.0
C137 C 0.49376 0.76444 0.39288 0.0
O138 O 0.46508 0.76836 0.37643 0.0
O139 O 0.41657 0.70724 0.37383 0.0
O140 O 0.83278 0.42347 0.45708 0.0
Tb141 Tb 0.86751 0.45909 0.43317 0.0
C142 C 0.86696 0.50244 0.36052 0.0
O143 O 0.91041 0.51069 0.43004 0.0
Tb144 Tb 0.93209 0.53632 0.3842 0.0
C145 C 0.97605 0.50534 0.34243 0.0
O146 O 0.91084 0.46925 0.46869 0.0
O147 O 0.94447 0.58751 0.39355 0.0
C148 C 0.97545 0.59512 0.39989 0.0
O149 O 0.99759 0.57165 0.40024 0.0
O150 O 0.88002 0.47587 0.37617 0.0
O151 O 0.88417 0.53001 0.35851 0.0
O152 O 0.82964 0.49674 0.43786 0.0
C153 C 0.92587 0.49575 0.45697 0.0
C154 C 0.84176 0.39848 0.43677 0.0
O155 O 0.97835 0.50894 0.37865 0.0
O156 O 0.94909 0.519 0.33037 0.0
C157 C 0.8011 0.49202 0.4212 0.0
O158 O 0.79552 0.46359 0.40513 0.0
O159 O 0.86571 0.40757 0.4148 0.0
O160 O 0.92459 0.33816 0.95434 0.0
Tb161 Tb 0.96335 0.36482 0.92391 0.0
C162 C 1.00359 0.36436 0.84888 0.0
O163 O 0.99742 0.42222 0.90326 0.0
Tb164 Tb 1.03032 0.4356 0.85908 0.0
C165 C 1.00493 0.4722 0.8048 0.0
O166 O 0.97694 0.40871 0.95733 0.0
O167 O 0.08184 0.44748 0.86962 0.0
C168 C 0.09666 0.4431 0.90199 0.0
O169 O 0.08048 0.42989 0.92996 0.0
O170 O 0.97662 0.3756 0.86525 0.0
O171 O 1.02852 0.38445 0.84189 0.0
O172 O 0.99684 0.32335 0.92988 0.0
C173 C 0.99444 0.43013 0.93838 0.0
C174 C 0.90123 0.34241 0.92978 0.0
O175 O 1.00754 0.48134 0.83962 0.0
O176 O 1.01646 0.44262 0.80099 0.0
C177 C 1.02877 0.32596 0.92444 0.0
O178 O 0.04175 0.35498 0.91843 0.0
O179 O 0.91272 0.3602 0.90247 0.0
O180 O 0.21468 0.91726 0.93311 0.0
Tb181 Tb 0.20514 0.96332 0.90272 0.0
C182 C 0.19125 0.99814 0.82503 0.0
O183 O 0.15764 1.01631 0.89942 0.0
Tb184 Tb 0.1334 0.03966 0.85283 0.0
C185 C 0.07928 1.01342 0.823 0.0
O186 O 0.16172 0.97431 0.93797 0.0
O187 O 0.13128 0.09309 0.85368 0.0
C188 C 0.14262 0.11001 0.8823 0.0
O189 O 0.15925 0.09474 0.90861 0.0
O190 O 0.18006 0.97717 0.85029 0.0
O191 O 0.17432 1.02515 0.81779 0.0
O192 O 0.2461 0.99675 0.91408 0.0
C193 C 0.14432 0.99968 0.92659 0.0
C194 C 0.22666 0.90092 0.9049 0.0
O195 O 0.08053 1.0286 0.85503 0.0
O196 O 0.10854 1.01291 0.80843 0.0
C197 C 0.24676 1.02701 0.90114 0.0
O198 O 0.2212 1.03839 0.88284 0.0
O199 O 0.2257 0.91956 0.87534 0.0
O200 O 0.6553 0.23364 0.95686 0.0
Tb201 Tb 0.61474 0.20955 0.92665 0.0
C202 C 0.5713 0.22077 0.85539 0.0
O203 O 0.55096 0.17433 0.94295 0.0
Tb204 Tb 0.53207 0.16232 0.88855 0.0
C205 C 0.56594 0.11739 0.85036 0.0
O206 O 0.6033 0.16379 0.95685 0.0
O207 O 0.47973 0.15088 0.88505 0.0
C208 C 0.45896 0.15586 0.91269 0.0
O209 O 0.46883 0.17167 0.94269 0.0
O210 O 0.5984 0.20642 0.86811 0.0
O211 O 0.54169 0.21029 0.86499 0.0
O212 O 0.58448 0.25302 0.93605 0.0
C213 C 0.57231 0.15457 0.95842 0.0
C214 C 0.67788 0.22909 0.93153 0.0
O215 O 0.55451 0.11348 0.88406 0.0
O216 O 0.55839 0.14659 0.83861 0.0
C217 C 0.59535 0.28011 0.92019 0.0
O218 O 0.6231 0.27847 0.90145 0.0
O219 O 0.66502 0.21257 0.90389 0.0
O220 O 0.3286 0.65353 0.94269 0.0
Tb221 Tb 0.36065 0.61535 0.91921 0.0
C222 C 0.36736 0.57025 0.84926 0.0
O223 O 0.42782 0.59289 0.90235 0.0
Tb224 Tb 0.44098 0.55351 0.86511 0.0
C225 C 0.47727 0.56977 0.80616 0.0
O226 O 0.40178 0.60167 0.95623 0.0
O227 O 0.45619 0.50635 0.88839 0.0
C228 C 0.48725 0.50171 0.8976 0.0
O229 O 0.50776 0.52647 0.89473 0.0
O230 O 0.37515 0.59928 0.86301 0.0
O231 O 0.39018 0.54714 0.84678 0.0
O232 O 0.31765 0.58386 0.92511 0.0
C233 C 0.42786 0.59021 0.93876 0.0
C234 C 0.33828 0.67748 0.92132 0.0
O235 O 0.48674 0.57265 0.84087 0.0
O236 O 0.44749 0.55818 0.80505 0.0
C237 C 0.31862 0.55164 0.92346 0.0
O238 O 0.34699 0.53661 0.91944 0.0
O239 O 0.36156 0.66665 0.89947 0.0
O240 O 0.93325 0.23802 0.52786 0.0
Tb241 Tb 0.96657 0.20307 0.5559 0.0
C242 C 1.00194 0.21027 0.63477 0.0
O243 O 1.02998 0.1722 0.52739 0.0
Tb244 Tb 0.04349 0.16421 0.58465 0.0
C245 C 1.01847 0.10864 0.61218 0.0
O246 O 0.97722 0.15781 0.52456 0.0
O247 O 0.09687 0.16071 0.59055 0.0
C248 C 0.11665 0.16333 0.56155 0.0
O249 O 0.10479 0.17438 0.52974 0.0
O250 O 0.9745 0.20234 0.61668 0.0
O251 O 1.03166 0.20481 0.62113 0.0
O252 O 1.00471 0.23983 0.54676 0.0
C253 C 1.0078 0.15197 0.5145 0.0
C254 C 0.90606 0.22772 0.54315 0.0
O255 O 0.04711 0.11185 0.59658 0.0
O256 O 1.00365 0.13687 0.61194 0.0
C257 C 1.00273 0.26752 0.56563 0.0
O258 O 0.97739 0.27194 0.58787 0.0
O259 O 0.91298 0.20307 0.56499 0.0
O260 O 0.35168 0.91868 0.53598 0.0
Tb261 Tb 0.3654 0.96355 0.56698 0.0
C262 C 0.37708 0.99742 0.64543 0.0
O263 O 0.41679 1.01111 0.57617 0.0
Tb264 Tb 0.44017 1.03466 0.62299 0.0
C265 C 0.4882 1.00557 0.66126 0.0
O266 O 0.40871 0.97548 0.53136 0.0
O267 O 0.44754 0.0875 0.62023 0.0
C268 C 0.44096 0.10511 0.59026 0.0
O269 O 0.42596 0.09134 0.56171 0.0
O270 O 0.38808 0.97509 0.6216 0.0
O271 O 0.3953 1.02351 0.6531 0.0
O272 O 0.32435 0.99761 0.55859 0.0
C273 C 0.42809 0.9983 0.54539 0.0
C274 C 0.34303 0.90127 0.56496 0.0
O275 O 0.48995 1.01359 0.62596 0.0
O276 O 0.45937 1.01349 0.67415 0.0
C277 C 0.32551 1.0284 0.56979 0.0
O278 O 0.35282 0.0398 0.58448 0.0
O279 O 0.34779 0.91878 0.59487 0.0
O280 O 0.6562 0.33057 0.52248 0.0
Tb281 Tb 0.62182 0.36518 0.54896 0.0
C282 C 0.58032 0.36176 0.62305 0.0
O283 O 0.55996 0.39732 0.51545 0.0
Tb284 Tb 0.54171 0.40965 0.57017 0.0
C285 C 0.56565 0.4654 0.59874 0.0
O286 O 0.61357 0.4092 0.51538 0.0
O287 O 0.4883 0.41555 0.57231 0.0
C288 C 0.47302 0.42825 0.54313 0.0
O289 O 0.4897 0.43204 0.51203 0.0
O290 O 0.60891 0.3704 0.60808 0.0
O291 O 0.55149 0.36853 0.60737 0.0
O292 O 0.58487 0.32693 0.54285 0.0
C293 C 0.58386 0.41565 0.50293 0.0
C294 C 0.68242 0.33966 0.54079 0.0
O295 O 0.54368 0.46322 0.57244 0.0
O296 O 0.57479 0.43599 0.60811 0.0
C297 C 0.59015 0.29986 0.56201 0.0
O298 O 0.61768 0.29751 0.5812 0.0
O299 O 0.67453 0.36351 0.56337 0.0
O300 O 0.23059 0.65635 0.53045 0.0
Tb301 Tb 0.21069 0.61308 0.5601 0.0
C302 C 0.21277 0.56866 0.63168 0.0
O303 O 0.17538 0.55475 0.52397 0.0
Tb304 Tb 0.16575 0.53207 0.57702 0.0
C305 C 0.10938 0.55431 0.60567 0.0
O306 O 0.16295 0.60759 0.5316 0.0
O307 O 0.16205 0.47878 0.5768 0.0
C308 C 0.15175 0.46347 0.54655 0.0
O309 O 0.14905 0.48017 0.51533 0.0
O310 O 0.20272 0.5971 0.61783 0.0
O311 O 0.20689 0.54041 0.61472 0.0
O312 O 0.24917 0.57739 0.54712 0.0
C313 C 0.15566 0.57916 0.51618 0.0
C314 C 0.23513 0.67467 0.55992 0.0
O315 O 0.11198 0.53209 0.57985 0.0
O316 O 0.13863 0.56398 0.61535 0.0
C317 C 0.27569 0.57728 0.56846 0.0
O318 O 0.27805 0.59958 0.59486 0.0
O319 O 0.22548 0.65836 0.58918 0.0
H320 H 0.76225 0.54833 0.04647 0.0
H321 H 0.82057 0.48234 0.11404 0.0
H322 H 0.80786 0.58797 0.04683 0.0
H323 H 0.86555 0.52117 0.11397 0.0
H324 H 0.9156 0.62863 0.02411 0.0
H325 H 0.86539 0.59543 0.02342 0.0
H326 H 0.87896 0.57392 0.14069 0.0
H327 H 0.92915 0.60635 0.14124 0.0
C328 C 0.78472 0.54223 0.06125 0.0
C329 C 0.78766 0.51217 0.08027 0.0
C330 C 0.81086 0.56487 0.06139 0.0
C331 C 0.84028 0.55795 0.08082 0.0
C332 C 0.84309 0.52773 0.09941 0.0
C333 C 0.81724 0.50525 0.09917 0.0
C334 C 0.9076 0.61718 0.04986 0.0
C335 C 0.92668 0.61986 0.08263 0.0
C336 C 0.87874 0.59822 0.04947 0.0
C337 C 0.86838 0.58155 0.08185 0.0
C338 C 0.88659 0.58577 0.11502 0.0
C339 C 0.91534 0.60456 0.11538 0.0
H340 H 0.09681 0.84227 0.00961 0.0
H341 H 1.02928 0.7863 0.07747 0.0
H342 H 0.06211 0.89087 0.01711 0.0
H343 H 0.99484 0.83509 0.08537 0.0
H344 H 0.97424 0.94176 0.13065 0.0
H345 H 1.00362 0.89043 0.11872 0.0
H346 H 1.00399 0.91181 0.00049 0.0
H347 H 0.97411 0.96296 0.01235 0.0
C348 C 0.07439 0.84026 0.02581 0.0
C349 C 0.06574 0.81039 0.04281 0.0
C350 C 0.05447 0.86807 0.02999 0.0
C351 C 1.02577 0.86682 0.05187 0.0
C352 C 1.01688 0.83684 0.06848 0.0
C353 C 1.03649 0.80885 0.06372 0.0
C354 C 0.98026 0.93531 0.10207 0.0
C355 C 0.97167 0.9563 0.07243 0.0
C356 C 0.99696 0.90586 0.09523 0.0
C357 C 1.00607 0.89705 0.05866 0.0
C358 C 0.99734 0.91797 0.02897 0.0
C359 C 0.98003 0.94712 0.03574 0.0
H360 H 0.65475 0.95755 0.01944 0.0
H361 H 0.6462 0.96 0.13987 0.0
H362 H 0.70552 0.98908 0.02334 0.0
H363 H 0.69742 0.99092 0.1438 0.0
H364 H 0.75662 0.08652 0.12944 0.0
H365 H 0.71218 0.04669 0.12872 0.0
H366 H 0.76273 0.99148 0.04311 0.0
H367 H 0.80712 1.03197 0.04326 0.0
C368 C 0.66407 0.96418 0.04682 0.0
C369 C 0.64619 0.95656 0.07932 0.0
C370 C 0.6933 0.98218 0.04906 0.0
C371 C 0.70536 0.99291 0.08386 0.0
C372 C 0.68846 0.98362 0.11649 0.0
C373 C 0.6592 0.96568 0.11425 0.0
C374 C 0.75835 0.06587 0.11047 0.0
C375 C 0.78523 0.06264 0.08606 0.0
C376 C 0.73299 0.04279 0.11036 0.0
C377 C 0.73384 1.01583 0.08585 0.0
C378 C 0.76113 1.01216 0.06203 0.0
C379 C 0.78661 1.03529 0.0622 0.0
H380 H 0.54845 0.791 0.0248 0.0
H381 H 0.49706 0.74396 0.11582 0.0
H382 H 0.5895 0.74702 0.02544 0.0
H383 H 0.53778 0.70013 0.11631 0.0
H384 H 0.6282 0.63675 0.1272 0.0
H385 H 0.59597 0.68737 0.12961 0.0
H386 H 0.59025 0.68825 0.009 0.0
H387 H 0.62257 0.638 0.00656 0.0
C388 C 0.54596 0.77135 0.04498 0.0
C389 C 0.51924 0.77076 0.06988 0.0
C390 C 0.56943 0.74613 0.04531 0.0
C391 C 0.56693 0.71998 0.07088 0.0
C392 C 0.54069 0.72 0.09649 0.0
C393 C 0.5171 0.74497 0.0959 0.0
C394 C 0.62068 0.64813 0.10118 0.0
C395 C 0.62786 0.63321 0.06669 0.0
C396 C 0.60195 0.67699 0.10258 0.0
C397 C 0.59024 0.69172 0.06951 0.0
C398 C 0.59903 0.67775 0.035 0.0
C399 C 0.6175 0.64881 0.03362 0.0
H400 H 0.96202 1.02676 0.38885 0.0
H401 H 0.93085 0.92633 0.40375 0.0
H402 H 0.90601 0.04536 0.3977 0.0
H403 H 0.87426 0.94523 0.41389 0.0
H404 H 0.77163 0.99228 0.38888 0.0
H405 H 0.82708 0.96953 0.38297 0.0
H406 H 0.86597 0.05195 0.44484 0.0
H407 H 0.811 0.07508 0.44949 0.0
C408 C 0.9432 1.00856 0.39425 0.0
C409 C 0.95102 0.97499 0.39558 0.0
C410 C 0.91097 1.01932 0.39968 0.0
C411 C 0.88548 0.9969 0.40697 0.0
C412 C 0.89319 0.9632 0.4081 0.0
C413 C 0.92564 0.95236 0.40245 0.0
C414 C 0.79203 1.00534 0.4015 0.0
C415 C 0.78692 1.03565 0.41937 0.0
C416 C 0.82383 0.99224 0.39822 0.0
C417 C 0.85119 1.00906 0.41299 0.0
C418 C 0.8457 1.03867 0.43225 0.0
C419 C 0.81408 0.05187 0.43516 0.0
H420 H 0.64019 0.91638 0.44333 0.0
H421 H 0.60517 0.93662 0.33152 0.0
H422 H 0.60665 0.86653 0.44493 0.0
H423 H 0.57236 0.88683 0.33289 0.0
H424 H 0.48405 0.82637 0.36706 0.0
H425 H 0.52262 0.87167 0.3657 0.0
H426 H 0.59653 0.81097 0.41832 0.0
H427 H 0.55733 0.7652 0.4202 0.0
C428 C 0.62587 0.90991 0.41884 0.0
C429 C 0.62511 0.93073 0.38745 0.0
C430 C 0.60668 0.88129 0.41975 0.0
C431 C 0.58636 0.87295 0.38929 0.0
C432 C 0.58709 0.8929 0.35721 0.0
C433 C 0.60611 0.92141 0.35634 0.0
C434 C 0.50847 0.82252 0.37844 0.0
C435 C 0.51758 0.79205 0.39367 0.0
C436 C 0.53075 0.84852 0.37738 0.0
C437 C 0.56288 0.84489 0.39142 0.0
C438 C 0.57194 0.8146 0.40733 0.0
C439 C 0.54952 0.78838 0.40835 0.0
H440 H 0.65674 0.64545 0.46004 0.0
H441 H 0.64943 0.62602 0.34152 0.0
H442 H 0.70391 0.60864 0.46421 0.0
H443 H 0.69697 0.58974 0.3456 0.0
H444 H 0.74548 0.49223 0.37858 0.0
H445 H 0.70499 0.53565 0.37176 0.0
H446 H 0.76103 0.59681 0.44721 0.0
H447 H 0.80162 0.55282 0.45452 0.0
C448 C 0.66565 0.63398 0.43468 0.0
C449 C 0.64902 0.6385 0.40051 0.0
C450 C 0.6928 0.61287 0.43708 0.0
C451 C 0.70397 0.59579 0.40536 0.0
C452 C 0.68859 0.60193 0.37075 0.0
C453 C 0.66146 0.623 0.36836 0.0
C454 C 0.74921 0.51486 0.39388 0.0
C455 C 0.77664 0.51887 0.41747 0.0
C456 C 0.72612 0.53998 0.38959 0.0
C457 C 0.72975 0.56987 0.4088 0.0
C458 C 0.75733 0.57402 0.43223 0.0
C459 C 0.78061 0.54884 0.43638 0.0
H460 H 0.06407 0.78416 0.46041 0.0
H461 H 0.06372 0.77382 0.34025 0.0
H462 H 1.03011 0.73444 0.46583 0.0
H463 H 1.02903 0.72505 0.34562 0.0
H464 H 0.94635 0.65078 0.37279 0.0
H465 H 0.96853 0.70679 0.37523 0.0
H466 H 0.05013 0.67251 0.442 0.0
H467 H 1.02883 0.6166 0.43851 0.0
C468 C 0.05601 0.77173 0.43523 0.0
C469 C 0.06661 0.78249 0.39996 0.0
C470 C 1.03671 0.7434 0.43832 0.0
C471 C 1.02697 0.72617 0.40611 0.0
C472 C 1.036 0.73813 0.3708 0.0
C473 C 0.05597 0.76582 0.36778 0.0
C474 C 0.9687 0.65538 0.38849 0.0
C475 C 0.98598 0.62941 0.40528 0.0
C476 C 0.98133 0.68731 0.38986 0.0
C477 C 1.01086 0.6938 0.40898 0.0
C478 C 1.02712 0.66813 0.42747 0.0
C479 C 1.01502 0.63616 0.42526 0.0
H480 H 0.12641 0.46226 0.96712 0.0
H481 H 0.14358 0.45202 0.84854 0.0
H482 H 0.18131 0.48635 0.97466 0.0
H483 H 0.19857 0.47549 0.85624 0.0
H484 H 0.30689 0.49086 0.89385 0.0
H485 H 0.25411 0.46186 0.89038 0.0
H486 H 0.20723 0.54108 0.95003 0.0
H487 H 0.2597 0.57034 0.95293 0.0
C488 C 0.14208 0.46469 0.9428 0.0
C489 C 0.13071 0.45526 0.90724 0.0
C490 C 0.17339 0.47862 0.94708 0.0
C491 C 0.19419 0.48272 0.91603 0.0
C492 C 0.18317 0.47237 0.88069 0.0
C493 C 0.15165 0.4591 0.87628 0.0
C494 C 0.28538 0.50189 0.90656 0.0
C495 C 0.28742 0.53285 0.92369 0.0
C496 C 0.25518 0.48539 0.90439 0.0
C497 C 0.22662 0.49921 0.92001 0.0
C498 C 0.2289 0.52973 0.93805 0.0
C499 C 0.25889 0.54652 0.93953 0.0
H500 H 0.08435 0.31785 0.88257 0.0
H501 H 1.01833 0.26616 0.95646 0.0
H502 H 0.11511 0.26693 0.87186 0.0
H503 H 0.04976 0.2156 0.94665 0.0
H504 H 0.13835 0.1431 0.9484 0.0
H505 H 0.11313 0.19666 0.95958 0.0
H506 H 0.096 0.20798 0.84121 0.0
H507 H 0.12047 0.15386 0.8299 0.0
C508 C 0.07676 0.29576 0.89699 0.0
C509 C 0.04903 0.29597 0.9205 0.0
C510 C 0.09423 0.26665 0.89067 0.0
C511 C 0.08482 0.23746 0.90853 0.0
C512 C 0.05763 0.23787 0.93276 0.0
C513 C 1.03965 0.26674 0.93831 0.0
C514 C 0.12968 0.15717 0.92465 0.0
C515 C 0.13141 0.14423 0.88823 0.0
C516 C 0.11508 0.18772 0.93114 0.0
C517 C 0.10259 0.20632 0.90128 0.0
C518 C 0.1056 0.19413 0.86468 0.0
C519 C 0.11954 0.16319 0.85825 0.0
H520 H 0.29969 1.01781 0.94785 0.0
H521 H 0.26194 0.08249 0.86221 0.0
H522 H 0.3499 0.05098 0.95166 0.0
H523 H 0.31215 0.11518 0.86576 0.0
H524 H 0.42509 0.13438 0.85135 0.0
H525 H 0.37298 0.10443 0.84991 0.0
H526 H 0.36697 0.11034 0.97021 0.0
H527 H 0.41892 0.14075 0.97172 0.0
C528 C 0.30204 0.03912 0.92996 0.0
C529 C 0.27679 0.04751 0.90477 0.0
C530 C 0.3307 0.05817 0.93227 0.0
C531 C 0.33494 0.08563 0.90895 0.0
C532 C 0.30965 0.09405 0.88389 0.0
C533 C 0.28082 0.07538 0.88204 0.0
C534 C 0.41249 0.12962 0.87747 0.0
C535 C 0.42606 0.1401 0.91162 0.0
C536 C 0.38263 0.11251 0.87662 0.0
C537 C 0.36597 0.10497 0.90996 0.0
C538 C 0.37939 0.11563 0.94411 0.0
C539 C 0.40897 0.13328 0.94492 0.0
H540 H 0.61684 0.33884 0.89472 0.0
H541 H 0.53332 0.29354 0.9486 0.0
H542 H 0.58865 0.39099 0.89436 0.0
H543 H 0.50479 0.34683 0.94872 0.0
H544 H 0.45565 0.44196 0.89412 0.0
H545 H 0.47996 0.38762 0.90435 0.0
H546 H 0.5715 0.43329 0.937 0.0
H547 H 0.54783 0.48697 0.92541 0.0
C548 C 0.59245 0.34001 0.90685 0.0
C549 C 0.57744 0.31189 0.92185 0.0
C550 C 0.57631 0.37017 0.90688 0.0
C551 C 0.54456 0.37335 0.92194 0.0
C552 C 0.52925 0.34523 0.93688 0.0
C553 C 0.54563 0.31477 0.937 0.0
C554 C 0.48084 0.44032 0.90391 0.0
C555 C 0.49991 0.46885 0.90851 0.0
C556 C 0.49472 0.40918 0.90996 0.0
C557 C 0.52788 0.40601 0.92089 0.0
C558 C 0.54614 0.4347 0.92772 0.0
C559 C 0.53245 0.46561 0.92134 0.0
H560 H 0.1529 0.14581 0.62318 0.0
H561 H 0.1548 0.14456 0.5024 0.0
H562 H 0.20431 0.11444 0.62459 0.0
H563 H 0.20582 0.11288 0.50394 0.0
H564 H 0.26964 1.01936 0.52784 0.0
H565 H 0.22067 0.05436 0.5255 0.0
H566 H 0.26514 0.12031 0.60528 0.0
H567 H 0.31423 0.08568 0.6073 0.0
C568 C 0.16446 0.13921 0.59697 0.0
C569 C 0.14976 0.14784 0.56271 0.0
C570 C 0.1939 0.12125 0.59778 0.0
C571 C 0.20897 0.111 0.56436 0.0
C572 C 0.19462 0.12016 0.53013 0.0
C573 C 0.16554 0.13859 0.52931 0.0
C574 C 0.26903 0.04139 0.54475 0.0
C575 C 0.29591 0.04975 0.56764 0.0
C576 C 0.24105 0.06151 0.54328 0.0
C577 C 0.23907 0.09011 0.56519 0.0
C578 C 0.26587 0.09836 0.58823 0.0
C579 C 0.29405 0.07858 0.5892 0.0
H580 H 0.52951 0.29543 0.52743 0.0
H581 H 0.59446 0.24435 0.60353 0.0
H582 H 0.48859 0.25156 0.53474 0.0
H583 H 0.55427 0.20098 0.61037 0.0
H584 H 0.46819 0.14246 0.64544 0.0
H585 H 0.50052 0.19227 0.63836 0.0
H586 H 0.48092 0.19212 0.51961 0.0
H587 H 0.44788 0.1424 0.52679 0.0
C588 C 0.5351 0.27488 0.54555 0.0
C589 C 0.56526 0.2734 0.56485 0.0
C590 C 0.51172 0.24977 0.5497 0.0
C591 C 0.518 0.22295 0.57349 0.0
C592 C 0.54827 0.22158 0.59247 0.0
C593 C 0.57152 0.2464 0.58823 0.0
C594 C 0.47028 0.15328 0.61788 0.0
C595 C 0.45576 0.1382 0.58663 0.0
C596 C 0.48898 0.18177 0.61379 0.0
C597 C 0.49384 0.19583 0.5783 0.0
C598 C 0.47762 0.18195 0.54733 0.0
C599 C 0.45873 0.15341 0.55146 0.0
H600 H 0.32875 0.56807 0.61396 0.0
H601 H 0.28244 0.52933 0.51453 0.0
H602 H 0.37286 0.52823 0.60805 0.0
H603 H 0.32678 0.48882 0.50883 0.0
H604 H 0.43519 0.45456 0.48745 0.0
H605 H 0.38542 0.48735 0.4937 0.0
H606 H 0.38591 0.47031 0.61291 0.0
H607 H 0.43619 0.4378 0.60671 0.0
C608 C 0.32786 0.55094 0.59083 0.0
C609 C 0.30207 0.55214 0.56454 0.0
C610 C 0.35311 0.52778 0.58768 0.0
C611 C 0.35344 0.5051 0.55807 0.0
C612 C 0.32748 0.50606 0.53186 0.0
C613 C 0.302 0.52922 0.53515 0.0
C614 C 0.42445 0.45732 0.51498 0.0
C615 C 0.43989 0.44361 0.54662 0.0
C616 C 0.39573 0.47608 0.51852 0.0
C617 C 0.38169 0.48181 0.55384 0.0
C618 C 0.39631 0.46686 0.58532 0.0
C619 C 0.42501 0.44794 0.58175 0.0
H620 H 0.14154 0.4263 0.60939 0.0
H621 H 0.12809 0.42542 0.48951 0.0
H622 H 0.10948 0.37586 0.61433 0.0
H623 H 0.09582 0.37521 0.49455 0.0
H624 H 0.05411 0.27209 0.51573 0.0
H625 H 0.09524 0.31597 0.51144 0.0
H626 H 0.05049 0.3646 0.60585 0.0
H627 H 1.00985 0.32109 0.61024 0.0
C628 C 0.13228 0.41508 0.58402 0.0
C629 C 0.13723 0.43009 0.54908 0.0
C630 C 0.11368 0.38627 0.58688 0.0
C631 C 0.09975 0.37168 0.55487 0.0
C632 C 0.10633 0.38566 0.51973 0.0
C633 C 0.12476 0.41456 0.51688 0.0
C634 C 0.05323 0.29209 0.53564 0.0
C635 C 1.02855 0.29318 0.56315 0.0
C636 C 0.07672 0.31725 0.53314 0.0
C637 C 0.07625 0.34375 0.5584 0.0
C638 C 0.05193 0.34436 0.58629 0.0
C639 C 1.02838 0.3195 0.58856 0.0
H640 H 0.12389 0.74152 0.14567 0.0
H641 H 1.01857 0.74566 0.1594 0.0
H642 H 0.13011 0.78857 0.18671 0.0
H643 H 1.02457 0.78997 0.20343 0.0
H644 H 1.03691 0.87202 0.28126 0.0
H645 H 1.0349 0.84126 0.22314 0.0
H646 H 0.12992 0.79866 0.24906 0.0
H647 H 0.13306 0.83208 0.30502 0.0
C648 C 0.10201 0.753 0.15656 0.0
C649 C 0.07081 0.73983 0.14902 0.0
C650 C 0.10554 0.77957 0.18107 0.0
C651 C 0.07797 0.79296 0.19952 0.0
C652 C 0.04657 0.78096 0.18988 0.0
C653 C 0.04307 0.75507 0.16472 0.0
C654 C 0.05752 0.85634 0.27417 0.0
C655 C 0.08479 0.85384 0.29815 0.0
C656 C 0.05632 0.83842 0.24088 0.0
C657 C 0.08185 0.81655 0.23135 0.0
C658 C 0.1098 0.81529 0.25476 0.0
C659 C 0.11147 0.83416 0.28737 0.0
H660 H 0.72372 0.12984 0.30646 0.0
H661 H 0.75435 1.03017 0.32707 0.0
H662 H 0.7639 0.1341 0.25585 0.0
H663 H 0.79566 1.03473 0.27819 0.0
H664 H 0.83702 1.03439 0.16292 0.0
H665 H 0.7964 1.03482 0.21286 0.0
H666 H 0.8191 0.13655 0.23549 0.0
H667 H 0.85851 0.13634 0.18396 0.0
C668 C 0.73981 0.10922 0.3009 0.0
C669 C 0.73589 0.07961 0.32043 0.0
C670 C 0.7628 0.11157 0.27181 0.0
C671 C 0.78259 0.08448 0.26214 0.0
C672 C 0.78009 0.05572 0.28376 0.0
C673 C 0.75678 0.05321 0.31222 0.0
C674 C 0.83297 0.05692 0.17833 0.0
C675 C 0.85103 0.08522 0.1698 0.0
C676 C 0.80997 0.05713 0.20729 0.0
C677 C 0.80501 0.08548 0.2291 0.0
C678 C 0.82215 0.11427 0.2194 0.0
C679 C 0.84476 0.11419 0.18985 0.0
H680 H 0.44761 0.84444 0.15164 0.0
H681 H 0.55344 0.8364 0.15143 0.0
H682 H 0.44396 0.79503 0.18999 0.0
H683 H 0.55037 0.78917 0.19192 0.0
H684 H 0.54307 0.70095 0.26082 0.0
H685 H 0.53925 0.73598 0.2058 0.0
H686 H 0.45174 0.78127 0.25168 0.0
H687 H 0.45421 0.74408 0.30469 0.0
C688 C 0.47001 0.83167 0.15911 0.0
C689 C 0.50075 0.84409 0.14837 0.0
C690 C 0.46805 0.80367 0.18172 0.0
C691 C 0.49687 0.78808 0.1948 0.0
C692 C 0.5275 0.79985 0.18228 0.0
C693 C 0.52936 0.82734 0.15928 0.0
C694 C 0.52279 0.71811 0.25867 0.0
C695 C 0.49922 0.72024 0.28716 0.0
C696 C 0.52065 0.73841 0.22726 0.0
C697 C 0.49558 0.7622 0.22435 0.0
C698 C 0.47121 0.76317 0.25235 0.0
C699 C 0.47278 0.74208 0.28311 0.0
H700 H 0.70506 0.54085 0.2051 0.0
H701 H 0.74426 0.44616 0.17492 0.0
H702 H 0.7384 0.54074 0.26177 0.0
H703 H 0.77959 0.44693 0.22979 0.0
H704 H 0.83315 0.44698 0.33875 0.0
H705 H 0.78835 0.4436 0.29335 0.0
H706 H 0.79137 0.54904 0.28003 0.0
H707 H 0.8339 0.55238 0.32699 0.0
C708 C 0.72102 0.5201 0.21054 0.0
C709 C 0.72227 0.49367 0.18547 0.0
C710 C 0.74039 0.52006 0.24293 0.0
C711 C 0.76231 0.49403 0.25047 0.0
C712 C 0.76281 0.46722 0.22562 0.0
C713 C 0.74273 0.46688 0.19381 0.0
C714 C 0.82369 0.46942 0.32659 0.0
C715 C 0.8374 0.49989 0.33624 0.0
C716 C 0.7982 0.46751 0.30018 0.0
C717 C 0.78627 0.49599 0.28227 0.0
C718 C 0.79926 0.5265 0.29325 0.0
C719 C 0.82417 0.52841 0.32004 0.0
H720 H 0.95174 0.24778 0.66238 0.0
H721 H 0.0466 0.20739 0.69151 0.0
H722 H 0.95091 0.27826 0.72103 0.0
H723 H 0.04514 0.23632 0.751 0.0
H724 H 0.05508 0.33319 0.81609 0.0
H725 H 0.05273 0.29041 0.76944 0.0
H726 H 0.9479 0.28081 0.78724 0.0
H727 H 0.95019 0.32505 0.83332 0.0
C728 C 0.97208 0.24488 0.68173 0.0
C729 C 0.99949 0.22571 0.67209 0.0
C730 C 0.97152 0.26214 0.71558 0.0
C731 C 0.99815 0.26014 0.74079 0.0
C732 C 1.02458 0.23922 0.73196 0.0
C733 C 1.02541 0.22252 0.69787 0.0
C734 C 1.03155 0.32165 0.81056 0.0
C735 C 1.0027 0.33311 0.82776 0.0
C736 C 1.03021 0.29677 0.78388 0.0
C737 C 0.99999 0.28237 0.7739 0.0
C738 C 0.97148 0.29191 0.7935 0.0
C739 C 0.97283 0.31703 0.82023 0.0
H740 H 0.37553 1.01072 0.71921 0.0
H741 H 0.31805 0.96705 0.63063 0.0
H742 H 0.33058 1.0024 0.76279 0.0
H743 H 0.27262 0.95825 0.67477 0.0
H744 H 0.19071 1.00671 0.75047 0.0
H745 H 0.23562 0.99839 0.70662 0.0
H746 H 0.29646 0.96113 0.7963 0.0
H747 H 0.25118 0.97002 0.84054 0.0
C748 C 0.35329 0.99899 0.70915 0.0
C749 C 0.35012 0.98969 0.67147 0.0
C750 C 0.32771 0.9938 0.7343 0.0
C751 C 0.29815 0.9795 0.7223 0.0
C752 C 0.29521 0.96931 0.68477 0.0
C753 C 0.32116 0.97417 0.65957 0.0
C754 C 0.21355 0.99629 0.76073 0.0
C755 C 0.21762 0.98904 0.79887 0.0
C756 C 0.23912 0.99116 0.73551 0.0
C757 C 0.26953 0.97905 0.74797 0.0
C758 C 0.27323 0.97054 0.78596 0.0
C759 C 0.24735 0.97536 0.81123 0.0
H760 H 0.62565 0.25351 0.82922 0.0
H761 H 0.52187 0.2394 0.80812 0.0
H762 H 0.6288 0.29042 0.7756 0.0
H763 H 0.52532 0.27434 0.75369 0.0
H764 H 0.53105 0.35858 0.67462 0.0
H765 H 0.53016 0.32766 0.73269 0.0
H766 H 0.62848 0.2921 0.71012 0.0
H767 H 0.62994 0.32477 0.65311 0.0
C768 C 0.60354 0.2582 0.81313 0.0
C769 C 0.57351 0.2436 0.82317 0.0
C770 C 0.60537 0.27917 0.78213 0.0
C771 C 0.5773 0.28559 0.7601 0.0
C772 C 0.54734 0.27081 0.77029 0.0
C773 C 0.54541 0.25041 0.80153 0.0
C774 C 0.55254 0.34431 0.6822 0.0
C775 C 0.58047 0.34395 0.65914 0.0
C776 C 0.55199 0.32632 0.71545 0.0
C777 C 0.57908 0.30687 0.72613 0.0
C778 C 0.60728 0.30704 0.70326 0.0
C779 C 0.60806 0.32561 0.67035 0.0
H780 H 0.24192 0.62014 0.66768 0.0
H781 H 0.22267 0.51639 0.67842 0.0
H782 H 0.27371 0.61892 0.72535 0.0
H783 H 0.25329 0.51537 0.73701 0.0
H784 H 0.34993 0.51844 0.80499 0.0
H785 H 0.30836 0.51763 0.75641 0.0
H786 H 0.27461 0.61341 0.79131 0.0
H787 H 0.31742 0.61477 0.83924 0.0
C788 C 0.24399 0.59716 0.68271 0.0
C789 C 0.23001 0.56831 0.66823 0.0
C790 C 0.26203 0.59649 0.71604 0.0
C791 C 0.26623 0.56701 0.736 0.0
C792 C 0.25115 0.5384 0.72214 0.0
C793 C 0.23347 0.539 0.68854 0.0
C794 C 0.33339 0.53919 0.80276 0.0
C795 C 0.33758 0.56703 0.82547 0.0
C796 C 0.30927 0.53863 0.7749 0.0
C797 C 0.28837 0.56572 0.76932 0.0
C798 C 0.29085 0.59249 0.79407 0.0
C799 C 0.31523 0.59316 0.8218 0.0
H800 H 0.20115 0.77229 0.11292 0.0
H801 H 0.22413 0.72484 0.00849 0.0
H802 H 0.25473 0.79928 0.11259 0.0
H803 H 0.27904 0.74954 0.00975 0.0
H804 H 0.36177 0.8242 -0.00126 0.0
H805 H 0.30809 0.79759 -0.0004 0.0
H806 H 0.31119 0.79525 0.12047 0.0
H807 H 0.36442 0.82289 0.11925 0.0
C808 C 0.21793 0.76724 0.09011 0.0
C809 C 0.20825 0.74656 0.0606 0.0
C810 C 0.24891 0.78261 0.08998 0.0
C811 C 0.27156 0.77716 0.06074 0.0
C812 C 0.26204 0.75553 0.03189 0.0
C813 C 0.23067 0.74092 0.03144 0.0
C814 C 0.35083 0.81819 0.02549 0.0
C815 C 0.36736 0.8259 0.05892 0.0
C816 C 0.31998 0.8026 0.02606 0.0
C817 C 0.30469 0.79402 0.06014 0.0
C818 C 0.32146 0.80183 0.09359 0.0
C819 C 0.35223 0.81761 0.09297 0.0
H820 H 0.78406 0.19238 0.03972 0.0
H821 H 0.87111 0.2425 0.0786 0.0
H822 H 0.75334 0.24396 0.04156 0.0
H823 H 0.84054 0.29448 0.07943 0.0
H824 H 0.78092 0.38453 0.03288 0.0
H825 H 0.81236 0.33323 0.0323 0.0
H826 H 0.73344 0.28475 0.091 0.0
H827 H 0.70246 0.33637 0.09257 0.0
C828 C 0.79671 0.2145 0.04837 0.0
C829 C 0.83003 0.21336 0.05901 0.0
C830 C 0.77903 0.24403 0.04968 0.0
C831 C 0.7944 0.27337 0.0608 0.0
C832 C 0.82797 0.27235 0.07068 0.0
C833 C 0.84548 0.24261 0.07021 0.0
C834 C 0.77026 0.36289 0.04556 0.0
C835 C 0.73915 0.36446 0.06267 0.0
C836 C 0.7884 0.33356 0.04552 0.0
C837 C 0.77549 0.30487 0.06172 0.0
C838 C 0.74406 0.30635 0.07818 0.0
C839 C 0.7263 0.33589 0.07907 0.0
H840 H 0.36955 0.74716 0.34555 0.0
H841 H 0.36482 0.73134 0.46466 0.0
H842 H 0.31728 0.77706 0.34777 0.0
H843 H 0.31173 0.75972 0.46666 0.0
H844 H 0.20206 0.78635 0.44737 0.0
H845 H 0.25326 0.75485 0.44343 0.0
H846 H 0.29582 0.83029 0.37418 0.0
H847 H 0.24408 0.86116 0.37676 0.0
C848 C 0.35714 0.74985 0.37218 0.0
C849 C 0.37131 0.73704 0.40498 0.0
C850 C 0.32731 0.76715 0.37349 0.0
C851 C 0.31043 0.7713 0.4075 0.0
C852 C 0.32417 0.75745 0.4401 0.0
C853 C 0.35456 0.74108 0.43898 0.0
C854 C 0.22241 0.79633 0.43148 0.0
C855 C 0.21908 0.82641 0.4126 0.0
C856 C 0.25182 0.77835 0.42943 0.0
C857 C 0.27886 0.79021 0.409 0.0
C858 C 0.27548 0.82033 0.39008 0.0
C859 C 0.24592 0.83816 0.39178 0.0
H860 H 0.86664 0.34018 0.41131 0.0
H861 H 0.78033 0.38261 0.46208 0.0
H862 H 0.83947 0.28644 0.4101 0.0
H863 H 0.75268 0.32922 0.45946 0.0
H864 H 0.70522 0.23476 0.40474 0.0
H865 H 0.73204 0.28875 0.40792 0.0
H866 H 0.81765 0.24419 0.45825 0.0
H867 H 0.79033 0.19073 0.45665 0.0
C868 C 0.84185 0.33803 0.42214 0.0
C869 C 0.82567 0.36564 0.43683 0.0
C870 C 0.82629 0.30725 0.42149 0.0
C871 C 0.79382 0.30351 0.43455 0.0
C872 C 0.77759 0.33125 0.44899 0.0
C873 C 0.7935 0.3618 0.45065 0.0
C874 C 0.72965 0.23661 0.41672 0.0
C875 C 0.7456 0.20849 0.43053 0.0
C876 C 0.745 0.26751 0.41861 0.0
C877 C 0.77707 0.27081 0.43324 0.0
C878 C 0.79307 0.24254 0.44663 0.0
C879 C 0.77733 0.21192 0.44587 0.0
H880 H 0.72479 0.22782 0.87641 0.0
H881 H 0.7065 0.2651 -0.01264 0.0
H882 H 0.77848 0.25533 0.87595 0.0
H883 H 0.75981 0.2929 0.98654 0.0
H884 H 0.87368 0.30651 0.98652 0.0
H885 H 0.82058 0.2781 0.98667 0.0
H886 H 0.80081 0.31357 0.87528 0.0
H887 H 0.85406 0.34182 0.87495 0.0
C888 C 0.73232 0.24166 0.90082 0.0
C889 C 0.71141 0.24402 0.93204 0.0
C890 C 0.763 0.25765 0.90044 0.0
C891 C 0.77367 0.27622 0.9314 0.0
C892 C 0.75277 0.2783 0.96265 0.0
C893 C 0.72208 0.26247 0.96299 0.0
C894 C 0.85791 0.30847 0.96216 0.0
C895 C 0.86809 0.32663 0.93079 0.0
C896 C 0.82738 0.29227 0.96233 0.0
C897 C 0.80625 0.2936 0.93111 0.0
C898 C 0.81649 0.31178 0.89973 0.0
C899 C 0.84692 0.32821 0.89965 0.0
H900 H 0.36056 0.73303 0.88593 0.0
H901 H 0.27957 0.69624 0.9514 0.0
H902 H 0.33342 0.78662 0.88181 0.0
H903 H 0.25157 0.74898 0.94554 0.0
H904 H 0.22742 0.85812 0.964 0.0
H905 H 0.25415 0.80454 0.96778 0.0
H906 H 0.2873 0.8149 0.85366 0.0
H907 H 0.26044 0.86849 0.85005 0.0
C908 C 0.33693 0.73639 0.89939 0.0
C909 C 0.32245 0.71045 0.91936 0.0
C910 C 0.32117 0.76705 0.89677 0.0
C911 C 0.29025 0.77245 0.91362 0.0
C912 C 0.27565 0.74619 0.93302 0.0
C913 C 0.29167 0.7158 0.93623 0.0
C914 C 0.24029 0.84886 0.93968 0.0
C915 C 0.24172 0.86759 0.90672 0.0
C916 C 0.25565 0.81803 0.94178 0.0
C917 C 0.27328 0.8052 0.91111 0.0
C918 C 0.27449 0.82401 0.87807 0.0
C919 C 0.25882 0.85468 0.87587 0.0
H920 H 0.84628 0.20306 0.56421 0.0
H921 H 0.89113 0.28802 0.51369 0.0
H922 H 0.79243 0.23001 0.5614 0.0
H923 H 0.83734 0.31531 0.51159 0.0
H924 H 0.74231 0.3649 0.56113 0.0
H925 H 0.7962 0.33781 0.55892 0.0
H926 H 0.75046 0.25062 0.5144 0.0
H927 H 0.69691 0.27819 0.51522 0.0
C928 C 0.84461 0.22744 0.55234 0.0
C929 C 0.87303 0.24338 0.53923 0.0
C930 C 0.81372 0.24289 0.55066 0.0
C931 C 0.81051 0.27497 0.53652 0.0
C932 C 0.83894 0.29077 0.52305 0.0
C933 C 0.86974 0.27504 0.52403 0.0
C934 C 0.74386 0.34005 0.55056 0.0
C935 C 0.71535 0.32371 0.53832 0.0
C936 C 0.77475 0.32454 0.54919 0.0
C937 C 0.77777 0.29197 0.53649 0.0
C938 C 0.74912 0.27564 0.52443 0.0
C939 C 0.71841 0.29148 0.52477 0.0
H940 H 0.33394 0.86047 0.50472 0.0
H941 H 0.31712 0.86676 0.62346 0.0
H942 H 0.30816 0.80662 0.50356 0.0
H943 H 0.29019 0.81343 0.62248 0.0
H944 H 0.26766 0.70411 0.61773 0.0
H945 H 0.29449 0.75757 0.61893 0.0
H946 H 0.26123 0.77565 0.50611 0.0
H947 H 0.23705 0.72072 0.5039 0.0
C948 C 0.3247 0.85028 0.53064 0.0
C949 C 0.32787 0.86789 0.56421 0.0
C950 C 0.30957 0.81926 0.53003 0.0
C951 C 0.2969 0.80484 0.56296 0.0
C952 C 0.30008 0.82282 0.59653 0.0
C953 C 0.31543 0.85372 0.59713 0.0
C954 C 0.26631 0.71946 0.59304 0.0
C955 C 0.2504 0.708 0.56063 0.0
C956 C 0.28154 0.75044 0.59376 0.0
C957 C 0.28057 0.77143 0.56235 0.0
C958 C 0.26378 0.76004 0.53029 0.0
C959 C 0.24946 0.72861 0.52918 0.0
H960 H 0.99294 0.45095 0.01166 0.0
H961 H 1.0308 0.47766 0.90345 0.0
H962 H 1.01602 0.50152 0.03788 0.0
H963 H 0.05386 0.52765 0.92918 0.0
H964 H 0.11137 0.60687 -0.00601 0.0
H965 H 0.09538 0.55193 0.97197 0.0
H966 H 1.00377 0.5601 0.03226 0.0
H967 H 1.01969 0.61402 0.05365 0.0
C968 C 1.00637 0.46738 -0.00657 0.0
C969 C 1.00993 0.46 0.95522 0.0
C970 C 1.01959 0.49645 0.00843 0.0
C971 C 1.03692 0.51883 0.98567 0.0
C972 C 0.0411 0.51098 0.94775 0.0
C973 C 1.02754 0.48223 0.9328 0.0
C974 C 0.08799 0.59675 0.00275 0.0
C975 C 0.06693 0.61498 0.02605 0.0
C976 C 0.07873 0.56529 -0.00995 0.0
C977 C 0.04831 0.5513 0.00058 0.0
C978 C 1.02762 0.56954 0.02409 0.0
C979 C 1.0367 0.60081 0.03626 0.0
H980 H 0.1042 0.96571 0.976 0.0
H981 H 0.11094 0.05597 0.91387 0.0
H982 H 0.05165 0.9845 0.00275 0.0
H983 H 0.05941 0.07454 0.93985 0.0
H984 H 0.95202 0.08948 0.97021 0.0
H985 H 0.99956 0.06387 0.93969 0.0
H986 H 1.03392 1.02879 0.04675 0.0
H987 H 0.98706 0.05437 0.07661 0.0
C988 C 0.09445 0.98935 0.96774 0.0
C989 C 0.11172 1.00919 0.94229 0.0
C990 C 0.06441 1.00016 0.98307 0.0
C991 C 0.05108 1.03095 0.97309 0.0
C992 C 0.06841 0.05046 0.94758 0.0
C993 C 0.09827 0.03983 0.93278 0.0
C994 C 0.96969 0.07623 -0.01283 0.0
C995 C 0.96557 0.07403 0.02611 0.0
C996 C 0.99691 0.0615 0.9697 0.0
C997 C 1.02053 0.04406 -0.00922 0.0
C998 C 1.01607 0.04155 0.02953 0.0
C999 C 0.98921 0.05661 0.04684 0.0
H1000 H 0.51057 0.12904 0.95742 0.0
H1001 H 0.61047 0.10284 0.98456 0.0
H1002 H 0.49217 0.07426 0.97239 0.0
H1003 H 0.59195 0.0476 0.00146 0.0
H1004 H 0.55452 0.94235 -0.00672 0.0
H1005 H 0.57262 0.99752 0.97704 0.0
H1006 H 0.48104 1.03641 0.01971 0.0
H1007 H 0.46303 0.98066 0.03524 0.0
C1008 C 0.52867 0.11164 0.9669 0.0
C1009 C 0.56204 0.12061 0.96939 0.0
C1010 C 0.51801 0.08 0.97591 0.0
C1011 C 0.54036 0.05604 -0.01167 0.0
C1012 C 0.57389 0.06504 -0.00858 0.0
C1013 C 0.58459 0.09688 0.98199 0.0
C1014 C 0.53832 0.9628 -0.00088 0.0
C1015 C 0.50753 0.95728 0.01572 0.0
C1016 C 0.54876 0.99454 -0.00998 0.0
C1017 C 0.52867 1.0219 -0.00259 0.0
C1018 C 0.49723 1.01615 0.01312 0.0
C1019 C 0.48671 0.98417 0.02196 0.0
H1020 H 0.58035 0.47169 0.0539 0.0
H1021 H 0.62903 0.53204 0.97202 0.0
H1022 H 0.52724 0.49549 0.03598 0.0
H1023 H 0.57638 0.55441 0.95241 0.0
H1024 H 0.48777 0.61692 0.9468 0.0
H1025 H 0.53774 0.59151 0.97041 0.0
H1026 H 0.48334 0.50276 -0.00574 0.0
H1027 H 0.4327 0.52965 0.97253 0.0
C1028 C 0.57953 0.48932 0.03126 0.0
C1029 C 0.60885 0.50001 0.0143 0.0
C1030 C 0.54905 0.50316 0.02103 0.0
C1031 C 0.54716 0.52774 -0.00672 0.0
C1032 C 0.57655 0.53671 0.97496 0.0
C1033 C 0.60686 0.52338 0.98564 0.0
C1034 C 0.48646 0.59221 0.95784 0.0
C1035 C 0.45644 0.57534 0.9581 0.0
C1036 C 0.51527 0.57728 0.97087 0.0
C1037 C 0.51522 0.5445 0.98347 0.0
C1038 C 0.48465 0.52802 0.98511 0.0
C1039 C 0.45553 0.54335 0.97262 0.0
H1040 H 0.06858 0.12536 0.52324 0.0
H1041 H 0.97185 0.10165 0.48172 0.0
H1042 H 0.08744 0.07094 0.50996 0.0
H1043 H 0.99141 0.04654 0.46551 0.0
H1044 H 1.02709 0.94063 0.47305 0.0
H1045 H 1.00696 0.9954 0.48719 0.0
H1046 H 0.10433 1.03431 0.46653 0.0
H1047 H 0.12464 0.97911 0.45488 0.0
C1048 C 0.05138 0.10873 0.51041 0.0
C1049 C 1.01865 0.11828 0.50358 0.0
C1050 C 0.06238 0.07712 0.50245 0.0
C1051 C 0.04131 0.05382 0.48619 0.0
C1052 C 1.00846 0.06341 0.4786 0.0
C1053 C 0.9972 0.09517 0.48756 0.0
C1054 C 0.04431 0.9609 0.47222 0.0
C1055 C 0.07757 0.95543 0.46317 0.0
C1056 C 1.03262 0.99252 0.47978 0.0
C1057 C 0.05375 1.01982 0.478 0.0
C1058 C 0.0872 1.01415 0.46915 0.0
C1059 C 0.09903 0.98236 0.46239 0.0
H1060 H 0.4584 0.97615 0.48076 0.0
H1061 H 0.47006 0.04546 0.57047 0.0
H1062 H 0.50959 0.99618 0.45279 0.0
H1063 H 0.52142 0.06387 0.54494 0.0
H1064 H 0.60238 0.11171 0.47958 0.0
H1065 H 0.54809 0.09408 0.50085 0.0
H1066 H 0.56631 0.99731 0.45576 0.0
H1067 H 0.61921 1.01594 0.43291 0.0
C1068 C 0.47206 0.99528 0.49494 0.0
C1069 C 0.46013 1.00874 0.5285 0.0
C1070 C 0.50162 1.00678 0.479 0.0
C1071 C 0.52019 1.03192 0.49637 0.0
C1072 C 0.50801 0.04509 0.52992 0.0
C1073 C 0.47846 1.03397 0.54526 0.0
C1074 C 0.59457 0.08679 0.47403 0.0
C1075 C 0.61523 0.0652 0.45447 0.0
C1076 C 0.56343 0.07643 0.4865 0.0
C1077 C 0.55239 0.04391 0.48054 0.0
C1078 C 0.57319 1.0226 0.46059 0.0
C1079 C 0.60391 1.03319 0.44764 0.0
H1080 H 0.53646 0.4328 0.45313 0.0
H1081 H 0.61113 0.47386 0.52493 0.0
H1082 H 0.51665 0.48777 0.43823 0.0
H1083 H 0.59032 0.52868 0.51232 0.0
H1084 H 0.56528 0.62545 0.4596 0.0
H1085 H 0.58587 0.57098 0.47121 0.0
H1086 H 0.48709 0.53251 0.46034 0.0
H1087 H 0.467 0.58753 0.44526 0.0
C1088 C 0.54874 0.45374 0.46553 0.0
C1089 C 0.5754 0.4491 0.49 0.0
C1090 C 0.53708 0.48529 0.4575 0.0
C1091 C 0.55149 0.51307 0.47426 0.0
C1092 C 0.57879 0.50824 0.49814 0.0
C1093 C 0.59088 0.4767 0.50545 0.0
C1094 C 0.54792 0.60543 0.45922 0.0
C1095 C 0.51459 0.61097 0.4507 0.0
C1096 C 0.55972 0.57395 0.46653 0.0
C1097 C 0.53836 0.54684 0.46675 0.0
C1098 C 0.50459 0.55249 0.45962 0.0
C1099 C 0.49288 0.58416 0.45146 0.0
H1100 H 0.09726 0.60877 0.53761 0.0
H1101 H 0.13599 0.53008 0.47027 0.0
H1102 H 0.04141 0.588 0.52746 0.0
H1103 H 0.0805 0.50937 0.45978 0.0
H1104 H 0.98142 0.45983 0.47524 0.0
H1105 H 1.03631 0.48144 0.49034 0.0
H1106 H 0.99815 0.5802 0.48397 0.0
H1107 H 0.94398 0.55852 0.46853 0.0
C1108 C 0.09382 0.58743 0.52001 0.0
C1109 C 0.1212 0.57083 0.50515 0.0
C1110 C 0.06174 0.5753 0.51432 0.0
C1111 C 0.05619 0.54642 0.49338 0.0
C1112 C 0.08361 0.53094 0.47709 0.0
C1113 C 0.11551 0.54301 0.48282 0.0
C1114 C 0.98486 0.4861 0.47742 0.0
C1115 C 0.95854 0.5075 0.47019 0.0
C1116 C 1.01637 0.4986 0.48572 0.0
C1117 C 1.02211 0.53278 0.48768 0.0
C1118 C 0.99507 0.55387 0.48264 0.0
C1119 C 0.96393 0.54142 0.47354 0.0
H1120 H 0.04234 0.50874 0.35551 0.0
H1121 H 0.97029 0.48355 0.27163 0.0
H1122 H 0.08362 0.51651 0.30659 0.0
H1123 H 1.01062 0.49178 0.22301 0.0
H1124 H 0.08822 0.60542 0.22094 0.0
H1125 H 0.08177 0.56467 0.26939 0.0
H1126 H 0.05869 0.49164 0.18563 0.0
H1127 H 0.06431 0.53331 0.13693 0.0
C1128 C 1.03579 0.5033 0.32678 0.0
C1129 C 1.00304 0.49648 0.31702 0.0
C1130 C 0.05934 0.50798 0.29868 0.0
C1131 C 0.05023 0.50604 0.26067 0.0
C1132 C 1.01877 0.49382 0.25176 0.0
C1133 C 0.99537 0.48926 0.27971 0.0
C1134 C 0.08313 0.58034 0.21274 0.0
C1135 C 0.07556 0.57271 0.17548 0.0
C1136 C 0.07967 0.55669 0.24061 0.0
C1137 C 0.06841 0.525 0.23163 0.0
C1138 C 0.06638 0.5161 0.1936 0.0
C1139 C 0.06977 0.53991 0.16563 0.0
H1140 H 0.07625 1.03305 0.37354 0.0
H1141 H 0.1005 0.97379 0.27752 0.0
H1142 H 0.06942 0.08083 0.33294 0.0
H1143 H 0.09379 1.0209 0.23712 0.0
H1144 H 0.05475 0.08681 0.16234 0.0
H1145 H 0.09584 0.07589 0.21075 0.0
H1146 H 1.01964 0.08099 0.29483 0.0
H1147 H 0.97917 0.09205 0.24674 0.0
C1148 C 0.08177 1.03066 0.34402 0.0
C1149 C 0.08785 0.99973 0.32825 0.0
C1150 C 0.07782 0.05799 0.32076 0.0
C1151 C 0.07996 0.05449 0.28166 0.0
C1152 C 0.09169 1.02464 0.26701 0.0
C1153 C 0.09531 0.9974 0.29014 0.0
C1154 C 0.04721 0.08722 0.19139 0.0
C1155 C 1.01377 0.08907 0.20093 0.0
C1156 C 0.07073 0.08095 0.21912 0.0
C1157 C 0.06088 0.0764 0.25649 0.0
C1158 C 1.02823 0.08403 0.26638 0.0
C1159 C 1.00481 0.0901 0.23872 0.0
H1160 H 0.53582 0.04364 0.332 0.0
H1161 H 0.59455 0.11673 0.27639 0.0
H1162 H 0.50108 0.03902 0.27772 0.0
H1163 H 0.55762 0.11516 0.22276 0.0
H1164 H 0.46399 1.00275 0.17627 0.0
H1165 H 0.46941 0.04172 0.22745 0.0
H1166 H 0.55683 0.08121 0.17467 0.0
H1167 H 0.5489 0.04486 0.12255 0.0
C1168 C 0.54008 0.06017 0.30877 0.0
C1169 C 0.56833 0.07977 0.30778 0.0
C1170 C 0.51996 0.05766 0.27718 0.0
C1171 C 0.5273 0.07541 0.24426 0.0
C1172 C 0.5522 0.09947 0.24635 0.0
C1173 C 0.57312 0.10094 0.27741 0.0
C1174 C 0.4833 1.02104 0.17501 0.0
C1175 C 0.50659 1.02029 0.14615 0.0
C1176 C 0.48692 0.04305 0.20475 0.0
C1177 C 0.51492 0.06342 0.20706 0.0
C1178 C 0.53518 0.06584 0.17507 0.0
C1179 C 0.53073 0.04474 0.14472 0.0
H1180 H 0.47527 0.58594 0.29433 0.0
H1181 H 0.56409 0.54413 0.34032 0.0
H1182 H 0.47899 0.54885 0.24095 0.0
H1183 H 0.56927 0.50882 0.28644 0.0
H1184 H 0.54513 0.54913 0.13429 0.0
H1185 H 0.5132 0.55603 0.19051 0.0
H1186 H 0.56095 0.47121 0.2392 0.0
H1187 H 0.59446 0.46566 0.18291 0.0
C1188 C 0.49506 0.56813 0.29352 0.0
C1189 C 0.51998 0.56855 0.32071 0.0
C1190 C 0.49743 0.54705 0.26275 0.0
C1191 C 0.52524 0.52674 0.25825 0.0
C1192 C 0.54755 0.5241 0.28834 0.0
C1193 C 0.54478 0.54465 0.31939 0.0
C1194 C 0.54803 0.53128 0.15651 0.0
C1195 C 0.57301 0.50761 0.15486 0.0
C1196 C 0.52943 0.53504 0.18896 0.0
C1197 C 0.53524 0.51493 0.22035 0.0
C1198 C 0.55669 0.48797 0.21622 0.0
C1199 C 0.57568 0.48451 0.1838 0.0
H1200 H 0.04659 0.53624 0.58833 0.0
H1201 H 0.1047 0.58509 0.67266 0.0
H1202 H 1.00207 0.52901 0.6333 0.0
H1203 H 0.06148 0.57646 0.71802 0.0
H1204 H 0.99497 0.45433 0.73304 0.0
H1205 H 1.00502 0.48811 0.67888 0.0
H1206 H 1.01093 0.57397 0.74975 0.0
H1207 H 1.00183 0.53928 0.80454 0.0
C1208 C 0.04938 0.54634 0.61619 0.0
C1209 C 0.07937 0.56016 0.62758 0.0
C1210 C 1.02397 0.54209 0.64203 0.0
C1211 C 1.02865 0.5508 0.6798 0.0
C1212 C 0.05683 0.5691 0.68941 0.0
C1213 C 0.08193 0.57386 0.6634 0.0
C1214 C 0.99722 0.4806 0.73691 0.0
C1215 C 0.99874 0.4941 0.77289 0.0
C1216 C 1.00272 0.50023 0.70569 0.0
C1217 C 1.00991 0.53381 0.70989 0.0
C1218 C 1.00647 0.54804 0.7456 0.0
C1219 C 1.00104 0.52824 0.77699 0.0
H1220 H 0.05055 0.05082 0.61802 0.0
H1221 H 0.96642 0.10349 0.66039 0.0
H1222 H 0.04839 1.014 0.67058 0.0
H1223 H 0.9628 0.06528 0.71283 0.0
H1224 H 0.06701 0.96731 0.77003 0.0
H1225 H 1.03309 0.97675 0.71481 0.0
H1226 H 0.99466 0.06494 0.76612 0.0
H1227 H 1.02624 0.05355 0.82198 0.0
C1228 C 1.03065 0.05361 0.63792 0.0
C1229 C 1.00939 0.08058 0.63593 0.0
C1230 C 1.0291 1.03217 0.6682 0.0
C1231 C 1.00602 1.03712 0.6971 0.0
C1232 C 0.98167 0.06136 0.69196 0.0
C1233 C 0.98351 0.08312 0.66172 0.0
C1234 C 0.04974 0.98756 0.77013 0.0
C1235 C 0.0497 1.01016 0.79966 0.0
C1236 C 1.03064 0.99335 0.73828 0.0
C1237 C 1.01257 1.02271 0.73485 0.0
C1238 C 1.00851 0.04229 0.76706 0.0
C1239 C 1.02674 1.03581 0.79941 0.0
H1240 H 0.55331 1.01829 0.64782 0.0
H1241 H 0.48645 0.98211 0.73174 0.0
H1242 H 0.59272 1.03298 0.69667 0.0
H1243 H 0.52456 0.99768 0.78035 0.0
H1244 H 0.58615 0.12314 0.77863 0.0
H1245 H 0.58456 0.08041 0.73198 0.0
H1246 H 0.56965 1.00797 0.81877 0.0
H1247 H 0.56981 0.05165 0.86556 0.0
C1248 C 0.5477 1.01207 0.67657 0.0
C1249 C 0.51647 1.00019 0.6863 0.0
C1250 C 0.57012 1.02081 0.70468 0.0
C1251 C 0.56124 1.01815 0.74268 0.0
C1252 C 0.53238 1.00072 0.75164 0.0
C1253 C 0.51022 0.99184 0.72364 0.0
C1254 C 0.58363 0.09796 0.78788 0.0
C1255 C 0.57685 0.09077 0.82542 0.0
C1256 C 0.58305 0.07316 0.76105 0.0
C1257 C 0.57572 0.04061 0.77129 0.0
C1258 C 0.57419 1.0329 0.8097 0.0
C1259 C 0.57445 0.05787 0.83659 0.0
H1260 H 0.45771 0.57202 0.73409 0.0
H1261 H 0.54467 0.57096 0.8035 0.0
H1262 H 0.49077 0.55976 0.67964 0.0
H1263 H 0.57847 0.55914 0.74841 0.0
H1264 H 0.54389 0.52757 0.58553 0.0
H1265 H 0.53212 0.56839 0.63365 0.0
H1266 H 0.58214 0.50807 0.71537 0.0
H1267 H 0.59484 0.46824 0.6671 0.0
C1268 C 0.48418 0.57031 0.73739 0.0
C1269 C 0.4986 0.57183 0.77298 0.0
C1270 C 0.50332 0.56354 0.70603 0.0
C1271 C 0.53738 0.55796 0.70957 0.0
C1272 C 0.55225 0.56281 0.74478 0.0
C1273 C 0.53297 0.56976 0.77629 0.0
C1274 C 0.55357 0.52384 0.61347 0.0
C1275 C 0.56943 0.49441 0.62294 0.0
C1276 C 0.54666 0.54709 0.64111 0.0
C1277 C 0.55512 0.54099 0.67869 0.0
C1278 C 0.57506 0.51366 0.68687 0.0
C1279 C 0.58227 0.49062 0.65914 0.0
loop_
_geom_bond_atom_site_label_1
_geom_bond_atom_site_label_2
_geom_bond_distance
_geom_bond_site_symmetry_2
_ccdc_geom_bond_type
O0 Tb1 2.506 . S
O0 C14 1.265 . S
Tb1 O0 2.506 . S
Tb1 O6 2.312 . S
Tb1 O10 2.271 . S
Tb1 O12 2.338 . S
Tb1 O19 2.441 . S
C2 O10 1.252 . S
C2 O11 1.253 . S
O3 Tb4 2.271 . S
O3 C13 1.252 . S
Tb4 O3 2.271 . S
Tb4 O7 2.338 1_455 S
Tb4 O11 2.312 . S
Tb4 O15 2.441 . S
Tb4 O16 2.506 . S
C5 O15 1.244 . S
C5 O16 1.265 . S
O6 Tb1 2.312 . S
O6 C13 1.253 . S
O7 Tb4 2.338 1_655 S
O7 C8 1.258 . S
C8 O7 1.258 . S
C8 O9 1.251 . S
O9 C8 1.251 . S
O10 Tb1 2.271 . S
O10 C2 1.252 . S
O11 C2 1.253 . S
O11 Tb4 2.312 . S
O12 Tb1 2.338 . S
O12 C17 1.258 . S
C13 O3 1.252 . S
C13 O6 1.253 . S
C14 O0 1.265 . S
C14 O19 1.244 . S
O15 Tb4 2.441 . S
O15 C5 1.244 . S
O16 Tb4 2.506 . S
O16 C5 1.265 . S
C17 O12 1.258 . S
C17 O18 1.251 . S
O18 C17 1.251 . S
O19 Tb1 2.441 . S
O19 C14 1.244 . S
O20 Tb21 2.506 . S
O20 C34 1.265 . S
Tb21 O20 2.506 . S
Tb21 O26 2.312 . S
Tb21 O30 2.271 . S
Tb21 O32 2.338 . S
Tb21 O39 2.441 . S
C22 O30 1.252 . S
C22 O31 1.253 . S
O23 Tb24 2.271 . S
O23 C33 1.252 . S
Tb24 O23 2.271 . S
Tb24 O27 2.338 1_545 S
Tb24 O31 2.312 . S
Tb24 O35 2.441 . S
Tb24 O36 2.506 . S
C25 O35 1.244 . S
C25 O36 1.265 . S
O26 Tb21 2.312 . S
O26 C33 1.253 . S
O27 Tb24 2.338 1_565 S
O27 C28 1.258 . S
C28 O27 1.258 . S
C28 O29 1.251 . S
O29 C28 1.251 . S
O30 Tb21 2.271 . S
O30 C22 1.252 . S
O31 C22 1.253 . S
O31 Tb24 2.312 . S
O32 Tb21 2.338 . S
O32 C37 1.258 . S
C33 O23 1.252 . S
C33 O26 1.253 . S
C34 O20 1.265 . S
C34 O39 1.244 . S
O35 Tb24 2.441 . S
O35 C25 1.244 . S
O36 Tb24 2.506 . S
O36 C25 1.265 . S
C37 O32 1.258 . S
C37 O38 1.251 . S
O38 C37 1.251 . S
O39 Tb21 2.441 . S
O39 C34 1.244 . S
O40 Tb41 2.506 . S
O40 C54 1.265 . S
Tb41 O40 2.506 . S
Tb41 O46 2.312 . S
Tb41 O50 2.271 . S
Tb41 O52 2.338 . S
Tb41 O59 2.441 . S
C42 O50 1.252 . S
C42 O51 1.253 . S
O43 Tb44 2.271 . S
O43 C53 1.252 . S
Tb44 O43 2.271 . S
Tb44 O47 2.338 . S
Tb44 O51 2.312 . S
Tb44 O55 2.441 . S
Tb44 O56 2.506 . S
C45 O55 1.244 . S
C45 O56 1.265 . S
O46 Tb41 2.312 . S
O46 C53 1.253 . S
O47 Tb44 2.338 . S
O47 C48 1.258 . S
C48 O47 1.258 . S
C48 O49 1.251 . S
O49 C48 1.251 . S
O50 Tb41 2.271 . S
O50 C42 1.252 . S
O51 C42 1.253 . S
O51 Tb44 2.312 . S
O52 Tb41 2.338 . S
O52 C57 1.258 . S
C53 O43 1.252 . S
C53 O46 1.253 . S
C54 O40 1.265 . S
C54 O59 1.244 . S
O55 Tb44 2.441 . S
O55 C45 1.244 . S
O56 Tb44 2.506 . S
O56 C45 1.265 . S
C57 O52 1.258 . S
C57 O58 1.251 . S
O58 C57 1.251 . S
O59 Tb41 2.441 . S
O59 C54 1.244 . S
O60 Tb61 2.506 . S
O60 C74 1.265 . S
Tb61 O60 2.506 . S
Tb61 O66 2.312 . S
Tb61 O70 2.271 . S
Tb61 O72 2.338 . S
Tb61 O79 2.441 . S
C62 O70 1.252 . S
C62 O71 1.253 . S
O63 Tb64 2.271 . S
O63 C73 1.252 . S
Tb64 O63 2.271 . S
Tb64 O67 2.338 . S
Tb64 O71 2.312 . S
Tb64 O75 2.441 . S
Tb64 O76 2.506 . S
C65 O75 1.244 . S
C65 O76 1.265 . S
O66 Tb61 2.312 . S
O66 C73 1.253 . S
O67 Tb64 2.338 . S
O67 C68 1.258 . S
C68 O67 1.258 . S
C68 O69 1.251 . S
O69 C68 1.251 . S
O70 Tb61 2.271 . S
O70 C62 1.252 . S
O71 C62 1.253 . S
O71 Tb64 2.312 . S
O72 Tb61 2.338 . S
O72 C77 1.258 . S
C73 O63 1.252 . S
C73 O66 1.253 . S
C74 O60 1.265 . S
C74 O79 1.244 . S
O75 Tb64 2.441 . S
O75 C65 1.244 . S
O76 Tb64 2.506 . S
O76 C65 1.265 . S
C77 O72 1.258 . S
C77 O78 1.251 . S
O78 C77 1.251 . S
O79 Tb61 2.441 . S
O79 C74 1.244 . S
O80 Tb81 2.506 . S
O80 C94 1.265 . S
Tb81 O80 2.506 . S
Tb81 O86 2.312 . S
Tb81 O90 2.271 . S
Tb81 O92 2.338 . S
Tb81 O99 2.441 . S
C82 O90 1.252 . S
C82 O91 1.253 . S
O83 Tb84 2.271 . S
O83 C93 1.252 . S
Tb84 O83 2.271 . S
Tb84 O87 2.338 1_455 S
Tb84 O91 2.312 . S
Tb84 O95 2.441 . S
Tb84 O96 2.506 . S
C85 O95 1.244 . S
C85 O96 1.265 . S
O86 Tb81 2.312 . S
O86 C93 1.253 . S
O87 Tb84 2.338 1_655 S
O87 C88 1.258 . S
C88 O87 1.258 . S
C88 O89 1.251 . S
O89 C88 1.251 . S
O90 Tb81 2.271 . S
O90 C82 1.252 . S
O91 C82 1.253 . S
O91 Tb84 2.312 . S
O92 Tb81 2.338 . S
O92 C97 1.258 . S
C93 O83 1.252 . S
C93 O86 1.253 . S
C94 O80 1.265 . S
C94 O99 1.244 . S
O95 Tb84 2.441 . S
O95 C85 1.244 . S
O96 Tb84 2.506 . S
O96 C85 1.265 . S
C97 O92 1.258 . S
C97 O98 1.251 . S
O98 C97 1.251 . S
O99 Tb81 2.441 . S
O99 C94 1.244 . S
O100 Tb101 2.506 . S
O100 C114 1.265 . S
Tb101 O100 2.506 . S
Tb101 O106 2.312 . S
Tb101 O110 2.271 . S
Tb101 O112 2.338 . S
Tb101 O119 2.441 . S
C102 O110 1.252 . S
C102 O111 1.253 . S
O103 Tb104 2.271 . S
O103 C113 1.252 . S
Tb104 O103 2.271 . S
Tb104 O107 2.338 1_545 S
Tb104 O111 2.312 . S
Tb104 O115 2.441 . S
Tb104 O116 2.506 . S
C105 O115 1.244 . S
C105 O116 1.265 . S
O106 Tb101 2.312 . S
O106 C113 1.253 . S
O107 Tb104 2.338 1_565 S
O107 C108 1.258 . S
C108 O107 1.258 . S
C108 O109 1.251 . S
O109 C108 1.251 . S
O110 Tb101 2.271 . S
O110 C102 1.252 . S
O111 C102 1.253 . S
O111 Tb104 2.312 . S
O112 Tb101 2.338 . S
O112 C117 1.258 . S
C113 O103 1.252 . S
C113 O106 1.253 . S
C114 O100 1.265 . S
C114 O119 1.244 . S
O115 Tb104 2.441 . S
O115 C105 1.244 . S
O116 Tb104 2.506 . S
O116 C105 1.265 . S
C117 O112 1.258 . S
C117 O118 1.251 . S
O118 C117 1.251 . S
O119 Tb101 2.441 . S
O119 C114 1.244 . S
O120 Tb121 2.506 . S
O120 C134 1.265 . S
Tb121 O120 2.506 . S
Tb121 O126 2.312 . S
Tb121 O130 2.271 . S
Tb121 O132 2.338 . S
Tb121 O139 2.441 . S
C122 O130 1.252 . S
C122 O131 1.253 . S
O123 Tb124 2.271 . S
O123 C133 1.252 . S
Tb124 O123 2.271 . S
Tb124 O127 2.338 . S
Tb124 O131 2.312 . S
Tb124 O135 2.441 . S
Tb124 O136 2.506 . S
C125 O135 1.244 . S
C125 O136 1.265 . S
O126 Tb121 2.312 . S
O126 C133 1.253 . S
O127 Tb124 2.338 . S
O127 C128 1.258 . S
C128 O127 1.258 . S
C128 O129 1.251 . S
O129 C128 1.251 . S
O130 Tb121 2.271 . S
O130 C122 1.252 . S
O131 C122 1.253 . S
O131 Tb124 2.312 . S
O132 Tb121 2.338 . S
O132 C137 1.258 . S
C133 O123 1.252 . S
C133 O126 1.253 . S
C134 O120 1.265 . S
C134 O139 1.244 . S
O135 Tb124 2.441 . S
O135 C125 1.244 . S
O136 Tb124 2.506 . S
O136 C125 1.265 . S
C137 O132 1.258 . S
C137 O138 1.251 . S
O138 C137 1.251 . S
O139 Tb121 2.441 . S
O139 C134 1.244 . S
O140 Tb141 2.506 . S
O140 C154 1.265 . S
Tb141 O140 2.506 . S
Tb141 O146 2.312 . S
Tb141 O150 2.271 . S
Tb141 O152 2.338 . S
Tb141 O159 2.441 . S
C142 O150 1.252 . S
C142 O151 1.253 . S
O143 Tb144 2.271 . S
O143 C153 1.252 . S
Tb144 O143 2.271 . S
Tb144 O147 2.338 . S
Tb144 O151 2.312 . S
Tb144 O155 2.441 . S
Tb144 O156 2.506 . S
C145 O155 1.244 . S
C145 O156 1.265 . S
O146 Tb141 2.312 . S
O146 C153 1.253 . S
O147 Tb144 2.338 . S
O147 C148 1.258 . S
C148 O147 1.258 . S
C148 O149 1.251 . S
O149 C148 1.251 . S
O150 Tb141 2.271 . S
O150 C142 1.252 . S
O151 C142 1.253 . S
O151 Tb144 2.312 . S
O152 Tb141 2.338 . S
O152 C157 1.258 . S
C153 O143 1.252 . S
C153 O146 1.253 . S
C154 O140 1.265 . S
C154 O159 1.244 . S
O155 Tb144 2.441 . S
O155 C145 1.244 . S
O156 Tb144 2.506 . S
O156 C145 1.265 . S
C157 O152 1.258 . S
C157 O158 1.251 . S
O158 C157 1.251 . S
O159 Tb141 2.441 . S
O159 C154 1.244 . S
O160 Tb161 2.506 . S
O160 C174 1.265 . S
Tb161 O160 2.506 . S
Tb161 O166 2.312 . S
Tb161 O170 2.271 . S
Tb161 O172 2.338 . S
Tb161 O179 2.441 . S
C162 O170 1.252 . S
C162 O171 1.253 . S
O163 Tb164 2.271 . S
O163 C173 1.252 . S
Tb164 O163 2.271 . S
Tb164 O167 2.338 1_655 S
Tb164 O171 2.312 . S
Tb164 O175 2.441 . S
Tb164 O176 2.506 . S
C165 O175 1.244 . S
C165 O176 1.265 . S
O166 Tb161 2.312 . S
O166 C173 1.253 . S
O167 Tb164 2.338 1_455 S
O167 C168 1.258 . S
C168 O167 1.258 . S
C168 O169 1.251 . S
O169 C168 1.251 . S
O170 Tb161 2.271 . S
O170 C162 1.252 . S
O171 C162 1.253 . S
O171 Tb164 2.312 . S
O172 Tb161 2.338 . S
O172 C177 1.258 . S
C173 O163 1.252 . S
C173 O166 1.253 . S
C174 O160 1.265 . S
C174 O179 1.244 . S
O175 Tb164 2.441 . S
O175 C165 1.244 . S
O176 Tb164 2.506 . S
O176 C165 1.265 . S
C177 O172 1.258 . S
C177 O178 1.251 . S
O178 C177 1.251 . S
O179 Tb161 2.441 . S
O179 C174 1.244 . S
O180 Tb181 2.506 . S
O180 C194 1.265 . S
Tb181 O180 2.506 . S
Tb181 O186 2.312 . S
Tb181 O190 2.271 . S
Tb181 O192 2.338 . S
Tb181 O199 2.441 . S
C182 O190 1.252 . S
C182 O191 1.253 . S
O183 Tb184 2.271 . S
O183 C193 1.252 . S
Tb184 O183 2.271 . S
Tb184 O187 2.338 1_565 S
Tb184 O191 2.312 . S
Tb184 O195 2.441 . S
Tb184 O196 2.506 . S
C185 O195 1.244 . S
C185 O196 1.265 . S
O186 Tb181 2.312 . S
O186 C193 1.253 . S
O187 Tb184 2.338 1_545 S
O187 C188 1.258 . S
C188 O187 1.258 . S
C188 O189 1.251 . S
O189 C188 1.251 . S
O190 Tb181 2.271 . S
O190 C182 1.252 . S
O191 C182 1.253 . S
O191 Tb184 2.312 . S
O192 Tb181 2.338 . S
O192 C197 1.258 . S
C193 O183 1.252 . S
C193 O186 1.253 . S
C194 O180 1.265 . S
C194 O199 1.244 . S
O195 Tb184 2.441 . S
O195 C185 1.244 . S
O196 Tb184 2.506 . S
O196 C185 1.265 . S
C197 O192 1.258 . S
C197 O198 1.251 . S
O198 C197 1.251 . S
O199 Tb181 2.441 . S
O199 C194 1.244 . S
O200 Tb201 2.506 . S
O200 C214 1.265 . S
Tb201 O200 2.506 . S
Tb201 O206 2.312 . S
Tb201 O210 2.271 . S
Tb201 O212 2.338 . S
Tb201 O219 2.441 . S
C202 O210 1.252 . S
C202 O211 1.253 . S
O203 Tb204 2.271 . S
O203 C213 1.252 . S
Tb204 O203 2.271 . S
Tb204 O207 2.338 . S
Tb204 O211 2.312 . S
Tb204 O215 2.441 . S
Tb204 O216 2.506 . S
C205 O215 1.244 . S
C205 O216 1.265 . S
O206 Tb201 2.312 . S
O206 C213 1.253 . S
O207 Tb204 2.338 . S
O207 C208 1.258 . S
C208 O207 1.258 . S
C208 O209 1.251 . S
O209 C208 1.251 . S
O210 Tb201 2.271 . S
O210 C202 1.252 . S
O211 C202 1.253 . S
O211 Tb204 2.312 . S
O212 Tb201 2.338 . S
O212 C217 1.258 . S
C213 O203 1.252 . S
C213 O206 1.253 . S
C214 O200 1.265 . S
C214 O219 1.244 . S
O215 Tb204 2.441 . S
O215 C205 1.244 . S
O216 Tb204 2.506 . S
O216 C205 1.265 . S
C217 O212 1.258 . S
C217 O218 1.251 . S
O218 C217 1.251 . S
O219 Tb201 2.441 . S
O219 C214 1.244 . S
O220 Tb221 2.506 . S
O220 C234 1.265 . S
Tb221 O220 2.506 . S
Tb221 O226 2.312 . S
Tb221 O230 2.271 . S
Tb221 O232 2.338 . S
Tb221 O239 2.441 . S
C222 O230 1.252 . S
C222 O231 1.253 . S
O223 Tb224 2.271 . S
O223 C233 1.252 . S
Tb224 O223 2.271 . S
Tb224 O227 2.338 . S
Tb224 O231 2.312 . S
Tb224 O235 2.441 . S
Tb224 O236 2.506 . S
C225 O235 1.244 . S
C225 O236 1.265 . S
O226 Tb221 2.312 . S
O226 C233 1.253 . S
O227 Tb224 2.338 . S
O227 C228 1.258 . S
C228 O227 1.258 . S
C228 O229 1.251 . S
O229 C228 1.251 . S
O230 Tb221 2.271 . S
O230 C222 1.252 . S
O231 C222 1.253 . S
O231 Tb224 2.312 . S
O232 Tb221 2.338 . S
O232 C237 1.258 . S
C233 O223 1.252 . S
C233 O226 1.253 . S
C234 O220 1.265 . S
C234 O239 1.244 . S
O235 Tb224 2.441 . S
O235 C225 1.244 . S
O236 Tb224 2.506 . S
O236 C225 1.265 . S
C237 O232 1.258 . S
C237 O238 1.251 . S
O238 C237 1.251 . S
O239 Tb221 2.441 . S
O239 C234 1.244 . S
O240 Tb241 2.506 . S
O240 C254 1.265 . S
Tb241 O240 2.506 . S
Tb241 O246 2.312 . S
Tb241 O250 2.271 . S
Tb241 O252 2.338 . S
Tb241 O259 2.441 . S
C242 O250 1.252 . S
C242 O251 1.253 . S
O243 Tb244 2.271 . S
O243 C253 1.252 . S
Tb244 O243 2.271 . S
Tb244 O247 2.338 1_655 S
Tb244 O251 2.312 . S
Tb244 O255 2.441 . S
Tb244 O256 2.506 . S
C245 O255 1.244 . S
C245 O256 1.265 . S
O246 Tb241 2.312 . S
O246 C253 1.253 . S
O247 Tb244 2.338 1_455 S
O247 C248 1.258 . S
C248 O247 1.258 . S
C248 O249 1.251 . S
O249 C248 1.251 . S
O250 Tb241 2.271 . S
O250 C242 1.252 . S
O251 C242 1.253 . S
O251 Tb244 2.312 . S
O252 Tb241 2.338 . S
O252 C257 1.258 . S
C253 O243 1.252 . S
C253 O246 1.253 . S
C254 O240 1.265 . S
C254 O259 1.244 . S
O255 Tb244 2.441 . S
O255 C245 1.244 . S
O256 Tb244 2.506 . S
O256 C245 1.265 . S
C257 O252 1.258 . S
C257 O258 1.251 . S
O258 C257 1.251 . S
O259 Tb241 2.441 . S
O259 C254 1.244 . S
O260 Tb261 2.506 . S
O260 C274 1.265 . S
Tb261 O260 2.506 . S
Tb261 O266 2.312 . S
Tb261 O270 2.271 . S
Tb261 O272 2.338 . S
Tb261 O279 2.441 . S
C262 O270 1.252 . S
C262 O271 1.253 . S
O263 Tb264 2.271 . S
O263 C273 1.252 . S
Tb264 O263 2.271 . S
Tb264 O267 2.338 1_565 S
Tb264 O271 2.312 . S
Tb264 O275 2.441 . S
Tb264 O276 2.506 . S
C265 O275 1.244 . S
C265 O276 1.265 . S
O266 Tb261 2.312 . S
O266 C273 1.253 . S
O267 Tb264 2.338 1_545 S
O267 C268 1.258 . S
C268 O267 1.258 . S
C268 O269 1.251 . S
O269 C268 1.251 . S
O270 Tb261 2.271 . S
O270 C262 1.252 . S
O271 C262 1.253 . S
O271 Tb264 2.312 . S
O272 Tb261 2.338 . S
O272 C277 1.258 . S
C273 O263 1.252 . S
C273 O266 1.253 . S
C274 O260 1.265 . S
C274 O279 1.244 . S
O275 Tb264 2.441 . S
O275 C265 1.244 . S
O276 Tb264 2.506 . S
O276 C265 1.265 . S
C277 O272 1.258 . S
C277 O278 1.251 . S
O278 C277 1.251 . S
O279 Tb261 2.441 . S
O279 C274 1.244 . S
O280 Tb281 2.506 . S
O280 C294 1.265 . S
Tb281 O280 2.506 . S
Tb281 O286 2.312 . S
Tb281 O290 2.271 . S
Tb281 O292 2.338 . S
Tb281 O299 2.441 . S
C282 O290 1.252 . S
C282 O291 1.253 . S
O283 Tb284 2.271 . S
O283 C293 1.252 . S
Tb284 O283 2.271 . S
Tb284 O287 2.338 . S
Tb284 O291 2.312 . S
Tb284 O295 2.441 . S
Tb284 O296 2.506 . S
C285 O295 1.244 . S
C285 O296 1.265 . S
O286 Tb281 2.312 . S
O286 C293 1.253 . S
O287 Tb284 2.338 . S
O287 C288 1.258 . S
C288 O287 1.258 . S
C288 O289 1.251 . S
O289 C288 1.251 . S
O290 Tb281 2.271 . S
O290 C282 1.252 . S
O291 C282 1.253 . S
O291 Tb284 2.312 . S
O292 Tb281 2.338 . S
O292 C297 1.258 . S
C293 O283 1.252 . S
C293 O286 1.253 . S
C294 O280 1.265 . S
C294 O299 1.244 . S
O295 Tb284 2.441 . S
O295 C285 1.244 . S
O296 Tb284 2.506 . S
O296 C285 1.265 . S
C297 O292 1.258 . S
C297 O298 1.251 . S
O298 C297 1.251 . S
O299 Tb281 2.441 . S
O299 C294 1.244 . S
O300 Tb301 2.506 . S
O300 C314 1.265 . S
Tb301 O300 2.506 . S
Tb301 O306 2.312 . S
Tb301 O310 2.271 . S
Tb301 O312 2.338 . S
Tb301 O319 2.441 . S
C302 O310 1.252 . S
C302 O311 1.253 . S
O303 Tb304 2.271 . S
O303 C313 1.252 . S
Tb304 O303 2.271 . S
Tb304 O307 2.338 . S
Tb304 O311 2.312 . S
Tb304 O315 2.441 . S
Tb304 O316 2.506 . S
C305 O315 1.244 . S
C305 O316 1.265 . S
O306 Tb301 2.312 . S
O306 C313 1.253 . S
O307 Tb304 2.338 . S
O307 C308 1.258 . S
C308 O307 1.258 . S
C308 O309 1.251 . S
O309 C308 1.251 . S
O310 Tb301 2.271 . S
O310 C302 1.252 . S
O311 C302 1.253 . S
O311 Tb304 2.312 . S
O312 Tb301 2.338 . S
O312 C317 1.258 . S
C313 O303 1.252 . S
C313 O306 1.253 . S
C314 O300 1.265 . S
C314 O319 1.244 . S
O315 Tb304 2.441 . S
O315 C305 1.244 . S
O316 Tb304 2.506 . S
O316 C305 1.265 . S
C317 O312 1.258 . S
C317 O318 1.251 . S
O318 C317 1.251 . S
O319 Tb301 2.441 . S
O319 C314 1.244 . S
H320 C328 0.950 . S
H321 C333 0.950 . S
H322 C330 0.950 . S
H323 C332 0.950 . S
H324 C334 0.950 . S
H325 C336 0.950 . S
H326 C338 0.950 . S
H327 C339 0.950 . S
C328 H320 0.950 . S
C328 C329 1.386 . S
C328 C330 1.391 . S
C329 C328 1.386 . S
C329 C333 1.393 . S
C330 H322 0.950 . S
C330 C328 1.391 . S
C330 C331 1.400 . S
C331 C330 1.400 . S
C331 C332 1.398 . S
C331 C337 1.491 . S
C332 H323 0.950 . S
C332 C331 1.398 . S
C332 C333 1.391 . S
C333 H321 0.950 . S
C333 C329 1.393 . S
C333 C332 1.391 . S
C334 H324 0.950 . S
C334 C335 1.386 . S
C334 C336 1.391 . S
C335 C334 1.386 . S
C335 C339 1.393 . S
C336 H325 0.950 . S
C336 C334 1.391 . S
C336 C337 1.400 . S
C337 C331 1.491 . S
C337 C336 1.400 . S
C337 C338 1.398 . S
C338 H326 0.950 . S
C338 C337 1.398 . S
C338 C339 1.391 . S
C339 H327 0.950 . S
C339 C335 1.393 . S
C339 C338 1.391 . S
H340 C348 0.950 . S
H341 C353 0.950 . S
H342 C350 0.950 . S
H343 C352 0.950 1_655 S
H344 C354 0.950 . S
H345 C356 0.950 . S
H346 C358 0.950 . S
H347 C359 0.950 . S
C348 H340 0.950 . S
C348 C349 1.386 . S
C348 C350 1.391 . S
C349 C348 1.386 . S
C349 C353 1.393 . S
C350 H342 0.950 . S
C350 C348 1.391 . S
C350 C351 1.400 . S
C351 C350 1.400 . S
C351 C352 1.398 . S
C351 C357 1.506 . S
C352 H343 0.950 1_455 S
C352 C351 1.398 . S
C352 C353 1.391 . S
C353 H341 0.950 . S
C353 C349 1.393 . S
C353 C352 1.391 . S
C354 H344 0.950 . S
C354 C355 1.386 . S
C354 C356 1.391 . S
C355 C354 1.386 . S
C355 C359 1.393 . S
C356 H345 0.950 . S
C356 C354 1.391 . S
C356 C357 1.380 1_655 S
C357 C351 1.506 . S
C357 C356 1.380 1_455 S
C357 C358 1.403 . S
C358 H346 0.950 . S
C358 C357 1.403 . S
C358 C359 1.391 1_455 S
C359 H347 0.950 . S
C359 C355 1.393 . S
C359 C358 1.391 1_655 S
H360 C368 0.950 . S
H361 C373 0.944 1_545 S
H362 C370 0.950 . S
H363 C372 0.950 . S
H364 C374 0.950 . S
H365 C376 0.950 . S
H366 C378 0.950 1_565 S
H367 C379 0.950 . S
C368 H360 0.950 . S
C368 C369 1.386 . S
C368 C370 1.391 . S
C369 C368 1.386 . S
C369 C373 1.405 . S
C370 H362 0.950 . S
C370 C368 1.391 . S
C370 C371 1.385 1_565 S
C371 C370 1.385 1_545 S
C371 C372 1.406 . S
C371 C377 1.498 . S
C372 H363 0.950 . S
C372 C371 1.406 . S
C372 C373 1.384 1_545 S
C373 H361 0.944 1_565 S
C373 C369 1.405 . S
C373 C372 1.384 1_565 S
C374 H364 0.950 . S
C374 C375 1.386 . S
C374 C376 1.391 . S
C375 C374 1.386 . S
C375 C379 1.393 . S
C376 H365 0.950 . S
C376 C374 1.391 . S
C376 C377 1.400 . S
C377 C371 1.498 . S
C377 C376 1.400 . S
C377 C378 1.398 . S
C378 H366 0.950 1_545 S
C378 C377 1.398 . S
C378 C379 1.391 . S
C379 H367 0.950 . S
C379 C375 1.393 . S
C379 C378 1.391 . S
H380 C388 0.950 . S
H381 C393 0.950 . S
H382 C390 0.950 . S
H383 C392 0.950 . S
H384 C394 0.950 . S
H385 C396 0.950 . S
H386 C398 0.950 . S
H387 C399 0.950 . S
C388 H380 0.950 . S
C388 C389 1.386 . S
C388 C390 1.391 . S
C389 C388 1.386 . S
C389 C393 1.393 . S
C390 H382 0.950 . S
C390 C388 1.391 . S
C390 C391 1.400 . S
C391 C390 1.400 . S
C391 C392 1.398 . S
C391 C397 1.491 . S
C392 H383 0.950 . S
C392 C391 1.398 . S
C392 C393 1.391 . S
C393 H381 0.950 . S
C393 C389 1.393 . S
C393 C392 1.391 . S
C394 H384 0.950 . S
C394 C395 1.386 . S
C394 C396 1.391 . S
C395 C394 1.386 . S
C395 C399 1.393 . S
C396 H385 0.950 . S
C396 C394 1.391 . S
C396 C397 1.400 . S
C397 C391 1.491 . S
C397 C396 1.400 . S
C397 C398 1.398 . S
C398 H386 0.950 . S
C398 C397 1.398 . S
C398 C399 1.391 . S
C399 H387 0.950 . S
C399 C395 1.393 . S
C399 C398 1.391 . S
H400 C408 0.950 1_545 S
H401 C413 0.950 . S
H402 C410 0.950 . S
H403 C412 0.950 . S
H404 C414 0.950 . S
H405 C416 0.950 1_565 S
H406 C418 0.950 . S
H407 C419 0.950 . S
C408 H400 0.950 1_565 S
C408 C409 1.386 . S
C408 C410 1.391 1_565 S
C409 C408 1.386 . S
C409 C413 1.393 . S
C410 H402 0.950 . S
C410 C408 1.391 1_545 S
C410 C411 1.408 . S
C411 C410 1.408 . S
C411 C412 1.381 1_545 S
C411 C417 1.500 . S
C412 H403 0.950 . S
C412 C411 1.381 1_565 S
C412 C413 1.391 . S
C413 H401 0.950 . S
C413 C409 1.393 . S
C413 C412 1.391 . S
C414 H404 0.950 . S
C414 C415 1.386 . S
C414 C416 1.391 . S
C415 C414 1.386 . S
C415 C419 1.393 . S
C416 H405 0.950 1_545 S
C416 C414 1.391 . S
C416 C417 1.400 . S
C417 C411 1.500 . S
C417 C416 1.400 . S
C417 C418 1.398 . S
C418 H406 0.950 . S
C418 C417 1.398 . S
C418 C419 1.391 . S
C419 H407 0.950 . S
C419 C415 1.393 . S
C419 C418 1.391 . S
H420 C428 0.950 . S
H421 C433 0.950 . S
H422 C430 0.950 . S
H423 C432 0.950 . S
H424 C434 0.950 . S
H425 C436 0.950 . S
H426 C438 0.950 . S
H427 C439 0.950 . S
C428 H420 0.950 . S
C428 C429 1.386 . S
C428 C430 1.391 . S
C429 C428 1.386 . S
C429 C433 1.393 . S
C430 H422 0.950 . S
C430 C428 1.391 . S
C430 C431 1.400 . S
C431 C430 1.400 . S
C431 C432 1.398 . S
C431 C437 1.491 . S
C432 H423 0.950 . S
C432 C431 1.398 . S
C432 C433 1.391 . S
C433 H421 0.950 . S
C433 C429 1.393 . S
C433 C432 1.391 . S
C434 H424 0.950 . S
C434 C435 1.386 . S
C434 C436 1.391 . S
C435 C434 1.386 . S
C435 C439 1.393 . S
C436 H425 0.950 . S
C436 C434 1.391 . S
C436 C437 1.400 . S
C437 C431 1.491 . S
C437 C436 1.400 . S
C437 C438 1.398 . S
C438 H426 0.950 . S
C438 C437 1.398 . S
C438 C439 1.391 . S
C439 H427 0.950 . S
C439 C435 1.393 . S
C439 C438 1.391 . S
H440 C448 0.950 . S
H441 C453 0.950 . S
H442 C450 0.950 . S
H443 C452 0.950 . S
H444 C454 0.950 . S
H445 C456 0.950 . S
H446 C458 0.950 . S
H447 C459 0.950 . S
C448 H440 0.950 . S
C448 C449 1.386 . S
C448 C450 1.391 . S
C449 C448 1.386 . S
C449 C453 1.393 . S
C450 H442 0.950 . S
C450 C448 1.391 . S
C450 C451 1.400 . S
C451 C450 1.400 . S
C451 C452 1.398 . S
C451 C457 1.491 . S
C452 H443 0.950 . S
C452 C451 1.398 . S
C452 C453 1.391 . S
C453 H441 0.950 . S
C453 C449 1.393 . S
C453 C452 1.391 . S
C454 H444 0.950 . S
C454 C455 1.386 . S
C454 C456 1.391 . S
C455 C454 1.386 . S
C455 C459 1.393 . S
C456 H445 0.950 . S
C456 C454 1.391 . S
C456 C457 1.400 . S
C457 C451 1.491 . S
C457 C456 1.400 . S
C457 C458 1.398 . S
C458 H446 0.950 . S
C458 C457 1.398 . S
C458 C459 1.391 . S
C459 H447 0.950 . S
C459 C455 1.393 . S
C459 C458 1.391 . S
H460 C468 0.950 . S
H461 C473 0.950 . S
H462 C470 0.950 . S
H463 C472 0.950 1_655 S
H464 C474 0.950 . S
H465 C476 0.950 . S
H466 C478 0.950 . S
H467 C479 0.945 1_455 S
C468 H460 0.950 . S
C468 C469 1.386 . S
C468 C470 1.391 . S
C469 C468 1.386 . S
C469 C473 1.393 . S
C470 H462 0.950 . S
C470 C468 1.391 . S
C470 C471 1.400 . S
C471 C470 1.400 . S
C471 C472 1.398 . S
C471 C477 1.505 . S
C472 H463 0.950 1_455 S
C472 C471 1.398 . S
C472 C473 1.391 . S
C473 H461 0.950 . S
C473 C469 1.393 . S
C473 C472 1.391 . S
C474 H464 0.950 . S
C474 C475 1.386 . S
C474 C476 1.391 . S
C475 C474 1.386 . S
C475 C479 1.393 . S
C476 H465 0.950 . S
C476 C474 1.391 . S
C476 C477 1.377 1_655 S
C477 C471 1.505 . S
C477 C476 1.377 1_455 S
C477 C478 1.407 . S
C478 H466 0.950 . S
C478 C477 1.407 . S
C478 C479 1.391 1_455 S
C479 H467 0.945 1_655 S
C479 C475 1.393 . S
C479 C478 1.391 1_655 S
H480 C488 0.950 . S
H481 C493 0.950 . S
H482 C490 0.950 . S
H483 C492 0.950 . S
H484 C494 0.950 . S
H485 C496 0.950 . S
H486 C498 0.950 . S
H487 C499 0.951 . S
C488 H480 0.950 . S
C488 C489 1.386 . S
C488 C490 1.391 . S
C489 C488 1.386 . S
C489 C493 1.393 . S
C490 H482 0.950 . S
C490 C488 1.391 . S
C490 C491 1.400 . S
C491 C490 1.400 . S
C491 C492 1.398 . S
C491 C497 1.491 . S
C492 H483 0.950 . S
C492 C491 1.398 . S
C492 C493 1.391 . S
C493 H481 0.950 . S
C493 C489 1.393 . S
C493 C492 1.391 . S
C494 H484 0.950 . S
C494 C495 1.386 . S
C494 C496 1.391 . S
C495 C494 1.386 . S
C495 C499 1.393 . S
C496 H485 0.950 . S
C496 C494 1.391 . S
C496 C497 1.400 . S
C497 C491 1.491 . S
C497 C496 1.400 . S
C497 C498 1.398 . S
C498 H486 0.950 . S
C498 C497 1.398 . S
C498 C499 1.391 . S
C499 H487 0.951 . S
C499 C495 1.393 . S
C499 C498 1.391 . S
H500 C508 0.950 . S
H501 C513 0.950 . S
H502 C510 0.950 . S
H503 C512 0.950 . S
H504 C514 0.950 . S
H505 C516 0.950 . S
H506 C518 0.950 . S
H507 C519 0.950 . S
C508 H500 0.950 . S
C508 C509 1.386 . S
C508 C510 1.391 . S
C509 C508 1.386 . S
C509 C513 1.393 . S
C510 H502 0.950 . S
C510 C508 1.391 . S
C510 C511 1.400 . S
C511 C510 1.400 . S
C511 C512 1.398 . S
C511 C517 1.507 . S
C512 H503 0.950 . S
C512 C511 1.398 . S
C512 C513 1.391 . S
C513 H501 0.950 . S
C513 C509 1.393 . S
C513 C512 1.391 . S
C514 H504 0.950 . S
C514 C515 1.386 . S
C514 C516 1.391 . S
C515 C514 1.386 . S
C515 C519 1.393 . S
C516 H505 0.950 . S
C516 C514 1.391 . S
C516 C517 1.383 1_455 S
C517 C511 1.507 . S
C517 C516 1.383 1_655 S
C517 C518 1.399 . S
C518 H506 0.950 . S
C518 C517 1.399 . S
C518 C519 1.391 1_655 S
C519 H507 0.950 . S
C519 C515 1.393 . S
C519 C518 1.391 1_455 S
H520 C528 0.950 . S
H521 C533 0.950 . S
H522 C530 0.950 . S
H523 C532 0.950 1_545 S
H524 C534 0.950 . S
H525 C536 0.950 . S
H526 C538 0.950 . S
H527 C539 0.950 . S
C528 H520 0.950 . S
C528 C529 1.386 . S
C528 C530 1.391 . S
C529 C528 1.386 . S
C529 C533 1.393 . S
C530 H522 0.950 . S
C530 C528 1.391 . S
C530 C531 1.400 . S
C531 C530 1.400 . S
C531 C532 1.398 . S
C531 C537 1.489 . S
C532 H523 0.950 1_565 S
C532 C531 1.398 . S
C532 C533 1.391 . S
C533 H521 0.950 . S
C533 C529 1.393 . S
C533 C532 1.391 . S
C534 H524 0.950 . S
C534 C535 1.386 . S
C534 C536 1.391 . S
C535 C534 1.386 . S
C535 C539 1.393 . S
C536 H525 0.950 . S
C536 C534 1.391 . S
C536 C537 1.403 1_545 S
C537 C531 1.489 . S
C537 C536 1.403 1_565 S
C537 C538 1.398 . S
C538 H526 0.950 . S
C538 C537 1.398 . S
C538 C539 1.391 1_565 S
C539 H527 0.950 . S
C539 C535 1.393 . S
C539 C538 1.391 1_545 S
H540 C548 0.950 . S
H541 C553 0.950 . S
H542 C550 0.950 . S
H543 C552 0.950 . S
H544 C554 0.950 . S
H545 C556 0.950 . S
H546 C558 0.950 . S
H547 C559 0.950 . S
C548 H540 0.950 . S
C548 C549 1.386 . S
C548 C550 1.391 . S
C549 C548 1.386 . S
C549 C553 1.393 . S
C550 H542 0.950 . S
C550 C548 1.391 . S
C550 C551 1.400 . S
C551 C550 1.400 . S
C551 C552 1.398 . S
C551 C557 1.491 . S
C552 H543 0.950 . S
C552 C551 1.398 . S
C552 C553 1.391 . S
C553 H541 0.950 . S
C553 C549 1.393 . S
C553 C552 1.391 . S
C554 H544 0.950 . S
C554 C555 1.386 . S
C554 C556 1.391 . S
C555 C554 1.386 . S
C555 C559 1.393 . S
C556 H545 0.950 . S
C556 C554 1.391 . S
C556 C557 1.400 . S
C557 C551 1.491 . S
C557 C556 1.400 . S
C557 C558 1.398 . S
C558 H546 0.950 . S
C558 C557 1.398 . S
C558 C559 1.391 . S
C559 H547 0.950 . S
C559 C555 1.393 . S
C559 C558 1.391 . S
H560 C568 0.950 . S
H561 C573 0.950 . S
H562 C570 0.950 . S
H563 C572 0.941 1_565 S
H564 C574 0.950 . S
H565 C576 0.950 . S
H566 C578 0.950 . S
H567 C579 0.950 . S
C568 H560 0.950 . S
C568 C569 1.386 . S
C568 C570 1.391 . S
C569 C568 1.386 . S
C569 C573 1.393 . S
C570 H562 0.950 . S
C570 C568 1.391 . S
C570 C571 1.385 1_545 S
C571 C570 1.385 1_565 S
C571 C572 1.397 1_565 S
C571 C577 1.507 . S
C572 H563 0.941 1_545 S
C572 C571 1.397 1_545 S
C572 C573 1.401 . S
C573 H561 0.950 . S
C573 C569 1.393 . S
C573 C572 1.401 . S
C574 H564 0.950 . S
C574 C575 1.386 . S
C574 C576 1.391 . S
C575 C574 1.386 . S
C575 C579 1.393 . S
C576 H565 0.950 . S
C576 C574 1.391 . S
C576 C577 1.400 . S
C577 C571 1.507 . S
C577 C576 1.400 . S
C577 C578 1.398 . S
C578 H566 0.950 . S
C578 C577 1.398 . S
C578 C579 1.391 . S
C579 H567 0.950 . S
C579 C575 1.393 . S
C579 C578 1.391 . S
H580 C588 0.950 . S
H581 C593 0.950 . S
H582 C590 0.950 . S
H583 C592 0.950 . S
H584 C594 0.950 . S
H585 C596 0.950 . S
H586 C598 0.950 . S
H587 C599 0.950 . S
C588 H580 0.950 . S
C588 C589 1.386 . S
C588 C590 1.391 . S
C589 C588 1.386 . S
C589 C593 1.393 . S
C590 H582 0.950 . S
C590 C588 1.391 . S
C590 C591 1.400 . S
C591 C590 1.400 . S
C591 C592 1.398 . S
C591 C597 1.491 . S
C592 H583 0.950 . S
C592 C591 1.398 . S
C592 C593 1.391 . S
C593 H581 0.950 . S
C593 C589 1.393 . S
C593 C592 1.391 . S
C594 H584 0.950 . S
C594 C595 1.386 . S
C594 C596 1.391 . S
C595 C594 1.386 . S
C595 C599 1.393 . S
C596 H585 0.950 . S
C596 C594 1.391 . S
C596 C597 1.400 . S
C597 C591 1.491 . S
C597 C596 1.400 . S
C597 C598 1.398 . S
C598 H586 0.950 . S
C598 C597 1.398 . S
C598 C599 1.391 . S
C599 H587 0.950 . S
C599 C595 1.393 . S
C599 C598 1.391 . S
H600 C608 0.950 . S
H601 C613 0.950 . S
H602 C610 0.950 . S
H603 C612 0.950 . S
H604 C614 0.950 . S
H605 C616 0.950 . S
H606 C618 0.950 . S
H607 C619 0.950 . S
C608 H600 0.950 . S
C608 C609 1.386 . S
C608 C610 1.391 . S
C609 C608 1.386 . S
C609 C613 1.393 . S
C610 H602 0.950 . S
C610 C608 1.391 . S
C610 C611 1.400 . S
C611 C610 1.400 . S
C611 C612 1.398 . S
C611 C617 1.491 . S
C612 H603 0.950 . S
C612 C611 1.398 . S
C612 C613 1.391 . S
C613 H601 0.950 . S
C613 C609 1.393 . S
C613 C612 1.391 . S
C614 H604 0.950 . S
C614 C615 1.386 . S
C614 C616 1.391 . S
C615 C614 1.386 . S
C615 C619 1.393 . S
C616 H605 0.950 . S
C616 C614 1.391 . S
C616 C617 1.400 . S
C617 C611 1.491 . S
C617 C616 1.400 . S
C617 C618 1.398 . S
C618 H606 0.950 . S
C618 C617 1.398 . S
C618 C619 1.391 . S
C619 H607 0.950 . S
C619 C615 1.393 . S
C619 C618 1.391 . S
H620 C628 0.950 . S
H621 C633 0.950 1_655 S
H622 C630 0.950 . S
H623 C632 0.950 . S
H624 C634 0.950 . S
H625 C636 0.950 . S
H626 C638 0.950 1_455 S
H627 C639 0.950 . S
C628 H620 0.950 . S
C628 C629 1.386 . S
C628 C630 1.391 . S
C629 C628 1.386 . S
C629 C633 1.393 . S
C630 H622 0.950 . S
C630 C628 1.391 . S
C630 C631 1.377 1_455 S
C631 C630 1.377 1_655 S
C631 C632 1.408 . S
C631 C637 1.504 . S
C632 H623 0.950 . S
C632 C631 1.408 . S
C632 C633 1.391 1_655 S
C633 H621 0.950 1_455 S
C633 C629 1.393 . S
C633 C632 1.391 1_455 S
C634 H624 0.950 . S
C634 C635 1.386 . S
C634 C636 1.391 . S
C635 C634 1.386 . S
C635 C639 1.393 . S
C636 H625 0.950 . S
C636 C634 1.391 . S
C636 C637 1.400 . S
C637 C631 1.504 . S
C637 C636 1.400 . S
C637 C638 1.398 . S
C638 H626 0.950 1_655 S
C638 C637 1.398 . S
C638 C639 1.391 . S
C639 H627 0.950 . S
C639 C635 1.393 . S
C639 C638 1.391 . S
H640 C648 0.950 . S
H641 C653 0.950 . S
H642 C650 0.950 . S
H643 C652 0.950 . S
H644 C654 0.950 . S
H645 C656 0.950 . S
H646 C658 0.950 . S
H647 C659 0.950 . S
C648 H640 0.950 . S
C648 C649 1.386 . S
C648 C650 1.391 . S
C649 C648 1.386 . S
C649 C653 1.393 . S
C650 H642 0.950 . S
C650 C648 1.391 . S
C650 C651 1.400 . S
C651 C650 1.400 . S
C651 C652 1.398 . S
C651 C657 1.491 . S
C652 H643 0.950 . S
C652 C651 1.398 . S
C652 C653 1.391 . S
C653 H641 0.950 . S
C653 C649 1.393 . S
C653 C652 1.391 . S
C654 H644 0.950 . S
C654 C655 1.386 . S
C654 C656 1.391 . S
C655 C654 1.386 . S
C655 C659 1.393 . S
C656 H645 0.950 . S
C656 C654 1.391 . S
C656 C657 1.400 . S
C657 C651 1.491 . S
C657 C656 1.400 . S
C657 C658 1.398 . S
C658 H646 0.950 . S
C658 C657 1.398 . S
C658 C659 1.391 . S
C659 H647 0.950 . S
C659 C655 1.393 . S
C659 C658 1.391 . S
H660 C668 0.950 . S
H661 C673 0.950 . S
H662 C670 0.950 . S
H663 C672 0.950 . S
H664 C674 0.950 . S
H665 C676 0.950 . S
H666 C678 0.950 . S
H667 C679 0.950 . S
C668 H660 0.950 . S
C668 C669 1.386 . S
C668 C670 1.391 . S
C669 C668 1.386 . S
C669 C673 1.393 . S
C670 H662 0.950 . S
C670 C668 1.391 . S
C670 C671 1.400 . S
C671 C670 1.400 . S
C671 C672 1.398 . S
C671 C677 1.491 . S
C672 H663 0.950 . S
C672 C671 1.398 . S
C672 C673 1.391 . S
C673 H661 0.950 . S
C673 C669 1.393 . S
C673 C672 1.391 . S
C674 H664 0.950 . S
C674 C675 1.386 . S
C674 C676 1.391 . S
C675 C674 1.386 . S
C675 C679 1.393 . S
C676 H665 0.950 . S
C676 C674 1.391 . S
C676 C677 1.400 . S
C677 C671 1.491 . S
C677 C676 1.400 . S
C677 C678 1.398 . S
C678 H666 0.950 . S
C678 C677 1.398 . S
C678 C679 1.391 . S
C679 H667 0.950 . S
C679 C675 1.393 . S
C679 C678 1.391 . S
H680 C688 0.950 . S
H681 C693 0.950 . S
H682 C690 0.950 . S
H683 C692 0.950 . S
H684 C694 0.950 . S
H685 C696 0.950 . S
H686 C698 0.950 . S
H687 C699 0.950 . S
C688 H680 0.950 . S
C688 C689 1.386 . S
C688 C690 1.391 . S
C689 C688 1.386 . S
C689 C693 1.393 . S
C690 H682 0.950 . S
C690 C688 1.391 . S
C690 C691 1.400 . S
C691 C690 1.400 . S
C691 C692 1.398 . S
C691 C697 1.491 . S
C692 H683 0.950 . S
C692 C691 1.398 . S
C692 C693 1.391 . S
C693 H681 0.950 . S
C693 C689 1.393 . S
C693 C692 1.391 . S
C694 H684 0.950 . S
C694 C695 1.386 . S
C694 C696 1.391 . S
C695 C694 1.386 . S
C695 C699 1.393 . S
C696 H685 0.950 . S
C696 C694 1.391 . S
C696 C697 1.400 . S
C697 C691 1.491 . S
C697 C696 1.400 . S
C697 C698 1.398 . S
C698 H686 0.950 . S
C698 C697 1.398 . S
C698 C699 1.391 . S
C699 H687 0.950 . S
C699 C695 1.393 . S
C699 C698 1.391 . S
H700 C708 0.950 . S
H701 C713 0.950 . S
H702 C710 0.950 . S
H703 C712 0.950 . S
H704 C714 0.950 . S
H705 C716 0.950 . S
H706 C718 0.950 . S
H707 C719 0.950 . S
C708 H700 0.950 . S
C708 C709 1.386 . S
C708 C710 1.391 . S
C709 C708 1.386 . S
C709 C713 1.393 . S
C710 H702 0.950 . S
C710 C708 1.391 . S
C710 C711 1.400 . S
C711 C710 1.400 . S
C711 C712 1.398 . S
C711 C717 1.491 . S
C712 H703 0.950 . S
C712 C711 1.398 . S
C712 C713 1.391 . S
C713 H701 0.950 . S
C713 C709 1.393 . S
C713 C712 1.391 . S
C714 H704 0.950 . S
C714 C715 1.386 . S
C714 C716 1.391 . S
C715 C714 1.386 . S
C715 C719 1.393 . S
C716 H705 0.950 . S
C716 C714 1.391 . S
C716 C717 1.400 . S
C717 C711 1.491 . S
C717 C716 1.400 . S
C717 C718 1.398 . S
C718 H706 0.950 . S
C718 C717 1.398 . S
C718 C719 1.391 . S
C719 H707 0.950 . S
C719 C715 1.393 . S
C719 C718 1.391 . S
H720 C728 0.950 . S
H721 C733 0.950 . S
H722 C730 0.950 . S
H723 C732 0.950 . S
H724 C734 0.950 . S
H725 C736 0.950 . S
H726 C738 0.950 . S
H727 C739 0.950 . S
C728 H720 0.950 . S
C728 C729 1.386 . S
C728 C730 1.391 . S
C729 C728 1.386 . S
C729 C733 1.393 . S
C730 H722 0.950 . S
C730 C728 1.391 . S
C730 C731 1.400 . S
C731 C730 1.400 . S
C731 C732 1.398 . S
C731 C737 1.491 . S
C732 H723 0.950 . S
C732 C731 1.398 . S
C732 C733 1.391 . S
C733 H721 0.950 . S
C733 C729 1.393 . S
C733 C732 1.391 . S
C734 H724 0.950 . S
C734 C735 1.386 . S
C734 C736 1.391 . S
C735 C734 1.386 . S
C735 C739 1.393 . S
C736 H725 0.950 . S
C736 C734 1.391 . S
C736 C737 1.400 . S
C737 C731 1.491 . S
C737 C736 1.400 . S
C737 C738 1.398 . S
C738 H726 0.950 . S
C738 C737 1.398 . S
C738 C739 1.391 . S
C739 H727 0.950 . S
C739 C735 1.393 . S
C739 C738 1.391 . S
H740 C748 0.950 . S
H741 C753 0.950 . S
H742 C750 0.950 . S
H743 C752 0.950 . S
H744 C754 0.950 . S
H745 C756 0.950 . S
H746 C758 0.950 . S
H747 C759 0.950 . S
C748 H740 0.950 . S
C748 C749 1.386 . S
C748 C750 1.391 . S
C749 C748 1.386 . S
C749 C753 1.393 . S
C750 H742 0.950 . S
C750 C748 1.391 . S
C750 C751 1.400 . S
C751 C750 1.400 . S
C751 C752 1.398 . S
C751 C757 1.491 . S
C752 H743 0.950 . S
C752 C751 1.398 . S
C752 C753 1.391 . S
C753 H741 0.950 . S
C753 C749 1.393 . S
C753 C752 1.391 . S
C754 H744 0.950 . S
C754 C755 1.386 . S
C754 C756 1.391 . S
C755 C754 1.386 . S
C755 C759 1.393 . S
C756 H745 0.950 . S
C756 C754 1.391 . S
C756 C757 1.400 . S
C757 C751 1.491 . S
C757 C756 1.400 . S
C757 C758 1.398 . S
C758 H746 0.950 . S
C758 C757 1.398 . S
C758 C759 1.391 . S
C759 H747 0.950 . S
C759 C755 1.393 . S
C759 C758 1.391 . S
H760 C768 0.950 . S
H761 C773 0.950 . S
H762 C770 0.950 . S
H763 C772 0.950 . S
H764 C774 0.950 . S
H765 C776 0.950 . S
H766 C778 0.950 . S
H767 C779 0.950 . S
C768 H760 0.950 . S
C768 C769 1.386 . S
C768 C770 1.391 . S
C769 C768 1.386 . S
C769 C773 1.393 . S
C770 H762 0.950 . S
C770 C768 1.391 . S
C770 C771 1.400 . S
C771 C770 1.400 . S
C771 C772 1.398 . S
C771 C777 1.491 . S
C772 H763 0.950 . S
C772 C771 1.398 . S
C772 C773 1.391 . S
C773 H761 0.950 . S
C773 C769 1.393 . S
C773 C772 1.391 . S
C774 H764 0.950 . S
C774 C775 1.386 . S
C774 C776 1.391 . S
C775 C774 1.386 . S
C775 C779 1.393 . S
C776 H765 0.950 . S
C776 C774 1.391 . S
C776 C777 1.400 . S
C777 C771 1.491 . S
C777 C776 1.400 . S
C777 C778 1.398 . S
C778 H766 0.950 . S
C778 C777 1.398 . S
C778 C779 1.391 . S
C779 H767 0.950 . S
C779 C775 1.393 . S
C779 C778 1.391 . S
H780 C788 0.950 . S
H781 C793 0.950 . S
H782 C790 0.950 . S
H783 C792 0.950 . S
H784 C794 0.950 . S
H785 C796 0.950 . S
H786 C798 0.950 . S
H787 C799 0.950 . S
C788 H780 0.950 . S
C788 C789 1.386 . S
C788 C790 1.391 . S
C789 C788 1.386 . S
C789 C793 1.393 . S
C790 H782 0.950 . S
C790 C788 1.391 . S
C790 C791 1.400 . S
C791 C790 1.400 . S
C791 C792 1.398 . S
C791 C797 1.491 . S
C792 H783 0.950 . S
C792 C791 1.398 . S
C792 C793 1.391 . S
C793 H781 0.950 . S
C793 C789 1.393 . S
C793 C792 1.391 . S
C794 H784 0.950 . S
C794 C795 1.386 . S
C794 C796 1.391 . S
C795 C794 1.386 . S
C795 C799 1.393 . S
C796 H785 0.950 . S
C796 C794 1.391 . S
C796 C797 1.400 . S
C797 C791 1.491 . S
C797 C796 1.400 . S
C797 C798 1.398 . S
C798 H786 0.950 . S
C798 C797 1.398 . S
C798 C799 1.391 . S
C799 H787 0.950 . S
C799 C795 1.393 . S
C799 C798 1.391 . S
H800 C808 0.950 . S
H801 C813 0.925 1_556 S
H802 C810 0.950 . S
H803 C812 0.950 1_556 S
H804 C814 0.934 1_556 S
H805 C816 0.933 1_556 S
H806 C818 0.950 . S
H807 C819 0.950 . S
C808 H800 0.950 . S
C808 C809 1.386 . S
C808 C810 1.391 . S
C809 C808 1.386 . S
C809 C813 1.417 . S
C810 H802 0.950 . S
C810 C808 1.391 . S
C810 C811 1.400 . S
C811 C810 1.400 . S
C811 C812 1.398 . S
C811 C817 1.491 . S
C812 H803 0.950 1_554 S
C812 C811 1.398 . S
C812 C813 1.391 . S
C813 H801 0.925 1_554 S
C813 C809 1.417 . S
C813 C812 1.391 . S
C814 H804 0.934 1_554 S
C814 C815 1.401 . S
C814 C816 1.391 . S
C815 C814 1.401 . S
C815 C819 1.393 . S
C816 H805 0.933 1_554 S
C816 C814 1.391 . S
C816 C817 1.417 . S
C817 C811 1.491 . S
C817 C816 1.417 . S
C817 C818 1.398 . S
C818 H806 0.950 . S
C818 C817 1.398 . S
C818 C819 1.391 . S
C819 H807 0.950 . S
C819 C815 1.393 . S
C819 C818 1.391 . S
H820 C828 0.950 . S
H821 C833 0.950 . S
H822 C830 0.950 . S
H823 C832 0.950 . S
H824 C834 0.950 . S
H825 C836 0.950 . S
H826 C838 0.950 . S
H827 C839 0.950 . S
C828 H820 0.950 . S
C828 C829 1.386 . S
C828 C830 1.391 . S
C829 C828 1.386 . S
C829 C833 1.393 . S
C830 H822 0.950 . S
C830 C828 1.391 . S
C830 C831 1.400 . S
C831 C830 1.400 . S
C831 C832 1.398 . S
C831 C837 1.491 . S
C832 H823 0.950 . S
C832 C831 1.398 . S
C832 C833 1.391 . S
C833 H821 0.950 . S
C833 C829 1.393 . S
C833 C832 1.391 . S
C834 H824 0.950 . S
C834 C835 1.386 . S
C834 C836 1.391 . S
C835 C834 1.386 . S
C835 C839 1.393 . S
C836 H825 0.950 . S
C836 C834 1.391 . S
C836 C837 1.400 . S
C837 C831 1.491 . S
C837 C836 1.400 . S
C837 C838 1.398 . S
C838 H826 0.950 . S
C838 C837 1.398 . S
C838 C839 1.391 . S
C839 H827 0.950 . S
C839 C835 1.393 . S
C839 C838 1.391 . S
H840 C848 0.950 . S
H841 C853 0.950 . S
H842 C850 0.950 . S
H843 C852 0.950 . S
H844 C854 0.950 . S
H845 C856 0.950 . S
H846 C858 0.950 . S
H847 C859 0.950 . S
C848 H840 0.950 . S
C848 C849 1.386 . S
C848 C850 1.391 . S
C849 C848 1.386 . S
C849 C853 1.393 . S
C850 H842 0.950 . S
C850 C848 1.391 . S
C850 C851 1.400 . S
C851 C850 1.400 . S
C851 C852 1.398 . S
C851 C857 1.491 . S
C852 H843 0.950 . S
C852 C851 1.398 . S
C852 C853 1.391 . S
C853 H841 0.950 . S
C853 C849 1.393 . S
C853 C852 1.391 . S
C854 H844 0.950 . S
C854 C855 1.386 . S
C854 C856 1.391 . S
C855 C854 1.386 . S
C855 C859 1.393 . S
C856 H845 0.950 . S
C856 C854 1.391 . S
C856 C857 1.400 . S
C857 C851 1.491 . S
C857 C856 1.400 . S
C857 C858 1.398 . S
C858 H846 0.950 . S
C858 C857 1.398 . S
C858 C859 1.391 . S
C859 H847 0.950 . S
C859 C855 1.393 . S
C859 C858 1.391 . S
H860 C868 0.950 . S
H861 C873 0.950 . S
H862 C870 0.950 . S
H863 C872 0.950 . S
H864 C874 0.950 . S
H865 C876 0.950 . S
H866 C878 0.950 . S
H867 C879 0.950 . S
C868 H860 0.950 . S
C868 C869 1.386 . S
C868 C870 1.391 . S
C869 C868 1.386 . S
C869 C873 1.393 . S
C870 H862 0.950 . S
C870 C868 1.391 . S
C870 C871 1.400 . S
C871 C870 1.400 . S
C871 C872 1.398 . S
C871 C877 1.491 . S
C872 H863 0.950 . S
C872 C871 1.398 . S
C872 C873 1.391 . S
C873 H861 0.950 . S
C873 C869 1.393 . S
C873 C872 1.391 . S
C874 H864 0.950 . S
C874 C875 1.386 . S
C874 C876 1.391 . S
C875 C874 1.386 . S
C875 C879 1.393 . S
C876 H865 0.950 . S
C876 C874 1.391 . S
C876 C877 1.400 . S
C877 C871 1.491 . S
C877 C876 1.400 . S
C877 C878 1.398 . S
C878 H866 0.950 . S
C878 C877 1.398 . S
C878 C879 1.391 . S
C879 H867 0.950 . S
C879 C875 1.393 . S
C879 C878 1.391 . S
H880 C888 0.950 . S
H881 C893 0.950 1_554 S
H882 C890 0.950 . S
H883 C892 0.950 1_554 S
H884 C894 0.950 1_554 S
H885 C896 0.950 1_554 S
H886 C898 0.950 . S
H887 C899 0.950 . S
C888 H880 0.950 . S
C888 C889 1.386 . S
C888 C890 1.391 . S
C889 C888 1.386 . S
C889 C893 1.393 . S
C890 H882 0.950 . S
C890 C888 1.391 . S
C890 C891 1.400 . S
C891 C890 1.400 . S
C891 C892 1.398 . S
C891 C897 1.491 . S
C892 H883 0.950 1_556 S
C892 C891 1.398 . S
C892 C893 1.391 . S
C893 H881 0.950 1_556 S
C893 C889 1.393 . S
C893 C892 1.391 . S
C894 H884 0.950 1_556 S
C894 C895 1.386 . S
C894 C896 1.391 . S
C895 C894 1.386 . S
C895 C899 1.393 . S
C896 H885 0.950 1_556 S
C896 C894 1.391 . S
C896 C897 1.400 . S
C897 C891 1.491 . S
C897 C896 1.400 . S
C897 C898 1.398 . S
C898 H886 0.950 . S
C898 C897 1.398 . S
C898 C899 1.391 . S
C899 H887 0.950 . S
C899 C895 1.393 . S
C899 C898 1.391 . S
H900 C908 0.950 . S
H901 C913 0.950 . S
H902 C910 0.950 . S
H903 C912 0.950 . S
H904 C914 0.950 . S
H905 C916 0.950 . S
H906 C918 0.950 . S
H907 C919 0.950 . S
C908 H900 0.950 . S
C908 C909 1.386 . S
C908 C910 1.391 . S
C909 C908 1.386 . S
C909 C913 1.393 . S
C910 H902 0.950 . S
C910 C908 1.391 . S
C910 C911 1.400 . S
C911 C910 1.400 . S
C911 C912 1.398 . S
C911 C917 1.491 . S
C912 H903 0.950 . S
C912 C911 1.398 . S
C912 C913 1.391 . S
C913 H901 0.950 . S
C913 C909 1.393 . S
C913 C912 1.391 . S
C914 H904 0.950 . S
C914 C915 1.386 . S
C914 C916 1.391 . S
C915 C914 1.386 . S
C915 C919 1.393 . S
C916 H905 0.950 . S
C916 C914 1.391 . S
C916 C917 1.400 . S
C917 C911 1.491 . S
C917 C916 1.400 . S
C917 C918 1.398 . S
C918 H906 0.950 . S
C918 C917 1.398 . S
C918 C919 1.391 . S
C919 H907 0.950 . S
C919 C915 1.393 . S
C919 C918 1.391 . S
H920 C928 0.950 . S
H921 C933 0.950 . S
H922 C930 0.950 . S
H923 C932 0.950 . S
H924 C934 0.950 . S
H925 C936 0.950 . S
H926 C938 0.950 . S
H927 C939 0.950 . S
C928 H920 0.950 . S
C928 C929 1.386 . S
C928 C930 1.391 . S
C929 C928 1.386 . S
C929 C933 1.393 . S
C930 H922 0.950 . S
C930 C928 1.391 . S
C930 C931 1.400 . S
C931 C930 1.400 . S
C931 C932 1.398 . S
C931 C937 1.491 . S
C932 H923 0.950 . S
C932 C931 1.398 . S
C932 C933 1.391 . S
C933 H921 0.950 . S
C933 C929 1.393 . S
C933 C932 1.391 . S
C934 H924 0.950 . S
C934 C935 1.386 . S
C934 C936 1.391 . S
C935 C934 1.386 . S
C935 C939 1.393 . S
C936 H925 0.950 . S
C936 C934 1.391 . S
C936 C937 1.400 . S
C937 C931 1.491 . S
C937 C936 1.400 . S
C937 C938 1.398 . S
C938 H926 0.950 . S
C938 C937 1.398 . S
C938 C939 1.391 . S
C939 H927 0.950 . S
C939 C935 1.393 . S
C939 C938 1.391 . S
H940 C948 0.950 . S
H941 C953 0.950 . S
H942 C950 0.950 . S
H943 C952 0.950 . S
H944 C954 0.950 . S
H945 C956 0.950 . S
H946 C958 0.950 . S
H947 C959 0.950 . S
C948 H940 0.950 . S
C948 C949 1.386 . S
C948 C950 1.391 . S
C949 C948 1.386 . S
C949 C953 1.393 . S
C950 H942 0.950 . S
C950 C948 1.391 . S
C950 C951 1.400 . S
C951 C950 1.400 . S
C951 C952 1.398 . S
C951 C957 1.491 . S
C952 H943 0.950 . S
C952 C951 1.398 . S
C952 C953 1.391 . S
C953 H941 0.950 . S
C953 C949 1.393 . S
C953 C952 1.391 . S
C954 H944 0.950 . S
C954 C955 1.386 . S
C954 C956 1.391 . S
C955 C954 1.386 . S
C955 C959 1.393 . S
C956 H945 0.950 . S
C956 C954 1.391 . S
C956 C957 1.400 . S
C957 C951 1.491 . S
C957 C956 1.400 . S
C957 C958 1.398 . S
C958 H946 0.950 . S
C958 C957 1.398 . S
C958 C959 1.391 . S
C959 H947 0.950 . S
C959 C955 1.393 . S
C959 C958 1.391 . S
H960 C968 0.950 1_554 S
H961 C973 0.950 . S
H962 C970 0.950 . S
H963 C972 0.955 . S
H964 C974 0.950 1_556 S
H965 C976 0.950 . S
H966 C978 0.955 . S
H967 C979 0.950 . S
C968 H960 0.950 1_556 S
C968 C969 1.386 . S
C968 C970 1.391 1_556 S
C969 C968 1.386 . S
C969 C973 1.393 . S
C970 H962 0.950 . S
C970 C968 1.391 1_554 S
C970 C971 1.400 1_554 S
C971 C970 1.400 1_556 S
C971 C972 1.397 1_655 S
C971 C977 1.491 1_656 S
C972 H963 0.955 . S
C972 C971 1.397 1_455 S
C972 C973 1.388 1_455 S
C973 H961 0.950 . S
C973 C969 1.393 . S
C973 C972 1.388 1_655 S
C974 H964 0.950 1_554 S
C974 C975 1.386 . S
C974 C976 1.391 1_554 S
C975 C974 1.386 . S
C975 C979 1.393 . S
C976 H965 0.950 . S
C976 C974 1.391 1_556 S
C976 C977 1.400 1_556 S
C977 C971 1.491 1_454 S
C977 C976 1.400 1_554 S
C977 C978 1.397 1_455 S
C978 H966 0.955 . S
C978 C977 1.397 1_655 S
C978 C979 1.388 1_655 S
C979 H967 0.950 . S
C979 C975 1.393 . S
C979 C978 1.388 1_455 S
H980 C988 0.948 . S
H981 C993 0.950 . S
H982 C990 0.950 . S
H983 C992 0.923 1_545 S
H984 C994 0.948 . S
H985 C996 0.950 . S
H986 C998 0.923 1_565 S
H987 C999 0.950 . S
C988 H980 0.948 . S
C988 C989 1.388 1_554 S
C988 C990 1.390 . S
C989 C988 1.388 1_556 S
C989 C993 1.393 . S
C990 H982 0.950 . S
C990 C988 1.390 . S
C990 C991 1.400 1_554 S
C991 C990 1.400 1_556 S
C991 C992 1.407 . S
C991 C997 1.491 1_466 S
C992 H983 0.923 1_565 S
C992 C991 1.407 . S
C992 C993 1.408 . S
C993 H981 0.950 . S
C993 C989 1.393 . S
C993 C992 1.408 . S
C994 H984 0.948 . S
C994 C995 1.388 1_556 S
C994 C996 1.390 . S
C995 C994 1.388 1_554 S
C995 C999 1.393 . S
C996 H985 0.950 . S
C996 C994 1.390 . S
C996 C997 1.400 1_556 S
C997 C991 1.491 1_644 S
C997 C996 1.400 1_554 S
C997 C998 1.407 . S
C998 H986 0.923 1_545 S
C998 C997 1.407 . S
C998 C999 1.408 . S
C999 H987 0.950 . S
C999 C995 1.393 . S
C999 C998 1.408 . S
H1000 C1008 0.950 . S
H1001 C1013 0.950 . S
H1002 C1010 0.950 . S
H1003 C1012 0.950 . S
H1004 C1014 0.950 . S
H1005 C1016 0.950 . S
H1006 C1018 0.950 . S
H1007 C1019 0.950 . S
C1008 H1000 0.950 . S
C1008 C1009 1.386 . S
C1008 C1010 1.391 . S
C1009 C1008 1.386 . S
C1009 C1013 1.393 1_556 S
C1010 H1002 0.950 . S
C1010 C1008 1.391 . S
C1010 C1011 1.400 . S
C1011 C1010 1.400 . S
C1011 C1012 1.398 1_556 S
C1011 C1017 1.491 1_546 S
C1012 H1003 0.950 . S
C1012 C1011 1.398 1_554 S
C1012 C1013 1.391 . S
C1013 H1001 0.950 . S
C1013 C1009 1.393 1_554 S
C1013 C1012 1.391 . S
C1014 H1004 0.950 . S
C1014 C1015 1.386 . S
C1014 C1016 1.391 . S
C1015 C1014 1.386 . S
C1015 C1019 1.393 1_554 S
C1016 H1005 0.950 . S
C1016 C1014 1.391 . S
C1016 C1017 1.400 . S
C1017 C1011 1.491 1_564 S
C1017 C1016 1.400 . S
C1017 C1018 1.398 1_554 S
C1018 H1006 0.950 . S
C1018 C1017 1.398 1_556 S
C1018 C1019 1.391 . S
C1019 H1007 0.950 . S
C1019 C1015 1.393 1_556 S
C1019 C1018 1.391 . S
H1020 C1028 0.950 . S
H1021 C1033 0.950 . S
H1022 C1030 0.950 . S
H1023 C1032 0.945 1_556 S
H1024 C1034 0.950 . S
H1025 C1036 0.950 . S
H1026 C1038 0.945 1_554 S
H1027 C1039 0.950 . S
C1028 H1020 0.950 . S
C1028 C1029 1.386 . S
C1028 C1030 1.391 . S
C1029 C1028 1.386 . S
C1029 C1033 1.393 . S
C1030 H1022 0.950 . S
C1030 C1028 1.391 . S
C1030 C1031 1.400 . S
C1031 C1030 1.400 . S
C1031 C1032 1.400 . S
C1031 C1037 1.491 1_554 S
C1032 H1023 0.945 1_554 S
C1032 C1031 1.400 . S
C1032 C1033 1.394 . S
C1033 H1021 0.950 . S
C1033 C1029 1.393 . S
C1033 C1032 1.394 . S
C1034 H1024 0.950 . S
C1034 C1035 1.386 . S
C1034 C1036 1.391 . S
C1035 C1034 1.386 . S
C1035 C1039 1.393 . S
C1036 H1025 0.950 . S
C1036 C1034 1.391 . S
C1036 C1037 1.400 . S
C1037 C1031 1.491 1_556 S
C1037 C1036 1.400 . S
C1037 C1038 1.400 . S
C1038 H1026 0.945 1_556 S
C1038 C1037 1.400 . S
C1038 C1039 1.394 . S
C1039 H1027 0.950 . S
C1039 C1035 1.393 . S
C1039 C1038 1.394 . S
H1040 C1048 0.950 . S
H1041 C1053 0.950 . S
H1042 C1050 0.950 . S
H1043 C1052 0.950 1_565 S
H1044 C1054 0.950 . S
H1045 C1056 0.950 . S
H1046 C1058 0.950 1_545 S
H1047 C1059 0.950 . S
C1048 H1040 0.950 . S
C1048 C1049 1.386 . S
C1048 C1050 1.391 1_655 S
C1049 C1048 1.386 . S
C1049 C1053 1.393 . S
C1050 H1042 0.950 . S
C1050 C1048 1.391 1_455 S
C1050 C1051 1.400 1_455 S
C1051 C1050 1.400 1_655 S
C1051 C1052 1.398 . S
C1051 C1057 1.491 1_645 S
C1052 H1043 0.950 1_545 S
C1052 C1051 1.398 . S
C1052 C1053 1.391 . S
C1053 H1041 0.950 . S
C1053 C1049 1.393 . S
C1053 C1052 1.391 . S
C1054 H1044 0.950 . S
C1054 C1055 1.386 . S
C1054 C1056 1.391 1_455 S
C1055 C1054 1.386 . S
C1055 C1059 1.393 . S
C1056 H1045 0.950 . S
C1056 C1054 1.391 1_655 S
C1056 C1057 1.400 1_655 S
C1057 C1051 1.491 1_465 S
C1057 C1056 1.400 1_455 S
C1057 C1058 1.398 . S
C1058 H1046 0.950 1_565 S
C1058 C1057 1.398 . S
C1058 C1059 1.391 . S
C1059 H1047 0.950 . S
C1059 C1055 1.393 . S
C1059 C1058 1.391 . S
H1060 C1068 0.950 . S
H1061 C1073 0.950 . S
H1062 C1070 0.950 . S
H1063 C1072 0.973 . S
H1064 C1074 0.950 . S
H1065 C1076 0.950 . S
H1066 C1078 0.973 . S
H1067 C1079 0.950 . S
C1068 H1060 0.950 . S
C1068 C1069 1.386 . S
C1068 C1070 1.391 . S
C1069 C1068 1.386 . S
C1069 C1073 1.393 . S
C1070 H1062 0.950 . S
C1070 C1068 1.391 . S
C1070 C1071 1.400 . S
C1071 C1070 1.400 . S
C1071 C1072 1.391 1_565 S
C1071 C1077 1.491 1_565 S
C1072 H1063 0.973 . S
C1072 C1071 1.391 1_545 S
C1072 C1073 1.377 1_545 S
C1073 H1061 0.950 . S
C1073 C1069 1.393 . S
C1073 C1072 1.377 1_565 S
C1074 H1064 0.950 . S
C1074 C1075 1.386 . S
C1074 C1076 1.391 . S
C1075 C1074 1.386 . S
C1075 C1079 1.393 . S
C1076 H1065 0.950 . S
C1076 C1074 1.391 . S
C1076 C1077 1.400 . S
C1077 C1071 1.491 1_545 S
C1077 C1076 1.400 . S
C1077 C1078 1.391 1_545 S
C1078 H1066 0.973 . S
C1078 C1077 1.391 1_565 S
C1078 C1079 1.377 1_565 S
C1079 H1067 0.950 . S
C1079 C1075 1.393 . S
C1079 C1078 1.377 1_545 S
H1080 C1088 0.950 . S
H1081 C1093 0.950 . S
H1082 C1090 0.950 . S
H1083 C1092 0.950 . S
H1084 C1094 0.950 . S
H1085 C1096 0.950 . S
H1086 C1098 0.950 . S
H1087 C1099 0.950 . S
C1088 H1080 0.950 . S
C1088 C1089 1.386 . S
C1088 C1090 1.391 . S
C1089 C1088 1.386 . S
C1089 C1093 1.393 . S
C1090 H1082 0.950 . S
C1090 C1088 1.391 . S
C1090 C1091 1.400 . S
C1091 C1090 1.400 . S
C1091 C1092 1.398 . S
C1091 C1097 1.491 . S
C1092 H1083 0.950 . S
C1092 C1091 1.398 . S
C1092 C1093 1.391 . S
C1093 H1081 0.950 . S
C1093 C1089 1.393 . S
C1093 C1092 1.391 . S
C1094 H1084 0.950 . S
C1094 C1095 1.386 . S
C1094 C1096 1.391 . S
C1095 C1094 1.386 . S
C1095 C1099 1.393 . S
C1096 H1085 0.950 . S
C1096 C1094 1.391 . S
C1096 C1097 1.400 . S
C1097 C1091 1.491 . S
C1097 C1096 1.400 . S
C1097 C1098 1.398 . S
C1098 H1086 0.950 . S
C1098 C1097 1.398 . S
C1098 C1099 1.391 . S
C1099 H1087 0.950 . S
C1099 C1095 1.393 . S
C1099 C1098 1.391 . S
H1100 C1108 0.950 . S
H1101 C1113 0.950 . S
H1102 C1110 0.950 1_655 S
H1103 C1112 0.950 . S
H1104 C1114 0.950 . S
H1105 C1116 0.950 1_455 S
H1106 C1118 0.950 . S
H1107 C1119 0.950 . S
C1108 H1100 0.950 . S
C1108 C1109 1.386 . S
C1108 C1110 1.391 . S
C1109 C1108 1.386 . S
C1109 C1113 1.393 . S
C1110 H1102 0.950 1_455 S
C1110 C1108 1.391 . S
C1110 C1111 1.400 . S
C1111 C1110 1.400 . S
C1111 C1112 1.398 . S
C1111 C1117 1.491 1_455 S
C1112 H1103 0.950 . S
C1112 C1111 1.398 . S
C1112 C1113 1.391 . S
C1113 H1101 0.950 . S
C1113 C1109 1.393 . S
C1113 C1112 1.391 . S
C1114 H1104 0.950 . S
C1114 C1115 1.386 . S
C1114 C1116 1.391 . S
C1115 C1114 1.386 . S
C1115 C1119 1.393 . S
C1116 H1105 0.950 1_655 S
C1116 C1114 1.391 . S
C1116 C1117 1.400 . S
C1117 C1111 1.491 1_655 S
C1117 C1116 1.400 . S
C1117 C1118 1.398 . S
C1118 H1106 0.950 . S
C1118 C1117 1.398 . S
C1118 C1119 1.391 . S
C1119 H1107 0.950 . S
C1119 C1115 1.393 . S
C1119 C1118 1.391 . S
H1120 C1128 0.950 . S
H1121 C1133 0.957 . S
H1122 C1130 0.950 . S
H1123 C1132 0.950 . S
H1124 C1134 0.950 . S
H1125 C1136 0.950 . S
H1126 C1138 0.950 . S
H1127 C1139 0.950 . S
C1128 H1120 0.950 . S
C1128 C1129 1.386 . S
C1128 C1130 1.391 . S
C1129 C1128 1.386 . S
C1129 C1133 1.382 1_655 S
C1130 H1122 0.950 . S
C1130 C1128 1.391 . S
C1130 C1131 1.400 . S
C1131 C1130 1.400 . S
C1131 C1132 1.398 1_655 S
C1131 C1137 1.491 1_655 S
C1132 H1123 0.950 . S
C1132 C1131 1.398 1_455 S
C1132 C1133 1.395 . S
C1133 H1121 0.957 . S
C1133 C1129 1.382 1_455 S
C1133 C1132 1.395 . S
C1134 H1124 0.950 . S
C1134 C1135 1.386 . S
C1134 C1136 1.391 . S
C1135 C1134 1.386 . S
C1135 C1139 1.393 1_455 S
C1136 H1125 0.950 . S
C1136 C1134 1.391 . S
C1136 C1137 1.400 . S
C1137 C1131 1.491 1_455 S
C1137 C1136 1.400 . S
C1137 C1138 1.398 1_455 S
C1138 H1126 0.950 . S
C1138 C1137 1.398 1_655 S
C1138 C1139 1.391 . S
C1139 H1127 0.950 . S
C1139 C1135 1.393 1_655 S
C1139 C1138 1.391 . S
H1140 C1148 0.950 . S
H1141 C1153 0.950 . S
H1142 C1150 0.950 1_545 S
H1143 C1152 0.950 . S
H1144 C1154 0.950 . S
H1145 C1156 0.957 . S
H1146 C1158 0.950 . S
H1147 C1159 0.950 . S
C1148 H1140 0.950 . S
C1148 C1149 1.386 1_655 S
C1148 C1150 1.391 . S
C1149 C1148 1.386 1_455 S
C1149 C1153 1.393 . S
C1150 H1142 0.950 1_565 S
C1150 C1148 1.391 . S
C1150 C1151 1.400 1_655 S
C1151 C1150 1.400 1_455 S
C1151 C1152 1.398 . S
C1151 C1157 1.491 1_465 S
C1152 H1143 0.950 . S
C1152 C1151 1.398 . S
C1152 C1153 1.391 . S
C1153 H1141 0.950 . S
C1153 C1149 1.393 . S
C1153 C1152 1.391 . S
C1154 H1144 0.950 . S
C1154 C1155 1.386 1_455 S
C1154 C1156 1.386 1_545 S
C1155 C1154 1.386 1_655 S
C1155 C1159 1.393 . S
C1156 H1145 0.957 . S
C1156 C1154 1.386 1_565 S
C1156 C1157 1.399 1_465 S
C1157 C1151 1.491 1_645 S
C1157 C1156 1.399 1_645 S
C1157 C1158 1.398 . S
C1158 H1146 0.950 . S
C1158 C1157 1.398 . S
C1158 C1159 1.391 . S
C1159 H1147 0.950 . S
C1159 C1155 1.393 . S
C1159 C1158 1.391 . S
H1160 C1168 0.950 . S
H1161 C1173 0.950 . S
H1162 C1170 0.950 . S
H1163 C1172 0.950 . S
H1164 C1174 0.950 . S
H1165 C1176 0.950 . S
H1166 C1178 0.950 . S
H1167 C1179 0.950 . S
C1168 H1160 0.950 . S
C1168 C1169 1.386 1_565 S
C1168 C1170 1.391 . S
C1169 C1168 1.386 1_545 S
C1169 C1173 1.393 . S
C1170 H1162 0.950 . S
C1170 C1168 1.391 . S
C1170 C1171 1.400 1_565 S
C1171 C1170 1.400 1_545 S
C1171 C1172 1.398 . S
C1171 C1177 1.491 1_545 S
C1172 H1163 0.950 . S
C1172 C1171 1.398 . S
C1172 C1173 1.391 . S
C1173 H1161 0.950 . S
C1173 C1169 1.393 . S
C1173 C1172 1.391 . S
C1174 H1164 0.950 . S
C1174 C1175 1.386 1_545 S
C1174 C1176 1.391 . S
C1175 C1174 1.386 1_565 S
C1175 C1179 1.393 . S
C1176 H1165 0.950 . S
C1176 C1174 1.391 . S
C1176 C1177 1.400 1_545 S
C1177 C1171 1.491 1_565 S
C1177 C1176 1.400 1_565 S
C1177 C1178 1.398 . S
C1178 H1166 0.950 . S
C1178 C1177 1.398 . S
C1178 C1179 1.391 . S
C1179 H1167 0.950 . S
C1179 C1175 1.393 . S
C1179 C1178 1.391 . S
H1180 C1188 0.950 . S
H1181 C1193 0.950 . S
H1182 C1190 0.950 . S
H1183 C1192 0.950 . S
H1184 C1194 0.950 . S
H1185 C1196 0.950 . S
H1186 C1198 0.950 . S
H1187 C1199 0.950 . S
C1188 H1180 0.950 . S
C1188 C1189 1.386 . S
C1188 C1190 1.391 . S
C1189 C1188 1.386 . S
C1189 C1193 1.393 . S
C1190 H1182 0.950 . S
C1190 C1188 1.391 . S
C1190 C1191 1.400 . S
C1191 C1190 1.400 . S
C1191 C1192 1.398 . S
C1191 C1197 1.491 . S
C1192 H1183 0.950 . S
C1192 C1191 1.398 . S
C1192 C1193 1.391 . S
C1193 H1181 0.950 . S
C1193 C1189 1.393 . S
C1193 C1192 1.391 . S
C1194 H1184 0.950 . S
C1194 C1195 1.386 . S
C1194 C1196 1.391 . S
C1195 C1194 1.386 . S
C1195 C1199 1.393 . S
C1196 H1185 0.950 . S
C1196 C1194 1.391 . S
C1196 C1197 1.400 . S
C1197 C1191 1.491 . S
C1197 C1196 1.400 . S
C1197 C1198 1.398 . S
C1198 H1186 0.950 . S
C1198 C1197 1.398 . S
C1198 C1199 1.391 . S
C1199 H1187 0.950 . S
C1199 C1195 1.393 . S
C1199 C1198 1.391 . S
H1200 C1208 0.950 . S
H1201 C1213 0.950 . S
H1202 C1210 0.950 . S
H1203 C1212 0.950 1_655 S
H1204 C1214 0.950 . S
H1205 C1216 0.950 . S
H1206 C1218 0.947 1_455 S
H1207 C1219 0.950 . S
C1208 H1200 0.950 . S
C1208 C1209 1.386 . S
C1208 C1210 1.391 . S
C1209 C1208 1.386 . S
C1209 C1213 1.393 . S
C1210 H1202 0.950 . S
C1210 C1208 1.391 . S
C1210 C1211 1.400 . S
C1211 C1210 1.400 . S
C1211 C1212 1.398 . S
C1211 C1217 1.491 1_455 S
C1212 H1203 0.950 1_455 S
C1212 C1211 1.398 . S
C1212 C1213 1.391 . S
C1213 H1201 0.950 . S
C1213 C1209 1.393 . S
C1213 C1212 1.391 . S
C1214 H1204 0.950 . S
C1214 C1215 1.386 . S
C1214 C1216 1.391 . S
C1215 C1214 1.386 . S
C1215 C1219 1.393 . S
C1216 H1205 0.950 . S
C1216 C1214 1.391 . S
C1216 C1217 1.400 . S
C1217 C1211 1.491 1_655 S
C1217 C1216 1.400 . S
C1217 C1218 1.399 . S
C1218 H1206 0.947 1_655 S
C1218 C1217 1.399 . S
C1218 C1219 1.393 . S
C1219 H1207 0.950 . S
C1219 C1215 1.393 . S
C1219 C1218 1.393 . S
H1220 C1228 0.950 . S
H1221 C1233 0.950 . S
H1222 C1230 0.950 . S
H1223 C1232 0.948 1_565 S
H1224 C1234 0.950 . S
H1225 C1236 0.950 . S
H1226 C1238 0.950 . S
H1227 C1239 0.950 1_545 S
C1228 H1220 0.950 . S
C1228 C1229 1.386 1_455 S
C1228 C1230 1.391 . S
C1229 C1228 1.386 1_655 S
C1229 C1233 1.393 . S
C1230 H1222 0.950 . S
C1230 C1228 1.391 . S
C1230 C1231 1.400 1_455 S
C1231 C1230 1.400 1_655 S
C1231 C1232 1.399 . S
C1231 C1237 1.491 1_645 S
C1232 H1223 0.948 1_545 S
C1232 C1231 1.399 . S
C1232 C1233 1.392 . S
C1233 H1221 0.950 . S
C1233 C1229 1.393 . S
C1233 C1232 1.392 . S
C1234 H1224 0.950 . S
C1234 C1235 1.386 1_655 S
C1234 C1236 1.391 . S
C1235 C1234 1.386 1_455 S
C1235 C1239 1.393 . S
C1236 H1225 0.950 . S
C1236 C1234 1.391 . S
C1236 C1237 1.400 1_655 S
C1237 C1231 1.491 1_465 S
C1237 C1236 1.400 1_455 S
C1237 C1238 1.398 1_565 S
C1238 H1226 0.950 . S
C1238 C1237 1.398 1_545 S
C1238 C1239 1.391 1_545 S
C1239 H1227 0.950 1_565 S
C1239 C1235 1.393 . S
C1239 C1238 1.391 1_565 S
H1240 C1248 0.950 1_545 S
H1241 C1253 0.950 . S
H1242 C1250 0.950 . S
H1243 C1252 0.950 . S
H1244 C1254 0.950 1_565 S
H1245 C1256 0.950 . S
H1246 C1258 0.950 . S
H1247 C1259 0.950 . S
C1248 H1240 0.950 1_565 S
C1248 C1249 1.386 . S
C1248 C1250 1.391 1_565 S
C1249 C1248 1.386 . S
C1249 C1253 1.393 . S
C1250 H1242 0.950 . S
C1250 C1248 1.391 1_545 S
C1250 C1251 1.400 1_545 S
C1251 C1250 1.400 1_565 S
C1251 C1252 1.398 . S
C1251 C1257 1.491 1_565 S
C1252 H1243 0.950 . S
C1252 C1251 1.398 . S
C1252 C1253 1.391 . S
C1253 H1241 0.950 . S
C1253 C1249 1.393 . S
C1253 C1252 1.391 . S
C1254 H1244 0.950 1_545 S
C1254 C1255 1.386 . S
C1254 C1256 1.391 1_545 S
C1255 C1254 1.386 . S
C1255 C1259 1.393 . S
C1256 H1245 0.950 . S
C1256 C1254 1.391 1_565 S
C1256 C1257 1.400 1_565 S
C1257 C1251 1.491 1_545 S
C1257 C1256 1.400 1_545 S
C1257 C1258 1.398 . S
C1258 H1246 0.950 . S
C1258 C1257 1.398 . S
C1258 C1259 1.391 . S
C1259 H1247 0.950 . S
C1259 C1255 1.393 . S
C1259 C1258 1.391 . S
H1260 C1268 0.950 . S
H1261 C1273 0.950 . S
H1262 C1270 0.950 . S
H1263 C1272 0.950 . S
H1264 C1274 0.950 . S
H1265 C1276 0.950 . S
H1266 C1278 0.950 . S
H1267 C1279 0.950 . S
C1268 H1260 0.950 . S
C1268 C1269 1.386 . S
C1268 C1270 1.391 . S
C1269 C1268 1.386 . S
C1269 C1273 1.393 . S
C1270 H1262 0.950 . S
C1270 C1268 1.391 . S
C1270 C1271 1.400 . S
C1271 C1270 1.400 . S
C1271 C1272 1.398 . S
C1271 C1277 1.491 . S
C1272 H1263 0.950 . S
C1272 C1271 1.398 . S
C1272 C1273 1.391 . S
C1273 H1261 0.950 . S
C1273 C1269 1.393 . S
C1273 C1272 1.391 . S
C1274 H1264 0.950 . S
C1274 C1275 1.386 . S
C1274 C1276 1.391 . S
C1275 C1274 1.386 . S
C1275 C1279 1.393 . S
C1276 H1265 0.950 . S
C1276 C1274 1.391 . S
C1276 C1277 1.400 . S
C1277 C1271 1.491 . S
C1277 C1276 1.400 . S
C1277 C1278 1.398 . S
C1278 H1266 0.950 . S
C1278 C1277 1.398 . S
C1278 C1279 1.391 . S
C1279 H1267 0.950 . S
C1279 C1275 1.393 . S
C1279 C1278 1.391 . S
C329 C77 2.903 . S
C335 C8 3.007 . S
C349 C17 2.883 . S
C355 C28 3.017 . S
C369 C57 3.015 . S
C375 C37 2.894 . S
C389 C48 2.883 . S
C395 C68 3.017 . S
C409 C88 3.010 . S
C415 C117 2.889 . S
C429 C108 3.019 . S
C435 C137 2.884 . S
C449 C128 3.019 . S
C455 C157 2.886 . S
C469 C97 2.884 . S
C475 C148 3.015 . S
C489 C168 3.004 . S
C495 C237 2.902 . S
C509 C177 2.884 . S
C515 C188 3.019 . S
C529 C197 2.901 . S
C535 C208 3.009 . S
C549 C217 2.895 . S
C555 C228 3.015 . S
C569 C248 3.018 . S
C575 C277 2.883 . S
C589 C297 2.902 . S
C595 C268 3.004 . S
C609 C317 2.890 . S
C615 C288 3.017 . S
C629 C308 3.014 . S
C635 C257 2.885 . S
C649 C2 2.111 . S
C655 C82 2.111 . S
C669 C102 2.110 . S
C675 C22 2.109 . S
C689 C53 2.111 . S
C695 C122 2.111 . S
C709 C62 2.103 . S
C715 C142 2.102 . S
C729 C242 2.104 . S
C735 C162 2.103 . S
C749 C262 2.108 . S
C755 C182 2.110 . S
C769 C202 2.103 . S
C775 C282 2.102 . S
C789 C302 2.105 . S
C795 C222 2.103 . S
C809 C14 1.298 . S
C815 C45 1.298 . S
C829 C34 1.299 . S
C835 C74 1.301 . S
C849 C134 1.298 . S
C855 C94 1.299 . S
C869 C154 1.307 . S
C875 C114 1.304 . S
C889 C214 1.310 . S
C895 C174 1.307 . S
C909 C234 1.306 . S
C915 C194 1.309 . S
C929 C254 1.308 . S
C935 C294 1.310 . S
C949 C274 1.302 . S
C955 C314 1.299 . S
C969 C173 1.563 . S
C975 C13 1.563 . S
C989 C193 1.562 . S
C995 C33 1.562 . S
C1009 C213 1.565 . S
C1015 C42 1.565 . S
C1029 C73 1.550 . S
C1035 C233 1.550 . S
C1049 C253 1.555 . S
C1055 C93 1.555 . S
C1069 C273 1.564 . S
C1075 C113 1.564 . S
C1089 C293 1.565 . S
C1095 C133 1.565 . S
C1109 C313 1.566 . S
C1115 C153 1.566 . S
C1129 C145 0.730 . S
C1135 C5 0.723 . S
C1149 C85 0.726 . S
C1155 C25 0.682 . S
C1169 C105 0.733 . S
C1175 C54 0.716 . S
C1189 C125 0.675 . S
C1195 C65 0.645 . S
C1209 C305 0.646 . S
C1215 C165 0.665 . S
C1229 C245 0.648 . S
C1235 C185 0.659 . S
C1249 C265 0.663 . S
C1255 C205 0.646 . S
C1269 C225 0.734 . S
C1275 C285 0.713 . S
