# Generated by pormake.
# Topology lon, (4)-cn, num edge types: 1
# Building blocks:
#     Node 0, Type 0, BuildingBlock: ICAMEG_clean_sbu_1, # of connection points: 4
#     Node 1, Type 0, BuildingBlock: ICAMEG_clean_sbu_1, # of connection points: 4
#     Node 2, Type 0, BuildingBlock: ICAMEG_clean_sbu_1, # of connection points: 4
#     Node 3, Type 0, BuildingBlock: ICAMEG_clean_sbu_1, # of connection points: 4
#     Edge 4, Type (0, 0), BuildingBlock: TEMPAE_clean_linker_10, # of connection points: 2
#     Edge 5, Type (0, 0), BuildingBlock: TEMPAE_clean_linker_10, # of connection points: 2
#     Edge 6, Type (0, 0), BuildingBlock: TEMPAE_clean_linker_10, # of connection points: 2
#     Edge 7, Type (0, 0), BuildingBlock: TEMPAE_clean_linker_10, # of connection points: 2
#     Edge 8, Type (0, 0), BuildingBlock: TEMPAE_clean_linker_10, # of connection points: 2
#     Edge 9, Type (0, 0), BuildingBlock: TEMPAE_clean_linker_10, # of connection points: 2
#     Edge 10, Type (0, 0), BuildingBlock: TEMPAE_clean_linker_10, # of connection points: 2
#     Edge 11, Type (0, 0), BuildingBlock: TEMPAE_clean_linker_10, # of connection points: 2
# Relax obj value: 0.243
# Max RMSD: 0.269
# Mean RMSD: 0.258
data_MOF--net-lon--node1-ICAMEG_clean_sbu_1--edge1-TEMPAE_clean_linker_10
_symmetry_space_group_name_H-M    P1
_symmetry_Int_Tables_number       1
_symmetry_cell_setting            triclinic
loop_
_symmetry_equiv_pos_as_xyz
'x, y, z'
_cell_length_a     22.570057
_cell_length_b     26.457033
_cell_length_c     44.731408
_cell_angle_alpha  92.681146
_cell_angle_beta   89.936955
_cell_angle_gamma 115.44306
loop_
_atom_site_label
_atom_site_type_symbol
_atom_site_fract_x
_atom_site_fract_y
_atom_site_fract_z
_atom_type_partial_charge
Co0 Co 0.34392 0.70622 0.04217 0.0
Co1 Co 0.36331 0.64291 0.10346 0.0
O2 O 0.37047 0.71093 0.08453 0.0
C3 C 0.47102 0.80981 0.04485 0.0
O4 O 0.49801 0.7845 0.0608 0.0
C5 C 0.33188 0.71049 0.15294 0.0
O6 O 0.33164 0.7474 0.1344 0.0
O7 O 0.26775 0.60638 0.09332 0.0
O8 O 0.27494 0.62726 0.04521 0.0
H9 H 0.28827 0.43503 0.10772 0.0
H10 H 0.34822 0.80171 0.08081 0.0
O11 O 0.41071 0.78489 0.03699 0.0
H12 H 0.11913 0.70319 0.04365 0.0
H13 H 0.29208 0.77887 0.94834 0.0
H14 H 0.31298 0.61983 0.99252 0.0
H15 H 0.20145 0.66983 0.02801 0.0
H16 H 0.3224 0.78368 1.00168 0.0
O17 O 0.34296 0.66916 0.14357 0.0
H18 H 0.30065 0.52201 0.08493 0.0
H19 H 0.40669 0.61832 0.16195 0.0
H20 H 0.28185 0.61303 0.93915 0.0
H21 H 0.26759 0.83708 0.0967 0.0
H22 H 0.27126 0.69297 0.91672 0.0
H23 H 0.15204 0.78753 0.07819 0.0
O24 O 0.40975 0.67802 0.03083 0.0
H25 H 0.5733 0.80303 0.14098 0.0
H26 H 0.47331 0.60917 0.09756 0.0
H27 H 0.59223 0.65548 0.10855 0.0
H28 H 0.64301 0.75306 0.13057 0.0
H29 H 0.45482 0.75547 0.12922 0.0
H30 H 0.39474 0.53231 0.18571 0.0
H31 H 0.33547 0.43984 0.15849 0.0
O32 O 0.38399 0.61253 0.06464 0.0
C33 C 0.24317 0.5991 0.06698 0.0
C34 C 0.31435 0.47508 0.11978 0.0
C35 C 0.37404 0.52967 0.16356 0.0
N36 N 0.3547 0.57524 0.12198 0.0
C37 C 0.32166 0.5245 0.10695 0.0
C38 C 0.38046 0.57822 0.15002 0.0
C39 C 0.3408 0.47781 0.14827 0.0
C40 C 0.29811 0.78016 0.07254 0.0
N41 N 0.27957 0.73364 0.05366 0.0
C42 C 0.25265 0.80029 0.08166 0.0
C43 C 0.18781 0.77244 0.07128 0.0
C44 C 0.1693 0.72511 0.05193 0.0
C45 C 0.21612 0.70625 0.04326 0.0
C46 C 0.29647 0.74374 0.95786 0.0
C47 C 0.30818 0.6547 0.98297 0.0
C48 C 0.31382 0.74627 0.98804 0.0
N49 N 0.31921 0.70198 1.00026 0.0
C50 C 0.29066 0.65065 0.95272 0.0
C51 C 0.28477 0.69552 0.94014 0.0
C52 C 0.41189 0.63438 0.04058 0.0
C53 C 0.55168 0.76036 0.1316 0.0
C54 C 0.49491 0.65164 0.10713 0.0
C55 C 0.56234 0.67763 0.11333 0.0
C56 C 0.59079 0.73235 0.12569 0.0
N57 N 0.45672 0.67925 0.11316 0.0
C58 C 0.48441 0.73304 0.12508 0.0
Co59 Co 0.59883 0.31117 0.54561 0.0
Co60 Co 0.70063 0.29809 0.59761 0.0
O61 O 0.6311 0.32103 0.58724 0.0
C62 C 0.61164 0.42713 0.56269 0.0
O63 O 0.66636 0.43993 0.5779 0.0
C64 C 0.60746 0.26432 0.64929 0.0
O65 O 0.55798 0.25697 0.63149 0.0
O66 O 0.64429 0.2202 0.5819 0.0
O67 O 0.61386 0.24213 0.53868 0.0
H68 H 0.84666 0.20104 0.57823 0.0
H69 H 0.51549 0.32325 0.59383 0.0
O70 O 0.58045 0.37853 0.55021 0.0
H71 H 0.38094 0.1405 0.54207 0.0
H72 H 0.44832 0.30922 0.46194 0.0
H73 H 0.64617 0.28443 0.4879 0.0
H74 H 0.49202 0.19989 0.52493 0.0
H75 H 0.48629 0.31937 0.51448 0.0
O76 O 0.66475 0.27898 0.63889 0.0
H77 H 0.76142 0.23192 0.56574 0.0
H78 H 0.78471 0.31345 0.65195 0.0
H79 H 0.60942 0.27318 0.4351 0.0
H80 H 0.40397 0.26573 0.61142 0.0
H81 H 0.50986 0.28566 0.42183 0.0
H82 H 0.33603 0.17345 0.58558 0.0
O83 O 0.68967 0.35953 0.53308 0.0
H84 H 0.74584 0.47867 0.65563 0.0
H85 H 0.8404 0.37928 0.58944 0.0
H86 H 0.90907 0.47702 0.60694 0.0
H87 H 0.86193 0.52737 0.64034 0.0
H88 H 0.67852 0.38113 0.63723 0.0
H89 H 0.8698 0.28301 0.66543 0.0
H90 H 0.9015 0.22658 0.62839 0.0
O91 O 0.74128 0.31729 0.55721 0.0
C92 C 0.62081 0.20698 0.55524 0.0
C93 C 0.83338 0.22571 0.59454 0.0
C94 C 0.84631 0.27166 0.64349 0.0
N95 N 0.76825 0.27468 0.60802 0.0
C96 C 0.78521 0.24342 0.58757 0.0
C97 C 0.79793 0.28863 0.63575 0.0
C98 C 0.86409 0.24002 0.62269 0.0
C99 C 0.48602 0.28333 0.58234 0.0
N100 N 0.51059 0.26473 0.55856 0.0
C101 C 0.423 0.25086 0.59246 0.0
C102 C 0.38494 0.19907 0.57798 0.0
C103 C 0.41015 0.18051 0.55362 0.0
C104 C 0.47337 0.21413 0.54414 0.0
C105 C 0.49176 0.30364 0.46744 0.0
C106 C 0.60265 0.28971 0.48233 0.0
C107 C 0.51365 0.30954 0.49715 0.0
N108 N 0.56836 0.30238 0.50429 0.0
C109 C 0.58213 0.28337 0.45238 0.0
C110 C 0.52629 0.29041 0.44495 0.0
C111 C 0.73989 0.35054 0.53778 0.0
C112 C 0.76701 0.45712 0.64115 0.0
C113 C 0.81935 0.4009 0.60389 0.0
C114 C 0.85858 0.45624 0.61377 0.0
C115 C 0.83211 0.48445 0.63253 0.0
N116 N 0.75546 0.37436 0.61241 0.0
C117 C 0.7292 0.40177 0.63078 0.0
Co118 Co 0.30285 0.6984 0.47853 0.0
Co119 Co 0.42622 0.71719 0.42875 0.0
O120 O 0.33277 0.68735 0.43862 0.0
C121 C 0.20909 0.5854 0.49418 0.0
O122 O 0.24738 0.59337 0.51772 0.0
C123 C 0.36535 0.74997 0.3779 0.0
O124 O 0.32721 0.76087 0.39671 0.0
O125 O 0.44147 0.79399 0.44396 0.0
O126 O 0.37656 0.77515 0.48389 0.0
H127 H 0.66814 0.82896 0.4489 0.0
H128 H 0.20829 0.66244 0.42736 0.0
O129 O 0.22694 0.62162 0.47414 0.0
H130 H 0.21502 0.84244 0.46608 0.0
H131 H 0.13503 0.69135 0.55492 0.0
H132 H 0.36919 0.74242 0.53745 0.0
H133 H 0.28144 0.80172 0.49017 0.0
H134 H 0.17248 0.6779 0.50465 0.0
O135 O 0.40687 0.73339 0.38737 0.0
H136 H 0.55077 0.79034 0.46099 0.0
H137 H 0.4995 0.70759 0.37478 0.0
H138 H 0.33386 0.75683 0.58807 0.0
H139 H 0.13993 0.701 0.40291 0.0
H140 H 0.216 0.73113 0.59706 0.0
H141 H 0.1433 0.79182 0.42216 0.0
O142 O 0.35884 0.66594 0.49678 0.0
H143 H 0.3053 0.53313 0.37097 0.0
H144 H 0.49466 0.6442 0.43801 0.0
H145 H 0.47477 0.54818 0.42107 0.0
H146 H 0.37967 0.492 0.38716 0.0
H147 H 0.32639 0.62908 0.3889 0.0
H148 H 0.61632 0.74569 0.36168 0.0
H149 H 0.7016 0.80669 0.39892 0.0
O150 O 0.44923 0.70101 0.46919 0.0
C151 C 0.42321 0.80893 0.46852 0.0
C152 C 0.63146 0.80235 0.4325 0.0
C153 C 0.60236 0.75568 0.38353 0.0
N154 N 0.51829 0.74661 0.41867 0.0
C155 C 0.5649 0.78027 0.43923 0.0
C156 C 0.53626 0.73437 0.39106 0.0
C157 C 0.65019 0.78987 0.40444 0.0
C158 C 0.20954 0.70169 0.43608 0.0
N159 N 0.24914 0.72991 0.46014 0.0
C160 C 0.17093 0.72345 0.42205 0.0
C161 C 0.17294 0.77445 0.43282 0.0
C162 C 0.21328 0.80292 0.45741 0.0
C163 C 0.25124 0.7799 0.47085 0.0
C164 C 0.18653 0.70277 0.55128 0.0
C165 C 0.31784 0.73126 0.54117 0.0
C166 C 0.20806 0.69527 0.52286 0.0
N167 N 0.27304 0.70941 0.51809 0.0
C168 C 0.29811 0.73948 0.56988 0.0
C169 C 0.23198 0.72507 0.57491 0.0
C170 C 0.41836 0.67553 0.49184 0.0
C171 C 0.34698 0.55723 0.38568 0.0
C172 C 0.45292 0.61996 0.42344 0.0
C173 C 0.44205 0.56564 0.41382 0.0
C174 C 0.3887 0.53416 0.39479 0.0
N175 N 0.41181 0.64233 0.41439 0.0
C176 C 0.3593 0.61165 0.39582 0.0
Co177 Co 0.6451 0.3125 0.98509 0.0
Co178 Co 0.72864 0.37476 0.92365 0.0
O179 O 0.6669 0.3072 0.94279 0.0
C180 C 0.66858 0.20936 0.98389 0.0
O181 O 0.72364 0.23588 0.96979 0.0
C182 C 0.62845 0.30738 0.87449 0.0
O183 O 0.59027 0.27164 0.89334 0.0
O184 O 0.67033 0.4119 0.93363 0.0
O185 O 0.6564 0.3916 0.98183 0.0
H186 H 0.86438 0.58232 0.91865 0.0
H187 H 0.55258 0.21685 0.94674 0.0
O188 O 0.63183 0.23359 0.99032 0.0
H189 H 0.42432 0.31732 0.98338 0.0
H190 H 0.51911 0.24144 0.07898 0.0
H191 H 0.70172 0.39911 0.03459 0.0
H192 H 0.54006 0.35001 0.99901 0.0
H193 H 0.54475 0.23598 0.02566 0.0
O194 O 0.6819 0.34817 0.88358 0.0
H195 H 0.78852 0.49588 0.94173 0.0
H196 H 0.79701 0.39822 0.86513 0.0
H197 H 0.67731 0.40658 0.08791 0.0
H198 H 0.43646 0.18212 0.93088 0.0
H199 H 0.58544 0.32733 0.11046 0.0
H200 H 0.37162 0.23265 0.94912 0.0
O201 O 0.73928 0.3404 0.99645 0.0
H202 H 0.7754 0.21302 0.88719 0.0
H203 H 0.87247 0.40768 0.92949 0.0
H204 H 0.9439 0.36034 0.91894 0.0
H205 H 0.89548 0.26234 0.89751 0.0
H206 H 0.70567 0.26165 0.89846 0.0
H207 H 0.87232 0.48368 0.84109 0.0
H208 H 0.90678 0.57655 0.86795 0.0
O209 O 0.7799 0.4054 0.9624 0.0
C210 C 0.65321 0.4196 0.95996 0.0
C211 C 0.84986 0.54209 0.90675 0.0
C212 C 0.85425 0.48673 0.8632 0.0
N213 N 0.78864 0.442 0.9049 0.0
C214 C 0.80703 0.49297 0.91973 0.0
C215 C 0.81142 0.4385 0.8769 0.0
C216 C 0.87358 0.53882 0.87829 0.0
C217 C 0.52452 0.23883 0.9549 0.0
N218 N 0.55323 0.28555 0.97361 0.0
C219 C 0.45886 0.21906 0.9458 0.0
C220 C 0.42252 0.24746 0.95602 0.0
C221 C 0.45205 0.29498 0.97522 0.0
C222 C 0.51778 0.31346 0.98387 0.0
C223 C 0.55925 0.27626 0.06941 0.0
C224 C 0.66151 0.36453 0.04419 0.0
C225 C 0.57416 0.27333 0.03926 0.0
N226 N 0.6246 0.31724 0.02698 0.0
C227 C 0.64799 0.36896 0.07442 0.0
C228 C 0.59647 0.32447 0.08706 0.0
C229 C 0.78556 0.3838 0.98657 0.0
C230 C 0.79715 0.25585 0.89633 0.0
C231 C 0.85091 0.36505 0.92014 0.0
C232 C 0.89169 0.33847 0.9142 0.0
C233 C 0.8645 0.28351 0.90218 0.0
N234 N 0.78489 0.33778 0.91417 0.0
C235 C 0.75789 0.28377 0.90257 0.0
C236 C 0.34185 0.77273 0.19881 0.0
C237 C 0.3266 0.71922 0.18573 0.0
C238 C 0.34465 0.78205 0.23017 0.0
C239 C 0.33085 0.73664 0.24885 0.0
C240 C 0.31222 0.6821 0.23566 0.0
C241 C 0.31086 0.67418 0.20437 0.0
C242 C 0.36551 0.84093 0.24328 0.0
C243 C 0.2961 0.63229 0.25463 0.0
C244 C 0.40967 0.75762 0.32626 0.0
C245 C 0.35792 0.75272 0.34511 0.0
C246 C 0.40227 0.75506 0.29499 0.0
C247 C 0.34118 0.74635 0.28204 0.0
C248 C 0.28923 0.74297 0.30093 0.0
C249 C 0.2984 0.74669 0.33227 0.0
C250 C 0.45938 0.75984 0.2758 0.0
C251 C 0.22309 0.73291 0.28807 0.0
H252 H 0.3544 0.80781 0.18459 0.0
H253 H 0.2985 0.63258 0.19447 0.0
H254 H 0.33056 0.84186 0.26051 0.0
H255 H 0.41429 0.85562 0.25453 0.0
H256 H 0.36881 0.87071 0.22595 0.0
H257 H 0.27675 0.59207 0.24102 0.0
H258 H 0.34089 0.63679 0.26695 0.0
H259 H 0.25925 0.63032 0.27153 0.0
H260 H 0.45603 0.76279 0.336 0.0
H261 H 0.25808 0.74253 0.34668 0.0
H262 H 0.46876 0.79189 0.25904 0.0
H263 H 0.44743 0.71929 0.26332 0.0
H264 H 0.50508 0.77123 0.28926 0.0
H265 H 0.2287 0.76363 0.27099 0.0
H266 H 0.18954 0.73582 0.30556 0.0
H267 H 0.19991 0.69056 0.2767 0.0
C268 C 0.54883 0.27042 0.6962 0.0
C269 C 0.59944 0.26147 0.68223 0.0
C270 C 0.54612 0.27473 0.72765 0.0
C271 C 0.59448 0.26894 0.74553 0.0
C272 C 0.64372 0.25715 0.73146 0.0
C273 C 0.64594 0.25408 0.70007 0.0
C274 C 0.49339 0.28813 0.7417 0.0
C275 C 0.69563 0.24972 0.74955 0.0
C276 C 0.64502 0.34225 0.82271 0.0
C277 C 0.61374 0.29814 0.84176 0.0
C278 C 0.63681 0.3337 0.79148 0.0
C279 C 0.59712 0.27945 0.77876 0.0
C280 C 0.5639 0.235 0.79787 0.0
C281 C 0.57218 0.24497 0.82916 0.0
C282 C 0.67238 0.38254 0.77205 0.0
C283 C 0.52185 0.17642 0.78525 0.0
H284 H 0.51298 0.27655 0.68258 0.0
H285 H 0.68494 0.24672 0.68946 0.0
H286 H 0.46797 0.25822 0.75914 0.0
H287 H 0.51613 0.33066 0.75288 0.0
H288 H 0.45638 0.28679 0.72495 0.0
H289 H 0.72689 0.23589 0.73535 0.0
H290 H 0.72764 0.28995 0.76158 0.0
H291 H 0.67243 0.21845 0.76667 0.0
H292 H 0.67684 0.3836 0.83222 0.0
H293 H 0.54809 0.21059 0.84369 0.0
H294 H 0.63753 0.38637 0.75584 0.0
H295 H 0.71 0.37529 0.75892 0.0
H296 H 0.69708 0.42285 0.78539 0.0
H297 H 0.48531 0.17686 0.76884 0.0
H298 H 0.49551 0.14741 0.80297 0.0
H299 H 0.55315 0.15974 0.77314 0.0
C300 C 0.49976 0.63714 1.0054 0.0
C301 C 0.44642 0.60645 0.02328 0.0
C302 C 0.53672 0.61172 0.99142 0.0
C303 C 0.51899 0.5541 0.99497 0.0
C304 C 0.46318 0.52242 1.0118 0.0
C305 C 0.42808 0.54909 0.026 0.0
C306 C 0.59651 0.64708 0.97411 0.0
C307 C 0.44179 0.46065 0.01572 0.0
C308 C 0.5837 0.46778 0.94622 0.0
C309 C 0.62779 0.46186 0.96619 0.0
C310 C 0.54977 0.49993 0.95468 0.0
C311 C 0.56145 0.52751 0.9835 0.0
C312 C 0.60942 0.52464 1.00284 0.0
C313 C 0.64135 0.49131 0.99409 0.0
C314 C 0.49827 0.50114 0.93362 0.0
C315 C 0.62441 0.55421 0.03351 0.0
H316 H 0.51432 0.68156 1.00337 0.0
H317 H 0.38646 0.525 0.03953 0.0
H318 H 0.64133 0.65106 0.98621 0.0
H319 H 0.59561 0.6267 0.95177 0.0
H320 H 0.60023 0.68978 0.97109 0.0
H321 H 0.39394 0.44101 0.02705 0.0
H322 H 0.43759 0.43823 0.99367 0.0
H323 H 0.4792 0.45467 0.02929 0.0
H324 H 0.57265 0.44448 0.92478 0.0
H325 H 0.67572 0.48693 1.00951 0.0
H326 H 0.5035 0.54455 0.93199 0.0
H327 H 0.44886 0.4759 0.94251 0.0
H328 H 0.50093 0.48381 0.91082 0.0
H329 H 0.63268 0.5985 0.03207 0.0
H330 H 0.66832 0.55337 0.04425 0.0
H331 H 0.58189 0.53366 0.04818 0.0
C332 C 0.09731 0.53194 0.46997 0.0
C333 C 0.1395 0.54349 0.49497 0.0
C334 C 0.02953 0.49783 0.47199 0.0
C335 C 1.00323 0.47595 0.49982 0.0
C336 C 0.04586 0.48648 0.5249 0.0
C337 C 0.11336 0.51945 0.52207 0.0
C338 C 0.98589 0.48628 0.44457 0.0
C339 C 0.01987 0.46479 0.55514 0.0
C340 C 0.82703 0.43988 0.52096 0.0
C341 C 0.80103 0.38149 0.52173 0.0
C342 C 0.89207 0.47129 0.51228 0.0
C343 C 0.93111 0.44333 0.5034 0.0
C344 C 0.90297 0.384 0.50186 0.0
C345 C 0.83864 0.35383 0.51161 0.0
C346 C 0.92056 0.53445 0.51504 0.0
C347 C 0.9421 0.35244 0.49179 0.0
H348 H 0.11706 0.55037 0.44896 0.0
H349 H 0.14527 0.5284 0.54162 0.0
H350 H 0.95508 0.44056 0.441 0.0
H351 H 0.95219 0.50653 0.44787 0.0
H352 H 0.0145 0.50216 0.42409 0.0
H353 H 0.05952 0.47679 0.57243 0.0
H354 H 0.98465 0.48153 0.56273 0.0
H355 H 0.9929 0.41844 0.55353 0.0
H356 H 0.79825 0.46124 0.52932 0.0
H357 H 0.81844 0.30858 0.51231 0.0
H358 H 0.947 0.55287 0.49449 0.0
H359 H 0.95671 0.55013 0.53396 0.0
H360 H 0.88225 0.54965 0.51913 0.0
H361 H 0.96989 0.37027 0.47141 0.0
H362 H 0.91027 0.30715 0.48701 0.0
H363 H 0.97828 0.35649 0.50959 0.0
C364 C 0.59894 0.12934 0.01449 0.0
C365 C 0.64865 0.15137 0.99345 0.0
C366 C 0.57724 0.07428 0.02345 0.0
C367 C 0.60533 0.03973 1.01088 0.0
C368 C 0.65665 0.06194 0.99014 0.0
C369 C 0.678 0.11768 0.98178 0.0
C370 C 0.52279 0.0526 0.04579 0.0
C371 C 0.68744 0.02628 0.97607 0.0
C372 C 0.56647 0.90511 0.05086 0.0
C373 C 0.50996 0.86742 0.03503 0.0
C374 C 0.59985 0.96108 0.04263 0.0
C375 C 0.57667 0.97927 0.01775 0.0
C376 C 0.52152 0.94048 1.0009 0.0
C377 C 0.48868 0.88533 1.00986 0.0
C378 C 0.65804 1.0013 0.06135 0.0
C379 C 0.49551 0.95772 0.974 0.0
H380 H 0.57645 0.15512 0.024 0.0
H381 H 0.71651 0.13437 0.96557 0.0
H382 H 0.47834 0.01898 0.03485 0.0
H383 H 0.53741 0.03404 0.06453 0.0
H384 H 0.50968 0.08602 0.05516 0.0
H385 H 0.73013 0.05086 0.9622 0.0
H386 H 0.70377 1.00651 0.99362 0.0
H387 H 0.65047 0.99195 0.96167 0.0
H388 H 0.58316 0.89149 0.0703 0.0
H389 H 0.44568 0.85621 0.99719 0.0
H390 H 0.64516 0.03277 0.07334 0.0
H391 H 0.70005 0.02443 0.04687 0.0
H392 H 0.67379 0.97963 0.07812 0.0
H393 H 0.47552 0.98787 0.98131 0.0
H394 H 0.45603 0.9214 0.96174 0.0
H395 H 0.5357 0.97919 0.95832 0.0
C396 C 0.6029 0.51716 0.57695 0.0
C397 C 0.58658 0.46957 0.55765 0.0
C398 C 0.57753 0.55638 0.57176 0.0
C399 C 0.53618 0.54819 0.54637 0.0
C400 C 0.52004 0.50032 0.52683 0.0
C401 C 0.54497 0.46164 0.53282 0.0
C402 C 0.59501 0.60654 0.59328 0.0
C403 C 0.47728 0.49029 0.49913 0.0
C404 C 0.41867 0.61315 0.5327 0.0
C405 C 0.45261 0.65179 0.51125 0.0
C406 C 0.44769 0.58248 0.54666 0.0
C407 C 0.51185 0.59037 0.53879 0.0
C408 C 0.54823 0.63275 0.51918 0.0
C409 C 0.51843 0.66317 0.50588 0.0
C410 C 0.4077 0.5385 0.56796 0.0
C411 C 0.61654 0.64249 0.50992 0.0
H412 H 0.63475 0.52337 0.59624 0.0
H413 H 0.5327 0.42545 0.51752 0.0
H414 H 0.62309 0.64561 0.5816 0.0
H415 H 0.54968 0.60854 0.60157 0.0
H416 H 0.62481 0.60537 0.61276 0.0
H417 H 0.46916 0.45077 0.48634 0.0
H418 H 0.42883 0.48835 0.50543 0.0
H419 H 0.50032 0.5256 0.48417 0.0
H420 H 0.36825 0.60455 0.53744 0.0
H421 H 0.54589 0.69374 0.48986 0.0
H422 H 0.43821 0.53893 0.58748 0.0
H423 H 0.38959 0.49644 0.55634 0.0
H424 H 0.36464 0.54469 0.57611 0.0
H425 H 0.64702 0.64382 0.52962 0.0
H426 H 0.64167 0.6821 0.4982 0.0
H427 H 0.61349 0.60724 0.49455 0.0
C428 C 0.15915 0.52797 0.0326 0.0
C429 C 0.17516 0.55703 0.06061 0.0
C430 C 0.09368 0.49455 0.02388 0.0
C431 C 0.04277 0.49122 0.04335 0.0
C432 C 0.05877 0.51849 0.07224 0.0
C433 C 0.12504 0.55069 0.08068 0.0
C434 C 0.07899 0.46532 0.99312 0.0
C435 C 1.00598 0.51681 0.09343 0.0
C436 C 0.88728 0.46926 1.00123 0.0
C437 C 0.84816 0.41182 1.00384 0.0
C438 C 0.94924 0.49606 0.01535 0.0
C439 C 0.97349 0.46443 0.03198 0.0
C440 C 0.9335 0.40671 0.03541 0.0
C441 C 0.8709 0.38115 0.02153 0.0
C442 C 0.9897 0.55794 1.01156 0.0
C443 C 0.95806 0.37139 0.05249 0.0
H444 H 0.19797 0.53265 0.01711 0.0
H445 H 0.13739 0.57368 0.10221 0.0
H446 H 0.04289 0.42093 0.99447 0.0
H447 H 0.0569 0.48585 0.97862 0.0
H448 H 0.12383 0.46652 0.98225 0.0
H449 H 0.02608 0.53411 0.11623 0.0
H450 H 0.98161 0.54184 0.08468 0.0
H451 H 0.96778 0.47327 0.09505 0.0
H452 H 0.86966 0.49331 0.98783 0.0
H453 H 0.84095 0.33667 0.02346 0.0
H454 H 0.03312 0.56425 0.99787 0.0
H455 H 1.00809 0.58019 0.03364 0.0
H456 H 0.96135 0.57749 1.00042 0.0
H457 H 0.99897 0.36776 0.04026 0.0
H458 H 0.919 0.32856 0.05545 0.0
H459 H 0.97767 0.39161 0.07486 0.0
C460 C 0.61347 0.10917 0.55709 0.0
C461 C 0.60128 0.14923 0.54205 0.0
C462 C 0.59206 0.05401 0.54477 0.0
C463 C 0.55614 0.03826 0.51724 0.0
C464 C 0.54526 0.07889 0.50167 0.0
C465 C 0.56898 0.13385 0.51394 0.0
C466 C 0.60649 0.01226 0.56156 0.0
C467 C 0.50587 0.06381 0.47264 0.0
C468 C 0.52121 0.90314 0.47116 0.0
C469 C 0.45831 0.86775 0.48075 0.0
C470 C 0.55517 0.95803 0.48381 0.0
C471 C 0.52462 0.97855 0.50582 0.0
C472 C 0.46122 0.94302 0.51552 0.0
C473 C 0.42955 0.88797 0.50332 0.0
C474 C 0.62355 0.99411 0.47355 0.0
C475 C 0.42594 0.96353 0.5383 0.0
H476 H 0.63938 0.12075 0.57852 0.0
H477 H 0.5605 0.16448 0.50162 0.0
H478 H 0.56043 0.98075 0.57072 0.0
H479 H 0.62637 0.98942 0.5462 0.0
H480 H 0.64212 0.03267 0.5804 0.0
H481 H 0.50325 0.10073 0.46294 0.0
H482 H 0.52759 0.04478 0.45593 0.0
H483 H 0.45512 0.03218 0.47654 0.0
H484 H 0.54438 0.88773 0.45412 0.0
H485 H 0.3816 0.86098 0.51137 0.0
H486 H 0.65741 0.01236 0.49316 0.0
H487 H 0.62347 0.02951 0.46125 0.0
H488 H 0.64296 0.97019 0.45865 0.0
H489 H 0.45532 0.97804 0.55943 0.0
H490 H 0.37665 0.93057 0.5434 0.0
H491 H 0.41996 0.99988 0.52983 0.0
loop_
_geom_bond_atom_site_label_1
_geom_bond_atom_site_label_2
_geom_bond_distance
_geom_bond_site_symmetry_2
_ccdc_geom_bond_type
Co0 O2 2.143 . S
Co0 O8 2.074 . S
Co0 O11 2.093 . S
Co0 O24 2.097 . S
Co0 N41 2.151 . S
Co0 N49 2.214 1_554 S
Co1 O2 2.160 . S
Co1 O7 2.058 . S
Co1 O17 2.057 . S
Co1 O32 2.037 . S
Co1 N36 2.145 . S
Co1 N57 2.257 . S
O2 Co0 2.143 . S
O2 Co1 2.160 . S
C3 O4 1.278 . S
C3 O11 1.224 . S
O4 C3 1.278 . S
C5 O6 1.245 . S
C5 O17 1.232 . S
O6 C5 1.245 . S
O7 Co1 2.058 . S
O7 C33 1.269 . S
O8 Co0 2.074 . S
O8 C33 1.257 . S
H9 C34 0.930 . S
H10 C40 0.930 . S
O11 Co0 2.093 . S
O11 C3 1.224 . S
H12 C44 0.929 . S
H13 C46 0.930 . S
H14 C47 0.930 . S
H15 C45 0.929 . S
H16 C48 0.928 . S
O17 Co1 2.057 . S
O17 C5 1.232 . S
H18 C37 0.929 . S
H19 C38 0.929 . S
H20 C50 0.931 . S
H21 C42 0.929 . S
H22 C51 0.930 . S
H23 C43 0.931 . S
O24 Co0 2.097 . S
O24 C52 1.214 . S
H25 C53 0.929 . S
H26 C54 0.929 . S
H27 C55 0.930 . S
H28 C56 0.929 . S
H29 C58 0.930 . S
H30 C35 0.930 . S
H31 C39 0.930 . S
O32 Co1 2.037 . S
O32 C52 1.234 . S
C33 O7 1.269 . S
C33 O8 1.257 . S
C34 H9 0.930 . S
C34 C37 1.388 . S
C34 C39 1.418 . S
C35 H30 0.930 . S
C35 C38 1.404 . S
C35 C39 1.353 . S
N36 Co1 2.145 . S
N36 C37 1.397 . S
N36 C38 1.334 . S
C37 H18 0.929 . S
C37 C34 1.388 . S
C37 N36 1.397 . S
C38 H19 0.929 . S
C38 C35 1.404 . S
C38 N36 1.334 . S
C39 H31 0.930 . S
C39 C34 1.418 . S
C39 C35 1.353 . S
C40 H10 0.930 . S
C40 N41 1.330 . S
C40 C42 1.446 . S
N41 Co0 2.151 . S
N41 C40 1.330 . S
N41 C45 1.418 . S
C42 H21 0.929 . S
C42 C40 1.446 . S
C42 C43 1.332 . S
C43 H23 0.931 . S
C43 C42 1.332 . S
C43 C44 1.267 . S
C44 H12 0.929 . S
C44 C43 1.267 . S
C44 C45 1.251 . S
C45 H15 0.929 . S
C45 N41 1.418 . S
C45 C44 1.251 . S
C46 H13 0.930 . S
C46 C48 1.406 . S
C46 C51 1.261 . S
C47 H14 0.930 . S
C47 N49 1.325 . S
C47 C50 1.357 . S
C48 H16 0.928 . S
C48 C46 1.406 . S
C48 N49 1.261 . S
N49 Co0 2.214 1_556 S
N49 C47 1.325 . S
N49 C48 1.261 . S
C50 H20 0.931 . S
C50 C47 1.357 . S
C50 C51 1.312 . S
C51 H22 0.930 . S
C51 C46 1.261 . S
C51 C50 1.312 . S
C52 O24 1.214 . S
C52 O32 1.234 . S
C53 H25 0.929 . S
C53 C56 1.391 . S
C53 C58 1.391 . S
C54 H26 0.929 . S
C54 C55 1.390 . S
C54 N57 1.391 . S
C55 H27 0.930 . S
C55 C54 1.390 . S
C55 C56 1.392 . S
C56 H28 0.929 . S
C56 C53 1.391 . S
C56 C55 1.392 . S
N57 Co1 2.257 . S
N57 C54 1.391 . S
N57 C58 1.388 . S
C58 H29 0.930 . S
C58 C53 1.391 . S
C58 N57 1.388 . S
Co59 O61 2.143 . S
Co59 O67 2.074 . S
Co59 O70 2.093 . S
Co59 O83 2.097 . S
Co59 N100 2.151 . S
Co59 N108 2.214 . S
Co60 O61 2.160 . S
Co60 O66 2.058 . S
Co60 O76 2.057 . S
Co60 O91 2.037 . S
Co60 N95 2.145 . S
Co60 N116 2.257 . S
O61 Co59 2.143 . S
O61 Co60 2.160 . S
C62 O63 1.278 . S
C62 O70 1.224 . S
O63 C62 1.278 . S
C64 O65 1.245 . S
C64 O76 1.232 . S
O65 C64 1.245 . S
O66 Co60 2.058 . S
O66 C92 1.269 . S
O67 Co59 2.074 . S
O67 C92 1.257 . S
H68 C93 0.930 . S
H69 C99 0.930 . S
O70 Co59 2.093 . S
O70 C62 1.224 . S
H71 C103 0.929 . S
H72 C105 0.930 . S
H73 C106 0.930 . S
H74 C104 0.929 . S
H75 C107 0.928 . S
O76 Co60 2.057 . S
O76 C64 1.232 . S
H77 C96 0.929 . S
H78 C97 0.929 . S
H79 C109 0.931 . S
H80 C101 0.929 . S
H81 C110 0.930 . S
H82 C102 0.931 . S
O83 Co59 2.097 . S
O83 C111 1.214 . S
H84 C112 0.929 . S
H85 C113 0.929 . S
H86 C114 0.930 . S
H87 C115 0.929 . S
H88 C117 0.930 . S
H89 C94 0.930 . S
H90 C98 0.930 . S
O91 Co60 2.037 . S
O91 C111 1.234 . S
C92 O66 1.269 . S
C92 O67 1.257 . S
C93 H68 0.930 . S
C93 C96 1.388 . S
C93 C98 1.418 . S
C94 H89 0.930 . S
C94 C97 1.404 . S
C94 C98 1.353 . S
N95 Co60 2.145 . S
N95 C96 1.397 . S
N95 C97 1.334 . S
C96 H77 0.929 . S
C96 C93 1.388 . S
C96 N95 1.397 . S
C97 H78 0.929 . S
C97 C94 1.404 . S
C97 N95 1.334 . S
C98 H90 0.930 . S
C98 C93 1.418 . S
C98 C94 1.353 . S
C99 H69 0.930 . S
C99 N100 1.330 . S
C99 C101 1.446 . S
N100 Co59 2.151 . S
N100 C99 1.330 . S
N100 C104 1.418 . S
C101 H80 0.929 . S
C101 C99 1.446 . S
C101 C102 1.332 . S
C102 H82 0.931 . S
C102 C101 1.332 . S
C102 C103 1.267 . S
C103 H71 0.929 . S
C103 C102 1.267 . S
C103 C104 1.251 . S
C104 H74 0.929 . S
C104 N100 1.418 . S
C104 C103 1.251 . S
C105 H72 0.930 . S
C105 C107 1.406 . S
C105 C110 1.261 . S
C106 H73 0.930 . S
C106 N108 1.325 . S
C106 C109 1.357 . S
C107 H75 0.928 . S
C107 C105 1.406 . S
C107 N108 1.261 . S
N108 Co59 2.214 . S
N108 C106 1.325 . S
N108 C107 1.261 . S
C109 H79 0.931 . S
C109 C106 1.357 . S
C109 C110 1.312 . S
C110 H81 0.930 . S
C110 C105 1.261 . S
C110 C109 1.312 . S
C111 O83 1.214 . S
C111 O91 1.234 . S
C112 H84 0.929 . S
C112 C115 1.391 . S
C112 C117 1.391 . S
C113 H85 0.929 . S
C113 C114 1.390 . S
C113 N116 1.391 . S
C114 H86 0.930 . S
C114 C113 1.390 . S
C114 C115 1.392 . S
C115 H87 0.929 . S
C115 C112 1.391 . S
C115 C114 1.392 . S
N116 Co60 2.257 . S
N116 C113 1.391 . S
N116 C117 1.388 . S
C117 H88 0.930 . S
C117 C112 1.391 . S
C117 N116 1.388 . S
Co118 O120 2.143 . S
Co118 O126 2.074 . S
Co118 O129 2.093 . S
Co118 O142 2.097 . S
Co118 N159 2.151 . S
Co118 N167 2.214 . S
Co119 O120 2.160 . S
Co119 O125 2.058 . S
Co119 O135 2.057 . S
Co119 O150 2.037 . S
Co119 N154 2.145 . S
Co119 N175 2.257 . S
O120 Co118 2.143 . S
O120 Co119 2.160 . S
C121 O122 1.278 . S
C121 O129 1.224 . S
O122 C121 1.278 . S
C123 O124 1.245 . S
C123 O135 1.232 . S
O124 C123 1.245 . S
O125 Co119 2.058 . S
O125 C151 1.269 . S
O126 Co118 2.074 . S
O126 C151 1.257 . S
H127 C152 0.930 . S
H128 C158 0.930 . S
O129 Co118 2.093 . S
O129 C121 1.224 . S
H130 C162 0.929 . S
H131 C164 0.930 . S
H132 C165 0.930 . S
H133 C163 0.929 . S
H134 C166 0.928 . S
O135 Co119 2.057 . S
O135 C123 1.232 . S
H136 C155 0.929 . S
H137 C156 0.929 . S
H138 C168 0.931 . S
H139 C160 0.929 . S
H140 C169 0.930 . S
H141 C161 0.931 . S
O142 Co118 2.097 . S
O142 C170 1.214 . S
H143 C171 0.929 . S
H144 C172 0.929 . S
H145 C173 0.930 . S
H146 C174 0.929 . S
H147 C176 0.930 . S
H148 C153 0.930 . S
H149 C157 0.930 . S
O150 Co119 2.037 . S
O150 C170 1.234 . S
C151 O125 1.269 . S
C151 O126 1.257 . S
C152 H127 0.930 . S
C152 C155 1.388 . S
C152 C157 1.418 . S
C153 H148 0.930 . S
C153 C156 1.404 . S
C153 C157 1.353 . S
N154 Co119 2.145 . S
N154 C155 1.397 . S
N154 C156 1.334 . S
C155 H136 0.929 . S
C155 C152 1.388 . S
C155 N154 1.397 . S
C156 H137 0.929 . S
C156 C153 1.404 . S
C156 N154 1.334 . S
C157 H149 0.930 . S
C157 C152 1.418 . S
C157 C153 1.353 . S
C158 H128 0.930 . S
C158 N159 1.330 . S
C158 C160 1.446 . S
N159 Co118 2.151 . S
N159 C158 1.330 . S
N159 C163 1.418 . S
C160 H139 0.929 . S
C160 C158 1.446 . S
C160 C161 1.332 . S
C161 H141 0.931 . S
C161 C160 1.332 . S
C161 C162 1.267 . S
C162 H130 0.929 . S
C162 C161 1.267 . S
C162 C163 1.251 . S
C163 H133 0.929 . S
C163 N159 1.418 . S
C163 C162 1.251 . S
C164 H131 0.930 . S
C164 C166 1.406 . S
C164 C169 1.261 . S
C165 H132 0.930 . S
C165 N167 1.325 . S
C165 C168 1.357 . S
C166 H134 0.928 . S
C166 C164 1.406 . S
C166 N167 1.261 . S
N167 Co118 2.214 . S
N167 C165 1.325 . S
N167 C166 1.261 . S
C168 H138 0.931 . S
C168 C165 1.357 . S
C168 C169 1.312 . S
C169 H140 0.930 . S
C169 C164 1.261 . S
C169 C168 1.312 . S
C170 O142 1.214 . S
C170 O150 1.234 . S
C171 H143 0.929 . S
C171 C174 1.391 . S
C171 C176 1.391 . S
C172 H144 0.929 . S
C172 C173 1.390 . S
C172 N175 1.391 . S
C173 H145 0.930 . S
C173 C172 1.390 . S
C173 C174 1.392 . S
C174 H146 0.929 . S
C174 C171 1.391 . S
C174 C173 1.392 . S
N175 Co119 2.257 . S
N175 C172 1.391 . S
N175 C176 1.388 . S
C176 H147 0.930 . S
C176 C171 1.391 . S
C176 N175 1.388 . S
Co177 O179 2.143 . S
Co177 O185 2.074 . S
Co177 O188 2.093 . S
Co177 O201 2.097 . S
Co177 N218 2.151 . S
Co177 N226 2.214 1_556 S
Co178 O179 2.160 . S
Co178 O184 2.058 . S
Co178 O194 2.057 . S
Co178 O209 2.037 . S
Co178 N213 2.145 . S
Co178 N234 2.257 . S
O179 Co177 2.143 . S
O179 Co178 2.160 . S
C180 O181 1.278 . S
C180 O188 1.224 . S
O181 C180 1.278 . S
C182 O183 1.245 . S
C182 O194 1.232 . S
O183 C182 1.245 . S
O184 Co178 2.058 . S
O184 C210 1.269 . S
O185 Co177 2.074 . S
O185 C210 1.257 . S
H186 C211 0.930 . S
H187 C217 0.930 . S
O188 Co177 2.093 . S
O188 C180 1.224 . S
H189 C221 0.929 . S
H190 C223 0.930 . S
H191 C224 0.930 . S
H192 C222 0.929 . S
H193 C225 0.928 . S
O194 Co178 2.057 . S
O194 C182 1.232 . S
H195 C214 0.929 . S
H196 C215 0.929 . S
H197 C227 0.931 . S
H198 C219 0.929 . S
H199 C228 0.930 . S
H200 C220 0.931 . S
O201 Co177 2.097 . S
O201 C229 1.214 . S
H202 C230 0.929 . S
H203 C231 0.929 . S
H204 C232 0.930 . S
H205 C233 0.929 . S
H206 C235 0.930 . S
H207 C212 0.930 . S
H208 C216 0.930 . S
O209 Co178 2.037 . S
O209 C229 1.234 . S
C210 O184 1.269 . S
C210 O185 1.257 . S
C211 H186 0.930 . S
C211 C214 1.388 . S
C211 C216 1.418 . S
C212 H207 0.930 . S
C212 C215 1.404 . S
C212 C216 1.353 . S
N213 Co178 2.145 . S
N213 C214 1.397 . S
N213 C215 1.334 . S
C214 H195 0.929 . S
C214 C211 1.388 . S
C214 N213 1.397 . S
C215 H196 0.929 . S
C215 C212 1.404 . S
C215 N213 1.334 . S
C216 H208 0.930 . S
C216 C211 1.418 . S
C216 C212 1.353 . S
C217 H187 0.930 . S
C217 N218 1.330 . S
C217 C219 1.446 . S
N218 Co177 2.151 . S
N218 C217 1.330 . S
N218 C222 1.418 . S
C219 H198 0.929 . S
C219 C217 1.446 . S
C219 C220 1.332 . S
C220 H200 0.931 . S
C220 C219 1.332 . S
C220 C221 1.267 . S
C221 H189 0.929 . S
C221 C220 1.267 . S
C221 C222 1.251 . S
C222 H192 0.929 . S
C222 N218 1.418 . S
C222 C221 1.251 . S
C223 H190 0.930 . S
C223 C225 1.406 . S
C223 C228 1.261 . S
C224 H191 0.930 . S
C224 N226 1.325 . S
C224 C227 1.357 . S
C225 H193 0.928 . S
C225 C223 1.406 . S
C225 N226 1.261 . S
N226 Co177 2.214 1_554 S
N226 C224 1.325 . S
N226 C225 1.261 . S
C227 H197 0.931 . S
C227 C224 1.357 . S
C227 C228 1.312 . S
C228 H199 0.930 . S
C228 C223 1.261 . S
C228 C227 1.312 . S
C229 O201 1.214 . S
C229 O209 1.234 . S
C230 H202 0.929 . S
C230 C233 1.391 . S
C230 C235 1.391 . S
C231 H203 0.929 . S
C231 C232 1.390 . S
C231 N234 1.391 . S
C232 H204 0.930 . S
C232 C231 1.390 . S
C232 C233 1.392 . S
C233 H205 0.929 . S
C233 C230 1.391 . S
C233 C232 1.392 . S
N234 Co178 2.257 . S
N234 C231 1.391 . S
N234 C235 1.388 . S
C235 H206 0.930 . S
C235 C230 1.391 . S
C235 N234 1.388 . S
C236 C237 1.391 . S
C236 C238 1.394 . S
C236 H252 0.931 . S
C237 C236 1.391 . S
C237 C241 1.376 . S
C238 C236 1.394 . S
C238 C239 1.369 . S
C238 C242 1.531 . S
C239 C238 1.369 . S
C239 C240 1.410 . S
C239 C247 1.503 . S
C240 C239 1.410 . S
C240 C241 1.392 . S
C240 C243 1.511 . S
C241 C237 1.376 . S
C241 C240 1.392 . S
C241 H253 0.929 . S
C242 C238 1.531 . S
C242 H254 0.960 . S
C242 H255 0.962 . S
C242 H256 0.960 . S
C243 C240 1.511 . S
C243 H257 0.961 . S
C243 H258 0.961 . S
C243 H259 0.961 . S
C244 C245 1.370 . S
C244 C246 1.363 . S
C244 H260 0.931 . S
C245 C244 1.370 . S
C245 C249 1.408 . S
C246 C244 1.363 . S
C246 C247 1.370 . S
C246 C250 1.524 . S
C247 C239 1.503 . S
C247 C246 1.370 . S
C247 C248 1.403 . S
C248 C247 1.403 . S
C248 C249 1.404 . S
C248 C251 1.539 . S
C249 C245 1.408 . S
C249 C248 1.404 . S
C249 H261 0.930 . S
C250 C246 1.524 . S
C250 H262 0.956 . S
C250 H263 0.961 . S
C250 H264 0.961 . S
C251 C248 1.539 . S
C251 H265 0.958 . S
C251 H266 0.961 . S
C251 H267 0.960 . S
H252 C236 0.931 . S
H253 C241 0.929 . S
H254 C242 0.960 . S
H255 C242 0.962 . S
H256 C242 0.960 . S
H257 C243 0.961 . S
H258 C243 0.961 . S
H259 C243 0.961 . S
H260 C244 0.931 . S
H261 C249 0.930 . S
H262 C250 0.956 . S
H263 C250 0.961 . S
H264 C250 0.961 . S
H265 C251 0.958 . S
H266 C251 0.961 . S
H267 C251 0.960 . S
C268 C269 1.391 . S
C268 C270 1.394 . S
C268 H284 0.931 . S
C269 C268 1.391 . S
C269 C273 1.376 . S
C270 C268 1.394 . S
C270 C271 1.369 . S
C270 C274 1.531 . S
C271 C270 1.369 . S
C271 C272 1.410 . S
C271 C279 1.503 . S
C272 C271 1.410 . S
C272 C273 1.392 . S
C272 C275 1.511 . S
C273 C269 1.376 . S
C273 C272 1.392 . S
C273 H285 0.929 . S
C274 C270 1.531 . S
C274 H286 0.960 . S
C274 H287 0.962 . S
C274 H288 0.960 . S
C275 C272 1.511 . S
C275 H289 0.961 . S
C275 H290 0.961 . S
C275 H291 0.961 . S
C276 C277 1.370 . S
C276 C278 1.363 . S
C276 H292 0.931 . S
C277 C276 1.370 . S
C277 C281 1.408 . S
C278 C276 1.363 . S
C278 C279 1.370 . S
C278 C282 1.524 . S
C279 C271 1.503 . S
C279 C278 1.370 . S
C279 C280 1.403 . S
C280 C279 1.403 . S
C280 C281 1.404 . S
C280 C283 1.539 . S
C281 C277 1.408 . S
C281 C280 1.404 . S
C281 H293 0.930 . S
C282 C278 1.524 . S
C282 H294 0.956 . S
C282 H295 0.961 . S
C282 H296 0.961 . S
C283 C280 1.539 . S
C283 H297 0.958 . S
C283 H298 0.961 . S
C283 H299 0.960 . S
H284 C268 0.931 . S
H285 C273 0.929 . S
H286 C274 0.960 . S
H287 C274 0.962 . S
H288 C274 0.960 . S
H289 C275 0.961 . S
H290 C275 0.961 . S
H291 C275 0.961 . S
H292 C276 0.931 . S
H293 C281 0.930 . S
H294 C282 0.956 . S
H295 C282 0.961 . S
H296 C282 0.961 . S
H297 C283 0.958 . S
H298 C283 0.961 . S
H299 C283 0.960 . S
C300 C301 1.391 1_556 S
C300 C302 1.394 . S
C300 H316 0.931 . S
C301 C300 1.391 1_554 S
C301 C305 1.376 . S
C302 C300 1.394 . S
C302 C303 1.369 . S
C302 C306 1.531 . S
C303 C302 1.369 . S
C303 C304 1.410 1_556 S
C303 C311 1.503 . S
C304 C303 1.410 1_554 S
C304 C305 1.392 . S
C304 C307 1.511 . S
C305 C301 1.376 . S
C305 C304 1.392 . S
C305 H317 0.929 . S
C306 C302 1.531 . S
C306 H318 0.960 . S
C306 H319 0.962 . S
C306 H320 0.960 . S
C307 C304 1.511 . S
C307 H321 0.961 . S
C307 H322 0.961 . S
C307 H323 0.961 . S
C308 C309 1.370 . S
C308 C310 1.363 . S
C308 H324 0.931 . S
C309 C308 1.370 . S
C309 C313 1.408 . S
C310 C308 1.363 . S
C310 C311 1.370 . S
C310 C314 1.524 . S
C311 C303 1.503 . S
C311 C310 1.370 . S
C311 C312 1.403 . S
C312 C311 1.403 . S
C312 C313 1.404 . S
C312 C315 1.539 1_556 S
C313 C309 1.408 . S
C313 C312 1.404 . S
C313 H325 0.930 . S
C314 C310 1.524 . S
C314 H326 0.956 . S
C314 H327 0.961 . S
C314 H328 0.961 . S
C315 C312 1.539 1_554 S
C315 H329 0.958 . S
C315 H330 0.961 . S
C315 H331 0.960 . S
H316 C300 0.931 . S
H317 C305 0.929 . S
H318 C306 0.960 . S
H319 C306 0.962 . S
H320 C306 0.960 . S
H321 C307 0.961 . S
H322 C307 0.961 . S
H323 C307 0.961 . S
H324 C308 0.931 . S
H325 C313 0.930 . S
H326 C314 0.956 . S
H327 C314 0.961 . S
H328 C314 0.961 . S
H329 C315 0.958 . S
H330 C315 0.961 . S
H331 C315 0.960 . S
C332 C333 1.391 . S
C332 C334 1.394 . S
C332 H348 0.931 . S
C333 C332 1.391 . S
C333 C337 1.376 . S
C334 C332 1.394 . S
C334 C335 1.369 1_455 S
C334 C338 1.530 1_455 S
C335 C334 1.369 1_655 S
C335 C336 1.410 1_655 S
C335 C343 1.503 . S
C336 C335 1.410 1_455 S
C336 C337 1.392 . S
C336 C339 1.511 . S
C337 C333 1.376 . S
C337 C336 1.392 . S
C337 H349 0.929 . S
C338 C334 1.530 1_655 S
C338 H350 0.960 . S
C338 H351 0.962 . S
C338 H352 0.960 . S
C339 C336 1.511 . S
C339 H353 0.961 . S
C339 H354 0.961 . S
C339 H355 0.961 . S
C340 C341 1.370 . S
C340 C342 1.363 . S
C340 H356 0.931 . S
C341 C340 1.370 . S
C341 C345 1.408 . S
C342 C340 1.363 . S
C342 C343 1.370 . S
C342 C346 1.524 . S
C343 C335 1.503 . S
C343 C342 1.370 . S
C343 C344 1.403 . S
C344 C343 1.403 . S
C344 C345 1.404 . S
C344 C347 1.539 . S
C345 C341 1.408 . S
C345 C344 1.404 . S
C345 H357 0.930 . S
C346 C342 1.524 . S
C346 H358 0.956 . S
C346 H359 0.961 1_655 S
C346 H360 0.961 . S
C347 C344 1.539 . S
C347 H361 0.958 . S
C347 H362 0.961 . S
C347 H363 0.960 . S
H348 C332 0.931 . S
H349 C337 0.929 . S
H350 C338 0.960 . S
H351 C338 0.962 . S
H352 C338 0.960 . S
H353 C339 0.961 . S
H354 C339 0.961 . S
H355 C339 0.961 . S
H356 C340 0.931 . S
H357 C345 0.930 . S
H358 C346 0.956 . S
H359 C346 0.961 1_455 S
H360 C346 0.961 . S
H361 C347 0.958 . S
H362 C347 0.961 . S
H363 C347 0.960 . S
C364 C365 1.391 . S
C364 C366 1.394 . S
C364 H380 0.931 . S
C365 C364 1.391 . S
C365 C369 1.376 . S
C366 C364 1.394 . S
C366 C367 1.369 . S
C366 C370 1.531 1_556 S
C367 C366 1.369 . S
C367 C368 1.410 . S
C367 C375 1.503 1_546 S
C368 C367 1.410 . S
C368 C369 1.392 . S
C368 C371 1.511 1_545 S
C369 C365 1.376 . S
C369 C368 1.392 . S
C369 H381 0.929 . S
C370 C366 1.531 1_554 S
C370 H382 0.968 . S
C370 H383 0.962 . S
C370 H384 0.960 1_554 S
C371 C368 1.511 1_565 S
C371 H385 0.961 1_565 S
C371 H386 0.961 . S
C371 H387 0.961 . S
C372 C373 1.370 . S
C372 C374 1.363 . S
C372 H388 0.931 . S
C373 C372 1.370 . S
C373 C377 1.408 . S
C374 C372 1.363 . S
C374 C375 1.370 . S
C374 C378 1.524 1_565 S
C375 C367 1.503 1_564 S
C375 C374 1.370 . S
C375 C376 1.403 1_554 S
C376 C375 1.403 1_556 S
C376 C377 1.404 1_556 S
C376 C379 1.539 . S
C377 C373 1.408 . S
C377 C376 1.404 1_554 S
C377 H389 0.930 1_554 S
C378 C374 1.524 1_545 S
C378 H390 0.956 . S
C378 H391 0.961 . S
C378 H392 0.961 . S
C379 C376 1.539 . S
C379 H393 0.958 . S
C379 H394 0.961 . S
C379 H395 0.960 . S
H380 C364 0.931 . S
H381 C369 0.929 . S
H382 C370 0.968 . S
H383 C370 0.962 . S
H384 C370 0.960 1_556 S
H385 C371 0.961 1_545 S
H386 C371 0.961 . S
H387 C371 0.961 . S
H388 C372 0.931 . S
H389 C377 0.930 1_556 S
H390 C378 0.956 . S
H391 C378 0.961 . S
H392 C378 0.961 . S
H393 C379 0.958 . S
H394 C379 0.961 . S
H395 C379 0.960 . S
C396 C397 1.391 . S
C396 C398 1.394 . S
C396 H412 0.931 . S
C397 C396 1.391 . S
C397 C401 1.376 . S
C398 C396 1.394 . S
C398 C399 1.369 . S
C398 C402 1.531 . S
C399 C398 1.369 . S
C399 C400 1.410 . S
C399 C407 1.503 . S
C400 C399 1.410 . S
C400 C401 1.392 . S
C400 C403 1.511 . S
C401 C397 1.376 . S
C401 C400 1.392 . S
C401 H413 0.929 . S
C402 C398 1.531 . S
C402 H414 0.960 . S
C402 H415 0.962 . S
C402 H416 0.960 . S
C403 C400 1.511 . S
C403 H417 0.961 . S
C403 H418 0.961 . S
C403 H419 0.961 . S
C404 C405 1.370 . S
C404 C406 1.363 . S
C404 H420 0.931 . S
C405 C404 1.370 . S
C405 C409 1.408 . S
C406 C404 1.363 . S
C406 C407 1.370 . S
C406 C410 1.524 . S
C407 C399 1.503 . S
C407 C406 1.370 . S
C407 C408 1.403 . S
C408 C407 1.403 . S
C408 C409 1.404 . S
C408 C411 1.539 . S
C409 C405 1.408 . S
C409 C408 1.404 . S
C409 H421 0.930 . S
C410 C406 1.524 . S
C410 H422 0.956 . S
C410 H423 0.961 . S
C410 H424 0.961 . S
C411 C408 1.539 . S
C411 H425 0.958 . S
C411 H426 0.961 . S
C411 H427 0.960 . S
H412 C396 0.931 . S
H413 C401 0.929 . S
H414 C402 0.960 . S
H415 C402 0.962 . S
H416 C402 0.960 . S
H417 C403 0.961 . S
H418 C403 0.961 . S
H419 C403 0.961 . S
H420 C404 0.931 . S
H421 C409 0.930 . S
H422 C410 0.956 . S
H423 C410 0.961 . S
H424 C410 0.961 . S
H425 C411 0.958 . S
H426 C411 0.961 . S
H427 C411 0.960 . S
C428 C429 1.391 . S
C428 C430 1.394 . S
C428 H444 0.931 . S
C429 C428 1.391 . S
C429 C433 1.376 . S
C430 C428 1.394 . S
C430 C431 1.369 . S
C430 C434 1.531 . S
C431 C430 1.369 . S
C431 C432 1.410 . S
C431 C439 1.503 1_455 S
C432 C431 1.410 . S
C432 C433 1.392 . S
C432 C435 1.511 . S
C433 C429 1.376 . S
C433 C432 1.392 . S
C433 H445 0.929 . S
C434 C430 1.531 . S
C434 H446 0.960 1_455 S
C434 H447 0.962 . S
C434 H448 0.960 . S
C435 C432 1.511 . S
C435 H449 0.961 1_554 S
C435 H450 0.961 1_454 S
C435 H451 0.966 . S
C436 C437 1.370 . S
C436 C438 1.363 . S
C436 H452 0.931 . S
C437 C436 1.370 . S
C437 C441 1.408 1_556 S
C438 C436 1.363 . S
C438 C439 1.370 1_556 S
C438 C442 1.524 1_655 S
C439 C431 1.503 1_655 S
C439 C438 1.370 1_554 S
C439 C440 1.403 . S
C440 C439 1.403 . S
C440 C441 1.404 . S
C440 C443 1.539 . S
C441 C437 1.408 1_554 S
C441 C440 1.404 . S
C441 H453 0.930 . S
C442 C438 1.524 1_455 S
C442 H454 0.956 . S
C442 H455 0.961 . S
C442 H456 0.961 . S
C443 C440 1.539 . S
C443 H457 0.958 . S
C443 H458 0.961 . S
C443 H459 0.960 . S
H444 C428 0.931 . S
H445 C433 0.929 . S
H446 C434 0.960 1_655 S
H447 C434 0.962 . S
H448 C434 0.960 . S
H449 C435 0.961 1_556 S
H450 C435 0.961 1_656 S
H451 C435 0.966 . S
H452 C436 0.931 . S
H453 C441 0.930 . S
H454 C442 0.956 . S
H455 C442 0.961 . S
H456 C442 0.961 . S
H457 C443 0.958 . S
H458 C443 0.961 . S
H459 C443 0.960 . S
C460 C461 1.391 . S
C460 C462 1.394 . S
C460 H476 0.931 . S
C461 C460 1.391 . S
C461 C465 1.376 . S
C462 C460 1.394 . S
C462 C463 1.369 . S
C462 C466 1.531 . S
C463 C462 1.369 . S
C463 C464 1.410 . S
C463 C471 1.503 1_545 S
C464 C463 1.410 . S
C464 C465 1.392 . S
C464 C467 1.511 . S
C465 C461 1.376 . S
C465 C464 1.392 . S
C465 H477 0.929 . S
C466 C462 1.531 . S
C466 H478 0.960 1_545 S
C466 H479 0.962 . S
C466 H480 0.960 . S
C467 C464 1.511 . S
C467 H481 0.961 . S
C467 H482 0.959 1_545 S
C467 H483 0.961 . S
C468 C469 1.370 . S
C468 C470 1.363 . S
C468 H484 0.931 . S
C469 C468 1.370 . S
C469 C473 1.408 . S
C470 C468 1.363 . S
C470 C471 1.370 . S
C470 C474 1.524 1_565 S
C471 C463 1.503 1_565 S
C471 C470 1.370 . S
C471 C472 1.403 . S
C472 C471 1.403 . S
C472 C473 1.404 . S
C472 C475 1.539 . S
C473 C469 1.408 . S
C473 C472 1.404 . S
C473 H485 0.930 . S
C474 C470 1.524 1_545 S
C474 H486 0.956 . S
C474 H487 0.961 . S
C474 H488 0.961 . S
C475 C472 1.539 . S
C475 H489 0.958 . S
C475 H490 0.961 . S
C475 H491 0.960 . S
H476 C460 0.931 . S
H477 C465 0.929 . S
H478 C466 0.960 1_565 S
H479 C466 0.962 . S
H480 C466 0.960 . S
H481 C467 0.961 . S
H482 C467 0.959 1_565 S
H483 C467 0.961 . S
H484 C468 0.931 . S
H485 C473 0.930 . S
H486 C474 0.956 . S
H487 C474 0.961 . S
H488 C474 0.961 . S
H489 C475 0.958 . S
H490 C475 0.961 . S
H491 C475 0.960 . S
C237 C5 1.622 . S
C245 C123 1.620 . S
C269 C64 1.614 . S
C277 C182 1.617 . S
C301 C52 1.708 . S
C309 C210 1.737 . S
C333 C121 1.512 . S
C341 C111 1.504 . S
C365 C180 1.384 . S
C373 C3 1.354 . S
C397 C62 1.504 . S
C405 C170 1.504 . S
C429 C33 1.734 . S
C437 C229 1.732 . S
C461 C92 1.937 . S
C469 C151 1.934 . S
