# Generated by pormake.
# Topology umx, (4)-cn, num edge types: 1
# Building blocks:
#     Node 0, Type 0, BuildingBlock: ESEHIV_clean_sbu_0, # of connection points: 4
#     Node 1, Type 0, BuildingBlock: ESEHIV_clean_sbu_0, # of connection points: 4
#     Node 2, Type 0, BuildingBlock: ESEHIV_clean_sbu_0, # of connection points: 4
#     Node 3, Type 0, BuildingBlock: ESEHIV_clean_sbu_0, # of connection points: 4
#     Node 4, Type 0, BuildingBlock: ESEHIV_clean_sbu_0, # of connection points: 4
#     Node 5, Type 0, BuildingBlock: ESEHIV_clean_sbu_0, # of connection points: 4
#     Node 6, Type 0, BuildingBlock: ESEHIV_clean_sbu_0, # of connection points: 4
#     Node 7, Type 0, BuildingBlock: ESEHIV_clean_sbu_0, # of connection points: 4
#     Edge 8, Type (0, 0), BuildingBlock: EZIPEK_clean_linker_0, # of connection points: 2
#     Edge 9, Type (0, 0), BuildingBlock: EZIPEK_clean_linker_0, # of connection points: 2
#     Edge 10, Type (0, 0), BuildingBlock: EZIPEK_clean_linker_0, # of connection points: 2
#     Edge 11, Type (0, 0), BuildingBlock: EZIPEK_clean_linker_0, # of connection points: 2
#     Edge 12, Type (0, 0), BuildingBlock: EZIPEK_clean_linker_0, # of connection points: 2
#     Edge 13, Type (0, 0), BuildingBlock: EZIPEK_clean_linker_0, # of connection points: 2
#     Edge 14, Type (0, 0), BuildingBlock: EZIPEK_clean_linker_0, # of connection points: 2
#     Edge 15, Type (0, 0), BuildingBlock: EZIPEK_clean_linker_0, # of connection points: 2
#     Edge 16, Type (0, 0), BuildingBlock: EZIPEK_clean_linker_0, # of connection points: 2
#     Edge 17, Type (0, 0), BuildingBlock: EZIPEK_clean_linker_0, # of connection points: 2
#     Edge 18, Type (0, 0), BuildingBlock: EZIPEK_clean_linker_0, # of connection points: 2
#     Edge 19, Type (0, 0), BuildingBlock: EZIPEK_clean_linker_0, # of connection points: 2
#     Edge 20, Type (0, 0), BuildingBlock: EZIPEK_clean_linker_0, # of connection points: 2
#     Edge 21, Type (0, 0), BuildingBlock: EZIPEK_clean_linker_0, # of connection points: 2
#     Edge 22, Type (0, 0), BuildingBlock: EZIPEK_clean_linker_0, # of connection points: 2
#     Edge 23, Type (0, 0), BuildingBlock: EZIPEK_clean_linker_0, # of connection points: 2
# Relax obj value: 0.135
# Max RMSD: 0.189
# Mean RMSD: 0.174
data_MOF--net-umx--node1-ESEHIV_clean_sbu_0--edge1-EZIPEK_clean_linker_0
_symmetry_space_group_name_H-M    P1
_symmetry_Int_Tables_number       1
_symmetry_cell_setting            triclinic
loop_
_symmetry_equiv_pos_as_xyz
'x, y, z'
_cell_length_a     27.816243
_cell_length_b     35.231587
_cell_length_c     21.878163
_cell_angle_alpha  87.854974
_cell_angle_beta   90.526042
_cell_angle_gamma 87.770906
loop_
_atom_site_label
_atom_site_type_symbol
_atom_site_fract_x
_atom_site_fract_y
_atom_site_fract_z
_atom_type_partial_charge
Cu0 Cu 0.17117 0.39059 0.10555 0.0
N1 N 0.20769 0.4276 1.06855 0.0
N2 N 0.23739 0.46308 0.99288 0.0
C3 C 0.22262 0.42839 1.01037 0.0
C4 C 0.23209 0.48485 1.0418 0.0
C5 C 0.21362 0.46282 0.08856 0.0
O6 O 0.18914 0.34283 1.06858 0.0
C7 C 0.0651 0.40317 0.11633 0.0
O8 O 0.06054 0.37052 0.14626 0.0
H9 H 0.21807 0.40536 0.97966 0.0
H10 H 0.20126 0.47278 0.13201 0.0
N11 N 0.1919 0.3863 0.18624 0.0
N12 N 0.22056 0.40716 0.27338 0.0
C13 C 0.1881 0.4134 0.22767 0.0
C14 C 0.22758 0.3621 0.20694 0.0
C15 C 0.24524 0.37482 0.261 0.0
C16 C 0.17984 0.31051 0.09257 0.0
O17 O 0.1442 0.30824 0.13121 0.0
H18 H 0.16618 0.43932 0.22091 0.0
H19 H 0.24373 0.33962 0.18093 0.0
O20 O 0.10592 0.41241 0.09615 0.0
H21 H 0.23735 0.51513 1.0419 0.0
H22 H 0.27675 0.36352 0.28592 0.0
Cu23 Cu 0.59872 0.18385 0.57304 0.0
N24 N 0.60639 0.13092 0.5741 0.0
N25 N 0.58568 0.07043 0.57923 0.0
C26 C 0.57055 0.10693 0.58405 0.0
C27 C 0.63274 0.07117 0.56542 0.0
C28 C 0.64549 0.10872 0.56214 0.0
O29 O 0.56399 0.19579 0.6493 0.0
C30 C 0.58735 0.18967 0.44466 0.0
O31 O 0.63172 0.17557 0.44803 0.0
H32 H 0.53381 0.11609 0.59323 0.0
H33 H 0.68042 0.1191 0.55042 0.0
N34 N 0.65864 0.20664 0.57596 0.0
N35 N 0.71508 0.25018 0.57013 0.0
C36 C 0.66998 0.24138 0.55359 0.0
C37 C 0.69802 0.19316 0.60722 0.0
C38 C 0.7328 0.21993 0.60377 0.0
C39 C 0.58141 0.18112 0.69971 0.0
O40 O 0.62062 0.15924 0.69816 0.0
H41 H 0.64525 0.26034 0.52756 0.0
H42 H 0.70084 0.16616 0.63236 0.0
O43 O 0.56549 0.19744 0.49428 0.0
H44 H 0.65572 0.04646 0.55701 0.0
H45 H 0.76806 0.21777 0.6253 0.0
Cu46 Cu 0.88129 0.60146 0.07755 0.0
N47 N 0.89735 0.61923 1.00012 0.0
N48 N 0.88999 0.61173 0.90006 0.0
C49 C 0.86707 0.61357 0.95364 0.0
C50 C 0.93655 0.61778 0.91272 0.0
C51 C 0.94105 0.62252 0.97495 0.0
O52 O 0.81285 0.61331 0.08826 0.0
C53 C 0.94439 0.5378 0.08594 0.0
O54 O 0.97543 0.56493 0.08589 0.0
H55 H 0.83095 0.60398 0.96051 0.0
H56 H 0.97443 0.62291 1.00058 0.0
N57 N 0.91217 0.62366 0.14165 0.0
N58 N 0.92067 0.62426 0.24306 0.0
C59 C 0.91697 0.60291 0.19382 0.0
C60 C 0.91381 0.66012 0.15777 0.0
C61 C 0.91927 0.66058 0.22082 0.0
C62 C 0.79834 0.64756 0.07568 0.0
O63 O 0.82888 0.67204 1.05405 0.0
H64 H 0.91006 0.57293 0.19662 0.0
H65 H 0.90572 0.6845 0.12741 0.0
O66 O 0.89945 0.54681 0.08246 0.0
H67 H 0.96583 0.6141 0.88096 0.0
H68 H 0.91744 0.68551 0.24825 0.0
Cu69 Cu 0.42112 0.83941 0.61633 0.0
N70 N 0.42447 0.89222 0.60685 0.0
N71 N 0.45664 0.94913 0.59692 0.0
C72 C 0.46452 0.91212 0.61329 0.0
C73 C 0.41014 0.95279 0.5792 0.0
C74 C 0.3904 0.91754 0.58507 0.0
O75 O 0.45425 0.82336 0.69375 0.0
C76 C 0.42231 0.82596 0.49084 0.0
O77 O 0.37991 0.84342 0.49468 0.0
H78 H 0.49914 0.8995 0.62745 0.0
H79 H 0.35439 0.91061 0.57167 0.0
N80 N 0.35761 0.82464 0.62485 0.0
N81 N 0.29635 0.78611 0.63573 0.0
C82 C 0.34296 0.78886 0.62063 0.0
C83 C 0.31889 0.84505 0.64376 0.0
C84 C 0.28085 0.82125 0.65036 0.0
C85 C 0.43806 0.83829 0.74232 0.0
O86 O 0.40257 0.86393 0.73744 0.0
H87 H 0.36645 0.76502 0.60907 0.0
H88 H 0.31882 0.87469 0.65482 0.0
O89 O 0.44714 0.81911 0.5399 0.0
H90 H 0.39243 0.97877 0.56107 0.0
H91 H 0.24526 0.82872 0.66678 0.0
Cu92 Cu 0.21549 0.56778 0.59215 0.0
N93 N 0.2469 0.53944 0.65527 0.0
N94 N 0.26533 0.51245 0.74645 0.0
C95 C 0.23973 0.54048 0.7159 0.0
C96 C 0.28997 0.4933 0.70405 0.0
C97 C 0.27865 0.51013 0.64775 0.0
O98 O 0.22358 0.62167 0.59998 0.0
C99 C 0.1236 0.53558 0.62069 0.0
O100 O 0.13814 0.53222 0.67787 0.0
H101 H 0.21396 0.55956 0.73696 0.0
H102 H 0.29087 0.50041 0.60407 0.0
N103 N 0.24648 0.55459 0.52147 0.0
N104 N 0.26261 0.51961 0.44153 0.0
C105 C 0.22875 0.53117 0.48082 0.0
C106 C 0.29301 0.55855 0.50695 0.0
C107 C 0.30322 0.53663 0.45737 0.0
C108 C 0.20946 0.64165 0.64394 0.0
O109 O 0.18371 0.62667 0.68798 0.0
H110 H 0.19291 0.52028 0.48303 0.0
H111 H 0.31841 0.57387 0.53336 0.0
O112 O 0.14935 0.55234 0.58097 0.0
H113 H 0.31213 0.46771 0.71296 0.0
H114 H 0.33807 0.53179 0.43681 0.0
Cu115 Cu 0.49 0.17926 1.0721 0.0
N116 N 0.47351 0.12821 0.07408 0.0
N117 N 0.48279 0.06504 0.08438 0.0
C118 C 0.50234 0.09869 0.09458 0.0
C119 C 0.44026 0.07347 1.05617 0.0
C120 C 0.43474 0.11252 1.04951 0.0
O121 O 0.52517 0.18767 0.99474 0.0
C122 C 0.50274 0.18495 0.19948 0.0
O123 O 0.4566 0.17835 0.19738 0.0
H124 H 0.53765 0.10173 0.11461 0.0
H125 H 0.40558 0.12816 1.02581 0.0
N126 N 0.43598 0.21293 1.06972 0.0
N127 N 0.36197 0.23994 1.07122 0.0
C128 C 0.38841 0.20687 0.0741 0.0
C129 C 0.43923 0.25089 1.06355 0.0
C130 C 0.39375 0.26761 1.06448 0.0
C131 C 0.50102 0.18795 0.94453 0.0
O132 O 0.45442 0.18353 0.94677 0.0
H133 H 0.37339 0.17919 0.08066 0.0
H134 H 0.47266 0.26538 1.05902 0.0
O135 O 0.52586 0.18724 0.14911 0.0
H136 H 0.41601 0.05282 1.03945 0.0
H137 H 0.38454 0.29776 1.0608 0.0
Cu138 Cu 0.84569 0.46231 0.56985 0.0
N139 N 0.81735 0.49158 0.62877 0.0
N140 N 0.81344 0.53253 0.70318 0.0
C141 C 0.84226 0.50976 0.67061 0.0
C142 C 0.76842 0.52864 0.68172 0.0
C143 C 0.77102 0.5033 0.63496 0.0
O144 O 0.82031 0.41136 0.57632 0.0
C145 C 0.94761 0.46572 0.54572 0.0
O146 O 0.93774 0.45633 0.4896 0.0
H147 H 0.8809 0.50676 0.67678 0.0
H148 H 0.74156 0.49461 0.60677 0.0
N149 N 0.83101 0.48811 0.49621 0.0
N150 N 0.83913 0.53213 0.42201 0.0
C151 C 0.85201 0.52038 0.47909 0.0
C152 C 0.80191 0.48 0.44932 0.0
C153 C 0.80743 0.50704 0.40279 0.0
C154 C 0.81759 0.38846 0.53281 0.0
O155 O 0.83627 0.39741 0.47953 0.0
H156 H 0.87781 0.53414 0.50717 0.0
H157 H 0.77963 0.45557 0.44807 0.0
O158 O 0.91478 0.46539 0.58589 0.0
H159 H 0.73639 0.54299 0.69864 0.0
H160 H 0.79174 0.5071 0.35732 0.0
Cu161 Cu 0.51335 0.805 0.12073 0.0
N162 N 0.5467 0.84981 0.12375 0.0
N163 N 0.55467 0.91255 0.12144 0.0
C164 C 0.52528 0.88409 0.1108 0.0
C165 C 0.59641 0.89586 0.14221 0.0
C166 C 0.59132 0.85687 0.14379 0.0
O167 O 0.47982 0.80755 1.04059 0.0
C168 C 0.49635 0.80199 0.24612 0.0
O169 O 0.54344 0.79755 0.24599 0.0
H170 H 0.48827 0.88814 0.09539 0.0
H171 H 0.61764 0.83542 0.16024 0.0
N172 N 0.55235 0.76041 0.12445 0.0
N173 N 0.6121 0.71666 0.11805 0.0
C174 C 0.59966 0.75416 0.11375 0.0
C175 C 0.5348 0.72578 0.13574 0.0
C176 C 0.57151 0.69872 0.13164 0.0
C177 C 0.50636 0.81094 0.99329 0.0
O178 O 0.5532 0.8118 1.00088 0.0
H179 H 0.62413 0.77626 0.10147 0.0
H180 H 0.49748 0.72063 0.14525 0.0
O181 O 0.47357 0.80472 0.19486 0.0
H182 H 0.62765 0.9108 0.15639 0.0
H183 H 0.56872 0.66824 0.13751 0.0
C184 C 0.25522 0.46864 0.29458 0.0
C185 C 0.23509 0.4344 0.31618 0.0
C186 C 0.24536 0.4533 0.42131 0.0
C187 C 0.25763 0.48994 0.39917 0.0
N188 N 0.26911 0.53438 0.31487 0.0
N189 N 0.20716 0.39466 0.39899 0.0
C190 C 0.26149 0.49814 0.33574 0.0
C191 C 0.22932 0.42673 0.3794 0.0
N192 N 0.2699 0.47224 0.23537 0.0
N193 N 0.2504 0.44379 0.48216 0.0
H194 H 0.195 0.37477 0.36886 0.0
H195 H 0.19757 0.3893 0.44431 0.0
H196 H 0.26416 0.46234 0.51336 0.0
H197 H 0.24573 0.41649 0.50048 0.0
H198 H 0.28837 0.49545 0.21828 0.0
H199 H 0.26825 0.45008 0.20525 0.0
H200 H 0.26733 0.54278 0.26871 0.0
H201 H 0.27327 0.55674 0.34413 0.0
C202 C 0.54035 0.15142 0.79032 0.0
C203 C 0.55667 0.18481 0.75996 0.0
C204 C 0.53684 0.2211 0.85147 0.0
C205 C 0.52469 0.18695 0.88336 0.0
N206 N 0.52157 0.11873 0.88629 0.0
N207 N 0.57578 0.25077 0.7637 0.0
C208 C 0.52841 0.15187 0.85355 0.0
C209 C 0.55615 0.21958 0.79103 0.0
N210 N 0.53458 0.11947 0.75786 0.0
N211 N 0.52876 0.25509 0.87843 0.0
H212 H 0.5891 0.25089 0.71927 0.0
H213 H 0.58161 0.27574 0.78617 0.0
H214 H 0.51632 0.25703 0.92311 0.0
H215 H 0.53152 0.28133 0.85548 0.0
H216 H 0.51829 0.09532 0.7753 0.0
H217 H 0.54174 0.11846 0.71124 0.0
H218 H 0.52882 0.0919 0.86938 0.0
H219 H 0.51272 0.11802 0.93254 0.0
C220 C 0.84682 0.59708 0.37806 0.0
C221 C 0.86436 0.55891 0.38462 0.0
C222 C 0.93307 0.5738 0.32103 0.0
C223 C 0.91016 0.60896 0.30329 0.0
N224 N 0.84767 0.65586 0.31508 0.0
N225 N 0.92192 0.50944 0.35848 0.0
C226 C 0.86811 0.6216 0.33348 0.0
C227 C 0.90734 0.54692 0.35571 0.0
N228 N 0.80963 0.60916 0.41364 0.0
N229 N 0.97865 0.56586 0.3015 0.0
H230 H 0.90332 0.48882 0.38292 0.0
H231 H 0.95044 0.49845 0.33323 0.0
H232 H 0.99736 0.58572 0.27533 0.0
H233 H 0.99899 0.54167 0.31597 0.0
H234 H 0.79756 0.63741 0.4156 0.0
H235 H 0.7931 0.5909 0.44493 0.0
H236 H 0.81506 0.667 0.33097 0.0
H237 H 0.81506 0.667 0.33097 0.0
C238 C 0.46601 0.78764 0.89793 0.0
C239 C 0.486 0.81774 0.93005 0.0
C240 C 0.48289 0.8579 0.83527 0.0
C241 C 0.45926 0.82905 0.80444 0.0
N242 N 0.42293 0.76807 0.8078 0.0
N243 N 0.50669 0.88347 0.93198 0.0
C244 C 0.44949 0.79426 0.83611 0.0
C245 C 0.49261 0.8534 0.89932 0.0
N246 N 0.46433 0.75236 0.92583 0.0
N247 N 0.49727 0.88929 0.80269 0.0
H248 H 0.51359 0.88138 0.97893 0.0
H249 H 0.50733 0.91122 0.91402 0.0
H250 H 0.49126 0.89325 0.7557 0.0
H251 H 0.51896 0.90963 0.82073 0.0
H252 H 0.45542 0.72816 0.90303 0.0
H253 H 0.47501 0.74676 0.97122 0.0
H254 H 0.40953 0.74423 0.83032 0.0
H255 H 0.41167 0.7714 0.76224 0.0
C256 C 0.83936 0.59251 0.74481 0.0
C257 C 0.82878 0.55375 0.75381 0.0
C258 C 0.86441 0.55235 0.85605 0.0
C259 C 0.87207 0.59187 0.849 0.0
N260 N 0.86284 0.65083 0.79095 0.0
N261 N 0.82379 0.49791 0.81913 0.0
C262 C 0.85843 0.61236 0.7944 0.0
C263 C 0.83908 0.53405 0.80997 0.0
N264 N 0.8324 0.60973 0.68831 0.0
N265 N 0.88277 0.5322 0.90606 0.0
H266 H 0.80519 0.48391 0.78561 0.0
H267 H 0.82582 0.48304 0.86115 0.0
H268 H 0.90165 0.54474 0.94071 0.0
H269 H 0.88288 0.5027 0.91098 0.0
H270 H 0.84362 0.63687 0.67664 0.0
H271 H 0.81759 0.59574 0.65181 0.0
H272 H 0.8495 0.66826 0.75472 0.0
H273 H 0.87764 0.66561 0.8266 0.0
C274 C 0.457 0.84385 0.3236 0.0
C275 C 0.47206 0.80688 0.30623 0.0
C276 C 0.45324 0.78156 0.40981 0.0
C277 C 0.4422 0.81904 0.42856 0.0
N278 N 0.44168 0.88661 0.40622 0.0
N279 N 0.48912 0.74084 0.33383 0.0
C280 C 0.446 0.85037 0.38605 0.0
C281 C 0.47155 0.77583 0.34977 0.0
N282 N 0.45344 0.87295 0.28044 0.0
N283 N 0.44434 0.75132 0.44845 0.0
H284 H 0.49974 0.73498 0.28943 0.0
H285 H 0.49549 0.71815 0.36509 0.0
H286 H 0.43131 0.75443 0.49261 0.0
H287 H 0.44642 0.72319 0.43545 0.0
H288 H 0.43755 0.89951 0.28849 0.0
H289 H 0.46291 0.86978 0.23487 0.0
H290 H 0.44933 0.91067 0.37954 0.0
H291 H 0.43495 0.89263 0.45172 0.0
C292 C 0.29012 0.48924 0.91305 0.0
C293 C 0.24452 0.4766 0.93113 0.0
C294 C 0.21498 0.48385 0.82603 0.0
C295 C 0.25882 0.49997 0.80882 0.0
N296 N 0.33628 0.52252 0.83555 0.0
N297 N 0.16023 0.47073 0.90848 0.0
C298 C 0.29601 0.50397 0.85232 0.0
C299 C 0.20588 0.47648 0.88863 0.0
N300 N 0.32783 0.48603 0.95351 0.0
N301 N 0.18304 0.47408 0.78217 0.0
H302 H 0.15192 0.46706 0.95465 0.0
H303 H 0.13005 0.47369 0.87987 0.0
H304 H 0.19028 0.47722 0.73568 0.0
H305 H 0.15223 0.45915 0.7918 0.0
H306 H 0.36313 0.49149 0.94167 0.0
H307 H 0.3242 0.47514 0.99816 0.0
H308 H 0.36299 0.52952 0.86634 0.0
H309 H 0.34116 0.53334 0.79108 0.0
C310 C 0.57063 0.22054 0.3396 0.0
C311 C 0.56215 0.19089 0.38367 0.0
C312 C 0.52245 0.15531 0.30391 0.0
C313 C 0.52694 0.18637 0.2611 0.0
N314 N 0.54928 0.25101 0.24092 0.0
N315 N 0.52384 0.13246 0.41005 0.0
C316 C 0.54962 0.21964 0.27961 0.0
C317 C 0.53598 0.15911 0.36645 0.0
N318 N 0.59942 0.24936 0.35487 0.0
N319 N 0.50751 0.12132 0.28401 0.0
H320 H 0.53391 0.13382 0.45593 0.0
H321 H 0.50039 0.11084 0.40192 0.0
H322 H 0.49916 0.11695 0.23831 0.0
H323 H 0.50816 0.09641 0.31121 0.0
H324 H 0.61182 0.26939 0.32321 0.0
H325 H 0.61329 0.25191 0.39895 0.0
H326 H 0.56032 0.27746 0.25389 0.0
H327 H 0.53454 0.2514 0.1969 0.0
C328 C 0.99152 0.48399 1.03961 0.0
C329 C 0.96341 0.49761 0.08863 0.0
C330 C 0.99579 0.44484 0.15534 0.0
C331 C 0.02352 0.43097 0.10587 0.0
N332 N 0.03508 0.43044 0.99691 0.0
N333 N 0.92846 0.48512 0.1873 0.0
C334 C 1.01701 0.4483 1.04661 0.0
C335 C 0.96174 0.47578 0.14433 0.0
N336 N 0.99568 0.50585 0.98715 0.0
N337 N 1.00445 0.43081 0.21364 0.0
H338 H 0.90313 0.50747 0.18045 0.0
H339 H 0.9227 0.46832 0.22655 0.0
H340 H 0.02959 0.40891 0.22457 0.0
H341 H 0.98951 0.44306 0.25206 0.0
H342 H 1.02014 0.49943 0.95291 0.0
H343 H 0.97718 0.53193 0.97977 0.0
H344 H 0.02804 0.44005 0.95199 0.0
H345 H 0.05273 0.40374 1.00051 0.0
C346 C 0.50805 0.99062 0.53451 0.0
C347 C 0.4918 0.97805 0.59274 0.0
C348 C 0.54377 0.02276 0.64206 0.0
C349 C 0.55616 0.03783 0.58368 0.0
N350 N 0.54747 0.03941 0.47431 0.0
N351 N 0.4902 0.9834 0.7018 0.0
C352 C 0.53772 0.02252 0.52979 0.0
C353 C 0.50886 0.99432 0.64665 0.0
N354 N 0.49605 0.9712 0.4841 0.0
N355 N 0.56615 0.03547 0.69274 0.0
H356 H 0.46453 0.96267 0.70607 0.0
H357 H 0.49757 0.99642 0.74257 0.0
H358 H 0.59179 0.05631 0.69001 0.0
H359 H 0.56209 0.0237 0.73664 0.0
H360 H 0.51013 0.97651 0.44083 0.0
H361 H 0.47487 0.94745 0.48674 0.0
H362 H 0.53108 0.03241 0.43351 0.0
H363 H 0.56983 0.06241 0.46965 0.0
C364 C 0.04415 0.53821 0.56462 0.0
C365 C 0.07895 0.51722 0.60103 0.0
C366 C 0.02733 0.46202 0.60203 0.0
C367 C 0.99478 0.48197 0.56094 0.0
N368 N 0.97941 0.53601 0.49108 0.0
N369 N 0.10926 0.45579 0.64043 0.0
C370 C 1.00548 0.51907 0.53836 0.0
C371 C 0.07208 0.47817 0.6162 0.0
N372 N 0.04665 0.57679 0.5572 0.0
N373 N 1.01584 0.42749 0.62711 0.0
H374 H 0.14362 0.46573 0.64712 0.0
H375 H 0.10764 0.42644 0.64719 0.0
H376 H 0.9848 0.41372 0.61502 0.0
H377 H 0.03562 0.41373 0.66266 0.0
H378 H 1.01935 0.59396 0.53642 0.0
H379 H 0.07339 0.59218 0.57749 0.0
H380 H 0.98868 0.56136 0.46897 0.0
H381 H 0.95186 0.52263 0.4694 0.0
C382 C 0.54736 0.97118 1.05665 0.0
C383 C 0.542 0.9525 0.11443 0.0
C384 C 0.50224 0.00977 0.15418 0.0
C385 C 0.50485 0.02767 0.09531 0.0
N386 N 0.52983 0.02733 0.99064 0.0
N387 N 0.51442 0.95195 0.21796 0.0
C388 C 0.5277 0.00889 1.04656 0.0
C389 C 0.51986 0.97143 0.16343 0.0
N390 N 0.57132 0.95242 1.01185 0.0
N391 N 0.48266 0.02974 0.20082 0.0
H392 H 0.52828 0.92425 0.22591 0.0
H393 H 0.49517 0.96234 0.25468 0.0
H394 H 0.46777 0.05723 0.19416 0.0
H395 H 0.48264 0.02007 0.2463 0.0
H396 H 0.57869 0.96412 0.96881 0.0
H397 H 0.5857 0.92477 1.01874 0.0
H398 H 0.54313 0.01522 0.95133 0.0
H399 H 0.51713 0.05535 0.98317 0.0
C400 C 0.24126 0.26201 0.13929 0.0
C401 C 0.21684 0.27881 0.08657 0.0
C402 C 0.28402 0.25829 1.02194 0.0
C403 C 0.31051 0.24605 0.07504 0.0
N404 N 0.31233 0.22747 0.18158 0.0
N405 N 0.20749 0.28161 0.97735 0.0
C406 C 0.28812 0.24472 0.1328 0.0
C407 C 0.2359 0.27296 1.02761 0.0
N408 N 0.22143 0.26471 0.19598 0.0
N409 N 0.306 0.25712 0.96645 0.0
H410 H 0.17178 0.29147 0.98118 0.0
H411 H 0.21743 0.27604 0.93275 0.0
H412 H 0.34033 0.24467 0.96135 0.0
H413 H 0.29123 0.26925 0.9261 0.0
H414 H 0.2404 0.25929 0.23675 0.0
H415 H 0.18567 0.27257 0.20328 0.0
H416 H 0.297 0.22167 0.22391 0.0
H417 H 0.3475 0.21648 0.17865 0.0
C418 C 0.74362 0.35421 0.56661 0.0
C419 C 0.79054 0.35286 0.5411 0.0
C420 C 0.78284 0.28469 0.52519 0.0
C421 C 0.7392 0.28524 0.55801 0.0
N422 N 0.68296 0.31922 0.62092 0.0
N423 N 0.85837 0.31473 0.50645 0.0
C424 C 0.72087 0.31967 0.58175 0.0
C425 C 0.81113 0.31752 0.52294 0.0
N426 N 0.71968 0.38834 0.57381 0.0
N427 N 0.79661 0.25296 0.49487 0.0
H428 H 0.88103 0.3376 0.50679 0.0
H429 H 0.87635 0.28891 0.49856 0.0
H430 H 0.77592 0.22889 0.49458 0.0
H431 H 0.82571 0.25197 0.46526 0.0
H432 H 0.68377 0.39061 0.58682 0.0
H433 H 0.7337 0.41432 0.56029 0.0
H434 H 0.67118 0.34293 0.64451 0.0
H435 H 0.66644 0.29428 0.63458 0.0
C436 C 0.73298 0.66689 0.14796 0.0
C437 C 0.74821 0.66114 0.08709 0.0
C438 C 0.67397 0.69344 1.04689 0.0
C439 C 0.65847 0.69857 0.10758 0.0
N440 N 0.66895 0.68731 0.2158 0.0
N441 N 0.7315 0.66369 0.97879 0.0
C442 C 0.68673 0.68421 0.1581 0.0
C443 C 0.71817 0.67302 1.03653 0.0
N444 N 0.76372 0.65754 0.1958 0.0
N445 N 0.64621 0.7084 0.99936 0.0
H446 H 0.76339 0.64846 0.96991 0.0
H447 H 0.70983 0.66844 0.94007 0.0
H448 H 0.61251 0.72161 1.00569 0.0
H449 H 0.6571 0.70948 0.95401 0.0
H450 H 0.75702 0.66451 0.24075 0.0
H451 H 0.79756 0.64438 0.19034 0.0
H452 H 0.68463 0.67387 0.25461 0.0
H453 H 0.63667 0.70207 0.22461 0.0
C454 C 0.27918 0.72662 0.69264 0.0
C455 C 0.27031 0.75172 0.64147 0.0
C456 C 0.21299 0.70808 0.60001 0.0
C457 C 0.22641 0.68088 0.64722 0.0
N458 N 0.27626 0.66228 0.7352 0.0
N459 N 0.23228 0.76637 0.54419 0.0
C460 C 0.26018 0.68973 0.69321 0.0
C461 C 0.23782 0.74258 0.5947 0.0
N462 N 0.30549 0.73847 0.74086 0.0
N463 N 0.17589 0.70112 0.5611 0.0
H464 H 0.24976 0.79199 0.53976 0.0
H465 H 0.21313 0.7597 0.50519 0.0
H466 H 0.1567 0.67626 0.56436 0.0
H467 H 0.16137 0.72113 0.52919 0.0
H468 H 0.30963 0.72313 0.7823 0.0
H469 H 0.31985 0.76539 0.74117 0.0
H470 H 0.30481 0.66576 0.7653 0.0
H471 H 0.26354 0.63483 0.73718 0.0
loop_
_geom_bond_atom_site_label_1
_geom_bond_atom_site_label_2
_geom_bond_distance
_geom_bond_site_symmetry_2
_ccdc_geom_bond_type
Cu0 N1 1.999 1_554 S
Cu0 O6 1.974 . S
Cu0 N11 1.985 . S
Cu0 O20 1.959 . S
N1 Cu0 1.999 1_556 S
N1 C3 1.263 . S
N1 C5 1.389 . S
N2 C3 1.358 . S
N2 C4 1.400 . S
C3 N1 1.263 . S
C3 N2 1.358 . S
C3 H9 0.930 . S
C4 N2 1.400 . S
C4 C5 1.351 . S
C4 H21 0.930 . S
C5 N1 1.389 . S
C5 C4 1.351 . S
C5 H10 0.930 . S
O6 Cu0 1.974 . S
O6 C16 1.282 . S
C7 O8 1.261 . S
C7 O20 1.251 . S
O8 C7 1.261 . S
H9 C3 0.930 . S
H10 C5 0.930 . S
N11 Cu0 1.985 . S
N11 C13 1.335 . S
N11 C14 1.390 . S
N12 C13 1.345 . S
N12 C15 1.336 . S
C13 N11 1.335 . S
C13 N12 1.345 . S
C13 H18 0.930 . S
C14 N11 1.390 . S
C14 C15 1.346 . S
C14 H19 0.930 . S
C15 N12 1.336 . S
C15 C14 1.346 . S
C15 H22 0.929 . S
C16 O6 1.282 . S
C16 O17 1.216 . S
O17 C16 1.216 . S
H18 C13 0.930 . S
H19 C14 0.930 . S
O20 Cu0 1.959 . S
O20 C7 1.251 . S
H21 C4 0.930 . S
H22 C15 0.929 . S
Cu23 N24 1.999 . S
Cu23 O29 1.974 . S
Cu23 N34 1.985 . S
Cu23 O43 1.959 . S
N24 Cu23 1.999 . S
N24 C26 1.263 . S
N24 C28 1.389 . S
N25 C26 1.358 . S
N25 C27 1.400 . S
C26 N24 1.263 . S
C26 N25 1.358 . S
C26 H32 0.930 . S
C27 N25 1.400 . S
C27 C28 1.351 . S
C27 H44 0.930 . S
C28 N24 1.389 . S
C28 C27 1.351 . S
C28 H33 0.930 . S
O29 Cu23 1.974 . S
O29 C39 1.282 . S
C30 O31 1.261 . S
C30 O43 1.251 . S
O31 C30 1.261 . S
H32 C26 0.930 . S
H33 C28 0.930 . S
N34 Cu23 1.985 . S
N34 C36 1.335 . S
N34 C37 1.390 . S
N35 C36 1.345 . S
N35 C38 1.336 . S
C36 N34 1.335 . S
C36 N35 1.345 . S
C36 H41 0.930 . S
C37 N34 1.390 . S
C37 C38 1.346 . S
C37 H42 0.930 . S
C38 N35 1.336 . S
C38 C37 1.346 . S
C38 H45 0.929 . S
C39 O29 1.282 . S
C39 O40 1.216 . S
O40 C39 1.216 . S
H41 C36 0.930 . S
H42 C37 0.930 . S
O43 Cu23 1.959 . S
O43 C30 1.251 . S
H44 C27 0.930 . S
H45 C38 0.929 . S
Cu46 N47 1.999 1_554 S
Cu46 O52 1.974 . S
Cu46 N57 1.985 . S
Cu46 O66 1.959 . S
N47 Cu46 1.999 1_556 S
N47 C49 1.263 . S
N47 C51 1.389 . S
N48 C49 1.358 . S
N48 C50 1.400 . S
C49 N47 1.263 . S
C49 N48 1.358 . S
C49 H55 0.930 . S
C50 N48 1.400 . S
C50 C51 1.351 . S
C50 H67 0.930 . S
C51 N47 1.389 . S
C51 C50 1.351 . S
C51 H56 0.930 . S
O52 Cu46 1.974 . S
O52 C62 1.282 . S
C53 O54 1.261 . S
C53 O66 1.251 . S
O54 C53 1.261 . S
H55 C49 0.930 . S
H56 C51 0.930 . S
N57 Cu46 1.985 . S
N57 C59 1.335 . S
N57 C60 1.390 . S
N58 C59 1.345 . S
N58 C61 1.336 . S
C59 N57 1.335 . S
C59 N58 1.345 . S
C59 H64 0.930 . S
C60 N57 1.390 . S
C60 C61 1.346 . S
C60 H65 0.930 . S
C61 N58 1.336 . S
C61 C60 1.346 . S
C61 H68 0.929 . S
C62 O52 1.282 . S
C62 O63 1.216 . S
O63 C62 1.216 . S
H64 C59 0.930 . S
H65 C60 0.930 . S
O66 Cu46 1.959 . S
O66 C53 1.251 . S
H67 C50 0.930 . S
H68 C61 0.929 . S
Cu69 N70 1.999 . S
Cu69 O75 1.974 . S
Cu69 N80 1.985 . S
Cu69 O89 1.959 . S
N70 Cu69 1.999 . S
N70 C72 1.263 . S
N70 C74 1.389 . S
N71 C72 1.358 . S
N71 C73 1.400 . S
C72 N70 1.263 . S
C72 N71 1.358 . S
C72 H78 0.930 . S
C73 N71 1.400 . S
C73 C74 1.351 . S
C73 H90 0.930 . S
C74 N70 1.389 . S
C74 C73 1.351 . S
C74 H79 0.930 . S
O75 Cu69 1.974 . S
O75 C85 1.282 . S
C76 O77 1.261 . S
C76 O89 1.251 . S
O77 C76 1.261 . S
H78 C72 0.930 . S
H79 C74 0.930 . S
N80 Cu69 1.985 . S
N80 C82 1.335 . S
N80 C83 1.390 . S
N81 C82 1.345 . S
N81 C84 1.336 . S
C82 N80 1.335 . S
C82 N81 1.345 . S
C82 H87 0.930 . S
C83 N80 1.390 . S
C83 C84 1.346 . S
C83 H88 0.930 . S
C84 N81 1.336 . S
C84 C83 1.346 . S
C84 H91 0.929 . S
C85 O75 1.282 . S
C85 O86 1.216 . S
O86 C85 1.216 . S
H87 C82 0.930 . S
H88 C83 0.930 . S
O89 Cu69 1.959 . S
O89 C76 1.251 . S
H90 C73 0.930 . S
H91 C84 0.929 . S
Cu92 N93 1.999 . S
Cu92 O98 1.974 . S
Cu92 N103 1.985 . S
Cu92 O112 1.959 . S
N93 Cu92 1.999 . S
N93 C95 1.263 . S
N93 C97 1.389 . S
N94 C95 1.358 . S
N94 C96 1.400 . S
C95 N93 1.263 . S
C95 N94 1.358 . S
C95 H101 0.930 . S
C96 N94 1.400 . S
C96 C97 1.351 . S
C96 H113 0.930 . S
C97 N93 1.389 . S
C97 C96 1.351 . S
C97 H102 0.930 . S
O98 Cu92 1.974 . S
O98 C108 1.282 . S
C99 O100 1.261 . S
C99 O112 1.251 . S
O100 C99 1.261 . S
H101 C95 0.930 . S
H102 C97 0.930 . S
N103 Cu92 1.985 . S
N103 C105 1.335 . S
N103 C106 1.390 . S
N104 C105 1.345 . S
N104 C107 1.336 . S
C105 N103 1.335 . S
C105 N104 1.345 . S
C105 H110 0.930 . S
C106 N103 1.390 . S
C106 C107 1.346 . S
C106 H111 0.930 . S
C107 N104 1.336 . S
C107 C106 1.346 . S
C107 H114 0.929 . S
C108 O98 1.282 . S
C108 O109 1.216 . S
O109 C108 1.216 . S
H110 C105 0.930 . S
H111 C106 0.930 . S
O112 Cu92 1.959 . S
O112 C99 1.251 . S
H113 C96 0.930 . S
H114 C107 0.929 . S
Cu115 N116 1.999 . S
Cu115 O121 1.974 1_554 S
Cu115 N126 1.985 . S
Cu115 O135 1.959 . S
N116 Cu115 1.999 . S
N116 C118 1.263 1_554 S
N116 C120 1.389 . S
N117 C118 1.358 . S
N117 C119 1.400 1_556 S
C118 N116 1.263 1_556 S
C118 N117 1.358 . S
C118 H124 0.930 . S
C119 N117 1.400 1_554 S
C119 C120 1.351 . S
C119 H136 0.930 . S
C120 N116 1.389 . S
C120 C119 1.351 . S
C120 H125 0.930 . S
O121 Cu115 1.974 1_556 S
O121 C131 1.282 . S
C122 O123 1.261 . S
C122 O135 1.251 . S
O123 C122 1.261 . S
H124 C118 0.930 . S
H125 C120 0.930 . S
N126 Cu115 1.985 . S
N126 C128 1.335 . S
N126 C129 1.390 1_554 S
N127 C128 1.345 . S
N127 C130 1.336 1_554 S
C128 N126 1.335 . S
C128 N127 1.345 . S
C128 H133 0.930 . S
C129 N126 1.390 1_556 S
C129 C130 1.346 . S
C129 H134 0.930 . S
C130 N127 1.336 1_556 S
C130 C129 1.346 . S
C130 H137 0.929 . S
C131 O121 1.282 . S
C131 O132 1.216 . S
O132 C131 1.216 . S
H133 C128 0.930 . S
H134 C129 0.930 . S
O135 Cu115 1.959 . S
O135 C122 1.251 . S
H136 C119 0.930 . S
H137 C130 0.929 . S
Cu138 N139 1.999 . S
Cu138 O144 1.974 . S
Cu138 N149 1.985 . S
Cu138 O158 1.959 . S
N139 Cu138 1.999 . S
N139 C141 1.263 . S
N139 C143 1.389 . S
N140 C141 1.358 . S
N140 C142 1.400 . S
C141 N139 1.263 . S
C141 N140 1.358 . S
C141 H147 0.930 . S
C142 N140 1.400 . S
C142 C143 1.351 . S
C142 H159 0.930 . S
C143 N139 1.389 . S
C143 C142 1.351 . S
C143 H148 0.930 . S
O144 Cu138 1.974 . S
O144 C154 1.282 . S
C145 O146 1.261 . S
C145 O158 1.251 . S
O146 C145 1.261 . S
H147 C141 0.930 . S
H148 C143 0.930 . S
N149 Cu138 1.985 . S
N149 C151 1.335 . S
N149 C152 1.390 . S
N150 C151 1.345 . S
N150 C153 1.336 . S
C151 N149 1.335 . S
C151 N150 1.345 . S
C151 H156 0.930 . S
C152 N149 1.390 . S
C152 C153 1.346 . S
C152 H157 0.930 . S
C153 N150 1.336 . S
C153 C152 1.346 . S
C153 H160 0.929 . S
C154 O144 1.282 . S
C154 O155 1.216 . S
O155 C154 1.216 . S
H156 C151 0.930 . S
H157 C152 0.930 . S
O158 Cu138 1.959 . S
O158 C145 1.251 . S
H159 C142 0.930 . S
H160 C153 0.929 . S
Cu161 N162 1.999 . S
Cu161 O167 1.974 1_554 S
Cu161 N172 1.985 . S
Cu161 O181 1.959 . S
N162 Cu161 1.999 . S
N162 C164 1.263 1_554 S
N162 C166 1.389 . S
N163 C164 1.358 . S
N163 C165 1.400 1_556 S
C164 N162 1.263 1_556 S
C164 N163 1.358 . S
C164 H170 0.930 . S
C165 N163 1.400 1_554 S
C165 C166 1.351 . S
C165 H182 0.930 . S
C166 N162 1.389 . S
C166 C165 1.351 . S
C166 H171 0.930 . S
O167 Cu161 1.974 1_556 S
O167 C177 1.282 . S
C168 O169 1.261 . S
C168 O181 1.251 . S
O169 C168 1.261 . S
H170 C164 0.930 . S
H171 C166 0.930 . S
N172 Cu161 1.985 . S
N172 C174 1.335 . S
N172 C175 1.390 1_554 S
N173 C174 1.345 . S
N173 C176 1.336 1_554 S
C174 N172 1.335 . S
C174 N173 1.345 . S
C174 H179 0.930 . S
C175 N172 1.390 1_556 S
C175 C176 1.346 . S
C175 H180 0.930 . S
C176 N173 1.336 1_556 S
C176 C175 1.346 . S
C176 H183 0.929 . S
C177 O167 1.282 . S
C177 O178 1.216 . S
O178 C177 1.216 . S
H179 C174 0.930 . S
H180 C175 0.930 . S
O181 Cu161 1.959 . S
O181 C168 1.251 . S
H182 C165 0.930 . S
H183 C176 0.929 . S
C184 C185 1.363 . S
C184 C190 1.379 . S
C184 N192 1.356 . S
C185 C184 1.363 . S
C185 C191 1.363 . S
C186 C187 1.363 . S
C186 C191 1.379 . S
C186 N193 1.356 . S
C187 C186 1.363 . S
C187 C190 1.363 . S
N188 C190 1.356 . S
N188 H200 0.984 . S
N188 H201 0.985 . S
N189 C191 1.356 . S
N189 H194 0.984 . S
N189 H195 0.985 . S
C190 C184 1.379 . S
C190 C187 1.363 . S
C190 N188 1.356 . S
C191 C185 1.363 . S
C191 C186 1.379 . S
C191 N189 1.356 . S
N192 C184 1.356 . S
N192 H198 0.984 . S
N192 H199 0.984 . S
N193 C186 1.356 . S
N193 H196 0.984 . S
N193 H197 0.985 . S
H194 N189 0.984 . S
H195 N189 0.985 . S
H196 N193 0.984 . S
H197 N193 0.985 . S
H198 N192 0.984 . S
H199 N192 0.984 . S
H200 N188 0.984 . S
H201 N188 0.985 . S
C202 C203 1.363 . S
C202 C208 1.379 . S
C202 N210 1.356 . S
C203 C202 1.363 . S
C203 C209 1.363 . S
C204 C205 1.363 . S
C204 C209 1.379 . S
C204 N211 1.356 . S
C205 C204 1.363 . S
C205 C208 1.363 . S
N206 C208 1.356 . S
N206 H218 0.984 . S
N206 H219 0.985 . S
N207 C209 1.356 . S
N207 H212 0.984 . S
N207 H213 0.985 . S
C208 C202 1.379 . S
C208 C205 1.363 . S
C208 N206 1.356 . S
C209 C203 1.363 . S
C209 C204 1.379 . S
C209 N207 1.356 . S
N210 C202 1.356 . S
N210 H216 0.984 . S
N210 H217 0.984 . S
N211 C204 1.356 . S
N211 H214 0.984 . S
N211 H215 0.985 . S
H212 N207 0.984 . S
H213 N207 0.985 . S
H214 N211 0.984 . S
H215 N211 0.985 . S
H216 N210 0.984 . S
H217 N210 0.984 . S
H218 N206 0.984 . S
H219 N206 0.985 . S
C220 C221 1.363 . S
C220 C226 1.379 . S
C220 N228 1.356 . S
C221 C220 1.363 . S
C221 C227 1.363 . S
C222 C223 1.363 . S
C222 C227 1.379 . S
C222 N229 1.356 . S
C223 C222 1.363 . S
C223 C226 1.363 . S
N224 C226 1.356 . S
N224 H236 0.984 . S
N224 H237 0.985 . S
N225 C227 1.356 . S
N225 H230 0.984 . S
N225 H231 0.985 . S
C226 C220 1.379 . S
C226 C223 1.363 . S
C226 N224 1.356 . S
C227 C221 1.363 . S
C227 C222 1.379 . S
C227 N225 1.356 . S
N228 C220 1.356 . S
N228 H234 0.984 . S
N228 H235 0.984 . S
N229 C222 1.356 . S
N229 H232 0.984 . S
N229 H233 0.985 . S
H230 N225 0.984 . S
H231 N225 0.985 . S
H232 N229 0.984 . S
H233 N229 0.985 . S
H234 N228 0.984 . S
H235 N228 0.984 . S
H236 N224 0.984 . S
H237 N224 0.985 . S
C238 C239 1.363 . S
C238 C244 1.379 . S
C238 N246 1.356 . S
C239 C238 1.363 . S
C239 C245 1.363 . S
C240 C241 1.363 . S
C240 C245 1.379 . S
C240 N247 1.356 . S
C241 C240 1.363 . S
C241 C244 1.363 . S
N242 C244 1.356 . S
N242 H254 0.984 . S
N242 H255 0.985 . S
N243 C245 1.356 . S
N243 H248 0.984 . S
N243 H249 0.985 . S
C244 C238 1.379 . S
C244 C241 1.363 . S
C244 N242 1.356 . S
C245 C239 1.363 . S
C245 C240 1.379 . S
C245 N243 1.356 . S
N246 C238 1.356 . S
N246 H252 0.984 . S
N246 H253 0.984 . S
N247 C240 1.356 . S
N247 H250 0.984 . S
N247 H251 0.985 . S
H248 N243 0.984 . S
H249 N243 0.985 . S
H250 N247 0.984 . S
H251 N247 0.985 . S
H252 N246 0.984 . S
H253 N246 0.984 . S
H254 N242 0.984 . S
H255 N242 0.985 . S
C256 C257 1.363 . S
C256 C262 1.379 . S
C256 N264 1.356 . S
C257 C256 1.363 . S
C257 C263 1.363 . S
C258 C259 1.363 . S
C258 C263 1.379 . S
C258 N265 1.356 . S
C259 C258 1.363 . S
C259 C262 1.363 . S
N260 C262 1.356 . S
N260 H272 0.984 . S
N260 H273 0.985 . S
N261 C263 1.356 . S
N261 H266 0.984 . S
N261 H267 0.985 . S
C262 C256 1.379 . S
C262 C259 1.363 . S
C262 N260 1.356 . S
C263 C257 1.363 . S
C263 C258 1.379 . S
C263 N261 1.356 . S
N264 C256 1.356 . S
N264 H270 0.984 . S
N264 H271 0.984 . S
N265 C258 1.356 . S
N265 H268 0.984 . S
N265 H269 0.985 . S
H266 N261 0.984 . S
H267 N261 0.985 . S
H268 N265 0.984 . S
H269 N265 0.985 . S
H270 N264 0.984 . S
H271 N264 0.984 . S
H272 N260 0.984 . S
H273 N260 0.985 . S
C274 C275 1.363 . S
C274 C280 1.379 . S
C274 N282 1.356 . S
C275 C274 1.363 . S
C275 C281 1.363 . S
C276 C277 1.363 . S
C276 C281 1.379 . S
C276 N283 1.356 . S
C277 C276 1.363 . S
C277 C280 1.363 . S
N278 C280 1.356 . S
N278 H290 0.984 . S
N278 H291 0.985 . S
N279 C281 1.356 . S
N279 H284 0.984 . S
N279 H285 0.985 . S
C280 C274 1.379 . S
C280 C277 1.363 . S
C280 N278 1.356 . S
C281 C275 1.363 . S
C281 C276 1.379 . S
C281 N279 1.356 . S
N282 C274 1.356 . S
N282 H288 0.984 . S
N282 H289 0.984 . S
N283 C276 1.356 . S
N283 H286 0.984 . S
N283 H287 0.985 . S
H284 N279 0.984 . S
H285 N279 0.985 . S
H286 N283 0.984 . S
H287 N283 0.985 . S
H288 N282 0.984 . S
H289 N282 0.984 . S
H290 N278 0.984 . S
H291 N278 0.985 . S
C292 C293 1.363 . S
C292 C298 1.379 . S
C292 N300 1.356 . S
C293 C292 1.363 . S
C293 C299 1.363 . S
C294 C295 1.363 . S
C294 C299 1.379 . S
C294 N301 1.356 . S
C295 C294 1.363 . S
C295 C298 1.363 . S
N296 C298 1.356 . S
N296 H308 0.984 . S
N296 H309 0.985 . S
N297 C299 1.356 . S
N297 H302 0.984 . S
N297 H303 0.985 . S
C298 C292 1.379 . S
C298 C295 1.363 . S
C298 N296 1.356 . S
C299 C293 1.363 . S
C299 C294 1.379 . S
C299 N297 1.356 . S
N300 C292 1.356 . S
N300 H306 0.984 . S
N300 H307 0.984 . S
N301 C294 1.356 . S
N301 H304 0.984 . S
N301 H305 0.985 . S
H302 N297 0.984 . S
H303 N297 0.985 . S
H304 N301 0.984 . S
H305 N301 0.985 . S
H306 N300 0.984 . S
H307 N300 0.984 . S
H308 N296 0.984 . S
H309 N296 0.985 . S
C310 C311 1.363 . S
C310 C316 1.379 . S
C310 N318 1.356 . S
C311 C310 1.363 . S
C311 C317 1.363 . S
C312 C313 1.363 . S
C312 C317 1.379 . S
C312 N319 1.356 . S
C313 C312 1.363 . S
C313 C316 1.363 . S
N314 C316 1.356 . S
N314 H326 0.984 . S
N314 H327 0.985 . S
N315 C317 1.356 . S
N315 H320 0.984 . S
N315 H321 0.985 . S
C316 C310 1.379 . S
C316 C313 1.363 . S
C316 N314 1.356 . S
C317 C311 1.363 . S
C317 C312 1.379 . S
C317 N315 1.356 . S
N318 C310 1.356 . S
N318 H324 0.984 . S
N318 H325 0.984 . S
N319 C312 1.356 . S
N319 H322 0.984 . S
N319 H323 0.985 . S
H320 N315 0.984 . S
H321 N315 0.985 . S
H322 N319 0.984 . S
H323 N319 0.985 . S
H324 N318 0.984 . S
H325 N318 0.984 . S
H326 N314 0.984 . S
H327 N314 0.985 . S
C328 C329 1.363 . S
C328 C334 1.379 1_655 S
C328 N336 1.356 1_554 S
C329 C328 1.363 . S
C329 C335 1.363 . S
C330 C331 1.363 . S
C330 C335 1.379 1_455 S
C330 N337 1.356 . S
C331 C330 1.363 . S
C331 C334 1.363 . S
N332 C334 1.356 1_556 S
N332 H344 0.984 . S
N332 H345 0.985 . S
N333 C335 1.356 . S
N333 H338 0.984 . S
N333 H339 0.985 . S
C334 C328 1.379 1_455 S
C334 C331 1.363 . S
C334 N332 1.356 1_554 S
C335 C329 1.363 . S
C335 C330 1.379 1_655 S
C335 N333 1.356 . S
N336 C328 1.356 1_556 S
N336 H342 0.984 . S
N336 H343 0.984 . S
N337 C330 1.356 . S
N337 H340 0.984 . S
N337 H341 0.985 . S
H338 N333 0.984 . S
H339 N333 0.985 . S
H340 N337 0.984 . S
H341 N337 0.985 . S
H342 N336 0.984 . S
H343 N336 0.984 . S
H344 N332 0.984 . S
H345 N332 0.985 . S
C346 C347 1.363 . S
C346 C352 1.379 1_565 S
C346 N354 1.356 . S
C347 C346 1.363 . S
C347 C353 1.363 . S
C348 C349 1.363 . S
C348 C353 1.379 1_545 S
C348 N355 1.356 . S
C349 C348 1.363 . S
C349 C352 1.363 . S
N350 C352 1.356 . S
N350 H362 0.984 . S
N350 H363 0.985 . S
N351 C353 1.356 . S
N351 H356 0.984 . S
N351 H357 0.985 . S
C352 C346 1.379 1_545 S
C352 C349 1.363 . S
C352 N350 1.356 . S
C353 C347 1.363 . S
C353 C348 1.379 1_565 S
C353 N351 1.356 . S
N354 C346 1.356 . S
N354 H360 0.984 . S
N354 H361 0.984 . S
N355 C348 1.356 . S
N355 H358 0.984 . S
N355 H359 0.985 . S
H356 N351 0.984 . S
H357 N351 0.985 . S
H358 N355 0.984 . S
H359 N355 0.985 . S
H360 N354 0.984 . S
H361 N354 0.984 . S
H362 N350 0.984 . S
H363 N350 0.985 . S
C364 C365 1.363 . S
C364 C370 1.379 1_455 S
C364 N372 1.356 . S
C365 C364 1.363 . S
C365 C371 1.363 . S
C366 C367 1.363 . S
C366 C371 1.379 1_655 S
C366 N373 1.356 . S
C367 C366 1.363 . S
C367 C370 1.363 . S
N368 C370 1.356 . S
N368 H380 0.984 . S
N368 H381 0.985 . S
N369 C371 1.356 . S
N369 H374 0.984 . S
N369 H375 0.985 . S
C370 C364 1.379 1_655 S
C370 C367 1.363 . S
C370 N368 1.356 . S
C371 C365 1.363 . S
C371 C366 1.379 1_455 S
C371 N369 1.356 . S
N372 C364 1.356 . S
N372 H378 0.984 . S
N372 H379 0.984 . S
N373 C366 1.356 . S
N373 H376 0.984 . S
N373 H377 0.985 . S
H374 N369 0.984 . S
H375 N369 0.985 . S
H376 N373 0.984 . S
H377 N373 0.985 . S
H378 N372 0.984 . S
H379 N372 0.984 . S
H380 N368 0.984 . S
H381 N368 0.985 . S
C382 C383 1.363 . S
C382 C388 1.379 1_565 S
C382 N390 1.356 . S
C383 C382 1.363 . S
C383 C389 1.363 1_556 S
C384 C385 1.363 1_554 S
C384 C389 1.379 1_545 S
C384 N391 1.356 . S
C385 C384 1.363 1_556 S
C385 C388 1.363 . S
N386 C388 1.356 . S
N386 H398 0.984 . S
N386 H399 0.985 . S
N387 C389 1.356 . S
N387 H392 0.984 . S
N387 H393 0.985 . S
C388 C382 1.379 1_545 S
C388 C385 1.363 . S
C388 N386 1.356 . S
C389 C383 1.363 1_554 S
C389 C384 1.379 1_565 S
C389 N387 1.356 . S
N390 C382 1.356 . S
N390 H396 0.984 . S
N390 H397 0.984 . S
N391 C384 1.356 . S
N391 H394 0.984 . S
N391 H395 0.985 . S
H392 N387 0.984 . S
H393 N387 0.985 . S
H394 N391 0.984 . S
H395 N391 0.985 . S
H396 N390 0.984 . S
H397 N390 0.984 . S
H398 N386 0.984 . S
H399 N386 0.985 . S
C400 C401 1.363 . S
C400 C406 1.379 . S
C400 N408 1.356 . S
C401 C400 1.363 . S
C401 C407 1.363 1_554 S
C402 C403 1.363 1_556 S
C402 C407 1.379 . S
C402 N409 1.356 . S
C403 C402 1.363 1_554 S
C403 C406 1.363 . S
N404 C406 1.356 . S
N404 H416 0.984 . S
N404 H417 0.985 . S
N405 C407 1.356 . S
N405 H410 0.984 . S
N405 H411 0.985 . S
C406 C400 1.379 . S
C406 C403 1.363 . S
C406 N404 1.356 . S
C407 C401 1.363 1_556 S
C407 C402 1.379 . S
C407 N405 1.356 . S
N408 C400 1.356 . S
N408 H414 0.984 . S
N408 H415 0.984 . S
N409 C402 1.356 . S
N409 H412 0.984 . S
N409 H413 0.985 . S
H410 N405 0.984 . S
H411 N405 0.985 . S
H412 N409 0.984 . S
H413 N409 0.985 . S
H414 N408 0.984 . S
H415 N408 0.984 . S
H416 N404 0.984 . S
H417 N404 0.985 . S
C418 C419 1.363 . S
C418 C424 1.379 . S
C418 N426 1.356 . S
C419 C418 1.363 . S
C419 C425 1.363 . S
C420 C421 1.363 . S
C420 C425 1.379 . S
C420 N427 1.356 . S
C421 C420 1.363 . S
C421 C424 1.363 . S
N422 C424 1.356 . S
N422 H434 0.984 . S
N422 H435 0.985 . S
N423 C425 1.356 . S
N423 H428 0.984 . S
N423 H429 0.985 . S
C424 C418 1.379 . S
C424 C421 1.363 . S
C424 N422 1.356 . S
C425 C419 1.363 . S
C425 C420 1.379 . S
C425 N423 1.356 . S
N426 C418 1.356 . S
N426 H432 0.984 . S
N426 H433 0.984 . S
N427 C420 1.356 . S
N427 H430 0.984 . S
N427 H431 0.985 . S
H428 N423 0.984 . S
H429 N423 0.985 . S
H430 N427 0.984 . S
H431 N427 0.985 . S
H432 N426 0.984 . S
H433 N426 0.984 . S
H434 N422 0.984 . S
H435 N422 0.985 . S
C436 C437 1.363 . S
C436 C442 1.379 . S
C436 N444 1.356 . S
C437 C436 1.363 . S
C437 C443 1.363 . S
C438 C439 1.363 . S
C438 C443 1.379 . S
C438 N445 1.356 . S
C439 C438 1.363 . S
C439 C442 1.363 . S
N440 C442 1.356 . S
N440 H452 0.984 . S
N440 H453 0.985 . S
N441 C443 1.356 1_556 S
N441 H446 0.984 . S
N441 H447 0.985 . S
C442 C436 1.379 . S
C442 C439 1.363 . S
C442 N440 1.356 . S
C443 C437 1.363 . S
C443 C438 1.379 . S
C443 N441 1.356 1_554 S
N444 C436 1.356 . S
N444 H450 0.984 . S
N444 H451 0.984 . S
N445 C438 1.356 . S
N445 H448 0.984 . S
N445 H449 0.985 1_554 S
H446 N441 0.984 . S
H447 N441 0.985 . S
H448 N445 0.984 . S
H449 N445 0.985 1_556 S
H450 N444 0.984 . S
H451 N444 0.984 . S
H452 N440 0.984 . S
H453 N440 0.985 . S
C454 C455 1.363 . S
C454 C460 1.379 . S
C454 N462 1.356 . S
C455 C454 1.363 . S
C455 C461 1.363 . S
C456 C457 1.363 . S
C456 C461 1.379 . S
C456 N463 1.356 . S
C457 C456 1.363 . S
C457 C460 1.363 . S
N458 C460 1.356 . S
N458 H470 0.984 . S
N458 H471 0.985 . S
N459 C461 1.356 . S
N459 H464 0.984 . S
N459 H465 0.985 . S
C460 C454 1.379 . S
C460 C457 1.363 . S
C460 N458 1.356 . S
C461 C455 1.363 . S
C461 C456 1.379 . S
C461 N459 1.356 . S
N462 C454 1.356 . S
N462 H468 0.984 . S
N462 H469 0.984 . S
N463 C456 1.356 . S
N463 H466 0.984 . S
N463 H467 0.985 . S
H464 N459 0.984 . S
H465 N459 0.985 . S
H466 N463 0.984 . S
H467 N463 0.985 . S
H468 N462 0.984 . S
H469 N462 0.984 . S
H470 N458 0.984 . S
H471 N458 0.985 . S
C185 N12 0.555 . S
C187 N104 0.555 . S
C203 C39 1.912 . S
C205 C131 1.912 . S
C221 N150 0.555 . S
C223 N58 0.555 . S
C239 C177 1.912 . S
C241 C85 1.912 . S
C257 N140 1.228 . S
C259 N48 1.228 . S
C275 C168 2.581 . S
C277 C76 2.581 . S
C293 N2 1.228 . S
C295 N94 1.228 . S
C311 C30 2.581 . S
C313 C122 2.581 . S
C329 C53 1.845 . S
C331 C7 1.845 . S
C347 N71 1.742 . S
C349 N25 1.742 . S
C365 C99 1.845 . S
C367 C145 1.845 . S
C383 N163 1.743 . S
C385 N117 1.743 . S
C401 C16 1.771 . S
C403 N127 1.739 . S
C419 C154 1.771 . S
C421 N35 1.739 . S
C437 C62 1.771 . S
C439 N173 1.739 . S
C455 N81 1.739 . S
C457 C108 1.771 . S
