# Generated by pormake.
# Topology uog, (4)-cn, num edge types: 1
# Building blocks:
#     Node 0, Type 0, BuildingBlock: ICAMEG_clean_sbu_1, # of connection points: 4
#     Node 1, Type 0, BuildingBlock: ICAMEG_clean_sbu_1, # of connection points: 4
#     Node 2, Type 0, BuildingBlock: ICAMEG_clean_sbu_1, # of connection points: 4
#     Node 3, Type 0, BuildingBlock: ICAMEG_clean_sbu_1, # of connection points: 4
#     Node 4, Type 0, BuildingBlock: ICAMEG_clean_sbu_1, # of connection points: 4
#     Node 5, Type 0, BuildingBlock: ICAMEG_clean_sbu_1, # of connection points: 4
#     Edge 6, Type (0, 0), BuildingBlock: MIFKUJ_clean_linker_0, # of connection points: 2
#     Edge 7, Type (0, 0), BuildingBlock: MIFKUJ_clean_linker_0, # of connection points: 2
#     Edge 8, Type (0, 0), BuildingBlock: MIFKUJ_clean_linker_0, # of connection points: 2
#     Edge 9, Type (0, 0), BuildingBlock: MIFKUJ_clean_linker_0, # of connection points: 2
#     Edge 10, Type (0, 0), BuildingBlock: MIFKUJ_clean_linker_0, # of connection points: 2
#     Edge 11, Type (0, 0), BuildingBlock: MIFKUJ_clean_linker_0, # of connection points: 2
#     Edge 12, Type (0, 0), BuildingBlock: MIFKUJ_clean_linker_0, # of connection points: 2
#     Edge 13, Type (0, 0), BuildingBlock: MIFKUJ_clean_linker_0, # of connection points: 2
#     Edge 14, Type (0, 0), BuildingBlock: MIFKUJ_clean_linker_0, # of connection points: 2
#     Edge 15, Type (0, 0), BuildingBlock: MIFKUJ_clean_linker_0, # of connection points: 2
#     Edge 16, Type (0, 0), BuildingBlock: MIFKUJ_clean_linker_0, # of connection points: 2
#     Edge 17, Type (0, 0), BuildingBlock: MIFKUJ_clean_linker_0, # of connection points: 2
# Relax obj value: 0.051
# Max RMSD: 0.120
# Mean RMSD: 0.120
data_MOF--net-uog--node1-ICAMEG_clean_sbu_1--edge1-MIFKUJ_clean_linker_0
_symmetry_space_group_name_H-M    P1
_symmetry_Int_Tables_number       1
_symmetry_cell_setting            triclinic
loop_
_symmetry_equiv_pos_as_xyz
'x, y, z'
_cell_length_a     38.708817
_cell_length_b     38.698343
_cell_length_c     58.598674
_cell_angle_alpha  90.001433
_cell_angle_beta   90.010233
_cell_angle_gamma 120.03296
loop_
_atom_site_label
_atom_site_type_symbol
_atom_site_fract_x
_atom_site_fract_y
_atom_site_fract_z
_atom_type_partial_charge
Co0 Co 0.63219 0.34083 0.15989 0.0
Co1 Co 0.53441 0.27378 0.17462 0.0
O2 O 0.58324 0.28915 0.15755 0.0
C3 C 0.60996 0.33345 0.11129 0.0
O4 O 0.5741 0.32432 0.11815 0.0
C5 C 0.55596 0.21292 0.18641 0.0
O6 O 0.59282 0.24217 0.18898 0.0
O7 O 0.56481 0.29431 0.20365 0.0
O8 O 0.62746 0.34023 0.19382 0.0
H9 H 0.44797 0.2956 0.22989 0.0
H10 H 0.63226 0.27497 0.13397 0.0
O11 O 0.63753 0.34188 0.12585 0.0
H12 H 0.73095 0.30835 0.1955 0.0
H13 H 0.7733 0.44189 0.13844 0.0
H14 H 0.65835 0.41449 0.18707 0.0
H15 H 0.69496 0.34559 0.19141 0.0
H16 H 0.71095 0.37689 0.13642 0.0
O17 O 0.52851 0.22031 0.18088 0.0
H18 H 0.50934 0.31441 0.20803 0.0
H19 H 0.45523 0.19915 0.17793 0.0
H20 H 0.7202 0.47979 0.18976 0.0
H21 H 0.66784 0.23725 0.13731 0.0
H22 H 0.77823 0.49381 0.16533 0.0
H23 H 0.71747 0.25376 0.16831 0.0
O24 O 0.6022 0.3702 0.15756 0.0
H25 H 0.50026 0.19921 0.10026 0.0
H26 H 0.46931 0.28083 0.15176 0.0
H27 H 0.43338 0.25761 0.11518 0.0
H28 H 0.44882 0.21649 0.08914 0.0
H29 H 0.53566 0.22334 0.13693 0.0
H30 H 0.39337 0.17895 0.19963 0.0
H31 H 0.3894 0.22744 0.22573 0.0
O32 O 0.53928 0.32663 0.16845 0.0
C33 C 0.60052 0.32077 0.20869 0.0
C34 C 0.44927 0.27426 0.2185 0.0
C35 C 0.41865 0.20876 0.20155 0.0
N36 N 0.48573 0.25802 0.19159 0.0
C37 C 0.4839 0.28477 0.20603 0.0
C38 C 0.45379 0.22033 0.18936 0.0
C39 C 0.41644 0.23599 0.21618 0.0
C40 C 0.65414 0.28265 0.14735 0.0
N41 N 0.66167 0.3126 0.1624 0.0
C42 C 0.67406 0.26105 0.14922 0.0
C43 C 0.70186 0.27029 0.16664 0.0
C44 C 0.70942 0.30091 0.18191 0.0
C45 C 0.6889 0.32184 0.17953 0.0
C46 C 0.74823 0.43612 0.14919 0.0
C47 C 0.68355 0.42032 0.17646 0.0
C48 C 0.71284 0.39942 0.14809 0.0
N49 N 0.68116 0.39186 0.16171 0.0
C50 C 0.71846 0.45737 0.17802 0.0
C51 C 0.75099 0.46523 0.16429 0.0
C52 C 0.56629 0.36108 0.16183 0.0
C53 C 0.49325 0.21709 0.11146 0.0
C54 C 0.47633 0.26316 0.14046 0.0
C55 C 0.45578 0.24995 0.11981 0.0
C56 C 0.46443 0.22684 0.10522 0.0
N57 N 0.50465 0.2536 0.14643 0.0
C58 C 0.51312 0.23075 0.13228 0.0
Co59 Co 0.29383 0.62275 0.49678 0.0
Co60 Co 0.26137 0.52528 0.51288 0.0
O61 O 0.29593 0.57346 0.49551 0.0
C62 C 0.28173 0.60035 0.44804 0.0
O63 O 0.25468 0.56432 0.45453 0.0
C64 C 0.34267 0.54603 0.52656 0.0
O65 O 0.35004 0.58272 0.52955 0.0
O66 O 0.27068 0.55649 0.54155 0.0
O67 O 0.28808 0.61883 0.53065 0.0
H68 H 0.15179 0.44118 0.56808 0.0
H69 H 0.36042 0.62062 0.47307 0.0
O70 O 0.30002 0.62771 0.46283 0.0
H71 H 0.42392 0.72196 0.53351 0.0
H72 H 0.33614 0.76379 0.47375 0.0
H73 H 0.24515 0.6497 0.52197 0.0
H74 H 0.35096 0.68689 0.52806 0.0
H75 H 0.33853 0.70127 0.47308 0.0
O76 O 0.3083 0.5189 0.52004 0.0
H77 H 0.19514 0.50179 0.54578 0.0
H78 H 0.25541 0.44568 0.51717 0.0
H79 H 0.24194 0.71174 0.5233 0.0
H80 H 0.4335 0.6551 0.47784 0.0
H81 H 0.28767 0.76935 0.49906 0.0
H82 H 0.4657 0.7061 0.50829 0.0
O83 O 0.23455 0.59302 0.49335 0.0
H84 H 0.30316 0.48723 0.44033 0.0
H85 H 0.18919 0.46114 0.48943 0.0
H86 H 0.1771 0.42394 0.45336 0.0
H87 H 0.23437 0.4369 0.42854 0.0
H88 H 0.31383 0.52399 0.47644 0.0
H89 H 0.21292 0.38456 0.5393 0.0
H90 H 0.16056 0.38201 0.56491 0.0
O91 O 0.21405 0.53076 0.5059 0.0
C92 C 0.27996 0.59242 0.54597 0.0
C93 C 0.17441 0.44188 0.55692 0.0
C94 C 0.20876 0.41012 0.54079 0.0
N95 N 0.22754 0.47713 0.53006 0.0
C96 C 0.19896 0.47606 0.5442 0.0
C97 C 0.23279 0.44483 0.52835 0.0
C98 C 0.17938 0.40871 0.55515 0.0
C99 C 0.37424 0.64304 0.48623 0.0
N100 N 0.35143 0.6518 0.50024 0.0
C101 C 0.41562 0.66236 0.4889 0.0
C102 C 0.43367 0.69092 0.50601 0.0
C103 C 0.41024 0.69981 0.52018 0.0
C104 C 0.36892 0.6798 0.51705 0.0
C105 C 0.31611 0.73893 0.48442 0.0
C106 C 0.26531 0.67473 0.51148 0.0
C107 C 0.31727 0.70343 0.48408 0.0
N108 N 0.2922 0.672 0.4976 0.0
C109 C 0.26328 0.70974 0.51226 0.0
C110 C 0.28891 0.74203 0.49863 0.0
C111 C 0.20718 0.55755 0.49819 0.0
C112 C 0.27797 0.48128 0.45101 0.0
C113 C 0.21421 0.46707 0.47867 0.0
C114 C 0.20721 0.44582 0.4583 0.0
C115 C 0.23936 0.45308 0.44439 0.0
N116 N 0.25215 0.49472 0.48503 0.0
C117 C 0.28383 0.5019 0.47152 0.0
Co118 Co 0.66425 0.29314 0.82704 0.0
Co119 Co 0.72883 0.26125 0.84385 0.0
O120 O 0.71537 0.29478 0.82542 0.0
C121 C 0.67408 0.28196 0.77818 0.0
O122 O 0.68023 0.25286 0.78436 0.0
C123 C 0.79385 0.34304 0.85249 0.0
O124 O 0.76591 0.3522 0.85607 0.0
O125 O 0.71264 0.27753 0.87216 0.0
O126 O 0.66164 0.28571 0.86099 0.0
H127 H 0.7063 0.16079 0.90481 0.0
H128 H 0.73272 0.36121 0.80391 0.0
O129 O 0.66634 0.30099 0.79316 0.0
H130 H 0.69524 0.42099 0.86663 0.0
H131 H 0.56673 0.33745 0.80503 0.0
H132 H 0.588 0.24351 0.85156 0.0
H133 H 0.65754 0.34836 0.85994 0.0
H134 H 0.63135 0.33928 0.80418 0.0
O135 O 0.78437 0.30734 0.84747 0.0
H136 H 0.68894 0.20256 0.88107 0.0
H137 H 0.79988 0.25067 0.84642 0.0
H138 H 0.52301 0.24086 0.85309 0.0
H139 H 0.77092 0.43407 0.80983 0.0
H140 H 0.51208 0.28808 0.8297 0.0
H141 H 0.75236 0.46439 0.84145 0.0
O142 O 0.63486 0.23421 0.82273 0.0
H143 H 0.79778 0.28475 0.76805 0.0
H144 H 0.71115 0.18301 0.8241 0.0
H145 H 0.72874 0.1619 0.78834 0.0
H146 H 0.7724 0.21297 0.76003 0.0
H147 H 0.77915 0.30453 0.80397 0.0
H148 H 0.81863 0.2097 0.86992 0.0
H149 H 0.77157 0.16421 0.89929 0.0
O150 O 0.67365 0.21468 0.84059 0.0
C151 C 0.68348 0.28306 0.87645 0.0
C152 C 0.72699 0.18037 0.89201 0.0
C153 C 0.79006 0.20786 0.87244 0.0
N154 N 0.74319 0.22868 0.86223 0.0
C155 C 0.71727 0.20399 0.87847 0.0
C156 C 0.77932 0.23104 0.85922 0.0
C157 C 0.76364 0.18234 0.88891 0.0
C158 C 0.72414 0.37423 0.81752 0.0
N159 N 0.69283 0.35055 0.83149 0.0
C160 C 0.74601 0.41549 0.82086 0.0
C161 C 0.73562 0.43247 0.83863 0.0
C162 C 0.70359 0.40814 0.85278 0.0
C163 C 0.68242 0.36701 0.84893 0.0
C164 C 0.57116 0.31677 0.81533 0.0
C165 C 0.58352 0.2643 0.84145 0.0
C166 C 0.60765 0.31761 0.81489 0.0
N167 N 0.6135 0.29173 0.82795 0.0
C168 C 0.54664 0.26259 0.84233 0.0
C169 C 0.54051 0.28907 0.82919 0.0
C170 C 0.64117 0.20726 0.83081 0.0
C171 C 0.77885 0.26223 0.78029 0.0
C172 C 0.73012 0.20542 0.81186 0.0
C173 C 0.74004 0.19328 0.79165 0.0
C174 C 0.76455 0.22195 0.77578 0.0
N175 N 0.74429 0.245 0.81616 0.0
C176 C 0.76835 0.27327 0.8007 0.0
Co177 Co 0.37036 0.66808 0.16263 0.0
Co178 Co 0.46546 0.7356 0.18076 0.0
O179 O 0.41929 0.71984 0.16111 0.0
C180 C 0.39601 0.67503 0.11464 0.0
O181 O 0.43116 0.68333 0.1224 0.0
C182 C 0.44614 0.79956 0.18735 0.0
O183 O 0.40895 0.77142 0.19051 0.0
O184 O 0.43119 0.71916 0.20842 0.0
O185 O 0.37223 0.66821 0.19676 0.0
H186 H 0.54105 0.71861 0.24533 0.0
H187 H 0.37181 0.73387 0.13589 0.0
O188 O 0.36767 0.66729 0.1285 0.0
H189 H 0.26765 0.69868 0.19425 0.0
H190 H 0.23133 0.56635 0.13799 0.0
H191 H 0.34299 0.59398 0.18955 0.0
H192 H 0.30478 0.66234 0.19206 0.0
H193 H 0.29333 0.63177 0.13725 0.0
O194 O 0.47286 0.79041 0.18319 0.0
H195 H 0.48348 0.69833 0.2197 0.0
H196 H 0.54589 0.80845 0.18413 0.0
H197 H 0.28143 0.52827 0.19099 0.0
H198 H 0.33515 0.77072 0.13733 0.0
H199 H 0.22505 0.51413 0.16508 0.0
H200 H 0.28273 0.75326 0.16673 0.0
O201 O 0.40105 0.63943 0.16162 0.0
H202 H 0.51276 0.80219 0.10449 0.0
H203 H 0.52944 0.72076 0.16344 0.0
H204 H 0.56967 0.738 0.12827 0.0
H205 H 0.56148 0.77906 0.0985 0.0
H206 H 0.47276 0.7838 0.13981 0.0
H207 H 0.60414 0.83 0.2094 0.0
H208 H 0.60196 0.78487 0.24022 0.0
O209 O 0.45923 0.68137 0.17867 0.0
C210 C 0.39602 0.69044 0.21236 0.0
C211 C 0.54243 0.73847 0.2319 0.0
C212 C 0.57781 0.80102 0.21176 0.0
N213 N 0.51148 0.75205 0.20033 0.0
C214 C 0.50997 0.72712 0.2173 0.0
C215 C 0.54474 0.78868 0.19752 0.0
C216 C 0.57658 0.77567 0.22904 0.0
C217 C 0.34878 0.72583 0.14858 0.0
N218 N 0.34031 0.69585 0.16379 0.0
C219 C 0.32823 0.74692 0.14938 0.0
C220 C 0.29886 0.73715 0.1659 0.0
C221 C 0.29041 0.70654 0.18136 0.0
C222 C 0.31159 0.68612 0.18007 0.0
C223 C 0.25565 0.57219 0.1494 0.0
C224 C 0.31848 0.58813 0.17833 0.0
C225 C 0.29084 0.60914 0.14903 0.0
N226 N 0.32157 0.61677 0.16349 0.0
C227 C 0.28375 0.55083 0.17917 0.0
C228 C 0.25214 0.5429 0.16461 0.0
C229 C 0.43473 0.6476 0.16999 0.0
C230 C 0.51669 0.7844 0.11737 0.0
C231 C 0.52564 0.73856 0.15056 0.0
C232 C 0.54858 0.74832 0.1307 0.0
C233 C 0.54398 0.77136 0.11401 0.0
N234 N 0.49886 0.75137 0.15371 0.0
C235 C 0.49426 0.77406 0.13745 0.0
Co236 Co 0.70564 0.36886 0.49363 0.0
Co237 Co 0.73365 0.46604 0.50787 0.0
O238 O 0.70115 0.41673 0.49097 0.0
C239 C 0.71908 0.38913 0.44475 0.0
O240 O 0.74663 0.42505 0.45109 0.0
C241 C 0.65095 0.44427 0.51906 0.0
O242 O 0.64332 0.40749 0.52205 0.0
O243 O 0.723 0.43617 0.53716 0.0
O244 O 0.71084 0.37481 0.52751 0.0
H245 H 0.83838 0.55455 0.56441 0.0
H246 H 0.6376 0.36564 0.46839 0.0
O247 O 0.70005 0.36224 0.45967 0.0
H248 H 0.57696 0.2681 0.53092 0.0
H249 H 0.66914 0.22815 0.4735 0.0
H250 H 0.75605 0.34598 0.52046 0.0
H251 H 0.65002 0.30607 0.52599 0.0
H252 H 0.66407 0.28912 0.4711 0.0
O253 O 0.68567 0.47149 0.51315 0.0
H254 H 0.79759 0.49253 0.54263 0.0
H255 H 0.73757 0.54497 0.50934 0.0
H256 H 0.76192 0.28554 0.52353 0.0
H257 H 0.56439 0.32806 0.47259 0.0
H258 H 0.71824 0.22607 0.49993 0.0
H259 H 0.53362 0.27898 0.50409 0.0
O260 O 0.76491 0.40036 0.4906 0.0
H261 H 0.69486 0.4976 0.43221 0.0
H262 H 0.8065 0.53018 0.48482 0.0
H263 H 0.81998 0.5646 0.44769 0.0
H264 H 0.76388 0.54827 0.42107 0.0
H265 H 0.6828 0.46375 0.46945 0.0
H266 H 0.77746 0.60745 0.5309 0.0
H267 H 0.82841 0.61255 0.5586 0.0
O268 O 0.7823 0.46192 0.50298 0.0
C269 C 0.71599 0.40118 0.54231 0.0
C270 C 0.81637 0.55273 0.55233 0.0
C271 C 0.78214 0.5824 0.53355 0.0
N272 N 0.76548 0.51527 0.52461 0.0
C273 C 0.79327 0.51774 0.53991 0.0
C274 C 0.75958 0.54693 0.52143 0.0
C275 C 0.81073 0.58525 0.54908 0.0
C276 C 0.62442 0.34403 0.482 0.0
N277 N 0.64806 0.33792 0.49685 0.0
C278 C 0.58295 0.32296 0.48435 0.0
C279 C 0.56571 0.29548 0.50205 0.0
C280 C 0.59001 0.28938 0.51712 0.0
C281 C 0.63137 0.31103 0.51426 0.0
C282 C 0.68829 0.25385 0.4839 0.0
C283 C 0.73679 0.32013 0.51024 0.0
C284 C 0.68561 0.28847 0.48257 0.0
N285 N 0.70954 0.32094 0.49575 0.0
C286 C 0.74032 0.28604 0.512 0.0
C287 C 0.71584 0.2527 0.49874 0.0
C288 C 0.79101 0.43611 0.49585 0.0
C289 C 0.71953 0.50501 0.44367 0.0
C290 C 0.78198 0.5229 0.47333 0.0
C291 C 0.78976 0.54255 0.45234 0.0
C292 C 0.75828 0.53341 0.43742 0.0
N293 N 0.74392 0.49501 0.47931 0.0
C294 C 0.71288 0.48605 0.46482 0.0
Co295 Co 0.33506 0.70512 0.82937 0.0
Co296 Co 0.26812 0.73311 0.8477 0.0
O297 O 0.28246 0.70043 0.82907 0.0
C298 C 0.31905 0.71291 0.78113 0.0
O299 O 0.30894 0.7389 0.78803 0.0
C300 C 0.20634 0.65032 0.85792 0.0
O301 O 0.23543 0.64267 0.86101 0.0
O302 O 0.28795 0.71963 0.87558 0.0
O303 O 0.33961 0.71344 0.86328 0.0
H304 H 0.29013 0.83471 0.90782 0.0
H305 H 0.26701 0.63455 0.80772 0.0
O306 O 0.33125 0.69666 0.79549 0.0
H307 H 0.3135 0.5805 0.86912 0.0
H308 H 0.43642 0.66738 0.80484 0.0
H309 H 0.41215 0.75844 0.85221 0.0
H310 H 0.34755 0.65291 0.8618 0.0
H311 H 0.37003 0.6617 0.80556 0.0
O312 O 0.21412 0.68547 0.85275 0.0
H313 H 0.30852 0.79401 0.88382 0.0
H314 H 0.19477 0.73947 0.8519 0.0
H315 H 0.47891 0.76497 0.85216 0.0
H316 H 0.23236 0.56185 0.81429 0.0
H317 H 0.49136 0.71921 0.82834 0.0
H318 H 0.25548 0.53441 0.84524 0.0
O319 O 0.36149 0.76377 0.82447 0.0
H320 H 0.19142 0.70207 0.77415 0.0
H321 H 0.28032 0.80896 0.82709 0.0
H322 H 0.25772 0.82637 0.79183 0.0
H323 H 0.21288 0.7727 0.76508 0.0
H324 H 0.21516 0.68603 0.80946 0.0
H325 H 0.175 0.77932 0.87568 0.0
H326 H 0.22294 0.82749 0.90381 0.0
O327 O 0.32177 0.78137 0.84298 0.0
C328 C 0.3183 0.71572 0.87922 0.0
C329 C 0.26904 0.81394 0.89556 0.0
C330 C 0.2044 0.78282 0.87754 0.0
N331 N 0.2529 0.76474 0.86632 0.0
C332 C 0.27933 0.79092 0.88187 0.0
C333 C 0.21573 0.76029 0.86415 0.0
C334 C 0.23132 0.80984 0.89332 0.0
C335 C 0.27755 0.62279 0.82103 0.0
N336 N 0.30938 0.64794 0.83428 0.0
C337 C 0.25769 0.58161 0.82475 0.0
C338 C 0.27064 0.56624 0.84214 0.0
C339 C 0.30317 0.59208 0.85555 0.0
C340 C 0.32228 0.63308 0.85136 0.0
C341 C 0.43134 0.68744 0.81532 0.0
C342 C 0.4173 0.73828 0.84192 0.0
C343 C 0.39385 0.68442 0.81576 0.0
N344 N 0.38719 0.70952 0.82906 0.0
C345 C 0.45517 0.74218 0.8419 0.0
C346 C 0.46215 0.71652 0.82852 0.0
C347 C 0.35401 0.78993 0.83253 0.0
C348 C 0.21084 0.72571 0.7857 0.0
C349 C 0.26093 0.78544 0.81551 0.0
C350 C 0.24814 0.79548 0.79559 0.0
C351 C 0.22295 0.76535 0.78061 0.0
N352 N 0.24894 0.74648 0.82038 0.0
C353 C 0.22422 0.71678 0.80578 0.0
H354 H 0.4823 0.1473 0.19145 0.0
H355 H 0.46552 0.07757 0.19352 0.0
H356 H 0.59025 0.11367 0.18842 0.0
H357 H 0.60746 0.18383 0.18647 0.0
H358 H 0.53996 0.05165 0.15805 0.0
H359 H 0.54817 0.08347 0.23763 0.0
H360 H 0.53329 0.10972 0.27231 0.0
H361 H 0.40877 0.02341 0.26544 0.0
H362 H 0.4228 0.99702 0.23049 0.0
H363 H 0.52064 0.86443 0.18288 0.0
H364 H 0.53959 0.93468 0.18421 0.0
H365 H 0.4167 0.90176 0.19531 0.0
H366 H 0.39736 0.83104 0.19427 0.0
H367 H 0.46714 0.96276 0.22318 0.0
H368 H 0.45754 0.93194 0.14355 0.0
H369 H 0.47088 0.90568 0.10835 0.0
H370 H 0.59605 0.99011 0.11455 0.0
H371 H 0.58353 0.01648 0.15001 0.0
C372 C 0.50623 0.14047 0.1909 0.0
C373 C 0.54622 0.17102 0.18882 0.0
C374 C 0.49657 0.10064 0.19216 0.0
C375 C 0.52668 0.09059 0.19123 0.0
C376 C 0.56665 0.12095 0.18921 0.0
C377 C 0.57641 0.16094 0.18821 0.0
C378 C 0.51605 0.04818 0.19168 0.0
C379 C 0.52464 0.03231 0.17243 0.0
C380 C 0.49502 0.02289 0.2102 0.0
C381 C 0.4865 0.0385 0.23131 0.0
C382 C 0.51756 0.07029 0.2434 0.0
C383 C 0.50929 0.08517 0.26312 0.0
C384 C 0.4701 0.06831 0.27104 0.0
C385 C 0.43911 0.03647 0.25927 0.0
C386 C 0.44721 0.02151 0.23952 0.0
C387 C 0.49755 0.87202 0.18563 0.0
C388 C 0.45742 0.8421 0.18839 0.0
C389 C 0.50846 0.91224 0.18632 0.0
C390 C 0.4795 0.92341 0.1896 0.0
C391 C 0.43949 0.89371 0.19274 0.0
C392 C 0.4285 0.85335 0.19207 0.0
C393 C 0.4911 0.96616 0.18954 0.0
C394 C 0.4826 0.9821 0.20883 0.0
C395 C 0.51202 0.99151 0.17099 0.0
C396 C 0.51964 0.97592 0.14957 0.0
C397 C 0.48795 0.9447 0.13751 0.0
C398 C 0.49536 0.92982 0.11749 0.0
C399 C 0.5343 0.94615 0.10925 0.0
C400 C 0.56591 0.97746 0.12098 0.0
C401 C 0.55867 0.99241 0.14102 0.0
H402 H 0.53998 0.93459 0.09375 0.0
H403 H 0.46376 0.07986 0.28632 0.0
H404 H 0.42175 0.59721 0.53556 0.0
H405 H 0.47508 0.58081 0.53784 0.0
H406 H 0.3894 0.45664 0.52607 0.0
H407 H 0.33596 0.47255 0.52406 0.0
H408 H 0.44396 0.46637 0.55896 0.0
H409 H 0.44405 0.51462 0.48274 0.0
H410 H 0.44669 0.56396 0.4551 0.0
H411 H 0.56222 0.65098 0.48028 0.0
H412 H 0.55997 0.60231 0.50833 0.0
H413 H 0.5702 0.3937 0.52109 0.0
H414 H 0.51841 0.41193 0.52523 0.0
H415 H 0.60904 0.53633 0.52933 0.0
H416 H 0.66069 0.51847 0.52446 0.0
H417 H 0.55317 0.52866 0.50202 0.0
H418 H 0.55559 0.48095 0.57709 0.0
H419 H 0.55317 0.4332 0.6058 0.0
H420 H 0.4346 0.34724 0.58428 0.0
H421 H 0.43651 0.39429 0.55522 0.0
C422 C 0.41421 0.56636 0.5337 0.0
C423 C 0.37469 0.53622 0.52948 0.0
C424 C 0.44471 0.55707 0.53495 0.0
C425 C 0.43616 0.51757 0.53188 0.0
C426 C 0.39658 0.48729 0.52848 0.0
C427 C 0.36612 0.49651 0.52722 0.0
C428 C 0.46857 0.50788 0.53103 0.0
C429 C 0.46772 0.4797 0.54642 0.0
C430 C 0.49993 0.52598 0.51496 0.0
C431 C 0.50167 0.55496 0.49777 0.0
C432 C 0.46991 0.54435 0.48246 0.0
C433 C 0.47134 0.57219 0.46673 0.0
C434 C 0.50455 0.61062 0.46598 0.0
C435 C 0.53648 0.62123 0.48091 0.0
C436 C 0.53516 0.59352 0.49672 0.0
C437 C 0.57902 0.42489 0.52301 0.0
C438 C 0.61946 0.45464 0.52244 0.0
C439 C 0.54944 0.43528 0.52547 0.0
C440 C 0.55986 0.4755 0.52786 0.0
C441 C 0.60027 0.50514 0.52748 0.0
C442 C 0.62976 0.49485 0.52472 0.0
C443 C 0.52873 0.48698 0.52998 0.0
C444 C 0.52969 0.51546 0.51473 0.0
C445 C 0.49766 0.46933 0.5463 0.0
C446 C 0.49634 0.44103 0.56383 0.0
C447 C 0.52911 0.45176 0.57837 0.0
C448 C 0.52781 0.42483 0.59472 0.0
C449 C 0.49379 0.38717 0.59682 0.0
C450 C 0.46095 0.3764 0.58261 0.0
C451 C 0.4621 0.4032 0.56621 0.0
H452 H 0.49284 0.36637 0.6095 0.0
H453 H 0.50558 0.63214 0.4538 0.0
H454 H 0.85875 0.3328 0.8524 0.0
H455 H 0.9291 0.38448 0.85433 0.0
H456 H 0.89565 0.47525 0.85746 0.0
H457 H 0.82512 0.42376 0.85553 0.0
H458 H 0.95635 0.49244 0.82626 0.0
H459 H 0.92524 0.45099 0.90462 0.0
H460 H 0.8999 0.40223 0.93613 0.0
H461 H 0.98678 0.36766 0.92052 0.0
H462 H 0.01228 0.41585 0.88869 0.0
H463 H 0.13983 0.65759 0.85778 0.0
H464 H 0.07031 0.60425 0.8579 0.0
H465 H 0.10779 0.51642 0.86057 0.0
H466 H 0.17773 0.56985 0.86092 0.0
H467 H 0.04538 0.49625 0.88839 0.0
H468 H 0.07741 0.53708 0.81066 0.0
H469 H 0.10343 0.58507 0.77879 0.0
H470 H 0.01534 0.61899 0.79208 0.0
H471 H 0.98919 0.57165 0.82429 0.0
C472 C 0.86632 0.36375 0.85353 0.0
C473 C 0.83637 0.37421 0.85389 0.0
C474 C 0.90653 0.3932 0.85471 0.0
C475 C 0.9175 0.43361 0.85621 0.0
C476 C 0.88772 0.44419 0.85635 0.0
C477 C 0.84747 0.41474 0.85535 0.0
C478 C 0.96011 0.46489 0.85736 0.0
C479 C 0.97573 0.49364 0.83999 0.0
C480 C 0.98555 0.46558 0.87492 0.0
C481 C 0.9704 0.43674 0.89412 0.0
C482 C 0.93873 0.43275 0.90778 0.0
C483 C 0.92437 0.40526 0.92572 0.0
C484 C 0.94165 0.38178 0.93028 0.0
C485 C 0.97339 0.38583 0.91694 0.0
C486 C 0.98782 0.41325 0.89896 0.0
C487 C 0.13336 0.62695 0.85849 0.0
C488 C 0.1643 0.61792 0.8592 0.0
C489 C 0.09357 0.59648 0.85848 0.0
C490 C 0.08388 0.55635 0.85884 0.0
C491 C 0.11464 0.54721 0.86021 0.0
C492 C 0.15456 0.57775 0.86038 0.0
C493 C 0.04161 0.52408 0.85737 0.0
C494 C 0.02605 0.49507 0.87463 0.0
C495 C 0.01626 0.52293 0.83959 0.0
C496 C 0.03156 0.55106 0.82003 0.0
C497 C 0.06375 0.55496 0.80689 0.0
C498 C 0.07852 0.58203 0.78875 0.0
C499 C 0.06111 0.60513 0.78345 0.0
C500 C 0.02882 0.60111 0.79623 0.0
C501 C 0.014 0.57414 0.81442 0.0
H502 H 0.0726 0.62609 0.76941 0.0
H503 H 0.9305 0.36051 0.94418 0.0
H504 H 0.17641 0.60719 0.49173 0.0
H505 H 0.10585 0.58793 0.48857 0.0
H506 H 0.0722 0.46385 0.49392 0.0
H507 H 0.14208 0.48256 0.49742 0.0
H508 H 0.03046 0.48017 0.45935 0.0
H509 H 0.066 0.50665 0.53934 0.0
H510 H 0.10597 0.54794 0.57177 0.0
H511 H 0.07513 0.63708 0.55473 0.0
H512 H 0.03539 0.59652 0.522 0.0
H513 H 0.82494 0.38935 0.48874 0.0
H514 H 0.89609 0.41121 0.48666 0.0
H515 H 0.92493 0.53356 0.49521 0.0
H516 H 0.85442 0.51201 0.49821 0.0
H517 H 0.9704 0.5203 0.5213 0.0
H518 H 0.93277 0.4947 0.44268 0.0
H519 H 0.89322 0.45539 0.40961 0.0
H520 H 0.9285 0.36814 0.42232 0.0
H521 H 0.96782 0.40665 0.45569 0.0
C522 C 0.15402 0.5758 0.49203 0.0
C523 C 0.16496 0.54644 0.49488 0.0
C524 C 0.11378 0.56488 0.49026 0.0
C525 C 0.08396 0.52449 0.49107 0.0
C526 C 0.09483 0.49515 0.49318 0.0
C527 C 0.13486 0.506 0.49526 0.0
C528 C 0.04126 0.51262 0.49085 0.0
C529 C 0.01713 0.48865 0.47294 0.0
C530 C 0.0243 0.52446 0.50837 0.0
C531 C 0.0481 0.54877 0.52808 0.0
C532 C 0.06804 0.53522 0.54239 0.0
C533 C 0.09059 0.55846 0.56085 0.0
C534 C 0.09318 0.59518 0.56527 0.0
C535 C 0.07315 0.60867 0.55127 0.0
C536 C 0.05059 0.58556 0.53277 0.0
C537 C 0.84643 0.42093 0.49004 0.0
C538 C 0.83386 0.4489 0.49355 0.0
C539 C 0.88711 0.43341 0.48874 0.0
C540 C 0.9159 0.47413 0.4905 0.0
C541 C 0.90333 0.50202 0.49381 0.0
C542 C 0.86285 0.48958 0.49542 0.0
C543 C 0.95919 0.48778 0.4897 0.0
C544 C 0.98354 0.512 0.50753 0.0
C545 C 0.97637 0.47651 0.47195 0.0
C546 C 0.95294 0.45338 0.45182 0.0
C547 C 0.93186 0.46698 0.43853 0.0
C548 C 0.90952 0.44487 0.41972 0.0
C549 C 0.90827 0.40924 0.4139 0.0
C550 C 0.92946 0.39572 0.42686 0.0
C551 C 0.95181 0.41769 0.44571 0.0
H552 H 0.89095 0.39216 0.39933 0.0
H553 H 0.11059 0.61314 0.57957 0.0
H554 H 0.36212 0.85248 0.85793 0.0
H555 H 0.41045 0.92301 0.853 0.0
H556 H 0.46101 0.89507 0.79508 0.0
H557 H 0.41359 0.82387 0.80061 0.0
H558 H 0.51812 0.94922 0.81851 0.0
H559 H 0.39849 0.93577 0.78902 0.0
H560 H 0.32681 0.91416 0.78832 0.0
H561 H 0.34201 0.98806 0.84644 0.0
H562 H 0.41367 0.00956 0.84777 0.0
H563 H 0.57876 0.17433 0.80053 0.0
H564 H 0.5295 0.1034 0.7957 0.0
H565 H 0.58251 0.07433 0.8519 0.0
H566 H 0.63243 0.14448 0.85619 0.0
H567 H 0.4732 0.04892 0.82041 0.0
H568 H 0.57985 0.98848 0.84451 0.0
H569 H 0.65138 0.01025 0.84105 0.0
H570 H 0.66172 0.08438 0.78395 0.0
H571 H 0.59013 0.06251 0.78678 0.0
C572 C 0.38349 0.86128 0.84412 0.0
C573 C 0.38389 0.83261 0.82957 0.0
C574 C 0.411 0.90171 0.84122 0.0
C575 C 0.43882 0.91455 0.82332 0.0
C576 C 0.43971 0.88593 0.80895 0.0
C577 C 0.41259 0.84528 0.81211 0.0
C578 C 0.46731 0.95782 0.82004 0.0
C579 C 0.50826 0.97097 0.81877 0.0
C580 C 0.45445 0.98628 0.81955 0.0
C581 C 0.41148 0.97412 0.81856 0.0
C582 C 0.38653 0.94728 0.80172 0.0
C583 C 0.34589 0.93503 0.80122 0.0
C584 C 0.32986 0.9497 0.81734 0.0
C585 C 0.35447 0.97673 0.83396 0.0
C586 C 0.39513 0.98899 0.83458 0.0
C587 C 0.57982 0.15275 0.81184 0.0
C588 C 0.60974 0.16495 0.82857 0.0
C589 C 0.55166 0.11226 0.80908 0.0
C590 C 0.55282 0.0834 0.82311 0.0
C591 C 0.5817 0.09584 0.84041 0.0
C592 C 0.61014 0.13606 0.84292 0.0
C593 C 0.52398 0.04023 0.81989 0.0
C594 C 0.48299 0.02712 0.81985 0.0
C595 C 0.53675 0.0118 0.81829 0.0
C596 C 0.5796 0.02401 0.81597 0.0
C597 C 0.59729 0.00915 0.83109 0.0
C598 C 0.63788 0.02157 0.82926 0.0
C599 C 0.6611 0.04875 0.81233 0.0
C600 C 0.64373 0.06339 0.79709 0.0
C601 C 0.60314 0.05099 0.7988 0.0
H602 H 0.69254 0.05842 0.81099 0.0
H603 H 0.29838 0.94015 0.81693 0.0
H604 H 0.50512 0.65482 0.18461 0.0
H605 H 0.52679 0.60582 0.18176 0.0
H606 H 0.41441 0.52183 0.15096 0.0
H607 H 0.39213 0.57084 0.15367 0.0
H608 H 0.44061 0.48852 0.18506 0.0
H609 H 0.49202 0.57023 0.11774 0.0
H610 H 0.52837 0.63464 0.09757 0.0
H611 H 0.63593 0.66146 0.13318 0.0
H612 H 0.60003 0.59748 0.15388 0.0
H613 H 0.49439 0.35034 0.14847 0.0
H614 H 0.47294 0.39972 0.14761 0.0
H615 H 0.59033 0.49076 0.16919 0.0
H616 H 0.61246 0.4414 0.16914 0.0
H617 H 0.56122 0.52083 0.13947 0.0
H618 H 0.51225 0.44218 0.20738 0.0
H619 H 0.47751 0.37951 0.22933 0.0
H620 H 0.36765 0.34908 0.1953 0.0
H621 H 0.40189 0.41124 0.17281 0.0
C622 C 0.48484 0.62599 0.17721 0.0
C623 C 0.44696 0.61698 0.16912 0.0
C624 C 0.49738 0.59803 0.1756 0.0
C625 C 0.47239 0.56049 0.16589 0.0
C626 C 0.43414 0.55079 0.15842 0.0
C627 C 0.42156 0.57887 0.15992 0.0
C628 C 0.4867 0.53173 0.16323 0.0
C629 C 0.46659 0.49523 0.17483 0.0
C630 C 0.52133 0.54123 0.15042 0.0
C631 C 0.54325 0.57918 0.13749 0.0
C632 C 0.52338 0.58995 0.12136 0.0
C633 C 0.5439 0.62639 0.10983 0.0
C634 C 0.58441 0.65217 0.11413 0.0
C635 C 0.60453 0.64147 0.12989 0.0
C636 C 0.58412 0.60511 0.14151 0.0
C637 C 0.51572 0.3809 0.15288 0.0
C638 C 0.55489 0.39194 0.15922 0.0
C639 C 0.50341 0.40911 0.15242 0.0
C640 C 0.52969 0.4487 0.15896 0.0
C641 C 0.56946 0.46028 0.16425 0.0
C642 C 0.58205 0.43212 0.16425 0.0
C643 C 0.51503 0.47735 0.16124 0.0
C644 C 0.53513 0.51394 0.14965 0.0
C645 C 0.48065 0.46815 0.17432 0.0
C646 C 0.45973 0.43124 0.18827 0.0
C647 C 0.48072 0.42204 0.20449 0.0
C648 C 0.46113 0.3866 0.21703 0.0
C649 C 0.42042 0.3603 0.21368 0.0
C650 C 0.39919 0.36947 0.19785 0.0
C651 C 0.41867 0.40481 0.18521 0.0
H652 H 0.4053 0.33285 0.22338 0.0
H653 H 0.60023 0.6804 0.10522 0.0
H654 H 0.61884 0.28545 0.89355 0.0
H655 H 0.60558 0.29404 0.93323 0.0
H656 H 0.71554 0.30003 0.95368 0.0
H657 H 0.72856 0.29033 0.91411 0.0
H658 H 0.65837 0.25598 0.9828 0.0
H659 H 0.70715 0.38433 0.94825 0.0
H660 H 0.70881 0.43137 0.9193 0.0
H661 H 0.59006 0.40262 0.93788 0.0
H662 H 0.58739 0.35482 0.96667 0.0
H663 H 0.67791 0.34187 0.09186 0.0
H664 H 0.68943 0.33436 0.05165 0.0
H665 H 0.57168 0.31259 0.03497 0.0
H666 H 0.55973 0.31998 0.07525 0.0
H667 H 0.63162 0.36456 0.00409 0.0
H668 H 0.5843 0.23606 0.03906 0.0
H669 H 0.58454 0.19025 0.06821 0.0
H670 H 0.70384 0.22174 0.04904 0.0
H671 H 0.70455 0.26828 0.02001 0.0
C672 C 0.64022 0.28851 0.90646 0.0
C673 C 0.6749 0.28741 0.90059 0.0
C674 C 0.63265 0.29358 0.92916 0.0
C675 C 0.65988 0.29832 0.9464 0.0
C676 C 0.69414 0.29651 0.94066 0.0
C677 C 0.70158 0.29106 0.918 0.0
C678 C 0.65282 0.30541 0.97041 0.0
C679 C 0.65302 0.28004 0.98746 0.0
C680 C 0.64512 0.33638 0.97647 0.0
C681 C 0.64693 0.3657 0.95948 0.0
C682 C 0.68129 0.38785 0.94607 0.0
C683 C 0.68242 0.41465 0.92969 0.0
C684 C 0.64953 0.41991 0.92671 0.0
C685 C 0.61549 0.39847 0.94018 0.0
C686 C 0.61416 0.37152 0.95654 0.0
C687 C 0.65451 0.33579 0.07965 0.0
C688 C 0.61781 0.33136 0.08677 0.0
C689 C 0.66115 0.33142 0.05669 0.0
C690 C 0.63127 0.32259 0.04041 0.0
C691 C 0.59508 0.3194 0.04731 0.0
C692 C 0.58829 0.32351 0.07032 0.0
C693 C 0.63737 0.31524 0.01634 0.0
C694 C 0.63695 0.34053 0.99934 0.0
C695 C 0.64522 0.28443 0.01032 0.0
C696 C 0.6446 0.25593 0.0275 0.0
C697 C 0.61069 0.23343 0.04116 0.0
C698 C 0.61064 0.20731 0.05766 0.0
C699 C 0.64422 0.20315 0.06051 0.0
C700 C 0.67787 0.22502 0.04682 0.0
C701 C 0.6781 0.25126 0.03034 0.0
H702 H 0.64414 0.18293 0.0733 0.0
H703 H 0.65045 0.44066 0.91401 0.0
H704 H 0.43042 0.73749 0.24988 0.0
H705 H 0.40891 0.72222 0.28955 0.0
H706 H 0.30976 0.60859 0.26902 0.0
H707 H 0.33025 0.62416 0.22919 0.0
H708 H 0.28652 0.64076 0.3007 0.0
H709 H 0.39632 0.61735 0.29203 0.0
H710 H 0.46468 0.63504 0.28094 0.0
H711 H 0.5127 0.73133 0.32931 0.0
H712 H 0.44459 0.71463 0.34043 0.0
H713 H 0.24676 0.55105 0.41133 0.0
H714 H 0.26473 0.56619 0.37103 0.0
H715 H 0.35796 0.68459 0.38925 0.0
H716 H 0.34038 0.6698 0.42947 0.0
H717 H 0.38355 0.64853 0.35873 0.0
H718 H 0.27278 0.67139 0.36693 0.0
H719 H 0.20409 0.65354 0.37733 0.0
H720 H 0.15753 0.5563 0.32961 0.0
H721 H 0.22599 0.57325 0.31914 0.0
C722 C 0.40395 0.70929 0.25377 0.0
C723 C 0.38227 0.68191 0.23635 0.0
C724 C 0.39177 0.70053 0.27649 0.0
C725 C 0.35815 0.66391 0.28233 0.0
C726 C 0.33586 0.63697 0.26493 0.0
C727 C 0.34772 0.6459 0.24216 0.0
C728 C 0.34669 0.65336 0.3066 0.0
C729 C 0.30759 0.64192 0.31332 0.0
C730 C 0.37434 0.65546 0.32316 0.0
C731 C 0.41534 0.66494 0.31693 0.0
C732 C 0.42146 0.64242 0.30023 0.0
C733 C 0.46016 0.65227 0.29393 0.0
C734 C 0.49302 0.68435 0.30438 0.0
C735 C 0.48722 0.70652 0.32122 0.0
C736 C 0.44857 0.69685 0.32754 0.0
C737 C 0.27101 0.58034 0.40676 0.0
C738 C 0.29201 0.60926 0.42361 0.0
C739 C 0.28118 0.58897 0.38372 0.0
C740 C 0.3125 0.62661 0.37716 0.0
C741 C 0.3337 0.65537 0.39396 0.0
C742 C 0.32347 0.64687 0.41694 0.0
C743 C 0.32348 0.63609 0.3528 0.0
C744 C 0.36249 0.64727 0.34607 0.0
C745 C 0.29568 0.63347 0.33622 0.0
C746 C 0.2545 0.62334 0.34243 0.0
C747 C 0.24789 0.646 0.35879 0.0
C748 C 0.209 0.63608 0.36467 0.0
C749 C 0.17646 0.60374 0.35419 0.0
C750 C 0.18276 0.58131 0.33774 0.0
C751 C 0.2216 0.59107 0.33182 0.0
H752 H 0.14638 0.59611 0.35876 0.0
H753 H 0.52296 0.69198 0.29945 0.0
H754 H 0.67699 0.34871 0.76059 0.0
H755 H 0.68455 0.36932 0.7207 0.0
H756 H 0.68615 0.26272 0.70088 0.0
H757 H 0.67992 0.24254 0.74092 0.0
H758 H 0.74143 0.32373 0.67861 0.0
H759 H 0.6026 0.27408 0.69298 0.0
H760 H 0.54427 0.26857 0.7133 0.0
H761 H 0.58483 0.3921 0.69971 0.0
H762 H 0.64373 0.3985 0.67957 0.0
H763 H 0.70619 0.33162 0.56045 0.0
H764 H 0.6996 0.31256 0.60054 0.0
H765 H 0.71173 0.42565 0.61985 0.0
H766 H 0.71815 0.4451 0.57966 0.0
H767 H 0.64975 0.36208 0.64219 0.0
H768 H 0.78859 0.41015 0.62706 0.0
H769 H 0.84533 0.41353 0.60598 0.0
H770 H 0.80229 0.28973 0.62025 0.0
H771 H 0.74494 0.28546 0.64114 0.0
C772 C 0.67877 0.32952 0.74774 0.0
C773 C 0.6776 0.29383 0.75391 0.0
C774 C 0.68293 0.34129 0.72491 0.0
C775 C 0.68526 0.31727 0.7077 0.0
C776 C 0.68432 0.28171 0.71384 0.0
C777 C 0.68062 0.27014 0.73673 0.0
C778 C 0.68938 0.32959 0.68336 0.0
C779 C 0.72101 0.33156 0.67059 0.0
C780 C 0.66329 0.34068 0.67295 0.0
C781 C 0.62778 0.33686 0.68495 0.0
C782 C 0.59924 0.30015 0.69446 0.0
C783 C 0.56605 0.29685 0.70593 0.0
C784 C 0.5609 0.32999 0.70785 0.0
C785 C 0.58888 0.36647 0.69824 0.0
C786 C 0.62216 0.36994 0.68678 0.0
C787 C 0.70756 0.3526 0.57316 0.0
C788 C 0.7128 0.39 0.56676 0.0
C789 C 0.70391 0.34164 0.59611 0.0
C790 C 0.70553 0.36783 0.61318 0.0
C791 C 0.71046 0.40504 0.60692 0.0
C792 C 0.71427 0.41614 0.58394 0.0
C793 C 0.70167 0.35609 0.63755 0.0
C794 C 0.67012 0.35425 0.65028 0.0
C795 C 0.72759 0.34478 0.64786 0.0
C796 C 0.76228 0.3474 0.6355 0.0
C797 C 0.79106 0.38357 0.62556 0.0
C798 C 0.82336 0.38566 0.61367 0.0
C799 C 0.82736 0.35185 0.61173 0.0
C800 C 0.79913 0.31589 0.62174 0.0
C801 C 0.76675 0.31363 0.63363 0.0
H802 H 0.85238 0.35352 0.6025 0.0
H803 H 0.53519 0.32738 0.71673 0.0
H804 H 0.38562 0.71699 0.89504 0.0
H805 H 0.40239 0.71149 0.93455 0.0
H806 H 0.2918 0.7019 0.95707 0.0
H807 H 0.27528 0.70851 0.91776 0.0
H808 H 0.35005 0.74939 0.98456 0.0
H809 H 0.30457 0.61967 0.95181 0.0
H810 H 0.30451 0.5726 0.92342 0.0
H811 H 0.42544 0.60792 0.94103 0.0
H812 H 0.42646 0.65575 0.96925 0.0
H813 H 0.32887 0.66524 0.09349 0.0
H814 H 0.31952 0.67254 0.05298 0.0
H815 H 0.43906 0.69694 0.03906 0.0
H816 H 0.44885 0.68969 0.07975 0.0
H817 H 0.38139 0.64446 0.00712 0.0
H818 H 0.42476 0.77246 0.04132 0.0
H819 H 0.42294 0.81811 0.07002 0.0
H820 H 0.30332 0.78387 0.04993 0.0
H821 H 0.3042 0.73751 0.02134 0.0
C822 C 0.36486 0.71379 0.90839 0.0
C823 C 0.32899 0.71302 0.90318 0.0
C824 C 0.37445 0.71049 0.93098 0.0
C825 C 0.3481 0.70571 0.94877 0.0
C826 C 0.31259 0.70554 0.94364 0.0
C827 C 0.30315 0.70922 0.92111 0.0
C828 C 0.3572 0.70059 0.97274 0.0
C829 C 0.35651 0.72618 0.98949 0.0
C830 C 0.36654 0.67088 0.97914 0.0
C831 C 0.36572 0.64159 0.96248 0.0
C832 C 0.33124 0.61758 0.94953 0.0
C833 C 0.33102 0.59076 0.93347 0.0
C834 C 0.36498 0.58734 0.93038 0.0
C835 C 0.39918 0.61065 0.94341 0.0
C836 C 0.39959 0.63761 0.95945 0.0
C837 C 0.35316 0.6719 0.08185 0.0
C838 C 0.38971 0.67708 0.08988 0.0
C839 C 0.34776 0.67613 0.0587 0.0
C840 C 0.37874 0.68567 0.0431 0.0
C841 C 0.41483 0.68961 0.05088 0.0
C842 C 0.42037 0.68557 0.07412 0.0
C843 C 0.37365 0.69288 0.01883 0.0
C844 C 0.37516 0.66777 0.00208 0.0
C845 C 0.36479 0.72284 0.01241 0.0
C846 C 0.36444 0.75127 0.0293 0.0
C847 C 0.39797 0.77447 0.04312 0.0
C848 C 0.39712 0.80049 0.05936 0.0
C849 C 0.36301 0.80382 0.06183 0.0
C850 C 0.32972 0.78123 0.04801 0.0
C851 C 0.33039 0.75511 0.03176 0.0
H852 H 0.36239 0.82395 0.07443 0.0
H853 H 0.36477 0.56658 0.91793 0.0
H854 H 0.76115 0.43298 0.40775 0.0
H855 H 0.74147 0.42025 0.36764 0.0
H856 H 0.63207 0.31414 0.38664 0.0
H857 H 0.65232 0.32585 0.42669 0.0
H858 H 0.65982 0.30003 0.3494 0.0
H859 H 0.63617 0.40437 0.37423 0.0
H860 H 0.65445 0.46903 0.39206 0.0
H861 H 0.74447 0.53011 0.34101 0.0
H862 H 0.72713 0.46572 0.32307 0.0
H863 H 0.55534 0.281 0.24607 0.0
H864 H 0.57531 0.29265 0.28618 0.0
H865 H 0.69096 0.38971 0.2669 0.0
H866 H 0.67138 0.37854 0.22679 0.0
H867 H 0.65898 0.40803 0.30415 0.0
H868 H 0.68098 0.30147 0.27964 0.0
H869 H 0.66065 0.236 0.26224 0.0
H870 H 0.5698 0.17811 0.31325 0.0
H871 H 0.58926 0.24336 0.33078 0.0
C872 C 0.73302 0.4068 0.40337 0.0
C873 C 0.7082 0.38054 0.42039 0.0
C874 C 0.7217 0.39965 0.38044 0.0
C875 C 0.68488 0.36665 0.37413 0.0
C876 C 0.66055 0.33984 0.39107 0.0
C877 C 0.67214 0.34663 0.41397 0.0
C878 C 0.6713 0.36059 0.34998 0.0
C879 C 0.65918 0.3235 0.33962 0.0
C880 C 0.67085 0.39133 0.33706 0.0
C881 C 0.68058 0.43019 0.34742 0.0
C882 C 0.65998 0.43158 0.36686 0.0
C883 C 0.67019 0.46818 0.37699 0.0
C884 C 0.70069 0.50365 0.36771 0.0
C885 C 0.72089 0.5026 0.3482 0.0
C886 C 0.71086 0.46607 0.33802 0.0
C887 C 0.58498 0.30495 0.25032 0.0
C888 C 0.61181 0.32865 0.23313 0.0
C889 C 0.59636 0.31148 0.27326 0.0
C890 C 0.63475 0.34179 0.27947 0.0
C891 C 0.66122 0.36613 0.26246 0.0
C892 C 0.64997 0.35955 0.23951 0.0
C893 C 0.64768 0.3476 0.30367 0.0
C894 C 0.65962 0.38461 0.314 0.0
C895 C 0.64753 0.31666 0.31662 0.0
C896 C 0.63635 0.27734 0.3064 0.0
C897 C 0.65652 0.27481 0.28707 0.0
C898 C 0.64517 0.23774 0.2772 0.0
C899 C 0.6139 0.20292 0.28661 0.0
C900 C 0.59401 0.20511 0.30597 0.0
C901 C 0.60521 0.24212 0.3159 0.0
H902 H 0.60514 0.17426 0.27892 0.0
H903 H 0.70861 0.53195 0.37562 0.0
H904 H 0.34946 0.67135 0.75955 0.0
H905 H 0.34183 0.6515 0.71939 0.0
H906 H 0.27107 0.70745 0.70767 0.0
H907 H 0.27872 0.72768 0.7478 0.0
H908 H 0.2381 0.63076 0.68828 0.0
H909 H 0.36276 0.75456 0.69047 0.0
H910 H 0.43057 0.80116 0.70451 0.0
H911 H 0.46883 0.71855 0.68517 0.0
H912 H 0.40104 0.67117 0.67132 0.0
H913 H 0.30887 0.66797 0.56277 0.0
H914 H 0.31477 0.68853 0.60256 0.0
H915 H 0.26287 0.56592 0.62401 0.0
H916 H 0.25712 0.54484 0.58413 0.0
H917 H 0.35663 0.67823 0.63809 0.0
H918 H 0.20283 0.55584 0.67086 0.0
H919 H 0.13498 0.51192 0.65584 0.0
H920 H 0.15476 0.59783 0.60368 0.0
H921 H 0.22233 0.64248 0.61861 0.0
C922 C 0.3323 0.67948 0.74843 0.0
C923 C 0.31488 0.70128 0.75681 0.0
C924 C 0.32801 0.66814 0.72551 0.0
C925 C 0.30601 0.67815 0.71059 0.0
C926 C 0.28813 0.69944 0.71895 0.0
C927 C 0.29276 0.71118 0.74183 0.0
C928 C 0.30212 0.66682 0.68619 0.0
C929 C 0.26399 0.64106 0.67731 0.0
C930 C 0.3359 0.68066 0.67185 0.0
C931 C 0.37672 0.70916 0.68007 0.0
C932 C 0.38554 0.74618 0.68939 0.0
C933 C 0.42399 0.77276 0.69728 0.0
C934 C 0.45397 0.76278 0.69579 0.0
C935 C 0.44557 0.72622 0.68634 0.0
C936 C 0.40715 0.69951 0.67845 0.0
C937 C 0.29873 0.64524 0.57587 0.0
C938 C 0.28264 0.60469 0.57018 0.0
C939 C 0.30226 0.65714 0.59863 0.0
C940 C 0.28924 0.62876 0.61618 0.0
C941 C 0.27293 0.58825 0.61066 0.0
C942 C 0.26974 0.5763 0.58786 0.0
C943 C 0.29268 0.64172 0.64026 0.0
C944 C 0.33075 0.66777 0.64909 0.0
C945 C 0.25882 0.62848 0.65446 0.0
C946 C 0.2178 0.60228 0.64572 0.0
C947 C 0.19259 0.56542 0.65626 0.0
C948 C 0.15418 0.54039 0.64775 0.0
C949 C 0.14059 0.55201 0.62876 0.0
C950 C 0.16531 0.58878 0.61833 0.0
C951 C 0.20369 0.61394 0.62679 0.0
H952 H 0.11088 0.53256 0.62216 0.0
H953 H 0.48372 0.7834 0.7019 0.0
loop_
_geom_bond_atom_site_label_1
_geom_bond_atom_site_label_2
_geom_bond_distance
_geom_bond_site_symmetry_2
_ccdc_geom_bond_type
Co0 O2 2.143 . S
Co0 O8 2.074 . S
Co0 O11 2.093 . S
Co0 O24 2.097 . S
Co0 N41 2.151 . S
Co0 N49 2.214 . S
Co1 O2 2.160 . S
Co1 O7 2.058 . S
Co1 O17 2.057 . S
Co1 O32 2.037 . S
Co1 N36 2.145 . S
Co1 N57 2.257 . S
O2 Co0 2.143 . S
O2 Co1 2.160 . S
C3 O4 1.278 . S
C3 O11 1.224 . S
O4 C3 1.278 . S
C5 O6 1.245 . S
C5 O17 1.232 . S
O6 C5 1.245 . S
O7 Co1 2.058 . S
O7 C33 1.269 . S
O8 Co0 2.074 . S
O8 C33 1.257 . S
H9 C34 0.930 . S
H10 C40 0.930 . S
O11 Co0 2.093 . S
O11 C3 1.224 . S
H12 C44 0.929 . S
H13 C46 0.930 . S
H14 C47 0.930 . S
H15 C45 0.929 . S
H16 C48 0.928 . S
O17 Co1 2.057 . S
O17 C5 1.232 . S
H18 C37 0.929 . S
H19 C38 0.929 . S
H20 C50 0.931 . S
H21 C42 0.929 . S
H22 C51 0.930 . S
H23 C43 0.931 . S
O24 Co0 2.097 . S
O24 C52 1.214 . S
H25 C53 0.929 . S
H26 C54 0.929 . S
H27 C55 0.930 . S
H28 C56 0.929 . S
H29 C58 0.930 . S
H30 C35 0.930 . S
H31 C39 0.930 . S
O32 Co1 2.037 . S
O32 C52 1.234 . S
C33 O7 1.269 . S
C33 O8 1.257 . S
C34 H9 0.930 . S
C34 C37 1.388 . S
C34 C39 1.418 . S
C35 H30 0.930 . S
C35 C38 1.404 . S
C35 C39 1.353 . S
N36 Co1 2.145 . S
N36 C37 1.397 . S
N36 C38 1.334 . S
C37 H18 0.929 . S
C37 C34 1.388 . S
C37 N36 1.397 . S
C38 H19 0.929 . S
C38 C35 1.404 . S
C38 N36 1.334 . S
C39 H31 0.930 . S
C39 C34 1.418 . S
C39 C35 1.353 . S
C40 H10 0.930 . S
C40 N41 1.330 . S
C40 C42 1.446 . S
N41 Co0 2.151 . S
N41 C40 1.330 . S
N41 C45 1.418 . S
C42 H21 0.929 . S
C42 C40 1.446 . S
C42 C43 1.332 . S
C43 H23 0.931 . S
C43 C42 1.332 . S
C43 C44 1.267 . S
C44 H12 0.929 . S
C44 C43 1.267 . S
C44 C45 1.251 . S
C45 H15 0.929 . S
C45 N41 1.418 . S
C45 C44 1.251 . S
C46 H13 0.930 . S
C46 C48 1.406 . S
C46 C51 1.261 . S
C47 H14 0.930 . S
C47 N49 1.325 . S
C47 C50 1.357 . S
C48 H16 0.928 . S
C48 C46 1.406 . S
C48 N49 1.261 . S
N49 Co0 2.214 . S
N49 C47 1.325 . S
N49 C48 1.261 . S
C50 H20 0.931 . S
C50 C47 1.357 . S
C50 C51 1.312 . S
C51 H22 0.930 . S
C51 C46 1.261 . S
C51 C50 1.312 . S
C52 O24 1.214 . S
C52 O32 1.234 . S
C53 H25 0.929 . S
C53 C56 1.391 . S
C53 C58 1.391 . S
C54 H26 0.929 . S
C54 C55 1.390 . S
C54 N57 1.391 . S
C55 H27 0.930 . S
C55 C54 1.390 . S
C55 C56 1.392 . S
C56 H28 0.929 . S
C56 C53 1.391 . S
C56 C55 1.392 . S
N57 Co1 2.257 . S
N57 C54 1.391 . S
N57 C58 1.388 . S
C58 H29 0.930 . S
C58 C53 1.391 . S
C58 N57 1.388 . S
Co59 O61 2.143 . S
Co59 O67 2.074 . S
Co59 O70 2.093 . S
Co59 O83 2.097 . S
Co59 N100 2.151 . S
Co59 N108 2.214 . S
Co60 O61 2.160 . S
Co60 O66 2.058 . S
Co60 O76 2.057 . S
Co60 O91 2.037 . S
Co60 N95 2.145 . S
Co60 N116 2.257 . S
O61 Co59 2.143 . S
O61 Co60 2.160 . S
C62 O63 1.278 . S
C62 O70 1.224 . S
O63 C62 1.278 . S
C64 O65 1.245 . S
C64 O76 1.232 . S
O65 C64 1.245 . S
O66 Co60 2.058 . S
O66 C92 1.269 . S
O67 Co59 2.074 . S
O67 C92 1.257 . S
H68 C93 0.930 . S
H69 C99 0.930 . S
O70 Co59 2.093 . S
O70 C62 1.224 . S
H71 C103 0.929 . S
H72 C105 0.930 . S
H73 C106 0.930 . S
H74 C104 0.929 . S
H75 C107 0.928 . S
O76 Co60 2.057 . S
O76 C64 1.232 . S
H77 C96 0.929 . S
H78 C97 0.929 . S
H79 C109 0.931 . S
H80 C101 0.929 . S
H81 C110 0.930 . S
H82 C102 0.931 . S
O83 Co59 2.097 . S
O83 C111 1.214 . S
H84 C112 0.929 . S
H85 C113 0.929 . S
H86 C114 0.930 . S
H87 C115 0.929 . S
H88 C117 0.930 . S
H89 C94 0.930 . S
H90 C98 0.930 . S
O91 Co60 2.037 . S
O91 C111 1.234 . S
C92 O66 1.269 . S
C92 O67 1.257 . S
C93 H68 0.930 . S
C93 C96 1.388 . S
C93 C98 1.418 . S
C94 H89 0.930 . S
C94 C97 1.404 . S
C94 C98 1.353 . S
N95 Co60 2.145 . S
N95 C96 1.397 . S
N95 C97 1.334 . S
C96 H77 0.929 . S
C96 C93 1.388 . S
C96 N95 1.397 . S
C97 H78 0.929 . S
C97 C94 1.404 . S
C97 N95 1.334 . S
C98 H90 0.930 . S
C98 C93 1.418 . S
C98 C94 1.353 . S
C99 H69 0.930 . S
C99 N100 1.330 . S
C99 C101 1.446 . S
N100 Co59 2.151 . S
N100 C99 1.330 . S
N100 C104 1.418 . S
C101 H80 0.929 . S
C101 C99 1.446 . S
C101 C102 1.332 . S
C102 H82 0.931 . S
C102 C101 1.332 . S
C102 C103 1.267 . S
C103 H71 0.929 . S
C103 C102 1.267 . S
C103 C104 1.251 . S
C104 H74 0.929 . S
C104 N100 1.418 . S
C104 C103 1.251 . S
C105 H72 0.930 . S
C105 C107 1.406 . S
C105 C110 1.261 . S
C106 H73 0.930 . S
C106 N108 1.325 . S
C106 C109 1.357 . S
C107 H75 0.928 . S
C107 C105 1.406 . S
C107 N108 1.261 . S
N108 Co59 2.214 . S
N108 C106 1.325 . S
N108 C107 1.261 . S
C109 H79 0.931 . S
C109 C106 1.357 . S
C109 C110 1.312 . S
C110 H81 0.930 . S
C110 C105 1.261 . S
C110 C109 1.312 . S
C111 O83 1.214 . S
C111 O91 1.234 . S
C112 H84 0.929 . S
C112 C115 1.391 . S
C112 C117 1.391 . S
C113 H85 0.929 . S
C113 C114 1.390 . S
C113 N116 1.391 . S
C114 H86 0.930 . S
C114 C113 1.390 . S
C114 C115 1.392 . S
C115 H87 0.929 . S
C115 C112 1.391 . S
C115 C114 1.392 . S
N116 Co60 2.257 . S
N116 C113 1.391 . S
N116 C117 1.388 . S
C117 H88 0.930 . S
C117 C112 1.391 . S
C117 N116 1.388 . S
Co118 O120 2.143 . S
Co118 O126 2.074 . S
Co118 O129 2.093 . S
Co118 O142 2.097 . S
Co118 N159 2.151 . S
Co118 N167 2.214 . S
Co119 O120 2.160 . S
Co119 O125 2.058 . S
Co119 O135 2.057 . S
Co119 O150 2.037 . S
Co119 N154 2.145 . S
Co119 N175 2.257 . S
O120 Co118 2.143 . S
O120 Co119 2.160 . S
C121 O122 1.278 . S
C121 O129 1.224 . S
O122 C121 1.278 . S
C123 O124 1.245 . S
C123 O135 1.232 . S
O124 C123 1.245 . S
O125 Co119 2.058 . S
O125 C151 1.269 . S
O126 Co118 2.074 . S
O126 C151 1.257 . S
H127 C152 0.930 . S
H128 C158 0.930 . S
O129 Co118 2.093 . S
O129 C121 1.224 . S
H130 C162 0.929 . S
H131 C164 0.930 . S
H132 C165 0.930 . S
H133 C163 0.929 . S
H134 C166 0.928 . S
O135 Co119 2.057 . S
O135 C123 1.232 . S
H136 C155 0.929 . S
H137 C156 0.929 . S
H138 C168 0.931 . S
H139 C160 0.929 . S
H140 C169 0.930 . S
H141 C161 0.931 . S
O142 Co118 2.097 . S
O142 C170 1.214 . S
H143 C171 0.929 . S
H144 C172 0.929 . S
H145 C173 0.930 . S
H146 C174 0.929 . S
H147 C176 0.930 . S
H148 C153 0.930 . S
H149 C157 0.930 . S
O150 Co119 2.037 . S
O150 C170 1.234 . S
C151 O125 1.269 . S
C151 O126 1.257 . S
C152 H127 0.930 . S
C152 C155 1.388 . S
C152 C157 1.418 . S
C153 H148 0.930 . S
C153 C156 1.404 . S
C153 C157 1.353 . S
N154 Co119 2.145 . S
N154 C155 1.397 . S
N154 C156 1.334 . S
C155 H136 0.929 . S
C155 C152 1.388 . S
C155 N154 1.397 . S
C156 H137 0.929 . S
C156 C153 1.404 . S
C156 N154 1.334 . S
C157 H149 0.930 . S
C157 C152 1.418 . S
C157 C153 1.353 . S
C158 H128 0.930 . S
C158 N159 1.330 . S
C158 C160 1.446 . S
N159 Co118 2.151 . S
N159 C158 1.330 . S
N159 C163 1.418 . S
C160 H139 0.929 . S
C160 C158 1.446 . S
C160 C161 1.332 . S
C161 H141 0.931 . S
C161 C160 1.332 . S
C161 C162 1.267 . S
C162 H130 0.929 . S
C162 C161 1.267 . S
C162 C163 1.251 . S
C163 H133 0.929 . S
C163 N159 1.418 . S
C163 C162 1.251 . S
C164 H131 0.930 . S
C164 C166 1.406 . S
C164 C169 1.261 . S
C165 H132 0.930 . S
C165 N167 1.325 . S
C165 C168 1.357 . S
C166 H134 0.928 . S
C166 C164 1.406 . S
C166 N167 1.261 . S
N167 Co118 2.214 . S
N167 C165 1.325 . S
N167 C166 1.261 . S
C168 H138 0.931 . S
C168 C165 1.357 . S
C168 C169 1.312 . S
C169 H140 0.930 . S
C169 C164 1.261 . S
C169 C168 1.312 . S
C170 O142 1.214 . S
C170 O150 1.234 . S
C171 H143 0.929 . S
C171 C174 1.391 . S
C171 C176 1.391 . S
C172 H144 0.929 . S
C172 C173 1.390 . S
C172 N175 1.391 . S
C173 H145 0.930 . S
C173 C172 1.390 . S
C173 C174 1.392 . S
C174 H146 0.929 . S
C174 C171 1.391 . S
C174 C173 1.392 . S
N175 Co119 2.257 . S
N175 C172 1.391 . S
N175 C176 1.388 . S
C176 H147 0.930 . S
C176 C171 1.391 . S
C176 N175 1.388 . S
Co177 O179 2.143 . S
Co177 O185 2.074 . S
Co177 O188 2.093 . S
Co177 O201 2.097 . S
Co177 N218 2.151 . S
Co177 N226 2.214 . S
Co178 O179 2.160 . S
Co178 O184 2.058 . S
Co178 O194 2.057 . S
Co178 O209 2.037 . S
Co178 N213 2.145 . S
Co178 N234 2.257 . S
O179 Co177 2.143 . S
O179 Co178 2.160 . S
C180 O181 1.278 . S
C180 O188 1.224 . S
O181 C180 1.278 . S
C182 O183 1.245 . S
C182 O194 1.232 . S
O183 C182 1.245 . S
O184 Co178 2.058 . S
O184 C210 1.269 . S
O185 Co177 2.074 . S
O185 C210 1.257 . S
H186 C211 0.930 . S
H187 C217 0.930 . S
O188 Co177 2.093 . S
O188 C180 1.224 . S
H189 C221 0.929 . S
H190 C223 0.930 . S
H191 C224 0.930 . S
H192 C222 0.929 . S
H193 C225 0.928 . S
O194 Co178 2.057 . S
O194 C182 1.232 . S
H195 C214 0.929 . S
H196 C215 0.929 . S
H197 C227 0.931 . S
H198 C219 0.929 . S
H199 C228 0.930 . S
H200 C220 0.931 . S
O201 Co177 2.097 . S
O201 C229 1.214 . S
H202 C230 0.929 . S
H203 C231 0.929 . S
H204 C232 0.930 . S
H205 C233 0.929 . S
H206 C235 0.930 . S
H207 C212 0.930 . S
H208 C216 0.930 . S
O209 Co178 2.037 . S
O209 C229 1.234 . S
C210 O184 1.269 . S
C210 O185 1.257 . S
C211 H186 0.930 . S
C211 C214 1.388 . S
C211 C216 1.418 . S
C212 H207 0.930 . S
C212 C215 1.404 . S
C212 C216 1.353 . S
N213 Co178 2.145 . S
N213 C214 1.397 . S
N213 C215 1.334 . S
C214 H195 0.929 . S
C214 C211 1.388 . S
C214 N213 1.397 . S
C215 H196 0.929 . S
C215 C212 1.404 . S
C215 N213 1.334 . S
C216 H208 0.930 . S
C216 C211 1.418 . S
C216 C212 1.353 . S
C217 H187 0.930 . S
C217 N218 1.330 . S
C217 C219 1.446 . S
N218 Co177 2.151 . S
N218 C217 1.330 . S
N218 C222 1.418 . S
C219 H198 0.929 . S
C219 C217 1.446 . S
C219 C220 1.332 . S
C220 H200 0.931 . S
C220 C219 1.332 . S
C220 C221 1.267 . S
C221 H189 0.929 . S
C221 C220 1.267 . S
C221 C222 1.251 . S
C222 H192 0.929 . S
C222 N218 1.418 . S
C222 C221 1.251 . S
C223 H190 0.930 . S
C223 C225 1.406 . S
C223 C228 1.261 . S
C224 H191 0.930 . S
C224 N226 1.325 . S
C224 C227 1.357 . S
C225 H193 0.928 . S
C225 C223 1.406 . S
C225 N226 1.261 . S
N226 Co177 2.214 . S
N226 C224 1.325 . S
N226 C225 1.261 . S
C227 H197 0.931 . S
C227 C224 1.357 . S
C227 C228 1.312 . S
C228 H199 0.930 . S
C228 C223 1.261 . S
C228 C227 1.312 . S
C229 O201 1.214 . S
C229 O209 1.234 . S
C230 H202 0.929 . S
C230 C233 1.391 . S
C230 C235 1.391 . S
C231 H203 0.929 . S
C231 C232 1.390 . S
C231 N234 1.391 . S
C232 H204 0.930 . S
C232 C231 1.390 . S
C232 C233 1.392 . S
C233 H205 0.929 . S
C233 C230 1.391 . S
C233 C232 1.392 . S
N234 Co178 2.257 . S
N234 C231 1.391 . S
N234 C235 1.388 . S
C235 H206 0.930 . S
C235 C230 1.391 . S
C235 N234 1.388 . S
Co236 O238 2.143 . S
Co236 O244 2.074 . S
Co236 O247 2.093 . S
Co236 O260 2.097 . S
Co236 N277 2.151 . S
Co236 N285 2.214 . S
Co237 O238 2.160 . S
Co237 O243 2.058 . S
Co237 O253 2.057 . S
Co237 O268 2.037 . S
Co237 N272 2.145 . S
Co237 N293 2.257 . S
O238 Co236 2.143 . S
O238 Co237 2.160 . S
C239 O240 1.278 . S
C239 O247 1.224 . S
O240 C239 1.278 . S
C241 O242 1.245 . S
C241 O253 1.232 . S
O242 C241 1.245 . S
O243 Co237 2.058 . S
O243 C269 1.269 . S
O244 Co236 2.074 . S
O244 C269 1.257 . S
H245 C270 0.930 . S
H246 C276 0.930 . S
O247 Co236 2.093 . S
O247 C239 1.224 . S
H248 C280 0.929 . S
H249 C282 0.930 . S
H250 C283 0.930 . S
H251 C281 0.929 . S
H252 C284 0.928 . S
O253 Co237 2.057 . S
O253 C241 1.232 . S
H254 C273 0.929 . S
H255 C274 0.929 . S
H256 C286 0.931 . S
H257 C278 0.929 . S
H258 C287 0.930 . S
H259 C279 0.931 . S
O260 Co236 2.097 . S
O260 C288 1.214 . S
H261 C289 0.929 . S
H262 C290 0.929 . S
H263 C291 0.930 . S
H264 C292 0.929 . S
H265 C294 0.930 . S
H266 C271 0.930 . S
H267 C275 0.930 . S
O268 Co237 2.037 . S
O268 C288 1.234 . S
C269 O243 1.269 . S
C269 O244 1.257 . S
C270 H245 0.930 . S
C270 C273 1.388 . S
C270 C275 1.418 . S
C271 H266 0.930 . S
C271 C274 1.404 . S
C271 C275 1.353 . S
N272 Co237 2.145 . S
N272 C273 1.397 . S
N272 C274 1.334 . S
C273 H254 0.929 . S
C273 C270 1.388 . S
C273 N272 1.397 . S
C274 H255 0.929 . S
C274 C271 1.404 . S
C274 N272 1.334 . S
C275 H267 0.930 . S
C275 C270 1.418 . S
C275 C271 1.353 . S
C276 H246 0.930 . S
C276 N277 1.330 . S
C276 C278 1.446 . S
N277 Co236 2.151 . S
N277 C276 1.330 . S
N277 C281 1.418 . S
C278 H257 0.929 . S
C278 C276 1.446 . S
C278 C279 1.332 . S
C279 H259 0.931 . S
C279 C278 1.332 . S
C279 C280 1.267 . S
C280 H248 0.929 . S
C280 C279 1.267 . S
C280 C281 1.251 . S
C281 H251 0.929 . S
C281 N277 1.418 . S
C281 C280 1.251 . S
C282 H249 0.930 . S
C282 C284 1.406 . S
C282 C287 1.261 . S
C283 H250 0.930 . S
C283 N285 1.325 . S
C283 C286 1.357 . S
C284 H252 0.928 . S
C284 C282 1.406 . S
C284 N285 1.261 . S
N285 Co236 2.214 . S
N285 C283 1.325 . S
N285 C284 1.261 . S
C286 H256 0.931 . S
C286 C283 1.357 . S
C286 C287 1.312 . S
C287 H258 0.930 . S
C287 C282 1.261 . S
C287 C286 1.312 . S
C288 O260 1.214 . S
C288 O268 1.234 . S
C289 H261 0.929 . S
C289 C292 1.391 . S
C289 C294 1.391 . S
C290 H262 0.929 . S
C290 C291 1.390 . S
C290 N293 1.391 . S
C291 H263 0.930 . S
C291 C290 1.390 . S
C291 C292 1.392 . S
C292 H264 0.929 . S
C292 C289 1.391 . S
C292 C291 1.392 . S
N293 Co237 2.257 . S
N293 C290 1.391 . S
N293 C294 1.388 . S
C294 H265 0.930 . S
C294 C289 1.391 . S
C294 N293 1.388 . S
Co295 O297 2.143 . S
Co295 O303 2.074 . S
Co295 O306 2.093 . S
Co295 O319 2.097 . S
Co295 N336 2.151 . S
Co295 N344 2.214 . S
Co296 O297 2.160 . S
Co296 O302 2.058 . S
Co296 O312 2.057 . S
Co296 O327 2.037 . S
Co296 N331 2.145 . S
Co296 N352 2.257 . S
O297 Co295 2.143 . S
O297 Co296 2.160 . S
C298 O299 1.278 . S
C298 O306 1.224 . S
O299 C298 1.278 . S
C300 O301 1.245 . S
C300 O312 1.232 . S
O301 C300 1.245 . S
O302 Co296 2.058 . S
O302 C328 1.269 . S
O303 Co295 2.074 . S
O303 C328 1.257 . S
H304 C329 0.930 . S
H305 C335 0.930 . S
O306 Co295 2.093 . S
O306 C298 1.224 . S
H307 C339 0.929 . S
H308 C341 0.930 . S
H309 C342 0.930 . S
H310 C340 0.929 . S
H311 C343 0.928 . S
O312 Co296 2.057 . S
O312 C300 1.232 . S
H313 C332 0.929 . S
H314 C333 0.929 . S
H315 C345 0.931 . S
H316 C337 0.929 . S
H317 C346 0.930 . S
H318 C338 0.931 . S
O319 Co295 2.097 . S
O319 C347 1.214 . S
H320 C348 0.929 . S
H321 C349 0.929 . S
H322 C350 0.930 . S
H323 C351 0.929 . S
H324 C353 0.930 . S
H325 C330 0.930 . S
H326 C334 0.930 . S
O327 Co296 2.037 . S
O327 C347 1.234 . S
C328 O302 1.269 . S
C328 O303 1.257 . S
C329 H304 0.930 . S
C329 C332 1.388 . S
C329 C334 1.418 . S
C330 H325 0.930 . S
C330 C333 1.404 . S
C330 C334 1.353 . S
N331 Co296 2.145 . S
N331 C332 1.397 . S
N331 C333 1.334 . S
C332 H313 0.929 . S
C332 C329 1.388 . S
C332 N331 1.397 . S
C333 H314 0.929 . S
C333 C330 1.404 . S
C333 N331 1.334 . S
C334 H326 0.930 . S
C334 C329 1.418 . S
C334 C330 1.353 . S
C335 H305 0.930 . S
C335 N336 1.330 . S
C335 C337 1.446 . S
N336 Co295 2.151 . S
N336 C335 1.330 . S
N336 C340 1.418 . S
C337 H316 0.929 . S
C337 C335 1.446 . S
C337 C338 1.332 . S
C338 H318 0.931 . S
C338 C337 1.332 . S
C338 C339 1.267 . S
C339 H307 0.929 . S
C339 C338 1.267 . S
C339 C340 1.251 . S
C340 H310 0.929 . S
C340 N336 1.418 . S
C340 C339 1.251 . S
C341 H308 0.930 . S
C341 C343 1.406 . S
C341 C346 1.261 . S
C342 H309 0.930 . S
C342 N344 1.325 . S
C342 C345 1.357 . S
C343 H311 0.928 . S
C343 C341 1.406 . S
C343 N344 1.261 . S
N344 Co295 2.214 . S
N344 C342 1.325 . S
N344 C343 1.261 . S
C345 H315 0.931 . S
C345 C342 1.357 . S
C345 C346 1.312 . S
C346 H317 0.930 . S
C346 C341 1.261 . S
C346 C345 1.312 . S
C347 O319 1.214 . S
C347 O327 1.234 . S
C348 H320 0.929 . S
C348 C351 1.391 . S
C348 C353 1.391 . S
C349 H321 0.929 . S
C349 C350 1.390 . S
C349 N352 1.391 . S
C350 H322 0.930 . S
C350 C349 1.390 . S
C350 C351 1.392 . S
C351 H323 0.929 . S
C351 C348 1.391 . S
C351 C350 1.392 . S
N352 Co296 2.257 . S
N352 C349 1.391 . S
N352 C353 1.388 . S
C353 H324 0.930 . S
C353 C348 1.391 . S
C353 N352 1.388 . S
H354 C372 0.951 . S
H355 C374 0.951 . S
H356 C376 0.950 . S
H357 C377 0.950 . S
H358 C379 0.950 . S
H359 C382 0.950 . S
H360 C383 0.950 . S
H361 C385 0.950 . S
H362 C386 0.950 1_565 S
H363 C387 0.951 . S
H364 C389 0.951 . S
H365 C391 0.950 . S
H366 C392 0.950 . S
H367 C394 0.950 . S
H368 C397 0.950 . S
H369 C398 0.950 . S
H370 C400 0.950 . S
H371 C401 0.950 1_545 S
C372 H354 0.951 . S
C372 C373 1.366 . S
C372 C374 1.388 . S
C373 C372 1.366 . S
C373 C377 1.385 . S
C374 H355 0.951 . S
C374 C372 1.388 . S
C374 C375 1.366 . S
C375 C374 1.366 . S
C375 C376 1.414 . S
C375 C378 1.499 . S
C376 H356 0.950 . S
C376 C375 1.414 . S
C376 C377 1.374 . S
C377 H357 0.950 . S
C377 C373 1.385 . S
C377 C376 1.374 . S
C378 C375 1.499 . S
C378 C379 1.373 . S
C378 C380 1.389 . S
C379 H358 0.950 . S
C379 C378 1.373 . S
C379 C395 1.377 1_545 S
C380 C378 1.389 . S
C380 C381 1.524 . S
C380 C394 1.377 1_545 S
C381 C380 1.524 . S
C381 C382 1.397 . S
C381 C386 1.363 . S
C382 H359 0.950 . S
C382 C381 1.397 . S
C382 C383 1.334 . S
C383 H360 0.950 . S
C383 C382 1.334 . S
C383 C384 1.287 . S
C384 C383 1.287 . S
C384 C385 1.524 . S
C384 H403 0.913 . S
C385 H361 0.950 . S
C385 C384 1.524 . S
C385 C386 1.415 . S
C386 H362 0.950 1_545 S
C386 C381 1.363 . S
C386 C385 1.415 . S
C387 H363 0.951 . S
C387 C388 1.366 . S
C387 C389 1.388 . S
C388 C387 1.366 . S
C388 C392 1.385 . S
C389 H364 0.951 . S
C389 C387 1.388 . S
C389 C390 1.366 . S
C390 C389 1.366 . S
C390 C391 1.414 . S
C390 C393 1.499 . S
C391 H365 0.950 . S
C391 C390 1.414 . S
C391 C392 1.374 . S
C392 H366 0.950 . S
C392 C388 1.385 . S
C392 C391 1.374 . S
C393 C390 1.499 . S
C393 C394 1.373 . S
C393 C395 1.389 . S
C394 H367 0.950 . S
C394 C380 1.377 1_565 S
C394 C393 1.373 . S
C395 C379 1.377 1_565 S
C395 C393 1.389 . S
C395 C396 1.524 . S
C396 C395 1.524 . S
C396 C397 1.397 . S
C396 C401 1.363 . S
C397 H368 0.950 . S
C397 C396 1.397 . S
C397 C398 1.334 . S
C398 H369 0.950 . S
C398 C397 1.334 . S
C398 C399 1.287 . S
C399 C398 1.287 . S
C399 C400 1.524 . S
C399 H402 0.999 . S
C400 H370 0.950 . S
C400 C399 1.524 . S
C400 C401 1.415 . S
C401 H371 0.950 1_565 S
C401 C396 1.363 . S
C401 C400 1.415 . S
H402 C399 0.999 . S
H403 C384 0.913 . S
H404 C422 0.951 . S
H405 C424 0.951 . S
H406 C426 0.950 . S
H407 C427 0.950 . S
H408 C429 0.950 . S
H409 C432 0.950 . S
H410 C433 0.950 . S
H411 C435 0.950 . S
H412 C436 0.950 . S
H413 C437 0.951 . S
H414 C439 0.951 . S
H415 C441 0.950 . S
H416 C442 0.950 . S
H417 C444 0.950 . S
H418 C447 0.950 . S
H419 C448 0.950 . S
H420 C450 0.950 . S
H421 C451 0.950 . S
C422 H404 0.951 . S
C422 C423 1.366 . S
C422 C424 1.388 . S
C423 C422 1.366 . S
C423 C427 1.385 . S
C424 H405 0.951 . S
C424 C422 1.388 . S
C424 C425 1.366 . S
C425 C424 1.366 . S
C425 C426 1.414 . S
C425 C428 1.499 . S
C426 H406 0.950 . S
C426 C425 1.414 . S
C426 C427 1.374 . S
C427 H407 0.950 . S
C427 C423 1.385 . S
C427 C426 1.374 . S
C428 C425 1.499 . S
C428 C429 1.373 . S
C428 C430 1.389 . S
C429 H408 0.950 . S
C429 C428 1.373 . S
C429 C445 1.377 . S
C430 C428 1.389 . S
C430 C431 1.524 . S
C430 C444 1.377 . S
C431 C430 1.524 . S
C431 C432 1.397 . S
C431 C436 1.363 . S
C432 H409 0.950 . S
C432 C431 1.397 . S
C432 C433 1.334 . S
C433 H410 0.950 . S
C433 C432 1.334 . S
C433 C434 1.287 . S
C434 C433 1.287 . S
C434 C435 1.524 . S
C434 H453 0.913 . S
C435 H411 0.950 . S
C435 C434 1.524 . S
C435 C436 1.415 . S
C436 H412 0.950 . S
C436 C431 1.363 . S
C436 C435 1.415 . S
C437 H413 0.951 . S
C437 C438 1.366 . S
C437 C439 1.388 . S
C438 C437 1.366 . S
C438 C442 1.385 . S
C439 H414 0.951 . S
C439 C437 1.388 . S
C439 C440 1.366 . S
C440 C439 1.366 . S
C440 C441 1.414 . S
C440 C443 1.499 . S
C441 H415 0.950 . S
C441 C440 1.414 . S
C441 C442 1.374 . S
C442 H416 0.950 . S
C442 C438 1.385 . S
C442 C441 1.374 . S
C443 C440 1.499 . S
C443 C444 1.373 . S
C443 C445 1.389 . S
C444 H417 0.950 . S
C444 C430 1.377 . S
C444 C443 1.373 . S
C445 C429 1.377 . S
C445 C443 1.389 . S
C445 C446 1.524 . S
C446 C445 1.524 . S
C446 C447 1.397 . S
C446 C451 1.363 . S
C447 H418 0.950 . S
C447 C446 1.397 . S
C447 C448 1.334 . S
C448 H419 0.950 . S
C448 C447 1.334 . S
C448 C449 1.287 . S
C449 C448 1.287 . S
C449 C450 1.524 . S
C449 H452 0.999 . S
C450 H420 0.950 . S
C450 C449 1.524 . S
C450 C451 1.415 . S
C451 H421 0.950 . S
C451 C446 1.363 . S
C451 C450 1.415 . S
H452 C449 0.999 . S
H453 C434 0.913 . S
H454 C472 0.951 . S
H455 C474 0.951 . S
H456 C476 0.950 . S
H457 C477 0.950 . S
H458 C479 0.950 . S
H459 C482 0.950 . S
H460 C483 0.950 . S
H461 C485 0.950 . S
H462 C486 0.937 1_455 S
H463 C487 0.951 . S
H464 C489 0.951 . S
H465 C491 0.950 . S
H466 C492 0.950 . S
H467 C494 0.950 . S
H468 C497 0.950 . S
H469 C498 0.950 . S
H470 C500 0.950 . S
H471 C501 0.937 1_655 S
C472 H454 0.951 . S
C472 C473 1.366 . S
C472 C474 1.388 . S
C473 C472 1.366 . S
C473 C477 1.385 . S
C474 H455 0.951 . S
C474 C472 1.388 . S
C474 C475 1.366 . S
C475 C474 1.366 . S
C475 C476 1.414 . S
C475 C478 1.499 . S
C476 H456 0.950 . S
C476 C475 1.414 . S
C476 C477 1.374 . S
C477 H457 0.950 . S
C477 C473 1.385 . S
C477 C476 1.374 . S
C478 C475 1.499 . S
C478 C479 1.373 . S
C478 C480 1.389 . S
C479 H458 0.950 . S
C479 C478 1.373 . S
C479 C495 1.377 1_655 S
C480 C478 1.389 . S
C480 C481 1.524 . S
C480 C494 1.377 1_655 S
C481 C480 1.524 . S
C481 C482 1.397 . S
C481 C486 1.363 . S
C482 H459 0.950 . S
C482 C481 1.397 . S
C482 C483 1.334 . S
C483 H460 0.950 . S
C483 C482 1.334 . S
C483 C484 1.287 . S
C484 C483 1.287 . S
C484 C485 1.524 . S
C484 H503 0.913 . S
C485 H461 0.950 . S
C485 C484 1.524 . S
C485 C486 1.415 . S
C486 H462 0.937 1_655 S
C486 C481 1.363 . S
C486 C485 1.415 . S
C487 H463 0.951 . S
C487 C488 1.366 . S
C487 C489 1.388 . S
C488 C487 1.366 . S
C488 C492 1.385 . S
C489 H464 0.951 . S
C489 C487 1.388 . S
C489 C490 1.366 . S
C490 C489 1.366 . S
C490 C491 1.414 . S
C490 C493 1.499 . S
C491 H465 0.950 . S
C491 C490 1.414 . S
C491 C492 1.374 . S
C492 H466 0.950 . S
C492 C488 1.385 . S
C492 C491 1.374 . S
C493 C490 1.499 . S
C493 C494 1.373 . S
C493 C495 1.389 . S
C494 H467 0.950 . S
C494 C480 1.377 1_455 S
C494 C493 1.373 . S
C495 C479 1.377 1_455 S
C495 C493 1.389 . S
C495 C496 1.524 . S
C496 C495 1.524 . S
C496 C497 1.397 . S
C496 C501 1.363 . S
C497 H468 0.950 . S
C497 C496 1.397 . S
C497 C498 1.334 . S
C498 H469 0.950 . S
C498 C497 1.334 . S
C498 C499 1.287 . S
C499 C498 1.287 . S
C499 C500 1.524 . S
C499 H502 0.999 . S
C500 H470 0.950 . S
C500 C499 1.524 . S
C500 C501 1.415 . S
C501 H471 0.937 1_455 S
C501 C496 1.363 . S
C501 C500 1.415 . S
H502 C499 0.999 . S
H503 C484 0.913 . S
H504 C522 0.951 . S
H505 C524 0.951 . S
H506 C526 0.950 . S
H507 C527 0.950 . S
H508 C529 0.950 . S
H509 C532 0.950 . S
H510 C533 0.950 . S
H511 C535 0.950 . S
H512 C536 0.950 . S
H513 C537 0.951 . S
H514 C539 0.951 . S
H515 C541 0.950 . S
H516 C542 0.950 . S
H517 C544 0.950 . S
H518 C547 0.950 . S
H519 C548 0.950 . S
H520 C550 0.950 . S
H521 C551 0.950 . S
C522 H504 0.951 . S
C522 C523 1.366 . S
C522 C524 1.388 . S
C523 C522 1.366 . S
C523 C527 1.385 . S
C524 H505 0.951 . S
C524 C522 1.388 . S
C524 C525 1.366 . S
C525 C524 1.366 . S
C525 C526 1.414 . S
C525 C528 1.499 . S
C526 H506 0.950 . S
C526 C525 1.414 . S
C526 C527 1.374 . S
C527 H507 0.950 . S
C527 C523 1.385 . S
C527 C526 1.374 . S
C528 C525 1.499 . S
C528 C529 1.373 . S
C528 C530 1.389 . S
C529 H508 0.950 . S
C529 C528 1.373 . S
C529 C545 1.377 1_455 S
C530 C528 1.389 . S
C530 C531 1.524 . S
C530 C544 1.377 1_455 S
C531 C530 1.524 . S
C531 C532 1.397 . S
C531 C536 1.363 . S
C532 H509 0.950 . S
C532 C531 1.397 . S
C532 C533 1.334 . S
C533 H510 0.950 . S
C533 C532 1.334 . S
C533 C534 1.287 . S
C534 C533 1.287 . S
C534 C535 1.524 . S
C534 H553 0.913 . S
C535 H511 0.950 . S
C535 C534 1.524 . S
C535 C536 1.415 . S
C536 H512 0.950 . S
C536 C531 1.363 . S
C536 C535 1.415 . S
C537 H513 0.951 . S
C537 C538 1.366 . S
C537 C539 1.388 . S
C538 C537 1.366 . S
C538 C542 1.385 . S
C539 H514 0.951 . S
C539 C537 1.388 . S
C539 C540 1.366 . S
C540 C539 1.366 . S
C540 C541 1.414 . S
C540 C543 1.499 . S
C541 H515 0.950 . S
C541 C540 1.414 . S
C541 C542 1.374 . S
C542 H516 0.950 . S
C542 C538 1.385 . S
C542 C541 1.374 . S
C543 C540 1.499 . S
C543 C544 1.373 . S
C543 C545 1.389 . S
C544 H517 0.950 . S
C544 C530 1.377 1_655 S
C544 C543 1.373 . S
C545 C529 1.377 1_655 S
C545 C543 1.389 . S
C545 C546 1.524 . S
C546 C545 1.524 . S
C546 C547 1.397 . S
C546 C551 1.363 . S
C547 H518 0.950 . S
C547 C546 1.397 . S
C547 C548 1.334 . S
C548 H519 0.950 . S
C548 C547 1.334 . S
C548 C549 1.287 . S
C549 C548 1.287 . S
C549 C550 1.524 . S
C549 H552 0.999 . S
C550 H520 0.950 . S
C550 C549 1.524 . S
C550 C551 1.415 . S
C551 H521 0.950 . S
C551 C546 1.363 . S
C551 C550 1.415 . S
H552 C549 0.999 . S
H553 C534 0.913 . S
H554 C572 0.951 . S
H555 C574 0.951 . S
H556 C576 0.950 . S
H557 C577 0.950 . S
H558 C579 0.950 . S
H559 C582 0.950 . S
H560 C583 0.950 . S
H561 C585 0.950 . S
H562 C586 0.950 1_545 S
H563 C587 0.951 . S
H564 C589 0.951 . S
H565 C591 0.950 . S
H566 C592 0.950 . S
H567 C594 0.950 . S
H568 C597 0.950 . S
H569 C598 0.950 . S
H570 C600 0.950 . S
H571 C601 0.950 1_565 S
C572 H554 0.951 . S
C572 C573 1.366 . S
C572 C574 1.388 . S
C573 C572 1.366 . S
C573 C577 1.385 . S
C574 H555 0.951 . S
C574 C572 1.388 . S
C574 C575 1.366 . S
C575 C574 1.366 . S
C575 C576 1.414 . S
C575 C578 1.499 . S
C576 H556 0.950 . S
C576 C575 1.414 . S
C576 C577 1.374 . S
C577 H557 0.950 . S
C577 C573 1.385 . S
C577 C576 1.374 . S
C578 C575 1.499 . S
C578 C579 1.373 . S
C578 C580 1.389 . S
C579 H558 0.950 . S
C579 C578 1.373 . S
C579 C595 1.377 1_565 S
C580 C578 1.389 . S
C580 C581 1.524 . S
C580 C594 1.377 1_565 S
C581 C580 1.524 . S
C581 C582 1.397 . S
C581 C586 1.363 . S
C582 H559 0.950 . S
C582 C581 1.397 . S
C582 C583 1.334 . S
C583 H560 0.950 . S
C583 C582 1.334 . S
C583 C584 1.287 . S
C584 C583 1.287 . S
C584 C585 1.524 . S
C584 H603 0.913 . S
C585 H561 0.950 . S
C585 C584 1.524 . S
C585 C586 1.415 . S
C586 H562 0.950 1_565 S
C586 C581 1.363 . S
C586 C585 1.415 . S
C587 H563 0.951 . S
C587 C588 1.366 . S
C587 C589 1.388 . S
C588 C587 1.366 . S
C588 C592 1.385 . S
C589 H564 0.951 . S
C589 C587 1.388 . S
C589 C590 1.366 . S
C590 C589 1.366 . S
C590 C591 1.414 . S
C590 C593 1.499 . S
C591 H565 0.950 . S
C591 C590 1.414 . S
C591 C592 1.374 . S
C592 H566 0.950 . S
C592 C588 1.385 . S
C592 C591 1.374 . S
C593 C590 1.499 . S
C593 C594 1.373 . S
C593 C595 1.389 . S
C594 H567 0.950 . S
C594 C580 1.377 1_545 S
C594 C593 1.373 . S
C595 C579 1.377 1_545 S
C595 C593 1.389 . S
C595 C596 1.524 . S
C596 C595 1.524 . S
C596 C597 1.397 . S
C596 C601 1.363 . S
C597 H568 0.950 . S
C597 C596 1.397 . S
C597 C598 1.334 . S
C598 H569 0.950 . S
C598 C597 1.334 . S
C598 C599 1.287 . S
C599 C598 1.287 . S
C599 C600 1.524 . S
C599 H602 0.999 . S
C600 H570 0.950 . S
C600 C599 1.524 . S
C600 C601 1.415 . S
C601 H571 0.950 1_545 S
C601 C596 1.363 . S
C601 C600 1.415 . S
H602 C599 0.999 . S
H603 C584 0.913 . S
H604 C622 0.951 . S
H605 C624 0.951 . S
H606 C626 0.950 . S
H607 C627 0.950 . S
H608 C629 0.950 . S
H609 C632 0.950 . S
H610 C633 0.950 . S
H611 C635 0.950 . S
H612 C636 0.950 . S
H613 C637 0.951 . S
H614 C639 0.951 . S
H615 C641 0.950 . S
H616 C642 0.950 . S
H617 C644 0.950 . S
H618 C647 0.950 . S
H619 C648 0.950 . S
H620 C650 0.950 . S
H621 C651 0.950 . S
C622 H604 0.951 . S
C622 C623 1.366 . S
C622 C624 1.388 . S
C623 C622 1.366 . S
C623 C627 1.385 . S
C624 H605 0.951 . S
C624 C622 1.388 . S
C624 C625 1.366 . S
C625 C624 1.366 . S
C625 C626 1.414 . S
C625 C628 1.499 . S
C626 H606 0.950 . S
C626 C625 1.414 . S
C626 C627 1.374 . S
C627 H607 0.950 . S
C627 C623 1.385 . S
C627 C626 1.374 . S
C628 C625 1.499 . S
C628 C629 1.373 . S
C628 C630 1.389 . S
C629 H608 0.950 . S
C629 C628 1.373 . S
C629 C645 1.377 . S
C630 C628 1.389 . S
C630 C631 1.524 . S
C630 C644 1.377 . S
C631 C630 1.524 . S
C631 C632 1.397 . S
C631 C636 1.363 . S
C632 H609 0.950 . S
C632 C631 1.397 . S
C632 C633 1.334 . S
C633 H610 0.950 . S
C633 C632 1.334 . S
C633 C634 1.287 . S
C634 C633 1.287 . S
C634 C635 1.524 . S
C634 H653 0.913 . S
C635 H611 0.950 . S
C635 C634 1.524 . S
C635 C636 1.415 . S
C636 H612 0.950 . S
C636 C631 1.363 . S
C636 C635 1.415 . S
C637 H613 0.951 . S
C637 C638 1.366 . S
C637 C639 1.388 . S
C638 C637 1.366 . S
C638 C642 1.385 . S
C639 H614 0.951 . S
C639 C637 1.388 . S
C639 C640 1.366 . S
C640 C639 1.366 . S
C640 C641 1.414 . S
C640 C643 1.499 . S
C641 H615 0.950 . S
C641 C640 1.414 . S
C641 C642 1.374 . S
C642 H616 0.950 . S
C642 C638 1.385 . S
C642 C641 1.374 . S
C643 C640 1.499 . S
C643 C644 1.373 . S
C643 C645 1.389 . S
C644 H617 0.950 . S
C644 C630 1.377 . S
C644 C643 1.373 . S
C645 C629 1.377 . S
C645 C643 1.389 . S
C645 C646 1.524 . S
C646 C645 1.524 . S
C646 C647 1.397 . S
C646 C651 1.363 . S
C647 H618 0.950 . S
C647 C646 1.397 . S
C647 C648 1.334 . S
C648 H619 0.950 . S
C648 C647 1.334 . S
C648 C649 1.287 . S
C649 C648 1.287 . S
C649 C650 1.524 . S
C649 H652 0.999 . S
C650 H620 0.950 . S
C650 C649 1.524 . S
C650 C651 1.415 . S
C651 H621 0.950 . S
C651 C646 1.363 . S
C651 C650 1.415 . S
H652 C649 0.999 . S
H653 C634 0.913 . S
H654 C672 0.951 . S
H655 C674 0.951 . S
H656 C676 0.950 . S
H657 C677 0.950 . S
H658 C679 0.950 . S
H659 C682 0.950 . S
H660 C683 0.950 . S
H661 C685 0.950 . S
H662 C686 0.950 . S
H663 C687 0.951 . S
H664 C689 0.951 . S
H665 C691 0.950 . S
H666 C692 0.950 . S
H667 C694 0.950 . S
H668 C697 0.950 . S
H669 C698 0.950 . S
H670 C700 0.950 . S
H671 C701 0.950 . S
C672 H654 0.951 . S
C672 C673 1.366 . S
C672 C674 1.388 . S
C673 C672 1.366 . S
C673 C677 1.385 . S
C674 H655 0.951 . S
C674 C672 1.388 . S
C674 C675 1.366 . S
C675 C674 1.366 . S
C675 C676 1.414 . S
C675 C678 1.499 . S
C676 H656 0.950 . S
C676 C675 1.414 . S
C676 C677 1.374 . S
C677 H657 0.950 . S
C677 C673 1.385 . S
C677 C676 1.374 . S
C678 C675 1.499 . S
C678 C679 1.373 . S
C678 C680 1.389 . S
C679 H658 0.950 . S
C679 C678 1.373 . S
C679 C695 1.377 1_556 S
C680 C678 1.389 . S
C680 C681 1.524 . S
C680 C694 1.377 1_556 S
C681 C680 1.524 . S
C681 C682 1.397 . S
C681 C686 1.363 . S
C682 H659 0.950 . S
C682 C681 1.397 . S
C682 C683 1.334 . S
C683 H660 0.950 . S
C683 C682 1.334 . S
C683 C684 1.287 . S
C684 C683 1.287 . S
C684 C685 1.524 . S
C684 H703 0.913 . S
C685 H661 0.950 . S
C685 C684 1.524 . S
C685 C686 1.415 . S
C686 H662 0.950 . S
C686 C681 1.363 . S
C686 C685 1.415 . S
C687 H663 0.951 . S
C687 C688 1.366 . S
C687 C689 1.388 . S
C688 C687 1.366 . S
C688 C692 1.385 . S
C689 H664 0.951 . S
C689 C687 1.388 . S
C689 C690 1.366 . S
C690 C689 1.366 . S
C690 C691 1.414 . S
C690 C693 1.499 . S
C691 H665 0.950 . S
C691 C690 1.414 . S
C691 C692 1.374 . S
C692 H666 0.950 . S
C692 C688 1.385 . S
C692 C691 1.374 . S
C693 C690 1.499 . S
C693 C694 1.373 . S
C693 C695 1.389 . S
C694 H667 0.950 . S
C694 C680 1.377 1_554 S
C694 C693 1.373 . S
C695 C679 1.377 1_554 S
C695 C693 1.389 . S
C695 C696 1.524 . S
C696 C695 1.524 . S
C696 C697 1.397 . S
C696 C701 1.363 . S
C697 H668 0.950 . S
C697 C696 1.397 . S
C697 C698 1.334 . S
C698 H669 0.950 . S
C698 C697 1.334 . S
C698 C699 1.287 . S
C699 C698 1.287 . S
C699 C700 1.524 . S
C699 H702 0.999 . S
C700 H670 0.950 . S
C700 C699 1.524 . S
C700 C701 1.415 . S
C701 H671 0.950 . S
C701 C696 1.363 . S
C701 C700 1.415 . S
H702 C699 0.999 . S
H703 C684 0.913 . S
H704 C722 0.951 . S
H705 C724 0.951 . S
H706 C726 0.950 . S
H707 C727 0.950 . S
H708 C729 0.950 . S
H709 C732 0.950 . S
H710 C733 0.950 . S
H711 C735 0.950 . S
H712 C736 0.950 . S
H713 C737 0.951 . S
H714 C739 0.951 . S
H715 C741 0.950 . S
H716 C742 0.950 . S
H717 C744 0.950 . S
H718 C747 0.950 . S
H719 C748 0.950 . S
H720 C750 0.950 . S
H721 C751 0.950 . S
C722 H704 0.951 . S
C722 C723 1.366 . S
C722 C724 1.388 . S
C723 C722 1.366 . S
C723 C727 1.385 . S
C724 H705 0.951 . S
C724 C722 1.388 . S
C724 C725 1.366 . S
C725 C724 1.366 . S
C725 C726 1.414 . S
C725 C728 1.499 . S
C726 H706 0.950 . S
C726 C725 1.414 . S
C726 C727 1.374 . S
C727 H707 0.950 . S
C727 C723 1.385 . S
C727 C726 1.374 . S
C728 C725 1.499 . S
C728 C729 1.373 . S
C728 C730 1.389 . S
C729 H708 0.950 . S
C729 C728 1.373 . S
C729 C745 1.377 . S
C730 C728 1.389 . S
C730 C731 1.524 . S
C730 C744 1.377 . S
C731 C730 1.524 . S
C731 C732 1.397 . S
C731 C736 1.363 . S
C732 H709 0.950 . S
C732 C731 1.397 . S
C732 C733 1.334 . S
C733 H710 0.950 . S
C733 C732 1.334 . S
C733 C734 1.287 . S
C734 C733 1.287 . S
C734 C735 1.524 . S
C734 H753 0.913 . S
C735 H711 0.950 . S
C735 C734 1.524 . S
C735 C736 1.415 . S
C736 H712 0.950 . S
C736 C731 1.363 . S
C736 C735 1.415 . S
C737 H713 0.951 . S
C737 C738 1.366 . S
C737 C739 1.388 . S
C738 C737 1.366 . S
C738 C742 1.385 . S
C739 H714 0.951 . S
C739 C737 1.388 . S
C739 C740 1.366 . S
C740 C739 1.366 . S
C740 C741 1.414 . S
C740 C743 1.499 . S
C741 H715 0.950 . S
C741 C740 1.414 . S
C741 C742 1.374 . S
C742 H716 0.950 . S
C742 C738 1.385 . S
C742 C741 1.374 . S
C743 C740 1.499 . S
C743 C744 1.373 . S
C743 C745 1.389 . S
C744 H717 0.950 . S
C744 C730 1.377 . S
C744 C743 1.373 . S
C745 C729 1.377 . S
C745 C743 1.389 . S
C745 C746 1.524 . S
C746 C745 1.524 . S
C746 C747 1.397 . S
C746 C751 1.363 . S
C747 H718 0.950 . S
C747 C746 1.397 . S
C747 C748 1.334 . S
C748 H719 0.950 . S
C748 C747 1.334 . S
C748 C749 1.287 . S
C749 C748 1.287 . S
C749 C750 1.524 . S
C749 H752 0.999 . S
C750 H720 0.950 . S
C750 C749 1.524 . S
C750 C751 1.415 . S
C751 H721 0.950 . S
C751 C746 1.363 . S
C751 C750 1.415 . S
H752 C749 0.999 . S
H753 C734 0.913 . S
H754 C772 0.951 . S
H755 C774 0.951 . S
H756 C776 0.950 . S
H757 C777 0.950 . S
H758 C779 0.950 . S
H759 C782 0.950 . S
H760 C783 0.950 . S
H761 C785 0.950 . S
H762 C786 0.950 . S
H763 C787 0.951 . S
H764 C789 0.951 . S
H765 C791 0.950 . S
H766 C792 0.950 . S
H767 C794 0.950 . S
H768 C797 0.950 . S
H769 C798 0.950 . S
H770 C800 0.950 . S
H771 C801 0.950 . S
C772 H754 0.951 . S
C772 C773 1.366 . S
C772 C774 1.388 . S
C773 C772 1.366 . S
C773 C777 1.385 . S
C774 H755 0.951 . S
C774 C772 1.388 . S
C774 C775 1.366 . S
C775 C774 1.366 . S
C775 C776 1.414 . S
C775 C778 1.499 . S
C776 H756 0.950 . S
C776 C775 1.414 . S
C776 C777 1.374 . S
C777 H757 0.950 . S
C777 C773 1.385 . S
C777 C776 1.374 . S
C778 C775 1.499 . S
C778 C779 1.373 . S
C778 C780 1.389 . S
C779 H758 0.950 . S
C779 C778 1.373 . S
C779 C795 1.377 . S
C780 C778 1.389 . S
C780 C781 1.524 . S
C780 C794 1.377 . S
C781 C780 1.524 . S
C781 C782 1.397 . S
C781 C786 1.363 . S
C782 H759 0.950 . S
C782 C781 1.397 . S
C782 C783 1.334 . S
C783 H760 0.950 . S
C783 C782 1.334 . S
C783 C784 1.287 . S
C784 C783 1.287 . S
C784 C785 1.524 . S
C784 H803 0.913 . S
C785 H761 0.950 . S
C785 C784 1.524 . S
C785 C786 1.415 . S
C786 H762 0.950 . S
C786 C781 1.363 . S
C786 C785 1.415 . S
C787 H763 0.951 . S
C787 C788 1.366 . S
C787 C789 1.388 . S
C788 C787 1.366 . S
C788 C792 1.385 . S
C789 H764 0.951 . S
C789 C787 1.388 . S
C789 C790 1.366 . S
C790 C789 1.366 . S
C790 C791 1.414 . S
C790 C793 1.499 . S
C791 H765 0.950 . S
C791 C790 1.414 . S
C791 C792 1.374 . S
C792 H766 0.950 . S
C792 C788 1.385 . S
C792 C791 1.374 . S
C793 C790 1.499 . S
C793 C794 1.373 . S
C793 C795 1.389 . S
C794 H767 0.950 . S
C794 C780 1.377 . S
C794 C793 1.373 . S
C795 C779 1.377 . S
C795 C793 1.389 . S
C795 C796 1.524 . S
C796 C795 1.524 . S
C796 C797 1.397 . S
C796 C801 1.363 . S
C797 H768 0.950 . S
C797 C796 1.397 . S
C797 C798 1.334 . S
C798 H769 0.950 . S
C798 C797 1.334 . S
C798 C799 1.287 . S
C799 C798 1.287 . S
C799 C800 1.524 . S
C799 H802 0.999 . S
C800 H770 0.950 . S
C800 C799 1.524 . S
C800 C801 1.415 . S
C801 H771 0.950 . S
C801 C796 1.363 . S
C801 C800 1.415 . S
H802 C799 0.999 . S
H803 C784 0.913 . S
H804 C822 0.951 . S
H805 C824 0.951 . S
H806 C826 0.950 . S
H807 C827 0.950 . S
H808 C829 0.950 . S
H809 C832 0.950 . S
H810 C833 0.950 . S
H811 C835 0.950 . S
H812 C836 0.950 . S
H813 C837 0.951 . S
H814 C839 0.951 . S
H815 C841 0.950 . S
H816 C842 0.950 . S
H817 C844 0.950 . S
H818 C847 0.950 . S
H819 C848 0.950 . S
H820 C850 0.950 . S
H821 C851 0.950 . S
C822 H804 0.951 . S
C822 C823 1.366 . S
C822 C824 1.388 . S
C823 C822 1.366 . S
C823 C827 1.385 . S
C824 H805 0.951 . S
C824 C822 1.388 . S
C824 C825 1.366 . S
C825 C824 1.366 . S
C825 C826 1.414 . S
C825 C828 1.499 . S
C826 H806 0.950 . S
C826 C825 1.414 . S
C826 C827 1.374 . S
C827 H807 0.950 . S
C827 C823 1.385 . S
C827 C826 1.374 . S
C828 C825 1.499 . S
C828 C829 1.373 . S
C828 C830 1.389 . S
C829 H808 0.950 . S
C829 C828 1.373 . S
C829 C845 1.377 1_556 S
C830 C828 1.389 . S
C830 C831 1.524 . S
C830 C844 1.377 1_556 S
C831 C830 1.524 . S
C831 C832 1.397 . S
C831 C836 1.363 . S
C832 H809 0.950 . S
C832 C831 1.397 . S
C832 C833 1.334 . S
C833 H810 0.950 . S
C833 C832 1.334 . S
C833 C834 1.287 . S
C834 C833 1.287 . S
C834 C835 1.524 . S
C834 H853 0.913 . S
C835 H811 0.950 . S
C835 C834 1.524 . S
C835 C836 1.415 . S
C836 H812 0.950 . S
C836 C831 1.363 . S
C836 C835 1.415 . S
C837 H813 0.951 . S
C837 C838 1.366 . S
C837 C839 1.388 . S
C838 C837 1.366 . S
C838 C842 1.385 . S
C839 H814 0.951 . S
C839 C837 1.388 . S
C839 C840 1.366 . S
C840 C839 1.366 . S
C840 C841 1.414 . S
C840 C843 1.499 . S
C841 H815 0.950 . S
C841 C840 1.414 . S
C841 C842 1.374 . S
C842 H816 0.950 . S
C842 C838 1.385 . S
C842 C841 1.374 . S
C843 C840 1.499 . S
C843 C844 1.373 . S
C843 C845 1.389 . S
C844 H817 0.950 . S
C844 C830 1.377 1_554 S
C844 C843 1.373 . S
C845 C829 1.377 1_554 S
C845 C843 1.389 . S
C845 C846 1.524 . S
C846 C845 1.524 . S
C846 C847 1.397 . S
C846 C851 1.363 . S
C847 H818 0.950 . S
C847 C846 1.397 . S
C847 C848 1.334 . S
C848 H819 0.950 . S
C848 C847 1.334 . S
C848 C849 1.287 . S
C849 C848 1.287 . S
C849 C850 1.524 . S
C849 H852 0.999 . S
C850 H820 0.950 . S
C850 C849 1.524 . S
C850 C851 1.415 . S
C851 H821 0.950 . S
C851 C846 1.363 . S
C851 C850 1.415 . S
H852 C849 0.999 . S
H853 C834 0.913 . S
H854 C872 0.951 . S
H855 C874 0.951 . S
H856 C876 0.950 . S
H857 C877 0.950 . S
H858 C879 0.950 . S
H859 C882 0.950 . S
H860 C883 0.950 . S
H861 C885 0.950 . S
H862 C886 0.950 . S
H863 C887 0.951 . S
H864 C889 0.951 . S
H865 C891 0.950 . S
H866 C892 0.950 . S
H867 C894 0.950 . S
H868 C897 0.950 . S
H869 C898 0.950 . S
H870 C900 0.950 . S
H871 C901 0.950 . S
C872 H854 0.951 . S
C872 C873 1.366 . S
C872 C874 1.388 . S
C873 C872 1.366 . S
C873 C877 1.385 . S
C874 H855 0.951 . S
C874 C872 1.388 . S
C874 C875 1.366 . S
C875 C874 1.366 . S
C875 C876 1.414 . S
C875 C878 1.499 . S
C876 H856 0.950 . S
C876 C875 1.414 . S
C876 C877 1.374 . S
C877 H857 0.950 . S
C877 C873 1.385 . S
C877 C876 1.374 . S
C878 C875 1.499 . S
C878 C879 1.373 . S
C878 C880 1.389 . S
C879 H858 0.950 . S
C879 C878 1.373 . S
C879 C895 1.377 . S
C880 C878 1.389 . S
C880 C881 1.524 . S
C880 C894 1.377 . S
C881 C880 1.524 . S
C881 C882 1.397 . S
C881 C886 1.363 . S
C882 H859 0.950 . S
C882 C881 1.397 . S
C882 C883 1.334 . S
C883 H860 0.950 . S
C883 C882 1.334 . S
C883 C884 1.287 . S
C884 C883 1.287 . S
C884 C885 1.524 . S
C884 H903 0.913 . S
C885 H861 0.950 . S
C885 C884 1.524 . S
C885 C886 1.415 . S
C886 H862 0.950 . S
C886 C881 1.363 . S
C886 C885 1.415 . S
C887 H863 0.951 . S
C887 C888 1.366 . S
C887 C889 1.388 . S
C888 C887 1.366 . S
C888 C892 1.385 . S
C889 H864 0.951 . S
C889 C887 1.388 . S
C889 C890 1.366 . S
C890 C889 1.366 . S
C890 C891 1.414 . S
C890 C893 1.499 . S
C891 H865 0.950 . S
C891 C890 1.414 . S
C891 C892 1.374 . S
C892 H866 0.950 . S
C892 C888 1.385 . S
C892 C891 1.374 . S
C893 C890 1.499 . S
C893 C894 1.373 . S
C893 C895 1.389 . S
C894 H867 0.950 . S
C894 C880 1.377 . S
C894 C893 1.373 . S
C895 C879 1.377 . S
C895 C893 1.389 . S
C895 C896 1.524 . S
C896 C895 1.524 . S
C896 C897 1.397 . S
C896 C901 1.363 . S
C897 H868 0.950 . S
C897 C896 1.397 . S
C897 C898 1.334 . S
C898 H869 0.950 . S
C898 C897 1.334 . S
C898 C899 1.287 . S
C899 C898 1.287 . S
C899 C900 1.524 . S
C899 H902 0.999 . S
C900 H870 0.950 . S
C900 C899 1.524 . S
C900 C901 1.415 . S
C901 H871 0.950 . S
C901 C896 1.363 . S
C901 C900 1.415 . S
H902 C899 0.999 . S
H903 C884 0.913 . S
H904 C922 0.951 . S
H905 C924 0.951 . S
H906 C926 0.950 . S
H907 C927 0.950 . S
H908 C929 0.950 . S
H909 C932 0.950 . S
H910 C933 0.950 . S
H911 C935 0.950 . S
H912 C936 0.950 . S
H913 C937 0.951 . S
H914 C939 0.951 . S
H915 C941 0.950 . S
H916 C942 0.950 . S
H917 C944 0.950 . S
H918 C947 0.950 . S
H919 C948 0.950 . S
H920 C950 0.950 . S
H921 C951 0.950 . S
C922 H904 0.951 . S
C922 C923 1.366 . S
C922 C924 1.388 . S
C923 C922 1.366 . S
C923 C927 1.385 . S
C924 H905 0.951 . S
C924 C922 1.388 . S
C924 C925 1.366 . S
C925 C924 1.366 . S
C925 C926 1.414 . S
C925 C928 1.499 . S
C926 H906 0.950 . S
C926 C925 1.414 . S
C926 C927 1.374 . S
C927 H907 0.950 . S
C927 C923 1.385 . S
C927 C926 1.374 . S
C928 C925 1.499 . S
C928 C929 1.373 . S
C928 C930 1.389 . S
C929 H908 0.950 . S
C929 C928 1.373 . S
C929 C945 1.377 . S
C930 C928 1.389 . S
C930 C931 1.524 . S
C930 C944 1.377 . S
C931 C930 1.524 . S
C931 C932 1.397 . S
C931 C936 1.363 . S
C932 H909 0.950 . S
C932 C931 1.397 . S
C932 C933 1.334 . S
C933 H910 0.950 . S
C933 C932 1.334 . S
C933 C934 1.287 . S
C934 C933 1.287 . S
C934 C935 1.524 . S
C934 H953 0.913 . S
C935 H911 0.950 . S
C935 C934 1.524 . S
C935 C936 1.415 . S
C936 H912 0.950 . S
C936 C931 1.363 . S
C936 C935 1.415 . S
C937 H913 0.951 . S
C937 C938 1.366 . S
C937 C939 1.388 . S
C938 C937 1.366 . S
C938 C942 1.385 . S
C939 H914 0.951 . S
C939 C937 1.388 . S
C939 C940 1.366 . S
C940 C939 1.366 . S
C940 C941 1.414 . S
C940 C943 1.499 . S
C941 H915 0.950 . S
C941 C940 1.414 . S
C941 C942 1.374 . S
C942 H916 0.950 . S
C942 C938 1.385 . S
C942 C941 1.374 . S
C943 C940 1.499 . S
C943 C944 1.373 . S
C943 C945 1.389 . S
C944 H917 0.950 . S
C944 C930 1.377 . S
C944 C943 1.373 . S
C945 C929 1.377 . S
C945 C943 1.389 . S
C945 C946 1.524 . S
C946 C945 1.524 . S
C946 C947 1.397 . S
C946 C951 1.363 . S
C947 H918 0.950 . S
C947 C946 1.397 . S
C947 C948 1.334 . S
C948 H919 0.950 . S
C948 C947 1.334 . S
C948 C949 1.287 . S
C949 C948 1.287 . S
C949 C950 1.524 . S
C949 H952 0.999 . S
C950 H920 0.950 . S
C950 C949 1.524 . S
C950 C951 1.415 . S
C951 H921 0.950 . S
C951 C946 1.363 . S
C951 C950 1.415 . S
H952 C949 0.999 . S
H953 C934 0.913 . S
C373 C5 1.123 . S
C388 C182 1.123 . S
C423 C64 1.123 . S
C438 C241 1.123 . S
C473 C123 1.123 . S
C488 C300 1.123 . S
C523 C111 1.920 . S
C538 C288 1.920 . S
C573 C347 1.921 . S
C588 C170 1.921 . S
C623 C229 1.920 . S
C638 C52 1.920 . S
C673 C151 1.272 . S
C688 C3 1.266 . S
C723 C210 1.273 . S
C738 C62 1.267 . S
C773 C121 1.266 . S
C788 C269 1.272 . S
C823 C328 1.272 . S
C838 C180 1.266 . S
C873 C239 1.267 . S
C888 C33 1.273 . S
C923 C298 1.267 . S
C938 C92 1.273 . S
