# Generated by pormake.
# Topology uoi, (4)-cn, num edge types: 1
# Building blocks:
#     Node 0, Type 0, BuildingBlock: NAHDIM_clean_sbu_0, # of connection points: 4
#     Node 1, Type 0, BuildingBlock: NAHDIM_clean_sbu_0, # of connection points: 4
#     Node 2, Type 0, BuildingBlock: NAHDIM_clean_sbu_0, # of connection points: 4
#     Node 3, Type 0, BuildingBlock: NAHDIM_clean_sbu_0, # of connection points: 4
#     Node 4, Type 0, BuildingBlock: NAHDIM_clean_sbu_0, # of connection points: 4
#     Node 5, Type 0, BuildingBlock: NAHDIM_clean_sbu_0, # of connection points: 4
#     Node 6, Type 0, BuildingBlock: NAHDIM_clean_sbu_0, # of connection points: 4
#     Node 7, Type 0, BuildingBlock: NAHDIM_clean_sbu_0, # of connection points: 4
#     Node 8, Type 0, BuildingBlock: NAHDIM_clean_sbu_0, # of connection points: 4
#     Node 9, Type 0, BuildingBlock: NAHDIM_clean_sbu_0, # of connection points: 4
#     Node 10, Type 0, BuildingBlock: NAHDIM_clean_sbu_0, # of connection points: 4
#     Node 11, Type 0, BuildingBlock: NAHDIM_clean_sbu_0, # of connection points: 4
#     Node 12, Type 0, BuildingBlock: NAHDIM_clean_sbu_0, # of connection points: 4
#     Node 13, Type 0, BuildingBlock: NAHDIM_clean_sbu_0, # of connection points: 4
#     Node 14, Type 0, BuildingBlock: NAHDIM_clean_sbu_0, # of connection points: 4
#     Node 15, Type 0, BuildingBlock: NAHDIM_clean_sbu_0, # of connection points: 4
#     Node 16, Type 0, BuildingBlock: NAHDIM_clean_sbu_0, # of connection points: 4
#     Node 17, Type 0, BuildingBlock: NAHDIM_clean_sbu_0, # of connection points: 4
#     Node 18, Type 0, BuildingBlock: NAHDIM_clean_sbu_0, # of connection points: 4
#     Node 19, Type 0, BuildingBlock: NAHDIM_clean_sbu_0, # of connection points: 4
#     Node 20, Type 0, BuildingBlock: NAHDIM_clean_sbu_0, # of connection points: 4
#     Node 21, Type 0, BuildingBlock: NAHDIM_clean_sbu_0, # of connection points: 4
#     Node 22, Type 0, BuildingBlock: NAHDIM_clean_sbu_0, # of connection points: 4
#     Node 23, Type 0, BuildingBlock: NAHDIM_clean_sbu_0, # of connection points: 4
#     Node 24, Type 0, BuildingBlock: NAHDIM_clean_sbu_0, # of connection points: 4
#     Node 25, Type 0, BuildingBlock: NAHDIM_clean_sbu_0, # of connection points: 4
#     Node 26, Type 0, BuildingBlock: NAHDIM_clean_sbu_0, # of connection points: 4
#     Node 27, Type 0, BuildingBlock: NAHDIM_clean_sbu_0, # of connection points: 4
#     Node 28, Type 0, BuildingBlock: NAHDIM_clean_sbu_0, # of connection points: 4
#     Node 29, Type 0, BuildingBlock: NAHDIM_clean_sbu_0, # of connection points: 4
#     Node 30, Type 0, BuildingBlock: NAHDIM_clean_sbu_0, # of connection points: 4
#     Node 31, Type 0, BuildingBlock: NAHDIM_clean_sbu_0, # of connection points: 4
#     Edge 32, Type (0, 0), BuildingBlock: CIFDUS_clean_linker_0, # of connection points: 2
#     Edge 33, Type (0, 0), BuildingBlock: CIFDUS_clean_linker_0, # of connection points: 2
#     Edge 34, Type (0, 0), BuildingBlock: CIFDUS_clean_linker_0, # of connection points: 2
#     Edge 35, Type (0, 0), BuildingBlock: CIFDUS_clean_linker_0, # of connection points: 2
#     Edge 36, Type (0, 0), BuildingBlock: CIFDUS_clean_linker_0, # of connection points: 2
#     Edge 37, Type (0, 0), BuildingBlock: CIFDUS_clean_linker_0, # of connection points: 2
#     Edge 38, Type (0, 0), BuildingBlock: CIFDUS_clean_linker_0, # of connection points: 2
#     Edge 39, Type (0, 0), BuildingBlock: CIFDUS_clean_linker_0, # of connection points: 2
#     Edge 40, Type (0, 0), BuildingBlock: CIFDUS_clean_linker_0, # of connection points: 2
#     Edge 41, Type (0, 0), BuildingBlock: CIFDUS_clean_linker_0, # of connection points: 2
#     Edge 42, Type (0, 0), BuildingBlock: CIFDUS_clean_linker_0, # of connection points: 2
#     Edge 43, Type (0, 0), BuildingBlock: CIFDUS_clean_linker_0, # of connection points: 2
#     Edge 44, Type (0, 0), BuildingBlock: CIFDUS_clean_linker_0, # of connection points: 2
#     Edge 45, Type (0, 0), BuildingBlock: CIFDUS_clean_linker_0, # of connection points: 2
#     Edge 46, Type (0, 0), BuildingBlock: CIFDUS_clean_linker_0, # of connection points: 2
#     Edge 47, Type (0, 0), BuildingBlock: CIFDUS_clean_linker_0, # of connection points: 2
#     Edge 48, Type (0, 0), BuildingBlock: CIFDUS_clean_linker_0, # of connection points: 2
#     Edge 49, Type (0, 0), BuildingBlock: CIFDUS_clean_linker_0, # of connection points: 2
#     Edge 50, Type (0, 0), BuildingBlock: CIFDUS_clean_linker_0, # of connection points: 2
#     Edge 51, Type (0, 0), BuildingBlock: CIFDUS_clean_linker_0, # of connection points: 2
#     Edge 52, Type (0, 0), BuildingBlock: CIFDUS_clean_linker_0, # of connection points: 2
#     Edge 53, Type (0, 0), BuildingBlock: CIFDUS_clean_linker_0, # of connection points: 2
#     Edge 54, Type (0, 0), BuildingBlock: CIFDUS_clean_linker_0, # of connection points: 2
#     Edge 55, Type (0, 0), BuildingBlock: CIFDUS_clean_linker_0, # of connection points: 2
#     Edge 56, Type (0, 0), BuildingBlock: CIFDUS_clean_linker_0, # of connection points: 2
#     Edge 57, Type (0, 0), BuildingBlock: CIFDUS_clean_linker_0, # of connection points: 2
#     Edge 58, Type (0, 0), BuildingBlock: CIFDUS_clean_linker_0, # of connection points: 2
#     Edge 59, Type (0, 0), BuildingBlock: CIFDUS_clean_linker_0, # of connection points: 2
#     Edge 60, Type (0, 0), BuildingBlock: CIFDUS_clean_linker_0, # of connection points: 2
#     Edge 61, Type (0, 0), BuildingBlock: CIFDUS_clean_linker_0, # of connection points: 2
#     Edge 62, Type (0, 0), BuildingBlock: CIFDUS_clean_linker_0, # of connection points: 2
#     Edge 63, Type (0, 0), BuildingBlock: CIFDUS_clean_linker_0, # of connection points: 2
#     Edge 64, Type (0, 0), BuildingBlock: CIFDUS_clean_linker_0, # of connection points: 2
#     Edge 65, Type (0, 0), BuildingBlock: CIFDUS_clean_linker_0, # of connection points: 2
#     Edge 66, Type (0, 0), BuildingBlock: CIFDUS_clean_linker_0, # of connection points: 2
#     Edge 67, Type (0, 0), BuildingBlock: CIFDUS_clean_linker_0, # of connection points: 2
#     Edge 68, Type (0, 0), BuildingBlock: CIFDUS_clean_linker_0, # of connection points: 2
#     Edge 69, Type (0, 0), BuildingBlock: CIFDUS_clean_linker_0, # of connection points: 2
#     Edge 70, Type (0, 0), BuildingBlock: CIFDUS_clean_linker_0, # of connection points: 2
#     Edge 71, Type (0, 0), BuildingBlock: CIFDUS_clean_linker_0, # of connection points: 2
#     Edge 72, Type (0, 0), BuildingBlock: CIFDUS_clean_linker_0, # of connection points: 2
#     Edge 73, Type (0, 0), BuildingBlock: CIFDUS_clean_linker_0, # of connection points: 2
#     Edge 74, Type (0, 0), BuildingBlock: CIFDUS_clean_linker_0, # of connection points: 2
#     Edge 75, Type (0, 0), BuildingBlock: CIFDUS_clean_linker_0, # of connection points: 2
#     Edge 76, Type (0, 0), BuildingBlock: CIFDUS_clean_linker_0, # of connection points: 2
#     Edge 77, Type (0, 0), BuildingBlock: CIFDUS_clean_linker_0, # of connection points: 2
#     Edge 78, Type (0, 0), BuildingBlock: CIFDUS_clean_linker_0, # of connection points: 2
#     Edge 79, Type (0, 0), BuildingBlock: CIFDUS_clean_linker_0, # of connection points: 2
#     Edge 80, Type (0, 0), BuildingBlock: CIFDUS_clean_linker_0, # of connection points: 2
#     Edge 81, Type (0, 0), BuildingBlock: CIFDUS_clean_linker_0, # of connection points: 2
#     Edge 82, Type (0, 0), BuildingBlock: CIFDUS_clean_linker_0, # of connection points: 2
#     Edge 83, Type (0, 0), BuildingBlock: CIFDUS_clean_linker_0, # of connection points: 2
#     Edge 84, Type (0, 0), BuildingBlock: CIFDUS_clean_linker_0, # of connection points: 2
#     Edge 85, Type (0, 0), BuildingBlock: CIFDUS_clean_linker_0, # of connection points: 2
#     Edge 86, Type (0, 0), BuildingBlock: CIFDUS_clean_linker_0, # of connection points: 2
#     Edge 87, Type (0, 0), BuildingBlock: CIFDUS_clean_linker_0, # of connection points: 2
#     Edge 88, Type (0, 0), BuildingBlock: CIFDUS_clean_linker_0, # of connection points: 2
#     Edge 89, Type (0, 0), BuildingBlock: CIFDUS_clean_linker_0, # of connection points: 2
#     Edge 90, Type (0, 0), BuildingBlock: CIFDUS_clean_linker_0, # of connection points: 2
#     Edge 91, Type (0, 0), BuildingBlock: CIFDUS_clean_linker_0, # of connection points: 2
#     Edge 92, Type (0, 0), BuildingBlock: CIFDUS_clean_linker_0, # of connection points: 2
#     Edge 93, Type (0, 0), BuildingBlock: CIFDUS_clean_linker_0, # of connection points: 2
#     Edge 94, Type (0, 0), BuildingBlock: CIFDUS_clean_linker_0, # of connection points: 2
#     Edge 95, Type (0, 0), BuildingBlock: CIFDUS_clean_linker_0, # of connection points: 2
# Relax obj value: 0.313
# Max RMSD: 0.189
# Mean RMSD: 0.189
data_MOF--net-uoi--node1-NAHDIM_clean_sbu_0--edge1-CIFDUS_clean_linker_0
_symmetry_space_group_name_H-M    P1
_symmetry_Int_Tables_number       1
_symmetry_cell_setting            triclinic
loop_
_symmetry_equiv_pos_as_xyz
'x, y, z'
_cell_length_a     70.613619
_cell_length_b     70.632689
_cell_length_c     16.643581
_cell_angle_alpha  90.048244
_cell_angle_beta   89.983156
_cell_angle_gamma 89.990348
loop_
_atom_site_label
_atom_site_type_symbol
_atom_site_fract_x
_atom_site_fract_y
_atom_site_fract_z
_atom_type_partial_charge
C0 C 0.13655 0.15469 0.38983 0.0
O1 O 0.1299 0.15649 0.46317 0.0
O2 O 0.18586 0.18855 0.44435 0.0
Zn3 Zn 0.15784 0.18993 0.42006 0.0
O4 O 0.15288 0.2115 0.34385 0.0
C5 C 0.15137 0.193 0.59058 0.0
O6 O 0.16575 0.18125 0.59552 0.0
O7 O 0.14857 0.16657 0.36386 0.0
C8 C 0.14783 0.22798 0.36629 0.0
O9 O 0.1463 0.23178 0.44328 0.0
C10 C 0.1931 0.20251 0.48167 0.0
O11 O 0.18233 0.21712 0.49903 0.0
O12 O 0.14403 0.19616 0.52221 0.0
C13 C 0.10118 0.89292 0.62992 0.0
O14 O 0.10814 0.90043 0.69586 0.0
O15 O 0.07163 0.92827 0.74236 0.0
Zn16 Zn 0.06394 0.90327 0.69496 0.0
O17 O 0.03985 0.90647 0.63324 0.0
C18 C 0.06173 0.8904 0.85771 0.0
O19 O 0.07643 0.90154 0.86814 0.0
O20 O 0.08337 0.89235 0.61999 0.0
C21 C 0.02581 0.91512 0.66381 0.0
O22 O 0.02759 0.92325 0.73444 0.0
C23 C 0.07565 0.94329 0.70426 0.0
O24 O 0.07586 0.94303 0.62533 0.0
O25 O 0.05645 0.88656 0.78658 0.0
C26 C 0.35047 0.83549 0.77756 0.0
O27 O 0.33946 0.82406 0.73632 0.0
O28 O 0.31491 0.80768 0.89522 0.0
Zn29 Zn 0.34334 0.80695 0.89005 0.0
O30 O 0.35058 0.78631 0.81269 0.0
C31 C 0.34387 0.79901 0.0611 0.0
O32 O 0.32808 0.80881 0.06222 0.0
O33 O 0.35417 0.83148 0.85032 0.0
C34 C 0.3488 0.76917 0.83485 0.0
O35 O 0.342 0.76556 0.90672 0.0
C36 C 0.30516 0.82164 0.91994 0.0
O37 O 0.31379 0.83735 0.94114 0.0
O38 O 0.3536 0.79848 0.99689 0.0
C39 C 0.40711 0.11099 0.04334 0.0
O40 O 0.42068 0.10019 0.01477 0.0
O41 O 0.41902 0.07422 0.21955 0.0
Zn42 Zn 0.42579 0.10092 0.18825 0.0
O43 O 0.4505 0.10059 0.12869 0.0
C44 C 0.42704 0.10941 0.35784 0.0
O45 O 0.41416 0.09606 0.36341 0.0
O46 O 0.40593 0.11343 0.11896 0.0
C47 C 0.46461 0.09156 0.15661 0.0
O48 O 0.46261 0.08163 0.22277 0.0
C49 C 0.41925 0.06034 0.171 0.0
O50 O 0.42291 0.06342 0.09474 0.0
O51 O 0.43189 0.11527 0.2887 0.0
C52 C 0.1531 0.84507 0.25605 0.0
O53 O 0.16954 0.8382 0.27889 0.0
O54 O 0.18838 0.82709 0.11364 0.0
Zn55 Zn 0.16135 0.81917 0.13524 0.0
O56 O 0.16093 0.79735 0.21329 0.0
C57 C 0.15596 0.81424 0.96301 0.0
O58 O 0.16651 0.82948 0.95634 0.0
O59 O 0.14635 0.83982 0.18877 0.0
C60 C 0.16013 0.78011 0.19135 0.0
O61 O 0.16068 0.77593 0.11455 0.0
C62 C 0.19862 0.81522 0.07604 0.0
O63 O 0.19136 0.79871 0.05679 0.0
O64 O 0.15017 0.80929 0.03219 0.0
C65 C 0.40526 0.90754 0.49349 0.0
O66 O 0.41547 0.91958 0.53528 0.0
O67 O 0.42343 0.94774 0.35049 0.0
Zn68 Zn 0.43036 0.92072 0.37444 0.0
O69 O 0.4518 0.91904 0.45367 0.0
C70 C 0.4367 0.91555 0.20367 0.0
O71 O 0.4225 0.9274 0.19498 0.0
O72 O 0.40847 0.9058 0.41866 0.0
C73 C 0.46883 0.92183 0.4319 0.0
O74 O 0.47227 0.92756 0.35825 0.0
C75 C 0.42442 0.96144 0.39978 0.0
O76 O 0.42957 0.95816 0.47432 0.0
O77 O 0.44087 0.90958 0.2734 0.0
C78 C 0.35269 0.16391 0.68858 0.0
O79 O 0.33998 0.17572 0.71714 0.0
O80 O 0.31476 0.17933 0.54441 0.0
Zn81 Zn 0.34289 0.18451 0.55098 0.0
O82 O 0.34739 0.20946 0.60627 0.0
C83 C 0.34212 0.18836 0.37916 0.0
O84 O 0.32542 0.18037 0.38664 0.0
O85 O 0.35648 0.16435 0.61389 0.0
C86 C 0.34268 0.22478 0.57148 0.0
O87 O 0.33429 0.224 0.50111 0.0
C88 C 0.30266 0.18894 0.58362 0.0
O89 O 0.30856 0.20161 0.63568 0.0
O90 O 0.35312 0.18874 0.43963 0.0
C91 C 0.09172 0.0972 0.02512 0.0
O92 O 0.07953 0.08443 0.04984 0.0
O93 O 0.08034 0.06391 0.83839 0.0
Zn94 Zn 0.0724 0.08946 0.87989 0.0
O95 O 0.04809 0.08756 0.9419 0.0
C96 C 0.0695 0.10091 0.71368 0.0
O97 O 0.08322 0.08868 0.70146 0.0
O98 O 0.092 0.10166 0.95105 0.0
C99 C 0.03344 0.07985 0.91193 0.0
O100 O 0.03456 0.07154 0.84145 0.0
C101 C 0.07792 0.04852 0.87638 0.0
O102 O 0.07092 0.04905 0.94949 0.0
O103 O 0.06494 0.10519 0.78525 0.0
C104 C 0.85108 0.84873 0.73386 0.0
O105 O 0.83968 0.83628 0.76702 0.0
O106 O 0.81677 0.82784 0.57166 0.0
Zn107 Zn 0.84398 0.82436 0.60387 0.0
O108 O 0.84627 0.80212 0.67833 0.0
C109 C 0.85186 0.82179 0.43539 0.0
O110 O 0.83962 0.83576 0.4309 0.0
O111 O 0.85497 0.84715 0.65951 0.0
C112 C 0.84307 0.78529 0.6549 0.0
O113 O 0.83731 0.78234 0.58089 0.0
C114 C 0.80443 0.83927 0.59873 0.0
O115 O 0.80879 0.85075 0.658 0.0
O116 O 0.85776 0.81662 0.50407 0.0
C117 C 0.91358 0.10003 0.50142 0.0
O118 O 0.92224 0.08478 0.52787 0.0
O119 O 0.93483 0.06516 0.36573 0.0
Zn120 Zn 0.9401 0.09306 0.38095 0.0
O121 O 0.96203 0.09657 0.45719 0.0
C122 C 0.94712 0.09466 0.20998 0.0
O123 O 0.93599 0.07977 0.20781 0.0
O124 O 0.91808 0.10646 0.43261 0.0
C125 C 0.97886 0.10002 0.43403 0.0
O126 O 0.98269 0.10058 0.35686 0.0
C127 C 0.94889 0.05444 0.35122 0.0
O128 O 0.96598 0.06178 0.35091 0.0
O129 O 0.94854 0.10398 0.2751 0.0
C130 C 0.64744 0.15012 0.21503 0.0
O131 O 0.66071 0.16109 0.245 0.0
O132 O 0.68538 0.16076 0.04866 0.0
Zn133 Zn 0.65912 0.16977 0.07634 0.0
O134 O 0.66015 0.19397 0.13998 0.0
C135 C 0.65333 0.17343 0.90524 0.0
O136 O 0.66564 0.15955 0.89968 0.0
O137 O 0.64421 0.15067 0.13986 0.0
C138 C 0.66738 0.20877 0.10918 0.0
O139 O 0.67541 0.20769 0.0381 0.0
C140 C 0.70005 0.16532 0.08832 0.0
O141 O 0.69811 0.17511 0.15498 0.0
O142 O 0.64671 0.17781 0.97378 0.0
C143 C 0.6006 0.89087 0.89192 0.0
O144 O 0.60212 0.88936 0.8135 0.0
O145 O 0.57468 0.94301 0.85067 0.0
Zn146 Zn 0.56684 0.91585 0.86862 0.0
O147 O 0.54489 0.91502 0.94581 0.0
C148 C 0.56194 0.91122 0.69598 0.0
O149 O 0.5768 0.92233 0.69001 0.0
O150 O 0.5875 0.90097 0.92188 0.0
C151 C 0.52768 0.91466 0.92323 0.0
O152 O 0.52366 0.91581 0.84641 0.0
C153 C 0.56291 0.95374 0.81511 0.0
O154 O 0.54643 0.94676 0.7936 0.0
O155 O 0.55721 0.90498 0.7647 0.0
C156 C 0.85905 0.15066 0.8619 0.0
O157 O 0.85383 0.14416 0.93245 0.0
O158 O 0.81963 0.18035 0.96238 0.0
Zn159 Zn 0.84495 0.18777 0.91733 0.0
O160 O 0.8422 0.21155 0.85316 0.0
C161 C 0.85665 0.19092 0.08175 0.0
O162 O 0.84532 0.17639 0.09243 0.0
O163 O 0.85672 0.16807 0.84579 0.0
C164 C 0.83359 0.22578 0.88237 0.0
O165 O 0.82523 0.22431 0.95261 0.0
C166 C 0.80629 0.17101 0.93015 0.0
O167 O 0.80833 0.16449 0.8567 0.0
O168 O 0.86092 0.19583 0.01059 0.0
C169 C 0.58195 0.10639 0.55742 0.0
O170 O 0.56933 0.09481 0.52651 0.0
O171 O 0.55525 0.07366 0.68144 0.0
Zn172 Zn 0.55585 0.10212 0.68006 0.0
O173 O 0.53435 0.11061 0.61014 0.0
C174 C 0.54995 0.10166 0.85202 0.0
O175 O 0.55858 0.08523 0.84787 0.0
O176 O 0.57989 0.11178 0.62984 0.0
C177 C 0.51738 0.10901 0.63476 0.0
O178 O 0.51419 0.1016 0.70588 0.0
C179 C 0.5692 0.0631 0.69931 0.0
O180 O 0.58561 0.07084 0.71677 0.0
O181 O 0.54965 0.11221 0.7902 0.0
C182 C 0.65556 0.83712 0.24355 0.0
O183 O 0.66876 0.82581 0.2153 0.0
O184 O 0.693 0.82771 0.40988 0.0
Zn185 Zn 0.66646 0.81863 0.38772 0.0
O186 O 0.6676 0.79346 0.33179 0.0
C187 C 0.66225 0.81287 0.55805 0.0
O188 O 0.67899 0.82095 0.56083 0.0
O189 O 0.65199 0.83694 0.31847 0.0
C190 C 0.65231 0.7844 0.31986 0.0
O191 O 0.63613 0.79215 0.34077 0.0
C192 C 0.70699 0.82165 0.3693 0.0
O193 O 0.70386 0.81037 0.30793 0.0
O194 O 0.65333 0.81256 0.49174 0.0
C195 C 0.90711 0.90685 0.0659 0.0
O196 O 0.91909 0.91876 0.03281 0.0
O197 O 0.93355 0.94037 0.19992 0.0
Zn198 Zn 0.93368 0.91205 0.18719 0.0
O199 O 0.95463 0.90482 0.11132 0.0
C200 C 0.94025 0.90989 0.35791 0.0
O201 O 0.93122 0.92614 0.35885 0.0
O202 O 0.90962 0.90208 0.1388 0.0
C203 C 0.97167 0.90299 0.13472 0.0
O204 O 0.97596 0.90666 0.20994 0.0
C205 C 0.91891 0.95042 0.21242 0.0
O206 O 0.90215 0.94234 0.21268 0.0
O207 O 0.94069 0.90035 0.29314 0.0
C208 C 0.63579 0.65222 0.82667 0.0
O209 O 0.64372 0.64545 0.89202 0.0
O210 O 0.67516 0.68087 0.91038 0.0
Zn211 Zn 0.64841 0.68896 0.88606 0.0
O212 O 0.64938 0.71358 0.82661 0.0
C213 C 0.64211 0.69198 0.05632 0.0
O214 O 0.65658 0.68034 0.06059 0.0
O215 O 0.63563 0.66997 0.81489 0.0
C216 C 0.63447 0.72016 0.79434 0.0
O217 O 0.61873 0.71026 0.79731 0.0
C218 C 0.68627 0.69311 0.94057 0.0
O219 O 0.67993 0.71035 0.95328 0.0
O220 O 0.63453 0.6951 0.98841 0.0
C221 C 0.5933 0.39583 0.97488 0.0
O222 O 0.58387 0.41071 0.94958 0.0
O223 O 0.58333 0.42925 0.16291 0.0
Zn224 Zn 0.573 0.40489 0.11778 0.0
O225 O 0.54958 0.41048 0.05378 0.0
C226 C 0.56516 0.39493 0.28233 0.0
O227 O 0.57799 0.40787 0.29808 0.0
O228 O 0.59147 0.39066 0.04771 0.0
C229 C 0.53947 0.3964 0.03315 0.0
O230 O 0.54542 0.37922 0.04985 0.0
C231 C 0.5822 0.44514 0.12773 0.0
O232 O 0.57571 0.44585 0.05382 0.0
O233 O 0.56288 0.38955 0.21008 0.0
C234 C 0.85228 0.34586 0.28978 0.0
O235 O 0.83909 0.33549 0.25562 0.0
O236 O 0.8143 0.3256 0.42346 0.0
Zn237 Zn 0.84234 0.32075 0.41109 0.0
O238 O 0.84695 0.29904 0.33507 0.0
C239 C 0.84244 0.31196 0.58007 0.0
O240 O 0.82635 0.32129 0.57945 0.0
O241 O 0.85605 0.34306 0.36355 0.0
C242 C 0.84753 0.28187 0.35788 0.0
O243 O 0.84402 0.27777 0.43339 0.0
C244 C 0.80184 0.31763 0.38 0.0
O245 O 0.80726 0.30686 0.31986 0.0
O246 O 0.85273 0.31205 0.51736 0.0
C247 C 0.89628 0.58921 0.46303 0.0
O248 O 0.90682 0.57574 0.43183 0.0
O249 O 0.91664 0.55338 0.60756 0.0
Zn250 Zn 0.92139 0.58108 0.5871 0.0
O251 O 0.94323 0.58475 0.51127 0.0
C252 C 0.92626 0.58471 0.75844 0.0
O253 O 0.91299 0.5717 0.76157 0.0
O254 O 0.89903 0.59394 0.5359 0.0
C255 C 0.96036 0.58329 0.53385 0.0
O256 O 0.96406 0.5781 0.60797 0.0
C257 C 0.92505 0.54018 0.5699 0.0
O258 O 0.93627 0.54447 0.50965 0.0
O259 O 0.93008 0.59241 0.69136 0.0
C260 C 0.6432 0.34138 0.61111 0.0
O261 O 0.64544 0.34615 0.53542 0.0
O262 O 0.68867 0.30992 0.5487 0.0
Zn263 Zn 0.66163 0.30392 0.57682 0.0
O264 O 0.66074 0.28207 0.65352 0.0
C265 C 0.65658 0.29539 0.40946 0.0
O266 O 0.67141 0.30645 0.40144 0.0
O267 O 0.64875 0.32526 0.63511 0.0
C268 C 0.6612 0.26491 0.63043 0.0
O269 O 0.66387 0.26108 0.55401 0.0
C270 C 0.69987 0.32092 0.58588 0.0
O271 O 0.69404 0.32958 0.65127 0.0
O272 O 0.64836 0.29453 0.47735 0.0
C273 C 0.91597 0.39668 0.95899 0.0
O274 O 0.92894 0.40762 0.99137 0.0
O275 O 0.9323 0.43159 0.78501 0.0
Zn276 Zn 0.93794 0.40493 0.8201 0.0
O277 O 0.96187 0.40469 0.88517 0.0
C278 C 0.94232 0.39692 0.65195 0.0
O279 O 0.93076 0.41136 0.64357 0.0
O280 O 0.91662 0.39341 0.88385 0.0
C281 C 0.97669 0.41193 0.85454 0.0
O282 O 0.97554 0.42037 0.78438 0.0
C283 C 0.92017 0.4431 0.81317 0.0
O284 O 0.90973 0.43811 0.87493 0.0
O285 O 0.94493 0.39008 0.72168 0.0
C286 C 0.83564 0.66766 0.23704 0.0
O287 O 0.8251 0.68117 0.268 0.0
O288 O 0.80493 0.69621 0.10217 0.0
Zn289 Zn 0.83317 0.69358 0.1119 0.0
O290 O 0.8424 0.7145 0.18326 0.0
C291 C 0.83669 0.69541 0.93755 0.0
O292 O 0.82195 0.68408 0.93643 0.0
O293 O 0.84079 0.66905 0.16402 0.0
C294 C 0.84203 0.73157 0.1592 0.0
O295 O 0.83513 0.73539 0.08772 0.0
C296 C 0.79374 0.68288 0.08292 0.0
O297 O 0.80054 0.66577 0.07149 0.0
O298 O 0.84476 0.69896 0.00412 0.0
C299 C 0.59082 0.59811 0.45191 0.0
O300 O 0.58425 0.58157 0.47468 0.0
O301 O 0.57668 0.56396 0.28429 0.0
Zn302 Zn 0.5666 0.58877 0.32569 0.0
O303 O 0.54531 0.58524 0.40439 0.0
C304 C 0.55996 0.59782 0.15974 0.0
O305 O 0.57596 0.58872 0.14838 0.0
O306 O 0.58612 0.60444 0.3832 0.0
C307 C 0.52833 0.58207 0.38286 0.0
O308 O 0.52461 0.57894 0.30667 0.0
C309 C 0.5764 0.54802 0.31944 0.0
O310 O 0.57009 0.54689 0.39353 0.0
O311 O 0.55479 0.60168 0.23105 0.0
C312 C 0.35227 0.33099 0.19756 0.0
O313 O 0.33985 0.31838 0.22171 0.0
O314 O 0.31801 0.32148 0.01138 0.0
Zn315 Zn 0.3437 0.31294 0.04975 0.0
O316 O 0.34125 0.28834 0.10888 0.0
C317 C 0.35323 0.30818 0.88295 0.0
O318 O 0.33896 0.31981 0.87175 0.0
O319 O 0.35632 0.33193 0.12313 0.0
C320 C 0.33161 0.27465 0.08098 0.0
O321 O 0.32182 0.27698 0.01462 0.0
C322 C 0.30307 0.32158 0.05387 0.0
O323 O 0.30411 0.31686 0.13005 0.0
O324 O 0.35937 0.30563 0.95389 0.0
C325 C 0.39265 0.58923 0.89866 0.0
O326 O 0.38716 0.57274 0.87059 0.0
O327 O 0.42362 0.55312 0.81109 0.0
Zn328 Zn 0.43015 0.58056 0.83029 0.0
O329 O 0.45181 0.58318 0.90777 0.0
C330 C 0.43626 0.58339 0.65886 0.0
O331 O 0.42285 0.57054 0.65471 0.0
O332 O 0.40916 0.59529 0.88254 0.0
C333 C 0.46908 0.58273 0.88638 0.0
O334 O 0.47334 0.57879 0.8114 0.0
C335 C 0.43161 0.53968 0.84876 0.0
O336 O 0.44335 0.5437 0.90757 0.0
O337 O 0.4398 0.59118 0.72607 0.0
C338 C 0.15664 0.65727 0.76174 0.0
O339 O 0.16983 0.66695 0.79927 0.0
O340 O 0.19387 0.67602 0.60734 0.0
Zn341 Zn 0.16738 0.68299 0.64048 0.0
O342 O 0.16688 0.70428 0.72065 0.0
C343 C 0.15965 0.68923 0.4719 0.0
O344 O 0.17084 0.6746 0.46074 0.0
O345 O 0.15314 0.66109 0.68854 0.0
C346 C 0.1691 0.72138 0.69868 0.0
O347 O 0.17382 0.72499 0.62389 0.0
C348 C 0.20846 0.6747 0.65157 0.0
O349 O 0.20692 0.67753 0.72931 0.0
O350 O 0.15477 0.69368 0.5429 0.0
C351 C 0.08643 0.39803 0.46814 0.0
O352 O 0.07472 0.41165 0.48865 0.0
O353 O 0.07297 0.43187 0.30012 0.0
Zn354 Zn 0.0669 0.4045 0.32408 0.0
O355 O 0.04189 0.40288 0.38085 0.0
C356 C 0.06284 0.3998 0.154 0.0
O357 O 0.07272 0.41554 0.1514 0.0
O358 O 0.08645 0.39227 0.39564 0.0
C359 C 0.02687 0.40861 0.34648 0.0
O360 O 0.02802 0.41666 0.2755 0.0
C361 C 0.06565 0.4456 0.33849 0.0
O362 O 0.0548 0.44205 0.40081 0.0
O363 O 0.06171 0.3909 0.22019 0.0
C364 C 0.34822 0.64656 0.26684 0.0
O365 O 0.32986 0.64873 0.2586 0.0
O366 O 0.3167 0.66658 0.42593 0.0
Zn367 Zn 0.34304 0.67429 0.39245 0.0
O368 O 0.34169 0.69852 0.33059 0.0
C369 C 0.35139 0.67763 0.56143 0.0
O370 O 0.33855 0.66431 0.56925 0.0
O371 O 0.35673 0.65522 0.32333 0.0
C372 C 0.334 0.713 0.36215 0.0
O373 O 0.32581 0.71151 0.43276 0.0
C374 C 0.30203 0.67064 0.38521 0.0
O375 O 0.304 0.67862 0.31443 0.0
O376 O 0.35722 0.68192 0.49156 0.0
C377 C 0.0943 0.59853 0.07283 0.0
O378 O 0.09638 0.59598 0.1505 0.0
O379 O 0.06146 0.55418 0.12336 0.0
Zn380 Zn 0.05654 0.58105 0.09035 0.0
O381 O 0.03516 0.58243 0.01115 0.0
C382 C 0.05177 0.58871 0.25862 0.0
O383 O 0.06595 0.5768 0.26623 0.0
O384 O 0.07909 0.59328 0.03886 0.0
C385 C 0.01806 0.58037 0.0334 0.0
O386 O 0.01443 0.57588 0.10844 0.0
C387 C 0.07271 0.54218 0.09263 0.0
O388 O 0.0826 0.54673 0.02861 0.0
O389 O 0.04717 0.59438 0.18886 0.0
C390 C 0.1339 0.35215 0.85705 0.0
O391 O 0.13107 0.35602 0.93335 0.0
O392 O 0.18065 0.32587 0.95383 0.0
Zn393 Zn 0.15482 0.31859 0.91355 0.0
O394 O 0.15645 0.29395 0.8545 0.0
C395 C 0.1433 0.3171 0.0795 0.0
O396 O 0.15567 0.33079 0.08946 0.0
O397 O 0.14349 0.33763 0.83792 0.0
C398 C 0.16447 0.27961 0.88565 0.0
O399 O 0.17317 0.28136 0.95501 0.0
C400 C 0.1955 0.32569 0.91084 0.0
O401 O 0.19408 0.32175 0.83391 0.0
O402 O 0.13876 0.31217 0.00867 0.0
C403 C 0.4197 0.39628 0.46485 0.0
O404 O 0.43243 0.4086 0.44081 0.0
O405 O 0.43426 0.43038 0.63856 0.0
Zn406 Zn 0.43945 0.4032 0.60881 0.0
O407 O 0.46405 0.40191 0.54872 0.0
C408 C 0.44483 0.39729 0.77701 0.0
O409 O 0.43581 0.4135 0.78212 0.0
O410 O 0.4192 0.3917 0.53877 0.0
C411 C 0.47922 0.40737 0.58264 0.0
O412 O 0.47835 0.41491 0.65476 0.0
C413 C 0.42187 0.44187 0.61258 0.0
O414 O 0.4103 0.43662 0.55492 0.0
O415 O 0.44506 0.38859 0.71012 0.0
H416 H 0.27462 0.21286 0.62924 0.0
H417 H 0.28508 0.16226 0.49055 0.0
H418 H 0.25196 0.16171 0.44789 0.0
H419 H 0.22029 0.17635 0.44593 0.0
H420 H 0.21047 0.22756 0.58165 0.0
H421 H 0.24309 0.22712 0.6291 0.0
C422 C 0.26964 0.20158 0.59034 0.0
C423 C 0.28231 0.18761 0.56327 0.0
C424 C 0.25071 0.20156 0.56483 0.0
C425 C 0.27562 0.1732 0.51231 0.0
C426 C 0.25669 0.1729 0.48769 0.0
C427 C 0.22529 0.18739 0.48595 0.0
C428 C 0.21297 0.20202 0.50974 0.0
C429 C 0.24416 0.18714 0.5128 0.0
C430 C 0.21967 0.21621 0.56175 0.0
C431 C 0.23832 0.21595 0.58924 0.0
H432 H 0.08433 0.97818 0.64436 0.0
H433 H 0.07222 0.94874 0.86583 0.0
H434 H 0.07304 0.97854 0.93935 0.0
H435 H 0.07505 0.01317 0.93979 0.0
H436 H 0.08715 0.04275 0.71877 0.0
H437 H 0.08865 0.01272 0.64664 0.0
C438 C 0.08203 0.97826 0.70879 0.0
C439 C 0.07804 0.96124 0.74918 0.0
C440 C 0.08245 0.9955 0.75099 0.0
C441 C 0.07524 0.96161 0.83291 0.0
C442 C 0.07567 0.97867 0.87518 0.0
C443 C 0.07818 0.01305 0.876 0.0
C444 C 0.08081 0.03021 0.83479 0.0
C445 C 0.07893 0.99573 0.83465 0.0
C446 C 0.085 0.02976 0.75213 0.0
C447 C 0.08581 0.01258 0.71064 0.0
H448 H 0.22142 0.79473 0.97864 0.0
H449 H 0.21961 0.84649 0.11647 0.0
H450 H 0.25214 0.85374 0.07596 0.0
H451 H 0.2815 0.84464 0.00545 0.0
H452 H 0.28288 0.79257 0.86929 0.0
H453 H 0.25 0.78631 0.90459 0.0
C454 C 0.2281 0.80761 -2e-05 0.0
C455 C 0.21816 0.81996 0.05108 0.0
C456 C 0.24671 0.81167 0.97649 0.0
C457 C 0.22699 0.83669 0.07736 0.0
C458 C 0.24558 0.84085 0.05416 0.0
C459 C 0.27454 0.83204 0.98278 0.0
C460 C 0.28468 0.81906 0.93505 0.0
C461 C 0.25563 0.82837 0.00418 0.0
C462 C 0.27545 0.80276 0.90642 0.0
C463 C 0.25665 0.79913 0.92669 0.0
H464 H 0.41931 0.04891 0.32704 0.0
H465 H 0.4157 0.02774 0.08406 0.0
H466 H 0.41573 0.99526 0.13421 0.0
H467 H 0.41871 0.97295 0.24599 0.0
H468 H 0.42361 0.99403 0.4887 0.0
H469 H 0.42104 0.02652 0.43951 0.0
C470 C 0.41832 0.03721 0.28501 0.0
C471 C 0.41756 0.04077 0.20183 0.0
C472 C 0.41868 0.01856 0.31415 0.0
C473 C 0.41637 0.02542 0.14832 0.0
C474 C 0.41641 0.00683 0.17694 0.0
C475 C 0.41905 0.98462 0.28836 0.0
C476 C 0.42143 0.98104 0.37096 0.0
C477 C 0.41786 0.00325 0.2596 0.0
C478 C 0.42187 0.99637 0.42482 0.0
C479 C 0.42041 0.01496 0.39673 0.0
H480 H 0.71825 0.84241 0.499 0.0
H481 H 0.73979 0.80885 0.30203 0.0
H482 H 0.77185 0.81195 0.3546 0.0
H483 H 0.79348 0.8226 0.45982 0.0
H484 H 0.77232 0.85618 0.65723 0.0
H485 H 0.74035 0.85469 0.6008 0.0
C486 C 0.72997 0.83592 0.46711 0.0
C487 C 0.72657 0.8253 0.39691 0.0
C488 C 0.7484 0.83764 0.49799 0.0
C489 C 0.74195 0.81705 0.35627 0.0
C490 C 0.76031 0.81876 0.3864 0.0
C491 C 0.78189 0.82964 0.49058 0.0
C492 C 0.78524 0.83932 0.56311 0.0
C493 C 0.76364 0.82874 0.45785 0.0
C494 C 0.77012 0.84857 0.60147 0.0
C495 C 0.75184 0.84771 0.56929 0.0
H496 H 0.91555 0.03609 0.32189 0.0
H497 H 0.97615 0.02782 0.32723 0.0
H498 H 0.97216 0.99522 0.28259 0.0
H499 H 0.95169 0.96915 0.24155 0.0
H500 H 0.89106 0.97686 0.23632 0.0
H501 H 0.89489 0.00966 0.28078 0.0
C502 C 0.92787 0.02712 0.31372 0.0
C503 C 0.94612 0.03441 0.32803 0.0
C504 C 0.9255 0.00835 0.28747 0.0
C505 C 0.96193 0.02261 0.31668 0.0
C506 C 0.95968 0.00396 0.29097 0.0
C507 C 0.93928 0.978 0.24961 0.0
C508 C 0.92111 0.97055 0.23533 0.0
C509 C 0.94156 0.99672 0.27584 0.0
C510 C 0.90521 0.98223 0.24674 0.0
C511 C 0.90739 0.00098 0.27236 0.0
H512 H 0.77345 0.15482 0.87702 0.0
H513 H 0.79841 0.18253 0.08278 0.0
H514 H 0.76811 0.18177 0.15231 0.0
H515 H 0.73407 0.1754 0.15146 0.0
H516 H 0.70874 0.14817 0.94554 0.0
H517 H 0.73962 0.1464 0.88016 0.0
C518 C 0.7723 0.16053 0.93732 0.0
C519 C 0.78817 0.16889 0.97407 0.0
C520 C 0.75473 0.1602 0.97711 0.0
C521 C 0.78642 0.17614 0.05254 0.0
C522 C 0.76908 0.17573 0.09256 0.0
C523 C 0.73531 0.16887 0.09268 0.0
C524 C 0.71906 0.16208 0.05335 0.0
C525 C 0.75306 0.16811 0.05489 0.0
C526 C 0.72099 0.15359 0.97724 0.0
C527 C 0.73865 0.15262 0.93957 0.0
H528 H 0.54127 0.97892 0.73408 0.0
H529 H 0.59517 0.97331 0.85406 0.0
H530 H 0.60239 0.00648 0.82485 0.0
H531 H 0.59284 0.03736 0.76905 0.0
H532 H 0.53859 0.04261 0.65137 0.0
H533 H 0.53217 0.00922 0.67544 0.0
C534 C 0.55463 0.9849 0.75387 0.0
C535 C 0.5676 0.97367 0.79661 0.0
C536 C 0.55865 0.00392 0.73713 0.0
C537 C 0.58488 0.98167 0.82131 0.0
C538 C 0.58903 0.00062 0.80457 0.0
C539 C 0.57969 0.03115 0.74803 0.0
C540 C 0.5662 0.0425 0.70868 0.0
C541 C 0.57596 0.01192 0.76296 0.0
C542 C 0.5492 0.03424 0.68212 0.0
C543 C 0.54549 0.01513 0.69593 0.0
H544 H 0.71236 0.71555 0.01285 0.0
H545 H 0.70395 0.65887 0.92242 0.0
H546 H 0.73619 0.65041 0.96176 0.0
H547 H 0.76705 0.65937 0.01909 0.0
H548 H 0.77526 0.71625 0.10799 0.0
H549 H 0.74278 0.72428 0.07238 0.0
C550 C 0.71755 0.70134 0.00165 0.0
C551 C 0.70578 0.68791 0.96437 0.0
C552 C 0.73608 0.69657 0.02435 0.0
C553 C 0.71273 0.66952 0.95075 0.0
C554 C 0.73117 0.66466 0.97332 0.0
C555 C 0.76169 0.67348 0.03124 0.0
C556 C 0.77361 0.68717 0.06609 0.0
C557 C 0.743 0.6781 0.00989 0.0
C558 C 0.76643 0.70541 0.08113 0.0
C559 C 0.74785 0.71005 0.06066 0.0
H560 H 0.582 0.51231 0.37655 0.0
H561 H 0.58035 0.5448 0.15705 0.0
H562 H 0.58358 0.51591 0.07819 0.0
H563 H 0.58404 0.48121 0.07099 0.0
H564 H 0.58624 0.44868 0.29027 0.0
H565 H 0.58589 0.47774 0.3693 0.0
C566 C 0.58254 0.51308 0.31151 0.0
C567 C 0.5807 0.53067 0.27292 0.0
C568 C 0.58444 0.49638 0.26624 0.0
C569 C 0.58167 0.53145 0.18851 0.0
C570 C 0.58346 0.51491 0.14318 0.0
C571 C 0.58468 0.48048 0.13603 0.0
C572 C 0.58492 0.46278 0.17449 0.0
C573 C 0.58443 0.49727 0.18133 0.0
C574 C 0.58598 0.4621 0.25889 0.0
C575 C 0.58569 0.47873 0.30432 0.0
H576 H 0.78649 0.33472 0.51171 0.0
H577 H 0.77167 0.30245 0.30032 0.0
H578 H 0.73874 0.30127 0.34432 0.0
H579 H 0.71456 0.30787 0.44574 0.0
H580 H 0.72918 0.33982 0.65811 0.0
H581 H 0.76182 0.34266 0.61049 0.0
C582 C 0.77603 0.32758 0.47479 0.0
C583 C 0.7816 0.3186 0.40294 0.0
C584 C 0.75713 0.32677 0.50087 0.0
C585 C 0.76783 0.30943 0.35597 0.0
C586 C 0.74899 0.3087 0.38117 0.0
C587 C 0.72485 0.31551 0.48167 0.0
C588 C 0.71945 0.32349 0.55577 0.0
C589 C 0.74355 0.31705 0.45408 0.0
C590 C 0.73295 0.33349 0.60102 0.0
C591 C 0.75163 0.33511 0.57384 0.0
H592 H 0.93555 0.45508 0.67287 0.0
H593 H 0.89971 0.4734 0.8683 0.0
H594 H 0.89712 0.5048 0.80744 0.0
H595 H 0.90618 0.52736 0.70185 0.0
H596 H 0.94214 0.50882 0.50707 0.0
H597 H 0.94333 0.47708 0.56445 0.0
C598 C 0.92713 0.46591 0.70227 0.0
C599 C 0.91797 0.46194 0.77545 0.0
C600 C 0.92568 0.48387 0.66698 0.0
C601 C 0.90696 0.47609 0.8121 0.0
C602 C 0.90548 0.49405 0.77734 0.0
C603 C 0.91413 0.51634 0.67144 0.0
C604 C 0.92413 0.52052 0.60037 0.0
C605 C 0.91492 0.49814 0.70516 0.0
C606 C 0.93434 0.50604 0.56187 0.0
C607 C 0.93509 0.48788 0.59477 0.0
H608 H 0.22998 0.32747 0.83783 0.0
H609 H 0.20325 0.32809 0.0712 0.0
H610 H 0.23419 0.32795 0.13607 0.0
H611 H 0.2688 0.32547 0.1269 0.0
H612 H 0.29555 0.32504 0.89362 0.0
H613 H 0.26469 0.32742 0.82876 0.0
C614 C 0.23091 0.32774 0.90286 0.0
C615 C 0.2143 0.32762 0.94941 0.0
C616 C 0.24878 0.3276 0.94 0.0
C617 C 0.21579 0.32813 0.03371 0.0
C618 C 0.2335 0.32799 0.07102 0.0
C619 C 0.26789 0.32605 0.0619 0.0
C620 C 0.28447 0.32491 0.01534 0.0
C621 C 0.25008 0.32738 0.0248 0.0
C622 C 0.28304 0.32585 0.9311 0.0
C623 C 0.26537 0.32716 0.89381 0.0
H624 H 0.4386 0.45397 0.74974 0.0
H625 H 0.40194 0.47259 0.55793 0.0
H626 H 0.40076 0.50433 0.61697 0.0
H627 H 0.41134 0.52704 0.71994 0.0
H628 H 0.44792 0.50797 0.91149 0.0
H629 H 0.44771 0.47603 0.85589 0.0
C630 C 0.43031 0.46493 0.72072 0.0
C631 C 0.4205 0.46095 0.64906 0.0
C632 C 0.42963 0.48304 0.75509 0.0
C633 C 0.40966 0.47529 0.61296 0.0
C634 C 0.40899 0.49344 0.64669 0.0
C635 C 0.41911 0.51586 0.75004 0.0
C636 C 0.42972 0.51996 0.81962 0.0
C637 C 0.41907 0.49751 0.71737 0.0
C638 C 0.43968 0.50527 0.85781 0.0
C639 C 0.43963 0.48699 0.82591 0.0
H640 H 0.29363 0.66567 0.54321 0.0
H641 H 0.2678 0.67222 0.30979 0.0
H642 H 0.23645 0.67278 0.37175 0.0
H643 H 0.21662 0.67353 0.49227 0.0
H644 H 0.24244 0.6686 0.72648 0.0
H645 H 0.27359 0.66523 0.66391 0.0
C646 C 0.28112 0.66695 0.50574 0.0
C647 C 0.28304 0.66891 0.42194 0.0
C648 C 0.26317 0.66772 0.54193 0.0
C649 C 0.26671 0.67074 0.3744 0.0
C650 C 0.24879 0.6711 0.4098 0.0
C651 C 0.22902 0.67156 0.5298 0.0
C652 C 0.22719 0.6714 0.61405 0.0
C653 C 0.24688 0.66994 0.49355 0.0
C654 C 0.24344 0.66887 0.66155 0.0
C655 C 0.26126 0.66693 0.62581 0.0
H656 H 0.08337 0.4572 0.20146 0.0
H657 H 0.05147 0.47793 0.40482 0.0
H658 H 0.0514 0.50967 0.34738 0.0
H659 H 0.05891 0.53112 0.23694 0.0
H660 H 0.09065 0.51074 0.0327 0.0
H661 H 0.09228 0.47922 0.09329 0.0
C662 C 0.07656 0.46869 0.23366 0.0
C663 C 0.06735 0.46514 0.30724 0.0
C664 C 0.07641 0.48691 0.19991 0.0
C665 C 0.05861 0.48022 0.34805 0.0
C666 C 0.05852 0.49838 0.31515 0.0
C667 C 0.06622 0.51982 0.20552 0.0
C668 C 0.07449 0.52325 0.12998 0.0
C669 C 0.0671 0.50181 0.24061 0.0
C670 C 0.0841 0.50847 0.09075 0.0
C671 C 0.08503 0.49044 0.12535 0.0
H672 H 0.08934 0.09574 0.18794 0.0
H673 H 0.12062 0.12192 0.99471 0.0
H674 H 0.13837 0.14082 0.0918 0.0
H675 H 0.14345 0.15141 0.23 0.0
H676 H 0.11116 0.12643 0.42312 0.0
H677 H 0.09545 0.10539 0.32735 0.0
C678 C 0.10017 0.10543 0.167 0.0
C679 C 0.10358 0.10747 0.08407 0.0
C680 C 0.11008 0.11651 0.22305 0.0
C681 C 0.11764 0.12014 0.0581 0.0
C682 C 0.12779 0.13096 0.11359 0.0
C683 C 0.13313 0.14124 0.2515 0.0
C684 C 0.12843 0.14058 0.3337 0.0
C685 C 0.12389 0.12949 0.19602 0.0
C686 C 0.115 0.1273 0.36022 0.0
C687 C 0.10599 0.11528 0.30544 0.0
H688 H 0.16371 0.85806 0.40293 0.0
H689 H 0.11652 0.85715 0.238 0.0
H690 H 0.09646 0.87229 0.3389 0.0
H691 H 0.09185 0.88402 0.47627 0.0
H692 H 0.13902 0.88508 0.64115 0.0
H693 H 0.15957 0.87157 0.53771 0.0
C694 C 0.14908 0.86133 0.38866 0.0
C695 C 0.14161 0.85634 0.31312 0.0
C696 C 0.13759 0.86988 0.44718 0.0
C697 C 0.12265 0.8608 0.29561 0.0
C698 C 0.11114 0.86938 0.35344 0.0
C699 C 0.10663 0.88131 0.48967 0.0
C700 C 0.11384 0.88536 0.56666 0.0
C701 C 0.11837 0.87365 0.42986 0.0
C702 C 0.13309 0.88203 0.58254 0.0
C703 C 0.14485 0.8743 0.52342 0.0
H704 H 0.40044 0.90335 0.65422 0.0
H705 H 0.38013 0.8828 0.42556 0.0
H706 H 0.36021 0.85961 0.49421 0.0
H707 H 0.35033 0.84378 0.61836 0.0
H708 H 0.37179 0.86342 0.8466 0.0
H709 H 0.38943 0.88848 0.77869 0.0
C710 C 0.39151 0.89395 0.6193 0.0
C711 C 0.39185 0.89475 0.53483 0.0
C712 C 0.38039 0.88042 0.65905 0.0
C713 C 0.38021 0.88242 0.49062 0.0
C714 C 0.36883 0.86914 0.52982 0.0
C715 C 0.35871 0.85365 0.65343 0.0
C716 C 0.35982 0.85166 0.73742 0.0
C717 C 0.36909 0.8678 0.61392 0.0
C718 C 0.37077 0.86457 0.78185 0.0
C719 C 0.38088 0.87889 0.74306 0.0
H720 H 0.34947 0.16194 0.85096 0.0
H721 H 0.37997 0.13787 0.65047 0.0
H722 H 0.39889 0.11877 0.74277 0.0
H723 H 0.40766 0.10998 0.88026 0.0
H724 H 0.37763 0.13457 0.0809 0.0
H725 H 0.35756 0.15236 0.9883 0.0
C726 C 0.36017 0.15243 0.82726 0.0
C727 C 0.36334 0.1514 0.74385 0.0
C728 C 0.37111 0.14164 0.88067 0.0
C729 C 0.37726 0.13898 0.71436 0.0
C730 C 0.3881 0.12807 0.76712 0.0
C731 C 0.39666 0.11915 0.9039 0.0
C732 C 0.39422 0.12099 0.98751 0.0
C733 C 0.38529 0.12945 0.85039 0.0
C734 C 0.37986 0.13292 0.01689 0.0
C735 C 0.36838 0.14311 0.96397 0.0
H736 H 0.90332 0.90878 0.90394 0.0
H737 H 0.87914 0.88263 0.11474 0.0
H738 H 0.85841 0.86349 0.0298 0.0
H739 H 0.84921 0.85228 0.89601 0.0
H740 H 0.87454 0.87734 0.68525 0.0
H741 H 0.89272 0.89893 0.77016 0.0
C742 C 0.89335 0.89909 0.9315 0.0
C743 C 0.89288 0.89705 0.0156 0.0
C744 C 0.8818 0.88783 0.88231 0.0
C745 C 0.87986 0.8844 0.05017 0.0
C746 C 0.86804 0.87342 0.00163 0.0
C747 C 0.85855 0.86259 0.86846 0.0
C748 C 0.86062 0.86309 0.78437 0.0
C749 C 0.86921 0.87471 0.91764 0.0
C750 C 0.87277 0.87657 0.74981 0.0
C751 C 0.88318 0.88891 0.79833 0.0
H752 H 0.86638 0.1586 0.70527 0.0
H753 H 0.87161 0.11434 0.88264 0.0
H754 H 0.8878 0.09426 0.78459 0.0
H755 H 0.90195 0.09 0.65108 0.0
H756 H 0.89679 0.13435 0.47401 0.0
H757 H 0.87885 0.15359 0.56937 0.0
C758 C 0.871 0.14454 0.72256 0.0
C759 C 0.86795 0.13806 0.80153 0.0
C760 C 0.88028 0.13308 0.66594 0.0
C761 C 0.87384 0.11972 0.82245 0.0
C762 C 0.88311 0.10823 0.76641 0.0
C763 C 0.89676 0.1038 0.63296 0.0
C764 C 0.90085 0.11076 0.55559 0.0
C765 C 0.88661 0.11487 0.68833 0.0
C766 C 0.8939 0.12864 0.53313 0.0
C767 C 0.8837 0.13969 0.58777 0.0
H768 H 0.58646 0.10124 0.39716 0.0
H769 H 0.6113 0.12953 0.60161 0.0
H770 H 0.63464 0.14454 0.51376 0.0
H771 H 0.64668 0.15107 0.37818 0.0
H772 H 0.62087 0.12374 0.17348 0.0
H773 H 0.59923 0.1068 0.26254 0.0
C774 C 0.59707 0.11055 0.42279 0.0
C775 C 0.59707 0.11432 0.50586 0.0
C776 C 0.6102 0.11937 0.37185 0.0
C777 C 0.61093 0.12644 0.53787 0.0
C778 C 0.62426 0.13505 0.48765 0.0
C779 C 0.63644 0.14127 0.35299 0.0
C780 C 0.63535 0.13873 0.26919 0.0
C781 C 0.62384 0.13183 0.40442 0.0
C782 C 0.62196 0.12602 0.23768 0.0
C783 C 0.60958 0.11634 0.28857 0.0
H784 H 0.59987 0.8907 0.05477 0.0
H785 H 0.63001 0.86725 0.85201 0.0
H786 H 0.6501 0.849 0.94334 0.0
H787 H 0.6584 0.83905 0.08059 0.0
H788 H 0.62771 0.86235 0.28226 0.0
H789 H 0.60853 0.88138 0.19105 0.0
C790 C 0.61087 0.88166 0.03025 0.0
C791 C 0.61338 0.88032 0.94649 0.0
C792 C 0.62224 0.87116 0.0829 0.0
C793 C 0.62774 0.86854 0.91614 0.0
C794 C 0.63922 0.85809 0.96834 0.0
C795 C 0.64757 0.84835 0.10469 0.0
C796 C 0.64448 0.84922 0.18824 0.0
C797 C 0.63649 0.85918 0.05181 0.0
C798 C 0.63038 0.86136 0.21831 0.0
C799 C 0.61939 0.87225 0.16618 0.0
H800 H 0.60244 0.58849 0.60188 0.0
H801 H 0.60215 0.63489 0.43308 0.0
H802 H 0.61604 0.65566 0.53457 0.0
H803 H 0.62694 0.66097 0.67256 0.0
H804 H 0.62757 0.61455 0.84111 0.0
H805 H 0.61471 0.59345 0.73817 0.0
C806 C 0.60555 0.6031 0.58695 0.0
C807 C 0.60117 0.61013 0.51003 0.0
C808 C 0.6134 0.615 0.64572 0.0
C809 C 0.60538 0.62909 0.49173 0.0
C810 C 0.61324 0.64101 0.54987 0.0
C811 C 0.62423 0.64624 0.68694 0.0
C812 C 0.62804 0.63938 0.76465 0.0
C813 C 0.61703 0.63418 0.62735 0.0
C814 C 0.6247 0.6202 0.78187 0.0
C815 C 0.61736 0.60813 0.72303 0.0
H816 H 0.59896 0.40255 0.81549 0.0
H817 H 0.61311 0.36341 0.0055 0.0
H818 H 0.63013 0.34352 0.90979 0.0
H819 H 0.63999 0.33662 0.77216 0.0
H820 H 0.62591 0.37546 0.5811 0.0
H821 H 0.60988 0.39614 0.67761 0.0
C822 C 0.60586 0.38972 0.83615 0.0
C823 C 0.60468 0.38446 0.91765 0.0
C824 C 0.61555 0.37827 0.78063 0.0
C825 C 0.61375 0.36781 0.94323 0.0
C826 C 0.62346 0.35639 0.88848 0.0
C827 C 0.63345 0.34962 0.75136 0.0
C828 C 0.63405 0.3544 0.66926 0.0
C829 C 0.62427 0.36139 0.807 0.0
C830 C 0.62563 0.3714 0.64382 0.0
C831 C 0.61644 0.38322 0.69899 0.0
H832 H 0.8514 0.34976 0.12787 0.0
H833 H 0.88007 0.37024 0.33989 0.0
H834 H 0.90169 0.38866 0.25585 0.0
H835 H 0.91361 0.39731 0.12208 0.0
H836 H 0.88556 0.37569 0.9105 0.0
H837 H 0.86249 0.35934 0.99479 0.0
C838 C 0.86224 0.3584 0.15594 0.0
C839 C 0.86415 0.35856 0.24011 0.0
C840 C 0.87482 0.36862 0.10731 0.0
C841 C 0.87832 0.36982 0.27526 0.0
C842 C 0.89071 0.38031 0.22723 0.0
C843 C 0.90237 0.38913 0.09431 0.0
C844 C 0.90139 0.38765 0.01004 0.0
C845 C 0.88929 0.37956 0.14316 0.0
C846 C 0.88673 0.37699 0.97516 0.0
C847 C 0.87352 0.36764 0.02332 0.0
H848 H 0.85542 0.63622 0.1925 0.0
H849 H 0.83313 0.66535 0.40011 0.0
H850 H 0.84882 0.64283 0.48871 0.0
H851 H 0.87103 0.61645 0.50771 0.0
H852 H 0.893 0.58705 0.30013 0.0
H853 H 0.87516 0.60792 0.21156 0.0
C854 C 0.85384 0.63752 0.25709 0.0
C855 C 0.84331 0.65259 0.28949 0.0
C856 C 0.86293 0.62451 0.30796 0.0
C857 C 0.84123 0.65395 0.37338 0.0
C858 C 0.85025 0.6411 0.42428 0.0
C859 C 0.87175 0.61448 0.44314 0.0
C860 C 0.88352 0.60035 0.41074 0.0
C861 C 0.86147 0.62657 0.3923 0.0
C862 C 0.88413 0.59787 0.32688 0.0
C863 C 0.87398 0.60985 0.27599 0.0
H864 H 0.39155 0.37075 0.49342 0.0
H865 H 0.41991 0.40073 0.30211 0.0
H866 H 0.40112 0.38375 0.20261 0.0
H867 H 0.37767 0.35929 0.16929 0.0
H868 H 0.34924 0.32942 0.36072 0.0
H869 H 0.36694 0.34749 0.46031 0.0
C870 C 0.39354 0.37366 0.43 0.0
C871 C 0.40722 0.38691 0.40541 0.0
C872 C 0.38271 0.3638 0.37286 0.0
C873 C 0.40953 0.39057 0.3229 0.0
C874 C 0.3988 0.38084 0.26578 0.0
C875 C 0.37527 0.35681 0.23278 0.0
C876 C 0.36223 0.34292 0.25731 0.0
C877 C 0.38552 0.36725 0.29 0.0
C878 C 0.35922 0.33997 0.33993 0.0
C879 C 0.36936 0.35029 0.39711 0.0
H880 H 0.40561 0.61222 0.01605 0.0
H881 H 0.35424 0.58794 0.92092 0.0
H882 H 0.33586 0.60331 0.02768 0.0
H883 H 0.33459 0.62362 0.14834 0.0
H884 H 0.38653 0.64623 0.24618 0.0
H885 H 0.40453 0.63129 0.13847 0.0
C886 C 0.39035 0.61043 0.0181 0.0
C887 C 0.38123 0.59919 0.96003 0.0
C888 C 0.38004 0.61883 0.08066 0.0
C889 C 0.36154 0.59665 0.96466 0.0
C890 C 0.35106 0.60538 0.02578 0.0
C891 C 0.34986 0.6252 0.14632 0.0
C892 C 0.35917 0.63609 0.20523 0.0
C893 C 0.36019 0.61645 0.0843 0.0
C894 C 0.37898 0.63789 0.20193 0.0
C895 C 0.3893 0.62943 0.14004 0.0
H896 H 0.15933 0.64792 0.9197 0.0
H897 H 0.12707 0.63617 0.70497 0.0
H898 H 0.10558 0.61612 0.78209 0.0
H899 H 0.09485 0.60359 0.91129 0.0
H900 H 0.1267 0.61567 0.12676 0.0
H901 H 0.14955 0.6339 0.04812 0.0
C902 C 0.1477 0.64085 0.88952 0.0
C903 C 0.14474 0.64367 0.80672 0.0
C904 C 0.13528 0.62951 0.93437 0.0
C905 C 0.12964 0.63432 0.76864 0.0
C906 C 0.11731 0.62288 0.81273 0.0
C907 C 0.10683 0.61012 0.94119 0.0
C908 C 0.10895 0.60841 0.02499 0.0
C909 C 0.11982 0.62065 0.8958 0.0
C910 C 0.12467 0.61682 0.06244 0.0
C911 C 0.13773 0.62727 0.01752 0.0
H912 H 0.13634 0.34694 0.69547 0.0
H913 H 0.11152 0.38352 0.87496 0.0
H914 H 0.09549 0.40151 0.76975 0.0
H915 H 0.08738 0.40591 0.62778 0.0
H916 H 0.11165 0.36892 0.44851 0.0
H917 H 0.12915 0.35209 0.55302 0.0
C918 C 0.12751 0.35891 0.71174 0.0
C919 C 0.12508 0.3638 0.79319 0.0
C920 C 0.11821 0.36909 0.65103 0.0
C921 C 0.11362 0.3794 0.8129 0.0
C922 C 0.10442 0.38969 0.75274 0.0
C923 C 0.09659 0.39425 0.61131 0.0
C924 C 0.09812 0.38864 0.53033 0.0
C925 C 0.10645 0.38452 0.67174 0.0
C926 C 0.11016 0.37351 0.5103 0.0
C927 C 0.12015 0.36386 0.57006 0.0
H928 H 0.14714 0.26616 0.38838 0.0
H929 H 0.13947 0.22278 0.20842 0.0
H930 H 0.13432 0.24692 0.10612 0.0
H931 H 0.13473 0.27998 0.0657 0.0
H932 H 0.14541 0.32365 0.24141 0.0
H933 H 0.14615 0.29977 0.3481 0.0
C934 C 0.14416 0.26202 0.3269 0.0
C935 C 0.14382 0.24272 0.30584 0.0
C936 C 0.14165 0.27601 0.26785 0.0
C937 C 0.14002 0.23754 0.22596 0.0
C938 C 0.13699 0.25133 0.16749 0.0
C939 C 0.13678 0.28439 0.12755 0.0
C940 C 0.13994 0.30359 0.14573 0.0
C941 C 0.13811 0.27057 0.1875 0.0
C942 C 0.14289 0.30896 0.22603 0.0
C943 C 0.14345 0.2953 0.28685 0.0
H944 H 0.94789 0.93054 0.49229 0.0
H945 H 0.9644 0.87973 0.36565 0.0
H946 H 0.99207 0.87656 0.45189 0.0
H947 H 0.01339 0.89007 0.55287 0.0
H948 H 0.99704 0.94064 0.68077 0.0
H949 H 0.96751 0.9421 0.60401 0.0
C950 C 0.95732 0.91855 0.48453 0.0
C951 C 0.95419 0.90557 0.4217 0.0
C952 C 0.97343 0.91697 0.53347 0.0
C953 C 0.9665 0.89003 0.41307 0.0
C954 C 0.98243 0.88827 0.462 0.0
C955 C 0.00333 0.90139 0.56405 0.0
C956 C 0.00751 0.91545 0.62112 0.0
C957 C 0.98637 0.90201 0.52041 0.0
C958 C 0.99418 0.92976 0.6365 0.0
C959 C 0.97731 0.93058 0.59273 0.0
H960 H 0.36599 0.71306 0.55076 0.0
H961 H 0.34299 0.67302 0.72063 0.0
H962 H 0.34169 0.69777 0.8233 0.0
H963 H 0.34357 0.73146 0.85925 0.0
H964 H 0.36466 0.77168 0.68559 0.0
H965 H 0.37013 0.74611 0.58976 0.0
C966 C 0.36107 0.70959 0.61072 0.0
C967 C 0.35449 0.69121 0.62786 0.0
C968 C 0.35968 0.72401 0.6683 0.0
C969 C 0.34809 0.68705 0.70582 0.0
C970 C 0.34722 0.70123 0.76436 0.0
C971 C 0.34953 0.73463 0.80072 0.0
C972 C 0.35348 0.7535 0.77931 0.0
C973 C 0.35237 0.71989 0.74537 0.0
C974 C 0.3613 0.75732 0.70337 0.0
C975 C 0.36448 0.7427 0.64855 0.0
H976 H 0.54275 0.07947 0.98216 0.0
H977 H 0.52556 0.13151 0.8671 0.0
H978 H 0.49795 0.13338 0.95458 0.0
H979 H 0.4768 0.11836 0.05248 0.0
H980 H 0.49383 0.06643 0.1681 0.0
H981 H 0.52336 0.06637 0.09131 0.0
C982 C 0.53319 0.09144 0.97723 0.0
C983 C 0.5361 0.10516 0.9172 0.0
C984 C 0.51711 0.09226 0.02675 0.0
C985 C 0.52363 0.12066 0.91231 0.0
C986 C 0.50773 0.12168 0.96194 0.0
C987 C 0.48702 0.10707 0.06111 0.0
C988 C 0.48302 0.09223 0.11468 0.0
C989 C 0.50399 0.10721 0.01728 0.0
C990 C 0.49654 0.07793 0.12664 0.0
C991 C 0.51342 0.07789 0.0828 0.0
H992 H 0.14962 0.72601 0.48785 0.0
H993 H 0.16436 0.68397 0.31012 0.0
H994 H 0.16491 0.70845 0.20607 0.0
H995 H 0.16366 0.74213 0.16834 0.0
H996 H 0.15131 0.78411 0.34982 0.0
H997 H 0.14765 0.75924 0.45013 0.0
C998 C 0.15268 0.72209 0.42619 0.0
C999 C 0.15695 0.70317 0.40675 0.0
C1000 C 0.15374 0.73628 0.3677 0.0
C1001 C 0.16101 0.69843 0.32658 0.0
C1002 C 0.16145 0.71243 0.26724 0.0
C1003 C 0.1601 0.74583 0.22978 0.0
C1004 C 0.15788 0.76495 0.25167 0.0
C1005 C 0.15828 0.73147 0.28755 0.0
C1006 C 0.15328 0.76952 0.33152 0.0
C1007 C 0.15109 0.75531 0.38887 0.0
H1008 H 0.5065 0.92846 0.40924 0.0
H1009 H 0.46662 0.90473 0.5783 0.0
H1010 H 0.49245 0.89682 0.66927 0.0
H1011 H 0.52591 0.89803 0.70394 0.0
H1012 H 0.56581 0.92399 0.54129 0.0
H1013 H 0.54048 0.92895 0.44323 0.0
C1014 C 0.50346 0.92154 0.46594 0.0
C1015 C 0.48462 0.91734 0.48711 0.0
C1016 C 0.5184 0.9172 0.51863 0.0
C1017 C 0.48095 0.90831 0.56073 0.0
C1018 C 0.49573 0.90367 0.61267 0.0
C1019 C 0.52919 0.90462 0.64683 0.0
C1020 C 0.54774 0.91079 0.63047 0.0
C1021 C 0.51446 0.90821 0.59256 0.0
C1022 C 0.55166 0.91913 0.55561 0.0
C1023 C 0.53715 0.92212 0.49979 0.0
H1024 H 0.36613 0.23247 0.69637 0.0
H1025 H 0.32548 0.25839 0.53717 0.0
H1026 H 0.3275 0.28793 0.61303 0.0
H1027 H 0.33797 0.305 0.73347 0.0
H1028 H 0.37844 0.27888 0.89329 0.0
H1029 H 0.37973 0.25106 0.80685 0.0
C1030 C 0.35784 0.24464 0.67792 0.0
C1031 C 0.34541 0.24315 0.61227 0.0
C1032 C 0.35907 0.26157 0.72171 0.0
C1033 C 0.33503 0.25913 0.58799 0.0
C1034 C 0.33617 0.27603 0.63134 0.0
C1035 C 0.3474 0.29342 0.74856 0.0
C1036 C 0.3578 0.29392 0.82063 0.0
C1037 C 0.34777 0.27724 0.69955 0.0
C1038 C 0.37011 0.27884 0.83863 0.0
C1039 C 0.37077 0.26282 0.78953 0.0
H1040 H 0.02296 0.10629 0.02077 0.0
H1041 H 0.00273 0.05664 0.89655 0.0
H1042 H 0.97291 0.0582 0.97135 0.0
H1043 H 0.95378 0.07228 0.07952 0.0
H1044 H 0.97411 0.12227 0.20176 0.0
H1045 H 0.00251 0.12224 0.11857 0.0
C1046 C 0.01201 0.09581 0.01004 0.0
C1047 C 0.01514 0.08116 0.95444 0.0
C1048 C 0.99488 0.09696 0.05234 0.0
C1049 C 0.00069 0.06795 0.93966 0.0
C1050 C 0.98364 0.06886 0.98228 0.0
C1051 C 0.96422 0.0834 0.08694 0.0
C1052 C 0.96189 0.09711 0.14766 0.0
C1053 C 0.9807 0.08315 0.03967 0.0
C1054 C 0.97556 0.11146 0.15597 0.0
C1055 C 0.99189 0.11139 0.10878 0.0
H1056 H 0.83125 0.74879 0.63652 0.0
H1057 H 0.8612 0.78588 0.7991 0.0
H1058 H 0.86445 0.76017 0.89556 0.0
H1059 H 0.85646 0.72826 0.93872 0.0
H1060 H 0.82426 0.69161 0.78242 0.0
H1061 H 0.82472 0.71587 0.67752 0.0
C1062 C 0.83862 0.75119 0.69277 0.0
C1063 C 0.84581 0.76928 0.71089 0.0
C1064 C 0.84013 0.7364 0.7489 0.0
C1065 C 0.85535 0.77216 0.784 0.0
C1066 C 0.85728 0.75744 0.83913 0.0
C1067 C 0.84982 0.72537 0.88123 0.0
C1068 C 0.84024 0.70816 0.86863 0.0
C1069 C 0.84942 0.73964 0.82286 0.0
C1070 C 0.83169 0.70475 0.79375 0.0
C1071 C 0.83183 0.71868 0.73398 0.0
H1072 H 0.03268 0.11042 0.73107 0.0
H1073 H 0.07517 0.09892 0.55108 0.0
H1074 H 0.05075 0.09908 0.44653 0.0
H1075 H 0.01696 0.09925 0.40916 0.0
H1076 H 0.97466 0.10802 0.59296 0.0
H1077 H -0.00055 0.11201 0.69349 0.0
C1078 C 0.03672 0.10836 0.66879 0.0
C1079 C 0.05573 0.1047 0.64879 0.0
C1080 C 0.02258 0.10761 0.60998 0.0
C1081 C 0.06063 0.10179 0.5679 0.0
C1082 C 0.04666 0.10175 0.50828 0.0
C1083 C 0.01319 0.10219 0.4711 0.0
C1084 C 0.994 0.1032 0.4937 0.0
C1085 C 0.02752 0.10409 0.52905 0.0
C1086 C 0.98932 0.10698 0.57417 0.0
C1087 C 0.00348 0.10934 0.63165 0.0
H1088 H 0.67549 0.28921 0.26937 0.0
H1089 H 0.63032 0.26698 0.41671 0.0
H1090 H 0.62941 0.23832 0.33505 0.0
H1091 H 0.64349 0.21831 0.23029 0.0
H1092 H 0.68855 0.24045 0.08254 0.0
H1093 H 0.68753 0.27037 0.15641 0.0
C1094 C 0.66519 0.27827 0.28281 0.0
C1095 C 0.65315 0.2802 0.34976 0.0
C1096 C 0.66497 0.26165 0.23651 0.0
C1097 C 0.63982 0.26588 0.36581 0.0
C1098 C 0.63938 0.2494 0.31951 0.0
C1099 C 0.65308 0.22969 0.2142 0.0
C1100 C 0.66629 0.22707 0.15197 0.0
C1101 C 0.65228 0.24689 0.25635 0.0
C1102 C 0.67835 0.24207 0.13069 0.0
C1103 C 0.67775 0.25919 0.1728 0.0
H1104 H 0.47297 0.90376 0.2175 0.0
H1105 H 0.43176 0.92232 0.04301 0.0
H1106 H 0.45629 0.92272 0.93895 0.0
H1107 H 0.48991 0.92015 0.90077 0.0
H1108 H 0.53113 0.90395 0.07963 0.0
H1109 H 0.50607 0.9005 0.17926 0.0
C1110 C 0.46922 0.90763 0.15648 0.0
C1111 C 0.45055 0.913 0.13798 0.0
C1112 C 0.48347 0.90856 0.09815 0.0
C1113 C 0.44603 0.91812 0.05871 0.0
C1114 C 0.46007 0.91845 0.99939 0.0
C1115 C 0.49339 0.91578 0.96146 0.0
C1116 C 0.51237 0.91241 0.98288 0.0
C1117 C 0.47892 0.91412 0.01893 0.0
C1118 C 0.51666 0.9068 0.06177 0.0
C1119 C 0.50233 0.90474 0.11871 0.0
H1120 H 0.82078 0.30426 0.71139 0.0
H1121 H 0.87163 0.28664 0.58785 0.0
H1122 H 0.87357 0.25859 0.67251 0.0
H1123 H 0.85916 0.23752 0.77214 0.0
H1124 H 0.8086 0.25506 0.89732 0.0
H1125 H 0.80816 0.28467 0.82102 0.0
C1126 C 0.83249 0.29448 0.7039 0.0
C1127 C 0.84588 0.29746 0.64254 0.0
C1128 C 0.83338 0.27819 0.75202 0.0
C1129 C 0.86105 0.28468 0.63423 0.0
C1130 C 0.8621 0.26854 0.68225 0.0
C1131 C 0.84805 0.24784 0.78275 0.0
C1132 C 0.83373 0.244 0.83906 0.0
C1133 C 0.84802 0.26486 0.73949 0.0
C1134 C 0.81969 0.25766 0.85368 0.0
C1135 C 0.81944 0.27458 0.81018 0.0
H1136 H 0.46102 0.12724 0.35431 0.0
H1137 H 0.42205 0.09935 0.51534 0.0
H1138 H 0.44636 0.09866 0.61984 0.0
H1139 H 0.47988 0.10192 0.65791 0.0
H1140 H 0.51914 0.12771 0.4918 0.0
H1141 H 0.49348 0.13321 0.39672 0.0
C1142 C 0.45764 0.12137 0.4128 0.0
C1143 C 0.43979 0.11314 0.4266 0.0
C1144 C 0.47189 0.1203 0.47118 0.0
C1145 C 0.43572 0.10566 0.50291 0.0
C1146 C 0.44966 0.10514 0.56251 0.0
C1147 C 0.48278 0.10896 0.60135 0.0
C1148 C 0.50145 0.11414 0.5815 0.0
C1149 C 0.46801 0.11173 0.5461 0.0
C1150 C 0.50495 0.12335 0.50816 0.0
C1151 C 0.49027 0.12654 0.45377 0.0
H1152 H 0.62289 0.76495 0.25434 0.0
H1153 H 0.68281 0.76111 0.30322 0.0
H1154 H 0.68405 0.73027 0.23732 0.0
H1155 H 0.66886 0.70594 0.15529 0.0
H1156 H 0.60972 0.71103 0.09455 0.0
H1157 H 0.60726 0.7396 0.17748 0.0
C1158 C 0.63618 0.75728 0.25118 0.0
C1159 C 0.65276 0.76537 0.28302 0.0
C1160 C 0.63688 0.73972 0.2116 0.0
C1161 C 0.66989 0.75529 0.27835 0.0
C1162 C 0.6706 0.73761 0.24101 0.0
C1163 C 0.65529 0.71298 0.16207 0.0
C1164 C 0.63942 0.70632 0.11967 0.0
C1165 C 0.65427 0.72986 0.2062 0.0
C1166 C 0.62206 0.71586 0.12731 0.0
C1167 C 0.62072 0.73226 0.17404 0.0
H1168 H 0.02447 0.88175 0.84442 0.0
H1169 H 0.0677 0.89502 0.01898 0.0
H1170 H 0.04344 0.89865 0.12285 0.0
H1171 H 0.00979 0.90177 0.15948 0.0
H1172 H 0.96684 0.89068 0.98083 0.0
H1173 H 0.99122 0.88265 0.88294 0.0
C1174 C 0.0287 0.885 0.90555 0.0
C1175 C 0.0479 0.88819 0.92382 0.0
C1176 C 0.01467 0.88787 0.96385 0.0
C1177 C 0.05302 0.89252 0.00332 0.0
C1178 C 0.03914 0.89475 0.06256 0.0
C1179 C 0.00576 0.89744 0.09934 0.0
C1180 C 0.98652 0.89705 0.0773 0.0
C1181 C 0.01989 0.89311 0.04277 0.0
C1182 C 0.98154 0.89132 0.9992 0.0
C1183 C 0.99547 0.88665 0.94318 0.0
H1184 H 0.63109 0.7902 0.56239 0.0
H1185 H 0.68087 0.80553 0.69843 0.0
H1186 H 0.67588 0.77858 0.78739 0.0
H1187 H 0.65981 0.7485 0.81556 0.0
H1188 H 0.61012 0.73307 0.67967 0.0
H1189 H 0.61271 0.76222 0.60142 0.0
C1190 C 0.64065 0.7879 0.61247 0.0
C1191 C 0.65654 0.79968 0.62271 0.0
C1192 C 0.63793 0.77215 0.66246 0.0
C1193 C 0.66863 0.7966 0.68855 0.0
C1194 C 0.66587 0.78109 0.73919 0.0
C1195 C 0.64948 0.75159 0.76912 0.0
C1196 C 0.63502 0.73852 0.75223 0.0
C1197 C 0.65101 0.76839 0.72471 0.0
C1198 C 0.62148 0.74286 0.69325 0.0
C1199 C 0.62295 0.75952 0.6485 0.0
H1200 H 0.46291 0.42214 0.87332 0.0
H1201 H 0.46119 0.36302 0.80843 0.0
H1202 H 0.4901 0.35732 0.88606 0.0
H1203 H 0.51722 0.36978 0.9623 0.0
H1204 H 0.51994 0.42949 0.01706 0.0
H1205 H 0.48932 0.43436 0.95245 0.0
C1206 C 0.46858 0.4079 0.87768 0.0
C1207 C 0.45984 0.39296 0.83586 0.0
C1208 C 0.4856 0.40494 0.9191 0.0
C1209 C 0.46762 0.37469 0.84067 0.0
C1210 C 0.48421 0.37148 0.88443 0.0
C1211 C 0.51108 0.38385 0.9604 0.0
C1212 C 0.52091 0.39927 0.99403 0.0
C1213 C 0.49358 0.38661 0.9221 0.0
C1214 C 0.51276 0.41741 0.99098 0.0
C1215 C 0.4952 0.4202 0.95441 0.0
H1216 H 0.84708 0.24373 0.38268 0.0
H1217 H 0.85883 0.28608 0.20235 0.0
H1218 H 0.86558 0.26135 0.10434 0.0
H1219 H 0.86564 0.22803 0.06682 0.0
H1220 H 0.85186 0.18543 0.24323 0.0
H1221 H 0.84895 0.20996 0.34647 0.0
C1222 C 0.85123 0.24755 0.32209 0.0
C1223 C 0.85226 0.26674 0.29976 0.0
C1224 C 0.85487 0.23323 0.2655 0.0
C1225 C 0.85773 0.27144 0.22103 0.0
C1226 C 0.86167 0.2573 0.16494 0.0
C1227 C 0.86241 0.22399 0.12819 0.0
C1228 C 0.85895 0.2049 0.14726 0.0
C1229 C 0.86 0.23818 0.18617 0.0
C1230 C 0.8546 0.20003 0.22701 0.0
C1231 C 0.85279 0.21406 0.28588 0.0
H1232 H 0.99826 0.57837 0.55689 0.0
H1233 H 0.95729 0.59805 0.38327 0.0
H1234 H 0.98256 0.60416 0.2871 0.0
H1235 H 0.01572 0.60163 0.24848 0.0
H1236 H 0.0567 0.57995 0.41742 0.0
H1237 H 0.03203 0.57745 0.52008 0.0
C1238 C 0.99487 0.58409 0.49819 0.0
C1239 C 0.97589 0.58756 0.4771 0.0
C1240 C 0.00947 0.58736 0.44254 0.0
C1241 C 0.97175 0.59506 0.40087 0.0
C1242 C 0.9862 0.59864 0.34585 0.0
C1243 C 0.01939 0.59668 0.30815 0.0
C1244 C 0.03803 0.59089 0.32509 0.0
C1245 C 0.00505 0.59456 0.36559 0.0
C1246 C 0.04246 0.58447 0.40276 0.0
C1247 C 0.02833 0.5829 0.46129 0.0
H1248 H 0.66473 0.22684 0.60669 0.0
H1249 H 0.64904 0.26851 0.78486 0.0
H1250 H 0.64269 0.24349 0.88163 0.0
H1251 H 0.64328 0.21021 0.91834 0.0
H1252 H 0.6612 0.16828 0.74553 0.0
H1253 H 0.66446 0.19297 0.64312 0.0
C1254 C 0.65987 0.23043 0.66662 0.0
C1255 C 0.6575 0.24954 0.68858 0.0
C1256 C 0.65644 0.21594 0.7226 0.0
C1257 C 0.65117 0.25395 0.76648 0.0
C1258 C 0.64742 0.23964 0.82184 0.0
C1259 C 0.64754 0.20634 0.85789 0.0
C1260 C 0.65193 0.18741 0.83947 0.0
C1261 C 0.65018 0.22064 0.80078 0.0
C1262 C 0.65768 0.18276 0.76108 0.0
C1263 C 0.65969 0.19688 0.70277 0.0
H1264 H 0.98676 0.38659 0.96917 0.0
H1265 H 0.00801 0.43384 0.83201 0.0
H1266 H 0.03796 0.43249 0.90537 0.0
H1267 H 0.05688 0.41969 0.01637 0.0
H1268 H 0.03556 0.3723 0.1531 0.0
H1269 H 0.00713 0.37156 0.07022 0.0
C1270 C 0.99797 0.39656 0.95526 0.0
C1271 C 0.99507 0.41052 0.89638 0.0
C1272 C 0.0152 0.39558 0.99704 0.0
C1273 C 0.00985 0.42307 0.87765 0.0
C1274 C 0.02698 0.42229 0.91945 0.0
C1275 C 0.04621 0.40893 0.02708 0.0
C1276 C 0.04827 0.39627 0.09174 0.0
C1277 C 0.02968 0.40881 0.98025 0.0
C1278 C 0.03434 0.38232 0.10411 0.0
C1279 C 0.01797 0.38197 0.05717 0.0
H1280 H 0.83801 0.76954 0.13691 0.0
H1281 H 0.86054 0.72814 0.30208 0.0
H1282 H 0.86863 0.75321 0.39674 0.0
H1283 H 0.86611 0.78615 0.43871 0.0
H1284 H 0.84148 0.82747 0.2788 0.0
H1285 H 0.83794 0.80322 0.17498 0.0
C1286 C 0.84488 0.76603 0.19322 0.0
C1287 C 0.84843 0.74698 0.21284 0.0
C1288 C 0.84918 0.78049 0.24821 0.0
C1289 C 0.85743 0.74267 0.28588 0.0
C1290 C 0.86212 0.757 0.34002 0.0
C1291 C 0.86034 0.79001 0.3806 0.0
C1292 C 0.85389 0.80858 0.36687 0.0
C1293 C 0.85762 0.77588 0.32266 0.0
C1294 C 0.84646 0.81326 0.2911 0.0
C1295 C 0.84431 0.79937 0.23192 0.0
H1296 H 0.49097 0.57339 0.36242 0.0
H1297 H 0.53075 0.59551 0.53586 0.0
H1298 H 0.50522 0.60013 0.6322 0.0
H1299 H 0.47202 0.59702 0.66912 0.0
H1300 H 0.43231 0.57248 0.5018 0.0
H1301 H 0.4573 0.57027 0.40014 0.0
C1302 C 0.49405 0.57919 0.42133 0.0
C1303 C 0.51278 0.584 0.44189 0.0
C1304 C 0.47928 0.58163 0.47713 0.0
C1305 C 0.51651 0.59152 0.51853 0.0
C1306 C 0.50189 0.59429 0.57361 0.0
C1307 C 0.46871 0.59136 0.61021 0.0
C1308 C 0.4503 0.5849 0.59316 0.0
C1309 C 0.48327 0.58934 0.55367 0.0
C1310 C 0.44636 0.57758 0.51642 0.0
C1311 C 0.46067 0.57618 0.45851 0.0
H1312 H 0.31853 0.19665 0.25465 0.0
H1313 H 0.37291 0.21118 0.35635 0.0
H1314 H 0.37471 0.2389 0.26973 0.0
H1315 H 0.35919 0.261 0.17743 0.0
H1316 H 0.30498 0.24667 0.07467 0.0
H1317 H 0.30472 0.2169 0.1499 0.0
C1318 C 0.33098 0.20563 0.25672 0.0
C1319 C 0.3454 0.20197 0.313 0.0
C1320 C 0.33177 0.2218 0.20783 0.0
C1321 C 0.36151 0.2137 0.31416 0.0
C1322 C 0.3625 0.22967 0.26508 0.0
C1323 C 0.34735 0.25132 0.17133 0.0
C1324 C 0.33194 0.25615 0.12198 0.0
C1325 C 0.3474 0.23422 0.21401 0.0
C1326 C 0.31691 0.24331 0.11297 0.0
C1327 C 0.31677 0.2263 0.15588 0.0
H1328 H 0.52235 0.60458 0.17478 0.0
H1329 H 0.56542 0.59169 0.99892 0.0
H1330 H 0.54096 0.58652 0.89716 0.0
H1331 H 0.50727 0.58293 0.86187 0.0
H1332 H 0.46456 0.59398 0.04184 0.0
H1333 H 0.48904 0.60225 0.13866 0.0
C1334 C 0.52647 0.60093 0.11393 0.0
C1335 C 0.54571 0.59843 0.09465 0.0
C1336 C 0.51237 0.59725 0.05687 0.0
C1337 C 0.55072 0.59368 0.0154 0.0
C1338 C 0.53673 0.59058 0.95737 0.0
C1339 C 0.50332 0.58718 0.92223 0.0
C1340 C 0.4841 0.58766 0.94466 0.0
C1341 C 0.5175 0.5918 0.97808 0.0
C1342 C 0.47923 0.5933 0.02303 0.0
C1343 C 0.49322 0.59814 0.07845 0.0
H1344 H 0.1442 0.77774 0.97192 0.0
H1345 H 0.16818 0.81846 0.80757 0.0
H1346 H 0.17389 0.79325 0.70956 0.0
H1347 H 0.17454 0.75923 0.67576 0.0
H1348 H 0.15299 0.71865 0.84694 0.0
H1349 H 0.14443 0.74423 0.93817 0.0
C1350 C 0.15056 0.78122 0.91454 0.0
C1351 C 0.15593 0.79998 0.89764 0.0
C1352 C 0.15465 0.76658 0.86038 0.0
C1353 C 0.16393 0.80414 0.82232 0.0
C1354 C 0.16736 0.7897 0.76653 0.0
C1355 C 0.16799 0.75599 0.73304 0.0
C1356 C 0.16455 0.73702 0.75462 0.0
C1357 C 0.16326 0.77079 0.78588 0.0
C1358 C 0.15598 0.73308 0.82902 0.0
C1359 C 0.15095 0.74772 0.8811 0.0
H1360 H 0.01781 0.38383 0.46424 0.0
H1361 H 0.99443 0.42849 0.31803 0.0
H1362 H 0.96463 0.42675 0.39264 0.0
H1363 H 0.94669 0.41489 0.50852 0.0
H1364 H 0.97035 0.37026 0.65475 0.0
H1365 H 0.99835 0.36927 0.56932 0.0
C1366 C 0.00614 0.39311 0.44844 0.0
C1367 C 0.0084 0.40652 0.3869 0.0
C1368 C 0.98908 0.39196 0.49121 0.0
C1369 C 0.99306 0.41816 0.36575 0.0
C1370 C 0.97604 0.41717 0.40834 0.0
C1371 C 0.95776 0.40463 0.52072 0.0
C1372 C 0.95654 0.39291 0.58885 0.0
C1373 C 0.97405 0.40442 0.4724 0.0
C1374 C 0.97097 0.3796 0.6032 0.0
C1375 C 0.98708 0.37911 0.55473 0.0
H1376 H 0.35963 0.72428 0.25156 0.0
H1377 H 0.31012 0.74305 0.38089 0.0
H1378 H 0.31026 0.77282 0.30573 0.0
H1379 H 0.32284 0.79209 0.19501 0.0
H1380 H 0.3726 0.77316 0.067 0.0
H1381 H 0.37426 0.7451 0.15162 0.0
C1382 C 0.3489 0.73492 0.26339 0.0
C1383 C 0.33467 0.73138 0.3204 0.0
C1384 C 0.3492 0.75201 0.22069 0.0
C1385 C 0.32112 0.74543 0.33665 0.0
C1386 C 0.32121 0.76244 0.29379 0.0
C1387 C 0.33427 0.78203 0.18658 0.0
C1388 C 0.34739 0.78462 0.12387 0.0
C1389 C 0.33498 0.76572 0.2346 0.0
C1390 C 0.36221 0.77149 0.11438 0.0
C1391 C 0.36311 0.75534 0.16237 0.0
H1392 H 0.96189 0.59881 0.75061 0.0
H1393 H 0.92195 0.57344 0.91469 0.0
H1394 H 0.9468 0.57069 0.01656 0.0
H1395 H 0.98049 0.57296 0.05414 0.0
H1396 H 0.02053 0.59606 0.88431 0.0
H1397 H 0.99502 0.60192 0.789 0.0
C1398 C 0.95848 0.59294 0.80903 0.0
C1399 C 0.94008 0.58629 0.82492 0.0
C1400 C 0.97296 0.59064 0.86571 0.0
C1401 C 0.93601 0.57866 0.90094 0.0
C1402 C 0.95024 0.57696 0.95896 0.0
C1403 C 0.98362 0.57933 0.99639 0.0
C1404 C 0.00242 0.58393 0.97622 0.0
C1405 C 0.96888 0.58243 0.94117 0.0
C1406 C 0.00623 0.5922 0.90115 0.0
C1407 C 0.99163 0.59566 0.84668 0.0
H1408 H 0.13759 0.26795 0.7813 0.0
H1409 H 0.18842 0.2495 0.90161 0.0
H1410 H 0.18729 0.2194 0.82866 0.0
H1411 H 0.17349 0.19981 0.72146 0.0
H1412 H 0.12256 0.21853 0.60188 0.0
H1413 H 0.1218 0.24684 0.6857 0.0
C1414 C 0.14839 0.25731 0.7917 0.0
C1415 C 0.16328 0.26103 0.84541 0.0
C1416 C 0.14753 0.24004 0.7503 0.0
C1417 C 0.17692 0.24698 0.85988 0.0
C1418 C 0.17626 0.22978 0.81831 0.0
C1419 C 0.16194 0.20982 0.71509 0.0
C1420 C 0.14822 0.20714 0.65477 0.0
C1421 C 0.16182 0.22631 0.76227 0.0
C1422 C 0.13337 0.22029 0.64745 0.0
C1423 C 0.133 0.23657 0.69491 0.0
H1424 H 0.48712 0.3847 0.45542 0.0
H1425 H 0.51274 0.42453 0.61936 0.0
H1426 H 0.54277 0.42201 0.54706 0.0
H1427 H 0.56071 0.41079 0.43016 0.0
H1428 H 0.53487 0.37116 0.2656 0.0
H1429 H 0.50614 0.37091 0.34683 0.0
C1430 C 0.4993 0.39278 0.47549 0.0
C1431 C 0.49763 0.40504 0.5417 0.0
C1432 C 0.51651 0.3912 0.43395 0.0
C1433 C 0.51362 0.41513 0.56804 0.0
C1434 C 0.5308 0.41368 0.52683 0.0
C1435 C 0.54897 0.40177 0.41286 0.0
C1436 C 0.54989 0.39122 0.34119 0.0
C1437 C 0.53229 0.40203 0.45878 0.0
C1438 C 0.53453 0.37954 0.32013 0.0
C1439 C 0.51801 0.37949 0.36621 0.0
loop_
_geom_bond_atom_site_label_1
_geom_bond_atom_site_label_2
_geom_bond_distance
_geom_bond_site_symmetry_2
_ccdc_geom_bond_type
C0 O1 1.160 . S
C0 O7 1.185 . S
O1 C0 1.160 . S
O2 Zn3 1.899 . S
O2 C10 1.284 . S
Zn3 O2 1.899 . S
Zn3 O4 2.032 . S
Zn3 O7 2.086 . S
Zn3 O12 1.977 . S
O4 Zn3 2.032 . S
O4 C8 1.278 . S
C5 O6 1.203 . S
C5 O12 1.267 . S
O6 C5 1.203 . S
O7 C0 1.185 . S
O7 Zn3 2.086 . S
C8 O4 1.278 . S
C8 O9 1.211 . S
O9 C8 1.211 . S
C10 O2 1.284 . S
C10 O11 1.273 . S
O11 C10 1.273 . S
O12 Zn3 1.977 . S
O12 C5 1.267 . S
C13 O14 1.160 . S
C13 O20 1.185 . S
O14 C13 1.160 . S
O15 Zn16 1.899 . S
O15 C23 1.284 . S
Zn16 O15 1.899 . S
Zn16 O17 2.032 . S
Zn16 O20 2.086 . S
Zn16 O25 1.977 . S
O17 Zn16 2.032 . S
O17 C21 1.278 . S
C18 O19 1.203 . S
C18 O25 1.267 . S
O19 C18 1.203 . S
O20 C13 1.185 . S
O20 Zn16 2.086 . S
C21 O17 1.278 . S
C21 O22 1.211 . S
O22 C21 1.211 . S
C23 O15 1.284 . S
C23 O24 1.273 . S
O24 C23 1.273 . S
O25 Zn16 1.977 . S
O25 C18 1.267 . S
C26 O27 1.160 . S
C26 O33 1.185 . S
O27 C26 1.160 . S
O28 Zn29 1.899 . S
O28 C36 1.284 . S
Zn29 O28 1.899 . S
Zn29 O30 2.032 . S
Zn29 O33 2.086 . S
Zn29 O38 1.977 . S
O30 Zn29 2.032 . S
O30 C34 1.278 . S
C31 O32 1.203 . S
C31 O38 1.267 1_554 S
O32 C31 1.203 . S
O33 C26 1.185 . S
O33 Zn29 2.086 . S
C34 O30 1.278 . S
C34 O35 1.211 . S
O35 C34 1.211 . S
C36 O28 1.284 . S
C36 O37 1.273 . S
O37 C36 1.273 . S
O38 Zn29 1.977 . S
O38 C31 1.267 1_556 S
C39 O40 1.160 . S
C39 O46 1.185 . S
O40 C39 1.160 . S
O41 Zn42 1.899 . S
O41 C49 1.284 . S
Zn42 O41 1.899 . S
Zn42 O43 2.032 . S
Zn42 O46 2.086 . S
Zn42 O51 1.977 . S
O43 Zn42 2.032 . S
O43 C47 1.278 . S
C44 O45 1.203 . S
C44 O51 1.267 . S
O45 C44 1.203 . S
O46 C39 1.185 . S
O46 Zn42 2.086 . S
C47 O43 1.278 . S
C47 O48 1.211 . S
O48 C47 1.211 . S
C49 O41 1.284 . S
C49 O50 1.273 . S
O50 C49 1.273 . S
O51 Zn42 1.977 . S
O51 C44 1.267 . S
C52 O53 1.160 . S
C52 O59 1.185 . S
O53 C52 1.160 . S
O54 Zn55 1.899 . S
O54 C62 1.284 . S
Zn55 O54 1.899 . S
Zn55 O56 2.032 . S
Zn55 O59 2.086 . S
Zn55 O64 1.977 . S
O56 Zn55 2.032 . S
O56 C60 1.278 . S
C57 O58 1.203 . S
C57 O64 1.267 1_556 S
O58 C57 1.203 . S
O59 C52 1.185 . S
O59 Zn55 2.086 . S
C60 O56 1.278 . S
C60 O61 1.211 . S
O61 C60 1.211 . S
C62 O54 1.284 . S
C62 O63 1.273 . S
O63 C62 1.273 . S
O64 Zn55 1.977 . S
O64 C57 1.267 1_554 S
C65 O66 1.160 . S
C65 O72 1.185 . S
O66 C65 1.160 . S
O67 Zn68 1.899 . S
O67 C75 1.284 . S
Zn68 O67 1.899 . S
Zn68 O69 2.032 . S
Zn68 O72 2.086 . S
Zn68 O77 1.977 . S
O69 Zn68 2.032 . S
O69 C73 1.278 . S
C70 O71 1.203 . S
C70 O77 1.267 . S
O71 C70 1.203 . S
O72 C65 1.185 . S
O72 Zn68 2.086 . S
C73 O69 1.278 . S
C73 O74 1.211 . S
O74 C73 1.211 . S
C75 O67 1.284 . S
C75 O76 1.273 . S
O76 C75 1.273 . S
O77 Zn68 1.977 . S
O77 C70 1.267 . S
C78 O79 1.160 . S
C78 O85 1.185 . S
O79 C78 1.160 . S
O80 Zn81 1.899 . S
O80 C88 1.284 . S
Zn81 O80 1.899 . S
Zn81 O82 2.032 . S
Zn81 O85 2.086 . S
Zn81 O90 1.977 . S
O82 Zn81 2.032 . S
O82 C86 1.278 . S
C83 O84 1.203 . S
C83 O90 1.267 . S
O84 C83 1.203 . S
O85 C78 1.185 . S
O85 Zn81 2.086 . S
C86 O82 1.278 . S
C86 O87 1.211 . S
O87 C86 1.211 . S
C88 O80 1.284 . S
C88 O89 1.273 . S
O89 C88 1.273 . S
O90 Zn81 1.977 . S
O90 C83 1.267 . S
C91 O92 1.160 . S
C91 O98 1.185 . S
O92 C91 1.160 . S
O93 Zn94 1.899 . S
O93 C101 1.284 . S
Zn94 O93 1.899 . S
Zn94 O95 2.032 . S
Zn94 O98 2.086 . S
Zn94 O103 1.977 . S
O95 Zn94 2.032 . S
O95 C99 1.278 . S
C96 O97 1.203 . S
C96 O103 1.267 . S
O97 C96 1.203 . S
O98 C91 1.185 . S
O98 Zn94 2.086 . S
C99 O95 1.278 . S
C99 O100 1.211 . S
O100 C99 1.211 . S
C101 O93 1.284 . S
C101 O102 1.273 . S
O102 C101 1.273 . S
O103 Zn94 1.977 . S
O103 C96 1.267 . S
C104 O105 1.160 . S
C104 O111 1.185 . S
O105 C104 1.160 . S
O106 Zn107 1.899 . S
O106 C114 1.284 . S
Zn107 O106 1.899 . S
Zn107 O108 2.032 . S
Zn107 O111 2.086 . S
Zn107 O116 1.977 . S
O108 Zn107 2.032 . S
O108 C112 1.278 . S
C109 O110 1.203 . S
C109 O116 1.267 . S
O110 C109 1.203 . S
O111 C104 1.185 . S
O111 Zn107 2.086 . S
C112 O108 1.278 . S
C112 O113 1.211 . S
O113 C112 1.211 . S
C114 O106 1.284 . S
C114 O115 1.273 . S
O115 C114 1.273 . S
O116 Zn107 1.977 . S
O116 C109 1.267 . S
C117 O118 1.160 . S
C117 O124 1.185 . S
O118 C117 1.160 . S
O119 Zn120 1.899 . S
O119 C127 1.284 . S
Zn120 O119 1.899 . S
Zn120 O121 2.032 . S
Zn120 O124 2.086 . S
Zn120 O129 1.977 . S
O121 Zn120 2.032 . S
O121 C125 1.278 . S
C122 O123 1.203 . S
C122 O129 1.267 . S
O123 C122 1.203 . S
O124 C117 1.185 . S
O124 Zn120 2.086 . S
C125 O121 1.278 . S
C125 O126 1.211 . S
O126 C125 1.211 . S
C127 O119 1.284 . S
C127 O128 1.273 . S
O128 C127 1.273 . S
O129 Zn120 1.977 . S
O129 C122 1.267 . S
C130 O131 1.160 . S
C130 O137 1.185 . S
O131 C130 1.160 . S
O132 Zn133 1.899 . S
O132 C140 1.284 . S
Zn133 O132 1.899 . S
Zn133 O134 2.032 . S
Zn133 O137 2.086 . S
Zn133 O142 1.977 . S
O134 Zn133 2.032 . S
O134 C138 1.278 . S
C135 O136 1.203 . S
C135 O142 1.267 1_556 S
O136 C135 1.203 . S
O137 C130 1.185 . S
O137 Zn133 2.086 . S
C138 O134 1.278 . S
C138 O139 1.211 . S
O139 C138 1.211 . S
C140 O132 1.284 . S
C140 O141 1.273 . S
O141 C140 1.273 . S
O142 Zn133 1.977 . S
O142 C135 1.267 1_554 S
C143 O144 1.160 . S
C143 O150 1.185 . S
O144 C143 1.160 . S
O145 Zn146 1.899 . S
O145 C153 1.284 . S
Zn146 O145 1.899 . S
Zn146 O147 2.032 . S
Zn146 O150 2.086 . S
Zn146 O155 1.977 . S
O147 Zn146 2.032 . S
O147 C151 1.278 . S
C148 O149 1.203 . S
C148 O155 1.267 . S
O149 C148 1.203 . S
O150 C143 1.185 . S
O150 Zn146 2.086 . S
C151 O147 1.278 . S
C151 O152 1.211 . S
O152 C151 1.211 . S
C153 O145 1.284 . S
C153 O154 1.273 . S
O154 C153 1.273 . S
O155 Zn146 1.977 . S
O155 C148 1.267 . S
C156 O157 1.160 . S
C156 O163 1.185 . S
O157 C156 1.160 . S
O158 Zn159 1.899 . S
O158 C166 1.284 . S
Zn159 O158 1.899 . S
Zn159 O160 2.032 . S
Zn159 O163 2.086 . S
Zn159 O168 1.977 . S
O160 Zn159 2.032 . S
O160 C164 1.278 . S
C161 O162 1.203 . S
C161 O168 1.267 1_554 S
O162 C161 1.203 . S
O163 C156 1.185 . S
O163 Zn159 2.086 . S
C164 O160 1.278 . S
C164 O165 1.211 . S
O165 C164 1.211 . S
C166 O158 1.284 . S
C166 O167 1.273 . S
O167 C166 1.273 . S
O168 Zn159 1.977 . S
O168 C161 1.267 1_556 S
C169 O170 1.160 . S
C169 O176 1.185 . S
O170 C169 1.160 . S
O171 Zn172 1.899 . S
O171 C179 1.284 . S
Zn172 O171 1.899 . S
Zn172 O173 2.032 . S
Zn172 O176 2.086 . S
Zn172 O181 1.977 . S
O173 Zn172 2.032 . S
O173 C177 1.278 . S
C174 O175 1.203 . S
C174 O181 1.267 . S
O175 C174 1.203 . S
O176 C169 1.185 . S
O176 Zn172 2.086 . S
C177 O173 1.278 . S
C177 O178 1.211 . S
O178 C177 1.211 . S
C179 O171 1.284 . S
C179 O180 1.273 . S
O180 C179 1.273 . S
O181 Zn172 1.977 . S
O181 C174 1.267 . S
C182 O183 1.160 . S
C182 O189 1.185 . S
O183 C182 1.160 . S
O184 Zn185 1.899 . S
O184 C192 1.284 . S
Zn185 O184 1.899 . S
Zn185 O186 2.032 . S
Zn185 O189 2.086 . S
Zn185 O194 1.977 . S
O186 Zn185 2.032 . S
O186 C190 1.278 . S
C187 O188 1.203 . S
C187 O194 1.267 . S
O188 C187 1.203 . S
O189 C182 1.185 . S
O189 Zn185 2.086 . S
C190 O186 1.278 . S
C190 O191 1.211 . S
O191 C190 1.211 . S
C192 O184 1.284 . S
C192 O193 1.273 . S
O193 C192 1.273 . S
O194 Zn185 1.977 . S
O194 C187 1.267 . S
C195 O196 1.160 . S
C195 O202 1.185 . S
O196 C195 1.160 . S
O197 Zn198 1.899 . S
O197 C205 1.284 . S
Zn198 O197 1.899 . S
Zn198 O199 2.032 . S
Zn198 O202 2.086 . S
Zn198 O207 1.977 . S
O199 Zn198 2.032 . S
O199 C203 1.278 . S
C200 O201 1.203 . S
C200 O207 1.267 . S
O201 C200 1.203 . S
O202 C195 1.185 . S
O202 Zn198 2.086 . S
C203 O199 1.278 . S
C203 O204 1.211 . S
O204 C203 1.211 . S
C205 O197 1.284 . S
C205 O206 1.273 . S
O206 C205 1.273 . S
O207 Zn198 1.977 . S
O207 C200 1.267 . S
C208 O209 1.160 . S
C208 O215 1.185 . S
O209 C208 1.160 . S
O210 Zn211 1.899 . S
O210 C218 1.284 . S
Zn211 O210 1.899 . S
Zn211 O212 2.032 . S
Zn211 O215 2.086 . S
Zn211 O220 1.977 . S
O212 Zn211 2.032 . S
O212 C216 1.278 . S
C213 O214 1.203 . S
C213 O220 1.267 1_554 S
O214 C213 1.203 . S
O215 C208 1.185 . S
O215 Zn211 2.086 . S
C216 O212 1.278 . S
C216 O217 1.211 . S
O217 C216 1.211 . S
C218 O210 1.284 . S
C218 O219 1.273 . S
O219 C218 1.273 . S
O220 Zn211 1.977 . S
O220 C213 1.267 1_556 S
C221 O222 1.160 . S
C221 O228 1.185 . S
O222 C221 1.160 . S
O223 Zn224 1.899 . S
O223 C231 1.284 . S
Zn224 O223 1.899 . S
Zn224 O225 2.032 . S
Zn224 O228 2.086 . S
Zn224 O233 1.977 . S
O225 Zn224 2.032 . S
O225 C229 1.278 . S
C226 O227 1.203 . S
C226 O233 1.267 . S
O227 C226 1.203 . S
O228 C221 1.185 . S
O228 Zn224 2.086 . S
C229 O225 1.278 . S
C229 O230 1.211 . S
O230 C229 1.211 . S
C231 O223 1.284 . S
C231 O232 1.273 . S
O232 C231 1.273 . S
O233 Zn224 1.977 . S
O233 C226 1.267 . S
C234 O235 1.160 . S
C234 O241 1.185 . S
O235 C234 1.160 . S
O236 Zn237 1.899 . S
O236 C244 1.284 . S
Zn237 O236 1.899 . S
Zn237 O238 2.032 . S
Zn237 O241 2.086 . S
Zn237 O246 1.977 . S
O238 Zn237 2.032 . S
O238 C242 1.278 . S
C239 O240 1.203 . S
C239 O246 1.267 . S
O240 C239 1.203 . S
O241 C234 1.185 . S
O241 Zn237 2.086 . S
C242 O238 1.278 . S
C242 O243 1.211 . S
O243 C242 1.211 . S
C244 O236 1.284 . S
C244 O245 1.273 . S
O245 C244 1.273 . S
O246 Zn237 1.977 . S
O246 C239 1.267 . S
C247 O248 1.160 . S
C247 O254 1.185 . S
O248 C247 1.160 . S
O249 Zn250 1.899 . S
O249 C257 1.284 . S
Zn250 O249 1.899 . S
Zn250 O251 2.032 . S
Zn250 O254 2.086 . S
Zn250 O259 1.977 . S
O251 Zn250 2.032 . S
O251 C255 1.278 . S
C252 O253 1.203 . S
C252 O259 1.267 . S
O253 C252 1.203 . S
O254 C247 1.185 . S
O254 Zn250 2.086 . S
C255 O251 1.278 . S
C255 O256 1.211 . S
O256 C255 1.211 . S
C257 O249 1.284 . S
C257 O258 1.273 . S
O258 C257 1.273 . S
O259 Zn250 1.977 . S
O259 C252 1.267 . S
C260 O261 1.160 . S
C260 O267 1.185 . S
O261 C260 1.160 . S
O262 Zn263 1.899 . S
O262 C270 1.284 . S
Zn263 O262 1.899 . S
Zn263 O264 2.032 . S
Zn263 O267 2.086 . S
Zn263 O272 1.977 . S
O264 Zn263 2.032 . S
O264 C268 1.278 . S
C265 O266 1.203 . S
C265 O272 1.267 . S
O266 C265 1.203 . S
O267 C260 1.185 . S
O267 Zn263 2.086 . S
C268 O264 1.278 . S
C268 O269 1.211 . S
O269 C268 1.211 . S
C270 O262 1.284 . S
C270 O271 1.273 . S
O271 C270 1.273 . S
O272 Zn263 1.977 . S
O272 C265 1.267 . S
C273 O274 1.160 . S
C273 O280 1.185 . S
O274 C273 1.160 . S
O275 Zn276 1.899 . S
O275 C283 1.284 . S
Zn276 O275 1.899 . S
Zn276 O277 2.032 . S
Zn276 O280 2.086 . S
Zn276 O285 1.977 . S
O277 Zn276 2.032 . S
O277 C281 1.278 . S
C278 O279 1.203 . S
C278 O285 1.267 . S
O279 C278 1.203 . S
O280 C273 1.185 . S
O280 Zn276 2.086 . S
C281 O277 1.278 . S
C281 O282 1.211 . S
O282 C281 1.211 . S
C283 O275 1.284 . S
C283 O284 1.273 . S
O284 C283 1.273 . S
O285 Zn276 1.977 . S
O285 C278 1.267 . S
C286 O287 1.160 . S
C286 O293 1.185 . S
O287 C286 1.160 . S
O288 Zn289 1.899 . S
O288 C296 1.284 . S
Zn289 O288 1.899 . S
Zn289 O290 2.032 . S
Zn289 O293 2.086 . S
Zn289 O298 1.977 . S
O290 Zn289 2.032 . S
O290 C294 1.278 . S
C291 O292 1.203 . S
C291 O298 1.267 1_556 S
O292 C291 1.203 . S
O293 C286 1.185 . S
O293 Zn289 2.086 . S
C294 O290 1.278 . S
C294 O295 1.211 . S
O295 C294 1.211 . S
C296 O288 1.284 . S
C296 O297 1.273 . S
O297 C296 1.273 . S
O298 Zn289 1.977 . S
O298 C291 1.267 1_554 S
C299 O300 1.160 . S
C299 O306 1.185 . S
O300 C299 1.160 . S
O301 Zn302 1.899 . S
O301 C309 1.284 . S
Zn302 O301 1.899 . S
Zn302 O303 2.032 . S
Zn302 O306 2.086 . S
Zn302 O311 1.977 . S
O303 Zn302 2.032 . S
O303 C307 1.278 . S
C304 O305 1.203 . S
C304 O311 1.267 . S
O305 C304 1.203 . S
O306 C299 1.185 . S
O306 Zn302 2.086 . S
C307 O303 1.278 . S
C307 O308 1.211 . S
O308 C307 1.211 . S
C309 O301 1.284 . S
C309 O310 1.273 . S
O310 C309 1.273 . S
O311 Zn302 1.977 . S
O311 C304 1.267 . S
C312 O313 1.160 . S
C312 O319 1.185 . S
O313 C312 1.160 . S
O314 Zn315 1.899 . S
O314 C322 1.284 . S
Zn315 O314 1.899 . S
Zn315 O316 2.032 . S
Zn315 O319 2.086 . S
Zn315 O324 1.977 . S
O316 Zn315 2.032 . S
O316 C320 1.278 . S
C317 O318 1.203 . S
C317 O324 1.267 1_556 S
O318 C317 1.203 . S
O319 C312 1.185 . S
O319 Zn315 2.086 . S
C320 O316 1.278 . S
C320 O321 1.211 . S
O321 C320 1.211 . S
C322 O314 1.284 . S
C322 O323 1.273 . S
O323 C322 1.273 . S
O324 Zn315 1.977 . S
O324 C317 1.267 1_554 S
C325 O326 1.160 . S
C325 O332 1.185 . S
O326 C325 1.160 . S
O327 Zn328 1.899 . S
O327 C335 1.284 . S
Zn328 O327 1.899 . S
Zn328 O329 2.032 . S
Zn328 O332 2.086 . S
Zn328 O337 1.977 . S
O329 Zn328 2.032 . S
O329 C333 1.278 . S
C330 O331 1.203 . S
C330 O337 1.267 . S
O331 C330 1.203 . S
O332 C325 1.185 . S
O332 Zn328 2.086 . S
C333 O329 1.278 . S
C333 O334 1.211 . S
O334 C333 1.211 . S
C335 O327 1.284 . S
C335 O336 1.273 . S
O336 C335 1.273 . S
O337 Zn328 1.977 . S
O337 C330 1.267 . S
C338 O339 1.160 . S
C338 O345 1.185 . S
O339 C338 1.160 . S
O340 Zn341 1.899 . S
O340 C348 1.284 . S
Zn341 O340 1.899 . S
Zn341 O342 2.032 . S
Zn341 O345 2.086 . S
Zn341 O350 1.977 . S
O342 Zn341 2.032 . S
O342 C346 1.278 . S
C343 O344 1.203 . S
C343 O350 1.267 . S
O344 C343 1.203 . S
O345 C338 1.185 . S
O345 Zn341 2.086 . S
C346 O342 1.278 . S
C346 O347 1.211 . S
O347 C346 1.211 . S
C348 O340 1.284 . S
C348 O349 1.273 . S
O349 C348 1.273 . S
O350 Zn341 1.977 . S
O350 C343 1.267 . S
C351 O352 1.160 . S
C351 O358 1.185 . S
O352 C351 1.160 . S
O353 Zn354 1.899 . S
O353 C361 1.284 . S
Zn354 O353 1.899 . S
Zn354 O355 2.032 . S
Zn354 O358 2.086 . S
Zn354 O363 1.977 . S
O355 Zn354 2.032 . S
O355 C359 1.278 . S
C356 O357 1.203 . S
C356 O363 1.267 . S
O357 C356 1.203 . S
O358 C351 1.185 . S
O358 Zn354 2.086 . S
C359 O355 1.278 . S
C359 O360 1.211 . S
O360 C359 1.211 . S
C361 O353 1.284 . S
C361 O362 1.273 . S
O362 C361 1.273 . S
O363 Zn354 1.977 . S
O363 C356 1.267 . S
C364 O365 1.160 . S
C364 O371 1.185 . S
O365 C364 1.160 . S
O366 Zn367 1.899 . S
O366 C374 1.284 . S
Zn367 O366 1.899 . S
Zn367 O368 2.032 . S
Zn367 O371 2.086 . S
Zn367 O376 1.977 . S
O368 Zn367 2.032 . S
O368 C372 1.278 . S
C369 O370 1.203 . S
C369 O376 1.267 . S
O370 C369 1.203 . S
O371 C364 1.185 . S
O371 Zn367 2.086 . S
C372 O368 1.278 . S
C372 O373 1.211 . S
O373 C372 1.211 . S
C374 O366 1.284 . S
C374 O375 1.273 . S
O375 C374 1.273 . S
O376 Zn367 1.977 . S
O376 C369 1.267 . S
C377 O378 1.160 . S
C377 O384 1.185 . S
O378 C377 1.160 . S
O379 Zn380 1.899 . S
O379 C387 1.284 . S
Zn380 O379 1.899 . S
Zn380 O381 2.032 . S
Zn380 O384 2.086 . S
Zn380 O389 1.977 . S
O381 Zn380 2.032 . S
O381 C385 1.278 . S
C382 O383 1.203 . S
C382 O389 1.267 . S
O383 C382 1.203 . S
O384 C377 1.185 . S
O384 Zn380 2.086 . S
C385 O381 1.278 . S
C385 O386 1.211 . S
O386 C385 1.211 . S
C387 O379 1.284 . S
C387 O388 1.273 . S
O388 C387 1.273 . S
O389 Zn380 1.977 . S
O389 C382 1.267 . S
C390 O391 1.160 . S
C390 O397 1.185 . S
O391 C390 1.160 . S
O392 Zn393 1.899 . S
O392 C400 1.284 . S
Zn393 O392 1.899 . S
Zn393 O394 2.032 . S
Zn393 O397 2.086 . S
Zn393 O402 1.977 . S
O394 Zn393 2.032 . S
O394 C398 1.278 . S
C395 O396 1.203 . S
C395 O402 1.267 1_554 S
O396 C395 1.203 . S
O397 C390 1.185 . S
O397 Zn393 2.086 . S
C398 O394 1.278 . S
C398 O399 1.211 . S
O399 C398 1.211 . S
C400 O392 1.284 . S
C400 O401 1.273 . S
O401 C400 1.273 . S
O402 Zn393 1.977 . S
O402 C395 1.267 1_556 S
C403 O404 1.160 . S
C403 O410 1.185 . S
O404 C403 1.160 . S
O405 Zn406 1.899 . S
O405 C413 1.284 . S
Zn406 O405 1.899 . S
Zn406 O407 2.032 . S
Zn406 O410 2.086 . S
Zn406 O415 1.977 . S
O407 Zn406 2.032 . S
O407 C411 1.278 . S
C408 O409 1.203 . S
C408 O415 1.267 . S
O409 C408 1.203 . S
O410 C403 1.185 . S
O410 Zn406 2.086 . S
C411 O407 1.278 . S
C411 O412 1.211 . S
O412 C411 1.211 . S
C413 O405 1.284 . S
C413 O414 1.273 . S
O414 C413 1.273 . S
O415 Zn406 1.977 . S
O415 C408 1.267 . S
H416 C422 0.930 . S
H417 C425 0.930 . S
H418 C426 0.930 . S
H419 C427 0.930 . S
H420 C430 0.930 . S
H421 C431 0.930 . S
C422 H416 0.930 . S
C422 C423 1.355 . S
C422 C424 1.415 . S
C423 C422 1.355 . S
C423 C425 1.419 . S
C424 C422 1.415 . S
C424 C429 1.425 . S
C424 C431 1.409 . S
C425 H417 0.930 . S
C425 C423 1.419 . S
C425 C426 1.362 . S
C426 H418 0.930 . S
C426 C425 1.362 . S
C426 C429 1.409 . S
C427 H419 0.930 . S
C427 C428 1.355 . S
C427 C429 1.415 . S
C428 C427 1.355 . S
C428 C430 1.419 . S
C429 C424 1.425 . S
C429 C426 1.409 . S
C429 C427 1.415 . S
C430 H420 0.930 . S
C430 C428 1.419 . S
C430 C431 1.362 . S
C431 H421 0.930 . S
C431 C424 1.409 . S
C431 C430 1.362 . S
H432 C438 0.930 . S
H433 C441 0.930 . S
H434 C442 0.930 . S
H435 C443 0.930 . S
H436 C446 0.930 . S
H437 C447 0.930 . S
C438 H432 0.930 . S
C438 C439 1.355 . S
C438 C440 1.415 1_565 S
C439 C438 1.355 . S
C439 C441 1.419 . S
C440 C438 1.415 1_545 S
C440 C445 1.425 1_545 S
C440 C447 1.409 . S
C441 H433 0.930 . S
C441 C439 1.419 . S
C441 C442 1.362 . S
C442 H434 0.930 . S
C442 C441 1.362 . S
C442 C445 1.409 . S
C443 H435 0.930 . S
C443 C444 1.355 . S
C443 C445 1.415 1_545 S
C444 C443 1.355 . S
C444 C446 1.419 . S
C445 C440 1.425 1_565 S
C445 C442 1.409 . S
C445 C443 1.415 1_565 S
C446 H436 0.930 . S
C446 C444 1.419 . S
C446 C447 1.362 . S
C447 H437 0.930 . S
C447 C440 1.409 . S
C447 C446 1.362 . S
H448 C454 0.930 . S
H449 C457 0.930 . S
H450 C458 0.930 . S
H451 C459 0.930 . S
H452 C462 0.930 . S
H453 C463 0.930 . S
C454 H448 0.930 . S
C454 C455 1.355 . S
C454 C456 1.415 . S
C455 C454 1.355 . S
C455 C457 1.419 . S
C456 C454 1.415 . S
C456 C461 1.425 1_554 S
C456 C463 1.409 . S
C457 H449 0.930 . S
C457 C455 1.419 . S
C457 C458 1.362 1_554 S
C458 H450 0.930 . S
C458 C457 1.362 1_556 S
C458 C461 1.409 . S
C459 H451 0.930 . S
C459 C460 1.355 . S
C459 C461 1.415 . S
C460 C459 1.355 . S
C460 C462 1.419 . S
C461 C456 1.425 1_556 S
C461 C458 1.409 . S
C461 C459 1.415 . S
C462 H452 0.930 . S
C462 C460 1.419 . S
C462 C463 1.362 1_556 S
C463 H453 0.930 . S
C463 C456 1.409 . S
C463 C462 1.362 1_554 S
H464 C470 0.930 . S
H465 C473 0.930 . S
H466 C474 0.930 1_565 S
H467 C475 0.930 . S
H468 C478 0.930 . S
H469 C479 0.930 1_545 S
C470 H464 0.930 . S
C470 C471 1.355 . S
C470 C472 1.415 . S
C471 C470 1.355 . S
C471 C473 1.419 . S
C472 C470 1.415 . S
C472 C477 1.425 1_545 S
C472 C479 1.409 1_545 S
C473 H465 0.930 . S
C473 C471 1.419 . S
C473 C474 1.362 . S
C474 H466 0.930 1_545 S
C474 C473 1.362 . S
C474 C477 1.409 1_545 S
C475 H467 0.930 . S
C475 C476 1.355 . S
C475 C477 1.415 . S
C476 C475 1.355 . S
C476 C478 1.419 . S
C477 C472 1.425 1_565 S
C477 C474 1.409 1_565 S
C477 C475 1.415 . S
C478 H468 0.930 . S
C478 C476 1.419 . S
C478 C479 1.362 . S
C479 H469 0.930 1_565 S
C479 C472 1.409 1_565 S
C479 C478 1.362 . S
H480 C486 0.930 . S
H481 C489 0.930 . S
H482 C490 0.930 . S
H483 C491 0.930 . S
H484 C494 0.930 . S
H485 C495 0.930 . S
C486 H480 0.930 . S
C486 C487 1.355 . S
C486 C488 1.415 . S
C487 C486 1.355 . S
C487 C489 1.419 . S
C488 C486 1.415 . S
C488 C493 1.425 . S
C488 C495 1.409 . S
C489 H481 0.930 . S
C489 C487 1.419 . S
C489 C490 1.362 . S
C490 H482 0.930 . S
C490 C489 1.362 . S
C490 C493 1.409 . S
C491 H483 0.930 . S
C491 C492 1.355 . S
C491 C493 1.415 . S
C492 C491 1.355 . S
C492 C494 1.419 . S
C493 C488 1.425 . S
C493 C490 1.409 . S
C493 C491 1.415 . S
C494 H484 0.930 . S
C494 C492 1.419 . S
C494 C495 1.362 . S
C495 H485 0.930 . S
C495 C488 1.409 . S
C495 C494 1.362 . S
H496 C502 0.930 . S
H497 C505 0.930 . S
H498 C506 0.930 . S
H499 C507 0.930 . S
H500 C510 0.930 . S
H501 C511 0.930 . S
C502 H496 0.930 . S
C502 C503 1.355 . S
C502 C504 1.415 . S
C503 C502 1.355 . S
C503 C505 1.419 . S
C504 C502 1.415 . S
C504 C509 1.425 1_545 S
C504 C511 1.409 . S
C505 H497 0.930 . S
C505 C503 1.419 . S
C505 C506 1.362 1_545 S
C506 H498 0.930 . S
C506 C505 1.362 1_565 S
C506 C509 1.409 . S
C507 H499 0.930 . S
C507 C508 1.355 . S
C507 C509 1.415 . S
C508 C507 1.355 . S
C508 C510 1.419 . S
C509 C504 1.425 1_565 S
C509 C506 1.409 . S
C509 C507 1.415 . S
C510 H500 0.930 . S
C510 C508 1.419 . S
C510 C511 1.362 1_565 S
C511 H501 0.930 . S
C511 C504 1.409 . S
C511 C510 1.362 1_545 S
H512 C518 0.930 . S
H513 C521 0.930 . S
H514 C522 0.930 . S
H515 C523 0.930 . S
H516 C526 0.930 . S
H517 C527 0.930 . S
C518 H512 0.930 . S
C518 C519 1.355 . S
C518 C520 1.415 . S
C519 C518 1.355 . S
C519 C521 1.419 1_556 S
C520 C518 1.415 . S
C520 C525 1.425 1_556 S
C520 C527 1.409 . S
C521 H513 0.930 . S
C521 C519 1.419 1_554 S
C521 C522 1.362 . S
C522 H514 0.930 . S
C522 C521 1.362 . S
C522 C525 1.409 . S
C523 H515 0.930 . S
C523 C524 1.355 . S
C523 C525 1.415 . S
C524 C523 1.355 . S
C524 C526 1.419 1_554 S
C525 C520 1.425 1_554 S
C525 C522 1.409 . S
C525 C523 1.415 . S
C526 H516 0.930 . S
C526 C524 1.419 1_556 S
C526 C527 1.362 . S
C527 H517 0.930 . S
C527 C520 1.409 . S
C527 C526 1.362 . S
H528 C534 0.930 . S
H529 C537 0.930 . S
H530 C538 0.930 . S
H531 C539 0.930 . S
H532 C542 0.930 . S
H533 C543 0.930 . S
C534 H528 0.930 . S
C534 C535 1.355 . S
C534 C536 1.415 . S
C535 C534 1.355 . S
C535 C537 1.419 . S
C536 C534 1.415 . S
C536 C541 1.425 1_565 S
C536 C543 1.409 1_565 S
C537 H529 0.930 . S
C537 C535 1.419 . S
C537 C538 1.362 . S
C538 H530 0.930 . S
C538 C537 1.362 . S
C538 C541 1.409 1_565 S
C539 H531 0.930 . S
C539 C540 1.355 . S
C539 C541 1.415 . S
C540 C539 1.355 . S
C540 C542 1.419 . S
C541 C536 1.425 1_545 S
C541 C538 1.409 1_545 S
C541 C539 1.415 . S
C542 H532 0.930 . S
C542 C540 1.419 . S
C542 C543 1.362 . S
C543 H533 0.930 . S
C543 C536 1.409 1_545 S
C543 C542 1.362 . S
H544 C550 0.930 . S
H545 C553 0.930 . S
H546 C554 0.930 . S
H547 C555 0.930 . S
H548 C558 0.930 . S
H549 C559 0.930 . S
C550 H544 0.930 . S
C550 C551 1.355 . S
C550 C552 1.415 . S
C551 C550 1.355 . S
C551 C553 1.419 1_556 S
C552 C550 1.415 . S
C552 C557 1.425 1_556 S
C552 C559 1.409 . S
C553 H545 0.930 . S
C553 C551 1.419 1_554 S
C553 C554 1.362 . S
C554 H546 0.930 . S
C554 C553 1.362 . S
C554 C557 1.409 . S
C555 H547 0.930 . S
C555 C556 1.355 . S
C555 C557 1.415 . S
C556 C555 1.355 . S
C556 C558 1.419 1_554 S
C557 C552 1.425 1_554 S
C557 C554 1.409 . S
C557 C555 1.415 . S
C558 H548 0.930 . S
C558 C556 1.419 1_556 S
C558 C559 1.362 . S
C559 H549 0.930 . S
C559 C552 1.409 . S
C559 C558 1.362 . S
H560 C566 0.930 . S
H561 C569 0.930 . S
H562 C570 0.930 . S
H563 C571 0.930 . S
H564 C574 0.930 . S
H565 C575 0.930 . S
C566 H560 0.930 . S
C566 C567 1.355 . S
C566 C568 1.415 . S
C567 C566 1.355 . S
C567 C569 1.419 . S
C568 C566 1.415 . S
C568 C573 1.425 . S
C568 C575 1.409 . S
C569 H561 0.930 . S
C569 C567 1.419 . S
C569 C570 1.362 . S
C570 H562 0.930 . S
C570 C569 1.362 . S
C570 C573 1.409 . S
C571 H563 0.930 . S
C571 C572 1.355 . S
C571 C573 1.415 . S
C572 C571 1.355 . S
C572 C574 1.419 . S
C573 C568 1.425 . S
C573 C570 1.409 . S
C573 C571 1.415 . S
C574 H564 0.930 . S
C574 C572 1.419 . S
C574 C575 1.362 . S
C575 H565 0.930 . S
C575 C568 1.409 . S
C575 C574 1.362 . S
H576 C582 0.930 . S
H577 C585 0.930 . S
H578 C586 0.930 . S
H579 C587 0.930 . S
H580 C590 0.930 . S
H581 C591 0.930 . S
C582 H576 0.930 . S
C582 C583 1.355 . S
C582 C584 1.415 . S
C583 C582 1.355 . S
C583 C585 1.419 . S
C584 C582 1.415 . S
C584 C589 1.425 . S
C584 C591 1.409 . S
C585 H577 0.930 . S
C585 C583 1.419 . S
C585 C586 1.362 . S
C586 H578 0.930 . S
C586 C585 1.362 . S
C586 C589 1.409 . S
C587 H579 0.930 . S
C587 C588 1.355 . S
C587 C589 1.415 . S
C588 C587 1.355 . S
C588 C590 1.419 . S
C589 C584 1.425 . S
C589 C586 1.409 . S
C589 C587 1.415 . S
C590 H580 0.930 . S
C590 C588 1.419 . S
C590 C591 1.362 . S
C591 H581 0.930 . S
C591 C584 1.409 . S
C591 C590 1.362 . S
H592 C598 0.930 . S
H593 C601 0.930 . S
H594 C602 0.930 . S
H595 C603 0.930 . S
H596 C606 0.930 . S
H597 C607 0.930 . S
C598 H592 0.930 . S
C598 C599 1.355 . S
C598 C600 1.415 . S
C599 C598 1.355 . S
C599 C601 1.419 . S
C600 C598 1.415 . S
C600 C605 1.425 . S
C600 C607 1.409 . S
C601 H593 0.930 . S
C601 C599 1.419 . S
C601 C602 1.362 . S
C602 H594 0.930 . S
C602 C601 1.362 . S
C602 C605 1.409 . S
C603 H595 0.930 . S
C603 C604 1.355 . S
C603 C605 1.415 . S
C604 C603 1.355 . S
C604 C606 1.419 . S
C605 C600 1.425 . S
C605 C602 1.409 . S
C605 C603 1.415 . S
C606 H596 0.930 . S
C606 C604 1.419 . S
C606 C607 1.362 . S
C607 H597 0.930 . S
C607 C600 1.409 . S
C607 C606 1.362 . S
H608 C614 0.930 . S
H609 C617 0.930 . S
H610 C618 0.930 . S
H611 C619 0.930 . S
H612 C622 0.930 . S
H613 C623 0.930 . S
C614 H608 0.930 . S
C614 C615 1.355 . S
C614 C616 1.415 . S
C615 C614 1.355 . S
C615 C617 1.419 1_556 S
C616 C614 1.415 . S
C616 C621 1.425 1_556 S
C616 C623 1.409 . S
C617 H609 0.930 . S
C617 C615 1.419 1_554 S
C617 C618 1.362 . S
C618 H610 0.930 . S
C618 C617 1.362 . S
C618 C621 1.409 . S
C619 H611 0.930 . S
C619 C620 1.355 . S
C619 C621 1.415 . S
C620 C619 1.355 . S
C620 C622 1.419 1_554 S
C621 C616 1.425 1_554 S
C621 C618 1.409 . S
C621 C619 1.415 . S
C622 H612 0.930 . S
C622 C620 1.419 1_556 S
C622 C623 1.362 . S
C623 H613 0.930 . S
C623 C616 1.409 . S
C623 C622 1.362 . S
H624 C630 0.930 . S
H625 C633 0.930 . S
H626 C634 0.930 . S
H627 C635 0.930 . S
H628 C638 0.930 . S
H629 C639 0.930 . S
C630 H624 0.930 . S
C630 C631 1.355 . S
C630 C632 1.415 . S
C631 C630 1.355 . S
C631 C633 1.419 . S
C632 C630 1.415 . S
C632 C637 1.425 . S
C632 C639 1.409 . S
C633 H625 0.930 . S
C633 C631 1.419 . S
C633 C634 1.362 . S
C634 H626 0.930 . S
C634 C633 1.362 . S
C634 C637 1.409 . S
C635 H627 0.930 . S
C635 C636 1.355 . S
C635 C637 1.415 . S
C636 C635 1.355 . S
C636 C638 1.419 . S
C637 C632 1.425 . S
C637 C634 1.409 . S
C637 C635 1.415 . S
C638 H628 0.930 . S
C638 C636 1.419 . S
C638 C639 1.362 . S
C639 H629 0.930 . S
C639 C632 1.409 . S
C639 C638 1.362 . S
H640 C646 0.930 . S
H641 C649 0.930 . S
H642 C650 0.930 . S
H643 C651 0.930 . S
H644 C654 0.930 . S
H645 C655 0.930 . S
C646 H640 0.930 . S
C646 C647 1.355 . S
C646 C648 1.415 . S
C647 C646 1.355 . S
C647 C649 1.419 . S
C648 C646 1.415 . S
C648 C653 1.425 . S
C648 C655 1.409 . S
C649 H641 0.930 . S
C649 C647 1.419 . S
C649 C650 1.362 . S
C650 H642 0.930 . S
C650 C649 1.362 . S
C650 C653 1.409 . S
C651 H643 0.930 . S
C651 C652 1.355 . S
C651 C653 1.415 . S
C652 C651 1.355 . S
C652 C654 1.419 . S
C653 C648 1.425 . S
C653 C650 1.409 . S
C653 C651 1.415 . S
C654 H644 0.930 . S
C654 C652 1.419 . S
C654 C655 1.362 . S
C655 H645 0.930 . S
C655 C648 1.409 . S
C655 C654 1.362 . S
H656 C662 0.930 . S
H657 C665 0.930 . S
H658 C666 0.930 . S
H659 C667 0.930 . S
H660 C670 0.930 . S
H661 C671 0.930 . S
C662 H656 0.930 . S
C662 C663 1.355 . S
C662 C664 1.415 . S
C663 C662 1.355 . S
C663 C665 1.419 . S
C664 C662 1.415 . S
C664 C669 1.425 . S
C664 C671 1.409 . S
C665 H657 0.930 . S
C665 C663 1.419 . S
C665 C666 1.362 . S
C666 H658 0.930 . S
C666 C665 1.362 . S
C666 C669 1.409 . S
C667 H659 0.930 . S
C667 C668 1.355 . S
C667 C669 1.415 . S
C668 C667 1.355 . S
C668 C670 1.419 . S
C669 C664 1.425 . S
C669 C666 1.409 . S
C669 C667 1.415 . S
C670 H660 0.930 . S
C670 C668 1.419 . S
C670 C671 1.362 . S
C671 H661 0.930 . S
C671 C664 1.409 . S
C671 C670 1.362 . S
H672 C678 0.930 . S
H673 C681 0.930 1_556 S
H674 C682 0.930 . S
H675 C683 0.930 . S
H676 C686 0.930 . S
H677 C687 0.930 . S
C678 H672 0.930 . S
C678 C679 1.355 1_554 S
C678 C680 1.415 . S
C679 C678 1.355 1_556 S
C679 C681 1.419 1_556 S
C680 C678 1.415 . S
C680 C685 1.425 . S
C680 C687 1.409 . S
C681 H673 0.930 1_554 S
C681 C679 1.419 1_554 S
C681 C682 1.362 . S
C682 H674 0.930 . S
C682 C681 1.362 . S
C682 C685 1.409 . S
C683 H675 0.930 . S
C683 C684 1.355 . S
C683 C685 1.415 . S
C684 C683 1.355 . S
C684 C686 1.419 . S
C685 C680 1.425 . S
C685 C682 1.409 . S
C685 C683 1.415 . S
C686 H676 0.930 . S
C686 C684 1.419 . S
C686 C687 1.362 . S
C687 H677 0.930 . S
C687 C680 1.409 . S
C687 C686 1.362 . S
H688 C694 0.930 . S
H689 C697 0.930 . S
H690 C698 0.930 . S
H691 C699 0.930 . S
H692 C702 0.930 . S
H693 C703 0.930 . S
C694 H688 0.930 . S
C694 C695 1.355 . S
C694 C696 1.415 . S
C695 C694 1.355 . S
C695 C697 1.419 . S
C696 C694 1.415 . S
C696 C701 1.425 . S
C696 C703 1.409 . S
C697 H689 0.930 . S
C697 C695 1.419 . S
C697 C698 1.362 . S
C698 H690 0.930 . S
C698 C697 1.362 . S
C698 C701 1.409 . S
C699 H691 0.930 . S
C699 C700 1.355 . S
C699 C701 1.415 . S
C700 C699 1.355 . S
C700 C702 1.419 . S
C701 C696 1.425 . S
C701 C698 1.409 . S
C701 C699 1.415 . S
C702 H692 0.930 . S
C702 C700 1.419 . S
C702 C703 1.362 . S
C703 H693 0.930 . S
C703 C696 1.409 . S
C703 C702 1.362 . S
H704 C710 0.930 . S
H705 C713 0.930 . S
H706 C714 0.930 . S
H707 C715 0.930 . S
H708 C718 0.930 . S
H709 C719 0.930 . S
C710 H704 0.930 . S
C710 C711 1.355 . S
C710 C712 1.415 . S
C711 C710 1.355 . S
C711 C713 1.419 . S
C712 C710 1.415 . S
C712 C717 1.425 . S
C712 C719 1.409 . S
C713 H705 0.930 . S
C713 C711 1.419 . S
C713 C714 1.362 . S
C714 H706 0.930 . S
C714 C713 1.362 . S
C714 C717 1.409 . S
C715 H707 0.930 . S
C715 C716 1.355 . S
C715 C717 1.415 . S
C716 C715 1.355 . S
C716 C718 1.419 . S
C717 C712 1.425 . S
C717 C714 1.409 . S
C717 C715 1.415 . S
C718 H708 0.930 . S
C718 C716 1.419 . S
C718 C719 1.362 . S
C719 H709 0.930 . S
C719 C712 1.409 . S
C719 C718 1.362 . S
H720 C726 0.930 . S
H721 C729 0.930 . S
H722 C730 0.930 . S
H723 C731 0.930 . S
H724 C734 0.930 . S
H725 C735 0.930 . S
C726 H720 0.930 . S
C726 C727 1.355 . S
C726 C728 1.415 . S
C727 C726 1.355 . S
C727 C729 1.419 . S
C728 C726 1.415 . S
C728 C733 1.425 . S
C728 C735 1.409 . S
C729 H721 0.930 . S
C729 C727 1.419 . S
C729 C730 1.362 . S
C730 H722 0.930 . S
C730 C729 1.362 . S
C730 C733 1.409 . S
C731 H723 0.930 . S
C731 C732 1.355 1_556 S
C731 C733 1.415 . S
C732 C731 1.355 1_554 S
C732 C734 1.419 . S
C733 C728 1.425 . S
C733 C730 1.409 . S
C733 C731 1.415 . S
C734 H724 0.930 . S
C734 C732 1.419 . S
C734 C735 1.362 1_554 S
C735 H725 0.930 . S
C735 C728 1.409 . S
C735 C734 1.362 1_556 S
H736 C742 0.930 . S
H737 C745 0.930 . S
H738 C746 0.930 . S
H739 C747 0.930 . S
H740 C750 0.930 . S
H741 C751 0.930 . S
C742 H736 0.930 . S
C742 C743 1.355 1_556 S
C742 C744 1.415 . S
C743 C742 1.355 1_554 S
C743 C745 1.419 . S
C744 C742 1.415 . S
C744 C749 1.425 . S
C744 C751 1.409 . S
C745 H737 0.930 . S
C745 C743 1.419 . S
C745 C746 1.362 1_554 S
C746 H738 0.930 . S
C746 C745 1.362 1_556 S
C746 C749 1.409 . S
C747 H739 0.930 . S
C747 C748 1.355 . S
C747 C749 1.415 . S
C748 C747 1.355 . S
C748 C750 1.419 . S
C749 C744 1.425 . S
C749 C746 1.409 . S
C749 C747 1.415 . S
C750 H740 0.930 . S
C750 C748 1.419 . S
C750 C751 1.362 . S
C751 H741 0.930 . S
C751 C744 1.409 . S
C751 C750 1.362 . S
H752 C758 0.930 . S
H753 C761 0.930 . S
H754 C762 0.930 . S
H755 C763 0.930 . S
H756 C766 0.930 . S
H757 C767 0.930 . S
C758 H752 0.930 . S
C758 C759 1.355 . S
C758 C760 1.415 . S
C759 C758 1.355 . S
C759 C761 1.419 . S
C760 C758 1.415 . S
C760 C765 1.425 . S
C760 C767 1.409 . S
C761 H753 0.930 . S
C761 C759 1.419 . S
C761 C762 1.362 . S
C762 H754 0.930 . S
C762 C761 1.362 . S
C762 C765 1.409 . S
C763 H755 0.930 . S
C763 C764 1.355 . S
C763 C765 1.415 . S
C764 C763 1.355 . S
C764 C766 1.419 . S
C765 C760 1.425 . S
C765 C762 1.409 . S
C765 C763 1.415 . S
C766 H756 0.930 . S
C766 C764 1.419 . S
C766 C767 1.362 . S
C767 H757 0.930 . S
C767 C760 1.409 . S
C767 C766 1.362 . S
H768 C774 0.930 . S
H769 C777 0.930 . S
H770 C778 0.930 . S
H771 C779 0.930 . S
H772 C782 0.930 . S
H773 C783 0.930 . S
C774 H768 0.930 . S
C774 C775 1.355 . S
C774 C776 1.415 . S
C775 C774 1.355 . S
C775 C777 1.419 . S
C776 C774 1.415 . S
C776 C781 1.425 . S
C776 C783 1.409 . S
C777 H769 0.930 . S
C777 C775 1.419 . S
C777 C778 1.362 . S
C778 H770 0.930 . S
C778 C777 1.362 . S
C778 C781 1.409 . S
C779 H771 0.930 . S
C779 C780 1.355 . S
C779 C781 1.415 . S
C780 C779 1.355 . S
C780 C782 1.419 . S
C781 C776 1.425 . S
C781 C778 1.409 . S
C781 C779 1.415 . S
C782 H772 0.930 . S
C782 C780 1.419 . S
C782 C783 1.362 . S
C783 H773 0.930 . S
C783 C776 1.409 . S
C783 C782 1.362 . S
H784 C790 0.930 1_556 S
H785 C793 0.930 . S
H786 C794 0.930 . S
H787 C795 0.930 . S
H788 C798 0.930 . S
H789 C799 0.930 . S
C790 H784 0.930 1_554 S
C790 C791 1.356 . S
C790 C792 1.415 . S
C791 C790 1.356 . S
C791 C793 1.423 . S
C792 C790 1.415 . S
C792 C797 1.425 . S
C792 C799 1.409 . S
C793 H785 0.930 . S
C793 C791 1.423 . S
C793 C794 1.362 . S
C794 H786 0.930 . S
C794 C793 1.362 . S
C794 C797 1.409 . S
C795 H787 0.930 . S
C795 C796 1.355 . S
C795 C797 1.415 . S
C796 C795 1.355 . S
C796 C798 1.419 . S
C797 C792 1.425 . S
C797 C794 1.409 . S
C797 C795 1.415 . S
C798 H788 0.930 . S
C798 C796 1.419 . S
C798 C799 1.362 . S
C799 H789 0.930 . S
C799 C792 1.409 . S
C799 C798 1.362 . S
H800 C806 0.930 . S
H801 C809 0.930 . S
H802 C810 0.930 . S
H803 C811 0.930 . S
H804 C814 0.930 . S
H805 C815 0.930 . S
C806 H800 0.930 . S
C806 C807 1.355 . S
C806 C808 1.415 . S
C807 C806 1.355 . S
C807 C809 1.419 . S
C808 C806 1.415 . S
C808 C813 1.425 . S
C808 C815 1.409 . S
C809 H801 0.930 . S
C809 C807 1.419 . S
C809 C810 1.362 . S
C810 H802 0.930 . S
C810 C809 1.362 . S
C810 C813 1.409 . S
C811 H803 0.930 . S
C811 C812 1.355 . S
C811 C813 1.415 . S
C812 C811 1.355 . S
C812 C814 1.419 . S
C813 C808 1.425 . S
C813 C810 1.409 . S
C813 C811 1.415 . S
C814 H804 0.930 . S
C814 C812 1.419 . S
C814 C815 1.362 . S
C815 H805 0.930 . S
C815 C808 1.409 . S
C815 C814 1.362 . S
H816 C822 0.930 . S
H817 C825 0.930 1_554 S
H818 C826 0.930 . S
H819 C827 0.930 . S
H820 C830 0.930 . S
H821 C831 0.930 . S
C822 H816 0.930 . S
C822 C823 1.355 1_556 S
C822 C824 1.415 . S
C823 C822 1.355 1_554 S
C823 C825 1.419 1_554 S
C824 C822 1.415 . S
C824 C829 1.425 . S
C824 C831 1.409 . S
C825 H817 0.930 1_556 S
C825 C823 1.419 1_556 S
C825 C826 1.362 . S
C826 H818 0.930 . S
C826 C825 1.362 . S
C826 C829 1.409 . S
C827 H819 0.930 . S
C827 C828 1.355 . S
C827 C829 1.415 . S
C828 C827 1.355 . S
C828 C830 1.419 . S
C829 C824 1.425 . S
C829 C826 1.409 . S
C829 C827 1.415 . S
C830 H820 0.930 . S
C830 C828 1.419 . S
C830 C831 1.362 . S
C831 H821 0.930 . S
C831 C824 1.409 . S
C831 C830 1.362 . S
H832 C838 0.930 . S
H833 C841 0.930 . S
H834 C842 0.930 . S
H835 C843 0.930 . S
H836 C846 0.930 . S
H837 C847 0.930 . S
C838 H832 0.930 . S
C838 C839 1.355 . S
C838 C840 1.415 . S
C839 C838 1.355 . S
C839 C841 1.419 . S
C840 C838 1.415 . S
C840 C845 1.425 . S
C840 C847 1.409 . S
C841 H833 0.930 . S
C841 C839 1.419 . S
C841 C842 1.362 . S
C842 H834 0.930 . S
C842 C841 1.362 . S
C842 C845 1.409 . S
C843 H835 0.930 . S
C843 C844 1.355 1_554 S
C843 C845 1.415 . S
C844 C843 1.355 1_556 S
C844 C846 1.419 . S
C845 C840 1.425 . S
C845 C842 1.409 . S
C845 C843 1.415 . S
C846 H836 0.930 . S
C846 C844 1.419 . S
C846 C847 1.362 1_556 S
C847 H837 0.930 . S
C847 C840 1.409 . S
C847 C846 1.362 1_554 S
H848 C854 0.930 . S
H849 C857 0.930 . S
H850 C858 0.930 . S
H851 C859 0.930 . S
H852 C862 0.930 . S
H853 C863 0.930 . S
C854 H848 0.930 . S
C854 C855 1.355 . S
C854 C856 1.415 . S
C855 C854 1.355 . S
C855 C857 1.419 . S
C856 C854 1.415 . S
C856 C861 1.425 . S
C856 C863 1.409 . S
C857 H849 0.930 . S
C857 C855 1.419 . S
C857 C858 1.362 . S
C858 H850 0.930 . S
C858 C857 1.362 . S
C858 C861 1.409 . S
C859 H851 0.930 . S
C859 C860 1.355 . S
C859 C861 1.415 . S
C860 C859 1.355 . S
C860 C862 1.419 . S
C861 C856 1.425 . S
C861 C858 1.409 . S
C861 C859 1.415 . S
C862 H852 0.930 . S
C862 C860 1.419 . S
C862 C863 1.362 . S
C863 H853 0.930 . S
C863 C856 1.409 . S
C863 C862 1.362 . S
H864 C870 0.930 . S
H865 C873 0.930 . S
H866 C874 0.930 . S
H867 C875 0.930 . S
H868 C878 0.930 . S
H869 C879 0.930 . S
C870 H864 0.930 . S
C870 C871 1.355 . S
C870 C872 1.415 . S
C871 C870 1.355 . S
C871 C873 1.419 . S
C872 C870 1.415 . S
C872 C877 1.425 . S
C872 C879 1.409 . S
C873 H865 0.930 . S
C873 C871 1.419 . S
C873 C874 1.362 . S
C874 H866 0.930 . S
C874 C873 1.362 . S
C874 C877 1.409 . S
C875 H867 0.930 . S
C875 C876 1.355 . S
C875 C877 1.415 . S
C876 C875 1.355 . S
C876 C878 1.419 . S
C877 C872 1.425 . S
C877 C874 1.409 . S
C877 C875 1.415 . S
C878 H868 0.930 . S
C878 C876 1.419 . S
C878 C879 1.362 . S
C879 H869 0.930 . S
C879 C872 1.409 . S
C879 C878 1.362 . S
H880 C886 0.930 1_556 S
H881 C889 0.930 . S
H882 C890 0.930 . S
H883 C891 0.930 . S
H884 C894 0.930 . S
H885 C895 0.930 . S
C886 H880 0.930 1_554 S
C886 C887 1.356 . S
C886 C888 1.415 . S
C887 C886 1.356 . S
C887 C889 1.425 . S
C888 C886 1.415 . S
C888 C893 1.425 . S
C888 C895 1.409 . S
C889 H881 0.930 . S
C889 C887 1.425 . S
C889 C890 1.362 . S
C890 H882 0.930 . S
C890 C889 1.362 . S
C890 C893 1.409 . S
C891 H883 0.930 . S
C891 C892 1.355 . S
C891 C893 1.415 . S
C892 C891 1.355 . S
C892 C894 1.419 . S
C893 C888 1.425 . S
C893 C890 1.409 . S
C893 C891 1.415 . S
C894 H884 0.930 . S
C894 C892 1.419 . S
C894 C895 1.362 . S
C895 H885 0.930 . S
C895 C888 1.409 . S
C895 C894 1.362 . S
H896 C902 0.930 . S
H897 C905 0.930 . S
H898 C906 0.930 . S
H899 C907 0.930 . S
H900 C910 0.930 . S
H901 C911 0.930 . S
C902 H896 0.930 . S
C902 C903 1.355 . S
C902 C904 1.415 . S
C903 C902 1.355 . S
C903 C905 1.419 . S
C904 C902 1.415 . S
C904 C909 1.425 . S
C904 C911 1.409 . S
C905 H897 0.930 . S
C905 C903 1.419 . S
C905 C906 1.362 . S
C906 H898 0.930 . S
C906 C905 1.362 . S
C906 C909 1.409 . S
C907 H899 0.930 . S
C907 C908 1.355 1_556 S
C907 C909 1.415 . S
C908 C907 1.355 1_554 S
C908 C910 1.419 1_554 S
C909 C904 1.425 . S
C909 C906 1.409 . S
C909 C907 1.415 . S
C910 H900 0.930 . S
C910 C908 1.419 1_556 S
C910 C911 1.362 . S
C911 H901 0.930 . S
C911 C904 1.409 . S
C911 C910 1.362 . S
H912 C918 0.930 . S
H913 C921 0.930 . S
H914 C922 0.930 . S
H915 C923 0.930 . S
H916 C926 0.930 . S
H917 C927 0.930 . S
C918 H912 0.930 . S
C918 C919 1.355 . S
C918 C920 1.415 . S
C919 C918 1.355 . S
C919 C921 1.419 . S
C920 C918 1.415 . S
C920 C925 1.425 . S
C920 C927 1.409 . S
C921 H913 0.930 . S
C921 C919 1.419 . S
C921 C922 1.362 . S
C922 H914 0.930 . S
C922 C921 1.362 . S
C922 C925 1.409 . S
C923 H915 0.930 . S
C923 C924 1.355 . S
C923 C925 1.415 . S
C924 C923 1.355 . S
C924 C926 1.419 . S
C925 C920 1.425 . S
C925 C922 1.409 . S
C925 C923 1.415 . S
C926 H916 0.930 . S
C926 C924 1.419 . S
C926 C927 1.362 . S
C927 H917 0.930 . S
C927 C920 1.409 . S
C927 C926 1.362 . S
H928 C934 0.930 . S
H929 C937 0.930 . S
H930 C938 0.930 . S
H931 C939 0.930 . S
H932 C942 0.930 . S
H933 C943 0.930 . S
C934 H928 0.930 . S
C934 C935 1.355 . S
C934 C936 1.415 . S
C935 C934 1.355 . S
C935 C937 1.419 . S
C936 C934 1.415 . S
C936 C941 1.425 . S
C936 C943 1.409 . S
C937 H929 0.930 . S
C937 C935 1.419 . S
C937 C938 1.362 . S
C938 H930 0.930 . S
C938 C937 1.362 . S
C938 C941 1.409 . S
C939 H931 0.930 . S
C939 C940 1.355 . S
C939 C941 1.415 . S
C940 C939 1.355 . S
C940 C942 1.419 . S
C941 C936 1.425 . S
C941 C938 1.409 . S
C941 C939 1.415 . S
C942 H932 0.930 . S
C942 C940 1.419 . S
C942 C943 1.362 . S
C943 H933 0.930 . S
C943 C936 1.409 . S
C943 C942 1.362 . S
H944 C950 0.930 . S
H945 C953 0.930 . S
H946 C954 0.930 1_455 S
H947 C955 0.930 . S
H948 C958 0.930 . S
H949 C959 0.930 . S
C950 H944 0.930 . S
C950 C951 1.355 . S
C950 C952 1.415 . S
C951 C950 1.355 . S
C951 C953 1.419 . S
C952 C950 1.415 . S
C952 C957 1.425 1_655 S
C952 C959 1.409 . S
C953 H945 0.930 . S
C953 C951 1.419 . S
C953 C954 1.362 . S
C954 H946 0.930 1_655 S
C954 C953 1.362 . S
C954 C957 1.409 1_655 S
C955 H947 0.930 . S
C955 C956 1.355 . S
C955 C957 1.415 . S
C956 C955 1.355 . S
C956 C958 1.419 . S
C957 C952 1.425 1_455 S
C957 C954 1.409 1_455 S
C957 C955 1.415 . S
C958 H948 0.930 . S
C958 C956 1.419 . S
C958 C959 1.362 1_455 S
C959 H949 0.930 . S
C959 C952 1.409 . S
C959 C958 1.362 1_655 S
H960 C966 0.930 . S
H961 C969 0.930 . S
H962 C970 0.930 . S
H963 C971 0.930 . S
H964 C974 0.930 . S
H965 C975 0.930 . S
C966 H960 0.930 . S
C966 C967 1.355 . S
C966 C968 1.415 . S
C967 C966 1.355 . S
C967 C969 1.419 . S
C968 C966 1.415 . S
C968 C973 1.425 . S
C968 C975 1.409 . S
C969 H961 0.930 . S
C969 C967 1.419 . S
C969 C970 1.362 . S
C970 H962 0.930 . S
C970 C969 1.362 . S
C970 C973 1.409 . S
C971 H963 0.930 . S
C971 C972 1.355 . S
C971 C973 1.415 . S
C972 C971 1.355 . S
C972 C974 1.419 . S
C973 C968 1.425 . S
C973 C970 1.409 . S
C973 C971 1.415 . S
C974 H964 0.930 . S
C974 C972 1.419 . S
C974 C975 1.362 . S
C975 H965 0.930 . S
C975 C968 1.409 . S
C975 C974 1.362 . S
H976 C982 0.930 . S
H977 C985 0.930 . S
H978 C986 0.930 . S
H979 C987 0.930 1_554 S
H980 C990 0.930 . S
H981 C991 0.930 . S
C982 H976 0.930 . S
C982 C983 1.355 . S
C982 C984 1.415 . S
C983 C982 1.355 . S
C983 C985 1.419 . S
C984 C982 1.415 . S
C984 C989 1.425 . S
C984 C991 1.409 . S
C985 H977 0.930 . S
C985 C983 1.419 . S
C985 C986 1.362 . S
C986 H978 0.930 . S
C986 C985 1.362 . S
C986 C989 1.409 . S
C987 H979 0.930 1_556 S
C987 C988 1.355 . S
C987 C989 1.415 . S
C988 C987 1.355 . S
C988 C990 1.419 . S
C989 C984 1.425 . S
C989 C986 1.409 . S
C989 C987 1.415 . S
C990 H980 0.930 . S
C990 C988 1.419 . S
C990 C991 1.362 . S
C991 H981 0.930 . S
C991 C984 1.409 . S
C991 C990 1.362 . S
H992 C998 0.930 . S
H993 C1001 0.930 . S
H994 C1002 0.930 . S
H995 C1003 0.930 . S
H996 C1006 0.930 . S
H997 C1007 0.930 . S
C998 H992 0.930 . S
C998 C999 1.355 . S
C998 C1000 1.415 . S
C999 C998 1.355 . S
C999 C1001 1.419 . S
C1000 C998 1.415 . S
C1000 C1005 1.425 . S
C1000 C1007 1.409 . S
C1001 H993 0.930 . S
C1001 C999 1.419 . S
C1001 C1002 1.362 . S
C1002 H994 0.930 . S
C1002 C1001 1.362 . S
C1002 C1005 1.409 . S
C1003 H995 0.930 . S
C1003 C1004 1.355 . S
C1003 C1005 1.415 . S
C1004 C1003 1.355 . S
C1004 C1006 1.419 . S
C1005 C1000 1.425 . S
C1005 C1002 1.409 . S
C1005 C1003 1.415 . S
C1006 H996 0.930 . S
C1006 C1004 1.419 . S
C1006 C1007 1.362 . S
C1007 H997 0.930 . S
C1007 C1000 1.409 . S
C1007 C1006 1.362 . S
H1008 C1014 0.930 . S
H1009 C1017 0.930 . S
H1010 C1018 0.930 . S
H1011 C1019 0.930 . S
H1012 C1022 0.930 . S
H1013 C1023 0.930 . S
C1014 H1008 0.930 . S
C1014 C1015 1.355 . S
C1014 C1016 1.415 . S
C1015 C1014 1.355 . S
C1015 C1017 1.419 . S
C1016 C1014 1.415 . S
C1016 C1021 1.425 . S
C1016 C1023 1.409 . S
C1017 H1009 0.930 . S
C1017 C1015 1.419 . S
C1017 C1018 1.362 . S
C1018 H1010 0.930 . S
C1018 C1017 1.362 . S
C1018 C1021 1.409 . S
C1019 H1011 0.930 . S
C1019 C1020 1.355 . S
C1019 C1021 1.415 . S
C1020 C1019 1.355 . S
C1020 C1022 1.419 . S
C1021 C1016 1.425 . S
C1021 C1018 1.409 . S
C1021 C1019 1.415 . S
C1022 H1012 0.930 . S
C1022 C1020 1.419 . S
C1022 C1023 1.362 . S
C1023 H1013 0.930 . S
C1023 C1016 1.409 . S
C1023 C1022 1.362 . S
H1024 C1030 0.930 . S
H1025 C1033 0.930 . S
H1026 C1034 0.930 . S
H1027 C1035 0.930 . S
H1028 C1038 0.930 1_554 S
H1029 C1039 0.930 . S
C1030 H1024 0.930 . S
C1030 C1031 1.355 . S
C1030 C1032 1.415 . S
C1031 C1030 1.355 . S
C1031 C1033 1.419 . S
C1032 C1030 1.415 . S
C1032 C1037 1.425 . S
C1032 C1039 1.409 . S
C1033 H1025 0.930 . S
C1033 C1031 1.419 . S
C1033 C1034 1.362 . S
C1034 H1026 0.930 . S
C1034 C1033 1.362 . S
C1034 C1037 1.409 . S
C1035 H1027 0.930 . S
C1035 C1036 1.355 . S
C1035 C1037 1.415 . S
C1036 C1035 1.355 . S
C1036 C1038 1.419 . S
C1037 C1032 1.425 . S
C1037 C1034 1.409 . S
C1037 C1035 1.415 . S
C1038 H1028 0.930 1_556 S
C1038 C1036 1.419 . S
C1038 C1039 1.362 . S
C1039 H1029 0.930 . S
C1039 C1032 1.409 . S
C1039 C1038 1.362 . S
H1040 C1046 0.930 . S
H1041 C1049 0.930 . S
H1042 C1050 0.930 1_556 S
H1043 C1051 0.930 . S
H1044 C1054 0.930 . S
H1045 C1055 0.930 1_455 S
C1046 H1040 0.930 . S
C1046 C1047 1.355 . S
C1046 C1048 1.415 . S
C1047 C1046 1.355 . S
C1047 C1049 1.419 1_554 S
C1048 C1046 1.415 . S
C1048 C1053 1.425 1_455 S
C1048 C1055 1.409 1_455 S
C1049 H1041 0.930 . S
C1049 C1047 1.419 1_556 S
C1049 C1050 1.362 1_456 S
C1050 H1042 0.930 1_554 S
C1050 C1049 1.362 1_654 S
C1050 C1053 1.409 . S
C1051 H1043 0.930 . S
C1051 C1052 1.355 . S
C1051 C1053 1.415 . S
C1052 C1051 1.355 . S
C1052 C1054 1.419 . S
C1053 C1048 1.425 1_655 S
C1053 C1050 1.409 . S
C1053 C1051 1.415 . S
C1054 H1044 0.930 . S
C1054 C1052 1.419 . S
C1054 C1055 1.362 . S
C1055 H1045 0.930 1_655 S
C1055 C1048 1.409 1_655 S
C1055 C1054 1.362 . S
H1056 C1062 0.930 . S
H1057 C1065 0.930 . S
H1058 C1066 0.930 . S
H1059 C1067 0.930 . S
H1060 C1070 0.930 . S
H1061 C1071 0.930 . S
C1062 H1056 0.930 . S
C1062 C1063 1.355 . S
C1062 C1064 1.415 . S
C1063 C1062 1.355 . S
C1063 C1065 1.419 . S
C1064 C1062 1.415 . S
C1064 C1069 1.425 . S
C1064 C1071 1.409 . S
C1065 H1057 0.930 . S
C1065 C1063 1.419 . S
C1065 C1066 1.362 . S
C1066 H1058 0.930 . S
C1066 C1065 1.362 . S
C1066 C1069 1.409 . S
C1067 H1059 0.930 . S
C1067 C1068 1.355 . S
C1067 C1069 1.415 . S
C1068 C1067 1.355 . S
C1068 C1070 1.419 . S
C1069 C1064 1.425 . S
C1069 C1066 1.409 . S
C1069 C1067 1.415 . S
C1070 H1060 0.930 . S
C1070 C1068 1.419 . S
C1070 C1071 1.362 . S
C1071 H1061 0.930 . S
C1071 C1064 1.409 . S
C1071 C1070 1.362 . S
H1072 C1078 0.930 . S
H1073 C1081 0.930 . S
H1074 C1082 0.930 . S
H1075 C1083 0.930 . S
H1076 C1086 0.930 . S
H1077 C1087 0.930 . S
C1078 H1072 0.930 . S
C1078 C1079 1.355 . S
C1078 C1080 1.432 . S
C1079 C1078 1.355 . S
C1079 C1081 1.419 . S
C1080 C1078 1.432 . S
C1080 C1085 1.431 . S
C1080 C1087 1.387 1_455 S
C1081 H1073 0.930 . S
C1081 C1079 1.419 . S
C1081 C1082 1.362 . S
C1082 H1074 0.930 . S
C1082 C1081 1.362 . S
C1082 C1085 1.409 . S
C1083 H1075 0.930 . S
C1083 C1084 1.355 . S
C1083 C1085 1.415 1_655 S
C1084 C1083 1.355 . S
C1084 C1086 1.419 . S
C1085 C1080 1.431 . S
C1085 C1082 1.409 . S
C1085 C1083 1.415 1_455 S
C1086 H1076 0.930 . S
C1086 C1084 1.419 . S
C1086 C1087 1.362 . S
C1087 H1077 0.930 . S
C1087 C1080 1.387 1_655 S
C1087 C1086 1.362 . S
H1088 C1094 0.930 . S
H1089 C1097 0.930 . S
H1090 C1098 0.930 . S
H1091 C1099 0.930 . S
H1092 C1102 0.930 . S
H1093 C1103 0.930 . S
C1094 H1088 0.930 . S
C1094 C1095 1.355 . S
C1094 C1096 1.415 . S
C1095 C1094 1.355 . S
C1095 C1097 1.419 . S
C1096 C1094 1.415 . S
C1096 C1101 1.425 . S
C1096 C1103 1.409 . S
C1097 H1089 0.930 . S
C1097 C1095 1.419 . S
C1097 C1098 1.362 . S
C1098 H1090 0.930 . S
C1098 C1097 1.362 . S
C1098 C1101 1.409 . S
C1099 H1091 0.930 . S
C1099 C1100 1.355 . S
C1099 C1101 1.415 . S
C1100 C1099 1.355 . S
C1100 C1102 1.419 . S
C1101 C1096 1.425 . S
C1101 C1098 1.409 . S
C1101 C1099 1.415 . S
C1102 H1092 0.930 . S
C1102 C1100 1.419 . S
C1102 C1103 1.362 . S
C1103 H1093 0.930 . S
C1103 C1096 1.409 . S
C1103 C1102 1.362 . S
H1104 C1110 0.930 . S
H1105 C1113 0.930 . S
H1106 C1114 0.930 1_556 S
H1107 C1115 0.930 1_556 S
H1108 C1118 0.930 . S
H1109 C1119 0.930 . S
C1110 H1104 0.930 . S
C1110 C1111 1.355 . S
C1110 C1112 1.415 . S
C1111 C1110 1.355 . S
C1111 C1113 1.419 . S
C1112 C1110 1.415 . S
C1112 C1117 1.425 . S
C1112 C1119 1.409 . S
C1113 H1105 0.930 . S
C1113 C1111 1.419 . S
C1113 C1114 1.362 . S
C1114 H1106 0.930 1_554 S
C1114 C1113 1.362 . S
C1114 C1117 1.409 . S
C1115 H1107 0.930 1_554 S
C1115 C1116 1.355 . S
C1115 C1117 1.415 . S
C1116 C1115 1.355 . S
C1116 C1118 1.419 . S
C1117 C1112 1.425 . S
C1117 C1114 1.409 . S
C1117 C1115 1.415 . S
C1118 H1108 0.930 . S
C1118 C1116 1.419 . S
C1118 C1119 1.362 . S
C1119 H1109 0.930 . S
C1119 C1112 1.409 . S
C1119 C1118 1.362 . S
H1120 C1126 0.930 . S
H1121 C1129 0.930 . S
H1122 C1130 0.930 . S
H1123 C1131 0.930 . S
H1124 C1134 0.930 . S
H1125 C1135 0.930 . S
C1126 H1120 0.930 . S
C1126 C1127 1.355 . S
C1126 C1128 1.415 . S
C1127 C1126 1.355 . S
C1127 C1129 1.419 . S
C1128 C1126 1.415 . S
C1128 C1133 1.425 . S
C1128 C1135 1.409 . S
C1129 H1121 0.930 . S
C1129 C1127 1.419 . S
C1129 C1130 1.362 . S
C1130 H1122 0.930 . S
C1130 C1129 1.362 . S
C1130 C1133 1.409 . S
C1131 H1123 0.930 . S
C1131 C1132 1.355 . S
C1131 C1133 1.415 . S
C1132 C1131 1.355 . S
C1132 C1134 1.419 . S
C1133 C1128 1.425 . S
C1133 C1130 1.409 . S
C1133 C1131 1.415 . S
C1134 H1124 0.930 . S
C1134 C1132 1.419 . S
C1134 C1135 1.362 . S
C1135 H1125 0.930 . S
C1135 C1128 1.409 . S
C1135 C1134 1.362 . S
H1136 C1142 0.930 . S
H1137 C1145 0.930 . S
H1138 C1146 0.930 . S
H1139 C1147 0.930 . S
H1140 C1150 0.930 . S
H1141 C1151 0.930 . S
C1142 H1136 0.930 . S
C1142 C1143 1.355 . S
C1142 C1144 1.415 . S
C1143 C1142 1.355 . S
C1143 C1145 1.419 . S
C1144 C1142 1.415 . S
C1144 C1149 1.425 . S
C1144 C1151 1.409 . S
C1145 H1137 0.930 . S
C1145 C1143 1.419 . S
C1145 C1146 1.362 . S
C1146 H1138 0.930 . S
C1146 C1145 1.362 . S
C1146 C1149 1.409 . S
C1147 H1139 0.930 . S
C1147 C1148 1.355 . S
C1147 C1149 1.415 . S
C1148 C1147 1.355 . S
C1148 C1150 1.419 . S
C1149 C1144 1.425 . S
C1149 C1146 1.409 . S
C1149 C1147 1.415 . S
C1150 H1140 0.930 . S
C1150 C1148 1.419 . S
C1150 C1151 1.362 . S
C1151 H1141 0.930 . S
C1151 C1144 1.409 . S
C1151 C1150 1.362 . S
H1152 C1158 0.930 . S
H1153 C1161 0.930 . S
H1154 C1162 0.930 . S
H1155 C1163 0.930 . S
H1156 C1166 0.930 . S
H1157 C1167 0.930 . S
C1158 H1152 0.930 . S
C1158 C1159 1.355 . S
C1158 C1160 1.415 . S
C1159 C1158 1.355 . S
C1159 C1161 1.419 . S
C1160 C1158 1.415 . S
C1160 C1165 1.425 . S
C1160 C1167 1.409 . S
C1161 H1153 0.930 . S
C1161 C1159 1.419 . S
C1161 C1162 1.362 . S
C1162 H1154 0.930 . S
C1162 C1161 1.362 . S
C1162 C1165 1.409 . S
C1163 H1155 0.930 . S
C1163 C1164 1.355 . S
C1163 C1165 1.415 . S
C1164 C1163 1.355 . S
C1164 C1166 1.419 . S
C1165 C1160 1.425 . S
C1165 C1162 1.409 . S
C1165 C1163 1.415 . S
C1166 H1156 0.930 . S
C1166 C1164 1.419 . S
C1166 C1167 1.362 . S
C1167 H1157 0.930 . S
C1167 C1160 1.409 . S
C1167 C1166 1.362 . S
H1168 C1174 0.930 . S
H1169 C1177 0.930 . S
H1170 C1178 0.930 1_554 S
H1171 C1179 0.930 1_554 S
H1172 C1182 0.930 . S
H1173 C1183 0.930 . S
C1174 H1168 0.930 . S
C1174 C1175 1.355 . S
C1174 C1176 1.454 . S
C1175 C1174 1.355 . S
C1175 C1177 1.419 . S
C1176 C1174 1.454 . S
C1176 C1181 1.435 . S
C1176 C1183 1.362 1_455 S
C1177 H1169 0.930 . S
C1177 C1175 1.419 . S
C1177 C1178 1.362 . S
C1178 H1170 0.930 1_556 S
C1178 C1177 1.362 . S
C1178 C1181 1.409 . S
C1179 H1171 0.930 1_556 S
C1179 C1180 1.355 . S
C1179 C1181 1.415 1_655 S
C1180 C1179 1.355 . S
C1180 C1182 1.419 . S
C1181 C1176 1.435 . S
C1181 C1178 1.409 . S
C1181 C1179 1.415 1_455 S
C1182 H1172 0.930 . S
C1182 C1180 1.419 . S
C1182 C1183 1.362 . S
C1183 H1173 0.930 . S
C1183 C1176 1.362 1_655 S
C1183 C1182 1.362 . S
H1184 C1190 0.930 . S
H1185 C1193 0.930 . S
H1186 C1194 0.930 . S
H1187 C1195 0.930 . S
H1188 C1198 0.930 . S
H1189 C1199 0.930 . S
C1190 H1184 0.930 . S
C1190 C1191 1.355 . S
C1190 C1192 1.415 . S
C1191 C1190 1.355 . S
C1191 C1193 1.419 . S
C1192 C1190 1.415 . S
C1192 C1197 1.425 . S
C1192 C1199 1.409 . S
C1193 H1185 0.930 . S
C1193 C1191 1.419 . S
C1193 C1194 1.362 . S
C1194 H1186 0.930 . S
C1194 C1193 1.362 . S
C1194 C1197 1.409 . S
C1195 H1187 0.930 . S
C1195 C1196 1.355 . S
C1195 C1197 1.415 . S
C1196 C1195 1.355 . S
C1196 C1198 1.419 . S
C1197 C1192 1.425 . S
C1197 C1194 1.409 . S
C1197 C1195 1.415 . S
C1198 H1188 0.930 . S
C1198 C1196 1.419 . S
C1198 C1199 1.362 . S
C1199 H1189 0.930 . S
C1199 C1192 1.409 . S
C1199 C1198 1.362 . S
H1200 C1206 0.930 . S
H1201 C1209 0.930 . S
H1202 C1210 0.930 . S
H1203 C1211 0.930 1_554 S
H1204 C1214 0.930 . S
H1205 C1215 0.930 . S
C1206 H1200 0.930 . S
C1206 C1207 1.355 . S
C1206 C1208 1.415 . S
C1207 C1206 1.355 . S
C1207 C1209 1.419 . S
C1208 C1206 1.415 . S
C1208 C1213 1.425 . S
C1208 C1215 1.409 . S
C1209 H1201 0.930 . S
C1209 C1207 1.419 . S
C1209 C1210 1.362 . S
C1210 H1202 0.930 . S
C1210 C1209 1.362 . S
C1210 C1213 1.409 . S
C1211 H1203 0.930 1_556 S
C1211 C1212 1.355 . S
C1211 C1213 1.415 . S
C1212 C1211 1.355 . S
C1212 C1214 1.419 . S
C1213 C1208 1.425 . S
C1213 C1210 1.409 . S
C1213 C1211 1.415 . S
C1214 H1204 0.930 . S
C1214 C1212 1.419 . S
C1214 C1215 1.362 . S
C1215 H1205 0.930 . S
C1215 C1208 1.409 . S
C1215 C1214 1.362 . S
H1216 C1222 0.930 . S
H1217 C1225 0.930 . S
H1218 C1226 0.930 . S
H1219 C1227 0.930 . S
H1220 C1230 0.930 . S
H1221 C1231 0.930 . S
C1222 H1216 0.930 . S
C1222 C1223 1.355 . S
C1222 C1224 1.415 . S
C1223 C1222 1.355 . S
C1223 C1225 1.419 . S
C1224 C1222 1.415 . S
C1224 C1229 1.425 . S
C1224 C1231 1.409 . S
C1225 H1217 0.930 . S
C1225 C1223 1.419 . S
C1225 C1226 1.362 . S
C1226 H1218 0.930 . S
C1226 C1225 1.362 . S
C1226 C1229 1.409 . S
C1227 H1219 0.930 . S
C1227 C1228 1.355 . S
C1227 C1229 1.415 . S
C1228 C1227 1.355 . S
C1228 C1230 1.419 . S
C1229 C1224 1.425 . S
C1229 C1226 1.409 . S
C1229 C1227 1.415 . S
C1230 H1220 0.930 . S
C1230 C1228 1.419 . S
C1230 C1231 1.362 . S
C1231 H1221 0.930 . S
C1231 C1224 1.409 . S
C1231 C1230 1.362 . S
H1232 C1238 0.930 . S
H1233 C1241 0.930 . S
H1234 C1242 0.930 . S
H1235 C1243 0.930 . S
H1236 C1246 0.930 . S
H1237 C1247 0.930 . S
C1238 H1232 0.930 . S
C1238 C1239 1.355 . S
C1238 C1240 1.415 1_655 S
C1239 C1238 1.355 . S
C1239 C1241 1.419 . S
C1240 C1238 1.415 1_455 S
C1240 C1245 1.425 . S
C1240 C1247 1.409 . S
C1241 H1233 0.930 . S
C1241 C1239 1.419 . S
C1241 C1242 1.362 . S
C1242 H1234 0.930 . S
C1242 C1241 1.362 . S
C1242 C1245 1.409 1_655 S
C1243 H1235 0.930 . S
C1243 C1244 1.355 . S
C1243 C1245 1.415 . S
C1244 C1243 1.355 . S
C1244 C1246 1.419 . S
C1245 C1240 1.425 . S
C1245 C1242 1.409 1_455 S
C1245 C1243 1.415 . S
C1246 H1236 0.930 . S
C1246 C1244 1.419 . S
C1246 C1247 1.362 . S
C1247 H1237 0.930 . S
C1247 C1240 1.409 . S
C1247 C1246 1.362 . S
H1248 C1254 0.930 . S
H1249 C1257 0.930 . S
H1250 C1258 0.930 . S
H1251 C1259 0.930 . S
H1252 C1262 0.939 . S
H1253 C1263 0.930 . S
C1254 H1248 0.930 . S
C1254 C1255 1.355 . S
C1254 C1256 1.415 . S
C1255 C1254 1.355 . S
C1255 C1257 1.419 . S
C1256 C1254 1.415 . S
C1256 C1261 1.425 . S
C1256 C1263 1.409 . S
C1257 H1249 0.930 . S
C1257 C1255 1.419 . S
C1257 C1258 1.362 . S
C1258 H1250 0.930 . S
C1258 C1257 1.362 . S
C1258 C1261 1.409 . S
C1259 H1251 0.930 . S
C1259 C1260 1.355 . S
C1259 C1261 1.415 . S
C1260 C1259 1.355 . S
C1260 C1262 1.419 . S
C1261 C1256 1.425 . S
C1261 C1258 1.409 . S
C1261 C1259 1.415 . S
C1262 H1252 0.939 . S
C1262 C1260 1.419 . S
C1262 C1263 1.362 . S
C1263 H1253 0.930 . S
C1263 C1256 1.409 . S
C1263 C1262 1.362 . S
H1264 C1270 0.930 . S
H1265 C1273 0.930 1_556 S
H1266 C1274 0.930 . S
H1267 C1275 0.930 . S
H1268 C1278 0.930 . S
H1269 C1279 0.968 . S
C1270 H1264 0.930 . S
C1270 C1271 1.355 . S
C1270 C1272 1.415 . S
C1271 C1270 1.355 . S
C1271 C1273 1.419 . S
C1272 C1270 1.415 . S
C1272 C1277 1.425 1_655 S
C1272 C1279 1.420 . S
C1273 H1265 0.930 1_554 S
C1273 C1271 1.419 . S
C1273 C1274 1.362 1_655 S
C1274 H1266 0.930 . S
C1274 C1273 1.362 1_455 S
C1274 C1277 1.409 . S
C1275 H1267 0.930 . S
C1275 C1276 1.355 . S
C1275 C1277 1.415 . S
C1276 C1275 1.355 . S
C1276 C1278 1.419 . S
C1277 C1272 1.425 1_455 S
C1277 C1274 1.409 . S
C1277 C1275 1.415 . S
C1278 H1268 0.930 . S
C1278 C1276 1.419 . S
C1278 C1279 1.316 1_455 S
C1279 H1269 0.968 . S
C1279 C1272 1.420 . S
C1279 C1278 1.316 1_655 S
H1280 C1286 0.930 . S
H1281 C1289 0.930 . S
H1282 C1290 0.930 . S
H1283 C1291 0.930 . S
H1284 C1294 0.930 . S
H1285 C1295 0.930 . S
C1286 H1280 0.930 . S
C1286 C1287 1.355 . S
C1286 C1288 1.415 . S
C1287 C1286 1.355 . S
C1287 C1289 1.419 . S
C1288 C1286 1.415 . S
C1288 C1293 1.425 . S
C1288 C1295 1.409 . S
C1289 H1281 0.930 . S
C1289 C1287 1.419 . S
C1289 C1290 1.362 . S
C1290 H1282 0.930 . S
C1290 C1289 1.362 . S
C1290 C1293 1.409 . S
C1291 H1283 0.930 . S
C1291 C1292 1.355 . S
C1291 C1293 1.415 . S
C1292 C1291 1.355 . S
C1292 C1294 1.419 . S
C1293 C1288 1.425 . S
C1293 C1290 1.409 . S
C1293 C1291 1.415 . S
C1294 H1284 0.930 . S
C1294 C1292 1.419 . S
C1294 C1295 1.362 . S
C1295 H1285 0.930 . S
C1295 C1288 1.409 . S
C1295 C1294 1.362 . S
H1296 C1302 0.930 . S
H1297 C1305 0.930 . S
H1298 C1306 0.930 . S
H1299 C1307 0.930 . S
H1300 C1310 0.930 . S
H1301 C1311 0.930 . S
C1302 H1296 0.930 . S
C1302 C1303 1.355 . S
C1302 C1304 1.415 . S
C1303 C1302 1.355 . S
C1303 C1305 1.419 . S
C1304 C1302 1.415 . S
C1304 C1309 1.425 . S
C1304 C1311 1.409 . S
C1305 H1297 0.930 . S
C1305 C1303 1.419 . S
C1305 C1306 1.362 . S
C1306 H1298 0.930 . S
C1306 C1305 1.362 . S
C1306 C1309 1.409 . S
C1307 H1299 0.930 . S
C1307 C1308 1.355 . S
C1307 C1309 1.415 . S
C1308 C1307 1.355 . S
C1308 C1310 1.419 . S
C1309 C1304 1.425 . S
C1309 C1306 1.409 . S
C1309 C1307 1.415 . S
C1310 H1300 0.930 . S
C1310 C1308 1.419 . S
C1310 C1311 1.362 . S
C1311 H1301 0.930 . S
C1311 C1304 1.409 . S
C1311 C1310 1.362 . S
H1312 C1318 0.930 . S
H1313 C1321 0.930 . S
H1314 C1322 0.930 . S
H1315 C1323 0.930 . S
H1316 C1326 0.930 . S
H1317 C1327 0.930 . S
C1318 H1312 0.930 . S
C1318 C1319 1.355 . S
C1318 C1320 1.415 . S
C1319 C1318 1.355 . S
C1319 C1321 1.419 . S
C1320 C1318 1.415 . S
C1320 C1325 1.425 . S
C1320 C1327 1.409 . S
C1321 H1313 0.930 . S
C1321 C1319 1.419 . S
C1321 C1322 1.362 . S
C1322 H1314 0.930 . S
C1322 C1321 1.362 . S
C1322 C1325 1.409 . S
C1323 H1315 0.930 . S
C1323 C1324 1.355 . S
C1323 C1325 1.415 . S
C1324 C1323 1.355 . S
C1324 C1326 1.419 . S
C1325 C1320 1.425 . S
C1325 C1322 1.409 . S
C1325 C1323 1.415 . S
C1326 H1316 0.930 . S
C1326 C1324 1.419 . S
C1326 C1327 1.362 . S
C1327 H1317 0.930 . S
C1327 C1320 1.409 . S
C1327 C1326 1.362 . S
H1328 C1334 0.930 . S
H1329 C1337 0.930 . S
H1330 C1338 0.930 1_556 S
H1331 C1339 0.930 1_556 S
H1332 C1342 0.930 . S
H1333 C1343 0.930 . S
C1334 H1328 0.930 . S
C1334 C1335 1.355 . S
C1334 C1336 1.415 . S
C1335 C1334 1.355 . S
C1335 C1337 1.419 . S
C1336 C1334 1.415 . S
C1336 C1341 1.425 . S
C1336 C1343 1.409 . S
C1337 H1329 0.930 . S
C1337 C1335 1.419 . S
C1337 C1338 1.362 . S
C1338 H1330 0.930 1_554 S
C1338 C1337 1.362 . S
C1338 C1341 1.409 . S
C1339 H1331 0.930 1_554 S
C1339 C1340 1.355 . S
C1339 C1341 1.415 . S
C1340 C1339 1.355 . S
C1340 C1342 1.419 . S
C1341 C1336 1.425 . S
C1341 C1338 1.409 . S
C1341 C1339 1.415 . S
C1342 H1332 0.930 . S
C1342 C1340 1.419 . S
C1342 C1343 1.362 . S
C1343 H1333 0.930 . S
C1343 C1336 1.409 . S
C1343 C1342 1.362 . S
H1344 C1350 0.930 1_554 S
H1345 C1353 0.930 . S
H1346 C1354 0.930 . S
H1347 C1355 0.930 . S
H1348 C1358 0.930 . S
H1349 C1359 0.930 . S
C1350 H1344 0.930 1_556 S
C1350 C1351 1.355 . S
C1350 C1352 1.415 . S
C1351 C1350 1.355 . S
C1351 C1353 1.419 . S
C1352 C1350 1.415 . S
C1352 C1357 1.425 . S
C1352 C1359 1.409 . S
C1353 H1345 0.930 . S
C1353 C1351 1.419 . S
C1353 C1354 1.362 . S
C1354 H1346 0.930 . S
C1354 C1353 1.362 . S
C1354 C1357 1.409 . S
C1355 H1347 0.930 . S
C1355 C1356 1.355 . S
C1355 C1357 1.415 . S
C1356 C1355 1.355 . S
C1356 C1358 1.419 . S
C1357 C1352 1.425 . S
C1357 C1354 1.409 . S
C1357 C1355 1.415 . S
C1358 H1348 0.930 . S
C1358 C1356 1.419 . S
C1358 C1359 1.362 . S
C1359 H1349 0.930 . S
C1359 C1352 1.409 . S
C1359 C1358 1.362 . S
H1360 C1366 0.930 . S
H1361 C1369 0.930 . S
H1362 C1370 0.930 . S
H1363 C1371 0.930 . S
H1364 C1374 0.930 . S
H1365 C1375 0.949 . S
C1366 H1360 0.930 . S
C1366 C1367 1.355 . S
C1366 C1368 1.415 . S
C1367 C1366 1.355 . S
C1367 C1369 1.419 . S
C1368 C1366 1.415 . S
C1368 C1373 1.425 1_455 S
C1368 C1375 1.415 . S
C1369 H1361 0.930 . S
C1369 C1367 1.419 . S
C1369 C1370 1.362 1_455 S
C1370 H1362 0.930 . S
C1370 C1369 1.362 1_655 S
C1370 C1373 1.409 . S
C1371 H1363 0.930 . S
C1371 C1372 1.355 . S
C1371 C1373 1.415 . S
C1372 C1371 1.355 . S
C1372 C1374 1.419 . S
C1373 C1368 1.425 1_655 S
C1373 C1370 1.409 . S
C1373 C1371 1.415 . S
C1374 H1364 0.930 . S
C1374 C1372 1.419 . S
C1374 C1375 1.339 1_655 S
C1375 H1365 0.949 . S
C1375 C1368 1.415 . S
C1375 C1374 1.339 1_455 S
H1376 C1382 0.930 . S
H1377 C1385 0.930 . S
H1378 C1386 0.930 . S
H1379 C1387 0.930 . S
H1380 C1390 0.930 . S
H1381 C1391 0.930 . S
C1382 H1376 0.930 . S
C1382 C1383 1.355 . S
C1382 C1384 1.415 . S
C1383 C1382 1.355 . S
C1383 C1385 1.419 . S
C1384 C1382 1.415 . S
C1384 C1389 1.425 . S
C1384 C1391 1.409 . S
C1385 H1377 0.930 . S
C1385 C1383 1.419 . S
C1385 C1386 1.362 . S
C1386 H1378 0.930 . S
C1386 C1385 1.362 . S
C1386 C1389 1.409 . S
C1387 H1379 0.930 . S
C1387 C1388 1.355 . S
C1387 C1389 1.415 . S
C1388 C1387 1.355 . S
C1388 C1390 1.419 . S
C1389 C1384 1.425 . S
C1389 C1386 1.409 . S
C1389 C1387 1.415 . S
C1390 H1380 0.930 . S
C1390 C1388 1.419 . S
C1390 C1391 1.362 . S
C1391 H1381 0.930 . S
C1391 C1384 1.409 . S
C1391 C1390 1.362 . S
H1392 C1398 0.930 . S
H1393 C1401 0.930 . S
H1394 C1402 0.930 . S
H1395 C1403 0.930 . S
H1396 C1406 0.930 . S
H1397 C1407 0.930 . S
C1398 H1392 0.930 . S
C1398 C1399 1.355 . S
C1398 C1400 1.415 . S
C1399 C1398 1.355 . S
C1399 C1401 1.419 . S
C1400 C1398 1.415 . S
C1400 C1405 1.425 . S
C1400 C1407 1.409 1_655 S
C1401 H1393 0.930 . S
C1401 C1399 1.419 . S
C1401 C1402 1.362 . S
C1402 H1394 0.930 . S
C1402 C1401 1.362 . S
C1402 C1405 1.409 . S
C1403 H1395 0.930 . S
C1403 C1404 1.355 . S
C1403 C1405 1.415 1_455 S
C1404 C1403 1.355 . S
C1404 C1406 1.419 . S
C1405 C1400 1.425 . S
C1405 C1402 1.409 . S
C1405 C1403 1.415 1_655 S
C1406 H1396 0.930 . S
C1406 C1404 1.419 . S
C1406 C1407 1.362 . S
C1407 H1397 0.930 . S
C1407 C1400 1.409 1_455 S
C1407 C1406 1.362 . S
H1408 C1414 0.930 . S
H1409 C1417 0.930 . S
H1410 C1418 0.930 . S
H1411 C1419 0.930 . S
H1412 C1422 0.930 . S
H1413 C1423 0.930 . S
C1414 H1408 0.930 . S
C1414 C1415 1.355 . S
C1414 C1416 1.415 . S
C1415 C1414 1.355 . S
C1415 C1417 1.419 . S
C1416 C1414 1.415 . S
C1416 C1421 1.425 . S
C1416 C1423 1.409 . S
C1417 H1409 0.930 . S
C1417 C1415 1.419 . S
C1417 C1418 1.362 . S
C1418 H1410 0.930 . S
C1418 C1417 1.362 . S
C1418 C1421 1.409 . S
C1419 H1411 0.930 . S
C1419 C1420 1.355 . S
C1419 C1421 1.415 . S
C1420 C1419 1.355 . S
C1420 C1422 1.419 . S
C1421 C1416 1.425 . S
C1421 C1418 1.409 . S
C1421 C1419 1.415 . S
C1422 H1412 0.930 . S
C1422 C1420 1.419 . S
C1422 C1423 1.362 . S
C1423 H1413 0.930 . S
C1423 C1416 1.409 . S
C1423 C1422 1.362 . S
H1424 C1430 0.930 . S
H1425 C1433 0.930 . S
H1426 C1434 0.930 . S
H1427 C1435 0.930 . S
H1428 C1438 0.930 . S
H1429 C1439 0.930 . S
C1430 H1424 0.930 . S
C1430 C1431 1.355 . S
C1430 C1432 1.415 . S
C1431 C1430 1.355 . S
C1431 C1433 1.419 . S
C1432 C1430 1.415 . S
C1432 C1437 1.425 . S
C1432 C1439 1.409 . S
C1433 H1425 0.930 . S
C1433 C1431 1.419 . S
C1433 C1434 1.362 . S
C1434 H1426 0.930 . S
C1434 C1433 1.362 . S
C1434 C1437 1.409 . S
C1435 H1427 0.930 . S
C1435 C1436 1.355 . S
C1435 C1437 1.415 . S
C1436 C1435 1.355 . S
C1436 C1438 1.419 . S
C1437 C1432 1.425 . S
C1437 C1434 1.409 . S
C1437 C1435 1.415 . S
C1438 H1428 0.930 . S
C1438 C1436 1.419 . S
C1438 C1439 1.362 . S
C1439 H1429 0.930 . S
C1439 C1432 1.409 . S
C1439 C1438 1.362 . S
C423 C88 1.341 . S
C428 C10 1.273 . S
C439 C23 1.328 . S
C444 C101 1.291 . S
C455 C62 1.288 . S
C460 C36 1.330 . S
C471 C49 1.271 . S
C476 C75 1.343 . S
C487 C192 1.309 . S
C492 C114 1.303 . S
C503 C127 1.329 . S
C508 C205 1.284 . S
C519 C166 1.302 . S
C524 C140 1.317 . S
C535 C153 1.334 . S
C540 C179 1.284 . S
C551 C218 1.316 . S
C556 C296 1.303 . S
C567 C309 1.338 . S
C572 C231 1.279 . S
C583 C244 1.273 . S
C588 C270 1.341 . S
C599 C283 1.335 . S
C604 C257 1.278 . S
C615 C400 1.284 . S
C620 C322 1.333 . S
C631 C413 1.343 . S
C636 C335 1.273 . S
C647 C374 1.326 . S
C652 C348 1.287 . S
C663 C361 1.344 . S
C668 C387 1.271 . S
C679 C91 1.477 . S
C684 C0 1.446 . S
C695 C52 1.491 . S
C700 C13 1.458 . S
C711 C65 1.512 . S
C716 C26 1.485 . S
C727 C78 1.518 . S
C732 C39 1.513 . S
C743 C195 1.518 . S
C748 C104 1.515 . S
C759 C156 1.441 . S
C764 C117 1.470 . S
C775 C169 1.518 . S
C780 C130 1.513 . S
C791 C143 1.430 1_554 S
C796 C182 1.441 . S
C807 C299 1.470 . S
C812 C208 1.441 . S
C823 C221 1.478 . S
C828 C260 1.447 . S
C839 C234 1.519 . S
C844 C273 1.513 . S
C855 C286 1.434 . S
C860 C247 1.452 . S
C871 C403 1.441 . S
C876 C312 1.435 . S
C887 C325 1.433 1_554 S
C892 C364 1.436 . S
C903 C338 1.495 . S
C908 C377 1.462 . S
C919 C390 1.434 . S
C924 C351 1.452 . S
C935 C8 1.166 . S
C940 C395 1.124 . S
C951 C200 1.075 . S
C956 C21 1.081 . S
C967 C369 1.033 . S
C972 C34 1.138 . S
C983 C174 1.128 . S
C988 C47 1.142 1_556 S
C999 C343 1.111 . S
C1004 C60 1.169 . S
C1015 C73 1.117 . S
C1020 C148 1.006 . S
C1031 C86 1.107 . S
C1036 C317 1.104 . S
C1047 C99 1.045 1_554 S
C1052 C122 1.005 . S
C1063 C112 1.088 . S
C1068 C291 0.979 . S
C1079 C96 1.053 . S
C1084 C125 1.149 . S
C1095 C265 1.091 . S
C1100 C138 1.094 . S
C1111 C70 1.056 . S
C1116 C151 1.151 1_554 S
C1127 C239 1.020 . S
C1132 C164 1.050 . S
C1143 C44 1.006 . S
C1148 C177 1.117 . S
C1159 C190 1.108 . S
C1164 C213 1.106 . S
C1175 C18 1.074 . S
C1180 C203 1.159 1_556 S
C1191 C187 0.967 . S
C1196 C216 1.057 . S
C1207 C408 1.129 . S
C1212 C229 1.159 1_556 S
C1223 C242 1.104 . S
C1228 C161 0.992 . S
C1239 C255 1.165 . S
C1244 C382 1.090 . S
C1255 C268 1.053 . S
C1260 C135 0.969 . S
C1271 C281 1.098 1_554 S
C1276 C356 1.095 . S
C1287 C294 1.056 . S
C1292 C109 0.968 . S
C1303 C307 1.108 . S
C1308 C330 0.997 . S
C1319 C83 1.130 . S
C1324 C320 1.155 . S
C1335 C304 1.056 . S
C1340 C333 1.151 1_554 S
C1351 C57 1.047 . S
C1356 C346 1.146 . S
C1367 C359 1.044 . S
C1372 C278 0.981 . S
C1383 C372 1.104 . S
C1388 C31 1.101 . S
C1399 C252 0.998 . S
C1404 C385 1.110 1_556 S
C1415 C398 1.048 . S
C1420 C5 1.015 . S
C1431 C411 1.134 . S
C1436 C226 1.124 . S
