# Generated by pormake.
# Topology cag, (4)-cn, num edge types: 1
# Building blocks:
#     Node 0, Type 0, BuildingBlock: QUQFOY_clean_sbu_1, # of connection points: 4
#     Node 1, Type 0, BuildingBlock: QUQFOY_clean_sbu_1, # of connection points: 4
#     Node 2, Type 0, BuildingBlock: QUQFOY_clean_sbu_1, # of connection points: 4
#     Node 3, Type 0, BuildingBlock: QUQFOY_clean_sbu_1, # of connection points: 4
#     Node 4, Type 0, BuildingBlock: QUQFOY_clean_sbu_1, # of connection points: 4
#     Node 5, Type 0, BuildingBlock: QUQFOY_clean_sbu_1, # of connection points: 4
#     Node 6, Type 0, BuildingBlock: QUQFOY_clean_sbu_1, # of connection points: 4
#     Node 7, Type 0, BuildingBlock: QUQFOY_clean_sbu_1, # of connection points: 4
#     Node 8, Type 0, BuildingBlock: QUQFOY_clean_sbu_1, # of connection points: 4
#     Node 9, Type 0, BuildingBlock: QUQFOY_clean_sbu_1, # of connection points: 4
#     Node 10, Type 0, BuildingBlock: QUQFOY_clean_sbu_1, # of connection points: 4
#     Node 11, Type 0, BuildingBlock: QUQFOY_clean_sbu_1, # of connection points: 4
#     Node 12, Type 0, BuildingBlock: QUQFOY_clean_sbu_1, # of connection points: 4
#     Node 13, Type 0, BuildingBlock: QUQFOY_clean_sbu_1, # of connection points: 4
#     Node 14, Type 0, BuildingBlock: QUQFOY_clean_sbu_1, # of connection points: 4
#     Node 15, Type 0, BuildingBlock: QUQFOY_clean_sbu_1, # of connection points: 4
#     Edge 16, Type (0, 0), BuildingBlock: TEMPAE_clean_linker_10, # of connection points: 2
#     Edge 17, Type (0, 0), BuildingBlock: TEMPAE_clean_linker_10, # of connection points: 2
#     Edge 18, Type (0, 0), BuildingBlock: TEMPAE_clean_linker_10, # of connection points: 2
#     Edge 19, Type (0, 0), BuildingBlock: TEMPAE_clean_linker_10, # of connection points: 2
#     Edge 20, Type (0, 0), BuildingBlock: TEMPAE_clean_linker_10, # of connection points: 2
#     Edge 21, Type (0, 0), BuildingBlock: TEMPAE_clean_linker_10, # of connection points: 2
#     Edge 22, Type (0, 0), BuildingBlock: TEMPAE_clean_linker_10, # of connection points: 2
#     Edge 23, Type (0, 0), BuildingBlock: TEMPAE_clean_linker_10, # of connection points: 2
#     Edge 24, Type (0, 0), BuildingBlock: TEMPAE_clean_linker_10, # of connection points: 2
#     Edge 25, Type (0, 0), BuildingBlock: TEMPAE_clean_linker_10, # of connection points: 2
#     Edge 26, Type (0, 0), BuildingBlock: TEMPAE_clean_linker_10, # of connection points: 2
#     Edge 27, Type (0, 0), BuildingBlock: TEMPAE_clean_linker_10, # of connection points: 2
#     Edge 28, Type (0, 0), BuildingBlock: TEMPAE_clean_linker_10, # of connection points: 2
#     Edge 29, Type (0, 0), BuildingBlock: TEMPAE_clean_linker_10, # of connection points: 2
#     Edge 30, Type (0, 0), BuildingBlock: TEMPAE_clean_linker_10, # of connection points: 2
#     Edge 31, Type (0, 0), BuildingBlock: TEMPAE_clean_linker_10, # of connection points: 2
#     Edge 32, Type (0, 0), BuildingBlock: TEMPAE_clean_linker_10, # of connection points: 2
#     Edge 33, Type (0, 0), BuildingBlock: TEMPAE_clean_linker_10, # of connection points: 2
#     Edge 34, Type (0, 0), BuildingBlock: TEMPAE_clean_linker_10, # of connection points: 2
#     Edge 35, Type (0, 0), BuildingBlock: TEMPAE_clean_linker_10, # of connection points: 2
#     Edge 36, Type (0, 0), BuildingBlock: TEMPAE_clean_linker_10, # of connection points: 2
#     Edge 37, Type (0, 0), BuildingBlock: TEMPAE_clean_linker_10, # of connection points: 2
#     Edge 38, Type (0, 0), BuildingBlock: TEMPAE_clean_linker_10, # of connection points: 2
#     Edge 39, Type (0, 0), BuildingBlock: TEMPAE_clean_linker_10, # of connection points: 2
#     Edge 40, Type (0, 0), BuildingBlock: TEMPAE_clean_linker_10, # of connection points: 2
#     Edge 41, Type (0, 0), BuildingBlock: TEMPAE_clean_linker_10, # of connection points: 2
#     Edge 42, Type (0, 0), BuildingBlock: TEMPAE_clean_linker_10, # of connection points: 2
#     Edge 43, Type (0, 0), BuildingBlock: TEMPAE_clean_linker_10, # of connection points: 2
#     Edge 44, Type (0, 0), BuildingBlock: TEMPAE_clean_linker_10, # of connection points: 2
#     Edge 45, Type (0, 0), BuildingBlock: TEMPAE_clean_linker_10, # of connection points: 2
#     Edge 46, Type (0, 0), BuildingBlock: TEMPAE_clean_linker_10, # of connection points: 2
#     Edge 47, Type (0, 0), BuildingBlock: TEMPAE_clean_linker_10, # of connection points: 2
# Relax obj value: 0.136
# Max RMSD: 0.200
# Mean RMSD: 0.178
data_MOF--net-cag--node1-QUQFOY_clean_sbu_1--edge1-TEMPAE_clean_linker_10
_symmetry_space_group_name_H-M    P1
_symmetry_Int_Tables_number       1
_symmetry_cell_setting            triclinic
loop_
_symmetry_equiv_pos_as_xyz
'x, y, z'
_cell_length_a     42.254438
_cell_length_b     56.405828
_cell_length_c     42.344253
_cell_angle_alpha  90.010363
_cell_angle_beta   89.972452
_cell_angle_gamma 89.991295
loop_
_atom_site_label
_atom_site_type_symbol
_atom_site_fract_x
_atom_site_fract_y
_atom_site_fract_z
_atom_type_partial_charge
O0 O 0.28597 0.15828 0.12509 0.0
Cd1 Cd 0.29873 0.15765 0.07823 0.0
Cd2 Cd 0.29187 0.10856 0.08775 0.0
O3 O 0.27313 0.12048 0.12966 0.0
O4 O 0.2991 0.19159 0.06628 0.0
O5 O 0.26659 0.16552 0.04463 0.0
C6 C 0.27681 0.18705 0.0465 0.0
C7 C 0.26967 0.07465 0.06522 0.0
C8 C 0.27484 0.14123 0.1412 0.0
C9 C 0.35681 0.12785 0.07204 0.0
O10 O 0.34029 0.11041 0.08139 0.0
O11 O 0.3441 0.14792 0.06756 0.0
O12 O 0.28626 0.07371 0.09065 0.0
O13 O 0.26441 0.09523 0.05294 0.0
O14 O 0.2004 0.84054 0.62142 0.0
Cd15 Cd 0.18795 0.84318 0.57461 0.0
Cd16 Cd 0.20022 0.88957 0.58517 0.0
O17 O 0.22288 0.87571 0.62396 0.0
O18 O 0.18556 0.80978 0.56026 0.0
O19 O 0.22042 0.8354 0.54138 0.0
C20 C 0.20905 0.81414 0.54178 0.0
C21 C 0.22434 0.91978 0.55673 0.0
C22 C 0.2169 0.85568 0.63624 0.0
C23 C 0.13292 0.87587 0.57391 0.0
O24 O 0.15132 0.89132 0.58573 0.0
O25 O 0.14381 0.85607 0.56471 0.0
O26 O 0.21427 0.92319 0.58505 0.0
O27 O 0.22166 0.89886 0.5446 0.0
O28 O 0.27966 0.84246 0.88256 0.0
Cd29 Cd 0.29459 0.84494 0.92868 0.0
Cd30 Cd 0.28804 0.89317 0.91621 0.0
O31 O 0.26707 0.88014 0.87602 0.0
O32 O 0.29546 0.81159 0.94323 0.0
O33 O 0.26388 0.83864 0.96421 0.0
C34 C 0.27406 0.81706 0.96358 0.0
C35 C 0.26665 0.92714 0.93929 0.0
C36 C 0.268 0.85897 0.86582 0.0
C37 C 0.35344 0.87424 0.9295 0.0
O38 O 0.33675 0.89145 0.9197 0.0
O39 O 0.34059 0.85459 0.93631 0.0
O40 O 0.28167 0.92793 0.91286 0.0
O41 O 0.26251 0.90667 0.95231 0.0
O42 O 0.20663 0.15486 0.38591 0.0
Cd43 Cd 0.1921 0.15129 0.43204 0.0
Cd44 Cd 0.2037 0.10496 0.41959 0.0
O45 O 0.22825 0.11943 0.38238 0.0
O46 O 0.1888 0.18449 0.4471 0.0
O47 O 0.22293 0.15876 0.46695 0.0
C48 C 0.2114 0.17997 0.46655 0.0
C49 C 0.22615 0.07403 0.44798 0.0
C50 C 0.22325 0.13988 0.37092 0.0
C51 C 0.13633 0.11933 0.42859 0.0
O52 O 0.15484 0.10393 0.41679 0.0
O53 O 0.14733 0.13864 0.43937 0.0
O54 O 0.2172 0.07121 0.41917 0.0
O55 O 0.22323 0.09474 0.46068 0.0
O56 O 0.67196 0.83173 0.91489 0.0
Cd57 Cd 0.65252 0.86123 0.89349 0.0
Cd58 Cd 0.65581 0.8786 0.95263 0.0
O59 O 0.67639 0.84652 0.96292 0.0
O60 O 0.65801 0.85542 0.84764 0.0
O61 O 0.68121 0.88508 0.87276 0.0
C62 C 0.67656 0.87354 0.84681 0.0
C63 C 0.67871 0.91403 0.9685 0.0
C64 C 0.68017 0.82951 0.9436 0.0
C65 C 0.59127 0.87499 0.92384 0.0
O66 O 0.60745 0.8798 0.94825 0.0
O67 O 0.60484 0.86769 0.8989 0.0
O68 O 0.66448 0.90036 0.98835 0.0
O69 O 0.68139 0.90695 0.93959 0.0
O70 O 0.82338 0.1661 0.4025 0.0
Cd71 Cd 0.84028 0.13588 0.38075 0.0
Cd72 Cd 0.83504 0.11768 0.43978 0.0
O73 O 0.81804 0.15091 0.45021 0.0
O74 O 0.8347 0.14176 0.33496 0.0
O75 O 0.8095 0.11326 0.36061 0.0
C76 C 0.81473 0.12448 0.33451 0.0
C77 C 0.80985 0.08425 0.45983 0.0
C78 C 0.81565 0.16833 0.43135 0.0
C79 C 0.89987 0.11823 0.41047 0.0
O80 O 0.88304 0.11351 0.43448 0.0
O81 O 0.88733 0.12717 0.38597 0.0
O82 O 0.82622 0.09812 0.47764 0.0
O83 O 0.80636 0.09004 0.43051 0.0
O84 O 0.67559 0.16717 0.07225 0.0
Cd85 Cd 0.65695 0.13754 0.09404 0.0
Cd86 Cd 0.65779 0.12086 0.03436 0.0
O87 O 0.67829 0.15291 0.02381 0.0
O88 O 0.66329 0.14378 0.13967 0.0
O89 O 0.68626 0.11399 0.11463 0.0
C90 C 0.68199 0.12576 0.14047 0.0
C91 C 0.67998 0.08538 0.01768 0.0
C92 C 0.68279 0.1697 0.0433 0.0
C93 C 0.59448 0.12436 0.06562 0.0
O94 O 0.60959 0.11993 0.0404 0.0
O95 O 0.60913 0.13112 0.0902 0.0
O96 O 0.66527 0.09915 0.99831 0.0
O97 O 0.68354 0.09239 0.04653 0.0
O98 O 0.81815 0.83575 0.58354 0.0
Cd99 Cd 0.8346 0.86586 0.60588 0.0
Cd100 Cd 0.83273 0.88353 0.54623 0.0
O101 O 0.81554 0.85045 0.53534 0.0
O102 O 0.82816 0.85926 0.65138 0.0
O103 O 0.8036 0.88829 0.62625 0.0
C104 C 0.80835 0.87662 0.65208 0.0
C105 C 0.80872 0.91721 0.52559 0.0
C106 C 0.81184 0.83328 0.55439 0.0
C107 C 0.89599 0.88247 0.57843 0.0
O108 O 0.88056 0.88709 0.55348 0.0
O109 O 0.88196 0.87407 0.60247 0.0
O110 O 0.82556 0.9033 0.50824 0.0
O111 O 0.80414 0.91134 0.55474 0.0
O112 O 0.79079 0.65814 0.11662 0.0
Cd113 Cd 0.80477 0.65704 0.07012 0.0
Cd114 Cd 0.79627 0.60864 0.07964 0.0
O115 O 0.77515 0.62089 0.12023 0.0
O116 O 0.80457 0.69072 0.05686 0.0
O117 O 0.77291 0.66373 0.03588 0.0
C118 C 0.78244 0.68547 0.03719 0.0
C119 C 0.77501 0.5748 0.05602 0.0
C120 C 0.77769 0.64151 0.13202 0.0
C121 C 0.86247 0.62702 0.06731 0.0
O122 O 0.84505 0.61003 0.07649 0.0
O123 O 0.85044 0.64709 0.06114 0.0
O124 O 0.79002 0.57384 0.0824 0.0
O125 O 0.77079 0.59537 0.04331 0.0
O126 O 0.71032 0.33819 0.61172 0.0
Cd127 Cd 0.69535 0.33901 0.56553 0.0
Cd128 Cd 0.70193 0.38792 0.57463 0.0
O129 O 0.72334 0.37602 0.61522 0.0
O130 O 0.69661 0.30542 0.55193 0.0
O131 O 0.72665 0.33323 0.53044 0.0
C132 C 0.71793 0.3113 0.53167 0.0
C133 C 0.72211 0.42264 0.5523 0.0
C134 C 0.72238 0.35533 0.62699 0.0
C135 C 0.63642 0.36787 0.56276 0.0
O136 O 0.65324 0.38546 0.57103 0.0
O137 O 0.64914 0.3479 0.55746 0.0
O138 O 0.70658 0.42281 0.57842 0.0
O139 O 0.7273 0.40241 0.539 0.0
O140 O 0.79184 0.34285 0.8717 0.0
Cd141 Cd 0.8047 0.34422 0.91849 0.0
Cd142 Cd 0.79604 0.3928 0.90799 0.0
O143 O 0.77587 0.37998 0.86724 0.0
O144 O 0.80521 0.31047 0.93146 0.0
O145 O 0.77229 0.33679 0.952 0.0
C146 C 0.7825 0.31523 0.95071 0.0
C147 C 0.77422 0.42689 0.93044 0.0
C148 C 0.77887 0.35928 0.85582 0.0
C149 C 0.86193 0.37476 0.9226 0.0
O150 O 0.84472 0.39158 0.9125 0.0
O151 O 0.84986 0.3547 0.92873 0.0
O152 O 0.78971 0.42755 0.9043 0.0
O153 O 0.76978 0.40648 0.9435 0.0
O154 O 0.70955 0.65954 0.37671 0.0
Cd155 Cd 0.69582 0.65903 0.42329 0.0
Cd156 Cd 0.70282 0.60957 0.41403 0.0
O157 O 0.72294 0.62179 0.37291 0.0
O158 O 0.69601 0.69291 0.43562 0.0
O159 O 0.72765 0.66629 0.45741 0.0
C160 C 0.71799 0.68797 0.4556 0.0
C161 C 0.72344 0.5745 0.43502 0.0
C162 C 0.72141 0.64247 0.36116 0.0
C163 C 0.63758 0.62939 0.42844 0.0
O164 O 0.65431 0.61191 0.41956 0.0
O165 O 0.65017 0.64949 0.43307 0.0
O166 O 0.70722 0.57472 0.40934 0.0
O167 O 0.72917 0.59456 0.44855 0.0
O168 O 0.17867 0.33568 0.91893 0.0
Cd169 Cd 0.16145 0.36543 0.89632 0.0
Cd170 Cd 0.16272 0.38313 0.95593 0.0
O171 O 0.18104 0.35049 0.9671 0.0
O172 O 0.16756 0.35831 0.85087 0.0
O173 O 0.19174 0.38796 0.87502 0.0
C174 C 0.18696 0.3759 0.84952 0.0
C175 C 0.18601 0.41753 0.97513 0.0
C176 C 0.1851 0.33333 0.94808 0.0
C177 C 0.09947 0.38066 0.92408 0.0
O178 O 0.11472 0.38547 0.94907 0.0
O179 O 0.11384 0.37286 0.89988 0.0
O180 O 0.16974 0.40373 0.99317 0.0
O181 O 0.19038 0.41119 0.94612 0.0
O182 O 0.31766 0.66496 0.4242 0.0
Cd183 Cd 0.33725 0.63555 0.4027 0.0
Cd184 Cd 0.33612 0.61918 0.46273 0.0
O185 O 0.31449 0.65095 0.47273 0.0
O186 O 0.33184 0.64216 0.35702 0.0
O187 O 0.30866 0.612 0.381 0.0
C188 C 0.31333 0.62406 0.35549 0.0
C189 C 0.31456 0.58339 0.47902 0.0
C190 C 0.30989 0.66756 0.45299 0.0
C191 C 0.39971 0.62346 0.43214 0.0
O192 O 0.38443 0.61907 0.45727 0.0
O193 O 0.38515 0.6297 0.40726 0.0
O194 O 0.32872 0.5973 0.49863 0.0
O195 O 0.31126 0.59037 0.45014 0.0
O196 O 0.17707 0.66851 0.09184 0.0
Cd197 Cd 0.15935 0.63826 0.11285 0.0
Cd198 Cd 0.16509 0.62068 0.05405 0.0
O199 O 0.18419 0.65334 0.04436 0.0
O200 O 0.16437 0.64363 0.15885 0.0
O201 O 0.18925 0.61502 0.1331 0.0
C202 C 0.18391 0.62608 0.1593 0.0
C203 C 0.18901 0.58622 0.03569 0.0
C204 C 0.18602 0.67072 0.06335 0.0
C205 C 0.0996 0.62295 0.08134 0.0
O206 O 0.11669 0.61847 0.05743 0.0
O207 O 0.11213 0.63052 0.10666 0.0
O208 O 0.17436 0.60045 0.01691 0.0
O209 O 0.19157 0.59221 0.06504 0.0
O210 O 0.31739 0.32981 0.5847 0.0
Cd211 Cd 0.33776 0.35936 0.60511 0.0
Cd212 Cd 0.33344 0.37597 0.54562 0.0
O213 O 0.31138 0.3442 0.53664 0.0
O214 O 0.33337 0.35392 0.65118 0.0
O215 O 0.30987 0.38356 0.62633 0.0
C216 C 0.31501 0.37214 0.65227 0.0
C217 C 0.31173 0.41184 0.52968 0.0
C218 C 0.30806 0.3274 0.55635 0.0
C219 C 0.3986 0.37152 0.57281 0.0
O220 O 0.38195 0.37601 0.54861 0.0
O221 O 0.38545 0.36518 0.59842 0.0
O222 O 0.32474 0.39758 0.50971 0.0
O223 O 0.30951 0.40511 0.55878 0.0
C224 C 0.2323 0.20487 0.01558 0.0
C225 C 0.26323 0.20634 0.02733 0.0
C226 C 0.21832 0.22435 0.0003 0.0
C227 C 0.23599 0.24548 0.99629 0.0
C228 C 0.26776 0.24654 0.00671 0.0
C229 C 0.28089 0.22704 0.02236 0.0
C230 C 0.18427 0.2227 0.98979 0.0
C231 C 0.28757 0.2686 0.00235 0.0
C232 C 0.20965 0.29349 0.93928 0.0
C233 C 0.19701 0.3104 0.96006 0.0
C234 C 0.2218 0.27195 0.95061 0.0
C235 C 0.22083 0.26714 0.98339 0.0
C236 C 0.20724 0.28385 0.00434 0.0
C237 C 0.19573 0.30536 0.99245 0.0
C238 C 0.23656 0.25469 0.92766 0.0
C239 C 0.20543 0.27921 0.03943 0.0
H240 H 0.21861 0.18889 0.0195 0.0
H241 H 0.30496 0.22812 0.0311 0.0
H242 H 0.16957 0.23495 0.00414 0.0
H243 H 0.18194 0.22826 0.96478 0.0
H244 H 0.17463 0.20447 0.99233 0.0
H245 H 0.31265 0.26581 0.0093 0.0
H246 H 0.28691 0.27445 0.97735 0.0
H247 H 0.27772 0.28322 0.01688 0.0
H248 H 0.21071 0.2973 0.91421 0.0
H249 H 0.18566 0.31823 0.00858 0.0
H250 H 0.22577 0.23688 0.9304 0.0
H251 H 0.26218 0.25286 0.93283 0.0
H252 H 0.23378 0.26045 0.90272 0.0
H253 H 0.19386 0.26189 0.04397 0.0
H254 H 0.19209 0.29324 0.05217 0.0
H255 H 0.22966 0.27827 0.04943 0.0
C256 C 0.28385 0.70648 0.44152 0.0
C257 C 0.29574 0.6902 0.46359 0.0
C258 C 0.27003 0.72788 0.45133 0.0
C259 C 0.26848 0.73322 0.48394 0.0
C260 C 0.281 0.71707 0.50628 0.0
C261 C 0.29427 0.69568 0.49585 0.0
C262 C 0.25651 0.74453 0.42689 0.0
C263 C 0.28007 0.72227 0.54127 0.0
C264 C 0.25494 0.79602 0.51332 0.0
C265 C 0.22333 0.79477 0.52319 0.0
C266 C 0.26981 0.77631 0.49949 0.0
C267 C 0.25241 0.7551 0.49504 0.0
C268 C 0.22 0.75425 0.50336 0.0
C269 C 0.20593 0.77404 0.51757 0.0
C270 C 0.30449 0.77778 0.49115 0.0
C271 C 0.2005 0.73212 0.49845 0.0
H272 H 0.28486 0.70234 0.41654 0.0
H273 H 0.30367 0.68329 0.51301 0.0
H274 H 0.23065 0.74649 0.43063 0.0
H275 H 0.26717 0.76239 0.42942 0.0
H276 H 0.26062 0.73815 0.4024 0.0
H277 H 0.29232 0.70845 0.5554 0.0
H278 H 0.29135 0.73965 0.54615 0.0
H279 H 0.25514 0.72344 0.54936 0.0
H280 H 0.26847 0.81201 0.51775 0.0
H281 H 0.18137 0.7731 0.52491 0.0
H282 H 0.30847 0.7717 0.46656 0.0
H283 H 0.3182 0.76585 0.50687 0.0
H284 H 0.31395 0.79606 0.49364 0.0
H285 H 0.20298 0.7257 0.4738 0.0
H286 H 0.17499 0.73508 0.50346 0.0
H287 H 0.20921 0.71784 0.51423 0.0
C288 C 0.28033 0.77925 0.99275 0.0
C289 C 0.26127 0.79862 0.98461 0.0
C290 C 0.26785 0.75993 0.00931 0.0
C291 C 0.23533 0.75977 0.01723 0.0
C292 C 0.21626 0.77978 0.01036 0.0
C293 C 0.22961 0.79918 0.99436 0.0
C294 C 0.28914 0.73917 0.01684 0.0
C295 C 0.18139 0.78009 0.01809 0.0
C296 C 0.19959 0.69829 0.01937 0.0
C297 C 0.1979 0.69382 0.05189 0.0
C298 C 0.21071 0.72003 0.00791 0.0
C299 C 0.22085 0.73763 0.02948 0.0
C300 C 0.21893 0.73338 0.06236 0.0
C301 C 0.20724 0.71154 0.0732 0.0
C302 C 0.21207 0.72401 0.97264 0.0
C303 C 0.22998 0.75162 0.08599 0.0
H304 H 0.30496 0.77897 0.98552 0.0
H305 H 0.21487 0.81415 0.98795 0.0
H306 H 0.28627 0.73378 0.04187 0.0
H307 H 0.28244 0.72377 0.00197 0.0
H308 H 0.31449 0.74328 0.01249 0.0
H309 H 0.17071 0.79788 0.01445 0.0
H310 H 0.16887 0.76719 0.00275 0.0
H311 H 0.17735 0.77458 0.04291 0.0
H312 H 0.19207 0.68479 0.00276 0.0
H313 H 0.20598 0.70819 0.09838 0.0
H314 H 0.23705 0.726 0.96503 0.0
H315 H 0.19953 0.74064 0.96636 0.0
H316 H 0.20132 0.70915 0.95916 0.0
H317 H 0.25579 0.75459 0.08316 0.0
H318 H 0.2253 0.74609 0.11074 0.0
H319 H 0.21807 0.76884 0.08166 0.0
C320 C 0.28285 0.28824 0.56834 0.0
C321 C 0.29395 0.30468 0.54606 0.0
C322 C 0.26938 0.26666 0.55875 0.0
C323 C 0.26746 0.26129 0.52617 0.0
C324 C 0.27911 0.27765 0.50362 0.0
C325 C 0.29196 0.29922 0.51383 0.0
C326 C 0.25672 0.2498 0.5834 0.0
C327 C 0.27781 0.27243 0.46865 0.0
C328 C 0.25626 0.19844 0.4961 0.0
C329 C 0.22467 0.19917 0.48613 0.0
C330 C 0.27033 0.21829 0.5104 0.0
C331 C 0.25211 0.23906 0.51527 0.0
C332 C 0.21966 0.23927 0.50708 0.0
C333 C 0.20641 0.21939 0.49231 0.0
C334 C 0.30509 0.2175 0.51854 0.0
C335 C 0.19928 0.2609 0.51248 0.0
H336 H 0.28425 0.29239 0.5933 0.0
H337 H 0.30077 0.31174 0.49651 0.0
H338 H 0.23092 0.24725 0.5799 0.0
H339 H 0.26808 0.23217 0.58086 0.0
H340 H 0.26078 0.25634 0.60782 0.0
H341 H 0.28929 0.2865 0.45431 0.0
H342 H 0.28967 0.2553 0.46357 0.0
H343 H 0.25281 0.27073 0.46097 0.0
H344 H 0.27044 0.18285 0.49121 0.0
H345 H 0.18186 0.21991 0.4849 0.0
H346 H 0.30901 0.22375 0.54306 0.0
H347 H 0.31829 0.22962 0.50264 0.0
H348 H 0.31514 0.19939 0.51611 0.0
H349 H 0.20199 0.26738 0.53707 0.0
H350 H 0.17383 0.25728 0.50801 0.0
H351 H 0.207 0.27538 0.49651 0.0
C352 C 0.78451 0.72534 0.01236 0.0
C353 C 0.76781 0.7043 0.01795 0.0
C354 C 0.77009 0.74459 0.99725 0.0
C355 C 0.73798 0.74288 0.98807 0.0
C356 C 0.72132 0.72135 0.99254 0.0
C357 C 0.73658 0.70216 0.00722 0.0
C358 C 0.78885 0.76708 0.99233 0.0
C359 C 0.68695 0.71899 0.98335 0.0
C360 C 0.69463 0.80165 0.98703 0.0
C361 C 0.69398 0.80691 0.95469 0.0
C362 C 0.70792 0.78045 0.99805 0.0
C363 C 0.72137 0.7643 0.97623 0.0
C364 C 0.7205 0.76937 0.94351 0.0
C365 C 0.70657 0.79057 0.93309 0.0
C366 C 0.70803 0.77551 0.03311 0.0
C367 C 0.73507 0.75274 0.91963 0.0
H368 H 0.80879 0.72694 0.02035 0.0
H369 H 0.72361 0.68591 0.01163 0.0
H370 H 0.78671 0.77317 0.96751 0.0
H371 H 0.77923 0.78134 0.00763 0.0
H372 H 0.81433 0.76473 0.99797 0.0
H373 H 0.67822 0.70051 0.98585 0.0
H374 H 0.67234 0.7307 0.99858 0.0
H375 H 0.68335 0.72481 0.9586 0.0
H376 H 0.68464 0.81409 0.00381 0.0
H377 H 0.70617 0.79457 0.90806 0.0
H378 H 0.73274 0.77505 0.04192 0.0
H379 H 0.6974 0.75789 0.03792 0.0
H380 H 0.69475 0.78912 0.0467 0.0
H381 H 0.76095 0.75149 0.92375 0.0
H382 H 0.73102 0.7587 0.89496 0.0
H383 H 0.72518 0.73465 0.92244 0.0
C384 C 0.79126 0.2082 0.42225 0.0
C385 C 0.80366 0.19129 0.44316 0.0
C386 C 0.77829 0.2295 0.43353 0.0
C387 C 0.77825 0.23409 0.46639 0.0
C388 C 0.79187 0.21748 0.48745 0.0
C389 C 0.80415 0.1962 0.4756 0.0
C390 C 0.76355 0.24665 0.41045 0.0
C391 C 0.7927 0.2219 0.52263 0.0
C392 C 0.76333 0.29551 0.50009 0.0
C393 C 0.73236 0.29298 0.51143 0.0
C394 C 0.7784 0.27673 0.48427 0.0
C395 C 0.76178 0.25524 0.47927 0.0
C396 C 0.72988 0.2532 0.48908 0.0
C397 C 0.71568 0.27202 0.50533 0.0
C398 C 0.81256 0.27941 0.47447 0.0
C399 C 0.71113 0.23077 0.48364 0.0
H400 H 0.79081 0.20448 0.39714 0.0
H401 H 0.81407 0.18333 0.49183 0.0
H402 H 0.73766 0.24759 0.41464 0.0
H403 H 0.77319 0.26473 0.41405 0.0
H404 H 0.76765 0.24133 0.38551 0.0
H405 H 0.80646 0.20816 0.53545 0.0
H406 H 0.80327 0.2395 0.52765 0.0
H407 H 0.76822 0.22206 0.53213 0.0
H408 H 0.77628 0.3117 0.5049 0.0
H409 H 0.69158 0.27015 0.51377 0.0
H410 H 0.81578 0.27393 0.44952 0.0
H411 H 0.82757 0.26762 0.48916 0.0
H412 H 0.82113 0.29792 0.47723 0.0
H413 H 0.71283 0.22524 0.45855 0.0
H414 H 0.68575 0.23292 0.48987 0.0
H415 H 0.72111 0.21621 0.49818 0.0
C416 C 0.78511 0.27512 0.97478 0.0
C417 C 0.76808 0.29607 0.96953 0.0
C418 C 0.771 0.25562 0.98961 0.0
C419 C 0.73888 0.25698 -0.00112 0.0
C420 C 0.72186 0.27838 0.9947 0.0
C421 C 0.7368 0.29782 0.98026 0.0
C422 C 0.79013 0.23325 0.9942 0.0
C423 C 0.68748 0.28037 0.00403 0.0
C424 C 0.69651 0.19782 -0.00012 0.0
C425 C 0.69621 0.19242 0.03219 0.0
C426 C 0.70937 0.21918 0.98889 0.0
C427 C 0.7227 0.23537 0.0107 0.0
C428 C 0.72218 0.23018 0.04338 0.0
C429 C 0.70872 0.20881 0.05378 0.0
C430 C 0.70917 0.22423 0.95385 0.0
C431 C 0.73659 0.24688 0.06725 0.0
H432 H 0.80943 0.2738 0.9668 0.0
H433 H 0.72357 0.31399 0.97611 0.0
H434 H 0.78829 0.22707 0.019 0.0
H435 H 0.78057 0.21897 0.97891 0.0
H436 H 0.81552 0.23582 0.98832 0.0
H437 H 0.67839 0.29877 0.00162 0.0
H438 H 0.67304 0.26854 0.98884 0.0
H439 H 0.68408 0.27449 0.02879 0.0
H440 H 0.68659 0.18535 0.98311 0.0
H441 H 0.70859 0.20473 0.07879 0.0
H442 H 0.73382 0.22498 0.94488 0.0
H443 H 0.69818 0.24175 0.94923 0.0
H444 H 0.69607 0.21053 0.94028 0.0
H445 H 0.76241 0.24842 0.06295 0.0
H446 H 0.73283 0.2408 0.09192 0.0
H447 H 0.72633 0.26487 0.06464 0.0
C448 C 0.78729 0.79344 0.56326 0.0
C449 C 0.80013 0.81026 0.54248 0.0
C450 C 0.77488 0.77198 0.55193 0.0
C451 C 0.77582 0.76714 0.51914 0.0
C452 C 0.78976 0.7837 0.49822 0.0
C453 C 0.8015 0.80514 0.51011 0.0
C454 C 0.75979 0.75488 0.57486 0.0
C455 C 0.79157 0.77903 0.46314 0.0
C456 C 0.76282 0.70507 0.48678 0.0
C457 C 0.73195 0.707 0.47497 0.0
C458 C 0.77726 0.72432 0.50215 0.0
C459 C 0.76013 0.7457 0.5062 0.0
C460 C 0.7284 0.74723 0.49574 0.0
C461 C 0.71481 0.72794 0.48 0.0
C462 C 0.81126 0.72218 0.51268 0.0
C463 C 0.70913 0.76956 0.50013 0.0
H464 H 0.78615 0.79731 0.58831 0.0
H465 H 0.81174 0.81795 0.49398 0.0
H466 H 0.73408 0.7535 0.56982 0.0
H467 H 0.77003 0.73691 0.57195 0.0
H468 H 0.76287 0.76053 0.5998 0.0
H469 H 0.80535 0.79284 0.45045 0.0
H470 H 0.80266 0.76152 0.45863 0.0
H471 H 0.76736 0.77849 0.45305 0.0
H472 H 0.77613 0.68891 0.48282 0.0
H473 H 0.69079 0.72937 0.4712 0.0
H474 H 0.81373 0.72775 0.53768 0.0
H475 H 0.82628 0.73418 0.49831 0.0
H476 H 0.82041 0.7038 0.51019 0.0
H477 H 0.70994 0.77537 0.52515 0.0
H478 H 0.684 0.76712 0.49317 0.0
H479 H 0.71935 0.78405 0.48564 0.0
C480 C 0.27597 0.03141 0.05645 0.0
C481 C 0.26 0.05251 0.04927 0.0
C482 C 0.27105 0.01083 0.03868 0.0
C483 C 0.24886 0.01113 0.01365 0.0
C484 C 0.23078 0.03184 0.00788 0.0
C485 C 0.23698 0.0525 0.02543 0.0
C486 C 0.29136 0.98933 0.04526 0.0
C487 C 0.20601 0.03252 0.98225 0.0
C488 C 0.27294 0.97049 0.94708 0.0
C489 C 0.2576 0.94936 0.9554 0.0
C490 C 0.26888 0.99114 0.96491 0.0
C491 C 0.24819 0.99089 0.99121 0.0
C492 C 0.23059 0.97016 0.99817 0.0
C493 C 0.23595 0.94943 0.98049 0.0
C494 C 0.28867 0.01267 0.95702 0.0
C495 C 0.20734 0.96951 0.02521 0.0
H496 H 0.29379 0.03129 0.07486 0.0
H497 H 0.2243 0.06871 0.02007 0.0
H498 H 0.27637 0.97342 0.04868 0.0
H499 H 0.307 0.98585 0.02469 0.0
H500 H 0.30642 0.99165 0.06654 0.0
H501 H 0.18975 0.04785 0.98512 0.0
H502 H 0.21771 0.03402 0.95889 0.0
H503 H 0.19189 0.01593 0.98219 0.0
H504 H 0.28971 0.97056 0.92769 0.0
H505 H 0.22373 0.93319 0.98674 0.0
H506 H 0.3056 0.01615 0.97651 0.0
H507 H 0.27346 0.02857 0.95461 0.0
H508 H 0.30231 0.01037 0.93479 0.0
H509 H 0.22037 0.96808 0.04785 0.0
H510 H 0.19099 0.95415 0.02337 0.0
H511 H 0.19319 0.98608 0.02602 0.0
C512 C 0.25633 0.95645 0.55028 0.0
C513 C 0.23471 0.94014 0.53782 0.0
C514 C 0.26172 0.97826 0.53524 0.0
C515 C 0.2437 0.98427 0.50822 0.0
C516 C 0.22275 0.96736 0.49491 0.0
C517 C 0.21904 0.94525 0.50957 0.0
C518 C 0.28548 0.99528 0.54916 0.0
C519 C 0.20235 0.97327 0.46671 0.0
C520 C 0.21988 0.04822 0.49474 0.0
C521 C 0.23575 0.05329 0.46658 0.0
C522 C 0.22315 0.026 0.50924 0.0
C523 C 0.24385 0.00894 0.49586 0.0
C524 C 0.26201 0.01485 0.46889 0.0
C525 C 0.25707 0.03678 0.45401 0.0
C526 C 0.2026 0.0202 0.5374 0.0
C527 C 0.28551 0.99765 0.45489 0.0
H528 H 0.26839 0.95238 0.57222 0.0
H529 H 0.20197 0.93267 0.50033 0.0
H530 H 0.29964 0.00382 0.53024 0.0
H531 H 0.27291 0.00951 0.56218 0.0
H532 H 0.30181 0.98626 0.56585 0.0
H533 H 0.18798 0.9579 0.45873 0.0
H534 H 0.18608 0.98803 0.47284 0.0
H535 H 0.21721 0.97933 0.4467 0.0
H536 H 0.20307 0.06095 0.50409 0.0
H537 H 0.26932 0.04083 0.43215 0.0
H538 H 0.21737 0.01411 0.55745 0.0
H539 H 0.18625 0.0055 0.53128 0.0
H540 H 0.18832 0.03563 0.54532 0.0
H541 H 0.29955 0.98896 0.47378 0.0
H542 H 0.30197 0.00654 0.43821 0.0
H543 H 0.27273 0.98354 0.44187 0.0
C544 C 0.71016 0.95122 0.96022 0.0
C545 C 0.68823 0.93819 0.97798 0.0
C546 C 0.71587 0.97525 0.96695 0.0
C547 C 0.69828 0.98658 0.99112 0.0
C548 C 0.67717 0.97316 0.00996 0.0
C549 C 0.67283 0.94905 0.00348 0.0
C550 C 0.73955 0.98875 0.94724 0.0
C551 C 0.65733 0.9846 0.03547 0.0
C552 C 0.71141 0.04806 0.02494 0.0
C553 C 0.6891 0.06122 0.00783 0.0
C554 C 0.71676 0.02402 0.01798 0.0
C555 C 0.69845 0.01282 0.99427 0.0
C556 C 0.67697 0.02636 0.97604 0.0
C557 C 0.67296 0.05048 0.98272 0.0
C558 C 0.74084 0.01038 0.037 0.0
C559 C 0.65638 0.01505 0.95105 0.0
H560 H 0.72235 0.94279 0.94068 0.0
H561 H 0.65576 0.93906 0.01722 0.0
H562 H 0.72687 -3e-05 0.92985 0.0
H563 H 0.754 0.00067 0.9623 0.0
H564 H 0.75559 0.97664 0.93411 0.0
H565 H 0.6431 0.97146 0.04889 0.0
H566 H 0.67259 0.99436 0.05232 0.0
H567 H 0.64094 0.99766 0.02466 0.0
H568 H 0.72416 0.0564 0.04417 0.0
H569 H 0.65561 0.06056 0.96948 0.0
H570 H 0.75481 0.99843 0.02152 0.0
H571 H 0.72854 0.99918 0.05468 0.0
H572 H 0.75731 0.02239 0.04974 0.0
H573 H 0.6711 0.00519 0.93381 0.0
H574 H 0.64196 0.02828 0.93799 0.0
H575 H 0.64011 0.00209 0.96228 0.0
C576 C 0.81355 0.05157 0.49884 0.0
C577 C 0.79895 0.06111 0.47198 0.0
C578 C 0.80842 0.028 0.50773 0.0
C579 C 0.78733 0.01381 0.48992 0.0
C580 C 0.77023 0.024 0.46456 0.0
C581 C 0.7767 0.04748 0.45546 0.0
C582 C 0.82767 0.01779 0.53457 0.0
C583 C 0.74647 0.00975 0.44594 0.0
C584 C 0.81416 0.95008 0.48707 0.0
C585 C 0.7984 0.94043 0.51321 0.0
C586 C 0.8093 0.97366 0.47807 0.0
C587 C 0.78735 0.98775 0.495 0.0
C588 C 0.76921 0.97746 0.51958 0.0
C589 C 0.77541 0.95397 0.52885 0.0
C590 C 0.82965 0.98399 0.45212 0.0
C591 C 0.74456 0.99159 0.5372 0.0
H592 H 0.83074 0.06203 0.51176 0.0
H593 H 0.76504 0.0549 0.43491 0.0
H594 H 0.81202 0.00894 0.55196 0.0
H595 H 0.84418 0.00417 0.52523 0.0
H596 H 0.84174 0.03153 0.54707 0.0
H597 H 0.73015 0.02139 0.43242 0.0
H598 H 0.75907 0.99816 0.42892 0.0
H599 H 0.73233 0.99818 0.46177 0.0
H600 H 0.83195 0.9397 0.47485 0.0
H601 H 0.76287 0.94646 0.54882 0.0
H602 H 0.84557 0.99771 0.46218 0.0
H603 H 0.81472 0.99274 0.43405 0.0
H604 H 0.84443 0.97034 0.44027 0.0
H605 H 0.75632 0.00317 0.55481 0.0
H606 H 0.72772 0.97987 0.54995 0.0
H607 H 0.73108 0.00316 0.52083 0.0
C608 C 0.74303 0.44943 0.97105 0.0
C609 C 0.76503 0.4492 0.94627 0.0
C610 C 0.73752 0.47025 0.9885 0.0
C611 C 0.75531 0.49091 0.98164 0.0
C612 C 0.77639 0.491 0.95566 0.0
C613 C 0.78061 0.47025 0.93803 0.0
C614 C 0.71388 0.46978 0.0152 0.0
C615 C 0.79641 0.51243 0.9479 0.0
C616 C 0.74351 0.55264 0.01532 0.0
C617 C 0.76596 0.55269 0.03968 0.0
C618 C 0.73772 0.53195 0.99769 0.0
C619 C 0.75568 0.51126 0.00391 0.0
C620 C 0.7774 0.51104 0.02935 0.0
C621 C 0.78188 0.53164 0.04719 0.0
C622 C 0.71343 0.53256 0.97159 0.0
C623 C 0.79764 0.48958 0.03637 0.0
H624 H 0.73065 0.43325 0.97724 0.0
H625 H 0.79766 0.4702 0.91889 0.0
H626 H 0.72658 0.46855 0.03806 0.0
H627 H 0.69969 0.48634 0.01558 0.0
H628 H 0.69758 0.45439 0.01334 0.0
H629 H 0.81037 0.51 0.9259 0.0
H630 H 0.78133 0.52837 0.94516 0.0
H631 H 0.81307 0.51594 0.96762 0.0
H632 H 0.73089 0.56884 0.00969 0.0
H633 H 0.7993 0.53158 0.06598 0.0
H634 H 0.69921 0.51602 0.97147 0.0
H635 H 0.72557 0.53385 0.94843 0.0
H636 H 0.69722 0.54797 0.97396 0.0
H637 H 0.7826 0.47368 0.03971 0.0
H638 H 0.8124 0.49199 0.05784 0.0
H639 H 0.81355 0.48601 0.01605 0.0
C640 C 0.75339 0.44605 0.51266 0.0
C641 C 0.73097 0.44523 0.53704 0.0
C642 C 0.75917 0.46728 0.4962 0.0
C643 C 0.74127 0.48777 0.50368 0.0
C644 C 0.71959 0.48719 0.52915 0.0
C645 C 0.71507 0.46604 0.54577 0.0
C646 C 0.78335 0.46748 0.46998 0.0
C647 C 0.69948 0.50846 0.53752 0.0
C648 C 0.75438 0.55054 0.47432 0.0
C649 C 0.73227 0.55168 0.4497 0.0
C650 C 0.75971 0.52917 0.49058 0.0
C651 C 0.74169 0.50884 0.48264 0.0
C652 C 0.72049 0.50969 0.4568 0.0
C653 C 0.7164 0.531 0.44041 0.0
C654 C 0.78342 0.52866 0.51721 0.0
C655 C 0.70028 0.48861 0.44791 0.0
H656 H 0.76602 0.43006 0.5061 0.0
H657 H 0.69769 0.46552 0.56461 0.0
H658 H 0.77112 0.46714 0.44682 0.0
H659 H 0.79776 0.48392 0.47089 0.0
H660 H 0.7994 0.45191 0.47124 0.0
H661 H 0.68483 0.5054 0.55892 0.0
H662 H 0.7146 0.52421 0.54164 0.0
H663 H 0.68346 0.51269 0.51752 0.0
H664 H 0.767 0.56642 0.48132 0.0
H665 H 0.69928 0.53174 0.42137 0.0
H666 H 0.79755 0.51208 0.51649 0.0
H667 H 0.77077 0.5291 0.54016 0.0
H668 H 0.79975 0.54408 0.51627 0.0
H669 H 0.71523 0.4727 0.44423 0.0
H670 H 0.68631 0.4918 0.4261 0.0
H671 H 0.68363 0.48456 0.46746 0.0
C672 C 0.18463 0.55305 0.99745 0.0
C673 C 0.19895 0.56257 0.02447 0.0
C674 C 0.18879 0.52922 0.98929 0.0
C675 C 0.20861 0.5147 0.00805 0.0
C676 C 0.22543 0.52475 0.0337 0.0
C677 C 0.21992 0.54853 0.04203 0.0
C678 C 0.16983 0.51917 0.96214 0.0
C679 C 0.24786 0.5101 0.05338 0.0
C680 C 0.1796 0.45149 0.01178 0.0
C681 C 0.19607 0.44105 0.98664 0.0
C682 C 0.18471 0.47519 0.02006 0.0
C683 C 0.20765 0.48859 0.00346 0.0
C684 C 0.22625 0.47757 0.97981 0.0
C685 C 0.21979 0.45399 0.97119 0.0
C686 C 0.16378 0.48634 0.04494 0.0
C687 C 0.25188 0.49098 0.96258 0.0
H688 H 0.16839 0.56381 0.98377 0.0
H689 H 0.23135 0.55592 0.06273 0.0
H690 H 0.18552 0.50961 0.94546 0.0
H691 H 0.15236 0.50618 0.97132 0.0
H692 H 0.15687 0.53311 0.94889 0.0
H693 H 0.26406 0.52143 0.06749 0.0
H694 H 0.23414 0.49884 0.06993 0.0
H695 H 0.26217 0.49816 0.0382 0.0
H696 H 0.16119 0.44157 0.02377 0.0
H697 H 0.23283 0.44586 0.95197 0.0
H698 H 0.14882 0.50026 0.03395 0.0
H699 H 0.17836 0.49502 0.06336 0.0
H700 H 0.14803 0.4732 0.05654 0.0
H701 H 0.24101 0.50276 0.94464 0.0
H702 H 0.2685 0.4788 0.9503 0.0
H703 H 0.26548 0.5023 0.97915 0.0
C704 C 0.28285 0.54618 0.47203 0.0
C705 C 0.30561 0.55917 0.48877 0.0
C706 C 0.27719 0.52221 0.47918 0.0
C707 C 0.29565 0.51088 0.50267 0.0
C708 C 0.31779 0.52422 0.52037 0.0
C709 C 0.32209 0.54829 0.51354 0.0
C710 C 0.25246 0.50879 0.46071 0.0
C711 C 0.3386 0.51275 0.54505 0.0
C712 C 0.28213 0.44988 0.53798 0.0
C713 C 0.30316 0.43616 0.52003 0.0
C714 C 0.27734 0.47398 0.53098 0.0
C715 C 0.29496 0.48467 0.50633 0.0
C716 C 0.3152 0.47059 0.48737 0.0
C717 C 0.31862 0.44644 0.49415 0.0
C718 C 0.25457 0.48821 0.55086 0.0
C719 C 0.33508 0.48134 0.46138 0.0
H720 H 0.26986 0.55463 0.45305 0.0
H721 H 0.33982 0.55825 0.52644 0.0
H722 H 0.26418 0.49707 0.44324 0.0
H723 H 0.23822 0.49737 0.47664 0.0
H724 H 0.2363 0.52093 0.4478 0.0
H725 H 0.35376 0.52583 0.55754 0.0
H726 H 0.32395 0.50335 0.56279 0.0
H727 H 0.35414 0.49937 0.53368 0.0
H728 H 0.26992 0.4419 0.55783 0.0
H729 H 0.33501 0.43593 0.48029 0.0
H730 H 0.24015 0.50014 0.53579 0.0
H731 H 0.268 0.49947 0.56761 0.0
H732 H 0.23846 0.47661 0.5647 0.0
H733 H 0.31996 0.49133 0.44464 0.0
H734 H 0.34853 0.46776 0.44793 0.0
H735 H 0.35218 0.4941 0.47173 0.0
C736 C 0.54247 0.12816 0.09334 0.0
C737 C 0.55959 0.12225 0.06607 0.0
C738 C 0.50932 0.12743 0.09358 0.0
C739 C 0.49293 0.1206 0.06589 0.0
C740 C 0.51002 0.11399 0.03856 0.0
C741 C 0.54318 0.11491 0.03896 0.0
C742 C 0.49181 0.13458 0.1232 0.0
C743 C 0.49328 0.10655 0.00865 0.0
C744 C 0.40655 0.10384 0.0757 0.0
C745 C 0.39141 0.12522 0.06802 0.0
C746 C 0.43962 0.10184 0.07436 0.0
C747 C 0.45787 0.12169 0.06513 0.0
C748 C 0.4427 0.14307 0.0564 0.0
C749 C 0.40966 0.14457 0.05794 0.0
C750 C 0.45506 0.07874 0.0837 0.0
C751 C 0.46143 0.16459 0.0463 0.0
H752 H 0.55493 0.13376 0.11443 0.0
H753 H 0.55621 0.11019 0.01781 0.0
H754 H 0.47752 0.15071 0.11853 0.0
H755 H 0.47519 0.12036 0.1304 0.0
H756 H 0.50809 0.13831 0.14319 0.0
H757 H 0.51004 0.10052 0.99009 0.0
H758 H 0.47637 0.09199 0.01371 0.0
H759 H 0.47937 0.12165 -0.00077 0.0
H760 H 0.39263 0.08878 0.08344 0.0
H761 H 0.39819 0.16113 0.05181 0.0
H762 H 0.46947 0.08141 0.10531 0.0
H763 H 0.47134 0.07265 0.0648 0.0
H764 H 0.43745 0.06455 0.08839 0.0
H765 H 0.47655 0.1707 0.06611 0.0
H766 H 0.44595 0.17951 0.03889 0.0
H767 H 0.47736 0.16 0.02639 0.0
C768 C 0.9487 0.87777 0.60453 0.0
C769 C 0.93072 0.88582 0.57885 0.0
C770 C 0.98184 0.87877 0.60389 0.0
C771 C 0.99731 0.88815 0.57701 0.0
C772 C 0.97931 0.89739 0.55169 0.0
C773 C 0.9462 0.89606 0.55287 0.0
C774 C 0.0003 0.86873 0.63135 0.0
C775 C 0.99502 0.90771 0.52275 0.0
C776 C 0.08518 0.90102 0.5848 0.0
C777 C 0.0984 0.88015 0.57247 0.0
C778 C 0.05223 0.90423 0.58573 0.0
C779 C 0.03219 0.88611 0.57414 0.0
C780 C 0.04543 0.86535 0.56082 0.0
C781 C 0.07834 0.86265 0.56009 0.0
C782 C 0.03886 0.92667 0.59986 0.0
C783 C 0.0248 0.84565 0.54813 0.0
H784 H 0.93695 0.86995 0.62476 0.0
H785 H 0.93249 0.90255 0.53305 0.0
H786 H 0.01325 0.85262 0.62361 0.0
H787 H 0.01817 0.88171 0.63964 0.0
H788 H 0.98477 0.86389 0.65152 0.0
H789 H 0.97777 0.91648 0.50678 0.0
H790 H 0.01333 0.92081 0.52966 0.0
H791 H 0.00711 0.89339 0.50943 0.0
H792 H 0.10051 0.91466 0.59433 0.0
H793 H 0.0883 0.84651 0.55038 0.0
H794 H 0.02561 0.92237 0.62175 0.0
H795 H 0.02188 0.93501 0.58325 0.0
H796 H 0.05761 0.93975 0.60572 0.0
H797 H 0.01011 0.83823 0.56748 0.0
H798 H 0.03887 0.83103 0.53753 0.0
H799 H 0.00841 0.85266 0.52994 0.0
C800 C 0.4034 0.89739 0.92145 0.0
C801 C 0.38827 0.87652 0.93131 0.0
C802 C 0.43654 0.89895 0.9208 0.0
C803 C 0.45486 0.87918 0.93022 0.0
C804 C 0.43975 0.85833 0.94102 0.0
C805 C 0.40665 0.85726 0.94147 0.0
C806 C 0.45194 0.92151 0.90929 0.0
C807 C 0.45855 0.8369 0.95135 0.0
C808 C 0.53802 0.87084 0.89865 0.0
C809 C 0.55642 0.87741 0.92479 0.0
C810 C 0.5049 0.87194 0.89984 0.0
C811 C 0.48987 0.87985 0.92779 0.0
C812 C 0.50826 0.88712 0.95395 0.0
C813 C 0.54134 0.88579 0.95215 0.0
C814 C 0.48599 0.86404 0.87146 0.0
C815 C 0.49299 0.89571 0.98411 0.0
H816 H 0.38939 0.91237 0.91361 0.0
H817 H 0.3952 0.84109 0.94924 0.0
H818 H 0.46911 0.9281 0.92705 0.0
H819 H 0.46537 0.91791 0.88728 0.0
H820 H 0.43437 0.93571 0.90445 0.0
H821 H 0.44318 0.82238 0.96023 0.0
H822 H 0.47266 0.83006 0.93121 0.0
H823 H 0.47544 0.84189 0.97027 0.0
H824 H 0.54946 0.86442 0.87739 0.0
H825 H 0.55536 0.89104 0.97241 0.0
H826 H 0.46929 0.8782 0.8642 0.0
H827 H 0.47165 0.84824 0.87769 0.0
H828 H 0.5013 0.8595 0.851 0.0
H829 H 0.47617 0.91031 0.97897 0.0
H830 H 0.51066 0.9021 0.00156 0.0
H831 H 0.4792 0.8811 0.99499 0.0
C832 C 0.08155 0.13326 0.44025 0.0
C833 C 0.10165 0.11573 0.42795 0.0
C834 C 0.04865 0.13139 0.43742 0.0
C835 C 0.03545 0.11146 0.42202 0.0
C836 C 0.05545 0.09328 0.4105 0.0
C837 C 0.08839 0.09564 0.41356 0.0
C838 C 0.02807 0.15114 0.4501 0.0
C839 C 0.04209 0.07168 0.3942 0.0
C840 C 0.94805 0.10278 0.43787 0.0
C841 C 0.93445 0.11421 0.41174 0.0
C842 C 0.98097 0.10066 0.44078 0.0
C843 C 0.00073 0.11032 0.4171 0.0
C844 C 0.98716 0.12096 0.39002 0.0
C845 C 0.95415 0.12272 0.38762 0.0
C846 C 0.99461 0.08901 0.46986 0.0
C847 C 0.00753 0.13151 0.36428 0.0
H848 H 0.09152 0.1488 0.45154 0.0
H849 H 0.10375 0.082 0.40406 0.0
H850 H 0.01483 0.15953 0.43043 0.0
H851 H 0.01038 0.14391 0.4669 0.0
H852 H 0.04203 0.16506 0.46236 0.0
H853 H 0.06066 0.05838 0.38858 0.0
H854 H 0.02385 0.06318 0.40926 0.0
H855 H 0.03034 0.07705 0.3719 0.0
H856 H 0.933 0.09592 0.45649 0.0
H857 H 0.94385 0.13147 0.36728 0.0
H858 H 0.00649 0.10257 0.48469 0.0
H859 H 0.01276 0.07571 0.46316 0.0
H860 H 0.97615 0.08013 0.48433 0.0
H861 H 0.02061 0.14702 0.37373 0.0
H862 H 0.99337 0.13738 0.34361 0.0
H863 H 0.02536 0.11842 0.35617 0.0
C864 C 0.05087 0.61245 0.05089 0.0
C865 C 0.06484 0.62032 0.07908 0.0
C866 C 0.01789 0.61151 0.04758 0.0
C867 C -0.00155 0.61863 0.07307 0.0
C868 C 0.01234 0.62585 0.10192 0.0
C869 C 0.04539 0.6266 0.1046 0.0
C870 C 0.00387 0.60363 0.0165 0.0
C871 C 0.99229 0.63351 0.12965 0.0
C872 C 0.91659 0.64303 0.05693 0.0
C873 C 0.89722 0.62399 0.06595 0.0
C874 C 0.94962 0.64126 0.05837 0.0
C875 C 0.96363 0.61993 0.06905 0.0
C876 C 0.94432 0.60036 0.07711 0.0
C877 C 0.9113 0.60262 0.07546 0.0
C878 C 0.9695 0.66248 0.04942 0.0
C879 C 0.95851 0.5773 0.08841 0.0
H880 H 0.0657 0.60744 0.03108 0.0
H881 H 0.05596 0.6326 0.1265 0.0
H882 H 0.9862 0.58939 0.02043 0.0
H883 H 0.99129 0.6187 0.00528 0.0
H884 H 0.02216 0.59703 -0.00017 0.0
H885 H 0.00672 0.63735 0.15098 0.0
H886 H 0.97877 0.64969 0.12334 0.0
H887 H 0.97483 0.61951 0.13559 0.0
H888 H 0.90596 0.65958 0.04941 0.0
H889 H 0.89653 0.58779 0.08239 0.0
H890 H 0.98716 0.65745 0.03122 0.0
H891 H 0.98279 0.66885 0.07037 0.0
H892 H 0.95498 0.67736 0.04016 0.0
H893 H 0.97648 0.57087 0.07132 0.0
H894 H 0.94036 0.56327 0.09169 0.0
H895 H 0.97078 0.58018 0.11125 0.0
C896 C 0.58673 0.39153 0.56972 0.0
C897 C 0.60157 0.37021 0.56116 0.0
C898 C 0.55363 0.39329 0.57077 0.0
C899 C 0.535 0.37327 0.56305 0.0
C900 C 0.54978 0.35193 0.55349 0.0
C901 C 0.58288 0.35066 0.55265 0.0
C902 C 0.53861 0.41635 0.58095 0.0
C903 C 0.53065 0.33024 0.54496 0.0
C904 C 0.45235 0.3672 0.59691 0.0
C905 C 0.4335 0.37315 0.57082 0.0
C906 C 0.48546 0.36766 0.59487 0.0
C907 C 0.50004 0.37424 0.56607 0.0
C908 C 0.48122 0.38077 0.53988 0.0
C909 C 0.44816 0.38014 0.54255 0.0
C910 C 0.50484 0.36061 0.62332 0.0
C911 C 0.496 0.38794 0.50883 0.0
H912 H 0.60097 0.40673 0.57628 0.0
H913 H 0.59411 0.33414 0.54589 0.0
H914 H 0.52119 0.42232 0.56304 0.0
H915 H 0.52553 0.41369 0.6034 0.0
H916 H 0.55636 0.43063 0.58449 0.0
H917 H 0.54575 0.31534 0.53673 0.0
H918 H 0.51692 0.32421 0.5658 0.0
H919 H 0.5134 0.3346 0.52609 0.0
H920 H 0.44125 0.36185 0.61886 0.0
H921 H 0.4338 0.38486 0.5223 0.0
H922 H 0.52179 0.37491 0.62941 0.0
H923 H 0.51892 0.34453 0.61779 0.0
H924 H 0.48988 0.35686 0.64432 0.0
H925 H 0.51299 0.40267 0.51253 0.0
H926 H 0.47806 0.39363 0.49122 0.0
H927 H 0.50952 0.37282 0.49887 0.0
C928 C 0.04717 0.37641 0.89702 0.0
C929 C 0.0646 0.38315 0.92373 0.0
C930 C 0.01401 0.37695 0.89725 0.0
C931 C -0.00207 0.38443 0.92484 0.0
C932 C 0.01535 0.39206 0.95149 0.0
C933 C 0.0485 0.39131 0.95062 0.0
C934 C 0.99617 0.36874 0.86835 0.0
C935 C -0.00104 0.40024 0.98126 0.0
C936 C 0.91082 0.39942 0.91628 0.0
C937 C 0.89654 0.37805 0.92553 0.0
C938 C 0.94385 0.402 0.91662 0.0
C939 C 0.96294 0.38276 0.92644 0.0
C940 C 0.94866 0.36142 0.93669 0.0
C941 C 0.91564 0.35933 0.93613 0.0
C942 C 0.95833 0.42505 0.90568 0.0
C943 C 0.96829 0.34054 0.94745 0.0
H944 H 0.0594 0.37018 0.87609 0.0
H945 H 0.06176 0.39668 0.97133 0.0
H946 H 0.9826 0.35245 0.87403 0.0
H947 H 0.97887 0.38243 0.86091 0.0
H948 H 0.01217 0.36485 0.84817 0.0
H949 H 0.01588 0.40731 -0.001 0.0
H950 H 0.98134 0.4142 0.97571 0.0
H951 H 0.98591 0.38519 0.992 0.0
H952 H 0.89626 0.414 0.90813 0.0
H953 H 0.90484 0.34279 0.94345 0.0
H954 H 0.97237 0.42196 0.88391 0.0
H955 H 0.9748 0.432 0.92385 0.0
H956 H 0.94017 0.43877 0.90063 0.0
H957 H 0.98324 0.33415 0.92766 0.0
H958 H 0.95347 0.32556 0.95592 0.0
H959 H 0.98443 0.34599 0.96679 0.0
C960 C 0.58811 0.60509 0.42463 0.0
C961 C 0.60291 0.62669 0.43185 0.0
C962 C 0.55505 0.6029 0.42559 0.0
C963 C 0.53643 0.62279 0.43397 0.0
C964 C 0.55123 0.64443 0.44214 0.0
C965 C 0.58429 0.64612 0.441 0.0
C966 C 0.54001 0.57952 0.41685 0.0
C967 C 0.53212 0.666 0.4513 0.0
C968 C 0.45191 0.62765 0.40484 0.0
C969 C 0.43468 0.62195 0.43212 0.0
C970 C 0.48508 0.62744 0.40494 0.0
C971 C 0.50139 0.62137 0.43299 0.0
C972 C 0.4842 0.61503 0.46038 0.0
C973 C 0.45102 0.61541 0.45963 0.0
C974 C 0.50268 0.63428 0.37525 0.0
C975 C 0.50084 0.6084 0.49067 0.0
H976 H 0.6023 0.58997 0.41761 0.0
H977 H 0.59549 0.66286 0.44674 0.0
H978 H 0.52379 0.57359 0.43588 0.0
H979 H 0.5256 0.58171 0.39514 0.0
H980 H 0.55786 0.56542 0.4126 0.0
H981 H 0.54732 0.68119 0.45828 0.0
H982 H 0.51705 0.67157 0.43117 0.0
H983 H 0.51611 0.66169 0.47126 0.0
H984 H 0.43951 0.63265 0.38346 0.0
H985 H 0.43791 0.61088 0.4808 0.0
H986 H 0.51959 0.62008 0.36858 0.0
H987 H 0.51668 0.6506 0.37955 0.0
H988 H 0.48649 0.63752 0.35504 0.0
H989 H 0.51798 0.59386 0.48629 0.0
H990 H 0.48405 0.60267 0.50936 0.0
H991 H 0.5145 0.62381 0.49958 0.0
C992 C 0.24425 0.12966 0.18901 0.0
C993 C 0.26565 0.1451 0.17437 0.0
C994 C 0.23739 0.13177 0.22124 0.0
C995 C 0.25287 0.1494 0.23933 0.0
C996 C 0.27386 0.16547 0.22451 0.0
C997 C 0.27976 0.16328 0.19204 0.0
C998 C 0.21429 0.11464 0.23611 0.0
C999 C 0.29117 0.18423 0.24318 0.0
C1000 C 0.21715 0.16128 0.3198 0.0
C1001 C 0.23403 0.14518 0.33858 0.0
C1002 C 0.22384 0.16362 0.28752 0.0
C1003 C 0.24841 0.1499 0.27404 0.0
C1004 C 0.26692 0.13485 0.29338 0.0
C1005 C 0.25926 0.13247 0.3254 0.0
C1006 C 0.20332 0.17958 0.26752 0.0
C1007 C 0.29381 0.12037 0.27995 0.0
H1008 H 0.2331 0.11574 0.17531 0.0
H1009 H 0.29649 0.17515 0.18078 0.0
H1010 H 0.22693 0.10298 0.25302 0.0
H1011 H 0.19598 0.12446 0.24961 0.0
H1012 H 0.20232 0.1033 0.21829 0.0
H1013 H 0.30479 0.19646 0.22775 0.0
H1014 H 0.27427 0.19477 0.25749 0.0
H1015 H 0.30782 0.1756 0.25986 0.0
H1016 H 0.19751 0.17105 0.32991 0.0
H1017 H 0.27253 0.12018 0.33998 0.0
H1018 H 0.18844 0.16858 0.25167 0.0
H1019 H 0.2181 0.19115 0.25233 0.0
H1020 H 0.18752 0.19092 0.28208 0.0
H1021 H 0.2842 0.10638 0.26422 0.0
H1022 H 0.3081 0.11171 0.29872 0.0
H1023 H 0.30963 0.13171 0.26549 0.0
C1024 C 0.27103 0.83513 0.81628 0.0
C1025 C 0.25768 0.85401 0.83324 0.0
C1026 C 0.26466 0.83217 0.78402 0.0
C1027 C 0.24399 0.84821 0.7687 0.0
C1028 C 0.22903 0.86643 0.78619 0.0
C1029 C 0.23633 0.86927 0.81821 0.0
C1030 C 0.28136 0.81275 0.766 0.0
C1031 C 0.20627 0.88355 0.77079 0.0
C1032 C 0.25199 0.86362 0.68224 0.0
C1033 C 0.22668 0.85102 0.66906 0.0
C1034 C 0.25903 0.86172 0.71445 0.0
C1035 C 0.23982 0.84729 0.73397 0.0
C1036 C 0.21508 0.83374 0.72055 0.0
C1037 C 0.20899 0.83559 0.68809 0.0
C1038 C 0.28612 0.87602 0.72782 0.0
C1039 C 0.19384 0.81844 0.74073 0.0
H1040 H 0.28769 0.82337 0.82783 0.0
H1041 H 0.22575 0.88374 0.83137 0.0
H1042 H 0.26424 0.80244 0.75169 0.0
H1043 H 0.29865 0.82075 0.7494 0.0
H1044 H 0.29422 0.8004 0.7819 0.0
H1045 H 0.19437 0.89521 0.78829 0.0
H1046 H 0.21922 0.8949 0.75373 0.0
H1047 H 0.18792 0.87373 0.75738 0.0
H1048 H 0.26589 0.87538 0.66748 0.0
H1049 H 0.18928 0.82591 0.67797 0.0
H1050 H 0.30156 0.86462 0.74259 0.0
H1051 H 0.27668 0.89028 0.74323 0.0
H1052 H 0.30075 0.88431 0.70902 0.0
H1053 H 0.2081 0.80688 0.75642 0.0
H1054 H 0.17791 0.80712 0.72629 0.0
H1055 H 0.17907 0.82992 0.75609 0.0
C1056 C 0.71666 0.89741 0.81678 0.0
C1057 C 0.69323 0.8798 0.81723 0.0
C1058 C 0.7351 0.90127 0.78962 0.0
C1059 C 0.73001 0.88708 0.7625 0.0
C1060 C 0.70517 0.87026 0.7623 0.0
C1061 C 0.68708 0.86686 0.78963 0.0
C1062 C 0.76112 0.91958 0.79055 0.0
C1063 C 0.6989 0.85477 0.73386 0.0
C1064 C 0.7659 0.89849 0.68166 0.0
C1065 C 0.79066 0.88192 0.6814 0.0
C1066 C 0.74689 0.90148 0.70863 0.0
C1067 C 0.75279 0.88748 0.73576 0.0
C1068 C 0.7788 0.87168 0.73612 0.0
C1069 C 0.79741 0.86914 0.70898 0.0
C1070 C 0.71957 0.9187 0.70755 0.0
C1071 C 0.78596 0.85643 0.76457 0.0
H1072 H 0.72139 0.9076 0.83797 0.0
H1073 H 0.66878 0.85339 0.78964 0.0
H1074 H 0.7844 0.91054 0.79186 0.0
H1075 H 0.76101 0.93042 0.76869 0.0
H1076 H 0.75887 0.93155 0.81127 0.0
H1077 H 0.67699 0.84407 0.73653 0.0
H1078 H 0.69676 0.86575 0.71225 0.0
H1079 H 0.71911 0.84249 0.7303 0.0
H1080 H 0.76067 0.90855 0.66048 0.0
H1081 H 0.81671 0.85647 0.70912 0.0
H1082 H 0.71885 0.92959 0.72935 0.0
H1083 H 0.69699 0.90872 0.70625 0.0
H1084 H 0.721 0.93068 0.68678 0.0
H1085 H 0.78745 0.8675 0.78617 0.0
H1086 H 0.80849 0.84646 0.76193 0.0
H1087 H 0.7665 0.8435 0.76816 0.0
C1088 C 0.77258 0.10221 0.30512 0.0
C1089 C 0.79725 0.11885 0.30519 0.0
C1090 C 0.75364 0.09898 0.27817 0.0
C1091 C 0.75949 0.11282 0.25088 0.0
C1092 C 0.78546 0.12865 0.25032 0.0
C1093 C 0.80403 0.13143 0.27744 0.0
C1094 C 0.72639 0.08172 0.27948 0.0
C1095 C 0.79256 0.14374 0.22169 0.0
C1096 C 0.72274 0.10233 0.17025 0.0
C1097 C 0.69917 0.11984 0.16987 0.0
C1098 C 0.74151 0.09874 0.19724 0.0
C1099 C 0.7366 0.11309 0.22425 0.0
C1100 C 0.71169 0.12985 0.22451 0.0
C1101 C 0.69327 0.13298 0.19736 0.0
C1102 C 0.76761 0.08048 0.19627 0.0
C1103 C 0.70561 0.14551 0.25283 0.0
H1104 H 0.76735 0.09231 0.32642 0.0
H1105 H 0.82326 0.14415 0.27716 0.0
H1106 H 0.70377 0.09166 0.28079 0.0
H1107 H 0.72564 0.07073 0.25776 0.0
H1108 H 0.72791 0.06983 0.30034 0.0
H1109 H 0.81513 0.15367 0.22414 0.0
H1110 H 0.79392 0.13256 0.20019 0.0
H1111 H 0.77312 0.15669 0.2181 0.0
H1112 H 0.72729 0.09199 0.14915 0.0
H1113 H 0.67488 0.14638 0.1974 0.0
H1114 H 0.76764 0.06972 0.2182 0.0
H1115 H 0.79084 0.08957 0.19478 0.0
H1116 H 0.76531 0.06843 0.17564 0.0
H1117 H 0.70352 0.13465 0.27456 0.0
H1118 H 0.68373 0.15625 0.25019 0.0
H1119 H 0.72589 0.15777 0.25618 0.0
C1120 C 0.717 0.66341 0.30952 0.0
C1121 C 0.73173 0.64619 0.32832 0.0
C1122 C 0.72397 0.66522 0.27723 0.0
C1123 C 0.74672 0.64982 0.26379 0.0
C1124 C 0.76285 0.63326 0.28308 0.0
C1125 C 0.75484 0.63144 0.31507 0.0
C1126 C 0.70589 0.68277 0.25723 0.0
C1127 C 0.78784 0.61693 0.26971 0.0
C1128 C 0.74346 0.6315 0.17796 0.0
C1129 C 0.76731 0.6456 0.16477 0.0
C1130 C 0.73543 0.6336 0.20993 0.0
C1131 C 0.75226 0.64975 0.22923 0.0
C1132 C 0.77575 0.66452 0.21584 0.0
C1133 C 0.78275 0.66246 0.18358 0.0
C1134 C 0.70967 0.61795 0.22325 0.0
C1135 C 0.79459 0.6816 0.23585 0.0
H1136 H 0.69895 0.67473 0.31973 0.0
H1137 H 0.76644 0.61826 0.32969 0.0
H1138 H 0.72244 0.69382 0.24321 0.0
H1139 H 0.69067 0.67305 0.24025 0.0
H1140 H 0.69067 0.69462 0.27168 0.0
H1141 H 0.80019 0.60668 0.28842 0.0
H1142 H 0.77676 0.60424 0.25304 0.0
H1143 H 0.80567 0.62727 0.25627 0.0
H1144 H 0.73133 0.6186 0.16334 0.0
H1145 H 0.80138 0.67327 0.17343 0.0
H1146 H 0.69235 0.62875 0.23673 0.0
H1147 H 0.72013 0.60495 0.2399 0.0
H1148 H 0.69684 0.60806 0.20452 0.0
H1149 H 0.77856 0.69304 0.24991 0.0
H1150 H 0.81032 0.69308 0.22141 0.0
H1151 H 0.80941 0.67149 0.25279 0.0
C1152 C 0.75649 0.36667 0.67239 0.0
C1153 C 0.73333 0.35173 0.65963 0.0
C1154 C 0.76475 0.36521 0.70434 0.0
C1155 C 0.74883 0.34885 0.72409 0.0
C1156 C 0.72615 0.33317 0.71112 0.0
C1157 C 0.71892 0.33461 0.67885 0.0
C1158 C 0.78965 0.38182 0.7172 0.0
C1159 C 0.70831 0.3158 0.73159 0.0
C1160 C 0.78468 0.33772 0.80476 0.0
C1161 C 0.76894 0.35477 0.82304 0.0
C1162 C 0.77787 0.33512 0.77253 0.0
C1163 C 0.75428 0.34954 0.75864 0.0
C1164 C 0.73722 0.36592 0.77741 0.0
C1165 C 0.74506 0.36856 0.80934 0.0
C1166 C 0.79696 0.31782 0.75308 0.0
C1167 C 0.71136 0.3812 0.76355 0.0
H1168 H 0.76783 0.37976 0.65744 0.0
H1169 H 0.70084 0.32315 0.66902 0.0
H1170 H 0.77848 0.3948 0.73343 0.0
H1171 H 0.80749 0.37178 0.73101 0.0
H1172 H 0.802 0.39174 0.69818 0.0
H1173 H 0.6934 0.30353 0.71746 0.0
H1174 H 0.72496 0.30518 0.74607 0.0
H1175 H 0.69278 0.32567 0.74816 0.0
H1176 H 0.80332 0.32715 0.8153 0.0
H1177 H 0.73268 0.38159 0.82356 0.0
H1178 H 0.81171 0.32771 0.73586 0.0
H1179 H 0.78108 0.30604 0.73934 0.0
H1180 H 0.81275 0.30668 0.7679 0.0
H1181 H 0.72174 0.39393 0.74648 0.0
H1182 H 0.69842 0.39138 0.78194 0.0
H1183 H 0.69414 0.37008 0.75044 0.0
C1184 C 0.30601 0.36599 0.70982 0.0
C1185 C 0.29902 0.3786 0.68216 0.0
C1186 C 0.28847 0.36946 0.7375 0.0
C1187 C 0.26332 0.38603 0.73759 0.0
C1188 C 0.2574 0.39993 0.71038 0.0
C1189 C 0.27532 0.39602 0.68288 0.0
C1190 C 0.29562 0.35429 0.76602 0.0
C1191 C 0.23102 0.41797 0.70972 0.0
C1192 C 0.19722 0.36788 0.79261 0.0
C1193 C 0.20416 0.38103 0.81985 0.0
C1194 C 0.21534 0.37033 0.76513 0.0
C1195 C 0.24105 0.3864 0.76477 0.0
C1196 C 0.24715 0.40072 0.79157 0.0
C1197 C 0.22862 0.39782 0.8189 0.0
C1198 C 0.20797 0.35474 0.73705 0.0
C1199 C 0.27415 0.41822 0.79191 0.0
H1200 H 0.32452 0.35268 0.7096 0.0
H1201 H 0.26993 0.40596 0.66164 0.0
H1202 H 0.29792 0.36547 0.78744 0.0
H1203 H 0.27577 0.34179 0.77013 0.0
H1204 H 0.31773 0.34385 0.76308 0.0
H1205 H 0.23264 0.42979 0.68881 0.0
H1206 H 0.2079 0.40867 0.709 0.0
H1207 H 0.23136 0.42898 0.73143 0.0
H1208 H 0.17815 0.35503 0.79301 0.0
H1209 H 0.234 0.40815 0.83981 0.0
H1210 H 0.22764 0.34201 0.73328 0.0
H1211 H 0.20583 0.3656 0.71532 0.0
H1212 H 0.18572 0.34453 0.74027 0.0
H1213 H 0.29695 0.40848 0.79287 0.0
H1214 H 0.27292 0.43034 0.81256 0.0
H1215 H 0.27424 0.42896 0.76996 0.0
C1216 C 0.30335 0.63176 0.29847 0.0
C1217 C 0.29671 0.61846 0.32565 0.0
C1218 C 0.28535 0.62906 0.27096 0.0
C1219 C 0.2601 0.61259 0.27052 0.0
C1220 C 0.25447 0.59805 0.29721 0.0
C1221 C 0.27284 0.6012 0.32457 0.0
C1222 C 0.29222 0.64491 0.243 0.0
C1223 C 0.228 0.5801 0.29746 0.0
C1224 C 0.19389 0.63232 0.21667 0.0
C1225 C 0.20081 0.61994 0.18879 0.0
C1226 C 0.21198 0.62903 0.24401 0.0
C1227 C 0.2376 0.61287 0.24355 0.0
C1228 C 0.24357 0.59924 0.21609 0.0
C1229 C 0.22511 0.60298 0.18893 0.0
C1230 C 0.20477 0.64391 0.27281 0.0
C1231 C 0.27045 0.58165 0.21487 0.0
H1232 H 0.32198 0.64496 0.29896 0.0
H1233 H 0.26772 0.59075 0.34544 0.0
H1234 H 0.29438 0.63422 0.22112 0.0
H1235 H 0.27228 0.65746 0.23958 0.0
H1236 H 0.3143 0.65532 0.24616 0.0
H1237 H 0.22978 0.56779 0.31786 0.0
H1238 H 0.20493 0.58945 0.29885 0.0
H1239 H 0.22802 0.56959 0.27531 0.0
H1240 H 0.17495 0.64528 0.21689 0.0
H1241 H 0.23045 0.59322 0.16752 0.0
H1242 H 0.22443 0.65658 0.27694 0.0
H1243 H 0.20284 0.63254 0.29408 0.0
H1244 H 0.18247 0.65415 0.27021 0.0
H1245 H 0.2933 0.59132 0.21407 0.0
H1246 H 0.26898 0.56998 0.19378 0.0
H1247 H 0.27063 0.57044 0.2364 0.0
loop_
_geom_bond_atom_site_label_1
_geom_bond_atom_site_label_2
_geom_bond_distance
_geom_bond_site_symmetry_2
_ccdc_geom_bond_type
O0 Cd1 2.223 . S
O0 C8 1.315 . S
Cd1 O0 2.223 . S
Cd1 O4 2.297 . S
Cd1 O5 2.439 . S
Cd1 O11 2.240 . S
Cd2 O3 2.240 . S
Cd2 O10 2.223 . S
Cd2 O12 2.297 . S
Cd2 O13 2.439 . S
O3 Cd2 2.240 . S
O3 C8 1.279 . S
O4 Cd1 2.297 . S
O4 C6 1.247 . S
O5 Cd1 2.439 . S
O5 C6 1.208 . S
C6 O4 1.247 . S
C6 O5 1.208 . S
C7 O12 1.247 . S
C7 O13 1.208 . S
C8 O0 1.315 . S
C8 O3 1.279 . S
C9 O10 1.315 . S
C9 O11 1.279 . S
O10 Cd2 2.223 . S
O10 C9 1.315 . S
O11 Cd1 2.240 . S
O11 C9 1.279 . S
O12 Cd2 2.297 . S
O12 C7 1.247 . S
O13 Cd2 2.439 . S
O13 C7 1.208 . S
O14 Cd15 2.223 . S
O14 C22 1.315 . S
Cd15 O14 2.223 . S
Cd15 O18 2.297 . S
Cd15 O19 2.439 . S
Cd15 O25 2.240 . S
Cd16 O17 2.240 . S
Cd16 O24 2.223 . S
Cd16 O26 2.297 . S
Cd16 O27 2.439 . S
O17 Cd16 2.240 . S
O17 C22 1.279 . S
O18 Cd15 2.297 . S
O18 C20 1.247 . S
O19 Cd15 2.439 . S
O19 C20 1.208 . S
C20 O18 1.247 . S
C20 O19 1.208 . S
C21 O26 1.247 . S
C21 O27 1.208 . S
C22 O14 1.315 . S
C22 O17 1.279 . S
C23 O24 1.315 . S
C23 O25 1.279 . S
O24 Cd16 2.223 . S
O24 C23 1.315 . S
O25 Cd15 2.240 . S
O25 C23 1.279 . S
O26 Cd16 2.297 . S
O26 C21 1.247 . S
O27 Cd16 2.439 . S
O27 C21 1.208 . S
O28 Cd29 2.223 . S
O28 C36 1.315 . S
Cd29 O28 2.223 . S
Cd29 O32 2.297 . S
Cd29 O33 2.439 . S
Cd29 O39 2.240 . S
Cd30 O31 2.240 . S
Cd30 O38 2.223 . S
Cd30 O40 2.297 . S
Cd30 O41 2.439 . S
O31 Cd30 2.240 . S
O31 C36 1.279 . S
O32 Cd29 2.297 . S
O32 C34 1.247 . S
O33 Cd29 2.439 . S
O33 C34 1.208 . S
C34 O32 1.247 . S
C34 O33 1.208 . S
C35 O40 1.247 . S
C35 O41 1.208 . S
C36 O28 1.315 . S
C36 O31 1.279 . S
C37 O38 1.315 . S
C37 O39 1.279 . S
O38 Cd30 2.223 . S
O38 C37 1.315 . S
O39 Cd29 2.240 . S
O39 C37 1.279 . S
O40 Cd30 2.297 . S
O40 C35 1.247 . S
O41 Cd30 2.439 . S
O41 C35 1.208 . S
O42 Cd43 2.223 . S
O42 C50 1.315 . S
Cd43 O42 2.223 . S
Cd43 O46 2.297 . S
Cd43 O47 2.439 . S
Cd43 O53 2.240 . S
Cd44 O45 2.240 . S
Cd44 O52 2.223 . S
Cd44 O54 2.297 . S
Cd44 O55 2.439 . S
O45 Cd44 2.240 . S
O45 C50 1.279 . S
O46 Cd43 2.297 . S
O46 C48 1.247 . S
O47 Cd43 2.439 . S
O47 C48 1.208 . S
C48 O46 1.247 . S
C48 O47 1.208 . S
C49 O54 1.247 . S
C49 O55 1.208 . S
C50 O42 1.315 . S
C50 O45 1.279 . S
C51 O52 1.315 . S
C51 O53 1.279 . S
O52 Cd44 2.223 . S
O52 C51 1.315 . S
O53 Cd43 2.240 . S
O53 C51 1.279 . S
O54 Cd44 2.297 . S
O54 C49 1.247 . S
O55 Cd44 2.439 . S
O55 C49 1.208 . S
O56 Cd57 2.223 . S
O56 C64 1.315 . S
Cd57 O56 2.223 . S
Cd57 O60 2.297 . S
Cd57 O61 2.439 . S
Cd57 O67 2.240 . S
Cd58 O59 2.240 . S
Cd58 O66 2.223 . S
Cd58 O68 2.297 . S
Cd58 O69 2.439 . S
O59 Cd58 2.240 . S
O59 C64 1.279 . S
O60 Cd57 2.297 . S
O60 C62 1.247 . S
O61 Cd57 2.439 . S
O61 C62 1.208 . S
C62 O60 1.247 . S
C62 O61 1.208 . S
C63 O68 1.247 . S
C63 O69 1.208 . S
C64 O56 1.315 . S
C64 O59 1.279 . S
C65 O66 1.315 . S
C65 O67 1.279 . S
O66 Cd58 2.223 . S
O66 C65 1.315 . S
O67 Cd57 2.240 . S
O67 C65 1.279 . S
O68 Cd58 2.297 . S
O68 C63 1.247 . S
O69 Cd58 2.439 . S
O69 C63 1.208 . S
O70 Cd71 2.223 . S
O70 C78 1.315 . S
Cd71 O70 2.223 . S
Cd71 O74 2.297 . S
Cd71 O75 2.439 . S
Cd71 O81 2.240 . S
Cd72 O73 2.240 . S
Cd72 O80 2.223 . S
Cd72 O82 2.297 . S
Cd72 O83 2.439 . S
O73 Cd72 2.240 . S
O73 C78 1.279 . S
O74 Cd71 2.297 . S
O74 C76 1.247 . S
O75 Cd71 2.439 . S
O75 C76 1.208 . S
C76 O74 1.247 . S
C76 O75 1.208 . S
C77 O82 1.247 . S
C77 O83 1.208 . S
C78 O70 1.315 . S
C78 O73 1.279 . S
C79 O80 1.315 . S
C79 O81 1.279 . S
O80 Cd72 2.223 . S
O80 C79 1.315 . S
O81 Cd71 2.240 . S
O81 C79 1.279 . S
O82 Cd72 2.297 . S
O82 C77 1.247 . S
O83 Cd72 2.439 . S
O83 C77 1.208 . S
O84 Cd85 2.223 . S
O84 C92 1.315 . S
Cd85 O84 2.223 . S
Cd85 O88 2.297 . S
Cd85 O89 2.439 . S
Cd85 O95 2.240 . S
Cd86 O87 2.240 . S
Cd86 O94 2.223 . S
Cd86 O96 2.297 . S
Cd86 O97 2.439 . S
O87 Cd86 2.240 . S
O87 C92 1.279 . S
O88 Cd85 2.297 . S
O88 C90 1.247 . S
O89 Cd85 2.439 . S
O89 C90 1.208 . S
C90 O88 1.247 . S
C90 O89 1.208 . S
C91 O96 1.247 . S
C91 O97 1.208 . S
C92 O84 1.315 . S
C92 O87 1.279 . S
C93 O94 1.315 . S
C93 O95 1.279 . S
O94 Cd86 2.223 . S
O94 C93 1.315 . S
O95 Cd85 2.240 . S
O95 C93 1.279 . S
O96 Cd86 2.297 . S
O96 C91 1.247 . S
O97 Cd86 2.439 . S
O97 C91 1.208 . S
O98 Cd99 2.223 . S
O98 C106 1.315 . S
Cd99 O98 2.223 . S
Cd99 O102 2.297 . S
Cd99 O103 2.439 . S
Cd99 O109 2.240 . S
Cd100 O101 2.240 . S
Cd100 O108 2.223 . S
Cd100 O110 2.297 . S
Cd100 O111 2.439 . S
O101 Cd100 2.240 . S
O101 C106 1.279 . S
O102 Cd99 2.297 . S
O102 C104 1.247 . S
O103 Cd99 2.439 . S
O103 C104 1.208 . S
C104 O102 1.247 . S
C104 O103 1.208 . S
C105 O110 1.247 . S
C105 O111 1.208 . S
C106 O98 1.315 . S
C106 O101 1.279 . S
C107 O108 1.315 . S
C107 O109 1.279 . S
O108 Cd100 2.223 . S
O108 C107 1.315 . S
O109 Cd99 2.240 . S
O109 C107 1.279 . S
O110 Cd100 2.297 . S
O110 C105 1.247 . S
O111 Cd100 2.439 . S
O111 C105 1.208 . S
O112 Cd113 2.223 . S
O112 C120 1.315 . S
Cd113 O112 2.223 . S
Cd113 O116 2.297 . S
Cd113 O117 2.439 . S
Cd113 O123 2.240 . S
Cd114 O115 2.240 . S
Cd114 O122 2.223 . S
Cd114 O124 2.297 . S
Cd114 O125 2.439 . S
O115 Cd114 2.240 . S
O115 C120 1.279 . S
O116 Cd113 2.297 . S
O116 C118 1.247 . S
O117 Cd113 2.439 . S
O117 C118 1.208 . S
C118 O116 1.247 . S
C118 O117 1.208 . S
C119 O124 1.247 . S
C119 O125 1.208 . S
C120 O112 1.315 . S
C120 O115 1.279 . S
C121 O122 1.315 . S
C121 O123 1.279 . S
O122 Cd114 2.223 . S
O122 C121 1.315 . S
O123 Cd113 2.240 . S
O123 C121 1.279 . S
O124 Cd114 2.297 . S
O124 C119 1.247 . S
O125 Cd114 2.439 . S
O125 C119 1.208 . S
O126 Cd127 2.223 . S
O126 C134 1.315 . S
Cd127 O126 2.223 . S
Cd127 O130 2.297 . S
Cd127 O131 2.439 . S
Cd127 O137 2.240 . S
Cd128 O129 2.240 . S
Cd128 O136 2.223 . S
Cd128 O138 2.297 . S
Cd128 O139 2.439 . S
O129 Cd128 2.240 . S
O129 C134 1.279 . S
O130 Cd127 2.297 . S
O130 C132 1.247 . S
O131 Cd127 2.439 . S
O131 C132 1.208 . S
C132 O130 1.247 . S
C132 O131 1.208 . S
C133 O138 1.247 . S
C133 O139 1.208 . S
C134 O126 1.315 . S
C134 O129 1.279 . S
C135 O136 1.315 . S
C135 O137 1.279 . S
O136 Cd128 2.223 . S
O136 C135 1.315 . S
O137 Cd127 2.240 . S
O137 C135 1.279 . S
O138 Cd128 2.297 . S
O138 C133 1.247 . S
O139 Cd128 2.439 . S
O139 C133 1.208 . S
O140 Cd141 2.223 . S
O140 C148 1.315 . S
Cd141 O140 2.223 . S
Cd141 O144 2.297 . S
Cd141 O145 2.439 . S
Cd141 O151 2.240 . S
Cd142 O143 2.240 . S
Cd142 O150 2.223 . S
Cd142 O152 2.297 . S
Cd142 O153 2.439 . S
O143 Cd142 2.240 . S
O143 C148 1.279 . S
O144 Cd141 2.297 . S
O144 C146 1.247 . S
O145 Cd141 2.439 . S
O145 C146 1.208 . S
C146 O144 1.247 . S
C146 O145 1.208 . S
C147 O152 1.247 . S
C147 O153 1.208 . S
C148 O140 1.315 . S
C148 O143 1.279 . S
C149 O150 1.315 . S
C149 O151 1.279 . S
O150 Cd142 2.223 . S
O150 C149 1.315 . S
O151 Cd141 2.240 . S
O151 C149 1.279 . S
O152 Cd142 2.297 . S
O152 C147 1.247 . S
O153 Cd142 2.439 . S
O153 C147 1.208 . S
O154 Cd155 2.223 . S
O154 C162 1.315 . S
Cd155 O154 2.223 . S
Cd155 O158 2.297 . S
Cd155 O159 2.439 . S
Cd155 O165 2.240 . S
Cd156 O157 2.240 . S
Cd156 O164 2.223 . S
Cd156 O166 2.297 . S
Cd156 O167 2.439 . S
O157 Cd156 2.240 . S
O157 C162 1.279 . S
O158 Cd155 2.297 . S
O158 C160 1.247 . S
O159 Cd155 2.439 . S
O159 C160 1.208 . S
C160 O158 1.247 . S
C160 O159 1.208 . S
C161 O166 1.247 . S
C161 O167 1.208 . S
C162 O154 1.315 . S
C162 O157 1.279 . S
C163 O164 1.315 . S
C163 O165 1.279 . S
O164 Cd156 2.223 . S
O164 C163 1.315 . S
O165 Cd155 2.240 . S
O165 C163 1.279 . S
O166 Cd156 2.297 . S
O166 C161 1.247 . S
O167 Cd156 2.439 . S
O167 C161 1.208 . S
O168 Cd169 2.223 . S
O168 C176 1.315 . S
Cd169 O168 2.223 . S
Cd169 O172 2.297 . S
Cd169 O173 2.439 . S
Cd169 O179 2.240 . S
Cd170 O171 2.240 . S
Cd170 O178 2.223 . S
Cd170 O180 2.297 . S
Cd170 O181 2.439 . S
O171 Cd170 2.240 . S
O171 C176 1.279 . S
O172 Cd169 2.297 . S
O172 C174 1.247 . S
O173 Cd169 2.439 . S
O173 C174 1.208 . S
C174 O172 1.247 . S
C174 O173 1.208 . S
C175 O180 1.247 . S
C175 O181 1.208 . S
C176 O168 1.315 . S
C176 O171 1.279 . S
C177 O178 1.315 . S
C177 O179 1.279 . S
O178 Cd170 2.223 . S
O178 C177 1.315 . S
O179 Cd169 2.240 . S
O179 C177 1.279 . S
O180 Cd170 2.297 . S
O180 C175 1.247 . S
O181 Cd170 2.439 . S
O181 C175 1.208 . S
O182 Cd183 2.223 . S
O182 C190 1.315 . S
Cd183 O182 2.223 . S
Cd183 O186 2.297 . S
Cd183 O187 2.439 . S
Cd183 O193 2.240 . S
Cd184 O185 2.240 . S
Cd184 O192 2.223 . S
Cd184 O194 2.297 . S
Cd184 O195 2.439 . S
O185 Cd184 2.240 . S
O185 C190 1.279 . S
O186 Cd183 2.297 . S
O186 C188 1.247 . S
O187 Cd183 2.439 . S
O187 C188 1.208 . S
C188 O186 1.247 . S
C188 O187 1.208 . S
C189 O194 1.247 . S
C189 O195 1.208 . S
C190 O182 1.315 . S
C190 O185 1.279 . S
C191 O192 1.315 . S
C191 O193 1.279 . S
O192 Cd184 2.223 . S
O192 C191 1.315 . S
O193 Cd183 2.240 . S
O193 C191 1.279 . S
O194 Cd184 2.297 . S
O194 C189 1.247 . S
O195 Cd184 2.439 . S
O195 C189 1.208 . S
O196 Cd197 2.223 . S
O196 C204 1.315 . S
Cd197 O196 2.223 . S
Cd197 O200 2.297 . S
Cd197 O201 2.439 . S
Cd197 O207 2.240 . S
Cd198 O199 2.240 . S
Cd198 O206 2.223 . S
Cd198 O208 2.297 . S
Cd198 O209 2.439 . S
O199 Cd198 2.240 . S
O199 C204 1.279 . S
O200 Cd197 2.297 . S
O200 C202 1.247 . S
O201 Cd197 2.439 . S
O201 C202 1.208 . S
C202 O200 1.247 . S
C202 O201 1.208 . S
C203 O208 1.247 . S
C203 O209 1.208 . S
C204 O196 1.315 . S
C204 O199 1.279 . S
C205 O206 1.315 . S
C205 O207 1.279 . S
O206 Cd198 2.223 . S
O206 C205 1.315 . S
O207 Cd197 2.240 . S
O207 C205 1.279 . S
O208 Cd198 2.297 . S
O208 C203 1.247 . S
O209 Cd198 2.439 . S
O209 C203 1.208 . S
O210 Cd211 2.223 . S
O210 C218 1.315 . S
Cd211 O210 2.223 . S
Cd211 O214 2.297 . S
Cd211 O215 2.439 . S
Cd211 O221 2.240 . S
Cd212 O213 2.240 . S
Cd212 O220 2.223 . S
Cd212 O222 2.297 . S
Cd212 O223 2.439 . S
O213 Cd212 2.240 . S
O213 C218 1.279 . S
O214 Cd211 2.297 . S
O214 C216 1.247 . S
O215 Cd211 2.439 . S
O215 C216 1.208 . S
C216 O214 1.247 . S
C216 O215 1.208 . S
C217 O222 1.247 . S
C217 O223 1.208 . S
C218 O210 1.315 . S
C218 O213 1.279 . S
C219 O220 1.315 . S
C219 O221 1.279 . S
O220 Cd212 2.223 . S
O220 C219 1.315 . S
O221 Cd211 2.240 . S
O221 C219 1.279 . S
O222 Cd212 2.297 . S
O222 C217 1.247 . S
O223 Cd212 2.439 . S
O223 C217 1.208 . S
C224 C225 1.391 . S
C224 C226 1.394 . S
C224 H240 0.931 . S
C225 C224 1.391 . S
C225 C229 1.376 . S
C226 C224 1.394 . S
C226 C227 1.369 . S
C226 C230 1.531 . S
C227 C226 1.369 . S
C227 C228 1.410 . S
C227 C235 1.503 1_554 S
C228 C227 1.410 . S
C228 C229 1.393 . S
C228 C231 1.510 1_554 S
C229 C225 1.376 . S
C229 C228 1.393 . S
C229 H241 0.929 . S
C230 C226 1.531 . S
C230 H242 0.960 . S
C230 H243 0.962 . S
C230 H244 0.960 . S
C231 C228 1.510 1_556 S
C231 H245 0.961 . S
C231 H246 0.961 . S
C231 H247 0.961 . S
C232 C233 1.370 . S
C232 C234 1.363 . S
C232 H248 0.931 . S
C233 C232 1.370 . S
C233 C237 1.408 . S
C234 C232 1.363 . S
C234 C235 1.370 . S
C234 C238 1.524 . S
C235 C227 1.503 1_556 S
C235 C234 1.370 . S
C235 C236 1.403 . S
C236 C235 1.403 . S
C236 C237 1.404 . S
C236 C239 1.539 1_556 S
C237 C233 1.408 . S
C237 C236 1.404 . S
C237 H249 0.930 . S
C238 C234 1.524 . S
C238 H250 0.956 . S
C238 H251 0.961 . S
C238 H252 0.961 . S
C239 C236 1.539 1_554 S
C239 H253 0.958 . S
C239 H254 0.961 . S
C239 H255 0.960 . S
H240 C224 0.931 . S
H241 C229 0.929 . S
H242 C230 0.960 . S
H243 C230 0.962 . S
H244 C230 0.960 . S
H245 C231 0.961 . S
H246 C231 0.961 . S
H247 C231 0.961 . S
H248 C232 0.931 . S
H249 C237 0.930 . S
H250 C238 0.956 . S
H251 C238 0.961 . S
H252 C238 0.961 . S
H253 C239 0.958 . S
H254 C239 0.961 . S
H255 C239 0.960 . S
C256 C257 1.391 . S
C256 C258 1.394 . S
C256 H272 0.931 . S
C257 C256 1.391 . S
C257 C261 1.376 . S
C258 C256 1.394 . S
C258 C259 1.369 . S
C258 C262 1.531 . S
C259 C258 1.369 . S
C259 C260 1.410 . S
C259 C267 1.503 . S
C260 C259 1.410 . S
C260 C261 1.392 . S
C260 C263 1.511 . S
C261 C257 1.376 . S
C261 C260 1.392 . S
C261 H273 0.929 . S
C262 C258 1.531 . S
C262 H274 0.960 . S
C262 H275 0.962 . S
C262 H276 0.960 . S
C263 C260 1.511 . S
C263 H277 0.961 . S
C263 H278 0.961 . S
C263 H279 0.961 . S
C264 C265 1.370 . S
C264 C266 1.363 . S
C264 H280 0.931 . S
C265 C264 1.370 . S
C265 C269 1.408 . S
C266 C264 1.363 . S
C266 C267 1.370 . S
C266 C270 1.524 . S
C267 C259 1.503 . S
C267 C266 1.370 . S
C267 C268 1.403 . S
C268 C267 1.403 . S
C268 C269 1.404 . S
C268 C271 1.539 . S
C269 C265 1.408 . S
C269 C268 1.404 . S
C269 H281 0.930 . S
C270 C266 1.524 . S
C270 H282 0.956 . S
C270 H283 0.961 . S
C270 H284 0.961 . S
C271 C268 1.539 . S
C271 H285 0.958 . S
C271 H286 0.961 . S
C271 H287 0.960 . S
H272 C256 0.931 . S
H273 C261 0.929 . S
H274 C262 0.960 . S
H275 C262 0.962 . S
H276 C262 0.960 . S
H277 C263 0.961 . S
H278 C263 0.961 . S
H279 C263 0.961 . S
H280 C264 0.931 . S
H281 C269 0.930 . S
H282 C270 0.956 . S
H283 C270 0.961 . S
H284 C270 0.961 . S
H285 C271 0.958 . S
H286 C271 0.961 . S
H287 C271 0.960 . S
C288 C289 1.391 1_554 S
C288 C290 1.394 . S
C288 H304 0.931 . S
C289 C288 1.391 1_556 S
C289 C293 1.376 . S
C290 C288 1.394 . S
C290 C291 1.369 . S
C290 C294 1.531 . S
C291 C290 1.369 . S
C291 C292 1.410 1_554 S
C291 C299 1.503 . S
C292 C291 1.410 1_556 S
C292 C293 1.392 . S
C292 C295 1.511 . S
C293 C289 1.376 . S
C293 C292 1.392 . S
C293 H305 0.929 . S
C294 C290 1.531 . S
C294 H306 0.960 . S
C294 H307 0.962 . S
C294 H308 0.960 . S
C295 C292 1.511 . S
C295 H309 0.961 . S
C295 H310 0.961 . S
C295 H311 0.961 . S
C296 C297 1.370 . S
C296 C298 1.363 . S
C296 H312 0.931 . S
C297 C296 1.370 . S
C297 C301 1.408 . S
C298 C296 1.363 . S
C298 C299 1.370 . S
C298 C302 1.524 . S
C299 C291 1.503 . S
C299 C298 1.370 . S
C299 C300 1.403 . S
C300 C299 1.403 . S
C300 C301 1.404 . S
C300 C303 1.539 . S
C301 C297 1.408 . S
C301 C300 1.404 . S
C301 H313 0.930 . S
C302 C298 1.524 . S
C302 H314 0.956 . S
C302 H315 0.961 . S
C302 H316 0.961 . S
C303 C300 1.539 . S
C303 H317 0.958 . S
C303 H318 0.961 . S
C303 H319 0.960 1_554 S
H304 C288 0.931 . S
H305 C293 0.929 . S
H306 C294 0.960 . S
H307 C294 0.962 . S
H308 C294 0.960 . S
H309 C295 0.961 . S
H310 C295 0.961 . S
H311 C295 0.961 . S
H312 C296 0.931 . S
H313 C301 0.930 . S
H314 C302 0.956 . S
H315 C302 0.961 . S
H316 C302 0.961 . S
H317 C303 0.958 . S
H318 C303 0.961 . S
H319 C303 0.960 1_556 S
C320 C321 1.391 . S
C320 C322 1.394 . S
C320 H336 0.931 . S
C321 C320 1.391 . S
C321 C325 1.376 . S
C322 C320 1.394 . S
C322 C323 1.369 . S
C322 C326 1.531 . S
C323 C322 1.369 . S
C323 C324 1.410 . S
C323 C331 1.503 . S
C324 C323 1.410 . S
C324 C325 1.392 . S
C324 C327 1.511 . S
C325 C321 1.376 . S
C325 C324 1.392 . S
C325 H337 0.929 . S
C326 C322 1.531 . S
C326 H338 0.960 . S
C326 H339 0.962 . S
C326 H340 0.960 . S
C327 C324 1.511 . S
C327 H341 0.961 . S
C327 H342 0.961 . S
C327 H343 0.961 . S
C328 C329 1.370 . S
C328 C330 1.363 . S
C328 H344 0.931 . S
C329 C328 1.370 . S
C329 C333 1.408 . S
C330 C328 1.363 . S
C330 C331 1.370 . S
C330 C334 1.524 . S
C331 C323 1.503 . S
C331 C330 1.370 . S
C331 C332 1.403 . S
C332 C331 1.403 . S
C332 C333 1.404 . S
C332 C335 1.539 . S
C333 C329 1.408 . S
C333 C332 1.404 . S
C333 H345 0.930 . S
C334 C330 1.524 . S
C334 H346 0.956 . S
C334 H347 0.961 . S
C334 H348 0.961 . S
C335 C332 1.539 . S
C335 H349 0.958 . S
C335 H350 0.961 . S
C335 H351 0.960 . S
H336 C320 0.931 . S
H337 C325 0.929 . S
H338 C326 0.960 . S
H339 C326 0.962 . S
H340 C326 0.960 . S
H341 C327 0.961 . S
H342 C327 0.961 . S
H343 C327 0.961 . S
H344 C328 0.931 . S
H345 C333 0.930 . S
H346 C334 0.956 . S
H347 C334 0.961 . S
H348 C334 0.961 . S
H349 C335 0.958 . S
H350 C335 0.961 . S
H351 C335 0.960 . S
C352 C353 1.391 . S
C352 C354 1.394 1_554 S
C352 H368 0.937 . S
C353 C352 1.391 . S
C353 C357 1.376 . S
C354 C352 1.394 1_556 S
C354 C355 1.369 . S
C354 C358 1.531 . S
C355 C354 1.369 . S
C355 C356 1.410 1_556 S
C355 C363 1.503 . S
C356 C355 1.410 1_554 S
C356 C357 1.392 . S
C356 C359 1.511 . S
C357 C353 1.376 . S
C357 C356 1.392 . S
C357 H369 0.929 . S
C358 C354 1.531 . S
C358 H370 0.960 . S
C358 H371 0.962 . S
C358 H372 0.960 . S
C359 C356 1.511 . S
C359 H373 0.961 . S
C359 H374 0.961 . S
C359 H375 0.961 . S
C360 C361 1.370 . S
C360 C362 1.363 . S
C360 H376 0.931 . S
C361 C360 1.370 . S
C361 C365 1.408 . S
C362 C360 1.363 . S
C362 C363 1.370 . S
C362 C366 1.524 1_556 S
C363 C355 1.503 . S
C363 C362 1.370 . S
C363 C364 1.403 . S
C364 C363 1.403 . S
C364 C365 1.404 . S
C364 C367 1.539 . S
C365 C361 1.408 . S
C365 C364 1.404 . S
C365 H377 0.930 . S
C366 C362 1.524 1_554 S
C366 H378 0.956 . S
C366 H379 0.961 . S
C366 H380 0.961 . S
C367 C364 1.539 . S
C367 H381 0.958 . S
C367 H382 0.961 . S
C367 H383 0.960 . S
H368 C352 0.937 . S
H369 C357 0.929 . S
H370 C358 0.960 . S
H371 C358 0.962 . S
H372 C358 0.960 . S
H373 C359 0.961 . S
H374 C359 0.961 . S
H375 C359 0.961 . S
H376 C360 0.931 . S
H377 C365 0.930 . S
H378 C366 0.956 . S
H379 C366 0.961 . S
H380 C366 0.961 . S
H381 C367 0.958 . S
H382 C367 0.961 . S
H383 C367 0.960 . S
C384 C385 1.391 . S
C384 C386 1.394 . S
C384 H400 0.931 . S
C385 C384 1.391 . S
C385 C389 1.376 . S
C386 C384 1.394 . S
C386 C387 1.369 . S
C386 C390 1.531 . S
C387 C386 1.369 . S
C387 C388 1.410 . S
C387 C395 1.503 . S
C388 C387 1.410 . S
C388 C389 1.392 . S
C388 C391 1.511 . S
C389 C385 1.376 . S
C389 C388 1.392 . S
C389 H401 0.929 . S
C390 C386 1.531 . S
C390 H402 0.960 . S
C390 H403 0.962 . S
C390 H404 0.960 . S
C391 C388 1.511 . S
C391 H405 0.961 . S
C391 H406 0.961 . S
C391 H407 0.961 . S
C392 C393 1.370 . S
C392 C394 1.363 . S
C392 H408 0.931 . S
C393 C392 1.370 . S
C393 C397 1.408 . S
C394 C392 1.363 . S
C394 C395 1.370 . S
C394 C398 1.524 . S
C395 C387 1.503 . S
C395 C394 1.370 . S
C395 C396 1.403 . S
C396 C395 1.403 . S
C396 C397 1.404 . S
C396 C399 1.539 . S
C397 C393 1.408 . S
C397 C396 1.404 . S
C397 H409 0.930 . S
C398 C394 1.524 . S
C398 H410 0.956 . S
C398 H411 0.961 . S
C398 H412 0.961 . S
C399 C396 1.539 . S
C399 H413 0.958 . S
C399 H414 0.961 . S
C399 H415 0.960 . S
H400 C384 0.931 . S
H401 C389 0.929 . S
H402 C390 0.960 . S
H403 C390 0.962 . S
H404 C390 0.960 . S
H405 C391 0.961 . S
H406 C391 0.961 . S
H407 C391 0.961 . S
H408 C392 0.931 . S
H409 C397 0.930 . S
H410 C398 0.956 . S
H411 C398 0.961 . S
H412 C398 0.961 . S
H413 C399 0.958 . S
H414 C399 0.961 . S
H415 C399 0.960 . S
C416 C417 1.391 . S
C416 C418 1.394 1_556 S
C416 H432 0.931 . S
C417 C416 1.391 . S
C417 C421 1.376 . S
C418 C416 1.394 1_554 S
C418 C419 1.369 . S
C418 C422 1.531 . S
C419 C418 1.369 . S
C419 C420 1.410 1_554 S
C419 C427 1.503 . S
C420 C419 1.410 1_556 S
C420 C421 1.392 . S
C420 C423 1.511 1_556 S
C421 C417 1.376 . S
C421 C420 1.392 . S
C421 H433 0.929 . S
C422 C418 1.531 . S
C422 H434 0.960 . S
C422 H435 0.962 . S
C422 H436 0.960 . S
C423 C420 1.511 1_554 S
C423 H437 0.961 1_554 S
C423 H438 0.961 . S
C423 H439 0.961 . S
C424 C425 1.370 . S
C424 C426 1.363 . S
C424 H440 0.931 . S
C425 C424 1.370 . S
C425 C429 1.408 . S
C426 C424 1.363 . S
C426 C427 1.370 . S
C426 C430 1.524 1_554 S
C427 C419 1.503 . S
C427 C426 1.370 . S
C427 C428 1.403 . S
C428 C427 1.403 . S
C428 C429 1.404 . S
C428 C431 1.539 . S
C429 C425 1.408 . S
C429 C428 1.404 . S
C429 H441 0.930 . S
C430 C426 1.524 1_556 S
C430 H442 0.956 . S
C430 H443 0.961 . S
C430 H444 0.961 . S
C431 C428 1.539 . S
C431 H445 0.958 . S
C431 H446 0.961 . S
C431 H447 0.960 . S
H432 C416 0.931 . S
H433 C421 0.929 . S
H434 C422 0.960 . S
H435 C422 0.962 . S
H436 C422 0.960 . S
H437 C423 0.961 1_556 S
H438 C423 0.961 . S
H439 C423 0.961 . S
H440 C424 0.931 . S
H441 C429 0.930 . S
H442 C430 0.956 . S
H443 C430 0.961 . S
H444 C430 0.961 . S
H445 C431 0.958 . S
H446 C431 0.961 . S
H447 C431 0.960 . S
C448 C449 1.391 . S
C448 C450 1.394 . S
C448 H464 0.931 . S
C449 C448 1.391 . S
C449 C453 1.376 . S
C450 C448 1.394 . S
C450 C451 1.369 . S
C450 C454 1.531 . S
C451 C450 1.369 . S
C451 C452 1.410 . S
C451 C459 1.503 . S
C452 C451 1.410 . S
C452 C453 1.392 . S
C452 C455 1.511 . S
C453 C449 1.376 . S
C453 C452 1.392 . S
C453 H465 0.929 . S
C454 C450 1.531 . S
C454 H466 0.960 . S
C454 H467 0.962 . S
C454 H468 0.960 . S
C455 C452 1.511 . S
C455 H469 0.961 . S
C455 H470 0.961 . S
C455 H471 0.961 . S
C456 C457 1.370 . S
C456 C458 1.363 . S
C456 H472 0.931 . S
C457 C456 1.370 . S
C457 C461 1.408 . S
C458 C456 1.363 . S
C458 C459 1.370 . S
C458 C462 1.524 . S
C459 C451 1.503 . S
C459 C458 1.370 . S
C459 C460 1.403 . S
C460 C459 1.403 . S
C460 C461 1.404 . S
C460 C463 1.539 . S
C461 C457 1.408 . S
C461 C460 1.404 . S
C461 H473 0.930 . S
C462 C458 1.524 . S
C462 H474 0.956 . S
C462 H475 0.961 . S
C462 H476 0.961 . S
C463 C460 1.539 . S
C463 H477 0.958 . S
C463 H478 0.961 . S
C463 H479 0.960 . S
H464 C448 0.931 . S
H465 C453 0.929 . S
H466 C454 0.960 . S
H467 C454 0.962 . S
H468 C454 0.960 . S
H469 C455 0.961 . S
H470 C455 0.961 . S
H471 C455 0.961 . S
H472 C456 0.931 . S
H473 C461 0.930 . S
H474 C462 0.956 . S
H475 C462 0.961 . S
H476 C462 0.961 . S
H477 C463 0.958 . S
H478 C463 0.961 . S
H479 C463 0.960 . S
C480 C481 1.391 . S
C480 C482 1.394 . S
C480 H496 0.931 . S
C481 C480 1.391 . S
C481 C485 1.376 . S
C482 C480 1.394 . S
C482 C483 1.369 . S
C482 C486 1.531 . S
C483 C482 1.369 . S
C483 C484 1.410 . S
C483 C491 1.503 1_545 S
C484 C483 1.410 . S
C484 C485 1.392 . S
C484 C487 1.511 1_554 S
C485 C481 1.376 . S
C485 C484 1.392 . S
C485 H497 0.929 . S
C486 C482 1.531 . S
C486 H498 0.960 1_545 S
C486 H499 0.962 . S
C486 H500 0.960 . S
C487 C484 1.511 1_556 S
C487 H501 0.961 . S
C487 H502 0.992 . S
C487 H503 0.961 1_556 S
C488 C489 1.370 . S
C488 C490 1.363 . S
C488 H504 0.931 . S
C489 C488 1.370 . S
C489 C493 1.408 1_556 S
C490 C488 1.363 . S
C490 C491 1.370 1_556 S
C490 C494 1.524 . S
C491 C483 1.503 1_565 S
C491 C490 1.370 1_554 S
C491 C492 1.403 . S
C492 C491 1.403 . S
C492 C493 1.404 . S
C492 C495 1.539 . S
C493 C489 1.408 1_554 S
C493 C492 1.404 . S
C493 H505 0.930 . S
C494 C490 1.524 . S
C494 H506 0.956 1_565 S
C494 H507 0.961 1_565 S
C494 H508 0.961 . S
C495 C492 1.539 . S
C495 H509 0.958 . S
C495 H510 0.961 . S
C495 H511 0.960 . S
H496 C480 0.931 . S
H497 C485 0.929 . S
H498 C486 0.960 1_565 S
H499 C486 0.962 . S
H500 C486 0.960 . S
H501 C487 0.961 . S
H502 C487 0.992 . S
H503 C487 0.961 1_554 S
H504 C488 0.931 . S
H505 C493 0.930 . S
H506 C494 0.956 1_545 S
H507 C494 0.961 1_545 S
H508 C494 0.961 . S
H509 C495 0.958 . S
H510 C495 0.961 . S
H511 C495 0.960 . S
C512 C513 1.391 . S
C512 C514 1.394 . S
C512 H528 0.931 . S
C513 C512 1.391 . S
C513 C517 1.376 . S
C514 C512 1.394 . S
C514 C515 1.369 . S
C514 C518 1.531 . S
C515 C514 1.369 . S
C515 C516 1.410 . S
C515 C523 1.503 1_565 S
C516 C515 1.410 . S
C516 C517 1.392 . S
C516 C519 1.511 . S
C517 C513 1.376 . S
C517 C516 1.392 . S
C517 H529 0.929 . S
C518 C514 1.531 . S
C518 H530 0.960 1_565 S
C518 H531 0.974 . S
C518 H532 0.960 . S
C519 C516 1.511 . S
C519 H533 0.961 . S
C519 H534 0.961 . S
C519 H535 0.961 . S
C520 C521 1.370 . S
C520 C522 1.363 . S
C520 H536 0.931 . S
C521 C520 1.370 . S
C521 C525 1.408 . S
C522 C520 1.363 . S
C522 C523 1.370 . S
C522 C526 1.524 . S
C523 C515 1.503 1_545 S
C523 C522 1.370 . S
C523 C524 1.403 . S
C524 C523 1.403 . S
C524 C525 1.404 . S
C524 C527 1.539 . S
C525 C521 1.408 . S
C525 C524 1.404 . S
C525 H537 0.930 . S
C526 C522 1.524 . S
C526 H538 0.956 . S
C526 H539 0.961 . S
C526 H540 0.961 . S
C527 C524 1.539 . S
C527 H541 0.958 . S
C527 H542 0.961 . S
C527 H543 0.960 1_545 S
H528 C512 0.931 . S
H529 C517 0.929 . S
H530 C518 0.960 1_545 S
H531 C518 0.974 . S
H532 C518 0.960 . S
H533 C519 0.961 . S
H534 C519 0.961 . S
H535 C519 0.961 . S
H536 C520 0.931 . S
H537 C525 0.930 . S
H538 C526 0.956 . S
H539 C526 0.961 . S
H540 C526 0.961 . S
H541 C527 0.958 . S
H542 C527 0.961 . S
H543 C527 0.960 1_565 S
C544 C545 1.391 . S
C544 C546 1.394 . S
C544 H560 0.931 . S
C545 C544 1.391 . S
C545 C549 1.376 . S
C546 C544 1.394 . S
C546 C547 1.369 . S
C546 C550 1.531 1_565 S
C547 C546 1.369 . S
C547 C548 1.410 . S
C547 C555 1.503 1_566 S
C548 C547 1.410 . S
C548 C549 1.392 . S
C548 C551 1.511 1_556 S
C549 C545 1.376 . S
C549 C548 1.392 . S
C549 H561 0.929 . S
C550 C546 1.531 1_545 S
C550 H562 0.960 . S
C550 H563 0.962 . S
C550 H564 0.960 . S
C551 C548 1.511 1_554 S
C551 H565 0.961 . S
C551 H566 0.961 . S
C551 H567 0.961 . S
C552 C553 1.370 . S
C552 C554 1.363 . S
C552 H568 0.931 . S
C553 C552 1.370 . S
C553 C557 1.408 . S
C554 C552 1.363 . S
C554 C555 1.370 . S
C554 C558 1.524 1_545 S
C555 C547 1.503 1_544 S
C555 C554 1.370 . S
C555 C556 1.395 1_554 S
C556 C555 1.395 1_556 S
C556 C557 1.382 1_556 S
C556 C559 1.568 . S
C557 C553 1.408 . S
C557 C556 1.382 1_554 S
C557 H569 0.930 . S
C558 C554 1.524 1_565 S
C558 H570 0.956 . S
C558 H571 0.961 . S
C558 H572 0.961 . S
C559 C556 1.568 . S
C559 H573 0.958 . S
C559 H574 0.961 . S
C559 H575 0.960 . S
H560 C544 0.931 . S
H561 C549 0.929 . S
H562 C550 0.960 . S
H563 C550 0.962 . S
H564 C550 0.960 . S
H565 C551 0.961 . S
H566 C551 0.961 . S
H567 C551 0.961 . S
H568 C552 0.931 . S
H569 C557 0.930 . S
H570 C558 0.956 . S
H571 C558 0.961 . S
H572 C558 0.961 . S
H573 C559 0.958 . S
H574 C559 0.961 . S
H575 C559 0.960 . S
C576 C577 1.391 . S
C576 C578 1.394 . S
C576 H592 0.931 . S
C577 C576 1.391 . S
C577 C581 1.376 . S
C578 C576 1.394 . S
C578 C579 1.369 . S
C578 C582 1.531 . S
C579 C578 1.369 . S
C579 C580 1.410 . S
C579 C587 1.503 1_545 S
C580 C579 1.410 . S
C580 C581 1.392 . S
C580 C583 1.511 1_545 S
C581 C577 1.376 . S
C581 C580 1.392 . S
C581 H593 0.929 . S
C582 C578 1.531 . S
C582 H594 0.960 . S
C582 H595 0.962 . S
C582 H596 0.960 . S
C583 C580 1.511 1_565 S
C583 H597 0.961 . S
C583 H598 0.961 . S
C583 H599 0.961 . S
C584 C585 1.370 . S
C584 C586 1.363 . S
C584 H600 0.931 . S
C585 C584 1.370 . S
C585 C589 1.408 . S
C586 C584 1.363 . S
C586 C587 1.370 . S
C586 C590 1.524 . S
C587 C579 1.503 1_565 S
C587 C586 1.370 . S
C587 C588 1.403 . S
C588 C587 1.403 . S
C588 C589 1.404 . S
C588 C591 1.539 1_565 S
C589 C585 1.408 . S
C589 C588 1.404 . S
C589 H601 0.930 . S
C590 C586 1.524 . S
C590 H602 0.956 . S
C590 H603 0.961 . S
C590 H604 0.961 . S
C591 C588 1.539 1_545 S
C591 H605 0.958 . S
C591 H606 0.961 1_545 S
C591 H607 0.960 . S
H592 C576 0.931 . S
H593 C581 0.929 . S
H594 C582 0.960 . S
H595 C582 0.962 . S
H596 C582 0.960 . S
H597 C583 0.961 . S
H598 C583 0.961 . S
H599 C583 0.961 . S
H600 C584 0.931 . S
H601 C589 0.930 . S
H602 C590 0.956 . S
H603 C590 0.961 . S
H604 C590 0.961 . S
H605 C591 0.958 . S
H606 C591 0.961 1_565 S
H607 C591 0.960 . S
C608 C609 1.391 1_554 S
C608 C610 1.394 . S
C608 H624 0.931 . S
C609 C608 1.391 1_556 S
C609 C613 1.376 . S
C610 C608 1.394 . S
C610 C611 1.369 . S
C610 C614 1.531 . S
C611 C610 1.369 . S
C611 C612 1.410 1_554 S
C611 C619 1.503 . S
C612 C611 1.410 1_556 S
C612 C613 1.392 . S
C612 C615 1.511 . S
C613 C609 1.376 . S
C613 C612 1.392 . S
C613 H625 0.929 . S
C614 C610 1.531 . S
C614 H626 0.960 . S
C614 H627 0.962 . S
C614 H628 0.960 . S
C615 C612 1.511 . S
C615 H629 0.961 . S
C615 H630 0.961 . S
C615 H631 0.961 . S
C616 C617 1.370 1_556 S
C616 C618 1.363 . S
C616 H632 0.931 . S
C617 C616 1.370 1_554 S
C617 C621 1.408 . S
C618 C616 1.363 . S
C618 C619 1.370 1_556 S
C618 C622 1.524 . S
C619 C611 1.503 . S
C619 C618 1.370 1_554 S
C619 C620 1.403 . S
C620 C619 1.403 . S
C620 C621 1.404 . S
C620 C623 1.539 . S
C621 C617 1.408 . S
C621 C620 1.404 . S
C621 H633 0.930 . S
C622 C618 1.524 . S
C622 H634 0.956 . S
C622 H635 0.961 . S
C622 H636 0.961 . S
C623 C620 1.539 . S
C623 H637 0.958 . S
C623 H638 0.961 . S
C623 H639 0.960 . S
H624 C608 0.931 . S
H625 C613 0.929 . S
H626 C614 0.960 . S
H627 C614 0.962 . S
H628 C614 0.960 . S
H629 C615 0.961 . S
H630 C615 0.961 . S
H631 C615 0.961 . S
H632 C616 0.931 . S
H633 C621 0.930 . S
H634 C622 0.956 . S
H635 C622 0.961 . S
H636 C622 0.961 . S
H637 C623 0.958 . S
H638 C623 0.961 . S
H639 C623 0.960 . S
C640 C641 1.391 . S
C640 C642 1.394 . S
C640 H656 0.931 . S
C641 C640 1.391 . S
C641 C645 1.376 . S
C642 C640 1.394 . S
C642 C643 1.369 . S
C642 C646 1.531 . S
C643 C642 1.369 . S
C643 C644 1.410 . S
C643 C651 1.503 . S
C644 C643 1.410 . S
C644 C645 1.392 . S
C644 C647 1.511 . S
C645 C641 1.376 . S
C645 C644 1.392 . S
C645 H657 0.929 . S
C646 C642 1.531 . S
C646 H658 0.960 . S
C646 H659 0.962 . S
C646 H660 0.960 . S
C647 C644 1.511 . S
C647 H661 0.961 . S
C647 H662 0.961 . S
C647 H663 0.961 . S
C648 C649 1.370 . S
C648 C650 1.363 . S
C648 H664 0.931 . S
C649 C648 1.370 . S
C649 C653 1.408 . S
C650 C648 1.363 . S
C650 C651 1.370 . S
C650 C654 1.524 . S
C651 C643 1.503 . S
C651 C650 1.370 . S
C651 C652 1.403 . S
C652 C651 1.403 . S
C652 C653 1.404 . S
C652 C655 1.539 . S
C653 C649 1.408 . S
C653 C652 1.404 . S
C653 H665 0.930 . S
C654 C650 1.524 . S
C654 H666 0.956 . S
C654 H667 0.961 . S
C654 H668 0.961 . S
C655 C652 1.539 . S
C655 H669 0.958 . S
C655 H670 0.961 . S
C655 H671 0.960 . S
H656 C640 0.931 . S
H657 C645 0.929 . S
H658 C646 0.960 . S
H659 C646 0.962 . S
H660 C646 0.960 . S
H661 C647 0.961 . S
H662 C647 0.961 . S
H663 C647 0.961 . S
H664 C648 0.931 . S
H665 C653 0.930 . S
H666 C654 0.956 . S
H667 C654 0.961 . S
H668 C654 0.961 . S
H669 C655 0.958 . S
H670 C655 0.961 . S
H671 C655 0.960 . S
C672 C673 1.391 . S
C672 C674 1.394 1_554 S
C672 H688 0.931 . S
C673 C672 1.391 . S
C673 C677 1.376 . S
C674 C672 1.394 1_556 S
C674 C675 1.369 1_556 S
C674 C678 1.531 . S
C675 C674 1.369 1_554 S
C675 C676 1.410 . S
C675 C683 1.503 1_554 S
C676 C675 1.410 . S
C676 C677 1.392 . S
C676 C679 1.511 . S
C677 C673 1.376 . S
C677 C676 1.392 . S
C677 H689 0.929 . S
C678 C674 1.531 . S
C678 H690 0.960 . S
C678 H691 0.962 . S
C678 H692 0.960 . S
C679 C676 1.511 . S
C679 H693 0.961 . S
C679 H694 0.961 . S
C679 H695 0.961 . S
C680 C681 1.370 . S
C680 C682 1.363 . S
C680 H696 0.931 . S
C681 C680 1.370 . S
C681 C685 1.408 . S
C682 C680 1.363 . S
C682 C683 1.370 . S
C682 C686 1.524 1_556 S
C683 C675 1.503 1_556 S
C683 C682 1.370 . S
C683 C684 1.403 . S
C684 C683 1.403 . S
C684 C685 1.404 . S
C684 C687 1.539 . S
C685 C681 1.408 . S
C685 C684 1.404 . S
C685 H697 0.930 . S
C686 C682 1.524 1_554 S
C686 H698 0.956 . S
C686 H699 0.961 . S
C686 H700 0.961 . S
C687 C684 1.539 . S
C687 H701 0.958 . S
C687 H702 0.961 . S
C687 H703 0.960 . S
H688 C672 0.931 . S
H689 C677 0.929 . S
H690 C678 0.960 . S
H691 C678 0.962 . S
H692 C678 0.960 . S
H693 C679 0.961 . S
H694 C679 0.961 . S
H695 C679 0.961 . S
H696 C680 0.931 . S
H697 C685 0.930 . S
H698 C686 0.956 . S
H699 C686 0.961 . S
H700 C686 0.961 . S
H701 C687 0.958 . S
H702 C687 0.961 . S
H703 C687 0.960 . S
C704 C705 1.391 . S
C704 C706 1.394 . S
C704 H720 0.931 . S
C705 C704 1.391 . S
C705 C709 1.376 . S
C706 C704 1.394 . S
C706 C707 1.369 . S
C706 C710 1.531 . S
C707 C706 1.369 . S
C707 C708 1.410 . S
C707 C715 1.503 . S
C708 C707 1.410 . S
C708 C709 1.392 . S
C708 C711 1.511 . S
C709 C705 1.376 . S
C709 C708 1.392 . S
C709 H721 0.929 . S
C710 C706 1.531 . S
C710 H722 0.960 . S
C710 H723 0.962 . S
C710 H724 0.960 . S
C711 C708 1.511 . S
C711 H725 0.961 . S
C711 H726 0.961 . S
C711 H727 0.961 . S
C712 C713 1.370 . S
C712 C714 1.363 . S
C712 H728 0.931 . S
C713 C712 1.370 . S
C713 C717 1.408 . S
C714 C712 1.363 . S
C714 C715 1.370 . S
C714 C718 1.524 . S
C715 C707 1.503 . S
C715 C714 1.370 . S
C715 C716 1.403 . S
C716 C715 1.403 . S
C716 C717 1.404 . S
C716 C719 1.539 . S
C717 C713 1.408 . S
C717 C716 1.404 . S
C717 H729 0.930 . S
C718 C714 1.524 . S
C718 H730 0.956 . S
C718 H731 0.961 . S
C718 H732 0.961 . S
C719 C716 1.539 . S
C719 H733 0.958 . S
C719 H734 0.961 . S
C719 H735 0.960 . S
H720 C704 0.931 . S
H721 C709 0.929 . S
H722 C710 0.960 . S
H723 C710 0.962 . S
H724 C710 0.960 . S
H725 C711 0.961 . S
H726 C711 0.961 . S
H727 C711 0.961 . S
H728 C712 0.931 . S
H729 C717 0.930 . S
H730 C718 0.956 . S
H731 C718 0.961 . S
H732 C718 0.961 . S
H733 C719 0.958 . S
H734 C719 0.961 . S
H735 C719 0.960 . S
C736 C737 1.391 . S
C736 C738 1.394 . S
C736 H752 0.931 . S
C737 C736 1.391 . S
C737 C741 1.376 . S
C738 C736 1.394 . S
C738 C739 1.369 . S
C738 C742 1.531 . S
C739 C738 1.369 . S
C739 C740 1.410 . S
C739 C747 1.503 . S
C740 C739 1.410 . S
C740 C741 1.392 . S
C740 C743 1.511 . S
C741 C737 1.376 . S
C741 C740 1.392 . S
C741 H753 0.929 . S
C742 C738 1.531 . S
C742 H754 0.960 . S
C742 H755 0.962 . S
C742 H756 0.960 . S
C743 C740 1.511 . S
C743 H757 0.961 . S
C743 H758 0.961 . S
C743 H759 0.961 . S
C744 C745 1.370 . S
C744 C746 1.363 . S
C744 H760 0.931 . S
C745 C744 1.370 . S
C745 C749 1.408 . S
C746 C744 1.363 . S
C746 C747 1.370 . S
C746 C750 1.524 . S
C747 C739 1.503 . S
C747 C746 1.370 . S
C747 C748 1.403 . S
C748 C747 1.403 . S
C748 C749 1.404 . S
C748 C751 1.539 . S
C749 C745 1.408 . S
C749 C748 1.404 . S
C749 H761 0.930 . S
C750 C746 1.524 . S
C750 H762 0.956 . S
C750 H763 0.961 . S
C750 H764 0.961 . S
C751 C748 1.539 . S
C751 H765 0.958 . S
C751 H766 0.961 . S
C751 H767 0.960 . S
H752 C736 0.931 . S
H753 C741 0.929 . S
H754 C742 0.960 . S
H755 C742 0.962 . S
H756 C742 0.960 . S
H757 C743 0.961 . S
H758 C743 0.961 . S
H759 C743 0.961 . S
H760 C744 0.931 . S
H761 C749 0.930 . S
H762 C750 0.956 . S
H763 C750 0.961 . S
H764 C750 0.961 . S
H765 C751 0.958 . S
H766 C751 0.961 . S
H767 C751 0.960 . S
C768 C769 1.391 . S
C768 C770 1.394 1_655 S
C768 H784 0.931 . S
C769 C768 1.391 . S
C769 C773 1.376 . S
C770 C768 1.394 1_455 S
C770 C771 1.369 . S
C770 C774 1.531 . S
C771 C770 1.369 . S
C771 C772 1.410 . S
C771 C779 1.503 . S
C772 C771 1.410 . S
C772 C773 1.392 1_455 S
C772 C775 1.511 . S
C773 C769 1.376 . S
C773 C772 1.392 1_655 S
C773 H785 0.929 . S
C774 C770 1.531 . S
C774 H786 0.960 . S
C774 H787 0.962 . S
C774 H788 0.960 . S
C775 C772 1.511 . S
C775 H789 0.961 . S
C775 H790 0.961 . S
C775 H791 0.961 . S
C776 C777 1.370 . S
C776 C778 1.363 . S
C776 H792 0.931 . S
C777 C776 1.370 . S
C777 C781 1.408 . S
C778 C776 1.363 . S
C778 C779 1.370 . S
C778 C782 1.524 . S
C779 C771 1.503 . S
C779 C778 1.370 . S
C779 C780 1.403 . S
C780 C779 1.403 . S
C780 C781 1.404 . S
C780 C783 1.539 . S
C781 C777 1.408 . S
C781 C780 1.404 . S
C781 H793 0.930 . S
C782 C778 1.524 . S
C782 H794 0.956 . S
C782 H795 0.961 . S
C782 H796 0.961 . S
C783 C780 1.539 . S
C783 H797 0.958 . S
C783 H798 0.961 . S
C783 H799 0.960 . S
H784 C768 0.931 . S
H785 C773 0.929 . S
H786 C774 0.960 . S
H787 C774 0.962 . S
H788 C774 0.960 . S
H789 C775 0.961 . S
H790 C775 0.961 . S
H791 C775 0.961 . S
H792 C776 0.931 . S
H793 C781 0.930 . S
H794 C782 0.956 . S
H795 C782 0.961 . S
H796 C782 0.961 . S
H797 C783 0.958 . S
H798 C783 0.961 . S
H799 C783 0.960 . S
C800 C801 1.391 . S
C800 C802 1.394 . S
C800 H816 0.931 . S
C801 C800 1.391 . S
C801 C805 1.376 . S
C802 C800 1.394 . S
C802 C803 1.369 . S
C802 C806 1.531 . S
C803 C802 1.369 . S
C803 C804 1.410 . S
C803 C811 1.503 . S
C804 C803 1.410 . S
C804 C805 1.392 . S
C804 C807 1.511 . S
C805 C801 1.376 . S
C805 C804 1.392 . S
C805 H817 0.929 . S
C806 C802 1.531 . S
C806 H818 0.960 . S
C806 H819 0.962 . S
C806 H820 0.960 . S
C807 C804 1.511 . S
C807 H821 0.961 . S
C807 H822 0.961 . S
C807 H823 0.961 . S
C808 C809 1.370 . S
C808 C810 1.363 . S
C808 H824 0.931 . S
C809 C808 1.370 . S
C809 C813 1.408 . S
C810 C808 1.363 . S
C810 C811 1.370 . S
C810 C814 1.524 . S
C811 C803 1.503 . S
C811 C810 1.370 . S
C811 C812 1.403 . S
C812 C811 1.403 . S
C812 C813 1.404 . S
C812 C815 1.539 . S
C813 C809 1.408 . S
C813 C812 1.404 . S
C813 H825 0.930 . S
C814 C810 1.524 . S
C814 H826 0.956 . S
C814 H827 0.961 . S
C814 H828 0.961 . S
C815 C812 1.539 . S
C815 H829 0.958 . S
C815 H830 0.961 . S
C815 H831 0.960 . S
H816 C800 0.931 . S
H817 C805 0.929 . S
H818 C806 0.960 . S
H819 C806 0.962 . S
H820 C806 0.960 . S
H821 C807 0.961 . S
H822 C807 0.961 . S
H823 C807 0.961 . S
H824 C808 0.931 . S
H825 C813 0.930 . S
H826 C814 0.956 . S
H827 C814 0.961 . S
H828 C814 0.961 . S
H829 C815 0.958 . S
H830 C815 0.961 . S
H831 C815 0.960 . S
C832 C833 1.391 . S
C832 C834 1.394 . S
C832 H848 0.931 . S
C833 C832 1.391 . S
C833 C837 1.376 . S
C834 C832 1.394 . S
C834 C835 1.369 . S
C834 C838 1.531 . S
C835 C834 1.369 . S
C835 C836 1.410 . S
C835 C843 1.503 . S
C836 C835 1.410 . S
C836 C837 1.392 . S
C836 C839 1.511 . S
C837 C833 1.376 . S
C837 C836 1.392 . S
C837 H849 0.929 . S
C838 C834 1.531 . S
C838 H850 0.960 . S
C838 H851 0.962 . S
C838 H852 0.960 . S
C839 C836 1.511 . S
C839 H853 0.961 . S
C839 H854 0.961 . S
C839 H855 0.961 . S
C840 C841 1.370 . S
C840 C842 1.363 1_655 S
C840 H856 0.931 . S
C841 C840 1.370 . S
C841 C845 1.408 . S
C842 C840 1.363 1_455 S
C842 C843 1.370 . S
C842 C846 1.524 . S
C843 C835 1.503 . S
C843 C842 1.370 . S
C843 C844 1.403 . S
C844 C843 1.403 . S
C844 C845 1.404 1_455 S
C844 C847 1.539 . S
C845 C841 1.408 . S
C845 C844 1.404 1_655 S
C845 H857 0.930 . S
C846 C842 1.524 . S
C846 H858 0.956 . S
C846 H859 0.961 . S
C846 H860 0.961 . S
C847 C844 1.539 . S
C847 H861 0.958 . S
C847 H862 0.961 . S
C847 H863 0.960 . S
H848 C832 0.931 . S
H849 C837 0.929 . S
H850 C838 0.960 . S
H851 C838 0.962 . S
H852 C838 0.960 . S
H853 C839 0.961 . S
H854 C839 0.961 . S
H855 C839 0.961 . S
H856 C840 0.931 . S
H857 C845 0.930 . S
H858 C846 0.956 . S
H859 C846 0.961 . S
H860 C846 0.961 . S
H861 C847 0.958 . S
H862 C847 0.961 . S
H863 C847 0.960 . S
C864 C865 1.391 . S
C864 C866 1.394 1_455 S
C864 H880 0.931 . S
C865 C864 1.391 . S
C865 C869 1.376 . S
C866 C864 1.394 1_655 S
C866 C867 1.369 . S
C866 C870 1.531 . S
C867 C866 1.369 . S
C867 C868 1.410 . S
C867 C875 1.503 . S
C868 C867 1.410 . S
C868 C869 1.392 1_655 S
C868 C871 1.511 . S
C869 C865 1.376 . S
C869 C868 1.392 1_455 S
C869 H881 0.929 . S
C870 C866 1.531 . S
C870 H882 0.960 . S
C870 H883 0.962 . S
C870 H884 0.960 . S
C871 C868 1.511 . S
C871 H885 0.961 . S
C871 H886 0.961 . S
C871 H887 0.961 . S
C872 C873 1.370 . S
C872 C874 1.363 . S
C872 H888 0.931 . S
C873 C872 1.370 . S
C873 C877 1.408 . S
C874 C872 1.363 . S
C874 C875 1.370 . S
C874 C878 1.524 . S
C875 C867 1.503 . S
C875 C874 1.370 . S
C875 C876 1.403 . S
C876 C875 1.403 . S
C876 C877 1.404 . S
C876 C879 1.539 . S
C877 C873 1.408 . S
C877 C876 1.404 . S
C877 H889 0.930 . S
C878 C874 1.524 . S
C878 H890 0.956 . S
C878 H891 0.961 . S
C878 H892 0.961 . S
C879 C876 1.539 . S
C879 H893 0.958 . S
C879 H894 0.961 . S
C879 H895 0.960 . S
H880 C864 0.931 . S
H881 C869 0.929 . S
H882 C870 0.960 . S
H883 C870 0.962 . S
H884 C870 0.960 . S
H885 C871 0.961 . S
H886 C871 0.961 . S
H887 C871 0.961 . S
H888 C872 0.931 . S
H889 C877 0.930 . S
H890 C878 0.956 . S
H891 C878 0.961 . S
H892 C878 0.961 . S
H893 C879 0.958 . S
H894 C879 0.961 . S
H895 C879 0.960 . S
C896 C897 1.391 . S
C896 C898 1.394 . S
C896 H912 0.931 . S
C897 C896 1.391 . S
C897 C901 1.376 . S
C898 C896 1.394 . S
C898 C899 1.369 . S
C898 C902 1.531 . S
C899 C898 1.369 . S
C899 C900 1.410 . S
C899 C907 1.503 . S
C900 C899 1.410 . S
C900 C901 1.392 . S
C900 C903 1.511 . S
C901 C897 1.376 . S
C901 C900 1.392 . S
C901 H913 0.929 . S
C902 C898 1.531 . S
C902 H914 0.960 . S
C902 H915 0.962 . S
C902 H916 0.960 . S
C903 C900 1.511 . S
C903 H917 0.961 . S
C903 H918 0.961 . S
C903 H919 0.961 . S
C904 C905 1.370 . S
C904 C906 1.363 . S
C904 H920 0.931 . S
C905 C904 1.370 . S
C905 C909 1.408 . S
C906 C904 1.363 . S
C906 C907 1.370 . S
C906 C910 1.524 . S
C907 C899 1.503 . S
C907 C906 1.370 . S
C907 C908 1.403 . S
C908 C907 1.403 . S
C908 C909 1.404 . S
C908 C911 1.539 . S
C909 C905 1.408 . S
C909 C908 1.404 . S
C909 H921 0.930 . S
C910 C906 1.524 . S
C910 H922 0.956 . S
C910 H923 0.961 . S
C910 H924 0.961 . S
C911 C908 1.539 . S
C911 H925 0.958 . S
C911 H926 0.961 . S
C911 H927 0.960 . S
H912 C896 0.931 . S
H913 C901 0.929 . S
H914 C902 0.960 . S
H915 C902 0.962 . S
H916 C902 0.960 . S
H917 C903 0.961 . S
H918 C903 0.961 . S
H919 C903 0.961 . S
H920 C904 0.931 . S
H921 C909 0.930 . S
H922 C910 0.956 . S
H923 C910 0.961 . S
H924 C910 0.961 . S
H925 C911 0.958 . S
H926 C911 0.961 . S
H927 C911 0.960 . S
C928 C929 1.391 . S
C928 C930 1.394 1_455 S
C928 H944 0.931 . S
C929 C928 1.391 . S
C929 C933 1.376 . S
C930 C928 1.394 1_655 S
C930 C931 1.369 . S
C930 C934 1.531 . S
C931 C930 1.369 . S
C931 C932 1.410 . S
C931 C939 1.503 . S
C932 C931 1.410 . S
C932 C933 1.392 1_655 S
C932 C935 1.511 . S
C933 C929 1.376 . S
C933 C932 1.392 1_455 S
C933 H945 0.929 . S
C934 C930 1.531 . S
C934 H946 0.960 . S
C934 H947 0.962 . S
C934 H948 0.960 . S
C935 C932 1.511 . S
C935 H949 0.961 . S
C935 H950 0.961 . S
C935 H951 0.961 . S
C936 C937 1.370 . S
C936 C938 1.363 . S
C936 H952 0.931 . S
C937 C936 1.370 . S
C937 C941 1.408 . S
C938 C936 1.363 . S
C938 C939 1.370 . S
C938 C942 1.524 . S
C939 C931 1.503 . S
C939 C938 1.370 . S
C939 C940 1.403 . S
C940 C939 1.403 . S
C940 C941 1.404 . S
C940 C943 1.539 . S
C941 C937 1.408 . S
C941 C940 1.404 . S
C941 H953 0.930 . S
C942 C938 1.524 . S
C942 H954 0.956 . S
C942 H955 0.961 . S
C942 H956 0.961 . S
C943 C940 1.539 . S
C943 H957 0.958 . S
C943 H958 0.961 . S
C943 H959 0.960 . S
H944 C928 0.931 . S
H945 C933 0.929 . S
H946 C934 0.960 . S
H947 C934 0.962 . S
H948 C934 0.960 . S
H949 C935 0.961 . S
H950 C935 0.961 . S
H951 C935 0.961 . S
H952 C936 0.931 . S
H953 C941 0.930 . S
H954 C942 0.956 . S
H955 C942 0.961 . S
H956 C942 0.961 . S
H957 C943 0.958 . S
H958 C943 0.961 . S
H959 C943 0.960 . S
C960 C961 1.391 . S
C960 C962 1.394 . S
C960 H976 0.931 . S
C961 C960 1.391 . S
C961 C965 1.376 . S
C962 C960 1.394 . S
C962 C963 1.369 . S
C962 C966 1.531 . S
C963 C962 1.369 . S
C963 C964 1.410 . S
C963 C971 1.503 . S
C964 C963 1.410 . S
C964 C965 1.392 . S
C964 C967 1.511 . S
C965 C961 1.376 . S
C965 C964 1.392 . S
C965 H977 0.929 . S
C966 C962 1.531 . S
C966 H978 0.960 . S
C966 H979 0.962 . S
C966 H980 0.960 . S
C967 C964 1.511 . S
C967 H981 0.961 . S
C967 H982 0.961 . S
C967 H983 0.961 . S
C968 C969 1.370 . S
C968 C970 1.363 . S
C968 H984 0.931 . S
C969 C968 1.370 . S
C969 C973 1.408 . S
C970 C968 1.363 . S
C970 C971 1.370 . S
C970 C974 1.524 . S
C971 C963 1.503 . S
C971 C970 1.370 . S
C971 C972 1.403 . S
C972 C971 1.403 . S
C972 C973 1.404 . S
C972 C975 1.539 . S
C973 C969 1.408 . S
C973 C972 1.404 . S
C973 H985 0.930 . S
C974 C970 1.524 . S
C974 H986 0.956 . S
C974 H987 0.961 . S
C974 H988 0.961 . S
C975 C972 1.539 . S
C975 H989 0.958 . S
C975 H990 0.961 . S
C975 H991 0.960 . S
H976 C960 0.931 . S
H977 C965 0.929 . S
H978 C966 0.960 . S
H979 C966 0.962 . S
H980 C966 0.960 . S
H981 C967 0.961 . S
H982 C967 0.961 . S
H983 C967 0.961 . S
H984 C968 0.931 . S
H985 C973 0.930 . S
H986 C974 0.956 . S
H987 C974 0.961 . S
H988 C974 0.961 . S
H989 C975 0.958 . S
H990 C975 0.961 . S
H991 C975 0.960 . S
C992 C993 1.391 . S
C992 C994 1.394 . S
C992 H1008 0.931 . S
C993 C992 1.391 . S
C993 C997 1.376 . S
C994 C992 1.394 . S
C994 C995 1.369 . S
C994 C998 1.531 . S
C995 C994 1.369 . S
C995 C996 1.410 . S
C995 C1003 1.503 . S
C996 C995 1.410 . S
C996 C997 1.392 . S
C996 C999 1.511 . S
C997 C993 1.376 . S
C997 C996 1.392 . S
C997 H1009 0.929 . S
C998 C994 1.531 . S
C998 H1010 0.960 . S
C998 H1011 0.962 . S
C998 H1012 0.960 . S
C999 C996 1.511 . S
C999 H1013 0.961 . S
C999 H1014 0.961 . S
C999 H1015 0.961 . S
C1000 C1001 1.370 . S
C1000 C1002 1.363 . S
C1000 H1016 0.931 . S
C1001 C1000 1.370 . S
C1001 C1005 1.408 . S
C1002 C1000 1.363 . S
C1002 C1003 1.370 . S
C1002 C1006 1.524 . S
C1003 C995 1.503 . S
C1003 C1002 1.370 . S
C1003 C1004 1.403 . S
C1004 C1003 1.403 . S
C1004 C1005 1.404 . S
C1004 C1007 1.539 . S
C1005 C1001 1.408 . S
C1005 C1004 1.404 . S
C1005 H1017 0.930 . S
C1006 C1002 1.524 . S
C1006 H1018 0.956 . S
C1006 H1019 0.961 . S
C1006 H1020 0.961 . S
C1007 C1004 1.539 . S
C1007 H1021 0.958 . S
C1007 H1022 0.961 . S
C1007 H1023 0.960 . S
H1008 C992 0.931 . S
H1009 C997 0.929 . S
H1010 C998 0.960 . S
H1011 C998 0.962 . S
H1012 C998 0.960 . S
H1013 C999 0.961 . S
H1014 C999 0.961 . S
H1015 C999 0.961 . S
H1016 C1000 0.931 . S
H1017 C1005 0.930 . S
H1018 C1006 0.956 . S
H1019 C1006 0.961 . S
H1020 C1006 0.961 . S
H1021 C1007 0.958 . S
H1022 C1007 0.961 . S
H1023 C1007 0.960 . S
C1024 C1025 1.391 . S
C1024 C1026 1.394 . S
C1024 H1040 0.931 . S
C1025 C1024 1.391 . S
C1025 C1029 1.376 . S
C1026 C1024 1.394 . S
C1026 C1027 1.369 . S
C1026 C1030 1.531 . S
C1027 C1026 1.369 . S
C1027 C1028 1.410 . S
C1027 C1035 1.503 . S
C1028 C1027 1.410 . S
C1028 C1029 1.392 . S
C1028 C1031 1.511 . S
C1029 C1025 1.376 . S
C1029 C1028 1.392 . S
C1029 H1041 0.929 . S
C1030 C1026 1.531 . S
C1030 H1042 0.960 . S
C1030 H1043 0.962 . S
C1030 H1044 0.960 . S
C1031 C1028 1.511 . S
C1031 H1045 0.961 . S
C1031 H1046 0.961 . S
C1031 H1047 0.961 . S
C1032 C1033 1.370 . S
C1032 C1034 1.363 . S
C1032 H1048 0.931 . S
C1033 C1032 1.370 . S
C1033 C1037 1.408 . S
C1034 C1032 1.363 . S
C1034 C1035 1.370 . S
C1034 C1038 1.524 . S
C1035 C1027 1.503 . S
C1035 C1034 1.370 . S
C1035 C1036 1.403 . S
C1036 C1035 1.403 . S
C1036 C1037 1.404 . S
C1036 C1039 1.539 . S
C1037 C1033 1.408 . S
C1037 C1036 1.404 . S
C1037 H1049 0.930 . S
C1038 C1034 1.524 . S
C1038 H1050 0.956 . S
C1038 H1051 0.961 . S
C1038 H1052 0.961 . S
C1039 C1036 1.539 . S
C1039 H1053 0.958 . S
C1039 H1054 0.961 . S
C1039 H1055 0.960 . S
H1040 C1024 0.931 . S
H1041 C1029 0.929 . S
H1042 C1030 0.960 . S
H1043 C1030 0.962 . S
H1044 C1030 0.960 . S
H1045 C1031 0.961 . S
H1046 C1031 0.961 . S
H1047 C1031 0.961 . S
H1048 C1032 0.931 . S
H1049 C1037 0.930 . S
H1050 C1038 0.956 . S
H1051 C1038 0.961 . S
H1052 C1038 0.961 . S
H1053 C1039 0.958 . S
H1054 C1039 0.961 . S
H1055 C1039 0.960 . S
C1056 C1057 1.391 . S
C1056 C1058 1.394 . S
C1056 H1072 0.931 . S
C1057 C1056 1.391 . S
C1057 C1061 1.376 . S
C1058 C1056 1.394 . S
C1058 C1059 1.369 . S
C1058 C1062 1.531 . S
C1059 C1058 1.369 . S
C1059 C1060 1.410 . S
C1059 C1067 1.503 . S
C1060 C1059 1.410 . S
C1060 C1061 1.392 . S
C1060 C1063 1.511 . S
C1061 C1057 1.376 . S
C1061 C1060 1.392 . S
C1061 H1073 0.929 . S
C1062 C1058 1.531 . S
C1062 H1074 0.960 . S
C1062 H1075 0.962 . S
C1062 H1076 0.960 . S
C1063 C1060 1.511 . S
C1063 H1077 0.961 . S
C1063 H1078 0.961 . S
C1063 H1079 0.961 . S
C1064 C1065 1.370 . S
C1064 C1066 1.363 . S
C1064 H1080 0.931 . S
C1065 C1064 1.370 . S
C1065 C1069 1.408 . S
C1066 C1064 1.363 . S
C1066 C1067 1.370 . S
C1066 C1070 1.524 . S
C1067 C1059 1.503 . S
C1067 C1066 1.370 . S
C1067 C1068 1.403 . S
C1068 C1067 1.403 . S
C1068 C1069 1.404 . S
C1068 C1071 1.539 . S
C1069 C1065 1.408 . S
C1069 C1068 1.404 . S
C1069 H1081 0.930 . S
C1070 C1066 1.524 . S
C1070 H1082 0.956 . S
C1070 H1083 0.961 . S
C1070 H1084 0.961 . S
C1071 C1068 1.539 . S
C1071 H1085 0.958 . S
C1071 H1086 0.961 . S
C1071 H1087 0.960 . S
H1072 C1056 0.931 . S
H1073 C1061 0.929 . S
H1074 C1062 0.960 . S
H1075 C1062 0.962 . S
H1076 C1062 0.960 . S
H1077 C1063 0.961 . S
H1078 C1063 0.961 . S
H1079 C1063 0.961 . S
H1080 C1064 0.931 . S
H1081 C1069 0.930 . S
H1082 C1070 0.956 . S
H1083 C1070 0.961 . S
H1084 C1070 0.961 . S
H1085 C1071 0.958 . S
H1086 C1071 0.961 . S
H1087 C1071 0.960 . S
C1088 C1089 1.391 . S
C1088 C1090 1.394 . S
C1088 H1104 0.931 . S
C1089 C1088 1.391 . S
C1089 C1093 1.376 . S
C1090 C1088 1.394 . S
C1090 C1091 1.369 . S
C1090 C1094 1.531 . S
C1091 C1090 1.369 . S
C1091 C1092 1.410 . S
C1091 C1099 1.503 . S
C1092 C1091 1.410 . S
C1092 C1093 1.392 . S
C1092 C1095 1.511 . S
C1093 C1089 1.376 . S
C1093 C1092 1.392 . S
C1093 H1105 0.929 . S
C1094 C1090 1.531 . S
C1094 H1106 0.960 . S
C1094 H1107 0.962 . S
C1094 H1108 0.960 . S
C1095 C1092 1.511 . S
C1095 H1109 0.961 . S
C1095 H1110 0.961 . S
C1095 H1111 0.961 . S
C1096 C1097 1.370 . S
C1096 C1098 1.363 . S
C1096 H1112 0.931 . S
C1097 C1096 1.370 . S
C1097 C1101 1.408 . S
C1098 C1096 1.363 . S
C1098 C1099 1.370 . S
C1098 C1102 1.524 . S
C1099 C1091 1.503 . S
C1099 C1098 1.370 . S
C1099 C1100 1.403 . S
C1100 C1099 1.403 . S
C1100 C1101 1.404 . S
C1100 C1103 1.539 . S
C1101 C1097 1.408 . S
C1101 C1100 1.404 . S
C1101 H1113 0.930 . S
C1102 C1098 1.524 . S
C1102 H1114 0.956 . S
C1102 H1115 0.961 . S
C1102 H1116 0.961 . S
C1103 C1100 1.539 . S
C1103 H1117 0.958 . S
C1103 H1118 0.961 . S
C1103 H1119 0.960 . S
H1104 C1088 0.931 . S
H1105 C1093 0.929 . S
H1106 C1094 0.960 . S
H1107 C1094 0.962 . S
H1108 C1094 0.960 . S
H1109 C1095 0.961 . S
H1110 C1095 0.961 . S
H1111 C1095 0.961 . S
H1112 C1096 0.931 . S
H1113 C1101 0.930 . S
H1114 C1102 0.956 . S
H1115 C1102 0.961 . S
H1116 C1102 0.961 . S
H1117 C1103 0.958 . S
H1118 C1103 0.961 . S
H1119 C1103 0.960 . S
C1120 C1121 1.391 . S
C1120 C1122 1.394 . S
C1120 H1136 0.931 . S
C1121 C1120 1.391 . S
C1121 C1125 1.376 . S
C1122 C1120 1.394 . S
C1122 C1123 1.369 . S
C1122 C1126 1.531 . S
C1123 C1122 1.369 . S
C1123 C1124 1.410 . S
C1123 C1131 1.503 . S
C1124 C1123 1.410 . S
C1124 C1125 1.392 . S
C1124 C1127 1.511 . S
C1125 C1121 1.376 . S
C1125 C1124 1.392 . S
C1125 H1137 0.929 . S
C1126 C1122 1.531 . S
C1126 H1138 0.960 . S
C1126 H1139 0.962 . S
C1126 H1140 0.960 . S
C1127 C1124 1.511 . S
C1127 H1141 0.961 . S
C1127 H1142 0.961 . S
C1127 H1143 0.961 . S
C1128 C1129 1.370 . S
C1128 C1130 1.363 . S
C1128 H1144 0.931 . S
C1129 C1128 1.370 . S
C1129 C1133 1.408 . S
C1130 C1128 1.363 . S
C1130 C1131 1.370 . S
C1130 C1134 1.524 . S
C1131 C1123 1.503 . S
C1131 C1130 1.370 . S
C1131 C1132 1.403 . S
C1132 C1131 1.403 . S
C1132 C1133 1.404 . S
C1132 C1135 1.539 . S
C1133 C1129 1.408 . S
C1133 C1132 1.404 . S
C1133 H1145 0.930 . S
C1134 C1130 1.524 . S
C1134 H1146 0.956 . S
C1134 H1147 0.961 . S
C1134 H1148 0.961 . S
C1135 C1132 1.539 . S
C1135 H1149 0.958 . S
C1135 H1150 0.961 . S
C1135 H1151 0.960 . S
H1136 C1120 0.931 . S
H1137 C1125 0.929 . S
H1138 C1126 0.960 . S
H1139 C1126 0.962 . S
H1140 C1126 0.960 . S
H1141 C1127 0.961 . S
H1142 C1127 0.961 . S
H1143 C1127 0.961 . S
H1144 C1128 0.931 . S
H1145 C1133 0.930 . S
H1146 C1134 0.956 . S
H1147 C1134 0.961 . S
H1148 C1134 0.961 . S
H1149 C1135 0.958 . S
H1150 C1135 0.961 . S
H1151 C1135 0.960 . S
C1152 C1153 1.391 . S
C1152 C1154 1.394 . S
C1152 H1168 0.931 . S
C1153 C1152 1.391 . S
C1153 C1157 1.376 . S
C1154 C1152 1.394 . S
C1154 C1155 1.369 . S
C1154 C1158 1.531 . S
C1155 C1154 1.369 . S
C1155 C1156 1.410 . S
C1155 C1163 1.503 . S
C1156 C1155 1.410 . S
C1156 C1157 1.392 . S
C1156 C1159 1.511 . S
C1157 C1153 1.376 . S
C1157 C1156 1.392 . S
C1157 H1169 0.929 . S
C1158 C1154 1.531 . S
C1158 H1170 0.960 . S
C1158 H1171 0.962 . S
C1158 H1172 0.960 . S
C1159 C1156 1.511 . S
C1159 H1173 0.961 . S
C1159 H1174 0.961 . S
C1159 H1175 0.961 . S
C1160 C1161 1.370 . S
C1160 C1162 1.363 . S
C1160 H1176 0.931 . S
C1161 C1160 1.370 . S
C1161 C1165 1.408 . S
C1162 C1160 1.363 . S
C1162 C1163 1.370 . S
C1162 C1166 1.524 . S
C1163 C1155 1.503 . S
C1163 C1162 1.370 . S
C1163 C1164 1.403 . S
C1164 C1163 1.403 . S
C1164 C1165 1.404 . S
C1164 C1167 1.539 . S
C1165 C1161 1.408 . S
C1165 C1164 1.404 . S
C1165 H1177 0.930 . S
C1166 C1162 1.524 . S
C1166 H1178 0.956 . S
C1166 H1179 0.961 . S
C1166 H1180 0.961 . S
C1167 C1164 1.539 . S
C1167 H1181 0.958 . S
C1167 H1182 0.961 . S
C1167 H1183 0.960 . S
H1168 C1152 0.931 . S
H1169 C1157 0.929 . S
H1170 C1158 0.960 . S
H1171 C1158 0.962 . S
H1172 C1158 0.960 . S
H1173 C1159 0.961 . S
H1174 C1159 0.961 . S
H1175 C1159 0.961 . S
H1176 C1160 0.931 . S
H1177 C1165 0.930 . S
H1178 C1166 0.956 . S
H1179 C1166 0.961 . S
H1180 C1166 0.961 . S
H1181 C1167 0.958 . S
H1182 C1167 0.961 . S
H1183 C1167 0.960 . S
C1184 C1185 1.391 . S
C1184 C1186 1.394 . S
C1184 H1200 0.931 . S
C1185 C1184 1.391 . S
C1185 C1189 1.376 . S
C1186 C1184 1.394 . S
C1186 C1187 1.369 . S
C1186 C1190 1.531 . S
C1187 C1186 1.369 . S
C1187 C1188 1.410 . S
C1187 C1195 1.503 . S
C1188 C1187 1.410 . S
C1188 C1189 1.392 . S
C1188 C1191 1.511 . S
C1189 C1185 1.376 . S
C1189 C1188 1.392 . S
C1189 H1201 0.929 . S
C1190 C1186 1.531 . S
C1190 H1202 0.960 . S
C1190 H1203 0.962 . S
C1190 H1204 0.960 . S
C1191 C1188 1.511 . S
C1191 H1205 0.961 . S
C1191 H1206 0.961 . S
C1191 H1207 0.961 . S
C1192 C1193 1.370 . S
C1192 C1194 1.363 . S
C1192 H1208 0.931 . S
C1193 C1192 1.370 . S
C1193 C1197 1.408 . S
C1194 C1192 1.363 . S
C1194 C1195 1.370 . S
C1194 C1198 1.524 . S
C1195 C1187 1.503 . S
C1195 C1194 1.370 . S
C1195 C1196 1.403 . S
C1196 C1195 1.403 . S
C1196 C1197 1.404 . S
C1196 C1199 1.539 . S
C1197 C1193 1.408 . S
C1197 C1196 1.404 . S
C1197 H1209 0.930 . S
C1198 C1194 1.524 . S
C1198 H1210 0.956 . S
C1198 H1211 0.961 . S
C1198 H1212 0.961 . S
C1199 C1196 1.539 . S
C1199 H1213 0.958 . S
C1199 H1214 0.961 . S
C1199 H1215 0.960 . S
H1200 C1184 0.931 . S
H1201 C1189 0.929 . S
H1202 C1190 0.960 . S
H1203 C1190 0.962 . S
H1204 C1190 0.960 . S
H1205 C1191 0.961 . S
H1206 C1191 0.961 . S
H1207 C1191 0.961 . S
H1208 C1192 0.931 . S
H1209 C1197 0.930 . S
H1210 C1198 0.956 . S
H1211 C1198 0.961 . S
H1212 C1198 0.961 . S
H1213 C1199 0.958 . S
H1214 C1199 0.961 . S
H1215 C1199 0.960 . S
C1216 C1217 1.391 . S
C1216 C1218 1.394 . S
C1216 H1232 0.931 . S
C1217 C1216 1.391 . S
C1217 C1221 1.376 . S
C1218 C1216 1.394 . S
C1218 C1219 1.369 . S
C1218 C1222 1.531 . S
C1219 C1218 1.369 . S
C1219 C1220 1.410 . S
C1219 C1227 1.503 . S
C1220 C1219 1.410 . S
C1220 C1221 1.392 . S
C1220 C1223 1.511 . S
C1221 C1217 1.376 . S
C1221 C1220 1.392 . S
C1221 H1233 0.929 . S
C1222 C1218 1.531 . S
C1222 H1234 0.960 . S
C1222 H1235 0.962 . S
C1222 H1236 0.960 . S
C1223 C1220 1.511 . S
C1223 H1237 0.961 . S
C1223 H1238 0.961 . S
C1223 H1239 0.961 . S
C1224 C1225 1.370 . S
C1224 C1226 1.363 . S
C1224 H1240 0.931 . S
C1225 C1224 1.370 . S
C1225 C1229 1.408 . S
C1226 C1224 1.363 . S
C1226 C1227 1.370 . S
C1226 C1230 1.524 . S
C1227 C1219 1.503 . S
C1227 C1226 1.370 . S
C1227 C1228 1.403 . S
C1228 C1227 1.403 . S
C1228 C1229 1.404 . S
C1228 C1231 1.539 . S
C1229 C1225 1.408 . S
C1229 C1228 1.404 . S
C1229 H1241 0.930 . S
C1230 C1226 1.524 . S
C1230 H1242 0.956 . S
C1230 H1243 0.961 . S
C1230 H1244 0.961 . S
C1231 C1228 1.539 . S
C1231 H1245 0.958 . S
C1231 H1246 0.961 . S
C1231 H1247 0.960 . S
H1232 C1216 0.931 . S
H1233 C1221 0.929 . S
H1234 C1222 0.960 . S
H1235 C1222 0.962 . S
H1236 C1222 0.960 . S
H1237 C1223 0.961 . S
H1238 C1223 0.961 . S
H1239 C1223 0.961 . S
H1240 C1224 0.931 . S
H1241 C1229 0.930 . S
H1242 C1230 0.956 . S
H1243 C1230 0.961 . S
H1244 C1230 0.961 . S
H1245 C1231 0.958 . S
H1246 C1231 0.961 . S
H1247 C1231 0.960 . S
C225 C6 1.583 . S
C233 C176 1.671 . S
C257 C190 1.658 . S
C265 C20 1.585 . S
C289 C34 1.627 . S
C297 C204 1.673 . S
C321 C218 1.654 . S
C329 C48 1.590 . S
C353 C118 1.612 . S
C361 C64 1.669 . S
C385 C78 1.656 . S
C393 C132 1.594 . S
C417 C146 1.599 . S
C425 C92 1.667 . S
C449 C106 1.655 . S
C457 C160 1.586 . S
C481 C7 1.608 . S
C489 C35 1.659 . S
C513 C21 1.673 . S
C521 C49 1.632 . S
C545 C63 1.432 . S
C553 C91 1.401 . S
C577 C77 1.383 . S
C585 C105 1.417 . S
C609 C147 1.666 . S
C617 C119 1.633 . S
C641 C133 1.672 . S
C649 C161 1.631 . S
C673 C203 1.390 . S
C681 C175 1.413 . S
C705 C189 1.413 . S
C713 C217 1.410 . S
C737 C93 1.557 . S
C745 C9 1.567 . S
C769 C107 1.557 . S
C777 C23 1.569 . S
C801 C37 1.545 . S
C809 C65 1.530 . S
C833 C51 1.569 . S
C841 C79 1.543 . S
C865 C205 1.513 . S
C873 C121 1.557 . S
C897 C135 1.547 . S
C905 C219 1.533 . S
C929 C177 1.559 . S
C937 C149 1.568 . S
C961 C163 1.549 . S
C969 C191 1.529 . S
C993 C8 1.550 . S
C1001 C50 1.553 . S
C1025 C36 1.543 . S
C1033 C22 1.548 . S
C1057 C62 1.554 . S
C1065 C104 1.543 . S
C1089 C76 1.535 . S
C1097 C90 1.549 . S
C1121 C162 1.542 . S
C1129 C120 1.548 . S
C1153 C134 1.553 . S
C1161 C148 1.553 . S
C1185 C216 1.525 . S
C1193 C174 1.558 . S
C1217 C188 1.567 . S
C1225 C202 1.549 . S
