# Generated by pormake.
# Topology und, (4)-cn, num edge types: 1
# Building blocks:
#     Node 0, Type 0, BuildingBlock: AZAVOO_clean_sbu_0, # of connection points: 4
#     Node 1, Type 0, BuildingBlock: AZAVOO_clean_sbu_0, # of connection points: 4
#     Node 2, Type 0, BuildingBlock: AZAVOO_clean_sbu_0, # of connection points: 4
#     Node 3, Type 0, BuildingBlock: AZAVOO_clean_sbu_0, # of connection points: 4
#     Node 4, Type 0, BuildingBlock: AZAVOO_clean_sbu_0, # of connection points: 4
#     Node 5, Type 0, BuildingBlock: AZAVOO_clean_sbu_0, # of connection points: 4
#     Node 6, Type 0, BuildingBlock: AZAVOO_clean_sbu_0, # of connection points: 4
#     Node 7, Type 0, BuildingBlock: AZAVOO_clean_sbu_0, # of connection points: 4
#     Node 8, Type 0, BuildingBlock: AZAVOO_clean_sbu_0, # of connection points: 4
#     Node 9, Type 0, BuildingBlock: AZAVOO_clean_sbu_0, # of connection points: 4
#     Node 10, Type 0, BuildingBlock: AZAVOO_clean_sbu_0, # of connection points: 4
#     Node 11, Type 0, BuildingBlock: AZAVOO_clean_sbu_0, # of connection points: 4
#     Node 12, Type 0, BuildingBlock: AZAVOO_clean_sbu_0, # of connection points: 4
#     Node 13, Type 0, BuildingBlock: AZAVOO_clean_sbu_0, # of connection points: 4
#     Node 14, Type 0, BuildingBlock: AZAVOO_clean_sbu_0, # of connection points: 4
#     Node 15, Type 0, BuildingBlock: AZAVOO_clean_sbu_0, # of connection points: 4
#     Edge 16, Type (0, 0), BuildingBlock: AJUNOK_clean_linker_0, # of connection points: 2
#     Edge 17, Type (0, 0), BuildingBlock: AJUNOK_clean_linker_0, # of connection points: 2
#     Edge 18, Type (0, 0), BuildingBlock: AJUNOK_clean_linker_0, # of connection points: 2
#     Edge 19, Type (0, 0), BuildingBlock: AJUNOK_clean_linker_0, # of connection points: 2
#     Edge 20, Type (0, 0), BuildingBlock: AJUNOK_clean_linker_0, # of connection points: 2
#     Edge 21, Type (0, 0), BuildingBlock: AJUNOK_clean_linker_0, # of connection points: 2
#     Edge 22, Type (0, 0), BuildingBlock: AJUNOK_clean_linker_0, # of connection points: 2
#     Edge 23, Type (0, 0), BuildingBlock: AJUNOK_clean_linker_0, # of connection points: 2
#     Edge 24, Type (0, 0), BuildingBlock: AJUNOK_clean_linker_0, # of connection points: 2
#     Edge 25, Type (0, 0), BuildingBlock: AJUNOK_clean_linker_0, # of connection points: 2
#     Edge 26, Type (0, 0), BuildingBlock: AJUNOK_clean_linker_0, # of connection points: 2
#     Edge 27, Type (0, 0), BuildingBlock: AJUNOK_clean_linker_0, # of connection points: 2
#     Edge 28, Type (0, 0), BuildingBlock: AJUNOK_clean_linker_0, # of connection points: 2
#     Edge 29, Type (0, 0), BuildingBlock: AJUNOK_clean_linker_0, # of connection points: 2
#     Edge 30, Type (0, 0), BuildingBlock: AJUNOK_clean_linker_0, # of connection points: 2
#     Edge 31, Type (0, 0), BuildingBlock: AJUNOK_clean_linker_0, # of connection points: 2
#     Edge 32, Type (0, 0), BuildingBlock: AJUNOK_clean_linker_0, # of connection points: 2
#     Edge 33, Type (0, 0), BuildingBlock: AJUNOK_clean_linker_0, # of connection points: 2
#     Edge 34, Type (0, 0), BuildingBlock: AJUNOK_clean_linker_0, # of connection points: 2
#     Edge 35, Type (0, 0), BuildingBlock: AJUNOK_clean_linker_0, # of connection points: 2
#     Edge 36, Type (0, 0), BuildingBlock: AJUNOK_clean_linker_0, # of connection points: 2
#     Edge 37, Type (0, 0), BuildingBlock: AJUNOK_clean_linker_0, # of connection points: 2
#     Edge 38, Type (0, 0), BuildingBlock: AJUNOK_clean_linker_0, # of connection points: 2
#     Edge 39, Type (0, 0), BuildingBlock: AJUNOK_clean_linker_0, # of connection points: 2
#     Edge 40, Type (0, 0), BuildingBlock: AJUNOK_clean_linker_0, # of connection points: 2
#     Edge 41, Type (0, 0), BuildingBlock: AJUNOK_clean_linker_0, # of connection points: 2
#     Edge 42, Type (0, 0), BuildingBlock: AJUNOK_clean_linker_0, # of connection points: 2
#     Edge 43, Type (0, 0), BuildingBlock: AJUNOK_clean_linker_0, # of connection points: 2
#     Edge 44, Type (0, 0), BuildingBlock: AJUNOK_clean_linker_0, # of connection points: 2
#     Edge 45, Type (0, 0), BuildingBlock: AJUNOK_clean_linker_0, # of connection points: 2
#     Edge 46, Type (0, 0), BuildingBlock: AJUNOK_clean_linker_0, # of connection points: 2
#     Edge 47, Type (0, 0), BuildingBlock: AJUNOK_clean_linker_0, # of connection points: 2
# Relax obj value: 0.168
# Max RMSD: 0.208
# Mean RMSD: 0.202
data_MOF--net-und--node1-AZAVOO_clean_sbu_0--edge1-AJUNOK_clean_linker_0
_symmetry_space_group_name_H-M    P1
_symmetry_Int_Tables_number       1
_symmetry_cell_setting            triclinic
loop_
_symmetry_equiv_pos_as_xyz
'x, y, z'
_cell_length_a     96.116923
_cell_length_b     44.19052
_cell_length_c     44.031412
_cell_angle_alpha  91.821933
_cell_angle_beta   91.474259
_cell_angle_gamma 96.0
loop_
_atom_site_label
_atom_site_type_symbol
_atom_site_fract_x
_atom_site_fract_y
_atom_site_fract_z
_atom_type_partial_charge
Mg0 Mg 0.10884 0.36689 0.039 0.0
O1 O 0.10181 0.33168 0.00127 0.0
O2 O 0.08545 0.29724 0.01861 0.0
Mg3 Mg 0.08016 0.31346 0.06632 0.0
C4 C 0.09374 0.30689 -0.00194 0.0
C5 C 0.1295 0.41919 0.0109 0.0
O6 O 0.13089 0.42837 0.0396 0.0
O7 O 0.08929 0.39249 0.03357 0.0
O8 O 0.07299 0.35853 0.05169 0.0
O9 O 0.12365 0.3343 0.05558 0.0
O10 O 0.1019 0.33481 0.07059 0.0
C11 C 0.07666 0.3845 0.04089 0.0
C12 C 0.11323 0.32172 0.07037 0.0
O13 O 0.1211 0.39569 0.00378 0.0
Mg14 Mg 0.41467 0.03668 0.09064 0.0
O15 O 0.42862 0.0387 0.13321 0.0
O16 O 0.4419 0.08324 0.13373 0.0
Mg17 Mg 0.43705 0.10946 0.09209 0.0
C18 C 0.43841 0.05741 0.14495 0.0
C19 C 0.40232 0.97018 0.12066 0.0
O20 O 0.41525 0.9637 0.11764 0.0
O21 O 0.40088 0.0716 0.10834 0.0
O22 O 0.41428 0.11493 0.10159 0.0
O23 O 0.43174 0.01571 0.06647 0.0
O24 O 0.42997 0.06502 0.0693 0.0
C25 C 0.40248 0.10057 0.1072 0.0
C26 C 0.437 0.04317 0.06106 0.0
O27 O 0.39987 -0.00089 0.11109 0.0
Mg28 Mg 0.12579 0.70441 0.17949 0.0
O29 O 0.11787 0.73873 0.21248 0.0
O30 O 0.10239 0.7658 0.19 0.0
Mg31 Mg 0.09937 0.74569 0.14133 0.0
C32 C 0.10998 0.76021 0.2129 0.0
C33 C 0.14251 0.69465 0.241 0.0
O34 O 0.14469 0.72449 0.24167 0.0
O35 O 0.10602 0.67133 0.17962 0.0
O36 O 0.09088 0.69844 0.15566 0.0
O37 O 0.14151 0.7428 0.16582 0.0
O38 O 0.12034 0.73052 0.14487 0.0
C39 C 0.09392 0.67426 0.1682 0.0
C40 C 0.1316 0.74866 0.1471 0.0
O41 O 0.13547 0.68092 0.21889 0.0
Mg42 Mg 0.25798 0.01064 0.32254 0.0
O43 O 0.24828 0.02924 0.28068 0.0
O44 O 0.23493 0.06582 0.29328 0.0
Mg45 Mg 0.23632 0.07096 0.34523 0.0
C46 C 0.23994 0.04859 0.27347 0.0
C47 C 0.26793 0.96777 0.26928 0.0
O48 O 0.25442 0.963 0.26312 0.0
O49 O 0.27362 0.05269 0.3298 0.0
O50 O 0.25953 0.08707 0.34484 0.0
O51 O 0.23771 0.97348 0.32497 0.0
O52 O 0.24129 0.02358 0.34649 0.0
C53 C 0.27165 0.07948 0.33916 0.0
C54 C 0.2333 -0.00084 0.33925 0.0
O55 O 0.27225 0.98414 0.29258 0.0
Mg56 Mg 0.34483 0.70463 0.03801 0.0
O57 O 0.32379 0.67473 0.03998 0.0
O58 O 0.30708 0.70611 0.04077 0.0
Mg59 Mg 0.3169 0.75516 0.03779 0.0
C60 C 0.31094 0.67936 0.04161 0.0
C61 C 0.36709 0.67111 0.0111 0.0
O62 O 0.37081 0.70031 0.00799 0.0
O63 O 0.34195 0.71462 0.36071 0.0
O64 O 0.32556 0.74691 0.3633 0.0
O65 O 0.34509 0.70976 0.08891 0.0
O66 O 0.33624 0.7413 0.05767 0.0
C67 C 0.33414 0.73257 0.34828 0.0
C68 C 0.33848 0.7335 0.08497 0.0
O69 O 0.35591 0.66333 0.02492 0.0
Mg70 Mg 0.02998 0.0216 0.2877 0.0
O71 O 0.04235 0.06726 0.27461 0.0
O72 O 0.02627 0.09947 0.2673 0.0
Mg73 Mg 0.00441 0.07649 0.27434 0.0
C74 C 0.03896 0.09345 0.2674 0.0
C75 C 0.0519 0.97373 0.29837 0.0
O76 O 0.04531 0.95937 0.27476 0.0
O77 O 0.02572 0.0392 0.33508 0.0
O78 O 0.00935 0.06981 0.32409 0.0
O79 O 0.02693 0.00786 0.23776 0.0
O80 O 0.01258 0.03322 0.26459 0.0
C81 C 0.01684 0.05709 0.34323 0.0
C82 C 0.01588 0.02225 0.23892 0.0
O83 O 0.04939 0.00327 0.30711 0.0
Mg84 Mg 0.33429 0.36013 0.20231 0.0
O85 O 0.35575 0.38607 0.21417 0.0
O86 O 0.36992 0.34996 0.22312 0.0
Mg87 Mg 0.35855 0.30258 0.21668 0.0
C88 C 0.36767 0.37785 0.22201 0.0
C89 C 0.31218 0.39038 0.1762 0.0
O90 O 0.30848 0.36119 0.17934 0.0
O91 O 0.34027 0.34561 0.15455 0.0
O92 O 0.35316 0.30851 0.16714 0.0
O93 O 0.32993 0.35878 0.25258 0.0
O94 O 0.33999 0.32453 0.22556 0.0
C95 C 0.34703 0.3232 0.14724 0.0
C96 C 0.33608 0.33409 0.25125 0.0
O97 O 0.32454 0.40093 0.18461 0.0
Mg98 Mg 0.19086 0.04413 0.1031 0.0
O99 O 0.17602 -6e-05 0.10407 0.0
O100 O 0.18869 0.95841 0.09706 0.0
Mg101 Mg 0.21145 0.97735 0.09134 0.0
C102 C 0.17669 0.96789 0.10032 0.0
C103 C 0.16255 0.07081 0.12859 0.0
O104 O 0.15477 0.05063 0.11124 0.0
O105 O 0.20132 0.03844 0.14915 0.0
O106 O 0.21551 0.00297 0.13881 0.0
O107 O 0.18626 0.04302 0.05263 0.0
O108 O 0.20335 0.02142 0.075 0.0
C109 C 0.21115 0.02276 0.15686 0.0
C110 C 0.19613 0.02524 0.05077 0.0
O111 O 0.17579 0.07231 0.12756 0.0
Mg112 Mg 0.33811 0.86561 0.22875 0.0
O113 O 0.33104 0.83287 0.1888 0.0
O114 O 0.31355 0.79987 0.20428 0.0
Mg115 Mg 0.30757 0.81491 0.25165 0.0
C116 C 0.32235 0.80911 0.18454 0.0
C117 C 0.36399 0.88957 0.19046 0.0
O118 O 0.36853 0.86492 0.20128 0.0
O119 O 0.31963 0.8939 0.22202 0.0
O120 O 0.30207 0.86138 0.23728 0.0
O121 O 0.35164 0.83048 0.24498 0.0
O122 O 0.32972 0.8326 0.25807 0.0
C123 C 0.30671 0.88729 0.22759 0.0
C124 C 0.34069 0.81819 0.2582 0.0
O125 O 0.35184 0.896 0.19739 0.0
Mg126 Mg 0.18377 0.5453 0.27374 0.0
O127 O 0.19977 0.54635 0.31223 0.0
O128 O 0.21656 0.58455 0.30727 0.0
Mg129 Mg 0.21051 0.61055 0.26616 0.0
C130 C 0.21135 0.56115 0.32079 0.0
C131 C 0.16394 0.48605 0.29464 0.0
O132 O 0.16666 0.47414 0.26801 0.0
O133 O 0.17358 0.586 0.29253 0.0
O134 O 0.18987 0.62425 0.28376 0.0
O135 O 0.19796 0.518 0.24642 0.0
O136 O 0.19891 0.56801 0.24684 0.0
C137 C 0.17766 0.61445 0.2922 0.0
C138 C 0.20411 0.54377 0.23801 0.0
O139 O 0.16924 0.51298 0.30192 0.0
Mg140 Mg 0.34794 0.19753 -0.00478 0.0
O141 O 0.3423 0.23313 0.02928 0.0
O142 O 0.32612 0.26242 0.0134 0.0
Mg143 Mg 0.31722 0.2395 0.3413 0.0
C144 C 0.33516 0.25563 0.03308 0.0
C145 C 0.36142 0.15372 0.03865 0.0
O146 O 0.35259 0.13424 0.02286 0.0
O147 O 0.3301 0.16176 0.00891 0.0
O148 O 0.31807 0.1946 0.36074 0.0
O149 O 0.35973 0.23623 0.3428 0.0
O150 O 0.33746 0.22026 0.33443 0.0
C151 C 0.31839 0.1688 -0.00086 0.0
C152 C 0.34798 0.23879 0.32853 0.0
O153 O 0.36271 0.18146 0.0314 0.0
Mg154 Mg 0.03128 0.51569 0.13668 0.0
O155 O 0.01908 0.52638 0.09381 0.0
O156 O 0.00765 0.5667 0.10397 0.0
Mg157 Mg 0.0127 0.58345 0.15242 0.0
C158 C 0.01059 0.54528 0.08603 0.0
C159 C 0.03858 0.46534 0.08768 0.0
O160 O 0.02492 0.46125 0.0837 0.0
O161 O 0.04841 0.55587 0.13342 0.0
O162 O 0.03578 0.59341 0.14694 0.0
O163 O 0.01127 0.48865 0.15231 0.0
O164 O 0.0174 0.5372 0.16293 0.0
C165 C 0.04744 0.58377 0.14086 0.0
C166 C 0.00831 0.51413 0.1646 0.0
O167 O 0.04391 0.4848 0.10776 0.0
Mg168 Mg 0.11659 0.20405 0.22275 0.0
O169 O 0.09457 0.17837 0.22423 0.0
O170 O 0.07943 0.21315 0.22729 0.0
Mg171 Mg 0.09125 0.2606 0.22495 0.0
C172 C 0.08212 0.18548 0.227 0.0
C173 C 0.13805 0.15994 0.20492 0.0
O174 O 0.14623 0.18403 0.21505 0.0
O175 O 0.11456 0.21729 0.17346 0.0
O176 O 0.09948 0.25239 0.17746 0.0
O177 O 0.11648 0.20714 0.27406 0.0
O178 O 0.10975 0.24215 0.24402 0.0
C179 C 0.10751 0.23713 0.16187 0.0
C180 C 0.11106 0.23256 0.27094 0.0
O181 O 0.1249 0.16005 0.20669 0.0
Mg182 Mg 0.25802 0.51082 0.09055 0.0
O183 O 0.2708 0.55646 0.08043 0.0
O184 O 0.25528 0.58917 0.06997 0.0
Mg185 Mg 0.23312 0.56643 0.07489 0.0
C186 C 0.26789 0.58273 0.07254 0.0
C187 C 0.273 0.4661 0.12115 0.0
O188 O 0.25945 0.45811 0.12139 0.0
O189 O 0.2526 0.52685 0.13833 0.0
O190 O 0.2371 0.55866 0.12471 0.0
O191 O 0.25611 0.49989 0.03996 0.0
O192 O 0.24093 0.52267 0.06701 0.0
C193 C 0.24372 0.54542 0.14499 0.0
C194 C 0.24464 0.51282 0.04125 0.0
O195 O 0.27723 0.49069 0.10851 0.0
Mg196 Mg 0.10521 0.85384 0.01445 0.0
O197 O 0.12544 0.88472 0.02758 0.0
O198 O 0.14197 0.85306 0.03238 0.0
Mg199 Mg 0.13389 0.80527 0.0157 0.0
C200 C 0.13773 0.87929 0.03592 0.0
C201 C 0.08273 0.90141 0.00558 0.0
O202 O 0.0753 0.88532 0.02517 0.0
O203 O 0.10988 0.8464 0.33715 0.0
O204 O 0.12697 0.81625 0.34066 0.0
O205 O 0.10404 0.8463 0.06511 0.0
O206 O 0.11363 0.81673 0.03221 0.0
C207 C 0.11848 0.83005 0.32487 0.0
C208 C 0.11147 0.82394 0.05993 0.0
O209 O 0.09505 0.89539 6e-05 0.0
Mg210 Mg 0.41629 0.54052 0.29538 0.0
O211 O 0.40543 0.49208 0.28902 0.0
O212 O 0.4224 0.46367 0.27583 0.0
Mg213 Mg 0.44365 0.49138 0.27654 0.0
C214 C 0.40953 0.46674 0.28002 0.0
C215 C 0.40197 0.58684 0.3264 0.0
O216 O 0.41477 0.59779 0.32009 0.0
O217 O 0.42644 0.53179 0.34082 0.0
O218 O 0.44372 0.50451 0.32711 0.0
O219 O 0.41278 0.54576 0.2453 0.0
O220 O 0.43134 0.52874 0.26726 0.0
C221 C 0.43732 0.51871 0.34718 0.0
C222 C 0.42437 0.53342 0.24299 0.0
O223 O 0.39797 0.55932 0.3185 0.0
C224 C 0.102 0.27206 0.08742 0.0
C225 C 0.11397 0.29328 0.08675 0.0
C226 C 0.10049 0.2506 0.11009 0.0
C227 C 0.11116 0.24894 0.13204 0.0
H228 H 0.09335 0.27318 0.07156 0.0
H229 H 0.09053 0.23693 0.11189 0.0
S230 S 0.14577 0.29472 0.1362 0.0
N231 N 0.1375 0.30816 0.10702 0.0
N232 N 0.13492 0.26685 0.14906 0.0
C233 C 0.12392 0.26714 0.12909 0.0
C234 C 0.12532 0.28952 0.1064 0.0
C235 C -0.00272 0.06911 0.18509 0.0
C236 C 0.4476 0.04733 0.16924 0.0
C237 C 0.00709 0.06038 0.20606 0.0
C238 C 0.00791 0.02962 0.21196 0.0
H239 H -0.00291 0.09319 0.18139 0.0
H240 H 0.01391 0.07797 0.2182 0.0
S241 S 0.44492 0.95957 0.17639 0.0
N242 N 0.44007 -0.0068 0.16046 0.0
N243 N -0.00215 0.97337 0.20057 0.0
C244 C -0.00119 0.00748 0.19614 0.0
C245 C 0.44848 0.01626 0.17471 0.0
C246 C 0.12534 0.78868 0.25232 0.0
C247 C 0.11188 0.7823 0.23889 0.0
C248 C 0.12768 0.80736 0.27844 0.0
C249 C 0.11663 0.82029 0.29244 0.0
H250 H 0.13416 0.77857 0.24297 0.0
H251 H 0.1381 0.81008 0.28885 0.0
S252 S 0.0798 0.81472 0.26327 0.0
N253 N 0.0877 0.79363 0.23883 0.0
N254 N 0.09196 0.82848 0.2887 0.0
C255 C 0.10332 0.81639 0.27769 0.0
C256 C 0.10097 0.79738 0.25074 0.0
C257 C 0.2052 0.9797 0.0226 0.0
C258 C 0.19999 0.01107 0.02194 0.0
C259 C 0.2147 0.97255 0.0006 0.0
C260 C 0.2189 -0.00368 0.34979 0.0
H261 H 0.20376 0.96506 0.04167 0.0
H262 H 0.22077 0.95358 0.00423 0.0
S263 S 0.20096 0.06383 0.33099 0.0
N264 N 0.19462 0.05333 0.36401 0.0
N265 N 0.21184 0.03876 0.32156 0.0
C266 C 0.21058 0.02024 0.34553 0.0
C267 C 0.20116 0.02793 -0.00438 0.0
C268 C 0.12559 0.78299 0.07541 0.0
C269 C 0.1189 0.80872 0.08397 0.0
C270 C 0.13256 0.76694 0.09656 0.0
C271 C 0.13239 0.77463 0.12753 0.0
H272 H 0.12473 0.77361 0.0524 0.0
H273 H 0.13651 0.74595 0.08897 0.0
S274 S 0.11726 0.84066 0.16251 0.0
N275 N 0.11376 0.84285 0.12572 0.0
N276 N 0.1259 0.81048 0.1662 0.0
C277 C 0.12642 0.80104 0.13664 0.0
C278 C 0.11973 0.81836 0.11475 0.0
C279 C 0.21291 0.04685 0.2093 0.0
C280 C 0.21887 0.03019 0.18615 0.0
C281 C 0.2202 0.05463 0.23689 0.0
C282 C 0.23375 0.04619 0.24229 0.0
H283 H 0.20242 0.05342 0.20638 0.0
H284 H 0.21489 0.06618 0.25454 0.0
S285 S 0.25481 0.00599 0.18764 0.0
N286 N 0.23969 0.00785 0.16958 0.0
N287 N 0.25337 0.02295 0.22115 0.0
C288 C 0.24011 0.03094 0.21876 0.0
C289 C 0.23266 0.02273 0.19083 0.0
C290 C 0.10429 0.28113 0.293 0.0
C291 C 0.10576 0.25003 0.29655 0.0
C292 C 0.09968 0.29906 0.31664 0.0
C293 C 0.09607 0.28648 0.34456 0.0
H294 H 0.10712 0.29206 0.27203 0.0
H295 H 0.09926 0.32314 0.31328 0.0
S296 S 0.09746 0.206 0.36519 0.0
N297 N 0.10284 0.20719 0.32988 0.0
N298 N 0.09396 0.24089 0.00179 0.0
C299 C 0.09701 0.25518 0.34817 0.0
C300 C 0.10196 0.23697 0.32417 0.0
C301 C 0.00894 0.029 0.01569 0.0
C302 C 0.01206 0.05712 0.00198 0.0
C303 C -0.00171 0.02516 0.03684 0.0
C304 C 0.45026 0.04933 0.04484 0.0
H305 H 0.01354 0.00903 0.0075 0.0
H306 H -0.00455 0.00257 0.04506 0.0
S307 S -0.00271 0.12923 0.0202 0.0
N308 N 0.00883 0.11071 0.00227 0.0
N309 N 0.44818 0.10365 0.04065 0.0
C310 C 0.45461 0.07843 0.03401 0.0
C311 C 0.00584 0.08233 0.01307 0.0
C312 C 0.32623 0.74831 0.29802 0.0
C313 C 0.33735 0.74366 0.31792 0.0
C314 C 0.3279 0.77025 0.27587 0.0
C315 C 0.34059 0.78897 0.27366 0.0
H316 H 0.31588 0.73682 0.3013 0.0
H317 H 0.31892 0.77371 0.26181 0.0
S318 S 0.37373 0.78068 0.31587 0.0
N319 N 0.36219 0.75505 0.33019 0.0
N320 N 0.36518 0.79725 0.28913 0.0
C321 C 0.35227 0.78168 0.29062 0.0
C322 C 0.35065 0.75878 0.31277 0.0
C323 C 0.34812 0.27837 0.11261 0.0
C324 C 0.34522 0.30884 0.11636 0.0
C325 C 0.34457 0.26164 0.08582 0.0
C326 C 0.33812 0.27454 0.06117 0.0
H327 H 0.35273 0.26662 0.13093 0.0
H328 H 0.3468 0.23809 0.08472 0.0
S329 S 0.32962 0.35441 0.05756 0.0
N330 N 0.33628 0.35199 0.09228 0.0
N331 N 0.32987 0.32038 0.04103 0.0
C332 C 0.33554 0.30529 0.0639 0.0
C333 C 0.33908 0.32249 0.09163 0.0
C334 C 0.35255 0.29343 0.31372 0.0
C335 C 0.34527 0.26426 0.30933 0.0
C336 C 0.34865 0.31794 0.29694 0.0
C337 C 0.33713 0.31387 0.27635 0.0
H338 H 0.36129 0.29724 0.32991 0.0
H339 H 0.35501 0.33968 0.29899 0.0
S340 S 0.31501 0.24217 0.25593 0.0
N341 N 0.32651 0.23269 0.2814 0.0
N342 N 0.31864 0.27915 0.2523 0.0
C343 C 0.3296 0.28516 0.27256 0.0
C344 C 0.33386 0.26019 0.28831 0.0
C345 C 0.33117 0.78203 0.10604 0.0
C346 C 0.33334 0.75138 0.11038 0.0
C347 C 0.32705 0.80046 0.12987 0.0
C348 C 0.32455 0.78861 0.15859 0.0
H349 H 0.33314 0.79223 0.0843 0.0
H350 H 0.32607 0.82424 0.12598 0.0
S351 S 0.32825 0.70973 0.18163 0.0
N352 N 0.33244 0.70994 0.14549 0.0
N353 N 0.32432 0.74442 0.19023 0.0
C354 C 0.32622 0.75779 0.16305 0.0
C355 C 0.33073 0.73919 0.13895 0.0
C356 C 0.24276 0.53796 0.36457 0.0
C357 C 0.23646 0.52016 0.0146 0.0
C358 C 0.23453 0.55185 0.34348 0.0
C359 C 0.21979 0.5481 0.34441 0.0
H360 H 0.25406 0.54242 0.36412 0.0
H361 H 0.23974 0.56556 0.32633 0.0
S362 S 0.19847 0.5029 0.02672 0.0
N363 N 0.21484 0.499 0.03673 0.0
N364 N 0.19935 0.52474 -0.00304 0.0
C365 C 0.21344 0.52965 0.3666 0.0
C366 C 0.2218 0.51576 0.01541 0.0
C367 C 0.45325 0.54747 0.19253 0.0
C368 C -0.00505 0.51851 0.17931 0.0
C369 C 0.44157 0.55325 0.20863 0.0
C370 C 0.43127 0.52978 0.2144 0.0
H371 H 0.00187 0.56563 0.19295 0.0
H372 H 0.44155 0.5754 0.21999 0.0
S373 S 0.42946 0.44976 0.18562 0.0
N374 N 0.44405 0.46627 0.17164 0.0
N375 N 0.4226 0.47656 0.20551 0.0
C376 C 0.43214 0.50078 0.20099 0.0
C377 C 0.44381 0.49518 0.18287 0.0
C378 C 0.00178 0.51078 0.04204 0.0
C379 C 0.00231 0.53946 0.05719 0.0
C380 C 0.45293 0.50366 0.01616 0.0
C381 C 0.44441 0.5248 0.00455 0.0
H382 H 0.00796 0.49349 0.05029 0.0
H383 H 0.45307 0.48153 0.00492 0.0
S384 S 0.4423 0.60352 0.03473 0.0
N385 N 0.45354 0.58948 0.05798 0.0
N386 N 0.43727 0.5759 0.00947 0.0
C387 C 0.44473 0.55348 0.01948 0.0
C388 C 0.4536 0.56088 0.04569 0.0
C389 C 0.2235 0.51976 0.21234 0.0
C390 C 0.21675 0.54584 0.2192 0.0
C391 C 0.23409 0.52049 0.19085 0.0
C392 C 0.23829 0.54741 0.17583 0.0
H393 H 0.22002 0.49822 0.22218 0.0
H394 H 0.23799 0.49928 0.18388 0.0
S395 S 0.22568 0.6229 0.18866 0.0
N396 N 0.21611 0.6 0.21061 0.0
N397 N 0.23664 0.60151 0.17249 0.0
C398 C 0.23283 0.57426 0.18508 0.0
C399 C 0.2218 0.57342 0.20602 0.0
C400 C 0.06224 0.45584 0.06912 0.0
C401 C 0.04778 0.44659 0.07012 0.0
C402 C 0.07149 0.43683 0.05621 0.0
C403 C 0.06666 0.40764 0.04423 0.0
H404 H 0.06656 0.47747 0.07948 0.0
H405 H 0.08261 0.44413 0.0579 0.0
S406 S 0.02962 0.37427 0.03702 0.0
N407 N 0.02891 0.40769 0.05445 0.0
N408 N 0.04634 0.37182 0.03083 0.0
C409 C 0.05213 0.39909 0.04291 0.0
C410 C 0.04268 0.41858 0.05571 0.0
C411 C 0.38721 0.90411 0.1673 0.0
C412 C 0.37324 0.90999 0.17145 0.0
C413 C 0.3964 0.92335 0.15048 0.0
C414 C 0.39205 0.94936 0.13696 0.0
H415 H 0.39121 0.88465 0.17746 0.0
H416 H 0.40707 0.91792 0.14848 0.0
S417 S 0.35632 0.97433 0.13957 0.0
N418 N 0.35536 0.9433 0.15963 0.0
N419 N 0.37257 0.97938 0.12801 0.0
C420 C 0.37801 0.95524 0.14039 0.0
C421 C 0.36865 0.93562 0.1576 0.0
C422 C 0.14501 0.64561 0.26603 0.0
C423 C 0.14975 0.67656 0.26303 0.0
C424 C 0.1534 0.62588 0.28029 0.0
C425 C 0.16697 0.63632 0.29147 0.0
H426 H 0.13517 0.63605 0.25539 0.0
H427 H 0.1498 0.6018 0.27938 0.0
S428 S 0.18269 0.71673 0.29648 0.0
N429 N 0.16758 0.71789 0.27807 0.0
N430 N 0.18346 0.68068 0.30447 0.0
C431 C 0.17098 0.66792 0.29236 0.0
C432 C 0.16236 0.6881 0.27809 0.0
C433 C 0.30746 0.11477 -0.00516 0.0
C434 C 0.30614 0.14609 0.36615 0.0
C435 C 0.29641 0.0931 0.3576 0.0
C436 C 0.28372 0.10216 0.34625 0.0
H437 H 0.31716 0.1069 0.00287 0.0
H438 H 0.29773 0.06917 0.35935 0.0
S439 S 0.27518 0.18134 0.33689 0.0
N440 N 0.29112 0.18497 0.35217 0.0
N441 N 0.27065 0.14435 0.33315 0.0
C442 C 0.28233 0.13336 0.34463 0.0
C443 C 0.29345 0.1553 0.35479 0.0
C444 C 0.0586 0.63053 0.16795 0.0
C445 C 0.06006 0.60507 0.14848 0.0
C446 C 0.06994 0.65166 0.17612 0.0
C447 C 0.08327 0.64809 0.16559 0.0
H448 H 0.04853 0.63457 0.17686 0.0
H449 H 0.06818 0.67155 0.18997 0.0
S450 S 0.09308 0.58575 0.11477 0.0
N451 N 0.07612 0.57732 0.1195 0.0
N452 N 0.09763 0.61752 0.13506 0.0
C453 C 0.08514 0.62242 0.14703 0.0
C454 C 0.07349 0.60077 0.13845 0.0
C455 C 0.27308 0.9223 0.23826 0.0
C456 C 0.2778 0.95077 0.25203 0.0
C457 C 0.28256 0.90289 0.22727 0.0
C458 C 0.29711 0.9114 0.2292 0.0
H459 H 0.26207 0.91394 0.23796 0.0
H460 H 0.27852 0.8802 0.2191 0.0
S461 S 0.31451 0.98646 0.25692 0.0
N462 N 0.29865 -0.00754 0.26248 0.0
N463 N 0.31557 0.95228 0.24141 0.0
C464 C 0.30183 0.94118 0.23974 0.0
C465 C 0.29217 0.96081 0.25138 0.0
C466 C 0.15375 0.48011 0.34635 0.0
C467 C 0.15494 0.4684 0.31649 0.0
C468 C 0.14549 0.46413 -0.005 0.0
C469 C 0.13793 0.43572 0.36004 0.0
H470 H 0.15933 0.50181 0.35357 0.0
H471 H 0.14504 0.47425 0.01763 0.0
S472 S 0.1374 0.39474 0.28492 0.0
N473 N 0.14779 0.42637 0.28048 0.0
N474 N 0.13224 0.39646 0.32034 0.0
C475 C 0.13896 0.42373 0.33021 0.0
C476 C 0.14746 0.43997 0.30854 0.0
C477 C 0.36805 0.11196 0.07105 0.0
C478 C 0.37021 0.1427 0.06326 0.0
C479 C 0.37763 0.09914 0.08985 0.0
C480 C 0.3899 0.11648 0.10116 0.0
H481 H 0.35935 0.09707 0.06107 0.0
H482 H 0.37608 0.07478 0.09276 0.0
S483 S 0.39817 0.20001 0.09536 0.0
N484 N 0.38376 0.19174 0.07418 0.0
N485 N 0.40189 0.16749 0.10937 0.0
C486 C 0.39111 0.14815 0.0972 0.0
C487 C 0.38129 0.16129 0.07809 0.0
C488 C 0.38857 0.65864 0.35782 0.0
C489 C 0.37566 0.64839 -0.00243 0.0
C490 C 0.39688 0.63845 0.34392 0.0
C491 C 0.39265 0.60699 0.34152 0.0
H492 H 0.39237 0.68262 0.35874 0.0
H493 H 0.40669 0.64781 0.33473 0.0
S494 S 0.35979 0.56807 -0.00211 0.0
N495 N 0.35902 0.60443 0.00684 0.0
N496 N 0.3747 0.5663 0.35305 0.0
C497 C 0.37977 0.5962 0.35385 0.0
C498 C 0.37128 0.61692 -0.00434 0.0
C499 C 0.07418 0.13299 0.24445 0.0
C500 C 0.0708 0.1614 0.23442 0.0
C501 C 0.06391 0.11132 0.25528 0.0
C502 C 0.04979 0.11705 0.25654 0.0
H503 H 0.08492 0.12765 0.24476 0.0
H504 H 0.06712 0.08998 0.26292 0.0
S505 S 0.03524 0.18718 0.23089 0.0
N506 N 0.05215 0.19339 0.22494 0.0
N507 N 0.03292 0.15309 0.24529 0.0
C508 C 0.04622 0.14515 0.24584 0.0
C509 C 0.05668 0.16713 0.23477 0.0
C510 C 0.30659 0.43919 0.1532 0.0
C511 C 0.3021 0.40978 0.16279 0.0
C512 C 0.29717 0.45729 0.13958 0.0
C513 C 0.28289 0.44672 0.1353 0.0
H514 H 0.31749 0.4482 0.15592 0.0
H515 H 0.30111 0.47974 0.13247 0.0
S516 S 0.26575 0.37147 0.15695 0.0
N517 N 0.28233 0.37112 0.1674 0.0
N518 N 0.26474 0.40489 0.14192 0.0
C519 C 0.27827 0.41742 0.145 0.0
C520 C 0.28783 0.39902 0.15872 0.0
C521 C 0.15521 0.95536 0.0677 0.0
C522 C 0.16451 0.94648 0.09024 0.0
C523 C 0.14634 0.93366 0.05041 0.0
C524 C 0.14657 0.90238 0.05499 0.0
H525 H 0.1555 0.97905 0.06187 0.0
H526 H 0.13975 0.94132 0.03253 0.0
S527 S 0.16671 0.86807 0.1158 0.0
N528 N 0.17188 0.90488 0.11916 0.0
N529 N 0.15507 0.86408 0.08733 0.0
C530 C 0.15495 0.89349 0.07922 0.0
C531 C 0.16395 0.91554 0.09668 0.0
C532 C 0.37479 0.42734 0.24973 0.0
C533 C 0.37862 0.40082 0.23513 0.0
C534 C 0.38473 0.44762 0.26576 0.0
C535 C 0.39892 0.44231 0.26769 0.0
H536 H 0.36398 0.43223 0.24935 0.0
H537 H 0.38124 0.46795 0.27615 0.0
S538 S 0.4143 0.37599 0.23294 0.0
N539 N 0.39751 0.37029 0.22326 0.0
N540 N 0.41621 0.40807 0.25353 0.0
C541 C 0.40284 0.41561 0.25331 0.0
C542 C 0.39271 0.39505 0.23692 0.0
C543 C 0.13606 0.11838 0.16443 0.0
C544 C 0.144 0.13514 0.18783 0.0
C545 C 0.14202 0.09718 0.14569 0.0
C546 C 0.15613 0.09191 0.14971 0.0
H547 H 0.1253 0.12242 0.15984 0.0
H548 H 0.13562 0.08547 0.12744 0.0
S549 S 0.1808 0.12694 0.21052 0.0
N550 N 0.16627 0.14305 0.21574 0.0
N551 N 0.17746 0.10315 0.18096 0.0
C552 C 0.16397 0.10756 0.17397 0.0
C553 C 0.15792 0.12917 0.1929 0.0
C554 C 0.27623 0.63676 0.06207 0.0
C555 C 0.27927 0.60647 0.06478 0.0
C556 C 0.28642 0.65973 0.05381 0.0
C557 C 0.3002 0.65361 0.0478 0.0
H558 H 0.26586 0.64302 0.06656 0.0
H559 H 0.28343 0.68263 0.05258 0.0
S560 S 0.31352 0.5777 0.05011 0.0
N561 N 0.29701 0.57129 0.05971 0.0
N562 N 0.31623 0.61452 0.04422 0.0
C563 C 0.30339 0.6233 0.04998 0.0
C564 C 0.29295 0.59979 0.0585 0.0
C565 C 0.06717 0.94243 -0.00307 0.0
C566 C 0.07593 0.92166 0.35786 0.0
C567 C 0.06 0.96042 0.3501 0.0
C568 C 0.06101 0.9575 0.31828 0.0
H569 H 0.06579 0.94461 0.02122 0.0
H570 H 0.05316 0.9758 0.36001 0.0
S571 S 0.0825 0.90619 0.27639 0.0
N572 N 0.08544 0.89955 0.31257 0.0
N573 N 0.07149 0.93249 0.27606 0.0
C574 C 0.06978 0.93694 0.30636 0.0
C575 C 0.07738 0.91925 0.32615 0.0
loop_
_geom_bond_atom_site_label_1
_geom_bond_atom_site_label_2
_geom_bond_distance
_geom_bond_site_symmetry_2
_ccdc_geom_bond_type
Mg0 O1 2.028 1_554 S
Mg0 O7 1.986 . S
Mg0 O9 2.114 . S
Mg0 O10 2.251 . S
Mg0 O13 2.010 . S
O1 Mg0 2.028 1_556 S
O1 C4 1.250 . S
O2 Mg3 2.028 1_556 S
O2 C4 1.248 . S
Mg3 O2 2.028 1_554 S
Mg3 O8 2.032 . S
Mg3 O10 2.079 . S
C4 O1 1.250 . S
C4 O2 1.248 . S
C5 O6 1.264 . S
C5 O13 1.249 . S
O6 C5 1.264 . S
O7 Mg0 1.986 . S
O7 C11 1.246 . S
O8 Mg3 2.032 . S
O8 C11 1.259 . S
O9 Mg0 2.114 . S
O9 C12 1.252 . S
O10 Mg0 2.251 . S
O10 Mg3 2.079 . S
O10 C12 1.273 . S
C11 O7 1.246 . S
C11 O8 1.259 . S
C12 O9 1.252 . S
C12 O10 1.273 . S
O13 Mg0 2.010 . S
O13 C5 1.249 . S
Mg14 O15 2.028 . S
Mg14 O21 1.986 . S
Mg14 O23 2.114 . S
Mg14 O24 2.251 . S
Mg14 O27 2.010 . S
O15 Mg14 2.028 . S
O15 C18 1.250 . S
O16 Mg17 2.028 . S
O16 C18 1.248 . S
Mg17 O16 2.028 . S
Mg17 O22 2.032 . S
Mg17 O24 2.079 . S
C18 O15 1.250 . S
C18 O16 1.248 . S
C19 O20 1.264 . S
C19 O27 1.249 1_565 S
O20 C19 1.264 . S
O21 Mg14 1.986 . S
O21 C25 1.246 . S
O22 Mg17 2.032 . S
O22 C25 1.259 . S
O23 Mg14 2.114 . S
O23 C26 1.252 . S
O24 Mg14 2.251 . S
O24 Mg17 2.079 . S
O24 C26 1.273 . S
C25 O21 1.246 . S
C25 O22 1.259 . S
C26 O23 1.252 . S
C26 O24 1.273 . S
O27 Mg14 2.010 . S
O27 C19 1.249 1_545 S
Mg28 O29 2.028 . S
Mg28 O35 1.986 . S
Mg28 O37 2.114 . S
Mg28 O38 2.251 . S
Mg28 O41 2.010 . S
O29 Mg28 2.028 . S
O29 C32 1.250 . S
O30 Mg31 2.028 . S
O30 C32 1.248 . S
Mg31 O30 2.028 . S
Mg31 O36 2.032 . S
Mg31 O38 2.079 . S
C32 O29 1.250 . S
C32 O30 1.248 . S
C33 O34 1.264 . S
C33 O41 1.249 . S
O34 C33 1.264 . S
O35 Mg28 1.986 . S
O35 C39 1.246 . S
O36 Mg31 2.032 . S
O36 C39 1.259 . S
O37 Mg28 2.114 . S
O37 C40 1.252 . S
O38 Mg28 2.251 . S
O38 Mg31 2.079 . S
O38 C40 1.273 . S
C39 O35 1.246 . S
C39 O36 1.259 . S
C40 O37 1.252 . S
C40 O38 1.273 . S
O41 Mg28 2.010 . S
O41 C33 1.249 . S
Mg42 O43 2.028 . S
Mg42 O49 1.986 . S
Mg42 O51 2.114 1_545 S
Mg42 O52 2.251 . S
Mg42 O55 2.010 1_545 S
O43 Mg42 2.028 . S
O43 C46 1.250 . S
O44 Mg45 2.028 . S
O44 C46 1.248 . S
Mg45 O44 2.028 . S
Mg45 O50 2.032 . S
Mg45 O52 2.079 . S
C46 O43 1.250 . S
C46 O44 1.248 . S
C47 O48 1.264 . S
C47 O55 1.249 . S
O48 C47 1.264 . S
O49 Mg42 1.986 . S
O49 C53 1.246 . S
O50 Mg45 2.032 . S
O50 C53 1.259 . S
O51 Mg42 2.114 1_565 S
O51 C54 1.252 1_565 S
O52 Mg42 2.251 . S
O52 Mg45 2.079 . S
O52 C54 1.273 . S
C53 O49 1.246 . S
C53 O50 1.259 . S
C54 O51 1.252 1_545 S
C54 O52 1.273 . S
O55 Mg42 2.010 1_565 S
O55 C47 1.249 . S
Mg56 O57 2.028 . S
Mg56 O63 1.986 1_554 S
Mg56 O65 2.114 . S
Mg56 O66 2.251 . S
Mg56 O69 2.010 . S
O57 Mg56 2.028 . S
O57 C60 1.250 . S
O58 Mg59 2.028 . S
O58 C60 1.248 . S
Mg59 O58 2.028 . S
Mg59 O64 2.032 1_554 S
Mg59 O66 2.079 . S
C60 O57 1.250 . S
C60 O58 1.248 . S
C61 O62 1.264 . S
C61 O69 1.249 . S
O62 C61 1.264 . S
O63 Mg56 1.986 1_556 S
O63 C67 1.246 . S
O64 Mg59 2.032 1_556 S
O64 C67 1.259 . S
O65 Mg56 2.114 . S
O65 C68 1.252 . S
O66 Mg56 2.251 . S
O66 Mg59 2.079 . S
O66 C68 1.273 . S
C67 O63 1.246 . S
C67 O64 1.259 . S
C68 O65 1.252 . S
C68 O66 1.273 . S
O69 Mg56 2.010 . S
O69 C61 1.249 . S
Mg70 O71 2.028 . S
Mg70 O77 1.986 . S
Mg70 O79 2.114 . S
Mg70 O80 2.251 . S
Mg70 O83 2.028 . S
O71 Mg70 2.028 . S
O71 C74 1.250 . S
O72 Mg73 2.028 . S
O72 C74 1.248 . S
Mg73 O72 2.028 . S
Mg73 O78 2.032 . S
Mg73 O80 2.079 . S
C74 O71 1.250 . S
C74 O72 1.248 . S
C75 O76 1.264 . S
C75 O83 1.232 1_565 S
O76 C75 1.264 . S
O77 Mg70 1.986 . S
O77 C81 1.246 . S
O78 Mg73 2.032 . S
O78 C81 1.259 . S
O79 Mg70 2.114 . S
O79 C82 1.252 . S
O80 Mg70 2.251 . S
O80 Mg73 2.079 . S
O80 C82 1.273 . S
C81 O77 1.246 . S
C81 O78 1.259 . S
C82 O79 1.252 . S
C82 O80 1.273 . S
O83 Mg70 2.028 . S
O83 C75 1.232 1_545 S
Mg84 O85 2.028 . S
Mg84 O91 1.986 . S
Mg84 O93 2.114 . S
Mg84 O94 2.251 . S
Mg84 O97 2.010 . S
O85 Mg84 2.028 . S
O85 C88 1.250 . S
O86 Mg87 2.028 . S
O86 C88 1.248 . S
Mg87 O86 2.028 . S
Mg87 O92 2.032 . S
Mg87 O94 2.079 . S
C88 O85 1.250 . S
C88 O86 1.248 . S
C89 O90 1.264 . S
C89 O97 1.249 . S
O90 C89 1.264 . S
O91 Mg84 1.986 . S
O91 C95 1.246 . S
O92 Mg87 2.032 . S
O92 C95 1.259 . S
O93 Mg84 2.114 . S
O93 C96 1.252 . S
O94 Mg84 2.251 . S
O94 Mg87 2.079 . S
O94 C96 1.273 . S
C95 O91 1.246 . S
C95 O92 1.259 . S
C96 O93 1.252 . S
C96 O94 1.273 . S
O97 Mg84 2.010 . S
O97 C89 1.249 . S
Mg98 O99 2.028 . S
Mg98 O105 1.986 . S
Mg98 O107 2.114 . S
Mg98 O108 2.251 . S
Mg98 O111 2.010 . S
O99 Mg98 2.028 . S
O99 C102 1.250 1_545 S
O100 Mg101 2.028 . S
O100 C102 1.248 . S
Mg101 O100 2.028 . S
Mg101 O106 2.032 . S
Mg101 O108 2.079 1_565 S
C102 O99 1.250 1_565 S
C102 O100 1.248 . S
C103 O104 1.264 . S
C103 O111 1.249 . S
O104 C103 1.264 . S
O105 Mg98 1.986 . S
O105 C109 1.246 . S
O106 Mg101 2.032 . S
O106 C109 1.259 1_565 S
O107 Mg98 2.114 . S
O107 C110 1.252 . S
O108 Mg98 2.251 . S
O108 Mg101 2.079 1_545 S
O108 C110 1.273 . S
C109 O105 1.246 . S
C109 O106 1.259 1_545 S
C110 O107 1.252 . S
C110 O108 1.273 . S
O111 Mg98 2.010 . S
O111 C103 1.249 . S
Mg112 O113 2.028 . S
Mg112 O119 1.986 . S
Mg112 O121 2.114 . S
Mg112 O122 2.251 . S
Mg112 O125 2.010 . S
O113 Mg112 2.028 . S
O113 C116 1.250 . S
O114 Mg115 2.028 . S
O114 C116 1.248 . S
Mg115 O114 2.028 . S
Mg115 O120 2.032 . S
Mg115 O122 2.079 . S
C116 O113 1.250 . S
C116 O114 1.248 . S
C117 O118 1.264 . S
C117 O125 1.249 . S
O118 C117 1.264 . S
O119 Mg112 1.986 . S
O119 C123 1.246 . S
O120 Mg115 2.032 . S
O120 C123 1.259 . S
O121 Mg112 2.114 . S
O121 C124 1.252 . S
O122 Mg112 2.251 . S
O122 Mg115 2.079 . S
O122 C124 1.273 . S
C123 O119 1.246 . S
C123 O120 1.259 . S
C124 O121 1.252 . S
C124 O122 1.273 . S
O125 Mg112 2.010 . S
O125 C117 1.249 . S
Mg126 O127 2.028 . S
Mg126 O133 1.986 . S
Mg126 O135 2.114 . S
Mg126 O136 2.251 . S
Mg126 O139 2.010 . S
O127 Mg126 2.028 . S
O127 C130 1.250 . S
O128 Mg129 2.028 . S
O128 C130 1.248 . S
Mg129 O128 2.028 . S
Mg129 O134 2.032 . S
Mg129 O136 2.079 . S
C130 O127 1.250 . S
C130 O128 1.248 . S
C131 O132 1.264 . S
C131 O139 1.249 . S
O132 C131 1.264 . S
O133 Mg126 1.986 . S
O133 C137 1.246 . S
O134 Mg129 2.032 . S
O134 C137 1.259 . S
O135 Mg126 2.114 . S
O135 C138 1.252 . S
O136 Mg126 2.251 . S
O136 Mg129 2.079 . S
O136 C138 1.273 . S
C137 O133 1.246 . S
C137 O134 1.259 . S
C138 O135 1.252 . S
C138 O136 1.273 . S
O139 Mg126 2.010 . S
O139 C131 1.249 . S
Mg140 O141 2.028 . S
Mg140 O147 1.986 . S
Mg140 O149 2.114 1_554 S
Mg140 O150 2.251 1_554 S
Mg140 O153 2.010 . S
O141 Mg140 2.028 . S
O141 C144 1.250 . S
O142 Mg143 2.028 1_554 S
O142 C144 1.248 . S
Mg143 O142 2.028 1_556 S
Mg143 O148 2.032 1_556 S
Mg143 O150 2.079 . S
C144 O141 1.250 . S
C144 O142 1.248 . S
C145 O146 1.264 . S
C145 O153 1.249 . S
O146 C145 1.264 . S
O147 Mg140 1.986 . S
O147 C151 1.246 . S
O148 Mg143 2.032 1_554 S
O148 C151 1.259 . S
O149 Mg140 2.114 1_556 S
O149 C152 1.252 . S
O150 Mg140 2.251 1_556 S
O150 Mg143 2.079 . S
O150 C152 1.273 . S
C151 O147 1.246 . S
C151 O148 1.259 . S
C152 O149 1.252 . S
C152 O150 1.273 . S
O153 Mg140 2.010 . S
O153 C145 1.249 . S
Mg154 O155 2.028 . S
Mg154 O161 1.986 . S
Mg154 O163 2.114 . S
Mg154 O164 2.251 . S
Mg154 O167 2.010 . S
O155 Mg154 2.028 . S
O155 C158 1.250 . S
O156 Mg157 2.028 . S
O156 C158 1.248 . S
Mg157 O156 2.028 . S
Mg157 O162 2.032 . S
Mg157 O164 2.079 . S
C158 O155 1.250 . S
C158 O156 1.248 . S
C159 O160 1.264 . S
C159 O167 1.249 . S
O160 C159 1.264 . S
O161 Mg154 1.986 . S
O161 C165 1.246 . S
O162 Mg157 2.032 . S
O162 C165 1.259 . S
O163 Mg154 2.114 . S
O163 C166 1.252 . S
O164 Mg154 2.251 . S
O164 Mg157 2.079 . S
O164 C166 1.273 . S
C165 O161 1.246 . S
C165 O162 1.259 . S
C166 O163 1.252 . S
C166 O164 1.273 . S
O167 Mg154 2.010 . S
O167 C159 1.249 . S
Mg168 O169 2.028 . S
Mg168 O175 1.986 . S
Mg168 O177 2.114 . S
Mg168 O178 2.251 . S
Mg168 O181 2.010 . S
O169 Mg168 2.028 . S
O169 C172 1.250 . S
O170 Mg171 2.028 . S
O170 C172 1.248 . S
Mg171 O170 2.028 . S
Mg171 O176 2.032 . S
Mg171 O178 2.079 . S
C172 O169 1.250 . S
C172 O170 1.248 . S
C173 O174 1.264 . S
C173 O181 1.249 . S
O174 C173 1.264 . S
O175 Mg168 1.986 . S
O175 C179 1.246 . S
O176 Mg171 2.032 . S
O176 C179 1.259 . S
O177 Mg168 2.114 . S
O177 C180 1.252 . S
O178 Mg168 2.251 . S
O178 Mg171 2.079 . S
O178 C180 1.273 . S
C179 O175 1.246 . S
C179 O176 1.259 . S
C180 O177 1.252 . S
C180 O178 1.273 . S
O181 Mg168 2.010 . S
O181 C173 1.249 . S
Mg182 O183 2.028 . S
Mg182 O189 1.986 . S
Mg182 O191 2.114 . S
Mg182 O192 2.251 . S
Mg182 O195 2.010 . S
O183 Mg182 2.028 . S
O183 C186 1.250 . S
O184 Mg185 2.028 . S
O184 C186 1.248 . S
Mg185 O184 2.028 . S
Mg185 O190 2.032 . S
Mg185 O192 2.079 . S
C186 O183 1.250 . S
C186 O184 1.248 . S
C187 O188 1.264 . S
C187 O195 1.249 . S
O188 C187 1.264 . S
O189 Mg182 1.986 . S
O189 C193 1.246 . S
O190 Mg185 2.032 . S
O190 C193 1.259 . S
O191 Mg182 2.114 . S
O191 C194 1.252 . S
O192 Mg182 2.251 . S
O192 Mg185 2.079 . S
O192 C194 1.273 . S
C193 O189 1.246 . S
C193 O190 1.259 . S
C194 O191 1.252 . S
C194 O192 1.273 . S
O195 Mg182 2.010 . S
O195 C187 1.249 . S
Mg196 O197 2.028 . S
Mg196 O203 1.986 1_554 S
Mg196 O205 2.114 . S
Mg196 O206 2.251 . S
Mg196 O209 2.007 1_554 S
O197 Mg196 2.028 . S
O197 C200 1.250 . S
O198 Mg199 2.028 . S
O198 C200 1.248 . S
Mg199 O198 2.028 . S
Mg199 O204 2.032 1_554 S
Mg199 O206 2.079 . S
C200 O197 1.250 . S
C200 O198 1.248 . S
C201 O202 1.264 . S
C201 O209 1.250 . S
O202 C201 1.264 . S
O203 Mg196 1.986 1_556 S
O203 C207 1.246 . S
O204 Mg199 2.032 1_556 S
O204 C207 1.259 . S
O205 Mg196 2.114 . S
O205 C208 1.252 . S
O206 Mg196 2.251 . S
O206 Mg199 2.079 . S
O206 C208 1.273 . S
C207 O203 1.246 . S
C207 O204 1.259 . S
C208 O205 1.252 . S
C208 O206 1.273 . S
O209 Mg196 2.007 1_556 S
O209 C201 1.250 . S
Mg210 O211 2.028 . S
Mg210 O217 1.986 . S
Mg210 O219 2.114 . S
Mg210 O220 2.251 . S
Mg210 O223 2.010 . S
O211 Mg210 2.028 . S
O211 C214 1.250 . S
O212 Mg213 2.028 . S
O212 C214 1.248 . S
Mg213 O212 2.028 . S
Mg213 O218 2.032 . S
Mg213 O220 2.079 . S
C214 O211 1.250 . S
C214 O212 1.248 . S
C215 O216 1.264 . S
C215 O223 1.249 . S
O216 C215 1.264 . S
O217 Mg210 1.986 . S
O217 C221 1.246 . S
O218 Mg213 2.032 . S
O218 C221 1.259 . S
O219 Mg210 2.114 . S
O219 C222 1.252 . S
O220 Mg210 2.251 . S
O220 Mg213 2.079 . S
O220 C222 1.273 . S
C221 O217 1.246 . S
C221 O218 1.259 . S
C222 O219 1.252 . S
C222 O220 1.273 . S
O223 Mg210 2.010 . S
O223 C215 1.249 . S
C224 C225 1.369 . S
C224 C226 1.419 . S
C224 H228 0.930 . S
C225 C224 1.369 . S
C225 C234 1.429 . S
C226 C224 1.419 . S
C226 C227 1.363 . S
C226 H229 0.929 . S
C227 C226 1.363 . S
C227 C233 1.428 . S
H228 C224 0.930 . S
H229 C226 0.929 . S
S230 N231 1.613 . S
S230 N232 1.610 . S
N231 S230 1.613 . S
N231 C234 1.350 . S
N232 S230 1.610 . S
N232 C233 1.351 . S
C233 C227 1.428 . S
C233 N232 1.351 . S
C233 C234 1.434 . S
C234 C225 1.429 . S
C234 N231 1.350 . S
C234 C233 1.434 . S
C235 C236 1.369 . S
C235 C237 1.419 1_655 S
C235 H239 0.930 . S
C236 C235 1.369 . S
C236 C245 1.429 . S
C237 C235 1.419 1_455 S
C237 C238 1.363 . S
C237 H240 0.929 . S
C238 C237 1.363 . S
C238 C244 1.428 . S
H239 C235 0.930 . S
H240 C237 0.929 . S
S241 N242 1.613 1_565 S
S241 N243 1.610 1_655 S
N242 S241 1.613 1_545 S
N242 C245 1.350 . S
N243 S241 1.610 1_455 S
N243 C244 1.351 1_565 S
C244 C238 1.428 . S
C244 N243 1.351 1_545 S
C244 C245 1.434 1_455 S
C245 C236 1.429 . S
C245 N242 1.350 . S
C245 C244 1.434 1_655 S
C246 C247 1.369 . S
C246 C248 1.419 . S
C246 H250 0.930 . S
C247 C246 1.369 . S
C247 C256 1.429 . S
C248 C246 1.419 . S
C248 C249 1.363 . S
C248 H251 0.929 . S
C249 C248 1.363 . S
C249 C255 1.428 . S
H250 C246 0.930 . S
H251 C248 0.929 . S
S252 N253 1.613 . S
S252 N254 1.610 . S
N253 S252 1.613 . S
N253 C256 1.350 . S
N254 S252 1.610 . S
N254 C255 1.351 . S
C255 C249 1.428 . S
C255 N254 1.351 . S
C255 C256 1.434 . S
C256 C247 1.429 . S
C256 N253 1.350 . S
C256 C255 1.434 . S
C257 C258 1.369 . S
C257 C259 1.419 . S
C257 H261 0.930 . S
C258 C257 1.369 . S
C258 C267 1.429 . S
C259 C257 1.419 . S
C259 C260 1.363 . S
C259 H262 0.929 1_545 S
C260 C259 1.363 . S
C260 C266 1.428 . S
H261 C257 0.930 . S
H262 C259 0.929 1_565 S
S263 N264 1.613 1_556 S
S263 N265 1.610 . S
N264 S263 1.613 1_554 S
N264 C267 1.350 . S
N265 S263 1.610 . S
N265 C266 1.351 1_556 S
C266 C260 1.428 . S
C266 N265 1.351 1_554 S
C266 C267 1.434 . S
C267 C258 1.429 . S
C267 N264 1.350 . S
C267 C266 1.434 . S
C268 C269 1.369 . S
C268 C270 1.419 . S
C268 H272 0.930 . S
C269 C268 1.369 . S
C269 C278 1.429 . S
C270 C268 1.419 . S
C270 C271 1.363 . S
C270 H273 0.929 . S
C271 C270 1.363 . S
C271 C277 1.428 . S
H272 C268 0.930 . S
H273 C270 0.929 . S
S274 N275 1.613 . S
S274 N276 1.610 . S
N275 S274 1.613 . S
N275 C278 1.350 . S
N276 S274 1.610 . S
N276 C277 1.351 . S
C277 C271 1.428 . S
C277 N276 1.351 . S
C277 C278 1.434 . S
C278 C269 1.429 . S
C278 N275 1.350 . S
C278 C277 1.434 . S
C279 C280 1.369 . S
C279 C281 1.419 . S
C279 H283 0.930 . S
C280 C279 1.369 . S
C280 C289 1.429 . S
C281 C279 1.419 . S
C281 C282 1.363 . S
C281 H284 0.929 . S
C282 C281 1.363 . S
C282 C288 1.428 . S
H283 C279 0.930 . S
H284 C281 0.929 . S
S285 N286 1.613 . S
S285 N287 1.610 . S
N286 S285 1.613 . S
N286 C289 1.350 . S
N287 S285 1.610 . S
N287 C288 1.351 . S
C288 C282 1.428 . S
C288 N287 1.351 . S
C288 C289 1.434 . S
C289 C280 1.429 . S
C289 N286 1.350 . S
C289 C288 1.434 . S
C290 C291 1.369 . S
C290 C292 1.419 . S
C290 H294 0.930 . S
C291 C290 1.369 . S
C291 C300 1.429 . S
C292 C290 1.419 . S
C292 C293 1.363 . S
C292 H295 0.929 . S
C293 C292 1.363 . S
C293 C299 1.428 . S
H294 C290 0.930 . S
H295 C292 0.929 . S
S296 N297 1.613 . S
S296 N298 1.610 . S
N297 S296 1.613 . S
N297 C300 1.350 . S
N298 S296 1.610 . S
N298 C299 1.351 . S
C299 C293 1.428 . S
C299 N298 1.351 . S
C299 C300 1.434 . S
C300 C291 1.429 . S
C300 N297 1.350 . S
C300 C299 1.434 . S
C301 C302 1.369 . S
C301 C303 1.419 1_455 S
C301 H305 0.930 1_554 S
C302 C301 1.369 . S
C302 C311 1.429 . S
C303 C301 1.419 1_655 S
C303 C304 1.363 . S
C303 H306 0.929 . S
C304 C303 1.363 . S
C304 C310 1.428 . S
H305 C301 0.930 1_556 S
H306 C303 0.929 . S
S307 N308 1.613 . S
S307 N309 1.610 1_455 S
N308 S307 1.613 . S
N308 C311 1.350 . S
N309 S307 1.610 1_655 S
N309 C310 1.351 . S
C310 C304 1.428 . S
C310 N309 1.351 . S
C310 C311 1.434 1_655 S
C311 C302 1.429 . S
C311 N308 1.350 . S
C311 C310 1.434 1_455 S
C312 C313 1.369 . S
C312 C314 1.419 . S
C312 H316 0.930 . S
C313 C312 1.369 . S
C313 C322 1.429 . S
C314 C312 1.419 . S
C314 C315 1.363 . S
C314 H317 0.929 . S
C315 C314 1.363 . S
C315 C321 1.428 . S
H316 C312 0.930 . S
H317 C314 0.929 . S
S318 N319 1.613 . S
S318 N320 1.610 . S
N319 S318 1.613 . S
N319 C322 1.350 . S
N320 S318 1.610 . S
N320 C321 1.351 . S
C321 C315 1.428 . S
C321 N320 1.351 . S
C321 C322 1.434 . S
C322 C313 1.429 . S
C322 N319 1.350 . S
C322 C321 1.434 . S
C323 C324 1.369 . S
C323 C325 1.419 . S
C323 H327 0.930 . S
C324 C323 1.369 . S
C324 C333 1.429 . S
C325 C323 1.419 . S
C325 C326 1.363 . S
C325 H328 0.929 . S
C326 C325 1.363 . S
C326 C332 1.428 . S
H327 C323 0.930 . S
H328 C325 0.929 . S
S329 N330 1.613 . S
S329 N331 1.610 . S
N330 S329 1.613 . S
N330 C333 1.350 . S
N331 S329 1.610 . S
N331 C332 1.351 . S
C332 C326 1.428 . S
C332 N331 1.351 . S
C332 C333 1.434 . S
C333 C324 1.429 . S
C333 N330 1.350 . S
C333 C332 1.434 . S
C334 C335 1.369 . S
C334 C336 1.419 . S
C334 H338 0.930 . S
C335 C334 1.369 . S
C335 C344 1.429 . S
C336 C334 1.419 . S
C336 C337 1.363 . S
C336 H339 0.929 . S
C337 C336 1.363 . S
C337 C343 1.428 . S
H338 C334 0.930 . S
H339 C336 0.929 . S
S340 N341 1.613 . S
S340 N342 1.610 . S
N341 S340 1.613 . S
N341 C344 1.350 . S
N342 S340 1.610 . S
N342 C343 1.351 . S
C343 C337 1.428 . S
C343 N342 1.351 . S
C343 C344 1.434 . S
C344 C335 1.429 . S
C344 N341 1.350 . S
C344 C343 1.434 . S
C345 C346 1.369 . S
C345 C347 1.419 . S
C345 H349 0.930 . S
C346 C345 1.369 . S
C346 C355 1.429 . S
C347 C345 1.419 . S
C347 C348 1.363 . S
C347 H350 0.929 . S
C348 C347 1.363 . S
C348 C354 1.428 . S
H349 C345 0.930 . S
H350 C347 0.929 . S
S351 N352 1.613 . S
S351 N353 1.610 . S
N352 S351 1.613 . S
N352 C355 1.350 . S
N353 S351 1.610 . S
N353 C354 1.351 . S
C354 C348 1.428 . S
C354 N353 1.351 . S
C354 C355 1.434 . S
C355 C346 1.429 . S
C355 N352 1.350 . S
C355 C354 1.434 . S
C356 C357 1.369 . S
C356 C358 1.419 1_554 S
C356 H360 0.930 . S
C357 C356 1.369 . S
C357 C366 1.429 . S
C358 C356 1.419 1_556 S
C358 C359 1.363 . S
C358 H361 0.929 . S
C359 C358 1.363 . S
C359 C365 1.428 1_556 S
H360 C356 0.930 . S
H361 C358 0.929 . S
S362 N363 1.613 . S
S362 N364 1.610 . S
N363 S362 1.613 . S
N363 C366 1.350 . S
N364 S362 1.610 . S
N364 C365 1.351 . S
C365 C359 1.428 1_554 S
C365 N364 1.351 . S
C365 C366 1.434 . S
C366 C357 1.429 . S
C366 N363 1.350 . S
C366 C365 1.434 . S
C367 C368 1.369 . S
C367 C369 1.419 1_455 S
C367 H371 0.930 . S
C368 C367 1.369 . S
C368 C377 1.429 1_455 S
C369 C367 1.419 1_655 S
C369 C370 1.363 . S
C369 H372 0.929 1_655 S
C370 C369 1.363 . S
C370 C376 1.428 . S
H371 C367 0.930 . S
H372 C369 0.929 1_455 S
S373 N374 1.613 . S
S373 N375 1.610 . S
N374 S373 1.613 . S
N374 C377 1.350 . S
N375 S373 1.610 . S
N375 C376 1.351 . S
C376 C370 1.428 . S
C376 N375 1.351 . S
C376 C377 1.434 . S
C377 C368 1.429 1_655 S
C377 N374 1.350 . S
C377 C376 1.434 . S
C378 C379 1.369 1_655 S
C378 C380 1.419 . S
C378 H382 0.930 . S
C379 C378 1.369 1_455 S
C379 C388 1.429 . S
C380 C378 1.419 . S
C380 C381 1.363 . S
C380 H383 0.929 . S
C381 C380 1.363 . S
C381 C387 1.428 . S
H382 C378 0.930 . S
H383 C380 0.929 . S
S384 N385 1.613 1_556 S
S384 N386 1.610 1_455 S
N385 S384 1.613 1_554 S
N385 C388 1.350 . S
N386 S384 1.610 1_655 S
N386 C387 1.351 1_556 S
C387 C381 1.428 . S
C387 N386 1.351 1_554 S
C387 C388 1.434 1_655 S
C388 C379 1.429 . S
C388 N385 1.350 . S
C388 C387 1.434 1_455 S
C389 C390 1.369 . S
C389 C391 1.419 . S
C389 H393 0.930 . S
C390 C389 1.369 . S
C390 C399 1.429 . S
C391 C389 1.419 . S
C391 C392 1.363 . S
C391 H394 0.929 . S
C392 C391 1.363 . S
C392 C398 1.428 . S
H393 C389 0.930 . S
H394 C391 0.929 . S
S395 N396 1.613 . S
S395 N397 1.610 . S
N396 S395 1.613 . S
N396 C399 1.350 . S
N397 S395 1.610 . S
N397 C398 1.351 . S
C398 C392 1.428 . S
C398 N397 1.351 . S
C398 C399 1.434 . S
C399 C390 1.429 . S
C399 N396 1.350 . S
C399 C398 1.434 . S
C400 C401 1.369 . S
C400 C402 1.419 . S
C400 H404 0.930 . S
C401 C400 1.369 . S
C401 C410 1.429 . S
C402 C400 1.419 . S
C402 C403 1.363 . S
C402 H405 0.929 . S
C403 C402 1.363 . S
C403 C409 1.428 . S
H404 C400 0.930 . S
H405 C402 0.929 . S
S406 N407 1.613 . S
S406 N408 1.610 . S
N407 S406 1.613 . S
N407 C410 1.350 . S
N408 S406 1.610 . S
N408 C409 1.351 . S
C409 C403 1.428 . S
C409 N408 1.351 . S
C409 C410 1.434 . S
C410 C401 1.429 . S
C410 N407 1.350 . S
C410 C409 1.434 . S
C411 C412 1.369 . S
C411 C413 1.419 . S
C411 H415 0.930 . S
C412 C411 1.369 . S
C412 C421 1.429 . S
C413 C411 1.419 . S
C413 C414 1.363 . S
C413 H416 0.929 . S
C414 C413 1.363 . S
C414 C420 1.428 . S
H415 C411 0.930 . S
H416 C413 0.929 . S
S417 N418 1.613 . S
S417 N419 1.610 . S
N418 S417 1.613 . S
N418 C421 1.350 . S
N419 S417 1.610 . S
N419 C420 1.351 . S
C420 C414 1.428 . S
C420 N419 1.351 . S
C420 C421 1.434 . S
C421 C412 1.429 . S
C421 N418 1.350 . S
C421 C420 1.434 . S
C422 C423 1.369 . S
C422 C424 1.419 . S
C422 H426 0.930 . S
C423 C422 1.369 . S
C423 C432 1.429 . S
C424 C422 1.419 . S
C424 C425 1.363 . S
C424 H427 0.929 . S
C425 C424 1.363 . S
C425 C431 1.428 . S
H426 C422 0.930 . S
H427 C424 0.929 . S
S428 N429 1.613 . S
S428 N430 1.610 . S
N429 S428 1.613 . S
N429 C432 1.350 . S
N430 S428 1.610 . S
N430 C431 1.351 . S
C431 C425 1.428 . S
C431 N430 1.351 . S
C431 C432 1.434 . S
C432 C423 1.429 . S
C432 N429 1.350 . S
C432 C431 1.434 . S
C433 C434 1.369 . S
C433 C435 1.419 . S
C433 H437 0.930 1_556 S
C434 C433 1.369 . S
C434 C443 1.429 . S
C435 C433 1.419 . S
C435 C436 1.363 . S
C435 H438 0.929 . S
C436 C435 1.363 . S
C436 C442 1.428 . S
H437 C433 0.930 1_554 S
H438 C435 0.929 . S
S439 N440 1.613 . S
S439 N441 1.610 . S
N440 S439 1.613 . S
N440 C443 1.350 . S
N441 S439 1.610 . S
N441 C442 1.351 . S
C442 C436 1.428 . S
C442 N441 1.351 . S
C442 C443 1.434 . S
C443 C434 1.429 . S
C443 N440 1.350 . S
C443 C442 1.434 . S
C444 C445 1.369 . S
C444 C446 1.419 . S
C444 H448 0.930 . S
C445 C444 1.369 . S
C445 C454 1.429 . S
C446 C444 1.419 . S
C446 C447 1.363 . S
C446 H449 0.929 . S
C447 C446 1.363 . S
C447 C453 1.428 . S
H448 C444 0.930 . S
H449 C446 0.929 . S
S450 N451 1.613 . S
S450 N452 1.610 . S
N451 S450 1.613 . S
N451 C454 1.350 . S
N452 S450 1.610 . S
N452 C453 1.351 . S
C453 C447 1.428 . S
C453 N452 1.351 . S
C453 C454 1.434 . S
C454 C445 1.429 . S
C454 N451 1.350 . S
C454 C453 1.434 . S
C455 C456 1.369 . S
C455 C457 1.419 . S
C455 H459 0.930 . S
C456 C455 1.369 . S
C456 C465 1.429 . S
C457 C455 1.419 . S
C457 C458 1.363 . S
C457 H460 0.929 . S
C458 C457 1.363 . S
C458 C464 1.428 . S
H459 C455 0.930 . S
H460 C457 0.929 . S
S461 N462 1.613 . S
S461 N463 1.610 . S
N462 S461 1.613 . S
N462 C465 1.350 . S
N463 S461 1.610 . S
N463 C464 1.351 . S
C464 C458 1.428 . S
C464 N463 1.351 . S
C464 C465 1.434 . S
C465 C456 1.429 . S
C465 N462 1.350 . S
C465 C464 1.434 . S
C466 C467 1.369 . S
C466 C468 1.419 1_556 S
C466 H470 0.930 1_556 S
C467 C466 1.369 . S
C467 C476 1.429 . S
C468 C466 1.419 1_554 S
C468 C469 1.363 1_554 S
C468 H471 0.929 . S
C469 C468 1.363 1_556 S
C469 C475 1.428 . S
H470 C466 0.930 1_554 S
H471 C468 0.929 . S
S472 N473 1.613 . S
S472 N474 1.610 . S
N473 S472 1.613 . S
N473 C476 1.350 . S
N474 S472 1.610 . S
N474 C475 1.351 . S
C475 C469 1.428 . S
C475 N474 1.351 . S
C475 C476 1.434 . S
C476 C467 1.429 . S
C476 N473 1.350 . S
C476 C475 1.434 . S
C477 C478 1.369 . S
C477 C479 1.419 . S
C477 H481 0.930 . S
C478 C477 1.369 . S
C478 C487 1.429 . S
C479 C477 1.419 . S
C479 C480 1.363 . S
C479 H482 0.929 . S
C480 C479 1.363 . S
C480 C486 1.428 . S
H481 C477 0.930 . S
H482 C479 0.929 . S
S483 N484 1.613 . S
S483 N485 1.610 . S
N484 S483 1.613 . S
N484 C487 1.350 . S
N485 S483 1.610 . S
N485 C486 1.351 . S
C486 C480 1.428 . S
C486 N485 1.351 . S
C486 C487 1.434 . S
C487 C478 1.429 . S
C487 N484 1.350 . S
C487 C486 1.434 . S
C488 C489 1.369 1_556 S
C488 C490 1.419 . S
C488 H492 0.930 . S
C489 C488 1.369 1_554 S
C489 C498 1.429 . S
C490 C488 1.419 . S
C490 C491 1.363 . S
C490 H493 0.929 . S
C491 C490 1.363 . S
C491 C497 1.428 . S
H492 C488 0.930 . S
H493 C490 0.929 . S
S494 N495 1.613 . S
S494 N496 1.610 1_554 S
N495 S494 1.613 . S
N495 C498 1.350 . S
N496 S494 1.610 1_556 S
N496 C497 1.351 . S
C497 C491 1.428 . S
C497 N496 1.351 . S
C497 C498 1.434 1_556 S
C498 C489 1.429 . S
C498 N495 1.350 . S
C498 C497 1.434 1_554 S
C499 C500 1.369 . S
C499 C501 1.419 . S
C499 H503 0.930 . S
C500 C499 1.369 . S
C500 C509 1.429 . S
C501 C499 1.419 . S
C501 C502 1.363 . S
C501 H504 0.929 . S
C502 C501 1.363 . S
C502 C508 1.428 . S
H503 C499 0.930 . S
H504 C501 0.929 . S
S505 N506 1.613 . S
S505 N507 1.610 . S
N506 S505 1.613 . S
N506 C509 1.350 . S
N507 S505 1.610 . S
N507 C508 1.351 . S
C508 C502 1.428 . S
C508 N507 1.351 . S
C508 C509 1.434 . S
C509 C500 1.429 . S
C509 N506 1.350 . S
C509 C508 1.434 . S
C510 C511 1.369 . S
C510 C512 1.419 . S
C510 H514 0.930 . S
C511 C510 1.369 . S
C511 C520 1.429 . S
C512 C510 1.419 . S
C512 C513 1.363 . S
C512 H515 0.929 . S
C513 C512 1.363 . S
C513 C519 1.428 . S
H514 C510 0.930 . S
H515 C512 0.929 . S
S516 N517 1.613 . S
S516 N518 1.610 . S
N517 S516 1.613 . S
N517 C520 1.350 . S
N518 S516 1.610 . S
N518 C519 1.351 . S
C519 C513 1.428 . S
C519 N518 1.351 . S
C519 C520 1.434 . S
C520 C511 1.429 . S
C520 N517 1.350 . S
C520 C519 1.434 . S
C521 C522 1.369 . S
C521 C523 1.419 . S
C521 H525 0.930 . S
C522 C521 1.369 . S
C522 C531 1.429 . S
C523 C521 1.419 . S
C523 C524 1.363 . S
C523 H526 0.929 . S
C524 C523 1.363 . S
C524 C530 1.428 . S
H525 C521 0.930 . S
H526 C523 0.929 . S
S527 N528 1.613 . S
S527 N529 1.610 . S
N528 S527 1.613 . S
N528 C531 1.350 . S
N529 S527 1.610 . S
N529 C530 1.351 . S
C530 C524 1.428 . S
C530 N529 1.351 . S
C530 C531 1.434 . S
C531 C522 1.429 . S
C531 N528 1.350 . S
C531 C530 1.434 . S
C532 C533 1.369 . S
C532 C534 1.419 . S
C532 H536 0.930 . S
C533 C532 1.369 . S
C533 C542 1.429 . S
C534 C532 1.419 . S
C534 C535 1.363 . S
C534 H537 0.929 . S
C535 C534 1.363 . S
C535 C541 1.428 . S
H536 C532 0.930 . S
H537 C534 0.929 . S
S538 N539 1.613 . S
S538 N540 1.610 . S
N539 S538 1.613 . S
N539 C542 1.350 . S
N540 S538 1.610 . S
N540 C541 1.351 . S
C541 C535 1.428 . S
C541 N540 1.351 . S
C541 C542 1.434 . S
C542 C533 1.429 . S
C542 N539 1.350 . S
C542 C541 1.434 . S
C543 C544 1.369 . S
C543 C545 1.419 . S
C543 H547 0.930 . S
C544 C543 1.369 . S
C544 C553 1.429 . S
C545 C543 1.419 . S
C545 C546 1.363 . S
C545 H548 0.929 . S
C546 C545 1.363 . S
C546 C552 1.428 . S
H547 C543 0.930 . S
H548 C545 0.929 . S
S549 N550 1.613 . S
S549 N551 1.610 . S
N550 S549 1.613 . S
N550 C553 1.350 . S
N551 S549 1.610 . S
N551 C552 1.351 . S
C552 C546 1.428 . S
C552 N551 1.351 . S
C552 C553 1.434 . S
C553 C544 1.429 . S
C553 N550 1.350 . S
C553 C552 1.434 . S
C554 C555 1.369 . S
C554 C556 1.419 . S
C554 H558 0.930 . S
C555 C554 1.369 . S
C555 C564 1.429 . S
C556 C554 1.419 . S
C556 C557 1.363 . S
C556 H559 0.929 . S
C557 C556 1.363 . S
C557 C563 1.428 . S
H558 C554 0.930 . S
H559 C556 0.929 . S
S560 N561 1.613 . S
S560 N562 1.610 . S
N561 S560 1.613 . S
N561 C564 1.350 . S
N562 S560 1.610 . S
N562 C563 1.351 . S
C563 C557 1.428 . S
C563 N562 1.351 . S
C563 C564 1.434 . S
C564 C555 1.429 . S
C564 N561 1.350 . S
C564 C563 1.434 . S
C565 C566 1.369 1_554 S
C565 C567 1.419 1_554 S
C565 H569 0.930 . S
C566 C565 1.369 1_556 S
C566 C575 1.429 . S
C567 C565 1.419 1_556 S
C567 C568 1.363 . S
C567 H570 0.929 . S
C568 C567 1.363 . S
C568 C574 1.428 . S
H569 C565 0.930 . S
H570 C567 0.929 . S
S571 N572 1.613 . S
S571 N573 1.610 . S
N572 S571 1.613 . S
N572 C575 1.350 . S
N573 S571 1.610 . S
N573 C574 1.351 . S
C574 C568 1.428 . S
C574 N573 1.351 . S
C574 C575 1.434 . S
C575 C566 1.429 . S
C575 N572 1.350 . S
C575 C574 1.434 . S
C225 C12 1.264 . S
C227 C179 1.260 . S
C236 C18 1.313 . S
C238 C82 1.314 . S
C247 C32 1.219 . S
C249 C207 1.217 . S
C258 C110 1.294 . S
C260 C54 1.287 1_554 S
C269 C208 1.288 . S
C271 C40 1.292 . S
C280 C109 1.214 . S
C282 C46 1.223 . S
C291 C180 1.312 . S
C293 C4 1.311 . S
C302 C81 1.266 1_554 S
C304 C26 1.257 . S
C313 C67 1.258 . S
C315 C124 1.263 . S
C324 C95 1.221 . S
C326 C144 1.217 . S
C335 C152 1.289 . S
C337 C96 1.291 . S
C346 C68 1.312 . S
C348 C116 1.311 . S
C357 C194 1.313 . S
C359 C130 1.316 . S
C368 C166 1.292 . S
C370 C222 1.289 . S
C379 C158 1.222 . S
C381 C221 1.214 1_554 S
C390 C138 1.257 . S
C392 C193 1.262 . S
C401 C159 1.383 . S
C403 C11 1.506 . S
C412 C117 1.379 . S
C414 C19 1.372 . S
C423 C33 1.379 . S
C425 C137 1.505 . S
C434 C151 1.520 1_556 S
C436 C53 1.521 . S
C445 C165 1.525 . S
C447 C39 1.521 . S
C456 C47 1.383 . S
C458 C123 1.509 . S
C467 C131 1.370 . S
C469 C5 1.383 1_556 S
C478 C145 1.389 . S
C480 C25 1.508 . S
C489 C61 1.359 . S
C491 C215 1.359 . S
C500 C172 1.472 . S
C502 C74 1.474 . S
C511 C89 1.347 . S
C513 C187 1.345 . S
C522 C102 1.479 . S
C524 C200 1.474 . S
C533 C88 1.477 . S
C535 C214 1.475 . S
C544 C173 1.346 . S
C546 C103 1.349 . S
C555 C186 1.478 . S
C557 C60 1.478 . S
C566 C201 1.355 . S
C568 C75 1.354 . S
