# Generated by pormake.
# Topology utj, (3)-cn, num edge types: 1
# Building blocks:
#     Node 0, Type 0, BuildingBlock: WUSLED_clean_sbu_0, # of connection points: 3
#     Node 1, Type 0, BuildingBlock: WUSLED_clean_sbu_0, # of connection points: 3
#     Node 2, Type 0, BuildingBlock: WUSLED_clean_sbu_0, # of connection points: 3
#     Node 3, Type 0, BuildingBlock: WUSLED_clean_sbu_0, # of connection points: 3
#     Node 4, Type 0, BuildingBlock: WUSLED_clean_sbu_0, # of connection points: 3
#     Node 5, Type 0, BuildingBlock: WUSLED_clean_sbu_0, # of connection points: 3
#     Node 6, Type 0, BuildingBlock: WUSLED_clean_sbu_0, # of connection points: 3
#     Node 7, Type 0, BuildingBlock: WUSLED_clean_sbu_0, # of connection points: 3
#     Node 8, Type 0, BuildingBlock: WUSLED_clean_sbu_0, # of connection points: 3
#     Node 9, Type 0, BuildingBlock: WUSLED_clean_sbu_0, # of connection points: 3
#     Node 10, Type 0, BuildingBlock: WUSLED_clean_sbu_0, # of connection points: 3
#     Node 11, Type 0, BuildingBlock: WUSLED_clean_sbu_0, # of connection points: 3
#     Node 12, Type 0, BuildingBlock: WUSLED_clean_sbu_0, # of connection points: 3
#     Node 13, Type 0, BuildingBlock: WUSLED_clean_sbu_0, # of connection points: 3
#     Node 14, Type 0, BuildingBlock: WUSLED_clean_sbu_0, # of connection points: 3
#     Node 15, Type 0, BuildingBlock: WUSLED_clean_sbu_0, # of connection points: 3
#     Edge 16, Type (0, 0), BuildingBlock: ZUJKAS_clean_linker_0, # of connection points: 2
#     Edge 17, Type (0, 0), BuildingBlock: ZUJKAS_clean_linker_0, # of connection points: 2
#     Edge 18, Type (0, 0), BuildingBlock: ZUJKAS_clean_linker_0, # of connection points: 2
#     Edge 19, Type (0, 0), BuildingBlock: ZUJKAS_clean_linker_0, # of connection points: 2
#     Edge 20, Type (0, 0), BuildingBlock: ZUJKAS_clean_linker_0, # of connection points: 2
#     Edge 21, Type (0, 0), BuildingBlock: ZUJKAS_clean_linker_0, # of connection points: 2
#     Edge 22, Type (0, 0), BuildingBlock: ZUJKAS_clean_linker_0, # of connection points: 2
#     Edge 23, Type (0, 0), BuildingBlock: ZUJKAS_clean_linker_0, # of connection points: 2
#     Edge 24, Type (0, 0), BuildingBlock: ZUJKAS_clean_linker_0, # of connection points: 2
#     Edge 25, Type (0, 0), BuildingBlock: ZUJKAS_clean_linker_0, # of connection points: 2
#     Edge 26, Type (0, 0), BuildingBlock: ZUJKAS_clean_linker_0, # of connection points: 2
#     Edge 27, Type (0, 0), BuildingBlock: ZUJKAS_clean_linker_0, # of connection points: 2
#     Edge 28, Type (0, 0), BuildingBlock: ZUJKAS_clean_linker_0, # of connection points: 2
#     Edge 29, Type (0, 0), BuildingBlock: ZUJKAS_clean_linker_0, # of connection points: 2
#     Edge 30, Type (0, 0), BuildingBlock: ZUJKAS_clean_linker_0, # of connection points: 2
#     Edge 31, Type (0, 0), BuildingBlock: ZUJKAS_clean_linker_0, # of connection points: 2
#     Edge 32, Type (0, 0), BuildingBlock: ZUJKAS_clean_linker_0, # of connection points: 2
#     Edge 33, Type (0, 0), BuildingBlock: ZUJKAS_clean_linker_0, # of connection points: 2
#     Edge 34, Type (0, 0), BuildingBlock: ZUJKAS_clean_linker_0, # of connection points: 2
#     Edge 35, Type (0, 0), BuildingBlock: ZUJKAS_clean_linker_0, # of connection points: 2
#     Edge 36, Type (0, 0), BuildingBlock: ZUJKAS_clean_linker_0, # of connection points: 2
#     Edge 37, Type (0, 0), BuildingBlock: ZUJKAS_clean_linker_0, # of connection points: 2
#     Edge 38, Type (0, 0), BuildingBlock: ZUJKAS_clean_linker_0, # of connection points: 2
#     Edge 39, Type (0, 0), BuildingBlock: ZUJKAS_clean_linker_0, # of connection points: 2
# Relax obj value: 0.003
# Max RMSD: 0.009
# Mean RMSD: 0.009
data_MOF--net-utj--node1-WUSLED_clean_sbu_0--edge1-ZUJKAS_clean_linker_0
_symmetry_space_group_name_H-M    P1
_symmetry_Int_Tables_number       1
_symmetry_cell_setting            triclinic
loop_
_symmetry_equiv_pos_as_xyz
'x, y, z'
_cell_length_a     90.033935
_cell_length_b     89.816134
_cell_length_c     76.865951
_cell_angle_alpha  90.121272
_cell_angle_beta   90.065685
_cell_angle_gamma 89.95162
loop_
_atom_site_label
_atom_site_type_symbol
_atom_site_fract_x
_atom_site_fract_y
_atom_site_fract_z
_atom_type_partial_charge
C0 C 0.06893 0.43028 0.0645 0.0
C1 C 0.06068 0.43922 0.07599 0.0
C2 C 0.05565 0.45688 0.05271 0.0
C3 C 0.05403 0.45236 0.07011 0.0
C4 C 0.06411 0.44801 0.04133 0.0
C5 C 0.07064 0.43479 0.04718 0.0
U6 U 0.08756 0.4071 0.09972 0.0
O7 O 0.0844 0.38373 0.10722 0.0
O8 O 0.10622 0.39128 0.09811 0.0
C9 C 0.0979 0.37988 0.1025 0.0
C10 C 0.07584 0.4163 0.0704 0.0
C11 C 0.09882 0.36686 0.09093 0.0
C12 C 0.09088 0.35337 0.06512 0.0
C13 C 0.09023 0.36604 0.07571 0.0
C14 C 0.10895 0.34238 0.08465 0.0
C15 C 0.1002 0.34136 0.06952 0.0
C16 C 0.10824 0.35501 0.09527 0.0
C17 C 0.09389 0.42476 0.1445 0.0
C18 C 0.09919 0.41097 0.17097 0.0
C19 C 0.10202 0.4378 0.17051 0.0
C20 C 0.09761 0.43801 0.15308 0.0
C21 C 0.10273 0.42429 0.17971 0.0
C22 C 0.09486 0.41119 0.15348 0.0
C23 C 0.08873 0.42538 0.12636 0.0
O24 O 0.09015 0.41702 0.0737 0.0
O25 O 0.06838 0.40877 0.08216 0.0
O26 O 0.07705 0.41719 0.12266 0.0
O27 O 0.09915 0.42468 0.11444 0.0
H28 H 0.05936 0.43605 0.08949 0.0
H29 H 0.04774 0.45907 0.07923 0.0
H30 H 0.06546 0.45115 0.02783 0.0
H31 H 0.077 0.42806 0.03814 0.0
H32 H 0.08415 0.35301 0.05344 0.0
H33 H 0.08297 0.37515 0.0721 0.0
H34 H 0.11612 0.33326 0.08849 0.0
H35 H 0.11494 0.35548 0.10698 0.0
H36 H 0.09978 0.40038 0.17766 0.0
H37 H 0.1045 0.44826 0.17691 0.0
H38 H 0.09692 0.44858 0.14634 0.0
H39 H 0.09213 0.40082 0.14702 0.0
C40 C 0.11509 0.06942 0.56319 0.0
C41 C 0.10293 0.06788 0.57443 0.0
C42 C 0.08865 0.05592 0.55137 0.0
C43 C 0.08982 0.06119 0.56858 0.0
C44 C 0.10089 0.05759 0.54015 0.0
C45 C 0.11399 0.06428 0.54603 0.0
U46 U 0.13745 0.08752 0.59926 0.0
O47 O 0.16055 0.08409 0.60755 0.0
O48 O 0.15335 0.10615 0.59863 0.0
C49 C 0.16458 0.09765 0.60322 0.0
C50 C 0.12899 0.07617 0.56938 0.0
C51 C 0.17782 0.09864 0.59211 0.0
C52 C 0.19205 0.09052 0.56698 0.0
C53 C 0.17917 0.08983 0.5771 0.0
C54 C 0.2022 0.10914 0.58652 0.0
C55 C 0.20375 0.10013 0.57163 0.0
C56 C 0.18935 0.10836 0.59668 0.0
C57 C 0.11865 0.09286 0.64352 0.0
C58 C 0.13179 0.10107 0.66945 0.0
C59 C 0.10544 0.09571 0.6708 0.0
C60 C 0.10547 0.09214 0.65311 0.0
C61 C 0.11863 0.10003 0.67924 0.0
C62 C 0.1318 0.09748 0.65171 0.0
C63 C 0.11853 0.0882 0.6252 0.0
O64 O 0.12826 0.09047 0.57295 0.0
O65 O 0.13608 0.06848 0.58131 0.0
O66 O 0.12684 0.07658 0.62153 0.0
O67 O 0.11964 0.09894 0.61368 0.0
H68 H 0.10363 0.07176 0.58777 0.0
H69 H 0.0807 0.05992 0.57763 0.0
H70 H 0.10029 0.05383 0.52677 0.0
H71 H 0.12328 0.06542 0.53718 0.0
H72 H 0.19283 0.0836 0.55546 0.0
H73 H 0.17031 0.08233 0.57329 0.0
H74 H 0.21106 0.11654 0.59053 0.0
H75 H 0.18848 0.11525 0.60823 0.0
H76 H 0.14215 0.10424 0.67558 0.0
H77 H 0.09507 0.09503 0.67789 0.0
H78 H 0.09521 0.08864 0.64695 0.0
H79 H 0.1421 0.09807 0.64445 0.0
C80 C 0.47466 0.11691 0.064 0.0
C81 C 0.47593 0.10449 0.07494 0.0
C82 C 0.48806 0.09049 0.05176 0.0
C83 C 0.48256 0.09139 0.06887 0.0
C84 C 0.48668 0.10299 0.04086 0.0
C85 C 0.48004 0.11608 0.04694 0.0
U86 U 0.45634 0.13917 0.10011 0.0
O87 O 0.45974 0.16233 0.10849 0.0
O88 O 0.43779 0.15515 0.09929 0.0
C89 C 0.44622 0.16639 0.10406 0.0
C90 C 0.46794 0.13079 0.07035 0.0
C91 C 0.44529 0.17966 0.09299 0.0
C92 C 0.45189 0.19303 0.06667 0.0
C93 C 0.45262 0.18019 0.07691 0.0
C94 C 0.43631 0.20484 0.08838 0.0
C95 C 0.44378 0.20555 0.07232 0.0
C96 C 0.43708 0.19201 0.09861 0.0
C97 C 0.45011 0.12057 0.14415 0.0
C98 C 0.44265 0.13425 0.17002 0.0
C99 C 0.44466 0.10735 0.17089 0.0
C100 C 0.44889 0.10722 0.1534 0.0
C101 C 0.4416 0.12087 0.17945 0.0
C102 C 0.44684 0.13409 0.15249 0.0
C103 C 0.45518 0.12021 0.126 0.0
O104 O 0.45364 0.1301 0.07368 0.0
O105 O 0.47553 0.13773 0.08252 0.0
O106 O 0.46689 0.12843 0.1226 0.0
O107 O 0.44471 0.1213 0.11415 0.0
H108 H 0.47186 0.10498 0.08819 0.0
H109 H 0.4836 0.08205 0.07768 0.0
H110 H 0.49061 0.10262 0.02755 0.0
H111 H 0.47912 0.12557 0.03833 0.0
H112 H 0.45791 0.19324 0.05449 0.0
H113 H 0.45901 0.17072 0.07237 0.0
H114 H 0.42978 0.21417 0.093 0.0
H115 H 0.43129 0.19175 0.11096 0.0
H116 H 0.44022 0.14483 0.17618 0.0
H117 H 0.44415 0.09688 0.17782 0.0
H118 H 0.45141 0.09669 0.14716 0.0
H119 H 0.44767 0.14452 0.14548 0.0
C120 C 0.42825 0.47476 0.5626 0.0
C121 C 0.4405 0.47626 0.57376 0.0
C122 C 0.45466 0.4881 0.55061 0.0
C123 C 0.45359 0.48287 0.56782 0.0
C124 C 0.44234 0.48648 0.53948 0.0
C125 C 0.42924 0.47987 0.54544 0.0
U126 U 0.40592 0.45724 0.59894 0.0
O127 O 0.38279 0.46072 0.60706 0.0
O128 O 0.39011 0.43854 0.59861 0.0
C129 C 0.37883 0.44708 0.60295 0.0
C130 C 0.41437 0.46809 0.56887 0.0
C131 C 0.36567 0.44589 0.59169 0.0
C132 C 0.35186 0.45332 0.56596 0.0
C133 C 0.36463 0.45417 0.57627 0.0
C134 C 0.34118 0.43562 0.58613 0.0
C135 C 0.33995 0.44409 0.57082 0.0
C136 C 0.35393 0.43655 0.59649 0.0
C137 C 0.4248 0.45282 0.64335 0.0
C138 C 0.41246 0.44248 0.6687 0.0
C139 C 0.43737 0.45248 0.67127 0.0
C140 C 0.43729 0.45594 0.65358 0.0
C141 C 0.42492 0.44582 0.67909 0.0
C142 C 0.41239 0.446 0.65095 0.0
C143 C 0.42484 0.45716 0.62496 0.0
O144 O 0.41514 0.45386 0.57273 0.0
O145 O 0.40724 0.47597 0.58063 0.0
O146 O 0.41643 0.46864 0.62108 0.0
O147 O 0.42379 0.44622 0.61363 0.0
H148 H 0.43991 0.47234 0.58706 0.0
H149 H 0.46293 0.48377 0.57666 0.0
H150 H 0.44272 0.49054 0.52623 0.0
H151 H 0.41985 0.47883 0.53669 0.0
H152 H 0.35133 0.45983 0.55413 0.0
H153 H 0.37366 0.46138 0.5723 0.0
H154 H 0.33216 0.42851 0.59031 0.0
H155 H 0.35457 0.43007 0.60835 0.0
H156 H 0.40266 0.43746 0.67436 0.0
H157 H 0.44722 0.45497 0.67883 0.0
H158 H 0.44697 0.46118 0.64789 0.0
H159 H 0.40262 0.44357 0.64321 0.0
C160 C 0.06836 0.11673 0.97851 0.0
C161 C 0.06718 0.10431 0.96749 0.0
C162 C 0.05478 0.09036 0.99042 0.0
C163 C 0.06046 0.09123 0.9734 0.0
C164 C 0.05606 0.10286 1.00141 0.0
C165 C 0.0628 0.11593 0.99548 0.0
U166 U 0.08727 0.13864 0.94273 0.0
O167 O 0.08414 0.16172 0.93408 0.0
O168 O 0.1059 0.15448 0.94382 0.0
C169 C 0.0976 0.16573 0.93882 0.0
C170 C 0.07521 0.13056 0.9723 0.0
C171 C 0.09843 0.1791 0.94984 0.0
C172 C 0.09013 0.19353 0.97478 0.0
C173 C 0.08944 0.18059 0.96464 0.0
C174 C 0.10902 0.20347 0.95562 0.0
C175 C 0.09989 0.20514 0.97034 0.0
C176 C 0.10827 0.19057 0.94545 0.0
C177 C 0.09387 0.11913 0.89898 0.0
C178 C 0.09913 0.13163 0.87165 0.0
C179 C 0.10142 0.10481 0.87368 0.0
C180 C 0.09727 0.10545 0.89117 0.0
C181 C 0.10218 0.11786 0.86362 0.0
C182 C 0.09503 0.13226 0.8892 0.0
C183 C 0.08866 0.11935 0.91709 0.0
O184 O 0.08956 0.12979 0.96927 0.0
O185 O 0.06783 0.13747 0.95996 0.0
O186 O 0.07697 0.12772 0.92017 0.0
O187 O 0.09902 0.12054 0.92907 0.0
H188 H 0.07139 0.10477 0.9543 0.0
H189 H 0.0595 0.08189 0.96453 0.0
H190 H 0.05199 0.1025 1.01465 0.0
H191 H 0.06365 0.12542 1.00415 0.0
H192 H 0.08309 0.1944 0.98615 0.0
H193 H 0.08186 0.17178 0.96831 0.0
H194 H 0.11654 0.21227 0.95176 0.0
H195 H 0.11529 0.18959 0.93407 0.0
H196 H 0.0995 0.14188 0.86426 0.0
H197 H 0.10397 0.09405 0.86803 0.0
H198 H 0.09653 0.09522 0.89856 0.0
H199 H 0.09249 0.14295 0.89505 0.0
C200 C 0.42812 0.06954 0.47873 0.0
C201 C 0.4402 0.06799 0.46737 0.0
C202 C 0.45472 0.05621 0.49032 0.0
C203 C 0.45339 0.06138 0.47311 0.0
C204 C 0.44256 0.05788 0.50166 0.0
C205 C 0.42937 0.06448 0.49589 0.0
U206 U 0.40531 0.088 0.44326 0.0
O207 O 0.38212 0.08458 0.43528 0.0
O208 O 0.38932 0.10654 0.4446 0.0
C209 C 0.37808 0.09808 0.43995 0.0
C210 C 0.41414 0.07625 0.47274 0.0
C211 C 0.36493 0.09894 0.45123 0.0
C212 C 0.35104 0.09078 0.47655 0.0
C213 C 0.3638 0.09011 0.46621 0.0
C214 C 0.34058 0.10935 0.45726 0.0
C215 C 0.33925 0.10037 0.47215 0.0
C216 C 0.35331 0.10861 0.44688 0.0
C217 C 0.42342 0.09457 0.39888 0.0
C218 C 0.41006 0.09912 0.37191 0.0
C219 C 0.43664 0.10316 0.3733 0.0
C220 C 0.43665 0.09886 0.39076 0.0
C221 C 0.42337 0.10319 0.36362 0.0
C222 C 0.41007 0.09491 0.38943 0.0
C223 C 0.42387 0.08941 0.41702 0.0
O224 O 0.41471 0.0906 0.46952 0.0
O225 O 0.40707 0.06868 0.46065 0.0
O226 O 0.41579 0.0776 0.4205 0.0
O227 O 0.4229 0.09984 0.42898 0.0
H228 H 0.43941 0.07189 0.45407 0.0
H229 H 0.4626 0.06044 0.46411 0.0
H230 H 0.44314 0.05386 0.51491 0.0
H231 H 0.42012 0.06556 0.50481 0.0
H232 H 0.35043 0.08386 0.48805 0.0
H233 H 0.37274 0.08265 0.46983 0.0
H234 H 0.33165 0.11674 0.45342 0.0
H235 H 0.35401 0.11551 0.43537 0.0
H236 H 0.39964 0.09919 0.36485 0.0
H237 H 0.4471 0.10606 0.36725 0.0
H238 H 0.44706 0.09866 0.39786 0.0
H239 H 0.3997 0.09174 0.39553 0.0
C240 C 0.47359 0.42883 0.97861 0.0
C241 C 0.47554 0.44088 0.96727 0.0
C242 C 0.48699 0.45532 0.99057 0.0
C243 C 0.48219 0.45402 0.97319 0.0
C244 C 0.4849 0.4432 1.00188 0.0
C245 C 0.47826 0.43006 0.99593 0.0
U246 U 0.45522 0.40647 0.94265 0.0
O247 O 0.45853 0.38329 0.93433 0.0
O248 O 0.43661 0.39059 0.94348 0.0
C249 C 0.445 0.37931 0.93876 0.0
C250 C 0.46683 0.41491 0.9724 0.0
C251 C 0.44402 0.36603 0.94984 0.0
C252 C 0.45133 0.35223 0.97562 0.0
C253 C 0.45207 0.3651 0.96544 0.0
C254 C 0.43429 0.34122 0.95484 0.0
C255 C 0.44249 0.34008 0.9704 0.0
C256 C 0.43508 0.35407 0.94466 0.0
C257 C 0.4492 0.4252 0.89855 0.0
C258 C 0.4409 0.41185 0.87279 0.0
C259 C 0.44482 0.43852 0.8716 0.0
C260 C 0.44896 0.43851 0.88912 0.0
C261 C 0.44083 0.42518 0.86318 0.0
C262 C 0.44503 0.41187 0.89036 0.0
C263 C 0.4542 0.42542 0.91673 0.0
O264 O 0.45253 0.41564 0.96903 0.0
O265 O 0.47439 0.40785 0.96032 0.0
O266 O 0.46584 0.41708 0.92016 0.0
O267 O 0.4437 0.42438 0.92852 0.0
H268 H 0.47193 0.44012 0.95385 0.0
H269 H 0.48346 0.4632 0.96421 0.0
H270 H 0.48862 0.44376 1.01527 0.0
H271 H 0.47686 0.42083 1.00483 0.0
H272 H 0.45792 0.35169 0.9874 0.0
H273 H 0.45903 0.37427 0.96964 0.0
H274 H 0.42718 0.3322 0.95057 0.0
H275 H 0.42873 0.35465 0.9327 0.0
H276 H 0.43775 0.40141 0.86675 0.0
H277 H 0.44511 0.44894 0.86454 0.0
H278 H 0.4522 0.4489 0.89524 0.0
H279 H 0.44512 0.40148 0.89751 0.0
C280 C 0.11532 0.47575 0.4792 0.0
C281 C 0.10344 0.47787 0.46765 0.0
C282 C 0.08895 0.48959 0.49068 0.0
C283 C 0.09036 0.48473 0.47333 0.0
C284 C 0.1009 0.48734 0.5022 0.0
C285 C 0.11398 0.48048 0.49649 0.0
U286 U 0.13778 0.45689 0.44371 0.0
O287 O 0.16101 0.45989 0.43575 0.0
O288 O 0.15344 0.43806 0.44497 0.0
C289 C 0.16482 0.44633 0.44038 0.0
C290 C 0.12918 0.46877 0.47325 0.0
C291 C 0.17796 0.44528 0.45168 0.0
C292 C 0.19212 0.45346 0.47686 0.0
C293 C 0.17933 0.45425 0.46656 0.0
C294 C 0.20213 0.43445 0.45775 0.0
C295 C 0.2037 0.4436 0.47252 0.0
C296 C 0.18937 0.43532 0.44741 0.0
C297 C 0.11962 0.45086 0.39927 0.0
C298 C 0.13338 0.44314 0.37361 0.0
C299 C 0.10661 0.4458 0.37224 0.0
C300 C 0.10638 0.44997 0.38976 0.0
C301 C 0.12013 0.44245 0.36391 0.0
C302 C 0.13313 0.44728 0.39118 0.0
C303 C 0.11917 0.45595 0.41743 0.0
O304 O 0.12832 0.45443 0.46994 0.0
O305 O 0.13642 0.47621 0.46125 0.0
O306 O 0.12751 0.46756 0.42101 0.0
O307 O 0.11997 0.44545 0.42928 0.0
H308 H 0.10433 0.4743 0.45421 0.0
H309 H 0.08146 0.48645 0.46406 0.0
H310 H 0.10011 0.49075 0.51569 0.0
H311 H 0.12304 0.47888 0.50558 0.0
H312 H 0.19292 0.46051 0.48827 0.0
H313 H 0.17055 0.46193 0.47013 0.0
H314 H 0.21091 0.42686 0.45396 0.0
H315 H 0.18848 0.42831 0.43597 0.0
H316 H 0.14394 0.44048 0.36763 0.0
H317 H 0.09624 0.44557 0.36511 0.0
H318 H 0.09587 0.45274 0.39582 0.0
H319 H 0.14346 0.44786 0.39839 0.0
C320 C 0.97152 0.61709 0.97901 0.0
C321 C 0.96588 0.60315 0.97397 0.0
C322 C 0.98492 0.59064 0.9911 0.0
C323 C 0.97246 0.59004 0.98006 0.0
C324 C 0.99054 0.60462 0.99607 0.0
C325 C 0.98386 0.61772 0.99012 0.0
U326 U 0.95326 0.63931 0.94271 0.0
O327 O 0.93526 0.65584 0.94323 0.0
O328 O 0.95739 0.66226 0.93394 0.0
C329 C 0.94402 0.66677 0.93834 0.0
C330 C 0.96503 0.63103 0.97238 0.0
C331 C 0.94351 0.68027 0.94917 0.0
C332 C 0.94369 0.69237 0.97748 0.0
C333 C 0.94414 0.6794 0.96739 0.0
C334 C 0.94217 0.70721 0.95124 0.0
C335 C 0.94274 0.70643 0.9695 0.0
C336 C 0.94253 0.69423 0.94118 0.0
C337 C 0.94614 0.61987 0.89907 0.0
C338 C 0.94125 0.63261 0.87179 0.0
C339 C 0.93844 0.60583 0.87362 0.0
C340 C 0.94252 0.60631 0.89115 0.0
C341 C 0.93798 0.61895 0.86364 0.0
C342 C 0.94528 0.63307 0.88938 0.0
C343 C 0.95129 0.61992 0.91723 0.0
O344 O 0.97268 0.63756 0.96001 0.0
O345 O 0.95064 0.6309 0.96937 0.0
O346 O 0.94094 0.62155 0.92912 0.0
O347 O 0.96327 0.62785 0.92035 0.0
H348 H 0.95647 0.60238 0.96522 0.0
H349 H 0.968 0.57943 0.97585 0.0
H350 H 1.00004 0.60543 1.00468 0.0
H351 H 0.98841 0.62836 0.99409 0.0
H352 H 0.94433 0.69142 0.9915 0.0
H353 H 0.94503 0.6687 0.97379 0.0
H354 H 0.94128 0.71786 0.94472 0.0
H355 H 0.94204 0.6951 0.92713 0.0
H356 H 0.94112 0.6429 0.86447 0.0
H357 H 0.93572 0.59516 0.86786 0.0
H358 H 0.94303 0.59602 0.89848 0.0
H359 H 0.948 0.64368 0.89532 0.0
C360 C 0.92823 0.9703 0.48081 0.0
C361 C 0.9405 0.9718 0.46972 0.0
C362 C 0.95474 0.98337 0.49308 0.0
C363 C 0.95364 0.97827 0.4758 0.0
C364 C 0.94241 0.98171 0.50417 0.0
C365 C 0.92927 0.97523 0.49806 0.0
U366 U 0.90571 0.9537 0.44394 0.0
O367 O 0.88951 0.93539 0.44348 0.0
O368 O 0.88266 0.9579 0.43579 0.0
C369 C 0.87842 0.94423 0.43929 0.0
C370 C 0.91425 0.96395 0.47433 0.0
C371 C 0.86511 0.94302 0.45023 0.0
C372 C 0.85319 0.94362 0.47856 0.0
C373 C 0.86602 0.94453 0.46837 0.0
C374 C 0.83843 0.93973 0.45256 0.0
C375 C 0.83921 0.94125 0.47078 0.0
C376 C 0.85127 0.9406 0.4424 0.0
C377 C 0.92456 0.94933 0.3996 0.0
C378 C 0.9113 0.94228 0.3733 0.0
C379 C 0.93788 0.94644 0.3724 0.0
C380 C 0.93785 0.94964 0.39018 0.0
C381 C 0.92459 0.94289 0.36369 0.0
C382 C 0.91129 0.94549 0.39114 0.0
C383 C 0.92473 0.95349 0.41808 0.0
O384 O 0.90731 0.97212 0.46271 0.0
O385 O 0.91475 0.94976 0.47015 0.0
O386 O 0.92342 0.94245 0.42917 0.0
O387 O 0.9166 0.96514 0.42219 0.0
H388 H 0.93984 0.9681 0.45632 0.0
H389 H 0.96284 0.97954 0.46686 0.0
H390 H 0.94294 0.98534 0.5176 0.0
H391 H 0.91989 0.97414 0.50679 0.0
H392 H 0.85423 0.94466 0.49255 0.0
H393 H 0.87664 0.94644 0.47462 0.0
H394 H 0.82785 0.93815 0.4461 0.0
H395 H 0.85037 0.93951 0.4284 0.0
H396 H 0.90086 0.9397 0.36697 0.0
H397 H 0.94834 0.94676 0.36546 0.0
H398 H 0.9482 0.95253 0.39656 0.0
H399 H 0.90091 0.94521 0.39826 0.0
C400 C 0.57235 0.92967 0.97908 0.0
C401 C 0.57095 0.94196 0.96796 0.0
C402 C 0.55908 0.95622 0.99111 0.0
C403 C 0.56438 0.95513 0.97393 0.0
C404 C 0.56059 0.94386 1.00219 0.0
C405 C 0.56718 0.9307 0.99622 0.0
U406 U 0.58946 0.90666 0.94278 0.0
O407 O 0.60821 0.89088 0.9432 0.0
O408 O 0.58602 0.88329 0.93538 0.0
C409 C 0.59971 0.87946 0.9393 0.0
C410 C 0.57901 0.91572 0.97286 0.0
C411 C 0.60112 0.86649 0.95081 0.0
C412 C 0.59401 0.85301 0.97687 0.0
C413 C 0.59306 0.86569 0.9664 0.0
C414 C 0.61139 0.84197 0.95652 0.0
C415 C 0.60311 0.84096 0.97199 0.0
C416 C 0.61036 0.85463 0.94601 0.0
C417 C 0.59318 0.92419 0.8976 0.0
C418 C 0.60851 0.9148 0.87396 0.0
C419 C 0.58852 0.93211 0.86792 0.0
C420 C 0.58502 0.93261 0.8856 0.0
C421 C 0.60029 0.92321 0.86189 0.0
C422 C 0.60493 0.91521 0.89168 0.0
C423 C 0.58906 0.92483 0.9161 0.0
O424 O 0.57102 0.90834 0.96142 0.0
O425 O 0.59314 0.91651 0.96866 0.0
O426 O 0.60005 0.9243 0.92737 0.0
O427 O 0.57766 0.91654 0.92053 0.0
H428 H 0.57484 0.94131 0.95465 0.0
H429 H 0.56323 0.96437 0.96499 0.0
H430 H 0.55681 0.94439 1.01555 0.0
H431 H 0.56821 0.92131 1.00497 0.0
H432 H 0.58765 0.85264 0.98881 0.0
H433 H 0.58593 0.87481 0.97037 0.0
H434 H 0.61838 0.83284 0.95232 0.0
H435 H 0.61666 0.85507 0.93402 0.0
H436 H 0.61756 0.90774 0.86967 0.0
H437 H 0.5821 0.93886 0.85898 0.0
H438 H 0.57592 0.93959 0.88994 0.0
H439 H 0.61129 0.90851 0.90072 0.0
C440 C 0.61448 0.57372 0.47908 0.0
C441 C 0.60233 0.57232 0.46775 0.0
C442 C 0.58792 0.56036 0.49061 0.0
C443 C 0.58916 0.56569 0.47346 0.0
C444 C 0.60014 0.56189 0.50191 0.0
C445 C 0.61331 0.56851 0.49617 0.0
U446 U 0.63724 0.59186 0.44346 0.0
O447 O 0.65313 0.61049 0.44457 0.0
O448 O 0.66045 0.58845 0.43562 0.0
C449 C 0.66441 0.60202 0.44009 0.0
C450 C 0.62842 0.58044 0.47309 0.0
C451 C 0.67757 0.60306 0.45136 0.0
C452 C 0.69192 0.59475 0.47632 0.0
C453 C 0.6791 0.59394 0.46606 0.0
C454 C 0.70163 0.61408 0.45756 0.0
C455 C 0.70336 0.60478 0.47213 0.0
C456 C 0.68885 0.61319 0.44726 0.0
C457 C 0.61943 0.59769 0.39887 0.0
C458 C 0.63355 0.60443 0.37315 0.0
C459 C 0.60668 0.60314 0.37179 0.0
C460 C 0.60625 0.59916 0.38935 0.0
C461 C 0.62034 0.60569 0.36344 0.0
C462 C 0.63309 0.6005 0.39075 0.0
C463 C 0.61875 0.59279 0.41707 0.0
O464 O 0.63559 0.57276 0.46119 0.0
O465 O 0.62776 0.59475 0.46962 0.0
O466 O 0.61963 0.6034 0.42883 0.0
O467 O 0.62689 0.58108 0.42084 0.0
H468 H 0.60305 0.57633 0.45449 0.0
H469 H 0.57991 0.56487 0.4645 0.0
H470 H 0.59963 0.55774 0.51512 0.0
H471 H 0.62261 0.56947 0.50506 0.0
H472 H 0.69285 0.58758 0.48758 0.0
H473 H 0.67043 0.58612 0.46951 0.0
H474 H 0.71029 0.62181 0.4539 0.0
H475 H 0.68784 0.62033 0.43596 0.0
H476 H 0.64422 0.60648 0.36714 0.0
H477 H 0.59633 0.60383 0.36465 0.0
H478 H 0.59561 0.597 0.39543 0.0
H479 H 0.64339 0.59947 0.39797 0.0
C480 C 0.96998 0.92998 0.06238 0.0
C481 C 0.9711 0.94249 0.07326 0.0
C482 C 0.98302 0.95646 0.05001 0.0
C483 C 0.97756 0.95562 0.06713 0.0
C484 C 0.98175 0.94389 0.03914 0.0
C485 C 0.97528 0.93076 0.04529 0.0
U486 U 0.95283 0.9077 0.09905 0.0
O487 O 0.93459 0.89143 0.09906 0.0
O488 O 0.9569 0.88464 0.10742 0.0
C489 C 0.94335 0.88035 0.10349 0.0
C490 C 0.9636 0.91602 0.0689 0.0
C491 C 0.9424 0.86701 0.09245 0.0
C492 C 0.94345 0.85516 0.06404 0.0
C493 C 0.94415 0.86799 0.07436 0.0
C494 C 0.93932 0.84025 0.08983 0.0
C495 C 0.94106 0.84111 0.07166 0.0
C496 C 0.93997 0.8531 0.10011 0.0
C497 C 0.9474 0.92702 0.14309 0.0
C498 C 0.94207 0.91413 0.17014 0.0
C499 C 0.94134 0.94109 0.16911 0.0
C500 C 0.94503 0.94066 0.15147 0.0
C501 C 0.94 0.92784 0.17873 0.0
C502 C 0.94573 0.91372 0.15245 0.0
C503 C 0.95198 0.92696 0.12475 0.0
O504 O 0.97157 0.90926 0.08084 0.0
O505 O 0.94937 0.91651 0.07265 0.0
O506 O 0.94123 0.92555 0.11329 0.0
O507 O 0.96371 0.91881 0.1211 0.0
H508 H 0.96711 0.94203 0.08655 0.0
H509 H 0.97853 0.96502 0.07591 0.0
H510 H 0.98566 0.94422 0.02583 0.0
H511 H 0.97447 0.9212 0.03672 0.0
H512 H 0.94466 0.85626 0.05009 0.0
H513 H 0.94608 0.87867 0.06823 0.0
H514 H 0.93771 0.82962 0.09617 0.0
H515 H 0.93869 0.85214 0.11408 0.0
H516 H 0.94124 0.90373 0.17718 0.0
H517 H 0.93954 0.95182 0.17521 0.0
H518 H 0.94618 0.95102 0.1444 0.0
H519 H 0.94748 0.90307 0.14614 0.0
C520 C 0.61586 0.97281 0.56237 0.0
C521 C 0.60362 0.97439 0.5735 0.0
C522 C 0.58932 0.98586 0.55016 0.0
C523 C 0.59047 0.98086 0.56746 0.0
C524 C 0.60162 0.98411 0.53903 0.0
C525 C 0.61478 0.97765 0.54511 0.0
U526 U 0.63827 0.95575 0.599 0.0
O527 O 0.65435 0.93732 0.59916 0.0
O528 O 0.66134 0.95969 0.60727 0.0
C529 C 0.66548 0.94602 0.60356 0.0
C530 C 0.62982 0.96637 0.56879 0.0
C531 C 0.6789 0.94476 0.59278 0.0
C532 C 0.69102 0.9442 0.56455 0.0
C533 C 0.67807 0.94516 0.57456 0.0
C534 C 0.70573 0.94255 0.59091 0.0
C535 C 0.705 0.94294 0.57263 0.0
C536 C 0.69278 0.94343 0.60088 0.0
C537 C 0.61943 0.95089 0.6432 0.0
C538 C 0.6311 0.93836 0.66765 0.0
C539 C 0.60769 0.95126 0.67159 0.0
C540 C 0.60774 0.95528 0.65405 0.0
C541 C 0.61935 0.94271 0.67862 0.0
C542 C 0.63115 0.94243 0.65008 0.0
C543 C 0.61926 0.95541 0.62486 0.0
O544 O 0.63674 0.97439 0.58059 0.0
O545 O 0.62929 0.95214 0.57269 0.0
O546 O 0.62042 0.94456 0.61343 0.0
O547 O 0.62751 0.96702 0.62108 0.0
H548 H 0.60428 0.97067 0.58688 0.0
H549 H 0.58116 0.98185 0.57629 0.0
H550 H 0.60117 0.98799 0.52571 0.0
H551 H 0.62415 0.97655 0.53637 0.0
H552 H 0.69012 0.9447 0.55052 0.0
H553 H 0.66744 0.94631 0.56809 0.0
H554 H 0.7163 0.94143 0.59751 0.0
H555 H 0.69362 0.94312 0.61494 0.0
H556 H 0.64018 0.93167 0.6726 0.0
H557 H 0.59861 0.95505 0.67969 0.0
H558 H 0.59866 0.9619 0.64896 0.0
H559 H 0.6403 0.93898 0.64186 0.0
C560 C 0.57255 0.61546 0.06295 0.0
C561 C 0.57063 0.60349 0.07442 0.0
C562 C 0.55926 0.58882 0.05127 0.0
C563 C 0.56403 0.59028 0.06864 0.0
C564 C 0.56132 0.60086 0.03982 0.0
C565 C 0.5679 0.61406 0.04563 0.0
U566 U 0.59071 0.63834 0.09864 0.0
O567 O 0.60926 0.65429 0.09757 0.0
O568 O 0.58729 0.66161 0.10654 0.0
C569 C 0.6008 0.66559 0.10208 0.0
C570 C 0.57924 0.62946 0.06899 0.0
C571 C 0.6018 0.67877 0.09083 0.0
C572 C 0.59353 0.69302 0.06579 0.0
C573 C 0.59275 0.6802 0.07605 0.0
C574 C 0.61266 0.70294 0.08474 0.0
C575 C 0.60344 0.70457 0.07007 0.0
C576 C 0.61181 0.69016 0.09504 0.0
C577 C 0.59677 0.62041 0.14318 0.0
C578 C 0.60152 0.63415 0.16988 0.0
C579 C 0.6046 0.60735 0.16924 0.0
C580 C 0.60048 0.60715 0.15171 0.0
C581 C 0.60502 0.62083 0.17858 0.0
C582 C 0.59749 0.63395 0.15229 0.0
C583 C 0.5918 0.61982 0.12496 0.0
O584 O 0.5716 0.63663 0.08092 0.0
O585 O 0.59353 0.62882 0.07245 0.0
O586 O 0.60233 0.6207 0.11318 0.0
O587 O 0.58007 0.62793 0.12123 0.0
H588 H 0.57422 0.60439 0.08784 0.0
H589 H 0.56279 0.58117 0.07773 0.0
H590 H 0.55761 0.60017 0.02644 0.0
H591 H 0.56927 0.62323 0.03663 0.0
H592 H 0.58642 0.69387 0.05445 0.0
H593 H 0.58503 0.67145 0.07252 0.0
H594 H 0.6203 0.71169 0.08849 0.0
H595 H 0.61888 0.68922 0.10641 0.0
H596 H 0.60191 0.64473 0.17667 0.0
H597 H 0.60706 0.59689 0.17561 0.0
H598 H 0.59998 0.59661 0.14487 0.0
H599 H 0.59477 0.64433 0.14587 0.0
C600 C 0.92859 0.57496 0.56192 0.0
C601 C 0.94058 0.57288 0.57334 0.0
C602 C 0.95509 0.56163 0.55003 0.0
C603 C 0.95371 0.56627 0.56745 0.0
C604 C 0.94305 0.56386 0.53862 0.0
C605 C 0.92991 0.57047 0.54454 0.0
U606 U 0.90592 0.59231 0.59821 0.0
O607 O 0.88994 0.61089 0.59786 0.0
O608 O 0.88278 0.58865 0.6061 0.0
C609 C 0.87871 0.60228 0.60208 0.0
C610 C 0.91465 0.58157 0.56813 0.0
C611 C 0.86558 0.60341 0.59078 0.0
C612 C 0.85195 0.59607 0.56486 0.0
C613 C 0.86471 0.59528 0.5752 0.0
C614 C 0.84094 0.61338 0.58536 0.0
C615 C 0.83988 0.60507 0.56988 0.0
C616 C 0.85368 0.61252 0.59574 0.0
C617 C 0.92425 0.59684 0.64286 0.0
C618 C 0.91078 0.60485 0.66861 0.0
C619 C 0.93701 0.59899 0.67054 0.0
C620 C 0.93724 0.59572 0.65278 0.0
C621 C 0.92375 0.60342 0.67873 0.0
C622 C 0.91103 0.60156 0.6508 0.0
C623 C 0.92461 0.59253 0.62443 0.0
O624 O 0.90749 0.57364 0.57976 0.0
O625 O 0.91532 0.5958 0.57211 0.0
O626 O 0.92357 0.60348 0.61318 0.0
O627 O 0.9164 0.58095 0.62032 0.0
H628 H 0.93971 0.57626 0.58685 0.0
H629 H 0.96269 0.56456 0.57663 0.0
H630 H 0.94381 0.5606 0.52508 0.0
H631 H 0.92077 0.57203 0.53555 0.0
H632 H 0.85154 0.58969 0.5529 0.0
H633 H 0.87386 0.58826 0.57112 0.0
H634 H 0.83179 0.6203 0.58967 0.0
H635 H 0.85419 0.61887 0.60773 0.0
H636 H 0.90037 0.60812 0.67454 0.0
H637 H 0.94724 0.59801 0.67789 0.0
H638 H 0.94755 0.59213 0.64682 0.0
H639 H 0.90088 0.60245 0.64328 0.0
H640 H 0.12482 0.43995 0.196 0.0
H641 H 0.13005 0.44126 0.22723 0.0
H642 H 0.09457 0.41017 0.2371 0.0
H643 H 0.08934 0.40875 0.20592 0.0
H644 H 0.11108 0.45103 0.25231 0.0
H645 H 0.12784 0.3929 0.26639 0.0
H646 H 0.1268 0.40015 0.24453 0.0
H647 H 0.11022 0.39424 0.25557 0.0
C648 C 0.1182 0.43332 0.20482 0.0
C649 C 0.10667 0.42424 0.19849 0.0
C650 C 0.12124 0.43403 0.22264 0.0
C651 C 0.11284 0.42566 0.23448 0.0
C652 C 0.10145 0.41643 0.22818 0.0
H653 H 0.101 0.42444 0.34582 0.0
H654 H 0.1002 0.42016 0.31436 0.0
C655 C 0.09845 0.41566 0.21035 0.0
C656 C 0.11526 0.42745 0.25348 0.0
H657 H 0.12238 0.40832 0.29096 0.0
C658 C 0.11371 0.44172 0.26073 0.0
C659 C 0.11864 0.41527 0.26445 0.0
C660 C 0.12112 0.3998 0.25734 0.0
C661 C 0.11506 0.4441 0.27871 0.0
C662 C 0.11825 0.4319 0.2897 0.0
C663 C 0.11994 0.41764 0.28247 0.0
C664 C 0.11944 0.43374 0.30881 0.0
C665 C 0.11263 0.45958 0.28586 0.0
C666 C 0.13072 0.44252 0.31612 0.0
C667 C 0.13117 0.44505 0.33406 0.0
C668 C 0.12035 0.43881 0.34503 0.0
C669 C 0.10936 0.4296 0.3377 0.0
C670 C 0.10894 0.42705 0.31976 0.0
H671 H 0.10715 0.46699 0.27623 0.0
H672 H 0.10572 0.45923 0.29781 0.0
H673 H 0.12352 0.46454 0.28934 0.0
H674 H 0.13904 0.44762 0.30789 0.0
H675 H 0.13973 0.45227 0.33927 0.0
H676 H 0.10456 0.08413 0.70456 0.0
H677 H 0.10416 0.08901 0.73581 0.0
H678 H 0.13277 0.12696 0.72856 0.0
H679 H 0.13292 0.12239 0.69708 0.0
H680 H 0.1286 0.09019 0.75894 0.0
H681 H 0.09762 0.14384 0.75697 0.0
H682 H 0.09816 0.1312 0.73868 0.0
H683 H 0.11396 0.14263 0.74361 0.0
C684 C 0.11062 0.09364 0.70955 0.0
C685 C 0.11865 0.10297 0.69829 0.0
C686 C 0.11047 0.09634 0.72744 0.0
C687 C 0.11828 0.10844 0.73447 0.0
C688 C 0.12648 0.11769 0.72335 0.0
H689 H 0.11966 0.13661 0.84415 0.0
H690 H 0.12503 0.13496 0.81293 0.0
C691 C 0.12666 0.11498 0.7054 0.0
C692 C 0.11789 0.11111 0.7535 0.0
H693 H 0.10469 0.13492 0.78457 0.0
C694 C 0.12346 0.10002 0.76455 0.0
C695 C 0.11127 0.12399 0.76076 0.0
C696 C 0.1048 0.13608 0.74946 0.0
C697 C 0.12233 0.1013 0.78269 0.0
C698 C 0.11521 0.1139 0.78995 0.0
C699 C 0.11011 0.12526 0.77894 0.0
C700 C 0.11207 0.11499 0.80883 0.0
C701 C 0.12871 0.08912 0.79394 0.0
C702 C 0.1028 0.10447 0.81677 0.0
C703 C 0.09964 0.10542 0.8345 0.0
C704 C 0.10565 0.11697 0.84471 0.0
C705 C 0.11479 0.12763 0.83666 0.0
C706 C 0.11793 0.12667 0.81885 0.0
H707 H 0.1374 0.08268 0.78695 0.0
H708 H 0.13358 0.09374 0.80608 0.0
H709 H 0.11971 0.08128 0.79758 0.0
H710 H 0.09787 0.09558 0.80918 0.0
H711 H 0.09227 0.09723 0.84016 0.0
H712 H 0.40905 0.08883 0.33704 0.0
H713 H 0.41093 0.09384 0.30583 0.0
H714 H 0.44 0.13092 0.3164 0.0
H715 H 0.43823 0.12594 0.34762 0.0
H716 H 0.40437 0.11889 0.28585 0.0
H717 H 0.46455 0.10543 0.28319 0.0
H718 H 0.45316 0.10102 0.30177 0.0
H719 H 0.45982 0.11969 0.29862 0.0
C720 C 0.4157 0.09817 0.33273 0.0
C721 C 0.4236 0.10691 0.34479 0.0
C722 C 0.4168 0.10098 0.3149 0.0
C723 C 0.42583 0.11257 0.30878 0.0
C724 C 0.43326 0.12169 0.32081 0.0
H725 H 0.45185 0.1399 0.20459 0.0
H726 H 0.44694 0.13905 0.23588 0.0
C727 C 0.43223 0.11884 0.33864 0.0
C728 C 0.42772 0.11488 0.28981 0.0
H729 H 0.45366 0.11476 0.25744 0.0
C730 C 0.41514 0.11799 0.27962 0.0
C731 C 0.44178 0.11366 0.28172 0.0
C732 C 0.45559 0.10963 0.29183 0.0
C733 C 0.41628 0.12006 0.26156 0.0
C734 C 0.43033 0.11879 0.25349 0.0
C735 C 0.44291 0.1158 0.26369 0.0
C736 C 0.43225 0.12004 0.23439 0.0
C737 C 0.40248 0.12376 0.25129 0.0
C738 C 0.42558 0.10966 0.22319 0.0
C739 C 0.42833 0.11014 0.2053 0.0
C740 C 0.43785 0.12098 0.19828 0.0
C741 C 0.44431 0.13153 0.20953 0.0
C742 C 0.44159 0.13101 0.22743 0.0
H743 H 0.39351 0.12819 0.25978 0.0
H744 H 0.40491 0.13206 0.241 0.0
H745 H 0.39829 0.1135 0.2449 0.0
H746 H 0.41854 0.10094 0.22832 0.0
H747 H 0.4231 0.10193 0.19697 0.0
H748 H 0.44937 0.40499 0.83832 0.0
H749 H 0.44494 0.40621 0.80693 0.0
H750 H 0.42002 0.44681 0.81385 0.0
H751 H 0.42399 0.44544 0.84529 0.0
H752 H 0.40711 0.42676 0.78972 0.0
H753 H 0.46699 0.43663 0.77646 0.0
H754 H 0.46294 0.42006 0.78861 0.0
H755 H 0.45918 0.438 0.79801 0.0
C756 C 0.44272 0.41404 0.83321 0.0
C757 C 0.43715 0.4252 0.84431 0.0
C758 C 0.44033 0.41479 0.81525 0.0
C759 C 0.43238 0.42674 0.80806 0.0
C760 C 0.42628 0.43755 0.81914 0.0
H761 H 0.43509 0.46366 0.7053 0.0
H762 H 0.43614 0.45817 0.73638 0.0
C763 C 0.42866 0.43681 0.83709 0.0
C764 C 0.43095 0.4284 0.78895 0.0
H765 H 0.45113 0.43479 0.75214 0.0
C766 C 0.41672 0.42844 0.78146 0.0
C767 C 0.44351 0.43077 0.77827 0.0
C768 C 0.45902 0.4315 0.7857 0.0
C769 C 0.41471 0.43086 0.76355 0.0
C770 C 0.42729 0.43312 0.75287 0.0
C771 C 0.44151 0.43297 0.76036 0.0
C772 C 0.426 0.43643 0.73404 0.0
C773 C 0.39914 0.43144 0.75629 0.0
C774 C 0.41993 0.42602 0.72239 0.0
C775 C 0.41934 0.42912 0.70455 0.0
C776 C 0.42494 0.44263 0.69806 0.0
C777 C 0.43089 0.45306 0.70983 0.0
C778 C 0.43144 0.44997 0.72761 0.0
H779 H 0.3907 0.43278 0.76671 0.0
H780 H 0.39795 0.44076 0.74693 0.0
H781 H 0.39677 0.4209 0.74926 0.0
H782 H 0.41592 0.41538 0.72704 0.0
H783 H 0.41486 0.42079 0.6958 0.0
H784 H 0.92102 0.63818 0.8441 0.0
H785 H 0.91595 0.63689 0.81278 0.0
H786 H 0.94234 0.59694 0.80905 0.0
H787 H 0.94764 0.59823 0.84014 0.0
H788 H 0.93662 0.63673 0.7849 0.0
H789 H 0.90294 0.58513 0.78574 0.0
H790 H 0.90672 0.59587 0.80513 0.0
H791 H 0.92046 0.58323 0.7967 0.0
C792 C 0.92578 0.62915 0.8366 0.0
C793 C 0.93463 0.61823 0.84468 0.0
C794 C 0.92281 0.6284 0.81873 0.0
C795 C 0.92854 0.61667 0.80868 0.0
C796 C 0.9375 0.60588 0.81666 0.0
H797 H 0.93711 0.58691 0.7041 0.0
H798 H 0.93708 0.59137 0.73544 0.0
C799 C 0.94049 0.60662 0.83446 0.0
C800 C 0.92565 0.61586 0.78972 0.0
H801 H 0.91231 0.59276 0.75804 0.0
C802 C 0.93111 0.62724 0.779 0.0
C803 C 0.91842 0.60348 0.7821 0.0
C804 C 0.91166 0.5913 0.79301 0.0
C805 C 0.9302 0.62619 0.76078 0.0
C806 C 0.92346 0.61353 0.75317 0.0
C807 C 0.91754 0.60242 0.76392 0.0
C808 C 0.92331 0.61108 0.7341 0.0
C809 C 0.93704 0.63829 0.74982 0.0
C810 C 0.91545 0.62063 0.72295 0.0
C811 C 0.91551 0.61816 0.70495 0.0
C812 C 0.92344 0.60609 0.69783 0.0
C813 C 0.93112 0.59647 0.70911 0.0
C814 C 0.93103 0.59893 0.72705 0.0
H815 H 0.94425 0.64581 0.75762 0.0
H816 H 0.94375 0.6334 0.73912 0.0
H817 H 0.92809 0.64508 0.74388 0.0
H818 H 0.90923 0.62995 0.72816 0.0
H819 H 0.90953 0.6258 0.69661 0.0
H820 H 0.92165 0.90972 0.19788 0.0
H821 H 0.91664 0.91101 0.22922 0.0
H822 H 0.94631 0.94847 0.23379 0.0
H823 H 0.95152 0.94716 0.20269 0.0
H824 H 0.93711 0.90922 0.25747 0.0
H825 H 0.90766 0.96343 0.2565 0.0
H826 H 0.91073 0.95248 0.2371 0.0
H827 H 0.92538 0.96388 0.24582 0.0
C828 C 0.92716 0.91818 0.20558 0.0
C829 C 0.93688 0.92844 0.19773 0.0
C830 C 0.92423 0.91894 0.22345 0.0
C831 C 0.93089 0.93001 0.23373 0.0
C832 C 0.94076 0.94008 0.226 0.0
H833 H 0.9397 0.95847 0.33893 0.0
H834 H 0.94011 0.95416 0.30756 0.0
C835 C 0.94371 0.93932 0.2082 0.0
C836 C 0.92788 0.93094 0.25265 0.0
H837 H 0.9159 0.95482 0.28428 0.0
C838 C 0.93228 0.91909 0.26336 0.0
C839 C 0.92153 0.94381 0.26024 0.0
C840 C 0.91591 0.95658 0.24932 0.0
C841 C 0.93118 0.92008 0.28156 0.0
C842 C 0.92532 0.93318 0.28917 0.0
C843 C 0.92046 0.94481 0.27841 0.0
C844 C 0.92498 0.93548 0.30827 0.0
C845 C 0.93689 0.90739 0.29254 0.0
C846 C 0.91623 0.92646 0.31906 0.0
C847 C 0.91605 0.92884 0.33707 0.0
C848 C 0.9246 0.94029 0.34457 0.0
C849 C 0.9332 0.94938 0.33363 0.0
C850 C 0.93336 0.94701 0.31569 0.0
H851 H 0.94369 0.89943 0.28484 0.0
H852 H 0.94371 0.91165 0.30352 0.0
H853 H 0.92734 0.90123 0.29809 0.0
H854 H 0.90949 0.91764 0.31355 0.0
H855 H 0.90935 0.92161 0.34514 0.0
H856 H 0.5956 0.9338 0.69821 0.0
H857 H 0.59501 0.92868 0.72939 0.0
H858 H 0.64221 0.93634 0.73258 0.0
H859 H 0.64281 0.94212 0.70149 0.0
H860 H 0.60948 0.90756 0.74923 0.0
H861 H 0.62599 0.96473 0.7693 0.0
H862 H 0.62045 0.96028 0.74733 0.0
H863 H 0.63875 0.95553 0.75489 0.0
C864 C 0.60585 0.93454 0.70555 0.0
C865 C 0.61922 0.93857 0.69736 0.0
C866 C 0.60551 0.93148 0.72335 0.0
C867 C 0.61851 0.93238 0.73337 0.0
C868 C 0.63199 0.93588 0.72517 0.0
H869 H 0.62775 0.92479 0.84668 0.0
H870 H 0.63349 0.92549 0.81548 0.0
C871 C 0.63234 0.939 0.70734 0.0
C872 C 0.61778 0.92988 0.75242 0.0
H873 H 0.62231 0.94722 0.79167 0.0
C874 C 0.61236 0.9162 0.75852 0.0
C875 C 0.62157 0.94117 0.76452 0.0
C876 C 0.6269 0.95631 0.75874 0.0
C877 C 0.61044 0.91357 0.77637 0.0
C878 C 0.61389 0.92498 0.78841 0.0
C879 C 0.61972 0.93849 0.78238 0.0
C880 C 0.6106 0.92352 0.80721 0.0
C881 C 0.60469 0.89863 0.78223 0.0
C882 C 0.59585 0.92222 0.81284 0.0
C883 C 0.59254 0.92185 0.83058 0.0
C884 C 0.60394 0.92281 0.84305 0.0
C885 C 0.61875 0.92389 0.83737 0.0
C886 C 0.62204 0.92435 0.81959 0.0
H887 H 0.60645 0.88992 0.77216 0.0
H888 H 0.61018 0.89506 0.79447 0.0
H889 H 0.59258 0.89949 0.7847 0.0
H890 H 0.58684 0.9218 0.80349 0.0
H891 H 0.58104 0.92089 0.83454 0.0
H892 H 0.63927 0.59437 0.33893 0.0
H893 H 0.63888 0.59869 0.3075 0.0
H894 H 0.60167 0.62848 0.31365 0.0
H895 H 0.6022 0.6245 0.34512 0.0
H896 H 0.61455 0.5923 0.28575 0.0
H897 H 0.63 0.65201 0.282 0.0
H898 H 0.63338 0.64084 0.30111 0.0
H899 H 0.61511 0.64802 0.2968 0.0
C900 C 0.6312 0.60208 0.33364 0.0
C901 C 0.62077 0.6091 0.34453 0.0
C902 C 0.63095 0.60447 0.31568 0.0
C903 C 0.62036 0.61403 0.30828 0.0
C904 C 0.6101 0.62126 0.31912 0.0
H905 H 0.59098 0.63625 0.20452 0.0
H906 H 0.59563 0.63484 0.23586 0.0
C907 C 0.61031 0.61884 0.33708 0.0
C908 C 0.61935 0.61559 0.28912 0.0
H909 H 0.62064 0.6409 0.25606 0.0
C910 C 0.61602 0.60289 0.27922 0.0
C911 C 0.62117 0.62945 0.28069 0.0
C912 C 0.62524 0.64335 0.29065 0.0
C913 C 0.61408 0.60372 0.26113 0.0
C914 C 0.61586 0.61759 0.25267 0.0
C915 C 0.61931 0.63028 0.26257 0.0
C916 C 0.6138 0.61916 0.23362 0.0
C917 C 0.60967 0.58982 0.25133 0.0
C918 C 0.62272 0.61112 0.22195 0.0
C919 C 0.62007 0.61188 0.20405 0.0
C920 C 0.60855 0.62084 0.19747 0.0
C921 C 0.6 0.62933 0.20917 0.0
C922 C 0.60261 0.6285 0.22707 0.0
H923 H 0.60508 0.58118 0.26014 0.0
H924 H 0.60126 0.59236 0.24118 0.0
H925 H 0.6196 0.58507 0.24483 0.0
H926 H 0.63164 0.60413 0.2267 0.0
H927 H 0.62701 0.60542 0.19535 0.0
H928 H 0.12453 0.32514 0.05948 0.0
H929 H 0.12499 0.3023 0.04203 0.0
H930 H 0.07724 0.3037 0.03771 0.0
H931 H 0.0767 0.32655 0.05504 0.0
H932 H 0.11218 0.27533 0.0488 0.0
H933 H 0.08955 0.29839 0.9874 0.0
H934 H 0.09605 0.31009 1.00494 0.0
H935 H 0.07785 0.30187 1.00585 0.0
C936 C 0.11413 0.32058 0.0548 0.0
C937 C 0.10058 0.3277 0.05856 0.0
C938 C 0.11441 0.30757 0.04478 0.0
C939 C 0.10117 0.30143 0.03832 0.0
C940 C 0.08763 0.30845 0.04217 0.0
H941 H 0.07646 0.22103 0.98335 0.0
H942 H 0.07724 0.24418 1.00022 0.0
C943 C 0.08734 0.3215 0.05209 0.0
C944 C 0.10147 0.28739 0.02809 0.0
H945 H 0.09088 0.27194 0.98937 0.0
C946 C 0.10763 0.27461 0.03576 0.0
C947 C 0.09555 0.28648 1.01106 0.0
C948 C 0.08951 0.29997 1.00175 0.0
C949 C 0.1077 0.26087 0.02701 0.0
C950 C 0.10156 0.25993 1.01011 0.0
C951 C 0.09551 0.2727 1.00238 0.0
C952 C 0.10121 0.24574 1.00025 0.0
C953 C 0.11401 0.24737 0.03605 0.0
C954 C 0.11444 0.23902 0.99462 0.0
C955 C 0.11403 0.2258 0.985 0.0
C956 C 0.10037 0.21905 0.98084 0.0
C957 C 0.08715 0.22583 0.98654 0.0
C958 C 0.08757 0.2391 0.99608 0.0
H959 H 0.11546 0.24927 0.05024 0.0
H960 H 0.1067 0.23755 0.03409 0.0
H961 H 0.12504 0.24471 0.03041 0.0
H962 H 0.12507 0.24409 0.99754 0.0
H963 H 0.12441 0.2208 0.9809 0.0
H964 H 0.32397 0.07686 0.48589 0.0
H965 H 0.30099 0.07756 0.50282 0.0
H966 H 0.30054 0.12549 0.49967 0.0
H967 H 0.32348 0.12488 0.48263 0.0
H968 H 0.29492 0.09077 0.53422 0.0
H969 H 0.2592 0.11492 0.48255 0.0
H970 H 0.27749 0.1076 0.47817 0.0
H971 H 0.27534 0.12585 0.48751 0.0
C972 C 0.31903 0.08756 0.48888 0.0
C973 C 0.32551 0.10082 0.48284 0.0
C974 C 0.30586 0.08794 0.4985 0.0
C975 C 0.2989 0.10156 0.50224 0.0
C976 C 0.3055 0.11483 0.49654 0.0
H977 H 0.21966 0.12461 0.56147 0.0
H978 H 0.24294 0.12511 0.54497 0.0
C979 C 0.31863 0.11447 0.48684 0.0
C980 C 0.28485 0.10183 0.51234 0.0
H981 H 0.24848 0.11264 0.51061 0.0
C982 C 0.28476 0.09551 0.52903 0.0
C983 C 0.2716 0.10803 0.50555 0.0
C984 C 0.27081 0.11436 0.4874 0.0
C985 C 0.27181 0.09535 0.53919 0.0
C986 C 0.25857 0.10152 0.53239 0.0
C987 C 0.25867 0.10794 0.51577 0.0
C988 C 0.24445 0.10119 0.54224 0.0
C989 C 0.27241 0.08875 0.55721 0.0
C990 C 0.23752 0.08758 0.54593 0.0
C991 C 0.22424 0.08725 0.55533 0.0
C992 C 0.21765 0.10054 0.56121 0.0
C993 C 0.22455 0.11418 0.55731 0.0
C994 C 0.2378 0.11449 0.54782 0.0
H995 H 0.28401 0.0876 0.56199 0.0
H996 H 0.26607 0.09572 0.56657 0.0
H997 H 0.2673 0.07752 0.55697 0.0
H998 H 0.24239 0.0772 0.54154 0.0
H999 H 0.21926 0.07657 0.55823 0.0
H1000 H 0.44226 0.31123 0.95876 0.0
H1001 H 0.44148 0.28846 0.97608 0.0
H1002 H 0.4416 0.31462 0.02318 0.0
H1003 H 0.44177 0.33748 1.00597 0.0
H1004 H 0.46183 0.27847 0.99995 0.0
H1005 H 0.40697 0.28652 0.03141 0.0
H1006 H 0.41292 0.29741 1.01298 0.0
H1007 H 0.41948 0.30185 0.03448 0.0
C1008 C 0.44186 0.31217 0.9728 0.0
C1009 C 0.44198 0.32621 0.98096 0.0
C1010 C 0.44152 0.29913 0.98268 0.0
C1011 C 0.44126 0.29983 1.00091 0.0
C1012 C 0.4415 0.3138 1.00912 0.0
H1013 H 0.4452 0.23449 0.08356 0.0
H1014 H 0.44447 0.25714 0.06598 0.0
C1015 C 0.44179 0.32687 0.99925 0.0
C1016 C 0.44126 0.28592 1.0113 0.0
H1017 H 0.42194 0.26676 0.04223 0.0
C1018 C 0.45306 0.27586 1.00912 0.0
C1019 C 0.42981 0.28255 0.02327 0.0
C1020 C 0.4165 0.29257 0.02559 0.0
C1021 C 0.45387 0.26265 1.01881 0.0
C1022 C 0.44248 0.25933 0.03083 0.0
C1023 C 0.43067 0.26936 0.03301 0.0
C1024 C 0.44269 0.24554 0.04138 0.0
C1025 C 0.46708 0.2525 1.01638 0.0
C1026 C 0.44171 0.23152 0.03338 0.0
C1027 C 0.44203 0.21854 0.0434 0.0
C1028 C 0.44326 0.21934 0.06163 0.0
C1029 C 0.44406 0.23345 0.06959 0.0
C1030 C 0.44372 0.24641 0.05956 0.0
H1031 H 0.47642 0.25824 1.00975 0.0
H1032 H 0.47107 0.24821 0.02909 0.0
H1033 H 0.46375 0.24283 1.00826 0.0
H1034 H 0.44062 0.23062 1.01938 0.0
H1035 H 0.44111 0.20789 0.03686 0.0
H1036 H 0.3237 0.41953 0.56153 0.0
H1037 H 0.30078 0.41878 0.54433 0.0
H1038 H 0.30202 0.46657 0.53918 0.0
H1039 H 0.32494 0.4674 0.55622 0.0
H1040 H 0.27385 0.43161 0.55094 0.0
H1041 H 0.29664 0.45352 0.48915 0.0
H1042 H 0.30837 0.4473 0.50675 0.0
H1043 H 0.30012 0.46555 0.50736 0.0
C1044 C 0.31908 0.42988 0.55672 0.0
C1045 C 0.32618 0.44352 0.56014 0.0
C1046 C 0.30602 0.42943 0.54686 0.0
C1047 C 0.29983 0.44259 0.54021 0.0
C1048 C 0.30681 0.45623 0.54377 0.0
H1049 H 0.21952 0.46707 0.48561 0.0
H1050 H 0.24261 0.46626 0.50245 0.0
C1051 C 0.3199 0.45669 0.55354 0.0
C1052 C 0.2858 0.44213 0.53005 0.0
H1053 H 0.27024 0.45236 0.49132 0.0
C1054 C 0.27309 0.43603 0.53785 0.0
C1055 C 0.28483 0.44787 0.51295 0.0
C1056 C 0.29825 0.4538 0.50348 0.0
C1057 C 0.25934 0.43589 0.52918 0.0
C1058 C 0.25834 0.4419 0.51224 0.0
C1059 C 0.27106 0.44785 0.50436 0.0
C1060 C 0.24414 0.44223 0.50249 0.0
C1061 C 0.24591 0.42966 0.53835 0.0
C1062 C 0.23742 0.42898 0.49689 0.0
C1063 C 0.22422 0.42939 0.48728 0.0
C1064 C 0.21752 0.44309 0.48311 0.0
C1065 C 0.22429 0.45634 0.48881 0.0
C1066 C 0.23752 0.45591 0.49833 0.0
H1067 H 0.24788 0.42823 0.55252 0.0
H1068 H 0.23614 0.43704 0.53648 0.0
H1069 H 0.24318 0.41861 0.53272 0.0
H1070 H 0.24246 0.41831 0.4998 0.0
H1071 H 0.21923 0.419 0.48317 0.0
H1072 H 0.95855 0.83406 0.04363 0.0
H1073 H 0.95796 0.8114 0.02599 0.0
H1074 H 0.92259 0.79408 0.05784 0.0
H1075 H 0.92265 0.81696 0.07508 0.0
H1076 H 0.96313 0.78278 0.03635 0.0
H1077 H 0.90619 0.78763 1.00929 0.0
H1078 H 0.91545 0.80296 1.01995 0.0
H1079 H 0.90685 0.78852 0.03261 0.0
C1080 C 0.95044 0.82556 0.0467 0.0
C1081 C 0.94059 0.82739 0.06075 0.0
C1082 C 0.95021 0.81256 0.03668 0.0
C1083 C 0.94009 0.80113 0.04044 0.0
C1084 C 0.93029 0.80287 0.05448 0.0
H1085 H 0.92678 0.71182 0.99917 0.0
H1086 H 0.92634 0.73467 1.01667 0.0
C1087 C 0.93048 0.81589 0.06447 0.0
C1088 C 0.94023 0.78717 0.03007 0.0
H1089 H 0.91865 0.76461 1.00465 0.0
C1090 C 0.95343 0.77885 0.02935 0.0
C1091 C 0.92754 0.78203 1.02097 0.0
C1092 C 0.91324 0.79081 1.02057 0.0
C1093 C 0.95424 0.76546 1.01995 0.0
C1094 C 0.94156 0.76033 1.0109 0.0
C1095 C 0.92834 0.76858 1.01166 0.0
C1096 C 0.94189 0.74652 1.00035 0.0
C1097 C 0.96859 0.75677 1.01997 0.0
C1098 C 0.95067 0.7457 0.98532 0.0
C1099 C 0.95094 0.73269 0.97531 0.0
C1100 C 0.94243 0.72025 0.98017 0.0
C1101 C 0.93359 0.72114 0.99522 0.0
C1102 C 0.93326 0.7342 1.00516 0.0
H1103 H 0.97618 0.76045 0.03055 0.0
H1104 H 0.9664 0.74467 0.02149 0.0
H1105 H 0.97434 0.75843 1.00736 0.0
H1106 H 0.95728 0.75516 0.98129 0.0
H1107 H 0.95795 0.73232 0.96387 0.0
H1108 H 0.71005 0.92669 0.54301 0.0
H1109 H 0.73297 0.92535 0.52591 0.0
H1110 H 0.75392 0.95633 0.56114 0.0
H1111 H 0.73114 0.95764 0.57833 0.0
H1112 H 0.74798 0.94731 0.50881 0.0
H1113 H 0.78403 0.92283 0.55978 0.0
H1114 H 0.76406 0.92346 0.56171 0.0
H1115 H 0.77503 0.93967 0.56665 0.0
C1116 C 0.71954 0.93323 0.54708 0.0
C1117 C 0.71882 0.94218 0.5621 0.0
C1118 C 0.73264 0.93241 0.53735 0.0
C1119 C 0.74525 0.94051 0.54244 0.0
C1120 C 0.74447 0.94966 0.55724 0.0
H1121 H 0.83198 0.95833 0.49916 0.0
H1122 H 0.80916 0.95754 0.51638 0.0
C1123 C 0.73143 0.95042 0.56703 0.0
C1124 C 0.75909 0.93976 0.53199 0.0
H1125 H 0.79625 0.93225 0.53458 0.0
C1126 C 0.75851 0.94389 0.5144 0.0
C1127 C 0.77283 0.93528 0.53931 0.0
C1128 C 0.77404 0.92992 0.55785 0.0
C1129 C 0.77135 0.94405 0.50405 0.0
C1130 C 0.7851 0.93982 0.51146 0.0
C1131 C 0.78568 0.93555 0.52899 0.0
C1132 C 0.79904 0.93993 0.50125 0.0
C1133 C 0.7702 0.94909 0.48538 0.0
C1134 C 0.801 0.9301 0.48724 0.0
C1135 C 0.81408 0.93042 0.47746 0.0
C1136 C 0.82548 0.94058 0.48152 0.0
C1137 C 0.82353 0.95025 0.49578 0.0
C1138 C 0.81046 0.94988 0.50558 0.0
H1139 H 0.75952 0.95486 0.48272 0.0
H1140 H 0.77948 0.9567 0.48207 0.0
H1141 H 0.77093 0.93924 0.47668 0.0
H1142 H 0.79241 0.92215 0.4839 0.0
H1143 H 0.81531 0.92262 0.4668 0.0
H1144 H 0.58004 0.72061 0.0573 0.0
H1145 H 0.58087 0.74375 0.04054 0.0
H1146 H 0.62872 0.74321 0.04265 0.0
H1147 H 0.62801 0.71993 0.0592 0.0
H1148 H 0.59507 0.77135 0.05165 0.0
H1149 H 0.61841 0.74869 0.99004 0.0
H1150 H 0.60964 0.73701 1.00614 0.0
H1151 H 0.62812 0.74386 1.0097 0.0
C1152 C 0.59075 0.72531 0.054 0.0
C1153 C 0.60396 0.71841 0.05952 0.0
C1154 C 0.59119 0.73856 0.04452 0.0
C1155 C 0.60485 0.74509 0.04024 0.0
C1156 C 0.61807 0.73824 0.04566 0.0
H1157 H 0.62758 0.82452 0.98102 0.0
H1158 H 0.62833 0.80162 0.99824 0.0
C1159 C 0.61764 0.72502 0.05523 0.0
C1160 C 0.60521 0.75931 0.03054 0.0
H1161 H 0.61525 0.77475 0.99175 0.0
C1162 C 0.59946 0.77212 0.03854 0.0
C1163 C 0.61106 0.76026 1.01352 0.0
C1164 C 0.61708 0.74673 1.00422 0.0
C1165 C 0.59948 0.78593 0.03 0.0
C1166 C 0.60506 0.78684 1.01283 0.0
C1167 C 0.61096 0.77403 1.0049 0.0
C1168 C 0.60461 0.8009 1.00272 0.0
C1169 C 0.59377 0.79944 0.0396 0.0
C1170 C 0.59103 0.80801 0.99936 0.0
C1171 C 0.59057 0.8211 0.98958 0.0
C1172 C 0.60369 0.82725 0.98276 0.0
C1173 C 0.61728 0.82002 0.986 0.0
C1174 C 0.61773 0.80696 0.99588 0.0
H1175 H 0.59417 0.79783 0.05392 0.0
H1176 H 0.60029 0.80952 0.03627 0.0
H1177 H 0.58202 0.80143 0.0359 0.0
H1178 H 0.58072 0.80332 1.0041 0.0
H1179 H 0.5799 0.82624 0.98703 0.0
H1180 H 0.71955 0.58135 0.48462 0.0
H1181 H 0.7427 0.58224 0.50136 0.0
H1182 H 0.74184 0.63021 0.4998 0.0
H1183 H 0.71856 0.62944 0.48327 0.0
H1184 H 0.7701 0.59671 0.49038 0.0
H1185 H 0.74757 0.61961 0.55228 0.0
H1186 H 0.73592 0.61083 0.53609 0.0
H1187 H 0.74261 0.62943 0.53275 0.0
C1188 C 0.72418 0.5921 0.48804 0.0
C1189 C 0.7172 0.60533 0.48267 0.0
C1190 C 0.73744 0.59258 0.4975 0.0
C1191 C 0.74388 0.60628 0.50193 0.0
C1192 C 0.73694 0.61952 0.49668 0.0
H1193 H 0.8232 0.62947 0.56111 0.0
H1194 H 0.80025 0.63006 0.54399 0.0
C1195 C 0.72372 0.61906 0.48712 0.0
C1196 C 0.7581 0.60669 0.51162 0.0
H1197 H 0.77359 0.61667 0.55048 0.0
C1198 C 0.77089 0.60105 0.50354 0.0
C1199 C 0.75907 0.61246 0.5287 0.0
C1200 C 0.74557 0.61834 0.53809 0.0
C1201 C 0.78469 0.60113 0.51205 0.0
C1202 C 0.78563 0.60665 0.52928 0.0
C1203 C 0.77285 0.61242 0.53729 0.0
C1204 C 0.79971 0.60629 0.53934 0.0
C1205 C 0.79818 0.59556 0.50237 0.0
C1206 C 0.80695 0.59273 0.54257 0.0
C1207 C 0.82006 0.59236 0.5523 0.0
C1208 C 0.82612 0.60555 0.55919 0.0
C1209 C 0.81877 0.61911 0.55608 0.0
C1210 C 0.80568 0.61947 0.54626 0.0
H1211 H 0.7965 0.59598 0.48805 0.0
H1212 H 0.80819 0.60218 0.50572 0.0
H1213 H 0.80029 0.58379 0.50598 0.0
H1214 H 0.80233 0.58237 0.53777 0.0
H1215 H 0.8253 0.58171 0.55474 0.0
H1216 H 1.01458 0.58421 0.99209 0.0
H1217 H 0.02646 0.56126 1.00214 0.0
H1218 H 0.98349 0.54291 1.01449 0.0
H1219 H 0.97154 0.56573 1.00415 0.0
H1220 H 0.02649 0.54841 0.03367 0.0
H1221 H 1.00107 0.50973 0.9859 0.0
H1222 H 0.99993 0.52969 0.98367 0.0
H1223 H 0.98756 0.52002 0.99814 0.0
C1224 C 1.00767 0.57527 0.99696 0.0
C1225 C 0.99212 0.57673 0.99726 0.0
C1226 C 1.01446 0.56215 1.00264 0.0
C1227 C 1.00586 0.55024 1.00878 0.0
C1228 C 0.99034 0.55176 1.00935 0.0
H1229 H 0.02726 0.46636 0.05876 0.0
H1230 H 1.01536 0.48921 0.04825 0.0
C1231 C 0.98353 0.56483 1.00351 0.0
C1232 C 1.01318 0.53642 1.01502 0.0
H1233 H 1.01421 0.49865 1.0095 0.0
C1234 C 0.02387 0.53755 0.0283 0.0
C1235 C 1.00978 0.52223 1.00798 0.0
C1236 C 0.99907 0.52032 0.99302 0.0
C1237 C 0.03105 0.52488 0.03489 0.0
C1238 C 0.02747 0.51074 0.02803 0.0
C1239 C 1.01684 0.50955 1.01477 0.0
C1240 C 0.03474 0.49703 0.03443 0.0
C1241 C 0.04229 0.52661 0.04932 0.0
C1242 C 0.04952 0.49389 0.03002 0.0
C1243 C 0.05632 0.48084 0.03592 0.0
C1244 C 0.04846 0.47076 0.04644 0.0
C1245 C 0.03364 0.47399 0.05084 0.0
C1246 C 0.02681 0.48697 0.04479 0.0
H1247 H 0.04232 0.53805 0.05486 0.0
H1248 H 0.04 0.51854 0.05991 0.0
H1249 H 0.05355 0.52416 0.04418 0.0
H1250 H 0.05577 0.50152 0.02194 0.0
H1251 H 0.06778 0.47871 0.03243 0.0
H1252 H 0.08603 0.03113 0.53076 0.0
H1253 H 0.06322 1.01912 0.52063 0.0
H1254 H 0.03712 0.05163 0.54845 0.0
H1255 H 0.05986 0.06401 0.55818 0.0
H1256 H 0.04048 1.00667 0.54063 0.0
H1257 H 1.01918 0.05275 0.49951 0.0
H1258 H 0.03811 0.05207 0.50724 0.0
H1259 H 0.02345 0.05805 0.52149 0.0
C1260 C 0.07544 0.03587 0.53452 0.0
C1261 C 0.07478 0.04859 0.54521 0.0
C1262 C 0.06242 0.02892 0.52882 0.0
C1263 C 0.04848 0.0346 0.53359 0.0
C1264 C 0.04776 0.04722 0.54436 0.0
H1265 H 0.95735 1.00801 0.51392 0.0
H1266 H 0.98015 1.01994 0.52421 0.0
C1267 C 0.06078 0.05418 0.55007 0.0
C1268 C 0.03471 0.02709 0.52764 0.0
H1269 H 1.0029 0.0324 0.50422 0.0
C1270 C 0.03228 1.01226 0.5326 0.0
C1271 C 0.02404 0.03443 0.5172 0.0
C1272 C 0.02634 0.05016 0.51089 0.0
C1273 C 1.01933 1.00464 0.52764 0.0
C1274 C 1.00866 1.01198 0.5172 0.0
C1275 C 1.01109 0.02681 0.51225 0.0
C1276 C 0.9949 1.00447 0.51124 0.0
C1277 C 1.01704 0.98891 0.53394 0.0
C1278 C 0.99562 0.99188 0.50043 0.0
C1279 C 0.98261 0.98498 0.49462 0.0
C1280 C 0.9686 0.99058 0.49944 0.0
C1281 C 0.96794 1.00326 0.5102 0.0
C1282 C 0.98096 1.01016 0.51599 0.0
H1283 H 0.0242 0.98631 0.54532 0.0
H1284 H 1.00526 0.98699 0.53759 0.0
H1285 H 1.01992 0.98102 0.52333 0.0
H1286 H 1.00627 0.98747 0.49636 0.0
H1287 H 0.98353 0.97518 0.48645 0.0
H1288 H 0.51304 0.08794 0.03165 0.0
H1289 H 0.5248 0.06513 1.02097 0.0
H1290 H 0.49164 0.03886 0.04721 0.0
H1291 H 0.47952 0.06162 0.05749 0.0
H1292 H 0.53663 0.0416 0.0403 0.0
H1293 H 0.49075 1.02219 0.99761 0.0
H1294 H 0.49166 0.04094 1.00605 0.0
H1295 H 0.48529 0.02599 1.01964 0.0
C1296 C 0.50811 0.07732 0.03495 0.0
C1297 C 0.49528 0.07662 0.04535 0.0
C1298 C 0.51491 0.06429 0.02894 0.0
C1299 C 0.50897 0.05031 0.03309 0.0
C1300 C 0.49625 0.04954 0.04359 0.0
H1301 H 0.53426 0.95896 1.01142 0.0
H1302 H 0.52256 0.98188 0.02191 0.0
C1303 C 0.48944 0.06256 0.04962 0.0
C1304 C 0.5163 0.03653 0.02677 0.0
H1305 H 0.51069 1.00534 1.00215 0.0
C1306 C 0.531 0.03369 0.03189 0.0
C1307 C 0.5089 0.02625 1.01581 0.0
C1308 C 0.49333 0.02902 1.0093 0.0
C1309 C 0.53843 1.0207 0.02661 0.0
C1310 C 0.53102 1.0104 1.01568 0.0
C1311 C 0.51633 1.01325 1.01055 0.0
C1312 C 0.53831 0.99657 1.00946 0.0
C1313 C 0.55401 1.01793 0.03308 0.0
C1314 C 0.55096 0.99724 0.99884 0.0
C1315 C 0.55772 0.98417 0.99291 0.0
C1316 C 0.55192 0.97016 0.99741 0.0
C1317 C 0.53915 0.96955 1.00793 0.0
C1318 C 0.53239 0.98263 1.01384 0.0
H1319 H 0.55666 0.02486 0.04467 0.0
H1320 H 0.55563 1.00603 0.03649 0.0
H1321 H 0.56203 1.0208 0.02266 0.0
H1322 H 0.55556 1.0079 0.99506 0.0
H1323 H 0.56759 0.98503 0.98492 0.0
H1324 H 0.57038 0.54054 0.4729 0.0
H1325 H 0.54749 0.52866 0.4829 0.0
H1326 H 0.55134 0.55144 0.53213 0.0
H1327 H 0.57398 0.56373 0.52206 0.0
H1328 H 0.5437 0.51006 0.5118 0.0
H1329 H 0.50864 0.56075 0.51712 0.0
H1330 H 0.52598 0.56048 0.50534 0.0
H1331 H 0.52596 0.56183 0.52867 0.0
C1332 C 0.56624 0.5432 0.48576 0.0
C1333 C 0.57398 0.55315 0.49665 0.0
C1334 C 0.55322 0.53632 0.49149 0.0
C1335 C 0.54761 0.53932 0.50816 0.0
C1336 C 0.55533 0.54917 0.5191 0.0
H1337 H 0.47228 0.50806 0.568 0.0
H1338 H 0.49506 0.51994 0.55771 0.0
C1339 C 0.56837 0.55605 0.51339 0.0
C1340 C 0.5339 0.53184 0.51426 0.0
H1341 H 0.49864 0.53843 0.5287 0.0
C1342 C 0.53381 0.51624 0.51542 0.0
C1343 C 0.52105 0.53995 0.51899 0.0
C1344 C 0.5203 0.55667 0.51734 0.0
C1345 C 0.52129 0.50854 0.5215 0.0
C1346 C 0.50844 0.51665 0.52625 0.0
C1347 C 0.50852 0.53225 0.52507 0.0
C1348 C 0.49477 0.50918 0.5325 0.0
C1349 C 0.52204 0.49182 0.52316 0.0
C1350 C 0.48699 0.49928 0.52169 0.0
C1351 C 0.47401 0.4924 0.52757 0.0
C1352 C 0.46852 0.49534 0.54436 0.0
C1353 C 0.47632 0.50536 0.55511 0.0
C1354 C 0.48928 0.51224 0.54921 0.0
H1355 H 0.53369 0.48773 0.52329 0.0
H1356 H 0.51643 0.48802 0.53522 0.0
H1357 H 0.5163 0.48665 0.51188 0.0
H1358 H 0.49089 0.49696 0.50864 0.0
H1359 H 0.46835 0.48467 0.51901 0.0
H1360 H 0.0296 0.08787 1.01018 0.0
H1361 H 1.01769 0.06508 1.02054 0.0
H1362 H 0.05108 0.03874 0.99461 0.0
H1363 H 0.06334 0.06146 0.98466 0.0
H1364 H 1.00604 0.04159 1.00085 0.0
H1365 H 0.05141 1.02203 0.04414 0.0
H1366 H 0.05061 0.04079 0.0358 0.0
H1367 H 0.05711 0.02584 0.02221 0.0
C1368 C 0.03454 0.07724 1.00688 0.0
C1369 C 0.04748 0.07651 0.99667 0.0
C1370 C 0.02765 0.06423 1.01271 0.0
C1371 C 0.03362 0.05023 1.00855 0.0
C1372 C 0.04644 0.04943 0.99824 0.0
H1373 H 1.00803 0.95899 0.02998 0.0
H1374 H 1.01982 0.9818 1.01949 0.0
C1375 C 0.05334 0.06243 0.99239 0.0
C1376 C 0.0262 0.03647 1.01468 0.0
H1377 H 0.03147 1.00527 0.03926 0.0
C1378 C 1.01156 0.03367 1.00931 0.0
C1379 C 0.03345 0.02616 0.02569 0.0
C1380 C 0.04896 0.02887 0.03245 0.0
C1381 C 1.00405 1.0207 1.01442 0.0
C1382 C 1.0113 1.01039 0.02543 0.0
C1383 C 0.02595 1.01319 0.0308 0.0
C1384 C 1.0039 0.99662 0.03155 0.0
C1385 C 0.98853 1.01799 1.00768 0.0
C1386 C 0.99111 0.9974 0.04193 0.0
C1387 C 0.98429 0.98439 0.04785 0.0
C1388 C 0.99018 0.97033 0.04358 0.0
C1389 C 1.00306 0.96962 0.03327 0.0
C1390 C 1.00988 0.98264 0.02737 0.0
H1391 H 0.98606 0.02486 0.99603 0.0
H1392 H 0.9869 1.00608 1.0043 0.0
H1393 H 0.9804 1.02099 1.01795 0.0
H1394 H 0.98646 1.00809 0.04556 0.0
H1395 H 0.97433 0.98534 0.05567 0.0
H1396 H 0.47218 0.03619 0.47278 0.0
H1397 H 0.49499 0.02417 0.48297 0.0
H1398 H 0.49167 0.04785 0.53166 0.0
H1399 H 0.46891 0.05999 0.52157 0.0
H1400 H 0.52175 0.03712 0.4938 0.0
H1401 H 0.49601 1.00443 0.54703 0.0
H1402 H 0.4852 1.01314 0.53006 0.0
H1403 H 0.49217 0.02404 0.54793 0.0
C1404 C 0.47635 0.03892 0.48562 0.0
C1405 C 0.46867 0.049 0.4964 0.0
C1406 C 0.48934 0.03199 0.49144 0.0
C1407 C 0.49488 0.03493 0.50817 0.0
C1408 C 0.48739 0.04515 0.51886 0.0
H1409 H 0.57169 1.00599 0.56725 0.0
H1410 H 0.54892 1.01783 0.55673 0.0
C1411 C 0.47439 0.05208 0.51307 0.0
C1412 C 0.50864 0.02751 0.5143 0.0
H1413 H 0.52234 1.00454 0.54584 0.0
C1414 C 0.52189 0.02994 0.50512 0.0
C1415 C 0.50877 1.01816 0.52909 0.0
C1416 C 0.49476 1.01465 0.53903 0.0
C1417 C 0.53533 0.02349 0.51054 0.0
C1418 C 0.53546 1.01417 0.52535 0.0
C1419 C 0.52221 1.01172 0.53451 0.0
C1420 C 0.54925 1.00689 0.53163 0.0
C1421 C 0.54934 0.027 0.5006 0.0
C1422 C 0.55687 0.99665 0.5211 0.0
C1423 C 0.56986 0.98981 0.5271 0.0
C1424 C 0.57543 0.99301 0.54381 0.0
C1425 C 0.56764 1.00315 0.55439 0.0
C1426 C 0.55466 1.00999 0.54838 0.0
H1427 H 0.54806 0.03714 0.49248 0.0
H1428 H 0.55887 0.02863 0.50959 0.0
H1429 H 0.55201 1.01754 0.49183 0.0
H1430 H 0.5527 0.99383 0.50829 0.0
H1431 H 0.57544 0.98186 0.51874 0.0
H1432 H 0.53862 0.57187 0.06829 0.0
H1433 H 0.52673 0.54894 0.05814 0.0
H1434 H 0.55124 0.55153 1.01009 0.0
H1435 H 0.5635 0.57422 1.02032 0.0
H1436 H 0.50915 0.54497 0.02829 0.0
H1437 H 0.5592 0.50884 0.02649 0.0
H1438 H 0.55881 0.52641 0.03793 0.0
H1439 H 0.56103 0.52598 1.01469 0.0
C1440 C 0.54164 0.56745 0.05566 0.0
C1441 C 0.55207 0.57484 0.04515 0.0
C1442 C 0.53476 0.5544 0.04984 0.0
C1443 C 0.53825 0.54843 0.03346 0.0
C1444 C 0.54858 0.55581 0.02289 0.0
H1445 H 0.50769 0.47232 0.97371 0.0
H1446 H 0.51961 0.49516 0.98404 0.0
C1447 C 0.55545 0.56887 0.02869 0.0
C1448 C 0.53076 0.53472 0.02725 0.0
H1449 H 0.53719 0.49897 1.01399 0.0
C1450 C 0.51526 0.53488 0.02524 0.0
C1451 C 0.53877 0.52159 0.02325 0.0
C1452 C 0.55536 0.52058 0.02583 0.0
C1453 C 0.50757 0.52234 1.01904 0.0
C1454 C 0.51559 0.50923 1.01502 0.0
C1455 C 0.53108 0.50906 1.01705 0.0
C1456 C 0.50811 0.49553 1.00873 0.0
C1457 C 0.49099 0.52335 1.01646 0.0
C1458 C 0.49777 0.48811 1.01925 0.0
C1459 C 0.49088 0.4751 1.01335 0.0
C1460 C 0.49424 0.46922 0.99683 0.0
C1461 C 0.50468 0.47666 0.98638 0.0
C1462 C 0.51158 0.48966 0.99231 0.0
H1463 H 0.48713 0.5351 1.01588 0.0
H1464 H 0.48754 0.51758 1.00432 0.0
H1465 H 0.48532 0.51789 0.02755 0.0
H1466 H 0.49512 0.49232 0.03209 0.0
H1467 H 0.48282 0.46971 0.02167 0.0
H1468 H 0.95776 0.53764 0.52815 0.0
H1469 H 0.98059 0.52557 0.51818 0.0
H1470 H 1.00661 0.55689 0.54788 0.0
H1471 H 0.98386 0.56913 0.5578 0.0
H1472 H 1.00452 0.53786 0.49964 0.0
H1473 H 0.02258 0.51637 0.56398 0.0
H1474 H 1.00397 0.52305 0.55999 0.0
H1475 H 1.01887 0.53602 0.5635 0.0
C1476 C 0.96834 0.54204 0.53247 0.0
C1477 C 0.96897 0.55434 0.54383 0.0
C1478 C 0.98137 0.53508 0.52683 0.0
C1479 C 0.99528 0.54019 0.5325 0.0
C1480 C 0.99598 0.55256 0.54365 0.0
H1481 H 0.08639 0.51378 0.51228 0.0
H1482 H 0.06362 0.52604 0.5221 0.0
C1483 C 0.98296 0.55954 0.54931 0.0
C1484 C 1.00905 0.53274 0.52648 0.0
H1485 H 0.03966 0.51383 0.54069 0.0
C1486 C 1.01218 0.53254 0.50859 0.0
C1487 C 1.01902 0.52584 0.5382 0.0
C1488 C 1.01593 0.52517 0.55748 0.0
C1489 C 0.02516 0.52585 0.50213 0.0
C1490 C 0.03512 0.51895 0.51386 0.0
C1491 C 0.032 0.51915 0.53174 0.0
C1492 C 0.04887 0.51144 0.50784 0.0
C1493 C 0.02825 0.5265 0.48286 0.0
C1494 C 0.04811 0.49903 0.49675 0.0
C1495 C 0.0611 0.49194 0.49118 0.0
C1496 C 0.07511 0.49707 0.49668 0.0
C1497 C 0.07579 0.50943 0.50794 0.0
C1498 C 0.0628 0.51651 0.51351 0.0
H1499 H 1.02161 0.53531 0.47636 0.0
H1500 H 0.04021 0.5286 0.48035 0.0
H1501 H 0.02528 0.51566 0.47685 0.0
H1502 H 0.03746 0.49474 0.49254 0.0
H1503 H 0.06015 0.4823 0.48277 0.0
loop_
_geom_bond_atom_site_label_1
_geom_bond_atom_site_label_2
_geom_bond_distance
_geom_bond_site_symmetry_2
_ccdc_geom_bond_type
C0 C1 1.264 . S
C0 C5 1.479 . S
C0 C10 1.465 . S
C1 C0 1.264 . S
C1 C3 1.339 . S
C1 H28 0.931 . S
C2 C3 1.395 . S
C2 C4 1.320 . S
C3 C1 1.339 . S
C3 C2 1.395 . S
C3 H29 0.929 . S
C4 C2 1.320 . S
C4 C5 1.405 . S
C4 H30 0.930 . S
C5 C0 1.479 . S
C5 C4 1.405 . S
C5 H31 0.931 . S
U6 O7 2.454 . S
U6 O8 2.458 . S
U6 C9 2.984 . S
U6 C10 2.847 . S
U6 C23 2.882 . S
U6 O24 2.441 . S
U6 O25 2.420 . S
U6 O26 2.455 . S
U6 O27 2.449 . S
O7 U6 2.454 . S
O7 C9 1.353 . S
O8 U6 2.458 . S
O8 C9 1.286 . S
C9 U6 2.984 . S
C9 O7 1.353 . S
C9 O8 1.286 . S
C9 C11 1.363 . S
C10 C0 1.465 . S
C10 U6 2.847 . S
C10 O24 1.249 . S
C10 O25 1.202 . S
C11 C9 1.363 . S
C11 C13 1.408 . S
C11 C16 1.342 . S
C12 C13 1.310 . S
C12 C15 1.461 . S
C12 H32 0.932 . S
C13 C11 1.408 . S
C13 C12 1.310 . S
C13 H33 0.930 . S
C14 C15 1.474 . S
C14 C16 1.285 . S
C14 H34 0.929 . S
C15 C12 1.461 . S
C15 C14 1.474 . S
C16 C11 1.342 . S
C16 C14 1.285 . S
C16 H35 0.930 . S
C17 C20 1.424 . S
C17 C22 1.245 . S
C17 C23 1.428 . S
C18 C21 1.260 . S
C18 C22 1.477 . S
C18 H36 0.932 . S
C19 C20 1.384 . S
C19 C21 1.479 . S
C19 H37 0.929 . S
C20 C17 1.424 . S
C20 C19 1.384 . S
C20 H38 0.928 . S
C21 C18 1.260 . S
C21 C19 1.479 . S
C22 C17 1.245 . S
C22 C18 1.477 . S
C22 H39 0.932 . S
C23 U6 2.882 . S
C23 C17 1.428 . S
C23 O26 1.301 . S
C23 O27 1.282 . S
O24 U6 2.441 . S
O24 C10 1.249 . S
O25 U6 2.420 . S
O25 C10 1.202 . S
O26 U6 2.455 . S
O26 C23 1.301 . S
O27 U6 2.449 . S
O27 C23 1.282 . S
H28 C1 0.931 . S
H29 C3 0.929 . S
H30 C4 0.930 . S
H31 C5 0.931 . S
H32 C12 0.932 . S
H33 C13 0.930 . S
H34 C14 0.929 . S
H35 C16 0.930 . S
H36 C18 0.932 . S
H37 C19 0.929 . S
H38 C20 0.928 . S
H39 C22 0.932 . S
C40 C41 1.264 . S
C40 C45 1.479 . S
C40 C50 1.465 . S
C41 C40 1.264 . S
C41 C43 1.339 . S
C41 H68 0.931 . S
C42 C43 1.395 . S
C42 C44 1.320 . S
C43 C41 1.339 . S
C43 C42 1.395 . S
C43 H69 0.929 . S
C44 C42 1.320 . S
C44 C45 1.405 . S
C44 H70 0.930 . S
C45 C40 1.479 . S
C45 C44 1.405 . S
C45 H71 0.931 . S
U46 O47 2.454 . S
U46 O48 2.458 . S
U46 C49 2.984 . S
U46 C50 2.847 . S
U46 C63 2.882 . S
U46 O64 2.441 . S
U46 O65 2.420 . S
U46 O66 2.455 . S
U46 O67 2.449 . S
O47 U46 2.454 . S
O47 C49 1.353 . S
O48 U46 2.458 . S
O48 C49 1.286 . S
C49 U46 2.984 . S
C49 O47 1.353 . S
C49 O48 1.286 . S
C49 C51 1.363 . S
C50 C40 1.465 . S
C50 U46 2.847 . S
C50 O64 1.249 . S
C50 O65 1.202 . S
C51 C49 1.363 . S
C51 C53 1.408 . S
C51 C56 1.342 . S
C52 C53 1.310 . S
C52 C55 1.461 . S
C52 H72 0.932 . S
C53 C51 1.408 . S
C53 C52 1.310 . S
C53 H73 0.930 . S
C54 C55 1.474 . S
C54 C56 1.285 . S
C54 H74 0.929 . S
C55 C52 1.461 . S
C55 C54 1.474 . S
C56 C51 1.342 . S
C56 C54 1.285 . S
C56 H75 0.930 . S
C57 C60 1.424 . S
C57 C62 1.245 . S
C57 C63 1.428 . S
C58 C61 1.260 . S
C58 C62 1.477 . S
C58 H76 0.932 . S
C59 C60 1.384 . S
C59 C61 1.479 . S
C59 H77 0.929 . S
C60 C57 1.424 . S
C60 C59 1.384 . S
C60 H78 0.928 . S
C61 C58 1.260 . S
C61 C59 1.479 . S
C62 C57 1.245 . S
C62 C58 1.477 . S
C62 H79 0.932 . S
C63 U46 2.882 . S
C63 C57 1.428 . S
C63 O66 1.301 . S
C63 O67 1.282 . S
O64 U46 2.441 . S
O64 C50 1.249 . S
O65 U46 2.420 . S
O65 C50 1.202 . S
O66 U46 2.455 . S
O66 C63 1.301 . S
O67 U46 2.449 . S
O67 C63 1.282 . S
H68 C41 0.931 . S
H69 C43 0.929 . S
H70 C44 0.930 . S
H71 C45 0.931 . S
H72 C52 0.932 . S
H73 C53 0.930 . S
H74 C54 0.929 . S
H75 C56 0.930 . S
H76 C58 0.932 . S
H77 C59 0.929 . S
H78 C60 0.928 . S
H79 C62 0.932 . S
C80 C81 1.264 . S
C80 C85 1.479 . S
C80 C90 1.465 . S
C81 C80 1.264 . S
C81 C83 1.339 . S
C81 H108 0.931 . S
C82 C83 1.395 . S
C82 C84 1.320 . S
C83 C81 1.339 . S
C83 C82 1.395 . S
C83 H109 0.929 . S
C84 C82 1.320 . S
C84 C85 1.405 . S
C84 H110 0.930 . S
C85 C80 1.479 . S
C85 C84 1.405 . S
C85 H111 0.931 . S
U86 O87 2.454 . S
U86 O88 2.458 . S
U86 C89 2.984 . S
U86 C90 2.847 . S
U86 C103 2.882 . S
U86 O104 2.441 . S
U86 O105 2.420 . S
U86 O106 2.455 . S
U86 O107 2.449 . S
O87 U86 2.454 . S
O87 C89 1.353 . S
O88 U86 2.458 . S
O88 C89 1.286 . S
C89 U86 2.984 . S
C89 O87 1.353 . S
C89 O88 1.286 . S
C89 C91 1.363 . S
C90 C80 1.465 . S
C90 U86 2.847 . S
C90 O104 1.249 . S
C90 O105 1.202 . S
C91 C89 1.363 . S
C91 C93 1.408 . S
C91 C96 1.342 . S
C92 C93 1.310 . S
C92 C95 1.461 . S
C92 H112 0.932 . S
C93 C91 1.408 . S
C93 C92 1.310 . S
C93 H113 0.930 . S
C94 C95 1.474 . S
C94 C96 1.285 . S
C94 H114 0.929 . S
C95 C92 1.461 . S
C95 C94 1.474 . S
C96 C91 1.342 . S
C96 C94 1.285 . S
C96 H115 0.930 . S
C97 C100 1.424 . S
C97 C102 1.245 . S
C97 C103 1.428 . S
C98 C101 1.260 . S
C98 C102 1.477 . S
C98 H116 0.932 . S
C99 C100 1.384 . S
C99 C101 1.479 . S
C99 H117 0.929 . S
C100 C97 1.424 . S
C100 C99 1.384 . S
C100 H118 0.928 . S
C101 C98 1.260 . S
C101 C99 1.479 . S
C102 C97 1.245 . S
C102 C98 1.477 . S
C102 H119 0.932 . S
C103 U86 2.882 . S
C103 C97 1.428 . S
C103 O106 1.301 . S
C103 O107 1.282 . S
O104 U86 2.441 . S
O104 C90 1.249 . S
O105 U86 2.420 . S
O105 C90 1.202 . S
O106 U86 2.455 . S
O106 C103 1.301 . S
O107 U86 2.449 . S
O107 C103 1.282 . S
H108 C81 0.931 . S
H109 C83 0.929 . S
H110 C84 0.930 . S
H111 C85 0.931 . S
H112 C92 0.932 . S
H113 C93 0.930 . S
H114 C94 0.929 . S
H115 C96 0.930 . S
H116 C98 0.932 . S
H117 C99 0.929 . S
H118 C100 0.928 . S
H119 C102 0.932 . S
C120 C121 1.264 . S
C120 C125 1.479 . S
C120 C130 1.465 . S
C121 C120 1.264 . S
C121 C123 1.339 . S
C121 H148 0.931 . S
C122 C123 1.395 . S
C122 C124 1.320 . S
C123 C121 1.339 . S
C123 C122 1.395 . S
C123 H149 0.929 . S
C124 C122 1.320 . S
C124 C125 1.405 . S
C124 H150 0.930 . S
C125 C120 1.479 . S
C125 C124 1.405 . S
C125 H151 0.931 . S
U126 O127 2.454 . S
U126 O128 2.458 . S
U126 C129 2.984 . S
U126 C130 2.847 . S
U126 C143 2.882 . S
U126 O144 2.441 . S
U126 O145 2.420 . S
U126 O146 2.455 . S
U126 O147 2.449 . S
O127 U126 2.454 . S
O127 C129 1.353 . S
O128 U126 2.458 . S
O128 C129 1.286 . S
C129 U126 2.984 . S
C129 O127 1.353 . S
C129 O128 1.286 . S
C129 C131 1.363 . S
C130 C120 1.465 . S
C130 U126 2.847 . S
C130 O144 1.249 . S
C130 O145 1.202 . S
C131 C129 1.363 . S
C131 C133 1.408 . S
C131 C136 1.342 . S
C132 C133 1.310 . S
C132 C135 1.461 . S
C132 H152 0.932 . S
C133 C131 1.408 . S
C133 C132 1.310 . S
C133 H153 0.930 . S
C134 C135 1.474 . S
C134 C136 1.285 . S
C134 H154 0.929 . S
C135 C132 1.461 . S
C135 C134 1.474 . S
C136 C131 1.342 . S
C136 C134 1.285 . S
C136 H155 0.930 . S
C137 C140 1.424 . S
C137 C142 1.245 . S
C137 C143 1.428 . S
C138 C141 1.260 . S
C138 C142 1.477 . S
C138 H156 0.932 . S
C139 C140 1.384 . S
C139 C141 1.479 . S
C139 H157 0.929 . S
C140 C137 1.424 . S
C140 C139 1.384 . S
C140 H158 0.928 . S
C141 C138 1.260 . S
C141 C139 1.479 . S
C142 C137 1.245 . S
C142 C138 1.477 . S
C142 H159 0.932 . S
C143 U126 2.882 . S
C143 C137 1.428 . S
C143 O146 1.301 . S
C143 O147 1.282 . S
O144 U126 2.441 . S
O144 C130 1.249 . S
O145 U126 2.420 . S
O145 C130 1.202 . S
O146 U126 2.455 . S
O146 C143 1.301 . S
O147 U126 2.449 . S
O147 C143 1.282 . S
H148 C121 0.931 . S
H149 C123 0.929 . S
H150 C124 0.930 . S
H151 C125 0.931 . S
H152 C132 0.932 . S
H153 C133 0.930 . S
H154 C134 0.929 . S
H155 C136 0.930 . S
H156 C138 0.932 . S
H157 C139 0.929 . S
H158 C140 0.928 . S
H159 C142 0.932 . S
C160 C161 1.264 . S
C160 C165 1.479 . S
C160 C170 1.465 . S
C161 C160 1.264 . S
C161 C163 1.339 . S
C161 H188 0.931 . S
C162 C163 1.395 . S
C162 C164 1.320 . S
C163 C161 1.339 . S
C163 C162 1.395 . S
C163 H189 0.929 . S
C164 C162 1.320 . S
C164 C165 1.405 . S
C164 H190 0.930 . S
C165 C160 1.479 . S
C165 C164 1.405 . S
C165 H191 0.931 . S
U166 O167 2.454 . S
U166 O168 2.458 . S
U166 C169 2.984 . S
U166 C170 2.847 . S
U166 C183 2.882 . S
U166 O184 2.441 . S
U166 O185 2.420 . S
U166 O186 2.455 . S
U166 O187 2.449 . S
O167 U166 2.454 . S
O167 C169 1.353 . S
O168 U166 2.458 . S
O168 C169 1.286 . S
C169 U166 2.984 . S
C169 O167 1.353 . S
C169 O168 1.286 . S
C169 C171 1.363 . S
C170 C160 1.465 . S
C170 U166 2.847 . S
C170 O184 1.249 . S
C170 O185 1.202 . S
C171 C169 1.363 . S
C171 C173 1.408 . S
C171 C176 1.342 . S
C172 C173 1.310 . S
C172 C175 1.461 . S
C172 H192 0.932 . S
C173 C171 1.408 . S
C173 C172 1.310 . S
C173 H193 0.930 . S
C174 C175 1.474 . S
C174 C176 1.285 . S
C174 H194 0.929 . S
C175 C172 1.461 . S
C175 C174 1.474 . S
C176 C171 1.342 . S
C176 C174 1.285 . S
C176 H195 0.930 . S
C177 C180 1.424 . S
C177 C182 1.245 . S
C177 C183 1.428 . S
C178 C181 1.260 . S
C178 C182 1.477 . S
C178 H196 0.932 . S
C179 C180 1.384 . S
C179 C181 1.479 . S
C179 H197 0.929 . S
C180 C177 1.424 . S
C180 C179 1.384 . S
C180 H198 0.928 . S
C181 C178 1.260 . S
C181 C179 1.479 . S
C182 C177 1.245 . S
C182 C178 1.477 . S
C182 H199 0.932 . S
C183 U166 2.882 . S
C183 C177 1.428 . S
C183 O186 1.301 . S
C183 O187 1.282 . S
O184 U166 2.441 . S
O184 C170 1.249 . S
O185 U166 2.420 . S
O185 C170 1.202 . S
O186 U166 2.455 . S
O186 C183 1.301 . S
O187 U166 2.449 . S
O187 C183 1.282 . S
H188 C161 0.931 . S
H189 C163 0.929 . S
H190 C164 0.930 . S
H191 C165 0.931 . S
H192 C172 0.932 . S
H193 C173 0.930 . S
H194 C174 0.929 . S
H195 C176 0.930 . S
H196 C178 0.932 . S
H197 C179 0.929 . S
H198 C180 0.928 . S
H199 C182 0.932 . S
C200 C201 1.264 . S
C200 C205 1.479 . S
C200 C210 1.465 . S
C201 C200 1.264 . S
C201 C203 1.339 . S
C201 H228 0.931 . S
C202 C203 1.395 . S
C202 C204 1.320 . S
C203 C201 1.339 . S
C203 C202 1.395 . S
C203 H229 0.929 . S
C204 C202 1.320 . S
C204 C205 1.405 . S
C204 H230 0.930 . S
C205 C200 1.479 . S
C205 C204 1.405 . S
C205 H231 0.931 . S
U206 O207 2.454 . S
U206 O208 2.458 . S
U206 C209 2.984 . S
U206 C210 2.847 . S
U206 C223 2.882 . S
U206 O224 2.441 . S
U206 O225 2.420 . S
U206 O226 2.455 . S
U206 O227 2.449 . S
O207 U206 2.454 . S
O207 C209 1.353 . S
O208 U206 2.458 . S
O208 C209 1.286 . S
C209 U206 2.984 . S
C209 O207 1.353 . S
C209 O208 1.286 . S
C209 C211 1.363 . S
C210 C200 1.465 . S
C210 U206 2.847 . S
C210 O224 1.249 . S
C210 O225 1.202 . S
C211 C209 1.363 . S
C211 C213 1.408 . S
C211 C216 1.342 . S
C212 C213 1.310 . S
C212 C215 1.461 . S
C212 H232 0.932 . S
C213 C211 1.408 . S
C213 C212 1.310 . S
C213 H233 0.930 . S
C214 C215 1.474 . S
C214 C216 1.285 . S
C214 H234 0.929 . S
C215 C212 1.461 . S
C215 C214 1.474 . S
C216 C211 1.342 . S
C216 C214 1.285 . S
C216 H235 0.930 . S
C217 C220 1.424 . S
C217 C222 1.245 . S
C217 C223 1.428 . S
C218 C221 1.260 . S
C218 C222 1.477 . S
C218 H236 0.932 . S
C219 C220 1.384 . S
C219 C221 1.479 . S
C219 H237 0.929 . S
C220 C217 1.424 . S
C220 C219 1.384 . S
C220 H238 0.928 . S
C221 C218 1.260 . S
C221 C219 1.479 . S
C222 C217 1.245 . S
C222 C218 1.477 . S
C222 H239 0.932 . S
C223 U206 2.882 . S
C223 C217 1.428 . S
C223 O226 1.301 . S
C223 O227 1.282 . S
O224 U206 2.441 . S
O224 C210 1.249 . S
O225 U206 2.420 . S
O225 C210 1.202 . S
O226 U206 2.455 . S
O226 C223 1.301 . S
O227 U206 2.449 . S
O227 C223 1.282 . S
H228 C201 0.931 . S
H229 C203 0.929 . S
H230 C204 0.930 . S
H231 C205 0.931 . S
H232 C212 0.932 . S
H233 C213 0.930 . S
H234 C214 0.929 . S
H235 C216 0.930 . S
H236 C218 0.932 . S
H237 C219 0.929 . S
H238 C220 0.928 . S
H239 C222 0.932 . S
C240 C241 1.264 . S
C240 C245 1.479 . S
C240 C250 1.465 . S
C241 C240 1.264 . S
C241 C243 1.339 . S
C241 H268 0.931 . S
C242 C243 1.395 . S
C242 C244 1.320 . S
C243 C241 1.339 . S
C243 C242 1.395 . S
C243 H269 0.929 . S
C244 C242 1.320 . S
C244 C245 1.405 . S
C244 H270 0.930 . S
C245 C240 1.479 . S
C245 C244 1.405 . S
C245 H271 0.931 . S
U246 O247 2.454 . S
U246 O248 2.458 . S
U246 C249 2.984 . S
U246 C250 2.847 . S
U246 C263 2.882 . S
U246 O264 2.441 . S
U246 O265 2.420 . S
U246 O266 2.455 . S
U246 O267 2.449 . S
O247 U246 2.454 . S
O247 C249 1.353 . S
O248 U246 2.458 . S
O248 C249 1.286 . S
C249 U246 2.984 . S
C249 O247 1.353 . S
C249 O248 1.286 . S
C249 C251 1.363 . S
C250 C240 1.465 . S
C250 U246 2.847 . S
C250 O264 1.249 . S
C250 O265 1.202 . S
C251 C249 1.363 . S
C251 C253 1.408 . S
C251 C256 1.342 . S
C252 C253 1.310 . S
C252 C255 1.461 . S
C252 H272 0.932 . S
C253 C251 1.408 . S
C253 C252 1.310 . S
C253 H273 0.930 . S
C254 C255 1.474 . S
C254 C256 1.285 . S
C254 H274 0.929 . S
C255 C252 1.461 . S
C255 C254 1.474 . S
C256 C251 1.342 . S
C256 C254 1.285 . S
C256 H275 0.930 . S
C257 C260 1.424 . S
C257 C262 1.245 . S
C257 C263 1.428 . S
C258 C261 1.260 . S
C258 C262 1.477 . S
C258 H276 0.932 . S
C259 C260 1.384 . S
C259 C261 1.479 . S
C259 H277 0.929 . S
C260 C257 1.424 . S
C260 C259 1.384 . S
C260 H278 0.928 . S
C261 C258 1.260 . S
C261 C259 1.479 . S
C262 C257 1.245 . S
C262 C258 1.477 . S
C262 H279 0.932 . S
C263 U246 2.882 . S
C263 C257 1.428 . S
C263 O266 1.301 . S
C263 O267 1.282 . S
O264 U246 2.441 . S
O264 C250 1.249 . S
O265 U246 2.420 . S
O265 C250 1.202 . S
O266 U246 2.455 . S
O266 C263 1.301 . S
O267 U246 2.449 . S
O267 C263 1.282 . S
H268 C241 0.931 . S
H269 C243 0.929 . S
H270 C244 0.930 . S
H271 C245 0.931 . S
H272 C252 0.932 . S
H273 C253 0.930 . S
H274 C254 0.929 . S
H275 C256 0.930 . S
H276 C258 0.932 . S
H277 C259 0.929 . S
H278 C260 0.928 . S
H279 C262 0.932 . S
C280 C281 1.264 . S
C280 C285 1.479 . S
C280 C290 1.465 . S
C281 C280 1.264 . S
C281 C283 1.339 . S
C281 H308 0.931 . S
C282 C283 1.395 . S
C282 C284 1.320 . S
C283 C281 1.339 . S
C283 C282 1.395 . S
C283 H309 0.929 . S
C284 C282 1.320 . S
C284 C285 1.405 . S
C284 H310 0.930 . S
C285 C280 1.479 . S
C285 C284 1.405 . S
C285 H311 0.931 . S
U286 O287 2.454 . S
U286 O288 2.458 . S
U286 C289 2.984 . S
U286 C290 2.847 . S
U286 C303 2.882 . S
U286 O304 2.441 . S
U286 O305 2.420 . S
U286 O306 2.455 . S
U286 O307 2.449 . S
O287 U286 2.454 . S
O287 C289 1.353 . S
O288 U286 2.458 . S
O288 C289 1.286 . S
C289 U286 2.984 . S
C289 O287 1.353 . S
C289 O288 1.286 . S
C289 C291 1.363 . S
C290 C280 1.465 . S
C290 U286 2.847 . S
C290 O304 1.249 . S
C290 O305 1.202 . S
C291 C289 1.363 . S
C291 C293 1.408 . S
C291 C296 1.342 . S
C292 C293 1.310 . S
C292 C295 1.461 . S
C292 H312 0.932 . S
C293 C291 1.408 . S
C293 C292 1.310 . S
C293 H313 0.930 . S
C294 C295 1.474 . S
C294 C296 1.285 . S
C294 H314 0.929 . S
C295 C292 1.461 . S
C295 C294 1.474 . S
C296 C291 1.342 . S
C296 C294 1.285 . S
C296 H315 0.930 . S
C297 C300 1.424 . S
C297 C302 1.245 . S
C297 C303 1.428 . S
C298 C301 1.260 . S
C298 C302 1.477 . S
C298 H316 0.932 . S
C299 C300 1.384 . S
C299 C301 1.479 . S
C299 H317 0.929 . S
C300 C297 1.424 . S
C300 C299 1.384 . S
C300 H318 0.928 . S
C301 C298 1.260 . S
C301 C299 1.479 . S
C302 C297 1.245 . S
C302 C298 1.477 . S
C302 H319 0.932 . S
C303 U286 2.882 . S
C303 C297 1.428 . S
C303 O306 1.301 . S
C303 O307 1.282 . S
O304 U286 2.441 . S
O304 C290 1.249 . S
O305 U286 2.420 . S
O305 C290 1.202 . S
O306 U286 2.455 . S
O306 C303 1.301 . S
O307 U286 2.449 . S
O307 C303 1.282 . S
H308 C281 0.931 . S
H309 C283 0.929 . S
H310 C284 0.930 . S
H311 C285 0.931 . S
H312 C292 0.932 . S
H313 C293 0.930 . S
H314 C294 0.929 . S
H315 C296 0.930 . S
H316 C298 0.932 . S
H317 C299 0.929 . S
H318 C300 0.928 . S
H319 C302 0.932 . S
C320 C321 1.264 . S
C320 C325 1.479 . S
C320 C330 1.465 . S
C321 C320 1.264 . S
C321 C323 1.339 . S
C321 H348 0.931 . S
C322 C323 1.395 . S
C322 C324 1.320 . S
C323 C321 1.339 . S
C323 C322 1.395 . S
C323 H349 0.929 . S
C324 C322 1.320 . S
C324 C325 1.405 . S
C324 H350 0.930 . S
C325 C320 1.479 . S
C325 C324 1.405 . S
C325 H351 0.931 . S
U326 O327 2.454 . S
U326 O328 2.458 . S
U326 C329 2.984 . S
U326 C330 2.847 . S
U326 C343 2.882 . S
U326 O344 2.441 . S
U326 O345 2.420 . S
U326 O346 2.455 . S
U326 O347 2.449 . S
O327 U326 2.454 . S
O327 C329 1.353 . S
O328 U326 2.458 . S
O328 C329 1.286 . S
C329 U326 2.984 . S
C329 O327 1.353 . S
C329 O328 1.286 . S
C329 C331 1.363 . S
C330 C320 1.465 . S
C330 U326 2.847 . S
C330 O344 1.249 . S
C330 O345 1.202 . S
C331 C329 1.363 . S
C331 C333 1.408 . S
C331 C336 1.342 . S
C332 C333 1.310 . S
C332 C335 1.461 . S
C332 H352 0.932 . S
C333 C331 1.408 . S
C333 C332 1.310 . S
C333 H353 0.930 . S
C334 C335 1.474 . S
C334 C336 1.285 . S
C334 H354 0.929 . S
C335 C332 1.461 . S
C335 C334 1.474 . S
C336 C331 1.342 . S
C336 C334 1.285 . S
C336 H355 0.930 . S
C337 C340 1.424 . S
C337 C342 1.245 . S
C337 C343 1.428 . S
C338 C341 1.260 . S
C338 C342 1.477 . S
C338 H356 0.932 . S
C339 C340 1.384 . S
C339 C341 1.479 . S
C339 H357 0.929 . S
C340 C337 1.424 . S
C340 C339 1.384 . S
C340 H358 0.928 . S
C341 C338 1.260 . S
C341 C339 1.479 . S
C342 C337 1.245 . S
C342 C338 1.477 . S
C342 H359 0.932 . S
C343 U326 2.882 . S
C343 C337 1.428 . S
C343 O346 1.301 . S
C343 O347 1.282 . S
O344 U326 2.441 . S
O344 C330 1.249 . S
O345 U326 2.420 . S
O345 C330 1.202 . S
O346 U326 2.455 . S
O346 C343 1.301 . S
O347 U326 2.449 . S
O347 C343 1.282 . S
H348 C321 0.931 . S
H349 C323 0.929 . S
H350 C324 0.930 . S
H351 C325 0.931 . S
H352 C332 0.932 . S
H353 C333 0.930 . S
H354 C334 0.929 . S
H355 C336 0.930 . S
H356 C338 0.932 . S
H357 C339 0.929 . S
H358 C340 0.928 . S
H359 C342 0.932 . S
C360 C361 1.264 . S
C360 C365 1.479 . S
C360 C370 1.465 . S
C361 C360 1.264 . S
C361 C363 1.339 . S
C361 H388 0.931 . S
C362 C363 1.395 . S
C362 C364 1.320 . S
C363 C361 1.339 . S
C363 C362 1.395 . S
C363 H389 0.929 . S
C364 C362 1.320 . S
C364 C365 1.405 . S
C364 H390 0.930 . S
C365 C360 1.479 . S
C365 C364 1.405 . S
C365 H391 0.931 . S
U366 O367 2.454 . S
U366 O368 2.458 . S
U366 C369 2.984 . S
U366 C370 2.847 . S
U366 C383 2.882 . S
U366 O384 2.441 . S
U366 O385 2.420 . S
U366 O386 2.455 . S
U366 O387 2.449 . S
O367 U366 2.454 . S
O367 C369 1.353 . S
O368 U366 2.458 . S
O368 C369 1.286 . S
C369 U366 2.984 . S
C369 O367 1.353 . S
C369 O368 1.286 . S
C369 C371 1.363 . S
C370 C360 1.465 . S
C370 U366 2.847 . S
C370 O384 1.249 . S
C370 O385 1.202 . S
C371 C369 1.363 . S
C371 C373 1.408 . S
C371 C376 1.342 . S
C372 C373 1.310 . S
C372 C375 1.461 . S
C372 H392 0.932 . S
C373 C371 1.408 . S
C373 C372 1.310 . S
C373 H393 0.930 . S
C374 C375 1.474 . S
C374 C376 1.285 . S
C374 H394 0.929 . S
C375 C372 1.461 . S
C375 C374 1.474 . S
C376 C371 1.342 . S
C376 C374 1.285 . S
C376 H395 0.930 . S
C377 C380 1.424 . S
C377 C382 1.245 . S
C377 C383 1.428 . S
C378 C381 1.260 . S
C378 C382 1.477 . S
C378 H396 0.932 . S
C379 C380 1.384 . S
C379 C381 1.479 . S
C379 H397 0.929 . S
C380 C377 1.424 . S
C380 C379 1.384 . S
C380 H398 0.928 . S
C381 C378 1.260 . S
C381 C379 1.479 . S
C382 C377 1.245 . S
C382 C378 1.477 . S
C382 H399 0.932 . S
C383 U366 2.882 . S
C383 C377 1.428 . S
C383 O386 1.301 . S
C383 O387 1.282 . S
O384 U366 2.441 . S
O384 C370 1.249 . S
O385 U366 2.420 . S
O385 C370 1.202 . S
O386 U366 2.455 . S
O386 C383 1.301 . S
O387 U366 2.449 . S
O387 C383 1.282 . S
H388 C361 0.931 . S
H389 C363 0.929 . S
H390 C364 0.930 . S
H391 C365 0.931 . S
H392 C372 0.932 . S
H393 C373 0.930 . S
H394 C374 0.929 . S
H395 C376 0.930 . S
H396 C378 0.932 . S
H397 C379 0.929 . S
H398 C380 0.928 . S
H399 C382 0.932 . S
C400 C401 1.264 . S
C400 C405 1.479 . S
C400 C410 1.465 . S
C401 C400 1.264 . S
C401 C403 1.339 . S
C401 H428 0.931 . S
C402 C403 1.395 . S
C402 C404 1.320 . S
C403 C401 1.339 . S
C403 C402 1.395 . S
C403 H429 0.929 . S
C404 C402 1.320 . S
C404 C405 1.405 . S
C404 H430 0.930 . S
C405 C400 1.479 . S
C405 C404 1.405 . S
C405 H431 0.931 . S
U406 O407 2.454 . S
U406 O408 2.458 . S
U406 C409 2.984 . S
U406 C410 2.847 . S
U406 C423 2.882 . S
U406 O424 2.441 . S
U406 O425 2.420 . S
U406 O426 2.455 . S
U406 O427 2.449 . S
O407 U406 2.454 . S
O407 C409 1.353 . S
O408 U406 2.458 . S
O408 C409 1.286 . S
C409 U406 2.984 . S
C409 O407 1.353 . S
C409 O408 1.286 . S
C409 C411 1.363 . S
C410 C400 1.465 . S
C410 U406 2.847 . S
C410 O424 1.249 . S
C410 O425 1.202 . S
C411 C409 1.363 . S
C411 C413 1.408 . S
C411 C416 1.342 . S
C412 C413 1.310 . S
C412 C415 1.461 . S
C412 H432 0.932 . S
C413 C411 1.408 . S
C413 C412 1.310 . S
C413 H433 0.930 . S
C414 C415 1.474 . S
C414 C416 1.285 . S
C414 H434 0.929 . S
C415 C412 1.461 . S
C415 C414 1.474 . S
C416 C411 1.342 . S
C416 C414 1.285 . S
C416 H435 0.930 . S
C417 C420 1.424 . S
C417 C422 1.245 . S
C417 C423 1.428 . S
C418 C421 1.260 . S
C418 C422 1.477 . S
C418 H436 0.932 . S
C419 C420 1.384 . S
C419 C421 1.479 . S
C419 H437 0.929 . S
C420 C417 1.424 . S
C420 C419 1.384 . S
C420 H438 0.928 . S
C421 C418 1.260 . S
C421 C419 1.479 . S
C422 C417 1.245 . S
C422 C418 1.477 . S
C422 H439 0.932 . S
C423 U406 2.882 . S
C423 C417 1.428 . S
C423 O426 1.301 . S
C423 O427 1.282 . S
O424 U406 2.441 . S
O424 C410 1.249 . S
O425 U406 2.420 . S
O425 C410 1.202 . S
O426 U406 2.455 . S
O426 C423 1.301 . S
O427 U406 2.449 . S
O427 C423 1.282 . S
H428 C401 0.931 . S
H429 C403 0.929 . S
H430 C404 0.930 . S
H431 C405 0.931 . S
H432 C412 0.932 . S
H433 C413 0.930 . S
H434 C414 0.929 . S
H435 C416 0.930 . S
H436 C418 0.932 . S
H437 C419 0.929 . S
H438 C420 0.928 . S
H439 C422 0.932 . S
C440 C441 1.264 . S
C440 C445 1.479 . S
C440 C450 1.465 . S
C441 C440 1.264 . S
C441 C443 1.339 . S
C441 H468 0.931 . S
C442 C443 1.395 . S
C442 C444 1.320 . S
C443 C441 1.339 . S
C443 C442 1.395 . S
C443 H469 0.929 . S
C444 C442 1.320 . S
C444 C445 1.405 . S
C444 H470 0.930 . S
C445 C440 1.479 . S
C445 C444 1.405 . S
C445 H471 0.931 . S
U446 O447 2.454 . S
U446 O448 2.458 . S
U446 C449 2.984 . S
U446 C450 2.847 . S
U446 C463 2.882 . S
U446 O464 2.441 . S
U446 O465 2.420 . S
U446 O466 2.455 . S
U446 O467 2.449 . S
O447 U446 2.454 . S
O447 C449 1.353 . S
O448 U446 2.458 . S
O448 C449 1.286 . S
C449 U446 2.984 . S
C449 O447 1.353 . S
C449 O448 1.286 . S
C449 C451 1.363 . S
C450 C440 1.465 . S
C450 U446 2.847 . S
C450 O464 1.249 . S
C450 O465 1.202 . S
C451 C449 1.363 . S
C451 C453 1.408 . S
C451 C456 1.342 . S
C452 C453 1.310 . S
C452 C455 1.461 . S
C452 H472 0.932 . S
C453 C451 1.408 . S
C453 C452 1.310 . S
C453 H473 0.930 . S
C454 C455 1.474 . S
C454 C456 1.285 . S
C454 H474 0.929 . S
C455 C452 1.461 . S
C455 C454 1.474 . S
C456 C451 1.342 . S
C456 C454 1.285 . S
C456 H475 0.930 . S
C457 C460 1.424 . S
C457 C462 1.245 . S
C457 C463 1.428 . S
C458 C461 1.260 . S
C458 C462 1.477 . S
C458 H476 0.932 . S
C459 C460 1.384 . S
C459 C461 1.479 . S
C459 H477 0.929 . S
C460 C457 1.424 . S
C460 C459 1.384 . S
C460 H478 0.928 . S
C461 C458 1.260 . S
C461 C459 1.479 . S
C462 C457 1.245 . S
C462 C458 1.477 . S
C462 H479 0.932 . S
C463 U446 2.882 . S
C463 C457 1.428 . S
C463 O466 1.301 . S
C463 O467 1.282 . S
O464 U446 2.441 . S
O464 C450 1.249 . S
O465 U446 2.420 . S
O465 C450 1.202 . S
O466 U446 2.455 . S
O466 C463 1.301 . S
O467 U446 2.449 . S
O467 C463 1.282 . S
H468 C441 0.931 . S
H469 C443 0.929 . S
H470 C444 0.930 . S
H471 C445 0.931 . S
H472 C452 0.932 . S
H473 C453 0.930 . S
H474 C454 0.929 . S
H475 C456 0.930 . S
H476 C458 0.932 . S
H477 C459 0.929 . S
H478 C460 0.928 . S
H479 C462 0.932 . S
C480 C481 1.264 . S
C480 C485 1.479 . S
C480 C490 1.465 . S
C481 C480 1.264 . S
C481 C483 1.339 . S
C481 H508 0.931 . S
C482 C483 1.395 . S
C482 C484 1.320 . S
C483 C481 1.339 . S
C483 C482 1.395 . S
C483 H509 0.929 . S
C484 C482 1.320 . S
C484 C485 1.405 . S
C484 H510 0.930 . S
C485 C480 1.479 . S
C485 C484 1.405 . S
C485 H511 0.931 . S
U486 O487 2.454 . S
U486 O488 2.458 . S
U486 C489 2.984 . S
U486 C490 2.847 . S
U486 C503 2.882 . S
U486 O504 2.441 . S
U486 O505 2.420 . S
U486 O506 2.455 . S
U486 O507 2.449 . S
O487 U486 2.454 . S
O487 C489 1.353 . S
O488 U486 2.458 . S
O488 C489 1.286 . S
C489 U486 2.984 . S
C489 O487 1.353 . S
C489 O488 1.286 . S
C489 C491 1.363 . S
C490 C480 1.465 . S
C490 U486 2.847 . S
C490 O504 1.249 . S
C490 O505 1.202 . S
C491 C489 1.363 . S
C491 C493 1.408 . S
C491 C496 1.342 . S
C492 C493 1.310 . S
C492 C495 1.461 . S
C492 H512 0.932 . S
C493 C491 1.408 . S
C493 C492 1.310 . S
C493 H513 0.930 . S
C494 C495 1.474 . S
C494 C496 1.285 . S
C494 H514 0.929 . S
C495 C492 1.461 . S
C495 C494 1.474 . S
C496 C491 1.342 . S
C496 C494 1.285 . S
C496 H515 0.930 . S
C497 C500 1.424 . S
C497 C502 1.245 . S
C497 C503 1.428 . S
C498 C501 1.260 . S
C498 C502 1.477 . S
C498 H516 0.932 . S
C499 C500 1.384 . S
C499 C501 1.479 . S
C499 H517 0.929 . S
C500 C497 1.424 . S
C500 C499 1.384 . S
C500 H518 0.928 . S
C501 C498 1.260 . S
C501 C499 1.479 . S
C502 C497 1.245 . S
C502 C498 1.477 . S
C502 H519 0.932 . S
C503 U486 2.882 . S
C503 C497 1.428 . S
C503 O506 1.301 . S
C503 O507 1.282 . S
O504 U486 2.441 . S
O504 C490 1.249 . S
O505 U486 2.420 . S
O505 C490 1.202 . S
O506 U486 2.455 . S
O506 C503 1.301 . S
O507 U486 2.449 . S
O507 C503 1.282 . S
H508 C481 0.931 . S
H509 C483 0.929 . S
H510 C484 0.930 . S
H511 C485 0.931 . S
H512 C492 0.932 . S
H513 C493 0.930 . S
H514 C494 0.929 . S
H515 C496 0.930 . S
H516 C498 0.932 . S
H517 C499 0.929 . S
H518 C500 0.928 . S
H519 C502 0.932 . S
C520 C521 1.264 . S
C520 C525 1.479 . S
C520 C530 1.465 . S
C521 C520 1.264 . S
C521 C523 1.339 . S
C521 H548 0.931 . S
C522 C523 1.395 . S
C522 C524 1.320 . S
C523 C521 1.339 . S
C523 C522 1.395 . S
C523 H549 0.929 . S
C524 C522 1.320 . S
C524 C525 1.405 . S
C524 H550 0.930 . S
C525 C520 1.479 . S
C525 C524 1.405 . S
C525 H551 0.931 . S
U526 O527 2.454 . S
U526 O528 2.458 . S
U526 C529 2.984 . S
U526 C530 2.847 . S
U526 C543 2.882 . S
U526 O544 2.441 . S
U526 O545 2.420 . S
U526 O546 2.455 . S
U526 O547 2.449 . S
O527 U526 2.454 . S
O527 C529 1.353 . S
O528 U526 2.458 . S
O528 C529 1.286 . S
C529 U526 2.984 . S
C529 O527 1.353 . S
C529 O528 1.286 . S
C529 C531 1.363 . S
C530 C520 1.465 . S
C530 U526 2.847 . S
C530 O544 1.249 . S
C530 O545 1.202 . S
C531 C529 1.363 . S
C531 C533 1.408 . S
C531 C536 1.342 . S
C532 C533 1.310 . S
C532 C535 1.461 . S
C532 H552 0.932 . S
C533 C531 1.408 . S
C533 C532 1.310 . S
C533 H553 0.930 . S
C534 C535 1.474 . S
C534 C536 1.285 . S
C534 H554 0.929 . S
C535 C532 1.461 . S
C535 C534 1.474 . S
C536 C531 1.342 . S
C536 C534 1.285 . S
C536 H555 0.930 . S
C537 C540 1.424 . S
C537 C542 1.245 . S
C537 C543 1.428 . S
C538 C541 1.260 . S
C538 C542 1.477 . S
C538 H556 0.932 . S
C539 C540 1.384 . S
C539 C541 1.479 . S
C539 H557 0.929 . S
C540 C537 1.424 . S
C540 C539 1.384 . S
C540 H558 0.928 . S
C541 C538 1.260 . S
C541 C539 1.479 . S
C542 C537 1.245 . S
C542 C538 1.477 . S
C542 H559 0.932 . S
C543 U526 2.882 . S
C543 C537 1.428 . S
C543 O546 1.301 . S
C543 O547 1.282 . S
O544 U526 2.441 . S
O544 C530 1.249 . S
O545 U526 2.420 . S
O545 C530 1.202 . S
O546 U526 2.455 . S
O546 C543 1.301 . S
O547 U526 2.449 . S
O547 C543 1.282 . S
H548 C521 0.931 . S
H549 C523 0.929 . S
H550 C524 0.930 . S
H551 C525 0.931 . S
H552 C532 0.932 . S
H553 C533 0.930 . S
H554 C534 0.929 . S
H555 C536 0.930 . S
H556 C538 0.932 . S
H557 C539 0.929 . S
H558 C540 0.928 . S
H559 C542 0.932 . S
C560 C561 1.264 . S
C560 C565 1.479 . S
C560 C570 1.465 . S
C561 C560 1.264 . S
C561 C563 1.339 . S
C561 H588 0.931 . S
C562 C563 1.395 . S
C562 C564 1.320 . S
C563 C561 1.339 . S
C563 C562 1.395 . S
C563 H589 0.929 . S
C564 C562 1.320 . S
C564 C565 1.405 . S
C564 H590 0.930 . S
C565 C560 1.479 . S
C565 C564 1.405 . S
C565 H591 0.931 . S
U566 O567 2.454 . S
U566 O568 2.458 . S
U566 C569 2.984 . S
U566 C570 2.847 . S
U566 C583 2.882 . S
U566 O584 2.441 . S
U566 O585 2.420 . S
U566 O586 2.455 . S
U566 O587 2.449 . S
O567 U566 2.454 . S
O567 C569 1.353 . S
O568 U566 2.458 . S
O568 C569 1.286 . S
C569 U566 2.984 . S
C569 O567 1.353 . S
C569 O568 1.286 . S
C569 C571 1.363 . S
C570 C560 1.465 . S
C570 U566 2.847 . S
C570 O584 1.249 . S
C570 O585 1.202 . S
C571 C569 1.363 . S
C571 C573 1.408 . S
C571 C576 1.342 . S
C572 C573 1.310 . S
C572 C575 1.461 . S
C572 H592 0.932 . S
C573 C571 1.408 . S
C573 C572 1.310 . S
C573 H593 0.930 . S
C574 C575 1.474 . S
C574 C576 1.285 . S
C574 H594 0.929 . S
C575 C572 1.461 . S
C575 C574 1.474 . S
C576 C571 1.342 . S
C576 C574 1.285 . S
C576 H595 0.930 . S
C577 C580 1.424 . S
C577 C582 1.245 . S
C577 C583 1.428 . S
C578 C581 1.260 . S
C578 C582 1.477 . S
C578 H596 0.932 . S
C579 C580 1.384 . S
C579 C581 1.479 . S
C579 H597 0.929 . S
C580 C577 1.424 . S
C580 C579 1.384 . S
C580 H598 0.928 . S
C581 C578 1.260 . S
C581 C579 1.479 . S
C582 C577 1.245 . S
C582 C578 1.477 . S
C582 H599 0.932 . S
C583 U566 2.882 . S
C583 C577 1.428 . S
C583 O586 1.301 . S
C583 O587 1.282 . S
O584 U566 2.441 . S
O584 C570 1.249 . S
O585 U566 2.420 . S
O585 C570 1.202 . S
O586 U566 2.455 . S
O586 C583 1.301 . S
O587 U566 2.449 . S
O587 C583 1.282 . S
H588 C561 0.931 . S
H589 C563 0.929 . S
H590 C564 0.930 . S
H591 C565 0.931 . S
H592 C572 0.932 . S
H593 C573 0.930 . S
H594 C574 0.929 . S
H595 C576 0.930 . S
H596 C578 0.932 . S
H597 C579 0.929 . S
H598 C580 0.928 . S
H599 C582 0.932 . S
C600 C601 1.264 . S
C600 C605 1.479 . S
C600 C610 1.465 . S
C601 C600 1.264 . S
C601 C603 1.339 . S
C601 H628 0.931 . S
C602 C603 1.395 . S
C602 C604 1.320 . S
C603 C601 1.339 . S
C603 C602 1.395 . S
C603 H629 0.929 . S
C604 C602 1.320 . S
C604 C605 1.405 . S
C604 H630 0.930 . S
C605 C600 1.479 . S
C605 C604 1.405 . S
C605 H631 0.931 . S
U606 O607 2.454 . S
U606 O608 2.458 . S
U606 C609 2.984 . S
U606 C610 2.847 . S
U606 C623 2.882 . S
U606 O624 2.441 . S
U606 O625 2.420 . S
U606 O626 2.455 . S
U606 O627 2.449 . S
O607 U606 2.454 . S
O607 C609 1.353 . S
O608 U606 2.458 . S
O608 C609 1.286 . S
C609 U606 2.984 . S
C609 O607 1.353 . S
C609 O608 1.286 . S
C609 C611 1.363 . S
C610 C600 1.465 . S
C610 U606 2.847 . S
C610 O624 1.249 . S
C610 O625 1.202 . S
C611 C609 1.363 . S
C611 C613 1.408 . S
C611 C616 1.342 . S
C612 C613 1.310 . S
C612 C615 1.461 . S
C612 H632 0.932 . S
C613 C611 1.408 . S
C613 C612 1.310 . S
C613 H633 0.930 . S
C614 C615 1.474 . S
C614 C616 1.285 . S
C614 H634 0.929 . S
C615 C612 1.461 . S
C615 C614 1.474 . S
C616 C611 1.342 . S
C616 C614 1.285 . S
C616 H635 0.930 . S
C617 C620 1.424 . S
C617 C622 1.245 . S
C617 C623 1.428 . S
C618 C621 1.260 . S
C618 C622 1.477 . S
C618 H636 0.932 . S
C619 C620 1.384 . S
C619 C621 1.479 . S
C619 H637 0.929 . S
C620 C617 1.424 . S
C620 C619 1.384 . S
C620 H638 0.928 . S
C621 C618 1.260 . S
C621 C619 1.479 . S
C622 C617 1.245 . S
C622 C618 1.477 . S
C622 H639 0.932 . S
C623 U606 2.882 . S
C623 C617 1.428 . S
C623 O626 1.301 . S
C623 O627 1.282 . S
O624 U606 2.441 . S
O624 C610 1.249 . S
O625 U606 2.420 . S
O625 C610 1.202 . S
O626 U606 2.455 . S
O626 C623 1.301 . S
O627 U606 2.449 . S
O627 C623 1.282 . S
H628 C601 0.931 . S
H629 C603 0.929 . S
H630 C604 0.930 . S
H631 C605 0.931 . S
H632 C612 0.932 . S
H633 C613 0.930 . S
H634 C614 0.929 . S
H635 C616 0.930 . S
H636 C618 0.932 . S
H637 C619 0.929 . S
H638 C620 0.928 . S
H639 C622 0.932 . S
H640 C648 0.929 . S
H641 C650 0.930 . S
H642 C652 0.930 . S
H643 C655 0.929 . S
H644 C658 0.930 . S
H645 C660 0.960 . S
H646 C660 0.960 . S
H647 C660 0.960 . S
C648 H640 0.929 . S
C648 C649 1.377 . S
C648 C650 1.384 . S
C649 C648 1.377 . S
C649 C655 1.390 . S
C650 H641 0.930 . S
C650 C648 1.384 . S
C650 C651 1.372 . S
C651 C650 1.372 . S
C651 C652 1.400 . S
C651 C656 1.490 . S
C652 H642 0.930 . S
C652 C651 1.400 . S
C652 C655 1.386 . S
H653 C669 0.930 . S
H654 C670 0.931 . S
C655 H643 0.929 . S
C655 C649 1.390 . S
C655 C652 1.386 . S
C656 C651 1.490 . S
C656 C658 1.395 . S
C656 C659 1.403 . S
H657 C663 0.930 . S
C658 H644 0.930 . S
C658 C656 1.395 . S
C658 C661 1.403 . S
C659 C656 1.403 . S
C659 C660 1.524 . S
C659 C663 1.400 . S
C660 H645 0.960 . S
C660 H646 0.960 . S
C660 H647 0.960 . S
C660 C659 1.524 . S
C661 C658 1.403 . S
C661 C662 1.392 . S
C661 C665 1.495 . S
C662 C661 1.392 . S
C662 C663 1.385 . S
C662 C664 1.478 . S
C663 H657 0.930 . S
C663 C659 1.400 . S
C663 C662 1.385 . S
C664 C662 1.478 . S
C664 C666 1.381 . S
C664 C670 1.383 . S
C665 C661 1.495 . S
C665 H671 0.959 . S
C665 H672 0.961 . S
C665 H673 0.960 . S
C666 C664 1.381 . S
C666 C667 1.394 . S
C666 H674 0.930 . S
C667 C666 1.394 . S
C667 C668 1.383 . S
C667 H675 0.929 . S
C668 C667 1.383 . S
C668 C669 1.377 . S
C669 H653 0.930 . S
C669 C668 1.377 . S
C669 C670 1.379 . S
C670 H654 0.931 . S
C670 C664 1.383 . S
C670 C669 1.379 . S
H671 C665 0.959 . S
H672 C665 0.961 . S
H673 C665 0.960 . S
H674 C666 0.930 . S
H675 C667 0.929 . S
H676 C684 0.929 . S
H677 C686 0.930 . S
H678 C688 0.930 . S
H679 C691 0.929 . S
H680 C694 0.930 . S
H681 C696 0.960 . S
H682 C696 0.960 . S
H683 C696 0.960 . S
C684 H676 0.929 . S
C684 C685 1.377 . S
C684 C686 1.384 . S
C685 C684 1.377 . S
C685 C691 1.390 . S
C686 H677 0.930 . S
C686 C684 1.384 . S
C686 C687 1.372 . S
C687 C686 1.372 . S
C687 C688 1.400 . S
C687 C692 1.490 . S
C688 H678 0.930 . S
C688 C687 1.400 . S
C688 C691 1.386 . S
H689 C705 0.930 . S
H690 C706 0.931 . S
C691 H679 0.929 . S
C691 C685 1.390 . S
C691 C688 1.386 . S
C692 C687 1.490 . S
C692 C694 1.395 . S
C692 C695 1.403 . S
H693 C699 0.930 . S
C694 H680 0.930 . S
C694 C692 1.395 . S
C694 C697 1.403 . S
C695 C692 1.403 . S
C695 C696 1.524 . S
C695 C699 1.400 . S
C696 H681 0.960 . S
C696 H682 0.960 . S
C696 H683 0.960 . S
C696 C695 1.524 . S
C697 C694 1.403 . S
C697 C698 1.392 . S
C697 C701 1.495 . S
C698 C697 1.392 . S
C698 C699 1.385 . S
C698 C700 1.478 . S
C699 H693 0.930 . S
C699 C695 1.400 . S
C699 C698 1.385 . S
C700 C698 1.478 . S
C700 C702 1.381 . S
C700 C706 1.383 . S
C701 C697 1.495 . S
C701 H707 0.959 . S
C701 H708 0.961 . S
C701 H709 0.960 . S
C702 C700 1.381 . S
C702 C703 1.394 . S
C702 H710 0.930 . S
C703 C702 1.394 . S
C703 C704 1.383 . S
C703 H711 0.929 . S
C704 C703 1.383 . S
C704 C705 1.377 . S
C705 H689 0.930 . S
C705 C704 1.377 . S
C705 C706 1.379 . S
C706 H690 0.931 . S
C706 C700 1.383 . S
C706 C705 1.379 . S
H707 C701 0.959 . S
H708 C701 0.961 . S
H709 C701 0.960 . S
H710 C702 0.930 . S
H711 C703 0.929 . S
H712 C720 0.929 . S
H713 C722 0.930 . S
H714 C724 0.930 . S
H715 C727 0.929 . S
H716 C730 0.930 . S
H717 C732 0.960 . S
H718 C732 0.960 . S
H719 C732 0.960 . S
C720 H712 0.929 . S
C720 C721 1.377 . S
C720 C722 1.384 . S
C721 C720 1.377 . S
C721 C727 1.390 . S
C722 H713 0.930 . S
C722 C720 1.384 . S
C722 C723 1.372 . S
C723 C722 1.372 . S
C723 C724 1.400 . S
C723 C728 1.490 . S
C724 H714 0.930 . S
C724 C723 1.400 . S
C724 C727 1.386 . S
H725 C741 0.930 . S
H726 C742 0.931 . S
C727 H715 0.929 . S
C727 C721 1.390 . S
C727 C724 1.386 . S
C728 C723 1.490 . S
C728 C730 1.395 . S
C728 C731 1.403 . S
H729 C735 0.930 . S
C730 H716 0.930 . S
C730 C728 1.395 . S
C730 C733 1.403 . S
C731 C728 1.403 . S
C731 C732 1.524 . S
C731 C735 1.400 . S
C732 H717 0.960 . S
C732 H718 0.960 . S
C732 H719 0.960 . S
C732 C731 1.524 . S
C733 C730 1.403 . S
C733 C734 1.392 . S
C733 C737 1.495 . S
C734 C733 1.392 . S
C734 C735 1.385 . S
C734 C736 1.478 . S
C735 H729 0.930 . S
C735 C731 1.400 . S
C735 C734 1.385 . S
C736 C734 1.478 . S
C736 C738 1.381 . S
C736 C742 1.383 . S
C737 C733 1.495 . S
C737 H743 0.959 . S
C737 H744 0.961 . S
C737 H745 0.960 . S
C738 C736 1.381 . S
C738 C739 1.394 . S
C738 H746 0.930 . S
C739 C738 1.394 . S
C739 C740 1.383 . S
C739 H747 0.929 . S
C740 C739 1.383 . S
C740 C741 1.377 . S
C741 H725 0.930 . S
C741 C740 1.377 . S
C741 C742 1.379 . S
C742 H726 0.931 . S
C742 C736 1.383 . S
C742 C741 1.379 . S
H743 C737 0.959 . S
H744 C737 0.961 . S
H745 C737 0.960 . S
H746 C738 0.930 . S
H747 C739 0.929 . S
H748 C756 0.929 . S
H749 C758 0.930 . S
H750 C760 0.930 . S
H751 C763 0.929 . S
H752 C766 0.930 . S
H753 C768 0.960 . S
H754 C768 0.960 . S
H755 C768 0.960 . S
C756 H748 0.929 . S
C756 C757 1.377 . S
C756 C758 1.384 . S
C757 C756 1.377 . S
C757 C763 1.390 . S
C758 H749 0.930 . S
C758 C756 1.384 . S
C758 C759 1.372 . S
C759 C758 1.372 . S
C759 C760 1.400 . S
C759 C764 1.490 . S
C760 H750 0.930 . S
C760 C759 1.400 . S
C760 C763 1.386 . S
H761 C777 0.930 . S
H762 C778 0.931 . S
C763 H751 0.929 . S
C763 C757 1.390 . S
C763 C760 1.386 . S
C764 C759 1.490 . S
C764 C766 1.395 . S
C764 C767 1.403 . S
H765 C771 0.930 . S
C766 H752 0.930 . S
C766 C764 1.395 . S
C766 C769 1.403 . S
C767 C764 1.403 . S
C767 C768 1.524 . S
C767 C771 1.400 . S
C768 H753 0.960 . S
C768 H754 0.960 . S
C768 H755 0.960 . S
C768 C767 1.524 . S
C769 C766 1.403 . S
C769 C770 1.392 . S
C769 C773 1.495 . S
C770 C769 1.392 . S
C770 C771 1.385 . S
C770 C772 1.478 . S
C771 H765 0.930 . S
C771 C767 1.400 . S
C771 C770 1.385 . S
C772 C770 1.478 . S
C772 C774 1.381 . S
C772 C778 1.383 . S
C773 C769 1.495 . S
C773 H779 0.959 . S
C773 H780 0.961 . S
C773 H781 0.960 . S
C774 C772 1.381 . S
C774 C775 1.394 . S
C774 H782 0.930 . S
C775 C774 1.394 . S
C775 C776 1.383 . S
C775 H783 0.929 . S
C776 C775 1.383 . S
C776 C777 1.377 . S
C777 H761 0.930 . S
C777 C776 1.377 . S
C777 C778 1.379 . S
C778 H762 0.931 . S
C778 C772 1.383 . S
C778 C777 1.379 . S
H779 C773 0.959 . S
H780 C773 0.961 . S
H781 C773 0.960 . S
H782 C774 0.930 . S
H783 C775 0.929 . S
H784 C792 0.929 . S
H785 C794 0.930 . S
H786 C796 0.930 . S
H787 C799 0.929 . S
H788 C802 0.930 . S
H789 C804 0.960 . S
H790 C804 0.960 . S
H791 C804 0.960 . S
C792 H784 0.929 . S
C792 C793 1.377 . S
C792 C794 1.384 . S
C793 C792 1.377 . S
C793 C799 1.390 . S
C794 H785 0.930 . S
C794 C792 1.384 . S
C794 C795 1.372 . S
C795 C794 1.372 . S
C795 C796 1.400 . S
C795 C800 1.490 . S
C796 H786 0.930 . S
C796 C795 1.400 . S
C796 C799 1.386 . S
H797 C813 0.930 . S
H798 C814 0.931 . S
C799 H787 0.929 . S
C799 C793 1.390 . S
C799 C796 1.386 . S
C800 C795 1.490 . S
C800 C802 1.395 . S
C800 C803 1.403 . S
H801 C807 0.930 . S
C802 H788 0.930 . S
C802 C800 1.395 . S
C802 C805 1.403 . S
C803 C800 1.403 . S
C803 C804 1.524 . S
C803 C807 1.400 . S
C804 H789 0.960 . S
C804 H790 0.960 . S
C804 H791 0.960 . S
C804 C803 1.524 . S
C805 C802 1.403 . S
C805 C806 1.392 . S
C805 C809 1.495 . S
C806 C805 1.392 . S
C806 C807 1.385 . S
C806 C808 1.478 . S
C807 H801 0.930 . S
C807 C803 1.400 . S
C807 C806 1.385 . S
C808 C806 1.478 . S
C808 C810 1.381 . S
C808 C814 1.383 . S
C809 C805 1.495 . S
C809 H815 0.959 . S
C809 H816 0.961 . S
C809 H817 0.960 . S
C810 C808 1.381 . S
C810 C811 1.394 . S
C810 H818 0.930 . S
C811 C810 1.394 . S
C811 C812 1.383 . S
C811 H819 0.929 . S
C812 C811 1.383 . S
C812 C813 1.377 . S
C813 H797 0.930 . S
C813 C812 1.377 . S
C813 C814 1.379 . S
C814 H798 0.931 . S
C814 C808 1.383 . S
C814 C813 1.379 . S
H815 C809 0.959 . S
H816 C809 0.961 . S
H817 C809 0.960 . S
H818 C810 0.930 . S
H819 C811 0.929 . S
H820 C828 0.929 . S
H821 C830 0.930 . S
H822 C832 0.930 . S
H823 C835 0.929 . S
H824 C838 0.930 . S
H825 C840 0.960 . S
H826 C840 0.960 . S
H827 C840 0.960 . S
C828 H820 0.929 . S
C828 C829 1.377 . S
C828 C830 1.384 . S
C829 C828 1.377 . S
C829 C835 1.390 . S
C830 H821 0.930 . S
C830 C828 1.384 . S
C830 C831 1.372 . S
C831 C830 1.372 . S
C831 C832 1.400 . S
C831 C836 1.490 . S
C832 H822 0.930 . S
C832 C831 1.400 . S
C832 C835 1.386 . S
H833 C849 0.930 . S
H834 C850 0.931 . S
C835 H823 0.929 . S
C835 C829 1.390 . S
C835 C832 1.386 . S
C836 C831 1.490 . S
C836 C838 1.395 . S
C836 C839 1.403 . S
H837 C843 0.930 . S
C838 H824 0.930 . S
C838 C836 1.395 . S
C838 C841 1.403 . S
C839 C836 1.403 . S
C839 C840 1.524 . S
C839 C843 1.400 . S
C840 H825 0.960 . S
C840 H826 0.960 . S
C840 H827 0.960 . S
C840 C839 1.524 . S
C841 C838 1.403 . S
C841 C842 1.392 . S
C841 C845 1.495 . S
C842 C841 1.392 . S
C842 C843 1.385 . S
C842 C844 1.478 . S
C843 H837 0.930 . S
C843 C839 1.400 . S
C843 C842 1.385 . S
C844 C842 1.478 . S
C844 C846 1.381 . S
C844 C850 1.383 . S
C845 C841 1.495 . S
C845 H851 0.959 . S
C845 H852 0.961 . S
C845 H853 0.960 . S
C846 C844 1.381 . S
C846 C847 1.394 . S
C846 H854 0.930 . S
C847 C846 1.394 . S
C847 C848 1.383 . S
C847 H855 0.929 . S
C848 C847 1.383 . S
C848 C849 1.377 . S
C849 H833 0.930 . S
C849 C848 1.377 . S
C849 C850 1.379 . S
C850 H834 0.931 . S
C850 C844 1.383 . S
C850 C849 1.379 . S
H851 C845 0.959 . S
H852 C845 0.961 . S
H853 C845 0.960 . S
H854 C846 0.930 . S
H855 C847 0.929 . S
H856 C864 0.929 . S
H857 C866 0.930 . S
H858 C868 0.930 . S
H859 C871 0.929 . S
H860 C874 0.930 . S
H861 C876 0.960 . S
H862 C876 0.960 . S
H863 C876 0.960 . S
C864 H856 0.929 . S
C864 C865 1.377 . S
C864 C866 1.384 . S
C865 C864 1.377 . S
C865 C871 1.390 . S
C866 H857 0.930 . S
C866 C864 1.384 . S
C866 C867 1.372 . S
C867 C866 1.372 . S
C867 C868 1.400 . S
C867 C872 1.490 . S
C868 H858 0.930 . S
C868 C867 1.400 . S
C868 C871 1.386 . S
H869 C885 0.930 . S
H870 C886 0.931 . S
C871 H859 0.929 . S
C871 C865 1.390 . S
C871 C868 1.386 . S
C872 C867 1.490 . S
C872 C874 1.395 . S
C872 C875 1.403 . S
H873 C879 0.930 . S
C874 H860 0.930 . S
C874 C872 1.395 . S
C874 C877 1.403 . S
C875 C872 1.403 . S
C875 C876 1.524 . S
C875 C879 1.400 . S
C876 H861 0.960 . S
C876 H862 0.960 . S
C876 H863 0.960 . S
C876 C875 1.524 . S
C877 C874 1.403 . S
C877 C878 1.392 . S
C877 C881 1.495 . S
C878 C877 1.392 . S
C878 C879 1.385 . S
C878 C880 1.478 . S
C879 H873 0.930 . S
C879 C875 1.400 . S
C879 C878 1.385 . S
C880 C878 1.478 . S
C880 C882 1.381 . S
C880 C886 1.383 . S
C881 C877 1.495 . S
C881 H887 0.959 . S
C881 H888 0.961 . S
C881 H889 0.960 . S
C882 C880 1.381 . S
C882 C883 1.394 . S
C882 H890 0.930 . S
C883 C882 1.394 . S
C883 C884 1.383 . S
C883 H891 0.929 . S
C884 C883 1.383 . S
C884 C885 1.377 . S
C885 H869 0.930 . S
C885 C884 1.377 . S
C885 C886 1.379 . S
C886 H870 0.931 . S
C886 C880 1.383 . S
C886 C885 1.379 . S
H887 C881 0.959 . S
H888 C881 0.961 . S
H889 C881 0.960 . S
H890 C882 0.930 . S
H891 C883 0.929 . S
H892 C900 0.929 . S
H893 C902 0.930 . S
H894 C904 0.930 . S
H895 C907 0.929 . S
H896 C910 0.930 . S
H897 C912 0.960 . S
H898 C912 0.960 . S
H899 C912 0.960 . S
C900 H892 0.929 . S
C900 C901 1.377 . S
C900 C902 1.384 . S
C901 C900 1.377 . S
C901 C907 1.390 . S
C902 H893 0.930 . S
C902 C900 1.384 . S
C902 C903 1.372 . S
C903 C902 1.372 . S
C903 C904 1.400 . S
C903 C908 1.490 . S
C904 H894 0.930 . S
C904 C903 1.400 . S
C904 C907 1.386 . S
H905 C921 0.930 . S
H906 C922 0.931 . S
C907 H895 0.929 . S
C907 C901 1.390 . S
C907 C904 1.386 . S
C908 C903 1.490 . S
C908 C910 1.395 . S
C908 C911 1.403 . S
H909 C915 0.930 . S
C910 H896 0.930 . S
C910 C908 1.395 . S
C910 C913 1.403 . S
C911 C908 1.403 . S
C911 C912 1.524 . S
C911 C915 1.400 . S
C912 H897 0.960 . S
C912 H898 0.960 . S
C912 H899 0.960 . S
C912 C911 1.524 . S
C913 C910 1.403 . S
C913 C914 1.392 . S
C913 C917 1.495 . S
C914 C913 1.392 . S
C914 C915 1.385 . S
C914 C916 1.478 . S
C915 H909 0.930 . S
C915 C911 1.400 . S
C915 C914 1.385 . S
C916 C914 1.478 . S
C916 C918 1.381 . S
C916 C922 1.383 . S
C917 C913 1.495 . S
C917 H923 0.959 . S
C917 H924 0.961 . S
C917 H925 0.960 . S
C918 C916 1.381 . S
C918 C919 1.394 . S
C918 H926 0.930 . S
C919 C918 1.394 . S
C919 C920 1.383 . S
C919 H927 0.929 . S
C920 C919 1.383 . S
C920 C921 1.377 . S
C921 H905 0.930 . S
C921 C920 1.377 . S
C921 C922 1.379 . S
C922 H906 0.931 . S
C922 C916 1.383 . S
C922 C921 1.379 . S
H923 C917 0.959 . S
H924 C917 0.961 . S
H925 C917 0.960 . S
H926 C918 0.930 . S
H927 C919 0.929 . S
H928 C936 0.929 . S
H929 C938 0.930 . S
H930 C940 0.930 . S
H931 C943 0.929 . S
H932 C946 0.930 . S
H933 C948 0.960 . S
H934 C948 0.960 . S
H935 C948 0.960 . S
C936 H928 0.929 . S
C936 C937 1.377 . S
C936 C938 1.384 . S
C937 C936 1.377 . S
C937 C943 1.390 . S
C938 H929 0.930 . S
C938 C936 1.384 . S
C938 C939 1.372 . S
C939 C938 1.372 . S
C939 C940 1.400 . S
C939 C944 1.490 . S
C940 H930 0.930 . S
C940 C939 1.400 . S
C940 C943 1.386 . S
H941 C957 0.930 . S
H942 C958 0.931 . S
C943 H931 0.929 . S
C943 C937 1.390 . S
C943 C940 1.386 . S
C944 C939 1.490 . S
C944 C946 1.395 . S
C944 C947 1.403 1_554 S
H945 C951 0.930 . S
C946 H932 0.930 . S
C946 C944 1.395 . S
C946 C949 1.403 . S
C947 C944 1.403 1_556 S
C947 C948 1.524 . S
C947 C951 1.400 . S
C948 H933 0.960 . S
C948 H934 0.960 . S
C948 H935 0.960 . S
C948 C947 1.524 . S
C949 C946 1.403 . S
C949 C950 1.392 1_554 S
C949 C953 1.495 . S
C950 C949 1.392 1_556 S
C950 C951 1.385 . S
C950 C952 1.478 . S
C951 H945 0.930 . S
C951 C947 1.400 . S
C951 C950 1.385 . S
C952 C950 1.478 . S
C952 C954 1.381 . S
C952 C958 1.383 . S
C953 C949 1.495 . S
C953 H959 0.959 . S
C953 H960 0.961 . S
C953 H961 0.960 . S
C954 C952 1.381 . S
C954 C955 1.394 . S
C954 H962 0.930 . S
C955 C954 1.394 . S
C955 C956 1.383 . S
C955 H963 0.929 . S
C956 C955 1.383 . S
C956 C957 1.377 . S
C957 H941 0.930 . S
C957 C956 1.377 . S
C957 C958 1.379 . S
C958 H942 0.931 . S
C958 C952 1.383 . S
C958 C957 1.379 . S
H959 C953 0.959 . S
H960 C953 0.961 . S
H961 C953 0.960 . S
H962 C954 0.930 . S
H963 C955 0.929 . S
H964 C972 0.929 . S
H965 C974 0.930 . S
H966 C976 0.930 . S
H967 C979 0.929 . S
H968 C982 0.930 . S
H969 C984 0.960 . S
H970 C984 0.960 . S
H971 C984 0.960 . S
C972 H964 0.929 . S
C972 C973 1.377 . S
C972 C974 1.384 . S
C973 C972 1.377 . S
C973 C979 1.390 . S
C974 H965 0.930 . S
C974 C972 1.384 . S
C974 C975 1.372 . S
C975 C974 1.372 . S
C975 C976 1.400 . S
C975 C980 1.490 . S
C976 H966 0.930 . S
C976 C975 1.400 . S
C976 C979 1.386 . S
H977 C993 0.930 . S
H978 C994 0.931 . S
C979 H967 0.929 . S
C979 C973 1.390 . S
C979 C976 1.386 . S
C980 C975 1.490 . S
C980 C982 1.395 . S
C980 C983 1.403 . S
H981 C987 0.930 . S
C982 H968 0.930 . S
C982 C980 1.395 . S
C982 C985 1.403 . S
C983 C980 1.403 . S
C983 C984 1.524 . S
C983 C987 1.400 . S
C984 H969 0.960 . S
C984 H970 0.960 . S
C984 H971 0.960 . S
C984 C983 1.524 . S
C985 C982 1.403 . S
C985 C986 1.392 . S
C985 C989 1.495 . S
C986 C985 1.392 . S
C986 C987 1.385 . S
C986 C988 1.478 . S
C987 H981 0.930 . S
C987 C983 1.400 . S
C987 C986 1.385 . S
C988 C986 1.478 . S
C988 C990 1.381 . S
C988 C994 1.383 . S
C989 C985 1.495 . S
C989 H995 0.959 . S
C989 H996 0.961 . S
C989 H997 0.960 . S
C990 C988 1.381 . S
C990 C991 1.394 . S
C990 H998 0.930 . S
C991 C990 1.394 . S
C991 C992 1.383 . S
C991 H999 0.929 . S
C992 C991 1.383 . S
C992 C993 1.377 . S
C993 H977 0.930 . S
C993 C992 1.377 . S
C993 C994 1.379 . S
C994 H978 0.931 . S
C994 C988 1.383 . S
C994 C993 1.379 . S
H995 C989 0.959 . S
H996 C989 0.961 . S
H997 C989 0.960 . S
H998 C990 0.930 . S
H999 C991 0.929 . S
H1000 C1008 0.929 . S
H1001 C1010 0.930 . S
H1002 C1012 0.930 1_554 S
H1003 C1015 0.929 . S
H1004 C1018 0.930 . S
H1005 C1020 0.960 . S
H1006 C1020 0.960 1_556 S
H1007 C1020 0.960 . S
C1008 H1000 0.929 . S
C1008 C1009 1.377 . S
C1008 C1010 1.384 . S
C1009 C1008 1.377 . S
C1009 C1015 1.390 . S
C1010 H1001 0.930 . S
C1010 C1008 1.384 . S
C1010 C1011 1.372 . S
C1011 C1010 1.372 . S
C1011 C1012 1.400 . S
C1011 C1016 1.490 . S
C1012 H1002 0.930 1_556 S
C1012 C1011 1.400 . S
C1012 C1015 1.386 . S
H1013 C1029 0.930 . S
H1014 C1030 0.931 . S
C1015 H1003 0.929 . S
C1015 C1009 1.390 . S
C1015 C1012 1.386 . S
C1016 C1011 1.490 . S
C1016 C1018 1.395 . S
C1016 C1019 1.403 1_556 S
H1017 C1023 0.930 . S
C1018 H1004 0.930 . S
C1018 C1016 1.395 . S
C1018 C1021 1.403 . S
C1019 C1016 1.403 1_554 S
C1019 C1020 1.524 . S
C1019 C1023 1.400 . S
C1020 H1005 0.960 . S
C1020 H1006 0.960 1_554 S
C1020 H1007 0.960 . S
C1020 C1019 1.524 . S
C1021 C1018 1.403 . S
C1021 C1022 1.392 1_556 S
C1021 C1025 1.495 . S
C1022 C1021 1.392 1_554 S
C1022 C1023 1.385 . S
C1022 C1024 1.478 . S
C1023 H1017 0.930 . S
C1023 C1019 1.400 . S
C1023 C1022 1.385 . S
C1024 C1022 1.478 . S
C1024 C1026 1.381 . S
C1024 C1030 1.383 . S
C1025 C1021 1.495 . S
C1025 H1031 0.959 . S
C1025 H1032 0.961 . S
C1025 H1033 0.960 . S
C1026 C1024 1.381 . S
C1026 C1027 1.394 . S
C1026 H1034 0.930 1_554 S
C1027 C1026 1.394 . S
C1027 C1028 1.383 . S
C1027 H1035 0.929 . S
C1028 C1027 1.383 . S
C1028 C1029 1.377 . S
C1029 H1013 0.930 . S
C1029 C1028 1.377 . S
C1029 C1030 1.379 . S
C1030 H1014 0.931 . S
C1030 C1024 1.383 . S
C1030 C1029 1.379 . S
H1031 C1025 0.959 . S
H1032 C1025 0.961 . S
H1033 C1025 0.960 . S
H1034 C1026 0.930 1_556 S
H1035 C1027 0.929 . S
H1036 C1044 0.929 . S
H1037 C1046 0.930 . S
H1038 C1048 0.930 . S
H1039 C1051 0.929 . S
H1040 C1054 0.930 . S
H1041 C1056 0.960 . S
H1042 C1056 0.960 . S
H1043 C1056 0.960 . S
C1044 H1036 0.929 . S
C1044 C1045 1.377 . S
C1044 C1046 1.384 . S
C1045 C1044 1.377 . S
C1045 C1051 1.390 . S
C1046 H1037 0.930 . S
C1046 C1044 1.384 . S
C1046 C1047 1.372 . S
C1047 C1046 1.372 . S
C1047 C1048 1.400 . S
C1047 C1052 1.490 . S
C1048 H1038 0.930 . S
C1048 C1047 1.400 . S
C1048 C1051 1.386 . S
H1049 C1065 0.930 . S
H1050 C1066 0.931 . S
C1051 H1039 0.929 . S
C1051 C1045 1.390 . S
C1051 C1048 1.386 . S
C1052 C1047 1.490 . S
C1052 C1054 1.395 . S
C1052 C1055 1.403 . S
H1053 C1059 0.930 . S
C1054 H1040 0.930 . S
C1054 C1052 1.395 . S
C1054 C1057 1.403 . S
C1055 C1052 1.403 . S
C1055 C1056 1.524 . S
C1055 C1059 1.400 . S
C1056 H1041 0.960 . S
C1056 H1042 0.960 . S
C1056 H1043 0.960 . S
C1056 C1055 1.524 . S
C1057 C1054 1.403 . S
C1057 C1058 1.392 . S
C1057 C1061 1.495 . S
C1058 C1057 1.392 . S
C1058 C1059 1.385 . S
C1058 C1060 1.478 . S
C1059 H1053 0.930 . S
C1059 C1055 1.400 . S
C1059 C1058 1.385 . S
C1060 C1058 1.478 . S
C1060 C1062 1.381 . S
C1060 C1066 1.383 . S
C1061 C1057 1.495 . S
C1061 H1067 0.959 . S
C1061 H1068 0.961 . S
C1061 H1069 0.960 . S
C1062 C1060 1.381 . S
C1062 C1063 1.394 . S
C1062 H1070 0.930 . S
C1063 C1062 1.394 . S
C1063 C1064 1.383 . S
C1063 H1071 0.929 . S
C1064 C1063 1.383 . S
C1064 C1065 1.377 . S
C1065 H1049 0.930 . S
C1065 C1064 1.377 . S
C1065 C1066 1.379 . S
C1066 H1050 0.931 . S
C1066 C1060 1.383 . S
C1066 C1065 1.379 . S
H1067 C1061 0.959 . S
H1068 C1061 0.961 . S
H1069 C1061 0.960 . S
H1070 C1062 0.930 . S
H1071 C1063 0.929 . S
H1072 C1080 0.929 . S
H1073 C1082 0.884 1_556 S
H1074 C1084 0.930 . S
H1075 C1087 0.929 . S
H1076 C1090 0.930 . S
H1077 C1092 0.960 . S
H1078 C1092 0.960 . S
H1079 C1092 0.960 1_554 S
C1080 H1072 0.929 . S
C1080 C1081 1.377 . S
C1080 C1082 1.384 . S
C1081 C1080 1.377 . S
C1081 C1087 1.390 . S
C1082 H1073 0.884 1_554 S
C1082 C1080 1.384 . S
C1082 C1083 1.372 . S
C1083 C1082 1.372 . S
C1083 C1084 1.400 . S
C1083 C1088 1.490 . S
C1084 H1074 0.930 . S
C1084 C1083 1.400 . S
C1084 C1087 1.386 . S
H1085 C1101 0.930 . S
H1086 C1102 0.931 1_554 S
C1087 H1075 0.929 . S
C1087 C1081 1.390 . S
C1087 C1084 1.386 . S
C1088 C1083 1.490 . S
C1088 C1090 1.395 . S
C1088 C1091 1.403 1_554 S
H1089 C1095 0.930 . S
C1090 H1076 0.930 . S
C1090 C1088 1.395 . S
C1090 C1093 1.403 . S
C1091 C1088 1.403 1_556 S
C1091 C1092 1.524 . S
C1091 C1095 1.400 . S
C1092 H1077 0.960 . S
C1092 H1078 0.960 . S
C1092 H1079 0.960 1_556 S
C1092 C1091 1.524 . S
C1093 C1090 1.403 . S
C1093 C1094 1.392 1_554 S
C1093 C1097 1.495 . S
C1094 C1093 1.392 1_556 S
C1094 C1095 1.385 . S
C1094 C1096 1.478 . S
C1095 H1089 0.930 . S
C1095 C1091 1.400 . S
C1095 C1094 1.385 . S
C1096 C1094 1.478 . S
C1096 C1098 1.381 . S
C1096 C1102 1.383 . S
C1097 C1093 1.495 . S
C1097 H1103 0.959 . S
C1097 H1104 0.961 . S
C1097 H1105 0.960 1_554 S
C1098 C1096 1.381 . S
C1098 C1099 1.394 . S
C1098 H1106 0.930 . S
C1099 C1098 1.394 . S
C1099 C1100 1.383 . S
C1099 H1107 0.929 . S
C1100 C1099 1.383 . S
C1100 C1101 1.377 . S
C1101 H1085 0.930 . S
C1101 C1100 1.377 . S
C1101 C1102 1.379 . S
C1102 H1086 0.931 1_556 S
C1102 C1096 1.383 . S
C1102 C1101 1.379 . S
H1103 C1097 0.959 . S
H1104 C1097 0.961 . S
H1105 C1097 0.960 1_556 S
H1106 C1098 0.930 . S
H1107 C1099 0.929 . S
H1108 C1116 0.929 . S
H1109 C1118 0.930 . S
H1110 C1120 0.930 . S
H1111 C1123 0.929 . S
H1112 C1126 0.930 . S
H1113 C1128 0.960 . S
H1114 C1128 0.960 . S
H1115 C1128 0.960 . S
C1116 H1108 0.929 . S
C1116 C1117 1.377 . S
C1116 C1118 1.384 . S
C1117 C1116 1.377 . S
C1117 C1123 1.390 . S
C1118 H1109 0.930 . S
C1118 C1116 1.384 . S
C1118 C1119 1.372 . S
C1119 C1118 1.372 . S
C1119 C1120 1.400 . S
C1119 C1124 1.490 . S
C1120 H1110 0.930 . S
C1120 C1119 1.400 . S
C1120 C1123 1.386 . S
H1121 C1137 0.930 . S
H1122 C1138 0.931 . S
C1123 H1111 0.929 . S
C1123 C1117 1.390 . S
C1123 C1120 1.386 . S
C1124 C1119 1.490 . S
C1124 C1126 1.395 . S
C1124 C1127 1.403 . S
H1125 C1131 0.930 . S
C1126 H1112 0.930 . S
C1126 C1124 1.395 . S
C1126 C1129 1.403 . S
C1127 C1124 1.403 . S
C1127 C1128 1.524 . S
C1127 C1131 1.400 . S
C1128 H1113 0.960 . S
C1128 H1114 0.960 . S
C1128 H1115 0.960 . S
C1128 C1127 1.524 . S
C1129 C1126 1.403 . S
C1129 C1130 1.392 . S
C1129 C1133 1.495 . S
C1130 C1129 1.392 . S
C1130 C1131 1.385 . S
C1130 C1132 1.478 . S
C1131 H1125 0.930 . S
C1131 C1127 1.400 . S
C1131 C1130 1.385 . S
C1132 C1130 1.478 . S
C1132 C1134 1.381 . S
C1132 C1138 1.383 . S
C1133 C1129 1.495 . S
C1133 H1139 0.959 . S
C1133 H1140 0.961 . S
C1133 H1141 0.960 . S
C1134 C1132 1.381 . S
C1134 C1135 1.394 . S
C1134 H1142 0.930 . S
C1135 C1134 1.394 . S
C1135 C1136 1.383 . S
C1135 H1143 0.929 . S
C1136 C1135 1.383 . S
C1136 C1137 1.377 . S
C1137 H1121 0.930 . S
C1137 C1136 1.377 . S
C1137 C1138 1.379 . S
C1138 H1122 0.931 . S
C1138 C1132 1.383 . S
C1138 C1137 1.379 . S
H1139 C1133 0.959 . S
H1140 C1133 0.961 . S
H1141 C1133 0.960 . S
H1142 C1134 0.930 . S
H1143 C1135 0.929 . S
H1144 C1152 0.929 . S
H1145 C1154 0.930 . S
H1146 C1156 0.930 . S
H1147 C1159 0.929 . S
H1148 C1162 0.930 . S
H1149 C1164 0.960 . S
H1150 C1164 0.960 . S
H1151 C1164 0.960 . S
C1152 H1144 0.929 . S
C1152 C1153 1.377 . S
C1152 C1154 1.384 . S
C1153 C1152 1.377 . S
C1153 C1159 1.390 . S
C1154 H1145 0.930 . S
C1154 C1152 1.384 . S
C1154 C1155 1.372 . S
C1155 C1154 1.372 . S
C1155 C1156 1.400 . S
C1155 C1160 1.490 . S
C1156 H1146 0.930 . S
C1156 C1155 1.400 . S
C1156 C1159 1.386 . S
H1157 C1173 0.930 . S
H1158 C1174 0.931 . S
C1159 H1147 0.929 . S
C1159 C1153 1.390 . S
C1159 C1156 1.386 . S
C1160 C1155 1.490 . S
C1160 C1162 1.395 . S
C1160 C1163 1.403 1_554 S
H1161 C1167 0.930 . S
C1162 H1148 0.930 . S
C1162 C1160 1.395 . S
C1162 C1165 1.403 . S
C1163 C1160 1.403 1_556 S
C1163 C1164 1.524 . S
C1163 C1167 1.400 . S
C1164 H1149 0.960 . S
C1164 H1150 0.960 . S
C1164 H1151 0.960 . S
C1164 C1163 1.524 . S
C1165 C1162 1.403 . S
C1165 C1166 1.392 1_554 S
C1165 C1169 1.495 . S
C1166 C1165 1.392 1_556 S
C1166 C1167 1.385 . S
C1166 C1168 1.478 . S
C1167 H1161 0.930 . S
C1167 C1163 1.400 . S
C1167 C1166 1.385 . S
C1168 C1166 1.478 . S
C1168 C1170 1.381 . S
C1168 C1174 1.383 . S
C1169 C1165 1.495 . S
C1169 H1175 0.959 . S
C1169 H1176 0.961 . S
C1169 H1177 0.960 . S
C1170 C1168 1.381 . S
C1170 C1171 1.394 . S
C1170 H1178 0.930 . S
C1171 C1170 1.394 . S
C1171 C1172 1.383 . S
C1171 H1179 0.929 . S
C1172 C1171 1.383 . S
C1172 C1173 1.377 . S
C1173 H1157 0.930 . S
C1173 C1172 1.377 . S
C1173 C1174 1.379 . S
C1174 H1158 0.931 . S
C1174 C1168 1.383 . S
C1174 C1173 1.379 . S
H1175 C1169 0.959 . S
H1176 C1169 0.961 . S
H1177 C1169 0.960 . S
H1178 C1170 0.930 . S
H1179 C1171 0.929 . S
H1180 C1188 0.929 . S
H1181 C1190 0.930 . S
H1182 C1192 0.930 . S
H1183 C1195 0.929 . S
H1184 C1198 0.930 . S
H1185 C1200 0.960 . S
H1186 C1200 0.960 . S
H1187 C1200 0.960 . S
C1188 H1180 0.929 . S
C1188 C1189 1.377 . S
C1188 C1190 1.384 . S
C1189 C1188 1.377 . S
C1189 C1195 1.390 . S
C1190 H1181 0.930 . S
C1190 C1188 1.384 . S
C1190 C1191 1.372 . S
C1191 C1190 1.372 . S
C1191 C1192 1.400 . S
C1191 C1196 1.490 . S
C1192 H1182 0.930 . S
C1192 C1191 1.400 . S
C1192 C1195 1.386 . S
H1193 C1209 0.930 . S
H1194 C1210 0.931 . S
C1195 H1183 0.929 . S
C1195 C1189 1.390 . S
C1195 C1192 1.386 . S
C1196 C1191 1.490 . S
C1196 C1198 1.395 . S
C1196 C1199 1.403 . S
H1197 C1203 0.930 . S
C1198 H1184 0.930 . S
C1198 C1196 1.395 . S
C1198 C1201 1.403 . S
C1199 C1196 1.403 . S
C1199 C1200 1.524 . S
C1199 C1203 1.400 . S
C1200 H1185 0.960 . S
C1200 H1186 0.960 . S
C1200 H1187 0.960 . S
C1200 C1199 1.524 . S
C1201 C1198 1.403 . S
C1201 C1202 1.392 . S
C1201 C1205 1.495 . S
C1202 C1201 1.392 . S
C1202 C1203 1.385 . S
C1202 C1204 1.478 . S
C1203 H1197 0.930 . S
C1203 C1199 1.400 . S
C1203 C1202 1.385 . S
C1204 C1202 1.478 . S
C1204 C1206 1.381 . S
C1204 C1210 1.383 . S
C1205 C1201 1.495 . S
C1205 H1211 0.959 . S
C1205 H1212 0.961 . S
C1205 H1213 0.960 . S
C1206 C1204 1.381 . S
C1206 C1207 1.394 . S
C1206 H1214 0.930 . S
C1207 C1206 1.394 . S
C1207 C1208 1.383 . S
C1207 H1215 0.929 . S
C1208 C1207 1.383 . S
C1208 C1209 1.377 . S
C1209 H1193 0.930 . S
C1209 C1208 1.377 . S
C1209 C1210 1.379 . S
C1210 H1194 0.931 . S
C1210 C1204 1.383 . S
C1210 C1209 1.379 . S
H1211 C1205 0.959 . S
H1212 C1205 0.961 . S
H1213 C1205 0.960 . S
H1214 C1206 0.930 . S
H1215 C1207 0.929 . S
H1216 C1224 0.929 . S
H1217 C1226 0.930 . S
H1218 C1228 0.930 . S
H1219 C1231 0.929 . S
H1220 C1234 0.928 1_655 S
H1221 C1236 0.960 . S
H1222 C1236 0.960 . S
H1223 C1236 0.960 . S
C1224 H1216 0.929 . S
C1224 C1225 1.377 . S
C1224 C1226 1.384 . S
C1225 C1224 1.377 . S
C1225 C1231 1.390 . S
C1226 H1217 0.930 . S
C1226 C1224 1.384 . S
C1226 C1227 1.372 . S
C1227 C1226 1.372 . S
C1227 C1228 1.400 . S
C1227 C1232 1.490 . S
C1228 H1218 0.930 . S
C1228 C1227 1.400 . S
C1228 C1231 1.386 . S
H1229 C1245 0.930 . S
H1230 C1246 0.931 . S
C1231 H1219 0.929 . S
C1231 C1225 1.390 . S
C1231 C1228 1.386 . S
C1232 C1227 1.490 . S
C1232 C1234 1.380 1_656 S
C1232 C1235 1.403 . S
H1233 C1239 0.930 . S
C1234 H1220 0.928 1_455 S
C1234 C1232 1.380 1_454 S
C1234 C1237 1.419 . S
C1235 C1232 1.403 . S
C1235 C1236 1.524 . S
C1235 C1239 1.400 1_655 S
C1236 H1221 0.960 . S
C1236 H1222 0.960 . S
C1236 H1223 0.960 . S
C1236 C1235 1.524 . S
C1237 C1234 1.419 . S
C1237 C1238 1.392 . S
C1237 C1241 1.495 . S
C1238 C1237 1.392 . S
C1238 C1239 1.385 1_554 S
C1238 C1240 1.478 . S
C1239 H1233 0.930 . S
C1239 C1235 1.400 1_455 S
C1239 C1238 1.385 1_556 S
C1240 C1238 1.478 . S
C1240 C1242 1.381 . S
C1240 C1246 1.383 . S
C1241 C1237 1.495 . S
C1241 H1247 0.959 . S
C1241 H1248 0.961 . S
C1241 H1249 0.960 . S
C1242 C1240 1.381 . S
C1242 C1243 1.394 . S
C1242 H1250 0.930 . S
C1243 C1242 1.394 . S
C1243 C1244 1.383 . S
C1243 H1251 0.929 . S
C1244 C1243 1.383 . S
C1244 C1245 1.377 . S
C1245 H1229 0.930 . S
C1245 C1244 1.377 . S
C1245 C1246 1.379 . S
C1246 H1230 0.931 . S
C1246 C1240 1.383 . S
C1246 C1245 1.379 . S
H1247 C1241 0.959 . S
H1248 C1241 0.961 . S
H1249 C1241 0.960 . S
H1250 C1242 0.930 . S
H1251 C1243 0.929 . S
H1252 C1260 0.929 . S
H1253 C1262 0.930 . S
H1254 C1264 0.930 . S
H1255 C1267 0.929 . S
H1256 C1270 0.930 . S
H1257 C1272 0.960 1_655 S
H1258 C1272 0.960 . S
H1259 C1272 0.950 1_655 S
C1260 H1252 0.929 . S
C1260 C1261 1.377 . S
C1260 C1262 1.384 . S
C1261 C1260 1.377 . S
C1261 C1267 1.390 . S
C1262 H1253 0.930 . S
C1262 C1260 1.384 . S
C1262 C1263 1.372 . S
C1263 C1262 1.372 . S
C1263 C1264 1.400 . S
C1263 C1268 1.490 . S
C1264 H1254 0.930 . S
C1264 C1263 1.400 . S
C1264 C1267 1.386 . S
H1265 C1281 0.930 . S
H1266 C1282 0.931 . S
C1267 H1255 0.929 . S
C1267 C1261 1.390 . S
C1267 C1264 1.386 . S
C1268 C1263 1.490 . S
C1268 C1270 1.395 1_545 S
C1268 C1271 1.403 . S
H1269 C1275 0.936 . S
C1270 H1256 0.930 . S
C1270 C1268 1.395 1_565 S
C1270 C1273 1.432 . S
C1271 C1268 1.403 . S
C1271 C1272 1.524 . S
C1271 C1275 1.429 1_455 S
C1272 H1257 0.960 1_455 S
C1272 H1258 0.960 . S
C1272 H1259 0.950 1_455 S
C1272 C1271 1.524 . S
C1273 C1270 1.432 . S
C1273 C1274 1.365 1_455 S
C1273 C1277 1.495 . S
C1274 C1273 1.365 1_655 S
C1274 C1275 1.351 1_565 S
C1274 C1276 1.478 . S
C1275 H1269 0.936 . S
C1275 C1271 1.429 1_655 S
C1275 C1274 1.351 1_545 S
C1276 C1274 1.478 . S
C1276 C1278 1.381 . S
C1276 C1282 1.383 . S
C1277 C1273 1.495 . S
C1277 H1283 0.989 . S
C1277 H1284 0.923 1_455 S
C1277 H1285 0.970 . S
C1278 C1276 1.381 . S
C1278 C1279 1.394 . S
C1278 H1286 0.930 . S
C1279 C1278 1.394 . S
C1279 C1280 1.383 . S
C1279 H1287 0.929 . S
C1280 C1279 1.383 . S
C1280 C1281 1.377 . S
C1281 H1265 0.930 . S
C1281 C1280 1.377 . S
C1281 C1282 1.379 . S
C1282 H1266 0.931 . S
C1282 C1276 1.383 . S
C1282 C1281 1.379 . S
H1283 C1277 0.989 . S
H1284 C1277 0.923 1_655 S
H1285 C1277 0.970 . S
H1286 C1278 0.930 . S
H1287 C1279 0.929 . S
H1288 C1296 0.929 . S
H1289 C1298 0.930 . S
H1290 C1300 0.930 . S
H1291 C1303 0.929 . S
H1292 C1306 0.930 . S
H1293 C1308 0.960 . S
H1294 C1308 0.960 . S
H1295 C1308 0.960 . S
C1296 H1288 0.929 . S
C1296 C1297 1.377 . S
C1296 C1298 1.384 . S
C1297 C1296 1.377 . S
C1297 C1303 1.390 . S
C1298 H1289 0.930 . S
C1298 C1296 1.384 . S
C1298 C1299 1.372 . S
C1299 C1298 1.372 . S
C1299 C1300 1.400 . S
C1299 C1304 1.490 . S
C1300 H1290 0.930 . S
C1300 C1299 1.400 . S
C1300 C1303 1.386 . S
H1301 C1317 0.930 . S
H1302 C1318 0.931 . S
C1303 H1291 0.929 . S
C1303 C1297 1.390 . S
C1303 C1300 1.386 . S
C1304 C1299 1.490 . S
C1304 C1306 1.395 . S
C1304 C1307 1.403 1_554 S
H1305 C1311 0.930 . S
C1306 H1292 0.930 . S
C1306 C1304 1.395 . S
C1306 C1309 1.403 1_545 S
C1307 C1304 1.403 1_556 S
C1307 C1308 1.524 . S
C1307 C1311 1.400 1_545 S
C1308 H1293 0.960 . S
C1308 H1294 0.960 . S
C1308 H1295 0.960 . S
C1308 C1307 1.524 . S
C1309 C1306 1.403 1_565 S
C1309 C1310 1.392 1_554 S
C1309 C1313 1.495 . S
C1310 C1309 1.392 1_556 S
C1310 C1311 1.385 . S
C1310 C1312 1.478 . S
C1311 H1305 0.930 . S
C1311 C1307 1.400 1_565 S
C1311 C1310 1.385 . S
C1312 C1310 1.478 . S
C1312 C1314 1.381 . S
C1312 C1318 1.383 . S
C1313 C1309 1.495 . S
C1313 H1319 0.959 . S
C1313 H1320 0.961 . S
C1313 H1321 0.960 . S
C1314 C1312 1.381 . S
C1314 C1315 1.394 . S
C1314 H1322 0.930 . S
C1315 C1314 1.394 . S
C1315 C1316 1.383 . S
C1315 H1323 0.929 . S
C1316 C1315 1.383 . S
C1316 C1317 1.377 . S
C1317 H1301 0.930 . S
C1317 C1316 1.377 . S
C1317 C1318 1.379 . S
C1318 H1302 0.931 . S
C1318 C1312 1.383 . S
C1318 C1317 1.379 . S
H1319 C1313 0.959 . S
H1320 C1313 0.961 . S
H1321 C1313 0.960 . S
H1322 C1314 0.930 . S
H1323 C1315 0.929 . S
H1324 C1332 0.929 . S
H1325 C1334 0.930 . S
H1326 C1336 0.930 . S
H1327 C1339 0.929 . S
H1328 C1342 0.930 . S
H1329 C1344 0.960 . S
H1330 C1344 0.960 . S
H1331 C1344 0.960 . S
C1332 H1324 0.929 . S
C1332 C1333 1.377 . S
C1332 C1334 1.384 . S
C1333 C1332 1.377 . S
C1333 C1339 1.390 . S
C1334 H1325 0.930 . S
C1334 C1332 1.384 . S
C1334 C1335 1.372 . S
C1335 C1334 1.372 . S
C1335 C1336 1.400 . S
C1335 C1340 1.490 . S
C1336 H1326 0.930 . S
C1336 C1335 1.400 . S
C1336 C1339 1.386 . S
H1337 C1353 0.930 . S
H1338 C1354 0.931 . S
C1339 H1327 0.929 . S
C1339 C1333 1.390 . S
C1339 C1336 1.386 . S
C1340 C1335 1.490 . S
C1340 C1342 1.395 . S
C1340 C1343 1.403 . S
H1341 C1347 0.930 . S
C1342 H1328 0.930 . S
C1342 C1340 1.395 . S
C1342 C1345 1.403 . S
C1343 C1340 1.403 . S
C1343 C1344 1.524 . S
C1343 C1347 1.400 . S
C1344 H1329 0.960 . S
C1344 H1330 0.960 . S
C1344 H1331 0.960 . S
C1344 C1343 1.524 . S
C1345 C1342 1.403 . S
C1345 C1346 1.392 . S
C1345 C1349 1.495 . S
C1346 C1345 1.392 . S
C1346 C1347 1.385 . S
C1346 C1348 1.478 . S
C1347 H1341 0.930 . S
C1347 C1343 1.400 . S
C1347 C1346 1.385 . S
C1348 C1346 1.478 . S
C1348 C1350 1.381 . S
C1348 C1354 1.383 . S
C1349 C1345 1.495 . S
C1349 H1355 0.959 . S
C1349 H1356 0.961 . S
C1349 H1357 0.960 . S
C1350 C1348 1.381 . S
C1350 C1351 1.394 . S
C1350 H1358 0.930 . S
C1351 C1350 1.394 . S
C1351 C1352 1.383 . S
C1351 H1359 0.929 . S
C1352 C1351 1.383 . S
C1352 C1353 1.377 . S
C1353 H1337 0.930 . S
C1353 C1352 1.377 . S
C1353 C1354 1.379 . S
C1354 H1338 0.931 . S
C1354 C1348 1.383 . S
C1354 C1353 1.379 . S
H1355 C1349 0.959 . S
H1356 C1349 0.961 . S
H1357 C1349 0.960 . S
H1358 C1350 0.930 . S
H1359 C1351 0.929 . S
H1360 C1368 0.929 . S
H1361 C1370 0.930 . S
H1362 C1372 0.930 . S
H1363 C1375 0.929 . S
H1364 C1378 0.930 . S
H1365 C1380 0.926 1_565 S
H1366 C1380 0.960 . S
H1367 C1380 0.960 . S
C1368 H1360 0.929 . S
C1368 C1369 1.377 . S
C1368 C1370 1.384 . S
C1369 C1368 1.377 . S
C1369 C1375 1.390 . S
C1370 H1361 0.930 . S
C1370 C1368 1.384 . S
C1370 C1371 1.372 . S
C1371 C1370 1.372 . S
C1371 C1372 1.400 . S
C1371 C1376 1.490 . S
C1372 H1362 0.930 . S
C1372 C1371 1.400 . S
C1372 C1375 1.386 . S
H1373 C1389 0.930 . S
H1374 C1390 0.931 . S
C1375 H1363 0.929 . S
C1375 C1369 1.390 . S
C1375 C1372 1.386 . S
C1376 C1371 1.490 . S
C1376 C1378 1.395 1_455 S
C1376 C1379 1.403 1_556 S
H1377 C1383 0.928 1_455 S
C1378 H1364 0.930 . S
C1378 C1376 1.395 1_655 S
C1378 C1381 1.403 1_545 S
C1379 C1376 1.403 1_554 S
C1379 C1380 1.524 . S
C1379 C1383 1.383 1_445 S
C1380 H1365 0.926 1_545 S
C1380 H1366 0.960 . S
C1380 H1367 0.960 . S
C1380 C1379 1.524 . S
C1381 C1378 1.403 1_565 S
C1381 C1382 1.392 1_556 S
C1381 C1385 1.495 . S
C1382 C1381 1.392 1_554 S
C1382 C1383 1.404 . S
C1382 C1384 1.478 . S
C1383 H1377 0.928 1_655 S
C1383 C1379 1.383 1_665 S
C1383 C1382 1.404 . S
C1384 C1382 1.478 . S
C1384 C1386 1.381 . S
C1384 C1390 1.383 . S
C1385 C1381 1.495 . S
C1385 H1391 0.959 1_565 S
C1385 H1392 0.961 . S
C1385 H1393 0.960 . S
C1386 C1384 1.381 . S
C1386 C1387 1.394 . S
C1386 H1394 0.930 . S
C1387 C1386 1.394 . S
C1387 C1388 1.383 . S
C1387 H1395 0.929 . S
C1388 C1387 1.383 . S
C1388 C1389 1.377 . S
C1389 H1373 0.930 . S
C1389 C1388 1.377 . S
C1389 C1390 1.379 . S
C1390 H1374 0.931 . S
C1390 C1384 1.383 . S
C1390 C1389 1.379 . S
H1391 C1385 0.959 1_545 S
H1392 C1385 0.961 . S
H1393 C1385 0.960 . S
H1394 C1386 0.930 . S
H1395 C1387 0.929 . S
H1396 C1404 0.929 . S
H1397 C1406 0.930 . S
H1398 C1408 0.930 . S
H1399 C1411 0.929 . S
H1400 C1414 0.930 . S
H1401 C1416 0.960 . S
H1402 C1416 0.960 . S
H1403 C1416 0.960 1_545 S
C1404 H1396 0.929 . S
C1404 C1405 1.377 . S
C1404 C1406 1.384 . S
C1405 C1404 1.377 . S
C1405 C1411 1.390 . S
C1406 H1397 0.930 . S
C1406 C1404 1.384 . S
C1406 C1407 1.372 . S
C1407 C1406 1.372 . S
C1407 C1408 1.400 . S
C1407 C1412 1.490 . S
C1408 H1398 0.930 . S
C1408 C1407 1.400 . S
C1408 C1411 1.386 . S
H1409 C1425 0.930 . S
H1410 C1426 0.931 . S
C1411 H1399 0.929 . S
C1411 C1405 1.390 . S
C1411 C1408 1.386 . S
C1412 C1407 1.490 . S
C1412 C1414 1.395 . S
C1412 C1415 1.384 1_545 S
H1413 C1419 0.930 . S
C1414 H1400 0.930 . S
C1414 C1412 1.395 . S
C1414 C1417 1.433 . S
C1415 C1412 1.384 1_565 S
C1415 C1416 1.527 . S
C1415 C1419 1.418 . S
C1416 H1401 0.960 . S
C1416 H1402 0.960 . S
C1416 H1403 0.960 1_565 S
C1416 C1415 1.527 . S
C1417 C1414 1.433 . S
C1417 C1418 1.362 1_545 S
C1417 C1421 1.499 . S
C1418 C1417 1.362 1_565 S
C1418 C1419 1.385 . S
C1418 C1420 1.478 . S
C1419 H1413 0.930 . S
C1419 C1415 1.418 . S
C1419 C1418 1.385 . S
C1420 C1418 1.478 . S
C1420 C1422 1.381 . S
C1420 C1426 1.383 . S
C1421 C1417 1.499 . S
C1421 H1427 0.959 . S
C1421 H1428 0.961 . S
C1421 H1429 0.960 1_545 S
C1422 C1420 1.381 . S
C1422 C1423 1.394 . S
C1422 H1430 0.930 . S
C1423 C1422 1.394 . S
C1423 C1424 1.383 . S
C1423 H1431 0.929 . S
C1424 C1423 1.383 . S
C1424 C1425 1.377 . S
C1425 H1409 0.930 . S
C1425 C1424 1.377 . S
C1425 C1426 1.379 . S
C1426 H1410 0.931 . S
C1426 C1420 1.383 . S
C1426 C1425 1.379 . S
H1427 C1421 0.959 . S
H1428 C1421 0.961 . S
H1429 C1421 0.960 1_565 S
H1430 C1422 0.930 . S
H1431 C1423 0.929 . S
H1432 C1440 0.929 . S
H1433 C1442 0.930 . S
H1434 C1444 0.930 1_556 S
H1435 C1447 0.929 . S
H1436 C1450 0.930 . S
H1437 C1452 0.960 . S
H1438 C1452 0.960 . S
H1439 C1452 0.960 . S
C1440 H1432 0.929 . S
C1440 C1441 1.377 . S
C1440 C1442 1.384 . S
C1441 C1440 1.377 . S
C1441 C1447 1.390 . S
C1442 H1433 0.930 . S
C1442 C1440 1.384 . S
C1442 C1443 1.372 . S
C1443 C1442 1.372 . S
C1443 C1444 1.400 . S
C1443 C1448 1.490 . S
C1444 H1434 0.930 1_554 S
C1444 C1443 1.400 . S
C1444 C1447 1.386 . S
H1445 C1461 0.930 . S
H1446 C1462 0.931 . S
C1447 H1435 0.929 . S
C1447 C1441 1.390 . S
C1447 C1444 1.386 . S
C1448 C1443 1.490 . S
C1448 C1450 1.396 . S
C1448 C1451 1.403 . S
H1449 C1455 0.930 1_556 S
C1450 H1436 0.930 . S
C1450 C1448 1.396 . S
C1450 C1453 1.402 1_554 S
C1451 C1448 1.403 . S
C1451 C1452 1.524 . S
C1451 C1455 1.399 . S
C1452 H1437 0.960 . S
C1452 H1438 0.960 . S
C1452 H1439 0.960 . S
C1452 C1451 1.524 . S
C1453 C1450 1.402 1_556 S
C1453 C1454 1.392 . S
C1453 C1457 1.495 . S
C1454 C1453 1.392 . S
C1454 C1455 1.386 1_556 S
C1454 C1456 1.478 . S
C1455 H1449 0.930 1_554 S
C1455 C1451 1.399 . S
C1455 C1454 1.386 1_554 S
C1456 C1454 1.478 . S
C1456 C1458 1.381 . S
C1456 C1462 1.383 . S
C1457 C1453 1.495 . S
C1457 H1463 0.959 . S
C1457 H1464 0.961 . S
C1457 H1465 0.960 . S
C1458 C1456 1.381 . S
C1458 C1459 1.394 . S
C1458 H1466 0.930 1_556 S
C1459 C1458 1.394 . S
C1459 C1460 1.383 . S
C1459 H1467 0.929 . S
C1460 C1459 1.383 . S
C1460 C1461 1.377 . S
C1461 H1445 0.930 . S
C1461 C1460 1.377 . S
C1461 C1462 1.379 . S
C1462 H1446 0.931 . S
C1462 C1456 1.383 . S
C1462 C1461 1.379 . S
H1463 C1457 0.959 . S
H1464 C1457 0.961 . S
H1465 C1457 0.960 . S
H1466 C1458 0.930 1_554 S
H1467 C1459 0.929 . S
H1468 C1476 0.929 . S
H1469 C1478 0.930 . S
H1470 C1480 0.930 . S
H1471 C1483 0.929 . S
H1472 C1486 0.930 . S
H1473 C1488 0.960 . S
H1474 C1488 0.960 . S
H1475 C1488 0.960 . S
C1476 H1468 0.929 . S
C1476 C1477 1.377 . S
C1476 C1478 1.384 . S
C1477 C1476 1.377 . S
C1477 C1483 1.390 . S
C1478 H1469 0.930 . S
C1478 C1476 1.384 . S
C1478 C1479 1.372 . S
C1479 C1478 1.372 . S
C1479 C1480 1.400 . S
C1479 C1484 1.490 . S
C1480 H1470 0.930 . S
C1480 C1479 1.400 . S
C1480 C1483 1.386 . S
H1481 C1497 0.930 . S
H1482 C1498 0.931 . S
C1483 H1471 0.929 . S
C1483 C1477 1.390 . S
C1483 C1480 1.386 . S
C1484 C1479 1.490 . S
C1484 C1486 1.395 . S
C1484 C1487 1.403 . S
H1485 C1491 0.930 . S
C1486 H1472 0.930 . S
C1486 C1484 1.395 . S
C1486 C1489 1.403 1_655 S
C1487 C1484 1.403 . S
C1487 C1488 1.524 . S
C1487 C1491 1.400 1_655 S
C1488 H1473 0.960 . S
C1488 H1474 0.960 . S
C1488 H1475 0.960 . S
C1488 C1487 1.524 . S
C1489 C1486 1.403 1_455 S
C1489 C1490 1.392 . S
C1489 C1493 1.495 . S
C1490 C1489 1.392 . S
C1490 C1491 1.385 . S
C1490 C1492 1.478 . S
C1491 H1485 0.930 . S
C1491 C1487 1.400 1_455 S
C1491 C1490 1.385 . S
C1492 C1490 1.478 . S
C1492 C1494 1.381 . S
C1492 C1498 1.383 . S
C1493 C1489 1.495 . S
C1493 H1499 0.959 . S
C1493 H1500 0.961 . S
C1493 H1501 0.960 . S
C1494 C1492 1.381 . S
C1494 C1495 1.394 . S
C1494 H1502 0.930 . S
C1495 C1494 1.394 . S
C1495 C1496 1.383 . S
C1495 H1503 0.929 . S
C1496 C1495 1.383 . S
C1496 C1497 1.377 . S
C1497 H1481 0.930 . S
C1497 C1496 1.377 . S
C1497 C1498 1.379 . S
C1498 H1482 0.931 . S
C1498 C1492 1.383 . S
C1498 C1497 1.379 . S
H1499 C1493 0.959 . S
H1500 C1493 0.961 . S
H1501 C1493 0.960 . S
H1502 C1494 0.930 . S
H1503 C1495 0.929 . S
C649 C21 1.716 . S
C668 C301 1.687 . S
C685 C61 1.715 . S
C704 C181 1.730 . S
C721 C221 1.711 . S
C740 C101 1.733 . S
C757 C261 1.709 . S
C776 C141 1.711 . S
C793 C341 1.779 . S
C812 C621 1.777 . S
C829 C501 1.779 . S
C848 C381 1.777 . S
C865 C541 1.778 . S
C884 C421 1.773 . S
C901 C461 1.778 . S
C920 C581 1.775 . S
C937 C15 1.715 . S
C956 C175 1.716 . S
C973 C215 1.712 . S
C992 C55 1.705 . S
C1009 C255 1.714 . S
C1028 C95 1.705 . S
C1045 C135 1.715 . S
C1064 C295 1.718 . S
C1081 C495 1.718 . S
C1100 C335 1.709 . S
C1117 C535 1.718 . S
C1136 C375 1.708 . S
C1153 C575 1.717 . S
C1172 C415 1.714 . S
C1189 C455 1.716 . S
C1208 C615 1.716 . S
C1225 C322 1.819 . S
C1244 C2 1.758 . S
C1261 C42 1.748 . S
C1280 C362 1.817 . S
C1297 C82 1.746 . S
C1316 C402 1.815 . S
C1333 C442 1.820 . S
C1352 C122 1.769 . S
C1369 C162 1.747 . S
C1388 C482 1.816 . S
C1405 C202 1.744 . S
C1424 C522 1.809 . S
C1441 C562 1.820 . S
C1460 C242 1.765 . S
C1477 C602 1.818 . S
C1496 C282 1.728 . S
