# Generated by pormake.
# Topology sxf, (6)-cn, num edge types: 1
# Building blocks:
#     Node 0, Type 0, BuildingBlock: IZENUY_clean_sbu_0, # of connection points: 6
#     Node 1, Type 0, BuildingBlock: IZENUY_clean_sbu_0, # of connection points: 6
#     Node 2, Type 0, BuildingBlock: IZENUY_clean_sbu_0, # of connection points: 6
#     Node 3, Type 0, BuildingBlock: IZENUY_clean_sbu_0, # of connection points: 6
#     Node 4, Type 0, BuildingBlock: IZENUY_clean_sbu_0, # of connection points: 6
#     Node 5, Type 0, BuildingBlock: IZENUY_clean_sbu_0, # of connection points: 6
#     Node 6, Type 0, BuildingBlock: IZENUY_clean_sbu_0, # of connection points: 6
#     Node 7, Type 0, BuildingBlock: IZENUY_clean_sbu_0, # of connection points: 6
#     Node 8, Type 0, BuildingBlock: IZENUY_clean_sbu_0, # of connection points: 6
#     Node 9, Type 0, BuildingBlock: IZENUY_clean_sbu_0, # of connection points: 6
#     Node 10, Type 0, BuildingBlock: IZENUY_clean_sbu_0, # of connection points: 6
#     Node 11, Type 0, BuildingBlock: IZENUY_clean_sbu_0, # of connection points: 6
#     Node 12, Type 0, BuildingBlock: IZENUY_clean_sbu_0, # of connection points: 6
#     Node 13, Type 0, BuildingBlock: IZENUY_clean_sbu_0, # of connection points: 6
#     Node 14, Type 0, BuildingBlock: IZENUY_clean_sbu_0, # of connection points: 6
#     Node 15, Type 0, BuildingBlock: IZENUY_clean_sbu_0, # of connection points: 6
#     Node 16, Type 0, BuildingBlock: IZENUY_clean_sbu_0, # of connection points: 6
#     Node 17, Type 0, BuildingBlock: IZENUY_clean_sbu_0, # of connection points: 6
#     Node 18, Type 0, BuildingBlock: IZENUY_clean_sbu_0, # of connection points: 6
#     Node 19, Type 0, BuildingBlock: IZENUY_clean_sbu_0, # of connection points: 6
#     Node 20, Type 0, BuildingBlock: IZENUY_clean_sbu_0, # of connection points: 6
#     Node 21, Type 0, BuildingBlock: IZENUY_clean_sbu_0, # of connection points: 6
#     Node 22, Type 0, BuildingBlock: IZENUY_clean_sbu_0, # of connection points: 6
#     Node 23, Type 0, BuildingBlock: IZENUY_clean_sbu_0, # of connection points: 6
#     Edge 24, Type (0, 0), BuildingBlock: XIVTED_clean_linker_0, # of connection points: 2
#     Edge 25, Type (0, 0), BuildingBlock: XIVTED_clean_linker_0, # of connection points: 2
#     Edge 26, Type (0, 0), BuildingBlock: XIVTED_clean_linker_0, # of connection points: 2
#     Edge 27, Type (0, 0), BuildingBlock: XIVTED_clean_linker_0, # of connection points: 2
#     Edge 28, Type (0, 0), BuildingBlock: XIVTED_clean_linker_0, # of connection points: 2
#     Edge 29, Type (0, 0), BuildingBlock: XIVTED_clean_linker_0, # of connection points: 2
#     Edge 30, Type (0, 0), BuildingBlock: XIVTED_clean_linker_0, # of connection points: 2
#     Edge 31, Type (0, 0), BuildingBlock: XIVTED_clean_linker_0, # of connection points: 2
#     Edge 32, Type (0, 0), BuildingBlock: XIVTED_clean_linker_0, # of connection points: 2
#     Edge 33, Type (0, 0), BuildingBlock: XIVTED_clean_linker_0, # of connection points: 2
#     Edge 34, Type (0, 0), BuildingBlock: XIVTED_clean_linker_0, # of connection points: 2
#     Edge 35, Type (0, 0), BuildingBlock: XIVTED_clean_linker_0, # of connection points: 2
#     Edge 36, Type (0, 0), BuildingBlock: XIVTED_clean_linker_0, # of connection points: 2
#     Edge 37, Type (0, 0), BuildingBlock: XIVTED_clean_linker_0, # of connection points: 2
#     Edge 38, Type (0, 0), BuildingBlock: XIVTED_clean_linker_0, # of connection points: 2
#     Edge 39, Type (0, 0), BuildingBlock: XIVTED_clean_linker_0, # of connection points: 2
#     Edge 40, Type (0, 0), BuildingBlock: XIVTED_clean_linker_0, # of connection points: 2
#     Edge 41, Type (0, 0), BuildingBlock: XIVTED_clean_linker_0, # of connection points: 2
#     Edge 42, Type (0, 0), BuildingBlock: XIVTED_clean_linker_0, # of connection points: 2
#     Edge 43, Type (0, 0), BuildingBlock: XIVTED_clean_linker_0, # of connection points: 2
#     Edge 44, Type (0, 0), BuildingBlock: XIVTED_clean_linker_0, # of connection points: 2
#     Edge 45, Type (0, 0), BuildingBlock: XIVTED_clean_linker_0, # of connection points: 2
#     Edge 46, Type (0, 0), BuildingBlock: XIVTED_clean_linker_0, # of connection points: 2
#     Edge 47, Type (0, 0), BuildingBlock: XIVTED_clean_linker_0, # of connection points: 2
#     Edge 48, Type (0, 0), BuildingBlock: XIVTED_clean_linker_0, # of connection points: 2
#     Edge 49, Type (0, 0), BuildingBlock: XIVTED_clean_linker_0, # of connection points: 2
#     Edge 50, Type (0, 0), BuildingBlock: XIVTED_clean_linker_0, # of connection points: 2
#     Edge 51, Type (0, 0), BuildingBlock: XIVTED_clean_linker_0, # of connection points: 2
#     Edge 52, Type (0, 0), BuildingBlock: XIVTED_clean_linker_0, # of connection points: 2
#     Edge 53, Type (0, 0), BuildingBlock: XIVTED_clean_linker_0, # of connection points: 2
#     Edge 54, Type (0, 0), BuildingBlock: XIVTED_clean_linker_0, # of connection points: 2
#     Edge 55, Type (0, 0), BuildingBlock: XIVTED_clean_linker_0, # of connection points: 2
#     Edge 56, Type (0, 0), BuildingBlock: XIVTED_clean_linker_0, # of connection points: 2
#     Edge 57, Type (0, 0), BuildingBlock: XIVTED_clean_linker_0, # of connection points: 2
#     Edge 58, Type (0, 0), BuildingBlock: XIVTED_clean_linker_0, # of connection points: 2
#     Edge 59, Type (0, 0), BuildingBlock: XIVTED_clean_linker_0, # of connection points: 2
#     Edge 60, Type (0, 0), BuildingBlock: XIVTED_clean_linker_0, # of connection points: 2
#     Edge 61, Type (0, 0), BuildingBlock: XIVTED_clean_linker_0, # of connection points: 2
#     Edge 62, Type (0, 0), BuildingBlock: XIVTED_clean_linker_0, # of connection points: 2
#     Edge 63, Type (0, 0), BuildingBlock: XIVTED_clean_linker_0, # of connection points: 2
#     Edge 64, Type (0, 0), BuildingBlock: XIVTED_clean_linker_0, # of connection points: 2
#     Edge 65, Type (0, 0), BuildingBlock: XIVTED_clean_linker_0, # of connection points: 2
#     Edge 66, Type (0, 0), BuildingBlock: XIVTED_clean_linker_0, # of connection points: 2
#     Edge 67, Type (0, 0), BuildingBlock: XIVTED_clean_linker_0, # of connection points: 2
#     Edge 68, Type (0, 0), BuildingBlock: XIVTED_clean_linker_0, # of connection points: 2
#     Edge 69, Type (0, 0), BuildingBlock: XIVTED_clean_linker_0, # of connection points: 2
#     Edge 70, Type (0, 0), BuildingBlock: XIVTED_clean_linker_0, # of connection points: 2
#     Edge 71, Type (0, 0), BuildingBlock: XIVTED_clean_linker_0, # of connection points: 2
#     Edge 72, Type (0, 0), BuildingBlock: XIVTED_clean_linker_0, # of connection points: 2
#     Edge 73, Type (0, 0), BuildingBlock: XIVTED_clean_linker_0, # of connection points: 2
#     Edge 74, Type (0, 0), BuildingBlock: XIVTED_clean_linker_0, # of connection points: 2
#     Edge 75, Type (0, 0), BuildingBlock: XIVTED_clean_linker_0, # of connection points: 2
#     Edge 76, Type (0, 0), BuildingBlock: XIVTED_clean_linker_0, # of connection points: 2
#     Edge 77, Type (0, 0), BuildingBlock: XIVTED_clean_linker_0, # of connection points: 2
#     Edge 78, Type (0, 0), BuildingBlock: XIVTED_clean_linker_0, # of connection points: 2
#     Edge 79, Type (0, 0), BuildingBlock: XIVTED_clean_linker_0, # of connection points: 2
#     Edge 80, Type (0, 0), BuildingBlock: XIVTED_clean_linker_0, # of connection points: 2
#     Edge 81, Type (0, 0), BuildingBlock: XIVTED_clean_linker_0, # of connection points: 2
#     Edge 82, Type (0, 0), BuildingBlock: XIVTED_clean_linker_0, # of connection points: 2
#     Edge 83, Type (0, 0), BuildingBlock: XIVTED_clean_linker_0, # of connection points: 2
#     Edge 84, Type (0, 0), BuildingBlock: XIVTED_clean_linker_0, # of connection points: 2
#     Edge 85, Type (0, 0), BuildingBlock: XIVTED_clean_linker_0, # of connection points: 2
#     Edge 86, Type (0, 0), BuildingBlock: XIVTED_clean_linker_0, # of connection points: 2
#     Edge 87, Type (0, 0), BuildingBlock: XIVTED_clean_linker_0, # of connection points: 2
#     Edge 88, Type (0, 0), BuildingBlock: XIVTED_clean_linker_0, # of connection points: 2
#     Edge 89, Type (0, 0), BuildingBlock: XIVTED_clean_linker_0, # of connection points: 2
#     Edge 90, Type (0, 0), BuildingBlock: XIVTED_clean_linker_0, # of connection points: 2
#     Edge 91, Type (0, 0), BuildingBlock: XIVTED_clean_linker_0, # of connection points: 2
#     Edge 92, Type (0, 0), BuildingBlock: XIVTED_clean_linker_0, # of connection points: 2
#     Edge 93, Type (0, 0), BuildingBlock: XIVTED_clean_linker_0, # of connection points: 2
#     Edge 94, Type (0, 0), BuildingBlock: XIVTED_clean_linker_0, # of connection points: 2
#     Edge 95, Type (0, 0), BuildingBlock: XIVTED_clean_linker_0, # of connection points: 2
# Relax obj value: 0.435
# Max RMSD: 0.176
# Mean RMSD: 0.176
data_MOF--net-sxf--node1-IZENUY_clean_sbu_0--edge1-XIVTED_clean_linker_0
_symmetry_space_group_name_H-M    P1
_symmetry_Int_Tables_number       1
_symmetry_cell_setting            triclinic
loop_
_symmetry_equiv_pos_as_xyz
'x, y, z'
_cell_length_a     45.922141
_cell_length_b     45.90852
_cell_length_c     45.933306
_cell_angle_alpha  90.013188
_cell_angle_beta   89.862803
_cell_angle_gamma 89.930112
loop_
_atom_site_label
_atom_site_type_symbol
_atom_site_fract_x
_atom_site_fract_y
_atom_site_fract_z
_atom_type_partial_charge
Fe0 Fe 0.02376 0.45923 0.24296 0.0
Fe1 Fe 0.05764 0.40339 0.22679 0.0
O2 O 0.03648 0.43404 0.21654 0.0
Fe3 Fe 0.02796 0.43917 0.17961 0.0
O4 O 0.04727 0.47335 0.179 0.0
O5 O 0.02717 0.49124 0.21881 0.0
O6 O 0.06045 0.46685 0.25457 0.0
C7 C 0.07851 0.44824 0.26339 0.0
C8 C 0.97619 0.45622 0.2078 0.0
O9 O 0.07508 0.42142 0.25798 0.0
C10 C 0.01969 0.38088 0.18407 0.0
O11 O 0.01822 0.43128 0.27129 0.0
O12 O 0.02824 0.38999 0.24889 0.0
O13 O 0.99312 0.45719 0.18615 0.0
O14 O 0.9859 0.45369 0.23324 0.0
C15 C 0.08596 0.41885 0.17745 0.0
O16 O 0.04366 0.37944 0.19766 0.0
O17 O 0.00817 0.40521 0.17872 0.0
C18 C 0.0148 0.404 0.26831 0.0
O19 O 0.08836 0.41517 0.20454 0.0
O20 O 0.06123 0.42202 0.16584 0.0
C21 C 0.04199 0.49459 0.19566 0.0
Fe22 Fe 0.45785 0.53189 0.74106 0.0
Fe23 Fe 0.42561 0.5876 0.72094 0.0
O24 O 0.44248 0.5537 0.71311 0.0
Fe25 Fe 0.44451 0.54146 0.67677 0.0
O26 O 0.42242 0.51012 0.68546 0.0
O27 O 0.44905 0.49696 0.72302 0.0
O28 O 0.42338 0.52911 0.75945 0.0
C29 C 0.40761 0.55024 0.7672 0.0
C30 C 0.49901 0.52588 0.69886 0.0
O31 O 0.41028 0.57537 0.75598 0.0
C32 C 0.46024 0.59842 0.67126 0.0
O33 O 0.46881 0.56267 0.76398 0.0
O34 O 0.45826 0.6014 0.73791 0.0
O35 O 0.47834 0.52099 0.68147 0.0
O36 O 0.49386 0.53362 0.72463 0.0
C37 C 0.38919 0.56774 0.67862 0.0
O38 O 0.43868 0.60546 0.6872 0.0
O39 O 0.46677 0.5721 0.66704 0.0
C40 C 0.47216 0.58941 0.75822 0.0
O41 O 0.39136 0.57648 0.70447 0.0
O42 O 0.41134 0.55973 0.66449 0.0
C43 C 0.4297 0.4913 0.70411 0.0
Fe44 Fe 0.57029 0.08948 0.76988 0.0
Fe45 Fe 0.54139 0.04625 0.81137 0.0
O46 O 0.54823 0.05822 0.7756 0.0
Fe47 Fe 0.53292 0.03915 0.74576 0.0
O48 O 0.56408 0.04596 0.7216 0.0
O49 O 0.5964 0.06839 0.7491 0.0
O50 O 0.59336 0.08333 0.80191 0.0
C51 C 0.59874 0.0601 0.81579 0.0
C52 C 0.5259 0.09557 0.72802 0.0
O53 O 0.57987 0.04024 0.81763 0.0
C54 C 0.4875 0.03909 0.78786 0.0
O55 O 0.54529 0.11262 0.79041 0.0
O56 O 0.54257 0.08258 0.82749 0.0
O57 O 0.51389 0.07155 0.73363 0.0
O58 O 0.55136 0.10104 0.73688 0.0
C59 C 0.54752 0.99334 0.78038 0.0
O60 O 0.50264 0.05158 0.80701 0.0
O61 O 0.49922 0.02884 0.76502 0.0
C62 C 0.53733 0.10709 0.81614 0.0
O63 O 0.53849 0.00774 0.80199 0.0
O64 O 0.55063 0.00513 0.75581 0.0
C65 C 0.59022 0.05271 0.7274 0.0
Fe66 Fe 0.93564 0.9485 0.31643 0.0
Fe67 Fe 0.94592 0.95026 0.25102 0.0
O68 O 0.93119 0.93237 0.28199 0.0
Fe69 Fe 0.91222 0.89877 0.27846 0.0
O70 O 0.87942 0.91283 0.29565 0.0
O71 O 0.90156 0.9349 0.33174 0.0
O72 O 0.91578 0.9807 0.30526 0.0
C73 C 0.92429 -0.00302 0.28488 0.0
C74 C 0.94748 0.89131 0.32826 0.0
O75 O 0.9417 0.98735 0.26573 0.0
C76 C 0.95629 0.89089 0.23904 0.0
O77 O 0.97093 0.96476 0.30778 0.0
O78 O 0.98287 0.9474 0.26478 0.0
O79 O 0.92577 0.88357 0.3131 0.0
O80 O 0.95572 0.91744 0.32913 0.0
C81 C 0.89196 0.93382 0.23236 0.0
O82 O 0.95282 0.91679 0.23037 0.0
O83 O 0.94329 0.88168 0.26133 0.0
C84 C 0.99003 0.957 0.28946 0.0
O85 O 0.91001 0.9541 0.23619 0.0
O86 O 0.89564 0.90868 0.24325 0.0
C87 C 0.87868 0.92526 0.32005 0.0
Fe88 Fe 0.21132 0.07975 0.38359 0.0
Fe89 Fe 0.17052 0.06451 0.43383 0.0
O90 O 0.20555 0.06342 0.41821 0.0
Fe91 Fe 0.23458 0.04605 0.43675 0.0
O92 O 0.26198 0.07184 0.42341 0.0
O93 O 0.23699 0.10515 0.3993 0.0
O94 O 0.18301 0.10803 0.38802 0.0
C95 C 0.17223 0.11897 0.411 0.0
C96 C 0.24682 0.02938 0.3812 0.0
O97 O 0.1706 0.10395 0.43388 0.0
C98 C 0.18666 0.0085 0.44668 0.0
O99 O 0.18596 0.0547 0.36644 0.0
O100 O 0.15165 0.06265 0.39887 0.0
O101 O 0.24074 0.02141 0.40669 0.0
O102 O 0.24059 0.05479 0.37255 0.0
C103 C 0.20731 0.07281 0.48251 0.0
O104 O 0.16838 0.02521 0.43483 0.0
O105 O 0.21193 0.01741 0.4531 0.0
C106 C 0.16016 0.05122 0.37526 0.0
O107 O 0.18306 0.06626 0.47142 0.0
O108 O 0.23076 0.06911 0.46871 0.0
C109 C 0.25919 0.09754 0.41366 0.0
Fe110 Fe 0.31457 0.94268 0.95226 0.0
Fe111 Fe 0.25102 0.96057 0.95883 0.0
O112 O 0.27872 0.94247 0.93871 0.0
Fe113 Fe 0.27091 0.92479 0.90523 0.0
O114 O 0.28489 0.88992 0.91781 0.0
O115 O 0.32498 0.90763 0.93666 0.0
O116 O 0.30329 0.92318 0.98453 0.0
C117 C 0.28514 0.93346 0.0024 0.0
C118 C 0.32345 0.95501 0.89473 0.0
O119 O 0.26746 0.95321 0.99463 0.0
C120 C 0.23693 0.97373 0.90067 0.0
O121 O 0.31137 0.9781 0.97021 0.0
O122 O 0.26937 0.99543 0.95568 0.0
O123 O 0.30594 0.93475 0.88786 0.0
O124 O 0.32717 0.96229 0.92087 0.0
C125 C 0.22285 0.91111 0.94231 0.0
O126 O 0.22958 0.97099 0.92703 0.0
O127 O 0.2566 0.95805 0.88976 0.0
C128 C 0.29515 -0.00056 0.96395 0.0
O129 O 0.23101 0.92728 0.9629 0.0
O130 O 0.23459 0.91224 0.91723 0.0
C131 C 0.30989 0.88628 0.92837 0.0
Fe132 Fe 0.7203 0.42424 0.58804 0.0
Fe133 Fe 0.686 0.45479 0.53997 0.0
O134 O 0.7196 0.44436 0.55508 0.0
Fe135 Fe 0.7525 0.45431 0.53738 0.0
O136 O 0.77233 0.42173 0.54924 0.0
O137 O 0.73904 0.39429 0.57027 0.0
O138 O 0.68597 0.4049 0.58127 0.0
C139 C 0.67212 0.40017 0.55794 0.0
C140 C 0.76669 0.46407 0.59419 0.0
O141 O 0.67445 0.41723 0.53657 0.0
C142 C 0.71754 0.50431 0.53123 0.0
O143 O 0.70155 0.45298 0.60799 0.0
O144 O 0.66758 0.45909 0.57492 0.0
O145 O 0.76418 0.47476 0.56902 0.0
O146 O 0.75459 0.44017 0.60073 0.0
C147 C 0.71928 0.43876 0.49078 0.0
O148 O 0.69546 0.49286 0.54276 0.0
O149 O 0.73858 0.4888 0.52245 0.0
C150 C 0.67762 0.46386 0.60007 0.0
O151 O 0.69838 0.45256 0.50222 0.0
O152 O 0.74275 0.43456 0.5044 0.0
C153 C 0.76327 0.39704 0.55758 0.0
Fe154 Fe 0.76324 0.56079 0.08365 0.0
Fe155 Fe 0.81096 0.53796 0.04342 0.0
O156 O 0.77376 0.54204 0.05157 0.0
Fe157 Fe 0.74738 0.52718 0.02768 0.0
O158 O 0.73185 0.56274 0.02173 0.0
O159 O 0.72969 0.57607 0.06775 0.0
O160 O 0.78149 0.59403 0.07231 0.0
C161 C 0.80819 0.59489 0.06613 0.0
C162 C 0.7253 0.51499 0.08383 0.0
O163 O 0.82229 0.57181 0.06107 0.0
C164 C 0.78774 0.48373 0.02763 0.0
O165 O 0.79489 0.54845 0.10529 0.0
O166 O 0.81649 0.5171 0.07615 0.0
O167 O 0.72102 0.51858 0.05679 0.0
O168 O 0.74473 0.529 0.09703 0.0
C169 C 0.78982 0.55138 0.9899 0.0
O170 O 0.80686 0.50323 0.02447 0.0
O171 O 0.7615 0.49041 0.03214 0.0
C172 C 0.81069 0.52606 0.10142 0.0
O173 O 0.8068 0.55854 0.01022 0.0
O174 O 0.76922 0.53345 0.99437 0.0
C175 C 0.72292 0.57985 0.04126 0.0
Fe176 Fe 0.40909 0.22013 0.06877 0.0
Fe177 Fe 0.45709 0.18382 0.04059 0.0
O178 O 0.44124 0.21805 0.04742 0.0
Fe179 Fe 0.45726 0.25004 0.03283 0.0
O180 O 0.44668 0.27296 0.06402 0.0
O181 O 0.42759 0.24218 0.09562 0.0
O182 O 0.41756 0.18819 0.09149 0.0
C183 C 0.44171 0.17614 0.09723 0.0
C184 C 0.39966 0.26218 0.02487 0.0
O185 O 0.4624 0.17724 0.07915 0.0
C186 C 0.46267 0.20899 0.98701 0.0
O187 O 0.38885 0.19814 0.04277 0.0
O188 O 0.42255 0.16426 0.04035 0.0
O189 O 0.42426 0.2589 0.01306 0.0
O190 O 0.39474 0.25233 0.05013 0.0
C191 C 0.50584 0.22012 0.04936 0.0
O192 O 0.45251 0.18828 0.00186 0.0
O193 O 0.47067 0.23248 -0.00089 0.0
C194 C 0.39734 0.17344 0.03422 0.0
O195 O 0.49446 0.19726 0.03923 0.0
O196 O 0.49153 0.24345 0.05155 0.0
C197 C 0.44011 0.26598 0.08996 0.0
Fe198 Fe 0.96522 0.2428 0.96285 0.0
Fe199 Fe 0.91557 0.27135 0.92825 0.0
O200 O 0.94653 0.27435 0.95096 0.0
Fe201 Fe 0.95882 0.3089 0.96195 0.0
O202 O -0.00262 0.29855 0.96353 0.0
O203 O -0.00131 0.25439 0.94505 0.0
O204 O 0.95721 0.22166 0.92986 0.0
C205 C 0.95112 0.23028 0.90438 0.0
C206 C 0.96474 0.27875 0.01255 0.0
O207 O 0.93698 0.25347 0.90028 0.0
C208 C 0.89784 0.31377 0.96588 0.0
O209 O 0.93288 0.22971 0.98115 0.0
O210 O 0.9036 0.23645 0.94386 0.0
O211 O 0.95293 0.29985 -0.00032 0.0
O212 O 0.97648 0.25828 -0.0018 0.0
C213 C 0.94526 0.32051 0.90558 0.0
O214 O 0.89225 0.28923 0.95491 0.0
O215 O 0.9226 0.3254 0.96269 0.0
C216 C 0.90882 0.22558 0.96868 0.0
O217 O 0.92214 0.30579 0.90885 0.0
O218 O 0.96505 0.31988 0.92456 0.0
C219 C 0.01087 0.27835 0.9505 0.0
Fe220 Fe 0.54878 0.73434 0.46548 0.0
Fe221 Fe 0.6024 0.71948 0.42782 0.0
O222 O 0.57298 0.70838 0.4503 0.0
Fe223 Fe 0.56797 0.67117 0.4577 0.0
O224 O 0.53247 0.67146 0.44064 0.0
O225 O 0.51677 0.71031 0.46406 0.0
O226 O 0.5387 0.74672 0.42977 0.0
C227 C 0.55606 0.75625 0.41083 0.0
C228 C 0.55428 0.69776 0.51152 0.0
O229 O 0.58314 0.75119 0.41247 0.0
C230 C 0.62666 0.67571 0.4632 0.0
O231 O 0.57674 0.76272 0.46959 0.0
O232 O 0.61748 0.74068 0.45711 0.0
O233 O 0.5523 0.67667 0.49394 0.0
O234 O 0.55694 0.72348 0.50249 0.0
C235 C 0.58503 0.6713 0.39853 0.0
O236 O 0.62713 0.68987 0.4395 0.0
O237 O 0.6029 0.6694 0.47532 0.0
C238 C 0.60413 0.7599 0.47146 0.0
O239 O 0.58894 0.69842 0.39712 0.0
O240 O 0.58304 0.65855 0.42286 0.0
C241 C 0.51189 0.68773 0.44892 0.0
Fe242 Fe 0.04643 0.81656 0.55612 0.0
Fe243 Fe 0.04838 0.75227 0.53806 0.0
O244 O 0.06497 0.78299 0.55456 0.0
Fe245 Fe 0.10051 0.78035 0.56939 0.0
O246 O 0.09477 0.80817 0.59764 0.0
O247 O 0.048 0.81716 0.59559 0.0
O248 O 0.01028 0.80058 0.55943 0.0
C249 C 0.00166 0.77553 0.56675 0.0
C250 C 0.10328 0.83221 0.54057 0.0
O251 O 0.01728 0.75329 0.56269 0.0
C252 C 0.10419 0.74557 0.51881 0.0
O253 O 0.04387 0.8181 0.5169 0.0
O254 O 0.02861 0.77317 0.51037 0.0
O255 O 0.11447 0.80726 0.54373 0.0
O256 O 0.07933 0.83855 0.55265 0.0
C257 C 0.07543 0.72994 0.5884 0.0
O258 O 0.07784 0.74886 0.51198 0.0
O259 O 0.11303 0.75222 0.544 0.0
C260 C 0.03284 0.79871 0.50096 0.0
O261 O 0.06536 0.72619 0.56302 0.0
O262 O 0.08801 0.75339 0.59546 0.0
C263 C 0.07169 0.81778 0.60938 0.0
Fe264 Fe 0.93176 0.59551 0.76544 0.0
Fe265 Fe 0.96349 0.5613 0.81253 0.0
O266 O 0.95493 0.56633 0.7756 0.0
Fe267 Fe 0.96949 0.5425 0.74891 0.0
O268 O 0.93341 0.53227 0.73737 0.0
O269 O 0.91619 0.57673 0.73376 0.0
O270 O 0.90171 0.58115 0.78697 0.0
C271 C 0.90392 0.57686 0.814 0.0
C272 C 0.97492 0.59842 0.72455 0.0
O273 O 0.92861 0.57532 0.82608 0.0
C274 C 0.01665 0.54845 0.78407 0.0
O275 O 0.94331 0.61992 0.79511 0.0
O276 O 0.98039 0.59679 0.81431 0.0
O277 O 0.97278 0.57109 0.72095 0.0
O278 O 0.96053 0.61132 0.74405 0.0
C279 C 0.95467 0.50508 0.79573 0.0
O280 O -0.00013 0.54648 0.80583 0.0
O281 O 0.00674 0.55076 0.75868 0.0
C282 C 0.96701 0.62019 0.80917 0.0
O283 O 0.94714 0.52548 0.81253 0.0
O284 O 0.96892 0.51011 0.77259 0.0
C285 C 0.91425 0.54974 0.72854 0.0
Fe286 Fe 0.53394 0.45599 0.25272 0.0
Fe287 Fe 0.56937 0.40348 0.27521 0.0
O288 O 0.55082 0.43679 0.28166 0.0
Fe289 Fe 0.54899 0.45064 0.31741 0.0
O290 O 0.54859 0.48889 0.3066 0.0
O291 O 0.55576 0.4884 0.25928 0.0
O292 O 0.56137 0.44515 0.22571 0.0
C293 C 0.58718 0.43574 0.22858 0.0
C294 C 0.49332 0.46047 0.29886 0.0
O295 O 0.59474 0.42132 0.25076 0.0
C296 C 0.53935 0.39107 0.32491 0.0
O297 O 0.51102 0.42514 0.24394 0.0
O298 O 0.54594 0.39233 0.24502 0.0
O299 O 0.50974 0.44856 0.31731 0.0
O300 O 0.50341 0.46992 0.27494 0.0
C301 C 0.60499 0.43162 0.3171 0.0
O302 O 0.54451 0.38378 0.29897 0.0
O303 O 0.54884 0.41488 0.33485 0.0
C304 C 0.5203 0.3999 0.23837 0.0
O305 O 0.59631 0.40859 0.30456 0.0
O306 O 0.58829 0.45332 0.31944 0.0
C307 C 0.55732 0.50105 0.28356 0.0
Fe308 Fe 0.42846 0.90051 0.22563 0.0
Fe309 Fe 0.46102 0.94021 0.18339 0.0
O310 O 0.45074 0.93132 0.21923 0.0
Fe311 Fe 0.46261 0.95318 0.24866 0.0
O312 O 0.42968 0.94718 0.27076 0.0
O313 O 0.4004 0.92319 0.24148 0.0
O314 O 0.4086 0.90325 0.19123 0.0
C315 C 0.40429 0.92513 0.17509 0.0
C316 C 0.46921 0.89857 0.27117 0.0
O317 O 0.42326 0.94486 0.17278 0.0
C318 C 0.51193 0.95126 0.21124 0.0
O319 O 0.45521 0.87589 0.20982 0.0
O320 O 0.46181 0.9025 0.17055 0.0
O321 O 0.48129 0.92241 0.2649 0.0
O322 O 0.44433 0.89233 0.26119 0.0
C323 C 0.45067 0.99546 0.20893 0.0
O324 O 0.49931 0.93618 0.1921 0.0
O325 O 0.4975 0.96306 0.23165 0.0
C326 C 0.46508 0.87893 0.18438 0.0
O327 O 0.46234 0.97951 0.18973 0.0
O328 O 0.44493 0.98561 0.23395 0.0
C329 C 0.40428 0.93988 0.26288 0.0
Fe330 Fe 0.08487 0.09913 0.71448 0.0
Fe331 Fe 0.06477 0.05123 0.673 0.0
O332 O 0.06678 0.06546 0.70855 0.0
Fe333 Fe 0.05074 0.04645 0.73815 0.0
O334 O 0.0787 0.05806 0.76417 0.0
O335 O 0.11132 0.0814 0.73763 0.0
O336 O 0.11079 0.09506 0.6841 0.0
C337 C 0.11982 0.07257 0.67091 0.0
C338 C 0.03673 0.10227 0.75265 0.0
O339 O 0.1041 0.05016 0.66966 0.0
C340 C 0.00976 0.03897 0.6927 0.0
O341 O 0.05913 0.1184 0.69165 0.0
O342 O 0.06215 0.08698 0.65548 0.0
O343 O 0.02754 0.07713 0.74677 0.0
O344 O 0.06229 0.10988 0.74569 0.0
C345 C 0.07435 0.00105 0.70766 0.0
O346 O 0.02548 0.05133 0.6739 0.0
O347 O 0.02012 0.03153 0.71713 0.0
C348 C 0.05365 0.1111 0.6658 0.0
O349 O 0.06654 0.01313 0.68424 0.0
O350 O 0.07252 0.01403 0.73177 0.0
C351 C 0.10455 0.06687 0.75998 0.0
Fe352 Fe 0.78484 0.91374 0.60173 0.0
Fe353 Fe 0.82385 0.93113 0.55088 0.0
O354 O 0.78939 0.93175 0.56779 0.0
Fe355 Fe 0.75968 0.9502 0.55142 0.0
O356 O 0.73291 0.9232 0.56395 0.0
O357 O 0.75902 0.88887 0.58541 0.0
O358 O 0.81326 0.88616 0.59542 0.0
C359 C 0.82331 0.87594 0.57186 0.0
C360 C 0.74849 0.96308 0.60815 0.0
O361 O 0.82383 0.8916 0.54935 0.0
C362 C 0.80757 0.98795 0.54128 0.0
O363 O 0.81064 0.9384 0.61918 0.0
O364 O 0.84382 0.93168 0.58523 0.0
O365 O 0.75443 0.97307 0.58333 0.0
O366 O 0.7554 0.93729 0.61472 0.0
C367 C 0.78524 0.92547 0.50327 0.0
O368 O 0.82618 0.9704 0.55125 0.0
O369 O 0.78173 0.97989 0.53607 0.0
C370 C 0.83617 0.94228 0.60952 0.0
O371 O 0.81002 0.93087 0.51376 0.0
O372 O 0.76232 0.92921 0.51792 0.0
C373 C 0.7364 0.89692 0.57191 0.0
Fe374 Fe 0.73838 0.03234 0.03944 0.0
Fe375 Fe 0.7209 0.07272 0.08991 0.0
O376 O 0.71134 0.05201 0.05884 0.0
Fe377 Fe 0.67471 0.05077 0.04768 0.0
O378 O 0.68328 0.04768 0.00888 0.0
O379 O 0.73096 0.05181 0.00597 0.0
O380 O 0.76697 0.05933 0.04636 0.0
C381 C 0.76481 0.08622 0.05238 0.0
C382 C 0.69026 0.99384 0.03958 0.0
O383 O 0.74444 0.09576 0.06827 0.0
C384 C 0.67128 0.0464 0.10864 0.0
O385 O 0.74746 0.01124 0.07149 0.0
O386 O 0.75115 0.04909 0.10034 0.0
O387 O 0.67341 0.01162 0.05208 0.0
O388 O 0.7143 0.00221 0.02895 0.0
C389 C 0.6783 0.1079 0.06259 0.0
O390 O 0.69806 0.05026 0.11299 0.0
O391 O 0.65964 0.05351 0.08471 0.0
C392 C 0.75453 0.02217 0.09557 0.0
O393 O 0.69204 0.10032 0.08526 0.0
O394 O 0.67385 0.08982 0.04247 0.0
C395 C 0.70609 0.05381 0.9947 0.0
Fe396 Fe 0.24022 0.5335 0.46054 0.0
Fe397 Fe 0.27363 0.56376 0.41087 0.0
O398 O 0.27345 0.54227 0.4429 0.0
Fe399 Fe 0.30648 0.52934 0.45738 0.0
O400 O 0.2942 0.53012 0.49533 0.0
O401 O 0.25153 0.55181 0.49393 0.0
O402 O 0.22186 0.56741 0.45006 0.0
C403 C 0.23213 0.5919 0.44265 0.0
C404 C 0.27245 0.48138 0.4641 0.0
O405 O 0.25636 0.59382 0.42986 0.0
C406 C 0.31466 0.52306 0.39687 0.0
O407 O 0.22716 0.51482 0.42833 0.0
O408 O 0.23863 0.54981 0.39762 0.0
O409 O 0.29491 0.49211 0.45262 0.0
O410 O 0.25253 0.4977 0.47405 0.0
C411 C 0.32283 0.58415 0.44206 0.0
O412 O 0.29113 0.53519 0.38962 0.0
O413 O 0.32479 0.52587 0.42226 0.0
C414 C 0.22534 0.52632 0.40344 0.0
O415 O 0.30873 0.58118 0.41857 0.0
O416 O 0.31999 0.56608 0.46257 0.0
C417 C 0.27444 0.54501 0.50746 0.0
Fe418 Fe 0.22359 0.43177 0.90441 0.0
Fe419 Fe 0.17458 0.45404 0.94348 0.0
O420 O 0.21204 0.44998 0.93641 0.0
Fe421 Fe 0.23767 0.46432 0.96133 0.0
O422 O 0.25269 0.42859 0.9674 0.0
O423 O 0.25648 0.41607 0.92124 0.0
O424 O 0.20486 0.39849 0.91487 0.0
C425 C 0.17797 0.39752 0.92005 0.0
C426 C 0.26186 0.47722 0.9063 0.0
O427 O 0.1636 0.4205 0.92487 0.0
C428 C 0.19756 0.50795 0.9603 0.0
O429 O 0.19274 0.4447 0.88194 0.0
O430 O 0.17026 0.47547 0.91104 0.0
O431 O 0.26512 0.47296 0.93335 0.0
O432 O 0.24274 0.46374 0.8921 0.0
C433 C 0.19411 0.4398 -0.00257 0.0
O434 O 0.17831 0.4885 0.96304 0.0
O435 O 0.22391 0.50117 0.95666 0.0
C436 C 0.17726 0.4673 0.88582 0.0
O437 O 0.17764 0.43292 0.97656 0.0
O438 O 0.2147 0.45789 0.99373 0.0
C439 C 0.26222 0.41177 0.9479 0.0
Fe440 Fe 0.57837 0.7749 0.92557 0.0
Fe441 Fe 0.52929 0.81203 0.95074 0.0
O442 O 0.54546 0.77753 0.94566 0.0
Fe443 Fe 0.5291 0.74596 0.96081 0.0
O444 O 0.54031 0.72224 0.93057 0.0
O445 O 0.56105 0.75177 0.89877 0.0
O446 O 0.5705 0.80591 0.9016 0.0
C447 C 0.54652 0.81743 0.89436 0.0
C448 C 0.58648 0.73371 0.97062 0.0
O449 O 0.52519 0.81721 0.91175 0.0
C450 C 0.52326 0.78829 0.0051 0.0
O451 O 0.59746 0.79789 0.95168 0.0
O452 O 0.56372 0.83177 0.95131 0.0
O453 O 0.56159 0.73736 0.98166 0.0
O454 O 0.59226 0.7434 0.94551 0.0
C455 C 0.48086 0.77536 0.94194 0.0
O456 O 0.53279 0.80893 0.98975 0.0
O457 O 0.5152 0.76452 0.99364 0.0
C458 C 0.58858 0.82289 0.95898 0.0
O459 O 0.49191 0.7986 0.9515 0.0
O460 O 0.49521 0.75197 0.94117 0.0
C461 C 0.54814 0.72822 0.90473 0.0
Fe462 Fe 0.02267 0.75187 0.03139 0.0
Fe463 Fe 0.07768 0.72519 0.05859 0.0
O464 O 0.0446 0.7212 0.03936 0.0
Fe465 Fe 0.03339 0.68644 0.02801 0.0
O466 O 0.001 0.68888 0.05022 0.0
O467 O 0.98778 0.73192 0.03391 0.0
O468 O 0.01841 0.75959 0.06959 0.0
C469 C 0.03903 0.7635 0.08714 0.0
C470 C 0.01816 0.72218 0.98067 0.0
O471 O 0.0649 0.7563 0.08067 0.0
C472 C 0.09105 0.68319 0.01521 0.0
O473 O 0.05363 0.77709 0.02756 0.0
O474 O 0.09194 0.74849 0.03044 0.0
O475 O 0.01414 0.69936 0.99553 0.0
O476 O 0.02567 0.74568 0.99252 0.0
C477 C 0.05761 0.67556 0.08345 0.0
O478 O 0.09631 0.69491 0.03969 0.0
O479 O 0.06542 0.68244 0.00541 0.0
C480 C 0.07988 0.77129 0.02117 0.0
O481 O 0.06531 0.70152 0.08789 0.0
O482 O 0.05062 0.66704 0.05825 0.0
C483 C 0.98204 0.70856 0.04752 0.0
Fe484 Fe 0.42703 0.31633 0.53796 0.0
Fe485 Fe 0.4453 0.25317 0.52828 0.0
O486 O 0.42128 0.279 0.54404 0.0
Fe487 Fe 0.39131 0.2676 0.56564 0.0
O488 O 0.40432 0.28749 0.59728 0.0
O489 O 0.41176 0.32798 0.57291 0.0
O490 O 0.46238 0.31484 0.55541 0.0
C491 C 0.48278 0.29852 0.54671 0.0
C492 C 0.36826 0.31289 0.53142 0.0
O493 O 0.47759 0.27665 0.5307 0.0
C494 C 0.38989 0.22877 0.52055 0.0
O495 O 0.44298 0.31167 0.50183 0.0
O496 O 0.43754 0.26533 0.49148 0.0
O497 O 0.36716 0.29782 0.55452 0.0
O498 O 0.39233 0.31939 0.51999 0.0
C499 C 0.43703 0.23009 0.58238 0.0
O500 O 0.41712 0.22533 0.52312 0.0
O501 O 0.3765 0.24759 0.53537 0.0
C502 C 0.44033 0.29139 0.48342 0.0
O503 O 0.45478 0.23961 0.56377 0.0
O504 O 0.41 0.23529 0.58031 0.0
C505 C 0.40887 0.31453 0.59676 0.0
Fe506 Fe 0.89721 0.21786 0.42439 0.0
Fe507 Fe 0.951 0.18079 0.43663 0.0
O508 O 0.9329 0.21458 0.43871 0.0
Fe509 Fe 0.95019 0.24493 0.45524 0.0
O510 O 0.9331 0.2716 0.43102 0.0
O511 O 0.90954 0.24521 0.39862 0.0
O512 O 0.90233 0.19054 0.39562 0.0
C513 C 0.92515 0.18069 0.38361 0.0
C514 C 0.89468 0.25128 0.47576 0.0
O515 O 0.94896 0.18062 0.39721 0.0
C516 C 0.96537 0.19799 0.49177 0.0
O517 O 0.88317 0.19064 0.44968 0.0
O518 O 0.91792 0.15908 0.44025 0.0
O519 O 0.92124 0.24834 0.48194 0.0
O520 O 0.88542 0.24552 0.45051 0.0
C521 C 0.99588 0.22128 0.42513 0.0
O522 O 0.95396 0.17886 0.4758 0.0
O523 O 0.97016 0.22342 0.48231 0.0
C524 C 0.894 0.16549 0.45234 0.0
O525 O 0.98729 0.19636 0.43293 0.0
O526 O 0.98075 0.24373 0.42988 0.0
C527 C 0.92241 0.26845 0.40582 0.0
H528 H 0.11107 0.41564 0.30151 0.0
H529 H 0.20689 0.55132 0.3528 0.0
H530 H 0.10014 0.50312 0.26878 0.0
H531 H 0.19845 0.47294 0.40413 0.0
H532 H 0.17316 0.53107 0.31732 0.0
H533 H 0.14864 0.43359 0.3349 0.0
C534 C 0.11672 0.43854 0.3012 0.0
C535 C 0.10234 0.45798 0.28252 0.0
C536 C 0.17869 0.51829 0.33634 0.0
C537 C 0.14518 0.47849 0.32037 0.0
C538 C 0.198 0.5298 0.35661 0.0
C539 C 0.20532 0.51389 0.38162 0.0
C540 C 0.16676 0.49054 0.34092 0.0
C541 C 0.19317 0.48606 0.38529 0.0
C542 C 0.13801 0.44876 0.32032 0.0
C543 C 0.11046 0.48743 0.28302 0.0
N544 N 0.17445 0.47523 0.36512 0.0
N545 N 0.13133 0.49676 0.30162 0.0
H546 H 0.25193 0.50765 0.85659 0.0
H547 H 0.41575 0.51552 0.81417 0.0
H548 H 0.31916 0.48741 0.91889 0.0
H549 H 0.35372 0.5745 0.77551 0.0
H550 H 0.38055 0.50427 0.85244 0.0
H551 H 0.28817 0.53215 0.82613 0.0
C552 C 0.2743 0.50868 0.86397 0.0
C553 C 0.28276 0.49522 0.89003 0.0
C554 C 0.37477 0.51999 0.83585 0.0
C555 C 0.32415 0.52278 0.85527 0.0
C556 C 0.39472 0.52623 0.81391 0.0
C557 C 0.38737 0.54569 0.79158 0.0
C558 C 0.34703 0.53273 0.83501 0.0
C559 C 0.36006 0.5593 0.79237 0.0
C560 C 0.29487 0.5228 0.8467 0.0
C561 C 0.31185 0.49744 0.89885 0.0
N562 N 0.34055 0.55212 0.81349 0.0
N563 N 0.3317 0.51045 0.88117 0.0
H564 H 0.58991 0.00317 0.69527 0.0
H565 H 0.73809 0.02211 0.61156 0.0
H566 H 0.64393 0.07697 0.71676 0.0
H567 H 0.71091 0.9394 0.64711 0.0
H568 H 0.69986 0.04626 0.64077 0.0
H569 H 0.62993 0.98293 0.6665 0.0
C570 C 0.61008 0.01529 0.69362 0.0
C571 C 0.6137 0.04173 0.70843 0.0
C572 C 0.70262 0.02287 0.64219 0.0
C573 C 0.65929 0.01881 0.67543 0.0
C574 C 0.72426 0.00913 0.6256 0.0
C575 C 0.72766 0.97876 0.627 0.0
C576 C 0.68391 0.0059 0.6594 0.0
C577 C 0.70921 0.96287 0.64549 0.0
C578 C 0.63289 0.00364 0.6774 0.0
C579 C 0.6404 0.05642 0.70575 0.0
N580 N 0.68787 0.97658 0.66063 0.0
N581 N 0.66227 0.04482 0.68936 0.0
H582 H 0.86685 0.90215 0.18814 0.0
H583 H 0.75926 0.03431 0.15301 0.0
H584 H 0.85834 0.98102 0.23846 0.0
H585 H 0.78166 0.96902 0.08907 0.0
H586 H 0.78633 0.00726 0.18942 0.0
H587 H 0.82704 0.91916 0.15631 0.0
C588 C 0.85617 0.92271 0.19273 0.0
C589 C 0.86588 0.94054 0.21546 0.0
C590 C 0.78528 -0.00129 0.16747 0.0
C591 C 0.82086 0.95976 0.17991 0.0
C592 C 0.76993 0.01423 0.14664 0.0
C593 C 0.76894 0.00428 0.11784 0.0
C594 C 0.8001 0.97318 0.15945 0.0
C595 C 0.78238 0.97764 0.11099 0.0
C596 C 0.83368 0.93242 0.17462 0.0
C597 C 0.85164 0.96694 0.22077 0.0
N598 N 0.79789 0.96315 0.13162 0.0
N599 N 0.82995 0.97581 0.20303 0.0
H600 H 0.40719 0.17797 0.49427 0.0
H601 H 0.25476 0.1569 0.41351 0.0
H602 H 0.33521 0.23839 0.50004 0.0
H603 H 0.31517 0.08667 0.42995 0.0
H604 H 0.2898 0.19112 0.43433 0.0
H605 H 0.37852 0.14798 0.46084 0.0
C606 C 0.38541 0.18492 0.48848 0.0
C607 C 0.37331 0.21036 0.50034 0.0
C608 C 0.2955 0.16825 0.43296 0.0
C609 C 0.34082 0.17662 0.46191 0.0
C610 C 0.27563 0.14879 0.42091 0.0
C611 C 0.28194 0.11892 0.42052 0.0
C612 C 0.32178 0.15768 0.44446 0.0
C613 C 0.30929 0.10952 0.43036 0.0
C614 C 0.36915 0.16789 0.46937 0.0
C615 C 0.34515 0.2186 0.49186 0.0
N616 N 0.32813 0.12883 0.44224 0.0
N617 N 0.3298 0.20171 0.47322 0.0
H618 H 0.17606 0.92284 0.97634 0.0
H619 H 0.12848 0.75959 0.98937 0.0
H620 H 0.21259 0.85649 0.92062 0.0
H621 H 0.07127 0.83002 0.0143 0.0
H622 H 0.15967 0.7944 0.96402 0.0
H623 H 0.13726 0.88937 0.99031 0.0
C624 C 0.17568 0.90124 0.96684 0.0
C625 C 0.19763 0.89217 0.94758 0.0
C626 C 0.14012 0.80219 0.97473 0.0
C627 C 0.15361 0.85374 0.96375 0.0
C628 C 0.12245 0.78241 0.98942 0.0
C629 C 0.09754 0.79208 0.00433 0.0
C630 C 0.1331 0.83191 0.97542 0.0
C631 C 0.09042 0.82175 0.00326 0.0
C632 C 0.15347 0.88223 0.9747 0.0
C633 C 0.19603 0.86418 0.9356 0.0
N634 N 0.10842 0.84074 0.98943 0.0
N635 N 0.17463 0.84565 0.94432 0.0
H636 H 0.83553 0.24849 0.47759 0.0
H637 H 0.82234 0.39686 0.55846 0.0
H638 H 0.90909 0.28832 0.52018 0.0
H639 H 0.74821 0.34004 0.54899 0.0
H640 H 0.85454 0.35621 0.5468 0.0
H641 H 0.80287 0.27974 0.50577 0.0
C642 C 0.84476 0.26355 0.49321 0.0
C643 C 0.87502 0.26628 0.49621 0.0
C644 C 0.83127 0.35244 0.54775 0.0
C645 C 0.83791 0.3022 0.52818 0.0
C646 C 0.8129 0.37567 0.55418 0.0
C647 C 0.78264 0.37177 0.55422 0.0
C648 C 0.81925 0.32531 0.54059 0.0
C649 C 0.77147 0.34387 0.54899 0.0
C650 C 0.82612 0.28124 0.50938 0.0
C651 C 0.88588 0.28575 0.51703 0.0
N652 N 0.7898 0.32173 0.54176 0.0
N653 N 0.86732 0.30345 0.53181 0.0
H654 H 0.71801 0.60421 0.98777 0.0
H655 H 0.5818 0.70449 0.023 0.0
H656 H 0.68412 0.61068 0.07529 0.0
H657 H 0.64004 0.71831 0.95031 0.0
H658 H 0.61622 0.66847 0.04259 0.0
H659 H 0.68611 0.64377 0.97301 0.0
C660 C 0.70375 0.61394 0.0039 0.0
C661 C 0.70359 0.60406 0.03276 0.0
C662 C 0.62145 0.67969 0.02251 0.0
C663 C 0.6669 0.64952 0.01596 0.0
C664 C 0.60185 0.70018 0.01131 0.0
C665 C 0.60783 0.71418 0.98476 0.0
C666 C 0.64689 0.67305 0.00684 0.0
C667 C 0.63425 0.70788 0.97064 0.0
C668 C 0.68567 0.63669 0.9955 0.0
C669 C 0.68488 0.61772 0.05281 0.0
N670 N 0.65258 0.6876 0.98169 0.0
N671 N 0.667 0.63968 0.04396 0.0
H672 H 0.44658 0.325 0.08628 0.0
H673 H 0.52141 0.34073 0.23842 0.0
H674 H 0.44782 0.25373 0.14756 0.0
H675 H 0.47988 0.41418 0.19707 0.0
H676 H 0.49653 0.30812 0.2045 0.0
H677 H 0.46077 0.35822 0.12542 0.0
C678 C 0.44965 0.3164 0.10803 0.0
C679 C 0.44623 0.28659 0.11373 0.0
C680 C 0.49256 0.33134 0.20313 0.0
C681 C 0.46271 0.32429 0.15831 0.0
C682 C 0.50681 0.34992 0.22234 0.0
C683 C 0.50279 0.38013 0.22031 0.0
C684 C 0.47475 0.34314 0.18133 0.0
C685 C 0.48352 0.39099 0.1993 0.0
C686 C 0.45755 0.33537 0.13034 0.0
C687 C 0.45024 0.27659 0.1423 0.0
N688 N 0.47056 0.3725 0.18022 0.0
N689 N 0.45874 0.29536 0.16349 0.0
H690 H 0.96331 0.2475 0.84877 0.0
H691 H 0.99355 0.08663 0.7906 0.0
H692 H 0.95724 0.1713 0.90344 0.0
H693 H 0.04039 0.16134 0.75797 0.0
H694 H 0.96841 0.11833 0.82544 0.0
H695 H 0.98037 0.21648 0.80857 0.0
C696 C 0.96521 0.22422 0.85215 0.0
C697 C 0.95912 0.21187 0.8794 0.0
C698 C 0.98401 0.12774 0.81042 0.0
C699 C 0.97807 0.17656 0.83378 0.0
C700 C -0.00176 0.10975 0.7905 0.0
C701 C 0.01929 0.1214 0.77164 0.0
C702 C 0.9905 0.15757 0.81107 0.0
C703 C 0.02455 0.1515 0.77242 0.0
C704 C 0.97502 0.20664 0.82934 0.0
C705 C 0.96203 0.18166 0.8828 0.0
N706 N 0.01025 0.16861 0.79189 0.0
N707 N 0.97126 0.16498 0.8602 0.0
H708 H 0.52507 0.9 0.29259 0.0
H709 H 0.50003 0.7605 0.39297 0.0
H710 H 0.44534 0.85024 0.29578 0.0
H711 H 0.58546 0.7967 0.37777 0.0
H712 H 0.47971 0.795 0.35851 0.0
H713 H 0.5477 0.86438 0.32533 0.0
C714 C 0.51231 0.88171 0.30026 0.0
C715 C 0.48324 0.87815 0.29156 0.0
C716 C 0.50294 0.7954 0.36253 0.0
C717 C 0.50893 0.83748 0.32868 0.0
C718 C 0.51455 0.77572 0.38228 0.0
C719 C 0.54444 0.77589 0.38835 0.0
C720 C 0.52125 0.81566 0.34883 0.0
C721 C 0.56228 0.79588 0.37364 0.0
C722 C 0.52528 0.86134 0.31876 0.0
C723 C 0.46778 0.85394 0.30192 0.0
N724 N 0.55034 0.81522 0.35465 0.0
N725 N 0.4808 0.83463 0.31996 0.0
H726 H 0.06401 0.67256 0.57842 0.0
H727 H 0.99415 0.6535 0.73437 0.0
H728 H 0.07432 0.73527 0.64766 0.0
H729 H 0.0006 0.58271 0.67273 0.0
H730 H 0.02604 0.68255 0.70368 0.0
H731 H 0.04475 0.63765 0.6135 0.0
C732 C 0.06273 0.67878 0.60114 0.0
C733 C 0.07032 0.70698 0.61014 0.0
C734 C 0.02069 0.66061 0.6969 0.0
C735 C 0.04785 0.66736 0.65021 0.0
C736 C 0.0022 0.64408 0.71426 0.0
C737 C 0.99429 0.61581 0.70579 0.0
C738 C 0.03111 0.64897 0.67064 0.0
C739 C 0.00591 0.60453 0.67988 0.0
C740 C 0.05172 0.65884 0.62114 0.0
C741 C 0.06856 0.7138 0.63982 0.0
N742 N 0.02351 0.62132 0.66299 0.0
N743 N 0.05697 0.69428 0.65875 0.0
H744 H 0.87912 0.5805 0.69131 0.0
H745 H 0.78728 0.44074 0.64474 0.0
H746 H 0.89583 0.49368 0.7234 0.0
H747 H 0.79135 0.51845 0.59186 0.0
H748 H 0.82148 0.4627 0.67869 0.0
H749 H 0.84132 0.56066 0.65933 0.0
C750 C 0.87474 0.55732 0.69173 0.0
C751 C 0.89073 0.53864 0.70985 0.0
C752 C 0.81487 0.47496 0.65967 0.0
C753 C 0.84761 0.51601 0.67369 0.0
C754 C 0.79527 0.46249 0.6403 0.0
C755 C 0.78663 0.47771 0.61528 0.0
C756 C 0.82572 0.50297 0.65419 0.0
C757 C 0.79767 0.50586 0.61074 0.0
C758 C 0.85329 0.54605 0.67343 0.0
C759 C 0.88421 0.50881 0.70956 0.0
N760 N 0.8167 0.51763 0.63006 0.0
N761 N 0.86311 0.49843 0.69179 0.0
H762 H 0.64634 0.42774 0.22926 0.0
H763 H 0.66927 0.49815 0.07146 0.0
H764 H 0.5758 0.45535 0.17364 0.0
H765 H 0.73694 0.49002 0.13604 0.0
H766 H 0.63581 0.47251 0.10435 0.0
H767 H 0.68087 0.4407 0.19078 0.0
C768 C 0.6381 0.43623 0.20887 0.0
C769 C 0.6082 0.44088 0.20481 0.0
C770 C 0.65809 0.47612 0.11113 0.0
C771 C 0.64748 0.45568 0.1608 0.0
C772 C 0.67716 0.49062 0.09236 0.0
C773 C 0.70567 0.49663 0.10132 0.0
C774 C 0.66783 0.46741 0.13879 0.0
C775 C 0.71491 0.48631 0.12854 0.0
C776 C 0.65779 0.44366 0.18695 0.0
C777 C 0.59871 0.45182 0.17789 0.0
N778 N 0.69598 0.47238 0.1464 0.0
N779 N 0.61831 0.45904 0.15697 0.0
H780 H 0.34883 0.94881 0.24379 0.0
H781 H 0.28473 0.98764 0.39998 0.0
H782 H 0.40228 0.95263 0.32086 0.0
H783 H 0.2536 0.02996 0.32209 0.0
H784 H 0.3215 0.96226 0.37081 0.0
H785 H 0.30738 0.96699 0.27241 0.0
C786 C 0.35172 0.9532 0.26678 0.0
C787 C 0.37895 0.94943 0.28005 0.0
C788 C 0.30636 0.97687 0.36015 0.0
C789 C 0.33184 0.96955 0.31267 0.0
C790 C 0.28529 0.9912 0.37667 0.0
C791 C 0.2663 0.0111 0.36339 0.0
C792 C 0.30802 0.98207 0.33013 0.0
C793 C 0.26806 0.01499 0.33314 0.0
C794 C 0.32818 0.96361 0.28297 0.0
C795 C 0.38167 0.95552 0.30982 0.0
N796 N 0.28865 0.00058 0.31745 0.0
N797 N 0.35832 0.96519 0.32522 0.0
H798 H 0.18799 0.00467 0.91458 0.0
H799 H 0.16368 0.06411 0.75308 0.0
H800 H 0.24789 0.9881 0.84378 0.0
H801 H 0.09548 0.05504 0.81728 0.0
H802 H 0.19908 0.0471 0.78922 0.0
H803 H 0.15833 0.0341 0.88192 0.0
C804 C 0.19503 0.00736 0.89222 0.0
C805 C 0.22015 0.99344 0.88173 0.0
C806 C 0.1764 0.04921 0.7954 0.0
C807 C 0.18636 0.02718 0.84436 0.0
C808 C 0.15628 0.05901 0.7749 0.0
C809 C 0.12664 0.06056 0.78219 0.0
C810 C 0.16672 0.04131 0.82332 0.0
C811 C 0.11809 0.05371 0.81068 0.0
C812 C 0.17808 0.02417 0.87362 0.0
C813 C 0.2284 -0.00196 0.85264 0.0
N814 N 0.13804 0.04422 0.83018 0.0
N815 N 0.21138 0.01437 0.83485 0.0
H816 H 0.74073 0.83753 0.57291 0.0
H817 H 0.58751 0.81263 0.49443 0.0
H818 H 0.68092 0.90745 0.55319 0.0
H819 H 0.6592 0.75171 0.49142 0.0
H820 H 0.61711 0.84498 0.52482 0.0
H821 H 0.70586 0.80282 0.5528 0.0
C822 C 0.72007 0.84553 0.56483 0.0
C823 C 0.71386 0.87543 0.56435 0.0
C824 C 0.62622 0.82446 0.51755 0.0
C825 C 0.6741 0.83595 0.54117 0.0
C826 C 0.6094 0.80606 0.50021 0.0
C827 C 0.62111 0.77972 0.49004 0.0
C828 C 0.6547 0.81617 0.525 0.0
C829 C 0.6495 0.77208 0.49836 0.0
C830 C 0.70028 0.82574 0.55319 0.0
C831 C 0.68674 0.88459 0.55361 0.0
N832 N 0.66533 0.79026 0.51532 0.0
N833 N 0.66792 0.86492 0.54221 0.0
H834 H 0.89967 0.2153 0.02642 0.0
H835 H 0.7961 0.08044 0.00258 0.0
H836 H 0.87024 0.19024 0.94084 0.0
H837 H 0.78334 0.13781 0.07599 0.0
H838 H 0.8314 0.11486 0.98239 0.0
H839 H 0.86436 0.18131 0.04791 0.0
C840 C 0.88583 0.20256 0.01222 0.0
C841 C 0.88775 0.20545 0.98187 0.0
C842 C 0.82088 0.11981 0.00294 0.0
C843 C 0.84805 0.16659 0.00613 0.0
C844 C 0.80096 0.10017 0.01456 0.0
C845 C 0.7869 0.10637 0.04097 0.0
C846 C 0.82722 0.14546 0.01817 0.0
C847 C 0.79371 0.13235 0.05551 0.0
C848 C 0.8657 0.1834 0.02445 0.0
C849 C 0.86928 0.18869 0.96435 0.0
N850 N 0.81366 0.15095 0.044 0.0
N851 N 0.85036 0.16969 0.97675 0.0
H852 H 0.08892 0.70839 0.47482 0.0
H853 H 0.25053 0.64791 0.45138 0.0
H854 H 0.16357 0.74384 0.5194 0.0
H855 H 0.17307 0.59535 0.44381 0.0
H856 H 0.21979 0.69021 0.46324 0.0
H857 H 0.12111 0.6742 0.44948 0.0
C858 C 0.11213 0.70939 0.47884 0.0
C859 C 0.12359 0.72859 0.49962 0.0
C860 C 0.20964 0.66944 0.45859 0.0
C861 C 0.16032 0.68974 0.47072 0.0
C862 C 0.22707 0.64542 0.4518 0.0
C863 C 0.21424 0.61813 0.44705 0.0
C864 C 0.17927 0.66611 0.45999 0.0
C865 C 0.1838 0.61595 0.44781 0.0
C866 C 0.13042 0.68981 0.46449 0.0
C867 C 0.15384 0.72902 0.5039 0.0
N868 N 0.16732 0.63963 0.45425 0.0
N869 N 0.1712 0.70966 0.48974 0.0
H870 H 0.34651 0.27745 0.04655 0.0
H871 H 0.30181 0.38136 0.9145 0.0
H872 H 0.40225 0.28979 0.97166 0.0
H873 H 0.26602 0.38698 0.00134 0.0
H874 H 0.33424 0.34207 0.93112 0.0
H875 H 0.3117 0.31141 0.02573 0.0
C876 C 0.35142 0.28719 0.02564 0.0
C877 C 0.37759 0.28105 0.01103 0.0
C878 C 0.31919 0.35196 0.9464 0.0
C879 C 0.33763 0.32008 0.98704 0.0
C880 C 0.30069 0.37425 0.93696 0.0
C881 C 0.28144 0.38759 0.95666 0.0
C882 C 0.31793 0.34277 0.97554 0.0
C883 C 0.28079 0.37757 0.98549 0.0
C884 C 0.33152 0.30665 0.01379 0.0
C885 C 0.3825 0.29414 0.98381 0.0
N886 N 0.29873 0.35577 0.99402 0.0
N887 N 0.36272 0.31322 0.97271 0.0
H888 H 0.4954 0.57475 0.81108 0.0
H889 H 0.54998 0.73642 0.84565 0.0
H890 H 0.48888 0.64605 0.75008 0.0
H891 H 0.53449 0.67074 0.91116 0.0
H892 H 0.53708 0.70095 0.80801 0.0
H893 H 0.51956 0.60724 0.84546 0.0
C894 C 0.49932 0.59714 0.80477 0.0
C895 C 0.48968 0.60782 0.77785 0.0
C896 C 0.53676 0.6943 0.83063 0.0
C897 C 0.51728 0.64505 0.81708 0.0
C898 C 0.54419 0.71448 0.85209 0.0
C899 C 0.54298 0.70659 0.88158 0.0
C900 C 0.52833 0.66605 0.83877 0.0
C901 C 0.53536 0.67787 0.88871 0.0
C902 C 0.51303 0.61568 0.82445 0.0
C903 C 0.49555 0.637 0.77078 0.0
N904 N 0.5282 0.65868 0.86746 0.0
N905 N 0.50879 0.65468 0.79039 0.0
H906 H 0.95312 0.83146 0.23909 0.0
H907 H 0.06976 0.80805 0.11209 0.0
H908 H -0.00208 0.90337 0.19826 0.0
H909 H 0.99335 0.75462 0.12301 0.0
H910 H 0.05373 0.83809 0.15366 0.0
H911 H 0.97837 0.7979 0.20625 0.0
C912 C 0.96851 0.84017 0.22345 0.0
C913 C 0.97312 0.87027 0.22103 0.0
C914 C 0.04083 0.81948 0.14713 0.0
C915 C 0.00224 0.83202 0.18387 0.0
C916 C 0.05 0.80234 0.12367 0.0
C917 C 0.03263 0.77914 0.11423 0.0
C918 C 0.01459 0.81274 0.16138 0.0
C919 C 0.00711 0.77258 0.12962 0.0
C920 C 0.98284 0.82102 0.20475 0.0
C921 C 0.99341 0.88033 0.20047 0.0
N922 N -0.00119 0.78933 0.15247 0.0
N923 N 0.00721 0.86121 0.18254 0.0
H924 H 0.54837 0.14602 0.70635 0.0
H925 H 0.40659 0.19185 0.61707 0.0
H926 H 0.47045 0.09334 0.70559 0.0
H927 H 0.49291 0.2255 0.60088 0.0
H928 H 0.42692 0.15974 0.6547 0.0
H929 H 0.52528 0.17991 0.67299 0.0
C930 C 0.52635 0.14156 0.69921 0.0
C931 C 0.51143 0.1166 0.70855 0.0
C932 C 0.44128 0.17422 0.64286 0.0
C933 C 0.48483 0.1555 0.67027 0.0
C934 C 0.42973 0.19256 0.62151 0.0
C935 C 0.44816 0.21115 0.60571 0.0
C936 C 0.4713 0.17493 0.64858 0.0
C937 C 0.47795 0.21128 0.6123 0.0
C938 C 0.5132 0.16094 0.6801 0.0
C939 C 0.48284 0.11217 0.6987 0.0
N940 N 0.48856 0.19347 0.63323 0.0
N941 N 0.47043 0.13145 0.67998 0.0
H942 H 0.91638 0.26599 0.34657 0.0
H943 H 0.99431 0.41991 0.32243 0.0
H944 H 0.93839 0.32468 0.41661 0.0
H945 H 0.99058 0.3511 0.25844 0.0
H946 H 0.96391 0.39027 0.355 0.0
H947 H 0.93262 0.30272 0.31161 0.0
C948 C 0.92406 0.2868 0.35457 0.0
C949 C 0.92655 0.2921 0.38451 0.0
C950 C 0.96963 0.38185 0.33371 0.0
C951 C 0.94542 0.33397 0.34478 0.0
C952 C 0.98697 0.3987 0.3152 0.0
C953 C 0.99546 0.38765 0.28801 0.0
C954 C 0.96054 0.35404 0.3247 0.0
C955 C 0.9851 0.36018 0.27951 0.0
C956 C 0.9335 0.30768 0.33464 0.0
C957 C 0.9366 0.31949 0.39369 0.0
N958 N 0.96833 0.34428 0.29784 0.0
N959 N 0.94601 0.3393 0.3739 0.0
H960 H 0.16083 0.39316 0.01263 0.0
H961 H 0.13721 0.44919 0.17479 0.0
H962 H 0.2092 0.46462 0.04968 0.0
H963 H 0.08978 0.3789 0.13483 0.0
H964 H 0.17134 0.44885 0.13337 0.0
H965 H 0.14217 0.38137 0.06086 0.0
C966 C 0.16771 0.40624 0.03101 0.0
C967 C 0.18609 0.43026 0.02707 0.0
C968 C 0.1539 0.43301 0.13405 0.0
C969 C 0.16455 0.41711 0.08246 0.0
C970 C 0.13466 0.43307 0.15776 0.0
C971 C 0.11079 0.41413 0.15791 0.0
C972 C 0.14895 0.4139 0.11059 0.0
C973 C 0.10795 0.39393 0.13527 0.0
C974 C 0.15712 0.39946 0.0586 0.0
C975 C 0.19479 0.44609 0.05173 0.0
N976 N 0.12658 0.39456 0.11237 0.0
N977 N 0.18351 0.43956 0.07836 0.0
H978 H 0.27814 0.59822 0.53371 0.0
H979 H 0.34916 0.52485 0.67433 0.0
H980 H 0.28051 0.50607 0.55106 0.0
H981 H 0.36784 0.61225 0.64602 0.0
H982 H 0.31042 0.52179 0.63783 0.0
H983 H 0.29749 0.60737 0.58283 0.0
C984 C 0.28171 0.58004 0.54832 0.0
C985 C 0.27777 0.5514 0.53861 0.0
C986 C 0.32242 0.54195 0.64008 0.0
C987 C 0.30013 0.56149 0.5942 0.0
C988 C 0.3443 0.54375 0.66105 0.0
C989 C 0.3613 0.56891 0.66317 0.0
C990 C 0.3179 0.56537 0.62088 0.0
C991 C 0.35482 0.59262 0.64511 0.0
C992 C 0.29298 0.5852 0.57616 0.0
C993 C 0.28327 0.52846 0.55793 0.0
N994 N 0.33382 0.59017 0.6244 0.0
N995 N 0.29442 0.53398 0.58471 0.0
H996 H 0.62329 0.01204 0.84091 0.0
H997 H 0.69137 0.10298 0.96576 0.0
H998 H 0.63234 0.10542 0.83465 0.0
H999 H 0.71235 0.01236 0.95349 0.0
H1000 H 0.67422 0.10539 0.91534 0.0
H1001 H 0.65999 0.01162 0.87931 0.0
C1002 C 0.63334 0.03239 0.84732 0.0
C1003 C 0.62436 0.05886 0.83503 0.0
C1004 C 0.6834 0.08518 0.92332 0.0
C1005 C 0.66602 0.0586 0.8791 0.0
C1006 C 0.69323 0.0839 0.95198 0.0
C1007 C 0.70335 0.05753 0.96331 0.0
C1008 C 0.6829 0.05963 0.90644 0.0
C1009 C 0.70486 0.03311 0.94514 0.0
C1010 C 0.65439 0.03214 0.86913 0.0
C1011 C 0.63839 0.08455 0.8438 0.0
N1012 N 0.69416 0.03457 0.91766 0.0
N1013 N 0.65808 0.08387 0.86578 0.0
H1014 H 0.80461 0.87759 0.47477 0.0
H1015 H 0.85109 0.97067 0.34568 0.0
H1016 H 0.76536 0.96169 0.46112 0.0
H1017 H 0.84805 0.87732 0.33678 0.0
H1018 H 0.81583 0.96766 0.38561 0.0
H1019 H 0.81651 0.87507 0.4228 0.0
C1020 C 0.79751 0.89498 0.46049 0.0
C1021 C 0.78379 0.91973 0.47192 0.0
C1022 C 0.82212 0.94788 0.37438 0.0
C1023 C 0.79848 0.91774 0.41302 0.0
C1024 C 0.8422 0.94963 0.35163 0.0
C1025 C 0.85223 0.92422 0.33804 0.0
C1026 C 0.81298 0.92042 0.3843 0.0
C1027 C 0.84052 0.89739 0.34667 0.0
C1028 C 0.80437 0.89363 0.4309 0.0
C1029 C 0.77562 0.94209 0.45287 0.0
N1030 N 0.82204 0.89608 0.36983 0.0
N1031 N 0.78377 0.94093 0.4244 0.0
H1032 H 0.15662 0.15495 0.45576 0.0
H1033 H 0.01873 0.20483 0.3734 0.0
H1034 H 0.14777 0.14434 0.36288 0.0
H1035 H 0.04172 0.23945 0.45733 0.0
H1036 H 0.06943 0.19037 0.36572 0.0
H1037 H 0.11921 0.19276 0.45461 0.0
C1038 C 0.14721 0.16103 0.43502 0.0
C1039 C 0.15489 0.14609 0.40948 0.0
C1040 C 0.06375 0.20209 0.3854 0.0
C1041 C 0.11164 0.18899 0.40804 0.0
C1042 C 0.03485 0.21058 0.38961 0.0
C1043 C 0.02633 0.22356 0.41586 0.0
C1044 C 0.0839 0.20567 0.40811 0.0
C1045 C 0.04769 0.22982 0.43663 0.0
C1046 C 0.12589 0.1827 0.43434 0.0
C1047 C 0.14229 0.15509 0.38315 0.0
N1048 N 0.07542 0.22015 0.43264 0.0
N1049 N 0.12075 0.17546 0.38321 0.0
H1050 H 0.32692 0.85499 0.88087 0.0
H1051 H 0.43705 0.76478 0.9799 0.0
H1052 H 0.32691 0.85433 0.97462 0.0
H1053 H 0.45443 0.78947 0.89114 0.0
H1054 H 0.38658 0.78137 0.97427 0.0
H1055 H 0.36325 0.81555 0.88105 0.0
C1056 C 0.33372 0.84565 0.90143 0.0
C1057 C 0.32403 0.85762 0.92778 0.0
C1058 C 0.40115 0.78227 0.95571 0.0
C1059 C 0.36557 0.81321 0.92823 0.0
C1060 C 0.42978 0.77256 0.95886 0.0
C1061 C 0.44956 0.7756 0.93584 0.0
C1062 C 0.3925 0.79544 0.92949 0.0
C1063 C 0.43954 0.78652 0.90922 0.0
C1064 C 0.35458 0.8234 0.90155 0.0
C1065 C 0.33389 0.84544 0.9539 0.0
N1066 N 0.41174 0.79648 0.90686 0.0
N1067 N 0.35435 0.82407 0.95349 0.0
H1068 H 0.52955 0.28613 0.51214 0.0
H1069 H 0.64249 0.379 0.60491 0.0
H1070 H 0.50499 0.33261 0.59015 0.0
H1071 H 0.64698 0.37325 0.51118 0.0
H1072 H 0.59816 0.34948 0.60415 0.0
H1073 H 0.57882 0.30599 0.51633 0.0
C1074 C 0.53465 0.30014 0.5304 0.0
C1075 C 0.51315 0.30797 0.55075 0.0
C1076 C 0.60914 0.35439 0.58385 0.0
C1077 C 0.56935 0.33032 0.55571 0.0
C1078 C 0.63451 0.37102 0.58422 0.0
C1079 C 0.64826 0.37873 0.55801 0.0
C1080 C 0.59784 0.34498 0.55715 0.0
C1081 C 0.63686 0.36797 0.53183 0.0
C1082 C 0.56267 0.31152 0.53265 0.0
C1083 C 0.52089 0.3263 0.57388 0.0
N1084 N 0.6122 0.35164 0.53204 0.0
N1085 N 0.54843 0.3369 0.57576 0.0
H1086 H 0.84117 0.60853 0.11253 0.0
H1087 H 0.93111 0.72609 0.0217 0.0
H1088 H 0.81453 0.64017 0.02845 0.0
H1089 H 0.96476 0.67499 0.0929 0.0
H1090 H 0.88223 0.70671 0.03181 0.0
H1091 H 0.87953 0.64544 0.11378 0.0
C1092 C 0.84289 0.62401 0.09479 0.0
C1093 C 0.82483 0.62166 0.07044 0.0
C1094 C 0.90026 0.70025 0.04554 0.0
C1095 C 0.8691 0.66303 0.0711 0.0
C1096 C 0.92805 0.71136 0.03987 0.0
C1097 C 0.95194 0.70169 0.05623 0.0
C1098 C 0.89648 0.67971 0.06792 0.0
C1099 C 0.94693 0.68257 0.07948 0.0
C1100 C 0.86487 0.64487 0.09536 0.0
C1101 C 0.82803 0.64169 0.04769 0.0
N1102 N 0.91982 0.67202 0.08447 0.0
N1103 N 0.85017 0.66135 0.04832 0.0
H1104 H 0.49659 0.0287 0.19467 0.0
H1105 H 0.39774 0.15678 0.13296 0.0
H1106 H 0.40396 0.03294 0.20901 0.0
H1107 H 0.49025 0.14855 0.11806 0.0
H1108 H 0.40046 0.11713 0.16843 0.0
H1109 H 0.49561 0.07797 0.17506 0.0
C1110 C 0.4761 0.04042 0.19424 0.0
C1111 C 0.45032 0.02695 0.20337 0.0
C1112 C 0.42021 0.1243 0.15771 0.0
C1113 C 0.44873 0.08302 0.17999 0.0
C1114 C 0.41872 0.147 0.13747 0.0
C1115 C 0.44374 0.15567 0.12207 0.0
C1116 C 0.44692 0.11025 0.16262 0.0
C1117 C 0.47031 0.1423 0.12901 0.0
C1118 C 0.47549 0.06849 0.1829 0.0
C1119 C 0.42428 0.04281 0.20227 0.0
N1120 N 0.47112 0.12008 0.1485 0.0
N1121 N 0.42404 0.06996 0.19023 0.0
H1122 H 0.90976 0.48328 0.82765 0.0
H1123 H 0.99355 0.346 0.88168 0.0
H1124 H 0.99104 0.45872 0.78718 0.0
H1125 H 0.89962 0.34696 0.87836 0.0
H1126 H 0.9945 0.3883 0.84905 0.0
H1127 H 0.90628 0.4345 0.84895 0.0
C1128 C 0.92668 0.46746 0.82302 0.0
C1129 C 0.95073 0.47491 0.80575 0.0
C1130 C 0.97375 0.37888 0.85512 0.0
C1131 C 0.94721 0.41955 0.8304 0.0
C1132 C 0.97318 0.35488 0.87377 0.0
C1133 C 0.94647 0.34314 0.88284 0.0
C1134 C 0.94742 0.39156 0.84618 0.0
C1135 C 0.92069 0.35535 0.87188 0.0
C1136 C 0.92464 0.43967 0.83504 0.0
C1137 C 0.97209 0.45369 0.80031 0.0
N1138 N 0.92178 0.37927 0.85455 0.0
N1139 N 0.97012 0.42705 0.81308 0.0
H1140 H 0.5273 0.55109 0.27291 0.0
H1141 H 0.62518 0.62957 0.38885 0.0
H1142 H 0.60992 0.51826 0.3025 0.0
H1143 H 0.55087 0.6713 0.34981 0.0
H1144 H 0.62461 0.59291 0.35043 0.0
H1145 H 0.53963 0.59913 0.29292 0.0
C1146 C 0.54855 0.55444 0.28255 0.0
C1147 C 0.56781 0.53103 0.28597 0.0
C1148 C 0.6087 0.61032 0.34976 0.0
C1149 C 0.58161 0.58517 0.30978 0.0
C1150 C 0.60909 0.63123 0.3717 0.0
C1151 C 0.58797 0.6532 0.37236 0.0
C1152 C 0.58643 0.61087 0.32882 0.0
C1153 C 0.56752 0.65458 0.34983 0.0
C1154 C 0.5555 0.58172 0.29419 0.0
C1155 C 0.59469 0.536 0.29929 0.0
N1156 N 0.56684 0.63326 0.32922 0.0
N1157 N 0.60063 0.56241 0.31111 0.0
H1158 H 0.12107 0.97389 0.68401 0.0
H1159 H 0.02758 0.84058 0.64286 0.0
H1160 H 0.03903 0.95778 0.7266 0.0
H1161 H 0.12125 0.83908 0.63453 0.0
H1162 H 0.03185 0.88068 0.67766 0.0
H1163 H 0.1234 0.92254 0.66979 0.0
C1164 C 0.10409 0.95916 0.69122 0.0
C1165 C 0.08002 0.96969 0.70669 0.0
C1166 C 0.0515 0.87109 0.66873 0.0
C1167 C 0.0817 0.91152 0.68946 0.0
C1168 C 0.04906 0.84824 0.6488 0.0
C1169 C 0.07404 0.83688 0.63525 0.0
C1170 C 0.07903 0.88298 0.67465 0.0
C1171 C 0.10134 0.84743 0.64407 0.0
C1172 C 0.1053 0.92993 0.68304 0.0
C1173 C 0.05813 0.95015 0.71499 0.0
N1174 N 0.10307 0.87036 0.66267 0.0
N1175 N 0.05912 0.92204 0.70568 0.0
H1176 H 0.89443 0.61882 0.85373 0.0
H1177 H 0.77625 0.52428 0.93826 0.0
H1178 H 0.85683 0.54065 0.81818 0.0
H1179 H 0.82118 0.5988 0.97358 0.0
H1180 H 0.79667 0.5356 0.89014 0.0
H1181 H 0.85855 0.61797 0.89295 0.0
C1182 C 0.87804 0.60184 0.85393 0.0
C1183 C 0.87839 0.57976 0.83296 0.0
C1184 C 0.80163 0.54972 0.90835 0.0
C1185 C 0.83797 0.5779 0.87824 0.0
C1186 C 0.78993 0.54333 0.93577 0.0
C1187 C 0.79753 0.56032 0.96 0.0
C1188 C 0.82083 0.57334 0.90527 0.0
C1189 C 0.81524 0.58478 0.95558 0.0
C1190 C 0.85766 0.60123 0.87636 0.0
C1191 C 0.85697 0.55811 0.83404 0.0
N1192 N 0.8265 0.59036 0.92886 0.0
N1193 N 0.83784 0.55738 0.85673 0.0
H1194 H 0.63693 0.47793 0.3363 0.0
H1195 H 0.73852 0.4707 0.44496 0.0
H1196 H 0.63346 0.38407 0.33924 0.0
H1197 H 0.69157 0.39262 0.46705 0.0
H1198 H 0.7195 0.46755 0.39515 0.0
H1199 H 0.67512 0.47714 0.37307 0.0
C1200 C 0.64474 0.4571 0.34419 0.0
C1201 C 0.63182 0.43105 0.33488 0.0
C1202 C 0.71378 0.4508 0.41071 0.0
C1203 C 0.67571 0.42989 0.37701 0.0
C1204 C 0.72507 0.4523 0.4389 0.0
C1205 C 0.71672 0.43171 0.45979 0.0
C1206 C 0.69368 0.42879 0.40374 0.0
C1207 C 0.69869 0.40868 0.4513 0.0
C1208 C 0.6668 0.45662 0.36503 0.0
C1209 C 0.64279 0.40468 0.34583 0.0
N1210 N 0.68749 0.40798 0.42395 0.0
N1211 N 0.66361 0.4048 0.36685 0.0
H1212 H 0.2768 0.97191 0.0469 0.0
H1213 H 0.37237 0.87841 0.15718 0.0
H1214 H 0.30749 0.88497 0.02826 0.0
H1215 H 0.37862 0.97187 0.14863 0.0
H1216 H 0.33378 0.87821 0.12055 0.0
H1217 H 0.29865 0.96863 0.09536 0.0
C1218 C 0.28727 0.95178 0.05336 0.0
C1219 C 0.29083 0.9288 0.03351 0.0
C1220 C 0.34332 0.89875 0.12712 0.0
C1221 C 0.31564 0.92504 0.08854 0.0
C1222 C 0.36529 0.89894 0.14795 0.0
C1223 C 0.379 0.92519 0.15548 0.0
C1224 C 0.33473 0.92502 0.11419 0.0
C1225 C 0.36893 0.95114 0.14297 0.0
C1226 C 0.29989 0.95005 0.08087 0.0
C1227 C 0.30469 0.90327 0.04288 0.0
N1228 N 0.34745 0.95039 0.12273 0.0
N1229 N 0.31693 0.90217 0.06971 0.0
H1230 H 0.23822 0.04556 0.52525 0.0
H1231 H 0.15291 0.0286 0.64781 0.0
H1232 H 0.1756 0.11391 0.51045 0.0
H1233 H 0.14223 0.12199 0.64653 0.0
H1234 H 0.18565 0.03231 0.60589 0.0
H1235 H 0.22709 0.04766 0.57766 0.0
C1236 C 0.22293 0.0617 0.53323 0.0
C1237 C 0.20764 0.07953 0.51376 0.0
C1238 C 0.17699 0.05209 0.61542 0.0
C1239 C 0.19449 0.08166 0.57299 0.0
C1240 C 0.15812 0.04995 0.63921 0.0
C1241 C 0.14461 0.07498 0.65046 0.0
C1242 C 0.18185 0.07939 0.60248 0.0
C1243 C 0.1521 0.10211 0.63851 0.0
C1244 C 0.21631 0.06261 0.56297 0.0
C1245 C 0.18771 0.09977 0.52493 0.0
N1246 N 0.16956 0.10352 0.61462 0.0
N1247 N 0.18154 0.10017 0.55383 0.0
H1248 H 0.97427 0.78948 0.6171 0.0
H1249 H 0.84473 0.84446 0.52575 0.0
H1250 H 0.95914 0.75866 0.52994 0.0
H1251 H 0.84317 0.84649 0.6197 0.0
H1252 H 0.88253 0.80702 0.5277 0.0
H1253 H 0.92297 0.80343 0.6208 0.0
C1254 C 0.9597 0.78441 0.59928 0.0
C1255 C 0.97061 0.77265 0.57335 0.0
C1256 C 0.87345 0.81515 0.54791 0.0
C1257 C 0.91252 0.79004 0.5766 0.0
C1258 C 0.85193 0.83663 0.54679 0.0
C1259 C 0.84125 0.84913 0.57258 0.0
C1260 C 0.88478 0.80656 0.57499 0.0
C1261 C 0.85108 0.83782 0.59924 0.0
C1262 C 0.93049 0.79262 0.60122 0.0
C1263 C 0.95125 0.7673 0.55045 0.0
N1264 N 0.87278 0.81769 0.59975 0.0
N1265 N 0.92324 0.77674 0.5523 0.0
H1266 H 0.65991 0.14062 0.10911 0.0
H1267 H 0.54779 0.22612 0.00864 0.0
H1268 H 0.65834 0.13754 0.01523 0.0
H1269 H 0.5344 0.21018 0.10005 0.0
H1270 H 0.59798 0.20863 0.01322 0.0
H1271 H 0.62376 0.17992 0.10793 0.0
C1272 C 0.65254 0.14871 0.08824 0.0
C1273 C 0.66166 0.13545 0.06222 0.0
C1274 C 0.5844 0.20979 0.0325 0.0
C1275 C 0.62047 0.18027 0.06078 0.0
C1276 C 0.55594 0.22006 0.02993 0.0
C1277 C 0.53732 0.21973 0.05408 0.0
C1278 C 0.59398 0.19866 0.05932 0.0
C1279 C 0.54841 0.21101 0.08107 0.0
C1280 C 0.63184 0.17105 0.08761 0.0
C1281 C 0.65144 0.14682 0.03581 0.0
N1282 N 0.57597 0.20032 0.08291 0.0
N1283 N 0.63113 0.16832 0.03578 0.0
H1284 H 0.4898 0.65434 0.40514 0.0
H1285 H 0.34963 0.60723 0.49004 0.0
H1286 H 0.46587 0.6972 0.48535 0.0
H1287 H 0.3517 0.60806 0.39605 0.0
H1288 H 0.39383 0.63725 0.49045 0.0
H1289 H 0.44071 0.63358 0.40246 0.0
C1290 C 0.4741 0.65955 0.42201 0.0
C1291 C 0.48177 0.67743 0.44549 0.0
C1292 C 0.38427 0.63115 0.4698 0.0
C1293 C 0.42612 0.65346 0.44288 0.0
C1294 C 0.35919 0.61401 0.46955 0.0
C1295 C 0.34711 0.60509 0.44299 0.0
C1296 C 0.39763 0.63871 0.44334 0.0
C1297 C 0.36027 0.61451 0.41702 0.0
C1298 C 0.44616 0.64784 0.42043 0.0
C1299 C 0.46069 0.68361 0.46681 0.0
N1300 N 0.38514 0.63041 0.41784 0.0
N1301 N 0.43389 0.67123 0.46526 0.0
H1302 H 0.0356 0.28016 0.89674 0.0
H1303 H 0.18071 0.35314 0.95887 0.0
H1304 H 0.05491 0.28913 0.98803 0.0
H1305 H 0.13812 0.38067 0.88007 0.0
H1306 H 0.14501 0.3135 0.96373 0.0
H1307 H 0.08366 0.30086 0.88504 0.0
C1308 C 0.05046 0.28548 0.91424 0.0
C1309 C 0.04161 0.28305 0.94332 0.0
C1310 C 0.14408 0.32769 0.94492 0.0
C1311 C 0.096 0.30654 0.93028 0.0
C1312 C 0.16447 0.35007 0.94206 0.0
C1313 C 0.16217 0.36986 0.91901 0.0
C1314 C 0.12156 0.32516 0.92442 0.0
C1315 C 0.14049 0.36561 0.89806 0.0
C1316 C 0.07766 0.29743 0.9076 0.0
C1317 C 0.06119 0.29073 0.96534 0.0
N1318 N 0.12081 0.34378 0.90136 0.0
N1319 N 0.08747 0.30235 0.95838 0.0
H1320 H 0.59155 0.83173 0.85788 0.0
H1321 H 0.50036 0.95888 0.78331 0.0
H1322 H 0.49959 0.84648 0.87133 0.0
H1323 H 0.59405 0.9569 0.78647 0.0
H1324 H 0.49895 0.90937 0.80292 0.0
H1325 H 0.59155 0.86914 0.82013 0.0
C1326 C 0.57122 0.84248 0.85262 0.0
C1327 C 0.54562 0.83639 0.8683 0.0
C1328 C 0.51987 0.91939 0.79863 0.0
C1329 C 0.54558 0.87917 0.82497 0.0
C1330 C 0.52066 0.94746 0.78719 0.0
C1331 C 0.54736 0.96161 0.78317 0.0
C1332 C 0.54599 0.90563 0.80652 0.0
C1333 C 0.57309 0.9464 0.78902 0.0
C1334 C 0.5713 0.86386 0.83105 0.0
C1335 C 0.51993 0.85081 0.86021 0.0
N1336 N 0.57179 0.91926 0.80086 0.0
N1337 N 0.52065 0.87178 0.83934 0.0
H1338 H 0.09137 0.62807 0.07803 0.0
H1339 H 0.02018 0.54754 0.21375 0.0
H1340 H 0.03454 0.67212 0.1385 0.0
H1341 H 0.08232 0.50873 0.15465 0.0
H1342 H 0.02978 0.59519 0.1915 0.0
H1343 H 0.09354 0.58642 0.11074 0.0
C1344 C 0.07969 0.62901 0.09856 0.0
C1345 C 0.06265 0.65325 0.10569 0.0
C1346 C 0.04158 0.57628 0.18373 0.0
C1347 C 0.06424 0.6054 0.14295 0.0
C1348 C 0.03613 0.5491 0.19642 0.0
C1349 C 0.05005 0.52406 0.18562 0.0
C1350 C 0.0611 0.57828 0.1602 0.0
C1351 C 0.07063 0.52734 0.16327 0.0
C1352 C 0.08086 0.60525 0.11724 0.0
C1353 C 0.04796 0.65366 0.13245 0.0
N1354 N 0.07528 0.55383 0.15116 0.0
N1355 N 0.04866 0.62975 0.15001 0.0
H1356 H 0.37919 0.47332 0.67928 0.0
H1357 H 0.44413 0.31741 0.64447 0.0
H1358 H 0.45826 0.44064 0.71794 0.0
H1359 H 0.36558 0.35257 0.6073 0.0
H1360 H 0.44371 0.35677 0.68083 0.0
H1361 H 0.36769 0.42431 0.66263 0.0
C1362 C 0.39391 0.45566 0.68464 0.0
C1363 C 0.41998 0.46107 0.69945 0.0
C1364 C 0.42611 0.3554 0.66525 0.0
C1365 C 0.40735 0.40494 0.67991 0.0
C1366 C 0.42628 0.33286 0.64472 0.0
C1367 C 0.40491 0.33208 0.62307 0.0
C1368 C 0.40451 0.37713 0.66373 0.0
C1369 C 0.38245 0.35267 0.62376 0.0
C1370 C 0.38735 0.42764 0.67515 0.0
C1371 C 0.43805 0.43738 0.70629 0.0
N1372 N 0.38303 0.37458 0.64351 0.0
N1373 N 0.43173 0.41038 0.69588 0.0
H1374 H 0.95983 0.04069 0.26574 0.0
H1375 H 0.87503 0.15993 0.35921 0.0
H1376 H 0.87909 0.02513 0.31141 0.0
H1377 H 0.96855 0.15811 0.34914 0.0
H1378 H 0.87123 0.11948 0.32493 0.0
H1379 H 0.95727 0.09206 0.28005 0.0
C1380 C 0.94115 0.04824 0.27808 0.0
C1381 C 0.91984 0.02862 0.28787 0.0
C1382 C 0.89249 0.12844 0.32975 0.0
C1383 C 0.91678 0.0871 0.30396 0.0
C1384 C 0.89474 0.1516 0.34922 0.0
C1385 C 0.92225 0.16192 0.35763 0.0
C1386 C 0.91788 0.11579 0.31838 0.0
C1387 C 0.94696 0.15039 0.34372 0.0
C1388 C 0.93981 0.07748 0.2863 0.0
C1389 C 0.89617 0.03952 0.30383 0.0
N1390 N 0.94423 0.12759 0.32506 0.0
N1391 N 0.89541 0.06803 0.31164 0.0
H1392 H 0.96348 0.36985 0.16992 0.0
H1393 H 0.01155 0.26098 0.04511 0.0
H1394 H 0.05012 0.33422 0.1625 0.0
H1395 H 0.9277 0.30289 0.05155 0.0
H1396 H 0.02216 0.27616 0.09524 0.0
H1397 H 0.94629 0.33396 0.13486 0.0
C1398 C 0.97875 0.35404 0.16125 0.0
C1399 C 0.00831 0.3553 0.16855 0.0
C1400 C 0.00117 0.28143 0.08589 0.0
C1401 C 0.98906 0.31466 0.12787 0.0
C1402 C 0.99509 0.27266 0.05738 0.0
C1403 C 0.969 0.28133 0.04415 0.0
C1404 C 0.98092 0.29879 0.10102 0.0
C1405 C 0.94835 0.29639 0.06085 0.0
C1406 C 0.96898 0.33356 0.14122 0.0
C1407 C 0.02717 0.33408 0.15716 0.0
N1408 N 0.95491 0.30499 0.08827 0.0
N1409 N 0.01735 0.315 0.13677 0.0
H1410 H 0.57926 0.65743 0.54599 0.0
H1411 H 0.44268 0.65215 0.65068 0.0
H1412 H 0.5132 0.72414 0.54558 0.0
H1413 H 0.51694 0.59482 0.65642 0.0
H1414 H 0.47081 0.68399 0.61797 0.0
H1415 H 0.5605 0.63972 0.59236 0.0
C1416 C 0.56118 0.66874 0.55619 0.0
C1417 C 0.54764 0.6921 0.54219 0.0
C1418 C 0.48106 0.6647 0.62685 0.0
C1419 C 0.52513 0.67136 0.59454 0.0
C1420 C 0.46502 0.64659 0.64546 0.0
C1421 C 0.47732 0.62051 0.65551 0.0
C1422 C 0.50944 0.65652 0.61854 0.0
C1423 C 0.50637 0.61433 0.64841 0.0
C1424 C 0.55034 0.65861 0.58259 0.0
C1425 C 0.52423 0.70609 0.556 0.0
N1426 N 0.52128 0.63198 0.63013 0.0
N1427 N 0.51321 0.69506 0.58122 0.0
H1428 H 0.50608 0.23252 0.95285 0.0
H1429 H 0.54841 0.16614 0.8212 0.0
H1430 H 0.43457 0.17173 0.95102 0.0
H1431 H 0.49282 0.09737 0.85273 0.0
H1432 H 0.52708 0.19916 0.85789 0.0
H1433 H 0.522 0.21444 0.90516 0.0
C1434 C 0.49326 0.21599 0.942 0.0
C1435 C 0.46927 0.20324 0.95606 0.0
C1436 C 0.51952 0.17689 0.85669 0.0
C1437 C 0.48707 0.1826 0.90155 0.0
C1438 C 0.53145 0.1582 0.83557 0.0
C1439 C 0.52259 0.12899 0.83438 0.0
C1440 C 0.49848 0.16608 0.87627 0.0
C1441 C 0.50056 0.11964 0.85329 0.0
C1442 C 0.50231 0.20569 0.9147 0.0
C1443 C 0.45351 0.18179 0.9412 0.0
N1444 N 0.48938 0.13805 0.87343 0.0
N1445 N 0.46294 0.17189 0.91503 0.0
H1446 H 0.98918 0.77348 0.4691 0.0
H1447 H 0.00435 0.89155 0.34256 0.0
H1448 H 0.05299 0.84241 0.46668 0.0
H1449 H 0.92466 0.84421 0.35757 0.0
H1450 H 0.02778 0.86365 0.38095 0.0
H1451 H 0.97024 0.79033 0.42201 0.0
C1452 C -0.00061 0.79191 0.45849 0.0
C1453 C 0.02245 0.80685 0.47184 0.0
C1454 C 0.00524 0.85912 0.37574 0.0
C1455 C 0.00126 0.82579 0.41826 0.0
C1456 C 0.99186 0.87505 0.35388 0.0
C1457 C 0.96239 0.87062 0.34752 0.0
C1458 C 0.98898 0.83868 0.39155 0.0
C1459 C 0.94739 0.84839 0.36213 0.0
C1460 C 0.98855 0.8015 0.43175 0.0
C1461 C 0.03492 0.83057 0.45731 0.0
N1462 N 0.96077 0.83346 0.38395 0.0
N1463 N 0.02412 0.83933 0.43133 0.0
H1464 H 0.15789 0.03956 0.31607 0.0
H1465 H 0.01518 0.94335 0.34008 0.0
H1466 H 0.11546 0.02112 0.39796 0.0
H1467 H 0.03348 0.98273 0.25686 0.0
H1468 H 0.06191 0.96014 0.35798 0.0
H1469 H 0.12068 0.00972 0.29113 0.0
C1470 C 0.14093 0.02913 0.32873 0.0
C1471 C 0.13936 0.03314 0.359 0.0
C1472 C 0.05603 0.96487 0.33565 0.0
C1473 C 0.09785 -0.00124 0.33109 0.0
C1474 C 0.02946 0.95506 0.32539 0.0
C1475 C 0.02058 0.96191 0.29713 0.0
C1476 C 0.07355 0.98247 0.31783 0.0
C1477 C 0.03977 0.97715 0.27887 0.0
C1478 C 0.11986 0.01217 0.31456 0.0
C1479 C 0.1172 0.01907 0.37453 0.0
N1480 N 0.06531 0.98758 0.28976 0.0
N1481 N 0.09743 0.00258 0.36042 0.0
H1482 H 0.45517 0.99341 0.76699 0.0
H1483 H 0.34061 0.01105 0.89614 0.0
H1484 H 0.4515 0.06605 0.82655 0.0
H1485 H 0.34599 0.93366 0.84314 0.0
H1486 H 0.37477 0.03524 0.86379 0.0
H1487 H 0.4093 0.97521 0.78743 0.0
C1488 C 0.44438 0.00588 0.78389 0.0
C1489 C 0.45734 0.03104 0.79545 0.0
C1490 C 0.36841 0.01305 0.85895 0.0
C1491 C 0.40516 0.01032 0.81889 0.0
C1492 C 0.34896 -0.0008 0.87749 0.0
C1493 C 0.34103 0.97014 0.87259 0.0
C1494 C 0.38049 -0.00234 0.83545 0.0
C1495 C 0.35185 0.95602 0.84774 0.0
C1496 C 0.4183 0.99539 0.79563 0.0
C1497 C 0.44249 0.04632 0.81732 0.0
N1498 N 0.37153 0.96979 0.83028 0.0
N1499 N 0.41738 0.03556 0.82851 0.0
H1500 H 0.66643 0.45221 0.65794 0.0
H1501 H 0.51862 0.53767 0.645 0.0
H1502 H 0.64559 0.51128 0.58806 0.0
H1503 H 0.54735 0.50574 0.72844 0.0
H1504 H 0.56685 0.529 0.62528 0.0
H1505 H 0.62582 0.47284 0.68654 0.0
C1506 C 0.65385 0.47007 0.64904 0.0
C1507 C 0.65885 0.47982 0.62053 0.0
C1508 C 0.56291 0.52408 0.648 0.0
C1509 C 0.61269 0.50304 0.65257 0.0
C1510 C 0.53525 0.52886 0.6592 0.0
C1511 C 0.52902 0.52209 0.68825 0.0
C1512 C 0.58451 0.51172 0.66572 0.0
C1513 C 0.55143 0.5111 0.70585 0.0
C1514 C 0.63068 0.48172 0.66524 0.0
C1515 C 0.64201 0.50284 0.6098 0.0
N1516 N 0.57823 0.50571 0.69414 0.0
N1517 N 0.61948 0.51338 0.62565 0.0
H1518 H 0.94049 0.4976 0.23192 0.0
H1519 H 0.82428 0.4691 0.10669 0.0
H1520 H 0.9422 0.42643 0.17078 0.0
H1521 H 0.83201 0.55137 0.15132 0.0
H1522 H 0.85776 0.44733 0.14151 0.0
H1523 H 0.89207 0.51162 0.21351 0.0
C1524 C 0.93019 0.48444 0.2153 0.0
C1525 C 0.94511 0.46101 0.20258 0.0
C1526 C 0.85188 0.47005 0.14403 0.0
C1527 C 0.89044 0.47674 0.18157 0.0
C1528 C 0.83279 0.48247 0.12415 0.0
C1529 C 0.826 0.51216 0.12584 0.0
C1530 C 0.86474 0.48758 0.16547 0.0
C1531 C 0.83703 0.52841 0.1492 0.0
C1532 C 0.90277 0.49251 0.2047 0.0
C1533 C 0.93129 0.44476 0.18092 0.0
N1534 N 0.85647 0.51604 0.16784 0.0
N1535 N 0.90483 0.45306 0.17093 0.0
H1536 H 0.33773 0.16596 0.0392 0.0
H1537 H 0.34975 0.01689 0.9527 0.0
H1538 H 0.41359 0.13623 0.99222 0.0
H1539 H 0.2671 0.04857 0.98436 0.0
H1540 H 0.37153 0.06365 0.96359 0.0
H1541 H 0.30915 0.12673 0.01618 0.0
C1542 C 0.34815 0.15154 0.02367 0.0
C1543 C 0.37809 0.15376 0.01799 0.0
C1544 C 0.34854 0.06073 0.96801 0.0
C1545 C 0.34596 0.10944 0.99181 0.0
C1546 C 0.33616 0.03393 0.96184 0.0
C1547 C 0.30676 0.02892 0.96798 0.0
C1548 C 0.33163 0.08262 0.98116 0.0
C1549 C 0.28994 0.05175 0.97946 0.0
C1550 C 0.33193 0.12922 0.0106 0.0
C1551 C 0.39068 0.1348 -0.00232 0.0
N1552 N 0.30278 0.07762 0.98623 0.0
N1553 N 0.37464 0.11335 0.98557 0.0
H1554 H 0.90431 0.34175 0.01669 0.0
H1555 H 0.76134 0.43885 -0.00235 0.0
H1556 H 0.84111 0.32468 0.94964 0.0
H1557 H 0.8356 0.45977 0.0509 0.0
H1558 H 0.78306 0.39061 0.98764 0.0
H1559 H 0.87157 0.37751 0.03812 0.0
C1560 C 0.88321 0.34531 0.00678 0.0
C1561 C 0.87542 0.33066 0.98127 0.0
C1562 C 0.79424 0.40563 0.00193 0.0
C1563 C 0.83812 0.37232 0.00502 0.0
C1564 C 0.78183 0.43299 0.00771 0.0
C1565 C 0.797 0.45322 0.02479 0.0
C1566 C 0.8216 0.39867 0.01379 0.0
C1567 C 0.82346 0.44485 0.0373 0.0
C1568 C 0.86453 0.36579 0.01892 0.0
C1569 C 0.8478 0.33574 0.96934 0.0
N1570 N 0.83495 0.41835 0.03142 0.0
N1571 N 0.83025 0.35672 0.981 0.0
H1572 H 0.64241 0.67037 0.51942 0.0
H1573 H 0.73967 0.53205 0.48321 0.0
H1574 H 0.6693 0.64735 0.43243 0.0
H1575 H 0.69229 0.54711 0.563 0.0
H1576 H 0.72877 0.58224 0.46805 0.0
H1577 H 0.67665 0.63478 0.53894 0.0
C1578 C 0.65621 0.6583 0.50449 0.0
C1579 C 0.65283 0.66126 0.47436 0.0
C1580 C 0.7214 0.57471 0.48915 0.0
C1581 C 0.69118 0.6199 0.49636 0.0
C1582 C 0.72764 0.54619 0.49782 0.0
C1583 C 0.71632 0.53547 0.5241 0.0
C1584 C 0.7041 0.59246 0.50715 0.0
C1585 C 0.7009 0.55448 0.54231 0.0
C1586 C 0.67563 0.63792 0.51559 0.0
C1587 C 0.67127 0.64544 0.45583 0.0
N1588 N 0.695 0.58197 0.53336 0.0
N1589 N 0.68923 0.62476 0.46714 0.0
H1590 H 0.07639 0.87436 0.51016 0.0
H1591 H 0.2176 0.96749 0.47753 0.0
H1592 H 0.16203 0.84162 0.53072 0.0
H1593 H 0.13401 0.98265 0.43731 0.0
H1594 H 0.19921 0.92121 0.4968 0.0
H1595 H 0.09828 0.91414 0.48328 0.0
C1596 C 0.09993 0.87558 0.50895 0.0
C1597 C 0.11748 0.85492 0.52296 0.0
C1598 C 0.1851 0.93457 0.48346 0.0
C1599 C 0.14284 0.90074 0.49221 0.0
C1600 C 0.19551 0.96101 0.47252 0.0
C1601 C 0.17715 0.97925 0.45617 0.0
C1602 C 0.15613 0.92652 0.47813 0.0
C1603 C 0.14884 0.9696 0.45015 0.0
C1604 C 0.11244 0.89825 0.49343 0.0
C1605 C 0.14781 0.85726 0.52028 0.0
N1606 N 0.13916 0.94409 0.46137 0.0
N1607 N 0.15965 0.88014 0.5055 0.0
H1608 H 0.93217 0.6645 0.82855 0.0
H1609 H 0.05597 0.72172 0.9354 0.0
H1610 H 0.02144 0.63505 0.82717 0.0
H1611 H 0.96461 0.71894 0.95661 0.0
H1612 H 0.04437 0.70712 0.88525 0.0
H1613 H 0.94541 0.70143 0.86467 0.0
C1614 C 0.9547 0.66636 0.83522 0.0
C1615 C 0.97568 0.64639 0.82543 0.0
C1616 C 0.02682 0.71061 0.90066 0.0
C1617 C 0.99084 0.68842 0.86638 0.0
C1618 C 0.03341 0.71906 0.92908 0.0
C1619 C 0.01111 0.7214 0.94974 0.0
C1620 C -0.00221 0.70461 0.8932 0.0
C1621 C 0.98226 0.7173 0.94101 0.0
C1622 C 0.96219 0.68734 0.85586 0.0
C1623 C 0.00455 0.64973 0.83469 0.0
N1624 N 0.97638 0.70877 0.91336 0.0
N1625 N 0.01124 0.67012 0.85499 0.0
H1626 H 0.50532 0.41021 0.36859 0.0
H1627 H 0.47462 0.26221 0.44386 0.0
H1628 H 0.53086 0.33134 0.32415 0.0
H1629 H 0.41974 0.33777 0.45427 0.0
H1630 H 0.49464 0.28367 0.39892 0.0
H1631 H 0.47443 0.38197 0.40059 0.0
C1632 C 0.50446 0.38681 0.36562 0.0
C1633 C 0.52089 0.37303 0.34391 0.0
C1634 C 0.47754 0.29503 0.41059 0.0
C1635 C 0.48542 0.34032 0.38076 0.0
C1636 C 0.46604 0.28276 0.43606 0.0
C1637 C 0.44595 0.29862 0.45282 0.0
C1638 C 0.46885 0.3232 0.40238 0.0
C1639 C 0.43561 0.32518 0.44211 0.0
C1640 C 0.48652 0.37069 0.38373 0.0
C1641 C 0.51859 0.34268 0.34081 0.0
N1642 N 0.44754 0.33688 0.41784 0.0
N1643 N 0.50148 0.32712 0.35948 0.0
H1644 H 0.55546 0.8234 0.03976 0.0
H1645 H 0.52143 0.86295 0.17825 0.0
H1646 H 0.48188 0.76514 0.04167 0.0
H1647 H 0.43433 0.84048 0.15209 0.0
H1648 H 0.54077 0.83194 0.13929 0.0
H1649 H 0.54552 0.83697 0.08992 0.0
C1650 C 0.53744 0.81311 0.051 0.0
C1651 C 0.51926 0.7934 0.03653 0.0
C1652 C 0.51743 0.83345 0.14225 0.0
C1653 C 0.50793 0.80838 0.09437 0.0
C1654 C 0.50648 0.85067 0.16479 0.0
C1655 C 0.4764 0.85395 0.16821 0.0
C1656 C 0.498 0.82024 0.12264 0.0
C1657 C 0.45772 0.83814 0.15008 0.0
C1658 C 0.532 0.82052 0.07987 0.0
C1659 C 0.49637 0.78048 0.05213 0.0
N1660 N 0.46884 0.82223 0.1277 0.0
N1661 N 0.49093 0.78871 0.0801 0.0
H1662 H 0.00506 0.22612 0.52633 0.0
H1663 H -0.00065 0.10139 0.6473 0.0
H1664 H 0.94823 0.15129 0.52396 0.0
H1665 H 0.0698 0.16285 0.6411 0.0
H1666 H 0.97395 0.12696 0.6083 0.0
H1667 H 0.02324 0.20993 0.57381 0.0
C1668 C 0.99624 0.20645 0.53591 0.0
C1669 C 0.97541 0.18976 0.52106 0.0
C1670 C 0.99478 0.13518 0.61563 0.0
C1671 C 0.99581 0.17144 0.5752 0.0
C1672 C 0.00914 0.12065 0.63789 0.0
C1673 C 0.03655 0.13008 0.64697 0.0
C1674 C 0.00821 0.1591 0.60215 0.0
C1675 C 0.04854 0.15515 0.6345 0.0
C1676 C 0.00663 0.19726 0.56294 0.0
C1677 C 0.96463 0.16455 0.53444 0.0
N1678 N 0.0344 0.16871 0.61229 0.0
N1679 N 0.97504 0.15612 0.56069 0.0
H1680 H 0.84262 0.95035 0.66914 0.0
H1681 H 0.98076 0.05281 0.64296 0.0
H1682 H 0.8791 0.97393 0.58573 0.0
H1683 H 0.97102 0.00423 0.72292 0.0
H1684 H 0.93467 0.03358 0.62622 0.0
H1685 H 0.88203 0.97819 0.6931 0.0
C1686 C 0.85868 0.96155 0.65596 0.0
C1687 C 0.85788 0.95963 0.62547 0.0
C1688 C 0.94245 0.02725 0.64755 0.0
C1689 C 0.90199 0.9916 0.65235 0.0
C1690 C 0.9688 0.03835 0.65722 0.0
C1691 C 0.98007 0.02985 0.68426 0.0
C1692 C 0.92716 0.00721 0.66482 0.0
C1693 C 0.96328 0.01111 0.70177 0.0
C1694 C 0.88106 0.97729 0.66956 0.0
C1695 C 0.87906 0.97451 0.6093 0.0
N1696 N 0.93772 5e-05 0.69158 0.0
N1697 N 0.90012 0.98982 0.6229 0.0
H1698 H 0.68342 -0.00153 0.14118 0.0
H1699 H 0.5551 0.92387 0.18035 0.0
H1700 H 0.61773 0.06404 0.12668 0.0
H1701 H 0.53562 0.00322 0.22699 0.0
H1702 H 0.59997 0.9465 0.16192 0.0
H1703 H 0.64923 0.97226 0.17328 0.0
C1704 C 0.66206 0.00763 0.14537 0.0
C1705 C 0.65311 0.03324 0.13136 0.0
C1706 C 0.5862 0.95853 0.17687 0.0
C1707 C 0.61461 0.00394 0.16783 0.0
C1708 C 0.56063 0.94574 0.18725 0.0
C1709 C 0.54162 0.96178 0.20506 0.0
C1710 C 0.59217 0.98769 0.18377 0.0
C1711 C 0.54969 0.99009 0.21331 0.0
C1712 C 0.64266 0.99264 0.16339 0.0
C1713 C 0.62522 0.04422 0.13705 0.0
N1714 N 0.57396 0.00248 0.20188 0.0
N1715 N 0.60691 0.02952 0.155 0.0
H1716 H 0.45487 0.50046 0.27593 0.0
H1717 H 0.34065 0.47099 0.4033 0.0
H1718 H 0.46171 0.43212 0.34007 0.0
H1719 H 0.3314 0.54197 0.34266 0.0
H1720 H 0.37996 0.45113 0.37366 0.0
H1721 H 0.40559 0.51136 0.29387 0.0
C1722 C 0.44589 0.48755 0.29352 0.0
C1723 C 0.4626 0.46574 0.30694 0.0
C1724 C 0.36914 0.4708 0.36642 0.0
C1725 C 0.40644 0.4779 0.32732 0.0
C1726 C 0.3466 0.48201 0.38328 0.0
C1727 C 0.33303 0.50812 0.37536 0.0
C1728 C 0.37874 0.48622 0.34179 0.0
C1729 C 0.34139 0.52167 0.34931 0.0
C1730 C 0.4178 0.49377 0.30373 0.0
C1731 C 0.44988 0.44955 0.32949 0.0
N1732 N 0.36421 0.51085 0.33365 0.0
N1733 N 0.42273 0.45611 0.33907 0.0
H1734 H 0.16933 0.52524 0.88163 0.0
H1735 H 0.05169 0.5094 0.75586 0.0
H1736 H 0.15512 0.44513 0.83478 0.0
H1737 H 0.05135 0.57443 0.82354 0.0
H1738 H 0.09996 0.49301 0.77245 0.0
H1739 H 0.13777 0.55061 0.84741 0.0
C1740 C 0.15991 0.51313 0.86372 0.0
C1741 C 0.16413 0.48301 0.8613 0.0
C1742 C 0.08962 0.51137 0.78309 0.0
C1743 C 0.12764 0.51171 0.82245 0.0
C1744 C 0.06228 0.52081 0.77356 0.0
C1745 C 0.04774 0.54307 0.78864 0.0
C1746 C 0.10232 0.52469 0.80748 0.0
C1747 C 0.06194 0.55702 0.8116 0.0
C1748 C 0.14194 0.5276 0.84422 0.0
C1749 C 0.15204 0.46836 0.83745 0.0
N1750 N 0.08837 0.54745 0.82048 0.0
N1751 N 0.13366 0.48277 0.81921 0.0
H1752 H 0.56977 0.86053 -0.00035 0.0
H1753 H 0.71534 0.95205 0.0047 0.0
H1754 H 0.64824 0.83087 0.95718 0.0
H1755 H 0.64099 0.96772 0.06032 0.0
H1756 H 0.69369 0.90569 0.98977 0.0
H1757 H 0.59754 0.89769 0.02475 0.0
C1758 C 0.59303 0.86177 0.9958 0.0
C1759 C 0.60674 0.8429 0.97609 0.0
C1760 C 0.68238 0.91911 0.00556 0.0
C1761 C 0.63879 0.8859 0.00448 0.0
C1762 C 0.69468 0.94559 0.01409 0.0
C1763 C 0.67967 0.96409 0.03337 0.0
C1764 C 0.65487 0.91121 0.01632 0.0
C1765 C 0.65311 0.95447 0.045 0.0
C1766 C 0.60893 0.88297 0.01023 0.0
C1767 C 0.63693 0.84517 0.97216 0.0
N1768 N 0.64144 0.9289 0.03602 0.0
N1769 N 0.65198 0.86675 0.98588 0.0
H1770 H 0.22477 0.55307 0.98886 0.0
H1771 H 0.0886 0.65809 0.96141 0.0
H1772 H 0.14945 0.53193 0.93715 0.0
H1773 H 0.14426 0.66607 0.03665 0.0
H1774 H 0.12059 0.62014 0.94245 0.0
H1775 H 0.2043 0.60211 -0.00276 0.0
C1776 C 0.20426 0.559 0.97887 0.0
C1777 C 0.18846 0.53853 0.9627 0.0
C1778 C 0.12602 0.6305 0.96292 0.0
C1779 C 0.16541 0.59404 0.97165 0.0
C1780 C 0.10779 0.65218 0.97377 0.0
C1781 C 0.11335 0.66474 0.00103 0.0
C1782 C 0.14996 0.62121 0.97945 0.0
C1783 C 0.13891 0.65663 0.01574 0.0
C1784 C 0.1926 0.5868 0.98368 0.0
C1785 C 0.16203 0.54704 0.95014 0.0
N1786 N 0.15607 0.63496 0.00499 0.0
N1787 N 0.15129 0.57409 0.95497 0.0
H1788 H 0.35418 0.32005 0.47492 0.0
H1789 H 0.25266 0.45389 0.51326 0.0
H1790 H 0.32391 0.33902 0.56178 0.0
H1791 H 0.29394 0.43816 0.43031 0.0
H1792 H 0.26506 0.40402 0.52815 0.0
H1793 H 0.31832 0.35398 0.45548 0.0
C1794 C 0.33944 0.33098 0.48982 0.0
C1795 C 0.3422 0.32731 0.51993 0.0
C1796 C 0.27069 0.41126 0.50642 0.0
C1797 C 0.30186 0.36687 0.49805 0.0
C1798 C 0.26351 0.43961 0.49789 0.0
C1799 C 0.27285 0.45011 0.47078 0.0
C1800 C 0.28711 0.39354 0.48755 0.0
C1801 C 0.28686 0.43093 0.45163 0.0
C1802 C 0.31902 0.35038 0.47877 0.0
C1803 C 0.32248 0.34156 0.5384 0.0
N1804 N 0.29391 0.40371 0.46053 0.0
N1805 N 0.30353 0.3614 0.52719 0.0
H1806 H 0.91992 0.1221 0.48186 0.0
H1807 H 0.77705 0.03022 0.51149 0.0
H1808 H 0.835 0.15673 0.46146 0.0
H1809 H 0.86032 0.01308 0.55155 0.0
H1810 H 0.79614 0.07676 0.49336 0.0
H1811 H 0.89717 0.08199 0.50749 0.0
C1812 C 0.89635 0.12123 0.48284 0.0
C1813 C 0.87928 0.14255 0.46925 0.0
C1814 C 0.81001 0.06289 0.50643 0.0
C1815 C 0.85289 0.09632 0.49858 0.0
C1816 C 0.79919 0.03633 0.51675 0.0
C1817 C 0.81726 0.01745 0.53269 0.0
C1818 C 0.83909 0.07043 0.512 0.0
C1819 C 0.84568 0.02661 0.539 0.0
C1820 C 0.88334 0.09836 0.49765 0.0
C1821 C 0.84887 0.1406 0.4716 0.0
N1822 N 0.85574 0.05223 0.52841 0.0
N1823 N 0.83653 0.11753 0.48569 0.0
loop_
_geom_bond_atom_site_label_1
_geom_bond_atom_site_label_2
_geom_bond_distance
_geom_bond_site_symmetry_2
_ccdc_geom_bond_type
Fe0 O2 1.918 . S
Fe0 O5 1.997 . S
Fe0 O6 2.002 . S
Fe0 O11 1.976 . S
Fe0 O14 1.996 1_455 S
Fe1 O2 1.918 . S
Fe1 O9 1.997 . S
Fe1 O12 1.996 . S
Fe1 O16 1.976 . S
Fe1 O19 2.002 . S
O2 Fe0 1.918 . S
O2 Fe1 1.918 . S
O2 Fe3 1.918 . S
Fe3 O2 1.918 . S
Fe3 O4 2.002 . S
Fe3 O13 1.976 1_455 S
Fe3 O17 1.996 . S
Fe3 O20 1.997 . S
O4 Fe3 2.002 . S
O4 C21 1.295 . S
O5 Fe0 1.997 . S
O5 C21 1.235 . S
O6 Fe0 2.002 . S
O6 C7 1.295 . S
C7 O6 1.295 . S
C7 O9 1.235 . S
C8 O13 1.287 . S
C8 O14 1.255 . S
O9 Fe1 1.997 . S
O9 C7 1.235 . S
C10 O16 1.287 . S
C10 O17 1.255 . S
O11 Fe0 1.976 . S
O11 C18 1.287 . S
O12 Fe1 1.996 . S
O12 C18 1.255 . S
O13 Fe3 1.976 1_655 S
O13 C8 1.287 . S
O14 Fe0 1.996 1_655 S
O14 C8 1.255 . S
C15 O19 1.295 . S
C15 O20 1.235 . S
O16 Fe1 1.976 . S
O16 C10 1.287 . S
O17 Fe3 1.996 . S
O17 C10 1.255 . S
C18 O11 1.287 . S
C18 O12 1.255 . S
O19 Fe1 2.002 . S
O19 C15 1.295 . S
O20 Fe3 1.997 . S
O20 C15 1.235 . S
C21 O4 1.295 . S
C21 O5 1.235 . S
Fe22 O24 1.918 . S
Fe22 O27 1.997 . S
Fe22 O28 2.002 . S
Fe22 O33 1.976 . S
Fe22 O36 1.996 . S
Fe23 O24 1.918 . S
Fe23 O31 1.997 . S
Fe23 O34 1.996 . S
Fe23 O38 1.976 . S
Fe23 O41 2.002 . S
O24 Fe22 1.918 . S
O24 Fe23 1.918 . S
O24 Fe25 1.918 . S
Fe25 O24 1.918 . S
Fe25 O26 2.002 . S
Fe25 O35 1.976 . S
Fe25 O39 1.996 . S
Fe25 O42 1.997 . S
O26 Fe25 2.002 . S
O26 C43 1.295 . S
O27 Fe22 1.997 . S
O27 C43 1.235 . S
O28 Fe22 2.002 . S
O28 C29 1.295 . S
C29 O28 1.295 . S
C29 O31 1.235 . S
C30 O35 1.287 . S
C30 O36 1.255 . S
O31 Fe23 1.997 . S
O31 C29 1.235 . S
C32 O38 1.287 . S
C32 O39 1.255 . S
O33 Fe22 1.976 . S
O33 C40 1.287 . S
O34 Fe23 1.996 . S
O34 C40 1.255 . S
O35 Fe25 1.976 . S
O35 C30 1.287 . S
O36 Fe22 1.996 . S
O36 C30 1.255 . S
C37 O41 1.295 . S
C37 O42 1.235 . S
O38 Fe23 1.976 . S
O38 C32 1.287 . S
O39 Fe25 1.996 . S
O39 C32 1.255 . S
C40 O33 1.287 . S
C40 O34 1.255 . S
O41 Fe23 2.002 . S
O41 C37 1.295 . S
O42 Fe25 1.997 . S
O42 C37 1.235 . S
C43 O26 1.295 . S
C43 O27 1.235 . S
Fe44 O46 1.918 . S
Fe44 O49 1.997 . S
Fe44 O50 2.002 . S
Fe44 O55 1.976 . S
Fe44 O58 1.996 . S
Fe45 O46 1.918 . S
Fe45 O53 1.997 . S
Fe45 O56 1.996 . S
Fe45 O60 1.976 . S
Fe45 O63 2.002 . S
O46 Fe44 1.918 . S
O46 Fe45 1.918 . S
O46 Fe47 1.918 . S
Fe47 O46 1.918 . S
Fe47 O48 2.002 . S
Fe47 O57 1.976 . S
Fe47 O61 1.996 . S
Fe47 O64 1.984 1_545 S
O48 Fe47 2.002 . S
O48 C65 1.295 . S
O49 Fe44 1.997 . S
O49 C65 1.235 . S
O50 Fe44 2.002 . S
O50 C51 1.295 . S
C51 O50 1.295 . S
C51 O53 1.235 . S
C52 O57 1.287 . S
C52 O58 1.255 . S
O53 Fe45 1.997 . S
O53 C51 1.235 . S
C54 O60 1.287 . S
C54 O61 1.255 . S
O55 Fe44 1.976 . S
O55 C62 1.287 . S
O56 Fe45 1.996 . S
O56 C62 1.255 . S
O57 Fe47 1.976 . S
O57 C52 1.287 . S
O58 Fe44 1.996 . S
O58 C52 1.255 . S
C59 O63 1.295 1_565 S
C59 O64 1.240 . S
O60 Fe45 1.976 . S
O60 C54 1.287 . S
O61 Fe47 1.996 . S
O61 C54 1.255 . S
C62 O55 1.287 . S
C62 O56 1.255 . S
O63 Fe45 2.002 . S
O63 C59 1.295 1_545 S
O64 Fe47 1.984 1_565 S
O64 C59 1.240 . S
C65 O48 1.295 . S
C65 O49 1.235 . S
Fe66 O68 1.918 . S
Fe66 O71 1.997 . S
Fe66 O72 2.002 . S
Fe66 O77 1.976 1_655 S
Fe66 O80 1.996 . S
Fe67 O68 1.918 . S
Fe67 O75 1.984 1_565 S
Fe67 O78 1.996 1_655 S
Fe67 O82 1.976 . S
Fe67 O85 2.002 . S
O68 Fe66 1.918 . S
O68 Fe67 1.918 . S
O68 Fe69 1.918 . S
Fe69 O68 1.918 . S
Fe69 O70 2.002 . S
Fe69 O79 1.976 . S
Fe69 O83 1.996 . S
Fe69 O86 1.997 . S
O70 Fe69 2.002 . S
O70 C87 1.295 . S
O71 Fe66 1.997 . S
O71 C87 1.235 . S
O72 Fe66 2.002 . S
O72 C73 1.295 1_565 S
C73 O72 1.295 1_545 S
C73 O75 1.240 . S
C74 O79 1.287 . S
C74 O80 1.255 . S
O75 Fe67 1.984 1_545 S
O75 C73 1.240 . S
C76 O82 1.287 . S
C76 O83 1.255 . S
O77 Fe66 1.976 1_455 S
O77 C84 1.287 . S
O78 Fe67 1.996 1_455 S
O78 C84 1.255 . S
O79 Fe69 1.976 . S
O79 C74 1.287 . S
O80 Fe66 1.996 . S
O80 C74 1.255 . S
C81 O85 1.295 . S
C81 O86 1.235 . S
O82 Fe67 1.976 . S
O82 C76 1.287 . S
O83 Fe69 1.996 . S
O83 C76 1.255 . S
C84 O77 1.287 . S
C84 O78 1.255 . S
O85 Fe67 2.002 . S
O85 C81 1.295 . S
O86 Fe69 1.997 . S
O86 C81 1.235 . S
C87 O70 1.295 . S
C87 O71 1.235 . S
Fe88 O90 1.918 . S
Fe88 O93 1.997 . S
Fe88 O94 2.002 . S
Fe88 O99 1.976 . S
Fe88 O102 1.996 . S
Fe89 O90 1.918 . S
Fe89 O97 1.997 . S
Fe89 O100 1.996 . S
Fe89 O104 1.976 1_545 S
Fe89 O107 2.002 . S
O90 Fe88 1.918 . S
O90 Fe89 1.918 . S
O90 Fe91 1.918 . S
Fe91 O90 1.918 . S
Fe91 O92 2.002 . S
Fe91 O101 1.976 . S
Fe91 O105 1.996 1_545 S
Fe91 O108 1.997 . S
O92 Fe91 2.002 . S
O92 C109 1.295 . S
O93 Fe88 1.997 . S
O93 C109 1.235 . S
O94 Fe88 2.002 . S
O94 C95 1.295 . S
C95 O94 1.295 . S
C95 O97 1.235 . S
C96 O101 1.287 . S
C96 O102 1.255 . S
O97 Fe89 1.997 . S
O97 C95 1.235 . S
C98 O104 1.287 . S
C98 O105 1.255 . S
O99 Fe88 1.976 . S
O99 C106 1.287 . S
O100 Fe89 1.996 . S
O100 C106 1.255 . S
O101 Fe91 1.976 . S
O101 C96 1.287 . S
O102 Fe88 1.996 . S
O102 C96 1.255 . S
C103 O107 1.295 . S
C103 O108 1.235 . S
O104 Fe89 1.976 1_565 S
O104 C98 1.287 . S
O105 Fe91 1.996 1_565 S
O105 C98 1.255 . S
C106 O99 1.287 . S
C106 O100 1.255 . S
O107 Fe89 2.002 . S
O107 C103 1.295 . S
O108 Fe91 1.997 . S
O108 C103 1.235 . S
C109 O92 1.295 . S
C109 O93 1.235 . S
Fe110 O112 1.918 . S
Fe110 O115 1.997 . S
Fe110 O116 2.002 . S
Fe110 O121 1.976 1_565 S
Fe110 O124 1.996 . S
Fe111 O112 1.918 . S
Fe111 O119 1.984 1_556 S
Fe111 O122 1.996 1_565 S
Fe111 O126 1.976 . S
Fe111 O129 2.002 . S
O112 Fe110 1.918 . S
O112 Fe111 1.918 . S
O112 Fe113 1.918 . S
Fe113 O112 1.918 . S
Fe113 O114 2.002 . S
Fe113 O123 1.976 . S
Fe113 O127 1.996 . S
Fe113 O130 1.997 . S
O114 Fe113 2.002 . S
O114 C131 1.295 . S
O115 Fe110 1.997 . S
O115 C131 1.235 . S
O116 Fe110 2.002 . S
O116 C117 1.295 1_556 S
C117 O116 1.295 1_554 S
C117 O119 1.240 . S
C118 O123 1.287 . S
C118 O124 1.255 . S
O119 Fe111 1.984 1_554 S
O119 C117 1.240 . S
C120 O126 1.287 . S
C120 O127 1.255 . S
O121 Fe110 1.976 1_545 S
O121 C128 1.287 . S
O122 Fe111 1.996 1_545 S
O122 C128 1.255 . S
O123 Fe113 1.976 . S
O123 C118 1.287 . S
O124 Fe110 1.996 . S
O124 C118 1.255 . S
C125 O129 1.295 . S
C125 O130 1.235 . S
O126 Fe111 1.976 . S
O126 C120 1.287 . S
O127 Fe113 1.996 . S
O127 C120 1.255 . S
C128 O121 1.287 . S
C128 O122 1.255 . S
O129 Fe111 2.002 . S
O129 C125 1.295 . S
O130 Fe113 1.997 . S
O130 C125 1.235 . S
C131 O114 1.295 . S
C131 O115 1.235 . S
Fe132 O134 1.918 . S
Fe132 O137 1.997 . S
Fe132 O138 2.002 . S
Fe132 O143 1.976 . S
Fe132 O146 1.996 . S
Fe133 O134 1.918 . S
Fe133 O141 1.997 . S
Fe133 O144 1.996 . S
Fe133 O148 1.976 . S
Fe133 O151 2.002 . S
O134 Fe132 1.918 . S
O134 Fe133 1.918 . S
O134 Fe135 1.918 . S
Fe135 O134 1.918 . S
Fe135 O136 2.002 . S
Fe135 O145 1.976 . S
Fe135 O149 1.996 . S
Fe135 O152 1.997 . S
O136 Fe135 2.002 . S
O136 C153 1.295 . S
O137 Fe132 1.997 . S
O137 C153 1.235 . S
O138 Fe132 2.002 . S
O138 C139 1.295 . S
C139 O138 1.295 . S
C139 O141 1.235 . S
C140 O145 1.287 . S
C140 O146 1.255 . S
O141 Fe133 1.997 . S
O141 C139 1.235 . S
C142 O148 1.287 . S
C142 O149 1.255 . S
O143 Fe132 1.976 . S
O143 C150 1.287 . S
O144 Fe133 1.996 . S
O144 C150 1.255 . S
O145 Fe135 1.976 . S
O145 C140 1.287 . S
O146 Fe132 1.996 . S
O146 C140 1.255 . S
C147 O151 1.295 . S
C147 O152 1.235 . S
O148 Fe133 1.976 . S
O148 C142 1.287 . S
O149 Fe135 1.996 . S
O149 C142 1.255 . S
C150 O143 1.287 . S
C150 O144 1.255 . S
O151 Fe133 2.002 . S
O151 C147 1.295 . S
O152 Fe135 1.997 . S
O152 C147 1.235 . S
C153 O136 1.295 . S
C153 O137 1.235 . S
Fe154 O156 1.918 . S
Fe154 O159 1.997 . S
Fe154 O160 2.002 . S
Fe154 O165 1.976 . S
Fe154 O168 1.996 . S
Fe155 O156 1.918 . S
Fe155 O163 1.997 . S
Fe155 O166 1.996 . S
Fe155 O170 1.976 . S
Fe155 O173 2.002 . S
O156 Fe154 1.918 . S
O156 Fe155 1.918 . S
O156 Fe157 1.918 . S
Fe157 O156 1.918 . S
Fe157 O158 2.002 . S
Fe157 O167 1.976 . S
Fe157 O171 1.996 . S
Fe157 O174 1.984 1_554 S
O158 Fe157 2.002 . S
O158 C175 1.295 . S
O159 Fe154 1.997 . S
O159 C175 1.235 . S
O160 Fe154 2.002 . S
O160 C161 1.295 . S
C161 O160 1.295 . S
C161 O163 1.235 . S
C162 O167 1.287 . S
C162 O168 1.255 . S
O163 Fe155 1.997 . S
O163 C161 1.235 . S
C164 O170 1.287 . S
C164 O171 1.255 . S
O165 Fe154 1.976 . S
O165 C172 1.287 . S
O166 Fe155 1.996 . S
O166 C172 1.255 . S
O167 Fe157 1.976 . S
O167 C162 1.287 . S
O168 Fe154 1.996 . S
O168 C162 1.255 . S
C169 O173 1.295 1_556 S
C169 O174 1.240 . S
O170 Fe155 1.976 . S
O170 C164 1.287 . S
O171 Fe157 1.996 . S
O171 C164 1.255 . S
C172 O165 1.287 . S
C172 O166 1.255 . S
O173 Fe155 2.002 . S
O173 C169 1.295 1_554 S
O174 Fe157 1.984 1_556 S
O174 C169 1.240 . S
C175 O158 1.295 . S
C175 O159 1.235 . S
Fe176 O178 1.918 . S
Fe176 O181 1.997 . S
Fe176 O182 2.002 . S
Fe176 O187 1.976 . S
Fe176 O190 1.996 . S
Fe177 O178 1.918 . S
Fe177 O185 1.997 . S
Fe177 O188 1.996 . S
Fe177 O192 1.976 1_554 S
Fe177 O195 2.002 . S
O178 Fe176 1.918 . S
O178 Fe177 1.918 . S
O178 Fe179 1.918 . S
Fe179 O178 1.918 . S
Fe179 O180 2.002 . S
Fe179 O189 1.976 . S
Fe179 O193 1.996 1_554 S
Fe179 O196 1.997 . S
O180 Fe179 2.002 . S
O180 C197 1.295 . S
O181 Fe176 1.997 . S
O181 C197 1.235 . S
O182 Fe176 2.002 . S
O182 C183 1.295 . S
C183 O182 1.295 . S
C183 O185 1.235 . S
C184 O189 1.287 . S
C184 O190 1.255 . S
O185 Fe177 1.997 . S
O185 C183 1.235 . S
C186 O192 1.287 . S
C186 O193 1.255 . S
O187 Fe176 1.976 . S
O187 C194 1.287 . S
O188 Fe177 1.996 . S
O188 C194 1.255 . S
O189 Fe179 1.976 . S
O189 C184 1.287 . S
O190 Fe176 1.996 . S
O190 C184 1.255 . S
C191 O195 1.295 . S
C191 O196 1.235 . S
O192 Fe177 1.976 1_556 S
O192 C186 1.287 . S
O193 Fe179 1.996 1_556 S
O193 C186 1.255 . S
C194 O187 1.287 . S
C194 O188 1.255 . S
O195 Fe177 2.002 . S
O195 C191 1.295 . S
O196 Fe179 1.997 . S
O196 C191 1.235 . S
C197 O180 1.295 . S
C197 O181 1.235 . S
Fe198 O200 1.918 . S
Fe198 O203 1.984 1_655 S
Fe198 O204 2.002 . S
Fe198 O209 1.976 . S
Fe198 O212 1.996 1_556 S
Fe199 O200 1.918 . S
Fe199 O207 1.997 . S
Fe199 O210 1.996 . S
Fe199 O214 1.976 . S
Fe199 O217 2.002 . S
O200 Fe198 1.918 . S
O200 Fe199 1.918 . S
O200 Fe201 1.918 . S
Fe201 O200 1.918 . S
Fe201 O202 2.002 . S
Fe201 O211 1.976 1_556 S
Fe201 O215 1.996 . S
Fe201 O218 1.997 . S
O202 Fe201 2.002 . S
O202 C219 1.295 1_655 S
O203 Fe198 1.984 1_455 S
O203 C219 1.240 . S
O204 Fe198 2.002 . S
O204 C205 1.295 . S
C205 O204 1.295 . S
C205 O207 1.235 . S
C206 O211 1.287 . S
C206 O212 1.255 . S
O207 Fe199 1.997 . S
O207 C205 1.235 . S
C208 O214 1.287 . S
C208 O215 1.255 . S
O209 Fe198 1.976 . S
O209 C216 1.287 . S
O210 Fe199 1.996 . S
O210 C216 1.255 . S
O211 Fe201 1.976 1_554 S
O211 C206 1.287 . S
O212 Fe198 1.996 1_554 S
O212 C206 1.255 . S
C213 O217 1.295 . S
C213 O218 1.235 . S
O214 Fe199 1.976 . S
O214 C208 1.287 . S
O215 Fe201 1.996 . S
O215 C208 1.255 . S
C216 O209 1.287 . S
C216 O210 1.255 . S
O217 Fe199 2.002 . S
O217 C213 1.295 . S
O218 Fe201 1.997 . S
O218 C213 1.235 . S
C219 O202 1.295 1_455 S
C219 O203 1.240 . S
Fe220 O222 1.918 . S
Fe220 O225 1.997 . S
Fe220 O226 2.002 . S
Fe220 O231 1.976 . S
Fe220 O234 1.996 . S
Fe221 O222 1.918 . S
Fe221 O229 1.997 . S
Fe221 O232 1.996 . S
Fe221 O236 1.976 . S
Fe221 O239 2.002 . S
O222 Fe220 1.918 . S
O222 Fe221 1.918 . S
O222 Fe223 1.918 . S
Fe223 O222 1.918 . S
Fe223 O224 2.002 . S
Fe223 O233 1.976 . S
Fe223 O237 1.996 . S
Fe223 O240 1.997 . S
O224 Fe223 2.002 . S
O224 C241 1.295 . S
O225 Fe220 1.997 . S
O225 C241 1.235 . S
O226 Fe220 2.002 . S
O226 C227 1.295 . S
C227 O226 1.295 . S
C227 O229 1.235 . S
C228 O233 1.287 . S
C228 O234 1.255 . S
O229 Fe221 1.997 . S
O229 C227 1.235 . S
C230 O236 1.287 . S
C230 O237 1.255 . S
O231 Fe220 1.976 . S
O231 C238 1.287 . S
O232 Fe221 1.996 . S
O232 C238 1.255 . S
O233 Fe223 1.976 . S
O233 C228 1.287 . S
O234 Fe220 1.996 . S
O234 C228 1.255 . S
C235 O239 1.295 . S
C235 O240 1.235 . S
O236 Fe221 1.976 . S
O236 C230 1.287 . S
O237 Fe223 1.996 . S
O237 C230 1.255 . S
C238 O231 1.287 . S
C238 O232 1.255 . S
O239 Fe221 2.002 . S
O239 C235 1.295 . S
O240 Fe223 1.997 . S
O240 C235 1.235 . S
C241 O224 1.295 . S
C241 O225 1.235 . S
Fe242 O244 1.918 . S
Fe242 O247 1.997 . S
Fe242 O248 2.002 . S
Fe242 O253 1.976 . S
Fe242 O256 1.996 . S
Fe243 O244 1.918 . S
Fe243 O251 1.984 1_455 S
Fe243 O254 1.996 . S
Fe243 O258 1.976 . S
Fe243 O261 2.002 . S
O244 Fe242 1.918 . S
O244 Fe243 1.918 . S
O244 Fe245 1.918 . S
Fe245 O244 1.918 . S
Fe245 O246 2.002 . S
Fe245 O255 1.976 . S
Fe245 O259 1.996 . S
Fe245 O262 1.997 . S
O246 Fe245 2.002 . S
O246 C263 1.295 . S
O247 Fe242 1.997 . S
O247 C263 1.235 . S
O248 Fe242 2.002 . S
O248 C249 1.295 1_455 S
C249 O248 1.295 1_655 S
C249 O251 1.240 . S
C250 O255 1.287 . S
C250 O256 1.255 . S
O251 Fe243 1.984 1_655 S
O251 C249 1.240 . S
C252 O258 1.287 . S
C252 O259 1.255 . S
O253 Fe242 1.976 . S
O253 C260 1.287 . S
O254 Fe243 1.996 . S
O254 C260 1.255 . S
O255 Fe245 1.976 . S
O255 C250 1.287 . S
O256 Fe242 1.996 . S
O256 C250 1.255 . S
C257 O261 1.295 . S
C257 O262 1.235 . S
O258 Fe243 1.976 . S
O258 C252 1.287 . S
O259 Fe245 1.996 . S
O259 C252 1.255 . S
C260 O253 1.287 . S
C260 O254 1.255 . S
O261 Fe243 2.002 . S
O261 C257 1.295 . S
O262 Fe245 1.997 . S
O262 C257 1.235 . S
C263 O246 1.295 . S
C263 O247 1.235 . S
Fe264 O266 1.918 . S
Fe264 O269 1.997 . S
Fe264 O270 2.002 . S
Fe264 O275 1.976 . S
Fe264 O278 1.996 . S
Fe265 O266 1.918 . S
Fe265 O273 1.997 . S
Fe265 O276 1.996 . S
Fe265 O280 1.976 1_655 S
Fe265 O283 2.002 . S
O266 Fe264 1.918 . S
O266 Fe265 1.918 . S
O266 Fe267 1.918 . S
Fe267 O266 1.918 . S
Fe267 O268 2.002 . S
Fe267 O277 1.976 . S
Fe267 O281 1.996 1_655 S
Fe267 O284 1.997 . S
O268 Fe267 2.002 . S
O268 C285 1.295 . S
O269 Fe264 1.997 . S
O269 C285 1.235 . S
O270 Fe264 2.002 . S
O270 C271 1.295 . S
C271 O270 1.295 . S
C271 O273 1.235 . S
C272 O277 1.287 . S
C272 O278 1.255 . S
O273 Fe265 1.997 . S
O273 C271 1.235 . S
C274 O280 1.287 . S
C274 O281 1.255 . S
O275 Fe264 1.976 . S
O275 C282 1.287 . S
O276 Fe265 1.996 . S
O276 C282 1.255 . S
O277 Fe267 1.976 . S
O277 C272 1.287 . S
O278 Fe264 1.996 . S
O278 C272 1.255 . S
C279 O283 1.295 . S
C279 O284 1.235 . S
O280 Fe265 1.976 1_455 S
O280 C274 1.287 . S
O281 Fe267 1.996 1_455 S
O281 C274 1.255 . S
C282 O275 1.287 . S
C282 O276 1.255 . S
O283 Fe265 2.002 . S
O283 C279 1.295 . S
O284 Fe267 1.997 . S
O284 C279 1.235 . S
C285 O268 1.295 . S
C285 O269 1.235 . S
Fe286 O288 1.918 . S
Fe286 O291 1.997 . S
Fe286 O292 2.002 . S
Fe286 O297 1.976 . S
Fe286 O300 1.996 . S
Fe287 O288 1.918 . S
Fe287 O295 1.997 . S
Fe287 O298 1.996 . S
Fe287 O302 1.976 . S
Fe287 O305 2.002 . S
O288 Fe286 1.918 . S
O288 Fe287 1.918 . S
O288 Fe289 1.918 . S
Fe289 O288 1.918 . S
Fe289 O290 2.002 . S
Fe289 O299 1.976 . S
Fe289 O303 1.996 . S
Fe289 O306 1.997 . S
O290 Fe289 2.002 . S
O290 C307 1.295 . S
O291 Fe286 1.997 . S
O291 C307 1.235 . S
O292 Fe286 2.002 . S
O292 C293 1.295 . S
C293 O292 1.295 . S
C293 O295 1.235 . S
C294 O299 1.287 . S
C294 O300 1.255 . S
O295 Fe287 1.997 . S
O295 C293 1.235 . S
C296 O302 1.287 . S
C296 O303 1.255 . S
O297 Fe286 1.976 . S
O297 C304 1.287 . S
O298 Fe287 1.996 . S
O298 C304 1.255 . S
O299 Fe289 1.976 . S
O299 C294 1.287 . S
O300 Fe286 1.996 . S
O300 C294 1.255 . S
C301 O305 1.295 . S
C301 O306 1.235 . S
O302 Fe287 1.976 . S
O302 C296 1.287 . S
O303 Fe289 1.996 . S
O303 C296 1.255 . S
C304 O297 1.287 . S
C304 O298 1.255 . S
O305 Fe287 2.002 . S
O305 C301 1.295 . S
O306 Fe289 1.997 . S
O306 C301 1.235 . S
C307 O290 1.295 . S
C307 O291 1.235 . S
Fe308 O310 1.918 . S
Fe308 O313 1.997 . S
Fe308 O314 2.002 . S
Fe308 O319 1.976 . S
Fe308 O322 1.996 . S
Fe309 O310 1.918 . S
Fe309 O317 1.997 . S
Fe309 O320 1.996 . S
Fe309 O324 1.976 . S
Fe309 O327 2.002 . S
O310 Fe308 1.918 . S
O310 Fe309 1.918 . S
O310 Fe311 1.918 . S
Fe311 O310 1.918 . S
Fe311 O312 2.002 . S
Fe311 O321 1.976 . S
Fe311 O325 1.996 . S
Fe311 O328 1.984 1_565 S
O312 Fe311 2.002 . S
O312 C329 1.295 . S
O313 Fe308 1.997 . S
O313 C329 1.235 . S
O314 Fe308 2.002 . S
O314 C315 1.295 . S
C315 O314 1.295 . S
C315 O317 1.235 . S
C316 O321 1.287 . S
C316 O322 1.255 . S
O317 Fe309 1.997 . S
O317 C315 1.235 . S
C318 O324 1.287 . S
C318 O325 1.255 . S
O319 Fe308 1.976 . S
O319 C326 1.287 . S
O320 Fe309 1.996 . S
O320 C326 1.255 . S
O321 Fe311 1.976 . S
O321 C316 1.287 . S
O322 Fe308 1.996 . S
O322 C316 1.255 . S
C323 O327 1.295 1_545 S
C323 O328 1.240 . S
O324 Fe309 1.976 . S
O324 C318 1.287 . S
O325 Fe311 1.996 . S
O325 C318 1.255 . S
C326 O319 1.287 . S
C326 O320 1.255 . S
O327 Fe309 2.002 . S
O327 C323 1.295 1_565 S
O328 Fe311 1.984 1_545 S
O328 C323 1.240 . S
C329 O312 1.295 . S
C329 O313 1.235 . S
Fe330 O332 1.918 . S
Fe330 O335 1.997 . S
Fe330 O336 2.002 . S
Fe330 O341 1.976 . S
Fe330 O344 1.996 . S
Fe331 O332 1.918 . S
Fe331 O339 1.997 . S
Fe331 O342 1.996 . S
Fe331 O346 1.976 1_455 S
Fe331 O349 2.002 . S
O332 Fe330 1.918 . S
O332 Fe331 1.918 . S
O332 Fe333 1.918 . S
Fe333 O332 1.918 . S
Fe333 O334 2.002 . S
Fe333 O343 1.976 . S
Fe333 O347 1.996 1_455 S
Fe333 O350 1.984 1_545 S
O334 Fe333 2.002 . S
O334 C351 1.295 . S
O335 Fe330 1.997 . S
O335 C351 1.235 . S
O336 Fe330 2.002 . S
O336 C337 1.295 . S
C337 O336 1.295 . S
C337 O339 1.235 . S
C338 O343 1.287 . S
C338 O344 1.255 . S
O339 Fe331 1.997 . S
O339 C337 1.235 . S
C340 O346 1.287 . S
C340 O347 1.255 . S
O341 Fe330 1.976 . S
O341 C348 1.287 . S
O342 Fe331 1.996 . S
O342 C348 1.255 . S
O343 Fe333 1.976 . S
O343 C338 1.287 . S
O344 Fe330 1.996 . S
O344 C338 1.255 . S
C345 O349 1.295 1_565 S
C345 O350 1.240 . S
O346 Fe331 1.976 1_655 S
O346 C340 1.287 . S
O347 Fe333 1.996 1_655 S
O347 C340 1.255 . S
C348 O341 1.287 . S
C348 O342 1.255 . S
O349 Fe331 2.002 . S
O349 C345 1.295 1_545 S
O350 Fe333 1.984 1_565 S
O350 C345 1.240 . S
C351 O334 1.295 . S
C351 O335 1.235 . S
Fe352 O354 1.918 . S
Fe352 O357 1.997 . S
Fe352 O358 2.002 . S
Fe352 O363 1.976 . S
Fe352 O366 1.996 . S
Fe353 O354 1.918 . S
Fe353 O361 1.997 . S
Fe353 O364 1.996 . S
Fe353 O368 1.976 1_565 S
Fe353 O371 2.002 . S
O354 Fe352 1.918 . S
O354 Fe353 1.918 . S
O354 Fe355 1.918 . S
Fe355 O354 1.918 . S
Fe355 O356 2.002 . S
Fe355 O365 1.976 . S
Fe355 O369 1.996 1_565 S
Fe355 O372 1.997 . S
O356 Fe355 2.002 . S
O356 C373 1.295 . S
O357 Fe352 1.997 . S
O357 C373 1.235 . S
O358 Fe352 2.002 . S
O358 C359 1.295 . S
C359 O358 1.295 . S
C359 O361 1.235 . S
C360 O365 1.287 . S
C360 O366 1.255 . S
O361 Fe353 1.997 . S
O361 C359 1.235 . S
C362 O368 1.287 . S
C362 O369 1.255 . S
O363 Fe352 1.976 . S
O363 C370 1.287 . S
O364 Fe353 1.996 . S
O364 C370 1.255 . S
O365 Fe355 1.976 . S
O365 C360 1.287 . S
O366 Fe352 1.996 . S
O366 C360 1.255 . S
C367 O371 1.295 . S
C367 O372 1.235 . S
O368 Fe353 1.976 1_545 S
O368 C362 1.287 . S
O369 Fe355 1.996 1_545 S
O369 C362 1.255 . S
C370 O363 1.287 . S
C370 O364 1.255 . S
O371 Fe353 2.002 . S
O371 C367 1.295 . S
O372 Fe355 1.997 . S
O372 C367 1.235 . S
C373 O356 1.295 . S
C373 O357 1.235 . S
Fe374 O376 1.918 . S
Fe374 O379 1.984 1_554 S
Fe374 O380 2.002 . S
Fe374 O385 1.976 . S
Fe374 O388 1.996 1_545 S
Fe375 O376 1.918 . S
Fe375 O383 1.997 . S
Fe375 O386 1.996 . S
Fe375 O390 1.976 . S
Fe375 O393 2.002 . S
O376 Fe374 1.918 . S
O376 Fe375 1.918 . S
O376 Fe377 1.918 . S
Fe377 O376 1.918 . S
Fe377 O378 2.002 . S
Fe377 O387 1.976 1_545 S
Fe377 O391 1.996 . S
Fe377 O394 1.997 . S
O378 Fe377 2.002 . S
O378 C395 1.295 1_554 S
O379 Fe374 1.984 1_556 S
O379 C395 1.240 . S
O380 Fe374 2.002 . S
O380 C381 1.295 . S
C381 O380 1.295 . S
C381 O383 1.235 . S
C382 O387 1.287 . S
C382 O388 1.255 . S
O383 Fe375 1.997 . S
O383 C381 1.235 . S
C384 O390 1.287 . S
C384 O391 1.255 . S
O385 Fe374 1.976 . S
O385 C392 1.287 . S
O386 Fe375 1.996 . S
O386 C392 1.255 . S
O387 Fe377 1.976 1_565 S
O387 C382 1.287 . S
O388 Fe374 1.996 1_565 S
O388 C382 1.255 . S
C389 O393 1.295 . S
C389 O394 1.235 . S
O390 Fe375 1.976 . S
O390 C384 1.287 . S
O391 Fe377 1.996 . S
O391 C384 1.255 . S
C392 O385 1.287 . S
C392 O386 1.255 . S
O393 Fe375 2.002 . S
O393 C389 1.295 . S
O394 Fe377 1.997 . S
O394 C389 1.235 . S
C395 O378 1.295 1_556 S
C395 O379 1.240 . S
Fe396 O398 1.918 . S
Fe396 O401 1.997 . S
Fe396 O402 2.002 . S
Fe396 O407 1.976 . S
Fe396 O410 1.996 . S
Fe397 O398 1.918 . S
Fe397 O405 1.997 . S
Fe397 O408 1.996 . S
Fe397 O412 1.976 . S
Fe397 O415 2.002 . S
O398 Fe396 1.918 . S
O398 Fe397 1.918 . S
O398 Fe399 1.918 . S
Fe399 O398 1.918 . S
Fe399 O400 2.002 . S
Fe399 O409 1.976 . S
Fe399 O413 1.996 . S
Fe399 O416 1.997 . S
O400 Fe399 2.002 . S
O400 C417 1.295 . S
O401 Fe396 1.997 . S
O401 C417 1.235 . S
O402 Fe396 2.002 . S
O402 C403 1.295 . S
C403 O402 1.295 . S
C403 O405 1.235 . S
C404 O409 1.287 . S
C404 O410 1.255 . S
O405 Fe397 1.997 . S
O405 C403 1.235 . S
C406 O412 1.287 . S
C406 O413 1.255 . S
O407 Fe396 1.976 . S
O407 C414 1.287 . S
O408 Fe397 1.996 . S
O408 C414 1.255 . S
O409 Fe399 1.976 . S
O409 C404 1.287 . S
O410 Fe396 1.996 . S
O410 C404 1.255 . S
C411 O415 1.295 . S
C411 O416 1.235 . S
O412 Fe397 1.976 . S
O412 C406 1.287 . S
O413 Fe399 1.996 . S
O413 C406 1.255 . S
C414 O407 1.287 . S
C414 O408 1.255 . S
O415 Fe397 2.002 . S
O415 C411 1.295 . S
O416 Fe399 1.997 . S
O416 C411 1.235 . S
C417 O400 1.295 . S
C417 O401 1.235 . S
Fe418 O420 1.918 . S
Fe418 O423 1.997 . S
Fe418 O424 2.002 . S
Fe418 O429 1.976 . S
Fe418 O432 1.996 . S
Fe419 O420 1.918 . S
Fe419 O427 1.997 . S
Fe419 O430 1.996 . S
Fe419 O434 1.976 . S
Fe419 O437 2.002 . S
O420 Fe418 1.918 . S
O420 Fe419 1.918 . S
O420 Fe421 1.918 . S
Fe421 O420 1.918 . S
Fe421 O422 2.002 . S
Fe421 O431 1.976 . S
Fe421 O435 1.996 . S
Fe421 O438 1.984 1_556 S
O422 Fe421 2.002 . S
O422 C439 1.295 . S
O423 Fe418 1.997 . S
O423 C439 1.235 . S
O424 Fe418 2.002 . S
O424 C425 1.295 . S
C425 O424 1.295 . S
C425 O427 1.235 . S
C426 O431 1.287 . S
C426 O432 1.255 . S
O427 Fe419 1.997 . S
O427 C425 1.235 . S
C428 O434 1.287 . S
C428 O435 1.255 . S
O429 Fe418 1.976 . S
O429 C436 1.287 . S
O430 Fe419 1.996 . S
O430 C436 1.255 . S
O431 Fe421 1.976 . S
O431 C426 1.287 . S
O432 Fe418 1.996 . S
O432 C426 1.255 . S
C433 O437 1.295 1_554 S
C433 O438 1.240 . S
O434 Fe419 1.976 . S
O434 C428 1.287 . S
O435 Fe421 1.996 . S
O435 C428 1.255 . S
C436 O429 1.287 . S
C436 O430 1.255 . S
O437 Fe419 2.002 . S
O437 C433 1.295 1_556 S
O438 Fe421 1.984 1_554 S
O438 C433 1.240 . S
C439 O422 1.295 . S
C439 O423 1.235 . S
Fe440 O442 1.918 . S
Fe440 O445 1.997 . S
Fe440 O446 2.002 . S
Fe440 O451 1.976 . S
Fe440 O454 1.996 . S
Fe441 O442 1.918 . S
Fe441 O449 1.997 . S
Fe441 O452 1.996 . S
Fe441 O456 1.976 1_556 S
Fe441 O459 2.002 . S
O442 Fe440 1.918 . S
O442 Fe441 1.918 . S
O442 Fe443 1.918 . S
Fe443 O442 1.918 . S
Fe443 O444 2.002 . S
Fe443 O453 1.976 . S
Fe443 O457 1.996 1_556 S
Fe443 O460 1.997 . S
O444 Fe443 2.002 . S
O444 C461 1.295 . S
O445 Fe440 1.997 . S
O445 C461 1.235 . S
O446 Fe440 2.002 . S
O446 C447 1.295 . S
C447 O446 1.295 . S
C447 O449 1.235 . S
C448 O453 1.287 . S
C448 O454 1.255 . S
O449 Fe441 1.997 . S
O449 C447 1.235 . S
C450 O456 1.287 . S
C450 O457 1.255 . S
O451 Fe440 1.976 . S
O451 C458 1.287 . S
O452 Fe441 1.996 . S
O452 C458 1.255 . S
O453 Fe443 1.976 . S
O453 C448 1.287 . S
O454 Fe440 1.996 . S
O454 C448 1.255 . S
C455 O459 1.295 . S
C455 O460 1.235 . S
O456 Fe441 1.976 1_554 S
O456 C450 1.287 . S
O457 Fe443 1.996 1_554 S
O457 C450 1.255 . S
C458 O451 1.287 . S
C458 O452 1.255 . S
O459 Fe441 2.002 . S
O459 C455 1.295 . S
O460 Fe443 1.997 . S
O460 C455 1.235 . S
C461 O444 1.295 . S
C461 O445 1.235 . S
Fe462 O464 1.918 . S
Fe462 O467 1.984 1_455 S
Fe462 O468 2.002 . S
Fe462 O473 1.976 . S
Fe462 O476 1.996 1_554 S
Fe463 O464 1.918 . S
Fe463 O471 1.997 . S
Fe463 O474 1.996 . S
Fe463 O478 1.976 . S
Fe463 O481 2.002 . S
O464 Fe462 1.918 . S
O464 Fe463 1.918 . S
O464 Fe465 1.918 . S
Fe465 O464 1.918 . S
Fe465 O466 2.002 . S
Fe465 O475 1.976 1_554 S
Fe465 O479 1.996 . S
Fe465 O482 1.997 . S
O466 Fe465 2.002 . S
O466 C483 1.295 1_455 S
O467 Fe462 1.984 1_655 S
O467 C483 1.240 . S
O468 Fe462 2.002 . S
O468 C469 1.295 . S
C469 O468 1.295 . S
C469 O471 1.235 . S
C470 O475 1.287 . S
C470 O476 1.255 . S
O471 Fe463 1.997 . S
O471 C469 1.235 . S
C472 O478 1.287 . S
C472 O479 1.255 . S
O473 Fe462 1.976 . S
O473 C480 1.287 . S
O474 Fe463 1.996 . S
O474 C480 1.255 . S
O475 Fe465 1.976 1_556 S
O475 C470 1.287 . S
O476 Fe462 1.996 1_556 S
O476 C470 1.255 . S
C477 O481 1.295 . S
C477 O482 1.235 . S
O478 Fe463 1.976 . S
O478 C472 1.287 . S
O479 Fe465 1.996 . S
O479 C472 1.255 . S
C480 O473 1.287 . S
C480 O474 1.255 . S
O481 Fe463 2.002 . S
O481 C477 1.295 . S
O482 Fe465 1.997 . S
O482 C477 1.235 . S
C483 O466 1.295 1_655 S
C483 O467 1.240 . S
Fe484 O486 1.918 . S
Fe484 O489 1.997 . S
Fe484 O490 2.002 . S
Fe484 O495 1.976 . S
Fe484 O498 1.996 . S
Fe485 O486 1.918 . S
Fe485 O493 1.997 . S
Fe485 O496 1.996 . S
Fe485 O500 1.976 . S
Fe485 O503 2.002 . S
O486 Fe484 1.918 . S
O486 Fe485 1.918 . S
O486 Fe487 1.918 . S
Fe487 O486 1.918 . S
Fe487 O488 2.002 . S
Fe487 O497 1.976 . S
Fe487 O501 1.996 . S
Fe487 O504 1.997 . S
O488 Fe487 2.002 . S
O488 C505 1.295 . S
O489 Fe484 1.997 . S
O489 C505 1.235 . S
O490 Fe484 2.002 . S
O490 C491 1.295 . S
C491 O490 1.295 . S
C491 O493 1.235 . S
C492 O497 1.287 . S
C492 O498 1.255 . S
O493 Fe485 1.997 . S
O493 C491 1.235 . S
C494 O500 1.287 . S
C494 O501 1.255 . S
O495 Fe484 1.976 . S
O495 C502 1.287 . S
O496 Fe485 1.996 . S
O496 C502 1.255 . S
O497 Fe487 1.976 . S
O497 C492 1.287 . S
O498 Fe484 1.996 . S
O498 C492 1.255 . S
C499 O503 1.295 . S
C499 O504 1.235 . S
O500 Fe485 1.976 . S
O500 C494 1.287 . S
O501 Fe487 1.996 . S
O501 C494 1.255 . S
C502 O495 1.287 . S
C502 O496 1.255 . S
O503 Fe485 2.002 . S
O503 C499 1.295 . S
O504 Fe487 1.997 . S
O504 C499 1.235 . S
C505 O488 1.295 . S
C505 O489 1.235 . S
Fe506 O508 1.918 . S
Fe506 O511 1.997 . S
Fe506 O512 2.002 . S
Fe506 O517 1.976 . S
Fe506 O520 1.996 . S
Fe507 O508 1.918 . S
Fe507 O515 1.997 . S
Fe507 O518 1.996 . S
Fe507 O522 1.976 . S
Fe507 O525 2.002 . S
O508 Fe506 1.918 . S
O508 Fe507 1.918 . S
O508 Fe509 1.918 . S
Fe509 O508 1.918 . S
Fe509 O510 2.002 . S
Fe509 O519 1.976 . S
Fe509 O523 1.996 . S
Fe509 O526 1.984 1_655 S
O510 Fe509 2.002 . S
O510 C527 1.295 . S
O511 Fe506 1.997 . S
O511 C527 1.235 . S
O512 Fe506 2.002 . S
O512 C513 1.295 . S
C513 O512 1.295 . S
C513 O515 1.235 . S
C514 O519 1.287 . S
C514 O520 1.255 . S
O515 Fe507 1.997 . S
O515 C513 1.235 . S
C516 O522 1.287 . S
C516 O523 1.255 . S
O517 Fe506 1.976 . S
O517 C524 1.287 . S
O518 Fe507 1.996 . S
O518 C524 1.255 . S
O519 Fe509 1.976 . S
O519 C514 1.287 . S
O520 Fe506 1.996 . S
O520 C514 1.255 . S
C521 O525 1.295 1_455 S
C521 O526 1.240 . S
O522 Fe507 1.976 . S
O522 C516 1.287 . S
O523 Fe509 1.996 . S
O523 C516 1.255 . S
C524 O517 1.287 . S
C524 O518 1.255 . S
O525 Fe507 2.002 . S
O525 C521 1.295 1_655 S
O526 Fe509 1.984 1_455 S
O526 C521 1.240 . S
C527 O510 1.295 . S
C527 O511 1.235 . S
H528 C534 0.930 . S
H529 C538 0.930 . S
H530 C543 0.929 . S
H531 C541 0.929 . S
H532 C536 0.929 . S
H533 C542 0.929 . S
C534 H528 0.930 . S
C534 C535 1.367 . S
C534 C542 1.378 . S
C535 C534 1.367 . S
C535 C543 1.433 . S
C536 H532 0.929 . S
C536 C538 1.378 . S
C536 C540 1.350 . S
C537 C540 1.463 . S
C537 C542 1.350 . S
C537 N545 1.427 . S
C538 H529 0.930 . S
C538 C536 1.378 . S
C538 C539 1.367 . S
C539 C538 1.367 . S
C539 C541 1.433 . S
C540 C536 1.350 . S
C540 C537 1.463 . S
C540 N544 1.427 . S
C541 H531 0.929 . S
C541 C539 1.433 . S
C541 N544 1.384 . S
C542 H533 0.929 . S
C542 C534 1.378 . S
C542 C537 1.350 . S
C543 H530 0.929 . S
C543 C535 1.433 . S
C543 N545 1.384 . S
N544 C540 1.427 . S
N544 C541 1.384 . S
N545 C537 1.427 . S
N545 C543 1.384 . S
H546 C552 0.930 . S
H547 C556 0.930 . S
H548 C561 0.929 . S
H549 C559 0.929 . S
H550 C554 0.929 . S
H551 C560 0.929 . S
C552 H546 0.930 . S
C552 C553 1.367 . S
C552 C560 1.378 . S
C553 C552 1.367 . S
C553 C561 1.433 . S
C554 H550 0.929 . S
C554 C556 1.378 . S
C554 C558 1.350 . S
C555 C558 1.463 . S
C555 C560 1.350 . S
C555 N563 1.427 . S
C556 H547 0.930 . S
C556 C554 1.378 . S
C556 C557 1.367 . S
C557 C556 1.367 . S
C557 C559 1.433 . S
C558 C554 1.350 . S
C558 C555 1.463 . S
C558 N562 1.427 . S
C559 H549 0.929 . S
C559 C557 1.433 . S
C559 N562 1.384 . S
C560 H551 0.929 . S
C560 C552 1.378 . S
C560 C555 1.350 . S
C561 H548 0.929 . S
C561 C553 1.433 . S
C561 N563 1.384 . S
N562 C558 1.427 . S
N562 C559 1.384 . S
N563 C555 1.427 . S
N563 C561 1.384 . S
H564 C570 0.930 . S
H565 C574 0.930 . S
H566 C579 0.929 . S
H567 C577 0.929 . S
H568 C572 0.929 . S
H569 C578 0.929 1_565 S
C570 H564 0.930 . S
C570 C571 1.367 . S
C570 C578 1.378 . S
C571 C570 1.367 . S
C571 C579 1.433 . S
C572 H568 0.929 . S
C572 C574 1.378 . S
C572 C576 1.350 . S
C573 C576 1.463 . S
C573 C578 1.350 . S
C573 N581 1.427 . S
C574 H565 0.930 . S
C574 C572 1.378 . S
C574 C575 1.367 1_545 S
C575 C574 1.367 1_565 S
C575 C577 1.433 . S
C576 C572 1.350 . S
C576 C573 1.463 . S
C576 N580 1.427 1_545 S
C577 H567 0.929 . S
C577 C575 1.433 . S
C577 N580 1.384 . S
C578 H569 0.929 1_545 S
C578 C570 1.378 . S
C578 C573 1.350 . S
C579 H566 0.929 . S
C579 C571 1.433 . S
C579 N581 1.384 . S
N580 C576 1.427 1_565 S
N580 C577 1.384 . S
N581 C573 1.427 . S
N581 C579 1.384 . S
H582 C588 0.930 . S
H583 C592 0.930 . S
H584 C597 0.932 . S
H585 C595 0.929 . S
H586 C590 0.929 . S
H587 C596 0.929 . S
C588 H582 0.930 . S
C588 C589 1.367 . S
C588 C596 1.378 . S
C589 C588 1.367 . S
C589 C597 1.433 . S
C590 H586 0.929 . S
C590 C592 1.378 . S
C590 C594 1.350 1_545 S
C591 C594 1.463 . S
C591 C596 1.350 . S
C591 N599 1.439 . S
C592 H583 0.930 . S
C592 C590 1.378 . S
C592 C593 1.367 . S
C593 C592 1.367 . S
C593 C595 1.433 1_545 S
C594 C590 1.350 1_565 S
C594 C591 1.463 . S
C594 N598 1.427 . S
C595 H585 0.929 . S
C595 C593 1.433 1_565 S
C595 N598 1.384 . S
C596 H587 0.929 . S
C596 C588 1.378 . S
C596 C591 1.350 . S
C597 H584 0.932 . S
C597 C589 1.433 . S
C597 N599 1.391 . S
N598 C594 1.427 . S
N598 C595 1.384 . S
N599 C591 1.439 . S
N599 C597 1.391 . S
H600 C606 0.930 . S
H601 C610 0.930 . S
H602 C615 0.929 . S
H603 C613 0.929 . S
H604 C608 0.929 . S
H605 C614 0.929 . S
C606 H600 0.930 . S
C606 C607 1.367 . S
C606 C614 1.378 . S
C607 C606 1.367 . S
C607 C615 1.433 . S
C608 H604 0.929 . S
C608 C610 1.378 . S
C608 C612 1.350 . S
C609 C612 1.463 . S
C609 C614 1.350 . S
C609 N617 1.427 . S
C610 H601 0.930 . S
C610 C608 1.378 . S
C610 C611 1.367 . S
C611 C610 1.367 . S
C611 C613 1.433 . S
C612 C608 1.350 . S
C612 C609 1.463 . S
C612 N616 1.427 . S
C613 H603 0.929 . S
C613 C611 1.433 . S
C613 N616 1.384 . S
C614 H605 0.929 . S
C614 C606 1.378 . S
C614 C609 1.350 . S
C615 H602 0.929 . S
C615 C607 1.433 . S
C615 N617 1.384 . S
N616 C612 1.427 . S
N616 C613 1.384 . S
N617 C609 1.427 . S
N617 C615 1.384 . S
H618 C624 0.930 . S
H619 C628 0.930 . S
H620 C633 0.929 . S
H621 C631 0.929 . S
H622 C626 0.929 . S
H623 C632 0.929 1_554 S
C624 H618 0.930 . S
C624 C625 1.367 . S
C624 C632 1.378 . S
C625 C624 1.367 . S
C625 C633 1.433 . S
C626 H622 0.929 . S
C626 C628 1.378 . S
C626 C630 1.350 . S
C627 C630 1.463 . S
C627 C632 1.350 . S
C627 N635 1.427 . S
C628 H619 0.930 . S
C628 C626 1.378 . S
C628 C629 1.367 1_556 S
C629 C628 1.367 1_554 S
C629 C631 1.433 . S
C630 C626 1.350 . S
C630 C627 1.463 . S
C630 N634 1.427 1_556 S
C631 H621 0.929 . S
C631 C629 1.433 . S
C631 N634 1.384 . S
C632 H623 0.929 1_556 S
C632 C624 1.378 . S
C632 C627 1.350 . S
C633 H620 0.929 . S
C633 C625 1.433 . S
C633 N635 1.384 . S
N634 C630 1.427 1_554 S
N634 C631 1.384 . S
N635 C627 1.427 . S
N635 C633 1.384 . S
H636 C642 0.930 . S
H637 C646 0.930 . S
H638 C651 0.929 . S
H639 C649 0.929 . S
H640 C644 0.929 . S
H641 C650 0.929 . S
C642 H636 0.930 . S
C642 C643 1.367 . S
C642 C650 1.378 . S
C643 C642 1.367 . S
C643 C651 1.433 . S
C644 H640 0.929 . S
C644 C646 1.378 . S
C644 C648 1.350 . S
C645 C648 1.463 . S
C645 C650 1.350 . S
C645 N653 1.427 . S
C646 H637 0.930 . S
C646 C644 1.378 . S
C646 C647 1.367 . S
C647 C646 1.367 . S
C647 C649 1.433 . S
C648 C644 1.350 . S
C648 C645 1.463 . S
C648 N652 1.427 . S
C649 H639 0.929 . S
C649 C647 1.433 . S
C649 N652 1.384 . S
C650 H641 0.929 . S
C650 C642 1.378 . S
C650 C645 1.350 . S
C651 H638 0.929 . S
C651 C643 1.433 . S
C651 N653 1.384 . S
N652 C648 1.427 . S
N652 C649 1.384 . S
N653 C645 1.427 . S
N653 C651 1.384 . S
H654 C660 0.947 . S
H655 C664 0.930 . S
H656 C669 0.929 . S
H657 C667 0.929 . S
H658 C662 0.929 . S
H659 C668 0.899 1_556 S
C660 H654 0.947 . S
C660 C661 1.367 . S
C660 C668 1.390 . S
C661 C660 1.367 . S
C661 C669 1.433 . S
C662 H658 0.929 . S
C662 C664 1.378 . S
C662 C666 1.350 . S
C663 C666 1.463 . S
C663 C668 1.368 . S
C663 N671 1.427 . S
C664 H655 0.930 . S
C664 C662 1.378 . S
C664 C665 1.367 1_554 S
C665 C664 1.367 1_556 S
C665 C667 1.433 . S
C666 C662 1.350 . S
C666 C663 1.463 . S
C666 N670 1.427 1_554 S
C667 H657 0.929 . S
C667 C665 1.433 . S
C667 N670 1.384 . S
C668 H659 0.899 1_554 S
C668 C660 1.390 . S
C668 C663 1.368 . S
C669 H656 0.929 . S
C669 C661 1.433 . S
C669 N671 1.384 . S
N670 C666 1.427 1_556 S
N670 C667 1.384 . S
N671 C663 1.427 . S
N671 C669 1.384 . S
H672 C678 0.930 . S
H673 C682 0.930 . S
H674 C687 0.929 . S
H675 C685 0.929 . S
H676 C680 0.929 . S
H677 C686 0.929 . S
C678 H672 0.930 . S
C678 C679 1.367 . S
C678 C686 1.378 . S
C679 C678 1.367 . S
C679 C687 1.433 . S
C680 H676 0.929 . S
C680 C682 1.378 . S
C680 C684 1.350 . S
C681 C684 1.463 . S
C681 C686 1.350 . S
C681 N689 1.427 . S
C682 H673 0.930 . S
C682 C680 1.378 . S
C682 C683 1.367 . S
C683 C682 1.367 . S
C683 C685 1.433 . S
C684 C680 1.350 . S
C684 C681 1.463 . S
C684 N688 1.427 . S
C685 H675 0.929 . S
C685 C683 1.433 . S
C685 N688 1.384 . S
C686 H677 0.929 . S
C686 C678 1.378 . S
C686 C681 1.350 . S
C687 H674 0.929 . S
C687 C679 1.433 . S
C687 N689 1.384 . S
N688 C684 1.427 . S
N688 C685 1.384 . S
N689 C681 1.427 . S
N689 C687 1.384 . S
H690 C696 0.930 . S
H691 C700 0.930 . S
H692 C705 0.929 . S
H693 C703 0.929 . S
H694 C698 0.929 . S
H695 C704 0.929 1_455 S
C696 H690 0.930 . S
C696 C697 1.367 . S
C696 C704 1.378 . S
C697 C696 1.367 . S
C697 C705 1.433 . S
C698 H694 0.929 . S
C698 C700 1.378 . S
C698 C702 1.350 . S
C699 C702 1.463 . S
C699 C704 1.350 . S
C699 N707 1.427 . S
C700 H691 0.930 . S
C700 C698 1.378 . S
C700 C701 1.367 1_655 S
C701 C700 1.367 1_455 S
C701 C703 1.433 . S
C702 C698 1.350 . S
C702 C699 1.463 . S
C702 N706 1.427 1_655 S
C703 H693 0.929 . S
C703 C701 1.433 . S
C703 N706 1.384 . S
C704 H695 0.929 1_655 S
C704 C696 1.378 . S
C704 C699 1.350 . S
C705 H692 0.929 . S
C705 C697 1.433 . S
C705 N707 1.384 . S
N706 C702 1.427 1_455 S
N706 C703 1.384 . S
N707 C699 1.427 . S
N707 C705 1.384 . S
H708 C714 0.930 . S
H709 C718 0.930 . S
H710 C723 0.929 . S
H711 C721 0.929 . S
H712 C716 0.929 . S
H713 C722 0.929 . S
C714 H708 0.930 . S
C714 C715 1.367 . S
C714 C722 1.378 . S
C715 C714 1.367 . S
C715 C723 1.433 . S
C716 H712 0.929 . S
C716 C718 1.378 . S
C716 C720 1.350 . S
C717 C720 1.463 . S
C717 C722 1.350 . S
C717 N725 1.427 . S
C718 H709 0.930 . S
C718 C716 1.378 . S
C718 C719 1.367 . S
C719 C718 1.367 . S
C719 C721 1.433 . S
C720 C716 1.350 . S
C720 C717 1.463 . S
C720 N724 1.427 . S
C721 H711 0.929 . S
C721 C719 1.433 . S
C721 N724 1.384 . S
C722 H713 0.929 . S
C722 C714 1.378 . S
C722 C717 1.350 . S
C723 H710 0.929 . S
C723 C715 1.433 . S
C723 N725 1.384 . S
N724 C720 1.427 . S
N724 C721 1.384 . S
N725 C717 1.427 . S
N725 C723 1.384 . S
H726 C732 0.930 . S
H727 C736 0.930 . S
H728 C741 0.929 . S
H729 C739 0.929 . S
H730 C734 0.929 . S
H731 C740 0.929 . S
C732 H726 0.930 . S
C732 C733 1.367 . S
C732 C740 1.378 . S
C733 C732 1.367 . S
C733 C741 1.433 . S
C734 H730 0.929 . S
C734 C736 1.378 . S
C734 C738 1.350 1_655 S
C735 C738 1.463 . S
C735 C740 1.350 . S
C735 N743 1.427 . S
C736 H727 0.930 . S
C736 C734 1.378 . S
C736 C737 1.367 . S
C737 C736 1.367 . S
C737 C739 1.433 1_655 S
C738 C734 1.350 1_455 S
C738 C735 1.463 . S
C738 N742 1.427 . S
C739 H729 0.929 . S
C739 C737 1.433 1_455 S
C739 N742 1.384 . S
C740 H731 0.929 . S
C740 C732 1.378 . S
C740 C735 1.350 . S
C741 H728 0.929 . S
C741 C733 1.433 . S
C741 N743 1.384 . S
N742 C738 1.427 . S
N742 C739 1.384 . S
N743 C735 1.427 . S
N743 C741 1.384 . S
H744 C750 0.930 . S
H745 C754 0.930 . S
H746 C759 0.929 . S
H747 C757 0.929 . S
H748 C752 0.929 . S
H749 C758 0.929 . S
C750 H744 0.930 . S
C750 C751 1.367 . S
C750 C758 1.378 . S
C751 C750 1.367 . S
C751 C759 1.433 . S
C752 H748 0.929 . S
C752 C754 1.378 . S
C752 C756 1.350 . S
C753 C756 1.463 . S
C753 C758 1.350 . S
C753 N761 1.427 . S
C754 H745 0.930 . S
C754 C752 1.378 . S
C754 C755 1.367 . S
C755 C754 1.367 . S
C755 C757 1.433 . S
C756 C752 1.350 . S
C756 C753 1.463 . S
C756 N760 1.427 . S
C757 H747 0.929 . S
C757 C755 1.433 . S
C757 N760 1.384 . S
C758 H749 0.929 . S
C758 C750 1.378 . S
C758 C753 1.350 . S
C759 H746 0.929 . S
C759 C751 1.433 . S
C759 N761 1.384 . S
N760 C756 1.427 . S
N760 C757 1.384 . S
N761 C753 1.427 . S
N761 C759 1.384 . S
H762 C768 0.930 . S
H763 C772 0.930 . S
H764 C777 0.929 . S
H765 C775 0.929 . S
H766 C770 0.929 . S
H767 C776 0.929 . S
C768 H762 0.930 . S
C768 C769 1.367 . S
C768 C776 1.378 . S
C769 C768 1.367 . S
C769 C777 1.433 . S
C770 H766 0.929 . S
C770 C772 1.378 . S
C770 C774 1.350 . S
C771 C774 1.463 . S
C771 C776 1.350 . S
C771 N779 1.427 . S
C772 H763 0.930 . S
C772 C770 1.378 . S
C772 C773 1.367 . S
C773 C772 1.367 . S
C773 C775 1.433 . S
C774 C770 1.350 . S
C774 C771 1.463 . S
C774 N778 1.427 . S
C775 H765 0.929 . S
C775 C773 1.433 . S
C775 N778 1.384 . S
C776 H767 0.929 . S
C776 C768 1.378 . S
C776 C771 1.350 . S
C777 H764 0.929 . S
C777 C769 1.433 . S
C777 N779 1.384 . S
N778 C774 1.427 . S
N778 C775 1.384 . S
N779 C771 1.427 . S
N779 C777 1.384 . S
H780 C786 0.930 . S
H781 C790 0.930 . S
H782 C795 0.929 . S
H783 C793 0.929 . S
H784 C788 0.929 . S
H785 C794 0.929 1_545 S
C786 H780 0.930 . S
C786 C787 1.367 . S
C786 C794 1.378 . S
C787 C786 1.367 . S
C787 C795 1.433 . S
C788 H784 0.929 . S
C788 C790 1.378 . S
C788 C792 1.350 . S
C789 C792 1.463 . S
C789 C794 1.350 . S
C789 N797 1.427 . S
C790 H781 0.930 . S
C790 C788 1.378 . S
C790 C791 1.367 1_565 S
C791 C790 1.367 1_545 S
C791 C793 1.433 . S
C792 C788 1.350 . S
C792 C789 1.463 . S
C792 N796 1.427 1_565 S
C793 H783 0.929 . S
C793 C791 1.433 . S
C793 N796 1.384 . S
C794 H785 0.929 1_565 S
C794 C786 1.378 . S
C794 C789 1.350 . S
C795 H782 0.929 . S
C795 C787 1.433 . S
C795 N797 1.384 . S
N796 C792 1.427 1_545 S
N796 C793 1.384 . S
N797 C789 1.427 . S
N797 C795 1.384 . S
H798 C804 0.930 . S
H799 C808 0.938 . S
H800 C813 0.929 . S
H801 C811 0.929 . S
H802 C806 0.908 1_565 S
H803 C812 0.929 . S
C804 H798 0.930 . S
C804 C805 1.367 1_545 S
C804 C812 1.378 . S
C805 C804 1.367 1_565 S
C805 C813 1.433 . S
C806 H802 0.908 1_545 S
C806 C808 1.386 . S
C806 C810 1.362 . S
C807 C810 1.463 . S
C807 C812 1.350 . S
C807 N815 1.427 1_545 S
C808 H799 0.938 . S
C808 C806 1.386 . S
C808 C809 1.367 . S
C809 C808 1.367 . S
C809 C811 1.433 . S
C810 C806 1.362 . S
C810 C807 1.463 . S
C810 N814 1.427 . S
C811 H801 0.929 . S
C811 C809 1.433 . S
C811 N814 1.384 . S
C812 H803 0.929 . S
C812 C804 1.378 . S
C812 C807 1.350 . S
C813 H800 0.929 . S
C813 C805 1.433 . S
C813 N815 1.384 . S
N814 C810 1.427 . S
N814 C811 1.384 . S
N815 C807 1.427 1_565 S
N815 C813 1.384 . S
H816 C822 0.930 . S
H817 C826 0.930 . S
H818 C831 0.929 . S
H819 C829 0.929 . S
H820 C824 0.929 . S
H821 C830 0.929 . S
C822 H816 0.930 . S
C822 C823 1.367 . S
C822 C830 1.378 . S
C823 C822 1.367 . S
C823 C831 1.433 . S
C824 H820 0.929 . S
C824 C826 1.378 . S
C824 C828 1.350 . S
C825 C828 1.463 . S
C825 C830 1.350 . S
C825 N833 1.427 . S
C826 H817 0.930 . S
C826 C824 1.378 . S
C826 C827 1.367 . S
C827 C826 1.367 . S
C827 C829 1.433 . S
C828 C824 1.350 . S
C828 C825 1.463 . S
C828 N832 1.427 . S
C829 H819 0.929 . S
C829 C827 1.433 . S
C829 N832 1.384 . S
C830 H821 0.929 . S
C830 C822 1.378 . S
C830 C825 1.350 . S
C831 H818 0.929 . S
C831 C823 1.433 . S
C831 N833 1.384 . S
N832 C828 1.427 . S
N832 C829 1.384 . S
N833 C825 1.427 . S
N833 C831 1.384 . S
H834 C840 0.930 . S
H835 C844 0.930 . S
H836 C849 0.929 . S
H837 C847 0.929 . S
H838 C842 0.929 1_556 S
H839 C848 0.929 . S
C840 H834 0.930 . S
C840 C841 1.367 1_554 S
C840 C848 1.378 . S
C841 C840 1.367 1_556 S
C841 C849 1.433 . S
C842 H838 0.929 1_554 S
C842 C844 1.378 . S
C842 C846 1.350 . S
C843 C846 1.463 . S
C843 C848 1.350 . S
C843 N851 1.427 1_554 S
C844 H835 0.930 . S
C844 C842 1.378 . S
C844 C845 1.367 . S
C845 C844 1.367 . S
C845 C847 1.433 . S
C846 C842 1.350 . S
C846 C843 1.463 . S
C846 N850 1.427 . S
C847 H837 0.929 . S
C847 C845 1.433 . S
C847 N850 1.384 . S
C848 H839 0.929 . S
C848 C840 1.378 . S
C848 C843 1.350 . S
C849 H836 0.929 . S
C849 C841 1.433 . S
C849 N851 1.384 . S
N850 C846 1.427 . S
N850 C847 1.384 . S
N851 C843 1.427 1_556 S
N851 C849 1.384 . S
H852 C858 0.930 . S
H853 C862 0.930 . S
H854 C867 0.929 . S
H855 C865 0.929 . S
H856 C860 0.929 . S
H857 C866 0.929 . S
C858 H852 0.930 . S
C858 C859 1.367 . S
C858 C866 1.378 . S
C859 C858 1.367 . S
C859 C867 1.433 . S
C860 H856 0.929 . S
C860 C862 1.378 . S
C860 C864 1.350 . S
C861 C864 1.463 . S
C861 C866 1.350 . S
C861 N869 1.427 . S
C862 H853 0.930 . S
C862 C860 1.378 . S
C862 C863 1.367 . S
C863 C862 1.367 . S
C863 C865 1.433 . S
C864 C860 1.350 . S
C864 C861 1.463 . S
C864 N868 1.427 . S
C865 H855 0.929 . S
C865 C863 1.433 . S
C865 N868 1.384 . S
C866 H857 0.929 . S
C866 C858 1.378 . S
C866 C861 1.350 . S
C867 H854 0.929 . S
C867 C859 1.433 . S
C867 N869 1.384 . S
N868 C864 1.427 . S
N868 C865 1.384 . S
N869 C861 1.427 . S
N869 C867 1.384 . S
H870 C876 0.930 . S
H871 C880 0.930 . S
H872 C885 0.929 . S
H873 C883 0.929 . S
H874 C878 0.929 . S
H875 C884 0.929 . S
C876 H870 0.930 . S
C876 C877 1.367 . S
C876 C884 1.378 . S
C877 C876 1.367 . S
C877 C885 1.433 1_554 S
C878 H874 0.929 . S
C878 C880 1.378 . S
C878 C882 1.350 . S
C879 C882 1.463 . S
C879 C884 1.350 1_556 S
C879 N887 1.427 . S
C880 H871 0.930 . S
C880 C878 1.378 . S
C880 C881 1.367 . S
C881 C880 1.367 . S
C881 C883 1.433 . S
C882 C878 1.350 . S
C882 C879 1.463 . S
C882 N886 1.427 . S
C883 H873 0.929 . S
C883 C881 1.433 . S
C883 N886 1.384 . S
C884 H875 0.929 . S
C884 C876 1.378 . S
C884 C879 1.350 1_554 S
C885 H872 0.929 . S
C885 C877 1.433 1_556 S
C885 N887 1.384 . S
N886 C882 1.427 . S
N886 C883 1.384 . S
N887 C879 1.427 . S
N887 C885 1.384 . S
H888 C894 0.930 . S
H889 C898 0.930 . S
H890 C903 0.929 . S
H891 C901 0.929 . S
H892 C896 0.929 . S
H893 C902 0.929 . S
C894 H888 0.930 . S
C894 C895 1.367 . S
C894 C902 1.378 . S
C895 C894 1.367 . S
C895 C903 1.433 . S
C896 H892 0.929 . S
C896 C898 1.378 . S
C896 C900 1.350 . S
C897 C900 1.463 . S
C897 C902 1.350 . S
C897 N905 1.427 . S
C898 H889 0.930 . S
C898 C896 1.378 . S
C898 C899 1.367 . S
C899 C898 1.367 . S
C899 C901 1.433 . S
C900 C896 1.350 . S
C900 C897 1.463 . S
C900 N904 1.427 . S
C901 H891 0.929 . S
C901 C899 1.433 . S
C901 N904 1.384 . S
C902 H893 0.929 . S
C902 C894 1.378 . S
C902 C897 1.350 . S
C903 H890 0.929 . S
C903 C895 1.433 . S
C903 N905 1.384 . S
N904 C900 1.427 . S
N904 C901 1.384 . S
N905 C897 1.427 . S
N905 C903 1.384 . S
H906 C912 0.930 . S
H907 C916 0.930 . S
H908 C921 0.929 . S
H909 C919 0.929 . S
H910 C914 0.929 . S
H911 C920 0.929 . S
C912 H906 0.930 . S
C912 C913 1.367 . S
C912 C920 1.378 1_655 S
C913 C912 1.367 . S
C913 C921 1.433 . S
C914 H910 0.929 . S
C914 C916 1.378 . S
C914 C918 1.350 . S
C915 C918 1.463 . S
C915 C920 1.350 . S
C915 N923 1.427 1_455 S
C916 H907 0.930 . S
C916 C914 1.378 . S
C916 C917 1.367 . S
C917 C916 1.367 . S
C917 C919 1.433 . S
C918 C914 1.350 . S
C918 C915 1.463 . S
C918 N922 1.427 . S
C919 H909 0.929 . S
C919 C917 1.433 . S
C919 N922 1.384 . S
C920 H911 0.929 . S
C920 C912 1.378 1_455 S
C920 C915 1.350 . S
C921 H908 0.929 . S
C921 C913 1.433 . S
C921 N923 1.384 . S
N922 C918 1.427 . S
N922 C919 1.384 . S
N923 C915 1.427 1_655 S
N923 C921 1.384 . S
H924 C930 0.930 . S
H925 C934 0.930 . S
H926 C939 0.929 . S
H927 C937 0.929 . S
H928 C932 0.929 . S
H929 C938 0.929 . S
C930 H924 0.930 . S
C930 C931 1.367 . S
C930 C938 1.378 . S
C931 C930 1.367 . S
C931 C939 1.433 . S
C932 H928 0.929 . S
C932 C934 1.378 . S
C932 C936 1.350 . S
C933 C936 1.463 . S
C933 C938 1.350 . S
C933 N941 1.427 . S
C934 H925 0.930 . S
C934 C932 1.378 . S
C934 C935 1.367 . S
C935 C934 1.367 . S
C935 C937 1.433 . S
C936 C932 1.350 . S
C936 C933 1.463 . S
C936 N940 1.427 . S
C937 H927 0.929 . S
C937 C935 1.433 . S
C937 N940 1.384 . S
C938 H929 0.929 . S
C938 C930 1.378 . S
C938 C933 1.350 . S
C939 H926 0.929 . S
C939 C931 1.433 . S
C939 N941 1.384 . S
N940 C936 1.427 . S
N940 C937 1.384 . S
N941 C933 1.427 . S
N941 C939 1.384 . S
H942 C948 0.930 . S
H943 C952 0.930 . S
H944 C957 0.929 . S
H945 C955 0.929 . S
H946 C950 0.929 . S
H947 C956 0.929 . S
C948 H942 0.930 . S
C948 C949 1.367 . S
C948 C956 1.378 . S
C949 C948 1.367 . S
C949 C957 1.433 . S
C950 H946 0.929 . S
C950 C952 1.378 . S
C950 C954 1.350 1_455 S
C951 C954 1.463 . S
C951 C956 1.350 . S
C951 N959 1.427 . S
C952 H943 0.930 . S
C952 C950 1.378 . S
C952 C953 1.367 . S
C953 C952 1.367 . S
C953 C955 1.433 1_455 S
C954 C950 1.350 1_655 S
C954 C951 1.463 . S
C954 N958 1.427 . S
C955 H945 0.929 . S
C955 C953 1.433 1_655 S
C955 N958 1.384 . S
C956 H947 0.929 . S
C956 C948 1.378 . S
C956 C951 1.350 . S
C957 H944 0.929 . S
C957 C949 1.433 . S
C957 N959 1.384 . S
N958 C954 1.427 . S
N958 C955 1.384 . S
N959 C951 1.427 . S
N959 C957 1.384 . S
H960 C966 0.930 . S
H961 C970 0.930 . S
H962 C975 0.929 . S
H963 C973 0.929 . S
H964 C968 0.929 . S
H965 C974 0.929 . S
C966 H960 0.930 . S
C966 C967 1.367 . S
C966 C974 1.378 . S
C967 C966 1.367 . S
C967 C975 1.433 . S
C968 H964 0.929 . S
C968 C970 1.378 . S
C968 C972 1.350 . S
C969 C972 1.463 . S
C969 C974 1.350 . S
C969 N977 1.427 . S
C970 H961 0.930 . S
C970 C968 1.378 . S
C970 C971 1.367 . S
C971 C970 1.367 . S
C971 C973 1.433 . S
C972 C968 1.350 . S
C972 C969 1.463 . S
C972 N976 1.427 . S
C973 H963 0.929 . S
C973 C971 1.433 . S
C973 N976 1.384 . S
C974 H965 0.929 . S
C974 C966 1.378 . S
C974 C969 1.350 . S
C975 H962 0.929 . S
C975 C967 1.433 . S
C975 N977 1.384 . S
N976 C972 1.427 . S
N976 C973 1.384 . S
N977 C969 1.427 . S
N977 C975 1.384 . S
H978 C984 0.930 . S
H979 C988 0.930 . S
H980 C993 0.929 . S
H981 C991 0.929 . S
H982 C986 0.929 . S
H983 C992 0.929 . S
C984 H978 0.930 . S
C984 C985 1.367 . S
C984 C992 1.378 . S
C985 C984 1.367 . S
C985 C993 1.433 . S
C986 H982 0.929 . S
C986 C988 1.378 . S
C986 C990 1.350 . S
C987 C990 1.463 . S
C987 C992 1.350 . S
C987 N995 1.427 . S
C988 H979 0.930 . S
C988 C986 1.378 . S
C988 C989 1.367 . S
C989 C988 1.367 . S
C989 C991 1.433 . S
C990 C986 1.350 . S
C990 C987 1.463 . S
C990 N994 1.427 . S
C991 H981 0.929 . S
C991 C989 1.433 . S
C991 N994 1.384 . S
C992 H983 0.929 . S
C992 C984 1.378 . S
C992 C987 1.350 . S
C993 H980 0.929 . S
C993 C985 1.433 . S
C993 N995 1.384 . S
N994 C990 1.427 . S
N994 C991 1.384 . S
N995 C987 1.427 . S
N995 C993 1.384 . S
H996 C1002 0.930 . S
H997 C1006 0.930 . S
H998 C1011 0.929 . S
H999 C1009 0.929 . S
H1000 C1004 0.929 . S
H1001 C1010 0.929 . S
C1002 H996 0.930 . S
C1002 C1003 1.367 . S
C1002 C1010 1.378 . S
C1003 C1002 1.367 . S
C1003 C1011 1.433 . S
C1004 H1000 0.929 . S
C1004 C1006 1.378 . S
C1004 C1008 1.350 . S
C1005 C1008 1.463 . S
C1005 C1010 1.350 . S
C1005 N1013 1.427 . S
C1006 H997 0.930 . S
C1006 C1004 1.378 . S
C1006 C1007 1.367 . S
C1007 C1006 1.367 . S
C1007 C1009 1.433 . S
C1008 C1004 1.350 . S
C1008 C1005 1.463 . S
C1008 N1012 1.427 . S
C1009 H999 0.929 . S
C1009 C1007 1.433 . S
C1009 N1012 1.384 . S
C1010 H1001 0.929 . S
C1010 C1002 1.378 . S
C1010 C1005 1.350 . S
C1011 H998 0.929 . S
C1011 C1003 1.433 . S
C1011 N1013 1.384 . S
N1012 C1008 1.427 . S
N1012 C1009 1.384 . S
N1013 C1005 1.427 . S
N1013 C1011 1.384 . S
H1014 C1020 0.930 . S
H1015 C1024 0.930 . S
H1016 C1029 0.929 . S
H1017 C1027 0.929 . S
H1018 C1022 0.929 . S
H1019 C1028 0.929 . S
C1020 H1014 0.930 . S
C1020 C1021 1.367 . S
C1020 C1028 1.378 . S
C1021 C1020 1.367 . S
C1021 C1029 1.433 . S
C1022 H1018 0.929 . S
C1022 C1024 1.378 . S
C1022 C1026 1.350 . S
C1023 C1026 1.463 . S
C1023 C1028 1.350 . S
C1023 N1031 1.427 . S
C1024 H1015 0.930 . S
C1024 C1022 1.378 . S
C1024 C1025 1.367 . S
C1025 C1024 1.367 . S
C1025 C1027 1.433 . S
C1026 C1022 1.350 . S
C1026 C1023 1.463 . S
C1026 N1030 1.427 . S
C1027 H1017 0.929 . S
C1027 C1025 1.433 . S
C1027 N1030 1.384 . S
C1028 H1019 0.929 . S
C1028 C1020 1.378 . S
C1028 C1023 1.350 . S
C1029 H1016 0.929 . S
C1029 C1021 1.433 . S
C1029 N1031 1.384 . S
N1030 C1026 1.427 . S
N1030 C1027 1.384 . S
N1031 C1023 1.427 . S
N1031 C1029 1.384 . S
H1032 C1038 0.930 . S
H1033 C1042 0.930 . S
H1034 C1047 0.929 . S
H1035 C1045 0.929 . S
H1036 C1040 0.929 . S
H1037 C1046 0.929 . S
C1038 H1032 0.930 . S
C1038 C1039 1.367 . S
C1038 C1046 1.378 . S
C1039 C1038 1.367 . S
C1039 C1047 1.433 . S
C1040 H1036 0.929 . S
C1040 C1042 1.378 . S
C1040 C1044 1.350 . S
C1041 C1044 1.463 . S
C1041 C1046 1.350 . S
C1041 N1049 1.427 . S
C1042 H1033 0.930 . S
C1042 C1040 1.378 . S
C1042 C1043 1.367 . S
C1043 C1042 1.367 . S
C1043 C1045 1.433 . S
C1044 C1040 1.350 . S
C1044 C1041 1.463 . S
C1044 N1048 1.427 . S
C1045 H1035 0.929 . S
C1045 C1043 1.433 . S
C1045 N1048 1.384 . S
C1046 H1037 0.929 . S
C1046 C1038 1.378 . S
C1046 C1041 1.350 . S
C1047 H1034 0.929 . S
C1047 C1039 1.433 . S
C1047 N1049 1.384 . S
N1048 C1044 1.427 . S
N1048 C1045 1.384 . S
N1049 C1041 1.427 . S
N1049 C1047 1.384 . S
H1050 C1056 0.930 . S
H1051 C1060 0.930 . S
H1052 C1065 0.929 . S
H1053 C1063 0.929 . S
H1054 C1058 0.929 . S
H1055 C1064 0.929 . S
C1056 H1050 0.930 . S
C1056 C1057 1.367 . S
C1056 C1064 1.378 . S
C1057 C1056 1.367 . S
C1057 C1065 1.433 . S
C1058 H1054 0.929 . S
C1058 C1060 1.378 . S
C1058 C1062 1.350 . S
C1059 C1062 1.463 . S
C1059 C1064 1.350 . S
C1059 N1067 1.427 . S
C1060 H1051 0.930 . S
C1060 C1058 1.378 . S
C1060 C1061 1.367 . S
C1061 C1060 1.367 . S
C1061 C1063 1.433 . S
C1062 C1058 1.350 . S
C1062 C1059 1.463 . S
C1062 N1066 1.427 . S
C1063 H1053 0.929 . S
C1063 C1061 1.433 . S
C1063 N1066 1.384 . S
C1064 H1055 0.929 . S
C1064 C1056 1.378 . S
C1064 C1059 1.350 . S
C1065 H1052 0.929 . S
C1065 C1057 1.433 . S
C1065 N1067 1.384 . S
N1066 C1062 1.427 . S
N1066 C1063 1.384 . S
N1067 C1059 1.427 . S
N1067 C1065 1.384 . S
H1068 C1074 0.930 . S
H1069 C1078 0.930 . S
H1070 C1083 0.929 . S
H1071 C1081 0.929 . S
H1072 C1076 0.929 . S
H1073 C1082 0.929 . S
C1074 H1068 0.930 . S
C1074 C1075 1.367 . S
C1074 C1082 1.378 . S
C1075 C1074 1.367 . S
C1075 C1083 1.433 . S
C1076 H1072 0.929 . S
C1076 C1078 1.378 . S
C1076 C1080 1.350 . S
C1077 C1080 1.463 . S
C1077 C1082 1.350 . S
C1077 N1085 1.427 . S
C1078 H1069 0.930 . S
C1078 C1076 1.378 . S
C1078 C1079 1.367 . S
C1079 C1078 1.367 . S
C1079 C1081 1.433 . S
C1080 C1076 1.350 . S
C1080 C1077 1.463 . S
C1080 N1084 1.427 . S
C1081 H1071 0.929 . S
C1081 C1079 1.433 . S
C1081 N1084 1.384 . S
C1082 H1073 0.929 . S
C1082 C1074 1.378 . S
C1082 C1077 1.350 . S
C1083 H1070 0.929 . S
C1083 C1075 1.433 . S
C1083 N1085 1.384 . S
N1084 C1080 1.427 . S
N1084 C1081 1.384 . S
N1085 C1077 1.427 . S
N1085 C1083 1.384 . S
H1086 C1092 0.930 . S
H1087 C1096 0.930 . S
H1088 C1101 0.929 . S
H1089 C1099 0.929 . S
H1090 C1094 0.929 . S
H1091 C1100 0.929 . S
C1092 H1086 0.930 . S
C1092 C1093 1.367 . S
C1092 C1100 1.378 . S
C1093 C1092 1.367 . S
C1093 C1101 1.433 . S
C1094 H1090 0.929 . S
C1094 C1096 1.378 . S
C1094 C1098 1.350 . S
C1095 C1098 1.463 . S
C1095 C1100 1.350 . S
C1095 N1103 1.427 . S
C1096 H1087 0.930 . S
C1096 C1094 1.378 . S
C1096 C1097 1.367 . S
C1097 C1096 1.367 . S
C1097 C1099 1.433 . S
C1098 C1094 1.350 . S
C1098 C1095 1.463 . S
C1098 N1102 1.427 . S
C1099 H1089 0.929 . S
C1099 C1097 1.433 . S
C1099 N1102 1.384 . S
C1100 H1091 0.929 . S
C1100 C1092 1.378 . S
C1100 C1095 1.350 . S
C1101 H1088 0.929 . S
C1101 C1093 1.433 . S
C1101 N1103 1.384 . S
N1102 C1098 1.427 . S
N1102 C1099 1.384 . S
N1103 C1095 1.427 . S
N1103 C1101 1.384 . S
H1104 C1110 0.930 . S
H1105 C1114 0.930 . S
H1106 C1119 0.929 . S
H1107 C1117 0.929 . S
H1108 C1112 0.929 . S
H1109 C1118 0.929 . S
C1110 H1104 0.930 . S
C1110 C1111 1.367 . S
C1110 C1118 1.378 . S
C1111 C1110 1.367 . S
C1111 C1119 1.433 . S
C1112 H1108 0.929 . S
C1112 C1114 1.378 . S
C1112 C1116 1.350 . S
C1113 C1116 1.463 . S
C1113 C1118 1.350 . S
C1113 N1121 1.427 . S
C1114 H1105 0.930 . S
C1114 C1112 1.378 . S
C1114 C1115 1.367 . S
C1115 C1114 1.367 . S
C1115 C1117 1.433 . S
C1116 C1112 1.350 . S
C1116 C1113 1.463 . S
C1116 N1120 1.427 . S
C1117 H1107 0.929 . S
C1117 C1115 1.433 . S
C1117 N1120 1.384 . S
C1118 H1109 0.929 . S
C1118 C1110 1.378 . S
C1118 C1113 1.350 . S
C1119 H1106 0.929 . S
C1119 C1111 1.433 . S
C1119 N1121 1.384 . S
N1120 C1116 1.427 . S
N1120 C1117 1.384 . S
N1121 C1113 1.427 . S
N1121 C1119 1.384 . S
H1122 C1128 0.930 . S
H1123 C1132 0.930 . S
H1124 C1137 0.929 . S
H1125 C1135 0.929 . S
H1126 C1130 0.929 . S
H1127 C1136 0.929 . S
C1128 H1122 0.930 . S
C1128 C1129 1.367 . S
C1128 C1136 1.378 . S
C1129 C1128 1.367 . S
C1129 C1137 1.433 . S
C1130 H1126 0.929 . S
C1130 C1132 1.378 . S
C1130 C1134 1.350 . S
C1131 C1134 1.463 . S
C1131 C1136 1.350 . S
C1131 N1139 1.427 . S
C1132 H1123 0.930 . S
C1132 C1130 1.378 . S
C1132 C1133 1.367 . S
C1133 C1132 1.367 . S
C1133 C1135 1.433 . S
C1134 C1130 1.350 . S
C1134 C1131 1.463 . S
C1134 N1138 1.427 . S
C1135 H1125 0.929 . S
C1135 C1133 1.433 . S
C1135 N1138 1.384 . S
C1136 H1127 0.929 . S
C1136 C1128 1.378 . S
C1136 C1131 1.350 . S
C1137 H1124 0.929 . S
C1137 C1129 1.433 . S
C1137 N1139 1.384 . S
N1138 C1134 1.427 . S
N1138 C1135 1.384 . S
N1139 C1131 1.427 . S
N1139 C1137 1.384 . S
H1140 C1146 0.930 . S
H1141 C1150 0.930 . S
H1142 C1155 0.929 . S
H1143 C1153 0.929 . S
H1144 C1148 0.929 . S
H1145 C1154 0.929 . S
C1146 H1140 0.930 . S
C1146 C1147 1.367 . S
C1146 C1154 1.378 . S
C1147 C1146 1.367 . S
C1147 C1155 1.433 . S
C1148 H1144 0.929 . S
C1148 C1150 1.378 . S
C1148 C1152 1.350 . S
C1149 C1152 1.463 . S
C1149 C1154 1.350 . S
C1149 N1157 1.427 . S
C1150 H1141 0.930 . S
C1150 C1148 1.378 . S
C1150 C1151 1.367 . S
C1151 C1150 1.367 . S
C1151 C1153 1.433 . S
C1152 C1148 1.350 . S
C1152 C1149 1.463 . S
C1152 N1156 1.427 . S
C1153 H1143 0.929 . S
C1153 C1151 1.433 . S
C1153 N1156 1.384 . S
C1154 H1145 0.929 . S
C1154 C1146 1.378 . S
C1154 C1149 1.350 . S
C1155 H1142 0.929 . S
C1155 C1147 1.433 . S
C1155 N1157 1.384 . S
N1156 C1152 1.427 . S
N1156 C1153 1.384 . S
N1157 C1149 1.427 . S
N1157 C1155 1.384 . S
H1158 C1164 0.930 . S
H1159 C1168 0.930 . S
H1160 C1173 0.929 . S
H1161 C1171 0.929 . S
H1162 C1166 0.929 . S
H1163 C1172 0.929 . S
C1164 H1158 0.930 . S
C1164 C1165 1.367 . S
C1164 C1172 1.378 . S
C1165 C1164 1.367 . S
C1165 C1173 1.433 . S
C1166 H1162 0.929 . S
C1166 C1168 1.378 . S
C1166 C1170 1.350 . S
C1167 C1170 1.463 . S
C1167 C1172 1.350 . S
C1167 N1175 1.427 . S
C1168 H1159 0.930 . S
C1168 C1166 1.378 . S
C1168 C1169 1.367 . S
C1169 C1168 1.367 . S
C1169 C1171 1.433 . S
C1170 C1166 1.350 . S
C1170 C1167 1.463 . S
C1170 N1174 1.427 . S
C1171 H1161 0.929 . S
C1171 C1169 1.433 . S
C1171 N1174 1.384 . S
C1172 H1163 0.929 . S
C1172 C1164 1.378 . S
C1172 C1167 1.350 . S
C1173 H1160 0.929 . S
C1173 C1165 1.433 . S
C1173 N1175 1.384 . S
N1174 C1170 1.427 . S
N1174 C1171 1.384 . S
N1175 C1167 1.427 . S
N1175 C1173 1.384 . S
H1176 C1182 0.930 . S
H1177 C1186 0.930 . S
H1178 C1191 0.929 . S
H1179 C1189 0.929 . S
H1180 C1184 0.929 . S
H1181 C1190 0.929 . S
C1182 H1176 0.930 . S
C1182 C1183 1.367 . S
C1182 C1190 1.378 . S
C1183 C1182 1.367 . S
C1183 C1191 1.433 . S
C1184 H1180 0.929 . S
C1184 C1186 1.378 . S
C1184 C1188 1.350 . S
C1185 C1188 1.463 . S
C1185 C1190 1.350 . S
C1185 N1193 1.427 . S
C1186 H1177 0.930 . S
C1186 C1184 1.378 . S
C1186 C1187 1.367 . S
C1187 C1186 1.367 . S
C1187 C1189 1.433 . S
C1188 C1184 1.350 . S
C1188 C1185 1.463 . S
C1188 N1192 1.427 . S
C1189 H1179 0.929 . S
C1189 C1187 1.433 . S
C1189 N1192 1.384 . S
C1190 H1181 0.929 . S
C1190 C1182 1.378 . S
C1190 C1185 1.350 . S
C1191 H1178 0.929 . S
C1191 C1183 1.433 . S
C1191 N1193 1.384 . S
N1192 C1188 1.427 . S
N1192 C1189 1.384 . S
N1193 C1185 1.427 . S
N1193 C1191 1.384 . S
H1194 C1200 0.930 . S
H1195 C1204 0.930 . S
H1196 C1209 0.929 . S
H1197 C1207 0.929 . S
H1198 C1202 0.929 . S
H1199 C1208 0.929 . S
C1200 H1194 0.930 . S
C1200 C1201 1.367 . S
C1200 C1208 1.378 . S
C1201 C1200 1.367 . S
C1201 C1209 1.433 . S
C1202 H1198 0.929 . S
C1202 C1204 1.378 . S
C1202 C1206 1.350 . S
C1203 C1206 1.463 . S
C1203 C1208 1.350 . S
C1203 N1211 1.427 . S
C1204 H1195 0.930 . S
C1204 C1202 1.378 . S
C1204 C1205 1.367 . S
C1205 C1204 1.367 . S
C1205 C1207 1.433 . S
C1206 C1202 1.350 . S
C1206 C1203 1.463 . S
C1206 N1210 1.427 . S
C1207 H1197 0.929 . S
C1207 C1205 1.433 . S
C1207 N1210 1.384 . S
C1208 H1199 0.929 . S
C1208 C1200 1.378 . S
C1208 C1203 1.350 . S
C1209 H1196 0.929 . S
C1209 C1201 1.433 . S
C1209 N1211 1.384 . S
N1210 C1206 1.427 . S
N1210 C1207 1.384 . S
N1211 C1203 1.427 . S
N1211 C1209 1.384 . S
H1212 C1218 0.930 . S
H1213 C1222 0.930 . S
H1214 C1227 0.929 . S
H1215 C1225 0.929 . S
H1216 C1220 0.929 . S
H1217 C1226 0.929 . S
C1218 H1212 0.930 . S
C1218 C1219 1.367 . S
C1218 C1226 1.378 . S
C1219 C1218 1.367 . S
C1219 C1227 1.433 . S
C1220 H1216 0.929 . S
C1220 C1222 1.378 . S
C1220 C1224 1.350 . S
C1221 C1224 1.463 . S
C1221 C1226 1.350 . S
C1221 N1229 1.427 . S
C1222 H1213 0.930 . S
C1222 C1220 1.378 . S
C1222 C1223 1.367 . S
C1223 C1222 1.367 . S
C1223 C1225 1.433 . S
C1224 C1220 1.350 . S
C1224 C1221 1.463 . S
C1224 N1228 1.427 . S
C1225 H1215 0.929 . S
C1225 C1223 1.433 . S
C1225 N1228 1.384 . S
C1226 H1217 0.929 . S
C1226 C1218 1.378 . S
C1226 C1221 1.350 . S
C1227 H1214 0.929 . S
C1227 C1219 1.433 . S
C1227 N1229 1.384 . S
N1228 C1224 1.427 . S
N1228 C1225 1.384 . S
N1229 C1221 1.427 . S
N1229 C1227 1.384 . S
H1230 C1236 0.930 . S
H1231 C1240 0.930 . S
H1232 C1245 0.929 . S
H1233 C1243 0.929 . S
H1234 C1238 0.929 . S
H1235 C1244 0.929 . S
C1236 H1230 0.930 . S
C1236 C1237 1.367 . S
C1236 C1244 1.378 . S
C1237 C1236 1.367 . S
C1237 C1245 1.433 . S
C1238 H1234 0.929 . S
C1238 C1240 1.378 . S
C1238 C1242 1.350 . S
C1239 C1242 1.463 . S
C1239 C1244 1.350 . S
C1239 N1247 1.427 . S
C1240 H1231 0.930 . S
C1240 C1238 1.378 . S
C1240 C1241 1.367 . S
C1241 C1240 1.367 . S
C1241 C1243 1.433 . S
C1242 C1238 1.350 . S
C1242 C1239 1.463 . S
C1242 N1246 1.427 . S
C1243 H1233 0.929 . S
C1243 C1241 1.433 . S
C1243 N1246 1.384 . S
C1244 H1235 0.929 . S
C1244 C1236 1.378 . S
C1244 C1239 1.350 . S
C1245 H1232 0.929 . S
C1245 C1237 1.433 . S
C1245 N1247 1.384 . S
N1246 C1242 1.427 . S
N1246 C1243 1.384 . S
N1247 C1239 1.427 . S
N1247 C1245 1.384 . S
H1248 C1254 0.930 . S
H1249 C1258 0.930 . S
H1250 C1263 0.929 . S
H1251 C1261 0.929 . S
H1252 C1256 0.929 . S
H1253 C1262 0.929 . S
C1254 H1248 0.930 . S
C1254 C1255 1.367 . S
C1254 C1262 1.378 . S
C1255 C1254 1.367 . S
C1255 C1263 1.433 . S
C1256 H1252 0.929 . S
C1256 C1258 1.378 . S
C1256 C1260 1.350 . S
C1257 C1260 1.463 . S
C1257 C1262 1.350 . S
C1257 N1265 1.427 . S
C1258 H1249 0.930 . S
C1258 C1256 1.378 . S
C1258 C1259 1.367 . S
C1259 C1258 1.367 . S
C1259 C1261 1.433 . S
C1260 C1256 1.350 . S
C1260 C1257 1.463 . S
C1260 N1264 1.427 . S
C1261 H1251 0.929 . S
C1261 C1259 1.433 . S
C1261 N1264 1.384 . S
C1262 H1253 0.929 . S
C1262 C1254 1.378 . S
C1262 C1257 1.350 . S
C1263 H1250 0.929 . S
C1263 C1255 1.433 . S
C1263 N1265 1.384 . S
N1264 C1260 1.427 . S
N1264 C1261 1.384 . S
N1265 C1257 1.427 . S
N1265 C1263 1.384 . S
H1266 C1272 0.930 . S
H1267 C1276 0.930 . S
H1268 C1281 0.929 . S
H1269 C1279 0.929 . S
H1270 C1274 0.929 . S
H1271 C1280 0.929 . S
C1272 H1266 0.930 . S
C1272 C1273 1.367 . S
C1272 C1280 1.378 . S
C1273 C1272 1.367 . S
C1273 C1281 1.433 . S
C1274 H1270 0.929 . S
C1274 C1276 1.378 . S
C1274 C1278 1.350 . S
C1275 C1278 1.463 . S
C1275 C1280 1.350 . S
C1275 N1283 1.427 . S
C1276 H1267 0.930 . S
C1276 C1274 1.378 . S
C1276 C1277 1.367 . S
C1277 C1276 1.367 . S
C1277 C1279 1.433 . S
C1278 C1274 1.350 . S
C1278 C1275 1.463 . S
C1278 N1282 1.427 . S
C1279 H1269 0.929 . S
C1279 C1277 1.433 . S
C1279 N1282 1.384 . S
C1280 H1271 0.929 . S
C1280 C1272 1.378 . S
C1280 C1275 1.350 . S
C1281 H1268 0.929 . S
C1281 C1273 1.433 . S
C1281 N1283 1.384 . S
N1282 C1278 1.427 . S
N1282 C1279 1.384 . S
N1283 C1275 1.427 . S
N1283 C1281 1.384 . S
H1284 C1290 0.930 . S
H1285 C1294 0.930 . S
H1286 C1299 0.929 . S
H1287 C1297 0.929 . S
H1288 C1292 0.929 . S
H1289 C1298 0.929 . S
C1290 H1284 0.930 . S
C1290 C1291 1.367 . S
C1290 C1298 1.378 . S
C1291 C1290 1.367 . S
C1291 C1299 1.433 . S
C1292 H1288 0.929 . S
C1292 C1294 1.378 . S
C1292 C1296 1.350 . S
C1293 C1296 1.463 . S
C1293 C1298 1.350 . S
C1293 N1301 1.427 . S
C1294 H1285 0.930 . S
C1294 C1292 1.378 . S
C1294 C1295 1.367 . S
C1295 C1294 1.367 . S
C1295 C1297 1.433 . S
C1296 C1292 1.350 . S
C1296 C1293 1.463 . S
C1296 N1300 1.427 . S
C1297 H1287 0.929 . S
C1297 C1295 1.433 . S
C1297 N1300 1.384 . S
C1298 H1289 0.929 . S
C1298 C1290 1.378 . S
C1298 C1293 1.350 . S
C1299 H1286 0.929 . S
C1299 C1291 1.433 . S
C1299 N1301 1.384 . S
N1300 C1296 1.427 . S
N1300 C1297 1.384 . S
N1301 C1293 1.427 . S
N1301 C1299 1.384 . S
H1302 C1308 0.930 . S
H1303 C1312 0.930 . S
H1304 C1317 0.929 . S
H1305 C1315 0.929 . S
H1306 C1310 0.929 . S
H1307 C1316 0.929 . S
C1308 H1302 0.930 . S
C1308 C1309 1.367 . S
C1308 C1316 1.378 . S
C1309 C1308 1.367 . S
C1309 C1317 1.433 . S
C1310 H1306 0.929 . S
C1310 C1312 1.378 . S
C1310 C1314 1.350 . S
C1311 C1314 1.463 . S
C1311 C1316 1.350 . S
C1311 N1319 1.427 . S
C1312 H1303 0.930 . S
C1312 C1310 1.378 . S
C1312 C1313 1.367 . S
C1313 C1312 1.367 . S
C1313 C1315 1.433 . S
C1314 C1310 1.350 . S
C1314 C1311 1.463 . S
C1314 N1318 1.427 . S
C1315 H1305 0.929 . S
C1315 C1313 1.433 . S
C1315 N1318 1.384 . S
C1316 H1307 0.929 . S
C1316 C1308 1.378 . S
C1316 C1311 1.350 . S
C1317 H1304 0.929 . S
C1317 C1309 1.433 . S
C1317 N1319 1.384 . S
N1318 C1314 1.427 . S
N1318 C1315 1.384 . S
N1319 C1311 1.427 . S
N1319 C1317 1.384 . S
H1320 C1326 0.930 . S
H1321 C1330 0.930 . S
H1322 C1335 0.929 . S
H1323 C1333 0.929 . S
H1324 C1328 0.929 . S
H1325 C1334 0.929 . S
C1326 H1320 0.930 . S
C1326 C1327 1.367 . S
C1326 C1334 1.378 . S
C1327 C1326 1.367 . S
C1327 C1335 1.433 . S
C1328 H1324 0.929 . S
C1328 C1330 1.378 . S
C1328 C1332 1.350 . S
C1329 C1332 1.463 . S
C1329 C1334 1.350 . S
C1329 N1337 1.427 . S
C1330 H1321 0.930 . S
C1330 C1328 1.378 . S
C1330 C1331 1.367 . S
C1331 C1330 1.367 . S
C1331 C1333 1.433 . S
C1332 C1328 1.350 . S
C1332 C1329 1.463 . S
C1332 N1336 1.427 . S
C1333 H1323 0.929 . S
C1333 C1331 1.433 . S
C1333 N1336 1.384 . S
C1334 H1325 0.929 . S
C1334 C1326 1.378 . S
C1334 C1329 1.350 . S
C1335 H1322 0.929 . S
C1335 C1327 1.433 . S
C1335 N1337 1.384 . S
N1336 C1332 1.427 . S
N1336 C1333 1.384 . S
N1337 C1329 1.427 . S
N1337 C1335 1.384 . S
H1338 C1344 0.930 . S
H1339 C1348 0.930 . S
H1340 C1353 0.929 . S
H1341 C1351 0.929 . S
H1342 C1346 0.929 . S
H1343 C1352 0.929 . S
C1344 H1338 0.930 . S
C1344 C1345 1.367 . S
C1344 C1352 1.378 . S
C1345 C1344 1.367 . S
C1345 C1353 1.433 . S
C1346 H1342 0.929 . S
C1346 C1348 1.378 . S
C1346 C1350 1.350 . S
C1347 C1350 1.463 . S
C1347 C1352 1.350 . S
C1347 N1355 1.427 . S
C1348 H1339 0.930 . S
C1348 C1346 1.378 . S
C1348 C1349 1.367 . S
C1349 C1348 1.367 . S
C1349 C1351 1.433 . S
C1350 C1346 1.350 . S
C1350 C1347 1.463 . S
C1350 N1354 1.427 . S
C1351 H1341 0.929 . S
C1351 C1349 1.433 . S
C1351 N1354 1.384 . S
C1352 H1343 0.929 . S
C1352 C1344 1.378 . S
C1352 C1347 1.350 . S
C1353 H1340 0.929 . S
C1353 C1345 1.433 . S
C1353 N1355 1.384 . S
N1354 C1350 1.427 . S
N1354 C1351 1.384 . S
N1355 C1347 1.427 . S
N1355 C1353 1.384 . S
H1356 C1362 0.930 . S
H1357 C1366 0.930 . S
H1358 C1371 0.929 . S
H1359 C1369 0.929 . S
H1360 C1364 0.929 . S
H1361 C1370 0.929 . S
C1362 H1356 0.930 . S
C1362 C1363 1.367 . S
C1362 C1370 1.378 . S
C1363 C1362 1.367 . S
C1363 C1371 1.433 . S
C1364 H1360 0.929 . S
C1364 C1366 1.378 . S
C1364 C1368 1.350 . S
C1365 C1368 1.463 . S
C1365 C1370 1.350 . S
C1365 N1373 1.427 . S
C1366 H1357 0.930 . S
C1366 C1364 1.378 . S
C1366 C1367 1.367 . S
C1367 C1366 1.367 . S
C1367 C1369 1.433 . S
C1368 C1364 1.350 . S
C1368 C1365 1.463 . S
C1368 N1372 1.427 . S
C1369 H1359 0.929 . S
C1369 C1367 1.433 . S
C1369 N1372 1.384 . S
C1370 H1361 0.929 . S
C1370 C1362 1.378 . S
C1370 C1365 1.350 . S
C1371 H1358 0.929 . S
C1371 C1363 1.433 . S
C1371 N1373 1.384 . S
N1372 C1368 1.427 . S
N1372 C1369 1.384 . S
N1373 C1365 1.427 . S
N1373 C1371 1.384 . S
H1374 C1380 0.930 . S
H1375 C1384 0.930 . S
H1376 C1389 0.929 . S
H1377 C1387 0.929 . S
H1378 C1382 0.929 . S
H1379 C1388 0.929 . S
C1380 H1374 0.930 . S
C1380 C1381 1.367 . S
C1380 C1388 1.378 . S
C1381 C1380 1.367 . S
C1381 C1389 1.433 . S
C1382 H1378 0.929 . S
C1382 C1384 1.378 . S
C1382 C1386 1.350 . S
C1383 C1386 1.463 . S
C1383 C1388 1.350 . S
C1383 N1391 1.427 . S
C1384 H1375 0.930 . S
C1384 C1382 1.378 . S
C1384 C1385 1.367 . S
C1385 C1384 1.367 . S
C1385 C1387 1.433 . S
C1386 C1382 1.350 . S
C1386 C1383 1.463 . S
C1386 N1390 1.427 . S
C1387 H1377 0.929 . S
C1387 C1385 1.433 . S
C1387 N1390 1.384 . S
C1388 H1379 0.929 . S
C1388 C1380 1.378 . S
C1388 C1383 1.350 . S
C1389 H1376 0.929 . S
C1389 C1381 1.433 . S
C1389 N1391 1.384 . S
N1390 C1386 1.427 . S
N1390 C1387 1.384 . S
N1391 C1383 1.427 . S
N1391 C1389 1.384 . S
H1392 C1398 0.930 . S
H1393 C1402 0.930 . S
H1394 C1407 0.929 . S
H1395 C1405 0.929 . S
H1396 C1400 0.929 1_455 S
H1397 C1406 0.929 . S
C1398 H1392 0.930 . S
C1398 C1399 1.367 . S
C1398 C1406 1.378 1_455 S
C1399 C1398 1.367 . S
C1399 C1407 1.433 . S
C1400 H1396 0.929 1_655 S
C1400 C1402 1.378 . S
C1400 C1404 1.350 . S
C1401 C1404 1.463 1_455 S
C1401 C1406 1.350 1_455 S
C1401 N1409 1.427 . S
C1402 H1393 0.930 . S
C1402 C1400 1.378 . S
C1402 C1403 1.367 . S
C1403 C1402 1.367 . S
C1403 C1405 1.433 . S
C1404 C1400 1.350 . S
C1404 C1401 1.463 1_655 S
C1404 N1408 1.427 . S
C1405 H1395 0.929 . S
C1405 C1403 1.433 . S
C1405 N1408 1.384 . S
C1406 H1397 0.929 . S
C1406 C1398 1.378 1_655 S
C1406 C1401 1.350 1_655 S
C1407 H1394 0.929 . S
C1407 C1399 1.433 . S
C1407 N1409 1.384 . S
N1408 C1404 1.427 . S
N1408 C1405 1.384 . S
N1409 C1401 1.427 . S
N1409 C1407 1.384 . S
H1410 C1416 0.930 . S
H1411 C1420 0.930 . S
H1412 C1425 0.929 . S
H1413 C1423 0.929 . S
H1414 C1418 0.929 . S
H1415 C1424 0.929 . S
C1416 H1410 0.930 . S
C1416 C1417 1.367 . S
C1416 C1424 1.378 . S
C1417 C1416 1.367 . S
C1417 C1425 1.433 . S
C1418 H1414 0.929 . S
C1418 C1420 1.378 . S
C1418 C1422 1.350 . S
C1419 C1422 1.463 . S
C1419 C1424 1.350 . S
C1419 N1427 1.427 . S
C1420 H1411 0.930 . S
C1420 C1418 1.378 . S
C1420 C1421 1.367 . S
C1421 C1420 1.367 . S
C1421 C1423 1.433 . S
C1422 C1418 1.350 . S
C1422 C1419 1.463 . S
C1422 N1426 1.427 . S
C1423 H1413 0.929 . S
C1423 C1421 1.433 . S
C1423 N1426 1.384 . S
C1424 H1415 0.929 . S
C1424 C1416 1.378 . S
C1424 C1419 1.350 . S
C1425 H1412 0.929 . S
C1425 C1417 1.433 . S
C1425 N1427 1.384 . S
N1426 C1422 1.427 . S
N1426 C1423 1.384 . S
N1427 C1419 1.427 . S
N1427 C1425 1.384 . S
H1428 C1434 0.930 . S
H1429 C1438 0.930 . S
H1430 C1443 0.929 . S
H1431 C1441 0.929 . S
H1432 C1436 0.929 . S
H1433 C1442 0.929 . S
C1434 H1428 0.930 . S
C1434 C1435 1.367 . S
C1434 C1442 1.378 . S
C1435 C1434 1.367 . S
C1435 C1443 1.433 . S
C1436 H1432 0.929 . S
C1436 C1438 1.378 . S
C1436 C1440 1.350 . S
C1437 C1440 1.463 . S
C1437 C1442 1.350 . S
C1437 N1445 1.427 . S
C1438 H1429 0.930 . S
C1438 C1436 1.378 . S
C1438 C1439 1.367 . S
C1439 C1438 1.367 . S
C1439 C1441 1.433 . S
C1440 C1436 1.350 . S
C1440 C1437 1.463 . S
C1440 N1444 1.427 . S
C1441 H1431 0.929 . S
C1441 C1439 1.433 . S
C1441 N1444 1.384 . S
C1442 H1433 0.929 . S
C1442 C1434 1.378 . S
C1442 C1437 1.350 . S
C1443 H1430 0.929 . S
C1443 C1435 1.433 . S
C1443 N1445 1.384 . S
N1444 C1440 1.427 . S
N1444 C1441 1.384 . S
N1445 C1437 1.427 . S
N1445 C1443 1.384 . S
H1446 C1452 0.930 . S
H1447 C1456 0.930 . S
H1448 C1461 0.929 . S
H1449 C1459 0.929 . S
H1450 C1454 0.929 . S
H1451 C1460 0.929 1_655 S
C1452 H1446 0.930 . S
C1452 C1453 1.367 . S
C1452 C1460 1.378 . S
C1453 C1452 1.367 . S
C1453 C1461 1.433 . S
C1454 H1450 0.929 . S
C1454 C1456 1.378 1_455 S
C1454 C1458 1.350 1_455 S
C1455 C1458 1.463 1_455 S
C1455 C1460 1.350 . S
C1455 N1463 1.427 . S
C1456 H1447 0.930 . S
C1456 C1454 1.378 1_655 S
C1456 C1457 1.367 . S
C1457 C1456 1.367 . S
C1457 C1459 1.433 . S
C1458 C1454 1.350 1_655 S
C1458 C1455 1.463 1_655 S
C1458 N1462 1.427 . S
C1459 H1449 0.929 . S
C1459 C1457 1.433 . S
C1459 N1462 1.384 . S
C1460 H1451 0.929 1_455 S
C1460 C1452 1.378 . S
C1460 C1455 1.350 . S
C1461 H1448 0.929 . S
C1461 C1453 1.433 . S
C1461 N1463 1.384 . S
N1462 C1458 1.427 . S
N1462 C1459 1.384 . S
N1463 C1455 1.427 . S
N1463 C1461 1.384 . S
H1464 C1470 0.930 . S
H1465 C1474 0.930 . S
H1466 C1479 0.929 . S
H1467 C1477 0.929 . S
H1468 C1472 0.929 . S
H1469 C1478 0.929 . S
C1470 H1464 0.930 . S
C1470 C1471 1.367 . S
C1470 C1478 1.378 . S
C1471 C1470 1.367 . S
C1471 C1479 1.433 . S
C1472 H1468 0.929 . S
C1472 C1474 1.378 . S
C1472 C1476 1.350 . S
C1473 C1476 1.463 1_545 S
C1473 C1478 1.350 . S
C1473 N1481 1.426 1_545 S
C1474 H1465 0.930 . S
C1474 C1472 1.378 . S
C1474 C1475 1.367 . S
C1475 C1474 1.367 . S
C1475 C1477 1.433 . S
C1476 C1472 1.350 . S
C1476 C1473 1.463 1_565 S
C1476 N1480 1.427 . S
C1477 H1467 0.929 . S
C1477 C1475 1.433 . S
C1477 N1480 1.384 . S
C1478 H1469 0.929 . S
C1478 C1470 1.378 . S
C1478 C1473 1.350 . S
C1479 H1466 0.929 . S
C1479 C1471 1.433 . S
C1479 N1481 1.380 1_545 S
N1480 C1476 1.427 . S
N1480 C1477 1.384 . S
N1481 C1473 1.426 1_565 S
N1481 C1479 1.380 1_565 S
H1482 C1488 0.930 1_565 S
H1483 C1492 0.934 . S
H1484 C1497 0.929 . S
H1485 C1495 0.929 . S
H1486 C1490 0.929 . S
H1487 C1496 0.929 . S
C1488 H1482 0.930 1_545 S
C1488 C1489 1.367 . S
C1488 C1496 1.378 1_545 S
C1489 C1488 1.367 . S
C1489 C1497 1.433 . S
C1490 H1486 0.929 . S
C1490 C1492 1.380 . S
C1490 C1494 1.350 1_545 S
C1491 C1494 1.463 1_545 S
C1491 C1496 1.350 1_545 S
C1491 N1499 1.427 . S
C1492 H1483 0.934 . S
C1492 C1490 1.380 . S
C1492 C1493 1.361 1_545 S
C1493 C1492 1.361 1_565 S
C1493 C1495 1.433 . S
C1494 C1490 1.350 1_565 S
C1494 C1491 1.463 1_565 S
C1494 N1498 1.427 . S
C1495 H1485 0.929 . S
C1495 C1493 1.433 . S
C1495 N1498 1.384 . S
C1496 H1487 0.929 . S
C1496 C1488 1.378 1_565 S
C1496 C1491 1.350 1_565 S
C1497 H1484 0.929 . S
C1497 C1489 1.433 . S
C1497 N1499 1.384 . S
N1498 C1494 1.427 . S
N1498 C1495 1.384 . S
N1499 C1491 1.427 . S
N1499 C1497 1.384 . S
H1500 C1506 0.930 . S
H1501 C1510 0.930 . S
H1502 C1515 0.929 . S
H1503 C1513 0.929 . S
H1504 C1508 0.929 . S
H1505 C1514 0.929 . S
C1506 H1500 0.930 . S
C1506 C1507 1.367 . S
C1506 C1514 1.378 . S
C1507 C1506 1.367 . S
C1507 C1515 1.433 . S
C1508 H1504 0.929 . S
C1508 C1510 1.378 . S
C1508 C1512 1.350 . S
C1509 C1512 1.463 . S
C1509 C1514 1.350 . S
C1509 N1517 1.427 . S
C1510 H1501 0.930 . S
C1510 C1508 1.378 . S
C1510 C1511 1.367 . S
C1511 C1510 1.367 . S
C1511 C1513 1.433 . S
C1512 C1508 1.350 . S
C1512 C1509 1.463 . S
C1512 N1516 1.427 . S
C1513 H1503 0.929 . S
C1513 C1511 1.433 . S
C1513 N1516 1.384 . S
C1514 H1505 0.929 . S
C1514 C1506 1.378 . S
C1514 C1509 1.350 . S
C1515 H1502 0.929 . S
C1515 C1507 1.433 . S
C1515 N1517 1.384 . S
N1516 C1512 1.427 . S
N1516 C1513 1.384 . S
N1517 C1509 1.427 . S
N1517 C1515 1.384 . S
H1518 C1524 0.930 . S
H1519 C1528 0.930 . S
H1520 C1533 0.929 . S
H1521 C1531 0.929 . S
H1522 C1526 0.929 . S
H1523 C1532 0.929 . S
C1524 H1518 0.930 . S
C1524 C1525 1.367 . S
C1524 C1532 1.378 . S
C1525 C1524 1.367 . S
C1525 C1533 1.433 . S
C1526 H1522 0.929 . S
C1526 C1528 1.378 . S
C1526 C1530 1.350 . S
C1527 C1530 1.463 . S
C1527 C1532 1.350 . S
C1527 N1535 1.427 . S
C1528 H1519 0.930 . S
C1528 C1526 1.378 . S
C1528 C1529 1.367 . S
C1529 C1528 1.367 . S
C1529 C1531 1.433 . S
C1530 C1526 1.350 . S
C1530 C1527 1.463 . S
C1530 N1534 1.427 . S
C1531 H1521 0.929 . S
C1531 C1529 1.433 . S
C1531 N1534 1.384 . S
C1532 H1523 0.929 . S
C1532 C1524 1.378 . S
C1532 C1527 1.350 . S
C1533 H1520 0.929 . S
C1533 C1525 1.433 . S
C1533 N1535 1.384 . S
N1534 C1530 1.427 . S
N1534 C1531 1.384 . S
N1535 C1527 1.427 . S
N1535 C1533 1.384 . S
H1536 C1542 0.930 . S
H1537 C1546 0.930 . S
H1538 C1551 0.929 . S
H1539 C1549 0.929 . S
H1540 C1544 0.929 . S
H1541 C1550 0.929 . S
C1542 H1536 0.930 . S
C1542 C1543 1.367 . S
C1542 C1550 1.378 . S
C1543 C1542 1.367 . S
C1543 C1551 1.433 . S
C1544 H1540 0.929 . S
C1544 C1546 1.378 . S
C1544 C1548 1.350 . S
C1545 C1548 1.463 1_554 S
C1545 C1550 1.350 . S
C1545 N1553 1.427 1_554 S
C1546 H1537 0.930 . S
C1546 C1544 1.378 . S
C1546 C1547 1.367 . S
C1547 C1546 1.367 . S
C1547 C1549 1.433 . S
C1548 C1544 1.350 . S
C1548 C1545 1.463 1_556 S
C1548 N1552 1.427 . S
C1549 H1539 0.929 . S
C1549 C1547 1.433 . S
C1549 N1552 1.384 . S
C1550 H1541 0.929 . S
C1550 C1542 1.378 . S
C1550 C1545 1.350 . S
C1551 H1538 0.929 . S
C1551 C1543 1.433 . S
C1551 N1553 1.384 1_554 S
N1552 C1548 1.427 . S
N1552 C1549 1.384 . S
N1553 C1545 1.427 1_556 S
N1553 C1551 1.384 1_556 S
H1554 C1560 0.930 . S
H1555 C1564 0.919 1_556 S
H1556 C1569 0.929 . S
H1557 C1567 0.929 . S
H1558 C1562 0.929 . S
H1559 C1568 0.929 . S
C1560 H1554 0.930 . S
C1560 C1561 1.367 1_554 S
C1560 C1568 1.378 . S
C1561 C1560 1.367 1_556 S
C1561 C1569 1.433 . S
C1562 H1558 0.929 . S
C1562 C1564 1.371 1_556 S
C1562 C1566 1.350 1_556 S
C1563 C1566 1.463 1_556 S
C1563 C1568 1.350 1_556 S
C1563 N1571 1.427 . S
C1564 H1555 0.919 1_554 S
C1564 C1562 1.371 1_554 S
C1564 C1565 1.386 . S
C1565 C1564 1.386 . S
C1565 C1567 1.433 . S
C1566 C1562 1.350 1_554 S
C1566 C1563 1.463 1_554 S
C1566 N1570 1.427 . S
C1567 H1557 0.929 . S
C1567 C1565 1.433 . S
C1567 N1570 1.384 . S
C1568 H1559 0.929 . S
C1568 C1560 1.378 . S
C1568 C1563 1.350 1_554 S
C1569 H1556 0.929 . S
C1569 C1561 1.433 . S
C1569 N1571 1.384 . S
N1570 C1566 1.427 . S
N1570 C1567 1.384 . S
N1571 C1563 1.427 . S
N1571 C1569 1.384 . S
H1572 C1578 0.930 . S
H1573 C1582 0.930 . S
H1574 C1587 0.929 . S
H1575 C1585 0.929 . S
H1576 C1580 0.929 . S
H1577 C1586 0.929 . S
C1578 H1572 0.930 . S
C1578 C1579 1.367 . S
C1578 C1586 1.378 . S
C1579 C1578 1.367 . S
C1579 C1587 1.433 . S
C1580 H1576 0.929 . S
C1580 C1582 1.378 . S
C1580 C1584 1.350 . S
C1581 C1584 1.463 . S
C1581 C1586 1.350 . S
C1581 N1589 1.427 . S
C1582 H1573 0.930 . S
C1582 C1580 1.378 . S
C1582 C1583 1.367 . S
C1583 C1582 1.367 . S
C1583 C1585 1.433 . S
C1584 C1580 1.350 . S
C1584 C1581 1.463 . S
C1584 N1588 1.427 . S
C1585 H1575 0.929 . S
C1585 C1583 1.433 . S
C1585 N1588 1.384 . S
C1586 H1577 0.929 . S
C1586 C1578 1.378 . S
C1586 C1581 1.350 . S
C1587 H1574 0.929 . S
C1587 C1579 1.433 . S
C1587 N1589 1.384 . S
N1588 C1584 1.427 . S
N1588 C1585 1.384 . S
N1589 C1581 1.427 . S
N1589 C1587 1.384 . S
H1590 C1596 0.930 . S
H1591 C1600 0.930 . S
H1592 C1605 0.929 . S
H1593 C1603 0.929 . S
H1594 C1598 0.929 . S
H1595 C1604 0.929 . S
C1596 H1590 0.930 . S
C1596 C1597 1.367 . S
C1596 C1604 1.378 . S
C1597 C1596 1.367 . S
C1597 C1605 1.433 . S
C1598 H1594 0.929 . S
C1598 C1600 1.378 . S
C1598 C1602 1.350 . S
C1599 C1602 1.463 . S
C1599 C1604 1.350 . S
C1599 N1607 1.427 . S
C1600 H1591 0.930 . S
C1600 C1598 1.378 . S
C1600 C1601 1.367 . S
C1601 C1600 1.367 . S
C1601 C1603 1.433 . S
C1602 C1598 1.350 . S
C1602 C1599 1.463 . S
C1602 N1606 1.427 . S
C1603 H1593 0.929 . S
C1603 C1601 1.433 . S
C1603 N1606 1.384 . S
C1604 H1595 0.929 . S
C1604 C1596 1.378 . S
C1604 C1599 1.350 . S
C1605 H1592 0.929 . S
C1605 C1597 1.433 . S
C1605 N1607 1.384 . S
N1606 C1602 1.427 . S
N1606 C1603 1.384 . S
N1607 C1599 1.427 . S
N1607 C1605 1.384 . S
H1608 C1614 0.930 . S
H1609 C1618 0.930 . S
H1610 C1623 0.929 1_455 S
H1611 C1621 0.929 . S
H1612 C1616 0.929 . S
H1613 C1622 0.929 . S
C1614 H1608 0.930 . S
C1614 C1615 1.367 . S
C1614 C1622 1.378 . S
C1615 C1614 1.367 . S
C1615 C1623 1.433 . S
C1616 H1612 0.929 . S
C1616 C1618 1.378 . S
C1616 C1620 1.350 . S
C1617 C1620 1.463 1_655 S
C1617 C1622 1.350 . S
C1617 N1625 1.427 1_655 S
C1618 H1609 0.930 . S
C1618 C1616 1.378 . S
C1618 C1619 1.367 . S
C1619 C1618 1.367 . S
C1619 C1621 1.433 . S
C1620 C1616 1.350 . S
C1620 C1617 1.463 1_455 S
C1620 N1624 1.427 1_455 S
C1621 H1611 0.929 . S
C1621 C1619 1.433 . S
C1621 N1624 1.384 1_455 S
C1622 H1613 0.929 . S
C1622 C1614 1.378 . S
C1622 C1617 1.350 . S
C1623 H1610 0.929 1_655 S
C1623 C1615 1.433 . S
C1623 N1625 1.384 1_655 S
N1624 C1620 1.427 1_655 S
N1624 C1621 1.384 1_655 S
N1625 C1617 1.427 1_455 S
N1625 C1623 1.384 1_455 S
H1626 C1632 0.930 . S
H1627 C1636 0.930 . S
H1628 C1641 0.929 . S
H1629 C1639 0.929 . S
H1630 C1634 0.929 . S
H1631 C1640 0.929 . S
C1632 H1626 0.930 . S
C1632 C1633 1.367 . S
C1632 C1640 1.378 . S
C1633 C1632 1.367 . S
C1633 C1641 1.433 . S
C1634 H1630 0.929 . S
C1634 C1636 1.378 . S
C1634 C1638 1.350 . S
C1635 C1638 1.463 . S
C1635 C1640 1.350 . S
C1635 N1643 1.427 . S
C1636 H1627 0.930 . S
C1636 C1634 1.378 . S
C1636 C1637 1.367 . S
C1637 C1636 1.367 . S
C1637 C1639 1.433 . S
C1638 C1634 1.350 . S
C1638 C1635 1.463 . S
C1638 N1642 1.427 . S
C1639 H1629 0.929 . S
C1639 C1637 1.433 . S
C1639 N1642 1.384 . S
C1640 H1631 0.929 . S
C1640 C1632 1.378 . S
C1640 C1635 1.350 . S
C1641 H1628 0.929 . S
C1641 C1633 1.433 . S
C1641 N1643 1.384 . S
N1642 C1638 1.427 . S
N1642 C1639 1.384 . S
N1643 C1635 1.427 . S
N1643 C1641 1.384 . S
H1644 C1650 0.930 . S
H1645 C1654 0.930 . S
H1646 C1659 0.929 . S
H1647 C1657 0.929 . S
H1648 C1652 0.929 . S
H1649 C1658 0.929 . S
C1650 H1644 0.930 . S
C1650 C1651 1.367 . S
C1650 C1658 1.378 . S
C1651 C1650 1.367 . S
C1651 C1659 1.433 . S
C1652 H1648 0.929 . S
C1652 C1654 1.378 . S
C1652 C1656 1.350 . S
C1653 C1656 1.463 . S
C1653 C1658 1.350 . S
C1653 N1661 1.427 . S
C1654 H1645 0.930 . S
C1654 C1652 1.378 . S
C1654 C1655 1.367 . S
C1655 C1654 1.367 . S
C1655 C1657 1.433 . S
C1656 C1652 1.350 . S
C1656 C1653 1.463 . S
C1656 N1660 1.427 . S
C1657 H1647 0.929 . S
C1657 C1655 1.433 . S
C1657 N1660 1.384 . S
C1658 H1649 0.929 . S
C1658 C1650 1.378 . S
C1658 C1653 1.350 . S
C1659 H1646 0.929 . S
C1659 C1651 1.433 . S
C1659 N1661 1.384 . S
N1660 C1656 1.427 . S
N1660 C1657 1.384 . S
N1661 C1653 1.427 . S
N1661 C1659 1.384 . S
H1662 C1668 0.930 . S
H1663 C1672 0.930 . S
H1664 C1677 0.929 . S
H1665 C1675 0.929 . S
H1666 C1670 0.929 . S
H1667 C1676 0.929 1_455 S
C1668 H1662 0.930 . S
C1668 C1669 1.367 . S
C1668 C1676 1.378 . S
C1669 C1668 1.367 . S
C1669 C1677 1.433 . S
C1670 H1666 0.929 . S
C1670 C1672 1.378 1_655 S
C1670 C1674 1.350 1_655 S
C1671 C1674 1.463 1_655 S
C1671 C1676 1.350 . S
C1671 N1679 1.427 . S
C1672 H1663 0.930 . S
C1672 C1670 1.378 1_455 S
C1672 C1673 1.367 . S
C1673 C1672 1.367 . S
C1673 C1675 1.433 . S
C1674 C1670 1.350 1_455 S
C1674 C1671 1.463 1_455 S
C1674 N1678 1.427 . S
C1675 H1665 0.929 . S
C1675 C1673 1.433 . S
C1675 N1678 1.384 . S
C1676 H1667 0.929 1_655 S
C1676 C1668 1.378 . S
C1676 C1671 1.350 . S
C1677 H1664 0.929 . S
C1677 C1669 1.433 . S
C1677 N1679 1.384 . S
N1678 C1674 1.427 . S
N1678 C1675 1.384 . S
N1679 C1671 1.427 . S
N1679 C1677 1.384 . S
H1680 C1686 0.930 . S
H1681 C1690 0.930 . S
H1682 C1695 0.929 . S
H1683 C1693 0.919 1_565 S
H1684 C1688 0.929 . S
H1685 C1694 0.929 . S
C1686 H1680 0.930 . S
C1686 C1687 1.367 . S
C1686 C1694 1.378 . S
C1687 C1686 1.367 . S
C1687 C1695 1.433 1_565 S
C1688 H1684 0.929 . S
C1688 C1690 1.378 . S
C1688 C1692 1.350 . S
C1689 C1692 1.463 1_565 S
C1689 C1694 1.350 . S
C1689 N1697 1.427 1_565 S
C1690 H1681 0.930 . S
C1690 C1688 1.378 . S
C1690 C1691 1.367 . S
C1691 C1690 1.367 . S
C1691 C1693 1.450 . S
C1692 C1688 1.350 . S
C1692 C1689 1.463 1_545 S
C1692 N1696 1.427 1_545 S
C1693 H1683 0.919 1_545 S
C1693 C1691 1.450 . S
C1693 N1696 1.378 1_545 S
C1694 H1685 0.929 . S
C1694 C1686 1.378 . S
C1694 C1689 1.350 . S
C1695 H1682 0.929 . S
C1695 C1687 1.433 1_545 S
C1695 N1697 1.384 . S
N1696 C1692 1.427 1_565 S
N1696 C1693 1.378 1_565 S
N1697 C1689 1.427 1_545 S
N1697 C1695 1.384 . S
H1698 C1704 0.930 . S
H1699 C1708 0.930 . S
H1700 C1713 0.929 . S
H1701 C1711 0.929 . S
H1702 C1706 0.929 . S
H1703 C1712 0.929 . S
C1704 H1698 0.930 . S
C1704 C1705 1.367 . S
C1704 C1712 1.378 . S
C1705 C1704 1.367 . S
C1705 C1713 1.433 . S
C1706 H1702 0.929 . S
C1706 C1708 1.378 . S
C1706 C1710 1.350 . S
C1707 C1710 1.463 1_545 S
C1707 C1712 1.350 . S
C1707 N1715 1.427 . S
C1708 H1699 0.930 . S
C1708 C1706 1.378 . S
C1708 C1709 1.367 . S
C1709 C1708 1.367 . S
C1709 C1711 1.433 . S
C1710 C1706 1.350 . S
C1710 C1707 1.463 1_565 S
C1710 N1714 1.427 . S
C1711 H1701 0.929 . S
C1711 C1709 1.433 . S
C1711 N1714 1.384 . S
C1712 H1703 0.929 . S
C1712 C1704 1.378 . S
C1712 C1707 1.350 . S
C1713 H1700 0.929 . S
C1713 C1705 1.433 . S
C1713 N1715 1.384 . S
N1714 C1710 1.427 . S
N1714 C1711 1.384 . S
N1715 C1707 1.427 . S
N1715 C1713 1.384 . S
H1716 C1722 0.930 . S
H1717 C1726 0.930 . S
H1718 C1731 0.929 . S
H1719 C1729 0.929 . S
H1720 C1724 0.929 . S
H1721 C1730 0.929 . S
C1722 H1716 0.930 . S
C1722 C1723 1.367 . S
C1722 C1730 1.378 . S
C1723 C1722 1.367 . S
C1723 C1731 1.433 . S
C1724 H1720 0.929 . S
C1724 C1726 1.378 . S
C1724 C1728 1.350 . S
C1725 C1728 1.463 . S
C1725 C1730 1.350 . S
C1725 N1733 1.427 . S
C1726 H1717 0.930 . S
C1726 C1724 1.378 . S
C1726 C1727 1.367 . S
C1727 C1726 1.367 . S
C1727 C1729 1.433 . S
C1728 C1724 1.350 . S
C1728 C1725 1.463 . S
C1728 N1732 1.427 . S
C1729 H1719 0.929 . S
C1729 C1727 1.433 . S
C1729 N1732 1.384 . S
C1730 H1721 0.929 . S
C1730 C1722 1.378 . S
C1730 C1725 1.350 . S
C1731 H1718 0.929 . S
C1731 C1723 1.433 . S
C1731 N1733 1.384 . S
N1732 C1728 1.427 . S
N1732 C1729 1.384 . S
N1733 C1725 1.427 . S
N1733 C1731 1.384 . S
H1734 C1740 0.930 . S
H1735 C1744 0.930 . S
H1736 C1749 0.929 . S
H1737 C1747 0.929 . S
H1738 C1742 0.929 . S
H1739 C1748 0.929 . S
C1740 H1734 0.930 . S
C1740 C1741 1.367 . S
C1740 C1748 1.378 . S
C1741 C1740 1.367 . S
C1741 C1749 1.433 . S
C1742 H1738 0.929 . S
C1742 C1744 1.378 . S
C1742 C1746 1.350 . S
C1743 C1746 1.463 . S
C1743 C1748 1.350 . S
C1743 N1751 1.427 . S
C1744 H1735 0.930 . S
C1744 C1742 1.378 . S
C1744 C1745 1.367 . S
C1745 C1744 1.367 . S
C1745 C1747 1.433 . S
C1746 C1742 1.350 . S
C1746 C1743 1.463 . S
C1746 N1750 1.427 . S
C1747 H1737 0.929 . S
C1747 C1745 1.433 . S
C1747 N1750 1.384 . S
C1748 H1739 0.929 . S
C1748 C1740 1.378 . S
C1748 C1743 1.350 . S
C1749 H1736 0.929 . S
C1749 C1741 1.433 . S
C1749 N1751 1.384 . S
N1750 C1746 1.427 . S
N1750 C1747 1.384 . S
N1751 C1743 1.427 . S
N1751 C1749 1.384 . S
H1752 C1758 0.930 . S
H1753 C1762 0.929 1_556 S
H1754 C1767 0.929 . S
H1755 C1765 0.929 . S
H1756 C1760 0.929 . S
H1757 C1766 0.929 . S
C1758 H1752 0.930 . S
C1758 C1759 1.367 1_554 S
C1758 C1766 1.378 . S
C1759 C1758 1.367 1_556 S
C1759 C1767 1.433 . S
C1760 H1756 0.929 . S
C1760 C1762 1.377 1_556 S
C1760 C1764 1.350 1_556 S
C1761 C1764 1.463 1_556 S
C1761 C1766 1.350 1_556 S
C1761 N1769 1.427 . S
C1762 H1753 0.929 1_554 S
C1762 C1760 1.377 1_554 S
C1762 C1763 1.369 . S
C1763 C1762 1.369 . S
C1763 C1765 1.433 . S
C1764 C1760 1.350 1_554 S
C1764 C1761 1.463 1_554 S
C1764 N1768 1.427 . S
C1765 H1755 0.929 . S
C1765 C1763 1.433 . S
C1765 N1768 1.384 . S
C1766 H1757 0.929 . S
C1766 C1758 1.378 . S
C1766 C1761 1.350 1_554 S
C1767 H1754 0.929 . S
C1767 C1759 1.433 . S
C1767 N1769 1.384 . S
N1768 C1764 1.427 . S
N1768 C1765 1.384 . S
N1769 C1761 1.427 . S
N1769 C1767 1.384 . S
H1770 C1776 0.930 1_554 S
H1771 C1780 0.927 1_556 S
H1772 C1785 0.929 . S
H1773 C1783 0.929 . S
H1774 C1778 0.929 . S
H1775 C1784 0.929 . S
C1776 H1770 0.930 1_556 S
C1776 C1777 1.367 . S
C1776 C1784 1.378 1_556 S
C1777 C1776 1.367 . S
C1777 C1785 1.433 . S
C1778 H1774 0.929 . S
C1778 C1780 1.375 1_556 S
C1778 C1782 1.350 1_556 S
C1779 C1782 1.463 1_556 S
C1779 C1784 1.350 1_556 S
C1779 N1787 1.427 . S
C1780 H1771 0.927 1_554 S
C1780 C1778 1.375 1_554 S
C1780 C1781 1.374 . S
C1781 C1780 1.374 . S
C1781 C1783 1.433 . S
C1782 C1778 1.350 1_554 S
C1782 C1779 1.463 1_554 S
C1782 N1786 1.427 . S
C1783 H1773 0.929 . S
C1783 C1781 1.433 . S
C1783 N1786 1.384 . S
C1784 H1775 0.929 . S
C1784 C1776 1.378 1_554 S
C1784 C1779 1.350 1_554 S
C1785 H1772 0.929 . S
C1785 C1777 1.433 . S
C1785 N1787 1.384 . S
N1786 C1782 1.427 . S
N1786 C1783 1.384 . S
N1787 C1779 1.427 . S
N1787 C1785 1.384 . S
H1788 C1794 0.930 . S
H1789 C1798 0.930 . S
H1790 C1803 0.929 . S
H1791 C1801 0.929 . S
H1792 C1796 0.929 . S
H1793 C1802 0.929 . S
C1794 H1788 0.930 . S
C1794 C1795 1.367 . S
C1794 C1802 1.378 . S
C1795 C1794 1.367 . S
C1795 C1803 1.433 . S
C1796 H1792 0.929 . S
C1796 C1798 1.378 . S
C1796 C1800 1.350 . S
C1797 C1800 1.463 . S
C1797 C1802 1.350 . S
C1797 N1805 1.427 . S
C1798 H1789 0.930 . S
C1798 C1796 1.378 . S
C1798 C1799 1.367 . S
C1799 C1798 1.367 . S
C1799 C1801 1.433 . S
C1800 C1796 1.350 . S
C1800 C1797 1.463 . S
C1800 N1804 1.427 . S
C1801 H1791 0.929 . S
C1801 C1799 1.433 . S
C1801 N1804 1.384 . S
C1802 H1793 0.929 . S
C1802 C1794 1.378 . S
C1802 C1797 1.350 . S
C1803 H1790 0.929 . S
C1803 C1795 1.433 . S
C1803 N1805 1.384 . S
N1804 C1800 1.427 . S
N1804 C1801 1.384 . S
N1805 C1797 1.427 . S
N1805 C1803 1.384 . S
H1806 C1812 0.930 . S
H1807 C1816 0.930 . S
H1808 C1821 0.929 . S
H1809 C1819 0.929 . S
H1810 C1814 0.929 . S
H1811 C1820 0.929 . S
C1812 H1806 0.930 . S
C1812 C1813 1.367 . S
C1812 C1820 1.378 . S
C1813 C1812 1.367 . S
C1813 C1821 1.433 . S
C1814 H1810 0.929 . S
C1814 C1816 1.378 . S
C1814 C1818 1.350 . S
C1815 C1818 1.463 . S
C1815 C1820 1.350 . S
C1815 N1823 1.427 . S
C1816 H1807 0.930 . S
C1816 C1814 1.378 . S
C1816 C1817 1.367 . S
C1817 C1816 1.367 . S
C1817 C1819 1.433 . S
C1818 C1814 1.350 . S
C1818 C1815 1.463 . S
C1818 N1822 1.427 . S
C1819 H1809 0.929 . S
C1819 C1817 1.433 . S
C1819 N1822 1.384 . S
C1820 H1811 0.929 . S
C1820 C1812 1.378 . S
C1820 C1815 1.350 . S
C1821 H1808 0.929 . S
C1821 C1813 1.433 . S
C1821 N1823 1.384 . S
N1822 C1818 1.427 . S
N1822 C1819 1.384 . S
N1823 C1815 1.427 . S
N1823 C1821 1.384 . S
C535 C7 1.184 . S
C539 C414 1.187 . S
C553 C426 1.184 . S
C557 C29 1.177 . S
C571 C65 1.178 . S
C575 C360 1.186 . S
C589 C81 1.184 . S
C593 C392 1.187 . S
C607 C494 1.187 . S
C611 C109 1.179 . S
C625 C125 1.177 . S
C629 C480 1.185 . S
C643 C514 1.185 . S
C647 C153 1.181 . S
C661 C175 1.178 . S
C665 C448 1.187 . S
C679 C197 1.180 . S
C683 C304 1.185 . S
C697 C205 1.178 . S
C701 C338 1.186 . S
C715 C316 1.190 . S
C719 C227 1.186 . S
C733 C257 1.180 . S
C737 C272 1.184 . S
C751 C285 1.177 . S
C755 C140 1.184 . S
C769 C293 1.186 . S
C773 C162 1.189 . S
C787 C329 1.183 . S
C791 C96 1.190 . S
C805 C120 1.187 . S
C809 C351 1.179 . S
C823 C373 1.181 . S
C827 C238 1.189 . S
C841 C216 1.185 . S
C845 C381 1.177 . S
C859 C252 1.190 . S
C863 C403 1.185 . S
C877 C184 1.185 . S
C881 C439 1.180 . S
C895 C40 1.188 . S
C899 C461 1.180 . S
C913 C76 1.184 . S
C917 C469 1.177 . S
C931 C52 1.184 . S
C935 C499 1.177 . S
C949 C527 1.185 . S
C953 C18 1.188 . S
C967 C433 1.068 . S
C971 C15 1.055 . S
C985 C417 1.063 . S
C989 C37 1.063 . S
C1003 C51 1.070 . S
C1007 C395 1.054 . S
C1021 C367 1.065 . S
C1025 C87 1.061 . S
C1039 C95 1.063 . S
C1043 C521 1.064 . S
C1057 C131 1.056 . S
C1061 C455 1.061 . S
C1075 C491 1.054 . S
C1079 C139 1.061 . S
C1093 C161 1.058 . S
C1097 C483 1.057 . S
C1111 C323 1.064 . S
C1115 C183 1.054 . S
C1129 C279 1.068 . S
C1133 C213 1.055 . S
C1147 C307 1.061 . S
C1151 C235 1.056 . S
C1165 C345 1.051 . S
C1169 C263 1.071 . S
C1183 C271 1.065 . S
C1187 C169 1.051 . S
C1201 C301 1.054 . S
C1205 C147 1.067 . S
C1219 C117 1.050 . S
C1223 C315 1.068 . S
C1237 C103 1.066 . S
C1241 C337 1.054 . S
C1255 C249 1.055 . S
C1259 C359 1.069 . S
C1273 C389 1.056 . S
C1277 C191 1.061 . S
C1291 C241 1.068 . S
C1295 C411 1.056 . S
C1309 C219 1.059 . S
C1313 C425 1.067 . S
C1327 C447 1.054 . S
C1331 C59 1.063 . S
C1345 C477 1.068 . S
C1349 C21 1.050 . S
C1363 C43 1.066 . S
C1367 C505 1.059 . S
C1381 C73 1.050 . S
C1385 C513 1.069 . S
C1399 C10 1.050 . S
C1403 C206 1.037 . S
C1417 C228 1.040 . S
C1421 C32 1.050 . S
C1435 C186 1.053 . S
C1439 C62 1.034 . S
C1453 C260 1.037 . S
C1457 C74 1.050 . S
C1471 C106 1.051 . S
C1475 C84 1.039 . S
C1489 C54 1.048 . S
C1493 C118 1.037 . S
C1507 C150 1.050 . S
C1511 C30 1.041 . S
C1525 C8 1.037 . S
C1529 C172 1.050 . S
C1543 C194 1.051 . S
C1547 C128 1.039 . S
C1561 C208 1.040 . S
C1565 C164 1.044 . S
C1579 C230 1.037 . S
C1583 C142 1.047 . S
C1597 C250 1.040 . S
C1601 C98 1.044 . S
C1615 C282 1.050 . S
C1619 C470 1.041 . S
C1633 C296 1.035 . S
C1637 C502 1.050 . S
C1651 C450 1.037 . S
C1655 C326 1.051 . S
C1669 C516 1.037 . S
C1673 C348 1.051 . S
C1687 C370 1.041 . S
C1691 C340 1.050 . S
C1705 C384 1.051 . S
C1709 C318 1.037 . S
C1723 C294 1.042 . S
C1727 C406 1.043 . S
C1741 C436 1.039 . S
C1745 C274 1.045 . S
C1759 C458 1.043 . S
C1763 C382 1.041 . S
C1777 C428 1.048 . S
C1781 C472 1.037 . S
C1795 C492 1.049 . S
C1799 C404 1.037 . S
C1813 C524 1.041 . S
C1817 C362 1.043 . S
