# Generated by pormake.
# Topology wiv, (6)-cn, num edge types: 1
# Building blocks:
#     Node 0, Type 0, BuildingBlock: KUMBUR_clean_sbu_1, # of connection points: 6
#     Node 1, Type 0, BuildingBlock: KUMBUR_clean_sbu_1, # of connection points: 6
#     Node 2, Type 0, BuildingBlock: KUMBUR_clean_sbu_1, # of connection points: 6
#     Node 3, Type 0, BuildingBlock: KUMBUR_clean_sbu_1, # of connection points: 6
#     Node 4, Type 0, BuildingBlock: KUMBUR_clean_sbu_1, # of connection points: 6
#     Node 5, Type 0, BuildingBlock: KUMBUR_clean_sbu_1, # of connection points: 6
#     Node 6, Type 0, BuildingBlock: KUMBUR_clean_sbu_1, # of connection points: 6
#     Node 7, Type 0, BuildingBlock: KUMBUR_clean_sbu_1, # of connection points: 6
#     Node 8, Type 0, BuildingBlock: KUMBUR_clean_sbu_1, # of connection points: 6
#     Node 9, Type 0, BuildingBlock: KUMBUR_clean_sbu_1, # of connection points: 6
#     Node 10, Type 0, BuildingBlock: KUMBUR_clean_sbu_1, # of connection points: 6
#     Node 11, Type 0, BuildingBlock: KUMBUR_clean_sbu_1, # of connection points: 6
#     Node 12, Type 0, BuildingBlock: KUMBUR_clean_sbu_1, # of connection points: 6
#     Node 13, Type 0, BuildingBlock: KUMBUR_clean_sbu_1, # of connection points: 6
#     Node 14, Type 0, BuildingBlock: KUMBUR_clean_sbu_1, # of connection points: 6
#     Node 15, Type 0, BuildingBlock: KUMBUR_clean_sbu_1, # of connection points: 6
#     Edge 16, Type (0, 0), BuildingBlock: AJUNOK_clean_linker_0, # of connection points: 2
#     Edge 17, Type (0, 0), BuildingBlock: AJUNOK_clean_linker_0, # of connection points: 2
#     Edge 18, Type (0, 0), BuildingBlock: AJUNOK_clean_linker_0, # of connection points: 2
#     Edge 19, Type (0, 0), BuildingBlock: AJUNOK_clean_linker_0, # of connection points: 2
#     Edge 20, Type (0, 0), BuildingBlock: AJUNOK_clean_linker_0, # of connection points: 2
#     Edge 21, Type (0, 0), BuildingBlock: AJUNOK_clean_linker_0, # of connection points: 2
#     Edge 22, Type (0, 0), BuildingBlock: AJUNOK_clean_linker_0, # of connection points: 2
#     Edge 23, Type (0, 0), BuildingBlock: AJUNOK_clean_linker_0, # of connection points: 2
#     Edge 24, Type (0, 0), BuildingBlock: AJUNOK_clean_linker_0, # of connection points: 2
#     Edge 25, Type (0, 0), BuildingBlock: AJUNOK_clean_linker_0, # of connection points: 2
#     Edge 26, Type (0, 0), BuildingBlock: AJUNOK_clean_linker_0, # of connection points: 2
#     Edge 27, Type (0, 0), BuildingBlock: AJUNOK_clean_linker_0, # of connection points: 2
#     Edge 28, Type (0, 0), BuildingBlock: AJUNOK_clean_linker_0, # of connection points: 2
#     Edge 29, Type (0, 0), BuildingBlock: AJUNOK_clean_linker_0, # of connection points: 2
#     Edge 30, Type (0, 0), BuildingBlock: AJUNOK_clean_linker_0, # of connection points: 2
#     Edge 31, Type (0, 0), BuildingBlock: AJUNOK_clean_linker_0, # of connection points: 2
#     Edge 32, Type (0, 0), BuildingBlock: AJUNOK_clean_linker_0, # of connection points: 2
#     Edge 33, Type (0, 0), BuildingBlock: AJUNOK_clean_linker_0, # of connection points: 2
#     Edge 34, Type (0, 0), BuildingBlock: AJUNOK_clean_linker_0, # of connection points: 2
#     Edge 35, Type (0, 0), BuildingBlock: AJUNOK_clean_linker_0, # of connection points: 2
#     Edge 36, Type (0, 0), BuildingBlock: AJUNOK_clean_linker_0, # of connection points: 2
#     Edge 37, Type (0, 0), BuildingBlock: AJUNOK_clean_linker_0, # of connection points: 2
#     Edge 38, Type (0, 0), BuildingBlock: AJUNOK_clean_linker_0, # of connection points: 2
#     Edge 39, Type (0, 0), BuildingBlock: AJUNOK_clean_linker_0, # of connection points: 2
#     Edge 40, Type (0, 0), BuildingBlock: AJUNOK_clean_linker_0, # of connection points: 2
#     Edge 41, Type (0, 0), BuildingBlock: AJUNOK_clean_linker_0, # of connection points: 2
#     Edge 42, Type (0, 0), BuildingBlock: AJUNOK_clean_linker_0, # of connection points: 2
#     Edge 43, Type (0, 0), BuildingBlock: AJUNOK_clean_linker_0, # of connection points: 2
#     Edge 44, Type (0, 0), BuildingBlock: AJUNOK_clean_linker_0, # of connection points: 2
#     Edge 45, Type (0, 0), BuildingBlock: AJUNOK_clean_linker_0, # of connection points: 2
#     Edge 46, Type (0, 0), BuildingBlock: AJUNOK_clean_linker_0, # of connection points: 2
#     Edge 47, Type (0, 0), BuildingBlock: AJUNOK_clean_linker_0, # of connection points: 2
#     Edge 48, Type (0, 0), BuildingBlock: AJUNOK_clean_linker_0, # of connection points: 2
#     Edge 49, Type (0, 0), BuildingBlock: AJUNOK_clean_linker_0, # of connection points: 2
#     Edge 50, Type (0, 0), BuildingBlock: AJUNOK_clean_linker_0, # of connection points: 2
#     Edge 51, Type (0, 0), BuildingBlock: AJUNOK_clean_linker_0, # of connection points: 2
#     Edge 52, Type (0, 0), BuildingBlock: AJUNOK_clean_linker_0, # of connection points: 2
#     Edge 53, Type (0, 0), BuildingBlock: AJUNOK_clean_linker_0, # of connection points: 2
#     Edge 54, Type (0, 0), BuildingBlock: AJUNOK_clean_linker_0, # of connection points: 2
#     Edge 55, Type (0, 0), BuildingBlock: AJUNOK_clean_linker_0, # of connection points: 2
#     Edge 56, Type (0, 0), BuildingBlock: AJUNOK_clean_linker_0, # of connection points: 2
#     Edge 57, Type (0, 0), BuildingBlock: AJUNOK_clean_linker_0, # of connection points: 2
#     Edge 58, Type (0, 0), BuildingBlock: AJUNOK_clean_linker_0, # of connection points: 2
#     Edge 59, Type (0, 0), BuildingBlock: AJUNOK_clean_linker_0, # of connection points: 2
#     Edge 60, Type (0, 0), BuildingBlock: AJUNOK_clean_linker_0, # of connection points: 2
#     Edge 61, Type (0, 0), BuildingBlock: AJUNOK_clean_linker_0, # of connection points: 2
#     Edge 62, Type (0, 0), BuildingBlock: AJUNOK_clean_linker_0, # of connection points: 2
#     Edge 63, Type (0, 0), BuildingBlock: AJUNOK_clean_linker_0, # of connection points: 2
# Relax obj value: 0.185
# Max RMSD: 0.234
# Mean RMSD: 0.234
data_MOF--net-wiv--node1-KUMBUR_clean_sbu_1--edge1-AJUNOK_clean_linker_0
_symmetry_space_group_name_H-M    P1
_symmetry_Int_Tables_number       1
_symmetry_cell_setting            triclinic
loop_
_symmetry_equiv_pos_as_xyz
'x, y, z'
_cell_length_a     36.337558
_cell_length_b     36.109184
_cell_length_c     19.803086
_cell_angle_alpha  89.92091
_cell_angle_beta   90.325386
_cell_angle_gamma 89.458633
loop_
_atom_site_label
_atom_site_type_symbol
_atom_site_fract_x
_atom_site_fract_y
_atom_site_fract_z
_atom_type_partial_charge
Tb0 Tb 0.39827 0.11509 0.07923 0.0
C1 C 0.25378 0.17663 0.21432 0.0
N2 N 0.28781 0.16995 0.24038 0.0
C3 C 0.28169 0.22525 0.30719 0.0
C4 C 0.23321 0.20908 0.22817 0.0
C5 C 0.30086 0.19285 0.28987 0.0
C6 C 0.24834 0.23382 0.27507 0.0
C7 C 0.18977 0.15164 0.16612 0.0
C8 C 0.23606 0.14691 0.19166 0.0
C9 C 0.17616 0.18775 0.16796 0.0
C10 C 0.19705 0.21515 0.20135 0.0
Tb11 Tb 0.31703 0.11499 0.20617 0.0
N12 N 0.25365 0.10696 0.21066 0.0
C13 C 0.16225 0.10989 0.16039 0.0
C14 C 0.23111 0.06719 0.2126 0.0
C15 C 0.18318 0.0669 0.18631 0.0
H16 H 0.3263 0.18592 0.31569 0.0
H17 H 0.16793 0.04143 0.18311 0.0
H18 H 0.38645 0.03017 1.01966 0.0
H19 H 0.52161 0.18077 0.17531 0.0
H20 H 0.24553 0.04159 0.22431 0.0
H21 H 0.13353 0.11116 0.14569 0.0
H22 H 0.46346 0.18008 0.11218 0.0
H23 H 0.29247 0.24344 0.34576 0.0
H24 H 0.14785 0.19344 0.15389 0.0
H25 H 0.1834 0.2414 0.21107 0.0
H26 H 0.41629 0.96865 0.03572 0.0
H27 H 0.23356 0.25877 0.28945 0.0
H28 H 0.55364 0.12252 0.20506 0.0
N29 N 0.42739 0.05869 0.07574 0.0
C30 C 0.46073 0.05655 0.10691 0.0
C31 C 0.42886 0.99325 0.05633 0.0
C32 C 0.4785 0.02233 0.11788 0.0
C33 C 0.41237 0.02804 0.04648 0.0
C34 C 0.46155 0.99039 0.09372 0.0
N35 N 0.45869 0.12114 0.11512 0.0
C36 C 0.47637 0.15404 0.12616 0.0
C37 C 0.51149 0.08827 0.15998 0.0
C38 C 0.47669 0.08891 0.12819 0.0
C39 C 0.52737 0.12175 0.17892 0.0
C40 C 0.50969 0.15474 0.16146 0.0
H41 H 0.47441 0.96369 0.10084 0.0
H42 H 0.52687 0.99516 0.16055 0.0
H43 H 0.55665 0.05356 0.19294 0.0
O44 O 0.43065 0.14882 1.01682 0.0
O45 O 0.40807 0.15308 0.16397 0.0
O46 O 0.37429 0.12842 0.25004 0.0
O47 O 0.39526 0.10748 0.97467 0.0
O48 O 0.36059 0.16423 0.0779 0.0
O49 O 0.33599 0.16969 0.18372 0.0
O50 O 0.29071 0.09326 0.28973 0.0
O51 O 0.29909 0.11456 0.09132 0.0
O52 O 0.34806 0.09266 0.02861 0.0
O53 O 0.34926 0.09226 0.28463 0.0
O54 O 0.33005 0.06084 0.16012 0.0
O55 O 0.39163 0.06932 0.15633 0.0
C56 C 0.40448 0.14591 0.22847 0.0
C57 C 0.44475 0.12586 0.90883 0.0
C58 C 0.44917 0.12105 0.78789 0.0
C59 C 0.47751 0.09476 0.79479 0.0
C60 C 0.47313 0.09993 0.9166 0.0
C61 C 0.49037 0.08523 0.85936 0.0
C62 C 0.435 0.13854 0.84497 0.0
C63 C 0.34714 0.18446 0.12757 0.0
C64 C 0.41867 0.13352 0.96222 0.0
C65 C 0.51262 0.02123 0.1517 0.0
C66 C 0.52938 0.0543 0.17131 0.0
C67 C 0.31331 0.10401 0.03052 0.0
C68 C 0.32263 0.10431 0.3908 0.0
C69 C 0.33456 0.13269 0.51335 0.0
C70 C 0.34425 0.14444 0.57768 0.0
C71 C 0.30334 0.13473 0.40996 0.0
C72 C 0.34433 0.09534 0.44515 0.0
C73 C 0.31644 0.14533 0.48621 0.0
C74 C 0.36351 0.04698 0.1681 0.0
C75 C 0.3209 0.08725 0.32329 0.0
H76 H 0.48801 0.08029 0.75099 0.0
H77 H 0.4798 0.08965 0.9664 0.0
H78 H 0.51192 0.06459 0.86485 0.0
H79 H 0.41172 0.15746 0.83946 0.0
H80 H 0.33209 0.17336 0.63249 0.0
H81 H 0.28136 0.1455 0.37635 0.0
H82 H 0.36344 0.07242 0.44481 0.0
H83 H 0.29316 0.16538 0.46324 0.0
Tb84 Tb 0.10379 0.71712 0.83321 0.0
C85 C 0.05388 0.56625 0.96615 0.0
N86 N 0.05644 0.60142 0.98998 0.0
C87 C 0.99715 0.59558 0.04135 0.0
C88 C 0.0224 0.54469 0.9777 0.0
C89 C 0.02899 0.61607 0.02879 0.0
C90 C 0.99363 0.56002 1.01502 0.0
C91 C 0.08232 0.51493 0.90679 0.0
C92 C 0.0835 0.55137 0.93196 0.0
C93 C 0.05067 0.49378 0.91664 0.0
C94 C 0.02083 0.50847 0.95232 0.0
Tb95 Tb 0.1079 0.63315 0.95877 0.0
N96 N 0.11441 0.57177 0.92749 0.0
C97 C 0.11367 0.50028 0.87545 0.0
C98 C 0.14645 0.55523 0.9059 0.0
C99 C 0.14623 0.5202 0.87685 0.0
H100 H 0.0311 0.64386 0.04821 0.0
H101 H 0.17117 0.50881 0.85551 0.0
H102 H 0.17621 0.70413 0.72166 0.0
H103 H 0.05236 0.8802 0.81111 0.0
H104 H 0.17171 0.56984 0.90899 0.0
H105 H 0.11386 0.47272 0.85416 0.0
H106 H 0.04116 0.80117 0.79725 0.0
H107 H 0.97506 0.60696 0.07091 0.0
H108 H 0.0497 0.46549 0.89992 0.0
H109 H 0.99698 0.4914 0.96101 0.0
H110 H 0.237 0.73058 0.70209 0.0
H111 H 0.96877 0.54454 0.0244 0.0
H112 H 0.12392 0.90651 0.84427 0.0
N113 N 0.16103 0.74267 0.79906 0.0
C114 C 0.17165 0.77407 0.83156 0.0
C115 C 0.21891 0.74309 0.73898 0.0
C116 C 0.20713 0.78988 0.82323 0.0
C117 C 0.18379 0.72864 0.74955 0.0
C118 C 0.23111 0.77281 0.77767 0.0
N119 N 0.10357 0.78309 0.82683 0.0
C120 C 0.06823 0.81184 0.80871 0.0
C121 C 0.15411 0.84279 0.8625 0.0
C122 C 0.14377 0.79593 0.85183 0.0
C123 C 0.11856 0.87713 0.84183 0.0
C124 C 0.07482 0.86087 0.81566 0.0
H125 H 0.2584 0.78368 0.7691 0.0
H126 H 0.24564 0.83287 0.85129 0.0
H127 H 0.19947 0.87882 0.88336 0.0
O128 O 0.06725 0.68859 0.76909 0.0
O129 O 0.10933 0.73252 0.94657 0.0
O130 O 0.08358 0.68405 1.00385 0.0
O131 O 0.07627 0.74641 0.75924 0.0
O132 O 0.0508 0.70325 0.88619 0.0
O133 O 0.05533 0.64085 0.90393 0.0
O134 O 0.14419 0.59878 1.01351 0.0
O135 O 0.11995 0.61589 0.8561 0.0
O136 O 0.12166 0.66341 0.77734 0.0
O137 O 0.11654 0.64495 0.06019 0.0
O138 O 0.15989 0.66332 0.94324 0.0
O139 O 0.15541 0.68665 0.83689 0.0
C140 C 0.09737 0.71781 1.00504 0.0
C141 C 0.06962 0.71377 0.66312 0.0
C142 C 0.08237 0.69454 0.54035 0.0
C143 C 0.08059 0.68862 0.47536 0.0
C144 C 0.10431 0.71803 0.642 0.0
C145 C 0.10548 0.70379 0.56692 0.0
C146 C 0.04948 0.69826 0.61235 0.0
C147 C 0.03522 0.66987 0.88569 0.0
C148 C 0.06071 0.71792 0.73283 0.0
C149 C 0.21719 0.82415 0.85305 0.0
C150 C 0.19102 0.85078 0.87254 0.0
C151 C 0.12366 0.62701 0.79378 0.0
C152 C 0.12574 0.59322 0.12529 0.0
C153 C 0.10522 0.59837 0.23928 0.0
C154 C 0.0861 0.56487 0.2326 0.0
C155 C 0.10691 0.55974 0.1175 0.0
C156 C 0.12625 0.61121 0.18653 0.0
C157 C 0.08749 0.54529 0.1718 0.0
C158 C 0.17514 0.67667 0.88875 0.0
C159 C 0.13698 0.61559 0.06923 0.0
H160 H 0.06665 0.7141 0.41341 0.0
H161 H 0.12656 0.72722 0.67391 0.0
H162 H 0.13726 0.70526 0.58119 0.0
H163 H 0.02044 0.69344 0.6208 0.0
H164 H 0.06947 0.55466 0.27352 0.0
H165 H 0.10551 0.54596 0.06922 0.0
H166 H 0.13943 0.63806 0.19017 0.0
H167 H 0.07206 0.52007 0.16541 0.0
Tb168 Tb 0.63422 0.93811 0.05399 0.0
C169 C 0.76074 0.85171 0.24902 0.0
N170 N 0.72583 0.85327 0.22856 0.0
C171 C 0.72771 0.78531 0.24835 0.0
C172 C 0.78881 0.81146 0.241 0.0
C173 C 0.70863 0.81965 0.23707 0.0
C174 C 0.7665 0.78072 0.24464 0.0
C175 C 0.8486 0.89151 0.30893 0.0
C176 C 0.77582 0.89172 0.27892 0.0
C177 C 0.86771 0.84557 0.2907 0.0
C178 C 0.83877 0.80801 0.25808 0.0
Tb179 Tb 0.70245 0.91681 0.2065 0.0
N180 N 0.76256 0.92864 0.24394 0.0
C181 C 0.86583 0.93619 0.28529 0.0
C182 C 0.78713 0.96531 0.22896 0.0
C183 C 0.83547 0.97124 0.24787 0.0
H184 H 0.67922 0.81865 0.24102 0.0
H185 H 0.84736 0.9975 0.23377 0.0
H186 H 0.63799 0.03017 0.06105 0.0
H187 H 0.53122 0.84285 0.97708 0.0
H188 H 0.77354 0.98827 0.20378 0.0
H189 H 0.89468 0.94017 0.27879 0.0
H190 H 0.58946 0.86048 0.03332 0.0
H191 H 0.71135 0.76081 0.25638 0.0
H192 H 0.89706 0.84092 0.29278 0.0
H193 H 0.85174 0.78117 0.25178 0.0
H194 H 0.59636 0.08194 0.03525 0.0
H195 H 0.77874 0.75345 0.25034 0.0
H196 H 0.48873 0.89177 0.93609 0.0
N197 N 0.59704 0.98898 0.04605 0.0
C198 C 0.56256 0.98179 0.02295 0.0
C199 C 0.58661 0.05403 0.03128 0.0
C200 C 0.53971 1.01062 0.99844 0.0
C201 C 0.6096 0.02456 0.04892 0.0
C202 C 0.55186 0.04711 1.00471 0.0
N203 N 0.57643 0.91799 0.03383 0.0
C204 C 0.56916 0.88157 0.02123 0.0
C205 C 0.51948 0.93636 0.98056 0.0
C206 C 0.55217 0.94507 1.0154 0.0
C207 C 0.5121 0.8992 0.96679 0.0
C208 C 0.53655 0.8716 0.98858 0.0
H209 H 0.53548 0.07018 0.98731 0.0
H210 H 0.48846 0.02344 0.94656 0.0
H211 H 0.4716 0.95882 0.92874 0.0
O212 O 0.63759 0.90868 0.96392 0.0
O213 O 0.60191 0.91228 0.13541 0.0
O214 O 0.64197 0.90654 0.22764 0.0
O215 O 0.63362 0.96883 0.96345 0.0
O216 O 0.66074 0.88293 0.05541 0.0
O217 O 0.67265 0.86931 0.1669 0.0
O218 O 0.72206 0.93523 0.30139 0.0
O219 O 0.72843 0.91711 0.09784 0.0
O220 O 0.69081 0.95686 0.04035 0.0
O221 O 0.66485 0.93523 0.28146 0.0
O222 O 0.69894 0.97476 0.16798 0.0
O223 O 0.63822 0.97609 0.14112 0.0
C224 C 0.60824 0.90475 0.20008 0.0
C225 C 0.59913 0.93581 0.88109 0.0
C226 C 0.58616 0.90555 0.77765 0.0
C227 C 0.56238 0.93447 0.75745 0.0
C228 C 0.57857 0.967 0.85956 0.0
C229 C 0.55746 0.96487 0.80034 0.0
C230 C 0.59561 0.90273 0.84557 0.0
C231 C 0.66341 0.85922 0.10542 0.0
C232 C 0.63024 0.93848 0.9286 0.0
C233 C 0.50669 1.00195 0.96518 0.0
C234 C 0.49681 0.96496 0.95563 0.0
C235 C 0.71936 0.9343 0.03875 0.0
C236 C 0.68631 0.90785 0.38365 0.0
C237 C 0.69422 0.88006 0.50717 0.0
C238 C 0.69766 0.84366 0.46489 0.0
C239 C 0.67934 0.87215 0.36122 0.0
C240 C 0.69529 0.91433 0.4525 0.0
C241 C 0.68862 0.84149 0.39806 0.0
C242 C 0.66734 0.99315 0.16507 0.0
C243 C 0.69001 0.93551 0.3288 0.0
H244 H 0.55294 0.93644 0.70558 0.0
H245 H 0.58063 0.99328 0.88529 0.0
H246 H 0.54145 0.98853 0.78344 0.0
H247 H 0.6121 0.87897 0.86142 0.0
H248 H 0.69549 0.86318 0.496 0.0
H249 H 0.67064 0.86745 0.31024 0.0
H250 H 0.70265 0.94249 0.46447 0.0
H251 H 0.68862 0.81452 0.37444 0.0
Tb252 Tb 0.90397 0.30597 0.84048 0.0
C253 C 0.8766 0.46653 0.92461 0.0
N254 N 0.90943 0.45041 0.91235 0.0
C255 C 0.92425 0.49828 0.83405 0.0
C256 C 0.86577 0.4988 0.89035 0.0
C257 C 0.93465 0.46754 0.87214 0.0
C258 C 0.88974 0.51447 0.84362 0.0
C259 C 0.8235 0.47087 0.99652 0.0
C260 C 0.85473 0.45146 0.97418 0.0
C261 C 0.8115 0.50204 0.95969 0.0
C262 C 0.83115 0.51376 0.90305 0.0
Tb263 Tb 0.91607 0.39258 0.9559 0.0
N264 N 0.86629 0.41989 1.00489 0.0
C265 C 0.8063 0.45886 0.05565 0.0
C266 C 0.85169 0.40946 0.06543 0.0
C267 C 0.82108 0.42857 0.09129 0.0
H268 H 0.96137 0.45519 0.86409 0.0
H269 H 0.80865 0.41968 0.13806 0.0
H270 H 0.81441 0.28906 0.8538 0.0
H271 H 0.02156 0.1951 0.76613 0.0
H272 H 0.86303 0.38578 0.09217 0.0
H273 H 0.7824 0.47335 0.07521 0.0
H274 H 0.99124 0.26971 0.78182 0.0
H275 H 0.94185 0.50755 0.79419 0.0
H276 H 0.78792 0.51805 0.97517 0.0
H277 H 0.82002 0.53489 0.87004 0.0
H278 H 0.77415 0.23873 0.88055 0.0
H279 H 0.8818 0.53869 0.81452 0.0
H280 H 0.97789 0.13278 0.81246 0.0
N281 N 0.86397 0.25988 0.87683 0.0
C282 C 0.87799 0.22547 0.8913 0.0
C283 C 0.80328 0.23535 0.88944 0.0
C284 C 0.8555 0.1952 0.91047 0.0
C285 C 0.8267 0.26432 0.87354 0.0
C286 C 0.81755 0.20154 0.91194 0.0
N287 N 0.93773 0.25152 0.84128 0.0
C288 C 0.9775 0.2463 0.80317 0.0
C289 C 0.92711 0.17134 0.86392 0.0
C290 C 0.9128 0.21832 0.87139 0.0
C291 C 0.96848 0.16105 0.81909 0.0
C292 C 0.99546 0.1996 0.78913 0.0
H293 H 0.7988 0.17918 0.92288 0.0
H294 H 0.85073 0.13677 0.93476 0.0
H295 H 0.91076 0.11672 0.89263 0.0
O296 O 0.92773 0.31085 0.74448 0.0
O297 O 0.8968 0.29414 0.95385 0.0
O298 O 0.9314 0.33917 1.00439 0.0
O299 O 0.88083 0.27596 0.75936 0.0
O300 O 0.96373 0.32092 0.86418 0.0
O301 O 0.96044 0.38351 0.88299 0.0
O302 O 0.94954 0.38125 0.04143 0.0
O303 O 0.92239 0.3986 0.84446 0.0
O304 O 0.88201 0.35984 0.79607 0.0
O305 O 0.94294 0.43656 1.00421 0.0
O306 O 0.85789 0.36978 0.95295 0.0
O307 O 0.85345 0.33984 0.85035 0.0
C308 C 0.91336 0.30787 1.00909 0.0
C309 C 0.88961 0.30034 0.6464 0.0
C310 C 0.90176 0.33441 0.47759 0.0
C311 C 0.86097 0.32994 0.4658 0.0
C312 C 0.8492 0.29608 0.63075 0.0
C313 C 0.83072 0.30556 0.56289 0.0
C314 C 0.91741 0.3144 0.59354 0.0
C315 C 0.98024 0.35377 0.8692 0.0
C316 C 0.90372 0.28938 0.71527 0.0
C317 C 0.86918 0.15806 0.91707 0.0
C318 C 0.90366 0.14588 0.89261 0.0
C319 C 0.89643 0.39333 0.79914 0.0
C320 C 0.9549 0.43106 0.12104 0.0
C321 C 0.94659 0.42433 0.24323 0.0
C322 C 0.95566 0.46178 0.25153 0.0
C323 C 0.96463 0.46818 0.13124 0.0
C324 C 0.94592 0.4091 0.17746 0.0
C325 C 0.96485 0.48337 0.19584 0.0
C326 C 0.83768 0.35708 0.90152 0.0
C327 C 0.95688 0.41599 0.05156 0.0
H328 H 0.85109 0.33839 0.4153 0.0
H329 H 0.83161 0.28537 0.67007 0.0
H330 H 0.8017 0.29822 0.57043 0.0
H331 H 0.94398 0.31339 0.61912 0.0
H332 H 0.95625 0.4742 0.30127 0.0
H333 H 0.97246 0.48543 0.08904 0.0
H334 H 0.93839 0.3804 0.17035 0.0
H335 H 0.97266 0.51189 0.20266 0.0
Tb336 Tb 0.37024 0.41103 0.23251 0.0
C337 C 0.23402 0.35481 0.04043 0.0
N338 N 0.26097 0.35679 0.08744 0.0
C339 C 0.24124 0.29683 0.13258 0.0
C340 C 0.20044 0.31905 0.04589 0.0
C341 C 0.26173 0.32984 0.13625 0.0
C342 C 0.21144 0.29108 0.08877 0.0
C343 C 0.15318 0.4049 0.96673 0.0
C344 C 0.22455 0.39727 1.00659 0.0
C345 C 0.12942 0.36199 0.98096 0.0
C346 C 0.15226 0.32185 1.01845 0.0
Tb347 Tb 0.2969 0.41224 0.08589 0.0
N348 N 0.2392 0.43293 0.0445 0.0
C349 C 0.13793 0.45063 0.99033 0.0
C350 C 0.21661 0.47208 0.0578 0.0
C351 C 0.16873 0.48247 0.03352 0.0
H352 H 0.27873 0.33299 0.18041 0.0
H353 H 0.15771 0.5091 0.04808 0.0
H354 H 0.34612 0.49193 0.30096 0.0
H355 H 0.50431 0.34999 0.17862 0.0
H356 H 0.2309 0.49356 0.08511 0.0
H357 H 0.10892 0.45715 0.98825 0.0
H358 H 0.43654 0.3511 0.17976 0.0
H359 H 0.24736 0.27586 0.16933 0.0
H360 H 0.0999 0.36134 0.97394 0.0
H361 H 0.13517 0.29824 0.02931 0.0
H362 H 0.37676 0.53981 0.36915 0.0
H363 H 0.19452 0.26683 0.09438 0.0
H364 H 0.53839 0.3998 0.23655 0.0
N365 N 0.39519 0.46053 0.28538 0.0
C366 C 0.43197 0.45801 0.29621 0.0
C367 C 0.39247 0.51665 0.3497 0.0
C368 C 0.45014 0.48361 0.33798 0.0
C369 C 0.37523 0.4895 0.31073 0.0
C370 C 0.43 0.51339 0.36422 0.0
N371 N 0.43295 0.40342 0.23045 0.0
C372 C 0.45149 0.37322 0.20418 0.0
C373 C 0.48971 0.42628 0.27546 0.0
C374 C 0.4515 0.42931 0.26617 0.0
C375 C 0.50892 0.39929 0.23917 0.0
C376 C 0.48977 0.37197 0.20461 0.0
H377 H 0.44328 0.53416 0.3949 0.0
H378 H 0.50182 0.49668 0.38726 0.0
H379 H 0.53602 0.44536 0.33426 0.0
O380 O 0.39066 0.36387 0.28225 0.0
O381 O 0.3997 0.40475 0.13931 0.0
O382 O 0.35752 0.4062 0.05191 0.0
O383 O 0.35806 0.40473 0.33481 0.0
O384 O 0.33879 0.36332 0.19618 0.0
O385 O 0.32553 0.35985 0.08649 0.0
O386 O 0.27928 0.44035 0.99619 0.0
O387 O 0.27312 0.40703 0.19571 0.0
O388 O 0.31678 0.43646 0.25839 0.0
O389 O 0.32808 0.40572 0.99986 0.0
O390 O 0.31191 0.4666 0.12987 0.0
O391 O 0.37145 0.46193 0.16941 0.0
C392 C 0.39228 0.40301 0.07524 0.0
C393 C 0.40853 0.37958 0.39307 0.0
C394 C 0.42336 0.40755 0.50073 0.0
C395 C 0.4611 0.40231 0.48793 0.0
C396 C 0.44594 0.37102 0.38329 0.0
C397 C 0.47221 0.38313 0.43008 0.0
C398 C 0.39767 0.39588 0.45283 0.0
C399 C 0.34265 0.34578 0.13843 0.0
C400 C 0.38016 0.3761 0.34063 0.0
C401 C 0.4876 0.47828 0.35294 0.0
C402 C 0.50719 0.44939 0.32207 0.0
C403 C 0.28473 0.41987 0.25657 0.0
C404 C 0.29639 0.40335 0.89858 0.0
C405 C 0.33201 0.39512 0.73256 0.0
C406 C 0.3273 0.35358 0.73668 0.0
C407 C 0.29157 0.36176 0.90042 0.0
C408 C 0.31025 0.42387 0.83684 0.0
C409 C 0.30121 0.33522 0.84225 0.0
C410 C 0.34553 0.48031 0.13546 0.0
C411 C 0.30457 0.42301 0.9618 0.0
H412 H 0.48175 0.41145 0.52369 0.0
H413 H 0.45503 0.35631 0.33889 0.0
H414 H 0.50116 0.37773 0.42138 0.0
H415 H 0.36837 0.39884 0.46198 0.0
H416 H 0.33676 0.33808 0.69202 0.0
H417 H 0.28418 0.34913 0.94769 0.0
H418 H 0.30794 0.45279 0.8496 0.0
H419 H 0.29366 0.30763 0.86099 0.0
Tb420 Tb 0.3968 0.70769 0.9719 0.0
C421 C 0.4001 0.54652 0.89523 0.0
N422 N 0.42912 0.56924 0.89254 0.0
C423 C 0.46569 0.52506 0.95449 0.0
C424 C 0.40111 0.51401 0.93385 0.0
C425 C 0.46233 0.55866 0.91957 0.0
C426 C 0.43454 0.50312 0.96319 0.0
C427 C 0.33962 0.53233 0.85556 0.0
C428 C 0.36999 0.55536 0.85602 0.0
C429 C 0.33651 0.50627 0.90779 0.0
C430 C 0.3682 0.49483 0.94344 0.0
Tb431 Tb 0.41609 0.62554 0.84558 0.0
N432 N 0.372 0.58493 0.81434 0.0
C433 C 0.31491 0.53545 0.80136 0.0
C434 C 0.34999 0.58713 0.75837 0.0
C435 C 0.32136 0.56161 0.75019 0.0
H436 H 0.48592 0.57639 0.91496 0.0
H437 H 0.3031 0.5635 0.70699 0.0
H438 H 0.30957 0.66071 1.0052 0.0
H439 H 0.43457 0.87305 0.96428 0.0
H440 H 0.3537 0.60919 0.72208 0.0
H441 H 0.29111 0.51777 0.79839 0.0
H442 H 0.4468 0.79684 0.94589 0.0
H443 H 0.49188 0.51674 0.9763 0.0
H444 H 0.31014 0.49475 0.92 0.0
H445 H 0.36691 0.47206 0.97885 0.0
H446 H 0.2472 0.67797 0.02766 0.0
H447 H 0.43642 0.47797 0.9921 0.0
H448 H 0.37345 0.90525 0.0294 0.0
N449 N 0.33244 0.71529 1.00419 0.0
C450 C 0.32355 0.74917 0.02555 0.0
C451 C 0.267 0.70006 0.02343 0.0
C452 C 0.27752 0.76615 0.02329 0.0
C453 C 0.30453 0.68992 1.01135 0.0
C454 C 0.2533 0.7369 0.02403 0.0
N455 N 0.39634 0.77118 1.00167 0.0
C456 C 0.42312 0.80466 0.9757 0.0
C457 C 0.34179 0.84757 0.06733 0.0
C458 C 0.35997 0.7755 0.04446 0.0
C459 C 0.37709 0.87551 0.03141 0.0
C460 C 0.41561 0.85448 0.98774 0.0
H461 H 0.22408 0.74214 0.02923 0.0
H462 H 0.2331 0.82011 0.0337 0.0
H463 H 0.28055 0.88103 0.05909 0.0
O464 O 0.41613 0.73038 0.06369 0.0
O465 O 0.41292 0.72739 0.86069 0.0
O466 O 0.40247 0.67745 0.78727 0.0
O467 O 0.41831 0.67195 0.0491 0.0
O468 O 0.45526 0.70191 0.93539 0.0
O469 O 0.45588 0.63958 0.9244 0.0
O470 O 0.45612 0.64212 0.77383 0.0
O471 O 0.41704 0.61689 0.95455 0.0
O472 O 0.37141 0.6521 0.99355 0.0
O473 O 0.44081 0.58518 0.78677 0.0
O474 O 0.3564 0.64229 0.85142 0.0
O475 O 0.3512 0.70168 0.89964 0.0
C476 C 0.40848 0.71355 0.79597 0.0
C477 C 0.39979 0.69382 0.15948 0.0
C478 C 0.37501 0.6907 0.28793 0.0
C479 C 0.36565 0.68642 0.35548 0.0
C480 C 0.36966 0.71373 0.17814 0.0
C481 C 0.3616 0.70715 0.25821 0.0
C482 C 0.40854 0.67427 0.21751 0.0
C483 C 0.47392 0.6701 0.93535 0.0
C484 C 0.42 0.69833 0.09353 0.0
C485 C 0.26234 0.81442 0.03677 0.0
C486 C 0.29226 0.85339 0.05812 0.0
C487 C 0.38623 0.61879 0.98796 0.0
C488 C 0.45921 0.59944 0.68051 0.0
C489 C 0.42986 0.60575 0.57092 0.0
C490 C 0.44542 0.57186 0.55087 0.0
C491 C 0.47544 0.56596 0.65912 0.0
C492 C 0.43645 0.61937 0.63617 0.0
C493 C 0.4682 0.55211 0.59485 0.0
C494 C 0.33692 0.67236 0.86906 0.0
C495 C 0.46044 0.60804 0.75256 0.0
H496 H 0.33779 0.70299 0.41041 0.0
H497 H 0.35498 0.7298 0.14011 0.0
H498 H 0.34139 0.7302 0.23406 0.0
H499 H 0.42988 0.65325 0.21692 0.0
H500 H 0.44032 0.56103 0.50088 0.0
H501 H 0.49226 0.54954 0.69323 0.0
H502 H 0.42304 0.64469 0.65282 0.0
H503 H 0.47979 0.52581 0.57938 0.0
Tb504 Tb 0.64564 0.62713 0.21355 0.0
C505 C 0.77228 0.69241 0.02933 0.0
N506 N 0.74518 0.68658 0.07444 0.0
C507 C 0.75229 0.7515 0.10723 0.0
C508 C 0.80026 0.73294 0.03434 0.0
C509 C 0.74103 0.71464 0.1209 0.0
C510 C 0.78323 0.76043 0.06974 0.0
C511 C 0.85995 0.65403 0.96044 0.0
C512 C 0.78788 0.65216 0.99871 0.0
C513 C 0.87757 0.70069 0.97325 0.0
C514 C 0.84849 0.73719 1.0087 0.0
Tb515 Tb 0.71632 0.6251 0.07255 0.0
N516 N 0.77791 0.61519 0.03741 0.0
C517 C 0.88092 0.60986 0.98649 0.0
C518 C 0.80546 0.57971 0.05332 0.0
C519 C 0.85421 0.57519 0.03068 0.0
H520 H 0.72419 0.71036 0.16484 0.0
H521 H 0.86846 0.55015 0.0463 0.0
H522 H 0.65678 0.54285 0.2798 0.0
H523 H 0.52918 0.71812 0.19842 0.0
H524 H 0.79394 0.55675 0.08093 0.0
H525 H 0.91035 0.6059 0.98192 0.0
H526 H 0.59453 0.70377 0.21668 0.0
H527 H 0.73719 0.77424 0.12809 0.0
H528 H 0.87398 0.67223 0.9627 0.0
H529 H 0.86121 0.76382 1.01642 0.0
H530 H 0.61677 0.48981 0.29991 0.0
H531 H 0.79466 0.78785 0.0721 0.0
H532 H 0.4846 0.66793 0.20094 0.0
N533 N 0.61254 0.58064 0.26074 0.0
C534 C 0.57558 0.58503 0.25618 0.0
C535 C 0.60489 0.51673 0.28896 0.0
C536 C 0.55164 0.55531 0.26509 0.0
C537 C 0.6275 0.54721 0.27886 0.0
C538 C 0.56704 0.52068 0.27934 0.0
N539 N 0.58675 0.64646 0.23068 0.0
C540 C 0.57521 0.68203 0.22053 0.0
C541 C 0.52426 0.62583 0.23107 0.0
C542 C 0.56213 0.61936 0.23978 0.0
C543 C 0.51272 0.66156 0.21259 0.0
C544 C 0.53808 0.69013 0.2101 0.0
H545 H 0.5503 0.49673 0.27991 0.0
H546 H 0.49451 0.53843 0.26293 0.0
H547 H 0.47041 0.60062 0.23421 0.0
O548 O 0.68404 0.66615 0.24766 0.0
O549 O 0.61315 0.63671 0.12422 0.0
O550 O 0.65593 0.63539 0.03679 0.0
O551 O 0.64386 0.63991 0.31584 0.0
O552 O 0.64935 0.68195 0.16266 0.0
O553 O 0.68713 0.67934 0.06842 0.0
O554 O 0.74029 0.60416 0.98244 0.0
O555 O 0.74055 0.61999 0.18331 0.0
O556 O 0.69395 0.59251 0.23972 0.0
O557 O 0.68341 0.59972 0.99703 0.0
O558 O 0.70483 0.56977 0.11628 0.0
O559 O 0.64509 0.57594 0.14902 0.0
C560 C 0.62098 0.63799 0.05998 0.0
C561 C 0.67118 0.6956 0.35357 0.0
C562 C 0.68306 0.711 0.47097 0.0
C563 C 0.65839 0.74121 0.46515 0.0
C564 C 0.64618 0.72516 0.34806 0.0
C565 C 0.64115 0.74902 0.40308 0.0
C566 C 0.69199 0.69133 0.41193 0.0
C567 C 0.66429 0.69757 0.10893 0.0
C568 C 0.67124 0.66321 0.30935 0.0
C569 C 0.51351 0.56105 0.25695 0.0
C570 C 0.49978 0.5964 0.24009 0.0
C571 C 0.72794 0.60477 0.24158 0.0
C572 C 0.70205 0.62235 0.89132 0.0
C573 C 0.67961 0.63506 0.76595 0.0
C574 C 0.65913 0.66731 0.80269 0.0
C575 C 0.6937 0.65915 0.90531 0.0
C576 C 0.69915 0.60914 0.82394 0.0
C577 C 0.66982 0.67925 0.8655 0.0
C578 C 0.67129 0.55575 0.12047 0.0
C579 C 0.70943 0.59905 0.95212 0.0
H580 H 0.65024 0.75688 0.50918 0.0
H581 H 0.62957 0.72882 0.30325 0.0
H582 H 0.6215 0.77167 0.39937 0.0
H583 H 0.71048 0.66763 0.41351 0.0
H584 H 0.66977 0.64943 0.77414 0.0
H585 H 0.70121 0.67074 0.95325 0.0
H586 H 0.70961 0.58135 0.81575 0.0
H587 H 0.65837 0.70491 0.88413 0.0
Tb588 Tb 0.60499 0.32042 0.96757 0.0
C589 C 0.5517 0.47219 0.82576 0.0
N590 N 0.54519 0.43526 0.82236 0.0
C591 C 0.48155 0.44753 0.79702 0.0
C592 C 0.52303 0.49831 0.81671 0.0
C593 C 0.51073 0.42262 0.8071 0.0
C594 C 0.48756 0.48551 0.80273 0.0
C595 C 0.59586 0.52199 0.83358 0.0
C596 C 0.58774 0.4839 0.83223 0.0
C597 C 0.56722 0.54812 0.828 0.0
C598 C 0.53106 0.53626 0.81829 0.0
Tb599 Tb 0.59618 0.39791 0.82955 0.0
N600 N 0.61502 0.458 0.83301 0.0
C601 C 0.63264 0.53269 0.83741 0.0
C602 C 0.65111 0.46839 0.83036 0.0
C603 C 0.66041 0.5058 0.83458 0.0
H604 H 0.50615 0.39324 0.80118 0.0
H605 H 0.68896 0.51397 0.83412 0.0
H606 H 0.70649 0.32241 0.99433 0.0
H607 H 0.50332 0.18422 0.9879 0.0
H608 H 0.67263 0.44758 0.82716 0.0
H609 H 0.63979 0.56167 0.83956 0.0
H610 H 0.5224 0.2577 0.95993 0.0
H611 H 0.45474 0.43749 0.78296 0.0
H612 H 0.57292 0.57753 0.8283 0.0
H613 H 0.50971 0.55675 0.8102 0.0
H614 H 0.75765 0.28199 0.98141 0.0
H615 H 0.46489 0.50471 0.7942 0.0
H616 H 0.55165 0.12978 0.04341 0.0
N617 N 0.66329 0.28446 0.9792 0.0
C618 C 0.65948 0.25013 1.00243 0.0
C619 C 0.7304 0.27012 0.98 0.0
C620 C 0.69421 0.21546 0.99281 0.0
C621 C 0.69968 0.29489 0.98106 0.0
C622 C 0.72773 0.2313 0.9816 0.0
N623 N 0.58332 0.26037 0.99913 0.0
C624 C 0.54335 0.24082 0.98425 0.0
C625 C 0.60734 0.16917 0.06466 0.0
C626 C 0.61781 0.24168 0.03385 0.0
C627 C 0.56067 0.15813 0.0418 0.0
C628 C 0.53056 0.19289 1.00293 0.0
H629 H 0.75214 0.21413 0.98362 0.0
H630 H 0.71398 0.14853 1.00348 0.0
H631 H 0.64961 0.11355 0.05086 0.0
O632 O 0.58056 0.29946 0.05671 0.0
O633 O 0.60791 0.29867 0.85423 0.0
O634 O 0.57478 0.34297 0.79976 0.0
O635 O 0.58973 0.35644 0.04805 0.0
O636 O 0.54936 0.33356 0.92423 0.0
O637 O 0.5539 0.39556 0.90986 0.0
O638 O 0.62971 0.40875 0.74605 0.0
O639 O 0.61793 0.42452 0.92013 0.0
O640 O 0.62193 0.37889 1.00392 0.0
O641 O 0.57108 0.3979 0.73487 0.0
O642 O 0.65127 0.36987 0.83801 0.0
O643 O 0.65681 0.35049 0.9482 0.0
C644 C 0.59403 0.31196 0.79463 0.0
C645 C 0.60795 0.32756 0.15002 0.0
C646 C 0.64225 0.34407 0.31793 0.0
C647 C 0.68084 0.33601 0.29128 0.0
C648 C 0.64623 0.32015 0.12925 0.0
C649 C 0.67934 0.32113 0.17393 0.0
C650 C 0.59724 0.33693 0.22361 0.0
C651 C 0.53443 0.36708 0.92987 0.0
C652 C 0.58301 0.3298 0.09038 0.0
C653 C 0.68994 0.1658 1.01154 0.0
C654 C 0.64926 0.14333 0.04612 0.0
C655 C 0.62432 0.41456 0.98299 0.0
C656 C 0.59823 0.43709 0.65471 0.0
C657 C 0.6117 0.4414 0.53741 0.0
C658 C 0.5801 0.46325 0.52633 0.0
C659 C 0.56624 0.45882 0.64529 0.0
C660 C 0.62304 0.433 0.60255 0.0
C661 C 0.55823 0.4734 0.5813 0.0
C662 C 0.67189 0.36315 0.89209 0.0
C663 C 0.60122 0.40834 0.70582 0.0
H664 H 0.70336 0.33821 0.32845 0.0
H665 H 0.65136 0.31718 0.07687 0.0
H666 H 0.70175 0.31417 0.13867 0.0
H667 H 0.56729 0.3411 0.22202 0.0
H668 H 0.57077 0.46955 0.47548 0.0
H669 H 0.54623 0.462 0.68506 0.0
H670 H 0.64704 0.41513 0.60966 0.0
H671 H 0.5331 0.48901 0.57303 0.0
Tb672 Tb 0.89367 0.60974 0.58548 0.0
C673 C 0.72601 0.64888 0.69095 0.0
N674 N 0.76001 0.66192 0.69939 0.0
C675 C 0.7336 0.72423 0.71471 0.0
C676 C 0.68825 0.6789 0.68301 0.0
C677 C 0.763 0.698 0.71883 0.0
C678 C 0.69739 0.71562 0.69501 0.0
C679 C 0.67876 0.58042 0.70286 0.0
C680 C 0.72157 0.60202 0.6978 0.0
C681 C 0.63711 0.60742 0.70079 0.0
C682 C 0.63967 0.66009 0.67881 0.0
Tb683 Tb 0.80668 0.61649 0.69722 0.0
N684 N 0.75247 0.58202 0.68903 0.0
C685 C 0.68077 0.54252 0.69417 0.0
C686 C 0.74918 0.54492 0.67714 0.0
C687 C 0.71517 0.52568 0.68078 0.0
H688 H 0.7892 0.70754 0.73708 0.0
H689 H 0.71557 0.49621 0.67081 0.0
H690 H 0.87648 0.5424 0.47729 0.0
H691 H 0.01677 0.65316 0.71229 0.0
H692 H 0.77295 0.52935 0.66144 0.0
H693 H 0.65588 0.52633 0.69247 0.0
H694 H 0.95358 0.66108 0.66822 0.0
H695 H 0.7393 0.7526 0.72866 0.0
H696 H 0.61134 0.59267 0.70578 0.0
H697 H 0.60695 0.67132 0.56545 0.0
H698 H 0.91043 0.48846 0.43046 0.0
H699 H 0.67634 0.73697 0.69586 0.0
H700 H 0.05416 0.59944 0.67767 0.0
N701 N 0.91999 0.55743 0.54367 0.0
C702 C 0.95554 0.55162 0.56283 0.0
C703 C 0.92334 0.5059 0.46782 0.0
C704 C 0.97653 0.52274 0.53459 0.0
C705 C 0.90413 0.53617 0.49464 0.0
C706 C 0.95963 0.49895 0.48829 0.0
N707 N 0.95254 0.60772 0.62328 0.0
C708 C 0.96875 0.63586 0.65804 0.0
C709 C 0.00956 0.57383 0.62254 0.0
C710 C 0.97209 0.57718 0.60539 0.0
C711 C 0.02549 0.60099 0.66318 0.0
C712 C 1.0048 0.63192 0.68141 0.0
H713 H 0.97463 0.47588 0.46654 0.0
H714 H 0.03112 0.49921 0.52766 0.0
H715 H 0.05982 0.54327 0.60471 0.0
O716 O 0.93748 0.63359 0.53289 0.0
O717 O 0.90028 0.60539 0.69593 0.0
O718 O 0.85818 0.64399 0.74206 0.0
O719 O 0.8828 0.63295 0.4902 0.0
O720 O 0.88332 0.66643 0.62425 0.0
O721 O 0.821 0.66939 0.64537 0.0
O722 O 0.82763 0.59448 0.78899 0.0
O723 O 0.7913 0.60179 0.58632 0.0
O724 O 0.84368 0.60682 0.52107 0.0
O725 O 0.77585 0.62369 0.78507 0.0
O726 O 0.82996 0.55884 0.69329 0.0
O727 O 0.87808 0.55246 0.61736 0.0
C728 C 0.89255 0.63047 0.74155 0.0
C729 C 0.93204 0.61897 0.41765 0.0
C730 C 0.92169 0.60048 0.30177 0.0
C731 C 0.95523 0.58095 0.302 0.0
C732 C 0.96576 0.59937 0.41771 0.0
C733 C 0.97694 0.57996 0.36033 0.0
C734 C 0.91027 0.61928 0.35944 0.0
C735 C 0.8527 0.68588 0.63254 0.0
C736 C 0.91787 0.63732 0.47845 0.0
C737 C 0.01414 0.52012 0.55016 0.0
C738 C 0.03056 0.54528 0.59439 0.0
C739 C 0.80764 0.60363 0.52497 0.0
C740 C 0.80957 0.62906 0.8856 0.0
C741 C 0.83697 0.63644 0.0583 0.0
C742 C 0.8344 0.67839 0.05139 0.0
C743 C 0.80761 0.67035 0.88197 0.0
C744 C 0.82009 0.60784 0.95014 0.0
C745 C 0.81554 0.69634 0.94017 0.0
C746 C 0.85589 0.5384 0.66385 0.0
C747 C 0.80032 0.60819 0.82394 0.0
H748 H 0.96499 0.56754 0.25668 0.0
H749 H 0.98348 0.59892 0.46179 0.0
H750 H 1.00279 0.5648 0.36068 0.0
H751 H 0.88479 0.63514 0.3582 0.0
H752 H 0.84141 0.69418 0.09718 0.0
H753 H 0.80008 0.68297 0.83482 0.0
H754 H 0.818 0.57914 0.93675 0.0
H755 H 0.81041 0.72399 0.91831 0.0
Tb756 Tb 0.616 0.22579 0.32917 0.0
C757 C 0.5667 0.07672 0.49836 0.0
N758 N 0.56179 0.11399 0.50334 0.0
C759 C 0.50268 0.10535 0.55364 0.0
C760 C 0.53949 0.0522 0.52121 0.0
C761 C 0.53088 0.12862 0.53217 0.0
C762 C 0.50693 0.06698 0.54794 0.0
C763 C 0.60673 0.02451 0.47178 0.0
C764 C 0.60022 0.06301 0.47488 0.0
C765 C 0.57968 1.00007 0.49454 0.0
C766 C 0.54627 0.01386 0.51956 0.0
Tb767 Tb 0.61136 0.14831 0.47581 0.0
N768 N 0.62717 0.08733 0.45904 0.0
C769 C 0.64053 1.01168 0.44692 0.0
C770 C 0.66155 0.07467 0.44086 0.0
C771 C 0.66823 0.03685 0.43221 0.0
H772 H 0.52812 0.15826 0.53834 0.0
H773 H 0.69489 0.02709 0.41531 0.0
H774 H 0.7033 0.18759 0.26368 0.0
H775 H 0.56406 0.38769 0.34875 0.0
H776 H 0.68339 0.09413 0.43169 0.0
H777 H 0.64581 0.98233 0.44078 0.0
H778 H 0.56248 0.31159 0.37148 0.0
H779 H 0.47797 0.11697 0.57558 0.0
H780 H 0.58454 0.97041 0.49378 0.0
H781 H 0.52591 0.99462 0.53792 0.0
H782 H 0.76164 0.20965 0.22493 0.0
H783 H 0.48533 0.04902 0.56583 0.0
H784 H 0.61471 0.42478 0.26324 0.0
N785 N 0.67791 0.24009 0.2835 0.0
C786 C 0.68103 0.274 0.25758 0.0
C787 C 0.74113 0.23015 0.23892 0.0
C788 C 0.72447 0.29484 0.24399 0.0
C789 C 0.7068 0.2172 0.26358 0.0
C790 C 0.75035 0.26788 0.23206 0.0
N791 N 0.60989 0.28977 0.30226 0.0
C792 C 0.58241 0.32109 0.33513 0.0
C793 C 0.64894 0.36954 0.21771 0.0
C794 C 0.64097 0.29659 0.24873 0.0
C795 C 0.61438 0.39486 0.26344 0.0
C796 C 0.58298 0.371 0.31967 0.0
H797 H 0.77689 0.27585 0.21282 0.0
H798 H 0.76131 0.35189 0.21627 0.0
H799 H 0.70607 0.40802 0.2038 0.0
O800 O 0.58614 0.2523 0.25022 0.0
O801 O 0.61429 0.24874 0.44262 0.0
O802 O 0.58762 0.20248 0.50633 0.0
O803 O 0.58711 0.19365 0.25694 0.0
O804 O 0.56289 0.21189 0.38024 0.0
O805 O 0.56128 0.1508 0.41057 0.0
O806 O 0.64588 0.12009 0.54551 0.0
O807 O 0.62639 0.12685 0.37621 0.0
O808 O 0.63203 0.16922 0.28851 0.0
O809 O 0.60636 0.1615 0.577 0.0
O810 O 0.66163 0.18096 0.46987 0.0
O811 O 0.66773 0.19819 0.36042 0.0
C812 C 0.60273 0.23568 0.50447 0.0
C813 C 0.59426 0.22 0.14799 0.0
C814 C 0.5925 0.19864 0.97074 0.0
C815 C 0.63432 0.19273 0.9748 0.0
C816 C 0.63452 0.21397 0.14673 0.0
C817 C 0.65699 0.20348 0.08642 0.0
C818 C 0.56988 0.2173 0.08403 0.0
C819 C 0.54574 0.17931 0.37913 0.0
C820 C 0.57942 0.22197 0.21797 0.0
C821 C 0.73303 0.34385 0.22383 0.0
C822 C 0.69763 0.37962 0.21053 0.0
C823 C 0.63283 0.13461 0.31252 0.0
C824 C 0.61194 0.10991 0.64534 0.0
C825 C 0.57097 0.10721 0.74067 0.0
C826 C 0.56952 0.06843 0.7344 0.0
C827 C 0.61185 0.07111 0.64035 0.0
C828 C 0.59243 0.12722 0.69621 0.0
C829 C 0.59008 0.05045 0.68437 0.0
C830 C 0.68202 0.18531 0.4168 0.0
C831 C 0.62831 0.13461 0.5959 0.0
H832 H 0.6478 0.18429 0.9275 0.0
H833 H 0.64834 0.21315 0.19347 0.0
H834 H 0.68515 0.20162 0.10731 0.0
H835 H 0.54181 0.22328 0.10165 0.0
H836 H 0.55439 0.05214 0.77046 0.0
H837 H 0.62804 0.05691 0.60259 0.0
H838 H 0.59546 0.15691 0.70255 0.0
H839 H 0.58971 0.02054 0.68056 0.0
Tb840 Tb 0.12622 0.40612 0.58951 0.0
C841 C 0.26379 0.34318 0.74468 0.0
N842 N 0.2422 0.35387 0.69283 0.0
C843 C 0.25895 0.29683 0.63413 0.0
C844 C 0.2901 0.30128 0.74162 0.0
C845 C 0.24413 0.33316 0.63524 0.0
C846 C 0.27993 0.28031 0.68632 0.0
C847 C 0.34826 0.37492 0.83395 0.0
C848 C 0.27912 0.38185 0.78093 0.0
C849 C 0.36441 0.32727 0.82234 0.0
C850 C 0.33603 0.29332 0.77832 0.0
Tb851 Tb 0.21104 0.41257 0.70735 0.0
N852 N 0.273 0.41953 0.74165 0.0
C853 C 0.37253 0.41804 0.81475 0.0
C854 C 0.30276 0.4535 0.73219 0.0
C855 C 0.35022 0.45487 0.76578 0.0
H856 H 0.23066 0.34308 0.59 0.0
H857 H 0.36655 0.47888 0.75392 0.0
H858 H 0.07458 0.48087 0.61935 0.0
H859 H 0.08029 0.26583 0.54694 0.0
H860 H 0.2937 0.4773 0.70314 0.0
H861 H 0.40122 0.42026 0.82802 0.0
H862 H 0.1163 0.32202 0.51755 0.0
H863 H 0.25474 0.28163 0.58867 0.0
H864 H 0.36152 0.35579 0.83381 0.0
H865 H 0.34861 0.26654 0.76934 0.0
H866 H 0.02064 0.4941 0.69202 0.0
H867 H 0.29316 0.25379 0.67741 0.0
H868 H 0.02753 0.27074 0.62378 0.0
N869 N 0.06834 0.42263 0.62468 0.0
C870 C 0.04613 0.39464 0.64248 0.0
C871 C 0.02695 0.46609 0.67637 0.0
C872 C 0.01354 0.40089 0.67883 0.0
C873 C 0.0578 0.45839 0.6366 0.0
C874 C 1.00511 0.43715 0.69854 0.0
N875 N 0.08776 0.35594 0.58772 0.0
C876 C 0.0941 0.32374 0.55351 0.0
C877 C 0.03456 0.32933 0.63965 0.0
C878 C 0.05666 0.3597 0.62415 0.0
C879 C 0.04387 0.29489 0.61285 0.0
C880 C 0.07331 0.29225 0.56826 0.0
H881 H 0.98311 0.44313 0.73335 0.0
H882 H 0.96758 0.37433 0.72761 0.0
H883 H 0.98815 0.31097 0.69602 0.0
O884 O 0.09662 0.40416 0.49969 0.0
O885 O 0.11631 0.41913 0.69516 0.0
O886 O 0.15912 0.38713 0.75399 0.0
O887 O 0.13898 0.44594 0.51525 0.0
O888 O 0.15463 0.35204 0.60852 0.0
O889 O 0.18598 0.35618 0.71025 0.0
O890 O 0.23693 0.43779 0.7911 0.0
O891 O 0.22254 0.42741 0.59566 0.0
O892 O 0.18063 0.38911 0.54669 0.0
O893 O 0.17896 0.43755 0.78446 0.0
O894 O 0.19563 0.46641 0.65739 0.0
O895 O 0.1339 0.45871 0.64772 0.0
C896 C 0.12365 0.39533 0.74294 0.0
C897 C 0.09694 0.45399 0.42303 0.0
C898 C 0.09951 0.47176 0.30549 0.0
C899 C 0.06203 0.48214 0.30804 0.0
C900 C 0.05899 0.46091 0.42347 0.0
C901 C 0.04203 0.47715 0.36727 0.0
C902 C 0.11717 0.46057 0.36499 0.0
C903 C 0.16802 0.33636 0.66417 0.0
C904 C 0.1151 0.43134 0.47385 0.0
C905 C 0.99226 0.37048 0.69808 0.0
C906 C 1.0036 0.33461 0.68007 0.0
C907 C 0.20981 0.41049 0.53947 0.0
C908 C 0.20525 0.42232 0.89115 0.0
C909 C 0.17811 0.42013 0.06474 0.0
C910 C 0.17478 0.37836 0.05932 0.0
C911 C 0.20258 0.38082 0.88984 0.0
C912 C 0.19879 0.44526 0.9553 0.0
C913 C 0.19118 0.35663 0.94944 0.0
C914 C 0.16193 0.48084 0.6598 0.0
C915 C 0.20699 0.44164 0.82464 0.0
H916 H 0.04747 0.49152 0.26333 0.0
H917 H 0.04243 0.45178 0.46535 0.0
H918 H 0.01285 0.48321 0.36772 0.0
H919 H 0.14576 0.45159 0.36394 0.0
H920 H 0.16545 0.36432 0.10549 0.0
H921 H 0.20798 0.36686 0.84263 0.0
H922 H 0.20359 0.47406 0.93952 0.0
H923 H 0.19259 0.32831 0.92914 0.0
Tb924 Tb 0.39847 0.81455 0.33986 0.0
C925 C 0.44022 0.96895 0.41339 0.0
N926 N 0.45847 0.93723 0.42965 0.0
C927 C 0.51561 0.96416 0.39727 0.0
C928 C 0.4591 0.99886 0.38515 0.0
C929 C 0.496 0.9356 0.42717 0.0
C930 C 0.49693 0.9961 0.37653 0.0
C931 C 0.38227 1.00154 0.39849 0.0
C932 C 0.40213 0.97041 0.42116 0.0
C933 C 0.40135 0.03067 0.3678 0.0
C934 C 0.43953 0.02969 0.36238 0.0
Tb935 Tb 0.42259 0.89117 0.46903 0.0
N936 N 0.38462 0.94092 0.44903 0.0
C937 C 0.344 1.00202 0.40659 0.0
C938 C 0.34829 0.94397 0.46609 0.0
C939 C 0.32718 0.97388 0.4429 0.0
H940 H 0.51111 0.91244 0.44814 0.0
H941 H 0.29802 0.97538 0.45356 0.0
H942 H 0.29963 0.81816 0.31528 0.0
H943 H 0.51385 0.71355 0.36116 0.0
H944 H 0.33523 0.92394 0.4981 0.0
H945 H 0.32719 0.02444 0.38771 0.0
H946 H 0.4867 0.77426 0.36197 0.0
H947 H 0.54506 0.96163 0.39134 0.0
H948 H 0.38727 0.05411 0.34736 0.0
H949 H 0.45372 0.05179 0.33701 0.0
H950 H 0.25138 0.77616 0.29845 0.0
H951 H 0.51144 0.01895 0.35458 0.0
H952 H 0.4834 0.65441 0.34401 0.0
N953 N 0.34299 0.78126 0.34185 0.0
C954 C 0.3517 0.74616 0.3476 0.0
C955 C 0.27744 0.76333 0.31163 0.0
C956 C 0.31009 0.70483 0.32115 0.0
C957 C 0.30691 0.78953 0.32464 0.0
C958 C 0.27794 0.72356 0.30785 0.0
N959 N 0.43085 0.75937 0.35814 0.0
C960 C 0.46784 0.75137 0.35883 0.0
C961 C 0.4291 0.67789 0.33536 0.0
C962 C 0.40758 0.73176 0.35149 0.0
C963 C 0.46702 0.67952 0.34548 0.0
C964 C 0.48416 0.71459 0.35645 0.0
H965 H 0.25433 0.70857 0.29023 0.0
H966 H 0.30942 0.62868 0.27941 0.0
H967 H 0.41509 0.64211 0.32056 0.0
O968 O 0.41593 0.8331 0.24266 0.0
O969 O 0.40592 0.79152 0.45276 0.0
O970 O 0.41525 0.83972 0.52945 0.0
O971 O 0.39239 0.7807 0.25454 0.0
O972 O 0.45354 0.8373 0.32873 0.0
O973 O 0.47226 0.86133 0.42936 0.0
O974 O 0.41556 0.93016 0.54578 0.0
O975 O 0.42425 0.90391 0.3581 0.0
O976 O 0.37747 0.87164 0.31205 0.0
O977 O 0.46213 0.89304 0.54771 0.0
O978 O 0.36506 0.86768 0.4756 0.0
O979 O 0.35161 0.84861 0.36709 0.0
C980 C 0.41071 0.80384 0.51812 0.0
C981 C 0.38055 0.80935 0.14954 0.0
C982 C 0.36033 0.82184 0.97251 0.0
C983 C 0.32073 0.81058 0.98736 0.0
C984 C 0.34124 0.79988 0.15912 0.0
C985 C 0.3127 0.79729 0.1044 0.0
C986 C 0.39649 0.81975 0.07978 0.0
C987 C 0.47903 0.85287 0.36554 0.0
C988 C 0.40426 0.80415 0.21093 0.0
C989 C 0.32916 0.64855 0.29786 0.0
C990 C 0.38827 0.63155 0.30647 0.0
C991 C 0.3965 0.90271 0.31503 0.0
C992 C 0.4442 0.92212 0.64987 0.0
C993 C 0.41459 0.90521 0.75436 0.0
C994 C 0.43388 0.93337 0.7879 0.0
C995 C 0.46356 0.95001 0.68372 0.0
C996 C 0.42008 0.89934 0.68531 0.0
C997 C 0.45841 0.95556 0.75268 0.0
C998 C 0.34102 0.86054 0.42611 0.0
C999 C 0.44586 0.92107 0.57655 0.0
H1000 H 0.30198 0.81014 0.94353 0.0
H1001 H 0.33205 0.79343 0.20875 0.0
H1002 H 0.28816 0.78843 0.13245 0.0
H1003 H 0.42571 0.82574 0.08967 0.0
H1004 H 0.43021 0.93783 0.84151 0.0
H1005 H 0.48187 0.96815 0.65641 0.0
H1006 H 0.40491 0.87796 0.65903 0.0
H1007 H 0.47302 0.97733 0.77868 0.0
Tb1008 Tb 0.88015 0.92994 0.72652 0.0
C1009 C 0.73524 0.8688 0.5957 0.0
N1010 N 0.77075 0.8604 0.58511 0.0
C1011 C 0.75391 0.79522 0.56509 0.0
C1012 C 0.70193 0.83364 0.59045 0.0
C1013 C 0.77898 0.82532 0.56256 0.0
C1014 C 0.71657 0.79853 0.58246 0.0
C1015 C 0.67711 0.93004 0.57414 0.0
C1016 C 0.72331 0.91548 0.5886 0.0
C1017 C 0.64144 0.89562 0.56532 0.0
C1018 C 0.65345 0.84671 0.57265 0.0
Tb1019 Tb 0.80755 0.91339 0.58532 0.0
N1020 N 0.75021 0.94052 0.59408 0.0
C1021 C 0.67288 0.96823 0.57555 0.0
C1022 C 0.74154 0.9773 0.58829 0.0
C1023 C 0.70451 0.99081 0.5816 0.0
H1024 H 0.80597 0.81924 0.54259 0.0
H1025 H 0.7003 0.02052 0.58036 0.0
H1026 H 0.8959 0.02221 0.73514 0.0
H1027 H 0.97397 0.81489 0.7559 0.0
H1028 H 0.76361 0.99718 0.58895 0.0
H1029 H 0.64572 0.98049 0.57284 0.0
H1030 H 0.91393 0.84696 0.76336 0.0
H1031 H 0.76373 0.76822 0.54935 0.0
H1032 H 0.61323 0.90408 0.55615 0.0
H1033 H 0.63285 0.82569 0.56478 0.0
H1034 H 0.94953 0.06221 0.74065 0.0
H1035 H 0.6988 0.77482 0.57916 0.0
H1036 H 0.02805 0.84916 0.71392 0.0
N1037 N 0.92688 0.97228 0.71849 0.0
C1038 C 0.96127 0.95717 0.71559 0.0
C1039 C 0.95319 0.03278 0.73231 0.0
C1040 C 0.99288 0.97935 0.71976 0.0
C1041 C 0.9226 1.0098 0.72704 0.0
C1042 C 0.98844 0.0174 0.72995 0.0
N1043 N 0.93437 0.8984 0.72678 0.0
C1044 C 0.93758 0.86227 0.74692 0.0
C1045 C 0.99996 0.90211 0.71477 0.0
C1046 C 0.96497 0.91898 0.71759 0.0
C1047 C 1.00242 0.86365 0.72242 0.0
C1048 C 0.97172 0.84411 0.74421 0.0
H1049 H 0.01206 0.03506 0.7371 0.0
H1050 H 0.05254 0.97891 0.72231 0.0
H1051 H 0.05852 0.91193 0.70604 0.0
O1052 O 0.87273 0.90184 0.81779 0.0
O1053 O 0.90641 0.9194 0.62735 0.0
O1054 O 0.86417 0.89256 0.55316 0.0
O1055 O 0.89903 0.95555 0.8144 0.0
O1056 O 0.8575 0.87196 0.71632 0.0
O1057 O 0.83945 0.86285 0.60572 0.0
O1058 O 0.82038 0.94255 0.49418 0.0
O1059 O 0.78558 0.91431 0.69783 0.0
O1060 O 0.82557 0.95261 0.74875 0.0
O1061 O 0.77497 0.9067 0.49954 0.0
O1062 O 0.83593 0.96704 0.58319 0.0
O1063 O 0.85287 0.98137 0.69056 0.0
C1064 C 0.89882 0.90102 0.57124 0.0
C1065 C 0.92398 0.91149 0.88901 0.0
C1066 C 0.92567 0.89034 1.00112 0.0
C1067 C 0.96113 0.90593 1.01022 0.0
C1068 C 0.95694 0.9311 0.89783 0.0
C1069 C 0.97734 0.92545 0.95705 0.0
C1070 C 0.91534 0.88402 0.93461 0.0
C1071 C 0.8526 0.8499 0.66321 0.0
C1072 C 0.8931 0.92595 0.84937 0.0
C1073 C 0.02789 0.9626 0.71714 0.0
C1074 C 0.03131 0.92425 0.7096 0.0
C1075 C 0.7963 0.93207 0.75494 0.0
C1076 C 0.80059 0.91191 0.39307 0.0
C1077 C 0.8215 0.91017 0.21489 0.0
C1078 C 0.82104 0.86715 0.2201 0.0
C1079 C 0.80095 0.87088 0.39254 0.0
C1080 C 0.80685 0.93578 0.32925 0.0
C1081 C 0.80779 0.84739 0.33242 0.0
C1082 C 0.84785 0.99113 0.62727 0.0
C1083 C 0.79333 0.92808 0.46036 0.0
H1084 H 0.97361 0.90799 0.05979 0.0
H1085 H 0.9655 0.95199 0.86212 0.0
H1086 H 1.00285 0.9401 0.96509 0.0
H1087 H 0.89304 0.86609 0.92161 0.0
H1088 H 0.82779 0.85126 0.17466 0.0
H1089 H 0.79677 0.8559 0.43913 0.0
H1090 H 0.8044 0.96463 0.34683 0.0
H1091 H 0.80569 0.81933 0.35417 0.0
Tb1092 Tb 0.92049 0.21485 0.45103 0.0
C1093 C 0.97123 0.07388 0.28356 0.0
N1094 N 0.96787 0.11134 0.27912 0.0
C1095 C 0.02573 0.11449 0.22188 0.0
C1096 C 1.00253 0.05525 0.25854 0.0
C1097 C 0.99402 0.13177 0.24722 0.0
C1098 C 0.03012 0.0761 0.22795 0.0
C1099 C 0.94523 0.01545 0.31846 0.0
C1100 C 0.94251 0.05396 0.31124 0.0
C1101 C 0.9766 0.99667 0.29487 0.0
C1102 C 1.00489 0.01647 0.26373 0.0
Tb1103 Tb 0.91393 0.13492 0.31918 0.0
N1104 N 0.91125 0.0723 0.329 0.0
C1105 C 0.91627 0.99714 0.34971 0.0
C1106 C 0.8811 0.0535 0.35195 0.0
C1107 C 0.88371 0.01582 0.36512 0.0
H1108 H 0.99068 0.16138 0.242 0.0
H1109 H 0.86111 1.00142 0.38852 0.0
H1110 H 0.85883 0.22468 0.32628 0.0
H1111 H 0.9796 0.37123 0.53157 0.0
H1112 H 0.85584 0.06825 0.36355 0.0
H1113 H 0.91928 0.96895 0.36514 0.0
H1114 H 0.98567 0.29758 0.48814 0.0
H1115 H 0.04669 0.13073 0.19739 0.0
H1116 H 0.97899 0.96686 0.29942 0.0
H1117 H 0.02865 1.00156 0.2446 0.0
H1118 H 0.80046 0.24831 0.30456 0.0
H1119 H 0.05463 0.0628 0.2081 0.0
H1120 H 0.9134 0.40643 0.57286 0.0
N1121 N 0.86292 0.24314 0.42659 0.0
C1122 C 0.84887 0.26653 0.47265 0.0
C1123 C 0.81151 0.25643 0.35162 0.0
C1124 C 0.80864 0.29339 0.45243 0.0
C1125 C 0.84655 0.24177 0.36472 0.0
C1126 C 0.79217 0.28107 0.3937 0.0
N1127 N 0.92456 0.27584 0.50016 0.0
C1128 C 0.95863 0.30658 0.50433 0.0
C1129 C 0.87068 0.35233 0.56778 0.0
C1130 C 0.8831 0.28217 0.52332 0.0
C1131 C 0.91336 0.37689 0.56422 0.0
C1132 C 0.95504 0.3546 0.53384 0.0
H1133 H 0.76701 0.29401 0.37568 0.0
H1134 H 0.77352 0.35353 0.46101 0.0
H1135 H 0.81939 0.39749 0.54305 0.0
O1136 O 0.94181 0.24154 0.53563 0.0
O1137 O 0.9283 0.23805 0.34338 0.0
O1138 O 0.92802 0.18775 0.26965 0.0
O1139 O 0.94651 0.18319 0.52693 0.0
O1140 O 0.97287 0.19866 0.40026 0.0
O1141 O 0.9659 0.1369 0.38007 0.0
O1142 O 0.89105 0.09922 0.24688 0.0
O1143 O 0.89898 0.11326 0.417 0.0
O1144 O 0.90589 0.15891 0.49794 0.0
O1145 O 0.88952 0.15804 0.23206 0.0
O1146 O 0.85956 0.15116 0.36135 0.0
O1147 O 0.86431 0.18989 0.45555 0.0
C1148 C 0.92797 0.22381 0.28012 0.0
C1149 C 0.92976 0.20814 0.63308 0.0
C1150 C 0.93383 0.20552 0.76482 0.0
C1151 C 0.89506 0.19296 0.75198 0.0
C1152 C 0.8929 0.19973 0.63214 0.0
C1153 C 0.8758 0.19217 0.69125 0.0
C1154 C 0.94806 0.21404 0.69512 0.0
C1155 C 0.98648 0.16435 0.40246 0.0
C1156 C 0.94878 0.2115 0.5678 0.0
C1157 C 0.79779 0.34027 0.48217 0.0
C1158 C 0.8267 0.36863 0.53639 0.0
C1159 C 0.90023 0.12363 0.48002 0.0
C1160 C 0.90548 0.11963 0.13918 0.0
C1161 C 0.95025 0.13923 0.05534 0.0
C1162 C 0.94862 0.10376 0.02594 0.0
C1163 C 0.90366 0.08478 0.10807 0.0
C1164 C 0.92887 0.1467 0.11257 0.0
C1165 C 0.92539 0.07685 0.0521 0.0
C1166 C 0.84469 0.16872 0.41357 0.0
C1167 C 0.88636 0.12563 0.20357 0.0
H1168 H 0.87645 0.18257 0.78881 0.0
H1169 H 0.87728 0.19839 0.58565 0.0
H1170 H 0.84715 0.18403 0.69006 0.0
H1171 H 0.97454 0.22631 0.68613 0.0
H1172 H 0.96393 0.09724 0.98066 0.0
H1173 H 0.8861 0.06336 0.12817 0.0
H1174 H 0.93066 0.17353 0.13652 0.0
H1175 H 0.92398 0.04987 0.02852 0.0
Tb1176 Tb 0.13791 0.09236 0.7021 0.0
C1177 C 0.28484 0.16022 0.58196 0.0
N1178 N 0.24971 0.16766 0.57123 0.0
C1179 C 0.26624 0.22793 0.51322 0.0
C1180 C 0.32498 0.19947 0.54068 0.0
C1181 C 0.24093 0.20007 0.53754 0.0
C1182 C 0.30563 0.22933 0.51526 0.0
C1183 C 0.34965 0.08022 0.56428 0.0
C1184 C 0.29815 0.10407 0.5904 0.0
C1185 C 0.39354 0.11816 0.51618 0.0
C1186 C 0.37778 0.17749 0.50502 0.0
Tb1187 Tb 0.21532 0.11291 0.57799 0.0
N1188 N 0.27032 0.08125 0.59856 0.0
C1189 C 0.34748 0.04233 0.56941 0.0
C1190 C 0.27724 0.04381 0.59513 0.0
C1191 C 0.31285 0.02615 0.58566 0.0
H1192 H 0.21266 0.20404 0.52222 0.0
H1193 H 0.31279 0.99618 0.58699 0.0
H1194 H 0.10945 1.00973 0.64929 0.0
H1195 H 0.07339 0.22838 0.6829 0.0
H1196 H 0.25408 0.0255 0.5988 0.0
H1197 H 0.37109 0.02507 0.5577 0.0
H1198 H 0.11485 0.18385 0.73787 0.0
H1199 H 0.25327 0.25054 0.48576 0.0
H1200 H 0.41928 0.1073 0.4969 0.0
H1201 H 0.39582 0.1956 0.47731 0.0
H1202 H 0.05654 0.98466 0.58735 0.0
H1203 H 0.31991 0.25084 0.48817 0.0
H1204 H 0.01892 0.20532 0.62074 0.0
N1205 N 0.08883 0.06497 0.65064 0.0
C1206 C 0.05839 0.08654 0.6435 0.0
C1207 C 0.05687 0.01351 0.60213 0.0
C1208 C 0.02582 0.07219 0.61554 0.0
C1209 C 0.08747 0.02818 0.63469 0.0
C1210 C 0.02569 0.03548 0.5938 0.0
N1211 N 0.09291 0.13692 0.68577 0.0
C1212 C 0.09473 0.17359 0.70277 0.0
C1213 C 0.03218 0.14792 0.64023 0.0
C1214 C 0.0612 0.12389 0.65807 0.0
C1215 C 0.03855 0.18595 0.64183 0.0
C1216 C 0.06984 0.19902 0.67477 0.0
H1217 H 1.00146 0.02345 0.57283 0.0
H1218 H 0.96898 0.08442 0.59143 0.0
H1219 H 0.97436 0.14992 0.61608 0.0
O1220 O 0.10997 0.09899 0.79568 0.0
O1221 O 0.12548 0.09242 0.59076 0.0
O1222 O 0.16002 0.13847 0.55032 0.0
O1223 O 0.11963 0.04604 0.75194 0.0
O1224 O 0.16586 0.1478 0.71656 0.0
O1225 O 0.18274 0.16007 0.60804 0.0
O1226 O 0.24123 0.1271 0.48857 0.0
O1227 O 0.23848 0.10613 0.68917 0.0
O1228 O 0.18978 0.09609 0.76388 0.0
O1229 O 0.20583 0.08093 0.48955 0.0
O1230 O 0.18797 0.05921 0.56735 0.0
O1231 O 0.17234 0.04323 0.67369 0.0
C1232 C 0.12822 0.12086 0.54939 0.0
C1233 C 0.1187 0.04527 0.86556 0.0
C1234 C 0.16534 0.04608 0.95362 0.0
C1235 C 0.16388 1.00685 0.95589 0.0
C1236 C 0.11719 1.0065 0.86937 0.0
C1237 C 0.1396 0.98749 0.91476 0.0
C1238 C 0.14009 0.06471 0.91141 0.0
C1239 C 0.17631 0.17173 0.66917 0.0
C1240 C 0.10649 0.06327 0.80328 0.0
C1241 C 0.99504 0.09523 0.60822 0.0
C1242 C 0.99836 0.13301 0.62041 0.0
C1243 C 0.22559 0.10132 0.75347 0.0
C1244 C 0.20774 0.11681 0.38935 0.0
C1245 C 0.19703 0.11424 0.25907 0.0
C1246 C 0.16361 0.13548 0.28292 0.0
C1247 C 0.18318 0.14581 0.39606 0.0
C1248 C 0.21459 0.10167 0.32429 0.0
C1249 C 0.15963 0.15332 0.34427 0.0
C1250 C 0.18023 0.03341 0.61116 0.0
C1251 C 0.22559 0.10239 0.45159 0.0
H1252 H 0.18087 0.99034 0.98926 0.0
H1253 H 0.10069 0.99087 0.83383 0.0
H1254 H 0.13941 0.95759 0.91593 0.0
H1255 H 0.13731 0.09429 0.91069 0.0
H1256 H 0.14008 0.14328 0.25214 0.0
H1257 H 0.18005 0.16056 0.44292 0.0
H1258 H 0.23371 0.07891 0.32851 0.0
H1259 H 0.13709 0.17264 0.35166 0.0
Tb1260 Tb 0.11201 0.80344 0.4461 0.0
C1261 C 0.11077 0.96919 0.3357 0.0
N1262 N 0.08329 0.94586 0.34974 0.0
C1263 C 0.04838 0.99594 0.3979 0.0
C1264 C 0.1097 1.00646 0.35585 0.0
C1265 C 0.05159 0.95865 0.37879 0.0
C1266 C 0.07774 0.01994 0.38667 0.0
C1267 C 0.16887 0.97795 0.28145 0.0
C1268 C 0.13916 0.95551 0.29818 0.0
C1269 C 0.1711 0.01329 0.31065 0.0
C1270 C 0.14091 0.0283 0.34558 0.0
Tb1271 Tb 0.09654 0.88456 0.33532 0.0
N1272 N 0.13652 0.92033 0.27582 0.0
C1273 C 0.19467 0.96427 0.2354 0.0
C1274 C 0.16014 0.9073 0.22778 0.0
C1275 C 0.18965 0.92918 0.20675 0.0
H1276 H 0.02926 0.93998 0.38903 0.0
H1277 H 0.20898 0.91863 0.16996 0.0
H1278 H 0.1712 0.79747 0.31007 0.0
H1279 H 0.99502 0.67177 0.51074 0.0
H1280 H 0.15752 0.8794 0.2088 0.0
H1281 H 0.21757 0.98108 0.2198 0.0
H1282 H 0.02146 0.7578 0.49211 0.0
H1283 H 0.02354 1.00603 0.42183 0.0
H1284 H 0.19553 0.02937 0.30494 0.0
H1285 H 0.14199 0.05647 0.36424 0.0
H1286 H 0.19412 0.75289 0.23196 0.0
H1287 H 0.0754 0.04867 0.40107 0.0
H1288 H 0.05785 0.60705 0.53733 0.0
N1289 N 0.15049 0.75971 0.38278 0.0
C1290 C 0.15278 0.72325 0.40178 0.0
C1291 C 0.18234 0.7429 0.27861 0.0
C1292 C 0.16789 0.69036 0.3515 0.0
C1293 C 0.16887 0.76907 0.32509 0.0
C1294 C 0.18101 0.70471 0.28917 0.0
N1295 N 0.09298 0.74716 0.47787 0.0
C1296 C 0.04196 0.73598 0.49562 0.0
C1297 C 0.12469 0.64839 0.51808 0.0
C1298 C 0.13384 0.71484 0.46919 0.0
C1299 C 0.06582 0.63552 0.53291 0.0
C1300 C 0.02393 0.6782 0.50889 0.0
H1301 H 0.19199 0.68738 0.24942 0.0
H1302 H 0.17027 0.58715 0.38828 0.0
H1303 H 0.13726 0.58563 0.50554 0.0
O1304 O 0.08648 0.81613 0.54001 0.0
O1305 O 0.0905 0.78829 0.33936 0.0
O1306 O 0.11634 0.8352 0.2786 0.0
O1307 O 0.1312 0.77705 0.53302 0.0
O1308 O 0.05332 0.81958 0.43307 0.0
O1309 O 0.06123 0.88143 0.42664 0.0
O1310 O 0.06114 0.90449 0.25859 0.0
O1311 O 0.0996 0.90114 0.44046 0.0
O1312 O 0.1369 0.85761 0.4881 0.0
O1313 O 0.0502 0.85311 0.31061 0.0
O1314 O 0.15877 0.87371 0.34992 0.0
O1315 O 0.16546 0.82617 0.42809 0.0
C1316 C 0.10137 0.80187 0.27897 0.0
C1317 C 0.12642 0.80916 0.63647 0.0
C1318 C 0.12285 0.83087 0.7627 0.0
C1319 C 0.15493 0.85185 0.73538 0.0
C1320 C 0.16329 0.81806 0.63382 0.0
C1321 C 0.17749 0.8394 0.68388 0.0
C1322 C 0.10737 0.81336 0.6993 0.0
C1323 C 0.04091 0.85328 0.44525 0.0
C1324 C 0.10892 0.79433 0.57387 0.0
C1325 C 0.16199 0.61366 0.41071 0.0
C1326 C 0.14349 0.61249 0.48453 0.0
C1327 C 0.12629 0.89308 0.48261 0.0
C1328 C 0.02165 0.86098 0.20575 0.0
C1329 C 0.02755 0.84101 0.09011 0.0
C1330 C 0.98968 0.83367 0.08724 0.0
C1331 C 0.98368 0.85438 0.20241 0.0
C1332 C 0.04351 0.85232 0.15106 0.0
C1333 C 0.96781 0.84027 0.14365 0.0
C1334 C 0.1799 0.85141 0.38892 0.0
C1335 C 0.03833 0.87689 0.26615 0.0
H1336 H 0.16725 0.87575 0.75907 0.0
H1337 H 0.1802 0.81188 0.59029 0.0
H1338 H 0.20539 0.84907 0.68001 0.0
H1339 H 0.07963 0.8033 0.69444 0.0
H1340 H 0.97685 0.82422 0.04093 0.0
H1341 H 0.96622 0.85971 0.24482 0.0
H1342 H 0.073 0.8554 0.15604 0.0
H1343 H 0.93848 0.83538 0.14132 0.0
C1344 C 0.41469 0.96324 0.25472 0.0
C1345 C 0.38743 0.93684 0.26997 0.0
C1346 C 0.4065 0.9978 0.22266 0.0
C1347 C 0.3707 1.00832 0.20073 0.0
H1348 H 0.44291 0.95766 0.26949 0.0
H1349 H 0.42866 0.01725 0.21761 0.0
S1350 S 0.29002 0.94603 0.21372 0.0
N1351 N 0.32337 0.92192 0.25046 0.0
N1352 N 0.30819 0.98571 0.18989 0.0
C1353 C 0.34348 0.98095 0.21112 0.0
C1354 C 0.35182 0.94569 0.24472 0.0
C1355 C 0.93309 0.67852 0.81001 0.0
C1356 C 0.92446 0.64153 0.79059 0.0
C1357 C 0.96782 0.68828 0.84149 0.0
C1358 C 0.99612 0.66166 0.85582 0.0
H1359 H 0.91373 0.7005 0.79765 0.0
H1360 H 0.97275 0.71709 0.85317 0.0
S1361 S 0.98987 0.56214 0.80933 0.0
N1362 N 0.94922 0.57909 0.78762 0.0
N1363 N 0.01224 0.59694 0.8423 0.0
C1364 C 0.98713 0.6249 0.83742 0.0
C1365 C 0.95226 0.61506 0.80654 0.0
C1366 C 0.67973 0.0633 0.18871 0.0
C1367 C 0.66088 0.02981 0.20238 0.0
C1368 C 0.66964 0.09784 0.22011 0.0
C1369 C 0.64073 0.10049 0.26792 0.0
H1370 H 0.702 0.06302 0.15263 0.0
H1371 H 0.68524 0.12234 0.20806 0.0
S1372 S 0.58069 0.02202 0.31459 0.0
N1373 N 0.61049 1.00299 0.26296 0.0
N1374 N 0.59145 0.06615 0.32009 0.0
C1375 C 0.62119 0.06735 0.27911 0.0
C1376 C 0.63128 0.03277 0.24728 0.0
C1377 C 0.03156 0.39847 0.83824 0.0
C1378 C 0.02052 0.36122 0.84733 0.0
C1379 C 0.06544 0.40862 0.80868 0.0
C1380 C 0.09194 0.38251 0.78794 0.0
H1381 H 0.01271 0.42071 0.8499 0.0
H1382 H 0.06993 0.43762 0.79818 0.0
S1383 S 0.08254 0.28088 0.81245 0.0
N1384 N 0.04353 0.29782 0.84255 0.0
N1385 N 0.10643 0.31679 0.7861 0.0
C1386 C 0.08322 0.34505 0.80166 0.0
C1387 C 0.04811 0.33451 0.83163 0.0
C1388 C 0.32854 0.53993 0.06851 0.0
C1389 C 0.35478 0.51836 0.10511 0.0
C1390 C 0.33813 0.57324 0.03393 0.0
C1391 C 0.37457 0.58679 0.03352 0.0
H1392 H 0.30048 0.53034 0.06431 0.0
H1393 H 0.31713 0.58746 1.0045 0.0
S1394 S 0.45331 0.54372 0.12546 0.0
N1395 N 0.41882 0.51577 0.1415 0.0
N1396 N 0.43616 0.57723 0.07775 0.0
C1397 C 0.40051 0.56662 0.07241 0.0
C1398 C 0.39087 0.53294 0.10765 0.0
C1399 C 0.55647 0.62232 0.02493 0.0
C1400 C 0.58702 0.64564 1.01619 0.0
C1401 C 0.52087 0.63151 1.0006 0.0
C1402 C 0.51275 0.66481 0.96531 0.0
H1403 H 0.55978 0.59689 0.0536 0.0
H1404 H 0.49907 0.61224 1.0114 0.0
S1405 S 0.5816 0.73823 0.93374 0.0
N1406 N 0.60552 0.70584 0.97418 0.0
N1407 N 0.53924 0.72234 0.92571 0.0
C1408 C 0.54282 0.689 0.95684 0.0
C1409 C 0.57949 0.67963 0.98258 0.0
C1410 C 0.62927 0.49763 0.10999 0.0
C1411 C 0.66178 0.51692 0.09145 0.0
C1412 C 0.61858 0.46312 0.07989 0.0
C1413 C 0.63937 0.44579 0.02825 0.0
H1414 H 0.61111 0.5098 0.14704 0.0
H1415 H 0.59287 0.45088 0.09514 0.0
S1416 S 0.7244 0.48424 0.95602 0.0
N1417 N 0.71362 0.51472 1.01493 0.0
N1418 N 0.69315 0.45179 0.9592 0.0
C1419 C 0.67158 0.46463 1.00965 0.0
C1420 C 0.68284 0.49929 0.04063 0.0
C1421 C 0.42931 0.36745 0.98147 0.0
C1422 C 0.42663 0.39596 0.03075 0.0
C1423 C 0.46372 0.35712 0.95038 0.0
C1424 C 0.49746 0.37506 0.96585 0.0
H1425 H 0.40486 0.35204 0.9684 0.0
H1426 H 0.46374 0.33514 0.91326 0.0
S1427 S 0.50643 0.45173 0.08991 0.0
N1428 N 0.4624 0.44114 0.09312 0.0
N1429 N 0.52467 0.42362 0.03338 0.0
C1430 C 0.49478 0.40388 1.01386 0.0
C1431 C 0.46039 0.41359 0.04654 0.0
C1432 C 0.90505 0.44351 0.70643 0.0
C1433 C 0.88247 0.42601 0.7547 0.0
C1434 C 0.89574 0.47824 0.67521 0.0
C1435 C 0.8625 0.49781 0.6891 0.0
H1436 H 0.93024 0.42996 0.69215 0.0
H1437 H 0.9156 0.49035 0.6414 0.0
S1438 S 0.78824 0.4587 0.79737 0.0
N1439 N 0.82183 0.42783 0.80403 0.0
N1440 N 0.80401 0.49163 0.74768 0.0
C1441 C 0.83794 0.47836 0.73224 0.0
C1442 C 0.84774 0.44303 0.76381 0.0
C1443 C 0.48569 0.14169 0.35947 0.0
C1444 C 0.50659 0.17433 0.3481 0.0
C1445 C 0.45125 0.13463 0.32626 0.0
C1446 C 0.43619 0.15835 0.27626 0.0
H1447 H 0.4962 0.12084 0.39403 0.0
H1448 H 0.43678 0.10959 0.33797 0.0
S1449 S 0.47624 0.25013 0.23248 0.0
N1450 N 0.50521 0.23337 0.28958 0.0
N1451 N 0.44436 0.2183 0.22244 0.0
C1452 C 0.45579 0.19195 0.26699 0.0
C1453 C 0.48977 0.20015 0.30348 0.0
C1454 C 0.10899 0.56304 0.74639 0.0
C1455 C 0.13215 0.59445 0.74483 0.0
C1456 C 0.11872 0.52807 0.71778 0.0
C1457 C 0.15311 0.52072 0.68662 0.0
H1458 H 0.08312 0.56496 0.77316 0.0
H1459 H 0.09936 0.50578 0.72386 0.0
S1460 S 0.22455 0.59317 0.66486 0.0
N1461 N 0.1915 0.61545 0.70559 0.0
N1462 N 0.21012 0.55028 0.65358 0.0
C1463 C 0.17659 0.55206 0.68318 0.0
C1464 C 0.16619 0.58831 0.71155 0.0
C1465 C 0.57936 0.88134 0.31295 0.0
C1466 C 0.57551 0.89218 0.24402 0.0
C1467 C 0.549 0.86897 0.35293 0.0
C1468 C 0.51276 0.86696 0.3265 0.0
H1469 H 0.60611 0.88226 0.33667 0.0
H1470 H 0.55414 0.86062 0.40468 0.0
S1471 S 0.48603 0.89374 0.15117 0.0
N1472 N 0.5307 0.90086 0.15382 0.0
N1473 N 0.47527 0.87911 0.22706 0.0
C1474 C 0.50858 0.87861 0.25852 0.0
C1475 C 0.53918 0.89082 0.21814 0.0
C1476 C 0.84729 0.06244 0.60888 0.0
C1477 C 0.86369 0.02699 0.59992 0.0
C1478 C 0.86056 0.09464 0.57462 0.0
C1479 C 0.89091 0.09285 0.52998 0.0
H1480 H 0.8231 0.06506 0.64024 0.0
H1481 H 0.84574 0.1206 0.58034 0.0
S1482 S 0.94543 1.00726 0.49531 0.0
N1483 N 0.91321 0.99317 0.54712 0.0
N1484 N 0.93806 0.05208 0.4839 0.0
C1485 C 0.90811 0.05767 0.5235 0.0
C1486 C 0.89464 0.02539 0.55798 0.0
C1487 C 0.06607 0.10767 0.49012 0.0
C1488 C 0.09459 0.13295 0.5046 0.0
C1489 C 0.03236 0.11795 0.45727 0.0
C1490 C 0.02459 0.1545 0.43447 0.0
H1491 H 0.06975 0.07911 0.50503 0.0
H1492 H 0.01182 0.0967 0.45069 0.0
S1493 S 0.09492 0.22853 0.43344 0.0
N1494 N 0.11523 0.1949 0.47687 0.0
N1495 N 0.05326 0.21376 0.41433 0.0
C1496 C 0.05428 0.17939 0.44205 0.0
C1497 C 0.08869 0.16882 0.47641 0.0
C1498 C 0.1263 0.96168 0.50876 0.0
C1499 C 0.14257 0.9265 0.52095 0.0
C1500 C 0.14046 0.99508 0.53405 0.0
C1501 C 0.16888 0.9959 0.58231 0.0
H1502 H 0.10189 0.96398 0.47845 0.0
H1503 H 0.1273 0.02074 0.51829 0.0
S1504 S 0.22784 0.91465 0.62409 0.0
N1505 N 0.19563 0.8969 0.57459 0.0
N1506 N 0.21735 0.9589 0.63399 0.0
C1507 C 0.18646 0.96146 0.59552 0.0
C1508 C 0.17419 0.92718 0.56339 0.0
C1509 C 0.99521 0.85567 0.54331 0.0
C1510 C 1.00301 0.8608 0.47472 0.0
C1511 C 0.96111 0.86747 0.57111 0.0
C1512 C 0.93252 0.88478 0.534 0.0
H1513 H 0.01582 0.84332 0.57625 0.0
H1514 H 0.95656 0.86252 0.62265 0.0
S1515 S 0.93802 0.89851 0.35018 0.0
N1516 N 0.97849 0.88105 0.36872 0.0
N1517 N 0.91425 0.90184 0.42072 0.0
C1518 C 0.93938 0.88781 0.46443 0.0
C1519 C 0.9745 0.87638 0.43571 0.0
C1520 C 0.34483 0.24675 0.06983 0.0
C1521 C 0.35124 0.22541 0.12794 0.0
C1522 C 0.34385 0.2857 0.07332 0.0
C1523 C 0.34862 0.30478 0.13532 0.0
H1524 H 0.33918 0.23335 0.02201 0.0
H1525 H 0.33797 0.30083 0.02718 0.0
S1526 S 0.37271 0.2614 0.29972 0.0
N1527 N 0.36877 0.22648 0.24677 0.0
N1528 N 0.3632 0.29856 0.25439 0.0
C1529 C 0.3569 0.28356 0.19273 0.0
C1530 C 0.3591 0.24422 0.18875 0.0
C1531 C 0.27554 0.70647 0.86826 0.0
C1532 C 0.2953 0.6727 0.86197 0.0
C1533 C 0.23721 0.70724 0.88028 0.0
C1534 C 0.21604 0.67511 0.87996 0.0
H1535 H 0.29014 0.73246 0.87049 0.0
H1536 H 0.22434 0.73297 0.89425 0.0
S1537 S 0.25135 0.58023 0.86259 0.0
N1538 N 0.28884 0.6058 0.86114 0.0
N1539 N 0.21659 0.6094 0.86641 0.0
C1540 C 0.23456 0.64186 0.86838 0.0
C1541 C 0.27397 0.6402 0.86273 0.0
C1542 C 0.6377 0.79887 0.14329 0.0
C1543 C 0.65675 0.81886 0.09402 0.0
C1544 C 0.63954 0.7601 0.14632 0.0
C1545 C 0.65773 0.73872 0.09704 0.0
H1546 H 0.62378 0.81349 0.18369 0.0
H1547 H 0.62868 0.74752 0.19074 0.0
S1548 S 0.70418 0.77807 0.94616 0.0
N1549 N 0.69031 0.8149 0.98876 0.0
N1550 N 0.69007 0.74181 0.98955 0.0
C1551 C 0.67273 0.75857 0.04191 0.0
C1552 C 0.67272 0.79853 0.04107 0.0
C1553 C 0.77401 0.3751 0.9515 0.0
C1554 C 0.79547 0.36275 0.89662 0.0
C1555 C 0.73486 0.37782 0.94784 0.0
C1556 C 0.71418 0.36699 0.88997 0.0
H1557 H 0.78734 0.38158 0.99877 0.0
H1558 H 0.72038 0.38618 0.99305 0.0
S1559 S 0.75618 0.33818 0.72761 0.0
N1560 N 0.79191 0.34477 0.77782 0.0
N1561 N 0.71946 0.34739 0.77358 0.0
C1562 C 0.73528 0.3568 0.83338 0.0
C1563 C 0.77522 0.35496 0.83627 0.0
C1564 C 0.82278 0.74947 0.6505 0.0
C1565 C 0.85482 0.72798 0.64066 0.0
C1566 C 0.82354 0.78702 0.67044 0.0
C1567 C 0.85586 0.8079 0.66763 0.0
H1568 H 0.79649 0.7377 0.63959 0.0
H1569 H 0.79779 0.8007 0.68248 0.0
S1570 S 0.94803 0.76836 0.6259 0.0
N1571 N 0.92098 0.73191 0.62604 0.0
N1572 N 0.92119 0.80425 0.64317 0.0
C1573 C 0.88825 0.78777 0.65099 0.0
C1574 C 0.88802 0.74801 0.64046 0.0
C1575 C 0.78464 0.19201 0.46729 0.0
C1576 C 0.80291 0.16887 0.42011 0.0
C1577 C 0.74577 0.19658 0.46732 0.0
C1578 C 0.72308 0.17795 0.42069 0.0
H1579 H 0.8005 0.20774 0.50345 0.0
H1580 H 0.73352 0.21573 0.50293 0.0
S1581 S 0.75545 0.10795 0.29664 0.0
N1582 N 0.7937 0.12327 0.33148 0.0
N1583 N 0.72161 0.13087 0.33361 0.0
C1584 C 0.74065 0.15269 0.37692 0.0
C1585 C 0.78011 0.14833 0.37623 0.0
C1586 C 0.16249 0.27244 0.61335 0.0
C1587 C 0.16906 0.29433 0.67052 0.0
C1588 C 0.16289 0.23365 0.61609 0.0
C1589 C 0.17209 0.21352 0.67514 0.0
H1590 H 0.1583 0.28512 0.56462 0.0
H1591 H 0.15675 0.21926 0.56985 0.0
S1592 S 0.19592 0.25661 0.83933 0.0
N1593 N 0.18702 0.29237 0.78942 0.0
N1594 N 0.18972 0.21912 0.79295 0.0
C1595 C 0.17971 0.2347 0.73314 0.0
C1596 C 0.17829 0.27488 0.73093 0.0
C1597 C 0.27988 0.88994 0.39196 0.0
C1598 C 0.29978 0.86408 0.43251 0.0
C1599 C 0.24161 0.88636 0.37744 0.0
C1600 C 0.22136 0.85586 0.40094 0.0
H1601 H 0.2944 0.91268 0.36924 0.0
H1602 H 0.22808 0.90728 0.34665 0.0
S1603 S 0.26143 0.77877 0.50638 0.0
N1604 N 0.29622 0.80703 0.49515 0.0
N1605 N 0.22623 0.79828 0.46674 0.0
C1606 C 0.2414 0.82979 0.44203 0.0
C1607 C 0.27981 0.83438 0.45814 0.0
C1608 C 0.26376 0.13481 0.85367 0.0
C1609 C 0.25117 0.10184 0.82064 0.0
C1610 C 0.28231 0.13544 0.91965 0.0
C1611 C 0.29023 0.10324 0.96013 0.0
H1612 H 0.25841 0.16108 0.82895 0.0
H1613 H 0.29053 0.16208 0.93933 0.0
S1614 S 0.26647 1.00878 0.89806 0.0
N1615 N 0.24955 0.03559 0.83767 0.0
N1616 N 0.28617 0.03638 0.95379 0.0
C1617 C 0.27935 0.0701 0.92597 0.0
C1618 C 0.25933 0.06957 0.86013 0.0
C1619 C 0.11767 0.77277 0.08636 0.0
C1620 C 0.09765 0.7396 0.07496 0.0
C1621 C 0.11873 0.79175 0.1507 0.0
C1622 C 0.10005 0.77941 0.21007 0.0
H1623 H 0.13305 0.78444 0.04491 0.0
H1624 H 0.13471 0.81684 0.15363 0.0
S1625 S 0.04313 0.69426 0.21142 0.0
N1626 N 0.05818 0.69588 0.13297 0.0
N1627 N 0.06064 0.73055 0.25023 0.0
C1628 C 0.08017 0.74623 0.19965 0.0
C1629 C 0.0789 0.72693 0.13408 0.0
C1630 C 0.72852 0.90914 0.91248 0.0
C1631 C 0.7413 0.93056 0.96894 0.0
C1632 C 0.74554 0.90893 0.84578 0.0
C1633 C 0.77645 0.93117 0.82785 0.0
H1634 H 0.70469 0.89189 0.91964 0.0
H1635 H 0.73392 0.89099 0.80767 0.0
S1636 S 0.82235 0.99238 0.9555 0.0
N1637 N 0.78852 0.97414 0.99933 0.0
N1638 N 0.81905 0.97494 0.87869 0.0
C1639 C 0.7895 0.95245 0.8845 0.0
C1640 C 0.77252 0.95208 0.95236 0.0
C1641 C 0.94954 0.28514 0.11709 0.0
C1642 C 0.91642 0.28603 0.0779 0.0
C1643 C 0.95336 0.26553 0.18045 0.0
C1644 C 0.92359 0.24799 0.21372 0.0
H1645 H 0.97368 0.29851 0.097 0.0
H1646 H 0.98058 0.26305 0.20219 0.0
S1647 S 0.83171 0.23703 0.13037 0.0
N1648 N 0.85428 0.26267 0.07565 0.0
N1649 N 0.86017 0.22958 0.19442 0.0
C1650 C 0.89055 0.24791 0.17393 0.0
C1651 C 0.88717 0.26622 0.10768 0.0
C1652 C 0.24204 0.38723 0.34932 0.0
C1653 C 0.26215 0.41846 0.32573 0.0
C1654 C 0.22589 0.38495 0.4164 0.0
C1655 C 0.22869 0.41334 0.46687 0.0
H1656 H 0.23942 0.36357 0.31619 0.0
H1657 H 0.21135 0.35989 0.42921 0.0
S1658 S 0.27363 0.50332 0.43114 0.0
N1659 N 0.28021 0.4801 0.36043 0.0
N1660 N 0.25127 0.47548 0.48238 0.0
C1661 C 0.24784 0.4449 0.44323 0.0
C1662 C 0.26397 0.44741 0.37499 0.0
C1663 C 0.3849 0.73085 0.6696 0.0
C1664 C 0.40923 0.73784 0.72614 0.0
C1665 C 0.38578 0.75001 0.604 0.0
C1666 C 0.41164 0.77822 0.58645 0.0
H1667 H 0.36405 0.70995 0.67612 0.0
H1668 H 0.36509 0.74283 0.56685 0.0
S1669 S 0.48684 0.80422 0.70759 0.0
N1670 N 0.46379 0.77329 0.75166 0.0
N1671 N 0.46496 0.8088 0.63462 0.0
C1672 C 0.43694 0.78452 0.64169 0.0
C1673 C 0.43613 0.76478 0.7082 0.0
C1674 C 0.78183 0.6235 0.32929 0.0
C1675 C 0.7494 0.60323 0.31314 0.0
C1676 C 0.79925 0.62339 0.39582 0.0
C1677 C 0.7863 0.60311 0.4535 0.0
H1678 H 0.79388 0.64042 0.29023 0.0
H1679 H 0.82338 0.64032 0.40224 0.0
S1680 S 0.70346 0.54354 0.4422 0.0
N1681 N 0.70566 0.5617 0.36583 0.0
N1682 N 0.73907 0.55967 0.4844 0.0
C1683 C 0.75447 0.58213 0.43771 0.0
C1684 C 0.73625 0.58275 0.37049 0.0
C1685 C 0.62335 0.24573 0.63459 0.0
C1686 C 0.60297 0.25814 0.5758 0.0
C1687 C 0.62068 0.2619 0.70252 0.0
C1688 C 0.59654 0.29202 0.72038 0.0
H1689 H 0.64209 0.22254 0.6283 0.0
H1690 H 0.63807 0.25023 0.74184 0.0
S1691 S 0.53234 0.33327 0.59053 0.0
N1692 N 0.55498 0.302 0.54594 0.0
N1693 N 0.54927 0.33096 0.66803 0.0
C1694 C 0.57523 0.30393 0.66221 0.0
C1695 C 0.57837 0.28768 0.59304 0.0
C1696 C 0.40455 0.15612 0.62993 0.0
C1697 C 0.36773 0.13475 0.61587 0.0
C1698 C 0.43057 0.14906 0.68011 0.0
C1699 C 0.42563 0.12205 0.72761 0.0
H1700 H 0.41413 0.17887 0.60006 0.0
H1701 H 0.45503 0.16605 0.68257 0.0
S1702 S 0.34104 0.07269 0.77062 0.0
N1703 N 0.33087 0.09606 0.70191 0.0
N1704 N 0.38464 0.08116 0.78308 0.0
C1705 C 0.39226 0.10409 0.73022 0.0
C1706 C 0.36314 0.11164 0.68272 0.0
C1707 C 0.05865 0.64445 0.39073 0.0
C1708 C 0.08599 0.66606 0.43529 0.0
C1709 C 0.0664 0.62579 0.32962 0.0
C1710 C 0.10089 0.62264 0.29749 0.0
H1711 H 0.03019 0.64277 0.40502 0.0
H1712 H 0.04315 0.61249 0.30573 0.0
S1713 S 0.2141 0.64696 0.37884 0.0
N1714 N 0.17288 0.66634 0.44682 0.0
N1715 N 0.17449 0.63305 0.3063 0.0
C1716 C 0.13105 0.64106 0.32333 0.0
C1717 C 0.1242 0.6604 0.40103 0.0
C1718 C 0.66528 0.85472 0.6982 0.0
C1719 C 0.68156 0.88319 0.65295 0.0
C1720 C 0.63049 0.86119 0.72687 0.0
C1721 C 0.61813 0.89762 0.73503 0.0
H1722 H 0.67288 0.82564 0.69733 0.0
H1723 H 0.61474 0.83823 0.74643 0.0
S1724 S 0.68605 0.97235 0.75396 0.0
N1725 N 0.70727 0.93956 0.71098 0.0
N1726 N 0.64345 0.958 0.7615 0.0
C1727 C 0.64538 0.92475 0.72943 0.0
C1728 C 0.67967 0.91507 0.69967 0.0
C1729 C 0.91308 0.4147 0.35212 0.0
C1730 C 0.93782 0.40144 0.30351 0.0
C1731 C 0.90388 0.39332 0.4085 0.0
C1732 C 0.9181 0.3571 0.41854 0.0
H1733 H 0.90007 0.44159 0.3458 0.0
H1734 H 0.88416 0.40489 0.44364 0.0
S1735 S 0.98687 0.31137 0.30709 0.0
N1736 N 0.98015 0.35236 0.27244 0.0
N1737 N 0.95782 0.30907 0.37033 0.0
C1738 C 0.94244 0.34335 0.36863 0.0
C1739 C 0.95361 0.3663 0.3135 0.0
C1740 C 0.37426 0.43587 0.57023 0.0
C1741 C 0.4087 0.41757 0.56754 0.0
C1742 C 0.3488 0.42719 0.62015 0.0
C1743 C 0.35874 0.40426 0.67485 0.0
H1744 H 0.36489 0.45265 0.52793 0.0
H1745 H 0.32099 0.43746 0.61364 0.0
S1746 S 0.44962 0.35671 0.69897 0.0
N1747 N 0.4534 0.3793 0.62715 0.0
N1748 N 0.40789 0.36659 0.72575 0.0
C1749 C 0.39509 0.38954 0.67637 0.0
C1750 C 0.42002 0.39656 0.62322 0.0
C1751 C 0.40098 0.68447 0.46009 0.0
C1752 C 0.37764 0.6684 0.39958 0.0
C1753 C 0.41695 0.66422 0.51184 0.0
C1754 C 0.40848 0.62767 0.52185 0.0
H1755 H 0.40876 0.71305 0.46369 0.0
H1756 H 0.437 0.67769 0.54408 0.0
S1757 S 0.32573 0.58044 0.46144 0.0
N1758 N 0.32928 0.61689 0.41238 0.0
N1759 N 0.36221 0.58174 0.5104 0.0
C1760 C 0.37848 0.61326 0.48815 0.0
C1761 C 0.36141 0.63256 0.43249 0.0
C1762 C 0.70845 0.62806 0.57152 0.0
C1763 C 0.67905 0.62507 0.62022 0.0
C1764 C 0.71537 0.66218 0.53852 0.0
C1765 C 0.6889 0.6914 0.53649 0.0
H1766 H 0.72913 0.60714 0.57033 0.0
H1767 H 0.74063 0.6645 0.51014 0.0
S1768 S 0.57941 0.68003 0.64927 0.0
N1769 N 0.60186 0.62823 0.60982 0.0
N1770 N 0.62696 0.71002 0.61328 0.0
C1771 C 0.65742 0.68274 0.57222 0.0
C1772 C 0.64519 0.63398 0.57661 0.0
C1773 C 0.61552 0.37811 0.49183 0.0
C1774 C 0.62457 0.41583 0.48584 0.0
C1775 C 0.62649 0.35255 0.44313 0.0
C1776 C 0.6449 0.36474 0.38527 0.0
H1777 H 0.5991 0.36863 0.53375 0.0
H1778 H 0.61791 0.32412 0.44824 0.0
S1779 S 0.6878 0.45721 0.36306 0.0
N1780 N 0.6618 0.46172 0.43067 0.0
N1781 N 0.68324 0.41384 0.33882 0.0
C1782 C 0.65988 0.40085 0.38629 0.0
C1783 C 0.64851 0.4268 0.43564 0.0
C1784 C 0.84287 0.60599 0.1768 0.0
C1785 C 0.85835 0.62634 0.12328 0.0
C1786 C 0.86416 0.59567 0.23319 0.0
C1787 C 0.90102 0.60665 0.2391 0.0
H1788 H 0.81421 0.59839 0.17625 0.0
H1789 H 0.85149 0.57993 0.27333 0.0
S1790 S 0.9503 0.67145 0.12791 0.0
N1791 N 0.91091 0.66362 0.08908 0.0
N1792 N 0.94944 0.64555 0.19647 0.0
C1793 C 0.9158 0.62962 0.18988 0.0
C1794 C 0.89468 0.63953 0.13215 0.0
C1795 C 0.57805 0.11328 0.8609 0.0
C1796 C 0.56087 0.12665 0.80291 0.0
C1797 C 0.58769 0.13722 0.91184 0.0
C1798 C 0.57862 0.17545 0.91062 0.0
H1799 H 0.58848 0.08506 0.86371 0.0
H1800 H 0.60395 0.1253 0.95183 0.0
S1801 S 0.52901 0.22299 0.7706 0.0
N1802 N 0.5309 0.1791 0.74745 0.0
N1803 N 0.54989 0.22502 0.8448 0.0
C1804 C 0.55883 0.18883 0.85439 0.0
C1805 C 0.54883 0.16398 0.80138 0.0
C1806 C 0.15652 0.46859 0.23464 0.0
C1807 C 0.11826 0.4633 0.24097 0.0
C1808 C 0.17634 0.45307 0.18102 0.0
C1809 C 0.15825 0.43401 0.12867 0.0
H1810 H 0.1716 0.48353 0.2731 0.0
H1811 H 0.20592 0.45591 0.18141 0.0
S1812 S 0.05911 0.40807 0.12646 0.0
N1813 N 0.06401 0.43334 0.19498 0.0
N1814 N 0.10023 0.40687 0.09197 0.0
C1815 C 0.12009 0.4277 0.13587 0.0
C1816 C 0.10025 0.44231 0.19151 0.0
C1817 C 0.38526 0.82157 0.85105 0.0
C1818 C 0.36348 0.83809 0.90129 0.0
C1819 C 0.39924 0.84302 0.79838 0.0
C1820 C 0.39061 0.88078 0.7934 0.0
H1821 H 0.3944 0.79325 0.85589 0.0
H1822 H 0.41935 0.83113 0.76512 0.0
S1823 S 0.31978 0.93104 0.8907 0.0
N1824 N 0.32225 0.88979 0.92632 0.0
N1825 N 0.34981 0.93046 0.82851 0.0
C1826 C 0.36295 0.89527 0.83454 0.0
C1827 C 0.34841 0.87341 0.88753 0.0
C1828 C 0.87475 0.93864 0.14194 0.0
C1829 C 0.83953 0.92161 0.14615 0.0
C1830 C 0.90153 0.92723 0.09721 0.0
C1831 C 0.89536 0.89905 0.05034 0.0
H1832 H 0.88488 0.96038 0.17345 0.0
H1833 H 0.9274 0.94174 0.10018 0.0
S1834 S 0.80255 0.85905 1.01484 0.0
N1835 N 0.796 0.88674 0.07968 0.0
N1836 N 0.84674 0.86177 0.998 0.0
C1837 C 0.85831 0.88685 0.04427 0.0
C1838 C 0.83036 0.90033 0.08913 0.0
C1839 C 0.95425 0.20509 1.01455 0.0
C1840 C 0.96955 0.16948 1.01964 0.0
C1841 C 0.9633 0.22736 0.9588 0.0
C1842 C 0.97419 0.20918 0.89577 0.0
H1843 H 0.93355 0.21454 0.0493 0.0
H1844 H 0.952 0.2548 0.9586 0.0
S1845 S 0.05653 0.14613 0.93453 0.0
N1846 N 0.02656 0.13733 0.99458 0.0
N1847 N 0.03812 0.18004 0.88924 0.0
C1848 C 1.00551 0.1859 0.92141 0.0
C1849 C 1.00022 0.16303 0.97952 0.0
C1850 C 0.21759 0.04862 0.03732 0.0
C1851 C 0.19176 0.06716 0.99672 0.0
C1852 C 0.23658 0.06808 0.08664 0.0
C1853 C 0.21977 0.10155 0.11684 0.0
H1854 H 0.22506 0.01994 0.03015 0.0
H1855 H 0.25928 0.05267 0.10918 0.0
S1856 S 0.20203 0.16867 0.97203 0.0
N1857 N 0.18694 0.12855 0.94445 0.0
N1858 N 0.2193 0.15998 0.04754 0.0
C1859 C 0.21188 0.12321 0.05493 0.0
C1860 C 0.19488 0.10607 0.99777 0.0
C1861 C 0.07128 0.80105 0.93574 0.0
C1862 C 0.09775 0.8282 0.90614 0.0
C1863 C 0.04886 0.80606 0.99141 0.0
C1864 C 0.05073 0.8375 0.02981 0.0
H1865 H 0.06288 0.77565 0.91165 0.0
H1866 H 0.02949 0.7845 1.00436 0.0
S1867 S 0.12381 0.90717 0.02992 0.0
N1868 N 0.13428 0.87843 0.96883 0.0
N1869 N 0.08388 0.89267 0.0559 0.0
C1870 C 0.07845 0.86238 1.01612 0.0
C1871 C 0.10466 0.85533 0.96358 0.0
loop_
_geom_bond_atom_site_label_1
_geom_bond_atom_site_label_2
_geom_bond_distance
_geom_bond_site_symmetry_2
_ccdc_geom_bond_type
Tb0 N29 2.617 . S
Tb0 N35 2.572 . S
Tb0 O44 2.465 1_554 S
Tb0 O45 2.387 . S
Tb0 O47 2.428 1_554 S
Tb0 O48 2.308 . S
Tb0 O52 2.349 . S
Tb0 O55 2.393 . S
Tb0 C64 2.802 1_554 S
C1 N2 1.379 . S
C1 C4 1.416 . S
C1 C8 1.424 . S
N2 C1 1.379 . S
N2 C5 1.334 . S
N2 Tb11 2.617 . S
C3 C5 1.390 . S
C3 C6 1.339 . S
C3 H23 0.930 . S
C4 C1 1.416 . S
C4 C6 1.416 . S
C4 C10 1.448 . S
C5 N2 1.334 . S
C5 C3 1.390 . S
C5 H16 0.930 . S
C6 C3 1.339 . S
C6 C4 1.416 . S
C6 H27 0.930 . S
C7 C8 1.413 . S
C7 C9 1.427 . S
C7 C13 1.416 . S
C8 C1 1.424 . S
C8 C7 1.413 . S
C8 N12 1.361 . S
C9 C7 1.427 . S
C9 C10 1.328 . S
C9 H24 0.929 . S
C10 C4 1.448 . S
C10 C9 1.328 . S
C10 H25 0.930 . S
Tb11 N2 2.617 . S
Tb11 N12 2.572 . S
Tb11 O46 2.349 . S
Tb11 O49 2.393 . S
Tb11 O50 2.465 . S
Tb11 O51 2.387 . S
Tb11 O53 2.428 . S
Tb11 O54 2.308 . S
Tb11 C75 2.802 . S
N12 C8 1.361 . S
N12 Tb11 2.572 . S
N12 C14 1.340 . S
C13 C7 1.416 . S
C13 C15 1.332 . S
C13 H21 0.931 . S
C14 N12 1.340 . S
C14 C15 1.407 . S
C14 H20 0.930 . S
C15 C13 1.332 . S
C15 C14 1.407 . S
C15 H17 0.929 . S
H16 C5 0.930 . S
H17 C15 0.929 . S
H18 C33 0.930 . S
H19 C40 0.929 . S
H20 C14 0.930 . S
H21 C13 0.931 . S
H22 C36 0.930 . S
H23 C3 0.930 . S
H24 C9 0.929 . S
H25 C10 0.930 . S
H26 C31 0.930 . S
H27 C6 0.930 . S
H28 C39 0.931 . S
N29 Tb0 2.617 . S
N29 C30 1.379 . S
N29 C33 1.334 . S
C30 N29 1.379 . S
C30 C32 1.416 . S
C30 C38 1.424 . S
C31 H26 0.930 . S
C31 C33 1.390 1_565 S
C31 C34 1.339 1_565 S
C32 C30 1.416 . S
C32 C34 1.416 . S
C32 C65 1.448 . S
C33 H18 0.930 . S
C33 N29 1.334 . S
C33 C31 1.390 1_545 S
C34 C31 1.339 1_545 S
C34 C32 1.416 . S
C34 H41 0.930 1_545 S
N35 Tb0 2.572 . S
N35 C36 1.340 . S
N35 C38 1.361 . S
C36 H22 0.930 . S
C36 N35 1.340 . S
C36 C40 1.407 . S
C37 C38 1.413 . S
C37 C39 1.416 . S
C37 C66 1.427 . S
C38 C30 1.424 . S
C38 N35 1.361 . S
C38 C37 1.413 . S
C39 H28 0.931 . S
C39 C37 1.416 . S
C39 C40 1.332 . S
C40 H19 0.929 . S
C40 C36 1.407 . S
C40 C39 1.332 . S
H41 C34 0.930 1_565 S
H42 C65 0.930 . S
H43 C66 0.929 . S
O44 Tb0 2.465 1_556 S
O44 C64 1.264 . S
O45 Tb0 2.387 . S
O45 C56 1.264 . S
O46 Tb11 2.349 . S
O46 C56 1.243 . S
O47 Tb0 2.428 1_556 S
O47 C64 1.256 . S
O48 Tb0 2.308 . S
O48 C63 1.266 . S
O49 Tb11 2.393 . S
O49 C63 1.248 . S
O50 Tb11 2.465 . S
O50 C75 1.264 . S
O51 Tb11 2.387 . S
O51 C67 1.264 . S
O52 Tb0 2.349 . S
O52 C67 1.243 . S
O53 Tb11 2.428 . S
O53 C75 1.256 . S
O54 Tb11 2.308 . S
O54 C74 1.266 . S
O55 Tb0 2.393 . S
O55 C74 1.248 . S
C56 O45 1.264 . S
C56 O46 1.243 . S
C57 C60 1.399 . S
C57 C62 1.383 . S
C57 C64 1.496 . S
C58 C59 1.399 . S
C58 C62 1.389 . S
C59 C58 1.399 . S
C59 C61 1.380 . S
C59 H76 0.929 . S
C60 C57 1.399 . S
C60 C61 1.392 . S
C60 H77 0.929 . S
C61 C59 1.380 . S
C61 C60 1.392 . S
C61 H78 0.929 . S
C62 C57 1.383 . S
C62 C58 1.389 . S
C62 H79 0.931 . S
C63 O48 1.266 . S
C63 O49 1.248 . S
C64 Tb0 2.802 1_556 S
C64 O44 1.264 . S
C64 O47 1.256 . S
C64 C57 1.496 . S
C65 C32 1.448 . S
C65 H42 0.930 . S
C65 C66 1.328 . S
C66 C37 1.427 . S
C66 H43 0.929 . S
C66 C65 1.328 . S
C67 O51 1.264 . S
C67 O52 1.243 . S
C68 C71 1.399 . S
C68 C72 1.383 . S
C68 C75 1.496 . S
C69 C70 1.399 . S
C69 C72 1.389 . S
C70 C69 1.399 . S
C70 C73 1.380 . S
C70 H80 0.929 . S
C71 C68 1.399 . S
C71 C73 1.392 . S
C71 H81 0.929 . S
C72 C68 1.383 . S
C72 C69 1.389 . S
C72 H82 0.931 . S
C73 C70 1.380 . S
C73 C71 1.392 . S
C73 H83 0.929 . S
C74 O54 1.266 . S
C74 O55 1.248 . S
C75 Tb11 2.802 . S
C75 O50 1.264 . S
C75 O53 1.256 . S
C75 C68 1.496 . S
H76 C59 0.929 . S
H77 C60 0.929 . S
H78 C61 0.929 . S
H79 C62 0.931 . S
H80 C70 0.929 . S
H81 C71 0.929 . S
H82 C72 0.931 . S
H83 C73 0.929 . S
Tb84 N113 2.617 . S
Tb84 N119 2.572 . S
Tb84 O128 2.465 . S
Tb84 O129 2.387 . S
Tb84 O131 2.428 . S
Tb84 O132 2.308 . S
Tb84 O136 2.349 . S
Tb84 O139 2.393 . S
Tb84 C148 2.802 . S
C85 N86 1.379 . S
C85 C88 1.416 . S
C85 C92 1.424 . S
N86 C85 1.379 . S
N86 C89 1.334 . S
N86 Tb95 2.617 . S
C87 C89 1.390 1_655 S
C87 C90 1.339 1_655 S
C87 H107 0.930 . S
C88 C85 1.416 . S
C88 C90 1.416 . S
C88 C94 1.448 . S
C89 N86 1.334 . S
C89 C87 1.390 1_455 S
C89 H100 0.930 . S
C90 C87 1.339 1_455 S
C90 C88 1.416 . S
C90 H111 0.930 1_455 S
C91 C92 1.413 . S
C91 C93 1.427 . S
C91 C97 1.416 . S
C92 C85 1.424 . S
C92 C91 1.413 . S
C92 N96 1.361 . S
C93 C91 1.427 . S
C93 C94 1.328 . S
C93 H108 0.929 . S
C94 C88 1.448 . S
C94 C93 1.328 . S
C94 H109 0.930 . S
Tb95 N86 2.617 . S
Tb95 N96 2.572 . S
Tb95 O130 2.349 . S
Tb95 O133 2.393 . S
Tb95 O134 2.465 1_556 S
Tb95 O135 2.387 . S
Tb95 O137 2.428 1_556 S
Tb95 O138 2.308 . S
Tb95 C159 2.802 1_556 S
N96 C92 1.361 . S
N96 Tb95 2.572 . S
N96 C98 1.340 . S
C97 C91 1.416 . S
C97 C99 1.332 . S
C97 H105 0.931 . S
C98 N96 1.340 . S
C98 C99 1.407 . S
C98 H104 0.930 . S
C99 C97 1.332 . S
C99 C98 1.407 . S
C99 H101 0.929 . S
H100 C89 0.930 . S
H101 C99 0.929 . S
H102 C117 0.930 . S
H103 C124 0.929 . S
H104 C98 0.930 . S
H105 C97 0.931 . S
H106 C120 0.930 . S
H107 C87 0.930 . S
H108 C93 0.929 . S
H109 C94 0.930 . S
H110 C115 0.930 . S
H111 C90 0.930 1_655 S
H112 C123 0.931 . S
N113 Tb84 2.617 . S
N113 C114 1.379 . S
N113 C117 1.334 . S
C114 N113 1.379 . S
C114 C116 1.416 . S
C114 C122 1.424 . S
C115 H110 0.930 . S
C115 C117 1.390 . S
C115 C118 1.339 . S
C116 C114 1.416 . S
C116 C118 1.416 . S
C116 C149 1.448 . S
C117 H102 0.930 . S
C117 N113 1.334 . S
C117 C115 1.390 . S
C118 C115 1.339 . S
C118 C116 1.416 . S
C118 H125 0.930 . S
N119 Tb84 2.572 . S
N119 C120 1.340 . S
N119 C122 1.361 . S
C120 H106 0.930 . S
C120 N119 1.340 . S
C120 C124 1.407 . S
C121 C122 1.413 . S
C121 C123 1.416 . S
C121 C150 1.427 . S
C122 C114 1.424 . S
C122 N119 1.361 . S
C122 C121 1.413 . S
C123 H112 0.931 . S
C123 C121 1.416 . S
C123 C124 1.332 . S
C124 H103 0.929 . S
C124 C120 1.407 . S
C124 C123 1.332 . S
H125 C118 0.930 . S
H126 C149 0.930 . S
H127 C150 0.929 . S
O128 Tb84 2.465 . S
O128 C148 1.264 . S
O129 Tb84 2.387 . S
O129 C140 1.264 . S
O130 Tb95 2.349 . S
O130 C140 1.243 . S
O131 Tb84 2.428 . S
O131 C148 1.256 . S
O132 Tb84 2.308 . S
O132 C147 1.266 . S
O133 Tb95 2.393 . S
O133 C147 1.248 . S
O134 Tb95 2.465 1_554 S
O134 C159 1.264 . S
O135 Tb95 2.387 . S
O135 C151 1.264 . S
O136 Tb84 2.349 . S
O136 C151 1.243 . S
O137 Tb95 2.428 1_554 S
O137 C159 1.256 . S
O138 Tb95 2.308 . S
O138 C158 1.266 . S
O139 Tb84 2.393 . S
O139 C158 1.248 . S
C140 O129 1.264 . S
C140 O130 1.243 . S
C141 C144 1.399 . S
C141 C146 1.383 . S
C141 C148 1.496 . S
C142 C143 1.399 . S
C142 C146 1.389 . S
C143 C142 1.399 . S
C143 C145 1.380 . S
C143 H160 0.929 . S
C144 C141 1.399 . S
C144 C145 1.392 . S
C144 H161 0.929 . S
C145 C143 1.380 . S
C145 C144 1.392 . S
C145 H162 0.929 . S
C146 C141 1.383 . S
C146 C142 1.389 . S
C146 H163 0.931 . S
C147 O132 1.266 . S
C147 O133 1.248 . S
C148 Tb84 2.802 . S
C148 O128 1.264 . S
C148 O131 1.256 . S
C148 C141 1.496 . S
C149 C116 1.448 . S
C149 H126 0.930 . S
C149 C150 1.328 . S
C150 C121 1.427 . S
C150 H127 0.929 . S
C150 C149 1.328 . S
C151 O135 1.264 . S
C151 O136 1.243 . S
C152 C155 1.399 . S
C152 C156 1.383 . S
C152 C159 1.496 . S
C153 C154 1.399 . S
C153 C156 1.389 . S
C154 C153 1.399 . S
C154 C157 1.380 . S
C154 H164 0.929 . S
C155 C152 1.399 . S
C155 C157 1.392 . S
C155 H165 0.929 . S
C156 C152 1.383 . S
C156 C153 1.389 . S
C156 H166 0.931 . S
C157 C154 1.380 . S
C157 C155 1.392 . S
C157 H167 0.929 . S
C158 O138 1.266 . S
C158 O139 1.248 . S
C159 Tb95 2.802 1_554 S
C159 O134 1.264 . S
C159 O137 1.256 . S
C159 C152 1.496 . S
H160 C143 0.929 . S
H161 C144 0.929 . S
H162 C145 0.929 . S
H163 C146 0.931 . S
H164 C154 0.929 . S
H165 C155 0.929 . S
H166 C156 0.931 . S
H167 C157 0.929 . S
Tb168 N197 2.617 . S
Tb168 N203 2.572 . S
Tb168 O212 2.465 1_554 S
Tb168 O213 2.387 . S
Tb168 O215 2.428 1_554 S
Tb168 O216 2.308 . S
Tb168 O220 2.349 . S
Tb168 O223 2.393 . S
Tb168 C232 2.802 1_554 S
C169 N170 1.379 . S
C169 C172 1.416 . S
C169 C176 1.424 . S
N170 C169 1.379 . S
N170 C173 1.334 . S
N170 Tb179 2.617 . S
C171 C173 1.390 . S
C171 C174 1.339 . S
C171 H191 0.930 . S
C172 C169 1.416 . S
C172 C174 1.416 . S
C172 C178 1.448 . S
C173 N170 1.334 . S
C173 C171 1.390 . S
C173 H184 0.930 . S
C174 C171 1.339 . S
C174 C172 1.416 . S
C174 H195 0.930 . S
C175 C176 1.413 . S
C175 C177 1.427 . S
C175 C181 1.416 . S
C176 C169 1.424 . S
C176 C175 1.413 . S
C176 N180 1.361 . S
C177 C175 1.427 . S
C177 C178 1.328 . S
C177 H192 0.929 . S
C178 C172 1.448 . S
C178 C177 1.328 . S
C178 H193 0.930 . S
Tb179 N170 2.617 . S
Tb179 N180 2.572 . S
Tb179 O214 2.349 . S
Tb179 O217 2.393 . S
Tb179 O218 2.465 . S
Tb179 O219 2.387 . S
Tb179 O221 2.428 . S
Tb179 O222 2.308 . S
Tb179 C243 2.802 . S
N180 C176 1.361 . S
N180 Tb179 2.572 . S
N180 C182 1.340 . S
C181 C175 1.416 . S
C181 C183 1.332 . S
C181 H189 0.931 . S
C182 N180 1.340 . S
C182 C183 1.407 . S
C182 H188 0.930 . S
C183 C181 1.332 . S
C183 C182 1.407 . S
C183 H185 0.929 . S
H184 C173 0.930 . S
H185 C183 0.929 . S
H186 C201 0.930 . S
H187 C208 0.929 . S
H188 C182 0.930 . S
H189 C181 0.931 . S
H190 C204 0.930 . S
H191 C171 0.930 . S
H192 C177 0.929 . S
H193 C178 0.930 . S
H194 C199 0.930 . S
H195 C174 0.930 . S
H196 C207 0.931 . S
N197 Tb168 2.617 . S
N197 C198 1.379 . S
N197 C201 1.334 . S
C198 N197 1.379 . S
C198 C200 1.416 . S
C198 C206 1.424 . S
C199 H194 0.930 . S
C199 C201 1.390 1_545 S
C199 C202 1.339 1_545 S
C200 C198 1.416 . S
C200 C202 1.416 . S
C200 C233 1.448 . S
C201 H186 0.930 . S
C201 N197 1.334 . S
C201 C199 1.390 1_565 S
C202 C199 1.339 1_565 S
C202 C200 1.416 . S
C202 H209 0.930 1_565 S
N203 Tb168 2.572 . S
N203 C204 1.340 . S
N203 C206 1.361 . S
C204 H190 0.930 . S
C204 N203 1.340 . S
C204 C208 1.407 . S
C205 C206 1.413 . S
C205 C207 1.416 . S
C205 C234 1.427 . S
C206 C198 1.424 . S
C206 N203 1.361 . S
C206 C205 1.413 . S
C207 H196 0.931 . S
C207 C205 1.416 . S
C207 C208 1.332 . S
C208 H187 0.929 . S
C208 C204 1.407 . S
C208 C207 1.332 . S
H209 C202 0.930 1_545 S
H210 C233 0.930 . S
H211 C234 0.929 . S
O212 Tb168 2.465 1_556 S
O212 C232 1.264 . S
O213 Tb168 2.387 . S
O213 C224 1.264 . S
O214 Tb179 2.349 . S
O214 C224 1.243 . S
O215 Tb168 2.428 1_556 S
O215 C232 1.256 . S
O216 Tb168 2.308 . S
O216 C231 1.266 . S
O217 Tb179 2.393 . S
O217 C231 1.248 . S
O218 Tb179 2.465 . S
O218 C243 1.264 . S
O219 Tb179 2.387 . S
O219 C235 1.264 . S
O220 Tb168 2.349 . S
O220 C235 1.243 . S
O221 Tb179 2.428 . S
O221 C243 1.256 . S
O222 Tb179 2.308 . S
O222 C242 1.266 . S
O223 Tb168 2.393 . S
O223 C242 1.248 . S
C224 O213 1.264 . S
C224 O214 1.243 . S
C225 C228 1.399 . S
C225 C230 1.383 . S
C225 C232 1.496 . S
C226 C227 1.399 . S
C226 C230 1.389 . S
C227 C226 1.399 . S
C227 C229 1.380 . S
C227 H244 0.929 . S
C228 C225 1.399 . S
C228 C229 1.392 . S
C228 H245 0.929 . S
C229 C227 1.380 . S
C229 C228 1.392 . S
C229 H246 0.929 . S
C230 C225 1.383 . S
C230 C226 1.389 . S
C230 H247 0.931 . S
C231 O216 1.266 . S
C231 O217 1.248 . S
C232 Tb168 2.802 1_556 S
C232 O212 1.264 . S
C232 O215 1.256 . S
C232 C225 1.496 . S
C233 C200 1.448 . S
C233 H210 0.930 . S
C233 C234 1.328 . S
C234 C205 1.427 . S
C234 H211 0.929 . S
C234 C233 1.328 . S
C235 O219 1.264 . S
C235 O220 1.243 . S
C236 C239 1.399 . S
C236 C240 1.383 . S
C236 C243 1.496 . S
C237 C238 1.399 . S
C237 C240 1.389 . S
C238 C237 1.399 . S
C238 C241 1.380 . S
C238 H248 0.929 . S
C239 C236 1.399 . S
C239 C241 1.392 . S
C239 H249 0.929 . S
C240 C236 1.383 . S
C240 C237 1.389 . S
C240 H250 0.931 . S
C241 C238 1.380 . S
C241 C239 1.392 . S
C241 H251 0.929 . S
C242 O222 1.266 . S
C242 O223 1.248 . S
C243 Tb179 2.802 . S
C243 O218 1.264 . S
C243 O221 1.256 . S
C243 C236 1.496 . S
H244 C227 0.929 . S
H245 C228 0.929 . S
H246 C229 0.929 . S
H247 C230 0.931 . S
H248 C238 0.929 . S
H249 C239 0.929 . S
H250 C240 0.931 . S
H251 C241 0.929 . S
Tb252 N281 2.617 . S
Tb252 N287 2.572 . S
Tb252 O296 2.465 . S
Tb252 O297 2.387 . S
Tb252 O299 2.428 . S
Tb252 O300 2.308 . S
Tb252 O304 2.349 . S
Tb252 O307 2.393 . S
Tb252 C316 2.802 . S
C253 N254 1.379 . S
C253 C256 1.416 . S
C253 C260 1.424 . S
N254 C253 1.379 . S
N254 C257 1.334 . S
N254 Tb263 2.617 . S
C255 C257 1.390 1_455 S
C255 C258 1.339 1_455 S
C255 H275 0.930 . S
C256 C253 1.416 . S
C256 C258 1.416 . S
C256 C262 1.448 . S
C257 N254 1.334 . S
C257 C255 1.390 1_655 S
C257 H268 0.930 . S
C258 C255 1.339 1_655 S
C258 C256 1.416 . S
C258 H279 0.930 1_655 S
C259 C260 1.413 . S
C259 C261 1.427 . S
C259 C265 1.416 . S
C260 C253 1.424 . S
C260 C259 1.413 . S
C260 N264 1.361 . S
C261 C259 1.427 . S
C261 C262 1.328 . S
C261 H276 0.929 . S
C262 C256 1.448 . S
C262 C261 1.328 . S
C262 H277 0.930 . S
Tb263 N254 2.617 . S
Tb263 N264 2.572 . S
Tb263 O298 2.349 . S
Tb263 O301 2.393 . S
Tb263 O302 2.465 1_556 S
Tb263 O303 2.387 . S
Tb263 O305 2.428 1_556 S
Tb263 O306 2.308 . S
Tb263 C327 2.802 1_556 S
N264 C260 1.361 . S
N264 Tb263 2.572 . S
N264 C266 1.340 . S
C265 C259 1.416 . S
C265 C267 1.332 . S
C265 H273 0.931 . S
C266 N264 1.340 . S
C266 C267 1.407 . S
C266 H272 0.930 . S
C267 C265 1.332 . S
C267 C266 1.407 . S
C267 H269 0.929 . S
H268 C257 0.930 . S
H269 C267 0.929 . S
H270 C285 0.930 . S
H271 C292 0.929 . S
H272 C266 0.930 . S
H273 C265 0.931 . S
H274 C288 0.930 . S
H275 C255 0.930 . S
H276 C261 0.929 . S
H277 C262 0.930 . S
H278 C283 0.930 . S
H279 C258 0.930 1_455 S
H280 C291 0.931 . S
N281 Tb252 2.617 . S
N281 C282 1.379 . S
N281 C285 1.334 . S
C282 N281 1.379 . S
C282 C284 1.416 . S
C282 C290 1.424 . S
C283 H278 0.930 . S
C283 C285 1.390 . S
C283 C286 1.339 . S
C284 C282 1.416 . S
C284 C286 1.416 . S
C284 C317 1.448 . S
C285 H270 0.930 . S
C285 N281 1.334 . S
C285 C283 1.390 . S
C286 C283 1.339 . S
C286 C284 1.416 . S
C286 H293 0.930 . S
N287 Tb252 2.572 . S
N287 C288 1.340 . S
N287 C290 1.361 . S
C288 H274 0.930 . S
C288 N287 1.340 . S
C288 C292 1.407 . S
C289 C290 1.413 . S
C289 C291 1.416 . S
C289 C318 1.427 . S
C290 C282 1.424 . S
C290 N287 1.361 . S
C290 C289 1.413 . S
C291 H280 0.931 . S
C291 C289 1.416 . S
C291 C292 1.332 . S
C292 H271 0.929 . S
C292 C288 1.407 . S
C292 C291 1.332 . S
H293 C286 0.930 . S
H294 C317 0.930 . S
H295 C318 0.929 . S
O296 Tb252 2.465 . S
O296 C316 1.264 . S
O297 Tb252 2.387 . S
O297 C308 1.264 . S
O298 Tb263 2.349 . S
O298 C308 1.243 . S
O299 Tb252 2.428 . S
O299 C316 1.256 . S
O300 Tb252 2.308 . S
O300 C315 1.266 . S
O301 Tb263 2.393 . S
O301 C315 1.248 . S
O302 Tb263 2.465 1_554 S
O302 C327 1.264 . S
O303 Tb263 2.387 . S
O303 C319 1.264 . S
O304 Tb252 2.349 . S
O304 C319 1.243 . S
O305 Tb263 2.428 1_554 S
O305 C327 1.256 . S
O306 Tb263 2.308 . S
O306 C326 1.266 . S
O307 Tb252 2.393 . S
O307 C326 1.248 . S
C308 O297 1.264 . S
C308 O298 1.243 . S
C309 C312 1.399 . S
C309 C314 1.383 . S
C309 C316 1.496 . S
C310 C311 1.399 . S
C310 C314 1.389 . S
C311 C310 1.399 . S
C311 C313 1.380 . S
C311 H328 0.929 . S
C312 C309 1.399 . S
C312 C313 1.392 . S
C312 H329 0.929 . S
C313 C311 1.380 . S
C313 C312 1.392 . S
C313 H330 0.929 . S
C314 C309 1.383 . S
C314 C310 1.389 . S
C314 H331 0.931 . S
C315 O300 1.266 . S
C315 O301 1.248 . S
C316 Tb252 2.802 . S
C316 O296 1.264 . S
C316 O299 1.256 . S
C316 C309 1.496 . S
C317 C284 1.448 . S
C317 H294 0.930 . S
C317 C318 1.328 . S
C318 C289 1.427 . S
C318 H295 0.929 . S
C318 C317 1.328 . S
C319 O303 1.264 . S
C319 O304 1.243 . S
C320 C323 1.399 . S
C320 C324 1.383 . S
C320 C327 1.496 . S
C321 C322 1.399 . S
C321 C324 1.389 . S
C322 C321 1.399 . S
C322 C325 1.380 . S
C322 H332 0.929 . S
C323 C320 1.399 . S
C323 C325 1.392 . S
C323 H333 0.929 . S
C324 C320 1.383 . S
C324 C321 1.389 . S
C324 H334 0.931 . S
C325 C322 1.380 . S
C325 C323 1.392 . S
C325 H335 0.929 . S
C326 O306 1.266 . S
C326 O307 1.248 . S
C327 Tb263 2.802 1_554 S
C327 O302 1.264 . S
C327 O305 1.256 . S
C327 C320 1.496 . S
H328 C311 0.929 . S
H329 C312 0.929 . S
H330 C313 0.929 . S
H331 C314 0.931 . S
H332 C322 0.929 . S
H333 C323 0.929 . S
H334 C324 0.931 . S
H335 C325 0.929 . S
Tb336 N365 2.617 . S
Tb336 N371 2.572 . S
Tb336 O380 2.465 . S
Tb336 O381 2.387 . S
Tb336 O383 2.428 . S
Tb336 O384 2.308 . S
Tb336 O388 2.349 . S
Tb336 O391 2.393 . S
Tb336 C400 2.802 . S
C337 N338 1.379 . S
C337 C340 1.416 . S
C337 C344 1.424 . S
N338 C337 1.379 . S
N338 C341 1.334 . S
N338 Tb347 2.617 . S
C339 C341 1.390 . S
C339 C342 1.339 . S
C339 H359 0.930 . S
C340 C337 1.416 . S
C340 C342 1.416 . S
C340 C346 1.448 . S
C341 N338 1.334 . S
C341 C339 1.390 . S
C341 H352 0.930 . S
C342 C339 1.339 . S
C342 C340 1.416 . S
C342 H363 0.930 . S
C343 C344 1.413 . S
C343 C345 1.427 . S
C343 C349 1.416 . S
C344 C337 1.424 . S
C344 C343 1.413 . S
C344 N348 1.361 . S
C345 C343 1.427 . S
C345 C346 1.328 . S
C345 H360 0.929 . S
C346 C340 1.448 . S
C346 C345 1.328 . S
C346 H361 0.930 . S
Tb347 N338 2.617 . S
Tb347 N348 2.572 . S
Tb347 O382 2.349 . S
Tb347 O385 2.393 . S
Tb347 O386 2.465 1_554 S
Tb347 O387 2.387 . S
Tb347 O389 2.428 1_554 S
Tb347 O390 2.308 . S
Tb347 C411 2.802 1_554 S
N348 C344 1.361 . S
N348 Tb347 2.572 . S
N348 C350 1.340 . S
C349 C343 1.416 . S
C349 C351 1.332 . S
C349 H357 0.931 . S
C350 N348 1.340 . S
C350 C351 1.407 . S
C350 H356 0.930 . S
C351 C349 1.332 . S
C351 C350 1.407 . S
C351 H353 0.929 . S
H352 C341 0.930 . S
H353 C351 0.929 . S
H354 C369 0.930 . S
H355 C376 0.929 . S
H356 C350 0.930 . S
H357 C349 0.931 . S
H358 C372 0.930 . S
H359 C339 0.930 . S
H360 C345 0.929 . S
H361 C346 0.930 . S
H362 C367 0.930 . S
H363 C342 0.930 . S
H364 C375 0.931 . S
N365 Tb336 2.617 . S
N365 C366 1.379 . S
N365 C369 1.334 . S
C366 N365 1.379 . S
C366 C368 1.416 . S
C366 C374 1.424 . S
C367 H362 0.930 . S
C367 C369 1.390 . S
C367 C370 1.339 . S
C368 C366 1.416 . S
C368 C370 1.416 . S
C368 C401 1.448 . S
C369 H354 0.930 . S
C369 N365 1.334 . S
C369 C367 1.390 . S
C370 C367 1.339 . S
C370 C368 1.416 . S
C370 H377 0.930 . S
N371 Tb336 2.572 . S
N371 C372 1.340 . S
N371 C374 1.361 . S
C372 H358 0.930 . S
C372 N371 1.340 . S
C372 C376 1.407 . S
C373 C374 1.413 . S
C373 C375 1.416 . S
C373 C402 1.427 . S
C374 C366 1.424 . S
C374 N371 1.361 . S
C374 C373 1.413 . S
C375 H364 0.931 . S
C375 C373 1.416 . S
C375 C376 1.332 . S
C376 H355 0.929 . S
C376 C372 1.407 . S
C376 C375 1.332 . S
H377 C370 0.930 . S
H378 C401 0.930 . S
H379 C402 0.929 . S
O380 Tb336 2.465 . S
O380 C400 1.264 . S
O381 Tb336 2.387 . S
O381 C392 1.264 . S
O382 Tb347 2.349 . S
O382 C392 1.243 . S
O383 Tb336 2.428 . S
O383 C400 1.256 . S
O384 Tb336 2.308 . S
O384 C399 1.266 . S
O385 Tb347 2.393 . S
O385 C399 1.248 . S
O386 Tb347 2.465 1_556 S
O386 C411 1.264 . S
O387 Tb347 2.387 . S
O387 C403 1.264 . S
O388 Tb336 2.349 . S
O388 C403 1.243 . S
O389 Tb347 2.428 1_556 S
O389 C411 1.256 . S
O390 Tb347 2.308 . S
O390 C410 1.266 . S
O391 Tb336 2.393 . S
O391 C410 1.248 . S
C392 O381 1.264 . S
C392 O382 1.243 . S
C393 C396 1.399 . S
C393 C398 1.383 . S
C393 C400 1.496 . S
C394 C395 1.399 . S
C394 C398 1.389 . S
C395 C394 1.399 . S
C395 C397 1.380 . S
C395 H412 0.929 . S
C396 C393 1.399 . S
C396 C397 1.392 . S
C396 H413 0.929 . S
C397 C395 1.380 . S
C397 C396 1.392 . S
C397 H414 0.929 . S
C398 C393 1.383 . S
C398 C394 1.389 . S
C398 H415 0.931 . S
C399 O384 1.266 . S
C399 O385 1.248 . S
C400 Tb336 2.802 . S
C400 O380 1.264 . S
C400 O383 1.256 . S
C400 C393 1.496 . S
C401 C368 1.448 . S
C401 H378 0.930 . S
C401 C402 1.328 . S
C402 C373 1.427 . S
C402 H379 0.929 . S
C402 C401 1.328 . S
C403 O387 1.264 . S
C403 O388 1.243 . S
C404 C407 1.399 . S
C404 C408 1.383 . S
C404 C411 1.496 . S
C405 C406 1.399 . S
C405 C408 1.389 . S
C406 C405 1.399 . S
C406 C409 1.380 . S
C406 H416 0.929 . S
C407 C404 1.399 . S
C407 C409 1.392 . S
C407 H417 0.929 . S
C408 C404 1.383 . S
C408 C405 1.389 . S
C408 H418 0.931 . S
C409 C406 1.380 . S
C409 C407 1.392 . S
C409 H419 0.929 . S
C410 O390 1.266 . S
C410 O391 1.248 . S
C411 Tb347 2.802 1_556 S
C411 O386 1.264 . S
C411 O389 1.256 . S
C411 C404 1.496 . S
H412 C395 0.929 . S
H413 C396 0.929 . S
H414 C397 0.929 . S
H415 C398 0.931 . S
H416 C406 0.929 . S
H417 C407 0.929 . S
H418 C408 0.931 . S
H419 C409 0.929 . S
Tb420 N449 2.617 . S
Tb420 N455 2.572 . S
Tb420 O464 2.465 1_556 S
Tb420 O465 2.387 . S
Tb420 O467 2.428 1_556 S
Tb420 O468 2.308 . S
Tb420 O472 2.349 . S
Tb420 O475 2.393 . S
Tb420 C484 2.802 1_556 S
C421 N422 1.379 . S
C421 C424 1.416 . S
C421 C428 1.424 . S
N422 C421 1.379 . S
N422 C425 1.334 . S
N422 Tb431 2.617 . S
C423 C425 1.390 . S
C423 C426 1.339 . S
C423 H443 0.930 . S
C424 C421 1.416 . S
C424 C426 1.416 . S
C424 C430 1.448 . S
C425 N422 1.334 . S
C425 C423 1.390 . S
C425 H436 0.930 . S
C426 C423 1.339 . S
C426 C424 1.416 . S
C426 H447 0.930 . S
C427 C428 1.413 . S
C427 C429 1.427 . S
C427 C433 1.416 . S
C428 C421 1.424 . S
C428 C427 1.413 . S
C428 N432 1.361 . S
C429 C427 1.427 . S
C429 C430 1.328 . S
C429 H444 0.929 . S
C430 C424 1.448 . S
C430 C429 1.328 . S
C430 H445 0.930 . S
Tb431 N422 2.617 . S
Tb431 N432 2.572 . S
Tb431 O466 2.349 . S
Tb431 O469 2.393 . S
Tb431 O470 2.465 . S
Tb431 O471 2.387 . S
Tb431 O473 2.428 . S
Tb431 O474 2.308 . S
Tb431 C495 2.802 . S
N432 C428 1.361 . S
N432 Tb431 2.572 . S
N432 C434 1.340 . S
C433 C427 1.416 . S
C433 C435 1.332 . S
C433 H441 0.931 . S
C434 N432 1.340 . S
C434 C435 1.407 . S
C434 H440 0.930 . S
C435 C433 1.332 . S
C435 C434 1.407 . S
C435 H437 0.929 . S
H436 C425 0.930 . S
H437 C435 0.929 . S
H438 C453 0.930 . S
H439 C460 0.929 . S
H440 C434 0.930 . S
H441 C433 0.931 . S
H442 C456 0.930 . S
H443 C423 0.930 . S
H444 C429 0.929 . S
H445 C430 0.930 . S
H446 C451 0.930 . S
H447 C426 0.930 . S
H448 C459 0.931 . S
N449 Tb420 2.617 . S
N449 C450 1.379 . S
N449 C453 1.334 . S
C450 N449 1.379 . S
C450 C452 1.416 . S
C450 C458 1.424 . S
C451 H446 0.930 . S
C451 C453 1.390 . S
C451 C454 1.339 . S
C452 C450 1.416 . S
C452 C454 1.416 . S
C452 C485 1.448 . S
C453 H438 0.930 . S
C453 N449 1.334 . S
C453 C451 1.390 . S
C454 C451 1.339 . S
C454 C452 1.416 . S
C454 H461 0.930 . S
N455 Tb420 2.572 . S
N455 C456 1.340 . S
N455 C458 1.361 . S
C456 H442 0.930 . S
C456 N455 1.340 . S
C456 C460 1.407 . S
C457 C458 1.413 . S
C457 C459 1.416 . S
C457 C486 1.427 . S
C458 C450 1.424 . S
C458 N455 1.361 . S
C458 C457 1.413 . S
C459 H448 0.931 . S
C459 C457 1.416 . S
C459 C460 1.332 . S
C460 H439 0.929 . S
C460 C456 1.407 . S
C460 C459 1.332 . S
H461 C454 0.930 . S
H462 C485 0.930 . S
H463 C486 0.929 . S
O464 Tb420 2.465 1_554 S
O464 C484 1.264 . S
O465 Tb420 2.387 . S
O465 C476 1.264 . S
O466 Tb431 2.349 . S
O466 C476 1.243 . S
O467 Tb420 2.428 1_554 S
O467 C484 1.256 . S
O468 Tb420 2.308 . S
O468 C483 1.266 . S
O469 Tb431 2.393 . S
O469 C483 1.248 . S
O470 Tb431 2.465 . S
O470 C495 1.264 . S
O471 Tb431 2.387 . S
O471 C487 1.264 . S
O472 Tb420 2.349 . S
O472 C487 1.243 . S
O473 Tb431 2.428 . S
O473 C495 1.256 . S
O474 Tb431 2.308 . S
O474 C494 1.266 . S
O475 Tb420 2.393 . S
O475 C494 1.248 . S
C476 O465 1.264 . S
C476 O466 1.243 . S
C477 C480 1.399 . S
C477 C482 1.383 . S
C477 C484 1.496 . S
C478 C479 1.399 . S
C478 C482 1.389 . S
C479 C478 1.399 . S
C479 C481 1.380 . S
C479 H496 0.929 . S
C480 C477 1.399 . S
C480 C481 1.392 . S
C480 H497 0.929 . S
C481 C479 1.380 . S
C481 C480 1.392 . S
C481 H498 0.929 . S
C482 C477 1.383 . S
C482 C478 1.389 . S
C482 H499 0.931 . S
C483 O468 1.266 . S
C483 O469 1.248 . S
C484 Tb420 2.802 1_554 S
C484 O464 1.264 . S
C484 O467 1.256 . S
C484 C477 1.496 . S
C485 C452 1.448 . S
C485 H462 0.930 . S
C485 C486 1.328 . S
C486 C457 1.427 . S
C486 H463 0.929 . S
C486 C485 1.328 . S
C487 O471 1.264 . S
C487 O472 1.243 . S
C488 C491 1.399 . S
C488 C492 1.383 . S
C488 C495 1.496 . S
C489 C490 1.399 . S
C489 C492 1.389 . S
C490 C489 1.399 . S
C490 C493 1.380 . S
C490 H500 0.929 . S
C491 C488 1.399 . S
C491 C493 1.392 . S
C491 H501 0.929 . S
C492 C488 1.383 . S
C492 C489 1.389 . S
C492 H502 0.931 . S
C493 C490 1.380 . S
C493 C491 1.392 . S
C493 H503 0.929 . S
C494 O474 1.266 . S
C494 O475 1.248 . S
C495 Tb431 2.802 . S
C495 O470 1.264 . S
C495 O473 1.256 . S
C495 C488 1.496 . S
H496 C479 0.929 . S
H497 C480 0.929 . S
H498 C481 0.929 . S
H499 C482 0.931 . S
H500 C490 0.929 . S
H501 C491 0.929 . S
H502 C492 0.931 . S
H503 C493 0.929 . S
Tb504 N533 2.617 . S
Tb504 N539 2.572 . S
Tb504 O548 2.465 . S
Tb504 O549 2.387 . S
Tb504 O551 2.428 . S
Tb504 O552 2.308 . S
Tb504 O556 2.349 . S
Tb504 O559 2.393 . S
Tb504 C568 2.802 . S
C505 N506 1.379 . S
C505 C508 1.416 . S
C505 C512 1.424 . S
N506 C505 1.379 . S
N506 C509 1.334 . S
N506 Tb515 2.617 . S
C507 C509 1.390 . S
C507 C510 1.339 . S
C507 H527 0.930 . S
C508 C505 1.416 . S
C508 C510 1.416 . S
C508 C514 1.448 . S
C509 N506 1.334 . S
C509 C507 1.390 . S
C509 H520 0.930 . S
C510 C507 1.339 . S
C510 C508 1.416 . S
C510 H531 0.930 . S
C511 C512 1.413 . S
C511 C513 1.427 . S
C511 C517 1.416 . S
C512 C505 1.424 . S
C512 C511 1.413 . S
C512 N516 1.361 . S
C513 C511 1.427 . S
C513 C514 1.328 . S
C513 H528 0.929 . S
C514 C508 1.448 . S
C514 C513 1.328 . S
C514 H529 0.930 . S
Tb515 N506 2.617 . S
Tb515 N516 2.572 . S
Tb515 O550 2.349 . S
Tb515 O553 2.393 . S
Tb515 O554 2.465 1_554 S
Tb515 O555 2.387 . S
Tb515 O557 2.428 1_554 S
Tb515 O558 2.308 . S
Tb515 C579 2.802 1_554 S
N516 C512 1.361 . S
N516 Tb515 2.572 . S
N516 C518 1.340 . S
C517 C511 1.416 . S
C517 C519 1.332 . S
C517 H525 0.931 . S
C518 N516 1.340 . S
C518 C519 1.407 . S
C518 H524 0.930 . S
C519 C517 1.332 . S
C519 C518 1.407 . S
C519 H521 0.929 . S
H520 C509 0.930 . S
H521 C519 0.929 . S
H522 C537 0.930 . S
H523 C544 0.929 . S
H524 C518 0.930 . S
H525 C517 0.931 . S
H526 C540 0.930 . S
H527 C507 0.930 . S
H528 C513 0.929 . S
H529 C514 0.930 . S
H530 C535 0.930 . S
H531 C510 0.930 . S
H532 C543 0.931 . S
N533 Tb504 2.617 . S
N533 C534 1.379 . S
N533 C537 1.334 . S
C534 N533 1.379 . S
C534 C536 1.416 . S
C534 C542 1.424 . S
C535 H530 0.930 . S
C535 C537 1.390 . S
C535 C538 1.339 . S
C536 C534 1.416 . S
C536 C538 1.416 . S
C536 C569 1.448 . S
C537 H522 0.930 . S
C537 N533 1.334 . S
C537 C535 1.390 . S
C538 C535 1.339 . S
C538 C536 1.416 . S
C538 H545 0.930 . S
N539 Tb504 2.572 . S
N539 C540 1.340 . S
N539 C542 1.361 . S
C540 H526 0.930 . S
C540 N539 1.340 . S
C540 C544 1.407 . S
C541 C542 1.413 . S
C541 C543 1.416 . S
C541 C570 1.427 . S
C542 C534 1.424 . S
C542 N539 1.361 . S
C542 C541 1.413 . S
C543 H532 0.931 . S
C543 C541 1.416 . S
C543 C544 1.332 . S
C544 H523 0.929 . S
C544 C540 1.407 . S
C544 C543 1.332 . S
H545 C538 0.930 . S
H546 C569 0.930 . S
H547 C570 0.929 . S
O548 Tb504 2.465 . S
O548 C568 1.264 . S
O549 Tb504 2.387 . S
O549 C560 1.264 . S
O550 Tb515 2.349 . S
O550 C560 1.243 . S
O551 Tb504 2.428 . S
O551 C568 1.256 . S
O552 Tb504 2.308 . S
O552 C567 1.266 . S
O553 Tb515 2.393 . S
O553 C567 1.248 . S
O554 Tb515 2.465 1_556 S
O554 C579 1.264 . S
O555 Tb515 2.387 . S
O555 C571 1.264 . S
O556 Tb504 2.349 . S
O556 C571 1.243 . S
O557 Tb515 2.428 1_556 S
O557 C579 1.256 . S
O558 Tb515 2.308 . S
O558 C578 1.266 . S
O559 Tb504 2.393 . S
O559 C578 1.248 . S
C560 O549 1.264 . S
C560 O550 1.243 . S
C561 C564 1.399 . S
C561 C566 1.383 . S
C561 C568 1.496 . S
C562 C563 1.399 . S
C562 C566 1.389 . S
C563 C562 1.399 . S
C563 C565 1.380 . S
C563 H580 0.929 . S
C564 C561 1.399 . S
C564 C565 1.392 . S
C564 H581 0.929 . S
C565 C563 1.380 . S
C565 C564 1.392 . S
C565 H582 0.929 . S
C566 C561 1.383 . S
C566 C562 1.389 . S
C566 H583 0.931 . S
C567 O552 1.266 . S
C567 O553 1.248 . S
C568 Tb504 2.802 . S
C568 O548 1.264 . S
C568 O551 1.256 . S
C568 C561 1.496 . S
C569 C536 1.448 . S
C569 H546 0.930 . S
C569 C570 1.328 . S
C570 C541 1.427 . S
C570 H547 0.929 . S
C570 C569 1.328 . S
C571 O555 1.264 . S
C571 O556 1.243 . S
C572 C575 1.399 . S
C572 C576 1.383 . S
C572 C579 1.496 . S
C573 C574 1.399 . S
C573 C576 1.389 . S
C574 C573 1.399 . S
C574 C577 1.380 . S
C574 H584 0.929 . S
C575 C572 1.399 . S
C575 C577 1.392 . S
C575 H585 0.929 . S
C576 C572 1.383 . S
C576 C573 1.389 . S
C576 H586 0.931 . S
C577 C574 1.380 . S
C577 C575 1.392 . S
C577 H587 0.929 . S
C578 O558 1.266 . S
C578 O559 1.248 . S
C579 Tb515 2.802 1_556 S
C579 O554 1.264 . S
C579 O557 1.256 . S
C579 C572 1.496 . S
H580 C563 0.929 . S
H581 C564 0.929 . S
H582 C565 0.929 . S
H583 C566 0.931 . S
H584 C574 0.929 . S
H585 C575 0.929 . S
H586 C576 0.931 . S
H587 C577 0.929 . S
Tb588 N617 2.617 . S
Tb588 N623 2.572 . S
Tb588 O632 2.465 1_556 S
Tb588 O633 2.387 . S
Tb588 O635 2.428 1_556 S
Tb588 O636 2.308 . S
Tb588 O640 2.349 . S
Tb588 O643 2.393 . S
Tb588 C652 2.802 1_556 S
C589 N590 1.379 . S
C589 C592 1.416 . S
C589 C596 1.424 . S
N590 C589 1.379 . S
N590 C593 1.334 . S
N590 Tb599 2.617 . S
C591 C593 1.390 . S
C591 C594 1.339 . S
C591 H611 0.930 . S
C592 C589 1.416 . S
C592 C594 1.416 . S
C592 C598 1.448 . S
C593 N590 1.334 . S
C593 C591 1.390 . S
C593 H604 0.930 . S
C594 C591 1.339 . S
C594 C592 1.416 . S
C594 H615 0.930 . S
C595 C596 1.413 . S
C595 C597 1.427 . S
C595 C601 1.416 . S
C596 C589 1.424 . S
C596 C595 1.413 . S
C596 N600 1.361 . S
C597 C595 1.427 . S
C597 C598 1.328 . S
C597 H612 0.929 . S
C598 C592 1.448 . S
C598 C597 1.328 . S
C598 H613 0.930 . S
Tb599 N590 2.617 . S
Tb599 N600 2.572 . S
Tb599 O634 2.349 . S
Tb599 O637 2.393 . S
Tb599 O638 2.465 . S
Tb599 O639 2.387 . S
Tb599 O641 2.428 . S
Tb599 O642 2.308 . S
Tb599 C663 2.802 . S
N600 C596 1.361 . S
N600 Tb599 2.572 . S
N600 C602 1.340 . S
C601 C595 1.416 . S
C601 C603 1.332 . S
C601 H609 0.931 . S
C602 N600 1.340 . S
C602 C603 1.407 . S
C602 H608 0.930 . S
C603 C601 1.332 . S
C603 C602 1.407 . S
C603 H605 0.929 . S
H604 C593 0.930 . S
H605 C603 0.929 . S
H606 C621 0.930 . S
H607 C628 0.929 . S
H608 C602 0.930 . S
H609 C601 0.931 . S
H610 C624 0.930 . S
H611 C591 0.930 . S
H612 C597 0.929 . S
H613 C598 0.930 . S
H614 C619 0.930 . S
H615 C594 0.930 . S
H616 C627 0.931 . S
N617 Tb588 2.617 . S
N617 C618 1.379 . S
N617 C621 1.334 . S
C618 N617 1.379 . S
C618 C620 1.416 . S
C618 C626 1.424 . S
C619 H614 0.930 . S
C619 C621 1.390 . S
C619 C622 1.339 . S
C620 C618 1.416 . S
C620 C622 1.416 . S
C620 C653 1.448 . S
C621 H606 0.930 . S
C621 N617 1.334 . S
C621 C619 1.390 . S
C622 C619 1.339 . S
C622 C620 1.416 . S
C622 H629 0.930 . S
N623 Tb588 2.572 . S
N623 C624 1.340 . S
N623 C626 1.361 . S
C624 H610 0.930 . S
C624 N623 1.340 . S
C624 C628 1.407 . S
C625 C626 1.413 . S
C625 C627 1.416 . S
C625 C654 1.427 . S
C626 C618 1.424 . S
C626 N623 1.361 . S
C626 C625 1.413 . S
C627 H616 0.931 . S
C627 C625 1.416 . S
C627 C628 1.332 . S
C628 H607 0.929 . S
C628 C624 1.407 . S
C628 C627 1.332 . S
H629 C622 0.930 . S
H630 C653 0.930 . S
H631 C654 0.929 . S
O632 Tb588 2.465 1_554 S
O632 C652 1.264 . S
O633 Tb588 2.387 . S
O633 C644 1.264 . S
O634 Tb599 2.349 . S
O634 C644 1.243 . S
O635 Tb588 2.428 1_554 S
O635 C652 1.256 . S
O636 Tb588 2.308 . S
O636 C651 1.266 . S
O637 Tb599 2.393 . S
O637 C651 1.248 . S
O638 Tb599 2.465 . S
O638 C663 1.264 . S
O639 Tb599 2.387 . S
O639 C655 1.264 . S
O640 Tb588 2.349 . S
O640 C655 1.243 . S
O641 Tb599 2.428 . S
O641 C663 1.256 . S
O642 Tb599 2.308 . S
O642 C662 1.266 . S
O643 Tb588 2.393 . S
O643 C662 1.248 . S
C644 O633 1.264 . S
C644 O634 1.243 . S
C645 C648 1.399 . S
C645 C650 1.383 . S
C645 C652 1.496 . S
C646 C647 1.399 . S
C646 C650 1.389 . S
C647 C646 1.399 . S
C647 C649 1.380 . S
C647 H664 0.929 . S
C648 C645 1.399 . S
C648 C649 1.392 . S
C648 H665 0.929 . S
C649 C647 1.380 . S
C649 C648 1.392 . S
C649 H666 0.929 . S
C650 C645 1.383 . S
C650 C646 1.389 . S
C650 H667 0.931 . S
C651 O636 1.266 . S
C651 O637 1.248 . S
C652 Tb588 2.802 1_554 S
C652 O632 1.264 . S
C652 O635 1.256 . S
C652 C645 1.496 . S
C653 C620 1.448 . S
C653 H630 0.930 . S
C653 C654 1.328 . S
C654 C625 1.427 . S
C654 H631 0.929 . S
C654 C653 1.328 . S
C655 O639 1.264 . S
C655 O640 1.243 . S
C656 C659 1.399 . S
C656 C660 1.383 . S
C656 C663 1.496 . S
C657 C658 1.399 . S
C657 C660 1.389 . S
C658 C657 1.399 . S
C658 C661 1.380 . S
C658 H668 0.929 . S
C659 C656 1.399 . S
C659 C661 1.392 . S
C659 H669 0.929 . S
C660 C656 1.383 . S
C660 C657 1.389 . S
C660 H670 0.931 . S
C661 C658 1.380 . S
C661 C659 1.392 . S
C661 H671 0.929 . S
C662 O642 1.266 . S
C662 O643 1.248 . S
C663 Tb599 2.802 . S
C663 O638 1.264 . S
C663 O641 1.256 . S
C663 C656 1.496 . S
H664 C647 0.929 . S
H665 C648 0.929 . S
H666 C649 0.929 . S
H667 C650 0.931 . S
H668 C658 0.929 . S
H669 C659 0.929 . S
H670 C660 0.931 . S
H671 C661 0.929 . S
Tb672 N701 2.617 . S
Tb672 N707 2.572 . S
Tb672 O716 2.465 . S
Tb672 O717 2.387 . S
Tb672 O719 2.428 . S
Tb672 O720 2.308 . S
Tb672 O724 2.349 . S
Tb672 O727 2.393 . S
Tb672 C736 2.802 . S
C673 N674 1.379 . S
C673 C676 1.416 . S
C673 C680 1.424 . S
N674 C673 1.379 . S
N674 C677 1.334 . S
N674 Tb683 2.617 . S
C675 C677 1.390 . S
C675 C678 1.339 . S
C675 H695 0.930 . S
C676 C673 1.416 . S
C676 C678 1.416 . S
C676 C682 1.448 . S
C677 N674 1.334 . S
C677 C675 1.390 . S
C677 H688 0.930 . S
C678 C675 1.339 . S
C678 C676 1.416 . S
C678 H699 0.930 . S
C679 C680 1.413 . S
C679 C681 1.427 . S
C679 C685 1.416 . S
C680 C673 1.424 . S
C680 C679 1.413 . S
C680 N684 1.361 . S
C681 C679 1.427 . S
C681 C682 1.328 . S
C681 H696 0.929 . S
C682 C676 1.448 . S
C682 C681 1.328 . S
C682 H697 0.930 . S
Tb683 N674 2.617 . S
Tb683 N684 2.572 . S
Tb683 O718 2.349 . S
Tb683 O721 2.393 . S
Tb683 O722 2.465 . S
Tb683 O723 2.387 . S
Tb683 O725 2.428 . S
Tb683 O726 2.308 . S
Tb683 C747 2.802 . S
N684 C680 1.361 . S
N684 Tb683 2.572 . S
N684 C686 1.340 . S
C685 C679 1.416 . S
C685 C687 1.332 . S
C685 H693 0.931 . S
C686 N684 1.340 . S
C686 C687 1.407 . S
C686 H692 0.930 . S
C687 C685 1.332 . S
C687 C686 1.407 . S
C687 H689 0.929 . S
H688 C677 0.930 . S
H689 C687 0.929 . S
H690 C705 0.930 . S
H691 C712 0.929 . S
H692 C686 0.930 . S
H693 C685 0.931 . S
H694 C708 0.930 . S
H695 C675 0.930 . S
H696 C681 0.929 . S
H697 C682 0.930 . S
H698 C703 0.930 . S
H699 C678 0.930 . S
H700 C711 0.931 1_455 S
N701 Tb672 2.617 . S
N701 C702 1.379 . S
N701 C705 1.334 . S
C702 N701 1.379 . S
C702 C704 1.416 . S
C702 C710 1.424 . S
C703 H698 0.930 . S
C703 C705 1.390 . S
C703 C706 1.339 . S
C704 C702 1.416 . S
C704 C706 1.416 . S
C704 C737 1.448 1_655 S
C705 H690 0.930 . S
C705 N701 1.334 . S
C705 C703 1.390 . S
C706 C703 1.339 . S
C706 C704 1.416 . S
C706 H713 0.930 1_655 S
N707 Tb672 2.572 . S
N707 C708 1.340 . S
N707 C710 1.361 . S
C708 H694 0.930 . S
C708 N707 1.340 . S
C708 C712 1.407 . S
C709 C710 1.413 . S
C709 C711 1.416 . S
C709 C738 1.427 1_655 S
C710 C702 1.424 . S
C710 N707 1.361 . S
C710 C709 1.413 . S
C711 H700 0.931 1_655 S
C711 C709 1.416 . S
C711 C712 1.332 . S
C712 H691 0.929 . S
C712 C708 1.407 . S
C712 C711 1.332 . S
H713 C706 0.930 1_455 S
H714 C737 0.930 . S
H715 C738 0.929 . S
O716 Tb672 2.465 . S
O716 C736 1.264 . S
O717 Tb672 2.387 . S
O717 C728 1.264 . S
O718 Tb683 2.349 . S
O718 C728 1.243 . S
O719 Tb672 2.428 . S
O719 C736 1.256 . S
O720 Tb672 2.308 . S
O720 C735 1.266 . S
O721 Tb683 2.393 . S
O721 C735 1.248 . S
O722 Tb683 2.465 . S
O722 C747 1.264 . S
O723 Tb683 2.387 . S
O723 C739 1.264 . S
O724 Tb672 2.349 . S
O724 C739 1.243 . S
O725 Tb683 2.428 . S
O725 C747 1.256 . S
O726 Tb683 2.308 . S
O726 C746 1.266 . S
O727 Tb672 2.393 . S
O727 C746 1.248 . S
C728 O717 1.264 . S
C728 O718 1.243 . S
C729 C732 1.399 . S
C729 C734 1.383 . S
C729 C736 1.496 . S
C730 C731 1.399 . S
C730 C734 1.389 . S
C731 C730 1.399 . S
C731 C733 1.380 . S
C731 H748 0.929 . S
C732 C729 1.399 . S
C732 C733 1.392 . S
C732 H749 0.929 . S
C733 C731 1.380 . S
C733 C732 1.392 . S
C733 H750 0.929 . S
C734 C729 1.383 . S
C734 C730 1.389 . S
C734 H751 0.931 . S
C735 O720 1.266 . S
C735 O721 1.248 . S
C736 Tb672 2.802 . S
C736 O716 1.264 . S
C736 O719 1.256 . S
C736 C729 1.496 . S
C737 C704 1.448 1_455 S
C737 H714 0.930 . S
C737 C738 1.328 . S
C738 C709 1.427 1_455 S
C738 H715 0.929 . S
C738 C737 1.328 . S
C739 O723 1.264 . S
C739 O724 1.243 . S
C740 C743 1.399 . S
C740 C744 1.383 . S
C740 C747 1.496 . S
C741 C742 1.399 . S
C741 C744 1.389 1_554 S
C742 C741 1.399 . S
C742 C745 1.380 . S
C742 H752 0.929 . S
C743 C740 1.399 . S
C743 C745 1.392 1_556 S
C743 H753 0.929 . S
C744 C740 1.383 . S
C744 C741 1.389 1_556 S
C744 H754 0.931 . S
C745 C742 1.380 . S
C745 C743 1.392 1_554 S
C745 H755 0.929 . S
C746 O726 1.266 . S
C746 O727 1.248 . S
C747 Tb683 2.802 . S
C747 O722 1.264 . S
C747 O725 1.256 . S
C747 C740 1.496 . S
H748 C731 0.929 . S
H749 C732 0.929 . S
H750 C733 0.929 . S
H751 C734 0.931 . S
H752 C742 0.929 . S
H753 C743 0.929 . S
H754 C744 0.931 . S
H755 C745 0.929 . S
Tb756 N785 2.617 . S
Tb756 N791 2.572 . S
Tb756 O800 2.465 . S
Tb756 O801 2.387 . S
Tb756 O803 2.428 . S
Tb756 O804 2.308 . S
Tb756 O808 2.349 . S
Tb756 O811 2.393 . S
Tb756 C820 2.802 . S
C757 N758 1.379 . S
C757 C760 1.416 . S
C757 C764 1.424 . S
N758 C757 1.379 . S
N758 C761 1.334 . S
N758 Tb767 2.617 . S
C759 C761 1.390 . S
C759 C762 1.339 . S
C759 H779 0.930 . S
C760 C757 1.416 . S
C760 C762 1.416 . S
C760 C766 1.448 1_545 S
C761 N758 1.334 . S
C761 C759 1.390 . S
C761 H772 0.930 . S
C762 C759 1.339 . S
C762 C760 1.416 . S
C762 H783 0.930 1_545 S
C763 C764 1.413 . S
C763 C765 1.427 1_545 S
C763 C769 1.416 . S
C764 C757 1.424 . S
C764 C763 1.413 . S
C764 N768 1.361 . S
C765 C763 1.427 1_565 S
C765 C766 1.328 . S
C765 H780 0.929 . S
C766 C760 1.448 1_565 S
C766 C765 1.328 . S
C766 H781 0.930 . S
Tb767 N758 2.617 . S
Tb767 N768 2.572 . S
Tb767 O802 2.349 . S
Tb767 O805 2.393 . S
Tb767 O806 2.465 . S
Tb767 O807 2.387 . S
Tb767 O809 2.428 . S
Tb767 O810 2.308 . S
Tb767 C831 2.802 . S
N768 C764 1.361 . S
N768 Tb767 2.572 . S
N768 C770 1.340 . S
C769 C763 1.416 . S
C769 C771 1.332 . S
C769 H777 0.931 1_545 S
C770 N768 1.340 . S
C770 C771 1.407 . S
C770 H776 0.930 . S
C771 C769 1.332 . S
C771 C770 1.407 . S
C771 H773 0.929 . S
H772 C761 0.930 . S
H773 C771 0.929 . S
H774 C789 0.930 . S
H775 C796 0.929 . S
H776 C770 0.930 . S
H777 C769 0.931 1_565 S
H778 C792 0.930 . S
H779 C759 0.930 . S
H780 C765 0.929 . S
H781 C766 0.930 . S
H782 C787 0.930 . S
H783 C762 0.930 1_565 S
H784 C795 0.931 . S
N785 Tb756 2.617 . S
N785 C786 1.379 . S
N785 C789 1.334 . S
C786 N785 1.379 . S
C786 C788 1.416 . S
C786 C794 1.424 . S
C787 H782 0.930 . S
C787 C789 1.390 . S
C787 C790 1.339 . S
C788 C786 1.416 . S
C788 C790 1.416 . S
C788 C821 1.448 . S
C789 H774 0.930 . S
C789 N785 1.334 . S
C789 C787 1.390 . S
C790 C787 1.339 . S
C790 C788 1.416 . S
C790 H797 0.930 . S
N791 Tb756 2.572 . S
N791 C792 1.340 . S
N791 C794 1.361 . S
C792 H778 0.930 . S
C792 N791 1.340 . S
C792 C796 1.407 . S
C793 C794 1.413 . S
C793 C795 1.416 . S
C793 C822 1.427 . S
C794 C786 1.424 . S
C794 N791 1.361 . S
C794 C793 1.413 . S
C795 H784 0.931 . S
C795 C793 1.416 . S
C795 C796 1.332 . S
C796 H775 0.929 . S
C796 C792 1.407 . S
C796 C795 1.332 . S
H797 C790 0.930 . S
H798 C821 0.930 . S
H799 C822 0.929 . S
O800 Tb756 2.465 . S
O800 C820 1.264 . S
O801 Tb756 2.387 . S
O801 C812 1.264 . S
O802 Tb767 2.349 . S
O802 C812 1.243 . S
O803 Tb756 2.428 . S
O803 C820 1.256 . S
O804 Tb756 2.308 . S
O804 C819 1.266 . S
O805 Tb767 2.393 . S
O805 C819 1.248 . S
O806 Tb767 2.465 . S
O806 C831 1.264 . S
O807 Tb767 2.387 . S
O807 C823 1.264 . S
O808 Tb756 2.349 . S
O808 C823 1.243 . S
O809 Tb767 2.428 . S
O809 C831 1.256 . S
O810 Tb767 2.308 . S
O810 C830 1.266 . S
O811 Tb756 2.393 . S
O811 C830 1.248 . S
C812 O801 1.264 . S
C812 O802 1.243 . S
C813 C816 1.399 . S
C813 C818 1.383 . S
C813 C820 1.496 . S
C814 C815 1.399 . S
C814 C818 1.389 1_556 S
C815 C814 1.399 . S
C815 C817 1.380 . S
C815 H832 0.929 . S
C816 C813 1.399 . S
C816 C817 1.392 1_554 S
C816 H833 0.929 . S
C817 C815 1.380 . S
C817 C816 1.392 1_556 S
C817 H834 0.929 . S
C818 C813 1.383 . S
C818 C814 1.389 1_554 S
C818 H835 0.931 . S
C819 O804 1.266 . S
C819 O805 1.248 . S
C820 Tb756 2.802 . S
C820 O800 1.264 . S
C820 O803 1.256 . S
C820 C813 1.496 . S
C821 C788 1.448 . S
C821 H798 0.930 . S
C821 C822 1.328 . S
C822 C793 1.427 . S
C822 H799 0.929 . S
C822 C821 1.328 . S
C823 O807 1.264 . S
C823 O808 1.243 . S
C824 C827 1.399 . S
C824 C828 1.383 . S
C824 C831 1.496 . S
C825 C826 1.399 . S
C825 C828 1.389 . S
C826 C825 1.399 . S
C826 C829 1.380 . S
C826 H836 0.929 . S
C827 C824 1.399 . S
C827 C829 1.392 . S
C827 H837 0.929 . S
C828 C824 1.383 . S
C828 C825 1.389 . S
C828 H838 0.931 . S
C829 C826 1.380 . S
C829 C827 1.392 . S
C829 H839 0.929 . S
C830 O810 1.266 . S
C830 O811 1.248 . S
C831 Tb767 2.802 . S
C831 O806 1.264 . S
C831 O809 1.256 . S
C831 C824 1.496 . S
H832 C815 0.929 . S
H833 C816 0.929 . S
H834 C817 0.929 . S
H835 C818 0.931 . S
H836 C826 0.929 . S
H837 C827 0.929 . S
H838 C828 0.931 . S
H839 C829 0.929 . S
Tb840 N869 2.617 . S
Tb840 N875 2.572 . S
Tb840 O884 2.465 . S
Tb840 O885 2.387 . S
Tb840 O887 2.428 . S
Tb840 O888 2.308 . S
Tb840 O892 2.349 . S
Tb840 O895 2.393 . S
Tb840 C904 2.802 . S
C841 N842 1.379 . S
C841 C844 1.416 . S
C841 C848 1.424 . S
N842 C841 1.379 . S
N842 C845 1.334 . S
N842 Tb851 2.617 . S
C843 C845 1.390 . S
C843 C846 1.339 . S
C843 H863 0.930 . S
C844 C841 1.416 . S
C844 C846 1.416 . S
C844 C850 1.448 . S
C845 N842 1.334 . S
C845 C843 1.390 . S
C845 H856 0.930 . S
C846 C843 1.339 . S
C846 C844 1.416 . S
C846 H867 0.930 . S
C847 C848 1.413 . S
C847 C849 1.427 . S
C847 C853 1.416 . S
C848 C841 1.424 . S
C848 C847 1.413 . S
C848 N852 1.361 . S
C849 C847 1.427 . S
C849 C850 1.328 . S
C849 H864 0.929 . S
C850 C844 1.448 . S
C850 C849 1.328 . S
C850 H865 0.930 . S
Tb851 N842 2.617 . S
Tb851 N852 2.572 . S
Tb851 O886 2.349 . S
Tb851 O889 2.393 . S
Tb851 O890 2.465 . S
Tb851 O891 2.387 . S
Tb851 O893 2.428 . S
Tb851 O894 2.308 . S
Tb851 C915 2.802 . S
N852 C848 1.361 . S
N852 Tb851 2.572 . S
N852 C854 1.340 . S
C853 C847 1.416 . S
C853 C855 1.332 . S
C853 H861 0.931 . S
C854 N852 1.340 . S
C854 C855 1.407 . S
C854 H860 0.930 . S
C855 C853 1.332 . S
C855 C854 1.407 . S
C855 H857 0.929 . S
H856 C845 0.930 . S
H857 C855 0.929 . S
H858 C873 0.930 . S
H859 C880 0.929 . S
H860 C854 0.930 . S
H861 C853 0.931 . S
H862 C876 0.930 . S
H863 C843 0.930 . S
H864 C849 0.929 . S
H865 C850 0.930 . S
H866 C871 0.930 . S
H867 C846 0.930 . S
H868 C879 0.931 1_655 S
N869 Tb840 2.617 . S
N869 C870 1.379 . S
N869 C873 1.334 . S
C870 N869 1.379 . S
C870 C872 1.416 . S
C870 C878 1.424 . S
C871 H866 0.930 . S
C871 C873 1.390 . S
C871 C874 1.339 . S
C872 C870 1.416 . S
C872 C874 1.416 . S
C872 C905 1.448 1_455 S
C873 H858 0.930 . S
C873 N869 1.334 . S
C873 C871 1.390 . S
C874 C871 1.339 . S
C874 C872 1.416 . S
C874 H881 0.930 1_455 S
N875 Tb840 2.572 . S
N875 C876 1.340 . S
N875 C878 1.361 . S
C876 H862 0.930 . S
C876 N875 1.340 . S
C876 C880 1.407 . S
C877 C878 1.413 . S
C877 C879 1.416 . S
C877 C906 1.427 1_455 S
C878 C870 1.424 . S
C878 N875 1.361 . S
C878 C877 1.413 . S
C879 H868 0.931 1_455 S
C879 C877 1.416 . S
C879 C880 1.332 . S
C880 H859 0.929 . S
C880 C876 1.407 . S
C880 C879 1.332 . S
H881 C874 0.930 1_655 S
H882 C905 0.930 . S
H883 C906 0.929 . S
O884 Tb840 2.465 . S
O884 C904 1.264 . S
O885 Tb840 2.387 . S
O885 C896 1.264 . S
O886 Tb851 2.349 . S
O886 C896 1.243 . S
O887 Tb840 2.428 . S
O887 C904 1.256 . S
O888 Tb840 2.308 . S
O888 C903 1.266 . S
O889 Tb851 2.393 . S
O889 C903 1.248 . S
O890 Tb851 2.465 . S
O890 C915 1.264 . S
O891 Tb851 2.387 . S
O891 C907 1.264 . S
O892 Tb840 2.349 . S
O892 C907 1.243 . S
O893 Tb851 2.428 . S
O893 C915 1.256 . S
O894 Tb851 2.308 . S
O894 C914 1.266 . S
O895 Tb840 2.393 . S
O895 C914 1.248 . S
C896 O885 1.264 . S
C896 O886 1.243 . S
C897 C900 1.399 . S
C897 C902 1.383 . S
C897 C904 1.496 . S
C898 C899 1.399 . S
C898 C902 1.389 . S
C899 C898 1.399 . S
C899 C901 1.380 . S
C899 H916 0.929 . S
C900 C897 1.399 . S
C900 C901 1.392 . S
C900 H917 0.929 . S
C901 C899 1.380 . S
C901 C900 1.392 . S
C901 H918 0.929 . S
C902 C897 1.383 . S
C902 C898 1.389 . S
C902 H919 0.931 . S
C903 O888 1.266 . S
C903 O889 1.248 . S
C904 Tb840 2.802 . S
C904 O884 1.264 . S
C904 O887 1.256 . S
C904 C897 1.496 . S
C905 C872 1.448 1_655 S
C905 H882 0.930 . S
C905 C906 1.328 . S
C906 C877 1.427 1_655 S
C906 H883 0.929 . S
C906 C905 1.328 . S
C907 O891 1.264 . S
C907 O892 1.243 . S
C908 C911 1.399 . S
C908 C912 1.383 . S
C908 C915 1.496 . S
C909 C910 1.399 . S
C909 C912 1.389 1_554 S
C910 C909 1.399 . S
C910 C913 1.380 . S
C910 H920 0.929 . S
C911 C908 1.399 . S
C911 C913 1.392 1_556 S
C911 H921 0.929 . S
C912 C908 1.383 . S
C912 C909 1.389 1_556 S
C912 H922 0.931 . S
C913 C910 1.380 . S
C913 C911 1.392 1_554 S
C913 H923 0.929 . S
C914 O894 1.266 . S
C914 O895 1.248 . S
C915 Tb851 2.802 . S
C915 O890 1.264 . S
C915 O893 1.256 . S
C915 C908 1.496 . S
H916 C899 0.929 . S
H917 C900 0.929 . S
H918 C901 0.929 . S
H919 C902 0.931 . S
H920 C910 0.929 . S
H921 C911 0.929 . S
H922 C912 0.931 . S
H923 C913 0.929 . S
Tb924 N953 2.617 . S
Tb924 N959 2.572 . S
Tb924 O968 2.465 . S
Tb924 O969 2.387 . S
Tb924 O971 2.428 . S
Tb924 O972 2.308 . S
Tb924 O976 2.349 . S
Tb924 O979 2.393 . S
Tb924 C988 2.802 . S
C925 N926 1.379 . S
C925 C928 1.416 . S
C925 C932 1.424 . S
N926 C925 1.379 . S
N926 C929 1.334 . S
N926 Tb935 2.617 . S
C927 C929 1.390 . S
C927 C930 1.339 . S
C927 H947 0.930 . S
C928 C925 1.416 . S
C928 C930 1.416 . S
C928 C934 1.448 1_565 S
C929 N926 1.334 . S
C929 C927 1.390 . S
C929 H940 0.930 . S
C930 C927 1.339 . S
C930 C928 1.416 . S
C930 H951 0.930 1_565 S
C931 C932 1.413 . S
C931 C933 1.427 1_565 S
C931 C937 1.416 . S
C932 C925 1.424 . S
C932 C931 1.413 . S
C932 N936 1.361 . S
C933 C931 1.427 1_545 S
C933 C934 1.328 . S
C933 H948 0.929 . S
C934 C928 1.448 1_545 S
C934 C933 1.328 . S
C934 H949 0.930 . S
Tb935 N926 2.617 . S
Tb935 N936 2.572 . S
Tb935 O970 2.349 . S
Tb935 O973 2.393 . S
Tb935 O974 2.465 . S
Tb935 O975 2.387 . S
Tb935 O977 2.428 . S
Tb935 O978 2.308 . S
Tb935 C999 2.802 . S
N936 C932 1.361 . S
N936 Tb935 2.572 . S
N936 C938 1.340 . S
C937 C931 1.416 . S
C937 C939 1.332 . S
C937 H945 0.931 1_565 S
C938 N936 1.340 . S
C938 C939 1.407 . S
C938 H944 0.930 . S
C939 C937 1.332 . S
C939 C938 1.407 . S
C939 H941 0.929 . S
H940 C929 0.930 . S
H941 C939 0.929 . S
H942 C957 0.930 . S
H943 C964 0.929 . S
H944 C938 0.930 . S
H945 C937 0.931 1_545 S
H946 C960 0.930 . S
H947 C927 0.930 . S
H948 C933 0.929 . S
H949 C934 0.930 . S
H950 C955 0.930 . S
H951 C930 0.930 1_545 S
H952 C963 0.931 . S
N953 Tb924 2.617 . S
N953 C954 1.379 . S
N953 C957 1.334 . S
C954 N953 1.379 . S
C954 C956 1.416 . S
C954 C962 1.424 . S
C955 H950 0.930 . S
C955 C957 1.390 . S
C955 C958 1.339 . S
C956 C954 1.416 . S
C956 C958 1.416 . S
C956 C989 1.448 . S
C957 H942 0.930 . S
C957 N953 1.334 . S
C957 C955 1.390 . S
C958 C955 1.339 . S
C958 C956 1.416 . S
C958 H965 0.930 . S
N959 Tb924 2.572 . S
N959 C960 1.340 . S
N959 C962 1.361 . S
C960 H946 0.930 . S
C960 N959 1.340 . S
C960 C964 1.407 . S
C961 C962 1.413 . S
C961 C963 1.416 . S
C961 C990 1.427 . S
C962 C954 1.424 . S
C962 N959 1.361 . S
C962 C961 1.413 . S
C963 H952 0.931 . S
C963 C961 1.416 . S
C963 C964 1.332 . S
C964 H943 0.929 . S
C964 C960 1.407 . S
C964 C963 1.332 . S
H965 C958 0.930 . S
H966 C989 0.930 . S
H967 C990 0.929 . S
O968 Tb924 2.465 . S
O968 C988 1.264 . S
O969 Tb924 2.387 . S
O969 C980 1.264 . S
O970 Tb935 2.349 . S
O970 C980 1.243 . S
O971 Tb924 2.428 . S
O971 C988 1.256 . S
O972 Tb924 2.308 . S
O972 C987 1.266 . S
O973 Tb935 2.393 . S
O973 C987 1.248 . S
O974 Tb935 2.465 . S
O974 C999 1.264 . S
O975 Tb935 2.387 . S
O975 C991 1.264 . S
O976 Tb924 2.349 . S
O976 C991 1.243 . S
O977 Tb935 2.428 . S
O977 C999 1.256 . S
O978 Tb935 2.308 . S
O978 C998 1.266 . S
O979 Tb924 2.393 . S
O979 C998 1.248 . S
C980 O969 1.264 . S
C980 O970 1.243 . S
C981 C984 1.399 . S
C981 C986 1.383 . S
C981 C988 1.496 . S
C982 C983 1.399 . S
C982 C986 1.389 1_556 S
C983 C982 1.399 . S
C983 C985 1.380 . S
C983 H1000 0.929 . S
C984 C981 1.399 . S
C984 C985 1.392 1_554 S
C984 H1001 0.929 . S
C985 C983 1.380 . S
C985 C984 1.392 1_556 S
C985 H1002 0.929 . S
C986 C981 1.383 . S
C986 C982 1.389 1_554 S
C986 H1003 0.931 . S
C987 O972 1.266 . S
C987 O973 1.248 . S
C988 Tb924 2.802 . S
C988 O968 1.264 . S
C988 O971 1.256 . S
C988 C981 1.496 . S
C989 C956 1.448 . S
C989 H966 0.930 . S
C989 C990 1.328 . S
C990 C961 1.427 . S
C990 H967 0.929 . S
C990 C989 1.328 . S
C991 O975 1.264 . S
C991 O976 1.243 . S
C992 C995 1.399 . S
C992 C996 1.383 . S
C992 C999 1.496 . S
C993 C994 1.399 . S
C993 C996 1.389 . S
C994 C993 1.399 . S
C994 C997 1.380 . S
C994 H1004 0.929 . S
C995 C992 1.399 . S
C995 C997 1.392 . S
C995 H1005 0.929 . S
C996 C992 1.383 . S
C996 C993 1.389 . S
C996 H1006 0.931 . S
C997 C994 1.380 . S
C997 C995 1.392 . S
C997 H1007 0.929 . S
C998 O978 1.266 . S
C998 O979 1.248 . S
C999 Tb935 2.802 . S
C999 O974 1.264 . S
C999 O977 1.256 . S
C999 C992 1.496 . S
H1000 C983 0.929 . S
H1001 C984 0.929 . S
H1002 C985 0.929 . S
H1003 C986 0.931 . S
H1004 C994 0.929 . S
H1005 C995 0.929 . S
H1006 C996 0.931 . S
H1007 C997 0.929 . S
Tb1008 N1037 2.617 . S
Tb1008 N1043 2.572 . S
Tb1008 O1052 2.465 . S
Tb1008 O1053 2.387 . S
Tb1008 O1055 2.428 . S
Tb1008 O1056 2.308 . S
Tb1008 O1060 2.349 . S
Tb1008 O1063 2.393 . S
Tb1008 C1072 2.802 . S
C1009 N1010 1.379 . S
C1009 C1012 1.416 . S
C1009 C1016 1.424 . S
N1010 C1009 1.379 . S
N1010 C1013 1.334 . S
N1010 Tb1019 2.617 . S
C1011 C1013 1.390 . S
C1011 C1014 1.339 . S
C1011 H1031 0.930 . S
C1012 C1009 1.416 . S
C1012 C1014 1.416 . S
C1012 C1018 1.448 . S
C1013 N1010 1.334 . S
C1013 C1011 1.390 . S
C1013 H1024 0.930 . S
C1014 C1011 1.339 . S
C1014 C1012 1.416 . S
C1014 H1035 0.930 . S
C1015 C1016 1.413 . S
C1015 C1017 1.427 . S
C1015 C1021 1.416 . S
C1016 C1009 1.424 . S
C1016 C1015 1.413 . S
C1016 N1020 1.361 . S
C1017 C1015 1.427 . S
C1017 C1018 1.328 . S
C1017 H1032 0.929 . S
C1018 C1012 1.448 . S
C1018 C1017 1.328 . S
C1018 H1033 0.930 . S
Tb1019 N1010 2.617 . S
Tb1019 N1020 2.572 . S
Tb1019 O1054 2.349 . S
Tb1019 O1057 2.393 . S
Tb1019 O1058 2.465 . S
Tb1019 O1059 2.387 . S
Tb1019 O1061 2.428 . S
Tb1019 O1062 2.308 . S
Tb1019 C1083 2.802 . S
N1020 C1016 1.361 . S
N1020 Tb1019 2.572 . S
N1020 C1022 1.340 . S
C1021 C1015 1.416 . S
C1021 C1023 1.332 . S
C1021 H1029 0.931 . S
C1022 N1020 1.340 . S
C1022 C1023 1.407 . S
C1022 H1028 0.930 . S
C1023 C1021 1.332 . S
C1023 C1022 1.407 . S
C1023 H1025 0.929 . S
H1024 C1013 0.930 . S
H1025 C1023 0.929 . S
H1026 C1041 0.930 . S
H1027 C1048 0.929 . S
H1028 C1022 0.930 . S
H1029 C1021 0.931 . S
H1030 C1044 0.930 . S
H1031 C1011 0.930 . S
H1032 C1017 0.929 . S
H1033 C1018 0.930 . S
H1034 C1039 0.930 . S
H1035 C1014 0.930 . S
H1036 C1047 0.931 1_455 S
N1037 Tb1008 2.617 . S
N1037 C1038 1.379 . S
N1037 C1041 1.334 . S
C1038 N1037 1.379 . S
C1038 C1040 1.416 . S
C1038 C1046 1.424 . S
C1039 H1034 0.930 . S
C1039 C1041 1.390 1_545 S
C1039 C1042 1.339 1_545 S
C1040 C1038 1.416 . S
C1040 C1042 1.416 . S
C1040 C1073 1.448 1_655 S
C1041 H1026 0.930 . S
C1041 N1037 1.334 . S
C1041 C1039 1.390 1_565 S
C1042 C1039 1.339 1_565 S
C1042 C1040 1.416 . S
C1042 H1049 0.930 1_665 S
N1043 Tb1008 2.572 . S
N1043 C1044 1.340 . S
N1043 C1046 1.361 . S
C1044 H1030 0.930 . S
C1044 N1043 1.340 . S
C1044 C1048 1.407 . S
C1045 C1046 1.413 . S
C1045 C1047 1.416 . S
C1045 C1074 1.427 1_655 S
C1046 C1038 1.424 . S
C1046 N1043 1.361 . S
C1046 C1045 1.413 . S
C1047 H1036 0.931 1_655 S
C1047 C1045 1.416 . S
C1047 C1048 1.332 . S
C1048 H1027 0.929 . S
C1048 C1044 1.407 . S
C1048 C1047 1.332 . S
H1049 C1042 0.930 1_445 S
H1050 C1073 0.930 . S
H1051 C1074 0.929 . S
O1052 Tb1008 2.465 . S
O1052 C1072 1.264 . S
O1053 Tb1008 2.387 . S
O1053 C1064 1.264 . S
O1054 Tb1019 2.349 . S
O1054 C1064 1.243 . S
O1055 Tb1008 2.428 . S
O1055 C1072 1.256 . S
O1056 Tb1008 2.308 . S
O1056 C1071 1.266 . S
O1057 Tb1019 2.393 . S
O1057 C1071 1.248 . S
O1058 Tb1019 2.465 . S
O1058 C1083 1.264 . S
O1059 Tb1019 2.387 . S
O1059 C1075 1.264 . S
O1060 Tb1008 2.349 . S
O1060 C1075 1.243 . S
O1061 Tb1019 2.428 . S
O1061 C1083 1.256 . S
O1062 Tb1019 2.308 . S
O1062 C1082 1.266 . S
O1063 Tb1008 2.393 . S
O1063 C1082 1.248 . S
C1064 O1053 1.264 . S
C1064 O1054 1.243 . S
C1065 C1068 1.399 . S
C1065 C1070 1.383 . S
C1065 C1072 1.496 . S
C1066 C1067 1.399 . S
C1066 C1070 1.389 1_554 S
C1067 C1066 1.399 . S
C1067 C1069 1.380 . S
C1067 H1084 0.929 . S
C1068 C1065 1.399 . S
C1068 C1069 1.392 1_556 S
C1068 H1085 0.929 . S
C1069 C1067 1.380 . S
C1069 C1068 1.392 1_554 S
C1069 H1086 0.929 . S
C1070 C1065 1.383 . S
C1070 C1066 1.389 1_556 S
C1070 H1087 0.931 . S
C1071 O1056 1.266 . S
C1071 O1057 1.248 . S
C1072 Tb1008 2.802 . S
C1072 O1052 1.264 . S
C1072 O1055 1.256 . S
C1072 C1065 1.496 . S
C1073 C1040 1.448 1_455 S
C1073 H1050 0.930 . S
C1073 C1074 1.328 . S
C1074 C1045 1.427 1_455 S
C1074 H1051 0.929 . S
C1074 C1073 1.328 . S
C1075 O1059 1.264 . S
C1075 O1060 1.243 . S
C1076 C1079 1.399 . S
C1076 C1080 1.383 . S
C1076 C1083 1.496 . S
C1077 C1078 1.399 . S
C1077 C1080 1.389 . S
C1078 C1077 1.399 . S
C1078 C1081 1.380 . S
C1078 H1088 0.929 . S
C1079 C1076 1.399 . S
C1079 C1081 1.392 . S
C1079 H1089 0.929 . S
C1080 C1076 1.383 . S
C1080 C1077 1.389 . S
C1080 H1090 0.931 . S
C1081 C1078 1.380 . S
C1081 C1079 1.392 . S
C1081 H1091 0.929 . S
C1082 O1062 1.266 . S
C1082 O1063 1.248 . S
C1083 Tb1019 2.802 . S
C1083 O1058 1.264 . S
C1083 O1061 1.256 . S
C1083 C1076 1.496 . S
H1084 C1067 0.929 . S
H1085 C1068 0.929 . S
H1086 C1069 0.929 . S
H1087 C1070 0.931 . S
H1088 C1078 0.929 . S
H1089 C1079 0.929 . S
H1090 C1080 0.931 . S
H1091 C1081 0.929 . S
Tb1092 N1121 2.617 . S
Tb1092 N1127 2.572 . S
Tb1092 O1136 2.465 . S
Tb1092 O1137 2.387 . S
Tb1092 O1139 2.428 . S
Tb1092 O1140 2.308 . S
Tb1092 O1144 2.349 . S
Tb1092 O1147 2.393 . S
Tb1092 C1156 2.802 . S
C1093 N1094 1.379 . S
C1093 C1096 1.416 . S
C1093 C1100 1.424 . S
N1094 C1093 1.379 . S
N1094 C1097 1.334 . S
N1094 Tb1103 2.617 . S
C1095 C1097 1.390 1_455 S
C1095 C1098 1.339 1_455 S
C1095 H1115 0.930 . S
C1096 C1093 1.416 . S
C1096 C1098 1.416 . S
C1096 C1102 1.448 1_545 S
C1097 N1094 1.334 . S
C1097 C1095 1.390 1_655 S
C1097 H1108 0.930 . S
C1098 C1095 1.339 1_655 S
C1098 C1096 1.416 . S
C1098 H1119 0.930 1_645 S
C1099 C1100 1.413 . S
C1099 C1101 1.427 1_545 S
C1099 C1105 1.416 . S
C1100 C1093 1.424 . S
C1100 C1099 1.413 . S
C1100 N1104 1.361 . S
C1101 C1099 1.427 1_565 S
C1101 C1102 1.328 . S
C1101 H1116 0.929 . S
C1102 C1096 1.448 1_565 S
C1102 C1101 1.328 . S
C1102 H1117 0.930 . S
Tb1103 N1094 2.617 . S
Tb1103 N1104 2.572 . S
Tb1103 O1138 2.349 . S
Tb1103 O1141 2.393 . S
Tb1103 O1142 2.465 . S
Tb1103 O1143 2.387 . S
Tb1103 O1145 2.428 . S
Tb1103 O1146 2.308 . S
Tb1103 C1167 2.802 . S
N1104 C1100 1.361 . S
N1104 Tb1103 2.572 . S
N1104 C1106 1.340 . S
C1105 C1099 1.416 . S
C1105 C1107 1.332 . S
C1105 H1113 0.931 1_545 S
C1106 N1104 1.340 . S
C1106 C1107 1.407 . S
C1106 H1112 0.930 . S
C1107 C1105 1.332 . S
C1107 C1106 1.407 . S
C1107 H1109 0.929 . S
H1108 C1097 0.930 . S
H1109 C1107 0.929 . S
H1110 C1125 0.930 . S
H1111 C1132 0.929 . S
H1112 C1106 0.930 . S
H1113 C1105 0.931 1_565 S
H1114 C1128 0.930 . S
H1115 C1095 0.930 . S
H1116 C1101 0.929 . S
H1117 C1102 0.930 . S
H1118 C1123 0.930 . S
H1119 C1098 0.930 1_465 S
H1120 C1131 0.931 . S
N1121 Tb1092 2.617 . S
N1121 C1122 1.379 . S
N1121 C1125 1.334 . S
C1122 N1121 1.379 . S
C1122 C1124 1.416 . S
C1122 C1130 1.424 . S
C1123 H1118 0.930 . S
C1123 C1125 1.390 . S
C1123 C1126 1.339 . S
C1124 C1122 1.416 . S
C1124 C1126 1.416 . S
C1124 C1157 1.448 . S
C1125 H1110 0.930 . S
C1125 N1121 1.334 . S
C1125 C1123 1.390 . S
C1126 C1123 1.339 . S
C1126 C1124 1.416 . S
C1126 H1133 0.930 . S
N1127 Tb1092 2.572 . S
N1127 C1128 1.340 . S
N1127 C1130 1.361 . S
C1128 H1114 0.930 . S
C1128 N1127 1.340 . S
C1128 C1132 1.407 . S
C1129 C1130 1.413 . S
C1129 C1131 1.416 . S
C1129 C1158 1.427 . S
C1130 C1122 1.424 . S
C1130 N1127 1.361 . S
C1130 C1129 1.413 . S
C1131 H1120 0.931 . S
C1131 C1129 1.416 . S
C1131 C1132 1.332 . S
C1132 H1111 0.929 . S
C1132 C1128 1.407 . S
C1132 C1131 1.332 . S
H1133 C1126 0.930 . S
H1134 C1157 0.930 . S
H1135 C1158 0.929 . S
O1136 Tb1092 2.465 . S
O1136 C1156 1.264 . S
O1137 Tb1092 2.387 . S
O1137 C1148 1.264 . S
O1138 Tb1103 2.349 . S
O1138 C1148 1.243 . S
O1139 Tb1092 2.428 . S
O1139 C1156 1.256 . S
O1140 Tb1092 2.308 . S
O1140 C1155 1.266 . S
O1141 Tb1103 2.393 . S
O1141 C1155 1.248 . S
O1142 Tb1103 2.465 . S
O1142 C1167 1.264 . S
O1143 Tb1103 2.387 . S
O1143 C1159 1.264 . S
O1144 Tb1092 2.349 . S
O1144 C1159 1.243 . S
O1145 Tb1103 2.428 . S
O1145 C1167 1.256 . S
O1146 Tb1103 2.308 . S
O1146 C1166 1.266 . S
O1147 Tb1092 2.393 . S
O1147 C1166 1.248 . S
C1148 O1137 1.264 . S
C1148 O1138 1.243 . S
C1149 C1152 1.399 . S
C1149 C1154 1.383 . S
C1149 C1156 1.496 . S
C1150 C1151 1.399 . S
C1150 C1154 1.389 . S
C1151 C1150 1.399 . S
C1151 C1153 1.380 . S
C1151 H1168 0.929 . S
C1152 C1149 1.399 . S
C1152 C1153 1.392 . S
C1152 H1169 0.929 . S
C1153 C1151 1.380 . S
C1153 C1152 1.392 . S
C1153 H1170 0.929 . S
C1154 C1149 1.383 . S
C1154 C1150 1.389 . S
C1154 H1171 0.931 . S
C1155 O1140 1.266 . S
C1155 O1141 1.248 . S
C1156 Tb1092 2.802 . S
C1156 O1136 1.264 . S
C1156 O1139 1.256 . S
C1156 C1149 1.496 . S
C1157 C1124 1.448 . S
C1157 H1134 0.930 . S
C1157 C1158 1.328 . S
C1158 C1129 1.427 . S
C1158 H1135 0.929 . S
C1158 C1157 1.328 . S
C1159 O1143 1.264 . S
C1159 O1144 1.243 . S
C1160 C1163 1.399 . S
C1160 C1164 1.383 . S
C1160 C1167 1.496 . S
C1161 C1162 1.399 . S
C1161 C1164 1.389 1_556 S
C1162 C1161 1.399 . S
C1162 C1165 1.380 . S
C1162 H1172 0.929 . S
C1163 C1160 1.399 . S
C1163 C1165 1.392 1_554 S
C1163 H1173 0.929 . S
C1164 C1160 1.383 . S
C1164 C1161 1.389 1_554 S
C1164 H1174 0.931 . S
C1165 C1162 1.380 . S
C1165 C1163 1.392 1_556 S
C1165 H1175 0.929 . S
C1166 O1146 1.266 . S
C1166 O1147 1.248 . S
C1167 Tb1103 2.802 . S
C1167 O1142 1.264 . S
C1167 O1145 1.256 . S
C1167 C1160 1.496 . S
H1168 C1151 0.929 . S
H1169 C1152 0.929 . S
H1170 C1153 0.929 . S
H1171 C1154 0.931 . S
H1172 C1162 0.929 . S
H1173 C1163 0.929 . S
H1174 C1164 0.931 . S
H1175 C1165 0.929 . S
Tb1176 N1205 2.617 . S
Tb1176 N1211 2.572 . S
Tb1176 O1220 2.465 . S
Tb1176 O1221 2.387 . S
Tb1176 O1223 2.428 . S
Tb1176 O1224 2.308 . S
Tb1176 O1228 2.349 . S
Tb1176 O1231 2.393 . S
Tb1176 C1240 2.802 . S
C1177 N1178 1.379 . S
C1177 C1180 1.416 . S
C1177 C1184 1.424 . S
N1178 C1177 1.379 . S
N1178 C1181 1.334 . S
N1178 Tb1187 2.617 . S
C1179 C1181 1.390 . S
C1179 C1182 1.339 . S
C1179 H1199 0.930 . S
C1180 C1177 1.416 . S
C1180 C1182 1.416 . S
C1180 C1186 1.448 . S
C1181 N1178 1.334 . S
C1181 C1179 1.390 . S
C1181 H1192 0.930 . S
C1182 C1179 1.339 . S
C1182 C1180 1.416 . S
C1182 H1203 0.930 . S
C1183 C1184 1.413 . S
C1183 C1185 1.427 . S
C1183 C1189 1.416 . S
C1184 C1177 1.424 . S
C1184 C1183 1.413 . S
C1184 N1188 1.361 . S
C1185 C1183 1.427 . S
C1185 C1186 1.328 . S
C1185 H1200 0.929 . S
C1186 C1180 1.448 . S
C1186 C1185 1.328 . S
C1186 H1201 0.930 . S
Tb1187 N1178 2.617 . S
Tb1187 N1188 2.572 . S
Tb1187 O1222 2.349 . S
Tb1187 O1225 2.393 . S
Tb1187 O1226 2.465 . S
Tb1187 O1227 2.387 . S
Tb1187 O1229 2.428 . S
Tb1187 O1230 2.308 . S
Tb1187 C1251 2.802 . S
N1188 C1184 1.361 . S
N1188 Tb1187 2.572 . S
N1188 C1190 1.340 . S
C1189 C1183 1.416 . S
C1189 C1191 1.332 . S
C1189 H1197 0.931 . S
C1190 N1188 1.340 . S
C1190 C1191 1.407 . S
C1190 H1196 0.930 . S
C1191 C1189 1.332 . S
C1191 C1190 1.407 . S
C1191 H1193 0.929 . S
H1192 C1181 0.930 . S
H1193 C1191 0.929 . S
H1194 C1209 0.930 . S
H1195 C1216 0.929 . S
H1196 C1190 0.930 . S
H1197 C1189 0.931 . S
H1198 C1212 0.930 . S
H1199 C1179 0.930 . S
H1200 C1185 0.929 . S
H1201 C1186 0.930 . S
H1202 C1207 0.930 . S
H1203 C1182 0.930 . S
H1204 C1215 0.931 1_655 S
N1205 Tb1176 2.617 . S
N1205 C1206 1.379 . S
N1205 C1209 1.334 . S
C1206 N1205 1.379 . S
C1206 C1208 1.416 . S
C1206 C1214 1.424 . S
C1207 H1202 0.930 . S
C1207 C1209 1.390 1_565 S
C1207 C1210 1.339 1_565 S
C1208 C1206 1.416 . S
C1208 C1210 1.416 . S
C1208 C1241 1.448 1_455 S
C1209 H1194 0.930 . S
C1209 N1205 1.334 . S
C1209 C1207 1.390 1_545 S
C1210 C1207 1.339 1_545 S
C1210 C1208 1.416 . S
C1210 H1217 0.930 1_445 S
N1211 Tb1176 2.572 . S
N1211 C1212 1.340 . S
N1211 C1214 1.361 . S
C1212 H1198 0.930 . S
C1212 N1211 1.340 . S
C1212 C1216 1.407 . S
C1213 C1214 1.413 . S
C1213 C1215 1.416 . S
C1213 C1242 1.427 1_455 S
C1214 C1206 1.424 . S
C1214 N1211 1.361 . S
C1214 C1213 1.413 . S
C1215 H1204 0.931 1_455 S
C1215 C1213 1.416 . S
C1215 C1216 1.332 . S
C1216 H1195 0.929 . S
C1216 C1212 1.407 . S
C1216 C1215 1.332 . S
H1217 C1210 0.930 1_665 S
H1218 C1241 0.930 . S
H1219 C1242 0.929 . S
O1220 Tb1176 2.465 . S
O1220 C1240 1.264 . S
O1221 Tb1176 2.387 . S
O1221 C1232 1.264 . S
O1222 Tb1187 2.349 . S
O1222 C1232 1.243 . S
O1223 Tb1176 2.428 . S
O1223 C1240 1.256 . S
O1224 Tb1176 2.308 . S
O1224 C1239 1.266 . S
O1225 Tb1187 2.393 . S
O1225 C1239 1.248 . S
O1226 Tb1187 2.465 . S
O1226 C1251 1.264 . S
O1227 Tb1187 2.387 . S
O1227 C1243 1.264 . S
O1228 Tb1176 2.349 . S
O1228 C1243 1.243 . S
O1229 Tb1187 2.428 . S
O1229 C1251 1.256 . S
O1230 Tb1187 2.308 . S
O1230 C1250 1.266 . S
O1231 Tb1176 2.393 . S
O1231 C1250 1.248 . S
C1232 O1221 1.264 . S
C1232 O1222 1.243 . S
C1233 C1236 1.399 . S
C1233 C1238 1.383 . S
C1233 C1240 1.496 . S
C1234 C1235 1.399 . S
C1234 C1238 1.389 1_554 S
C1235 C1234 1.399 . S
C1235 C1237 1.380 . S
C1235 H1252 0.929 . S
C1236 C1233 1.399 . S
C1236 C1237 1.392 1_556 S
C1236 H1253 0.929 . S
C1237 C1235 1.380 . S
C1237 C1236 1.392 1_554 S
C1237 H1254 0.929 . S
C1238 C1233 1.383 . S
C1238 C1234 1.389 1_556 S
C1238 H1255 0.931 . S
C1239 O1224 1.266 . S
C1239 O1225 1.248 . S
C1240 Tb1176 2.802 . S
C1240 O1220 1.264 . S
C1240 O1223 1.256 . S
C1240 C1233 1.496 . S
C1241 C1208 1.448 1_655 S
C1241 H1218 0.930 . S
C1241 C1242 1.328 . S
C1242 C1213 1.427 1_655 S
C1242 H1219 0.929 . S
C1242 C1241 1.328 . S
C1243 O1227 1.264 . S
C1243 O1228 1.243 . S
C1244 C1247 1.399 . S
C1244 C1248 1.383 . S
C1244 C1251 1.496 . S
C1245 C1246 1.399 . S
C1245 C1248 1.389 . S
C1246 C1245 1.399 . S
C1246 C1249 1.380 . S
C1246 H1256 0.929 . S
C1247 C1244 1.399 . S
C1247 C1249 1.392 . S
C1247 H1257 0.929 . S
C1248 C1244 1.383 . S
C1248 C1245 1.389 . S
C1248 H1258 0.931 . S
C1249 C1246 1.380 . S
C1249 C1247 1.392 . S
C1249 H1259 0.929 . S
C1250 O1230 1.266 . S
C1250 O1231 1.248 . S
C1251 Tb1187 2.802 . S
C1251 O1226 1.264 . S
C1251 O1229 1.256 . S
C1251 C1244 1.496 . S
H1252 C1235 0.929 . S
H1253 C1236 0.929 . S
H1254 C1237 0.929 . S
H1255 C1238 0.931 . S
H1256 C1246 0.929 . S
H1257 C1247 0.929 . S
H1258 C1248 0.931 . S
H1259 C1249 0.929 . S
Tb1260 N1289 2.617 . S
Tb1260 N1295 2.572 . S
Tb1260 O1304 2.465 . S
Tb1260 O1305 2.387 . S
Tb1260 O1307 2.428 . S
Tb1260 O1308 2.308 . S
Tb1260 O1312 2.349 . S
Tb1260 O1315 2.393 . S
Tb1260 C1324 2.802 . S
C1261 N1262 1.379 . S
C1261 C1264 1.416 . S
C1261 C1268 1.424 . S
N1262 C1261 1.379 . S
N1262 C1265 1.334 . S
N1262 Tb1271 2.617 . S
C1263 C1265 1.390 1_655 S
C1263 C1266 1.339 1_655 S
C1263 H1283 0.930 . S
C1264 C1261 1.416 . S
C1264 C1266 1.416 . S
C1264 C1270 1.448 1_565 S
C1265 N1262 1.334 . S
C1265 C1263 1.390 1_455 S
C1265 H1276 0.930 . S
C1266 C1263 1.339 1_455 S
C1266 C1264 1.416 . S
C1266 H1287 0.930 1_465 S
C1267 C1268 1.413 . S
C1267 C1269 1.427 1_565 S
C1267 C1273 1.416 . S
C1268 C1261 1.424 . S
C1268 C1267 1.413 . S
C1268 N1272 1.361 . S
C1269 C1267 1.427 1_545 S
C1269 C1270 1.328 . S
C1269 H1284 0.929 . S
C1270 C1264 1.448 1_545 S
C1270 C1269 1.328 . S
C1270 H1285 0.930 . S
Tb1271 N1262 2.617 . S
Tb1271 N1272 2.572 . S
Tb1271 O1306 2.349 . S
Tb1271 O1309 2.393 . S
Tb1271 O1310 2.465 . S
Tb1271 O1311 2.387 . S
Tb1271 O1313 2.428 . S
Tb1271 O1314 2.308 . S
Tb1271 C1335 2.802 . S
N1272 C1268 1.361 . S
N1272 Tb1271 2.572 . S
N1272 C1274 1.340 . S
C1273 C1267 1.416 . S
C1273 C1275 1.332 . S
C1273 H1281 0.931 1_565 S
C1274 N1272 1.340 . S
C1274 C1275 1.407 . S
C1274 H1280 0.930 . S
C1275 C1273 1.332 . S
C1275 C1274 1.407 . S
C1275 H1277 0.929 . S
H1276 C1265 0.930 . S
H1277 C1275 0.929 . S
H1278 C1293 0.930 . S
H1279 C1300 0.929 . S
H1280 C1274 0.930 . S
H1281 C1273 0.931 1_545 S
H1282 C1296 0.930 . S
H1283 C1263 0.930 . S
H1284 C1269 0.929 . S
H1285 C1270 0.930 . S
H1286 C1291 0.930 . S
H1287 C1266 0.930 1_645 S
H1288 C1299 0.931 . S
N1289 Tb1260 2.617 . S
N1289 C1290 1.379 . S
N1289 C1293 1.334 . S
C1290 N1289 1.379 . S
C1290 C1292 1.416 . S
C1290 C1298 1.424 . S
C1291 H1286 0.930 . S
C1291 C1293 1.390 . S
C1291 C1294 1.339 . S
C1292 C1290 1.416 . S
C1292 C1294 1.416 . S
C1292 C1325 1.448 . S
C1293 H1278 0.930 . S
C1293 N1289 1.334 . S
C1293 C1291 1.390 . S
C1294 C1291 1.339 . S
C1294 C1292 1.416 . S
C1294 H1301 0.930 . S
N1295 Tb1260 2.572 . S
N1295 C1296 1.340 . S
N1295 C1298 1.361 . S
C1296 H1282 0.930 . S
C1296 N1295 1.340 . S
C1296 C1300 1.407 . S
C1297 C1298 1.413 . S
C1297 C1299 1.416 . S
C1297 C1326 1.427 . S
C1298 C1290 1.424 . S
C1298 N1295 1.361 . S
C1298 C1297 1.413 . S
C1299 H1288 0.931 . S
C1299 C1297 1.416 . S
C1299 C1300 1.332 . S
C1300 H1279 0.929 . S
C1300 C1296 1.407 . S
C1300 C1299 1.332 . S
H1301 C1294 0.930 . S
H1302 C1325 0.930 . S
H1303 C1326 0.929 . S
O1304 Tb1260 2.465 . S
O1304 C1324 1.264 . S
O1305 Tb1260 2.387 . S
O1305 C1316 1.264 . S
O1306 Tb1271 2.349 . S
O1306 C1316 1.243 . S
O1307 Tb1260 2.428 . S
O1307 C1324 1.256 . S
O1308 Tb1260 2.308 . S
O1308 C1323 1.266 . S
O1309 Tb1271 2.393 . S
O1309 C1323 1.248 . S
O1310 Tb1271 2.465 . S
O1310 C1335 1.264 . S
O1311 Tb1271 2.387 . S
O1311 C1327 1.264 . S
O1312 Tb1260 2.349 . S
O1312 C1327 1.243 . S
O1313 Tb1271 2.428 . S
O1313 C1335 1.256 . S
O1314 Tb1271 2.308 . S
O1314 C1334 1.266 . S
O1315 Tb1260 2.393 . S
O1315 C1334 1.248 . S
C1316 O1305 1.264 . S
C1316 O1306 1.243 . S
C1317 C1320 1.399 . S
C1317 C1322 1.383 . S
C1317 C1324 1.496 . S
C1318 C1319 1.399 . S
C1318 C1322 1.389 . S
C1319 C1318 1.399 . S
C1319 C1321 1.380 . S
C1319 H1336 0.929 . S
C1320 C1317 1.399 . S
C1320 C1321 1.392 . S
C1320 H1337 0.929 . S
C1321 C1319 1.380 . S
C1321 C1320 1.392 . S
C1321 H1338 0.929 . S
C1322 C1317 1.383 . S
C1322 C1318 1.389 . S
C1322 H1339 0.931 . S
C1323 O1308 1.266 . S
C1323 O1309 1.248 . S
C1324 Tb1260 2.802 . S
C1324 O1304 1.264 . S
C1324 O1307 1.256 . S
C1324 C1317 1.496 . S
C1325 C1292 1.448 . S
C1325 H1302 0.930 . S
C1325 C1326 1.328 . S
C1326 C1297 1.427 . S
C1326 H1303 0.929 . S
C1326 C1325 1.328 . S
C1327 O1311 1.264 . S
C1327 O1312 1.243 . S
C1328 C1331 1.399 . S
C1328 C1332 1.383 . S
C1328 C1335 1.496 . S
C1329 C1330 1.399 . S
C1329 C1332 1.389 1_556 S
C1330 C1329 1.399 . S
C1330 C1333 1.380 . S
C1330 H1340 0.929 . S
C1331 C1328 1.399 . S
C1331 C1333 1.392 1_554 S
C1331 H1341 0.929 . S
C1332 C1328 1.383 . S
C1332 C1329 1.389 1_554 S
C1332 H1342 0.931 . S
C1333 C1330 1.380 . S
C1333 C1331 1.392 1_556 S
C1333 H1343 0.929 . S
C1334 O1314 1.266 . S
C1334 O1315 1.248 . S
C1335 Tb1271 2.802 . S
C1335 O1310 1.264 . S
C1335 O1313 1.256 . S
C1335 C1328 1.496 . S
H1336 C1319 0.929 . S
H1337 C1320 0.929 . S
H1338 C1321 0.929 . S
H1339 C1322 0.931 . S
H1340 C1330 0.929 . S
H1341 C1331 0.929 . S
H1342 C1332 0.931 . S
H1343 C1333 0.929 . S
C1344 C1345 1.369 . S
C1344 C1346 1.419 . S
C1344 H1348 0.930 . S
C1345 C1344 1.369 . S
C1345 C1354 1.429 . S
C1346 C1344 1.419 . S
C1346 C1347 1.363 . S
C1346 H1349 0.929 1_565 S
C1347 C1346 1.363 . S
C1347 C1353 1.429 . S
H1348 C1344 0.930 . S
H1349 C1346 0.929 1_545 S
S1350 N1351 1.613 . S
S1350 N1352 1.610 . S
N1351 S1350 1.613 . S
N1351 C1354 1.350 . S
N1352 S1350 1.610 . S
N1352 C1353 1.351 . S
C1353 C1347 1.429 . S
C1353 N1352 1.351 . S
C1353 C1354 1.434 . S
C1354 C1345 1.429 . S
C1354 N1351 1.350 . S
C1354 C1353 1.434 . S
C1355 C1356 1.369 . S
C1355 C1357 1.419 . S
C1355 H1359 0.930 . S
C1356 C1355 1.369 . S
C1356 C1365 1.429 . S
C1357 C1355 1.419 . S
C1357 C1358 1.359 1_655 S
C1357 H1360 0.929 . S
C1358 C1357 1.359 1_455 S
C1358 C1364 1.428 . S
H1359 C1355 0.930 . S
H1360 C1357 0.929 . S
S1361 N1362 1.613 1_455 S
S1361 N1363 1.610 . S
N1362 S1361 1.613 1_655 S
N1362 C1365 1.350 . S
N1363 S1361 1.610 . S
N1363 C1364 1.367 . S
C1364 C1358 1.428 . S
C1364 N1363 1.367 . S
C1364 C1365 1.417 1_455 S
C1365 C1356 1.429 . S
C1365 N1362 1.350 . S
C1365 C1364 1.417 1_655 S
C1366 C1367 1.363 1_545 S
C1366 C1368 1.419 . S
C1366 H1370 0.930 . S
C1367 C1366 1.363 1_565 S
C1367 C1376 1.428 1_565 S
C1368 C1366 1.419 . S
C1368 C1369 1.363 . S
C1368 H1371 0.929 . S
C1369 C1368 1.363 . S
C1369 C1375 1.428 . S
H1370 C1366 0.930 . S
H1371 C1368 0.929 . S
S1372 N1373 1.613 . S
S1372 N1374 1.610 1_565 S
N1373 S1372 1.613 . S
N1373 C1376 1.350 1_565 S
N1374 S1372 1.610 1_545 S
N1374 C1375 1.351 . S
C1375 C1369 1.428 . S
C1375 N1374 1.351 . S
C1375 C1376 1.434 . S
C1376 C1367 1.428 1_545 S
C1376 N1373 1.350 1_545 S
C1376 C1375 1.434 . S
C1377 C1378 1.368 1_455 S
C1377 C1379 1.419 . S
C1377 H1381 0.930 . S
C1378 C1377 1.368 1_655 S
C1378 C1387 1.429 1_655 S
C1379 C1377 1.419 . S
C1379 C1380 1.363 . S
C1379 H1382 0.929 . S
C1380 C1379 1.363 . S
C1380 C1386 1.428 . S
H1381 C1377 0.930 . S
H1382 C1379 0.929 . S
S1383 N1384 1.613 1_455 S
S1383 N1385 1.610 . S
N1384 S1383 1.613 1_655 S
N1384 C1387 1.350 1_655 S
N1385 S1383 1.610 . S
N1385 C1386 1.351 . S
C1386 C1380 1.428 . S
C1386 N1385 1.351 . S
C1386 C1387 1.434 . S
C1387 C1378 1.429 1_455 S
C1387 N1384 1.350 1_455 S
C1387 C1386 1.434 . S
C1388 C1389 1.369 . S
C1388 C1390 1.419 . S
C1388 H1392 0.930 . S
C1389 C1388 1.369 . S
C1389 C1398 1.429 . S
C1390 C1388 1.419 . S
C1390 C1391 1.363 1_554 S
C1390 H1393 0.929 . S
C1391 C1390 1.363 1_556 S
C1391 C1397 1.428 1_556 S
H1392 C1388 0.930 . S
H1393 C1390 0.929 . S
S1394 N1395 1.613 . S
S1394 N1396 1.610 1_554 S
N1395 S1394 1.613 . S
N1395 C1398 1.350 . S
N1396 S1394 1.610 1_556 S
N1396 C1397 1.351 1_556 S
C1397 C1391 1.428 1_554 S
C1397 N1396 1.351 1_554 S
C1397 C1398 1.434 . S
C1398 C1389 1.429 . S
C1398 N1395 1.350 . S
C1398 C1397 1.434 . S
C1399 C1400 1.369 . S
C1399 C1401 1.419 1_554 S
C1399 H1403 0.930 . S
C1400 C1399 1.369 . S
C1400 C1409 1.429 1_554 S
C1401 C1399 1.419 1_556 S
C1401 C1402 1.363 . S
C1401 H1404 0.929 1_556 S
C1402 C1401 1.363 . S
C1402 C1408 1.428 . S
H1403 C1399 0.930 . S
H1404 C1401 0.929 1_554 S
S1405 N1406 1.613 . S
S1405 N1407 1.610 . S
N1406 S1405 1.613 . S
N1406 C1409 1.350 . S
N1407 S1405 1.610 . S
N1407 C1408 1.351 . S
C1408 C1402 1.428 . S
C1408 N1407 1.351 . S
C1408 C1409 1.434 . S
C1409 C1400 1.429 1_556 S
C1409 N1406 1.350 . S
C1409 C1408 1.434 . S
C1410 C1411 1.369 . S
C1410 C1412 1.419 . S
C1410 H1414 0.930 . S
C1411 C1410 1.369 . S
C1411 C1420 1.429 1_554 S
C1412 C1410 1.419 . S
C1412 C1413 1.363 1_554 S
C1412 H1415 0.929 . S
C1413 C1412 1.363 1_556 S
C1413 C1419 1.428 . S
H1414 C1410 0.930 . S
H1415 C1412 0.929 . S
S1416 N1417 1.613 . S
S1416 N1418 1.610 . S
N1417 S1416 1.613 . S
N1417 C1420 1.350 . S
N1418 S1416 1.610 . S
N1418 C1419 1.351 . S
C1419 C1413 1.428 . S
C1419 N1418 1.351 . S
C1419 C1420 1.434 . S
C1420 C1411 1.429 1_556 S
C1420 N1417 1.350 . S
C1420 C1419 1.434 . S
C1421 C1422 1.369 . S
C1421 C1423 1.419 1_554 S
C1421 H1425 0.930 . S
C1422 C1421 1.369 . S
C1422 C1431 1.429 1_554 S
C1423 C1421 1.419 1_556 S
C1423 C1424 1.363 . S
C1423 H1426 0.929 . S
C1424 C1423 1.363 . S
C1424 C1430 1.428 . S
H1425 C1421 0.930 . S
H1426 C1423 0.929 . S
S1427 N1428 1.613 . S
S1427 N1429 1.610 . S
N1428 S1427 1.613 . S
N1428 C1431 1.350 . S
N1429 S1427 1.610 . S
N1429 C1430 1.351 . S
C1430 C1424 1.428 . S
C1430 N1429 1.351 . S
C1430 C1431 1.434 . S
C1431 C1422 1.429 1_556 S
C1431 N1428 1.350 . S
C1431 C1430 1.434 . S
C1432 C1433 1.369 . S
C1432 C1434 1.419 . S
C1432 H1436 0.930 . S
C1433 C1432 1.369 . S
C1433 C1442 1.429 . S
C1434 C1432 1.419 . S
C1434 C1435 1.363 . S
C1434 H1437 0.929 . S
C1435 C1434 1.363 . S
C1435 C1441 1.428 . S
H1436 C1432 0.930 . S
H1437 C1434 0.929 . S
S1438 N1439 1.613 . S
S1438 N1440 1.610 . S
N1439 S1438 1.613 . S
N1439 C1442 1.350 . S
N1440 S1438 1.610 . S
N1440 C1441 1.351 . S
C1441 C1435 1.428 . S
C1441 N1440 1.351 . S
C1441 C1442 1.434 . S
C1442 C1433 1.429 . S
C1442 N1439 1.350 . S
C1442 C1441 1.434 . S
C1443 C1444 1.369 . S
C1443 C1445 1.419 . S
C1443 H1447 0.930 . S
C1444 C1443 1.369 . S
C1444 C1453 1.429 . S
C1445 C1443 1.419 . S
C1445 C1446 1.363 . S
C1445 H1448 0.929 . S
C1446 C1445 1.363 . S
C1446 C1452 1.428 . S
H1447 C1443 0.930 . S
H1448 C1445 0.929 . S
S1449 N1450 1.613 . S
S1449 N1451 1.610 . S
N1450 S1449 1.613 . S
N1450 C1453 1.350 . S
N1451 S1449 1.610 . S
N1451 C1452 1.351 . S
C1452 C1446 1.428 . S
C1452 N1451 1.351 . S
C1452 C1453 1.434 . S
C1453 C1444 1.429 . S
C1453 N1450 1.350 . S
C1453 C1452 1.434 . S
C1454 C1455 1.369 . S
C1454 C1456 1.419 . S
C1454 H1458 0.930 . S
C1455 C1454 1.369 . S
C1455 C1464 1.429 . S
C1456 C1454 1.419 . S
C1456 C1457 1.363 . S
C1456 H1459 0.929 . S
C1457 C1456 1.363 . S
C1457 C1463 1.428 . S
H1458 C1454 0.930 . S
H1459 C1456 0.929 . S
S1460 N1461 1.613 . S
S1460 N1462 1.610 . S
N1461 S1460 1.613 . S
N1461 C1464 1.350 . S
N1462 S1460 1.610 . S
N1462 C1463 1.351 . S
C1463 C1457 1.428 . S
C1463 N1462 1.351 . S
C1463 C1464 1.434 . S
C1464 C1455 1.429 . S
C1464 N1461 1.350 . S
C1464 C1463 1.434 . S
C1465 C1466 1.369 . S
C1465 C1467 1.419 . S
C1465 H1469 0.930 . S
C1466 C1465 1.369 . S
C1466 C1475 1.429 . S
C1467 C1465 1.419 . S
C1467 C1468 1.363 . S
C1467 H1470 0.929 . S
C1468 C1467 1.363 . S
C1468 C1474 1.428 . S
H1469 C1465 0.930 . S
H1470 C1467 0.929 . S
S1471 N1472 1.613 . S
S1471 N1473 1.610 . S
N1472 S1471 1.613 . S
N1472 C1475 1.350 . S
N1473 S1471 1.610 . S
N1473 C1474 1.351 . S
C1474 C1468 1.428 . S
C1474 N1473 1.351 . S
C1474 C1475 1.434 . S
C1475 C1466 1.429 . S
C1475 N1472 1.350 . S
C1475 C1474 1.434 . S
C1476 C1477 1.363 1_545 S
C1476 C1478 1.419 . S
C1476 H1480 0.930 . S
C1477 C1476 1.363 1_565 S
C1477 C1486 1.429 . S
C1478 C1476 1.419 . S
C1478 C1479 1.363 . S
C1478 H1481 0.929 . S
C1479 C1478 1.363 . S
C1479 C1485 1.428 . S
H1480 C1476 0.930 . S
H1481 C1478 0.929 . S
S1482 N1483 1.613 . S
S1482 N1484 1.610 1_565 S
N1483 S1482 1.613 . S
N1483 C1486 1.363 . S
N1484 S1482 1.610 1_545 S
N1484 C1485 1.351 . S
C1485 C1479 1.428 . S
C1485 N1484 1.351 . S
C1485 C1486 1.420 1_545 S
C1486 C1477 1.429 . S
C1486 N1483 1.363 . S
C1486 C1485 1.420 1_565 S
C1487 C1488 1.369 . S
C1487 C1489 1.419 . S
C1487 H1491 0.930 . S
C1488 C1487 1.369 . S
C1488 C1497 1.429 . S
C1489 C1487 1.419 . S
C1489 C1490 1.363 . S
C1489 H1492 0.929 1_455 S
C1490 C1489 1.363 . S
C1490 C1496 1.430 . S
H1491 C1487 0.930 . S
H1492 C1489 0.929 1_655 S
S1493 N1494 1.613 . S
S1493 N1495 1.610 . S
N1494 S1493 1.613 . S
N1494 C1497 1.350 . S
N1495 S1493 1.610 . S
N1495 C1496 1.351 . S
C1496 C1490 1.430 . S
C1496 N1495 1.351 . S
C1496 C1497 1.434 . S
C1497 C1488 1.429 . S
C1497 N1494 1.350 . S
C1497 C1496 1.434 . S
C1498 C1499 1.369 . S
C1498 C1500 1.419 . S
C1498 H1502 0.930 . S
C1499 C1498 1.369 . S
C1499 C1508 1.429 . S
C1500 C1498 1.419 . S
C1500 C1501 1.363 . S
C1500 H1503 0.929 1_565 S
C1501 C1500 1.363 . S
C1501 C1507 1.429 . S
H1502 C1498 0.930 . S
H1503 C1500 0.929 1_545 S
S1504 N1505 1.613 . S
S1504 N1506 1.610 . S
N1505 S1504 1.613 . S
N1505 C1508 1.350 . S
N1506 S1504 1.610 . S
N1506 C1507 1.351 . S
C1507 C1501 1.429 . S
C1507 N1506 1.351 . S
C1507 C1508 1.434 . S
C1508 C1499 1.429 . S
C1508 N1505 1.350 . S
C1508 C1507 1.434 . S
C1509 C1510 1.369 . S
C1509 C1511 1.419 . S
C1509 H1513 0.930 1_655 S
C1510 C1509 1.369 . S
C1510 C1519 1.427 . S
C1511 C1509 1.419 . S
C1511 C1512 1.363 . S
C1511 H1514 0.929 . S
C1512 C1511 1.363 . S
C1512 C1518 1.428 . S
H1513 C1509 0.930 1_455 S
H1514 C1511 0.929 . S
S1515 N1516 1.613 . S
S1515 N1517 1.610 . S
N1516 S1515 1.613 . S
N1516 C1519 1.350 . S
N1517 S1515 1.610 . S
N1517 C1518 1.351 . S
C1518 C1512 1.428 . S
C1518 N1517 1.351 . S
C1518 C1519 1.434 . S
C1519 C1510 1.427 . S
C1519 N1516 1.350 . S
C1519 C1518 1.434 . S
C1520 C1521 1.369 . S
C1520 C1522 1.419 . S
C1520 H1524 0.930 . S
C1521 C1520 1.369 . S
C1521 C1530 1.429 . S
C1522 C1520 1.419 . S
C1522 C1523 1.363 . S
C1522 H1525 0.929 . S
C1523 C1522 1.363 . S
C1523 C1529 1.428 . S
H1524 C1520 0.930 . S
H1525 C1522 0.929 . S
S1526 N1527 1.613 . S
S1526 N1528 1.610 . S
N1527 S1526 1.613 . S
N1527 C1530 1.350 . S
N1528 S1526 1.610 . S
N1528 C1529 1.351 . S
C1529 C1523 1.428 . S
C1529 N1528 1.351 . S
C1529 C1530 1.434 . S
C1530 C1521 1.429 . S
C1530 N1527 1.350 . S
C1530 C1529 1.434 . S
C1531 C1532 1.369 . S
C1531 C1533 1.419 . S
C1531 H1535 0.930 . S
C1532 C1531 1.369 . S
C1532 C1541 1.429 . S
C1533 C1531 1.419 . S
C1533 C1534 1.363 . S
C1533 H1536 0.929 . S
C1534 C1533 1.363 . S
C1534 C1540 1.428 . S
H1535 C1531 0.930 . S
H1536 C1533 0.929 . S
S1537 N1538 1.613 . S
S1537 N1539 1.610 . S
N1538 S1537 1.613 . S
N1538 C1541 1.350 . S
N1539 S1537 1.610 . S
N1539 C1540 1.351 . S
C1540 C1534 1.428 . S
C1540 N1539 1.351 . S
C1540 C1541 1.434 . S
C1541 C1532 1.429 . S
C1541 N1538 1.350 . S
C1541 C1540 1.434 . S
C1542 C1543 1.369 . S
C1542 C1544 1.419 . S
C1542 H1546 0.930 . S
C1543 C1542 1.369 . S
C1543 C1552 1.429 . S
C1544 C1542 1.419 . S
C1544 C1545 1.363 . S
C1544 H1547 0.929 . S
C1545 C1544 1.363 . S
C1545 C1551 1.428 . S
H1546 C1542 0.930 . S
H1547 C1544 0.929 . S
S1548 N1549 1.613 . S
S1548 N1550 1.610 1_556 S
N1549 S1548 1.613 . S
N1549 C1552 1.350 1_556 S
N1550 S1548 1.610 1_554 S
N1550 C1551 1.351 . S
C1551 C1545 1.428 . S
C1551 N1550 1.351 . S
C1551 C1552 1.434 . S
C1552 C1543 1.429 . S
C1552 N1549 1.350 1_554 S
C1552 C1551 1.434 . S
C1553 C1554 1.369 . S
C1553 C1555 1.419 . S
C1553 H1557 0.930 . S
C1554 C1553 1.369 . S
C1554 C1563 1.429 . S
C1555 C1553 1.419 . S
C1555 C1556 1.363 . S
C1555 H1558 0.929 . S
C1556 C1555 1.363 . S
C1556 C1562 1.428 . S
H1557 C1553 0.930 . S
H1558 C1555 0.929 . S
S1559 N1560 1.613 . S
S1559 N1561 1.610 . S
N1560 S1559 1.613 . S
N1560 C1563 1.350 . S
N1561 S1559 1.610 . S
N1561 C1562 1.351 . S
C1562 C1556 1.428 . S
C1562 N1561 1.351 . S
C1562 C1563 1.434 . S
C1563 C1554 1.429 . S
C1563 N1560 1.350 . S
C1563 C1562 1.434 . S
C1564 C1565 1.369 . S
C1564 C1566 1.419 . S
C1564 H1568 0.930 . S
C1565 C1564 1.369 . S
C1565 C1574 1.429 . S
C1566 C1564 1.419 . S
C1566 C1567 1.363 . S
C1566 H1569 0.929 . S
C1567 C1566 1.363 . S
C1567 C1573 1.428 . S
H1568 C1564 0.930 . S
H1569 C1566 0.929 . S
S1570 N1571 1.613 . S
S1570 N1572 1.610 . S
N1571 S1570 1.613 . S
N1571 C1574 1.350 . S
N1572 S1570 1.610 . S
N1572 C1573 1.351 . S
C1573 C1567 1.428 . S
C1573 N1572 1.351 . S
C1573 C1574 1.434 . S
C1574 C1565 1.429 . S
C1574 N1571 1.350 . S
C1574 C1573 1.434 . S
C1575 C1576 1.369 . S
C1575 C1577 1.419 . S
C1575 H1579 0.930 . S
C1576 C1575 1.369 . S
C1576 C1585 1.429 . S
C1577 C1575 1.419 . S
C1577 C1578 1.363 . S
C1577 H1580 0.929 . S
C1578 C1577 1.363 . S
C1578 C1584 1.428 . S
H1579 C1575 0.930 . S
H1580 C1577 0.929 . S
S1581 N1582 1.613 . S
S1581 N1583 1.610 . S
N1582 S1581 1.613 . S
N1582 C1585 1.350 . S
N1583 S1581 1.610 . S
N1583 C1584 1.351 . S
C1584 C1578 1.428 . S
C1584 N1583 1.351 . S
C1584 C1585 1.434 . S
C1585 C1576 1.429 . S
C1585 N1582 1.350 . S
C1585 C1584 1.434 . S
C1586 C1587 1.369 . S
C1586 C1588 1.419 . S
C1586 H1590 0.930 . S
C1587 C1586 1.369 . S
C1587 C1596 1.429 . S
C1588 C1586 1.419 . S
C1588 C1589 1.363 . S
C1588 H1591 0.929 . S
C1589 C1588 1.363 . S
C1589 C1595 1.428 . S
H1590 C1586 0.930 . S
H1591 C1588 0.929 . S
S1592 N1593 1.613 . S
S1592 N1594 1.610 . S
N1593 S1592 1.613 . S
N1593 C1596 1.350 . S
N1594 S1592 1.610 . S
N1594 C1595 1.351 . S
C1595 C1589 1.428 . S
C1595 N1594 1.351 . S
C1595 C1596 1.434 . S
C1596 C1587 1.429 . S
C1596 N1593 1.350 . S
C1596 C1595 1.434 . S
C1597 C1598 1.369 . S
C1597 C1599 1.419 . S
C1597 H1601 0.930 . S
C1598 C1597 1.369 . S
C1598 C1607 1.429 . S
C1599 C1597 1.419 . S
C1599 C1600 1.363 . S
C1599 H1602 0.929 . S
C1600 C1599 1.363 . S
C1600 C1606 1.428 . S
H1601 C1597 0.930 . S
H1602 C1599 0.929 . S
S1603 N1604 1.613 . S
S1603 N1605 1.610 . S
N1604 S1603 1.613 . S
N1604 C1607 1.350 . S
N1605 S1603 1.610 . S
N1605 C1606 1.351 . S
C1606 C1600 1.428 . S
C1606 N1605 1.351 . S
C1606 C1607 1.434 . S
C1607 C1598 1.429 . S
C1607 N1604 1.350 . S
C1607 C1606 1.434 . S
C1608 C1609 1.369 . S
C1608 C1610 1.419 . S
C1608 H1612 0.930 . S
C1609 C1608 1.369 . S
C1609 C1618 1.429 . S
C1610 C1608 1.419 . S
C1610 C1611 1.363 . S
C1610 H1613 0.929 . S
C1611 C1610 1.363 . S
C1611 C1617 1.428 . S
H1612 C1608 0.930 . S
H1613 C1610 0.929 . S
S1614 N1615 1.613 . S
S1614 N1616 1.610 . S
N1615 S1614 1.613 . S
N1615 C1618 1.350 . S
N1616 S1614 1.610 . S
N1616 C1617 1.351 . S
C1617 C1611 1.428 . S
C1617 N1616 1.351 . S
C1617 C1618 1.434 . S
C1618 C1609 1.429 . S
C1618 N1615 1.350 . S
C1618 C1617 1.434 . S
C1619 C1620 1.369 . S
C1619 C1621 1.419 . S
C1619 H1623 0.930 . S
C1620 C1619 1.369 . S
C1620 C1629 1.429 . S
C1621 C1619 1.419 . S
C1621 C1622 1.363 . S
C1621 H1624 0.929 . S
C1622 C1621 1.363 . S
C1622 C1628 1.428 . S
H1623 C1619 0.930 . S
H1624 C1621 0.929 . S
S1625 N1626 1.613 . S
S1625 N1627 1.610 . S
N1626 S1625 1.613 . S
N1626 C1629 1.350 . S
N1627 S1625 1.610 . S
N1627 C1628 1.351 . S
C1628 C1622 1.428 . S
C1628 N1627 1.351 . S
C1628 C1629 1.434 . S
C1629 C1620 1.429 . S
C1629 N1626 1.350 . S
C1629 C1628 1.434 . S
C1630 C1631 1.369 . S
C1630 C1632 1.419 . S
C1630 H1634 0.930 . S
C1631 C1630 1.369 . S
C1631 C1640 1.429 . S
C1632 C1630 1.419 . S
C1632 C1633 1.363 . S
C1632 H1635 0.929 . S
C1633 C1632 1.363 . S
C1633 C1639 1.428 . S
H1634 C1630 0.930 . S
H1635 C1632 0.929 . S
S1636 N1637 1.613 . S
S1636 N1638 1.610 . S
N1637 S1636 1.613 . S
N1637 C1640 1.350 . S
N1638 S1636 1.610 . S
N1638 C1639 1.351 . S
C1639 C1633 1.428 . S
C1639 N1638 1.351 . S
C1639 C1640 1.434 . S
C1640 C1631 1.429 . S
C1640 N1637 1.350 . S
C1640 C1639 1.434 . S
C1641 C1642 1.369 . S
C1641 C1643 1.419 . S
C1641 H1645 0.930 . S
C1642 C1641 1.369 . S
C1642 C1651 1.429 . S
C1643 C1641 1.419 . S
C1643 C1644 1.363 . S
C1643 H1646 0.929 . S
C1644 C1643 1.363 . S
C1644 C1650 1.428 . S
H1645 C1641 0.930 . S
H1646 C1643 0.929 . S
S1647 N1648 1.613 . S
S1647 N1649 1.610 . S
N1648 S1647 1.613 . S
N1648 C1651 1.350 . S
N1649 S1647 1.610 . S
N1649 C1650 1.351 . S
C1650 C1644 1.428 . S
C1650 N1649 1.351 . S
C1650 C1651 1.434 . S
C1651 C1642 1.429 . S
C1651 N1648 1.350 . S
C1651 C1650 1.434 . S
C1652 C1653 1.369 . S
C1652 C1654 1.419 . S
C1652 H1656 0.930 . S
C1653 C1652 1.369 . S
C1653 C1662 1.429 . S
C1654 C1652 1.419 . S
C1654 C1655 1.363 . S
C1654 H1657 0.929 . S
C1655 C1654 1.363 . S
C1655 C1661 1.428 . S
H1656 C1652 0.930 . S
H1657 C1654 0.929 . S
S1658 N1659 1.613 . S
S1658 N1660 1.610 . S
N1659 S1658 1.613 . S
N1659 C1662 1.350 . S
N1660 S1658 1.610 . S
N1660 C1661 1.351 . S
C1661 C1655 1.428 . S
C1661 N1660 1.351 . S
C1661 C1662 1.434 . S
C1662 C1653 1.429 . S
C1662 N1659 1.350 . S
C1662 C1661 1.434 . S
C1663 C1664 1.369 . S
C1663 C1665 1.419 . S
C1663 H1667 0.930 . S
C1664 C1663 1.369 . S
C1664 C1673 1.429 . S
C1665 C1663 1.419 . S
C1665 C1666 1.363 . S
C1665 H1668 0.929 . S
C1666 C1665 1.363 . S
C1666 C1672 1.428 . S
H1667 C1663 0.930 . S
H1668 C1665 0.929 . S
S1669 N1670 1.613 . S
S1669 N1671 1.610 . S
N1670 S1669 1.613 . S
N1670 C1673 1.350 . S
N1671 S1669 1.610 . S
N1671 C1672 1.351 . S
C1672 C1666 1.428 . S
C1672 N1671 1.351 . S
C1672 C1673 1.434 . S
C1673 C1664 1.429 . S
C1673 N1670 1.350 . S
C1673 C1672 1.434 . S
C1674 C1675 1.369 . S
C1674 C1676 1.419 . S
C1674 H1678 0.930 . S
C1675 C1674 1.369 . S
C1675 C1684 1.429 . S
C1676 C1674 1.419 . S
C1676 C1677 1.363 . S
C1676 H1679 0.929 . S
C1677 C1676 1.363 . S
C1677 C1683 1.428 . S
H1678 C1674 0.930 . S
H1679 C1676 0.929 . S
S1680 N1681 1.613 . S
S1680 N1682 1.610 . S
N1681 S1680 1.613 . S
N1681 C1684 1.350 . S
N1682 S1680 1.610 . S
N1682 C1683 1.351 . S
C1683 C1677 1.428 . S
C1683 N1682 1.351 . S
C1683 C1684 1.434 . S
C1684 C1675 1.429 . S
C1684 N1681 1.350 . S
C1684 C1683 1.434 . S
C1685 C1686 1.369 . S
C1685 C1687 1.419 . S
C1685 H1689 0.930 . S
C1686 C1685 1.369 . S
C1686 C1695 1.429 . S
C1687 C1685 1.419 . S
C1687 C1688 1.363 . S
C1687 H1690 0.929 . S
C1688 C1687 1.363 . S
C1688 C1694 1.428 . S
H1689 C1685 0.930 . S
H1690 C1687 0.929 . S
S1691 N1692 1.613 . S
S1691 N1693 1.610 . S
N1692 S1691 1.613 . S
N1692 C1695 1.350 . S
N1693 S1691 1.610 . S
N1693 C1694 1.351 . S
C1694 C1688 1.428 . S
C1694 N1693 1.351 . S
C1694 C1695 1.434 . S
C1695 C1686 1.429 . S
C1695 N1692 1.350 . S
C1695 C1694 1.434 . S
C1696 C1697 1.369 . S
C1696 C1698 1.419 . S
C1696 H1700 0.930 . S
C1697 C1696 1.369 . S
C1697 C1706 1.429 . S
C1698 C1696 1.419 . S
C1698 C1699 1.363 . S
C1698 H1701 0.929 . S
C1699 C1698 1.363 . S
C1699 C1705 1.428 . S
H1700 C1696 0.930 . S
H1701 C1698 0.929 . S
S1702 N1703 1.613 . S
S1702 N1704 1.610 . S
N1703 S1702 1.613 . S
N1703 C1706 1.350 . S
N1704 S1702 1.610 . S
N1704 C1705 1.351 . S
C1705 C1699 1.428 . S
C1705 N1704 1.351 . S
C1705 C1706 1.434 . S
C1706 C1697 1.429 . S
C1706 N1703 1.350 . S
C1706 C1705 1.434 . S
C1707 C1708 1.369 . S
C1707 C1709 1.419 . S
C1707 H1711 0.930 . S
C1708 C1707 1.369 . S
C1708 C1717 1.429 . S
C1709 C1707 1.419 . S
C1709 C1710 1.363 . S
C1709 H1712 0.929 . S
C1710 C1709 1.363 . S
C1710 C1716 1.428 . S
H1711 C1707 0.930 . S
H1712 C1709 0.929 . S
S1713 N1714 1.613 . S
S1713 N1715 1.610 . S
N1714 S1713 1.613 . S
N1714 C1717 1.350 . S
N1715 S1713 1.610 . S
N1715 C1716 1.351 . S
C1716 C1710 1.428 . S
C1716 N1715 1.351 . S
C1716 C1717 1.434 . S
C1717 C1708 1.429 . S
C1717 N1714 1.350 . S
C1717 C1716 1.434 . S
C1718 C1719 1.369 . S
C1718 C1720 1.419 . S
C1718 H1722 0.930 . S
C1719 C1718 1.369 . S
C1719 C1728 1.429 . S
C1720 C1718 1.419 . S
C1720 C1721 1.363 . S
C1720 H1723 0.929 . S
C1721 C1720 1.363 . S
C1721 C1727 1.428 . S
H1722 C1718 0.930 . S
H1723 C1720 0.929 . S
S1724 N1725 1.613 . S
S1724 N1726 1.610 . S
N1725 S1724 1.613 . S
N1725 C1728 1.350 . S
N1726 S1724 1.610 . S
N1726 C1727 1.351 . S
C1727 C1721 1.428 . S
C1727 N1726 1.351 . S
C1727 C1728 1.434 . S
C1728 C1719 1.429 . S
C1728 N1725 1.350 . S
C1728 C1727 1.434 . S
C1729 C1730 1.369 . S
C1729 C1731 1.419 . S
C1729 H1733 0.930 . S
C1730 C1729 1.369 . S
C1730 C1739 1.429 . S
C1731 C1729 1.419 . S
C1731 C1732 1.363 . S
C1731 H1734 0.929 . S
C1732 C1731 1.363 . S
C1732 C1738 1.428 . S
H1733 C1729 0.930 . S
H1734 C1731 0.929 . S
S1735 N1736 1.613 . S
S1735 N1737 1.610 . S
N1736 S1735 1.613 . S
N1736 C1739 1.350 . S
N1737 S1735 1.610 . S
N1737 C1738 1.351 . S
C1738 C1732 1.428 . S
C1738 N1737 1.351 . S
C1738 C1739 1.434 . S
C1739 C1730 1.429 . S
C1739 N1736 1.350 . S
C1739 C1738 1.434 . S
C1740 C1741 1.369 . S
C1740 C1742 1.419 . S
C1740 H1744 0.930 . S
C1741 C1740 1.369 . S
C1741 C1750 1.429 . S
C1742 C1740 1.419 . S
C1742 C1743 1.363 . S
C1742 H1745 0.929 . S
C1743 C1742 1.363 . S
C1743 C1749 1.428 . S
H1744 C1740 0.930 . S
H1745 C1742 0.929 . S
S1746 N1747 1.613 . S
S1746 N1748 1.610 . S
N1747 S1746 1.613 . S
N1747 C1750 1.350 . S
N1748 S1746 1.610 . S
N1748 C1749 1.351 . S
C1749 C1743 1.428 . S
C1749 N1748 1.351 . S
C1749 C1750 1.434 . S
C1750 C1741 1.429 . S
C1750 N1747 1.350 . S
C1750 C1749 1.434 . S
C1751 C1752 1.369 . S
C1751 C1753 1.419 . S
C1751 H1755 0.930 . S
C1752 C1751 1.369 . S
C1752 C1761 1.429 . S
C1753 C1751 1.419 . S
C1753 C1754 1.363 . S
C1753 H1756 0.929 . S
C1754 C1753 1.363 . S
C1754 C1760 1.428 . S
H1755 C1751 0.930 . S
H1756 C1753 0.929 . S
S1757 N1758 1.613 . S
S1757 N1759 1.610 . S
N1758 S1757 1.613 . S
N1758 C1761 1.350 . S
N1759 S1757 1.610 . S
N1759 C1760 1.351 . S
C1760 C1754 1.428 . S
C1760 N1759 1.351 . S
C1760 C1761 1.434 . S
C1761 C1752 1.429 . S
C1761 N1758 1.350 . S
C1761 C1760 1.434 . S
C1762 C1763 1.369 . S
C1762 C1764 1.419 . S
C1762 H1766 0.930 . S
C1763 C1762 1.369 . S
C1763 C1772 1.429 . S
C1764 C1762 1.419 . S
C1764 C1765 1.363 . S
C1764 H1767 0.929 . S
C1765 C1764 1.363 . S
C1765 C1771 1.428 . S
H1766 C1762 0.930 . S
H1767 C1764 0.929 . S
S1768 N1769 1.613 . S
S1768 N1770 1.610 . S
N1769 S1768 1.613 . S
N1769 C1772 1.350 . S
N1770 S1768 1.610 . S
N1770 C1771 1.351 . S
C1771 C1765 1.428 . S
C1771 N1770 1.351 . S
C1771 C1772 1.434 . S
C1772 C1763 1.429 . S
C1772 N1769 1.350 . S
C1772 C1771 1.434 . S
C1773 C1774 1.369 . S
C1773 C1775 1.419 . S
C1773 H1777 0.930 . S
C1774 C1773 1.369 . S
C1774 C1783 1.429 . S
C1775 C1773 1.419 . S
C1775 C1776 1.363 . S
C1775 H1778 0.929 . S
C1776 C1775 1.363 . S
C1776 C1782 1.428 . S
H1777 C1773 0.930 . S
H1778 C1775 0.929 . S
S1779 N1780 1.613 . S
S1779 N1781 1.610 . S
N1780 S1779 1.613 . S
N1780 C1783 1.350 . S
N1781 S1779 1.610 . S
N1781 C1782 1.351 . S
C1782 C1776 1.428 . S
C1782 N1781 1.351 . S
C1782 C1783 1.434 . S
C1783 C1774 1.429 . S
C1783 N1780 1.350 . S
C1783 C1782 1.434 . S
C1784 C1785 1.369 . S
C1784 C1786 1.419 . S
C1784 H1788 0.930 . S
C1785 C1784 1.369 . S
C1785 C1794 1.429 . S
C1786 C1784 1.419 . S
C1786 C1787 1.363 . S
C1786 H1789 0.929 . S
C1787 C1786 1.363 . S
C1787 C1793 1.428 . S
H1788 C1784 0.930 . S
H1789 C1786 0.929 . S
S1790 N1791 1.613 . S
S1790 N1792 1.610 . S
N1791 S1790 1.613 . S
N1791 C1794 1.350 . S
N1792 S1790 1.610 . S
N1792 C1793 1.351 . S
C1793 C1787 1.428 . S
C1793 N1792 1.351 . S
C1793 C1794 1.434 . S
C1794 C1785 1.429 . S
C1794 N1791 1.350 . S
C1794 C1793 1.434 . S
C1795 C1796 1.369 . S
C1795 C1797 1.419 . S
C1795 H1799 0.930 . S
C1796 C1795 1.369 . S
C1796 C1805 1.429 . S
C1797 C1795 1.419 . S
C1797 C1798 1.363 . S
C1797 H1800 0.929 . S
C1798 C1797 1.363 . S
C1798 C1804 1.428 . S
H1799 C1795 0.930 . S
H1800 C1797 0.929 . S
S1801 N1802 1.613 . S
S1801 N1803 1.610 . S
N1802 S1801 1.613 . S
N1802 C1805 1.350 . S
N1803 S1801 1.610 . S
N1803 C1804 1.351 . S
C1804 C1798 1.428 . S
C1804 N1803 1.351 . S
C1804 C1805 1.434 . S
C1805 C1796 1.429 . S
C1805 N1802 1.350 . S
C1805 C1804 1.434 . S
C1806 C1807 1.369 . S
C1806 C1808 1.419 . S
C1806 H1810 0.930 . S
C1807 C1806 1.369 . S
C1807 C1816 1.429 . S
C1808 C1806 1.419 . S
C1808 C1809 1.363 . S
C1808 H1811 0.929 . S
C1809 C1808 1.363 . S
C1809 C1815 1.428 . S
H1810 C1806 0.930 . S
H1811 C1808 0.929 . S
S1812 N1813 1.613 . S
S1812 N1814 1.610 . S
N1813 S1812 1.613 . S
N1813 C1816 1.350 . S
N1814 S1812 1.610 . S
N1814 C1815 1.351 . S
C1815 C1809 1.428 . S
C1815 N1814 1.351 . S
C1815 C1816 1.434 . S
C1816 C1807 1.429 . S
C1816 N1813 1.350 . S
C1816 C1815 1.434 . S
C1817 C1818 1.369 . S
C1817 C1819 1.419 . S
C1817 H1821 0.930 . S
C1818 C1817 1.369 . S
C1818 C1827 1.429 . S
C1819 C1817 1.419 . S
C1819 C1820 1.363 . S
C1819 H1822 0.929 . S
C1820 C1819 1.363 . S
C1820 C1826 1.428 . S
H1821 C1817 0.930 . S
H1822 C1819 0.929 . S
S1823 N1824 1.613 . S
S1823 N1825 1.610 . S
N1824 S1823 1.613 . S
N1824 C1827 1.350 . S
N1825 S1823 1.610 . S
N1825 C1826 1.351 . S
C1826 C1820 1.428 . S
C1826 N1825 1.351 . S
C1826 C1827 1.434 . S
C1827 C1818 1.429 . S
C1827 N1824 1.350 . S
C1827 C1826 1.434 . S
C1828 C1829 1.369 . S
C1828 C1830 1.419 . S
C1828 H1832 0.930 . S
C1829 C1828 1.369 . S
C1829 C1838 1.429 . S
C1830 C1828 1.419 . S
C1830 C1831 1.363 . S
C1830 H1833 0.929 . S
C1831 C1830 1.363 . S
C1831 C1837 1.428 . S
H1832 C1828 0.930 . S
H1833 C1830 0.929 . S
S1834 N1835 1.613 . S
S1834 N1836 1.610 . S
N1835 S1834 1.613 . S
N1835 C1838 1.350 . S
N1836 S1834 1.610 . S
N1836 C1837 1.351 . S
C1837 C1831 1.428 . S
C1837 N1836 1.351 . S
C1837 C1838 1.434 . S
C1838 C1829 1.429 . S
C1838 N1835 1.350 . S
C1838 C1837 1.434 . S
C1839 C1840 1.369 . S
C1839 C1841 1.419 . S
C1839 H1843 0.930 . S
C1840 C1839 1.369 . S
C1840 C1849 1.429 . S
C1841 C1839 1.419 . S
C1841 C1842 1.363 . S
C1841 H1844 0.929 . S
C1842 C1841 1.363 . S
C1842 C1848 1.428 . S
H1843 C1839 0.930 . S
H1844 C1841 0.929 . S
S1845 N1846 1.613 . S
S1845 N1847 1.610 . S
N1846 S1845 1.613 . S
N1846 C1849 1.350 . S
N1847 S1845 1.610 . S
N1847 C1848 1.351 . S
C1848 C1842 1.428 . S
C1848 N1847 1.351 . S
C1848 C1849 1.434 . S
C1849 C1840 1.429 . S
C1849 N1846 1.350 . S
C1849 C1848 1.434 . S
C1850 C1851 1.369 . S
C1850 C1852 1.419 . S
C1850 H1854 0.930 . S
C1851 C1850 1.369 . S
C1851 C1860 1.429 . S
C1852 C1850 1.419 . S
C1852 C1853 1.363 . S
C1852 H1855 0.929 . S
C1853 C1852 1.363 . S
C1853 C1859 1.428 . S
H1854 C1850 0.930 . S
H1855 C1852 0.929 . S
S1856 N1857 1.613 . S
S1856 N1858 1.610 . S
N1857 S1856 1.613 . S
N1857 C1860 1.350 . S
N1858 S1856 1.610 . S
N1858 C1859 1.351 . S
C1859 C1853 1.428 . S
C1859 N1858 1.351 . S
C1859 C1860 1.434 . S
C1860 C1851 1.429 . S
C1860 N1857 1.350 . S
C1860 C1859 1.434 . S
C1861 C1862 1.369 . S
C1861 C1863 1.419 . S
C1861 H1865 0.930 . S
C1862 C1861 1.369 . S
C1862 C1871 1.429 . S
C1863 C1861 1.419 . S
C1863 C1864 1.363 . S
C1863 H1866 0.929 . S
C1864 C1863 1.363 . S
C1864 C1870 1.428 . S
H1865 C1861 0.930 . S
H1866 C1863 0.929 . S
S1867 N1868 1.613 . S
S1867 N1869 1.610 . S
N1868 S1867 1.613 . S
N1868 C1871 1.350 . S
N1869 S1867 1.610 . S
N1869 C1870 1.351 . S
C1870 C1864 1.428 . S
C1870 N1869 1.351 . S
C1870 C1871 1.434 . S
C1871 C1862 1.429 . S
C1871 N1868 1.350 . S
C1871 C1870 1.434 . S
C1345 C991 1.695 . S
C1347 C74 1.684 1_565 S
C1356 C728 1.693 . S
C1358 C147 1.687 . S
C1367 C242 1.690 . S
C1369 C823 1.694 . S
C1378 C315 1.686 . S
C1380 C896 1.694 . S
C1389 C410 1.682 . S
C1391 C487 1.694 . S
C1400 C560 1.695 . S
C1402 C483 1.684 . S
C1411 C578 1.685 . S
C1413 C655 1.694 . S
C1422 C392 1.694 . S
C1424 C651 1.683 . S
C1433 C319 1.695 . S
C1435 C746 1.685 . S
C1444 C819 1.686 . S
C1446 C56 1.694 . S
C1455 C151 1.695 . S
C1457 C914 1.685 . S
C1466 C224 1.693 . S
C1468 C987 1.684 . S
C1477 C1082 1.689 . S
C1479 C1159 1.694 . S
C1488 C1232 1.695 . S
C1490 C1155 1.683 1_455 S
C1499 C1327 1.695 . S
C1501 C1250 1.682 1_565 S
C1510 C1323 1.684 1_655 S
C1512 C1064 1.694 . S
C1521 C63 1.375 . S
C1523 C399 1.390 . S
C1532 C494 1.387 . S
C1534 C158 1.380 . S
C1543 C231 1.391 . S
C1545 C567 1.377 . S
C1554 C326 1.375 . S
C1556 C662 1.390 . S
C1565 C735 1.375 . S
C1567 C1071 1.389 . S
C1576 C1166 1.391 . S
C1578 C830 1.377 . S
C1587 C903 1.376 . S
C1589 C1239 1.390 . S
C1598 C998 1.381 . S
C1600 C1334 1.386 . S
C1609 C1243 2.405 . S
C1611 C67 2.409 1_556 S
C1620 C140 2.409 1_554 S
C1622 C1316 2.403 . S
C1631 C235 2.409 1_556 S
C1633 C1075 2.405 . S
C1642 C308 2.402 1_554 S
C1644 C1148 2.409 . S
C1653 C403 2.408 . S
C1655 C907 2.407 . S
C1664 C476 2.409 . S
C1666 C980 2.403 . S
C1675 C571 2.402 . S
C1677 C739 2.409 . S
C1686 C812 2.410 . S
C1688 C644 2.403 . S
C1697 C69 1.218 . S
C1699 C58 1.199 . S
C1708 C142 1.197 . S
C1710 C153 1.215 . S
C1719 C237 1.211 . S
C1721 C226 1.204 . S
C1730 C321 1.197 . S
C1732 C310 1.215 . S
C1741 C394 1.215 . S
C1743 C405 1.202 . S
C1752 C478 1.199 . S
C1754 C489 1.213 . S
C1763 C573 1.200 . S
C1765 C562 1.213 . S
C1774 C657 1.204 . S
C1776 C646 1.209 . S
C1785 C741 1.208 . S
C1787 C730 1.207 . S
C1796 C825 1.198 . S
C1798 C814 1.215 . S
C1807 C898 1.210 . S
C1809 C909 1.206 . S
C1818 C982 1.204 . S
C1820 C993 1.209 . S
C1829 C1077 1.205 . S
C1831 C1066 1.208 . S
C1840 C1161 1.197 . S
C1842 C1150 1.215 . S
C1851 C1234 1.211 . S
C1853 C1245 1.203 . S
C1862 C1318 1.207 . S
C1864 C1329 1.207 . S
