# Generated by pormake.
# Topology unj, (4)-cn, num edge types: 1
# Building blocks:
#     Node 0, Type 0, BuildingBlock: NAHDIM_clean_sbu_0, # of connection points: 4
#     Node 1, Type 0, BuildingBlock: NAHDIM_clean_sbu_0, # of connection points: 4
#     Node 2, Type 0, BuildingBlock: NAHDIM_clean_sbu_0, # of connection points: 4
#     Node 3, Type 0, BuildingBlock: NAHDIM_clean_sbu_0, # of connection points: 4
#     Node 4, Type 0, BuildingBlock: NAHDIM_clean_sbu_0, # of connection points: 4
#     Node 5, Type 0, BuildingBlock: NAHDIM_clean_sbu_0, # of connection points: 4
#     Edge 6, Type (0, 0), BuildingBlock: KIFKEQ_clean_linker_1, # of connection points: 2
#     Edge 7, Type (0, 0), BuildingBlock: KIFKEQ_clean_linker_1, # of connection points: 2
#     Edge 8, Type (0, 0), BuildingBlock: KIFKEQ_clean_linker_1, # of connection points: 2
#     Edge 9, Type (0, 0), BuildingBlock: KIFKEQ_clean_linker_1, # of connection points: 2
#     Edge 10, Type (0, 0), BuildingBlock: KIFKEQ_clean_linker_1, # of connection points: 2
#     Edge 11, Type (0, 0), BuildingBlock: KIFKEQ_clean_linker_1, # of connection points: 2
#     Edge 12, Type (0, 0), BuildingBlock: KIFKEQ_clean_linker_1, # of connection points: 2
#     Edge 13, Type (0, 0), BuildingBlock: KIFKEQ_clean_linker_1, # of connection points: 2
#     Edge 14, Type (0, 0), BuildingBlock: KIFKEQ_clean_linker_1, # of connection points: 2
#     Edge 15, Type (0, 0), BuildingBlock: KIFKEQ_clean_linker_1, # of connection points: 2
#     Edge 16, Type (0, 0), BuildingBlock: KIFKEQ_clean_linker_1, # of connection points: 2
#     Edge 17, Type (0, 0), BuildingBlock: KIFKEQ_clean_linker_1, # of connection points: 2
# Relax obj value: 0.007
# Max RMSD: 0.036
# Mean RMSD: 0.036
data_MOF--net-unj--node1-NAHDIM_clean_sbu_0--edge1-KIFKEQ_clean_linker_1
_symmetry_space_group_name_H-M    P1
_symmetry_Int_Tables_number       1
_symmetry_cell_setting            triclinic
loop_
_symmetry_equiv_pos_as_xyz
'x, y, z'
_cell_length_a     35.17802
_cell_length_b     35.089091
_cell_length_c     34.742954
_cell_angle_alpha  89.931797
_cell_angle_beta   89.911481
_cell_angle_gamma 119.93812
loop_
_atom_site_label
_atom_site_type_symbol
_atom_site_fract_x
_atom_site_fract_y
_atom_site_fract_z
_atom_type_partial_charge
C0 C 0.40491 0.28433 0.60436 0.0
O1 O 0.41221 0.28624 0.56711 0.0
O2 O 0.50078 0.28894 0.56328 0.0
Zn3 Zn 0.46346 0.24857 0.60609 0.0
O4 O 0.50232 0.25094 0.64982 0.0
C5 C 0.41482 0.17574 0.55288 0.0
O6 O 0.42135 0.20692 0.52829 0.0
O7 O 0.42279 0.26884 0.62632 0.0
C8 C 0.51459 0.22261 0.65326 0.0
O9 O 0.50242 0.19151 0.62729 0.0
C10 C 0.5276 0.28155 0.54473 0.0
O11 O 0.53089 0.24693 0.55368 0.0
O12 O 0.42895 0.18608 0.5871 0.0
C13 C 0.13869 0.44353 0.76271 0.0
O14 O 0.14351 0.4577 0.72703 0.0
O15 O 0.23318 0.52857 0.71779 0.0
Zn16 Zn 0.23397 0.49185 0.76227 0.0
O17 O 0.27066 0.53191 0.80522 0.0
C18 C 0.24324 0.42929 0.71525 0.0
O19 O 0.20945 0.42744 0.69742 0.0
O20 O 0.17259 0.45349 0.78275 0.0
C21 C 0.31053 0.54271 0.81061 0.0
O22 O 0.32933 0.52775 0.78709 0.0
C23 C 0.26304 0.54312 0.69218 0.0
O24 O 0.29536 0.53471 0.69523 0.0
O25 O 0.25901 0.45415 0.74441 0.0
C26 C 0.72409 0.13095 0.92615 0.0
O27 O 0.7167 0.13447 0.88962 0.0
O28 O 0.72277 0.22101 0.88071 0.0
Zn29 Zn 0.76209 0.2257 0.92486 0.0
O30 O 0.75769 0.26279 0.96698 0.0
C31 C 0.83774 0.28902 0.88476 0.0
O32 O 0.81148 0.30505 0.87916 0.0
O33 O 0.74351 0.16553 0.94652 0.0
C34 C 0.78886 0.28453 0.99039 0.0
O35 O 0.82551 0.28348 0.98678 0.0
C36 C 0.69008 0.22679 0.88476 0.0
O37 O 0.68049 0.23514 0.91915 0.0
O38 O 0.82403 0.25413 0.90464 0.0
C39 C 0.5562 0.69966 0.13679 0.0
O40 O 0.51349 0.68128 0.14113 0.0
O41 O 0.50058 0.72213 0.05814 0.0
Zn42 Zn 0.5393 0.7613 0.10063 0.0
O43 O 0.50254 0.76154 0.14519 0.0
C44 C 0.59464 0.82975 0.04723 0.0
O45 O 0.59082 0.79614 0.02742 0.0
O46 O 0.57666 0.73645 0.11947 0.0
C47 C 0.48897 0.78889 0.14794 0.0
O48 O 0.4984 0.81801 0.12043 0.0
C49 C 0.47847 0.73319 0.03665 0.0
O50 O 0.47993 0.77083 0.04283 0.0
O51 O 0.57632 0.82292 0.08004 0.0
C52 C 0.86196 0.57637 0.26664 0.0
O53 O 0.85632 0.573 0.22916 0.0
O54 O 0.77518 0.48428 0.22072 0.0
Zn55 Zn 0.76904 0.51768 0.26537 0.0
O56 O 0.72906 0.47537 0.30583 0.0
C57 C 0.70573 0.53533 0.23166 0.0
O58 O 0.6845 0.4922 0.22955 0.0
O59 O 0.82876 0.55601 0.28851 0.0
C60 C 0.71915 0.48973 0.33552 0.0
O61 O 0.7353 0.53232 0.33928 0.0
C62 C 0.74693 0.44456 0.2133 0.0
O63 O 0.71209 0.42392 0.2354 0.0
O64 O 0.74385 0.55478 0.24638 0.0
C65 C 0.29447 0.86249 0.46396 0.0
O66 O 0.31411 0.84095 0.47535 0.0
O67 O 0.28172 0.78529 0.37891 0.0
Zn68 Zn 0.24252 0.78218 0.42281 0.0
O69 O 0.24527 0.74635 0.46718 0.0
C70 C 0.16787 0.72527 0.37695 0.0
O71 O 0.19589 0.71425 0.36328 0.0
O72 O 0.26212 0.84379 0.44109 0.0
C73 C 0.24602 0.7108 0.46254 0.0
O74 O 0.245 0.69631 0.4275 0.0
C75 C 0.31846 0.78703 0.38291 0.0
O76 O 0.33314 0.78721 0.41769 0.0
O77 O 0.18024 0.75408 0.40336 0.0
H78 H 0.3986 0.10413 0.59622 0.0
H79 H 0.38354 0.14207 0.48133 0.0
H80 H 0.36732 0.02819 0.5752 0.0
H81 H 0.35293 0.06605 0.46015 0.0
H82 H 0.26247 0.91711 0.44527 0.0
H83 H 0.28901 0.99225 0.46742 0.0
H84 H 0.38915 0.98609 0.53445 0.0
H85 H 0.36226 0.91096 0.51294 0.0
C86 C 0.38852 0.09628 0.56648 0.0
C87 C 0.39371 0.12924 0.54042 0.0
C88 C 0.37084 0.05276 0.55438 0.0
C89 C 0.3579 0.04109 0.51593 0.0
C90 C 0.3622 0.07387 0.49005 0.0
C91 C 0.37995 0.11748 0.50215 0.0
C92 C 0.29008 0.93177 0.46481 0.0
C93 C 0.31021 0.908 0.47737 0.0
C94 C 0.30542 0.97491 0.47733 0.0
C95 C 0.34114 0.99514 0.50276 0.0
C96 C 0.36115 0.97127 0.51533 0.0
C97 C 0.34589 0.92825 0.50279 0.0
H98 H 0.38442 0.28631 0.68005 0.0
H99 H 0.36471 0.3227 0.56604 0.0
H100 H 0.34285 0.31828 0.70745 0.0
H101 H 0.32385 0.3554 0.59356 0.0
H102 H 0.21915 0.37507 0.65259 0.0
H103 H 0.25557 0.3371 0.62641 0.0
H104 H 0.35199 0.391 0.71715 0.0
H105 H 0.31519 0.4283 0.74374 0.0
C106 C 0.37118 0.30106 0.6608 0.0
C107 C 0.37803 0.30206 0.62084 0.0
C108 C 0.34755 0.31962 0.67655 0.0
C109 C 0.33018 0.33958 0.65273 0.0
C110 C 0.33636 0.33986 0.6127 0.0
C111 C 0.36001 0.32131 0.59694 0.0
C112 C 0.24797 0.37862 0.6671 0.0
C113 C 0.26428 0.40478 0.70024 0.0
C114 C 0.26899 0.35705 0.65194 0.0
C115 C 0.30676 0.36109 0.66961 0.0
C116 C 0.32266 0.38673 0.70309 0.0
C117 C 0.30167 0.40832 0.71823 0.0
H118 H 0.87452 0.36129 0.83808 0.0
H119 H 0.90129 0.26596 0.89171 0.0
H120 H 0.94697 0.39684 0.80849 0.0
H121 H 0.97376 0.30133 0.86156 0.0
H122 H 0.11709 0.40885 0.83539 0.0
H123 H 0.04441 0.37057 0.86485 0.0
H124 H 0.98732 0.38221 0.75863 0.0
H125 H 0.05996 0.42101 0.72929 0.0
C126 C 0.89582 0.34784 0.84353 0.0
C127 C 0.88209 0.31076 0.86726 0.0
C128 C 0.93726 0.36806 0.82632 0.0
C129 C 0.96604 0.35178 0.83251 0.0
C130 C 0.95247 0.31488 0.85648 0.0
C131 C 0.91089 0.29452 0.87362 0.0
C132 C 0.08902 0.40309 0.81825 0.0
C133 C 0.09438 0.4182 0.78002 0.0
C134 C 0.04734 0.38094 0.8351 0.0
C135 C 0.01012 0.37355 0.81415 0.0
C136 C 0.01542 0.38798 0.77572 0.0
C137 C 0.05705 0.41 0.75884 0.0
H138 H 0.60407 0.90541 0.07871 0.0
H139 H 0.63633 0.85552 0.97759 0.0
H140 H 0.63749 0.97819 0.04943 0.0
H141 H 0.6706 0.9286 0.94865 0.0
H142 H 0.67723 0.05043 0.89195 0.0
H143 H 0.64849 0.97829 0.9217 0.0
H144 H 0.70725 0.04001 0.0299 0.0
H145 H 0.73521 0.11221 1.00037 0.0
C146 C 0.61871 0.91005 0.0504 0.0
C147 C 0.61741 0.87458 0.03045 0.0
C148 C 0.63809 0.95188 0.03368 0.0
C149 C 0.65666 0.95925 0.99664 0.0
C150 C 0.65604 0.92392 0.97699 0.0
C151 C 0.63664 0.88208 0.9937 0.0
C152 C 0.6842 0.04865 0.92205 0.0
C153 C 0.70839 0.08712 0.9438 0.0
C154 C 0.66792 0.00725 0.93906 0.0
C155 C 0.67551 0.00332 0.97822 0.0
C156 C 0.70028 0.04184 0.99982 0.0
C157 C 0.71652 0.08324 0.98282 0.0
H158 H 0.73878 0.62455 0.2339 0.0
H159 H 0.62618 0.50319 0.19681 0.0
H160 H 0.70362 0.66542 0.21137 0.0
H161 H 0.59162 0.54399 0.17368 0.0
H162 H 0.5214 0.6226 0.17677 0.0
H163 H 0.55861 0.58442 0.1999 0.0
H164 H 0.68083 0.68691 0.15245 0.0
H165 H 0.64361 0.7258 0.12986 0.0
C166 C 0.70666 0.60662 0.22079 0.0
C167 C 0.68519 0.56058 0.21733 0.0
C168 C 0.68662 0.63007 0.20768 0.0
C169 C 0.64471 0.60796 0.1909 0.0
C170 C 0.62358 0.56198 0.18708 0.0
C171 C 0.64353 0.53859 0.20017 0.0
C172 C 0.55623 0.63713 0.17128 0.0
C173 C 0.57949 0.6772 0.15133 0.0
C174 C 0.57753 0.61506 0.18437 0.0
C175 C 0.62264 0.63242 0.17779 0.0
C176 C 0.64612 0.67283 0.15827 0.0
C177 C 0.62475 0.69499 0.14516 0.0
H178 H 0.13397 0.66764 0.31716 0.0
H179 H 0.0998 0.73639 0.40116 0.0
H180 H 0.06011 0.63377 0.29091 0.0
H181 H 0.02577 0.70267 0.37448 0.0
H182 H 0.88519 0.59153 0.34266 0.0
H183 H 0.95911 0.62897 0.36954 0.0
H184 H 0.01363 0.6553 0.25469 0.0
H185 H 0.9399 0.61754 0.22778 0.0
C186 C 0.11074 0.67563 0.33 0.0
C187 C 0.12281 0.70475 0.36126 0.0
C188 C 0.06846 0.65641 0.31476 0.0
C189 C 0.03716 0.6657 0.3305 0.0
C190 C 0.04909 0.69463 0.36192 0.0
C191 C 0.09153 0.71408 0.37707 0.0
C192 C 0.91294 0.60551 0.32314 0.0
C193 C 0.90664 0.60134 0.28307 0.0
C194 C 0.95528 0.62715 0.33856 0.0
C195 C 0.99219 0.64486 0.31424 0.0
C196 C 0.98584 0.64143 0.27418 0.0
C197 C 0.94356 0.62 0.25877 0.0
H198 H 0.52693 0.35441 0.51743 0.0
H199 H 0.58999 0.27681 0.50132 0.0
H200 H 0.57206 0.40403 0.46622 0.0
H201 H 0.63573 0.32696 0.45069 0.0
H202 H 0.67869 0.39985 0.33577 0.0
H203 H 0.63141 0.34932 0.38556 0.0
H204 H 0.64758 0.45944 0.45358 0.0
H205 H 0.69408 0.50991 0.40346 0.0
C206 C 0.55052 0.34801 0.50306 0.0
C207 C 0.55487 0.31165 0.51351 0.0
C208 C 0.57656 0.3766 0.47383 0.0
C209 C 0.60759 0.36954 0.45437 0.0
C210 C 0.61177 0.33305 0.46473 0.0
C211 C 0.58571 0.30444 0.49394 0.0
C212 C 0.67211 0.41329 0.36132 0.0
C213 C 0.6902 0.45894 0.36564 0.0
C214 C 0.64519 0.38432 0.38997 0.0
C215 C 0.63574 0.40031 0.42362 0.0
C216 C 0.6537 0.44597 0.42782 0.0
C217 C 0.68059 0.47494 0.39916 0.0
H218 H 0.24043 0.7271 0.53871 0.0
H219 H 0.25729 0.63911 0.4628 0.0
H220 H 0.24483 0.68692 0.5943 0.0
H221 H 0.26143 0.59885 0.51846 0.0
H222 H 0.31592 0.57047 0.62855 0.0
H223 H 0.31187 0.61115 0.57322 0.0
H224 H 0.20107 0.61311 0.62474 0.0
H225 H 0.20517 0.57261 0.68025 0.0
C226 C 0.24501 0.69916 0.53386 0.0
C227 C 0.24849 0.6863 0.4963 0.0
C228 C 0.2473 0.67602 0.56572 0.0
C229 C 0.25347 0.63973 0.56075 0.0
C230 C 0.25711 0.62696 0.52321 0.0
C231 C 0.25448 0.64989 0.49133 0.0
C232 C 0.29074 0.57964 0.62815 0.0
C233 C 0.26089 0.56832 0.65884 0.0
C234 C 0.28827 0.60272 0.59633 0.0
C235 C 0.25612 0.61528 0.59461 0.0
C236 C 0.22647 0.60425 0.62541 0.0
C237 C 0.22871 0.58086 0.65712 0.0
H238 H 0.70154 0.2108 0.80983 0.0
H239 H 0.61982 0.24009 0.88282 0.0
H240 H 0.65989 0.21055 0.75376 0.0
H241 H 0.5777 0.23906 0.82676 0.0
H242 H 0.54376 0.28112 0.71303 0.0
H243 H 0.58635 0.28208 0.76871 0.0
H244 H 0.58729 0.1672 0.72539 0.0
H245 H 0.54539 0.16663 0.6694 0.0
C246 C 0.67454 0.21695 0.81397 0.0
C247 C 0.66402 0.22548 0.85083 0.0
C248 C 0.65054 0.2166 0.78182 0.0
C249 C 0.6155 0.22482 0.78578 0.0
C250 C 0.60488 0.23319 0.82267 0.0
C251 C 0.62885 0.23348 0.85484 0.0
C252 C 0.55315 0.25613 0.71532 0.0
C253 C 0.54115 0.22379 0.68675 0.0
C254 C 0.57732 0.25652 0.74737 0.0
C255 C 0.59011 0.22464 0.75155 0.0
C256 C 0.57838 0.19251 0.72283 0.0
C257 C 0.55416 0.19208 0.69082 0.0
H258 H 0.28228 0.58141 0.86296 0.0
H259 H 0.39443 0.56821 0.83289 0.0
H260 H 0.32228 0.62696 0.91786 0.0
H261 H 0.43457 0.61425 0.88756 0.0
H262 H 0.47354 0.6566 0.01279 0.0
H263 H 0.43274 0.61077 0.9583 0.0
H264 H 0.38526 0.7 0.93183 0.0
H265 H 0.42563 0.74563 0.98663 0.0
C266 C 0.31552 0.58834 0.86795 0.0
C267 C 0.33514 0.5711 0.84353 0.0
C268 C 0.33851 0.61465 0.89932 0.0
C269 C 0.38157 0.62419 0.9071 0.0
C270 C 0.40123 0.60705 0.88262 0.0
C271 C 0.37831 0.58088 0.85115 0.0
C272 C 0.4543 0.66641 0.99544 0.0
C273 C 0.45286 0.70481 0.00408 0.0
C274 C 0.43115 0.64028 0.96405 0.0
C275 C 0.40588 0.65182 0.94066 0.0
C276 C 0.40409 0.68998 0.94951 0.0
C277 C 0.4274 0.71624 0.98082 0.0
H278 H 0.7155 0.28891 0.00867 0.0
H279 H 0.84955 0.33662 0.04394 0.0
H280 H 0.70572 0.3285 0.06185 0.0
H281 H 0.8395 0.37578 0.0974 0.0
H282 H 0.81748 0.47591 0.16459 0.0
H283 H 0.82777 0.43833 0.10996 0.0
H284 H 0.70133 0.32409 0.13257 0.0
H285 H 0.69073 0.36175 0.1869 0.0
C286 C 0.7429 0.30786 0.02774 0.0
C287 C 0.7833 0.30952 0.02209 0.0
C288 C 0.73719 0.33033 0.05835 0.0
C289 C 0.77178 0.35514 0.08392 0.0
C290 C 0.81234 0.35728 0.07798 0.0
C291 C 0.81801 0.33465 0.04745 0.0
C292 C 0.79183 0.44279 0.15789 0.0
C293 C 0.75326 0.42183 0.18012 0.0
C294 C 0.79786 0.42119 0.12671 0.0
C295 C 0.76537 0.37825 0.11693 0.0
C296 C 0.72675 0.35736 0.13908 0.0
C297 C 0.7208 0.37887 0.17036 0.0
H298 H 0.29934 0.79134 0.30736 0.0
H299 H 0.39499 0.78456 0.38062 0.0
H300 H 0.34043 0.79168 0.2507 0.0
H301 H 0.43633 0.78537 0.32383 0.0
H302 H 0.46938 0.73731 0.21225 0.0
H303 H 0.42842 0.73722 0.26897 0.0
H304 H 0.41094 0.83989 0.2183 0.0
H305 H 0.45152 0.83974 0.16134 0.0
C306 C 0.32922 0.79008 0.31141 0.0
C307 C 0.34388 0.78793 0.34855 0.0
C308 C 0.35288 0.79051 0.27891 0.0
C309 C 0.39164 0.78857 0.28277 0.0
C310 C 0.40632 0.78642 0.3199 0.0
C311 C 0.38277 0.78622 0.35244 0.0
C312 C 0.45676 0.75984 0.21314 0.0
C313 C 0.46371 0.78852 0.18222 0.0
C314 C 0.43353 0.75996 0.24577 0.0
C315 C 0.41651 0.7886 0.24816 0.0
C316 C 0.42327 0.81713 0.21717 0.0
C317 C 0.4467 0.81717 0.1846 0.0
loop_
_geom_bond_atom_site_label_1
_geom_bond_atom_site_label_2
_geom_bond_distance
_geom_bond_site_symmetry_2
_ccdc_geom_bond_type
C0 O1 1.160 . S
C0 O7 1.185 . S
O1 C0 1.160 . S
O2 Zn3 1.899 . S
O2 C10 1.284 . S
Zn3 O2 1.899 . S
Zn3 O4 2.032 . S
Zn3 O7 2.086 . S
Zn3 O12 1.977 . S
O4 Zn3 2.032 . S
O4 C8 1.278 . S
C5 O6 1.203 . S
C5 O12 1.267 . S
O6 C5 1.203 . S
O7 C0 1.185 . S
O7 Zn3 2.086 . S
C8 O4 1.278 . S
C8 O9 1.211 . S
O9 C8 1.211 . S
C10 O2 1.284 . S
C10 O11 1.273 . S
O11 C10 1.273 . S
O12 Zn3 1.977 . S
O12 C5 1.267 . S
C13 O14 1.160 . S
C13 O20 1.185 . S
O14 C13 1.160 . S
O15 Zn16 1.899 . S
O15 C23 1.284 . S
Zn16 O15 1.899 . S
Zn16 O17 2.032 . S
Zn16 O20 2.086 . S
Zn16 O25 1.977 . S
O17 Zn16 2.032 . S
O17 C21 1.278 . S
C18 O19 1.203 . S
C18 O25 1.267 . S
O19 C18 1.203 . S
O20 C13 1.185 . S
O20 Zn16 2.086 . S
C21 O17 1.278 . S
C21 O22 1.211 . S
O22 C21 1.211 . S
C23 O15 1.284 . S
C23 O24 1.273 . S
O24 C23 1.273 . S
O25 Zn16 1.977 . S
O25 C18 1.267 . S
C26 O27 1.160 . S
C26 O33 1.185 . S
O27 C26 1.160 . S
O28 Zn29 1.899 . S
O28 C36 1.284 . S
Zn29 O28 1.899 . S
Zn29 O30 2.032 . S
Zn29 O33 2.086 . S
Zn29 O38 1.977 . S
O30 Zn29 2.032 . S
O30 C34 1.278 . S
C31 O32 1.203 . S
C31 O38 1.267 . S
O32 C31 1.203 . S
O33 C26 1.185 . S
O33 Zn29 2.086 . S
C34 O30 1.278 . S
C34 O35 1.211 . S
O35 C34 1.211 . S
C36 O28 1.284 . S
C36 O37 1.273 . S
O37 C36 1.273 . S
O38 Zn29 1.977 . S
O38 C31 1.267 . S
C39 O40 1.160 . S
C39 O46 1.185 . S
O40 C39 1.160 . S
O41 Zn42 1.899 . S
O41 C49 1.284 . S
Zn42 O41 1.899 . S
Zn42 O43 2.032 . S
Zn42 O46 2.086 . S
Zn42 O51 1.977 . S
O43 Zn42 2.032 . S
O43 C47 1.278 . S
C44 O45 1.203 . S
C44 O51 1.267 . S
O45 C44 1.203 . S
O46 C39 1.185 . S
O46 Zn42 2.086 . S
C47 O43 1.278 . S
C47 O48 1.211 . S
O48 C47 1.211 . S
C49 O41 1.284 . S
C49 O50 1.273 . S
O50 C49 1.273 . S
O51 Zn42 1.977 . S
O51 C44 1.267 . S
C52 O53 1.160 . S
C52 O59 1.185 . S
O53 C52 1.160 . S
O54 Zn55 1.899 . S
O54 C62 1.284 . S
Zn55 O54 1.899 . S
Zn55 O56 2.032 . S
Zn55 O59 2.086 . S
Zn55 O64 1.977 . S
O56 Zn55 2.032 . S
O56 C60 1.278 . S
C57 O58 1.203 . S
C57 O64 1.267 . S
O58 C57 1.203 . S
O59 C52 1.185 . S
O59 Zn55 2.086 . S
C60 O56 1.278 . S
C60 O61 1.211 . S
O61 C60 1.211 . S
C62 O54 1.284 . S
C62 O63 1.273 . S
O63 C62 1.273 . S
O64 Zn55 1.977 . S
O64 C57 1.267 . S
C65 O66 1.160 . S
C65 O72 1.185 . S
O66 C65 1.160 . S
O67 Zn68 1.899 . S
O67 C75 1.284 . S
Zn68 O67 1.899 . S
Zn68 O69 2.032 . S
Zn68 O72 2.086 . S
Zn68 O77 1.977 . S
O69 Zn68 2.032 . S
O69 C73 1.278 . S
C70 O71 1.203 . S
C70 O77 1.267 . S
O71 C70 1.203 . S
O72 C65 1.185 . S
O72 Zn68 2.086 . S
C73 O69 1.278 . S
C73 O74 1.211 . S
O74 C73 1.211 . S
C75 O67 1.284 . S
C75 O76 1.273 . S
O76 C75 1.273 . S
O77 Zn68 1.977 . S
O77 C70 1.267 . S
H78 C86 0.950 . S
H79 C91 0.950 . S
H80 C88 0.950 . S
H81 C90 0.950 . S
H82 C92 0.950 . S
H83 C94 0.952 1_545 S
H84 C96 0.950 . S
H85 C97 0.950 . S
C86 H78 0.950 . S
C86 C87 1.386 . S
C86 C88 1.391 . S
C87 C86 1.386 . S
C87 C91 1.393 . S
C88 H80 0.950 . S
C88 C86 1.391 . S
C88 C89 1.400 . S
C89 C88 1.400 . S
C89 C90 1.398 . S
C89 C95 1.491 1_545 S
C90 H81 0.950 . S
C90 C89 1.398 . S
C90 C91 1.391 . S
C91 H79 0.950 . S
C91 C87 1.393 . S
C91 C90 1.391 . S
C92 H82 0.950 . S
C92 C93 1.386 . S
C92 C94 1.391 . S
C93 C92 1.386 . S
C93 C97 1.393 . S
C94 H83 0.952 1_565 S
C94 C92 1.391 . S
C94 C95 1.400 . S
C95 C89 1.491 1_565 S
C95 C94 1.400 . S
C95 C96 1.398 . S
C96 H84 0.950 . S
C96 C95 1.398 . S
C96 C97 1.391 . S
C97 H85 0.950 . S
C97 C93 1.393 . S
C97 C96 1.391 . S
H98 C106 0.950 . S
H99 C111 0.950 . S
H100 C108 0.950 . S
H101 C110 0.950 . S
H102 C112 0.950 . S
H103 C114 0.950 . S
H104 C116 0.950 . S
H105 C117 0.950 . S
C106 H98 0.950 . S
C106 C107 1.386 . S
C106 C108 1.391 . S
C107 C106 1.386 . S
C107 C111 1.393 . S
C108 H100 0.950 . S
C108 C106 1.391 . S
C108 C109 1.400 . S
C109 C108 1.400 . S
C109 C110 1.398 . S
C109 C115 1.491 . S
C110 H101 0.950 . S
C110 C109 1.398 . S
C110 C111 1.391 . S
C111 H99 0.950 . S
C111 C107 1.393 . S
C111 C110 1.391 . S
C112 H102 0.950 . S
C112 C113 1.386 . S
C112 C114 1.391 . S
C113 C112 1.386 . S
C113 C117 1.393 . S
C114 H103 0.950 . S
C114 C112 1.391 . S
C114 C115 1.400 . S
C115 C109 1.491 . S
C115 C114 1.400 . S
C115 C116 1.398 . S
C116 H104 0.950 . S
C116 C115 1.398 . S
C116 C117 1.391 . S
C117 H105 0.950 . S
C117 C113 1.393 . S
C117 C116 1.391 . S
H118 C126 0.950 . S
H119 C131 0.950 . S
H120 C128 0.950 . S
H121 C130 0.950 . S
H122 C132 0.950 . S
H123 C134 0.950 . S
H124 C136 0.946 1_655 S
H125 C137 0.950 . S
C126 H118 0.950 . S
C126 C127 1.386 . S
C126 C128 1.391 . S
C127 C126 1.386 . S
C127 C131 1.393 . S
C128 H120 0.950 . S
C128 C126 1.391 . S
C128 C129 1.400 . S
C129 C128 1.400 . S
C129 C130 1.398 . S
C129 C135 1.491 1_655 S
C130 H121 0.950 . S
C130 C129 1.398 . S
C130 C131 1.391 . S
C131 H119 0.950 . S
C131 C127 1.393 . S
C131 C130 1.391 . S
C132 H122 0.950 . S
C132 C133 1.386 . S
C132 C134 1.391 . S
C133 C132 1.386 . S
C133 C137 1.393 . S
C134 H123 0.950 . S
C134 C132 1.391 . S
C134 C135 1.400 . S
C135 C129 1.491 1_455 S
C135 C134 1.400 . S
C135 C136 1.398 . S
C136 H124 0.946 1_455 S
C136 C135 1.398 . S
C136 C137 1.391 . S
C137 H125 0.950 . S
C137 C133 1.393 . S
C137 C136 1.391 . S
H138 C146 0.950 . S
H139 C151 0.950 1_556 S
H140 C148 0.950 . S
H141 C150 0.950 . S
H142 C152 0.950 . S
H143 C154 0.948 . S
H144 C156 0.950 . S
H145 C157 0.950 . S
C146 H138 0.950 . S
C146 C147 1.386 . S
C146 C148 1.391 . S
C147 C146 1.386 . S
C147 C151 1.393 . S
C148 H140 0.950 . S
C148 C146 1.391 . S
C148 C149 1.400 . S
C149 C148 1.400 . S
C149 C150 1.398 1_554 S
C149 C155 1.491 1_564 S
C150 H141 0.950 . S
C150 C149 1.398 1_556 S
C150 C151 1.391 1_556 S
C151 H139 0.950 1_554 S
C151 C147 1.393 . S
C151 C150 1.391 1_554 S
C152 H142 0.950 . S
C152 C153 1.386 . S
C152 C154 1.391 . S
C153 C152 1.386 . S
C153 C157 1.393 1_556 S
C154 H143 0.948 . S
C154 C152 1.391 . S
C154 C155 1.400 . S
C155 C149 1.491 1_546 S
C155 C154 1.400 . S
C155 C156 1.398 1_556 S
C156 H144 0.950 . S
C156 C155 1.398 1_554 S
C156 C157 1.391 . S
C157 H145 0.950 . S
C157 C153 1.393 1_554 S
C157 C156 1.391 . S
H158 C166 0.950 . S
H159 C171 0.950 . S
H160 C168 0.950 . S
H161 C170 0.950 . S
H162 C172 0.950 . S
H163 C174 0.950 . S
H164 C176 0.950 . S
H165 C177 0.950 . S
C166 H158 0.950 . S
C166 C167 1.386 . S
C166 C168 1.391 . S
C167 C166 1.386 . S
C167 C171 1.393 . S
C168 H160 0.950 . S
C168 C166 1.391 . S
C168 C169 1.400 . S
C169 C168 1.400 . S
C169 C170 1.398 . S
C169 C175 1.491 . S
C170 H161 0.950 . S
C170 C169 1.398 . S
C170 C171 1.391 . S
C171 H159 0.950 . S
C171 C167 1.393 . S
C171 C170 1.391 . S
C172 H162 0.950 . S
C172 C173 1.386 . S
C172 C174 1.391 . S
C173 C172 1.386 . S
C173 C177 1.393 . S
C174 H163 0.950 . S
C174 C172 1.391 . S
C174 C175 1.400 . S
C175 C169 1.491 . S
C175 C174 1.400 . S
C175 C176 1.398 . S
C176 H164 0.950 . S
C176 C175 1.398 . S
C176 C177 1.391 . S
C177 H165 0.950 . S
C177 C173 1.393 . S
C177 C176 1.391 . S
H178 C186 0.950 . S
H179 C191 0.950 . S
H180 C188 0.950 . S
H181 C190 0.950 . S
H182 C192 0.950 . S
H183 C194 0.950 . S
H184 C196 0.950 . S
H185 C197 0.950 . S
C186 H178 0.950 . S
C186 C187 1.386 . S
C186 C188 1.391 . S
C187 C186 1.386 . S
C187 C191 1.393 . S
C188 H180 0.950 . S
C188 C186 1.391 . S
C188 C189 1.400 . S
C189 C188 1.400 . S
C189 C190 1.398 . S
C189 C195 1.491 1_455 S
C190 H181 0.950 . S
C190 C189 1.398 . S
C190 C191 1.391 . S
C191 H179 0.950 . S
C191 C187 1.393 . S
C191 C190 1.391 . S
C192 H182 0.950 . S
C192 C193 1.386 . S
C192 C194 1.391 . S
C193 C192 1.386 . S
C193 C197 1.393 . S
C194 H183 0.950 . S
C194 C192 1.391 . S
C194 C195 1.400 . S
C195 C189 1.491 1_655 S
C195 C194 1.400 . S
C195 C196 1.398 . S
C196 H184 0.950 . S
C196 C195 1.398 . S
C196 C197 1.391 . S
C197 H185 0.950 . S
C197 C193 1.393 . S
C197 C196 1.391 . S
H198 C206 0.950 . S
H199 C211 0.950 . S
H200 C208 0.950 . S
H201 C210 0.950 . S
H202 C212 0.950 . S
H203 C214 0.950 . S
H204 C216 0.950 . S
H205 C217 0.950 . S
C206 H198 0.950 . S
C206 C207 1.386 . S
C206 C208 1.391 . S
C207 C206 1.386 . S
C207 C211 1.393 . S
C208 H200 0.950 . S
C208 C206 1.391 . S
C208 C209 1.400 . S
C209 C208 1.400 . S
C209 C210 1.398 . S
C209 C215 1.491 . S
C210 H201 0.950 . S
C210 C209 1.398 . S
C210 C211 1.391 . S
C211 H199 0.950 . S
C211 C207 1.393 . S
C211 C210 1.391 . S
C212 H202 0.950 . S
C212 C213 1.386 . S
C212 C214 1.391 . S
C213 C212 1.386 . S
C213 C217 1.393 . S
C214 H203 0.950 . S
C214 C212 1.391 . S
C214 C215 1.400 . S
C215 C209 1.491 . S
C215 C214 1.400 . S
C215 C216 1.398 . S
C216 H204 0.950 . S
C216 C215 1.398 . S
C216 C217 1.391 . S
C217 H205 0.950 . S
C217 C213 1.393 . S
C217 C216 1.391 . S
H218 C226 0.950 . S
H219 C231 0.950 . S
H220 C228 0.950 . S
H221 C230 0.950 . S
H222 C232 0.950 . S
H223 C234 0.950 . S
H224 C236 0.950 . S
H225 C237 0.950 . S
C226 H218 0.950 . S
C226 C227 1.386 . S
C226 C228 1.391 . S
C227 C226 1.386 . S
C227 C231 1.393 . S
C228 H220 0.950 . S
C228 C226 1.391 . S
C228 C229 1.400 . S
C229 C228 1.400 . S
C229 C230 1.398 . S
C229 C235 1.491 . S
C230 H221 0.950 . S
C230 C229 1.398 . S
C230 C231 1.391 . S
C231 H219 0.950 . S
C231 C227 1.393 . S
C231 C230 1.391 . S
C232 H222 0.950 . S
C232 C233 1.386 . S
C232 C234 1.391 . S
C233 C232 1.386 . S
C233 C237 1.393 . S
C234 H223 0.950 . S
C234 C232 1.391 . S
C234 C235 1.400 . S
C235 C229 1.491 . S
C235 C234 1.400 . S
C235 C236 1.398 . S
C236 H224 0.950 . S
C236 C235 1.398 . S
C236 C237 1.391 . S
C237 H225 0.950 . S
C237 C233 1.393 . S
C237 C236 1.391 . S
H238 C246 0.950 . S
H239 C251 0.950 . S
H240 C248 0.950 . S
H241 C250 0.950 . S
H242 C252 0.950 . S
H243 C254 0.950 . S
H244 C256 0.950 . S
H245 C257 0.950 . S
C246 H238 0.950 . S
C246 C247 1.386 . S
C246 C248 1.391 . S
C247 C246 1.386 . S
C247 C251 1.393 . S
C248 H240 0.950 . S
C248 C246 1.391 . S
C248 C249 1.400 . S
C249 C248 1.400 . S
C249 C250 1.398 . S
C249 C255 1.491 . S
C250 H241 0.950 . S
C250 C249 1.398 . S
C250 C251 1.391 . S
C251 H239 0.950 . S
C251 C247 1.393 . S
C251 C250 1.391 . S
C252 H242 0.950 . S
C252 C253 1.386 . S
C252 C254 1.391 . S
C253 C252 1.386 . S
C253 C257 1.393 . S
C254 H243 0.950 . S
C254 C252 1.391 . S
C254 C255 1.400 . S
C255 C249 1.491 . S
C255 C254 1.400 . S
C255 C256 1.398 . S
C256 H244 0.950 . S
C256 C255 1.398 . S
C256 C257 1.391 . S
C257 H245 0.950 . S
C257 C253 1.393 . S
C257 C256 1.391 . S
H258 C266 0.950 . S
H259 C271 0.950 . S
H260 C268 0.950 . S
H261 C270 0.950 . S
H262 C272 0.950 . S
H263 C274 0.950 . S
H264 C276 0.950 . S
H265 C277 0.963 . S
C266 H258 0.950 . S
C266 C267 1.386 . S
C266 C268 1.391 . S
C267 C266 1.386 . S
C267 C271 1.393 . S
C268 H260 0.950 . S
C268 C266 1.391 . S
C268 C269 1.400 . S
C269 C268 1.400 . S
C269 C270 1.398 . S
C269 C275 1.491 . S
C270 H261 0.950 . S
C270 C269 1.398 . S
C270 C271 1.391 . S
C271 H259 0.950 . S
C271 C267 1.393 . S
C271 C270 1.391 . S
C272 H262 0.950 . S
C272 C273 1.386 . S
C272 C274 1.391 . S
C273 C272 1.386 . S
C273 C277 1.391 1_556 S
C274 H263 0.950 . S
C274 C272 1.391 . S
C274 C275 1.400 . S
C275 C269 1.491 . S
C275 C274 1.400 . S
C275 C276 1.398 . S
C276 H264 0.950 . S
C276 C275 1.398 . S
C276 C277 1.379 1_556 S
C277 H265 0.963 . S
C277 C273 1.391 1_554 S
C277 C276 1.379 1_554 S
H278 C286 0.950 . S
H279 C291 0.950 . S
H280 C288 0.950 . S
H281 C290 0.950 . S
H282 C292 0.950 . S
H283 C294 0.950 . S
H284 C296 0.950 . S
H285 C297 0.950 . S
C286 H278 0.950 . S
C286 C287 1.386 . S
C286 C288 1.391 . S
C287 C286 1.386 . S
C287 C291 1.393 . S
C288 H280 0.950 . S
C288 C286 1.391 . S
C288 C289 1.400 . S
C289 C288 1.400 . S
C289 C290 1.398 . S
C289 C295 1.491 . S
C290 H281 0.950 . S
C290 C289 1.398 . S
C290 C291 1.391 . S
C291 H279 0.950 . S
C291 C287 1.393 . S
C291 C290 1.391 . S
C292 H282 0.950 . S
C292 C293 1.386 . S
C292 C294 1.391 . S
C293 C292 1.386 . S
C293 C297 1.393 . S
C294 H283 0.950 . S
C294 C292 1.391 . S
C294 C295 1.400 . S
C295 C289 1.491 . S
C295 C294 1.400 . S
C295 C296 1.398 . S
C296 H284 0.950 . S
C296 C295 1.398 . S
C296 C297 1.391 . S
C297 H285 0.950 . S
C297 C293 1.393 . S
C297 C296 1.391 . S
H298 C306 0.950 . S
H299 C311 0.950 . S
H300 C308 0.950 . S
H301 C310 0.950 . S
H302 C312 0.950 . S
H303 C314 0.950 . S
H304 C316 0.950 . S
H305 C317 0.950 . S
C306 H298 0.950 . S
C306 C307 1.386 . S
C306 C308 1.391 . S
C307 C306 1.386 . S
C307 C311 1.393 . S
C308 H300 0.950 . S
C308 C306 1.391 . S
C308 C309 1.400 . S
C309 C308 1.400 . S
C309 C310 1.398 . S
C309 C315 1.491 . S
C310 H301 0.950 . S
C310 C309 1.398 . S
C310 C311 1.391 . S
C311 H299 0.950 . S
C311 C307 1.393 . S
C311 C310 1.391 . S
C312 H302 0.950 . S
C312 C313 1.386 . S
C312 C314 1.391 . S
C313 C312 1.386 . S
C313 C317 1.393 . S
C314 H303 0.950 . S
C314 C312 1.391 . S
C314 C315 1.400 . S
C315 C309 1.491 . S
C315 C314 1.400 . S
C315 C316 1.398 . S
C316 H304 0.950 . S
C316 C315 1.398 . S
C316 C317 1.391 . S
C317 H305 0.950 . S
C317 C313 1.393 . S
C317 C316 1.391 . S
C87 C5 1.415 . S
C93 C65 1.394 . S
C107 C0 1.401 . S
C113 C18 1.409 . S
C127 C31 1.402 . S
C133 C13 1.405 . S
C147 C44 1.410 . S
C153 C26 1.400 . S
C167 C57 1.405 . S
C173 C39 1.405 . S
C187 C70 1.413 . S
C193 C52 1.394 . S
C207 C10 1.515 . S
C213 C60 1.496 . S
C227 C73 1.494 . S
C233 C23 1.515 . S
C247 C36 1.525 . S
C253 C8 1.511 . S
C267 C21 1.496 . S
C273 C49 1.520 1_556 S
C287 C34 1.506 1_554 S
C293 C62 1.526 . S
C307 C75 1.515 . S
C313 C47 1.496 . S
