# Generated by pormake.
# Topology wlj, (5)-cn, num edge types: 1
# Building blocks:
#     Node 0, Type 0, BuildingBlock: XOMCOT_clean_sbu_0, # of connection points: 5
#     Node 1, Type 0, BuildingBlock: XOMCOT_clean_sbu_0, # of connection points: 5
#     Node 2, Type 0, BuildingBlock: XOMCOT_clean_sbu_0, # of connection points: 5
#     Node 3, Type 0, BuildingBlock: XOMCOT_clean_sbu_0, # of connection points: 5
#     Node 4, Type 0, BuildingBlock: XOMCOT_clean_sbu_0, # of connection points: 5
#     Node 5, Type 0, BuildingBlock: XOMCOT_clean_sbu_0, # of connection points: 5
#     Edge 6, Type (0, 0), BuildingBlock: KIFKEQ_clean_linker_1, # of connection points: 2
#     Edge 7, Type (0, 0), BuildingBlock: KIFKEQ_clean_linker_1, # of connection points: 2
#     Edge 8, Type (0, 0), BuildingBlock: KIFKEQ_clean_linker_1, # of connection points: 2
#     Edge 9, Type (0, 0), BuildingBlock: KIFKEQ_clean_linker_1, # of connection points: 2
#     Edge 10, Type (0, 0), BuildingBlock: KIFKEQ_clean_linker_1, # of connection points: 2
#     Edge 11, Type (0, 0), BuildingBlock: KIFKEQ_clean_linker_1, # of connection points: 2
#     Edge 12, Type (0, 0), BuildingBlock: KIFKEQ_clean_linker_1, # of connection points: 2
#     Edge 13, Type (0, 0), BuildingBlock: KIFKEQ_clean_linker_1, # of connection points: 2
#     Edge 14, Type (0, 0), BuildingBlock: KIFKEQ_clean_linker_1, # of connection points: 2
#     Edge 15, Type (0, 0), BuildingBlock: KIFKEQ_clean_linker_1, # of connection points: 2
#     Edge 16, Type (0, 0), BuildingBlock: KIFKEQ_clean_linker_1, # of connection points: 2
#     Edge 17, Type (0, 0), BuildingBlock: KIFKEQ_clean_linker_1, # of connection points: 2
#     Edge 18, Type (0, 0), BuildingBlock: KIFKEQ_clean_linker_1, # of connection points: 2
#     Edge 19, Type (0, 0), BuildingBlock: KIFKEQ_clean_linker_1, # of connection points: 2
#     Edge 20, Type (0, 0), BuildingBlock: KIFKEQ_clean_linker_1, # of connection points: 2
# Relax obj value: 0.145
# Max RMSD: 0.205
# Mean RMSD: 0.205
data_MOF--net-wlj--node1-XOMCOT_clean_sbu_0--edge1-KIFKEQ_clean_linker_1
_symmetry_space_group_name_H-M    P1
_symmetry_Int_Tables_number       1
_symmetry_cell_setting            triclinic
loop_
_symmetry_equiv_pos_as_xyz
'x, y, z'
_cell_length_a     25.805387
_cell_length_b     25.725814
_cell_length_c     55.448318
_cell_angle_alpha  90.145555
_cell_angle_beta   89.899671
_cell_angle_gamma 119.81665
loop_
_atom_site_label
_atom_site_type_symbol
_atom_site_fract_x
_atom_site_fract_y
_atom_site_fract_z
_atom_type_partial_charge
Co0 Co 0.58357 0.29649 0.25989 0.0
C1 C 0.54998 0.37498 0.23177 0.0
C2 C 0.52602 0.29254 0.21346 0.0
C3 C 0.50412 0.32271 0.20052 0.0
N4 N 0.55444 0.32469 0.2333 0.0
N5 N 0.51887 0.37423 0.21207 0.0
H6 H 0.56619 0.41 0.24527 0.0
H7 H 0.51953 0.24904 0.20876 0.0
C8 C 0.56376 0.17757 0.24223 0.0
O9 O 0.61688 0.19238 0.25072 0.0
N10 N 0.61024 0.26629 0.28676 0.0
C11 C 0.66316 0.29231 0.29845 0.0
C12 C 0.664 0.25192 0.31446 0.0
C13 C 0.57861 0.21136 0.29696 0.0
N14 N 0.61104 0.20083 0.31335 0.0
C15 C 0.70851 0.37075 0.25007 0.0
C16 C 0.71245 0.31961 0.20678 0.0
C17 C 0.76556 0.36619 0.21633 0.0
C18 C 0.76285 0.39233 0.23809 0.0
C19 C 0.65889 0.2987 0.21963 0.0
N20 N 0.65776 0.32205 0.24175 0.0
H21 H 0.70748 0.39461 0.26587 0.0
H22 H 0.61853 0.26442 0.21137 0.0
H23 H 0.69939 0.33719 0.29585 0.0
H24 H 0.53385 0.17841 0.29147 0.0
O25 O 0.60786 0.36986 0.27734 0.0
O26 O 0.51821 0.28973 0.28003 0.0
O27 O 0.54323 0.21349 0.24481 0.0
C28 C 0.55464 0.34499 0.28653 0.0
H29 H 0.47791 0.30726 0.18415 0.0
H30 H 0.70104 0.2594 0.32591 0.0
H31 H 0.71223 0.29957 0.18955 0.0
H32 H 0.80223 0.43062 0.24547 0.0
Co33 Co 0.74104 0.29493 0.92804 0.0
C34 C 0.65783 0.18683 0.89938 0.0
C35 C 0.75029 0.21668 0.89233 0.0
C36 C 0.71638 0.16342 0.88054 0.0
N37 N 0.7139 0.23167 0.90415 0.0
N38 N 0.65838 0.14434 0.88511 0.0
H39 H 0.61797 0.18316 0.9075 0.0
H40 H 0.7984 0.24037 0.89349 0.0
C41 C 0.85387 0.39354 0.90672 0.0
O42 O 0.83674 0.43116 0.91422 0.0
N43 N 0.77123 0.35794 0.95265 0.0
C44 C 0.74522 0.38652 0.96329 0.0
C45 C 0.78593 0.43047 0.97837 0.0
C46 C 0.82657 0.38338 0.96247 0.0
N47 N 0.83719 0.42872 0.97772 0.0
C48 C 0.66179 0.33913 0.91658 0.0
C49 C 0.70621 0.3839 0.87135 0.0
C50 C 0.66185 0.39389 0.88124 0.0
C51 C 0.63852 0.36945 0.90386 0.0
C52 C 0.72883 0.35367 0.88496 0.0
N53 N 0.70962 0.33563 0.90808 0.0
H54 H 0.64054 0.31792 0.93328 0.0
H55 H 0.7615 0.34462 0.87676 0.0
H56 H 0.70005 0.37697 0.96078 0.0
H57 H 0.85944 0.37068 0.95766 0.0
O58 O 0.67055 0.24747 0.94696 0.0
O59 O 0.7538 0.24345 0.95033 0.0
O60 O 0.8215 0.33751 0.91114 0.0
C61 C 0.69855 0.22328 0.95711 0.0
H62 H 0.7332 0.13912 0.87024 0.0
H63 H 0.77829 0.46129 0.98907 0.0
H64 H 0.72362 0.39976 0.85343 0.0
H65 H 0.60167 0.37283 0.91155 0.0
Co66 Co 0.74733 0.46098 0.59302 0.0
C67 C 0.84475 0.4708 0.56094 0.0
C68 C 0.81782 0.53531 0.55229 0.0
C69 C 0.86209 0.54274 0.53657 0.0
N70 N 0.80617 0.48965 0.56735 0.0
N71 N 0.87897 0.50242 0.54206 0.0
H72 H 0.84787 0.43507 0.56984 0.0
H73 H 0.7965 0.56231 0.5528 0.0
C74 C 0.65035 0.47462 0.56994 0.0
O75 O 0.61328 0.41937 0.57679 0.0
N76 N 0.68922 0.43543 0.61953 0.0
C77 C 0.68077 0.397 0.63765 0.0
C78 C 0.63931 0.39609 0.6536 0.0
C79 C 0.65528 0.46003 0.62584 0.0
N80 N 0.6228 0.43554 0.64608 0.0
C81 C 0.68328 0.33293 0.58604 0.0
C82 C 0.66468 0.33465 0.53703 0.0
C83 C 0.64523 0.27951 0.54844 0.0
C84 C 0.65454 0.27907 0.57327 0.0
C85 C 0.69216 0.38756 0.55062 0.0
N86 N 0.70036 0.38639 0.57499 0.0
H87 H 0.69406 0.33135 0.60459 0.0
H88 H 0.7078 0.42968 0.54138 0.0
H89 H 0.70505 0.37322 0.64006 0.0
H90 H 0.65548 0.49641 0.61617 0.0
O91 O 0.79533 0.43683 0.61101 0.0
O92 O 0.80449 0.52696 0.6132 0.0
O93 O 0.7054 0.49975 0.5761 0.0
C94 C 0.8234 0.49059 0.61993 0.0
H95 H 0.88193 0.57655 0.52266 0.0
H96 H 0.62451 0.37004 0.67001 0.0
H97 H 0.65901 0.33687 0.51778 0.0
H98 H 0.64205 0.23749 0.58259 0.0
Co99 Co 0.30228 0.57349 0.76285 0.0
C100 C 0.38879 0.5572 0.79312 0.0
C101 C 0.29753 0.49616 0.80259 0.0
C102 C 0.33366 0.48383 0.81669 0.0
N103 N 0.33186 0.54264 0.788 0.0
N104 N 0.3909 0.5219 0.81069 0.0
H105 H 0.42765 0.59189 0.78395 0.0
H106 H 0.24939 0.47097 0.80245 0.0
C107 C 0.19092 0.56012 0.78524 0.0
O108 O 0.20879 0.6151 0.77799 0.0
N109 N 0.27047 0.60111 0.73683 0.0
C110 C 0.3005 0.64305 0.71984 0.0
C111 C 0.26032 0.64425 0.70382 0.0
C112 C 0.21263 0.575 0.72974 0.0
N113 N 0.20471 0.60166 0.71017 0.0
C114 C 0.36898 0.70087 0.77154 0.0
C115 C 0.3395 0.6966 0.81971 0.0
C116 C 0.37811 0.75241 0.80929 0.0
C117 C 0.39278 0.75394 0.78486 0.0
C118 C 0.31656 0.64453 0.80568 0.0
N119 N 0.3297 0.64709 0.78162 0.0
H120 H 0.38473 0.70312 0.75345 0.0
H121 H 0.28873 0.60192 0.81434 0.0
H122 H 0.34843 0.66895 0.71808 0.0
H123 H 0.17704 0.53631 0.73851 0.0
O124 O 0.37414 0.59779 0.74467 0.0
O125 O 0.29336 0.50827 0.74195 0.0
O126 O 0.22154 0.53495 0.77973 0.0
C127 C 0.34847 0.54451 0.7353 0.0
H128 H 0.31888 0.44764 0.82958 0.0
H129 H 0.27179 0.67286 0.68815 0.0
H130 H 0.32758 0.69298 0.83861 0.0
H131 H 0.42463 0.79555 0.77629 0.0
Co132 Co 0.46028 0.73649 0.42677 0.0
C133 C 0.49738 0.85061 0.45442 0.0
C134 C 0.4892 0.77878 0.47663 0.0
C135 C 0.50487 0.82783 0.491 0.0
N136 N 0.48489 0.79284 0.4536 0.0
N137 N 0.50978 0.87309 0.47713 0.0
H138 H 0.49558 0.87518 0.43898 0.0
H139 H 0.48012 0.73523 0.48281 0.0
C140 C 0.49543 0.64349 0.44313 0.0
O141 O 0.46274 0.60491 0.42644 0.0
N142 N 0.43588 0.6804 0.39991 0.0
C143 C 0.37997 0.64551 0.39156 0.0
C144 C 0.3809 0.60765 0.37417 0.0
C145 C 0.47053 0.66582 0.38643 0.0
N146 N 0.43773 0.6195 0.37126 0.0
C147 C 0.3526 0.71896 0.44736 0.0
C148 C 0.302 0.59969 0.45989 0.0
C149 C 0.26992 0.62957 0.46431 0.0
C150 C 0.29648 0.69026 0.45816 0.0
C151 C 0.35853 0.63037 0.44907 0.0
N152 N 0.38311 0.68931 0.44275 0.0
H153 H 0.37181 0.76567 0.44266 0.0
H154 H 0.38085 0.6057 0.4453 0.0
H155 H 0.34069 0.64554 0.39837 0.0
H156 H 0.51815 0.68551 0.38916 0.0
O157 O 0.43953 0.78568 0.40748 0.0
O158 O 0.52931 0.79443 0.40822 0.0
O159 O 0.49787 0.69438 0.44493 0.0
C160 C 0.49425 0.81314 0.39978 0.0
H161 H 0.51198 0.82962 0.51027 0.0
H162 H 0.34203 0.57148 0.36556 0.0
H163 H 0.28299 0.55262 0.46414 0.0
H164 H 0.27415 0.71571 0.46168 0.0
Co165 Co 0.29369 0.73593 0.09416 0.0
C166 C 0.19295 0.64665 0.12449 0.0
C167 C 0.21768 0.73772 0.13282 0.0
C168 C 0.17057 0.70056 0.14727 0.0
N169 N 0.2324 0.70419 0.11879 0.0
N170 N 0.15493 0.64344 0.14203 0.0
H171 H 0.1917 0.60822 0.1159 0.0
H172 H 0.23835 0.78592 0.13212 0.0
C173 C 0.3915 0.84056 0.12014 0.0
O174 O 0.42771 0.82181 0.11256 0.0
N175 N 0.35437 0.77052 0.06865 0.0
C176 C 0.36275 0.74229 0.04975 0.0
C177 C 0.40595 0.78407 0.03478 0.0
C178 C 0.39028 0.82955 0.06381 0.0
N179 N 0.42378 0.83924 0.04371 0.0
C180 C 0.35149 0.66548 0.09932 0.0
C181 C 0.36737 0.67828 0.1487 0.0
C182 C 0.38351 0.64063 0.13647 0.0
C183 C 0.37612 0.63539 0.11137 0.0
C184 C 0.34341 0.70822 0.13585 0.0
N185 N 0.33645 0.70239 0.11134 0.0
H186 H 0.342 0.65645 0.08048 0.0
H187 H 0.32883 0.73484 0.14579 0.0
H188 H 0.33713 0.69483 0.04607 0.0
H189 H 0.39059 0.8649 0.07439 0.0
O190 O 0.24531 0.66778 0.07404 0.0
O191 O 0.24024 0.7513 0.07442 0.0
O192 O 0.33672 0.8132 0.11348 0.0
C193 C 0.22016 0.69714 0.06598 0.0
H194 H 0.14786 0.71438 0.16 0.0
H195 H 0.42088 0.7743 0.01801 0.0
H196 H 0.3708 0.6827 0.16814 0.0
H197 H 0.38784 0.60694 0.10103 0.0
H198 H 0.46183 0.1415 0.21543 0.0
H199 H 0.59444 0.09199 0.23328 0.0
H200 H 0.41874 0.06104 0.18567 0.0
H201 H 0.54996 1.01019 0.20437 0.0
H202 H 0.50731 0.91876 0.13183 0.0
H203 H 0.54499 0.99795 0.16192 0.0
H204 H 0.36438 0.9552 0.17861 0.0
H205 H 0.32676 0.87695 0.14778 0.0
C206 C 0.48143 0.11309 0.21323 0.0
C207 C 0.53233 0.124 0.22648 0.0
C208 C 0.45642 0.0666 0.19623 0.0
C209 C 0.48139 0.02955 0.19225 0.0
C210 C 0.53049 0.03878 0.2064 0.0
C211 C 0.55574 0.08546 0.2232 0.0
C212 C 0.47555 0.92637 0.14181 0.0
C213 C 0.41396 0.89129 0.13742 0.0
C214 C 0.49716 0.97155 0.15927 0.0
C215 C 0.45777 0.98259 0.17304 0.0
C216 C 0.39613 0.94832 0.16829 0.0
C217 C 0.37449 0.90329 0.15062 0.0
H218 H 0.11123 0.59673 0.79641 0.0
H219 H 0.1523 0.45648 0.81143 0.0
H220 H 0.03104 0.55432 0.82588 0.0
H221 H 0.07303 0.41498 0.84165 0.0
H222 H 0.88721 0.32738 0.87832 0.0
H223 H 0.96692 0.36443 0.84835 0.0
H224 H 1.01932 0.54641 0.86848 0.0
H225 H 0.93868 0.50939 0.89783 0.0
C226 C 0.1032 0.55677 0.806 0.0
C227 C 0.13868 0.53037 0.80165 0.0
C228 C 0.05743 0.5327 0.82312 0.0
C229 C 0.04607 0.48176 0.83653 0.0
C230 C 0.0803 0.45412 0.83163 0.0
C231 C 0.12598 0.47806 0.81433 0.0
C232 C 0.91603 0.37527 0.87649 0.0
C233 C 0.90615 0.41538 0.89037 0.0
C234 C 0.96192 0.39656 0.85931 0.0
C235 C 0.9992 0.45849 0.85569 0.0
C236 C 0.9906 0.49844 0.87027 0.0
C237 C 0.94458 0.47719 0.88729 0.0
H238 H 0.56463 0.70741 0.48203 0.0
H239 H 0.49062 0.53554 0.44628 0.0
H240 H 0.60392 0.67083 0.514 0.0
H241 H 0.52979 0.49976 0.4779 0.0
H242 H 0.53867 0.42974 0.55119 0.0
H243 H 0.50474 0.47497 0.52127 0.0
H244 H 0.67871 0.63405 0.52101 0.0
H245 H 0.71307 0.58878 0.55132 0.0
C246 C 0.55701 0.66211 0.48088 0.0
C247 C 0.52384 0.62426 0.46168 0.0
C248 C 0.57969 0.64129 0.49914 0.0
C249 C 0.56916 0.58214 0.49863 0.0
C250 C 0.53762 0.54515 0.47907 0.0
C251 C 0.51542 0.56592 0.46084 0.0
C252 C 0.56976 0.47458 0.54499 0.0
C253 C 0.62884 0.50534 0.55353 0.0
C254 C 0.55032 0.50036 0.5277 0.0
C255 C 0.58929 0.55772 0.51853 0.0
C256 C 0.64767 0.58977 0.52776 0.0
C257 C 0.66736 0.56372 0.54505 0.0
H258 H 0.45739 0.67159 0.17622 0.0
H259 H 0.35503 0.52521 0.12703 0.0
H260 H 0.4888 0.60906 0.19787 0.0
H261 H 0.38899 0.46481 0.14748 0.0
H262 H 0.4078 0.34504 0.19894 0.0
H263 H 0.3741 0.41173 0.18363 0.0
H264 H 0.55108 0.56315 0.19448 0.0
H265 H 0.58374 0.49544 0.21091 0.0
C266 C 0.44166 0.62624 0.16999 0.0
C267 C 0.40391 0.6037 0.14975 0.0
C268 C 0.46018 0.59062 0.18225 0.0
C269 C 0.44121 0.53166 0.17456 0.0
C270 C 0.4037 0.50951 0.15428 0.0
C271 C 0.38499 0.54473 0.14221 0.0
C272 C 0.43921 0.39268 0.19824 0.0
C273 C 0.49847 0.41519 0.20572 0.0
C274 C 0.42014 0.43095 0.18934 0.0
C275 C 0.46022 0.49279 0.1872 0.0
C276 C 0.51896 0.51582 0.19588 0.0
C277 C 0.53781 0.47726 0.20522 0.0
H278 H 0.39923 0.8644 0.79682 0.0
H279 H 0.42301 0.76706 0.85509 0.0
H280 H 0.45881 0.95817 0.81874 0.0
H281 H 0.48083 0.86045 0.87727 0.0
H282 H 0.65863 0.04003 0.88514 0.0
H283 H 0.58136 0.94392 0.86985 0.0
H284 H 0.46884 0.02038 0.85509 0.0
H285 H 0.54769 0.11782 0.87037 0.0
C286 C 0.41643 0.86291 0.81445 0.0
C287 C 0.40693 0.80825 0.82405 0.0
C288 C 0.44997 0.91658 0.82714 0.0
C289 C 0.47498 0.91685 0.84967 0.0
C290 C 0.46275 0.86183 0.85982 0.0
C291 C 0.42912 0.80819 0.84718 0.0
C292 C 0.61725 0.03624 0.87878 0.0
C293 C 0.60934 0.08646 0.87863 0.0
C294 C 0.57262 0.98096 0.87026 0.0
C295 C 0.51888 0.9744 0.86122 0.0
C296 C 0.50996 0.02417 0.8618 0.0
C297 C 0.55471 0.07969 0.87065 0.0
H298 H 0.97451 0.50786 0.56422 0.0
H299 H 0.89381 0.4931 0.49482 0.0
H300 H 0.06775 0.5278 0.54452 0.0
H301 H 0.98516 0.50974 0.47487 0.0
H302 H 0.17469 0.64118 0.45097 0.0
H303 H 0.0773 0.59782 0.4697 0.0
H304 H 0.12654 0.50022 0.51926 0.0
H305 H 0.2262 0.54667 0.50107 0.0
C306 C 0.97627 0.50665 0.54473 0.0
C307 C 0.92764 0.49947 0.53092 0.0
C308 C 0.02951 0.51804 0.53339 0.0
C309 C 0.03451 0.5217 0.50805 0.0
C310 C 0.98364 0.50908 0.49439 0.0
C311 C 0.93112 0.49889 0.50572 0.0
C312 C 0.16503 0.6107 0.46593 0.0
C313 C 0.20863 0.59811 0.47471 0.0
C314 C 0.10859 0.5849 0.47647 0.0
C315 C 0.09362 0.54506 0.49597 0.0
C316 C 0.13664 0.53102 0.50439 0.0
C317 C 0.19355 0.55718 0.49383 0.0
H318 H 0.64543 0.48305 0.89901 0.0
H319 H 0.62334 0.38055 0.83429 0.0
H320 H 0.59121 0.52764 0.88047 0.0
H321 H 0.56792 0.42458 0.81571 0.0
H322 H 0.48698 0.53455 0.78562 0.0
H323 H 0.56531 0.51529 0.80089 0.0
H324 H 0.48523 0.48207 0.87176 0.0
H325 H 0.40843 0.50187 0.85656 0.0
C326 C 0.62947 0.4706 0.88067 0.0
C327 C 0.63773 0.42764 0.86822 0.0
C328 C 0.59836 0.49606 0.87007 0.0
C329 C 0.57432 0.47891 0.84677 0.0
C330 C 0.5861 0.43898 0.83365 0.0
C331 C 0.61769 0.41364 0.84427 0.0
C332 C 0.48733 0.52455 0.80456 0.0
C333 C 0.44177 0.51959 0.81996 0.0
C334 C 0.53165 0.51293 0.81324 0.0
C335 C 0.53155 0.49712 0.83755 0.0
C336 C 0.48729 0.49488 0.85304 0.0
C337 C 0.44297 0.5058 0.84434 0.0
H338 H 0.5413 0.17698 0.55792 0.0
H339 H 0.68915 0.25371 0.50807 0.0
H340 H 0.50231 0.07992 0.53818 0.0
H341 H 0.65199 0.15592 0.48885 0.0
H342 H 0.55303 0.97563 0.45057 0.0
H343 H 0.57902 0.0753 0.46519 0.0
H344 H 0.52738 1.00449 0.53729 0.0
H345 H 0.49811 0.90544 0.52257 0.0
C346 C 0.56528 0.17293 0.54264 0.0
C347 C 0.61836 0.2226 0.53461 0.0
C348 C 0.54329 0.11724 0.5314 0.0
C349 C 0.57451 0.10949 0.51214 0.0
C350 C 0.62638 0.16005 0.50346 0.0
C351 C 0.64787 0.21611 0.5145 0.0
C352 C 0.54629 0.98118 0.46945 0.0
C353 C 0.52376 0.93211 0.48535 0.0
C354 C 0.56185 0.03859 0.47791 0.0
C355 C 0.55534 0.0483 0.50248 0.0
C356 C 0.53214 0.99899 0.5182 0.0
C357 C 0.51624 0.94188 0.50976 0.0
H358 H 0.12001 0.62877 0.18824 0.0
H359 H 0.07562 0.54162 0.11881 0.0
H360 H 0.02688 0.5497 0.20483 0.0
H361 H 0.98166 0.46079 0.13551 0.0
H362 H 0.78901 0.3976 0.1687 0.0
H363 H 0.88723 0.45389 0.14964 0.0
H364 H 0.97064 0.44543 0.21588 0.0
H365 H 0.87275 0.3904 0.23494 0.0
C366 C 0.09056 0.59184 0.17667 0.0
C367 C 0.10475 0.59139 0.15226 0.0
C368 C 0.03735 0.54618 0.18618 0.0
C369 C 0.99664 0.49878 0.17151 0.0
C370 C 1.01192 0.49689 0.14725 0.0
C371 C 0.06582 0.54268 0.13774 0.0
C372 C 0.82831 0.40661 0.17895 0.0
C373 C 0.8234 0.39053 0.2034 0.0
C374 C 0.8846 0.43871 0.16803 0.0
C375 C 0.93689 0.45498 0.18135 0.0
C376 C 0.93137 0.43479 0.20527 0.0
C377 C 0.87534 0.40321 0.21618 0.0
H378 H 0.60575 0.91264 0.39804 0.0
H379 H 0.42945 0.83533 0.36724 0.0
H380 H 0.63467 1.00665 0.37712 0.0
H381 H 0.45868 0.92739 0.34517 0.0
H382 H 0.50237 0.11798 0.33011 0.0
H383 H 0.47627 0.0237 0.35009 0.0
H384 H 0.65838 0.06119 0.34168 0.0
H385 H 0.68437 0.15651 0.32286 0.0
C386 C 0.57375 0.9153 0.38624 0.0
C387 C 0.51543 0.86671 0.38425 0.0
C388 C 0.59019 0.96927 0.37418 0.0
C389 C 0.54893 0.97552 0.3595 0.0
C390 C 0.49138 0.92549 0.35677 0.0
C391 C 0.47472 0.8722 0.36919 0.0
C392 C 0.53663 0.10586 0.3326 0.0
C393 C 0.59542 0.14483 0.32508 0.0
C394 C 0.52174 0.0515 0.34391 0.0
C395 C 0.56505 0.03399 0.34755 0.0
C396 C 0.62385 0.07311 0.33975 0.0
C397 C 0.63886 0.12789 0.32885 0.0
H398 H 0.92007 0.40363 0.99526 0.0
H399 H 0.88058 0.54679 0.98656 0.0
H400 H 1.01363 0.47239 0.0152 0.0
H401 H 0.9753 0.61669 1.00552 0.0
H402 H 0.12194 0.71161 0.06329 0.0
H403 H 0.02912 0.64785 0.04148 0.0
H404 H 0.10949 0.55104 1.00968 0.0
H405 H 0.20026 0.61252 0.03251 0.0
C406 C 0.93184 0.45007 0.99739 0.0
C407 C 0.89283 0.46964 0.98942 0.0
C408 C 0.98579 0.48986 1.0087 0.0
C409 C 1.00288 0.55075 0.01195 0.0
C410 C 0.9637 0.57022 1.0038 0.0
C411 C 0.90929 0.53012 0.99284 0.0
C412 C 0.11981 0.67731 0.05129 0.0
C413 C 0.16818 0.66692 0.04962 0.0
C414 C 0.06655 0.64055 0.03875 0.0
C415 C 0.0609 0.5932 0.02397 0.0
C416 C 0.11095 0.58548 0.02139 0.0
C417 C 0.16349 0.62132 0.03424 0.0
H418 H 0.4606 0.61575 0.71828 0.0
H419 H 0.31647 0.43235 0.71712 0.0
H420 H 0.52345 0.58742 0.69597 0.0
H421 H 0.37958 0.4038 0.69389 0.0
H422 H 0.53648 0.36812 0.67893 0.0
H423 H 0.46684 0.39237 0.69868 0.0
H424 H 0.53922 0.55646 0.65778 0.0
H425 H 0.61067 0.53407 0.63902 0.0
C426 C 0.44189 0.5693 0.71294 0.0
C427 C 0.38332 0.52632 0.71951 0.0
C428 C 0.47804 0.55307 0.69994 0.0
C429 C 0.45682 0.49328 0.69297 0.0
C430 C 0.3977 0.4502 0.69915 0.0
C431 C 0.36129 0.46658 0.71226 0.0
C432 C 0.53818 0.40973 0.67428 0.0
C433 C 0.58023 0.44926 0.65743 0.0
C434 C 0.49739 0.4232 0.68539 0.0
C435 C 0.49729 0.47653 0.67996 0.0
C436 C 0.53841 0.51539 0.66275 0.0
C437 C 0.57931 0.50211 0.65173 0.0
H438 H 0.18477 0.67028 0.67811 0.0
H439 H 0.09582 0.50062 0.71558 0.0
H440 H 0.09169 0.64534 0.65787 0.0
H441 H 1.00266 0.47751 0.69638 0.0
H442 H 0.86722 0.42028 0.63561 0.0
H443 H 0.95796 0.44892 0.65797 0.0
H444 H 0.99214 0.63105 0.66225 0.0
H445 H 0.901 0.60226 0.63893 0.0
C446 C 0.14569 0.6277 0.68213 0.0
C447 C 0.14884 0.58738 0.69844 0.0
C448 C 0.09182 0.6138 0.67073 0.0
C449 C 0.03938 0.55925 0.67535 0.0
C450 C 0.04221 0.51954 0.69201 0.0
C451 C 0.096 0.53323 0.70329 0.0
C452 C 0.89365 0.46646 0.64143 0.0
C453 C 0.87663 0.50897 0.63547 0.0
C454 C 0.9458 0.48286 0.65446 0.0
C455 C 0.98263 0.54232 0.66211 0.0
C456 C 0.96525 0.58493 0.65647 0.0
C457 C 0.91275 0.56841 0.64329 0.0
H458 H 0.4412 0.31857 0.30005 0.0
H459 H 0.62682 0.45484 0.30588 0.0
H460 H 0.41268 0.38485 0.32092 0.0
H461 H 0.59865 0.52087 0.32614 0.0
H462 H 0.53215 0.60419 0.382 0.0
H463 H 0.55839 0.53498 0.36313 0.0
H464 H 0.411 0.4781 0.31356 0.0
H465 H 0.38466 0.54762 0.33248 0.0
C466 C 0.47588 0.36227 0.30602 0.0
C467 C 0.53625 0.38127 0.30136 0.0
C468 C 0.45958 0.40055 0.31774 0.0
C469 C 0.50336 0.45845 0.32517 0.0
C470 C 0.5637 0.47652 0.32098 0.0
C471 C 0.57986 0.43857 0.30924 0.0
C472 C 0.50583 0.57784 0.36683 0.0
C473 C 0.45636 0.582 0.35874 0.0
C474 C 0.52074 0.53772 0.35605 0.0
C475 C 0.48669 0.50057 0.33685 0.0
C476 C 0.4376 0.50513 0.32858 0.0
C477 C 0.42269 0.54533 0.33935 0.0
H478 H 0.73127 0.14257 0.97382 0.0
H479 H 0.5901 0.18628 0.97723 0.0
H480 H 0.66925 0.05115 0.99716 0.0
H481 H 0.52826 0.09544 0.99966 0.0
H482 H 0.44077 0.9506 0.05425 0.0
H483 H 0.51382 0.04541 0.03691 0.0
H484 H 0.58027 0.95426 0.99183 0.0
H485 H 0.50914 0.85931 1.01009 0.0
C486 C 0.68747 0.13315 0.97982 0.0
C487 C 0.66572 0.17176 0.97368 0.0
C488 C 0.65163 0.08048 0.99296 0.0
C489 C 0.59348 0.0656 1.00031 0.0
C490 C 0.57292 0.1055 0.99473 0.0
C491 C 0.60845 0.15769 0.98166 0.0
C492 C 0.47116 0.95026 0.04091 0.0
C493 C 0.46795 0.8963 0.03353 0.0
C494 C 0.51303 1.00505 0.03074 0.0
C495 C 0.55285 1.00777 0.01275 0.0
C496 C 0.55076 0.95418 1.00575 0.0
C497 C 0.50905 0.89932 0.01602 0.0
loop_
_geom_bond_atom_site_label_1
_geom_bond_atom_site_label_2
_geom_bond_distance
_geom_bond_site_symmetry_2
_ccdc_geom_bond_type
Co0 N4 2.148 . S
Co0 N10 2.128 . S
Co0 N20 2.194 . S
Co0 O25 2.351 . S
Co0 O26 2.155 . S
Co0 O27 2.096 . S
C1 N4 1.301 . S
C1 N5 1.328 . S
C1 H6 0.930 . S
C2 C3 1.333 . S
C2 N4 1.317 . S
C2 H7 0.930 . S
C3 C2 1.333 . S
C3 N5 1.350 . S
C3 H29 0.931 . S
N4 Co0 2.148 . S
N4 C1 1.301 . S
N4 C2 1.317 . S
N5 C1 1.328 . S
N5 C3 1.350 . S
H6 C1 0.930 . S
H7 C2 0.930 . S
C8 O9 1.224 . S
C8 O27 1.247 . S
O9 C8 1.224 . S
N10 Co0 2.128 . S
N10 C11 1.355 . S
N10 C13 1.311 . S
C11 N10 1.355 . S
C11 C12 1.363 . S
C11 H23 0.929 . S
C12 C11 1.363 . S
C12 N14 1.375 . S
C12 H30 0.931 . S
C13 N10 1.311 . S
C13 N14 1.347 . S
C13 H24 0.929 . S
N14 C12 1.375 . S
N14 C13 1.347 . S
C15 C18 1.365 . S
C15 N20 1.328 . S
C15 H21 0.929 . S
C16 C17 1.362 . S
C16 C19 1.378 . S
C16 H31 0.929 . S
C17 C16 1.362 . S
C17 C18 1.366 . S
C18 C15 1.365 . S
C18 C17 1.366 . S
C18 H32 0.930 . S
C19 C16 1.378 . S
C19 N20 1.315 . S
C19 H22 0.930 . S
N20 Co0 2.194 . S
N20 C15 1.328 . S
N20 C19 1.315 . S
H21 C15 0.929 . S
H22 C19 0.930 . S
H23 C11 0.929 . S
H24 C13 0.929 . S
O25 Co0 2.351 . S
O25 C28 1.244 . S
O26 Co0 2.155 . S
O26 C28 1.240 . S
O27 Co0 2.096 . S
O27 C8 1.247 . S
C28 O25 1.244 . S
C28 O26 1.240 . S
H29 C3 0.931 . S
H30 C12 0.931 . S
H31 C16 0.929 . S
H32 C18 0.930 . S
Co33 N37 2.148 . S
Co33 N43 2.128 . S
Co33 N53 2.194 . S
Co33 O58 2.351 . S
Co33 O59 2.155 . S
Co33 O60 2.096 . S
C34 N37 1.301 . S
C34 N38 1.328 . S
C34 H39 0.930 . S
C35 C36 1.333 . S
C35 N37 1.317 . S
C35 H40 0.930 . S
C36 C35 1.333 . S
C36 N38 1.350 . S
C36 H62 0.931 . S
N37 Co33 2.148 . S
N37 C34 1.301 . S
N37 C35 1.317 . S
N38 C34 1.328 . S
N38 C36 1.350 . S
H39 C34 0.930 . S
H40 C35 0.930 . S
C41 O42 1.224 . S
C41 O60 1.247 . S
O42 C41 1.224 . S
N43 Co33 2.128 . S
N43 C44 1.355 . S
N43 C46 1.311 . S
C44 N43 1.355 . S
C44 C45 1.363 . S
C44 H56 0.929 . S
C45 C44 1.363 . S
C45 N47 1.375 . S
C45 H63 0.931 . S
C46 N43 1.311 . S
C46 N47 1.347 . S
C46 H57 0.929 . S
N47 C45 1.375 . S
N47 C46 1.347 . S
C48 C51 1.365 . S
C48 N53 1.328 . S
C48 H54 0.929 . S
C49 C50 1.362 . S
C49 C52 1.378 . S
C49 H64 0.929 . S
C50 C49 1.362 . S
C50 C51 1.366 . S
C51 C48 1.365 . S
C51 C50 1.366 . S
C51 H65 0.930 . S
C52 C49 1.378 . S
C52 N53 1.315 . S
C52 H55 0.930 . S
N53 Co33 2.194 . S
N53 C48 1.328 . S
N53 C52 1.315 . S
H54 C48 0.929 . S
H55 C52 0.930 . S
H56 C44 0.929 . S
H57 C46 0.929 . S
O58 Co33 2.351 . S
O58 C61 1.244 . S
O59 Co33 2.155 . S
O59 C61 1.240 . S
O60 Co33 2.096 . S
O60 C41 1.247 . S
C61 O58 1.244 . S
C61 O59 1.240 . S
H62 C36 0.931 . S
H63 C45 0.931 . S
H64 C49 0.929 . S
H65 C51 0.930 . S
Co66 N70 2.148 . S
Co66 N76 2.128 . S
Co66 N86 2.194 . S
Co66 O91 2.351 . S
Co66 O92 2.155 . S
Co66 O93 2.096 . S
C67 N70 1.301 . S
C67 N71 1.328 . S
C67 H72 0.930 . S
C68 C69 1.333 . S
C68 N70 1.317 . S
C68 H73 0.930 . S
C69 C68 1.333 . S
C69 N71 1.350 . S
C69 H95 0.931 . S
N70 Co66 2.148 . S
N70 C67 1.301 . S
N70 C68 1.317 . S
N71 C67 1.328 . S
N71 C69 1.350 . S
H72 C67 0.930 . S
H73 C68 0.930 . S
C74 O75 1.224 . S
C74 O93 1.247 . S
O75 C74 1.224 . S
N76 Co66 2.128 . S
N76 C77 1.355 . S
N76 C79 1.311 . S
C77 N76 1.355 . S
C77 C78 1.363 . S
C77 H89 0.929 . S
C78 C77 1.363 . S
C78 N80 1.375 . S
C78 H96 0.931 . S
C79 N76 1.311 . S
C79 N80 1.347 . S
C79 H90 0.929 . S
N80 C78 1.375 . S
N80 C79 1.347 . S
C81 C84 1.365 . S
C81 N86 1.328 . S
C81 H87 0.929 . S
C82 C83 1.362 . S
C82 C85 1.378 . S
C82 H97 0.929 . S
C83 C82 1.362 . S
C83 C84 1.366 . S
C84 C81 1.365 . S
C84 C83 1.366 . S
C84 H98 0.930 . S
C85 C82 1.378 . S
C85 N86 1.315 . S
C85 H88 0.930 . S
N86 Co66 2.194 . S
N86 C81 1.328 . S
N86 C85 1.315 . S
H87 C81 0.929 . S
H88 C85 0.930 . S
H89 C77 0.929 . S
H90 C79 0.929 . S
O91 Co66 2.351 . S
O91 C94 1.244 . S
O92 Co66 2.155 . S
O92 C94 1.240 . S
O93 Co66 2.096 . S
O93 C74 1.247 . S
C94 O91 1.244 . S
C94 O92 1.240 . S
H95 C69 0.931 . S
H96 C78 0.931 . S
H97 C82 0.929 . S
H98 C84 0.930 . S
Co99 N103 2.148 . S
Co99 N109 2.128 . S
Co99 N119 2.194 . S
Co99 O124 2.351 . S
Co99 O125 2.155 . S
Co99 O126 2.096 . S
C100 N103 1.301 . S
C100 N104 1.328 . S
C100 H105 0.930 . S
C101 C102 1.333 . S
C101 N103 1.317 . S
C101 H106 0.930 . S
C102 C101 1.333 . S
C102 N104 1.350 . S
C102 H128 0.931 . S
N103 Co99 2.148 . S
N103 C100 1.301 . S
N103 C101 1.317 . S
N104 C100 1.328 . S
N104 C102 1.350 . S
H105 C100 0.930 . S
H106 C101 0.930 . S
C107 O108 1.224 . S
C107 O126 1.247 . S
O108 C107 1.224 . S
N109 Co99 2.128 . S
N109 C110 1.355 . S
N109 C112 1.311 . S
C110 N109 1.355 . S
C110 C111 1.363 . S
C110 H122 0.929 . S
C111 C110 1.363 . S
C111 N113 1.375 . S
C111 H129 0.931 . S
C112 N109 1.311 . S
C112 N113 1.347 . S
C112 H123 0.929 . S
N113 C111 1.375 . S
N113 C112 1.347 . S
C114 C117 1.365 . S
C114 N119 1.328 . S
C114 H120 0.929 . S
C115 C116 1.362 . S
C115 C118 1.378 . S
C115 H130 0.929 . S
C116 C115 1.362 . S
C116 C117 1.366 . S
C117 C114 1.365 . S
C117 C116 1.366 . S
C117 H131 0.930 . S
C118 C115 1.378 . S
C118 N119 1.315 . S
C118 H121 0.930 . S
N119 Co99 2.194 . S
N119 C114 1.328 . S
N119 C118 1.315 . S
H120 C114 0.929 . S
H121 C118 0.930 . S
H122 C110 0.929 . S
H123 C112 0.929 . S
O124 Co99 2.351 . S
O124 C127 1.244 . S
O125 Co99 2.155 . S
O125 C127 1.240 . S
O126 Co99 2.096 . S
O126 C107 1.247 . S
C127 O124 1.244 . S
C127 O125 1.240 . S
H128 C102 0.931 . S
H129 C111 0.931 . S
H130 C115 0.929 . S
H131 C117 0.930 . S
Co132 N136 2.148 . S
Co132 N142 2.128 . S
Co132 N152 2.194 . S
Co132 O157 2.351 . S
Co132 O158 2.155 . S
Co132 O159 2.096 . S
C133 N136 1.301 . S
C133 N137 1.328 . S
C133 H138 0.930 . S
C134 C135 1.333 . S
C134 N136 1.317 . S
C134 H139 0.930 . S
C135 C134 1.333 . S
C135 N137 1.350 . S
C135 H161 0.931 . S
N136 Co132 2.148 . S
N136 C133 1.301 . S
N136 C134 1.317 . S
N137 C133 1.328 . S
N137 C135 1.350 . S
H138 C133 0.930 . S
H139 C134 0.930 . S
C140 O141 1.224 . S
C140 O159 1.247 . S
O141 C140 1.224 . S
N142 Co132 2.128 . S
N142 C143 1.355 . S
N142 C145 1.311 . S
C143 N142 1.355 . S
C143 C144 1.363 . S
C143 H155 0.929 . S
C144 C143 1.363 . S
C144 N146 1.375 . S
C144 H162 0.931 . S
C145 N142 1.311 . S
C145 N146 1.347 . S
C145 H156 0.929 . S
N146 C144 1.375 . S
N146 C145 1.347 . S
C147 C150 1.365 . S
C147 N152 1.328 . S
C147 H153 0.929 . S
C148 C149 1.362 . S
C148 C151 1.378 . S
C148 H163 0.929 . S
C149 C148 1.362 . S
C149 C150 1.366 . S
C150 C147 1.365 . S
C150 C149 1.366 . S
C150 H164 0.930 . S
C151 C148 1.378 . S
C151 N152 1.315 . S
C151 H154 0.930 . S
N152 Co132 2.194 . S
N152 C147 1.328 . S
N152 C151 1.315 . S
H153 C147 0.929 . S
H154 C151 0.930 . S
H155 C143 0.929 . S
H156 C145 0.929 . S
O157 Co132 2.351 . S
O157 C160 1.244 . S
O158 Co132 2.155 . S
O158 C160 1.240 . S
O159 Co132 2.096 . S
O159 C140 1.247 . S
C160 O157 1.244 . S
C160 O158 1.240 . S
H161 C135 0.931 . S
H162 C144 0.931 . S
H163 C148 0.929 . S
H164 C150 0.930 . S
Co165 N169 2.148 . S
Co165 N175 2.128 . S
Co165 N185 2.194 . S
Co165 O190 2.351 . S
Co165 O191 2.155 . S
Co165 O192 2.096 . S
C166 N169 1.301 . S
C166 N170 1.328 . S
C166 H171 0.930 . S
C167 C168 1.333 . S
C167 N169 1.317 . S
C167 H172 0.930 . S
C168 C167 1.333 . S
C168 N170 1.350 . S
C168 H194 0.931 . S
N169 Co165 2.148 . S
N169 C166 1.301 . S
N169 C167 1.317 . S
N170 C166 1.328 . S
N170 C168 1.350 . S
H171 C166 0.930 . S
H172 C167 0.930 . S
C173 O174 1.224 . S
C173 O192 1.247 . S
O174 C173 1.224 . S
N175 Co165 2.128 . S
N175 C176 1.355 . S
N175 C178 1.311 . S
C176 N175 1.355 . S
C176 C177 1.363 . S
C176 H188 0.929 . S
C177 C176 1.363 . S
C177 N179 1.375 . S
C177 H195 0.931 . S
C178 N175 1.311 . S
C178 N179 1.347 . S
C178 H189 0.929 . S
N179 C177 1.375 . S
N179 C178 1.347 . S
C180 C183 1.365 . S
C180 N185 1.328 . S
C180 H186 0.929 . S
C181 C182 1.362 . S
C181 C184 1.378 . S
C181 H196 0.929 . S
C182 C181 1.362 . S
C182 C183 1.366 . S
C183 C180 1.365 . S
C183 C182 1.366 . S
C183 H197 0.930 . S
C184 C181 1.378 . S
C184 N185 1.315 . S
C184 H187 0.930 . S
N185 Co165 2.194 . S
N185 C180 1.328 . S
N185 C184 1.315 . S
H186 C180 0.929 . S
H187 C184 0.930 . S
H188 C176 0.929 . S
H189 C178 0.929 . S
O190 Co165 2.351 . S
O190 C193 1.244 . S
O191 Co165 2.155 . S
O191 C193 1.240 . S
O192 Co165 2.096 . S
O192 C173 1.247 . S
C193 O190 1.244 . S
C193 O191 1.240 . S
H194 C168 0.931 . S
H195 C177 0.931 . S
H196 C181 0.929 . S
H197 C183 0.930 . S
H198 C206 0.950 . S
H199 C211 0.950 . S
H200 C208 0.951 . S
H201 C210 0.950 . S
H202 C212 0.950 . S
H203 C214 0.952 . S
H204 C216 0.950 . S
H205 C217 0.950 . S
C206 H198 0.950 . S
C206 C207 1.386 . S
C206 C208 1.391 . S
C207 C206 1.386 . S
C207 C211 1.393 . S
C208 H200 0.951 . S
C208 C206 1.391 . S
C208 C209 1.400 . S
C209 C208 1.400 . S
C209 C210 1.398 . S
C209 C215 1.491 1_545 S
C210 H201 0.950 . S
C210 C209 1.398 . S
C210 C211 1.391 . S
C211 H199 0.950 . S
C211 C207 1.393 . S
C211 C210 1.391 . S
C212 H202 0.950 . S
C212 C213 1.386 . S
C212 C214 1.391 . S
C213 C212 1.386 . S
C213 C217 1.393 . S
C214 H203 0.952 . S
C214 C212 1.391 . S
C214 C215 1.400 . S
C215 C209 1.491 1_565 S
C215 C214 1.400 . S
C215 C216 1.398 . S
C216 H204 0.950 . S
C216 C215 1.398 . S
C216 C217 1.391 . S
C217 H205 0.950 . S
C217 C213 1.393 . S
C217 C216 1.391 . S
H218 C226 0.950 . S
H219 C231 0.950 . S
H220 C228 0.950 . S
H221 C230 0.950 1_655 S
H222 C232 0.950 . S
H223 C234 0.950 . S
H224 C236 0.950 1_455 S
H225 C237 0.950 . S
C226 H218 0.950 . S
C226 C227 1.386 . S
C226 C228 1.391 . S
C227 C226 1.386 . S
C227 C231 1.393 . S
C228 H220 0.950 . S
C228 C226 1.391 . S
C228 C229 1.400 . S
C229 C228 1.400 . S
C229 C230 1.398 . S
C229 C235 1.491 1_455 S
C230 H221 0.950 1_455 S
C230 C229 1.398 . S
C230 C231 1.391 . S
C231 H219 0.950 . S
C231 C227 1.393 . S
C231 C230 1.391 . S
C232 H222 0.950 . S
C232 C233 1.386 . S
C232 C234 1.391 . S
C233 C232 1.386 . S
C233 C237 1.393 . S
C234 H223 0.950 . S
C234 C232 1.391 . S
C234 C235 1.400 . S
C235 C229 1.491 1_655 S
C235 C234 1.400 . S
C235 C236 1.398 . S
C236 H224 0.950 1_655 S
C236 C235 1.398 . S
C236 C237 1.391 . S
C237 H225 0.950 . S
C237 C233 1.393 . S
C237 C236 1.391 . S
H238 C246 0.950 . S
H239 C251 0.950 . S
H240 C248 0.950 . S
H241 C250 0.950 . S
H242 C252 0.950 . S
H243 C254 0.950 . S
H244 C256 0.950 . S
H245 C257 0.950 . S
C246 H238 0.950 . S
C246 C247 1.386 . S
C246 C248 1.391 . S
C247 C246 1.386 . S
C247 C251 1.393 . S
C248 H240 0.950 . S
C248 C246 1.391 . S
C248 C249 1.400 . S
C249 C248 1.400 . S
C249 C250 1.398 . S
C249 C255 1.491 . S
C250 H241 0.950 . S
C250 C249 1.398 . S
C250 C251 1.391 . S
C251 H239 0.950 . S
C251 C247 1.393 . S
C251 C250 1.391 . S
C252 H242 0.950 . S
C252 C253 1.386 . S
C252 C254 1.391 . S
C253 C252 1.386 . S
C253 C257 1.393 . S
C254 H243 0.950 . S
C254 C252 1.391 . S
C254 C255 1.400 . S
C255 C249 1.491 . S
C255 C254 1.400 . S
C255 C256 1.398 . S
C256 H244 0.950 . S
C256 C255 1.398 . S
C256 C257 1.391 . S
C257 H245 0.950 . S
C257 C253 1.393 . S
C257 C256 1.391 . S
H258 C266 0.950 . S
H259 C271 0.950 . S
H260 C268 0.950 . S
H261 C270 0.950 . S
H262 C272 0.950 . S
H263 C274 0.950 . S
H264 C276 0.950 . S
H265 C277 0.950 . S
C266 H258 0.950 . S
C266 C267 1.386 . S
C266 C268 1.391 . S
C267 C266 1.386 . S
C267 C271 1.393 . S
C268 H260 0.950 . S
C268 C266 1.391 . S
C268 C269 1.400 . S
C269 C268 1.400 . S
C269 C270 1.398 . S
C269 C275 1.491 . S
C270 H261 0.950 . S
C270 C269 1.398 . S
C270 C271 1.391 . S
C271 H259 0.950 . S
C271 C267 1.393 . S
C271 C270 1.391 . S
C272 H262 0.950 . S
C272 C273 1.386 . S
C272 C274 1.391 . S
C273 C272 1.386 . S
C273 C277 1.393 . S
C274 H263 0.950 . S
C274 C272 1.391 . S
C274 C275 1.400 . S
C275 C269 1.491 . S
C275 C274 1.400 . S
C275 C276 1.398 . S
C276 H264 0.950 . S
C276 C275 1.398 . S
C276 C277 1.391 . S
C277 H265 0.950 . S
C277 C273 1.393 . S
C277 C276 1.391 . S
H278 C286 0.950 . S
H279 C291 0.950 . S
H280 C288 0.950 . S
H281 C290 0.950 . S
H282 C292 0.950 . S
H283 C294 0.950 . S
H284 C296 0.950 . S
H285 C297 0.950 . S
C286 H278 0.950 . S
C286 C287 1.386 . S
C286 C288 1.391 . S
C287 C286 1.386 . S
C287 C291 1.393 . S
C288 H280 0.950 . S
C288 C286 1.391 . S
C288 C289 1.400 . S
C289 C288 1.400 . S
C289 C290 1.398 . S
C289 C295 1.491 . S
C290 H281 0.950 . S
C290 C289 1.398 . S
C290 C291 1.391 . S
C291 H279 0.950 . S
C291 C287 1.393 . S
C291 C290 1.391 . S
C292 H282 0.950 . S
C292 C293 1.386 . S
C292 C294 1.391 1_545 S
C293 C292 1.386 . S
C293 C297 1.393 . S
C294 H283 0.950 . S
C294 C292 1.391 1_565 S
C294 C295 1.400 . S
C295 C289 1.491 . S
C295 C294 1.400 . S
C295 C296 1.398 . S
C296 H284 0.950 . S
C296 C295 1.398 . S
C296 C297 1.391 1_565 S
C297 H285 0.950 . S
C297 C293 1.393 . S
C297 C296 1.391 1_545 S
H298 C306 0.950 1_655 S
H299 C311 0.950 . S
H300 C308 0.950 . S
H301 C310 0.950 . S
H302 C312 0.950 . S
H303 C314 0.950 . S
H304 C316 0.950 . S
H305 C317 0.950 . S
C306 H298 0.950 1_455 S
C306 C307 1.386 1_455 S
C306 C308 1.391 . S
C307 C306 1.386 1_655 S
C307 C311 1.393 . S
C308 H300 0.950 . S
C308 C306 1.391 . S
C308 C309 1.400 . S
C309 C308 1.400 . S
C309 C310 1.398 . S
C309 C315 1.491 . S
C310 H301 0.950 . S
C310 C309 1.398 . S
C310 C311 1.391 1_455 S
C311 H299 0.950 . S
C311 C307 1.393 . S
C311 C310 1.391 1_655 S
C312 H302 0.950 . S
C312 C313 1.386 . S
C312 C314 1.391 . S
C313 C312 1.386 . S
C313 C317 1.393 . S
C314 H303 0.950 . S
C314 C312 1.391 . S
C314 C315 1.400 . S
C315 C309 1.491 . S
C315 C314 1.400 . S
C315 C316 1.398 . S
C316 H304 0.950 . S
C316 C315 1.398 . S
C316 C317 1.391 . S
C317 H305 0.950 . S
C317 C313 1.393 . S
C317 C316 1.391 . S
H318 C326 0.950 . S
H319 C331 0.950 . S
H320 C328 0.950 . S
H321 C330 0.950 . S
H322 C332 0.950 . S
H323 C334 0.950 . S
H324 C336 0.950 . S
H325 C337 0.950 . S
C326 H318 0.950 . S
C326 C327 1.386 . S
C326 C328 1.391 . S
C327 C326 1.386 . S
C327 C331 1.393 . S
C328 H320 0.950 . S
C328 C326 1.391 . S
C328 C329 1.400 . S
C329 C328 1.400 . S
C329 C330 1.398 . S
C329 C335 1.491 . S
C330 H321 0.950 . S
C330 C329 1.398 . S
C330 C331 1.391 . S
C331 H319 0.950 . S
C331 C327 1.393 . S
C331 C330 1.391 . S
C332 H322 0.950 . S
C332 C333 1.386 . S
C332 C334 1.391 . S
C333 C332 1.386 . S
C333 C337 1.393 . S
C334 H323 0.950 . S
C334 C332 1.391 . S
C334 C335 1.400 . S
C335 C329 1.491 . S
C335 C334 1.400 . S
C335 C336 1.398 . S
C336 H324 0.950 . S
C336 C335 1.398 . S
C336 C337 1.391 . S
C337 H325 0.950 . S
C337 C333 1.393 . S
C337 C336 1.391 . S
H338 C346 0.950 . S
H339 C351 0.950 . S
H340 C348 0.950 . S
H341 C350 0.950 . S
H342 C352 0.950 . S
H343 C354 0.950 . S
H344 C356 0.950 . S
H345 C357 0.950 . S
C346 H338 0.950 . S
C346 C347 1.386 . S
C346 C348 1.391 . S
C347 C346 1.386 . S
C347 C351 1.393 . S
C348 H340 0.950 . S
C348 C346 1.391 . S
C348 C349 1.400 . S
C349 C348 1.400 . S
C349 C350 1.398 . S
C349 C355 1.491 . S
C350 H341 0.950 . S
C350 C349 1.398 . S
C350 C351 1.391 . S
C351 H339 0.950 . S
C351 C347 1.393 . S
C351 C350 1.391 . S
C352 H342 0.950 . S
C352 C353 1.386 . S
C352 C354 1.391 1_565 S
C353 C352 1.386 . S
C353 C357 1.393 . S
C354 H343 0.950 . S
C354 C352 1.391 1_545 S
C354 C355 1.400 . S
C355 C349 1.491 . S
C355 C354 1.400 . S
C355 C356 1.398 . S
C356 H344 0.950 . S
C356 C355 1.398 . S
C356 C357 1.391 1_545 S
C357 H345 0.950 . S
C357 C353 1.393 . S
C357 C356 1.391 1_565 S
H358 C366 0.950 . S
H359 C371 0.950 . S
H360 C368 0.950 . S
H361 C370 0.950 . S
H362 C372 0.950 . S
H363 C374 0.950 . S
H364 C376 0.950 . S
H365 C377 0.950 . S
C366 H358 0.950 . S
C366 C367 1.386 . S
C366 C368 1.391 1_455 S
C367 C366 1.386 . S
C367 C371 1.393 1_455 S
C368 H360 0.950 . S
C368 C366 1.391 1_655 S
C368 C369 1.400 . S
C369 C368 1.400 . S
C369 C370 1.398 . S
C369 C375 1.491 . S
C370 H361 0.950 . S
C370 C369 1.398 . S
C370 C371 1.391 . S
C371 H359 0.950 . S
C371 C367 1.393 1_655 S
C371 C370 1.391 . S
C372 H362 0.950 . S
C372 C373 1.386 . S
C372 C374 1.391 . S
C373 C372 1.386 . S
C373 C377 1.393 . S
C374 H363 0.950 . S
C374 C372 1.391 . S
C374 C375 1.400 . S
C375 C369 1.491 . S
C375 C374 1.400 . S
C375 C376 1.398 . S
C376 H364 0.950 . S
C376 C375 1.398 . S
C376 C377 1.391 . S
C377 H365 0.950 . S
C377 C373 1.393 . S
C377 C376 1.391 . S
H378 C386 0.950 . S
H379 C391 0.950 . S
H380 C388 0.950 . S
H381 C390 0.950 1_545 S
H382 C392 0.950 . S
H383 C394 0.950 . S
H384 C396 0.950 . S
H385 C397 0.950 . S
C386 H378 0.950 . S
C386 C387 1.386 . S
C386 C388 1.391 . S
C387 C386 1.386 . S
C387 C391 1.393 . S
C388 H380 0.950 . S
C388 C386 1.391 . S
C388 C389 1.400 . S
C389 C388 1.400 . S
C389 C390 1.398 . S
C389 C395 1.491 1_565 S
C390 H381 0.950 1_565 S
C390 C389 1.398 . S
C390 C391 1.391 . S
C391 H379 0.950 . S
C391 C387 1.393 . S
C391 C390 1.391 . S
C392 H382 0.950 . S
C392 C393 1.386 . S
C392 C394 1.391 . S
C393 C392 1.386 . S
C393 C397 1.393 . S
C394 H383 0.950 . S
C394 C392 1.391 . S
C394 C395 1.400 . S
C395 C389 1.491 1_545 S
C395 C394 1.400 . S
C395 C396 1.398 . S
C396 H384 0.950 . S
C396 C395 1.398 . S
C396 C397 1.391 . S
C397 H385 0.950 . S
C397 C393 1.393 . S
C397 C396 1.391 . S
H398 C406 0.950 . S
H399 C411 0.950 . S
H400 C408 0.950 1_455 S
H401 C410 0.950 . S
H402 C412 0.950 . S
H403 C414 0.950 1_655 S
H404 C416 0.950 . S
H405 C417 0.950 . S
C406 H398 0.950 . S
C406 C407 1.386 . S
C406 C408 1.391 . S
C407 C406 1.386 . S
C407 C411 1.393 . S
C408 H400 0.950 1_655 S
C408 C406 1.391 . S
C408 C409 1.400 . S
C409 C408 1.400 . S
C409 C410 1.398 . S
C409 C415 1.491 1_656 S
C410 H401 0.950 . S
C410 C409 1.398 . S
C410 C411 1.391 . S
C411 H399 0.950 . S
C411 C407 1.393 . S
C411 C410 1.391 . S
C412 H402 0.950 . S
C412 C413 1.386 . S
C412 C414 1.391 . S
C413 C412 1.386 . S
C413 C417 1.393 . S
C414 H403 0.950 1_455 S
C414 C412 1.391 . S
C414 C415 1.400 . S
C415 C409 1.491 1_454 S
C415 C414 1.400 . S
C415 C416 1.398 . S
C416 H404 0.950 . S
C416 C415 1.398 . S
C416 C417 1.391 . S
C417 H405 0.950 . S
C417 C413 1.393 . S
C417 C416 1.391 . S
H418 C426 0.950 . S
H419 C431 0.950 . S
H420 C428 0.950 . S
H421 C430 0.950 . S
H422 C432 0.950 . S
H423 C434 0.950 . S
H424 C436 0.950 . S
H425 C437 0.950 . S
C426 H418 0.950 . S
C426 C427 1.386 . S
C426 C428 1.391 . S
C427 C426 1.386 . S
C427 C431 1.393 . S
C428 H420 0.950 . S
C428 C426 1.391 . S
C428 C429 1.400 . S
C429 C428 1.400 . S
C429 C430 1.398 . S
C429 C435 1.491 . S
C430 H421 0.950 . S
C430 C429 1.398 . S
C430 C431 1.391 . S
C431 H419 0.950 . S
C431 C427 1.393 . S
C431 C430 1.391 . S
C432 H422 0.950 . S
C432 C433 1.386 . S
C432 C434 1.391 . S
C433 C432 1.386 . S
C433 C437 1.393 . S
C434 H423 0.950 . S
C434 C432 1.391 . S
C434 C435 1.400 . S
C435 C429 1.491 . S
C435 C434 1.400 . S
C435 C436 1.398 . S
C436 H424 0.950 . S
C436 C435 1.398 . S
C436 C437 1.391 . S
C437 H425 0.950 . S
C437 C433 1.393 . S
C437 C436 1.391 . S
H438 C446 0.950 . S
H439 C451 0.950 . S
H440 C448 0.950 . S
H441 C450 0.950 . S
H442 C452 0.950 . S
H443 C454 0.950 1_455 S
H444 C456 0.950 . S
H445 C457 0.950 . S
C446 H438 0.950 . S
C446 C447 1.386 . S
C446 C448 1.391 . S
C447 C446 1.386 . S
C447 C451 1.393 . S
C448 H440 0.950 . S
C448 C446 1.391 . S
C448 C449 1.400 . S
C449 C448 1.400 . S
C449 C450 1.398 . S
C449 C455 1.491 1_455 S
C450 H441 0.950 . S
C450 C449 1.398 . S
C450 C451 1.391 . S
C451 H439 0.950 . S
C451 C447 1.393 . S
C451 C450 1.391 . S
C452 H442 0.950 . S
C452 C453 1.386 . S
C452 C454 1.391 . S
C453 C452 1.386 . S
C453 C457 1.393 . S
C454 H443 0.950 1_655 S
C454 C452 1.391 . S
C454 C455 1.400 . S
C455 C449 1.491 1_655 S
C455 C454 1.400 . S
C455 C456 1.398 . S
C456 H444 0.950 . S
C456 C455 1.398 . S
C456 C457 1.391 . S
C457 H445 0.950 . S
C457 C453 1.393 . S
C457 C456 1.391 . S
H458 C466 0.950 . S
H459 C471 0.950 . S
H460 C468 0.950 . S
H461 C470 0.950 . S
H462 C472 0.950 . S
H463 C474 0.950 . S
H464 C476 0.950 . S
H465 C477 0.950 . S
C466 H458 0.950 . S
C466 C467 1.386 . S
C466 C468 1.391 . S
C467 C466 1.386 . S
C467 C471 1.393 . S
C468 H460 0.950 . S
C468 C466 1.391 . S
C468 C469 1.400 . S
C469 C468 1.400 . S
C469 C470 1.398 . S
C469 C475 1.491 . S
C470 H461 0.950 . S
C470 C469 1.398 . S
C470 C471 1.391 . S
C471 H459 0.950 . S
C471 C467 1.393 . S
C471 C470 1.391 . S
C472 H462 0.950 . S
C472 C473 1.386 . S
C472 C474 1.391 . S
C473 C472 1.386 . S
C473 C477 1.393 . S
C474 H463 0.950 . S
C474 C472 1.391 . S
C474 C475 1.400 . S
C475 C469 1.491 . S
C475 C474 1.400 . S
C475 C476 1.398 . S
C476 H464 0.950 . S
C476 C475 1.398 . S
C476 C477 1.391 . S
C477 H465 0.950 . S
C477 C473 1.393 . S
C477 C476 1.391 . S
H478 C486 0.950 . S
H479 C491 0.950 . S
H480 C488 0.950 . S
H481 C490 0.950 1_554 S
H482 C492 0.950 . S
H483 C494 0.950 1_545 S
H484 C496 0.950 . S
H485 C497 0.950 . S
C486 H478 0.950 . S
C486 C487 1.386 . S
C486 C488 1.391 1_545 S
C487 C486 1.386 . S
C487 C491 1.393 . S
C488 H480 0.950 . S
C488 C486 1.391 1_565 S
C488 C489 1.400 1_565 S
C489 C488 1.400 1_545 S
C489 C490 1.398 . S
C489 C495 1.491 1_546 S
C490 H481 0.950 1_556 S
C490 C489 1.398 . S
C490 C491 1.391 . S
C491 H479 0.950 . S
C491 C487 1.393 . S
C491 C490 1.391 . S
C492 H482 0.950 . S
C492 C493 1.386 . S
C492 C494 1.391 . S
C493 C492 1.386 . S
C493 C497 1.393 . S
C494 H483 0.950 1_565 S
C494 C492 1.391 . S
C494 C495 1.400 . S
C495 C489 1.491 1_564 S
C495 C494 1.400 . S
C495 C496 1.398 1_554 S
C496 H484 0.950 . S
C496 C495 1.398 1_556 S
C496 C497 1.391 1_556 S
C497 H485 0.950 . S
C497 C493 1.393 . S
C497 C496 1.391 1_554 S
C207 C8 1.392 . S
C213 C173 1.384 . S
C227 C107 1.392 . S
C233 C41 1.404 . S
C247 C140 1.390 . S
C253 C74 1.384 . S
C267 C182 1.160 . S
C273 N5 1.143 . S
C287 C116 1.158 . S
C293 N38 1.149 . S
C307 N71 1.153 . S
C313 C149 1.158 . S
C327 C50 1.163 . S
C333 N104 1.138 . S
C347 C83 1.161 . S
C353 N137 1.140 . S
C367 N170 1.129 . S
C373 C17 1.170 . S
C387 C160 1.675 . S
C393 N14 1.655 . S
C407 N47 1.664 . S
C413 C193 1.675 . S
C427 C127 1.675 . S
C433 N80 1.664 . S
C447 N113 1.652 . S
C453 C94 1.676 . S
C467 C28 1.678 . S
C473 N146 1.651 . S
C487 C61 1.681 . S
C493 N179 1.653 . S
