# Generated by pormake.
# Topology ukg, (4)-cn, num edge types: 1
# Building blocks:
#     Node 0, Type 0, BuildingBlock: ICAMEG_clean_sbu_1, # of connection points: 4
#     Node 1, Type 0, BuildingBlock: ICAMEG_clean_sbu_1, # of connection points: 4
#     Node 2, Type 0, BuildingBlock: ICAMEG_clean_sbu_1, # of connection points: 4
#     Node 3, Type 0, BuildingBlock: ICAMEG_clean_sbu_1, # of connection points: 4
#     Node 4, Type 0, BuildingBlock: ICAMEG_clean_sbu_1, # of connection points: 4
#     Node 5, Type 0, BuildingBlock: ICAMEG_clean_sbu_1, # of connection points: 4
#     Node 6, Type 0, BuildingBlock: ICAMEG_clean_sbu_1, # of connection points: 4
#     Node 7, Type 0, BuildingBlock: ICAMEG_clean_sbu_1, # of connection points: 4
#     Edge 8, Type (0, 0), BuildingBlock: TEMPAE_clean_linker_10, # of connection points: 2
#     Edge 9, Type (0, 0), BuildingBlock: TEMPAE_clean_linker_10, # of connection points: 2
#     Edge 10, Type (0, 0), BuildingBlock: TEMPAE_clean_linker_10, # of connection points: 2
#     Edge 11, Type (0, 0), BuildingBlock: TEMPAE_clean_linker_10, # of connection points: 2
#     Edge 12, Type (0, 0), BuildingBlock: TEMPAE_clean_linker_10, # of connection points: 2
#     Edge 13, Type (0, 0), BuildingBlock: TEMPAE_clean_linker_10, # of connection points: 2
#     Edge 14, Type (0, 0), BuildingBlock: TEMPAE_clean_linker_10, # of connection points: 2
#     Edge 15, Type (0, 0), BuildingBlock: TEMPAE_clean_linker_10, # of connection points: 2
#     Edge 16, Type (0, 0), BuildingBlock: TEMPAE_clean_linker_10, # of connection points: 2
#     Edge 17, Type (0, 0), BuildingBlock: TEMPAE_clean_linker_10, # of connection points: 2
#     Edge 18, Type (0, 0), BuildingBlock: TEMPAE_clean_linker_10, # of connection points: 2
#     Edge 19, Type (0, 0), BuildingBlock: TEMPAE_clean_linker_10, # of connection points: 2
#     Edge 20, Type (0, 0), BuildingBlock: TEMPAE_clean_linker_10, # of connection points: 2
#     Edge 21, Type (0, 0), BuildingBlock: TEMPAE_clean_linker_10, # of connection points: 2
#     Edge 22, Type (0, 0), BuildingBlock: TEMPAE_clean_linker_10, # of connection points: 2
#     Edge 23, Type (0, 0), BuildingBlock: TEMPAE_clean_linker_10, # of connection points: 2
# Relax obj value: 0.018
# Max RMSD: 0.101
# Mean RMSD: 0.101
data_MOF--net-ukg--node1-ICAMEG_clean_sbu_1--edge1-TEMPAE_clean_linker_10
_symmetry_space_group_name_H-M    P1
_symmetry_Int_Tables_number       1
_symmetry_cell_setting            triclinic
loop_
_symmetry_equiv_pos_as_xyz
'x, y, z'
_cell_length_a     33.210356
_cell_length_b     33.203876
_cell_length_c     40.762796
_cell_angle_alpha  89.999503
_cell_angle_beta   90.015805
_cell_angle_gamma 89.993254
loop_
_atom_site_label
_atom_site_type_symbol
_atom_site_fract_x
_atom_site_fract_y
_atom_site_fract_z
_atom_type_partial_charge
Co0 Co 0.04424 0.64151 0.19531 0.0
Co1 Co 0.98424 0.67115 0.1304 0.0
O2 O 0.03411 0.65011 0.14877 0.0
C3 C 0.10703 0.69816 0.17419 0.0
O4 O 0.07809 0.71803 0.1594 0.0
C5 C 0.99251 0.59196 0.09867 0.0
O6 O 0.99553 0.5765 0.12819 0.0
O7 O 0.95124 0.63396 0.1577 0.0
O8 O 0.98967 0.61726 0.20114 0.0
H9 H 0.84245 0.72385 0.13395 0.0
H10 H 0.10217 0.61154 0.14565 0.0
O11 O 0.09898 0.66613 0.19012 0.0
H12 H 0.05747 0.49108 0.20629 0.0
H13 H 0.13015 0.60325 0.29215 0.0
H14 H 0.99672 0.65149 0.25636 0.0
H15 H 0.03201 0.55842 0.2212 0.0
H16 H 0.11559 0.61366 0.23339 0.0
O17 O 0.98766 0.62972 0.09478 0.0
H18 H 0.90583 0.69809 0.15751 0.0
H19 H 0.95624 0.68716 0.06219 0.0
H20 H 0.00985 0.64115 0.31533 0.0
H21 H 0.12865 0.54482 0.13006 0.0
H22 H 0.07699 0.61687 0.33355 0.0
H23 H 0.1062 0.48398 0.16043 0.0
O24 O 0.02203 0.6954 0.20684 0.0
H25 H 0.09866 0.7088 0.05578 0.0
H26 H 0.98098 0.75936 0.11701 0.0
H27 H 0.02271 0.80694 0.08534 0.0
H28 H 0.08204 0.78171 0.05445 0.0
H29 H 0.05632 0.66231 0.08797 0.0
H30 H 0.89327 0.71252 0.03754 0.0
H31 H 0.83589 0.73121 0.07354 0.0
O32 O 0.98023 0.7125 0.16572 0.0
C33 C 0.9566 0.61626 0.18517 0.0
C34 C 0.86729 0.71596 0.11801 0.0
C35 C 0.8958 0.70954 0.0639 0.0
N36 N 0.93482 0.69153 0.11126 0.0
C37 C 0.9033 0.70149 0.13122 0.0
C38 C 0.93135 0.69514 0.07798 0.0
C39 C 0.86362 0.72004 0.08411 0.0
C40 C 0.09252 0.58524 0.15915 0.0
N41 N 0.06569 0.58887 0.18438 0.0
C42 C 0.10751 0.54753 0.15014 0.0
C43 C 0.09485 0.5134 0.16716 0.0
C44 C 0.0675 0.51736 0.19288 0.0
C45 C 0.0531 0.55555 0.20117 0.0
C46 C 0.10075 0.61376 0.28451 0.0
C47 C 0.02592 0.64066 0.26409 0.0
C48 C 0.09237 0.61979 0.25129 0.0
N49 N 0.05525 0.63286 0.24148 0.0
C50 C 0.03322 0.63498 0.29752 0.0
C51 C 0.07091 0.6214 0.30773 0.0
C52 C 0.99631 0.71893 0.19366 0.0
C53 C 0.07281 0.72013 0.06905 0.0
C54 C 0.00675 0.74815 0.10362 0.0
C55 C 0.03023 0.77523 0.0857 0.0
C56 C 0.0635 0.76105 0.06836 0.0
N57 N 0.01607 0.70806 0.10417 0.0
C58 C 0.0486 0.69392 0.08719 0.0
Co59 Co 0.35683 0.54334 0.69254 0.0
Co60 Co 0.3286 0.48193 0.62816 0.0
O61 O 0.34941 0.53216 0.64604 0.0
C62 C 0.30223 0.60695 0.66924 0.0
O63 O 0.28195 0.5782 0.65458 0.0
C64 C 0.40831 0.48927 0.59718 0.0
O65 O 0.42343 0.49234 0.62682 0.0
O66 O 0.3653 0.44946 0.65632 0.0
O67 O 0.37998 0.48852 0.69984 0.0
H68 H 0.27591 0.3402 0.6331 0.0
H69 H 0.3894 0.59922 0.64241 0.0
O70 O 0.33354 0.59842 0.68593 0.0
H71 H 0.50708 0.55425 0.70648 0.0
H72 H 0.39377 0.63098 0.78869 0.0
H73 H 0.34401 0.49762 0.75414 0.0
H74 H 0.43885 0.53049 0.72048 0.0
H75 H 0.38493 0.61512 0.72999 0.0
O76 O 0.37059 0.48462 0.59297 0.0
H77 H 0.30127 0.40407 0.65605 0.0
H78 H 0.31366 0.45253 0.56017 0.0
H79 H 0.35275 0.51206 0.81308 0.0
H80 H 0.45705 0.62399 0.62769 0.0
H81 H 0.37778 0.57917 0.83068 0.0
H82 H 0.51649 0.60138 0.65978 0.0
O83 O 0.30216 0.52242 0.70326 0.0
H84 H 0.29233 0.59471 0.55138 0.0
H85 H 0.24064 0.47845 0.61379 0.0
H86 H 0.19366 0.51945 0.58088 0.0
H87 H 0.21946 0.57805 0.54938 0.0
H88 H 0.3382 0.55312 0.58481 0.0
H89 H 0.28872 0.38904 0.53613 0.0
H90 H 0.26949 0.33238 0.57272 0.0
O91 O 0.28663 0.47872 0.66303 0.0
C92 C 0.38182 0.45523 0.68421 0.0
C93 C 0.28403 0.36472 0.61691 0.0
C94 C 0.29127 0.39212 0.56248 0.0
N95 N 0.30851 0.43212 0.60948 0.0
C96 C 0.29827 0.40101 0.62977 0.0
C97 C 0.30543 0.42796 0.57622 0.0
C98 C 0.28048 0.36034 0.58303 0.0
C99 C 0.41509 0.58951 0.65665 0.0
N100 N 0.41018 0.56354 0.68234 0.0
C101 C 0.45333 0.60352 0.64813 0.0
C102 C 0.48668 0.59079 0.66612 0.0
C103 C 0.48142 0.56432 0.69231 0.0
C104 C 0.44273 0.55089 0.70008 0.0
C105 C 0.38291 0.6016 0.78133 0.0
C106 C 0.35517 0.52679 0.76161 0.0
C107 C 0.37777 0.59249 0.74814 0.0
N108 N 0.36427 0.55538 0.73868 0.0
C109 C 0.35994 0.53484 0.79502 0.0
C110 C 0.37395 0.57251 0.80487 0.0
C111 C 0.27915 0.49607 0.69029 0.0
C112 C 0.28075 0.56917 0.56491 0.0
C113 C 0.25209 0.50392 0.60016 0.0
C114 C 0.22536 0.52698 0.58153 0.0
C115 C 0.23986 0.55984 0.56384 0.0
N116 N 0.29216 0.51324 0.60106 0.0
C117 C 0.30661 0.54539 0.58376 0.0
Co118 Co 0.45518 0.85926 0.19498 0.0
Co119 Co 0.51501 0.82966 0.12997 0.0
O120 O 0.46535 0.85115 0.14839 0.0
C121 C 0.3917 0.80368 0.17329 0.0
O122 O 0.42034 0.78374 0.15819 0.0
C123 C 0.50801 0.90937 0.0988 0.0
O124 O 0.50524 0.92467 0.12839 0.0
O125 O 0.54845 0.86602 0.15772 0.0
O126 O 0.50999 0.88286 0.2011 0.0
H127 H 0.65589 0.7746 0.13351 0.0
H128 H 0.39785 0.89053 0.14538 0.0
O129 O 0.40017 0.83536 0.18953 0.0
H130 H 0.44349 0.00967 0.20731 0.0
H131 H 0.36956 0.89728 0.29203 0.0
H132 H 0.50246 0.84791 0.256 0.0
H133 H 0.4681 0.94185 0.22172 0.0
H134 H 0.38409 0.88746 0.2332 0.0
O135 O 0.51233 0.87159 0.09473 0.0
H136 H 0.59282 0.80102 0.15709 0.0
H137 H 0.54312 0.81429 0.06169 0.0
H138 H 0.48935 0.85763 0.31505 0.0
H139 H 0.3722 0.95776 0.13028 0.0
H140 H 0.42249 0.88247 0.33338 0.0
H141 H 0.39514 0.01793 0.16129 0.0
O142 O 0.47668 0.80491 0.20608 0.0
H143 H 0.40035 0.79479 0.05465 0.0
H144 H 0.51706 0.74161 0.11568 0.0
H145 H 0.47479 0.69513 0.08339 0.0
H146 H 0.41594 0.72168 0.0526 0.0
H147 H 0.44321 0.84016 0.08744 0.0
H148 H 0.6058 0.78828 0.03703 0.0
H149 H 0.66266 0.76808 0.07305 0.0
O150 O 0.5182 0.78772 0.16484 0.0
C151 C 0.54315 0.88361 0.18525 0.0
C152 C 0.63127 0.78316 0.11756 0.0
C153 C 0.60317 0.7909 0.06341 0.0
N154 N 0.56421 0.80882 0.1108 0.0
C155 C 0.59544 0.79802 0.13078 0.0
C156 C 0.56779 0.80566 0.0775 0.0
C157 C 0.63507 0.77955 0.08364 0.0
C158 C 0.40772 0.91655 0.15915 0.0
N159 N 0.43435 0.91228 0.18446 0.0
C160 C 0.3932 0.95454 0.15042 0.0
C161 C 0.40612 0.9883 0.1678 0.0
C162 C 0.43327 0.98369 0.19361 0.0
C163 C 0.44719 0.94523 0.20161 0.0
C164 C 0.39884 0.88651 0.28434 0.0
C165 C 0.47338 0.85899 0.26379 0.0
C166 C 0.40721 0.88082 0.25108 0.0
N167 N 0.44418 0.86743 0.24121 0.0
C168 C 0.4661 0.86431 0.29726 0.0
C169 C 0.42856 0.87821 0.30753 0.0
C170 C 0.50193 0.78109 0.19266 0.0
C171 C 0.42598 0.78289 0.06787 0.0
C172 C 0.49151 0.75339 0.10233 0.0
C173 C 0.46772 0.72693 0.08406 0.0
C174 C 0.43472 0.74185 0.06677 0.0
N175 N 0.48275 0.7936 0.10328 0.0
C176 C 0.45048 0.80846 0.08636 0.0
Co177 Co 0.14338 0.95464 0.69301 0.0
Co178 Co 0.16936 0.01856 0.62938 0.0
O179 O 0.15034 0.96701 0.64652 0.0
C180 C 0.19958 0.89267 0.66885 0.0
O181 O 0.21877 0.92179 0.65371 0.0
C182 C 0.09025 0.00566 0.5989 0.0
O183 O 0.07774 0.99365 0.62781 0.0
O184 O 0.13235 0.04906 0.65847 0.0
O185 O 0.11852 0.00857 0.7012 0.0
H186 H 0.2191 0.16113 0.63743 0.0
H187 H 0.11249 0.89794 0.64279 0.0
O188 O 0.16832 0.90046 0.68581 0.0
H189 H 0.99353 0.93908 0.70694 0.0
H190 H 0.10959 0.86423 0.78823 0.0
H191 H 0.15544 0.99952 0.75512 0.0
H192 H 0.061 0.96489 0.721 0.0
H193 H 0.11749 0.88142 0.7297 0.0
O194 O 0.12651 0.01707 0.59483 0.0
H195 H 0.19572 0.09578 0.65897 0.0
H196 H 0.18214 0.05102 0.562 0.0
H197 H 0.1476 0.98374 0.81391 0.0
H198 H 0.04562 0.87112 0.62803 0.0
H199 H 0.12454 0.91566 0.83079 0.0
H200 H 0.98554 0.89183 0.66014 0.0
O201 O 0.19746 0.97694 0.70374 0.0
H202 H 0.20613 0.9096 0.54927 0.0
H203 H 0.25691 0.02449 0.61385 0.0
H204 H 0.30393 0.98577 0.57921 0.0
H205 H 0.27858 0.92786 0.54662 0.0
H206 H 0.16022 0.94897 0.58441 0.0
H207 H 0.20505 0.11602 0.53937 0.0
H208 H 0.22387 0.17157 0.57721 0.0
O209 O 0.21207 0.02124 0.66372 0.0
C210 C 0.1159 0.04219 0.68617 0.0
C211 C 0.21115 0.13711 0.62069 0.0
C212 C 0.20321 0.1118 0.56565 0.0
N213 N 0.188 0.06951 0.61177 0.0
C214 C 0.19804 0.09999 0.63275 0.0
C215 C 0.19021 0.07509 0.5786 0.0
C216 C 0.21377 0.14296 0.5869 0.0
C217 C 0.08654 0.90674 0.65709 0.0
N218 N 0.09065 0.93286 0.68278 0.0
C219 C 0.04874 0.89159 0.64854 0.0
C220 C 0.01503 0.90329 0.66652 0.0
C221 C 0.01948 0.92983 0.69277 0.0
C222 C 0.05774 0.94443 0.70057 0.0
C223 C 0.11957 0.89403 0.78119 0.0
C224 C 0.14512 0.96992 0.76228 0.0
C225 C 0.12418 0.90391 0.74809 0.0
N226 N 0.1366 0.94154 0.73903 0.0
C227 C 0.14086 0.96112 0.7956 0.0
C228 C 0.12796 0.9229 0.80505 0.0
C229 C 0.22008 0.00361 0.69076 0.0
C230 C 0.21751 0.93485 0.56328 0.0
C231 C 0.24566 0.99932 0.59974 0.0
C232 C 0.27241 0.97755 0.58014 0.0
C233 C 0.25817 0.94507 0.56184 0.0
N234 N 0.20582 0.98912 0.60099 0.0
C235 C 0.19162 0.95736 0.5831 0.0
Co236 Co 0.95559 0.35632 0.8078 0.0
Co237 Co 0.01938 0.3304 0.87155 0.0
O238 O 0.96779 0.34922 0.8543 0.0
C239 C 0.89327 0.30032 0.83179 0.0
O240 O 0.92218 0.28086 0.84701 0.0
C241 C 0.00587 0.40927 0.9022 0.0
O242 O 0.99408 0.42184 0.87324 0.0
O243 O 0.04979 0.36781 0.84273 0.0
O244 O 0.00949 0.38123 0.79979 0.0
H245 H 0.16226 0.28156 0.86381 0.0
H246 H 0.8988 0.38713 0.85797 0.0
O247 O 0.90138 0.33148 0.81481 0.0
H248 H 0.93993 0.50622 0.79396 0.0
H249 H 0.86563 0.39042 0.71234 0.0
H250 H 0.00071 0.34435 0.74582 0.0
H251 H 0.9658 0.43878 0.77987 0.0
H252 H 0.88255 0.38237 0.77091 0.0
O253 O 0.01742 0.37303 0.90626 0.0
H254 H 0.09688 0.30467 0.84212 0.0
H255 H 0.05157 0.3174 0.93899 0.0
H256 H 0.9852 0.35234 0.68699 0.0
H257 H 0.87191 0.45397 0.87274 0.0
H258 H 0.91723 0.37551 0.66993 0.0
H259 H 0.89263 0.51412 0.84071 0.0
O260 O 0.97795 0.30222 0.79709 0.0
H261 H 0.91034 0.29241 0.95117 0.0
H262 H 0.02579 0.24278 0.88671 0.0
H263 H 0.98724 0.19528 0.92104 0.0
H264 H 0.92906 0.22005 0.95357 0.0
H265 H 0.94953 0.33882 0.91633 0.0
H266 H 0.11659 0.29475 0.96176 0.0
H267 H 0.17244 0.27649 0.92405 0.0
O268 O 0.02249 0.28792 0.83702 0.0
C269 C 0.04296 0.38417 0.81499 0.0
C270 C 0.13811 0.28927 0.88049 0.0
C271 C 0.11249 0.29672 0.93547 0.0
N272 N 0.07034 0.31196 0.88926 0.0
C273 C 0.10098 0.30223 0.86835 0.0
C274 C 0.07577 0.30958 0.92244 0.0
C275 C 0.14381 0.28647 0.91429 0.0
C276 C 0.9076 0.4131 0.84369 0.0
N277 N 0.93377 0.40904 0.81804 0.0
C278 C 0.89241 0.45089 0.85226 0.0
C279 C 0.90411 0.48465 0.83432 0.0
C280 C 0.93068 0.48024 0.8081 0.0
C281 C 0.94533 0.44199 0.80029 0.0
C282 C 0.89538 0.38038 0.71946 0.0
C283 C 0.97116 0.35471 0.73858 0.0
C284 C 0.9051 0.37569 0.75258 0.0
N285 N 0.94268 0.36321 0.76175 0.0
C286 C 0.96251 0.35906 0.70524 0.0
C287 C 0.92435 0.37203 0.69568 0.0
C288 C 0.00485 0.2798 0.81001 0.0
C289 C 0.9357 0.28129 0.93718 0.0
C290 C 0.00049 0.25377 0.90079 0.0
C291 C 0.97882 0.22675 0.92022 0.0
C292 C 0.94619 0.24067 0.93848 0.0
N293 N 0.99004 0.29357 0.89968 0.0
C294 C 0.95812 0.30745 0.91753 0.0
Co295 Co 0.64083 0.45539 0.30504 0.0
Co296 Co 0.66918 0.51744 0.36926 0.0
O297 O 0.64968 0.4664 0.35152 0.0
C298 C 0.69895 0.39377 0.32644 0.0
O299 O 0.71827 0.42285 0.34153 0.0
C300 C 0.591 0.50344 0.40085 0.0
O301 O 0.57785 0.49217 0.37193 0.0
O302 O 0.63135 0.54879 0.34145 0.0
O303 O 0.61481 0.50914 0.2988 0.0
H304 H 0.71916 0.66006 0.36303 0.0
H305 H 0.61312 0.39672 0.355 0.0
O306 O 0.66692 0.40144 0.3104 0.0
H307 H 0.4907 0.4378 0.29524 0.0
H308 H 0.60408 0.36745 0.209 0.0
H309 H 0.64921 0.50243 0.2436 0.0
H310 H 0.55709 0.46506 0.27968 0.0
H311 H 0.6145 0.3829 0.2676 0.0
O312 O 0.62731 0.51492 0.40456 0.0
H313 H 0.695 0.59542 0.34067 0.0
H314 H 0.68378 0.54796 0.43698 0.0
H315 H 0.63882 0.4884 0.18477 0.0
H316 H 0.54739 0.36845 0.37121 0.0
H317 H 0.61611 0.42048 0.16715 0.0
H318 H 0.48557 0.38913 0.34133 0.0
O319 O 0.69402 0.47894 0.29315 0.0
H320 H 0.70831 0.40609 0.44641 0.0
H321 H 0.75715 0.52293 0.38319 0.0
H322 H 0.8052 0.48314 0.41606 0.0
H323 H 0.78084 0.42425 0.44796 0.0
H324 H 0.66135 0.44654 0.41304 0.0
H325 H 0.7075 0.61223 0.46044 0.0
H326 H 0.72554 0.66878 0.42334 0.0
O327 O 0.71078 0.5211 0.33414 0.0
C328 C 0.61325 0.54246 0.31435 0.0
C329 C 0.71155 0.63561 0.37945 0.0
C330 C 0.70495 0.60877 0.43412 0.0
N331 N 0.68836 0.56785 0.38749 0.0
C332 C 0.69798 0.59889 0.36692 0.0
C333 C 0.69147 0.57249 0.42071 0.0
C334 C 0.71507 0.64049 0.41329 0.0
C335 C 0.58641 0.40552 0.34164 0.0
N336 N 0.58895 0.43243 0.31637 0.0
C337 C 0.54925 0.38954 0.35102 0.0
C338 C 0.51457 0.40122 0.33429 0.0
C339 C 0.51742 0.42856 0.30845 0.0
C340 C 0.55508 0.44398 0.2998 0.0
C341 C 0.6139 0.39718 0.21638 0.0
C342 C 0.63905 0.47289 0.23612 0.0
C343 C 0.61993 0.40608 0.24951 0.0
N344 N 0.63213 0.44363 0.259 0.0
C345 C 0.63335 0.46509 0.20278 0.0
C346 C 0.62064 0.42696 0.19291 0.0
C347 C 0.71735 0.5049 0.30627 0.0
C348 C 0.71927 0.43177 0.4327 0.0
C349 C 0.74632 0.49734 0.39702 0.0
C350 C 0.77366 0.47496 0.41561 0.0
C351 C 0.75997 0.44193 0.43352 0.0
N352 N 0.70645 0.48719 0.39637 0.0
C353 C 0.69278 0.45489 0.41389 0.0
Co354 Co 0.54535 0.14208 0.80629 0.0
Co355 Co 0.4816 0.16896 0.86974 0.0
O356 O 0.53319 0.15003 0.8527 0.0
C357 C 0.60727 0.19878 0.82973 0.0
O358 O 0.57809 0.21849 0.84435 0.0
C359 C 0.49564 0.09092 0.90158 0.0
O360 O 0.50732 0.07775 0.87278 0.0
O361 O 0.45137 0.1307 0.84156 0.0
O362 O 0.49149 0.11688 0.7986 0.0
H363 H 0.33839 0.21673 0.86151 0.0
H364 H 0.60238 0.11244 0.85682 0.0
O365 O 0.59947 0.16727 0.81308 0.0
H366 H 0.56138 0.99197 0.79446 0.0
H367 H 0.63548 0.10645 0.71136 0.0
H368 H 0.50018 0.15257 0.74413 0.0
H369 H 0.53528 0.05905 0.77952 0.0
H370 H 0.61851 0.11565 0.7698 0.0
O371 O 0.48395 0.12719 0.90512 0.0
H372 H 0.40382 0.19349 0.84007 0.0
H373 H 0.44957 0.18339 0.93702 0.0
H374 H 0.51574 0.14343 0.68542 0.0
H375 H 0.62949 0.04599 0.87243 0.0
H376 H 0.58383 0.12022 0.66872 0.0
H377 H 0.60885 0.98514 0.84124 0.0
O378 O 0.52271 0.19584 0.79482 0.0
H379 H 0.59074 0.20956 0.94845 0.0
H380 H 0.47471 0.25689 0.88349 0.0
H381 H 0.51313 0.30547 0.91691 0.0
H382 H 0.57161 0.28187 0.94969 0.0
H383 H 0.55165 0.16206 0.91451 0.0
H384 H 0.3845 0.20621 0.95956 0.0
H385 H 0.32841 0.22321 0.92168 0.0
O386 O 0.47805 0.21052 0.83454 0.0
C387 C 0.45811 0.11402 0.81394 0.0
C388 C 0.36264 0.20958 0.87827 0.0
C389 C 0.38851 0.20361 0.9333 0.0
N390 N 0.43058 0.1875 0.88726 0.0
C391 C 0.39981 0.19654 0.86627 0.0
C392 C 0.42526 0.19065 0.9204 0.0
C393 C 0.35705 0.21316 0.91203 0.0
C394 C 0.59361 0.08617 0.84289 0.0
N395 N 0.56736 0.08964 0.81722 0.0
C396 C 0.60892 0.0486 0.85194 0.0
C397 C 0.59727 0.01446 0.83447 0.0
C398 C 0.5706 0.01826 0.80824 0.0
C399 C 0.55583 0.05631 0.79994 0.0
C400 C 0.60569 0.11649 0.71833 0.0
C401 C 0.52978 0.1422 0.73705 0.0
C402 C 0.59593 0.12183 0.75137 0.0
N403 N 0.5583 0.13433 0.76035 0.0
C404 C 0.53846 0.1372 0.70377 0.0
C405 C 0.57668 0.12422 0.69442 0.0
C406 C 0.49551 0.2182 0.80737 0.0
C407 C 0.56524 0.22019 0.93436 0.0
C408 C 0.50013 0.2464 0.89769 0.0
C409 C 0.52173 0.27403 0.9166 0.0
C410 C 0.55453 0.26076 0.935 0.0
N411 N 0.51081 0.20665 0.89721 0.0
C412 C 0.54288 0.1934 0.91522 0.0
Co413 Co 0.85889 0.04505 0.30488 0.0
Co414 Co 0.82926 0.98531 0.36992 0.0
O415 O 0.85036 0.03509 0.35145 0.0
C416 C 0.80299 0.10852 0.32608 0.0
O417 O 0.78276 0.07988 0.34092 0.0
C418 C 0.90833 0.99358 0.40187 0.0
O419 O 0.92395 0.99637 0.37239 0.0
O420 O 0.86655 0.95215 0.3428 0.0
O421 O 0.88279 0.99032 0.2991 0.0
H422 H 0.77649 0.84353 0.36666 0.0
H423 H 0.88942 0.10278 0.35449 0.0
O424 O 0.83478 0.09999 0.31002 0.0
H425 H 0.00934 0.05737 0.2935 0.0
H426 H 0.89746 0.13037 0.20779 0.0
H427 H 0.84838 0.99741 0.24394 0.0
H428 H 0.94179 0.03235 0.27875 0.0
H429 H 0.88714 0.11609 0.26659 0.0
O430 O 0.87055 0.98887 0.40564 0.0
H431 H 0.80236 0.90678 0.34298 0.0
H432 H 0.81304 0.95763 0.43818 0.0
H433 H 0.85864 0.01026 0.18493 0.0
H434 H 0.95636 0.12883 0.36992 0.0
H435 H 0.88334 0.07717 0.16652 0.0
H436 H 0.01692 0.10602 0.33938 0.0
O437 O 0.80479 0.02315 0.29348 0.0
H438 H 0.79142 0.10011 0.44413 0.0
H439 H 0.74102 0.98217 0.38311 0.0
H440 H 0.69336 0.02408 0.41455 0.0
H441 H 0.71851 0.08354 0.44533 0.0
H442 H 0.83799 0.05758 0.41218 0.0
H443 H 0.78756 0.89479 0.46295 0.0
H444 H 0.76894 0.83724 0.42707 0.0
O445 O 0.78803 0.98114 0.33453 0.0
C446 C 0.88403 0.95737 0.31523 0.0
C447 C 0.78435 0.86844 0.38254 0.0
C448 C 0.79062 0.89719 0.43659 0.0
N449 N 0.80881 0.93597 0.38916 0.0
C450 C 0.79889 0.90437 0.36927 0.0
C451 C 0.80509 0.93266 0.42243 0.0
C452 C 0.78017 0.86492 0.41644 0.0
C453 C 0.9156 0.09296 0.34092 0.0
N454 N 0.9117 0.06617 0.31568 0.0
C455 C 0.95344 0.10771 0.34984 0.0
C456 C 0.98741 0.09486 0.33272 0.0
C457 C 0.98318 0.06754 0.30699 0.0
C458 C 0.94487 0.05339 0.2988 0.0
C459 C 0.88677 0.10108 0.21551 0.0
C460 C 0.8594 0.0265 0.23613 0.0
C461 C 0.88078 0.09285 0.24876 0.0
N462 N 0.86747 0.05586 0.25867 0.0
C463 C 0.86503 0.03365 0.20268 0.0
C464 C 0.87885 0.07121 0.19237 0.0
C465 C 0.78141 0.99729 0.30665 0.0
C466 C 0.78012 0.0742 0.43091 0.0
C467 C 0.75219 0.00799 0.39645 0.0
C468 C 0.72507 0.03158 0.41424 0.0
C469 C 0.7392 0.06492 0.43153 0.0
N470 N 0.79228 0.01728 0.39597 0.0
C471 C 0.80637 0.04989 0.4129 0.0
C472 C 0.03377 0.4341 0.95513 0.0
C473 C 0.00458 0.4368 0.93044 0.0
C474 C 0.03286 0.46012 0.98222 0.0
C475 C 0.0011 0.48836 0.98518 0.0
C476 C 0.97124 0.49078 0.96044 0.0
C477 C 0.97378 0.4654 0.93301 0.0
C478 C 0.06597 0.45757 0.00754 0.0
C479 C 0.93621 0.51957 0.96326 0.0
C480 C 0.97879 0.52657 0.07102 0.0
C481 C 0.9948 0.56553 0.06977 0.0
C482 C 0.97993 0.50137 0.04342 0.0
C483 C 0.99889 0.51506 0.01436 0.0
C484 C 0.01582 0.55418 0.01324 0.0
C485 C 0.0129 0.57926 0.04083 0.0
C486 C 0.96042 0.46035 0.04521 0.0
C487 C 0.03745 0.56932 0.98309 0.0
H488 H 0.05775 0.41208 0.95293 0.0
H489 H 0.951 0.46713 0.91399 0.0
H490 H 0.08027 0.48752 0.01072 0.0
H491 H 0.05321 0.44875 0.03163 0.0
H492 H 0.08959 0.43541 0.00069 0.0
H493 H 0.91501 0.51695 0.94228 0.0
H494 H 0.91944 0.51363 0.98631 0.0
H495 H 0.94731 0.55103 0.96448 0.0
H496 H 0.96449 0.51615 0.09338 0.0
H497 H 0.02558 0.60935 0.04003 0.0
H498 H 0.98333 0.43652 0.04136 0.0
H499 H 0.93772 0.45724 0.02538 0.0
H500 H 0.94542 0.45498 0.06917 0.0
H501 H 0.06225 0.5484 0.97656 0.0
H502 H 0.05023 0.59993 0.98666 0.0
H503 H 0.01647 0.57019 0.96193 0.0
C504 C 0.47386 0.47525 0.56988 0.0
C505 C 0.43504 0.49159 0.56848 0.0
C506 C 0.49928 0.47644 0.54242 0.0
C507 C 0.48599 0.49578 0.51341 0.0
C508 C 0.44704 0.51308 0.51217 0.0
C509 C 0.42171 0.5101 0.53958 0.0
C510 C 0.5401 0.45653 0.5443 0.0
C511 C 0.43231 0.53512 0.48206 0.0
C512 C 0.5671 0.53059 0.45431 0.0
C513 C 0.56398 0.50177 0.42937 0.0
C514 C 0.54129 0.5295 0.48152 0.0
C515 C 0.51283 0.49792 0.48433 0.0
C516 C 0.51009 0.46834 0.4594 0.0
C517 C 0.53526 0.47106 0.43186 0.0
C518 C 0.54418 0.56232 0.50706 0.0
C519 C 0.48105 0.43349 0.46204 0.0
H520 H 0.48395 0.46066 0.59222 0.0
H521 H 0.39174 0.52304 0.53868 0.0
H522 H 0.54308 0.43386 0.52444 0.0
H523 H 0.56417 0.47922 0.54058 0.0
H524 H 0.54521 0.44137 0.56824 0.0
H525 H 0.40187 0.54828 0.4856 0.0
H526 H 0.45358 0.55969 0.4757 0.0
H527 H 0.43125 0.51428 0.46082 0.0
H528 H 0.58921 0.55449 0.45217 0.0
H529 H 0.5332 0.44856 0.41265 0.0
H530 H 0.5526 0.54921 0.53112 0.0
H531 H 0.51443 0.57705 0.51017 0.0
H532 H 0.56673 0.58567 0.50047 0.0
H533 H 0.48666 0.41665 0.48511 0.0
H534 H 0.48369 0.41231 0.44105 0.0
H535 H 0.44967 0.44483 0.46307 0.0
C536 C 0.52229 0.97475 0.07127 0.0
C537 C 0.50586 0.93597 0.06999 0.0
C538 C 0.52136 -1e-05 0.04368 0.0
C539 C 0.5022 0.98653 0.01463 0.0
C540 C 0.4848 0.94762 0.01351 0.0
C541 C 0.4875 0.92249 0.04107 0.0
C542 C 0.54135 0.04078 0.04545 0.0
C543 C 0.46296 0.93272 0.98336 0.0
C544 C 0.46799 0.06731 0.95495 0.0
C545 C 0.49701 0.06398 0.93019 0.0
C546 C 0.46883 0.04167 0.98229 0.0
C547 C 0.50033 0.01317 0.9854 0.0
C548 C 0.53009 0.0102 0.96064 0.0
C549 C 0.52764 0.03521 0.93297 0.0
C550 C 0.43584 0.04482 0.00765 0.0
C551 C 0.56485 0.9811 0.9636 0.0
H552 H 0.53677 0.98497 0.09362 0.0
H553 H 0.4745 0.89254 0.04025 0.0
H554 H 0.56419 0.04354 0.0257 0.0
H555 H 0.51876 0.06488 0.04146 0.0
H556 H 0.55631 0.04604 0.06945 0.0
H557 H 0.4497 0.90233 0.98699 0.0
H558 H 0.4385 0.95401 0.97676 0.0
H559 H 0.48396 0.93145 0.96224 0.0
H560 H 0.44416 0.08946 0.95259 0.0
H561 H 0.55029 0.03299 0.9139 0.0
H562 H 0.44879 0.05339 0.03173 0.0
H563 H 0.42103 0.01511 0.01083 0.0
H564 H 0.41258 0.06737 0.00082 0.0
H565 H 0.58155 0.98685 0.98672 0.0
H566 H 0.58617 0.98352 0.94269 0.0
H567 H 0.55344 0.94975 0.96475 0.0
C568 C 0.92077 0.014 0.45976 0.0
C569 C 0.93462 0.99584 0.43087 0.0
C570 C 0.94566 0.01679 0.48747 0.0
C571 C 0.98471 -0.00032 0.48653 0.0
C572 C 0.99852 0.9807 0.45752 0.0
C573 C 0.97352 0.97968 0.42979 0.0
C574 C 0.9304 0.03845 0.51757 0.0
C575 C 0.03947 0.96102 0.45592 0.0
C576 C 0.06553 0.03401 0.5461 0.0
C577 C 0.06265 0.00472 0.5707 0.0
C578 C 0.03958 0.03334 0.51896 0.0
C579 C 0.01121 0.00173 0.51584 0.0
C580 C 0.00855 0.97181 0.54052 0.0
C581 C 0.03387 0.97409 0.568 0.0
C582 C 0.0424 0.06652 0.49372 0.0
C583 C 0.97959 0.93694 0.53754 0.0
H584 H 0.89073 0.02679 0.46043 0.0
H585 H 0.98403 0.96534 0.40748 0.0
H586 H 0.92928 0.01744 0.5387 0.0
H587 H 0.95138 0.06316 0.52423 0.0
H588 H 0.89988 0.05138 0.51385 0.0
H589 H 0.04496 0.94603 0.43196 0.0
H590 H 0.06336 0.98382 0.45992 0.0
H591 H 0.04234 0.93825 0.47572 0.0
H592 H 0.08768 0.05785 0.54839 0.0
H593 H 0.03199 0.95124 0.58695 0.0
H594 H 0.01251 0.08091 0.4904 0.0
H595 H 0.05138 0.0538 0.46966 0.0
H596 H 0.06455 0.09007 0.50074 0.0
H597 H 0.94821 0.94821 0.53614 0.0
H598 H 0.98191 0.91574 0.55855 0.0
H599 H 0.98563 0.92012 0.51453 0.0
C600 C 0.1788 0.69622 0.19266 0.0
C601 C 0.1489 0.71321 0.17267 0.0
C602 C 0.21841 0.71086 0.19207 0.0
C603 C 0.22842 0.74303 0.17079 0.0
C604 C 0.19853 0.75991 0.15019 0.0
C605 C 0.15907 0.74489 0.15147 0.0
C606 C 0.24943 0.69223 0.21452 0.0
C607 C 0.20818 0.794 0.12697 0.0
C608 C 0.32017 0.80584 0.19232 0.0
C609 C 0.3497 0.78896 0.17192 0.0
C610 C 0.2805 0.79136 0.19201 0.0
C611 C 0.27004 0.75947 0.17059 0.0
C612 C 0.29953 0.74277 0.14952 0.0
C613 C 0.33907 0.75762 0.15053 0.0
C614 C 0.24991 0.80979 0.21494 0.0
C615 C 0.28939 0.70899 0.12613 0.0
H616 H 0.17117 0.67176 0.20914 0.0
H617 H 0.13618 0.75798 0.13578 0.0
H618 H 0.27511 0.68058 0.19993 0.0
H619 H 0.26155 0.71544 0.23143 0.0
H620 H 0.23686 0.66714 0.22935 0.0
H621 H 0.18181 0.80291 0.11184 0.0
H622 H 0.21852 0.82065 0.14106 0.0
H623 H 0.23311 0.78515 0.11035 0.0
H624 H 0.32816 0.83004 0.20895 0.0
H625 H 0.36166 0.74463 0.13452 0.0
H626 H 0.23815 0.78643 0.23189 0.0
H627 H 0.22393 0.82154 0.20075 0.0
H628 H 0.26276 0.83477 0.22975 0.0
H629 H 0.27937 0.68215 0.14013 0.0
H630 H 0.31543 0.70031 0.11056 0.0
H631 H 0.26409 0.71805 0.10995 0.0
C632 C 0.25688 0.65974 0.64565 0.0
C633 C 0.28839 0.64922 0.66692 0.0
C634 C 0.24273 0.69952 0.64395 0.0
C635 C 0.26032 0.72938 0.66418 0.0
C636 C 0.29256 0.71908 0.68529 0.0
C637 C 0.3063 0.67916 0.68633 0.0
C638 C 0.20851 0.70946 0.62093 0.0
C639 C 0.31198 0.75006 0.70735 0.0
C640 C 0.24539 0.84042 0.64493 0.0
C641 C 0.21451 0.85075 0.66685 0.0
C642 C 0.26019 0.80083 0.64336 0.0
C643 C 0.24392 0.77105 0.66439 0.0
C644 C 0.21253 0.78124 0.68634 0.0
C645 C 0.19809 0.8209 0.68721 0.0
C646 C 0.29344 0.79096 0.61942 0.0
C647 C 0.19456 0.75038 0.70929 0.0
H648 H 0.2431 0.63684 0.63037 0.0
H649 H 0.33069 0.6713 0.70281 0.0
H650 H 0.18191 0.71944 0.63524 0.0
H651 H 0.21715 0.73471 0.60456 0.0
H652 H 0.19962 0.6833 0.60556 0.0
H653 H 0.33757 0.73743 0.72158 0.0
H654 H 0.32309 0.77581 0.69257 0.0
H655 H 0.28935 0.76207 0.72482 0.0
H656 H 0.25803 0.86325 0.62896 0.0
H657 H 0.17425 0.82862 0.70425 0.0
H658 H 0.28405 0.76582 0.60321 0.0
H659 H 0.32059 0.7808 0.63296 0.0
H660 H 0.30176 0.81718 0.60391 0.0
H661 H 0.18248 0.72459 0.69506 0.0
H662 H 0.16991 0.76306 0.72455 0.0
H663 H 0.21826 0.73839 0.72582 0.0
C664 C 0.67956 0.19549 0.81298 0.0
C665 C 0.64935 0.2131 0.83229 0.0
C666 C 0.71941 0.20927 0.81441 0.0
C667 C 0.72942 0.24126 0.83586 0.0
C668 C 0.69928 0.25865 0.85593 0.0
C669 C 0.65952 0.24446 0.85382 0.0
C670 C 0.75066 0.19011 0.79247 0.0
C671 C 0.70892 0.29259 0.87929 0.0
C672 C 0.84044 0.25507 0.85561 0.0
C673 C 0.85117 0.28594 0.8338 0.0
C674 C 0.80067 0.24079 0.85711 0.0
C675 C 0.77111 0.25756 0.83612 0.0
C676 C 0.78169 0.28903 0.81436 0.0
C677 C 0.82152 0.30293 0.81355 0.0
C678 C 0.7904 0.20743 0.88084 0.0
C679 C 0.75108 0.30751 0.79143 0.0
H680 H 0.67198 0.17122 0.79629 0.0
H681 H 0.63642 0.258 0.86902 0.0
H682 H 0.76302 0.21297 0.77536 0.0
H683 H 0.77615 0.17865 0.80739 0.0
H684 H 0.73819 0.16478 0.77784 0.0
H685 H 0.68253 0.3014 0.89442 0.0
H686 H 0.73387 0.28368 0.89588 0.0
H687 H 0.71923 0.31932 0.86529 0.0
H688 H 0.86312 0.242 0.8715 0.0
H689 H 0.82953 0.32679 0.79661 0.0
H690 H 0.78047 0.18035 0.8671 0.0
H691 H 0.765 0.21674 0.89681 0.0
H692 H 0.81636 0.19901 0.89661 0.0
H693 H 0.73924 0.28414 0.77453 0.0
H694 H 0.76397 0.33241 0.77656 0.0
H695 H 0.72517 0.31938 0.80562 0.0
C696 C 0.69753 0.32218 0.30763 0.0
C697 C 0.71435 0.352 0.3278 0.0
C698 C 0.71213 0.28257 0.30818 0.0
C699 C 0.74411 0.27243 0.3296 0.0
C700 C 0.76091 0.30224 0.35032 0.0
C701 C 0.74592 0.34176 0.34908 0.0
C702 C 0.6936 0.25165 0.28557 0.0
C703 C 0.79482 0.29243 0.37368 0.0
C704 C 0.75752 0.16143 0.3492 0.0
C705 C 0.78875 0.15067 0.32776 0.0
C706 C 0.74322 0.20117 0.35055 0.0
C707 C 0.76036 0.23072 0.32979 0.0
C708 C 0.79219 0.22015 0.30837 0.0
C709 C 0.80612 0.18028 0.30771 0.0
C710 C 0.70946 0.21142 0.37392 0.0
C711 C 0.81106 0.25079 0.28572 0.0
H712 H 0.67316 0.32985 0.29107 0.0
H713 H 0.75889 0.36458 0.36489 0.0
H714 H 0.71692 0.23943 0.26881 0.0
H715 H 0.68165 0.22602 0.30005 0.0
H716 H 0.66873 0.26437 0.27055 0.0
H717 H 0.80377 0.31878 0.38881 0.0
H718 H 0.78572 0.26756 0.39028 0.0
H719 H 0.82148 0.28191 0.35971 0.0
H720 H 0.74417 0.13878 0.36496 0.0
H721 H 0.83026 0.1722 0.29107 0.0
H722 H 0.68268 0.22155 0.3599 0.0
H723 H 0.71858 0.23666 0.39013 0.0
H724 H 0.70066 0.18538 0.38946 0.0
H725 H 0.78798 0.26274 0.26861 0.0
H726 H 0.83617 0.2379 0.27108 0.0
H727 H 0.82273 0.27665 0.30009 0.0
C728 C 0.77412 0.55296 0.29706 0.0
C729 C 0.75364 0.51773 0.28792 0.0
C730 C 0.80741 0.56672 0.27918 0.0
C731 C 0.82107 0.54437 0.2518 0.0
C732 C 0.80114 0.50834 0.2428 0.0
C733 C 0.76742 0.4956 0.26082 0.0
C734 C 0.82755 0.60558 0.28932 0.0
C735 C 0.81534 0.4834 0.21408 0.0
C736 C 0.88269 0.60271 0.18956 0.0
C737 C 0.92213 0.59463 0.20003 0.0
C738 C 0.84949 0.58564 0.20563 0.0
C739 C 0.8559 0.55931 0.23244 0.0
C740 C 0.89562 0.54955 0.24215 0.0
C741 C 0.92826 0.56761 0.22603 0.0
C742 C 0.80754 0.59722 0.19485 0.0
C743 C 0.90366 0.52106 0.27029 0.0
H744 H 0.7637 0.57036 0.31788 0.0
H745 H 0.75194 0.46822 0.2537 0.0
H746 H 0.85971 0.60004 0.29509 0.0
H747 H 0.82656 0.62747 0.26876 0.0
H748 H 0.81301 0.6195 0.31109 0.0
H749 H 0.79744 0.45538 0.21101 0.0
H750 H 0.81321 0.50126 0.19115 0.0
H751 H 0.84745 0.47513 0.2174 0.0
H752 H 0.87761 0.62362 0.16957 0.0
H753 H 0.9586 0.56095 0.23416 0.0
H754 H 0.79227 0.61397 0.21485 0.0
H755 H 0.78937 0.56988 0.18984 0.0
H756 H 0.8077 0.61637 0.17249 0.0
H757 H 0.8933 0.53487 0.29358 0.0
H758 H 0.93614 0.51363 0.27272 0.0
H759 H 0.8865 0.4927 0.2669 0.0
C760 C 0.42913 0.42788 0.72657 0.0
C761 C 0.40336 0.42117 0.69983 0.0
C762 C 0.44748 0.39567 0.74307 0.0
C763 C 0.43929 0.35573 0.73298 0.0
C764 C 0.4141 0.34874 0.70554 0.0
C765 C 0.39671 0.38155 0.68912 0.0
C766 C 0.47468 0.40435 0.77191 0.0
C767 C 0.40419 0.30653 0.69433 0.0
C768 C 0.50489 0.2691 0.76247 0.0
C769 C 0.48233 0.2544 0.789 0.0
C770 C 0.49166 0.30253 0.74429 0.0
C771 C 0.4547 0.32122 0.75253 0.0
C772 C 0.43192 0.30665 0.77935 0.0
C773 C 0.44616 0.2737 0.79741 0.0
C774 C 0.51707 0.31772 0.7162 0.0
C775 C 0.39208 0.32544 0.78867 0.0
H776 H 0.43467 0.45835 0.73494 0.0
H777 H 0.37677 0.37601 0.66856 0.0
H778 H 0.46045 0.39323 0.79481 0.0
H779 H 0.50373 0.38822 0.76907 0.0
H780 H 0.48088 0.43705 0.77475 0.0
H781 H 0.38571 0.30627 0.67161 0.0
H782 H 0.43224 0.28929 0.68977 0.0
H783 H 0.38737 0.29056 0.71393 0.0
H784 H 0.53296 0.25453 0.75589 0.0
H785 H 0.42839 0.26257 0.81777 0.0
H786 H 0.52414 0.35009 0.71979 0.0
H787 H 0.50007 0.31514 0.69287 0.0
H788 H 0.54576 0.30079 0.71371 0.0
H789 H 0.39635 0.35774 0.79467 0.0
H790 H 0.37794 0.31031 0.81007 0.0
H791 H 0.37095 0.32386 0.76762 0.0
C792 C 0.61715 0.89646 0.19029 0.0
C793 C 0.57763 0.90516 0.20018 0.0
C794 C 0.65027 0.91383 0.20633 0.0
C795 C 0.64368 0.94108 0.2325 0.0
C796 C 0.60388 0.95136 0.24164 0.0
C797 C 0.57135 0.93299 0.22559 0.0
C798 C 0.69228 0.90165 0.19621 0.0
C799 C 0.59564 0.98081 0.26906 0.0
C800 C 0.72442 0.94932 0.29789 0.0
C801 C 0.7452 0.98418 0.28826 0.0
C802 C 0.69142 0.93505 0.27991 0.0
C803 C 0.67833 0.9565 0.25187 0.0
C804 C 0.69854 0.99216 0.24234 0.0
C805 C 0.73197 0.00543 0.2605 0.0
C806 C 0.67098 0.89659 0.29066 0.0
C807 C 0.68495 0.01617 0.2129 0.0
H808 H 0.62233 0.87492 0.17077 0.0
H809 H 0.54095 0.94013 0.23326 0.0
H810 H 0.71068 0.92871 0.19077 0.0
H811 H 0.70718 0.88548 0.21672 0.0
H812 H 0.6923 0.88176 0.17429 0.0
H813 H 0.56316 0.98844 0.27107 0.0
H814 H 0.6057 0.96777 0.29273 0.0
H815 H 0.61294 0.009 0.26516 0.0
H816 H 0.7344 0.93256 0.31921 0.0
H817 H 0.7477 0.03249 0.25294 0.0
H818 H 0.67217 0.87406 0.27057 0.0
H819 H 0.63876 0.90244 0.296 0.0
H820 H 0.68515 0.88332 0.31286 0.0
H821 H 0.68734 0.9975 0.19042 0.0
H822 H 0.70305 0.04397 0.20939 0.0
H823 H 0.65282 0.02472 0.21566 0.0
C824 C 0.05369 0.22376 0.80035 0.0
C825 C 0.01731 0.24287 0.7923 0.0
C826 C 0.06729 0.19021 0.78269 0.0
C827 C 0.04361 0.17485 0.75667 0.0
C828 C 0.00629 0.1932 0.74898 0.0
C829 C 0.99374 0.22724 0.7667 0.0
C830 C 0.10754 0.17186 0.79135 0.0
C831 C 0.97992 0.17717 0.72179 0.0
C832 C 0.09989 0.11549 0.69177 0.0
C833 C 0.09431 0.07572 0.70251 0.0
C834 C 0.08275 0.14797 0.70874 0.0
C835 C 0.05886 0.14052 0.73684 0.0
C836 C 0.05172 0.10041 0.74706 0.0
C837 C 0.06982 0.06849 0.72995 0.0
C838 C 0.09155 0.19036 0.69734 0.0
C839 C 0.02588 0.09126 0.77661 0.0
H840 H 0.07219 0.2356 0.82001 0.0
H841 H 0.96545 0.24162 0.76046 0.0
H842 H 0.10384 0.1395 0.79737 0.0
H843 H 0.12811 0.17375 0.76995 0.0
H844 H 0.12205 0.18713 0.81253 0.0
H845 H 0.9507 0.19335 0.72019 0.0
H846 H 0.99569 0.18013 0.69793 0.0
H847 H 0.97389 0.14465 0.72567 0.0
H848 H 0.11883 0.12148 0.67068 0.0
H849 H 0.06514 0.0379 0.73837 0.0
H850 H 0.10859 0.20669 0.71661 0.0
H851 H 0.06305 0.20704 0.69326 0.0
H852 H 0.10939 0.19096 0.67429 0.0
H853 H 0.04083 0.10264 0.79911 0.0
H854 H 0.02037 0.05846 0.77959 0.0
H855 H 0.99646 0.10689 0.77454 0.0
C856 C 0.06887 0.43102 0.77163 0.0
C857 C 0.07633 0.40614 0.7988 0.0
C858 C 0.10062 0.44946 0.75458 0.0
C859 C 0.14079 0.44223 0.76456 0.0
C860 C 0.14849 0.41801 0.79244 0.0
C861 C 0.11616 0.40055 0.80938 0.0
C862 C 0.09121 0.47567 0.7253 0.0
C863 C 0.19096 0.40909 0.80355 0.0
C864 C 0.22301 0.44754 0.70024 0.0
C865 C 0.24239 0.48378 0.70827 0.0
C866 C 0.18975 0.43392 0.71823 0.0
C867 C 0.17492 0.45748 0.74451 0.0
C868 C 0.19351 0.49468 0.75216 0.0
C869 C 0.22731 0.50723 0.73414 0.0
C870 C 0.17113 0.39377 0.7096 0.0
C871 C 0.178 0.52094 0.77962 0.0
H872 H 0.03823 0.43573 0.76336 0.0
H873 H 0.12231 0.38132 0.83027 0.0
H874 H 0.10708 0.50497 0.72738 0.0
H875 H 0.10211 0.46085 0.70259 0.0
H876 H 0.05841 0.48145 0.72268 0.0
H877 H 0.19175 0.39119 0.82658 0.0
H878 H 0.20704 0.39203 0.78415 0.0
H879 H 0.20776 0.43753 0.80754 0.0
H880 H 0.23444 0.42912 0.68038 0.0
H881 H 0.24192 0.53541 0.74035 0.0
H882 H 0.13873 0.39764 0.70382 0.0
H883 H 0.17318 0.3731 0.73093 0.0
H884 H 0.1861 0.37928 0.68827 0.0
H885 H 0.14545 0.52713 0.77609 0.0
H886 H 0.19432 0.55009 0.78117 0.0
H887 H 0.18126 0.50501 0.80339 0.0
C888 C 0.56322 0.56951 0.27394 0.0
C889 C 0.59109 0.57639 0.29919 0.0
C890 C 0.5447 0.60174 0.25753 0.0
C891 C 0.55497 0.64174 0.26613 0.0
C892 C 0.58223 0.64888 0.29219 0.0
C893 C 0.59963 0.61613 0.30862 0.0
C894 C 0.51515 0.59297 0.2303 0.0
C895 C 0.59447 0.69111 0.30174 0.0
C896 C 0.54813 0.72251 0.20071 0.0
C897 C 0.51393 0.74417 0.21059 0.0
C898 C 0.56146 0.68888 0.21839 0.0
C899 C 0.53971 0.67609 0.24636 0.0
C900 C 0.5045 0.69702 0.25596 0.0
C901 C 0.49219 0.73105 0.23812 0.0
C902 C 0.59948 0.66768 0.2076 0.0
C903 C 0.48018 0.68378 0.28533 0.0
H904 H 0.55622 0.53892 0.26665 0.0
H905 H 0.62121 0.6218 0.32802 0.0
H906 H 0.48711 0.61061 0.23387 0.0
H907 H 0.52824 0.60223 0.20643 0.0
H908 H 0.50728 0.56049 0.22891 0.0
H909 H 0.61453 0.69156 0.32355 0.0
H910 H 0.61047 0.70562 0.28097 0.0
H911 H 0.56745 0.70961 0.3071 0.0
H912 H 0.5652 0.73235 0.17953 0.0
H913 H 0.46557 0.74741 0.2458 0.0
H914 H 0.59319 0.63541 0.20279 0.0
H915 H 0.62229 0.66905 0.22747 0.0
H916 H 0.61263 0.68118 0.18508 0.0
H917 H 0.47193 0.65153 0.28294 0.0
H918 H 0.4522 0.70175 0.28834 0.0
H919 H 0.49851 0.68682 0.30794 0.0
C920 C 0.38489 0.09763 0.80877 0.0
C921 C 0.42462 0.09203 0.79794 0.0
C922 C 0.35238 0.08042 0.79191 0.0
C923 C 0.35976 0.05643 0.76385 0.0
C924 C 0.39982 0.04914 0.75363 0.0
C925 C 0.43178 0.06732 0.77061 0.0
C926 C 0.31003 0.08939 0.80331 0.0
C927 C 0.40888 0.02315 0.72414 0.0
C928 C 0.27261 0.99198 0.73396 0.0
C929 C 0.25714 0.01572 0.7084 0.0
C930 C 0.30677 0.00423 0.75165 0.0
C931 C 0.32538 0.0414 0.74398 0.0
C932 C 0.31021 0.06523 0.71797 0.0
C933 C 0.27654 0.05192 0.70033 0.0
C934 C 0.32262 0.97771 0.77883 0.0
C935 C 0.32887 0.10535 0.70932 0.0
H936 H 0.37897 0.11671 0.82979 0.0
H937 H 0.46234 0.06262 0.76214 0.0
H938 H 0.2938 0.10658 0.78406 0.0
H939 H 0.29321 0.06095 0.80731 0.0
H940 H 0.3095 0.10716 0.82639 0.0
H941 H 0.44164 0.0173 0.7213 0.0
H942 H 0.39296 0.99387 0.72616 0.0
H943 H 0.39779 0.03818 0.70158 0.0
H944 H 0.25801 0.9638 0.74019 0.0
H945 H 0.26482 0.07054 0.68069 0.0
H946 H 0.31966 0.99343 0.80271 0.0
H947 H 0.35512 0.97153 0.77501 0.0
H948 H 0.3063 0.94856 0.78034 0.0
H949 H 0.32711 0.12594 0.73072 0.0
H950 H 0.31373 0.11996 0.68813 0.0
H951 H 0.36121 0.10139 0.70333 0.0
C952 C 0.94819 0.7756 0.203 0.0
C953 C 0.98345 0.75515 0.21208 0.0
C954 C 0.93424 0.80866 0.22107 0.0
C955 C 0.95646 0.82214 0.24859 0.0
C956 C 0.99253 0.80226 0.25753 0.0
C957 C 0.00544 0.76875 0.23933 0.0
C958 C 0.89533 0.82875 0.21099 0.0
C959 C 0.01735 0.8163 0.28638 0.0
C960 C 0.9329 0.92919 0.27453 0.0
C961 C 0.90578 0.92295 0.30043 0.0
C962 C 0.95112 0.89663 0.25842 0.0
C963 C 0.94143 0.85686 0.26804 0.0
C964 C 0.91501 0.85033 0.29477 0.0
C965 C 0.89777 0.88347 0.31084 0.0
C966 C 0.97969 0.9048 0.23038 0.0
C967 C 0.9035 0.80832 0.30544 0.0
H968 H 0.93087 0.7653 0.18209 0.0
H969 H 0.03284 0.75327 0.24642 0.0
H970 H 0.87344 0.82761 0.23154 0.0
H971 H 0.90079 0.86096 0.20532 0.0
H972 H 0.88146 0.81428 0.18916 0.0
H973 H 0.04537 0.7984 0.28945 0.0
H974 H 0.0256 0.84845 0.28322 0.0
H975 H 0.99941 0.81402 0.30925 0.0
H976 H 0.93951 0.95956 0.26645 0.0
H977 H 0.87679 0.87832 0.33076 0.0
H978 H 0.96596 0.89455 0.20702 0.0
H979 H 0.00806 0.88764 0.23377 0.0
H980 H 0.98711 0.93731 0.22807 0.0
H981 H 0.88675 0.79311 0.2854 0.0
H982 H 0.88437 0.80838 0.3278 0.0
H983 H 0.93086 0.79015 0.31039 0.0
loop_
_geom_bond_atom_site_label_1
_geom_bond_atom_site_label_2
_geom_bond_distance
_geom_bond_site_symmetry_2
_ccdc_geom_bond_type
Co0 O2 2.143 . S
Co0 O8 2.074 1_455 S
Co0 O11 2.093 . S
Co0 O24 2.097 . S
Co0 N41 2.151 . S
Co0 N49 2.214 . S
Co1 O2 2.160 1_655 S
Co1 O7 2.058 . S
Co1 O17 2.057 . S
Co1 O32 2.037 . S
Co1 N36 2.145 . S
Co1 N57 2.257 . S
O2 Co0 2.143 . S
O2 Co1 2.160 1_455 S
C3 O4 1.278 . S
C3 O11 1.224 . S
O4 C3 1.278 . S
C5 O6 1.245 . S
C5 O17 1.232 1_455 S
O6 C5 1.245 . S
O7 Co1 2.058 . S
O7 C33 1.269 . S
O8 Co0 2.074 1_655 S
O8 C33 1.257 . S
H9 C34 0.930 . S
H10 C40 0.930 . S
O11 Co0 2.093 . S
O11 C3 1.224 . S
H12 C44 0.929 . S
H13 C46 0.930 . S
H14 C47 0.930 1_655 S
H15 C45 0.929 . S
H16 C48 0.928 . S
O17 Co1 2.057 . S
O17 C5 1.232 1_655 S
H18 C37 0.929 . S
H19 C38 0.929 . S
H20 C50 0.931 1_655 S
H21 C42 0.929 . S
H22 C51 0.930 . S
H23 C43 0.931 . S
O24 Co0 2.097 . S
O24 C52 1.214 1_455 S
H25 C53 0.929 . S
H26 C54 0.929 . S
H27 C55 0.930 . S
H28 C56 0.929 . S
H29 C58 0.930 . S
H30 C35 0.930 . S
H31 C39 0.930 . S
O32 Co1 2.037 . S
O32 C52 1.234 . S
C33 O7 1.269 . S
C33 O8 1.257 . S
C34 H9 0.930 . S
C34 C37 1.388 . S
C34 C39 1.418 . S
C35 H30 0.930 . S
C35 C38 1.404 . S
C35 C39 1.353 . S
N36 Co1 2.145 . S
N36 C37 1.397 . S
N36 C38 1.334 . S
C37 H18 0.929 . S
C37 C34 1.388 . S
C37 N36 1.397 . S
C38 H19 0.929 . S
C38 C35 1.404 . S
C38 N36 1.334 . S
C39 H31 0.930 . S
C39 C34 1.418 . S
C39 C35 1.353 . S
C40 H10 0.930 . S
C40 N41 1.330 . S
C40 C42 1.446 . S
N41 Co0 2.151 . S
N41 C40 1.330 . S
N41 C45 1.418 . S
C42 H21 0.929 . S
C42 C40 1.446 . S
C42 C43 1.332 . S
C43 H23 0.931 . S
C43 C42 1.332 . S
C43 C44 1.267 . S
C44 H12 0.929 . S
C44 C43 1.267 . S
C44 C45 1.251 . S
C45 H15 0.929 . S
C45 N41 1.418 . S
C45 C44 1.251 . S
C46 H13 0.930 . S
C46 C48 1.406 . S
C46 C51 1.261 . S
C47 H14 0.930 1_455 S
C47 N49 1.325 . S
C47 C50 1.357 . S
C48 H16 0.928 . S
C48 C46 1.406 . S
C48 N49 1.261 . S
N49 Co0 2.214 . S
N49 C47 1.325 . S
N49 C48 1.261 . S
C50 H20 0.931 1_455 S
C50 C47 1.357 . S
C50 C51 1.312 . S
C51 H22 0.930 . S
C51 C46 1.261 . S
C51 C50 1.312 . S
C52 O24 1.214 1_655 S
C52 O32 1.234 . S
C53 H25 0.929 . S
C53 C56 1.391 . S
C53 C58 1.391 . S
C54 H26 0.929 . S
C54 C55 1.390 . S
C54 N57 1.391 . S
C55 H27 0.930 . S
C55 C54 1.390 . S
C55 C56 1.392 1_655 S
C56 H28 0.929 . S
C56 C53 1.391 . S
C56 C55 1.392 1_455 S
N57 Co1 2.257 . S
N57 C54 1.391 . S
N57 C58 1.388 1_655 S
C58 H29 0.930 . S
C58 C53 1.391 . S
C58 N57 1.388 1_455 S
Co59 O61 2.143 . S
Co59 O67 2.074 . S
Co59 O70 2.093 . S
Co59 O83 2.097 . S
Co59 N100 2.151 . S
Co59 N108 2.214 . S
Co60 O61 2.160 . S
Co60 O66 2.058 . S
Co60 O76 2.057 . S
Co60 O91 2.037 . S
Co60 N95 2.145 . S
Co60 N116 2.257 . S
O61 Co59 2.143 . S
O61 Co60 2.160 . S
C62 O63 1.278 . S
C62 O70 1.224 . S
O63 C62 1.278 . S
C64 O65 1.245 . S
C64 O76 1.232 . S
O65 C64 1.245 . S
O66 Co60 2.058 . S
O66 C92 1.269 . S
O67 Co59 2.074 . S
O67 C92 1.257 . S
H68 C93 0.930 . S
H69 C99 0.930 . S
O70 Co59 2.093 . S
O70 C62 1.224 . S
H71 C103 0.929 . S
H72 C105 0.930 . S
H73 C106 0.930 . S
H74 C104 0.929 . S
H75 C107 0.928 . S
O76 Co60 2.057 . S
O76 C64 1.232 . S
H77 C96 0.929 . S
H78 C97 0.929 . S
H79 C109 0.931 . S
H80 C101 0.929 . S
H81 C110 0.930 . S
H82 C102 0.931 . S
O83 Co59 2.097 . S
O83 C111 1.214 . S
H84 C112 0.929 . S
H85 C113 0.929 . S
H86 C114 0.930 . S
H87 C115 0.929 . S
H88 C117 0.930 . S
H89 C94 0.930 . S
H90 C98 0.930 . S
O91 Co60 2.037 . S
O91 C111 1.234 . S
C92 O66 1.269 . S
C92 O67 1.257 . S
C93 H68 0.930 . S
C93 C96 1.388 . S
C93 C98 1.418 . S
C94 H89 0.930 . S
C94 C97 1.404 . S
C94 C98 1.353 . S
N95 Co60 2.145 . S
N95 C96 1.397 . S
N95 C97 1.334 . S
C96 H77 0.929 . S
C96 C93 1.388 . S
C96 N95 1.397 . S
C97 H78 0.929 . S
C97 C94 1.404 . S
C97 N95 1.334 . S
C98 H90 0.930 . S
C98 C93 1.418 . S
C98 C94 1.353 . S
C99 H69 0.930 . S
C99 N100 1.330 . S
C99 C101 1.446 . S
N100 Co59 2.151 . S
N100 C99 1.330 . S
N100 C104 1.418 . S
C101 H80 0.929 . S
C101 C99 1.446 . S
C101 C102 1.332 . S
C102 H82 0.931 . S
C102 C101 1.332 . S
C102 C103 1.267 . S
C103 H71 0.929 . S
C103 C102 1.267 . S
C103 C104 1.251 . S
C104 H74 0.929 . S
C104 N100 1.418 . S
C104 C103 1.251 . S
C105 H72 0.930 . S
C105 C107 1.406 . S
C105 C110 1.261 . S
C106 H73 0.930 . S
C106 N108 1.325 . S
C106 C109 1.357 . S
C107 H75 0.928 . S
C107 C105 1.406 . S
C107 N108 1.261 . S
N108 Co59 2.214 . S
N108 C106 1.325 . S
N108 C107 1.261 . S
C109 H79 0.931 . S
C109 C106 1.357 . S
C109 C110 1.312 . S
C110 H81 0.930 . S
C110 C105 1.261 . S
C110 C109 1.312 . S
C111 O83 1.214 . S
C111 O91 1.234 . S
C112 H84 0.929 . S
C112 C115 1.391 . S
C112 C117 1.391 . S
C113 H85 0.929 . S
C113 C114 1.390 . S
C113 N116 1.391 . S
C114 H86 0.930 . S
C114 C113 1.390 . S
C114 C115 1.392 . S
C115 H87 0.929 . S
C115 C112 1.391 . S
C115 C114 1.392 . S
N116 Co60 2.257 . S
N116 C113 1.391 . S
N116 C117 1.388 . S
C117 H88 0.930 . S
C117 C112 1.391 . S
C117 N116 1.388 . S
Co118 O120 2.143 . S
Co118 O126 2.074 . S
Co118 O129 2.093 . S
Co118 O142 2.097 . S
Co118 N159 2.151 . S
Co118 N167 2.214 . S
Co119 O120 2.160 . S
Co119 O125 2.058 . S
Co119 O135 2.057 . S
Co119 O150 2.037 . S
Co119 N154 2.145 . S
Co119 N175 2.257 . S
O120 Co118 2.143 . S
O120 Co119 2.160 . S
C121 O122 1.278 . S
C121 O129 1.224 . S
O122 C121 1.278 . S
C123 O124 1.245 . S
C123 O135 1.232 . S
O124 C123 1.245 . S
O125 Co119 2.058 . S
O125 C151 1.269 . S
O126 Co118 2.074 . S
O126 C151 1.257 . S
H127 C152 0.930 . S
H128 C158 0.930 . S
O129 Co118 2.093 . S
O129 C121 1.224 . S
H130 C162 0.929 . S
H131 C164 0.930 . S
H132 C165 0.930 . S
H133 C163 0.929 . S
H134 C166 0.928 . S
O135 Co119 2.057 . S
O135 C123 1.232 . S
H136 C155 0.929 . S
H137 C156 0.929 . S
H138 C168 0.931 . S
H139 C160 0.929 . S
H140 C169 0.930 . S
H141 C161 0.931 . S
O142 Co118 2.097 . S
O142 C170 1.214 . S
H143 C171 0.929 . S
H144 C172 0.929 . S
H145 C173 0.930 . S
H146 C174 0.929 . S
H147 C176 0.930 . S
H148 C153 0.930 . S
H149 C157 0.930 . S
O150 Co119 2.037 . S
O150 C170 1.234 . S
C151 O125 1.269 . S
C151 O126 1.257 . S
C152 H127 0.930 . S
C152 C155 1.388 . S
C152 C157 1.418 . S
C153 H148 0.930 . S
C153 C156 1.404 . S
C153 C157 1.353 . S
N154 Co119 2.145 . S
N154 C155 1.397 . S
N154 C156 1.334 . S
C155 H136 0.929 . S
C155 C152 1.388 . S
C155 N154 1.397 . S
C156 H137 0.929 . S
C156 C153 1.404 . S
C156 N154 1.334 . S
C157 H149 0.930 . S
C157 C152 1.418 . S
C157 C153 1.353 . S
C158 H128 0.930 . S
C158 N159 1.330 . S
C158 C160 1.446 . S
N159 Co118 2.151 . S
N159 C158 1.330 . S
N159 C163 1.418 . S
C160 H139 0.929 . S
C160 C158 1.446 . S
C160 C161 1.332 . S
C161 H141 0.931 . S
C161 C160 1.332 . S
C161 C162 1.267 . S
C162 H130 0.929 . S
C162 C161 1.267 . S
C162 C163 1.251 . S
C163 H133 0.929 . S
C163 N159 1.418 . S
C163 C162 1.251 . S
C164 H131 0.930 . S
C164 C166 1.406 . S
C164 C169 1.261 . S
C165 H132 0.930 . S
C165 N167 1.325 . S
C165 C168 1.357 . S
C166 H134 0.928 . S
C166 C164 1.406 . S
C166 N167 1.261 . S
N167 Co118 2.214 . S
N167 C165 1.325 . S
N167 C166 1.261 . S
C168 H138 0.931 . S
C168 C165 1.357 . S
C168 C169 1.312 . S
C169 H140 0.930 . S
C169 C164 1.261 . S
C169 C168 1.312 . S
C170 O142 1.214 . S
C170 O150 1.234 . S
C171 H143 0.929 . S
C171 C174 1.391 . S
C171 C176 1.391 . S
C172 H144 0.929 . S
C172 C173 1.390 . S
C172 N175 1.391 . S
C173 H145 0.930 . S
C173 C172 1.390 . S
C173 C174 1.392 . S
C174 H146 0.929 . S
C174 C171 1.391 . S
C174 C173 1.392 . S
N175 Co119 2.257 . S
N175 C172 1.391 . S
N175 C176 1.388 . S
C176 H147 0.930 . S
C176 C171 1.391 . S
C176 N175 1.388 . S
Co177 O179 2.143 . S
Co177 O185 2.074 1_565 S
Co177 O188 2.093 . S
Co177 O201 2.097 . S
Co177 N218 2.151 . S
Co177 N226 2.214 . S
Co178 O179 2.160 1_545 S
Co178 O184 2.058 . S
Co178 O194 2.057 . S
Co178 O209 2.037 . S
Co178 N213 2.145 . S
Co178 N234 2.257 . S
O179 Co177 2.143 . S
O179 Co178 2.160 1_565 S
C180 O181 1.278 . S
C180 O188 1.224 . S
O181 C180 1.278 . S
C182 O183 1.245 . S
C182 O194 1.232 1_565 S
O183 C182 1.245 . S
O184 Co178 2.058 . S
O184 C210 1.269 . S
O185 Co177 2.074 1_545 S
O185 C210 1.257 . S
H186 C211 0.930 . S
H187 C217 0.930 . S
O188 Co177 2.093 . S
O188 C180 1.224 . S
H189 C221 0.929 . S
H190 C223 0.930 . S
H191 C224 0.930 1_545 S
H192 C222 0.929 . S
H193 C225 0.928 . S
O194 Co178 2.057 . S
O194 C182 1.232 1_545 S
H195 C214 0.929 . S
H196 C215 0.929 . S
H197 C227 0.931 1_545 S
H198 C219 0.929 . S
H199 C228 0.930 . S
H200 C220 0.931 . S
O201 Co177 2.097 . S
O201 C229 1.214 1_565 S
H202 C230 0.929 . S
H203 C231 0.929 . S
H204 C232 0.930 . S
H205 C233 0.929 . S
H206 C235 0.930 . S
H207 C212 0.930 . S
H208 C216 0.930 . S
O209 Co178 2.037 . S
O209 C229 1.234 . S
C210 O184 1.269 . S
C210 O185 1.257 . S
C211 H186 0.930 . S
C211 C214 1.388 . S
C211 C216 1.418 . S
C212 H207 0.930 . S
C212 C215 1.404 . S
C212 C216 1.353 . S
N213 Co178 2.145 . S
N213 C214 1.397 . S
N213 C215 1.334 . S
C214 H195 0.929 . S
C214 C211 1.388 . S
C214 N213 1.397 . S
C215 H196 0.929 . S
C215 C212 1.404 . S
C215 N213 1.334 . S
C216 H208 0.930 . S
C216 C211 1.418 . S
C216 C212 1.353 . S
C217 H187 0.930 . S
C217 N218 1.330 . S
C217 C219 1.446 . S
N218 Co177 2.151 . S
N218 C217 1.330 . S
N218 C222 1.418 . S
C219 H198 0.929 . S
C219 C217 1.446 . S
C219 C220 1.332 . S
C220 H200 0.931 . S
C220 C219 1.332 . S
C220 C221 1.267 . S
C221 H189 0.929 . S
C221 C220 1.267 . S
C221 C222 1.251 . S
C222 H192 0.929 . S
C222 N218 1.418 . S
C222 C221 1.251 . S
C223 H190 0.930 . S
C223 C225 1.406 . S
C223 C228 1.261 . S
C224 H191 0.930 1_565 S
C224 N226 1.325 . S
C224 C227 1.357 . S
C225 H193 0.928 . S
C225 C223 1.406 . S
C225 N226 1.261 . S
N226 Co177 2.214 . S
N226 C224 1.325 . S
N226 C225 1.261 . S
C227 H197 0.931 1_565 S
C227 C224 1.357 . S
C227 C228 1.312 . S
C228 H199 0.930 . S
C228 C223 1.261 . S
C228 C227 1.312 . S
C229 O201 1.214 1_545 S
C229 O209 1.234 . S
C230 H202 0.929 . S
C230 C233 1.391 . S
C230 C235 1.391 . S
C231 H203 0.929 . S
C231 C232 1.390 . S
C231 N234 1.391 . S
C232 H204 0.930 . S
C232 C231 1.390 . S
C232 C233 1.392 1_545 S
C233 H205 0.929 . S
C233 C230 1.391 . S
C233 C232 1.392 1_565 S
N234 Co178 2.257 . S
N234 C231 1.391 . S
N234 C235 1.388 1_545 S
C235 H206 0.930 . S
C235 C230 1.391 . S
C235 N234 1.388 1_565 S
Co236 O238 2.143 . S
Co236 O244 2.074 1_655 S
Co236 O247 2.093 . S
Co236 O260 2.097 . S
Co236 N277 2.151 . S
Co236 N285 2.214 . S
Co237 O238 2.160 1_455 S
Co237 O243 2.058 . S
Co237 O253 2.057 . S
Co237 O268 2.037 . S
Co237 N272 2.145 . S
Co237 N293 2.257 . S
O238 Co236 2.143 . S
O238 Co237 2.160 1_655 S
C239 O240 1.278 . S
C239 O247 1.224 . S
O240 C239 1.278 . S
C241 O242 1.245 . S
C241 O253 1.232 1_655 S
O242 C241 1.245 . S
O243 Co237 2.058 . S
O243 C269 1.269 . S
O244 Co236 2.074 1_455 S
O244 C269 1.257 . S
H245 C270 0.930 . S
H246 C276 0.930 . S
O247 Co236 2.093 . S
O247 C239 1.224 . S
H248 C280 0.929 . S
H249 C282 0.930 . S
H250 C283 0.930 1_455 S
H251 C281 0.929 . S
H252 C284 0.928 . S
O253 Co237 2.057 . S
O253 C241 1.232 1_455 S
H254 C273 0.929 . S
H255 C274 0.929 . S
H256 C286 0.931 1_455 S
H257 C278 0.929 . S
H258 C287 0.930 . S
H259 C279 0.931 . S
O260 Co236 2.097 . S
O260 C288 1.214 1_655 S
H261 C289 0.929 . S
H262 C290 0.929 . S
H263 C291 0.930 . S
H264 C292 0.929 . S
H265 C294 0.930 . S
H266 C271 0.930 . S
H267 C275 0.930 . S
O268 Co237 2.037 . S
O268 C288 1.234 . S
C269 O243 1.269 . S
C269 O244 1.257 . S
C270 H245 0.930 . S
C270 C273 1.388 . S
C270 C275 1.418 . S
C271 H266 0.930 . S
C271 C274 1.404 . S
C271 C275 1.353 . S
N272 Co237 2.145 . S
N272 C273 1.397 . S
N272 C274 1.334 . S
C273 H254 0.929 . S
C273 C270 1.388 . S
C273 N272 1.397 . S
C274 H255 0.929 . S
C274 C271 1.404 . S
C274 N272 1.334 . S
C275 H267 0.930 . S
C275 C270 1.418 . S
C275 C271 1.353 . S
C276 H246 0.930 . S
C276 N277 1.330 . S
C276 C278 1.446 . S
N277 Co236 2.151 . S
N277 C276 1.330 . S
N277 C281 1.418 . S
C278 H257 0.929 . S
C278 C276 1.446 . S
C278 C279 1.332 . S
C279 H259 0.931 . S
C279 C278 1.332 . S
C279 C280 1.267 . S
C280 H248 0.929 . S
C280 C279 1.267 . S
C280 C281 1.251 . S
C281 H251 0.929 . S
C281 N277 1.418 . S
C281 C280 1.251 . S
C282 H249 0.930 . S
C282 C284 1.406 . S
C282 C287 1.261 . S
C283 H250 0.930 1_655 S
C283 N285 1.325 . S
C283 C286 1.357 . S
C284 H252 0.928 . S
C284 C282 1.406 . S
C284 N285 1.261 . S
N285 Co236 2.214 . S
N285 C283 1.325 . S
N285 C284 1.261 . S
C286 H256 0.931 1_655 S
C286 C283 1.357 . S
C286 C287 1.312 . S
C287 H258 0.930 . S
C287 C282 1.261 . S
C287 C286 1.312 . S
C288 O260 1.214 1_455 S
C288 O268 1.234 . S
C289 H261 0.929 . S
C289 C292 1.391 . S
C289 C294 1.391 . S
C290 H262 0.929 . S
C290 C291 1.390 . S
C290 N293 1.391 . S
C291 H263 0.930 . S
C291 C290 1.390 . S
C291 C292 1.392 1_455 S
C292 H264 0.929 . S
C292 C289 1.391 . S
C292 C291 1.392 1_655 S
N293 Co237 2.257 . S
N293 C290 1.391 . S
N293 C294 1.388 1_455 S
C294 H265 0.930 . S
C294 C289 1.391 . S
C294 N293 1.388 1_655 S
Co295 O297 2.143 . S
Co295 O303 2.074 . S
Co295 O306 2.093 . S
Co295 O319 2.097 . S
Co295 N336 2.151 . S
Co295 N344 2.214 . S
Co296 O297 2.160 . S
Co296 O302 2.058 . S
Co296 O312 2.057 . S
Co296 O327 2.037 . S
Co296 N331 2.145 . S
Co296 N352 2.257 . S
O297 Co295 2.143 . S
O297 Co296 2.160 . S
C298 O299 1.278 . S
C298 O306 1.224 . S
O299 C298 1.278 . S
C300 O301 1.245 . S
C300 O312 1.232 . S
O301 C300 1.245 . S
O302 Co296 2.058 . S
O302 C328 1.269 . S
O303 Co295 2.074 . S
O303 C328 1.257 . S
H304 C329 0.930 . S
H305 C335 0.930 . S
O306 Co295 2.093 . S
O306 C298 1.224 . S
H307 C339 0.929 . S
H308 C341 0.930 . S
H309 C342 0.930 . S
H310 C340 0.929 . S
H311 C343 0.928 . S
O312 Co296 2.057 . S
O312 C300 1.232 . S
H313 C332 0.929 . S
H314 C333 0.929 . S
H315 C345 0.931 . S
H316 C337 0.929 . S
H317 C346 0.930 . S
H318 C338 0.931 . S
O319 Co295 2.097 . S
O319 C347 1.214 . S
H320 C348 0.929 . S
H321 C349 0.929 . S
H322 C350 0.930 . S
H323 C351 0.929 . S
H324 C353 0.930 . S
H325 C330 0.930 . S
H326 C334 0.930 . S
O327 Co296 2.037 . S
O327 C347 1.234 . S
C328 O302 1.269 . S
C328 O303 1.257 . S
C329 H304 0.930 . S
C329 C332 1.388 . S
C329 C334 1.418 . S
C330 H325 0.930 . S
C330 C333 1.404 . S
C330 C334 1.353 . S
N331 Co296 2.145 . S
N331 C332 1.397 . S
N331 C333 1.334 . S
C332 H313 0.929 . S
C332 C329 1.388 . S
C332 N331 1.397 . S
C333 H314 0.929 . S
C333 C330 1.404 . S
C333 N331 1.334 . S
C334 H326 0.930 . S
C334 C329 1.418 . S
C334 C330 1.353 . S
C335 H305 0.930 . S
C335 N336 1.330 . S
C335 C337 1.446 . S
N336 Co295 2.151 . S
N336 C335 1.330 . S
N336 C340 1.418 . S
C337 H316 0.929 . S
C337 C335 1.446 . S
C337 C338 1.332 . S
C338 H318 0.931 . S
C338 C337 1.332 . S
C338 C339 1.267 . S
C339 H307 0.929 . S
C339 C338 1.267 . S
C339 C340 1.251 . S
C340 H310 0.929 . S
C340 N336 1.418 . S
C340 C339 1.251 . S
C341 H308 0.930 . S
C341 C343 1.406 . S
C341 C346 1.261 . S
C342 H309 0.930 . S
C342 N344 1.325 . S
C342 C345 1.357 . S
C343 H311 0.928 . S
C343 C341 1.406 . S
C343 N344 1.261 . S
N344 Co295 2.214 . S
N344 C342 1.325 . S
N344 C343 1.261 . S
C345 H315 0.931 . S
C345 C342 1.357 . S
C345 C346 1.312 . S
C346 H317 0.930 . S
C346 C341 1.261 . S
C346 C345 1.312 . S
C347 O319 1.214 . S
C347 O327 1.234 . S
C348 H320 0.929 . S
C348 C351 1.391 . S
C348 C353 1.391 . S
C349 H321 0.929 . S
C349 C350 1.390 . S
C349 N352 1.391 . S
C350 H322 0.930 . S
C350 C349 1.390 . S
C350 C351 1.392 . S
C351 H323 0.929 . S
C351 C348 1.391 . S
C351 C350 1.392 . S
N352 Co296 2.257 . S
N352 C349 1.391 . S
N352 C353 1.388 . S
C353 H324 0.930 . S
C353 C348 1.391 . S
C353 N352 1.388 . S
Co354 O356 2.143 . S
Co354 O362 2.074 . S
Co354 O365 2.093 . S
Co354 O378 2.097 . S
Co354 N395 2.151 . S
Co354 N403 2.214 . S
Co355 O356 2.160 . S
Co355 O361 2.058 . S
Co355 O371 2.057 . S
Co355 O386 2.037 . S
Co355 N390 2.145 . S
Co355 N411 2.257 . S
O356 Co354 2.143 . S
O356 Co355 2.160 . S
C357 O358 1.278 . S
C357 O365 1.224 . S
O358 C357 1.278 . S
C359 O360 1.245 . S
C359 O371 1.232 . S
O360 C359 1.245 . S
O361 Co355 2.058 . S
O361 C387 1.269 . S
O362 Co354 2.074 . S
O362 C387 1.257 . S
H363 C388 0.930 . S
H364 C394 0.930 . S
O365 Co354 2.093 . S
O365 C357 1.224 . S
H366 C398 0.929 . S
H367 C400 0.930 . S
H368 C401 0.930 . S
H369 C399 0.929 . S
H370 C402 0.928 . S
O371 Co355 2.057 . S
O371 C359 1.232 . S
H372 C391 0.929 . S
H373 C392 0.929 . S
H374 C404 0.931 . S
H375 C396 0.929 . S
H376 C405 0.930 . S
H377 C397 0.931 . S
O378 Co354 2.097 . S
O378 C406 1.214 . S
H379 C407 0.929 . S
H380 C408 0.929 . S
H381 C409 0.930 . S
H382 C410 0.929 . S
H383 C412 0.930 . S
H384 C389 0.930 . S
H385 C393 0.930 . S
O386 Co355 2.037 . S
O386 C406 1.234 . S
C387 O361 1.269 . S
C387 O362 1.257 . S
C388 H363 0.930 . S
C388 C391 1.388 . S
C388 C393 1.418 . S
C389 H384 0.930 . S
C389 C392 1.404 . S
C389 C393 1.353 . S
N390 Co355 2.145 . S
N390 C391 1.397 . S
N390 C392 1.334 . S
C391 H372 0.929 . S
C391 C388 1.388 . S
C391 N390 1.397 . S
C392 H373 0.929 . S
C392 C389 1.404 . S
C392 N390 1.334 . S
C393 H385 0.930 . S
C393 C388 1.418 . S
C393 C389 1.353 . S
C394 H364 0.930 . S
C394 N395 1.330 . S
C394 C396 1.446 . S
N395 Co354 2.151 . S
N395 C394 1.330 . S
N395 C399 1.418 . S
C396 H375 0.929 . S
C396 C394 1.446 . S
C396 C397 1.332 . S
C397 H377 0.931 . S
C397 C396 1.332 . S
C397 C398 1.267 . S
C398 H366 0.929 . S
C398 C397 1.267 . S
C398 C399 1.251 . S
C399 H369 0.929 . S
C399 N395 1.418 . S
C399 C398 1.251 . S
C400 H367 0.930 . S
C400 C402 1.406 . S
C400 C405 1.261 . S
C401 H368 0.930 . S
C401 N403 1.325 . S
C401 C404 1.357 . S
C402 H370 0.928 . S
C402 C400 1.406 . S
C402 N403 1.261 . S
N403 Co354 2.214 . S
N403 C401 1.325 . S
N403 C402 1.261 . S
C404 H374 0.931 . S
C404 C401 1.357 . S
C404 C405 1.312 . S
C405 H376 0.930 . S
C405 C400 1.261 . S
C405 C404 1.312 . S
C406 O378 1.214 . S
C406 O386 1.234 . S
C407 H379 0.929 . S
C407 C410 1.391 . S
C407 C412 1.391 . S
C408 H380 0.929 . S
C408 C409 1.390 . S
C408 N411 1.391 . S
C409 H381 0.930 . S
C409 C408 1.390 . S
C409 C410 1.392 . S
C410 H382 0.929 . S
C410 C407 1.391 . S
C410 C409 1.392 . S
N411 Co355 2.257 . S
N411 C408 1.391 . S
N411 C412 1.388 . S
C412 H383 0.930 . S
C412 C407 1.391 . S
C412 N411 1.388 . S
Co413 O415 2.143 . S
Co413 O421 2.074 1_545 S
Co413 O424 2.093 . S
Co413 O437 2.097 . S
Co413 N454 2.151 . S
Co413 N462 2.214 . S
Co414 O415 2.160 1_565 S
Co414 O420 2.058 . S
Co414 O430 2.057 . S
Co414 O445 2.037 . S
Co414 N449 2.145 . S
Co414 N470 2.257 . S
O415 Co413 2.143 . S
O415 Co414 2.160 1_545 S
C416 O417 1.278 . S
C416 O424 1.224 . S
O417 C416 1.278 . S
C418 O419 1.245 . S
C418 O430 1.232 1_545 S
O419 C418 1.245 . S
O420 Co414 2.058 . S
O420 C446 1.269 . S
O421 Co413 2.074 1_565 S
O421 C446 1.257 . S
H422 C447 0.930 . S
H423 C453 0.930 . S
O424 Co413 2.093 . S
O424 C416 1.224 . S
H425 C457 0.929 . S
H426 C459 0.930 . S
H427 C460 0.930 1_565 S
H428 C458 0.929 . S
H429 C461 0.928 . S
O430 Co414 2.057 . S
O430 C418 1.232 1_565 S
H431 C450 0.929 . S
H432 C451 0.929 . S
H433 C463 0.931 1_565 S
H434 C455 0.929 . S
H435 C464 0.930 . S
H436 C456 0.931 . S
O437 Co413 2.097 . S
O437 C465 1.214 1_545 S
H438 C466 0.929 . S
H439 C467 0.929 . S
H440 C468 0.930 . S
H441 C469 0.929 . S
H442 C471 0.930 . S
H443 C448 0.930 . S
H444 C452 0.930 . S
O445 Co414 2.037 . S
O445 C465 1.234 . S
C446 O420 1.269 . S
C446 O421 1.257 . S
C447 H422 0.930 . S
C447 C450 1.388 . S
C447 C452 1.418 . S
C448 H443 0.930 . S
C448 C451 1.404 . S
C448 C452 1.353 . S
N449 Co414 2.145 . S
N449 C450 1.397 . S
N449 C451 1.334 . S
C450 H431 0.929 . S
C450 C447 1.388 . S
C450 N449 1.397 . S
C451 H432 0.929 . S
C451 C448 1.404 . S
C451 N449 1.334 . S
C452 H444 0.930 . S
C452 C447 1.418 . S
C452 C448 1.353 . S
C453 H423 0.930 . S
C453 N454 1.330 . S
C453 C455 1.446 . S
N454 Co413 2.151 . S
N454 C453 1.330 . S
N454 C458 1.418 . S
C455 H434 0.929 . S
C455 C453 1.446 . S
C455 C456 1.332 . S
C456 H436 0.931 . S
C456 C455 1.332 . S
C456 C457 1.267 . S
C457 H425 0.929 . S
C457 C456 1.267 . S
C457 C458 1.251 . S
C458 H428 0.929 . S
C458 N454 1.418 . S
C458 C457 1.251 . S
C459 H426 0.930 . S
C459 C461 1.406 . S
C459 C464 1.261 . S
C460 H427 0.930 1_545 S
C460 N462 1.325 . S
C460 C463 1.357 . S
C461 H429 0.928 . S
C461 C459 1.406 . S
C461 N462 1.261 . S
N462 Co413 2.214 . S
N462 C460 1.325 . S
N462 C461 1.261 . S
C463 H433 0.931 1_545 S
C463 C460 1.357 . S
C463 C464 1.312 . S
C464 H435 0.930 . S
C464 C459 1.261 . S
C464 C463 1.312 . S
C465 O437 1.214 1_565 S
C465 O445 1.234 . S
C466 H438 0.929 . S
C466 C469 1.391 . S
C466 C471 1.391 . S
C467 H439 0.929 . S
C467 C468 1.390 . S
C467 N470 1.391 . S
C468 H440 0.930 . S
C468 C467 1.390 . S
C468 C469 1.392 1_565 S
C469 H441 0.929 . S
C469 C466 1.391 . S
C469 C468 1.392 1_545 S
N470 Co414 2.257 . S
N470 C467 1.391 . S
N470 C471 1.388 1_565 S
C471 H442 0.930 . S
C471 C466 1.391 . S
C471 N470 1.388 1_545 S
C472 C473 1.391 1_455 S
C472 C474 1.394 . S
C472 H488 0.931 . S
C473 C472 1.391 1_655 S
C473 C477 1.376 . S
C474 C472 1.394 . S
C474 C475 1.369 1_455 S
C474 C478 1.531 . S
C475 C474 1.369 1_655 S
C475 C476 1.410 . S
C475 C483 1.503 1_656 S
C476 C475 1.410 . S
C476 C477 1.392 . S
C476 C479 1.511 . S
C477 C473 1.376 . S
C477 C476 1.392 . S
C477 H489 0.929 . S
C478 C474 1.531 . S
C478 H490 0.960 . S
C478 H491 0.962 . S
C478 H492 0.960 . S
C479 C476 1.511 . S
C479 H493 0.961 . S
C479 H494 0.961 1_556 S
C479 H495 0.961 . S
C480 C481 1.370 . S
C480 C482 1.363 . S
C480 H496 0.931 . S
C481 C480 1.370 . S
C481 C485 1.408 1_455 S
C482 C480 1.363 . S
C482 C483 1.371 . S
C482 C486 1.524 . S
C483 C475 1.503 1_454 S
C483 C482 1.371 . S
C483 C484 1.402 1_455 S
C484 C483 1.402 1_655 S
C484 C485 1.404 . S
C484 C487 1.539 1_554 S
C485 C481 1.408 1_655 S
C485 C484 1.404 . S
C485 H497 0.930 . S
C486 C482 1.524 . S
C486 H498 0.956 . S
C486 H499 0.961 1_455 S
C486 H500 0.961 . S
C487 C484 1.539 1_556 S
C487 H501 0.958 1_655 S
C487 H502 0.961 . S
C487 H503 0.960 . S
H488 C472 0.931 . S
H489 C477 0.929 . S
H490 C478 0.960 . S
H491 C478 0.962 . S
H492 C478 0.960 . S
H493 C479 0.961 . S
H494 C479 0.961 1_554 S
H495 C479 0.961 . S
H496 C480 0.931 . S
H497 C485 0.930 . S
H498 C486 0.956 . S
H499 C486 0.961 1_655 S
H500 C486 0.961 . S
H501 C487 0.958 1_455 S
H502 C487 0.961 . S
H503 C487 0.960 . S
C504 C505 1.391 . S
C504 C506 1.394 . S
C504 H520 0.931 . S
C505 C504 1.391 . S
C505 C509 1.376 . S
C506 C504 1.394 . S
C506 C507 1.369 . S
C506 C510 1.531 . S
C507 C506 1.369 . S
C507 C508 1.410 . S
C507 C515 1.503 . S
C508 C507 1.410 . S
C508 C509 1.392 . S
C508 C511 1.511 . S
C509 C505 1.376 . S
C509 C508 1.392 . S
C509 H521 0.929 . S
C510 C506 1.531 . S
C510 H522 0.960 . S
C510 H523 0.962 . S
C510 H524 0.960 . S
C511 C508 1.511 . S
C511 H525 0.961 . S
C511 H526 0.961 . S
C511 H527 0.961 . S
C512 C513 1.370 . S
C512 C514 1.363 . S
C512 H528 0.931 . S
C513 C512 1.370 . S
C513 C517 1.408 . S
C514 C512 1.363 . S
C514 C515 1.370 . S
C514 C518 1.524 . S
C515 C507 1.503 . S
C515 C514 1.370 . S
C515 C516 1.403 . S
C516 C515 1.403 . S
C516 C517 1.404 . S
C516 C519 1.539 . S
C517 C513 1.408 . S
C517 C516 1.404 . S
C517 H529 0.930 . S
C518 C514 1.524 . S
C518 H530 0.956 . S
C518 H531 0.961 . S
C518 H532 0.961 . S
C519 C516 1.539 . S
C519 H533 0.958 . S
C519 H534 0.961 . S
C519 H535 0.960 . S
H520 C504 0.931 . S
H521 C509 0.929 . S
H522 C510 0.960 . S
H523 C510 0.962 . S
H524 C510 0.960 . S
H525 C511 0.961 . S
H526 C511 0.961 . S
H527 C511 0.961 . S
H528 C512 0.931 . S
H529 C517 0.930 . S
H530 C518 0.956 . S
H531 C518 0.961 . S
H532 C518 0.961 . S
H533 C519 0.958 . S
H534 C519 0.961 . S
H535 C519 0.960 . S
C536 C537 1.391 . S
C536 C538 1.394 . S
C536 H552 0.931 . S
C537 C536 1.391 . S
C537 C541 1.376 . S
C538 C536 1.394 . S
C538 C539 1.369 . S
C538 C542 1.531 1_565 S
C539 C538 1.369 . S
C539 C540 1.410 . S
C539 C547 1.503 1_564 S
C540 C539 1.410 . S
C540 C541 1.392 . S
C540 C543 1.511 1_554 S
C541 C537 1.376 . S
C541 C540 1.392 . S
C541 H553 0.929 . S
C542 C538 1.531 1_545 S
C542 H554 0.960 . S
C542 H555 0.962 . S
C542 H556 0.960 . S
C543 C540 1.511 1_556 S
C543 H557 0.961 . S
C543 H558 0.961 . S
C543 H559 0.961 . S
C544 C545 1.370 . S
C544 C546 1.363 . S
C544 H560 0.931 . S
C545 C544 1.370 . S
C545 C549 1.408 . S
C546 C544 1.363 . S
C546 C547 1.370 . S
C546 C550 1.524 . S
C547 C539 1.503 1_546 S
C547 C546 1.370 . S
C547 C548 1.403 . S
C548 C547 1.403 . S
C548 C549 1.404 . S
C548 C551 1.539 . S
C549 C545 1.408 . S
C549 C548 1.404 . S
C549 H561 0.930 . S
C550 C546 1.524 . S
C550 H562 0.963 . S
C550 H563 0.961 1_545 S
C550 H564 0.961 . S
C551 C548 1.539 . S
C551 H565 0.958 1_556 S
C551 H566 0.961 . S
C551 H567 0.960 1_556 S
H552 C536 0.931 . S
H553 C541 0.929 . S
H554 C542 0.960 . S
H555 C542 0.962 . S
H556 C542 0.960 . S
H557 C543 0.961 . S
H558 C543 0.961 . S
H559 C543 0.961 . S
H560 C544 0.931 . S
H561 C549 0.930 . S
H562 C550 0.963 . S
H563 C550 0.961 1_565 S
H564 C550 0.961 . S
H565 C551 0.958 1_554 S
H566 C551 0.961 . S
H567 C551 0.960 1_554 S
C568 C569 1.391 . S
C568 C570 1.397 . S
C568 H584 0.931 . S
C569 C568 1.391 . S
C569 C573 1.376 1_545 S
C570 C568 1.397 . S
C570 C571 1.364 1_545 S
C570 C574 1.533 . S
C571 C570 1.364 1_565 S
C571 C572 1.410 . S
C571 C579 1.503 1_655 S
C572 C571 1.410 . S
C572 C573 1.392 . S
C572 C575 1.511 1_655 S
C573 C569 1.376 1_565 S
C573 C572 1.392 . S
C573 H585 0.929 . S
C574 C570 1.533 . S
C574 H586 0.960 1_545 S
C574 H587 0.962 . S
C574 H588 0.960 1_545 S
C575 C572 1.511 1_455 S
C575 H589 0.961 . S
C575 H590 0.961 . S
C575 H591 0.961 . S
C576 C577 1.370 1_545 S
C576 C578 1.363 . S
C576 H592 0.931 . S
C577 C576 1.370 1_565 S
C577 C581 1.408 . S
C578 C576 1.363 . S
C578 C579 1.370 1_545 S
C578 C582 1.524 . S
C579 C571 1.503 1_455 S
C579 C578 1.370 1_565 S
C579 C580 1.403 . S
C580 C579 1.403 . S
C580 C581 1.404 . S
C580 C583 1.539 . S
C581 C577 1.408 . S
C581 C580 1.404 . S
C581 H593 0.930 . S
C582 C578 1.524 . S
C582 H594 0.956 1_455 S
C582 H595 0.961 . S
C582 H596 0.961 . S
C583 C580 1.539 . S
C583 H597 0.958 1_455 S
C583 H598 0.961 . S
C583 H599 0.960 1_455 S
H584 C568 0.931 . S
H585 C573 0.929 . S
H586 C574 0.960 1_565 S
H587 C574 0.962 . S
H588 C574 0.960 1_565 S
H589 C575 0.961 . S
H590 C575 0.961 . S
H591 C575 0.961 . S
H592 C576 0.931 . S
H593 C581 0.930 . S
H594 C582 0.956 1_655 S
H595 C582 0.961 . S
H596 C582 0.961 . S
H597 C583 0.958 1_655 S
H598 C583 0.961 . S
H599 C583 0.960 1_655 S
C600 C601 1.391 . S
C600 C602 1.394 . S
C600 H616 0.931 . S
C601 C600 1.391 . S
C601 C605 1.376 . S
C602 C600 1.394 . S
C602 C603 1.369 . S
C602 C606 1.531 . S
C603 C602 1.369 . S
C603 C604 1.410 . S
C603 C611 1.503 . S
C604 C603 1.410 . S
C604 C605 1.392 . S
C604 C607 1.511 . S
C605 C601 1.376 . S
C605 C604 1.392 . S
C605 H617 0.929 . S
C606 C602 1.531 . S
C606 H618 0.960 . S
C606 H619 0.962 . S
C606 H620 0.960 . S
C607 C604 1.511 . S
C607 H621 0.961 . S
C607 H622 0.961 . S
C607 H623 0.961 . S
C608 C609 1.370 . S
C608 C610 1.363 . S
C608 H624 0.931 . S
C609 C608 1.370 . S
C609 C613 1.408 . S
C610 C608 1.363 . S
C610 C611 1.370 . S
C610 C614 1.524 . S
C611 C603 1.503 . S
C611 C610 1.370 . S
C611 C612 1.403 . S
C612 C611 1.403 . S
C612 C613 1.404 . S
C612 C615 1.539 . S
C613 C609 1.408 . S
C613 C612 1.404 . S
C613 H625 0.930 . S
C614 C610 1.524 . S
C614 H626 0.956 . S
C614 H627 0.961 . S
C614 H628 0.961 . S
C615 C612 1.539 . S
C615 H629 0.958 . S
C615 H630 0.961 . S
C615 H631 0.960 . S
H616 C600 0.931 . S
H617 C605 0.929 . S
H618 C606 0.960 . S
H619 C606 0.962 . S
H620 C606 0.960 . S
H621 C607 0.961 . S
H622 C607 0.961 . S
H623 C607 0.961 . S
H624 C608 0.931 . S
H625 C613 0.930 . S
H626 C614 0.956 . S
H627 C614 0.961 . S
H628 C614 0.961 . S
H629 C615 0.958 . S
H630 C615 0.961 . S
H631 C615 0.960 . S
C632 C633 1.391 . S
C632 C634 1.394 . S
C632 H648 0.931 . S
C633 C632 1.391 . S
C633 C637 1.376 . S
C634 C632 1.394 . S
C634 C635 1.369 . S
C634 C638 1.531 . S
C635 C634 1.369 . S
C635 C636 1.410 . S
C635 C643 1.503 . S
C636 C635 1.410 . S
C636 C637 1.392 . S
C636 C639 1.511 . S
C637 C633 1.376 . S
C637 C636 1.392 . S
C637 H649 0.929 . S
C638 C634 1.531 . S
C638 H650 0.960 . S
C638 H651 0.962 . S
C638 H652 0.960 . S
C639 C636 1.511 . S
C639 H653 0.961 . S
C639 H654 0.961 . S
C639 H655 0.961 . S
C640 C641 1.370 . S
C640 C642 1.363 . S
C640 H656 0.931 . S
C641 C640 1.370 . S
C641 C645 1.408 . S
C642 C640 1.363 . S
C642 C643 1.370 . S
C642 C646 1.524 . S
C643 C635 1.503 . S
C643 C642 1.370 . S
C643 C644 1.403 . S
C644 C643 1.403 . S
C644 C645 1.404 . S
C644 C647 1.539 . S
C645 C641 1.408 . S
C645 C644 1.404 . S
C645 H657 0.930 . S
C646 C642 1.524 . S
C646 H658 0.956 . S
C646 H659 0.961 . S
C646 H660 0.961 . S
C647 C644 1.539 . S
C647 H661 0.958 . S
C647 H662 0.961 . S
C647 H663 0.960 . S
H648 C632 0.931 . S
H649 C637 0.929 . S
H650 C638 0.960 . S
H651 C638 0.962 . S
H652 C638 0.960 . S
H653 C639 0.961 . S
H654 C639 0.961 . S
H655 C639 0.961 . S
H656 C640 0.931 . S
H657 C645 0.930 . S
H658 C646 0.956 . S
H659 C646 0.961 . S
H660 C646 0.961 . S
H661 C647 0.958 . S
H662 C647 0.961 . S
H663 C647 0.960 . S
C664 C665 1.391 . S
C664 C666 1.394 . S
C664 H680 0.931 . S
C665 C664 1.391 . S
C665 C669 1.376 . S
C666 C664 1.394 . S
C666 C667 1.369 . S
C666 C670 1.531 . S
C667 C666 1.369 . S
C667 C668 1.410 . S
C667 C675 1.503 . S
C668 C667 1.410 . S
C668 C669 1.392 . S
C668 C671 1.511 . S
C669 C665 1.376 . S
C669 C668 1.392 . S
C669 H681 0.929 . S
C670 C666 1.531 . S
C670 H682 0.960 . S
C670 H683 0.962 . S
C670 H684 0.960 . S
C671 C668 1.511 . S
C671 H685 0.961 . S
C671 H686 0.961 . S
C671 H687 0.961 . S
C672 C673 1.370 . S
C672 C674 1.363 . S
C672 H688 0.931 . S
C673 C672 1.370 . S
C673 C677 1.408 . S
C674 C672 1.363 . S
C674 C675 1.370 . S
C674 C678 1.524 . S
C675 C667 1.503 . S
C675 C674 1.370 . S
C675 C676 1.403 . S
C676 C675 1.403 . S
C676 C677 1.404 . S
C676 C679 1.539 . S
C677 C673 1.408 . S
C677 C676 1.404 . S
C677 H689 0.930 . S
C678 C674 1.524 . S
C678 H690 0.956 . S
C678 H691 0.961 . S
C678 H692 0.961 . S
C679 C676 1.539 . S
C679 H693 0.958 . S
C679 H694 0.961 . S
C679 H695 0.960 . S
H680 C664 0.931 . S
H681 C669 0.929 . S
H682 C670 0.960 . S
H683 C670 0.962 . S
H684 C670 0.960 . S
H685 C671 0.961 . S
H686 C671 0.961 . S
H687 C671 0.961 . S
H688 C672 0.931 . S
H689 C677 0.930 . S
H690 C678 0.956 . S
H691 C678 0.961 . S
H692 C678 0.961 . S
H693 C679 0.958 . S
H694 C679 0.961 . S
H695 C679 0.960 . S
C696 C697 1.391 . S
C696 C698 1.394 . S
C696 H712 0.931 . S
C697 C696 1.391 . S
C697 C701 1.376 . S
C698 C696 1.394 . S
C698 C699 1.369 . S
C698 C702 1.531 . S
C699 C698 1.369 . S
C699 C700 1.410 . S
C699 C707 1.503 . S
C700 C699 1.410 . S
C700 C701 1.392 . S
C700 C703 1.511 . S
C701 C697 1.376 . S
C701 C700 1.392 . S
C701 H713 0.929 . S
C702 C698 1.531 . S
C702 H714 0.960 . S
C702 H715 0.962 . S
C702 H716 0.960 . S
C703 C700 1.511 . S
C703 H717 0.961 . S
C703 H718 0.961 . S
C703 H719 0.961 . S
C704 C705 1.370 . S
C704 C706 1.363 . S
C704 H720 0.931 . S
C705 C704 1.370 . S
C705 C709 1.408 . S
C706 C704 1.363 . S
C706 C707 1.370 . S
C706 C710 1.524 . S
C707 C699 1.503 . S
C707 C706 1.370 . S
C707 C708 1.403 . S
C708 C707 1.403 . S
C708 C709 1.404 . S
C708 C711 1.539 . S
C709 C705 1.408 . S
C709 C708 1.404 . S
C709 H721 0.930 . S
C710 C706 1.524 . S
C710 H722 0.956 . S
C710 H723 0.961 . S
C710 H724 0.961 . S
C711 C708 1.539 . S
C711 H725 0.958 . S
C711 H726 0.961 . S
C711 H727 0.960 . S
H712 C696 0.931 . S
H713 C701 0.929 . S
H714 C702 0.960 . S
H715 C702 0.962 . S
H716 C702 0.960 . S
H717 C703 0.961 . S
H718 C703 0.961 . S
H719 C703 0.961 . S
H720 C704 0.931 . S
H721 C709 0.930 . S
H722 C710 0.956 . S
H723 C710 0.961 . S
H724 C710 0.961 . S
H725 C711 0.958 . S
H726 C711 0.961 . S
H727 C711 0.960 . S
C728 C729 1.391 . S
C728 C730 1.394 . S
C728 H744 0.931 . S
C729 C728 1.391 . S
C729 C733 1.376 . S
C730 C728 1.394 . S
C730 C731 1.369 . S
C730 C734 1.531 . S
C731 C730 1.369 . S
C731 C732 1.410 . S
C731 C739 1.503 . S
C732 C731 1.410 . S
C732 C733 1.392 . S
C732 C735 1.511 . S
C733 C729 1.376 . S
C733 C732 1.392 . S
C733 H745 0.929 . S
C734 C730 1.531 . S
C734 H746 0.960 . S
C734 H747 0.962 . S
C734 H748 0.960 . S
C735 C732 1.511 . S
C735 H749 0.961 . S
C735 H750 0.961 . S
C735 H751 0.961 . S
C736 C737 1.370 . S
C736 C738 1.363 . S
C736 H752 0.931 . S
C737 C736 1.370 . S
C737 C741 1.408 . S
C738 C736 1.363 . S
C738 C739 1.370 . S
C738 C742 1.524 . S
C739 C731 1.503 . S
C739 C738 1.370 . S
C739 C740 1.403 . S
C740 C739 1.403 . S
C740 C741 1.404 . S
C740 C743 1.539 . S
C741 C737 1.408 . S
C741 C740 1.404 . S
C741 H753 0.930 . S
C742 C738 1.524 . S
C742 H754 0.956 . S
C742 H755 0.961 . S
C742 H756 0.961 . S
C743 C740 1.539 . S
C743 H757 0.958 . S
C743 H758 0.961 . S
C743 H759 0.960 . S
H744 C728 0.931 . S
H745 C733 0.929 . S
H746 C734 0.960 . S
H747 C734 0.962 . S
H748 C734 0.960 . S
H749 C735 0.961 . S
H750 C735 0.961 . S
H751 C735 0.961 . S
H752 C736 0.931 . S
H753 C741 0.930 . S
H754 C742 0.956 . S
H755 C742 0.961 . S
H756 C742 0.961 . S
H757 C743 0.958 . S
H758 C743 0.961 . S
H759 C743 0.960 . S
C760 C761 1.391 . S
C760 C762 1.394 . S
C760 H776 0.931 . S
C761 C760 1.391 . S
C761 C765 1.376 . S
C762 C760 1.394 . S
C762 C763 1.369 . S
C762 C766 1.531 . S
C763 C762 1.369 . S
C763 C764 1.410 . S
C763 C771 1.503 . S
C764 C763 1.410 . S
C764 C765 1.392 . S
C764 C767 1.511 . S
C765 C761 1.376 . S
C765 C764 1.392 . S
C765 H777 0.929 . S
C766 C762 1.531 . S
C766 H778 0.960 . S
C766 H779 0.962 . S
C766 H780 0.960 . S
C767 C764 1.511 . S
C767 H781 0.961 . S
C767 H782 0.961 . S
C767 H783 0.961 . S
C768 C769 1.370 . S
C768 C770 1.363 . S
C768 H784 0.931 . S
C769 C768 1.370 . S
C769 C773 1.408 . S
C770 C768 1.363 . S
C770 C771 1.370 . S
C770 C774 1.524 . S
C771 C763 1.503 . S
C771 C770 1.370 . S
C771 C772 1.403 . S
C772 C771 1.403 . S
C772 C773 1.404 . S
C772 C775 1.539 . S
C773 C769 1.408 . S
C773 C772 1.404 . S
C773 H785 0.930 . S
C774 C770 1.524 . S
C774 H786 0.956 . S
C774 H787 0.961 . S
C774 H788 0.961 . S
C775 C772 1.539 . S
C775 H789 0.958 . S
C775 H790 0.961 . S
C775 H791 0.960 . S
H776 C760 0.931 . S
H777 C765 0.929 . S
H778 C766 0.960 . S
H779 C766 0.962 . S
H780 C766 0.960 . S
H781 C767 0.961 . S
H782 C767 0.961 . S
H783 C767 0.961 . S
H784 C768 0.931 . S
H785 C773 0.930 . S
H786 C774 0.956 . S
H787 C774 0.961 . S
H788 C774 0.961 . S
H789 C775 0.958 . S
H790 C775 0.961 . S
H791 C775 0.960 . S
C792 C793 1.391 . S
C792 C794 1.394 . S
C792 H808 0.931 . S
C793 C792 1.391 . S
C793 C797 1.376 . S
C794 C792 1.394 . S
C794 C795 1.369 . S
C794 C798 1.531 . S
C795 C794 1.369 . S
C795 C796 1.410 . S
C795 C803 1.503 . S
C796 C795 1.410 . S
C796 C797 1.392 . S
C796 C799 1.511 . S
C797 C793 1.376 . S
C797 C796 1.392 . S
C797 H809 0.929 . S
C798 C794 1.531 . S
C798 H810 0.960 . S
C798 H811 0.962 . S
C798 H812 0.960 . S
C799 C796 1.511 . S
C799 H813 0.961 . S
C799 H814 0.961 . S
C799 H815 0.961 . S
C800 C801 1.370 . S
C800 C802 1.363 . S
C800 H816 0.931 . S
C801 C800 1.370 . S
C801 C805 1.408 . S
C802 C800 1.363 . S
C802 C803 1.370 . S
C802 C806 1.524 . S
C803 C795 1.503 . S
C803 C802 1.370 . S
C803 C804 1.403 . S
C804 C803 1.403 . S
C804 C805 1.404 . S
C804 C807 1.539 1_565 S
C805 C801 1.408 . S
C805 C804 1.404 . S
C805 H817 0.930 1_565 S
C806 C802 1.524 . S
C806 H818 0.956 . S
C806 H819 0.961 . S
C806 H820 0.961 . S
C807 C804 1.539 1_545 S
C807 H821 0.958 . S
C807 H822 0.961 . S
C807 H823 0.960 . S
H808 C792 0.931 . S
H809 C797 0.929 . S
H810 C798 0.960 . S
H811 C798 0.962 . S
H812 C798 0.960 . S
H813 C799 0.961 . S
H814 C799 0.961 . S
H815 C799 0.961 . S
H816 C800 0.931 . S
H817 C805 0.930 1_545 S
H818 C806 0.956 . S
H819 C806 0.961 . S
H820 C806 0.961 . S
H821 C807 0.958 . S
H822 C807 0.961 . S
H823 C807 0.960 . S
C824 C825 1.391 . S
C824 C826 1.394 . S
C824 H840 0.931 . S
C825 C824 1.391 . S
C825 C829 1.376 . S
C826 C824 1.394 . S
C826 C827 1.369 . S
C826 C830 1.531 . S
C827 C826 1.369 . S
C827 C828 1.410 . S
C827 C835 1.503 . S
C828 C827 1.410 . S
C828 C829 1.392 . S
C828 C831 1.511 . S
C829 C825 1.376 . S
C829 C828 1.392 . S
C829 H841 0.928 1_455 S
C830 C826 1.531 . S
C830 H842 0.960 . S
C830 H843 0.962 . S
C830 H844 0.960 . S
C831 C828 1.511 . S
C831 H845 0.961 1_455 S
C831 H846 0.961 . S
C831 H847 0.961 . S
C832 C833 1.370 . S
C832 C834 1.363 . S
C832 H848 0.931 . S
C833 C832 1.370 . S
C833 C837 1.408 . S
C834 C832 1.363 . S
C834 C835 1.370 . S
C834 C838 1.524 . S
C835 C827 1.503 . S
C835 C834 1.370 . S
C835 C836 1.403 . S
C836 C835 1.403 . S
C836 C837 1.404 . S
C836 C839 1.539 . S
C837 C833 1.408 . S
C837 C836 1.404 . S
C837 H849 0.930 . S
C838 C834 1.524 . S
C838 H850 0.956 . S
C838 H851 0.961 . S
C838 H852 0.961 . S
C839 C836 1.539 . S
C839 H853 0.958 . S
C839 H854 0.961 . S
C839 H855 0.960 . S
H840 C824 0.931 . S
H841 C829 0.928 1_655 S
H842 C830 0.960 . S
H843 C830 0.962 . S
H844 C830 0.960 . S
H845 C831 0.961 1_655 S
H846 C831 0.961 . S
H847 C831 0.961 . S
H848 C832 0.931 . S
H849 C837 0.930 . S
H850 C838 0.956 . S
H851 C838 0.961 . S
H852 C838 0.961 . S
H853 C839 0.958 . S
H854 C839 0.961 . S
H855 C839 0.960 . S
C856 C857 1.391 . S
C856 C858 1.394 . S
C856 H872 0.931 . S
C857 C856 1.391 . S
C857 C861 1.376 . S
C858 C856 1.394 . S
C858 C859 1.369 . S
C858 C862 1.531 . S
C859 C858 1.369 . S
C859 C860 1.410 . S
C859 C867 1.503 . S
C860 C859 1.410 . S
C860 C861 1.392 . S
C860 C863 1.511 . S
C861 C857 1.376 . S
C861 C860 1.392 . S
C861 H873 0.929 . S
C862 C858 1.531 . S
C862 H874 0.960 . S
C862 H875 0.962 . S
C862 H876 0.960 . S
C863 C860 1.511 . S
C863 H877 0.961 . S
C863 H878 0.961 . S
C863 H879 0.961 . S
C864 C865 1.370 . S
C864 C866 1.363 . S
C864 H880 0.931 . S
C865 C864 1.370 . S
C865 C869 1.408 . S
C866 C864 1.363 . S
C866 C867 1.370 . S
C866 C870 1.524 . S
C867 C859 1.503 . S
C867 C866 1.370 . S
C867 C868 1.403 . S
C868 C867 1.403 . S
C868 C869 1.404 . S
C868 C871 1.539 . S
C869 C865 1.408 . S
C869 C868 1.404 . S
C869 H881 0.930 . S
C870 C866 1.524 . S
C870 H882 0.956 . S
C870 H883 0.961 . S
C870 H884 0.961 . S
C871 C868 1.539 . S
C871 H885 0.958 . S
C871 H886 0.961 . S
C871 H887 0.960 . S
H872 C856 0.931 . S
H873 C861 0.929 . S
H874 C862 0.960 . S
H875 C862 0.962 . S
H876 C862 0.960 . S
H877 C863 0.961 . S
H878 C863 0.961 . S
H879 C863 0.961 . S
H880 C864 0.931 . S
H881 C869 0.930 . S
H882 C870 0.956 . S
H883 C870 0.961 . S
H884 C870 0.961 . S
H885 C871 0.958 . S
H886 C871 0.961 . S
H887 C871 0.960 . S
C888 C889 1.391 . S
C888 C890 1.394 . S
C888 H904 0.931 . S
C889 C888 1.391 . S
C889 C893 1.376 . S
C890 C888 1.394 . S
C890 C891 1.369 . S
C890 C894 1.531 . S
C891 C890 1.369 . S
C891 C892 1.410 . S
C891 C899 1.503 . S
C892 C891 1.410 . S
C892 C893 1.392 . S
C892 C895 1.511 . S
C893 C889 1.376 . S
C893 C892 1.392 . S
C893 H905 0.929 . S
C894 C890 1.531 . S
C894 H906 0.960 . S
C894 H907 0.962 . S
C894 H908 0.960 . S
C895 C892 1.511 . S
C895 H909 0.961 . S
C895 H910 0.961 . S
C895 H911 0.961 . S
C896 C897 1.370 . S
C896 C898 1.363 . S
C896 H912 0.931 . S
C897 C896 1.370 . S
C897 C901 1.408 . S
C898 C896 1.363 . S
C898 C899 1.370 . S
C898 C902 1.524 . S
C899 C891 1.503 . S
C899 C898 1.370 . S
C899 C900 1.403 . S
C900 C899 1.403 . S
C900 C901 1.404 . S
C900 C903 1.539 . S
C901 C897 1.408 . S
C901 C900 1.404 . S
C901 H913 0.930 . S
C902 C898 1.524 . S
C902 H914 0.956 . S
C902 H915 0.961 . S
C902 H916 0.961 . S
C903 C900 1.539 . S
C903 H917 0.958 . S
C903 H918 0.961 . S
C903 H919 0.960 . S
H904 C888 0.931 . S
H905 C893 0.929 . S
H906 C894 0.960 . S
H907 C894 0.962 . S
H908 C894 0.960 . S
H909 C895 0.961 . S
H910 C895 0.961 . S
H911 C895 0.961 . S
H912 C896 0.931 . S
H913 C901 0.930 . S
H914 C902 0.956 . S
H915 C902 0.961 . S
H916 C902 0.961 . S
H917 C903 0.958 . S
H918 C903 0.961 . S
H919 C903 0.960 . S
C920 C921 1.391 . S
C920 C922 1.394 . S
C920 H936 0.931 . S
C921 C920 1.391 . S
C921 C925 1.376 . S
C922 C920 1.394 . S
C922 C923 1.369 . S
C922 C926 1.531 . S
C923 C922 1.369 . S
C923 C924 1.410 . S
C923 C931 1.503 . S
C924 C923 1.410 . S
C924 C925 1.392 . S
C924 C927 1.511 . S
C925 C921 1.376 . S
C925 C924 1.392 . S
C925 H937 0.929 . S
C926 C922 1.531 . S
C926 H938 0.960 . S
C926 H939 0.962 . S
C926 H940 0.960 . S
C927 C924 1.511 . S
C927 H941 0.961 . S
C927 H942 0.961 . S
C927 H943 0.961 . S
C928 C929 1.370 . S
C928 C930 1.363 . S
C928 H944 0.931 1_545 S
C929 C928 1.370 . S
C929 C933 1.408 . S
C930 C928 1.363 . S
C930 C931 1.370 . S
C930 C934 1.524 . S
C931 C923 1.503 . S
C931 C930 1.370 . S
C931 C932 1.403 . S
C932 C931 1.403 . S
C932 C933 1.404 . S
C932 C935 1.539 . S
C933 C929 1.408 . S
C933 C932 1.404 . S
C933 H945 0.930 . S
C934 C930 1.524 . S
C934 H946 0.956 . S
C934 H947 0.961 . S
C934 H948 0.961 1_545 S
C935 C932 1.539 . S
C935 H949 0.958 . S
C935 H950 0.961 . S
C935 H951 0.960 . S
H936 C920 0.931 . S
H937 C925 0.929 . S
H938 C926 0.960 . S
H939 C926 0.962 . S
H940 C926 0.960 . S
H941 C927 0.961 . S
H942 C927 0.961 . S
H943 C927 0.961 . S
H944 C928 0.931 1_565 S
H945 C933 0.930 . S
H946 C934 0.956 . S
H947 C934 0.961 . S
H948 C934 0.961 1_565 S
H949 C935 0.958 . S
H950 C935 0.961 . S
H951 C935 0.960 . S
C952 C953 1.391 . S
C952 C954 1.394 . S
C952 H968 0.931 . S
C953 C952 1.391 . S
C953 C957 1.376 . S
C954 C952 1.394 . S
C954 C955 1.369 . S
C954 C958 1.531 . S
C955 C954 1.369 . S
C955 C956 1.410 . S
C955 C963 1.503 . S
C956 C955 1.410 . S
C956 C957 1.392 . S
C956 C959 1.511 1_655 S
C957 C953 1.376 . S
C957 C956 1.392 . S
C957 H969 0.929 1_655 S
C958 C954 1.531 . S
C958 H970 0.960 . S
C958 H971 0.962 . S
C958 H972 0.960 . S
C959 C956 1.511 1_455 S
C959 H973 0.961 . S
C959 H974 0.961 1_455 S
C959 H975 0.961 . S
C960 C961 1.370 . S
C960 C962 1.363 . S
C960 H976 0.931 . S
C961 C960 1.370 . S
C961 C965 1.408 . S
C962 C960 1.363 . S
C962 C963 1.370 . S
C962 C966 1.524 . S
C963 C955 1.503 . S
C963 C962 1.370 . S
C963 C964 1.403 . S
C964 C963 1.403 . S
C964 C965 1.404 . S
C964 C967 1.539 . S
C965 C961 1.408 . S
C965 C964 1.404 . S
C965 H977 0.930 . S
C966 C962 1.524 . S
C966 H978 0.956 . S
C966 H979 0.961 . S
C966 H980 0.961 . S
C967 C964 1.539 . S
C967 H981 0.958 . S
C967 H982 0.961 . S
C967 H983 0.960 . S
H968 C952 0.931 . S
H969 C957 0.929 1_455 S
H970 C958 0.960 . S
H971 C958 0.962 . S
H972 C958 0.960 . S
H973 C959 0.961 . S
H974 C959 0.961 1_655 S
H975 C959 0.961 . S
H976 C960 0.931 . S
H977 C965 0.930 . S
H978 C966 0.956 . S
H979 C966 0.961 . S
H980 C966 0.961 . S
H981 C967 0.958 . S
H982 C967 0.961 . S
H983 C967 0.960 . S
C473 C241 1.507 . S
C481 C5 1.529 . S
C505 C64 1.523 . S
C513 C300 1.522 . S
C537 C123 1.514 . S
C545 C359 1.526 . S
C569 C418 1.520 . S
C577 C182 1.526 . S
C601 C3 1.450 . S
C609 C121 1.429 . S
C633 C62 1.444 . S
C641 C180 1.424 . S
C665 C357 1.428 . S
C673 C239 1.431 . S
C697 C298 1.431 . S
C705 C416 1.430 . S
C729 C347 1.271 . S
C737 C33 1.263 . S
C761 C92 1.254 . S
C769 C406 1.269 . S
C793 C151 1.264 . S
C801 C465 1.260 . S
C825 C288 1.272 . S
C833 C210 1.259 . S
C857 C269 1.271 . S
C865 C111 1.265 . S
C889 C328 1.245 . S
C897 C170 1.262 . S
C921 C387 1.240 . S
C929 C229 1.265 . S
C953 C52 1.251 . S
C961 C446 1.259 . S
