# Generated by pormake.
# Topology crb, (4)-cn, num edge types: 1
# Building blocks:
#     Node 0, Type 0, BuildingBlock: TATPOV_clean_sbu_0, # of connection points: 4
#     Node 1, Type 0, BuildingBlock: TATPOV_clean_sbu_0, # of connection points: 4
#     Node 2, Type 0, BuildingBlock: TATPOV_clean_sbu_0, # of connection points: 4
#     Node 3, Type 0, BuildingBlock: TATPOV_clean_sbu_0, # of connection points: 4
#     Node 4, Type 0, BuildingBlock: TATPOV_clean_sbu_0, # of connection points: 4
#     Node 5, Type 0, BuildingBlock: TATPOV_clean_sbu_0, # of connection points: 4
#     Node 6, Type 0, BuildingBlock: TATPOV_clean_sbu_0, # of connection points: 4
#     Node 7, Type 0, BuildingBlock: TATPOV_clean_sbu_0, # of connection points: 4
#     Edge 8, Type (0, 0), BuildingBlock: KIFKEQ_clean_linker_1, # of connection points: 2
#     Edge 9, Type (0, 0), BuildingBlock: KIFKEQ_clean_linker_1, # of connection points: 2
#     Edge 10, Type (0, 0), BuildingBlock: KIFKEQ_clean_linker_1, # of connection points: 2
#     Edge 11, Type (0, 0), BuildingBlock: KIFKEQ_clean_linker_1, # of connection points: 2
#     Edge 12, Type (0, 0), BuildingBlock: KIFKEQ_clean_linker_1, # of connection points: 2
#     Edge 13, Type (0, 0), BuildingBlock: KIFKEQ_clean_linker_1, # of connection points: 2
#     Edge 14, Type (0, 0), BuildingBlock: KIFKEQ_clean_linker_1, # of connection points: 2
#     Edge 15, Type (0, 0), BuildingBlock: KIFKEQ_clean_linker_1, # of connection points: 2
#     Edge 16, Type (0, 0), BuildingBlock: KIFKEQ_clean_linker_1, # of connection points: 2
#     Edge 17, Type (0, 0), BuildingBlock: KIFKEQ_clean_linker_1, # of connection points: 2
#     Edge 18, Type (0, 0), BuildingBlock: KIFKEQ_clean_linker_1, # of connection points: 2
#     Edge 19, Type (0, 0), BuildingBlock: KIFKEQ_clean_linker_1, # of connection points: 2
#     Edge 20, Type (0, 0), BuildingBlock: KIFKEQ_clean_linker_1, # of connection points: 2
#     Edge 21, Type (0, 0), BuildingBlock: KIFKEQ_clean_linker_1, # of connection points: 2
#     Edge 22, Type (0, 0), BuildingBlock: KIFKEQ_clean_linker_1, # of connection points: 2
#     Edge 23, Type (0, 0), BuildingBlock: KIFKEQ_clean_linker_1, # of connection points: 2
# Relax obj value: 0.016
# Max RMSD: 0.047
# Mean RMSD: 0.047
data_MOF--net-crb--node1-TATPOV_clean_sbu_0--edge1-KIFKEQ_clean_linker_1
_symmetry_space_group_name_H-M    P1
_symmetry_Int_Tables_number       1
_symmetry_cell_setting            triclinic
loop_
_symmetry_equiv_pos_as_xyz
'x, y, z'
_cell_length_a     44.23932
_cell_length_b     41.403797
_cell_length_c     25.598361
_cell_angle_alpha  90.028062
_cell_angle_beta   89.988772
_cell_angle_gamma 89.983213
loop_
_atom_site_label
_atom_site_type_symbol
_atom_site_fract_x
_atom_site_fract_y
_atom_site_fract_z
_atom_type_partial_charge
Zn0 Zn 0.36535 0.34345 0.18843 0.0
Zn1 Zn 0.33413 0.31394 0.11081 0.0
O2 O 0.37807 0.30059 0.09601 0.0
O3 O 0.40385 0.32401 0.15906 0.0
O4 O 0.31068 0.29222 0.05294 0.0
O5 O 0.34063 0.31896 0.24163 0.0
O6 O 0.31484 0.29584 0.17825 0.0
C7 C 0.4032 0.30662 0.11833 0.0
C8 C 0.33468 0.38806 0.12012 0.0
O9 O 0.32665 0.36208 0.09737 0.0
O10 O 0.35091 0.38683 0.16086 0.0
C11 C 0.31137 0.3033 0.0066 0.0
O12 O 0.32782 0.32899 0.99661 0.0
C13 C 0.31989 0.29995 0.22687 0.0
Zn14 Zn 0.63781 0.34289 0.86411 0.0
Zn15 Zn 0.66918 0.31412 0.94209 0.0
O16 O 0.62534 0.30039 0.95682 0.0
O17 O 0.59943 0.32321 0.89337 0.0
O18 O 0.69273 0.29281 1.00019 0.0
O19 O 0.66283 0.31857 0.81114 0.0
O20 O 0.68885 0.2961 0.8748 0.0
C21 C 0.60018 0.30605 0.93433 0.0
C22 C 0.66784 0.38814 0.93227 0.0
O23 O 0.6761 0.36238 0.95537 0.0
O24 O 0.65175 0.38652 0.89138 0.0
C25 C 0.69183 0.3039 0.04653 0.0
O26 O 0.67508 0.32939 0.05644 0.0
C27 C 0.68382 0.29995 0.82612 0.0
Zn28 Zn 0.63872 0.65264 0.16915 0.0
Zn29 Zn 0.67105 0.67957 0.0905 0.0
O30 O 0.62736 0.69355 0.07463 0.0
O31 O 0.6011 0.67472 0.14118 0.0
O32 O 0.69552 0.69965 0.03243 0.0
O33 O 0.66485 0.67562 0.22184 0.0
O34 O 0.69073 0.69782 0.15776 0.0
C35 C 0.6023 0.69021 0.09857 0.0
C36 C 0.66777 0.60599 0.1011 0.0
O37 O 0.67733 0.63131 0.07826 0.0
O38 O 0.65097 0.60841 0.14107 0.0
C39 C 0.6869 0.69829 0.98507 0.0
O40 O 0.66123 0.68392 0.97384 0.0
C41 C 0.68593 0.694 0.20653 0.0
Zn42 Zn 0.36067 0.64904 0.87362 0.0
Zn43 Zn 0.32932 0.67767 0.95173 0.0
O44 O 0.37311 0.69177 0.96569 0.0
O45 O 0.39853 0.67214 0.89875 0.0
O46 O 0.30537 0.6989 0.00944 0.0
O47 O 0.33331 0.67004 0.82067 0.0
O48 O 0.30931 0.69511 0.88421 0.0
C49 C 0.39786 0.6882 0.94087 0.0
C50 C 0.33268 0.6038 0.94486 0.0
O51 O 0.32304 0.62955 0.96641 0.0
O52 O 0.34932 0.60545 0.90462 0.0
C53 C 0.31451 0.69862 0.05656 0.0
O54 O 0.34038 0.68464 0.06774 0.0
C55 C 0.31296 0.68947 0.8356 0.0
Zn56 Zn 0.85863 0.84979 0.66877 0.0
Zn57 Zn 0.83169 0.81667 0.59033 0.0
O58 O 0.87628 0.80459 0.58065 0.0
O59 O 0.89887 0.83176 0.64345 0.0
O60 O 0.81055 0.7928 0.53192 0.0
O61 O 0.83351 0.82564 0.72126 0.0
O62 O 0.81107 0.79923 0.65745 0.0
C63 C 0.90034 0.81286 0.60453 0.0
C64 C 0.82871 0.89106 0.59543 0.0
O65 O 0.82361 0.86431 0.57248 0.0
O66 O 0.84254 0.89167 0.63872 0.0
C67 C 0.81216 0.80282 0.48501 0.0
O68 O 0.82823 0.82872 0.47467 0.0
C69 C 0.81421 0.8051 0.70611 0.0
Zn70 Zn 0.14286 0.85021 0.37435 0.0
Zn71 Zn 0.17241 0.81938 0.45193 0.0
O72 O 0.12819 0.80625 0.46474 0.0
O73 O 0.10385 0.83012 0.40043 0.0
O74 O 0.1956 0.79713 0.5095 0.0
O75 O 0.16871 0.82741 0.32101 0.0
O76 O 0.19217 0.80167 0.38437 0.0
C77 C 0.10357 0.81252 0.44093 0.0
C78 C 0.17229 0.89364 0.44579 0.0
O79 O 0.18002 0.86731 0.4678 0.0
O80 O 0.15653 0.89303 0.40448 0.0
C81 C 0.18625 0.79709 0.5565 0.0
O82 O 0.1605 0.81131 0.56773 0.0
C83 C 0.18851 0.80731 0.33578 0.0
Zn84 Zn 0.13893 0.15337 0.68857 0.0
Zn85 Zn 0.17026 0.18261 0.61085 0.0
O86 O 0.12617 0.19499 0.59504 0.0
O87 O 0.10032 0.17203 0.65844 0.0
O88 O 0.1936 0.20442 0.55296 0.0
O89 O 0.16317 0.17849 0.7417 0.0
O90 O 0.18904 0.20138 0.67824 0.0
C91 C 0.10099 0.1889 0.61716 0.0
C92 C 0.17069 0.10866 0.62157 0.0
O93 O 0.17861 0.13455 0.59849 0.0
O94 O 0.15404 0.11001 0.66183 0.0
C95 C 0.19322 0.19315 0.50672 0.0
O96 O 0.17723 0.16713 0.49682 0.0
C97 C 0.18384 0.19756 0.72687 0.0
Zn98 Zn 0.86367 0.15317 0.36322 0.0
Zn99 Zn 0.83406 0.18367 0.44188 0.0
O100 O 0.87824 0.19601 0.45572 0.0
O101 O 0.90299 0.17028 0.39375 0.0
O102 O 0.81129 0.20584 0.50018 0.0
O103 O 0.84033 0.17953 0.31072 0.0
O104 O 0.81466 0.2022 0.37469 0.0
C105 C 0.90308 0.18834 0.43376 0.0
C106 C 0.83188 0.10964 0.43119 0.0
O107 O 0.82612 0.13569 0.45571 0.0
O108 O 0.84664 0.11034 0.38879 0.0
C109 C 0.81217 0.19488 0.54659 0.0
O110 O 0.82847 0.16906 0.55645 0.0
C111 C 0.81978 0.19864 0.32597 0.0
H112 H 0.30884 0.39993 0.02483 0.0
H113 H 0.34404 0.44802 0.16186 0.0
H114 H 0.30251 0.45215 0.98197 0.0
H115 H 0.33791 0.50004 0.11881 0.0
H116 H 0.30639 0.59145 0.03966 0.0
H117 H 0.30086 0.53915 0.0827 0.0
H118 H 0.33937 0.492 0.94767 0.0
H119 H 0.34471 0.54406 0.90447 0.0
C120 C 0.31483 0.42162 0.04611 0.0
C121 C 0.32721 0.41977 0.09663 0.0
C122 C 0.31134 0.45151 0.02142 0.0
C123 C 0.3199 0.48017 0.04687 0.0
C124 C 0.33086 0.47842 0.09832 0.0
C125 C 0.33455 0.44856 0.12287 0.0
C126 C 0.31328 0.56988 0.01884 0.0
C127 C 0.32623 0.57196 0.96876 0.0
C128 C 0.31023 0.53996 0.04362 0.0
C129 C 0.31981 0.51149 0.01867 0.0
C130 C 0.3315 0.51345 0.96773 0.0
C131 C 0.33476 0.54335 0.94311 0.0
H132 H 0.41152 0.27624 0.02412 0.0
H133 H 0.46025 0.31363 0.1574 0.0
H134 H 0.45936 0.26681 0.97903 0.0
H135 H 0.50777 0.30484 0.11209 0.0
H136 H 0.59196 0.27661 0.02928 0.0
H137 H 0.54414 0.26752 0.07458 0.0
H138 H 0.49563 0.30372 0.94034 0.0
H139 H 0.54314 0.31216 0.89484 0.0
C140 C 0.43241 0.28197 0.04416 0.0
C141 C 0.43202 0.2961 0.09412 0.0
C142 C 0.45982 0.27671 0.0182 0.0
C143 C 0.48739 0.28537 0.04171 0.0
C144 C 0.48702 0.2976 0.09294 0.0
C145 C 0.45968 0.30289 0.11882 0.0
C146 C 0.57106 0.28198 0.00904 0.0
C147 C 0.57141 0.29553 0.95868 0.0
C148 C 0.54366 0.27693 0.03512 0.0
C149 C 0.51606 0.28521 0.01133 0.0
C150 C 0.5164 0.29679 0.95973 0.0
C151 C 0.54373 0.30188 0.93373 0.0
H152 H 0.69221 0.40091 0.02842 0.0
H153 H 0.65891 0.44766 0.88885 0.0
H154 H 0.6979 0.45356 0.07033 0.0
H155 H 0.66443 0.50008 0.93089 0.0
H156 H 0.69546 0.5921 0.00814 0.0
H157 H 0.70138 0.53923 0.96721 0.0
H158 H 0.66065 0.49415 0.10205 0.0
H159 H 0.6549 0.54686 0.14322 0.0
C160 C 0.68651 0.4224 0.0064 0.0
C161 C 0.67486 0.42006 0.95541 0.0
C162 C 0.68963 0.45252 0.03054 0.0
C163 C 0.68145 0.48092 0.00402 0.0
C164 C 0.67118 0.47867 0.9522 0.0
C165 C 0.66784 0.44858 0.92822 0.0
C166 C 0.68816 0.57088 0.02941 0.0
C167 C 0.67447 0.57375 0.0788 0.0
C168 C 0.69143 0.54063 0.00582 0.0
C169 C 0.68133 0.51257 0.03128 0.0
C170 C 0.66891 0.51529 0.08163 0.0
C171 C 0.66544 0.54554 0.10508 0.0
H172 H 0.44776 0.71099 0.89031 0.0
H173 H 0.41276 0.68952 0.04361 0.0
H174 H 0.49734 0.72182 0.92774 0.0
H175 H 0.46254 0.69731 0.08089 0.0
H176 H 0.55265 0.71554 0.1464 0.0
H177 H 0.50323 0.72541 0.10771 0.0
H178 H 0.53806 0.69476 0.95743 0.0
H179 H 0.58776 0.68799 0.99572 0.0
C180 C 0.45075 0.70876 0.93216 0.0
C181 C 0.42655 0.69933 0.96408 0.0
C182 C 0.47929 0.71456 0.95372 0.0
C183 C 0.48457 0.70986 0.00752 0.0
C184 C 0.45973 0.70179 0.03956 0.0
C185 C 0.43102 0.69706 0.01817 0.0
C186 C 0.54971 0.71178 0.10482 0.0
C187 C 0.57387 0.70092 0.07402 0.0
C188 C 0.52125 0.71701 0.08257 0.0
C189 C 0.516 0.71023 0.02934 0.0
C190 C 0.54084 0.7008 0.99825 0.0
C191 C 0.5695 0.69667 0.02023 0.0
H192 H 0.8061 0.94555 0.64014 0.0
H193 H 0.83498 0.90567 0.49278 0.0
H194 H 0.79902 0.99808 0.59927 0.0
H195 H 0.83089 0.95852 0.45248 0.0
H196 H 0.81474 0.05447 0.38102 0.0
H197 H 0.80609 0.00147 0.4195 0.0
H198 H 0.82585 0.04108 0.57245 0.0
H199 H 0.83161 0.09415 0.53402 0.0
C200 C 0.8109 0.94818 0.59885 0.0
C201 C 0.82112 0.92175 0.56954 0.0
C202 C 0.80725 0.9784 0.57537 0.0
C203 C 0.81494 0.98319 0.52246 0.0
C204 C 0.82419 0.95615 0.49293 0.0
C205 C 0.82678 0.9257 0.51606 0.0
C206 C 0.81661 0.05172 0.42299 0.0
C207 C 0.82386 0.07827 0.4546 0.0
C208 C 0.81199 0.02125 0.44518 0.0
C209 C 0.81564 0.0164 0.49935 0.0
C210 C 0.82214 0.04348 0.53087 0.0
C211 C 0.82573 0.07408 0.50883 0.0
H212 H 0.04788 0.81666 0.3956 0.0
H213 H 0.09264 0.78556 0.53697 0.0
H214 H 0.99904 0.80853 0.43696 0.0
H215 H 0.04349 0.77695 0.57823 0.0
H216 H 0.95572 0.82372 0.64838 0.0
H217 H 0.00503 0.81517 0.60877 0.0
H218 H 0.96248 0.77093 0.47478 0.0
H219 H 0.91291 0.77994 0.51412 0.0
C220 C 0.04731 0.80744 0.43519 0.0
C221 C 0.0742 0.80217 0.46318 0.0
C222 C 0.01924 0.80254 0.45881 0.0
C223 C 0.01735 0.79233 0.51106 0.0
C224 C 0.04422 0.78524 0.53812 0.0
C225 C 0.07237 0.79 0.51436 0.0
C226 C 0.95684 0.81169 0.61085 0.0
C227 C 0.93031 0.80293 0.58413 0.0
C228 C 0.98518 0.80655 0.58828 0.0
C229 C 0.98769 0.79259 0.53841 0.0
C230 C 0.96127 0.78214 0.51297 0.0
C231 C 0.93287 0.78718 0.53564 0.0
H232 H 0.19934 0.09646 0.52879 0.0
H233 H 0.15983 0.04883 0.66265 0.0
H234 H 0.20641 0.04417 0.4865 0.0
H235 H 0.16658 0.99675 0.62007 0.0
H236 H 0.1967 0.90459 0.54261 0.0
H237 H 0.20301 0.95656 0.58653 0.0
H238 H 0.17019 0.00552 0.44878 0.0
H239 H 0.1642 0.95386 0.40476 0.0
C240 C 0.19255 0.07484 0.54954 0.0
C241 C 0.17871 0.07686 0.5989 0.0
C242 C 0.19648 0.04491 0.52517 0.0
C243 C 0.18684 0.01636 0.54976 0.0
C244 C 0.1745 0.01826 0.60026 0.0
C245 C 0.17044 0.04817 0.62453 0.0
C246 C 0.1913 0.92649 0.52141 0.0
C247 C 0.17968 0.92506 0.47033 0.0
C248 C 0.19479 0.95622 0.54668 0.0
C249 C 0.18695 0.98512 0.52123 0.0
C250 C 0.17673 0.98374 0.46931 0.0
C251 C 0.17308 0.95407 0.44419 0.0
H252 H 0.91249 0.2198 0.52664 0.0
H253 H 0.95988 0.17827 0.39507 0.0
H254 H 0.96065 0.22848 0.57104 0.0
H255 H 0.00775 0.18643 0.43973 0.0
H256 H 0.09269 0.21615 0.52055 0.0
H257 H 0.04483 0.2244 0.47492 0.0
H258 H 0.99639 0.19105 0.61114 0.0
H259 H 0.04395 0.18332 0.6569 0.0
C260 C 0.93316 0.21297 0.50683 0.0
C261 C 0.93228 0.19798 0.45754 0.0
C262 C 0.96075 0.2178 0.5324 0.0
C263 C 0.98803 0.20789 0.50915 0.0
C264 C 0.98722 0.19464 0.4586 0.0
C265 C 0.95969 0.18972 0.43312 0.0
C266 C 0.0718 0.21119 0.54111 0.0
C267 C 0.07218 0.1987 0.59218 0.0
C268 C 0.04439 0.21576 0.51484 0.0
C269 C 0.0168 0.2081 0.5392 0.0
C270 C 0.01717 0.19747 0.59133 0.0
C271 C 0.04452 0.1928 0.61748 0.0
H272 H 0.2231 0.25088 0.51065 0.0
H273 H 0.20354 0.17086 0.40768 0.0
H274 H 0.25279 0.27633 0.44204 0.0
H275 H 0.23409 0.19581 0.33949 0.0
H276 H 0.2675 0.26553 0.21234 0.0
H277 H 0.23613 0.24004 0.27913 0.0
H278 H 0.29965 0.27003 0.39788 0.0
H279 H 0.33032 0.29626 0.33167 0.0
C280 C 0.22527 0.23863 0.47344 0.0
C281 C 0.21101 0.2088 0.46472 0.0
C282 C 0.24246 0.25313 0.43413 0.0
C283 C 0.24605 0.23805 0.38522 0.0
C284 C 0.23155 0.20832 0.37639 0.0
C285 C 0.21416 0.19391 0.41564 0.0
C286 C 0.27476 0.2666 0.25271 0.0
C287 C 0.30134 0.28309 0.26665 0.0
C288 C 0.25684 0.25187 0.29101 0.0
C289 C 0.26521 0.25314 0.34404 0.0
C290 C 0.29211 0.26914 0.35766 0.0
C291 C 0.30985 0.28402 0.31954 0.0
H292 H 0.70107 0.32617 0.14592 0.0
H293 H 0.72345 0.24725 0.04239 0.0
H294 H 0.73213 0.30201 0.2142 0.0
H295 H 0.75365 0.22258 0.11105 0.0
H296 H 0.83101 0.20423 0.2217 0.0
H297 H 0.80015 0.23037 0.15569 0.0
H298 H 0.73529 0.25754 0.27413 0.0
H299 H 0.76686 0.23213 0.34078 0.0
C300 C 0.71243 0.30353 0.13785 0.0
C301 C 0.70991 0.28872 0.08859 0.0
C302 C 0.73011 0.28958 0.17714 0.0
C303 C 0.74557 0.26041 0.16816 0.0
C304 C 0.7426 0.24539 0.11908 0.0
C305 C 0.7251 0.25943 0.07974 0.0
C306 C 0.81023 0.21587 0.23382 0.0
C307 C 0.80135 0.21596 0.28655 0.0
C308 C 0.79238 0.23069 0.19581 0.0
C309 C 0.76501 0.24577 0.20937 0.0
C310 C 0.75636 0.24639 0.2623 0.0
C311 C 0.77439 0.23173 0.30052 0.0
H312 H 0.78258 0.74494 0.49004 0.0
H313 H 0.80346 0.82322 0.3845 0.0
H314 H 0.75355 0.71848 0.42154 0.0
H315 H 0.77354 0.79731 0.31643 0.0
H316 H 0.73906 0.72705 0.19113 0.0
H317 H 0.77094 0.75249 0.25735 0.0
H318 H 0.707 0.7247 0.37684 0.0
H319 H 0.67588 0.69853 0.3113 0.0
C320 C 0.78088 0.75657 0.45225 0.0
C321 C 0.79524 0.78626 0.44284 0.0
C322 C 0.76407 0.74149 0.413 0.0
C323 C 0.76093 0.75586 0.36345 0.0
C324 C 0.77571 0.78534 0.35384 0.0
C325 C 0.79274 0.80031 0.39303 0.0
C326 C 0.73185 0.72643 0.23156 0.0
C327 C 0.70499 0.71061 0.2459 0.0
C328 C 0.75006 0.74112 0.26953 0.0
C329 C 0.74169 0.74048 0.32262 0.0
C330 C 0.71457 0.72507 0.33661 0.0
C331 C 0.69656 0.71023 0.29885 0.0
H332 H 0.19239 0.82114 0.23195 0.0
H333 H 0.22755 0.75634 0.34947 0.0
H334 H 0.2231 0.79475 0.16606 0.0
H335 H 0.25771 0.72902 0.28277 0.0
H336 H 0.3306 0.70982 0.15822 0.0
H337 H 0.30057 0.73564 0.22639 0.0
H338 H 0.22632 0.74605 0.11795 0.0
H339 H 0.25668 0.72133 0.04954 0.0
C340 C 0.20652 0.80105 0.24371 0.0
C341 C 0.20742 0.79081 0.29605 0.0
C342 C 0.22403 0.78573 0.20573 0.0
C343 C 0.24276 0.75953 0.21885 0.0
C344 C 0.2438 0.74933 0.27131 0.0
C345 C 0.22639 0.76488 0.30953 0.0
C346 C 0.30786 0.71765 0.14897 0.0
C347 C 0.29611 0.71371 0.09834 0.0
C348 C 0.29055 0.73227 0.18818 0.0
C349 C 0.26102 0.74309 0.17774 0.0
C350 C 0.24917 0.73864 0.12722 0.0
C351 C 0.26654 0.72428 0.08798 0.0
H352 H 0.16988 0.7856 0.65797 0.0
H353 H 0.24391 0.77392 0.54948 0.0
H354 H 0.19977 0.75965 0.72617 0.0
H355 H 0.27411 0.74909 0.61788 0.0
H356 H 0.3086 0.67482 0.73212 0.0
H357 H 0.27743 0.70055 0.66624 0.0
H358 H 0.24261 0.76652 0.78254 0.0
H359 H 0.27324 0.73985 0.84924 0.0
C360 C 0.1926 0.77767 0.64875 0.0
C361 C 0.20444 0.78166 0.59819 0.0
C362 C 0.20983 0.76298 0.68798 0.0
C363 C 0.23936 0.75212 0.6776 0.0
C364 C 0.25126 0.75653 0.62711 0.0
C365 C 0.23398 0.77095 0.58786 0.0
C366 C 0.29431 0.69481 0.7438 0.0
C367 C 0.29353 0.70535 0.796 0.0
C368 C 0.27653 0.70974 0.70583 0.0
C369 C 0.25765 0.73586 0.71882 0.0
C370 C 0.25664 0.74627 0.77118 0.0
C371 C 0.27432 0.7311 0.8094 0.0
H372 H 0.30152 0.32559 0.90748 0.0
H373 H 0.2805 0.24618 0.0107 0.0
H374 H 0.2706 0.30112 0.83932 0.0
H375 H 0.25044 0.22118 0.94212 0.0
H376 H 0.23647 0.2315 0.71237 0.0
H377 H 0.26795 0.25684 0.77915 0.0
H378 H 0.20376 0.22819 0.89769 0.0
H379 H 0.17297 0.20209 0.83147 0.0
C380 C 0.2905 0.30277 0.9155 0.0
C381 C 0.29336 0.28791 0.96463 0.0
C382 C 0.27289 0.28863 0.87627 0.0
C383 C 0.25787 0.25921 0.88518 0.0
C384 C 0.26116 0.24416 0.93414 0.0
C385 C 0.27858 0.2584 0.97344 0.0
C386 C 0.22907 0.23073 0.75268 0.0
C387 C 0.20229 0.21461 0.76657 0.0
C388 C 0.24706 0.24536 0.79099 0.0
C389 C 0.23855 0.24438 0.84397 0.0
C390 C 0.21141 0.22883 0.85752 0.0
C391 C 0.1936 0.21404 0.81939 0.0
H392 H 0.67353 0.29568 0.72135 0.0
H393 H 0.73685 0.26667 0.84099 0.0
H394 H 0.70478 0.27 0.65535 0.0
H395 H 0.7688 0.24173 0.77439 0.0
H396 H 0.80266 0.17286 0.64599 0.0
H397 H 0.77182 0.19743 0.7142 0.0
H398 H 0.75151 0.27725 0.61123 0.0
H399 H 0.7815 0.25215 0.5426 0.0
C400 C 0.69424 0.28393 0.73359 0.0
C401 C 0.70272 0.28333 0.78651 0.0
C402 C 0.71231 0.26938 0.69559 0.0
C403 C 0.73952 0.25403 0.70934 0.0
C404 C 0.74786 0.25306 0.7624 0.0
C405 C 0.72961 0.26747 0.8006 0.0
C406 C 0.79165 0.19569 0.63796 0.0
C407 C 0.79441 0.21045 0.58873 0.0
C408 C 0.77408 0.20988 0.67721 0.0
C409 C 0.759 0.23928 0.66825 0.0
C410 C 0.76227 0.25429 0.61924 0.0
C411 C 0.77964 0.23999 0.57992 0.0
H412 H 0.74457 0.72129 0.99261 0.0
H413 H 0.67171 0.70755 0.88247 0.0
H414 H 0.77535 0.74519 0.9241 0.0
H415 H 0.70217 0.73257 0.81411 0.0
H416 H 0.7761 0.75327 0.69236 0.0
H417 H 0.74569 0.72604 0.75888 0.0
H418 H 0.7782 0.79344 0.87497 0.0
H419 H 0.80911 0.81971 0.80942 0.0
C420 C 0.73503 0.72356 0.95381 0.0
C421 C 0.70562 0.71266 0.9431 0.0
C422 C 0.75265 0.73744 0.91449 0.0
C423 C 0.7412 0.7411 0.86353 0.0
C424 C 0.71187 0.72984 0.85269 0.0
C425 C 0.69431 0.71568 0.892 0.0
C426 C 0.77675 0.76216 0.73214 0.0
C427 C 0.7952 0.78853 0.74558 0.0
C428 C 0.7592 0.74668 0.77024 0.0
C429 C 0.75961 0.75738 0.82249 0.0
C430 C 0.7778 0.78401 0.83551 0.0
C431 C 0.79543 0.79925 0.7977 0.0
loop_
_geom_bond_atom_site_label_1
_geom_bond_atom_site_label_2
_geom_bond_distance
_geom_bond_site_symmetry_2
_ccdc_geom_bond_type
Zn0 O3 2.031 . S
Zn0 O5 2.049 . S
Zn0 O10 2.067 . S
Zn1 O2 1.962 . S
Zn1 O4 1.987 . S
Zn1 O6 1.994 1_556 S
Zn1 O9 1.943 . S
O2 Zn1 1.962 . S
O2 C7 1.254 1_556 S
O3 Zn0 2.031 . S
O3 C7 1.269 . S
O4 Zn1 1.987 . S
O4 C11 1.262 . S
O5 Zn0 2.049 . S
O5 C13 1.260 . S
O6 Zn1 1.994 1_554 S
O6 C13 1.257 . S
C7 O2 1.254 1_554 S
C7 O3 1.269 . S
C8 O9 1.237 1_554 S
C8 O10 1.270 . S
O9 Zn1 1.943 . S
O9 C8 1.237 1_556 S
O10 Zn0 2.067 . S
O10 C8 1.270 . S
C11 O4 1.262 . S
C11 O12 1.232 . S
O12 C11 1.232 . S
C13 O5 1.260 . S
C13 O6 1.257 . S
Zn14 O17 2.031 . S
Zn14 O19 2.049 . S
Zn14 O24 2.067 . S
Zn15 O16 1.962 . S
Zn15 O18 1.986 . S
Zn15 O20 1.996 1_554 S
Zn15 O23 1.943 . S
O16 Zn15 1.962 . S
O16 C21 1.254 . S
O17 Zn14 2.031 . S
O17 C21 1.269 1_556 S
O18 Zn15 1.986 . S
O18 C25 1.262 . S
O19 Zn14 2.049 . S
O19 C27 1.260 . S
O20 Zn15 1.996 1_556 S
O20 C27 1.257 . S
C21 O16 1.254 . S
C21 O17 1.269 1_554 S
C22 O23 1.249 . S
C22 O24 1.270 1_554 S
O23 Zn15 1.943 . S
O23 C22 1.249 . S
O24 Zn14 2.067 . S
O24 C22 1.270 1_556 S
C25 O18 1.262 . S
C25 O26 1.232 . S
O26 C25 1.232 . S
C27 O19 1.260 . S
C27 O20 1.257 . S
Zn28 O31 2.031 . S
Zn28 O33 2.049 . S
Zn28 O38 2.067 . S
Zn29 O30 1.962 . S
Zn29 O32 1.987 . S
Zn29 O34 1.994 1_556 S
Zn29 O37 1.943 . S
O30 Zn29 1.962 . S
O30 C35 1.254 1_556 S
O31 Zn28 2.031 . S
O31 C35 1.269 . S
O32 Zn29 1.987 . S
O32 C39 1.262 . S
O33 Zn28 2.049 . S
O33 C41 1.260 . S
O34 Zn29 1.994 1_554 S
O34 C41 1.257 . S
C35 O30 1.254 1_554 S
C35 O31 1.269 . S
C36 O37 1.237 1_554 S
C36 O38 1.270 . S
O37 Zn29 1.943 . S
O37 C36 1.237 1_556 S
O38 Zn28 2.067 . S
O38 C36 1.270 . S
C39 O32 1.262 . S
C39 O40 1.232 . S
O40 C39 1.232 . S
C41 O33 1.260 . S
C41 O34 1.257 . S
Zn42 O45 2.031 . S
Zn42 O47 2.049 . S
Zn42 O52 2.067 . S
Zn43 O44 1.962 . S
Zn43 O46 1.986 . S
Zn43 O48 1.996 1_554 S
Zn43 O51 1.943 . S
O44 Zn43 1.962 . S
O44 C49 1.254 . S
O45 Zn42 2.031 . S
O45 C49 1.269 1_556 S
O46 Zn43 1.986 . S
O46 C53 1.262 . S
O47 Zn42 2.049 . S
O47 C55 1.260 . S
O48 Zn43 1.996 1_556 S
O48 C55 1.257 . S
C49 O44 1.254 . S
C49 O45 1.269 1_554 S
C50 O51 1.249 . S
C50 O52 1.270 1_554 S
O51 Zn43 1.943 . S
O51 C50 1.249 . S
O52 Zn42 2.067 . S
O52 C50 1.270 1_556 S
C53 O46 1.262 . S
C53 O54 1.232 . S
O54 C53 1.232 . S
C55 O47 1.260 . S
C55 O48 1.257 . S
Zn56 O59 2.031 . S
Zn56 O61 2.049 . S
Zn56 O66 2.067 . S
Zn57 O58 1.962 . S
Zn57 O60 1.986 . S
Zn57 O62 1.996 . S
Zn57 O65 1.943 . S
O58 Zn57 1.962 . S
O58 C63 1.254 . S
O59 Zn56 2.031 . S
O59 C63 1.269 . S
O60 Zn57 1.986 . S
O60 C67 1.262 . S
O61 Zn56 2.049 . S
O61 C69 1.260 . S
O62 Zn57 1.996 . S
O62 C69 1.257 . S
C63 O58 1.254 . S
C63 O59 1.269 . S
C64 O65 1.249 . S
C64 O66 1.270 . S
O65 Zn57 1.943 . S
O65 C64 1.249 . S
O66 Zn56 2.067 . S
O66 C64 1.270 . S
C67 O60 1.262 . S
C67 O68 1.232 . S
O68 C67 1.232 . S
C69 O61 1.260 . S
C69 O62 1.257 . S
Zn70 O73 2.031 . S
Zn70 O75 2.049 . S
Zn70 O80 2.067 . S
Zn71 O72 1.962 . S
Zn71 O74 1.986 . S
Zn71 O76 1.996 . S
Zn71 O79 1.943 . S
O72 Zn71 1.962 . S
O72 C77 1.254 . S
O73 Zn70 2.031 . S
O73 C77 1.269 . S
O74 Zn71 1.986 . S
O74 C81 1.262 . S
O75 Zn70 2.049 . S
O75 C83 1.260 . S
O76 Zn71 1.996 . S
O76 C83 1.257 . S
C77 O72 1.254 . S
C77 O73 1.269 . S
C78 O79 1.249 . S
C78 O80 1.270 . S
O79 Zn71 1.943 . S
O79 C78 1.249 . S
O80 Zn70 2.067 . S
O80 C78 1.270 . S
C81 O74 1.262 . S
C81 O82 1.232 . S
O82 C81 1.232 . S
C83 O75 1.260 . S
C83 O76 1.257 . S
Zn84 O87 2.031 . S
Zn84 O89 2.049 . S
Zn84 O94 2.067 . S
Zn85 O86 1.962 . S
Zn85 O88 1.986 . S
Zn85 O90 1.996 . S
Zn85 O93 1.943 . S
O86 Zn85 1.962 . S
O86 C91 1.254 . S
O87 Zn84 2.031 . S
O87 C91 1.269 . S
O88 Zn85 1.986 . S
O88 C95 1.262 . S
O89 Zn84 2.049 . S
O89 C97 1.260 . S
O90 Zn85 1.996 . S
O90 C97 1.257 . S
C91 O86 1.254 . S
C91 O87 1.269 . S
C92 O93 1.249 . S
C92 O94 1.270 . S
O93 Zn85 1.943 . S
O93 C92 1.249 . S
O94 Zn84 2.067 . S
O94 C92 1.270 . S
C95 O88 1.262 . S
C95 O96 1.232 . S
O96 C95 1.232 . S
C97 O89 1.260 . S
C97 O90 1.257 . S
Zn98 O101 2.031 . S
Zn98 O103 2.049 . S
Zn98 O108 2.067 . S
Zn99 O100 1.962 . S
Zn99 O102 1.986 . S
Zn99 O104 1.996 . S
Zn99 O107 1.943 . S
O100 Zn99 1.962 . S
O100 C105 1.254 . S
O101 Zn98 2.031 . S
O101 C105 1.269 . S
O102 Zn99 1.986 . S
O102 C109 1.262 . S
O103 Zn98 2.049 . S
O103 C111 1.260 . S
O104 Zn99 1.996 . S
O104 C111 1.257 . S
C105 O100 1.254 . S
C105 O101 1.269 . S
C106 O107 1.249 . S
C106 O108 1.270 . S
O107 Zn99 1.943 . S
O107 C106 1.249 . S
O108 Zn98 2.067 . S
O108 C106 1.270 . S
C109 O102 1.262 . S
C109 O110 1.232 . S
O110 C109 1.232 . S
C111 O103 1.260 . S
C111 O104 1.257 . S
H112 C120 0.950 . S
H113 C125 0.950 . S
H114 C122 0.950 . S
H115 C124 0.950 . S
H116 C126 0.950 . S
H117 C128 0.950 . S
H118 C130 0.950 . S
H119 C131 0.950 . S
C120 H112 0.950 . S
C120 C121 1.386 . S
C120 C122 1.391 . S
C121 C120 1.386 . S
C121 C125 1.393 . S
C122 H114 0.950 . S
C122 C120 1.391 . S
C122 C123 1.400 . S
C123 C122 1.400 . S
C123 C124 1.398 . S
C123 C129 1.491 . S
C124 H115 0.950 . S
C124 C123 1.398 . S
C124 C125 1.391 . S
C125 H113 0.950 . S
C125 C121 1.393 . S
C125 C124 1.391 . S
C126 H116 0.950 . S
C126 C127 1.386 . S
C126 C128 1.391 . S
C127 C126 1.386 . S
C127 C131 1.393 . S
C128 H117 0.950 . S
C128 C126 1.391 . S
C128 C129 1.400 . S
C129 C123 1.491 . S
C129 C128 1.400 . S
C129 C130 1.398 . S
C130 H118 0.950 . S
C130 C129 1.398 . S
C130 C131 1.391 . S
C131 H119 0.950 . S
C131 C127 1.393 . S
C131 C130 1.391 . S
H132 C140 0.950 . S
H133 C145 0.950 . S
H134 C142 0.950 . S
H135 C144 0.950 . S
H136 C146 0.950 . S
H137 C148 0.950 . S
H138 C150 0.950 . S
H139 C151 0.950 . S
C140 H132 0.950 . S
C140 C141 1.386 1_556 S
C140 C142 1.391 . S
C141 C140 1.386 1_554 S
C141 C145 1.393 . S
C142 H134 0.950 . S
C142 C140 1.391 . S
C142 C143 1.400 1_556 S
C143 C142 1.400 1_554 S
C143 C144 1.398 . S
C143 C149 1.491 . S
C144 H135 0.950 . S
C144 C143 1.398 . S
C144 C145 1.391 . S
C145 H133 0.950 . S
C145 C141 1.393 . S
C145 C144 1.391 . S
C146 H136 0.950 . S
C146 C147 1.386 . S
C146 C148 1.391 . S
C147 C146 1.386 . S
C147 C151 1.393 1_554 S
C148 H137 0.950 . S
C148 C146 1.391 . S
C148 C149 1.400 . S
C149 C143 1.491 . S
C149 C148 1.400 . S
C149 C150 1.398 1_554 S
C150 H138 0.950 . S
C150 C149 1.398 1_556 S
C150 C151 1.391 . S
C151 H139 0.950 . S
C151 C147 1.393 1_556 S
C151 C150 1.391 . S
H152 C160 0.950 . S
H153 C165 0.952 . S
H154 C162 0.950 . S
H155 C164 0.956 . S
H156 C166 0.950 1_556 S
H157 C168 0.950 1_556 S
H158 C170 0.950 . S
H159 C171 0.950 . S
C160 H152 0.950 . S
C160 C161 1.386 . S
C160 C162 1.391 . S
C161 C160 1.386 . S
C161 C165 1.390 1_554 S
C162 H154 0.950 . S
C162 C160 1.391 . S
C162 C163 1.400 . S
C163 C162 1.400 . S
C163 C164 1.392 1_554 S
C163 C169 1.491 . S
C164 H155 0.956 . S
C164 C163 1.392 1_556 S
C164 C165 1.391 . S
C165 H153 0.952 . S
C165 C161 1.390 1_556 S
C165 C164 1.391 . S
C166 H156 0.950 1_554 S
C166 C167 1.386 . S
C166 C168 1.391 . S
C167 C166 1.386 . S
C167 C171 1.393 . S
C168 H157 0.950 1_554 S
C168 C166 1.391 . S
C168 C169 1.400 . S
C169 C163 1.491 . S
C169 C168 1.400 . S
C169 C170 1.398 . S
C170 H158 0.950 . S
C170 C169 1.398 . S
C170 C171 1.391 . S
C171 H159 0.950 . S
C171 C167 1.393 . S
C171 C170 1.391 . S
H172 C180 0.950 . S
H173 C185 0.950 . S
H174 C182 0.950 . S
H175 C184 0.950 . S
H176 C186 0.950 . S
H177 C188 0.950 . S
H178 C190 0.950 . S
H179 C191 0.950 . S
C180 H172 0.950 . S
C180 C181 1.386 1_556 S
C180 C182 1.391 . S
C181 C180 1.386 1_554 S
C181 C185 1.393 . S
C182 H174 0.950 . S
C182 C180 1.391 . S
C182 C183 1.400 1_556 S
C183 C182 1.400 1_554 S
C183 C184 1.398 . S
C183 C189 1.491 . S
C184 H175 0.950 . S
C184 C183 1.398 . S
C184 C185 1.391 . S
C185 H173 0.950 . S
C185 C181 1.393 . S
C185 C184 1.391 . S
C186 H176 0.950 . S
C186 C187 1.386 . S
C186 C188 1.391 . S
C187 C186 1.386 . S
C187 C191 1.393 1_554 S
C188 H177 0.950 . S
C188 C186 1.391 . S
C188 C189 1.400 . S
C189 C183 1.491 . S
C189 C188 1.400 . S
C189 C190 1.398 1_554 S
C190 H178 0.950 . S
C190 C189 1.398 1_556 S
C190 C191 1.391 . S
C191 H179 0.950 . S
C191 C187 1.393 1_556 S
C191 C190 1.391 . S
H192 C200 0.950 . S
H193 C205 0.950 . S
H194 C202 0.950 . S
H195 C204 0.950 . S
H196 C206 0.950 . S
H197 C208 0.950 . S
H198 C210 0.950 . S
H199 C211 0.950 . S
C200 H192 0.950 . S
C200 C201 1.386 . S
C200 C202 1.391 . S
C201 C200 1.386 . S
C201 C205 1.393 . S
C202 H194 0.950 . S
C202 C200 1.391 . S
C202 C203 1.400 . S
C203 C202 1.400 . S
C203 C204 1.398 . S
C203 C209 1.491 1_565 S
C204 H195 0.950 . S
C204 C203 1.398 . S
C204 C205 1.391 . S
C205 H193 0.950 . S
C205 C201 1.393 . S
C205 C204 1.391 . S
C206 H196 0.950 . S
C206 C207 1.386 . S
C206 C208 1.391 . S
C207 C206 1.386 . S
C207 C211 1.393 . S
C208 H197 0.950 . S
C208 C206 1.391 . S
C208 C209 1.400 . S
C209 C203 1.491 1_545 S
C209 C208 1.400 . S
C209 C210 1.398 . S
C210 H198 0.950 . S
C210 C209 1.398 . S
C210 C211 1.391 . S
C211 H199 0.950 . S
C211 C207 1.393 . S
C211 C210 1.391 . S
H212 C220 0.950 . S
H213 C225 0.950 . S
H214 C222 0.950 . S
H215 C224 0.950 . S
H216 C226 0.950 . S
H217 C228 0.950 . S
H218 C230 0.950 . S
H219 C231 0.950 . S
C220 H212 0.950 . S
C220 C221 1.386 . S
C220 C222 1.391 . S
C221 C220 1.386 . S
C221 C225 1.393 . S
C222 H214 0.950 . S
C222 C220 1.391 . S
C222 C223 1.400 . S
C223 C222 1.400 . S
C223 C224 1.398 . S
C223 C229 1.491 1_455 S
C224 H215 0.950 . S
C224 C223 1.398 . S
C224 C225 1.391 . S
C225 H213 0.950 . S
C225 C221 1.393 . S
C225 C224 1.391 . S
C226 H216 0.950 . S
C226 C227 1.386 . S
C226 C228 1.391 . S
C227 C226 1.386 . S
C227 C231 1.393 . S
C228 H217 0.950 . S
C228 C226 1.391 . S
C228 C229 1.400 . S
C229 C223 1.491 1_655 S
C229 C228 1.400 . S
C229 C230 1.398 . S
C230 H218 0.950 . S
C230 C229 1.398 . S
C230 C231 1.391 . S
C231 H219 0.950 . S
C231 C227 1.393 . S
C231 C230 1.391 . S
H232 C240 0.950 . S
H233 C245 0.950 . S
H234 C242 0.950 . S
H235 C244 0.950 . S
H236 C246 0.950 . S
H237 C248 0.950 . S
H238 C250 0.950 . S
H239 C251 0.950 . S
C240 H232 0.950 . S
C240 C241 1.386 . S
C240 C242 1.391 . S
C241 C240 1.386 . S
C241 C245 1.393 . S
C242 H234 0.950 . S
C242 C240 1.391 . S
C242 C243 1.400 . S
C243 C242 1.400 . S
C243 C244 1.398 . S
C243 C249 1.491 1_545 S
C244 H235 0.950 . S
C244 C243 1.398 . S
C244 C245 1.391 . S
C245 H233 0.950 . S
C245 C241 1.393 . S
C245 C244 1.391 . S
C246 H236 0.950 . S
C246 C247 1.386 . S
C246 C248 1.391 . S
C247 C246 1.386 . S
C247 C251 1.393 . S
C248 H237 0.950 . S
C248 C246 1.391 . S
C248 C249 1.400 . S
C249 C243 1.491 1_565 S
C249 C248 1.400 . S
C249 C250 1.398 . S
C250 H238 0.950 . S
C250 C249 1.398 . S
C250 C251 1.391 . S
C251 H239 0.950 . S
C251 C247 1.393 . S
C251 C250 1.391 . S
H252 C260 0.950 . S
H253 C265 0.950 . S
H254 C262 0.950 . S
H255 C264 0.950 . S
H256 C266 0.950 . S
H257 C268 0.950 . S
H258 C270 0.950 . S
H259 C271 0.950 . S
C260 H252 0.950 . S
C260 C261 1.386 . S
C260 C262 1.391 . S
C261 C260 1.386 . S
C261 C265 1.393 . S
C262 H254 0.950 . S
C262 C260 1.391 . S
C262 C263 1.400 . S
C263 C262 1.400 . S
C263 C264 1.398 . S
C263 C269 1.491 1_655 S
C264 H255 0.950 . S
C264 C263 1.398 . S
C264 C265 1.391 . S
C265 H253 0.950 . S
C265 C261 1.393 . S
C265 C264 1.391 . S
C266 H256 0.950 . S
C266 C267 1.386 . S
C266 C268 1.391 . S
C267 C266 1.386 . S
C267 C271 1.393 . S
C268 H257 0.950 . S
C268 C266 1.391 . S
C268 C269 1.400 . S
C269 C263 1.491 1_455 S
C269 C268 1.400 . S
C269 C270 1.398 . S
C270 H258 0.950 . S
C270 C269 1.398 . S
C270 C271 1.391 . S
C271 H259 0.950 . S
C271 C267 1.393 . S
C271 C270 1.391 . S
H272 C280 0.950 . S
H273 C285 0.950 . S
H274 C282 0.950 . S
H275 C284 0.950 . S
H276 C286 0.950 . S
H277 C288 0.950 . S
H278 C290 0.950 . S
H279 C291 0.950 . S
C280 H272 0.950 . S
C280 C281 1.386 . S
C280 C282 1.391 . S
C281 C280 1.386 . S
C281 C285 1.393 . S
C282 H274 0.950 . S
C282 C280 1.391 . S
C282 C283 1.400 . S
C283 C282 1.400 . S
C283 C284 1.398 . S
C283 C289 1.491 . S
C284 H275 0.950 . S
C284 C283 1.398 . S
C284 C285 1.391 . S
C285 H273 0.950 . S
C285 C281 1.393 . S
C285 C284 1.391 . S
C286 H276 0.950 . S
C286 C287 1.386 . S
C286 C288 1.391 . S
C287 C286 1.386 . S
C287 C291 1.393 . S
C288 H277 0.950 . S
C288 C286 1.391 . S
C288 C289 1.400 . S
C289 C283 1.491 . S
C289 C288 1.400 . S
C289 C290 1.398 . S
C290 H278 0.950 . S
C290 C289 1.398 . S
C290 C291 1.391 . S
C291 H279 0.950 . S
C291 C287 1.393 . S
C291 C290 1.391 . S
H292 C300 0.950 . S
H293 C305 0.950 . S
H294 C302 0.950 . S
H295 C304 0.950 . S
H296 C306 0.950 . S
H297 C308 0.950 . S
H298 C310 0.950 . S
H299 C311 0.950 . S
C300 H292 0.950 . S
C300 C301 1.386 . S
C300 C302 1.391 . S
C301 C300 1.386 . S
C301 C305 1.393 . S
C302 H294 0.950 . S
C302 C300 1.391 . S
C302 C303 1.400 . S
C303 C302 1.400 . S
C303 C304 1.398 . S
C303 C309 1.491 . S
C304 H295 0.950 . S
C304 C303 1.398 . S
C304 C305 1.391 . S
C305 H293 0.950 . S
C305 C301 1.393 . S
C305 C304 1.391 . S
C306 H296 0.950 . S
C306 C307 1.386 . S
C306 C308 1.391 . S
C307 C306 1.386 . S
C307 C311 1.393 . S
C308 H297 0.950 . S
C308 C306 1.391 . S
C308 C309 1.400 . S
C309 C303 1.491 . S
C309 C308 1.400 . S
C309 C310 1.398 . S
C310 H298 0.950 . S
C310 C309 1.398 . S
C310 C311 1.391 . S
C311 H299 0.950 . S
C311 C307 1.393 . S
C311 C310 1.391 . S
H312 C320 0.950 . S
H313 C325 0.950 . S
H314 C322 0.950 . S
H315 C324 0.950 . S
H316 C326 0.950 . S
H317 C328 0.950 . S
H318 C330 0.950 . S
H319 C331 0.950 . S
C320 H312 0.950 . S
C320 C321 1.386 . S
C320 C322 1.391 . S
C321 C320 1.386 . S
C321 C325 1.393 . S
C322 H314 0.950 . S
C322 C320 1.391 . S
C322 C323 1.400 . S
C323 C322 1.400 . S
C323 C324 1.398 . S
C323 C329 1.491 . S
C324 H315 0.950 . S
C324 C323 1.398 . S
C324 C325 1.391 . S
C325 H313 0.950 . S
C325 C321 1.393 . S
C325 C324 1.391 . S
C326 H316 0.950 . S
C326 C327 1.386 . S
C326 C328 1.391 . S
C327 C326 1.386 . S
C327 C331 1.393 . S
C328 H317 0.950 . S
C328 C326 1.391 . S
C328 C329 1.400 . S
C329 C323 1.491 . S
C329 C328 1.400 . S
C329 C330 1.398 . S
C330 H318 0.950 . S
C330 C329 1.398 . S
C330 C331 1.391 . S
C331 H319 0.950 . S
C331 C327 1.393 . S
C331 C330 1.391 . S
H332 C340 0.950 . S
H333 C345 0.950 . S
H334 C342 0.950 . S
H335 C344 0.950 . S
H336 C346 0.950 . S
H337 C348 0.950 . S
H338 C350 0.950 . S
H339 C351 0.950 . S
C340 H332 0.950 . S
C340 C341 1.386 . S
C340 C342 1.391 . S
C341 C340 1.386 . S
C341 C345 1.393 . S
C342 H334 0.950 . S
C342 C340 1.391 . S
C342 C343 1.400 . S
C343 C342 1.400 . S
C343 C344 1.398 . S
C343 C349 1.491 . S
C344 H335 0.950 . S
C344 C343 1.398 . S
C344 C345 1.391 . S
C345 H333 0.950 . S
C345 C341 1.393 . S
C345 C344 1.391 . S
C346 H336 0.950 . S
C346 C347 1.386 . S
C346 C348 1.391 . S
C347 C346 1.386 . S
C347 C351 1.393 . S
C348 H337 0.950 . S
C348 C346 1.391 . S
C348 C349 1.400 . S
C349 C343 1.491 . S
C349 C348 1.400 . S
C349 C350 1.398 . S
C350 H338 0.950 . S
C350 C349 1.398 . S
C350 C351 1.391 . S
C351 H339 0.950 . S
C351 C347 1.393 . S
C351 C350 1.391 . S
H352 C360 0.950 . S
H353 C365 0.950 . S
H354 C362 0.950 . S
H355 C364 0.950 . S
H356 C366 0.950 . S
H357 C368 0.950 . S
H358 C370 0.950 . S
H359 C371 0.950 . S
C360 H352 0.950 . S
C360 C361 1.386 . S
C360 C362 1.391 . S
C361 C360 1.386 . S
C361 C365 1.393 . S
C362 H354 0.950 . S
C362 C360 1.391 . S
C362 C363 1.400 . S
C363 C362 1.400 . S
C363 C364 1.398 . S
C363 C369 1.491 . S
C364 H355 0.950 . S
C364 C363 1.398 . S
C364 C365 1.391 . S
C365 H353 0.950 . S
C365 C361 1.393 . S
C365 C364 1.391 . S
C366 H356 0.950 . S
C366 C367 1.386 . S
C366 C368 1.391 . S
C367 C366 1.386 . S
C367 C371 1.393 . S
C368 H357 0.950 . S
C368 C366 1.391 . S
C368 C369 1.400 . S
C369 C363 1.491 . S
C369 C368 1.400 . S
C369 C370 1.398 . S
C370 H358 0.950 . S
C370 C369 1.398 . S
C370 C371 1.391 . S
C371 H359 0.950 . S
C371 C367 1.393 . S
C371 C370 1.391 . S
H372 C380 0.950 . S
H373 C385 0.950 . S
H374 C382 0.950 . S
H375 C384 0.950 . S
H376 C386 0.950 . S
H377 C388 0.950 . S
H378 C390 0.950 . S
H379 C391 0.950 . S
C380 H372 0.950 . S
C380 C381 1.386 . S
C380 C382 1.391 . S
C381 C380 1.386 . S
C381 C385 1.393 . S
C382 H374 0.950 . S
C382 C380 1.391 . S
C382 C383 1.400 . S
C383 C382 1.400 . S
C383 C384 1.398 . S
C383 C389 1.491 . S
C384 H375 0.950 . S
C384 C383 1.398 . S
C384 C385 1.391 . S
C385 H373 0.950 . S
C385 C381 1.393 . S
C385 C384 1.391 . S
C386 H376 0.950 . S
C386 C387 1.386 . S
C386 C388 1.391 . S
C387 C386 1.386 . S
C387 C391 1.393 . S
C388 H377 0.950 . S
C388 C386 1.391 . S
C388 C389 1.400 . S
C389 C383 1.491 . S
C389 C388 1.400 . S
C389 C390 1.398 . S
C390 H378 0.950 . S
C390 C389 1.398 . S
C390 C391 1.391 . S
C391 H379 0.950 . S
C391 C387 1.393 . S
C391 C390 1.391 . S
H392 C400 0.950 . S
H393 C405 0.950 . S
H394 C402 0.950 . S
H395 C404 0.950 . S
H396 C406 0.950 . S
H397 C408 0.950 . S
H398 C410 0.950 . S
H399 C411 0.950 . S
C400 H392 0.950 . S
C400 C401 1.386 . S
C400 C402 1.391 . S
C401 C400 1.386 . S
C401 C405 1.393 . S
C402 H394 0.950 . S
C402 C400 1.391 . S
C402 C403 1.400 . S
C403 C402 1.400 . S
C403 C404 1.398 . S
C403 C409 1.491 . S
C404 H395 0.950 . S
C404 C403 1.398 . S
C404 C405 1.391 . S
C405 H393 0.950 . S
C405 C401 1.393 . S
C405 C404 1.391 . S
C406 H396 0.950 . S
C406 C407 1.386 . S
C406 C408 1.391 . S
C407 C406 1.386 . S
C407 C411 1.393 . S
C408 H397 0.950 . S
C408 C406 1.391 . S
C408 C409 1.400 . S
C409 C403 1.491 . S
C409 C408 1.400 . S
C409 C410 1.398 . S
C410 H398 0.950 . S
C410 C409 1.398 . S
C410 C411 1.391 . S
C411 H399 0.950 . S
C411 C407 1.393 . S
C411 C410 1.391 . S
H412 C420 0.950 . S
H413 C425 0.950 . S
H414 C422 0.950 . S
H415 C424 0.950 . S
H416 C426 0.950 . S
H417 C428 0.950 . S
H418 C430 0.950 . S
H419 C431 0.950 . S
C420 H412 0.950 . S
C420 C421 1.386 . S
C420 C422 1.391 . S
C421 C420 1.386 . S
C421 C425 1.393 . S
C422 H414 0.950 . S
C422 C420 1.391 . S
C422 C423 1.400 . S
C423 C422 1.400 . S
C423 C424 1.398 . S
C423 C429 1.491 . S
C424 H415 0.950 . S
C424 C423 1.398 . S
C424 C425 1.391 . S
C425 H413 0.950 . S
C425 C421 1.393 . S
C425 C424 1.391 . S
C426 H416 0.950 . S
C426 C427 1.386 . S
C426 C428 1.391 . S
C427 C426 1.386 . S
C427 C431 1.393 . S
C428 H417 0.950 . S
C428 C426 1.391 . S
C428 C429 1.400 . S
C429 C423 1.491 . S
C429 C428 1.400 . S
C429 C430 1.398 . S
C430 H418 0.950 . S
C430 C429 1.398 . S
C430 C431 1.391 . S
C431 H419 0.950 . S
C431 C427 1.393 . S
C431 C430 1.391 . S
C121 C8 1.464 . S
C127 C50 1.464 . S
C141 C7 1.463 . S
C147 C21 1.467 . S
C161 C22 1.446 . S
C167 C36 1.446 . S
C181 C49 1.467 . S
C187 C35 1.463 . S
C201 C64 1.452 . S
C207 C106 1.451 . S
C221 C77 1.468 . S
C227 C63 1.465 . S
C241 C92 1.464 . S
C247 C78 1.464 . S
C261 C105 1.454 . S
C267 C91 1.457 . S
C281 C95 1.456 . S
C287 C13 1.356 . S
C301 C25 1.456 . S
C307 C111 1.366 . S
C321 C67 1.452 . S
C327 C41 1.340 . S
C341 C83 1.375 . S
C347 C53 1.460 . S
C361 C81 1.453 . S
C367 C55 1.352 . S
C381 C11 1.452 . S
C387 C97 1.340 . S
C401 C27 1.350 . S
C407 C109 1.455 . S
C421 C39 1.459 . S
C427 C69 1.373 . S
