# Generated by pormake.
# Topology fnt, (5)-cn, num edge types: 1
# Building blocks:
#     Node 0, Type 0, BuildingBlock: XOMCOT_clean_sbu_1, # of connection points: 5
#     Node 1, Type 0, BuildingBlock: XOMCOT_clean_sbu_1, # of connection points: 5
#     Node 2, Type 0, BuildingBlock: XOMCOT_clean_sbu_1, # of connection points: 5
#     Node 3, Type 0, BuildingBlock: XOMCOT_clean_sbu_1, # of connection points: 5
#     Node 4, Type 0, BuildingBlock: XOMCOT_clean_sbu_1, # of connection points: 5
#     Node 5, Type 0, BuildingBlock: XOMCOT_clean_sbu_1, # of connection points: 5
#     Edge 6, Type (0, 0), BuildingBlock: CIFDUS_clean_linker_0, # of connection points: 2
#     Edge 7, Type (0, 0), BuildingBlock: CIFDUS_clean_linker_0, # of connection points: 2
#     Edge 8, Type (0, 0), BuildingBlock: CIFDUS_clean_linker_0, # of connection points: 2
#     Edge 9, Type (0, 0), BuildingBlock: CIFDUS_clean_linker_0, # of connection points: 2
#     Edge 10, Type (0, 0), BuildingBlock: CIFDUS_clean_linker_0, # of connection points: 2
#     Edge 11, Type (0, 0), BuildingBlock: CIFDUS_clean_linker_0, # of connection points: 2
#     Edge 12, Type (0, 0), BuildingBlock: CIFDUS_clean_linker_0, # of connection points: 2
#     Edge 13, Type (0, 0), BuildingBlock: CIFDUS_clean_linker_0, # of connection points: 2
#     Edge 14, Type (0, 0), BuildingBlock: CIFDUS_clean_linker_0, # of connection points: 2
#     Edge 15, Type (0, 0), BuildingBlock: CIFDUS_clean_linker_0, # of connection points: 2
#     Edge 16, Type (0, 0), BuildingBlock: CIFDUS_clean_linker_0, # of connection points: 2
#     Edge 17, Type (0, 0), BuildingBlock: CIFDUS_clean_linker_0, # of connection points: 2
#     Edge 18, Type (0, 0), BuildingBlock: CIFDUS_clean_linker_0, # of connection points: 2
#     Edge 19, Type (0, 0), BuildingBlock: CIFDUS_clean_linker_0, # of connection points: 2
#     Edge 20, Type (0, 0), BuildingBlock: CIFDUS_clean_linker_0, # of connection points: 2
# Relax obj value: 0.137
# Max RMSD: 0.167
# Mean RMSD: 0.167
data_MOF--net-fnt--node1-XOMCOT_clean_sbu_1--edge1-CIFDUS_clean_linker_0
_symmetry_space_group_name_H-M    P1
_symmetry_Int_Tables_number       1
_symmetry_cell_setting            triclinic
loop_
_symmetry_equiv_pos_as_xyz
'x, y, z'
_cell_length_a     24.427341
_cell_length_b     24.405968
_cell_length_c     42.529034
_cell_angle_alpha  90.235634
_cell_angle_beta   89.867174
_cell_angle_gamma 119.65772
loop_
_atom_site_label
_atom_site_type_symbol
_atom_site_fract_x
_atom_site_fract_y
_atom_site_fract_z
_atom_type_partial_charge
C0 C 0.15908 0.37977 0.08287 0.0
C1 C 0.15317 0.39504 0.11328 0.0
N2 N 0.15537 0.35247 0.13249 0.0
N3 N 0.16412 0.32717 0.08262 0.0
C4 C 0.1637 0.31277 0.11336 0.0
H5 H 0.15758 0.4043 0.06205 0.0
Co6 Co 0.1686 0.28855 0.04504 0.0
C7 C 0.09067 0.16317 0.0836 0.0
O8 O 0.07007 0.18111 0.10787 0.0
N9 N 0.17284 0.24988 1.00731 0.0
C10 C 0.14068 0.18066 0.96798 0.0
C11 C 0.12291 0.19843 0.99495 0.0
C12 C 0.22076 0.26253 0.98719 0.0
N13 N 0.20241 0.22066 0.96301 0.0
O14 O 0.25062 0.30455 0.05705 0.0
H15 H 0.07607 0.17506 1.00498 0.0
H16 H 0.26824 0.30107 0.99042 0.0
O17 O 0.12544 0.20325 0.06286 0.0
C18 C 0.28537 0.36261 0.04957 0.0
O19 O 0.25906 0.39058 1.0345 0.0
N20 N 0.09299 0.28238 1.03208 0.0
C21 C 0.01269 0.33073 1.02378 0.0
C22 C -0.00073 0.2842 0.04649 0.0
C23 C 0.04024 0.26033 0.05025 0.0
C24 C 0.10219 0.32143 1.00741 0.0
C25 C 0.0621 0.34579 1.00261 0.0
H26 H 0.03367 0.231 0.07023 0.0
H27 H 0.14489 0.33966 0.99363 0.0
H28 H 0.16947 0.27417 0.12169 0.0
H29 H 0.14455 0.43266 0.12057 0.0
H30 H 0.10981 0.14168 0.95293 0.0
H31 H 0.96166 0.27137 0.06339 0.0
H32 H 0.07316 0.38051 0.98433 0.0
C33 C 0.77709 0.15914 0.42175 0.0
C34 C 0.76017 0.13266 0.45111 0.0
N35 N 0.80603 0.12216 0.46181 0.0
N36 N 0.83335 0.16527 0.41381 0.0
C37 C 0.85001 0.14264 0.43877 0.0
H38 H 0.74956 0.17203 0.40677 0.0
Co39 Co 0.87504 0.19858 0.3756 0.0
C40 C 0.91786 0.10299 0.36563 0.0
O41 O 0.88008 0.07896 0.34139 0.0
N42 N 0.91792 0.23548 0.33765 0.0
C43 C 0.95882 0.31008 0.301 0.0
C44 C 0.92251 0.29001 0.32757 0.0
C45 C 0.95241 0.22343 0.3165 0.0
N46 N 0.97784 0.26835 0.29402 0.0
O47 O 0.93878 0.2714 0.39766 0.0
H48 H 0.90006 0.31364 0.33868 0.0
H49 H 0.9605 0.1839 0.3177 0.0
O50 O 0.92229 0.15135 0.38013 0.0
C51 C 0.91557 0.30748 0.40319 0.0
O52 O 0.85601 0.28621 0.39625 0.0
N53 N 0.80665 0.13202 0.35383 0.0
C54 C 0.68077 0.05623 0.3366 0.0
C55 C 0.70925 0.03387 0.35768 0.0
C56 C 0.77235 0.07262 0.36606 0.0
C57 C 0.78071 0.1517 0.33122 0.0
C58 C 0.71839 0.11419 0.32189 0.0
H59 H 0.79158 0.05725 0.38471 0.0
H60 H 0.80547 0.19922 0.32248 0.0
H61 H 0.89357 0.14135 0.44002 0.0
H62 H 0.7166 0.12045 0.46322 0.0
H63 H 0.96946 0.35168 0.28749 0.0
H64 H 0.68179 0.9895 0.3698 0.0
H65 H 0.69847 0.13283 0.30516 0.0
C66 C 0.61344 0.80965 0.76282 0.0
C67 C 0.60698 0.79569 0.79439 0.0
N68 N 0.65644 0.84227 0.80986 0.0
N69 N 0.66757 0.86408 0.75805 0.0
C70 C 0.69063 0.88443 0.78721 0.0
H71 H 0.58353 0.7793 0.74422 0.0
Co72 Co 0.70524 0.89598 0.71844 0.0
C73 C 0.83211 0.93951 0.7549 0.0
O74 O 0.81548 0.89849 0.77781 0.0
N75 N 0.74366 0.92919 0.67925 0.0
C76 C 0.81236 0.95749 0.63992 0.0
C77 C 0.79661 0.93032 0.66905 0.0
C78 C 0.7279 0.9558 0.65563 0.0
N79 N 0.76906 0.97339 0.63127 0.0
O80 O 0.69462 0.96734 0.72558 0.0
H81 H 0.82222 0.91207 0.68194 0.0
H82 H 0.68659 0.96122 0.65607 0.0
O83 O 0.79115 0.9371 0.73539 0.0
C84 C 0.63683 0.9447 0.71762 0.0
O85 O 0.60686 0.88721 0.70593 0.0
N86 N 0.70593 0.82062 0.70974 0.0
C87 C 0.63457 0.69034 0.7063 0.0
C88 C 0.67553 0.71957 0.73178 0.0
C89 C 0.71249 0.78515 0.73256 0.0
C90 C 0.67462 0.79249 0.68264 0.0
C91 C 0.64068 0.72732 0.67998 0.0
H92 H 0.736 0.80626 0.7542 0.0
H93 H 0.66822 0.81954 0.66446 0.0
H94 H 0.73346 0.92824 0.79153 0.0
H95 H 0.57148 0.75175 0.80453 0.0
H96 H 0.85326 0.96552 0.62643 0.0
H97 H 0.67394 0.69375 0.75268 0.0
H98 H 0.61363 0.70692 0.65878 0.0
C99 C 0.73628 0.59391 0.10819 0.0
C100 C 0.75929 0.59998 0.13837 0.0
N101 N 0.81098 0.65708 0.14101 0.0
N102 N 0.77316 0.64721 0.09192 0.0
C103 C 0.81807 0.68472 0.11279 0.0
H104 H 0.69665 0.55213 0.09855 0.0
Co105 Co 0.76778 0.66401 0.04907 0.0
C106 C 0.86859 0.7976 0.04379 0.0
O107 O 0.8906 0.78286 1.01894 0.0
N108 N 0.76274 0.68289 1.00548 0.0
C109 C 0.78472 0.70685 0.95465 0.0
C110 C 0.79968 0.68516 0.98104 0.0
C111 C 0.72503 0.70327 0.99263 0.0
N112 N 0.73788 0.71825 0.96192 0.0
O113 O 0.68982 0.66297 0.05778 0.0
H114 H 0.83828 0.67561 0.98213 0.0
H115 H 0.69054 0.70968 1.00567 0.0
O116 O 0.81947 0.75493 0.0577 0.0
C117 C 0.65057 0.6046 0.05265 0.0
O118 O 0.67235 0.56885 1.04154 0.0
N119 N 0.83614 0.65156 1.04097 0.0
C120 C 0.90628 0.5903 1.03547 0.0
C121 C 0.93209 0.64953 0.05037 0.0
C122 C 0.89583 0.67957 0.05304 0.0
C123 C 0.8117 0.59478 1.02608 0.0
C124 C 0.84643 0.56471 1.02208 0.0
H125 H 0.91452 0.72302 0.0662 0.0
H126 H 0.76422 0.57216 1.01713 0.0
H127 H 0.85692 0.73091 0.10733 0.0
H128 H 0.7418 0.56389 0.15631 0.0
H129 H 0.80737 0.71483 0.9319 0.0
H130 H 0.97816 0.6707 0.06124 0.0
H131 H 0.82521 0.52024 1.00948 0.0
C132 C 0.20864 0.82039 0.42509 0.0
C133 C 0.22569 0.84557 0.45477 0.0
N134 N 0.18269 0.8607 0.46516 0.0
N135 N 0.15504 0.81949 0.4166 0.0
C136 C 0.14014 0.8441 0.44157 0.0
H137 H 0.23473 0.80538 0.41017 0.0
Co138 Co 0.11563 0.79064 0.37737 0.0
C139 C 0.07606 0.8877 0.36768 0.0
O140 O 0.11245 0.90806 0.34276 0.0
N141 N 0.07466 0.75777 0.3383 0.0
C142 C 0.04314 0.69329 0.29673 0.0
C143 C 0.07859 0.71053 0.32365 0.0
C144 C 0.03309 0.76578 0.32044 0.0
N145 N 0.01449 0.72794 0.29481 0.0
O146 O 0.04973 0.71651 0.39728 0.0
H147 H 0.10635 0.69011 0.33188 0.0
H148 H 0.01554 0.79744 0.32606 0.0
O149 O 0.07033 0.83963 0.38284 0.0
C150 C 0.07225 0.67921 0.40021 0.0
O151 O 0.13096 0.7 0.39163 0.0
N152 N 0.18662 0.85909 0.35761 0.0
C153 C 0.3126 0.93845 0.34115 0.0
C154 C 0.28338 0.95762 0.36367 0.0
C155 C 0.22013 0.91725 0.37151 0.0
C156 C 0.21366 0.84272 0.33394 0.0
C157 C 0.27561 0.8822 0.32482 0.0
H158 H 0.19992 0.93052 0.39069 0.0
H159 H 0.1904 0.79654 0.32373 0.0
H160 H 0.0994 0.85053 0.44229 0.0
H161 H 0.26802 0.85458 0.46715 0.0
H162 H 0.03758 0.65707 0.28017 0.0
H163 H 0.31022 0.00078 0.37697 0.0
H164 H 0.29583 0.86608 0.3068 0.0
C165 C 0.407 0.18412 0.76719 0.0
C166 C 0.40195 0.19359 0.79877 0.0
N167 N 0.34128 0.15739 0.8073 0.0
N168 N 0.3497 0.14243 0.75574 0.0
C169 C 0.31081 0.12639 0.7809 0.0
H170 H 0.44904 0.2092 0.75305 0.0
Co171 Co 0.33014 0.127 0.71277 0.0
C172 C 0.1953 0.08665 0.70992 0.0
O173 O 0.20834 0.12651 0.68671 0.0
N174 N 0.31031 0.11109 0.66865 0.0
C175 C 0.29033 0.119 0.61813 0.0
C176 C 0.31013 0.15034 0.6462 0.0
C177 C 0.29016 0.05569 0.653 0.0
N178 N 0.27758 0.05936 0.62233 0.0
O179 O 0.33854 0.0534 0.71563 0.0
H180 H 0.32084 0.1984 0.64961 0.0
H181 H 0.28331 0.01284 0.66397 0.0
O182 O 0.2396 0.0807 0.72255 0.0
C183 C 0.3975 0.07628 0.71048 0.0
O184 O 0.43051 0.13569 0.70211 0.0
N185 N 0.33352 0.20443 0.71108 0.0
C186 C 0.38843 0.33187 0.72383 0.0
C187 C 0.33 0.29007 0.73712 0.0
C188 C 0.30307 0.22555 0.73051 0.0
C189 C 0.3896 0.24559 0.69762 0.0
C190 C 0.41701 0.30955 0.70299 0.0
H191 H 0.26182 0.19277 0.74353 0.0
H192 H 0.41542 0.22812 0.68422 0.0
H193 H 0.26027 0.09647 0.77953 0.0
H194 H 0.43954 0.22632 0.81397 0.0
H195 H 0.28591 0.13887 0.59621 0.0
H196 H 0.3079 0.30645 0.75395 0.0
H197 H 0.46272 0.34098 0.6928 0.0
H198 H 0.35766 0.48957 0.04793 0.0
H199 H 0.36558 0.32052 0.06857 0.0
H200 H 0.47993 0.38392 0.07573 0.0
H201 H 0.5774 0.48508 0.07073 0.0
H202 H 0.57066 0.65372 0.04805 0.0
H203 H 0.45487 0.59263 0.0478 0.0
C204 C 0.38424 0.46642 0.05416 0.0
C205 C 0.3533 0.40009 0.05717 0.0
C206 C 0.44973 0.5031 0.05794 0.0
C207 C 0.38828 0.37122 0.06589 0.0
C208 C 0.45357 0.40749 0.06993 0.0
C209 C 0.55057 0.50876 0.06614 0.0
C210 C 0.58229 0.5737 0.05906 0.0
C211 C 0.48474 0.47312 0.06525 0.0
C212 C 0.54721 0.60397 0.05368 0.0
C213 C 0.48118 0.56885 0.05322 0.0
H214 H 0.87465 0.39082 0.41359 0.0
H215 H 0.04464 0.37811 0.40857 0.0
H216 H 0.10787 0.49329 0.41135 0.0
H217 H 0.11404 0.59642 0.40894 0.0
H218 H 0.94391 0.60919 0.40953 0.0
H219 H 0.88113 0.49432 0.41505 0.0
C220 C 0.92562 0.41297 0.4135 0.0
C221 C 0.9549 0.37567 0.41055 0.0
C222 C 0.96138 0.47906 0.41402 0.0
C223 C 0.0209 0.40546 0.41078 0.0
C224 C 0.05698 0.47134 0.41217 0.0
C225 C 0.06319 0.5744 0.4106 0.0
C226 C 0.03362 0.6115 0.40846 0.0
C227 C 0.0276 0.50849 0.41281 0.0
C228 C 0.96783 0.58193 0.41103 0.0
C229 C 0.932 0.51624 0.41403 0.0
H230 H 0.52213 0.12557 0.71957 0.0
H231 H 0.34913 0.94776 0.71209 0.0
H232 H 0.40912 0.8917 0.71568 0.0
H233 H 0.51069 0.8943 0.71767 0.0
H234 H 0.68365 0.07223 0.7249 0.0
H235 H 0.62307 0.12786 0.72495 0.0
C236 C 0.49732 0.07445 0.71874 0.0
C237 C 0.43124 0.04068 0.7151 0.0
C238 C 0.53203 0.04299 0.72075 0.0
C239 C 0.39983 0.97463 0.71476 0.0
C240 C 0.43417 0.94277 0.71671 0.0
C241 C 0.53534 0.94533 0.71935 0.0
C242 C 0.60176 0.97935 0.72087 0.0
C243 C 0.50029 0.97661 0.71919 0.0
C244 C 0.63273 0.04518 0.72364 0.0
C245 C 0.59809 0.07683 0.72353 0.0
H246 H 0.62313 0.59109 0.74174 0.0
H247 H 0.51813 0.64397 0.67877 0.0
H248 H 0.42791 0.53948 0.68266 0.0
H249 H 0.38115 0.42988 0.70039 0.0
H250 H 0.48179 0.37928 0.76641 0.0
H251 H 0.56955 0.4877 0.76678 0.0
C252 C 0.58045 0.58069 0.72926 0.0
C253 C 0.57932 0.6256 0.70905 0.0
C254 C 0.5269 0.52121 0.73286 0.0
C255 C 0.52268 0.61003 0.69317 0.0
C256 C 0.47001 0.5504 0.69589 0.0
C257 C 0.42116 0.44363 0.71588 0.0
C258 C 0.42543 0.39777 0.73354 0.0
C259 C 0.47189 0.50535 0.71527 0.0
C260 C 0.47769 0.41486 0.75309 0.0
C261 C 0.52819 0.47632 0.7528 0.0
H262 H 0.8525 0.46481 0.04496 0.0
H263 H 0.03171 0.62987 1.02546 0.0
H264 H 0.08033 0.56327 1.01992 0.0
H265 H 0.07028 0.45799 1.01891 0.0
H266 H 0.88854 0.29312 1.03433 0.0
H267 H 0.84169 0.36034 1.04232 0.0
C268 C 0.9021 0.48639 1.03905 0.0
C269 C 0.93825 0.55215 1.03503 0.0
C270 C 0.92882 0.44787 1.03476 0.0
C271 C 0.00292 0.57943 1.02869 0.0
C272 C 0.03048 0.54133 1.02521 0.0
C273 C 0.0201 0.43659 1.02331 0.0
C274 C 0.98267 0.37051 1.02562 0.0
C275 C 0.99354 0.47544 1.02768 0.0
C276 C 0.91824 0.34375 1.03241 0.0
C277 C 0.89154 0.38213 1.03703 0.0
H278 H 0.38584 0.88433 0.33575 0.0
H279 H 0.39597 0.06592 0.34007 0.0
H280 H 0.51111 0.11814 0.33763 0.0
H281 H 0.60803 0.11152 0.33652 0.0
H282 H 0.59722 0.9297 0.3313 0.0
H283 H 0.48213 0.87785 0.33146 0.0
C284 C 0.41296 0.93541 0.3354 0.0
C285 C 0.3822 0.97123 0.33773 0.0
C286 C 0.47873 0.96485 0.33393 0.0
C287 C 0.41843 0.0373 0.33837 0.0
C288 C 0.48417 0.06709 0.33688 0.0
C289 C 0.58061 0.06058 0.33465 0.0
C290 C 0.6112 0.02447 0.33363 0.0
C291 C 0.51471 0.03125 0.33488 0.0
C292 C 0.57483 0.95847 0.3322 0.0
C293 C 0.50913 0.9289 0.33226 0.0
H294 H 0.985 0.06548 0.10945 0.0
H295 H 0.12935 0.10742 1.03985 0.0
H296 H 0.07351 -0.00184 1.0218 0.0
H297 H 0.98139 0.89247 1.02376 0.0
H298 H 0.83615 0.84931 0.09294 0.0
H299 H 0.89475 0.95741 0.11313 0.0
C300 C 0.00481 0.05058 0.09065 0.0
C301 C 0.06125 0.09495 0.07592 0.0
C302 C 0.97192 0.98762 0.08005 0.0
C303 C 0.08586 0.0746 0.05148 0.0
C304 C 0.05385 0.01207 1.04107 0.0
C305 C 0.96233 0.90648 0.04327 0.0
C306 C 0.90396 0.86279 0.05658 0.0
C307 C -0.00369 0.96851 0.05479 0.0
C308 C 0.88065 0.88194 0.08208 0.0
C309 C 0.91424 0.94376 0.09369 0.0
H310 H 0.1183 0.01303 0.36961 0.0
H311 H 0.95132 0.83304 0.38346 0.0
H312 H 0.88747 0.88513 0.38692 0.0
H313 H 0.87814 0.98101 0.37959 0.0
H314 H 0.04591 0.16146 0.36877 0.0
H315 H 0.11088 0.11053 0.37089 0.0
C316 C 0.06806 0.98542 0.37402 0.0
C317 C 0.03934 0.91922 0.37604 0.0
C318 C 0.03198 0.01588 0.37631 0.0
C319 C 0.97443 0.88397 0.38199 0.0
C320 C 0.93794 0.91378 0.38372 0.0
C321 C 0.92909 0.00921 0.37851 0.0
C322 C 0.95742 0.07488 0.37405 0.0
C323 C 0.96599 0.97951 0.38004 0.0
C324 C 0.02328 0.11105 0.37258 0.0
C325 C 0.06028 0.08178 0.3735 0.0
H326 H 0.09889 0.10572 0.69376 0.0
H327 H 0.1466 -0.00297 0.75646 0.0
H328 H 0.03949 0.94567 0.77795 0.0
H329 H 0.93114 0.92871 0.77719 0.0
H330 H 0.88508 0.03798 0.71393 0.0
H331 H 0.9933 0.09274 0.69474 0.0
C332 C 0.0861 0.07074 0.71212 0.0
C333 C 0.13069 0.0548 0.72323 0.0
C334 C 0.02482 0.04182 0.72441 0.0
C335 C 0.11316 0.00988 0.74729 0.0
C336 C 0.05196 0.98064 0.75965 0.0
C337 C 0.94496 0.96521 0.75957 0.0
C338 C 0.89979 0.97897 0.74694 0.0
C339 C 0.00727 -0.00402 0.74823 0.0
C340 C 0.91865 0.0262 0.72398 0.0
C341 C 0.98052 0.0574 0.71289 0.0
H342 H 0.17776 0.11905 0.92745 0.0
H343 H 0.31099 0.31709 0.93927 0.0
H344 H 0.36877 0.31405 0.89287 0.0
H345 H 0.37733 0.25639 0.84689 0.0
H346 H 0.24032 0.05989 0.83424 0.0
H347 H 0.18711 0.06147 0.88267 0.0
C348 C 0.21902 0.16188 0.91986 0.0
C349 C 0.23928 0.21845 0.93683 0.0
C350 C 0.25111 0.16011 0.8928 0.0
C351 C 0.29423 0.27281 0.92691 0.0
C352 C 0.32713 0.27119 0.9002 0.0
C353 C 0.33641 0.21373 0.855 0.0
C354 C 0.31281 0.15798 0.83697 0.0
C355 C 0.30552 0.21526 0.88272 0.0
C356 C 0.25904 0.1034 0.84753 0.0
C357 C 0.22874 0.10428 0.87526 0.0
H358 H 0.08772 0.24397 0.16477 0.0
H359 H 0.18782 0.44632 0.17442 0.0
H360 H 0.14595 0.43744 0.22749 0.0
H361 H 0.07181 0.37303 0.26853 0.0
H362 H 0.96834 0.17085 0.25902 0.0
H363 H 0.02147 0.17831 0.20887 0.0
C364 C 0.10156 0.28592 0.17882 0.0
C365 C 0.14037 0.34583 0.16556 0.0
C366 C 0.07616 0.2804 0.20919 0.0
C367 C 0.15745 0.39983 0.18398 0.0
C368 C 0.13346 0.39475 0.21428 0.0
C369 C 0.06125 0.33058 0.25556 0.0
C370 C 0.01552 0.27156 0.26718 0.0
C371 C 0.09116 0.33545 0.22668 0.0
C372 C 0.00336 0.2168 0.25055 0.0
C373 C 0.03344 0.22115 0.22179 0.0
H374 H 0.74793 0.12234 0.5159 0.0
H375 H 0.86365 0.054 0.47364 0.0
H376 H 0.86136 0.00092 0.5225 0.0
H377 H 0.82495 0.97222 0.57657 0.0
H378 H 0.71087 0.04177 0.61968 0.0
H379 H 0.71215 0.09418 0.57065 0.0
C380 C 0.77231 0.09551 0.5173 0.0
C381 C 0.80599 0.09231 0.49105 0.0
C382 C 0.77051 0.06476 0.54548 0.0
C383 C 0.83814 0.05809 0.49351 0.0
C384 C 0.83643 0.02727 0.5214 0.0
C385 C 0.80092 -0.00061 0.57556 0.0
C386 C 0.76812 0.00309 0.60207 0.0
C387 C 0.80272 0.03025 0.54749 0.0
C388 C 0.73599 0.0374 0.59972 0.0
C389 C 0.73709 0.06784 0.5717 0.0
H390 H 0.58652 0.76482 0.85764 0.0
H391 H 0.77498 0.91147 0.83417 0.0
H392 H 0.81523 0.88961 0.88144 0.0
H393 H 0.80039 0.81941 0.92566 0.0
H394 H 0.61415 0.67299 0.9503 0.0
H395 H 0.5696 0.70403 0.90657 0.0
C396 C 0.63633 0.79237 0.86283 0.0
C397 C 0.67752 0.83831 0.84125 0.0
C398 C 0.65985 0.77916 0.89029 0.0
C399 C 0.74163 0.87496 0.84945 0.0
C400 C 0.76513 0.86239 0.87668 0.0
C401 C 0.74994 0.79522 0.92169 0.0
C402 C 0.71048 0.74371 0.94072 0.0
C403 C 0.72516 0.81312 0.89657 0.0
C404 C 0.64515 0.71288 0.93585 0.0
C405 C 0.61993 0.73038 0.91075 0.0
H406 H 0.78909 0.66027 0.20291 0.0
H407 H 0.93504 0.70136 0.13482 0.0
H408 H 0.01281 0.73062 0.17691 0.0
H409 H 0.03783 0.73817 0.23333 0.0
H410 H 0.89497 0.70426 0.30189 0.0
H411 H 0.81721 0.67928 0.25971 0.0
C412 C 0.83807 0.67614 0.19752 0.0
C413 C 0.85657 0.67843 0.16599 0.0
C414 C 0.88277 0.69416 0.2219 0.0
C415 C 0.92012 0.69961 0.15898 0.0
C416 C 0.96441 0.71608 0.183 0.0
C417 C 0.98981 0.72621 0.23881 0.0
C418 C 0.97163 0.72271 0.27039 0.0
C419 C 0.94612 0.71277 0.21452 0.0
C420 C 0.90965 0.70754 0.2776 0.0
C421 C 0.86532 0.69285 0.25354 0.0
H422 H 0.20335 0.04584 0.57293 0.0
H423 H 0.3048 0.96462 0.6175 0.0
H424 H 0.27981 0.89141 0.57325 0.0
H425 H 0.23634 0.85674 0.51994 0.0
H426 H 0.13787 0.94106 0.47506 0.0
H427 H 0.15401 0.00648 0.52145 0.0
C428 C 0.21995 0.01207 0.57298 0.0
C429 C 0.25668 0.0113 0.59828 0.0
C430 C 0.20605 0.97084 0.54734 0.0
C431 C 0.27639 0.96611 0.59838 0.0
C432 C 0.26246 0.92458 0.57297 0.0
C433 C 0.21833 0.88936 0.52034 0.0
C434 C 0.18643 0.8943 0.49384 0.0
C435 C 0.22852 0.92752 0.54701 0.0
C436 C 0.16217 0.93585 0.49508 0.0
C437 C 0.17182 0.97368 0.52155 0.0
loop_
_geom_bond_atom_site_label_1
_geom_bond_atom_site_label_2
_geom_bond_distance
_geom_bond_site_symmetry_2
_ccdc_geom_bond_type
C0 C1 1.351 . S
C0 N3 1.368 . S
C0 H5 0.931 . S
C1 C0 1.351 . S
C1 N2 1.373 . S
C1 H29 0.930 . S
N2 C1 1.373 . S
N2 C4 1.340 . S
N3 C0 1.368 . S
N3 C4 1.321 . S
N3 Co6 2.135 . S
C4 N2 1.340 . S
C4 N3 1.321 . S
C4 H28 0.930 . S
H5 C0 0.931 . S
Co6 N3 2.135 . S
Co6 N9 2.121 1_554 S
Co6 O14 2.055 . S
Co6 O17 2.039 . S
Co6 N20 2.146 . S
C7 O8 1.227 . S
C7 O17 1.265 . S
O8 C7 1.227 . S
N9 Co6 2.121 1_556 S
N9 C11 1.375 . S
N9 C12 1.313 . S
C10 C11 1.338 . S
C10 N13 1.377 . S
C10 H30 0.930 . S
C11 N9 1.375 . S
C11 C10 1.338 . S
C11 H15 0.931 . S
C12 N9 1.313 . S
C12 N13 1.344 . S
C12 H16 0.930 . S
N13 C10 1.377 . S
N13 C12 1.344 . S
O14 Co6 2.055 . S
O14 C18 1.253 . S
H15 C11 0.931 . S
H16 C12 0.930 . S
O17 Co6 2.039 . S
O17 C7 1.265 . S
C18 O14 1.253 . S
C18 O19 1.227 . S
O19 C18 1.227 . S
N20 Co6 2.146 . S
N20 C23 1.366 . S
N20 C24 1.318 1_554 S
C21 C22 1.387 1_556 S
C21 C25 1.391 . S
C22 C21 1.387 1_554 S
C22 C23 1.369 . S
C22 H31 0.929 . S
C23 N20 1.366 . S
C23 C22 1.369 . S
C23 H26 0.928 . S
C24 N20 1.318 1_556 S
C24 C25 1.371 . S
C24 H27 0.931 . S
C25 C21 1.391 . S
C25 C24 1.371 . S
C25 H32 0.930 . S
H26 C23 0.928 . S
H27 C24 0.931 . S
H28 C4 0.930 . S
H29 C1 0.930 . S
H30 C10 0.930 . S
H31 C22 0.929 . S
H32 C25 0.930 . S
C33 C34 1.351 . S
C33 N36 1.368 . S
C33 H38 0.931 . S
C34 C33 1.351 . S
C34 N35 1.373 . S
C34 H62 0.930 . S
N35 C34 1.373 . S
N35 C37 1.340 . S
N36 C33 1.368 . S
N36 C37 1.321 . S
N36 Co39 2.135 . S
C37 N35 1.340 . S
C37 N36 1.321 . S
C37 H61 0.930 . S
H38 C33 0.931 . S
Co39 N36 2.135 . S
Co39 N42 2.121 . S
Co39 O47 2.055 . S
Co39 O50 2.039 . S
Co39 N53 2.140 . S
C40 O41 1.227 . S
C40 O50 1.265 . S
O41 C40 1.227 . S
N42 Co39 2.121 . S
N42 C44 1.375 . S
N42 C45 1.313 . S
C43 C44 1.338 . S
C43 N46 1.377 . S
C43 H63 0.930 . S
C44 N42 1.375 . S
C44 C43 1.338 . S
C44 H48 0.931 . S
C45 N42 1.313 . S
C45 N46 1.344 . S
C45 H49 0.930 . S
N46 C43 1.377 . S
N46 C45 1.344 . S
O47 Co39 2.055 . S
O47 C51 1.253 . S
H48 C44 0.931 . S
H49 C45 0.930 . S
O50 Co39 2.039 . S
O50 C40 1.265 . S
C51 O47 1.253 . S
C51 O52 1.227 . S
O52 C51 1.227 . S
N53 Co39 2.140 . S
N53 C56 1.346 . S
N53 C57 1.345 . S
C54 C55 1.387 . S
C54 C58 1.391 . S
C55 C54 1.387 . S
C55 C56 1.369 . S
C55 H64 0.929 . S
C56 N53 1.346 . S
C56 C55 1.369 . S
C56 H59 0.928 . S
C57 N53 1.345 . S
C57 C58 1.371 . S
C57 H60 0.931 . S
C58 C54 1.391 . S
C58 C57 1.371 . S
C58 H65 0.930 . S
H59 C56 0.928 . S
H60 C57 0.931 . S
H61 C37 0.930 . S
H62 C34 0.930 . S
H63 C43 0.930 . S
H64 C55 0.929 . S
H65 C58 0.930 . S
C66 C67 1.351 . S
C66 N69 1.368 . S
C66 H71 0.931 . S
C67 C66 1.351 . S
C67 N68 1.373 . S
C67 H95 0.930 . S
N68 C67 1.373 . S
N68 C70 1.340 . S
N69 C66 1.368 . S
N69 C70 1.321 . S
N69 Co72 2.135 . S
C70 N68 1.340 . S
C70 N69 1.321 . S
C70 H94 0.930 . S
H71 C66 0.931 . S
Co72 N69 2.135 . S
Co72 N75 2.121 . S
Co72 O80 2.055 . S
Co72 O83 2.039 . S
Co72 N86 2.140 . S
C73 O74 1.227 . S
C73 O83 1.265 . S
O74 C73 1.227 . S
N75 Co72 2.121 . S
N75 C77 1.375 . S
N75 C78 1.313 . S
C76 C77 1.338 . S
C76 N79 1.377 . S
C76 H96 0.930 . S
C77 N75 1.375 . S
C77 C76 1.338 . S
C77 H81 0.931 . S
C78 N75 1.313 . S
C78 N79 1.344 . S
C78 H82 0.930 . S
N79 C76 1.377 . S
N79 C78 1.344 . S
O80 Co72 2.055 . S
O80 C84 1.253 . S
H81 C77 0.931 . S
H82 C78 0.930 . S
O83 Co72 2.039 . S
O83 C73 1.265 . S
C84 O80 1.253 . S
C84 O85 1.227 . S
O85 C84 1.227 . S
N86 Co72 2.140 . S
N86 C89 1.346 . S
N86 C90 1.345 . S
C87 C88 1.387 . S
C87 C91 1.391 . S
C88 C87 1.387 . S
C88 C89 1.369 . S
C88 H97 0.929 . S
C89 N86 1.346 . S
C89 C88 1.369 . S
C89 H92 0.928 . S
C90 N86 1.345 . S
C90 C91 1.371 . S
C90 H93 0.931 . S
C91 C87 1.391 . S
C91 C90 1.371 . S
C91 H98 0.930 . S
H92 C89 0.928 . S
H93 C90 0.931 . S
H94 C70 0.930 . S
H95 C67 0.930 . S
H96 C76 0.930 . S
H97 C88 0.929 . S
H98 C91 0.930 . S
C99 C100 1.351 . S
C99 N102 1.368 . S
C99 H104 0.931 . S
C100 C99 1.351 . S
C100 N101 1.373 . S
C100 H128 0.930 . S
N101 C100 1.373 . S
N101 C103 1.340 . S
N102 C99 1.368 . S
N102 C103 1.321 . S
N102 Co105 2.135 . S
C103 N101 1.340 . S
C103 N102 1.321 . S
C103 H127 0.930 . S
H104 C99 0.931 . S
Co105 N102 2.135 . S
Co105 N108 2.121 1_554 S
Co105 O113 2.055 . S
Co105 O116 2.039 . S
Co105 N119 2.146 . S
C106 O107 1.227 . S
C106 O116 1.265 . S
O107 C106 1.227 . S
N108 Co105 2.121 1_556 S
N108 C110 1.375 . S
N108 C111 1.313 . S
C109 C110 1.338 . S
C109 N112 1.377 . S
C109 H129 0.930 . S
C110 N108 1.375 . S
C110 C109 1.338 . S
C110 H114 0.931 . S
C111 N108 1.313 . S
C111 N112 1.344 . S
C111 H115 0.930 . S
N112 C109 1.377 . S
N112 C111 1.344 . S
O113 Co105 2.055 . S
O113 C117 1.253 . S
H114 C110 0.931 . S
H115 C111 0.930 . S
O116 Co105 2.039 . S
O116 C106 1.265 . S
C117 O113 1.253 . S
C117 O118 1.227 . S
O118 C117 1.227 . S
N119 Co105 2.146 . S
N119 C122 1.366 . S
N119 C123 1.318 1_554 S
C120 C121 1.387 1_556 S
C120 C124 1.391 . S
C121 C120 1.387 1_554 S
C121 C122 1.369 . S
C121 H130 0.929 . S
C122 N119 1.366 . S
C122 C121 1.369 . S
C122 H125 0.928 . S
C123 N119 1.318 1_556 S
C123 C124 1.371 . S
C123 H126 0.931 . S
C124 C120 1.391 . S
C124 C123 1.371 . S
C124 H131 0.930 . S
H125 C122 0.928 . S
H126 C123 0.931 . S
H127 C103 0.930 . S
H128 C100 0.930 . S
H129 C109 0.930 . S
H130 C121 0.929 . S
H131 C124 0.930 . S
C132 C133 1.351 . S
C132 N135 1.368 . S
C132 H137 0.931 . S
C133 C132 1.351 . S
C133 N134 1.373 . S
C133 H161 0.930 . S
N134 C133 1.373 . S
N134 C136 1.340 . S
N135 C132 1.368 . S
N135 C136 1.321 . S
N135 Co138 2.135 . S
C136 N134 1.340 . S
C136 N135 1.321 . S
C136 H160 0.930 . S
H137 C132 0.931 . S
Co138 N135 2.135 . S
Co138 N141 2.121 . S
Co138 O146 2.055 . S
Co138 O149 2.039 . S
Co138 N152 2.140 . S
C139 O140 1.227 . S
C139 O149 1.265 . S
O140 C139 1.227 . S
N141 Co138 2.121 . S
N141 C143 1.375 . S
N141 C144 1.313 . S
C142 C143 1.338 . S
C142 N145 1.377 . S
C142 H162 0.930 . S
C143 N141 1.375 . S
C143 C142 1.338 . S
C143 H147 0.931 . S
C144 N141 1.313 . S
C144 N145 1.344 . S
C144 H148 0.930 . S
N145 C142 1.377 . S
N145 C144 1.344 . S
O146 Co138 2.055 . S
O146 C150 1.253 . S
H147 C143 0.931 . S
H148 C144 0.930 . S
O149 Co138 2.039 . S
O149 C139 1.265 . S
C150 O146 1.253 . S
C150 O151 1.227 . S
O151 C150 1.227 . S
N152 Co138 2.140 . S
N152 C155 1.346 . S
N152 C156 1.345 . S
C153 C154 1.387 . S
C153 C157 1.391 . S
C154 C153 1.387 . S
C154 C155 1.369 . S
C154 H163 0.929 . S
C155 N152 1.346 . S
C155 C154 1.369 . S
C155 H158 0.928 . S
C156 N152 1.345 . S
C156 C157 1.371 . S
C156 H159 0.931 . S
C157 C153 1.391 . S
C157 C156 1.371 . S
C157 H164 0.930 . S
H158 C155 0.928 . S
H159 C156 0.931 . S
H160 C136 0.930 . S
H161 C133 0.930 . S
H162 C142 0.930 . S
H163 C154 0.929 . S
H164 C157 0.930 . S
C165 C166 1.351 . S
C165 N168 1.368 . S
C165 H170 0.931 . S
C166 C165 1.351 . S
C166 N167 1.373 . S
C166 H194 0.930 . S
N167 C166 1.373 . S
N167 C169 1.340 . S
N168 C165 1.368 . S
N168 C169 1.321 . S
N168 Co171 2.135 . S
C169 N167 1.340 . S
C169 N168 1.321 . S
C169 H193 0.930 . S
H170 C165 0.931 . S
Co171 N168 2.135 . S
Co171 N174 2.121 . S
Co171 O179 2.055 . S
Co171 O182 2.039 . S
Co171 N185 2.140 . S
C172 O173 1.227 . S
C172 O182 1.265 . S
O173 C172 1.227 . S
N174 Co171 2.121 . S
N174 C176 1.375 . S
N174 C177 1.313 . S
C175 C176 1.338 . S
C175 N178 1.377 . S
C175 H195 0.930 . S
C176 N174 1.375 . S
C176 C175 1.338 . S
C176 H180 0.931 . S
C177 N174 1.313 . S
C177 N178 1.344 . S
C177 H181 0.930 . S
N178 C175 1.377 . S
N178 C177 1.344 . S
O179 Co171 2.055 . S
O179 C183 1.253 . S
H180 C176 0.931 . S
H181 C177 0.930 . S
O182 Co171 2.039 . S
O182 C172 1.265 . S
C183 O179 1.253 . S
C183 O184 1.227 . S
O184 C183 1.227 . S
N185 Co171 2.140 . S
N185 C188 1.346 . S
N185 C189 1.345 . S
C186 C187 1.387 . S
C186 C190 1.391 . S
C187 C186 1.387 . S
C187 C188 1.369 . S
C187 H196 0.929 . S
C188 N185 1.346 . S
C188 C187 1.369 . S
C188 H191 0.928 . S
C189 N185 1.345 . S
C189 C190 1.371 . S
C189 H192 0.931 . S
C190 C186 1.391 . S
C190 C189 1.371 . S
C190 H197 0.930 . S
H191 C188 0.928 . S
H192 C189 0.931 . S
H193 C169 0.930 . S
H194 C166 0.930 . S
H195 C175 0.930 . S
H196 C187 0.929 . S
H197 C190 0.930 . S
H198 C204 0.930 . S
H199 C207 0.930 . S
H200 C208 0.930 . S
H201 C209 0.930 . S
H202 C212 0.930 1_556 S
H203 C213 0.925 1_556 S
C204 H198 0.930 . S
C204 C205 1.355 . S
C204 C206 1.415 . S
C205 C204 1.355 . S
C205 C207 1.419 . S
C206 C204 1.415 . S
C206 C211 1.425 . S
C206 C213 1.414 . S
C207 H199 0.930 . S
C207 C205 1.419 . S
C207 C208 1.362 . S
C208 H200 0.930 . S
C208 C207 1.362 . S
C208 C211 1.409 . S
C209 H201 0.930 . S
C209 C210 1.355 . S
C209 C211 1.415 . S
C210 C209 1.355 . S
C210 C212 1.419 . S
C211 C206 1.425 . S
C211 C208 1.409 . S
C211 C209 1.415 . S
C212 H202 0.930 1_554 S
C212 C210 1.419 . S
C212 C213 1.363 . S
C213 H203 0.925 1_554 S
C213 C206 1.414 . S
C213 C212 1.363 . S
H214 C220 0.930 . S
H215 C223 0.930 . S
H216 C224 0.930 . S
H217 C225 0.930 . S
H218 C228 0.930 . S
H219 C229 0.930 . S
C220 H214 0.930 . S
C220 C221 1.355 . S
C220 C222 1.415 . S
C221 C220 1.355 . S
C221 C223 1.419 1_655 S
C222 C220 1.415 . S
C222 C227 1.425 1_655 S
C222 C229 1.409 . S
C223 H215 0.930 . S
C223 C221 1.419 1_455 S
C223 C224 1.362 . S
C224 H216 0.930 . S
C224 C223 1.362 . S
C224 C227 1.409 . S
C225 H217 0.930 . S
C225 C226 1.355 . S
C225 C227 1.415 . S
C226 C225 1.355 . S
C226 C228 1.419 1_455 S
C227 C222 1.425 1_455 S
C227 C224 1.409 . S
C227 C225 1.415 . S
C228 H218 0.930 . S
C228 C226 1.419 1_655 S
C228 C229 1.362 . S
C229 H219 0.930 . S
C229 C222 1.409 . S
C229 C228 1.362 . S
H230 C236 0.930 . S
H231 C239 0.930 . S
H232 C240 0.930 . S
H233 C241 0.930 . S
H234 C244 0.930 . S
H235 C245 0.930 . S
C236 H230 0.930 . S
C236 C237 1.355 1_565 S
C236 C238 1.415 . S
C237 C236 1.355 1_545 S
C237 C239 1.419 . S
C238 C236 1.415 . S
C238 C243 1.425 1_565 S
C238 C245 1.409 . S
C239 H231 0.930 . S
C239 C237 1.419 . S
C239 C240 1.362 . S
C240 H232 0.930 . S
C240 C239 1.362 . S
C240 C243 1.409 . S
C241 H233 0.930 . S
C241 C242 1.355 1_545 S
C241 C243 1.415 . S
C242 C241 1.355 1_565 S
C242 C244 1.419 . S
C243 C238 1.425 1_545 S
C243 C240 1.409 . S
C243 C241 1.415 . S
C244 H234 0.930 . S
C244 C242 1.419 . S
C244 C245 1.362 . S
C245 H235 0.930 . S
C245 C238 1.409 . S
C245 C244 1.362 . S
H246 C252 0.930 . S
H247 C255 0.930 . S
H248 C256 0.930 . S
H249 C257 0.930 . S
H250 C260 0.930 . S
H251 C261 0.930 . S
C252 H246 0.930 . S
C252 C253 1.355 . S
C252 C254 1.415 . S
C253 C252 1.355 . S
C253 C255 1.419 . S
C254 C252 1.415 . S
C254 C259 1.425 . S
C254 C261 1.409 . S
C255 H247 0.930 . S
C255 C253 1.419 . S
C255 C256 1.362 . S
C256 H248 0.930 . S
C256 C255 1.362 . S
C256 C259 1.409 . S
C257 H249 0.930 . S
C257 C258 1.355 . S
C257 C259 1.415 . S
C258 C257 1.355 . S
C258 C260 1.419 . S
C259 C254 1.425 . S
C259 C256 1.409 . S
C259 C257 1.415 . S
C260 H250 0.930 . S
C260 C258 1.419 . S
C260 C261 1.362 . S
C261 H251 0.930 . S
C261 C254 1.409 . S
C261 C260 1.362 . S
H262 C268 0.930 . S
H263 C271 0.930 . S
H264 C272 0.930 . S
H265 C273 0.930 . S
H266 C276 0.930 . S
H267 C277 0.930 . S
C268 H262 0.930 . S
C268 C269 1.355 . S
C268 C270 1.415 . S
C269 C268 1.355 . S
C269 C271 1.419 1_655 S
C270 C268 1.415 . S
C270 C275 1.425 1_655 S
C270 C277 1.409 . S
C271 H263 0.930 . S
C271 C269 1.419 1_455 S
C271 C272 1.362 . S
C272 H264 0.930 . S
C272 C271 1.362 . S
C272 C275 1.409 . S
C273 H265 0.930 . S
C273 C274 1.355 . S
C273 C275 1.415 . S
C274 C273 1.355 . S
C274 C276 1.419 1_455 S
C275 C270 1.425 1_455 S
C275 C272 1.409 . S
C275 C273 1.415 . S
C276 H266 0.930 . S
C276 C274 1.419 1_655 S
C276 C277 1.362 . S
C277 H267 0.930 . S
C277 C270 1.409 . S
C277 C276 1.362 . S
H278 C284 0.930 . S
H279 C287 0.930 . S
H280 C288 0.930 . S
H281 C289 0.930 . S
H282 C292 0.930 . S
H283 C293 0.930 . S
C284 H278 0.930 . S
C284 C285 1.355 . S
C284 C286 1.415 . S
C285 C284 1.355 . S
C285 C287 1.419 1_565 S
C286 C284 1.415 . S
C286 C291 1.425 1_565 S
C286 C293 1.409 . S
C287 H279 0.930 . S
C287 C285 1.419 1_545 S
C287 C288 1.362 . S
C288 H280 0.930 . S
C288 C287 1.362 . S
C288 C291 1.409 . S
C289 H281 0.930 . S
C289 C290 1.355 . S
C289 C291 1.415 . S
C290 C289 1.355 . S
C290 C292 1.419 1_545 S
C291 C286 1.425 1_545 S
C291 C288 1.409 . S
C291 C289 1.415 . S
C292 H282 0.930 . S
C292 C290 1.419 1_565 S
C292 C293 1.362 . S
C293 H283 0.930 . S
C293 C286 1.409 . S
C293 C292 1.362 . S
H294 C300 0.930 . S
H295 C303 0.926 1_556 S
H296 C304 0.942 . S
H297 C305 0.930 . S
H298 C308 0.930 . S
H299 C309 0.930 . S
C300 H294 0.930 . S
C300 C301 1.355 . S
C300 C302 1.415 . S
C301 C300 1.355 . S
C301 C303 1.424 1_455 S
C302 C300 1.415 . S
C302 C307 1.425 1_445 S
C302 C309 1.409 1_545 S
C303 H295 0.926 1_554 S
C303 C301 1.424 1_655 S
C303 C304 1.361 1_554 S
C304 H296 0.942 . S
C304 C303 1.361 1_556 S
C304 C307 1.400 1_546 S
C305 H297 0.930 . S
C305 C306 1.355 . S
C305 C307 1.415 . S
C306 C305 1.355 . S
C306 C308 1.419 1_655 S
C307 C302 1.425 1_665 S
C307 C304 1.400 1_564 S
C307 C305 1.415 . S
C308 H298 0.930 . S
C308 C306 1.419 1_455 S
C308 C309 1.362 . S
C309 H299 0.930 . S
C309 C302 1.409 1_565 S
C309 C308 1.362 . S
H310 C316 0.930 1_655 S
H311 C319 0.930 . S
H312 C320 0.930 . S
H313 C321 0.930 1_455 S
H314 C324 0.930 . S
H315 C325 0.930 . S
C316 H310 0.930 1_455 S
C316 C317 1.355 . S
C316 C318 1.415 1_455 S
C317 C316 1.355 . S
C317 C319 1.419 1_565 S
C318 C316 1.415 1_655 S
C318 C323 1.425 1_665 S
C318 C325 1.409 . S
C319 H311 0.930 . S
C319 C317 1.419 1_545 S
C319 C320 1.362 . S
C320 H312 0.930 . S
C320 C319 1.362 . S
C320 C323 1.409 . S
C321 H313 0.930 1_655 S
C321 C322 1.355 . S
C321 C323 1.415 1_655 S
C322 C321 1.355 . S
C322 C324 1.419 1_545 S
C323 C318 1.425 1_445 S
C323 C320 1.409 . S
C323 C321 1.415 1_455 S
C324 H314 0.930 . S
C324 C322 1.419 1_565 S
C324 C325 1.362 . S
C325 H315 0.930 . S
C325 C318 1.409 . S
C325 C324 1.362 . S
H326 C332 0.930 . S
H327 C335 0.930 . S
H328 C336 0.930 . S
H329 C337 0.930 . S
H330 C340 0.930 . S
H331 C341 0.930 . S
C332 H326 0.930 . S
C332 C333 1.355 . S
C332 C334 1.415 . S
C333 C332 1.355 . S
C333 C335 1.419 1_545 S
C334 C332 1.415 . S
C334 C339 1.425 1_445 S
C334 C341 1.409 1_455 S
C335 H327 0.930 . S
C335 C333 1.419 1_565 S
C335 C336 1.362 . S
C336 H328 0.930 . S
C336 C335 1.362 . S
C336 C339 1.409 1_455 S
C337 H329 0.930 . S
C337 C338 1.355 . S
C337 C339 1.415 . S
C338 C337 1.355 . S
C338 C340 1.419 1_565 S
C339 C334 1.425 1_665 S
C339 C336 1.409 1_655 S
C339 C337 1.415 . S
C340 H330 0.930 . S
C340 C338 1.419 1_545 S
C340 C341 1.362 . S
C341 H331 0.930 . S
C341 C334 1.409 1_655 S
C341 C340 1.362 . S
H342 C348 0.930 . S
H343 C351 0.930 . S
H344 C352 0.930 . S
H345 C353 0.930 . S
H346 C356 0.930 . S
H347 C357 0.930 . S
C348 H342 0.930 . S
C348 C349 1.355 . S
C348 C350 1.415 . S
C349 C348 1.355 . S
C349 C351 1.419 . S
C350 C348 1.415 . S
C350 C355 1.425 . S
C350 C357 1.409 . S
C351 H343 0.930 . S
C351 C349 1.419 . S
C351 C352 1.362 . S
C352 H344 0.930 . S
C352 C351 1.362 . S
C352 C355 1.409 . S
C353 H345 0.930 . S
C353 C354 1.355 . S
C353 C355 1.415 . S
C354 C353 1.355 . S
C354 C356 1.419 . S
C355 C350 1.425 . S
C355 C352 1.409 . S
C355 C353 1.415 . S
C356 H346 0.930 . S
C356 C354 1.419 . S
C356 C357 1.362 . S
C357 H347 0.930 . S
C357 C350 1.409 . S
C357 C356 1.362 . S
H358 C364 0.930 . S
H359 C367 0.930 . S
H360 C368 0.930 . S
H361 C369 0.930 . S
H362 C372 0.930 . S
H363 C373 0.930 . S
C364 H358 0.930 . S
C364 C365 1.355 . S
C364 C366 1.415 . S
C365 C364 1.355 . S
C365 C367 1.419 . S
C366 C364 1.415 . S
C366 C371 1.425 . S
C366 C373 1.409 1_455 S
C367 H359 0.930 . S
C367 C365 1.419 . S
C367 C368 1.362 . S
C368 H360 0.930 . S
C368 C367 1.362 . S
C368 C371 1.409 . S
C369 H361 0.930 . S
C369 C370 1.355 1_455 S
C369 C371 1.415 . S
C370 C369 1.355 1_655 S
C370 C372 1.419 . S
C371 C366 1.425 . S
C371 C368 1.409 . S
C371 C369 1.415 . S
C372 H362 0.930 . S
C372 C370 1.419 . S
C372 C373 1.362 . S
C373 H363 0.930 . S
C373 C366 1.409 1_655 S
C373 C372 1.362 . S
H374 C380 0.930 . S
H375 C383 0.930 . S
H376 C384 0.930 . S
H377 C385 0.930 . S
H378 C388 0.930 . S
H379 C389 0.930 . S
C380 H374 0.930 . S
C380 C381 1.355 . S
C380 C382 1.415 . S
C381 C380 1.355 . S
C381 C383 1.419 . S
C382 C380 1.415 . S
C382 C387 1.425 . S
C382 C389 1.409 . S
C383 H375 0.930 . S
C383 C381 1.419 . S
C383 C384 1.362 1_545 S
C384 H376 0.930 . S
C384 C383 1.362 1_565 S
C384 C387 1.409 1_565 S
C385 H377 0.930 . S
C385 C386 1.355 . S
C385 C387 1.415 1_565 S
C386 C385 1.355 . S
C386 C388 1.419 1_565 S
C387 C382 1.425 . S
C387 C384 1.409 1_545 S
C387 C385 1.415 1_545 S
C388 H378 0.930 . S
C388 C386 1.419 1_545 S
C388 C389 1.362 . S
C389 H379 0.930 . S
C389 C382 1.409 . S
C389 C388 1.362 . S
H390 C396 0.930 . S
H391 C399 0.930 . S
H392 C400 0.930 . S
H393 C401 0.930 . S
H394 C404 0.930 . S
H395 C405 0.930 . S
C396 H390 0.930 . S
C396 C397 1.355 . S
C396 C398 1.415 . S
C397 C396 1.355 . S
C397 C399 1.419 . S
C398 C396 1.415 . S
C398 C403 1.425 . S
C398 C405 1.409 . S
C399 H391 0.930 . S
C399 C397 1.419 . S
C399 C400 1.362 . S
C400 H392 0.930 . S
C400 C399 1.362 . S
C400 C403 1.409 . S
C401 H393 0.930 . S
C401 C402 1.355 . S
C401 C403 1.415 . S
C402 C401 1.355 . S
C402 C404 1.419 . S
C403 C398 1.425 . S
C403 C400 1.409 . S
C403 C401 1.415 . S
C404 H394 0.930 . S
C404 C402 1.419 . S
C404 C405 1.362 . S
C405 H395 0.930 . S
C405 C398 1.409 . S
C405 C404 1.362 . S
H406 C412 0.930 . S
H407 C415 0.930 . S
H408 C416 0.930 . S
H409 C417 0.930 . S
H410 C420 0.930 . S
H411 C421 0.930 . S
C412 H406 0.930 . S
C412 C413 1.355 . S
C412 C414 1.415 . S
C413 C412 1.355 . S
C413 C415 1.419 . S
C414 C412 1.415 . S
C414 C419 1.425 . S
C414 C421 1.409 1_655 S
C415 H407 0.930 . S
C415 C413 1.419 . S
C415 C416 1.362 . S
C416 H408 0.930 . S
C416 C415 1.362 . S
C416 C419 1.409 . S
C417 H409 0.930 . S
C417 C418 1.355 1_655 S
C417 C419 1.415 . S
C418 C417 1.355 1_455 S
C418 C420 1.419 . S
C419 C414 1.425 . S
C419 C416 1.409 . S
C419 C417 1.415 . S
C420 H410 0.930 . S
C420 C418 1.419 . S
C420 C421 1.362 . S
C421 H411 0.930 . S
C421 C414 1.409 1_455 S
C421 C420 1.362 . S
H422 C428 0.930 . S
H423 C431 0.930 . S
H424 C432 0.930 . S
H425 C433 0.930 . S
H426 C436 0.930 . S
H427 C437 0.930 . S
C428 H422 0.930 . S
C428 C429 1.355 1_565 S
C428 C430 1.415 . S
C429 C428 1.355 1_545 S
C429 C431 1.419 . S
C430 C428 1.415 . S
C430 C435 1.425 . S
C430 C437 1.409 . S
C431 H423 0.930 . S
C431 C429 1.419 . S
C431 C432 1.362 . S
C432 H424 0.930 . S
C432 C431 1.362 . S
C432 C435 1.409 1_545 S
C433 H425 0.930 . S
C433 C434 1.355 . S
C433 C435 1.415 . S
C434 C433 1.355 . S
C434 C436 1.419 . S
C435 C430 1.425 . S
C435 C432 1.409 1_565 S
C435 C433 1.415 . S
C436 H426 0.930 . S
C436 C434 1.419 . S
C436 C437 1.362 . S
C437 H427 0.930 . S
C437 C430 1.409 . S
C437 C436 1.362 . S
C205 C18 1.659 . S
C210 C117 1.651 . S
C221 C51 1.670 . S
C226 C150 1.682 . S
C237 C183 1.659 . S
C242 C84 1.651 . S
C253 C87 0.988 . S
C258 C186 0.959 . S
C269 C120 0.997 . S
C274 C21 1.008 . S
C285 C153 0.995 . S
C290 C54 1.009 . S
C301 C7 0.838 . S
C306 C106 0.828 . S
C317 C139 0.839 . S
C322 C40 0.828 . S
C333 C172 0.837 . S
C338 C73 0.842 . S
C349 N13 1.627 . S
C354 N167 1.776 . S
C365 N2 1.758 . S
C370 N46 1.604 . S
C381 N35 1.788 . S
C386 N79 1.677 . S
C397 N68 1.777 . S
C402 N112 1.629 . S
C413 N101 1.758 . S
C418 N145 1.602 . S
C429 N178 1.688 . S
C434 N134 1.785 . S
