# Generated by pormake.
# Topology lcy-e, (6)-cn, num edge types: 1
# Building blocks:
#     Node 0, Type 0, BuildingBlock: CIFDUS_clean_sbu_1, # of connection points: 6
#     Node 1, Type 0, BuildingBlock: CIFDUS_clean_sbu_1, # of connection points: 6
#     Node 2, Type 0, BuildingBlock: CIFDUS_clean_sbu_1, # of connection points: 6
#     Node 3, Type 0, BuildingBlock: CIFDUS_clean_sbu_1, # of connection points: 6
#     Node 4, Type 0, BuildingBlock: CIFDUS_clean_sbu_1, # of connection points: 6
#     Node 5, Type 0, BuildingBlock: CIFDUS_clean_sbu_1, # of connection points: 6
#     Node 6, Type 0, BuildingBlock: CIFDUS_clean_sbu_1, # of connection points: 6
#     Node 7, Type 0, BuildingBlock: CIFDUS_clean_sbu_1, # of connection points: 6
#     Node 8, Type 0, BuildingBlock: CIFDUS_clean_sbu_1, # of connection points: 6
#     Node 9, Type 0, BuildingBlock: CIFDUS_clean_sbu_1, # of connection points: 6
#     Node 10, Type 0, BuildingBlock: CIFDUS_clean_sbu_1, # of connection points: 6
#     Node 11, Type 0, BuildingBlock: CIFDUS_clean_sbu_1, # of connection points: 6
#     Edge 12, Type (0, 0), BuildingBlock: UVAHIK_clean_linker_0, # of connection points: 2
#     Edge 13, Type (0, 0), BuildingBlock: UVAHIK_clean_linker_0, # of connection points: 2
#     Edge 14, Type (0, 0), BuildingBlock: UVAHIK_clean_linker_0, # of connection points: 2
#     Edge 15, Type (0, 0), BuildingBlock: UVAHIK_clean_linker_0, # of connection points: 2
#     Edge 16, Type (0, 0), BuildingBlock: UVAHIK_clean_linker_0, # of connection points: 2
#     Edge 17, Type (0, 0), BuildingBlock: UVAHIK_clean_linker_0, # of connection points: 2
#     Edge 18, Type (0, 0), BuildingBlock: UVAHIK_clean_linker_0, # of connection points: 2
#     Edge 19, Type (0, 0), BuildingBlock: UVAHIK_clean_linker_0, # of connection points: 2
#     Edge 20, Type (0, 0), BuildingBlock: UVAHIK_clean_linker_0, # of connection points: 2
#     Edge 21, Type (0, 0), BuildingBlock: UVAHIK_clean_linker_0, # of connection points: 2
#     Edge 22, Type (0, 0), BuildingBlock: UVAHIK_clean_linker_0, # of connection points: 2
#     Edge 23, Type (0, 0), BuildingBlock: UVAHIK_clean_linker_0, # of connection points: 2
#     Edge 24, Type (0, 0), BuildingBlock: UVAHIK_clean_linker_0, # of connection points: 2
#     Edge 25, Type (0, 0), BuildingBlock: UVAHIK_clean_linker_0, # of connection points: 2
#     Edge 26, Type (0, 0), BuildingBlock: UVAHIK_clean_linker_0, # of connection points: 2
#     Edge 27, Type (0, 0), BuildingBlock: UVAHIK_clean_linker_0, # of connection points: 2
#     Edge 28, Type (0, 0), BuildingBlock: UVAHIK_clean_linker_0, # of connection points: 2
#     Edge 29, Type (0, 0), BuildingBlock: UVAHIK_clean_linker_0, # of connection points: 2
#     Edge 30, Type (0, 0), BuildingBlock: UVAHIK_clean_linker_0, # of connection points: 2
#     Edge 31, Type (0, 0), BuildingBlock: UVAHIK_clean_linker_0, # of connection points: 2
#     Edge 32, Type (0, 0), BuildingBlock: UVAHIK_clean_linker_0, # of connection points: 2
#     Edge 33, Type (0, 0), BuildingBlock: UVAHIK_clean_linker_0, # of connection points: 2
#     Edge 34, Type (0, 0), BuildingBlock: UVAHIK_clean_linker_0, # of connection points: 2
#     Edge 35, Type (0, 0), BuildingBlock: UVAHIK_clean_linker_0, # of connection points: 2
#     Edge 36, Type (0, 0), BuildingBlock: UVAHIK_clean_linker_0, # of connection points: 2
#     Edge 37, Type (0, 0), BuildingBlock: UVAHIK_clean_linker_0, # of connection points: 2
#     Edge 38, Type (0, 0), BuildingBlock: UVAHIK_clean_linker_0, # of connection points: 2
#     Edge 39, Type (0, 0), BuildingBlock: UVAHIK_clean_linker_0, # of connection points: 2
#     Edge 40, Type (0, 0), BuildingBlock: UVAHIK_clean_linker_0, # of connection points: 2
#     Edge 41, Type (0, 0), BuildingBlock: UVAHIK_clean_linker_0, # of connection points: 2
#     Edge 42, Type (0, 0), BuildingBlock: UVAHIK_clean_linker_0, # of connection points: 2
#     Edge 43, Type (0, 0), BuildingBlock: UVAHIK_clean_linker_0, # of connection points: 2
#     Edge 44, Type (0, 0), BuildingBlock: UVAHIK_clean_linker_0, # of connection points: 2
#     Edge 45, Type (0, 0), BuildingBlock: UVAHIK_clean_linker_0, # of connection points: 2
#     Edge 46, Type (0, 0), BuildingBlock: UVAHIK_clean_linker_0, # of connection points: 2
#     Edge 47, Type (0, 0), BuildingBlock: UVAHIK_clean_linker_0, # of connection points: 2
# Relax obj value: 0.272
# Max RMSD: 0.265
# Mean RMSD: 0.265
data_MOF--net-lcy-e--node1-CIFDUS_clean_sbu_1--edge1-UVAHIK_clean_linker_0
_symmetry_space_group_name_H-M    P1
_symmetry_Int_Tables_number       1
_symmetry_cell_setting            triclinic
loop_
_symmetry_equiv_pos_as_xyz
'x, y, z'
_cell_length_a     45.888016
_cell_length_b     45.915482
_cell_length_c     45.898417
_cell_angle_alpha  89.963474
_cell_angle_beta   90.031074
_cell_angle_gamma 90.112233
loop_
_atom_site_label
_atom_site_type_symbol
_atom_site_fract_x
_atom_site_fract_y
_atom_site_fract_z
_atom_type_partial_charge
O0 O 0.09564 0.16691 0.43583 0.0
Mn1 Mn 0.12554 0.19865 0.44955 0.0
O2 O 0.05641 0.19265 0.42087 0.0
Mn3 Mn 0.07053 0.23036 0.4256 0.0
O4 O 0.15389 0.23151 0.46453 0.0
O5 O 0.143 0.16956 0.47663 0.0
Mn6 Mn 0.18082 0.17399 0.4801 0.0
O7 O 0.15587 0.18704 0.41749 0.0
O8 O 0.18458 0.21055 0.49642 0.0
O9 O 0.09663 0.21168 0.48268 0.0
O10 O 0.06683 0.24504 0.46278 0.0
O11 O 0.17097 0.14051 0.50053 0.0
O12 O 0.19511 0.17059 0.44238 0.0
C13 C 0.10689 0.24234 0.39838 0.0
C14 C 0.06927 0.16848 0.42618 0.0
C15 C 0.17329 0.2331 0.4848 0.0
C16 C 0.14493 0.14567 0.49108 0.0
C17 C 0.18214 0.17717 0.41862 0.0
C18 C 0.07752 0.23212 0.48492 0.0
O19 O 0.10823 0.22681 0.42156 0.0
O20 O 0.08109 0.25228 0.39315 0.0
O21 O 0.08747 0.84304 0.6854 0.0
Mn22 Mn 0.05362 0.87162 0.69625 0.0
O23 O 0.06506 0.80232 0.66892 0.0
Mn24 Mn 0.02655 0.81403 0.67253 0.0
O25 O 0.01886 0.89878 0.70827 0.0
O26 O 0.08042 0.89134 0.72414 0.0
Mn27 Mn 0.07417 0.92884 0.72645 0.0
O28 O 0.06567 0.90135 0.66374 0.0
O29 O 0.03656 0.93106 0.74057 0.0
O30 O 0.04025 0.84336 0.72966 0.0
O31 O 0.01094 0.80969 0.70937 0.0
O32 O 0.10694 0.92101 0.74901 0.0
O33 O 0.07857 0.94199 0.68841 0.0
C34 C 0.01289 0.8488 0.64403 0.0
C35 C 0.08797 0.81674 0.67557 0.0
C36 C 0.01524 0.91859 0.72779 0.0
C37 C 0.1032 0.8946 0.74003 0.0
C38 C 0.07397 0.9282 0.66462 0.0
C39 C 0.0216 0.82243 0.73166 0.0
O40 O 0.02762 0.85189 0.66761 0.0
O41 O 0.0051 0.82215 0.63919 0.0
O42 O 0.35024 0.8106 0.91523 0.0
Mn43 Mn 0.37987 0.79841 0.94734 0.0
O44 O 0.30924 0.82163 0.94015 0.0
Mn45 Mn 0.3236 0.82019 0.97816 0.0
O46 O 0.40851 0.78472 0.98033 0.0
O47 O 0.39816 0.77155 0.91894 0.0
Mn48 Mn 0.43595 0.76864 0.92296 0.0
O49 O 0.40937 0.83108 0.93534 0.0
O50 O 0.43903 0.75241 0.95965 0.0
O51 O 0.35186 0.76448 0.9608 0.0
O52 O 0.32218 0.78363 0.99464 0.0
O53 O 0.42584 0.74941 0.88866 0.0
O54 O 0.44945 0.80675 0.92017 0.0
C55 C 0.35841 0.84999 0.98909 0.0
C56 C 0.32299 0.81709 0.91631 0.0
C57 C 0.42781 0.76439 0.98208 0.0
C58 C 0.39987 0.75874 0.89421 0.0
C59 C 0.43587 0.83033 0.92602 0.0
C60 C 0.33341 0.76174 0.98184 0.0
O61 O 0.36115 0.82626 0.97465 0.0
O62 O 0.33221 0.85427 0.99842 0.0
O63 O 0.43655 0.10016 0.15603 0.0
Mn64 Mn 0.45029 0.12518 0.1916 0.0
O65 O 0.41696 0.05914 0.1749 0.0
Mn66 Mn 0.42363 0.06684 0.21409 0.0
O67 O 0.46513 0.14949 0.22746 0.0
O68 O 0.47839 0.14519 0.16536 0.0
Mn69 Mn 0.48159 0.18249 0.17235 0.0
O70 O 0.41882 0.15689 0.1826 0.0
O71 O 0.49621 0.18319 0.20976 0.0
O72 O 0.48246 0.09445 0.202 0.0
O73 O 0.46078 0.05857 0.22748 0.0
O74 O 0.50368 0.17482 0.13929 0.0
O75 O 0.44403 0.19678 0.16848 0.0
C76 C 0.39846 0.10197 0.23261 0.0
C77 C 0.424 0.07521 0.15327 0.0
C78 C 0.48477 0.16932 0.23099 0.0
C79 C 0.49429 0.14846 0.14264 0.0
C80 C 0.42012 0.18362 0.17412 0.0
C81 C 0.48359 0.07154 0.2182 0.0
O82 O 0.42151 0.10492 0.21704 0.0
O83 O 0.392 0.07507 0.23796 0.0
O84 O 0.65643 0.31486 0.58132 0.0
Mn85 Mn 0.62879 0.30283 0.5476 0.0
O86 O 0.69955 0.32449 0.55968 0.0
Mn87 Mn 0.68814 0.32318 0.52073 0.0
O88 O 0.60147 0.28868 0.5136 0.0
O89 O 0.60744 0.27793 0.57533 0.0
Mn90 Mn 0.5697 0.27667 0.5701 0.0
O91 O 0.60067 0.33701 0.55677 0.0
O92 O 0.56856 0.25845 0.53429 0.0
O93 O 0.65637 0.268 0.53672 0.0
O94 O 0.68953 0.28617 0.50526 0.0
O95 O 0.57798 0.25966 0.60635 0.0
O96 O 0.55785 0.31542 0.56828 0.0
C97 C 0.65391 0.35336 0.50815 0.0
C98 C 0.68379 0.32063 0.58233 0.0
C99 C 0.58151 0.26884 0.51192 0.0
C100 C 0.60459 0.26683 0.60064 0.0
C101 C 0.57335 0.33788 0.56266 0.0
C102 C 0.67646 0.26471 0.5173 0.0
O103 O 0.65037 0.32871 0.52065 0.0
O104 O 0.68075 0.35812 0.50108 0.0
O105 O 0.9367 0.40843 0.83299 0.0
Mn106 Mn 0.94368 0.37892 0.79943 0.0
O107 O 0.92749 0.45149 0.81102 0.0
Mn108 Mn 0.92641 0.43915 0.77235 0.0
O109 O 0.95236 0.34958 0.76547 0.0
O110 O 0.96905 0.35635 0.82587 0.0
Mn111 Mn 0.96519 0.31852 0.82334 0.0
O112 O 0.90788 0.35421 0.81226 0.0
O113 O 0.97737 0.31218 0.78542 0.0
O114 O 0.97988 0.40305 0.78517 0.0
O115 O 0.96261 0.43771 0.75494 0.0
O116 O 0.98892 0.32653 0.85554 0.0
O117 O 0.92569 0.31186 0.82999 0.0
C118 C 0.8937 0.40705 0.76079 0.0
C119 C 0.93217 0.43602 0.83373 0.0
C120 C 0.96791 0.32626 0.7633 0.0
C121 C 0.98363 0.35346 0.84939 0.0
C122 C 0.90458 0.32886 0.82368 0.0
C123 C 0.98358 0.42282 0.76552 0.0
O124 O 0.91771 0.40204 0.77393 0.0
O125 O 0.89071 0.43399 0.75329 0.0
O126 O 0.89739 0.66625 0.06207 0.0
Mn127 Mn 0.86705 0.69736 0.04842 0.0
O128 O 0.93627 0.69218 0.07796 0.0
Mn129 Mn 0.92222 0.72962 0.07207 0.0
O130 O 0.83806 0.72934 0.03351 0.0
O131 O 0.84945 0.66793 0.02199 0.0
Mn132 Mn 0.81161 0.67131 0.0187 0.0
O133 O 0.83752 0.68541 0.08102 0.0
O134 O 0.80747 0.7076 0.00193 0.0
O135 O 0.89542 0.71057 0.01494 0.0
O136 O 0.92621 0.74345 0.03449 0.0
O137 O 0.82222 0.63762 0.99882 0.0
O138 O 0.798 0.66877 0.05675 0.0
C139 C 0.88551 0.74138 0.09898 0.0
C140 C 0.92342 0.66806 0.07252 0.0
C141 C 0.81854 0.7304 0.01334 0.0
C142 C 0.84814 0.64391 0.00788 0.0
C143 C 0.81118 0.67562 0.08036 0.0
C144 C 0.91502 0.7306 0.0125 0.0
O145 O 0.88441 0.72616 0.07562 0.0
O146 O 0.91128 0.75143 0.10441 0.0
O147 O 0.58329 0.64604 0.31846 0.0
Mn148 Mn 0.5493 0.6199 0.30321 0.0
O149 O 0.56245 0.68767 0.33442 0.0
Mn150 Mn 0.52397 0.67993 0.32401 0.0
O151 O 0.51462 0.59463 0.28696 0.0
O152 O 0.57807 0.59697 0.28026 0.0
Mn153 Mn 0.56943 0.55963 0.27945 0.0
O154 O 0.55454 0.59137 0.33791 0.0
O155 O 0.53437 0.55904 0.25975 0.0
O156 O 0.54246 0.64819 0.26801 0.0
O157 O 0.51553 0.68561 0.28499 0.0
O158 O 0.60531 0.56414 0.26111 0.0
O159 O 0.56662 0.54797 0.31825 0.0
C160 C 0.50323 0.64489 0.34808 0.0
C161 C 0.58475 0.67157 0.32999 0.0
C162 C 0.51249 0.57391 0.26812 0.0
C163 C 0.60218 0.59144 0.26723 0.0
C164 C 0.56001 0.56407 0.33994 0.0
C165 C 0.52702 0.67131 0.26408 0.0
O166 O 0.52141 0.64212 0.32722 0.0
O167 O 0.49625 0.67169 0.35287 0.0
O168 O 0.18259 0.40979 0.14891 0.0
Mn169 Mn 0.19305 0.44491 0.12174 0.0
O170 O 0.16563 0.42886 0.1909 0.0
Mn171 Mn 0.17234 0.4679 0.18257 0.0
O172 O 0.20467 0.48003 0.09477 0.0
O173 O 0.21814 0.41832 0.0986 0.0
Mn174 Mn 0.21465 0.42327 0.06085 0.0
O175 O 0.15744 0.43531 0.09505 0.0
O176 O 0.22764 0.46111 0.05566 0.0
O177 O 0.22862 0.45605 0.14828 0.0
O178 O 0.21046 0.48039 0.18694 0.0
O179 O 0.2388 0.39122 0.0666 0.0
O180 O 0.17539 0.41712 0.05308 0.0
C181 C 0.14496 0.48672 0.14913 0.0
C182 C 0.17181 0.40717 0.17465 0.0
C183 C 0.21971 0.48281 0.07117 0.0
C184 C 0.2338 0.39571 0.09395 0.0
C185 C 0.15416 0.42433 0.06951 0.0
C186 C 0.23187 0.47172 0.17139 0.0
O187 O 0.16739 0.47079 0.14484 0.0
O188 O 0.14047 0.49228 0.17635 0.0
O189 O 0.69083 0.09064 0.84187 0.0
Mn190 Mn 0.70111 0.05452 0.86739 0.0
O191 O 0.67095 0.07332 0.80026 0.0
Mn192 Mn 0.67433 0.03374 0.80834 0.0
O193 O 0.71284 0.01803 0.89234 0.0
O194 O 0.73033 0.07873 0.88775 0.0
Mn195 Mn 0.73344 0.07207 0.925 0.0
O196 O 0.66994 0.06567 0.89855 0.0
O197 O 0.74556 0.03379 0.9255 0.0
O198 O 0.73304 0.04206 0.83741 0.0
O199 O 0.71073 0.01786 0.80102 0.0
O200 O 0.75682 0.10435 0.91635 0.0
O201 O 0.69577 0.0776 0.93883 0.0
C202 C 0.6473 0.01695 0.84321 0.0
C203 C 0.67957 0.09423 0.81648 0.0
C204 C 0.73215 0.01331 0.91224 0.0
C205 C 0.74661 0.10116 0.89032 0.0
C206 C 0.67161 0.07357 0.92544 0.0
C207 C 0.73373 0.02586 0.81453 0.0
O208 O 0.6712 0.03109 0.84645 0.0
O209 O 0.64091 0.01208 0.81621 0.0
O210 O 0.80979 0.9106 0.3455 0.0
Mn211 Mn 0.79915 0.94367 0.37501 0.0
O212 O 0.8249 0.93408 0.30488 0.0
Mn213 Mn 0.82145 0.97223 0.31781 0.0
O214 O 0.78706 0.97766 0.40306 0.0
O215 O 0.77185 0.91612 0.39461 0.0
Mn216 Mn 0.77009 0.92164 0.43227 0.0
O217 O 0.83221 0.93142 0.40395 0.0
O218 O 0.75546 0.95881 0.43543 0.0
O219 O 0.76503 0.95713 0.34746 0.0
O220 O 0.78453 0.98781 0.31463 0.0
O221 O 0.74782 0.88879 0.42428 0.0
O222 O 0.80837 0.91749 0.44476 0.0
C223 C 0.85075 0.98569 0.35192 0.0
C224 C 0.81876 0.91079 0.31888 0.0
C225 C 0.76768 0.98053 0.42316 0.0
C226 C 0.75646 0.89297 0.39781 0.0
C227 C 0.83187 0.92257 0.43062 0.0
C228 C 0.76251 0.97641 0.3272 0.0
O229 O 0.82751 0.97039 0.35551 0.0
O230 O 0.8547 0.99396 0.32527 0.0
O231 O 0.34429 0.55896 0.60706 0.0
Mn232 Mn 0.30872 0.54896 0.63351 0.0
O233 O 0.32562 0.57399 0.56401 0.0
Mn234 Mn 0.28624 0.57092 0.57303 0.0
O235 O 0.27285 0.53719 0.6593 0.0
O236 O 0.33435 0.52246 0.65606 0.0
Mn237 Mn 0.32773 0.52259 0.69353 0.0
O238 O 0.31851 0.58307 0.66219 0.0
O239 O 0.2902 0.50817 0.69499 0.0
O240 O 0.29711 0.51441 0.60566 0.0
O241 O 0.27099 0.53388 0.56891 0.0
O242 O 0.3614 0.50074 0.68736 0.0
O243 O 0.33099 0.56135 0.70452 0.0
C244 C 0.26993 0.59999 0.60629 0.0
C245 C 0.34704 0.56783 0.58064 0.0
C246 C 0.26911 0.51902 0.68044 0.0
C247 C 0.35769 0.50784 0.66037 0.0
C248 C 0.32593 0.58408 0.68925 0.0
C249 C 0.2802 0.51193 0.58331 0.0
O250 O 0.28406 0.57635 0.61079 0.0
O251 O 0.26448 0.60457 0.57904 0.0
C252 C 0.17483 0.28789 0.48125 0.0
C253 C 0.18372 0.26199 0.49495 0.0
C254 C 0.18539 0.31488 0.4909 0.0
C255 C 0.2193 0.35088 0.55468 0.0
H256 H 0.24444 0.40833 0.49809 0.0
C257 C 0.27946 0.45713 0.58791 0.0
C258 C 0.27068 0.48263 0.5734 0.0
C259 C 0.26961 0.42979 0.57844 0.0
C260 C 0.23727 0.39263 0.5142 0.0
H261 H 0.21052 0.24433 0.5298 0.0
H262 H 0.22883 0.29107 0.54629 0.0
H263 H 0.2244 0.36204 0.4814 0.0
H264 H 0.2446 0.49918 0.53746 0.0
H265 H 0.22742 0.45201 0.52143 0.0
H266 H 0.23201 0.38153 0.58749 0.0
C267 C 0.21355 0.29063 0.5283 0.0
C268 C 0.22572 0.36613 0.50461 0.0
C269 C 0.20315 0.26376 0.51864 0.0
C270 C 0.252 0.4801 0.54919 0.0
C271 C 0.24223 0.45294 0.53979 0.0
C272 C 0.23079 0.37742 0.56429 0.0
C273 C 0.20489 0.31651 0.51454 0.0
C274 C 0.21657 0.34496 0.52473 0.0
C275 C 0.25086 0.42743 0.55424 0.0
C276 C 0.23982 0.39866 0.54416 0.0
H277 H 0.15987 0.28735 0.46299 0.0
H278 H 0.17809 0.33449 0.48001 0.0
H279 H 0.21213 0.33514 0.57076 0.0
H280 H 0.29384 0.45825 0.6066 0.0
H281 H 0.27687 0.41051 0.58991 0.0
C282 C 0.78841 0.02468 0.81684 0.0
C283 C 0.76231 0.01564 0.80352 0.0
C284 C 0.81523 0.01428 0.80692 0.0
C285 C 0.84841 0.95342 0.76656 0.0
H286 H 0.91448 0.00581 0.76057 0.0
C287 C 0.96084 0.91811 0.72008 0.0
C288 C 0.98541 0.92843 0.73527 0.0
C289 C 0.93296 0.92848 0.7269 0.0
C290 C 0.8963 0.99083 0.76235 0.0
H291 H 0.74412 0.98867 0.76912 0.0
H292 H 0.79089 0.97075 0.75183 0.0
H293 H 0.86724 0.02477 0.77544 0.0
H294 H -0.0003 0.95723 0.77005 0.0
H295 H 0.95146 0.97482 0.78198 0.0
H296 H 0.87764 0.91941 0.75376 0.0
C297 C 0.79055 0.98565 0.77011 0.0
C298 C 0.86925 0.00171 0.77089 0.0
C299 C 0.76374 0.99611 0.77994 0.0
C300 C 0.98139 0.94894 0.75766 0.0
C301 C 0.95368 0.95923 0.76443 0.0
C302 C 0.87554 0.94251 0.75805 0.0
C303 C 0.81658 0.99454 0.78353 0.0
C304 C 0.84506 0.98309 0.77339 0.0
C305 C 0.92916 0.94937 0.749 0.0
C306 C 0.89987 0.96105 0.7562 0.0
H307 H 0.78816 0.03964 0.83507 0.0
H308 H 0.83491 0.02129 0.81793 0.0
H309 H 0.83024 0.93846 0.76855 0.0
H310 H 0.96314 0.90233 0.70271 0.0
H311 H 0.91447 0.92057 0.71453 0.0
C312 C 0.3068 0.72945 0.01668 0.0
C313 C 0.32345 0.73243 0.9911 0.0
C314 C 0.29603 0.70237 0.02521 0.0
C315 C 0.27599 0.63052 0.99664 0.0
H316 H 0.27713 0.60806 0.07814 0.0
C317 C 0.24469 0.51533 0.03522 0.0
C318 C 0.22916 0.51219 0.06149 0.0
C319 C 0.25527 0.54242 0.02648 0.0
C320 C 0.27625 0.61419 0.05537 0.0
H321 H 0.34218 0.70899 0.95465 0.0
H322 H 0.32329 0.66135 0.96972 0.0
H323 H 0.29917 0.65406 0.06319 0.0
H324 H 0.21205 0.5355 0.09883 0.0
H325 H 0.23035 0.58312 0.0833 0.0
H326 H 0.25295 0.59073 0.98881 0.0
C327 C 0.31847 0.68024 0.98298 0.0
C328 C 0.28901 0.64048 0.04677 0.0
C329 C 0.32944 0.70746 0.97446 0.0
C330 C 0.22397 0.53709 0.07852 0.0
C331 C 0.23462 0.56433 0.06972 0.0
C332 C 0.26317 0.60425 0.00524 0.0
C333 C 0.30154 0.67747 0.00842 0.0
C334 C 0.28901 0.64896 0.01732 0.0
C335 C 0.25061 0.56723 0.04368 0.0
C336 C 0.26318 0.59574 0.03471 0.0
H337 H 0.30179 0.74815 0.03014 0.0
H338 H 0.28279 0.70108 0.0447 0.0
H339 H 0.27519 0.63667 0.97387 0.0
H340 H 0.24916 0.49672 0.02145 0.0
H341 H 0.26781 0.54375 0.00654 0.0
C342 C 0.51391 0.03547 0.24574 0.0
C343 C 0.51237 0.06001 0.2274 0.0
C344 C 0.54069 0.02544 0.25605 0.0
C345 C 0.61977 0.02783 0.24221 0.0
H346 H 0.62566 0.00636 0.32378 0.0
C347 C 0.73044 0.00865 0.29722 0.0
C348 C 0.73316 0.98539 0.31701 0.0
C349 C 0.70323 0.01684 0.28651 0.0
C350 C 0.6243 0.01188 0.30087 0.0
H351 H 0.5381 0.09285 0.20508 0.0
H352 H 0.58495 0.07527 0.22316 0.0
H353 H 0.57899 0.02244 0.30405 0.0
H354 H 0.70911 0.95274 0.34134 0.0
H355 H 0.66136 0.96696 0.32232 0.0
H356 H 0.66502 0.01729 0.23896 0.0
C357 C 0.5653 0.06375 0.22941 0.0
C358 C 0.59757 0.02114 0.28957 0.0
C359 C 0.53843 0.07388 0.21912 0.0
C360 C 0.7078 0.97078 0.32617 0.0
C361 C 0.68045 0.97898 0.31533 0.0
C362 C 0.64646 0.0185 0.25348 0.0
C363 C 0.56668 0.03959 0.24825 0.0
C364 C 0.59503 0.02938 0.26013 0.0
C365 C 0.67791 0.00197 0.29516 0.0
C366 C 0.64913 0.01063 0.28301 0.0
H367 H 0.49436 0.02409 0.25252 0.0
H368 H 0.54103 0.00649 0.27012 0.0
H369 H 0.61844 0.03355 0.21934 0.0
H370 H 0.74939 0.02067 0.28987 0.0
H371 H 0.70206 0.03505 0.27155 0.0
C372 C 0.67334 0.21016 0.52169 0.0
C373 C 0.68563 0.23506 0.50873 0.0
C374 C 0.68242 0.18235 0.51322 0.0
C375 C 0.74337 0.14419 0.47714 0.0
H376 H 0.68613 0.08349 0.46364 0.0
C377 C 0.77149 0.03514 0.4207 0.0
C378 C 0.7592 0.00996 0.43309 0.0
C379 C 0.76282 0.06274 0.43021 0.0
C380 C 0.7024 0.10015 0.46759 0.0
H381 H 0.71696 0.25013 0.47649 0.0
H382 H 0.73234 0.20197 0.46171 0.0
H383 H 0.67024 0.13111 0.48087 0.0
H384 H 0.72839 0.99414 0.46548 0.0
H385 H 0.71369 0.04197 0.48202 0.0
H386 H 0.77551 0.11326 0.46374 0.0
C387 C 0.7161 0.20386 0.47872 0.0
C388 C 0.69329 0.12737 0.47753 0.0
C389 C 0.70708 0.23151 0.48713 0.0
C390 C 0.73826 0.013 0.45527 0.0
C391 C 0.72964 0.04046 0.4647 0.0
C392 C 0.75247 0.11698 0.46718 0.0
C393 C 0.70396 0.17898 0.49169 0.0
C394 C 0.71367 0.1497 0.48231 0.0
C395 C 0.74169 0.06563 0.45221 0.0
C396 C 0.73207 0.09469 0.46228 0.0
H397 H 0.6568 0.21212 0.53841 0.0
H398 H 0.67282 0.16351 0.52373 0.0
H399 H 0.75963 0.16088 0.48102 0.0
H400 H 0.78765 0.03357 0.40358 0.0
H401 H 0.77233 0.08182 0.42004 0.0
C402 C 0.03803 0.4199 0.77042 0.0
C403 C 0.01332 0.42988 0.75536 0.0
C404 C 0.06591 0.4285 0.76157 0.0
C405 C 0.10681 0.45931 0.69937 0.0
H406 H 0.16012 0.48634 0.75912 0.0
C407 C 0.21481 0.51908 0.67263 0.0
C408 C 0.23926 0.51001 0.68869 0.0
C409 C 0.18689 0.50952 0.6804 0.0
C410 C 0.14556 0.47863 0.7422 0.0
H411 H 0.99859 0.45579 0.71855 0.0
H412 H 0.04697 0.47076 0.70341 0.0
H413 H 0.11263 0.46704 0.77308 0.0
H414 H 0.25341 0.48394 0.72566 0.0
H415 H 0.20514 0.46731 0.73882 0.0
H416 H 0.1398 0.47094 0.66848 0.0
C417 C 0.04489 0.45627 0.72193 0.0
C418 C 0.11844 0.46747 0.75021 0.0
C419 C 0.01712 0.44783 0.7308 0.0
C420 C 0.23514 0.49146 0.71275 0.0
C421 C 0.20739 0.48201 0.72049 0.0
C422 C 0.13398 0.47045 0.69135 0.0
C423 C 0.06955 0.44701 0.7374 0.0
C424 C 0.09879 0.45769 0.72889 0.0
C425 C 0.18296 0.49086 0.70441 0.0
C426 C 0.15365 0.48016 0.7127 0.0
H427 H 0.03583 0.40602 0.78939 0.0
H428 H 0.08462 0.42079 0.77372 0.0
H429 H 0.09218 0.45168 0.68248 0.0
H430 H 0.21722 0.53336 0.65399 0.0
H431 H 0.16837 0.51688 0.66776 0.0
C432 C 0.7254 0.95896 0.90802 0.0
C433 C 0.73873 0.98311 0.92139 0.0
C434 C 0.73166 0.93068 0.91761 0.0
C435 C 0.76024 0.89103 0.98149 0.0
H436 H 0.77942 0.83026 0.92619 0.0
C437 C 0.81791 0.78505 0.01571 0.0
C438 C 0.8079 0.75902 0.00306 0.0
C439 C 0.80769 0.81191 0.00569 0.0
C440 C 0.77377 0.84691 0.94189 0.0
H441 H 0.76929 0.99631 0.9552 0.0
H442 H 0.78011 0.94748 0.97149 0.0
H443 H 0.76349 0.87781 0.90843 0.0
H444 H 0.77925 0.7409 0.96992 0.0
H445 H 0.76144 0.78761 0.95276 0.0
H446 H 0.7708 0.86036 0.01494 0.0
C447 C 0.76457 0.95028 0.95394 0.0
C448 C 0.76458 0.87407 0.93171 0.0
C449 C 0.75847 0.97834 0.94436 0.0
C450 C 0.78749 0.76048 0.9802 0.0
C451 C 0.77737 0.78728 0.97018 0.0
C452 C 0.7694 0.86393 0.99165 0.0
C453 C 0.75116 0.92616 0.94084 0.0
C454 C 0.75817 0.89652 0.95142 0.0
C455 C 0.78735 0.81327 0.98279 0.0
C456 C 0.77662 0.8417 0.97197 0.0
H457 H 0.7101 0.96188 0.89028 0.0
H458 H 0.72098 0.9124 0.90717 0.0
H459 H 0.75495 0.90781 0.99719 0.0
H460 H 0.83365 0.78472 0.03331 0.0
H461 H 0.81603 0.83164 0.01561 0.0
C462 C 0.48176 0.54689 0.23219 0.0
C463 C 0.48357 0.56578 0.25625 0.0
C464 C 0.45481 0.53759 0.22169 0.0
C465 C 0.37602 0.554 0.22279 0.0
H466 H 0.36853 0.47265 0.20103 0.0
C467 C 0.26484 0.49964 0.20459 0.0
C468 C 0.26147 0.48118 0.18034 0.0
C469 C 0.29223 0.51003 0.2126 0.0
C470 C 0.37038 0.49548 0.20666 0.0
H471 H 0.4583 0.59022 0.28775 0.0
H472 H 0.41102 0.57358 0.26959 0.0
H473 H 0.41543 0.49128 0.21777 0.0
H474 H 0.28462 0.4588 0.14578 0.0
H475 H 0.33279 0.47698 0.15999 0.0
H476 H 0.33081 0.55802 0.21208 0.0
C477 C 0.43059 0.56625 0.25867 0.0
C478 C 0.39724 0.5062 0.21626 0.0
C479 C 0.45767 0.57572 0.26915 0.0
C480 C 0.28641 0.47295 0.16457 0.0
C481 C 0.31398 0.4833 0.17273 0.0
C482 C 0.34915 0.54325 0.21329 0.0
C483 C 0.4289 0.54679 0.23502 0.0
C484 C 0.40035 0.53557 0.22455 0.0
C485 C 0.31707 0.50221 0.19667 0.0
C486 C 0.346 0.51383 0.20531 0.0
H487 H 0.50124 0.53907 0.22144 0.0
H488 H 0.45431 0.52314 0.20305 0.0
H489 H 0.37778 0.57681 0.22852 0.0
H490 H 0.24624 0.50642 0.21741 0.0
H491 H 0.29396 0.5241 0.23145 0.0
C492 C 0.51719 0.19773 0.26414 0.0
C493 C 0.49471 0.17712 0.26069 0.0
C494 C 0.5268 0.20575 0.29174 0.0
C495 C 0.5043 0.20901 0.36808 0.0
H496 H 0.58699 0.22084 0.38161 0.0
C497 C 0.55059 0.2361 0.4813 0.0
C498 C 0.57231 0.25772 0.48305 0.0
C499 C 0.54146 0.2254 0.45443 0.0
C500 C 0.56383 0.21793 0.37806 0.0
H501 H 0.46482 0.14865 0.28378 0.0
H502 H 0.48183 0.16275 0.33239 0.0
H503 H 0.57035 0.20214 0.33473 0.0
H504 H 0.60156 0.28493 0.45772 0.0
H505 H 0.58536 0.26624 0.4105 0.0
H506 H 0.49778 0.22497 0.41135 0.0
C507 C 0.49178 0.17275 0.31347 0.0
C508 C 0.55429 0.20713 0.35127 0.0
C509 C 0.48213 0.1646 0.28567 0.0
C510 C 0.58481 0.26828 0.45716 0.0
C511 C 0.57564 0.25748 0.43015 0.0
C512 C 0.51385 0.21979 0.39489 0.0
C513 C 0.51426 0.1934 0.31672 0.0
C514 C 0.52441 0.20281 0.3459 0.0
C515 C 0.55377 0.23599 0.42856 0.0
C516 C 0.5437 0.22453 0.40009 0.0
H517 H 0.52744 0.20793 0.24548 0.0
H518 H 0.54377 0.22209 0.29349 0.0
H519 H 0.48113 0.20631 0.36444 0.0
H520 H 0.54052 0.22726 0.50074 0.0
H521 H 0.52493 0.20853 0.45396 0.0
C522 C 0.04793 0.26512 0.51638 0.0
C523 C 0.06664 0.24098 0.51399 0.0
C524 C 0.03709 0.27373 0.54335 0.0
C525 C 0.02161 0.24734 0.61713 0.0
H526 H 0.01882 0.32972 0.63572 0.0
C527 C 0.99295 0.28977 0.73159 0.0
C528 C 0.97625 0.31535 0.73406 0.0
C529 C 0.00273 0.28018 0.70452 0.0
C530 C 0.01902 0.30668 0.63069 0.0
H531 H 0.08863 0.20699 0.53835 0.0
H532 H 0.06958 0.22222 0.58581 0.0
H533 H 0.03982 0.31394 0.58963 0.0
H534 H 0.9561 0.35042 0.70965 0.0
H535 H 0.97294 0.33335 0.66212 0.0
H536 H 0.00071 0.24007 0.65816 0.0
C537 C 0.06326 0.23428 0.56653 0.0
C538 C 0.03119 0.29762 0.60434 0.0
C539 C 0.07429 0.22567 0.53941 0.0
C540 C 0.96897 0.3307 0.70858 0.0
C541 C 0.97879 0.32103 0.68137 0.0
C542 C 0.00936 0.25641 0.64347 0.0
C543 C 0.04458 0.25847 0.56874 0.0
C544 C 0.03259 0.26786 0.59724 0.0
C545 C 0.99604 0.2958 0.6791 0.0
C546 C 0.00795 0.28619 0.65058 0.0
H547 H 0.0415 0.2775 0.49735 0.0
H548 H 0.02242 0.29217 0.54424 0.0
H549 H 0.02198 0.2243 0.61208 0.0
H550 H 0.99904 0.27731 0.75068 0.0
H551 H 0.01627 0.2609 0.70365 0.0
C552 C 0.02208 0.82579 0.78641 0.0
C553 C 0.01193 0.81237 0.76081 0.0
C554 C 0.01212 0.81647 0.8137 0.0
C555 C 0.9765 0.75417 0.85084 0.0
H556 H 0.95593 0.81203 0.9087 0.0
C557 C 0.91551 0.72537 0.95782 0.0
C558 C 0.92571 0.73916 0.98322 0.0
C559 C 0.92594 0.73389 0.93041 0.0
C560 C 0.96182 0.79558 0.89287 0.0
H561 H 0.98347 0.77841 0.74398 0.0
H562 H 0.96608 0.76253 0.79128 0.0
H563 H 0.97549 0.82762 0.86186 0.0
H564 H 0.95501 0.77266 -0.00043 0.0
H565 H 0.97312 0.78712 0.95216 0.0
H566 H 0.96276 0.72213 0.8819 0.0
C567 C 0.98198 0.77998 0.79036 0.0
C568 C 0.97311 0.80453 0.86606 0.0
C569 C 0.99186 0.78927 0.76318 0.0
C570 C 0.94653 0.76155 0.98055 0.0
C571 C 0.95683 0.77004 0.95329 0.0
C572 C 0.96519 0.74522 0.87767 0.0
C573 C 0.99188 0.7935 0.81594 0.0
C574 C 0.98059 0.78393 0.84474 0.0
C575 C 0.94663 0.75642 0.92789 0.0
C576 C 0.95779 0.76583 0.89901 0.0
H577 H 0.03759 0.84358 0.78541 0.0
H578 H 0.02041 0.82713 0.83306 0.0
H579 H 0.98239 0.73773 0.835 0.0
H580 H 0.89949 0.70806 0.95906 0.0
H581 H 0.91751 0.72312 0.91118 0.0
C582 C 0.50601 0.70795 0.2298 0.0
C583 C 0.52126 0.68174 0.23407 0.0
C584 C 0.49836 0.71711 0.20191 0.0
C585 C 0.48439 0.68891 0.12848 0.0
H586 H 0.48487 0.77086 0.10776 0.0
C587 C 0.45641 0.73012 0.01323 0.0
C588 C 0.43841 0.75482 0.01101 0.0
C589 C 0.46726 0.7212 0.04014 0.0
C590 C 0.48435 0.74794 0.11336 0.0
H591 H 0.54128 0.64506 0.21208 0.0
H592 H 0.5281 0.66134 0.16305 0.0
H593 H 0.50485 0.75545 0.15453 0.0
H594 H 0.41751 0.78933 0.03553 0.0
H595 H 0.43657 0.7736 0.08277 0.0
H596 H 0.46388 0.68146 0.08726 0.0
C597 C 0.52175 0.67453 0.18153 0.0
C598 C 0.49586 0.73909 0.1401 0.0
C599 C 0.52946 0.66531 0.20958 0.0
C600 C 0.43132 0.77024 0.03647 0.0
C601 C 0.44237 0.76136 0.06347 0.0
C602 C 0.47299 0.69777 0.10168 0.0
C603 C 0.50582 0.70039 0.17746 0.0
C604 C 0.49575 0.7095 0.14809 0.0
C605 C 0.46051 0.73677 0.06552 0.0
C606 C 0.47265 0.7274 0.09395 0.0
H607 H 0.49935 0.72127 0.24808 0.0
H608 H 0.48576 0.7369 0.19964 0.0
H609 H 0.48353 0.66603 0.13416 0.0
H610 H 0.46229 0.71763 0.99411 0.0
H611 H 0.48141 0.70235 0.04098 0.0
C612 C 0.1471 0.26821 0.37339 0.0
C613 C 0.12934 0.24351 0.37583 0.0
C614 C 0.16086 0.27458 0.34694 0.0
C615 C 0.1404 0.26791 0.27187 0.0
H616 H 0.21007 0.31394 0.25865 0.0
C617 C 0.14559 0.37353 0.20809 0.0
C618 C 0.16774 0.37792 0.18746 0.0
C619 C 0.1446 0.34799 0.22446 0.0
C620 C 0.19087 0.30051 0.26173 0.0
H621 H 0.11323 0.20509 0.3538 0.0
H622 H 0.13738 0.21606 0.30755 0.0
H623 H 0.20609 0.284 0.30277 0.0
H624 H 0.20492 0.35826 0.16641 0.0
H625 H 0.20427 0.3139 0.19643 0.0
H626 H 0.12415 0.28642 0.23221 0.0
C627 C 0.14091 0.23043 0.32593 0.0
C628 C 0.18851 0.28358 0.28701 0.0
C629 C 0.12728 0.22404 0.35239 0.0
C630 C 0.18791 0.35551 0.18236 0.0
C631 C 0.1875 0.3302 0.19946 0.0
C632 C 0.1426 0.28511 0.2469 0.0
C633 C 0.15652 0.25657 0.32248 0.0
C634 C 0.16273 0.26808 0.2929 0.0
C635 C 0.1661 0.32657 0.221 0.0
C636 C 0.16733 0.30245 0.24225 0.0
H637 H 0.14836 0.28379 0.39107 0.0
H638 H 0.17246 0.29505 0.34491 0.0
H639 H 0.1201 0.2565 0.27585 0.0
H640 H 0.12962 0.39035 0.21235 0.0
H641 H 0.12797 0.34573 0.24107 0.0
C642 C 0.99719 0.89888 0.62867 0.0
C643 C 0.00851 0.87139 0.62181 0.0
C644 C 0.98725 0.91724 0.60631 0.0
C645 C 0.97959 0.92167 0.52435 0.0
H646 H 0.89978 0.94061 0.54385 0.0
C647 C 0.88476 0.9357 0.4391 0.0
C648 C 0.85935 0.92068 0.44755 0.0
C649 C 0.90819 0.93874 0.45862 0.0
C650 C 0.92212 0.9357 0.53803 0.0
H651 H 0.021 0.84248 0.58679 0.0
H652 H 0.00374 0.8738 0.54822 0.0
H653 H 0.93476 0.93279 0.58258 0.0
H654 H 0.84005 0.89439 0.48188 0.0
H655 H 0.88064 0.89897 0.51507 0.0
H656 H 0.96579 0.92189 0.47964 0.0
C657 C 0.00251 0.88181 0.57036 0.0
C658 C 0.94239 0.93165 0.5603 0.0
C659 C 0.01212 0.86357 0.59254 0.0
C660 C 0.85889 0.90676 0.47482 0.0
C661 C 0.88209 0.90966 0.49407 0.0
C662 C 0.95913 0.92545 0.502 0.0
C663 C 0.98863 0.90827 0.5769 0.0
C664 C 0.97091 0.92267 0.55382 0.0
C665 C 0.90651 0.92658 0.48672 0.0
C666 C 0.9298 0.93065 0.50882 0.0
H667 H 0.99431 0.90533 0.65118 0.0
H668 H 0.97708 0.93768 0.61211 0.0
H669 H 0.00165 0.91565 0.51856 0.0
H670 H 0.88604 0.94612 0.41803 0.0
H671 H 0.92704 0.95142 0.45215 0.0
C672 C 0.33466 0.6127 0.73446 0.0
C673 C 0.32578 0.61226 0.70515 0.0
C674 C 0.33006 0.6371 0.75169 0.0
C675 C 0.32087 0.71522 0.752 0.0
H676 H 0.30336 0.69696 0.83262 0.0
C677 C 0.38549 0.76119 0.8426 0.0
C678 C 0.37698 0.75833 0.87176 0.0
C679 C 0.36607 0.75502 0.82018 0.0
C680 C 0.30735 0.70312 0.8102 0.0
H681 H 0.3075 0.63842 0.67038 0.0
H682 H 0.29927 0.68164 0.70092 0.0
H683 H 0.29418 0.66108 0.79521 0.0
H684 H 0.34074 0.7498 0.90067 0.0
H685 H 0.3062 0.73903 0.86122 0.0
H686 H 0.33473 0.75709 0.76713 0.0
C687 C 0.30921 0.66251 0.71047 0.0
C688 C 0.30244 0.68223 0.78871 0.0
C689 C 0.31392 0.6378 0.69302 0.0
C690 C 0.34782 0.75189 0.87826 0.0
C691 C 0.32817 0.7456 0.85564 0.0
C692 C 0.32528 0.73642 0.7735 0.0
C693 C 0.31644 0.66196 0.74026 0.0
C694 C 0.31154 0.68719 0.75988 0.0
C695 C 0.33758 0.7455 0.82633 0.0
C696 C 0.32113 0.72959 0.8032 0.0
H697 H 0.34448 0.59379 0.74458 0.0
H698 H 0.33712 0.63639 0.77421 0.0
H699 H 0.32746 0.71991 0.72983 0.0
H700 H 0.40781 0.76659 0.83705 0.0
H701 H 0.37452 0.75511 0.79817 0.0
C702 C 0.50973 0.09875 0.12646 0.0
C703 C 0.49872 0.12646 0.11997 0.0
C704 C 0.51942 0.08062 0.10386 0.0
C705 C 0.52619 0.07682 0.02196 0.0
H706 H 0.60578 0.05592 0.04048 0.0
C707 C 0.61894 0.06111 0.93534 0.0
C708 C 0.64483 0.07556 0.94331 0.0
C709 C 0.59595 0.05838 0.95533 0.0
C710 C 0.58349 0.06138 0.03494 0.0
H711 H 0.48699 0.15632 0.08546 0.0
H712 H 0.50382 0.12533 0.0464 0.0
H713 H 0.5715 0.06444 0.07964 0.0
H714 H 0.66567 0.10088 0.97744 0.0
H715 H 0.62574 0.09687 0.01153 0.0
H716 H 0.53937 0.07643 0.97712 0.0
C717 C 0.50485 0.11695 0.06843 0.0
C718 C 0.56363 0.06584 0.05744 0.0
C719 C 0.49549 0.13497 0.09086 0.0
C720 C 0.64636 0.08903 0.97073 0.0
C721 C 0.62356 0.08644 0.99047 0.0
C722 C 0.54624 0.07263 -0.00062 0.0
C723 C 0.51812 0.09007 0.07461 0.0
C724 C 0.53524 0.07549 0.0513 0.0
C725 C 0.59855 0.07025 0.98346 0.0
C726 C 0.57552 0.06671 0.00585 0.0
H727 H 0.51247 0.09187 0.14886 0.0
H728 H 0.52924 0.05991 0.10936 0.0
H729 H 0.5042 0.08339 0.01647 0.0
H730 H 0.61694 0.05088 0.91424 0.0
H731 H 0.57667 0.0462 0.94917 0.0
C732 C 0.64825 0.2429 0.62152 0.0
C733 C 0.62758 0.26522 0.62269 0.0
C734 C 0.66397 0.2354 0.64655 0.0
C735 C 0.64902 0.23725 0.72499 0.0
H736 H 0.71655 0.1868 0.72697 0.0
C737 C 0.65201 0.13392 0.7924 0.0
C738 C 0.67825 0.12364 0.804 0.0
C739 C 0.65152 0.15954 0.77606 0.0
C740 C 0.69799 0.20133 0.72713 0.0
H741 H 0.60925 0.29952 0.64911 0.0
H742 H 0.63792 0.2878 0.69232 0.0
H743 H 0.70948 0.21954 0.6857 0.0
H744 H 0.72459 0.13139 0.80747 0.0
H745 H 0.72384 0.17678 0.77926 0.0
H746 H 0.6372 0.21864 0.76601 0.0
C747 C 0.64126 0.27509 0.67274 0.0
C748 C 0.69374 0.21987 0.70327 0.0
C749 C 0.62505 0.28206 0.64797 0.0
C750 C 0.70396 0.13963 0.79959 0.0
C751 C 0.70356 0.16527 0.78308 0.0
C752 C 0.65339 0.21897 0.74885 0.0
C753 C 0.65934 0.25037 0.67299 0.0
C754 C 0.66838 0.23694 0.70118 0.0
C755 C 0.67739 0.17519 0.77064 0.0
C756 C 0.67704 0.19966 0.74944 0.0
H757 H 0.65028 0.22956 0.60216 0.0
H758 H 0.67757 0.21619 0.64573 0.0
H759 H 0.62911 0.24984 0.72438 0.0
H760 H 0.63205 0.12155 0.79509 0.0
H761 H 0.63108 0.16614 0.7663 0.0
C762 C 0.11763 0.3967 0.04075 0.0
C763 C 0.12471 0.42147 0.05714 0.0
C764 C 0.09217 0.39597 0.02422 0.0
C765 C 0.04911 0.44269 0.98008 0.0
H766 H 0.00112 0.37361 0.97212 0.0
C767 C 0.01189 0.39389 0.87179 0.0
C768 C 0.98703 0.3762 0.87144 0.0
C769 C 0.01953 0.4089 0.89723 0.0
C770 C 0.01367 0.39349 0.97428 0.0
H771 H 0.11058 0.46444 0.0699 0.0
H772 H 0.06606 0.46363 0.04016 0.0
H773 H 0.03117 0.37976 0.01527 0.0
H774 H 0.94925 0.36198 0.89574 0.0
H775 H 0.96209 0.38865 0.93995 0.0
H776 H 0.03305 0.45545 0.93804 0.0
C777 C 0.08001 0.44462 0.04062 0.0
C778 C 0.03102 0.39686 0.99898 0.0
C779 C 0.10526 0.44502 0.05777 0.0
C780 C 0.96852 0.37566 0.89569 0.0
C781 C 0.97598 0.39075 0.92098 0.0
C782 C 0.03187 0.43921 0.95513 0.0
C783 C 0.07361 0.42027 0.02325 0.0
C784 C 0.04982 0.42082 0.00151 0.0
C785 C 0.00243 0.40614 0.9226 0.0
C786 C 0.01491 0.41394 0.95144 0.0
H787 H 0.13241 0.37835 0.03982 0.0
H788 H 0.08791 0.37705 0.01077 0.0
H789 H 0.06355 0.46133 0.98151 0.0
H790 H 0.02659 0.3942 0.85333 0.0
H791 H 0.04016 0.42036 0.89778 0.0
C792 C 0.83818 0.88142 0.27782 0.0
C793 C 0.81935 0.8835 0.30182 0.0
C794 C 0.83455 0.85938 0.25732 0.0
C795 C 0.80771 0.78767 0.24167 0.0
H796 H 0.8083 0.81769 0.16262 0.0
C797 C 0.86944 0.73759 0.14985 0.0
C798 C 0.86226 0.74335 0.12075 0.0
C799 C 0.85086 0.74604 0.17222 0.0
C800 C 0.80712 0.80871 0.18441 0.0
H801 H 0.78274 0.8635 0.32355 0.0
H802 H 0.77702 0.82383 0.28817 0.0
H803 H 0.80369 0.85111 0.20331 0.0
H804 H 0.82914 0.75988 0.09162 0.0
H805 H 0.79653 0.77566 0.13111 0.0
H806 H 0.81313 0.74534 0.2227 0.0
C807 C 0.79445 0.83952 0.28533 0.0
C808 C 0.80488 0.82796 0.20776 0.0
C809 C 0.79799 0.86189 0.30582 0.0
C810 C 0.835 0.75531 0.11402 0.0
C811 C 0.81647 0.76431 0.13658 0.0
C812 C 0.81009 0.7683 0.21821 0.0
C813 C 0.81205 0.83883 0.26035 0.0
C814 C 0.80686 0.81777 0.23653 0.0
C815 C 0.82499 0.76109 0.16595 0.0
C816 C 0.81161 0.77886 0.18941 0.0
H817 H 0.85492 0.89769 0.27414 0.0
H818 H 0.84884 0.85889 0.23853 0.0
H819 H 0.80894 0.77931 0.26371 0.0
H820 H 0.89036 0.72818 0.15542 0.0
H821 H 0.85833 0.74336 0.19445 0.0
C822 C 0.39186 0.5915 0.56124 0.0
C823 C 0.37561 0.56624 0.56659 0.0
C824 C 0.41476 0.59096 0.54112 0.0
C825 C 0.43161 0.55197 0.47398 0.0
H826 H 0.49687 0.60558 0.472 0.0
C827 C 0.46646 0.61394 0.37252 0.0
C828 C 0.49567 0.62179 0.36873 0.0
C829 C 0.45807 0.59748 0.39669 0.0
C830 C 0.47917 0.58994 0.4723 0.0
H831 H 0.37008 0.52088 0.55557 0.0
H832 H 0.41122 0.51917 0.52206 0.0
H833 H 0.47277 0.59527 0.51823 0.0
H834 H 0.53921 0.61868 0.38658 0.0
H835 H 0.52469 0.58938 0.42874 0.0
H836 H 0.4373 0.54751 0.42792 0.0
C837 C 0.40647 0.53945 0.53312 0.0
C838 C 0.46516 0.58431 0.49876 0.0
C839 C 0.38337 0.54018 0.55282 0.0
C840 C 0.51665 0.612 0.38868 0.0
C841 C 0.50829 0.59563 0.41297 0.0
C842 C 0.4456 0.55759 0.44758 0.0
C843 C 0.42153 0.56514 0.52595 0.0
C844 C 0.44046 0.5662 0.49968 0.0
C845 C 0.47875 0.58909 0.41775 0.0
C846 C 0.46871 0.57761 0.44625 0.0
H847 H 0.3856 0.612 0.57108 0.0
H848 H 0.42558 0.61126 0.53583 0.0
H849 H 0.41254 0.53804 0.47373 0.0
H850 H 0.44992 0.62188 0.35766 0.0
H851 H 0.43508 0.59323 0.39996 0.0
C852 C 0.19942 0.19744 0.37085 0.0
C853 C 0.19985 0.17515 0.39184 0.0
C854 C 0.22056 0.19845 0.3488 0.0
C855 C 0.29593 0.17571 0.33676 0.0
H856 H 0.28033 0.17981 0.25389 0.0
C857 C 0.38682 0.14915 0.25728 0.0
C858 C 0.37813 0.1254 0.24016 0.0
C859 C 0.36569 0.16666 0.27069 0.0
C860 C 0.28507 0.17917 0.277 0.0
H861 H 0.22194 0.13582 0.4056 0.0
H862 H 0.25865 0.13746 0.36732 0.0
H863 H 0.24022 0.1858 0.28868 0.0
H864 H 0.34136 0.10283 0.22109 0.0
H865 H 0.30475 0.13331 0.24388 0.0
H866 H 0.34023 0.16738 0.32547 0.0
C867 C 0.24219 0.15434 0.36795 0.0
C868 C 0.26214 0.18262 0.29685 0.0
C869 C 0.22103 0.15324 0.38969 0.0
C870 C 0.34846 0.12107 0.23431 0.0
C871 C 0.32749 0.13873 0.24722 0.0
C872 C 0.31879 0.17247 0.31703 0.0
C873 C 0.24272 0.17739 0.34782 0.0
C874 C 0.26721 0.17951 0.32686 0.0
C875 C 0.33576 0.16074 0.2668 0.0
C876 C 0.31343 0.17278 0.2869 0.0
H877 H 0.18411 0.21513 0.37272 0.0
H878 H 0.2205 0.21647 0.33356 0.0
H879 H 0.3005 0.17379 0.35985 0.0
H880 H 0.40965 0.15274 0.2621 0.0
H881 H 0.37271 0.18363 0.28551 0.0
C882 C 0.13037 0.09426 0.48819 0.0
C883 C 0.12219 0.12322 0.49303 0.0
C884 C 0.11217 0.07146 0.49644 0.0
C885 C 0.07353 0.02388 0.51809 0.0
H886 H 0.0515 0.04153 0.59751 0.0
C887 C 0.06223 0.93667 0.61136 0.0
C888 C 0.07557 0.94574 0.63746 0.0
C889 C 0.05862 0.95633 0.58814 0.0
C890 C 0.05735 0.03619 0.57528 0.0
H891 H 0.08756 0.15154 0.50763 0.0
H892 H 0.05515 0.1114 0.52224 0.0
H893 H 0.05872 0.08095 0.56329 0.0
H894 H 0.09853 0.98162 0.6582 0.0
H895 H 0.09315 0.01501 0.618 0.0
H896 H 0.07497 0.97908 0.53139 0.0
C897 C 0.07592 0.10626 0.51233 0.0
C898 C 0.06104 0.05887 0.5554 0.0
C899 C 0.09429 0.12926 0.50385 0.0
C900 C 0.08742 0.97396 0.63883 0.0
C901 C 0.08401 0.99334 0.61583 0.0
C902 C 0.07024 0.00114 0.53821 0.0
C903 C 0.08535 0.07706 0.51012 0.0
C904 C 0.07116 0.05318 0.52707 0.0
C905 C 0.0686 0.98523 0.59068 0.0
C906 C 0.064 0.00735 0.56748 0.0
H907 H 0.15178 0.08915 0.47966 0.0
H908 H 0.12057 0.04954 0.4945 0.0
H909 H 0.08032 0.0186 0.49613 0.0
H910 H 0.0536 0.91486 0.6093 0.0
H911 H 0.04722 0.94926 0.56872 0.0
C912 C 0.12432 0.85213 0.76597 0.0
C913 C 0.1262 0.87288 0.74371 0.0
C914 C 0.1493 0.83715 0.77495 0.0
C915 C 0.20498 0.80525 0.78999 0.0
H916 H 0.2683 0.86047 0.80003 0.0
C917 C 0.31813 0.82128 0.86161 0.0
C918 C 0.30553 0.81681 0.88919 0.0
C919 C 0.30065 0.82104 0.83648 0.0
C920 C 0.25124 0.84445 0.79677 0.0
H921 H 0.15456 0.89328 0.71207 0.0
H922 H 0.19796 0.8663 0.72677 0.0
H923 H 0.22799 0.87246 0.76796 0.0
H924 H 0.26513 0.80685 0.91179 0.0
H925 H 0.23511 0.80641 0.86843 0.0
H926 H 0.22746 0.77836 0.82084 0.0
C927 C 0.17759 0.86188 0.73783 0.0
C928 C 0.22801 0.85127 0.77832 0.0
C929 C 0.15273 0.87709 0.72917 0.0
C930 C 0.27551 0.81093 0.89099 0.0
C931 C 0.25831 0.81018 0.86605 0.0
C932 C 0.22812 0.79857 0.80865 0.0
C933 C 0.17652 0.84276 0.76176 0.0
C934 C 0.20393 0.83234 0.77572 0.0
C935 C 0.27052 0.81562 0.83858 0.0
C936 C 0.25078 0.81871 0.81321 0.0
H937 H 0.10411 0.84908 0.77779 0.0
H938 H 0.14762 0.82289 0.79367 0.0
H939 H 0.18719 0.78985 0.78794 0.0
H940 H 0.34127 0.82545 0.85953 0.0
H941 H 0.31056 0.82534 0.8155 0.0
C942 C 0.43912 0.06752 0.10128 0.0
C943 C 0.41908 0.06285 0.12394 0.0
C944 C 0.43812 0.05039 0.07602 0.0
C945 C 0.39183 0.00269 0.03213 0.0
H946 H 0.45603 0.94788 0.02921 0.0
C947 C 0.37649 0.89716 0.97111 0.0
C948 C 0.37996 0.87346 0.99006 0.0
C949 C 0.38962 0.92389 0.9774 0.0
C950 C 0.4382 0.96332 0.02934 0.0
H951 H 0.3804 0.03887 0.13673 0.0
H952 H 0.37773 0.01013 0.09224 0.0
H953 H 0.46025 0.99206 0.05896 0.0
H954 H 0.40095 0.85811 0.0293 0.0
H955 H 0.42403 0.90485 0.0405 0.0
H956 H 0.36892 0.97338 0.00425 0.0
C957 C 0.39476 0.02639 0.09426 0.0
C958 C 0.4407 0.98865 0.04615 0.0
C959 C 0.39633 0.04279 0.11974 0.0
C960 C 0.39855 0.87603 0.01413 0.0
C961 C 0.41173 0.90281 0.02046 0.0
C962 C 0.38947 0.97767 0.01508 0.0
C963 C 0.41623 0.02926 0.07268 0.0
C964 C 0.41698 0.00778 0.04872 0.0
C965 C 0.40608 0.9274 0.003 0.0
C966 C 0.41208 0.95701 0.01459 0.0
H967 H 0.45651 0.0831 0.1038 0.0
H968 H 0.45485 0.05304 0.05958 0.0
H969 H 0.37325 0.01712 0.03388 0.0
H970 H 0.36184 0.89562 0.95264 0.0
H971 H 0.38512 0.94236 0.96341 0.0
C972 C 0.84359 0.39067 0.77152 0.0
C973 C 0.87012 0.38594 0.75721 0.0
C974 C 0.81886 0.37475 0.76371 0.0
C975 C 0.76929 0.36121 0.7228 0.0
H976 H 0.77041 0.28448 0.68773 0.0
C977 C 0.72806 0.31165 0.61194 0.0
C978 C 0.69879 0.3204 0.61075 0.0
C979 C 0.74315 0.3117 0.63821 0.0
C980 C 0.76957 0.30578 0.69783 0.0
H981 H 0.89247 0.36058 0.72451 0.0
H982 H 0.84905 0.33321 0.70997 0.0
H983 H 0.80974 0.29901 0.72064 0.0
H984 H 0.66191 0.33492 0.6363 0.0
H985 H 0.6888 0.33582 0.68266 0.0
H986 H 0.73019 0.3687 0.69862 0.0
C987 C 0.84732 0.3485 0.72784 0.0
C988 C 0.79211 0.31413 0.71653 0.0
C989 C 0.87217 0.36416 0.73601 0.0
C990 C 0.68453 0.32827 0.63664 0.0
C991 C 0.69985 0.3287 0.66308 0.0
C992 C 0.74674 0.35284 0.70417 0.0
C993 C 0.82017 0.35431 0.74097 0.0
C994 C 0.79301 0.34251 0.72792 0.0
C995 C 0.72945 0.32076 0.66397 0.0
C996 C 0.74757 0.32568 0.69023 0.0
H997 H 0.84171 0.40759 0.78785 0.0
H998 H 0.79841 0.37947 0.77447 0.0
H999 H 0.7693 0.3833 0.73106 0.0
H1000 H 0.73951 0.30496 0.59243 0.0
H1001 H 0.76603 0.30596 0.63802 0.0
C1002 C 0.94402 0.48043 0.86221 0.0
C1003 C 0.93433 0.45142 0.86184 0.0
C1004 C 0.94538 0.4959 0.88822 0.0
C1005 C 0.95307 0.52388 0.94692 0.0
H1006 H 0.87758 0.52233 0.98453 0.0
C1007 C 0.86866 0.59649 0.02192 0.0
C1008 C 0.87158 0.62254 0.00626 0.0
C1009 C 0.88598 0.57253 0.01508 0.0
C1010 C 0.89919 0.52272 0.97508 0.0
H1011 H 0.91947 0.41543 0.8885 0.0
H1012 H 0.92155 0.44276 0.93441 0.0
H1013 H 0.89094 0.4833 0.95187 0.0
H1014 H 0.89542 0.64501 0.97244 0.0
H1015 H 0.92529 0.60289 0.95967 0.0
H1016 H 0.96042 0.56446 0.9688 0.0
C1017 C 0.9282 0.45341 0.91442 0.0
C1018 C 0.90686 0.50018 0.95626 0.0
C1019 C 0.92702 0.43778 0.88824 0.0
C1020 C 0.89326 0.62513 0.985 0.0
C1021 C 0.91038 0.601 0.97785 0.0
C1022 C 0.94541 0.54647 0.96582 0.0
C1023 C 0.93691 0.48283 0.91456 0.0
C1024 C 0.93315 0.50139 0.94071 0.0
C1025 C 0.90593 0.57403 0.9919 0.0
C1026 C 0.91771 0.5469 0.97884 0.0
H1027 H 0.95022 0.49141 0.84224 0.0
H1028 H 0.95168 0.51864 0.8874 0.0
H1029 H 0.97379 0.52502 0.93566 0.0
H1030 H 0.85184 0.59418 0.03833 0.0
H1031 H 0.88239 0.55227 0.02666 0.0
C1032 C 0.80406 0.68526 0.13423 0.0
C1033 C 0.79372 0.67417 0.10755 0.0
C1034 C 0.78553 0.68693 0.15854 0.0
C1035 C 0.70659 0.68581 0.17674 0.0
H1036 H 0.72999 0.65185 0.25031 0.0
C1037 C 0.65437 0.60297 0.26089 0.0
C1038 C 0.62545 0.6127 0.2612 0.0
C1039 C 0.67667 0.62095 0.25088 0.0
C1040 C 0.72311 0.66163 0.22997 0.0
H1041 H 0.75616 0.65448 0.08627 0.0
H1042 H 0.72473 0.65672 0.12816 0.0
H1043 H 0.76684 0.66279 0.21352 0.0
H1044 H 0.59719 0.64943 0.25288 0.0
H1045 H 0.63634 0.68136 0.23549 0.0
H1046 H 0.66279 0.68207 0.19159 0.0
C1047 C 0.74667 0.66524 0.13021 0.0
C1048 C 0.74431 0.66819 0.20903 0.0
C1049 C 0.76496 0.66362 0.10618 0.0
C1050 C 0.61933 0.64144 0.25288 0.0
C1051 C 0.64178 0.65961 0.24278 0.0
C1052 C 0.68543 0.67892 0.19742 0.0
C1053 C 0.75641 0.67748 0.15648 0.0
C1054 C 0.73598 0.67862 0.18152 0.0
C1055 C 0.67061 0.64918 0.24069 0.0
C1056 C 0.69324 0.66502 0.22356 0.0
H1057 H 0.82619 0.69312 0.13616 0.0
H1058 H 0.79378 0.69609 0.17867 0.0
H1059 H 0.69964 0.69468 0.15599 0.0
H1060 H 0.65966 0.58087 0.26729 0.0
H1061 H 0.69831 0.61177 0.24922 0.0
C1062 C 0.60276 0.36853 0.49645 0.0
C1063 C 0.63132 0.37574 0.50461 0.0
C1064 C 0.58311 0.39053 0.48866 0.0
C1065 C 0.57421 0.47176 0.48515 0.0
H1066 H 0.54505 0.45491 0.40778 0.0
C1067 C 0.57507 0.5534 0.39109 0.0
C1068 C 0.55555 0.54948 0.36798 0.0
C1069 C 0.5735 0.5352 0.41553 0.0
C1070 C 0.55222 0.46007 0.42966 0.0
H1071 H 0.66131 0.41119 0.51308 0.0
H1072 H 0.62744 0.44933 0.49956 0.0
H1073 H 0.56131 0.41541 0.43847 0.0
H1074 H 0.51739 0.52617 0.35301 0.0
H1075 H 0.51402 0.49493 0.39597 0.0
H1076 H 0.56688 0.51682 0.47527 0.0
C1077 C 0.61978 0.42701 0.49932 0.0
C1078 C 0.56154 0.43724 0.44738 0.0
C1079 C 0.63938 0.40512 0.50673 0.0
C1080 C 0.53293 0.5291 0.37056 0.0
C1081 C 0.53106 0.51126 0.39508 0.0
C1082 C 0.56494 0.49469 0.46733 0.0
C1083 C 0.59173 0.42 0.48919 0.0
C1084 C 0.57408 0.44293 0.47471 0.0
C1085 C 0.55221 0.51306 0.41717 0.0
C1086 C 0.55516 0.48916 0.43884 0.0
H1087 H 0.59613 0.34596 0.49456 0.0
H1088 H 0.56161 0.38443 0.48104 0.0
H1089 H 0.58318 0.47678 0.5064 0.0
H1090 H 0.59259 0.56917 0.38942 0.0
H1091 H 0.59026 0.53711 0.43204 0.0
C1092 C 0.23953 0.34457 0.10902 0.0
C1093 C 0.24201 0.37414 0.11608 0.0
C1094 C 0.25097 0.32335 0.12735 0.0
C1095 C 0.31235 0.31592 0.17629 0.0
H1096 H 0.288 0.23498 0.17302 0.0
C1097 C 0.394 0.22757 0.15659 0.0
C1098 C 0.39333 0.20145 0.17253 0.0
C1099 C 0.37134 0.24746 0.15862 0.0
C1100 C 0.29491 0.25748 0.17477 0.0
H1101 H 0.25706 0.405 0.14838 0.0
H1102 H 0.27757 0.36768 0.18078 0.0
H1103 H 0.25244 0.2736 0.16414 0.0
H1104 H 0.36725 0.1749 0.20159 0.0
H1105 H 0.32699 0.21001 0.20505 0.0
H1106 H 0.35493 0.29986 0.18598 0.0
C1107 C 0.26664 0.3609 0.161 0.0
C1108 C 0.27465 0.27962 0.16947 0.0
C1109 C 0.25483 0.38226 0.1426 0.0
C1110 C 0.36845 0.1949 0.18923 0.0
C1111 C 0.34553 0.21502 0.1913 0.0
C1112 C 0.33245 0.29388 0.18182 0.0
C1113 C 0.26558 0.33121 0.1531 0.0
C1114 C 0.28363 0.30898 0.16826 0.0
C1115 C 0.34729 0.2419 0.17668 0.0
C1116 C 0.32436 0.26445 0.17922 0.0
H1117 H 0.22964 0.33786 0.08864 0.0
H1118 H 0.25012 0.30091 0.12014 0.0
H1119 H 0.32015 0.33819 0.17569 0.0
H1120 H 0.41254 0.23313 0.14306 0.0
H1121 H 0.37283 0.26748 0.1462 0.0
C1122 C 0.86756 0.30208 0.85272 0.0
C1123 C 0.87503 0.31707 0.8272 0.0
C1124 C 0.84204 0.28556 0.85385 0.0
C1125 C 0.80054 0.23993 0.80604 0.0
H1126 H 0.75515 0.22699 0.87605 0.0
C1127 C 0.77328 0.12851 0.85229 0.0
C1128 C 0.74815 0.12483 0.86913 0.0
C1129 C 0.77871 0.15517 0.83863 0.0
C1130 C 0.76698 0.23059 0.85595 0.0
H1131 H 0.86194 0.32708 0.78325 0.0
H1132 H 0.81708 0.29809 0.78493 0.0
H1133 H 0.7826 0.27206 0.87052 0.0
H1134 H 0.70822 0.14482 0.88402 0.0
H1135 H 0.71766 0.19163 0.86017 0.0
H1136 H 0.78644 0.19755 0.79236 0.0
C1137 C 0.83061 0.29957 0.80423 0.0
C1138 C 0.78287 0.25634 0.85293 0.0
C1139 C 0.85598 0.31645 0.80333 0.0
C1140 C 0.72757 0.14729 0.87072 0.0
C1141 C 0.73308 0.17404 0.8573 0.0
C1142 C 0.78477 0.21404 0.80914 0.0
C1143 C 0.82387 0.28329 0.82925 0.0
C1144 C 0.80093 0.26059 0.82864 0.0
C1145 C 0.75929 0.17862 0.84214 0.0
C1146 C 0.76902 0.20854 0.83479 0.0
H1147 H 0.88217 0.30201 0.87128 0.0
H1148 H 0.83767 0.27289 0.87328 0.0
H1149 H 0.81434 0.24261 0.78708 0.0
H1150 H 0.78961 0.11152 0.85136 0.0
H1151 H 0.79929 0.15812 0.82746 0.0
C1152 C 0.09419 0.48812 0.13204 0.0
C1153 C 0.12356 0.49458 0.12683 0.0
C1154 C 0.07247 0.50053 0.11491 0.0
C1155 C 0.06126 0.56944 0.07945 0.0
H1156 H 0.98306 0.53868 0.06935 0.0
C1157 C 0.93982 0.61881 0.05583 0.0
C1158 C 0.94118 0.64156 0.07621 0.0
C1159 C 0.96127 0.59712 0.05543 0.0
C1160 C 0.00485 0.5475 0.07162 0.0
H1161 H 0.15385 0.51738 0.0988 0.0
H1162 H 0.11561 0.53979 0.06875 0.0
H1163 H 0.02414 0.50516 0.07538 0.0
H1164 H 0.96478 0.65845 0.11348 0.0
H1165 H 0.00181 0.62061 0.11317 0.0
H1166 H 0.04199 0.61168 0.0768 0.0
C1167 C 0.10937 0.52494 0.086 0.0
C1168 C 0.02833 0.52839 0.07513 0.0
C1169 C 0.13122 0.51208 0.10301 0.0
C1170 C 0.96326 0.64127 0.09737 0.0
C1171 C 0.98461 0.61977 0.09701 0.0
C1172 C 0.03788 0.58844 0.07601 0.0
C1173 C 0.07971 0.52015 0.09254 0.0
C1174 C 0.05658 0.53922 0.08045 0.0
C1175 C 0.98446 0.59813 0.0754 0.0
C1176 C 0.00931 0.57769 0.07348 0.0
H1177 H 0.08794 0.47466 0.15042 0.0
H1178 H 0.04997 0.49661 0.12087 0.0
H1179 H 0.08262 0.57861 0.08363 0.0
H1180 H 0.92347 0.61898 0.03901 0.0
H1181 H 0.96059 0.5806 0.0386 0.0
C1182 C 0.77215 0.84496 0.38039 0.0
C1183 C 0.75434 0.86944 0.37652 0.0
C1184 C 0.76475 0.81845 0.36747 0.0
C1185 C 0.72427 0.76664 0.36798 0.0
H1186 H 0.68188 0.75294 0.29618 0.0
C1187 C 0.61546 0.70848 0.35538 0.0
C1188 C 0.6136 0.68457 0.33637 0.0
C1189 C 0.64114 0.72453 0.35754 0.0
C1190 C 0.6943 0.75616 0.31601 0.0
H1191 H 0.71597 0.88636 0.35515 0.0
H1192 H 0.70283 0.83993 0.33238 0.0
H1193 H 0.7134 0.796 0.30055 0.0
H1194 H 0.63815 0.65719 0.30686 0.0
H1195 H 0.68283 0.68665 0.30926 0.0
H1196 H 0.7031 0.72834 0.38431 0.0
C1197 C 0.72285 0.84123 0.34483 0.0
C1198 C 0.7121 0.78083 0.31858 0.0
C1199 C 0.73028 0.8678 0.35782 0.0
C1200 C 0.63868 0.67593 0.32103 0.0
C1201 C 0.66424 0.69262 0.3225 0.0
C1202 C 0.7062 0.74232 0.36553 0.0
C1203 C 0.73917 0.81597 0.35083 0.0
C1204 C 0.72636 0.78687 0.34501 0.0
C1205 C 0.66533 0.71733 0.3404 0.0
C1206 C 0.69031 0.7375 0.33993 0.0
H1207 H 0.79058 0.8458 0.39515 0.0
H1208 H 0.77782 0.79942 0.37227 0.0
H1209 H 0.73464 0.77084 0.38876 0.0
H1210 H 0.59669 0.7155 0.36783 0.0
H1211 H 0.64163 0.74354 0.37152 0.0
C1212 C 0.56276 0.38918 0.57762 0.0
C1213 C 0.55761 0.3654 0.55925 0.0
C1214 C 0.54336 0.41272 0.57765 0.0
C1215 C 0.46562 0.42242 0.56392 0.0
H1216 H 0.48062 0.50138 0.58963 0.0
C1217 C 0.37299 0.49061 0.61112 0.0
C1218 C 0.38014 0.50224 0.63839 0.0
C1219 C 0.39508 0.48071 0.59258 0.0
C1220 C 0.4761 0.47943 0.58226 0.0
H1221 H 0.53081 0.34851 0.52431 0.0
H1222 H 0.49782 0.38998 0.52334 0.0
H1223 H 0.52103 0.47131 0.57226 0.0
H1224 H 0.41543 0.51445 0.66723 0.0
H1225 H 0.45387 0.49787 0.63487 0.0
H1226 H 0.42124 0.42963 0.57535 0.0
C1227 C 0.51587 0.39021 0.53856 0.0
C1228 C 0.49922 0.46224 0.57236 0.0
C1229 C 0.53473 0.36653 0.53905 0.0
C1230 C 0.4095 0.50556 0.64617 0.0
C1231 C 0.43151 0.4963 0.62748 0.0
C1232 C 0.44264 0.4395 0.57381 0.0
C1233 C 0.51892 0.41277 0.55899 0.0
C1234 C 0.49436 0.43318 0.56405 0.0
C1235 C 0.42457 0.48296 0.60082 0.0
C1236 C 0.44774 0.4678 0.58417 0.0
H1237 H 0.58041 0.38862 0.59329 0.0
H1238 H 0.54631 0.42971 0.59374 0.0
H1239 H 0.46101 0.40001 0.55816 0.0
H1240 H 0.35043 0.48767 0.60484 0.0
H1241 H 0.38903 0.47062 0.57213 0.0
C1242 C 0.25008 0.61523 0.65483 0.0
C1243 C 0.26361 0.62223 0.62834 0.0
C1244 C 0.23864 0.63747 0.67236 0.0
C1245 C 0.23253 0.71872 0.67927 0.0
H1246 H 0.14986 0.70227 0.68472 0.0
C1247 C 0.1373 0.80398 0.69554 0.0
C1248 C 0.11572 0.80051 0.67408 0.0
C1249 C 0.16012 0.78383 0.69799 0.0
C1250 C 0.17297 0.70712 0.68378 0.0
H1251 H 0.27841 0.65737 0.60057 0.0
H1252 H 0.25895 0.69588 0.63092 0.0
H1253 H 0.18399 0.66229 0.6788 0.0
H1254 H 0.10214 0.77445 0.6371 0.0
H1255 H 0.14173 0.73952 0.64125 0.0
H1256 H 0.22084 0.76394 0.68218 0.0
C1257 C 0.25698 0.67362 0.63849 0.0
C1258 C 0.19259 0.68419 0.68076 0.0
C1259 C 0.26786 0.65153 0.62087 0.0
C1260 C 0.11835 0.77763 0.65399 0.0
C1261 C 0.14085 0.75751 0.6565 0.0
C1262 C 0.2128 0.74175 0.68248 0.0
C1263 C 0.24102 0.66686 0.66371 0.0
C1264 C 0.22242 0.68982 0.67679 0.0
C1265 C 0.16132 0.7598 0.67911 0.0
C1266 C 0.18275 0.73611 0.68311 0.0
H1267 H 0.24658 0.59271 0.66093 0.0
H1268 H 0.22655 0.63164 0.69177 0.0
H1269 H 0.25547 0.72366 0.67664 0.0
H1270 H 0.13536 0.82096 0.71161 0.0
H1271 H 0.17578 0.7861 0.71553 0.0
C1272 C 0.47544 0.85902 0.90281 0.0
C1273 C 0.45307 0.85745 0.9236 0.0
C1274 C 0.49592 0.88139 0.9038 0.0
C1275 C 0.51208 0.9546 0.92773 0.0
H1276 H 0.59154 0.92769 0.91757 0.0
C1277 C 0.59694 0.01372 0.86149 0.0
C1278 C 0.62676 0.00966 0.86663 0.0
C1279 C 0.57629 0.00179 0.88023 0.0
C1280 C 0.56969 0.93575 0.92127 0.0
H1281 H 0.43427 0.87849 0.96121 0.0
H1282 H 0.46968 0.91868 0.96237 0.0
H1283 H 0.55277 0.8926 0.92613 0.0
H1284 H 0.65874 0.9919 0.89635 0.0
H1285 H 0.62237 0.97018 0.92919 0.0
H1286 H 0.52891 0.99774 0.92129 0.0
C1287 C 0.47123 0.90237 0.94539 0.0
C1288 C 0.5474 0.91557 0.92578 0.0
C1289 C 0.45071 0.87969 0.94449 0.0
C1290 C 0.6358 0.99529 0.89203 0.0
C1291 C 0.615 0.98285 0.9107 0.0
C1292 C 0.53445 0.97489 0.92309 0.0
C1293 C 0.49459 0.90278 0.9256 0.0
C1294 C 0.51825 0.92468 0.92754 0.0
C1295 C 0.58502 0.985 0.90427 0.0
C1296 C 0.56327 0.96551 0.91831 0.0
H1297 H 0.47777 0.84224 0.88638 0.0
H1298 H 0.5133 0.88159 0.88782 0.0
H1299 H 0.48979 0.96218 0.92932 0.0
H1300 H 0.58954 0.02491 0.84205 0.0
H1301 H 0.55351 0.00366 0.87435 0.0
C1302 C 0.86768 0.00259 0.40118 0.0
C1303 C 0.87365 0.99036 0.37385 0.0
C1304 C 0.89061 0.01346 0.41836 0.0
C1305 C 0.97269 0.02204 0.41984 0.0
H1306 H 0.95329 0.10146 0.44025 0.0
C1307 C 0.05926 0.11511 0.43628 0.0
C1308 C 0.05114 0.14173 0.42343 0.0
C1309 C 0.03921 0.09197 0.43814 0.0
C1310 C 0.95913 0.07928 0.43475 0.0
H1311 H 0.90776 0.97734 0.3441 0.0
H1312 H 0.94727 0.99619 0.37337 0.0
H1313 H 0.91453 0.06651 0.43223 0.0
H1314 H 0.01646 0.16366 0.39979 0.0
H1315 H 0.98246 0.12362 0.40215 0.0
H1316 H 0.0174 0.03587 0.41992 0.0
C1317 C 0.92542 0.99742 0.38216 0.0
C1318 C 0.93682 0.059 0.43063 0.0
C1319 C 0.90268 0.98682 0.36512 0.0
C1320 C 0.02341 0.14384 0.41053 0.0
C1321 C 0.00365 0.1209 0.41219 0.0
C1322 C 0.99508 0.04251 0.42366 0.0
C1323 C 0.9197 0.01221 0.40834 0.0
C1324 C 0.9432 0.03051 0.42151 0.0
C1325 C 0.01082 0.09506 0.42688 0.0
C1326 C 0.98837 0.07174 0.42955 0.0
H1327 H 0.84538 0.00553 0.40831 0.0
H1328 H 0.88542 0.02426 0.43866 0.0
H1329 H 0.97848 4e-05 0.41365 0.0
H1330 H 0.08065 0.11249 0.44576 0.0
H1331 H 0.0456 0.07212 0.44915 0.0
loop_
_geom_bond_atom_site_label_1
_geom_bond_atom_site_label_2
_geom_bond_distance
_geom_bond_site_symmetry_2
_ccdc_geom_bond_type
O0 Mn1 2.163 . S
O0 C14 1.244 . S
Mn1 O0 2.163 . S
Mn1 O4 2.160 . S
Mn1 O5 2.221 . S
Mn1 O7 2.163 . S
Mn1 O9 2.160 . S
Mn1 O19 2.221 . S
O2 Mn3 2.087 . S
O2 C14 1.256 . S
Mn3 O2 2.087 . S
Mn3 O10 2.089 . S
Mn3 O19 2.290 . S
Mn3 O20 2.251 . S
O4 Mn1 2.160 . S
O4 C15 1.239 . S
O5 Mn1 2.221 . S
O5 Mn6 2.290 . S
O5 C16 1.278 . S
Mn6 O5 2.290 . S
Mn6 O8 2.089 . S
Mn6 O11 2.251 . S
Mn6 O12 2.087 . S
O7 Mn1 2.163 . S
O7 C17 1.244 . S
O8 Mn6 2.089 . S
O8 C15 1.256 . S
O9 Mn1 2.160 . S
O9 C18 1.239 . S
O10 Mn3 2.089 . S
O10 C18 1.256 . S
O11 Mn6 2.251 . S
O11 C16 1.241 . S
O12 Mn6 2.087 . S
O12 C17 1.256 . S
C13 O19 1.278 . S
C13 O20 1.241 . S
C14 O0 1.244 . S
C14 O2 1.256 . S
C15 O4 1.239 . S
C15 O8 1.256 . S
C16 O5 1.278 . S
C16 O11 1.241 . S
C17 O7 1.244 . S
C17 O12 1.256 . S
C18 O9 1.239 . S
C18 O10 1.256 . S
O19 Mn1 2.221 . S
O19 Mn3 2.290 . S
O19 C13 1.278 . S
O20 Mn3 2.251 . S
O20 C13 1.241 . S
O21 Mn22 2.163 . S
O21 C35 1.244 . S
Mn22 O21 2.163 . S
Mn22 O25 2.160 . S
Mn22 O26 2.221 . S
Mn22 O28 2.163 . S
Mn22 O30 2.160 . S
Mn22 O40 2.221 . S
O23 Mn24 2.087 . S
O23 C35 1.256 . S
Mn24 O23 2.087 . S
Mn24 O31 2.089 . S
Mn24 O40 2.290 . S
Mn24 O41 2.251 . S
O25 Mn22 2.160 . S
O25 C36 1.239 . S
O26 Mn22 2.221 . S
O26 Mn27 2.290 . S
O26 C37 1.278 . S
Mn27 O26 2.290 . S
Mn27 O29 2.089 . S
Mn27 O32 2.251 . S
Mn27 O33 2.087 . S
O28 Mn22 2.163 . S
O28 C38 1.244 . S
O29 Mn27 2.089 . S
O29 C36 1.256 . S
O30 Mn22 2.160 . S
O30 C39 1.239 . S
O31 Mn24 2.089 . S
O31 C39 1.256 . S
O32 Mn27 2.251 . S
O32 C37 1.241 . S
O33 Mn27 2.087 . S
O33 C38 1.256 . S
C34 O40 1.278 . S
C34 O41 1.241 . S
C35 O21 1.244 . S
C35 O23 1.256 . S
C36 O25 1.239 . S
C36 O29 1.256 . S
C37 O26 1.278 . S
C37 O32 1.241 . S
C38 O28 1.244 . S
C38 O33 1.256 . S
C39 O30 1.239 . S
C39 O31 1.256 . S
O40 Mn22 2.221 . S
O40 Mn24 2.290 . S
O40 C34 1.278 . S
O41 Mn24 2.251 . S
O41 C34 1.241 . S
O42 Mn43 2.163 . S
O42 C56 1.244 . S
Mn43 O42 2.163 . S
Mn43 O46 2.160 . S
Mn43 O47 2.221 . S
Mn43 O49 2.163 . S
Mn43 O51 2.160 . S
Mn43 O61 2.221 . S
O44 Mn45 2.087 . S
O44 C56 1.256 . S
Mn45 O44 2.087 . S
Mn45 O52 2.089 . S
Mn45 O61 2.290 . S
Mn45 O62 2.251 . S
O46 Mn43 2.160 . S
O46 C57 1.239 . S
O47 Mn43 2.221 . S
O47 Mn48 2.290 . S
O47 C58 1.278 . S
Mn48 O47 2.290 . S
Mn48 O50 2.089 . S
Mn48 O53 2.251 . S
Mn48 O54 2.087 . S
O49 Mn43 2.163 . S
O49 C59 1.244 . S
O50 Mn48 2.089 . S
O50 C57 1.256 . S
O51 Mn43 2.160 . S
O51 C60 1.239 . S
O52 Mn45 2.089 . S
O52 C60 1.256 . S
O53 Mn48 2.251 . S
O53 C58 1.241 . S
O54 Mn48 2.087 . S
O54 C59 1.256 . S
C55 O61 1.278 . S
C55 O62 1.241 . S
C56 O42 1.244 . S
C56 O44 1.256 . S
C57 O46 1.239 . S
C57 O50 1.256 . S
C58 O47 1.278 . S
C58 O53 1.241 . S
C59 O49 1.244 . S
C59 O54 1.256 . S
C60 O51 1.239 . S
C60 O52 1.256 . S
O61 Mn43 2.221 . S
O61 Mn45 2.290 . S
O61 C55 1.278 . S
O62 Mn45 2.251 . S
O62 C55 1.241 . S
O63 Mn64 2.163 . S
O63 C77 1.244 . S
Mn64 O63 2.163 . S
Mn64 O67 2.160 . S
Mn64 O68 2.221 . S
Mn64 O70 2.163 . S
Mn64 O72 2.160 . S
Mn64 O82 2.221 . S
O65 Mn66 2.087 . S
O65 C77 1.256 . S
Mn66 O65 2.087 . S
Mn66 O73 2.089 . S
Mn66 O82 2.290 . S
Mn66 O83 2.251 . S
O67 Mn64 2.160 . S
O67 C78 1.239 . S
O68 Mn64 2.221 . S
O68 Mn69 2.290 . S
O68 C79 1.278 . S
Mn69 O68 2.290 . S
Mn69 O71 2.089 . S
Mn69 O74 2.251 . S
Mn69 O75 2.087 . S
O70 Mn64 2.163 . S
O70 C80 1.244 . S
O71 Mn69 2.089 . S
O71 C78 1.256 . S
O72 Mn64 2.160 . S
O72 C81 1.239 . S
O73 Mn66 2.089 . S
O73 C81 1.256 . S
O74 Mn69 2.251 . S
O74 C79 1.241 . S
O75 Mn69 2.087 . S
O75 C80 1.256 . S
C76 O82 1.278 . S
C76 O83 1.241 . S
C77 O63 1.244 . S
C77 O65 1.256 . S
C78 O67 1.239 . S
C78 O71 1.256 . S
C79 O68 1.278 . S
C79 O74 1.241 . S
C80 O70 1.244 . S
C80 O75 1.256 . S
C81 O72 1.239 . S
C81 O73 1.256 . S
O82 Mn64 2.221 . S
O82 Mn66 2.290 . S
O82 C76 1.278 . S
O83 Mn66 2.251 . S
O83 C76 1.241 . S
O84 Mn85 2.163 . S
O84 C98 1.244 . S
Mn85 O84 2.163 . S
Mn85 O88 2.160 . S
Mn85 O89 2.221 . S
Mn85 O91 2.163 . S
Mn85 O93 2.160 . S
Mn85 O103 2.221 . S
O86 Mn87 2.087 . S
O86 C98 1.256 . S
Mn87 O86 2.087 . S
Mn87 O94 2.089 . S
Mn87 O103 2.290 . S
Mn87 O104 2.251 . S
O88 Mn85 2.160 . S
O88 C99 1.239 . S
O89 Mn85 2.221 . S
O89 Mn90 2.290 . S
O89 C100 1.278 . S
Mn90 O89 2.290 . S
Mn90 O92 2.089 . S
Mn90 O95 2.251 . S
Mn90 O96 2.087 . S
O91 Mn85 2.163 . S
O91 C101 1.244 . S
O92 Mn90 2.089 . S
O92 C99 1.256 . S
O93 Mn85 2.160 . S
O93 C102 1.239 . S
O94 Mn87 2.089 . S
O94 C102 1.256 . S
O95 Mn90 2.251 . S
O95 C100 1.241 . S
O96 Mn90 2.087 . S
O96 C101 1.256 . S
C97 O103 1.278 . S
C97 O104 1.241 . S
C98 O84 1.244 . S
C98 O86 1.256 . S
C99 O88 1.239 . S
C99 O92 1.256 . S
C100 O89 1.278 . S
C100 O95 1.241 . S
C101 O91 1.244 . S
C101 O96 1.256 . S
C102 O93 1.239 . S
C102 O94 1.256 . S
O103 Mn85 2.221 . S
O103 Mn87 2.290 . S
O103 C97 1.278 . S
O104 Mn87 2.251 . S
O104 C97 1.241 . S
O105 Mn106 2.163 . S
O105 C119 1.244 . S
Mn106 O105 2.163 . S
Mn106 O109 2.160 . S
Mn106 O110 2.221 . S
Mn106 O112 2.163 . S
Mn106 O114 2.160 . S
Mn106 O124 2.221 . S
O107 Mn108 2.087 . S
O107 C119 1.256 . S
Mn108 O107 2.087 . S
Mn108 O115 2.089 . S
Mn108 O124 2.290 . S
Mn108 O125 2.251 . S
O109 Mn106 2.160 . S
O109 C120 1.239 . S
O110 Mn106 2.221 . S
O110 Mn111 2.290 . S
O110 C121 1.278 . S
Mn111 O110 2.290 . S
Mn111 O113 2.089 . S
Mn111 O116 2.251 . S
Mn111 O117 2.087 . S
O112 Mn106 2.163 . S
O112 C122 1.244 . S
O113 Mn111 2.089 . S
O113 C120 1.256 . S
O114 Mn106 2.160 . S
O114 C123 1.239 . S
O115 Mn108 2.089 . S
O115 C123 1.256 . S
O116 Mn111 2.251 . S
O116 C121 1.241 . S
O117 Mn111 2.087 . S
O117 C122 1.256 . S
C118 O124 1.278 . S
C118 O125 1.241 . S
C119 O105 1.244 . S
C119 O107 1.256 . S
C120 O109 1.239 . S
C120 O113 1.256 . S
C121 O110 1.278 . S
C121 O116 1.241 . S
C122 O112 1.244 . S
C122 O117 1.256 . S
C123 O114 1.239 . S
C123 O115 1.256 . S
O124 Mn106 2.221 . S
O124 Mn108 2.290 . S
O124 C118 1.278 . S
O125 Mn108 2.251 . S
O125 C118 1.241 . S
O126 Mn127 2.163 . S
O126 C140 1.244 . S
Mn127 O126 2.163 . S
Mn127 O130 2.160 . S
Mn127 O131 2.221 . S
Mn127 O133 2.163 . S
Mn127 O135 2.160 . S
Mn127 O145 2.221 . S
O128 Mn129 2.087 . S
O128 C140 1.256 . S
Mn129 O128 2.087 . S
Mn129 O136 2.089 . S
Mn129 O145 2.290 . S
Mn129 O146 2.251 . S
O130 Mn127 2.160 . S
O130 C141 1.239 . S
O131 Mn127 2.221 . S
O131 Mn132 2.290 . S
O131 C142 1.278 . S
Mn132 O131 2.290 . S
Mn132 O134 2.089 . S
Mn132 O137 2.251 . S
Mn132 O138 2.087 . S
O133 Mn127 2.163 . S
O133 C143 1.244 . S
O134 Mn132 2.089 . S
O134 C141 1.256 . S
O135 Mn127 2.160 . S
O135 C144 1.239 . S
O136 Mn129 2.089 . S
O136 C144 1.256 . S
O137 Mn132 2.251 . S
O137 C142 1.241 . S
O138 Mn132 2.087 . S
O138 C143 1.256 . S
C139 O145 1.278 . S
C139 O146 1.241 . S
C140 O126 1.244 . S
C140 O128 1.256 . S
C141 O130 1.239 . S
C141 O134 1.256 . S
C142 O131 1.278 . S
C142 O137 1.241 . S
C143 O133 1.244 . S
C143 O138 1.256 . S
C144 O135 1.239 . S
C144 O136 1.256 . S
O145 Mn127 2.221 . S
O145 Mn129 2.290 . S
O145 C139 1.278 . S
O146 Mn129 2.251 . S
O146 C139 1.241 . S
O147 Mn148 2.163 . S
O147 C161 1.244 . S
Mn148 O147 2.163 . S
Mn148 O151 2.160 . S
Mn148 O152 2.221 . S
Mn148 O154 2.163 . S
Mn148 O156 2.160 . S
Mn148 O166 2.221 . S
O149 Mn150 2.087 . S
O149 C161 1.256 . S
Mn150 O149 2.087 . S
Mn150 O157 2.089 . S
Mn150 O166 2.290 . S
Mn150 O167 2.251 . S
O151 Mn148 2.160 . S
O151 C162 1.239 . S
O152 Mn148 2.221 . S
O152 Mn153 2.290 . S
O152 C163 1.278 . S
Mn153 O152 2.290 . S
Mn153 O155 2.089 . S
Mn153 O158 2.251 . S
Mn153 O159 2.087 . S
O154 Mn148 2.163 . S
O154 C164 1.244 . S
O155 Mn153 2.089 . S
O155 C162 1.256 . S
O156 Mn148 2.160 . S
O156 C165 1.239 . S
O157 Mn150 2.089 . S
O157 C165 1.256 . S
O158 Mn153 2.251 . S
O158 C163 1.241 . S
O159 Mn153 2.087 . S
O159 C164 1.256 . S
C160 O166 1.278 . S
C160 O167 1.241 . S
C161 O147 1.244 . S
C161 O149 1.256 . S
C162 O151 1.239 . S
C162 O155 1.256 . S
C163 O152 1.278 . S
C163 O158 1.241 . S
C164 O154 1.244 . S
C164 O159 1.256 . S
C165 O156 1.239 . S
C165 O157 1.256 . S
O166 Mn148 2.221 . S
O166 Mn150 2.290 . S
O166 C160 1.278 . S
O167 Mn150 2.251 . S
O167 C160 1.241 . S
O168 Mn169 2.163 . S
O168 C182 1.244 . S
Mn169 O168 2.163 . S
Mn169 O172 2.160 . S
Mn169 O173 2.221 . S
Mn169 O175 2.163 . S
Mn169 O177 2.160 . S
Mn169 O187 2.221 . S
O170 Mn171 2.087 . S
O170 C182 1.256 . S
Mn171 O170 2.087 . S
Mn171 O178 2.089 . S
Mn171 O187 2.290 . S
Mn171 O188 2.251 . S
O172 Mn169 2.160 . S
O172 C183 1.239 . S
O173 Mn169 2.221 . S
O173 Mn174 2.290 . S
O173 C184 1.278 . S
Mn174 O173 2.290 . S
Mn174 O176 2.089 . S
Mn174 O179 2.251 . S
Mn174 O180 2.087 . S
O175 Mn169 2.163 . S
O175 C185 1.244 . S
O176 Mn174 2.089 . S
O176 C183 1.256 . S
O177 Mn169 2.160 . S
O177 C186 1.239 . S
O178 Mn171 2.089 . S
O178 C186 1.256 . S
O179 Mn174 2.251 . S
O179 C184 1.241 . S
O180 Mn174 2.087 . S
O180 C185 1.256 . S
C181 O187 1.278 . S
C181 O188 1.241 . S
C182 O168 1.244 . S
C182 O170 1.256 . S
C183 O172 1.239 . S
C183 O176 1.256 . S
C184 O173 1.278 . S
C184 O179 1.241 . S
C185 O175 1.244 . S
C185 O180 1.256 . S
C186 O177 1.239 . S
C186 O178 1.256 . S
O187 Mn169 2.221 . S
O187 Mn171 2.290 . S
O187 C181 1.278 . S
O188 Mn171 2.251 . S
O188 C181 1.241 . S
O189 Mn190 2.163 . S
O189 C203 1.244 . S
Mn190 O189 2.163 . S
Mn190 O193 2.160 . S
Mn190 O194 2.221 . S
Mn190 O196 2.163 . S
Mn190 O198 2.160 . S
Mn190 O208 2.221 . S
O191 Mn192 2.087 . S
O191 C203 1.256 . S
Mn192 O191 2.087 . S
Mn192 O199 2.089 . S
Mn192 O208 2.290 . S
Mn192 O209 2.251 . S
O193 Mn190 2.160 . S
O193 C204 1.239 . S
O194 Mn190 2.221 . S
O194 Mn195 2.290 . S
O194 C205 1.278 . S
Mn195 O194 2.290 . S
Mn195 O197 2.089 . S
Mn195 O200 2.251 . S
Mn195 O201 2.087 . S
O196 Mn190 2.163 . S
O196 C206 1.244 . S
O197 Mn195 2.089 . S
O197 C204 1.256 . S
O198 Mn190 2.160 . S
O198 C207 1.239 . S
O199 Mn192 2.089 . S
O199 C207 1.256 . S
O200 Mn195 2.251 . S
O200 C205 1.241 . S
O201 Mn195 2.087 . S
O201 C206 1.256 . S
C202 O208 1.278 . S
C202 O209 1.241 . S
C203 O189 1.244 . S
C203 O191 1.256 . S
C204 O193 1.239 . S
C204 O197 1.256 . S
C205 O194 1.278 . S
C205 O200 1.241 . S
C206 O196 1.244 . S
C206 O201 1.256 . S
C207 O198 1.239 . S
C207 O199 1.256 . S
O208 Mn190 2.221 . S
O208 Mn192 2.290 . S
O208 C202 1.278 . S
O209 Mn192 2.251 . S
O209 C202 1.241 . S
O210 Mn211 2.163 . S
O210 C224 1.244 . S
Mn211 O210 2.163 . S
Mn211 O214 2.160 . S
Mn211 O215 2.221 . S
Mn211 O217 2.163 . S
Mn211 O219 2.160 . S
Mn211 O229 2.221 . S
O212 Mn213 2.087 . S
O212 C224 1.256 . S
Mn213 O212 2.087 . S
Mn213 O220 2.089 . S
Mn213 O229 2.290 . S
Mn213 O230 2.251 . S
O214 Mn211 2.160 . S
O214 C225 1.239 . S
O215 Mn211 2.221 . S
O215 Mn216 2.290 . S
O215 C226 1.278 . S
Mn216 O215 2.290 . S
Mn216 O218 2.089 . S
Mn216 O221 2.251 . S
Mn216 O222 2.087 . S
O217 Mn211 2.163 . S
O217 C227 1.244 . S
O218 Mn216 2.089 . S
O218 C225 1.256 . S
O219 Mn211 2.160 . S
O219 C228 1.239 . S
O220 Mn213 2.089 . S
O220 C228 1.256 . S
O221 Mn216 2.251 . S
O221 C226 1.241 . S
O222 Mn216 2.087 . S
O222 C227 1.256 . S
C223 O229 1.278 . S
C223 O230 1.241 . S
C224 O210 1.244 . S
C224 O212 1.256 . S
C225 O214 1.239 . S
C225 O218 1.256 . S
C226 O215 1.278 . S
C226 O221 1.241 . S
C227 O217 1.244 . S
C227 O222 1.256 . S
C228 O219 1.239 . S
C228 O220 1.256 . S
O229 Mn211 2.221 . S
O229 Mn213 2.290 . S
O229 C223 1.278 . S
O230 Mn213 2.251 . S
O230 C223 1.241 . S
O231 Mn232 2.163 . S
O231 C245 1.244 . S
Mn232 O231 2.163 . S
Mn232 O235 2.160 . S
Mn232 O236 2.221 . S
Mn232 O238 2.163 . S
Mn232 O240 2.160 . S
Mn232 O250 2.221 . S
O233 Mn234 2.087 . S
O233 C245 1.256 . S
Mn234 O233 2.087 . S
Mn234 O241 2.089 . S
Mn234 O250 2.290 . S
Mn234 O251 2.251 . S
O235 Mn232 2.160 . S
O235 C246 1.239 . S
O236 Mn232 2.221 . S
O236 Mn237 2.290 . S
O236 C247 1.278 . S
Mn237 O236 2.290 . S
Mn237 O239 2.089 . S
Mn237 O242 2.251 . S
Mn237 O243 2.087 . S
O238 Mn232 2.163 . S
O238 C248 1.244 . S
O239 Mn237 2.089 . S
O239 C246 1.256 . S
O240 Mn232 2.160 . S
O240 C249 1.239 . S
O241 Mn234 2.089 . S
O241 C249 1.256 . S
O242 Mn237 2.251 . S
O242 C247 1.241 . S
O243 Mn237 2.087 . S
O243 C248 1.256 . S
C244 O250 1.278 . S
C244 O251 1.241 . S
C245 O231 1.244 . S
C245 O233 1.256 . S
C246 O235 1.239 . S
C246 O239 1.256 . S
C247 O236 1.278 . S
C247 O242 1.241 . S
C248 O238 1.244 . S
C248 O243 1.256 . S
C249 O240 1.239 . S
C249 O241 1.256 . S
O250 Mn232 2.221 . S
O250 Mn234 2.290 . S
O250 C244 1.278 . S
O251 Mn234 2.251 . S
O251 C244 1.241 . S
C252 C253 1.349 . S
C252 C254 1.327 . S
C252 H277 0.950 . S
C253 C252 1.349 . S
C253 C269 1.349 . S
C254 C252 1.327 . S
C254 C273 1.429 . S
C254 H278 0.950 . S
C255 C272 1.574 . S
C255 C274 1.368 . S
C255 H279 0.949 . S
H256 C260 0.949 . S
C257 C258 1.349 . S
C257 C259 1.327 . S
C257 H280 0.950 . S
C258 C257 1.349 . S
C258 C270 1.349 . S
C259 C257 1.327 . S
C259 C275 1.429 . S
C259 H281 0.950 . S
C260 H256 0.949 . S
C260 C268 1.574 . S
C260 C276 1.368 . S
H261 C269 0.950 . S
H262 C267 0.950 . S
H263 C268 0.949 . S
H264 C270 0.950 . S
H265 C271 0.950 . S
H266 C272 0.949 . S
C267 H262 0.950 . S
C267 C269 1.327 . S
C267 C273 1.429 . S
C268 C260 1.574 . S
C268 H263 0.949 . S
C268 C274 1.368 . S
C269 C253 1.349 . S
C269 H261 0.950 . S
C269 C267 1.327 . S
C270 C258 1.349 . S
C270 H264 0.950 . S
C270 C271 1.327 . S
C271 H265 0.950 . S
C271 C270 1.327 . S
C271 C275 1.429 . S
C272 C255 1.574 . S
C272 H266 0.949 . S
C272 C276 1.368 . S
C273 C254 1.429 . S
C273 C267 1.429 . S
C273 C274 1.523 . S
C274 C255 1.368 . S
C274 C268 1.368 . S
C274 C273 1.523 . S
C275 C259 1.429 . S
C275 C271 1.429 . S
C275 C276 1.523 . S
C276 C260 1.368 . S
C276 C272 1.368 . S
C276 C275 1.523 . S
H277 C252 0.950 . S
H278 C254 0.950 . S
H279 C255 0.949 . S
H280 C257 0.950 . S
H281 C259 0.950 . S
C282 C283 1.349 . S
C282 C284 1.327 . S
C282 H307 0.950 . S
C283 C282 1.349 . S
C283 C299 1.349 1_545 S
C284 C282 1.327 . S
C284 C303 1.429 1_545 S
C284 H308 0.950 . S
C285 C302 1.574 . S
C285 C304 1.368 . S
C285 H309 0.949 . S
H286 C290 0.949 1_545 S
C287 C288 1.349 . S
C287 C289 1.327 . S
C287 H310 0.950 . S
C288 C287 1.349 . S
C288 C300 1.349 . S
C289 C287 1.327 . S
C289 C305 1.429 . S
C289 H311 0.950 . S
C290 H286 0.949 1_565 S
C290 C298 1.574 1_565 S
C290 C306 1.368 . S
H291 C299 0.950 . S
H292 C297 0.950 . S
H293 C298 0.949 . S
H294 C300 0.950 . S
H295 C301 0.950 . S
H296 C302 0.949 . S
C297 H292 0.950 . S
C297 C299 1.327 . S
C297 C303 1.429 . S
C298 C290 1.574 1_545 S
C298 H293 0.949 . S
C298 C304 1.368 1_545 S
C299 C283 1.349 1_565 S
C299 H291 0.950 . S
C299 C297 1.327 . S
C300 C288 1.349 . S
C300 H294 0.950 . S
C300 C301 1.327 . S
C301 H295 0.950 . S
C301 C300 1.327 . S
C301 C305 1.429 . S
C302 C285 1.574 . S
C302 H296 0.949 . S
C302 C306 1.368 . S
C303 C284 1.429 1_565 S
C303 C297 1.429 . S
C303 C304 1.523 . S
C304 C285 1.368 . S
C304 C298 1.368 1_565 S
C304 C303 1.523 . S
C305 C289 1.429 . S
C305 C301 1.429 . S
C305 C306 1.523 . S
C306 C290 1.368 . S
C306 C302 1.368 . S
C306 C305 1.523 . S
H307 C282 0.950 . S
H308 C284 0.950 . S
H309 C285 0.949 . S
H310 C287 0.950 . S
H311 C289 0.950 . S
C312 C313 1.349 1_554 S
C312 C314 1.327 . S
C312 H337 0.950 . S
C313 C312 1.349 1_556 S
C313 C329 1.349 . S
C314 C312 1.327 . S
C314 C333 1.429 . S
C314 H338 0.950 . S
C315 C332 1.574 1_556 S
C315 C334 1.368 1_556 S
C315 H339 0.949 . S
H316 C320 0.949 . S
C317 C318 1.349 . S
C317 C319 1.327 . S
C317 H340 0.950 . S
C318 C317 1.349 . S
C318 C330 1.349 . S
C319 C317 1.327 . S
C319 C335 1.429 . S
C319 H341 0.950 . S
C320 H316 0.949 . S
C320 C328 1.574 . S
C320 C336 1.368 . S
H321 C329 0.950 . S
H322 C327 0.950 . S
H323 C328 0.949 . S
H324 C330 0.950 . S
H325 C331 0.950 . S
H326 C332 0.949 1_556 S
C327 H322 0.950 . S
C327 C329 1.327 . S
C327 C333 1.429 1_556 S
C328 C320 1.574 . S
C328 H323 0.949 . S
C328 C334 1.368 . S
C329 C313 1.349 . S
C329 H321 0.950 . S
C329 C327 1.327 . S
C330 C318 1.349 . S
C330 H324 0.950 . S
C330 C331 1.327 . S
C331 H325 0.950 . S
C331 C330 1.327 . S
C331 C335 1.429 . S
C332 C315 1.574 1_554 S
C332 H326 0.949 1_554 S
C332 C336 1.368 . S
C333 C314 1.429 . S
C333 C327 1.429 1_554 S
C333 C334 1.523 . S
C334 C315 1.368 1_554 S
C334 C328 1.368 . S
C334 C333 1.523 . S
C335 C319 1.429 . S
C335 C331 1.429 . S
C335 C336 1.523 . S
C336 C320 1.368 . S
C336 C332 1.368 . S
C336 C335 1.523 . S
H337 C312 0.950 . S
H338 C314 0.950 . S
H339 C315 0.949 . S
H340 C317 0.950 . S
H341 C319 0.950 . S
C342 C343 1.349 . S
C342 C344 1.327 . S
C342 H367 0.950 . S
C343 C342 1.349 . S
C343 C359 1.349 . S
C344 C342 1.327 . S
C344 C363 1.429 . S
C344 H368 0.950 . S
C345 C362 1.574 . S
C345 C364 1.368 . S
C345 H369 0.949 . S
H346 C350 0.949 . S
C347 C348 1.349 . S
C347 C349 1.327 . S
C347 H370 0.950 . S
C348 C347 1.349 . S
C348 C360 1.349 . S
C349 C347 1.327 . S
C349 C365 1.429 1_565 S
C349 H371 0.950 . S
C350 H346 0.949 . S
C350 C358 1.574 . S
C350 C366 1.368 . S
H351 C359 0.950 . S
H352 C357 0.950 . S
H353 C358 0.949 . S
H354 C360 0.950 . S
H355 C361 0.955 . S
H356 C362 0.949 . S
C357 H352 0.950 . S
C357 C359 1.327 . S
C357 C363 1.429 . S
C358 C350 1.574 . S
C358 H353 0.949 . S
C358 C364 1.368 . S
C359 C343 1.349 . S
C359 H351 0.950 . S
C359 C357 1.327 . S
C360 C348 1.349 . S
C360 H354 0.950 . S
C360 C361 1.321 1_565 S
C361 H355 0.955 . S
C361 C360 1.321 1_545 S
C361 C365 1.431 . S
C362 C345 1.574 . S
C362 H356 0.949 . S
C362 C366 1.368 . S
C363 C344 1.429 . S
C363 C357 1.429 . S
C363 C364 1.523 . S
C364 C345 1.368 . S
C364 C358 1.368 . S
C364 C363 1.523 . S
C365 C349 1.429 1_545 S
C365 C361 1.431 . S
C365 C366 1.523 . S
C366 C350 1.368 . S
C366 C362 1.368 . S
C366 C365 1.523 . S
H367 C342 0.950 . S
H368 C344 0.950 . S
H369 C345 0.949 . S
H370 C347 0.950 . S
H371 C349 0.950 . S
C372 C373 1.349 . S
C372 C374 1.327 . S
C372 H397 0.950 . S
C373 C372 1.349 . S
C373 C389 1.349 . S
C374 C372 1.327 . S
C374 C393 1.429 . S
C374 H398 0.950 . S
C375 C392 1.574 . S
C375 C394 1.368 . S
C375 H399 0.949 . S
H376 C380 0.949 . S
C377 C378 1.349 . S
C377 C379 1.327 . S
C377 H400 0.950 . S
C378 C377 1.349 . S
C378 C390 1.349 . S
C379 C377 1.327 . S
C379 C395 1.429 . S
C379 H401 0.950 . S
C380 H376 0.949 . S
C380 C388 1.574 . S
C380 C396 1.368 . S
H381 C389 0.950 . S
H382 C387 0.950 . S
H383 C388 0.949 . S
H384 C390 0.936 1_565 S
H385 C391 0.950 . S
H386 C392 0.949 . S
C387 H382 0.950 . S
C387 C389 1.327 . S
C387 C393 1.429 . S
C388 C380 1.574 . S
C388 H383 0.949 . S
C388 C394 1.368 . S
C389 C373 1.349 . S
C389 H381 0.950 . S
C389 C387 1.327 . S
C390 C378 1.349 . S
C390 H384 0.936 1_545 S
C390 C391 1.327 . S
C391 H385 0.950 . S
C391 C390 1.327 . S
C391 C395 1.429 . S
C392 C375 1.574 . S
C392 H386 0.949 . S
C392 C396 1.368 . S
C393 C374 1.429 . S
C393 C387 1.429 . S
C393 C394 1.523 . S
C394 C375 1.368 . S
C394 C388 1.368 . S
C394 C393 1.523 . S
C395 C379 1.429 . S
C395 C391 1.429 . S
C395 C396 1.523 . S
C396 C380 1.368 . S
C396 C392 1.368 . S
C396 C395 1.523 . S
H397 C372 0.950 . S
H398 C374 0.950 . S
H399 C375 0.949 . S
H400 C377 0.950 . S
H401 C379 0.950 . S
C402 C403 1.349 . S
C402 C404 1.327 . S
C402 H427 0.950 . S
C403 C402 1.349 . S
C403 C419 1.349 . S
C404 C402 1.327 . S
C404 C423 1.429 . S
C404 H428 0.950 . S
C405 C422 1.574 . S
C405 C424 1.368 . S
C405 H429 0.949 . S
H406 C410 0.949 . S
C407 C408 1.349 . S
C407 C409 1.327 . S
C407 H430 0.950 . S
C408 C407 1.349 . S
C408 C420 1.349 . S
C409 C407 1.327 . S
C409 C425 1.429 . S
C409 H431 0.950 . S
C410 H406 0.949 . S
C410 C418 1.574 . S
C410 C426 1.368 . S
H411 C419 0.950 . S
H412 C417 0.950 . S
H413 C418 0.949 . S
H414 C420 0.950 . S
H415 C421 0.950 . S
H416 C422 0.949 . S
C417 H412 0.950 . S
C417 C419 1.327 . S
C417 C423 1.429 . S
C418 C410 1.574 . S
C418 H413 0.949 . S
C418 C424 1.368 . S
C419 C403 1.349 . S
C419 H411 0.950 . S
C419 C417 1.327 . S
C420 C408 1.349 . S
C420 H414 0.950 . S
C420 C421 1.327 . S
C421 H415 0.950 . S
C421 C420 1.327 . S
C421 C425 1.429 . S
C422 C405 1.574 . S
C422 H416 0.949 . S
C422 C426 1.368 . S
C423 C404 1.429 . S
C423 C417 1.429 . S
C423 C424 1.523 . S
C424 C405 1.368 . S
C424 C418 1.368 . S
C424 C423 1.523 . S
C425 C409 1.429 . S
C425 C421 1.429 . S
C425 C426 1.523 . S
C426 C410 1.368 . S
C426 C422 1.368 . S
C426 C425 1.523 . S
H427 C402 0.950 . S
H428 C404 0.950 . S
H429 C405 0.949 . S
H430 C407 0.950 . S
H431 C409 0.950 . S
C432 C433 1.349 . S
C432 C434 1.327 . S
C432 H457 0.950 . S
C433 C432 1.349 . S
C433 C449 1.349 . S
C434 C432 1.327 . S
C434 C453 1.429 . S
C434 H458 0.950 . S
C435 C452 1.574 1_556 S
C435 C454 1.368 . S
C435 H459 0.949 1_556 S
H436 C440 0.949 . S
C437 C438 1.349 . S
C437 C439 1.327 . S
C437 H460 0.950 . S
C438 C437 1.349 . S
C438 C450 1.349 1_554 S
C439 C437 1.327 . S
C439 C455 1.429 1_554 S
C439 H461 0.950 . S
C440 H436 0.949 . S
C440 C448 1.574 . S
C440 C456 1.368 . S
H441 C449 0.950 . S
H442 C447 0.950 . S
H443 C448 0.949 . S
H444 C450 0.950 . S
H445 C451 0.950 . S
H446 C452 0.949 . S
C447 H442 0.950 . S
C447 C449 1.327 . S
C447 C453 1.429 . S
C448 C440 1.574 . S
C448 H443 0.949 . S
C448 C454 1.368 . S
C449 C433 1.349 . S
C449 H441 0.950 . S
C449 C447 1.327 . S
C450 C438 1.349 1_556 S
C450 H444 0.950 . S
C450 C451 1.327 . S
C451 H445 0.950 . S
C451 C450 1.327 . S
C451 C455 1.429 . S
C452 C435 1.574 1_554 S
C452 H446 0.949 . S
C452 C456 1.368 1_554 S
C453 C434 1.429 . S
C453 C447 1.429 . S
C453 C454 1.523 . S
C454 C435 1.368 . S
C454 C448 1.368 . S
C454 C453 1.523 . S
C455 C439 1.429 1_556 S
C455 C451 1.429 . S
C455 C456 1.523 . S
C456 C440 1.368 . S
C456 C452 1.368 1_556 S
C456 C455 1.523 . S
H457 C432 0.950 . S
H458 C434 0.950 . S
H459 C435 0.949 1_554 S
H460 C437 0.950 . S
H461 C439 0.950 . S
C462 C463 1.349 . S
C462 C464 1.327 . S
C462 H487 0.950 . S
C463 C462 1.349 . S
C463 C479 1.349 . S
C464 C462 1.327 . S
C464 C483 1.429 . S
C464 H488 0.950 . S
C465 C482 1.574 . S
C465 C484 1.368 . S
C465 H489 0.949 . S
H466 C470 0.949 . S
C467 C468 1.349 . S
C467 C469 1.327 . S
C467 H490 0.950 . S
C468 C467 1.349 . S
C468 C480 1.349 . S
C469 C467 1.327 . S
C469 C485 1.429 . S
C469 H491 0.950 . S
C470 H466 0.949 . S
C470 C478 1.574 . S
C470 C486 1.368 . S
H471 C479 0.950 . S
H472 C477 0.950 . S
H473 C478 0.949 . S
H474 C480 0.950 . S
H475 C481 0.950 . S
H476 C482 0.949 . S
C477 H472 0.950 . S
C477 C479 1.327 . S
C477 C483 1.429 . S
C478 C470 1.574 . S
C478 H473 0.949 . S
C478 C484 1.368 . S
C479 C463 1.349 . S
C479 H471 0.950 . S
C479 C477 1.327 . S
C480 C468 1.349 . S
C480 H474 0.950 . S
C480 C481 1.327 . S
C481 H475 0.950 . S
C481 C480 1.327 . S
C481 C485 1.429 . S
C482 C465 1.574 . S
C482 H476 0.949 . S
C482 C486 1.368 . S
C483 C464 1.429 . S
C483 C477 1.429 . S
C483 C484 1.523 . S
C484 C465 1.368 . S
C484 C478 1.368 . S
C484 C483 1.523 . S
C485 C469 1.429 . S
C485 C481 1.429 . S
C485 C486 1.523 . S
C486 C470 1.368 . S
C486 C482 1.368 . S
C486 C485 1.523 . S
H487 C462 0.950 . S
H488 C464 0.950 . S
H489 C465 0.949 . S
H490 C467 0.950 . S
H491 C469 0.950 . S
C492 C493 1.349 . S
C492 C494 1.327 . S
C492 H517 0.950 . S
C493 C492 1.349 . S
C493 C509 1.349 . S
C494 C492 1.327 . S
C494 C513 1.429 . S
C494 H518 0.950 . S
C495 C512 1.574 . S
C495 C514 1.368 . S
C495 H519 0.949 . S
H496 C500 0.949 . S
C497 C498 1.349 . S
C497 C499 1.327 . S
C497 H520 0.950 . S
C498 C497 1.349 . S
C498 C510 1.349 . S
C499 C497 1.327 . S
C499 C515 1.429 . S
C499 H521 0.950 . S
C500 H496 0.949 . S
C500 C508 1.574 . S
C500 C516 1.368 . S
H501 C509 0.950 . S
H502 C507 0.950 . S
H503 C508 0.949 . S
H504 C510 0.950 . S
H505 C511 0.950 . S
H506 C512 0.949 . S
C507 H502 0.950 . S
C507 C509 1.327 . S
C507 C513 1.429 . S
C508 C500 1.574 . S
C508 H503 0.949 . S
C508 C514 1.368 . S
C509 C493 1.349 . S
C509 H501 0.950 . S
C509 C507 1.327 . S
C510 C498 1.349 . S
C510 H504 0.950 . S
C510 C511 1.327 . S
C511 H505 0.950 . S
C511 C510 1.327 . S
C511 C515 1.429 . S
C512 C495 1.574 . S
C512 H506 0.949 . S
C512 C516 1.368 . S
C513 C494 1.429 . S
C513 C507 1.429 . S
C513 C514 1.523 . S
C514 C495 1.368 . S
C514 C508 1.368 . S
C514 C513 1.523 . S
C515 C499 1.429 . S
C515 C511 1.429 . S
C515 C516 1.523 . S
C516 C500 1.368 . S
C516 C512 1.368 . S
C516 C515 1.523 . S
H517 C492 0.950 . S
H518 C494 0.950 . S
H519 C495 0.949 . S
H520 C497 0.950 . S
H521 C499 0.950 . S
C522 C523 1.349 . S
C522 C524 1.327 . S
C522 H547 0.950 . S
C523 C522 1.349 . S
C523 C539 1.349 . S
C524 C522 1.327 . S
C524 C543 1.429 . S
C524 H548 0.950 . S
C525 C542 1.574 . S
C525 C544 1.368 . S
C525 H549 0.949 . S
H526 C530 0.958 . S
C527 C528 1.349 1_455 S
C527 C529 1.327 . S
C527 H550 0.950 . S
C528 C527 1.349 1_655 S
C528 C540 1.349 . S
C529 C527 1.327 . S
C529 C545 1.429 . S
C529 H551 0.950 . S
C530 H526 0.958 . S
C530 C538 1.570 1_655 S
C530 C546 1.363 1_655 S
H531 C539 0.950 . S
H532 C537 0.950 . S
H533 C538 0.949 . S
H534 C540 0.950 . S
H535 C541 0.950 . S
H536 C542 0.949 . S
C537 H532 0.950 . S
C537 C539 1.327 . S
C537 C543 1.429 . S
C538 C530 1.570 1_455 S
C538 H533 0.949 . S
C538 C544 1.368 . S
C539 C523 1.349 . S
C539 H531 0.950 . S
C539 C537 1.327 . S
C540 C528 1.349 . S
C540 H534 0.950 . S
C540 C541 1.327 . S
C541 H535 0.950 . S
C541 C540 1.327 . S
C541 C545 1.429 1_655 S
C542 C525 1.574 . S
C542 H536 0.949 . S
C542 C546 1.368 . S
C543 C524 1.429 . S
C543 C537 1.429 . S
C543 C544 1.523 . S
C544 C525 1.368 . S
C544 C538 1.368 . S
C544 C543 1.523 . S
C545 C529 1.429 . S
C545 C541 1.429 1_455 S
C545 C546 1.523 . S
C546 C530 1.363 1_455 S
C546 C542 1.368 . S
C546 C545 1.523 . S
H547 C522 0.950 . S
H548 C524 0.950 . S
H549 C525 0.949 . S
H550 C527 0.950 . S
H551 C529 0.950 . S
C552 C553 1.349 1_655 S
C552 C554 1.327 . S
C552 H577 0.950 . S
C553 C552 1.349 1_455 S
C553 C569 1.349 . S
C554 C552 1.327 . S
C554 C573 1.429 . S
C554 H578 0.950 . S
C555 C572 1.578 . S
C555 C574 1.374 . S
C555 H579 0.940 1_655 S
H556 C560 0.949 . S
C557 C558 1.349 . S
C557 C559 1.327 . S
C557 H580 0.950 . S
C558 C557 1.349 . S
C558 C570 1.349 . S
C559 C557 1.327 . S
C559 C575 1.429 . S
C559 H581 0.950 . S
C560 H556 0.949 . S
C560 C568 1.574 . S
C560 C576 1.368 . S
H561 C569 0.950 . S
H562 C567 0.950 . S
H563 C568 0.949 . S
H564 C570 0.950 . S
H565 C571 0.950 . S
H566 C572 0.949 . S
C567 H562 0.950 . S
C567 C569 1.327 . S
C567 C573 1.429 1_455 S
C568 C560 1.574 . S
C568 H563 0.949 . S
C568 C574 1.368 . S
C569 C553 1.349 . S
C569 H561 0.950 . S
C569 C567 1.327 . S
C570 C558 1.349 . S
C570 H564 0.950 . S
C570 C571 1.327 . S
C571 H565 0.950 . S
C571 C570 1.327 . S
C571 C575 1.429 . S
C572 C555 1.578 . S
C572 H566 0.949 . S
C572 C576 1.368 . S
C573 C554 1.429 . S
C573 C567 1.429 1_655 S
C573 C574 1.523 . S
C574 C555 1.374 . S
C574 C568 1.368 . S
C574 C573 1.523 . S
C575 C559 1.429 . S
C575 C571 1.429 . S
C575 C576 1.523 . S
C576 C560 1.368 . S
C576 C572 1.368 . S
C576 C575 1.523 . S
H577 C552 0.950 . S
H578 C554 0.950 . S
H579 C555 0.940 1_455 S
H580 C557 0.950 . S
H581 C559 0.950 . S
C582 C583 1.349 . S
C582 C584 1.327 . S
C582 H607 0.950 . S
C583 C582 1.349 . S
C583 C599 1.349 . S
C584 C582 1.327 . S
C584 C603 1.429 . S
C584 H608 0.950 . S
C585 C602 1.574 . S
C585 C604 1.368 . S
C585 H609 0.949 . S
H586 C590 0.949 . S
C587 C588 1.349 . S
C587 C589 1.327 . S
C587 H610 0.950 . S
C588 C587 1.349 . S
C588 C600 1.349 . S
C589 C587 1.327 . S
C589 C605 1.429 . S
C589 H611 0.950 . S
C590 H586 0.949 . S
C590 C598 1.574 . S
C590 C606 1.368 . S
H591 C599 0.950 . S
H592 C597 0.950 . S
H593 C598 0.949 . S
H594 C600 0.950 . S
H595 C601 0.950 . S
H596 C602 0.949 . S
C597 H592 0.950 . S
C597 C599 1.327 . S
C597 C603 1.429 . S
C598 C590 1.574 . S
C598 H593 0.949 . S
C598 C604 1.368 . S
C599 C583 1.349 . S
C599 H591 0.950 . S
C599 C597 1.327 . S
C600 C588 1.349 . S
C600 H594 0.950 . S
C600 C601 1.327 . S
C601 H595 0.950 . S
C601 C600 1.327 . S
C601 C605 1.429 . S
C602 C585 1.574 . S
C602 H596 0.949 . S
C602 C606 1.368 . S
C603 C584 1.429 . S
C603 C597 1.429 . S
C603 C604 1.523 . S
C604 C585 1.368 . S
C604 C598 1.368 . S
C604 C603 1.523 . S
C605 C589 1.429 . S
C605 C601 1.429 . S
C605 C606 1.523 . S
C606 C590 1.368 . S
C606 C602 1.368 . S
C606 C605 1.523 . S
H607 C582 0.950 . S
H608 C584 0.950 . S
H609 C585 0.949 . S
H610 C587 0.950 . S
H611 C589 0.950 . S
C612 C613 1.349 . S
C612 C614 1.327 . S
C612 H637 0.950 . S
C613 C612 1.349 . S
C613 C629 1.349 . S
C614 C612 1.327 . S
C614 C633 1.429 . S
C614 H638 0.950 . S
C615 C632 1.574 . S
C615 C634 1.368 . S
C615 H639 0.949 . S
H616 C620 0.949 . S
C617 C618 1.349 . S
C617 C619 1.327 . S
C617 H640 0.950 . S
C618 C617 1.349 . S
C618 C630 1.349 . S
C619 C617 1.327 . S
C619 C635 1.429 . S
C619 H641 0.950 . S
C620 H616 0.949 . S
C620 C628 1.574 . S
C620 C636 1.368 . S
H621 C629 0.950 . S
H622 C627 0.950 . S
H623 C628 0.949 . S
H624 C630 0.950 . S
H625 C631 0.950 . S
H626 C632 0.949 . S
C627 H622 0.950 . S
C627 C629 1.327 . S
C627 C633 1.429 . S
C628 C620 1.574 . S
C628 H623 0.949 . S
C628 C634 1.368 . S
C629 C613 1.349 . S
C629 H621 0.950 . S
C629 C627 1.327 . S
C630 C618 1.349 . S
C630 H624 0.950 . S
C630 C631 1.327 . S
C631 H625 0.950 . S
C631 C630 1.327 . S
C631 C635 1.429 . S
C632 C615 1.574 . S
C632 H626 0.949 . S
C632 C636 1.368 . S
C633 C614 1.429 . S
C633 C627 1.429 . S
C633 C634 1.523 . S
C634 C615 1.368 . S
C634 C628 1.368 . S
C634 C633 1.523 . S
C635 C619 1.429 . S
C635 C631 1.429 . S
C635 C636 1.523 . S
C636 C620 1.368 . S
C636 C632 1.368 . S
C636 C635 1.523 . S
H637 C612 0.950 . S
H638 C614 0.950 . S
H639 C615 0.949 . S
H640 C617 0.950 . S
H641 C619 0.950 . S
C642 C643 1.349 . S
C642 C644 1.327 . S
C642 H667 0.950 . S
C643 C642 1.349 . S
C643 C659 1.349 . S
C644 C642 1.327 . S
C644 C663 1.429 . S
C644 H668 0.950 . S
C645 C662 1.574 . S
C645 C664 1.368 . S
C645 H669 0.949 . S
H646 C650 0.949 . S
C647 C648 1.349 . S
C647 C649 1.327 . S
C647 H670 0.950 . S
C648 C647 1.349 . S
C648 C660 1.349 . S
C649 C647 1.327 . S
C649 C665 1.429 . S
C649 H671 0.950 . S
C650 H646 0.949 . S
C650 C658 1.574 . S
C650 C666 1.368 . S
H651 C659 0.950 1_455 S
H652 C657 0.950 . S
H653 C658 0.949 . S
H654 C660 0.950 . S
H655 C661 0.950 . S
H656 C662 0.949 . S
C657 H652 0.950 . S
C657 C659 1.327 . S
C657 C663 1.429 . S
C658 C650 1.574 . S
C658 H653 0.949 . S
C658 C664 1.368 . S
C659 C643 1.349 . S
C659 H651 0.950 1_655 S
C659 C657 1.327 . S
C660 C648 1.349 . S
C660 H654 0.950 . S
C660 C661 1.327 . S
C661 H655 0.950 . S
C661 C660 1.327 . S
C661 C665 1.429 . S
C662 C645 1.574 . S
C662 H656 0.949 . S
C662 C666 1.368 . S
C663 C644 1.429 . S
C663 C657 1.429 . S
C663 C664 1.523 . S
C664 C645 1.368 . S
C664 C658 1.368 . S
C664 C663 1.523 . S
C665 C649 1.429 . S
C665 C661 1.429 . S
C665 C666 1.523 . S
C666 C650 1.368 . S
C666 C662 1.368 . S
C666 C665 1.523 . S
H667 C642 0.950 . S
H668 C644 0.950 . S
H669 C645 0.949 . S
H670 C647 0.950 . S
H671 C649 0.950 . S
C672 C673 1.349 . S
C672 C674 1.327 . S
C672 H697 0.950 . S
C673 C672 1.349 . S
C673 C689 1.349 . S
C674 C672 1.327 . S
C674 C693 1.429 . S
C674 H698 0.950 . S
C675 C692 1.574 . S
C675 C694 1.368 . S
C675 H699 0.949 . S
H676 C680 0.949 . S
C677 C678 1.349 . S
C677 C679 1.327 . S
C677 H700 0.950 . S
C678 C677 1.349 . S
C678 C690 1.349 . S
C679 C677 1.327 . S
C679 C695 1.429 . S
C679 H701 0.950 . S
C680 H676 0.949 . S
C680 C688 1.574 . S
C680 C696 1.368 . S
H681 C689 0.950 . S
H682 C687 0.950 . S
H683 C688 0.949 . S
H684 C690 0.950 . S
H685 C691 0.950 . S
H686 C692 0.949 . S
C687 H682 0.950 . S
C687 C689 1.327 . S
C687 C693 1.429 . S
C688 C680 1.574 . S
C688 H683 0.949 . S
C688 C694 1.368 . S
C689 C673 1.349 . S
C689 H681 0.950 . S
C689 C687 1.327 . S
C690 C678 1.349 . S
C690 H684 0.950 . S
C690 C691 1.327 . S
C691 H685 0.950 . S
C691 C690 1.327 . S
C691 C695 1.429 . S
C692 C675 1.574 . S
C692 H686 0.949 . S
C692 C696 1.368 . S
C693 C674 1.429 . S
C693 C687 1.429 . S
C693 C694 1.523 . S
C694 C675 1.368 . S
C694 C688 1.368 . S
C694 C693 1.523 . S
C695 C679 1.429 . S
C695 C691 1.429 . S
C695 C696 1.523 . S
C696 C680 1.368 . S
C696 C692 1.368 . S
C696 C695 1.523 . S
H697 C672 0.950 . S
H698 C674 0.950 . S
H699 C675 0.949 . S
H700 C677 0.950 . S
H701 C679 0.950 . S
C702 C703 1.349 . S
C702 C704 1.327 . S
C702 H727 0.950 . S
C703 C702 1.349 . S
C703 C719 1.349 . S
C704 C702 1.327 . S
C704 C723 1.429 . S
C704 H728 0.950 . S
C705 C722 1.574 . S
C705 C724 1.368 . S
C705 H729 0.949 . S
H706 C710 0.949 . S
C707 C708 1.349 . S
C707 C709 1.327 . S
C707 H730 0.950 . S
C708 C707 1.349 . S
C708 C720 1.349 . S
C709 C707 1.327 . S
C709 C725 1.429 . S
C709 H731 0.950 . S
C710 H706 0.949 . S
C710 C718 1.574 . S
C710 C726 1.368 . S
H711 C719 0.950 . S
H712 C717 0.950 . S
H713 C718 0.949 . S
H714 C720 0.950 . S
H715 C721 0.950 . S
H716 C722 0.949 . S
C717 H712 0.950 . S
C717 C719 1.327 . S
C717 C723 1.429 . S
C718 C710 1.574 . S
C718 H713 0.949 . S
C718 C724 1.368 . S
C719 C703 1.349 . S
C719 H711 0.950 . S
C719 C717 1.327 . S
C720 C708 1.349 . S
C720 H714 0.950 . S
C720 C721 1.327 . S
C721 H715 0.950 . S
C721 C720 1.327 . S
C721 C725 1.429 . S
C722 C705 1.574 . S
C722 H716 0.949 . S
C722 C726 1.368 . S
C723 C704 1.429 . S
C723 C717 1.429 . S
C723 C724 1.523 . S
C724 C705 1.368 . S
C724 C718 1.368 . S
C724 C723 1.523 . S
C725 C709 1.429 . S
C725 C721 1.429 . S
C725 C726 1.523 1_556 S
C726 C710 1.368 . S
C726 C722 1.368 . S
C726 C725 1.523 1_554 S
H727 C702 0.950 . S
H728 C704 0.950 . S
H729 C705 0.949 . S
H730 C707 0.950 . S
H731 C709 0.950 . S
C732 C733 1.349 . S
C732 C734 1.327 . S
C732 H757 0.950 . S
C733 C732 1.349 . S
C733 C749 1.349 . S
C734 C732 1.327 . S
C734 C753 1.429 . S
C734 H758 0.950 . S
C735 C752 1.574 . S
C735 C754 1.368 . S
C735 H759 0.949 . S
H736 C740 0.949 . S
C737 C738 1.349 . S
C737 C739 1.327 . S
C737 H760 0.950 . S
C738 C737 1.349 . S
C738 C750 1.349 . S
C739 C737 1.327 . S
C739 C755 1.429 . S
C739 H761 0.950 . S
C740 H736 0.949 . S
C740 C748 1.574 . S
C740 C756 1.368 . S
H741 C749 0.950 . S
H742 C747 0.950 . S
H743 C748 0.949 . S
H744 C750 0.950 . S
H745 C751 0.950 . S
H746 C752 0.949 . S
C747 H742 0.950 . S
C747 C749 1.327 . S
C747 C753 1.429 . S
C748 C740 1.574 . S
C748 H743 0.949 . S
C748 C754 1.368 . S
C749 C733 1.349 . S
C749 H741 0.950 . S
C749 C747 1.327 . S
C750 C738 1.349 . S
C750 H744 0.950 . S
C750 C751 1.327 . S
C751 H745 0.950 . S
C751 C750 1.327 . S
C751 C755 1.429 . S
C752 C735 1.574 . S
C752 H746 0.949 . S
C752 C756 1.368 . S
C753 C734 1.429 . S
C753 C747 1.429 . S
C753 C754 1.523 . S
C754 C735 1.368 . S
C754 C748 1.368 . S
C754 C753 1.523 . S
C755 C739 1.429 . S
C755 C751 1.429 . S
C755 C756 1.523 . S
C756 C740 1.368 . S
C756 C752 1.368 . S
C756 C755 1.523 . S
H757 C732 0.950 . S
H758 C734 0.950 . S
H759 C735 0.949 . S
H760 C737 0.950 . S
H761 C739 0.950 . S
C762 C763 1.349 . S
C762 C764 1.327 . S
C762 H787 0.950 . S
C763 C762 1.349 . S
C763 C779 1.349 . S
C764 C762 1.327 . S
C764 C783 1.429 . S
C764 H788 0.950 . S
C765 C782 1.574 . S
C765 C784 1.368 . S
C765 H789 0.949 . S
H766 C770 0.949 . S
C767 C768 1.349 . S
C767 C769 1.327 . S
C767 H790 0.950 . S
C768 C767 1.349 . S
C768 C780 1.349 . S
C769 C767 1.327 . S
C769 C785 1.429 . S
C769 H791 0.950 . S
C770 H766 0.949 . S
C770 C778 1.574 . S
C770 C786 1.368 . S
H771 C779 0.950 . S
H772 C777 0.950 1_556 S
H773 C778 0.949 1_554 S
H774 C780 0.950 1_655 S
H775 C781 0.950 . S
H776 C782 0.949 . S
C777 H772 0.950 1_554 S
C777 C779 1.327 . S
C777 C783 1.429 . S
C778 C770 1.574 . S
C778 H773 0.949 1_556 S
C778 C784 1.368 . S
C779 C763 1.349 . S
C779 H771 0.950 . S
C779 C777 1.327 . S
C780 C768 1.349 . S
C780 H774 0.950 1_455 S
C780 C781 1.327 . S
C781 H775 0.950 . S
C781 C780 1.327 . S
C781 C785 1.429 . S
C782 C765 1.574 . S
C782 H776 0.949 . S
C782 C786 1.368 . S
C783 C764 1.429 . S
C783 C777 1.429 . S
C783 C784 1.523 1_554 S
C784 C765 1.368 . S
C784 C778 1.368 . S
C784 C783 1.523 1_556 S
C785 C769 1.429 . S
C785 C781 1.429 . S
C785 C786 1.523 . S
C786 C770 1.368 . S
C786 C782 1.368 . S
C786 C785 1.523 . S
H787 C762 0.950 . S
H788 C764 0.950 . S
H789 C765 0.949 . S
H790 C767 0.950 . S
H791 C769 0.950 . S
C792 C793 1.349 . S
C792 C794 1.327 . S
C792 H817 0.950 . S
C793 C792 1.349 . S
C793 C809 1.349 . S
C794 C792 1.327 . S
C794 C813 1.429 . S
C794 H818 0.950 . S
C795 C812 1.574 . S
C795 C814 1.368 . S
C795 H819 0.949 . S
H796 C800 0.949 . S
C797 C798 1.349 . S
C797 C799 1.327 . S
C797 H820 0.950 . S
C798 C797 1.349 . S
C798 C810 1.349 . S
C799 C797 1.327 . S
C799 C815 1.429 . S
C799 H821 0.950 . S
C800 H796 0.949 . S
C800 C808 1.574 . S
C800 C816 1.368 . S
H801 C809 0.950 . S
H802 C807 0.950 . S
H803 C808 0.949 . S
H804 C810 0.950 . S
H805 C811 0.950 . S
H806 C812 0.949 . S
C807 H802 0.950 . S
C807 C809 1.327 . S
C807 C813 1.429 . S
C808 C800 1.574 . S
C808 H803 0.949 . S
C808 C814 1.368 . S
C809 C793 1.349 . S
C809 H801 0.950 . S
C809 C807 1.327 . S
C810 C798 1.349 . S
C810 H804 0.950 . S
C810 C811 1.327 . S
C811 H805 0.950 . S
C811 C810 1.327 . S
C811 C815 1.429 . S
C812 C795 1.574 . S
C812 H806 0.949 . S
C812 C816 1.368 . S
C813 C794 1.429 . S
C813 C807 1.429 . S
C813 C814 1.523 . S
C814 C795 1.368 . S
C814 C808 1.368 . S
C814 C813 1.523 . S
C815 C799 1.429 . S
C815 C811 1.429 . S
C815 C816 1.523 . S
C816 C800 1.368 . S
C816 C812 1.368 . S
C816 C815 1.523 . S
H817 C792 0.950 . S
H818 C794 0.950 . S
H819 C795 0.949 . S
H820 C797 0.950 . S
H821 C799 0.950 . S
C822 C823 1.349 . S
C822 C824 1.327 . S
C822 H847 0.950 . S
C823 C822 1.349 . S
C823 C839 1.349 . S
C824 C822 1.327 . S
C824 C843 1.429 . S
C824 H848 0.950 . S
C825 C842 1.574 . S
C825 C844 1.368 . S
C825 H849 0.949 . S
H826 C830 0.949 . S
C827 C828 1.349 . S
C827 C829 1.327 . S
C827 H850 0.950 . S
C828 C827 1.349 . S
C828 C840 1.349 . S
C829 C827 1.327 . S
C829 C845 1.429 . S
C829 H851 0.950 . S
C830 H826 0.949 . S
C830 C838 1.574 . S
C830 C846 1.368 . S
H831 C839 0.950 . S
H832 C837 0.950 . S
H833 C838 0.949 . S
H834 C840 0.950 . S
H835 C841 0.950 . S
H836 C842 0.949 . S
C837 H832 0.950 . S
C837 C839 1.327 . S
C837 C843 1.429 . S
C838 C830 1.574 . S
C838 H833 0.949 . S
C838 C844 1.368 . S
C839 C823 1.349 . S
C839 H831 0.950 . S
C839 C837 1.327 . S
C840 C828 1.349 . S
C840 H834 0.950 . S
C840 C841 1.327 . S
C841 H835 0.950 . S
C841 C840 1.327 . S
C841 C845 1.429 . S
C842 C825 1.574 . S
C842 H836 0.949 . S
C842 C846 1.368 . S
C843 C824 1.429 . S
C843 C837 1.429 . S
C843 C844 1.523 . S
C844 C825 1.368 . S
C844 C838 1.368 . S
C844 C843 1.523 . S
C845 C829 1.429 . S
C845 C841 1.429 . S
C845 C846 1.523 . S
C846 C830 1.368 . S
C846 C842 1.368 . S
C846 C845 1.523 . S
H847 C822 0.950 . S
H848 C824 0.950 . S
H849 C825 0.949 . S
H850 C827 0.950 . S
H851 C829 0.950 . S
C852 C853 1.349 . S
C852 C854 1.327 . S
C852 H877 0.950 . S
C853 C852 1.349 . S
C853 C869 1.349 . S
C854 C852 1.327 . S
C854 C873 1.429 . S
C854 H878 0.950 . S
C855 C872 1.574 . S
C855 C874 1.368 . S
C855 H879 0.949 . S
H856 C860 0.949 . S
C857 C858 1.349 . S
C857 C859 1.327 . S
C857 H880 0.950 . S
C858 C857 1.349 . S
C858 C870 1.349 . S
C859 C857 1.327 . S
C859 C875 1.429 . S
C859 H881 0.950 . S
C860 H856 0.949 . S
C860 C868 1.574 . S
C860 C876 1.368 . S
H861 C869 0.950 . S
H862 C867 0.950 . S
H863 C868 0.949 . S
H864 C870 0.950 . S
H865 C871 0.950 . S
H866 C872 0.949 . S
C867 H862 0.950 . S
C867 C869 1.327 . S
C867 C873 1.429 . S
C868 C860 1.574 . S
C868 H863 0.949 . S
C868 C874 1.368 . S
C869 C853 1.349 . S
C869 H861 0.950 . S
C869 C867 1.327 . S
C870 C858 1.349 . S
C870 H864 0.950 . S
C870 C871 1.327 . S
C871 H865 0.950 . S
C871 C870 1.327 . S
C871 C875 1.429 . S
C872 C855 1.574 . S
C872 H866 0.949 . S
C872 C876 1.368 . S
C873 C854 1.429 . S
C873 C867 1.429 . S
C873 C874 1.523 . S
C874 C855 1.368 . S
C874 C868 1.368 . S
C874 C873 1.523 . S
C875 C859 1.429 . S
C875 C871 1.429 . S
C875 C876 1.523 . S
C876 C860 1.368 . S
C876 C872 1.368 . S
C876 C875 1.523 . S
H877 C852 0.950 . S
H878 C854 0.950 . S
H879 C855 0.949 . S
H880 C857 0.950 . S
H881 C859 0.950 . S
C882 C883 1.349 . S
C882 C884 1.327 . S
C882 H907 0.950 . S
C883 C882 1.349 . S
C883 C899 1.349 . S
C884 C882 1.327 . S
C884 C903 1.429 . S
C884 H908 0.950 . S
C885 C902 1.574 . S
C885 C904 1.368 . S
C885 H909 0.949 . S
H886 C890 0.949 1_565 S
C887 C888 1.349 . S
C887 C889 1.327 . S
C887 H910 0.950 . S
C888 C887 1.349 . S
C888 C900 1.349 . S
C889 C887 1.327 . S
C889 C905 1.429 . S
C889 H911 0.950 1_565 S
C890 H886 0.949 1_545 S
C890 C898 1.574 . S
C890 C906 1.368 . S
H891 C899 0.950 . S
H892 C897 0.950 . S
H893 C898 0.949 . S
H894 C900 0.950 . S
H895 C901 0.950 . S
H896 C902 0.949 . S
C897 H892 0.950 . S
C897 C899 1.327 . S
C897 C903 1.429 . S
C898 C890 1.574 . S
C898 H893 0.949 . S
C898 C904 1.368 . S
C899 C883 1.349 . S
C899 H891 0.950 . S
C899 C897 1.327 . S
C900 C888 1.349 . S
C900 H894 0.950 . S
C900 C901 1.327 . S
C901 H895 0.950 . S
C901 C900 1.327 . S
C901 C905 1.429 . S
C902 C885 1.574 . S
C902 H896 0.949 . S
C902 C906 1.368 . S
C903 C884 1.429 . S
C903 C897 1.429 . S
C903 C904 1.523 . S
C904 C885 1.368 . S
C904 C898 1.368 . S
C904 C903 1.523 . S
C905 C889 1.429 . S
C905 C901 1.429 . S
C905 C906 1.523 1_565 S
C906 C890 1.368 . S
C906 C902 1.368 . S
C906 C905 1.523 1_545 S
H907 C882 0.950 . S
H908 C884 0.950 . S
H909 C885 0.949 . S
H910 C887 0.950 . S
H911 C889 0.950 1_545 S
C912 C913 1.349 . S
C912 C914 1.327 . S
C912 H937 0.950 . S
C913 C912 1.349 . S
C913 C929 1.349 . S
C914 C912 1.327 . S
C914 C933 1.429 . S
C914 H938 0.950 . S
C915 C932 1.574 . S
C915 C934 1.368 . S
C915 H939 0.949 . S
H916 C920 0.949 . S
C917 C918 1.349 . S
C917 C919 1.327 . S
C917 H940 0.950 . S
C918 C917 1.349 . S
C918 C930 1.349 . S
C919 C917 1.327 . S
C919 C935 1.429 . S
C919 H941 0.950 . S
C920 H916 0.949 . S
C920 C928 1.574 . S
C920 C936 1.368 . S
H921 C929 0.950 . S
H922 C927 0.950 . S
H923 C928 0.949 . S
H924 C930 0.950 . S
H925 C931 0.950 . S
H926 C932 0.949 . S
C927 H922 0.950 . S
C927 C929 1.327 . S
C927 C933 1.429 . S
C928 C920 1.574 . S
C928 H923 0.949 . S
C928 C934 1.368 . S
C929 C913 1.349 . S
C929 H921 0.950 . S
C929 C927 1.327 . S
C930 C918 1.349 . S
C930 H924 0.950 . S
C930 C931 1.327 . S
C931 H925 0.950 . S
C931 C930 1.327 . S
C931 C935 1.429 . S
C932 C915 1.574 . S
C932 H926 0.949 . S
C932 C936 1.368 . S
C933 C914 1.429 . S
C933 C927 1.429 . S
C933 C934 1.523 . S
C934 C915 1.368 . S
C934 C928 1.368 . S
C934 C933 1.523 . S
C935 C919 1.429 . S
C935 C931 1.429 . S
C935 C936 1.523 . S
C936 C920 1.368 . S
C936 C932 1.368 . S
C936 C935 1.523 . S
H937 C912 0.950 . S
H938 C914 0.950 . S
H939 C915 0.949 . S
H940 C917 0.950 . S
H941 C919 0.950 . S
C942 C943 1.349 . S
C942 C944 1.327 . S
C942 H967 0.950 . S
C943 C942 1.349 . S
C943 C959 1.349 . S
C944 C942 1.327 . S
C944 C963 1.429 . S
C944 H968 0.950 1_545 S
C945 C962 1.574 . S
C945 C964 1.368 . S
C945 H969 0.949 1_565 S
H946 C950 0.949 . S
C947 C948 1.349 . S
C947 C949 1.327 . S
C947 H970 0.950 1_554 S
C948 C947 1.349 . S
C948 C960 1.349 . S
C949 C947 1.327 . S
C949 C965 1.429 . S
C949 H971 0.950 . S
C950 H946 0.949 . S
C950 C958 1.574 . S
C950 C966 1.368 . S
H951 C959 0.950 . S
H952 C957 0.950 . S
H953 C958 0.949 . S
H954 C960 0.950 . S
H955 C961 0.950 . S
H956 C962 0.949 . S
C957 H952 0.950 . S
C957 C959 1.327 . S
C957 C963 1.429 . S
C958 C950 1.574 . S
C958 H953 0.949 . S
C958 C964 1.368 . S
C959 C943 1.349 . S
C959 H951 0.950 . S
C959 C957 1.327 . S
C960 C948 1.349 . S
C960 H954 0.950 . S
C960 C961 1.327 . S
C961 H955 0.950 . S
C961 C960 1.327 . S
C961 C965 1.429 . S
C962 C945 1.574 . S
C962 H956 0.949 . S
C962 C966 1.368 . S
C963 C944 1.429 . S
C963 C957 1.429 . S
C963 C964 1.523 1_545 S
C964 C945 1.368 . S
C964 C958 1.368 . S
C964 C963 1.523 1_565 S
C965 C949 1.429 . S
C965 C961 1.429 . S
C965 C966 1.523 . S
C966 C950 1.368 . S
C966 C962 1.368 . S
C966 C965 1.523 . S
H967 C942 0.950 . S
H968 C944 0.950 1_565 S
H969 C945 0.949 1_545 S
H970 C947 0.950 1_556 S
H971 C949 0.950 . S
C972 C973 1.349 . S
C972 C974 1.327 . S
C972 H997 0.950 . S
C973 C972 1.349 . S
C973 C989 1.349 . S
C974 C972 1.327 . S
C974 C993 1.429 . S
C974 H998 0.950 . S
C975 C992 1.574 . S
C975 C994 1.368 . S
C975 H999 0.949 . S
H976 C980 0.949 . S
C977 C978 1.349 . S
C977 C979 1.327 . S
C977 H1000 0.950 . S
C978 C977 1.349 . S
C978 C990 1.349 . S
C979 C977 1.327 . S
C979 C995 1.429 . S
C979 H1001 0.950 . S
C980 H976 0.949 . S
C980 C988 1.574 . S
C980 C996 1.368 . S
H981 C989 0.950 . S
H982 C987 0.950 . S
H983 C988 0.949 . S
H984 C990 0.950 . S
H985 C991 0.950 . S
H986 C992 0.949 . S
C987 H982 0.950 . S
C987 C989 1.327 . S
C987 C993 1.429 . S
C988 C980 1.574 . S
C988 H983 0.949 . S
C988 C994 1.368 . S
C989 C973 1.349 . S
C989 H981 0.950 . S
C989 C987 1.327 . S
C990 C978 1.349 . S
C990 H984 0.950 . S
C990 C991 1.327 . S
C991 H985 0.950 . S
C991 C990 1.327 . S
C991 C995 1.429 . S
C992 C975 1.574 . S
C992 H986 0.949 . S
C992 C996 1.368 . S
C993 C974 1.429 . S
C993 C987 1.429 . S
C993 C994 1.523 . S
C994 C975 1.368 . S
C994 C988 1.368 . S
C994 C993 1.523 . S
C995 C979 1.429 . S
C995 C991 1.429 . S
C995 C996 1.523 . S
C996 C980 1.368 . S
C996 C992 1.368 . S
C996 C995 1.523 . S
H997 C972 0.950 . S
H998 C974 0.950 . S
H999 C975 0.949 . S
H1000 C977 0.950 . S
H1001 C979 0.950 . S
C1002 C1003 1.349 . S
C1002 C1004 1.327 . S
C1002 H1027 0.950 . S
C1003 C1002 1.349 . S
C1003 C1019 1.349 . S
C1004 C1002 1.327 . S
C1004 C1023 1.429 . S
C1004 H1028 0.950 . S
C1005 C1022 1.574 . S
C1005 C1024 1.368 . S
C1005 H1029 0.949 . S
H1006 C1010 0.949 . S
C1007 C1008 1.349 1_554 S
C1007 C1009 1.327 1_554 S
C1007 H1030 0.950 . S
C1008 C1007 1.349 1_556 S
C1008 C1020 1.349 . S
C1009 C1007 1.327 1_556 S
C1009 C1025 1.429 . S
C1009 H1031 0.950 . S
C1010 H1006 0.949 . S
C1010 C1018 1.574 . S
C1010 C1026 1.368 . S
H1011 C1019 0.950 . S
H1012 C1017 0.950 . S
H1013 C1018 0.949 . S
H1014 C1020 0.950 . S
H1015 C1021 0.950 . S
H1016 C1022 0.949 . S
C1017 H1012 0.950 . S
C1017 C1019 1.327 . S
C1017 C1023 1.429 . S
C1018 C1010 1.574 . S
C1018 H1013 0.949 . S
C1018 C1024 1.368 . S
C1019 C1003 1.349 . S
C1019 H1011 0.950 . S
C1019 C1017 1.327 . S
C1020 C1008 1.349 . S
C1020 H1014 0.950 . S
C1020 C1021 1.327 . S
C1021 H1015 0.950 . S
C1021 C1020 1.327 . S
C1021 C1025 1.429 . S
C1022 C1005 1.574 . S
C1022 H1016 0.949 . S
C1022 C1026 1.368 . S
C1023 C1004 1.429 . S
C1023 C1017 1.429 . S
C1023 C1024 1.523 . S
C1024 C1005 1.368 . S
C1024 C1018 1.368 . S
C1024 C1023 1.523 . S
C1025 C1009 1.429 . S
C1025 C1021 1.429 . S
C1025 C1026 1.523 . S
C1026 C1010 1.368 . S
C1026 C1022 1.368 . S
C1026 C1025 1.523 . S
H1027 C1002 0.950 . S
H1028 C1004 0.950 . S
H1029 C1005 0.949 . S
H1030 C1007 0.950 . S
H1031 C1009 0.950 . S
C1032 C1033 1.349 . S
C1032 C1034 1.327 . S
C1032 H1057 0.950 . S
C1033 C1032 1.349 . S
C1033 C1049 1.349 . S
C1034 C1032 1.327 . S
C1034 C1053 1.429 . S
C1034 H1058 0.950 . S
C1035 C1052 1.574 . S
C1035 C1054 1.368 . S
C1035 H1059 0.949 . S
H1036 C1040 0.949 . S
C1037 C1038 1.349 . S
C1037 C1039 1.327 . S
C1037 H1060 0.950 . S
C1038 C1037 1.349 . S
C1038 C1050 1.349 . S
C1039 C1037 1.327 . S
C1039 C1055 1.429 . S
C1039 H1061 0.950 . S
C1040 H1036 0.949 . S
C1040 C1048 1.574 . S
C1040 C1056 1.368 . S
H1041 C1049 0.950 . S
H1042 C1047 0.950 . S
H1043 C1048 0.949 . S
H1044 C1050 0.950 . S
H1045 C1051 0.950 . S
H1046 C1052 0.949 . S
C1047 H1042 0.950 . S
C1047 C1049 1.327 . S
C1047 C1053 1.429 . S
C1048 C1040 1.574 . S
C1048 H1043 0.949 . S
C1048 C1054 1.368 . S
C1049 C1033 1.349 . S
C1049 H1041 0.950 . S
C1049 C1047 1.327 . S
C1050 C1038 1.349 . S
C1050 H1044 0.950 . S
C1050 C1051 1.327 . S
C1051 H1045 0.950 . S
C1051 C1050 1.327 . S
C1051 C1055 1.429 . S
C1052 C1035 1.574 . S
C1052 H1046 0.949 . S
C1052 C1056 1.368 . S
C1053 C1034 1.429 . S
C1053 C1047 1.429 . S
C1053 C1054 1.523 . S
C1054 C1035 1.368 . S
C1054 C1048 1.368 . S
C1054 C1053 1.523 . S
C1055 C1039 1.429 . S
C1055 C1051 1.429 . S
C1055 C1056 1.523 . S
C1056 C1040 1.368 . S
C1056 C1052 1.368 . S
C1056 C1055 1.523 . S
H1057 C1032 0.950 . S
H1058 C1034 0.950 . S
H1059 C1035 0.949 . S
H1060 C1037 0.950 . S
H1061 C1039 0.950 . S
C1062 C1063 1.349 . S
C1062 C1064 1.327 . S
C1062 H1087 0.950 . S
C1063 C1062 1.349 . S
C1063 C1079 1.349 . S
C1064 C1062 1.327 . S
C1064 C1083 1.429 . S
C1064 H1088 0.950 . S
C1065 C1082 1.574 . S
C1065 C1084 1.368 . S
C1065 H1089 0.949 . S
H1066 C1070 0.949 . S
C1067 C1068 1.349 . S
C1067 C1069 1.327 . S
C1067 H1090 0.950 . S
C1068 C1067 1.349 . S
C1068 C1080 1.349 . S
C1069 C1067 1.327 . S
C1069 C1085 1.429 . S
C1069 H1091 0.950 . S
C1070 H1066 0.949 . S
C1070 C1078 1.574 . S
C1070 C1086 1.368 . S
H1071 C1079 0.950 . S
H1072 C1077 0.950 . S
H1073 C1078 0.949 . S
H1074 C1080 0.950 . S
H1075 C1081 0.950 . S
H1076 C1082 0.949 . S
C1077 H1072 0.950 . S
C1077 C1079 1.327 . S
C1077 C1083 1.429 . S
C1078 C1070 1.574 . S
C1078 H1073 0.949 . S
C1078 C1084 1.368 . S
C1079 C1063 1.349 . S
C1079 H1071 0.950 . S
C1079 C1077 1.327 . S
C1080 C1068 1.349 . S
C1080 H1074 0.950 . S
C1080 C1081 1.327 . S
C1081 H1075 0.950 . S
C1081 C1080 1.327 . S
C1081 C1085 1.429 . S
C1082 C1065 1.574 . S
C1082 H1076 0.949 . S
C1082 C1086 1.368 . S
C1083 C1064 1.429 . S
C1083 C1077 1.429 . S
C1083 C1084 1.523 . S
C1084 C1065 1.368 . S
C1084 C1078 1.368 . S
C1084 C1083 1.523 . S
C1085 C1069 1.429 . S
C1085 C1081 1.429 . S
C1085 C1086 1.523 . S
C1086 C1070 1.368 . S
C1086 C1082 1.368 . S
C1086 C1085 1.523 . S
H1087 C1062 0.950 . S
H1088 C1064 0.950 . S
H1089 C1065 0.949 . S
H1090 C1067 0.950 . S
H1091 C1069 0.950 . S
C1092 C1093 1.349 . S
C1092 C1094 1.327 . S
C1092 H1117 0.950 . S
C1093 C1092 1.349 . S
C1093 C1109 1.349 . S
C1094 C1092 1.327 . S
C1094 C1113 1.429 . S
C1094 H1118 0.950 . S
C1095 C1112 1.574 . S
C1095 C1114 1.368 . S
C1095 H1119 0.949 . S
H1096 C1100 0.949 . S
C1097 C1098 1.349 . S
C1097 C1099 1.327 . S
C1097 H1120 0.950 . S
C1098 C1097 1.349 . S
C1098 C1110 1.349 . S
C1099 C1097 1.327 . S
C1099 C1115 1.429 . S
C1099 H1121 0.950 . S
C1100 H1096 0.949 . S
C1100 C1108 1.574 . S
C1100 C1116 1.368 . S
H1101 C1109 0.950 . S
H1102 C1107 0.950 . S
H1103 C1108 0.949 . S
H1104 C1110 0.950 . S
H1105 C1111 0.950 . S
H1106 C1112 0.949 . S
C1107 H1102 0.950 . S
C1107 C1109 1.327 . S
C1107 C1113 1.429 . S
C1108 C1100 1.574 . S
C1108 H1103 0.949 . S
C1108 C1114 1.368 . S
C1109 C1093 1.349 . S
C1109 H1101 0.950 . S
C1109 C1107 1.327 . S
C1110 C1098 1.349 . S
C1110 H1104 0.950 . S
C1110 C1111 1.327 . S
C1111 H1105 0.950 . S
C1111 C1110 1.327 . S
C1111 C1115 1.429 . S
C1112 C1095 1.574 . S
C1112 H1106 0.949 . S
C1112 C1116 1.368 . S
C1113 C1094 1.429 . S
C1113 C1107 1.429 . S
C1113 C1114 1.523 . S
C1114 C1095 1.368 . S
C1114 C1108 1.368 . S
C1114 C1113 1.523 . S
C1115 C1099 1.429 . S
C1115 C1111 1.429 . S
C1115 C1116 1.523 . S
C1116 C1100 1.368 . S
C1116 C1112 1.368 . S
C1116 C1115 1.523 . S
H1117 C1092 0.950 . S
H1118 C1094 0.950 . S
H1119 C1095 0.949 . S
H1120 C1097 0.950 . S
H1121 C1099 0.950 . S
C1122 C1123 1.349 . S
C1122 C1124 1.327 . S
C1122 H1147 0.950 . S
C1123 C1122 1.349 . S
C1123 C1139 1.349 . S
C1124 C1122 1.327 . S
C1124 C1143 1.429 . S
C1124 H1148 0.950 . S
C1125 C1142 1.574 . S
C1125 C1144 1.368 . S
C1125 H1149 0.949 . S
H1126 C1130 0.949 . S
C1127 C1128 1.349 . S
C1127 C1129 1.327 . S
C1127 H1150 0.950 . S
C1128 C1127 1.349 . S
C1128 C1140 1.349 . S
C1129 C1127 1.327 . S
C1129 C1145 1.429 . S
C1129 H1151 0.950 . S
C1130 H1126 0.949 . S
C1130 C1138 1.574 . S
C1130 C1146 1.368 . S
H1131 C1139 0.950 . S
H1132 C1137 0.950 . S
H1133 C1138 0.949 . S
H1134 C1140 0.950 . S
H1135 C1141 0.950 . S
H1136 C1142 0.949 . S
C1137 H1132 0.950 . S
C1137 C1139 1.327 . S
C1137 C1143 1.429 . S
C1138 C1130 1.574 . S
C1138 H1133 0.949 . S
C1138 C1144 1.368 . S
C1139 C1123 1.349 . S
C1139 H1131 0.950 . S
C1139 C1137 1.327 . S
C1140 C1128 1.349 . S
C1140 H1134 0.950 . S
C1140 C1141 1.327 . S
C1141 H1135 0.950 . S
C1141 C1140 1.327 . S
C1141 C1145 1.429 . S
C1142 C1125 1.574 . S
C1142 H1136 0.949 . S
C1142 C1146 1.368 . S
C1143 C1124 1.429 . S
C1143 C1137 1.429 . S
C1143 C1144 1.523 . S
C1144 C1125 1.368 . S
C1144 C1138 1.368 . S
C1144 C1143 1.523 . S
C1145 C1129 1.429 . S
C1145 C1141 1.429 . S
C1145 C1146 1.523 . S
C1146 C1130 1.368 . S
C1146 C1142 1.368 . S
C1146 C1145 1.523 . S
H1147 C1122 0.950 . S
H1148 C1124 0.950 . S
H1149 C1125 0.949 . S
H1150 C1127 0.950 . S
H1151 C1129 0.950 . S
C1152 C1153 1.349 . S
C1152 C1154 1.327 . S
C1152 H1177 0.950 . S
C1153 C1152 1.349 . S
C1153 C1169 1.349 . S
C1154 C1152 1.327 . S
C1154 C1173 1.429 . S
C1154 H1178 0.950 . S
C1155 C1172 1.574 . S
C1155 C1174 1.368 . S
C1155 H1179 0.949 . S
H1156 C1160 0.949 1_655 S
C1157 C1158 1.349 . S
C1157 C1159 1.327 . S
C1157 H1180 0.950 . S
C1158 C1157 1.349 . S
C1158 C1170 1.349 . S
C1159 C1157 1.327 . S
C1159 C1175 1.429 . S
C1159 H1181 0.950 1_655 S
C1160 H1156 0.949 1_455 S
C1160 C1168 1.574 . S
C1160 C1176 1.368 . S
H1161 C1169 0.950 . S
H1162 C1167 0.950 . S
H1163 C1168 0.949 . S
H1164 C1170 0.950 . S
H1165 C1171 0.950 . S
H1166 C1172 0.949 . S
C1167 H1162 0.950 . S
C1167 C1169 1.327 . S
C1167 C1173 1.429 . S
C1168 C1160 1.574 . S
C1168 H1163 0.949 . S
C1168 C1174 1.368 . S
C1169 C1153 1.349 . S
C1169 H1161 0.950 . S
C1169 C1167 1.327 . S
C1170 C1158 1.349 . S
C1170 H1164 0.950 . S
C1170 C1171 1.327 . S
C1171 H1165 0.950 . S
C1171 C1170 1.327 . S
C1171 C1175 1.429 . S
C1172 C1155 1.574 . S
C1172 H1166 0.949 . S
C1172 C1176 1.368 . S
C1173 C1154 1.429 . S
C1173 C1167 1.429 . S
C1173 C1174 1.523 . S
C1174 C1155 1.368 . S
C1174 C1168 1.368 . S
C1174 C1173 1.523 . S
C1175 C1159 1.429 . S
C1175 C1171 1.429 . S
C1175 C1176 1.523 1_655 S
C1176 C1160 1.368 . S
C1176 C1172 1.368 . S
C1176 C1175 1.523 1_455 S
H1177 C1152 0.950 . S
H1178 C1154 0.950 . S
H1179 C1155 0.949 . S
H1180 C1157 0.950 . S
H1181 C1159 0.950 1_455 S
C1182 C1183 1.349 . S
C1182 C1184 1.327 . S
C1182 H1207 0.950 . S
C1183 C1182 1.349 . S
C1183 C1199 1.349 . S
C1184 C1182 1.327 . S
C1184 C1203 1.429 . S
C1184 H1208 0.950 . S
C1185 C1202 1.574 . S
C1185 C1204 1.368 . S
C1185 H1209 0.949 . S
H1186 C1190 0.949 . S
C1187 C1188 1.349 . S
C1187 C1189 1.327 . S
C1187 H1210 0.950 . S
C1188 C1187 1.349 . S
C1188 C1200 1.349 . S
C1189 C1187 1.327 . S
C1189 C1205 1.429 . S
C1189 H1211 0.950 . S
C1190 H1186 0.949 . S
C1190 C1198 1.574 . S
C1190 C1206 1.368 . S
H1191 C1199 0.950 . S
H1192 C1197 0.950 . S
H1193 C1198 0.949 . S
H1194 C1200 0.950 . S
H1195 C1201 0.950 . S
H1196 C1202 0.949 . S
C1197 H1192 0.950 . S
C1197 C1199 1.327 . S
C1197 C1203 1.429 . S
C1198 C1190 1.574 . S
C1198 H1193 0.949 . S
C1198 C1204 1.368 . S
C1199 C1183 1.349 . S
C1199 H1191 0.950 . S
C1199 C1197 1.327 . S
C1200 C1188 1.349 . S
C1200 H1194 0.950 . S
C1200 C1201 1.327 . S
C1201 H1195 0.950 . S
C1201 C1200 1.327 . S
C1201 C1205 1.429 . S
C1202 C1185 1.574 . S
C1202 H1196 0.949 . S
C1202 C1206 1.368 . S
C1203 C1184 1.429 . S
C1203 C1197 1.429 . S
C1203 C1204 1.523 . S
C1204 C1185 1.368 . S
C1204 C1198 1.368 . S
C1204 C1203 1.523 . S
C1205 C1189 1.429 . S
C1205 C1201 1.429 . S
C1205 C1206 1.523 . S
C1206 C1190 1.368 . S
C1206 C1202 1.368 . S
C1206 C1205 1.523 . S
H1207 C1182 0.950 . S
H1208 C1184 0.950 . S
H1209 C1185 0.949 . S
H1210 C1187 0.950 . S
H1211 C1189 0.950 . S
C1212 C1213 1.349 . S
C1212 C1214 1.327 . S
C1212 H1237 0.950 . S
C1213 C1212 1.349 . S
C1213 C1229 1.349 . S
C1214 C1212 1.327 . S
C1214 C1233 1.429 . S
C1214 H1238 0.950 . S
C1215 C1232 1.574 . S
C1215 C1234 1.368 . S
C1215 H1239 0.949 . S
H1216 C1220 0.949 . S
C1217 C1218 1.349 . S
C1217 C1219 1.327 . S
C1217 H1240 0.950 . S
C1218 C1217 1.349 . S
C1218 C1230 1.349 . S
C1219 C1217 1.327 . S
C1219 C1235 1.429 . S
C1219 H1241 0.950 . S
C1220 H1216 0.949 . S
C1220 C1228 1.574 . S
C1220 C1236 1.368 . S
H1221 C1229 0.950 . S
H1222 C1227 0.950 . S
H1223 C1228 0.949 . S
H1224 C1230 0.950 . S
H1225 C1231 0.950 . S
H1226 C1232 0.949 . S
C1227 H1222 0.950 . S
C1227 C1229 1.327 . S
C1227 C1233 1.429 . S
C1228 C1220 1.574 . S
C1228 H1223 0.949 . S
C1228 C1234 1.368 . S
C1229 C1213 1.349 . S
C1229 H1221 0.950 . S
C1229 C1227 1.327 . S
C1230 C1218 1.349 . S
C1230 H1224 0.950 . S
C1230 C1231 1.327 . S
C1231 H1225 0.950 . S
C1231 C1230 1.327 . S
C1231 C1235 1.429 . S
C1232 C1215 1.574 . S
C1232 H1226 0.949 . S
C1232 C1236 1.368 . S
C1233 C1214 1.429 . S
C1233 C1227 1.429 . S
C1233 C1234 1.523 . S
C1234 C1215 1.368 . S
C1234 C1228 1.368 . S
C1234 C1233 1.523 . S
C1235 C1219 1.429 . S
C1235 C1231 1.429 . S
C1235 C1236 1.523 . S
C1236 C1220 1.368 . S
C1236 C1232 1.368 . S
C1236 C1235 1.523 . S
H1237 C1212 0.950 . S
H1238 C1214 0.950 . S
H1239 C1215 0.949 . S
H1240 C1217 0.950 . S
H1241 C1219 0.950 . S
C1242 C1243 1.349 . S
C1242 C1244 1.327 . S
C1242 H1267 0.950 . S
C1243 C1242 1.349 . S
C1243 C1259 1.349 . S
C1244 C1242 1.327 . S
C1244 C1263 1.429 . S
C1244 H1268 0.950 . S
C1245 C1262 1.574 . S
C1245 C1264 1.368 . S
C1245 H1269 0.949 . S
H1246 C1250 0.949 . S
C1247 C1248 1.349 . S
C1247 C1249 1.327 . S
C1247 H1270 0.950 . S
C1248 C1247 1.349 . S
C1248 C1260 1.349 . S
C1249 C1247 1.327 . S
C1249 C1265 1.429 . S
C1249 H1271 0.950 . S
C1250 H1246 0.949 . S
C1250 C1258 1.574 . S
C1250 C1266 1.368 . S
H1251 C1259 0.950 . S
H1252 C1257 0.950 . S
H1253 C1258 0.949 . S
H1254 C1260 0.950 . S
H1255 C1261 0.950 . S
H1256 C1262 0.949 . S
C1257 H1252 0.950 . S
C1257 C1259 1.327 . S
C1257 C1263 1.429 . S
C1258 C1250 1.574 . S
C1258 H1253 0.949 . S
C1258 C1264 1.368 . S
C1259 C1243 1.349 . S
C1259 H1251 0.950 . S
C1259 C1257 1.327 . S
C1260 C1248 1.349 . S
C1260 H1254 0.950 . S
C1260 C1261 1.327 . S
C1261 H1255 0.950 . S
C1261 C1260 1.327 . S
C1261 C1265 1.429 . S
C1262 C1245 1.574 . S
C1262 H1256 0.949 . S
C1262 C1266 1.368 . S
C1263 C1244 1.429 . S
C1263 C1257 1.429 . S
C1263 C1264 1.523 . S
C1264 C1245 1.368 . S
C1264 C1258 1.368 . S
C1264 C1263 1.523 . S
C1265 C1249 1.429 . S
C1265 C1261 1.429 . S
C1265 C1266 1.523 . S
C1266 C1250 1.368 . S
C1266 C1262 1.368 . S
C1266 C1265 1.523 . S
H1267 C1242 0.950 . S
H1268 C1244 0.950 . S
H1269 C1245 0.949 . S
H1270 C1247 0.950 . S
H1271 C1249 0.950 . S
C1272 C1273 1.349 . S
C1272 C1274 1.327 . S
C1272 H1297 0.950 . S
C1273 C1272 1.349 . S
C1273 C1289 1.349 . S
C1274 C1272 1.327 . S
C1274 C1293 1.429 . S
C1274 H1298 0.950 . S
C1275 C1292 1.574 . S
C1275 C1294 1.368 . S
C1275 H1299 0.949 . S
H1276 C1280 0.949 . S
C1277 C1278 1.349 . S
C1277 C1279 1.327 . S
C1277 H1300 0.946 1_565 S
C1278 C1277 1.349 . S
C1278 C1290 1.349 . S
C1279 C1277 1.327 . S
C1279 C1295 1.429 . S
C1279 H1301 0.950 . S
C1280 H1276 0.949 . S
C1280 C1288 1.574 . S
C1280 C1296 1.368 . S
H1281 C1289 0.950 . S
H1282 C1287 0.950 . S
H1283 C1288 0.949 . S
H1284 C1290 0.950 . S
H1285 C1291 0.950 . S
H1286 C1292 0.949 . S
C1287 H1282 0.950 . S
C1287 C1289 1.327 . S
C1287 C1293 1.429 . S
C1288 C1280 1.574 . S
C1288 H1283 0.949 . S
C1288 C1294 1.368 . S
C1289 C1273 1.349 . S
C1289 H1281 0.950 . S
C1289 C1287 1.327 . S
C1290 C1278 1.349 . S
C1290 H1284 0.950 . S
C1290 C1291 1.327 . S
C1291 H1285 0.950 . S
C1291 C1290 1.327 . S
C1291 C1295 1.429 . S
C1292 C1275 1.574 . S
C1292 H1286 0.949 . S
C1292 C1296 1.368 . S
C1293 C1274 1.429 . S
C1293 C1287 1.429 . S
C1293 C1294 1.523 . S
C1294 C1275 1.368 . S
C1294 C1288 1.368 . S
C1294 C1293 1.523 . S
C1295 C1279 1.429 . S
C1295 C1291 1.429 . S
C1295 C1296 1.523 . S
C1296 C1280 1.368 . S
C1296 C1292 1.368 . S
C1296 C1295 1.523 . S
H1297 C1272 0.950 . S
H1298 C1274 0.950 . S
H1299 C1275 0.949 . S
H1300 C1277 0.946 1_545 S
H1301 C1279 0.950 . S
C1302 C1303 1.349 . S
C1302 C1304 1.327 . S
C1302 H1327 0.950 . S
C1303 C1302 1.349 . S
C1303 C1319 1.338 1_545 S
C1304 C1302 1.327 . S
C1304 C1323 1.429 . S
C1304 H1328 0.950 . S
C1305 C1322 1.574 . S
C1305 C1324 1.368 . S
C1305 H1329 0.949 . S
H1306 C1310 0.949 . S
C1307 C1308 1.349 . S
C1307 C1309 1.327 . S
C1307 H1330 0.950 . S
C1308 C1307 1.349 . S
C1308 C1320 1.349 . S
C1309 C1307 1.327 . S
C1309 C1325 1.429 . S
C1309 H1331 0.950 . S
C1310 H1306 0.949 . S
C1310 C1318 1.574 . S
C1310 C1326 1.368 . S
H1311 C1319 0.984 . S
H1312 C1317 0.950 . S
H1313 C1318 0.949 . S
H1314 C1320 0.950 . S
H1315 C1321 0.966 . S
H1316 C1322 0.949 . S
C1317 H1312 0.950 . S
C1317 C1319 1.305 1_545 S
C1317 C1323 1.429 . S
C1318 C1310 1.574 . S
C1318 H1313 0.949 . S
C1318 C1324 1.368 . S
C1319 C1303 1.338 1_565 S
C1319 H1311 0.984 . S
C1319 C1317 1.305 1_565 S
C1320 C1308 1.349 . S
C1320 H1314 0.950 . S
C1320 C1321 1.327 . S
C1321 H1315 0.966 . S
C1321 C1320 1.327 . S
C1321 C1325 1.429 . S
C1322 C1305 1.574 . S
C1322 H1316 0.949 . S
C1322 C1326 1.368 . S
C1323 C1304 1.429 . S
C1323 C1317 1.429 . S
C1323 C1324 1.523 . S
C1324 C1305 1.368 . S
C1324 C1318 1.368 . S
C1324 C1323 1.523 . S
C1325 C1309 1.429 . S
C1325 C1321 1.429 . S
C1325 C1326 1.523 1_455 S
C1326 C1310 1.368 . S
C1326 C1322 1.368 . S
C1326 C1325 1.523 1_655 S
H1327 C1302 0.950 . S
H1328 C1304 0.950 . S
H1329 C1305 0.949 . S
H1330 C1307 0.950 . S
H1331 C1309 0.950 . S
C253 C15 1.290 . S
C258 C249 1.290 . S
C283 C207 1.290 . S
C288 C36 1.290 1_655 S
C313 C60 1.290 . S
C318 C183 1.290 . S
C343 C81 1.290 . S
C348 C228 1.290 . S
C373 C102 1.290 . S
C378 C225 1.290 1_545 S
C403 C123 1.290 1_455 S
C408 C246 1.290 . S
C433 C204 1.290 1_565 S
C438 C141 1.290 . S
C463 C162 1.290 . S
C468 C186 1.290 . S
C493 C78 1.290 . S
C498 C99 1.290 . S
C523 C18 1.290 . S
C528 C120 1.290 . S
C553 C39 1.290 . S
C558 C144 1.290 1_556 S
C583 C165 1.290 . S
C588 C57 1.290 1_554 S
C613 C13 1.069 . S
C618 C182 1.118 . S
C643 C34 1.069 1_655 S
C648 C227 1.119 . S
C673 C248 1.119 . S
C678 C58 1.069 . S
C703 C79 1.069 . S
C708 C206 1.118 . S
C733 C100 1.069 . S
C738 C203 1.119 . S
C763 C185 1.119 . S
C768 C121 1.069 1_455 S
C793 C224 1.119 . S
C798 C139 1.069 . S
C823 C245 1.118 . S
C828 C160 1.069 . S
C853 C17 1.118 . S
C858 C76 1.069 . S
C883 C16 1.069 . S
C888 C38 1.118 . S
C913 C37 1.069 . S
C918 C56 1.119 . S
C943 C77 1.119 . S
C948 C55 1.069 1_554 S
C973 C118 1.069 . S
C978 C98 1.119 . S
C1003 C119 1.119 . S
C1008 C142 1.069 1_556 S
C1033 C143 1.119 . S
C1038 C163 1.069 . S
C1063 C97 1.069 . S
C1068 C164 1.118 . S
C1093 C184 1.069 . S
C1098 C80 1.118 . S
C1123 C122 1.119 . S
C1128 C205 1.069 . S
C1153 C181 1.069 . S
C1158 C140 1.118 . S
C1183 C226 1.069 . S
C1188 C161 1.119 . S
C1213 C101 1.118 . S
C1218 C247 1.069 . S
C1243 C244 1.069 . S
C1248 C35 1.119 . S
C1273 C59 1.119 . S
C1278 C202 1.069 1_565 S
C1303 C223 1.069 1_545 S
C1308 C14 1.119 . S
