# Generated by pormake.
# Topology vba, (4)-cn, num edge types: 1
# Building blocks:
#     Node 0, Type 0, BuildingBlock: GALJAG_clean_sbu_0, # of connection points: 4
#     Node 1, Type 0, BuildingBlock: GALJAG_clean_sbu_0, # of connection points: 4
#     Node 2, Type 0, BuildingBlock: GALJAG_clean_sbu_0, # of connection points: 4
#     Node 3, Type 0, BuildingBlock: GALJAG_clean_sbu_0, # of connection points: 4
#     Node 4, Type 0, BuildingBlock: GALJAG_clean_sbu_0, # of connection points: 4
#     Node 5, Type 0, BuildingBlock: GALJAG_clean_sbu_0, # of connection points: 4
#     Node 6, Type 0, BuildingBlock: GALJAG_clean_sbu_0, # of connection points: 4
#     Node 7, Type 0, BuildingBlock: GALJAG_clean_sbu_0, # of connection points: 4
#     Node 8, Type 0, BuildingBlock: GALJAG_clean_sbu_0, # of connection points: 4
#     Node 9, Type 0, BuildingBlock: GALJAG_clean_sbu_0, # of connection points: 4
#     Node 10, Type 0, BuildingBlock: GALJAG_clean_sbu_0, # of connection points: 4
#     Node 11, Type 0, BuildingBlock: GALJAG_clean_sbu_0, # of connection points: 4
#     Node 12, Type 0, BuildingBlock: GALJAG_clean_sbu_0, # of connection points: 4
#     Node 13, Type 0, BuildingBlock: GALJAG_clean_sbu_0, # of connection points: 4
#     Node 14, Type 0, BuildingBlock: GALJAG_clean_sbu_0, # of connection points: 4
#     Node 15, Type 0, BuildingBlock: GALJAG_clean_sbu_0, # of connection points: 4
#     Node 16, Type 0, BuildingBlock: GALJAG_clean_sbu_0, # of connection points: 4
#     Node 17, Type 0, BuildingBlock: GALJAG_clean_sbu_0, # of connection points: 4
#     Node 18, Type 0, BuildingBlock: GALJAG_clean_sbu_0, # of connection points: 4
#     Node 19, Type 0, BuildingBlock: GALJAG_clean_sbu_0, # of connection points: 4
#     Node 20, Type 0, BuildingBlock: GALJAG_clean_sbu_0, # of connection points: 4
#     Node 21, Type 0, BuildingBlock: GALJAG_clean_sbu_0, # of connection points: 4
#     Node 22, Type 0, BuildingBlock: GALJAG_clean_sbu_0, # of connection points: 4
#     Node 23, Type 0, BuildingBlock: GALJAG_clean_sbu_0, # of connection points: 4
#     Node 24, Type 0, BuildingBlock: GALJAG_clean_sbu_0, # of connection points: 4
#     Node 25, Type 0, BuildingBlock: GALJAG_clean_sbu_0, # of connection points: 4
#     Node 26, Type 0, BuildingBlock: GALJAG_clean_sbu_0, # of connection points: 4
#     Node 27, Type 0, BuildingBlock: GALJAG_clean_sbu_0, # of connection points: 4
#     Node 28, Type 0, BuildingBlock: GALJAG_clean_sbu_0, # of connection points: 4
#     Node 29, Type 0, BuildingBlock: GALJAG_clean_sbu_0, # of connection points: 4
#     Node 30, Type 0, BuildingBlock: GALJAG_clean_sbu_0, # of connection points: 4
#     Node 31, Type 0, BuildingBlock: GALJAG_clean_sbu_0, # of connection points: 4
#     Edge 32, Type (0, 0), BuildingBlock: XUDNAN_clean_linker_2, # of connection points: 2
#     Edge 33, Type (0, 0), BuildingBlock: XUDNAN_clean_linker_2, # of connection points: 2
#     Edge 34, Type (0, 0), BuildingBlock: XUDNAN_clean_linker_2, # of connection points: 2
#     Edge 35, Type (0, 0), BuildingBlock: XUDNAN_clean_linker_2, # of connection points: 2
#     Edge 36, Type (0, 0), BuildingBlock: XUDNAN_clean_linker_2, # of connection points: 2
#     Edge 37, Type (0, 0), BuildingBlock: XUDNAN_clean_linker_2, # of connection points: 2
#     Edge 38, Type (0, 0), BuildingBlock: XUDNAN_clean_linker_2, # of connection points: 2
#     Edge 39, Type (0, 0), BuildingBlock: XUDNAN_clean_linker_2, # of connection points: 2
#     Edge 40, Type (0, 0), BuildingBlock: XUDNAN_clean_linker_2, # of connection points: 2
#     Edge 41, Type (0, 0), BuildingBlock: XUDNAN_clean_linker_2, # of connection points: 2
#     Edge 42, Type (0, 0), BuildingBlock: XUDNAN_clean_linker_2, # of connection points: 2
#     Edge 43, Type (0, 0), BuildingBlock: XUDNAN_clean_linker_2, # of connection points: 2
#     Edge 44, Type (0, 0), BuildingBlock: XUDNAN_clean_linker_2, # of connection points: 2
#     Edge 45, Type (0, 0), BuildingBlock: XUDNAN_clean_linker_2, # of connection points: 2
#     Edge 46, Type (0, 0), BuildingBlock: XUDNAN_clean_linker_2, # of connection points: 2
#     Edge 47, Type (0, 0), BuildingBlock: XUDNAN_clean_linker_2, # of connection points: 2
#     Edge 48, Type (0, 0), BuildingBlock: XUDNAN_clean_linker_2, # of connection points: 2
#     Edge 49, Type (0, 0), BuildingBlock: XUDNAN_clean_linker_2, # of connection points: 2
#     Edge 50, Type (0, 0), BuildingBlock: XUDNAN_clean_linker_2, # of connection points: 2
#     Edge 51, Type (0, 0), BuildingBlock: XUDNAN_clean_linker_2, # of connection points: 2
#     Edge 52, Type (0, 0), BuildingBlock: XUDNAN_clean_linker_2, # of connection points: 2
#     Edge 53, Type (0, 0), BuildingBlock: XUDNAN_clean_linker_2, # of connection points: 2
#     Edge 54, Type (0, 0), BuildingBlock: XUDNAN_clean_linker_2, # of connection points: 2
#     Edge 55, Type (0, 0), BuildingBlock: XUDNAN_clean_linker_2, # of connection points: 2
#     Edge 56, Type (0, 0), BuildingBlock: XUDNAN_clean_linker_2, # of connection points: 2
#     Edge 57, Type (0, 0), BuildingBlock: XUDNAN_clean_linker_2, # of connection points: 2
#     Edge 58, Type (0, 0), BuildingBlock: XUDNAN_clean_linker_2, # of connection points: 2
#     Edge 59, Type (0, 0), BuildingBlock: XUDNAN_clean_linker_2, # of connection points: 2
#     Edge 60, Type (0, 0), BuildingBlock: XUDNAN_clean_linker_2, # of connection points: 2
#     Edge 61, Type (0, 0), BuildingBlock: XUDNAN_clean_linker_2, # of connection points: 2
#     Edge 62, Type (0, 0), BuildingBlock: XUDNAN_clean_linker_2, # of connection points: 2
#     Edge 63, Type (0, 0), BuildingBlock: XUDNAN_clean_linker_2, # of connection points: 2
#     Edge 64, Type (0, 0), BuildingBlock: XUDNAN_clean_linker_2, # of connection points: 2
#     Edge 65, Type (0, 0), BuildingBlock: XUDNAN_clean_linker_2, # of connection points: 2
#     Edge 66, Type (0, 0), BuildingBlock: XUDNAN_clean_linker_2, # of connection points: 2
#     Edge 67, Type (0, 0), BuildingBlock: XUDNAN_clean_linker_2, # of connection points: 2
#     Edge 68, Type (0, 0), BuildingBlock: XUDNAN_clean_linker_2, # of connection points: 2
#     Edge 69, Type (0, 0), BuildingBlock: XUDNAN_clean_linker_2, # of connection points: 2
#     Edge 70, Type (0, 0), BuildingBlock: XUDNAN_clean_linker_2, # of connection points: 2
#     Edge 71, Type (0, 0), BuildingBlock: XUDNAN_clean_linker_2, # of connection points: 2
#     Edge 72, Type (0, 0), BuildingBlock: XUDNAN_clean_linker_2, # of connection points: 2
#     Edge 73, Type (0, 0), BuildingBlock: XUDNAN_clean_linker_2, # of connection points: 2
#     Edge 74, Type (0, 0), BuildingBlock: XUDNAN_clean_linker_2, # of connection points: 2
#     Edge 75, Type (0, 0), BuildingBlock: XUDNAN_clean_linker_2, # of connection points: 2
#     Edge 76, Type (0, 0), BuildingBlock: XUDNAN_clean_linker_2, # of connection points: 2
#     Edge 77, Type (0, 0), BuildingBlock: XUDNAN_clean_linker_2, # of connection points: 2
#     Edge 78, Type (0, 0), BuildingBlock: XUDNAN_clean_linker_2, # of connection points: 2
#     Edge 79, Type (0, 0), BuildingBlock: XUDNAN_clean_linker_2, # of connection points: 2
#     Edge 80, Type (0, 0), BuildingBlock: XUDNAN_clean_linker_2, # of connection points: 2
#     Edge 81, Type (0, 0), BuildingBlock: XUDNAN_clean_linker_2, # of connection points: 2
#     Edge 82, Type (0, 0), BuildingBlock: XUDNAN_clean_linker_2, # of connection points: 2
#     Edge 83, Type (0, 0), BuildingBlock: XUDNAN_clean_linker_2, # of connection points: 2
#     Edge 84, Type (0, 0), BuildingBlock: XUDNAN_clean_linker_2, # of connection points: 2
#     Edge 85, Type (0, 0), BuildingBlock: XUDNAN_clean_linker_2, # of connection points: 2
#     Edge 86, Type (0, 0), BuildingBlock: XUDNAN_clean_linker_2, # of connection points: 2
#     Edge 87, Type (0, 0), BuildingBlock: XUDNAN_clean_linker_2, # of connection points: 2
#     Edge 88, Type (0, 0), BuildingBlock: XUDNAN_clean_linker_2, # of connection points: 2
#     Edge 89, Type (0, 0), BuildingBlock: XUDNAN_clean_linker_2, # of connection points: 2
#     Edge 90, Type (0, 0), BuildingBlock: XUDNAN_clean_linker_2, # of connection points: 2
#     Edge 91, Type (0, 0), BuildingBlock: XUDNAN_clean_linker_2, # of connection points: 2
#     Edge 92, Type (0, 0), BuildingBlock: XUDNAN_clean_linker_2, # of connection points: 2
#     Edge 93, Type (0, 0), BuildingBlock: XUDNAN_clean_linker_2, # of connection points: 2
#     Edge 94, Type (0, 0), BuildingBlock: XUDNAN_clean_linker_2, # of connection points: 2
#     Edge 95, Type (0, 0), BuildingBlock: XUDNAN_clean_linker_2, # of connection points: 2
# Relax obj value: 0.078
# Max RMSD: 0.280
# Mean RMSD: 0.277
data_MOF--net-vba--node1-GALJAG_clean_sbu_0--edge1-XUDNAN_clean_linker_2
_symmetry_space_group_name_H-M    P1
_symmetry_Int_Tables_number       1
_symmetry_cell_setting            triclinic
loop_
_symmetry_equiv_pos_as_xyz
'x, y, z'
_cell_length_a     21.377648
_cell_length_b     94.758514
_cell_length_c     53.706669
_cell_angle_alpha  89.998641
_cell_angle_beta   89.989189
_cell_angle_gamma 89.894607
loop_
_atom_site_label
_atom_site_type_symbol
_atom_site_fract_x
_atom_site_fract_y
_atom_site_fract_z
_atom_type_partial_charge
In0 In 0.23652 0.05217 0.98622 0.0
O1 O 0.19499 0.04482 0.9489 0.0
O2 O 0.26638 0.06057 0.94911 0.0
C3 C 0.17263 0.04247 0.02547 0.0
C4 C 0.34159 0.03657 0.99009 0.0
C5 C 0.19596 0.07854 0.9951 0.0
O6 O 0.15238 0.04086 0.00343 0.0
O7 O 0.22602 0.0481 0.02716 0.0
O8 O 0.25376 0.07551 0.9965 0.0
O9 O 0.1608 0.06848 0.98881 0.0
C10 C 0.22957 0.05307 0.93638 0.0
O11 O 0.34039 0.04962 0.99547 0.0
O12 O 0.28981 0.03151 0.98305 0.0
In13 In 0.04859 0.20462 0.98553 0.0
O14 O 0.10019 0.20587 0.94803 0.0
O15 O 0.01061 0.19562 0.95068 0.0
C16 C 0.08365 0.21307 0.03057 0.0
C17 C 0.97289 0.2266 0.97817 0.0
C18 C 0.06556 0.17754 0.99688 0.0
O19 O 0.12262 0.21302 0.01256 0.0
O20 O 0.02868 0.20908 0.02538 0.0
O21 O 0.01156 0.18324 0.99726 0.0
O22 O 0.11043 0.18564 0.99104 0.0
C23 C 0.05623 0.19922 0.93704 0.0
O24 O 0.95233 0.21458 0.98483 0.0
O25 O 0.03178 0.22743 0.97534 0.0
In26 In 0.268 0.19708 0.24679 0.0
O27 O 0.36855 0.20527 0.24198 0.0
O28 O 0.2944 0.21968 0.25081 0.0
C29 C 0.24679 0.16923 0.24481 0.0
C30 C 0.25716 0.19889 0.29611 0.0
C31 C 0.21536 0.20417 0.20339 0.0
O32 O 0.30157 0.17423 0.24207 0.0
O33 O 0.20395 0.17831 0.2479 0.0
O34 O 0.18715 0.2059 0.224 0.0
O35 O 0.26921 0.19864 0.20489 0.0
C36 C 0.35206 0.21791 0.24673 0.0
O37 O 0.21792 0.20491 0.28183 0.0
O38 O 0.29947 0.1918 0.28539 0.0
In39 In 0.98416 0.05248 0.24222 0.0
O40 O 0.94244 0.03172 0.23223 0.0
O41 O 0.01886 0.03123 0.258 0.0
C42 C 0.05862 0.07478 0.2511 0.0
C43 C 0.89354 0.05595 0.27614 0.0
C44 C 0.00132 0.05172 0.19291 0.0
O45 O 0.00248 0.07589 0.24394 0.0
O46 O 0.07739 0.06223 0.25472 0.0
O47 O 0.04397 0.04902 0.20852 0.0
O48 O 0.94888 0.05523 0.20221 0.0
C49 C 0.97765 0.02437 0.24597 0.0
O50 O 0.94664 0.05078 0.2811 0.0
O51 O 0.88622 0.0601 0.25384 0.0
In52 In 0.74269 0.94091 0.99769 0.0
O53 O 0.6532 0.95163 0.98466 0.0
O54 O 0.72441 0.96387 0.00343 0.0
C55 C 0.80554 0.91663 0.00047 0.0
C56 C 0.69309 0.93748 0.04249 0.0
C57 C 0.8061 0.94836 0.95728 0.0
O58 O 0.75151 0.91725 0.99035 0.0
O59 O 0.82627 0.92821 0.00924 0.0
O60 O 0.82282 0.95212 0.9791 0.0
O61 O 0.75695 0.94077 0.95602 0.0
C62 C 0.67062 0.9636 0.99325 0.0
O63 O 0.74325 0.94454 0.03927 0.0
O64 O 0.66952 0.93188 0.02305 0.0
In65 In 0.05353 0.79607 0.99555 0.0
O66 O 0.07859 0.80075 0.03535 0.0
O67 O 0.15434 0.79683 0.01016 0.0
C68 C 0.04947 0.79155 0.94609 0.0
C69 C 0.03212 0.76955 0.01078 0.0
C70 C 0.0058 0.82248 0.99703 0.0
O71 O 0.00248 0.79047 0.96023 0.0
O72 O 0.09977 0.79515 0.95688 0.0
O73 O 0.06149 0.81964 0.99083 0.0
O74 O 0.97235 0.81182 0.0023 0.0
C75 C 0.13697 0.79942 0.03232 0.0
O76 O 0.08256 0.77356 0.00092 0.0
O77 O 0.98983 0.77893 0.01277 0.0
In78 In 0.82584 0.79881 0.74171 0.0
O79 O 0.84528 0.78868 0.70347 0.0
O80 O 0.78874 0.80723 0.7054 0.0
C81 C 0.89854 0.78666 0.7767 0.0
C82 C 0.71393 0.7869 0.7501 0.0
C83 C 0.86939 0.82488 0.75151 0.0
O84 O 0.91773 0.78805 0.75449 0.0
O85 O 0.84294 0.79058 0.78029 0.0
O86 O 0.81916 0.8203 0.76101 0.0
O87 O 0.89551 0.81661 0.73629 0.0
C88 C 0.81172 0.79761 0.69193 0.0
O89 O 0.72317 0.8 0.75325 0.0
O90 O 0.76134 0.77993 0.74317 0.0
In91 In 0.12383 0.94014 0.76912 0.0
O92 O 0.06654 0.94168 0.73306 0.0
O93 O 0.14264 0.95566 0.73722 0.0
C94 C 0.04299 0.95237 0.80184 0.0
C95 C 0.24681 0.94585 0.77537 0.0
C96 C 0.10818 0.91192 0.77494 0.0
O97 O 0.09809 0.9567 0.79861 0.0
O98 O 0.02707 0.94263 0.78721 0.0
O99 O 0.11641 0.92017 0.79304 0.0
O100 O 0.1136 0.91768 0.75394 0.0
C101 C 0.10062 0.95095 0.72314 0.0
O102 O 0.22592 0.93922 0.75679 0.0
O103 O 0.20656 0.94835 0.79199 0.0
In104 In 0.31309 0.57648 0.52302 0.0
O105 O 0.26653 0.56876 0.48715 0.0
O106 O 0.35946 0.57713 0.4857 0.0
C107 C 0.2485 0.5687 0.56337 0.0
C108 C 0.40577 0.55782 0.52956 0.0
C109 C 0.28646 0.60419 0.52152 0.0
O110 O 0.23345 0.5646 0.54171 0.0
O111 O 0.29483 0.57698 0.56443 0.0
O112 O 0.34021 0.59977 0.52797 0.0
O113 O 0.24745 0.59466 0.51615 0.0
C114 C 0.31473 0.57141 0.47417 0.0
O115 O 0.41626 0.57101 0.53104 0.0
O116 O 0.34926 0.55449 0.5262 0.0
In117 In 0.99852 0.71826 0.51313 0.0
O118 O 0.96591 0.71158 0.47502 0.0
O119 O 0.89524 0.71418 0.50263 0.0
C120 C 0.00759 0.71892 0.56302 0.0
C121 C 0.00312 0.74592 0.50129 0.0
C122 C 0.07929 0.69652 0.50907 0.0
O123 O 0.05053 0.72288 0.54848 0.0
O124 O 0.95799 0.7147 0.55238 0.0
O125 O 0.02228 0.69501 0.51471 0.0
O126 O 0.09589 0.70914 0.5048 0.0
C127 C 0.9084 0.71127 0.4802 0.0
O128 O 0.96831 0.74093 0.51804 0.0
O129 O 0.03785 0.73695 0.49054 0.0
In130 In 0.25641 0.7057 0.76896 0.0
O131 O 0.2174 0.71269 0.80698 0.0
O132 O 0.29574 0.69867 0.80566 0.0
C133 C 0.17998 0.71266 0.73121 0.0
C134 C 0.34447 0.72568 0.76362 0.0
C135 C 0.24593 0.67769 0.76292 0.0
O136 O 0.16082 0.71262 0.75357 0.0
O137 O 0.23698 0.7095 0.72837 0.0
O138 O 0.29725 0.68404 0.759 0.0
O139 O 0.20095 0.68553 0.76944 0.0
C140 C 0.25786 0.70559 0.81892 0.0
O141 O 0.35505 0.7129 0.75794 0.0
O142 O 0.2899 0.72819 0.77151 0.0
In143 In 0.05156 0.55442 0.77645 0.0
O144 O 0.07952 0.54956 0.81631 0.0
O145 O 0.99664 0.56201 0.80895 0.0
C146 C 0.09099 0.54982 0.73081 0.0
C147 C 0.97049 0.53338 0.77371 0.0
C148 C 0.10759 0.57927 0.77455 0.0
O149 O 0.1197 0.54449 0.74943 0.0
O150 O 0.04245 0.55713 0.73547 0.0
O151 O 0.04901 0.57799 0.77056 0.0
O152 O 0.13684 0.56799 0.78017 0.0
C153 C 0.03206 0.55616 0.82495 0.0
O154 O 0.95447 0.54609 0.76904 0.0
O155 O 0.02774 0.53145 0.77931 0.0
In156 In 0.68528 0.44605 0.48993 0.0
O157 O 0.608 0.46204 0.48819 0.0
O158 O 0.70323 0.46921 0.49425 0.0
C159 C 0.7156 0.41891 0.49178 0.0
C160 C 0.66612 0.44745 0.53816 0.0
C161 C 0.70714 0.44912 0.44176 0.0
O162 O 0.65945 0.42301 0.48817 0.0
O163 O 0.75627 0.42865 0.49422 0.0
O164 O 0.7499 0.45085 0.45805 0.0
O165 O 0.65356 0.44552 0.45002 0.0
C166 C 0.64527 0.47231 0.49246 0.0
O167 O 0.71851 0.45097 0.52855 0.0
O168 O 0.62499 0.44248 0.52339 0.0
In169 In 0.99438 0.30351 0.49863 0.0
O170 O 0.0095 0.30538 0.5397 0.0
O171 O 0.08181 0.31347 0.51588 0.0
C172 C 0.99606 0.29945 0.44923 0.0
C173 C 0.01338 0.27663 0.51115 0.0
C174 C 0.9144 0.32536 0.50033 0.0
O175 O 0.95057 0.29609 0.46304 0.0
O176 O 0.04211 0.30507 0.4604 0.0
O177 O 0.9714 0.32657 0.49443 0.0
O178 O 0.8969 0.3129 0.50561 0.0
C179 C 0.06308 0.31094 0.53793 0.0
O180 O 0.05533 0.28457 0.50233 0.0
O181 O 0.95901 0.28203 0.51286 0.0
In182 In 0.79697 0.3018 0.23779 0.0
O183 O 0.81332 0.29051 0.20048 0.0
O184 O 0.75809 0.30937 0.20142 0.0
C185 C 0.86456 0.29321 0.27685 0.0
C186 C 0.69293 0.28727 0.24745 0.0
C187 C 0.84168 0.32806 0.24001 0.0
O188 O 0.88482 0.29157 0.25477 0.0
O189 O 0.81076 0.29865 0.27864 0.0
O190 O 0.78525 0.32532 0.24564 0.0
O191 O 0.87412 0.31762 0.23292 0.0
C192 C 0.77909 0.29922 0.18868 0.0
O193 O 0.69555 0.30054 0.25077 0.0
O194 O 0.74305 0.28154 0.24 0.0
In195 In 0.94678 0.45682 0.23376 0.0
O196 O 0.04429 0.46509 0.24287 0.0
O197 O 0.97412 0.47971 0.23093 0.0
C198 C 0.94545 0.42877 0.23959 0.0
C199 C 0.94627 0.45731 0.18385 0.0
C200 C 0.87381 0.46178 0.27345 0.0
O201 O 0.99461 0.43596 0.24332 0.0
O202 O 0.89795 0.43579 0.23293 0.0
O203 O 0.85174 0.46197 0.2515 0.0
O204 O 0.9321 0.45972 0.27485 0.0
C205 C 0.03035 0.47772 0.23731 0.0
O206 O 0.9043 0.46374 0.19621 0.0
O207 O 0.98547 0.45054 0.19673 0.0
In208 In 0.68389 0.05045 0.48195 0.0
O209 O 0.68081 0.03904 0.44439 0.0
O210 O 0.65888 0.06084 0.44479 0.0
C211 C 0.58962 0.03976 0.50977 0.0
C212 C 0.79915 0.0388 0.48595 0.0
C213 C 0.67948 0.07631 0.50276 0.0
O214 O 0.57923 0.04702 0.4905 0.0
O215 O 0.64639 0.03677 0.51309 0.0
O216 O 0.68112 0.06515 0.51555 0.0
O217 O 0.68621 0.07444 0.47964 0.0
C218 C 0.66824 0.04995 0.43189 0.0
O219 O 0.79042 0.05197 0.48753 0.0
O220 O 0.75007 0.03169 0.48285 0.0
In221 In 0.40319 0.1906 0.51869 0.0
O222 O 0.40518 0.20585 0.48548 0.0
O223 O 0.36912 0.18511 0.48012 0.0
C224 C 0.49703 0.2005 0.54701 0.0
C225 C 0.29335 0.20088 0.53531 0.0
C226 C 0.44612 0.16399 0.52136 0.0
O227 O 0.50071 0.20038 0.5235 0.0
O228 O 0.44552 0.19631 0.55574 0.0
O229 O 0.40333 0.16836 0.53577 0.0
O230 O 0.46417 0.17279 0.50531 0.0
C231 C 0.38006 0.19707 0.47083 0.0
O232 O 0.29874 0.18815 0.52848 0.0
O233 O 0.34344 0.20788 0.53479 0.0
In234 In 0.80157 0.19426 0.73975 0.0
O235 O 0.85166 0.21438 0.73151 0.0
O236 O 0.77521 0.21567 0.75726 0.0
C237 C 0.72736 0.17183 0.74703 0.0
C238 C 0.8911 0.18796 0.7725 0.0
C239 C 0.76425 0.19703 0.69273 0.0
O240 O 0.78022 0.17092 0.73642 0.0
O241 O 0.71253 0.18411 0.75464 0.0
O242 O 0.73182 0.20079 0.71132 0.0
O243 O 0.81745 0.19165 0.69778 0.0
C244 C 0.81865 0.22206 0.74561 0.0
O245 O 0.83504 0.19056 0.77853 0.0
O246 O 0.90266 0.18804 0.74925 0.0
In247 In 0.44309 0.05663 0.72725 0.0
O248 O 0.41787 0.0337 0.72478 0.0
O249 O 0.4986 0.03875 0.74644 0.0
C250 C 0.49767 0.08214 0.73191 0.0
C251 C 0.36012 0.0594 0.76427 0.0
C252 C 0.44508 0.05392 0.67758 0.0
O253 O 0.44077 0.08042 0.72627 0.0
O254 O 0.5289 0.07082 0.73452 0.0
O255 O 0.49239 0.05183 0.69126 0.0
O256 O 0.39614 0.05798 0.68893 0.0
C257 C 0.46156 0.02929 0.73852 0.0
O258 O 0.41862 0.05989 0.76727 0.0
O259 O 0.34193 0.05774 0.74195 0.0
In260 In 0.25008 0.95616 0.49906 0.0
O261 O 0.15599 0.96399 0.48473 0.0
O262 O 0.22039 0.97882 0.50102 0.0
C263 C 0.29197 0.92969 0.49468 0.0
C264 C 0.21225 0.95434 0.54638 0.0
C265 C 0.32166 0.96446 0.46124 0.0
O266 O 0.23787 0.93328 0.48697 0.0
O267 O 0.32337 0.93939 0.50508 0.0
O268 O 0.33804 0.96664 0.48377 0.0
O269 O 0.26931 0.95839 0.45833 0.0
C270 C 0.16722 0.97668 0.49121 0.0
O271 O 0.26326 0.96058 0.54086 0.0
O272 O 0.18361 0.94876 0.52822 0.0
In273 In 0.62415 0.82071 0.47871 0.0
O274 O 0.72324 0.82769 0.48917 0.0
O275 O 0.71049 0.81828 0.4539 0.0
C276 C 0.54266 0.84274 0.48004 0.0
C277 C 0.63924 0.80829 0.52375 0.0
C278 C 0.57499 0.80528 0.44142 0.0
O279 O 0.6004 0.84452 0.47598 0.0
O280 O 0.52705 0.83009 0.48355 0.0
O281 O 0.56799 0.80187 0.46407 0.0
O282 O 0.60666 0.81635 0.43785 0.0
C283 C 0.7487 0.82272 0.4699 0.0
O284 O 0.6433 0.80141 0.50365 0.0
O285 O 0.62288 0.82099 0.52104 0.0
In286 In 0.29193 0.79679 0.25263 0.0
O287 O 0.32623 0.78802 0.21481 0.0
O288 O 0.26374 0.80551 0.21529 0.0
C289 C 0.36041 0.78432 0.28867 0.0
C290 C 0.17963 0.78443 0.25732 0.0
C291 C 0.32431 0.82336 0.26496 0.0
O292 O 0.38364 0.78737 0.26768 0.0
O293 O 0.30278 0.78682 0.29073 0.0
O294 O 0.2698 0.81864 0.26873 0.0
O295 O 0.36133 0.81477 0.2547 0.0
C296 C 0.29442 0.79683 0.20235 0.0
O297 O 0.18878 0.79725 0.26286 0.0
O298 O 0.22748 0.77782 0.24971 0.0
In299 In 0.5801 0.93979 0.26609 0.0
O300 O 0.55021 0.9502 0.22925 0.0
O301 O 0.57854 0.92857 0.22897 0.0
C302 C 0.54023 0.95572 0.30453 0.0
C303 C 0.69958 0.94814 0.26307 0.0
C304 C 0.52127 0.91585 0.27868 0.0
O305 O 0.51028 0.95521 0.28417 0.0
O306 O 0.59025 0.94865 0.30494 0.0
O307 O 0.58026 0.91623 0.27599 0.0
O308 O 0.49343 0.92745 0.27532 0.0
C309 C 0.56071 0.93915 0.2166 0.0
O310 O 0.68482 0.93727 0.27554 0.0
O311 O 0.65462 0.95444 0.25264 0.0
In312 In 0.71451 0.53904 0.0117 0.0
O313 O 0.74585 0.51626 0.01353 0.0
O314 O 0.68192 0.52144 0.98468 0.0
C315 C 0.62584 0.55961 0.01262 0.0
C316 C 0.80563 0.54821 0.98108 0.0
C317 C 0.71825 0.53501 0.06109 0.0
O318 O 0.68306 0.56184 0.01685 0.0
O319 O 0.61287 0.54693 0.00724 0.0
O320 O 0.67343 0.531 0.0475 0.0
O321 O 0.76205 0.5413 0.04973 0.0
C322 C 0.71556 0.51207 0.99487 0.0
O323 O 0.74899 0.54734 0.9747 0.0
O324 O 0.81664 0.54491 0.00348 0.0
In325 In 0.34626 0.67473 0.03981 0.0
O326 O 0.3548 0.69386 0.01383 0.0
O327 O 0.35023 0.67356 0.99742 0.0
C328 C 0.42022 0.68518 0.07606 0.0
C329 C 0.22765 0.68364 0.04914 0.0
C330 C 0.38608 0.64748 0.03763 0.0
O331 O 0.4277 0.68823 0.0533 0.0
O332 O 0.37637 0.67658 0.08042 0.0
O333 O 0.33053 0.65066 0.04372 0.0
O334 O 0.42065 0.65795 0.03317 0.0
C335 C 0.35192 0.6867 0.99408 0.0
O336 O 0.23954 0.67438 0.03289 0.0
O337 O 0.27409 0.68701 0.06223 0.0
In338 In 0.72066 0.70349 0.26612 0.0
O339 O 0.67827 0.70948 0.30433 0.0
O340 O 0.76071 0.69676 0.30277 0.0
C341 C 0.65069 0.71025 0.22643 0.0
C342 C 0.80774 0.72365 0.26251 0.0
C343 C 0.71 0.67582 0.25733 0.0
O344 O 0.62662 0.70921 0.24798 0.0
O345 O 0.70923 0.70854 0.22548 0.0
O346 O 0.76217 0.68208 0.25518 0.0
O347 O 0.66485 0.68349 0.26421 0.0
C348 C 0.72105 0.70304 0.31623 0.0
O349 O 0.81955 0.71089 0.257 0.0
O350 O 0.75205 0.7261 0.2693 0.0
In351 In 0.4957 0.5544 0.25691 0.0
O352 O 0.49986 0.54821 0.2982 0.0
O353 O 0.43074 0.56303 0.28565 0.0
C354 C 0.57196 0.54034 0.22657 0.0
C355 C 0.3927 0.54087 0.24261 0.0
C356 C 0.55435 0.57921 0.25228 0.0
O357 O 0.58051 0.54005 0.24997 0.0
O358 O 0.5255 0.54744 0.21913 0.0
O359 O 0.50031 0.57726 0.24315 0.0
O360 O 0.57703 0.56884 0.26399 0.0
C361 C 0.45274 0.55586 0.30341 0.0
O362 O 0.40227 0.55368 0.2367 0.0
O363 O 0.43604 0.53498 0.25492 0.0
In364 In 0.10665 0.43851 0.96594 0.0
O365 O 0.08677 0.45717 0.9921 0.0
O366 O 0.10657 0.43713 0.00804 0.0
C367 C 0.15896 0.45468 0.93059 0.0
C368 C 0.98241 0.43716 0.95588 0.0
C369 C 0.19175 0.41715 0.96687 0.0
O370 O 0.1621 0.45784 0.95348 0.0
O371 O 0.12884 0.44354 0.92576 0.0
O372 O 0.13463 0.41484 0.9621 0.0
O373 O 0.20439 0.42987 0.9713 0.0
C374 C 0.0906 0.44979 0.01163 0.0
O375 O 0.00642 0.43155 0.97491 0.0
O376 O 0.02191 0.44175 0.94052 0.0
In377 In 0.52404 0.30874 0.98378 0.0
O378 O 0.6262 0.30895 0.96995 0.0
O379 O 0.58251 0.28934 0.97892 0.0
C380 C 0.47139 0.33457 0.9807 0.0
C381 C 0.5464 0.30478 0.03249 0.0
C382 C 0.45359 0.29737 0.94785 0.0
O383 O 0.52748 0.33227 0.97402 0.0
O384 O 0.4432 0.32397 0.98955 0.0
O385 O 0.43993 0.29582 0.9707 0.0
O386 O 0.5024 0.30448 0.94357 0.0
C387 C 0.63141 0.29563 0.97192 0.0
O388 O 0.51042 0.29669 0.02035 0.0
O389 O 0.56634 0.31532 0.02052 0.0
In390 In 0.18724 0.31596 0.75692 0.0
O391 O 0.22562 0.30625 0.72113 0.0
O392 O 0.18654 0.32702 0.71956 0.0
C393 C 0.22798 0.29991 0.79472 0.0
C394 C 0.07129 0.30517 0.7536 0.0
C395 C 0.24334 0.34001 0.77115 0.0
O396 O 0.25755 0.30062 0.7743 0.0
O397 O 0.17796 0.30698 0.79563 0.0
O398 O 0.18498 0.33967 0.76669 0.0
O399 O 0.27152 0.32839 0.76857 0.0
C400 C 0.21135 0.31687 0.70794 0.0
O401 O 0.0815 0.31626 0.76624 0.0
O402 O 0.11853 0.30013 0.74268 0.0
In403 In 0.49805 0.45737 0.75755 0.0
O404 O 0.48283 0.46863 0.72031 0.0
O405 O 0.52362 0.44812 0.71994 0.0
C406 C 0.42137 0.47028 0.79011 0.0
C407 C 0.60989 0.4694 0.76611 0.0
C408 C 0.45778 0.43107 0.76757 0.0
O409 O 0.40471 0.46777 0.76796 0.0
O410 O 0.47661 0.4667 0.79537 0.0
O411 O 0.51185 0.43522 0.77387 0.0
O412 O 0.42534 0.44008 0.75603 0.0
C413 C 0.50687 0.45879 0.70761 0.0
O414 O 0.60076 0.45637 0.77003 0.0
O415 O 0.56269 0.47612 0.75842 0.0
H416 H 0.21313 0.041 0.07325 0.0
H417 H 0.04476 0.04007 0.02831 0.0
H418 H 0.98038 0.04167 0.06662 0.0
H419 H 0.15075 0.02077 0.12667 0.0
H420 H 0.1937 0.03136 0.14865 0.0
H421 H 0.22467 0.02843 0.11788 0.0
H422 H 0.23269 0.05548 0.11151 0.0
H423 H 0.20049 0.05852 0.14199 0.0
H424 H 0.16367 0.06626 0.11506 0.0
H425 H 0.93552 0.04633 0.11018 0.0
H426 H 0.91456 0.05087 0.15495 0.0
H427 H 0.11359 0.04847 0.17008 0.0
C428 C 0.16267 0.04073 0.07148 0.0
C429 C 0.13382 0.04032 0.04788 0.0
C430 C 0.06771 0.04017 0.04628 0.0
C431 C 0.03085 0.04119 0.06792 0.0
C432 C 0.061 0.04218 0.09091 0.0
C433 C 0.12549 0.04167 0.09277 0.0
C434 C 0.14708 0.04354 0.11935 0.0
C435 C 0.18103 0.03023 0.12869 0.0
C436 C 0.1884 0.05674 0.12212 0.0
C437 C 0.08483 0.04547 0.13219 0.0
C438 C 0.03553 0.04469 0.11561 0.0
C439 C 0.9738 0.04677 0.12333 0.0
C440 C 0.96233 0.04945 0.14872 0.0
C441 C 0.01241 0.04997 0.16594 0.0
C442 C 0.07424 0.04803 0.1574 0.0
H443 H 0.26701 0.20087 0.15708 0.0
H444 H 0.10247 0.21702 0.195 0.0
H445 H 0.05683 0.22379 0.15442 0.0
H446 H 0.27146 0.22755 0.10726 0.0
H447 H 0.29588 0.21497 0.08402 0.0
H448 H 0.31811 0.2125 0.11611 0.0
H449 H 0.26842 0.18757 0.11584 0.0
H450 H 0.24655 0.18992 0.08377 0.0
H451 H 0.18783 0.18559 0.1066 0.0
H452 H 0.02545 0.22688 0.11005 0.0
H453 H 0.00815 0.22525 0.06474 0.0
H454 H 0.19385 0.20762 0.05516 0.0
C455 C 0.22166 0.20597 0.15687 0.0
C456 C 0.18825 0.20845 0.1792 0.0
C457 C 0.12885 0.21503 0.17813 0.0
C458 C 0.10275 0.21898 0.15519 0.0
C459 C 0.13686 0.21635 0.13353 0.0
C460 C 0.195 0.21 0.13415 0.0
C461 C 0.22015 0.20754 0.10808 0.0
C462 C 0.27995 0.21616 0.10361 0.0
C463 C 0.23136 0.19172 0.1033 0.0
C464 C 0.16623 0.21314 0.09264 0.0
C465 C 0.11902 0.21833 0.10776 0.0
C466 C 0.06244 0.22307 0.09803 0.0
C467 C 0.05308 0.22212 0.07229 0.0
C468 C 0.10007 0.21653 0.05652 0.0
C469 C 0.15798 0.21233 0.06675 0.0
H470 H 0.93457 0.94014 0.81848 0.0
H471 H 0.06786 0.9732 0.83562 0.0
H472 H 0.01597 0.97706 0.87616 0.0
H473 H 0.7972 0.9564 0.85067 0.0
H474 H 0.76959 0.93951 0.86144 0.0
H475 H 0.81164 0.94076 0.83243 0.0
H476 H 0.89097 0.92212 0.84828 0.0
H477 H 0.84978 0.92094 0.87742 0.0
H478 H 0.93193 0.92518 0.87712 0.0
H479 H 0.95877 0.97517 0.91688 0.0
H480 H 0.89592 0.96874 0.95378 0.0
H481 H 0.79859 0.93709 0.9102 0.0
C482 C 0.95157 0.94851 0.83041 0.0
C483 C 0.00494 0.95648 0.82377 0.0
C484 C 0.02672 0.96707 0.84019 0.0
C485 C 0.99761 0.96932 0.8633 0.0
C486 C 0.94651 0.96093 0.86967 0.0
C487 C 0.9231 0.95086 0.85357 0.0
C488 C 0.8705 0.94258 0.86564 0.0
C489 C 0.80856 0.94496 0.85172 0.0
C490 C 0.88681 0.92677 0.8672 0.0
C491 C 0.86907 0.94931 0.89124 0.0
C492 C 0.91313 0.95992 0.89314 0.0
C493 C 0.9234 0.96705 0.91547 0.0
C494 C 0.88768 0.96328 0.93637 0.0
C495 C 0.84206 0.95249 0.93483 0.0
C496 C 0.83246 0.94552 0.91186 0.0
H497 H 0.8604 0.77796 0.82214 0.0
H498 H 0.02691 0.78848 0.78013 0.0
H499 H 0.08871 0.78843 0.81924 0.0
H500 H 0.88561 0.8004 0.86986 0.0
H501 H 0.85535 0.78923 0.89419 0.0
H502 H 0.82769 0.78718 0.86283 0.0
H503 H 0.85952 0.76078 0.86314 0.0
H504 H 0.88626 0.76264 0.89479 0.0
H505 H 0.93846 0.75589 0.87126 0.0
H506 H 0.12757 0.79104 0.86434 0.0
H507 H 0.14029 0.79456 0.90988 0.0
H508 H 0.94664 0.78258 0.92102 0.0
C509 C 0.91036 0.77973 0.82102 0.0
C510 C 0.93905 0.7831 0.79812 0.0
C511 C 0.00427 0.78562 0.79745 0.0
C512 C 0.03958 0.78571 0.81961 0.0
C513 C 0.00896 0.78306 0.84213 0.0
C514 C 0.94588 0.77986 0.84282 0.0
C515 C 0.92205 0.77872 0.86924 0.0
C516 C 0.86962 0.78953 0.87431 0.0
C517 C 0.90031 0.76361 0.87494 0.0
C518 C 0.98083 0.78232 0.88346 0.0
C519 C 0.03086 0.78464 0.86767 0.0
C520 C 0.08889 0.789 0.87683 0.0
C521 C 0.09567 0.79103 0.90269 0.0
C522 C 0.04451 0.78882 0.91899 0.0
C523 C 0.9868 0.78428 0.9091 0.0
H524 H 0.23992 0.58203 0.60815 0.0
H525 H 0.18873 0.54349 0.56977 0.0
H526 H 0.14627 0.5338 0.60916 0.0
H527 H 0.28613 0.56695 0.66567 0.0
H528 H 0.25246 0.58073 0.68457 0.0
H529 H 0.27855 0.58459 0.65343 0.0
H530 H 0.16856 0.59422 0.64215 0.0
H531 H 0.14244 0.59058 0.67337 0.0
H532 H 0.10084 0.58328 0.64719 0.0
H533 H 0.11451 0.52796 0.65366 0.0
H534 H 0.08382 0.52773 0.69834 0.0
H535 H 0.1505 0.5706 0.70631 0.0
C536 C 0.21939 0.57158 0.60804 0.0
C537 C 0.21767 0.56345 0.58607 0.0
C538 C 0.19005 0.54989 0.58648 0.0
C539 C 0.16628 0.54428 0.60876 0.0
C540 C 0.16963 0.5525 0.63027 0.0
C541 C 0.19436 0.56597 0.62993 0.0
C542 C 0.19037 0.57287 0.65527 0.0
C543 C 0.25578 0.5765 0.66532 0.0
C544 C 0.14802 0.58601 0.65444 0.0
C545 C 0.16059 0.5611 0.67007 0.0
C546 C 0.14944 0.54936 0.65544 0.0
C547 C 0.12279 0.53711 0.66525 0.0
C548 C 0.10595 0.53701 0.69055 0.0
C549 C 0.1156 0.54909 0.70543 0.0
C550 C 0.14339 0.56121 0.69514 0.0
H551 H 0.11719 0.72292 0.58727 0.0
H552 H 0.92075 0.7143 0.60031 0.0
H553 H 0.94107 0.71357 0.64587 0.0
H554 H 0.17512 0.69946 0.63244 0.0
H555 H 0.24016 0.71054 0.64093 0.0
H556 H 0.20812 0.7115 0.61002 0.0
H557 H 0.19035 0.73841 0.61543 0.0
H558 H 0.22217 0.73752 0.64644 0.0
H559 H 0.14513 0.74476 0.64147 0.0
H560 H 0.98601 0.71317 0.69053 0.0
H561 H 0.0513 0.71142 0.72868 0.0
H562 H 0.21715 0.71951 0.68451 0.0
C563 C 0.07809 0.72105 0.59966 0.0
C564 C 0.01726 0.71879 0.5903 0.0
C565 C 0.9677 0.71613 0.60715 0.0
C566 C 0.97882 0.71574 0.63301 0.0
C567 C 0.03974 0.71797 0.64158 0.0
C568 C 0.08846 0.72049 0.62526 0.0
C569 C 0.15035 0.72168 0.63864 0.0
C570 C 0.1961 0.71011 0.63 0.0
C571 C 0.17864 0.73647 0.63529 0.0
C572 C 0.12934 0.7193 0.66513 0.0
C573 C 0.06537 0.71736 0.66668 0.0
C574 C 0.03607 0.71473 0.68946 0.0
C575 C 0.07338 0.71381 0.71103 0.0
C576 C 0.13916 0.71533 0.70949 0.0
C577 C 0.16696 0.7183 0.68627 0.0
H578 H 0.91447 0.46338 0.32136 0.0
H579 H 0.74547 0.46068 0.27693 0.0
H580 H 0.68287 0.45804 0.31552 0.0
H581 H 0.87501 0.43748 0.36453 0.0
H582 H 0.90952 0.44625 0.39094 0.0
H583 H 0.93985 0.44937 0.36018 0.0
H584 H 0.92238 0.47627 0.36553 0.0
H585 H 0.89274 0.47327 0.39648 0.0
H586 H 0.84602 0.48276 0.37409 0.0
H587 H 0.6406 0.45349 0.3591 0.0
H588 H 0.62133 0.44898 0.40383 0.0
H589 H 0.8189 0.45484 0.41907 0.0
C590 C 0.86413 0.46252 0.31971 0.0
C591 C 0.83472 0.46229 0.29616 0.0
C592 C 0.76884 0.46101 0.29481 0.0
C593 C 0.73302 0.45945 0.31662 0.0
C594 C 0.76386 0.45931 0.33953 0.0
C595 C 0.82791 0.46099 0.34118 0.0
C596 C 0.85041 0.4599 0.36783 0.0
C597 C 0.8964 0.44751 0.37104 0.0
C598 C 0.87959 0.47388 0.37649 0.0
C599 C 0.78919 0.45707 0.38099 0.0
C600 C 0.73971 0.45679 0.36441 0.0
C601 C 0.67894 0.45384 0.37224 0.0
C602 C 0.66851 0.45123 0.39766 0.0
C603 C 0.7186 0.45159 0.41493 0.0
C604 C 0.77959 0.45456 0.40636 0.0
H605 H 0.81977 0.28618 0.32212 0.0
H606 H 0.9921 0.29507 0.28278 0.0
H607 H 0.04901 0.29582 0.32308 0.0
H608 H 0.84105 0.30911 0.37003 0.0
H609 H 0.80735 0.29815 0.39394 0.0
H610 H 0.7831 0.29605 0.36212 0.0
H611 H 0.81302 0.26954 0.36339 0.0
H612 H 0.83637 0.27147 0.39545 0.0
H613 H 0.89066 0.26443 0.37295 0.0
H614 H 0.08225 0.29931 0.36877 0.0
H615 H 0.09028 0.30285 0.4145 0.0
H616 H 0.8955 0.29096 0.42242 0.0
C617 C 0.86991 0.28783 0.32194 0.0
C618 C 0.9018 0.29047 0.29946 0.0
C619 C 0.96716 0.29278 0.29986 0.0
C620 C 0.99965 0.29332 0.32266 0.0
C621 C 0.96607 0.29125 0.3447 0.0
C622 C 0.90279 0.28823 0.34435 0.0
C623 C 0.87602 0.2873 0.37033 0.0
C624 C 0.82384 0.29831 0.37432 0.0
C625 C 0.85266 0.27229 0.37585 0.0
C626 C 0.93344 0.29078 0.38547 0.0
C627 C 0.98519 0.29298 0.37054 0.0
C628 C 0.04226 0.29733 0.38061 0.0
C629 C 0.04636 0.29938 0.40655 0.0
C630 C 0.99366 0.29709 0.422 0.0
C631 C 0.9369 0.29264 0.41118 0.0
H632 H 0.60943 0.02739 0.55462 0.0
H633 H 0.46983 0.05039 0.51235 0.0
H634 H 0.40874 0.05418 0.55095 0.0
H635 H 0.50229 0.01209 0.60349 0.0
H636 H 0.56082 0.01474 0.62718 0.0
H637 H 0.58412 0.01089 0.59563 0.0
H638 H 0.65201 0.03352 0.59538 0.0
H639 H 0.62792 0.03765 0.62657 0.0
H640 H 0.61591 0.05032 0.60198 0.0
H641 H 0.37226 0.05873 0.59561 0.0
H642 H 0.36357 0.063 0.64111 0.0
H643 H 0.53181 0.03831 0.65306 0.0
C644 C 0.56461 0.03268 0.55323 0.0
C645 C 0.54405 0.03845 0.53042 0.0
C646 C 0.48598 0.04566 0.52955 0.0
C647 C 0.45113 0.04792 0.55144 0.0
C648 C 0.47493 0.04285 0.57395 0.0
C649 C 0.53008 0.0352 0.57485 0.0
C650 C 0.55046 0.03248 0.60138 0.0
C651 C 0.54932 0.01661 0.60726 0.0
C652 C 0.61537 0.03888 0.60661 0.0
C653 C 0.49967 0.04025 0.61534 0.0
C654 C 0.45565 0.04594 0.59937 0.0
C655 C 0.40606 0.05414 0.60826 0.0
C656 C 0.40159 0.05657 0.63407 0.0
C657 C 0.44723 0.05106 0.65053 0.0
C658 C 0.49633 0.04271 0.64093 0.0
H659 H 0.49187 0.20821 0.59547 0.0
H660 H 0.62221 0.19831 0.53618 0.0
H661 H 0.70929 0.19809 0.56671 0.0
H662 H 0.60042 0.23064 0.63281 0.0
H663 H 0.56822 0.22409 0.66159 0.0
H664 H 0.51937 0.22549 0.63436 0.0
H665 H 0.49092 0.19901 0.63858 0.0
H666 H 0.5404 0.19745 0.66548 0.0
H667 H 0.55261 0.18601 0.63911 0.0
H668 H 0.77884 0.19537 0.60549 0.0
H669 H 0.82472 0.19272 0.64777 0.0
H670 H 0.64697 0.20506 0.68016 0.0
C671 C 0.53905 0.20643 0.58878 0.0
C672 C 0.55058 0.20335 0.56354 0.0
C673 C 0.61269 0.2009 0.55545 0.0
C674 C 0.66229 0.20067 0.57268 0.0
C675 C 0.64885 0.20318 0.59774 0.0
C676 C 0.58875 0.20631 0.6056 0.0
C677 C 0.58514 0.20775 0.63355 0.0
C678 C 0.56725 0.2229 0.64101 0.0
C679 C 0.5396 0.19691 0.64482 0.0
C680 C 0.65204 0.20445 0.64038 0.0
C681 C 0.6885 0.20188 0.61962 0.0
C682 C 0.75093 0.19764 0.62182 0.0
C683 C 0.77653 0.19609 0.64585 0.0
C684 C 0.73955 0.19877 0.66721 0.0
C685 C 0.6768 0.20309 0.66423 0.0
H686 H 0.29126 0.96201 0.4121 0.0
H687 H 0.44333 0.97383 0.46129 0.0
H688 H 0.51319 0.9764 0.4248 0.0
H689 H 0.37731 0.94081 0.37314 0.0
H690 H 0.33722 0.94563 0.34486 0.0
H691 H 0.29736 0.94687 0.37424 0.0
H692 H 0.27306 0.97324 0.36578 0.0
H693 H 0.31297 0.97208 0.33627 0.0
H694 H 0.33616 0.98519 0.35875 0.0
H695 H 0.56972 0.97399 0.38397 0.0
H696 H 0.60794 0.96724 0.34219 0.0
H697 H 0.4182 0.95796 0.31921 0.0
C698 C 0.33887 0.96548 0.41519 0.0
C699 C 0.36187 0.96778 0.43955 0.0
C700 C 0.42463 0.97212 0.4428 0.0
C701 C 0.46456 0.97362 0.42217 0.0
C702 C 0.44072 0.97094 0.39843 0.0
C703 C 0.37908 0.9671 0.39484 0.0
C704 C 0.36617 0.96364 0.36776 0.0
C705 C 0.3432 0.94833 0.36485 0.0
C706 C 0.31931 0.97417 0.35648 0.0
C707 C 0.43081 0.96557 0.35675 0.0
C708 C 0.47305 0.96992 0.37471 0.0
C709 C 0.53682 0.97094 0.36964 0.0
C710 C 0.55812 0.96709 0.34588 0.0
C711 C 0.51579 0.96239 0.3274 0.0
C712 C 0.45119 0.962 0.33274 0.0
H713 H 0.59401 0.80945 0.39168 0.0
H714 H 0.49018 0.78365 0.44398 0.0
H715 H 0.4349 0.77227 0.40887 0.0
H716 H 0.47209 0.81657 0.35189 0.0
H717 H 0.51741 0.81591 0.32361 0.0
H718 H 0.55465 0.82041 0.35251 0.0
H719 H 0.63427 0.80004 0.34618 0.0
H720 H 0.59682 0.79542 0.31723 0.0
H721 H 0.60626 0.78232 0.34129 0.0
H722 H 0.37918 0.76675 0.36894 0.0
H723 H 0.32892 0.76729 0.32747 0.0
H724 H 0.47328 0.79547 0.30072 0.0
C725 C 0.56063 0.80118 0.39573 0.0
C726 C 0.54639 0.7974 0.42055 0.0
C727 C 0.50202 0.78664 0.4251 0.0
C728 C 0.47056 0.7801 0.40527 0.0
C729 C 0.48483 0.78427 0.381 0.0
C730 C 0.52934 0.79447 0.37616 0.0
C731 C 0.5325 0.7979 0.34863 0.0
C732 C 0.51828 0.81362 0.3439 0.0
C733 C 0.59626 0.79366 0.33769 0.0
C734 C 0.48085 0.7885 0.33882 0.0
C735 C 0.4543 0.78061 0.35775 0.0
C736 C 0.40076 0.77252 0.35383 0.0
C737 C 0.3726 0.77286 0.33024 0.0
C738 C 0.39844 0.78107 0.31082 0.0
C739 C 0.4543 0.78861 0.31497 0.0
H740 H 0.62512 0.52314 0.08803 0.0
H741 H 0.8081 0.54231 0.09554 0.0
H742 H 0.79942 0.54052 0.14146 0.0
H743 H 0.55536 0.54191 0.13341 0.0
H744 H 0.5049 0.52798 0.14426 0.0
H745 H 0.5324 0.52785 0.11274 0.0
H746 H 0.57836 0.50277 0.11946 0.0
H747 H 0.55138 0.50293 0.15127 0.0
H748 H 0.63276 0.4997 0.14453 0.0
H749 H 0.76302 0.54003 0.18633 0.0
H750 H 0.69887 0.54327 0.22439 0.0
H751 H 0.53966 0.52505 0.18663 0.0
C752 C 0.66422 0.52661 0.09928 0.0
C753 C 0.71739 0.5328 0.08829 0.0
C754 C 0.76703 0.53746 0.10364 0.0
C755 C 0.76267 0.53638 0.12971 0.0
C756 C 0.70864 0.5305 0.14001 0.0
C757 C 0.66034 0.5257 0.12513 0.0
C758 C 0.6035 0.52178 0.14032 0.0
C759 C 0.54572 0.5304 0.13221 0.0
C760 C 0.59078 0.50585 0.1388 0.0
C761 C 0.62574 0.52592 0.16597 0.0
C762 C 0.68723 0.53047 0.16568 0.0
C763 C 0.71543 0.53617 0.18688 0.0
C764 C 0.67895 0.53788 0.20847 0.0
C765 C 0.61498 0.53416 0.20831 0.0
C766 C 0.58902 0.52762 0.18722 0.0
H767 H 0.53967 0.69732 0.2156 0.0
H768 H 0.68275 0.72446 0.18459 0.0
H769 H 0.63435 0.72231 0.143 0.0
H770 H 0.53982 0.6735 0.16677 0.0
H771 H 0.45707 0.66989 0.16696 0.0
H772 H 0.4954 0.67546 0.1951 0.0
H773 H 0.41804 0.69639 0.19946 0.0
H774 H 0.37866 0.69075 0.17151 0.0
H775 H 0.40814 0.70851 0.17387 0.0
H776 H 0.57809 0.7152 0.10427 0.0
H777 H 0.51538 0.70417 0.07096 0.0
H778 H 0.41077 0.68076 0.12653 0.0
C779 C 0.55902 0.70327 0.20021 0.0
C780 C 0.61392 0.71135 0.2033 0.0
C781 C 0.63999 0.71845 0.18258 0.0
C782 C 0.61294 0.71725 0.15891 0.0
C783 C 0.56018 0.70878 0.15622 0.0
C784 C 0.53315 0.70197 0.1763 0.0
C785 C 0.48038 0.6924 0.16787 0.0
C786 C 0.49402 0.6769 0.17457 0.0
C787 C 0.41758 0.69731 0.17883 0.0
C788 C 0.48273 0.69474 0.13994 0.0
C789 C 0.52876 0.70431 0.13366 0.0
C790 C 0.54142 0.7078 0.10896 0.0
C791 C 0.50576 0.70143 0.09016 0.0
C792 C 0.45821 0.69161 0.09612 0.0
C793 C 0.4467 0.68826 0.12138 0.0
H794 H 0.30157 0.46165 0.79607 0.0
H795 H 0.44589 0.48743 0.82946 0.0
H796 H 0.38165 0.49004 0.86746 0.0
H797 H 0.1605 0.47816 0.82883 0.0
H798 H 0.12497 0.46106 0.83258 0.0
H799 H 0.17299 0.46465 0.80572 0.0
H800 H 0.24186 0.44295 0.81637 0.0
H801 H 0.19487 0.43939 0.84334 0.0
H802 H 0.27807 0.44183 0.84663 0.0
H803 H 0.31194 0.4863 0.90404 0.0
H804 H 0.24511 0.47575 0.93664 0.0
H805 H 0.14949 0.45106 0.88035 0.0
C806 C 0.31786 0.46846 0.81091 0.0
C807 C 0.37759 0.47469 0.80974 0.0
C808 C 0.39948 0.48286 0.82994 0.0
C809 C 0.36328 0.4844 0.85155 0.0
C810 C 0.30563 0.47756 0.85269 0.0
C811 C 0.28292 0.46977 0.83284 0.0
C812 C 0.22548 0.46143 0.84025 0.0
C813 C 0.16755 0.46664 0.826 0.0
C814 C 0.23575 0.44547 0.83643 0.0
C815 C 0.22132 0.46518 0.8676 0.0
C816 C 0.26679 0.47482 0.87426 0.0
C817 C 0.27534 0.47897 0.89895 0.0
C818 C 0.23728 0.47291 0.91736 0.0
C819 C 0.19215 0.46262 0.91098 0.0
C820 C 0.18325 0.459 0.88572 0.0
H821 H 0.35052 0.29723 0.80738 0.0
H822 H 0.1626 0.28889 0.83356 0.0
H823 H 0.2042 0.28282 0.87513 0.0
H824 H 0.43624 0.27086 0.84887 0.0
H825 H 0.49942 0.28315 0.85354 0.0
H826 H 0.45725 0.28303 0.82446 0.0
H827 H 0.4333 0.30968 0.82975 0.0
H828 H 0.47454 0.30987 0.85885 0.0
H829 H 0.39429 0.31569 0.85757 0.0
H830 H 0.26319 0.28193 0.9153 0.0
H831 H 0.33411 0.28691 0.95063 0.0
H832 H 0.48269 0.29691 0.89859 0.0
C833 C 0.31866 0.29344 0.82155 0.0
C834 C 0.25366 0.29322 0.81726 0.0
C835 C 0.21274 0.28889 0.8365 0.0
C836 C 0.23598 0.2854 0.86012 0.0
C837 C 0.30022 0.28636 0.8642 0.0
C838 C 0.34109 0.2902 0.84537 0.0
C839 C 0.40627 0.2927 0.85543 0.0
C840 C 0.45252 0.28178 0.84495 0.0
C841 C 0.42832 0.30788 0.85009 0.0
C842 C 0.39498 0.29036 0.88294 0.0
C843 C 0.334 0.28635 0.8876 0.0
C844 C 0.31142 0.28478 0.91184 0.0
C845 C 0.35192 0.28764 0.9318 0.0
C846 C 0.41378 0.29226 0.92731 0.0
C847 C 0.43574 0.29327 0.90257 0.0
H848 H 0.35471 0.00851 0.97851 0.0
H849 H 0.45842 0.04483 0.00513 0.0
H850 H 0.55422 0.03022 0.00758 0.0
H851 H 0.43047 0.98275 0.01711 0.0
H852 H 0.4304 0.96918 0.99359 0.0
H853 H 0.37041 0.98255 0.99355 0.0
H854 H 0.39894 0.98905 0.94809 0.0
H855 H 0.45917 0.97573 0.94801 0.0
H856 H 0.47841 0.99376 0.94058 0.0
H857 H 0.63806 0.0116 0.00781 0.0
H858 H 0.70422 0.9903 0.00634 0.0
H859 H 0.54658 0.96593 0.9792 0.0
C860 C 0.3976 0.0134 0.98483 0.0
C861 C 0.3991 0.02783 0.99165 0.0
C862 C 0.45615 0.03382 0.99982 0.0
C863 C 0.5108 0.0256 0.00124 0.0
C864 C 0.50769 0.01142 0.99436 0.0
C865 C 0.45258 0.00536 0.98632 0.0
C866 C 0.46176 0.98984 0.98028 0.0
C867 C 0.42083 0.98053 0.99714 0.0
C868 C 0.44881 0.98693 0.95259 0.0
C869 C 0.53062 0.98808 0.98633 0.0
C870 C 0.55616 1.00069 0.99436 0.0
C871 C 0.6186 0.0017 0.00147 0.0
C872 C 0.65582 0.98951 0.00056 0.0
C873 C 0.63072 0.97643 0.99257 0.0
C874 C 0.56729 0.97578 0.98519 0.0
H875 H 0.64784 0.26736 0.9764 0.0
H876 H 0.74851 0.30599 0.96014 0.0
H877 H 0.84768 0.29234 0.95807 0.0
H878 H 0.75981 0.25276 0.0165 0.0
H879 H 0.74743 0.23483 0.00647 0.0
H880 H 0.6847 0.24746 0.00448 0.0
H881 H 0.67276 0.24229 0.95731 0.0
H882 H 0.73522 0.22954 0.95917 0.0
H883 H 0.73983 0.24386 0.93716 0.0
H884 H 0.93653 0.27425 0.96018 0.0
H885 H 0.00638 0.25365 0.96592 0.0
H886 H 0.84524 0.22733 0.98154 0.0
C887 C 0.69052 0.27298 0.97202 0.0
C888 C 0.69049 0.28774 0.96829 0.0
C889 C 0.74749 0.29467 0.96289 0.0
C890 C 0.80393 0.287 0.96172 0.0
C891 C 0.80225 0.27246 0.96597 0.0
C892 C 0.7468 0.26555 0.97091 0.0
C893 C 0.75721 0.25001 0.97593 0.0
C894 C 0.73605 0.24604 0.00241 0.0
C895 C 0.72431 0.24089 0.95621 0.0
C896 C 0.82748 0.2492 0.97335 0.0
C897 C 0.85276 0.2622 0.96746 0.0
C898 C 0.91707 0.26402 0.96465 0.0
C899 C 0.95634 0.25226 0.96798 0.0
C900 C 0.9312 0.23888 0.97417 0.0
C901 C 0.86588 0.23739 0.97678 0.0
H902 H 0.47981 0.21827 0.23833 0.0
H903 H 0.32258 0.24489 0.25904 0.0
H904 H 0.3929 0.26527 0.26285 0.0
H905 H 0.59277 0.23447 0.27954 0.0
H906 H 0.65644 0.23321 0.25764 0.0
H907 H 0.59398 0.22048 0.25678 0.0
H908 H 0.57378 0.22639 0.21034 0.0
H909 H 0.63635 0.23909 0.21105 0.0
H910 H 0.55915 0.24444 0.20136 0.0
H911 H 0.47934 0.28293 0.26417 0.0
H912 H 0.57706 0.2968 0.26154 0.0
H913 H 0.67821 0.25895 0.23997 0.0
C914 C 0.46033 0.22839 0.24365 0.0
C915 C 0.39572 0.22997 0.24837 0.0
C916 C 0.37194 0.2434 0.25528 0.0
C917 C 0.41149 0.25506 0.25757 0.0
C918 C 0.47487 0.25318 0.25289 0.0
C919 C 0.49928 0.24022 0.24599 0.0
C920 C 0.56913 0.24121 0.24162 0.0
C921 C 0.6052 0.23178 0.26 0.0
C922 C 0.58554 0.23757 0.21448 0.0
C923 C 0.57981 0.25673 0.24705 0.0
C924 C 0.52487 0.26343 0.25361 0.0
C925 C 0.5228 0.27781 0.25912 0.0
C926 C 0.57844 0.2856 0.25762 0.0
C927 C 0.63511 0.27896 0.25063 0.0
C928 C 0.63562 0.26432 0.24549 0.0
H929 H 0.74802 0.96258 0.22461 0.0
H930 H 0.79158 0.94787 0.29891 0.0
H931 H 0.88596 0.9631 0.29941 0.0
H932 H 0.9156 0.96811 0.20261 0.0
H933 H 0.89214 0.98365 0.18562 0.0
H934 H 0.83863 0.96908 0.18898 0.0
H935 H 0.7559 0.98601 0.20775 0.0
H936 H 0.80883 1.00054 0.20467 0.0
H937 H 0.77584 0.99643 0.23469 0.0
H938 H 0.96054 0.98392 0.29503 0.0
H939 H 0.00699 0.00735 0.286 0.0
H940 H 0.91482 0.0076 0.21421 0.0
C941 C 0.77896 0.96214 0.24058 0.0
C942 C 0.76317 0.95405 0.26164 0.0
C943 C 0.80375 0.95385 0.28242 0.0
C944 C 0.85729 0.96249 0.28284 0.0
C945 C 0.86993 0.97096 0.26211 0.0
C946 C 0.8323 0.97058 0.24115 0.0
C947 C 0.85002 0.98187 0.22262 0.0
C948 C 0.87565 0.97528 0.19854 0.0
C949 C 0.79438 0.99179 0.21716 0.0
C950 C 0.90099 0.98929 0.23699 0.0
C951 C 0.91303 0.98275 0.25952 0.0
C952 C 0.95284 0.98887 0.27713 0.0
C953 C 0.97922 0.00216 0.27186 0.0
C954 C 0.96479 0.00918 0.24934 0.0
C955 C 0.92732 0.00236 0.23143 0.0
H956 H 0.20745 0.70794 0.07475 0.0
H957 H 0.12278 0.6804 0.01995 0.0
H958 H 0.0441 0.69883 0.01061 0.0
H959 H 0.06077 0.72814 0.09398 0.0
H960 H 0.10484 0.74431 0.09584 0.0
H961 H 0.14176 0.72772 0.1033 0.0
H962 H 0.22838 0.73287 0.0708 0.0
H963 H 0.19174 0.74934 0.06318 0.0
H964 H 0.20653 0.73655 0.03903 0.0
H965 H 0.98977 0.72192 0.00094 0.0
H966 H 0.96895 0.74709 0.99123 0.0
H967 H 0.09243 0.75964 0.05093 0.0
C968 C 0.17051 0.7055 0.06166 0.0
C969 C 0.1707 0.69262 0.04837 0.0
C970 C 0.12291 0.69007 0.0307 0.0
C971 C 0.07803 0.70051 0.02526 0.0
C972 C 0.08141 0.71344 0.03771 0.0
C973 C 0.12633 0.71589 0.05574 0.0
C974 C 0.12748 0.73127 0.06344 0.0
C975 C 0.1075 0.73295 0.09076 0.0
C976 C 0.19232 0.73788 0.05881 0.0
C977 C 0.07859 0.73728 0.04602 0.0
C978 C 0.05108 0.72682 0.03179 0.0
C979 C 0.00957 0.73012 0.01251 0.0
C980 C 0.99761 0.74442 0.00718 0.0
C981 C 0.02755 0.75517 0.02093 0.0
C982 C 0.06712 0.75153 0.0409 0.0
H983 H 0.68418 0.75905 0.74356 0.0
H984 H 0.6043 0.7995 0.76448 0.0
H985 H 0.50085 0.78822 0.76955 0.0
H986 H 0.55236 0.74661 0.70834 0.0
H987 H 0.56061 0.72856 0.71848 0.0
H988 H 0.62836 0.73979 0.7166 0.0
H989 H 0.65369 0.73466 0.76291 0.0
H990 H 0.58616 0.72338 0.76491 0.0
H991 H 0.5949 0.7379 0.7863 0.0
H992 H 0.40659 0.77257 0.77233 0.0
H993 H 0.32776 0.75363 0.77337 0.0
H994 H 0.46876 0.72326 0.75047 0.0
C995 C 0.64495 0.76554 0.74926 0.0
C996 C 0.65222 0.78017 0.75367 0.0
C997 C 0.59977 0.78829 0.76105 0.0
C998 C 0.54087 0.78197 0.76393 0.0
C999 C 0.5353 0.76754 0.75935 0.0
C1000 C 0.58591 0.75942 0.75221 0.0
C1001 C 0.56736 0.74412 0.74851 0.0
C1002 C 0.57779 0.7395 0.72137 0.0
C1003 C 0.60262 0.73445 0.76675 0.0
C1004 C 0.49833 0.74489 0.75474 0.0
C1005 C 0.48087 0.75851 0.7609 0.0
C1006 C 0.4197 0.76187 0.76753 0.0
C1007 C 0.37527 0.75103 0.76804 0.0
C1008 C 0.39208 0.73697 0.76197 0.0
C1009 C 0.45446 0.73391 0.75511 0.0
H1010 H 0.30336 0.95564 0.73388 0.0
H1011 H 0.31835 0.95543 0.81424 0.0
H1012 H 0.39911 0.97408 0.81193 0.0
H1013 H 0.47008 0.96719 0.71817 0.0
H1014 H 0.44104 0.97846 0.6937 0.0
H1015 H 0.4012 0.96221 0.70093 0.0
H1016 H 0.29803 0.97602 0.7072 0.0
H1017 H 0.33709 0.99226 0.70021 0.0
H1018 H 0.29561 0.99037 0.72925 0.0
H1019 H 0.46206 0.99571 0.80148 0.0
H1020 H 0.49154 0.01914 0.78472 0.0
H1021 H 0.42704 0.00643 0.71171 0.0
C1022 C 0.32631 0.95895 0.75088 0.0
C1023 C 0.30613 0.95381 0.77421 0.0
C1024 C 0.33443 0.95899 0.79618 0.0
C1025 C 0.38034 0.96958 0.79499 0.0
C1026 C 0.39688 0.97499 0.77171 0.0
C1027 C 0.37051 0.96981 0.75001 0.0
C1028 C 0.38563 0.97915 0.72793 0.0
C1029 C 0.42698 0.97128 0.70907 0.0
C1030 C 0.32554 0.98478 0.71546 0.0
C1031 C 0.42172 0.99081 0.74074 0.0
C1032 C 0.42991 0.98799 0.76581 0.0
C1033 C 0.45712 0.99787 0.78179 0.0
C1034 C 0.47408 0.01113 0.77213 0.0
C1035 C 0.46214 0.01446 0.74691 0.0
C1036 C 0.43766 0.004 0.73097 0.0
H1037 H 0.52448 0.48043 0.5004 0.0
H1038 H 0.71393 0.49662 0.4969 0.0
H1039 H 0.67511 0.52038 0.50845 0.0
H1040 H 0.4473 0.51087 0.47534 0.0
H1041 H 0.38068 0.50919 0.49569 0.0
H1042 H 0.4244 0.49375 0.48678 0.0
H1043 H 0.44135 0.48768 0.53341 0.0
H1044 H 0.39851 0.50324 0.54245 0.0
H1045 H 0.4771 0.50051 0.55365 0.0
H1046 H 0.61329 0.54272 0.51981 0.0
H1047 H 0.53414 0.56131 0.5285 0.0
H1048 H 0.38814 0.52959 0.52631 0.0
C1049 C 0.5578 0.48899 0.50181 0.0
C1050 C 0.6221 0.48673 0.49754 0.0
C1051 C 0.66431 0.49816 0.49995 0.0
C1052 C 0.64275 0.51167 0.5066 0.0
C1053 C 0.57898 0.51351 0.51102 0.0
C1054 C 0.53725 0.50244 0.50868 0.0
C1055 C 0.47119 0.50703 0.51451 0.0
C1056 C 0.4284 0.5051 0.49172 0.0
C1057 C 0.44556 0.49915 0.53737 0.0
C1058 C 0.48194 0.52245 0.52019 0.0
C1059 C 0.54427 0.52607 0.51817 0.0
C1060 C 0.5644 0.53996 0.52164 0.0
C1061 C 0.5193 0.55044 0.5267 0.0
C1062 C 0.45513 0.54689 0.52826 0.0
C1063 C 0.43688 0.53266 0.52547 0.0
H1064 H 0.8174 0.81589 0.5103 0.0
H1065 H 0.82256 0.81637 0.42977 0.0
H1066 H 0.91326 0.80019 0.43041 0.0
H1067 H 0.99331 0.80803 0.52227 0.0
H1068 H 0.97188 0.79634 0.54732 0.0
H1069 H 0.9256 0.81188 0.54111 0.0
H1070 H 0.82727 0.7963 0.53754 0.0
H1071 H 0.87241 0.78069 0.54308 0.0
H1072 H 0.82567 0.78208 0.51524 0.0
H1073 H 0.98411 0.77979 0.43915 0.0
H1074 H 0.02244 0.75676 0.45467 0.0
H1075 H 0.96374 0.76804 0.52923 0.0
C1076 C 0.8403 0.81332 0.49289 0.0
C1077 C 0.81409 0.81765 0.47 0.0
C1078 C 0.84297 0.81344 0.4475 0.0
C1079 C 0.8945 0.80422 0.44773 0.0
C1080 C 0.91632 0.79923 0.47062 0.0
C1081 C 0.89029 0.80377 0.49286 0.0
C1082 C 0.91187 0.79469 0.51447 0.0
C1083 C 0.95314 0.80325 0.53234 0.0
C1084 C 0.856 0.78804 0.52834 0.0
C1085 C 0.95004 0.78371 0.50072 0.0
C1086 C 0.95447 0.78683 0.47562 0.0
C1087 C 0.98229 0.77744 0.45885 0.0
C1088 C 0.00407 0.76438 0.46781 0.0
C1089 C 0.99626 0.76072 0.49313 0.0
C1090 C 0.97096 0.77071 0.50983 0.0
H1091 H 0.84516 0.5345 0.76292 0.0
H1092 H 0.99353 0.5056 0.78421 0.0
H1093 H 0.91761 0.48597 0.78511 0.0
H1094 H 0.72541 0.5193 0.80106 0.0
H1095 H 0.66423 0.522 0.77846 0.0
H1096 H 0.73044 0.53371 0.77924 0.0
H1097 H 0.7529 0.52843 0.73272 0.0
H1098 H 0.6866 0.51675 0.73176 0.0
H1099 H 0.76281 0.5104 0.72272 0.0
H1100 H 0.82435 0.46945 0.78406 0.0
H1101 H 0.7219 0.45744 0.78005 0.0
H1102 H 0.63597 0.49728 0.75944 0.0
C1103 C 0.86174 0.52404 0.76768 0.0
C1104 C 0.92524 0.52158 0.77346 0.0
C1105 C 0.94504 0.50773 0.77966 0.0
C1106 C 0.90229 0.49651 0.78026 0.0
C1107 C 0.83989 0.49931 0.7746 0.0
C1108 C 0.81975 0.51273 0.76835 0.0
C1109 C 0.75026 0.51295 0.76302 0.0
C1110 C 0.71556 0.52256 0.78155 0.0
C1111 C 0.73742 0.51739 0.73595 0.0
C1112 C 0.73445 0.49758 0.76725 0.0
C1113 C 0.78662 0.48985 0.77396 0.0
C1114 C 0.78317 0.4754 0.77879 0.0
C1115 C 0.72487 0.46867 0.77653 0.0
C1116 C 0.67105 0.47642 0.76947 0.0
C1117 C 0.67623 0.49106 0.7649 0.0
H1118 H 0.11079 0.2714 0.5408 0.0
H1119 H 0.95767 0.25079 0.50284 0.0
H1120 H 0.00433 0.2274 0.51293 0.0
H1121 H 0.22526 0.25145 0.51785 0.0
H1122 H 0.27348 0.2511 0.54538 0.0
H1123 H 0.22046 0.2655 0.54044 0.0
H1124 H 0.16937 0.26068 0.58306 0.0
H1125 H 0.22145 0.24602 0.58837 0.0
H1126 H 0.13797 0.24347 0.59 0.0
H1127 H 0.08047 0.2069 0.51956 0.0
H1128 H 0.17547 0.19192 0.52199 0.0
H1129 H 0.27584 0.22639 0.55661 0.0
C1130 C 0.08595 0.26191 0.53544 0.0
C1131 C 0.03076 0.26274 0.52124 0.0
C1132 C 0.9996 0.25025 0.51411 0.0
C1133 C 0.02588 0.23697 0.51976 0.0
C1134 C 0.08229 0.2365 0.53298 0.0
C1135 C 0.11117 0.24873 0.5411 0.0
C1136 C 0.17489 0.24578 0.55209 0.0
C1137 C 0.22649 0.25393 0.53809 0.0
C1138 C 0.17592 0.24917 0.58006 0.0
C1139 C 0.17945 0.23009 0.54759 0.0
C1140 C 0.12533 0.22479 0.53702 0.0
C1141 C 0.12228 0.21087 0.52847 0.0
C1142 C 0.17639 0.20241 0.52998 0.0
C1143 C 0.23275 0.20799 0.53966 0.0
C1144 C 0.23312 0.22178 0.54947 0.0
H1145 H 0.15428 0.47657 0.25058 0.0
H1146 H 0.01116 0.50484 0.22212 0.0
H1147 H 0.08929 0.52388 0.2186 0.0
H1148 H 0.2351 0.50256 0.28739 0.0
H1149 H 0.31151 0.49538 0.28087 0.0
H1150 H 0.24417 0.484 0.28091 0.0
H1151 H 0.27117 0.47593 0.23604 0.0
H1152 H 0.33825 0.4874 0.23579 0.0
H1153 H 0.27967 0.48895 0.21181 0.0
H1154 H 0.18334 0.53982 0.21779 0.0
H1155 H 0.2853 0.55187 0.22247 0.0
H1156 H 0.36605 0.51322 0.25173 0.0
C1157 C 0.13937 0.48678 0.24371 0.0
C1158 C 0.07673 0.48924 0.23664 0.0
C1159 C 0.05897 0.50274 0.22772 0.0
C1160 C 0.103 0.51361 0.22554 0.0
C1161 C 0.16456 0.51081 0.23242 0.0
C1162 C 0.18268 0.49777 0.2415 0.0
C1163 C 0.25152 0.49759 0.24802 0.0
C1164 C 0.26111 0.49472 0.27596 0.0
C1165 C 0.28724 0.48683 0.23195 0.0
C1166 C 0.26914 0.51257 0.24127 0.0
C1167 C 0.2185 0.52001 0.23213 0.0
C1168 C 0.22339 0.5341 0.22491 0.0
C1169 C 0.28144 0.54085 0.22753 0.0
C1170 C 0.33345 0.53348 0.23741 0.0
C1171 C 0.32714 0.51913 0.24405 0.0
H1172 H 0.04165 0.97465 0.48052 0.0
H1173 H 0.18814 0.00482 0.49737 0.0
H1174 H 0.11061 0.02413 0.49678 0.0
H1175 H 0.95039 0.99758 0.43936 0.0
H1176 H 0.87646 0.99106 0.45062 0.0
H1177 H 0.94426 0.97974 0.45076 0.0
H1178 H 0.92919 0.97537 0.49802 0.0
H1179 H 0.86167 0.98675 0.49807 0.0
H1180 H 0.92579 0.99023 0.51896 0.0
H1181 H 0.01647 0.04012 0.49596 0.0
H1182 H 0.91221 0.05152 0.49469 0.0
H1183 H 0.82711 0.0109 0.47925 0.0
C1184 C 0.0575 0.98534 0.4837 0.0
C1185 C 0.12096 0.98824 0.48886 0.0
C1186 C 0.13974 0.00235 0.49332 0.0
C1187 C 0.09607 0.01341 0.49302 0.0
C1188 C 0.0337 0.01019 0.48828 0.0
C1189 C 0.01438 0.99651 0.48363 0.0
C1190 C 0.94418 0.99585 0.48001 0.0
C1191 C 0.92788 0.99076 0.45362 0.0
C1192 C 0.91342 0.9865 0.49996 0.0
C1193 C 0.92709 0.01125 0.48357 0.0
C1194 C 0.97939 0.01937 0.48818 0.0
C1195 C 0.97515 0.03388 0.49228 0.0
C1196 C 0.91582 0.04026 0.49157 0.0
C1197 C 0.86165 0.03211 0.48693 0.0
C1198 C 0.86767 0.01742 0.4829 0.0
H1199 H 0.88646 0.23805 0.71398 0.0
H1200 H 0.78637 0.24009 0.78404 0.0
H1201 H 0.82699 0.26435 0.79082 0.0
H1202 H 0.02085 0.25294 0.73414 0.0
H1203 H 0.03805 0.26239 0.70583 0.0
H1204 H 0.99154 0.24667 0.70468 0.0
H1205 H 0.90262 0.2605 0.68263 0.0
H1206 H 0.94917 0.27634 0.68375 0.0
H1207 H 0.87151 0.27626 0.69684 0.0
H1208 H 0.89343 0.28698 0.79252 0.0
H1209 H 0.9786 0.30469 0.78935 0.0
H1210 H 0.03223 0.28724 0.71793 0.0
C1211 C 0.87162 0.24373 0.73047 0.0
C1212 C 0.83321 0.23724 0.74848 0.0
C1213 C 0.81528 0.24495 0.76989 0.0
C1214 C 0.83815 0.25873 0.77385 0.0
C1215 C 0.87785 0.26466 0.75599 0.0
C1216 C 0.89363 0.25738 0.73455 0.0
C1217 C 0.94187 0.26521 0.71935 0.0
C1218 C 0.00157 0.25627 0.71583 0.0
C1219 C 0.91464 0.26985 0.69415 0.0
C1220 C 0.95338 0.27774 0.73608 0.0
C1221 C 0.91537 0.27749 0.75693 0.0
C1222 C 0.92235 0.28741 0.776 0.0
C1223 C 0.97059 0.29749 0.77403 0.0
C1224 C 0.01152 0.29736 0.75332 0.0
C1225 C 0.00109 0.28767 0.73384 0.0
H1226 H 0.14953 0.75681 0.24783 0.0
H1227 H 0.06953 0.7968 0.27125 0.0
H1228 H 0.96543 0.78567 0.27418 0.0
H1229 H 0.01901 0.74543 0.21036 0.0
H1230 H 0.02606 0.72716 0.21929 0.0
H1231 H 0.09429 0.73829 0.21881 0.0
H1232 H 0.11682 0.73205 0.26493 0.0
H1233 H 0.04878 0.72088 0.26553 0.0
H1234 H 0.05683 0.73489 0.288 0.0
H1235 H 0.8705 0.77025 0.27472 0.0
H1236 H 0.79095 0.75144 0.27383 0.0
H1237 H 0.93238 0.72133 0.25025 0.0
C1238 C 0.11006 0.76323 0.25357 0.0
C1239 C 0.11753 0.77769 0.25932 0.0
C1240 C 0.06486 0.78572 0.26679 0.0
C1241 C 0.00555 0.77949 0.26846 0.0
C1242 C 0.99977 0.76523 0.26261 0.0
C1243 C 0.05056 0.75717 0.25538 0.0
C1244 C 0.03167 0.74201 0.25045 0.0
C1245 C 0.04345 0.73799 0.2231 0.0
C1246 C 0.06553 0.73186 0.2683 0.0
C1247 C 0.96232 0.74279 0.25612 0.0
C1248 C 0.94494 0.7563 0.26301 0.0
C1249 C 0.88351 0.75964 0.26932 0.0
C1250 C 0.8387 0.74888 0.26873 0.0
C1251 C 0.85547 0.73493 0.26194 0.0
C1252 C 0.91813 0.7319 0.25543 0.0
H1253 H 0.91055 0.44271 0.99624 0.0
H1254 H 0.91244 0.44559 0.91582 0.0
H1255 H 0.82205 0.46186 0.91733 0.0
H1256 H 0.73405 0.44947 0.0064 0.0
H1257 H 0.75169 0.46006 0.03339 0.0
H1258 H 0.80031 0.4451 0.0257 0.0
H1259 H 0.89711 0.4613 0.0259 0.0
H1260 H 0.84962 0.47636 0.03298 0.0
H1261 H 0.89909 0.47654 0.00579 0.0
H1262 H 0.74864 0.48174 0.92788 0.0
H1263 H 0.70437 0.50356 0.94623 0.0
H1264 H 0.75646 0.48891 0.01975 0.0
C1265 C 0.8894 0.44606 0.97889 0.0
C1266 C 0.91745 0.4426 0.95587 0.0
C1267 C 0.89068 0.44783 0.9336 0.0
C1268 C 0.83936 0.45712 0.93432 0.0
C1269 C 0.81543 0.46113 0.95747 0.0
C1270 C 0.83937 0.45563 0.9794 0.0
C1271 C 0.8146 0.46355 0.00186 0.0
C1272 C 0.77265 0.45397 0.01777 0.0
C1273 C 0.86829 0.46982 0.0175 0.0
C1274 C 0.77653 0.47495 0.98915 0.0
C1275 C 0.77547 0.4731 0.96362 0.0
C1276 C 0.74791 0.48309 0.94789 0.0
C1277 C 0.7227 0.49545 0.95845 0.0
C1278 C 0.72667 0.49784 0.98439 0.0
C1279 C 0.75207 0.48724 0.99988 0.0
H1280 H 0.30748 0.06862 0.90773 0.0
H1281 H 0.15334 0.03906 0.90295 0.0
H1282 H 0.16 0.03991 0.85679 0.0
H1283 H 0.27029 0.08963 0.85231 0.0
H1284 H 0.3517 0.09158 0.84429 0.0
H1285 H 0.32885 0.0899 0.87646 0.0
H1286 H 0.40377 0.06853 0.8816 0.0
H1287 H 0.42709 0.07021 0.8496 0.0
H1288 H 0.39649 0.05368 0.86083 0.0
H1289 H 0.19067 0.04284 0.81066 0.0
H1290 H 0.24714 0.04595 0.77057 0.0
H1291 H 0.38136 0.07303 0.80741 0.0
C1292 C 0.27424 0.06249 0.89706 0.0
C1293 C 0.22961 0.05384 0.90889 0.0
C1294 C 0.18772 0.04582 0.8942 0.0
C1295 C 0.19102 0.04629 0.86801 0.0
C1296 C 0.2363 0.05487 0.85694 0.0
C1297 C 0.27718 0.06278 0.87115 0.0
C1298 C 0.32543 0.07015 0.85531 0.0
C1299 C 0.31862 0.08627 0.85721 0.0
C1300 C 0.39209 0.06534 0.86224 0.0
C1301 C 0.30661 0.0649 0.82989 0.0
C1302 C 0.25444 0.05631 0.83094 0.0
C1303 C 0.23105 0.04969 0.80964 0.0
C1304 C 0.26305 0.05157 0.78694 0.0
C1305 C 0.3182 0.05978 0.78602 0.0
C1306 C 0.33895 0.06678 0.80762 0.0
H1307 H 0.97255 0.18268 0.91341 0.0
H1308 H 0.13485 0.2089 0.89963 0.0
H1309 H 0.12095 0.2053 0.85409 0.0
H1310 H 0.99231 0.15798 0.86035 0.0
H1311 H 0.90902 0.15731 0.85529 0.0
H1312 H 0.93937 0.15991 0.88626 0.0
H1313 H 0.87349 0.1828 0.8906 0.0
H1314 H 0.84289 0.18024 0.85983 0.0
H1315 H 0.88165 0.19654 0.8676 0.0
H1316 H 0.07917 0.20105 0.80963 0.0
H1317 H 0.0113 0.19819 0.77242 0.0
H1318 H 0.87643 0.17547 0.8171 0.0
C1319 C 0.00626 0.18744 0.90093 0.0
C1320 C 0.05492 0.19604 0.91004 0.0
C1321 C 0.09751 0.20217 0.89302 0.0
C1322 C 0.08998 0.20014 0.86716 0.0
C1323 C 0.0401 0.19185 0.85879 0.0
C1324 C 0.99922 0.18557 0.87537 0.0
C1325 C 0.94518 0.17854 0.86224 0.0
C1326 C 0.94659 0.16248 0.86627 0.0
C1327 C 0.88214 0.18492 0.87055 0.0
C1328 C 0.96023 0.18227 0.83561 0.0
C1329 C 0.01585 0.18965 0.83372 0.0
C1330 C 0.03624 0.19506 0.81091 0.0
C1331 C 0.99771 0.19332 0.78984 0.0
C1332 C 0.93918 0.18648 0.79199 0.0
C1333 C 0.92149 0.18054 0.81495 0.0
H1334 H 0.37024 0.17902 0.43189 0.0
H1335 H 0.34438 0.22286 0.45254 0.0
H1336 H 0.30016 0.22784 0.4107 0.0
H1337 H 0.42013 0.18607 0.36915 0.0
H1338 H 0.38277 0.17054 0.35678 0.0
H1339 H 0.40981 0.1707 0.3885 0.0
H1340 H 0.29836 0.16395 0.40337 0.0
H1341 H 0.27069 0.16406 0.37169 0.0
H1342 H 0.23285 0.17493 0.39478 0.0
H1343 H 0.25473 0.22751 0.36661 0.0
H1344 H 0.22971 0.22293 0.32219 0.0
H1345 H 0.29255 0.1797 0.33062 0.0
C1346 C 0.3555 0.18968 0.42754 0.0
C1347 C 0.36037 0.20056 0.4453 0.0
C1348 C 0.34129 0.21442 0.43899 0.0
C1349 C 0.3156 0.21729 0.41542 0.0
C1350 C 0.31029 0.20621 0.39842 0.0
C1351 C 0.33105 0.19276 0.40407 0.0
C1352 C 0.3239 0.18286 0.38221 0.0
C1353 C 0.38796 0.17722 0.37366 0.0
C1354 C 0.27876 0.17074 0.3884 0.0
C1355 C 0.29585 0.19281 0.36328 0.0
C1356 C 0.28706 0.20618 0.37303 0.0
C1357 C 0.26158 0.2171 0.3588 0.0
C1358 C 0.24693 0.21439 0.33372 0.0
C1359 C 0.25903 0.20097 0.32322 0.0
C1360 C 0.28261 0.19003 0.33833 0.0
H1361 H 0.74162 0.03278 0.40392 0.0
H1362 H 0.62208 0.06965 0.39931 0.0
H1363 H 0.6575 0.07372 0.35598 0.0
H1364 H 0.86712 0.04834 0.37651 0.0
H1365 H 0.89518 0.03292 0.36032 0.0
H1366 H 0.85016 0.03096 0.38835 0.0
H1367 H 0.77018 0.01522 0.36513 0.0
H1368 H 0.81553 0.01693 0.337 0.0
H1369 H 0.73378 0.02163 0.33704 0.0
H1370 H 0.71571 0.07514 0.31451 0.0
H1371 H 0.79409 0.07436 0.28033 0.0
H1372 H 0.88066 0.03785 0.31469 0.0
C1373 C 0.7208 0.04135 0.39342 0.0
C1374 C 0.67801 0.05072 0.40469 0.0
C1375 C 0.65403 0.0622 0.39078 0.0
C1376 C 0.67397 0.06459 0.36618 0.0
C1377 C 0.71834 0.05547 0.35592 0.0
C1378 C 0.74136 0.04405 0.36917 0.0
C1379 C 0.79481 0.03697 0.35557 0.0
C1380 C 0.85536 0.03733 0.37111 0.0
C1381 C 0.77752 0.02179 0.34824 0.0
C1382 C 0.79956 0.04638 0.33293 0.0
C1383 C 0.75425 0.0568 0.33304 0.0
C1384 C 0.75104 0.06695 0.31418 0.0
C1385 C 0.79564 0.06646 0.29488 0.0
C1386 C 0.84349 0.05614 0.29508 0.0
C1387 C 0.84478 0.04594 0.31421 0.0
H1388 H 0.71024 0.95412 0.08388 0.0
H1389 H 0.60619 0.91803 0.05657 0.0
H1390 H 0.55361 0.91585 0.09735 0.0
H1391 H 0.73481 0.94175 0.14571 0.0
H1392 H 0.72426 0.95877 0.1601 0.0
H1393 H 0.75253 0.95762 0.1286 0.0
H1394 H 0.66186 0.97381 0.114 0.0
H1395 H 0.63296 0.97487 0.14548 0.0
H1396 H 0.58221 0.96893 0.12083 0.0
H1397 H 0.51947 0.91628 0.14196 0.0
H1398 H 0.50401 0.91976 0.18724 0.0
H1399 H 0.62256 0.95675 0.18495 0.0
C1400 C 0.67641 0.94576 0.08653 0.0
C1401 C 0.66255 0.93617 0.06713 0.0
C1402 C 0.61755 0.92547 0.07119 0.0
C1403 C 0.58734 0.92418 0.09426 0.0
C1404 C 0.6018 0.93382 0.11297 0.0
C1405 C 0.64494 0.94447 0.10935 0.0
C1406 C 0.65224 0.95338 0.13266 0.0
C1407 C 0.71996 0.95284 0.14234 0.0
C1408 C 0.63103 0.96866 0.12795 0.0
C1409 C 0.6077 0.94583 0.15014 0.0
C1410 C 0.57911 0.93457 0.13838 0.0
C1411 C 0.54035 0.92526 0.15122 0.0
C1412 C 0.53162 0.92732 0.17685 0.0
C1413 C 0.56041 0.93876 0.18921 0.0
C1414 C 0.59798 0.94827 0.17561 0.0
H1415 H 0.11982 0.81335 0.0758 0.0
H1416 H 0.24854 0.78531 0.03782 0.0
H1417 H 0.30945 0.78259 0.0769 0.0
H1418 H 0.23765 0.83058 0.11626 0.0
H1419 H 0.18329 0.83175 0.14184 0.0
H1420 H 0.15509 0.83246 0.11025 0.0
H1421 H 0.08056 0.81155 0.11949 0.0
H1422 H 0.10894 0.81066 0.15096 0.0
H1423 H 0.11245 0.79525 0.13133 0.0
H1424 H 0.34737 0.78069 0.12235 0.0
H1425 H 0.36317 0.78142 0.16818 0.0
H1426 H 0.21133 0.81161 0.17454 0.0
C1427 C 0.16175 0.80691 0.07555 0.0
C1428 C 0.17984 0.7996 0.05386 0.0
C1429 C 0.23455 0.79116 0.05423 0.0
C1430 C 0.26914 0.78951 0.07636 0.0
C1431 C 0.24891 0.79659 0.09772 0.0
C1432 C 0.19705 0.80534 0.09725 0.0
C1433 C 0.18292 0.81135 0.12269 0.0
C1434 C 0.1902 0.82749 0.12276 0.0
C1435 C 0.11736 0.80693 0.13163 0.0
C1436 C 0.23369 0.80431 0.13782 0.0
C1437 C 0.27151 0.79583 0.12326 0.0
C1438 C 0.31874 0.78753 0.13379 0.0
C1439 C 0.3273 0.78797 0.15981 0.0
C1440 C 0.28897 0.79668 0.17487 0.0
C1441 C 0.24216 0.80501 0.16353 0.0
H1442 H 0.74589 0.81662 0.66446 0.0
H1443 H 0.83779 0.77588 0.65927 0.0
H1444 H 0.7995 0.77341 0.61583 0.0
H1445 H 0.60916 0.80766 0.63057 0.0
H1446 H 0.60263 0.82461 0.61555 0.0
H1447 H 0.63889 0.82324 0.64572 0.0
H1448 H 0.73933 0.83517 0.62873 0.0
H1449 H 0.70295 0.83679 0.59864 0.0
H1450 H 0.77725 0.82793 0.60158 0.0
H1451 H 0.74772 0.7755 0.5727 0.0
H1452 H 0.69536 0.78272 0.53353 0.0
H1453 H 0.63765 0.82191 0.56842 0.0
C1454 C 0.75854 0.8072 0.65418 0.0
C1455 C 0.79496 0.79644 0.66523 0.0
C1456 C 0.81027 0.78429 0.6511 0.0
C1457 C 0.78839 0.78277 0.6265 0.0
C1458 C 0.75137 0.7935 0.61637 0.0
C1459 C 0.73721 0.80553 0.62979 0.0
C1460 C 0.69707 0.81562 0.61489 0.0
C1461 C 0.63316 0.81791 0.62744 0.0
C1462 C 0.7312 0.82971 0.61071 0.0
C1463 C 0.69055 0.80742 0.5909 0.0
C1464 C 0.72185 0.79466 0.59202 0.0
C1465 C 0.72293 0.78545 0.57173 0.0
C1466 C 0.69268 0.78959 0.54961 0.0
C1467 C 0.66198 0.80283 0.54797 0.0
C1468 C 0.66017 0.81167 0.56911 0.0
H1469 H 0.2635 0.96346 0.59123 0.0
H1470 H 0.09723 0.94466 0.55879 0.0
H1471 H 0.047 0.94429 0.59987 0.0
H1472 H 0.26062 0.94316 0.64736 0.0
H1473 H 0.28698 0.95732 0.66715 0.0
H1474 H 0.309 0.95702 0.63481 0.0
H1475 H 0.26238 0.98208 0.62929 0.0
H1476 H 0.2396 0.98232 0.6616 0.0
H1477 H 0.18195 0.98531 0.63767 0.0
H1478 H 0.01566 0.94463 0.6442 0.0
H1479 H 0.00849 0.94428 0.69007 0.0
H1480 H 0.19327 0.96296 0.69492 0.0
C1481 C 0.21645 0.95935 0.59282 0.0
C1482 C 0.1844 0.95411 0.5717 0.0
C1483 C 0.12297 0.94872 0.57461 0.0
C1484 C 0.0937 0.94853 0.59789 0.0
C1485 C 0.12621 0.95378 0.61828 0.0
C1486 C 0.18634 0.95902 0.61614 0.0
C1487 C 0.21163 0.96326 0.6415 0.0
C1488 C 0.27052 0.95467 0.64809 0.0
C1489 C 0.22464 0.97919 0.64257 0.0
C1490 C 0.15675 0.95931 0.65809 0.0
C1491 C 0.10776 0.95402 0.64421 0.0
C1492 C 0.05336 0.9489 0.65531 0.0
C1493 C 0.04957 0.94879 0.68136 0.0
C1494 C 0.09982 0.95376 0.69604 0.0
C1495 C 0.15344 0.9594 0.68418 0.0
H1496 H 0.42311 0.56656 0.44946 0.0
H1497 H 0.22166 0.56708 0.43982 0.0
H1498 H 0.23546 0.56128 0.39509 0.0
H1499 H 0.46411 0.58233 0.39294 0.0
H1500 H 0.53222 0.5715 0.38765 0.0
H1501 H 0.50598 0.57484 0.41893 0.0
H1502 H 0.49923 0.54794 0.42715 0.0
H1503 H 0.52555 0.54449 0.39585 0.0
H1504 H 0.45305 0.53702 0.40675 0.0
H1505 H 0.27218 0.5581 0.35111 0.0
H1506 H 0.32824 0.55619 0.31106 0.0
H1507 H 0.50583 0.55592 0.35 0.0
C1508 C 0.38184 0.56538 0.43794 0.0
C1509 C 0.32127 0.56739 0.44785 0.0
C1510 C 0.26836 0.56559 0.43243 0.0
C1511 C 0.27583 0.56229 0.40711 0.0
C1512 C 0.3364 0.56053 0.39786 0.0
C1513 C 0.38844 0.56183 0.41289 0.0
C1514 C 0.44844 0.55966 0.39836 0.0
C1515 C 0.49011 0.57287 0.39955 0.0
C1516 C 0.48363 0.54649 0.40758 0.0
C1517 C 0.42223 0.55743 0.37252 0.0
C1518 C 0.35747 0.55797 0.37268 0.0
C1519 C 0.3227 0.55738 0.35082 0.0
C1520 C 0.35492 0.55636 0.32822 0.0
C1521 C 0.42108 0.55576 0.32767 0.0
C1522 C 0.45517 0.55605 0.35009 0.0
H1523 H 0.81562 0.69143 0.34282 0.0
H1524 H 0.6463 0.71621 0.35148 0.0
H1525 H 0.66869 0.71862 0.3967 0.0
H1526 H 0.81282 0.6735 0.40361 0.0
H1527 H 0.89661 0.67466 0.4067 0.0
H1528 H 0.86172 0.67328 0.37626 0.0
H1529 H 0.91856 0.69616 0.3626 0.0
H1530 H 0.95354 0.69761 0.3929 0.0
H1531 H 0.90816 0.71206 0.38058 0.0
H1532 H 0.71649 0.71977 0.44093 0.0
H1533 H 0.78692 0.72095 0.47768 0.0
H1534 H 0.92529 0.69626 0.4379 0.0
C1535 C 0.78228 0.69712 0.35423 0.0
C1536 C 0.72887 0.70353 0.34365 0.0
C1537 C 0.68723 0.7111 0.35925 0.0
C1538 C 0.69958 0.71249 0.38494 0.0
C1539 C 0.75366 0.70623 0.39465 0.0
C1540 C 0.7942 0.6987 0.3796 0.0
C1541 C 0.85212 0.6941 0.39356 0.0
C1542 C 0.85601 0.67792 0.39513 0.0
C1543 C 0.91156 0.70036 0.38171 0.0
C1544 C 0.83905 0.70052 0.41875 0.0
C1545 C 0.78157 0.70724 0.41936 0.0
C1546 C 0.76123 0.71441 0.44064 0.0
C1547 C 0.80131 0.71498 0.46146 0.0
C1548 C 0.86132 0.70865 0.46058 0.0
C1549 C 0.8795 0.70112 0.43912 0.0
H1550 H 0.36905 0.67427 0.94881 0.0
H1551 H 0.30881 0.71326 0.9837 0.0
H1552 H 0.27583 0.72248 0.94259 0.0
H1553 H 0.42969 0.6906 0.89185 0.0
H1554 H 0.40468 0.67607 0.87265 0.0
H1555 H 0.42563 0.67305 0.9047 0.0
H1556 H 0.31727 0.66158 0.91229 0.0
H1557 H 0.29556 0.6648 0.88041 0.0
H1558 H 0.24726 0.67145 0.90531 0.0
H1559 H 0.24054 0.72643 0.89765 0.0
H1560 H 0.22028 0.72603 0.85211 0.0
H1561 H 0.30893 0.68494 0.84728 0.0
C1562 C 0.34996 0.68484 0.94772 0.0
C1563 C 0.34161 0.69308 0.96934 0.0
C1564 C 0.31622 0.70685 0.96726 0.0
C1565 C 0.2969 0.71212 0.94404 0.0
C1566 C 0.3042 0.70356 0.92312 0.0
C1567 C 0.33139 0.69033 0.92472 0.0
C1568 C 0.3344 0.68322 0.89956 0.0
C1569 C 0.40265 0.68059 0.89173 0.0
C1570 C 0.29635 0.66945 0.8994 0.0
C1571 C 0.30393 0.69441 0.88356 0.0
C1572 C 0.28611 0.70602 0.89742 0.0
C1573 C 0.25498 0.71745 0.88659 0.0
C1574 C 0.24321 0.71711 0.86081 0.0
C1575 C 0.26334 0.7055 0.84629 0.0
C1576 C 0.29348 0.694 0.85794 0.0
H1577 H 0.92292 0.56523 0.84517 0.0
H1578 H 0.10202 0.54679 0.86485 0.0
H1579 H 0.06797 0.54539 0.90897 0.0
H1580 H 0.89632 0.58541 0.90273 0.0
H1581 H 0.8138 0.58154 0.90261 0.0
H1582 H 0.85593 0.58282 0.87363 0.0
H1583 H 0.81846 0.55775 0.86139 0.0
H1584 H 0.77627 0.5564 0.89023 0.0
H1585 H 0.83352 0.54318 0.88214 0.0
H1586 H 0.00971 0.54446 0.95057 0.0
H1587 H 0.93133 0.54245 0.98442 0.0
H1588 H 0.79059 0.56066 0.93595 0.0
C1589 C 0.95569 0.56119 0.8588 0.0
C1590 C 0.01539 0.55626 0.85167 0.0
C1591 C 0.05622 0.55073 0.87 0.0
C1592 C 0.03732 0.54994 0.89507 0.0
C1593 C 0.97752 0.55471 0.90139 0.0
C1594 C 0.93738 0.56019 0.88366 0.0
C1595 C 0.87355 0.56334 0.89443 0.0
C1596 C 0.85908 0.57922 0.89328 0.0
C1597 C 0.82248 0.55464 0.88127 0.0
C1598 C 0.88327 0.55849 0.92093 0.0
C1599 C 0.94377 0.55379 0.92483 0.0
C1600 C 0.96246 0.54824 0.94774 0.0
C1601 C 0.91776 0.54719 0.96688 0.0
C1602 C 0.85508 0.55144 0.96276 0.0
C1603 C 0.83828 0.55741 0.93966 0.0
H1604 H 0.60679 0.4312 0.57303 0.0
H1605 H 0.68598 0.47265 0.56028 0.0
H1606 H 0.64579 0.48066 0.60115 0.0
H1607 H 0.46864 0.44179 0.60546 0.0
H1608 H 0.47126 0.42763 0.62785 0.0
H1609 H 0.50447 0.42518 0.59731 0.0
H1610 H 0.61117 0.41836 0.61686 0.0
H1611 H 0.57792 0.42052 0.64744 0.0
H1612 H 0.64739 0.43013 0.63892 0.0
H1613 H 0.59081 0.48453 0.64203 0.0
H1614 H 0.54388 0.48274 0.68405 0.0
H1615 H 0.51052 0.43813 0.67219 0.0
C1616 C 0.61614 0.4419 0.57908 0.0
C1617 C 0.64953 0.45134 0.56379 0.0
C1618 C 0.66116 0.46525 0.57207 0.0
C1619 C 0.63793 0.46992 0.59505 0.0
C1620 C 0.60431 0.46043 0.60965 0.0
C1621 C 0.59497 0.4466 0.60233 0.0
C1622 C 0.56091 0.4383 0.62225 0.0
C1623 C 0.49756 0.43291 0.61263 0.0
C1624 C 0.6018 0.42611 0.63195 0.0
C1625 C 0.55225 0.44965 0.64182 0.0
C1626 C 0.57625 0.46242 0.63392 0.0
C1627 C 0.57232 0.47456 0.64853 0.0
C1628 C 0.5451 0.47349 0.67222 0.0
C1629 C 0.52365 0.46032 0.68118 0.0
C1630 C 0.52654 0.44832 0.66566 0.0
H1631 H 0.06108 0.29536 0.58003 0.0
H1632 H 0.15188 0.33142 0.54613 0.0
H1633 H 0.21016 0.33567 0.58547 0.0
H1634 H 0.03973 0.30965 0.63938 0.0
H1635 H 0.05503 0.29339 0.65572 0.0
H1636 H 0.02453 0.29294 0.62454 0.0
H1637 H 0.117 0.2772 0.61123 0.0
H1638 H 0.14971 0.27782 0.64211 0.0
H1639 H 0.19624 0.2832 0.61577 0.0
H1640 H 0.24511 0.33783 0.63069 0.0
H1641 H 0.26113 0.33644 0.67642 0.0
H1642 H 0.15642 0.29742 0.67866 0.0
C1643 C 0.09369 0.30409 0.58082 0.0
C1644 C 0.10178 0.31318 0.56027 0.0
C1645 C 0.14524 0.32437 0.56178 0.0
C1646 C 0.1784 0.32683 0.584 0.0
C1647 C 0.16855 0.31776 0.60413 0.0
C1648 C 0.12794 0.30646 0.60252 0.0
C1649 C 0.12406 0.29845 0.62683 0.0
C1650 C 0.05688 0.29863 0.63722 0.0
C1651 C 0.14828 0.28327 0.62379 0.0
C1652 C 0.16768 0.30718 0.6427 0.0
C1653 C 0.19258 0.31836 0.6294 0.0
C1654 C 0.22765 0.32887 0.64106 0.0
C1655 C 0.23662 0.32801 0.66694 0.0
C1656 C 0.21194 0.31655 0.68063 0.0
C1657 C 0.17817 0.30591 0.66828 0.0
H1658 H 0.59832 0.32263 0.06647 0.0
H1659 H 0.5577 0.27847 0.05303 0.0
H1660 H 0.62036 0.27192 0.09009 0.0
H1661 H 0.75446 0.31856 0.0865 0.0
H1662 H 0.75015 0.33187 0.11043 0.0
H1663 H 0.70071 0.33313 0.08337 0.0
H1664 H 0.60191 0.33413 0.11134 0.0
H1665 H 0.65118 0.33326 0.13848 0.0
H1666 H 0.58955 0.32053 0.13429 0.0
H1667 H 0.69464 0.27027 0.12725 0.0
H1668 H 0.75705 0.27394 0.16564 0.0
H1669 H 0.74401 0.3192 0.15524 0.0
C1670 C 0.60166 0.3116 0.07161 0.0
C1671 C 0.57302 0.30105 0.057 0.0
C1672 C 0.57862 0.28673 0.0642 0.0
C1673 C 0.61473 0.2829 0.08503 0.0
C1674 C 0.64416 0.29355 0.09858 0.0
C1675 C 0.63661 0.30763 0.09248 0.0
C1676 C 0.67145 0.31711 0.11039 0.0
C1677 C 0.7222 0.32567 0.09685 0.0
C1678 C 0.6258 0.32682 0.12446 0.0
C1679 C 0.70015 0.30619 0.12748 0.0
C1680 C 0.68487 0.29264 0.12018 0.0
C1681 C 0.70661 0.28084 0.13318 0.0
C1682 C 0.74266 0.283 0.15476 0.0
C1683 C 0.7556 0.29683 0.16321 0.0
C1684 C 0.73515 0.30851 0.14905 0.0
H1685 H 0.01315 0.43963 0.15464 0.0
H1686 H 0.8989 0.47745 0.15178 0.0
H1687 H 0.92647 0.48044 0.10712 0.0
H1688 H 0.13623 0.45173 0.11697 0.0
H1689 H 0.14926 0.43499 0.10189 0.0
H1690 H 0.11774 0.43553 0.13295 0.0
H1691 H 0.02162 0.4209 0.11887 0.0
H1692 H 0.05353 0.42004 0.08789 0.0
H1693 H 0.97571 0.42686 0.09274 0.0
H1694 H 0.97325 0.4797 0.06288 0.0
H1695 H 0.02375 0.47381 0.02261 0.0
H1696 H 0.1056 0.43643 0.05599 0.0
C1697 C 0.99319 0.44846 0.14458 0.0
C1698 C 0.9539 0.45832 0.15658 0.0
C1699 C 0.92867 0.46971 0.1428 0.0
C1700 C 0.94452 0.47155 0.11753 0.0
C1701 C 0.98516 0.46182 0.10647 0.0
C1702 C 0.00819 0.45038 0.11956 0.0
C1703 C 0.05079 0.44134 0.10375 0.0
C1704 C 0.11744 0.44088 0.11454 0.0
C1705 C 0.02377 0.4264 0.10062 0.0
C1706 C 0.0488 0.44949 0.07963 0.0
C1707 C 0.01114 0.46133 0.08146 0.0
C1708 C 0.00268 0.47043 0.06131 0.0
C1709 C 0.03196 0.46708 0.03858 0.0
C1710 C 0.06875 0.4547 0.03625 0.0
C1711 C 0.07795 0.446 0.05722 0.0
H1712 H 0.17523 0.16266 0.99298 0.0
H1713 H 0.97839 0.15804 0.01104 0.0
H1714 H 0.99367 0.13237 0.01616 0.0
H1715 H 0.1881 0.13212 0.95661 0.0
H1716 H 0.26576 0.12747 0.96683 0.0
H1717 H 0.24115 0.14564 0.9671 0.0
H1718 H 0.26824 0.14739 0.014 0.0
H1719 H 0.29313 0.1292 0.01389 0.0
H1720 H 0.23413 0.13502 0.03558 0.0
H1721 H 0.02741 0.10729 0.01553 0.0
H1722 H 0.0774 0.08411 0.00956 0.0
H1723 H 0.2536 0.10461 0.99246 0.0
C1724 C 0.13555 0.15627 0.99843 0.0
C1725 C 0.07557 0.16234 0.00172 0.0
C1726 C 0.02471 0.15362 0.00851 0.0
C1727 C 0.033 0.13904 0.01152 0.0
C1728 C 0.09249 0.13337 0.00778 0.0
C1729 C 0.14303 0.14169 0.0015 0.0
C1730 C 0.20117 0.13281 0.99711 0.0
C1731 C 0.22544 0.13462 0.97032 0.0
C1732 C 0.25218 0.13632 0.01629 0.0
C1733 C 0.17501 0.11814 0.00128 0.0
C1734 C 0.1123 0.11877 0.0076 0.0
C1735 C 0.07662 0.10666 0.01091 0.0
C1736 C 0.10543 0.09355 0.00737 0.0
C1737 C 0.16939 0.09259 0.00066 0.0
C1738 C 0.20491 0.10506 0.99798 0.0
H1739 H 0.13183 0.15692 0.24459 0.0
H1740 H 0.32982 0.14695 0.24705 0.0
H1741 H 0.30409 0.1215 0.25071 0.0
H1742 H 0.08095 0.13107 0.28857 0.0
H1743 H 0.00968 0.12718 0.27202 0.0
H1744 H 0.0442 0.14445 0.26968 0.0
H1745 H 0.04741 0.14221 0.22159 0.0
H1746 H 0.01234 0.125 0.22376 0.0
H1747 H 0.0856 0.1272 0.20761 0.0
H1748 H 0.25455 0.09687 0.2549 0.0
H1749 H 0.18688 0.07562 0.25595 0.0
H1750 H 0.02274 0.10237 0.24998 0.0
C1751 C 0.16995 0.1494 0.24583 0.0
C1752 C 0.23289 0.15391 0.24556 0.0
C1753 C 0.28127 0.14372 0.24713 0.0
C1754 C 0.26705 0.12926 0.24934 0.0
C1755 C 0.20426 0.1252 0.24983 0.0
C1756 C 0.15663 0.13502 0.24789 0.0
C1757 C 0.09301 0.12807 0.24834 0.0
C1758 C 0.05473 0.13298 0.27101 0.0
C1759 C 0.05753 0.13078 0.22387 0.0
C1760 C 0.11198 0.11275 0.25079 0.0
C1761 C 0.17625 0.11125 0.25184 0.0
C1762 C 0.2042 0.09797 0.25406 0.0
C1763 C 0.16545 0.08597 0.25477 0.0
C1764 C 0.09959 0.08734 0.25306 0.0
C1765 C 0.07291 0.10095 0.25134 0.0
H1766 H 0.88494 0.83333 0.99323 0.0
H1767 H 0.07845 0.84529 0.00533 0.0
H1768 H 0.04713 0.87022 0.00839 0.0
H1769 H 0.84731 0.86329 0.95421 0.0
H1770 H 0.76895 0.86542 0.96604 0.0
H1771 H 0.80524 0.84824 0.96605 0.0
H1772 H 0.78554 0.84606 0.01346 0.0
H1773 H 0.74914 0.86323 0.01359 0.0
H1774 H 0.81404 0.85962 0.03406 0.0
H1775 H 0.99668 0.89367 0.01071 0.0
H1776 H 0.93006 0.91486 0.00957 0.0
H1777 H 0.76823 0.8888 0.9934 0.0
C1778 C 0.92044 0.84122 0.99671 0.0
C1779 C 0.9842 0.83734 0.99918 0.0
C1780 C 0.02944 0.84799 0.00334 0.0
C1781 C 0.0121 0.8622 0.00519 0.0
C1782 C 0.94925 0.86572 0.00251 0.0
C1783 C 0.90398 0.85562 0.99814 0.0
C1784 C 0.84013 0.86254 0.99492 0.0
C1785 C 0.81387 0.8597 0.96875 0.0
C1786 C 0.79452 0.85757 0.01522 0.0
C1787 C 0.85685 0.87804 0.99825 0.0
C1788 C 0.92006 0.87953 0.00286 0.0
C1789 C 0.94712 0.89267 0.00702 0.0
C1790 C 0.90876 0.90465 0.00639 0.0
C1791 C 0.84392 0.90354 0.00133 0.0
C1792 C 0.81768 0.89001 0.99716 0.0
H1793 H 0.95248 0.84098 0.72524 0.0
H1794 H 0.85507 0.8385 0.79593 0.0
H1795 H 0.91397 0.85927 0.81106 0.0
H1796 H 0.10203 0.85212 0.74841 0.0
H1797 H 0.11665 0.86423 0.72319 0.0
H1798 H 0.06859 0.84889 0.71813 0.0
H1799 H 0.97785 0.86474 0.70242 0.0
H1800 H 0.02605 0.88008 0.70698 0.0
H1801 H 0.95042 0.87904 0.72171 0.0
H1802 H 0.98639 0.8798 0.81887 0.0
H1803 H 0.05261 0.90108 0.81645 0.0
H1804 H 0.09768 0.89112 0.73966 0.0
C1805 C 0.94341 0.84487 0.74386 0.0
C1806 C 0.89942 0.83816 0.75949 0.0
C1807 C 0.88831 0.84358 0.78364 0.0
C1808 C 0.92199 0.85527 0.79246 0.0
C1809 C 0.96591 0.86151 0.77674 0.0
C1810 C 0.97565 0.85669 0.75275 0.0
C1811 C 0.0226 0.86582 0.73909 0.0
C1812 C 0.08092 0.85725 0.73178 0.0
C1813 C 0.99241 0.87284 0.7162 0.0
C1814 C 0.0377 0.87655 0.75911 0.0
C1815 C 0.0055 0.8737 0.78085 0.0
C1816 C 0.0117 0.88216 0.80193 0.0
C1817 C 0.04988 0.89416 0.80044 0.0
C1818 C 0.08047 0.89772 0.7779 0.0
C1819 C 0.07526 0.8886 0.75719 0.0
H1820 H 0.0493 0.6686 0.50913 0.0
H1821 H 0.20795 0.69704 0.50916 0.0
H1822 H 0.27984 0.67654 0.5124 0.0
H1823 H 0.10806 0.64406 0.55295 0.0
H1824 H 0.07639 0.62883 0.53734 0.0
H1825 H 0.03833 0.6457 0.53428 0.0
H1826 H 0.04677 0.64404 0.48622 0.0
H1827 H 0.08439 0.6271 0.48912 0.0
H1828 H 0.12212 0.64108 0.47205 0.0
H1829 H 0.33377 0.6525 0.51813 0.0
H1830 H 0.36445 0.62733 0.5224 0.0
H1831 H 0.16939 0.6152 0.51708 0.0
C1832 C 0.09921 0.67053 0.50962 0.0
C1833 C 0.12312 0.6844 0.50893 0.0
C1834 C 0.1887 0.68648 0.50955 0.0
C1835 C 0.2298 0.67491 0.51149 0.0
C1836 C 0.20451 0.66134 0.51252 0.0
C1837 C 0.14066 0.65915 0.51129 0.0
C1838 C 0.12485 0.64362 0.51265 0.0
C1839 C 0.08454 0.64037 0.53568 0.0
C1840 C 0.09265 0.63867 0.48857 0.0
C1841 C 0.18967 0.63736 0.51511 0.0
C1842 C 0.23519 0.6477 0.51515 0.0
C1843 C 0.29846 0.64433 0.51791 0.0
C1844 C 0.31547 0.63003 0.52043 0.0
C1845 C 0.26938 0.61932 0.51996 0.0
C1846 C 0.20582 0.62313 0.51733 0.0
H1847 H 0.13693 0.66285 0.76318 0.0
H1848 H 0.33842 0.65759 0.76014 0.0
H1849 H 0.32505 0.63163 0.76185 0.0
H1850 H 0.10575 0.63568 0.80595 0.0
H1851 H 0.03411 0.63008 0.79131 0.0
H1852 H 0.0595 0.64811 0.78839 0.0
H1853 H 0.05558 0.64607 0.74028 0.0
H1854 H 0.02958 0.62807 0.74305 0.0
H1855 H 0.09832 0.63213 0.725 0.0
H1856 H 0.2891 0.60633 0.76707 0.0
H1857 H 0.23376 0.58364 0.77235 0.0
H1858 H 0.05569 0.60567 0.77067 0.0
C1859 C 0.17829 0.65624 0.76259 0.0
C1860 C 0.23878 0.6622 0.76155 0.0
C1861 C 0.29168 0.65321 0.76081 0.0
C1862 C 0.2845 0.63848 0.76185 0.0
C1863 C 0.22411 0.63296 0.76334 0.0
C1864 C 0.17193 0.64158 0.76338 0.0
C1865 C 0.11221 0.63309 0.76543 0.0
C1866 C 0.07577 0.63697 0.78919 0.0
C1867 C 0.07154 0.63495 0.74204 0.0
C1868 C 0.13885 0.61832 0.76701 0.0
C1869 C 0.20347 0.61846 0.76581 0.0
C1870 C 0.23852 0.6061 0.76779 0.0
C1871 C 0.20667 0.59328 0.7709 0.0
C1872 C 0.14045 0.59291 0.77188 0.0
C1873 C 0.10631 0.60562 0.76984 0.0
H1874 H 0.83308 0.40735 0.49206 0.0
H1875 H 0.63645 0.39626 0.4952 0.0
H1876 H 0.66511 0.37101 0.49874 0.0
H1877 H 0.88109 0.37787 0.45458 0.0
H1878 H 0.95511 0.37582 0.47024 0.0
H1879 H 0.91865 0.39294 0.46853 0.0
H1880 H 0.92323 0.39501 0.51663 0.0
H1881 H 0.95952 0.37787 0.51849 0.0
H1882 H 0.88855 0.38138 0.53554 0.0
H1883 H 0.71651 0.34677 0.5026 0.0
H1884 H 0.78592 0.32577 0.50405 0.0
H1885 H 0.94773 0.35304 0.49703 0.0
C1886 C 0.79601 0.39962 0.49353 0.0
C1887 C 0.73252 0.40377 0.49344 0.0
C1888 C 0.68543 0.39331 0.49522 0.0
C1889 C 0.70126 0.37895 0.4973 0.0
C1890 C 0.76439 0.37522 0.49741 0.0
C1891 C 0.81095 0.38527 0.49539 0.0
C1892 C 0.87519 0.37853 0.49535 0.0
C1893 C 0.90951 0.38146 0.47071 0.0
C1894 C 0.91388 0.38349 0.51784 0.0
C1895 C 0.85765 0.36312 0.4977 0.0
C1896 C 0.79359 0.36138 0.49904 0.0
C1897 C 0.76674 0.34803 0.50149 0.0
C1898 C 0.80644 0.33617 0.50236 0.0
C1899 C 0.87212 0.33777 0.50057 0.0
C1900 C 0.89768 0.35145 0.49832 0.0
H1901 H 0.77975 0.35346 0.24196 0.0
H1902 H 0.96522 0.33479 0.24171 0.0
H1903 H 0.01227 0.35853 0.24385 0.0
H1904 H 0.81802 0.38232 0.20236 0.0
H1905 H 0.76817 0.39479 0.21817 0.0
H1906 H 0.74898 0.3763 0.21843 0.0
H1907 H 0.74668 0.37658 0.26669 0.0
H1908 H 0.76595 0.39509 0.26657 0.0
H1909 H 0.8141 0.38279 0.28359 0.0
H1910 H 0.03935 0.38433 0.24543 0.0
H1911 H 0.04412 0.41042 0.24366 0.0
H1912 H 0.84137 0.41219 0.241 0.0
C1913 C 0.83021 0.35439 0.24262 0.0
C1914 C 0.86889 0.34232 0.2418 0.0
C1915 C 0.93476 0.34393 0.2423 0.0
C1916 C 0.96193 0.35735 0.24362 0.0
C1917 C 0.92259 0.36907 0.24423 0.0
C1918 C 0.85817 0.36774 0.24358 0.0
C1919 C 0.82662 0.38205 0.24307 0.0
C1920 C 0.7882 0.38397 0.21907 0.0
C1921 C 0.78594 0.38425 0.26637 0.0
C1922 C 0.88333 0.3916 0.24335 0.0
C1923 C 0.93824 0.38392 0.24434 0.0
C1924 C 0.99665 0.39046 0.24467 0.0
C1925 C 0.99895 0.40526 0.2437 0.0
C1926 C 0.9432 0.41328 0.24212 0.0
C1927 C 0.88481 0.40632 0.24212 0.0
H1928 H 0.67008 0.1016 0.47873 0.0
H1929 H 0.63272 0.08112 0.54941 0.0
H1930 H 0.57077 0.10179 0.56284 0.0
H1931 H 0.67825 0.1384 0.50365 0.0
H1932 H 0.64111 0.14543 0.47618 0.0
H1933 H 0.68951 0.12989 0.47396 0.0
H1934 H 0.59721 0.11649 0.45353 0.0
H1935 H 0.54801 0.13183 0.45628 0.0
H1936 H 0.52359 0.11532 0.46978 0.0
H1937 H 0.50042 0.12335 0.56598 0.0
H1938 H 0.43937 0.14543 0.56064 0.0
H1939 H 0.52462 0.15155 0.48814 0.0
C1940 C 0.65071 0.10167 0.49737 0.0
C1941 C 0.65651 0.0898 0.51307 0.0
C1942 C 0.62953 0.09018 0.53718 0.0
C1943 C 0.59385 0.10184 0.54491 0.0
C1944 C 0.58639 0.11308 0.52844 0.0
C1945 C 0.61531 0.11322 0.50539 0.0
C1946 C 0.59747 0.1262 0.49063 0.0
C1947 C 0.65501 0.13553 0.48583 0.0
C1948 C 0.56462 0.12221 0.46612 0.0
C1949 C 0.55259 0.13314 0.50862 0.0
C1950 C 0.54668 0.12546 0.53035 0.0
C1951 C 0.50544 0.12956 0.54919 0.0
C1952 C 0.47053 0.14201 0.54592 0.0
C1953 C 0.47738 0.15017 0.52402 0.0
C1954 C 0.51862 0.14556 0.50515 0.0
H1955 H 0.62091 0.09118 0.72961 0.0
H1956 H 0.43171 0.10549 0.74466 0.0
H1957 H 0.47085 0.12951 0.75262 0.0
H1958 H 0.70027 0.11353 0.77506 0.0
H1959 H 0.76586 0.11718 0.75499 0.0
H1960 H 0.724 0.10078 0.75198 0.0
H1961 H 0.70424 0.106 0.70529 0.0
H1962 H 0.74621 0.12238 0.70815 0.0
H1963 H 0.6672 0.12236 0.69644 0.0
H1964 H 0.52956 0.15204 0.75886 0.0
H1965 H 0.60332 0.17208 0.7594 0.0
H1966 H 0.75424 0.14386 0.7381 0.0
C1967 C 0.58797 0.09937 0.73478 0.0
C1968 C 0.52326 0.09644 0.73663 0.0
C1969 C 0.48144 0.10748 0.74307 0.0
C1970 C 0.50324 0.12116 0.74776 0.0
C1971 C 0.56709 0.12375 0.74569 0.0
C1972 C 0.6089 0.11323 0.73911 0.0
C1973 C 0.67465 0.11913 0.73677 0.0
C1974 C 0.7188 0.11224 0.75584 0.0
C1975 C 0.69952 0.11736 0.71007 0.0
C1976 C 0.66303 0.13456 0.74296 0.0
C1977 C 0.60076 0.13694 0.74839 0.0
C1978 C 0.57848 0.15032 0.75463 0.0
C1979 C 0.62075 0.16164 0.75497 0.0
C1980 C 0.68448 0.15956 0.7488 0.0
C1981 C 0.70578 0.14579 0.74292 0.0
H1982 H 0.41485 0.92167 0.49737 0.0
H1983 H 0.22847 0.90535 0.4838 0.0
H1984 H 0.27277 0.88139 0.4782 0.0
H1985 H 0.49268 0.89992 0.45144 0.0
H1986 H 0.56236 0.89764 0.4699 0.0
H1987 H 0.51588 0.9134 0.47324 0.0
H1988 H 0.50542 0.9087 0.52057 0.0
H1989 H 0.55189 0.89293 0.5174 0.0
H1990 H 0.47508 0.892 0.53115 0.0
H1991 H 0.33707 0.85913 0.47581 0.0
H1992 H 0.41683 0.84029 0.47437 0.0
H1993 H 0.56263 0.87126 0.487 0.0
C1994 C 0.38331 0.91304 0.49331 0.0
C1995 C 0.31807 0.91533 0.49122 0.0
C1996 C 0.27849 0.90382 0.48553 0.0
C1997 C 0.30326 0.89019 0.48234 0.0
C1998 C 0.36779 0.88829 0.48456 0.0
C1999 C 0.40736 0.89943 0.48968 0.0
C2000 C 0.47509 0.89461 0.49057 0.0
C2001 C 0.51377 0.90182 0.47006 0.0
C2002 C 0.50352 0.89721 0.51646 0.0
C2003 C 0.46748 0.87897 0.48544 0.0
C2004 C 0.40512 0.87556 0.48218 0.0
C2005 C 0.38602 0.86171 0.47812 0.0
C2006 C 0.43171 0.85108 0.47739 0.0
C2007 C 0.49595 0.85432 0.48042 0.0
C2008 C 0.51397 0.86849 0.48434 0.0
H2009 H 0.55886 0.88849 0.27067 0.0
H2010 H 0.4023 0.91386 0.29611 0.0
H2011 H 0.33673 0.89252 0.29867 0.0
H2012 H 0.47267 0.86705 0.2312 0.0
H2013 H 0.51568 0.85103 0.23723 0.0
H2014 H 0.55336 0.86786 0.24085 0.0
H2015 H 0.58236 0.8616 0.28641 0.0
H2016 H 0.54518 0.84466 0.28285 0.0
H2017 H 0.52174 0.85627 0.30775 0.0
H2018 H 0.28518 0.8689 0.29463 0.0
H2019 H 0.25203 0.84456 0.28451 0.0
H2020 H 0.44122 0.83468 0.26084 0.0
C2021 C 0.51134 0.88946 0.27746 0.0
C2022 C 0.48574 0.90278 0.2834 0.0
C2023 C 0.42286 0.90372 0.29157 0.0
C2024 C 0.38527 0.89166 0.29314 0.0
C2025 C 0.41124 0.87873 0.28646 0.0
C2026 C 0.47293 0.87752 0.27892 0.0
C2027 C 0.48778 0.86257 0.27084 0.0
C2028 C 0.50857 0.86211 0.2434 0.0
C2029 C 0.53719 0.85588 0.28799 0.0
C2030 C 0.42447 0.8557 0.27435 0.0
C2031 C 0.38114 0.86514 0.28369 0.0
C2032 C 0.31886 0.86136 0.28757 0.0
C2033 C 0.30039 0.84754 0.28171 0.0
C2034 C 0.34398 0.83776 0.27189 0.0
C2035 C 0.40682 0.84192 0.26837 0.0
H2036 H 0.50733 0.63882 0.03217 0.0
H2037 H 0.31766 0.62288 0.0367 0.0
H2038 H 0.35738 0.59857 0.02984 0.0
H2039 H 0.56199 0.61566 0.98439 0.0
H2040 H 0.6388 0.61359 0.99774 0.0
H2041 H 0.59518 0.62958 0.00304 0.0
H2042 H 0.60578 0.62614 0.05073 0.0
H2043 H 0.64982 0.61019 0.04558 0.0
H2044 H 0.58045 0.6098 0.06464 0.0
H2045 H 0.41937 0.57586 0.02095 0.0
H2046 H 0.49775 0.55691 0.01417 0.0
H2047 H 0.64616 0.58801 0.01699 0.0
C2048 C 0.47404 0.63022 0.0318 0.0
C2049 C 0.40928 0.63276 0.03492 0.0
C2050 C 0.36745 0.62119 0.03443 0.0
C2051 C 0.38962 0.60735 0.03044 0.0
C2052 C 0.45381 0.60525 0.02719 0.0
C2053 C 0.49539 0.61639 0.0281 0.0
C2054 C 0.56217 0.6114 0.02454 0.0
C2055 C 0.59122 0.61795 0.00103 0.0
C2056 C 0.60188 0.61457 0.04776 0.0
C2057 C 0.55194 0.59569 0.02136 0.0
C2058 C 0.48915 0.59231 0.02274 0.0
C2059 C 0.46863 0.57841 0.01997 0.0
C2060 C 0.51344 0.56772 0.01602 0.0
C2061 C 0.57808 0.57096 0.01508 0.0
C2062 C 0.59714 0.58516 0.01768 0.0
H2063 H 0.60022 0.66235 0.24828 0.0
H2064 H 0.79959 0.65508 0.25631 0.0
H2065 H 0.78188 0.62932 0.25251 0.0
H2066 H 0.54879 0.63403 0.2837 0.0
H2067 H 0.48277 0.62977 0.26424 0.0
H2068 H 0.51184 0.64756 0.26521 0.0
H2069 H 0.52618 0.64738 0.21729 0.0
H2070 H 0.49669 0.62959 0.21613 0.0
H2071 H 0.57213 0.63363 0.20297 0.0
H2072 H 0.74065 0.60454 0.25305 0.0
H2073 H 0.6803 0.58238 0.25492 0.0
H2074 H 0.50805 0.60587 0.24426 0.0
C2075 C 0.64029 0.65535 0.24889 0.0
C2076 C 0.70129 0.66062 0.2527 0.0
C2077 C 0.75257 0.65119 0.25332 0.0
C2078 C 0.7429 0.63659 0.25119 0.0
C2079 C 0.68186 0.6317 0.24797 0.0
C2080 C 0.63154 0.64082 0.24643 0.0
C2081 C 0.57041 0.6329 0.2438 0.0
C2082 C 0.52587 0.63626 0.26554 0.0
C2083 C 0.53954 0.63606 0.21854 0.0
C2084 C 0.59386 0.61784 0.24503 0.0
C2085 C 0.65832 0.61739 0.24736 0.0
C2086 C 0.69036 0.60474 0.25076 0.0
C2087 C 0.65566 0.59224 0.25193 0.0
C2088 C 0.58968 0.59246 0.24954 0.0
C2089 C 0.55855 0.60541 0.24569 0.0
H2090 H 0.18042 0.38817 0.97301 0.0
H2091 H 0.3161 0.42151 0.96125 0.0
H2092 H 0.40163 0.40408 0.96274 0.0
H2093 H 0.27328 0.36882 0.0171 0.0
H2094 H 0.24915 0.35166 0.00628 0.0
H2095 H 0.19757 0.36659 0.00286 0.0
H2096 H 0.19035 0.36194 0.95542 0.0
H2097 H 0.24174 0.34697 0.95872 0.0
H2098 H 0.26112 0.36091 0.93724 0.0
H2099 H 0.47314 0.38317 0.96547 0.0
H2100 H 0.5258 0.36011 0.97095 0.0
H2101 H 0.34556 0.34029 0.98318 0.0
C2102 C 0.22809 0.39173 0.9705 0.0
C2103 C 0.24153 0.4062 0.96688 0.0
C2104 C 0.30463 0.4105 0.96406 0.0
C2105 C 0.35363 0.40067 0.96482 0.0
C2106 C 0.33912 0.38653 0.96868 0.0
C2107 C 0.278 0.38204 0.9716 0.0
C2108 C 0.27588 0.36626 0.97653 0.0
C2109 C 0.24728 0.36316 0.00222 0.0
C2110 C 0.24015 0.35857 0.95573 0.0
C2111 C 0.34516 0.36266 0.97593 0.0
C2112 C 0.38074 0.3745 0.97115 0.0
C2113 C 0.4458 0.37382 0.96931 0.0
C2114 C 0.47534 0.36069 0.97245 0.0
C2115 C 0.43996 0.34843 0.97767 0.0
C2116 C 0.37399 0.3495 0.97945 0.0
H2117 H 0.34198 0.42056 0.7565 0.0
H2118 H 0.51868 0.40934 0.79108 0.0
H2119 H 0.47829 0.38533 0.7993 0.0
H2120 H 0.24145 0.39996 0.79824 0.0
H2121 H 0.18865 0.39499 0.7736 0.0
H2122 H 0.22979 0.41156 0.77203 0.0
H2123 H 0.27487 0.40463 0.72892 0.0
H2124 H 0.23375 0.3881 0.73031 0.0
H2125 H 0.31726 0.38827 0.72566 0.0
H2126 H 0.42193 0.36224 0.80089 0.0
H2127 H 0.35457 0.3414 0.79518 0.0
H2128 H 0.21303 0.36762 0.76027 0.0
C2129 C 0.37202 0.41309 0.76601 0.0
C2130 C 0.43354 0.4168 0.77317 0.0
C2131 C 0.47144 0.40672 0.78546 0.0
C2132 C 0.4488 0.39309 0.79028 0.0
C2133 C 0.38805 0.38977 0.78285 0.0
C2134 C 0.35011 0.39948 0.77102 0.0
C2135 C 0.28773 0.39303 0.76389 0.0
C2136 C 0.23371 0.40032 0.77777 0.0
C2137 C 0.27786 0.39354 0.73551 0.0
C2138 C 0.29703 0.37804 0.77298 0.0
C2139 C 0.35508 0.37644 0.78405 0.0
C2140 C 0.37613 0.3634 0.79255 0.0
C2141 C 0.33753 0.35163 0.78919 0.0
C2142 C 0.27841 0.35294 0.77748 0.0
C2143 C 0.25741 0.36638 0.76974 0.0
loop_
_geom_bond_atom_site_label_1
_geom_bond_atom_site_label_2
_geom_bond_distance
_geom_bond_site_symmetry_2
_ccdc_geom_bond_type
In0 O1 2.296 1_554 S
In0 O2 2.329 1_554 S
In0 O6 2.265 . S
In0 O7 2.323 . S
In0 O8 2.265 . S
In0 O9 2.326 1_554 S
In0 O11 2.293 . S
In0 O12 2.326 1_554 S
O1 In0 2.296 1_556 S
O1 C10 1.240 . S
O2 In0 2.329 1_556 S
O2 C10 1.252 . S
C3 O6 1.252 . S
C3 O7 1.260 . S
C4 O11 1.240 . S
C4 O12 1.245 1_554 S
C5 O8 1.252 . S
C5 O9 1.260 1_554 S
O6 In0 2.265 . S
O6 C3 1.252 . S
O7 In0 2.323 . S
O7 C3 1.260 . S
O8 In0 2.265 . S
O8 C5 1.252 . S
O9 In0 2.326 1_556 S
O9 C5 1.260 1_556 S
C10 O1 1.240 . S
C10 O2 1.252 . S
O11 In0 2.293 . S
O11 C4 1.240 . S
O12 In0 2.326 1_556 S
O12 C4 1.245 1_556 S
In13 O14 2.296 1_654 S
In13 O15 2.329 1_554 S
In13 O19 2.265 1_655 S
In13 O20 2.323 1_655 S
In13 O21 2.265 . S
In13 O22 2.326 1_654 S
In13 O24 2.293 . S
In13 O25 2.326 1_554 S
O14 In13 2.296 1_456 S
O14 C23 1.240 1_455 S
O15 In13 2.329 1_556 S
O15 C23 1.252 . S
C16 O19 1.252 . S
C16 O20 1.260 . S
C17 O24 1.240 . S
C17 O25 1.245 1_554 S
C18 O21 1.252 1_455 S
C18 O22 1.260 1_554 S
O19 In13 2.265 1_455 S
O19 C16 1.252 . S
O20 In13 2.323 1_455 S
O20 C16 1.260 . S
O21 In13 2.265 . S
O21 C18 1.252 1_655 S
O22 In13 2.326 1_456 S
O22 C18 1.260 1_556 S
C23 O14 1.240 1_655 S
C23 O15 1.252 . S
O24 In13 2.293 . S
O24 C17 1.240 . S
O25 In13 2.326 1_556 S
O25 C17 1.245 1_556 S
In26 O27 2.294 . S
In26 O28 2.326 . S
In26 O32 2.266 . S
In26 O33 2.326 . S
In26 O34 2.266 . S
In26 O35 2.326 . S
In26 O37 2.294 . S
In26 O38 2.326 . S
O27 In26 2.294 . S
O27 C36 1.240 . S
O28 In26 2.326 . S
O28 C36 1.252 . S
C29 O32 1.252 . S
C29 O33 1.260 . S
C30 O37 1.240 . S
C30 O38 1.252 . S
C31 O34 1.252 . S
C31 O35 1.260 . S
O32 In26 2.266 . S
O32 C29 1.252 . S
O33 In26 2.326 . S
O33 C29 1.260 . S
O34 In26 2.266 . S
O34 C31 1.252 . S
O35 In26 2.326 . S
O35 C31 1.260 . S
C36 O27 1.240 . S
C36 O28 1.252 . S
O37 In26 2.294 . S
O37 C30 1.240 . S
O38 In26 2.326 . S
O38 C30 1.252 . S
In39 O40 2.303 . S
In39 O41 2.331 . S
In39 O45 2.268 . S
In39 O46 2.319 1_655 S
In39 O47 2.258 1_655 S
In39 O48 2.323 1_655 S
In39 O50 2.291 1_655 S
In39 O51 2.330 . S
O40 In39 2.303 . S
O40 C49 1.240 . S
O41 In39 2.331 . S
O41 C49 1.252 . S
C42 O45 1.252 1_455 S
C42 O46 1.260 . S
C43 O50 1.240 1_655 S
C43 O51 1.252 . S
C44 O47 1.252 . S
C44 O48 1.260 . S
O45 In39 2.268 . S
O45 C42 1.252 1_655 S
O46 In39 2.319 1_455 S
O46 C42 1.260 . S
O47 In39 2.258 1_455 S
O47 C44 1.252 . S
O48 In39 2.323 1_455 S
O48 C44 1.260 . S
C49 O40 1.240 . S
C49 O41 1.252 . S
O50 In39 2.291 1_455 S
O50 C43 1.240 1_455 S
O51 In39 2.330 . S
O51 C43 1.252 . S
In52 O53 2.293 . S
In52 O54 2.326 1_556 S
In52 O58 2.265 . S
In52 O59 2.326 1_556 S
In52 O60 2.265 . S
In52 O61 2.323 . S
In52 O63 2.296 1_556 S
In52 O64 2.329 1_556 S
O53 In52 2.293 . S
O53 C62 1.240 . S
O54 In52 2.326 1_554 S
O54 C62 1.245 1_554 S
C55 O58 1.252 . S
C55 O59 1.260 1_556 S
C56 O63 1.240 . S
C56 O64 1.252 . S
C57 O60 1.252 . S
C57 O61 1.260 . S
O58 In52 2.265 . S
O58 C55 1.252 . S
O59 In52 2.326 1_554 S
O59 C55 1.260 1_554 S
O60 In52 2.265 . S
O60 C57 1.252 . S
O61 In52 2.323 . S
O61 C57 1.260 . S
C62 O53 1.240 . S
C62 O54 1.245 1_556 S
O63 In52 2.296 1_554 S
O63 C56 1.240 . S
O64 In52 2.329 1_554 S
O64 C56 1.252 . S
In65 O66 2.296 1_456 S
In65 O67 2.329 1_556 S
In65 O71 2.265 1_455 S
In65 O72 2.323 1_455 S
In65 O73 2.265 . S
In65 O74 2.326 1_456 S
In65 O76 2.293 . S
In65 O77 2.326 1_556 S
O66 In65 2.296 1_654 S
O66 C75 1.240 1_655 S
O67 In65 2.329 1_554 S
O67 C75 1.252 . S
C68 O71 1.252 . S
C68 O72 1.260 . S
C69 O76 1.240 . S
C69 O77 1.245 1_556 S
C70 O73 1.252 1_655 S
C70 O74 1.260 1_556 S
O71 In65 2.265 1_655 S
O71 C68 1.252 . S
O72 In65 2.323 1_655 S
O72 C68 1.260 . S
O73 In65 2.265 . S
O73 C70 1.252 1_455 S
O74 In65 2.326 1_654 S
O74 C70 1.260 1_554 S
C75 O66 1.240 1_455 S
C75 O67 1.252 . S
O76 In65 2.293 . S
O76 C69 1.240 . S
O77 In65 2.326 1_554 S
O77 C69 1.245 1_554 S
In78 O79 2.294 . S
In78 O80 2.326 . S
In78 O84 2.266 . S
In78 O85 2.326 . S
In78 O86 2.266 . S
In78 O87 2.326 . S
In78 O89 2.294 . S
In78 O90 2.326 . S
O79 In78 2.294 . S
O79 C88 1.240 . S
O80 In78 2.326 . S
O80 C88 1.252 . S
C81 O84 1.252 . S
C81 O85 1.260 . S
C82 O89 1.240 . S
C82 O90 1.252 . S
C83 O86 1.252 . S
C83 O87 1.260 . S
O84 In78 2.266 . S
O84 C81 1.252 . S
O85 In78 2.326 . S
O85 C81 1.260 . S
O86 In78 2.266 . S
O86 C83 1.252 . S
O87 In78 2.326 . S
O87 C83 1.260 . S
C88 O79 1.240 . S
C88 O80 1.252 . S
O89 In78 2.294 . S
O89 C82 1.240 . S
O90 In78 2.326 . S
O90 C82 1.252 . S
In91 O92 2.291 1_455 S
In91 O93 2.330 . S
In91 O97 2.258 1_455 S
In91 O98 2.323 1_455 S
In91 O99 2.268 . S
In91 O100 2.319 1_455 S
In91 O102 2.303 . S
In91 O103 2.331 . S
O92 In91 2.291 1_655 S
O92 C101 1.240 1_655 S
O93 In91 2.330 . S
O93 C101 1.252 . S
C94 O97 1.252 . S
C94 O98 1.260 . S
C95 O102 1.240 . S
C95 O103 1.252 . S
C96 O99 1.252 1_655 S
C96 O100 1.260 . S
O97 In91 2.258 1_655 S
O97 C94 1.252 . S
O98 In91 2.323 1_655 S
O98 C94 1.260 . S
O99 In91 2.268 . S
O99 C96 1.252 1_455 S
O100 In91 2.319 1_655 S
O100 C96 1.260 . S
C101 O92 1.240 1_455 S
C101 O93 1.252 . S
O102 In91 2.303 . S
O102 C95 1.240 . S
O103 In91 2.331 . S
O103 C95 1.252 . S
In104 O105 2.294 . S
In104 O106 2.326 . S
In104 O110 2.266 . S
In104 O111 2.326 . S
In104 O112 2.266 . S
In104 O113 2.326 . S
In104 O115 2.294 . S
In104 O116 2.326 . S
O105 In104 2.294 . S
O105 C114 1.240 . S
O106 In104 2.326 . S
O106 C114 1.252 . S
C107 O110 1.252 . S
C107 O111 1.260 . S
C108 O115 1.240 . S
C108 O116 1.252 . S
C109 O112 1.252 . S
C109 O113 1.260 . S
O110 In104 2.266 . S
O110 C107 1.252 . S
O111 In104 2.326 . S
O111 C107 1.260 . S
O112 In104 2.266 . S
O112 C109 1.252 . S
O113 In104 2.326 . S
O113 C109 1.260 . S
C114 O105 1.240 . S
C114 O106 1.252 . S
O115 In104 2.294 . S
O115 C108 1.240 . S
O116 In104 2.326 . S
O116 C108 1.252 . S
In117 O118 2.294 1_655 S
In117 O119 2.326 . S
In117 O123 2.266 1_655 S
In117 O124 2.326 1_655 S
In117 O125 2.266 . S
In117 O126 2.326 1_655 S
In117 O128 2.294 . S
In117 O129 2.326 . S
O118 In117 2.294 1_455 S
O118 C127 1.240 1_455 S
O119 In117 2.326 . S
O119 C127 1.252 . S
C120 O123 1.252 . S
C120 O124 1.260 . S
C121 O128 1.240 . S
C121 O129 1.252 . S
C122 O125 1.252 1_455 S
C122 O126 1.260 . S
O123 In117 2.266 1_455 S
O123 C120 1.252 . S
O124 In117 2.326 1_455 S
O124 C120 1.260 . S
O125 In117 2.266 . S
O125 C122 1.252 1_655 S
O126 In117 2.326 1_455 S
O126 C122 1.260 . S
C127 O118 1.240 1_655 S
C127 O119 1.252 . S
O128 In117 2.294 . S
O128 C121 1.240 . S
O129 In117 2.326 . S
O129 C121 1.252 . S
In130 O131 2.294 . S
In130 O132 2.326 . S
In130 O136 2.266 . S
In130 O137 2.326 . S
In130 O138 2.266 . S
In130 O139 2.326 . S
In130 O141 2.294 . S
In130 O142 2.326 . S
O131 In130 2.294 . S
O131 C140 1.240 . S
O132 In130 2.326 . S
O132 C140 1.252 . S
C133 O136 1.252 . S
C133 O137 1.260 . S
C134 O141 1.240 . S
C134 O142 1.252 . S
C135 O138 1.252 . S
C135 O139 1.260 . S
O136 In130 2.266 . S
O136 C133 1.252 . S
O137 In130 2.326 . S
O137 C133 1.260 . S
O138 In130 2.266 . S
O138 C135 1.252 . S
O139 In130 2.326 . S
O139 C135 1.260 . S
C140 O131 1.240 . S
C140 O132 1.252 . S
O141 In130 2.294 . S
O141 C134 1.240 . S
O142 In130 2.326 . S
O142 C134 1.252 . S
In143 O144 2.294 1_655 S
In143 O145 2.326 . S
In143 O149 2.266 1_655 S
In143 O150 2.326 1_655 S
In143 O151 2.266 . S
In143 O152 2.326 1_655 S
In143 O154 2.294 . S
In143 O155 2.326 . S
O144 In143 2.294 1_455 S
O144 C153 1.240 1_455 S
O145 In143 2.326 . S
O145 C153 1.252 . S
C146 O149 1.252 . S
C146 O150 1.260 . S
C147 O154 1.240 . S
C147 O155 1.252 . S
C148 O151 1.252 1_455 S
C148 O152 1.260 . S
O149 In143 2.266 1_455 S
O149 C146 1.252 . S
O150 In143 2.326 1_455 S
O150 C146 1.260 . S
O151 In143 2.266 . S
O151 C148 1.252 1_655 S
O152 In143 2.326 1_455 S
O152 C148 1.260 . S
C153 O144 1.240 1_655 S
C153 O145 1.252 . S
O154 In143 2.294 . S
O154 C147 1.240 . S
O155 In143 2.326 . S
O155 C147 1.252 . S
In156 O157 2.294 . S
In156 O158 2.326 . S
In156 O162 2.266 . S
In156 O163 2.326 . S
In156 O164 2.266 . S
In156 O165 2.326 . S
In156 O167 2.294 . S
In156 O168 2.326 . S
O157 In156 2.294 . S
O157 C166 1.240 . S
O158 In156 2.326 . S
O158 C166 1.252 . S
C159 O162 1.252 . S
C159 O163 1.260 . S
C160 O167 1.240 . S
C160 O168 1.252 . S
C161 O164 1.252 . S
C161 O165 1.260 . S
O162 In156 2.266 . S
O162 C159 1.252 . S
O163 In156 2.326 . S
O163 C159 1.260 . S
O164 In156 2.266 . S
O164 C161 1.252 . S
O165 In156 2.326 . S
O165 C161 1.260 . S
C166 O157 1.240 . S
C166 O158 1.252 . S
O167 In156 2.294 . S
O167 C160 1.240 . S
O168 In156 2.326 . S
O168 C160 1.252 . S
In169 O170 2.294 1_455 S
In169 O171 2.326 . S
In169 O175 2.266 1_455 S
In169 O176 2.326 1_455 S
In169 O177 2.266 . S
In169 O178 2.326 1_455 S
In169 O180 2.294 . S
In169 O181 2.326 . S
O170 In169 2.294 1_655 S
O170 C179 1.240 1_655 S
O171 In169 2.326 . S
O171 C179 1.252 . S
C172 O175 1.252 . S
C172 O176 1.260 . S
C173 O180 1.240 . S
C173 O181 1.252 . S
C174 O177 1.252 1_655 S
C174 O178 1.260 . S
O175 In169 2.266 1_655 S
O175 C172 1.252 . S
O176 In169 2.326 1_655 S
O176 C172 1.260 . S
O177 In169 2.266 . S
O177 C174 1.252 1_455 S
O178 In169 2.326 1_655 S
O178 C174 1.260 . S
C179 O170 1.240 1_455 S
C179 O171 1.252 . S
O180 In169 2.294 . S
O180 C173 1.240 . S
O181 In169 2.326 . S
O181 C173 1.252 . S
In182 O183 2.294 . S
In182 O184 2.326 . S
In182 O188 2.266 . S
In182 O189 2.326 . S
In182 O190 2.266 . S
In182 O191 2.326 . S
In182 O193 2.294 . S
In182 O194 2.326 . S
O183 In182 2.294 . S
O183 C192 1.240 . S
O184 In182 2.326 . S
O184 C192 1.252 . S
C185 O188 1.252 . S
C185 O189 1.260 . S
C186 O193 1.240 . S
C186 O194 1.252 . S
C187 O190 1.252 . S
C187 O191 1.260 . S
O188 In182 2.266 . S
O188 C185 1.252 . S
O189 In182 2.326 . S
O189 C185 1.260 . S
O190 In182 2.266 . S
O190 C187 1.252 . S
O191 In182 2.326 . S
O191 C187 1.260 . S
C192 O183 1.240 . S
C192 O184 1.252 . S
O193 In182 2.294 . S
O193 C186 1.240 . S
O194 In182 2.326 . S
O194 C186 1.252 . S
In195 O196 2.294 . S
In195 O197 2.326 . S
In195 O201 2.266 . S
In195 O202 2.326 1_455 S
In195 O203 2.266 1_455 S
In195 O204 2.326 1_455 S
In195 O206 2.294 1_455 S
In195 O207 2.326 . S
O196 In195 2.294 . S
O196 C205 1.240 . S
O197 In195 2.326 . S
O197 C205 1.252 . S
C198 O201 1.252 1_655 S
C198 O202 1.260 . S
C199 O206 1.240 1_455 S
C199 O207 1.252 . S
C200 O203 1.252 . S
C200 O204 1.260 . S
O201 In195 2.266 . S
O201 C198 1.252 1_455 S
O202 In195 2.326 1_655 S
O202 C198 1.260 . S
O203 In195 2.266 1_655 S
O203 C200 1.252 . S
O204 In195 2.326 1_655 S
O204 C200 1.260 . S
C205 O196 1.240 . S
C205 O197 1.252 . S
O206 In195 2.294 1_655 S
O206 C199 1.240 1_655 S
O207 In195 2.326 . S
O207 C199 1.252 . S
In208 O209 2.294 . S
In208 O210 2.326 . S
In208 O214 2.266 . S
In208 O215 2.326 . S
In208 O216 2.266 . S
In208 O217 2.326 . S
In208 O219 2.294 . S
In208 O220 2.326 . S
O209 In208 2.294 . S
O209 C218 1.240 . S
O210 In208 2.326 . S
O210 C218 1.252 . S
C211 O214 1.252 . S
C211 O215 1.260 . S
C212 O219 1.240 . S
C212 O220 1.252 . S
C213 O216 1.252 . S
C213 O217 1.260 . S
O214 In208 2.266 . S
O214 C211 1.252 . S
O215 In208 2.326 . S
O215 C211 1.260 . S
O216 In208 2.266 . S
O216 C213 1.252 . S
O217 In208 2.326 . S
O217 C213 1.260 . S
C218 O209 1.240 . S
C218 O210 1.252 . S
O219 In208 2.294 . S
O219 C212 1.240 . S
O220 In208 2.326 . S
O220 C212 1.252 . S
In221 O222 2.294 . S
In221 O223 2.326 . S
In221 O227 2.266 . S
In221 O228 2.326 . S
In221 O229 2.266 . S
In221 O230 2.326 . S
In221 O232 2.294 . S
In221 O233 2.326 . S
O222 In221 2.294 . S
O222 C231 1.240 . S
O223 In221 2.326 . S
O223 C231 1.252 . S
C224 O227 1.252 . S
C224 O228 1.260 . S
C225 O232 1.240 . S
C225 O233 1.252 . S
C226 O229 1.252 . S
C226 O230 1.260 . S
O227 In221 2.266 . S
O227 C224 1.252 . S
O228 In221 2.326 . S
O228 C224 1.260 . S
O229 In221 2.266 . S
O229 C226 1.252 . S
O230 In221 2.326 . S
O230 C226 1.260 . S
C231 O222 1.240 . S
C231 O223 1.252 . S
O232 In221 2.294 . S
O232 C225 1.240 . S
O233 In221 2.326 . S
O233 C225 1.252 . S
In234 O235 2.294 . S
In234 O236 2.326 . S
In234 O240 2.266 . S
In234 O241 2.326 . S
In234 O242 2.266 . S
In234 O243 2.326 . S
In234 O245 2.294 . S
In234 O246 2.326 . S
O235 In234 2.294 . S
O235 C244 1.240 . S
O236 In234 2.326 . S
O236 C244 1.252 . S
C237 O240 1.252 . S
C237 O241 1.260 . S
C238 O245 1.240 . S
C238 O246 1.252 . S
C239 O242 1.252 . S
C239 O243 1.260 . S
O240 In234 2.266 . S
O240 C237 1.252 . S
O241 In234 2.326 . S
O241 C237 1.260 . S
O242 In234 2.266 . S
O242 C239 1.252 . S
O243 In234 2.326 . S
O243 C239 1.260 . S
C244 O235 1.240 . S
C244 O236 1.252 . S
O245 In234 2.294 . S
O245 C238 1.240 . S
O246 In234 2.326 . S
O246 C238 1.252 . S
In247 O248 2.294 . S
In247 O249 2.326 . S
In247 O253 2.266 . S
In247 O254 2.326 . S
In247 O255 2.266 . S
In247 O256 2.326 . S
In247 O258 2.294 . S
In247 O259 2.326 . S
O248 In247 2.294 . S
O248 C257 1.240 . S
O249 In247 2.326 . S
O249 C257 1.252 . S
C250 O253 1.252 . S
C250 O254 1.260 . S
C251 O258 1.240 . S
C251 O259 1.252 . S
C252 O255 1.252 . S
C252 O256 1.260 . S
O253 In247 2.266 . S
O253 C250 1.252 . S
O254 In247 2.326 . S
O254 C250 1.260 . S
O255 In247 2.266 . S
O255 C252 1.252 . S
O256 In247 2.326 . S
O256 C252 1.260 . S
C257 O248 1.240 . S
C257 O249 1.252 . S
O258 In247 2.294 . S
O258 C251 1.240 . S
O259 In247 2.326 . S
O259 C251 1.252 . S
In260 O261 2.294 . S
In260 O262 2.326 . S
In260 O266 2.266 . S
In260 O267 2.326 . S
In260 O268 2.266 . S
In260 O269 2.326 . S
In260 O271 2.294 . S
In260 O272 2.326 . S
O261 In260 2.294 . S
O261 C270 1.240 . S
O262 In260 2.326 . S
O262 C270 1.252 . S
C263 O266 1.252 . S
C263 O267 1.260 . S
C264 O271 1.240 . S
C264 O272 1.252 . S
C265 O268 1.252 . S
C265 O269 1.260 . S
O266 In260 2.266 . S
O266 C263 1.252 . S
O267 In260 2.326 . S
O267 C263 1.260 . S
O268 In260 2.266 . S
O268 C265 1.252 . S
O269 In260 2.326 . S
O269 C265 1.260 . S
C270 O261 1.240 . S
C270 O262 1.252 . S
O271 In260 2.294 . S
O271 C264 1.240 . S
O272 In260 2.326 . S
O272 C264 1.252 . S
In273 O274 2.294 . S
In273 O275 2.326 . S
In273 O279 2.266 . S
In273 O280 2.326 . S
In273 O281 2.266 . S
In273 O282 2.326 . S
In273 O284 2.294 . S
In273 O285 2.326 . S
O274 In273 2.294 . S
O274 C283 1.240 . S
O275 In273 2.326 . S
O275 C283 1.252 . S
C276 O279 1.252 . S
C276 O280 1.260 . S
C277 O284 1.240 . S
C277 O285 1.252 . S
C278 O281 1.252 . S
C278 O282 1.260 . S
O279 In273 2.266 . S
O279 C276 1.252 . S
O280 In273 2.326 . S
O280 C276 1.260 . S
O281 In273 2.266 . S
O281 C278 1.252 . S
O282 In273 2.326 . S
O282 C278 1.260 . S
C283 O274 1.240 . S
C283 O275 1.252 . S
O284 In273 2.294 . S
O284 C277 1.240 . S
O285 In273 2.326 . S
O285 C277 1.252 . S
In286 O287 2.294 . S
In286 O288 2.326 . S
In286 O292 2.266 . S
In286 O293 2.326 . S
In286 O294 2.266 . S
In286 O295 2.326 . S
In286 O297 2.294 . S
In286 O298 2.326 . S
O287 In286 2.294 . S
O287 C296 1.240 . S
O288 In286 2.326 . S
O288 C296 1.252 . S
C289 O292 1.252 . S
C289 O293 1.260 . S
C290 O297 1.240 . S
C290 O298 1.252 . S
C291 O294 1.252 . S
C291 O295 1.260 . S
O292 In286 2.266 . S
O292 C289 1.252 . S
O293 In286 2.326 . S
O293 C289 1.260 . S
O294 In286 2.266 . S
O294 C291 1.252 . S
O295 In286 2.326 . S
O295 C291 1.260 . S
C296 O287 1.240 . S
C296 O288 1.252 . S
O297 In286 2.294 . S
O297 C290 1.240 . S
O298 In286 2.326 . S
O298 C290 1.252 . S
In299 O300 2.294 . S
In299 O301 2.326 . S
In299 O305 2.266 . S
In299 O306 2.326 . S
In299 O307 2.266 . S
In299 O308 2.326 . S
In299 O310 2.294 . S
In299 O311 2.326 . S
O300 In299 2.294 . S
O300 C309 1.240 . S
O301 In299 2.326 . S
O301 C309 1.252 . S
C302 O305 1.252 . S
C302 O306 1.260 . S
C303 O310 1.240 . S
C303 O311 1.252 . S
C304 O307 1.252 . S
C304 O308 1.260 . S
O305 In299 2.266 . S
O305 C302 1.252 . S
O306 In299 2.326 . S
O306 C302 1.260 . S
O307 In299 2.266 . S
O307 C304 1.252 . S
O308 In299 2.326 . S
O308 C304 1.260 . S
C309 O300 1.240 . S
C309 O301 1.252 . S
O310 In299 2.294 . S
O310 C303 1.240 . S
O311 In299 2.326 . S
O311 C303 1.252 . S
In312 O313 2.293 . S
In312 O314 2.326 1_554 S
In312 O318 2.265 . S
In312 O319 2.326 1_554 S
In312 O320 2.265 . S
In312 O321 2.323 . S
In312 O323 2.296 1_554 S
In312 O324 2.329 1_554 S
O313 In312 2.293 . S
O313 C322 1.240 . S
O314 In312 2.326 1_556 S
O314 C322 1.245 1_556 S
C315 O318 1.252 . S
C315 O319 1.260 1_554 S
C316 O323 1.240 . S
C316 O324 1.252 . S
C317 O320 1.252 . S
C317 O321 1.260 . S
O318 In312 2.265 . S
O318 C315 1.252 . S
O319 In312 2.326 1_556 S
O319 C315 1.260 1_556 S
O320 In312 2.265 . S
O320 C317 1.252 . S
O321 In312 2.323 . S
O321 C317 1.260 . S
C322 O313 1.240 . S
C322 O314 1.245 1_554 S
O323 In312 2.296 1_556 S
O323 C316 1.240 . S
O324 In312 2.329 1_556 S
O324 C316 1.252 . S
In325 O326 2.296 1_554 S
In325 O327 2.329 1_554 S
In325 O331 2.265 . S
In325 O332 2.323 . S
In325 O333 2.265 . S
In325 O334 2.326 1_554 S
In325 O336 2.293 . S
In325 O337 2.326 1_554 S
O326 In325 2.296 1_556 S
O326 C335 1.240 . S
O327 In325 2.329 1_556 S
O327 C335 1.252 . S
C328 O331 1.252 . S
C328 O332 1.260 . S
C329 O336 1.240 . S
C329 O337 1.245 1_554 S
C330 O333 1.252 . S
C330 O334 1.260 1_554 S
O331 In325 2.265 . S
O331 C328 1.252 . S
O332 In325 2.323 . S
O332 C328 1.260 . S
O333 In325 2.265 . S
O333 C330 1.252 . S
O334 In325 2.326 1_556 S
O334 C330 1.260 1_556 S
C335 O326 1.240 . S
C335 O327 1.252 . S
O336 In325 2.293 . S
O336 C329 1.240 . S
O337 In325 2.326 1_556 S
O337 C329 1.245 1_556 S
In338 O339 2.294 . S
In338 O340 2.326 . S
In338 O344 2.266 . S
In338 O345 2.326 . S
In338 O346 2.266 . S
In338 O347 2.326 . S
In338 O349 2.294 . S
In338 O350 2.326 . S
O339 In338 2.294 . S
O339 C348 1.240 . S
O340 In338 2.326 . S
O340 C348 1.252 . S
C341 O344 1.252 . S
C341 O345 1.260 . S
C342 O349 1.240 . S
C342 O350 1.252 . S
C343 O346 1.252 . S
C343 O347 1.260 . S
O344 In338 2.266 . S
O344 C341 1.252 . S
O345 In338 2.326 . S
O345 C341 1.260 . S
O346 In338 2.266 . S
O346 C343 1.252 . S
O347 In338 2.326 . S
O347 C343 1.260 . S
C348 O339 1.240 . S
C348 O340 1.252 . S
O349 In338 2.294 . S
O349 C342 1.240 . S
O350 In338 2.326 . S
O350 C342 1.252 . S
In351 O352 2.294 . S
In351 O353 2.326 . S
In351 O357 2.266 . S
In351 O358 2.326 . S
In351 O359 2.266 . S
In351 O360 2.326 . S
In351 O362 2.294 . S
In351 O363 2.326 . S
O352 In351 2.294 . S
O352 C361 1.240 . S
O353 In351 2.326 . S
O353 C361 1.252 . S
C354 O357 1.252 . S
C354 O358 1.260 . S
C355 O362 1.240 . S
C355 O363 1.252 . S
C356 O359 1.252 . S
C356 O360 1.260 . S
O357 In351 2.266 . S
O357 C354 1.252 . S
O358 In351 2.326 . S
O358 C354 1.260 . S
O359 In351 2.266 . S
O359 C356 1.252 . S
O360 In351 2.326 . S
O360 C356 1.260 . S
C361 O352 1.240 . S
C361 O353 1.252 . S
O362 In351 2.294 . S
O362 C355 1.240 . S
O363 In351 2.326 . S
O363 C355 1.252 . S
In364 O365 2.296 1_556 S
In364 O366 2.329 1_556 S
In364 O370 2.265 . S
In364 O371 2.323 . S
In364 O372 2.265 . S
In364 O373 2.326 1_556 S
In364 O375 2.293 . S
In364 O376 2.326 1_556 S
O365 In364 2.296 1_554 S
O365 C374 1.240 . S
O366 In364 2.329 1_554 S
O366 C374 1.252 . S
C367 O370 1.252 . S
C367 O371 1.260 . S
C368 O375 1.240 . S
C368 O376 1.245 1_556 S
C369 O372 1.252 . S
C369 O373 1.260 1_556 S
O370 In364 2.265 . S
O370 C367 1.252 . S
O371 In364 2.323 . S
O371 C367 1.260 . S
O372 In364 2.265 . S
O372 C369 1.252 . S
O373 In364 2.326 1_554 S
O373 C369 1.260 1_554 S
C374 O365 1.240 . S
C374 O366 1.252 . S
O375 In364 2.293 . S
O375 C368 1.240 . S
O376 In364 2.326 1_554 S
O376 C368 1.245 1_554 S
In377 O378 2.293 . S
In377 O379 2.326 1_556 S
In377 O383 2.265 . S
In377 O384 2.326 1_556 S
In377 O385 2.265 . S
In377 O386 2.323 . S
In377 O388 2.296 1_556 S
In377 O389 2.329 1_556 S
O378 In377 2.293 . S
O378 C387 1.240 . S
O379 In377 2.326 1_554 S
O379 C387 1.245 1_554 S
C380 O383 1.252 . S
C380 O384 1.260 1_556 S
C381 O388 1.240 . S
C381 O389 1.252 . S
C382 O385 1.252 . S
C382 O386 1.260 . S
O383 In377 2.265 . S
O383 C380 1.252 . S
O384 In377 2.326 1_554 S
O384 C380 1.260 1_554 S
O385 In377 2.265 . S
O385 C382 1.252 . S
O386 In377 2.323 . S
O386 C382 1.260 . S
C387 O378 1.240 . S
C387 O379 1.245 1_556 S
O388 In377 2.296 1_554 S
O388 C381 1.240 . S
O389 In377 2.329 1_554 S
O389 C381 1.252 . S
In390 O391 2.294 . S
In390 O392 2.326 . S
In390 O396 2.266 . S
In390 O397 2.326 . S
In390 O398 2.266 . S
In390 O399 2.326 . S
In390 O401 2.294 . S
In390 O402 2.326 . S
O391 In390 2.294 . S
O391 C400 1.240 . S
O392 In390 2.326 . S
O392 C400 1.252 . S
C393 O396 1.252 . S
C393 O397 1.260 . S
C394 O401 1.240 . S
C394 O402 1.252 . S
C395 O398 1.252 . S
C395 O399 1.260 . S
O396 In390 2.266 . S
O396 C393 1.252 . S
O397 In390 2.326 . S
O397 C393 1.260 . S
O398 In390 2.266 . S
O398 C395 1.252 . S
O399 In390 2.326 . S
O399 C395 1.260 . S
C400 O391 1.240 . S
C400 O392 1.252 . S
O401 In390 2.294 . S
O401 C394 1.240 . S
O402 In390 2.326 . S
O402 C394 1.252 . S
In403 O404 2.294 . S
In403 O405 2.326 . S
In403 O409 2.266 . S
In403 O410 2.326 . S
In403 O411 2.266 . S
In403 O412 2.326 . S
In403 O414 2.294 . S
In403 O415 2.326 . S
O404 In403 2.294 . S
O404 C413 1.240 . S
O405 In403 2.326 . S
O405 C413 1.252 . S
C406 O409 1.252 . S
C406 O410 1.260 . S
C407 O414 1.240 . S
C407 O415 1.252 . S
C408 O411 1.252 . S
C408 O412 1.260 . S
O409 In403 2.266 . S
O409 C406 1.252 . S
O410 In403 2.326 . S
O410 C406 1.260 . S
O411 In403 2.266 . S
O411 C408 1.252 . S
O412 In403 2.326 . S
O412 C408 1.260 . S
C413 O404 1.240 . S
C413 O405 1.252 . S
O414 In403 2.294 . S
O414 C407 1.240 . S
O415 In403 2.326 . S
O415 C407 1.252 . S
H416 C428 0.930 . S
H417 C430 0.930 . S
H418 C431 0.930 . S
H419 C435 0.959 . S
H420 C435 0.959 . S
H421 C435 0.961 . S
H422 C436 0.960 . S
H423 C436 0.961 . S
H424 C436 0.959 . S
H425 C439 0.929 . S
H426 C440 0.931 . S
H427 C442 0.930 . S
C428 H416 0.930 . S
C428 C429 1.399 . S
C428 C433 1.399 . S
C429 C428 1.399 . S
C429 C430 1.376 . S
C430 H417 0.930 . S
C430 C429 1.376 . S
C430 C431 1.388 . S
C431 H418 0.930 . S
C431 C430 1.388 . S
C431 C432 1.390 . S
C432 C431 1.390 . S
C432 C433 1.394 . S
C432 C438 1.465 . S
C433 C428 1.399 . S
C433 C432 1.394 . S
C433 C434 1.516 . S
C434 C433 1.516 . S
C434 C435 1.502 . S
C434 C436 1.561 . S
C434 C437 1.526 . S
C435 H419 0.959 . S
C435 H420 0.959 . S
C435 H421 0.961 . S
C435 C434 1.502 . S
C436 H422 0.960 . S
C436 H423 0.961 . S
C436 H424 0.959 . S
C436 C434 1.561 . S
C437 C434 1.526 . S
C437 C438 1.396 . S
C437 C442 1.390 . S
C438 C432 1.465 . S
C438 C437 1.396 . S
C438 C439 1.399 . S
C439 H425 0.929 . S
C439 C438 1.399 . S
C439 C440 1.385 . S
C440 H426 0.931 . S
C440 C439 1.385 . S
C440 C441 1.389 . S
C441 C440 1.389 . S
C441 C442 1.387 . S
C442 H427 0.930 . S
C442 C437 1.390 . S
C442 C441 1.387 . S
H443 C455 0.930 . S
H444 C457 0.930 . S
H445 C458 0.930 . S
H446 C462 0.959 . S
H447 C462 0.959 . S
H448 C462 0.961 . S
H449 C463 0.960 . S
H450 C463 0.961 . S
H451 C463 0.959 . S
H452 C466 0.929 . S
H453 C467 0.931 . S
H454 C469 0.930 . S
C455 H443 0.930 . S
C455 C456 1.399 . S
C455 C460 1.399 . S
C456 C455 1.399 . S
C456 C457 1.376 . S
C457 H444 0.930 . S
C457 C456 1.376 . S
C457 C458 1.388 . S
C458 H445 0.930 . S
C458 C457 1.388 . S
C458 C459 1.390 . S
C459 C458 1.390 . S
C459 C460 1.394 . S
C459 C465 1.465 . S
C460 C455 1.399 . S
C460 C459 1.394 . S
C460 C461 1.516 . S
C461 C460 1.516 . S
C461 C462 1.502 . S
C461 C463 1.561 . S
C461 C464 1.526 . S
C462 H446 0.959 . S
C462 H447 0.959 . S
C462 H448 0.961 . S
C462 C461 1.502 . S
C463 H449 0.960 . S
C463 H450 0.961 . S
C463 H451 0.959 . S
C463 C461 1.561 . S
C464 C461 1.526 . S
C464 C465 1.396 . S
C464 C469 1.390 . S
C465 C459 1.465 . S
C465 C464 1.396 . S
C465 C466 1.399 . S
C466 H452 0.929 . S
C466 C465 1.399 . S
C466 C467 1.385 . S
C467 H453 0.931 . S
C467 C466 1.385 . S
C467 C468 1.389 . S
C468 C467 1.389 . S
C468 C469 1.387 . S
C469 H454 0.930 . S
C469 C464 1.390 . S
C469 C468 1.387 . S
H470 C482 0.930 . S
H471 C484 0.930 . S
H472 C485 0.930 . S
H473 C489 0.959 . S
H474 C489 0.959 . S
H475 C489 0.961 . S
H476 C490 0.960 . S
H477 C490 0.961 . S
H478 C490 0.959 . S
H479 C493 0.929 . S
H480 C494 0.931 . S
H481 C496 0.930 . S
C482 H470 0.930 . S
C482 C483 1.399 . S
C482 C487 1.399 . S
C483 C482 1.399 . S
C483 C484 1.376 . S
C484 H471 0.930 . S
C484 C483 1.376 . S
C484 C485 1.388 . S
C485 H472 0.930 . S
C485 C484 1.388 . S
C485 C486 1.390 . S
C486 C485 1.390 . S
C486 C487 1.394 . S
C486 C492 1.465 . S
C487 C482 1.399 . S
C487 C486 1.394 . S
C487 C488 1.516 . S
C488 C487 1.516 . S
C488 C489 1.502 . S
C488 C490 1.561 . S
C488 C491 1.526 . S
C489 H473 0.959 . S
C489 H474 0.959 . S
C489 H475 0.961 . S
C489 C488 1.502 . S
C490 H476 0.960 . S
C490 H477 0.961 . S
C490 H478 0.959 . S
C490 C488 1.561 . S
C491 C488 1.526 . S
C491 C492 1.396 . S
C491 C496 1.390 . S
C492 C486 1.465 . S
C492 C491 1.396 . S
C492 C493 1.399 . S
C493 H479 0.929 . S
C493 C492 1.399 . S
C493 C494 1.385 . S
C494 H480 0.931 . S
C494 C493 1.385 . S
C494 C495 1.389 . S
C495 C494 1.389 . S
C495 C496 1.387 . S
C496 H481 0.930 . S
C496 C491 1.390 . S
C496 C495 1.387 . S
H497 C509 0.930 . S
H498 C511 0.930 . S
H499 C512 0.930 . S
H500 C516 0.959 . S
H501 C516 0.959 . S
H502 C516 0.961 . S
H503 C517 0.960 . S
H504 C517 0.961 . S
H505 C517 0.959 . S
H506 C520 0.929 . S
H507 C521 0.931 . S
H508 C523 0.930 . S
C509 H497 0.930 . S
C509 C510 1.399 . S
C509 C514 1.399 . S
C510 C509 1.399 . S
C510 C511 1.376 . S
C511 H498 0.930 . S
C511 C510 1.376 . S
C511 C512 1.388 . S
C512 H499 0.930 . S
C512 C511 1.388 . S
C512 C513 1.390 . S
C513 C512 1.390 . S
C513 C514 1.394 . S
C513 C519 1.465 . S
C514 C509 1.399 . S
C514 C513 1.394 . S
C514 C515 1.516 . S
C515 C514 1.516 . S
C515 C516 1.502 . S
C515 C517 1.561 . S
C515 C518 1.526 . S
C516 H500 0.959 . S
C516 H501 0.959 . S
C516 H502 0.961 . S
C516 C515 1.502 . S
C517 H503 0.960 . S
C517 H504 0.961 . S
C517 H505 0.959 . S
C517 C515 1.561 . S
C518 C515 1.526 . S
C518 C519 1.396 . S
C518 C523 1.390 . S
C519 C513 1.465 . S
C519 C518 1.396 . S
C519 C520 1.399 . S
C520 H506 0.929 . S
C520 C519 1.399 . S
C520 C521 1.385 . S
C521 H507 0.931 . S
C521 C520 1.385 . S
C521 C522 1.389 . S
C522 C521 1.389 . S
C522 C523 1.387 . S
C523 H508 0.930 . S
C523 C518 1.390 . S
C523 C522 1.387 . S
H524 C536 0.930 . S
H525 C538 0.930 . S
H526 C539 0.930 . S
H527 C543 0.959 . S
H528 C543 0.959 . S
H529 C543 0.961 . S
H530 C544 0.960 . S
H531 C544 0.961 . S
H532 C544 0.959 . S
H533 C547 0.929 . S
H534 C548 0.931 . S
H535 C550 0.930 . S
C536 H524 0.930 . S
C536 C537 1.399 . S
C536 C541 1.399 . S
C537 C536 1.399 . S
C537 C538 1.376 . S
C538 H525 0.930 . S
C538 C537 1.376 . S
C538 C539 1.388 . S
C539 H526 0.930 . S
C539 C538 1.388 . S
C539 C540 1.390 . S
C540 C539 1.390 . S
C540 C541 1.394 . S
C540 C546 1.465 . S
C541 C536 1.399 . S
C541 C540 1.394 . S
C541 C542 1.516 . S
C542 C541 1.516 . S
C542 C543 1.502 . S
C542 C544 1.561 . S
C542 C545 1.526 . S
C543 H527 0.959 . S
C543 H528 0.959 . S
C543 H529 0.961 . S
C543 C542 1.502 . S
C544 H530 0.960 . S
C544 H531 0.961 . S
C544 H532 0.959 . S
C544 C542 1.561 . S
C545 C542 1.526 . S
C545 C546 1.396 . S
C545 C550 1.390 . S
C546 C540 1.465 . S
C546 C545 1.396 . S
C546 C547 1.399 . S
C547 H533 0.929 . S
C547 C546 1.399 . S
C547 C548 1.385 . S
C548 H534 0.931 . S
C548 C547 1.385 . S
C548 C549 1.389 . S
C549 C548 1.389 . S
C549 C550 1.387 . S
C550 H535 0.930 . S
C550 C545 1.390 . S
C550 C549 1.387 . S
H551 C563 0.930 . S
H552 C565 0.930 . S
H553 C566 0.930 . S
H554 C570 0.959 . S
H555 C570 0.959 . S
H556 C570 0.961 . S
H557 C571 0.960 . S
H558 C571 0.961 . S
H559 C571 0.959 . S
H560 C574 0.929 . S
H561 C575 0.931 . S
H562 C577 0.930 . S
C563 H551 0.930 . S
C563 C564 1.399 . S
C563 C568 1.399 . S
C564 C563 1.399 . S
C564 C565 1.376 . S
C565 H552 0.930 . S
C565 C564 1.376 . S
C565 C566 1.388 . S
C566 H553 0.930 . S
C566 C565 1.388 . S
C566 C567 1.390 . S
C567 C566 1.390 . S
C567 C568 1.394 . S
C567 C573 1.465 . S
C568 C563 1.399 . S
C568 C567 1.394 . S
C568 C569 1.516 . S
C569 C568 1.516 . S
C569 C570 1.502 . S
C569 C571 1.561 . S
C569 C572 1.526 . S
C570 H554 0.959 . S
C570 H555 0.959 . S
C570 H556 0.961 . S
C570 C569 1.502 . S
C571 H557 0.960 . S
C571 H558 0.961 . S
C571 H559 0.959 . S
C571 C569 1.561 . S
C572 C569 1.526 . S
C572 C573 1.396 . S
C572 C577 1.390 . S
C573 C567 1.465 . S
C573 C572 1.396 . S
C573 C574 1.399 . S
C574 H560 0.929 . S
C574 C573 1.399 . S
C574 C575 1.385 . S
C575 H561 0.931 . S
C575 C574 1.385 . S
C575 C576 1.389 . S
C576 C575 1.389 . S
C576 C577 1.387 . S
C577 H562 0.930 . S
C577 C572 1.390 . S
C577 C576 1.387 . S
H578 C590 0.930 . S
H579 C592 0.930 . S
H580 C593 0.930 . S
H581 C597 0.959 . S
H582 C597 0.959 . S
H583 C597 0.961 . S
H584 C598 0.960 . S
H585 C598 0.961 . S
H586 C598 0.959 . S
H587 C601 0.929 . S
H588 C602 0.931 . S
H589 C604 0.930 . S
C590 H578 0.930 . S
C590 C591 1.399 . S
C590 C595 1.399 . S
C591 C590 1.399 . S
C591 C592 1.376 . S
C592 H579 0.930 . S
C592 C591 1.376 . S
C592 C593 1.388 . S
C593 H580 0.930 . S
C593 C592 1.388 . S
C593 C594 1.390 . S
C594 C593 1.390 . S
C594 C595 1.394 . S
C594 C600 1.465 . S
C595 C590 1.399 . S
C595 C594 1.394 . S
C595 C596 1.516 . S
C596 C595 1.516 . S
C596 C597 1.502 . S
C596 C598 1.561 . S
C596 C599 1.526 . S
C597 H581 0.959 . S
C597 H582 0.959 . S
C597 H583 0.961 . S
C597 C596 1.502 . S
C598 H584 0.960 . S
C598 H585 0.961 . S
C598 H586 0.959 . S
C598 C596 1.561 . S
C599 C596 1.526 . S
C599 C600 1.396 . S
C599 C604 1.390 . S
C600 C594 1.465 . S
C600 C599 1.396 . S
C600 C601 1.399 . S
C601 H587 0.929 . S
C601 C600 1.399 . S
C601 C602 1.385 . S
C602 H588 0.931 . S
C602 C601 1.385 . S
C602 C603 1.389 . S
C603 C602 1.389 . S
C603 C604 1.387 . S
C604 H589 0.930 . S
C604 C599 1.390 . S
C604 C603 1.387 . S
H605 C617 0.930 . S
H606 C619 0.930 . S
H607 C620 0.930 . S
H608 C624 0.959 . S
H609 C624 0.959 . S
H610 C624 0.961 . S
H611 C625 0.960 . S
H612 C625 0.961 . S
H613 C625 0.959 . S
H614 C628 0.929 . S
H615 C629 0.931 . S
H616 C631 0.930 . S
C617 H605 0.930 . S
C617 C618 1.399 . S
C617 C622 1.399 . S
C618 C617 1.399 . S
C618 C619 1.376 . S
C619 H606 0.930 . S
C619 C618 1.376 . S
C619 C620 1.388 . S
C620 H607 0.930 . S
C620 C619 1.388 . S
C620 C621 1.390 . S
C621 C620 1.390 . S
C621 C622 1.394 . S
C621 C627 1.465 . S
C622 C617 1.399 . S
C622 C621 1.394 . S
C622 C623 1.516 . S
C623 C622 1.516 . S
C623 C624 1.502 . S
C623 C625 1.561 . S
C623 C626 1.526 . S
C624 H608 0.959 . S
C624 H609 0.959 . S
C624 H610 0.961 . S
C624 C623 1.502 . S
C625 H611 0.960 . S
C625 H612 0.961 . S
C625 H613 0.959 . S
C625 C623 1.561 . S
C626 C623 1.526 . S
C626 C627 1.396 . S
C626 C631 1.390 . S
C627 C621 1.465 . S
C627 C626 1.396 . S
C627 C628 1.399 . S
C628 H614 0.929 . S
C628 C627 1.399 . S
C628 C629 1.385 . S
C629 H615 0.931 . S
C629 C628 1.385 . S
C629 C630 1.389 . S
C630 C629 1.389 . S
C630 C631 1.387 . S
C631 H616 0.930 . S
C631 C626 1.390 . S
C631 C630 1.387 . S
H632 C644 0.930 . S
H633 C646 0.930 . S
H634 C647 0.930 . S
H635 C651 0.959 . S
H636 C651 0.959 . S
H637 C651 0.961 . S
H638 C652 0.960 . S
H639 C652 0.961 . S
H640 C652 0.959 . S
H641 C655 0.929 . S
H642 C656 0.931 . S
H643 C658 0.930 . S
C644 H632 0.930 . S
C644 C645 1.399 . S
C644 C649 1.399 . S
C645 C644 1.399 . S
C645 C646 1.376 . S
C646 H633 0.930 . S
C646 C645 1.376 . S
C646 C647 1.388 . S
C647 H634 0.930 . S
C647 C646 1.388 . S
C647 C648 1.390 . S
C648 C647 1.390 . S
C648 C649 1.394 . S
C648 C654 1.465 . S
C649 C644 1.399 . S
C649 C648 1.394 . S
C649 C650 1.516 . S
C650 C649 1.516 . S
C650 C651 1.502 . S
C650 C652 1.561 . S
C650 C653 1.526 . S
C651 H635 0.959 . S
C651 H636 0.959 . S
C651 H637 0.961 . S
C651 C650 1.502 . S
C652 H638 0.960 . S
C652 H639 0.961 . S
C652 H640 0.959 . S
C652 C650 1.561 . S
C653 C650 1.526 . S
C653 C654 1.396 . S
C653 C658 1.390 . S
C654 C648 1.465 . S
C654 C653 1.396 . S
C654 C655 1.399 . S
C655 H641 0.929 . S
C655 C654 1.399 . S
C655 C656 1.385 . S
C656 H642 0.931 . S
C656 C655 1.385 . S
C656 C657 1.389 . S
C657 C656 1.389 . S
C657 C658 1.387 . S
C658 H643 0.930 . S
C658 C653 1.390 . S
C658 C657 1.387 . S
H659 C671 0.930 . S
H660 C673 0.930 . S
H661 C674 0.930 . S
H662 C678 0.959 . S
H663 C678 0.959 . S
H664 C678 0.961 . S
H665 C679 0.960 . S
H666 C679 0.961 . S
H667 C679 0.959 . S
H668 C682 0.929 . S
H669 C683 0.931 . S
H670 C685 0.930 . S
C671 H659 0.930 . S
C671 C672 1.399 . S
C671 C676 1.399 . S
C672 C671 1.399 . S
C672 C673 1.376 . S
C673 H660 0.930 . S
C673 C672 1.376 . S
C673 C674 1.388 . S
C674 H661 0.930 . S
C674 C673 1.388 . S
C674 C675 1.390 . S
C675 C674 1.390 . S
C675 C676 1.394 . S
C675 C681 1.465 . S
C676 C671 1.399 . S
C676 C675 1.394 . S
C676 C677 1.516 . S
C677 C676 1.516 . S
C677 C678 1.502 . S
C677 C679 1.561 . S
C677 C680 1.526 . S
C678 H662 0.959 . S
C678 H663 0.959 . S
C678 H664 0.961 . S
C678 C677 1.502 . S
C679 H665 0.960 . S
C679 H666 0.961 . S
C679 H667 0.959 . S
C679 C677 1.561 . S
C680 C677 1.526 . S
C680 C681 1.396 . S
C680 C685 1.390 . S
C681 C675 1.465 . S
C681 C680 1.396 . S
C681 C682 1.399 . S
C682 H668 0.929 . S
C682 C681 1.399 . S
C682 C683 1.385 . S
C683 H669 0.931 . S
C683 C682 1.385 . S
C683 C684 1.389 . S
C684 C683 1.389 . S
C684 C685 1.387 . S
C685 H670 0.930 . S
C685 C680 1.390 . S
C685 C684 1.387 . S
H686 C698 0.930 . S
H687 C700 0.930 . S
H688 C701 0.930 . S
H689 C705 0.959 . S
H690 C705 0.959 . S
H691 C705 0.961 . S
H692 C706 0.960 . S
H693 C706 0.961 . S
H694 C706 0.959 . S
H695 C709 0.929 . S
H696 C710 0.931 . S
H697 C712 0.930 . S
C698 H686 0.930 . S
C698 C699 1.399 . S
C698 C703 1.399 . S
C699 C698 1.399 . S
C699 C700 1.376 . S
C700 H687 0.930 . S
C700 C699 1.376 . S
C700 C701 1.388 . S
C701 H688 0.930 . S
C701 C700 1.388 . S
C701 C702 1.390 . S
C702 C701 1.390 . S
C702 C703 1.394 . S
C702 C708 1.465 . S
C703 C698 1.399 . S
C703 C702 1.394 . S
C703 C704 1.516 . S
C704 C703 1.516 . S
C704 C705 1.502 . S
C704 C706 1.561 . S
C704 C707 1.526 . S
C705 H689 0.959 . S
C705 H690 0.959 . S
C705 H691 0.961 . S
C705 C704 1.502 . S
C706 H692 0.960 . S
C706 H693 0.961 . S
C706 H694 0.959 . S
C706 C704 1.561 . S
C707 C704 1.526 . S
C707 C708 1.396 . S
C707 C712 1.390 . S
C708 C702 1.465 . S
C708 C707 1.396 . S
C708 C709 1.399 . S
C709 H695 0.929 . S
C709 C708 1.399 . S
C709 C710 1.385 . S
C710 H696 0.931 . S
C710 C709 1.385 . S
C710 C711 1.389 . S
C711 C710 1.389 . S
C711 C712 1.387 . S
C712 H697 0.930 . S
C712 C707 1.390 . S
C712 C711 1.387 . S
H713 C725 0.930 . S
H714 C727 0.930 . S
H715 C728 0.930 . S
H716 C732 0.959 . S
H717 C732 0.959 . S
H718 C732 0.961 . S
H719 C733 0.960 . S
H720 C733 0.961 . S
H721 C733 0.959 . S
H722 C736 0.929 . S
H723 C737 0.931 . S
H724 C739 0.930 . S
C725 H713 0.930 . S
C725 C726 1.399 . S
C725 C730 1.399 . S
C726 C725 1.399 . S
C726 C727 1.376 . S
C727 H714 0.930 . S
C727 C726 1.376 . S
C727 C728 1.388 . S
C728 H715 0.930 . S
C728 C727 1.388 . S
C728 C729 1.390 . S
C729 C728 1.390 . S
C729 C730 1.394 . S
C729 C735 1.465 . S
C730 C725 1.399 . S
C730 C729 1.394 . S
C730 C731 1.516 . S
C731 C730 1.516 . S
C731 C732 1.502 . S
C731 C733 1.561 . S
C731 C734 1.526 . S
C732 H716 0.959 . S
C732 H717 0.959 . S
C732 H718 0.961 . S
C732 C731 1.502 . S
C733 H719 0.960 . S
C733 H720 0.961 . S
C733 H721 0.959 . S
C733 C731 1.561 . S
C734 C731 1.526 . S
C734 C735 1.396 . S
C734 C739 1.390 . S
C735 C729 1.465 . S
C735 C734 1.396 . S
C735 C736 1.399 . S
C736 H722 0.929 . S
C736 C735 1.399 . S
C736 C737 1.385 . S
C737 H723 0.931 . S
C737 C736 1.385 . S
C737 C738 1.389 . S
C738 C737 1.389 . S
C738 C739 1.387 . S
C739 H724 0.930 . S
C739 C734 1.390 . S
C739 C738 1.387 . S
H740 C752 0.930 . S
H741 C754 0.930 . S
H742 C755 0.930 . S
H743 C759 0.959 . S
H744 C759 0.959 . S
H745 C759 0.961 . S
H746 C760 0.960 . S
H747 C760 0.961 . S
H748 C760 0.959 . S
H749 C763 0.929 . S
H750 C764 0.931 . S
H751 C766 0.930 . S
C752 H740 0.930 . S
C752 C753 1.399 . S
C752 C757 1.399 . S
C753 C752 1.399 . S
C753 C754 1.376 . S
C754 H741 0.930 . S
C754 C753 1.376 . S
C754 C755 1.388 . S
C755 H742 0.930 . S
C755 C754 1.388 . S
C755 C756 1.390 . S
C756 C755 1.390 . S
C756 C757 1.394 . S
C756 C762 1.465 . S
C757 C752 1.399 . S
C757 C756 1.394 . S
C757 C758 1.516 . S
C758 C757 1.516 . S
C758 C759 1.502 . S
C758 C760 1.561 . S
C758 C761 1.526 . S
C759 H743 0.959 . S
C759 H744 0.959 . S
C759 H745 0.961 . S
C759 C758 1.502 . S
C760 H746 0.960 . S
C760 H747 0.961 . S
C760 H748 0.959 . S
C760 C758 1.561 . S
C761 C758 1.526 . S
C761 C762 1.396 . S
C761 C766 1.390 . S
C762 C756 1.465 . S
C762 C761 1.396 . S
C762 C763 1.399 . S
C763 H749 0.929 . S
C763 C762 1.399 . S
C763 C764 1.385 . S
C764 H750 0.931 . S
C764 C763 1.385 . S
C764 C765 1.389 . S
C765 C764 1.389 . S
C765 C766 1.387 . S
C766 H751 0.930 . S
C766 C761 1.390 . S
C766 C765 1.387 . S
H767 C779 0.930 . S
H768 C781 0.930 . S
H769 C782 0.930 . S
H770 C786 0.959 . S
H771 C786 0.959 . S
H772 C786 0.961 . S
H773 C787 0.960 . S
H774 C787 0.961 . S
H775 C787 0.959 . S
H776 C790 0.929 . S
H777 C791 0.931 . S
H778 C793 0.930 . S
C779 H767 0.930 . S
C779 C780 1.399 . S
C779 C784 1.399 . S
C780 C779 1.399 . S
C780 C781 1.376 . S
C781 H768 0.930 . S
C781 C780 1.376 . S
C781 C782 1.388 . S
C782 H769 0.930 . S
C782 C781 1.388 . S
C782 C783 1.390 . S
C783 C782 1.390 . S
C783 C784 1.394 . S
C783 C789 1.465 . S
C784 C779 1.399 . S
C784 C783 1.394 . S
C784 C785 1.516 . S
C785 C784 1.516 . S
C785 C786 1.502 . S
C785 C787 1.561 . S
C785 C788 1.526 . S
C786 H770 0.959 . S
C786 H771 0.959 . S
C786 H772 0.961 . S
C786 C785 1.502 . S
C787 H773 0.960 . S
C787 H774 0.961 . S
C787 H775 0.959 . S
C787 C785 1.561 . S
C788 C785 1.526 . S
C788 C789 1.396 . S
C788 C793 1.390 . S
C789 C783 1.465 . S
C789 C788 1.396 . S
C789 C790 1.399 . S
C790 H776 0.929 . S
C790 C789 1.399 . S
C790 C791 1.385 . S
C791 H777 0.931 . S
C791 C790 1.385 . S
C791 C792 1.389 . S
C792 C791 1.389 . S
C792 C793 1.387 . S
C793 H778 0.930 . S
C793 C788 1.390 . S
C793 C792 1.387 . S
H794 C806 0.930 . S
H795 C808 0.930 . S
H796 C809 0.930 . S
H797 C813 0.959 . S
H798 C813 0.959 . S
H799 C813 0.961 . S
H800 C814 0.960 . S
H801 C814 0.961 . S
H802 C814 0.959 . S
H803 C817 0.929 . S
H804 C818 0.931 . S
H805 C820 0.930 . S
C806 H794 0.930 . S
C806 C807 1.399 . S
C806 C811 1.399 . S
C807 C806 1.399 . S
C807 C808 1.376 . S
C808 H795 0.930 . S
C808 C807 1.376 . S
C808 C809 1.388 . S
C809 H796 0.930 . S
C809 C808 1.388 . S
C809 C810 1.390 . S
C810 C809 1.390 . S
C810 C811 1.394 . S
C810 C816 1.465 . S
C811 C806 1.399 . S
C811 C810 1.394 . S
C811 C812 1.516 . S
C812 C811 1.516 . S
C812 C813 1.502 . S
C812 C814 1.561 . S
C812 C815 1.526 . S
C813 H797 0.959 . S
C813 H798 0.959 . S
C813 H799 0.961 . S
C813 C812 1.502 . S
C814 H800 0.960 . S
C814 H801 0.961 . S
C814 H802 0.959 . S
C814 C812 1.561 . S
C815 C812 1.526 . S
C815 C816 1.396 . S
C815 C820 1.390 . S
C816 C810 1.465 . S
C816 C815 1.396 . S
C816 C817 1.399 . S
C817 H803 0.929 . S
C817 C816 1.399 . S
C817 C818 1.385 . S
C818 H804 0.931 . S
C818 C817 1.385 . S
C818 C819 1.389 . S
C819 C818 1.389 . S
C819 C820 1.387 . S
C820 H805 0.930 . S
C820 C815 1.390 . S
C820 C819 1.387 . S
H821 C833 0.930 . S
H822 C835 0.930 . S
H823 C836 0.930 . S
H824 C840 0.959 . S
H825 C840 0.959 . S
H826 C840 0.961 . S
H827 C841 0.960 . S
H828 C841 0.961 . S
H829 C841 0.959 . S
H830 C844 0.929 . S
H831 C845 0.931 . S
H832 C847 0.930 . S
C833 H821 0.930 . S
C833 C834 1.399 . S
C833 C838 1.399 . S
C834 C833 1.399 . S
C834 C835 1.376 . S
C835 H822 0.930 . S
C835 C834 1.376 . S
C835 C836 1.388 . S
C836 H823 0.930 . S
C836 C835 1.388 . S
C836 C837 1.390 . S
C837 C836 1.390 . S
C837 C838 1.394 . S
C837 C843 1.465 . S
C838 C833 1.399 . S
C838 C837 1.394 . S
C838 C839 1.516 . S
C839 C838 1.516 . S
C839 C840 1.502 . S
C839 C841 1.561 . S
C839 C842 1.526 . S
C840 H824 0.959 . S
C840 H825 0.959 . S
C840 H826 0.961 . S
C840 C839 1.502 . S
C841 H827 0.960 . S
C841 H828 0.961 . S
C841 H829 0.959 . S
C841 C839 1.561 . S
C842 C839 1.526 . S
C842 C843 1.396 . S
C842 C847 1.390 . S
C843 C837 1.465 . S
C843 C842 1.396 . S
C843 C844 1.399 . S
C844 H830 0.929 . S
C844 C843 1.399 . S
C844 C845 1.385 . S
C845 H831 0.931 . S
C845 C844 1.385 . S
C845 C846 1.389 . S
C846 C845 1.389 . S
C846 C847 1.387 . S
C847 H832 0.930 . S
C847 C842 1.390 . S
C847 C846 1.387 . S
H848 C860 0.930 . S
H849 C862 0.930 . S
H850 C863 0.930 . S
H851 C867 0.959 . S
H852 C867 0.959 1_565 S
H853 C867 0.961 . S
H854 C868 0.960 . S
H855 C868 0.961 . S
H856 C868 0.959 . S
H857 C871 0.929 . S
H858 C872 0.931 . S
H859 C874 0.930 . S
C860 H848 0.930 . S
C860 C861 1.399 . S
C860 C865 1.399 . S
C861 C860 1.399 . S
C861 C862 1.376 1_554 S
C862 H849 0.930 . S
C862 C861 1.376 1_556 S
C862 C863 1.388 . S
C863 H850 0.930 . S
C863 C862 1.388 . S
C863 C864 1.390 . S
C864 C863 1.390 . S
C864 C865 1.394 1_556 S
C864 C870 1.465 1_545 S
C865 C860 1.399 . S
C865 C864 1.394 1_554 S
C865 C866 1.516 1_545 S
C866 C865 1.516 1_565 S
C866 C867 1.502 1_565 S
C866 C868 1.561 . S
C866 C869 1.526 . S
C867 H851 0.959 . S
C867 H852 0.959 1_545 S
C867 H853 0.961 . S
C867 C866 1.502 1_545 S
C868 H854 0.960 . S
C868 H855 0.961 . S
C868 H856 0.959 . S
C868 C866 1.561 . S
C869 C866 1.526 . S
C869 C870 1.396 1_554 S
C869 C874 1.390 . S
C870 C864 1.465 1_565 S
C870 C869 1.396 1_556 S
C870 C871 1.399 . S
C871 H857 0.929 . S
C871 C870 1.399 . S
C871 C872 1.385 . S
C872 H858 0.931 . S
C872 C871 1.385 . S
C872 C873 1.389 . S
C873 C872 1.389 . S
C873 C874 1.387 1_556 S
C874 H859 0.930 . S
C874 C869 1.390 . S
C874 C873 1.387 1_554 S
H875 C887 0.930 . S
H876 C889 0.930 . S
H877 C890 0.930 . S
H878 C894 0.959 . S
H879 C894 0.959 . S
H880 C894 0.961 . S
H881 C895 0.960 . S
H882 C895 0.961 . S
H883 C895 0.959 . S
H884 C898 0.929 . S
H885 C899 0.931 . S
H886 C901 0.930 . S
C887 H875 0.930 . S
C887 C888 1.399 . S
C887 C892 1.399 . S
C888 C887 1.399 . S
C888 C889 1.376 1_556 S
C889 H876 0.930 . S
C889 C888 1.376 1_554 S
C889 C890 1.388 . S
C890 H877 0.930 . S
C890 C889 1.388 . S
C890 C891 1.390 . S
C891 C890 1.390 . S
C891 C892 1.394 1_554 S
C891 C897 1.465 . S
C892 C887 1.399 . S
C892 C891 1.394 1_556 S
C892 C893 1.516 . S
C893 C892 1.516 . S
C893 C894 1.502 . S
C893 C895 1.561 . S
C893 C896 1.526 . S
C894 H878 0.959 . S
C894 H879 0.959 . S
C894 H880 0.961 . S
C894 C893 1.502 . S
C895 H881 0.960 . S
C895 H882 0.961 . S
C895 H883 0.959 . S
C895 C893 1.561 . S
C896 C893 1.526 . S
C896 C897 1.396 1_556 S
C896 C901 1.390 . S
C897 C891 1.465 . S
C897 C896 1.396 1_554 S
C897 C898 1.399 . S
C898 H884 0.929 . S
C898 C897 1.399 . S
C898 C899 1.385 . S
C899 H885 0.931 . S
C899 C898 1.385 . S
C899 C900 1.389 . S
C900 C899 1.389 . S
C900 C901 1.387 1_554 S
C901 H886 0.930 . S
C901 C896 1.390 . S
C901 C900 1.387 1_556 S
H902 C914 0.930 . S
H903 C916 0.930 . S
H904 C917 0.930 . S
H905 C921 0.959 . S
H906 C921 0.959 . S
H907 C921 0.961 . S
H908 C922 0.960 . S
H909 C922 0.961 . S
H910 C922 0.959 . S
H911 C925 0.929 . S
H912 C926 0.931 . S
H913 C928 0.930 . S
C914 H902 0.930 . S
C914 C915 1.399 . S
C914 C919 1.399 . S
C915 C914 1.399 . S
C915 C916 1.376 . S
C916 H903 0.930 . S
C916 C915 1.376 . S
C916 C917 1.388 . S
C917 H904 0.930 . S
C917 C916 1.388 . S
C917 C918 1.390 . S
C918 C917 1.390 . S
C918 C919 1.394 . S
C918 C924 1.465 . S
C919 C914 1.399 . S
C919 C918 1.394 . S
C919 C920 1.516 . S
C920 C919 1.516 . S
C920 C921 1.502 . S
C920 C922 1.561 . S
C920 C923 1.526 . S
C921 H905 0.959 . S
C921 H906 0.959 . S
C921 H907 0.961 . S
C921 C920 1.502 . S
C922 H908 0.960 . S
C922 H909 0.961 . S
C922 H910 0.959 . S
C922 C920 1.561 . S
C923 C920 1.526 . S
C923 C924 1.396 . S
C923 C928 1.390 . S
C924 C918 1.465 . S
C924 C923 1.396 . S
C924 C925 1.399 . S
C925 H911 0.929 . S
C925 C924 1.399 . S
C925 C926 1.385 . S
C926 H912 0.931 . S
C926 C925 1.385 . S
C926 C927 1.389 . S
C927 C926 1.389 . S
C927 C928 1.387 . S
C928 H913 0.930 . S
C928 C923 1.390 . S
C928 C927 1.387 . S
H929 C941 0.930 . S
H930 C943 0.930 . S
H931 C944 0.930 . S
H932 C948 0.959 . S
H933 C948 0.959 . S
H934 C948 0.961 . S
H935 C949 0.960 . S
H936 C949 0.961 1_545 S
H937 C949 0.959 . S
H938 C952 0.929 . S
H939 C953 0.931 . S
H940 C955 0.930 . S
C941 H929 0.930 . S
C941 C942 1.399 . S
C941 C946 1.399 . S
C942 C941 1.399 . S
C942 C943 1.376 . S
C943 H930 0.930 . S
C943 C942 1.376 . S
C943 C944 1.388 . S
C944 H931 0.930 . S
C944 C943 1.388 . S
C944 C945 1.390 . S
C945 C944 1.390 . S
C945 C946 1.394 . S
C945 C951 1.465 1_565 S
C946 C941 1.399 . S
C946 C945 1.394 . S
C946 C947 1.516 1_565 S
C947 C946 1.516 1_545 S
C947 C948 1.502 . S
C947 C949 1.561 1_545 S
C947 C950 1.526 . S
C948 H932 0.959 . S
C948 H933 0.959 . S
C948 H934 0.961 . S
C948 C947 1.502 . S
C949 H935 0.960 . S
C949 H936 0.961 1_565 S
C949 H937 0.959 . S
C949 C947 1.561 1_565 S
C950 C947 1.526 . S
C950 C951 1.396 . S
C950 C955 1.390 . S
C951 C945 1.465 1_545 S
C951 C950 1.396 . S
C951 C952 1.399 . S
C952 H938 0.929 . S
C952 C951 1.399 . S
C952 C953 1.385 . S
C953 H939 0.931 . S
C953 C952 1.385 . S
C953 C954 1.389 . S
C954 C953 1.389 . S
C954 C955 1.387 . S
C955 H940 0.930 . S
C955 C950 1.390 . S
C955 C954 1.387 . S
H956 C968 0.930 . S
H957 C970 0.930 . S
H958 C971 0.930 . S
H959 C975 0.959 . S
H960 C975 0.959 . S
H961 C975 0.961 . S
H962 C976 0.960 . S
H963 C976 0.961 . S
H964 C976 0.959 . S
H965 C979 0.929 . S
H966 C980 0.931 . S
H967 C982 0.930 . S
C968 H956 0.930 . S
C968 C969 1.399 . S
C968 C973 1.399 . S
C969 C968 1.399 . S
C969 C970 1.376 1_554 S
C970 H957 0.930 . S
C970 C969 1.376 1_556 S
C970 C971 1.388 . S
C971 H958 0.930 . S
C971 C970 1.388 . S
C971 C972 1.390 . S
C972 C971 1.390 . S
C972 C973 1.394 1_556 S
C972 C978 1.465 . S
C973 C968 1.399 . S
C973 C972 1.394 1_554 S
C973 C974 1.516 . S
C974 C973 1.516 . S
C974 C975 1.502 . S
C974 C976 1.561 . S
C974 C977 1.526 . S
C975 H959 0.959 . S
C975 H960 0.959 . S
C975 H961 0.961 . S
C975 C974 1.502 . S
C976 H962 0.960 . S
C976 H963 0.961 . S
C976 H964 0.959 . S
C976 C974 1.561 . S
C977 C974 1.526 . S
C977 C978 1.396 1_554 S
C977 C982 1.390 . S
C978 C972 1.465 . S
C978 C977 1.396 1_556 S
C978 C979 1.399 . S
C979 H965 0.929 . S
C979 C978 1.399 . S
C979 C980 1.385 . S
C980 H966 0.931 . S
C980 C979 1.385 . S
C980 C981 1.389 . S
C981 C980 1.389 . S
C981 C982 1.387 1_556 S
C982 H967 0.930 . S
C982 C977 1.390 . S
C982 C981 1.387 1_554 S
H983 C995 0.930 . S
H984 C997 0.930 . S
H985 C998 0.930 . S
H986 C1002 0.959 . S
H987 C1002 0.959 . S
H988 C1002 0.961 . S
H989 C1003 0.960 . S
H990 C1003 0.961 . S
H991 C1003 0.959 . S
H992 C1006 0.929 . S
H993 C1007 0.931 . S
H994 C1009 0.930 . S
C995 H983 0.930 . S
C995 C996 1.399 . S
C995 C1000 1.399 . S
C996 C995 1.399 . S
C996 C997 1.376 . S
C997 H984 0.930 . S
C997 C996 1.376 . S
C997 C998 1.388 . S
C998 H985 0.930 . S
C998 C997 1.388 . S
C998 C999 1.390 . S
C999 C998 1.390 . S
C999 C1000 1.394 . S
C999 C1005 1.465 . S
C1000 C995 1.399 . S
C1000 C999 1.394 . S
C1000 C1001 1.516 . S
C1001 C1000 1.516 . S
C1001 C1002 1.502 . S
C1001 C1003 1.561 . S
C1001 C1004 1.526 . S
C1002 H986 0.959 . S
C1002 H987 0.959 . S
C1002 H988 0.961 . S
C1002 C1001 1.502 . S
C1003 H989 0.960 . S
C1003 H990 0.961 . S
C1003 H991 0.959 . S
C1003 C1001 1.561 . S
C1004 C1001 1.526 . S
C1004 C1005 1.396 . S
C1004 C1009 1.390 . S
C1005 C999 1.465 . S
C1005 C1004 1.396 . S
C1005 C1006 1.399 . S
C1006 H992 0.929 . S
C1006 C1005 1.399 . S
C1006 C1007 1.385 . S
C1007 H993 0.931 . S
C1007 C1006 1.385 . S
C1007 C1008 1.389 . S
C1008 C1007 1.389 . S
C1008 C1009 1.387 . S
C1009 H994 0.930 . S
C1009 C1004 1.390 . S
C1009 C1008 1.387 . S
H1010 C1022 0.930 . S
H1011 C1024 0.930 . S
H1012 C1025 0.930 . S
H1013 C1029 0.959 . S
H1014 C1029 0.959 . S
H1015 C1029 0.961 . S
H1016 C1030 0.960 1_565 S
H1017 C1030 0.961 . S
H1018 C1030 0.959 . S
H1019 C1033 0.929 . S
H1020 C1034 0.931 . S
H1021 C1036 0.930 . S
C1022 H1010 0.930 . S
C1022 C1023 1.399 . S
C1022 C1027 1.399 . S
C1023 C1022 1.399 . S
C1023 C1024 1.376 . S
C1024 H1011 0.930 . S
C1024 C1023 1.376 . S
C1024 C1025 1.388 . S
C1025 H1012 0.930 . S
C1025 C1024 1.388 . S
C1025 C1026 1.390 . S
C1026 C1025 1.390 . S
C1026 C1027 1.394 . S
C1026 C1032 1.465 1_565 S
C1027 C1022 1.399 . S
C1027 C1026 1.394 . S
C1027 C1028 1.516 . S
C1028 C1027 1.516 . S
C1028 C1029 1.502 . S
C1028 C1030 1.561 1_565 S
C1028 C1031 1.526 1_565 S
C1029 H1013 0.959 . S
C1029 H1014 0.959 . S
C1029 H1015 0.961 . S
C1029 C1028 1.502 . S
C1030 H1016 0.960 1_545 S
C1030 H1017 0.961 . S
C1030 H1018 0.959 . S
C1030 C1028 1.561 1_545 S
C1031 C1028 1.526 1_545 S
C1031 C1032 1.396 . S
C1031 C1036 1.390 . S
C1032 C1026 1.465 1_545 S
C1032 C1031 1.396 . S
C1032 C1033 1.399 . S
C1033 H1019 0.929 . S
C1033 C1032 1.399 . S
C1033 C1034 1.385 . S
C1034 H1020 0.931 . S
C1034 C1033 1.385 . S
C1034 C1035 1.389 . S
C1035 C1034 1.389 . S
C1035 C1036 1.387 . S
C1036 H1021 0.930 . S
C1036 C1031 1.390 . S
C1036 C1035 1.387 . S
H1037 C1049 0.930 . S
H1038 C1051 0.930 . S
H1039 C1052 0.930 . S
H1040 C1056 0.959 . S
H1041 C1056 0.959 . S
H1042 C1056 0.961 . S
H1043 C1057 0.960 . S
H1044 C1057 0.961 . S
H1045 C1057 0.959 . S
H1046 C1060 0.929 . S
H1047 C1061 0.931 . S
H1048 C1063 0.930 . S
C1049 H1037 0.930 . S
C1049 C1050 1.399 . S
C1049 C1054 1.399 . S
C1050 C1049 1.399 . S
C1050 C1051 1.376 . S
C1051 H1038 0.930 . S
C1051 C1050 1.376 . S
C1051 C1052 1.388 . S
C1052 H1039 0.930 . S
C1052 C1051 1.388 . S
C1052 C1053 1.390 . S
C1053 C1052 1.390 . S
C1053 C1054 1.394 . S
C1053 C1059 1.465 . S
C1054 C1049 1.399 . S
C1054 C1053 1.394 . S
C1054 C1055 1.516 . S
C1055 C1054 1.516 . S
C1055 C1056 1.502 . S
C1055 C1057 1.561 . S
C1055 C1058 1.526 . S
C1056 H1040 0.959 . S
C1056 H1041 0.959 . S
C1056 H1042 0.961 . S
C1056 C1055 1.502 . S
C1057 H1043 0.960 . S
C1057 H1044 0.961 . S
C1057 H1045 0.959 . S
C1057 C1055 1.561 . S
C1058 C1055 1.526 . S
C1058 C1059 1.396 . S
C1058 C1063 1.390 . S
C1059 C1053 1.465 . S
C1059 C1058 1.396 . S
C1059 C1060 1.399 . S
C1060 H1046 0.929 . S
C1060 C1059 1.399 . S
C1060 C1061 1.385 . S
C1061 H1047 0.931 . S
C1061 C1060 1.385 . S
C1061 C1062 1.389 . S
C1062 C1061 1.389 . S
C1062 C1063 1.387 . S
C1063 H1048 0.930 . S
C1063 C1058 1.390 . S
C1063 C1062 1.387 . S
H1064 C1076 0.930 . S
H1065 C1078 0.930 . S
H1066 C1079 0.930 . S
H1067 C1083 0.959 . S
H1068 C1083 0.959 . S
H1069 C1083 0.961 . S
H1070 C1084 0.960 . S
H1071 C1084 0.961 . S
H1072 C1084 0.959 . S
H1073 C1087 0.929 . S
H1074 C1088 0.931 . S
H1075 C1090 0.930 . S
C1076 H1064 0.930 . S
C1076 C1077 1.399 . S
C1076 C1081 1.399 . S
C1077 C1076 1.399 . S
C1077 C1078 1.376 . S
C1078 H1065 0.930 . S
C1078 C1077 1.376 . S
C1078 C1079 1.388 . S
C1079 H1066 0.930 . S
C1079 C1078 1.388 . S
C1079 C1080 1.390 . S
C1080 C1079 1.390 . S
C1080 C1081 1.394 . S
C1080 C1086 1.465 . S
C1081 C1076 1.399 . S
C1081 C1080 1.394 . S
C1081 C1082 1.516 . S
C1082 C1081 1.516 . S
C1082 C1083 1.502 . S
C1082 C1084 1.561 . S
C1082 C1085 1.526 . S
C1083 H1067 0.959 . S
C1083 H1068 0.959 . S
C1083 H1069 0.961 . S
C1083 C1082 1.502 . S
C1084 H1070 0.960 . S
C1084 H1071 0.961 . S
C1084 H1072 0.959 . S
C1084 C1082 1.561 . S
C1085 C1082 1.526 . S
C1085 C1086 1.396 . S
C1085 C1090 1.390 . S
C1086 C1080 1.465 . S
C1086 C1085 1.396 . S
C1086 C1087 1.399 . S
C1087 H1073 0.929 . S
C1087 C1086 1.399 . S
C1087 C1088 1.385 . S
C1088 H1074 0.931 . S
C1088 C1087 1.385 . S
C1088 C1089 1.389 . S
C1089 C1088 1.389 . S
C1089 C1090 1.387 . S
C1090 H1075 0.930 . S
C1090 C1085 1.390 . S
C1090 C1089 1.387 . S
H1091 C1103 0.930 . S
H1092 C1105 0.930 . S
H1093 C1106 0.930 . S
H1094 C1110 0.959 . S
H1095 C1110 0.959 . S
H1096 C1110 0.961 . S
H1097 C1111 0.960 . S
H1098 C1111 0.961 . S
H1099 C1111 0.959 . S
H1100 C1114 0.929 . S
H1101 C1115 0.931 . S
H1102 C1117 0.930 . S
C1103 H1091 0.930 . S
C1103 C1104 1.399 . S
C1103 C1108 1.399 . S
C1104 C1103 1.399 . S
C1104 C1105 1.376 . S
C1105 H1092 0.930 . S
C1105 C1104 1.376 . S
C1105 C1106 1.388 . S
C1106 H1093 0.930 . S
C1106 C1105 1.388 . S
C1106 C1107 1.390 . S
C1107 C1106 1.390 . S
C1107 C1108 1.394 . S
C1107 C1113 1.465 . S
C1108 C1103 1.399 . S
C1108 C1107 1.394 . S
C1108 C1109 1.516 . S
C1109 C1108 1.516 . S
C1109 C1110 1.502 . S
C1109 C1111 1.561 . S
C1109 C1112 1.526 . S
C1110 H1094 0.959 . S
C1110 H1095 0.959 . S
C1110 H1096 0.961 . S
C1110 C1109 1.502 . S
C1111 H1097 0.960 . S
C1111 H1098 0.961 . S
C1111 H1099 0.959 . S
C1111 C1109 1.561 . S
C1112 C1109 1.526 . S
C1112 C1113 1.396 . S
C1112 C1117 1.390 . S
C1113 C1107 1.465 . S
C1113 C1112 1.396 . S
C1113 C1114 1.399 . S
C1114 H1100 0.929 . S
C1114 C1113 1.399 . S
C1114 C1115 1.385 . S
C1115 H1101 0.931 . S
C1115 C1114 1.385 . S
C1115 C1116 1.389 . S
C1116 C1115 1.389 . S
C1116 C1117 1.387 . S
C1117 H1102 0.930 . S
C1117 C1112 1.390 . S
C1117 C1116 1.387 . S
H1118 C1130 0.930 . S
H1119 C1132 0.930 . S
H1120 C1133 0.930 . S
H1121 C1137 0.959 . S
H1122 C1137 0.959 . S
H1123 C1137 0.961 . S
H1124 C1138 0.960 . S
H1125 C1138 0.961 . S
H1126 C1138 0.959 . S
H1127 C1141 0.929 . S
H1128 C1142 0.931 . S
H1129 C1144 0.930 . S
C1130 H1118 0.930 . S
C1130 C1131 1.399 . S
C1130 C1135 1.399 . S
C1131 C1130 1.399 . S
C1131 C1132 1.376 . S
C1132 H1119 0.930 . S
C1132 C1131 1.376 . S
C1132 C1133 1.388 . S
C1133 H1120 0.930 . S
C1133 C1132 1.388 . S
C1133 C1134 1.390 . S
C1134 C1133 1.390 . S
C1134 C1135 1.394 . S
C1134 C1140 1.465 . S
C1135 C1130 1.399 . S
C1135 C1134 1.394 . S
C1135 C1136 1.516 . S
C1136 C1135 1.516 . S
C1136 C1137 1.502 . S
C1136 C1138 1.561 . S
C1136 C1139 1.526 . S
C1137 H1121 0.959 . S
C1137 H1122 0.959 . S
C1137 H1123 0.961 . S
C1137 C1136 1.502 . S
C1138 H1124 0.960 . S
C1138 H1125 0.961 . S
C1138 H1126 0.959 . S
C1138 C1136 1.561 . S
C1139 C1136 1.526 . S
C1139 C1140 1.396 . S
C1139 C1144 1.390 . S
C1140 C1134 1.465 . S
C1140 C1139 1.396 . S
C1140 C1141 1.399 . S
C1141 H1127 0.929 . S
C1141 C1140 1.399 . S
C1141 C1142 1.385 . S
C1142 H1128 0.931 . S
C1142 C1141 1.385 . S
C1142 C1143 1.389 . S
C1143 C1142 1.389 . S
C1143 C1144 1.387 . S
C1144 H1129 0.930 . S
C1144 C1139 1.390 . S
C1144 C1143 1.387 . S
H1145 C1157 0.930 . S
H1146 C1159 0.930 . S
H1147 C1160 0.930 . S
H1148 C1164 0.959 . S
H1149 C1164 0.959 . S
H1150 C1164 0.961 . S
H1151 C1165 0.960 . S
H1152 C1165 0.961 . S
H1153 C1165 0.959 . S
H1154 C1168 0.929 . S
H1155 C1169 0.931 . S
H1156 C1171 0.930 . S
C1157 H1145 0.930 . S
C1157 C1158 1.399 . S
C1157 C1162 1.399 . S
C1158 C1157 1.399 . S
C1158 C1159 1.376 . S
C1159 H1146 0.930 . S
C1159 C1158 1.376 . S
C1159 C1160 1.388 . S
C1160 H1147 0.930 . S
C1160 C1159 1.388 . S
C1160 C1161 1.390 . S
C1161 C1160 1.390 . S
C1161 C1162 1.394 . S
C1161 C1167 1.465 . S
C1162 C1157 1.399 . S
C1162 C1161 1.394 . S
C1162 C1163 1.516 . S
C1163 C1162 1.516 . S
C1163 C1164 1.502 . S
C1163 C1165 1.561 . S
C1163 C1166 1.526 . S
C1164 H1148 0.959 . S
C1164 H1149 0.959 . S
C1164 H1150 0.961 . S
C1164 C1163 1.502 . S
C1165 H1151 0.960 . S
C1165 H1152 0.961 . S
C1165 H1153 0.959 . S
C1165 C1163 1.561 . S
C1166 C1163 1.526 . S
C1166 C1167 1.396 . S
C1166 C1171 1.390 . S
C1167 C1161 1.465 . S
C1167 C1166 1.396 . S
C1167 C1168 1.399 . S
C1168 H1154 0.929 . S
C1168 C1167 1.399 . S
C1168 C1169 1.385 . S
C1169 H1155 0.931 . S
C1169 C1168 1.385 . S
C1169 C1170 1.389 . S
C1170 C1169 1.389 . S
C1170 C1171 1.387 . S
C1171 H1156 0.930 . S
C1171 C1166 1.390 . S
C1171 C1170 1.387 . S
H1172 C1184 0.930 . S
H1173 C1186 0.930 . S
H1174 C1187 0.930 . S
H1175 C1191 0.959 . S
H1176 C1191 0.959 . S
H1177 C1191 0.961 . S
H1178 C1192 0.960 1_565 S
H1179 C1192 0.961 . S
H1180 C1192 0.959 . S
H1181 C1195 0.929 . S
H1182 C1196 0.931 . S
H1183 C1198 0.930 . S
C1184 H1172 0.930 . S
C1184 C1185 1.399 . S
C1184 C1189 1.399 . S
C1185 C1184 1.399 . S
C1185 C1186 1.376 . S
C1186 H1173 0.930 . S
C1186 C1185 1.376 . S
C1186 C1187 1.388 . S
C1187 H1174 0.930 . S
C1187 C1186 1.388 . S
C1187 C1188 1.390 . S
C1188 C1187 1.390 . S
C1188 C1189 1.394 . S
C1188 C1194 1.465 1_465 S
C1189 C1184 1.399 . S
C1189 C1188 1.394 . S
C1189 C1190 1.516 1_455 S
C1190 C1189 1.516 1_655 S
C1190 C1191 1.502 . S
C1190 C1192 1.561 1_665 S
C1190 C1193 1.526 1_565 S
C1191 H1175 0.959 . S
C1191 H1176 0.959 . S
C1191 H1177 0.961 . S
C1191 C1190 1.502 . S
C1192 H1178 0.960 1_545 S
C1192 H1179 0.961 . S
C1192 H1180 0.959 . S
C1192 C1190 1.561 1_445 S
C1193 C1190 1.526 1_545 S
C1193 C1194 1.396 . S
C1193 C1198 1.390 . S
C1194 C1188 1.465 1_645 S
C1194 C1193 1.396 . S
C1194 C1195 1.399 . S
C1195 H1181 0.929 . S
C1195 C1194 1.399 . S
C1195 C1196 1.385 . S
C1196 H1182 0.931 . S
C1196 C1195 1.385 . S
C1196 C1197 1.389 . S
C1197 C1196 1.389 . S
C1197 C1198 1.387 . S
C1198 H1183 0.930 . S
C1198 C1193 1.390 . S
C1198 C1197 1.387 . S
H1199 C1211 0.930 . S
H1200 C1213 0.930 . S
H1201 C1214 0.930 . S
H1202 C1218 0.959 . S
H1203 C1218 0.959 . S
H1204 C1218 0.961 . S
H1205 C1219 0.960 . S
H1206 C1219 0.961 . S
H1207 C1219 0.959 . S
H1208 C1222 0.929 . S
H1209 C1223 0.931 . S
H1210 C1225 0.930 . S
C1211 H1199 0.930 . S
C1211 C1212 1.399 . S
C1211 C1216 1.399 . S
C1212 C1211 1.399 . S
C1212 C1213 1.376 . S
C1213 H1200 0.930 . S
C1213 C1212 1.376 . S
C1213 C1214 1.388 . S
C1214 H1201 0.930 . S
C1214 C1213 1.388 . S
C1214 C1215 1.390 . S
C1215 C1214 1.390 . S
C1215 C1216 1.394 . S
C1215 C1221 1.465 1_655 S
C1216 C1211 1.399 . S
C1216 C1215 1.394 . S
C1216 C1217 1.516 1_655 S
C1217 C1216 1.516 1_455 S
C1217 C1218 1.502 . S
C1217 C1219 1.561 1_455 S
C1217 C1220 1.526 . S
C1218 H1202 0.959 . S
C1218 H1203 0.959 . S
C1218 H1204 0.961 . S
C1218 C1217 1.502 . S
C1219 H1205 0.960 . S
C1219 H1206 0.961 . S
C1219 H1207 0.959 . S
C1219 C1217 1.561 1_655 S
C1220 C1217 1.526 . S
C1220 C1221 1.396 . S
C1220 C1225 1.390 . S
C1221 C1215 1.465 1_455 S
C1221 C1220 1.396 . S
C1221 C1222 1.399 . S
C1222 H1208 0.929 . S
C1222 C1221 1.399 . S
C1222 C1223 1.385 . S
C1223 H1209 0.931 . S
C1223 C1222 1.385 . S
C1223 C1224 1.389 . S
C1224 C1223 1.389 . S
C1224 C1225 1.387 . S
C1225 H1210 0.930 . S
C1225 C1220 1.390 . S
C1225 C1224 1.387 . S
H1226 C1238 0.930 . S
H1227 C1240 0.930 . S
H1228 C1241 0.930 . S
H1229 C1245 0.959 . S
H1230 C1245 0.959 1_655 S
H1231 C1245 0.961 . S
H1232 C1246 0.960 . S
H1233 C1246 0.961 . S
H1234 C1246 0.959 . S
H1235 C1249 0.929 . S
H1236 C1250 0.931 . S
H1237 C1252 0.930 . S
C1238 H1226 0.930 . S
C1238 C1239 1.399 . S
C1238 C1243 1.399 . S
C1239 C1238 1.399 . S
C1239 C1240 1.376 . S
C1240 H1227 0.930 . S
C1240 C1239 1.376 . S
C1240 C1241 1.388 . S
C1241 H1228 0.930 . S
C1241 C1240 1.388 . S
C1241 C1242 1.390 . S
C1242 C1241 1.390 . S
C1242 C1243 1.394 . S
C1242 C1248 1.465 1_455 S
C1243 C1238 1.399 . S
C1243 C1242 1.394 . S
C1243 C1244 1.516 1_455 S
C1244 C1243 1.516 1_655 S
C1244 C1245 1.502 1_655 S
C1244 C1246 1.561 . S
C1244 C1247 1.526 . S
C1245 H1229 0.959 . S
C1245 H1230 0.959 1_455 S
C1245 H1231 0.961 . S
C1245 C1244 1.502 1_455 S
C1246 H1232 0.960 . S
C1246 H1233 0.961 . S
C1246 H1234 0.959 . S
C1246 C1244 1.561 . S
C1247 C1244 1.526 . S
C1247 C1248 1.396 . S
C1247 C1252 1.390 . S
C1248 C1242 1.465 1_655 S
C1248 C1247 1.396 . S
C1248 C1249 1.399 . S
C1249 H1235 0.929 . S
C1249 C1248 1.399 . S
C1249 C1250 1.385 . S
C1250 H1236 0.931 . S
C1250 C1249 1.385 . S
C1250 C1251 1.389 . S
C1251 C1250 1.389 . S
C1251 C1252 1.387 . S
C1252 H1237 0.930 . S
C1252 C1247 1.390 . S
C1252 C1251 1.387 . S
H1253 C1265 0.930 . S
H1254 C1267 0.930 . S
H1255 C1268 0.930 . S
H1256 C1272 0.959 1_655 S
H1257 C1272 0.959 1_655 S
H1258 C1272 0.961 . S
H1259 C1273 0.960 . S
H1260 C1273 0.961 . S
H1261 C1273 0.959 . S
H1262 C1276 0.929 . S
H1263 C1277 0.931 . S
H1264 C1279 0.930 . S
C1265 H1253 0.930 . S
C1265 C1266 1.399 1_554 S
C1265 C1270 1.399 . S
C1266 C1265 1.399 1_556 S
C1266 C1267 1.376 . S
C1267 H1254 0.930 . S
C1267 C1266 1.376 . S
C1267 C1268 1.388 . S
C1268 H1255 0.930 . S
C1268 C1267 1.388 . S
C1268 C1269 1.390 . S
C1269 C1268 1.390 . S
C1269 C1270 1.394 1_556 S
C1269 C1275 1.465 1_455 S
C1270 C1265 1.399 . S
C1270 C1269 1.394 1_554 S
C1270 C1271 1.516 . S
C1271 C1270 1.516 . S
C1271 C1272 1.502 . S
C1271 C1273 1.561 . S
C1271 C1274 1.526 1_455 S
C1272 H1256 0.959 1_455 S
C1272 H1257 0.959 1_455 S
C1272 H1258 0.961 . S
C1272 C1271 1.502 . S
C1273 H1259 0.960 . S
C1273 H1260 0.961 . S
C1273 H1261 0.959 . S
C1273 C1271 1.561 . S
C1274 C1271 1.526 1_655 S
C1274 C1275 1.396 1_554 S
C1274 C1279 1.390 . S
C1275 C1269 1.465 1_655 S
C1275 C1274 1.396 1_556 S
C1275 C1276 1.399 . S
C1276 H1262 0.929 . S
C1276 C1275 1.399 . S
C1276 C1277 1.385 . S
C1277 H1263 0.931 . S
C1277 C1276 1.385 . S
C1277 C1278 1.389 1_556 S
C1278 C1277 1.389 1_554 S
C1278 C1279 1.387 . S
C1279 H1264 0.930 . S
C1279 C1274 1.390 . S
C1279 C1278 1.387 . S
H1280 C1292 0.930 . S
H1281 C1294 0.930 . S
H1282 C1295 0.930 . S
H1283 C1299 0.959 . S
H1284 C1299 0.959 . S
H1285 C1299 0.961 . S
H1286 C1300 0.960 . S
H1287 C1300 0.961 . S
H1288 C1300 0.959 . S
H1289 C1303 0.929 . S
H1290 C1304 0.931 . S
H1291 C1306 0.930 . S
C1292 H1280 0.930 . S
C1292 C1293 1.399 . S
C1292 C1297 1.399 . S
C1293 C1292 1.399 . S
C1293 C1294 1.376 . S
C1294 H1281 0.930 . S
C1294 C1293 1.376 . S
C1294 C1295 1.388 . S
C1295 H1282 0.930 . S
C1295 C1294 1.388 . S
C1295 C1296 1.390 . S
C1296 C1295 1.390 . S
C1296 C1297 1.394 . S
C1296 C1302 1.465 . S
C1297 C1292 1.399 . S
C1297 C1296 1.394 . S
C1297 C1298 1.516 . S
C1298 C1297 1.516 . S
C1298 C1299 1.502 . S
C1298 C1300 1.561 . S
C1298 C1301 1.526 . S
C1299 H1283 0.959 . S
C1299 H1284 0.959 . S
C1299 H1285 0.961 . S
C1299 C1298 1.502 . S
C1300 H1286 0.960 . S
C1300 H1287 0.961 . S
C1300 H1288 0.959 . S
C1300 C1298 1.561 . S
C1301 C1298 1.526 . S
C1301 C1302 1.396 . S
C1301 C1306 1.390 . S
C1302 C1296 1.465 . S
C1302 C1301 1.396 . S
C1302 C1303 1.399 . S
C1303 H1289 0.929 . S
C1303 C1302 1.399 . S
C1303 C1304 1.385 . S
C1304 H1290 0.931 . S
C1304 C1303 1.385 . S
C1304 C1305 1.389 . S
C1305 C1304 1.389 . S
C1305 C1306 1.387 . S
C1306 H1291 0.930 . S
C1306 C1301 1.390 . S
C1306 C1305 1.387 . S
H1307 C1319 0.930 . S
H1308 C1321 0.930 1_455 S
H1309 C1322 0.930 . S
H1310 C1326 0.959 . S
H1311 C1326 0.959 . S
H1312 C1326 0.961 . S
H1313 C1327 0.960 . S
H1314 C1327 0.961 . S
H1315 C1327 0.959 . S
H1316 C1330 0.929 . S
H1317 C1331 0.931 . S
H1318 C1333 0.930 . S
C1319 H1307 0.930 . S
C1319 C1320 1.399 . S
C1319 C1324 1.399 . S
C1320 C1319 1.399 . S
C1320 C1321 1.376 . S
C1321 H1308 0.930 1_655 S
C1321 C1320 1.376 . S
C1321 C1322 1.388 . S
C1322 H1309 0.930 . S
C1322 C1321 1.388 . S
C1322 C1323 1.390 . S
C1323 C1322 1.390 . S
C1323 C1324 1.394 . S
C1323 C1329 1.465 . S
C1324 C1319 1.399 . S
C1324 C1323 1.394 . S
C1324 C1325 1.516 . S
C1325 C1324 1.516 . S
C1325 C1326 1.502 . S
C1325 C1327 1.561 . S
C1325 C1328 1.526 . S
C1326 H1310 0.959 . S
C1326 H1311 0.959 . S
C1326 H1312 0.961 . S
C1326 C1325 1.502 . S
C1327 H1313 0.960 . S
C1327 H1314 0.961 . S
C1327 H1315 0.959 . S
C1327 C1325 1.561 . S
C1328 C1325 1.526 . S
C1328 C1329 1.396 . S
C1328 C1333 1.390 . S
C1329 C1323 1.465 . S
C1329 C1328 1.396 . S
C1329 C1330 1.399 . S
C1330 H1316 0.929 . S
C1330 C1329 1.399 . S
C1330 C1331 1.385 . S
C1331 H1317 0.931 . S
C1331 C1330 1.385 . S
C1331 C1332 1.389 . S
C1332 C1331 1.389 . S
C1332 C1333 1.387 . S
C1333 H1318 0.930 . S
C1333 C1328 1.390 . S
C1333 C1332 1.387 . S
H1334 C1346 0.930 . S
H1335 C1348 0.930 . S
H1336 C1349 0.930 . S
H1337 C1353 0.959 . S
H1338 C1353 0.959 . S
H1339 C1353 0.961 . S
H1340 C1354 0.960 . S
H1341 C1354 0.961 . S
H1342 C1354 0.959 . S
H1343 C1357 0.929 . S
H1344 C1358 0.931 . S
H1345 C1360 0.930 . S
C1346 H1334 0.930 . S
C1346 C1347 1.399 . S
C1346 C1351 1.399 . S
C1347 C1346 1.399 . S
C1347 C1348 1.376 . S
C1348 H1335 0.930 . S
C1348 C1347 1.376 . S
C1348 C1349 1.388 . S
C1349 H1336 0.930 . S
C1349 C1348 1.388 . S
C1349 C1350 1.390 . S
C1350 C1349 1.390 . S
C1350 C1351 1.394 . S
C1350 C1356 1.465 . S
C1351 C1346 1.399 . S
C1351 C1350 1.394 . S
C1351 C1352 1.516 . S
C1352 C1351 1.516 . S
C1352 C1353 1.502 . S
C1352 C1354 1.561 . S
C1352 C1355 1.526 . S
C1353 H1337 0.959 . S
C1353 H1338 0.959 . S
C1353 H1339 0.961 . S
C1353 C1352 1.502 . S
C1354 H1340 0.960 . S
C1354 H1341 0.961 . S
C1354 H1342 0.959 . S
C1354 C1352 1.561 . S
C1355 C1352 1.526 . S
C1355 C1356 1.396 . S
C1355 C1360 1.390 . S
C1356 C1350 1.465 . S
C1356 C1355 1.396 . S
C1356 C1357 1.399 . S
C1357 H1343 0.929 . S
C1357 C1356 1.399 . S
C1357 C1358 1.385 . S
C1358 H1344 0.931 . S
C1358 C1357 1.385 . S
C1358 C1359 1.389 . S
C1359 C1358 1.389 . S
C1359 C1360 1.387 . S
C1360 H1345 0.930 . S
C1360 C1355 1.390 . S
C1360 C1359 1.387 . S
H1361 C1373 0.930 . S
H1362 C1375 0.930 . S
H1363 C1376 0.930 . S
H1364 C1380 0.959 . S
H1365 C1380 0.959 . S
H1366 C1380 0.961 . S
H1367 C1381 0.960 . S
H1368 C1381 0.961 . S
H1369 C1381 0.959 . S
H1370 C1384 0.929 . S
H1371 C1385 0.931 . S
H1372 C1387 0.930 . S
C1373 H1361 0.930 . S
C1373 C1374 1.399 . S
C1373 C1378 1.399 . S
C1374 C1373 1.399 . S
C1374 C1375 1.376 . S
C1375 H1362 0.930 . S
C1375 C1374 1.376 . S
C1375 C1376 1.388 . S
C1376 H1363 0.930 . S
C1376 C1375 1.388 . S
C1376 C1377 1.390 . S
C1377 C1376 1.390 . S
C1377 C1378 1.394 . S
C1377 C1383 1.465 . S
C1378 C1373 1.399 . S
C1378 C1377 1.394 . S
C1378 C1379 1.516 . S
C1379 C1378 1.516 . S
C1379 C1380 1.502 . S
C1379 C1381 1.561 . S
C1379 C1382 1.526 . S
C1380 H1364 0.959 . S
C1380 H1365 0.959 . S
C1380 H1366 0.961 . S
C1380 C1379 1.502 . S
C1381 H1367 0.960 . S
C1381 H1368 0.961 . S
C1381 H1369 0.959 . S
C1381 C1379 1.561 . S
C1382 C1379 1.526 . S
C1382 C1383 1.396 . S
C1382 C1387 1.390 . S
C1383 C1377 1.465 . S
C1383 C1382 1.396 . S
C1383 C1384 1.399 . S
C1384 H1370 0.929 . S
C1384 C1383 1.399 . S
C1384 C1385 1.385 . S
C1385 H1371 0.931 . S
C1385 C1384 1.385 . S
C1385 C1386 1.389 . S
C1386 C1385 1.389 . S
C1386 C1387 1.387 . S
C1387 H1372 0.930 . S
C1387 C1382 1.390 . S
C1387 C1386 1.387 . S
H1388 C1400 0.930 . S
H1389 C1402 0.930 . S
H1390 C1403 0.930 . S
H1391 C1407 0.959 . S
H1392 C1407 0.959 . S
H1393 C1407 0.961 . S
H1394 C1408 0.960 . S
H1395 C1408 0.961 . S
H1396 C1408 0.959 . S
H1397 C1411 0.929 . S
H1398 C1412 0.931 . S
H1399 C1414 0.930 . S
C1400 H1388 0.930 . S
C1400 C1401 1.399 . S
C1400 C1405 1.399 . S
C1401 C1400 1.399 . S
C1401 C1402 1.376 . S
C1402 H1389 0.930 . S
C1402 C1401 1.376 . S
C1402 C1403 1.388 . S
C1403 H1390 0.930 . S
C1403 C1402 1.388 . S
C1403 C1404 1.390 . S
C1404 C1403 1.390 . S
C1404 C1405 1.394 . S
C1404 C1410 1.465 . S
C1405 C1400 1.399 . S
C1405 C1404 1.394 . S
C1405 C1406 1.516 . S
C1406 C1405 1.516 . S
C1406 C1407 1.502 . S
C1406 C1408 1.561 . S
C1406 C1409 1.526 . S
C1407 H1391 0.959 . S
C1407 H1392 0.959 . S
C1407 H1393 0.961 . S
C1407 C1406 1.502 . S
C1408 H1394 0.960 . S
C1408 H1395 0.961 . S
C1408 H1396 0.959 . S
C1408 C1406 1.561 . S
C1409 C1406 1.526 . S
C1409 C1410 1.396 . S
C1409 C1414 1.390 . S
C1410 C1404 1.465 . S
C1410 C1409 1.396 . S
C1410 C1411 1.399 . S
C1411 H1397 0.929 . S
C1411 C1410 1.399 . S
C1411 C1412 1.385 . S
C1412 H1398 0.931 . S
C1412 C1411 1.385 . S
C1412 C1413 1.389 . S
C1413 C1412 1.389 . S
C1413 C1414 1.387 . S
C1414 H1399 0.930 . S
C1414 C1409 1.390 . S
C1414 C1413 1.387 . S
H1415 C1427 0.930 . S
H1416 C1429 0.930 1_655 S
H1417 C1430 0.930 . S
H1418 C1434 0.959 . S
H1419 C1434 0.959 . S
H1420 C1434 0.961 . S
H1421 C1435 0.960 . S
H1422 C1435 0.961 . S
H1423 C1435 0.959 . S
H1424 C1438 0.929 . S
H1425 C1439 0.931 . S
H1426 C1441 0.930 . S
C1427 H1415 0.930 . S
C1427 C1428 1.399 . S
C1427 C1432 1.399 . S
C1428 C1427 1.399 . S
C1428 C1429 1.376 . S
C1429 H1416 0.930 1_455 S
C1429 C1428 1.376 . S
C1429 C1430 1.388 . S
C1430 H1417 0.930 . S
C1430 C1429 1.388 . S
C1430 C1431 1.390 . S
C1431 C1430 1.390 . S
C1431 C1432 1.394 . S
C1431 C1437 1.465 . S
C1432 C1427 1.399 . S
C1432 C1431 1.394 . S
C1432 C1433 1.516 . S
C1433 C1432 1.516 . S
C1433 C1434 1.502 . S
C1433 C1435 1.561 . S
C1433 C1436 1.526 . S
C1434 H1418 0.959 . S
C1434 H1419 0.959 . S
C1434 H1420 0.961 . S
C1434 C1433 1.502 . S
C1435 H1421 0.960 . S
C1435 H1422 0.961 . S
C1435 H1423 0.959 . S
C1435 C1433 1.561 . S
C1436 C1433 1.526 . S
C1436 C1437 1.396 . S
C1436 C1441 1.390 . S
C1437 C1431 1.465 . S
C1437 C1436 1.396 . S
C1437 C1438 1.399 . S
C1438 H1424 0.929 . S
C1438 C1437 1.399 . S
C1438 C1439 1.385 . S
C1439 H1425 0.931 . S
C1439 C1438 1.385 . S
C1439 C1440 1.389 . S
C1440 C1439 1.389 . S
C1440 C1441 1.387 . S
C1441 H1426 0.930 . S
C1441 C1436 1.390 . S
C1441 C1440 1.387 . S
H1442 C1454 0.930 . S
H1443 C1456 0.930 . S
H1444 C1457 0.930 . S
H1445 C1461 0.959 . S
H1446 C1461 0.959 . S
H1447 C1461 0.961 . S
H1448 C1462 0.960 . S
H1449 C1462 0.961 . S
H1450 C1462 0.959 . S
H1451 C1465 0.929 . S
H1452 C1466 0.931 . S
H1453 C1468 0.930 . S
C1454 H1442 0.930 . S
C1454 C1455 1.399 . S
C1454 C1459 1.399 . S
C1455 C1454 1.399 . S
C1455 C1456 1.376 . S
C1456 H1443 0.930 . S
C1456 C1455 1.376 . S
C1456 C1457 1.388 . S
C1457 H1444 0.930 . S
C1457 C1456 1.388 . S
C1457 C1458 1.390 . S
C1458 C1457 1.390 . S
C1458 C1459 1.394 . S
C1458 C1464 1.465 . S
C1459 C1454 1.399 . S
C1459 C1458 1.394 . S
C1459 C1460 1.516 . S
C1460 C1459 1.516 . S
C1460 C1461 1.502 . S
C1460 C1462 1.561 . S
C1460 C1463 1.526 . S
C1461 H1445 0.959 . S
C1461 H1446 0.959 . S
C1461 H1447 0.961 . S
C1461 C1460 1.502 . S
C1462 H1448 0.960 . S
C1462 H1449 0.961 . S
C1462 H1450 0.959 . S
C1462 C1460 1.561 . S
C1463 C1460 1.526 . S
C1463 C1464 1.396 . S
C1463 C1468 1.390 . S
C1464 C1458 1.465 . S
C1464 C1463 1.396 . S
C1464 C1465 1.399 . S
C1465 H1451 0.929 . S
C1465 C1464 1.399 . S
C1465 C1466 1.385 . S
C1466 H1452 0.931 . S
C1466 C1465 1.385 . S
C1466 C1467 1.389 . S
C1467 C1466 1.389 . S
C1467 C1468 1.387 . S
C1468 H1453 0.930 . S
C1468 C1463 1.390 . S
C1468 C1467 1.387 . S
H1469 C1481 0.930 . S
H1470 C1483 0.930 . S
H1471 C1484 0.930 . S
H1472 C1488 0.959 . S
H1473 C1488 0.959 . S
H1474 C1488 0.961 . S
H1475 C1489 0.960 . S
H1476 C1489 0.961 . S
H1477 C1489 0.959 . S
H1478 C1492 0.929 . S
H1479 C1493 0.931 1_655 S
H1480 C1495 0.930 . S
C1481 H1469 0.930 . S
C1481 C1482 1.399 . S
C1481 C1486 1.399 . S
C1482 C1481 1.399 . S
C1482 C1483 1.376 . S
C1483 H1470 0.930 . S
C1483 C1482 1.376 . S
C1483 C1484 1.388 . S
C1484 H1471 0.930 . S
C1484 C1483 1.388 . S
C1484 C1485 1.390 . S
C1485 C1484 1.390 . S
C1485 C1486 1.394 . S
C1485 C1491 1.465 . S
C1486 C1481 1.399 . S
C1486 C1485 1.394 . S
C1486 C1487 1.516 . S
C1487 C1486 1.516 . S
C1487 C1488 1.502 . S
C1487 C1489 1.561 . S
C1487 C1490 1.526 . S
C1488 H1472 0.959 . S
C1488 H1473 0.959 . S
C1488 H1474 0.961 . S
C1488 C1487 1.502 . S
C1489 H1475 0.960 . S
C1489 H1476 0.961 . S
C1489 H1477 0.959 . S
C1489 C1487 1.561 . S
C1490 C1487 1.526 . S
C1490 C1491 1.396 . S
C1490 C1495 1.390 . S
C1491 C1485 1.465 . S
C1491 C1490 1.396 . S
C1491 C1492 1.399 . S
C1492 H1478 0.929 . S
C1492 C1491 1.399 . S
C1492 C1493 1.385 . S
C1493 H1479 0.931 1_455 S
C1493 C1492 1.385 . S
C1493 C1494 1.389 . S
C1494 C1493 1.389 . S
C1494 C1495 1.387 . S
C1495 H1480 0.930 . S
C1495 C1490 1.390 . S
C1495 C1494 1.387 . S
H1496 C1508 0.930 . S
H1497 C1510 0.930 . S
H1498 C1511 0.930 . S
H1499 C1515 0.959 . S
H1500 C1515 0.959 . S
H1501 C1515 0.961 . S
H1502 C1516 0.960 . S
H1503 C1516 0.961 . S
H1504 C1516 0.959 . S
H1505 C1519 0.929 . S
H1506 C1520 0.931 . S
H1507 C1522 0.930 . S
C1508 H1496 0.930 . S
C1508 C1509 1.399 . S
C1508 C1513 1.399 . S
C1509 C1508 1.399 . S
C1509 C1510 1.376 . S
C1510 H1497 0.930 . S
C1510 C1509 1.376 . S
C1510 C1511 1.388 . S
C1511 H1498 0.930 . S
C1511 C1510 1.388 . S
C1511 C1512 1.390 . S
C1512 C1511 1.390 . S
C1512 C1513 1.394 . S
C1512 C1518 1.465 . S
C1513 C1508 1.399 . S
C1513 C1512 1.394 . S
C1513 C1514 1.516 . S
C1514 C1513 1.516 . S
C1514 C1515 1.502 . S
C1514 C1516 1.561 . S
C1514 C1517 1.526 . S
C1515 H1499 0.959 . S
C1515 H1500 0.959 . S
C1515 H1501 0.961 . S
C1515 C1514 1.502 . S
C1516 H1502 0.960 . S
C1516 H1503 0.961 . S
C1516 H1504 0.959 . S
C1516 C1514 1.561 . S
C1517 C1514 1.526 . S
C1517 C1518 1.396 . S
C1517 C1522 1.390 . S
C1518 C1512 1.465 . S
C1518 C1517 1.396 . S
C1518 C1519 1.399 . S
C1519 H1505 0.929 . S
C1519 C1518 1.399 . S
C1519 C1520 1.385 . S
C1520 H1506 0.931 . S
C1520 C1519 1.385 . S
C1520 C1521 1.389 . S
C1521 C1520 1.389 . S
C1521 C1522 1.387 . S
C1522 H1507 0.930 . S
C1522 C1517 1.390 . S
C1522 C1521 1.387 . S
H1523 C1535 0.930 . S
H1524 C1537 0.930 . S
H1525 C1538 0.930 . S
H1526 C1542 0.959 . S
H1527 C1542 0.959 . S
H1528 C1542 0.961 . S
H1529 C1543 0.960 . S
H1530 C1543 0.961 . S
H1531 C1543 0.959 . S
H1532 C1546 0.929 . S
H1533 C1547 0.931 1_455 S
H1534 C1549 0.930 . S
C1535 H1523 0.930 . S
C1535 C1536 1.399 . S
C1535 C1540 1.399 . S
C1536 C1535 1.399 . S
C1536 C1537 1.376 . S
C1537 H1524 0.930 . S
C1537 C1536 1.376 . S
C1537 C1538 1.388 . S
C1538 H1525 0.930 . S
C1538 C1537 1.388 . S
C1538 C1539 1.390 . S
C1539 C1538 1.390 . S
C1539 C1540 1.394 . S
C1539 C1545 1.465 . S
C1540 C1535 1.399 . S
C1540 C1539 1.394 . S
C1540 C1541 1.516 . S
C1541 C1540 1.516 . S
C1541 C1542 1.502 . S
C1541 C1543 1.561 . S
C1541 C1544 1.526 . S
C1542 H1526 0.959 . S
C1542 H1527 0.959 . S
C1542 H1528 0.961 . S
C1542 C1541 1.502 . S
C1543 H1529 0.960 . S
C1543 H1530 0.961 . S
C1543 H1531 0.959 . S
C1543 C1541 1.561 . S
C1544 C1541 1.526 . S
C1544 C1545 1.396 . S
C1544 C1549 1.390 . S
C1545 C1539 1.465 . S
C1545 C1544 1.396 . S
C1545 C1546 1.399 . S
C1546 H1532 0.929 . S
C1546 C1545 1.399 . S
C1546 C1547 1.385 . S
C1547 H1533 0.931 1_655 S
C1547 C1546 1.385 . S
C1547 C1548 1.389 . S
C1548 C1547 1.389 . S
C1548 C1549 1.387 . S
C1549 H1534 0.930 . S
C1549 C1544 1.390 . S
C1549 C1548 1.387 . S
H1550 C1562 0.930 . S
H1551 C1564 0.930 . S
H1552 C1565 0.930 . S
H1553 C1569 0.959 . S
H1554 C1569 0.959 . S
H1555 C1569 0.961 . S
H1556 C1570 0.960 . S
H1557 C1570 0.961 . S
H1558 C1570 0.959 . S
H1559 C1573 0.929 . S
H1560 C1574 0.931 . S
H1561 C1576 0.930 . S
C1562 H1550 0.930 . S
C1562 C1563 1.399 . S
C1562 C1567 1.399 . S
C1563 C1562 1.399 . S
C1563 C1564 1.376 . S
C1564 H1551 0.930 . S
C1564 C1563 1.376 . S
C1564 C1565 1.388 . S
C1565 H1552 0.930 . S
C1565 C1564 1.388 . S
C1565 C1566 1.390 . S
C1566 C1565 1.390 . S
C1566 C1567 1.394 . S
C1566 C1572 1.465 . S
C1567 C1562 1.399 . S
C1567 C1566 1.394 . S
C1567 C1568 1.516 . S
C1568 C1567 1.516 . S
C1568 C1569 1.502 . S
C1568 C1570 1.561 . S
C1568 C1571 1.526 . S
C1569 H1553 0.959 . S
C1569 H1554 0.959 . S
C1569 H1555 0.961 . S
C1569 C1568 1.502 . S
C1570 H1556 0.960 . S
C1570 H1557 0.961 . S
C1570 H1558 0.959 . S
C1570 C1568 1.561 . S
C1571 C1568 1.526 . S
C1571 C1572 1.396 . S
C1571 C1576 1.390 . S
C1572 C1566 1.465 . S
C1572 C1571 1.396 . S
C1572 C1573 1.399 . S
C1573 H1559 0.929 . S
C1573 C1572 1.399 . S
C1573 C1574 1.385 . S
C1574 H1560 0.931 . S
C1574 C1573 1.385 . S
C1574 C1575 1.389 . S
C1575 C1574 1.389 . S
C1575 C1576 1.387 . S
C1576 H1561 0.930 . S
C1576 C1571 1.390 . S
C1576 C1575 1.387 . S
H1577 C1589 0.930 . S
H1578 C1591 0.930 1_455 S
H1579 C1592 0.930 . S
H1580 C1596 0.959 . S
H1581 C1596 0.959 . S
H1582 C1596 0.961 . S
H1583 C1597 0.960 . S
H1584 C1597 0.961 . S
H1585 C1597 0.959 . S
H1586 C1600 0.929 . S
H1587 C1601 0.931 . S
H1588 C1603 0.930 . S
C1589 H1577 0.930 . S
C1589 C1590 1.399 . S
C1589 C1594 1.399 . S
C1590 C1589 1.399 . S
C1590 C1591 1.376 . S
C1591 H1578 0.930 1_655 S
C1591 C1590 1.376 . S
C1591 C1592 1.388 . S
C1592 H1579 0.930 . S
C1592 C1591 1.388 . S
C1592 C1593 1.390 . S
C1593 C1592 1.390 . S
C1593 C1594 1.394 . S
C1593 C1599 1.465 . S
C1594 C1589 1.399 . S
C1594 C1593 1.394 . S
C1594 C1595 1.516 . S
C1595 C1594 1.516 . S
C1595 C1596 1.502 . S
C1595 C1597 1.561 . S
C1595 C1598 1.526 . S
C1596 H1580 0.959 . S
C1596 H1581 0.959 . S
C1596 H1582 0.961 . S
C1596 C1595 1.502 . S
C1597 H1583 0.960 . S
C1597 H1584 0.961 . S
C1597 H1585 0.959 . S
C1597 C1595 1.561 . S
C1598 C1595 1.526 . S
C1598 C1599 1.396 . S
C1598 C1603 1.390 . S
C1599 C1593 1.465 . S
C1599 C1598 1.396 . S
C1599 C1600 1.399 . S
C1600 H1586 0.929 . S
C1600 C1599 1.399 . S
C1600 C1601 1.385 . S
C1601 H1587 0.931 . S
C1601 C1600 1.385 . S
C1601 C1602 1.389 . S
C1602 C1601 1.389 . S
C1602 C1603 1.387 . S
C1603 H1588 0.930 . S
C1603 C1598 1.390 . S
C1603 C1602 1.387 . S
H1604 C1616 0.930 . S
H1605 C1618 0.930 . S
H1606 C1619 0.930 . S
H1607 C1623 0.959 . S
H1608 C1623 0.959 . S
H1609 C1623 0.961 . S
H1610 C1624 0.960 . S
H1611 C1624 0.961 . S
H1612 C1624 0.959 . S
H1613 C1627 0.929 . S
H1614 C1628 0.931 . S
H1615 C1630 0.930 . S
C1616 H1604 0.930 . S
C1616 C1617 1.399 . S
C1616 C1621 1.399 . S
C1617 C1616 1.399 . S
C1617 C1618 1.376 . S
C1618 H1605 0.930 . S
C1618 C1617 1.376 . S
C1618 C1619 1.388 . S
C1619 H1606 0.930 . S
C1619 C1618 1.388 . S
C1619 C1620 1.390 . S
C1620 C1619 1.390 . S
C1620 C1621 1.394 . S
C1620 C1626 1.465 . S
C1621 C1616 1.399 . S
C1621 C1620 1.394 . S
C1621 C1622 1.516 . S
C1622 C1621 1.516 . S
C1622 C1623 1.502 . S
C1622 C1624 1.561 . S
C1622 C1625 1.526 . S
C1623 H1607 0.959 . S
C1623 H1608 0.959 . S
C1623 H1609 0.961 . S
C1623 C1622 1.502 . S
C1624 H1610 0.960 . S
C1624 H1611 0.961 . S
C1624 H1612 0.959 . S
C1624 C1622 1.561 . S
C1625 C1622 1.526 . S
C1625 C1626 1.396 . S
C1625 C1630 1.390 . S
C1626 C1620 1.465 . S
C1626 C1625 1.396 . S
C1626 C1627 1.399 . S
C1627 H1613 0.929 . S
C1627 C1626 1.399 . S
C1627 C1628 1.385 . S
C1628 H1614 0.931 . S
C1628 C1627 1.385 . S
C1628 C1629 1.389 . S
C1629 C1628 1.389 . S
C1629 C1630 1.387 . S
C1630 H1615 0.930 . S
C1630 C1625 1.390 . S
C1630 C1629 1.387 . S
H1631 C1643 0.930 . S
H1632 C1645 0.930 . S
H1633 C1646 0.930 . S
H1634 C1650 0.959 . S
H1635 C1650 0.959 . S
H1636 C1650 0.961 . S
H1637 C1651 0.960 . S
H1638 C1651 0.961 . S
H1639 C1651 0.959 . S
H1640 C1654 0.929 . S
H1641 C1655 0.931 . S
H1642 C1657 0.930 . S
C1643 H1631 0.930 . S
C1643 C1644 1.399 . S
C1643 C1648 1.399 . S
C1644 C1643 1.399 . S
C1644 C1645 1.376 . S
C1645 H1632 0.930 . S
C1645 C1644 1.376 . S
C1645 C1646 1.388 . S
C1646 H1633 0.930 . S
C1646 C1645 1.388 . S
C1646 C1647 1.390 . S
C1647 C1646 1.390 . S
C1647 C1648 1.394 . S
C1647 C1653 1.465 . S
C1648 C1643 1.399 . S
C1648 C1647 1.394 . S
C1648 C1649 1.516 . S
C1649 C1648 1.516 . S
C1649 C1650 1.502 . S
C1649 C1651 1.561 . S
C1649 C1652 1.526 . S
C1650 H1634 0.959 . S
C1650 H1635 0.959 . S
C1650 H1636 0.961 . S
C1650 C1649 1.502 . S
C1651 H1637 0.960 . S
C1651 H1638 0.961 . S
C1651 H1639 0.959 . S
C1651 C1649 1.561 . S
C1652 C1649 1.526 . S
C1652 C1653 1.396 . S
C1652 C1657 1.390 . S
C1653 C1647 1.465 . S
C1653 C1652 1.396 . S
C1653 C1654 1.399 . S
C1654 H1640 0.929 . S
C1654 C1653 1.399 . S
C1654 C1655 1.385 . S
C1655 H1641 0.931 . S
C1655 C1654 1.385 . S
C1655 C1656 1.389 . S
C1656 C1655 1.389 . S
C1656 C1657 1.387 . S
C1657 H1642 0.930 . S
C1657 C1652 1.390 . S
C1657 C1656 1.387 . S
H1658 C1670 0.930 . S
H1659 C1672 0.930 . S
H1660 C1673 0.930 . S
H1661 C1677 0.959 . S
H1662 C1677 0.959 . S
H1663 C1677 0.961 . S
H1664 C1678 0.960 . S
H1665 C1678 0.961 . S
H1666 C1678 0.959 . S
H1667 C1681 0.929 . S
H1668 C1682 0.931 . S
H1669 C1684 0.930 . S
C1670 H1658 0.930 . S
C1670 C1671 1.399 . S
C1670 C1675 1.399 . S
C1671 C1670 1.399 . S
C1671 C1672 1.376 . S
C1672 H1659 0.930 . S
C1672 C1671 1.376 . S
C1672 C1673 1.388 . S
C1673 H1660 0.930 . S
C1673 C1672 1.388 . S
C1673 C1674 1.390 . S
C1674 C1673 1.390 . S
C1674 C1675 1.394 . S
C1674 C1680 1.465 . S
C1675 C1670 1.399 . S
C1675 C1674 1.394 . S
C1675 C1676 1.516 . S
C1676 C1675 1.516 . S
C1676 C1677 1.502 . S
C1676 C1678 1.561 . S
C1676 C1679 1.526 . S
C1677 H1661 0.959 . S
C1677 H1662 0.959 . S
C1677 H1663 0.961 . S
C1677 C1676 1.502 . S
C1678 H1664 0.960 . S
C1678 H1665 0.961 . S
C1678 H1666 0.959 . S
C1678 C1676 1.561 . S
C1679 C1676 1.526 . S
C1679 C1680 1.396 . S
C1679 C1684 1.390 . S
C1680 C1674 1.465 . S
C1680 C1679 1.396 . S
C1680 C1681 1.399 . S
C1681 H1667 0.929 . S
C1681 C1680 1.399 . S
C1681 C1682 1.385 . S
C1682 H1668 0.931 . S
C1682 C1681 1.385 . S
C1682 C1683 1.389 . S
C1683 C1682 1.389 . S
C1683 C1684 1.387 . S
C1684 H1669 0.930 . S
C1684 C1679 1.390 . S
C1684 C1683 1.387 . S
H1685 C1697 0.930 . S
H1686 C1699 0.930 1_655 S
H1687 C1700 0.930 . S
H1688 C1704 0.959 . S
H1689 C1704 0.959 . S
H1690 C1704 0.961 . S
H1691 C1705 0.960 . S
H1692 C1705 0.961 . S
H1693 C1705 0.959 . S
H1694 C1708 0.929 . S
H1695 C1709 0.931 . S
H1696 C1711 0.930 . S
C1697 H1685 0.930 . S
C1697 C1698 1.399 . S
C1697 C1702 1.399 . S
C1698 C1697 1.399 . S
C1698 C1699 1.376 . S
C1699 H1686 0.930 1_455 S
C1699 C1698 1.376 . S
C1699 C1700 1.388 . S
C1700 H1687 0.930 . S
C1700 C1699 1.388 . S
C1700 C1701 1.390 . S
C1701 C1700 1.390 . S
C1701 C1702 1.394 . S
C1701 C1707 1.465 . S
C1702 C1697 1.399 . S
C1702 C1701 1.394 . S
C1702 C1703 1.516 . S
C1703 C1702 1.516 . S
C1703 C1704 1.502 . S
C1703 C1705 1.561 . S
C1703 C1706 1.526 . S
C1704 H1688 0.959 . S
C1704 H1689 0.959 . S
C1704 H1690 0.961 . S
C1704 C1703 1.502 . S
C1705 H1691 0.960 . S
C1705 H1692 0.961 . S
C1705 H1693 0.959 . S
C1705 C1703 1.561 . S
C1706 C1703 1.526 . S
C1706 C1707 1.396 . S
C1706 C1711 1.390 . S
C1707 C1701 1.465 . S
C1707 C1706 1.396 . S
C1707 C1708 1.399 . S
C1708 H1694 0.929 . S
C1708 C1707 1.399 . S
C1708 C1709 1.385 . S
C1709 H1695 0.931 . S
C1709 C1708 1.385 . S
C1709 C1710 1.389 . S
C1710 C1709 1.389 . S
C1710 C1711 1.387 . S
C1711 H1696 0.930 . S
C1711 C1706 1.390 . S
C1711 C1710 1.387 . S
H1712 C1724 0.930 . S
H1713 C1726 0.930 . S
H1714 C1727 0.930 . S
H1715 C1731 0.959 . S
H1716 C1731 0.959 . S
H1717 C1731 0.961 . S
H1718 C1732 0.960 . S
H1719 C1732 0.961 . S
H1720 C1732 0.959 . S
H1721 C1735 0.929 . S
H1722 C1736 0.931 . S
H1723 C1738 0.930 . S
C1724 H1712 0.930 . S
C1724 C1725 1.399 1_556 S
C1724 C1729 1.399 . S
C1725 C1724 1.399 1_554 S
C1725 C1726 1.376 . S
C1726 H1713 0.930 . S
C1726 C1725 1.376 . S
C1726 C1727 1.388 . S
C1727 H1714 0.930 . S
C1727 C1726 1.388 . S
C1727 C1728 1.390 . S
C1728 C1727 1.390 . S
C1728 C1729 1.394 1_554 S
C1728 C1734 1.465 . S
C1729 C1724 1.399 . S
C1729 C1728 1.394 1_556 S
C1729 C1730 1.516 . S
C1730 C1729 1.516 . S
C1730 C1731 1.502 . S
C1730 C1732 1.561 . S
C1730 C1733 1.526 . S
C1731 H1715 0.959 . S
C1731 H1716 0.959 . S
C1731 H1717 0.961 . S
C1731 C1730 1.502 . S
C1732 H1718 0.960 . S
C1732 H1719 0.961 . S
C1732 H1720 0.959 . S
C1732 C1730 1.561 . S
C1733 C1730 1.526 . S
C1733 C1734 1.396 1_556 S
C1733 C1738 1.390 . S
C1734 C1728 1.465 . S
C1734 C1733 1.396 1_554 S
C1734 C1735 1.399 . S
C1735 H1721 0.929 . S
C1735 C1734 1.399 . S
C1735 C1736 1.385 . S
C1736 H1722 0.931 . S
C1736 C1735 1.385 . S
C1736 C1737 1.389 . S
C1737 C1736 1.389 . S
C1737 C1738 1.387 1_554 S
C1738 H1723 0.930 . S
C1738 C1733 1.390 . S
C1738 C1737 1.387 1_556 S
H1739 C1751 0.930 . S
H1740 C1753 0.930 . S
H1741 C1754 0.930 . S
H1742 C1758 0.959 . S
H1743 C1758 0.959 . S
H1744 C1758 0.961 . S
H1745 C1759 0.960 . S
H1746 C1759 0.961 . S
H1747 C1759 0.959 . S
H1748 C1762 0.929 . S
H1749 C1763 0.931 . S
H1750 C1765 0.930 . S
C1751 H1739 0.930 . S
C1751 C1752 1.399 . S
C1751 C1756 1.399 . S
C1752 C1751 1.399 . S
C1752 C1753 1.376 . S
C1753 H1740 0.930 . S
C1753 C1752 1.376 . S
C1753 C1754 1.388 . S
C1754 H1741 0.930 . S
C1754 C1753 1.388 . S
C1754 C1755 1.390 . S
C1755 C1754 1.390 . S
C1755 C1756 1.394 . S
C1755 C1761 1.465 . S
C1756 C1751 1.399 . S
C1756 C1755 1.394 . S
C1756 C1757 1.516 . S
C1757 C1756 1.516 . S
C1757 C1758 1.502 . S
C1757 C1759 1.561 . S
C1757 C1760 1.526 . S
C1758 H1742 0.959 . S
C1758 H1743 0.959 . S
C1758 H1744 0.961 . S
C1758 C1757 1.502 . S
C1759 H1745 0.960 . S
C1759 H1746 0.961 . S
C1759 H1747 0.959 . S
C1759 C1757 1.561 . S
C1760 C1757 1.526 . S
C1760 C1761 1.396 . S
C1760 C1765 1.390 . S
C1761 C1755 1.465 . S
C1761 C1760 1.396 . S
C1761 C1762 1.399 . S
C1762 H1748 0.929 . S
C1762 C1761 1.399 . S
C1762 C1763 1.385 . S
C1763 H1749 0.931 . S
C1763 C1762 1.385 . S
C1763 C1764 1.389 . S
C1764 C1763 1.389 . S
C1764 C1765 1.387 . S
C1765 H1750 0.930 . S
C1765 C1760 1.390 . S
C1765 C1764 1.387 . S
H1766 C1778 0.930 . S
H1767 C1780 0.929 . S
H1768 C1781 0.930 . S
H1769 C1785 0.959 . S
H1770 C1785 0.959 . S
H1771 C1785 0.961 . S
H1772 C1786 0.960 . S
H1773 C1786 0.961 . S
H1774 C1786 0.959 . S
H1775 C1789 0.929 . S
H1776 C1790 0.931 . S
H1777 C1792 0.930 . S
C1778 H1766 0.930 . S
C1778 C1779 1.399 1_554 S
C1778 C1783 1.399 . S
C1779 C1778 1.399 1_556 S
C1779 C1780 1.376 . S
C1780 H1767 0.929 . S
C1780 C1779 1.376 . S
C1780 C1781 1.388 . S
C1781 H1768 0.930 . S
C1781 C1780 1.388 . S
C1781 C1782 1.390 . S
C1782 C1781 1.390 . S
C1782 C1783 1.394 1_556 S
C1782 C1788 1.465 . S
C1783 C1778 1.399 . S
C1783 C1782 1.394 1_554 S
C1783 C1784 1.516 . S
C1784 C1783 1.516 . S
C1784 C1785 1.502 . S
C1784 C1786 1.561 . S
C1784 C1787 1.526 . S
C1785 H1769 0.959 . S
C1785 H1770 0.959 . S
C1785 H1771 0.961 . S
C1785 C1784 1.502 . S
C1786 H1772 0.960 . S
C1786 H1773 0.961 . S
C1786 H1774 0.959 . S
C1786 C1784 1.561 . S
C1787 C1784 1.526 . S
C1787 C1788 1.396 1_554 S
C1787 C1792 1.390 . S
C1788 C1782 1.465 . S
C1788 C1787 1.396 1_556 S
C1788 C1789 1.399 . S
C1789 H1775 0.929 . S
C1789 C1788 1.399 . S
C1789 C1790 1.385 . S
C1790 H1776 0.931 . S
C1790 C1789 1.385 . S
C1790 C1791 1.389 . S
C1791 C1790 1.389 . S
C1791 C1792 1.387 1_556 S
C1792 H1777 0.930 . S
C1792 C1787 1.390 . S
C1792 C1791 1.387 1_554 S
H1793 C1805 0.930 . S
H1794 C1807 0.930 . S
H1795 C1808 0.930 . S
H1796 C1812 0.959 . S
H1797 C1812 0.959 . S
H1798 C1812 0.961 . S
H1799 C1813 0.960 . S
H1800 C1813 0.961 . S
H1801 C1813 0.959 . S
H1802 C1816 0.929 . S
H1803 C1817 0.931 . S
H1804 C1819 0.930 . S
C1805 H1793 0.930 . S
C1805 C1806 1.399 . S
C1805 C1810 1.399 . S
C1806 C1805 1.399 . S
C1806 C1807 1.376 . S
C1807 H1794 0.930 . S
C1807 C1806 1.376 . S
C1807 C1808 1.388 . S
C1808 H1795 0.930 . S
C1808 C1807 1.388 . S
C1808 C1809 1.390 . S
C1809 C1808 1.390 . S
C1809 C1810 1.394 . S
C1809 C1815 1.465 . S
C1810 C1805 1.399 . S
C1810 C1809 1.394 . S
C1810 C1811 1.516 . S
C1811 C1810 1.516 . S
C1811 C1812 1.502 . S
C1811 C1813 1.561 . S
C1811 C1814 1.526 . S
C1812 H1796 0.959 . S
C1812 H1797 0.959 . S
C1812 H1798 0.961 . S
C1812 C1811 1.502 . S
C1813 H1799 0.960 . S
C1813 H1800 0.961 . S
C1813 H1801 0.959 . S
C1813 C1811 1.561 . S
C1814 C1811 1.526 . S
C1814 C1815 1.396 . S
C1814 C1819 1.390 . S
C1815 C1809 1.465 . S
C1815 C1814 1.396 . S
C1815 C1816 1.399 . S
C1816 H1802 0.929 . S
C1816 C1815 1.399 . S
C1816 C1817 1.385 . S
C1817 H1803 0.931 . S
C1817 C1816 1.385 . S
C1817 C1818 1.389 . S
C1818 C1817 1.389 . S
C1818 C1819 1.387 . S
C1819 H1804 0.930 . S
C1819 C1814 1.390 . S
C1819 C1818 1.387 . S
H1820 C1832 0.930 . S
H1821 C1834 0.930 . S
H1822 C1835 0.930 . S
H1823 C1839 0.959 . S
H1824 C1839 0.959 . S
H1825 C1839 0.961 . S
H1826 C1840 0.960 . S
H1827 C1840 0.961 . S
H1828 C1840 0.959 . S
H1829 C1843 0.929 . S
H1830 C1844 0.931 . S
H1831 C1846 0.930 . S
C1832 H1820 0.930 . S
C1832 C1833 1.399 . S
C1832 C1837 1.399 . S
C1833 C1832 1.399 . S
C1833 C1834 1.376 . S
C1834 H1821 0.930 . S
C1834 C1833 1.376 . S
C1834 C1835 1.388 . S
C1835 H1822 0.930 . S
C1835 C1834 1.388 . S
C1835 C1836 1.390 . S
C1836 C1835 1.390 . S
C1836 C1837 1.394 . S
C1836 C1842 1.465 . S
C1837 C1832 1.399 . S
C1837 C1836 1.394 . S
C1837 C1838 1.516 . S
C1838 C1837 1.516 . S
C1838 C1839 1.502 . S
C1838 C1840 1.561 . S
C1838 C1841 1.526 . S
C1839 H1823 0.959 . S
C1839 H1824 0.959 . S
C1839 H1825 0.961 . S
C1839 C1838 1.502 . S
C1840 H1826 0.960 . S
C1840 H1827 0.961 . S
C1840 H1828 0.959 . S
C1840 C1838 1.561 . S
C1841 C1838 1.526 . S
C1841 C1842 1.396 . S
C1841 C1846 1.390 . S
C1842 C1836 1.465 . S
C1842 C1841 1.396 . S
C1842 C1843 1.399 . S
C1843 H1829 0.929 . S
C1843 C1842 1.399 . S
C1843 C1844 1.385 . S
C1844 H1830 0.931 . S
C1844 C1843 1.385 . S
C1844 C1845 1.389 . S
C1845 C1844 1.389 . S
C1845 C1846 1.387 . S
C1846 H1831 0.930 . S
C1846 C1841 1.390 . S
C1846 C1845 1.387 . S
H1847 C1859 0.930 . S
H1848 C1861 0.930 . S
H1849 C1862 0.930 . S
H1850 C1866 0.959 . S
H1851 C1866 0.959 . S
H1852 C1866 0.961 . S
H1853 C1867 0.960 . S
H1854 C1867 0.961 . S
H1855 C1867 0.959 . S
H1856 C1870 0.929 . S
H1857 C1871 0.931 . S
H1858 C1873 0.930 . S
C1859 H1847 0.930 . S
C1859 C1860 1.399 . S
C1859 C1864 1.399 . S
C1860 C1859 1.399 . S
C1860 C1861 1.376 . S
C1861 H1848 0.930 . S
C1861 C1860 1.376 . S
C1861 C1862 1.388 . S
C1862 H1849 0.930 . S
C1862 C1861 1.388 . S
C1862 C1863 1.390 . S
C1863 C1862 1.390 . S
C1863 C1864 1.394 . S
C1863 C1869 1.465 . S
C1864 C1859 1.399 . S
C1864 C1863 1.394 . S
C1864 C1865 1.516 . S
C1865 C1864 1.516 . S
C1865 C1866 1.502 . S
C1865 C1867 1.561 . S
C1865 C1868 1.526 . S
C1866 H1850 0.959 . S
C1866 H1851 0.959 . S
C1866 H1852 0.961 . S
C1866 C1865 1.502 . S
C1867 H1853 0.960 . S
C1867 H1854 0.961 . S
C1867 H1855 0.959 . S
C1867 C1865 1.561 . S
C1868 C1865 1.526 . S
C1868 C1869 1.396 . S
C1868 C1873 1.390 . S
C1869 C1863 1.465 . S
C1869 C1868 1.396 . S
C1869 C1870 1.399 . S
C1870 H1856 0.929 . S
C1870 C1869 1.399 . S
C1870 C1871 1.385 . S
C1871 H1857 0.931 . S
C1871 C1870 1.385 . S
C1871 C1872 1.389 . S
C1872 C1871 1.389 . S
C1872 C1873 1.387 . S
C1873 H1858 0.930 . S
C1873 C1868 1.390 . S
C1873 C1872 1.387 . S
H1874 C1886 0.930 . S
H1875 C1888 0.930 . S
H1876 C1889 0.930 . S
H1877 C1893 0.959 . S
H1878 C1893 0.959 . S
H1879 C1893 0.961 . S
H1880 C1894 0.960 . S
H1881 C1894 0.961 . S
H1882 C1894 0.959 . S
H1883 C1897 0.929 . S
H1884 C1898 0.931 . S
H1885 C1900 0.930 . S
C1886 H1874 0.930 . S
C1886 C1887 1.399 . S
C1886 C1891 1.399 . S
C1887 C1886 1.399 . S
C1887 C1888 1.376 . S
C1888 H1875 0.930 . S
C1888 C1887 1.376 . S
C1888 C1889 1.388 . S
C1889 H1876 0.930 . S
C1889 C1888 1.388 . S
C1889 C1890 1.390 . S
C1890 C1889 1.390 . S
C1890 C1891 1.394 . S
C1890 C1896 1.465 . S
C1891 C1886 1.399 . S
C1891 C1890 1.394 . S
C1891 C1892 1.516 . S
C1892 C1891 1.516 . S
C1892 C1893 1.502 . S
C1892 C1894 1.561 . S
C1892 C1895 1.526 . S
C1893 H1877 0.959 . S
C1893 H1878 0.959 . S
C1893 H1879 0.961 . S
C1893 C1892 1.502 . S
C1894 H1880 0.960 . S
C1894 H1881 0.961 . S
C1894 H1882 0.959 . S
C1894 C1892 1.561 . S
C1895 C1892 1.526 . S
C1895 C1896 1.396 . S
C1895 C1900 1.390 . S
C1896 C1890 1.465 . S
C1896 C1895 1.396 . S
C1896 C1897 1.399 . S
C1897 H1883 0.929 . S
C1897 C1896 1.399 . S
C1897 C1898 1.385 . S
C1898 H1884 0.931 . S
C1898 C1897 1.385 . S
C1898 C1899 1.389 . S
C1899 C1898 1.389 . S
C1899 C1900 1.387 . S
C1900 H1885 0.930 . S
C1900 C1895 1.390 . S
C1900 C1899 1.387 . S
H1901 C1913 0.930 . S
H1902 C1915 0.930 . S
H1903 C1916 0.930 . S
H1904 C1920 0.959 . S
H1905 C1920 0.959 . S
H1906 C1920 0.961 . S
H1907 C1921 0.960 . S
H1908 C1921 0.961 . S
H1909 C1921 0.959 . S
H1910 C1924 0.929 . S
H1911 C1925 0.931 1_455 S
H1912 C1927 0.930 . S
C1913 H1901 0.930 . S
C1913 C1914 1.399 . S
C1913 C1918 1.399 . S
C1914 C1913 1.399 . S
C1914 C1915 1.376 . S
C1915 H1902 0.930 . S
C1915 C1914 1.376 . S
C1915 C1916 1.388 . S
C1916 H1903 0.930 . S
C1916 C1915 1.388 . S
C1916 C1917 1.390 . S
C1917 C1916 1.390 . S
C1917 C1918 1.394 . S
C1917 C1923 1.465 . S
C1918 C1913 1.399 . S
C1918 C1917 1.394 . S
C1918 C1919 1.516 . S
C1919 C1918 1.516 . S
C1919 C1920 1.502 . S
C1919 C1921 1.561 . S
C1919 C1922 1.526 . S
C1920 H1904 0.959 . S
C1920 H1905 0.959 . S
C1920 H1906 0.961 . S
C1920 C1919 1.502 . S
C1921 H1907 0.960 . S
C1921 H1908 0.961 . S
C1921 H1909 0.959 . S
C1921 C1919 1.561 . S
C1922 C1919 1.526 . S
C1922 C1923 1.396 . S
C1922 C1927 1.390 . S
C1923 C1917 1.465 . S
C1923 C1922 1.396 . S
C1923 C1924 1.399 . S
C1924 H1910 0.929 . S
C1924 C1923 1.399 . S
C1924 C1925 1.385 . S
C1925 H1911 0.931 1_655 S
C1925 C1924 1.385 . S
C1925 C1926 1.389 . S
C1926 C1925 1.389 . S
C1926 C1927 1.387 . S
C1927 H1912 0.930 . S
C1927 C1922 1.390 . S
C1927 C1926 1.387 . S
H1928 C1940 0.930 . S
H1929 C1942 0.930 . S
H1930 C1943 0.930 . S
H1931 C1947 0.959 . S
H1932 C1947 0.959 . S
H1933 C1947 0.961 . S
H1934 C1948 0.960 . S
H1935 C1948 0.961 . S
H1936 C1948 0.959 . S
H1937 C1951 0.929 . S
H1938 C1952 0.931 . S
H1939 C1954 0.930 . S
C1940 H1928 0.930 . S
C1940 C1941 1.399 . S
C1940 C1945 1.399 . S
C1941 C1940 1.399 . S
C1941 C1942 1.376 . S
C1942 H1929 0.930 . S
C1942 C1941 1.376 . S
C1942 C1943 1.388 . S
C1943 H1930 0.930 . S
C1943 C1942 1.388 . S
C1943 C1944 1.390 . S
C1944 C1943 1.390 . S
C1944 C1945 1.394 . S
C1944 C1950 1.465 . S
C1945 C1940 1.399 . S
C1945 C1944 1.394 . S
C1945 C1946 1.516 . S
C1946 C1945 1.516 . S
C1946 C1947 1.502 . S
C1946 C1948 1.561 . S
C1946 C1949 1.526 . S
C1947 H1931 0.959 . S
C1947 H1932 0.959 . S
C1947 H1933 0.961 . S
C1947 C1946 1.502 . S
C1948 H1934 0.960 . S
C1948 H1935 0.961 . S
C1948 H1936 0.959 . S
C1948 C1946 1.561 . S
C1949 C1946 1.526 . S
C1949 C1950 1.396 . S
C1949 C1954 1.390 . S
C1950 C1944 1.465 . S
C1950 C1949 1.396 . S
C1950 C1951 1.399 . S
C1951 H1937 0.929 . S
C1951 C1950 1.399 . S
C1951 C1952 1.385 . S
C1952 H1938 0.931 . S
C1952 C1951 1.385 . S
C1952 C1953 1.389 . S
C1953 C1952 1.389 . S
C1953 C1954 1.387 . S
C1954 H1939 0.930 . S
C1954 C1949 1.390 . S
C1954 C1953 1.387 . S
H1955 C1967 0.930 . S
H1956 C1969 0.930 . S
H1957 C1970 0.930 . S
H1958 C1974 0.959 . S
H1959 C1974 0.959 . S
H1960 C1974 0.961 . S
H1961 C1975 0.960 . S
H1962 C1975 0.961 . S
H1963 C1975 0.959 . S
H1964 C1978 0.929 . S
H1965 C1979 0.931 . S
H1966 C1981 0.930 . S
C1967 H1955 0.930 . S
C1967 C1968 1.399 . S
C1967 C1972 1.399 . S
C1968 C1967 1.399 . S
C1968 C1969 1.376 . S
C1969 H1956 0.930 . S
C1969 C1968 1.376 . S
C1969 C1970 1.388 . S
C1970 H1957 0.930 . S
C1970 C1969 1.388 . S
C1970 C1971 1.390 . S
C1971 C1970 1.390 . S
C1971 C1972 1.394 . S
C1971 C1977 1.465 . S
C1972 C1967 1.399 . S
C1972 C1971 1.394 . S
C1972 C1973 1.516 . S
C1973 C1972 1.516 . S
C1973 C1974 1.502 . S
C1973 C1975 1.561 . S
C1973 C1976 1.526 . S
C1974 H1958 0.959 . S
C1974 H1959 0.959 . S
C1974 H1960 0.961 . S
C1974 C1973 1.502 . S
C1975 H1961 0.960 . S
C1975 H1962 0.961 . S
C1975 H1963 0.959 . S
C1975 C1973 1.561 . S
C1976 C1973 1.526 . S
C1976 C1977 1.396 . S
C1976 C1981 1.390 . S
C1977 C1971 1.465 . S
C1977 C1976 1.396 . S
C1977 C1978 1.399 . S
C1978 H1964 0.929 . S
C1978 C1977 1.399 . S
C1978 C1979 1.385 . S
C1979 H1965 0.931 . S
C1979 C1978 1.385 . S
C1979 C1980 1.389 . S
C1980 C1979 1.389 . S
C1980 C1981 1.387 . S
C1981 H1966 0.930 . S
C1981 C1976 1.390 . S
C1981 C1980 1.387 . S
H1982 C1994 0.930 . S
H1983 C1996 0.930 . S
H1984 C1997 0.930 . S
H1985 C2001 0.959 . S
H1986 C2001 0.959 . S
H1987 C2001 0.961 . S
H1988 C2002 0.960 . S
H1989 C2002 0.961 . S
H1990 C2002 0.959 . S
H1991 C2005 0.929 . S
H1992 C2006 0.931 . S
H1993 C2008 0.930 . S
C1994 H1982 0.930 . S
C1994 C1995 1.399 . S
C1994 C1999 1.399 . S
C1995 C1994 1.399 . S
C1995 C1996 1.376 . S
C1996 H1983 0.930 . S
C1996 C1995 1.376 . S
C1996 C1997 1.388 . S
C1997 H1984 0.930 . S
C1997 C1996 1.388 . S
C1997 C1998 1.390 . S
C1998 C1997 1.390 . S
C1998 C1999 1.394 . S
C1998 C2004 1.465 . S
C1999 C1994 1.399 . S
C1999 C1998 1.394 . S
C1999 C2000 1.516 . S
C2000 C1999 1.516 . S
C2000 C2001 1.502 . S
C2000 C2002 1.561 . S
C2000 C2003 1.526 . S
C2001 H1985 0.959 . S
C2001 H1986 0.959 . S
C2001 H1987 0.961 . S
C2001 C2000 1.502 . S
C2002 H1988 0.960 . S
C2002 H1989 0.961 . S
C2002 H1990 0.959 . S
C2002 C2000 1.561 . S
C2003 C2000 1.526 . S
C2003 C2004 1.396 . S
C2003 C2008 1.390 . S
C2004 C1998 1.465 . S
C2004 C2003 1.396 . S
C2004 C2005 1.399 . S
C2005 H1991 0.929 . S
C2005 C2004 1.399 . S
C2005 C2006 1.385 . S
C2006 H1992 0.931 . S
C2006 C2005 1.385 . S
C2006 C2007 1.389 . S
C2007 C2006 1.389 . S
C2007 C2008 1.387 . S
C2008 H1993 0.930 . S
C2008 C2003 1.390 . S
C2008 C2007 1.387 . S
H2009 C2021 0.930 . S
H2010 C2023 0.930 . S
H2011 C2024 0.930 . S
H2012 C2028 0.959 . S
H2013 C2028 0.959 . S
H2014 C2028 0.961 . S
H2015 C2029 0.960 . S
H2016 C2029 0.961 . S
H2017 C2029 0.959 . S
H2018 C2032 0.929 . S
H2019 C2033 0.931 . S
H2020 C2035 0.930 . S
C2021 H2009 0.930 . S
C2021 C2022 1.399 . S
C2021 C2026 1.399 . S
C2022 C2021 1.399 . S
C2022 C2023 1.376 . S
C2023 H2010 0.930 . S
C2023 C2022 1.376 . S
C2023 C2024 1.388 . S
C2024 H2011 0.930 . S
C2024 C2023 1.388 . S
C2024 C2025 1.390 . S
C2025 C2024 1.390 . S
C2025 C2026 1.394 . S
C2025 C2031 1.465 . S
C2026 C2021 1.399 . S
C2026 C2025 1.394 . S
C2026 C2027 1.516 . S
C2027 C2026 1.516 . S
C2027 C2028 1.502 . S
C2027 C2029 1.561 . S
C2027 C2030 1.526 . S
C2028 H2012 0.959 . S
C2028 H2013 0.959 . S
C2028 H2014 0.961 . S
C2028 C2027 1.502 . S
C2029 H2015 0.960 . S
C2029 H2016 0.961 . S
C2029 H2017 0.959 . S
C2029 C2027 1.561 . S
C2030 C2027 1.526 . S
C2030 C2031 1.396 . S
C2030 C2035 1.390 . S
C2031 C2025 1.465 . S
C2031 C2030 1.396 . S
C2031 C2032 1.399 . S
C2032 H2018 0.929 . S
C2032 C2031 1.399 . S
C2032 C2033 1.385 . S
C2033 H2019 0.931 . S
C2033 C2032 1.385 . S
C2033 C2034 1.389 . S
C2034 C2033 1.389 . S
C2034 C2035 1.387 . S
C2035 H2020 0.930 . S
C2035 C2030 1.390 . S
C2035 C2034 1.387 . S
H2036 C2048 0.930 . S
H2037 C2050 0.930 . S
H2038 C2051 0.930 . S
H2039 C2055 0.959 . S
H2040 C2055 0.959 . S
H2041 C2055 0.961 . S
H2042 C2056 0.960 . S
H2043 C2056 0.961 . S
H2044 C2056 0.959 . S
H2045 C2059 0.929 . S
H2046 C2060 0.931 . S
H2047 C2062 0.930 . S
C2048 H2036 0.930 . S
C2048 C2049 1.399 1_556 S
C2048 C2053 1.399 . S
C2049 C2048 1.399 1_554 S
C2049 C2050 1.376 . S
C2050 H2037 0.930 . S
C2050 C2049 1.376 . S
C2050 C2051 1.388 . S
C2051 H2038 0.930 . S
C2051 C2050 1.388 . S
C2051 C2052 1.390 . S
C2052 C2051 1.390 . S
C2052 C2053 1.394 1_554 S
C2052 C2058 1.465 . S
C2053 C2048 1.399 . S
C2053 C2052 1.394 1_556 S
C2053 C2054 1.516 . S
C2054 C2053 1.516 . S
C2054 C2055 1.502 . S
C2054 C2056 1.561 . S
C2054 C2057 1.526 . S
C2055 H2039 0.959 . S
C2055 H2040 0.959 . S
C2055 H2041 0.961 . S
C2055 C2054 1.502 . S
C2056 H2042 0.960 . S
C2056 H2043 0.961 . S
C2056 H2044 0.959 . S
C2056 C2054 1.561 . S
C2057 C2054 1.526 . S
C2057 C2058 1.396 1_556 S
C2057 C2062 1.390 . S
C2058 C2052 1.465 . S
C2058 C2057 1.396 1_554 S
C2058 C2059 1.399 . S
C2059 H2045 0.929 . S
C2059 C2058 1.399 . S
C2059 C2060 1.385 . S
C2060 H2046 0.931 . S
C2060 C2059 1.385 . S
C2060 C2061 1.389 . S
C2061 C2060 1.389 . S
C2061 C2062 1.387 1_554 S
C2062 H2047 0.930 . S
C2062 C2057 1.390 . S
C2062 C2061 1.387 1_556 S
H2063 C2075 0.930 . S
H2064 C2077 0.930 . S
H2065 C2078 0.930 . S
H2066 C2082 0.959 . S
H2067 C2082 0.959 . S
H2068 C2082 0.961 . S
H2069 C2083 0.960 . S
H2070 C2083 0.961 . S
H2071 C2083 0.959 . S
H2072 C2086 0.929 . S
H2073 C2087 0.931 . S
H2074 C2089 0.930 . S
C2075 H2063 0.930 . S
C2075 C2076 1.399 . S
C2075 C2080 1.399 . S
C2076 C2075 1.399 . S
C2076 C2077 1.376 . S
C2077 H2064 0.930 . S
C2077 C2076 1.376 . S
C2077 C2078 1.388 . S
C2078 H2065 0.930 . S
C2078 C2077 1.388 . S
C2078 C2079 1.390 . S
C2079 C2078 1.390 . S
C2079 C2080 1.394 . S
C2079 C2085 1.465 . S
C2080 C2075 1.399 . S
C2080 C2079 1.394 . S
C2080 C2081 1.516 . S
C2081 C2080 1.516 . S
C2081 C2082 1.502 . S
C2081 C2083 1.561 . S
C2081 C2084 1.526 . S
C2082 H2066 0.959 . S
C2082 H2067 0.959 . S
C2082 H2068 0.961 . S
C2082 C2081 1.502 . S
C2083 H2069 0.960 . S
C2083 H2070 0.961 . S
C2083 H2071 0.959 . S
C2083 C2081 1.561 . S
C2084 C2081 1.526 . S
C2084 C2085 1.396 . S
C2084 C2089 1.390 . S
C2085 C2079 1.465 . S
C2085 C2084 1.396 . S
C2085 C2086 1.399 . S
C2086 H2072 0.929 . S
C2086 C2085 1.399 . S
C2086 C2087 1.385 . S
C2087 H2073 0.931 . S
C2087 C2086 1.385 . S
C2087 C2088 1.389 . S
C2088 C2087 1.389 . S
C2088 C2089 1.387 . S
C2089 H2074 0.930 . S
C2089 C2084 1.390 . S
C2089 C2088 1.387 . S
H2090 C2102 0.930 . S
H2091 C2104 0.930 . S
H2092 C2105 0.930 . S
H2093 C2109 0.959 . S
H2094 C2109 0.959 . S
H2095 C2109 0.961 . S
H2096 C2110 0.960 . S
H2097 C2110 0.961 . S
H2098 C2110 0.959 . S
H2099 C2113 0.929 . S
H2100 C2114 0.931 . S
H2101 C2116 0.930 . S
C2102 H2090 0.930 . S
C2102 C2103 1.399 . S
C2102 C2107 1.399 . S
C2103 C2102 1.399 . S
C2103 C2104 1.376 1_556 S
C2104 H2091 0.930 . S
C2104 C2103 1.376 1_554 S
C2104 C2105 1.388 . S
C2105 H2092 0.930 . S
C2105 C2104 1.388 . S
C2105 C2106 1.390 . S
C2106 C2105 1.390 . S
C2106 C2107 1.394 1_554 S
C2106 C2112 1.465 . S
C2107 C2102 1.399 . S
C2107 C2106 1.394 1_556 S
C2107 C2108 1.516 . S
C2108 C2107 1.516 . S
C2108 C2109 1.502 . S
C2108 C2110 1.561 . S
C2108 C2111 1.526 . S
C2109 H2093 0.959 . S
C2109 H2094 0.959 . S
C2109 H2095 0.961 . S
C2109 C2108 1.502 . S
C2110 H2096 0.960 . S
C2110 H2097 0.961 . S
C2110 H2098 0.959 . S
C2110 C2108 1.561 . S
C2111 C2108 1.526 . S
C2111 C2112 1.396 1_556 S
C2111 C2116 1.390 . S
C2112 C2106 1.465 . S
C2112 C2111 1.396 1_554 S
C2112 C2113 1.399 . S
C2113 H2099 0.929 . S
C2113 C2112 1.399 . S
C2113 C2114 1.385 . S
C2114 H2100 0.931 . S
C2114 C2113 1.385 . S
C2114 C2115 1.389 1_554 S
C2115 C2114 1.389 1_556 S
C2115 C2116 1.387 . S
C2116 H2101 0.930 . S
C2116 C2111 1.390 . S
C2116 C2115 1.387 . S
H2117 C2129 0.930 . S
H2118 C2131 0.930 . S
H2119 C2132 0.930 . S
H2120 C2136 0.959 . S
H2121 C2136 0.959 . S
H2122 C2136 0.961 . S
H2123 C2137 0.960 . S
H2124 C2137 0.961 . S
H2125 C2137 0.959 . S
H2126 C2140 0.929 . S
H2127 C2141 0.931 . S
H2128 C2143 0.930 . S
C2129 H2117 0.930 . S
C2129 C2130 1.399 . S
C2129 C2134 1.399 . S
C2130 C2129 1.399 . S
C2130 C2131 1.376 . S
C2131 H2118 0.930 . S
C2131 C2130 1.376 . S
C2131 C2132 1.388 . S
C2132 H2119 0.930 . S
C2132 C2131 1.388 . S
C2132 C2133 1.390 . S
C2133 C2132 1.390 . S
C2133 C2134 1.394 . S
C2133 C2139 1.465 . S
C2134 C2129 1.399 . S
C2134 C2133 1.394 . S
C2134 C2135 1.516 . S
C2135 C2134 1.516 . S
C2135 C2136 1.502 . S
C2135 C2137 1.561 . S
C2135 C2138 1.526 . S
C2136 H2120 0.959 . S
C2136 H2121 0.959 . S
C2136 H2122 0.961 . S
C2136 C2135 1.502 . S
C2137 H2123 0.960 . S
C2137 H2124 0.961 . S
C2137 H2125 0.959 . S
C2137 C2135 1.561 . S
C2138 C2135 1.526 . S
C2138 C2139 1.396 . S
C2138 C2143 1.390 . S
C2139 C2133 1.465 . S
C2139 C2138 1.396 . S
C2139 C2140 1.399 . S
C2140 H2126 0.929 . S
C2140 C2139 1.399 . S
C2140 C2141 1.385 . S
C2141 H2127 0.931 . S
C2141 C2140 1.385 . S
C2141 C2142 1.389 . S
C2142 C2141 1.389 . S
C2142 C2143 1.387 . S
C2143 H2128 0.930 . S
C2143 C2138 1.390 . S
C2143 C2142 1.387 . S
C429 C3 1.545 . S
C441 C44 1.487 . S
C456 C31 1.515 . S
C468 C16 1.460 . S
C483 C94 1.481 . S
C495 C57 1.535 . S
C510 C81 1.533 . S
C522 C68 1.460 . S
C537 C107 1.562 . S
C549 C146 1.531 . S
C564 C120 1.563 . S
C576 C133 1.530 . S
C591 C200 1.551 . S
C603 C161 1.491 . S
C618 C185 1.541 . S
C630 C172 1.498 . S
C645 C211 1.493 . S
C657 C252 1.523 . S
C672 C224 1.566 . S
C684 C239 1.524 . S
C699 C265 1.542 . S
C711 C302 1.497 . S
C726 C278 1.513 . S
C738 C289 1.558 . S
C753 C317 1.466 . S
C765 C354 1.502 . S
C780 C341 1.461 . S
C792 C328 1.512 . S
C807 C406 1.473 . S
C819 C367 1.539 . S
C834 C393 1.480 . S
C846 C382 1.536 . S
C861 C4 1.201 . S
C873 C62 1.257 . S
C888 C387 1.249 . S
C900 C17 1.227 . S
C915 C36 1.223 . S
C927 C186 1.286 . S
C942 C303 1.253 . S
C954 C49 1.265 . S
C969 C329 1.198 . S
C981 C69 1.262 . S
C996 C82 1.276 . S
C1008 C134 1.241 . S
C1023 C95 1.257 . S
C1035 C257 1.243 . S
C1050 C166 1.231 . S
C1062 C108 1.251 . S
C1077 C283 1.266 . S
C1089 C121 1.219 . S
C1104 C147 1.286 . S
C1116 C407 1.226 . S
C1131 C173 1.240 . S
C1143 C225 1.242 . S
C1158 C205 1.247 . S
C1170 C355 1.251 . S
C1185 C270 1.249 . S
C1197 C212 1.234 . S
C1212 C244 1.222 . S
C1224 C394 1.281 . S
C1239 C290 1.243 . S
C1251 C342 1.274 . S
C1266 C368 1.252 . S
C1278 C322 1.208 . S
C1293 C10 1.393 . S
C1305 C251 1.325 . S
C1320 C23 1.391 . S
C1332 C238 1.326 . S
C1347 C231 1.321 . S
C1359 C30 1.385 . S
C1374 C218 1.376 . S
C1386 C43 1.311 . S
C1401 C56 1.322 . S
C1413 C309 1.366 . S
C1428 C75 1.403 . S
C1440 C296 1.359 . S
C1455 C88 1.398 . S
C1467 C277 1.308 . S
C1482 C264 1.301 . S
C1494 C101 1.362 . S
C1509 C114 1.366 . S
C1521 C361 1.320 . S
C1536 C348 1.314 . S
C1548 C127 1.390 . S
C1563 C335 1.324 . S
C1575 C140 1.408 . S
C1590 C153 1.393 . S
C1602 C316 1.324 . S
C1617 C160 1.398 . S
C1629 C413 1.324 . S
C1644 C179 1.302 . S
C1656 C400 1.359 . S
C1671 C381 1.328 . S
C1683 C192 1.357 . S
C1698 C199 1.406 . S
C1710 C374 1.352 . S
C1725 C18 1.389 . S
C1737 C5 1.386 . S
C1752 C29 1.374 . S
C1764 C42 1.403 . S
C1779 C70 1.407 . S
C1791 C55 1.377 . S
C1806 C83 1.404 . S
C1818 C96 1.387 . S
C1833 C122 1.375 . S
C1845 C109 1.399 . S
C1860 C135 1.390 . S
C1872 C148 1.364 . S
C1887 C159 1.407 . S
C1899 C174 1.377 . S
C1914 C187 1.383 . S
C1926 C198 1.399 . S
C1941 C213 1.375 . S
C1953 C226 1.399 . S
C1968 C250 1.392 . S
C1980 C237 1.363 . S
C1995 C263 1.406 . S
C2007 C276 1.379 . S
C2022 C304 1.357 . S
C2034 C291 1.387 . S
C2049 C330 1.370 . S
C2061 C315 1.403 . S
C2076 C343 1.399 . S
C2088 C356 1.365 . S
C2103 C369 1.357 . S
C2115 C380 1.393 . S
C2130 C408 1.405 . S
C2142 C395 1.386 . S
