# Generated by pormake.
# Topology fny, (5)-cn, num edge types: 1
# Building blocks:
#     Node 0, Type 0, BuildingBlock: XOMCOT_clean_sbu_1, # of connection points: 5
#     Node 1, Type 0, BuildingBlock: XOMCOT_clean_sbu_1, # of connection points: 5
#     Node 2, Type 0, BuildingBlock: XOMCOT_clean_sbu_1, # of connection points: 5
#     Node 3, Type 0, BuildingBlock: XOMCOT_clean_sbu_1, # of connection points: 5
#     Node 4, Type 0, BuildingBlock: XOMCOT_clean_sbu_1, # of connection points: 5
#     Node 5, Type 0, BuildingBlock: XOMCOT_clean_sbu_1, # of connection points: 5
#     Node 6, Type 0, BuildingBlock: XOMCOT_clean_sbu_1, # of connection points: 5
#     Node 7, Type 0, BuildingBlock: XOMCOT_clean_sbu_1, # of connection points: 5
#     Node 8, Type 0, BuildingBlock: XOMCOT_clean_sbu_1, # of connection points: 5
#     Node 9, Type 0, BuildingBlock: XOMCOT_clean_sbu_1, # of connection points: 5
#     Node 10, Type 0, BuildingBlock: XOMCOT_clean_sbu_1, # of connection points: 5
#     Node 11, Type 0, BuildingBlock: XOMCOT_clean_sbu_1, # of connection points: 5
#     Edge 12, Type (0, 0), BuildingBlock: ZUJKAS_clean_linker_0, # of connection points: 2
#     Edge 13, Type (0, 0), BuildingBlock: ZUJKAS_clean_linker_0, # of connection points: 2
#     Edge 14, Type (0, 0), BuildingBlock: ZUJKAS_clean_linker_0, # of connection points: 2
#     Edge 15, Type (0, 0), BuildingBlock: ZUJKAS_clean_linker_0, # of connection points: 2
#     Edge 16, Type (0, 0), BuildingBlock: ZUJKAS_clean_linker_0, # of connection points: 2
#     Edge 17, Type (0, 0), BuildingBlock: ZUJKAS_clean_linker_0, # of connection points: 2
#     Edge 18, Type (0, 0), BuildingBlock: ZUJKAS_clean_linker_0, # of connection points: 2
#     Edge 19, Type (0, 0), BuildingBlock: ZUJKAS_clean_linker_0, # of connection points: 2
#     Edge 20, Type (0, 0), BuildingBlock: ZUJKAS_clean_linker_0, # of connection points: 2
#     Edge 21, Type (0, 0), BuildingBlock: ZUJKAS_clean_linker_0, # of connection points: 2
#     Edge 22, Type (0, 0), BuildingBlock: ZUJKAS_clean_linker_0, # of connection points: 2
#     Edge 23, Type (0, 0), BuildingBlock: ZUJKAS_clean_linker_0, # of connection points: 2
#     Edge 24, Type (0, 0), BuildingBlock: ZUJKAS_clean_linker_0, # of connection points: 2
#     Edge 25, Type (0, 0), BuildingBlock: ZUJKAS_clean_linker_0, # of connection points: 2
#     Edge 26, Type (0, 0), BuildingBlock: ZUJKAS_clean_linker_0, # of connection points: 2
#     Edge 27, Type (0, 0), BuildingBlock: ZUJKAS_clean_linker_0, # of connection points: 2
#     Edge 28, Type (0, 0), BuildingBlock: ZUJKAS_clean_linker_0, # of connection points: 2
#     Edge 29, Type (0, 0), BuildingBlock: ZUJKAS_clean_linker_0, # of connection points: 2
#     Edge 30, Type (0, 0), BuildingBlock: ZUJKAS_clean_linker_0, # of connection points: 2
#     Edge 31, Type (0, 0), BuildingBlock: ZUJKAS_clean_linker_0, # of connection points: 2
#     Edge 32, Type (0, 0), BuildingBlock: ZUJKAS_clean_linker_0, # of connection points: 2
#     Edge 33, Type (0, 0), BuildingBlock: ZUJKAS_clean_linker_0, # of connection points: 2
#     Edge 34, Type (0, 0), BuildingBlock: ZUJKAS_clean_linker_0, # of connection points: 2
#     Edge 35, Type (0, 0), BuildingBlock: ZUJKAS_clean_linker_0, # of connection points: 2
#     Edge 36, Type (0, 0), BuildingBlock: ZUJKAS_clean_linker_0, # of connection points: 2
#     Edge 37, Type (0, 0), BuildingBlock: ZUJKAS_clean_linker_0, # of connection points: 2
#     Edge 38, Type (0, 0), BuildingBlock: ZUJKAS_clean_linker_0, # of connection points: 2
#     Edge 39, Type (0, 0), BuildingBlock: ZUJKAS_clean_linker_0, # of connection points: 2
#     Edge 40, Type (0, 0), BuildingBlock: ZUJKAS_clean_linker_0, # of connection points: 2
#     Edge 41, Type (0, 0), BuildingBlock: ZUJKAS_clean_linker_0, # of connection points: 2
# Relax obj value: 0.243
# Max RMSD: 0.209
# Mean RMSD: 0.209
data_MOF--net-fny--node1-XOMCOT_clean_sbu_1--edge1-ZUJKAS_clean_linker_0
_symmetry_space_group_name_H-M    P1
_symmetry_Int_Tables_number       1
_symmetry_cell_setting            triclinic
loop_
_symmetry_equiv_pos_as_xyz
'x, y, z'
_cell_length_a     78.509766
_cell_length_b     78.488028
_cell_length_c     31.023077
_cell_angle_alpha  89.978225
_cell_angle_beta   89.985407
_cell_angle_gamma 120.00511
loop_
_atom_site_label
_atom_site_type_symbol
_atom_site_fract_x
_atom_site_fract_y
_atom_site_fract_z
_atom_type_partial_charge
C0 C 0.31064 0.48047 0.25262 0.0
C1 C 0.29446 0.47324 0.22617 0.0
N2 N 0.29411 0.48856 0.20761 0.0
N3 N 0.3208 0.50032 0.25013 0.0
C4 C 0.30978 0.50473 0.22393 0.0
H5 H 0.31462 0.4715 0.27155 0.0
Co6 Co 0.34493 0.51898 0.27514 0.0
C7 C 0.35083 0.53035 0.18146 0.0
O8 O 0.34262 0.51155 0.17193 0.0
N9 N 0.36838 0.53739 0.29992 0.0
C10 C 0.398 0.56353 0.30886 0.0
C11 C 0.37999 0.5565 0.28928 0.0
C12 C 0.37925 0.53333 0.32711 0.0
N13 N 0.39746 0.54883 0.33225 0.0
O14 O 0.33159 0.53189 0.30166 0.0
H15 H 0.376 0.56458 0.26719 0.0
H16 H 0.37437 0.51892 0.3407 0.0
O17 O 0.35234 0.53552 0.22125 0.0
C18 C 0.32366 0.52224 0.33638 0.0
O19 O 0.32603 0.50717 0.3452 0.0
N20 N 0.35778 0.50516 0.25595 0.0
C21 C 0.37984 0.486 0.2517 0.0
C22 C 0.38439 0.50217 0.22504 0.0
C23 C 0.37355 0.51193 0.22856 0.0
C24 C 0.35342 0.48955 0.28221 0.0
C25 C 0.36403 0.47966 0.28031 0.0
H26 H 0.37886 0.52565 0.21156 0.0
H27 H 0.34265 0.48571 0.30751 0.0
H28 H 0.31394 0.51961 0.21472 0.0
H29 H 0.2841 0.45787 0.22016 0.0
H30 H 0.41061 0.57817 0.3056 0.0
H31 H 0.39701 0.508 0.20374 0.0
H32 H 0.36034 0.46758 0.30231 0.0
C33 C 0.83253 0.30839 0.74846 0.0
C34 C 0.82283 0.2924 0.72163 0.0
N35 N 0.807 0.29249 0.70527 0.0
N36 N 0.82306 0.31878 0.74852 0.0
C37 C 0.80708 0.30811 0.72359 0.0
H38 H 0.84612 0.31238 0.7648 0.0
Co39 Co 0.82962 0.3435 0.77157 0.0
C40 C 0.82419 0.34845 0.67725 0.0
O41 O 0.83414 0.33948 0.66854 0.0
N42 N 0.83574 0.36772 0.79415 0.0
C43 C 0.84062 0.39803 0.80008 0.0
C44 C 0.82893 0.37976 0.78211 0.0
C45 C 0.85099 0.37866 0.8205 0.0
N46 N 0.85454 0.39723 0.82383 0.0
O47 O 0.80345 0.33137 0.79847 0.0
H48 H 0.81681 0.37583 0.76025 0.0
H49 H 0.86008 0.37345 0.83498 0.0
O50 O 0.82081 0.35065 0.71684 0.0
C51 C 0.80531 0.32827 0.8384 0.0
O52 O 0.82311 0.33406 0.85288 0.0
N53 N 0.85613 0.35513 0.75203 0.0
C54 C 0.89738 0.3763 0.74845 0.0
C55 C 0.88616 0.381 0.72086 0.0
C56 C 0.86554 0.3706 0.72401 0.0
C57 C 0.86697 0.35054 0.77898 0.0
C58 C 0.88748 0.36071 0.77744 0.0
H59 H 0.85748 0.37611 0.70631 0.0
H60 H 0.85969 0.33991 0.80444 0.0
H61 H 0.79635 0.31255 0.71669 0.0
H62 H 0.82794 0.28241 0.71236 0.0
H63 H 0.83917 0.41093 0.79573 0.0
H64 H 0.89328 0.39345 0.69916 0.0
H65 H 0.89556 0.35687 0.8 0.0
C66 C 0.51987 0.82442 0.26692 0.0
C67 C 0.52763 0.81706 0.23744 0.0
N68 N 0.51531 0.81004 0.20348 0.0
N69 N 0.50281 0.82215 0.25156 0.0
C70 C 0.50038 0.81328 0.21298 0.0
H71 H 0.52613 0.83077 0.29789 0.0
Co72 Co 0.48658 0.82896 0.28113 0.0
C73 C 0.45367 0.82276 0.21913 0.0
O74 O 0.44967 0.83439 0.242 0.0
N75 N 0.47044 0.83576 0.3125 0.0
C76 C 0.44522 0.83409 0.34864 0.0
C77 C 0.45185 0.82353 0.32589 0.0
C78 C 0.47494 0.85349 0.32869 0.0
N79 N 0.45982 0.85301 0.35032 0.0
O80 O 0.47376 0.80301 0.30901 0.0
H81 H 0.44348 0.80796 0.31888 0.0
H82 H 0.48925 0.86644 0.3261 0.0
O83 O 0.4676 0.81966 0.23104 0.0
C84 C 0.48036 0.80482 0.34759 0.0
O85 O 0.49337 0.82254 0.36089 0.0
N86 N 0.50118 0.8549 0.25879 0.0
C87 C 0.52398 0.89574 0.24761 0.0
C88 C 0.50796 0.88427 0.22033 0.0
C89 C 0.49687 0.86379 0.22606 0.0
C90 C 0.51748 0.86567 0.28355 0.0
C91 C 0.529 0.88603 0.27865 0.0
H92 H 0.48471 0.8555 0.20472 0.0
H93 H 0.52075 0.85857 0.30953 0.0
H94 H 0.48761 0.80866 0.19278 0.0
H95 H 0.54126 0.81691 0.24087 0.0
H96 H 0.43077 0.82817 0.36284 0.0
H97 H 0.50386 0.89109 0.19515 0.0
H98 H 0.54112 0.89418 0.30068 0.0
C99 C 0.69349 0.52151 0.7537 0.0
C100 C 0.70832 0.52883 0.72346 0.0
N101 N 0.70679 0.51361 0.70032 0.0
N102 N 0.68256 0.50182 0.74915 0.0
C103 C 0.69115 0.49744 0.71673 0.0
H104 H 0.69092 0.53002 0.77751 0.0
Co105 Co 0.66067 0.48443 0.78086 0.0
C106 C 0.63282 0.45421 0.71746 0.0
O107 O 0.61807 0.45316 0.73961 0.0
N108 N 0.63874 0.46663 0.81339 0.0
C109 C 0.61576 0.43836 0.84181 0.0
C110 C 0.63352 0.44766 0.82069 0.0
C111 C 0.62413 0.46856 0.83146 0.0
N112 N 0.60979 0.45155 0.8482 0.0
O113 O 0.6755 0.47254 0.80478 0.0
H114 H 0.64167 0.44075 0.80957 0.0
H115 H 0.62375 0.48205 0.83238 0.0
O116 O 0.65056 0.46602 0.72987 0.0
C117 C 0.68486 0.48304 0.83755 0.0
O118 O 0.68324 0.49859 0.84583 0.0
N119 N 0.64778 0.4983 0.76319 0.0
C120 C 0.62896 0.52052 0.75634 0.0
C121 C 0.62821 0.50833 0.72227 0.0
C122 C 0.63802 0.4975 0.72605 0.0
C123 C 0.65031 0.51163 0.79428 0.0
C124 C 0.64082 0.52258 0.79193 0.0
H125 H 0.63758 0.48855 0.69927 0.0
H126 H 0.65892 0.51292 0.82257 0.0
H127 H 0.6859 0.48266 0.70496 0.0
H128 H 0.71947 0.5441 0.71918 0.0
H129 H 0.60768 0.42296 0.85063 0.0
H130 H 0.61975 0.50679 0.6935 0.0
H131 H 0.64254 0.53239 0.81823 0.0
C132 C 0.17907 0.7003 0.25014 0.0
C133 C 0.18855 0.71687 0.2249 0.0
N134 N 0.20454 0.71745 0.2075 0.0
N135 N 0.18881 0.69018 0.24807 0.0
C136 C 0.20466 0.70147 0.22318 0.0
H137 H 0.16576 0.69597 0.26804 0.0
Co138 Co 0.18275 0.66588 0.27271 0.0
C139 C 0.18853 0.66019 0.17833 0.0
O140 O 0.17965 0.66999 0.1675 0.0
N141 N 0.17706 0.64215 0.29728 0.0
C142 C 0.17298 0.61229 0.30703 0.0
C143 C 0.18384 0.62999 0.28606 0.0
C144 C 0.16273 0.63191 0.32621 0.0
N145 N 0.15965 0.6136 0.33194 0.0
O146 O 0.20919 0.67843 0.29826 0.0
H147 H 0.19551 0.63348 0.26318 0.0
H148 H 0.15402 0.63741 0.34134 0.0
O149 O 0.19099 0.6579 0.21846 0.0
C150 C 0.20806 0.6868 0.33284 0.0
O151 O 0.19096 0.68515 0.34213 0.0
N152 N 0.15603 0.65404 0.25474 0.0
C153 C 0.11446 0.63448 0.25172 0.0
C154 C 0.12546 0.63055 0.22123 0.0
C155 C 0.14608 0.63992 0.22425 0.0
C156 C 0.14571 0.65805 0.28433 0.0
C157 C 0.12524 0.64846 0.2838 0.0
H158 H 0.15367 0.63498 0.20329 0.0
H159 H 0.15347 0.66794 0.31067 0.0
H160 H 0.21543 0.69731 0.21445 0.0
H161 H 0.18373 0.72739 0.219 0.0
H162 H 0.17464 0.59946 0.30405 0.0
H163 H 0.11841 0.61997 0.19567 0.0
H164 H 0.11822 0.65165 0.30997 0.0
C165 C 0.48593 0.17711 0.74821 0.0
C166 C 0.47943 0.18625 0.72038 0.0
N167 N 0.49518 0.20122 0.70119 0.0
N168 N 0.50575 0.18596 0.74604 0.0
C169 C 0.51091 0.20115 0.71854 0.0
H170 H 0.47649 0.16471 0.76816 0.0
Co171 Co 0.52325 0.17972 0.77418 0.0
C172 C 0.53624 0.18427 0.68168 0.0
O173 O 0.51758 0.17418 0.67078 0.0
N174 N 0.54033 0.17385 0.80231 0.0
C175 C 0.56488 0.16864 0.81833 0.0
C176 C 0.55941 0.1799 0.79435 0.0
C177 C 0.53468 0.15944 0.83174 0.0
N178 N 0.54913 0.15557 0.84126 0.0
O179 O 0.53662 0.20616 0.79982 0.0
H180 H 0.56853 0.19114 0.77132 0.0
H181 H 0.51999 0.15155 0.84504 0.0
O182 O 0.54086 0.18796 0.72177 0.0
C183 C 0.52652 0.20585 0.83268 0.0
O184 O 0.51025 0.18931 0.84125 0.0
N185 N 0.50897 0.15294 0.75569 0.0
C186 C 0.48928 0.11162 0.75381 0.0
C187 C 0.50605 0.12279 0.72834 0.0
C188 C 0.516 0.14343 0.73064 0.0
C189 C 0.49275 0.14215 0.78071 0.0
C190 C 0.48258 0.12162 0.77985 0.0
H191 H 0.53009 0.15146 0.71488 0.0
H192 H 0.48867 0.14944 0.80466 0.0
H193 H 0.52596 0.21132 0.70945 0.0
H194 H 0.46423 0.1819 0.71414 0.0
H195 H 0.57908 0.16952 0.81764 0.0
H196 H 0.51217 0.11565 0.70906 0.0
H197 H 0.46999 0.11364 0.80085 0.0
C198 C 0.51926 0.69834 0.76087 0.0
C199 C 0.52632 0.71255 0.7924 0.0
N200 N 0.51477 0.70513 0.82745 0.0
N201 N 0.50339 0.68205 0.77601 0.0
C202 C 0.50103 0.6866 0.81666 0.0
H203 H 0.52516 0.69983 0.7287 0.0
Co204 Co 0.48891 0.65944 0.74395 0.0
C205 C 0.45501 0.63031 0.80045 0.0
O206 O 0.4535 0.61563 0.77726 0.0
N207 N 0.47472 0.637 0.70974 0.0
C208 C 0.45212 0.61467 0.66623 0.0
C209 C 0.45648 0.63012 0.69346 0.0
C210 C 0.48118 0.62567 0.69139 0.0
N211 N 0.46775 0.61193 0.66493 0.0
O212 O 0.47589 0.67204 0.71452 0.0
H213 H 0.4471 0.63622 0.70026 0.0
H214 H 0.49568 0.62774 0.69607 0.0
O215 O 0.46826 0.64804 0.79092 0.0
C216 C 0.48322 0.67753 0.67666 0.0
O217 O 0.4972 0.67396 0.66469 0.0
N218 N 0.50377 0.64876 0.76801 0.0
C219 C 0.52702 0.63122 0.77941 0.0
C220 C 0.51047 0.62594 0.80561 0.0
C221 C 0.49915 0.63506 0.79978 0.0
C222 C 0.52083 0.6554 0.74534 0.0
C223 C 0.53252 0.64675 0.75014 0.0
H224 H 0.48656 0.63059 0.82018 0.0
H225 H 0.5245 0.6664 0.72056 0.0
H226 H 0.48956 0.67657 0.8381 0.0
H227 H 0.53867 0.72735 0.78933 0.0
H228 H 0.4389 0.60682 0.64708 0.0
H229 H 0.50606 0.61456 0.82984 0.0
H230 H 0.54508 0.65143 0.72906 0.0
C231 C 0.83279 0.52282 0.27024 0.0
C232 C 0.82512 0.52913 0.30221 0.0
N233 N 0.81326 0.51355 0.32709 0.0
N234 N 0.8259 0.50339 0.27507 0.0
C235 C 0.81391 0.49812 0.30965 0.0
H236 H 0.84286 0.53186 0.24522 0.0
Co237 Co 0.83215 0.48803 0.24069 0.0
C238 C 0.83267 0.45807 0.30037 0.0
O239 O 0.84775 0.45964 0.27858 0.0
N240 N 0.83813 0.47251 0.20493 0.0
C241 C 0.83587 0.44684 0.16932 0.0
C242 C 0.82688 0.4529 0.19876 0.0
C243 C 0.85341 0.47805 0.17768 0.0
N244 N 0.85266 0.46277 0.1564 0.0
O245 O 0.8055 0.47479 0.21648 0.0
H246 H 0.813 0.44359 0.21474 0.0
H247 H 0.86443 0.49304 0.17128 0.0
O248 O 0.82492 0.46845 0.289 0.0
C249 C 0.80543 0.4853 0.18486 0.0
O250 O 0.82171 0.50194 0.17707 0.0
N251 N 0.85873 0.5031 0.25935 0.0
C252 C 0.89972 0.52762 0.26851 0.0
C253 C 0.88813 0.51488 0.30207 0.0
C254 C 0.86763 0.50285 0.29701 0.0
C255 C 0.86925 0.51709 0.22933 0.0
C256 C 0.88961 0.52874 0.23215 0.0
H257 H 0.85911 0.49359 0.32348 0.0
H258 H 0.86182 0.51839 0.20124 0.0
H259 H 0.80561 0.48318 0.32147 0.0
H260 H 0.82836 0.5441 0.30713 0.0
H261 H 0.83034 0.43194 0.15805 0.0
H262 H 0.89463 0.51409 0.33217 0.0
H263 H 0.89707 0.53799 0.2048 0.0
C264 C 0.3185 0.83244 0.7653 0.0
C265 C 0.30481 0.82563 0.79798 0.0
N266 N 0.30882 0.81454 0.82469 0.0
N267 N 0.33115 0.82577 0.77147 0.0
C268 C 0.32471 0.81471 0.80754 0.0
H269 H 0.31935 0.84191 0.73909 0.0
Co270 Co 0.353 0.83174 0.73774 0.0
C271 C 0.38175 0.82783 0.79668 0.0
O272 O 0.39659 0.84102 0.77384 0.0
N273 N 0.37477 0.83759 0.70292 0.0
C274 C 0.39754 0.83451 0.66671 0.0
C275 C 0.38068 0.8248 0.69097 0.0
C276 C 0.38804 0.8548 0.68459 0.0
N277 N 0.40219 0.85346 0.66296 0.0
O278 O 0.33883 0.80544 0.71157 0.0
H279 H 0.37347 0.80947 0.7003 0.0
H280 H 0.38732 0.86811 0.6861 0.0
O281 O 0.36407 0.82293 0.78573 0.0
C282 C 0.32881 0.80608 0.67957 0.0
O283 O 0.32928 0.82279 0.67204 0.0
N284 N 0.36529 0.85802 0.75855 0.0
C285 C 0.38315 0.8988 0.77132 0.0
C286 C 0.38574 0.88676 0.80116 0.0
C287 C 0.37641 0.86632 0.79459 0.0
C288 C 0.3613 0.86926 0.73145 0.0
C289 C 0.37028 0.88959 0.73671 0.0
H290 H 0.37825 0.85746 0.81855 0.0
H291 H 0.35202 0.86248 0.70366 0.0
H292 H 0.33142 0.80677 0.82087 0.0
H293 H 0.29318 0.82907 0.80229 0.0
H294 H 0.40579 0.82809 0.65333 0.0
H295 H 0.39489 0.89305 0.82939 0.0
H296 H 0.36772 0.89804 0.71262 0.0
C297 C 0.48426 0.31126 0.26479 0.0
C298 C 0.47796 0.29532 0.29171 0.0
N299 N 0.4938 0.29624 0.31068 0.0
N300 N 0.50404 0.32256 0.26742 0.0
C301 C 0.50939 0.31242 0.29409 0.0
H302 H 0.47472 0.31418 0.24513 0.0
Co303 Co 0.5213 0.34682 0.24073 0.0
C304 C 0.53441 0.35411 0.33298 0.0
O305 O 0.51571 0.34557 0.34364 0.0
N306 N 0.53812 0.37027 0.21393 0.0
C307 C 0.56239 0.40028 0.19861 0.0
C308 C 0.55719 0.38338 0.22174 0.0
C309 C 0.53218 0.3792 0.1856 0.0
N310 N 0.54648 0.39765 0.17646 0.0
O311 O 0.53467 0.33428 0.21249 0.0
H312 H 0.5665 0.38114 0.24396 0.0
H313 H 0.51744 0.37237 0.17264 0.0
O314 O 0.53911 0.35544 0.29285 0.0
C315 C 0.52465 0.32595 0.17842 0.0
O316 O 0.50901 0.32755 0.17108 0.0
N317 N 0.50693 0.35884 0.26174 0.0
C318 C 0.48637 0.37959 0.2696 0.0
C319 C 0.50381 0.38534 0.29283 0.0
C320 C 0.51412 0.37514 0.28757 0.0
C321 C 0.49033 0.35347 0.23817 0.0
C322 C 0.47974 0.36333 0.24201 0.0
H323 H 0.52847 0.38127 0.30211 0.0
H324 H 0.4862 0.34256 0.21313 0.0
H325 H 0.52447 0.31747 0.30316 0.0
H326 H 0.46281 0.28417 0.29755 0.0
H327 H 0.57657 0.41364 0.19916 0.0
H328 H 0.50987 0.39804 0.31386 0.0
H329 H 0.4671 0.35891 0.22137 0.0
C330 C 0.17626 0.48199 0.76839 0.0
C331 C 0.18524 0.47521 0.79592 0.0
N332 N 0.19977 0.49072 0.81664 0.0
N333 N 0.18473 0.50172 0.77229 0.0
C334 C 0.19963 0.50661 0.80044 0.0
H335 H 0.16429 0.4728 0.74718 0.0
Co336 Co 0.17822 0.51909 0.74435 0.0
C337 C 0.18365 0.53291 0.83643 0.0
O338 O 0.1736 0.51438 0.84844 0.0
N339 N 0.17203 0.5359 0.71624 0.0
C340 C 0.16663 0.56015 0.6985 0.0
C341 C 0.17763 0.55489 0.72397 0.0
C342 C 0.1581 0.53007 0.68564 0.0
N343 N 0.15418 0.54437 0.67481 0.0
O344 O 0.2044 0.53235 0.7176 0.0
H345 H 0.18852 0.56415 0.7474 0.0
H346 H 0.15079 0.51543 0.67204 0.0
O347 O 0.18695 0.53706 0.79607 0.0
C348 C 0.20355 0.52227 0.68424 0.0
O349 O 0.18674 0.50625 0.67604 0.0
N350 N 0.15165 0.50487 0.76406 0.0
C351 C 0.11031 0.48409 0.77049 0.0
C352 C 0.12176 0.50137 0.79443 0.0
C353 C 0.14232 0.5118 0.78989 0.0
C354 C 0.14067 0.48848 0.73973 0.0
C355 C 0.1202 0.47779 0.74282 0.0
H356 H 0.15038 0.52601 0.80509 0.0
H357 H 0.14769 0.48456 0.71483 0.0
H358 H 0.2096 0.52155 0.81059 0.0
H359 H 0.18112 0.45996 0.80078 0.0
H360 H 0.16744 0.57432 0.6983 0.0
H361 H 0.11492 0.50719 0.81553 0.0
H362 H 0.11219 0.46531 0.72164 0.0
C363 C 0.69969 0.17454 0.26553 0.0
C364 C 0.71548 0.18456 0.29265 0.0
N365 N 0.71442 0.1997 0.31001 0.0
N366 N 0.68837 0.18304 0.26637 0.0
C367 C 0.69838 0.1989 0.29207 0.0
H368 H 0.69666 0.16155 0.24773 0.0
Co369 Co 0.66381 0.17559 0.24102 0.0
C370 C 0.6573 0.18203 0.33385 0.0
O371 O 0.66627 0.17235 0.34501 0.0
N372 N 0.6399 0.16855 0.21571 0.0
C373 C 0.60942 0.16231 0.20401 0.0
C374 C 0.6267 0.17419 0.22561 0.0
C375 C 0.63064 0.15375 0.1873 0.0
N376 N 0.61201 0.14944 0.18025 0.0
O377 O 0.67578 0.20137 0.2123 0.0
H378 H 0.6292 0.18575 0.24803 0.0
H379 H 0.63714 0.14563 0.17364 0.0
O380 O 0.65558 0.18486 0.29359 0.0
C381 C 0.6803 0.19916 0.17372 0.0
O382 O 0.67615 0.1814 0.16201 0.0
N383 N 0.65229 0.14941 0.26273 0.0
C384 C 0.63179 0.10822 0.27145 0.0
C385 C 0.62584 0.11985 0.29417 0.0
C386 C 0.63607 0.14036 0.28884 0.0
C387 C 0.65776 0.13818 0.23947 0.0
C388 C 0.64812 0.11775 0.2441 0.0
H389 H 0.62993 0.14861 0.30325 0.0
H390 H 0.6686 0.1449 0.21425 0.0
H391 H 0.69339 0.20918 0.29929 0.0
H392 H 0.72616 0.18022 0.30103 0.0
H393 H 0.59603 0.16304 0.20558 0.0
H394 H 0.61296 0.11311 0.31469 0.0
H395 H 0.65264 0.1094 0.22412 0.0
H396 H 0.34527 0.52374 0.09508 0.0
H397 H 0.36308 0.5461 0.036 0.0
H398 H 0.39598 0.59271 0.12697 0.0
H399 H 0.37825 0.57014 0.18682 0.0
H400 H 0.3667 0.58142 0.00978 0.0
H401 H 0.4397 0.5919 0.0568 0.0
H402 H 0.41705 0.5729 0.08016 0.0
H403 H 0.42716 0.59801 0.09702 0.0
C404 C 0.35621 0.53877 0.10277 0.0
C405 C 0.36036 0.54503 0.14597 0.0
C406 C 0.36641 0.5516 0.06875 0.0
C407 C 0.38118 0.57107 0.07676 0.0
C408 C 0.38494 0.57766 0.11981 0.0
H409 H 0.46262 0.65185 0.87623 0.0
H410 H 0.44478 0.64051 0.94501 0.0
C411 C 0.37464 0.56478 0.15407 0.0
C412 C 0.39263 0.58403 0.03968 0.0
H413 H 0.4383 0.60719 0.99283 0.0
C414 C 0.3824 0.58722 1.00638 0.0
C415 C 0.41318 0.59175 0.035 0.0
C416 C 0.42498 0.58841 0.06889 0.0
C417 C 0.39193 0.59738 0.9684 0.0
C418 C 0.41229 0.60432 0.96287 0.0
C419 C 0.42272 0.60191 0.99691 0.0
C420 C 0.42247 0.61222 0.92058 0.0
C421 C 0.38002 0.60039 0.93425 0.0
C422 C 0.41592 0.60025 0.88375 0.0
C423 C 0.42607 0.60668 0.84464 0.0
C424 C 0.44314 0.62529 0.84098 0.0
C425 C 0.44945 0.63756 0.87755 0.0
C426 C 0.43931 0.63102 0.91705 0.0
H427 H 0.36699 0.60034 0.94841 0.0
H428 H 0.389 0.61447 0.91674 0.0
H429 H 0.3746 0.58816 0.91062 0.0
H430 H 0.40326 0.58558 0.88554 0.0
H431 H 0.42075 0.59675 0.81735 0.0
H432 H 0.8113 0.37551 0.6808 0.0
H433 H 0.80707 0.39327 0.62019 0.0
H434 H 0.82346 0.3617 0.53139 0.0
H435 H 0.82722 0.34374 0.59106 0.0
H436 H 0.83391 0.41809 0.56226 0.0
H437 H 0.77544 0.3556 0.47226 0.0
H438 H 0.78165 0.35315 0.52705 0.0
H439 H 0.79571 0.35175 0.48266 0.0
C440 C 0.81363 0.37209 0.64831 0.0
C441 C 0.81955 0.35809 0.64105 0.0
C442 C 0.81131 0.38235 0.6136 0.0
C443 C 0.81462 0.37869 0.57082 0.0
C444 C 0.82028 0.36454 0.5637 0.0
H445 H 0.83912 0.42797 0.31937 0.0
H446 H 0.83231 0.40937 0.38633 0.0
C447 C 0.82259 0.35433 0.59815 0.0
C448 C 0.81337 0.39029 0.53364 0.0
H449 H 0.79516 0.38529 0.4312 0.0
C450 C 0.82511 0.41093 0.53397 0.0
C451 C 0.80186 0.38108 0.49651 0.0
C452 C 0.7878 0.3592 0.49475 0.0
C453 C 0.82652 0.42239 0.49756 0.0
C454 C 0.81581 0.41304 0.45973 0.0
C455 C 0.80346 0.39251 0.46002 0.0
C456 C 0.81872 0.42401 0.41834 0.0
C457 C 0.84025 0.44434 0.49898 0.0
C458 C 0.81295 0.43826 0.41331 0.0
C459 C 0.81669 0.44891 0.37447 0.0
C460 C 0.82643 0.44563 0.34011 0.0
C461 C 0.83168 0.43101 0.3451 0.0
C462 C 0.82778 0.4203 0.38348 0.0
H463 H 0.84941 0.44904 0.52861 0.0
H464 H 0.8501 0.44922 0.47042 0.0
H465 H 0.83151 0.45191 0.49803 0.0
H466 H 0.80573 0.44127 0.43952 0.0
H467 H 0.81252 0.4601 0.37188 0.0
H468 H 0.41676 0.81417 0.19772 0.0
H469 H 0.40254 0.80997 0.12589 0.0
H470 H 0.45525 0.81508 0.07022 0.0
H471 H 0.46932 0.8187 0.14259 0.0
H472 H 0.41519 0.83629 0.06473 0.0
H473 H 0.41501 0.7706 0.99928 0.0
H474 H 0.41915 0.77705 0.05564 0.0
H475 H 0.43887 0.78917 0.01731 0.0
C476 C 0.42514 0.81387 0.17026 0.0
C477 C 0.44412 0.81658 0.17603 0.0
C478 C 0.41701 0.81157 0.12905 0.0
C479 C 0.42765 0.81206 0.09218 0.0
C480 C 0.44643 0.81413 0.0979 0.0
H481 H 0.41573 0.82889 0.81992 0.0
H482 H 0.42537 0.82336 0.89114 0.0
C483 C 0.45451 0.81619 0.13943 0.0
C484 C 0.41967 0.81216 0.04821 0.0
H485 H 0.40922 0.79017 0.9488 0.0
C486 C 0.41371 0.82602 0.03963 0.0
C487 C 0.41774 0.79888 0.01503 0.0
C488 C 0.42285 0.78296 0.02232 0.0
C489 C 0.40629 0.82722 0.99909 0.0
C490 C 0.40453 0.81408 0.96586 0.0
C491 C 0.41045 0.80019 0.97425 0.0
C492 C 0.3976 0.81535 0.92163 0.0
C493 C 0.40094 0.84297 0.99174 0.0
C494 C 0.3785 0.81212 0.9144 0.0
C495 C 0.37285 0.81517 0.87336 0.0
C496 C 0.38622 0.8216 0.83871 0.0
C497 C 0.40504 0.82402 0.84579 0.0
C498 C 0.4106 0.82083 0.88659 0.0
H499 H 0.40684 0.85435 0.01743 0.0
H500 H 0.40659 0.85029 0.96012 0.0
H501 H 0.38469 0.83615 0.99149 0.0
H502 H 0.36808 0.80765 0.94075 0.0
H503 H 0.35833 0.81329 0.86929 0.0
H504 H 0.52863 0.34794 0.41931 0.0
H505 H 0.55125 0.36559 0.47789 0.0
H506 H 0.59693 0.39987 0.38592 0.0
H507 H 0.57401 0.38228 0.32642 0.0
H508 H 0.58654 0.36945 0.5021 0.0
H509 H 0.59637 0.44271 0.45952 0.0
H510 H 0.57744 0.42023 0.43547 0.0
H511 H 0.60254 0.43063 0.41829 0.0
C512 C 0.5435 0.35917 0.41125 0.0
C513 C 0.54939 0.36373 0.36788 0.0
C514 C 0.55649 0.36927 0.44501 0.0
C515 C 0.57579 0.38437 0.43668 0.0
C516 C 0.58202 0.38858 0.3934 0.0
H517 H 0.65561 0.46269 0.64355 0.0
H518 H 0.6451 0.44613 0.57295 0.0
C519 C 0.56895 0.37836 0.35933 0.0
C520 C 0.58888 0.39559 0.4738 0.0
H521 H 0.61146 0.4407 0.52321 0.0
C522 C 0.59219 0.38509 0.50634 0.0
C523 C 0.59641 0.41605 0.47964 0.0
C524 C 0.59295 0.42813 0.44664 0.0
C525 C 0.60212 0.39424 0.54477 0.0
C526 C 0.6088 0.41446 0.5515 0.0
C527 C 0.60639 0.42522 0.51817 0.0
C528 C 0.61613 0.42401 0.59456 0.0
C529 C 0.60505 0.38202 0.57832 0.0
C530 C 0.60347 0.41715 0.63028 0.0
C531 C 0.60938 0.42657 0.67024 0.0
C532 C 0.62818 0.44316 0.67592 0.0
C533 C 0.64114 0.44982 0.64048 0.0
C534 C 0.63508 0.44044 0.60004 0.0
H535 H 0.60491 0.36904 0.56364 0.0
H536 H 0.61914 0.39085 0.59582 0.0
H537 H 0.59286 0.37655 0.60208 0.0
H538 H 0.5887 0.40476 0.62697 0.0
H539 H 0.59896 0.42104 0.69667 0.0
H540 H 0.19439 0.62841 0.18618 0.0
H541 H 0.19714 0.60876 0.12793 0.0
H542 H 0.19401 0.6475 0.03385 0.0
H543 H 0.19135 0.66718 0.09165 0.0
H544 H 0.16864 0.58917 0.06253 0.0
H545 H 0.24056 0.64223 0.98997 0.0
H546 H 0.23343 0.64542 0.04339 0.0
H547 H 0.22394 0.6515 0.99677 0.0
C548 C 0.19471 0.63301 0.15318 0.0
C549 C 0.19271 0.64948 0.14382 0.0
C550 C 0.19617 0.62167 0.11979 0.0
C551 C 0.196 0.6267 0.07629 0.0
C552 C 0.19455 0.64344 0.06698 0.0
H553 H 0.19058 0.57095 0.82685 0.0
H554 H 0.19425 0.59404 0.88456 0.0
C555 C 0.19291 0.65465 0.10023 0.0
C556 C 0.19587 0.61373 0.04068 0.0
H557 H 0.2206 0.61293 0.95032 0.0
C558 C 0.1801 0.59433 0.03823 0.0
C559 C 0.21064 0.62049 0.00845 0.0
C560 C 0.22821 0.64099 0.00979 0.0
C561 C 0.1785 0.58166 1.00434 0.0
C562 C 0.19341 0.58828 0.97233 0.0
C563 C 0.20917 0.60774 0.97469 0.0
C564 C 0.19291 0.57508 0.93674 0.0
C565 C 0.16047 0.56144 1.00255 0.0
C566 C 0.19172 0.55703 0.94641 0.0
C567 C 0.1895 0.54382 0.91359 0.0
C568 C 0.18878 0.54839 0.86997 0.0
C569 C 0.19114 0.56695 0.85999 0.0
C570 C 0.19316 0.58015 0.89306 0.0
H571 H 0.14799 0.56088 0.0207 0.0
H572 H 0.1557 0.55685 0.96878 0.0
H573 H 0.16389 0.55065 0.01746 0.0
H574 H 0.19212 0.55294 0.97957 0.0
H575 H 0.18799 0.52979 0.92254 0.0
H576 H 0.62633 0.1892 0.32647 0.0
H577 H 0.60775 0.19339 0.38527 0.0
H578 H 0.64675 0.19 0.4782 0.0
H579 H 0.66532 0.18591 0.41993 0.0
H580 H 0.58821 0.16593 0.45231 0.0
H581 H 0.64363 0.23777 0.52091 0.0
H582 H 0.64604 0.22984 0.46773 0.0
H583 H 0.65211 0.22049 0.51461 0.0
C584 C 0.6312 0.18977 0.35933 0.0
C585 C 0.64737 0.18724 0.36829 0.0
C586 C 0.62049 0.19207 0.39303 0.0
C587 C 0.6259 0.19223 0.43639 0.0
C588 C 0.6424 0.19029 0.4452 0.0
H589 H 0.574 0.19023 0.68903 0.0
H590 H 0.59613 0.19292 0.62987 0.0
C591 C 0.65297 0.18783 0.41168 0.0
C592 C 0.61355 0.1929 0.47251 0.0
H593 H 0.61476 0.21867 0.56279 0.0
C594 C 0.59398 0.17757 0.4762 0.0
C595 C 0.62109 0.2079 0.50426 0.0
C596 C 0.64182 0.22504 0.50164 0.0
C597 C 0.58191 0.17662 0.51086 0.0
C598 C 0.58934 0.19174 0.54243 0.0
C599 C 0.60896 0.20708 0.53879 0.0
C600 C 0.57682 0.1919 0.57887 0.0
C601 C 0.56146 0.15899 0.51395 0.0
C602 C 0.55893 0.19125 0.57034 0.0
C603 C 0.54628 0.18961 0.60397 0.0
C604 C 0.55127 0.18893 0.64729 0.0
C605 C 0.56971 0.19079 0.65612 0.0
C606 C 0.58234 0.19224 0.62223 0.0
H607 H 0.56023 0.14621 0.49585 0.0
H608 H 0.55722 0.1545 0.548 0.0
H609 H 0.5508 0.16277 0.49974 0.0
H610 H 0.55451 0.19162 0.53745 0.0
H611 H 0.53233 0.18847 0.59589 0.0
H612 H 0.57564 0.42681 0.13049 0.0
H613 H 0.57188 0.44568 0.07331 0.0
H614 H 0.50978 0.4185 0.10079 0.0
H615 H 0.51357 0.39951 0.15875 0.0
H616 H 0.5148 0.41161 0.02155 0.0
H617 H 0.56397 0.4903 0.0414 0.0
H618 H 0.57757 0.47915 0.06067 0.0
H619 H 0.55499 0.47393 0.08741 0.0
C620 C 0.56133 0.42536 0.12552 0.0
C621 C 0.54486 0.41133 0.14836 0.0
C622 C 0.55918 0.43637 0.09302 0.0
C623 C 0.54054 0.43374 0.08295 0.0
C624 C 0.5243 0.42088 0.10813 0.0
H625 H 0.59197 0.47368 0.84053 0.0
H626 H 0.56523 0.47123 0.88528 0.0
C627 C 0.52646 0.40983 0.14075 0.0
C628 C 0.53783 0.44059 0.04041 0.0
H629 H 0.56914 0.47581 0.97108 0.0
C630 C 0.52599 0.42603 0.01044 0.0
C631 C 0.55145 0.45962 0.02531 0.0
C632 C 0.56249 0.47664 0.0557 0.0
C633 C 0.53083 0.42864 0.96658 0.0
C634 C 0.54793 0.44595 0.95337 0.0
C635 C 0.55657 0.46209 0.98157 0.0
C636 C 0.56058 0.44516 0.91911 0.0
C637 C 0.51934 0.41183 0.93591 0.0
C638 C 0.56674 0.43122 0.92303 0.0
C639 C 0.58229 0.43282 0.89844 0.0
C640 C 0.59214 0.44847 0.8694 0.0
C641 C 0.58513 0.46174 0.86347 0.0
C642 C 0.56961 0.46021 0.88848 0.0
H643 H 0.50337 0.40466 0.94316 0.0
H644 H 0.52188 0.41686 0.90183 0.0
H645 H 0.52381 0.40057 0.9402 0.0
H646 H 0.56047 0.41983 0.94745 0.0
H647 H 0.58728 0.42244 0.90422 0.0
H648 H 0.13816 0.57478 0.31382 0.0
H649 H 0.11493 0.54881 0.36228 0.0
H650 H 0.12544 0.59288 0.45835 0.0
H651 H 0.14762 0.61852 0.40941 0.0
H652 H 0.12549 0.5396 0.42876 0.0
H653 H 0.07059 0.55655 0.48822 0.0
H654 H 0.08367 0.56726 0.43856 0.0
H655 H 0.09298 0.57964 0.48963 0.0
C656 C 0.13506 0.57879 0.34503 0.0
C657 C 0.14478 0.59853 0.35835 0.0
C658 C 0.12164 0.56402 0.37244 0.0
C659 C 0.11803 0.56879 0.41385 0.0
C660 C 0.12717 0.58869 0.42612 0.0
H661 H 0.15484 0.57426 0.63006 0.0
H662 H 0.13416 0.57129 0.56897 0.0
C663 C 0.14019 0.6034 0.39843 0.0
C664 C 0.10885 0.55348 0.44771 0.0
H665 H 0.09002 0.55047 0.54806 0.0
C666 C 0.11678 0.54111 0.45401 0.0
C667 C 0.09688 0.55466 0.48031 0.0
C668 C 0.0854 0.56511 0.47333 0.0
C669 C 0.11645 0.53331 0.49474 0.0
C670 C 0.10806 0.53815 0.52958 0.0
C671 C 0.09698 0.54732 0.52145 0.0
C672 C 0.11604 0.53961 0.5732 0.0
C673 C 0.12763 0.52249 0.50153 0.0
C674 C 0.1121 0.52283 0.59681 0.0
C675 C 0.12398 0.52451 0.63194 0.0
C676 C 0.14 0.54297 0.64356 0.0
C677 C 0.14273 0.55986 0.62198 0.0
C678 C 0.13083 0.55818 0.58714 0.0
H679 H 0.13255 0.51919 0.47064 0.0
H680 H 0.14079 0.5315 0.52183 0.0
H681 H 0.1182 0.50842 0.51863 0.0
H682 H 0.10067 0.5084 0.58657 0.0
H683 H 0.12107 0.51126 0.64886 0.0
H684 H 0.57323 0.12549 0.19527 0.0
H685 H 0.54877 0.103 0.14328 0.0
H686 H 0.59519 0.11843 0.05006 0.0
H687 H 0.61933 0.13967 0.10258 0.0
H688 H 0.54022 0.11548 0.07991 0.0
H689 H 0.56073 0.06541 0.00776 0.0
H690 H 0.57039 0.07635 0.05979 0.0
H691 H 0.5835 0.08808 0.01064 0.0
C692 C 0.57808 0.12351 0.16396 0.0
C693 C 0.59801 0.13442 0.1524 0.0
C694 C 0.56419 0.11054 0.13446 0.0
C695 C 0.57001 0.1087 0.09264 0.0
C696 C 0.59017 0.11881 0.08234 0.0
H697 H 0.57865 0.15548 0.88569 0.0
H698 H 0.57531 0.13234 0.94188 0.0
C699 C 0.60403 0.13131 0.11215 0.0
C700 C 0.55549 0.10076 0.05696 0.0
H701 H 0.55553 0.08744 0.95258 0.0
C702 C 0.54272 0.10834 0.0527 0.0
C703 C 0.55792 0.09079 0.02159 0.0
C704 C 0.56873 0.07953 0.02564 0.0
C705 C 0.53576 0.10984 0.01219 0.0
C706 C 0.54185 0.10363 0.97548 0.0
C707 C 0.55144 0.09277 0.98076 0.0
C708 C 0.54387 0.11358 0.93398 0.0
C709 C 0.52445 0.12067 0.00829 0.0
C710 C 0.52739 0.11019 0.9099 0.0
C711 C 0.52928 0.12349 0.87773 0.0
C712 C 0.54766 0.14037 0.86952 0.0
C713 C 0.56434 0.14272 0.89132 0.0
C714 C 0.56245 0.12942 0.92328 0.0
H715 H 0.52025 0.12385 0.04023 0.0
H716 H 0.5335 0.13482 0.9911 0.0
H717 H 0.51084 0.11177 0.98927 0.0
H718 H 0.51297 0.09797 0.91764 0.0
H719 H 0.51624 0.12091 0.8604 0.0
H720 H 0.50262 0.61713 0.63422 0.0
H721 H 0.50672 0.59978 0.57359 0.0
H722 H 0.44386 0.56137 0.56764 0.0
H723 H 0.43967 0.578 0.62944 0.0
H724 H 0.46652 0.54359 0.53757 0.0
H725 H 0.49084 0.61726 0.46399 0.0
H726 H 0.50454 0.61478 0.50753 0.0
H727 H 0.48082 0.61219 0.51774 0.0
C728 C 0.48968 0.60454 0.62118 0.0
C729 C 0.47068 0.59935 0.63578 0.0
C730 C 0.49212 0.59465 0.5864 0.0
C731 C 0.47559 0.57964 0.56555 0.0
C732 C 0.45684 0.57301 0.58318 0.0
H733 H 0.3945 0.53084 0.40767 0.0
H734 H 0.4214 0.53471 0.45296 0.0
C735 C 0.45441 0.58275 0.61806 0.0
C736 C 0.47668 0.57383 0.52086 0.0
H737 H 0.47223 0.58973 0.42197 0.0
C738 C 0.46852 0.55374 0.51171 0.0
C739 C 0.48001 0.58715 0.48679 0.0
C740 C 0.48955 0.60906 0.49416 0.0
C741 C 0.46061 0.54631 0.47091 0.0
C742 C 0.46036 0.55928 0.43959 0.0
C743 C 0.47183 0.57964 0.44636 0.0
C744 C 0.44442 0.5526 0.40712 0.0
C745 C 0.45109 0.52449 0.46312 0.0
C746 C 0.44816 0.56136 0.36609 0.0
C747 C 0.43267 0.55975 0.34088 0.0
C748 C 0.41323 0.54908 0.35601 0.0
C749 C 0.40938 0.53909 0.39538 0.0
C750 C 0.42482 0.54102 0.42093 0.0
H751 H 0.46051 0.51888 0.47625 0.0
H752 H 0.43684 0.51677 0.48056 0.0
H753 H 0.44851 0.52082 0.42829 0.0
H754 H 0.46311 0.57044 0.35475 0.0
H755 H 0.4359 0.56724 0.3101 0.0
H756 H 0.89118 0.49077 0.14801 0.0
H757 H 0.91234 0.49565 0.0856 0.0
H758 H 0.86616 0.44245 0.02856 0.0
H759 H 0.84475 0.43779 0.08958 0.0
H760 H 0.92001 0.46198 0.03617 0.0
H761 H 0.88395 0.49673 0.94892 0.0
H762 H 0.88796 0.49893 1.00662 0.0
H763 H 0.86735 0.4773 0.9842 0.0
C764 C 0.88555 0.48009 0.12218 0.0
C765 C 0.8661 0.46406 0.12332 0.0
C766 C 0.89775 0.48284 0.08691 0.0
C767 C 0.89066 0.4695 0.05271 0.0
C768 C 0.87177 0.4529 0.05494 0.0
H769 H 0.86838 0.39423 0.90057 0.0
H770 H 0.89095 0.42101 0.94619 0.0
C771 C 0.85958 0.4502 0.08989 0.0
C772 C 0.90169 0.47313 0.0123 0.0
H773 H 0.88942 0.47338 0.90791 0.0
C774 C 0.91417 0.46531 0.00773 0.0
C775 C 0.89506 0.47854 0.97536 0.0
C776 C 0.88301 0.48858 0.97893 0.0
C777 C 0.91691 0.45922 0.96711 0.0
C778 C 0.90594 0.46003 0.93174 0.0
C779 C 0.89719 0.47182 0.93514 0.0
C780 C 0.89752 0.44406 0.89913 0.0
C781 C 0.92972 0.45004 0.96343 0.0
C782 C 0.89346 0.44771 0.85706 0.0
C783 C 0.87972 0.43224 0.83158 0.0
C784 C 0.87022 0.41289 0.84745 0.0
C785 C 0.87558 0.40904 0.88771 0.0
C786 C 0.88888 0.42445 0.91351 0.0
H787 H 0.94407 0.45962 0.97943 0.0
H788 H 0.92271 0.43571 0.98063 0.0
H789 H 0.93241 0.44777 0.92932 0.0
H790 H 0.89985 0.46264 0.84511 0.0
H791 H 0.87605 0.43543 0.80009 0.0
H792 H 0.48525 0.89248 0.34035 0.0
H793 H 0.48875 0.91867 0.3888 0.0
H794 H 0.43846 0.87617 0.46139 0.0
H795 H 0.43517 0.85011 0.41467 0.0
H796 H 0.44223 0.91601 0.44856 0.0
H797 H 0.50923 0.91866 0.51439 0.0
H798 H 0.50674 0.92305 0.45818 0.0
H799 H 0.49443 0.89836 0.47897 0.0
C800 C 0.47486 0.8887 0.36651 0.0
C801 C 0.46016 0.86897 0.3741 0.0
C802 C 0.4768 0.90378 0.3938 0.0
C803 C 0.4639 0.89934 0.4286 0.0
C804 C 0.44846 0.87996 0.43432 0.0
H805 H 0.42206 0.84896 0.59685 0.0
H806 H 0.44575 0.87451 0.54991 0.0
C807 C 0.44661 0.86497 0.40749 0.0
C808 C 0.46756 0.91342 0.46375 0.0
H809 H 0.48372 0.91289 0.56486 0.0
C810 C 0.45204 0.91672 0.474 0.0
C811 C 0.48091 0.91536 0.49651 0.0
C812 C 0.49892 0.91387 0.48663 0.0
C813 C 0.44646 0.91627 0.5171 0.0
C814 C 0.45689 0.91265 0.54952 0.0
C815 C 0.47534 0.91491 0.5396 0.0
C816 C 0.44559 0.89853 0.584 0.0
C817 C 0.4274 0.91576 0.52683 0.0
C818 C 0.43799 0.90361 0.61938 0.0
C819 C 0.42437 0.88887 0.64665 0.0
C820 C 0.41803 0.86886 0.63853 0.0
C821 C 0.42658 0.86409 0.60435 0.0
C822 C 0.4402 0.87876 0.57745 0.0
H823 H 0.42262 0.92154 0.49952 0.0
H824 H 0.41571 0.90035 0.53319 0.0
H825 H 0.42901 0.9246 0.55604 0.0
H826 H 0.44205 0.91879 0.62499 0.0
H827 H 0.41848 0.89314 0.6734 0.0
H828 H 0.23543 0.5196 0.84456 0.0
H829 H 0.25187 0.51983 0.91187 0.0
H830 H 0.20506 0.46109 0.94023 0.0
H831 H 0.18835 0.46088 0.8739 0.0
H832 H 0.21472 0.48916 0.00849 0.0
H833 H 0.28018 0.48842 0.94194 0.0
H834 H 0.27521 0.50678 0.92043 0.0
H835 H 0.25825 0.48123 0.91049 0.0
C836 C 0.2287 0.50671 0.86501 0.0
C837 C 0.21059 0.49021 0.85371 0.0
C838 C 0.23817 0.50682 0.90328 0.0
C839 C 0.2297 0.49043 0.93078 0.0
C840 C 0.21185 0.47385 0.91928 0.0
H841 H 0.27751 0.45996 0.1471 0.0
H842 H 0.26091 0.46073 0.08132 0.0
C843 C 0.20241 0.4737 0.88108 0.0
C844 C 0.23893 0.49074 0.97251 0.0
H845 H 0.27887 0.49136 0.0175 0.0
C846 C 0.22877 0.48969 0.01057 0.0
C847 C 0.25717 0.49131 0.97487 0.0
C848 C 0.26835 0.49185 0.93483 0.0
C849 C 0.2364 0.48916 0.05112 0.0
C850 C 0.25469 0.48984 0.05349 0.0
C851 C 0.26487 0.49092 0.01543 0.0
C852 C 0.26333 0.48886 0.09509 0.0
C853 C 0.22467 0.48744 0.09106 0.0
C854 C 0.26991 0.50432 0.12488 0.0
C855 C 0.27932 0.50387 0.16276 0.0
C856 C 0.28233 0.48797 0.1714 0.0
C857 C 0.27518 0.47227 0.14191 0.0
C858 C 0.26585 0.47277 0.10406 0.0
H859 H 0.20924 0.48323 0.08331 0.0
H860 H 0.22456 0.47638 0.11357 0.0
H861 H 0.23161 0.50183 0.10793 0.0
H862 H 0.26824 0.51696 0.11829 0.0
H863 H 0.28455 0.51612 0.18492 0.0
H864 H 0.79873 0.25607 0.67996 0.0
H865 H 0.78356 0.23983 0.61167 0.0
H866 H 0.77484 0.28823 0.57801 0.0
H867 H 0.79041 0.30475 0.645 0.0
H868 H 0.74614 0.22837 0.57616 0.0
H869 H 0.80655 0.28496 0.476 0.0
H870 H 0.80887 0.28289 0.53341 0.0
H871 H 0.79606 0.29482 0.5129 0.0
C872 C 0.79351 0.26319 0.65805 0.0
C873 C 0.79584 0.28172 0.66802 0.0
C874 C 0.78483 0.2539 0.61916 0.0
C875 C 0.77847 0.26305 0.58954 0.0
C876 C 0.78 0.28111 0.60015 0.0
H877 H 0.70118 0.21469 0.37181 0.0
H878 H 0.71767 0.23037 0.43886 0.0
C879 C 0.78866 0.2904 0.63888 0.0
C880 C 0.77041 0.25391 0.54723 0.0
H881 H 0.77746 0.26195 0.43884 0.0
C882 C 0.75302 0.23562 0.54611 0.0
C883 C 0.77964 0.26331 0.50815 0.0
C884 C 0.79892 0.28249 0.5075 0.0
C885 C 0.74423 0.22676 0.50681 0.0
C886 C 0.75297 0.23661 0.46778 0.0
C887 C 0.7707 0.25458 0.46887 0.0
C888 C 0.74375 0.22853 0.42555 0.0
C889 C 0.72571 0.20689 0.50738 0.0
C890 C 0.75337 0.22315 0.39497 0.0
C891 C 0.74407 0.21439 0.35615 0.0
C892 C 0.72507 0.21101 0.34719 0.0
C893 C 0.71588 0.21725 0.37724 0.0
C894 C 0.72517 0.22597 0.41596 0.0
H895 H 0.72386 0.19915 0.53851 0.0
H896 H 0.7128 0.20889 0.50288 0.0
H897 H 0.72578 0.19743 0.48085 0.0
H898 H 0.76783 0.22522 0.40168 0.0
H899 H 0.75159 0.20993 0.3335 0.0
H900 H 0.53582 0.79075 0.19621 0.0
H901 H 0.53838 0.77384 0.13257 0.0
H902 H 0.50087 0.78953 0.06208 0.0
H903 H 0.49887 0.80713 0.12487 0.0
H904 H 0.50868 0.74248 0.09001 0.0
H905 H 0.54686 0.80626 0.97982 0.0
H906 H 0.54523 0.80903 0.03718 0.0
H907 H 0.52483 0.80403 1.00268 0.0
C908 C 0.5284 0.79093 0.167 0.0
C909 C 0.51718 0.80037 0.16574 0.0
C910 C 0.52977 0.78113 0.13073 0.0
C911 C 0.52004 0.78066 0.09246 0.0
C912 C 0.50881 0.79003 0.09104 0.0
H913 H 0.48496 0.69866 0.88138 0.0
H914 H 0.48724 0.71664 0.94733 0.0
C915 C 0.50748 0.79988 0.12722 0.0
C916 C 0.52094 0.76969 0.05455 0.0
H917 H 0.53256 0.77441 0.94757 0.0
C918 C 0.51405 0.74948 0.05893 0.0
C919 C 0.52822 0.77892 0.01423 0.0
C920 C 0.53689 0.80079 0.00819 0.0
C921 C 0.5137 0.7381 0.0237 0.0
C922 C 0.52006 0.74714 0.98289 0.0
C923 C 0.5275 0.76747 0.97881 0.0
C924 C 0.51881 0.73576 0.94378 0.0
C925 C 0.50666 0.71655 0.03063 0.0
C926 C 0.53574 0.74079 0.9194 0.0
C927 C 0.53445 0.73061 0.8815 0.0
C928 C 0.5162 0.71522 0.86724 0.0
C929 C 0.49929 0.71018 0.89187 0.0
C930 C 0.50057 0.72043 0.92963 0.0
H931 H 0.50798 0.71333 0.06496 0.0
H932 H 0.49091 0.70779 0.02151 0.0
H933 H 0.51509 0.71163 0.0105 0.0
H934 H 0.54995 0.75263 0.92971 0.0
H935 H 0.54776 0.73472 0.86347 0.0
H936 H 0.71535 0.48556 0.67662 0.0
H937 H 0.73462 0.48622 0.61406 0.0
H938 H 0.74446 0.54375 0.58003 0.0
H939 H 0.72533 0.54323 0.64277 0.0
H940 H 0.72701 0.48878 0.52937 0.0
H941 H 0.79964 0.55196 0.57432 0.0
H942 H 0.77968 0.54001 0.61238 0.0
H943 H 0.78017 0.55765 0.57465 0.0
C944 C 0.72165 0.49836 0.65585 0.0
C945 C 0.71886 0.51436 0.66462 0.0
C946 C 0.73271 0.49875 0.62025 0.0
C947 C 0.74119 0.51514 0.59277 0.0
C948 C 0.73846 0.53116 0.60144 0.0
H949 H 0.80159 0.53981 0.34751 0.0
H950 H 0.78402 0.53999 0.41236 0.0
C951 C 0.72751 0.53084 0.63724 0.0
C952 C 0.75208 0.51502 0.55391 0.0
H953 H 0.79637 0.54004 0.50247 0.0
C954 C 0.74221 0.49991 0.52362 0.0
C955 C 0.7719 0.52958 0.54651 0.0
C956 C 0.78355 0.54561 0.57886 0.0
C957 C 0.75156 0.49914 0.48575 0.0
C958 C 0.77129 0.51378 0.47825 0.0
C959 C 0.78119 0.52889 0.50843 0.0
C960 C 0.78195 0.5136 0.43921 0.0
C961 C 0.74019 0.4829 0.45366 0.0
C962 C 0.78673 0.49879 0.43323 0.0
C963 C 0.79694 0.49872 0.39643 0.0
C964 C 0.80254 0.51349 0.36491 0.0
C965 C 0.79773 0.52834 0.37124 0.0
C966 C 0.7876 0.52843 0.40817 0.0
H967 H 0.72412 0.47512 0.46013 0.0
H968 H 0.74286 0.48884 0.42032 0.0
H969 H 0.74524 0.472 0.45551 0.0
H970 H 0.78273 0.48739 0.45727 0.0
H971 H 0.80071 0.48728 0.39314 0.0
H972 H 0.19421 0.7356 0.14717 0.0
H973 H 0.21331 0.7537 0.08416 0.0
H974 H 0.26113 0.74543 0.12521 0.0
H975 H 0.24221 0.72752 0.18906 0.0
H976 H 0.27142 0.78539 0.09282 0.0
H977 H 0.22328 0.72371 0.98349 0.0
H978 H 0.21088 0.73171 0.01998 0.0
H979 H 0.22427 0.72051 0.04092 0.0
C980 C 0.20894 0.73796 0.14344 0.0
C981 C 0.21665 0.73003 0.17311 0.0
C982 C 0.21975 0.74815 0.10715 0.0
C983 C 0.23846 0.75061 0.09986 0.0
C984 C 0.24662 0.74353 0.13025 0.0
H985 H 0.3239 0.80495 0.89326 0.0
H986 H 0.30711 0.78948 0.96036 0.0
C987 C 0.23578 0.73324 0.16654 0.0
C988 C 0.24913 0.7599 0.0596 0.0
H989 H 0.2473 0.75323 0.95068 0.0
C990 C 0.26625 0.77838 0.0617 0.0
C991 C 0.24225 0.75064 0.01922 0.0
C992 C 0.22425 0.73047 0.01551 0.0
C993 C 0.27649 0.7881 0.02413 0.0
C994 C 0.26958 0.77885 0.98367 0.0
C995 C 0.25251 0.7603 0.98172 0.0
C996 C 0.27979 0.78814 0.94284 0.0
C997 C 0.29429 0.80839 0.02802 0.0
C998 C 0.26981 0.79196 0.91013 0.0
C999 C 0.27927 0.80051 0.87132 0.0
C1000 C 0.29889 0.80533 0.86439 0.0
C1001 C 0.30875 0.80127 0.89716 0.0
C1002 C 0.29926 0.79267 0.93589 0.0
H1003 H 0.29447 0.81544 0.0592 0.0
H1004 H 0.30779 0.80724 0.02631 0.0
H1005 H 0.29479 0.81807 1.00135 0.0
H1006 H 0.2547 0.7884 0.91472 0.0
H1007 H 0.27114 0.80316 0.84664 0.0
H1008 H 0.52403 0.23749 0.67644 0.0
H1009 H 0.52528 0.25458 0.60933 0.0
H1010 H 0.46775 0.20718 0.57484 0.0
H1011 H 0.46655 0.18986 0.64099 0.0
H1012 H 0.49785 0.21862 0.5095 0.0
H1013 H 0.49279 0.28171 0.57674 0.0
H1014 H 0.51098 0.27696 0.60013 0.0
H1015 H 0.48535 0.25939 0.60694 0.0
C1016 C 0.51162 0.23077 0.65467 0.0
C1017 C 0.49517 0.21233 0.6642 0.0
C1018 C 0.51231 0.2406 0.61652 0.0
C1019 C 0.49656 0.23214 0.58736 0.0
C1020 C 0.48002 0.21395 0.59708 0.0
H1021 H 0.4651 0.27795 0.37045 0.0
H1022 H 0.46674 0.26187 0.43628 0.0
C1023 C 0.47928 0.20416 0.63517 0.0
C1024 C 0.49748 0.24179 0.54585 0.0
H1025 H 0.49671 0.28116 0.50144 0.0
C1026 C 0.4977 0.23234 0.50762 0.0
C1027 C 0.49718 0.25962 0.54377 0.0
C1028 C 0.49643 0.27003 0.58398 0.0
C1029 C 0.49745 0.2402 0.46716 0.0
C1030 C 0.4971 0.258 0.46508 0.0
C1031 C 0.49705 0.26754 0.50331 0.0
C1032 C 0.49585 0.26655 0.42358 0.0
C1033 C 0.49702 0.22918 0.42696 0.0
C1034 C 0.51161 0.27425 0.3944 0.0
C1035 C 0.51067 0.28337 0.35644 0.0
C1036 C 0.49397 0.28494 0.34714 0.0
C1037 C 0.47804 0.27673 0.37611 0.0
C1038 C 0.47902 0.2677 0.41401 0.0
H1039 H 0.49382 0.214 0.43423 0.0
H1040 H 0.48578 0.22839 0.40405 0.0
H1041 H 0.51155 0.23714 0.41074 0.0
H1042 H 0.5248 0.27363 0.40147 0.0
H1043 H 0.52312 0.28943 0.33471 0.0
H1044 H 0.71463 0.50891 0.88797 0.0
H1045 H 0.73111 0.50247 0.94668 0.0
H1046 H 0.6987 0.44048 0.91788 0.0
H1047 H 0.68188 0.44694 0.85803 0.0
H1048 H 0.71121 0.47863 0.0187 0.0
H1049 H 0.75643 0.4522 0.93511 0.0
H1050 H 0.7471 0.46608 0.9073 0.0
H1051 H 0.73075 0.44087 0.92141 0.0
C1052 C 0.7111 0.49386 0.89346 0.0
C1053 C 0.69682 0.47845 0.86807 0.0
C1054 C 0.72059 0.49021 0.92733 0.0
C1055 C 0.71624 0.471 0.93715 0.0
C1056 C 0.70254 0.45549 0.91086 0.0
H1057 H 0.77676 0.44824 0.15631 0.0
H1058 H 0.75236 0.44111 0.09851 0.0
C1059 C 0.69294 0.45919 0.87651 0.0
C1060 C 0.72536 0.4677 0.97658 0.0
H1061 H 0.76043 0.45677 0.01021 0.0
C1062 C 0.72174 0.47355 0.0168 0.0
C1063 C 0.73906 0.46097 0.97459 0.0
C1064 C 0.74376 0.45473 0.93238 0.0
C1065 C 0.73188 0.4736 0.05434 0.0
C1066 C 0.74641 0.46796 0.05197 0.0
C1067 C 0.74933 0.4611 0.01227 0.0
C1068 C 0.76023 0.4715 0.08883 0.0
C1069 C 0.72722 0.48017 0.09622 0.0
C1070 C 0.77269 0.49083 0.10302 0.0
C1071 C 0.78649 0.49486 0.13567 0.0
C1072 C 0.78832 0.47971 0.15553 0.0
C1073 C 0.77551 0.46021 0.1423 0.0
C1074 C 0.76171 0.45616 0.10893 0.0
H1075 H 0.71207 0.47789 0.0961 0.0
H1076 H 0.72875 0.47213 0.12407 0.0
H1077 H 0.73761 0.49612 0.10076 0.0
H1078 H 0.77215 0.503 0.0879 0.0
H1079 H 0.79616 0.51007 0.1447 0.0
H1080 H 0.24038 0.68254 0.35409 0.0
H1081 H 0.26368 0.69898 0.41426 0.0
H1082 H 0.23616 0.73354 0.44056 0.0
H1083 H 0.21318 0.7174 0.38172 0.0
H1084 H 0.29095 0.74104 0.4372 0.0
H1085 H 0.23037 0.70407 0.55509 0.0
H1086 H 0.22829 0.69575 0.50005 0.0
H1087 H 0.22484 0.71619 0.51287 0.0
C1088 C 0.23961 0.69392 0.37223 0.0
C1089 C 0.22475 0.69848 0.36318 0.0
C1090 C 0.25286 0.70325 0.40681 0.0
C1091 C 0.25143 0.71724 0.43283 0.0
C1092 C 0.23736 0.72253 0.42188 0.0
H1093 H 0.29587 0.79869 0.63672 0.0
H1094 H 0.27866 0.77491 0.57959 0.0
C1095 C 0.22423 0.71328 0.38789 0.0
C1096 C 0.26377 0.72601 0.4725 0.0
H1097 H 0.25941 0.73285 0.58016 0.0
C1098 C 0.28416 0.73891 0.46866 0.0
C1099 C 0.25502 0.72329 0.51382 0.0
C1100 C 0.23346 0.70892 0.52092 0.0
C1101 C 0.29565 0.75001 0.50427 0.0
C1102 C 0.28661 0.74808 0.54499 0.0
C1103 C 0.26644 0.73444 0.54915 0.0
C1104 C 0.29707 0.76171 0.58203 0.0
C1105 C 0.31717 0.76459 0.49758 0.0
C1106 C 0.313 0.76201 0.60387 0.0
C1107 C 0.32286 0.77562 0.6375 0.0
C1108 C 0.31707 0.78929 0.64956 0.0
C1109 C 0.30079 0.78844 0.62839 0.0
C1110 C 0.2909 0.77483 0.59548 0.0
H1111 H 0.32149 0.76599 0.4631 0.0
H1112 H 0.32072 0.77929 0.50987 0.0
H1113 H 0.32613 0.75977 0.51603 0.0
H1114 H 0.31794 0.75189 0.59463 0.0
H1115 H 0.33544 0.77598 0.65276 0.0
H1116 H 0.56032 0.32704 0.16181 0.0
H1117 H 0.56724 0.31055 0.10182 0.0
H1118 H 0.50651 0.28284 0.06286 0.0
H1119 H 0.49963 0.29901 0.12137 0.0
H1120 H 0.55016 0.26937 0.0756 0.0
H1121 H 0.53581 0.31178 0.95312 0.0
H1122 H 0.54014 0.319 0.0091 0.0
H1123 H 0.51616 0.30022 0.99146 0.0
C1124 C 0.54845 0.31726 0.1407 0.0
C1125 C 0.52946 0.31463 0.14636 0.0
C1126 C 0.55242 0.30788 0.10626 0.0
C1127 C 0.53749 0.29576 0.07685 0.0
C1128 C 0.51844 0.29246 0.08407 0.0
H1129 H 0.50141 0.21533 0.87043 0.0
H1130 H 0.50787 0.23924 0.92731 0.0
C1131 C 0.51452 0.30175 0.11795 0.0
C1132 C 0.5413 0.28664 0.03799 0.0
H1133 H 0.53358 0.28163 0.92881 0.0
C1134 C 0.54699 0.27238 0.04338 0.0
C1135 C 0.53724 0.29049 0.99563 0.0
C1136 C 0.53219 0.30635 0.98683 0.0
C1137 C 0.54747 0.26111 0.0082 0.0
C1138 C 0.54227 0.2642 0.96631 0.0
C1139 C 0.53754 0.27912 0.96071 0.0
C1140 C 0.53926 0.25065 0.92915 0.0
C1141 C 0.55243 0.24515 0.0164 0.0
C1142 C 0.55483 0.24934 0.9097 0.0
C1143 C 0.55116 0.23571 0.87614 0.0
C1144 C 0.53182 0.223 0.8618 0.0
C1145 C 0.51649 0.22487 0.88051 0.0
C1146 C 0.52016 0.23855 0.91329 0.0
H1147 H 0.55414 0.24319 0.05129 0.0
H1148 H 0.54076 0.23095 1.003 0.0
H1149 H 0.5664 0.24892 0.99981 0.0
H1150 H 0.56976 0.25865 0.92087 0.0
H1151 H 0.56327 0.23449 0.8629 0.0
H1152 H 0.29549 0.49666 0.39042 0.0
H1153 H 0.27895 0.50315 0.44883 0.0
H1154 H 0.30859 0.56458 0.41431 0.0
H1155 H 0.32531 0.55799 0.35446 0.0
H1156 H 0.29685 0.52662 0.51848 0.0
H1157 H 0.25187 0.55271 0.43287 0.0
H1158 H 0.26254 0.54002 0.40529 0.0
H1159 H 0.27775 0.56526 0.42088 0.0
C1160 C 0.29841 0.51158 0.39463 0.0
C1161 C 0.31186 0.5268 0.36751 0.0
C1162 C 0.28889 0.51528 0.42837 0.0
C1163 C 0.2924 0.53435 0.43651 0.0
C1164 C 0.30534 0.54964 0.40865 0.0
H1165 H 0.23388 0.55901 0.65768 0.0
H1166 H 0.25804 0.56552 0.5996 0.0
C1167 C 0.31492 0.54588 0.37432 0.0
C1168 C 0.28312 0.53778 0.47564 0.0
H1169 H 0.24846 0.54949 0.50835 0.0
C1170 C 0.28648 0.53189 0.51615 0.0
C1171 C 0.2696 0.54475 0.47321 0.0
C1172 C 0.26503 0.55095 0.43079 0.0
C1173 C 0.27627 0.53203 0.55343 0.0
C1174 C 0.26205 0.53805 0.55065 0.0
C1175 C 0.25936 0.54491 0.51071 0.0
C1176 C 0.24823 0.53482 0.58733 0.0
C1177 C 0.28044 0.5252 0.59552 0.0
C1178 C 0.23478 0.51552 0.60018 0.0
C1179 C 0.22108 0.51184 0.6329 0.0
C1180 C 0.22039 0.52731 0.6543 0.0
C1181 C 0.23419 0.54676 0.64242 0.0
C1182 C 0.24787 0.55047 0.60891 0.0
H1183 H 0.29518 0.52647 0.59543 0.0
H1184 H 0.2796 0.5338 0.62302 0.0
H1185 H 0.26928 0.50949 0.60067 0.0
H1186 H 0.23453 0.50316 0.58406 0.0
H1187 H 0.21067 0.49667 0.64094 0.0
H1188 H 0.67764 0.19561 0.08684 0.0
H1189 H 0.69663 0.22002 0.03193 0.0
H1190 H 0.72491 0.26406 0.13052 0.0
H1191 H 0.70572 0.23935 0.18635 0.0
H1192 H 0.70063 0.25644 0.00816 0.0
H1193 H 0.77149 0.26509 0.06619 0.0
H1194 H 0.74801 0.2452 0.08388 0.0
H1195 H 0.75728 0.26949 0.10544 0.0
C1196 C 0.68774 0.21054 0.09709 0.0
C1197 C 0.69016 0.21542 0.14128 0.0
C1198 C 0.69861 0.22454 0.06541 0.0
C1199 C 0.71252 0.24392 0.07671 0.0
C1200 C 0.71451 0.24915 0.12077 0.0
H1201 H 0.80513 0.33748 0.92219 0.0
H1202 H 0.78153 0.31814 0.97823 0.0
C1203 C 0.70338 0.23507 0.15274 0.0
C1204 C 0.72528 0.25805 0.04217 0.0
H1205 H 0.77277 0.28363 1.00563 0.0
C1206 C 0.71644 0.2625 0.00777 0.0
C1207 C 0.74591 0.2659 0.0411 0.0
C1208 C 0.75632 0.26112 0.07584 0.0
C1209 C 0.72759 0.27468 0.97302 0.0
C1210 C 0.74823 0.28234 0.97164 0.0
C1211 C 0.75702 0.27792 1.00623 0.0
C1212 C 0.76119 0.29519 0.93546 0.0
C1213 C 0.71711 0.27955 0.93865 0.0
C1214 C 0.75763 0.28931 0.89177 0.0
C1215 C 0.77111 0.30074 0.8591 0.0
C1216 C 0.78861 0.31813 0.86951 0.0
C1217 C 0.79176 0.32424 0.91289 0.0
C1218 C 0.77828 0.31306 0.94519 0.0
H1219 H 0.70302 0.27784 0.95077 0.0
H1220 H 0.72638 0.29482 0.92667 0.0
H1221 H 0.71364 0.2693 0.91114 0.0
H1222 H 0.74491 0.27542 0.88304 0.0
H1223 H 0.76843 0.29536 0.82625 0.0
H1224 H 0.47125 0.76632 0.33232 0.0
H1225 H 0.46679 0.74156 0.38714 0.0
H1226 H 0.47164 0.78155 0.48784 0.0
H1227 H 0.47625 0.8061 0.43383 0.0
H1228 H 0.49576 0.74888 0.45429 0.0
H1229 H 0.42337 0.72886 0.52575 0.0
H1230 H 0.4308 0.73983 0.47289 0.0
H1231 H 0.44003 0.75485 0.52032 0.0
C1232 C 0.47083 0.76957 0.3661 0.0
C1233 C 0.47401 0.78816 0.37862 0.0
C1234 C 0.46841 0.75548 0.39747 0.0
C1235 C 0.46867 0.75955 0.44186 0.0
C1236 C 0.47104 0.77782 0.45405 0.0
H1237 H 0.47342 0.70665 0.68884 0.0
H1238 H 0.46883 0.72599 0.63189 0.0
C1239 C 0.47375 0.79191 0.42297 0.0
C1240 C 0.46829 0.74569 0.47574 0.0
H1241 H 0.44326 0.71926 0.56512 0.0
C1242 C 0.48414 0.74219 0.47815 0.0
C1243 C 0.45338 0.73728 0.50765 0.0
C1244 C 0.43583 0.74022 0.50652 0.0
C1245 C 0.48573 0.73096 0.51178 0.0
C1246 C 0.4707 0.72229 0.54352 0.0
C1247 C 0.45479 0.72576 0.54104 0.0
C1248 C 0.47123 0.70938 0.5788 0.0
C1249 C 0.50399 0.72918 0.51375 0.0
C1250 C 0.47315 0.693 0.56845 0.0
C1251 C 0.47594 0.68217 0.60075 0.0
C1252 C 0.47637 0.68698 0.64459 0.0
C1253 C 0.47301 0.70246 0.65544 0.0
C1254 C 0.4705 0.71359 0.6228 0.0
H1255 H 0.51648 0.74145 0.49638 0.0
H1256 H 0.50856 0.72906 0.54757 0.0
H1257 H 0.50098 0.71525 0.49805 0.0
H1258 H 0.47308 0.68889 0.53511 0.0
H1259 H 0.47831 0.67023 0.59124 0.0
H1260 H 0.3967 0.47966 0.32196 0.0
H1261 H 0.41626 0.46335 0.32517 0.0
H1262 H 0.4101 0.45419 0.18759 0.0
H1263 H 0.39117 0.47132 0.18417 0.0
H1264 H 0.40677 0.4275 0.30921 0.0
H1265 H 0.46748 0.47447 0.19815 0.0
H1266 H 0.44997 0.4813 0.21684 0.0
H1267 H 0.44394 0.4644 0.17254 0.0
C1268 C 0.39966 0.4743 0.29234 0.0
C1269 C 0.3924 0.47675 0.25279 0.0
C1270 C 0.41086 0.46496 0.29419 0.0
C1271 C 0.41496 0.45767 0.25659 0.0
C1272 C 0.40769 0.46012 0.21696 0.0
H1273 H 0.44661 0.36586 0.26317 0.0
H1274 H 0.4298 0.3848 0.25977 0.0
C1275 C 0.39675 0.4698 0.21501 0.0
C1276 C 0.42598 0.44672 0.25958 0.0
H1277 H 0.46487 0.44387 0.21813 0.0
C1278 C 0.41955 0.43121 0.28942 0.0
C1279 C 0.4429 0.45164 0.23439 0.0
C1280 C 0.45161 0.46899 0.20404 0.0
C1281 C 0.42932 0.42042 0.29444 0.0
C1282 C 0.44563 0.42468 0.26774 0.0
C1283 C 0.45225 0.44037 0.23832 0.0
C1284 C 0.456 0.41308 0.26974 0.0
C1285 C 0.42227 0.40488 0.32919 0.0
C1286 C 0.47651 0.42258 0.27501 0.0
C1287 C 0.48633 0.41178 0.27573 0.0
C1288 C 0.47587 0.39114 0.2713 0.0
C1289 C 0.45529 0.38169 0.26631 0.0
C1290 C 0.44554 0.39253 0.26502 0.0
H1291 H 0.41452 0.40797 0.35536 0.0
H1292 H 0.41168 0.3904 0.31505 0.0
H1293 H 0.43465 0.40384 0.34361 0.0
H1294 H 0.485 0.43843 0.2784 0.0
H1295 H 0.50219 0.41972 0.27868 0.0
H1296 H 0.08468 0.44432 0.7628 0.0
H1297 H 0.04896 0.42723 0.75739 0.0
H1298 H 0.04971 0.48191 0.77816 0.0
H1299 H 0.08558 0.49942 0.78039 0.0
H1300 H 0.02121 0.42119 0.81052 0.0
H1301 H 0.01609 0.46353 0.67339 0.0
H1302 H 0.03915 0.46599 0.6906 0.0
H1303 H 0.02892 0.47897 0.71838 0.0
C1304 C 0.07735 0.45286 0.76555 0.0
C1305 C 0.08826 0.4734 0.77146 0.0
C1306 C 0.05681 0.44297 0.76282 0.0
C1307 C 0.04651 0.45327 0.76629 0.0
C1308 C 0.05724 0.47364 0.774 0.0
H1309 H 0.92037 0.393 0.81907 0.0
H1310 H 0.95625 0.41209 0.82293 0.0
C1311 C 0.07785 0.48362 0.77613 0.0
C1312 C 0.02457 0.44251 0.76257 0.0
H1313 H 0.9861 0.442 0.70952 0.0
C1314 C 0.01358 0.42574 0.78827 0.0
C1315 C 0.01448 0.44811 0.73299 0.0
C1316 C 0.02527 0.465 0.70195 0.0
C1317 C 0.99295 0.4146 0.78561 0.0
C1318 C 0.9828 0.42076 0.75757 0.0
C1319 C 0.99377 0.43737 0.73144 0.0
C1320 C 0.96085 0.41007 0.75472 0.0
C1321 C 0.98237 0.39602 0.81209 0.0
C1322 C 0.95127 0.40341 0.71477 0.0
C1323 C 0.93065 0.39281 0.71239 0.0
C1324 C 0.91922 0.38851 0.74998 0.0
C1325 C 0.92881 0.39569 0.78968 0.0
C1326 C 0.94935 0.40653 0.79195 0.0
H1327 H 0.9922 0.3901 0.82024 0.0
H1328 H 0.97739 0.39933 0.84284 0.0
H1329 H 0.96932 0.38443 0.79482 0.0
H1330 H 0.95976 0.40608 0.68548 0.0
H1331 H 0.92365 0.38753 0.68136 0.0
H1332 H 0.64563 0.08239 0.27537 0.0
H1333 H 0.62679 0.04648 0.27078 0.0
H1334 H 0.57286 0.0483 0.2649 0.0
H1335 H 0.59162 0.08427 0.26977 0.0
H1336 H 0.56963 0.01877 0.31789 0.0
H1337 H 0.60212 0.01573 0.16148 0.0
H1338 H 0.62019 0.02852 0.20251 0.0
H1339 H 0.60521 0.03838 0.18351 0.0
C1340 C 0.62975 0.07516 0.27313 0.0
C1341 C 0.62017 0.08626 0.27273 0.0
C1342 C 0.61899 0.0546 0.2703 0.0
C1343 C 0.59841 0.04465 0.26644 0.0
C1344 C 0.58873 0.05562 0.26756 0.0
H1345 H 0.50864 0.92016 0.23763 0.0
H1346 H 0.52611 0.95619 0.24074 0.0
C1347 C 0.59949 0.07621 0.27063 0.0
C1348 C 0.58703 0.02283 0.26111 0.0
H1349 H 0.58277 0.98522 0.19772 0.0
C1350 C 0.5724 0.01145 0.29144 0.0
C1351 C 0.59057 0.01323 0.22648 0.0
C1352 C 0.60523 0.02459 0.19139 0.0
C1353 C 0.56166 0.99077 0.28879 0.0
C1354 C 0.56544 0.98119 0.25455 0.0
C1355 C 0.57992 0.99256 0.22401 0.0
C1356 C 0.55484 0.95935 0.25042 0.0
C1357 C 0.54673 0.97931 0.32335 0.0
C1358 C 0.56524 0.94914 0.25326 0.0
C1359 C 0.55532 0.92856 0.25115 0.0
C1360 C 0.53477 0.9177 0.24574 0.0
C1361 C 0.52447 0.92803 0.24144 0.0
C1362 C 0.53441 0.94863 0.24377 0.0
H1363 H 0.5487 0.98845 0.3523 0.0
H1364 H 0.53174 0.97407 0.31047 0.0
H1365 H 0.54772 0.96623 0.33327 0.0
H1366 H 0.58102 0.95709 0.25802 0.0
H1367 H 0.56375 0.92112 0.25409 0.0
H1368 H 0.56678 0.64528 0.77064 0.0
H1369 H 0.58363 0.62631 0.76422 0.0
H1370 H 0.52871 0.57262 0.78483 0.0
H1371 H 0.51158 0.59137 0.78943 0.0
H1372 H 0.58807 0.60227 0.81933 0.0
H1373 H 0.5477 0.55982 0.67485 0.0
H1374 H 0.54633 0.58082 0.69387 0.0
H1375 H 0.5318 0.55717 0.71903 0.0
C1376 C 0.55821 0.62942 0.77352 0.0
C1377 C 0.53772 0.6199 0.7802 0.0
C1378 C 0.56791 0.61858 0.77005 0.0
C1379 C 0.55741 0.59796 0.77304 0.0
C1380 C 0.5371 0.58846 0.78129 0.0
H1381 H 0.60754 0.52334 0.82228 0.0
H1382 H 0.5904 0.54206 0.82469 0.0
C1383 C 0.52736 0.59927 0.78464 0.0
C1384 C 0.56778 0.5865 0.76803 0.0
H1385 H 0.56798 0.54948 0.7101 0.0
C1386 C 0.5837 0.59078 0.79533 0.0
C1387 C 0.56237 0.57172 0.73618 0.0
C1388 C 0.54625 0.56721 0.704 0.0
C1389 C 0.59401 0.58044 0.7924 0.0
C1390 C 0.58803 0.56506 0.76188 0.0
C1391 C 0.57243 0.56109 0.73382 0.0
C1392 C 0.59762 0.55279 0.7592 0.0
C1393 C 0.61142 0.58632 0.8217 0.0
C1394 C 0.60669 0.55179 0.72091 0.0
C1395 C 0.61647 0.54092 0.71932 0.0
C1396 C 0.61736 0.53087 0.75605 0.0
C1397 C 0.60758 0.53131 0.79373 0.0
C1398 C 0.59778 0.54205 0.7952 0.0
H1399 H 0.61756 0.60163 0.83361 0.0
H1400 H 0.60666 0.57641 0.85013 0.0
H1401 H 0.62327 0.58511 0.80495 0.0
H1402 H 0.60662 0.55981 0.69255 0.0
H1403 H 0.62384 0.54089 0.68983 0.0
H1404 H 0.08781 0.5992 0.21087 0.0
H1405 H 0.05226 0.58238 0.21155 0.0
H1406 H 0.05401 0.62581 0.29923 0.0
H1407 H 0.08909 0.64453 0.29309 0.0
H1408 H 0.0262 0.56376 0.26327 0.0
H1409 H 0.01517 0.62593 0.22482 0.0
H1410 H 0.03915 0.62832 0.22227 0.0
H1411 H 0.02972 0.63189 0.27263 0.0
C1412 C 0.08091 0.60582 0.22912 0.0
C1413 C 0.09216 0.62366 0.25179 0.0
C1414 C 0.06026 0.5958 0.23008 0.0
C1415 C 0.05007 0.6029 0.25469 0.0
C1416 C 0.06117 0.62025 0.2784 0.0
H1417 H 0.92554 0.52171 0.31999 0.0
H1418 H 0.96118 0.54004 0.3201 0.0
C1419 C 0.0817 0.63076 0.27583 0.0
C1420 C 0.02798 0.59195 0.25668 0.0
H1421 H 0.98809 0.59843 0.25957 0.0
C1422 C 0.01788 0.57136 0.26162 0.0
C1423 C 0.01676 0.60155 0.25381 0.0
C1424 C 0.0258 0.62309 0.24256 0.0
C1425 C 0.99718 0.56026 0.26387 0.0
C1426 C 0.9861 0.57006 0.26449 0.0
C1427 C 0.99627 0.59066 0.25969 0.0
C1428 C 0.96401 0.55946 0.26744 0.0
C1429 C 0.98761 0.53812 0.26367 0.0
C1430 C 0.95326 0.56508 0.24061 0.0
C1431 C 0.93276 0.55559 0.24277 0.0
C1432 C 0.92196 0.53932 0.27035 0.0
C1433 C 0.93282 0.53399 0.29804 0.0
C1434 C 0.95349 0.54422 0.29733 0.0
H1435 H 0.99721 0.53327 0.24799 0.0
H1436 H 0.98515 0.53266 0.29738 0.0
H1437 H 0.97332 0.53114 0.24642 0.0
H1438 H 0.96071 0.57687 0.21744 0.0
H1439 H 0.92562 0.56124 0.22225 0.0
H1440 H 0.42125 0.92306 0.79839 0.0
H1441 H 0.43979 0.95906 0.79941 0.0
H1442 H 0.3891 0.96044 0.75051 0.0
H1443 H 0.37019 0.92463 0.75167 0.0
H1444 H 0.45008 0.98463 0.73443 0.0
H1445 H 0.40413 0.9987 0.8477 0.0
H1446 H 0.40119 0.97456 0.84066 0.0
H1447 H 0.39003 0.98366 0.80328 0.0
C1448 C 0.41386 0.93099 0.78887 0.0
C1449 C 0.39414 0.92078 0.77503 0.0
C1450 C 0.42458 0.95163 0.78903 0.0
C1451 C 0.41583 0.96259 0.77553 0.0
C1452 C 0.39613 0.95244 0.76198 0.0
H1453 H 0.47817 0.08505 0.68733 0.0
H1454 H 0.46108 0.04902 0.6923 0.0
C1455 C 0.38538 0.93185 0.7621 0.0
C1456 C 0.42748 0.98455 0.77392 0.0
H1457 H 0.42709 0.02609 0.80546 0.0
C1458 C 0.44512 0.99369 0.75025 0.0
C1459 C 0.42123 0.9965 0.79498 0.0
C1460 C 0.40322 0.98786 0.82345 0.0
C1461 C 0.45641 0.01431 0.74637 0.0
C1462 C 0.44966 0.0262 0.76573 0.0
C1463 C 0.43222 0.01706 0.79008 0.0
C1464 C 0.46057 0.04814 0.76212 0.0
C1465 C 0.47567 0.02311 0.72229 0.0
C1466 C 0.46565 0.05977 0.79952 0.0
C1467 C 0.47508 0.08029 0.79667 0.0
C1468 C 0.47974 0.08976 0.75632 0.0
C1469 C 0.47492 0.07819 0.71885 0.0
C1470 C 0.46524 0.05758 0.72171 0.0
H1471 H 0.48152 0.01282 0.72118 0.0
H1472 H 0.47334 0.02621 0.68858 0.0
H1473 H 0.48691 0.03709 0.73732 0.0
H1474 H 0.46228 0.05294 0.83108 0.0
H1475 H 0.47885 0.08879 0.82618 0.0
loop_
_geom_bond_atom_site_label_1
_geom_bond_atom_site_label_2
_geom_bond_distance
_geom_bond_site_symmetry_2
_ccdc_geom_bond_type
C0 C1 1.351 . S
C0 N3 1.368 . S
C0 H5 0.931 . S
C1 C0 1.351 . S
C1 N2 1.373 . S
C1 H29 0.930 . S
N2 C1 1.373 . S
N2 C4 1.340 . S
N3 C0 1.368 . S
N3 C4 1.321 . S
N3 Co6 2.135 . S
C4 N2 1.340 . S
C4 N3 1.321 . S
C4 H28 0.930 . S
H5 C0 0.931 . S
Co6 N3 2.135 . S
Co6 N9 2.121 . S
Co6 O14 2.055 . S
Co6 O17 2.039 . S
Co6 N20 2.140 . S
C7 O8 1.227 . S
C7 O17 1.265 . S
O8 C7 1.227 . S
N9 Co6 2.121 . S
N9 C11 1.375 . S
N9 C12 1.313 . S
C10 C11 1.338 . S
C10 N13 1.377 . S
C10 H30 0.930 . S
C11 N9 1.375 . S
C11 C10 1.338 . S
C11 H15 0.931 . S
C12 N9 1.313 . S
C12 N13 1.344 . S
C12 H16 0.930 . S
N13 C10 1.377 . S
N13 C12 1.344 . S
O14 Co6 2.055 . S
O14 C18 1.253 . S
H15 C11 0.931 . S
H16 C12 0.930 . S
O17 Co6 2.039 . S
O17 C7 1.265 . S
C18 O14 1.253 . S
C18 O19 1.227 . S
O19 C18 1.227 . S
N20 Co6 2.140 . S
N20 C23 1.346 . S
N20 C24 1.345 . S
C21 C22 1.387 . S
C21 C25 1.391 . S
C22 C21 1.387 . S
C22 C23 1.369 . S
C22 H31 0.929 . S
C23 N20 1.346 . S
C23 C22 1.369 . S
C23 H26 0.928 . S
C24 N20 1.345 . S
C24 C25 1.371 . S
C24 H27 0.931 . S
C25 C21 1.391 . S
C25 C24 1.371 . S
C25 H32 0.930 . S
H26 C23 0.928 . S
H27 C24 0.931 . S
H28 C4 0.930 . S
H29 C1 0.930 . S
H30 C10 0.930 . S
H31 C22 0.929 . S
H32 C25 0.930 . S
C33 C34 1.351 . S
C33 N36 1.368 . S
C33 H38 0.931 . S
C34 C33 1.351 . S
C34 N35 1.373 . S
C34 H62 0.930 . S
N35 C34 1.373 . S
N35 C37 1.340 . S
N36 C33 1.368 . S
N36 C37 1.321 . S
N36 Co39 2.135 . S
C37 N35 1.340 . S
C37 N36 1.321 . S
C37 H61 0.930 . S
H38 C33 0.931 . S
Co39 N36 2.135 . S
Co39 N42 2.121 . S
Co39 O47 2.055 . S
Co39 O50 2.039 . S
Co39 N53 2.140 . S
C40 O41 1.227 . S
C40 O50 1.265 . S
O41 C40 1.227 . S
N42 Co39 2.121 . S
N42 C44 1.375 . S
N42 C45 1.313 . S
C43 C44 1.338 . S
C43 N46 1.377 . S
C43 H63 0.930 . S
C44 N42 1.375 . S
C44 C43 1.338 . S
C44 H48 0.931 . S
C45 N42 1.313 . S
C45 N46 1.344 . S
C45 H49 0.930 . S
N46 C43 1.377 . S
N46 C45 1.344 . S
O47 Co39 2.055 . S
O47 C51 1.253 . S
H48 C44 0.931 . S
H49 C45 0.930 . S
O50 Co39 2.039 . S
O50 C40 1.265 . S
C51 O47 1.253 . S
C51 O52 1.227 . S
O52 C51 1.227 . S
N53 Co39 2.140 . S
N53 C56 1.346 . S
N53 C57 1.345 . S
C54 C55 1.387 . S
C54 C58 1.391 . S
C55 C54 1.387 . S
C55 C56 1.369 . S
C55 H64 0.929 . S
C56 N53 1.346 . S
C56 C55 1.369 . S
C56 H59 0.928 . S
C57 N53 1.345 . S
C57 C58 1.371 . S
C57 H60 0.931 . S
C58 C54 1.391 . S
C58 C57 1.371 . S
C58 H65 0.930 . S
H59 C56 0.928 . S
H60 C57 0.931 . S
H61 C37 0.930 . S
H62 C34 0.930 . S
H63 C43 0.930 . S
H64 C55 0.929 . S
H65 C58 0.930 . S
C66 C67 1.351 . S
C66 N69 1.368 . S
C66 H71 0.931 . S
C67 C66 1.351 . S
C67 N68 1.373 . S
C67 H95 0.930 . S
N68 C67 1.373 . S
N68 C70 1.340 . S
N69 C66 1.368 . S
N69 C70 1.321 . S
N69 Co72 2.135 . S
C70 N68 1.340 . S
C70 N69 1.321 . S
C70 H94 0.930 . S
H71 C66 0.931 . S
Co72 N69 2.135 . S
Co72 N75 2.121 . S
Co72 O80 2.055 . S
Co72 O83 2.039 . S
Co72 N86 2.140 . S
C73 O74 1.227 . S
C73 O83 1.265 . S
O74 C73 1.227 . S
N75 Co72 2.121 . S
N75 C77 1.375 . S
N75 C78 1.313 . S
C76 C77 1.338 . S
C76 N79 1.377 . S
C76 H96 0.930 . S
C77 N75 1.375 . S
C77 C76 1.338 . S
C77 H81 0.931 . S
C78 N75 1.313 . S
C78 N79 1.344 . S
C78 H82 0.930 . S
N79 C76 1.377 . S
N79 C78 1.344 . S
O80 Co72 2.055 . S
O80 C84 1.253 . S
H81 C77 0.931 . S
H82 C78 0.930 . S
O83 Co72 2.039 . S
O83 C73 1.265 . S
C84 O80 1.253 . S
C84 O85 1.227 . S
O85 C84 1.227 . S
N86 Co72 2.140 . S
N86 C89 1.346 . S
N86 C90 1.345 . S
C87 C88 1.387 . S
C87 C91 1.391 . S
C88 C87 1.387 . S
C88 C89 1.369 . S
C88 H97 0.929 . S
C89 N86 1.346 . S
C89 C88 1.369 . S
C89 H92 0.928 . S
C90 N86 1.345 . S
C90 C91 1.371 . S
C90 H93 0.931 . S
C91 C87 1.391 . S
C91 C90 1.371 . S
C91 H98 0.930 . S
H92 C89 0.928 . S
H93 C90 0.931 . S
H94 C70 0.930 . S
H95 C67 0.930 . S
H96 C76 0.930 . S
H97 C88 0.929 . S
H98 C91 0.930 . S
C99 C100 1.351 . S
C99 N102 1.368 . S
C99 H104 0.931 . S
C100 C99 1.351 . S
C100 N101 1.373 . S
C100 H128 0.930 . S
N101 C100 1.373 . S
N101 C103 1.340 . S
N102 C99 1.368 . S
N102 C103 1.321 . S
N102 Co105 2.135 . S
C103 N101 1.340 . S
C103 N102 1.321 . S
C103 H127 0.930 . S
H104 C99 0.931 . S
Co105 N102 2.135 . S
Co105 N108 2.121 . S
Co105 O113 2.055 . S
Co105 O116 2.039 . S
Co105 N119 2.140 . S
C106 O107 1.227 . S
C106 O116 1.265 . S
O107 C106 1.227 . S
N108 Co105 2.121 . S
N108 C110 1.375 . S
N108 C111 1.313 . S
C109 C110 1.338 . S
C109 N112 1.377 . S
C109 H129 0.930 . S
C110 N108 1.375 . S
C110 C109 1.338 . S
C110 H114 0.931 . S
C111 N108 1.313 . S
C111 N112 1.344 . S
C111 H115 0.930 . S
N112 C109 1.377 . S
N112 C111 1.344 . S
O113 Co105 2.055 . S
O113 C117 1.253 . S
H114 C110 0.931 . S
H115 C111 0.930 . S
O116 Co105 2.039 . S
O116 C106 1.265 . S
C117 O113 1.253 . S
C117 O118 1.227 . S
O118 C117 1.227 . S
N119 Co105 2.140 . S
N119 C122 1.346 . S
N119 C123 1.345 . S
C120 C121 1.387 . S
C120 C124 1.391 . S
C121 C120 1.387 . S
C121 C122 1.369 . S
C121 H130 0.929 . S
C122 N119 1.346 . S
C122 C121 1.369 . S
C122 H125 0.928 . S
C123 N119 1.345 . S
C123 C124 1.371 . S
C123 H126 0.931 . S
C124 C120 1.391 . S
C124 C123 1.371 . S
C124 H131 0.930 . S
H125 C122 0.928 . S
H126 C123 0.931 . S
H127 C103 0.930 . S
H128 C100 0.930 . S
H129 C109 0.930 . S
H130 C121 0.929 . S
H131 C124 0.930 . S
C132 C133 1.351 . S
C132 N135 1.368 . S
C132 H137 0.931 . S
C133 C132 1.351 . S
C133 N134 1.373 . S
C133 H161 0.930 . S
N134 C133 1.373 . S
N134 C136 1.340 . S
N135 C132 1.368 . S
N135 C136 1.321 . S
N135 Co138 2.135 . S
C136 N134 1.340 . S
C136 N135 1.321 . S
C136 H160 0.930 . S
H137 C132 0.931 . S
Co138 N135 2.135 . S
Co138 N141 2.121 . S
Co138 O146 2.055 . S
Co138 O149 2.039 . S
Co138 N152 2.140 . S
C139 O140 1.227 . S
C139 O149 1.265 . S
O140 C139 1.227 . S
N141 Co138 2.121 . S
N141 C143 1.375 . S
N141 C144 1.313 . S
C142 C143 1.338 . S
C142 N145 1.377 . S
C142 H162 0.930 . S
C143 N141 1.375 . S
C143 C142 1.338 . S
C143 H147 0.931 . S
C144 N141 1.313 . S
C144 N145 1.344 . S
C144 H148 0.930 . S
N145 C142 1.377 . S
N145 C144 1.344 . S
O146 Co138 2.055 . S
O146 C150 1.253 . S
H147 C143 0.931 . S
H148 C144 0.930 . S
O149 Co138 2.039 . S
O149 C139 1.265 . S
C150 O146 1.253 . S
C150 O151 1.227 . S
O151 C150 1.227 . S
N152 Co138 2.140 . S
N152 C155 1.346 . S
N152 C156 1.345 . S
C153 C154 1.387 . S
C153 C157 1.391 . S
C154 C153 1.387 . S
C154 C155 1.369 . S
C154 H163 0.929 . S
C155 N152 1.346 . S
C155 C154 1.369 . S
C155 H158 0.928 . S
C156 N152 1.345 . S
C156 C157 1.371 . S
C156 H159 0.931 . S
C157 C153 1.391 . S
C157 C156 1.371 . S
C157 H164 0.930 . S
H158 C155 0.928 . S
H159 C156 0.931 . S
H160 C136 0.930 . S
H161 C133 0.930 . S
H162 C142 0.930 . S
H163 C154 0.929 . S
H164 C157 0.930 . S
C165 C166 1.351 . S
C165 N168 1.368 . S
C165 H170 0.931 . S
C166 C165 1.351 . S
C166 N167 1.373 . S
C166 H194 0.930 . S
N167 C166 1.373 . S
N167 C169 1.340 . S
N168 C165 1.368 . S
N168 C169 1.321 . S
N168 Co171 2.135 . S
C169 N167 1.340 . S
C169 N168 1.321 . S
C169 H193 0.930 . S
H170 C165 0.931 . S
Co171 N168 2.135 . S
Co171 N174 2.121 . S
Co171 O179 2.055 . S
Co171 O182 2.039 . S
Co171 N185 2.140 . S
C172 O173 1.227 . S
C172 O182 1.265 . S
O173 C172 1.227 . S
N174 Co171 2.121 . S
N174 C176 1.375 . S
N174 C177 1.313 . S
C175 C176 1.338 . S
C175 N178 1.377 . S
C175 H195 0.930 . S
C176 N174 1.375 . S
C176 C175 1.338 . S
C176 H180 0.931 . S
C177 N174 1.313 . S
C177 N178 1.344 . S
C177 H181 0.930 . S
N178 C175 1.377 . S
N178 C177 1.344 . S
O179 Co171 2.055 . S
O179 C183 1.253 . S
H180 C176 0.931 . S
H181 C177 0.930 . S
O182 Co171 2.039 . S
O182 C172 1.265 . S
C183 O179 1.253 . S
C183 O184 1.227 . S
O184 C183 1.227 . S
N185 Co171 2.140 . S
N185 C188 1.346 . S
N185 C189 1.345 . S
C186 C187 1.387 . S
C186 C190 1.391 . S
C187 C186 1.387 . S
C187 C188 1.369 . S
C187 H196 0.929 . S
C188 N185 1.346 . S
C188 C187 1.369 . S
C188 H191 0.928 . S
C189 N185 1.345 . S
C189 C190 1.371 . S
C189 H192 0.931 . S
C190 C186 1.391 . S
C190 C189 1.371 . S
C190 H197 0.930 . S
H191 C188 0.928 . S
H192 C189 0.931 . S
H193 C169 0.930 . S
H194 C166 0.930 . S
H195 C175 0.930 . S
H196 C187 0.929 . S
H197 C190 0.930 . S
C198 C199 1.351 . S
C198 N201 1.368 . S
C198 H203 0.931 . S
C199 C198 1.351 . S
C199 N200 1.373 . S
C199 H227 0.930 . S
N200 C199 1.373 . S
N200 C202 1.340 . S
N201 C198 1.368 . S
N201 C202 1.321 . S
N201 Co204 2.135 . S
C202 N200 1.340 . S
C202 N201 1.321 . S
C202 H226 0.930 . S
H203 C198 0.931 . S
Co204 N201 2.135 . S
Co204 N207 2.121 . S
Co204 O212 2.055 . S
Co204 O215 2.039 . S
Co204 N218 2.140 . S
C205 O206 1.227 . S
C205 O215 1.265 . S
O206 C205 1.227 . S
N207 Co204 2.121 . S
N207 C209 1.375 . S
N207 C210 1.313 . S
C208 C209 1.338 . S
C208 N211 1.377 . S
C208 H228 0.930 . S
C209 N207 1.375 . S
C209 C208 1.338 . S
C209 H213 0.931 . S
C210 N207 1.313 . S
C210 N211 1.344 . S
C210 H214 0.930 . S
N211 C208 1.377 . S
N211 C210 1.344 . S
O212 Co204 2.055 . S
O212 C216 1.253 . S
H213 C209 0.931 . S
H214 C210 0.930 . S
O215 Co204 2.039 . S
O215 C205 1.265 . S
C216 O212 1.253 . S
C216 O217 1.227 . S
O217 C216 1.227 . S
N218 Co204 2.140 . S
N218 C221 1.346 . S
N218 C222 1.345 . S
C219 C220 1.387 . S
C219 C223 1.391 . S
C220 C219 1.387 . S
C220 C221 1.369 . S
C220 H229 0.929 . S
C221 N218 1.346 . S
C221 C220 1.369 . S
C221 H224 0.928 . S
C222 N218 1.345 . S
C222 C223 1.371 . S
C222 H225 0.931 . S
C223 C219 1.391 . S
C223 C222 1.371 . S
C223 H230 0.930 . S
H224 C221 0.928 . S
H225 C222 0.931 . S
H226 C202 0.930 . S
H227 C199 0.930 . S
H228 C208 0.930 . S
H229 C220 0.929 . S
H230 C223 0.930 . S
C231 C232 1.351 . S
C231 N234 1.368 . S
C231 H236 0.931 . S
C232 C231 1.351 . S
C232 N233 1.373 . S
C232 H260 0.930 . S
N233 C232 1.373 . S
N233 C235 1.340 . S
N234 C231 1.368 . S
N234 C235 1.321 . S
N234 Co237 2.135 . S
C235 N233 1.340 . S
C235 N234 1.321 . S
C235 H259 0.930 . S
H236 C231 0.931 . S
Co237 N234 2.135 . S
Co237 N240 2.121 . S
Co237 O245 2.055 . S
Co237 O248 2.039 . S
Co237 N251 2.140 . S
C238 O239 1.227 . S
C238 O248 1.265 . S
O239 C238 1.227 . S
N240 Co237 2.121 . S
N240 C242 1.375 . S
N240 C243 1.313 . S
C241 C242 1.338 . S
C241 N244 1.377 . S
C241 H261 0.930 . S
C242 N240 1.375 . S
C242 C241 1.338 . S
C242 H246 0.931 . S
C243 N240 1.313 . S
C243 N244 1.344 . S
C243 H247 0.930 . S
N244 C241 1.377 . S
N244 C243 1.344 . S
O245 Co237 2.055 . S
O245 C249 1.253 . S
H246 C242 0.931 . S
H247 C243 0.930 . S
O248 Co237 2.039 . S
O248 C238 1.265 . S
C249 O245 1.253 . S
C249 O250 1.227 . S
O250 C249 1.227 . S
N251 Co237 2.140 . S
N251 C254 1.346 . S
N251 C255 1.345 . S
C252 C253 1.387 . S
C252 C256 1.391 . S
C253 C252 1.387 . S
C253 C254 1.369 . S
C253 H262 0.929 . S
C254 N251 1.346 . S
C254 C253 1.369 . S
C254 H257 0.928 . S
C255 N251 1.345 . S
C255 C256 1.371 . S
C255 H258 0.931 . S
C256 C252 1.391 . S
C256 C255 1.371 . S
C256 H263 0.930 . S
H257 C254 0.928 . S
H258 C255 0.931 . S
H259 C235 0.930 . S
H260 C232 0.930 . S
H261 C241 0.930 . S
H262 C253 0.929 . S
H263 C256 0.930 . S
C264 C265 1.351 . S
C264 N267 1.368 . S
C264 H269 0.931 . S
C265 C264 1.351 . S
C265 N266 1.373 . S
C265 H293 0.930 . S
N266 C265 1.373 . S
N266 C268 1.340 . S
N267 C264 1.368 . S
N267 C268 1.321 . S
N267 Co270 2.135 . S
C268 N266 1.340 . S
C268 N267 1.321 . S
C268 H292 0.930 . S
H269 C264 0.931 . S
Co270 N267 2.135 . S
Co270 N273 2.121 . S
Co270 O278 2.055 . S
Co270 O281 2.039 . S
Co270 N284 2.140 . S
C271 O272 1.227 . S
C271 O281 1.265 . S
O272 C271 1.227 . S
N273 Co270 2.121 . S
N273 C275 1.375 . S
N273 C276 1.313 . S
C274 C275 1.338 . S
C274 N277 1.377 . S
C274 H294 0.930 . S
C275 N273 1.375 . S
C275 C274 1.338 . S
C275 H279 0.931 . S
C276 N273 1.313 . S
C276 N277 1.344 . S
C276 H280 0.930 . S
N277 C274 1.377 . S
N277 C276 1.344 . S
O278 Co270 2.055 . S
O278 C282 1.253 . S
H279 C275 0.931 . S
H280 C276 0.930 . S
O281 Co270 2.039 . S
O281 C271 1.265 . S
C282 O278 1.253 . S
C282 O283 1.227 . S
O283 C282 1.227 . S
N284 Co270 2.140 . S
N284 C287 1.346 . S
N284 C288 1.345 . S
C285 C286 1.387 . S
C285 C289 1.391 . S
C286 C285 1.387 . S
C286 C287 1.369 . S
C286 H295 0.929 . S
C287 N284 1.346 . S
C287 C286 1.369 . S
C287 H290 0.928 . S
C288 N284 1.345 . S
C288 C289 1.371 . S
C288 H291 0.931 . S
C289 C285 1.391 . S
C289 C288 1.371 . S
C289 H296 0.930 . S
H290 C287 0.928 . S
H291 C288 0.931 . S
H292 C268 0.930 . S
H293 C265 0.930 . S
H294 C274 0.930 . S
H295 C286 0.929 . S
H296 C289 0.930 . S
C297 C298 1.351 . S
C297 N300 1.368 . S
C297 H302 0.931 . S
C298 C297 1.351 . S
C298 N299 1.373 . S
C298 H326 0.930 . S
N299 C298 1.373 . S
N299 C301 1.340 . S
N300 C297 1.368 . S
N300 C301 1.321 . S
N300 Co303 2.135 . S
C301 N299 1.340 . S
C301 N300 1.321 . S
C301 H325 0.930 . S
H302 C297 0.931 . S
Co303 N300 2.135 . S
Co303 N306 2.121 . S
Co303 O311 2.055 . S
Co303 O314 2.039 . S
Co303 N317 2.140 . S
C304 O305 1.227 . S
C304 O314 1.265 . S
O305 C304 1.227 . S
N306 Co303 2.121 . S
N306 C308 1.375 . S
N306 C309 1.313 . S
C307 C308 1.338 . S
C307 N310 1.377 . S
C307 H327 0.930 . S
C308 N306 1.375 . S
C308 C307 1.338 . S
C308 H312 0.931 . S
C309 N306 1.313 . S
C309 N310 1.344 . S
C309 H313 0.930 . S
N310 C307 1.377 . S
N310 C309 1.344 . S
O311 Co303 2.055 . S
O311 C315 1.253 . S
H312 C308 0.931 . S
H313 C309 0.930 . S
O314 Co303 2.039 . S
O314 C304 1.265 . S
C315 O311 1.253 . S
C315 O316 1.227 . S
O316 C315 1.227 . S
N317 Co303 2.140 . S
N317 C320 1.346 . S
N317 C321 1.345 . S
C318 C319 1.387 . S
C318 C322 1.391 . S
C319 C318 1.387 . S
C319 C320 1.369 . S
C319 H328 0.929 . S
C320 N317 1.346 . S
C320 C319 1.369 . S
C320 H323 0.928 . S
C321 N317 1.345 . S
C321 C322 1.371 . S
C321 H324 0.931 . S
C322 C318 1.391 . S
C322 C321 1.371 . S
C322 H329 0.930 . S
H323 C320 0.928 . S
H324 C321 0.931 . S
H325 C301 0.930 . S
H326 C298 0.930 . S
H327 C307 0.930 . S
H328 C319 0.929 . S
H329 C322 0.930 . S
C330 C331 1.351 . S
C330 N333 1.368 . S
C330 H335 0.931 . S
C331 C330 1.351 . S
C331 N332 1.373 . S
C331 H359 0.930 . S
N332 C331 1.373 . S
N332 C334 1.340 . S
N333 C330 1.368 . S
N333 C334 1.321 . S
N333 Co336 2.135 . S
C334 N332 1.340 . S
C334 N333 1.321 . S
C334 H358 0.930 . S
H335 C330 0.931 . S
Co336 N333 2.135 . S
Co336 N339 2.121 . S
Co336 O344 2.055 . S
Co336 O347 2.039 . S
Co336 N350 2.140 . S
C337 O338 1.227 . S
C337 O347 1.265 . S
O338 C337 1.227 . S
N339 Co336 2.121 . S
N339 C341 1.375 . S
N339 C342 1.313 . S
C340 C341 1.338 . S
C340 N343 1.377 . S
C340 H360 0.930 . S
C341 N339 1.375 . S
C341 C340 1.338 . S
C341 H345 0.931 . S
C342 N339 1.313 . S
C342 N343 1.344 . S
C342 H346 0.930 . S
N343 C340 1.377 . S
N343 C342 1.344 . S
O344 Co336 2.055 . S
O344 C348 1.253 . S
H345 C341 0.931 . S
H346 C342 0.930 . S
O347 Co336 2.039 . S
O347 C337 1.265 . S
C348 O344 1.253 . S
C348 O349 1.227 . S
O349 C348 1.227 . S
N350 Co336 2.140 . S
N350 C353 1.346 . S
N350 C354 1.345 . S
C351 C352 1.387 . S
C351 C355 1.391 . S
C352 C351 1.387 . S
C352 C353 1.369 . S
C352 H361 0.929 . S
C353 N350 1.346 . S
C353 C352 1.369 . S
C353 H356 0.928 . S
C354 N350 1.345 . S
C354 C355 1.371 . S
C354 H357 0.931 . S
C355 C351 1.391 . S
C355 C354 1.371 . S
C355 H362 0.930 . S
H356 C353 0.928 . S
H357 C354 0.931 . S
H358 C334 0.930 . S
H359 C331 0.930 . S
H360 C340 0.930 . S
H361 C352 0.929 . S
H362 C355 0.930 . S
C363 C364 1.351 . S
C363 N366 1.368 . S
C363 H368 0.931 . S
C364 C363 1.351 . S
C364 N365 1.373 . S
C364 H392 0.930 . S
N365 C364 1.373 . S
N365 C367 1.340 . S
N366 C363 1.368 . S
N366 C367 1.321 . S
N366 Co369 2.135 . S
C367 N365 1.340 . S
C367 N366 1.321 . S
C367 H391 0.930 . S
H368 C363 0.931 . S
Co369 N366 2.135 . S
Co369 N372 2.121 . S
Co369 O377 2.055 . S
Co369 O380 2.039 . S
Co369 N383 2.140 . S
C370 O371 1.227 . S
C370 O380 1.265 . S
O371 C370 1.227 . S
N372 Co369 2.121 . S
N372 C374 1.375 . S
N372 C375 1.313 . S
C373 C374 1.338 . S
C373 N376 1.377 . S
C373 H393 0.930 . S
C374 N372 1.375 . S
C374 C373 1.338 . S
C374 H378 0.931 . S
C375 N372 1.313 . S
C375 N376 1.344 . S
C375 H379 0.930 . S
N376 C373 1.377 . S
N376 C375 1.344 . S
O377 Co369 2.055 . S
O377 C381 1.253 . S
H378 C374 0.931 . S
H379 C375 0.930 . S
O380 Co369 2.039 . S
O380 C370 1.265 . S
C381 O377 1.253 . S
C381 O382 1.227 . S
O382 C381 1.227 . S
N383 Co369 2.140 . S
N383 C386 1.346 . S
N383 C387 1.345 . S
C384 C385 1.387 . S
C384 C388 1.391 . S
C385 C384 1.387 . S
C385 C386 1.369 . S
C385 H394 0.929 . S
C386 N383 1.346 . S
C386 C385 1.369 . S
C386 H389 0.928 . S
C387 N383 1.345 . S
C387 C388 1.371 . S
C387 H390 0.931 . S
C388 C384 1.391 . S
C388 C387 1.371 . S
C388 H395 0.930 . S
H389 C386 0.928 . S
H390 C387 0.931 . S
H391 C367 0.930 . S
H392 C364 0.930 . S
H393 C373 0.930 . S
H394 C385 0.929 . S
H395 C388 0.930 . S
H396 C404 0.929 . S
H397 C406 0.930 . S
H398 C408 0.930 . S
H399 C411 0.929 . S
H400 C414 0.930 . S
H401 C416 0.960 . S
H402 C416 0.960 . S
H403 C416 0.960 . S
C404 H396 0.929 . S
C404 C405 1.377 . S
C404 C406 1.384 . S
C405 C404 1.377 . S
C405 C411 1.390 . S
C406 H397 0.930 . S
C406 C404 1.384 . S
C406 C407 1.372 . S
C407 C406 1.372 . S
C407 C408 1.400 . S
C407 C412 1.490 . S
C408 H398 0.930 . S
C408 C407 1.400 . S
C408 C411 1.386 . S
H409 C425 0.930 . S
H410 C426 0.931 . S
C411 H399 0.929 . S
C411 C405 1.390 . S
C411 C408 1.386 . S
C412 C407 1.490 . S
C412 C414 1.395 1_554 S
C412 C415 1.403 . S
H413 C419 0.930 . S
C414 H400 0.930 . S
C414 C412 1.395 1_556 S
C414 C417 1.403 . S
C415 C412 1.403 . S
C415 C416 1.524 . S
C415 C419 1.400 1_554 S
C416 H401 0.960 . S
C416 H402 0.960 . S
C416 H403 0.960 . S
C416 C415 1.524 . S
C417 C414 1.403 . S
C417 C418 1.392 . S
C417 C421 1.495 . S
C418 C417 1.392 . S
C418 C419 1.385 . S
C418 C420 1.478 . S
C419 H413 0.930 . S
C419 C415 1.400 1_556 S
C419 C418 1.385 . S
C420 C418 1.478 . S
C420 C422 1.381 . S
C420 C426 1.383 . S
C421 C417 1.495 . S
C421 H427 0.959 . S
C421 H428 0.961 . S
C421 H429 0.960 . S
C422 C420 1.381 . S
C422 C423 1.394 . S
C422 H430 0.930 . S
C423 C422 1.394 . S
C423 C424 1.383 . S
C423 H431 0.929 . S
C424 C423 1.383 . S
C424 C425 1.377 . S
C425 H409 0.930 . S
C425 C424 1.377 . S
C425 C426 1.379 . S
C426 H410 0.931 . S
C426 C420 1.383 . S
C426 C425 1.379 . S
H427 C421 0.959 . S
H428 C421 0.961 . S
H429 C421 0.960 . S
H430 C422 0.930 . S
H431 C423 0.929 . S
H432 C440 0.929 . S
H433 C442 0.930 . S
H434 C444 0.930 . S
H435 C447 0.929 . S
H436 C450 0.930 . S
H437 C452 0.960 . S
H438 C452 0.960 . S
H439 C452 0.960 . S
C440 H432 0.929 . S
C440 C441 1.377 . S
C440 C442 1.384 . S
C441 C440 1.377 . S
C441 C447 1.390 . S
C442 H433 0.930 . S
C442 C440 1.384 . S
C442 C443 1.372 . S
C443 C442 1.372 . S
C443 C444 1.400 . S
C443 C448 1.490 . S
C444 H434 0.930 . S
C444 C443 1.400 . S
C444 C447 1.386 . S
H445 C461 0.930 . S
H446 C462 0.931 . S
C447 H435 0.929 . S
C447 C441 1.390 . S
C447 C444 1.386 . S
C448 C443 1.490 . S
C448 C450 1.395 . S
C448 C451 1.403 . S
H449 C455 0.930 . S
C450 H436 0.930 . S
C450 C448 1.395 . S
C450 C453 1.403 . S
C451 C448 1.403 . S
C451 C452 1.524 . S
C451 C455 1.400 . S
C452 H437 0.960 . S
C452 H438 0.960 . S
C452 H439 0.960 . S
C452 C451 1.524 . S
C453 C450 1.403 . S
C453 C454 1.392 . S
C453 C457 1.495 . S
C454 C453 1.392 . S
C454 C455 1.385 . S
C454 C456 1.478 . S
C455 H449 0.930 . S
C455 C451 1.400 . S
C455 C454 1.385 . S
C456 C454 1.478 . S
C456 C458 1.381 . S
C456 C462 1.383 . S
C457 C453 1.495 . S
C457 H463 0.959 . S
C457 H464 0.961 . S
C457 H465 0.960 . S
C458 C456 1.381 . S
C458 C459 1.394 . S
C458 H466 0.930 . S
C459 C458 1.394 . S
C459 C460 1.383 . S
C459 H467 0.929 . S
C460 C459 1.383 . S
C460 C461 1.377 . S
C461 H445 0.930 . S
C461 C460 1.377 . S
C461 C462 1.379 . S
C462 H446 0.931 . S
C462 C456 1.383 . S
C462 C461 1.379 . S
H463 C457 0.959 . S
H464 C457 0.961 . S
H465 C457 0.960 . S
H466 C458 0.930 . S
H467 C459 0.929 . S
H468 C476 0.929 . S
H469 C478 0.930 . S
H470 C480 0.930 . S
H471 C483 0.929 . S
H472 C486 0.930 . S
H473 C488 0.960 . S
H474 C488 0.960 . S
H475 C488 0.960 . S
C476 H468 0.929 . S
C476 C477 1.377 . S
C476 C478 1.384 . S
C477 C476 1.377 . S
C477 C483 1.390 . S
C478 H469 0.930 . S
C478 C476 1.384 . S
C478 C479 1.372 . S
C479 C478 1.372 . S
C479 C480 1.400 . S
C479 C484 1.490 . S
C480 H470 0.930 . S
C480 C479 1.400 . S
C480 C483 1.386 . S
H481 C497 0.930 . S
H482 C498 0.931 . S
C483 H471 0.929 . S
C483 C477 1.390 . S
C483 C480 1.386 . S
C484 C479 1.490 . S
C484 C486 1.395 . S
C484 C487 1.403 . S
H485 C491 0.930 . S
C486 H472 0.930 . S
C486 C484 1.395 . S
C486 C489 1.403 1_554 S
C487 C484 1.403 . S
C487 C488 1.524 . S
C487 C491 1.400 1_554 S
C488 H473 0.960 . S
C488 H474 0.960 . S
C488 H475 0.960 . S
C488 C487 1.524 . S
C489 C486 1.403 1_556 S
C489 C490 1.392 . S
C489 C493 1.495 . S
C490 C489 1.392 . S
C490 C491 1.385 . S
C490 C492 1.478 . S
C491 H485 0.930 . S
C491 C487 1.400 1_556 S
C491 C490 1.385 . S
C492 C490 1.478 . S
C492 C494 1.381 . S
C492 C498 1.383 . S
C493 C489 1.495 . S
C493 H499 0.959 . S
C493 H500 0.961 . S
C493 H501 0.960 . S
C494 C492 1.381 . S
C494 C495 1.394 . S
C494 H502 0.930 . S
C495 C494 1.394 . S
C495 C496 1.383 . S
C495 H503 0.929 . S
C496 C495 1.383 . S
C496 C497 1.377 . S
C497 H481 0.930 . S
C497 C496 1.377 . S
C497 C498 1.379 . S
C498 H482 0.931 . S
C498 C492 1.383 . S
C498 C497 1.379 . S
H499 C493 0.959 . S
H500 C493 0.961 . S
H501 C493 0.960 . S
H502 C494 0.930 . S
H503 C495 0.929 . S
H504 C512 0.929 . S
H505 C514 0.930 . S
H506 C516 0.930 . S
H507 C519 0.929 . S
H508 C522 0.930 . S
H509 C524 0.960 . S
H510 C524 0.960 . S
H511 C524 0.960 . S
C512 H504 0.929 . S
C512 C513 1.377 . S
C512 C514 1.384 . S
C513 C512 1.377 . S
C513 C519 1.390 . S
C514 H505 0.930 . S
C514 C512 1.384 . S
C514 C515 1.372 . S
C515 C514 1.372 . S
C515 C516 1.400 . S
C515 C520 1.490 . S
C516 H506 0.930 . S
C516 C515 1.400 . S
C516 C519 1.386 . S
H517 C533 0.930 . S
H518 C534 0.931 . S
C519 H507 0.929 . S
C519 C513 1.390 . S
C519 C516 1.386 . S
C520 C515 1.490 . S
C520 C522 1.395 . S
C520 C523 1.403 . S
H521 C527 0.930 . S
C522 H508 0.930 . S
C522 C520 1.395 . S
C522 C525 1.403 . S
C523 C520 1.403 . S
C523 C524 1.524 . S
C523 C527 1.400 . S
C524 H509 0.960 . S
C524 H510 0.960 . S
C524 H511 0.960 . S
C524 C523 1.524 . S
C525 C522 1.403 . S
C525 C526 1.392 . S
C525 C529 1.495 . S
C526 C525 1.392 . S
C526 C527 1.385 . S
C526 C528 1.478 . S
C527 H521 0.930 . S
C527 C523 1.400 . S
C527 C526 1.385 . S
C528 C526 1.478 . S
C528 C530 1.381 . S
C528 C534 1.383 . S
C529 C525 1.495 . S
C529 H535 0.959 . S
C529 H536 0.961 . S
C529 H537 0.960 . S
C530 C528 1.381 . S
C530 C531 1.394 . S
C530 H538 0.930 . S
C531 C530 1.394 . S
C531 C532 1.383 . S
C531 H539 0.929 . S
C532 C531 1.383 . S
C532 C533 1.377 . S
C533 H517 0.930 . S
C533 C532 1.377 . S
C533 C534 1.379 . S
C534 H518 0.931 . S
C534 C528 1.383 . S
C534 C533 1.379 . S
H535 C529 0.959 . S
H536 C529 0.961 . S
H537 C529 0.960 . S
H538 C530 0.930 . S
H539 C531 0.929 . S
H540 C548 0.929 . S
H541 C550 0.930 . S
H542 C552 0.930 . S
H543 C555 0.929 . S
H544 C558 0.930 . S
H545 C560 0.960 . S
H546 C560 0.960 . S
H547 C560 0.960 . S
C548 H540 0.929 . S
C548 C549 1.377 . S
C548 C550 1.384 . S
C549 C548 1.377 . S
C549 C555 1.390 . S
C550 H541 0.930 . S
C550 C548 1.384 . S
C550 C551 1.372 . S
C551 C550 1.372 . S
C551 C552 1.400 . S
C551 C556 1.490 . S
C552 H542 0.930 . S
C552 C551 1.400 . S
C552 C555 1.386 . S
H553 C569 0.930 . S
H554 C570 0.931 . S
C555 H543 0.929 . S
C555 C549 1.390 . S
C555 C552 1.386 . S
C556 C551 1.490 . S
C556 C558 1.395 . S
C556 C559 1.403 . S
H557 C563 0.930 . S
C558 H544 0.930 . S
C558 C556 1.395 . S
C558 C561 1.403 1_554 S
C559 C556 1.403 . S
C559 C560 1.524 . S
C559 C563 1.400 1_554 S
C560 H545 0.960 . S
C560 H546 0.960 . S
C560 H547 0.960 . S
C560 C559 1.524 . S
C561 C558 1.403 1_556 S
C561 C562 1.392 . S
C561 C565 1.495 . S
C562 C561 1.392 . S
C562 C563 1.385 . S
C562 C564 1.478 . S
C563 H557 0.930 . S
C563 C559 1.400 1_556 S
C563 C562 1.385 . S
C564 C562 1.478 . S
C564 C566 1.381 . S
C564 C570 1.383 . S
C565 C561 1.495 . S
C565 H571 0.958 1_556 S
C565 H572 0.961 . S
C565 H573 0.960 . S
C566 C564 1.381 . S
C566 C567 1.394 . S
C566 H574 0.930 . S
C567 C566 1.394 . S
C567 C568 1.383 . S
C567 H575 0.929 . S
C568 C567 1.383 . S
C568 C569 1.377 . S
C569 H553 0.930 . S
C569 C568 1.377 . S
C569 C570 1.379 . S
C570 H554 0.931 . S
C570 C564 1.383 . S
C570 C569 1.379 . S
H571 C565 0.958 1_554 S
H572 C565 0.961 . S
H573 C565 0.960 . S
H574 C566 0.930 . S
H575 C567 0.929 . S
H576 C584 0.929 . S
H577 C586 0.930 . S
H578 C588 0.930 . S
H579 C591 0.929 . S
H580 C594 0.930 . S
H581 C596 0.960 . S
H582 C596 0.960 . S
H583 C596 0.960 . S
C584 H576 0.929 . S
C584 C585 1.377 . S
C584 C586 1.384 . S
C585 C584 1.377 . S
C585 C591 1.390 . S
C586 H577 0.930 . S
C586 C584 1.384 . S
C586 C587 1.372 . S
C587 C586 1.372 . S
C587 C588 1.400 . S
C587 C592 1.490 . S
C588 H578 0.930 . S
C588 C587 1.400 . S
C588 C591 1.386 . S
H589 C605 0.930 . S
H590 C606 0.931 . S
C591 H579 0.929 . S
C591 C585 1.390 . S
C591 C588 1.386 . S
C592 C587 1.490 . S
C592 C594 1.395 . S
C592 C595 1.403 . S
H593 C599 0.930 . S
C594 H580 0.930 . S
C594 C592 1.395 . S
C594 C597 1.403 . S
C595 C592 1.403 . S
C595 C596 1.524 . S
C595 C599 1.400 . S
C596 H581 0.960 . S
C596 H582 0.960 . S
C596 H583 0.960 . S
C596 C595 1.524 . S
C597 C594 1.403 . S
C597 C598 1.392 . S
C597 C601 1.495 . S
C598 C597 1.392 . S
C598 C599 1.385 . S
C598 C600 1.478 . S
C599 H593 0.930 . S
C599 C595 1.400 . S
C599 C598 1.385 . S
C600 C598 1.478 . S
C600 C602 1.381 . S
C600 C606 1.383 . S
C601 C597 1.495 . S
C601 H607 0.959 . S
C601 H608 0.961 . S
C601 H609 0.960 . S
C602 C600 1.381 . S
C602 C603 1.394 . S
C602 H610 0.930 . S
C603 C602 1.394 . S
C603 C604 1.383 . S
C603 H611 0.929 . S
C604 C603 1.383 . S
C604 C605 1.377 . S
C605 H589 0.930 . S
C605 C604 1.377 . S
C605 C606 1.379 . S
C606 H590 0.931 . S
C606 C600 1.383 . S
C606 C605 1.379 . S
H607 C601 0.959 . S
H608 C601 0.961 . S
H609 C601 0.960 . S
H610 C602 0.930 . S
H611 C603 0.929 . S
H612 C620 0.929 . S
H613 C622 0.930 . S
H614 C624 0.930 . S
H615 C627 0.929 . S
H616 C630 0.930 . S
H617 C632 0.960 . S
H618 C632 0.960 . S
H619 C632 0.960 . S
C620 H612 0.929 . S
C620 C621 1.377 . S
C620 C622 1.384 . S
C621 C620 1.377 . S
C621 C627 1.390 . S
C622 H613 0.930 . S
C622 C620 1.384 . S
C622 C623 1.372 . S
C623 C622 1.372 . S
C623 C624 1.400 . S
C623 C628 1.490 . S
C624 H614 0.930 . S
C624 C623 1.400 . S
C624 C627 1.386 . S
H625 C641 0.930 . S
H626 C642 0.931 . S
C627 H615 0.929 . S
C627 C621 1.390 . S
C627 C624 1.386 . S
C628 C623 1.490 . S
C628 C630 1.395 . S
C628 C631 1.403 . S
H629 C635 0.930 . S
C630 H616 0.930 . S
C630 C628 1.395 . S
C630 C633 1.403 1_554 S
C631 C628 1.403 . S
C631 C632 1.524 . S
C631 C635 1.400 1_554 S
C632 H617 0.960 . S
C632 H618 0.960 . S
C632 H619 0.960 . S
C632 C631 1.524 . S
C633 C630 1.403 1_556 S
C633 C634 1.392 . S
C633 C637 1.495 . S
C634 C633 1.392 . S
C634 C635 1.385 . S
C634 C636 1.478 . S
C635 H629 0.930 . S
C635 C631 1.400 1_556 S
C635 C634 1.385 . S
C636 C634 1.478 . S
C636 C638 1.381 . S
C636 C642 1.383 . S
C637 C633 1.495 . S
C637 H643 0.959 . S
C637 H644 0.961 . S
C637 H645 0.960 . S
C638 C636 1.381 . S
C638 C639 1.394 . S
C638 H646 0.930 . S
C639 C638 1.394 . S
C639 C640 1.383 . S
C639 H647 0.929 . S
C640 C639 1.383 . S
C640 C641 1.377 . S
C641 H625 0.930 . S
C641 C640 1.377 . S
C641 C642 1.379 . S
C642 H626 0.931 . S
C642 C636 1.383 . S
C642 C641 1.379 . S
H643 C637 0.959 . S
H644 C637 0.961 . S
H645 C637 0.960 . S
H646 C638 0.930 . S
H647 C639 0.929 . S
H648 C656 0.929 . S
H649 C658 0.930 . S
H650 C660 0.930 . S
H651 C663 0.929 . S
H652 C666 0.930 . S
H653 C668 0.960 . S
H654 C668 0.960 . S
H655 C668 0.960 . S
C656 H648 0.929 . S
C656 C657 1.377 . S
C656 C658 1.384 . S
C657 C656 1.377 . S
C657 C663 1.390 . S
C658 H649 0.930 . S
C658 C656 1.384 . S
C658 C659 1.372 . S
C659 C658 1.372 . S
C659 C660 1.400 . S
C659 C664 1.490 . S
C660 H650 0.930 . S
C660 C659 1.400 . S
C660 C663 1.386 . S
H661 C677 0.930 . S
H662 C678 0.931 . S
C663 H651 0.929 . S
C663 C657 1.390 . S
C663 C660 1.386 . S
C664 C659 1.490 . S
C664 C666 1.395 . S
C664 C667 1.403 . S
H665 C671 0.930 . S
C666 H652 0.930 . S
C666 C664 1.395 . S
C666 C669 1.403 . S
C667 C664 1.403 . S
C667 C668 1.524 . S
C667 C671 1.400 . S
C668 H653 0.960 . S
C668 H654 0.960 . S
C668 H655 0.960 . S
C668 C667 1.524 . S
C669 C666 1.403 . S
C669 C670 1.392 . S
C669 C673 1.495 . S
C670 C669 1.392 . S
C670 C671 1.385 . S
C670 C672 1.478 . S
C671 H665 0.930 . S
C671 C667 1.400 . S
C671 C670 1.385 . S
C672 C670 1.478 . S
C672 C674 1.381 . S
C672 C678 1.383 . S
C673 C669 1.495 . S
C673 H679 0.959 . S
C673 H680 0.961 . S
C673 H681 0.960 . S
C674 C672 1.381 . S
C674 C675 1.394 . S
C674 H682 0.930 . S
C675 C674 1.394 . S
C675 C676 1.383 . S
C675 H683 0.929 . S
C676 C675 1.383 . S
C676 C677 1.377 . S
C677 H661 0.930 . S
C677 C676 1.377 . S
C677 C678 1.379 . S
C678 H662 0.931 . S
C678 C672 1.383 . S
C678 C677 1.379 . S
H679 C673 0.959 . S
H680 C673 0.961 . S
H681 C673 0.960 . S
H682 C674 0.930 . S
H683 C675 0.929 . S
H684 C692 0.929 . S
H685 C694 0.930 . S
H686 C696 0.930 . S
H687 C699 0.929 . S
H688 C702 0.930 . S
H689 C704 0.960 . S
H690 C704 0.960 1_554 S
H691 C704 0.960 . S
C692 H684 0.929 . S
C692 C693 1.377 . S
C692 C694 1.384 . S
C693 C692 1.377 . S
C693 C699 1.390 . S
C694 H685 0.930 . S
C694 C692 1.384 . S
C694 C695 1.372 . S
C695 C694 1.372 . S
C695 C696 1.400 . S
C695 C700 1.490 . S
C696 H686 0.930 . S
C696 C695 1.400 . S
C696 C699 1.386 . S
H697 C713 0.930 . S
H698 C714 0.931 . S
C699 H687 0.929 . S
C699 C693 1.390 . S
C699 C696 1.386 . S
C700 C695 1.490 . S
C700 C702 1.395 . S
C700 C703 1.403 1_554 S
H701 C707 0.930 . S
C702 H688 0.930 . S
C702 C700 1.395 . S
C702 C705 1.403 . S
C703 C700 1.403 1_556 S
C703 C704 1.524 . S
C703 C707 1.400 . S
C704 H689 0.960 . S
C704 H690 0.960 1_556 S
C704 H691 0.960 . S
C704 C703 1.524 . S
C705 C702 1.403 . S
C705 C706 1.392 1_554 S
C705 C709 1.495 . S
C706 C705 1.392 1_556 S
C706 C707 1.385 . S
C706 C708 1.478 . S
C707 H701 0.930 . S
C707 C703 1.400 . S
C707 C706 1.385 . S
C708 C706 1.478 . S
C708 C710 1.381 . S
C708 C714 1.383 . S
C709 C705 1.495 . S
C709 H715 0.959 . S
C709 H716 0.961 . S
C709 H717 0.960 . S
C710 C708 1.381 . S
C710 C711 1.394 . S
C710 H718 0.930 . S
C711 C710 1.394 . S
C711 C712 1.383 . S
C711 H719 0.929 . S
C712 C711 1.383 . S
C712 C713 1.377 . S
C713 H697 0.930 . S
C713 C712 1.377 . S
C713 C714 1.379 . S
C714 H698 0.931 . S
C714 C708 1.383 . S
C714 C713 1.379 . S
H715 C709 0.959 . S
H716 C709 0.961 . S
H717 C709 0.960 . S
H718 C710 0.930 . S
H719 C711 0.929 . S
H720 C728 0.929 . S
H721 C730 0.930 . S
H722 C732 0.930 . S
H723 C735 0.929 . S
H724 C738 0.930 . S
H725 C740 0.960 . S
H726 C740 0.960 . S
H727 C740 0.960 . S
C728 H720 0.929 . S
C728 C729 1.377 . S
C728 C730 1.384 . S
C729 C728 1.377 . S
C729 C735 1.390 . S
C730 H721 0.930 . S
C730 C728 1.384 . S
C730 C731 1.372 . S
C731 C730 1.372 . S
C731 C732 1.400 . S
C731 C736 1.490 . S
C732 H722 0.930 . S
C732 C731 1.400 . S
C732 C735 1.386 . S
H733 C749 0.930 . S
H734 C750 0.931 . S
C735 H723 0.929 . S
C735 C729 1.390 . S
C735 C732 1.386 . S
C736 C731 1.490 . S
C736 C738 1.395 . S
C736 C739 1.403 . S
H737 C743 0.930 . S
C738 H724 0.930 . S
C738 C736 1.395 . S
C738 C741 1.403 . S
C739 C736 1.403 . S
C739 C740 1.524 . S
C739 C743 1.400 . S
C740 H725 0.960 . S
C740 H726 0.960 . S
C740 H727 0.960 . S
C740 C739 1.524 . S
C741 C738 1.403 . S
C741 C742 1.392 . S
C741 C745 1.495 . S
C742 C741 1.392 . S
C742 C743 1.385 . S
C742 C744 1.478 . S
C743 H737 0.930 . S
C743 C739 1.400 . S
C743 C742 1.385 . S
C744 C742 1.478 . S
C744 C746 1.381 . S
C744 C750 1.383 . S
C745 C741 1.495 . S
C745 H751 0.959 . S
C745 H752 0.961 . S
C745 H753 0.960 . S
C746 C744 1.381 . S
C746 C747 1.394 . S
C746 H754 0.930 . S
C747 C746 1.394 . S
C747 C748 1.383 . S
C747 H755 0.929 . S
C748 C747 1.383 . S
C748 C749 1.377 . S
C749 H733 0.930 . S
C749 C748 1.377 . S
C749 C750 1.379 . S
C750 H734 0.931 . S
C750 C744 1.383 . S
C750 C749 1.379 . S
H751 C745 0.959 . S
H752 C745 0.961 . S
H753 C745 0.960 . S
H754 C746 0.930 . S
H755 C747 0.929 . S
H756 C764 0.929 . S
H757 C766 0.930 . S
H758 C768 0.930 . S
H759 C771 0.929 . S
H760 C774 0.930 . S
H761 C776 0.960 . S
H762 C776 0.960 . S
H763 C776 0.960 . S
C764 H756 0.929 . S
C764 C765 1.377 . S
C764 C766 1.384 . S
C765 C764 1.377 . S
C765 C771 1.390 . S
C766 H757 0.930 . S
C766 C764 1.384 . S
C766 C767 1.372 . S
C767 C766 1.372 . S
C767 C768 1.400 . S
C767 C772 1.490 . S
C768 H758 0.930 . S
C768 C767 1.400 . S
C768 C771 1.386 . S
H769 C785 0.930 . S
H770 C786 0.931 . S
C771 H759 0.929 . S
C771 C765 1.390 . S
C771 C768 1.386 . S
C772 C767 1.490 . S
C772 C774 1.395 1_554 S
C772 C775 1.403 . S
H773 C779 0.930 . S
C774 H760 0.930 . S
C774 C772 1.395 1_556 S
C774 C777 1.403 . S
C775 C772 1.403 . S
C775 C776 1.524 . S
C775 C779 1.400 1_554 S
C776 H761 0.960 . S
C776 H762 0.960 . S
C776 H763 0.960 . S
C776 C775 1.524 . S
C777 C774 1.403 . S
C777 C778 1.392 . S
C777 C781 1.495 . S
C778 C777 1.392 . S
C778 C779 1.385 . S
C778 C780 1.478 . S
C779 H773 0.930 . S
C779 C775 1.400 1_556 S
C779 C778 1.385 . S
C780 C778 1.478 . S
C780 C782 1.381 . S
C780 C786 1.383 . S
C781 C777 1.495 . S
C781 H787 0.959 . S
C781 H788 0.961 . S
C781 H789 0.960 . S
C782 C780 1.381 . S
C782 C783 1.394 . S
C782 H790 0.930 . S
C783 C782 1.394 . S
C783 C784 1.383 . S
C783 H791 0.929 . S
C784 C783 1.383 . S
C784 C785 1.377 . S
C785 H769 0.930 . S
C785 C784 1.377 . S
C785 C786 1.379 . S
C786 H770 0.931 . S
C786 C780 1.383 . S
C786 C785 1.379 . S
H787 C781 0.959 . S
H788 C781 0.961 . S
H789 C781 0.960 . S
H790 C782 0.930 . S
H791 C783 0.929 . S
H792 C800 0.929 . S
H793 C802 0.930 . S
H794 C804 0.930 . S
H795 C807 0.929 . S
H796 C810 0.930 . S
H797 C812 0.960 . S
H798 C812 0.960 . S
H799 C812 0.960 . S
C800 H792 0.929 . S
C800 C801 1.377 . S
C800 C802 1.384 . S
C801 C800 1.377 . S
C801 C807 1.390 . S
C802 H793 0.930 . S
C802 C800 1.384 . S
C802 C803 1.372 . S
C803 C802 1.372 . S
C803 C804 1.400 . S
C803 C808 1.490 . S
C804 H794 0.930 . S
C804 C803 1.400 . S
C804 C807 1.386 . S
H805 C821 0.930 . S
H806 C822 0.931 . S
C807 H795 0.929 . S
C807 C801 1.390 . S
C807 C804 1.386 . S
C808 C803 1.490 . S
C808 C810 1.395 . S
C808 C811 1.403 . S
H809 C815 0.930 . S
C810 H796 0.930 . S
C810 C808 1.395 . S
C810 C813 1.403 . S
C811 C808 1.403 . S
C811 C812 1.524 . S
C811 C815 1.400 . S
C812 H797 0.960 . S
C812 H798 0.960 . S
C812 H799 0.960 . S
C812 C811 1.524 . S
C813 C810 1.403 . S
C813 C814 1.392 . S
C813 C817 1.495 . S
C814 C813 1.392 . S
C814 C815 1.385 . S
C814 C816 1.478 . S
C815 H809 0.930 . S
C815 C811 1.400 . S
C815 C814 1.385 . S
C816 C814 1.478 . S
C816 C818 1.381 . S
C816 C822 1.383 . S
C817 C813 1.495 . S
C817 H823 0.959 . S
C817 H824 0.961 . S
C817 H825 0.960 . S
C818 C816 1.381 . S
C818 C819 1.394 . S
C818 H826 0.930 . S
C819 C818 1.394 . S
C819 C820 1.383 . S
C819 H827 0.929 . S
C820 C819 1.383 . S
C820 C821 1.377 . S
C821 H805 0.930 . S
C821 C820 1.377 . S
C821 C822 1.379 . S
C822 H806 0.931 . S
C822 C816 1.383 . S
C822 C821 1.379 . S
H823 C817 0.959 . S
H824 C817 0.961 . S
H825 C817 0.960 . S
H826 C818 0.930 . S
H827 C819 0.929 . S
H828 C836 0.929 . S
H829 C838 0.930 . S
H830 C840 0.930 . S
H831 C843 0.929 . S
H832 C846 0.930 . S
H833 C848 0.960 . S
H834 C848 0.960 . S
H835 C848 0.960 . S
C836 H828 0.929 . S
C836 C837 1.377 . S
C836 C838 1.384 . S
C837 C836 1.377 . S
C837 C843 1.390 . S
C838 H829 0.930 . S
C838 C836 1.384 . S
C838 C839 1.372 . S
C839 C838 1.372 . S
C839 C840 1.400 . S
C839 C844 1.490 . S
C840 H830 0.930 . S
C840 C839 1.400 . S
C840 C843 1.386 . S
H841 C857 0.930 . S
H842 C858 0.931 . S
C843 H831 0.929 . S
C843 C837 1.390 . S
C843 C840 1.386 . S
C844 C839 1.490 . S
C844 C846 1.395 1_556 S
C844 C847 1.403 . S
H845 C851 0.930 . S
C846 H832 0.930 . S
C846 C844 1.395 1_554 S
C846 C849 1.403 . S
C847 C844 1.403 . S
C847 C848 1.524 . S
C847 C851 1.400 . S
C848 H833 0.960 . S
C848 H834 0.960 . S
C848 H835 0.960 . S
C848 C847 1.524 . S
C849 C846 1.403 . S
C849 C850 1.392 . S
C849 C853 1.495 . S
C850 C849 1.392 . S
C850 C851 1.385 1_554 S
C850 C852 1.478 . S
C851 H845 0.930 . S
C851 C847 1.400 . S
C851 C850 1.385 1_556 S
C852 C850 1.478 . S
C852 C854 1.381 . S
C852 C858 1.383 . S
C853 C849 1.495 . S
C853 H859 0.959 . S
C853 H860 0.961 . S
C853 H861 0.960 . S
C854 C852 1.381 . S
C854 C855 1.394 . S
C854 H862 0.930 . S
C855 C854 1.394 . S
C855 C856 1.383 . S
C855 H863 0.929 . S
C856 C855 1.383 . S
C856 C857 1.377 . S
C857 H841 0.930 . S
C857 C856 1.377 . S
C857 C858 1.379 . S
C858 H842 0.931 . S
C858 C852 1.383 . S
C858 C857 1.379 . S
H859 C853 0.959 . S
H860 C853 0.961 . S
H861 C853 0.960 . S
H862 C854 0.930 . S
H863 C855 0.929 . S
H864 C872 0.929 . S
H865 C874 0.930 . S
H866 C876 0.930 . S
H867 C879 0.929 . S
H868 C882 0.930 . S
H869 C884 0.960 . S
H870 C884 0.960 . S
H871 C884 0.960 . S
C872 H864 0.929 . S
C872 C873 1.377 . S
C872 C874 1.384 . S
C873 C872 1.377 . S
C873 C879 1.390 . S
C874 H865 0.930 . S
C874 C872 1.384 . S
C874 C875 1.372 . S
C875 C874 1.372 . S
C875 C876 1.400 . S
C875 C880 1.490 . S
C876 H866 0.930 . S
C876 C875 1.400 . S
C876 C879 1.386 . S
H877 C893 0.930 . S
H878 C894 0.931 . S
C879 H867 0.929 . S
C879 C873 1.390 . S
C879 C876 1.386 . S
C880 C875 1.490 . S
C880 C882 1.395 . S
C880 C883 1.403 . S
H881 C887 0.930 . S
C882 H868 0.930 . S
C882 C880 1.395 . S
C882 C885 1.403 . S
C883 C880 1.403 . S
C883 C884 1.524 . S
C883 C887 1.400 . S
C884 H869 0.960 . S
C884 H870 0.960 . S
C884 H871 0.960 . S
C884 C883 1.524 . S
C885 C882 1.403 . S
C885 C886 1.392 . S
C885 C889 1.495 . S
C886 C885 1.392 . S
C886 C887 1.385 . S
C886 C888 1.478 . S
C887 H881 0.930 . S
C887 C883 1.400 . S
C887 C886 1.385 . S
C888 C886 1.478 . S
C888 C890 1.381 . S
C888 C894 1.383 . S
C889 C885 1.495 . S
C889 H895 0.959 . S
C889 H896 0.961 . S
C889 H897 0.960 . S
C890 C888 1.381 . S
C890 C891 1.394 . S
C890 H898 0.930 . S
C891 C890 1.394 . S
C891 C892 1.383 . S
C891 H899 0.929 . S
C892 C891 1.383 . S
C892 C893 1.377 . S
C893 H877 0.930 . S
C893 C892 1.377 . S
C893 C894 1.379 . S
C894 H878 0.931 . S
C894 C888 1.383 . S
C894 C893 1.379 . S
H895 C889 0.959 . S
H896 C889 0.961 . S
H897 C889 0.960 . S
H898 C890 0.930 . S
H899 C891 0.929 . S
H900 C908 0.929 . S
H901 C910 0.930 . S
H902 C912 0.930 . S
H903 C915 0.929 . S
H904 C918 0.930 . S
H905 C920 0.960 . S
H906 C920 0.963 . S
H907 C920 0.960 . S
C908 H900 0.929 . S
C908 C909 1.377 . S
C908 C910 1.384 . S
C909 C908 1.377 . S
C909 C915 1.390 . S
C910 H901 0.930 . S
C910 C908 1.384 . S
C910 C911 1.372 . S
C911 C910 1.372 . S
C911 C912 1.400 . S
C911 C916 1.490 . S
C912 H902 0.930 . S
C912 C911 1.400 . S
C912 C915 1.386 . S
H913 C929 0.930 . S
H914 C930 0.931 . S
C915 H903 0.929 . S
C915 C909 1.390 . S
C915 C912 1.386 . S
C916 C911 1.490 . S
C916 C918 1.395 . S
C916 C919 1.403 1_554 S
H917 C923 0.930 . S
C918 H904 0.930 . S
C918 C916 1.395 . S
C918 C921 1.403 . S
C919 C916 1.403 1_556 S
C919 C920 1.524 . S
C919 C923 1.400 . S
C920 H905 0.960 . S
C920 H906 0.963 . S
C920 H907 0.960 . S
C920 C919 1.524 . S
C921 C918 1.403 . S
C921 C922 1.392 1_554 S
C921 C925 1.495 . S
C922 C921 1.392 1_556 S
C922 C923 1.385 . S
C922 C924 1.478 . S
C923 H917 0.930 . S
C923 C919 1.400 . S
C923 C922 1.385 . S
C924 C922 1.478 . S
C924 C926 1.381 . S
C924 C930 1.383 . S
C925 C921 1.495 . S
C925 H931 0.959 . S
C925 H932 0.961 . S
C925 H933 0.960 . S
C926 C924 1.381 . S
C926 C927 1.394 . S
C926 H934 0.930 . S
C927 C926 1.394 . S
C927 C928 1.383 . S
C927 H935 0.929 . S
C928 C927 1.383 . S
C928 C929 1.377 . S
C929 H913 0.930 . S
C929 C928 1.377 . S
C929 C930 1.379 . S
C930 H914 0.931 . S
C930 C924 1.383 . S
C930 C929 1.379 . S
H931 C925 0.959 . S
H932 C925 0.961 . S
H933 C925 0.960 . S
H934 C926 0.930 . S
H935 C927 0.929 . S
H936 C944 0.929 . S
H937 C946 0.930 . S
H938 C948 0.930 . S
H939 C951 0.929 . S
H940 C954 0.930 . S
H941 C956 0.960 . S
H942 C956 0.960 . S
H943 C956 0.960 . S
C944 H936 0.929 . S
C944 C945 1.377 . S
C944 C946 1.384 . S
C945 C944 1.377 . S
C945 C951 1.390 . S
C946 H937 0.930 . S
C946 C944 1.384 . S
C946 C947 1.372 . S
C947 C946 1.372 . S
C947 C948 1.400 . S
C947 C952 1.490 . S
C948 H938 0.930 . S
C948 C947 1.400 . S
C948 C951 1.386 . S
H949 C965 0.930 . S
H950 C966 0.931 . S
C951 H939 0.929 . S
C951 C945 1.390 . S
C951 C948 1.386 . S
C952 C947 1.490 . S
C952 C954 1.395 . S
C952 C955 1.403 . S
H953 C959 0.930 . S
C954 H940 0.930 . S
C954 C952 1.395 . S
C954 C957 1.403 . S
C955 C952 1.403 . S
C955 C956 1.524 . S
C955 C959 1.400 . S
C956 H941 0.960 . S
C956 H942 0.960 . S
C956 H943 0.960 . S
C956 C955 1.524 . S
C957 C954 1.403 . S
C957 C958 1.392 . S
C957 C961 1.495 . S
C958 C957 1.392 . S
C958 C959 1.385 . S
C958 C960 1.478 . S
C959 H953 0.930 . S
C959 C955 1.400 . S
C959 C958 1.385 . S
C960 C958 1.478 . S
C960 C962 1.381 . S
C960 C966 1.383 . S
C961 C957 1.495 . S
C961 H967 0.959 . S
C961 H968 0.961 . S
C961 H969 0.960 . S
C962 C960 1.381 . S
C962 C963 1.394 . S
C962 H970 0.930 . S
C963 C962 1.394 . S
C963 C964 1.383 . S
C963 H971 0.929 . S
C964 C963 1.383 . S
C964 C965 1.377 . S
C965 H949 0.930 . S
C965 C964 1.377 . S
C965 C966 1.379 . S
C966 H950 0.931 . S
C966 C960 1.383 . S
C966 C965 1.379 . S
H967 C961 0.959 . S
H968 C961 0.961 . S
H969 C961 0.960 . S
H970 C962 0.930 . S
H971 C963 0.929 . S
H972 C980 0.929 . S
H973 C982 0.930 . S
H974 C984 0.930 . S
H975 C987 0.929 . S
H976 C990 0.930 . S
H977 C992 0.960 . S
H978 C992 0.960 . S
H979 C992 0.960 1_554 S
C980 H972 0.929 . S
C980 C981 1.377 . S
C980 C982 1.384 . S
C981 C980 1.377 . S
C981 C987 1.390 . S
C982 H973 0.930 . S
C982 C980 1.384 . S
C982 C983 1.372 . S
C983 C982 1.372 . S
C983 C984 1.400 . S
C983 C988 1.490 . S
C984 H974 0.930 . S
C984 C983 1.400 . S
C984 C987 1.386 . S
H985 C1001 0.930 . S
H986 C1002 0.931 . S
C987 H975 0.929 . S
C987 C981 1.390 . S
C987 C984 1.386 . S
C988 C983 1.490 . S
C988 C990 1.395 . S
C988 C991 1.403 1_554 S
H989 C995 0.930 . S
C990 H976 0.930 . S
C990 C988 1.395 . S
C990 C993 1.403 . S
C991 C988 1.403 1_556 S
C991 C992 1.524 . S
C991 C995 1.400 . S
C992 H977 0.960 . S
C992 H978 0.960 . S
C992 H979 0.960 1_556 S
C992 C991 1.524 . S
C993 C990 1.403 . S
C993 C994 1.392 1_554 S
C993 C997 1.495 . S
C994 C993 1.392 1_556 S
C994 C995 1.385 . S
C994 C996 1.478 . S
C995 H989 0.930 . S
C995 C991 1.400 . S
C995 C994 1.385 . S
C996 C994 1.478 . S
C996 C998 1.381 . S
C996 C1002 1.383 . S
C997 C993 1.495 . S
C997 H1003 0.959 . S
C997 H1004 0.961 . S
C997 H1005 0.960 1_554 S
C998 C996 1.381 . S
C998 C999 1.394 . S
C998 H1006 0.930 . S
C999 C998 1.394 . S
C999 C1000 1.383 . S
C999 H1007 0.929 . S
C1000 C999 1.383 . S
C1000 C1001 1.377 . S
C1001 H985 0.930 . S
C1001 C1000 1.377 . S
C1001 C1002 1.379 . S
C1002 H986 0.931 . S
C1002 C996 1.383 . S
C1002 C1001 1.379 . S
H1003 C997 0.959 . S
H1004 C997 0.961 . S
H1005 C997 0.960 1_556 S
H1006 C998 0.930 . S
H1007 C999 0.929 . S
H1008 C1016 0.929 . S
H1009 C1018 0.930 . S
H1010 C1020 0.930 . S
H1011 C1023 0.929 . S
H1012 C1026 0.930 . S
H1013 C1028 0.960 . S
H1014 C1028 0.960 . S
H1015 C1028 0.960 . S
C1016 H1008 0.929 . S
C1016 C1017 1.377 . S
C1016 C1018 1.384 . S
C1017 C1016 1.377 . S
C1017 C1023 1.390 . S
C1018 H1009 0.930 . S
C1018 C1016 1.384 . S
C1018 C1019 1.372 . S
C1019 C1018 1.372 . S
C1019 C1020 1.400 . S
C1019 C1024 1.490 . S
C1020 H1010 0.930 . S
C1020 C1019 1.400 . S
C1020 C1023 1.386 . S
H1021 C1037 0.930 . S
H1022 C1038 0.931 . S
C1023 H1011 0.929 . S
C1023 C1017 1.390 . S
C1023 C1020 1.386 . S
C1024 C1019 1.490 . S
C1024 C1026 1.395 . S
C1024 C1027 1.403 . S
H1025 C1031 0.930 . S
C1026 H1012 0.930 . S
C1026 C1024 1.395 . S
C1026 C1029 1.403 . S
C1027 C1024 1.403 . S
C1027 C1028 1.524 . S
C1027 C1031 1.400 . S
C1028 H1013 0.960 . S
C1028 H1014 0.960 . S
C1028 H1015 0.960 . S
C1028 C1027 1.524 . S
C1029 C1026 1.403 . S
C1029 C1030 1.392 . S
C1029 C1033 1.495 . S
C1030 C1029 1.392 . S
C1030 C1031 1.385 . S
C1030 C1032 1.478 . S
C1031 H1025 0.930 . S
C1031 C1027 1.400 . S
C1031 C1030 1.385 . S
C1032 C1030 1.478 . S
C1032 C1034 1.381 . S
C1032 C1038 1.383 . S
C1033 C1029 1.495 . S
C1033 H1039 0.959 . S
C1033 H1040 0.961 . S
C1033 H1041 0.960 . S
C1034 C1032 1.381 . S
C1034 C1035 1.394 . S
C1034 H1042 0.930 . S
C1035 C1034 1.394 . S
C1035 C1036 1.383 . S
C1035 H1043 0.929 . S
C1036 C1035 1.383 . S
C1036 C1037 1.377 . S
C1037 H1021 0.930 . S
C1037 C1036 1.377 . S
C1037 C1038 1.379 . S
C1038 H1022 0.931 . S
C1038 C1032 1.383 . S
C1038 C1037 1.379 . S
H1039 C1033 0.959 . S
H1040 C1033 0.961 . S
H1041 C1033 0.960 . S
H1042 C1034 0.930 . S
H1043 C1035 0.929 . S
H1044 C1052 0.929 . S
H1045 C1054 0.930 . S
H1046 C1056 0.930 . S
H1047 C1059 0.929 . S
H1048 C1062 0.930 . S
H1049 C1064 0.960 . S
H1050 C1064 0.960 . S
H1051 C1064 0.960 . S
C1052 H1044 0.929 . S
C1052 C1053 1.377 . S
C1052 C1054 1.384 . S
C1053 C1052 1.377 . S
C1053 C1059 1.390 . S
C1054 H1045 0.930 . S
C1054 C1052 1.384 . S
C1054 C1055 1.372 . S
C1055 C1054 1.372 . S
C1055 C1056 1.400 . S
C1055 C1060 1.490 . S
C1056 H1046 0.930 . S
C1056 C1055 1.400 . S
C1056 C1059 1.386 . S
H1057 C1073 0.930 . S
H1058 C1074 0.931 . S
C1059 H1047 0.929 . S
C1059 C1053 1.390 . S
C1059 C1056 1.386 . S
C1060 C1055 1.490 . S
C1060 C1062 1.395 1_556 S
C1060 C1063 1.403 . S
H1061 C1067 0.930 . S
C1062 H1048 0.930 . S
C1062 C1060 1.395 1_554 S
C1062 C1065 1.403 . S
C1063 C1060 1.403 . S
C1063 C1064 1.524 . S
C1063 C1067 1.400 1_556 S
C1064 H1049 0.960 . S
C1064 H1050 0.960 . S
C1064 H1051 0.960 . S
C1064 C1063 1.524 . S
C1065 C1062 1.403 . S
C1065 C1066 1.392 . S
C1065 C1069 1.495 . S
C1066 C1065 1.392 . S
C1066 C1067 1.385 . S
C1066 C1068 1.478 . S
C1067 H1061 0.930 . S
C1067 C1063 1.400 1_554 S
C1067 C1066 1.385 . S
C1068 C1066 1.478 . S
C1068 C1070 1.381 . S
C1068 C1074 1.383 . S
C1069 C1065 1.495 . S
C1069 H1075 0.959 . S
C1069 H1076 0.961 . S
C1069 H1077 0.960 . S
C1070 C1068 1.381 . S
C1070 C1071 1.394 . S
C1070 H1078 0.930 . S
C1071 C1070 1.394 . S
C1071 C1072 1.383 . S
C1071 H1079 0.929 . S
C1072 C1071 1.383 . S
C1072 C1073 1.377 . S
C1073 H1057 0.930 . S
C1073 C1072 1.377 . S
C1073 C1074 1.379 . S
C1074 H1058 0.931 . S
C1074 C1068 1.383 . S
C1074 C1073 1.379 . S
H1075 C1069 0.959 . S
H1076 C1069 0.961 . S
H1077 C1069 0.960 . S
H1078 C1070 0.930 . S
H1079 C1071 0.929 . S
H1080 C1088 0.929 . S
H1081 C1090 0.930 . S
H1082 C1092 0.930 . S
H1083 C1095 0.929 . S
H1084 C1098 0.930 . S
H1085 C1100 0.960 . S
H1086 C1100 0.960 . S
H1087 C1100 0.960 . S
C1088 H1080 0.929 . S
C1088 C1089 1.377 . S
C1088 C1090 1.384 . S
C1089 C1088 1.377 . S
C1089 C1095 1.390 . S
C1090 H1081 0.930 . S
C1090 C1088 1.384 . S
C1090 C1091 1.372 . S
C1091 C1090 1.372 . S
C1091 C1092 1.400 . S
C1091 C1096 1.490 . S
C1092 H1082 0.930 . S
C1092 C1091 1.400 . S
C1092 C1095 1.386 . S
H1093 C1109 0.930 . S
H1094 C1110 0.931 . S
C1095 H1083 0.929 . S
C1095 C1089 1.390 . S
C1095 C1092 1.386 . S
C1096 C1091 1.490 . S
C1096 C1098 1.395 . S
C1096 C1099 1.403 . S
H1097 C1103 0.930 . S
C1098 H1084 0.930 . S
C1098 C1096 1.395 . S
C1098 C1101 1.403 . S
C1099 C1096 1.403 . S
C1099 C1100 1.524 . S
C1099 C1103 1.400 . S
C1100 H1085 0.960 . S
C1100 H1086 0.960 . S
C1100 H1087 0.960 . S
C1100 C1099 1.524 . S
C1101 C1098 1.403 . S
C1101 C1102 1.392 . S
C1101 C1105 1.495 . S
C1102 C1101 1.392 . S
C1102 C1103 1.385 . S
C1102 C1104 1.478 . S
C1103 H1097 0.930 . S
C1103 C1099 1.400 . S
C1103 C1102 1.385 . S
C1104 C1102 1.478 . S
C1104 C1106 1.381 . S
C1104 C1110 1.383 . S
C1105 C1101 1.495 . S
C1105 H1111 0.959 . S
C1105 H1112 0.961 . S
C1105 H1113 0.960 . S
C1106 C1104 1.381 . S
C1106 C1107 1.394 . S
C1106 H1114 0.930 . S
C1107 C1106 1.394 . S
C1107 C1108 1.383 . S
C1107 H1115 0.929 . S
C1108 C1107 1.383 . S
C1108 C1109 1.377 . S
C1109 H1093 0.930 . S
C1109 C1108 1.377 . S
C1109 C1110 1.379 . S
C1110 H1094 0.931 . S
C1110 C1104 1.383 . S
C1110 C1109 1.379 . S
H1111 C1105 0.959 . S
H1112 C1105 0.961 . S
H1113 C1105 0.960 . S
H1114 C1106 0.930 . S
H1115 C1107 0.929 . S
H1116 C1124 0.929 . S
H1117 C1126 0.930 . S
H1118 C1128 0.930 . S
H1119 C1131 0.929 . S
H1120 C1134 0.930 . S
H1121 C1136 0.960 . S
H1122 C1136 0.960 1_554 S
H1123 C1136 0.960 . S
C1124 H1116 0.929 . S
C1124 C1125 1.377 . S
C1124 C1126 1.384 . S
C1125 C1124 1.377 . S
C1125 C1131 1.390 . S
C1126 H1117 0.930 . S
C1126 C1124 1.384 . S
C1126 C1127 1.372 . S
C1127 C1126 1.372 . S
C1127 C1128 1.400 . S
C1127 C1132 1.490 . S
C1128 H1118 0.930 . S
C1128 C1127 1.400 . S
C1128 C1131 1.386 . S
H1129 C1145 0.930 . S
H1130 C1146 0.931 . S
C1131 H1119 0.929 . S
C1131 C1125 1.390 . S
C1131 C1128 1.386 . S
C1132 C1127 1.490 . S
C1132 C1134 1.395 . S
C1132 C1135 1.403 1_554 S
H1133 C1139 0.930 . S
C1134 H1120 0.930 . S
C1134 C1132 1.395 . S
C1134 C1137 1.403 . S
C1135 C1132 1.403 1_556 S
C1135 C1136 1.524 . S
C1135 C1139 1.400 . S
C1136 H1121 0.960 . S
C1136 H1122 0.960 1_556 S
C1136 H1123 0.960 . S
C1136 C1135 1.524 . S
C1137 C1134 1.403 . S
C1137 C1138 1.392 1_554 S
C1137 C1141 1.495 . S
C1138 C1137 1.392 1_556 S
C1138 C1139 1.385 . S
C1138 C1140 1.478 . S
C1139 H1133 0.930 . S
C1139 C1135 1.400 . S
C1139 C1138 1.385 . S
C1140 C1138 1.478 . S
C1140 C1142 1.381 . S
C1140 C1146 1.383 . S
C1141 C1137 1.495 . S
C1141 H1147 0.959 . S
C1141 H1148 0.961 1_554 S
C1141 H1149 0.960 . S
C1142 C1140 1.381 . S
C1142 C1143 1.394 . S
C1142 H1150 0.930 . S
C1143 C1142 1.394 . S
C1143 C1144 1.383 . S
C1143 H1151 0.929 . S
C1144 C1143 1.383 . S
C1144 C1145 1.377 . S
C1145 H1129 0.930 . S
C1145 C1144 1.377 . S
C1145 C1146 1.379 . S
C1146 H1130 0.931 . S
C1146 C1140 1.383 . S
C1146 C1145 1.379 . S
H1147 C1141 0.959 . S
H1148 C1141 0.961 1_556 S
H1149 C1141 0.960 . S
H1150 C1142 0.930 . S
H1151 C1143 0.929 . S
H1152 C1160 0.929 . S
H1153 C1162 0.930 . S
H1154 C1164 0.930 . S
H1155 C1167 0.929 . S
H1156 C1170 0.930 . S
H1157 C1172 0.960 . S
H1158 C1172 0.960 . S
H1159 C1172 0.960 . S
C1160 H1152 0.929 . S
C1160 C1161 1.377 . S
C1160 C1162 1.384 . S
C1161 C1160 1.377 . S
C1161 C1167 1.390 . S
C1162 H1153 0.930 . S
C1162 C1160 1.384 . S
C1162 C1163 1.372 . S
C1163 C1162 1.372 . S
C1163 C1164 1.400 . S
C1163 C1168 1.490 . S
C1164 H1154 0.930 . S
C1164 C1163 1.400 . S
C1164 C1167 1.386 . S
H1165 C1181 0.930 . S
H1166 C1182 0.931 . S
C1167 H1155 0.929 . S
C1167 C1161 1.390 . S
C1167 C1164 1.386 . S
C1168 C1163 1.490 . S
C1168 C1170 1.395 . S
C1168 C1171 1.403 . S
H1169 C1175 0.930 . S
C1170 H1156 0.930 . S
C1170 C1168 1.395 . S
C1170 C1173 1.403 . S
C1171 C1168 1.403 . S
C1171 C1172 1.524 . S
C1171 C1175 1.400 . S
C1172 H1157 0.960 . S
C1172 H1158 0.960 . S
C1172 H1159 0.960 . S
C1172 C1171 1.524 . S
C1173 C1170 1.403 . S
C1173 C1174 1.392 . S
C1173 C1177 1.495 . S
C1174 C1173 1.392 . S
C1174 C1175 1.385 . S
C1174 C1176 1.478 . S
C1175 H1169 0.930 . S
C1175 C1171 1.400 . S
C1175 C1174 1.385 . S
C1176 C1174 1.478 . S
C1176 C1178 1.381 . S
C1176 C1182 1.383 . S
C1177 C1173 1.495 . S
C1177 H1183 0.959 . S
C1177 H1184 0.961 . S
C1177 H1185 0.960 . S
C1178 C1176 1.381 . S
C1178 C1179 1.394 . S
C1178 H1186 0.930 . S
C1179 C1178 1.394 . S
C1179 C1180 1.383 . S
C1179 H1187 0.929 . S
C1180 C1179 1.383 . S
C1180 C1181 1.377 . S
C1181 H1165 0.930 . S
C1181 C1180 1.377 . S
C1181 C1182 1.379 . S
C1182 H1166 0.931 . S
C1182 C1176 1.383 . S
C1182 C1181 1.379 . S
H1183 C1177 0.959 . S
H1184 C1177 0.961 . S
H1185 C1177 0.960 . S
H1186 C1178 0.930 . S
H1187 C1179 0.929 . S
H1188 C1196 0.929 . S
H1189 C1198 0.930 . S
H1190 C1200 0.930 . S
H1191 C1203 0.929 . S
H1192 C1206 0.930 . S
H1193 C1208 0.960 . S
H1194 C1208 0.960 . S
H1195 C1208 0.960 . S
C1196 H1188 0.929 . S
C1196 C1197 1.377 . S
C1196 C1198 1.384 . S
C1197 C1196 1.377 . S
C1197 C1203 1.390 . S
C1198 H1189 0.930 . S
C1198 C1196 1.384 . S
C1198 C1199 1.372 . S
C1199 C1198 1.372 . S
C1199 C1200 1.400 . S
C1199 C1204 1.490 . S
C1200 H1190 0.930 . S
C1200 C1199 1.400 . S
C1200 C1203 1.386 . S
H1201 C1217 0.930 . S
H1202 C1218 0.931 . S
C1203 H1191 0.929 . S
C1203 C1197 1.390 . S
C1203 C1200 1.386 . S
C1204 C1199 1.490 . S
C1204 C1206 1.395 . S
C1204 C1207 1.403 . S
H1205 C1211 0.930 . S
C1206 H1192 0.930 . S
C1206 C1204 1.395 . S
C1206 C1209 1.403 1_554 S
C1207 C1204 1.403 . S
C1207 C1208 1.524 . S
C1207 C1211 1.400 1_554 S
C1208 H1193 0.960 . S
C1208 H1194 0.960 . S
C1208 H1195 0.960 . S
C1208 C1207 1.524 . S
C1209 C1206 1.403 1_556 S
C1209 C1210 1.392 . S
C1209 C1213 1.495 . S
C1210 C1209 1.392 . S
C1210 C1211 1.385 . S
C1210 C1212 1.478 . S
C1211 H1205 0.930 . S
C1211 C1207 1.400 1_556 S
C1211 C1210 1.385 . S
C1212 C1210 1.478 . S
C1212 C1214 1.381 . S
C1212 C1218 1.383 . S
C1213 C1209 1.495 . S
C1213 H1219 0.959 . S
C1213 H1220 0.961 . S
C1213 H1221 0.960 . S
C1214 C1212 1.381 . S
C1214 C1215 1.394 . S
C1214 H1222 0.930 . S
C1215 C1214 1.394 . S
C1215 C1216 1.383 . S
C1215 H1223 0.929 . S
C1216 C1215 1.383 . S
C1216 C1217 1.377 . S
C1217 H1201 0.930 . S
C1217 C1216 1.377 . S
C1217 C1218 1.379 . S
C1218 H1202 0.931 . S
C1218 C1212 1.383 . S
C1218 C1217 1.379 . S
H1219 C1213 0.959 . S
H1220 C1213 0.961 . S
H1221 C1213 0.960 . S
H1222 C1214 0.930 . S
H1223 C1215 0.929 . S
H1224 C1232 0.929 . S
H1225 C1234 0.930 . S
H1226 C1236 0.930 . S
H1227 C1239 0.929 . S
H1228 C1242 0.930 . S
H1229 C1244 0.960 . S
H1230 C1244 0.960 . S
H1231 C1244 0.960 . S
C1232 H1224 0.929 . S
C1232 C1233 1.377 . S
C1232 C1234 1.384 . S
C1233 C1232 1.377 . S
C1233 C1239 1.390 . S
C1234 H1225 0.930 . S
C1234 C1232 1.384 . S
C1234 C1235 1.372 . S
C1235 C1234 1.372 . S
C1235 C1236 1.400 . S
C1235 C1240 1.490 . S
C1236 H1226 0.930 . S
C1236 C1235 1.400 . S
C1236 C1239 1.386 . S
H1237 C1253 0.930 . S
H1238 C1254 0.931 . S
C1239 H1227 0.929 . S
C1239 C1233 1.390 . S
C1239 C1236 1.386 . S
C1240 C1235 1.490 . S
C1240 C1242 1.395 . S
C1240 C1243 1.403 . S
H1241 C1247 0.930 . S
C1242 H1228 0.930 . S
C1242 C1240 1.395 . S
C1242 C1245 1.403 . S
C1243 C1240 1.403 . S
C1243 C1244 1.524 . S
C1243 C1247 1.400 . S
C1244 H1229 0.960 . S
C1244 H1230 0.960 . S
C1244 H1231 0.960 . S
C1244 C1243 1.524 . S
C1245 C1242 1.403 . S
C1245 C1246 1.392 . S
C1245 C1249 1.495 . S
C1246 C1245 1.392 . S
C1246 C1247 1.385 . S
C1246 C1248 1.478 . S
C1247 H1241 0.930 . S
C1247 C1243 1.400 . S
C1247 C1246 1.385 . S
C1248 C1246 1.478 . S
C1248 C1250 1.381 . S
C1248 C1254 1.383 . S
C1249 C1245 1.495 . S
C1249 H1255 0.959 . S
C1249 H1256 0.961 . S
C1249 H1257 0.960 . S
C1250 C1248 1.381 . S
C1250 C1251 1.394 . S
C1250 H1258 0.930 . S
C1251 C1250 1.394 . S
C1251 C1252 1.383 . S
C1251 H1259 0.929 . S
C1252 C1251 1.383 . S
C1252 C1253 1.377 . S
C1253 H1237 0.930 . S
C1253 C1252 1.377 . S
C1253 C1254 1.379 . S
C1254 H1238 0.931 . S
C1254 C1248 1.383 . S
C1254 C1253 1.379 . S
H1255 C1249 0.959 . S
H1256 C1249 0.961 . S
H1257 C1249 0.960 . S
H1258 C1250 0.930 . S
H1259 C1251 0.929 . S
H1260 C1268 0.929 . S
H1261 C1270 0.930 . S
H1262 C1272 0.930 . S
H1263 C1275 0.929 . S
H1264 C1278 0.930 . S
H1265 C1280 0.960 . S
H1266 C1280 0.960 . S
H1267 C1280 0.960 . S
C1268 H1260 0.929 . S
C1268 C1269 1.377 . S
C1268 C1270 1.384 . S
C1269 C1268 1.377 . S
C1269 C1275 1.390 . S
C1270 H1261 0.930 . S
C1270 C1268 1.384 . S
C1270 C1271 1.372 . S
C1271 C1270 1.372 . S
C1271 C1272 1.400 . S
C1271 C1276 1.490 . S
C1272 H1262 0.930 . S
C1272 C1271 1.400 . S
C1272 C1275 1.386 . S
H1273 C1289 0.930 . S
H1274 C1290 0.931 . S
C1275 H1263 0.929 . S
C1275 C1269 1.390 . S
C1275 C1272 1.386 . S
C1276 C1271 1.490 . S
C1276 C1278 1.395 . S
C1276 C1279 1.403 . S
H1277 C1283 0.930 . S
C1278 H1264 0.930 . S
C1278 C1276 1.395 . S
C1278 C1281 1.403 . S
C1279 C1276 1.403 . S
C1279 C1280 1.524 . S
C1279 C1283 1.400 . S
C1280 H1265 0.960 . S
C1280 H1266 0.960 . S
C1280 H1267 0.960 . S
C1280 C1279 1.524 . S
C1281 C1278 1.403 . S
C1281 C1282 1.392 . S
C1281 C1285 1.495 . S
C1282 C1281 1.392 . S
C1282 C1283 1.385 . S
C1282 C1284 1.478 . S
C1283 H1277 0.930 . S
C1283 C1279 1.400 . S
C1283 C1282 1.385 . S
C1284 C1282 1.478 . S
C1284 C1286 1.381 . S
C1284 C1290 1.383 . S
C1285 C1281 1.495 . S
C1285 H1291 0.959 . S
C1285 H1292 0.961 . S
C1285 H1293 0.960 . S
C1286 C1284 1.381 . S
C1286 C1287 1.394 . S
C1286 H1294 0.930 . S
C1287 C1286 1.394 . S
C1287 C1288 1.383 . S
C1287 H1295 0.929 . S
C1288 C1287 1.383 . S
C1288 C1289 1.377 . S
C1289 H1273 0.930 . S
C1289 C1288 1.377 . S
C1289 C1290 1.379 . S
C1290 H1274 0.931 . S
C1290 C1284 1.383 . S
C1290 C1289 1.379 . S
H1291 C1285 0.959 . S
H1292 C1285 0.961 . S
H1293 C1285 0.960 . S
H1294 C1286 0.930 . S
H1295 C1287 0.929 . S
H1296 C1304 0.929 . S
H1297 C1306 0.930 . S
H1298 C1308 0.930 . S
H1299 C1311 0.929 . S
H1300 C1314 0.930 . S
H1301 C1316 0.960 . S
H1302 C1316 0.960 . S
H1303 C1316 0.960 . S
C1304 H1296 0.929 . S
C1304 C1305 1.377 . S
C1304 C1306 1.384 . S
C1305 C1304 1.377 . S
C1305 C1311 1.390 . S
C1306 H1297 0.930 . S
C1306 C1304 1.384 . S
C1306 C1307 1.372 . S
C1307 C1306 1.372 . S
C1307 C1308 1.400 . S
C1307 C1312 1.490 . S
C1308 H1298 0.930 . S
C1308 C1307 1.400 . S
C1308 C1311 1.386 . S
H1309 C1325 0.930 . S
H1310 C1326 0.931 . S
C1311 H1299 0.929 . S
C1311 C1305 1.390 . S
C1311 C1308 1.386 . S
C1312 C1307 1.490 . S
C1312 C1314 1.395 . S
C1312 C1315 1.403 . S
H1313 C1319 0.930 . S
C1314 H1300 0.930 . S
C1314 C1312 1.395 . S
C1314 C1317 1.403 1_455 S
C1315 C1312 1.403 . S
C1315 C1316 1.524 . S
C1315 C1319 1.400 1_455 S
C1316 H1301 0.960 . S
C1316 H1302 0.960 . S
C1316 H1303 0.960 . S
C1316 C1315 1.524 . S
C1317 C1314 1.403 1_655 S
C1317 C1318 1.392 . S
C1317 C1321 1.495 . S
C1318 C1317 1.392 . S
C1318 C1319 1.385 . S
C1318 C1320 1.478 . S
C1319 H1313 0.930 . S
C1319 C1315 1.400 1_655 S
C1319 C1318 1.385 . S
C1320 C1318 1.478 . S
C1320 C1322 1.381 . S
C1320 C1326 1.383 . S
C1321 C1317 1.495 . S
C1321 H1327 0.959 . S
C1321 H1328 0.961 . S
C1321 H1329 0.960 . S
C1322 C1320 1.381 . S
C1322 C1323 1.394 . S
C1322 H1330 0.930 . S
C1323 C1322 1.394 . S
C1323 C1324 1.383 . S
C1323 H1331 0.929 . S
C1324 C1323 1.383 . S
C1324 C1325 1.377 . S
C1325 H1309 0.930 . S
C1325 C1324 1.377 . S
C1325 C1326 1.379 . S
C1326 H1310 0.931 . S
C1326 C1320 1.383 . S
C1326 C1325 1.379 . S
H1327 C1321 0.959 . S
H1328 C1321 0.961 . S
H1329 C1321 0.960 . S
H1330 C1322 0.930 . S
H1331 C1323 0.929 . S
H1332 C1340 0.929 . S
H1333 C1342 0.930 . S
H1334 C1344 0.930 . S
H1335 C1347 0.929 . S
H1336 C1350 0.930 . S
H1337 C1352 0.960 . S
H1338 C1352 0.960 . S
H1339 C1352 0.960 . S
C1340 H1332 0.929 . S
C1340 C1341 1.377 . S
C1340 C1342 1.384 . S
C1341 C1340 1.377 . S
C1341 C1347 1.390 . S
C1342 H1333 0.930 . S
C1342 C1340 1.384 . S
C1342 C1343 1.372 . S
C1343 C1342 1.372 . S
C1343 C1344 1.400 . S
C1343 C1348 1.490 . S
C1344 H1334 0.930 . S
C1344 C1343 1.400 . S
C1344 C1347 1.386 . S
H1345 C1361 0.930 . S
H1346 C1362 0.931 . S
C1347 H1335 0.929 . S
C1347 C1341 1.390 . S
C1347 C1344 1.386 . S
C1348 C1343 1.490 . S
C1348 C1350 1.395 . S
C1348 C1351 1.403 . S
H1349 C1355 0.930 . S
C1350 H1336 0.930 . S
C1350 C1348 1.395 . S
C1350 C1353 1.403 1_545 S
C1351 C1348 1.403 . S
C1351 C1352 1.524 . S
C1351 C1355 1.400 1_545 S
C1352 H1337 0.960 . S
C1352 H1338 0.960 . S
C1352 H1339 0.960 . S
C1352 C1351 1.524 . S
C1353 C1350 1.403 1_565 S
C1353 C1354 1.392 . S
C1353 C1357 1.495 . S
C1354 C1353 1.392 . S
C1354 C1355 1.385 . S
C1354 C1356 1.478 . S
C1355 H1349 0.930 . S
C1355 C1351 1.400 1_565 S
C1355 C1354 1.385 . S
C1356 C1354 1.478 . S
C1356 C1358 1.381 . S
C1356 C1362 1.383 . S
C1357 C1353 1.495 . S
C1357 H1363 0.959 . S
C1357 H1364 0.961 . S
C1357 H1365 0.960 . S
C1358 C1356 1.381 . S
C1358 C1359 1.394 . S
C1358 H1366 0.930 . S
C1359 C1358 1.394 . S
C1359 C1360 1.383 . S
C1359 H1367 0.929 . S
C1360 C1359 1.383 . S
C1360 C1361 1.377 . S
C1361 H1345 0.930 . S
C1361 C1360 1.377 . S
C1361 C1362 1.379 . S
C1362 H1346 0.931 . S
C1362 C1356 1.383 . S
C1362 C1361 1.379 . S
H1363 C1357 0.959 . S
H1364 C1357 0.961 . S
H1365 C1357 0.960 . S
H1366 C1358 0.930 . S
H1367 C1359 0.929 . S
H1368 C1376 0.929 . S
H1369 C1378 0.930 . S
H1370 C1380 0.930 . S
H1371 C1383 0.929 . S
H1372 C1386 0.930 . S
H1373 C1388 0.960 . S
H1374 C1388 0.960 . S
H1375 C1388 0.960 . S
C1376 H1368 0.929 . S
C1376 C1377 1.377 . S
C1376 C1378 1.384 . S
C1377 C1376 1.377 . S
C1377 C1383 1.390 . S
C1378 H1369 0.930 . S
C1378 C1376 1.384 . S
C1378 C1379 1.372 . S
C1379 C1378 1.372 . S
C1379 C1380 1.400 . S
C1379 C1384 1.490 . S
C1380 H1370 0.930 . S
C1380 C1379 1.400 . S
C1380 C1383 1.386 . S
H1381 C1397 0.930 . S
H1382 C1398 0.931 . S
C1383 H1371 0.929 . S
C1383 C1377 1.390 . S
C1383 C1380 1.386 . S
C1384 C1379 1.490 . S
C1384 C1386 1.395 . S
C1384 C1387 1.403 . S
H1385 C1391 0.930 . S
C1386 H1372 0.930 . S
C1386 C1384 1.395 . S
C1386 C1389 1.403 . S
C1387 C1384 1.403 . S
C1387 C1388 1.524 . S
C1387 C1391 1.400 . S
C1388 H1373 0.960 . S
C1388 H1374 0.960 . S
C1388 H1375 0.960 . S
C1388 C1387 1.524 . S
C1389 C1386 1.403 . S
C1389 C1390 1.392 . S
C1389 C1393 1.495 . S
C1390 C1389 1.392 . S
C1390 C1391 1.385 . S
C1390 C1392 1.478 . S
C1391 H1385 0.930 . S
C1391 C1387 1.400 . S
C1391 C1390 1.385 . S
C1392 C1390 1.478 . S
C1392 C1394 1.381 . S
C1392 C1398 1.383 . S
C1393 C1389 1.495 . S
C1393 H1399 0.959 . S
C1393 H1400 0.961 . S
C1393 H1401 0.960 . S
C1394 C1392 1.381 . S
C1394 C1395 1.394 . S
C1394 H1402 0.930 . S
C1395 C1394 1.394 . S
C1395 C1396 1.383 . S
C1395 H1403 0.929 . S
C1396 C1395 1.383 . S
C1396 C1397 1.377 . S
C1397 H1381 0.930 . S
C1397 C1396 1.377 . S
C1397 C1398 1.379 . S
C1398 H1382 0.931 . S
C1398 C1392 1.383 . S
C1398 C1397 1.379 . S
H1399 C1393 0.959 . S
H1400 C1393 0.961 . S
H1401 C1393 0.960 . S
H1402 C1394 0.930 . S
H1403 C1395 0.929 . S
H1404 C1412 0.929 . S
H1405 C1414 0.930 . S
H1406 C1416 0.930 . S
H1407 C1419 0.929 . S
H1408 C1422 0.930 . S
H1409 C1424 0.960 . S
H1410 C1424 0.960 . S
H1411 C1424 0.960 . S
C1412 H1404 0.929 . S
C1412 C1413 1.377 . S
C1412 C1414 1.384 . S
C1413 C1412 1.377 . S
C1413 C1419 1.390 . S
C1414 H1405 0.930 . S
C1414 C1412 1.384 . S
C1414 C1415 1.372 . S
C1415 C1414 1.372 . S
C1415 C1416 1.400 . S
C1415 C1420 1.490 . S
C1416 H1406 0.930 . S
C1416 C1415 1.400 . S
C1416 C1419 1.386 . S
H1417 C1433 0.930 . S
H1418 C1434 0.931 . S
C1419 H1407 0.929 . S
C1419 C1413 1.390 . S
C1419 C1416 1.386 . S
C1420 C1415 1.490 . S
C1420 C1422 1.395 . S
C1420 C1423 1.403 . S
H1421 C1427 0.930 . S
C1422 H1408 0.930 . S
C1422 C1420 1.395 . S
C1422 C1425 1.403 1_455 S
C1423 C1420 1.403 . S
C1423 C1424 1.524 . S
C1423 C1427 1.400 1_455 S
C1424 H1409 0.960 . S
C1424 H1410 0.960 . S
C1424 H1411 0.960 . S
C1424 C1423 1.524 . S
C1425 C1422 1.403 1_655 S
C1425 C1426 1.392 . S
C1425 C1429 1.495 . S
C1426 C1425 1.392 . S
C1426 C1427 1.385 . S
C1426 C1428 1.478 . S
C1427 H1421 0.930 . S
C1427 C1423 1.400 1_655 S
C1427 C1426 1.385 . S
C1428 C1426 1.478 . S
C1428 C1430 1.381 . S
C1428 C1434 1.383 . S
C1429 C1425 1.495 . S
C1429 H1435 0.959 . S
C1429 H1436 0.961 . S
C1429 H1437 0.960 . S
C1430 C1428 1.381 . S
C1430 C1431 1.394 . S
C1430 H1438 0.930 . S
C1431 C1430 1.394 . S
C1431 C1432 1.383 . S
C1431 H1439 0.929 . S
C1432 C1431 1.383 . S
C1432 C1433 1.377 . S
C1433 H1417 0.930 . S
C1433 C1432 1.377 . S
C1433 C1434 1.379 . S
C1434 H1418 0.931 . S
C1434 C1428 1.383 . S
C1434 C1433 1.379 . S
H1435 C1429 0.959 . S
H1436 C1429 0.961 . S
H1437 C1429 0.960 . S
H1438 C1430 0.930 . S
H1439 C1431 0.929 . S
H1440 C1448 0.929 . S
H1441 C1450 0.930 . S
H1442 C1452 0.930 . S
H1443 C1455 0.929 . S
H1444 C1458 0.930 . S
H1445 C1460 0.960 . S
H1446 C1460 0.960 . S
H1447 C1460 0.960 . S
C1448 H1440 0.929 . S
C1448 C1449 1.377 . S
C1448 C1450 1.384 . S
C1449 C1448 1.377 . S
C1449 C1455 1.390 . S
C1450 H1441 0.930 . S
C1450 C1448 1.384 . S
C1450 C1451 1.372 . S
C1451 C1450 1.372 . S
C1451 C1452 1.400 . S
C1451 C1456 1.490 . S
C1452 H1442 0.930 . S
C1452 C1451 1.400 . S
C1452 C1455 1.386 . S
H1453 C1469 0.930 . S
H1454 C1470 0.931 . S
C1455 H1443 0.929 . S
C1455 C1449 1.390 . S
C1455 C1452 1.386 . S
C1456 C1451 1.490 . S
C1456 C1458 1.395 . S
C1456 C1459 1.403 . S
H1457 C1463 0.930 . S
C1458 H1444 0.930 . S
C1458 C1456 1.395 . S
C1458 C1461 1.403 1_565 S
C1459 C1456 1.403 . S
C1459 C1460 1.524 . S
C1459 C1463 1.400 1_565 S
C1460 H1445 0.960 . S
C1460 H1446 0.960 . S
C1460 H1447 0.960 . S
C1460 C1459 1.524 . S
C1461 C1458 1.403 1_545 S
C1461 C1462 1.392 . S
C1461 C1465 1.495 . S
C1462 C1461 1.392 . S
C1462 C1463 1.385 . S
C1462 C1464 1.478 . S
C1463 H1457 0.930 . S
C1463 C1459 1.400 1_545 S
C1463 C1462 1.385 . S
C1464 C1462 1.478 . S
C1464 C1466 1.381 . S
C1464 C1470 1.383 . S
C1465 C1461 1.495 . S
C1465 H1471 0.959 . S
C1465 H1472 0.961 . S
C1465 H1473 0.960 . S
C1466 C1464 1.381 . S
C1466 C1467 1.394 . S
C1466 H1474 0.930 . S
C1467 C1466 1.394 . S
C1467 C1468 1.383 . S
C1467 H1475 0.929 . S
C1468 C1467 1.383 . S
C1468 C1469 1.377 . S
C1469 H1453 0.930 . S
C1469 C1468 1.377 . S
C1469 C1470 1.379 . S
C1470 H1454 0.931 . S
C1470 C1464 1.383 . S
C1470 C1469 1.379 . S
H1471 C1465 0.959 . S
H1472 C1465 0.961 . S
H1473 C1465 0.960 . S
H1474 C1466 0.930 . S
H1475 C1467 0.929 . S
C405 C7 2.315 . S
C424 C205 2.325 . S
C441 C40 2.319 . S
C460 C238 2.305 . S
C477 C73 2.319 . S
C496 C271 2.308 . S
C513 C304 2.315 . S
C532 C106 2.321 . S
C549 C139 2.319 . S
C568 C337 2.303 . S
C585 C370 2.319 . S
C604 C172 2.301 . S
C621 N310 0.931 . S
C640 N112 0.919 . S
C657 N145 0.932 . S
C676 N343 0.933 . S
C693 N376 0.938 . S
C712 N178 0.968 . S
C729 N211 0.941 . S
C748 N13 0.909 . S
C765 N244 0.943 . S
C784 N46 0.915 . S
C801 N79 0.947 . S
C820 N277 0.974 . S
C837 N332 0.734 . S
C856 N2 0.686 . S
C873 N35 0.752 . S
C892 N365 0.793 . S
C909 N68 0.748 . S
C928 N200 0.779 . S
C945 N101 0.736 . S
C964 N233 0.720 . S
C981 N134 0.757 . S
C1000 N266 0.803 . S
C1017 N167 0.732 . S
C1036 N299 0.682 . S
C1053 C117 1.668 . S
C1072 C249 1.674 . S
C1089 C150 1.667 . S
C1108 C282 1.653 . S
C1125 C315 1.667 . S
C1144 C183 1.655 . S
C1161 C18 1.669 . S
C1180 C348 1.673 . S
C1197 C381 1.666 . S
C1216 C51 1.668 . S
C1233 C84 1.669 . S
C1252 C216 1.662 . S
C1269 C21 1.113 . S
C1288 C318 1.136 . S
C1305 C351 1.120 . S
C1324 C54 1.117 . S
C1341 C384 1.121 . S
C1360 C87 1.095 . S
C1377 C219 1.116 . S
C1396 C120 1.132 . S
C1413 C153 1.121 . S
C1432 C252 1.094 . S
C1449 C285 1.116 . S
C1468 C186 1.104 . S
