# Generated by pormake.
# Topology lcs, (4)-cn, num edge types: 1
# Building blocks:
#     Node 0, Type 0, BuildingBlock: ICAMEG_clean_sbu_1, # of connection points: 4
#     Node 1, Type 0, BuildingBlock: ICAMEG_clean_sbu_1, # of connection points: 4
#     Node 2, Type 0, BuildingBlock: ICAMEG_clean_sbu_1, # of connection points: 4
#     Node 3, Type 0, BuildingBlock: ICAMEG_clean_sbu_1, # of connection points: 4
#     Node 4, Type 0, BuildingBlock: ICAMEG_clean_sbu_1, # of connection points: 4
#     Node 5, Type 0, BuildingBlock: ICAMEG_clean_sbu_1, # of connection points: 4
#     Node 6, Type 0, BuildingBlock: ICAMEG_clean_sbu_1, # of connection points: 4
#     Node 7, Type 0, BuildingBlock: ICAMEG_clean_sbu_1, # of connection points: 4
#     Node 8, Type 0, BuildingBlock: ICAMEG_clean_sbu_1, # of connection points: 4
#     Node 9, Type 0, BuildingBlock: ICAMEG_clean_sbu_1, # of connection points: 4
#     Node 10, Type 0, BuildingBlock: ICAMEG_clean_sbu_1, # of connection points: 4
#     Node 11, Type 0, BuildingBlock: ICAMEG_clean_sbu_1, # of connection points: 4
#     Node 12, Type 0, BuildingBlock: ICAMEG_clean_sbu_1, # of connection points: 4
#     Node 13, Type 0, BuildingBlock: ICAMEG_clean_sbu_1, # of connection points: 4
#     Node 14, Type 0, BuildingBlock: ICAMEG_clean_sbu_1, # of connection points: 4
#     Node 15, Type 0, BuildingBlock: ICAMEG_clean_sbu_1, # of connection points: 4
#     Node 16, Type 0, BuildingBlock: ICAMEG_clean_sbu_1, # of connection points: 4
#     Node 17, Type 0, BuildingBlock: ICAMEG_clean_sbu_1, # of connection points: 4
#     Node 18, Type 0, BuildingBlock: ICAMEG_clean_sbu_1, # of connection points: 4
#     Node 19, Type 0, BuildingBlock: ICAMEG_clean_sbu_1, # of connection points: 4
#     Node 20, Type 0, BuildingBlock: ICAMEG_clean_sbu_1, # of connection points: 4
#     Node 21, Type 0, BuildingBlock: ICAMEG_clean_sbu_1, # of connection points: 4
#     Node 22, Type 0, BuildingBlock: ICAMEG_clean_sbu_1, # of connection points: 4
#     Node 23, Type 0, BuildingBlock: ICAMEG_clean_sbu_1, # of connection points: 4
#     Edge 24, Type (0, 0), BuildingBlock: XUDNAN_clean_linker_2, # of connection points: 2
#     Edge 25, Type (0, 0), BuildingBlock: XUDNAN_clean_linker_2, # of connection points: 2
#     Edge 26, Type (0, 0), BuildingBlock: XUDNAN_clean_linker_2, # of connection points: 2
#     Edge 27, Type (0, 0), BuildingBlock: XUDNAN_clean_linker_2, # of connection points: 2
#     Edge 28, Type (0, 0), BuildingBlock: XUDNAN_clean_linker_2, # of connection points: 2
#     Edge 29, Type (0, 0), BuildingBlock: XUDNAN_clean_linker_2, # of connection points: 2
#     Edge 30, Type (0, 0), BuildingBlock: XUDNAN_clean_linker_2, # of connection points: 2
#     Edge 31, Type (0, 0), BuildingBlock: XUDNAN_clean_linker_2, # of connection points: 2
#     Edge 32, Type (0, 0), BuildingBlock: XUDNAN_clean_linker_2, # of connection points: 2
#     Edge 33, Type (0, 0), BuildingBlock: XUDNAN_clean_linker_2, # of connection points: 2
#     Edge 34, Type (0, 0), BuildingBlock: XUDNAN_clean_linker_2, # of connection points: 2
#     Edge 35, Type (0, 0), BuildingBlock: XUDNAN_clean_linker_2, # of connection points: 2
#     Edge 36, Type (0, 0), BuildingBlock: XUDNAN_clean_linker_2, # of connection points: 2
#     Edge 37, Type (0, 0), BuildingBlock: XUDNAN_clean_linker_2, # of connection points: 2
#     Edge 38, Type (0, 0), BuildingBlock: XUDNAN_clean_linker_2, # of connection points: 2
#     Edge 39, Type (0, 0), BuildingBlock: XUDNAN_clean_linker_2, # of connection points: 2
#     Edge 40, Type (0, 0), BuildingBlock: XUDNAN_clean_linker_2, # of connection points: 2
#     Edge 41, Type (0, 0), BuildingBlock: XUDNAN_clean_linker_2, # of connection points: 2
#     Edge 42, Type (0, 0), BuildingBlock: XUDNAN_clean_linker_2, # of connection points: 2
#     Edge 43, Type (0, 0), BuildingBlock: XUDNAN_clean_linker_2, # of connection points: 2
#     Edge 44, Type (0, 0), BuildingBlock: XUDNAN_clean_linker_2, # of connection points: 2
#     Edge 45, Type (0, 0), BuildingBlock: XUDNAN_clean_linker_2, # of connection points: 2
#     Edge 46, Type (0, 0), BuildingBlock: XUDNAN_clean_linker_2, # of connection points: 2
#     Edge 47, Type (0, 0), BuildingBlock: XUDNAN_clean_linker_2, # of connection points: 2
#     Edge 48, Type (0, 0), BuildingBlock: XUDNAN_clean_linker_2, # of connection points: 2
#     Edge 49, Type (0, 0), BuildingBlock: XUDNAN_clean_linker_2, # of connection points: 2
#     Edge 50, Type (0, 0), BuildingBlock: XUDNAN_clean_linker_2, # of connection points: 2
#     Edge 51, Type (0, 0), BuildingBlock: XUDNAN_clean_linker_2, # of connection points: 2
#     Edge 52, Type (0, 0), BuildingBlock: XUDNAN_clean_linker_2, # of connection points: 2
#     Edge 53, Type (0, 0), BuildingBlock: XUDNAN_clean_linker_2, # of connection points: 2
#     Edge 54, Type (0, 0), BuildingBlock: XUDNAN_clean_linker_2, # of connection points: 2
#     Edge 55, Type (0, 0), BuildingBlock: XUDNAN_clean_linker_2, # of connection points: 2
#     Edge 56, Type (0, 0), BuildingBlock: XUDNAN_clean_linker_2, # of connection points: 2
#     Edge 57, Type (0, 0), BuildingBlock: XUDNAN_clean_linker_2, # of connection points: 2
#     Edge 58, Type (0, 0), BuildingBlock: XUDNAN_clean_linker_2, # of connection points: 2
#     Edge 59, Type (0, 0), BuildingBlock: XUDNAN_clean_linker_2, # of connection points: 2
#     Edge 60, Type (0, 0), BuildingBlock: XUDNAN_clean_linker_2, # of connection points: 2
#     Edge 61, Type (0, 0), BuildingBlock: XUDNAN_clean_linker_2, # of connection points: 2
#     Edge 62, Type (0, 0), BuildingBlock: XUDNAN_clean_linker_2, # of connection points: 2
#     Edge 63, Type (0, 0), BuildingBlock: XUDNAN_clean_linker_2, # of connection points: 2
#     Edge 64, Type (0, 0), BuildingBlock: XUDNAN_clean_linker_2, # of connection points: 2
#     Edge 65, Type (0, 0), BuildingBlock: XUDNAN_clean_linker_2, # of connection points: 2
#     Edge 66, Type (0, 0), BuildingBlock: XUDNAN_clean_linker_2, # of connection points: 2
#     Edge 67, Type (0, 0), BuildingBlock: XUDNAN_clean_linker_2, # of connection points: 2
#     Edge 68, Type (0, 0), BuildingBlock: XUDNAN_clean_linker_2, # of connection points: 2
#     Edge 69, Type (0, 0), BuildingBlock: XUDNAN_clean_linker_2, # of connection points: 2
#     Edge 70, Type (0, 0), BuildingBlock: XUDNAN_clean_linker_2, # of connection points: 2
#     Edge 71, Type (0, 0), BuildingBlock: XUDNAN_clean_linker_2, # of connection points: 2
# Relax obj value: 0.037
# Max RMSD: 0.108
# Mean RMSD: 0.107
data_MOF--net-lcs--node1-ICAMEG_clean_sbu_1--edge1-XUDNAN_clean_linker_2
_symmetry_space_group_name_H-M    P1
_symmetry_Int_Tables_number       1
_symmetry_cell_setting            triclinic
loop_
_symmetry_equiv_pos_as_xyz
'x, y, z'
_cell_length_a     51.746185
_cell_length_b     51.866926
_cell_length_c     51.948735
_cell_angle_alpha  93.390523
_cell_angle_beta   93.494863
_cell_angle_gamma 93.384165
loop_
_atom_site_label
_atom_site_type_symbol
_atom_site_fract_x
_atom_site_fract_y
_atom_site_fract_z
_atom_type_partial_charge
Co0 Co 0.01315 0.25005 0.42865 0.0
Co1 Co 0.04853 0.26751 0.37853 0.0
O2 O 0.02582 0.27656 0.40617 0.0
C3 C 0.96517 0.27732 0.41548 0.0
O4 O 0.9697 0.27438 0.39091 0.0
C5 C 0.06672 0.32237 0.39814 0.0
O6 O 0.05524 0.31965 0.41972 0.0
O7 O 0.0741 0.25493 0.40485 0.0
O8 O 0.04583 0.23114 0.42615 0.0
H9 H 0.10644 0.20902 0.33147 0.0
H10 H 1.01252 0.30514 0.44748 0.0
O11 O 0.98037 0.26841 0.4325 0.0
H12 H 0.06881 0.26511 0.51182 0.0
H13 H 0.96758 0.21805 0.50469 0.0
H14 H 0.01311 0.1928 0.42732 0.0
H15 H 0.04793 0.23902 0.47422 0.0
H16 H 0.98474 0.25118 0.477 0.0
O17 O 0.06682 0.30327 0.38153 0.0
H18 H 0.07722 0.22125 0.36529 0.0
H19 H 0.06899 0.29431 0.33382 0.0
H20 H 0.99638 0.15906 0.45456 0.0
H21 H 0.03263 0.33185 0.48508 0.0
H22 H 0.97344 0.17161 0.49358 0.0
H23 H 0.06113 0.31187 0.51751 0.0
O24 O 0.99706 0.22883 0.39784 0.0
H25 H 0.98463 0.32904 0.34522 0.0
H26 H 0.02508 0.24685 0.32683 0.0
H27 H 0.99231 0.26129 0.29538 0.0
H28 H 0.97189 0.30275 0.30442 0.0
H29 H 0.01716 0.31366 0.37631 0.0
H30 H 0.09834 0.28298 0.29987 0.0
H31 H 0.11719 0.24 0.29845 0.0
O32 O 0.03082 0.23174 0.37301 0.0
C33 C 0.06891 0.23728 0.42027 0.0
C34 C 0.09832 0.22779 0.33186 0.0
C35 C 0.09381 0.26931 0.31415 0.0
N36 N 0.07134 0.25843 0.35153 0.0
C37 C 0.08173 0.23481 0.35095 0.0
C38 C 0.07728 0.27566 0.3335 0.0
C39 C 0.10436 0.24519 0.31335 0.0
C40 C 0.02472 0.29625 0.46161 0.0
N41 N 0.02912 0.27057 0.45855 0.0
C42 C 0.03613 0.31149 0.48282 0.0
C43 C 0.05214 0.30028 0.50099 0.0
C44 C 0.05648 0.27406 0.4978 0.0
C45 C 0.0447 0.25941 0.47637 0.0
C46 C 0.97758 0.21234 0.48777 0.0
C47 C 1.00325 0.19844 0.44432 0.0
C48 C 0.9873 0.23101 0.47197 0.0
N49 N 1.00005 0.22395 0.45063 0.0
C50 C 0.99377 0.17923 0.45965 0.0
C51 C 0.98088 0.18629 0.48152 0.0
C52 C 1.00907 0.22102 0.3784 0.0
C53 C 0.99348 0.31101 0.34099 0.0
C54 C 0.01625 0.26483 0.331 0.0
C55 C 0.99773 0.27296 0.31305 0.0
C56 C 0.9863 0.29623 0.31813 0.0
N57 N 0.0233 0.27947 0.35335 0.0
C58 C 1.01207 0.30226 0.35848 0.0
Co59 Co 0.02701 0.77008 0.60066 0.0
Co60 Co 0.04083 0.75665 0.66377 0.0
O61 O 0.01663 0.75813 0.63368 0.0
C62 C 0.98262 0.80068 0.61386 0.0
O63 O 0.99429 0.80458 0.637 0.0
C64 C 0.01651 0.70186 0.6636 0.0
O65 O 0.02857 0.69451 0.64316 0.0
O66 O 0.06365 0.73524 0.64278 0.0
O67 O 0.06096 0.75276 0.60419 0.0
H68 H 0.12877 0.76105 0.71098 0.0
H69 H 0.97633 0.74105 0.60357 0.0
O70 O 0.99317 0.7875 0.59628 0.0
H71 H 0.02324 0.6899 0.54064 0.0
H72 H 1.0114 0.79028 0.5076 0.0
H73 H 0.07577 0.79268 0.58187 0.0
H74 H 0.04323 0.73081 0.56152 0.0
H75 H 0.99916 0.77433 0.54928 0.0
O76 O 0.02007 0.72498 0.67357 0.0
H77 H 0.09789 0.76395 0.67332 0.0
H78 H 0.03487 0.74365 0.71839 0.0
H79 H 0.08894 0.80856 0.54048 0.0
H80 H 0.95553 0.70031 0.58302 0.0
H81 H 0.05662 0.80743 0.50299 0.0
H82 H 0.97905 0.67442 0.55132 0.0
O83 O 0.04353 0.80245 0.61824 0.0
H84 H 0.95557 0.7824 0.69552 0.0
H85 H 0.05 0.8033 0.70048 0.0
H86 H 0.02207 0.83079 0.72554 0.0
H87 H 0.97448 0.82034 0.72325 0.0
H88 H 0.98417 0.75576 0.67032 0.0
H89 H 0.06509 0.74028 0.75647 0.0
H90 H 0.1124 0.74914 0.75293 0.0
O91 O 0.06113 0.78922 0.65537 0.0
C92 C 0.07152 0.73803 0.62017 0.0
C93 C 0.1082 0.75722 0.71279 0.0
C94 C 0.07245 0.74552 0.73831 0.0
N95 N 0.06461 0.75417 0.69371 0.0
C96 C 0.09062 0.75889 0.69155 0.0
C97 C 0.05545 0.74739 0.71666 0.0
C98 C 0.099 0.75051 0.73631 0.0
C99 C 0.9866 0.72998 0.58966 0.0
N100 N 1.01087 0.73838 0.58363 0.0
C101 C 0.97476 0.70689 0.57814 0.0
C102 C 0.98798 0.69236 0.56038 0.0
C103 C 1.01277 0.70102 0.55438 0.0
C104 C 0.02401 0.72419 0.5663 0.0
C105 C 0.02567 0.79082 0.52378 0.0
C106 C 0.06166 0.79196 0.56558 0.0
C107 C 0.01883 0.78187 0.54743 0.0
N108 N 0.0368 0.78237 0.56789 0.0
C109 C 0.0692 0.80105 0.54222 0.0
C110 C 0.05105 0.80043 0.5212 0.0
C111 C 0.05807 0.80643 0.63898 0.0
C112 C 0.97629 0.78711 0.69675 0.0
C113 C 0.02931 0.79873 0.69918 0.0
C114 C 0.01359 0.81431 0.71353 0.0
C115 C 0.9869 0.80842 0.71226 0.0
N116 N 0.01877 0.77787 0.68398 0.0
C117 C 0.99261 0.77198 0.68265 0.0
Co118 Co 0.51045 0.74492 0.93025 0.0
Co119 Co 0.53042 0.75378 0.87006 0.0
O120 O 0.5175 0.76783 0.90243 0.0
C121 C 0.4635 0.77647 0.92901 0.0
O122 O 0.46037 0.77229 0.9038 0.0
C123 C 0.55557 0.80859 0.87922 0.0
O124 O 0.54802 0.81053 0.90285 0.0
O125 O 0.56084 0.74108 0.89018 0.0
O126 O 0.53885 0.7221 0.92052 0.0
H127 H 0.56752 0.68491 0.81382 0.0
H128 H 0.51927 0.80115 0.94407 0.0
O129 O 0.48222 0.76702 0.9416 0.0
H130 H 0.58685 0.76005 0.99545 0.0
H131 H 0.48793 0.72428 0.02006 0.0
H132 H 0.50567 0.68796 0.9335 0.0
H133 H 0.55488 0.73354 0.96655 0.0
H134 H 0.49832 0.75306 0.98551 0.0
O135 O 0.55093 0.78751 0.86523 0.0
H136 H 0.55049 0.70346 0.85369 0.0
H137 H 0.53928 0.77414 0.81843 0.0
H138 H 0.49556 0.65848 0.96755 0.0
H139 H 0.55078 0.82841 0.97293 0.0
H140 H 0.4866 0.67661 0.01121 0.0
H141 H 0.58497 0.80786 0.99878 0.0
O142 O 0.48527 0.72361 0.90623 0.0
H143 H 0.46498 0.81846 0.84809 0.0
H144 H 0.49291 0.73072 0.8278 0.0
H145 H 0.4545 0.74555 0.80399 0.0
H146 H 0.44034 0.78976 0.81398 0.0
H147 H 0.50304 0.80276 0.87166 0.0
H148 H 0.55651 0.75646 0.7783 0.0
H149 H 0.57064 0.71149 0.77576 0.0
O150 O 0.50991 0.71958 0.87247 0.0
C151 C 0.55935 0.72576 0.90845 0.0
C152 C 0.56139 0.70452 0.81467 0.0
C153 C 0.55524 0.74469 0.79475 0.0
N154 N 0.5438 0.73981 0.83838 0.0
C155 C 0.55168 0.71511 0.83718 0.0
C156 C 0.5456 0.75463 0.81757 0.0
C157 C 0.56315 0.71944 0.79333 0.0
C158 C 0.53403 0.79207 0.95532 0.0
N159 N 0.53533 0.76581 0.95342 0.0
C160 C 0.55185 0.80761 0.9716 0.0
C161 C 0.57104 0.79607 0.98608 0.0
C162 C 0.57214 0.76925 0.98418 0.0
C163 C 0.55403 0.75434 0.96768 0.0
C164 C 0.49181 0.71614 1.00112 0.0
C165 C 0.50189 0.69601 0.95247 0.0
C166 C 0.49763 0.73235 0.98145 0.0
N167 N 0.50269 0.72221 0.95752 0.0
C168 C 0.49613 0.67922 0.97166 0.0
C169 C 0.49108 0.6894 0.99615 0.0
C170 C 0.49019 0.71253 0.88466 0.0
C171 C 0.47107 0.79922 0.84341 0.0
C172 C 0.48694 0.75001 0.83229 0.0
C173 C 0.46515 0.75829 0.81871 0.0
C174 C 0.45722 0.7831 0.82432 0.0
N175 N 0.50059 0.76601 0.85086 0.0
C176 C 0.49278 0.79028 0.85659 0.0
Co177 Co 0.52093 0.28045 0.10185 0.0
Co178 Co 0.54708 0.26363 0.16004 0.0
O179 O 0.51734 0.26503 0.13496 0.0
C180 C 0.47448 0.30422 0.12213 0.0
O181 O 0.48692 0.30681 0.14498 0.0
C182 C 0.52063 0.2102 0.159 0.0
O183 O 0.52141 0.20745 0.13377 0.0
O184 O 0.56666 0.24472 0.13347 0.0
O185 O 0.55668 0.26747 0.09927 0.0
H186 H 0.6415 0.27184 0.19007 0.0
H187 H 0.47505 0.24538 0.10879 0.0
O188 O 0.48513 0.29384 0.10294 0.0
H189 H 0.5179 0.20507 0.03575 0.0
H190 H 0.48998 0.30493 0.01332 0.0
H191 H 0.56313 0.31093 0.07927 0.0
H192 H 0.53578 0.24647 0.05737 0.0
H193 H 0.4859 0.28432 0.05459 0.0
O194 O 0.53132 0.2303 0.17152 0.0
H195 H 0.60386 0.27448 0.15906 0.0
H196 H 0.55304 0.24761 0.21427 0.0
H197 H 0.56815 0.33162 0.03816 0.0
H198 H 0.45637 0.20403 0.0876 0.0
H199 H 0.53139 0.32869 1.00484 0.0
H200 H 0.47788 0.18359 0.05083 0.0
O201 O 0.53575 0.31308 0.12028 0.0
H202 H 0.46854 0.28204 0.20888 0.0
H203 H 0.56024 0.30831 0.19857 0.0
H204 H 0.53616 0.33245 0.23051 0.0
H205 H 0.48996 0.31927 0.23595 0.0
H206 H 0.49322 0.25881 0.17673 0.0
H207 H 0.59016 0.24447 0.2458 0.0
H208 H 0.63476 0.25676 0.2338 0.0
O209 O 0.56292 0.29798 0.15028 0.0
C210 C 0.57069 0.25155 0.11075 0.0
C211 C 0.62215 0.26651 0.19555 0.0
C212 C 0.59334 0.25111 0.22681 0.0
N213 N 0.57627 0.26138 0.1849 0.0
C214 C 0.60076 0.26802 0.17809 0.0
C215 C 0.57241 0.25285 0.20885 0.0
C216 C 0.61836 0.25802 0.22008 0.0
C217 C 0.48436 0.2367 0.09265 0.0
N218 N 0.50637 0.24838 0.08424 0.0
C219 C 0.47376 0.21325 0.08079 0.0
C220 C 0.48587 0.20177 0.06019 0.0
C221 C 0.50833 0.2138 0.05173 0.0
C222 C 0.51839 0.23722 0.06408 0.0
C223 C 0.50616 0.30628 0.02765 0.0
C224 C 0.54713 0.30942 0.06478 0.0
C225 C 0.50395 0.29469 0.05107 0.0
N226 N 0.52436 0.29622 0.06921 0.0
C227 C 0.55005 0.32124 0.04158 0.0
C228 C 0.5294 0.31961 0.02291 0.0
C229 C 0.55417 0.31652 0.13784 0.0
C230 C 0.48867 0.28794 0.20674 0.0
C231 C 0.5401 0.30263 0.20057 0.0
C232 C 0.52658 0.31628 0.21882 0.0
C233 C 0.50069 0.30886 0.22188 0.0
N234 N 0.52818 0.28217 0.18572 0.0
C235 C 0.5028 0.27477 0.18865 0.0
Co236 Co 0.01982 0.74728 0.12363 0.0
Co237 Co 1.00151 0.75764 0.1859 0.0
O238 O 0.01532 0.76998 0.1543 0.0
C239 C 0.07486 0.7642 0.11398 0.0
O240 O 0.08148 0.74025 0.11543 0.0
C241 C 0.97855 0.80942 0.17721 0.0
O242 O 0.99095 0.81145 0.15614 0.0
O243 O 0.97101 0.74078 0.1653 0.0
O244 O 0.98729 0.72517 0.12887 0.0
H245 H 0.9614 0.69026 0.23937 0.0
H246 H 0.02034 0.80393 0.11689 0.0
O247 O 0.05165 0.76987 0.11765 0.0
H248 H 0.94796 0.76517 0.05842 0.0
H249 H 0.04221 0.72809 0.03168 0.0
H250 H 0.01653 0.69058 0.11207 0.0
H251 H 0.97482 0.7377 0.08467 0.0
H252 H 0.03505 0.75633 0.07015 0.0
O253 O 0.98101 0.78981 0.19083 0.0
H254 H 0.97977 0.7068 0.20037 0.0
H255 H 0.99214 0.78196 0.23776 0.0
H256 H 0.02336 0.66161 0.07401 0.0
H257 H 0.99432 0.83209 0.09053 0.0
H258 H 0.0363 0.68036 0.03345 0.0
H259 H 0.95768 0.81277 0.06115 0.0
O260 O 0.04093 0.72476 0.1452 0.0
H261 H 0.06905 0.8301 0.21176 0.0
H262 H 0.03765 0.74126 0.22775 0.0
H263 H 0.07616 0.76137 0.25309 0.0
H264 H 0.09205 0.80618 0.24529 0.0
H265 H 0.03088 0.8092 0.18669 0.0
H266 H 0.97363 0.76631 0.27707 0.0
H267 H 0.95824 0.72012 0.27807 0.0
O268 O 0.02102 0.72498 0.18242 0.0
C269 C 0.96879 0.72704 0.14401 0.0
C270 C 0.96813 0.71041 0.2392 0.0
C271 C 0.97495 0.7531 0.26035 0.0
N272 N 0.98723 0.74524 0.21689 0.0
C273 C 0.97862 0.71986 0.21721 0.0
C274 C 0.98534 0.76187 0.23802 0.0
C275 C 0.96633 0.72718 0.2609 0.0
C276 C 1.00458 0.79531 0.10404 0.0
N277 N 0.99896 0.76917 0.10267 0.0
C278 C 0.98984 0.81139 0.08921 0.0
C279 C 0.96927 0.80054 0.07276 0.0
C280 C 0.96377 0.77386 0.07126 0.0
C281 C 0.97893 0.7584 0.08639 0.0
C282 C 0.03654 0.71969 0.04923 0.0
C283 C 0.02208 0.69887 0.09445 0.0
C284 C 0.03249 0.73558 0.07108 0.0
N285 N 0.02529 0.7251 0.09329 0.0
C286 C 0.02595 0.68238 0.07298 0.0
C287 C 0.03322 0.69291 0.05023 0.0
C288 C 0.03724 0.71584 0.16718 0.0
C289 C 0.06218 0.81065 0.21551 0.0
C290 C 0.04435 0.7608 0.22423 0.0
C291 C 0.06621 0.77207 0.23866 0.0
C292 C 0.07511 0.7972 0.23428 0.0
N293 N 0.03153 0.77421 0.20605 0.0
C294 C 0.04038 0.79874 0.20145 0.0
Co295 Co 0.52888 0.75397 0.41371 0.0
Co296 Co 0.5256 0.78681 0.35818 0.0
O297 O 0.50986 0.77365 0.38844 0.0
C298 C 0.47329 0.73082 0.40821 0.0
O299 O 0.46783 0.74602 0.38966 0.0
C300 C 0.51071 0.84105 0.35875 0.0
O301 O 0.53556 0.84781 0.35853 0.0
O302 O 0.55316 0.80579 0.38145 0.0
O303 O 0.56165 0.77671 0.41072 0.0
H304 H 0.60045 0.81025 0.30505 0.0
H305 H 0.48073 0.78032 0.42654 0.0
O306 O 0.49642 0.73085 0.4185 0.0
H307 H 0.54742 0.81243 0.4944 0.0
H308 H 0.54054 0.70591 0.49472 0.0
H309 H 0.58112 0.73346 0.41654 0.0
H310 H 0.55789 0.78116 0.45968 0.0
H311 H 0.51687 0.73161 0.46368 0.0
O312 O 0.50337 0.81734 0.36056 0.0
H313 H 0.57951 0.79308 0.34241 0.0
H314 H 0.50554 0.80975 0.3098 0.0
H315 H 0.60557 0.70798 0.44718 0.0
H316 H 0.46936 0.81116 0.46109 0.0
H317 H 0.58527 0.69402 0.48661 0.0
H318 H 0.50281 0.82754 0.49541 0.0
O319 O 0.53879 0.72918 0.38539 0.0
H320 H 0.43306 0.75964 0.32872 0.0
H321 H 0.52465 0.75028 0.31122 0.0
H322 H 0.4904 0.72589 0.28326 0.0
H323 H 0.44416 0.73055 0.29185 0.0
H324 H 0.46798 0.78324 0.35655 0.0
H325 H 0.52568 0.82715 0.27213 0.0
H326 H 0.57348 0.82747 0.26957 0.0
O327 O 0.54774 0.75654 0.35489 0.0
C328 C 0.56713 0.79789 0.40015 0.0
C329 C 0.5796 0.8102 0.30593 0.0
C330 C 0.53764 0.81967 0.28744 0.0
N331 N 0.54133 0.80034 0.32829 0.0
C332 C 0.56764 0.80049 0.32703 0.0
C333 C 0.52635 0.80976 0.30881 0.0
C334 C 0.56446 0.81985 0.28603 0.0
C335 C 0.49533 0.7868 0.44154 0.0
N336 N 0.51979 0.77824 0.44129 0.0
C337 C 0.4888 0.80453 0.46102 0.0
C338 C 0.50758 0.81376 0.48023 0.0
C339 C 0.5326 0.80529 0.47968 0.0
C340 C 0.5384 0.78753 0.45993 0.0
C341 C 0.54961 0.71189 0.47762 0.0
C342 C 0.57221 0.72758 0.43372 0.0
C343 C 0.53626 0.72637 0.45993 0.0
N344 N 0.54766 0.73415 0.43838 0.0
C345 C 0.58612 0.7131 0.45097 0.0
C346 C 0.57471 0.70525 0.47307 0.0
C347 C 0.54889 0.73444 0.36432 0.0
C348 C 0.45314 0.75736 0.32482 0.0
C349 C 0.50467 0.75203 0.31547 0.0
C350 C 0.48531 0.73835 0.29938 0.0
C351 C 0.45937 0.74102 0.30417 0.0
N352 N 0.49845 0.76787 0.33586 0.0
C353 C 0.47303 0.77074 0.3405 0.0
Co354 Co 0.53847 0.24666 0.61885 0.0
Co355 Co 0.51011 0.25507 0.67651 0.0
O356 O 0.52864 0.26904 0.64794 0.0
C357 C 0.58421 0.28498 0.63162 0.0
O358 O 0.57797 0.28731 0.65568 0.0
C359 C 0.48095 0.29971 0.6605 0.0
O360 O 0.48241 0.29047 0.6366 0.0
O361 O 0.48232 0.23866 0.65157 0.0
O362 O 0.50627 0.22315 0.62039 0.0
H363 H 0.46213 0.1859 0.72178 0.0
H364 H 0.53645 0.303 0.61252 0.0
O365 O 0.57098 0.26939 0.6153 0.0
H366 H 0.47456 0.26096 0.54473 0.0
H367 H 0.57434 0.22736 0.53227 0.0
H368 H 0.53848 0.18986 0.60856 0.0
H369 H 0.4994 0.23476 0.57432 0.0
H370 H 0.56083 0.25563 0.56819 0.0
O371 O 0.49032 0.2875 0.67916 0.0
H372 H 0.48616 0.20366 0.68654 0.0
H373 H 0.49338 0.27786 0.72643 0.0
H374 H 0.55153 0.16088 0.57295 0.0
H375 H 0.51232 0.32991 0.58306 0.0
H376 H 0.56962 0.17961 0.53445 0.0
H377 H 0.48101 0.3089 0.54893 0.0
O378 O 0.55767 0.22571 0.64346 0.0
H379 H 0.56974 0.32907 0.71548 0.0
H380 H 0.54219 0.23702 0.7209 0.0
H381 H 0.57653 0.25732 0.75177 0.0
H382 H 0.59046 0.30371 0.74926 0.0
H383 H 0.53579 0.30788 0.68466 0.0
H384 H 0.4692 0.26098 0.76199 0.0
H385 H 0.4535 0.21466 0.75984 0.0
O386 O 0.53 0.22232 0.67496 0.0
C387 C 0.48482 0.22434 0.63122 0.0
C388 C 0.46894 0.2061 0.72298 0.0
C389 C 0.47288 0.24825 0.74553 0.0
N390 N 0.49134 0.24169 0.70454 0.0
C391 C 0.48262 0.21624 0.70312 0.0
C392 C 0.48651 0.25771 0.72531 0.0
C393 C 0.46409 0.22226 0.74432 0.0
C394 C 0.52317 0.29368 0.59749 0.0
N395 N 0.51949 0.26732 0.59508 0.0
C396 C 0.50943 0.30904 0.58096 0.0
C397 C 0.49182 0.29724 0.56185 0.0
C398 C 0.48817 0.27035 0.5595 0.0
C399 C 0.50224 0.25561 0.57638 0.0
C400 C 0.56643 0.21896 0.54891 0.0
C401 C 0.54618 0.19816 0.5918 0.0
C402 C 0.55879 0.23487 0.56935 0.0
N403 N 0.54867 0.2244 0.59038 0.0
C404 C 0.5536 0.18165 0.57173 0.0
C405 C 0.56377 0.19218 0.55015 0.0
C406 C 0.54991 0.21519 0.66348 0.0
C407 C 0.56382 0.30885 0.71679 0.0
C408 C 0.54833 0.25713 0.71945 0.0
C409 C 0.56769 0.26856 0.7371 0.0
C410 C 0.57547 0.2946 0.73571 0.0
N411 N 0.53704 0.27122 0.70089 0.0
C412 C 0.5445 0.29677 0.69947 0.0
Co413 Co 0.02886 0.24481 0.91003 0.0
Co414 Co 0.02474 0.27804 0.85459 0.0
O415 O 1.00896 0.26431 0.88487 0.0
C416 C 0.9767 0.21496 0.90105 0.0
O417 O 0.97527 0.22077 0.8768 0.0
C418 C 0.98878 0.31941 0.87169 0.0
O419 O 0.98259 0.30753 0.89226 0.0
O420 O 0.05275 0.29654 0.87761 0.0
O421 O 0.0615 0.26735 0.90653 0.0
H422 H 0.09973 0.29935 0.80088 0.0
H423 H 0.97979 0.26682 0.92477 0.0
O424 O 0.99686 0.22214 0.91567 0.0
H425 H 0.04701 0.30591 0.98903 0.0
H426 H 0.04251 0.19865 0.99199 0.0
H427 H 0.08095 0.22394 0.91194 0.0
H428 H 0.05825 0.27456 0.95467 0.0
H429 H 0.01813 0.22368 0.96089 0.0
O430 O 1.00469 0.31002 0.85647 0.0
H431 H 0.07843 0.28145 0.83771 0.0
H432 H 1.00562 0.30476 0.80824 0.0
H433 H 0.1061 0.1991 0.94262 0.0
H434 H 0.96757 0.29776 0.9591 0.0
H435 H 0.08688 0.18629 0.98299 0.0
H436 H 1.00133 0.31766 0.99148 0.0
O437 O 0.03838 0.21987 0.88168 0.0
H438 H 0.93183 0.24939 0.82766 0.0
H439 H 0.02269 0.24514 0.80526 0.0
H440 H 0.98802 0.2218 0.77694 0.0
H441 H 0.94213 0.22395 0.78798 0.0
H442 H 0.96715 0.27189 0.85568 0.0
H443 H 0.0262 0.32321 0.77133 0.0
H444 H 0.07357 0.32045 0.76738 0.0
O445 O 0.04565 0.24699 0.85057 0.0
C446 C 0.06687 0.28857 0.89611 0.0
C447 C 0.07906 0.30058 0.80233 0.0
C448 C 0.0378 0.314 0.78576 0.0
N449 N 0.04078 0.29183 0.82504 0.0
C450 C 0.06688 0.2904 0.82309 0.0
C451 C 0.02627 0.30356 0.80676 0.0
C452 C 0.06438 0.31244 0.78356 0.0
C453 C 0.99457 0.27524 0.93886 0.0
N454 N 0.01975 0.26899 0.93754 0.0
C455 C 0.98754 0.29282 0.95823 0.0
C456 C 1.0065 0.304 0.97638 0.0
C457 C 0.03213 0.29745 0.97499 0.0
C458 C 0.03842 0.2798 0.95536 0.0
C459 C 0.05111 0.20414 0.97448 0.0
C460 C 0.0725 0.21853 0.92951 0.0
C461 C 0.03736 0.21824 0.95674 0.0
N462 N 0.04815 0.22536 0.93466 0.0
C463 C 0.08681 0.20442 0.94679 0.0
C464 C 0.07601 0.19722 0.96942 0.0
C465 C 0.0473 0.22497 0.86003 0.0
C466 C 0.95173 0.2484 0.82256 0.0
C467 C 1.00286 0.24598 0.81039 0.0
C468 C 0.98326 0.23283 0.79417 0.0
C469 C 0.95752 0.23408 0.80034 0.0
N470 N 0.99707 0.26006 0.83214 0.0
C471 C 0.97186 0.26132 0.83829 0.0
Co472 Co 0.3701 0.04768 0.2579 0.0
Co473 Co 0.4241 0.01716 0.24234 0.0
O474 O 0.39908 0.02696 0.26777 0.0
C475 C 0.38436 0.06439 0.31457 0.0
O476 O 0.40208 0.04746 0.31683 0.0
C477 C 0.41258 0.96863 0.26868 0.0
O478 O 0.38769 0.97164 0.26453 0.0
O479 O 0.39527 0.99944 0.21928 0.0
O480 O 0.36713 0.03044 0.22209 0.0
H481 H 0.45648 1.00583 0.15339 0.0
H482 H 0.36757 0.01386 0.30263 0.0
O483 O 0.37129 0.06624 0.29322 0.0
H484 H 0.2891 0.98824 0.24646 0.0
H485 H 0.28772 0.09289 0.27016 0.0
H486 H 0.35711 0.0761 0.21152 0.0
H487 H 0.32004 0.02272 0.23461 0.0
H488 H 0.32307 0.0654 0.2828 0.0
O489 O 0.42923 0.98452 0.26024 0.0
H490 H 0.42589 0.01906 0.18555 0.0
H491 H 0.47462 0.9922 0.24573 0.0
H492 H 0.32198 0.1035 0.19801 0.0
H493 H 0.33696 0.97974 0.31547 0.0
H494 H 0.28696 0.11204 0.22743 0.0
H495 H 0.29735 0.96656 0.28727 0.0
O496 O 0.39544 0.07468 0.24761 0.0
H497 H 0.47426 0.03909 0.32751 0.0
H498 H 0.46887 0.05448 0.23463 0.0
H499 H 0.50378 0.07717 0.26322 0.0
H500 H 0.5067 0.06949 0.31003 0.0
H501 H 0.43944 0.01703 0.29828 0.0
H502 H 0.50562 0.97845 0.2142 0.0
H503 H 0.49669 0.98537 0.16767 0.0
O504 O 0.42059 0.05026 0.22406 0.0
C505 C 0.37463 1.00961 0.21136 0.0
C506 C 0.46063 1.00279 0.17362 0.0
C507 C 0.48819 0.98739 0.20774 0.0
N508 N 0.44855 1.00659 0.21751 0.0
C509 C 0.44341 1.0103 0.19193 0.0
C510 C 0.47053 0.99515 0.2255 0.0
C511 C 0.48317 0.99128 0.18164 0.0
C512 C 0.35022 1.00884 0.29051 0.0
N513 N 0.34548 0.0209 0.26818 0.0
C514 C 0.333 0.98922 0.29777 0.0
C515 C 0.31082 0.98178 0.28191 0.0
C516 C 0.3062 0.99392 0.25903 0.0
C517 C 0.32385 0.01346 0.25241 0.0
C518 C 0.30285 0.08927 0.25715 0.0
C519 C 0.34185 0.07961 0.22436 0.0
C520 C 0.32296 0.07378 0.26422 0.0
N521 N 0.34203 0.06897 0.24781 0.0
C522 C 0.32205 0.09519 0.21664 0.0
C523 C 0.30242 0.1 0.23317 0.0
C524 C 0.41312 0.07229 0.23177 0.0
C525 C 0.47318 0.04263 0.30716 0.0
C526 C 0.46982 0.05119 0.25501 0.0
C527 C 0.48973 0.06402 0.27109 0.0
C528 C 0.49137 0.05968 0.29734 0.0
N529 N 0.45198 0.03455 0.2648 0.0
C530 C 0.45352 0.03017 0.2905 0.0
Co531 Co 0.26351 0.16701 0.54097 0.0
Co532 Co 0.28378 0.10846 0.51794 0.0
O533 O 0.26696 0.14064 0.5129 0.0
C534 C 0.21049 0.15676 0.51608 0.0
O535 O 0.21372 0.13217 0.51901 0.0
C536 C 0.31013 0.12909 0.47351 0.0
O537 O 0.31143 0.1521 0.48567 0.0
O538 O 0.3151 0.12824 0.53409 0.0
O539 O 0.29941 0.16145 0.55675 0.0
H540 H 0.33656 0.04791 0.56815 0.0
H541 H 0.25473 0.17998 0.48632 0.0
O542 O 0.2281 0.17371 0.52505 0.0
H543 H 0.32599 0.24101 0.52312 0.0
H544 H 0.23644 0.25247 0.57789 0.0
H545 H 0.27616 0.17117 0.59751 0.0
H546 H 0.30564 0.209 0.55007 0.0
H547 H 0.2419 0.21909 0.54314 0.0
O548 O 0.29894 0.10984 0.48334 0.0
H549 H 0.31418 0.08792 0.56151 0.0
H550 H 0.29075 0.06101 0.48434 0.0
H551 H 0.2713 0.20413 0.63282 0.0
H552 H 0.27431 0.21192 0.45878 0.0
H553 H 0.25131 0.24513 0.62309 0.0
H554 H 0.31029 0.24266 0.47713 0.0
O555 O 0.24769 0.14055 0.56317 0.0
H556 H 0.21081 0.09007 0.4499 0.0
H557 H 0.25039 0.06313 0.53203 0.0
H558 H 0.21035 0.03975 0.51262 0.0
H559 H 0.19031 0.05319 0.47125 0.0
H560 H 0.25076 0.11305 0.47011 0.0
H561 H 0.3131 0.02083 0.49004 0.0
H562 H 0.33611 0.01403 0.53224 0.0
O563 O 0.26946 0.10573 0.55263 0.0
C564 C 0.31804 0.14756 0.5506 0.0
C565 C 0.32648 0.05058 0.54972 0.0
C566 C 0.31333 0.0354 0.50588 0.0
N567 N 0.30085 0.07662 0.52271 0.0
C568 C 0.31368 0.07314 0.54589 0.0
C569 C 0.30072 0.05819 0.50276 0.0
C570 C 0.32624 0.03159 0.52956 0.0
C571 C 0.27019 0.19346 0.49454 0.0
N572 N 0.27895 0.19265 0.51982 0.0
C573 C 0.28128 0.21143 0.47881 0.0
C574 C 0.30149 0.22865 0.48911 0.0
C575 C 0.31033 0.22772 0.5149 0.0
C576 C 0.29878 0.20948 0.53005 0.0
C577 C 0.24521 0.2347 0.58237 0.0
C578 C 0.26758 0.18903 0.59312 0.0
C579 C 0.24829 0.2157 0.56279 0.0
N580 N 0.25948 0.19328 0.5683 0.0
C581 C 0.26481 0.20759 0.6132 0.0
C582 C 0.25357 0.23057 0.60773 0.0
C583 C 0.2545 0.11775 0.56713 0.0
C584 C 0.21941 0.08398 0.46788 0.0
C585 C 0.24176 0.06912 0.51404 0.0
C586 C 0.21912 0.05577 0.50312 0.0
C587 C 0.2079 0.06331 0.4799 0.0
N588 N 0.25294 0.08936 0.50213 0.0
C589 C 0.24208 0.09683 0.47934 0.0
Co590 Co 0.17252 0.99871 0.75532 0.0
Co591 Co 0.12007 0.0299 0.73278 0.0
O592 O 0.14258 0.0191 0.76135 0.0
C593 C 0.16745 0.95733 0.7922 0.0
O594 O 0.17077 0.94065 0.77284 0.0
C595 C 0.12215 0.07365 0.77504 0.0
O596 O 0.13641 0.06079 0.79092 0.0
O597 O 0.15071 0.04627 0.71698 0.0
O598 O 0.17904 0.01575 0.7223 0.0
H599 H 0.09558 0.04122 0.63922 0.0
H600 H 0.17125 0.02708 0.80646 0.0
O601 O 0.1666 0.98141 0.78842 0.0
H602 H 0.24982 0.06301 0.76894 0.0
H603 H 0.25585 0.95822 0.78085 0.0
H604 H 0.19029 0.96902 0.70999 0.0
H605 H 0.22201 0.02818 0.74524 0.0
H606 H 0.21837 0.98431 0.78828 0.0
O607 O 0.11513 0.06422 0.75219 0.0
H608 H 0.12246 0.02676 0.67582 0.0
H609 H 0.07097 0.05735 0.72872 0.0
H610 H 0.22746 0.94275 0.70172 0.0
H611 H 0.19873 0.0617 0.83099 0.0
H612 H 0.26057 0.93721 0.73731 0.0
H613 H 0.2383 0.07998 0.81219 0.0
O614 O 0.14916 0.97146 0.7358 0.0
H615 H 0.06406 1.00557 0.80508 0.0
H616 H 0.07443 0.99621 0.7114 0.0
H617 H 0.03658 0.97452 0.72931 0.0
H618 H 0.03105 0.97927 0.77647 0.0
H619 H 0.1017 0.02653 0.7865 0.0
H620 H 0.04362 0.07229 0.69269 0.0
H621 H 0.05583 0.06416 0.64755 0.0
O622 O 0.12384 0.99618 0.71229 0.0
C623 C 0.17152 0.03577 0.71148 0.0
C624 C 0.09 0.04479 0.65879 0.0
C625 C 0.06087 0.06228 0.68881 0.0
N626 N 0.09819 0.04103 0.70436 0.0
C627 C 0.10511 0.03659 0.6796 0.0
C628 C 0.07647 0.05383 0.70913 0.0
C629 C 0.06772 0.05769 0.66348 0.0
C630 C 0.18848 0.03484 0.79818 0.0
N631 N 0.19485 0.0257 0.77434 0.0
C632 C 0.20395 0.05449 0.81215 0.0
C633 C 0.22613 0.06475 0.80158 0.0
C634 C 0.23258 0.05527 0.7773 0.0
C635 C 0.21664 0.03564 0.76389 0.0
C636 C 0.24157 0.96051 0.76518 0.0
C637 C 0.20462 0.96671 0.72557 0.0
C638 C 0.22033 0.9753 0.76925 0.0
N639 N 0.20216 0.97822 0.74957 0.0
C640 C 0.22563 0.95181 0.72078 0.0
C641 C 0.2442 0.94872 0.74075 0.0
C642 C 0.13243 0.97424 0.71726 0.0
C643 C 0.06606 1.00363 0.78445 0.0
C644 C 0.07217 0.9986 0.73193 0.0
C645 C 0.05067 0.98617 0.74196 0.0
C646 C 0.04759 0.98882 0.76841 0.0
N647 N 0.09004 0.01354 0.7477 0.0
C648 C 0.08732 0.01577 0.77372 0.0
Co649 Co 0.27212 0.85875 0.03358 0.0
Co650 Co 0.24073 0.91274 0.01746 0.0
O651 O 0.26189 0.88367 1.00802 0.0
C652 C 0.31843 0.86512 1.00022 0.0
O653 O 0.30686 0.88103 0.98527 0.0
C654 C 0.22147 0.89704 0.96136 0.0
O655 O 0.23489 0.87638 0.95994 0.0
O656 O 0.21347 0.88796 0.02846 0.0
O657 O 0.23744 0.86008 0.04929 0.0
H658 H 0.184 0.96157 0.07575 0.0
H659 H 0.27286 0.84526 0.97662 0.0
O660 O 0.30722 0.85582 0.01915 0.0
H661 H 0.21863 0.77539 0.01036 0.0
H662 H 0.31388 0.77971 0.06423 0.0
H663 H 0.2663 0.8558 0.08972 0.0
H664 H 0.23865 0.81105 0.03957 0.0
H665 H 0.30041 0.81008 0.03194 0.0
O666 O 0.22242 0.91156 0.98209 0.0
H667 H 0.21127 0.92615 0.06307 0.0
H668 H 0.22435 0.96001 0.99214 0.0
H669 H 0.27914 0.82574 0.12257 0.0
H670 H 0.25373 0.80979 0.94684 0.0
H671 H 0.30311 0.78737 0.10989 0.0
H672 H 0.22624 0.77447 0.96357 0.0
O673 O 0.28766 0.88767 0.05798 0.0
H674 H 0.30625 0.94543 0.95743 0.0
H675 H 0.2678 0.96182 0.04088 0.0
H676 H 0.30252 0.99201 0.02805 0.0
H677 H 0.32196 0.98398 0.98598 0.0
H678 H 0.27176 0.91555 0.97121 0.0
H679 H 0.19707 0.99569 1.00399 0.0
H680 H 0.17675 0.99669 0.04612 0.0
O681 O 0.2574 0.91622 0.05327 0.0
C682 C 0.21573 0.86956 0.04353 0.0
C683 C 0.1928 0.96139 0.05738 0.0
C684 C 0.20012 0.98053 0.01709 0.0
N685 N 0.21956 0.94107 0.02697 0.0
C686 C 0.20831 0.9414 0.0501 0.0
C687 C 0.21551 0.96023 0.01047 0.0
C688 C 0.18873 0.98108 0.04073 0.0
C689 C 0.26136 0.82994 0.98428 0.0
N690 N 0.25721 0.83033 0.01001 0.0
C691 C 0.25037 0.80989 0.9672 0.0
C692 C 0.23491 0.79011 0.97658 0.0
C693 C 0.23062 0.79063 1.0028 0.0
C694 C 0.24194 0.81099 0.01927 0.0
C695 C 0.30341 0.79634 0.06998 0.0
C696 C 0.27658 0.83906 0.08402 0.0
C697 C 0.29581 0.81366 0.05181 0.0
N698 N 0.28241 0.83461 0.05891 0.0
C699 C 0.28387 0.82214 0.10272 0.0
C700 C 0.29735 0.80064 0.0956 0.0
C701 C 0.2773 0.90831 0.06528 0.0
C702 C 0.29789 0.94919 0.97578 0.0
C703 C 0.27624 0.95803 0.02264 0.0
C704 C 0.29585 0.97529 0.01542 0.0
C705 C 0.30673 0.97079 0.99182 0.0
N706 N 0.26763 0.93687 1.00679 0.0
C707 C 0.27824 0.93236 0.98364 0.0
Co708 Co 0.25828 0.42431 1.00653 0.0
Co709 Co 0.2557 0.36754 0.03837 0.0
O710 O 0.27465 0.39394 0.01956 0.0
C711 C 0.29273 0.40689 0.96444 0.0
O712 O 0.29591 0.38472 0.97469 0.0
C713 C 0.3099 0.37548 0.06458 0.0
O714 O 0.31454 0.39577 0.05135 0.0
O715 O 0.24428 0.39493 0.06332 0.0
O716 O 0.23707 0.4271 0.03743 0.0
H717 H 0.17854 0.33077 0.08124 0.0
H718 H 0.31603 0.42594 0.01038 0.0
O719 O 0.27867 0.42346 0.97476 0.0
H720 H 0.29321 0.50056 0.06571 0.0
H721 H 0.25547 0.50893 0.96379 0.0
H722 H 0.20418 0.44019 1.00308 0.0
H723 H 0.25908 0.4718 0.04208 0.0
H724 H 0.27666 0.47177 0.98126 0.0
O725 O 0.2876 0.36326 0.06237 0.0
H726 H 0.20291 0.36279 0.05729 0.0
H727 H 0.26852 0.31728 0.05986 0.0
H728 H 0.18224 0.47719 0.98611 0.0
H729 H 0.35081 0.45452 0.03316 0.0
H730 H 0.20793 0.51188 0.96627 0.0
H731 H 0.33952 0.49209 0.06124 0.0
O732 O 0.23082 0.4012 0.98755 0.0
H733 H 0.31981 0.3211 0.98613 0.0
H734 H 0.2286 0.32212 1.00822 0.0
H735 H 0.24148 0.28815 0.97735 0.0
H736 H 0.28744 0.28735 0.9662 0.0
H737 H 0.30598 0.35505 0.01634 0.0
H738 H 0.24493 0.28488 0.08401 0.0
H739 H 0.19957 0.29147 0.09476 0.0
O740 O 0.22332 0.36995 0.0148 0.0
C741 C 0.23502 0.41662 0.05887 0.0
C742 C 0.19827 0.32764 0.0766 0.0
C743 C 0.23555 0.30191 0.07819 0.0
N744 N 0.23704 0.34184 0.05705 0.0
C745 C 0.21214 0.34567 0.06299 0.0
C746 C 0.24883 0.32037 0.06458 0.0
C747 C 0.21009 0.30561 0.08421 0.0
C748 C 0.31088 0.44234 0.02229 0.0
N749 N 0.28544 0.44697 0.02499 0.0
C750 C 0.3307 0.45842 0.03528 0.0
C751 C 0.32436 0.47946 0.05107 0.0
C752 C 0.29839 0.48419 0.05363 0.0
C753 C 0.27911 0.46767 0.04035 0.0
C754 C 0.24407 0.49398 0.97247 0.0
C755 C 0.21552 0.45532 0.99466 0.0
C756 C 0.25596 0.47285 0.98235 0.0
N757 N 0.2417 0.45392 0.99339 0.0
C758 C 0.20298 0.47618 0.98501 0.0
C759 C 0.2174 0.49562 0.97386 0.0
C760 C 0.21745 0.38161 0.99438 0.0
C761 C 0.29974 0.32116 0.9909 0.0
C762 C 0.24858 0.32215 1.00331 0.0
C763 C 0.25578 0.30273 0.98589 0.0
C764 C 0.28157 0.30227 0.97968 0.0
N765 N 0.26649 0.34066 0.01429 0.0
C766 C 0.2918 0.3403 1.00823 0.0
Co767 Co 0.76552 0.16956 1.00126 0.0
Co768 Co 0.74374 0.11791 0.03335 0.0
O769 O 0.77191 0.1411 0.02322 0.0
C770 C 0.80577 0.16443 0.96259 0.0
O771 O 0.78725 0.16565 0.94433 0.0
C772 C 0.77406 0.1323 0.08322 0.0
O773 O 0.77143 0.15667 0.07866 0.0
O774 O 0.72556 0.14804 0.0479 0.0
O775 O 0.73118 0.17525 0.01644 0.0
H776 H 0.65058 0.0887 0.04228 0.0
H777 H 0.81486 0.17038 0.03354 0.0
O778 O 0.80019 0.16455 0.98625 0.0
H779 H 0.77328 0.24928 0.06228 0.0
H780 H 0.78992 0.2514 0.95821 0.0
H781 H 0.72044 0.18432 0.96875 0.0
H782 H 0.75241 0.21971 0.0272 0.0
H783 H 0.79765 0.21558 0.98634 0.0
O784 O 0.76352 0.11447 0.06744 0.0
H785 H 0.68631 0.11728 0.02861 0.0
H786 H 0.74168 0.0694 0.0615 0.0
H787 H 0.71187 0.2198 0.94044 0.0
H788 H 0.83657 0.1996 0.06849 0.0
H789 H 0.74676 0.25366 0.93503 0.0
H790 H 0.81572 0.23934 0.08314 0.0
O791 O 0.74779 0.14454 0.97408 0.0
H792 H 0.82064 0.06538 0.0184 0.0
H793 H 0.72694 0.07158 0.99814 0.0
H794 H 0.74899 0.0349 0.97901 0.0
H795 H 0.79616 0.03158 0.9892 0.0
H796 H 0.79789 0.10191 0.03688 0.0
H797 H 0.70654 0.04038 0.07567 0.0
H798 H 0.6606 0.04992 0.06598 0.0
O799 O 0.72382 0.12011 0.99912 0.0
C800 C 0.71965 0.1681 0.03621 0.0
C801 C 0.67051 0.08429 0.04654 0.0
C802 C 0.70192 0.05719 0.06531 0.0
N803 N 0.71604 0.09491 0.04406 0.0
C804 C 0.69083 0.10037 0.03878 0.0
C805 C 0.72174 0.07372 0.05728 0.0
C806 C 0.67615 0.06255 0.05986 0.0
C807 C 0.8058 0.18778 0.03959 0.0
N808 N 0.78248 0.19339 0.02819 0.0
C809 C 0.81813 0.2042 0.05948 0.0
C810 C 0.8064 0.22647 0.06772 0.0
C811 C 0.78258 0.23204 0.05605 0.0
C812 C 0.77081 0.21517 0.03623 0.0
C813 C 0.77455 0.23677 0.96042 0.0
C814 C 0.73573 0.19897 0.96648 0.0
C815 C 0.77881 0.21645 0.97633 0.0
N816 N 0.75951 0.19786 0.97918 0.0
C817 C 0.73076 0.21902 0.95044 0.0
C818 C 0.75034 0.23802 0.94741 0.0
C819 C 0.72909 0.12797 0.97703 0.0
C820 C 0.80007 0.06659 0.01387 0.0
C821 C 0.7475 0.07035 1.00257 0.0
C822 C 0.75986 0.04949 0.99173 0.0
C823 C 0.78632 0.04764 0.99746 0.0
N824 N 0.76109 0.08881 0.01873 0.0
C825 C 0.78706 0.08719 0.02433 0.0
Co826 Co 0.10855 0.52918 0.28447 0.0
Co827 Co 0.16692 0.53831 0.25674 0.0
O828 O 0.1379 0.51538 0.26652 0.0
C829 C 0.11844 0.47767 0.30811 0.0
O830 O 0.13818 0.47398 0.29395 0.0
C831 C 0.16003 0.49544 0.21296 0.0
O832 O 0.14246 0.48178 0.22439 0.0
O833 O 0.14206 0.55892 0.23751 0.0
O834 O 0.10973 0.56149 0.26408 0.0
H835 H 0.21137 0.62508 0.24442 0.0
H836 H 0.10239 0.47659 0.25729 0.0
O837 O 0.10552 0.49781 0.30605 0.0
H838 H 0.0331 0.52563 0.21813 0.0
H839 H 0.02189 0.52384 0.32376 0.0
H840 H 0.09802 0.58087 0.30739 0.0
H841 H 0.06325 0.54604 0.25296 0.0
H842 H 0.05803 0.50663 0.3006 0.0
O843 O 0.17038 0.51677 0.22347 0.0
H844 H 0.17621 0.5953 0.25729 0.0
H845 H 0.21781 0.53059 0.2341 0.0
H846 H 0.06219 0.59895 0.33037 0.0
H847 H 0.07251 0.45536 0.22276 0.0
H848 H 0.02378 0.57034 0.3387 0.0
H849 H 0.03753 0.47992 0.20285 0.0
O850 O 0.13311 0.54619 0.31224 0.0
H851 H 0.20599 0.4566 0.28466 0.0
H852 H 0.21163 0.55186 0.29479 0.0
H853 H 0.24271 0.52747 0.31978 0.0
H854 H 0.24014 0.47946 0.31473 0.0
H855 H 0.17513 0.48167 0.26045 0.0
H856 H 0.25332 0.55967 0.22077 0.0
H857 H 0.25028 0.60729 0.22601 0.0
O858 O 0.16498 0.56148 0.28894 0.0
C859 C 0.12154 0.56891 0.24461 0.0
C860 C 0.21297 0.60437 0.24213 0.0
C861 C 0.2365 0.56766 0.22883 0.0
N862 N 0.19505 0.56124 0.24669 0.0
C863 C 0.19315 0.58741 0.24946 0.0
C864 C 0.2163 0.55129 0.23636 0.0
C865 C 0.23478 0.59437 0.23178 0.0
C866 C 0.08712 0.48736 0.24905 0.0
N867 N 0.08451 0.51246 0.25746 0.0
C868 C 0.07029 0.47525 0.22934 0.0
C869 C 0.0507 0.48905 0.21815 0.0
C870 C 0.04821 0.51469 0.2267 0.0
C871 C 0.06541 0.52616 0.24643 0.0
C872 C 0.0385 0.53651 0.32021 0.0
C873 C 0.0813 0.56834 0.3108 0.0
C874 C 0.05905 0.52686 0.30717 0.0
N875 N 0.08002 0.54279 0.30248 0.0
C876 C 0.0611 0.57867 0.32389 0.0
C877 C 0.03957 0.5626 0.32858 0.0
C878 C 0.15356 0.56055 0.30999 0.0
C879 C 0.20742 0.47753 0.28692 0.0
C880 C 0.21022 0.53097 0.29247 0.0
C881 C 0.22797 0.51727 0.30668 0.0
C882 C 0.22654 0.49035 0.30383 0.0
N883 N 0.19155 0.5183 0.27576 0.0
C884 C 0.19001 0.4919 0.27303 0.0
Co885 Co 0.76088 0.93096 0.51098 0.0
Co886 Co 0.7637 0.86954 0.53198 0.0
O887 O 0.77983 0.89997 0.51706 0.0
C888 C 0.78576 0.92109 0.46136 0.0
O889 O 0.77745 0.89666 0.46112 0.0
C890 C 0.82028 0.87408 0.55277 0.0
O891 O 0.82514 0.89435 0.53953 0.0
O892 O 0.7539 0.89189 0.56198 0.0
O893 O 0.74087 0.92668 0.54248 0.0
H894 H 0.69208 0.82132 0.57377 0.0
H895 H 0.81834 0.9359 0.51232 0.0
O896 O 0.78056 0.93693 0.47967 0.0
H897 H 0.79458 0.99764 0.58146 0.0
H898 H 0.75167 0.02234 0.48546 0.0
H899 H 0.70586 0.9435 0.51284 0.0
H900 H 0.76081 0.97163 0.55429 0.0
H901 H 0.77551 0.9837 0.49428 0.0
O902 O 0.79743 0.86311 0.55211 0.0
H903 H 0.71309 0.85859 0.5541 0.0
H904 H 0.78016 0.81684 0.54316 0.0
H905 H 0.68132 0.98182 0.50453 0.0
H906 H 0.85281 0.96182 0.53878 0.0
H907 H 0.70425 0.02161 0.49072 0.0
H908 H 0.84103 0.99288 0.57374 0.0
O909 O 0.7337 0.90938 0.48951 0.0
H910 H 0.82224 0.83829 0.46387 0.0
H911 H 0.73584 0.82722 0.49813 0.0
H912 H 0.74626 0.79984 0.46036 0.0
H913 H 0.78982 0.80512 0.44303 0.0
H914 H 0.81089 0.86552 0.5012 0.0
H915 H 0.76 0.77923 0.563 0.0
H916 H 0.71559 0.78128 0.57833 0.0
O917 O 0.72949 0.87416 0.51236 0.0
C918 C 0.74252 0.91307 0.5621 0.0
C919 C 0.71141 0.82017 0.5671 0.0
C920 C 0.74955 0.79656 0.56109 0.0
N921 N 0.74773 0.83983 0.54732 0.0
C922 C 0.72337 0.84118 0.55587 0.0
C923 C 0.7609 0.81795 0.54996 0.0
C924 C 0.72462 0.79772 0.56967 0.0
C925 C 0.81304 0.94936 0.52749 0.0
N926 N 0.78756 0.95188 0.53201 0.0
C927 C 0.83266 0.964 0.54241 0.0
C928 C 0.82603 0.98141 0.56203 0.0
C929 C 0.79999 0.98405 0.5664 0.0
C930 C 0.78092 0.96909 0.55108 0.0
C931 C 0.74147 1.00514 0.49151 0.0
C932 C 0.716 0.96079 0.50698 0.0
C933 C 0.75485 0.98316 0.49646 0.0
N934 N 0.74212 0.96141 0.50424 0.0
C935 C 0.70199 0.98241 0.50224 0.0
C936 C 0.71486 1.00472 0.49447 0.0
C937 C 0.72175 0.88813 0.49427 0.0
C938 C 0.8033 0.83558 0.47143 0.0
C939 C 0.75489 0.82967 0.49086 0.0
C940 C 0.76066 0.81406 0.46939 0.0
C941 C 0.78508 0.81703 0.45969 0.0
N942 N 0.77296 0.84765 0.50255 0.0
C943 C 0.79683 0.85084 0.49287 0.0
Co944 Co 0.86858 0.03656 0.27821 0.0
Co945 Co 0.91767 0.02493 0.23947 0.0
O946 O 0.89213 0.01286 0.26287 0.0
C947 C 0.87077 0.0216 0.33295 0.0
O948 O 0.87478 0.04615 0.34075 0.0
C949 C 0.89674 0.97247 0.21742 0.0
O950 O 0.87367 0.97768 0.2246 0.0
O951 O 0.88901 0.03721 0.21647 0.0
O952 O 0.86777 0.05794 0.24708 0.0
H953 H 0.95784 0.08913 0.1826 0.0
H954 H 0.85349 0.98016 0.27596 0.0
O955 O 0.86892 0.01484 0.30891 0.0
H956 H 0.7833 0.01903 0.22607 0.0
H957 H 0.79125 0.05928 0.32764 0.0
H958 H 0.86661 0.09356 0.28373 0.0
H959 H 0.82035 0.04635 0.24653 0.0
H960 H 0.82055 0.02963 0.30709 0.0
O961 O 0.9153 0.98986 0.22017 0.0
H962 H 0.92662 0.07343 0.21303 0.0
H963 H 0.9622 1.00174 0.21455 0.0
H964 H 0.83784 0.12389 0.30407 0.0
H965 H 0.81645 0.95226 0.25634 0.0
H966 H 0.79984 0.10678 0.32623 0.0
H967 H 0.78109 0.97163 0.23102 0.0
O968 O 0.89901 0.05879 0.29391 0.0
H969 H 0.95878 0.9619 0.29677 0.0
H970 H 0.96959 0.0475 0.26096 0.0
H971 H 1.00407 0.03306 0.29058 0.0
H972 H 0.99884 0.98991 0.30863 0.0
H973 H 0.92463 0.97726 0.26735 0.0
H974 H 0.99362 0.01658 0.18394 0.0
H975 H 0.99165 0.06062 0.16785 0.0
O976 O 0.92209 0.05995 0.25884 0.0
C977 C 0.8729 0.05363 0.22349 0.0
C978 C 0.95893 0.06993 0.18951 0.0
C979 C 0.97899 0.02919 0.19024 0.0
N980 N 0.94264 0.03675 0.21566 0.0
C981 C 0.94134 0.06094 0.20679 0.0
C982 C 0.96108 0.02086 0.2075 0.0
C983 C 0.97788 0.05391 0.18123 0.0
C984 C 0.83802 0.98885 0.26532 0.0
N985 N 0.83918 0.01491 0.26243 0.0
C986 C 0.81716 0.9729 0.2541 0.0
C987 C 0.79735 0.98377 0.23984 0.0
C988 C 0.79861 1.01035 0.23702 0.0
C989 C 0.81976 0.02571 0.24853 0.0
C990 C 0.80774 0.06697 0.31803 0.0
C991 C 0.85012 0.08596 0.29333 0.0
C992 C 0.82439 0.05028 0.30634 0.0
N993 N 0.8453 0.05985 0.29422 0.0
C994 C 0.83389 0.10323 0.30481 0.0
C995 C 0.81257 0.09362 0.31724 0.0
C996 C 0.91724 0.06876 0.28148 0.0
C997 C 0.96131 0.98072 0.28899 0.0
C998 C 0.96707 0.02879 0.26884 0.0
C999 C 0.98671 0.02067 0.28555 0.0
C1000 C 0.98377 0.99645 0.29565 0.0
N1001 N 0.94512 0.01323 0.2623 0.0
C1002 C 0.94207 0.9895 0.27224 0.0
Co1003 Co 0.2655 0.68132 0.5087 0.0
Co1004 Co 0.25409 0.61859 0.5249 0.0
O1005 O 0.27712 0.64923 0.52185 0.0
C1006 C 0.31 0.66784 0.47833 0.0
O1007 O 0.29886 0.64439 0.47538 0.0
C1008 C 0.26919 0.60717 0.57969 0.0
O1009 O 0.2447 0.60714 0.58499 0.0
O1010 O 0.23089 0.63979 0.54562 0.0
O1011 O 0.23199 0.67773 0.52676 0.0
H1012 H 0.16781 0.56882 0.52447 0.0
H1013 H 0.31691 0.68106 0.53712 0.0
O1014 O 0.29897 0.6857 0.49066 0.0
H1015 H 0.26911 0.74508 0.58597 0.0
H1016 H 0.27785 0.77343 0.48401 0.0
H1017 H 0.21568 0.69786 0.48605 0.0
H1018 H 0.24882 0.72164 0.54648 0.0
H1019 H 0.29171 0.73294 0.50166 0.0
O1020 O 0.2758 0.61193 0.5571 0.0
H1021 H 0.19726 0.60716 0.51959 0.0
H1022 H 0.2625 0.56453 0.53899 0.0
H1023 H 0.20091 0.73805 0.4685 0.0
H1024 H 0.33803 0.70425 0.57641 0.0
H1025 H 0.23211 0.77619 0.4674 0.0
H1026 H 0.31406 0.7365 0.60113 0.0
O1027 O 0.24885 0.66197 0.47737 0.0
H1028 H 0.34035 0.58806 0.50065 0.0
H1029 H 0.24591 0.58021 0.47948 0.0
H1030 H 0.27457 0.55493 0.45305 0.0
H1031 H 0.32216 0.55866 0.46365 0.0
H1032 H 0.31105 0.61347 0.52621 0.0
H1033 H 0.23377 0.52575 0.54421 0.0
H1034 H 0.18606 0.52775 0.53687 0.0
O1035 O 0.23295 0.62472 0.49199 0.0
C1036 C 0.22226 0.66202 0.54224 0.0
C1037 C 0.18857 0.5677 0.52769 0.0
C1038 C 0.22559 0.54353 0.53877 0.0
N1039 N 0.23154 0.58804 0.52892 0.0
C1040 C 0.20533 0.58933 0.52493 0.0
C1041 C 0.24175 0.56554 0.53582 0.0
C1042 C 0.19882 0.54466 0.53465 0.0
C1043 C 0.30643 0.6952 0.54769 0.0
N1044 N 0.28174 0.70011 0.53943 0.0
C1045 C 0.31846 0.70821 0.56996 0.0
C1046 C 0.30499 0.72628 0.58384 0.0
C1047 C 0.27976 0.7311 0.57535 0.0
C1048 C 0.26836 0.71772 0.553 0.0
C1049 C 0.26406 0.75696 0.48444 0.0
C1050 C 0.22931 0.71445 0.48581 0.0
C1051 C 0.27181 0.73398 0.49435 0.0
N1052 N 0.25445 0.71317 0.49509 0.0
C1053 C 0.22086 0.73712 0.47577 0.0
C1054 C 0.23839 0.7585 0.47513 0.0
C1055 C 0.23501 0.6407 0.47424 0.0
C1056 C 0.31964 0.58619 0.4959 0.0
C1057 C 0.26661 0.58215 0.48411 0.0
C1058 C 0.28274 0.56767 0.46913 0.0
C1059 C 0.30943 0.56974 0.47511 0.0
N1060 N 0.27675 0.59825 0.50449 0.0
C1061 C 0.30292 0.6004 0.51043 0.0
Co1062 Co 0.35711 0.51853 0.77499 0.0
Co1063 Co 0.41803 0.51691 0.7512 0.0
O1064 O 0.3883 0.50042 0.76713 0.0
C1065 C 0.37233 0.49405 0.82357 0.0
O1066 O 0.39665 0.5007 0.82003 0.0
C1067 C 0.41132 0.46145 0.72778 0.0
O1068 O 0.39115 0.45668 0.74121 0.0
O1069 O 0.39448 0.52817 0.72276 0.0
O1070 O 0.35849 0.5375 0.74248 0.0
H1071 H 0.46477 0.58977 0.70995 0.0
H1072 H 0.35395 0.46128 0.7759 0.0
O1073 O 0.35432 0.49995 0.80759 0.0
H1074 H 0.28716 0.48097 0.70938 0.0
H1075 H 0.26762 0.52563 0.80679 0.0
H1076 H 0.34219 0.57261 0.77214 0.0
H1077 H 0.31393 0.51609 0.73383 0.0
H1078 H 0.30646 0.50291 0.79598 0.0
O1079 O 0.42314 0.48392 0.72936 0.0
H1080 H 0.42831 0.56827 0.73054 0.0
H1081 H 0.46996 0.50054 0.73693 0.0
H1082 H 0.3036 0.59603 0.7824 0.0
H1083 H 0.32729 0.42552 0.75221 0.0
H1084 H 0.26597 0.5725 0.79987 0.0
H1085 H 0.29369 0.43526 0.71856 0.0
O1086 O 0.37885 0.54684 0.79455 0.0
H1087 H 0.45304 0.45457 0.81371 0.0
H1088 H 0.46145 0.54331 0.78483 0.0
H1089 H 0.49062 0.53088 0.82056 0.0
H1090 H 0.48667 0.48615 0.83516 0.0
H1091 H 0.42399 0.46791 0.77851 0.0
H1092 H 0.50675 0.52119 0.71614 0.0
H1093 H 0.50434 0.56618 0.70262 0.0
O1094 O 0.41463 0.55038 0.77234 0.0
C1095 C 0.37238 0.53787 0.72301 0.0
C1096 C 0.46608 0.57019 0.71582 0.0
C1097 C 0.48962 0.53168 0.71926 0.0
N1098 N 0.44708 0.53326 0.7351 0.0
C1099 C 0.44553 0.55795 0.72756 0.0
C1100 C 0.4687 0.52006 0.73094 0.0
C1101 C 0.48827 0.55693 0.71169 0.0
C1102 C 0.33931 0.4657 0.76137 0.0
N1103 N 0.33578 0.49077 0.75604 0.0
C1104 C 0.3243 0.44535 0.74798 0.0
C1105 C 0.30547 0.45082 0.72909 0.0
C1106 C 0.30183 0.47645 0.72389 0.0
C1107 C 0.31722 0.49628 0.73766 0.0
C1108 C 0.28387 0.53608 0.79913 0.0
C1109 C 0.32581 0.56221 0.77956 0.0
C1110 C 0.30594 0.52333 0.79303 0.0
N1111 N 0.32648 0.53638 0.78324 0.0
C1112 C 0.30405 0.57558 0.78541 0.0
C1113 C 0.28295 0.56238 0.79524 0.0
C1114 C 0.4003 0.55852 0.78992 0.0
C1115 C 0.45514 0.47403 0.80735 0.0
C1116 C 0.45952 0.52379 0.791 0.0
C1117 C 0.47616 0.51686 0.81126 0.0
C1118 C 0.47394 0.49178 0.81943 0.0
N1119 N 0.44122 0.50622 0.77902 0.0
C1120 C 0.43885 0.48165 0.78712 0.0
Co1121 Co 0.60451 0.02161 0.77734 0.0
Co1122 Co 0.66715 0.03264 0.76176 0.0
O1123 O 0.63642 1.00992 0.76431 0.0
C1124 C 0.59597 0.98125 0.81582 0.0
O1125 O 0.59318 0.99974 0.83364 0.0
C1126 C 0.67796 0.01688 0.707 0.0
O1127 O 0.67666 0.04102 0.70094 0.0
O1128 O 0.64606 0.05577 0.74084 0.0
O1129 O 0.60886 0.0561 0.76108 0.0
H1130 H 0.71741 0.11853 0.76236 0.0
H1131 H 0.60427 0.97179 0.74603 0.0
O1132 O 0.60023 0.98688 0.79279 0.0
H1133 H 0.54151 0.02336 0.69973 0.0
H1134 H 0.5112 1.00983 0.79919 0.0
H1135 H 0.58893 0.07008 0.80324 0.0
H1136 H 0.56479 0.04097 0.74037 0.0
H1137 H 0.55175 0.99619 0.78138 0.0
O1138 O 0.67418 1.01075 0.72995 0.0
H1139 H 0.67886 0.08931 0.76719 0.0
H1140 H 0.72129 0.02404 0.74785 0.0
H1141 H 0.54877 0.0846 0.82117 0.0
H1142 H 0.5812 0.95334 0.70557 0.0
H1143 H 0.50955 0.05436 0.8192 0.0
H1144 H 0.54958 0.9792 0.68211 0.0
O1145 O 0.62425 0.03632 0.80944 0.0
H1146 H 0.69508 0.94644 0.78866 0.0
H1147 H 0.70626 0.04097 0.80665 0.0
H1148 H 0.73085 0.01241 0.83392 0.0
H1149 H 0.72542 0.96476 0.82493 0.0
H1150 H 0.67062 0.9757 0.76205 0.0
H1151 H 0.76026 0.05255 0.74263 0.0
H1152 H 0.75848 0.10016 0.74999 0.0
O1153 O 0.66068 0.05376 0.79438 0.0
C1154 C 0.62433 0.06529 0.74503 0.0
C1155 C 0.71845 0.09782 0.75916 0.0
C1156 C 0.74249 0.06079 0.74806 0.0
N1157 N 0.69788 0.05502 0.75794 0.0
C1158 C 0.6967 0.08118 0.76191 0.0
C1159 C 0.72036 0.04475 0.751 0.0
C1160 C 0.74148 0.0875 0.7522 0.0
C1161 C 0.59038 0.98309 0.73606 0.0
N1162 N 0.58574 1.00735 0.7457 0.0
C1163 C 0.57745 0.97257 0.7131 0.0
C1164 C 0.55973 0.9871 0.69993 0.0
C1165 C 0.5552 0.01188 0.7098 0.0
C1166 C 0.5685 0.02177 0.7328 0.0
C1167 C 0.52815 0.0232 0.80013 0.0
C1168 C 0.5719 0.05686 0.80224 0.0
C1169 C 0.55115 0.01558 0.7901 0.0
N1170 N 0.57261 0.03238 0.79118 0.0
C1171 C 0.54924 0.06517 0.81245 0.0
C1172 C 0.52724 0.04819 0.81136 0.0
C1173 C 0.64527 0.05068 0.81248 0.0
C1174 C 0.69767 0.96717 0.79272 0.0
C1175 C 0.70368 0.02027 0.80267 0.0
C1176 C 0.71772 1.00419 0.81815 0.0
C1177 C 0.71467 0.97746 0.81309 0.0
N1178 N 0.68711 1.01005 0.78265 0.0
C1179 C 0.68394 0.98385 0.77766 0.0
Co1180 Co 0.74982 0.66271 0.03622 0.0
Co1181 Co 0.78249 0.60931 0.0199 0.0
O1182 O 0.76102 0.63745 0.01003 0.0
C1183 C 0.7015 0.64768 1.00321 0.0
O1184 O 0.70633 0.62338 1.00589 0.0
C1185 C 0.80199 0.62457 0.96806 0.0
O1186 O 0.78822 0.64498 0.96751 0.0
O1187 O 0.8091 0.6351 0.03702 0.0
O1188 O 0.78319 0.66111 0.05808 0.0
H1189 H 0.83877 0.56318 0.08214 0.0
H1190 H 0.7481 0.6762 0.98142 0.0
O1191 O 0.71651 0.66563 0.01476 0.0
H1192 H 0.80708 0.74351 0.02852 0.0
H1193 H 0.70746 0.74321 0.06602 0.0
H1194 H 0.75175 0.66685 0.0935 0.0
H1195 H 0.78612 0.70868 0.0517 0.0
H1196 H 0.72271 0.71181 0.03371 0.0
O1197 O 0.80136 0.61005 0.98705 0.0
H1198 H 0.81094 0.5976 0.06866 0.0
H1199 H 0.8007 0.56197 0.99267 0.0
H1200 H 0.73694 0.69783 0.12645 0.0
H1201 H 0.76837 0.7109 0.95754 0.0
H1202 H 0.71463 0.73636 0.11277 0.0
H1203 H 0.79819 0.74483 0.9811 0.0
O1204 O 0.7335 0.63427 0.05551 0.0
H1205 H 0.71792 0.57437 0.94812 0.0
H1206 H 0.75632 0.5601 0.03491 0.0
H1207 H 0.72234 0.5289 0.01448 0.0
H1208 H 0.70295 0.53587 0.97071 0.0
H1209 H 0.75166 0.60524 0.96941 0.0
H1210 H 0.82859 0.52728 1.00528 0.0
H1211 H 0.84775 0.52768 0.05033 0.0
O1212 O 0.7649 0.60657 0.05314 0.0
C1213 C 0.80551 0.65267 0.05445 0.0
C1214 C 0.83048 0.56275 0.06247 0.0
C1215 C 0.82479 0.54262 0.01933 0.0
N1216 N 0.80407 0.58174 0.02996 0.0
C1217 C 0.81466 0.58217 0.05473 0.0
C1218 C 0.80906 0.56236 0.01229 0.0
C1219 C 0.83553 0.54286 0.04461 0.0
C1220 C 0.76091 0.69098 0.99185 0.0
N1221 N 0.76595 0.69034 0.01792 0.0
C1222 C 0.7724 0.71054 0.9782 0.0
C1223 C 0.78914 0.72955 0.99143 0.0
C1224 C 0.79416 0.72881 0.01803 0.0
C1225 C 0.78232 0.70895 0.03103 0.0
C1226 C 0.7172 0.72652 0.07222 0.0
C1227 C 0.74218 0.68363 0.08739 0.0
C1228 C 0.72584 0.70865 0.05402 0.0
N1229 N 0.73827 0.6876 0.06172 0.0
C1230 C 0.73378 0.70108 0.10614 0.0
C1231 C 0.72124 0.72267 0.09845 0.0
C1232 C 0.74472 0.6146 0.06325 0.0
C1233 C 0.72634 0.57101 0.96712 0.0
C1234 C 0.74798 0.56332 0.01589 0.0
C1235 C 0.72876 0.54555 1.00439 0.0
C1236 C 0.71791 0.54946 0.97983 0.0
N1237 N 0.75629 0.58436 1.00325 0.0
C1238 C 0.74563 0.58836 0.97921 0.0
Co1239 Co 0.86981 0.53025 0.75682 0.0
Co1240 Co 0.92965 0.50662 0.75045 0.0
O1241 O 0.9004 0.5144 0.77087 0.0
C1242 C 0.86339 0.57194 0.79838 0.0
O1243 O 0.8594 0.58852 0.78062 0.0
C1244 C 0.91589 0.45833 0.77544 0.0
O1245 O 0.89168 0.46145 0.76789 0.0
O1246 O 0.90581 0.48694 0.72391 0.0
O1247 O 0.87125 0.51115 0.72184 0.0
H1248 H 0.97676 0.49873 0.6689 0.0
H1249 H 0.86661 0.50332 0.80554 0.0
O1250 O 0.86808 0.54862 0.79192 0.0
H1251 H 0.80003 0.45776 0.74456 0.0
H1252 H 0.77915 0.56065 0.75934 0.0
H1253 H 0.85637 0.55537 0.70859 0.0
H1254 H 0.8267 0.49498 0.73128 0.0
H1255 H 0.81787 0.54014 0.77649 0.0
O1256 O 0.93389 0.47425 0.76939 0.0
H1257 H 0.94022 0.5092 0.69522 0.0
H1258 H 0.98111 0.48544 0.76225 0.0
H1259 H 0.81805 0.57602 0.69067 0.0
H1260 H 0.84 0.46648 0.81973 0.0
H1261 H 0.77908 0.57875 0.71612 0.0
H1262 H 0.80652 0.44332 0.78911 0.0
O1263 O 0.89248 0.55956 0.74588 0.0
H1264 H 0.96429 0.53278 0.84129 0.0
H1265 H 0.97301 0.54705 0.74912 0.0
H1266 H 1.00185 0.57233 0.78213 0.0
H1267 H 0.99765 0.5652 0.82859 0.0
H1268 H 0.93567 0.50807 0.80764 0.0
H1269 H 0.01797 0.47442 0.73661 0.0
H1270 H 0.01598 0.4812 0.68961 0.0
O1271 O 0.92642 0.53914 0.7315 0.0
C1272 C 0.88426 0.49264 0.71312 0.0
C1273 C 0.97789 0.49577 0.68938 0.0
C1274 C 1.001 0.48209 0.72737 0.0
N1275 N 0.95864 0.49815 0.73026 0.0
C1276 C 0.9573 0.50174 0.70439 0.0
C1277 C 0.98005 0.4883 0.74178 0.0
C1278 C 0.99988 0.48591 0.701 0.0
C1279 C 0.85182 0.49363 0.79219 0.0
N1280 N 0.8482 0.50143 0.76763 0.0
C1281 C 0.83692 0.47265 0.8003 0.0
C1282 C 0.81818 0.45963 0.78309 0.0
C1283 C 0.81456 0.4677 0.75808 0.0
C1284 C 0.82983 0.48873 0.75064 0.0
C1285 C 0.796 0.55957 0.74806 0.0
C1286 C 0.83948 0.55651 0.71977 0.0
C1287 C 0.81798 0.54798 0.75766 0.0
N1288 N 0.83935 0.54657 0.74353 0.0
C1289 C 0.81784 0.56821 0.70953 0.0
C1290 C 0.79598 0.56973 0.72381 0.0
C1291 C 0.91341 0.55924 0.73402 0.0
C1292 C 0.96636 0.536 0.8211 0.0
C1293 C 0.97098 0.54389 0.7693 0.0
C1294 C 0.98742 0.55823 0.7879 0.0
C1295 C 0.98506 0.55421 0.81397 0.0
N1296 N 0.95275 0.52599 0.77645 0.0
C1297 C 0.95026 0.52202 0.80197 0.0
Co1298 Co 0.7704 0.36188 0.51883 0.0
Co1299 Co 0.74793 0.42343 0.51925 0.0
O1300 O 0.76238 0.39343 0.50202 0.0
C1301 C 0.8253 0.35564 0.5072 0.0
O1302 O 0.83027 0.35408 0.53214 0.0
C1303 C 0.71254 0.40978 0.47259 0.0
O1304 O 0.71259 0.38566 0.47894 0.0
O1305 O 0.72026 0.401 0.53369 0.0
O1306 O 0.7383 0.36299 0.53866 0.0
H1307 H 0.7141 0.47431 0.59396 0.0
H1308 H 0.76837 0.36253 0.46171 0.0
O1309 O 0.80243 0.36002 0.49857 0.0
H1310 H 0.7034 0.29379 0.48013 0.0
H1311 H 0.79895 0.27068 0.52183 0.0
H1312 H 0.77015 0.34588 0.57253 0.0
H1313 H 0.72981 0.31818 0.51561 0.0
H1314 H 0.78844 0.31043 0.50066 0.0
O1315 O 0.72483 0.42759 0.48723 0.0
H1316 H 0.73232 0.43659 0.5722 0.0
H1317 H 0.73261 0.47454 0.50196 0.0
H1318 H 0.78036 0.30647 0.59447 0.0
H1319 H 0.74276 0.3383 0.42557 0.0
H1320 H 0.7949 0.26852 0.56907 0.0
H1321 H 0.70988 0.30375 0.43468 0.0
O1322 O 0.7908 0.38288 0.54759 0.0
H1323 H 0.80347 0.45481 0.44996 0.0
H1324 H 0.7852 0.46606 0.54187 0.0
H1325 H 0.82003 0.4935 0.52502 0.0
H1326 H 0.8293 0.48803 0.47873 0.0
H1327 H 0.76896 0.42758 0.46766 0.0
H1328 H 0.71414 0.51257 0.52289 0.0
H1329 H 0.70487 0.51266 0.56925 0.0
O1330 O 0.77109 0.42031 0.55114 0.0
C1331 C 0.72008 0.37823 0.5419 0.0
C1332 C 0.71807 0.47451 0.57375 0.0
C1333 C 0.71806 0.49597 0.53385 0.0
N1334 N 0.73352 0.45335 0.53585 0.0
C1335 C 0.72841 0.45322 0.56133 0.0
C1336 C 0.72841 0.47433 0.52208 0.0
C1337 C 0.71288 0.49601 0.55987 0.0
C1338 C 0.75429 0.34735 0.46583 0.0
N1339 N 0.75048 0.34188 0.49078 0.0
C1340 C 0.73977 0.33376 0.44528 0.0
C1341 C 0.72128 0.31442 0.45041 0.0
C1342 C 0.7176 0.30885 0.4759 0.0
C1343 C 0.73246 0.32286 0.49594 0.0
C1344 C 0.79261 0.28708 0.53311 0.0
C1345 C 0.77641 0.32942 0.56135 0.0
C1346 C 0.78664 0.30964 0.52123 0.0
N1347 N 0.77864 0.33045 0.53536 0.0
C1348 C 0.78219 0.30717 0.57387 0.0
C1349 C 0.79034 0.28588 0.55961 0.0
C1350 C 0.78777 0.4049 0.55908 0.0
C1351 C 0.79956 0.45743 0.47014 0.0
C1352 C 0.78917 0.46347 0.52172 0.0
C1353 C 0.80888 0.47912 0.51228 0.0
C1354 C 0.81407 0.47605 0.4863 0.0
N1355 N 0.77495 0.44533 0.50572 0.0
C1356 C 0.77999 0.44212 0.48026 0.0
Co1357 Co 0.67034 0.50294 0.25907 0.0
Co1358 Co 0.61903 0.53842 0.24134 0.0
O1359 O 0.64318 0.52626 0.26824 0.0
C1360 C 0.65469 0.48715 0.31214 0.0
O1361 O 0.6386 0.50564 0.31445 0.0
C1362 C 0.62622 0.58269 0.28336 0.0
O1363 O 0.64065 0.56942 0.29872 0.0
O1364 O 0.64887 0.55288 0.22292 0.0
O1365 O 0.67472 0.51997 0.22559 0.0
H1366 H 0.58799 0.55125 0.14968 0.0
H1367 H 0.67646 0.53539 0.30919 0.0
O1368 O 0.6675 0.48425 0.29204 0.0
H1369 H 0.75493 0.55672 0.26379 0.0
H1370 H 0.74853 0.45135 0.2757 0.0
H1371 H 0.68123 0.4734 0.21073 0.0
H1372 H 0.72128 0.52487 0.24406 0.0
H1373 H 0.71558 0.4817 0.28739 0.0
O1374 O 0.61749 0.57316 0.26104 0.0
H1375 H 0.61672 0.53528 0.18402 0.0
H1376 H 0.57155 0.56853 0.24143 0.0
H1377 H 0.71391 0.4431 0.19818 0.0
H1378 H 0.70968 0.56699 0.32974 0.0
H1379 H 0.74788 0.43191 0.23078 0.0
H1380 H 0.74935 0.57797 0.30704 0.0
O1381 O 0.64338 0.47765 0.24193 0.0
H1382 H 0.56723 0.51889 0.31811 0.0
H1383 H 0.57085 0.50666 0.22365 0.0
H1384 H 0.53373 0.48719 0.24459 0.0
H1385 H 0.53161 0.49334 0.29217 0.0
H1386 H 0.60403 0.53764 0.29651 0.0
H1387 H 0.5424 0.58498 0.20768 0.0
H1388 H 0.5505 0.57628 0.16142 0.0
O1389 O 0.61916 0.50453 0.22022 0.0
C1390 C 0.66796 0.54059 0.21542 0.0
C1391 C 0.58421 0.55509 0.16976 0.0
C1392 C 0.55865 0.57406 0.20232 0.0
N1393 N 0.59574 0.5508 0.21471 0.0
C1394 C 0.60038 0.54604 0.18931 0.0
C1395 C 0.57526 0.56475 0.22134 0.0
C1396 C 0.56319 0.56916 0.17637 0.0
C1397 C 0.69365 0.53961 0.29925 0.0
N1398 N 0.69688 0.52781 0.27556 0.0
C1399 C 0.71243 0.55774 0.31096 0.0
C1400 C 0.73465 0.56393 0.2982 0.0
C1401 C 0.73779 0.55203 0.27396 0.0
C1402 C 0.71859 0.534 0.26286 0.0
C1403 C 0.73385 0.45612 0.26131 0.0
C1404 C 0.69603 0.46873 0.225 0.0
C1405 C 0.71511 0.47324 0.26782 0.0
N1406 N 0.6966 0.47947 0.2497 0.0
C1407 C 0.71445 0.45152 0.21779 0.0
C1408 C 0.73348 0.44522 0.2361 0.0
C1409 C 0.62623 0.48184 0.22428 0.0
C1410 C 0.5678 0.51625 0.29733 0.0
C1411 C 0.57019 0.50953 0.24437 0.0
C1412 C 0.54904 0.49842 0.25611 0.0
C1413 C 0.54786 0.50187 0.28279 0.0
N1414 N 0.58963 0.52388 0.25869 0.0
C1415 C 0.58864 0.52707 0.2849 0.0
H1416 H 0.12584 0.42539 0.3048 0.0
H1417 H 0.09207 0.48499 0.35171 0.0
H1418 H 0.07799 0.45226 0.38153 0.0
H1419 H 0.0744 0.37701 0.31028 0.0
H1420 H 0.09535 0.35047 0.31094 0.0
H1421 H 0.1044 0.37883 0.29437 0.0
H1422 H 0.14803 0.38428 0.32195 0.0
H1423 H 0.13903 0.35597 0.33868 0.0
H1424 H 0.14787 0.3863 0.35671 0.0
H1425 H 0.06738 0.4128 0.40631 0.0
H1426 H 0.05727 0.36938 0.42161 0.0
H1427 H 0.09577 0.33492 0.35732 0.0
C1428 C 0.11574 0.43159 0.32152 0.0
C1429 C 0.11033 0.45786 0.32609 0.0
C1430 C 0.09653 0.46504 0.34786 0.0
C1431 C 0.08854 0.44658 0.36497 0.0
C1432 C 0.09415 0.42086 0.35992 0.0
C1433 C 0.10715 0.41329 0.33854 0.0
C1434 C 0.10921 0.38415 0.33661 0.0
C1435 C 0.09499 0.3719 0.31157 0.0
C1436 C 0.13773 0.37728 0.33861 0.0
C1437 C 0.09538 0.37653 0.36023 0.0
C1438 C 0.08713 0.39803 0.3736 0.0
C1439 C 0.07376 0.39584 0.39597 0.0
C1440 C 0.0682 0.37105 0.4046 0.0
C1441 C 0.0757 0.34861 0.39076 0.0
C1442 C 0.08977 0.3516 0.36843 0.0
H1443 H 0.96273 0.82209 0.57022 0.0
H1444 H 0.94371 0.80103 0.64665 0.0
H1445 H 0.89978 0.8166 0.63914 0.0
H1446 H 0.92997 0.88169 0.57298 0.0
H1447 H 0.91928 0.87917 0.5392 0.0
H1448 H 0.94862 0.86484 0.54989 0.0
H1449 H 0.93062 0.82042 0.52868 0.0
H1450 H 0.90123 0.83462 0.51791 0.0
H1451 H 0.89964 0.80691 0.53724 0.0
H1452 H 0.85701 0.83259 0.62233 0.0
H1453 H 0.8205 0.85259 0.59954 0.0
H1454 H 0.86885 0.86791 0.53623 0.0
C1455 C 0.9492 0.82064 0.58525 0.0
C1456 C 0.95645 0.81013 0.60893 0.0
C1457 C 0.93847 0.80899 0.62838 0.0
C1458 C 0.91346 0.8177 0.62425 0.0
C1459 C 0.90688 0.82806 0.60075 0.0
C1460 C 0.92436 0.82999 0.58173 0.0
C1461 C 0.91289 0.84336 0.55888 0.0
C1462 C 0.92863 0.86878 0.55502 0.0
C1463 C 0.91098 0.82524 0.53422 0.0
C1464 C 0.88621 0.84847 0.56793 0.0
C1465 C 0.88296 0.83907 0.59194 0.0
C1466 C 0.85947 0.84035 0.60369 0.0
C1467 C 0.83885 0.85169 0.59064 0.0
C1468 C 0.84206 0.86217 0.56643 0.0
C1469 C 0.86608 0.86054 0.55501 0.0
H1470 H 0.44466 0.5905 0.78659 0.0
H1471 H 0.37646 0.58061 0.83071 0.0
H1472 H 0.3919 0.61872 0.85924 0.0
H1473 H 0.4896 0.61003 0.8403 0.0
H1474 H 0.5078 0.63353 0.82326 0.0
H1475 H 0.49119 0.60575 0.80575 0.0
H1476 H 0.46656 0.6359 0.77619 0.0
H1477 H 0.48314 0.66376 0.7936 0.0
H1478 H 0.44819 0.66086 0.79051 0.0
H1479 H 0.41528 0.65712 0.88409 0.0
H1480 H 0.44419 0.69406 0.90238 0.0
H1481 H 0.49703 0.67979 0.84198 0.0
C1482 C 0.43287 0.59637 0.80216 0.0
C1483 C 0.40928 0.58234 0.80631 0.0
C1484 C 0.39456 0.59087 0.82699 0.0
C1485 C 0.40318 0.61255 0.84339 0.0
C1486 C 0.42656 0.62572 0.83892 0.0
C1487 C 0.44115 0.61809 0.81872 0.0
C1488 C 0.46565 0.63565 0.81829 0.0
C1489 C 0.49 0.62032 0.82213 0.0
C1490 C 0.46589 0.64989 0.79315 0.0
C1491 C 0.46259 0.65423 0.84146 0.0
C1492 C 0.43993 0.6481 0.8531 0.0
C1493 C 0.43303 0.66218 0.87505 0.0
C1494 C 0.44965 0.68315 0.88535 0.0
C1495 C 0.47294 0.69002 0.87368 0.0
C1496 C 0.47937 0.67522 0.85139 0.0
H1497 H 0.60267 0.21164 0.12288 0.0
H1498 H 0.58966 0.26934 0.06688 0.0
H1499 H 0.62605 0.25452 0.04317 0.0
H1500 H 0.67311 0.21552 0.12306 0.0
H1501 H 0.67609 0.18123 0.12509 0.0
H1502 H 0.64906 0.1964 0.13855 0.0
H1503 H 0.61716 0.16421 0.11073 0.0
H1504 H 0.64409 0.14896 0.09716 0.0
H1505 H 0.61934 0.16132 0.07618 0.0
H1506 H 0.66363 0.23454 0.02526 0.0
H1507 H 0.69982 0.20908 0.01293 0.0
H1508 H 0.6896 0.16235 0.0788 0.0
C1509 C 0.60754 0.22117 0.10567 0.0
C1510 C 0.59308 0.24181 0.09693 0.0
C1511 C 0.60014 0.25355 0.07416 0.0
C1512 C 0.62093 0.24529 0.06046 0.0
C1513 C 0.63466 0.22504 0.06949 0.0
C1514 C 0.6283 0.21294 0.09143 0.0
C1515 C 0.64625 0.19119 0.0963 0.0
C1516 C 0.66207 0.1964 0.1223 0.0
C1517 C 0.63078 0.16486 0.09501 0.0
C1518 C 0.66358 0.19313 0.07369 0.0
C1519 C 0.65647 0.21295 0.05865 0.0
C1520 C 0.66937 0.21892 0.03684 0.0
C1521 C 0.69004 0.20424 0.03001 0.0
C1522 C 0.69781 0.18352 0.04478 0.0
C1523 C 0.68427 0.17798 0.06702 0.0
H1524 H 0.08189 0.60125 0.25572 0.0
H1525 H 0.13835 0.58547 0.19915 0.0
H1526 H 0.12276 0.62064 0.17384 0.0
H1527 H 0.0302 0.61728 0.21017 0.0
H1528 H 0.01935 0.64304 0.23087 0.0
H1529 H 0.03454 0.61626 0.24479 0.0
H1530 H 0.0685 0.64817 0.27032 0.0
H1531 H 0.05343 0.67504 0.25646 0.0
H1532 H 0.08746 0.671 0.25319 0.0
H1533 H 0.10124 0.65711 0.15405 0.0
H1534 H 0.07576 0.69344 0.14157 0.0
H1535 H 0.03335 0.68752 0.21088 0.0
C1536 C 0.09093 0.60513 0.23798 0.0
C1537 C 0.11143 0.59033 0.22954 0.0
C1538 C 0.1227 0.59633 0.20621 0.0
C1539 C 0.11395 0.61634 0.19159 0.0
C1540 C 0.09387 0.63051 0.20042 0.0
C1541 C 0.0825 0.62532 0.2231 0.0
C1542 C 0.06146 0.64396 0.22823 0.0
C1543 C 0.03481 0.62926 0.22853 0.0
C1544 C 0.06812 0.66052 0.25355 0.0
C1545 C 0.06282 0.66032 0.20488 0.0
C1546 C 0.08163 0.65207 0.18911 0.0
C1547 C 0.0865 0.6638 0.1663 0.0
C1548 C 0.07185 0.68453 0.15937 0.0
C1549 C 0.05249 0.69366 0.17519 0.0
C1550 C 0.04802 0.68123 0.19833 0.0
H1551 H 0.60145 0.79013 0.44169 0.0
H1552 H 0.58613 0.8433 0.38181 0.0
H1553 H 0.62332 0.87199 0.39964 0.0
H1554 H 0.61983 0.83851 0.49279 0.0
H1555 H 0.64506 0.82052 0.5073 0.0
H1556 H 0.6175 0.80364 0.48957 0.0
H1557 H 0.64823 0.77976 0.46012 0.0
H1558 H 0.67589 0.79653 0.4778 0.0
H1559 H 0.67166 0.79829 0.44327 0.0
H1560 H 0.66169 0.89561 0.42433 0.0
H1561 H 0.6995 0.91163 0.45321 0.0
H1562 H 0.69024 0.8435 0.49742 0.0
C1563 C 0.60591 0.80775 0.43224 0.0
C1564 C 0.59057 0.81439 0.41033 0.0
C1565 C 0.59733 0.83768 0.39862 0.0
C1566 C 0.61849 0.85418 0.40863 0.0
C1567 C 0.6329 0.84725 0.43039 0.0
C1568 C 0.62702 0.82453 0.442 0.0
C1569 C 0.64567 0.82174 0.46527 0.0
C1570 C 0.63115 0.82107 0.49021 0.0
C1571 C 0.66129 0.79765 0.46137 0.0
C1572 C 0.66289 0.84646 0.46491 0.0
C1573 C 0.65514 0.86088 0.44463 0.0
C1574 C 0.66797 0.88445 0.44026 0.0
C1575 C 0.68947 0.89342 0.45685 0.0
C1576 C 0.69808 0.8789 0.47767 0.0
C1577 C 0.68433 0.85514 0.48173 0.0
H1578 H 0.45685 0.31759 0.70329 0.0
H1579 H 0.48196 0.34015 0.62926 0.0
H1580 H 0.46704 0.384 0.63827 0.0
H1581 H 0.39808 0.35293 0.70056 0.0
H1582 H 0.40012 0.36152 0.73479 0.0
H1583 H 0.41331 0.33212 0.72274 0.0
H1584 H 0.45792 0.34688 0.74592 0.0
H1585 H 0.4449 0.37636 0.75798 0.0
H1586 H 0.47327 0.37775 0.73951 0.0
H1587 H 0.45225 0.42658 0.65696 0.0
H1588 H 0.43384 0.46286 0.68153 0.0
H1589 H 0.41422 0.41143 0.74118 0.0
C1590 C 0.45911 0.33177 0.68898 0.0
C1591 C 0.47066 0.3255 0.66561 0.0
C1592 C 0.47307 0.34449 0.64723 0.0
C1593 C 0.46476 0.36949 0.65223 0.0
C1594 C 0.45357 0.37512 0.67549 0.0
C1595 C 0.45029 0.35666 0.69336 0.0
C1596 C 0.43681 0.36744 0.71643 0.0
C1597 C 0.41051 0.35262 0.71876 0.0
C1598 C 0.45427 0.36709 0.74143 0.0
C1599 C 0.4333 0.39491 0.70889 0.0
C1600 C 0.44346 0.39908 0.68539 0.0
C1601 C 0.44385 0.4234 0.67517 0.0
C1602 C 0.43342 0.44389 0.68924 0.0
C1603 C 0.42221 0.43981 0.71295 0.0
C1604 C 0.42215 0.41495 0.72279 0.0
H1605 H 0.92571 0.20851 0.88109 0.0
H1606 H 0.97598 0.19347 0.9478 0.0
H1607 H 0.93814 0.17617 0.96933 0.0
H1608 H 0.87407 0.23026 0.91631 0.0
H1609 H 0.84858 0.21581 0.8939 0.0
H1610 H 0.87982 0.22492 0.88259 0.0
H1611 H 0.88343 0.17814 0.86339 0.0
H1612 H 0.85214 0.16888 0.87461 0.0
H1613 H 0.88001 0.15146 0.88391 0.0
H1614 H 0.89461 0.1635 0.9852 0.0
H1615 H 0.84851 0.1561 0.99402 0.0
H1616 H 0.8259 0.17883 0.91717 0.0
C1617 C 0.92883 0.20109 0.9 0.0
C1618 C 0.95397 0.20225 0.91264 0.0
C1619 C 0.95703 0.19279 0.93764 0.0
C1620 C 0.93561 0.18285 0.95005 0.0
C1621 C 0.91109 0.1824 0.9373 0.0
C1622 C 0.90755 0.19115 0.91279 0.0
C1623 C 0.87891 0.18973 0.90401 0.0
C1624 C 0.86982 0.21679 0.89891 0.0
C1625 C 0.8733 0.17093 0.88006 0.0
C1626 C 0.86694 0.17916 0.92754 0.0
C1627 C 0.88589 0.17496 0.94646 0.0
C1628 C 0.87962 0.16643 0.9704 0.0
C1629 C 0.85333 0.16229 0.97525 0.0
C1630 C 0.83348 0.16661 0.95626 0.0
C1631 C 0.84054 0.17489 0.93197 0.0
H1632 H 0.32885 0.08439 0.45361 0.0
H1633 H 0.31963 0.16462 0.4377 0.0
H1634 H 0.33965 0.15736 0.39596 0.0
H1635 H 0.3918 0.08032 0.42658 0.0
H1636 H 0.38511 0.04733 0.41393 0.0
H1637 H 0.37007 0.05889 0.44242 0.0
H1638 H 0.3247 0.045 0.42047 0.0
H1639 H 0.33957 0.0333 0.39197 0.0
H1640 H 0.31542 0.05684 0.38952 0.0
H1641 H 0.35734 0.14015 0.3544 0.0
H1642 H 0.37429 0.11526 0.31762 0.0
H1643 H 0.37576 0.04743 0.3624 0.0
C1644 C 0.33104 0.10044 0.44133 0.0
C1645 C 0.3225 0.12504 0.44875 0.0
C1646 C 0.32603 0.14563 0.43235 0.0
C1647 C 0.33736 0.14167 0.40863 0.0
C1648 C 0.34552 0.11715 0.40187 0.0
C1649 C 0.34281 0.09697 0.4179 0.0
C1650 C 0.35345 0.07257 0.40629 0.0
C1651 C 0.37648 0.0643 0.42332 0.0
C1652 C 0.332 0.05064 0.40179 0.0
C1653 C 0.36218 0.08201 0.38097 0.0
C1654 C 0.35724 0.10773 0.3787 0.0
C1655 C 0.36178 0.12018 0.35619 0.0
C1656 C 0.37141 0.10594 0.33544 0.0
C1657 C 0.37692 0.07971 0.33751 0.0
C1658 C 0.37251 0.06772 0.36068 0.0
H1659 H 0.16284 0.0774 0.68095 0.0
H1660 H 0.21671 0.01781 0.69534 0.0
H1661 H 0.24326 0.03341 0.66134 0.0
H1662 H 0.16622 0.07451 0.61182 0.0
H1663 H 0.16495 0.10888 0.60895 0.0
H1664 H 0.14995 0.09376 0.6351 0.0
H1665 H 0.17711 0.12535 0.66811 0.0
H1666 H 0.19223 0.14054 0.64204 0.0
H1667 H 0.21196 0.12769 0.66745 0.0
H1668 H 0.26347 0.05353 0.62541 0.0
H1669 H 0.27719 0.07796 0.58924 0.0
H1670 H 0.21186 0.12624 0.59666 0.0
C1671 C 0.18031 0.06776 0.67706 0.0
C1672 C 0.18757 0.04632 0.6911 0.0
C1673 C 0.21056 0.03424 0.68514 0.0
C1674 C 0.22589 0.04297 0.66576 0.0
C1675 C 0.2182 0.06393 0.65233 0.0
C1676 C 0.19607 0.07632 0.65764 0.0
C1677 C 0.19238 0.09828 0.63974 0.0
C1678 C 0.16686 0.09357 0.6229 0.0
C1679 C 0.19349 0.12452 0.65527 0.0
C1680 C 0.21583 0.09605 0.62354 0.0
C1681 C 0.2303 0.076 0.6313 0.0
C1682 C 0.2524 0.06936 0.61921 0.0
C1683 C 0.25999 0.08342 0.59852 0.0
C1684 C 0.24571 0.10417 0.5899 0.0
C1685 C 0.22335 0.11068 0.60284 0.0
H1686 H 0.19162 0.91584 0.81073 0.0
H1687 H 0.14753 0.98078 0.83438 0.0
H1688 H 0.15316 0.96938 0.87982 0.0
H1689 H 0.16993 0.8711 0.85914 0.0
H1690 H 0.20159 0.8588 0.8641 0.0
H1691 H 0.19142 0.87 0.83311 0.0
H1692 H 0.23222 0.90169 0.83526 0.0
H1693 H 0.24248 0.89064 0.86623 0.0
H1694 H 0.23855 0.92458 0.86274 0.0
H1695 H 0.16583 0.95296 0.92258 0.0
H1696 H 0.18638 0.93417 0.9604 0.0
H1697 H 0.22416 0.88054 0.90983 0.0
C1698 C 0.18258 0.92724 0.82541 0.0
C1699 C 0.16873 0.94897 0.819 0.0
C1700 C 0.15797 0.96394 0.83885 0.0
C1701 C 0.16103 0.95756 0.86468 0.0
C1702 C 0.1751 0.93627 0.87042 0.0
C1703 C 0.18581 0.92137 0.8514 0.0
C1704 C 0.20199 0.90094 0.86307 0.0
C1705 C 0.19054 0.87359 0.85433 0.0
C1706 C 0.23049 0.9047 0.85643 0.0
C1707 C 0.19902 0.90695 0.89166 0.0
C1708 C 0.18313 0.92719 0.89535 0.0
C1709 C 0.17816 0.937 0.91993 0.0
C1710 C 0.19004 0.92618 0.94133 0.0
C1711 C 0.20698 0.90583 0.9382 0.0
C1712 C 0.21113 0.89584 0.91293 0.0
H1713 H 0.32291 0.90343 0.09624 0.0
H1714 H 0.25694 0.95107 0.08663 0.0
H1715 H 0.27551 0.98122 0.12158 0.0
H1716 H 0.32943 0.91328 0.16719 0.0
H1717 H 0.36438 0.91445 0.169 0.0
H1718 H 0.34611 0.89568 0.14297 0.0
H1719 H 0.37118 0.92088 0.1098 0.0
H1720 H 0.38935 0.93989 0.13572 0.0
H1721 H 0.37135 0.95571 0.11108 0.0
H1722 H 0.30104 1.00781 0.155 0.0
H1723 H 0.33083 0.02801 0.18958 0.0
H1724 H 0.38067 0.96367 0.18176 0.0
C1725 C 0.31231 0.92009 0.10167 0.0
C1726 C 0.28848 0.92482 0.08823 0.0
C1727 C 0.27528 0.94689 0.09614 0.0
C1728 C 0.28567 0.9643 0.1161 0.0
C1729 C 0.30926 0.95946 0.12847 0.0
C1730 C 0.32238 0.93781 0.12201 0.0
C1731 C 0.34734 0.93756 0.13917 0.0
C1732 C 0.34677 0.91383 0.15556 0.0
C1733 C 0.37122 0.93857 0.12297 0.0
C1734 C 0.34607 0.96254 0.15595 0.0
C1735 C 0.32392 0.97475 0.14908 0.0
C1736 C 0.31831 0.99831 0.16086 0.0
C1737 C 0.3355 1.00964 0.18062 0.0
C1738 C 0.35809 0.99738 0.1889 0.0
C1739 C 0.36355 0.97351 0.1761 0.0
H1740 H 0.35821 0.37016 0.04772 0.0
H1741 H 0.31098 0.35394 0.1116 0.0
H1742 H 0.34825 0.33459 0.13398 0.0
H1743 H 0.38969 0.30995 0.04802 0.0
H1744 H 0.42022 0.32397 0.03882 0.0
H1745 H 0.39038 0.3378 0.02882 0.0
H1746 H 0.40803 0.3824 0.04989 0.0
H1747 H 0.43791 0.3687 0.05995 0.0
H1748 H 0.41941 0.38506 0.0835 0.0
H1749 H 0.39207 0.3191 0.15016 0.0
H1750 H 0.43647 0.304 0.15647 0.0
H1751 H 0.45306 0.32594 0.07967 0.0
C1752 C 0.35584 0.36277 0.06657 0.0
C1753 C 0.33195 0.364 0.07828 0.0
C1754 C 0.32925 0.35341 0.10251 0.0
C1755 C 0.35031 0.34244 0.11532 0.0
C1756 C 0.3737 0.3416 0.10327 0.0
C1757 C 0.37637 0.35107 0.07919 0.0
C1758 C 0.40293 0.34644 0.06964 0.0
C1759 C 0.40066 0.32847 0.04486 0.0
C1760 C 0.41795 0.37218 0.06551 0.0
C1761 C 0.41501 0.33322 0.09225 0.0
C1762 C 0.39801 0.33094 0.11164 0.0
C1763 C 0.40537 0.3205 0.13494 0.0
C1764 C 0.43063 0.31205 0.1384 0.0
C1765 C 0.44804 0.31354 0.11847 0.0
C1766 C 0.44 0.32419 0.09509 0.0
H1767 H 0.98546 0.86077 0.16839 0.0
H1768 H 0.935 0.80609 0.20479 0.0
H1769 H 0.90681 0.84143 0.21659 0.0
H1770 H 0.98184 0.91283 0.21699 0.0
H1771 H 0.98323 0.9377 0.19421 0.0
H1772 H 0.99846 0.90786 0.18775 0.0
H1773 H 0.97172 0.90088 0.1438 0.0
H1774 H 0.95624 0.93059 0.15026 0.0
H1775 H 0.93683 0.90073 0.14302 0.0
H1776 H 0.88336 0.88304 0.22307 0.0
H1777 H 0.86999 0.9279 0.22907 0.0
H1778 H 0.93775 0.95567 0.19118 0.0
C1779 C 0.96841 0.85621 0.17876 0.0
C1780 C 0.96222 0.83062 0.18545 0.0
C1781 C 0.94005 0.82554 0.19946 0.0
C1782 C 0.92388 0.84546 0.2061 0.0
C1783 C 0.9304 0.87046 0.19898 0.0
C1784 C 0.95244 0.87594 0.18605 0.0
C1785 C 0.95604 0.90462 0.18199 0.0
C1786 C 0.98139 0.91644 0.19608 0.0
C1787 C 0.95515 0.90948 0.15304 0.0
C1788 C 0.9325 0.91447 0.19448 0.0
C1789 C 0.91772 0.89444 0.20383 0.0
C1790 C 0.89488 0.89885 0.21591 0.0
C1791 C 0.88733 0.9244 0.21906 0.0
C1792 C 0.90277 0.94534 0.21056 0.0
C1793 C 0.9255 0.94011 0.19787 0.0
H1794 H 0.19059 0.7026 0.53434 0.0
H1795 H 0.20289 0.63934 0.58396 0.0
H1796 H 0.16632 0.65209 0.60906 0.0
H1797 H 0.17248 0.74888 0.58363 0.0
H1798 H 0.14782 0.7621 0.56319 0.0
H1799 H 0.17532 0.74837 0.54918 0.0
H1800 H 0.14441 0.71736 0.51897 0.0
H1801 H 0.11681 0.73099 0.53289 0.0
H1802 H 0.1204 0.69663 0.53272 0.0
H1803 H 0.12899 0.67222 0.62972 0.0
H1804 H 0.09212 0.69682 0.64293 0.0
H1805 H 0.10211 0.74604 0.57902 0.0
C1806 C 0.18565 0.69144 0.55052 0.0
C1807 C 0.19989 0.66995 0.55714 0.0
C1808 C 0.19247 0.65583 0.57837 0.0
C1809 C 0.17168 0.66297 0.59284 0.0
C1810 C 0.15812 0.68418 0.58582 0.0
C1811 C 0.16464 0.69811 0.56504 0.0
C1812 C 0.14641 0.71975 0.5613 0.0
C1813 C 0.16141 0.74635 0.56452 0.0
C1814 C 0.1311 0.71594 0.5349 0.0
C1815 C 0.12876 0.71584 0.5833 0.0
C1816 C 0.13602 0.69532 0.59729 0.0
C1817 C 0.12306 0.68825 0.61881 0.0
C1818 C 0.10212 0.70242 0.62622 0.0
C1819 C 0.09399 0.72339 0.61205 0.0
C1820 C 0.10761 0.73005 0.59023 0.0
H1821 H 0.01298 0.64822 0.65951 0.0
H1822 H 0.97749 0.71457 0.69403 0.0
H1823 H 0.94598 0.68542 0.71351 0.0
H1824 H 0.95391 0.60661 0.64618 0.0
H1825 H 0.96896 0.57762 0.65493 0.0
H1826 H 0.988 0.6036 0.64224 0.0
H1827 H 0.02 0.60543 0.68277 0.0
H1828 H 1.00108 0.57942 0.69549 0.0
H1829 H 1.00775 0.6096 0.71441 0.0
H1830 H 0.91816 0.64926 0.7295 0.0
H1831 H 0.8983 0.60853 0.74376 0.0
H1832 H 0.95289 0.56525 0.70102 0.0
C1833 C 0.99843 0.65658 0.67098 0.0
C1834 C 0.99764 0.68376 0.67501 0.0
C1835 C 0.97854 0.69388 0.69055 0.0
C1836 C 0.96044 0.67746 0.70167 0.0
C1837 C 0.96176 0.65083 0.6974 0.0
C1838 C 0.9804 0.64039 0.68267 0.0
C1839 C 0.97833 0.61103 0.68237 0.0
C1840 C 0.97192 0.59901 0.65479 0.0
C1841 C 1.00327 0.60077 0.69448 0.0
C1842 C 0.9557 0.6067 0.69924 0.0
C1843 C 0.94624 0.62992 0.70744 0.0
C1844 C 0.92542 0.63094 0.72322 0.0
C1845 C 0.91419 0.60765 0.73117 0.0
C1846 C 0.92396 0.58358 0.72361 0.0
C1847 C 0.9449 0.58325 0.70721 0.0
H1848 H 0.19885 0.20583 0.50229 0.0
H1849 H 0.16973 0.12529 0.4944 0.0
H1850 H 0.13205 0.13725 0.46739 0.0
H1851 H 0.1363 0.23308 0.50614 0.0
H1852 H 0.14469 0.26044 0.4878 0.0
H1853 H 0.16957 0.24565 0.50654 0.0
H1854 H 0.1951 0.23893 0.46556 0.0
H1855 H 0.17017 0.25351 0.44666 0.0
H1856 H 0.1794 0.2215 0.43724 0.0
H1857 H 0.09695 0.15757 0.4424 0.0
H1858 H 0.06599 0.18527 0.42126 0.0
H1859 H 0.11754 0.25296 0.44336 0.0
C1860 C 0.1845 0.19072 0.49496 0.0
C1861 C 0.1873 0.16455 0.50065 0.0
C1862 C 0.16808 0.14543 0.49051 0.0
C1863 C 0.14659 0.15203 0.47503 0.0
C1864 C 0.1445 0.17787 0.46968 0.0
C1865 C 0.16285 0.19697 0.47933 0.0
C1866 C 0.15562 0.22332 0.47074 0.0
C1867 C 0.15129 0.24171 0.4942 0.0
C1868 C 0.17631 0.235 0.45406 0.0
C1869 C 0.13033 0.21601 0.45481 0.0
C1870 C 0.12436 0.18964 0.45457 0.0
C1871 C 0.10152 0.17819 0.44226 0.0
C1872 C 0.08408 0.19408 0.43027 0.0
C1873 C 0.08954 0.22117 0.43033 0.0
C1874 C 0.11319 0.23224 0.44247 0.0
H1875 H 0.63236 0.42946 0.22797 0.0
H1876 H 0.5929 0.48404 0.18155 0.0
H1877 H 0.57253 0.44789 0.15315 0.0
H1878 H 0.64434 0.38351 0.17496 0.0
H1879 H 0.63823 0.35554 0.19322 0.0
H1880 H 0.65072 0.38574 0.20955 0.0
H1881 H 0.61217 0.38451 0.23916 0.0
H1882 H 0.59963 0.35431 0.22292 0.0
H1883 H 0.57944 0.38142 0.22477 0.0
H1884 H 0.55514 0.406 0.13044 0.0
H1885 H 0.54082 0.36108 0.11589 0.0
H1886 H 0.59176 0.33321 0.17638 0.0
C1887 C 0.61957 0.43385 0.21175 0.0
C1888 C 0.61435 0.45975 0.20708 0.0
C1889 C 0.5973 0.46449 0.18567 0.0
C1890 C 0.58564 0.44405 0.16932 0.0
C1891 C 0.59114 0.41884 0.17449 0.0
C1892 C 0.60763 0.41361 0.1952 0.0
C1893 C 0.60949 0.38464 0.19689 0.0
C1894 C 0.63736 0.37691 0.19344 0.0
C1895 C 0.59959 0.37571 0.22245 0.0
C1896 C 0.59133 0.37447 0.17401 0.0
C1897 C 0.58105 0.39456 0.16132 0.0
C1898 C 0.56315 0.39009 0.14015 0.0
C1899 C 0.55516 0.36443 0.132 0.0
C1900 C 0.56499 0.34342 0.14499 0.0
C1901 C 0.58373 0.34869 0.166 0.0
H1902 H 0.33713 0.85586 0.9522 0.0
H1903 H 0.3562 0.85125 0.03421 0.0
H1904 H 0.39664 0.83079 0.02452 0.0
H1905 H 0.35782 0.79422 0.93381 0.0
H1906 H 0.37069 0.80322 0.9039 0.0
H1907 H 0.34475 0.82045 0.91697 0.0
H1908 H 0.37225 0.86374 0.91628 0.0
H1909 H 0.39825 0.84665 0.90304 0.0
H1910 H 0.40425 0.86704 0.93237 0.0
H1911 H 0.43337 0.80899 1.00648 0.0
H1912 H 0.46409 0.78556 0.98127 0.0
H1913 H 0.42105 0.80173 0.91016 0.0
C1914 C 0.3502 0.85113 0.96806 0.0
C1915 C 0.3438 0.8555 0.994 0.0
C1916 C 0.36089 0.84827 0.01425 0.0
C1917 C 0.3839 0.83668 1.00893 0.0
C1918 C 0.38946 0.83216 0.98321 0.0
C1919 C 0.37315 0.83906 0.96305 0.0
C1920 C 0.38285 0.83006 0.93717 0.0
C1921 C 0.36283 0.81085 0.92208 0.0
C1922 C 0.38982 0.85326 0.92128 0.0
C1923 C 0.40694 0.81678 0.94602 0.0
C1924 C 0.41044 0.81857 0.97266 0.0
C1925 C 0.43092 0.80754 0.9856 0.0
C1926 C 0.44828 0.79418 0.971 0.0
C1927 C 0.44507 0.79165 0.94363 0.0
C1928 C 0.42411 0.80329 0.93101 0.0
H1929 H 0.96206 0.43543 0.78175 0.0
H1930 H 0.88394 0.4341 0.80779 0.0
H1931 H 0.89497 0.40052 0.83783 0.0
H1932 H 0.9677 0.36669 0.782 0.0
H1933 H 1.00169 0.36949 0.79231 0.0
H1934 H 0.98785 0.39422 0.77392 0.0
H1935 H 1.00467 0.42888 0.81001 0.0
H1936 H 0.01835 0.40418 0.82861 0.0
H1937 H 0.99576 0.4252 0.84267 0.0
H1938 H 0.91503 0.36726 0.86564 0.0
H1939 H 0.94069 0.33352 0.88485 0.0
H1940 H 1.00469 0.35535 0.83877 0.0
C1941 C 0.9473 0.42811 0.79384 0.0
C1942 C 0.92218 0.43744 0.79256 0.0
C1943 C 0.90329 0.42715 0.80841 0.0
C1944 C 0.90943 0.40821 0.82565 0.0
C1945 C 0.93444 0.39953 0.82657 0.0
C1946 C 0.95295 0.40887 0.81077 0.0
C1947 C 0.97792 0.3953 0.81439 0.0
C1948 C 0.98414 0.38055 0.78916 0.0
C1949 C 1.0005 0.41454 0.82453 0.0
C1950 C 0.9706 0.3769 0.8347 0.0
C1951 C 0.94559 0.37984 0.84179 0.0
C1952 C 0.93463 0.36478 0.86021 0.0
C1953 C 0.94939 0.34578 0.87115 0.0
C1954 C 0.97466 0.34181 0.86333 0.0
C1955 C 0.98542 0.35791 0.84516 0.0
H1956 H 0.33505 0.18829 0.58602 0.0
H1957 H 0.36185 0.12218 0.5421 0.0
H1958 H 0.40645 0.13382 0.55944 0.0
H1959 H 0.38942 0.23172 0.57725 0.0
H1960 H 0.39065 0.24718 0.60934 0.0
H1961 H 0.36027 0.23322 0.59446 0.0
H1962 H 0.35451 0.20506 0.63349 0.0
H1963 H 0.3849 0.21893 0.64851 0.0
H1964 H 0.37971 0.18432 0.64301 0.0
H1965 H 0.44851 0.15362 0.57887 0.0
H1966 H 0.48558 0.17975 0.6009 0.0
H1967 H 0.43267 0.23259 0.63393 0.0
C1968 C 0.35024 0.17613 0.58021 0.0
C1969 C 0.3447 0.15429 0.56256 0.0
C1970 C 0.36533 0.13901 0.5555 0.0
C1971 C 0.39086 0.14543 0.56528 0.0
C1972 C 0.39568 0.16714 0.58231 0.0
C1973 C 0.37601 0.18221 0.58992 0.0
C1974 C 0.38682 0.20483 0.60815 0.0
C1975 C 0.38147 0.23077 0.59661 0.0
C1976 C 0.37583 0.20318 0.63488 0.0
C1977 C 0.41561 0.2002 0.60931 0.0
C1978 C 0.42018 0.17834 0.59416 0.0
C1979 C 0.44518 0.17062 0.59103 0.0
C1980 C 0.46614 0.18564 0.60359 0.0
C1981 C 0.46208 0.2081 0.61935 0.0
C1982 C 0.43638 0.21529 0.62239 0.0
H1983 H 0.56163 0.68522 0.37801 0.0
H1984 H 0.56805 0.73848 0.31679 0.0
H1985 H 0.58901 0.70604 0.29064 0.0
H1986 H 0.62488 0.65877 0.36965 0.0
H1987 H 0.61399 0.62634 0.37637 0.0
H1988 H 0.59894 0.65365 0.39079 0.0
H1989 H 0.55398 0.63471 0.37157 0.0
H1990 H 0.56889 0.60737 0.35711 0.0
H1991 H 0.54916 0.6269 0.33726 0.0
H1992 H 0.60635 0.66732 0.26927 0.0
H1993 H 0.62272 0.62516 0.25565 0.0
H1994 H 0.60973 0.59738 0.33118 0.0
C1995 C 0.56744 0.69004 0.35911 0.0
C1996 C 0.56253 0.71442 0.34943 0.0
C1997 C 0.57093 0.71995 0.32469 0.0
C1998 C 0.58306 0.70162 0.30958 0.0
C1999 C 0.58731 0.67783 0.31948 0.0
C2000 C 0.58015 0.67201 0.34378 0.0
C2001 C 0.58762 0.64496 0.34973 0.0
C2002 C 0.60755 0.646 0.37302 0.0
C2003 C 0.56347 0.62745 0.35418 0.0
C2004 C 0.59969 0.63651 0.32483 0.0
C2005 C 0.59904 0.6558 0.30762 0.0
C2006 C 0.60741 0.6522 0.28272 0.0
C2007 C 0.61666 0.62823 0.27513 0.0
C2008 C 0.61798 0.60831 0.2925 0.0
C2009 C 0.60957 0.61259 0.31777 0.0
H2010 H 0.1277 0.76228 0.10886 0.0
H2011 H 0.06363 0.81188 0.09829 0.0
H2012 H 0.09285 0.84457 0.08069 0.0
H2013 H 0.17703 0.8148 0.12795 0.0
H2014 H 0.20211 0.7994 0.11128 0.0
H2015 H 0.17636 0.78 0.12395 0.0
H2016 H 0.16542 0.75727 0.0785 0.0
H2017 H 0.19102 0.77671 0.06568 0.0
H2018 H 0.15835 0.77654 0.05147 0.0
H2019 H 0.12813 0.87074 0.06126 0.0
H2020 H 0.1678 0.88958 0.04378 0.0
H2021 H 0.20986 0.82467 0.06928 0.0
C2022 C 0.11987 0.78011 0.10307 0.0
C2023 C 0.09327 0.78441 0.10505 0.0
C2024 C 0.08388 0.80806 0.09719 0.0
C2025 C 0.10034 0.82681 0.08706 0.0
C2026 C 0.12632 0.82188 0.08512 0.0
C2027 C 0.13616 0.79927 0.09315 0.0
C2028 C 0.16488 0.79884 0.08876 0.0
C2029 C 0.18105 0.79823 0.11452 0.0
C2030 C 0.17022 0.77598 0.06999 0.0
C2031 C 0.16944 0.8245 0.07664 0.0
C2032 C 0.14691 0.83742 0.07461 0.0
C2033 C 0.14597 0.86092 0.06297 0.0
C2034 C 0.16863 0.87145 0.05303 0.0
C2035 C 0.19207 0.85863 0.05494 0.0
C2036 C 0.19238 0.83499 0.06729 0.0
H2037 H 0.72035 0.95949 0.57069 0.0
H2038 H 0.7391 0.88965 0.60818 0.0
H2039 H 0.7226 0.90784 0.64866 0.0
H2040 H 0.74144 1.00307 0.6241 0.0
H2041 H 0.71646 0.02518 0.61814 0.0
H2042 H 0.72772 1.00576 0.59171 0.0
H2043 H 0.68066 0.98746 0.57931 0.0
H2044 H 0.66921 1.00682 0.60571 0.0
H2045 H 0.66216 0.97227 0.60321 0.0
H2046 H 0.70524 0.9344 0.68546 0.0
H2047 H 0.6899 0.96736 0.71603 0.0
H2048 H 0.68461 0.02081 0.65493 0.0
C2049 C 0.72102 0.94787 0.58732 0.0
C2050 C 0.73124 0.92308 0.58615 0.0
C2051 C 0.73145 0.90865 0.60849 0.0
C2052 C 0.72209 0.91883 0.63158 0.0
C2053 C 0.71267 0.94353 0.63211 0.0
C2054 C 0.71216 0.95786 0.61056 0.0
C2055 C 0.70232 0.98442 0.61647 0.0
C2056 C 0.72323 1.00587 0.61236 0.0
C2057 C 0.67709 0.98794 0.60021 0.0
C2058 C 0.69745 0.98289 0.64483 0.0
C2059 C 0.70331 0.95904 0.6534 0.0
C2060 C 0.70055 0.95309 0.67892 0.0
C2061 C 0.69176 0.97201 0.69616 0.0
C2062 C 0.68598 0.99678 0.68797 0.0
C2063 C 0.68881 1.00212 0.66186 0.0
H2064 H 0.8547 0.02977 0.3821 0.0
H2065 H 0.86936 0.96901 0.32473 0.0
H2066 H 0.85144 0.93622 0.35242 0.0
H2067 H 0.86841 0.99291 0.43981 0.0
H2068 H 0.84263 1.00674 0.45673 0.0
H2069 H 0.8593 0.02512 0.4337 0.0
H2070 H 0.81531 0.03129 0.40894 0.0
H2071 H 0.79855 0.01272 0.4317 0.0
H2072 H 0.79455 1.00323 0.39768 0.0
H2073 H 0.8283 0.91024 0.38469 0.0
H2074 H 0.80308 0.89329 0.41971 0.0
H2075 H 0.80343 0.97109 0.4556 0.0
C2076 C 0.85482 1.00953 0.37568 0.0
C2077 C 0.86364 1.00197 0.35132 0.0
C2078 C 0.86281 0.97528 0.34336 0.0
C2079 C 0.85267 0.95648 0.35896 0.0
C2080 C 0.84343 0.96462 0.38252 0.0
C2081 C 0.8446 0.9905 0.39096 0.0
C2082 C 0.83189 0.99426 0.4163 0.0
C2083 C 0.85175 1.00542 0.43792 0.0
C2084 C 0.8087 1.01138 0.41347 0.0
C2085 C 0.82304 0.96656 0.42055 0.0
C2086 C 0.82997 0.9497 0.40096 0.0
C2087 C 0.82299 0.92324 0.40028 0.0
C2088 C 0.80859 0.91379 0.4202 0.0
C2089 C 0.80126 0.93079 0.44045 0.0
C2090 C 0.80878 0.95749 0.44052 0.0
H2091 H 0.79377 0.08528 0.0926 0.0
H2092 H 0.79033 0.16357 0.12617 0.0
H2093 H 0.81634 0.15209 0.16482 0.0
H2094 H 0.78917 0.05257 0.15124 0.0
H2095 H 0.81179 0.0288 0.14283 0.0
H2096 H 0.79292 0.04313 0.11777 0.0
H2097 H 0.83511 0.0576 0.09681 0.0
H2098 H 0.85412 0.04338 0.12186 0.0
H2099 H 0.86018 0.07702 0.11589 0.0
H2100 H 0.8406 0.13165 0.20071 0.0
H2101 H 0.86343 0.10427 0.23075 0.0
H2102 H 0.85391 0.03968 0.17331 0.0
C2103 C 0.79845 0.10001 0.10811 0.0
C2104 C 0.78982 0.12534 0.1064 0.0
C2105 C 0.79664 0.14408 0.127 0.0
C2106 C 0.81142 0.13773 0.14905 0.0
C2107 C 0.81957 0.11263 0.15012 0.0
C2108 C 0.81352 0.0941 0.13013 0.0
C2109 C 0.82496 0.06862 0.13611 0.0
C2110 C 0.80342 0.04701 0.13704 0.0
C2111 C 0.84477 0.06123 0.1165 0.0
C2112 C 0.83814 0.07563 0.16274 0.0
C2113 C 0.8346 0.1011 0.17045 0.0
C2114 C 0.84374 0.11179 0.19475 0.0
C2115 C 0.85666 0.09607 0.2117 0.0
C2116 C 0.86071 0.06996 0.20426 0.0
C2117 C 0.85155 0.05972 0.1793 0.0
H2118 H 0.69019 0.0804 0.82897 0.0
H2119 H 0.61693 0.05013 0.85532 0.0
H2120 H 0.62987 0.06843 0.89929 0.0
H2121 H 0.7291 0.06706 0.88464 0.0
H2122 H 0.75015 0.09605 0.8849 0.0
H2123 H 0.73462 0.08211 0.85489 0.0
H2124 H 0.71462 0.12568 0.84647 0.0
H2125 H 0.73013 0.13978 0.87645 0.0
H2126 H 0.69551 0.14049 0.87047 0.0
H2127 H 0.65149 0.08704 0.94086 0.0
H2128 H 0.67992 0.10628 0.9775 0.0
H2129 H 0.73942 0.12564 0.92514 0.0
C2130 C 0.67673 0.07781 0.8439 0.0
C2131 C 0.6525 0.06363 0.83851 0.0
C2132 C 0.63558 0.06077 0.85877 0.0
C2133 C 0.64275 0.07115 0.88389 0.0
C2134 C 0.66687 0.08452 0.8886 0.0
C2135 C 0.68358 0.08807 0.8692 0.0
C2136 C 0.70876 0.10256 0.87981 0.0
C2137 C 0.73203 0.08595 0.87582 0.0
C2138 C 0.71246 0.12868 0.86757 0.0
C2139 C 0.70366 0.10629 0.90825 0.0
C2140 C 0.67934 0.0957 0.91278 0.0
C2141 C 0.67047 0.09563 0.93753 0.0
C2142 C 0.68687 0.10656 0.95827 0.0
C2143 C 0.71193 0.11762 0.95429 0.0
C2144 C 0.72028 0.11766 0.92881 0.0
H2145 H 0.6061 0.74229 0.93324 0.0
H2146 H 0.56033 0.67377 0.90193 0.0
H2147 H 0.59295 0.64611 0.92094 0.0
H2148 H 0.67135 0.71642 0.92696 0.0
H2149 H 0.68407 0.73232 0.95728 0.0
H2150 H 0.659 0.74656 0.93824 0.0
H2151 H 0.6308 0.74767 0.97756 0.0
H2152 H 0.65529 0.73282 0.99669 0.0
H2153 H 0.62274 0.7181 0.99269 0.0
H2154 H 0.62871 0.62592 0.94626 0.0
H2155 H 0.66531 0.61461 0.97535 0.0
H2156 H 0.68732 0.69631 0.99166 0.0
C2157 C 0.60359 0.72149 0.92961 0.0
C2158 C 0.58123 0.71003 0.91545 0.0
C2159 C 0.57774 0.68277 0.91215 0.0
C2160 C 0.59608 0.66696 0.92299 0.0
C2161 C 0.61769 0.67874 0.93735 0.0
C2162 C 0.62162 0.7054 0.9406 0.0
C2163 C 0.64541 0.71306 0.9586 0.0
C2164 C 0.66619 0.72797 0.94442 0.0
C2165 C 0.63811 0.72884 0.98282 0.0
C2166 C 0.654 0.68662 0.96522 0.0
C2167 C 0.63787 0.66709 0.95261 0.0
C2168 C 0.64158 0.64107 0.95609 0.0
C2169 C 0.6624 0.63482 0.97275 0.0
C2170 C 0.67925 0.65449 0.98591 0.0
C2171 C 0.67485 0.68074 0.98196 0.0
H2172 H 0.10717 0.08822 0.82347 0.0
H2173 H 0.11495 0.11541 0.74678 0.0
H2174 H 0.09827 0.15723 0.76108 0.0
H2175 H 0.04643 0.11682 0.83305 0.0
H2176 H 0.05339 0.12483 0.8671 0.0
H2177 H 0.06773 0.09765 0.85165 0.0
H2178 H 0.11348 0.11705 0.86789 0.0
H2179 H 0.09928 0.14431 0.88339 0.0
H2180 H 0.1235 0.14949 0.86041 0.0
H2181 H 0.08229 0.19607 0.78359 0.0
H2182 H 0.06337 0.22873 0.81122 0.0
H2183 H 0.06102 0.1758 0.87302 0.0
C2184 C 0.10564 0.10316 0.80985 0.0
C2185 C 0.11273 0.09881 0.78409 0.0
C2186 C 0.1098 0.11846 0.76659 0.0
C2187 C 0.10041 0.14226 0.77457 0.0
C2188 C 0.09351 0.14594 0.8 0.0
C2189 C 0.09562 0.12688 0.81734 0.0
C2190 C 0.08519 0.13544 0.84306 0.0
C2191 C 0.06179 0.11762 0.84906 0.0
C2192 C 0.10664 0.13664 0.86498 0.0
C2193 C 0.07704 0.16234 0.83746 0.0
C2194 C 0.08243 0.16797 0.81259 0.0
C2195 C 0.07759 0.19174 0.80296 0.0
C2196 C 0.06664 0.2102 0.81893 0.0
C2197 C 0.05993 0.20483 0.84428 0.0
C2198 C 0.06546 0.18049 0.85368 0.0
H2199 H 0.95228 0.28859 0.46513 0.0
H2200 H 0.92692 0.29789 0.3852 0.0
H2201 H 0.88933 0.32089 0.39987 0.0
H2202 H 0.88957 0.27651 0.48809 0.0
H2203 H 0.89745 0.29395 0.51888 0.0
H2204 H 0.92252 0.279 0.50189 0.0
H2205 H 0.94904 0.32311 0.50365 0.0
H2206 H 0.92398 0.33824 0.52056 0.0
H2207 H 0.9343 0.35074 0.49095 0.0
H2208 H 0.85343 0.34168 0.42373 0.0
H2209 H 0.8225 0.35794 0.45436 0.0
H2210 H 0.87226 0.33544 0.51844 0.0
C2211 C 0.93891 0.29548 0.45062 0.0
C2212 C 0.94259 0.29134 0.42394 0.0
C2213 C 0.92455 0.30077 0.40572 0.0
C2214 C 0.90315 0.31391 0.41388 0.0
C2215 C 0.90012 0.31758 0.44035 0.0
C2216 C 0.91757 0.30864 0.45841 0.0
C2217 C 0.90981 0.31459 0.48568 0.0
C2218 C 0.90452 0.28952 0.49943 0.0
C2219 C 0.93052 0.33275 0.50111 0.0
C2220 C 0.88509 0.32811 0.48022 0.0
C2221 C 0.87981 0.32972 0.45397 0.0
C2222 C 0.85751 0.34067 0.44431 0.0
C2223 C 0.84005 0.3499 0.46189 0.0
C2224 C 0.84497 0.34819 0.48887 0.0
C2225 C 0.86801 0.33738 0.498 0.0
H2226 H 0.57972 0.96054 0.86052 0.0
H2227 H 0.60628 0.93898 0.78498 0.0
H2228 H 0.60124 0.89295 0.79414 0.0
H2229 H 0.61028 0.9098 0.8951 0.0
H2230 H 0.5835 0.90451 0.91517 0.0
H2231 H 0.5903 0.936 0.90333 0.0
H2232 H 0.5433 0.93541 0.88295 0.0
H2233 H 0.53635 0.90398 0.89479 0.0
H2234 H 0.53112 0.90876 0.86083 0.0
H2235 H 0.59182 0.84908 0.81058 0.0
H2236 H 0.57773 0.81046 0.83278 0.0
H2237 H 0.55713 0.85979 0.89788 0.0
C2238 C 0.5847 0.94616 0.84599 0.0
C2239 C 0.59347 0.95353 0.822 0.0
C2240 C 0.59951 0.93397 0.80347 0.0
C2241 C 0.59678 0.9077 0.80853 0.0
C2242 C 0.58798 0.9011 0.83223 0.0
C2243 C 0.58199 0.91972 0.85068 0.0
C2244 C 0.572 0.90725 0.87422 0.0
C2245 C 0.5901 0.91484 0.89838 0.0
C2246 C 0.54403 0.91427 0.87844 0.0
C2247 C 0.57309 0.87875 0.86599 0.0
C2248 C 0.5825 0.87569 0.84174 0.0
C2249 C 0.58456 0.85125 0.82964 0.0
C2250 C 0.57649 0.82938 0.84244 0.0
C2251 C 0.5664 0.83193 0.86718 0.0
C2252 C 0.56503 0.85706 0.87915 0.0
H2253 H 0.96531 0.18804 0.38395 0.0
H2254 H 0.02865 0.20178 0.33417 0.0
H2255 H 1.01133 0.16551 0.3047 0.0
H2256 H 0.96415 0.11774 0.37569 0.0
H2257 H 0.92936 0.1131 0.37577 0.0
H2258 H 0.94609 0.14086 0.39325 0.0
H2259 H 0.91719 0.17112 0.368 0.0
H2260 H 0.90046 0.14346 0.35035 0.0
H2261 H 0.91562 0.16885 0.33316 0.0
H2262 H 0.98732 0.1293 0.27957 0.0
H2263 H 0.95927 0.09227 0.26127 0.0
H2264 H 0.91184 0.09825 0.32741 0.0
C2265 C 0.97547 0.18344 0.36682 0.0
C2266 C 0.99823 0.19827 0.36135 0.0
C2267 C 1.01106 0.19123 0.33883 0.0
C2268 C 1.00139 0.17051 0.32186 0.0
C2269 C 0.97896 0.15653 0.32764 0.0
C2270 C 0.96622 0.16238 0.34963 0.0
C2271 C 0.94281 0.14341 0.35125 0.0
C2272 C 0.94579 0.12785 0.37543 0.0
C2273 C 0.91752 0.15756 0.35065 0.0
C2274 C 0.94447 0.12623 0.32665 0.0
C2275 C 0.96545 0.13445 0.31338 0.0
C2276 C 0.97097 0.12245 0.28989 0.0
C2277 C 0.95483 0.10128 0.27967 0.0
C2278 C 0.93342 0.09185 0.29297 0.0
C2279 C 0.92816 0.1047 0.31683 0.0
H2280 H 0.58075 0.09409 0.74902 0.0
H2281 H 0.65121 0.0887 0.70807 0.0
H2282 H 0.63964 0.12588 0.68352 0.0
H2283 H 0.53977 0.11209 0.695 0.0
H2284 H 0.52223 0.13454 0.71398 0.0
H2285 H 0.53579 0.10731 0.72866 0.0
H2286 H 0.56091 0.13833 0.76364 0.0
H2287 H 0.54744 0.16565 0.74905 0.0
H2288 H 0.58211 0.16433 0.75393 0.0
H2289 H 0.62062 0.16302 0.66262 0.0
H2290 H 0.59583 0.19872 0.64736 0.0
H2291 H 0.53758 0.18199 0.7019 0.0
C2292 C 0.59377 0.10071 0.7349 0.0
C2293 C 0.61695 0.08816 0.73055 0.0
C2294 C 0.63336 0.09769 0.71188 0.0
C2295 C 0.62696 0.11891 0.69776 0.0
C2296 C 0.60408 0.13072 0.70245 0.0
C2297 C 0.58773 0.12211 0.72062 0.0
C2298 C 0.56438 0.13862 0.72183 0.0
C2299 C 0.53904 0.12215 0.71442 0.0
C2300 C 0.56368 0.15256 0.74871 0.0
C2301 C 0.57019 0.15773 0.70146 0.0
C2302 C 0.59318 0.15265 0.69054 0.0
C2303 C 0.60263 0.16723 0.6711 0.0
C2304 C 0.5883 0.18755 0.66252 0.0
C2305 C 0.56465 0.19343 0.67336 0.0
C2306 C 0.55559 0.1782 0.69322 0.0
H2307 H 0.18588 0.33681 0.99747 0.0
H2308 H 0.19646 0.40401 0.95216 0.0
H2309 H 0.15998 0.38714 0.92211 0.0
H2310 H 0.17066 0.29072 0.94343 0.0
H2311 H 0.14672 0.27195 0.95941 0.0
H2312 H 0.17325 0.28958 0.9781 0.0
H2313 H 0.14063 0.31327 1.00547 0.0
H2314 H 0.11402 0.29568 0.98689 0.0
H2315 H 0.11568 0.33054 0.9895 0.0
H2316 H 0.12262 0.36306 0.89649 0.0
H2317 H 0.08616 0.33385 0.87773 0.0
H2318 H 0.10041 0.28121 0.93836 0.0
C2319 C 0.18056 0.34804 0.98128 0.0
C2320 C 0.19434 0.37176 0.97725 0.0
C2321 C 0.18645 0.38577 0.95577 0.0
C2322 C 0.16569 0.37634 0.9385 0.0
C2323 C 0.15289 0.35276 0.94277 0.0
C2324 C 0.15992 0.33879 0.96364 0.0
C2325 C 0.14301 0.31381 0.96353 0.0
C2326 C 0.15939 0.29011 0.96096 0.0
C2327 C 0.12741 0.31331 0.98779 0.0
C2328 C 0.1254 0.31601 0.93937 0.0
C2329 C 0.13144 0.33867 0.92775 0.0
C2330 C 0.1177 0.34525 0.90543 0.0
C2331 C 0.09699 0.32845 0.89488 0.0
C2332 C 0.09012 0.30518 0.90655 0.0
C2333 C 0.10491 0.29883 0.92894 0.0
H2334 H 0.42499 0.74731 0.41523 0.0
H2335 H 0.47289 0.68291 0.42809 0.0
H2336 H 0.43607 0.65948 0.447 0.0
H2337 H 0.39383 0.7442 0.47555 0.0
H2338 H 0.36312 0.75365 0.46211 0.0
H2339 H 0.3928 0.76463 0.44866 0.0
H2340 H 0.37517 0.74523 0.40345 0.0
H2341 H 0.34546 0.73417 0.41676 0.0
H2342 H 0.36418 0.71151 0.39941 0.0
H2343 H 0.39282 0.64228 0.46207 0.0
H2344 H 0.34867 0.63455 0.4769 0.0
H2345 H 0.33053 0.71217 0.45853 0.0
C2346 C 0.42765 0.72817 0.42185 0.0
C2347 C 0.45161 0.71664 0.41979 0.0
C2348 C 0.45462 0.69193 0.42931 0.0
C2349 C 0.4338 0.67852 0.44002 0.0
C2350 C 0.41036 0.6904 0.44164 0.0
C2351 C 0.40736 0.71489 0.43324 0.0
C2352 C 0.38067 0.72394 0.43838 0.0
C2353 C 0.38274 0.74803 0.4573 0.0
C2354 C 0.36548 0.729 0.41298 0.0
C2355 C 0.36887 0.70056 0.45062 0.0
C2356 C 0.3862 0.68128 0.452 0.0
C2357 C 0.37927 0.65737 0.46137 0.0
C2358 C 0.35411 0.65312 0.46965 0.0
C2359 C 0.33628 0.67282 0.46905 0.0
C2360 C 0.34388 0.69689 0.45952 0.0
H2361 H 0.83584 0.61137 0.81913 0.0
H2362 H 0.88279 0.54827 0.84015 0.0
H2363 H 0.87475 0.55737 0.88598 0.0
H2364 H 0.85409 0.65475 0.87731 0.0
H2365 H 0.82182 0.66569 0.87939 0.0
H2366 H 0.83324 0.65603 0.84838 0.0
H2367 H 0.79367 0.62302 0.83979 0.0
H2368 H 0.78217 0.63253 0.87075 0.0
H2369 H 0.78755 0.59905 0.8628 0.0
H2370 H 0.85965 0.5711 0.92892 0.0
H2371 H 0.83769 0.58797 0.96646 0.0
H2372 H 0.79941 0.64204 0.91853 0.0
C2373 C 0.84487 0.59986 0.83347 0.0
C2374 C 0.86017 0.57923 0.82604 0.0
C2375 C 0.87109 0.5642 0.84533 0.0
C2376 C 0.86669 0.56927 0.87145 0.0
C2377 C 0.85122 0.5894 0.87811 0.0
C2378 C 0.84044 0.6045 0.85974 0.0
C2379 C 0.82313 0.62381 0.87204 0.0
C2380 C 0.83371 0.65172 0.8691 0.0
C2381 C 0.79496 0.61932 0.86067 0.0
C2382 C 0.8256 0.61692 0.90009 0.0
C2383 C 0.84211 0.59716 0.90308 0.0
C2384 C 0.84684 0.5867 0.92686 0.0
C2385 C 0.83417 0.59642 0.9481 0.0
C2386 C 0.81679 0.61641 0.94559 0.0
C2387 C 0.81277 0.62698 0.92122 0.0
H2388 H 0.6592 0.58195 0.18437 0.0
H2389 H 0.7097 0.51886 0.19549 0.0
H2390 H 0.73344 0.53117 0.15834 0.0
H2391 H 0.65589 0.5765 0.11448 0.0
H2392 H 0.6567 0.61087 0.11075 0.0
H2393 H 0.64326 0.59772 0.13875 0.0
H2394 H 0.67503 0.62823 0.16858 0.0
H2395 H 0.68856 0.64148 0.14067 0.0
H2396 H 0.7094 0.62791 0.16472 0.0
H2397 H 0.75165 0.54885 0.12025 0.0
H2398 H 0.76469 0.57207 0.08315 0.0
H2399 H 0.70373 0.6251 0.09456 0.0
C2400 C 0.67535 0.57085 0.17907 0.0
C2401 C 0.68247 0.54938 0.19317 0.0
C2402 C 0.7037 0.53536 0.18534 0.0
C2403 C 0.7174 0.54218 0.16411 0.0
C2404 C 0.70985 0.56316 0.15064 0.0
C2405 C 0.68946 0.57745 0.15772 0.0
C2406 C 0.6857 0.59913 0.13948 0.0
C2407 C 0.65879 0.59585 0.12501 0.0
C2408 C 0.68992 0.62577 0.15425 0.0
C2409 C 0.70716 0.59463 0.12117 0.0
C2410 C 0.72068 0.57367 0.12815 0.0
C2411 C 0.74126 0.56533 0.11458 0.0
C2412 C 0.7485 0.57878 0.09336 0.0
C2413 C 0.73531 0.60057 0.08559 0.0
C2414 C 0.71421 0.60853 0.0998 0.0
H2415 H 0.69787 0.4571 0.45733 0.0
H2416 H 0.70088 0.3767 0.42998 0.0
H2417 H 0.68469 0.38742 0.38644 0.0
H2418 H 0.63804 0.46866 0.41903 0.0
H2419 H 0.64884 0.50134 0.41315 0.0
H2420 H 0.65998 0.48721 0.44237 0.0
H2421 H 0.70763 0.4972 0.43165 0.0
H2422 H 0.69666 0.51129 0.40239 0.0
H2423 H 0.71832 0.48535 0.40101 0.0
H2424 H 0.67249 0.40773 0.34482 0.0
H2425 H 0.66092 0.43538 0.30914 0.0
H2426 H 0.66189 0.50186 0.36388 0.0
C2427 C 0.69484 0.4417 0.44224 0.0
C2428 C 0.70066 0.41602 0.4471 0.0
C2429 C 0.69642 0.39645 0.42682 0.0
C2430 C 0.6873 0.40238 0.40197 0.0
C2431 C 0.68202 0.42791 0.39774 0.0
C2432 C 0.68523 0.44719 0.41741 0.0
C2433 C 0.67812 0.47306 0.40768 0.0
C2434 C 0.65486 0.48316 0.42137 0.0
C2435 C 0.70158 0.49289 0.41087 0.0
C2436 C 0.67085 0.46542 0.37939 0.0
C2437 C 0.67349 0.4393 0.37403 0.0
C2438 C 0.66983 0.42807 0.3489 0.0
C2439 C 0.6633 0.44389 0.32876 0.0
C2440 C 0.65996 0.47055 0.33387 0.0
C2441 C 0.66359 0.48136 0.35957 0.0
H2442 H 0.84099 0.49997 0.68084 0.0
H2443 H 0.90312 0.44822 0.69252 0.0
H2444 H 0.88485 0.42005 0.65523 0.0
H2445 H 0.79042 0.45085 0.66183 0.0
H2446 H 0.77497 0.46935 0.63764 0.0
H2447 H 0.79285 0.48571 0.66534 0.0
H2448 H 0.82131 0.51143 0.63513 0.0
H2449 H 0.80344 0.49522 0.60735 0.0
H2450 H 0.83823 0.49417 0.61086 0.0
H2451 H 0.85927 0.39659 0.61725 0.0
H2452 H 0.82971 0.38112 0.57975 0.0
H2453 H 0.78481 0.44851 0.59168 0.0
C2454 C 0.85083 0.48277 0.67554 0.0
C2455 C 0.87356 0.47642 0.6898 0.0
C2456 C 0.88575 0.45367 0.68203 0.0
C2457 C 0.87547 0.43743 0.66085 0.0
C2458 C 0.85301 0.44414 0.64739 0.0
C2459 C 0.84092 0.46637 0.65427 0.0
C2460 C 0.81717 0.46923 0.63625 0.0
C2461 C 0.79239 0.46875 0.65116 0.0
C2462 C 0.82023 0.49398 0.62152 0.0
C2463 C 0.81782 0.44515 0.61826 0.0
C2464 C 0.83855 0.43086 0.62514 0.0
C2465 C 0.84304 0.4077 0.6116 0.0
C2466 C 0.82607 0.39903 0.59029 0.0
C2467 C 0.80491 0.41357 0.58249 0.0
C2468 C 0.8008 0.43689 0.59692 0.0
H2469 H 0.4412 0.07792 0.18848 0.0
H2470 H 0.41594 0.12037 0.25607 0.0
H2471 H 0.44105 0.15938 0.24469 0.0
H2472 H 0.50557 0.10722 0.19033 0.0
H2473 H 0.50647 0.10895 0.15583 0.0
H2474 H 0.48632 0.08402 0.16885 0.0
H2475 H 0.44611 0.09868 0.14282 0.0
H2476 H 0.46614 0.12355 0.12955 0.0
H2477 H 0.43799 0.13199 0.14625 0.0
H2478 H 0.47111 0.19254 0.22847 0.0
H2479 H 0.50021 0.22049 0.20516 0.0
H2480 H 0.50398 0.15891 0.1453 0.0
C2481 C 0.44079 0.09551 0.20073 0.0
C2482 C 0.42654 0.09606 0.2232 0.0
C2483 C 0.42649 0.11947 0.23868 0.0
C2484 C 0.44083 0.14172 0.23247 0.0
C2485 C 0.45487 0.14047 0.21045 0.0
C2486 C 0.45464 0.1182 0.1945 0.0
C2487 C 0.47107 0.12254 0.17163 0.0
C2488 C 0.4937 0.10462 0.17167 0.0
C2489 C 0.45432 0.11898 0.14605 0.0
C2490 C 0.48072 0.15067 0.17746 0.0
C2491 C 0.47133 0.16037 0.20018 0.0
C2492 C 0.47829 0.18533 0.21046 0.0
C2493 C 0.49497 0.20105 0.19703 0.0
C2494 C 0.50426 0.19207 0.17318 0.0
C2495 C 0.49701 0.16644 0.16331 0.0
H2496 H 0.0891 0.82469 0.68236 0.0
H2497 H 0.05553 0.84834 0.60939 0.0
H2498 H 0.07283 0.89306 0.6207 0.0
H2499 H 0.07496 0.88041 0.72011 0.0
H2500 H 0.10461 0.88208 0.74041 0.0
H2501 H 0.09133 0.85137 0.7259 0.0
H2502 H 0.1347 0.84404 0.70501 0.0
H2503 H 0.14816 0.87472 0.71951 0.0
H2504 H 0.14809 0.8681 0.68505 0.0
H2505 H 0.09043 0.93585 0.64114 0.0
H2506 H 0.10909 0.97359 0.66858 0.0
H2507 H 0.13233 0.92272 0.72812 0.0
C2508 C 0.08563 0.83916 0.66858 0.0
C2509 C 0.07082 0.83281 0.64495 0.0
C2510 C 0.06677 0.85252 0.62759 0.0
C2511 C 0.07653 0.87807 0.63384 0.0
C2512 C 0.0905 0.88374 0.65746 0.0
C2513 C 0.09528 0.86485 0.67449 0.0
C2514 C 0.11012 0.87639 0.69902 0.0
C2515 C 0.09431 0.87232 0.72276 0.0
C2516 C 0.13686 0.86514 0.70233 0.0
C2517 C 0.11263 0.90475 0.69321 0.0
C2518 C 0.10114 0.90851 0.66912 0.0
C2519 C 0.09978 0.93311 0.6599 0.0
C2520 C 0.11039 0.95446 0.6757 0.0
C2521 C 0.12241 0.95118 0.70045 0.0
C2522 C 0.12367 0.92588 0.70915 0.0
H2523 H 0.51969 0.88821 0.33876 0.0
H2524 H 0.45767 0.83483 0.35942 0.0
H2525 H 0.42533 0.86257 0.34024 0.0
H2526 H 0.48604 0.9482 0.34894 0.0
H2527 H 0.49965 0.96231 0.3215 0.0
H2528 H 0.51752 0.9397 0.3394 0.0
H2529 H 0.521 0.9113 0.29714 0.0
H2530 H 0.50288 0.93361 0.27917 0.0
H2531 H 0.49183 0.89992 0.27808 0.0
H2532 H 0.39979 0.89498 0.31578 0.0
H2533 H 0.38359 0.92948 0.28921 0.0
H2534 H 0.46279 0.96037 0.28396 0.0
C2535 C 0.49931 0.88264 0.3399 0.0
C2536 C 0.49125 0.85944 0.35086 0.0
C2537 C 0.46434 0.85262 0.35132 0.0
C2538 C 0.44581 0.86823 0.34042 0.0
C2539 C 0.45448 0.89061 0.3291 0.0
C2540 C 0.48061 0.89785 0.32893 0.0
C2541 C 0.48504 0.92187 0.3142 0.0
C2542 C 0.49781 0.94435 0.33208 0.0
C2543 C 0.50113 0.91633 0.29076 0.0
C2544 C 0.45736 0.92687 0.30582 0.0
C2545 C 0.43994 0.90878 0.3147 0.0
C2546 C 0.41328 0.90932 0.30887 0.0
C2547 C 0.40425 0.92894 0.2937 0.0
C2548 C 0.42186 0.94761 0.28438 0.0
C2549 C 0.44874 0.9464 0.29065 0.0
H2550 H 0.85792 0.6543 0.04615 0.0
H2551 H 0.80331 0.67506 0.10297 0.0
H2552 H 0.83947 0.69332 0.13278 0.0
H2553 H 0.91038 0.63792 0.09147 0.0
H2554 H 0.93564 0.65221 0.07346 0.0
H2555 H 0.90569 0.63908 0.05689 0.0
H2556 H 0.89918 0.68311 0.03708 0.0
H2557 H 0.9291 0.69632 0.05355 0.0
H2558 H 0.89944 0.71205 0.05813 0.0
H2559 H 0.88088 0.71018 0.15619 0.0
H2560 H 0.92489 0.72748 0.17079 0.0
H2561 H 0.95359 0.69731 0.09879 0.0
C2562 C 0.85364 0.66243 0.06498 0.0
C2563 C 0.82772 0.66308 0.07226 0.0
C2564 C 0.82292 0.67433 0.0969 0.0
C2565 C 0.84337 0.68466 0.11406 0.0
C2566 C 0.8686 0.68385 0.1063 0.0
C2567 C 0.87389 0.67324 0.0823 0.0
C2568 C 0.90275 0.67632 0.07835 0.0
C2569 C 0.9143 0.6498 0.07484 0.0
C2570 C 0.90791 0.69294 0.05542 0.0
C2571 C 0.91275 0.69039 0.10383 0.0
C2572 C 0.89268 0.69427 0.11969 0.0
C2573 C 0.89678 0.70724 0.14396 0.0
C2574 C 0.92197 0.71699 0.15208 0.0
C2575 C 0.9429 0.71397 0.13596 0.0
C2576 C 0.93814 0.70004 0.11164 0.0
H2577 H 0.61806 0.27462 0.59423 0.0
H2578 H 0.59601 0.33556 0.64774 0.0
H2579 H 0.62728 0.36651 0.62969 0.0
H2580 H 0.68704 0.29508 0.59926 0.0
H2581 H 0.6914 0.286 0.56585 0.0
H2582 H 0.66691 0.26895 0.58267 0.0
H2583 H 0.63204 0.27919 0.54743 0.0
H2584 H 0.65641 0.29644 0.53063 0.0
H2585 H 0.62812 0.31234 0.54015 0.0
H2586 H 0.65886 0.39154 0.60328 0.0
H2587 H 0.69296 0.4071 0.57554 0.0
H2588 H 0.69753 0.32892 0.54245 0.0
C2589 C 0.61998 0.29446 0.60222 0.0
C2590 C 0.60459 0.30277 0.62233 0.0
C2591 C 0.60774 0.32879 0.63246 0.0
C2592 C 0.62532 0.34653 0.6222 0.0
C2593 C 0.64004 0.33781 0.60218 0.0
C2594 C 0.63799 0.31224 0.59272 0.0
C2595 C 0.65691 0.30755 0.572 0.0
C2596 C 0.67674 0.28825 0.58046 0.0
C2597 C 0.6425 0.29834 0.54602 0.0
C2598 C 0.66964 0.33454 0.57101 0.0
C2599 C 0.65936 0.35182 0.58826 0.0
C2600 C 0.6673 0.37808 0.58998 0.0
C2601 C 0.68659 0.38679 0.57404 0.0
C2602 C 0.69816 0.36923 0.55699 0.0
C2603 C 0.68938 0.34279 0.55548 0.0
H2604 H 0.22182 0.40152 0.10743 0.0
H2605 H 0.21684 0.46485 0.05647 0.0
H2606 H 0.19662 0.49058 0.08975 0.0
H2607 H 0.15891 0.41076 0.13455 0.0
H2608 H 0.16976 0.40271 0.16655 0.0
H2609 H 0.18423 0.38866 0.13875 0.0
H2610 H 0.2297 0.40614 0.15791 0.0
H2611 H 0.21537 0.42025 0.18574 0.0
H2612 H 0.2355 0.44022 0.16676 0.0
H2613 H 0.18011 0.51126 0.12907 0.0
H2614 H 0.16432 0.52416 0.17157 0.0
H2615 H 0.17527 0.44718 0.19693 0.0
C2616 C 0.21644 0.42077 0.10327 0.0
C2617 C 0.22157 0.43116 0.07929 0.0
C2618 C 0.21377 0.45638 0.07466 0.0
C2619 C 0.20208 0.47126 0.09348 0.0
C2620 C 0.19765 0.46067 0.11688 0.0
C2621 C 0.20418 0.43591 0.12183 0.0
C2622 C 0.19669 0.42931 0.14868 0.0
C2623 C 0.17618 0.40651 0.14702 0.0
C2624 C 0.22075 0.42365 0.16578 0.0
C2625 C 0.18537 0.45439 0.15802 0.0
C2626 C 0.1864 0.47222 0.13932 0.0
C2627 C 0.17876 0.49734 0.14372 0.0
C2628 C 0.16986 0.50452 0.1679 0.0
C2629 C 0.16813 0.48656 0.18725 0.0
C2630 C 0.1758 0.46107 0.18218 0.0
H2631 H 0.32705 0.4932 0.84787 0.0
H2632 H 0.40203 0.45995 0.84849 0.0
H2633 H 0.3891 0.43211 0.88332 0.0
H2634 H 0.32254 0.49566 0.91702 0.0
H2635 H 0.28794 0.48847 0.9148 0.0
H2636 H 0.30304 0.50498 0.88956 0.0
H2637 H 0.28276 0.46964 0.85573 0.0
H2638 H 0.26777 0.45288 0.8809 0.0
H2639 H 0.28864 0.43617 0.8599 0.0
H2640 H 0.36679 0.40657 0.91711 0.0
H2641 H 0.33943 0.38971 0.95067 0.0
H2642 H 0.28051 0.44206 0.92935 0.0
C2643 C 0.34076 0.48006 0.85535 0.0
C2644 C 0.36548 0.47856 0.84544 0.0
C2645 C 0.38302 0.46141 0.85592 0.0
C2646 C 0.37578 0.44544 0.87556 0.0
C2647 C 0.3511 0.44718 0.88473 0.0
C2648 C 0.33406 0.46443 0.87525 0.0
C2649 C 0.30917 0.4635 0.88912 0.0
C2650 C 0.30547 0.48971 0.90348 0.0
C2651 C 0.2857 0.45504 0.87029 0.0
C2652 C 0.31473 0.44292 0.90781 0.0
C2653 C 0.33884 0.43344 0.90478 0.0
C2654 C 0.34795 0.41398 0.91972 0.0
C2655 C 0.33223 0.40439 0.93861 0.0
C2656 C 0.30791 0.41461 0.94261 0.0
C2657 C 0.29906 0.43393 0.92678 0.0
H2658 H 0.26325 0.59525 0.63032 0.0
H2659 H 0.32046 0.60053 0.57275 0.0
H2660 H 0.35322 0.58478 0.60338 0.0
H2661 H 0.30789 0.61584 0.68608 0.0
H2662 H 0.29266 0.59385 0.70701 0.0
H2663 H 0.27377 0.60648 0.68087 0.0
H2664 H 0.25931 0.55974 0.66327 0.0
H2665 H 0.27825 0.54699 0.68926 0.0
H2666 H 0.28355 0.53721 0.65623 0.0
H2667 H 0.37941 0.56606 0.63945 0.0
H2668 H 0.39726 0.54737 0.67889 0.0
H2669 H 0.32369 0.55569 0.71365 0.0
C2670 C 0.28272 0.59334 0.62421 0.0
C2671 C 0.28916 0.5992 0.59901 0.0
C2672 C 0.31492 0.59628 0.59188 0.0
C2673 C 0.33374 0.5873 0.60917 0.0
C2674 C 0.32669 0.58143 0.6337 0.0
C2675 C 0.30186 0.58451 0.64133 0.0
C2676 C 0.29932 0.57645 0.66872 0.0
C2677 C 0.29304 0.59953 0.68674 0.0
C2678 C 0.2789 0.55375 0.66939 0.0
C2679 C 0.32645 0.56807 0.67511 0.0
C2680 C 0.34194 0.57106 0.65465 0.0
C2681 C 0.3675 0.56381 0.65568 0.0
C2682 C 0.37746 0.55314 0.67819 0.0
C2683 C 0.36196 0.54987 0.69949 0.0
C2684 C 0.33616 0.55777 0.69782 0.0
H2685 H 0.15414 0.55097 0.36177 0.0
H2686 H 0.17896 0.60782 0.3089 0.0
H2687 H 0.19981 0.63541 0.34556 0.0
H2688 H 0.14248 0.59628 0.41619 0.0
H2689 H 0.1556 0.57609 0.44022 0.0
H2690 H 0.14058 0.5616 0.41017 0.0
H2691 H 0.18242 0.53822 0.40177 0.0
H2692 H 0.19756 0.55267 0.43175 0.0
H2693 H 0.21292 0.55694 0.40195 0.0
H2694 H 0.21887 0.65638 0.38726 0.0
H2695 H 0.2376 0.66845 0.43121 0.0
H2696 H 0.20272 0.59734 0.45787 0.0
C2697 C 0.16359 0.56944 0.35803 0.0
C2698 C 0.16467 0.57742 0.33249 0.0
C2699 C 0.17781 0.60138 0.32828 0.0
C2700 C 0.18964 0.61723 0.349 0.0
C2701 C 0.18849 0.60875 0.37388 0.0
C2702 C 0.176 0.58536 0.37854 0.0
C2703 C 0.1793 0.58015 0.40703 0.0
C2704 C 0.15292 0.57843 0.41912 0.0
C2705 C 0.19392 0.55554 0.41084 0.0
C2706 C 0.19563 0.60423 0.41754 0.0
C2707 C 0.2004 0.62053 0.39805 0.0
C2708 C 0.21525 0.64379 0.40271 0.0
C2709 C 0.22581 0.65047 0.42785 0.0
C2710 C 0.22177 0.63389 0.44821 0.0
C2711 C 0.2062 0.61052 0.44287 0.0
loop_
_geom_bond_atom_site_label_1
_geom_bond_atom_site_label_2
_geom_bond_distance
_geom_bond_site_symmetry_2
_ccdc_geom_bond_type
Co0 O2 2.143 . S
Co0 O8 2.074 1_655 S
Co0 O11 2.093 . S
Co0 O24 2.097 . S
Co0 N41 2.151 1_655 S
Co0 N49 2.214 . S
Co1 O2 2.160 1_455 S
Co1 O7 2.058 . S
Co1 O17 2.057 . S
Co1 O32 2.037 1_455 S
Co1 N36 2.145 . S
Co1 N57 2.257 1_455 S
O2 Co0 2.143 . S
O2 Co1 2.160 1_655 S
C3 O4 1.278 . S
C3 O11 1.224 . S
O4 C3 1.278 . S
C5 O6 1.245 . S
C5 O17 1.232 . S
O6 C5 1.245 . S
O7 Co1 2.058 . S
O7 C33 1.269 . S
O8 Co0 2.074 1_455 S
O8 C33 1.257 . S
H9 C34 0.930 . S
H10 C40 0.930 . S
O11 Co0 2.093 . S
O11 C3 1.224 . S
H12 C44 0.929 . S
H13 C46 0.930 . S
H14 C47 0.930 . S
H15 C45 0.929 . S
H16 C48 0.928 . S
O17 Co1 2.057 . S
O17 C5 1.232 . S
H18 C37 0.929 . S
H19 C38 0.929 . S
H20 C50 0.931 . S
H21 C42 0.929 . S
H22 C51 0.930 . S
H23 C43 0.931 . S
O24 Co0 2.097 . S
O24 C52 1.214 . S
H25 C53 0.929 . S
H26 C54 0.929 . S
H27 C55 0.930 . S
H28 C56 0.929 . S
H29 C58 0.930 . S
H30 C35 0.930 . S
H31 C39 0.930 . S
O32 Co1 2.037 1_655 S
O32 C52 1.234 . S
C33 O7 1.269 . S
C33 O8 1.257 . S
C34 H9 0.930 . S
C34 C37 1.388 . S
C34 C39 1.418 . S
C35 H30 0.930 . S
C35 C38 1.404 . S
C35 C39 1.353 . S
N36 Co1 2.145 . S
N36 C37 1.397 . S
N36 C38 1.334 . S
C37 H18 0.929 . S
C37 C34 1.388 . S
C37 N36 1.397 . S
C38 H19 0.929 . S
C38 C35 1.404 . S
C38 N36 1.334 . S
C39 H31 0.930 . S
C39 C34 1.418 . S
C39 C35 1.353 . S
C40 H10 0.930 . S
C40 N41 1.330 1_655 S
C40 C42 1.446 1_655 S
N41 Co0 2.151 1_455 S
N41 C40 1.330 1_455 S
N41 C45 1.418 . S
C42 H21 0.929 . S
C42 C40 1.446 1_455 S
C42 C43 1.332 . S
C43 H23 0.931 . S
C43 C42 1.332 . S
C43 C44 1.267 . S
C44 H12 0.929 . S
C44 C43 1.267 . S
C44 C45 1.251 . S
C45 H15 0.929 . S
C45 N41 1.418 . S
C45 C44 1.251 . S
C46 H13 0.930 . S
C46 C48 1.406 . S
C46 C51 1.261 . S
C47 H14 0.930 . S
C47 N49 1.325 . S
C47 C50 1.357 . S
C48 H16 0.928 . S
C48 C46 1.406 . S
C48 N49 1.261 . S
N49 Co0 2.214 . S
N49 C47 1.325 . S
N49 C48 1.261 . S
C50 H20 0.931 . S
C50 C47 1.357 . S
C50 C51 1.312 . S
C51 H22 0.930 . S
C51 C46 1.261 . S
C51 C50 1.312 . S
C52 O24 1.214 . S
C52 O32 1.234 . S
C53 H25 0.929 . S
C53 C56 1.391 . S
C53 C58 1.391 . S
C54 H26 0.929 . S
C54 C55 1.390 . S
C54 N57 1.391 . S
C55 H27 0.930 . S
C55 C54 1.390 . S
C55 C56 1.392 . S
C56 H28 0.929 . S
C56 C53 1.391 . S
C56 C55 1.392 . S
N57 Co1 2.257 1_655 S
N57 C54 1.391 . S
N57 C58 1.388 . S
C58 H29 0.930 . S
C58 C53 1.391 . S
C58 N57 1.388 . S
Co59 O61 2.143 1_455 S
Co59 O67 2.074 . S
Co59 O70 2.093 1_455 S
Co59 O83 2.097 . S
Co59 N100 2.151 1_455 S
Co59 N108 2.214 . S
Co60 O61 2.160 1_455 S
Co60 O66 2.058 . S
Co60 O76 2.057 1_455 S
Co60 O91 2.037 . S
Co60 N95 2.145 . S
Co60 N116 2.257 1_455 S
O61 Co59 2.143 1_655 S
O61 Co60 2.160 1_655 S
C62 O63 1.278 . S
C62 O70 1.224 . S
O63 C62 1.278 . S
C64 O65 1.245 . S
C64 O76 1.232 . S
O65 C64 1.245 . S
O66 Co60 2.058 . S
O66 C92 1.269 . S
O67 Co59 2.074 . S
O67 C92 1.257 . S
H68 C93 0.930 . S
H69 C99 0.930 . S
O70 Co59 2.093 1_655 S
O70 C62 1.224 . S
H71 C103 0.929 . S
H72 C105 0.930 . S
H73 C106 0.930 . S
H74 C104 0.929 . S
H75 C107 0.910 1_655 S
O76 Co60 2.057 1_655 S
O76 C64 1.232 . S
H77 C96 0.929 . S
H78 C97 0.929 . S
H79 C109 0.931 . S
H80 C101 0.929 . S
H81 C110 0.930 . S
H82 C102 0.931 . S
O83 Co59 2.097 . S
O83 C111 1.214 . S
H84 C112 0.929 . S
H85 C113 0.929 . S
H86 C114 0.930 . S
H87 C115 0.929 . S
H88 C117 0.930 . S
H89 C94 0.930 . S
H90 C98 0.930 . S
O91 Co60 2.037 . S
O91 C111 1.234 . S
C92 O66 1.269 . S
C92 O67 1.257 . S
C93 H68 0.930 . S
C93 C96 1.388 . S
C93 C98 1.418 . S
C94 H89 0.930 . S
C94 C97 1.404 . S
C94 C98 1.353 . S
N95 Co60 2.145 . S
N95 C96 1.397 . S
N95 C97 1.334 . S
C96 H77 0.929 . S
C96 C93 1.388 . S
C96 N95 1.397 . S
C97 H78 0.929 . S
C97 C94 1.404 . S
C97 N95 1.334 . S
C98 H90 0.930 . S
C98 C93 1.418 . S
C98 C94 1.353 . S
C99 H69 0.930 . S
C99 N100 1.330 . S
C99 C101 1.446 . S
N100 Co59 2.151 1_655 S
N100 C99 1.330 . S
N100 C104 1.418 1_655 S
C101 H80 0.929 . S
C101 C99 1.446 . S
C101 C102 1.332 . S
C102 H82 0.931 . S
C102 C101 1.332 . S
C102 C103 1.267 1_655 S
C103 H71 0.929 . S
C103 C102 1.267 1_455 S
C103 C104 1.251 . S
C104 H74 0.929 . S
C104 N100 1.418 1_455 S
C104 C103 1.251 . S
C105 H72 0.930 . S
C105 C107 1.406 . S
C105 C110 1.261 . S
C106 H73 0.930 . S
C106 N108 1.325 . S
C106 C109 1.357 . S
C107 H75 0.910 1_455 S
C107 C105 1.406 . S
C107 N108 1.261 . S
N108 Co59 2.214 . S
N108 C106 1.325 . S
N108 C107 1.261 . S
C109 H79 0.931 . S
C109 C106 1.357 . S
C109 C110 1.312 . S
C110 H81 0.930 . S
C110 C105 1.261 . S
C110 C109 1.312 . S
C111 O83 1.214 . S
C111 O91 1.234 . S
C112 H84 0.929 . S
C112 C115 1.391 . S
C112 C117 1.391 . S
C113 H85 0.929 . S
C113 C114 1.390 1_455 S
C113 N116 1.391 1_455 S
C114 H86 0.930 . S
C114 C113 1.390 1_655 S
C114 C115 1.392 . S
C115 H87 0.929 . S
C115 C112 1.391 . S
C115 C114 1.392 . S
N116 Co60 2.257 1_655 S
N116 C113 1.391 1_655 S
N116 C117 1.388 . S
C117 H88 0.930 . S
C117 C112 1.391 . S
C117 N116 1.388 . S
Co118 O120 2.143 . S
Co118 O126 2.074 . S
Co118 O129 2.093 . S
Co118 O142 2.097 . S
Co118 N159 2.151 . S
Co118 N167 2.214 . S
Co119 O120 2.160 . S
Co119 O125 2.058 . S
Co119 O135 2.057 . S
Co119 O150 2.037 . S
Co119 N154 2.145 . S
Co119 N175 2.257 . S
O120 Co118 2.143 . S
O120 Co119 2.160 . S
C121 O122 1.278 . S
C121 O129 1.224 . S
O122 C121 1.278 . S
C123 O124 1.245 . S
C123 O135 1.232 . S
O124 C123 1.245 . S
O125 Co119 2.058 . S
O125 C151 1.269 . S
O126 Co118 2.074 . S
O126 C151 1.257 . S
H127 C152 0.930 . S
H128 C158 0.930 . S
O129 Co118 2.093 . S
O129 C121 1.224 . S
H130 C162 0.929 . S
H131 C164 0.930 . S
H132 C165 0.930 . S
H133 C163 0.929 . S
H134 C166 0.928 . S
O135 Co119 2.057 . S
O135 C123 1.232 . S
H136 C155 0.929 . S
H137 C156 0.929 . S
H138 C168 0.931 . S
H139 C160 0.929 . S
H140 C169 0.930 . S
H141 C161 0.931 1_554 S
O142 Co118 2.097 . S
O142 C170 1.214 . S
H143 C171 0.929 . S
H144 C172 0.929 . S
H145 C173 0.930 . S
H146 C174 0.929 . S
H147 C176 0.930 . S
H148 C153 0.930 . S
H149 C157 0.930 . S
O150 Co119 2.037 . S
O150 C170 1.234 . S
C151 O125 1.269 . S
C151 O126 1.257 . S
C152 H127 0.930 . S
C152 C155 1.388 . S
C152 C157 1.418 . S
C153 H148 0.930 . S
C153 C156 1.404 . S
C153 C157 1.353 . S
N154 Co119 2.145 . S
N154 C155 1.397 . S
N154 C156 1.334 . S
C155 H136 0.929 . S
C155 C152 1.388 . S
C155 N154 1.397 . S
C156 H137 0.929 . S
C156 C153 1.404 . S
C156 N154 1.334 . S
C157 H149 0.930 . S
C157 C152 1.418 . S
C157 C153 1.353 . S
C158 H128 0.930 . S
C158 N159 1.330 . S
C158 C160 1.446 . S
N159 Co118 2.151 . S
N159 C158 1.330 . S
N159 C163 1.418 . S
C160 H139 0.929 . S
C160 C158 1.446 . S
C160 C161 1.332 . S
C161 H141 0.931 1_556 S
C161 C160 1.332 . S
C161 C162 1.267 . S
C162 H130 0.929 . S
C162 C161 1.267 . S
C162 C163 1.251 . S
C163 H133 0.929 . S
C163 N159 1.418 . S
C163 C162 1.251 . S
C164 H131 0.930 . S
C164 C166 1.406 . S
C164 C169 1.261 . S
C165 H132 0.930 . S
C165 N167 1.325 . S
C165 C168 1.357 . S
C166 H134 0.928 . S
C166 C164 1.406 . S
C166 N167 1.261 . S
N167 Co118 2.214 . S
N167 C165 1.325 . S
N167 C166 1.261 . S
C168 H138 0.931 . S
C168 C165 1.357 . S
C168 C169 1.312 . S
C169 H140 0.930 . S
C169 C164 1.261 . S
C169 C168 1.312 . S
C170 O142 1.214 . S
C170 O150 1.234 . S
C171 H143 0.929 . S
C171 C174 1.391 . S
C171 C176 1.391 . S
C172 H144 0.929 . S
C172 C173 1.390 . S
C172 N175 1.391 . S
C173 H145 0.930 . S
C173 C172 1.390 . S
C173 C174 1.392 . S
C174 H146 0.929 . S
C174 C171 1.391 . S
C174 C173 1.392 . S
N175 Co119 2.257 . S
N175 C172 1.391 . S
N175 C176 1.388 . S
C176 H147 0.930 . S
C176 C171 1.391 . S
C176 N175 1.388 . S
Co177 O179 2.143 . S
Co177 O185 2.074 . S
Co177 O188 2.093 . S
Co177 O201 2.097 . S
Co177 N218 2.151 . S
Co177 N226 2.214 . S
Co178 O179 2.160 . S
Co178 O184 2.058 . S
Co178 O194 2.057 . S
Co178 O209 2.037 . S
Co178 N213 2.145 . S
Co178 N234 2.257 . S
O179 Co177 2.143 . S
O179 Co178 2.160 . S
C180 O181 1.278 . S
C180 O188 1.224 . S
O181 C180 1.278 . S
C182 O183 1.245 . S
C182 O194 1.232 . S
O183 C182 1.245 . S
O184 Co178 2.058 . S
O184 C210 1.269 . S
O185 Co177 2.074 . S
O185 C210 1.257 . S
H186 C211 0.930 . S
H187 C217 0.930 . S
O188 Co177 2.093 . S
O188 C180 1.224 . S
H189 C221 0.929 . S
H190 C223 0.930 . S
H191 C224 0.930 . S
H192 C222 0.929 . S
H193 C225 0.928 . S
O194 Co178 2.057 . S
O194 C182 1.232 . S
H195 C214 0.929 . S
H196 C215 0.929 . S
H197 C227 0.931 . S
H198 C219 0.929 . S
H199 C228 0.930 . S
H200 C220 0.931 . S
O201 Co177 2.097 . S
O201 C229 1.214 . S
H202 C230 0.929 . S
H203 C231 0.929 . S
H204 C232 0.930 . S
H205 C233 0.929 . S
H206 C235 0.930 . S
H207 C212 0.930 . S
H208 C216 0.930 . S
O209 Co178 2.037 . S
O209 C229 1.234 . S
C210 O184 1.269 . S
C210 O185 1.257 . S
C211 H186 0.930 . S
C211 C214 1.388 . S
C211 C216 1.418 . S
C212 H207 0.930 . S
C212 C215 1.404 . S
C212 C216 1.353 . S
N213 Co178 2.145 . S
N213 C214 1.397 . S
N213 C215 1.334 . S
C214 H195 0.929 . S
C214 C211 1.388 . S
C214 N213 1.397 . S
C215 H196 0.929 . S
C215 C212 1.404 . S
C215 N213 1.334 . S
C216 H208 0.930 . S
C216 C211 1.418 . S
C216 C212 1.353 . S
C217 H187 0.930 . S
C217 N218 1.330 . S
C217 C219 1.446 . S
N218 Co177 2.151 . S
N218 C217 1.330 . S
N218 C222 1.418 . S
C219 H198 0.929 . S
C219 C217 1.446 . S
C219 C220 1.332 . S
C220 H200 0.931 . S
C220 C219 1.332 . S
C220 C221 1.267 . S
C221 H189 0.929 . S
C221 C220 1.267 . S
C221 C222 1.251 . S
C222 H192 0.929 . S
C222 N218 1.418 . S
C222 C221 1.251 . S
C223 H190 0.930 . S
C223 C225 1.406 . S
C223 C228 1.261 . S
C224 H191 0.930 . S
C224 N226 1.325 . S
C224 C227 1.357 . S
C225 H193 0.928 . S
C225 C223 1.406 . S
C225 N226 1.261 . S
N226 Co177 2.214 . S
N226 C224 1.325 . S
N226 C225 1.261 . S
C227 H197 0.931 . S
C227 C224 1.357 . S
C227 C228 1.312 . S
C228 H199 0.930 . S
C228 C223 1.261 . S
C228 C227 1.312 . S
C229 O201 1.214 . S
C229 O209 1.234 . S
C230 H202 0.929 . S
C230 C233 1.391 . S
C230 C235 1.391 . S
C231 H203 0.929 . S
C231 C232 1.390 . S
C231 N234 1.391 . S
C232 H204 0.930 . S
C232 C231 1.390 . S
C232 C233 1.392 . S
C233 H205 0.929 . S
C233 C230 1.391 . S
C233 C232 1.392 . S
N234 Co178 2.257 . S
N234 C231 1.391 . S
N234 C235 1.388 . S
C235 H206 0.930 . S
C235 C230 1.391 . S
C235 N234 1.388 . S
Co236 O238 2.143 . S
Co236 O244 2.074 1_455 S
Co236 O247 2.093 . S
Co236 O260 2.097 . S
Co236 N277 2.151 . S
Co236 N285 2.214 . S
Co237 O238 2.160 1_655 S
Co237 O243 2.058 . S
Co237 O253 2.057 . S
Co237 O268 2.037 1_655 S
Co237 N272 2.145 . S
Co237 N293 2.257 1_655 S
O238 Co236 2.143 . S
O238 Co237 2.160 1_455 S
C239 O240 1.278 . S
C239 O247 1.224 . S
O240 C239 1.278 . S
C241 O242 1.245 . S
C241 O253 1.232 . S
O242 C241 1.245 . S
O243 Co237 2.058 . S
O243 C269 1.269 . S
O244 Co236 2.074 1_655 S
O244 C269 1.257 . S
H245 C270 0.930 . S
H246 C276 0.930 . S
O247 Co236 2.093 . S
O247 C239 1.224 . S
H248 C280 0.929 . S
H249 C282 0.930 . S
H250 C283 0.930 . S
H251 C281 0.929 . S
H252 C284 0.928 . S
O253 Co237 2.057 . S
O253 C241 1.232 . S
H254 C273 0.929 . S
H255 C274 0.929 . S
H256 C286 0.931 . S
H257 C278 0.929 . S
H258 C287 0.930 . S
H259 C279 0.931 . S
O260 Co236 2.097 . S
O260 C288 1.214 . S
H261 C289 0.929 . S
H262 C290 0.929 . S
H263 C291 0.930 . S
H264 C292 0.929 . S
H265 C294 0.930 . S
H266 C271 0.930 . S
H267 C275 0.930 . S
O268 Co237 2.037 1_455 S
O268 C288 1.234 . S
C269 O243 1.269 . S
C269 O244 1.257 . S
C270 H245 0.930 . S
C270 C273 1.388 . S
C270 C275 1.418 . S
C271 H266 0.930 . S
C271 C274 1.404 . S
C271 C275 1.353 . S
N272 Co237 2.145 . S
N272 C273 1.397 . S
N272 C274 1.334 . S
C273 H254 0.929 . S
C273 C270 1.388 . S
C273 N272 1.397 . S
C274 H255 0.929 . S
C274 C271 1.404 . S
C274 N272 1.334 . S
C275 H267 0.930 . S
C275 C270 1.418 . S
C275 C271 1.353 . S
C276 H246 0.930 . S
C276 N277 1.330 . S
C276 C278 1.446 . S
N277 Co236 2.151 . S
N277 C276 1.330 . S
N277 C281 1.418 1_455 S
C278 H257 0.929 . S
C278 C276 1.446 . S
C278 C279 1.332 1_455 S
C279 H259 0.931 . S
C279 C278 1.332 1_655 S
C279 C280 1.267 . S
C280 H248 0.929 . S
C280 C279 1.267 . S
C280 C281 1.251 . S
C281 H251 0.929 . S
C281 N277 1.418 1_655 S
C281 C280 1.251 . S
C282 H249 0.930 . S
C282 C284 1.406 . S
C282 C287 1.261 . S
C283 H250 0.930 . S
C283 N285 1.325 . S
C283 C286 1.357 . S
C284 H252 0.928 . S
C284 C282 1.406 . S
C284 N285 1.261 . S
N285 Co236 2.214 . S
N285 C283 1.325 . S
N285 C284 1.261 . S
C286 H256 0.931 . S
C286 C283 1.357 . S
C286 C287 1.312 . S
C287 H258 0.930 . S
C287 C282 1.261 . S
C287 C286 1.312 . S
C288 O260 1.214 . S
C288 O268 1.234 . S
C289 H261 0.929 . S
C289 C292 1.391 . S
C289 C294 1.391 . S
C290 H262 0.929 . S
C290 C291 1.390 . S
C290 N293 1.391 . S
C291 H263 0.930 . S
C291 C290 1.390 . S
C291 C292 1.392 . S
C292 H264 0.929 . S
C292 C289 1.391 . S
C292 C291 1.392 . S
N293 Co237 2.257 1_455 S
N293 C290 1.391 . S
N293 C294 1.388 . S
C294 H265 0.930 . S
C294 C289 1.391 . S
C294 N293 1.388 . S
Co295 O297 2.143 . S
Co295 O303 2.074 . S
Co295 O306 2.093 . S
Co295 O319 2.097 . S
Co295 N336 2.151 . S
Co295 N344 2.214 . S
Co296 O297 2.160 . S
Co296 O302 2.058 . S
Co296 O312 2.057 . S
Co296 O327 2.037 . S
Co296 N331 2.145 . S
Co296 N352 2.257 . S
O297 Co295 2.143 . S
O297 Co296 2.160 . S
C298 O299 1.278 . S
C298 O306 1.224 . S
O299 C298 1.278 . S
C300 O301 1.245 . S
C300 O312 1.232 . S
O301 C300 1.245 . S
O302 Co296 2.058 . S
O302 C328 1.269 . S
O303 Co295 2.074 . S
O303 C328 1.257 . S
H304 C329 0.930 . S
H305 C335 0.930 . S
O306 Co295 2.093 . S
O306 C298 1.224 . S
H307 C339 0.929 . S
H308 C341 0.930 . S
H309 C342 0.930 . S
H310 C340 0.929 . S
H311 C343 0.928 . S
O312 Co296 2.057 . S
O312 C300 1.232 . S
H313 C332 0.929 . S
H314 C333 0.929 . S
H315 C345 0.931 . S
H316 C337 0.929 . S
H317 C346 0.930 . S
H318 C338 0.931 . S
O319 Co295 2.097 . S
O319 C347 1.214 . S
H320 C348 0.929 . S
H321 C349 0.929 . S
H322 C350 0.930 . S
H323 C351 0.929 . S
H324 C353 0.930 . S
H325 C330 0.930 . S
H326 C334 0.930 . S
O327 Co296 2.037 . S
O327 C347 1.234 . S
C328 O302 1.269 . S
C328 O303 1.257 . S
C329 H304 0.930 . S
C329 C332 1.388 . S
C329 C334 1.418 . S
C330 H325 0.930 . S
C330 C333 1.404 . S
C330 C334 1.353 . S
N331 Co296 2.145 . S
N331 C332 1.397 . S
N331 C333 1.334 . S
C332 H313 0.929 . S
C332 C329 1.388 . S
C332 N331 1.397 . S
C333 H314 0.929 . S
C333 C330 1.404 . S
C333 N331 1.334 . S
C334 H326 0.930 . S
C334 C329 1.418 . S
C334 C330 1.353 . S
C335 H305 0.930 . S
C335 N336 1.330 . S
C335 C337 1.446 . S
N336 Co295 2.151 . S
N336 C335 1.330 . S
N336 C340 1.418 . S
C337 H316 0.929 . S
C337 C335 1.446 . S
C337 C338 1.332 . S
C338 H318 0.931 . S
C338 C337 1.332 . S
C338 C339 1.267 . S
C339 H307 0.929 . S
C339 C338 1.267 . S
C339 C340 1.251 . S
C340 H310 0.929 . S
C340 N336 1.418 . S
C340 C339 1.251 . S
C341 H308 0.930 . S
C341 C343 1.406 . S
C341 C346 1.261 . S
C342 H309 0.930 . S
C342 N344 1.325 . S
C342 C345 1.357 . S
C343 H311 0.928 . S
C343 C341 1.406 . S
C343 N344 1.261 . S
N344 Co295 2.214 . S
N344 C342 1.325 . S
N344 C343 1.261 . S
C345 H315 0.931 . S
C345 C342 1.357 . S
C345 C346 1.312 . S
C346 H317 0.930 . S
C346 C341 1.261 . S
C346 C345 1.312 . S
C347 O319 1.214 . S
C347 O327 1.234 . S
C348 H320 0.929 . S
C348 C351 1.391 . S
C348 C353 1.391 . S
C349 H321 0.929 . S
C349 C350 1.390 . S
C349 N352 1.391 . S
C350 H322 0.930 . S
C350 C349 1.390 . S
C350 C351 1.392 . S
C351 H323 0.929 . S
C351 C348 1.391 . S
C351 C350 1.392 . S
N352 Co296 2.257 . S
N352 C349 1.391 . S
N352 C353 1.388 . S
C353 H324 0.930 . S
C353 C348 1.391 . S
C353 N352 1.388 . S
Co354 O356 2.143 . S
Co354 O362 2.074 . S
Co354 O365 2.093 . S
Co354 O378 2.097 . S
Co354 N395 2.151 . S
Co354 N403 2.214 . S
Co355 O356 2.160 . S
Co355 O361 2.058 . S
Co355 O371 2.057 . S
Co355 O386 2.037 . S
Co355 N390 2.145 . S
Co355 N411 2.257 . S
O356 Co354 2.143 . S
O356 Co355 2.160 . S
C357 O358 1.278 . S
C357 O365 1.224 . S
O358 C357 1.278 . S
C359 O360 1.245 . S
C359 O371 1.232 . S
O360 C359 1.245 . S
O361 Co355 2.058 . S
O361 C387 1.269 . S
O362 Co354 2.074 . S
O362 C387 1.257 . S
H363 C388 0.930 . S
H364 C394 0.930 . S
O365 Co354 2.093 . S
O365 C357 1.224 . S
H366 C398 0.929 . S
H367 C400 0.930 . S
H368 C401 0.930 . S
H369 C399 0.929 . S
H370 C402 0.928 . S
O371 Co355 2.057 . S
O371 C359 1.232 . S
H372 C391 0.929 . S
H373 C392 0.929 . S
H374 C404 0.931 . S
H375 C396 0.929 . S
H376 C405 0.930 . S
H377 C397 0.931 . S
O378 Co354 2.097 . S
O378 C406 1.214 . S
H379 C407 0.929 . S
H380 C408 0.929 . S
H381 C409 0.930 . S
H382 C410 0.929 . S
H383 C412 0.930 . S
H384 C389 0.930 . S
H385 C393 0.930 . S
O386 Co355 2.037 . S
O386 C406 1.234 . S
C387 O361 1.269 . S
C387 O362 1.257 . S
C388 H363 0.930 . S
C388 C391 1.388 . S
C388 C393 1.418 . S
C389 H384 0.930 . S
C389 C392 1.404 . S
C389 C393 1.353 . S
N390 Co355 2.145 . S
N390 C391 1.397 . S
N390 C392 1.334 . S
C391 H372 0.929 . S
C391 C388 1.388 . S
C391 N390 1.397 . S
C392 H373 0.929 . S
C392 C389 1.404 . S
C392 N390 1.334 . S
C393 H385 0.930 . S
C393 C388 1.418 . S
C393 C389 1.353 . S
C394 H364 0.930 . S
C394 N395 1.330 . S
C394 C396 1.446 . S
N395 Co354 2.151 . S
N395 C394 1.330 . S
N395 C399 1.418 . S
C396 H375 0.929 . S
C396 C394 1.446 . S
C396 C397 1.332 . S
C397 H377 0.931 . S
C397 C396 1.332 . S
C397 C398 1.267 . S
C398 H366 0.929 . S
C398 C397 1.267 . S
C398 C399 1.251 . S
C399 H369 0.929 . S
C399 N395 1.418 . S
C399 C398 1.251 . S
C400 H367 0.930 . S
C400 C402 1.406 . S
C400 C405 1.261 . S
C401 H368 0.930 . S
C401 N403 1.325 . S
C401 C404 1.357 . S
C402 H370 0.928 . S
C402 C400 1.406 . S
C402 N403 1.261 . S
N403 Co354 2.214 . S
N403 C401 1.325 . S
N403 C402 1.261 . S
C404 H374 0.931 . S
C404 C401 1.357 . S
C404 C405 1.312 . S
C405 H376 0.930 . S
C405 C400 1.261 . S
C405 C404 1.312 . S
C406 O378 1.214 . S
C406 O386 1.234 . S
C407 H379 0.929 . S
C407 C410 1.391 . S
C407 C412 1.391 . S
C408 H380 0.929 . S
C408 C409 1.390 . S
C408 N411 1.391 . S
C409 H381 0.930 . S
C409 C408 1.390 . S
C409 C410 1.392 . S
C410 H382 0.929 . S
C410 C407 1.391 . S
C410 C409 1.392 . S
N411 Co355 2.257 . S
N411 C408 1.391 . S
N411 C412 1.388 . S
C412 H383 0.930 . S
C412 C407 1.391 . S
C412 N411 1.388 . S
Co413 O415 2.143 1_455 S
Co413 O421 2.074 . S
Co413 O424 2.093 1_455 S
Co413 O437 2.097 . S
Co413 N454 2.163 . S
Co413 N462 2.214 . S
Co414 O415 2.160 1_455 S
Co414 O420 2.058 . S
Co414 O430 2.057 1_455 S
Co414 O445 2.037 . S
Co414 N449 2.145 . S
Co414 N470 2.257 1_455 S
O415 Co413 2.143 1_655 S
O415 Co414 2.160 1_655 S
C416 O417 1.278 . S
C416 O424 1.224 . S
O417 C416 1.278 . S
C418 O419 1.245 . S
C418 O430 1.232 . S
O419 C418 1.245 . S
O420 Co414 2.058 . S
O420 C446 1.269 . S
O421 Co413 2.074 . S
O421 C446 1.257 . S
H422 C447 0.930 . S
H423 C453 0.930 . S
O424 Co413 2.093 1_655 S
O424 C416 1.224 . S
H425 C457 0.929 . S
H426 C459 0.930 . S
H427 C460 0.930 . S
H428 C458 0.929 . S
H429 C461 0.928 . S
O430 Co414 2.057 1_655 S
O430 C418 1.232 . S
H431 C450 0.929 . S
H432 C451 0.929 . S
H433 C463 0.931 . S
H434 C455 0.929 . S
H435 C464 0.930 . S
H436 C456 0.931 . S
O437 Co413 2.097 . S
O437 C465 1.214 . S
H438 C466 0.929 . S
H439 C467 0.929 1_455 S
H440 C468 0.930 . S
H441 C469 0.929 . S
H442 C471 0.930 . S
H443 C448 0.930 . S
H444 C452 0.930 . S
O445 Co414 2.037 . S
O445 C465 1.234 . S
C446 O420 1.269 . S
C446 O421 1.257 . S
C447 H422 0.930 . S
C447 C450 1.388 . S
C447 C452 1.418 . S
C448 H443 0.930 . S
C448 C451 1.404 . S
C448 C452 1.353 . S
N449 Co414 2.145 . S
N449 C450 1.397 . S
N449 C451 1.334 . S
C450 H431 0.929 . S
C450 C447 1.388 . S
C450 N449 1.397 . S
C451 H432 0.929 . S
C451 C448 1.404 . S
C451 N449 1.334 . S
C452 H444 0.930 . S
C452 C447 1.418 . S
C452 C448 1.353 . S
C453 H423 0.930 . S
C453 N454 1.288 1_655 S
C453 C455 1.446 . S
N454 Co413 2.163 . S
N454 C453 1.288 1_455 S
N454 C458 1.444 . S
C455 H434 0.929 . S
C455 C453 1.446 . S
C455 C456 1.332 . S
C456 H436 0.931 . S
C456 C455 1.332 . S
C456 C457 1.267 1_655 S
C457 H425 0.929 . S
C457 C456 1.267 1_455 S
C457 C458 1.251 . S
C458 H428 0.929 . S
C458 N454 1.444 . S
C458 C457 1.251 . S
C459 H426 0.930 . S
C459 C461 1.406 . S
C459 C464 1.261 . S
C460 H427 0.930 . S
C460 N462 1.325 . S
C460 C463 1.357 . S
C461 H429 0.928 . S
C461 C459 1.406 . S
C461 N462 1.261 . S
N462 Co413 2.214 . S
N462 C460 1.325 . S
N462 C461 1.261 . S
C463 H433 0.931 . S
C463 C460 1.357 . S
C463 C464 1.312 . S
C464 H435 0.930 . S
C464 C459 1.261 . S
C464 C463 1.312 . S
C465 O437 1.214 . S
C465 O445 1.234 . S
C466 H438 0.929 . S
C466 C469 1.391 . S
C466 C471 1.391 . S
C467 H439 0.929 1_655 S
C467 C468 1.390 . S
C467 N470 1.391 . S
C468 H440 0.930 . S
C468 C467 1.390 . S
C468 C469 1.392 . S
C469 H441 0.929 . S
C469 C466 1.391 . S
C469 C468 1.392 . S
N470 Co414 2.257 1_655 S
N470 C467 1.391 . S
N470 C471 1.388 . S
C471 H442 0.930 . S
C471 C466 1.391 . S
C471 N470 1.388 . S
Co472 O474 2.143 1_545 S
Co472 O480 2.084 . S
Co472 O483 2.093 . S
Co472 O496 2.097 . S
Co472 N513 2.151 1_545 S
Co472 N521 2.214 . S
Co473 O474 2.160 . S
Co473 O479 2.058 . S
Co473 O489 2.057 . S
Co473 O504 2.037 1_565 S
Co473 N508 2.145 . S
Co473 N529 2.257 1_565 S
O474 Co472 2.143 1_565 S
O474 Co473 2.160 . S
C475 O476 1.278 . S
C475 O483 1.224 . S
O476 C475 1.278 . S
C477 O478 1.245 . S
C477 O489 1.232 . S
O478 C477 1.245 . S
O479 Co473 2.058 . S
O479 C505 1.269 . S
O480 Co472 2.084 . S
O480 C505 1.240 1_545 S
H481 C506 0.930 . S
H482 C512 0.930 . S
O483 Co472 2.093 . S
O483 C475 1.224 . S
H484 C516 0.929 . S
H485 C518 0.930 . S
H486 C519 0.930 . S
H487 C517 0.929 . S
H488 C520 0.928 . S
O489 Co473 2.057 . S
O489 C477 1.232 . S
H490 C509 0.929 1_545 S
H491 C510 0.929 . S
H492 C522 0.931 . S
H493 C514 0.929 . S
H494 C523 0.930 . S
H495 C515 0.931 . S
O496 Co472 2.097 . S
O496 C524 1.214 . S
H497 C525 0.929 . S
H498 C526 0.929 . S
H499 C527 0.930 . S
H500 C528 0.929 . S
H501 C530 0.930 1_565 S
H502 C507 0.930 . S
H503 C511 0.930 . S
O504 Co473 2.037 1_545 S
O504 C524 1.234 . S
C505 O479 1.269 . S
C505 O480 1.240 1_565 S
C506 H481 0.930 . S
C506 C509 1.388 . S
C506 C511 1.418 . S
C507 H502 0.930 . S
C507 C510 1.404 . S
C507 C511 1.353 . S
N508 Co473 2.145 . S
N508 C509 1.397 . S
N508 C510 1.334 . S
C509 H490 0.929 1_565 S
C509 C506 1.388 . S
C509 N508 1.397 . S
C510 H491 0.929 . S
C510 C507 1.404 . S
C510 N508 1.334 . S
C511 H503 0.930 . S
C511 C506 1.418 . S
C511 C507 1.353 . S
C512 H482 0.930 . S
C512 N513 1.330 . S
C512 C514 1.446 . S
N513 Co472 2.151 1_565 S
N513 C512 1.330 . S
N513 C517 1.418 . S
C514 H493 0.929 . S
C514 C512 1.446 . S
C514 C515 1.332 . S
C515 H495 0.931 . S
C515 C514 1.332 . S
C515 C516 1.267 . S
C516 H484 0.929 . S
C516 C515 1.267 . S
C516 C517 1.251 . S
C517 H487 0.929 . S
C517 N513 1.418 . S
C517 C516 1.251 . S
C518 H485 0.930 . S
C518 C520 1.406 . S
C518 C523 1.261 . S
C519 H486 0.930 . S
C519 N521 1.325 . S
C519 C522 1.357 . S
C520 H488 0.928 . S
C520 C518 1.406 . S
C520 N521 1.261 . S
N521 Co472 2.214 . S
N521 C519 1.325 . S
N521 C520 1.261 . S
C522 H492 0.931 . S
C522 C519 1.357 . S
C522 C523 1.312 . S
C523 H494 0.930 . S
C523 C518 1.261 . S
C523 C522 1.312 . S
C524 O496 1.214 . S
C524 O504 1.234 . S
C525 H497 0.929 . S
C525 C528 1.391 . S
C525 C530 1.391 . S
C526 H498 0.929 . S
C526 C527 1.390 . S
C526 N529 1.391 . S
C527 H499 0.930 . S
C527 C526 1.390 . S
C527 C528 1.392 . S
C528 H500 0.929 . S
C528 C525 1.391 . S
C528 C527 1.392 . S
N529 Co473 2.257 1_545 S
N529 C526 1.391 . S
N529 C530 1.388 . S
C530 H501 0.930 1_545 S
C530 C525 1.391 . S
C530 N529 1.388 . S
Co531 O533 2.143 . S
Co531 O539 2.074 . S
Co531 O542 2.093 . S
Co531 O555 2.097 . S
Co531 N572 2.151 . S
Co531 N580 2.214 . S
Co532 O533 2.160 . S
Co532 O538 2.058 . S
Co532 O548 2.057 . S
Co532 O563 2.037 . S
Co532 N567 2.145 . S
Co532 N588 2.257 . S
O533 Co531 2.143 . S
O533 Co532 2.160 . S
C534 O535 1.278 . S
C534 O542 1.224 . S
O535 C534 1.278 . S
C536 O537 1.245 . S
C536 O548 1.232 . S
O537 C536 1.245 . S
O538 Co532 2.058 . S
O538 C564 1.269 . S
O539 Co531 2.074 . S
O539 C564 1.257 . S
H540 C565 0.930 . S
H541 C571 0.930 . S
O542 Co531 2.093 . S
O542 C534 1.224 . S
H543 C575 0.929 . S
H544 C577 0.930 . S
H545 C578 0.930 . S
H546 C576 0.929 . S
H547 C579 0.928 . S
O548 Co532 2.057 . S
O548 C536 1.232 . S
H549 C568 0.929 . S
H550 C569 0.929 . S
H551 C581 0.931 . S
H552 C573 0.929 . S
H553 C582 0.930 . S
H554 C574 0.931 . S
O555 Co531 2.097 . S
O555 C583 1.214 . S
H556 C584 0.929 . S
H557 C585 0.929 . S
H558 C586 0.930 . S
H559 C587 0.929 . S
H560 C589 0.930 . S
H561 C566 0.930 . S
H562 C570 0.930 . S
O563 Co532 2.037 . S
O563 C583 1.234 . S
C564 O538 1.269 . S
C564 O539 1.257 . S
C565 H540 0.930 . S
C565 C568 1.388 . S
C565 C570 1.418 . S
C566 H561 0.930 . S
C566 C569 1.404 . S
C566 C570 1.353 . S
N567 Co532 2.145 . S
N567 C568 1.397 . S
N567 C569 1.334 . S
C568 H549 0.929 . S
C568 C565 1.388 . S
C568 N567 1.397 . S
C569 H550 0.929 . S
C569 C566 1.404 . S
C569 N567 1.334 . S
C570 H562 0.930 . S
C570 C565 1.418 . S
C570 C566 1.353 . S
C571 H541 0.930 . S
C571 N572 1.330 . S
C571 C573 1.446 . S
N572 Co531 2.151 . S
N572 C571 1.330 . S
N572 C576 1.418 . S
C573 H552 0.929 . S
C573 C571 1.446 . S
C573 C574 1.332 . S
C574 H554 0.931 . S
C574 C573 1.332 . S
C574 C575 1.267 . S
C575 H543 0.929 . S
C575 C574 1.267 . S
C575 C576 1.251 . S
C576 H546 0.929 . S
C576 N572 1.418 . S
C576 C575 1.251 . S
C577 H544 0.930 . S
C577 C579 1.406 . S
C577 C582 1.261 . S
C578 H545 0.930 . S
C578 N580 1.325 . S
C578 C581 1.357 . S
C579 H547 0.928 . S
C579 C577 1.406 . S
C579 N580 1.261 . S
N580 Co531 2.214 . S
N580 C578 1.325 . S
N580 C579 1.261 . S
C581 H551 0.931 . S
C581 C578 1.357 . S
C581 C582 1.312 . S
C582 H553 0.930 . S
C582 C577 1.261 . S
C582 C581 1.312 . S
C583 O555 1.214 . S
C583 O563 1.234 . S
C584 H556 0.929 . S
C584 C587 1.391 . S
C584 C589 1.391 . S
C585 H557 0.929 . S
C585 C586 1.390 . S
C585 N588 1.391 . S
C586 H558 0.930 . S
C586 C585 1.390 . S
C586 C587 1.392 . S
C587 H559 0.929 . S
C587 C584 1.391 . S
C587 C586 1.392 . S
N588 Co532 2.257 . S
N588 C585 1.391 . S
N588 C589 1.388 . S
C589 H560 0.930 . S
C589 C584 1.391 . S
C589 N588 1.388 . S
Co590 O592 2.143 1_565 S
Co590 O598 2.074 1_565 S
Co590 O601 2.093 . S
Co590 O614 2.097 . S
Co590 N631 2.151 1_565 S
Co590 N639 2.214 . S
Co591 O592 2.160 . S
Co591 O597 2.058 . S
Co591 O607 2.057 . S
Co591 O622 2.037 1_545 S
Co591 N626 2.145 . S
Co591 N647 2.257 . S
O592 Co590 2.143 1_545 S
O592 Co591 2.160 . S
C593 O594 1.278 . S
C593 O601 1.224 . S
O594 C593 1.278 . S
C595 O596 1.245 . S
C595 O607 1.232 . S
O596 C595 1.245 . S
O597 Co591 2.058 . S
O597 C623 1.269 . S
O598 Co590 2.074 1_545 S
O598 C623 1.257 . S
H599 C624 0.930 . S
H600 C630 0.930 . S
O601 Co590 2.093 . S
O601 C593 1.224 . S
H602 C634 0.929 . S
H603 C636 0.930 . S
H604 C637 0.930 . S
H605 C635 0.929 . S
H606 C638 0.928 . S
O607 Co591 2.057 . S
O607 C595 1.232 . S
H608 C627 0.929 . S
H609 C628 0.929 . S
H610 C640 0.931 . S
H611 C632 0.929 . S
H612 C641 0.930 . S
H613 C633 0.931 . S
O614 Co590 2.097 . S
O614 C642 1.214 . S
H615 C643 0.929 1_545 S
H616 C644 0.929 . S
H617 C645 0.930 . S
H618 C646 0.929 . S
H619 C648 0.930 . S
H620 C625 0.930 . S
H621 C629 0.930 . S
O622 Co591 2.037 1_565 S
O622 C642 1.234 . S
C623 O597 1.269 . S
C623 O598 1.257 . S
C624 H599 0.930 . S
C624 C627 1.388 . S
C624 C629 1.418 . S
C625 H620 0.930 . S
C625 C628 1.404 . S
C625 C629 1.353 . S
N626 Co591 2.145 . S
N626 C627 1.397 . S
N626 C628 1.334 . S
C627 H608 0.929 . S
C627 C624 1.388 . S
C627 N626 1.397 . S
C628 H609 0.929 . S
C628 C625 1.404 . S
C628 N626 1.334 . S
C629 H621 0.930 . S
C629 C624 1.418 . S
C629 C625 1.353 . S
C630 H600 0.930 . S
C630 N631 1.330 . S
C630 C632 1.446 . S
N631 Co590 2.151 1_545 S
N631 C630 1.330 . S
N631 C635 1.418 . S
C632 H611 0.929 . S
C632 C630 1.446 . S
C632 C633 1.332 . S
C633 H613 0.931 . S
C633 C632 1.332 . S
C633 C634 1.267 . S
C634 H602 0.929 . S
C634 C633 1.267 . S
C634 C635 1.251 . S
C635 H605 0.929 . S
C635 N631 1.418 . S
C635 C634 1.251 . S
C636 H603 0.930 . S
C636 C638 1.406 . S
C636 C641 1.261 . S
C637 H604 0.930 . S
C637 N639 1.325 . S
C637 C640 1.357 . S
C638 H606 0.928 . S
C638 C636 1.406 . S
C638 N639 1.261 . S
N639 Co590 2.214 . S
N639 C637 1.325 . S
N639 C638 1.261 . S
C640 H610 0.931 . S
C640 C637 1.357 . S
C640 C641 1.312 . S
C641 H612 0.930 . S
C641 C636 1.261 . S
C641 C640 1.312 . S
C642 O614 1.214 . S
C642 O622 1.234 . S
C643 H615 0.929 1_565 S
C643 C646 1.391 . S
C643 C648 1.391 1_565 S
C644 H616 0.929 . S
C644 C645 1.390 . S
C644 N647 1.391 1_565 S
C645 H617 0.930 . S
C645 C644 1.390 . S
C645 C646 1.392 . S
C646 H618 0.929 . S
C646 C643 1.391 . S
C646 C645 1.392 . S
N647 Co591 2.257 . S
N647 C644 1.391 1_545 S
N647 C648 1.388 . S
C648 H619 0.930 . S
C648 C643 1.391 1_545 S
C648 N647 1.388 . S
Co649 O651 2.143 1_554 S
Co649 O657 2.074 . S
Co649 O660 2.107 . S
Co649 O673 2.097 . S
Co649 N690 2.151 1_554 S
Co649 N698 2.214 . S
Co650 O651 2.160 1_554 S
Co650 O656 2.058 . S
Co650 O666 2.057 1_554 S
Co650 O681 2.037 . S
Co650 N685 2.145 . S
Co650 N706 2.257 1_554 S
O651 Co649 2.143 1_556 S
O651 Co650 2.160 1_556 S
C652 O653 1.278 . S
C652 O660 1.201 1_556 S
O653 C652 1.278 . S
C654 O655 1.245 . S
C654 O666 1.232 . S
O655 C654 1.245 . S
O656 Co650 2.058 . S
O656 C682 1.269 . S
O657 Co649 2.074 . S
O657 C682 1.257 . S
H658 C683 0.930 . S
H659 C689 0.930 . S
O660 Co649 2.107 . S
O660 C652 1.201 1_554 S
H661 C693 0.929 . S
H662 C695 0.930 . S
H663 C696 0.930 . S
H664 C694 0.945 . S
H665 C697 0.928 . S
O666 Co650 2.057 1_556 S
O666 C654 1.232 . S
H667 C686 0.929 . S
H668 C687 0.929 1_556 S
H669 C699 0.931 . S
H670 C691 0.929 . S
H671 C700 0.930 . S
H672 C692 0.931 . S
O673 Co649 2.097 . S
O673 C701 1.214 . S
H674 C702 0.929 . S
H675 C703 0.929 . S
H676 C704 0.930 . S
H677 C705 0.929 . S
H678 C707 0.930 . S
H679 C684 0.930 . S
H680 C688 0.930 . S
O681 Co650 2.037 . S
O681 C701 1.234 . S
C682 O656 1.269 . S
C682 O657 1.257 . S
C683 H658 0.930 . S
C683 C686 1.388 . S
C683 C688 1.418 . S
C684 H679 0.930 . S
C684 C687 1.404 . S
C684 C688 1.353 . S
N685 Co650 2.145 . S
N685 C686 1.397 . S
N685 C687 1.334 . S
C686 H667 0.929 . S
C686 C683 1.388 . S
C686 N685 1.397 . S
C687 H668 0.929 1_554 S
C687 C684 1.404 . S
C687 N685 1.334 . S
C688 H680 0.930 . S
C688 C683 1.418 . S
C688 C684 1.353 . S
C689 H659 0.930 . S
C689 N690 1.330 . S
C689 C691 1.446 . S
N690 Co649 2.151 1_556 S
N690 C689 1.330 . S
N690 C694 1.411 1_556 S
C691 H670 0.929 . S
C691 C689 1.446 . S
C691 C692 1.332 . S
C692 H672 0.931 . S
C692 C691 1.332 . S
C692 C693 1.267 . S
C693 H661 0.929 . S
C693 C692 1.267 . S
C693 C694 1.242 1_556 S
C694 H664 0.945 . S
C694 N690 1.411 1_554 S
C694 C693 1.242 1_554 S
C695 H662 0.930 . S
C695 C697 1.406 . S
C695 C700 1.261 . S
C696 H663 0.930 . S
C696 N698 1.325 . S
C696 C699 1.357 . S
C697 H665 0.928 . S
C697 C695 1.406 . S
C697 N698 1.261 . S
N698 Co649 2.214 . S
N698 C696 1.325 . S
N698 C697 1.261 . S
C699 H669 0.931 . S
C699 C696 1.357 . S
C699 C700 1.312 . S
C700 H671 0.930 . S
C700 C695 1.261 . S
C700 C699 1.312 . S
C701 O673 1.214 . S
C701 O681 1.234 . S
C702 H674 0.929 . S
C702 C705 1.391 . S
C702 C707 1.391 . S
C703 H675 0.929 . S
C703 C704 1.390 . S
C703 N706 1.391 1_554 S
C704 H676 0.930 . S
C704 C703 1.390 . S
C704 C705 1.392 1_554 S
C705 H677 0.929 . S
C705 C702 1.391 . S
C705 C704 1.392 1_556 S
N706 Co650 2.257 1_556 S
N706 C703 1.391 1_556 S
N706 C707 1.388 . S
C707 H678 0.930 . S
C707 C702 1.391 . S
C707 N706 1.388 . S
Co708 O710 2.143 . S
Co708 O716 2.074 1_556 S
Co708 O719 2.093 . S
Co708 O732 2.097 . S
Co708 N749 2.151 1_556 S
Co708 N757 2.214 . S
Co709 O710 2.160 1_554 S
Co709 O715 2.058 . S
Co709 O725 2.057 . S
Co709 O740 2.037 1_554 S
Co709 N744 2.145 . S
Co709 N765 2.257 1_554 S
O710 Co708 2.143 . S
O710 Co709 2.160 1_556 S
C711 O712 1.278 . S
C711 O719 1.224 . S
O712 C711 1.278 . S
C713 O714 1.245 . S
C713 O725 1.232 . S
O714 C713 1.245 . S
O715 Co709 2.058 . S
O715 C741 1.269 . S
O716 Co708 2.074 1_554 S
O716 C741 1.257 . S
H717 C742 0.930 . S
H718 C748 0.930 . S
O719 Co708 2.093 . S
O719 C711 1.224 . S
H720 C752 0.929 . S
H721 C754 0.930 . S
H722 C755 0.930 . S
H723 C753 0.929 . S
H724 C756 0.928 . S
O725 Co709 2.057 . S
O725 C713 1.232 . S
H726 C745 0.929 . S
H727 C746 0.929 . S
H728 C758 0.931 . S
H729 C750 0.929 . S
H730 C759 0.930 . S
H731 C751 0.931 . S
O732 Co708 2.097 . S
O732 C760 1.214 . S
H733 C761 0.929 . S
H734 C762 0.929 . S
H735 C763 0.930 . S
H736 C764 0.929 . S
H737 C766 0.930 . S
H738 C743 0.930 . S
H739 C747 0.930 . S
O740 Co709 2.037 1_556 S
O740 C760 1.234 . S
C741 O715 1.269 . S
C741 O716 1.257 . S
C742 H717 0.930 . S
C742 C745 1.388 . S
C742 C747 1.418 . S
C743 H738 0.930 . S
C743 C746 1.404 . S
C743 C747 1.353 . S
N744 Co709 2.145 . S
N744 C745 1.397 . S
N744 C746 1.334 . S
C745 H726 0.929 . S
C745 C742 1.388 . S
C745 N744 1.397 . S
C746 H727 0.929 . S
C746 C743 1.404 . S
C746 N744 1.334 . S
C747 H739 0.930 . S
C747 C742 1.418 . S
C747 C743 1.353 . S
C748 H718 0.930 . S
C748 N749 1.330 1_556 S
C748 C750 1.446 1_556 S
N749 Co708 2.151 1_554 S
N749 C748 1.330 1_554 S
N749 C753 1.418 . S
C750 H729 0.929 . S
C750 C748 1.446 1_554 S
C750 C751 1.332 . S
C751 H731 0.931 . S
C751 C750 1.332 . S
C751 C752 1.267 . S
C752 H720 0.929 . S
C752 C751 1.267 . S
C752 C753 1.251 . S
C753 H723 0.929 . S
C753 N749 1.418 . S
C753 C752 1.251 . S
C754 H721 0.930 . S
C754 C756 1.406 . S
C754 C759 1.261 . S
C755 H722 0.930 . S
C755 N757 1.325 . S
C755 C758 1.357 . S
C756 H724 0.928 . S
C756 C754 1.406 . S
C756 N757 1.261 . S
N757 Co708 2.214 . S
N757 C755 1.325 . S
N757 C756 1.261 . S
C758 H728 0.931 . S
C758 C755 1.357 . S
C758 C759 1.312 . S
C759 H730 0.930 . S
C759 C754 1.261 . S
C759 C758 1.312 . S
C760 O732 1.214 . S
C760 O740 1.234 . S
C761 H733 0.929 . S
C761 C764 1.391 . S
C761 C766 1.391 . S
C762 H734 0.929 . S
C762 C763 1.390 . S
C762 N765 1.391 . S
C763 H735 0.930 . S
C763 C762 1.390 . S
C763 C764 1.392 . S
C764 H736 0.929 . S
C764 C761 1.391 . S
C764 C763 1.392 . S
N765 Co709 2.257 1_556 S
N765 C762 1.391 . S
N765 C766 1.388 . S
C766 H737 0.930 . S
C766 C761 1.391 . S
C766 N765 1.388 . S
Co767 O769 2.143 1_556 S
Co767 O775 2.074 1_556 S
Co767 O778 2.093 . S
Co767 O791 2.097 . S
Co767 N808 2.151 1_556 S
Co767 N816 2.214 . S
Co768 O769 2.160 . S
Co768 O774 2.058 . S
Co768 O784 2.057 . S
Co768 O799 2.037 1_554 S
Co768 N803 2.145 . S
Co768 N824 2.257 . S
O769 Co767 2.143 1_554 S
O769 Co768 2.160 . S
C770 O771 1.278 . S
C770 O778 1.224 . S
O771 C770 1.278 . S
C772 O773 1.245 . S
C772 O784 1.232 . S
O773 C772 1.245 . S
O774 Co768 2.058 . S
O774 C800 1.269 . S
O775 Co767 2.074 1_554 S
O775 C800 1.257 . S
H776 C801 0.930 . S
H777 C807 0.930 . S
O778 Co767 2.093 . S
O778 C770 1.224 . S
H779 C811 0.929 . S
H780 C813 0.930 . S
H781 C814 0.930 . S
H782 C812 0.929 . S
H783 C815 0.928 . S
O784 Co768 2.057 . S
O784 C772 1.232 . S
H785 C804 0.929 . S
H786 C805 0.929 . S
H787 C817 0.931 . S
H788 C809 0.929 . S
H789 C818 0.930 . S
H790 C810 0.931 . S
O791 Co767 2.097 . S
O791 C819 1.214 . S
H792 C820 0.929 1_554 S
H793 C821 0.929 . S
H794 C822 0.930 . S
H795 C823 0.929 . S
H796 C825 0.930 . S
H797 C802 0.930 . S
H798 C806 0.930 . S
O799 Co768 2.037 1_556 S
O799 C819 1.234 . S
C800 O774 1.269 . S
C800 O775 1.257 . S
C801 H776 0.930 . S
C801 C804 1.388 . S
C801 C806 1.418 . S
C802 H797 0.930 . S
C802 C805 1.404 . S
C802 C806 1.353 . S
N803 Co768 2.145 . S
N803 C804 1.397 . S
N803 C805 1.334 . S
C804 H785 0.929 . S
C804 C801 1.388 . S
C804 N803 1.397 . S
C805 H786 0.929 . S
C805 C802 1.404 . S
C805 N803 1.334 . S
C806 H798 0.930 . S
C806 C801 1.418 . S
C806 C802 1.353 . S
C807 H777 0.930 . S
C807 N808 1.330 . S
C807 C809 1.446 . S
N808 Co767 2.151 1_554 S
N808 C807 1.330 . S
N808 C812 1.418 . S
C809 H788 0.929 . S
C809 C807 1.446 . S
C809 C810 1.332 . S
C810 H790 0.931 . S
C810 C809 1.332 . S
C810 C811 1.267 . S
C811 H779 0.929 . S
C811 C810 1.267 . S
C811 C812 1.251 . S
C812 H782 0.929 . S
C812 N808 1.418 . S
C812 C811 1.251 . S
C813 H780 0.930 . S
C813 C815 1.406 . S
C813 C818 1.261 . S
C814 H781 0.930 . S
C814 N816 1.325 . S
C814 C817 1.357 . S
C815 H783 0.928 . S
C815 C813 1.406 . S
C815 N816 1.261 . S
N816 Co767 2.214 . S
N816 C814 1.325 . S
N816 C815 1.261 . S
C817 H787 0.931 . S
C817 C814 1.357 . S
C817 C818 1.312 . S
C818 H789 0.930 . S
C818 C813 1.261 . S
C818 C817 1.312 . S
C819 O791 1.214 . S
C819 O799 1.234 . S
C820 H792 0.929 1_556 S
C820 C823 1.391 . S
C820 C825 1.391 1_556 S
C821 H793 0.929 . S
C821 C822 1.390 . S
C821 N824 1.391 1_556 S
C822 H794 0.930 . S
C822 C821 1.390 . S
C822 C823 1.392 . S
C823 H795 0.929 . S
C823 C820 1.391 . S
C823 C822 1.392 . S
N824 Co768 2.257 . S
N824 C821 1.391 1_554 S
N824 C825 1.388 . S
C825 H796 0.930 . S
C825 C820 1.391 1_554 S
C825 N824 1.388 . S
Co826 O828 2.143 . S
Co826 O834 2.074 . S
Co826 O837 2.093 . S
Co826 O850 2.097 . S
Co826 N867 2.151 . S
Co826 N875 2.214 . S
Co827 O828 2.160 . S
Co827 O833 2.058 . S
Co827 O843 2.057 . S
Co827 O858 2.037 . S
Co827 N862 2.145 . S
Co827 N883 2.257 . S
O828 Co826 2.143 . S
O828 Co827 2.160 . S
C829 O830 1.278 . S
C829 O837 1.224 . S
O830 C829 1.278 . S
C831 O832 1.245 . S
C831 O843 1.232 . S
O832 C831 1.245 . S
O833 Co827 2.058 . S
O833 C859 1.269 . S
O834 Co826 2.074 . S
O834 C859 1.257 . S
H835 C860 0.930 . S
H836 C866 0.930 . S
O837 Co826 2.093 . S
O837 C829 1.224 . S
H838 C870 0.929 . S
H839 C872 0.930 . S
H840 C873 0.930 . S
H841 C871 0.929 . S
H842 C874 0.928 . S
O843 Co827 2.057 . S
O843 C831 1.232 . S
H844 C863 0.929 . S
H845 C864 0.929 . S
H846 C876 0.931 . S
H847 C868 0.929 . S
H848 C877 0.930 . S
H849 C869 0.931 . S
O850 Co826 2.097 . S
O850 C878 1.214 . S
H851 C879 0.929 . S
H852 C880 0.929 . S
H853 C881 0.930 . S
H854 C882 0.929 . S
H855 C884 0.930 . S
H856 C861 0.930 . S
H857 C865 0.930 . S
O858 Co827 2.037 . S
O858 C878 1.234 . S
C859 O833 1.269 . S
C859 O834 1.257 . S
C860 H835 0.930 . S
C860 C863 1.388 . S
C860 C865 1.418 . S
C861 H856 0.930 . S
C861 C864 1.404 . S
C861 C865 1.353 . S
N862 Co827 2.145 . S
N862 C863 1.397 . S
N862 C864 1.334 . S
C863 H844 0.929 . S
C863 C860 1.388 . S
C863 N862 1.397 . S
C864 H845 0.929 . S
C864 C861 1.404 . S
C864 N862 1.334 . S
C865 H857 0.930 . S
C865 C860 1.418 . S
C865 C861 1.353 . S
C866 H836 0.930 . S
C866 N867 1.330 . S
C866 C868 1.446 . S
N867 Co826 2.151 . S
N867 C866 1.330 . S
N867 C871 1.418 . S
C868 H847 0.929 . S
C868 C866 1.446 . S
C868 C869 1.332 . S
C869 H849 0.931 . S
C869 C868 1.332 . S
C869 C870 1.267 . S
C870 H838 0.929 . S
C870 C869 1.267 . S
C870 C871 1.251 . S
C871 H841 0.929 . S
C871 N867 1.418 . S
C871 C870 1.251 . S
C872 H839 0.930 . S
C872 C874 1.406 . S
C872 C877 1.261 . S
C873 H840 0.930 . S
C873 N875 1.325 . S
C873 C876 1.357 . S
C874 H842 0.928 . S
C874 C872 1.406 . S
C874 N875 1.261 . S
N875 Co826 2.214 . S
N875 C873 1.325 . S
N875 C874 1.261 . S
C876 H846 0.931 . S
C876 C873 1.357 . S
C876 C877 1.312 . S
C877 H848 0.930 . S
C877 C872 1.261 . S
C877 C876 1.312 . S
C878 O850 1.214 . S
C878 O858 1.234 . S
C879 H851 0.929 . S
C879 C882 1.391 . S
C879 C884 1.391 . S
C880 H852 0.929 . S
C880 C881 1.390 . S
C880 N883 1.391 . S
C881 H853 0.930 . S
C881 C880 1.390 . S
C881 C882 1.392 . S
C882 H854 0.929 . S
C882 C879 1.391 . S
C882 C881 1.392 . S
N883 Co827 2.257 . S
N883 C880 1.391 . S
N883 C884 1.388 . S
C884 H855 0.930 . S
C884 C879 1.391 . S
C884 N883 1.388 . S
Co885 O887 2.143 . S
Co885 O893 2.074 . S
Co885 O896 2.093 . S
Co885 O909 2.097 . S
Co885 N926 2.151 . S
Co885 N934 2.214 . S
Co886 O887 2.160 . S
Co886 O892 2.058 . S
Co886 O902 2.057 . S
Co886 O917 2.037 . S
Co886 N921 2.145 . S
Co886 N942 2.257 . S
O887 Co885 2.143 . S
O887 Co886 2.160 . S
C888 O889 1.278 . S
C888 O896 1.224 . S
O889 C888 1.278 . S
C890 O891 1.245 . S
C890 O902 1.232 . S
O891 C890 1.245 . S
O892 Co886 2.058 . S
O892 C918 1.269 . S
O893 Co885 2.074 . S
O893 C918 1.257 . S
H894 C919 0.930 . S
H895 C925 0.930 . S
O896 Co885 2.093 . S
O896 C888 1.224 . S
H897 C929 0.929 . S
H898 C931 0.930 . S
H899 C932 0.930 . S
H900 C930 0.929 . S
H901 C933 0.928 . S
O902 Co886 2.057 . S
O902 C890 1.232 . S
H903 C922 0.929 . S
H904 C923 0.929 . S
H905 C935 0.931 . S
H906 C927 0.929 . S
H907 C936 0.930 . S
H908 C928 0.931 1_545 S
O909 Co885 2.097 . S
O909 C937 1.214 . S
H910 C938 0.929 . S
H911 C939 0.929 . S
H912 C940 0.930 . S
H913 C941 0.929 . S
H914 C943 0.930 . S
H915 C920 0.930 . S
H916 C924 0.930 . S
O917 Co886 2.037 . S
O917 C937 1.234 . S
C918 O892 1.269 . S
C918 O893 1.257 . S
C919 H894 0.930 . S
C919 C922 1.388 . S
C919 C924 1.418 . S
C920 H915 0.930 . S
C920 C923 1.404 . S
C920 C924 1.353 . S
N921 Co886 2.145 . S
N921 C922 1.397 . S
N921 C923 1.334 . S
C922 H903 0.929 . S
C922 C919 1.388 . S
C922 N921 1.397 . S
C923 H904 0.929 . S
C923 C920 1.404 . S
C923 N921 1.334 . S
C924 H916 0.930 . S
C924 C919 1.418 . S
C924 C920 1.353 . S
C925 H895 0.930 . S
C925 N926 1.330 . S
C925 C927 1.446 . S
N926 Co885 2.151 . S
N926 C925 1.330 . S
N926 C930 1.418 . S
C927 H906 0.929 . S
C927 C925 1.446 . S
C927 C928 1.332 . S
C928 H908 0.931 1_565 S
C928 C927 1.332 . S
C928 C929 1.267 . S
C929 H897 0.929 . S
C929 C928 1.267 . S
C929 C930 1.251 . S
C930 H900 0.929 . S
C930 N926 1.418 . S
C930 C929 1.251 . S
C931 H898 0.930 . S
C931 C933 1.406 . S
C931 C936 1.261 . S
C932 H899 0.930 . S
C932 N934 1.325 . S
C932 C935 1.357 . S
C933 H901 0.928 . S
C933 C931 1.406 . S
C933 N934 1.261 . S
N934 Co885 2.214 . S
N934 C932 1.325 . S
N934 C933 1.261 . S
C935 H905 0.931 . S
C935 C932 1.357 . S
C935 C936 1.312 . S
C936 H907 0.930 . S
C936 C931 1.261 . S
C936 C935 1.312 . S
C937 O909 1.214 . S
C937 O917 1.234 . S
C938 H910 0.929 . S
C938 C941 1.391 . S
C938 C943 1.391 . S
C939 H911 0.929 . S
C939 C940 1.390 . S
C939 N942 1.391 . S
C940 H912 0.930 . S
C940 C939 1.390 . S
C940 C941 1.392 . S
C941 H913 0.929 . S
C941 C938 1.391 . S
C941 C940 1.392 . S
N942 Co886 2.257 . S
N942 C939 1.391 . S
N942 C943 1.388 . S
C943 H914 0.930 . S
C943 C938 1.391 . S
C943 N942 1.388 . S
Co944 O946 2.143 1_545 S
Co944 O952 2.074 . S
Co944 O955 2.112 . S
Co944 O968 2.097 . S
Co944 N985 2.151 1_545 S
Co944 N993 2.214 . S
Co945 O946 2.160 1_545 S
Co945 O951 2.058 . S
Co945 O961 2.057 1_545 S
Co945 O976 2.037 . S
Co945 N980 2.145 . S
Co945 N1001 2.257 1_545 S
O946 Co944 2.143 1_565 S
O946 Co945 2.160 1_565 S
C947 O948 1.278 . S
C947 O955 1.194 1_565 S
O948 C947 1.278 . S
C949 O950 1.245 . S
C949 O961 1.232 . S
O950 C949 1.245 . S
O951 Co945 2.058 . S
O951 C977 1.269 . S
O952 Co944 2.074 . S
O952 C977 1.257 . S
H953 C978 0.930 . S
H954 C984 0.930 . S
O955 Co944 2.112 . S
O955 C947 1.194 1_545 S
H956 C988 0.929 . S
H957 C990 0.930 . S
H958 C991 0.930 . S
H959 C989 0.955 . S
H960 C992 0.928 . S
O961 Co945 2.057 1_565 S
O961 C949 1.232 . S
H962 C981 0.929 . S
H963 C982 0.929 1_565 S
H964 C994 0.931 . S
H965 C986 0.929 . S
H966 C995 0.930 . S
H967 C987 0.931 . S
O968 Co944 2.097 . S
O968 C996 1.214 . S
H969 C997 0.929 . S
H970 C998 0.929 . S
H971 C999 0.930 . S
H972 C1000 0.929 . S
H973 C1002 0.930 . S
H974 C979 0.930 . S
H975 C983 0.968 . S
O976 Co945 2.037 . S
O976 C996 1.234 . S
C977 O951 1.269 . S
C977 O952 1.257 . S
C978 H953 0.930 . S
C978 C981 1.388 . S
C978 C983 1.418 . S
C979 H974 0.930 . S
C979 C982 1.404 . S
C979 C983 1.353 . S
N980 Co945 2.145 . S
N980 C981 1.397 . S
N980 C982 1.334 . S
C981 H962 0.929 . S
C981 C978 1.388 . S
C981 N980 1.397 . S
C982 H963 0.929 1_545 S
C982 C979 1.404 . S
C982 N980 1.334 . S
C983 H975 0.968 . S
C983 C978 1.418 . S
C983 C979 1.353 . S
C984 H954 0.930 . S
C984 N985 1.330 . S
C984 C986 1.446 . S
N985 Co944 2.151 1_565 S
N985 C984 1.330 . S
N985 C989 1.407 1_565 S
C986 H965 0.929 . S
C986 C984 1.446 . S
C986 C987 1.332 . S
C987 H967 0.931 . S
C987 C986 1.332 . S
C987 C988 1.267 . S
C988 H956 0.929 . S
C988 C987 1.267 . S
C988 C989 1.237 1_565 S
C989 H959 0.955 . S
C989 N985 1.407 1_545 S
C989 C988 1.237 1_545 S
C990 H957 0.930 . S
C990 C992 1.406 . S
C990 C995 1.261 . S
C991 H958 0.930 . S
C991 N993 1.325 . S
C991 C994 1.357 . S
C992 H960 0.928 . S
C992 C990 1.406 . S
C992 N993 1.261 . S
N993 Co944 2.214 . S
N993 C991 1.325 . S
N993 C992 1.261 . S
C994 H964 0.931 . S
C994 C991 1.357 . S
C994 C995 1.312 . S
C995 H966 0.930 . S
C995 C990 1.261 . S
C995 C994 1.312 . S
C996 O968 1.214 . S
C996 O976 1.234 . S
C997 H969 0.929 . S
C997 C1000 1.391 . S
C997 C1002 1.391 . S
C998 H970 0.929 . S
C998 C999 1.390 . S
C998 N1001 1.391 1_545 S
C999 H971 0.930 . S
C999 C998 1.390 . S
C999 C1000 1.392 1_545 S
C1000 H972 0.929 . S
C1000 C997 1.391 . S
C1000 C999 1.392 1_565 S
N1001 Co945 2.257 1_565 S
N1001 C998 1.391 1_565 S
N1001 C1002 1.388 . S
C1002 H973 0.930 . S
C1002 C997 1.391 . S
C1002 N1001 1.388 . S
Co1003 O1005 2.143 . S
Co1003 O1011 2.074 . S
Co1003 O1014 2.093 . S
Co1003 O1027 2.097 . S
Co1003 N1044 2.151 . S
Co1003 N1052 2.214 . S
Co1004 O1005 2.160 . S
Co1004 O1010 2.058 . S
Co1004 O1020 2.057 . S
Co1004 O1035 2.037 . S
Co1004 N1039 2.145 . S
Co1004 N1060 2.257 . S
O1005 Co1003 2.143 . S
O1005 Co1004 2.160 . S
C1006 O1007 1.278 . S
C1006 O1014 1.224 . S
O1007 C1006 1.278 . S
C1008 O1009 1.245 . S
C1008 O1020 1.232 . S
O1009 C1008 1.245 . S
O1010 Co1004 2.058 . S
O1010 C1036 1.269 . S
O1011 Co1003 2.074 . S
O1011 C1036 1.257 . S
H1012 C1037 0.930 . S
H1013 C1043 0.930 . S
O1014 Co1003 2.093 . S
O1014 C1006 1.224 . S
H1015 C1047 0.929 . S
H1016 C1049 0.930 . S
H1017 C1050 0.930 . S
H1018 C1048 0.929 . S
H1019 C1051 0.928 . S
O1020 Co1004 2.057 . S
O1020 C1008 1.232 . S
H1021 C1040 0.929 . S
H1022 C1041 0.929 . S
H1023 C1053 0.931 . S
H1024 C1045 0.929 . S
H1025 C1054 0.930 . S
H1026 C1046 0.931 . S
O1027 Co1003 2.097 . S
O1027 C1055 1.214 . S
H1028 C1056 0.929 . S
H1029 C1057 0.929 . S
H1030 C1058 0.930 . S
H1031 C1059 0.929 . S
H1032 C1061 0.930 . S
H1033 C1038 0.930 . S
H1034 C1042 0.930 . S
O1035 Co1004 2.037 . S
O1035 C1055 1.234 . S
C1036 O1010 1.269 . S
C1036 O1011 1.257 . S
C1037 H1012 0.930 . S
C1037 C1040 1.388 . S
C1037 C1042 1.418 . S
C1038 H1033 0.930 . S
C1038 C1041 1.404 . S
C1038 C1042 1.353 . S
N1039 Co1004 2.145 . S
N1039 C1040 1.397 . S
N1039 C1041 1.334 . S
C1040 H1021 0.929 . S
C1040 C1037 1.388 . S
C1040 N1039 1.397 . S
C1041 H1022 0.929 . S
C1041 C1038 1.404 . S
C1041 N1039 1.334 . S
C1042 H1034 0.930 . S
C1042 C1037 1.418 . S
C1042 C1038 1.353 . S
C1043 H1013 0.930 . S
C1043 N1044 1.330 . S
C1043 C1045 1.446 . S
N1044 Co1003 2.151 . S
N1044 C1043 1.330 . S
N1044 C1048 1.418 . S
C1045 H1024 0.929 . S
C1045 C1043 1.446 . S
C1045 C1046 1.332 . S
C1046 H1026 0.931 . S
C1046 C1045 1.332 . S
C1046 C1047 1.267 . S
C1047 H1015 0.929 . S
C1047 C1046 1.267 . S
C1047 C1048 1.251 . S
C1048 H1018 0.929 . S
C1048 N1044 1.418 . S
C1048 C1047 1.251 . S
C1049 H1016 0.930 . S
C1049 C1051 1.406 . S
C1049 C1054 1.261 . S
C1050 H1017 0.930 . S
C1050 N1052 1.325 . S
C1050 C1053 1.357 . S
C1051 H1019 0.928 . S
C1051 C1049 1.406 . S
C1051 N1052 1.261 . S
N1052 Co1003 2.214 . S
N1052 C1050 1.325 . S
N1052 C1051 1.261 . S
C1053 H1023 0.931 . S
C1053 C1050 1.357 . S
C1053 C1054 1.312 . S
C1054 H1025 0.930 . S
C1054 C1049 1.261 . S
C1054 C1053 1.312 . S
C1055 O1027 1.214 . S
C1055 O1035 1.234 . S
C1056 H1028 0.929 . S
C1056 C1059 1.391 . S
C1056 C1061 1.391 . S
C1057 H1029 0.929 . S
C1057 C1058 1.390 . S
C1057 N1060 1.391 . S
C1058 H1030 0.930 . S
C1058 C1057 1.390 . S
C1058 C1059 1.392 . S
C1059 H1031 0.929 . S
C1059 C1056 1.391 . S
C1059 C1058 1.392 . S
N1060 Co1004 2.257 . S
N1060 C1057 1.391 . S
N1060 C1061 1.388 . S
C1061 H1032 0.930 . S
C1061 C1056 1.391 . S
C1061 N1060 1.388 . S
Co1062 O1064 2.143 . S
Co1062 O1070 2.074 . S
Co1062 O1073 2.093 . S
Co1062 O1086 2.097 . S
Co1062 N1103 2.151 . S
Co1062 N1111 2.214 . S
Co1063 O1064 2.160 . S
Co1063 O1069 2.058 . S
Co1063 O1079 2.057 . S
Co1063 O1094 2.037 . S
Co1063 N1098 2.145 . S
Co1063 N1119 2.257 . S
O1064 Co1062 2.143 . S
O1064 Co1063 2.160 . S
C1065 O1066 1.278 . S
C1065 O1073 1.224 . S
O1066 C1065 1.278 . S
C1067 O1068 1.245 . S
C1067 O1079 1.232 . S
O1068 C1067 1.245 . S
O1069 Co1063 2.058 . S
O1069 C1095 1.269 . S
O1070 Co1062 2.074 . S
O1070 C1095 1.257 . S
H1071 C1096 0.930 . S
H1072 C1102 0.930 . S
O1073 Co1062 2.093 . S
O1073 C1065 1.224 . S
H1074 C1106 0.929 . S
H1075 C1108 0.930 . S
H1076 C1109 0.930 . S
H1077 C1107 0.929 . S
H1078 C1110 0.928 . S
O1079 Co1063 2.057 . S
O1079 C1067 1.232 . S
H1080 C1099 0.929 . S
H1081 C1100 0.929 . S
H1082 C1112 0.931 . S
H1083 C1104 0.929 . S
H1084 C1113 0.930 . S
H1085 C1105 0.931 . S
O1086 Co1062 2.097 . S
O1086 C1114 1.214 . S
H1087 C1115 0.929 . S
H1088 C1116 0.929 . S
H1089 C1117 0.930 . S
H1090 C1118 0.929 . S
H1091 C1120 0.930 . S
H1092 C1097 0.930 . S
H1093 C1101 0.930 . S
O1094 Co1063 2.037 . S
O1094 C1114 1.234 . S
C1095 O1069 1.269 . S
C1095 O1070 1.257 . S
C1096 H1071 0.930 . S
C1096 C1099 1.388 . S
C1096 C1101 1.418 . S
C1097 H1092 0.930 . S
C1097 C1100 1.404 . S
C1097 C1101 1.353 . S
N1098 Co1063 2.145 . S
N1098 C1099 1.397 . S
N1098 C1100 1.334 . S
C1099 H1080 0.929 . S
C1099 C1096 1.388 . S
C1099 N1098 1.397 . S
C1100 H1081 0.929 . S
C1100 C1097 1.404 . S
C1100 N1098 1.334 . S
C1101 H1093 0.930 . S
C1101 C1096 1.418 . S
C1101 C1097 1.353 . S
C1102 H1072 0.930 . S
C1102 N1103 1.330 . S
C1102 C1104 1.446 . S
N1103 Co1062 2.151 . S
N1103 C1102 1.330 . S
N1103 C1107 1.418 . S
C1104 H1083 0.929 . S
C1104 C1102 1.446 . S
C1104 C1105 1.332 . S
C1105 H1085 0.931 . S
C1105 C1104 1.332 . S
C1105 C1106 1.267 . S
C1106 H1074 0.929 . S
C1106 C1105 1.267 . S
C1106 C1107 1.251 . S
C1107 H1077 0.929 . S
C1107 N1103 1.418 . S
C1107 C1106 1.251 . S
C1108 H1075 0.930 . S
C1108 C1110 1.406 . S
C1108 C1113 1.261 . S
C1109 H1076 0.930 . S
C1109 N1111 1.325 . S
C1109 C1112 1.357 . S
C1110 H1078 0.928 . S
C1110 C1108 1.406 . S
C1110 N1111 1.261 . S
N1111 Co1062 2.214 . S
N1111 C1109 1.325 . S
N1111 C1110 1.261 . S
C1112 H1082 0.931 . S
C1112 C1109 1.357 . S
C1112 C1113 1.312 . S
C1113 H1084 0.930 . S
C1113 C1108 1.261 . S
C1113 C1112 1.312 . S
C1114 O1086 1.214 . S
C1114 O1094 1.234 . S
C1115 H1087 0.929 . S
C1115 C1118 1.391 . S
C1115 C1120 1.391 . S
C1116 H1088 0.929 . S
C1116 C1117 1.390 . S
C1116 N1119 1.391 . S
C1117 H1089 0.930 . S
C1117 C1116 1.390 . S
C1117 C1118 1.392 . S
C1118 H1090 0.929 . S
C1118 C1115 1.391 . S
C1118 C1117 1.392 . S
N1119 Co1063 2.257 . S
N1119 C1116 1.391 . S
N1119 C1120 1.388 . S
C1120 H1091 0.930 . S
C1120 C1115 1.391 . S
C1120 N1119 1.388 . S
Co1121 O1123 2.143 1_545 S
Co1121 O1129 2.074 . S
Co1121 O1132 2.093 1_545 S
Co1121 O1145 2.097 . S
Co1121 N1162 2.151 1_545 S
Co1121 N1170 2.214 . S
Co1122 O1123 2.160 1_545 S
Co1122 O1128 2.058 . S
Co1122 O1138 2.057 1_545 S
Co1122 O1153 2.037 . S
Co1122 N1157 2.145 . S
Co1122 N1178 2.257 1_545 S
O1123 Co1121 2.143 1_565 S
O1123 Co1122 2.160 1_565 S
C1124 O1125 1.278 . S
C1124 O1132 1.224 . S
O1125 C1124 1.278 . S
C1126 O1127 1.245 . S
C1126 O1138 1.232 . S
O1127 C1126 1.245 . S
O1128 Co1122 2.058 . S
O1128 C1154 1.269 . S
O1129 Co1121 2.074 . S
O1129 C1154 1.257 . S
H1130 C1155 0.930 . S
H1131 C1161 0.930 . S
O1132 Co1121 2.093 1_565 S
O1132 C1124 1.224 . S
H1133 C1165 0.929 . S
H1134 C1167 0.930 . S
H1135 C1168 0.930 . S
H1136 C1166 0.929 . S
H1137 C1169 0.915 1_565 S
O1138 Co1122 2.057 1_565 S
O1138 C1126 1.232 . S
H1139 C1158 0.929 . S
H1140 C1159 0.929 . S
H1141 C1171 0.931 . S
H1142 C1163 0.929 . S
H1143 C1172 0.930 . S
H1144 C1164 0.931 . S
O1145 Co1121 2.097 . S
O1145 C1173 1.214 . S
H1146 C1174 0.929 . S
H1147 C1175 0.929 . S
H1148 C1176 0.930 . S
H1149 C1177 0.929 . S
H1150 C1179 0.930 . S
H1151 C1156 0.930 . S
H1152 C1160 0.930 . S
O1153 Co1122 2.037 . S
O1153 C1173 1.234 . S
C1154 O1128 1.269 . S
C1154 O1129 1.257 . S
C1155 H1130 0.930 . S
C1155 C1158 1.388 . S
C1155 C1160 1.418 . S
C1156 H1151 0.930 . S
C1156 C1159 1.404 . S
C1156 C1160 1.353 . S
N1157 Co1122 2.145 . S
N1157 C1158 1.397 . S
N1157 C1159 1.334 . S
C1158 H1139 0.929 . S
C1158 C1155 1.388 . S
C1158 N1157 1.397 . S
C1159 H1140 0.929 . S
C1159 C1156 1.404 . S
C1159 N1157 1.334 . S
C1160 H1152 0.930 . S
C1160 C1155 1.418 . S
C1160 C1156 1.353 . S
C1161 H1131 0.930 . S
C1161 N1162 1.330 . S
C1161 C1163 1.446 . S
N1162 Co1121 2.151 1_565 S
N1162 C1161 1.330 . S
N1162 C1166 1.418 1_565 S
C1163 H1142 0.929 . S
C1163 C1161 1.446 . S
C1163 C1164 1.332 . S
C1164 H1144 0.931 . S
C1164 C1163 1.332 . S
C1164 C1165 1.267 1_565 S
C1165 H1133 0.929 . S
C1165 C1164 1.267 1_545 S
C1165 C1166 1.251 . S
C1166 H1136 0.929 . S
C1166 N1162 1.418 1_545 S
C1166 C1165 1.251 . S
C1167 H1134 0.930 . S
C1167 C1169 1.406 . S
C1167 C1172 1.261 . S
C1168 H1135 0.930 . S
C1168 N1170 1.325 . S
C1168 C1171 1.357 . S
C1169 H1137 0.915 1_545 S
C1169 C1167 1.406 . S
C1169 N1170 1.261 . S
N1170 Co1121 2.214 . S
N1170 C1168 1.325 . S
N1170 C1169 1.261 . S
C1171 H1141 0.931 . S
C1171 C1168 1.357 . S
C1171 C1172 1.312 . S
C1172 H1143 0.930 . S
C1172 C1167 1.261 . S
C1172 C1171 1.312 . S
C1173 O1145 1.214 . S
C1173 O1153 1.234 . S
C1174 H1146 0.929 . S
C1174 C1177 1.391 . S
C1174 C1179 1.391 . S
C1175 H1147 0.929 . S
C1175 C1176 1.390 1_545 S
C1175 N1178 1.391 1_545 S
C1176 H1148 0.930 . S
C1176 C1175 1.390 1_565 S
C1176 C1177 1.392 . S
C1177 H1149 0.929 . S
C1177 C1174 1.391 . S
C1177 C1176 1.392 . S
N1178 Co1122 2.257 1_565 S
N1178 C1175 1.391 1_565 S
N1178 C1179 1.388 . S
C1179 H1150 0.930 . S
C1179 C1174 1.391 . S
C1179 N1178 1.388 . S
Co1180 O1182 2.143 1_554 S
Co1180 O1188 2.074 . S
Co1180 O1191 2.093 . S
Co1180 O1204 2.097 . S
Co1180 N1221 2.151 1_554 S
Co1180 N1229 2.214 . S
Co1181 O1182 2.160 1_554 S
Co1181 O1187 2.058 . S
Co1181 O1197 2.057 1_554 S
Co1181 O1212 2.037 . S
Co1181 N1216 2.145 . S
Co1181 N1237 2.257 1_554 S
O1182 Co1180 2.143 1_556 S
O1182 Co1181 2.160 1_556 S
C1183 O1184 1.278 . S
C1183 O1191 1.224 1_556 S
O1184 C1183 1.278 . S
C1185 O1186 1.245 . S
C1185 O1197 1.232 . S
O1186 C1185 1.245 . S
O1187 Co1181 2.058 . S
O1187 C1213 1.269 . S
O1188 Co1180 2.074 . S
O1188 C1213 1.257 . S
H1189 C1214 0.930 . S
H1190 C1220 0.930 . S
O1191 Co1180 2.093 . S
O1191 C1183 1.224 1_554 S
H1192 C1224 0.929 1_554 S
H1193 C1226 0.930 . S
H1194 C1227 0.930 . S
H1195 C1225 0.929 . S
H1196 C1228 0.928 . S
O1197 Co1181 2.057 1_556 S
O1197 C1185 1.232 . S
H1198 C1217 0.929 . S
H1199 C1218 0.929 1_556 S
H1200 C1230 0.931 . S
H1201 C1222 0.929 . S
H1202 C1231 0.930 . S
H1203 C1223 0.931 . S
O1204 Co1180 2.097 . S
O1204 C1232 1.214 . S
H1205 C1233 0.929 . S
H1206 C1234 0.929 . S
H1207 C1235 0.930 . S
H1208 C1236 0.929 . S
H1209 C1238 0.930 . S
H1210 C1215 0.930 1_556 S
H1211 C1219 0.930 . S
O1212 Co1181 2.037 . S
O1212 C1232 1.234 . S
C1213 O1187 1.269 . S
C1213 O1188 1.257 . S
C1214 H1189 0.930 . S
C1214 C1217 1.388 . S
C1214 C1219 1.418 . S
C1215 H1210 0.930 1_554 S
C1215 C1218 1.404 . S
C1215 C1219 1.353 . S
N1216 Co1181 2.145 . S
N1216 C1217 1.397 . S
N1216 C1218 1.334 . S
C1217 H1198 0.929 . S
C1217 C1214 1.388 . S
C1217 N1216 1.397 . S
C1218 H1199 0.929 1_554 S
C1218 C1215 1.404 . S
C1218 N1216 1.334 . S
C1219 H1211 0.930 . S
C1219 C1214 1.418 . S
C1219 C1215 1.353 . S
C1220 H1190 0.930 . S
C1220 N1221 1.330 . S
C1220 C1222 1.446 . S
N1221 Co1180 2.151 1_556 S
N1221 C1220 1.330 . S
N1221 C1225 1.418 1_556 S
C1222 H1201 0.929 . S
C1222 C1220 1.446 . S
C1222 C1223 1.332 . S
C1223 H1203 0.931 . S
C1223 C1222 1.332 . S
C1223 C1224 1.267 . S
C1224 H1192 0.929 1_556 S
C1224 C1223 1.267 . S
C1224 C1225 1.251 1_556 S
C1225 H1195 0.929 . S
C1225 N1221 1.418 1_554 S
C1225 C1224 1.251 1_554 S
C1226 H1193 0.930 . S
C1226 C1228 1.406 . S
C1226 C1231 1.261 . S
C1227 H1194 0.930 . S
C1227 N1229 1.325 . S
C1227 C1230 1.357 . S
C1228 H1196 0.928 . S
C1228 C1226 1.406 . S
C1228 N1229 1.261 . S
N1229 Co1180 2.214 . S
N1229 C1227 1.325 . S
N1229 C1228 1.261 . S
C1230 H1200 0.931 . S
C1230 C1227 1.357 . S
C1230 C1231 1.312 . S
C1231 H1202 0.930 . S
C1231 C1226 1.261 . S
C1231 C1230 1.312 . S
C1232 O1204 1.214 . S
C1232 O1212 1.234 . S
C1233 H1205 0.929 . S
C1233 C1236 1.391 . S
C1233 C1238 1.391 . S
C1234 H1206 0.929 . S
C1234 C1235 1.390 . S
C1234 N1237 1.391 1_554 S
C1235 H1207 0.930 . S
C1235 C1234 1.390 . S
C1235 C1236 1.392 1_554 S
C1236 H1208 0.929 . S
C1236 C1233 1.391 . S
C1236 C1235 1.392 1_556 S
N1237 Co1181 2.257 1_556 S
N1237 C1234 1.391 1_556 S
N1237 C1238 1.388 . S
C1238 H1209 0.930 . S
C1238 C1233 1.391 . S
C1238 N1237 1.388 . S
Co1239 O1241 2.143 . S
Co1239 O1247 2.074 . S
Co1239 O1250 2.093 . S
Co1239 O1263 2.097 . S
Co1239 N1280 2.151 . S
Co1239 N1288 2.214 . S
Co1240 O1241 2.160 . S
Co1240 O1246 2.058 . S
Co1240 O1256 2.057 . S
Co1240 O1271 2.037 . S
Co1240 N1275 2.145 . S
Co1240 N1296 2.257 . S
O1241 Co1239 2.143 . S
O1241 Co1240 2.160 . S
C1242 O1243 1.278 . S
C1242 O1250 1.224 . S
O1243 C1242 1.278 . S
C1244 O1245 1.245 . S
C1244 O1256 1.232 . S
O1245 C1244 1.245 . S
O1246 Co1240 2.058 . S
O1246 C1272 1.269 . S
O1247 Co1239 2.074 . S
O1247 C1272 1.257 . S
H1248 C1273 0.930 . S
H1249 C1279 0.930 . S
O1250 Co1239 2.093 . S
O1250 C1242 1.224 . S
H1251 C1283 0.929 . S
H1252 C1285 0.930 . S
H1253 C1286 0.930 . S
H1254 C1284 0.929 . S
H1255 C1287 0.928 . S
O1256 Co1240 2.057 . S
O1256 C1244 1.232 . S
H1257 C1276 0.929 . S
H1258 C1277 0.929 . S
H1259 C1289 0.931 . S
H1260 C1281 0.929 . S
H1261 C1290 0.930 . S
H1262 C1282 0.931 . S
O1263 Co1239 2.097 . S
O1263 C1291 1.214 . S
H1264 C1292 0.929 . S
H1265 C1293 0.929 . S
H1266 C1294 0.930 . S
H1267 C1295 0.929 . S
H1268 C1297 0.930 . S
H1269 C1274 0.930 . S
H1270 C1278 0.930 1_455 S
O1271 Co1240 2.037 . S
O1271 C1291 1.234 . S
C1272 O1246 1.269 . S
C1272 O1247 1.257 . S
C1273 H1248 0.930 . S
C1273 C1276 1.388 . S
C1273 C1278 1.418 . S
C1274 H1269 0.930 . S
C1274 C1277 1.404 . S
C1274 C1278 1.353 . S
N1275 Co1240 2.145 . S
N1275 C1276 1.397 . S
N1275 C1277 1.334 . S
C1276 H1257 0.929 . S
C1276 C1273 1.388 . S
C1276 N1275 1.397 . S
C1277 H1258 0.929 . S
C1277 C1274 1.404 . S
C1277 N1275 1.334 . S
C1278 H1270 0.930 1_655 S
C1278 C1273 1.418 . S
C1278 C1274 1.353 . S
C1279 H1249 0.930 . S
C1279 N1280 1.330 . S
C1279 C1281 1.446 . S
N1280 Co1239 2.151 . S
N1280 C1279 1.330 . S
N1280 C1284 1.418 . S
C1281 H1260 0.929 . S
C1281 C1279 1.446 . S
C1281 C1282 1.332 . S
C1282 H1262 0.931 . S
C1282 C1281 1.332 . S
C1282 C1283 1.267 . S
C1283 H1251 0.929 . S
C1283 C1282 1.267 . S
C1283 C1284 1.251 . S
C1284 H1254 0.929 . S
C1284 N1280 1.418 . S
C1284 C1283 1.251 . S
C1285 H1252 0.930 . S
C1285 C1287 1.406 . S
C1285 C1290 1.261 . S
C1286 H1253 0.930 . S
C1286 N1288 1.325 . S
C1286 C1289 1.357 . S
C1287 H1255 0.928 . S
C1287 C1285 1.406 . S
C1287 N1288 1.261 . S
N1288 Co1239 2.214 . S
N1288 C1286 1.325 . S
N1288 C1287 1.261 . S
C1289 H1259 0.931 . S
C1289 C1286 1.357 . S
C1289 C1290 1.312 . S
C1290 H1261 0.930 . S
C1290 C1285 1.261 . S
C1290 C1289 1.312 . S
C1291 O1263 1.214 . S
C1291 O1271 1.234 . S
C1292 H1264 0.929 . S
C1292 C1295 1.391 . S
C1292 C1297 1.391 . S
C1293 H1265 0.929 . S
C1293 C1294 1.390 . S
C1293 N1296 1.391 . S
C1294 H1266 0.930 . S
C1294 C1293 1.390 . S
C1294 C1295 1.392 . S
C1295 H1267 0.929 . S
C1295 C1292 1.391 . S
C1295 C1294 1.392 . S
N1296 Co1240 2.257 . S
N1296 C1293 1.391 . S
N1296 C1297 1.388 . S
C1297 H1268 0.930 . S
C1297 C1292 1.391 . S
C1297 N1296 1.388 . S
Co1298 O1300 2.143 . S
Co1298 O1306 2.074 . S
Co1298 O1309 2.093 . S
Co1298 O1322 2.097 . S
Co1298 N1339 2.151 . S
Co1298 N1347 2.214 . S
Co1299 O1300 2.160 . S
Co1299 O1305 2.058 . S
Co1299 O1315 2.057 . S
Co1299 O1330 2.037 . S
Co1299 N1334 2.145 . S
Co1299 N1355 2.257 . S
O1300 Co1298 2.143 . S
O1300 Co1299 2.160 . S
C1301 O1302 1.278 . S
C1301 O1309 1.224 . S
O1302 C1301 1.278 . S
C1303 O1304 1.245 . S
C1303 O1315 1.232 . S
O1304 C1303 1.245 . S
O1305 Co1299 2.058 . S
O1305 C1331 1.269 . S
O1306 Co1298 2.074 . S
O1306 C1331 1.257 . S
H1307 C1332 0.930 . S
H1308 C1338 0.930 . S
O1309 Co1298 2.093 . S
O1309 C1301 1.224 . S
H1310 C1342 0.929 . S
H1311 C1344 0.930 . S
H1312 C1345 0.930 . S
H1313 C1343 0.929 . S
H1314 C1346 0.928 . S
O1315 Co1299 2.057 . S
O1315 C1303 1.232 . S
H1316 C1335 0.929 . S
H1317 C1336 0.929 . S
H1318 C1348 0.931 . S
H1319 C1340 0.929 . S
H1320 C1349 0.930 . S
H1321 C1341 0.931 . S
O1322 Co1298 2.097 . S
O1322 C1350 1.214 . S
H1323 C1351 0.929 . S
H1324 C1352 0.929 . S
H1325 C1353 0.930 . S
H1326 C1354 0.929 . S
H1327 C1356 0.930 . S
H1328 C1333 0.930 . S
H1329 C1337 0.930 . S
O1330 Co1299 2.037 . S
O1330 C1350 1.234 . S
C1331 O1305 1.269 . S
C1331 O1306 1.257 . S
C1332 H1307 0.930 . S
C1332 C1335 1.388 . S
C1332 C1337 1.418 . S
C1333 H1328 0.930 . S
C1333 C1336 1.404 . S
C1333 C1337 1.353 . S
N1334 Co1299 2.145 . S
N1334 C1335 1.397 . S
N1334 C1336 1.334 . S
C1335 H1316 0.929 . S
C1335 C1332 1.388 . S
C1335 N1334 1.397 . S
C1336 H1317 0.929 . S
C1336 C1333 1.404 . S
C1336 N1334 1.334 . S
C1337 H1329 0.930 . S
C1337 C1332 1.418 . S
C1337 C1333 1.353 . S
C1338 H1308 0.930 . S
C1338 N1339 1.330 . S
C1338 C1340 1.446 . S
N1339 Co1298 2.151 . S
N1339 C1338 1.330 . S
N1339 C1343 1.418 . S
C1340 H1319 0.929 . S
C1340 C1338 1.446 . S
C1340 C1341 1.332 . S
C1341 H1321 0.931 . S
C1341 C1340 1.332 . S
C1341 C1342 1.267 . S
C1342 H1310 0.929 . S
C1342 C1341 1.267 . S
C1342 C1343 1.251 . S
C1343 H1313 0.929 . S
C1343 N1339 1.418 . S
C1343 C1342 1.251 . S
C1344 H1311 0.930 . S
C1344 C1346 1.406 . S
C1344 C1349 1.261 . S
C1345 H1312 0.930 . S
C1345 N1347 1.325 . S
C1345 C1348 1.357 . S
C1346 H1314 0.928 . S
C1346 C1344 1.406 . S
C1346 N1347 1.261 . S
N1347 Co1298 2.214 . S
N1347 C1345 1.325 . S
N1347 C1346 1.261 . S
C1348 H1318 0.931 . S
C1348 C1345 1.357 . S
C1348 C1349 1.312 . S
C1349 H1320 0.930 . S
C1349 C1344 1.261 . S
C1349 C1348 1.312 . S
C1350 O1322 1.214 . S
C1350 O1330 1.234 . S
C1351 H1323 0.929 . S
C1351 C1354 1.391 . S
C1351 C1356 1.391 . S
C1352 H1324 0.929 . S
C1352 C1353 1.390 . S
C1352 N1355 1.391 . S
C1353 H1325 0.930 . S
C1353 C1352 1.390 . S
C1353 C1354 1.392 . S
C1354 H1326 0.929 . S
C1354 C1351 1.391 . S
C1354 C1353 1.392 . S
N1355 Co1299 2.257 . S
N1355 C1352 1.391 . S
N1355 C1356 1.388 . S
C1356 H1327 0.930 . S
C1356 C1351 1.391 . S
C1356 N1355 1.388 . S
Co1357 O1359 2.143 . S
Co1357 O1365 2.074 . S
Co1357 O1368 2.093 . S
Co1357 O1381 2.097 . S
Co1357 N1398 2.151 . S
Co1357 N1406 2.214 . S
Co1358 O1359 2.160 . S
Co1358 O1364 2.058 . S
Co1358 O1374 2.057 . S
Co1358 O1389 2.037 . S
Co1358 N1393 2.145 . S
Co1358 N1414 2.257 . S
O1359 Co1357 2.143 . S
O1359 Co1358 2.160 . S
C1360 O1361 1.278 . S
C1360 O1368 1.224 . S
O1361 C1360 1.278 . S
C1362 O1363 1.245 . S
C1362 O1374 1.232 . S
O1363 C1362 1.245 . S
O1364 Co1358 2.058 . S
O1364 C1390 1.269 . S
O1365 Co1357 2.074 . S
O1365 C1390 1.257 . S
H1366 C1391 0.930 . S
H1367 C1397 0.930 . S
O1368 Co1357 2.093 . S
O1368 C1360 1.224 . S
H1369 C1401 0.929 . S
H1370 C1403 0.930 . S
H1371 C1404 0.930 . S
H1372 C1402 0.929 . S
H1373 C1405 0.928 . S
O1374 Co1358 2.057 . S
O1374 C1362 1.232 . S
H1375 C1394 0.929 . S
H1376 C1395 0.929 . S
H1377 C1407 0.931 . S
H1378 C1399 0.929 . S
H1379 C1408 0.930 . S
H1380 C1400 0.931 . S
O1381 Co1357 2.097 . S
O1381 C1409 1.214 . S
H1382 C1410 0.929 . S
H1383 C1411 0.929 . S
H1384 C1412 0.930 . S
H1385 C1413 0.929 . S
H1386 C1415 0.930 . S
H1387 C1392 0.930 . S
H1388 C1396 0.930 . S
O1389 Co1358 2.037 . S
O1389 C1409 1.234 . S
C1390 O1364 1.269 . S
C1390 O1365 1.257 . S
C1391 H1366 0.930 . S
C1391 C1394 1.388 . S
C1391 C1396 1.418 . S
C1392 H1387 0.930 . S
C1392 C1395 1.404 . S
C1392 C1396 1.353 . S
N1393 Co1358 2.145 . S
N1393 C1394 1.397 . S
N1393 C1395 1.334 . S
C1394 H1375 0.929 . S
C1394 C1391 1.388 . S
C1394 N1393 1.397 . S
C1395 H1376 0.929 . S
C1395 C1392 1.404 . S
C1395 N1393 1.334 . S
C1396 H1388 0.930 . S
C1396 C1391 1.418 . S
C1396 C1392 1.353 . S
C1397 H1367 0.930 . S
C1397 N1398 1.330 . S
C1397 C1399 1.446 . S
N1398 Co1357 2.151 . S
N1398 C1397 1.330 . S
N1398 C1402 1.418 . S
C1399 H1378 0.929 . S
C1399 C1397 1.446 . S
C1399 C1400 1.332 . S
C1400 H1380 0.931 . S
C1400 C1399 1.332 . S
C1400 C1401 1.267 . S
C1401 H1369 0.929 . S
C1401 C1400 1.267 . S
C1401 C1402 1.251 . S
C1402 H1372 0.929 . S
C1402 N1398 1.418 . S
C1402 C1401 1.251 . S
C1403 H1370 0.930 . S
C1403 C1405 1.406 . S
C1403 C1408 1.261 . S
C1404 H1371 0.930 . S
C1404 N1406 1.325 . S
C1404 C1407 1.357 . S
C1405 H1373 0.928 . S
C1405 C1403 1.406 . S
C1405 N1406 1.261 . S
N1406 Co1357 2.214 . S
N1406 C1404 1.325 . S
N1406 C1405 1.261 . S
C1407 H1377 0.931 . S
C1407 C1404 1.357 . S
C1407 C1408 1.312 . S
C1408 H1379 0.930 . S
C1408 C1403 1.261 . S
C1408 C1407 1.312 . S
C1409 O1381 1.214 . S
C1409 O1389 1.234 . S
C1410 H1382 0.929 . S
C1410 C1413 1.391 . S
C1410 C1415 1.391 . S
C1411 H1383 0.929 . S
C1411 C1412 1.390 . S
C1411 N1414 1.391 . S
C1412 H1384 0.930 . S
C1412 C1411 1.390 . S
C1412 C1413 1.392 . S
C1413 H1385 0.929 . S
C1413 C1410 1.391 . S
C1413 C1412 1.392 . S
N1414 Co1358 2.257 . S
N1414 C1411 1.391 . S
N1414 C1415 1.388 . S
C1415 H1386 0.930 . S
C1415 C1410 1.391 . S
C1415 N1414 1.388 . S
H1416 C1428 0.930 . S
H1417 C1430 0.930 . S
H1418 C1431 0.930 . S
H1419 C1435 0.959 . S
H1420 C1435 0.959 . S
H1421 C1435 0.961 . S
H1422 C1436 0.960 . S
H1423 C1436 0.961 . S
H1424 C1436 0.959 . S
H1425 C1439 0.929 . S
H1426 C1440 0.931 . S
H1427 C1442 0.930 . S
C1428 H1416 0.930 . S
C1428 C1429 1.399 . S
C1428 C1433 1.399 . S
C1429 C1428 1.399 . S
C1429 C1430 1.376 . S
C1430 H1417 0.930 . S
C1430 C1429 1.376 . S
C1430 C1431 1.388 . S
C1431 H1418 0.930 . S
C1431 C1430 1.388 . S
C1431 C1432 1.390 . S
C1432 C1431 1.390 . S
C1432 C1433 1.394 . S
C1432 C1438 1.465 . S
C1433 C1428 1.399 . S
C1433 C1432 1.394 . S
C1433 C1434 1.516 . S
C1434 C1433 1.516 . S
C1434 C1435 1.502 . S
C1434 C1436 1.561 . S
C1434 C1437 1.526 . S
C1435 H1419 0.959 . S
C1435 H1420 0.959 . S
C1435 H1421 0.961 . S
C1435 C1434 1.502 . S
C1436 H1422 0.960 . S
C1436 H1423 0.961 . S
C1436 H1424 0.959 . S
C1436 C1434 1.561 . S
C1437 C1434 1.526 . S
C1437 C1438 1.396 . S
C1437 C1442 1.390 . S
C1438 C1432 1.465 . S
C1438 C1437 1.396 . S
C1438 C1439 1.399 . S
C1439 H1425 0.929 . S
C1439 C1438 1.399 . S
C1439 C1440 1.385 . S
C1440 H1426 0.931 . S
C1440 C1439 1.385 . S
C1440 C1441 1.389 . S
C1441 C1440 1.389 . S
C1441 C1442 1.387 . S
C1442 H1427 0.930 . S
C1442 C1437 1.390 . S
C1442 C1441 1.387 . S
H1443 C1455 0.930 . S
H1444 C1457 0.930 . S
H1445 C1458 0.930 . S
H1446 C1462 0.959 . S
H1447 C1462 0.959 . S
H1448 C1462 0.961 . S
H1449 C1463 0.960 . S
H1450 C1463 0.961 . S
H1451 C1463 0.959 . S
H1452 C1466 0.929 . S
H1453 C1467 0.931 . S
H1454 C1469 0.930 . S
C1455 H1443 0.930 . S
C1455 C1456 1.399 . S
C1455 C1460 1.399 . S
C1456 C1455 1.399 . S
C1456 C1457 1.376 . S
C1457 H1444 0.930 . S
C1457 C1456 1.376 . S
C1457 C1458 1.388 . S
C1458 H1445 0.930 . S
C1458 C1457 1.388 . S
C1458 C1459 1.390 . S
C1459 C1458 1.390 . S
C1459 C1460 1.394 . S
C1459 C1465 1.465 . S
C1460 C1455 1.399 . S
C1460 C1459 1.394 . S
C1460 C1461 1.516 . S
C1461 C1460 1.516 . S
C1461 C1462 1.502 . S
C1461 C1463 1.561 . S
C1461 C1464 1.526 . S
C1462 H1446 0.959 . S
C1462 H1447 0.959 . S
C1462 H1448 0.961 . S
C1462 C1461 1.502 . S
C1463 H1449 0.960 . S
C1463 H1450 0.961 . S
C1463 H1451 0.959 . S
C1463 C1461 1.561 . S
C1464 C1461 1.526 . S
C1464 C1465 1.396 . S
C1464 C1469 1.390 . S
C1465 C1459 1.465 . S
C1465 C1464 1.396 . S
C1465 C1466 1.399 . S
C1466 H1452 0.929 . S
C1466 C1465 1.399 . S
C1466 C1467 1.385 . S
C1467 H1453 0.931 . S
C1467 C1466 1.385 . S
C1467 C1468 1.389 . S
C1468 C1467 1.389 . S
C1468 C1469 1.387 . S
C1469 H1454 0.930 . S
C1469 C1464 1.390 . S
C1469 C1468 1.387 . S
H1470 C1482 0.930 . S
H1471 C1484 0.930 . S
H1472 C1485 0.930 . S
H1473 C1489 0.959 . S
H1474 C1489 0.959 . S
H1475 C1489 0.961 . S
H1476 C1490 0.960 . S
H1477 C1490 0.961 . S
H1478 C1490 0.959 . S
H1479 C1493 0.929 . S
H1480 C1494 0.931 . S
H1481 C1496 0.930 . S
C1482 H1470 0.930 . S
C1482 C1483 1.399 . S
C1482 C1487 1.399 . S
C1483 C1482 1.399 . S
C1483 C1484 1.376 . S
C1484 H1471 0.930 . S
C1484 C1483 1.376 . S
C1484 C1485 1.388 . S
C1485 H1472 0.930 . S
C1485 C1484 1.388 . S
C1485 C1486 1.390 . S
C1486 C1485 1.390 . S
C1486 C1487 1.394 . S
C1486 C1492 1.465 . S
C1487 C1482 1.399 . S
C1487 C1486 1.394 . S
C1487 C1488 1.516 . S
C1488 C1487 1.516 . S
C1488 C1489 1.502 . S
C1488 C1490 1.561 . S
C1488 C1491 1.526 . S
C1489 H1473 0.959 . S
C1489 H1474 0.959 . S
C1489 H1475 0.961 . S
C1489 C1488 1.502 . S
C1490 H1476 0.960 . S
C1490 H1477 0.961 . S
C1490 H1478 0.959 . S
C1490 C1488 1.561 . S
C1491 C1488 1.526 . S
C1491 C1492 1.396 . S
C1491 C1496 1.390 . S
C1492 C1486 1.465 . S
C1492 C1491 1.396 . S
C1492 C1493 1.399 . S
C1493 H1479 0.929 . S
C1493 C1492 1.399 . S
C1493 C1494 1.385 . S
C1494 H1480 0.931 . S
C1494 C1493 1.385 . S
C1494 C1495 1.389 . S
C1495 C1494 1.389 . S
C1495 C1496 1.387 . S
C1496 H1481 0.930 . S
C1496 C1491 1.390 . S
C1496 C1495 1.387 . S
H1497 C1509 0.930 . S
H1498 C1511 0.930 . S
H1499 C1512 0.930 . S
H1500 C1516 0.959 . S
H1501 C1516 0.959 . S
H1502 C1516 0.961 . S
H1503 C1517 0.960 . S
H1504 C1517 0.961 . S
H1505 C1517 0.959 . S
H1506 C1520 0.929 . S
H1507 C1521 0.931 . S
H1508 C1523 0.930 . S
C1509 H1497 0.930 . S
C1509 C1510 1.399 . S
C1509 C1514 1.399 . S
C1510 C1509 1.399 . S
C1510 C1511 1.376 . S
C1511 H1498 0.930 . S
C1511 C1510 1.376 . S
C1511 C1512 1.388 . S
C1512 H1499 0.930 . S
C1512 C1511 1.388 . S
C1512 C1513 1.390 . S
C1513 C1512 1.390 . S
C1513 C1514 1.394 . S
C1513 C1519 1.465 . S
C1514 C1509 1.399 . S
C1514 C1513 1.394 . S
C1514 C1515 1.516 . S
C1515 C1514 1.516 . S
C1515 C1516 1.502 . S
C1515 C1517 1.561 . S
C1515 C1518 1.526 . S
C1516 H1500 0.959 . S
C1516 H1501 0.959 . S
C1516 H1502 0.961 . S
C1516 C1515 1.502 . S
C1517 H1503 0.960 . S
C1517 H1504 0.961 . S
C1517 H1505 0.959 . S
C1517 C1515 1.561 . S
C1518 C1515 1.526 . S
C1518 C1519 1.396 . S
C1518 C1523 1.390 . S
C1519 C1513 1.465 . S
C1519 C1518 1.396 . S
C1519 C1520 1.399 . S
C1520 H1506 0.929 . S
C1520 C1519 1.399 . S
C1520 C1521 1.385 . S
C1521 H1507 0.931 . S
C1521 C1520 1.385 . S
C1521 C1522 1.389 . S
C1522 C1521 1.389 . S
C1522 C1523 1.387 . S
C1523 H1508 0.930 . S
C1523 C1518 1.390 . S
C1523 C1522 1.387 . S
H1524 C1536 0.930 . S
H1525 C1538 0.930 . S
H1526 C1539 0.930 . S
H1527 C1543 0.959 . S
H1528 C1543 0.959 . S
H1529 C1543 0.961 . S
H1530 C1544 0.960 . S
H1531 C1544 0.961 . S
H1532 C1544 0.959 . S
H1533 C1547 0.929 . S
H1534 C1548 0.931 . S
H1535 C1550 0.930 . S
C1536 H1524 0.930 . S
C1536 C1537 1.399 . S
C1536 C1541 1.399 . S
C1537 C1536 1.399 . S
C1537 C1538 1.376 . S
C1538 H1525 0.930 . S
C1538 C1537 1.376 . S
C1538 C1539 1.388 . S
C1539 H1526 0.930 . S
C1539 C1538 1.388 . S
C1539 C1540 1.390 . S
C1540 C1539 1.390 . S
C1540 C1541 1.394 . S
C1540 C1546 1.465 . S
C1541 C1536 1.399 . S
C1541 C1540 1.394 . S
C1541 C1542 1.516 . S
C1542 C1541 1.516 . S
C1542 C1543 1.502 . S
C1542 C1544 1.561 . S
C1542 C1545 1.526 . S
C1543 H1527 0.959 . S
C1543 H1528 0.959 . S
C1543 H1529 0.961 . S
C1543 C1542 1.502 . S
C1544 H1530 0.960 . S
C1544 H1531 0.961 . S
C1544 H1532 0.959 . S
C1544 C1542 1.561 . S
C1545 C1542 1.526 . S
C1545 C1546 1.396 . S
C1545 C1550 1.390 . S
C1546 C1540 1.465 . S
C1546 C1545 1.396 . S
C1546 C1547 1.399 . S
C1547 H1533 0.929 . S
C1547 C1546 1.399 . S
C1547 C1548 1.385 . S
C1548 H1534 0.931 . S
C1548 C1547 1.385 . S
C1548 C1549 1.389 . S
C1549 C1548 1.389 . S
C1549 C1550 1.387 . S
C1550 H1535 0.930 . S
C1550 C1545 1.390 . S
C1550 C1549 1.387 . S
H1551 C1563 0.930 . S
H1552 C1565 0.930 . S
H1553 C1566 0.930 . S
H1554 C1570 0.959 . S
H1555 C1570 0.959 . S
H1556 C1570 0.961 . S
H1557 C1571 0.960 . S
H1558 C1571 0.961 . S
H1559 C1571 0.959 . S
H1560 C1574 0.929 . S
H1561 C1575 0.931 . S
H1562 C1577 0.930 . S
C1563 H1551 0.930 . S
C1563 C1564 1.399 . S
C1563 C1568 1.399 . S
C1564 C1563 1.399 . S
C1564 C1565 1.376 . S
C1565 H1552 0.930 . S
C1565 C1564 1.376 . S
C1565 C1566 1.388 . S
C1566 H1553 0.930 . S
C1566 C1565 1.388 . S
C1566 C1567 1.390 . S
C1567 C1566 1.390 . S
C1567 C1568 1.394 . S
C1567 C1573 1.465 . S
C1568 C1563 1.399 . S
C1568 C1567 1.394 . S
C1568 C1569 1.516 . S
C1569 C1568 1.516 . S
C1569 C1570 1.502 . S
C1569 C1571 1.561 . S
C1569 C1572 1.526 . S
C1570 H1554 0.959 . S
C1570 H1555 0.959 . S
C1570 H1556 0.961 . S
C1570 C1569 1.502 . S
C1571 H1557 0.960 . S
C1571 H1558 0.961 . S
C1571 H1559 0.959 . S
C1571 C1569 1.561 . S
C1572 C1569 1.526 . S
C1572 C1573 1.396 . S
C1572 C1577 1.390 . S
C1573 C1567 1.465 . S
C1573 C1572 1.396 . S
C1573 C1574 1.399 . S
C1574 H1560 0.929 . S
C1574 C1573 1.399 . S
C1574 C1575 1.385 . S
C1575 H1561 0.931 . S
C1575 C1574 1.385 . S
C1575 C1576 1.389 . S
C1576 C1575 1.389 . S
C1576 C1577 1.387 . S
C1577 H1562 0.930 . S
C1577 C1572 1.390 . S
C1577 C1576 1.387 . S
H1578 C1590 0.930 . S
H1579 C1592 0.930 . S
H1580 C1593 0.930 . S
H1581 C1597 0.959 . S
H1582 C1597 0.959 . S
H1583 C1597 0.961 . S
H1584 C1598 0.960 . S
H1585 C1598 0.961 . S
H1586 C1598 0.959 . S
H1587 C1601 0.929 . S
H1588 C1602 0.931 . S
H1589 C1604 0.930 . S
C1590 H1578 0.930 . S
C1590 C1591 1.399 . S
C1590 C1595 1.399 . S
C1591 C1590 1.399 . S
C1591 C1592 1.376 . S
C1592 H1579 0.930 . S
C1592 C1591 1.376 . S
C1592 C1593 1.388 . S
C1593 H1580 0.930 . S
C1593 C1592 1.388 . S
C1593 C1594 1.390 . S
C1594 C1593 1.390 . S
C1594 C1595 1.394 . S
C1594 C1600 1.465 . S
C1595 C1590 1.399 . S
C1595 C1594 1.394 . S
C1595 C1596 1.516 . S
C1596 C1595 1.516 . S
C1596 C1597 1.502 . S
C1596 C1598 1.561 . S
C1596 C1599 1.526 . S
C1597 H1581 0.959 . S
C1597 H1582 0.959 . S
C1597 H1583 0.961 . S
C1597 C1596 1.502 . S
C1598 H1584 0.960 . S
C1598 H1585 0.961 . S
C1598 H1586 0.959 . S
C1598 C1596 1.561 . S
C1599 C1596 1.526 . S
C1599 C1600 1.396 . S
C1599 C1604 1.390 . S
C1600 C1594 1.465 . S
C1600 C1599 1.396 . S
C1600 C1601 1.399 . S
C1601 H1587 0.929 . S
C1601 C1600 1.399 . S
C1601 C1602 1.385 . S
C1602 H1588 0.931 . S
C1602 C1601 1.385 . S
C1602 C1603 1.389 . S
C1603 C1602 1.389 . S
C1603 C1604 1.387 . S
C1604 H1589 0.930 . S
C1604 C1599 1.390 . S
C1604 C1603 1.387 . S
H1605 C1617 0.930 . S
H1606 C1619 0.930 . S
H1607 C1620 0.930 . S
H1608 C1624 0.959 . S
H1609 C1624 0.959 . S
H1610 C1624 0.961 . S
H1611 C1625 0.960 . S
H1612 C1625 0.961 . S
H1613 C1625 0.959 . S
H1614 C1628 0.929 . S
H1615 C1629 0.896 1_554 S
H1616 C1631 0.930 . S
C1617 H1605 0.930 . S
C1617 C1618 1.399 . S
C1617 C1622 1.399 . S
C1618 C1617 1.399 . S
C1618 C1619 1.376 . S
C1619 H1606 0.930 . S
C1619 C1618 1.376 . S
C1619 C1620 1.388 . S
C1620 H1607 0.930 . S
C1620 C1619 1.388 . S
C1620 C1621 1.390 . S
C1621 C1620 1.390 . S
C1621 C1622 1.394 . S
C1621 C1627 1.465 . S
C1622 C1617 1.399 . S
C1622 C1621 1.394 . S
C1622 C1623 1.516 . S
C1623 C1622 1.516 . S
C1623 C1624 1.502 . S
C1623 C1625 1.561 . S
C1623 C1626 1.526 . S
C1624 H1608 0.959 . S
C1624 H1609 0.959 . S
C1624 H1610 0.961 . S
C1624 C1623 1.502 . S
C1625 H1611 0.960 . S
C1625 H1612 0.961 . S
C1625 H1613 0.959 . S
C1625 C1623 1.561 . S
C1626 C1623 1.526 . S
C1626 C1627 1.396 . S
C1626 C1631 1.390 . S
C1627 C1621 1.465 . S
C1627 C1626 1.396 . S
C1627 C1628 1.399 . S
C1628 H1614 0.929 . S
C1628 C1627 1.399 . S
C1628 C1629 1.385 . S
C1629 H1615 0.896 1_556 S
C1629 C1628 1.385 . S
C1629 C1630 1.389 . S
C1630 C1629 1.389 . S
C1630 C1631 1.387 . S
C1631 H1616 0.930 . S
C1631 C1626 1.390 . S
C1631 C1630 1.387 . S
H1632 C1644 0.930 . S
H1633 C1646 0.930 . S
H1634 C1647 0.930 . S
H1635 C1651 0.959 . S
H1636 C1651 0.959 . S
H1637 C1651 0.961 . S
H1638 C1652 0.960 . S
H1639 C1652 0.961 . S
H1640 C1652 0.959 . S
H1641 C1655 0.929 . S
H1642 C1656 0.931 . S
H1643 C1658 0.930 . S
C1644 H1632 0.930 . S
C1644 C1645 1.399 . S
C1644 C1649 1.399 . S
C1645 C1644 1.399 . S
C1645 C1646 1.376 . S
C1646 H1633 0.930 . S
C1646 C1645 1.376 . S
C1646 C1647 1.388 . S
C1647 H1634 0.930 . S
C1647 C1646 1.388 . S
C1647 C1648 1.390 . S
C1648 C1647 1.390 . S
C1648 C1649 1.394 . S
C1648 C1654 1.465 . S
C1649 C1644 1.399 . S
C1649 C1648 1.394 . S
C1649 C1650 1.516 . S
C1650 C1649 1.516 . S
C1650 C1651 1.502 . S
C1650 C1652 1.561 . S
C1650 C1653 1.526 . S
C1651 H1635 0.959 . S
C1651 H1636 0.959 . S
C1651 H1637 0.961 . S
C1651 C1650 1.502 . S
C1652 H1638 0.960 . S
C1652 H1639 0.961 . S
C1652 H1640 0.959 . S
C1652 C1650 1.561 . S
C1653 C1650 1.526 . S
C1653 C1654 1.396 . S
C1653 C1658 1.390 . S
C1654 C1648 1.465 . S
C1654 C1653 1.396 . S
C1654 C1655 1.399 . S
C1655 H1641 0.929 . S
C1655 C1654 1.399 . S
C1655 C1656 1.385 . S
C1656 H1642 0.931 . S
C1656 C1655 1.385 . S
C1656 C1657 1.389 . S
C1657 C1656 1.389 . S
C1657 C1658 1.387 . S
C1658 H1643 0.930 . S
C1658 C1653 1.390 . S
C1658 C1657 1.387 . S
H1659 C1671 0.930 . S
H1660 C1673 0.930 . S
H1661 C1674 0.930 . S
H1662 C1678 0.959 . S
H1663 C1678 0.959 . S
H1664 C1678 0.961 . S
H1665 C1679 0.960 . S
H1666 C1679 0.961 . S
H1667 C1679 0.959 . S
H1668 C1682 0.929 . S
H1669 C1683 0.931 . S
H1670 C1685 0.930 . S
C1671 H1659 0.930 . S
C1671 C1672 1.399 . S
C1671 C1676 1.399 . S
C1672 C1671 1.399 . S
C1672 C1673 1.376 . S
C1673 H1660 0.930 . S
C1673 C1672 1.376 . S
C1673 C1674 1.388 . S
C1674 H1661 0.930 . S
C1674 C1673 1.388 . S
C1674 C1675 1.390 . S
C1675 C1674 1.390 . S
C1675 C1676 1.394 . S
C1675 C1681 1.465 . S
C1676 C1671 1.399 . S
C1676 C1675 1.394 . S
C1676 C1677 1.516 . S
C1677 C1676 1.516 . S
C1677 C1678 1.502 . S
C1677 C1679 1.561 . S
C1677 C1680 1.526 . S
C1678 H1662 0.959 . S
C1678 H1663 0.959 . S
C1678 H1664 0.961 . S
C1678 C1677 1.502 . S
C1679 H1665 0.960 . S
C1679 H1666 0.961 . S
C1679 H1667 0.959 . S
C1679 C1677 1.561 . S
C1680 C1677 1.526 . S
C1680 C1681 1.396 . S
C1680 C1685 1.390 . S
C1681 C1675 1.465 . S
C1681 C1680 1.396 . S
C1681 C1682 1.399 . S
C1682 H1668 0.929 . S
C1682 C1681 1.399 . S
C1682 C1683 1.385 . S
C1683 H1669 0.931 . S
C1683 C1682 1.385 . S
C1683 C1684 1.389 . S
C1684 C1683 1.389 . S
C1684 C1685 1.387 . S
C1685 H1670 0.930 . S
C1685 C1680 1.390 . S
C1685 C1684 1.387 . S
H1686 C1698 0.930 . S
H1687 C1700 0.930 1_545 S
H1688 C1701 0.930 . S
H1689 C1705 0.959 . S
H1690 C1705 0.959 . S
H1691 C1705 0.961 . S
H1692 C1706 0.960 . S
H1693 C1706 0.961 . S
H1694 C1706 0.959 . S
H1695 C1709 0.929 . S
H1696 C1710 0.931 . S
H1697 C1712 0.930 . S
C1698 H1686 0.930 . S
C1698 C1699 1.399 . S
C1698 C1703 1.399 . S
C1699 C1698 1.399 . S
C1699 C1700 1.376 . S
C1700 H1687 0.930 1_565 S
C1700 C1699 1.376 . S
C1700 C1701 1.388 . S
C1701 H1688 0.930 . S
C1701 C1700 1.388 . S
C1701 C1702 1.390 . S
C1702 C1701 1.390 . S
C1702 C1703 1.394 . S
C1702 C1708 1.465 . S
C1703 C1698 1.399 . S
C1703 C1702 1.394 . S
C1703 C1704 1.516 . S
C1704 C1703 1.516 . S
C1704 C1705 1.502 . S
C1704 C1706 1.561 . S
C1704 C1707 1.526 . S
C1705 H1689 0.959 . S
C1705 H1690 0.959 . S
C1705 H1691 0.961 . S
C1705 C1704 1.502 . S
C1706 H1692 0.960 . S
C1706 H1693 0.961 . S
C1706 H1694 0.959 . S
C1706 C1704 1.561 . S
C1707 C1704 1.526 . S
C1707 C1708 1.396 . S
C1707 C1712 1.390 . S
C1708 C1702 1.465 . S
C1708 C1707 1.396 . S
C1708 C1709 1.399 . S
C1709 H1695 0.929 . S
C1709 C1708 1.399 . S
C1709 C1710 1.385 . S
C1710 H1696 0.931 . S
C1710 C1709 1.385 . S
C1710 C1711 1.389 . S
C1711 C1710 1.389 . S
C1711 C1712 1.387 . S
C1712 H1697 0.930 . S
C1712 C1707 1.390 . S
C1712 C1711 1.387 . S
H1713 C1725 0.930 . S
H1714 C1727 0.930 . S
H1715 C1728 0.930 . S
H1716 C1732 0.959 . S
H1717 C1732 0.959 . S
H1718 C1732 0.961 . S
H1719 C1733 0.960 . S
H1720 C1733 0.961 . S
H1721 C1733 0.959 . S
H1722 C1736 0.929 . S
H1723 C1737 0.931 1_545 S
H1724 C1739 0.930 . S
C1725 H1713 0.930 . S
C1725 C1726 1.399 . S
C1725 C1730 1.399 . S
C1726 C1725 1.399 . S
C1726 C1727 1.376 . S
C1727 H1714 0.930 . S
C1727 C1726 1.376 . S
C1727 C1728 1.388 . S
C1728 H1715 0.930 . S
C1728 C1727 1.388 . S
C1728 C1729 1.390 . S
C1729 C1728 1.390 . S
C1729 C1730 1.394 . S
C1729 C1735 1.465 . S
C1730 C1725 1.399 . S
C1730 C1729 1.394 . S
C1730 C1731 1.516 . S
C1731 C1730 1.516 . S
C1731 C1732 1.502 . S
C1731 C1733 1.561 . S
C1731 C1734 1.526 . S
C1732 H1716 0.959 . S
C1732 H1717 0.959 . S
C1732 H1718 0.961 . S
C1732 C1731 1.502 . S
C1733 H1719 0.960 . S
C1733 H1720 0.961 . S
C1733 H1721 0.959 . S
C1733 C1731 1.561 . S
C1734 C1731 1.526 . S
C1734 C1735 1.396 . S
C1734 C1739 1.390 . S
C1735 C1729 1.465 . S
C1735 C1734 1.396 . S
C1735 C1736 1.399 . S
C1736 H1722 0.929 . S
C1736 C1735 1.399 . S
C1736 C1737 1.385 . S
C1737 H1723 0.931 1_565 S
C1737 C1736 1.385 . S
C1737 C1738 1.389 . S
C1738 C1737 1.389 . S
C1738 C1739 1.387 . S
C1739 H1724 0.930 . S
C1739 C1734 1.390 . S
C1739 C1738 1.387 . S
H1740 C1752 0.930 . S
H1741 C1754 0.930 . S
H1742 C1755 0.930 . S
H1743 C1759 0.959 . S
H1744 C1759 0.959 . S
H1745 C1759 0.961 . S
H1746 C1760 0.960 . S
H1747 C1760 0.961 . S
H1748 C1760 0.959 . S
H1749 C1763 0.929 . S
H1750 C1764 0.931 . S
H1751 C1766 0.930 . S
C1752 H1740 0.930 . S
C1752 C1753 1.399 . S
C1752 C1757 1.399 . S
C1753 C1752 1.399 . S
C1753 C1754 1.376 . S
C1754 H1741 0.930 . S
C1754 C1753 1.376 . S
C1754 C1755 1.388 . S
C1755 H1742 0.930 . S
C1755 C1754 1.388 . S
C1755 C1756 1.390 . S
C1756 C1755 1.390 . S
C1756 C1757 1.394 . S
C1756 C1762 1.465 . S
C1757 C1752 1.399 . S
C1757 C1756 1.394 . S
C1757 C1758 1.516 . S
C1758 C1757 1.516 . S
C1758 C1759 1.502 . S
C1758 C1760 1.561 . S
C1758 C1761 1.526 . S
C1759 H1743 0.959 . S
C1759 H1744 0.959 . S
C1759 H1745 0.961 . S
C1759 C1758 1.502 . S
C1760 H1746 0.960 . S
C1760 H1747 0.961 . S
C1760 H1748 0.959 . S
C1760 C1758 1.561 . S
C1761 C1758 1.526 . S
C1761 C1762 1.396 . S
C1761 C1766 1.390 . S
C1762 C1756 1.465 . S
C1762 C1761 1.396 . S
C1762 C1763 1.399 . S
C1763 H1749 0.929 . S
C1763 C1762 1.399 . S
C1763 C1764 1.385 . S
C1764 H1750 0.931 . S
C1764 C1763 1.385 . S
C1764 C1765 1.389 . S
C1765 C1764 1.389 . S
C1765 C1766 1.387 . S
C1766 H1751 0.930 . S
C1766 C1761 1.390 . S
C1766 C1765 1.387 . S
H1767 C1779 0.930 . S
H1768 C1781 0.930 . S
H1769 C1782 0.930 . S
H1770 C1786 0.959 . S
H1771 C1786 0.959 . S
H1772 C1786 0.961 . S
H1773 C1787 0.960 . S
H1774 C1787 0.961 . S
H1775 C1787 0.959 . S
H1776 C1790 0.929 . S
H1777 C1791 0.931 . S
H1778 C1793 0.930 . S
C1779 H1767 0.930 . S
C1779 C1780 1.399 . S
C1779 C1784 1.399 . S
C1780 C1779 1.399 . S
C1780 C1781 1.376 . S
C1781 H1768 0.930 . S
C1781 C1780 1.376 . S
C1781 C1782 1.388 . S
C1782 H1769 0.930 . S
C1782 C1781 1.388 . S
C1782 C1783 1.390 . S
C1783 C1782 1.390 . S
C1783 C1784 1.394 . S
C1783 C1789 1.465 . S
C1784 C1779 1.399 . S
C1784 C1783 1.394 . S
C1784 C1785 1.516 . S
C1785 C1784 1.516 . S
C1785 C1786 1.502 . S
C1785 C1787 1.561 . S
C1785 C1788 1.526 . S
C1786 H1770 0.959 . S
C1786 H1771 0.959 . S
C1786 H1772 0.961 . S
C1786 C1785 1.502 . S
C1787 H1773 0.960 . S
C1787 H1774 0.961 . S
C1787 H1775 0.959 . S
C1787 C1785 1.561 . S
C1788 C1785 1.526 . S
C1788 C1789 1.396 . S
C1788 C1793 1.390 . S
C1789 C1783 1.465 . S
C1789 C1788 1.396 . S
C1789 C1790 1.399 . S
C1790 H1776 0.929 . S
C1790 C1789 1.399 . S
C1790 C1791 1.385 . S
C1791 H1777 0.931 . S
C1791 C1790 1.385 . S
C1791 C1792 1.389 . S
C1792 C1791 1.389 . S
C1792 C1793 1.387 . S
C1793 H1778 0.930 . S
C1793 C1788 1.390 . S
C1793 C1792 1.387 . S
H1794 C1806 0.930 . S
H1795 C1808 0.930 . S
H1796 C1809 0.930 . S
H1797 C1813 0.959 . S
H1798 C1813 0.959 . S
H1799 C1813 0.961 . S
H1800 C1814 0.960 . S
H1801 C1814 0.961 . S
H1802 C1814 0.959 . S
H1803 C1817 0.929 . S
H1804 C1818 0.931 . S
H1805 C1820 0.930 . S
C1806 H1794 0.930 . S
C1806 C1807 1.399 . S
C1806 C1811 1.399 . S
C1807 C1806 1.399 . S
C1807 C1808 1.376 . S
C1808 H1795 0.930 . S
C1808 C1807 1.376 . S
C1808 C1809 1.388 . S
C1809 H1796 0.930 . S
C1809 C1808 1.388 . S
C1809 C1810 1.390 . S
C1810 C1809 1.390 . S
C1810 C1811 1.394 . S
C1810 C1816 1.465 . S
C1811 C1806 1.399 . S
C1811 C1810 1.394 . S
C1811 C1812 1.516 . S
C1812 C1811 1.516 . S
C1812 C1813 1.502 . S
C1812 C1814 1.561 . S
C1812 C1815 1.526 . S
C1813 H1797 0.959 . S
C1813 H1798 0.959 . S
C1813 H1799 0.961 . S
C1813 C1812 1.502 . S
C1814 H1800 0.960 . S
C1814 H1801 0.961 . S
C1814 H1802 0.959 . S
C1814 C1812 1.561 . S
C1815 C1812 1.526 . S
C1815 C1816 1.396 . S
C1815 C1820 1.390 . S
C1816 C1810 1.465 . S
C1816 C1815 1.396 . S
C1816 C1817 1.399 . S
C1817 H1803 0.929 . S
C1817 C1816 1.399 . S
C1817 C1818 1.385 . S
C1818 H1804 0.931 . S
C1818 C1817 1.385 . S
C1818 C1819 1.389 . S
C1819 C1818 1.389 . S
C1819 C1820 1.387 . S
C1820 H1805 0.930 . S
C1820 C1815 1.390 . S
C1820 C1819 1.387 . S
H1821 C1833 0.930 . S
H1822 C1835 0.930 1_455 S
H1823 C1836 0.930 . S
H1824 C1840 0.959 . S
H1825 C1840 0.959 . S
H1826 C1840 0.961 . S
H1827 C1841 0.960 . S
H1828 C1841 0.961 . S
H1829 C1841 0.959 . S
H1830 C1844 0.929 . S
H1831 C1845 0.931 . S
H1832 C1847 0.930 . S
C1833 H1821 0.930 . S
C1833 C1834 1.399 . S
C1833 C1838 1.399 . S
C1834 C1833 1.399 . S
C1834 C1835 1.376 . S
C1835 H1822 0.930 1_655 S
C1835 C1834 1.376 . S
C1835 C1836 1.388 . S
C1836 H1823 0.930 . S
C1836 C1835 1.388 . S
C1836 C1837 1.390 . S
C1837 C1836 1.390 . S
C1837 C1838 1.394 . S
C1837 C1843 1.465 . S
C1838 C1833 1.399 . S
C1838 C1837 1.394 . S
C1838 C1839 1.516 . S
C1839 C1838 1.516 . S
C1839 C1840 1.502 . S
C1839 C1841 1.561 . S
C1839 C1842 1.526 . S
C1840 H1824 0.959 . S
C1840 H1825 0.959 . S
C1840 H1826 0.961 . S
C1840 C1839 1.502 . S
C1841 H1827 0.960 . S
C1841 H1828 0.961 . S
C1841 H1829 0.959 . S
C1841 C1839 1.561 . S
C1842 C1839 1.526 . S
C1842 C1843 1.396 . S
C1842 C1847 1.390 . S
C1843 C1837 1.465 . S
C1843 C1842 1.396 . S
C1843 C1844 1.399 . S
C1844 H1830 0.929 . S
C1844 C1843 1.399 . S
C1844 C1845 1.385 . S
C1845 H1831 0.931 . S
C1845 C1844 1.385 . S
C1845 C1846 1.389 . S
C1846 C1845 1.389 . S
C1846 C1847 1.387 . S
C1847 H1832 0.930 . S
C1847 C1842 1.390 . S
C1847 C1846 1.387 . S
H1848 C1860 0.930 . S
H1849 C1862 0.930 . S
H1850 C1863 0.930 . S
H1851 C1867 0.959 . S
H1852 C1867 0.959 . S
H1853 C1867 0.961 . S
H1854 C1868 0.960 . S
H1855 C1868 0.961 . S
H1856 C1868 0.959 . S
H1857 C1871 0.929 . S
H1858 C1872 0.931 . S
H1859 C1874 0.930 . S
C1860 H1848 0.930 . S
C1860 C1861 1.399 . S
C1860 C1865 1.399 . S
C1861 C1860 1.399 . S
C1861 C1862 1.376 . S
C1862 H1849 0.930 . S
C1862 C1861 1.376 . S
C1862 C1863 1.388 . S
C1863 H1850 0.930 . S
C1863 C1862 1.388 . S
C1863 C1864 1.390 . S
C1864 C1863 1.390 . S
C1864 C1865 1.394 . S
C1864 C1870 1.465 . S
C1865 C1860 1.399 . S
C1865 C1864 1.394 . S
C1865 C1866 1.516 . S
C1866 C1865 1.516 . S
C1866 C1867 1.502 . S
C1866 C1868 1.561 . S
C1866 C1869 1.526 . S
C1867 H1851 0.959 . S
C1867 H1852 0.959 . S
C1867 H1853 0.961 . S
C1867 C1866 1.502 . S
C1868 H1854 0.960 . S
C1868 H1855 0.961 . S
C1868 H1856 0.959 . S
C1868 C1866 1.561 . S
C1869 C1866 1.526 . S
C1869 C1870 1.396 . S
C1869 C1874 1.390 . S
C1870 C1864 1.465 . S
C1870 C1869 1.396 . S
C1870 C1871 1.399 . S
C1871 H1857 0.929 . S
C1871 C1870 1.399 . S
C1871 C1872 1.385 . S
C1872 H1858 0.931 . S
C1872 C1871 1.385 . S
C1872 C1873 1.389 . S
C1873 C1872 1.389 . S
C1873 C1874 1.387 . S
C1874 H1859 0.930 . S
C1874 C1869 1.390 . S
C1874 C1873 1.387 . S
H1875 C1887 0.930 . S
H1876 C1889 0.930 . S
H1877 C1890 0.930 . S
H1878 C1894 0.959 . S
H1879 C1894 0.959 . S
H1880 C1894 0.961 . S
H1881 C1895 0.960 . S
H1882 C1895 0.961 . S
H1883 C1895 0.959 . S
H1884 C1898 0.929 . S
H1885 C1899 0.931 . S
H1886 C1901 0.930 . S
C1887 H1875 0.930 . S
C1887 C1888 1.399 . S
C1887 C1892 1.399 . S
C1888 C1887 1.399 . S
C1888 C1889 1.376 . S
C1889 H1876 0.930 . S
C1889 C1888 1.376 . S
C1889 C1890 1.388 . S
C1890 H1877 0.930 . S
C1890 C1889 1.388 . S
C1890 C1891 1.390 . S
C1891 C1890 1.390 . S
C1891 C1892 1.394 . S
C1891 C1897 1.465 . S
C1892 C1887 1.399 . S
C1892 C1891 1.394 . S
C1892 C1893 1.516 . S
C1893 C1892 1.516 . S
C1893 C1894 1.502 . S
C1893 C1895 1.561 . S
C1893 C1896 1.526 . S
C1894 H1878 0.959 . S
C1894 H1879 0.959 . S
C1894 H1880 0.961 . S
C1894 C1893 1.502 . S
C1895 H1881 0.960 . S
C1895 H1882 0.961 . S
C1895 H1883 0.959 . S
C1895 C1893 1.561 . S
C1896 C1893 1.526 . S
C1896 C1897 1.396 . S
C1896 C1901 1.390 . S
C1897 C1891 1.465 . S
C1897 C1896 1.396 . S
C1897 C1898 1.399 . S
C1898 H1884 0.929 . S
C1898 C1897 1.399 . S
C1898 C1899 1.385 . S
C1899 H1885 0.931 . S
C1899 C1898 1.385 . S
C1899 C1900 1.389 . S
C1900 C1899 1.389 . S
C1900 C1901 1.387 . S
C1901 H1886 0.930 . S
C1901 C1896 1.390 . S
C1901 C1900 1.387 . S
H1902 C1914 0.930 . S
H1903 C1916 0.930 1_554 S
H1904 C1917 0.931 . S
H1905 C1921 0.959 . S
H1906 C1921 0.959 . S
H1907 C1921 0.961 . S
H1908 C1922 0.960 . S
H1909 C1922 0.961 . S
H1910 C1922 0.959 . S
H1911 C1925 0.929 . S
H1912 C1926 0.931 . S
H1913 C1928 0.930 . S
C1914 H1902 0.930 . S
C1914 C1915 1.399 . S
C1914 C1919 1.399 . S
C1915 C1914 1.399 . S
C1915 C1916 1.376 . S
C1916 H1903 0.930 1_556 S
C1916 C1915 1.376 . S
C1916 C1917 1.388 . S
C1917 H1904 0.931 . S
C1917 C1916 1.388 . S
C1917 C1918 1.390 . S
C1918 C1917 1.390 . S
C1918 C1919 1.394 . S
C1918 C1924 1.465 . S
C1919 C1914 1.399 . S
C1919 C1918 1.394 . S
C1919 C1920 1.516 . S
C1920 C1919 1.516 . S
C1920 C1921 1.502 . S
C1920 C1922 1.561 . S
C1920 C1923 1.526 . S
C1921 H1905 0.959 . S
C1921 H1906 0.959 . S
C1921 H1907 0.961 . S
C1921 C1920 1.502 . S
C1922 H1908 0.960 . S
C1922 H1909 0.961 . S
C1922 H1910 0.959 . S
C1922 C1920 1.561 . S
C1923 C1920 1.526 . S
C1923 C1924 1.396 . S
C1923 C1928 1.390 . S
C1924 C1918 1.465 . S
C1924 C1923 1.396 . S
C1924 C1925 1.399 . S
C1925 H1911 0.929 . S
C1925 C1924 1.399 . S
C1925 C1926 1.385 . S
C1926 H1912 0.931 . S
C1926 C1925 1.385 . S
C1926 C1927 1.389 . S
C1927 C1926 1.389 . S
C1927 C1928 1.387 . S
C1928 H1913 0.930 . S
C1928 C1923 1.390 . S
C1928 C1927 1.387 . S
H1929 C1941 0.930 . S
H1930 C1943 0.930 . S
H1931 C1944 0.930 . S
H1932 C1948 0.959 . S
H1933 C1948 0.959 . S
H1934 C1948 0.961 . S
H1935 C1949 0.960 . S
H1936 C1949 0.961 . S
H1937 C1949 0.959 . S
H1938 C1952 0.929 . S
H1939 C1953 0.931 . S
H1940 C1955 0.930 . S
C1941 H1929 0.930 . S
C1941 C1942 1.399 . S
C1941 C1946 1.399 . S
C1942 C1941 1.399 . S
C1942 C1943 1.376 . S
C1943 H1930 0.930 . S
C1943 C1942 1.376 . S
C1943 C1944 1.388 . S
C1944 H1931 0.930 . S
C1944 C1943 1.388 . S
C1944 C1945 1.390 . S
C1945 C1944 1.390 . S
C1945 C1946 1.394 . S
C1945 C1951 1.465 . S
C1946 C1941 1.399 . S
C1946 C1945 1.394 . S
C1946 C1947 1.516 . S
C1947 C1946 1.516 . S
C1947 C1948 1.502 . S
C1947 C1949 1.561 . S
C1947 C1950 1.526 . S
C1948 H1932 0.959 . S
C1948 H1933 0.959 . S
C1948 H1934 0.961 . S
C1948 C1947 1.502 . S
C1949 H1935 0.960 . S
C1949 H1936 0.961 . S
C1949 H1937 0.959 . S
C1949 C1947 1.561 . S
C1950 C1947 1.526 . S
C1950 C1951 1.396 . S
C1950 C1955 1.390 . S
C1951 C1945 1.465 . S
C1951 C1950 1.396 . S
C1951 C1952 1.399 . S
C1952 H1938 0.929 . S
C1952 C1951 1.399 . S
C1952 C1953 1.385 . S
C1953 H1939 0.931 . S
C1953 C1952 1.385 . S
C1953 C1954 1.389 . S
C1954 C1953 1.389 . S
C1954 C1955 1.387 . S
C1955 H1940 0.930 . S
C1955 C1950 1.390 . S
C1955 C1954 1.387 . S
H1956 C1968 0.930 . S
H1957 C1970 0.930 . S
H1958 C1971 0.930 . S
H1959 C1975 0.959 . S
H1960 C1975 0.959 . S
H1961 C1975 0.961 . S
H1962 C1976 0.960 . S
H1963 C1976 0.961 . S
H1964 C1976 0.959 . S
H1965 C1979 0.929 . S
H1966 C1980 0.931 . S
H1967 C1982 0.930 . S
C1968 H1956 0.930 . S
C1968 C1969 1.399 . S
C1968 C1973 1.399 . S
C1969 C1968 1.399 . S
C1969 C1970 1.376 . S
C1970 H1957 0.930 . S
C1970 C1969 1.376 . S
C1970 C1971 1.388 . S
C1971 H1958 0.930 . S
C1971 C1970 1.388 . S
C1971 C1972 1.390 . S
C1972 C1971 1.390 . S
C1972 C1973 1.394 . S
C1972 C1978 1.465 . S
C1973 C1968 1.399 . S
C1973 C1972 1.394 . S
C1973 C1974 1.516 . S
C1974 C1973 1.516 . S
C1974 C1975 1.502 . S
C1974 C1976 1.561 . S
C1974 C1977 1.526 . S
C1975 H1959 0.959 . S
C1975 H1960 0.959 . S
C1975 H1961 0.961 . S
C1975 C1974 1.502 . S
C1976 H1962 0.960 . S
C1976 H1963 0.961 . S
C1976 H1964 0.959 . S
C1976 C1974 1.561 . S
C1977 C1974 1.526 . S
C1977 C1978 1.396 . S
C1977 C1982 1.390 . S
C1978 C1972 1.465 . S
C1978 C1977 1.396 . S
C1978 C1979 1.399 . S
C1979 H1965 0.929 . S
C1979 C1978 1.399 . S
C1979 C1980 1.385 . S
C1980 H1966 0.931 . S
C1980 C1979 1.385 . S
C1980 C1981 1.389 . S
C1981 C1980 1.389 . S
C1981 C1982 1.387 . S
C1982 H1967 0.930 . S
C1982 C1977 1.390 . S
C1982 C1981 1.387 . S
H1983 C1995 0.930 . S
H1984 C1997 0.930 . S
H1985 C1998 0.930 . S
H1986 C2002 0.959 . S
H1987 C2002 0.959 . S
H1988 C2002 0.961 . S
H1989 C2003 0.960 . S
H1990 C2003 0.961 . S
H1991 C2003 0.959 . S
H1992 C2006 0.929 . S
H1993 C2007 0.931 . S
H1994 C2009 0.930 . S
C1995 H1983 0.930 . S
C1995 C1996 1.399 . S
C1995 C2000 1.399 . S
C1996 C1995 1.399 . S
C1996 C1997 1.376 . S
C1997 H1984 0.930 . S
C1997 C1996 1.376 . S
C1997 C1998 1.388 . S
C1998 H1985 0.930 . S
C1998 C1997 1.388 . S
C1998 C1999 1.390 . S
C1999 C1998 1.390 . S
C1999 C2000 1.394 . S
C1999 C2005 1.465 . S
C2000 C1995 1.399 . S
C2000 C1999 1.394 . S
C2000 C2001 1.516 . S
C2001 C2000 1.516 . S
C2001 C2002 1.502 . S
C2001 C2003 1.561 . S
C2001 C2004 1.526 . S
C2002 H1986 0.959 . S
C2002 H1987 0.959 . S
C2002 H1988 0.961 . S
C2002 C2001 1.502 . S
C2003 H1989 0.960 . S
C2003 H1990 0.961 . S
C2003 H1991 0.959 . S
C2003 C2001 1.561 . S
C2004 C2001 1.526 . S
C2004 C2005 1.396 . S
C2004 C2009 1.390 . S
C2005 C1999 1.465 . S
C2005 C2004 1.396 . S
C2005 C2006 1.399 . S
C2006 H1992 0.929 . S
C2006 C2005 1.399 . S
C2006 C2007 1.385 . S
C2007 H1993 0.931 . S
C2007 C2006 1.385 . S
C2007 C2008 1.389 . S
C2008 C2007 1.389 . S
C2008 C2009 1.387 . S
C2009 H1994 0.930 . S
C2009 C2004 1.390 . S
C2009 C2008 1.387 . S
H2010 C2022 0.930 . S
H2011 C2024 0.930 . S
H2012 C2025 0.930 . S
H2013 C2029 0.959 . S
H2014 C2029 0.959 . S
H2015 C2029 0.961 . S
H2016 C2030 0.960 . S
H2017 C2030 0.961 . S
H2018 C2030 0.959 . S
H2019 C2033 0.929 . S
H2020 C2034 0.931 . S
H2021 C2036 0.930 . S
C2022 H2010 0.930 . S
C2022 C2023 1.399 . S
C2022 C2027 1.399 . S
C2023 C2022 1.399 . S
C2023 C2024 1.376 . S
C2024 H2011 0.930 . S
C2024 C2023 1.376 . S
C2024 C2025 1.388 . S
C2025 H2012 0.930 . S
C2025 C2024 1.388 . S
C2025 C2026 1.390 . S
C2026 C2025 1.390 . S
C2026 C2027 1.394 . S
C2026 C2032 1.465 . S
C2027 C2022 1.399 . S
C2027 C2026 1.394 . S
C2027 C2028 1.516 . S
C2028 C2027 1.516 . S
C2028 C2029 1.502 . S
C2028 C2030 1.561 . S
C2028 C2031 1.526 . S
C2029 H2013 0.959 . S
C2029 H2014 0.959 . S
C2029 H2015 0.961 . S
C2029 C2028 1.502 . S
C2030 H2016 0.960 . S
C2030 H2017 0.961 . S
C2030 H2018 0.959 . S
C2030 C2028 1.561 . S
C2031 C2028 1.526 . S
C2031 C2032 1.396 . S
C2031 C2036 1.390 . S
C2032 C2026 1.465 . S
C2032 C2031 1.396 . S
C2032 C2033 1.399 . S
C2033 H2019 0.929 . S
C2033 C2032 1.399 . S
C2033 C2034 1.385 . S
C2034 H2020 0.931 . S
C2034 C2033 1.385 . S
C2034 C2035 1.389 . S
C2035 C2034 1.389 . S
C2035 C2036 1.387 . S
C2036 H2021 0.930 . S
C2036 C2031 1.390 . S
C2036 C2035 1.387 . S
H2037 C2049 0.930 . S
H2038 C2051 0.930 . S
H2039 C2052 0.930 . S
H2040 C2056 0.959 . S
H2041 C2056 0.987 . S
H2042 C2056 0.961 . S
H2043 C2057 0.960 . S
H2044 C2057 0.985 . S
H2045 C2057 0.959 . S
H2046 C2060 0.929 . S
H2047 C2061 0.931 . S
H2048 C2063 0.930 . S
C2049 H2037 0.930 . S
C2049 C2050 1.399 . S
C2049 C2054 1.399 . S
C2050 C2049 1.399 . S
C2050 C2051 1.376 . S
C2051 H2038 0.930 . S
C2051 C2050 1.376 . S
C2051 C2052 1.388 . S
C2052 H2039 0.930 . S
C2052 C2051 1.388 . S
C2052 C2053 1.390 . S
C2053 C2052 1.390 . S
C2053 C2054 1.394 . S
C2053 C2059 1.465 . S
C2054 C2049 1.399 . S
C2054 C2053 1.394 . S
C2054 C2055 1.516 . S
C2055 C2054 1.516 . S
C2055 C2056 1.502 . S
C2055 C2057 1.561 . S
C2055 C2058 1.526 . S
C2056 H2040 0.959 . S
C2056 H2041 0.987 . S
C2056 H2042 0.961 . S
C2056 C2055 1.502 . S
C2057 H2043 0.960 . S
C2057 H2044 0.985 . S
C2057 H2045 0.959 . S
C2057 C2055 1.561 . S
C2058 C2055 1.526 . S
C2058 C2059 1.396 . S
C2058 C2063 1.390 . S
C2059 C2053 1.465 . S
C2059 C2058 1.396 . S
C2059 C2060 1.399 . S
C2060 H2046 0.929 . S
C2060 C2059 1.399 . S
C2060 C2061 1.385 . S
C2061 H2047 0.931 . S
C2061 C2060 1.385 . S
C2061 C2062 1.389 . S
C2062 C2061 1.389 . S
C2062 C2063 1.387 . S
C2063 H2048 0.930 . S
C2063 C2058 1.390 . S
C2063 C2062 1.387 . S
H2064 C2076 0.930 . S
H2065 C2078 0.930 . S
H2066 C2079 0.930 . S
H2067 C2083 0.959 . S
H2068 C2083 0.959 . S
H2069 C2083 0.961 . S
H2070 C2084 0.960 1_545 S
H2071 C2084 0.961 . S
H2072 C2084 0.959 . S
H2073 C2087 0.929 . S
H2074 C2088 0.931 . S
H2075 C2090 0.930 . S
C2076 H2064 0.930 . S
C2076 C2077 1.399 . S
C2076 C2081 1.399 . S
C2077 C2076 1.399 . S
C2077 C2078 1.376 . S
C2078 H2065 0.930 . S
C2078 C2077 1.376 . S
C2078 C2079 1.388 . S
C2079 H2066 0.930 . S
C2079 C2078 1.388 . S
C2079 C2080 1.390 . S
C2080 C2079 1.390 . S
C2080 C2081 1.394 . S
C2080 C2086 1.465 . S
C2081 C2076 1.399 . S
C2081 C2080 1.394 . S
C2081 C2082 1.516 . S
C2082 C2081 1.516 . S
C2082 C2083 1.502 . S
C2082 C2084 1.561 . S
C2082 C2085 1.526 . S
C2083 H2067 0.959 . S
C2083 H2068 0.959 . S
C2083 H2069 0.961 . S
C2083 C2082 1.502 . S
C2084 H2070 0.960 1_565 S
C2084 H2071 0.961 . S
C2084 H2072 0.959 . S
C2084 C2082 1.561 . S
C2085 C2082 1.526 . S
C2085 C2086 1.396 . S
C2085 C2090 1.390 . S
C2086 C2080 1.465 . S
C2086 C2085 1.396 . S
C2086 C2087 1.399 . S
C2087 H2073 0.929 . S
C2087 C2086 1.399 . S
C2087 C2088 1.385 . S
C2088 H2074 0.931 . S
C2088 C2087 1.385 . S
C2088 C2089 1.389 . S
C2089 C2088 1.389 . S
C2089 C2090 1.387 . S
C2090 H2075 0.930 . S
C2090 C2085 1.390 . S
C2090 C2089 1.387 . S
H2091 C2103 0.930 . S
H2092 C2105 0.930 . S
H2093 C2106 0.930 . S
H2094 C2110 0.959 . S
H2095 C2110 0.959 . S
H2096 C2110 0.961 . S
H2097 C2111 0.960 . S
H2098 C2111 0.961 . S
H2099 C2111 0.959 . S
H2100 C2114 0.929 . S
H2101 C2115 0.931 . S
H2102 C2117 0.930 . S
C2103 H2091 0.930 . S
C2103 C2104 1.399 . S
C2103 C2108 1.399 . S
C2104 C2103 1.399 . S
C2104 C2105 1.376 . S
C2105 H2092 0.930 . S
C2105 C2104 1.376 . S
C2105 C2106 1.388 . S
C2106 H2093 0.930 . S
C2106 C2105 1.388 . S
C2106 C2107 1.390 . S
C2107 C2106 1.390 . S
C2107 C2108 1.394 . S
C2107 C2113 1.465 . S
C2108 C2103 1.399 . S
C2108 C2107 1.394 . S
C2108 C2109 1.516 . S
C2109 C2108 1.516 . S
C2109 C2110 1.502 . S
C2109 C2111 1.561 . S
C2109 C2112 1.526 . S
C2110 H2094 0.959 . S
C2110 H2095 0.959 . S
C2110 H2096 0.961 . S
C2110 C2109 1.502 . S
C2111 H2097 0.960 . S
C2111 H2098 0.961 . S
C2111 H2099 0.959 . S
C2111 C2109 1.561 . S
C2112 C2109 1.526 . S
C2112 C2113 1.396 . S
C2112 C2117 1.390 . S
C2113 C2107 1.465 . S
C2113 C2112 1.396 . S
C2113 C2114 1.399 . S
C2114 H2100 0.929 . S
C2114 C2113 1.399 . S
C2114 C2115 1.385 . S
C2115 H2101 0.931 . S
C2115 C2114 1.385 . S
C2115 C2116 1.389 . S
C2116 C2115 1.389 . S
C2116 C2117 1.387 . S
C2117 H2102 0.930 . S
C2117 C2112 1.390 . S
C2117 C2116 1.387 . S
H2118 C2130 0.930 . S
H2119 C2132 0.930 . S
H2120 C2133 0.930 . S
H2121 C2137 0.959 . S
H2122 C2137 0.959 . S
H2123 C2137 0.961 . S
H2124 C2138 0.960 . S
H2125 C2138 0.961 . S
H2126 C2138 0.959 . S
H2127 C2141 0.929 . S
H2128 C2142 0.931 . S
H2129 C2144 0.930 . S
C2130 H2118 0.930 . S
C2130 C2131 1.399 . S
C2130 C2135 1.399 . S
C2131 C2130 1.399 . S
C2131 C2132 1.376 . S
C2132 H2119 0.930 . S
C2132 C2131 1.376 . S
C2132 C2133 1.388 . S
C2133 H2120 0.930 . S
C2133 C2132 1.388 . S
C2133 C2134 1.390 . S
C2134 C2133 1.390 . S
C2134 C2135 1.394 . S
C2134 C2140 1.465 . S
C2135 C2130 1.399 . S
C2135 C2134 1.394 . S
C2135 C2136 1.516 . S
C2136 C2135 1.516 . S
C2136 C2137 1.502 . S
C2136 C2138 1.561 . S
C2136 C2139 1.526 . S
C2137 H2121 0.959 . S
C2137 H2122 0.959 . S
C2137 H2123 0.961 . S
C2137 C2136 1.502 . S
C2138 H2124 0.960 . S
C2138 H2125 0.961 . S
C2138 H2126 0.959 . S
C2138 C2136 1.561 . S
C2139 C2136 1.526 . S
C2139 C2140 1.396 . S
C2139 C2144 1.390 . S
C2140 C2134 1.465 . S
C2140 C2139 1.396 . S
C2140 C2141 1.399 . S
C2141 H2127 0.929 . S
C2141 C2140 1.399 . S
C2141 C2142 1.385 . S
C2142 H2128 0.931 . S
C2142 C2141 1.385 . S
C2142 C2143 1.389 . S
C2143 C2142 1.389 . S
C2143 C2144 1.387 . S
C2144 H2129 0.930 . S
C2144 C2139 1.390 . S
C2144 C2143 1.387 . S
H2145 C2157 0.930 . S
H2146 C2159 0.930 . S
H2147 C2160 0.930 . S
H2148 C2164 0.959 . S
H2149 C2164 0.959 . S
H2150 C2164 0.961 . S
H2151 C2165 0.960 . S
H2152 C2165 0.961 . S
H2153 C2165 0.959 . S
H2154 C2168 0.929 . S
H2155 C2169 0.931 . S
H2156 C2171 0.930 . S
C2157 H2145 0.930 . S
C2157 C2158 1.399 . S
C2157 C2162 1.399 . S
C2158 C2157 1.399 . S
C2158 C2159 1.376 . S
C2159 H2146 0.930 . S
C2159 C2158 1.376 . S
C2159 C2160 1.388 . S
C2160 H2147 0.930 . S
C2160 C2159 1.388 . S
C2160 C2161 1.390 . S
C2161 C2160 1.390 . S
C2161 C2162 1.394 . S
C2161 C2167 1.465 . S
C2162 C2157 1.399 . S
C2162 C2161 1.394 . S
C2162 C2163 1.516 . S
C2163 C2162 1.516 . S
C2163 C2164 1.502 . S
C2163 C2165 1.561 . S
C2163 C2166 1.526 . S
C2164 H2148 0.959 . S
C2164 H2149 0.959 . S
C2164 H2150 0.961 . S
C2164 C2163 1.502 . S
C2165 H2151 0.960 . S
C2165 H2152 0.961 . S
C2165 H2153 0.959 . S
C2165 C2163 1.561 . S
C2166 C2163 1.526 . S
C2166 C2167 1.396 . S
C2166 C2171 1.390 . S
C2167 C2161 1.465 . S
C2167 C2166 1.396 . S
C2167 C2168 1.399 . S
C2168 H2154 0.929 . S
C2168 C2167 1.399 . S
C2168 C2169 1.385 . S
C2169 H2155 0.931 . S
C2169 C2168 1.385 . S
C2169 C2170 1.389 . S
C2170 C2169 1.389 . S
C2170 C2171 1.387 . S
C2171 H2156 0.930 . S
C2171 C2166 1.390 . S
C2171 C2170 1.387 . S
H2172 C2184 0.930 . S
H2173 C2186 0.930 . S
H2174 C2187 0.930 . S
H2175 C2191 0.959 . S
H2176 C2191 0.959 . S
H2177 C2191 0.961 . S
H2178 C2192 0.960 . S
H2179 C2192 0.961 . S
H2180 C2192 0.959 . S
H2181 C2195 0.929 . S
H2182 C2196 0.931 . S
H2183 C2198 0.930 . S
C2184 H2172 0.930 . S
C2184 C2185 1.399 . S
C2184 C2189 1.399 . S
C2185 C2184 1.399 . S
C2185 C2186 1.376 . S
C2186 H2173 0.930 . S
C2186 C2185 1.376 . S
C2186 C2187 1.388 . S
C2187 H2174 0.930 . S
C2187 C2186 1.388 . S
C2187 C2188 1.390 . S
C2188 C2187 1.390 . S
C2188 C2189 1.394 . S
C2188 C2194 1.465 . S
C2189 C2184 1.399 . S
C2189 C2188 1.394 . S
C2189 C2190 1.516 . S
C2190 C2189 1.516 . S
C2190 C2191 1.502 . S
C2190 C2192 1.561 . S
C2190 C2193 1.526 . S
C2191 H2175 0.959 . S
C2191 H2176 0.959 . S
C2191 H2177 0.961 . S
C2191 C2190 1.502 . S
C2192 H2178 0.960 . S
C2192 H2179 0.961 . S
C2192 H2180 0.959 . S
C2192 C2190 1.561 . S
C2193 C2190 1.526 . S
C2193 C2194 1.396 . S
C2193 C2198 1.390 . S
C2194 C2188 1.465 . S
C2194 C2193 1.396 . S
C2194 C2195 1.399 . S
C2195 H2181 0.929 . S
C2195 C2194 1.399 . S
C2195 C2196 1.385 . S
C2196 H2182 0.931 . S
C2196 C2195 1.385 . S
C2196 C2197 1.389 . S
C2197 C2196 1.389 . S
C2197 C2198 1.387 . S
C2198 H2183 0.930 . S
C2198 C2193 1.390 . S
C2198 C2197 1.387 . S
H2199 C2211 0.930 . S
H2200 C2213 0.930 . S
H2201 C2214 0.930 . S
H2202 C2218 0.959 . S
H2203 C2218 0.959 . S
H2204 C2218 0.961 . S
H2205 C2219 0.960 . S
H2206 C2219 0.961 . S
H2207 C2219 0.959 . S
H2208 C2222 0.929 . S
H2209 C2223 0.931 . S
H2210 C2225 0.930 . S
C2211 H2199 0.930 . S
C2211 C2212 1.399 . S
C2211 C2216 1.399 . S
C2212 C2211 1.399 . S
C2212 C2213 1.376 . S
C2213 H2200 0.930 . S
C2213 C2212 1.376 . S
C2213 C2214 1.388 . S
C2214 H2201 0.930 . S
C2214 C2213 1.388 . S
C2214 C2215 1.390 . S
C2215 C2214 1.390 . S
C2215 C2216 1.394 . S
C2215 C2221 1.465 . S
C2216 C2211 1.399 . S
C2216 C2215 1.394 . S
C2216 C2217 1.516 . S
C2217 C2216 1.516 . S
C2217 C2218 1.502 . S
C2217 C2219 1.561 . S
C2217 C2220 1.526 . S
C2218 H2202 0.959 . S
C2218 H2203 0.959 . S
C2218 H2204 0.961 . S
C2218 C2217 1.502 . S
C2219 H2205 0.960 . S
C2219 H2206 0.961 . S
C2219 H2207 0.959 . S
C2219 C2217 1.561 . S
C2220 C2217 1.526 . S
C2220 C2221 1.396 . S
C2220 C2225 1.390 . S
C2221 C2215 1.465 . S
C2221 C2220 1.396 . S
C2221 C2222 1.399 . S
C2222 H2208 0.929 . S
C2222 C2221 1.399 . S
C2222 C2223 1.385 . S
C2223 H2209 0.931 . S
C2223 C2222 1.385 . S
C2223 C2224 1.389 . S
C2224 C2223 1.389 . S
C2224 C2225 1.387 . S
C2225 H2210 0.930 . S
C2225 C2220 1.390 . S
C2225 C2224 1.387 . S
H2226 C2238 0.930 . S
H2227 C2240 0.930 . S
H2228 C2241 0.930 . S
H2229 C2245 0.959 . S
H2230 C2245 0.959 . S
H2231 C2245 0.961 . S
H2232 C2246 0.960 . S
H2233 C2246 0.961 . S
H2234 C2246 0.959 . S
H2235 C2249 0.929 . S
H2236 C2250 0.931 . S
H2237 C2252 0.930 . S
C2238 H2226 0.930 . S
C2238 C2239 1.399 . S
C2238 C2243 1.399 . S
C2239 C2238 1.399 . S
C2239 C2240 1.376 . S
C2240 H2227 0.930 . S
C2240 C2239 1.376 . S
C2240 C2241 1.388 . S
C2241 H2228 0.930 . S
C2241 C2240 1.388 . S
C2241 C2242 1.390 . S
C2242 C2241 1.390 . S
C2242 C2243 1.394 . S
C2242 C2248 1.465 . S
C2243 C2238 1.399 . S
C2243 C2242 1.394 . S
C2243 C2244 1.516 . S
C2244 C2243 1.516 . S
C2244 C2245 1.502 . S
C2244 C2246 1.561 . S
C2244 C2247 1.526 . S
C2245 H2229 0.959 . S
C2245 H2230 0.959 . S
C2245 H2231 0.961 . S
C2245 C2244 1.502 . S
C2246 H2232 0.960 . S
C2246 H2233 0.961 . S
C2246 H2234 0.959 . S
C2246 C2244 1.561 . S
C2247 C2244 1.526 . S
C2247 C2248 1.396 . S
C2247 C2252 1.390 . S
C2248 C2242 1.465 . S
C2248 C2247 1.396 . S
C2248 C2249 1.399 . S
C2249 H2235 0.929 . S
C2249 C2248 1.399 . S
C2249 C2250 1.385 . S
C2250 H2236 0.931 . S
C2250 C2249 1.385 . S
C2250 C2251 1.389 . S
C2251 C2250 1.389 . S
C2251 C2252 1.387 . S
C2252 H2237 0.930 . S
C2252 C2247 1.390 . S
C2252 C2251 1.387 . S
H2253 C2265 0.930 . S
H2254 C2267 0.930 . S
H2255 C2268 0.930 . S
H2256 C2272 0.959 . S
H2257 C2272 0.959 . S
H2258 C2272 0.961 . S
H2259 C2273 0.960 . S
H2260 C2273 0.961 . S
H2261 C2273 0.959 . S
H2262 C2276 0.929 . S
H2263 C2277 0.931 . S
H2264 C2279 0.930 . S
C2265 H2253 0.930 . S
C2265 C2266 1.399 . S
C2265 C2270 1.399 . S
C2266 C2265 1.399 . S
C2266 C2267 1.376 . S
C2267 H2254 0.930 . S
C2267 C2266 1.376 . S
C2267 C2268 1.388 . S
C2268 H2255 0.930 . S
C2268 C2267 1.388 . S
C2268 C2269 1.390 . S
C2269 C2268 1.390 . S
C2269 C2270 1.394 . S
C2269 C2275 1.465 . S
C2270 C2265 1.399 . S
C2270 C2269 1.394 . S
C2270 C2271 1.516 . S
C2271 C2270 1.516 . S
C2271 C2272 1.502 . S
C2271 C2273 1.561 . S
C2271 C2274 1.526 . S
C2272 H2256 0.959 . S
C2272 H2257 0.959 . S
C2272 H2258 0.961 . S
C2272 C2271 1.502 . S
C2273 H2259 0.960 . S
C2273 H2260 0.961 . S
C2273 H2261 0.959 . S
C2273 C2271 1.561 . S
C2274 C2271 1.526 . S
C2274 C2275 1.396 . S
C2274 C2279 1.390 . S
C2275 C2269 1.465 . S
C2275 C2274 1.396 . S
C2275 C2276 1.399 . S
C2276 H2262 0.929 . S
C2276 C2275 1.399 . S
C2276 C2277 1.385 . S
C2277 H2263 0.931 . S
C2277 C2276 1.385 . S
C2277 C2278 1.389 . S
C2278 C2277 1.389 . S
C2278 C2279 1.387 . S
C2279 H2264 0.930 . S
C2279 C2274 1.390 . S
C2279 C2278 1.387 . S
H2280 C2292 0.930 . S
H2281 C2294 0.930 . S
H2282 C2295 0.930 . S
H2283 C2299 0.959 . S
H2284 C2299 0.959 . S
H2285 C2299 0.961 . S
H2286 C2300 0.960 . S
H2287 C2300 0.961 . S
H2288 C2300 0.959 . S
H2289 C2303 0.929 . S
H2290 C2304 0.931 . S
H2291 C2306 0.930 . S
C2292 H2280 0.930 . S
C2292 C2293 1.399 . S
C2292 C2297 1.399 . S
C2293 C2292 1.399 . S
C2293 C2294 1.376 . S
C2294 H2281 0.930 . S
C2294 C2293 1.376 . S
C2294 C2295 1.388 . S
C2295 H2282 0.930 . S
C2295 C2294 1.388 . S
C2295 C2296 1.390 . S
C2296 C2295 1.390 . S
C2296 C2297 1.394 . S
C2296 C2302 1.465 . S
C2297 C2292 1.399 . S
C2297 C2296 1.394 . S
C2297 C2298 1.516 . S
C2298 C2297 1.516 . S
C2298 C2299 1.502 . S
C2298 C2300 1.561 . S
C2298 C2301 1.526 . S
C2299 H2283 0.959 . S
C2299 H2284 0.959 . S
C2299 H2285 0.961 . S
C2299 C2298 1.502 . S
C2300 H2286 0.960 . S
C2300 H2287 0.961 . S
C2300 H2288 0.959 . S
C2300 C2298 1.561 . S
C2301 C2298 1.526 . S
C2301 C2302 1.396 . S
C2301 C2306 1.390 . S
C2302 C2296 1.465 . S
C2302 C2301 1.396 . S
C2302 C2303 1.399 . S
C2303 H2289 0.929 . S
C2303 C2302 1.399 . S
C2303 C2304 1.385 . S
C2304 H2290 0.931 . S
C2304 C2303 1.385 . S
C2304 C2305 1.389 . S
C2305 C2304 1.389 . S
C2305 C2306 1.387 . S
C2306 H2291 0.930 . S
C2306 C2301 1.390 . S
C2306 C2305 1.387 . S
H2307 C2319 0.930 . S
H2308 C2321 0.930 . S
H2309 C2322 0.930 . S
H2310 C2326 0.959 . S
H2311 C2326 0.959 . S
H2312 C2326 0.961 . S
H2313 C2327 0.975 . S
H2314 C2327 0.961 . S
H2315 C2327 0.959 . S
H2316 C2330 0.929 . S
H2317 C2331 0.931 . S
H2318 C2333 0.930 . S
C2319 H2307 0.930 . S
C2319 C2320 1.399 . S
C2319 C2324 1.399 . S
C2320 C2319 1.399 . S
C2320 C2321 1.376 . S
C2321 H2308 0.930 . S
C2321 C2320 1.376 . S
C2321 C2322 1.388 . S
C2322 H2309 0.930 . S
C2322 C2321 1.388 . S
C2322 C2323 1.390 . S
C2323 C2322 1.390 . S
C2323 C2324 1.394 . S
C2323 C2329 1.465 . S
C2324 C2319 1.399 . S
C2324 C2323 1.394 . S
C2324 C2325 1.516 . S
C2325 C2324 1.516 . S
C2325 C2326 1.502 . S
C2325 C2327 1.561 . S
C2325 C2328 1.526 . S
C2326 H2310 0.959 . S
C2326 H2311 0.959 . S
C2326 H2312 0.961 . S
C2326 C2325 1.502 . S
C2327 H2313 0.975 . S
C2327 H2314 0.961 . S
C2327 H2315 0.959 . S
C2327 C2325 1.561 . S
C2328 C2325 1.526 . S
C2328 C2329 1.396 . S
C2328 C2333 1.390 . S
C2329 C2323 1.465 . S
C2329 C2328 1.396 . S
C2329 C2330 1.399 . S
C2330 H2316 0.929 . S
C2330 C2329 1.399 . S
C2330 C2331 1.385 . S
C2331 H2317 0.931 . S
C2331 C2330 1.385 . S
C2331 C2332 1.389 . S
C2332 C2331 1.389 . S
C2332 C2333 1.387 . S
C2333 H2318 0.930 . S
C2333 C2328 1.390 . S
C2333 C2332 1.387 . S
H2334 C2346 0.930 . S
H2335 C2348 0.930 . S
H2336 C2349 0.930 . S
H2337 C2353 0.959 . S
H2338 C2353 0.959 . S
H2339 C2353 0.961 . S
H2340 C2354 0.960 . S
H2341 C2354 0.961 . S
H2342 C2354 0.959 . S
H2343 C2357 0.929 . S
H2344 C2358 0.931 . S
H2345 C2360 0.930 . S
C2346 H2334 0.930 . S
C2346 C2347 1.399 . S
C2346 C2351 1.399 . S
C2347 C2346 1.399 . S
C2347 C2348 1.376 . S
C2348 H2335 0.930 . S
C2348 C2347 1.376 . S
C2348 C2349 1.388 . S
C2349 H2336 0.930 . S
C2349 C2348 1.388 . S
C2349 C2350 1.390 . S
C2350 C2349 1.390 . S
C2350 C2351 1.394 . S
C2350 C2356 1.465 . S
C2351 C2346 1.399 . S
C2351 C2350 1.394 . S
C2351 C2352 1.516 . S
C2352 C2351 1.516 . S
C2352 C2353 1.502 . S
C2352 C2354 1.561 . S
C2352 C2355 1.526 . S
C2353 H2337 0.959 . S
C2353 H2338 0.959 . S
C2353 H2339 0.961 . S
C2353 C2352 1.502 . S
C2354 H2340 0.960 . S
C2354 H2341 0.961 . S
C2354 H2342 0.959 . S
C2354 C2352 1.561 . S
C2355 C2352 1.526 . S
C2355 C2356 1.396 . S
C2355 C2360 1.390 . S
C2356 C2350 1.465 . S
C2356 C2355 1.396 . S
C2356 C2357 1.399 . S
C2357 H2343 0.929 . S
C2357 C2356 1.399 . S
C2357 C2358 1.385 . S
C2358 H2344 0.931 . S
C2358 C2357 1.385 . S
C2358 C2359 1.389 . S
C2359 C2358 1.389 . S
C2359 C2360 1.387 . S
C2360 H2345 0.930 . S
C2360 C2355 1.390 . S
C2360 C2359 1.387 . S
H2361 C2373 0.930 . S
H2362 C2375 0.930 . S
H2363 C2376 0.930 . S
H2364 C2380 0.959 . S
H2365 C2380 0.959 . S
H2366 C2380 0.961 . S
H2367 C2381 0.960 . S
H2368 C2381 0.961 . S
H2369 C2381 0.959 . S
H2370 C2384 0.929 . S
H2371 C2385 0.931 . S
H2372 C2387 0.930 . S
C2373 H2361 0.930 . S
C2373 C2374 1.399 . S
C2373 C2378 1.399 . S
C2374 C2373 1.399 . S
C2374 C2375 1.376 . S
C2375 H2362 0.930 . S
C2375 C2374 1.376 . S
C2375 C2376 1.388 . S
C2376 H2363 0.930 . S
C2376 C2375 1.388 . S
C2376 C2377 1.390 . S
C2377 C2376 1.390 . S
C2377 C2378 1.394 . S
C2377 C2383 1.465 . S
C2378 C2373 1.399 . S
C2378 C2377 1.394 . S
C2378 C2379 1.516 . S
C2379 C2378 1.516 . S
C2379 C2380 1.502 . S
C2379 C2381 1.561 . S
C2379 C2382 1.526 . S
C2380 H2364 0.959 . S
C2380 H2365 0.959 . S
C2380 H2366 0.961 . S
C2380 C2379 1.502 . S
C2381 H2367 0.960 . S
C2381 H2368 0.961 . S
C2381 H2369 0.959 . S
C2381 C2379 1.561 . S
C2382 C2379 1.526 . S
C2382 C2383 1.396 . S
C2382 C2387 1.390 . S
C2383 C2377 1.465 . S
C2383 C2382 1.396 . S
C2383 C2384 1.399 . S
C2384 H2370 0.929 . S
C2384 C2383 1.399 . S
C2384 C2385 1.385 . S
C2385 H2371 0.931 . S
C2385 C2384 1.385 . S
C2385 C2386 1.389 . S
C2386 C2385 1.389 . S
C2386 C2387 1.387 . S
C2387 H2372 0.930 . S
C2387 C2382 1.390 . S
C2387 C2386 1.387 . S
H2388 C2400 0.930 . S
H2389 C2402 0.930 . S
H2390 C2403 0.930 . S
H2391 C2407 0.959 . S
H2392 C2407 0.959 . S
H2393 C2407 0.961 . S
H2394 C2408 0.960 . S
H2395 C2408 0.961 . S
H2396 C2408 0.959 . S
H2397 C2411 0.929 . S
H2398 C2412 0.931 . S
H2399 C2414 0.930 . S
C2400 H2388 0.930 . S
C2400 C2401 1.399 . S
C2400 C2405 1.399 . S
C2401 C2400 1.399 . S
C2401 C2402 1.376 . S
C2402 H2389 0.930 . S
C2402 C2401 1.376 . S
C2402 C2403 1.388 . S
C2403 H2390 0.930 . S
C2403 C2402 1.388 . S
C2403 C2404 1.390 . S
C2404 C2403 1.390 . S
C2404 C2405 1.394 . S
C2404 C2410 1.465 . S
C2405 C2400 1.399 . S
C2405 C2404 1.394 . S
C2405 C2406 1.516 . S
C2406 C2405 1.516 . S
C2406 C2407 1.502 . S
C2406 C2408 1.561 . S
C2406 C2409 1.526 . S
C2407 H2391 0.959 . S
C2407 H2392 0.959 . S
C2407 H2393 0.961 . S
C2407 C2406 1.502 . S
C2408 H2394 0.960 . S
C2408 H2395 0.961 . S
C2408 H2396 0.959 . S
C2408 C2406 1.561 . S
C2409 C2406 1.526 . S
C2409 C2410 1.396 . S
C2409 C2414 1.390 . S
C2410 C2404 1.465 . S
C2410 C2409 1.396 . S
C2410 C2411 1.399 . S
C2411 H2397 0.929 . S
C2411 C2410 1.399 . S
C2411 C2412 1.385 . S
C2412 H2398 0.931 . S
C2412 C2411 1.385 . S
C2412 C2413 1.389 . S
C2413 C2412 1.389 . S
C2413 C2414 1.387 . S
C2414 H2399 0.930 . S
C2414 C2409 1.390 . S
C2414 C2413 1.387 . S
H2415 C2427 0.930 . S
H2416 C2429 0.930 . S
H2417 C2430 0.930 . S
H2418 C2434 0.959 . S
H2419 C2434 0.959 . S
H2420 C2434 0.961 . S
H2421 C2435 0.960 . S
H2422 C2435 0.961 . S
H2423 C2435 0.959 . S
H2424 C2438 0.929 . S
H2425 C2439 0.931 . S
H2426 C2441 0.930 . S
C2427 H2415 0.930 . S
C2427 C2428 1.399 . S
C2427 C2432 1.399 . S
C2428 C2427 1.399 . S
C2428 C2429 1.376 . S
C2429 H2416 0.930 . S
C2429 C2428 1.376 . S
C2429 C2430 1.388 . S
C2430 H2417 0.930 . S
C2430 C2429 1.388 . S
C2430 C2431 1.390 . S
C2431 C2430 1.390 . S
C2431 C2432 1.394 . S
C2431 C2437 1.465 . S
C2432 C2427 1.399 . S
C2432 C2431 1.394 . S
C2432 C2433 1.516 . S
C2433 C2432 1.516 . S
C2433 C2434 1.502 . S
C2433 C2435 1.561 . S
C2433 C2436 1.526 . S
C2434 H2418 0.959 . S
C2434 H2419 0.959 . S
C2434 H2420 0.961 . S
C2434 C2433 1.502 . S
C2435 H2421 0.960 . S
C2435 H2422 0.961 . S
C2435 H2423 0.959 . S
C2435 C2433 1.561 . S
C2436 C2433 1.526 . S
C2436 C2437 1.396 . S
C2436 C2441 1.390 . S
C2437 C2431 1.465 . S
C2437 C2436 1.396 . S
C2437 C2438 1.399 . S
C2438 H2424 0.929 . S
C2438 C2437 1.399 . S
C2438 C2439 1.385 . S
C2439 H2425 0.931 . S
C2439 C2438 1.385 . S
C2439 C2440 1.389 . S
C2440 C2439 1.389 . S
C2440 C2441 1.387 . S
C2441 H2426 0.930 . S
C2441 C2436 1.390 . S
C2441 C2440 1.387 . S
H2442 C2454 0.930 . S
H2443 C2456 0.930 . S
H2444 C2457 0.930 . S
H2445 C2461 0.959 . S
H2446 C2461 0.959 . S
H2447 C2461 0.961 . S
H2448 C2462 0.960 . S
H2449 C2462 0.961 . S
H2450 C2462 0.959 . S
H2451 C2465 0.929 . S
H2452 C2466 0.931 . S
H2453 C2468 0.930 . S
C2454 H2442 0.930 . S
C2454 C2455 1.399 . S
C2454 C2459 1.399 . S
C2455 C2454 1.399 . S
C2455 C2456 1.376 . S
C2456 H2443 0.930 . S
C2456 C2455 1.376 . S
C2456 C2457 1.388 . S
C2457 H2444 0.930 . S
C2457 C2456 1.388 . S
C2457 C2458 1.390 . S
C2458 C2457 1.390 . S
C2458 C2459 1.394 . S
C2458 C2464 1.465 . S
C2459 C2454 1.399 . S
C2459 C2458 1.394 . S
C2459 C2460 1.516 . S
C2460 C2459 1.516 . S
C2460 C2461 1.502 . S
C2460 C2462 1.561 . S
C2460 C2463 1.526 . S
C2461 H2445 0.959 . S
C2461 H2446 0.959 . S
C2461 H2447 0.961 . S
C2461 C2460 1.502 . S
C2462 H2448 0.960 . S
C2462 H2449 0.961 . S
C2462 H2450 0.959 . S
C2462 C2460 1.561 . S
C2463 C2460 1.526 . S
C2463 C2464 1.396 . S
C2463 C2468 1.390 . S
C2464 C2458 1.465 . S
C2464 C2463 1.396 . S
C2464 C2465 1.399 . S
C2465 H2451 0.929 . S
C2465 C2464 1.399 . S
C2465 C2466 1.385 . S
C2466 H2452 0.931 . S
C2466 C2465 1.385 . S
C2466 C2467 1.389 . S
C2467 C2466 1.389 . S
C2467 C2468 1.387 . S
C2468 H2453 0.930 . S
C2468 C2463 1.390 . S
C2468 C2467 1.387 . S
H2469 C2481 0.930 . S
H2470 C2483 0.930 . S
H2471 C2484 0.930 . S
H2472 C2488 0.959 . S
H2473 C2488 0.959 . S
H2474 C2488 0.961 . S
H2475 C2489 0.960 . S
H2476 C2489 0.961 . S
H2477 C2489 0.959 . S
H2478 C2492 0.929 . S
H2479 C2493 0.931 . S
H2480 C2495 0.930 . S
C2481 H2469 0.930 . S
C2481 C2482 1.399 . S
C2481 C2486 1.399 . S
C2482 C2481 1.399 . S
C2482 C2483 1.376 . S
C2483 H2470 0.930 . S
C2483 C2482 1.376 . S
C2483 C2484 1.388 . S
C2484 H2471 0.930 . S
C2484 C2483 1.388 . S
C2484 C2485 1.390 . S
C2485 C2484 1.390 . S
C2485 C2486 1.394 . S
C2485 C2491 1.465 . S
C2486 C2481 1.399 . S
C2486 C2485 1.394 . S
C2486 C2487 1.516 . S
C2487 C2486 1.516 . S
C2487 C2488 1.502 . S
C2487 C2489 1.561 . S
C2487 C2490 1.526 . S
C2488 H2472 0.959 . S
C2488 H2473 0.959 . S
C2488 H2474 0.961 . S
C2488 C2487 1.502 . S
C2489 H2475 0.960 . S
C2489 H2476 0.961 . S
C2489 H2477 0.959 . S
C2489 C2487 1.561 . S
C2490 C2487 1.526 . S
C2490 C2491 1.396 . S
C2490 C2495 1.390 . S
C2491 C2485 1.465 . S
C2491 C2490 1.396 . S
C2491 C2492 1.399 . S
C2492 H2478 0.929 . S
C2492 C2491 1.399 . S
C2492 C2493 1.385 . S
C2493 H2479 0.931 . S
C2493 C2492 1.385 . S
C2493 C2494 1.389 . S
C2494 C2493 1.389 . S
C2494 C2495 1.387 . S
C2495 H2480 0.930 . S
C2495 C2490 1.390 . S
C2495 C2494 1.387 . S
H2496 C2508 0.930 . S
H2497 C2510 0.930 . S
H2498 C2511 0.930 . S
H2499 C2515 0.959 . S
H2500 C2515 0.959 . S
H2501 C2515 0.961 . S
H2502 C2516 0.960 . S
H2503 C2516 0.961 . S
H2504 C2516 0.959 . S
H2505 C2519 0.929 . S
H2506 C2520 0.931 . S
H2507 C2522 0.930 . S
C2508 H2496 0.930 . S
C2508 C2509 1.399 . S
C2508 C2513 1.399 . S
C2509 C2508 1.399 . S
C2509 C2510 1.376 . S
C2510 H2497 0.930 . S
C2510 C2509 1.376 . S
C2510 C2511 1.388 . S
C2511 H2498 0.930 . S
C2511 C2510 1.388 . S
C2511 C2512 1.390 . S
C2512 C2511 1.390 . S
C2512 C2513 1.394 . S
C2512 C2518 1.465 . S
C2513 C2508 1.399 . S
C2513 C2512 1.394 . S
C2513 C2514 1.516 . S
C2514 C2513 1.516 . S
C2514 C2515 1.502 . S
C2514 C2516 1.561 . S
C2514 C2517 1.526 . S
C2515 H2499 0.959 . S
C2515 H2500 0.959 . S
C2515 H2501 0.961 . S
C2515 C2514 1.502 . S
C2516 H2502 0.960 . S
C2516 H2503 0.961 . S
C2516 H2504 0.959 . S
C2516 C2514 1.561 . S
C2517 C2514 1.526 . S
C2517 C2518 1.396 . S
C2517 C2522 1.390 . S
C2518 C2512 1.465 . S
C2518 C2517 1.396 . S
C2518 C2519 1.399 . S
C2519 H2505 0.929 . S
C2519 C2518 1.399 . S
C2519 C2520 1.385 . S
C2520 H2506 0.931 . S
C2520 C2519 1.385 . S
C2520 C2521 1.389 . S
C2521 C2520 1.389 . S
C2521 C2522 1.387 . S
C2522 H2507 0.930 . S
C2522 C2517 1.390 . S
C2522 C2521 1.387 . S
H2523 C2535 0.930 . S
H2524 C2537 0.930 . S
H2525 C2538 0.930 . S
H2526 C2542 0.959 . S
H2527 C2542 0.959 . S
H2528 C2542 0.961 . S
H2529 C2543 0.960 . S
H2530 C2543 0.961 . S
H2531 C2543 0.959 . S
H2532 C2546 0.929 . S
H2533 C2547 0.931 . S
H2534 C2549 0.930 . S
C2535 H2523 0.930 . S
C2535 C2536 1.399 . S
C2535 C2540 1.399 . S
C2536 C2535 1.399 . S
C2536 C2537 1.376 . S
C2537 H2524 0.930 . S
C2537 C2536 1.376 . S
C2537 C2538 1.388 . S
C2538 H2525 0.930 . S
C2538 C2537 1.388 . S
C2538 C2539 1.390 . S
C2539 C2538 1.390 . S
C2539 C2540 1.394 . S
C2539 C2545 1.465 . S
C2540 C2535 1.399 . S
C2540 C2539 1.394 . S
C2540 C2541 1.516 . S
C2541 C2540 1.516 . S
C2541 C2542 1.502 . S
C2541 C2543 1.561 . S
C2541 C2544 1.526 . S
C2542 H2526 0.959 . S
C2542 H2527 0.959 . S
C2542 H2528 0.961 . S
C2542 C2541 1.502 . S
C2543 H2529 0.960 . S
C2543 H2530 0.961 . S
C2543 H2531 0.959 . S
C2543 C2541 1.561 . S
C2544 C2541 1.526 . S
C2544 C2545 1.396 . S
C2544 C2549 1.390 . S
C2545 C2539 1.465 . S
C2545 C2544 1.396 . S
C2545 C2546 1.399 . S
C2546 H2532 0.929 . S
C2546 C2545 1.399 . S
C2546 C2547 1.385 . S
C2547 H2533 0.931 . S
C2547 C2546 1.385 . S
C2547 C2548 1.389 . S
C2548 C2547 1.389 . S
C2548 C2549 1.387 . S
C2549 H2534 0.930 . S
C2549 C2544 1.390 . S
C2549 C2548 1.387 . S
H2550 C2562 0.930 . S
H2551 C2564 0.930 . S
H2552 C2565 0.930 . S
H2553 C2569 0.959 . S
H2554 C2569 0.959 . S
H2555 C2569 0.961 . S
H2556 C2570 0.960 . S
H2557 C2570 0.961 . S
H2558 C2570 0.959 . S
H2559 C2573 0.929 . S
H2560 C2574 0.931 . S
H2561 C2576 0.930 . S
C2562 H2550 0.930 . S
C2562 C2563 1.399 . S
C2562 C2567 1.399 . S
C2563 C2562 1.399 . S
C2563 C2564 1.376 . S
C2564 H2551 0.930 . S
C2564 C2563 1.376 . S
C2564 C2565 1.388 . S
C2565 H2552 0.930 . S
C2565 C2564 1.388 . S
C2565 C2566 1.390 . S
C2566 C2565 1.390 . S
C2566 C2567 1.394 . S
C2566 C2572 1.465 . S
C2567 C2562 1.399 . S
C2567 C2566 1.394 . S
C2567 C2568 1.516 . S
C2568 C2567 1.516 . S
C2568 C2569 1.502 . S
C2568 C2570 1.561 . S
C2568 C2571 1.526 . S
C2569 H2553 0.959 . S
C2569 H2554 0.959 . S
C2569 H2555 0.961 . S
C2569 C2568 1.502 . S
C2570 H2556 0.960 . S
C2570 H2557 0.961 . S
C2570 H2558 0.959 . S
C2570 C2568 1.561 . S
C2571 C2568 1.526 . S
C2571 C2572 1.396 . S
C2571 C2576 1.390 . S
C2572 C2566 1.465 . S
C2572 C2571 1.396 . S
C2572 C2573 1.399 . S
C2573 H2559 0.929 . S
C2573 C2572 1.399 . S
C2573 C2574 1.385 . S
C2574 H2560 0.931 . S
C2574 C2573 1.385 . S
C2574 C2575 1.389 . S
C2575 C2574 1.389 . S
C2575 C2576 1.387 . S
C2576 H2561 0.930 . S
C2576 C2571 1.390 . S
C2576 C2575 1.387 . S
H2577 C2589 0.930 . S
H2578 C2591 0.930 . S
H2579 C2592 0.930 . S
H2580 C2596 0.959 . S
H2581 C2596 0.959 . S
H2582 C2596 0.961 . S
H2583 C2597 0.960 . S
H2584 C2597 0.961 . S
H2585 C2597 0.959 . S
H2586 C2600 0.929 . S
H2587 C2601 0.931 . S
H2588 C2603 0.930 . S
C2589 H2577 0.930 . S
C2589 C2590 1.399 . S
C2589 C2594 1.399 . S
C2590 C2589 1.399 . S
C2590 C2591 1.376 . S
C2591 H2578 0.930 . S
C2591 C2590 1.376 . S
C2591 C2592 1.388 . S
C2592 H2579 0.930 . S
C2592 C2591 1.388 . S
C2592 C2593 1.390 . S
C2593 C2592 1.390 . S
C2593 C2594 1.394 . S
C2593 C2599 1.465 . S
C2594 C2589 1.399 . S
C2594 C2593 1.394 . S
C2594 C2595 1.516 . S
C2595 C2594 1.516 . S
C2595 C2596 1.502 . S
C2595 C2597 1.561 . S
C2595 C2598 1.526 . S
C2596 H2580 0.959 . S
C2596 H2581 0.959 . S
C2596 H2582 0.961 . S
C2596 C2595 1.502 . S
C2597 H2583 0.960 . S
C2597 H2584 0.961 . S
C2597 H2585 0.959 . S
C2597 C2595 1.561 . S
C2598 C2595 1.526 . S
C2598 C2599 1.396 . S
C2598 C2603 1.390 . S
C2599 C2593 1.465 . S
C2599 C2598 1.396 . S
C2599 C2600 1.399 . S
C2600 H2586 0.929 . S
C2600 C2599 1.399 . S
C2600 C2601 1.385 . S
C2601 H2587 0.931 . S
C2601 C2600 1.385 . S
C2601 C2602 1.389 . S
C2602 C2601 1.389 . S
C2602 C2603 1.387 . S
C2603 H2588 0.930 . S
C2603 C2598 1.390 . S
C2603 C2602 1.387 . S
H2604 C2616 0.930 . S
H2605 C2618 0.930 . S
H2606 C2619 0.930 . S
H2607 C2623 0.959 . S
H2608 C2623 0.959 . S
H2609 C2623 0.961 . S
H2610 C2624 0.960 . S
H2611 C2624 0.961 . S
H2612 C2624 0.959 . S
H2613 C2627 0.929 . S
H2614 C2628 0.931 . S
H2615 C2630 0.930 . S
C2616 H2604 0.930 . S
C2616 C2617 1.399 . S
C2616 C2621 1.399 . S
C2617 C2616 1.399 . S
C2617 C2618 1.376 . S
C2618 H2605 0.930 . S
C2618 C2617 1.376 . S
C2618 C2619 1.388 . S
C2619 H2606 0.930 . S
C2619 C2618 1.388 . S
C2619 C2620 1.390 . S
C2620 C2619 1.390 . S
C2620 C2621 1.394 . S
C2620 C2626 1.465 . S
C2621 C2616 1.399 . S
C2621 C2620 1.394 . S
C2621 C2622 1.516 . S
C2622 C2621 1.516 . S
C2622 C2623 1.502 . S
C2622 C2624 1.561 . S
C2622 C2625 1.526 . S
C2623 H2607 0.959 . S
C2623 H2608 0.959 . S
C2623 H2609 0.961 . S
C2623 C2622 1.502 . S
C2624 H2610 0.960 . S
C2624 H2611 0.961 . S
C2624 H2612 0.959 . S
C2624 C2622 1.561 . S
C2625 C2622 1.526 . S
C2625 C2626 1.396 . S
C2625 C2630 1.390 . S
C2626 C2620 1.465 . S
C2626 C2625 1.396 . S
C2626 C2627 1.399 . S
C2627 H2613 0.929 . S
C2627 C2626 1.399 . S
C2627 C2628 1.385 . S
C2628 H2614 0.931 . S
C2628 C2627 1.385 . S
C2628 C2629 1.389 . S
C2629 C2628 1.389 . S
C2629 C2630 1.387 . S
C2630 H2615 0.930 . S
C2630 C2625 1.390 . S
C2630 C2629 1.387 . S
H2631 C2643 0.930 . S
H2632 C2645 0.930 . S
H2633 C2646 0.930 . S
H2634 C2650 0.959 . S
H2635 C2650 0.959 . S
H2636 C2650 0.961 . S
H2637 C2651 0.960 . S
H2638 C2651 0.961 . S
H2639 C2651 0.959 . S
H2640 C2654 0.929 . S
H2641 C2655 0.931 . S
H2642 C2657 0.930 . S
C2643 H2631 0.930 . S
C2643 C2644 1.399 . S
C2643 C2648 1.399 . S
C2644 C2643 1.399 . S
C2644 C2645 1.376 . S
C2645 H2632 0.930 . S
C2645 C2644 1.376 . S
C2645 C2646 1.388 . S
C2646 H2633 0.930 . S
C2646 C2645 1.388 . S
C2646 C2647 1.390 . S
C2647 C2646 1.390 . S
C2647 C2648 1.394 . S
C2647 C2653 1.465 . S
C2648 C2643 1.399 . S
C2648 C2647 1.394 . S
C2648 C2649 1.516 . S
C2649 C2648 1.516 . S
C2649 C2650 1.502 . S
C2649 C2651 1.561 . S
C2649 C2652 1.526 . S
C2650 H2634 0.959 . S
C2650 H2635 0.959 . S
C2650 H2636 0.961 . S
C2650 C2649 1.502 . S
C2651 H2637 0.960 . S
C2651 H2638 0.961 . S
C2651 H2639 0.959 . S
C2651 C2649 1.561 . S
C2652 C2649 1.526 . S
C2652 C2653 1.396 . S
C2652 C2657 1.390 . S
C2653 C2647 1.465 . S
C2653 C2652 1.396 . S
C2653 C2654 1.399 . S
C2654 H2640 0.929 . S
C2654 C2653 1.399 . S
C2654 C2655 1.385 . S
C2655 H2641 0.931 . S
C2655 C2654 1.385 . S
C2655 C2656 1.389 . S
C2656 C2655 1.389 . S
C2656 C2657 1.387 . S
C2657 H2642 0.930 . S
C2657 C2652 1.390 . S
C2657 C2656 1.387 . S
H2658 C2670 0.930 . S
H2659 C2672 0.930 . S
H2660 C2673 0.930 . S
H2661 C2677 0.959 . S
H2662 C2677 0.959 . S
H2663 C2677 0.961 . S
H2664 C2678 0.960 . S
H2665 C2678 0.961 . S
H2666 C2678 0.959 . S
H2667 C2681 0.929 . S
H2668 C2682 0.931 . S
H2669 C2684 0.930 . S
C2670 H2658 0.930 . S
C2670 C2671 1.399 . S
C2670 C2675 1.399 . S
C2671 C2670 1.399 . S
C2671 C2672 1.376 . S
C2672 H2659 0.930 . S
C2672 C2671 1.376 . S
C2672 C2673 1.388 . S
C2673 H2660 0.930 . S
C2673 C2672 1.388 . S
C2673 C2674 1.390 . S
C2674 C2673 1.390 . S
C2674 C2675 1.394 . S
C2674 C2680 1.465 . S
C2675 C2670 1.399 . S
C2675 C2674 1.394 . S
C2675 C2676 1.516 . S
C2676 C2675 1.516 . S
C2676 C2677 1.502 . S
C2676 C2678 1.561 . S
C2676 C2679 1.526 . S
C2677 H2661 0.959 . S
C2677 H2662 0.959 . S
C2677 H2663 0.961 . S
C2677 C2676 1.502 . S
C2678 H2664 0.960 . S
C2678 H2665 0.961 . S
C2678 H2666 0.959 . S
C2678 C2676 1.561 . S
C2679 C2676 1.526 . S
C2679 C2680 1.396 . S
C2679 C2684 1.390 . S
C2680 C2674 1.465 . S
C2680 C2679 1.396 . S
C2680 C2681 1.399 . S
C2681 H2667 0.929 . S
C2681 C2680 1.399 . S
C2681 C2682 1.385 . S
C2682 H2668 0.931 . S
C2682 C2681 1.385 . S
C2682 C2683 1.389 . S
C2683 C2682 1.389 . S
C2683 C2684 1.387 . S
C2684 H2669 0.930 . S
C2684 C2679 1.390 . S
C2684 C2683 1.387 . S
H2685 C2697 0.930 . S
H2686 C2699 0.930 . S
H2687 C2700 0.930 . S
H2688 C2704 0.959 . S
H2689 C2704 0.959 . S
H2690 C2704 0.961 . S
H2691 C2705 0.960 . S
H2692 C2705 0.961 . S
H2693 C2705 0.959 . S
H2694 C2708 0.929 . S
H2695 C2709 0.931 . S
H2696 C2711 0.930 . S
C2697 H2685 0.930 . S
C2697 C2698 1.399 . S
C2697 C2702 1.399 . S
C2698 C2697 1.399 . S
C2698 C2699 1.376 . S
C2699 H2686 0.930 . S
C2699 C2698 1.376 . S
C2699 C2700 1.388 . S
C2700 H2687 0.930 . S
C2700 C2699 1.388 . S
C2700 C2701 1.390 . S
C2701 C2700 1.390 . S
C2701 C2702 1.394 . S
C2701 C2707 1.465 . S
C2702 C2697 1.399 . S
C2702 C2701 1.394 . S
C2702 C2703 1.516 . S
C2703 C2702 1.516 . S
C2703 C2704 1.502 . S
C2703 C2705 1.561 . S
C2703 C2706 1.526 . S
C2704 H2688 0.959 . S
C2704 H2689 0.959 . S
C2704 H2690 0.961 . S
C2704 C2703 1.502 . S
C2705 H2691 0.960 . S
C2705 H2692 0.961 . S
C2705 H2693 0.959 . S
C2705 C2703 1.561 . S
C2706 C2703 1.526 . S
C2706 C2707 1.396 . S
C2706 C2711 1.390 . S
C2707 C2701 1.465 . S
C2707 C2706 1.396 . S
C2707 C2708 1.399 . S
C2708 H2694 0.929 . S
C2708 C2707 1.399 . S
C2708 C2709 1.385 . S
C2709 H2695 0.931 . S
C2709 C2708 1.385 . S
C2709 C2710 1.389 . S
C2710 C2709 1.389 . S
C2710 C2711 1.387 . S
C2711 H2696 0.930 . S
C2711 C2706 1.390 . S
C2711 C2710 1.387 . S
C1429 C829 1.354 . S
C1441 C5 1.396 . S
C1456 C62 1.376 . S
C1468 C890 1.388 . S
C1483 C1114 1.554 . S
C1495 C170 1.543 . S
C1510 C210 1.853 . S
C1522 C800 1.857 . S
C1537 C859 1.859 . S
C1549 C288 1.856 . S
C1564 C328 1.555 . S
C1576 C937 1.545 . S
C1591 C359 1.390 . S
C1603 C1067 1.383 . S
C1618 C416 1.378 . S
C1630 C770 1.392 . S
C1645 C536 1.391 . S
C1657 C475 1.370 . S
C1672 C623 1.858 . S
C1684 C583 1.846 . S
C1699 C593 1.389 . S
C1711 C654 1.381 . S
C1726 C701 1.524 . S
C1738 C505 1.558 . S
C1753 C713 1.390 . S
C1765 C180 1.367 . S
C1780 C241 1.378 . S
C1792 C949 1.387 . S
C1807 C1036 1.860 . S
C1819 C92 1.853 . S
C1834 C64 1.746 . S
C1846 C1291 1.734 . S
C1861 C534 1.754 . S
C1873 C33 1.754 . S
C1888 C1409 1.877 . S
C1900 C229 1.874 . S
C1915 C652 1.263 . S
C1927 C121 1.272 . S
C1942 C1244 1.270 . S
C1954 C418 1.275 . S
C1969 C564 1.880 . S
C1981 C387 1.881 . S
C1996 C347 1.735 . S
C2008 C1362 1.747 . S
C2023 C239 1.733 . S
C2035 C682 1.747 . S
C2050 C918 1.747 . S
C2062 C1126 1.747 . S
C2077 C947 1.277 . S
C2089 C888 1.267 . S
C2104 C772 1.752 . S
C2116 C977 1.741 . S
C2131 C1173 1.889 . S
C2143 C819 1.890 . S
C2158 C151 1.745 . S
C2170 C1183 1.750 . S
C2185 C595 1.750 . S
C2197 C465 1.737 . S
C2212 C3 1.275 . S
C2224 C1301 1.284 . S
C2239 C1124 1.392 . S
C2251 C123 1.382 . S
C2266 C52 1.536 . S
C2278 C996 1.546 . S
C2293 C1154 1.857 . S
C2305 C406 1.859 . S
C2320 C760 1.548 . S
C2332 C446 1.553 . S
C2347 C298 1.381 . S
C2359 C1006 1.366 . S
C2374 C1242 1.384 . S
C2386 C1185 1.391 . S
C2401 C1390 1.856 . S
C2413 C1232 1.851 . S
C2428 C1303 1.391 . S
C2440 C1360 1.357 . S
C2455 C1272 1.545 . S
C2467 C1350 1.556 . S
C2482 C524 1.737 . S
C2494 C182 1.741 . S
C2509 C111 1.886 . S
C2521 C642 1.887 . S
C2536 C300 1.269 . S
C2548 C477 1.274 . S
C2563 C1213 1.887 . S
C2575 C269 1.886 . S
C2590 C357 1.749 . S
C2602 C1331 1.753 . S
C2617 C741 1.740 . S
C2629 C831 1.746 . S
C2644 C1065 1.286 . S
C2656 C711 1.281 . S
C2671 C1008 1.742 . S
C2683 C1095 1.747 . S
C2698 C878 1.882 . S
C2710 C1055 1.879 . S
