# Generated by pormake.
# Topology wkc, (5)-cn, num edge types: 1
# Building blocks:
#     Node 0, Type 0, BuildingBlock: BEQFEK_clean_sbu_0, # of connection points: 5
#     Node 1, Type 0, BuildingBlock: BEQFEK_clean_sbu_0, # of connection points: 5
#     Node 2, Type 0, BuildingBlock: BEQFEK_clean_sbu_0, # of connection points: 5
#     Node 3, Type 0, BuildingBlock: BEQFEK_clean_sbu_0, # of connection points: 5
#     Node 4, Type 0, BuildingBlock: BEQFEK_clean_sbu_0, # of connection points: 5
#     Node 5, Type 0, BuildingBlock: BEQFEK_clean_sbu_0, # of connection points: 5
#     Node 6, Type 0, BuildingBlock: BEQFEK_clean_sbu_0, # of connection points: 5
#     Node 7, Type 0, BuildingBlock: BEQFEK_clean_sbu_0, # of connection points: 5
#     Node 8, Type 0, BuildingBlock: BEQFEK_clean_sbu_0, # of connection points: 5
#     Node 9, Type 0, BuildingBlock: BEQFEK_clean_sbu_0, # of connection points: 5
#     Node 10, Type 0, BuildingBlock: BEQFEK_clean_sbu_0, # of connection points: 5
#     Node 11, Type 0, BuildingBlock: BEQFEK_clean_sbu_0, # of connection points: 5
#     Edge 12, Type (0, 0), BuildingBlock: KIFKEQ_clean_linker_1, # of connection points: 2
#     Edge 13, Type (0, 0), BuildingBlock: KIFKEQ_clean_linker_1, # of connection points: 2
#     Edge 14, Type (0, 0), BuildingBlock: KIFKEQ_clean_linker_1, # of connection points: 2
#     Edge 15, Type (0, 0), BuildingBlock: KIFKEQ_clean_linker_1, # of connection points: 2
#     Edge 16, Type (0, 0), BuildingBlock: KIFKEQ_clean_linker_1, # of connection points: 2
#     Edge 17, Type (0, 0), BuildingBlock: KIFKEQ_clean_linker_1, # of connection points: 2
#     Edge 18, Type (0, 0), BuildingBlock: KIFKEQ_clean_linker_1, # of connection points: 2
#     Edge 19, Type (0, 0), BuildingBlock: KIFKEQ_clean_linker_1, # of connection points: 2
#     Edge 20, Type (0, 0), BuildingBlock: KIFKEQ_clean_linker_1, # of connection points: 2
#     Edge 21, Type (0, 0), BuildingBlock: KIFKEQ_clean_linker_1, # of connection points: 2
#     Edge 22, Type (0, 0), BuildingBlock: KIFKEQ_clean_linker_1, # of connection points: 2
#     Edge 23, Type (0, 0), BuildingBlock: KIFKEQ_clean_linker_1, # of connection points: 2
#     Edge 24, Type (0, 0), BuildingBlock: KIFKEQ_clean_linker_1, # of connection points: 2
#     Edge 25, Type (0, 0), BuildingBlock: KIFKEQ_clean_linker_1, # of connection points: 2
#     Edge 26, Type (0, 0), BuildingBlock: KIFKEQ_clean_linker_1, # of connection points: 2
#     Edge 27, Type (0, 0), BuildingBlock: KIFKEQ_clean_linker_1, # of connection points: 2
#     Edge 28, Type (0, 0), BuildingBlock: KIFKEQ_clean_linker_1, # of connection points: 2
#     Edge 29, Type (0, 0), BuildingBlock: KIFKEQ_clean_linker_1, # of connection points: 2
#     Edge 30, Type (0, 0), BuildingBlock: KIFKEQ_clean_linker_1, # of connection points: 2
#     Edge 31, Type (0, 0), BuildingBlock: KIFKEQ_clean_linker_1, # of connection points: 2
#     Edge 32, Type (0, 0), BuildingBlock: KIFKEQ_clean_linker_1, # of connection points: 2
#     Edge 33, Type (0, 0), BuildingBlock: KIFKEQ_clean_linker_1, # of connection points: 2
#     Edge 34, Type (0, 0), BuildingBlock: KIFKEQ_clean_linker_1, # of connection points: 2
#     Edge 35, Type (0, 0), BuildingBlock: KIFKEQ_clean_linker_1, # of connection points: 2
#     Edge 36, Type (0, 0), BuildingBlock: KIFKEQ_clean_linker_1, # of connection points: 2
#     Edge 37, Type (0, 0), BuildingBlock: KIFKEQ_clean_linker_1, # of connection points: 2
#     Edge 38, Type (0, 0), BuildingBlock: KIFKEQ_clean_linker_1, # of connection points: 2
#     Edge 39, Type (0, 0), BuildingBlock: KIFKEQ_clean_linker_1, # of connection points: 2
#     Edge 40, Type (0, 0), BuildingBlock: KIFKEQ_clean_linker_1, # of connection points: 2
#     Edge 41, Type (0, 0), BuildingBlock: KIFKEQ_clean_linker_1, # of connection points: 2
# Relax obj value: 0.260
# Max RMSD: 0.186
# Mean RMSD: 0.185
data_MOF--net-wkc--node1-BEQFEK_clean_sbu_0--edge1-KIFKEQ_clean_linker_1
_symmetry_space_group_name_H-M    P1
_symmetry_Int_Tables_number       1
_symmetry_cell_setting            triclinic
loop_
_symmetry_equiv_pos_as_xyz
'x, y, z'
_cell_length_a     41.306831
_cell_length_b     41.331574
_cell_length_c     44.204984
_cell_angle_alpha  90.01126
_cell_angle_beta   90.009699
_cell_angle_gamma 120.07074
loop_
_atom_site_label
_atom_site_type_symbol
_atom_site_fract_x
_atom_site_fract_y
_atom_site_fract_z
_atom_type_partial_charge
Co0 Co 0.25829 0.35372 1.00018 0.0
Co1 Co 0.26132 0.41662 0.0417 0.0
C2 C 0.18883 0.35436 0.01714 0.0
O3 O 0.20405 0.33815 0.00361 0.0
O4 O 0.20822 0.38461 0.03171 0.0
C5 C 0.24539 0.28762 0.96641 0.0
O6 O 0.21863 0.26831 0.98602 0.0
C7 C 0.25514 0.48267 0.05438 0.0
C8 C 0.27969 0.49852 0.10017 0.0
C9 C 0.26364 0.50865 0.07726 0.0
N10 N 0.26608 0.45854 0.06324 0.0
N11 N 0.28061 0.46805 0.09065 0.0
C12 C 0.23473 0.4792 0.02547 0.0
H13 H 0.21116 0.48429 0.0297 0.0
H14 H 0.22419 0.4512 0.01523 0.0
H15 H 0.25388 0.50042 0.00905 0.0
C16 C 0.3143 0.42097 0.96631 0.0
N17 N 0.28911 0.40498 0.98882 0.0
N18 N 0.29153 0.4314 0.0069 0.0
C19 C 0.31876 0.46487 0.99688 0.0
C20 C 0.3338 0.4594 0.97066 0.0
C21 C 0.31993 0.39969 0.94149 0.0
H22 H 0.33232 0.38351 0.95109 0.0
H23 H 0.29247 0.37963 0.93141 0.0
H24 H 0.33856 0.41855 0.92351 0.0
O25 O 0.27551 0.34443 0.03997 0.0
O26 O 0.27652 0.38906 0.06871 0.0
H27 H 0.33217 0.4952 0.03886 0.0
H28 H 0.36339 0.52047 0.00814 0.0
C29 C 0.33382 0.5007 0.01422 0.0
H30 H 0.31712 0.51415 0.00883 0.0
H31 H 0.29111 0.45372 0.10289 0.0
O32 O 0.26449 0.32296 0.96886 0.0
C33 C 0.28114 0.36105 0.06542 0.0
Co34 Co 0.90412 0.25949 0.16997 0.0
Co35 Co 0.83957 0.25875 0.20816 0.0
C36 C 0.83556 0.18776 0.18717 0.0
O37 O 0.8676 0.20488 0.1745 0.0
O38 O 0.82156 0.20539 0.20023 0.0
C39 C 0.94283 0.24843 0.11856 0.0
O40 O 0.91104 0.21839 0.11164 0.0
C41 C 0.76475 0.24709 0.22453 0.0
C42 C 0.78075 0.29151 0.25879 0.0
C43 C 0.75023 0.26379 0.24332 0.0
N44 N 0.80211 0.26482 0.22838 0.0
N45 N 0.81133 0.29099 0.24915 0.0
C46 C 0.74376 0.21449 0.20374 0.0
H47 H 0.75868 0.19873 0.20112 0.0
H48 H 0.7416 0.22478 0.18108 0.0
H49 H 0.7152 0.19541 0.2125 0.0
C50 C 0.89062 0.31187 0.13299 0.0
N51 N 0.88155 0.28725 0.15593 0.0
N52 N 0.85475 0.28719 0.17207 0.0
C53 C 0.84596 0.31173 0.15996 0.0
C54 C 0.86841 0.32823 0.13485 0.0
C55 C 0.92264 0.32239 0.1118 0.0
H56 H 0.91652 0.29794 0.09747 0.0
H57 H 0.92773 0.34619 0.09704 0.0
H58 H 0.94835 0.33008 0.125 0.0
O59 O 0.92836 0.27919 0.20983 0.0
O60 O 0.88212 0.27754 0.23657 0.0
H61 H 0.82605 0.33237 0.19548 0.0
H62 H 0.81306 0.33936 0.158 0.0
C63 C 0.81724 0.31995 0.17262 0.0
H64 H 0.7902 0.29356 0.17469 0.0
H65 H 0.83868 0.30907 0.25631 0.0
O66 O 0.94469 0.26753 0.14174 0.0
C67 C 0.91573 0.2845 0.23449 0.0
Co68 Co 0.64874 0.90915 0.33688 0.0
Co69 Co 0.57966 0.84949 0.37442 0.0
C70 C 0.644 0.83829 0.35807 0.0
O71 O 0.66119 0.86888 0.34342 0.0
O72 O 0.61266 0.82813 0.37064 0.0
C73 C 0.69146 0.94007 0.28185 0.0
O74 O 0.67021 0.90646 0.27059 0.0
C75 C 0.51249 0.77664 0.38872 0.0
C76 C 0.48554 0.7938 0.42336 0.0
C77 C 0.4811 0.76297 0.40734 0.0
N78 N 0.53383 0.81375 0.39332 0.0
N79 N 0.51765 0.82368 0.41421 0.0
C80 C 0.52267 0.75509 0.36729 0.0
H81 H 0.55292 0.77043 0.3623 0.0
H82 H 0.50764 0.75115 0.3456 0.0
H83 H 0.51473 0.72725 0.37684 0.0
C84 C 0.58576 0.90314 0.29864 0.0
N85 N 0.59917 0.89129 0.3214 0.0
N86 N 0.57063 0.86539 0.33686 0.0
C87 C 0.53849 0.85965 0.32424 0.0
C88 C 0.547 0.88323 0.29966 0.0
C89 C 0.6091 0.93636 0.27904 0.0
H90 H 0.63325 0.95798 0.29199 0.0
H91 H 0.61958 0.9275 0.25947 0.0
H92 H 0.59243 0.94858 0.27015 0.0
O93 O 0.6543 0.9343 0.37643 0.0
O94 O 0.60407 0.89283 0.40193 0.0
H95 H 0.49799 0.8436 0.35962 0.0
H96 H 0.47797 0.83291 0.32209 0.0
C97 C 0.50031 0.834 0.33672 0.0
H98 H 0.49605 0.80542 0.33857 0.0
H99 H 0.52836 0.851 0.42203 0.0
O100 O 0.68687 0.94668 0.30913 0.0
C101 C 0.63395 0.92443 0.40011 0.0
Co102 Co 0.73282 0.63841 0.50455 0.0
Co103 Co 0.72469 0.5748 0.54774 0.0
C104 C 0.79989 0.63743 0.52743 0.0
O105 O 0.78625 0.65321 0.51122 0.0
O106 O 0.77887 0.60745 0.54184 0.0
C107 C 0.74876 0.70521 0.4706 0.0
O108 O 0.77416 0.7239 0.49135 0.0
C109 C 0.73303 0.51139 0.56413 0.0
C110 C 0.69833 0.49007 0.60533 0.0
C111 C 0.7212 0.48376 0.58616 0.0
N112 N 0.71793 0.53283 0.57017 0.0
N113 N 0.69742 0.52019 0.59491 0.0
C114 C 0.756 0.51632 0.5365 0.0
H115 H 0.75139 0.53312 0.51926 0.0
H116 H 0.74889 0.48877 0.52679 0.0
H117 H 0.78607 0.53152 0.54271 0.0
C118 C 0.67979 0.57171 0.46843 0.0
N119 N 0.70263 0.58733 0.49241 0.0
N120 N 0.6988 0.56059 0.51076 0.0
C121 C 0.67321 0.52721 0.49928 0.0
C122 C 0.66044 0.53313 0.47198 0.0
C123 C 0.67619 0.59346 0.44291 0.0
H124 H 0.70443 0.61393 0.43437 0.0
H125 H 0.65933 0.57497 0.42404 0.0
H126 H 0.66278 0.60921 0.45134 0.0
O127 O 0.71338 0.64816 0.54293 0.0
O128 O 0.70578 0.60113 0.57228 0.0
H129 H 0.63064 0.46934 0.50654 0.0
H130 H 0.67803 0.48052 0.51387 0.0
C131 C 0.658 0.49086 0.51586 0.0
H132 H 0.65446 0.49497 0.54014 0.0
H133 H 0.68256 0.5319 0.60451 0.0
O134 O 0.72935 0.66983 0.47238 0.0
C135 C 0.70346 0.6303 0.56789 0.0
Co136 Co 0.09632 0.73952 0.66935 0.0
Co137 Co 0.1579 0.74006 0.71103 0.0
C138 C 0.16482 0.81088 0.68599 0.0
O139 O 0.13323 0.79406 0.67266 0.0
O140 O 0.17734 0.79301 0.70068 0.0
C141 C 0.04304 0.75109 0.63448 0.0
O142 O 0.05226 0.77992 0.65224 0.0
C143 C 0.23114 0.74855 0.72403 0.0
C144 C 0.22293 0.72473 0.77004 0.0
C145 C 0.24904 0.74086 0.74708 0.0
N146 N 0.19591 0.73707 0.73285 0.0
N147 N 0.1912 0.72303 0.76041 0.0
C148 C 0.24777 0.7686 0.69494 0.0
H149 H 0.2766 0.7921 0.69886 0.0
H150 H 0.23026 0.77917 0.68485 0.0
H151 H 0.24943 0.74922 0.67854 0.0
C152 C 0.11035 0.68542 0.63577 0.0
N153 N 0.11877 0.71057 0.65816 0.0
N154 N 0.14331 0.70932 0.67637 0.0
C155 C 0.15057 0.68268 0.6666 0.0
C156 C 0.13021 0.66691 0.64039 0.0
C157 C 0.08325 0.67882 0.61083 0.0
H158 H 0.05444 0.66454 0.62016 0.0
H159 H 0.0891 0.70603 0.60125 0.0
H160 H 0.08506 0.66147 0.5925 0.0
O161 O 0.0701 0.72172 0.70908 0.0
O162 O 0.1148 0.72343 0.73816 0.0
H163 H 0.16845 0.67096 0.70885 0.0
H164 H 0.16242 0.63898 0.67875 0.0
C165 C 0.17199 0.66862 0.68426 0.0
H166 H 0.20207 0.68545 0.67852 0.0
H167 H 0.1663 0.71219 0.77262 0.0
O168 O 0.05838 0.73136 0.6383 0.0
C169 C 0.08155 0.71711 0.73466 0.0
Co170 Co 0.35194 0.08673 0.83721 0.0
Co171 Co 0.41815 0.14745 0.8758 0.0
C172 C 0.35548 0.15843 0.85595 0.0
O173 O 0.33864 0.1268 0.84269 0.0
O174 O 0.38688 0.1699 0.86881 0.0
C175 C 0.31117 0.05683 0.78128 0.0
O176 O 0.33216 0.09086 0.77074 0.0
C177 C 0.48307 0.21989 0.89028 0.0
C178 C 0.50697 0.20625 0.92967 0.0
C179 C 0.51228 0.23556 0.91107 0.0
N180 N 0.46182 0.18329 0.89643 0.0
N181 N 0.47603 0.17532 0.92012 0.0
C182 C 0.47639 0.23813 0.86363 0.0
H183 H 0.45827 0.2168 0.84676 0.0
H184 H 0.50329 0.25851 0.85289 0.0
H185 H 0.46188 0.25314 0.87129 0.0
C186 C 0.41718 0.09476 0.80076 0.0
N187 N 0.40231 0.10512 0.82344 0.0
N188 N 0.42985 0.1315 0.83941 0.0
C189 C 0.4628 0.13929 0.82705 0.0
C190 C 0.45584 0.11654 0.80211 0.0
C191 C 0.39516 0.06329 0.77924 0.0
H192 H 0.38529 0.07363 0.76024 0.0
H193 H 0.41257 0.05231 0.76963 0.0
H194 H 0.37061 0.04036 0.79087 0.0
O195 O 0.34458 0.06108 0.87677 0.0
O196 O 0.39142 0.10499 0.90364 0.0
H197 H 0.52296 0.16284 0.82916 0.0
H198 H 0.50633 0.1945 0.83807 0.0
C199 C 0.50034 0.16534 0.84048 0.0
H200 H 0.50027 0.15916 0.86488 0.0
H201 H 0.46481 0.1487 0.92957 0.0
O202 O 0.3153 0.04952 0.80847 0.0
C203 C 0.36278 0.07253 0.90147 0.0
Co204 Co 0.65109 0.74268 0.82073 0.0
Co205 Co 0.58251 0.73779 0.78614 0.0
C206 C 0.6467 0.81113 0.80565 0.0
O207 O 0.66427 0.7962 0.81733 0.0
O208 O 0.61485 0.7914 0.7934 0.0
C209 C 0.69319 0.75191 0.87509 0.0
O210 O 0.67249 0.76491 0.88631 0.0
C211 C 0.51591 0.74443 0.77605 0.0
C212 C 0.49363 0.71239 0.73365 0.0
C213 C 0.48747 0.73327 0.75495 0.0
N214 N 0.53779 0.73052 0.76771 0.0
N215 N 0.52435 0.71142 0.74236 0.0
C216 C 0.52385 0.77015 0.80237 0.0
H217 H 0.54943 0.77511 0.81451 0.0
H218 H 0.50003 0.75795 0.81839 0.0
H219 H 0.52731 0.79711 0.79424 0.0
C220 C 0.58773 0.6844 0.85834 0.0
N221 N 0.60138 0.71033 0.83607 0.0
N222 N 0.57299 0.70978 0.82197 0.0
C223 C 0.54076 0.68433 0.83512 0.0
C224 C 0.54908 0.66776 0.85869 0.0
C225 C 0.61071 0.67381 0.87767 0.0
H226 H 0.62161 0.69303 0.89731 0.0
H227 H 0.59364 0.64494 0.8865 0.0
H228 H 0.63456 0.67595 0.86454 0.0
O229 O 0.65624 0.72553 0.7798 0.0
O230 O 0.60653 0.72116 0.75647 0.0
H231 H 0.48054 0.6476 0.8348 0.0
H232 H 0.49669 0.6962 0.82763 0.0
C233 C 0.50252 0.67318 0.82349 0.0
H234 H 0.50123 0.66798 0.7988 0.0
H235 H 0.53635 0.698 0.73083 0.0
O236 O 0.68871 0.74115 0.84768 0.0
C237 C 0.63555 0.7179 0.75644 0.0
Co238 Co 0.90223 0.64152 0.98425 0.0
Co239 Co 0.8387 0.57945 0.9444 0.0
C240 C 0.8338 0.64482 0.9693 0.0
O241 O 0.86572 0.65953 0.98208 0.0
O242 O 0.82052 0.61407 0.95496 0.0
C243 C 0.9415 0.69003 0.03592 0.0
O244 O 0.91002 0.68907 0.04249 0.0
C245 C 0.76425 0.51462 0.93439 0.0
C246 C 0.77076 0.49501 0.8895 0.0
C247 C 0.7455 0.48705 0.91283 0.0
N248 N 0.7992 0.53752 0.92443 0.0
N249 N 0.80282 0.52586 0.89747 0.0
C250 C 0.74871 0.52035 0.96322 0.0
H251 H 0.7662 0.54938 0.97154 0.0
H252 H 0.74827 0.50114 0.9809 0.0
H253 H 0.71951 0.51404 0.95967 0.0
C254 C 0.88896 0.57418 0.01891 0.0
N255 N 0.8801 0.5905 0.99647 0.0
N256 N 0.85516 0.56431 0.97869 0.0
C257 C 0.84837 0.53061 0.98864 0.0
C258 C 0.86918 0.53576 0.01465 0.0
C259 C 0.9184 0.59512 0.04227 0.0
H260 H 0.94561 0.61302 0.03089 0.0
H261 H 0.91106 0.61355 0.05519 0.0
H262 H 0.92137 0.57597 0.05814 0.0
O263 O 0.92563 0.64828 0.9435 0.0
O264 O 0.88011 0.6046 0.91543 0.0
H265 H 0.82834 0.49843 0.94778 0.0
H266 H 0.83038 0.47236 0.9798 0.0
C267 C 0.82424 0.49439 0.97256 0.0
H268 H 0.79453 0.48447 0.97779 0.0
H269 H 0.82734 0.53868 0.88468 0.0
O270 O 0.94322 0.67277 0.01271 0.0
C271 C 0.91339 0.63179 0.91818 0.0
Co272 Co 0.25445 0.90264 0.15476 0.0
Co273 Co 0.25966 0.84072 0.11789 0.0
C274 C 0.18636 0.82876 0.13983 0.0
O275 O 0.20108 0.86134 0.15143 0.0
O276 O 0.20625 0.81723 0.12704 0.0
C277 C 0.24724 0.93485 0.21061 0.0
O278 O 0.23702 0.90183 0.22219 0.0
C279 C 0.254 0.76866 0.10582 0.0
C280 C 0.28774 0.78026 0.06419 0.0
C281 C 0.26628 0.75239 0.08475 0.0
N282 N 0.26785 0.80466 0.09819 0.0
N283 N 0.28789 0.81143 0.07325 0.0
C284 C 0.22736 0.75005 0.13147 0.0
H285 H 0.2301 0.77109 0.14842 0.0
H286 H 0.23207 0.72871 0.14251 0.0
H287 H 0.19837 0.73572 0.12249 0.0
C288 C 0.31582 0.89982 0.18926 0.0
N289 N 0.28828 0.88643 0.16827 0.0
N290 N 0.28965 0.85987 0.15283 0.0
C291 C 0.31754 0.85522 0.16366 0.0
C292 C 0.33494 0.88029 0.18709 0.0
C293 C 0.32717 0.93389 0.20818 0.0
H294 H 0.32247 0.95439 0.19563 0.0
H295 H 0.31022 0.92569 0.22918 0.0
H296 H 0.35708 0.94726 0.21475 0.0
O297 O 0.27084 0.92638 0.11428 0.0
O298 O 0.27299 0.88131 0.0886 0.0
H299 H 0.33556 0.83452 0.12679 0.0
H300 H 0.35217 0.82935 0.16332 0.0
C301 C 0.32824 0.82826 0.15104 0.0
H302 H 0.30412 0.79951 0.1529 0.0
H303 H 0.30157 0.8373 0.06236 0.0
O304 O 0.25557 0.94077 0.18269 0.0
C305 C 0.27667 0.91373 0.08982 0.0
Co306 Co 0.34633 0.25411 0.31701 0.0
Co307 Co 0.41256 0.2565 0.28056 0.0
C308 C 0.34962 0.18435 0.30202 0.0
O309 O 0.33307 0.2005 0.31351 0.0
O310 O 0.3813 0.20288 0.28916 0.0
C311 C 0.30622 0.24776 0.3725 0.0
O312 O 0.32745 0.23579 0.38443 0.0
C313 C 0.47794 0.24926 0.26559 0.0
C314 C 0.50752 0.29573 0.23313 0.0
C315 C 0.51018 0.26788 0.24835 0.0
N316 N 0.45725 0.26558 0.2609 0.0
N317 N 0.47474 0.29286 0.24106 0.0
C318 C 0.4687 0.21918 0.28845 0.0
H319 H 0.4537 0.1916 0.27701 0.0
H320 H 0.45026 0.21999 0.30632 0.0
H321 H 0.49456 0.22222 0.29883 0.0
C322 C 0.41132 0.31268 0.35276 0.0
N323 N 0.39646 0.28635 0.33085 0.0
N324 N 0.4239 0.28552 0.31635 0.0
C325 C 0.45674 0.31004 0.32934 0.0
C326 C 0.44981 0.32791 0.35276 0.0
C327 C 0.38966 0.32477 0.3722 0.0
H328 H 0.37993 0.30701 0.39273 0.0
H329 H 0.40739 0.35418 0.37967 0.0
H330 H 0.36513 0.32199 0.35971 0.0
O331 O 0.33974 0.27082 0.27671 0.0
O332 O 0.38613 0.27123 0.25111 0.0
H333 H 0.49844 0.3291 0.29474 0.0
H334 H 0.51733 0.33954 0.33247 0.0
C335 C 0.49437 0.31837 0.31821 0.0
H336 H 0.49585 0.29235 0.31826 0.0
H337 H 0.46497 0.31047 0.23384 0.0
O338 O 0.30975 0.25654 0.34464 0.0
C339 C 0.35797 0.27594 0.25225 0.0
Co340 Co 0.09168 0.35227 0.48446 0.0
Co341 Co 0.15434 0.41997 0.44819 0.0
C342 C 0.16418 0.35625 0.46563 0.0
O343 O 0.13187 0.33942 0.47787 0.0
O344 O 0.17717 0.38849 0.45384 0.0
C345 C 0.06097 0.31017 0.5397 0.0
O346 O 0.09471 0.33144 0.55075 0.0
C347 C 0.22607 0.48697 0.43281 0.0
C348 C 0.20685 0.51669 0.4027 0.0
C349 C 0.23833 0.5198 0.41658 0.0
N350 N 0.1889 0.46561 0.42891 0.0
N351 N 0.17775 0.48323 0.41041 0.0
C352 C 0.24836 0.47772 0.45417 0.0
H353 H 0.2299 0.45757 0.47158 0.0
H354 H 0.27057 0.5034 0.46525 0.0
H355 H 0.26194 0.46472 0.44126 0.0
C356 C 0.09952 0.41559 0.52307 0.0
N357 N 0.11033 0.4017 0.49998 0.0
N358 N 0.13814 0.42974 0.48553 0.0
C359 C 0.14678 0.462 0.49969 0.0
C360 C 0.12273 0.45404 0.52388 0.0
C361 C 0.06612 0.39308 0.54274 0.0
H362 H 0.07462 0.38256 0.5625 0.0
H363 H 0.0546 0.41044 0.55142 0.0
H364 H 0.04409 0.36905 0.52995 0.0
O365 O 0.06638 0.34728 0.44531 0.0
O366 O 0.11163 0.39448 0.41975 0.0
H367 H 0.17749 0.52244 0.5041 0.0
H368 H 0.20304 0.50201 0.48766 0.0
C369 C 0.17536 0.50011 0.48888 0.0
H370 H 0.16764 0.50482 0.46598 0.0
H371 H 0.14996 0.47304 0.40406 0.0
O372 O 0.05416 0.31449 0.51241 0.0
C373 C 0.07862 0.36647 0.42117 0.0
Co374 Co 0.7432 0.09577 0.65162 0.0
Co375 Co 0.74195 0.15908 0.61382 0.0
C376 C 0.8139 0.16448 0.63545 0.0
O377 O 0.79759 0.13272 0.64847 0.0
O378 O 0.79543 0.17726 0.62199 0.0
C379 C 0.75449 0.05582 0.70161 0.0
O380 O 0.78521 0.0872 0.70811 0.0
C381 C 0.75031 0.23308 0.60593 0.0
C382 C 0.72406 0.22768 0.56122 0.0
C383 C 0.74115 0.25222 0.58505 0.0
N384 N 0.73867 0.19861 0.5951 0.0
N385 N 0.72327 0.19563 0.56828 0.0
C386 C 0.77155 0.24777 0.63489 0.0
H387 H 0.78447 0.23104 0.64188 0.0
H388 H 0.75229 0.24595 0.65311 0.0
H389 H 0.79342 0.27759 0.63228 0.0
C390 C 0.68927 0.10707 0.6886 0.0
N391 N 0.71419 0.11706 0.66578 0.0
N392 N 0.71261 0.14273 0.64927 0.0
C393 C 0.68612 0.14927 0.66063 0.0
C394 C 0.67082 0.12727 0.68613 0.0
C395 C 0.68257 0.07796 0.71175 0.0
H396 H 0.67092 0.05034 0.7005 0.0
H397 H 0.70955 0.0847 0.72237 0.0
H398 H 0.66304 0.07639 0.72966 0.0
O399 O 0.7252 0.07281 0.61092 0.0
O400 O 0.72291 0.11757 0.5848 0.0
H401 H 0.67294 0.16896 0.62 0.0
H402 H 0.64188 0.16139 0.65121 0.0
C403 C 0.67139 0.17134 0.64484 0.0
H404 H 0.68827 0.20113 0.65142 0.0
H405 H 0.71186 0.17157 0.55493 0.0
O406 O 0.73476 0.0545 0.67906 0.0
C407 C 0.71809 0.08474 0.58665 0.0
H408 H 0.28025 0.13355 0.85332 0.0
H409 H 0.38726 0.23187 0.87108 0.0
H410 H 0.24858 0.16547 0.87361 0.0
H411 H 0.3559 0.26331 0.89165 0.0
H412 H 0.29382 0.31959 0.91921 0.0
H413 H 0.31596 0.28962 0.8841 0.0
H414 H 0.24262 0.1827 0.92563 0.0
H415 H 0.21978 0.21262 0.96039 0.0
C416 C 0.29699 0.16229 0.86074 0.0
C417 C 0.33626 0.18007 0.8609 0.0
C418 C 0.27886 0.18041 0.87266 0.0
C419 C 0.29969 0.21674 0.88464 0.0
C420 C 0.33891 0.23545 0.88247 0.0
C421 C 0.35696 0.21733 0.87078 0.0
C422 C 0.28203 0.28962 0.92065 0.0
C423 C 0.25545 0.26858 0.94296 0.0
C424 C 0.29476 0.27244 0.90049 0.0
C425 C 0.28138 0.23383 0.90224 0.0
C426 C 0.25328 0.21245 0.92345 0.0
C427 C 0.24038 0.22965 0.94357 0.0
H428 H 0.13801 0.27945 0.02024 0.0
H429 H 0.14746 0.3883 0.02171 0.0
H430 H 0.07416 0.25159 0.03997 0.0
H431 H 0.08363 0.36052 0.04047 0.0
H432 H 0.00876 0.31371 0.1235 0.0
H433 H 0.06353 0.33688 0.09161 0.0
H434 H 0.0076 0.23763 0.0362 0.0
H435 H 0.95212 0.21386 0.06871 0.0
C436 C 0.12591 0.29715 0.02362 0.0
C437 C 0.14779 0.33608 0.01994 0.0
C438 C 0.08938 0.28122 0.03496 0.0
C439 C 0.07427 0.30404 0.04252 0.0
C440 C 0.09489 0.34237 0.03566 0.0
C441 C 0.13133 0.35825 0.0247 0.0
C442 C 0.0079 0.29669 0.10454 0.0
C443 C 0.97601 0.26186 0.09872 0.0
C444 C 0.03926 0.31021 0.086 0.0
C445 C 0.03974 0.28935 0.06107 0.0
C446 C 0.008 0.25435 0.05522 0.0
C447 C 0.97629 0.2408 0.0738 0.0
H448 H 0.76043 0.1397 0.18731 0.0
H449 H 0.86653 0.14381 0.19616 0.0
H450 H 0.72805 0.07462 0.20424 0.0
H451 H 0.83403 0.07888 0.214 0.0
H452 H 0.75633 0.00229 0.29771 0.0
H453 H 0.7938 0.05809 0.26699 0.0
H454 H 0.71961 0.00559 0.19134 0.0
H455 H 0.68265 0.94908 0.22181 0.0
C456 C 0.77671 0.12635 0.19215 0.0
C457 C 0.81594 0.14674 0.19053 0.0
C458 C 0.75819 0.08914 0.20172 0.0
C459 C 0.77865 0.07196 0.21049 0.0
C460 C 0.81774 0.09162 0.20728 0.0
C461 C 0.83624 0.12861 0.19695 0.0
C462 C 0.74854 0.00236 0.27432 0.0
C463 C 0.71665 0.97148 0.26211 0.0
C464 C 0.77006 0.03413 0.25672 0.0
C465 C 0.75956 0.03593 0.22684 0.0
C466 C 0.72831 0.00467 0.21429 0.0
C467 C 0.7073 0.97243 0.23168 0.0
H468 H 0.77591 0.78054 0.465 0.0
H469 H 0.70155 0.67451 0.42249 0.0
H470 H 0.75441 0.81158 0.4301 0.0
H471 H 0.68061 0.70559 0.38741 0.0
H472 H 0.61089 0.7654 0.37524 0.0
H473 H 0.6412 0.73311 0.39628 0.0
H474 H 0.74948 0.82903 0.37721 0.0
H475 H 0.71891 0.86172 0.35621 0.0
C476 C 0.75555 0.76396 0.44786 0.0
C477 C 0.73995 0.72496 0.44691 0.0
C478 C 0.74342 0.78179 0.4277 0.0
C479 C 0.71552 0.76096 0.40617 0.0
C480 C 0.70169 0.72231 0.40405 0.0
C481 C 0.71374 0.70451 0.42418 0.0
C482 C 0.64116 0.77934 0.37486 0.0
C483 C 0.66249 0.81624 0.36432 0.0
C484 C 0.65859 0.76073 0.3868 0.0
C485 C 0.69778 0.77864 0.38867 0.0
C486 C 0.71922 0.8147 0.37638 0.0
C487 C 0.70171 0.83326 0.36411 0.0
H488 H 0.02249 0.69744 0.59095 0.0
H489 H 0.99561 0.77871 0.62616 0.0
H490 H 0.96888 0.67346 0.55717 0.0
H491 H 0.94135 0.75408 0.59273 0.0
H492 H 0.85222 0.71174 0.52106 0.0
H493 H 0.91629 0.74342 0.54071 0.0
H494 H 0.90254 0.6367 0.56748 0.0
H495 H 0.83928 0.6053 0.54764 0.0
C496 C 0.00533 0.71042 0.59134 0.0
C497 C 0.013 0.73961 0.61163 0.0
C498 C 0.97455 0.69662 0.57196 0.0
C499 C 0.95058 0.71155 0.57248 0.0
C500 C 0.95943 0.74214 0.59156 0.0
C501 C 0.99038 0.75608 0.61091 0.0
C502 C 0.86334 0.69505 0.53038 0.0
C503 C 0.84062 0.65606 0.53305 0.0
C504 C 0.89987 0.71321 0.54189 0.0
C505 C 0.91439 0.69263 0.55593 0.0
C506 C 0.89244 0.65344 0.55661 0.0
C507 C 0.85601 0.6354 0.54536 0.0
H508 H 0.13582 0.85699 0.69172 0.0
H509 H 0.2402 0.85688 0.68749 0.0
H510 H 0.16944 0.92206 0.70923 0.0
H511 H 0.27377 0.92217 0.70396 0.0
H512 H 0.32158 0.04865 0.72141 0.0
H513 H 0.28457 0.99292 0.69001 0.0
H514 H 0.20781 0.94022 0.76411 0.0
H515 H 0.24533 0.99513 0.79576 0.0
C516 C 0.16605 0.87134 0.69333 0.0
C517 C 0.18547 0.85199 0.68839 0.0
C518 C 0.18518 0.90841 0.70346 0.0
C519 C 0.22407 0.92689 0.70791 0.0
C520 C 0.24382 0.90855 0.70043 0.0
C521 C 0.22463 0.87126 0.69108 0.0
C522 C 0.29637 0.02542 0.73071 0.0
C523 C 0.28627 0.026 0.76098 0.0
C524 C 0.27533 0.99366 0.7128 0.0
C525 C 0.24331 0.9626 0.72466 0.0
C526 C 0.23214 0.96407 0.75438 0.0
C527 C 0.25368 0.99531 0.7725 0.0
H528 H 0.86431 0.72021 0.96406 0.0
H529 H 0.75858 0.61683 0.96706 0.0
H530 H 0.83219 0.75306 0.9465 0.0
H531 H 0.72649 0.64999 0.95053 0.0
H532 H 0.68283 0.73305 0.93489 0.0
H533 H 0.7183 0.71202 0.96568 0.0
H534 H 0.79353 0.73336 0.89093 0.0
H535 H 0.75745 0.75304 0.85982 0.0
C536 C 0.8341 0.70485 0.96215 0.0
C537 C 0.81388 0.66599 0.96679 0.0
C538 C 0.81583 0.72359 0.95198 0.0
C539 C 0.77701 0.70392 0.94719 0.0
C540 C 0.75643 0.66574 0.95432 0.0
C541 C 0.77476 0.64682 0.96371 0.0
C542 C 0.70737 0.7339 0.92528 0.0
C543 C 0.71742 0.74453 0.89499 0.0
C544 C 0.72753 0.72186 0.94285 0.0
C545 C 0.75866 0.72141 0.93064 0.0
C546 C 0.76985 0.73393 0.9009 0.0
C547 C 0.74914 0.74496 0.8831 0.0
H548 H 0.13522 0.85231 0.1363 0.0
H549 H 0.14519 0.7532 0.13457 0.0
H550 H 0.0718 0.81633 0.11595 0.0
H551 H 0.08168 0.71712 0.11508 0.0
H552 H 0.00685 0.68938 0.03171 0.0
H553 H 0.06128 0.72021 0.06414 0.0
H554 H 0.00573 0.76432 0.11901 0.0
H555 H 0.95073 0.7335 0.08597 0.0
C556 C 0.12335 0.82256 0.13269 0.0
C557 C 0.14534 0.80567 0.1365 0.0
C558 C 0.08702 0.80194 0.12098 0.0
C559 C 0.07212 0.7641 0.11316 0.0
C560 C 0.09279 0.74648 0.12007 0.0
C561 C 0.12906 0.76707 0.13145 0.0
C562 C 0.00602 0.70555 0.05069 0.0
C563 C 0.97442 0.70904 0.05616 0.0
C564 C 0.03717 0.72293 0.06954 0.0
C565 C 0.03769 0.74434 0.09444 0.0
C566 C 0.00615 0.74799 0.10001 0.0
C567 C 0.97469 0.73032 0.08111 0.0
H568 H 0.27442 0.13684 0.29749 0.0
H569 H 0.38023 0.13938 0.29927 0.0
H570 H 0.24329 0.07152 0.28089 0.0
H571 H 0.34883 0.07384 0.28353 0.0
H572 H 0.27113 0.94653 0.26926 0.0
H573 H 0.29153 0.00357 0.29924 0.0
H574 H 0.25966 0.05127 0.2263 0.0
H575 H 0.24048 0.995 0.19601 0.0
C576 C 0.29077 0.12307 0.29542 0.0
C577 C 0.32977 0.1432 0.29947 0.0
C578 C 0.27298 0.08582 0.28581 0.0
C579 C 0.29377 0.06789 0.2809 0.0
C580 C 0.33221 0.08705 0.28738 0.0
C581 C 0.35014 0.12452 0.29628 0.0
C582 C 0.26784 0.96895 0.25993 0.0
C583 C 0.25435 0.96653 0.23033 0.0
C584 C 0.27956 0.00148 0.27702 0.0
C585 C 0.27689 0.03154 0.26506 0.0
C586 C 0.26156 0.02825 0.23611 0.0
C587 C 0.2508 0.99622 0.21876 0.0
H588 H 0.13577 0.28102 0.46072 0.0
H589 H 0.23963 0.38649 0.45953 0.0
H590 H 0.16883 0.24926 0.44302 0.0
H591 H 0.27269 0.35437 0.44274 0.0
H592 H 0.31876 0.27197 0.43105 0.0
H593 H 0.28374 0.29481 0.46041 0.0
H594 H 0.20534 0.26579 0.38683 0.0
H595 H 0.24091 0.24425 0.35709 0.0
C596 C 0.1658 0.29721 0.45765 0.0
C597 C 0.18513 0.33626 0.46134 0.0
C598 C 0.18461 0.27904 0.44743 0.0
C599 C 0.22316 0.29947 0.44156 0.0
C600 C 0.24297 0.33805 0.44735 0.0
C601 C 0.22405 0.35638 0.45684 0.0
C602 C 0.29365 0.26987 0.42143 0.0
C603 C 0.28247 0.25642 0.39183 0.0
C604 C 0.27379 0.28301 0.43815 0.0
C605 C 0.24188 0.28179 0.42584 0.0
C606 C 0.22968 0.26662 0.39686 0.0
C607 C 0.25006 0.25448 0.37986 0.0
H608 H 0.85985 0.13538 0.62863 0.0
H609 H 0.85999 0.23984 0.63288 0.0
H610 H 0.9247 0.16875 0.61054 0.0
H611 H 0.9251 0.27316 0.61581 0.0
H612 H 0.05208 0.32006 0.59954 0.0
H613 H 0.99576 0.2833 0.63033 0.0
H614 H 0.94339 0.20752 0.55559 0.0
H615 H -0.00105 0.24482 0.5245 0.0
C616 C 0.87418 0.16558 0.62681 0.0
C617 C 0.85496 0.18508 0.63202 0.0
C618 C 0.91113 0.18456 0.61636 0.0
C619 C 0.92965 0.2234 0.61183 0.0
C620 C 0.91143 0.24324 0.61939 0.0
C621 C 0.87423 0.22419 0.62907 0.0
C622 C 0.02879 0.29512 0.58994 0.0
C623 C 0.0297 0.28524 0.55966 0.0
C624 C 0.99668 0.27424 0.60751 0.0
C625 C 0.96554 0.24258 0.5953 0.0
C626 C 0.96728 0.23159 0.56557 0.0
C627 C -0.0011 0.253 0.54778 0.0
H628 H 0.6132 0.85298 0.80012 0.0
H629 H 0.72171 0.8614 0.80164 0.0
H630 H 0.64139 0.91641 0.78051 0.0
H631 H 0.74991 0.92478 0.78115 0.0
H632 H 0.78898 0.04636 0.7514 0.0
H633 H 0.76463 0.99129 0.78434 0.0
H634 H 0.66497 0.93589 0.72929 0.0
H635 H 0.6887 0.99031 0.69697 0.0
C636 C 0.64324 0.86875 0.79691 0.0
C637 C 0.66518 0.85208 0.80194 0.0
C638 C 0.65936 0.90498 0.78548 0.0
C639 C 0.69769 0.92517 0.77848 0.0
C640 C 0.72028 0.90988 0.78625 0.0
C641 C 0.70414 0.8736 0.79802 0.0
C642 C 0.76184 0.02239 0.74646 0.0
C643 C 0.74082 0.02273 0.72154 0.0
C644 C 0.74795 0.99092 0.7653 0.0
C645 C 0.71266 0.95946 0.75968 0.0
C646 C 0.69185 0.95997 0.73472 0.0
C647 C 0.7057 0.99112 0.71594 0.0
H648 H 0.28062 0.71686 0.12995 0.0
H649 H 0.24083 0.70334 0.03804 0.0
H650 H 0.27561 0.6556 0.128 0.0
H651 H 0.23493 0.64147 0.03602 0.0
H652 H 0.27935 0.55928 0.03207 0.0
H653 H 0.27551 0.61604 0.034 0.0
H654 H 0.234 0.58968 0.12573 0.0
H655 H 0.23865 0.53307 0.12378 0.0
C656 C 0.26967 0.70015 0.10965 0.0
C657 C 0.2603 0.71422 0.08436 0.0
C658 C 0.26688 0.6651 0.10846 0.0
C659 C 0.25469 0.64348 0.08189 0.0
C660 C 0.2448 0.65754 0.05672 0.0
C661 C 0.24793 0.69277 0.05788 0.0
C662 C 0.26845 0.5651 0.05232 0.0
C663 C 0.25864 0.54152 0.07759 0.0
C664 C 0.26635 0.59773 0.05351 0.0
C665 C 0.25431 0.60742 0.08 0.0
C666 C 0.24384 0.58333 0.10511 0.0
C667 C 0.2463 0.55086 0.10398 0.0
H668 H 0.69539 0.23933 0.19921 0.0
H669 H 0.71855 0.27666 0.29219 0.0
H670 H 0.63447 0.2348 0.20289 0.0
H671 H 0.65832 0.2743 0.29493 0.0
H672 H 0.58181 0.32259 0.25642 0.0
H673 H 0.63779 0.31653 0.25738 0.0
H674 H 0.56966 0.19786 0.24181 0.0
H675 H 0.51321 0.20373 0.2417 0.0
C676 C 0.68718 0.24527 0.22075 0.0
C677 C 0.71164 0.25735 0.2457 0.0
C678 C 0.65238 0.2431 0.22266 0.0
C679 C 0.6419 0.25398 0.24922 0.0
C680 C 0.66591 0.26561 0.27427 0.0
C681 C 0.70034 0.26703 0.2726 0.0
C682 C 0.57883 0.29521 0.25334 0.0
C683 C 0.54343 0.26358 0.24908 0.0
C684 C 0.61069 0.29175 0.25406 0.0
C685 C 0.60772 0.25674 0.24981 0.0
C686 C 0.57238 0.22507 0.24524 0.0
C687 C 0.5403 0.2284 0.24525 0.0
H688 H 0.43567 0.73316 0.45612 0.0
H689 H 0.44995 0.7065 0.36424 0.0
H690 H 0.37817 0.67277 0.46005 0.0
H691 H 0.39404 0.64556 0.36915 0.0
H692 H 0.3065 0.5254 0.40781 0.0
H693 H 0.3679 0.58306 0.40687 0.0
H694 H 0.31459 0.64781 0.42587 0.0
H695 H 0.25346 0.5906 0.42606 0.0
C696 C 0.42716 0.71428 0.43698 0.0
C697 C 0.44826 0.72467 0.4101 0.0
C698 C 0.39432 0.67972 0.43933 0.0
C699 C 0.38214 0.65457 0.41501 0.0
C700 C 0.40344 0.6643 0.38842 0.0
C701 C 0.43588 0.69921 0.3858 0.0
C702 C 0.30811 0.55199 0.41197 0.0
C703 C 0.2755 0.55378 0.41706 0.0
C704 C 0.34303 0.58481 0.41132 0.0
C705 C 0.34572 0.61961 0.41648 0.0
C706 C 0.31313 0.62121 0.42209 0.0
C707 C 0.27828 0.58861 0.42202 0.0
H708 H 0.67459 0.41496 0.6093 0.0
H709 H 0.78445 0.48131 0.5699 0.0
H710 H 0.68405 0.36135 0.61156 0.0
H711 H 0.79319 0.42721 0.57115 0.0
H712 H 0.76191 0.30489 0.54127 0.0
H713 H 0.76112 0.36363 0.54386 0.0
H714 H 0.72598 0.34098 0.6372 0.0
H715 H 0.72637 0.2822 0.63449 0.0
C716 C 0.70077 0.41816 0.60113 0.0
C717 C 0.72825 0.4521 0.58849 0.0
C718 C 0.70619 0.38749 0.60252 0.0
C719 C 0.73922 0.39014 0.59128 0.0
C720 C 0.7672 0.42432 0.57946 0.0
C721 C 0.76194 0.45516 0.57839 0.0
C722 C 0.75465 0.31287 0.56244 0.0
C723 C 0.74482 0.28942 0.58781 0.0
C724 C 0.75436 0.34646 0.56397 0.0
C725 C 0.74353 0.35675 0.59075 0.0
C726 C 0.73441 0.33362 0.6163 0.0
C727 C 0.73514 0.30026 0.61487 0.0
H728 H 0.2836 0.72452 0.70206 0.0
H729 H 0.29892 0.76668 0.79335 0.0
H730 H 0.34387 0.72763 0.70416 0.0
H731 H 0.35998 0.77079 0.79543 0.0
H732 H 0.4389 0.72229 0.80064 0.0
H733 H 0.38374 0.72912 0.79856 0.0
H734 H 0.40979 0.76668 0.7058 0.0
H735 H 0.46454 0.75879 0.70792 0.0
C736 C 0.30047 0.73563 0.72223 0.0
C737 C 0.28699 0.74599 0.74736 0.0
C738 C 0.33504 0.73734 0.72352 0.0
C739 C 0.35692 0.74958 0.74995 0.0
C740 C 0.34365 0.76075 0.77486 0.0
C741 C 0.30885 0.75863 0.77365 0.0
C742 C 0.43335 0.73299 0.78014 0.0
C743 C 0.45618 0.74068 0.75461 0.0
C744 C 0.40167 0.73682 0.77886 0.0
C745 C 0.39229 0.74854 0.75202 0.0
C746 C 0.41584 0.75708 0.7267 0.0
C747 C 0.44728 0.75282 0.72791 0.0
H748 H 0.69315 0.45708 0.86848 0.0
H749 H 0.71491 0.44011 0.96093 0.0
H750 H 0.63412 0.39742 0.8697 0.0
H751 H 0.65597 0.38089 0.96227 0.0
H752 H 0.58185 0.25693 0.93197 0.0
H753 H 0.63589 0.31975 0.93444 0.0
H754 H 0.56999 0.36464 0.89718 0.0
H755 H 0.51536 0.30198 0.89582 0.0
C756 C 0.6849 0.44091 0.8892 0.0
C757 C 0.70815 0.45343 0.91477 0.0
C758 C 0.65117 0.40696 0.88994 0.0
C759 C 0.64059 0.38467 0.91609 0.0
C760 C 0.66354 0.39759 0.94184 0.0
C761 C 0.697 0.43172 0.94121 0.0
C762 C 0.57871 0.28016 0.92448 0.0
C763 C 0.54447 0.27418 0.91285 0.0
C764 C 0.60966 0.31613 0.92598 0.0
C765 C 0.60709 0.34693 0.91582 0.0
C766 C 0.57278 0.34121 0.9047 0.0
C767 C 0.54162 0.3052 0.90355 0.0
H768 H 0.30138 0.29171 0.24609 0.0
H769 H 0.3875 0.28531 0.19534 0.0
H770 H 0.28212 0.31041 0.20034 0.0
H771 H 0.36839 0.30444 0.1497 0.0
H772 H 0.29724 0.30408 0.06853 0.0
H773 H 0.31501 0.28198 0.11349 0.0
H774 H 0.3089 0.36587 0.16746 0.0
H775 H 0.29092 0.38764 0.12308 0.0
C776 C 0.31624 0.29432 0.22523 0.0
C777 C 0.3461 0.28717 0.22446 0.0
C778 C 0.30528 0.30515 0.19903 0.0
C779 C 0.32383 0.30899 0.17146 0.0
C780 C 0.35333 0.30137 0.17055 0.0
C781 C 0.36443 0.29067 0.19678 0.0
C782 C 0.29971 0.31777 0.09 0.0
C783 C 0.29259 0.34758 0.09216 0.0
C784 C 0.31001 0.30522 0.11569 0.0
C785 C 0.31312 0.32208 0.14401 0.0
C786 C 0.30616 0.35192 0.14607 0.0
C787 C 0.29609 0.36455 0.1205 0.0
H788 H 0.0056 0.31057 0.4158 0.0
H789 H 0.09703 0.39767 0.36473 0.0
H790 H 0.96669 0.2917 0.3705 0.0
H791 H 0.0579 0.37894 0.3196 0.0
H792 H 0.9898 0.30495 0.23899 0.0
H793 H 0.02902 0.32541 0.28418 0.0
H794 H 0.93618 0.31565 0.3364 0.0
H795 H 0.89683 0.29485 0.29147 0.0
C796 C 0.01737 0.32582 0.39499 0.0
C797 C 0.05447 0.35561 0.39394 0.0
C798 C 0.99499 0.3151 0.36906 0.0
C799 C 0.00926 0.33382 0.34148 0.0
C800 C 0.04627 0.3637 0.34044 0.0
C801 C 0.06859 0.37455 0.36638 0.0
C802 C 0.97776 0.30725 0.26007 0.0
C803 C 0.94012 0.29815 0.26157 0.0
C804 C 0.00029 0.31915 0.28593 0.0
C805 C 0.98564 0.32203 0.31386 0.0
C806 C 0.94813 0.31324 0.3153 0.0
C807 C 0.92566 0.30152 0.28946 0.0
H808 H 0.58975 0.92827 0.44404 0.0
H809 H 0.70516 0.97623 0.41639 0.0
H810 H 0.60985 0.96742 0.48953 0.0
H811 H 0.72508 0.01448 0.46243 0.0
H812 H 0.73137 0.02845 0.5712 0.0
H813 H 0.71112 0.99034 0.52504 0.0
H814 H 0.65343 0.04757 0.49574 0.0
H815 H 0.67447 0.0865 0.5413 0.0
C816 C 0.61935 0.94718 0.44768 0.0
C817 C 0.64593 0.94934 0.42669 0.0
C818 C 0.63075 0.96949 0.47361 0.0
C819 C 0.66889 0.99358 0.47931 0.0
C820 C 0.69551 0.99586 0.45841 0.0
C821 C 0.68409 0.97422 0.43209 0.0
C822 C 0.71426 0.03277 0.55494 0.0
C823 C 0.70449 0.0604 0.55975 0.0
C824 C 0.70292 0.01118 0.52858 0.0
C825 C 0.6809 0.0163 0.50708 0.0
C826 C 0.67042 0.04327 0.51214 0.0
C827 C 0.68249 0.06547 0.5381 0.0
H828 H 0.6528 0.58888 0.61093 0.0
H829 H 0.72602 0.70287 0.58235 0.0
H830 H 0.6359 0.61139 0.65601 0.0
H831 H 0.70975 0.72536 0.62816 0.0
H832 H 0.70477 0.73309 0.73723 0.0
H833 H 0.72018 0.71374 0.68938 0.0
H834 H 0.60337 0.65484 0.66483 0.0
H835 H 0.58792 0.67476 0.71207 0.0
C836 C 0.66503 0.61874 0.61421 0.0
C837 C 0.6906 0.64419 0.59319 0.0
C838 C 0.65537 0.63153 0.63994 0.0
C839 C 0.67178 0.66999 0.64545 0.0
C840 C 0.69697 0.69555 0.62431 0.0
C841 C 0.70598 0.68272 0.5981 0.0
C842 C 0.68245 0.71599 0.72161 0.0
C843 C 0.64517 0.70535 0.72835 0.0
C844 C 0.69129 0.70526 0.69423 0.0
C845 C 0.66289 0.68306 0.67358 0.0
C846 C 0.62566 0.67205 0.68046 0.0
C847 C 0.61691 0.68344 0.70744 0.0
H848 H 0.09781 0.70634 0.79231 0.0
H849 H 0.00806 0.69966 0.73729 0.0
H850 H 0.057 0.68619 0.8362 0.0
H851 H 0.96726 0.67992 0.78164 0.0
H852 H 0.89583 0.6048 0.86041 0.0
H853 H 0.93598 0.62585 0.81595 0.0
H854 H 0.02636 0.70951 0.86999 0.0
H855 H 0.98643 0.68816 0.91467 0.0
C856 C 0.06939 0.70069 0.78954 0.0
C857 C 0.05623 0.70463 0.7612 0.0
C858 C 0.04607 0.68937 0.81482 0.0
C859 C 0.00898 0.68163 0.81244 0.0
C860 C 0.99566 0.68538 0.78412 0.0
C861 C 0.01907 0.69683 0.75875 0.0
C862 C 0.92427 0.62768 0.86288 0.0
C863 C 0.93794 0.6447 0.89119 0.0
C864 C 0.94718 0.6399 0.83731 0.0
C865 C 0.98431 0.66934 0.83944 0.0
C866 C 0.99797 0.68646 0.86769 0.0
C867 C 0.97504 0.67431 0.89328 0.0
H868 H 0.28457 0.89287 0.03296 0.0
H869 H 0.29448 0.98688 0.08376 0.0
H870 H 0.3046 0.9309 0.98738 0.0
H871 H 0.31424 0.02483 0.03784 0.0
H872 H 0.3916 0.09037 0.95858 0.0
H873 H 0.36957 0.05189 0.00384 0.0
H874 H 0.28233 0.96205 0.95179 0.0
H875 H 0.30451 0.00044 0.9062 0.0
C876 C 0.29088 0.92162 0.03442 0.0
C877 C 0.28803 0.93688 0.06208 0.0
C878 C 0.30212 0.9433 0.00821 0.0
C879 C 0.31098 0.9808 0.00906 0.0
C880 C 0.30793 0.99607 0.03661 0.0
C881 C 0.29645 0.9743 0.06286 0.0
C882 C 0.36776 0.06238 0.95666 0.0
C883 C 0.34983 0.04847 0.9287 0.0
C884 C 0.35498 0.04047 0.9827 0.0
C885 C 0.32413 0.00408 0.98138 0.0
C886 C 0.30635 0.98996 0.95342 0.0
C887 C 0.31901 0.01197 0.92734 0.0
H888 H 0.34029 0.52232 0.94617 0.0
H889 H 0.39929 0.46165 0.95695 0.0
H890 H 0.39415 0.57234 0.92008 0.0
H891 H 0.45404 0.51225 0.93172 0.0
H892 H 0.52987 0.59449 0.85737 0.0
H893 H 0.47789 0.54273 0.8843 0.0
H894 H 0.45523 0.62174 0.93019 0.0
H895 H 0.50614 0.67284 0.90223 0.0
C896 C 0.36495 0.51985 0.94287 0.0
C897 C 0.36577 0.48826 0.95329 0.0
C898 C 0.39596 0.54859 0.92822 0.0
C899 C 0.42872 0.54661 0.92407 0.0
C900 C 0.42922 0.51458 0.93423 0.0
C901 C 0.39795 0.48562 0.94865 0.0
C902 C 0.51399 0.60053 0.87365 0.0
C903 C 0.52185 0.63733 0.8781 0.0
C904 C 0.48428 0.57102 0.88907 0.0
C905 C 0.46205 0.57796 0.90923 0.0
C906 C 0.47114 0.61521 0.91436 0.0
C907 C 0.50053 0.64454 0.89872 0.0
H908 H 0.89812 0.49249 0.99691 0.0
H909 H 0.84621 0.51484 0.07236 0.0
H910 H 0.90068 0.44343 0.02597 0.0
H911 H 0.84749 0.46511 0.10136 0.0
H912 H 0.88482 0.3966 0.15548 0.0
H913 H 0.88779 0.44835 0.12654 0.0
H914 H 0.86074 0.38187 0.04499 0.0
H915 H 0.859 0.33067 0.07414 0.0
C916 C 0.88714 0.48664 0.01975 0.0
C917 C 0.87176 0.50699 0.03249 0.0
C918 C 0.88838 0.45848 0.03634 0.0
C919 C 0.87412 0.4501 0.066 0.0
C920 C 0.8592 0.47107 0.07877 0.0
C921 C 0.85821 0.49937 0.0622 0.0
C922 C 0.87964 0.39329 0.13134 0.0
C923 C 0.87147 0.3598 0.11694 0.0
C924 C 0.88112 0.42277 0.11476 0.0
C925 C 0.87423 0.41928 0.08341 0.0
C926 C 0.86665 0.38578 0.069 0.0
C927 C 0.86545 0.35639 0.08562 0.0
H928 H 0.52957 0.86865 0.24018 0.0
H929 H 0.50497 0.91217 0.32003 0.0
H930 H 0.4801 0.87223 0.21269 0.0
H931 H 0.45666 0.91766 0.29249 0.0
H932 H 0.34177 0.87308 0.24734 0.0
H933 H 0.3959 0.87827 0.27414 0.0
H934 H 0.45888 0.91001 0.19055 0.0
H935 H 0.40391 0.90304 0.16385 0.0
C936 C 0.51396 0.87974 0.25154 0.0
C937 C 0.52058 0.88988 0.28208 0.0
C938 C 0.48576 0.88202 0.23585 0.0
C939 C 0.46403 0.895 0.25039 0.0
C940 C 0.47214 0.90675 0.28072 0.0
C941 C 0.49997 0.90397 0.29644 0.0
C942 C 0.3674 0.88145 0.23493 0.0
C943 C 0.36883 0.88725 0.20366 0.0
C944 C 0.39852 0.88468 0.25022 0.0
C945 C 0.43188 0.89437 0.23452 0.0
C946 C 0.43352 0.90171 0.20329 0.0
C947 C 0.40223 0.89801 0.18801 0.0
H948 H 0.47164 0.40179 0.35073 0.0
H949 H 0.49178 0.32167 0.39672 0.0
H950 H 0.52308 0.45271 0.37878 0.0
H951 H 0.54226 0.37199 0.42574 0.0
H952 H 0.65602 0.471 0.4473 0.0
H953 H 0.60418 0.42182 0.41861 0.0
H954 H 0.54341 0.48142 0.42716 0.0
H955 H 0.59605 0.53106 0.45501 0.0
C956 C 0.48675 0.39521 0.36736 0.0
C957 C 0.47792 0.35812 0.3719 0.0
C958 C 0.51612 0.42422 0.38345 0.0
C959 C 0.53707 0.41656 0.40444 0.0
C960 C 0.52732 0.37908 0.40936 0.0
C961 C 0.4982 0.3502 0.39308 0.0
C962 C 0.63161 0.47354 0.44275 0.0
C963 C 0.62992 0.5047 0.4531 0.0
C964 C 0.60176 0.44529 0.42659 0.0
C965 C 0.56935 0.4474 0.42076 0.0
C966 C 0.56803 0.47902 0.43088 0.0
C967 C 0.59809 0.50744 0.44683 0.0
H968 H 0.17087 0.49495 0.56834 0.0
H969 H 0.07042 0.47545 0.52284 0.0
H970 H 0.1713 0.5452 0.59786 0.0
H971 H 0.07123 0.52662 0.55136 0.0
H972 H 0.06732 0.60143 0.62591 0.0
H973 H 0.06355 0.54755 0.59969 0.0
H974 H 0.18398 0.60722 0.59029 0.0
H975 H 0.18743 0.66039 0.61726 0.0
C976 C 0.14871 0.50137 0.56499 0.0
C977 C 0.12043 0.48141 0.54375 0.0
C978 C 0.14911 0.53035 0.58154 0.0
C979 C 0.12148 0.54028 0.57682 0.0
C980 C 0.09267 0.51951 0.5559 0.0
C981 C 0.09215 0.49028 0.53954 0.0
C982 C 0.09284 0.60294 0.61795 0.0
C983 C 0.12764 0.63496 0.62333 0.0
C984 C 0.09075 0.57215 0.60295 0.0
C985 C 0.12347 0.57289 0.59292 0.0
C986 C 0.15825 0.60528 0.59819 0.0
C987 C 0.1603 0.63587 0.61339 0.0
H988 H 0.66634 0.18277 0.71468 0.0
H989 H 0.60399 0.06424 0.69734 0.0
H990 H 0.61318 0.17859 0.74218 0.0
H991 H 0.54995 0.05984 0.72389 0.0
H992 H 0.47369 0.06154 0.79953 0.0
H993 H 0.5258 0.06295 0.77196 0.0
H994 H 0.55319 0.17005 0.7337 0.0
H995 H 0.50213 0.16893 0.76238 0.0
C996 C 0.6411 0.1558 0.71687 0.0
C997 C 0.63918 0.1238 0.70424 0.0
C998 C 0.61049 0.15337 0.73232 0.0
C999 C 0.57699 0.1189 0.73507 0.0
C1000 C 0.57536 0.08675 0.72259 0.0
C1001 C 0.60623 0.08919 0.70738 0.0
C1002 C 0.49072 0.08502 0.78485 0.0
C1003 C 0.48405 0.11501 0.78273 0.0
C1004 C 0.52051 0.0859 0.76903 0.0
C1005 C 0.54402 0.11677 0.75072 0.0
C1006 C 0.5363 0.14621 0.74806 0.0
C1007 C 0.50684 0.14546 0.76412 0.0
loop_
_geom_bond_atom_site_label_1
_geom_bond_atom_site_label_2
_geom_bond_distance
_geom_bond_site_symmetry_2
_ccdc_geom_bond_type
Co0 O3 1.970 . S
Co0 N17 1.989 1_554 S
Co0 O25 1.967 . S
Co0 O32 1.920 1_554 S
Co1 O4 1.966 . S
Co1 N10 2.022 . S
Co1 N18 1.993 . S
Co1 O26 1.941 . S
C2 O3 1.258 . S
C2 O4 1.263 . S
O3 Co0 1.970 . S
O3 C2 1.258 . S
O4 Co1 1.966 . S
O4 C2 1.263 . S
C5 O6 1.235 . S
C5 O32 1.289 . S
O6 C5 1.235 . S
C7 C9 1.400 . S
C7 N10 1.351 . S
C7 C12 1.501 . S
C8 C9 1.387 . S
C8 N11 1.341 . S
C9 C7 1.400 . S
C9 C8 1.387 . S
N10 Co1 2.022 . S
N10 C7 1.351 . S
N10 N11 1.365 . S
N11 C8 1.341 . S
N11 N10 1.365 . S
N11 H31 0.862 . S
C12 C7 1.501 . S
C12 H13 0.961 . S
C12 H14 0.961 . S
C12 H15 0.960 . S
H13 C12 0.961 . S
H14 C12 0.961 . S
H15 C12 0.960 . S
C16 N17 1.342 . S
C16 C20 1.401 . S
C16 C21 1.499 . S
N17 Co0 1.989 1_556 S
N17 C16 1.342 . S
N17 N18 1.388 1_556 S
N18 Co1 1.993 . S
N18 N17 1.388 1_554 S
N18 C19 1.346 1_554 S
C19 N18 1.346 1_556 S
C19 C20 1.396 . S
C19 C29 1.510 . S
C20 C16 1.401 . S
C20 C19 1.396 . S
C21 C16 1.499 . S
C21 H22 0.959 . S
C21 H23 0.960 . S
C21 H24 0.961 . S
H22 C21 0.959 . S
H23 C21 0.960 . S
H24 C21 0.961 . S
O25 Co0 1.967 . S
O25 C33 1.258 . S
O26 Co1 1.941 . S
O26 C33 1.266 . S
H27 C29 0.959 . S
H28 C29 0.961 . S
C29 C19 1.510 . S
C29 H27 0.959 . S
C29 H28 0.961 . S
C29 H30 0.960 1_556 S
H30 C29 0.960 1_554 S
H31 N11 0.862 . S
O32 Co0 1.920 1_556 S
O32 C5 1.289 . S
C33 O25 1.258 . S
C33 O26 1.266 . S
Co34 O37 1.970 . S
Co34 N51 1.989 . S
Co34 O59 1.967 . S
Co34 O66 1.920 . S
Co35 O38 1.966 . S
Co35 N44 2.022 . S
Co35 N52 1.993 . S
Co35 O60 1.941 . S
C36 O37 1.258 . S
C36 O38 1.263 . S
O37 Co34 1.970 . S
O37 C36 1.258 . S
O38 Co35 1.966 . S
O38 C36 1.263 . S
C39 O40 1.235 . S
C39 O66 1.289 . S
O40 C39 1.235 . S
C41 C43 1.400 . S
C41 N44 1.351 . S
C41 C46 1.501 . S
C42 C43 1.387 . S
C42 N45 1.341 . S
C43 C41 1.400 . S
C43 C42 1.387 . S
N44 Co35 2.022 . S
N44 C41 1.351 . S
N44 N45 1.365 . S
N45 C42 1.341 . S
N45 N44 1.365 . S
N45 H65 0.862 . S
C46 C41 1.501 . S
C46 H47 0.961 . S
C46 H48 0.961 . S
C46 H49 0.960 . S
H47 C46 0.961 . S
H48 C46 0.961 . S
H49 C46 0.960 . S
C50 N51 1.342 . S
C50 C54 1.401 . S
C50 C55 1.499 . S
N51 Co34 1.989 . S
N51 C50 1.342 . S
N51 N52 1.388 . S
N52 Co35 1.993 . S
N52 N51 1.388 . S
N52 C53 1.346 . S
C53 N52 1.346 . S
C53 C54 1.396 . S
C53 C63 1.510 . S
C54 C50 1.401 . S
C54 C53 1.396 . S
C55 C50 1.499 . S
C55 H56 0.959 . S
C55 H57 0.960 . S
C55 H58 0.961 . S
H56 C55 0.959 . S
H57 C55 0.960 . S
H58 C55 0.961 . S
O59 Co34 1.967 . S
O59 C67 1.258 . S
O60 Co35 1.941 . S
O60 C67 1.266 . S
H61 C63 0.959 . S
H62 C63 0.961 . S
C63 C53 1.510 . S
C63 H61 0.959 . S
C63 H62 0.961 . S
C63 H64 0.960 . S
H64 C63 0.960 . S
H65 N45 0.862 . S
O66 Co34 1.920 . S
O66 C39 1.289 . S
C67 O59 1.258 . S
C67 O60 1.266 . S
Co68 O71 1.970 . S
Co68 N85 1.989 . S
Co68 O93 1.967 . S
Co68 O100 1.920 . S
Co69 O72 1.966 . S
Co69 N78 2.022 . S
Co69 N86 1.993 . S
Co69 O94 1.941 . S
C70 O71 1.258 . S
C70 O72 1.263 . S
O71 Co68 1.970 . S
O71 C70 1.258 . S
O72 Co69 1.966 . S
O72 C70 1.263 . S
C73 O74 1.235 . S
C73 O100 1.289 . S
O74 C73 1.235 . S
C75 C77 1.400 . S
C75 N78 1.351 . S
C75 C80 1.501 . S
C76 C77 1.387 . S
C76 N79 1.341 . S
C77 C75 1.400 . S
C77 C76 1.387 . S
N78 Co69 2.022 . S
N78 C75 1.351 . S
N78 N79 1.365 . S
N79 C76 1.341 . S
N79 N78 1.365 . S
N79 H99 0.862 . S
C80 C75 1.501 . S
C80 H81 0.961 . S
C80 H82 0.961 . S
C80 H83 0.960 . S
H81 C80 0.961 . S
H82 C80 0.961 . S
H83 C80 0.960 . S
C84 N85 1.342 . S
C84 C88 1.401 . S
C84 C89 1.499 . S
N85 Co68 1.989 . S
N85 C84 1.342 . S
N85 N86 1.388 . S
N86 Co69 1.993 . S
N86 N85 1.388 . S
N86 C87 1.346 . S
C87 N86 1.346 . S
C87 C88 1.396 . S
C87 C97 1.510 . S
C88 C84 1.401 . S
C88 C87 1.396 . S
C89 C84 1.499 . S
C89 H90 0.959 . S
C89 H91 0.960 . S
C89 H92 0.961 . S
H90 C89 0.959 . S
H91 C89 0.960 . S
H92 C89 0.961 . S
O93 Co68 1.967 . S
O93 C101 1.258 . S
O94 Co69 1.941 . S
O94 C101 1.266 . S
H95 C97 0.959 . S
H96 C97 0.961 . S
C97 C87 1.510 . S
C97 H95 0.959 . S
C97 H96 0.961 . S
C97 H98 0.960 . S
H98 C97 0.960 . S
H99 N79 0.862 . S
O100 Co68 1.920 . S
O100 C73 1.289 . S
C101 O93 1.258 . S
C101 O94 1.266 . S
Co102 O105 1.970 . S
Co102 N119 1.989 . S
Co102 O127 1.967 . S
Co102 O134 1.920 . S
Co103 O106 1.966 . S
Co103 N112 2.022 . S
Co103 N120 1.993 . S
Co103 O128 1.941 . S
C104 O105 1.258 . S
C104 O106 1.263 . S
O105 Co102 1.970 . S
O105 C104 1.258 . S
O106 Co103 1.966 . S
O106 C104 1.263 . S
C107 O108 1.235 . S
C107 O134 1.289 . S
O108 C107 1.235 . S
C109 C111 1.400 . S
C109 N112 1.351 . S
C109 C114 1.501 . S
C110 C111 1.387 . S
C110 N113 1.341 . S
C111 C109 1.400 . S
C111 C110 1.387 . S
N112 Co103 2.022 . S
N112 C109 1.351 . S
N112 N113 1.365 . S
N113 C110 1.341 . S
N113 N112 1.365 . S
N113 H133 0.862 . S
C114 C109 1.501 . S
C114 H115 0.961 . S
C114 H116 0.961 . S
C114 H117 0.960 . S
H115 C114 0.961 . S
H116 C114 0.961 . S
H117 C114 0.960 . S
C118 N119 1.342 . S
C118 C122 1.401 . S
C118 C123 1.499 . S
N119 Co102 1.989 . S
N119 C118 1.342 . S
N119 N120 1.388 . S
N120 Co103 1.993 . S
N120 N119 1.388 . S
N120 C121 1.346 . S
C121 N120 1.346 . S
C121 C122 1.396 . S
C121 C131 1.510 . S
C122 C118 1.401 . S
C122 C121 1.396 . S
C123 C118 1.499 . S
C123 H124 0.959 . S
C123 H125 0.960 . S
C123 H126 0.961 . S
H124 C123 0.959 . S
H125 C123 0.960 . S
H126 C123 0.961 . S
O127 Co102 1.967 . S
O127 C135 1.258 . S
O128 Co103 1.941 . S
O128 C135 1.266 . S
H129 C131 0.959 . S
H130 C131 0.961 . S
C131 C121 1.510 . S
C131 H129 0.959 . S
C131 H130 0.961 . S
C131 H132 0.960 . S
H132 C131 0.960 . S
H133 N113 0.862 . S
O134 Co102 1.920 . S
O134 C107 1.289 . S
C135 O127 1.258 . S
C135 O128 1.266 . S
Co136 O139 1.970 . S
Co136 N153 1.989 . S
Co136 O161 1.967 . S
Co136 O168 1.920 . S
Co137 O140 1.966 . S
Co137 N146 2.022 . S
Co137 N154 1.993 . S
Co137 O162 1.941 . S
C138 O139 1.258 . S
C138 O140 1.263 . S
O139 Co136 1.970 . S
O139 C138 1.258 . S
O140 Co137 1.966 . S
O140 C138 1.263 . S
C141 O142 1.235 . S
C141 O168 1.289 . S
O142 C141 1.235 . S
C143 C145 1.400 . S
C143 N146 1.351 . S
C143 C148 1.501 . S
C144 C145 1.387 . S
C144 N147 1.341 . S
C145 C143 1.400 . S
C145 C144 1.387 . S
N146 Co137 2.022 . S
N146 C143 1.351 . S
N146 N147 1.365 . S
N147 C144 1.341 . S
N147 N146 1.365 . S
N147 H167 0.862 . S
C148 C143 1.501 . S
C148 H149 0.961 . S
C148 H150 0.961 . S
C148 H151 0.960 . S
H149 C148 0.961 . S
H150 C148 0.961 . S
H151 C148 0.960 . S
C152 N153 1.342 . S
C152 C156 1.401 . S
C152 C157 1.499 . S
N153 Co136 1.989 . S
N153 C152 1.342 . S
N153 N154 1.388 . S
N154 Co137 1.993 . S
N154 N153 1.388 . S
N154 C155 1.346 . S
C155 N154 1.346 . S
C155 C156 1.396 . S
C155 C165 1.510 . S
C156 C152 1.401 . S
C156 C155 1.396 . S
C157 C152 1.499 . S
C157 H158 0.959 . S
C157 H159 0.960 . S
C157 H160 0.961 . S
H158 C157 0.959 . S
H159 C157 0.960 . S
H160 C157 0.961 . S
O161 Co136 1.967 . S
O161 C169 1.258 . S
O162 Co137 1.941 . S
O162 C169 1.266 . S
H163 C165 0.959 . S
H164 C165 0.961 . S
C165 C155 1.510 . S
C165 H163 0.959 . S
C165 H164 0.961 . S
C165 H166 0.960 . S
H166 C165 0.960 . S
H167 N147 0.862 . S
O168 Co136 1.920 . S
O168 C141 1.289 . S
C169 O161 1.258 . S
C169 O162 1.266 . S
Co170 O173 1.970 . S
Co170 N187 1.989 . S
Co170 O195 1.967 . S
Co170 O202 1.920 . S
Co171 O174 1.966 . S
Co171 N180 2.022 . S
Co171 N188 1.993 . S
Co171 O196 1.941 . S
C172 O173 1.258 . S
C172 O174 1.263 . S
O173 Co170 1.970 . S
O173 C172 1.258 . S
O174 Co171 1.966 . S
O174 C172 1.263 . S
C175 O176 1.235 . S
C175 O202 1.289 . S
O176 C175 1.235 . S
C177 C179 1.400 . S
C177 N180 1.351 . S
C177 C182 1.501 . S
C178 C179 1.387 . S
C178 N181 1.341 . S
C179 C177 1.400 . S
C179 C178 1.387 . S
N180 Co171 2.022 . S
N180 C177 1.351 . S
N180 N181 1.365 . S
N181 C178 1.341 . S
N181 N180 1.365 . S
N181 H201 0.862 . S
C182 C177 1.501 . S
C182 H183 0.961 . S
C182 H184 0.961 . S
C182 H185 0.960 . S
H183 C182 0.961 . S
H184 C182 0.961 . S
H185 C182 0.960 . S
C186 N187 1.342 . S
C186 C190 1.401 . S
C186 C191 1.499 . S
N187 Co170 1.989 . S
N187 C186 1.342 . S
N187 N188 1.388 . S
N188 Co171 1.993 . S
N188 N187 1.388 . S
N188 C189 1.346 . S
C189 N188 1.346 . S
C189 C190 1.396 . S
C189 C199 1.510 . S
C190 C186 1.401 . S
C190 C189 1.396 . S
C191 C186 1.499 . S
C191 H192 0.959 . S
C191 H193 0.960 . S
C191 H194 0.961 . S
H192 C191 0.959 . S
H193 C191 0.960 . S
H194 C191 0.961 . S
O195 Co170 1.967 . S
O195 C203 1.258 . S
O196 Co171 1.941 . S
O196 C203 1.266 . S
H197 C199 0.959 . S
H198 C199 0.961 . S
C199 C189 1.510 . S
C199 H197 0.959 . S
C199 H198 0.961 . S
C199 H200 0.960 . S
H200 C199 0.960 . S
H201 N181 0.862 . S
O202 Co170 1.920 . S
O202 C175 1.289 . S
C203 O195 1.258 . S
C203 O196 1.266 . S
Co204 O207 1.970 . S
Co204 N221 1.989 . S
Co204 O229 1.967 . S
Co204 O236 1.920 . S
Co205 O208 1.966 . S
Co205 N214 2.022 . S
Co205 N222 1.993 . S
Co205 O230 1.941 . S
C206 O207 1.258 . S
C206 O208 1.263 . S
O207 Co204 1.970 . S
O207 C206 1.258 . S
O208 Co205 1.966 . S
O208 C206 1.263 . S
C209 O210 1.235 . S
C209 O236 1.289 . S
O210 C209 1.235 . S
C211 C213 1.400 . S
C211 N214 1.351 . S
C211 C216 1.501 . S
C212 C213 1.387 . S
C212 N215 1.341 . S
C213 C211 1.400 . S
C213 C212 1.387 . S
N214 Co205 2.022 . S
N214 C211 1.351 . S
N214 N215 1.365 . S
N215 C212 1.341 . S
N215 N214 1.365 . S
N215 H235 0.862 . S
C216 C211 1.501 . S
C216 H217 0.961 . S
C216 H218 0.961 . S
C216 H219 0.960 . S
H217 C216 0.961 . S
H218 C216 0.961 . S
H219 C216 0.960 . S
C220 N221 1.342 . S
C220 C224 1.401 . S
C220 C225 1.499 . S
N221 Co204 1.989 . S
N221 C220 1.342 . S
N221 N222 1.388 . S
N222 Co205 1.993 . S
N222 N221 1.388 . S
N222 C223 1.346 . S
C223 N222 1.346 . S
C223 C224 1.396 . S
C223 C233 1.510 . S
C224 C220 1.401 . S
C224 C223 1.396 . S
C225 C220 1.499 . S
C225 H226 0.959 . S
C225 H227 0.960 . S
C225 H228 0.961 . S
H226 C225 0.959 . S
H227 C225 0.960 . S
H228 C225 0.961 . S
O229 Co204 1.967 . S
O229 C237 1.258 . S
O230 Co205 1.941 . S
O230 C237 1.266 . S
H231 C233 0.959 . S
H232 C233 0.961 . S
C233 C223 1.510 . S
C233 H231 0.959 . S
C233 H232 0.961 . S
C233 H234 0.960 . S
H234 C233 0.960 . S
H235 N215 0.862 . S
O236 Co204 1.920 . S
O236 C209 1.289 . S
C237 O229 1.258 . S
C237 O230 1.266 . S
Co238 O241 1.970 . S
Co238 N255 1.989 1_556 S
Co238 O263 1.967 . S
Co238 O270 1.920 1_556 S
Co239 O242 1.966 . S
Co239 N248 2.022 . S
Co239 N256 1.993 . S
Co239 O264 1.941 . S
C240 O241 1.258 . S
C240 O242 1.263 . S
O241 Co238 1.970 . S
O241 C240 1.258 . S
O242 Co239 1.966 . S
O242 C240 1.263 . S
C243 O244 1.235 . S
C243 O270 1.289 . S
O244 C243 1.235 . S
C245 C247 1.400 . S
C245 N248 1.351 . S
C245 C250 1.501 . S
C246 C247 1.387 . S
C246 N249 1.341 . S
C247 C245 1.400 . S
C247 C246 1.387 . S
N248 Co239 2.022 . S
N248 C245 1.351 . S
N248 N249 1.365 . S
N249 C246 1.341 . S
N249 N248 1.365 . S
N249 H269 0.862 . S
C250 C245 1.501 . S
C250 H251 0.961 . S
C250 H252 0.961 . S
C250 H253 0.960 . S
H251 C250 0.961 . S
H252 C250 0.961 . S
H253 C250 0.960 . S
C254 N255 1.342 . S
C254 C258 1.401 . S
C254 C259 1.499 . S
N255 Co238 1.989 1_554 S
N255 C254 1.342 . S
N255 N256 1.388 1_554 S
N256 Co239 1.993 . S
N256 N255 1.388 1_556 S
N256 C257 1.346 1_556 S
C257 N256 1.346 1_554 S
C257 C258 1.396 . S
C257 C267 1.510 1_554 S
C258 C254 1.401 . S
C258 C257 1.396 . S
C259 C254 1.499 . S
C259 H260 0.959 . S
C259 H261 0.960 . S
C259 H262 0.961 . S
H260 C259 0.959 . S
H261 C259 0.960 . S
H262 C259 0.961 . S
O263 Co238 1.967 . S
O263 C271 1.258 . S
O264 Co239 1.941 . S
O264 C271 1.266 . S
H265 C267 0.959 . S
H266 C267 0.961 1_554 S
C267 C257 1.510 1_556 S
C267 H265 0.959 . S
C267 H266 0.961 1_556 S
C267 H268 0.960 . S
H268 C267 0.960 . S
H269 N249 0.862 . S
O270 Co238 1.920 1_554 S
O270 C243 1.289 . S
C271 O263 1.258 . S
C271 O264 1.266 . S
Co272 O275 1.970 . S
Co272 N289 1.989 . S
Co272 O297 1.967 . S
Co272 O304 1.920 . S
Co273 O276 1.966 . S
Co273 N282 2.022 . S
Co273 N290 1.993 . S
Co273 O298 1.941 . S
C274 O275 1.258 . S
C274 O276 1.263 . S
O275 Co272 1.970 . S
O275 C274 1.258 . S
O276 Co273 1.966 . S
O276 C274 1.263 . S
C277 O278 1.235 . S
C277 O304 1.289 . S
O278 C277 1.235 . S
C279 C281 1.400 . S
C279 N282 1.351 . S
C279 C284 1.501 . S
C280 C281 1.387 . S
C280 N283 1.341 . S
C281 C279 1.400 . S
C281 C280 1.387 . S
N282 Co273 2.022 . S
N282 C279 1.351 . S
N282 N283 1.365 . S
N283 C280 1.341 . S
N283 N282 1.365 . S
N283 H303 0.862 . S
C284 C279 1.501 . S
C284 H285 0.961 . S
C284 H286 0.961 . S
C284 H287 0.960 . S
H285 C284 0.961 . S
H286 C284 0.961 . S
H287 C284 0.960 . S
C288 N289 1.342 . S
C288 C292 1.401 . S
C288 C293 1.499 . S
N289 Co272 1.989 . S
N289 C288 1.342 . S
N289 N290 1.388 . S
N290 Co273 1.993 . S
N290 N289 1.388 . S
N290 C291 1.346 . S
C291 N290 1.346 . S
C291 C292 1.396 . S
C291 C301 1.510 . S
C292 C288 1.401 . S
C292 C291 1.396 . S
C293 C288 1.499 . S
C293 H294 0.959 . S
C293 H295 0.960 . S
C293 H296 0.961 . S
H294 C293 0.959 . S
H295 C293 0.960 . S
H296 C293 0.961 . S
O297 Co272 1.967 . S
O297 C305 1.258 . S
O298 Co273 1.941 . S
O298 C305 1.266 . S
H299 C301 0.959 . S
H300 C301 0.961 . S
C301 C291 1.510 . S
C301 H299 0.959 . S
C301 H300 0.961 . S
C301 H302 0.960 . S
H302 C301 0.960 . S
H303 N283 0.862 . S
O304 Co272 1.920 . S
O304 C277 1.289 . S
C305 O297 1.258 . S
C305 O298 1.266 . S
Co306 O309 1.970 . S
Co306 N323 1.989 . S
Co306 O331 1.967 . S
Co306 O338 1.920 . S
Co307 O310 1.966 . S
Co307 N316 2.022 . S
Co307 N324 1.993 . S
Co307 O332 1.941 . S
C308 O309 1.258 . S
C308 O310 1.263 . S
O309 Co306 1.970 . S
O309 C308 1.258 . S
O310 Co307 1.966 . S
O310 C308 1.263 . S
C311 O312 1.235 . S
C311 O338 1.289 . S
O312 C311 1.235 . S
C313 C315 1.400 . S
C313 N316 1.351 . S
C313 C318 1.501 . S
C314 C315 1.387 . S
C314 N317 1.341 . S
C315 C313 1.400 . S
C315 C314 1.387 . S
N316 Co307 2.022 . S
N316 C313 1.351 . S
N316 N317 1.365 . S
N317 C314 1.341 . S
N317 N316 1.365 . S
N317 H337 0.862 . S
C318 C313 1.501 . S
C318 H319 0.961 . S
C318 H320 0.961 . S
C318 H321 0.960 . S
H319 C318 0.961 . S
H320 C318 0.961 . S
H321 C318 0.960 . S
C322 N323 1.342 . S
C322 C326 1.401 . S
C322 C327 1.499 . S
N323 Co306 1.989 . S
N323 C322 1.342 . S
N323 N324 1.388 . S
N324 Co307 1.993 . S
N324 N323 1.388 . S
N324 C325 1.346 . S
C325 N324 1.346 . S
C325 C326 1.396 . S
C325 C335 1.510 . S
C326 C322 1.401 . S
C326 C325 1.396 . S
C327 C322 1.499 . S
C327 H328 0.959 . S
C327 H329 0.960 . S
C327 H330 0.961 . S
H328 C327 0.959 . S
H329 C327 0.960 . S
H330 C327 0.961 . S
O331 Co306 1.967 . S
O331 C339 1.258 . S
O332 Co307 1.941 . S
O332 C339 1.266 . S
H333 C335 0.959 . S
H334 C335 0.961 . S
C335 C325 1.510 . S
C335 H333 0.959 . S
C335 H334 0.961 . S
C335 H336 0.960 . S
H336 C335 0.960 . S
H337 N317 0.862 . S
O338 Co306 1.920 . S
O338 C311 1.289 . S
C339 O331 1.258 . S
C339 O332 1.266 . S
Co340 O343 1.970 . S
Co340 N357 1.989 . S
Co340 O365 1.967 . S
Co340 O372 1.920 . S
Co341 O344 1.966 . S
Co341 N350 2.022 . S
Co341 N358 1.993 . S
Co341 O366 1.941 . S
C342 O343 1.258 . S
C342 O344 1.263 . S
O343 Co340 1.970 . S
O343 C342 1.258 . S
O344 Co341 1.966 . S
O344 C342 1.263 . S
C345 O346 1.235 . S
C345 O372 1.289 . S
O346 C345 1.235 . S
C347 C349 1.400 . S
C347 N350 1.351 . S
C347 C352 1.501 . S
C348 C349 1.387 . S
C348 N351 1.341 . S
C349 C347 1.400 . S
C349 C348 1.387 . S
N350 Co341 2.022 . S
N350 C347 1.351 . S
N350 N351 1.365 . S
N351 C348 1.341 . S
N351 N350 1.365 . S
N351 H371 0.862 . S
C352 C347 1.501 . S
C352 H353 0.961 . S
C352 H354 0.961 . S
C352 H355 0.960 . S
H353 C352 0.961 . S
H354 C352 0.961 . S
H355 C352 0.960 . S
C356 N357 1.342 . S
C356 C360 1.401 . S
C356 C361 1.499 . S
N357 Co340 1.989 . S
N357 C356 1.342 . S
N357 N358 1.388 . S
N358 Co341 1.993 . S
N358 N357 1.388 . S
N358 C359 1.346 . S
C359 N358 1.346 . S
C359 C360 1.396 . S
C359 C369 1.510 . S
C360 C356 1.401 . S
C360 C359 1.396 . S
C361 C356 1.499 . S
C361 H362 0.959 . S
C361 H363 0.960 . S
C361 H364 0.961 . S
H362 C361 0.959 . S
H363 C361 0.960 . S
H364 C361 0.961 . S
O365 Co340 1.967 . S
O365 C373 1.258 . S
O366 Co341 1.941 . S
O366 C373 1.266 . S
H367 C369 0.959 . S
H368 C369 0.961 . S
C369 C359 1.510 . S
C369 H367 0.959 . S
C369 H368 0.961 . S
C369 H370 0.960 . S
H370 C369 0.960 . S
H371 N351 0.862 . S
O372 Co340 1.920 . S
O372 C345 1.289 . S
C373 O365 1.258 . S
C373 O366 1.266 . S
Co374 O377 1.970 . S
Co374 N391 1.989 . S
Co374 O399 1.967 . S
Co374 O406 1.920 . S
Co375 O378 1.966 . S
Co375 N384 2.022 . S
Co375 N392 1.993 . S
Co375 O400 1.941 . S
C376 O377 1.258 . S
C376 O378 1.263 . S
O377 Co374 1.970 . S
O377 C376 1.258 . S
O378 Co375 1.966 . S
O378 C376 1.263 . S
C379 O380 1.235 . S
C379 O406 1.289 . S
O380 C379 1.235 . S
C381 C383 1.400 . S
C381 N384 1.351 . S
C381 C386 1.501 . S
C382 C383 1.387 . S
C382 N385 1.341 . S
C383 C381 1.400 . S
C383 C382 1.387 . S
N384 Co375 2.022 . S
N384 C381 1.351 . S
N384 N385 1.365 . S
N385 C382 1.341 . S
N385 N384 1.365 . S
N385 H405 0.862 . S
C386 C381 1.501 . S
C386 H387 0.961 . S
C386 H388 0.961 . S
C386 H389 0.960 . S
H387 C386 0.961 . S
H388 C386 0.961 . S
H389 C386 0.960 . S
C390 N391 1.342 . S
C390 C394 1.401 . S
C390 C395 1.499 . S
N391 Co374 1.989 . S
N391 C390 1.342 . S
N391 N392 1.388 . S
N392 Co375 1.993 . S
N392 N391 1.388 . S
N392 C393 1.346 . S
C393 N392 1.346 . S
C393 C394 1.396 . S
C393 C403 1.510 . S
C394 C390 1.401 . S
C394 C393 1.396 . S
C395 C390 1.499 . S
C395 H396 0.959 . S
C395 H397 0.960 . S
C395 H398 0.961 . S
H396 C395 0.959 . S
H397 C395 0.960 . S
H398 C395 0.961 . S
O399 Co374 1.967 . S
O399 C407 1.258 . S
O400 Co375 1.941 . S
O400 C407 1.266 . S
H401 C403 0.959 . S
H402 C403 0.961 . S
C403 C393 1.510 . S
C403 H401 0.959 . S
C403 H402 0.961 . S
C403 H404 0.960 . S
H404 C403 0.960 . S
H405 N385 0.862 . S
O406 Co374 1.920 . S
O406 C379 1.289 . S
C407 O399 1.258 . S
C407 O400 1.266 . S
H408 C416 0.950 . S
H409 C421 0.950 . S
H410 C418 0.950 . S
H411 C420 0.950 . S
H412 C422 0.950 . S
H413 C424 0.950 . S
H414 C426 0.950 . S
H415 C427 0.950 . S
C416 H408 0.950 . S
C416 C417 1.386 . S
C416 C418 1.391 . S
C417 C416 1.386 . S
C417 C421 1.393 . S
C418 H410 0.950 . S
C418 C416 1.391 . S
C418 C419 1.400 . S
C419 C418 1.400 . S
C419 C420 1.398 . S
C419 C425 1.491 . S
C420 H411 0.950 . S
C420 C419 1.398 . S
C420 C421 1.391 . S
C421 H409 0.950 . S
C421 C417 1.393 . S
C421 C420 1.391 . S
C422 H412 0.950 . S
C422 C423 1.386 . S
C422 C424 1.391 . S
C423 C422 1.386 . S
C423 C427 1.393 . S
C424 H413 0.950 . S
C424 C422 1.391 . S
C424 C425 1.400 . S
C425 C419 1.491 . S
C425 C424 1.400 . S
C425 C426 1.398 . S
C426 H414 0.950 . S
C426 C425 1.398 . S
C426 C427 1.391 . S
C427 H415 0.950 . S
C427 C423 1.393 . S
C427 C426 1.391 . S
H428 C436 0.950 . S
H429 C441 0.950 . S
H430 C438 0.950 . S
H431 C440 0.950 . S
H432 C442 0.959 . S
H433 C444 0.950 . S
H434 C446 0.950 . S
H435 C447 0.949 . S
C436 H428 0.950 . S
C436 C437 1.386 . S
C436 C438 1.391 . S
C437 C436 1.386 . S
C437 C441 1.393 . S
C438 H430 0.950 . S
C438 C436 1.391 . S
C438 C439 1.400 . S
C439 C438 1.400 . S
C439 C440 1.398 . S
C439 C445 1.491 . S
C440 H431 0.950 . S
C440 C439 1.398 . S
C440 C441 1.391 . S
C441 H429 0.950 . S
C441 C437 1.393 . S
C441 C440 1.391 . S
C442 H432 0.959 . S
C442 C443 1.385 . S
C442 C444 1.382 1_655 S
C443 C442 1.385 . S
C443 C447 1.418 . S
C444 H433 0.950 . S
C444 C442 1.382 1_455 S
C444 C445 1.400 . S
C445 C439 1.491 . S
C445 C444 1.400 . S
C445 C446 1.398 . S
C446 H434 0.950 . S
C446 C445 1.398 . S
C446 C447 1.367 1_455 S
C447 H435 0.949 . S
C447 C443 1.418 . S
C447 C446 1.367 1_655 S
H448 C456 0.950 . S
H449 C461 0.950 . S
H450 C458 0.950 . S
H451 C460 0.950 . S
H452 C462 0.950 . S
H453 C464 0.950 . S
H454 C466 0.950 . S
H455 C467 0.950 . S
C456 H448 0.950 . S
C456 C457 1.386 . S
C456 C458 1.391 . S
C457 C456 1.386 . S
C457 C461 1.393 . S
C458 H450 0.950 . S
C458 C456 1.391 . S
C458 C459 1.400 . S
C459 C458 1.400 . S
C459 C460 1.398 . S
C459 C465 1.491 . S
C460 H451 0.950 . S
C460 C459 1.398 . S
C460 C461 1.391 . S
C461 H449 0.950 . S
C461 C457 1.393 . S
C461 C460 1.391 . S
C462 H452 0.950 . S
C462 C463 1.386 1_545 S
C462 C464 1.391 . S
C463 C462 1.386 1_565 S
C463 C467 1.393 . S
C464 H453 0.950 . S
C464 C462 1.391 . S
C464 C465 1.400 . S
C465 C459 1.491 . S
C465 C464 1.400 . S
C465 C466 1.398 . S
C466 H454 0.950 . S
C466 C465 1.398 . S
C466 C467 1.391 1_545 S
C467 H455 0.950 . S
C467 C463 1.393 . S
C467 C466 1.391 1_565 S
H468 C476 0.950 . S
H469 C481 0.950 . S
H470 C478 0.950 . S
H471 C480 0.950 . S
H472 C482 0.950 . S
H473 C484 0.950 . S
H474 C486 0.950 . S
H475 C487 0.950 . S
C476 H468 0.950 . S
C476 C477 1.386 . S
C476 C478 1.391 . S
C477 C476 1.386 . S
C477 C481 1.393 . S
C478 H470 0.950 . S
C478 C476 1.391 . S
C478 C479 1.400 . S
C479 C478 1.400 . S
C479 C480 1.398 . S
C479 C485 1.491 . S
C480 H471 0.950 . S
C480 C479 1.398 . S
C480 C481 1.391 . S
C481 H469 0.950 . S
C481 C477 1.393 . S
C481 C480 1.391 . S
C482 H472 0.950 . S
C482 C483 1.386 . S
C482 C484 1.391 . S
C483 C482 1.386 . S
C483 C487 1.393 . S
C484 H473 0.950 . S
C484 C482 1.391 . S
C484 C485 1.400 . S
C485 C479 1.491 . S
C485 C484 1.400 . S
C485 C486 1.398 . S
C486 H474 0.950 . S
C486 C485 1.398 . S
C486 C487 1.391 . S
C487 H475 0.950 . S
C487 C483 1.393 . S
C487 C486 1.391 . S
H488 C496 0.950 . S
H489 C501 0.950 1_455 S
H490 C498 0.950 . S
H491 C500 0.950 . S
H492 C502 0.950 . S
H493 C504 0.950 . S
H494 C506 0.950 . S
H495 C507 0.950 . S
C496 H488 0.950 . S
C496 C497 1.386 . S
C496 C498 1.391 1_455 S
C497 C496 1.386 . S
C497 C501 1.393 1_455 S
C498 H490 0.950 . S
C498 C496 1.391 1_655 S
C498 C499 1.400 . S
C499 C498 1.400 . S
C499 C500 1.398 . S
C499 C505 1.491 . S
C500 H491 0.950 . S
C500 C499 1.398 . S
C500 C501 1.391 . S
C501 H489 0.950 1_655 S
C501 C497 1.393 1_655 S
C501 C500 1.391 . S
C502 H492 0.950 . S
C502 C503 1.386 . S
C502 C504 1.391 . S
C503 C502 1.386 . S
C503 C507 1.393 . S
C504 H493 0.950 . S
C504 C502 1.391 . S
C504 C505 1.400 . S
C505 C499 1.491 . S
C505 C504 1.400 . S
C505 C506 1.398 . S
C506 H494 0.950 . S
C506 C505 1.398 . S
C506 C507 1.391 . S
C507 H495 0.950 . S
C507 C503 1.393 . S
C507 C506 1.391 . S
H508 C516 0.950 . S
H509 C521 0.950 . S
H510 C518 0.950 . S
H511 C520 0.950 . S
H512 C522 0.950 . S
H513 C524 0.950 . S
H514 C526 0.950 . S
H515 C527 0.950 . S
C516 H508 0.950 . S
C516 C517 1.386 . S
C516 C518 1.391 . S
C517 C516 1.386 . S
C517 C521 1.393 . S
C518 H510 0.950 . S
C518 C516 1.391 . S
C518 C519 1.400 . S
C519 C518 1.400 . S
C519 C520 1.398 . S
C519 C525 1.491 . S
C520 H511 0.950 . S
C520 C519 1.398 . S
C520 C521 1.391 . S
C521 H509 0.950 . S
C521 C517 1.393 . S
C521 C520 1.391 . S
C522 H512 0.950 . S
C522 C523 1.386 . S
C522 C524 1.391 1_545 S
C523 C522 1.386 . S
C523 C527 1.393 1_545 S
C524 H513 0.950 . S
C524 C522 1.391 1_565 S
C524 C525 1.400 . S
C525 C519 1.491 . S
C525 C524 1.400 . S
C525 C526 1.398 . S
C526 H514 0.950 . S
C526 C525 1.398 . S
C526 C527 1.391 . S
C527 H515 0.950 . S
C527 C523 1.393 1_565 S
C527 C526 1.391 . S
H528 C536 0.950 . S
H529 C541 0.950 . S
H530 C538 0.950 . S
H531 C540 0.950 . S
H532 C542 0.950 . S
H533 C544 0.950 . S
H534 C546 0.950 . S
H535 C547 0.950 . S
C536 H528 0.950 . S
C536 C537 1.386 . S
C536 C538 1.391 . S
C537 C536 1.386 . S
C537 C541 1.393 . S
C538 H530 0.950 . S
C538 C536 1.391 . S
C538 C539 1.400 . S
C539 C538 1.400 . S
C539 C540 1.398 . S
C539 C545 1.491 . S
C540 H531 0.950 . S
C540 C539 1.398 . S
C540 C541 1.391 . S
C541 H529 0.950 . S
C541 C537 1.393 . S
C541 C540 1.391 . S
C542 H532 0.950 . S
C542 C543 1.386 . S
C542 C544 1.391 . S
C543 C542 1.386 . S
C543 C547 1.393 . S
C544 H533 0.950 . S
C544 C542 1.391 . S
C544 C545 1.400 . S
C545 C539 1.491 . S
C545 C544 1.400 . S
C545 C546 1.398 . S
C546 H534 0.950 . S
C546 C545 1.398 . S
C546 C547 1.391 . S
C547 H535 0.950 . S
C547 C543 1.393 . S
C547 C546 1.391 . S
H548 C556 0.950 . S
H549 C561 0.950 . S
H550 C558 0.950 . S
H551 C560 0.950 . S
H552 C562 0.950 1_655 S
H553 C564 0.950 . S
H554 C566 0.950 . S
H555 C567 0.950 . S
C556 H548 0.950 . S
C556 C557 1.386 . S
C556 C558 1.391 . S
C557 C556 1.386 . S
C557 C561 1.393 . S
C558 H550 0.950 . S
C558 C556 1.391 . S
C558 C559 1.400 . S
C559 C558 1.400 . S
C559 C560 1.398 . S
C559 C565 1.491 . S
C560 H551 0.950 . S
C560 C559 1.398 . S
C560 C561 1.391 . S
C561 H549 0.950 . S
C561 C557 1.393 . S
C561 C560 1.391 . S
C562 H552 0.950 1_455 S
C562 C563 1.386 1_455 S
C562 C564 1.391 . S
C563 C562 1.386 1_655 S
C563 C567 1.393 . S
C564 H553 0.950 . S
C564 C562 1.391 . S
C564 C565 1.400 . S
C565 C559 1.491 . S
C565 C564 1.400 . S
C565 C566 1.398 . S
C566 H554 0.950 . S
C566 C565 1.398 . S
C566 C567 1.391 1_455 S
C567 H555 0.950 . S
C567 C563 1.393 . S
C567 C566 1.391 1_655 S
H568 C576 0.950 . S
H569 C581 0.950 . S
H570 C578 0.950 . S
H571 C580 0.950 . S
H572 C582 0.950 . S
H573 C584 0.950 . S
H574 C586 0.950 . S
H575 C587 0.950 . S
C576 H568 0.950 . S
C576 C577 1.386 . S
C576 C578 1.391 . S
C577 C576 1.386 . S
C577 C581 1.393 . S
C578 H570 0.950 . S
C578 C576 1.391 . S
C578 C579 1.400 . S
C579 C578 1.400 . S
C579 C580 1.398 . S
C579 C585 1.491 . S
C580 H571 0.950 . S
C580 C579 1.398 . S
C580 C581 1.391 . S
C581 H569 0.950 . S
C581 C577 1.393 . S
C581 C580 1.391 . S
C582 H572 0.950 . S
C582 C583 1.386 . S
C582 C584 1.391 1_565 S
C583 C582 1.386 . S
C583 C587 1.393 1_565 S
C584 H573 0.950 . S
C584 C582 1.391 1_545 S
C584 C585 1.400 . S
C585 C579 1.491 . S
C585 C584 1.400 . S
C585 C586 1.398 . S
C586 H574 0.950 . S
C586 C585 1.398 . S
C586 C587 1.391 . S
C587 H575 0.950 . S
C587 C583 1.393 1_545 S
C587 C586 1.391 . S
H588 C596 0.950 . S
H589 C601 0.950 . S
H590 C598 0.950 . S
H591 C600 0.950 . S
H592 C602 0.950 . S
H593 C604 0.950 . S
H594 C606 0.950 . S
H595 C607 0.950 . S
C596 H588 0.950 . S
C596 C597 1.386 . S
C596 C598 1.391 . S
C597 C596 1.386 . S
C597 C601 1.393 . S
C598 H590 0.950 . S
C598 C596 1.391 . S
C598 C599 1.400 . S
C599 C598 1.400 . S
C599 C600 1.398 . S
C599 C605 1.491 . S
C600 H591 0.950 . S
C600 C599 1.398 . S
C600 C601 1.391 . S
C601 H589 0.950 . S
C601 C597 1.393 . S
C601 C600 1.391 . S
C602 H592 0.950 . S
C602 C603 1.386 . S
C602 C604 1.391 . S
C603 C602 1.386 . S
C603 C607 1.393 . S
C604 H593 0.950 . S
C604 C602 1.391 . S
C604 C605 1.400 . S
C605 C599 1.491 . S
C605 C604 1.400 . S
C605 C606 1.398 . S
C606 H594 0.950 . S
C606 C605 1.398 . S
C606 C607 1.391 . S
C607 H595 0.950 . S
C607 C603 1.393 . S
C607 C606 1.391 . S
H608 C616 0.950 . S
H609 C621 0.950 . S
H610 C618 0.950 . S
H611 C620 0.950 . S
H612 C622 0.950 . S
H613 C624 0.950 . S
H614 C626 0.950 . S
H615 C627 0.950 . S
C616 H608 0.950 . S
C616 C617 1.386 . S
C616 C618 1.391 . S
C617 C616 1.386 . S
C617 C621 1.393 . S
C618 H610 0.950 . S
C618 C616 1.391 . S
C618 C619 1.400 . S
C619 C618 1.400 . S
C619 C620 1.398 . S
C619 C625 1.491 . S
C620 H611 0.950 . S
C620 C619 1.398 . S
C620 C621 1.391 . S
C621 H609 0.950 . S
C621 C617 1.393 . S
C621 C620 1.391 . S
C622 H612 0.950 . S
C622 C623 1.386 . S
C622 C624 1.391 1_455 S
C623 C622 1.386 . S
C623 C627 1.393 1_455 S
C624 H613 0.950 . S
C624 C622 1.391 1_655 S
C624 C625 1.400 . S
C625 C619 1.491 . S
C625 C624 1.400 . S
C625 C626 1.398 . S
C626 H614 0.950 . S
C626 C625 1.398 . S
C626 C627 1.391 . S
C627 H615 0.950 . S
C627 C623 1.393 1_655 S
C627 C626 1.391 . S
H628 C636 0.950 . S
H629 C641 0.950 . S
H630 C638 0.950 . S
H631 C640 0.950 . S
H632 C642 0.950 . S
H633 C644 0.950 . S
H634 C646 0.950 . S
H635 C647 0.950 . S
C636 H628 0.950 . S
C636 C637 1.386 . S
C636 C638 1.391 . S
C637 C636 1.386 . S
C637 C641 1.393 . S
C638 H630 0.950 . S
C638 C636 1.391 . S
C638 C639 1.400 . S
C639 C638 1.400 . S
C639 C640 1.398 . S
C639 C645 1.491 . S
C640 H631 0.950 . S
C640 C639 1.398 . S
C640 C641 1.391 . S
C641 H629 0.950 . S
C641 C637 1.393 . S
C641 C640 1.391 . S
C642 H632 0.950 . S
C642 C643 1.386 . S
C642 C644 1.391 1_545 S
C643 C642 1.386 . S
C643 C647 1.393 1_545 S
C644 H633 0.950 . S
C644 C642 1.391 1_565 S
C644 C645 1.400 . S
C645 C639 1.491 . S
C645 C644 1.400 . S
C645 C646 1.398 . S
C646 H634 0.950 . S
C646 C645 1.398 . S
C646 C647 1.391 . S
C647 H635 0.950 . S
C647 C643 1.393 1_565 S
C647 C646 1.391 . S
H648 C656 0.950 . S
H649 C661 0.950 . S
H650 C658 0.950 . S
H651 C660 0.950 . S
H652 C662 0.950 . S
H653 C664 0.950 . S
H654 C666 0.950 . S
H655 C667 0.950 . S
C656 H648 0.950 . S
C656 C657 1.386 . S
C656 C658 1.391 . S
C657 C656 1.386 . S
C657 C661 1.393 . S
C658 H650 0.950 . S
C658 C656 1.391 . S
C658 C659 1.400 . S
C659 C658 1.400 . S
C659 C660 1.398 . S
C659 C665 1.491 . S
C660 H651 0.950 . S
C660 C659 1.398 . S
C660 C661 1.391 . S
C661 H649 0.950 . S
C661 C657 1.393 . S
C661 C660 1.391 . S
C662 H652 0.950 . S
C662 C663 1.386 . S
C662 C664 1.391 . S
C663 C662 1.386 . S
C663 C667 1.393 . S
C664 H653 0.950 . S
C664 C662 1.391 . S
C664 C665 1.400 . S
C665 C659 1.491 . S
C665 C664 1.400 . S
C665 C666 1.398 . S
C666 H654 0.950 . S
C666 C665 1.398 . S
C666 C667 1.391 . S
C667 H655 0.950 . S
C667 C663 1.393 . S
C667 C666 1.391 . S
H668 C676 0.950 . S
H669 C681 0.950 . S
H670 C678 0.950 . S
H671 C680 0.950 . S
H672 C682 0.950 . S
H673 C684 0.950 . S
H674 C686 0.950 . S
H675 C687 0.950 . S
C676 H668 0.950 . S
C676 C677 1.386 . S
C676 C678 1.391 . S
C677 C676 1.386 . S
C677 C681 1.393 . S
C678 H670 0.950 . S
C678 C676 1.391 . S
C678 C679 1.400 . S
C679 C678 1.400 . S
C679 C680 1.398 . S
C679 C685 1.491 . S
C680 H671 0.950 . S
C680 C679 1.398 . S
C680 C681 1.391 . S
C681 H669 0.950 . S
C681 C677 1.393 . S
C681 C680 1.391 . S
C682 H672 0.950 . S
C682 C683 1.386 . S
C682 C684 1.391 . S
C683 C682 1.386 . S
C683 C687 1.393 . S
C684 H673 0.950 . S
C684 C682 1.391 . S
C684 C685 1.400 . S
C685 C679 1.491 . S
C685 C684 1.400 . S
C685 C686 1.398 . S
C686 H674 0.950 . S
C686 C685 1.398 . S
C686 C687 1.391 . S
C687 H675 0.950 . S
C687 C683 1.393 . S
C687 C686 1.391 . S
H688 C696 0.950 . S
H689 C701 0.950 . S
H690 C698 0.950 . S
H691 C700 0.950 . S
H692 C702 0.950 . S
H693 C704 0.950 . S
H694 C706 0.950 . S
H695 C707 0.950 . S
C696 H688 0.950 . S
C696 C697 1.386 . S
C696 C698 1.391 . S
C697 C696 1.386 . S
C697 C701 1.393 . S
C698 H690 0.950 . S
C698 C696 1.391 . S
C698 C699 1.400 . S
C699 C698 1.400 . S
C699 C700 1.398 . S
C699 C705 1.491 . S
C700 H691 0.950 . S
C700 C699 1.398 . S
C700 C701 1.391 . S
C701 H689 0.950 . S
C701 C697 1.393 . S
C701 C700 1.391 . S
C702 H692 0.950 . S
C702 C703 1.386 . S
C702 C704 1.391 . S
C703 C702 1.386 . S
C703 C707 1.393 . S
C704 H693 0.950 . S
C704 C702 1.391 . S
C704 C705 1.400 . S
C705 C699 1.491 . S
C705 C704 1.400 . S
C705 C706 1.398 . S
C706 H694 0.950 . S
C706 C705 1.398 . S
C706 C707 1.391 . S
C707 H695 0.950 . S
C707 C703 1.393 . S
C707 C706 1.391 . S
H708 C716 0.950 . S
H709 C721 0.950 . S
H710 C718 0.950 . S
H711 C720 0.950 . S
H712 C722 0.950 . S
H713 C724 0.950 . S
H714 C726 0.950 . S
H715 C727 0.950 . S
C716 H708 0.950 . S
C716 C717 1.386 . S
C716 C718 1.391 . S
C717 C716 1.386 . S
C717 C721 1.393 . S
C718 H710 0.950 . S
C718 C716 1.391 . S
C718 C719 1.400 . S
C719 C718 1.400 . S
C719 C720 1.398 . S
C719 C725 1.491 . S
C720 H711 0.950 . S
C720 C719 1.398 . S
C720 C721 1.391 . S
C721 H709 0.950 . S
C721 C717 1.393 . S
C721 C720 1.391 . S
C722 H712 0.950 . S
C722 C723 1.386 . S
C722 C724 1.391 . S
C723 C722 1.386 . S
C723 C727 1.393 . S
C724 H713 0.950 . S
C724 C722 1.391 . S
C724 C725 1.400 . S
C725 C719 1.491 . S
C725 C724 1.400 . S
C725 C726 1.398 . S
C726 H714 0.950 . S
C726 C725 1.398 . S
C726 C727 1.391 . S
C727 H715 0.950 . S
C727 C723 1.393 . S
C727 C726 1.391 . S
H728 C736 0.950 . S
H729 C741 0.950 . S
H730 C738 0.950 . S
H731 C740 0.950 . S
H732 C742 0.950 . S
H733 C744 0.950 . S
H734 C746 0.950 . S
H735 C747 0.950 . S
C736 H728 0.950 . S
C736 C737 1.386 . S
C736 C738 1.391 . S
C737 C736 1.386 . S
C737 C741 1.393 . S
C738 H730 0.950 . S
C738 C736 1.391 . S
C738 C739 1.400 . S
C739 C738 1.400 . S
C739 C740 1.398 . S
C739 C745 1.491 . S
C740 H731 0.950 . S
C740 C739 1.398 . S
C740 C741 1.391 . S
C741 H729 0.950 . S
C741 C737 1.393 . S
C741 C740 1.391 . S
C742 H732 0.950 . S
C742 C743 1.386 . S
C742 C744 1.391 . S
C743 C742 1.386 . S
C743 C747 1.393 . S
C744 H733 0.950 . S
C744 C742 1.391 . S
C744 C745 1.400 . S
C745 C739 1.491 . S
C745 C744 1.400 . S
C745 C746 1.398 . S
C746 H734 0.950 . S
C746 C745 1.398 . S
C746 C747 1.391 . S
C747 H735 0.950 . S
C747 C743 1.393 . S
C747 C746 1.391 . S
H748 C756 0.950 . S
H749 C761 0.950 . S
H750 C758 0.950 . S
H751 C760 0.950 . S
H752 C762 0.950 . S
H753 C764 0.950 . S
H754 C766 0.950 . S
H755 C767 0.950 . S
C756 H748 0.950 . S
C756 C757 1.386 . S
C756 C758 1.391 . S
C757 C756 1.386 . S
C757 C761 1.393 . S
C758 H750 0.950 . S
C758 C756 1.391 . S
C758 C759 1.400 . S
C759 C758 1.400 . S
C759 C760 1.398 . S
C759 C765 1.491 . S
C760 H751 0.950 . S
C760 C759 1.398 . S
C760 C761 1.391 . S
C761 H749 0.950 . S
C761 C757 1.393 . S
C761 C760 1.391 . S
C762 H752 0.950 . S
C762 C763 1.386 . S
C762 C764 1.391 . S
C763 C762 1.386 . S
C763 C767 1.393 . S
C764 H753 0.950 . S
C764 C762 1.391 . S
C764 C765 1.400 . S
C765 C759 1.491 . S
C765 C764 1.400 . S
C765 C766 1.398 . S
C766 H754 0.950 . S
C766 C765 1.398 . S
C766 C767 1.391 . S
C767 H755 0.950 . S
C767 C763 1.393 . S
C767 C766 1.391 . S
H768 C776 0.950 . S
H769 C781 0.950 . S
H770 C778 0.950 . S
H771 C780 0.950 . S
H772 C782 0.950 . S
H773 C784 0.950 . S
H774 C786 0.950 . S
H775 C787 0.950 . S
C776 H768 0.950 . S
C776 C777 1.386 . S
C776 C778 1.391 . S
C777 C776 1.386 . S
C777 C781 1.393 . S
C778 H770 0.950 . S
C778 C776 1.391 . S
C778 C779 1.400 . S
C779 C778 1.400 . S
C779 C780 1.398 . S
C779 C785 1.491 . S
C780 H771 0.950 . S
C780 C779 1.398 . S
C780 C781 1.391 . S
C781 H769 0.950 . S
C781 C777 1.393 . S
C781 C780 1.391 . S
C782 H772 0.950 . S
C782 C783 1.386 . S
C782 C784 1.391 . S
C783 C782 1.386 . S
C783 C787 1.393 . S
C784 H773 0.950 . S
C784 C782 1.391 . S
C784 C785 1.400 . S
C785 C779 1.491 . S
C785 C784 1.400 . S
C785 C786 1.398 . S
C786 H774 0.950 . S
C786 C785 1.398 . S
C786 C787 1.391 . S
C787 H775 0.950 . S
C787 C783 1.393 . S
C787 C786 1.391 . S
H788 C796 0.950 . S
H789 C801 0.950 . S
H790 C798 0.950 1_655 S
H791 C800 0.950 . S
H792 C802 0.950 . S
H793 C804 0.950 1_455 S
H794 C806 0.950 . S
H795 C807 0.950 . S
C796 H788 0.950 . S
C796 C797 1.386 . S
C796 C798 1.391 . S
C797 C796 1.386 . S
C797 C801 1.393 . S
C798 H790 0.950 1_455 S
C798 C796 1.391 . S
C798 C799 1.400 . S
C799 C798 1.400 . S
C799 C800 1.398 . S
C799 C805 1.491 1_455 S
C800 H791 0.950 . S
C800 C799 1.398 . S
C800 C801 1.391 . S
C801 H789 0.950 . S
C801 C797 1.393 . S
C801 C800 1.391 . S
C802 H792 0.950 . S
C802 C803 1.386 . S
C802 C804 1.391 . S
C803 C802 1.386 . S
C803 C807 1.393 . S
C804 H793 0.950 1_655 S
C804 C802 1.391 . S
C804 C805 1.400 . S
C805 C799 1.491 1_655 S
C805 C804 1.400 . S
C805 C806 1.398 . S
C806 H794 0.950 . S
C806 C805 1.398 . S
C806 C807 1.391 . S
C807 H795 0.950 . S
C807 C803 1.393 . S
C807 C806 1.391 . S
H808 C816 0.950 . S
H809 C821 0.950 . S
H810 C818 0.950 1_545 S
H811 C820 0.950 . S
H812 C822 0.950 . S
H813 C824 0.950 1_565 S
H814 C826 0.950 . S
H815 C827 0.950 . S
C816 H808 0.950 . S
C816 C817 1.386 . S
C816 C818 1.391 . S
C817 C816 1.386 . S
C817 C821 1.393 . S
C818 H810 0.950 1_565 S
C818 C816 1.391 . S
C818 C819 1.400 . S
C819 C818 1.400 . S
C819 C820 1.398 . S
C819 C825 1.491 1_565 S
C820 H811 0.950 . S
C820 C819 1.398 . S
C820 C821 1.391 . S
C821 H809 0.950 . S
C821 C817 1.393 . S
C821 C820 1.391 . S
C822 H812 0.950 . S
C822 C823 1.386 . S
C822 C824 1.391 . S
C823 C822 1.386 . S
C823 C827 1.393 . S
C824 H813 0.950 1_545 S
C824 C822 1.391 . S
C824 C825 1.400 . S
C825 C819 1.491 1_545 S
C825 C824 1.400 . S
C825 C826 1.398 . S
C826 H814 0.950 . S
C826 C825 1.398 . S
C826 C827 1.391 . S
C827 H815 0.950 . S
C827 C823 1.393 . S
C827 C826 1.391 . S
H828 C836 0.950 . S
H829 C841 0.950 . S
H830 C838 0.950 . S
H831 C840 0.950 . S
H832 C842 0.950 . S
H833 C844 0.950 . S
H834 C846 0.950 . S
H835 C847 0.950 . S
C836 H828 0.950 . S
C836 C837 1.386 . S
C836 C838 1.391 . S
C837 C836 1.386 . S
C837 C841 1.393 . S
C838 H830 0.950 . S
C838 C836 1.391 . S
C838 C839 1.400 . S
C839 C838 1.400 . S
C839 C840 1.398 . S
C839 C845 1.491 . S
C840 H831 0.950 . S
C840 C839 1.398 . S
C840 C841 1.391 . S
C841 H829 0.950 . S
C841 C837 1.393 . S
C841 C840 1.391 . S
C842 H832 0.950 . S
C842 C843 1.386 . S
C842 C844 1.391 . S
C843 C842 1.386 . S
C843 C847 1.393 . S
C844 H833 0.950 . S
C844 C842 1.391 . S
C844 C845 1.400 . S
C845 C839 1.491 . S
C845 C844 1.400 . S
C845 C846 1.398 . S
C846 H834 0.950 . S
C846 C845 1.398 . S
C846 C847 1.391 . S
C847 H835 0.950 . S
C847 C843 1.393 . S
C847 C846 1.391 . S
H848 C856 0.950 . S
H849 C861 0.950 . S
H850 C858 0.950 . S
H851 C860 0.950 1_655 S
H852 C862 0.950 . S
H853 C864 0.950 . S
H854 C866 0.950 1_455 S
H855 C867 0.950 . S
C856 H848 0.950 . S
C856 C857 1.386 . S
C856 C858 1.391 . S
C857 C856 1.386 . S
C857 C861 1.393 . S
C858 H850 0.950 . S
C858 C856 1.391 . S
C858 C859 1.400 . S
C859 C858 1.400 . S
C859 C860 1.398 . S
C859 C865 1.491 1_455 S
C860 H851 0.950 1_455 S
C860 C859 1.398 . S
C860 C861 1.391 . S
C861 H849 0.950 . S
C861 C857 1.393 . S
C861 C860 1.391 . S
C862 H852 0.950 . S
C862 C863 1.386 . S
C862 C864 1.391 . S
C863 C862 1.386 . S
C863 C867 1.393 . S
C864 H853 0.950 . S
C864 C862 1.391 . S
C864 C865 1.400 . S
C865 C859 1.491 1_655 S
C865 C864 1.400 . S
C865 C866 1.398 . S
C866 H854 0.950 1_655 S
C866 C865 1.398 . S
C866 C867 1.391 . S
C867 H855 0.950 . S
C867 C863 1.393 . S
C867 C866 1.391 . S
H868 C876 0.950 . S
H869 C881 0.950 . S
H870 C878 0.950 1_556 S
H871 C880 0.963 . S
H872 C882 0.950 . S
H873 C884 0.950 1_554 S
H874 C886 0.963 . S
H875 C887 0.950 . S
C876 H868 0.950 . S
C876 C877 1.386 . S
C876 C878 1.391 . S
C877 C876 1.386 . S
C877 C881 1.393 . S
C878 H870 0.950 1_554 S
C878 C876 1.391 . S
C878 C879 1.400 . S
C879 C878 1.400 . S
C879 C880 1.396 1_565 S
C879 C885 1.491 1_564 S
C880 H871 0.963 . S
C880 C879 1.396 1_545 S
C880 C881 1.380 1_545 S
C881 H869 0.950 . S
C881 C877 1.393 . S
C881 C880 1.380 1_565 S
C882 H872 0.950 . S
C882 C883 1.386 . S
C882 C884 1.391 . S
C883 C882 1.386 . S
C883 C887 1.393 . S
C884 H873 0.950 1_556 S
C884 C882 1.391 . S
C884 C885 1.400 . S
C885 C879 1.491 1_546 S
C885 C884 1.400 . S
C885 C886 1.396 1_545 S
C886 H874 0.963 . S
C886 C885 1.396 1_565 S
C886 C887 1.380 1_565 S
C887 H875 0.950 . S
C887 C883 1.393 . S
C887 C886 1.380 1_545 S
H888 C896 0.950 . S
H889 C901 0.950 . S
H890 C898 0.950 . S
H891 C900 0.950 . S
H892 C902 0.950 . S
H893 C904 0.950 . S
H894 C906 0.950 . S
H895 C907 0.950 . S
C896 H888 0.950 . S
C896 C897 1.386 . S
C896 C898 1.391 . S
C897 C896 1.386 . S
C897 C901 1.393 . S
C898 H890 0.950 . S
C898 C896 1.391 . S
C898 C899 1.400 . S
C899 C898 1.400 . S
C899 C900 1.398 . S
C899 C905 1.491 . S
C900 H891 0.950 . S
C900 C899 1.398 . S
C900 C901 1.391 . S
C901 H889 0.950 . S
C901 C897 1.393 . S
C901 C900 1.391 . S
C902 H892 0.950 . S
C902 C903 1.386 . S
C902 C904 1.391 . S
C903 C902 1.386 . S
C903 C907 1.393 . S
C904 H893 0.950 . S
C904 C902 1.391 . S
C904 C905 1.400 . S
C905 C899 1.491 . S
C905 C904 1.400 . S
C905 C906 1.398 . S
C906 H894 0.950 . S
C906 C905 1.398 . S
C906 C907 1.391 . S
C907 H895 0.950 . S
C907 C903 1.393 . S
C907 C906 1.391 . S
H908 C916 0.950 . S
H909 C921 0.950 . S
H910 C918 0.950 . S
H911 C920 0.950 . S
H912 C922 0.950 . S
H913 C924 0.950 . S
H914 C926 0.950 . S
H915 C927 0.950 . S
C916 H908 0.950 . S
C916 C917 1.386 . S
C916 C918 1.391 . S
C917 C916 1.386 . S
C917 C921 1.393 . S
C918 H910 0.950 . S
C918 C916 1.391 . S
C918 C919 1.400 . S
C919 C918 1.400 . S
C919 C920 1.398 . S
C919 C925 1.491 . S
C920 H911 0.950 . S
C920 C919 1.398 . S
C920 C921 1.391 . S
C921 H909 0.950 . S
C921 C917 1.393 . S
C921 C920 1.391 . S
C922 H912 0.950 . S
C922 C923 1.386 . S
C922 C924 1.391 . S
C923 C922 1.386 . S
C923 C927 1.393 . S
C924 H913 0.950 . S
C924 C922 1.391 . S
C924 C925 1.400 . S
C925 C919 1.491 . S
C925 C924 1.400 . S
C925 C926 1.398 . S
C926 H914 0.950 . S
C926 C925 1.398 . S
C926 C927 1.391 . S
C927 H915 0.950 . S
C927 C923 1.393 . S
C927 C926 1.391 . S
H928 C936 0.950 . S
H929 C941 0.950 . S
H930 C938 0.950 . S
H931 C940 0.950 . S
H932 C942 0.950 . S
H933 C944 0.950 . S
H934 C946 0.950 . S
H935 C947 0.950 . S
C936 H928 0.950 . S
C936 C937 1.386 . S
C936 C938 1.391 . S
C937 C936 1.386 . S
C937 C941 1.393 . S
C938 H930 0.950 . S
C938 C936 1.391 . S
C938 C939 1.400 . S
C939 C938 1.400 . S
C939 C940 1.398 . S
C939 C945 1.491 . S
C940 H931 0.950 . S
C940 C939 1.398 . S
C940 C941 1.391 . S
C941 H929 0.950 . S
C941 C937 1.393 . S
C941 C940 1.391 . S
C942 H932 0.950 . S
C942 C943 1.386 . S
C942 C944 1.391 . S
C943 C942 1.386 . S
C943 C947 1.393 . S
C944 H933 0.950 . S
C944 C942 1.391 . S
C944 C945 1.400 . S
C945 C939 1.491 . S
C945 C944 1.400 . S
C945 C946 1.398 . S
C946 H934 0.950 . S
C946 C945 1.398 . S
C946 C947 1.391 . S
C947 H935 0.950 . S
C947 C943 1.393 . S
C947 C946 1.391 . S
H948 C956 0.950 . S
H949 C961 0.950 . S
H950 C958 0.950 . S
H951 C960 0.950 . S
H952 C962 0.950 . S
H953 C964 0.950 . S
H954 C966 0.950 . S
H955 C967 0.950 . S
C956 H948 0.950 . S
C956 C957 1.386 . S
C956 C958 1.391 . S
C957 C956 1.386 . S
C957 C961 1.393 . S
C958 H950 0.950 . S
C958 C956 1.391 . S
C958 C959 1.400 . S
C959 C958 1.400 . S
C959 C960 1.398 . S
C959 C965 1.491 . S
C960 H951 0.950 . S
C960 C959 1.398 . S
C960 C961 1.391 . S
C961 H949 0.950 . S
C961 C957 1.393 . S
C961 C960 1.391 . S
C962 H952 0.950 . S
C962 C963 1.386 . S
C962 C964 1.391 . S
C963 C962 1.386 . S
C963 C967 1.393 . S
C964 H953 0.950 . S
C964 C962 1.391 . S
C964 C965 1.400 . S
C965 C959 1.491 . S
C965 C964 1.400 . S
C965 C966 1.398 . S
C966 H954 0.950 . S
C966 C965 1.398 . S
C966 C967 1.391 . S
C967 H955 0.950 . S
C967 C963 1.393 . S
C967 C966 1.391 . S
H968 C976 0.950 . S
H969 C981 0.950 . S
H970 C978 0.950 . S
H971 C980 0.950 . S
H972 C982 0.950 . S
H973 C984 0.950 . S
H974 C986 0.950 . S
H975 C987 0.950 . S
C976 H968 0.950 . S
C976 C977 1.386 . S
C976 C978 1.391 . S
C977 C976 1.386 . S
C977 C981 1.393 . S
C978 H970 0.950 . S
C978 C976 1.391 . S
C978 C979 1.400 . S
C979 C978 1.400 . S
C979 C980 1.398 . S
C979 C985 1.491 . S
C980 H971 0.950 . S
C980 C979 1.398 . S
C980 C981 1.391 . S
C981 H969 0.950 . S
C981 C977 1.393 . S
C981 C980 1.391 . S
C982 H972 0.950 . S
C982 C983 1.386 . S
C982 C984 1.391 . S
C983 C982 1.386 . S
C983 C987 1.393 . S
C984 H973 0.950 . S
C984 C982 1.391 . S
C984 C985 1.400 . S
C985 C979 1.491 . S
C985 C984 1.400 . S
C985 C986 1.398 . S
C986 H974 0.950 . S
C986 C985 1.398 . S
C986 C987 1.391 . S
C987 H975 0.950 . S
C987 C983 1.393 . S
C987 C986 1.391 . S
H988 C996 0.950 . S
H989 C1001 0.950 . S
H990 C998 0.950 . S
H991 C1000 0.950 . S
H992 C1002 0.950 . S
H993 C1004 0.950 . S
H994 C1006 0.950 . S
H995 C1007 0.950 . S
C996 H988 0.950 . S
C996 C997 1.386 . S
C996 C998 1.391 . S
C997 C996 1.386 . S
C997 C1001 1.393 . S
C998 H990 0.950 . S
C998 C996 1.391 . S
C998 C999 1.400 . S
C999 C998 1.400 . S
C999 C1000 1.398 . S
C999 C1005 1.491 . S
C1000 H991 0.950 . S
C1000 C999 1.398 . S
C1000 C1001 1.391 . S
C1001 H989 0.950 . S
C1001 C997 1.393 . S
C1001 C1000 1.391 . S
C1002 H992 0.950 . S
C1002 C1003 1.386 . S
C1002 C1004 1.391 . S
C1003 C1002 1.386 . S
C1003 C1007 1.393 . S
C1004 H993 0.950 . S
C1004 C1002 1.391 . S
C1004 C1005 1.400 . S
C1005 C999 1.491 . S
C1005 C1004 1.400 . S
C1005 C1006 1.398 . S
C1006 H994 0.950 . S
C1006 C1005 1.398 . S
C1006 C1007 1.391 . S
C1007 H995 0.950 . S
C1007 C1003 1.393 . S
C1007 C1006 1.391 . S
C417 C172 1.243 . S
C423 C5 1.251 . S
C437 C2 1.242 . S
C443 C39 1.248 . S
C457 C36 1.258 . S
C463 C73 1.244 . S
C477 C107 1.248 . S
C483 C70 1.243 . S
C497 C141 1.252 . S
C503 C104 1.262 . S
C517 C138 1.248 . S
C523 C175 1.259 . S
C537 C240 1.248 . S
C543 C209 1.259 . S
C557 C274 1.243 . S
C563 C243 1.247 . S
C577 C308 1.247 . S
C583 C277 1.258 . S
C597 C342 1.249 . S
C603 C311 1.259 . S
C617 C376 1.251 . S
C623 C345 1.260 . S
C637 C206 1.255 . S
C643 C379 1.260 . S
C657 C281 1.284 . S
C663 C9 1.260 . S
C677 C43 1.274 . S
C683 C315 1.256 . S
C697 C77 1.270 . S
C703 C349 1.285 . S
C717 C111 1.275 . S
C723 C383 1.282 . S
C737 C145 1.285 . S
C743 C213 1.263 . S
C757 C247 1.261 . S
C763 C179 1.265 . S
C777 C339 1.525 . S
C783 C33 1.524 . S
C797 C373 1.526 . S
C803 C67 1.525 . S
C817 C101 1.523 . S
C823 C407 1.523 . S
C837 C135 1.523 . S
C843 C237 1.523 . S
C857 C169 1.523 . S
C863 C271 1.524 . S
C877 C305 1.525 . S
C883 C203 1.526 . S
C897 C20 1.556 . S
C903 C224 1.556 . S
C917 C258 1.561 . S
C923 C54 1.558 . S
C937 C88 1.556 . S
C943 C292 1.559 . S
C957 C326 1.565 . S
C963 C122 1.566 . S
C977 C360 1.557 . S
C983 C156 1.556 . S
C997 C394 1.556 . S
C1003 C190 1.556 . S
