# Generated by pormake.
# Topology fnl, (5)-cn, num edge types: 1
# Building blocks:
#     Node 0, Type 0, BuildingBlock: BEQFEK_clean_sbu_0, # of connection points: 5
#     Node 1, Type 0, BuildingBlock: BEQFEK_clean_sbu_0, # of connection points: 5
#     Node 2, Type 0, BuildingBlock: BEQFEK_clean_sbu_0, # of connection points: 5
#     Node 3, Type 0, BuildingBlock: BEQFEK_clean_sbu_0, # of connection points: 5
#     Node 4, Type 0, BuildingBlock: BEQFEK_clean_sbu_0, # of connection points: 5
#     Node 5, Type 0, BuildingBlock: BEQFEK_clean_sbu_0, # of connection points: 5
#     Node 6, Type 0, BuildingBlock: BEQFEK_clean_sbu_0, # of connection points: 5
#     Node 7, Type 0, BuildingBlock: BEQFEK_clean_sbu_0, # of connection points: 5
#     Node 8, Type 0, BuildingBlock: BEQFEK_clean_sbu_0, # of connection points: 5
#     Node 9, Type 0, BuildingBlock: BEQFEK_clean_sbu_0, # of connection points: 5
#     Node 10, Type 0, BuildingBlock: BEQFEK_clean_sbu_0, # of connection points: 5
#     Node 11, Type 0, BuildingBlock: BEQFEK_clean_sbu_0, # of connection points: 5
#     Node 12, Type 0, BuildingBlock: BEQFEK_clean_sbu_0, # of connection points: 5
#     Node 13, Type 0, BuildingBlock: BEQFEK_clean_sbu_0, # of connection points: 5
#     Node 14, Type 0, BuildingBlock: BEQFEK_clean_sbu_0, # of connection points: 5
#     Node 15, Type 0, BuildingBlock: BEQFEK_clean_sbu_0, # of connection points: 5
#     Edge 16, Type (0, 0), BuildingBlock: ZUJKAS_clean_linker_0, # of connection points: 2
#     Edge 17, Type (0, 0), BuildingBlock: ZUJKAS_clean_linker_0, # of connection points: 2
#     Edge 18, Type (0, 0), BuildingBlock: ZUJKAS_clean_linker_0, # of connection points: 2
#     Edge 19, Type (0, 0), BuildingBlock: ZUJKAS_clean_linker_0, # of connection points: 2
#     Edge 20, Type (0, 0), BuildingBlock: ZUJKAS_clean_linker_0, # of connection points: 2
#     Edge 21, Type (0, 0), BuildingBlock: ZUJKAS_clean_linker_0, # of connection points: 2
#     Edge 22, Type (0, 0), BuildingBlock: ZUJKAS_clean_linker_0, # of connection points: 2
#     Edge 23, Type (0, 0), BuildingBlock: ZUJKAS_clean_linker_0, # of connection points: 2
#     Edge 24, Type (0, 0), BuildingBlock: ZUJKAS_clean_linker_0, # of connection points: 2
#     Edge 25, Type (0, 0), BuildingBlock: ZUJKAS_clean_linker_0, # of connection points: 2
#     Edge 26, Type (0, 0), BuildingBlock: ZUJKAS_clean_linker_0, # of connection points: 2
#     Edge 27, Type (0, 0), BuildingBlock: ZUJKAS_clean_linker_0, # of connection points: 2
#     Edge 28, Type (0, 0), BuildingBlock: ZUJKAS_clean_linker_0, # of connection points: 2
#     Edge 29, Type (0, 0), BuildingBlock: ZUJKAS_clean_linker_0, # of connection points: 2
#     Edge 30, Type (0, 0), BuildingBlock: ZUJKAS_clean_linker_0, # of connection points: 2
#     Edge 31, Type (0, 0), BuildingBlock: ZUJKAS_clean_linker_0, # of connection points: 2
#     Edge 32, Type (0, 0), BuildingBlock: ZUJKAS_clean_linker_0, # of connection points: 2
#     Edge 33, Type (0, 0), BuildingBlock: ZUJKAS_clean_linker_0, # of connection points: 2
#     Edge 34, Type (0, 0), BuildingBlock: ZUJKAS_clean_linker_0, # of connection points: 2
#     Edge 35, Type (0, 0), BuildingBlock: ZUJKAS_clean_linker_0, # of connection points: 2
#     Edge 36, Type (0, 0), BuildingBlock: ZUJKAS_clean_linker_0, # of connection points: 2
#     Edge 37, Type (0, 0), BuildingBlock: ZUJKAS_clean_linker_0, # of connection points: 2
#     Edge 38, Type (0, 0), BuildingBlock: ZUJKAS_clean_linker_0, # of connection points: 2
#     Edge 39, Type (0, 0), BuildingBlock: ZUJKAS_clean_linker_0, # of connection points: 2
#     Edge 40, Type (0, 0), BuildingBlock: ZUJKAS_clean_linker_0, # of connection points: 2
#     Edge 41, Type (0, 0), BuildingBlock: ZUJKAS_clean_linker_0, # of connection points: 2
#     Edge 42, Type (0, 0), BuildingBlock: ZUJKAS_clean_linker_0, # of connection points: 2
#     Edge 43, Type (0, 0), BuildingBlock: ZUJKAS_clean_linker_0, # of connection points: 2
#     Edge 44, Type (0, 0), BuildingBlock: ZUJKAS_clean_linker_0, # of connection points: 2
#     Edge 45, Type (0, 0), BuildingBlock: ZUJKAS_clean_linker_0, # of connection points: 2
#     Edge 46, Type (0, 0), BuildingBlock: ZUJKAS_clean_linker_0, # of connection points: 2
#     Edge 47, Type (0, 0), BuildingBlock: ZUJKAS_clean_linker_0, # of connection points: 2
#     Edge 48, Type (0, 0), BuildingBlock: ZUJKAS_clean_linker_0, # of connection points: 2
#     Edge 49, Type (0, 0), BuildingBlock: ZUJKAS_clean_linker_0, # of connection points: 2
#     Edge 50, Type (0, 0), BuildingBlock: ZUJKAS_clean_linker_0, # of connection points: 2
#     Edge 51, Type (0, 0), BuildingBlock: ZUJKAS_clean_linker_0, # of connection points: 2
#     Edge 52, Type (0, 0), BuildingBlock: ZUJKAS_clean_linker_0, # of connection points: 2
#     Edge 53, Type (0, 0), BuildingBlock: ZUJKAS_clean_linker_0, # of connection points: 2
#     Edge 54, Type (0, 0), BuildingBlock: ZUJKAS_clean_linker_0, # of connection points: 2
#     Edge 55, Type (0, 0), BuildingBlock: ZUJKAS_clean_linker_0, # of connection points: 2
# Relax obj value: 0.379
# Max RMSD: 0.224
# Mean RMSD: 0.224
data_MOF--net-fnl--node1-BEQFEK_clean_sbu_0--edge1-ZUJKAS_clean_linker_0
_symmetry_space_group_name_H-M    P1
_symmetry_Int_Tables_number       1
_symmetry_cell_setting            triclinic
loop_
_symmetry_equiv_pos_as_xyz
'x, y, z'
_cell_length_a     44.041058
_cell_length_b     44.067393
_cell_length_c     131.48587
_cell_angle_alpha  89.998041
_cell_angle_beta   89.998044
_cell_angle_gamma 90.003184
loop_
_atom_site_label
_atom_site_type_symbol
_atom_site_fract_x
_atom_site_fract_y
_atom_site_fract_z
_atom_type_partial_charge
Co0 Co 0.97624 0.08486 0.08039 0.0
Co1 Co 0.99129 0.15246 0.08526 0.0
C2 C 0.93192 0.127 0.09113 0.0
O3 O 0.93991 0.10169 0.08727 0.0
O4 O 0.94954 0.14994 0.09095 0.0
C5 C 0.94556 0.03963 0.06829 0.0
O6 O 0.9305 0.06247 0.06431 0.0
C7 C 0.99568 0.21851 0.0894 0.0
C8 C 0.04141 0.22793 0.08321 0.0
C9 C 0.01663 0.24166 0.08778 0.0
N10 N 0.00749 0.19252 0.08578 0.0
N11 N 0.03491 0.1983 0.08219 0.0
C12 C 0.96613 0.2203 0.09498 0.0
H13 H 0.96315 0.19983 0.09977 0.0
H14 H 0.94726 0.22105 0.08939 0.0
H15 H 0.96508 0.24068 0.09992 0.0
C16 C 0.99517 0.10393 0.05989 0.0
N17 N 0.9897 0.10982 0.06975 0.0
N18 N 0.99202 0.1391 0.07138 0.0
C19 C 0.99659 0.15316 0.06237 0.0
C20 C -0.00125 0.13123 0.05474 0.0
C21 C 0.00113 0.07278 0.05578 0.0
H22 H 0.00854 0.05733 0.06196 0.0
H23 H 0.98022 0.06358 0.0523 0.0
H24 H 0.01893 0.07358 0.04981 0.0
O25 O 0.00884 0.07958 0.0902 0.0
O26 O 0.019 0.12749 0.09415 0.0
H27 H 0.01987 0.19552 0.06115 0.0
H28 H 0.98588 0.19306 0.0536 0.0
C29 C 0.99622 0.18687 0.06101 0.0
H30 H 0.98322 0.19784 0.06723 0.0
H31 H 0.04911 0.18196 0.07897 0.0
O32 O 0.9653 0.04456 0.07514 0.0
C33 C 0.02375 0.09913 0.09524 0.0
Co34 Co 0.3141 0.86563 0.3265 0.0
Co35 Co 0.25447 0.88503 0.33766 0.0
C36 C 0.28203 0.82209 0.33979 0.0
O37 O 0.3034 0.82781 0.33355 0.0
O38 O 0.26207 0.84202 0.34204 0.0
C39 C 0.3749 0.85083 0.3204 0.0
O40 O 0.37808 0.84198 0.32988 0.0
C41 C 0.18844 0.88474 0.34075 0.0
C42 C 0.18171 0.92677 0.34964 0.0
C43 C 0.16623 0.90284 0.34518 0.0
N44 N 0.21563 0.8977 0.3424 0.0
N45 N 0.21146 0.92271 0.34776 0.0
C46 C 0.18435 0.85493 0.33546 0.0
H47 H 0.179 0.8589 0.32733 0.0
H48 H 0.16534 0.84201 0.33892 0.0
H49 H 0.20552 0.84138 0.33583 0.0
C50 C 0.28003 0.88641 0.30876 0.0
N51 N 0.28151 0.88029 0.31875 0.0
N52 N 0.2568 0.89029 0.32326 0.0
C53 C 0.23915 0.90409 0.31621 0.0
C54 C 0.25334 0.90173 0.30682 0.0
C55 C 0.30469 0.87944 0.30128 0.0
H56 H 0.31261 0.85577 0.30235 0.0
H57 H 0.29685 0.88235 0.29332 0.0
H58 H 0.32406 0.895 0.30265 0.0
O59 O 0.32735 0.89646 0.33658 0.0
O60 O 0.28519 0.91069 0.3445 0.0
H61 H 0.20577 0.93803 0.31232 0.0
H62 H 0.19153 0.90578 0.31919 0.0
C63 C 0.21092 0.92166 0.3185 0.0
H64 H 0.21348 0.93402 0.32579 0.0
H65 H 0.22891 0.93722 0.35004 0.0
O66 O 0.34909 0.85986 0.31738 0.0
C67 C 0.31379 0.91248 0.34324 0.0
Co68 Co 0.53854 0.21257 0.57187 0.0
Co69 Co 0.51545 0.15337 0.58217 0.0
C70 C 0.57534 0.1829 0.58786 0.0
O71 O 0.57227 0.20373 0.58123 0.0
O72 O 0.55523 0.16232 0.58897 0.0
C73 C 0.5624 0.27045 0.56647 0.0
O74 O 0.57375 0.26982 0.57571 0.0
C75 C 0.51607 0.08828 0.58655 0.0
C76 C 0.47075 0.08162 0.59343 0.0
C77 C 0.49713 0.06647 0.59076 0.0
N78 N 0.5014 0.11498 0.58665 0.0
N79 N 0.47435 0.11087 0.59078 0.0
C80 C 0.54818 0.08444 0.58304 0.0
H81 H 0.54832 0.0756 0.57514 0.0
H82 H 0.56033 0.06796 0.58796 0.0
H83 H 0.56026 0.10649 0.58305 0.0
C84 C 0.52805 0.17693 0.55341 0.0
N85 N 0.52921 0.17913 0.56359 0.0
N86 N 0.51775 0.15446 0.5677 0.0
C87 C 0.50789 0.13606 0.56016 0.0
C88 C 0.51457 0.1496 0.55088 0.0
C89 C 0.53648 0.20211 0.5463 0.0
H90 H 0.52055 0.22134 0.54741 0.0
H91 H 0.55973 0.21019 0.54809 0.0
H92 H 0.53553 0.19492 0.53822 0.0
O93 O 0.50231 0.2257 0.5798 0.0
O94 O 0.48575 0.18343 0.58705 0.0
H95 H 0.47361 0.1106 0.56798 0.0
H96 H 0.47855 0.10019 0.55473 0.0
C97 C 0.49039 0.10738 0.56178 0.0
H98 H 0.50624 0.08912 0.56409 0.0
H99 H 0.45838 0.12808 0.59183 0.0
O100 O 0.54831 0.24738 0.56318 0.0
C101 C 0.48349 0.21181 0.58549 0.0
Co102 Co 0.19876 0.44205 0.82236 0.0
Co103 Co 0.25773 0.41857 0.83272 0.0
C104 C 0.23036 0.48008 0.83754 0.0
O105 O 0.20931 0.4768 0.831 0.0
O106 O 0.25017 0.45942 0.83904 0.0
C107 C 0.14112 0.4669 0.8164 0.0
O108 O 0.14049 0.47856 0.82559 0.0
C109 C 0.32321 0.4175 0.83639 0.0
C110 C 0.32919 0.37273 0.84371 0.0
C111 C 0.34493 0.39815 0.84046 0.0
N112 N 0.29601 0.40392 0.83712 0.0
N113 N 0.2997 0.37723 0.84153 0.0
C114 C 0.32768 0.44898 0.83237 0.0
H115 H 0.33455 0.44787 0.82427 0.0
H116 H 0.34581 0.46084 0.83669 0.0
H117 H 0.30624 0.46208 0.83282 0.0
C118 C 0.23313 0.42815 0.8039 0.0
N119 N 0.23147 0.43066 0.81407 0.0
N120 N 0.256 0.41897 0.81821 0.0
C121 C 0.27366 0.40753 0.81071 0.0
C122 C 0.25983 0.41347 0.80142 0.0
C123 C 0.20808 0.43676 0.79676 0.0
H124 H 0.20064 0.46032 0.79838 0.0
H125 H 0.21526 0.43513 0.78869 0.0
H126 H 0.18849 0.42137 0.79799 0.0
O127 O 0.18484 0.40736 0.83094 0.0
O128 O 0.22705 0.39048 0.83818 0.0
H129 H 0.30734 0.37537 0.80555 0.0
H130 H 0.32089 0.4041 0.81414 0.0
C131 C 0.30156 0.38887 0.81241 0.0
H132 H 0.29817 0.37349 0.81899 0.0
H133 H 0.28208 0.36201 0.84301 0.0
O134 O 0.16426 0.45203 0.81358 0.0
C135 C 0.19851 0.3889 0.83683 0.0
Co136 Co 0.97093 0.22484 0.92167 0.0
Co137 Co 0.9883 0.15909 0.91517 0.0
C138 C 0.92774 0.18391 0.91016 0.0
O139 O 0.93449 0.20838 0.91479 0.0
O140 O 0.94659 0.16208 0.90943 0.0
C141 C 0.94032 0.26926 0.93452 0.0
O142 O 0.92483 0.24668 0.93847 0.0
C143 C 0.99082 0.09265 0.9121 0.0
C144 C 0.04032 0.08488 0.9132 0.0
C145 C 0.01287 0.07012 0.91182 0.0
N146 N 0.00474 0.11947 0.91353 0.0
N147 N 0.0343 0.11465 0.91413 0.0
C148 C 0.95708 0.0887 0.91194 0.0
H149 H 0.94604 0.10649 0.91663 0.0
H150 H 0.95051 0.06598 0.91485 0.0
H151 H 0.94885 0.09104 0.90401 0.0
C152 C 0.99069 0.20213 0.94171 0.0
N153 N 0.98544 0.19828 0.93172 0.0
N154 N 0.98931 0.16961 0.92933 0.0
C155 C 0.99514 0.15382 0.93792 0.0
C156 C 0.99612 0.174 0.9461 0.0
C157 C 0.9943 0.23247 0.94671 0.0
H158 H 0.00116 0.24983 0.94106 0.0
H159 H 0.97257 0.2394 0.95024 0.0
H160 H 0.01169 0.23132 0.95282 0.0
O161 O 0.00291 0.23276 0.91172 0.0
O162 O 0.01535 0.18619 0.90687 0.0
H163 H 0.02104 0.1131 0.93648 0.0
H164 H 0.99156 0.11121 0.946 0.0
C165 C 0.99746 0.11997 0.93835 0.0
H166 H 0.98194 0.10968 0.93269 0.0
H167 H 0.05033 0.1317 0.91534 0.0
O168 O 0.95985 0.2642 0.92761 0.0
C169 C 0.0187 0.21487 0.9063 0.0
Co170 Co 0.196 0.87778 0.18094 0.0
Co171 Co 0.25658 0.89788 0.17064 0.0
C172 C 0.22575 0.83839 0.16556 0.0
O173 O 0.20468 0.84296 0.17202 0.0
O174 O 0.24708 0.85763 0.16422 0.0
C175 C 0.13652 0.8568 0.18688 0.0
O176 O 0.13509 0.8452 0.17768 0.0
C177 C 0.32181 0.89604 0.16633 0.0
C178 C 0.33055 0.94338 0.1616 0.0
C179 C 0.34473 0.9158 0.16335 0.0
N180 N 0.29545 0.91134 0.16635 0.0
N181 N 0.30076 0.93952 0.16341 0.0
C182 C 0.32494 0.86409 0.17003 0.0
H183 H 0.30513 0.85774 0.17481 0.0
H184 H 0.34624 0.86132 0.17445 0.0
H185 H 0.32574 0.84857 0.16339 0.0
C186 C 0.23141 0.88849 0.19941 0.0
N187 N 0.22941 0.88687 0.18924 0.0
N188 N 0.2548 0.89674 0.18514 0.0
C189 C 0.27358 0.90583 0.19269 0.0
C190 C 0.25939 0.9005 0.20195 0.0
C191 C 0.20575 0.88158 0.20652 0.0
H192 H 0.18722 0.8982 0.20523 0.0
H193 H 0.19681 0.85855 0.2049 0.0
H194 H 0.21279 0.88282 0.21461 0.0
O195 O 0.18424 0.9135 0.1726 0.0
O196 O 0.2273 0.92778 0.16531 0.0
H197 H 0.30135 0.93898 0.18525 0.0
H198 H 0.3124 0.93089 0.19825 0.0
C199 C 0.30359 0.92094 0.19108 0.0
H200 H 0.32015 0.90396 0.18827 0.0
H201 H 0.28414 0.95635 0.16291 0.0
O202 O 0.16073 0.86985 0.18971 0.0
C203 C 0.19896 0.93119 0.16674 0.0
Co204 Co 0.55142 0.09825 0.42442 0.0
Co205 Co 0.52485 0.15625 0.41431 0.0
C206 C 0.58943 0.1353 0.41065 0.0
O207 O 0.58667 0.11316 0.41679 0.0
O208 O 0.56741 0.15338 0.4089 0.0
C209 C 0.57435 0.03986 0.42913 0.0
O210 O 0.58136 0.0396 0.41941 0.0
C211 C 0.51831 0.22168 0.41143 0.0
C212 C 0.47446 0.2246 0.4033 0.0
C213 C 0.49774 0.24207 0.40728 0.0
N214 N 0.50744 0.19352 0.41007 0.0
N215 N 0.48128 0.19538 0.40519 0.0
C216 C 0.54859 0.22848 0.41609 0.0
H217 H 0.54554 0.23474 0.42419 0.0
H218 H 0.55957 0.24782 0.41212 0.0
H219 H 0.56353 0.20828 0.41579 0.0
C220 C 0.53027 0.12842 0.44292 0.0
N221 N 0.53508 0.12844 0.43283 0.0
N222 N 0.52248 0.15264 0.42877 0.0
C223 C 0.50843 0.16847 0.43623 0.0
C224 C 0.51327 0.15366 0.44541 0.0
C225 C 0.54 0.10352 0.44995 0.0
H226 H 0.52701 0.08263 0.44814 0.0
H227 H 0.56448 0.0987 0.4488 0.0
H228 H 0.53607 0.10954 0.45804 0.0
O229 O 0.51999 0.08231 0.4149 0.0
O230 O 0.50095 0.12381 0.40781 0.0
H231 H 0.4747 0.19222 0.42756 0.0
H232 H 0.47322 0.19928 0.44114 0.0
C233 C 0.48846 0.19545 0.43454 0.0
H234 H 0.50279 0.21588 0.43352 0.0
H235 H 0.46802 0.1767 0.40317 0.0
O236 O 0.56313 0.06375 0.43294 0.0
C237 C 0.50166 0.0951 0.40876 0.0
Co238 Co 0.31977 0.42283 0.67468 0.0
Co239 Co 0.25537 0.41497 0.66523 0.0
C240 C 0.2886 0.47476 0.66464 0.0
O241 O 0.31089 0.46414 0.66968 0.0
O242 O 0.26578 0.45827 0.66235 0.0
C243 C 0.36997 0.44114 0.68827 0.0
O244 O 0.35586 0.46672 0.69026 0.0
C245 C 0.18925 0.42264 0.6628 0.0
C246 C 0.1784 0.38326 0.65302 0.0
C247 C 0.16558 0.40803 0.65786 0.0
N248 N 0.21492 0.40703 0.66099 0.0
N249 N 0.20824 0.38356 0.65515 0.0
C250 C 0.18799 0.45205 0.66847 0.0
H251 H 0.21106 0.45935 0.67081 0.0
H252 H 0.17369 0.44959 0.67535 0.0
H253 H 0.1774 0.46969 0.6636 0.0
C254 C 0.2886 0.39886 0.6928 0.0
N255 N 0.28843 0.40765 0.683 0.0
N256 N 0.26086 0.40458 0.67927 0.0
C257 C 0.24249 0.39397 0.68672 0.0
C258 C 0.25961 0.38993 0.69548 0.0
C259 C 0.31573 0.40048 0.69964 0.0
H260 H 0.33507 0.38841 0.69608 0.0
H261 H 0.32206 0.42459 0.70075 0.0
H262 H 0.31129 0.39038 0.70722 0.0
O263 O 0.32689 0.39558 0.66305 0.0
O264 O 0.28126 0.3893 0.65632 0.0
H265 H 0.20524 0.37549 0.67826 0.0
H266 H 0.20074 0.37356 0.69194 0.0
C267 C 0.20938 0.38751 0.68553 0.0
H268 H 0.19677 0.40925 0.6854 0.0
H269 H 0.22412 0.36774 0.65257 0.0
O270 O 0.35827 0.42217 0.68215 0.0
C271 C 0.30963 0.38395 0.65635 0.0
Co272 Co 0.69885 0.37243 0.6787 0.0
Co273 Co 0.7557 0.39486 0.66673 0.0
C274 C 0.72838 0.33185 0.66392 0.0
O275 O 0.70845 0.33585 0.67081 0.0
O276 O 0.74754 0.35256 0.66167 0.0
C277 C 0.64733 0.3431 0.68898 0.0
O278 O 0.64878 0.32119 0.68222 0.0
C279 C 0.82087 0.39721 0.66257 0.0
C280 C 0.82455 0.43889 0.65329 0.0
C281 C 0.84156 0.41595 0.65768 0.0
N282 N 0.79299 0.40885 0.66125 0.0
N283 N 0.79529 0.43364 0.65564 0.0
C284 C 0.82706 0.36788 0.66793 0.0
H285 H 0.83411 0.37243 0.67587 0.0
H286 H 0.84574 0.35543 0.66409 0.0
H287 H 0.80628 0.35366 0.66814 0.0
C288 C 0.73653 0.39023 0.69609 0.0
N289 N 0.73287 0.38627 0.68603 0.0
N290 N 0.75621 0.39799 0.68118 0.0
C291 C 0.77481 0.41122 0.68808 0.0
C292 C 0.7631 0.40614 0.69773 0.0
C293 C 0.71356 0.38149 0.70395 0.0
H294 H 0.69384 0.39703 0.70334 0.0
H295 H 0.70568 0.35795 0.70255 0.0
H296 H 0.72289 0.3831 0.71176 0.0
O297 O 0.68294 0.40401 0.66918 0.0
O298 O 0.72375 0.42092 0.6611 0.0
H299 H 0.79796 0.44222 0.6781 0.0
H300 H 0.80522 0.44815 0.69151 0.0
C301 C 0.80148 0.43081 0.68552 0.0
H302 H 0.82217 0.41659 0.68507 0.0
H303 H 0.77692 0.44722 0.65354 0.0
O304 O 0.6659 0.36505 0.6885 0.0
C305 C 0.69527 0.4215 0.66265 0.0
Co306 Co 0.82129 0.93852 0.17328 0.0
Co307 Co 0.75702 0.91773 0.16595 0.0
C308 C 0.77983 0.98041 0.16186 0.0
O309 O 0.80409 0.975 0.1668 0.0
O310 O 0.75947 0.96016 0.16066 0.0
C311 C 0.86462 0.97015 0.18634 0.0
O312 O 0.84168 0.98568 0.19004 0.0
C313 C 0.69031 0.91322 0.16305 0.0
C314 C 0.68521 0.86351 0.16151 0.0
C315 C 0.66888 0.89033 0.16183 0.0
N316 N 0.71795 0.90033 0.16363 0.0
N317 N 0.7147 0.87066 0.16262 0.0
C318 C 0.68495 0.94677 0.16323 0.0
H319 H 0.68544 0.95489 0.17122 0.0
H320 H 0.66277 0.9527 0.15977 0.0
H321 H 0.70312 0.95863 0.15899 0.0
C322 C 0.79724 0.91661 0.19303 0.0
N323 N 0.79436 0.92203 0.183 0.0
N324 N 0.7665 0.91536 0.18015 0.0
C325 C 0.75048 0.90654 0.18841 0.0
C326 C 0.76949 0.90728 0.19685 0.0
C327 C 0.82651 0.9177 0.19881 0.0
H328 H 0.84593 0.91286 0.1937 0.0
H329 H 0.82924 0.94047 0.20225 0.0
H330 H 0.82641 0.90083 0.20508 0.0
O331 O 0.8311 0.90807 0.16281 0.0
O332 O 0.78565 0.89241 0.15784 0.0
H333 H 0.71394 0.87718 0.18429 0.0
H334 H 0.70799 0.89721 0.19611 0.0
C335 C 0.71736 0.89904 0.1883 0.0
H336 H 0.70483 0.91688 0.1841 0.0
H337 H 0.73266 0.85523 0.16283 0.0
O338 O 0.86015 0.95019 0.17954 0.0
C339 C 0.81449 0.89123 0.15727 0.0
Co340 Co 0.81693 0.37043 0.82366 0.0
Co341 Co 0.75641 0.39363 0.83313 0.0
C342 C 0.77974 0.33015 0.83684 0.0
O343 O 0.80275 0.33447 0.83116 0.0
O344 O 0.76001 0.35096 0.8382 0.0
C345 C 0.87566 0.3463 0.81855 0.0
O346 O 0.87632 0.33658 0.828 0.0
C347 C 0.69048 0.39803 0.83598 0.0
C348 C 0.68639 0.44232 0.84376 0.0
C349 C 0.66954 0.41817 0.84008 0.0
N350 N 0.71834 0.40997 0.8371 0.0
N351 N 0.71575 0.43641 0.84177 0.0
C352 C 0.68452 0.36726 0.83158 0.0
H353 H 0.70526 0.35309 0.83182 0.0
H354 H 0.67762 0.36961 0.82351 0.0
H355 H 0.66585 0.35583 0.83576 0.0
C356 C 0.78795 0.39208 0.80496 0.0
N357 N 0.78691 0.38623 0.81498 0.0
N358 N 0.76151 0.39703 0.81879 0.0
C359 C 0.74572 0.41066 0.81124 0.0
C360 C 0.76203 0.40778 0.80225 0.0
C361 C 0.81407 0.38414 0.79818 0.0
H362 H 0.83423 0.39759 0.80047 0.0
H363 H 0.81958 0.35972 0.79905 0.0
H364 H 0.80893 0.38881 0.79006 0.0
O365 O 0.83087 0.40175 0.83352 0.0
O366 O 0.7876 0.41777 0.84028 0.0
H367 H 0.71942 0.44334 0.81948 0.0
H368 H 0.71177 0.44238 0.80593 0.0
C369 C 0.71714 0.42843 0.81273 0.0
H370 H 0.69808 0.41256 0.81411 0.0
H371 H 0.73405 0.45042 0.8436 0.0
O372 O 0.85223 0.35992 0.81532 0.0
C373 C 0.81642 0.41862 0.83972 0.0
Co374 Co 0.68857 0.93968 0.32716 0.0
Co375 Co 0.75247 0.9185 0.33479 0.0
C376 C 0.72989 0.98173 0.33851 0.0
O377 O 0.70565 0.97631 0.33356 0.0
O378 O 0.75013 0.96136 0.33968 0.0
C379 C 0.64431 0.97073 0.31406 0.0
O380 O 0.66668 0.98643 0.31007 0.0
C381 C 0.81952 0.91425 0.33697 0.0
C382 C 0.82394 0.8672 0.34261 0.0
C383 C 0.84067 0.89271 0.34008 0.0
N384 N 0.79164 0.90183 0.33759 0.0
N385 N 0.79454 0.87371 0.34095 0.0
C386 C 0.8255 0.94651 0.33401 0.0
H387 H 0.80475 0.96046 0.33476 0.0
H388 H 0.83283 0.94734 0.32595 0.0
H389 H 0.84392 0.95624 0.33876 0.0
C390 C 0.71203 0.91393 0.30779 0.0
N391 N 0.71539 0.9217 0.31764 0.0
N392 N 0.743 0.91449 0.32064 0.0
C393 C 0.7584 0.90296 0.31263 0.0
C394 C 0.73919 0.90213 0.30427 0.0
C395 C 0.68339 0.91778 0.30179 0.0
H396 H 0.68269 0.94107 0.29863 0.0
H397 H 0.68226 0.90175 0.29532 0.0
H398 H 0.66336 0.91403 0.30672 0.0
O399 O 0.67838 0.9101 0.33783 0.0
O400 O 0.72342 0.89408 0.3431 0.0
H401 H 0.79783 0.88241 0.30562 0.0
H402 H 0.80559 0.91094 0.31515 0.0
C403 C 0.79046 0.89188 0.31304 0.0
H404 H 0.79251 0.87409 0.31896 0.0
H405 H 0.77636 0.85897 0.34217 0.0
O406 O 0.6496 0.95105 0.32089 0.0
C407 C 0.69453 0.8934 0.34357 0.0
Co408 Co 0.46329 0.59967 0.57808 0.0
Co409 Co 0.49351 0.6574 0.58721 0.0
C410 C 0.4299 0.63688 0.59298 0.0
O411 O 0.43034 0.61485 0.58672 0.0
O412 O 0.4526 0.65468 0.59389 0.0
C413 C 0.4415 0.54048 0.57427 0.0
O414 O 0.43912 0.53982 0.58423 0.0
C415 C 0.50067 0.72277 0.59 0.0
C416 C 0.54645 0.72571 0.59684 0.0
C417 C 0.52208 0.74314 0.59366 0.0
N418 N 0.51206 0.69465 0.59089 0.0
N419 N 0.53939 0.69651 0.59499 0.0
C420 C 0.46923 0.72952 0.5863 0.0
H421 H 0.45467 0.70908 0.5868 0.0
H422 H 0.47012 0.73662 0.57822 0.0
H423 H 0.45906 0.7483 0.59078 0.0
C424 C 0.47961 0.62973 0.55894 0.0
N425 N 0.47788 0.6296 0.56915 0.0
N426 N 0.49204 0.6535 0.57279 0.0
C427 C 0.50419 0.66917 0.56494 0.0
C428 C 0.49627 0.65477 0.55593 0.0
C429 C 0.46801 0.60471 0.55229 0.0
H430 H 0.48092 0.58366 0.55394 0.0
H431 H 0.44374 0.60041 0.55403 0.0
H432 H 0.47045 0.61011 0.54409 0.0
O433 O 0.49619 0.58369 0.58703 0.0
O434 O 0.5186 0.62493 0.59309 0.0
H435 H 0.54043 0.69273 0.57245 0.0
H436 H 0.53729 0.70074 0.55896 0.0
C437 C 0.52439 0.69626 0.56605 0.0
H438 H 0.51034 0.71646 0.56778 0.0
H439 H 0.55322 0.67785 0.59654 0.0
O440 O 0.44946 0.56498 0.56999 0.0
C441 C 0.51648 0.59621 0.59251 0.0
Co442 Co 0.04004 0.71402 0.07295 0.0
Co443 Co 0.01878 0.6541 0.0834 0.0
C444 C 0.07875 0.68508 0.08849 0.0
O445 O 0.07492 0.70579 0.08186 0.0
O446 O 0.05901 0.6642 0.08981 0.0
C447 C 0.06346 0.77212 0.06577 0.0
O448 O 0.07869 0.77376 0.07435 0.0
C449 C 0.02037 0.58864 0.08767 0.0
C450 C 0.97427 0.58106 0.09382 0.0
C451 C 0.001 0.56621 0.09134 0.0
N452 N 0.0055 0.61526 0.08787 0.0
N453 N 0.97805 0.6106 0.09161 0.0
C454 C 0.05277 0.58542 0.08441 0.0
H455 H 0.06496 0.60726 0.08525 0.0
H456 H 0.05358 0.57893 0.07627 0.0
H457 H 0.06437 0.56759 0.08893 0.0
C458 C 0.02861 0.67806 0.05459 0.0
N459 N 0.03053 0.6803 0.06476 0.0
N460 N 0.01984 0.6554 0.06894 0.0
C461 C 0.00967 0.63688 0.06148 0.0
C462 C 0.01535 0.65057 0.05216 0.0
C463 C 0.03613 0.70324 0.04737 0.0
H464 H 0.01927 0.72171 0.04832 0.0
H465 H 0.05899 0.71238 0.04915 0.0
H466 H 0.03568 0.6956 0.03933 0.0
O467 O 0.00482 0.72637 0.0815 0.0
O468 O 0.98885 0.68358 0.08855 0.0
H469 H 0.97568 0.61129 0.06938 0.0
H470 H 0.98102 0.60025 0.05621 0.0
C471 C 0.99262 0.608 0.06324 0.0
H472 H 0.00873 0.59013 0.0657 0.0
H473 H 0.96174 0.62756 0.09254 0.0
O474 O 0.04753 0.7488 0.06394 0.0
C475 C 0.98647 0.71207 0.08725 0.0
Co476 Co 0.46885 0.71201 0.42796 0.0
Co477 Co 0.49477 0.65239 0.41885 0.0
C478 C 0.43199 0.67537 0.41363 0.0
O479 O 0.4346 0.69793 0.41961 0.0
O480 O 0.45341 0.65611 0.41262 0.0
C481 C 0.44618 0.771 0.4317 0.0
O482 O 0.43943 0.76987 0.42197 0.0
C483 C 0.49763 0.58744 0.41504 0.0
C484 C 0.54522 0.58139 0.41008 0.0
C485 C 0.51839 0.56576 0.41182 0.0
N486 N 0.51156 0.6145 0.41513 0.0
N487 N 0.53993 0.61082 0.41212 0.0
C488 C 0.46585 0.5827 0.41873 0.0
H489 H 0.45909 0.60138 0.42392 0.0
H490 H 0.46375 0.56059 0.42272 0.0
H491 H 0.45017 0.58281 0.41213 0.0
C492 C 0.48665 0.68257 0.44703 0.0
N493 N 0.48285 0.68188 0.4369 0.0
N494 N 0.49431 0.65658 0.43326 0.0
C495 C 0.50605 0.64033 0.44104 0.0
C496 C 0.50155 0.65641 0.45 0.0
C497 C 0.47752 0.70859 0.45369 0.0
H498 H 0.49183 0.72858 0.45185 0.0
H499 H 0.4535 0.71463 0.45215 0.0
H500 H 0.48007 0.70307 0.46188 0.0
O501 O 0.50206 0.72623 0.41891 0.0
O502 O 0.52128 0.68361 0.41271 0.0
H503 H 0.53365 0.604 0.44713 0.0
H504 H 0.5081 0.5935 0.43697 0.0
C505 C 0.52352 0.61147 0.43982 0.0
H506 H 0.54175 0.61476 0.4341 0.0
H507 H 0.55577 0.62839 0.41154 0.0
O508 O 0.45706 0.74759 0.43594 0.0
C509 C 0.52124 0.71241 0.41334 0.0
Co510 Co 0.03796 0.59818 0.92627 0.0
Co511 Co 0.01695 0.65842 0.91587 0.0
C512 C 0.07923 0.6312 0.91227 0.0
O513 O 0.07432 0.60938 0.91841 0.0
O514 O 0.05919 0.65158 0.91066 0.0
C515 C 0.05651 0.53815 0.93198 0.0
O516 O 0.06505 0.53578 0.92243 0.0
C517 C 0.01553 0.72425 0.91193 0.0
C518 C 0.96961 0.72962 0.90539 0.0
C519 C 0.99528 0.74578 0.90819 0.0
N520 N 0.00216 0.69686 0.91147 0.0
N521 N 0.9748 0.70023 0.90751 0.0
C522 C 0.04745 0.72914 0.91549 0.0
H523 H 0.04727 0.73541 0.92366 0.0
H524 H 0.05839 0.74772 0.91113 0.0
H525 H 0.06093 0.70807 0.91469 0.0
C526 C 0.0197 0.63125 0.94457 0.0
N527 N 0.02429 0.63026 0.93448 0.0
N528 N 0.01426 0.65548 0.93031 0.0
C529 C 0.00233 0.67317 0.93772 0.0
C530 C 0.00563 0.65831 0.94696 0.0
C531 C 0.02708 0.60593 0.95175 0.0
H532 H 0.01199 0.58637 0.95011 0.0
H533 H 0.05094 0.59864 0.95059 0.0
H534 H 0.02398 0.61275 0.95981 0.0
O535 O 0.00567 0.58477 0.91674 0.0
O536 O 0.99086 0.62751 0.90933 0.0
H537 H 0.97004 0.70005 0.92953 0.0
H538 H 0.97384 0.71008 0.94284 0.0
C539 C 0.98622 0.70255 0.93593 0.0
H540 H 0.00304 0.72018 0.93384 0.0
H541 H 0.95953 0.68247 0.90634 0.0
O542 O 0.04609 0.56324 0.93513 0.0
C543 C 0.98901 0.59886 0.91038 0.0
H544 H 0.97641 0.52795 0.10528 0.0
H545 H 0.97996 0.47264 0.10581 0.0
H546 H 0.03915 0.47408 0.07968 0.0
H547 H 0.03433 0.52905 0.07875 0.0
H548 H 0.99409 0.43393 0.07748 0.0
H549 H 0.04779 0.41765 0.11522 0.0
H550 H 0.01374 0.43997 0.11573 0.0
H551 H 0.04634 0.4541 0.10898 0.0
C552 C 0.99048 0.5165 0.09972 0.0
C553 C 0.00576 0.53305 0.09214 0.0
C554 C 0.9927 0.48491 0.10009 0.0
C555 C 0.01038 0.46929 0.09293 0.0
C556 C 0.02575 0.48575 0.08538 0.0
H557 H 0.06195 0.28013 0.09312 0.0
H558 H 0.05951 0.33536 0.09472 0.0
C559 C 0.02336 0.51731 0.08495 0.0
C560 C 0.01109 0.4357 0.09283 0.0
H561 H 0.02768 0.37343 0.10724 0.0
C562 C 0.00156 0.4207 0.08397 0.0
C563 C 0.02107 0.41852 0.10128 0.0
C564 C 0.0331 0.43336 0.1108 0.0
C565 C 0.00159 0.38896 0.08333 0.0
C566 C 0.0106 0.37174 0.0919 0.0
C567 C 0.02038 0.38671 0.10074 0.0
C568 C 0.01132 0.33817 0.09165 0.0
C569 C 0.99268 0.37424 0.0734 0.0
C570 C 0.98491 0.32142 0.08961 0.0
C571 C 0.98631 0.28989 0.08857 0.0
C572 C 0.01404 0.27455 0.08981 0.0
C573 C 0.04024 0.29134 0.09217 0.0
C574 C 0.03887 0.32285 0.09312 0.0
H575 H 0.99435 0.39037 0.06693 0.0
H576 H 0.00725 0.35428 0.07174 0.0
H577 H 0.96878 0.36642 0.07389 0.0
H578 H 0.96333 0.3328 0.08858 0.0
H579 H 0.96591 0.27781 0.08642 0.0
H580 H 0.12648 0.91818 0.36009 0.0
H581 H 0.07095 0.91562 0.35959 0.0
H582 H 0.07499 0.87895 0.32922 0.0
H583 H 0.13033 0.88178 0.32962 0.0
H584 H 0.0325 0.9447 0.34581 0.0
H585 H 0.01846 0.81957 0.34413 0.0
H586 H 0.05365 0.8374 0.34786 0.0
H587 H 0.04351 0.83488 0.33465 0.0
C588 C 0.11552 0.90926 0.35335 0.0
C589 C 0.13283 0.89937 0.34501 0.0
C590 C 0.08385 0.90783 0.35308 0.0
C591 C 0.06893 0.89658 0.34444 0.0
C592 C 0.08611 0.88691 0.33606 0.0
H593 H 0.88029 0.92239 0.32731 0.0
H594 H 0.93559 0.92459 0.32866 0.0
C595 C 0.1178 0.88831 0.33634 0.0
C596 C 0.03535 0.8962 0.34404 0.0
H597 H 0.97425 0.84927 0.34132 0.0
C598 C 0.01972 0.92385 0.34486 0.0
C599 C 0.01881 0.86891 0.3429 0.0
C600 C 0.03439 0.83845 0.34243 0.0
C601 C 0.9879 0.92499 0.34444 0.0
C602 C 0.97141 0.8978 0.34301 0.0
C603 C 0.98702 0.87011 0.34233 0.0
C604 C 0.93787 0.89748 0.34236 0.0
C605 C 0.9722 0.9552 0.34567 0.0
C606 C 0.92088 0.88109 0.34951 0.0
C607 C 0.88928 0.87995 0.34879 0.0
C608 C 0.87407 0.89526 0.34092 0.0
C609 C 0.89116 0.91141 0.3337 0.0
C610 C 0.92281 0.91252 0.33442 0.0
H611 H 0.98739 0.97242 0.34917 0.0
H612 H 0.96519 0.9637 0.33808 0.0
H613 H 0.95152 0.95293 0.35044 0.0
H614 H 0.93211 0.86915 0.35566 0.0
H615 H 0.87672 0.86713 0.35443 0.0
H616 H 0.52576 0.02735 0.57774 0.0
H617 H 0.53189 0.97261 0.57972 0.0
H618 H 0.48549 0.97649 0.60858 0.0
H619 H 0.47943 0.03147 0.60667 0.0
H620 H 0.55968 0.93783 0.59525 0.0
H621 H 0.43586 0.91516 0.59186 0.0
H622 H 0.45252 0.95127 0.58857 0.0
H623 H 0.44636 0.94151 0.60167 0.0
C624 C 0.51757 0.01674 0.58463 0.0
C625 C 0.50257 0.03372 0.59214 0.0
C626 C 0.52084 0.98542 0.5857 0.0
C627 C 0.50893 0.97058 0.59425 0.0
C628 C 0.49446 0.98754 0.60186 0.0
H629 H 0.54268 0.77975 0.60878 0.0
H630 H 0.54015 0.8353 0.60958 0.0
C631 C 0.4911 0.01886 0.60077 0.0
C632 C 0.51081 0.93722 0.59498 0.0
H633 H 0.46754 0.87304 0.59504 0.0
C634 C 0.53959 0.9236 0.59526 0.0
C635 C 0.48448 0.91888 0.59487 0.0
C636 C 0.45303 0.93234 0.59414 0.0
C637 C 0.54275 0.89193 0.59536 0.0
C638 C 0.5164 0.87361 0.59533 0.0
C639 C 0.48764 0.88726 0.59513 0.0
C640 C 0.51809 0.84018 0.59496 0.0
C641 C 0.57421 0.87835 0.59518 0.0
C642 C 0.50611 0.82468 0.58656 0.0
C643 C 0.50734 0.7931 0.58612 0.0
C644 C 0.52029 0.77651 0.59414 0.0
C645 C 0.53248 0.79207 0.60252 0.0
C646 C 0.53117 0.82371 0.60297 0.0
H647 H 0.59168 0.89529 0.59296 0.0
H648 H 0.57994 0.86981 0.60288 0.0
H649 H 0.5753 0.85894 0.58981 0.0
H650 H 0.49612 0.83708 0.58028 0.0
H651 H 0.49878 0.78182 0.5794 0.0
H652 H 0.38275 0.42441 0.82643 0.0
H653 H 0.43796 0.42862 0.82727 0.0
H654 H 0.43769 0.38345 0.85637 0.0
H655 H 0.38223 0.37949 0.85564 0.0
H656 H 0.47555 0.45624 0.84231 0.0
H657 H 0.49558 0.33215 0.83858 0.0
H658 H 0.45944 0.34952 0.83573 0.0
H659 H 0.47046 0.34309 0.84871 0.0
C660 C 0.39428 0.4161 0.83313 0.0
C661 C 0.37813 0.40218 0.84108 0.0
C662 C 0.42586 0.41822 0.83355 0.0
C663 C 0.44179 0.40615 0.84184 0.0
C664 C 0.42575 0.39255 0.84984 0.0
H665 H 0.63287 0.43669 0.85546 0.0
H666 H 0.57737 0.43398 0.85625 0.0
C667 C 0.39415 0.3904 0.84943 0.0
C668 C 0.47527 0.4074 0.842 0.0
H669 H 0.5387 0.36301 0.84141 0.0
C670 C 0.48942 0.4359 0.84214 0.0
C671 C 0.49312 0.38076 0.84165 0.0
C672 C 0.47897 0.34961 0.84107 0.0
C673 C 0.52114 0.4385 0.84197 0.0
C674 C 0.539 0.41184 0.8418 0.0
C675 C 0.52484 0.38335 0.84162 0.0
C676 C 0.57246 0.41305 0.84146 0.0
C677 C 0.53528 0.46969 0.84175 0.0
C678 C 0.58796 0.40166 0.83296 0.0
C679 C 0.61958 0.40307 0.83251 0.0
C680 C 0.63619 0.41555 0.84061 0.0
C681 C 0.62059 0.42689 0.84912 0.0
C682 C 0.58896 0.42545 0.84957 0.0
H683 H 0.51856 0.48745 0.8396 0.0
H684 H 0.5442 0.47524 0.84942 0.0
H685 H 0.55454 0.47046 0.8363 0.0
H686 H 0.57552 0.39218 0.8266 0.0
H687 H 0.63081 0.39518 0.82569 0.0
H688 H 0.97022 0.78311 0.89404 0.0
H689 H 0.97263 0.83863 0.89333 0.0
H690 H 0.02876 0.83941 0.92017 0.0
H691 H 0.02561 0.78426 0.92118 0.0
H692 H 0.95468 0.87957 0.91047 0.0
H693 H 0.07464 0.8922 0.89797 0.0
H694 H 0.05298 0.85794 0.89585 0.0
H695 H 0.06797 0.86607 0.90824 0.0
C696 C 0.98328 0.7951 0.89975 0.0
C697 C -0.00151 0.77915 0.9075 0.0
C698 C 0.98463 0.82675 0.89932 0.0
C699 C 0.0013 0.84291 0.90659 0.0
C700 C 0.01638 0.82716 0.91436 0.0
H701 H 0.04423 0.02663 0.92186 0.0
H702 H 0.03967 0.97161 0.92009 0.0
C703 C 0.01485 0.79556 0.91484 0.0
C704 C 0.00188 0.87639 0.9064 0.0
H705 H 0.04937 0.9368 0.9034 0.0
C706 C 0.97524 0.89221 0.90884 0.0
C707 C 0.02881 0.89255 0.90428 0.0
C708 C 0.05774 0.87644 0.90136 0.0
C709 C 0.9751 0.92398 0.9096 0.0
C710 C 0.0022 0.94021 0.90762 0.0
C711 C 0.02865 0.9243 0.90494 0.0
C712 C 0.00411 0.97359 0.90874 0.0
C713 C 0.94632 0.93972 0.91292 0.0
C714 C 0.98574 0.99296 0.90291 0.0
C715 C 0.98813 0.02445 0.90399 0.0
C716 C 0.00911 0.03697 0.91085 0.0
C717 C 0.02776 0.01754 0.91656 0.0
C718 C 0.02519 0.98615 0.91554 0.0
H719 H 0.93015 0.92373 0.91657 0.0
H720 H 0.95134 0.95837 0.91834 0.0
H721 H 0.93496 0.94965 0.90616 0.0
H722 H 0.96993 0.98377 0.8974 0.0
H723 H 0.97415 0.03894 0.89927 0.0
H724 H 0.38894 0.95528 0.1688 0.0
H725 H 0.44396 0.94768 0.16809 0.0
H726 H 0.43042 0.85763 0.15613 0.0
H727 H 0.37523 0.86512 0.15672 0.0
H728 H 0.4767 0.88835 0.17772 0.0
H729 H 0.49084 0.91279 0.13637 0.0
H730 H 0.46048 0.92975 0.14366 0.0
H731 H 0.45923 0.89012 0.14068 0.0
C732 C 0.39767 0.93385 0.16602 0.0
C733 C 0.37783 0.91061 0.16296 0.0
C734 C 0.42902 0.92956 0.16564 0.0
C735 C 0.44101 0.90213 0.16208 0.0
C736 C 0.42139 0.8789 0.15894 0.0
H737 H 0.63026 0.85605 0.15056 0.0
H738 H 0.57464 0.85712 0.15071 0.0
C739 C 0.38994 0.88311 0.15937 0.0
C740 C 0.47417 0.89798 0.16171 0.0
H741 H 0.53516 0.90331 0.14584 0.0
C742 C 0.48957 0.89142 0.17076 0.0
C743 C 0.49058 0.90187 0.15259 0.0
C744 C 0.47465 0.90909 0.14273 0.0
C745 C 0.5213 0.88885 0.17095 0.0
C746 C 0.53792 0.8938 0.16189 0.0
C747 C 0.52235 0.89971 0.15278 0.0
C748 C 0.57151 0.89343 0.16173 0.0
C749 C 0.53666 0.88058 0.18083 0.0
C750 C 0.5881 0.91376 0.16778 0.0
C751 C 0.61979 0.91307 0.16776 0.0
C752 C 0.63543 0.89247 0.16151 0.0
C753 C 0.61876 0.87232 0.15539 0.0
C754 C 0.58705 0.87293 0.15545 0.0
H755 H 0.52078 0.86889 0.18611 0.0
H756 H 0.55657 0.86564 0.17951 0.0
H757 H 0.54466 0.90158 0.18463 0.0
H758 H 0.57653 0.93006 0.17258 0.0
H759 H 0.63194 0.92814 0.17283 0.0
H760 H 0.47998 0.27959 0.39201 0.0
H761 H 0.48117 0.33524 0.39184 0.0
H762 H 0.51868 0.33532 0.42214 0.0
H763 H 0.51678 0.27994 0.42246 0.0
H764 H 0.46839 0.37571 0.41889 0.0
H765 H 0.55945 0.38821 0.38982 0.0
H766 H 0.52798 0.36417 0.38647 0.0
H767 H 0.55298 0.35315 0.39659 0.0
C768 C 0.4886 0.29154 0.3986 0.0
C769 C 0.49912 0.27548 0.40713 0.0
C770 C 0.48939 0.32322 0.39847 0.0
C771 C 0.5005 0.33921 0.40691 0.0
C772 C 0.51039 0.32325 0.41551 0.0
H773 H 0.56032 0.52213 0.4155 0.0
H774 H 0.55432 0.46717 0.41385 0.0
C775 C 0.5097 0.29162 0.41563 0.0
C776 C 0.50146 0.37265 0.40688 0.0
H777 H 0.53729 0.43324 0.39609 0.0
C778 C 0.4833 0.38837 0.41388 0.0
C779 C 0.52113 0.38887 0.40036 0.0
C780 C 0.54171 0.37285 0.39292 0.0
C781 C 0.48449 0.42008 0.4146 0.0
C782 C 0.50416 0.4363 0.40808 0.0
C783 C 0.52213 0.4206 0.40102 0.0
C784 C 0.50759 0.46951 0.40884 0.0
C785 C 0.46542 0.43593 0.42252 0.0
C786 C 0.4834 0.48888 0.40642 0.0
C787 C 0.48677 0.52026 0.40734 0.0
C788 C 0.51436 0.53266 0.41076 0.0
C789 C 0.53874 0.51317 0.41294 0.0
C790 C 0.53536 0.48184 0.412 0.0
H791 H 0.45593 0.41979 0.42818 0.0
H792 H 0.47901 0.45332 0.4266 0.0
H793 H 0.4462 0.44764 0.41873 0.0
H794 H 0.46202 0.47971 0.40374 0.0
H795 H 0.46799 0.53472 0.4052 0.0
H796 H 0.87928 0.42785 0.64187 0.0
H797 H 0.93494 0.42799 0.64196 0.0
H798 H 0.9345 0.4029 0.67368 0.0
H799 H 0.87906 0.40232 0.67357 0.0
H800 H 0.97323 0.4627 0.65306 0.0
H801 H 0.99247 0.34119 0.66202 0.0
H802 H 0.95589 0.35561 0.65818 0.0
H803 H 0.96858 0.35992 0.67111 0.0
C804 C 0.89116 0.42194 0.64881 0.0
C805 C 0.87497 0.41421 0.65763 0.0
C806 C 0.92286 0.42211 0.64886 0.0
C807 C 0.93883 0.41485 0.65777 0.0
C808 C 0.92264 0.40759 0.66664 0.0
H809 H 0.1295 0.42093 0.67417 0.0
H810 H 0.0741 0.4263 0.67421 0.0
C811 C 0.89096 0.40711 0.66655 0.0
C812 C 0.9724 0.41594 0.65788 0.0
H813 H 0.03558 0.37364 0.6629 0.0
C814 C 0.98687 0.44319 0.65517 0.0
C815 C 0.99012 0.39041 0.66061 0.0
C816 C 0.97601 0.36005 0.66305 0.0
C817 C 0.01862 0.44564 0.65522 0.0
C818 C 0.03614 0.42029 0.65809 0.0
C819 C 0.02182 0.39309 0.66081 0.0
C820 C 0.06954 0.42103 0.65793 0.0
C821 C 0.03342 0.4752 0.65225 0.0
C822 C 0.08502 0.41662 0.64875 0.0
C823 C 0.11656 0.4136 0.64871 0.0
C824 C 0.13299 0.41533 0.65784 0.0
C825 C 0.11749 0.42062 0.667 0.0
C826 C 0.08588 0.42334 0.66704 0.0
H827 H 0.01656 0.49362 0.65108 0.0
H828 H 0.04978 0.48231 0.65822 0.0
H829 H 0.04639 0.47199 0.64509 0.0
H830 H 0.0726 0.41447 0.64167 0.0
H831 H 0.12807 0.40923 0.64157 0.0
H832 H 0.96885 0.09923 0.04017 0.0
H833 H 0.9739 0.10265 0.02191 0.0
H834 H 0.03395 0.17943 0.02538 0.0
H835 H 0.03237 0.17306 0.04387 0.0
H836 H 0.95635 0.14068 0.00998 0.0
H837 H 0.08067 0.13738 0.00442 0.0
H838 H 0.06345 0.12975 0.01658 0.0
H839 H 0.07016 0.16829 0.01253 0.0
C840 C 0.98423 0.116 0.03711 0.0
C841 C 0.00089 0.13526 0.04354 0.0
C842 C 0.98665 0.11837 0.02659 0.0
C843 C 0.00479 0.14095 0.02214 0.0
C844 C 0.02065 0.16107 0.02855 0.0
H845 H 0.96284 0.19925 0.96127 0.0
H846 H 0.96753 0.19155 0.97944 0.0
C847 C 0.01917 0.15788 0.03915 0.0
C848 C 0.00516 0.14422 0.01085 0.0
H849 H 0.05112 0.15427 0.99017 0.0
C850 C 0.97723 0.14322 0.00569 0.0
C851 C 0.03228 0.14702 0.00511 0.0
C852 C 0.06331 0.14531 0.00995 0.0
C853 C 0.97557 0.14503 0.99507 0.0
C854 C 0.00241 0.15024 0.98941 0.0
C855 C 0.03045 0.15079 0.9945 0.0
C856 C 0.00155 0.15623 0.97828 0.0
C857 C 0.94498 0.14044 0.9901 0.0
C858 C 0.02054 0.1404 0.9715 0.0
C859 C 0.01911 0.14613 0.96101 0.0
C860 C -0.00161 0.16746 0.95715 0.0
C861 C 0.97957 0.1832 0.96397 0.0
C862 C 0.9817 0.17825 0.9744 0.0
H863 H 0.93033 0.12533 0.99476 0.0
H864 H 0.9332 0.16262 0.98948 0.0
H865 H 0.94716 0.13039 0.9824 0.0
H866 H 0.03632 0.12351 0.9743 0.0
H867 H 0.03428 0.13402 0.95596 0.0
H868 H 0.21697 0.87739 0.29243 0.0
H869 H 0.2183 0.89003 0.27426 0.0
H870 H 0.27505 0.96743 0.28076 0.0
H871 H 0.27404 0.95444 0.29892 0.0
H872 H 0.20743 0.94193 0.26144 0.0
H873 H 0.32942 0.90942 0.26397 0.0
H874 H 0.30282 0.90194 0.2741 0.0
H875 H 0.31717 0.93965 0.27218 0.0
C876 C 0.22852 0.89785 0.28999 0.0
C877 C 0.24512 0.91519 0.29697 0.0
C878 C 0.22948 0.90495 0.27964 0.0
C879 C 0.24724 0.92933 0.27618 0.0
C880 C 0.26153 0.94832 0.28328 0.0
H881 H 0.25869 0.95732 0.2099 0.0
H882 H 0.25961 0.97012 0.22811 0.0
C883 C 0.26064 0.94116 0.29363 0.0
C884 C 0.25393 0.93215 0.26519 0.0
H885 H 0.31013 0.91996 0.24774 0.0
C886 C 0.22995 0.93767 0.25842 0.0
C887 C 0.28333 0.92608 0.26131 0.0
C888 C 0.3097 0.9187 0.26823 0.0
C889 C 0.2344 0.93651 0.24785 0.0
C890 C 0.2637 0.92999 0.24399 0.0
C891 C 0.28784 0.92533 0.25075 0.0
C892 C 0.26874 0.92416 0.23303 0.0
C893 C 0.20742 0.9406 0.24091 0.0
C894 C 0.27533 0.89452 0.22981 0.0
C895 C 0.27509 0.88733 0.21947 0.0
C896 C 0.26857 0.90975 0.21224 0.0
C897 C 0.26423 0.93985 0.21539 0.0
C898 C 0.26439 0.94706 0.22575 0.0
H899 H 0.1856 0.94074 0.24515 0.0
H900 H 0.20955 0.96251 0.23681 0.0
H901 H 0.20663 0.9222 0.23514 0.0
H902 H 0.27875 0.87654 0.23531 0.0
H903 H 0.27795 0.8639 0.21717 0.0
H904 H 0.55106 0.12995 0.53578 0.0
H905 H 0.53864 0.12816 0.51762 0.0
H906 H 0.44529 0.14955 0.52452 0.0
H907 H 0.45788 0.1515 0.54275 0.0
H908 H 0.49509 0.09661 0.5054 0.0
H909 H 0.47576 0.22146 0.50683 0.0
H910 H 0.49374 0.20102 0.51709 0.0
H911 H 0.45342 0.19849 0.51531 0.0
C912 C 0.52772 0.1332 0.53341 0.0
C913 C 0.50532 0.14059 0.54056 0.0
C914 C 0.52066 0.13235 0.52307 0.0
C915 C 0.49116 0.1392 0.51974 0.0
C916 C 0.46826 0.14456 0.52695 0.0
H917 H 0.46186 0.13063 0.45364 0.0
H918 H 0.44931 0.1291 0.47184 0.0
C919 C 0.47534 0.14532 0.53732 0.0
C920 C 0.48554 0.14341 0.50872 0.0
H921 H 0.47454 0.19836 0.49075 0.0
C922 C 0.49005 0.11871 0.50218 0.0
C923 C 0.47941 0.17244 0.50458 0.0
C924 C 0.47549 0.2 0.51127 0.0
C925 C 0.48956 0.12239 0.49158 0.0
C926 C 0.48394 0.15152 0.48743 0.0
C927 C 0.4785 0.17605 0.49397 0.0
C928 C 0.48711 0.15742 0.47639 0.0
C929 C 0.49675 0.09542 0.48491 0.0
C930 C 0.51127 0.17542 0.47289 0.0
C931 C 0.51811 0.17665 0.46252 0.0
C932 C 0.50071 0.16011 0.45554 0.0
C933 C 0.4752 0.14395 0.45893 0.0
C934 C 0.46828 0.14279 0.4693 0.0
H935 H 0.50596 0.07603 0.48935 0.0
H936 H 0.47571 0.08772 0.48105 0.0
H937 H 0.51351 0.10166 0.47896 0.0
H938 H 0.52607 0.18687 0.47824 0.0
H939 H 0.53823 0.18872 0.46004 0.0
H940 H 0.22792 0.42564 0.70842 0.0
H941 H 0.2262 0.42012 0.72699 0.0
H942 H 0.26921 0.33248 0.72451 0.0
H943 H 0.27136 0.33831 0.70596 0.0
H944 H 0.20524 0.37658 0.74149 0.0
H945 H 0.33123 0.38521 0.74009 0.0
H946 H 0.30753 0.39335 0.72923 0.0
H947 H 0.31492 0.35473 0.73283 0.0
C948 C 0.23585 0.40473 0.71185 0.0
C949 C 0.24967 0.38233 0.70586 0.0
C950 C 0.23508 0.40165 0.72243 0.0
C951 C 0.24819 0.37618 0.72712 0.0
C952 C 0.25944 0.35252 0.72104 0.0
H953 H 0.24781 0.3578 0.79367 0.0
H954 H 0.24728 0.34412 0.77554 0.0
C955 C 0.26032 0.35566 0.71047 0.0
C956 C 0.25312 0.37611 0.73826 0.0
H957 H 0.30885 0.38126 0.75628 0.0
C958 C 0.22786 0.37722 0.74475 0.0
C959 C 0.28272 0.37751 0.74246 0.0
C960 C 0.31071 0.3779 0.73582 0.0
C961 C 0.23139 0.37998 0.75532 0.0
C962 C 0.26099 0.38128 0.75951 0.0
C963 C 0.28624 0.37983 0.75304 0.0
C964 C 0.26601 0.38695 0.77048 0.0
C965 C 0.20346 0.38279 0.76191 0.0
C966 C 0.27826 0.41481 0.77363 0.0
C967 C 0.27883 0.42245 0.78394 0.0
C968 C 0.26752 0.40216 0.79122 0.0
C969 C 0.25717 0.37348 0.78815 0.0
C970 C 0.25651 0.36586 0.77782 0.0
H971 H 0.18263 0.38688 0.75735 0.0
H972 H 0.20027 0.36147 0.76627 0.0
H973 H 0.20611 0.40163 0.76745 0.0
H974 H 0.28571 0.43138 0.76808 0.0
H975 H 0.28628 0.44491 0.78618 0.0
H976 H 0.78832 0.45766 0.79416 0.0
H977 H 0.78875 0.47215 0.77615 0.0
H978 H 0.72564 0.39981 0.76957 0.0
H979 H 0.72471 0.38599 0.78762 0.0
H980 H 0.81036 0.43566 0.76187 0.0
H981 H 0.69266 0.46578 0.75158 0.0
H982 H 0.70532 0.46398 0.76463 0.0
H983 H 0.6939 0.42999 0.75804 0.0
C984 C 0.77359 0.44581 0.78889 0.0
C985 C 0.75607 0.42113 0.79219 0.0
C986 C 0.77401 0.45389 0.77862 0.0
C987 C 0.75701 0.43728 0.7715 0.0
C988 C 0.73832 0.41351 0.77493 0.0
H989 H 0.7925 0.37556 0.71249 0.0
H990 H 0.79548 0.38992 0.73043 0.0
C991 C 0.73777 0.40557 0.78522 0.0
C992 C 0.76196 0.44187 0.76043 0.0
H993 H 0.72454 0.44769 0.73781 0.0
C994 C 0.79164 0.43895 0.75662 0.0
C995 C 0.73771 0.44663 0.75357 0.0
C996 C 0.70568 0.45211 0.75718 0.0
C997 C 0.79743 0.4387 0.74613 0.0
C998 C 0.77283 0.44081 0.73926 0.0
C999 C 0.74342 0.44574 0.74307 0.0
C1000 C 0.77645 0.43479 0.72823 0.0
C1001 C 0.82978 0.43552 0.74251 0.0
C1002 C 0.76521 0.45535 0.72098 0.0
C1003 C 0.76357 0.44709 0.71072 0.0
C1004 C 0.7731 0.41817 0.7076 0.0
C1005 C 0.78583 0.39827 0.71473 0.0
C1006 C 0.78748 0.40649 0.72497 0.0
H1007 H 0.84596 0.44507 0.74815 0.0
H1008 H 0.8352 0.41109 0.74158 0.0
H1009 H 0.83331 0.44707 0.7351 0.0
H1010 H 0.75632 0.47717 0.72333 0.0
H1011 H 0.75299 0.46242 0.70534 0.0
H1012 H 0.77974 0.94677 0.21214 0.0
H1013 H 0.77262 0.93864 0.23035 0.0
H1014 H 0.73503 0.85003 0.22433 0.0
H1015 H 0.74286 0.85795 0.20595 0.0
H1016 H 0.71942 0.92627 0.24123 0.0
H1017 H 0.80419 0.83307 0.24486 0.0
H1018 H 0.80236 0.85729 0.2338 0.0
H1019 H 0.77462 0.82794 0.23558 0.0
C1020 C 0.76996 0.92555 0.2147 0.0
C1021 C 0.76202 0.90287 0.2077 0.0
C1022 C 0.76581 0.92097 0.22509 0.0
C1023 C 0.75373 0.89357 0.2287 0.0
C1024 C 0.74487 0.87113 0.2217 0.0
H1025 H 0.71658 0.85554 0.29299 0.0
H1026 H 0.7206 0.84945 0.27444 0.0
C1027 C 0.74902 0.87577 0.21124 0.0
C1028 C 0.75077 0.88902 0.23982 0.0
H1029 H 0.78047 0.84977 0.25993 0.0
C1030 C 0.73252 0.90934 0.24531 0.0
C1031 C 0.768 0.86695 0.24511 0.0
C1032 C 0.7886 0.84514 0.23958 0.0
C1033 C 0.73156 0.90864 0.25596 0.0
C1034 C 0.74946 0.88724 0.26125 0.0
C1035 C 0.76691 0.8662 0.2558 0.0
C1036 C 0.75097 0.88756 0.27246 0.0
C1037 C 0.71187 0.93118 0.26154 0.0
C1038 C 0.76759 0.91031 0.27745 0.0
C1039 C 0.7654 0.9137 0.28799 0.0
C1040 C 0.74646 0.89447 0.29363 0.0
C1041 C 0.73131 0.87057 0.28873 0.0
C1042 C 0.73358 0.8671 0.27818 0.0
H1043 H 0.69596 0.94316 0.25636 0.0
H1044 H 0.69854 0.91959 0.26757 0.0
H1045 H 0.72653 0.94835 0.26529 0.0
H1046 H 0.78112 0.92627 0.27312 0.0
H1047 H 0.7771 0.93237 0.29165 0.0
H1048 H 0.54789 0.68529 0.45934 0.0
H1049 H 0.55985 0.6843 0.47754 0.0
H1050 H 0.49176 0.61514 0.48205 0.0
H1051 H 0.48041 0.61571 0.46378 0.0
H1052 H 0.51894 0.7011 0.49137 0.0
H1053 H 0.55836 0.58529 0.50067 0.0
H1054 H 0.55741 0.59955 0.48779 0.0
H1055 H 0.5235 0.58472 0.49362 0.0
C1056 C 0.53641 0.66908 0.4642 0.0
C1057 C 0.51353 0.65033 0.46025 0.0
C1058 C 0.54309 0.66863 0.47458 0.0
C1059 C 0.52689 0.64949 0.48117 0.0
C1060 C 0.50508 0.62956 0.4771 0.0
H1061 H 0.46034 0.67442 0.54068 0.0
H1062 H 0.47295 0.6766 0.52256 0.0
C1063 C 0.49855 0.62989 0.46668 0.0
C1064 C 0.5296 0.65342 0.49234 0.0
H1065 H 0.53762 0.61447 0.51461 0.0
C1066 C 0.5236 0.68225 0.49644 0.0
C1067 C 0.53603 0.62898 0.49897 0.0
C1068 C 0.54451 0.59798 0.49503 0.0
C1069 C 0.5222 0.6869 0.50698 0.0
C1070 C 0.52639 0.66197 0.51359 0.0
C1071 C 0.53411 0.63352 0.50952 0.0
C1072 C 0.52014 0.66427 0.52464 0.0
C1073 C 0.51564 0.71835 0.51094 0.0
C1074 C 0.54253 0.65678 0.53182 0.0
C1075 C 0.53531 0.6557 0.54219 0.0
C1076 C 0.5056 0.66184 0.54544 0.0
C1077 C 0.48352 0.67019 0.5383 0.0
C1078 C 0.49072 0.67142 0.52798 0.0
H1079 H 0.52261 0.73603 0.50538 0.0
H1080 H 0.49085 0.72074 0.51223 0.0
H1081 H 0.52751 0.72257 0.51826 0.0
H1082 H 0.56528 0.65094 0.52938 0.0
H1083 H 0.55247 0.64866 0.5476 0.0
H1084 H 0.03493 0.69124 0.96124 0.0
H1085 H 0.02444 0.69013 0.97956 0.0
H1086 H 0.94184 0.64026 0.97393 0.0
H1087 H 0.95264 0.64107 0.9556 0.0
H1088 H 0.9752 0.70543 0.99291 0.0
H1089 H 0.99616 0.58107 0.9902 0.0
H1090 H 0.00487 0.6068 0.97994 0.0
H1091 H 0.96625 0.5959 0.98234 0.0
C1092 C 0.01392 0.68125 0.96392 0.0
C1093 C 0.99435 0.66657 0.95711 0.0
C1094 C 0.00803 0.6804 0.97436 0.0
C1095 C 0.98264 0.66464 0.97809 0.0
C1096 C 0.96173 0.65221 0.9712 0.0
H1097 H 0.95841 0.65628 0.04455 0.0
H1098 H 0.9446 0.65627 0.02642 0.0
C1099 C 0.96767 0.653 0.96076 0.0
C1100 C 0.98031 0.65824 0.98912 0.0
H1101 H 0.98868 0.60124 0.00653 0.0
C1102 C 0.97763 0.68263 0.99591 0.0
C1103 C 0.98396 0.62844 0.99298 0.0
C1104 C 0.98821 0.6015 0.98602 0.0
C1105 C 0.97926 0.67813 0.00647 0.0
C1106 C 0.98331 0.64838 0.01031 0.0
C1107 C 0.9852 0.62391 0.00353 0.0
C1108 C 0.98927 0.64285 0.02124 0.0
C1109 C 0.97825 0.70539 0.01342 0.0
C1110 C 0.01835 0.63359 0.02431 0.0
C1111 C 0.02609 0.63331 0.0346 0.0
C1112 C 0.00475 0.64196 0.04195 0.0
C1113 C 0.975 0.64903 0.03897 0.0
C1114 C 0.96725 0.64939 0.02864 0.0
H1115 H 0.98 0.72709 0.00915 0.0
H1116 H 0.95646 0.70543 0.01765 0.0
H1117 H 0.99698 0.7044 0.01906 0.0
H1118 H 0.03565 0.62846 0.0187 0.0
H1119 H 0.0493 0.62836 0.03678 0.0
H1120 H 0.14177 0.95323 0.17027 0.0
H1121 H 0.11308 0.98888 0.15972 0.0
H1122 H 0.18975 0.99749 0.1395 0.0
H1123 H 0.21894 0.96288 0.1502 0.0
H1124 H 0.16134 0.05129 0.14197 0.0
H1125 H 0.07707 0.96122 0.13321 0.0
H1126 H 0.08003 0.96996 0.14649 0.0
H1127 H 0.11186 0.95347 0.13993 0.0
C1128 C 0.15262 0.96297 0.16363 0.0
C1129 C 0.18249 0.9549 0.16099 0.0
C1130 C 0.13615 0.98323 0.15759 0.0
C1131 C 0.14901 0.99525 0.14868 0.0
C1132 C 0.17931 0.98838 0.14631 0.0
H1133 H 0.05533 0.04639 0.09461 0.0
H1134 H 0.08733 0.02464 0.10785 0.0
C1135 C 0.19594 0.96851 0.15242 0.0
C1136 C 0.13053 0.01336 0.14146 0.0
H1137 H 0.06803 0.00947 0.1262 0.0
C1138 C 0.14086 0.04224 0.13853 0.0
C1139 C 0.10404 0.00132 0.1369 0.0
C1140 C 0.0927 0.9697 0.1392 0.0
C1141 C 0.12568 0.05921 0.13104 0.0
C1142 C 0.09907 0.04722 0.12655 0.0
C1143 C 0.08842 0.01866 0.12966 0.0
C1144 C 0.08268 0.06268 0.11816 0.0
C1145 C 0.13891 0.08921 0.12774 0.0
C1146 C 0.07003 0.09173 0.11942 0.0
C1147 C 0.05207 0.1045 0.11173 0.0
C1148 C 0.046 0.08809 0.10279 0.0
C1149 C 0.05944 0.05947 0.10145 0.0
C1150 C 0.0777 0.047 0.10902 0.0
H1151 H 0.16313 0.09143 0.12999 0.0
H1152 H 0.13718 0.09209 0.11937 0.0
H1153 H 0.12609 0.1079 0.13141 0.0
H1154 H 0.07303 0.10401 0.12648 0.0
H1155 H 0.04174 0.1265 0.11299 0.0
H1156 H 0.29763 0.93631 0.36166 0.0
H1157 H 0.32872 0.96734 0.37301 0.0
H1158 H 0.40159 0.96608 0.35107 0.0
H1159 H 0.37112 0.93393 0.33989 0.0
H1160 H 0.42307 0.95569 0.36926 0.0
H1161 H 0.34729 0.05566 0.37156 0.0
H1162 H 0.32865 0.02152 0.37554 0.0
H1163 H 0.34114 0.0254 0.36256 0.0
C1164 C 0.32018 0.94287 0.35922 0.0
C1165 C 0.33187 0.93277 0.34986 0.0
C1166 C 0.33788 0.96078 0.36569 0.0
C1167 C 0.36732 0.96959 0.36282 0.0
C1168 C 0.37892 0.95967 0.35344 0.0
H1169 H 0.47217 0.11209 0.39143 0.0
H1170 H 0.44024 0.08084 0.38046 0.0
C1171 C 0.36145 0.94134 0.34705 0.0
C1172 C 0.38651 0.98814 0.36973 0.0
H1173 H 0.38816 0.05397 0.38341 0.0
C1174 C 0.41549 0.97727 0.37231 0.0
C1175 C 0.37681 0.01649 0.37362 0.0
C1176 C 0.34691 0.03061 0.37059 0.0
C1177 C 0.43498 0.99385 0.37867 0.0
C1178 C 0.42479 0.02161 0.38289 0.0
C1179 C 0.39585 0.03253 0.38028 0.0
C1180 C 0.44416 0.04033 0.38969 0.0
C1181 C 0.46659 0.98181 0.38054 0.0
C1182 C 0.45674 0.02813 0.39862 0.0
C1183 C 0.4755 0.04584 0.40483 0.0
C1184 C 0.48139 0.07632 0.40235 0.0
C1185 C 0.46805 0.08871 0.39357 0.0
C1186 C 0.44976 0.07086 0.38729 0.0
H1187 H 0.47375 0.96581 0.37446 0.0
H1188 H 0.48344 0.00051 0.38095 0.0
H1189 H 0.46696 0.96928 0.38786 0.0
H1190 H 0.45202 0.00493 0.40082 0.0
H1191 H 0.48516 0.03575 0.41161 0.0
H1192 H 0.44922 0.19326 0.60163 0.0
H1193 H 0.41392 0.22346 0.61166 0.0
H1194 H 0.42792 0.2997 0.59161 0.0
H1195 H 0.46434 0.2699 0.58173 0.0
H1196 H 0.43341 0.31704 0.61032 0.0
H1197 H 0.32823 0.24949 0.60797 0.0
H1198 H 0.35896 0.22637 0.61239 0.0
H1199 H 0.36035 0.24242 0.59978 0.0
C1200 C 0.44446 0.21631 0.59924 0.0
C1201 C 0.45967 0.2292 0.59089 0.0
C1202 C 0.424 0.23349 0.60495 0.0
C1203 C 0.41775 0.26372 0.6023 0.0
C1204 C 0.43224 0.27638 0.59378 0.0
H1205 H 0.28473 0.36782 0.63802 0.0
H1206 H 0.30947 0.34005 0.62414 0.0
C1207 C 0.45307 0.25933 0.58814 0.0
C1208 C 0.39859 0.28286 0.60903 0.0
H1209 H 0.33203 0.28366 0.62237 0.0
C1210 C 0.41103 0.30993 0.61281 0.0
C1211 C 0.36913 0.274 0.61217 0.0
C1212 C 0.35329 0.24665 0.60776 0.0
C1213 C 0.39552 0.32758 0.62 0.0
C1214 C 0.36722 0.31735 0.62378 0.0
C1215 C 0.35402 0.29114 0.61963 0.0
C1216 C 0.35161 0.33304 0.63228 0.0
C1217 C 0.40971 0.35701 0.62346 0.0
C1218 C 0.36672 0.33748 0.64156 0.0
C1219 C 0.35284 0.35356 0.64943 0.0
C1220 C 0.32326 0.36502 0.64826 0.0
C1221 C 0.30756 0.35933 0.63914 0.0
C1222 C 0.32167 0.34352 0.6312 0.0
H1223 H 0.42517 0.36639 0.61756 0.0
H1224 H 0.39218 0.37431 0.62525 0.0
H1225 H 0.42342 0.35281 0.6304 0.0
H1226 H 0.38945 0.32872 0.64269 0.0
H1227 H 0.36539 0.35715 0.65641 0.0
H1228 H 0.03911 0.19044 0.88839 0.0
H1229 H 0.07034 0.21558 0.87545 0.0
H1230 H 0.0788 0.29405 0.89488 0.0
H1231 H 0.04667 0.26965 0.90758 0.0
H1232 H 0.06298 0.3106 0.87655 0.0
H1233 H 0.15975 0.23059 0.87341 0.0
H1234 H 0.12356 0.21325 0.87107 0.0
H1235 H 0.13208 0.22812 0.88349 0.0
C1236 C 0.04805 0.21287 0.88994 0.0
C1237 C 0.0404 0.22813 0.89897 0.0
C1238 C 0.06601 0.22717 0.88256 0.0
C1239 C 0.07721 0.25663 0.88422 0.0
C1240 C 0.07037 0.27138 0.8934 0.0
H1241 H 0.21671 0.35707 0.85355 0.0
H1242 H 0.18623 0.32338 0.86415 0.0
C1243 C 0.05204 0.25738 0.90067 0.0
C1244 C 0.09441 0.27317 0.87623 0.0
H1245 H 0.15806 0.27078 0.86142 0.0
C1246 C 0.08379 0.30187 0.87325 0.0
C1247 C 0.12164 0.26185 0.87196 0.0
C1248 C 0.13513 0.2319 0.8752 0.0
C1249 C 0.0999 0.31989 0.86631 0.0
C1250 C 0.12686 0.30839 0.86189 0.0
C1251 C 0.13723 0.27944 0.86473 0.0
C1252 C 0.14574 0.32696 0.85489 0.0
C1253 C 0.08848 0.35156 0.86415 0.0
C1254 C 0.1334 0.33961 0.846 0.0
C1255 C 0.15064 0.3594 0.84 0.0
C1256 C 0.18078 0.3663 0.84267 0.0
C1257 C 0.19355 0.35231 0.85128 0.0
C1258 C 0.17616 0.33296 0.85735 0.0
H1259 H 0.07265 0.35962 0.87016 0.0
H1260 H 0.10756 0.36794 0.86358 0.0
H1261 H 0.07597 0.35161 0.85683 0.0
H1262 H 0.11026 0.33461 0.84377 0.0
H1263 H 0.14029 0.36948 0.83334 0.0
H1264 H 0.87376 0.20934 0.91542 0.0
H1265 H 0.83148 0.22051 0.90399 0.0
H1266 H 0.87652 0.17117 0.87997 0.0
H1267 H 0.9179 0.15855 0.89157 0.0
H1268 H 0.842 0.25597 0.88907 0.0
H1269 H 0.79121 0.15295 0.87248 0.0
H1270 H 0.81446 0.15167 0.88379 0.0
H1271 H 0.83172 0.15161 0.87135 0.0
C1272 C 0.87393 0.19978 0.90782 0.0
C1273 C 0.89912 0.18326 0.90434 0.0
C1274 C 0.84978 0.20619 0.90129 0.0
C1275 C 0.85069 0.19677 0.89108 0.0
C1276 C 0.87476 0.17815 0.88784 0.0
H1277 H 0.81641 0.28023 0.83554 0.0
H1278 H 0.82512 0.24281 0.84889 0.0
C1279 C 0.89859 0.17108 0.89447 0.0
C1280 C 0.83041 0.21145 0.88348 0.0
H1281 H 0.7889 0.19867 0.86192 0.0
C1282 C 0.82967 0.24332 0.88333 0.0
C1283 C 0.81452 0.19509 0.87589 0.0
C1284 C 0.81278 0.16093 0.87596 0.0
C1285 C 0.81504 0.25925 0.87553 0.0
C1286 C 0.80045 0.24292 0.86768 0.0
C1287 C 0.80006 0.21108 0.86798 0.0
C1288 C 0.78894 0.259 0.85858 0.0
C1289 C 0.81689 0.29349 0.87544 0.0
C1290 C 0.76451 0.2793 0.85936 0.0
C1291 C 0.75949 0.30091 0.85175 0.0
C1292 C 0.77897 0.30253 0.84328 0.0
C1293 C 0.80124 0.27992 0.84203 0.0
C1294 C 0.80618 0.25835 0.84963 0.0
H1295 H 0.83252 0.3024 0.88136 0.0
H1296 H 0.82474 0.30172 0.8679 0.0
H1297 H 0.79399 0.30313 0.87685 0.0
H1298 H 0.75085 0.27998 0.86621 0.0
H1299 H 0.74195 0.31779 0.85292 0.0
H1300 H 0.62555 0.21924 0.58667 0.0
H1301 H 0.66117 0.231 0.60033 0.0
H1302 H 0.6179 0.16463 0.61956 0.0
H1303 H 0.58207 0.15258 0.60592 0.0
H1304 H 0.61794 0.22524 0.62697 0.0
H1305 H 0.73352 0.19003 0.61516 0.0
H1306 H 0.71235 0.20983 0.60554 0.0
H1307 H 0.69945 0.17338 0.60989 0.0
C1308 C 0.62409 0.20648 0.5937 0.0
C1309 C 0.60073 0.18518 0.59523 0.0
C1310 C 0.64467 0.2131 0.60148 0.0
C1311 C 0.64231 0.19854 0.61093 0.0
C1312 C 0.62024 0.17592 0.61229 0.0
H1313 H 0.70286 0.27704 0.66859 0.0
H1314 H 0.68645 0.23813 0.65651 0.0
C1315 C 0.59978 0.16909 0.60447 0.0
C1316 C 0.65927 0.21063 0.61978 0.0
H1317 H 0.73047 0.22707 0.62848 0.0
C1318 C 0.64254 0.22513 0.62744 0.0
C1319 C 0.69132 0.21079 0.62025 0.0
C1320 C 0.71028 0.19496 0.61232 0.0
C1321 C 0.65692 0.24116 0.63528 0.0
C1322 C 0.68909 0.2418 0.6357 0.0
C1323 C 0.70587 0.2264 0.62821 0.0
C1324 C 0.70534 0.26068 0.64332 0.0
C1325 C 0.63739 0.25884 0.64265 0.0
C1326 C 0.72379 0.28478 0.64006 0.0
C1327 C 0.73393 0.30661 0.64699 0.0
C1328 C 0.72544 0.30487 0.65729 0.0
C1329 C 0.70941 0.2792 0.66068 0.0
C1330 C 0.69981 0.25707 0.65377 0.0
H1331 H 0.61388 0.26193 0.63976 0.0
H1332 H 0.63597 0.24633 0.64995 0.0
H1333 H 0.64721 0.2816 0.64416 0.0
H1334 H 0.72859 0.2879 0.63204 0.0
H1335 H 0.74627 0.32609 0.64413 0.0
H1336 H 0.77085 0.99717 0.3534 0.0
H1337 H 0.76442 0.03739 0.36607 0.0
H1338 H 0.68621 0.0707 0.34983 0.0
H1339 H 0.69265 0.03112 0.33708 0.0
H1340 H 0.72112 0.11736 0.36049 0.0
H1341 H 0.69029 0.01734 0.38436 0.0
H1342 H 0.72779 0.01785 0.37898 0.0
H1343 H 0.69533 0.01435 0.3708 0.0
C1344 C 0.75292 0.01368 0.35232 0.0
C1345 C 0.73176 0.01042 0.34438 0.0
C1346 C 0.74926 0.03663 0.35959 0.0
C1347 C 0.72443 0.05653 0.359 0.0
C1348 C 0.70543 0.05545 0.35045 0.0
H1349 H 0.59439 0.15496 0.39107 0.0
H1350 H 0.6353 0.14258 0.3793 0.0
C1351 C 0.70907 0.03263 0.3432 0.0
C1352 C 0.7146 0.07436 0.36796 0.0
H1353 H 0.67913 0.06504 0.39077 0.0
C1354 C 0.71249 0.10608 0.36723 0.0
C1355 C 0.70329 0.05955 0.37672 0.0
C1356 C 0.70402 0.02541 0.37781 0.0
C1357 C 0.69842 0.12331 0.37492 0.0
C1358 C 0.68552 0.10825 0.3834 0.0
C1359 C 0.68913 0.0767 0.38432 0.0
C1360 C 0.66499 0.12349 0.39079 0.0
C1361 C 0.69715 0.15732 0.37378 0.0
C1362 C 0.66816 0.11772 0.40125 0.0
C1363 C 0.64435 0.12401 0.40795 0.0
C1364 C 0.61714 0.13668 0.40434 0.0
C1365 C 0.6152 0.14542 0.39408 0.0
C1366 C 0.63877 0.13851 0.38734 0.0
H1367 H 0.71738 0.16587 0.36962 0.0
H1368 H 0.6768 0.16353 0.36926 0.0
H1369 H 0.69586 0.16887 0.38127 0.0
H1370 H 0.68814 0.10621 0.40412 0.0
H1371 H 0.64651 0.11719 0.41583 0.0
H1372 H 0.79976 0.03595 0.16792 0.0
H1373 H 0.81049 0.07925 0.15687 0.0
H1374 H 0.7703 0.03139 0.13158 0.0
H1375 H 0.75788 0.98906 0.14276 0.0
H1376 H 0.85002 0.07243 0.14322 0.0
H1377 H 0.74881 0.11455 0.12322 0.0
H1378 H 0.74591 0.09124 0.13447 0.0
H1379 H 0.75025 0.0741 0.12209 0.0
C1380 C 0.79197 0.03536 0.1601 0.0
C1381 C 0.77814 0.00918 0.15616 0.0
C1382 C 0.79816 0.06008 0.15378 0.0
C1383 C 0.79131 0.05875 0.14335 0.0
C1384 C 0.7752 0.03353 0.13961 0.0
H1385 H 0.88433 0.08761 0.09013 0.0
H1386 H 0.84492 0.08054 0.10294 0.0
C1387 C 0.76825 0.00913 0.14601 0.0
C1388 C 0.80649 0.07997 0.13614 0.0
H1389 H 0.79689 0.11762 0.11363 0.0
C1390 C 0.83815 0.08315 0.13695 0.0
C1391 C 0.79123 0.09393 0.12789 0.0
C1392 C 0.75712 0.09351 0.12695 0.0
C1393 C 0.85515 0.09783 0.12942 0.0
C1394 C 0.84011 0.10988 0.12082 0.0
C1395 C 0.80833 0.10832 0.12024 0.0
C1396 C 0.85775 0.11976 0.11183 0.0
C1397 C 0.88934 0.09838 0.13036 0.0
C1398 C 0.87692 0.14518 0.1123 0.0
C1399 C 0.89962 0.1493 0.10497 0.0
C1400 C 0.90349 0.1279 0.09713 0.0
C1401 C 0.88222 0.10427 0.09615 0.0
C1402 C 0.85952 0.10028 0.10343 0.0
H1403 H 0.89759 0.08503 0.13697 0.0
H1404 H 0.90001 0.08916 0.12335 0.0
H1405 H 0.89715 0.12215 0.1313 0.0
H1406 H 0.87575 0.16055 0.11872 0.0
H1407 H 0.91554 0.16782 0.10592 0.0
H1408 H 0.63306 0.42509 0.66215 0.0
H1409 H 0.60182 0.45388 0.65014 0.0
H1410 H 0.68264 0.4911 0.63647 0.0
H1411 H 0.71404 0.46234 0.64833 0.0
H1412 H 0.59856 0.51674 0.64614 0.0
H1413 H 0.6375 0.45212 0.61235 0.0
H1414 H 0.64375 0.43912 0.6252 0.0
H1415 H 0.66781 0.46789 0.61981 0.0
C1416 C 0.6442 0.43957 0.65664 0.0
C1417 C 0.67609 0.44118 0.65615 0.0
C1418 C 0.62631 0.45595 0.64977 0.0
C1419 C 0.63998 0.47406 0.64229 0.0
C1420 C 0.67169 0.47667 0.64204 0.0
H1421 H 0.56195 0.61515 0.60517 0.0
H1422 H 0.59136 0.58451 0.61709 0.0
C1423 C 0.68959 0.46035 0.64888 0.0
C1424 C 0.62119 0.49019 0.63468 0.0
H1425 H 0.60884 0.49693 0.60913 0.0
C1426 C 0.60066 0.51233 0.63805 0.0
C1427 C 0.62367 0.484 0.62415 0.0
C1428 C 0.64415 0.45929 0.62014 0.0
C1429 C 0.58317 0.52914 0.63114 0.0
C1430 C 0.58668 0.52391 0.62058 0.0
C1431 C 0.60651 0.50112 0.61723 0.0
C1432 C 0.57006 0.54206 0.61292 0.0
C1433 C 0.56092 0.55222 0.63519 0.0
C1434 C 0.54925 0.52812 0.60633 0.0
C1435 C 0.53248 0.54554 0.59944 0.0
C1436 C 0.53638 0.57721 0.599 0.0
C1437 C 0.55818 0.59087 0.60535 0.0
C1438 C 0.57489 0.57344 0.61222 0.0
H1439 H 0.55525 0.54794 0.6433 0.0
H1440 H 0.57112 0.57518 0.63464 0.0
H1441 H 0.53959 0.55212 0.63068 0.0
H1442 H 0.54543 0.50385 0.60671 0.0
H1443 H 0.51595 0.53426 0.59465 0.0
H1444 H 0.96396 0.61711 0.89241 0.0
H1445 H 0.93345 0.58703 0.88065 0.0
H1446 H 0.93648 0.51128 0.90143 0.0
H1447 H 0.96823 0.54087 0.91304 0.0
H1448 H 0.94774 0.49264 0.883 0.0
H1449 H 0.84581 0.56572 0.88138 0.0
H1450 H 0.87935 0.58621 0.87786 0.0
H1451 H 0.87556 0.57154 0.89059 0.0
C1452 C 0.95784 0.59417 0.89454 0.0
C1453 C 0.96841 0.58141 0.90368 0.0
C1454 C 0.9402 0.57703 0.88783 0.0
C1455 C 0.93211 0.54705 0.89023 0.0
C1456 C 0.94233 0.5344 0.89942 0.0
H1457 H 0.79571 0.44442 0.85725 0.0
H1458 H 0.82424 0.47477 0.86947 0.0
C1459 C 0.96041 0.55135 0.90606 0.0
C1460 C 0.91436 0.52839 0.88293 0.0
H1461 H 0.85004 0.52782 0.86844 0.0
C1462 C 0.92624 0.50023 0.87988 0.0
C1463 C 0.8861 0.53805 0.87894 0.0
C1464 C 0.87081 0.56687 0.88245 0.0
C1465 C 0.91089 0.48168 0.87289 0.0
C1466 C 0.8834 0.49206 0.86851 0.0
C1467 C 0.87132 0.52003 0.87166 0.0
C1468 C 0.86625 0.47389 0.86092 0.0
C1469 C 0.92398 0.45084 0.87049 0.0
C1470 C 0.88016 0.46366 0.85193 0.0
C1471 C 0.864 0.44581 0.84499 0.0
C1472 C 0.83339 0.43851 0.84679 0.0
C1473 C 0.81924 0.44967 0.85562 0.0
C1474 C 0.83554 0.46704 0.86263 0.0
H1475 H 0.93921 0.44274 0.87666 0.0
H1476 H 0.90579 0.43373 0.86934 0.0
H1477 H 0.93765 0.45232 0.86342 0.0
H1478 H 0.90353 0.46944 0.85028 0.0
H1479 H 0.87545 0.43783 0.83821 0.0
H1480 H 0.94186 0.68903 0.09952 0.0
H1481 H 0.90692 0.71719 0.11043 0.0
H1482 H 0.94413 0.80158 0.09945 0.0
H1483 H 0.9788 0.77369 0.08838 0.0
H1484 H 0.92381 0.75459 0.12579 0.0
H1485 H 0.85355 0.81813 0.09809 0.0
H1486 H 0.87705 0.78635 0.09445 0.0
H1487 H 0.89353 0.82338 0.09613 0.0
C1488 C 0.94232 0.7136 0.09929 0.0
C1489 C 0.96322 0.72909 0.09308 0.0
C1490 C 0.92231 0.72964 0.10554 0.0
C1491 C 0.92268 0.76147 0.10568 0.0
C1492 C 0.94297 0.77704 0.09931 0.0
H1493 H 0.87522 0.88268 0.15407 0.0
H1494 H 0.89943 0.84959 0.14162 0.0
C1495 C 0.96293 0.76102 0.09302 0.0
C1496 C 0.9038 0.77829 0.11312 0.0
H1497 H 0.85188 0.83546 0.11538 0.0
C1498 C 0.90783 0.77204 0.1235 0.0
C1499 C 0.88272 0.80081 0.11013 0.0
C1500 C 0.87618 0.80739 0.09909 0.0
C1501 C 0.89215 0.78841 0.13099 0.0
C1502 C 0.87229 0.812 0.12802 0.0
C1503 C 0.86738 0.81755 0.11763 0.0
C1504 C 0.8573 0.83185 0.13559 0.0
C1505 C 0.89703 0.78032 0.14202 0.0
C1506 C 0.82553 0.83331 0.13619 0.0
C1507 C 0.81152 0.85234 0.1433 0.0
C1508 C 0.8291 0.87043 0.14988 0.0
C1509 C 0.86095 0.86897 0.14919 0.0
C1510 C 0.87487 0.84995 0.14209 0.0
H1511 H 0.90575 0.7568 0.14289 0.0
H1512 H 0.91406 0.796 0.14535 0.0
H1513 H 0.87564 0.78252 0.14643 0.0
H1514 H 0.81159 0.81962 0.13119 0.0
H1515 H 0.78695 0.85299 0.1436 0.0
H1516 H 0.63358 0.88682 0.34669 0.0
H1517 H 0.60811 0.85482 0.35917 0.0
H1518 H 0.69476 0.82215 0.3698 0.0
H1519 H 0.72068 0.8545 0.35737 0.0
H1520 H 0.61065 0.79204 0.36119 0.0
H1521 H 0.65214 0.85029 0.39603 0.0
H1522 H 0.65496 0.86706 0.38354 0.0
H1523 H 0.68114 0.83795 0.38735 0.0
C1524 C 0.64734 0.87291 0.35168 0.0
C1525 C 0.67923 0.87335 0.35104 0.0
C1526 C 0.63269 0.85461 0.35881 0.0
C1527 C 0.64954 0.83642 0.36549 0.0
C1528 C 0.68136 0.83645 0.36483 0.0
H1529 H 0.5664 0.69083 0.40098 0.0
H1530 H 0.59963 0.72003 0.38976 0.0
C1531 C 0.69611 0.85482 0.35768 0.0
C1532 C 0.63349 0.81709 0.37298 0.0
H1533 H 0.62208 0.80639 0.39842 0.0
C1534 C 0.61324 0.79505 0.36934 0.0
C1535 C 0.63669 0.82138 0.38359 0.0
C1536 C 0.65719 0.8456 0.38791 0.0
C1537 C 0.59593 0.77724 0.37601 0.0
C1538 C 0.5994 0.78124 0.38663 0.0
C1539 C 0.61972 0.80322 0.39028 0.0
C1540 C 0.58107 0.76367 0.39402 0.0
C1541 C 0.57339 0.75497 0.37164 0.0
C1542 C 0.56042 0.77864 0.40041 0.0
C1543 C 0.54149 0.76206 0.40688 0.0
C1544 C 0.54293 0.73016 0.4071 0.0
C1545 C 0.56447 0.71534 0.40094 0.0
C1546 C 0.58342 0.73196 0.39449 0.0
H1547 H 0.56846 0.75971 0.3635 0.0
H1548 H 0.58287 0.7317 0.37217 0.0
H1549 H 0.55172 0.75551 0.37595 0.0
H1550 H 0.55837 0.80313 0.40018 0.0
H1551 H 0.52527 0.77424 0.41154 0.0
H1552 H 0.42363 0.63891 0.39692 0.0
H1553 H 0.3871 0.6472 0.38316 0.0
H1554 H 0.34483 0.71866 0.4005 0.0
H1555 H 0.38088 0.71047 0.41429 0.0
H1556 H 0.30341 0.6823 0.38746 0.0
H1557 H 0.40584 0.72826 0.36782 0.0
H1558 H 0.4075 0.68968 0.37223 0.0
H1559 H 0.40566 0.72016 0.38126 0.0
C1560 C 0.40598 0.65574 0.39795 0.0
C1561 C 0.40562 0.6745 0.40662 0.0
C1562 C 0.38514 0.66045 0.39007 0.0
C1563 C 0.36367 0.68391 0.39076 0.0
C1564 C 0.3613 0.70051 0.39981 0.0
H1565 H 0.25969 0.81117 0.3588 0.0
H1566 H 0.27444 0.76984 0.37007 0.0
C1567 C 0.38208 0.69587 0.40768 0.0
C1568 C 0.34734 0.69481 0.38162 0.0
H1569 H 0.35901 0.73685 0.36023 0.0
C1570 C 0.31549 0.69375 0.38138 0.0
C1571 C 0.3632 0.70974 0.37372 0.0
C1572 C 0.39741 0.71231 0.37373 0.0
C1573 C 0.29902 0.70805 0.37355 0.0
C1574 C 0.31487 0.72446 0.36597 0.0
C1575 C 0.34677 0.72419 0.36599 0.0
C1576 C 0.29953 0.74498 0.3586 0.0
C1577 C 0.26487 0.70568 0.37359 0.0
C1578 C 0.30809 0.74466 0.3483 0.0
C1579 C 0.30032 0.76875 0.3419 0.0
C1580 C 0.2835 0.79345 0.34564 0.0
C1581 C 0.27249 0.79237 0.35567 0.0
C1582 C 0.28076 0.76853 0.36212 0.0
H1583 H 0.2574 0.68382 0.37698 0.0
H1584 H 0.25534 0.72421 0.37833 0.0
H1585 H 0.25534 0.70753 0.3658 0.0
H1586 H 0.32254 0.72677 0.34538 0.0
H1587 H 0.30897 0.76887 0.33419 0.0
H1588 H 0.24489 0.83425 0.14585 0.0
H1589 H 0.22842 0.79673 0.13328 0.0
H1590 H 0.18368 0.74567 0.15692 0.0
H1591 H 0.19879 0.7839 0.16943 0.0
H1592 H 0.23127 0.73601 0.1295 0.0
H1593 H 0.11312 0.76923 0.13926 0.0
H1594 H 0.14567 0.78909 0.14419 0.0
H1595 H 0.13382 0.75372 0.14979 0.0
C1596 C 0.23214 0.81466 0.14841 0.0
C1597 C 0.22264 0.81226 0.15858 0.0
C1598 C 0.22271 0.79323 0.14121 0.0
C1599 C 0.204 0.7689 0.14411 0.0
C1600 C 0.19726 0.76479 0.15446 0.0
H1601 H 0.08678 0.6555 0.10663 0.0
H1602 H 0.12204 0.66956 0.12021 0.0
C1603 C 0.20609 0.78653 0.16161 0.0
C1604 C 0.18891 0.75001 0.13623 0.0
H1605 H 0.119 0.73135 0.12689 0.0
C1606 C 0.20673 0.73479 0.12897 0.0
C1607 C 0.15682 0.74871 0.13546 0.0
C1608 C 0.13622 0.76628 0.14252 0.0
C1609 C 0.19327 0.71844 0.12095 0.0
C1610 C 0.16129 0.71732 0.12021 0.0
C1611 C 0.14354 0.73191 0.12758 0.0
C1612 C 0.14532 0.70381 0.11138 0.0
C1613 C 0.21326 0.70272 0.11328 0.0
C1614 C 0.14737 0.7178 0.10183 0.0
C1615 C 0.1271 0.71002 0.09407 0.0
C1616 C 0.10437 0.68812 0.09575 0.0
C1617 C 0.10397 0.67246 0.10507 0.0
C1618 C 0.12411 0.68045 0.11285 0.0
H1619 H 0.2366 0.69914 0.11626 0.0
H1620 H 0.2035 0.68045 0.11106 0.0
H1621 H 0.21488 0.71696 0.10634 0.0
H1622 H 0.16323 0.73622 0.10058 0.0
H1623 H 0.12815 0.72246 0.08698 0.0
H1624 H 0.12883 0.59442 0.91448 0.0
H1625 H 0.16642 0.5825 0.90147 0.0
H1626 H 0.12899 0.65187 0.88205 0.0
H1627 H 0.09115 0.66402 0.89503 0.0
H1628 H 0.12566 0.59202 0.87448 0.0
H1629 H 0.24253 0.6183 0.88741 0.0
H1630 H 0.21935 0.5996 0.89675 0.0
H1631 H 0.20935 0.63707 0.89252 0.0
C1632 C 0.12918 0.60789 0.90759 0.0
C1633 C 0.10663 0.62985 0.90573 0.0
C1634 C 0.1509 0.60118 0.90018 0.0
C1635 C 0.15056 0.61636 0.8908 0.0
C1636 C 0.12974 0.64004 0.88927 0.0
H1637 H 0.20883 0.53662 0.83324 0.0
H1638 H 0.19486 0.57587 0.84555 0.0
C1639 C 0.1081 0.64692 0.8967 0.0
C1640 C 0.16739 0.6034 0.88206 0.0
H1641 H 0.23782 0.5819 0.87391 0.0
C1642 C 0.15023 0.59035 0.87423 0.0
C1643 C 0.19937 0.60081 0.88189 0.0
C1644 C 0.21881 0.6149 0.89005 0.0
C1645 C 0.16396 0.57349 0.86646 0.0
C1646 C 0.19601 0.57054 0.86629 0.0
C1647 C 0.21332 0.58438 0.87399 0.0
C1648 C 0.21134 0.55105 0.85864 0.0
C1649 C 0.14371 0.55746 0.85889 0.0
C1650 C 0.22773 0.52538 0.86181 0.0
C1651 C 0.23657 0.50334 0.85474 0.0
C1652 C 0.22873 0.50649 0.84443 0.0
C1653 C 0.21478 0.53346 0.84117 0.0
C1654 C 0.20662 0.55578 0.8482 0.0
H1655 H 0.1199 0.55578 0.86163 0.0
H1656 H 0.14346 0.57037 0.85165 0.0
H1657 H 0.15208 0.53417 0.8573 0.0
H1658 H 0.23185 0.52136 0.86982 0.0
H1659 H 0.24729 0.48277 0.85747 0.0
H1660 H 0.32413 0.52163 0.6712 0.0
H1661 H 0.33839 0.56673 0.6615 0.0
H1662 H 0.27637 0.54053 0.63766 0.0
H1663 H 0.26103 0.49635 0.64752 0.0
H1664 H 0.36739 0.56047 0.64478 0.0
H1665 H 0.26692 0.62974 0.63567 0.0
H1666 H 0.26637 0.6014 0.6456 0.0
H1667 H 0.25975 0.59086 0.63252 0.0
C1668 C 0.31273 0.52613 0.66406 0.0
C1669 C 0.29166 0.50531 0.66008 0.0
C1670 C 0.32088 0.55193 0.65852 0.0
C1671 C 0.30846 0.55722 0.64883 0.0
C1672 C 0.28579 0.53755 0.64519 0.0
H1673 H 0.3757 0.60675 0.59238 0.0
H1674 H 0.34265 0.59636 0.60685 0.0
C1675 C 0.27718 0.51206 0.65083 0.0
C1676 C 0.3231 0.57934 0.64183 0.0
H1677 H 0.30844 0.63167 0.62325 0.0
C1678 C 0.35456 0.57668 0.64031 0.0
C1679 C 0.30645 0.60041 0.6359 0.0
C1680 C 0.27306 0.60596 0.6376 0.0
C1681 C 0.36946 0.59297 0.63265 0.0
C1682 C 0.35251 0.61269 0.62634 0.0
C1683 C 0.32133 0.61652 0.62811 0.0
C1684 C 0.36654 0.62616 0.61717 0.0
C1685 C 0.40294 0.58749 0.63093 0.0
C1686 C 0.38978 0.64779 0.61804 0.0
C1687 C 0.40883 0.6538 0.60977 0.0
C1688 C 0.40496 0.63806 0.60054 0.0
C1689 C 0.37957 0.61897 0.59941 0.0
C1690 C 0.36052 0.61308 0.60767 0.0
H1691 H 0.41189 0.56873 0.63571 0.0
H1692 H 0.40733 0.58195 0.62282 0.0
H1693 H 0.4158 0.60841 0.63279 0.0
H1694 H 0.39463 0.65822 0.62532 0.0
H1695 H 0.42804 0.66878 0.61088 0.0
H1696 H 0.93949 0.02669 0.04806 0.0
H1697 H 0.95408 0.97876 0.03983 0.0
H1698 H 0.96632 0.93764 0.06931 0.0
H1699 H 0.95297 0.98545 0.07751 0.0
H1700 H 0.01591 0.9543 0.0454 0.0
H1701 H 0.92285 0.8716 0.05101 0.0
H1702 H 0.91646 0.9121 0.05013 0.0
H1703 H 0.92911 0.89548 0.06189 0.0
C1704 C 0.94434 0.00708 0.05275 0.0
C1705 C 0.94543 0.00966 0.06341 0.0
C1706 C 0.95271 0.97985 0.04805 0.0
C1707 C 0.96112 0.9548 0.05398 0.0
C1708 C 0.95954 0.95668 0.06462 0.0
H1709 H 0.0794 0.83073 0.07007 0.0
H1710 H 0.0579 0.87596 0.06222 0.0
C1711 C 0.95197 0.98396 0.06929 0.0
C1712 C 0.97631 0.92824 0.04947 0.0
H1713 H 0.97412 0.85136 0.05133 0.0
C1714 C 0.00654 0.93169 0.0463 0.0
C1715 C 0.9639 0.89893 0.05053 0.0
C1716 C 0.93117 0.89423 0.05348 0.0
C1717 C 0.02574 0.90645 0.04537 0.0
C1718 C 0.01425 0.87737 0.04772 0.0
C1719 C 0.98307 0.87373 0.04963 0.0
C1720 C 0.03443 0.85165 0.05024 0.0
C1721 C 0.05856 0.91132 0.04256 0.0
C1722 C 0.0294 0.82309 0.04588 0.0
C1723 C 0.04157 0.79716 0.0504 0.0
C1724 C 0.05859 0.79938 0.05944 0.0
C1725 C 0.06625 0.82824 0.06315 0.0
C1726 C 0.05412 0.85419 0.05861 0.0
H1727 H 0.06107 0.9312 0.03744 0.0
H1728 H 0.07182 0.91603 0.04957 0.0
H1729 H 0.06831 0.89099 0.03879 0.0
H1730 H 0.01425 0.82066 0.03944 0.0
H1731 H 0.03568 0.77526 0.04724 0.0
H1732 H 0.37628 0.87466 0.30118 0.0
H1733 H 0.42046 0.89569 0.29245 0.0
H1734 H 0.47849 0.86216 0.31636 0.0
H1735 H 0.43453 0.84122 0.32516 0.0
H1736 H 0.45304 0.94064 0.30207 0.0
H1737 H 0.53006 0.84766 0.29099 0.0
H1738 H 0.48996 0.84177 0.29322 0.0
H1739 H 0.5163 0.84229 0.30371 0.0
C1740 C 0.39852 0.87103 0.30446 0.0
C1741 C 0.40184 0.85676 0.31398 0.0
C1742 C 0.42375 0.88299 0.29942 0.0
C1743 C 0.45272 0.88038 0.30373 0.0
C1744 C 0.45638 0.86396 0.3128 0.0
H1745 H 0.591 0.97408 0.32396 0.0
H1746 H 0.54153 0.95922 0.31729 0.0
C1747 C 0.43116 0.85217 0.31788 0.0
C1748 C 0.47817 0.8991 0.29992 0.0
H1749 H 0.55453 0.89535 0.2961 0.0
C1750 C 0.47506 0.93079 0.3004 0.0
C1751 C 0.50671 0.88635 0.29755 0.0
C1752 C 0.51088 0.85262 0.29623 0.0
C1753 C 0.5005 0.9498 0.29981 0.0
C1754 C 0.52956 0.93669 0.29876 0.0
C1755 C 0.53219 0.90536 0.29702 0.0
C1756 C 0.5572 0.95332 0.3018 0.0
C1757 C 0.49638 0.98354 0.30109 0.0
C1758 C 0.58218 0.95588 0.29523 0.0
C1759 C 0.61046 0.96501 0.29902 0.0
C1760 C 0.61401 0.97077 0.30946 0.0
C1761 C 0.5886 0.97006 0.31586 0.0
C1762 C 0.56036 0.96165 0.31205 0.0
H1763 H 0.47377 0.99092 0.29827 0.0
H1764 H 0.49775 0.9893 0.3093 0.0
H1765 H 0.51432 0.99638 0.297 0.0
H1766 H 0.58022 0.94914 0.28733 0.0
H1767 H 0.62995 0.96495 0.294 0.0
H1768 H 0.57467 0.32722 0.57363 0.0
H1769 H 0.55309 0.37429 0.5672 0.0
H1770 H 0.51909 0.32727 0.54078 0.0
H1771 H 0.5401 0.2797 0.54728 0.0
H1772 H 0.55203 0.41035 0.5497 0.0
H1773 H 0.44179 0.35081 0.5561 0.0
H1774 H 0.47731 0.33456 0.56017 0.0
H1775 H 0.46757 0.33512 0.5469 0.0
C1776 C 0.56344 0.32696 0.5663 0.0
C1777 C 0.55824 0.29961 0.56112 0.0
C1778 C 0.55114 0.35394 0.56262 0.0
C1779 C 0.53372 0.35399 0.55367 0.0
C1780 C 0.53181 0.32748 0.54783 0.0
H1781 H 0.44797 0.53376 0.55367 0.0
H1782 H 0.46435 0.48774 0.54483 0.0
C1783 C 0.54393 0.30037 0.55155 0.0
C1784 C 0.51396 0.38038 0.55162 0.0
H1785 H 0.44089 0.40353 0.55541 0.0
C1786 C 0.52759 0.40896 0.55061 0.0
C1787 C 0.48206 0.37827 0.55283 0.0
C1788 C 0.46616 0.34814 0.55411 0.0
C1789 C 0.51062 0.43564 0.55181 0.0
C1790 C 0.47912 0.43346 0.55387 0.0
C1791 C 0.46502 0.40496 0.55383 0.0
C1792 C 0.46224 0.45934 0.55822 0.0
C1793 C 0.52705 0.46572 0.55186 0.0
C1794 C 0.45345 0.45795 0.56847 0.0
C1795 C 0.44386 0.48404 0.57353 0.0
C1796 C 0.4431 0.51196 0.56841 0.0
C1797 C 0.44887 0.51264 0.55787 0.0
C1798 C 0.45834 0.48643 0.5528 0.0
H1799 H 0.55206 0.46301 0.5512 0.0
H1800 H 0.51914 0.4797 0.54536 0.0
H1801 H 0.52204 0.47833 0.55898 0.0
H1802 H 0.4561 0.43714 0.57277 0.0
H1803 H 0.43928 0.48267 0.58161 0.0
H1804 H 0.13552 0.4465 0.79688 0.0
H1805 H 0.08904 0.42781 0.78894 0.0
H1806 H 0.03706 0.46109 0.81442 0.0
H1807 H 0.08321 0.48008 0.82233 0.0
H1808 H 0.06011 0.38301 0.79837 0.0
H1809 H 0.9779 0.47463 0.79162 0.0
H1810 H 0.01811 0.48193 0.79293 0.0
H1811 H 0.99409 0.47935 0.80402 0.0
C1812 C 0.11404 0.45078 0.80063 0.0
C1813 C 0.11304 0.46414 0.81035 0.0
C1814 C 0.08751 0.44016 0.79605 0.0
C1815 C 0.0596 0.44301 0.80108 0.0
C1816 C 0.05824 0.45911 0.81029 0.0
H1817 H 0.9338 0.33607 0.82488 0.0
H1818 H 0.97971 0.35332 0.81636 0.0
C1819 C 0.08474 0.46979 0.81486 0.0
C1820 C 0.03342 0.42411 0.79802 0.0
H1821 H 0.95625 0.42621 0.79786 0.0
C1822 C 0.03742 0.39247 0.79789 0.0
C1823 C 0.0039 0.43629 0.79713 0.0
C1824 C -0.00165 0.46996 0.79632 0.0
C1825 C 0.01245 0.3728 0.79819 0.0
C1826 C 0.98296 0.3852 0.79879 0.0
C1827 C 0.97893 0.41665 0.79761 0.0
C1828 C 0.95689 0.36727 0.80253 0.0
C1829 C 0.01799 0.33905 0.79849 0.0
C1830 C 0.92892 0.36845 0.79746 0.0
C1831 C 0.90254 0.35882 0.80237 0.0
C1832 C 0.90374 0.34817 0.81246 0.0
C1833 C 0.93212 0.34423 0.81713 0.0
C1834 C 0.95847 0.35392 0.81222 0.0
H1835 H 0.03835 0.33299 0.79393 0.0
H1836 H 0.02239 0.33199 0.80646 0.0
H1837 H -0.00184 0.32615 0.79556 0.0
H1838 H 0.92722 0.37869 0.78999 0.0
H1839 H 0.88102 0.36169 0.79852 0.0
H1840 H 0.94595 0.323 0.925 0.0
H1841 H 0.96057 0.37105 0.93275 0.0
H1842 H 0.95215 0.33127 0.9626 0.0
H1843 H 0.9368 0.28285 0.9548 0.0
H1844 H 0.93532 0.41037 0.94963 0.0
H1845 H 0.04573 0.35283 0.9574 0.0
H1846 H 0.01932 0.33647 0.94846 0.0
H1847 H 0.01043 0.33667 0.96176 0.0
C1848 C 0.94615 0.3248 0.93322 0.0
C1849 C 0.94051 0.29934 0.93931 0.0
C1850 C 0.95447 0.3522 0.93764 0.0
C1851 C 0.95772 0.35448 0.94822 0.0
C1852 C 0.94978 0.3298 0.95441 0.0
H1853 H 0.03811 0.53526 0.95185 0.0
H1854 H 0.01726 0.49076 0.96049 0.0
C1855 C 0.9409 0.30231 0.94996 0.0
C1856 C 0.97367 0.38131 0.95225 0.0
H1857 H 0.04679 0.40558 0.9548 0.0
C1858 C 0.95947 0.40957 0.95123 0.0
C1859 C 0.00515 0.37989 0.95431 0.0
C1860 C 0.02127 0.34992 0.95557 0.0
C1861 C 0.97654 0.4364 0.95101 0.0
C1862 C 0.00854 0.43465 0.95191 0.0
C1863 C 0.02227 0.40672 0.9541 0.0
C1864 C 0.02791 0.45975 0.94826 0.0
C1865 C 0.96061 0.46594 0.94868 0.0
C1866 C 0.04262 0.45653 0.93885 0.0
C1867 C 0.05455 0.48183 0.93389 0.0
C1868 C 0.05182 0.51075 0.93826 0.0
C1869 C 0.04 0.51335 0.94819 0.0
C1870 C 0.02808 0.48798 0.95315 0.0
H1871 H 0.93579 0.46291 0.94755 0.0
H1872 H 0.96406 0.48206 0.95506 0.0
H1873 H 0.97031 0.47635 0.94171 0.0
H1874 H 0.04281 0.43482 0.93498 0.0
H1875 H 0.06379 0.47898 0.92631 0.0
H1876 H 0.1317 0.88225 0.20577 0.0
H1877 H 0.08548 0.90189 0.21361 0.0
H1878 H 0.03221 0.86201 0.18954 0.0
H1879 H 0.07821 0.84226 0.18167 0.0
H1880 H 0.05374 0.94374 0.20271 0.0
H1881 H 0.97646 0.85121 0.21392 0.0
H1882 H 0.01692 0.8456 0.21248 0.0
H1883 H 0.99217 0.84401 0.20158 0.0
C1884 C 0.11007 0.87682 0.20231 0.0
C1885 C 0.10865 0.86124 0.19296 0.0
C1886 C 0.08367 0.88799 0.20684 0.0
C1887 C 0.05543 0.88338 0.20218 0.0
C1888 C 0.05372 0.86539 0.19338 0.0
H1889 H 0.91927 0.96919 0.17719 0.0
H1890 H 0.96754 0.95549 0.18504 0.0
C1891 C 0.08011 0.85428 0.18882 0.0
C1892 C 0.02897 0.90208 0.20511 0.0
H1893 H 0.95206 0.89742 0.20725 0.0
C1894 C 0.03162 0.93371 0.20409 0.0
C1895 C 0.00022 0.88914 0.20707 0.0
C1896 C 0.99635 0.85562 0.20894 0.0
C1897 C 0.00581 0.95224 0.20373 0.0
C1898 C 0.97686 0.93872 0.20438 0.0
C1899 C 0.97437 0.9077 0.20666 0.0
C1900 C 0.94973 0.95427 0.20038 0.0
C1901 C 0.00955 0.98575 0.20181 0.0
C1902 C 0.92403 0.9591 0.20647 0.0
C1903 C 0.89649 0.96765 0.20199 0.0
C1904 C 0.89435 0.97044 0.19137 0.0
C1905 C 0.92052 0.96737 0.1854 0.0
C1906 C 0.94805 0.9596 0.18988 0.0
H1907 H 0.03174 0.99407 0.2047 0.0
H1908 H 0.0088 0.99003 0.19349 0.0
H1909 H 0.99099 -0.00107 0.20545 0.0
H1910 H 0.9249 0.95472 0.21457 0.0
H1911 H 0.87644 0.96957 0.20672 0.0
H1912 H 0.43979 0.82744 0.42346 0.0
H1913 H 0.46036 0.8743 0.43044 0.0
H1914 H 0.48086 0.82864 0.45863 0.0
H1915 H 0.46074 0.7813 0.45164 0.0
H1916 H 0.45453 0.9115 0.44777 0.0
H1917 H 0.56478 0.84913 0.44681 0.0
H1918 H 0.5309 0.83369 0.44112 0.0
H1919 H 0.53494 0.83434 0.45471 0.0
C1920 C 0.4478 0.82749 0.43125 0.0
C1921 C 0.44949 0.8005 0.43689 0.0
C1922 C 0.45953 0.85433 0.43524 0.0
C1923 C 0.47289 0.85461 0.44493 0.0
C1924 C 0.47128 0.82862 0.45104 0.0
H1925 H 0.56066 0.03253 0.44928 0.0
H1926 H 0.54088 0.98629 0.45715 0.0
C1927 C 0.45968 0.80166 0.44704 0.0
C1928 C 0.49227 0.88061 0.44776 0.0
H1929 H 0.56678 0.9019 0.44752 0.0
C1930 C 0.47907 0.90952 0.44804 0.0
C1931 C 0.52429 0.87769 0.44808 0.0
C1932 C 0.53975 0.84713 0.44762 0.0
C1933 C 0.49704 0.93574 0.44768 0.0
C1934 C 0.52904 0.93277 0.44722 0.0
C1935 C 0.54226 0.90393 0.44791 0.0
C1936 C 0.54826 0.95832 0.44387 0.0
C1937 C 0.48153 0.96621 0.44681 0.0
C1938 C 0.5612 0.95716 0.43412 0.0
C1939 C 0.57274 0.98338 0.42963 0.0
C1940 C 0.57127 0.01117 0.43481 0.0
C1941 C 0.56152 0.01152 0.44502 0.0
C1942 C 0.55013 0.98519 0.44953 0.0
H1943 H 0.45647 0.96409 0.44616 0.0
H1944 H 0.48667 0.98001 0.45365 0.0
H1945 H 0.49006 0.97869 0.44005 0.0
H1946 H 0.56018 0.9365 0.42966 0.0
H1947 H 0.5804 0.98228 0.42181 0.0
H1948 H 0.64336 0.37791 0.70604 0.0
H1949 H 0.59695 0.39293 0.71479 0.0
H1950 H 0.54578 0.33033 0.69628 0.0
H1951 H 0.59221 0.31488 0.68761 0.0
H1952 H 0.5564 0.42121 0.70328 0.0
H1953 H 0.49833 0.32686 0.72253 0.0
H1954 H 0.53857 0.32611 0.7198 0.0
H1955 H 0.51136 0.31466 0.71029 0.0
C1956 C 0.62238 0.36659 0.70407 0.0
C1957 C 0.62127 0.34571 0.69598 0.0
C1958 C 0.5959 0.37508 0.70913 0.0
C1959 C 0.56789 0.36279 0.70621 0.0
C1960 C 0.5672 0.33972 0.69882 0.0
H1961 H 0.40442 0.39129 0.6848 0.0
H1962 H 0.45089 0.37624 0.69324 0.0
C1963 C 0.59376 0.33106 0.69379 0.0
C1964 C 0.53938 0.37857 0.70893 0.0
H1965 H 0.46492 0.36374 0.71378 0.0
C1966 C 0.53653 0.40905 0.70595 0.0
C1967 C 0.51364 0.36283 0.71254 0.0
C1968 C 0.51576 0.33089 0.71658 0.0
C1969 C 0.50799 0.42288 0.70518 0.0
C1970 C 0.48182 0.40582 0.70761 0.0
C1971 C 0.48505 0.37666 0.71181 0.0
C1972 C 0.45181 0.41453 0.70354 0.0
C1973 C 0.50588 0.45436 0.70069 0.0
C1974 C 0.43676 0.44116 0.70656 0.0
C1975 C 0.41007 0.45018 0.7016 0.0
C1976 C 0.39813 0.43254 0.69363 0.0
C1977 C 0.41299 0.40555 0.69086 0.0
C1978 C 0.43948 0.39671 0.69575 0.0
H1979 H 0.52846 0.46361 0.69855 0.0
H1980 H 0.49121 0.45414 0.69382 0.0
H1981 H 0.49546 0.46996 0.70632 0.0
H1982 H 0.44585 0.45508 0.71262 0.0
H1983 H 0.39889 0.47089 0.70398 0.0
loop_
_geom_bond_atom_site_label_1
_geom_bond_atom_site_label_2
_geom_bond_distance
_geom_bond_site_symmetry_2
_ccdc_geom_bond_type
Co0 O3 1.970 1_455 S
Co0 N17 1.989 . S
Co0 O25 1.967 . S
Co0 O32 1.920 . S
Co1 O4 1.966 1_455 S
Co1 N10 2.022 . S
Co1 N18 1.993 . S
Co1 O26 1.941 . S
C2 O3 1.258 . S
C2 O4 1.263 . S
O3 Co0 1.970 1_655 S
O3 C2 1.258 . S
O4 Co1 1.966 1_655 S
O4 C2 1.263 . S
C5 O6 1.235 . S
C5 O32 1.289 1_655 S
O6 C5 1.235 . S
C7 C9 1.394 1_655 S
C7 N10 1.351 1_655 S
C7 C12 1.501 . S
C8 C9 1.412 . S
C8 N11 1.341 . S
C9 C7 1.394 1_455 S
C9 C8 1.412 . S
N10 Co1 2.022 . S
N10 C7 1.351 1_455 S
N10 N11 1.365 . S
N11 C8 1.341 . S
N11 N10 1.365 . S
N11 H31 0.862 . S
C12 C7 1.501 . S
C12 H13 0.961 . S
C12 H14 0.961 . S
C12 H15 0.960 . S
H13 C12 0.961 . S
H14 C12 0.961 . S
H15 C12 0.960 . S
C16 N17 1.342 . S
C16 C20 1.401 . S
C16 C21 1.499 . S
N17 Co0 1.989 . S
N17 C16 1.342 . S
N17 N18 1.388 . S
N18 Co1 1.993 . S
N18 N17 1.388 . S
N18 C19 1.346 . S
C19 N18 1.346 . S
C19 C20 1.396 . S
C19 C29 1.510 . S
C20 C16 1.401 . S
C20 C19 1.396 . S
C21 C16 1.499 . S
C21 H22 0.959 . S
C21 H23 0.960 . S
C21 H24 0.961 . S
H22 C21 0.959 . S
H23 C21 0.960 . S
H24 C21 0.961 . S
O25 Co0 1.967 . S
O25 C33 1.258 . S
O26 Co1 1.941 . S
O26 C33 1.266 . S
H27 C29 0.959 . S
H28 C29 0.961 1_655 S
C29 C19 1.510 . S
C29 H27 0.959 . S
C29 H28 0.961 1_455 S
C29 H30 0.960 . S
H30 C29 0.960 . S
H31 N11 0.862 . S
O32 Co0 1.920 . S
O32 C5 1.289 1_455 S
C33 O25 1.258 . S
C33 O26 1.266 . S
Co34 O37 1.970 . S
Co34 N51 1.989 . S
Co34 O59 1.967 . S
Co34 O66 1.920 . S
Co35 O38 1.966 . S
Co35 N44 2.022 . S
Co35 N52 1.993 . S
Co35 O60 1.941 . S
C36 O37 1.258 . S
C36 O38 1.263 . S
O37 Co34 1.970 . S
O37 C36 1.258 . S
O38 Co35 1.966 . S
O38 C36 1.263 . S
C39 O40 1.235 . S
C39 O66 1.289 . S
O40 C39 1.235 . S
C41 C43 1.400 . S
C41 N44 1.351 . S
C41 C46 1.501 . S
C42 C43 1.387 . S
C42 N45 1.341 . S
C43 C41 1.400 . S
C43 C42 1.387 . S
N44 Co35 2.022 . S
N44 C41 1.351 . S
N44 N45 1.365 . S
N45 C42 1.341 . S
N45 N44 1.365 . S
N45 H65 0.862 . S
C46 C41 1.501 . S
C46 H47 0.961 . S
C46 H48 0.961 . S
C46 H49 0.960 . S
H47 C46 0.961 . S
H48 C46 0.961 . S
H49 C46 0.960 . S
C50 N51 1.342 . S
C50 C54 1.401 . S
C50 C55 1.499 . S
N51 Co34 1.989 . S
N51 C50 1.342 . S
N51 N52 1.388 . S
N52 Co35 1.993 . S
N52 N51 1.388 . S
N52 C53 1.346 . S
C53 N52 1.346 . S
C53 C54 1.396 . S
C53 C63 1.510 . S
C54 C50 1.401 . S
C54 C53 1.396 . S
C55 C50 1.499 . S
C55 H56 0.959 . S
C55 H57 0.960 . S
C55 H58 0.961 . S
H56 C55 0.959 . S
H57 C55 0.960 . S
H58 C55 0.961 . S
O59 Co34 1.967 . S
O59 C67 1.258 . S
O60 Co35 1.941 . S
O60 C67 1.266 . S
H61 C63 0.959 . S
H62 C63 0.961 . S
C63 C53 1.510 . S
C63 H61 0.959 . S
C63 H62 0.961 . S
C63 H64 0.960 . S
H64 C63 0.960 . S
H65 N45 0.862 . S
O66 Co34 1.920 . S
O66 C39 1.289 . S
C67 O59 1.258 . S
C67 O60 1.266 . S
Co68 O71 1.970 . S
Co68 N85 1.989 . S
Co68 O93 1.967 . S
Co68 O100 1.920 . S
Co69 O72 1.966 . S
Co69 N78 2.022 . S
Co69 N86 1.993 . S
Co69 O94 1.941 . S
C70 O71 1.258 . S
C70 O72 1.263 . S
O71 Co68 1.970 . S
O71 C70 1.258 . S
O72 Co69 1.966 . S
O72 C70 1.263 . S
C73 O74 1.235 . S
C73 O100 1.289 . S
O74 C73 1.235 . S
C75 C77 1.400 . S
C75 N78 1.351 . S
C75 C80 1.501 . S
C76 C77 1.387 . S
C76 N79 1.341 . S
C77 C75 1.400 . S
C77 C76 1.387 . S
N78 Co69 2.022 . S
N78 C75 1.351 . S
N78 N79 1.365 . S
N79 C76 1.341 . S
N79 N78 1.365 . S
N79 H99 0.862 . S
C80 C75 1.501 . S
C80 H81 0.961 . S
C80 H82 0.961 . S
C80 H83 0.960 . S
H81 C80 0.961 . S
H82 C80 0.961 . S
H83 C80 0.960 . S
C84 N85 1.342 . S
C84 C88 1.401 . S
C84 C89 1.499 . S
N85 Co68 1.989 . S
N85 C84 1.342 . S
N85 N86 1.388 . S
N86 Co69 1.993 . S
N86 N85 1.388 . S
N86 C87 1.346 . S
C87 N86 1.346 . S
C87 C88 1.396 . S
C87 C97 1.510 . S
C88 C84 1.401 . S
C88 C87 1.396 . S
C89 C84 1.499 . S
C89 H90 0.959 . S
C89 H91 0.960 . S
C89 H92 0.961 . S
H90 C89 0.959 . S
H91 C89 0.960 . S
H92 C89 0.961 . S
O93 Co68 1.967 . S
O93 C101 1.258 . S
O94 Co69 1.941 . S
O94 C101 1.266 . S
H95 C97 0.959 . S
H96 C97 0.961 . S
C97 C87 1.510 . S
C97 H95 0.959 . S
C97 H96 0.961 . S
C97 H98 0.960 . S
H98 C97 0.960 . S
H99 N79 0.862 . S
O100 Co68 1.920 . S
O100 C73 1.289 . S
C101 O93 1.258 . S
C101 O94 1.266 . S
Co102 O105 1.970 . S
Co102 N119 1.989 . S
Co102 O127 1.967 . S
Co102 O134 1.920 . S
Co103 O106 1.966 . S
Co103 N112 2.022 . S
Co103 N120 1.993 . S
Co103 O128 1.941 . S
C104 O105 1.258 . S
C104 O106 1.263 . S
O105 Co102 1.970 . S
O105 C104 1.258 . S
O106 Co103 1.966 . S
O106 C104 1.263 . S
C107 O108 1.235 . S
C107 O134 1.289 . S
O108 C107 1.235 . S
C109 C111 1.400 . S
C109 N112 1.351 . S
C109 C114 1.501 . S
C110 C111 1.387 . S
C110 N113 1.341 . S
C111 C109 1.400 . S
C111 C110 1.387 . S
N112 Co103 2.022 . S
N112 C109 1.351 . S
N112 N113 1.365 . S
N113 C110 1.341 . S
N113 N112 1.365 . S
N113 H133 0.862 . S
C114 C109 1.501 . S
C114 H115 0.961 . S
C114 H116 0.961 . S
C114 H117 0.960 . S
H115 C114 0.961 . S
H116 C114 0.961 . S
H117 C114 0.960 . S
C118 N119 1.342 . S
C118 C122 1.401 . S
C118 C123 1.499 . S
N119 Co102 1.989 . S
N119 C118 1.342 . S
N119 N120 1.388 . S
N120 Co103 1.993 . S
N120 N119 1.388 . S
N120 C121 1.346 . S
C121 N120 1.346 . S
C121 C122 1.396 . S
C121 C131 1.510 . S
C122 C118 1.401 . S
C122 C121 1.396 . S
C123 C118 1.499 . S
C123 H124 0.959 . S
C123 H125 0.960 . S
C123 H126 0.961 . S
H124 C123 0.959 . S
H125 C123 0.960 . S
H126 C123 0.961 . S
O127 Co102 1.967 . S
O127 C135 1.258 . S
O128 Co103 1.941 . S
O128 C135 1.266 . S
H129 C131 0.959 . S
H130 C131 0.961 . S
C131 C121 1.510 . S
C131 H129 0.959 . S
C131 H130 0.961 . S
C131 H132 0.960 . S
H132 C131 0.960 . S
H133 N113 0.862 . S
O134 Co102 1.920 . S
O134 C107 1.289 . S
C135 O127 1.258 . S
C135 O128 1.266 . S
Co136 O139 1.970 1_455 S
Co136 N153 1.989 . S
Co136 O161 1.967 . S
Co136 O168 1.920 . S
Co137 O140 1.966 1_455 S
Co137 N146 2.022 . S
Co137 N154 1.993 . S
Co137 O162 1.941 . S
C138 O139 1.258 . S
C138 O140 1.263 . S
O139 Co136 1.970 1_655 S
O139 C138 1.258 . S
O140 Co137 1.966 1_655 S
O140 C138 1.263 . S
C141 O142 1.235 . S
C141 O168 1.289 1_655 S
O142 C141 1.235 . S
C143 C145 1.395 1_655 S
C143 N146 1.351 1_655 S
C143 C148 1.501 . S
C144 C145 1.409 . S
C144 N147 1.341 . S
C145 C143 1.395 1_455 S
C145 C144 1.409 . S
N146 Co137 2.022 . S
N146 C143 1.351 1_455 S
N146 N147 1.365 . S
N147 C144 1.341 . S
N147 N146 1.365 . S
N147 H167 0.862 . S
C148 C143 1.501 . S
C148 H149 0.961 . S
C148 H150 0.961 . S
C148 H151 0.960 . S
H149 C148 0.961 . S
H150 C148 0.961 . S
H151 C148 0.960 . S
C152 N153 1.342 . S
C152 C156 1.401 . S
C152 C157 1.499 . S
N153 Co136 1.989 . S
N153 C152 1.342 . S
N153 N154 1.388 . S
N154 Co137 1.993 . S
N154 N153 1.388 . S
N154 C155 1.346 . S
C155 N154 1.346 . S
C155 C156 1.396 . S
C155 C165 1.510 . S
C156 C152 1.401 . S
C156 C155 1.396 . S
C157 C152 1.499 . S
C157 H158 0.959 . S
C157 H159 0.960 . S
C157 H160 0.961 . S
H158 C157 0.959 . S
H159 C157 0.960 . S
H160 C157 0.961 . S
O161 Co136 1.967 . S
O161 C169 1.258 . S
O162 Co137 1.941 . S
O162 C169 1.266 . S
H163 C165 0.959 . S
H164 C165 0.961 1_655 S
C165 C155 1.510 . S
C165 H163 0.959 . S
C165 H164 0.961 1_455 S
C165 H166 0.960 . S
H166 C165 0.960 . S
H167 N147 0.862 . S
O168 Co136 1.920 . S
O168 C141 1.289 1_455 S
C169 O161 1.258 . S
C169 O162 1.266 . S
Co170 O173 1.970 . S
Co170 N187 1.989 . S
Co170 O195 1.967 . S
Co170 O202 1.920 . S
Co171 O174 1.966 . S
Co171 N180 2.022 . S
Co171 N188 1.993 . S
Co171 O196 1.941 . S
C172 O173 1.258 . S
C172 O174 1.263 . S
O173 Co170 1.970 . S
O173 C172 1.258 . S
O174 Co171 1.966 . S
O174 C172 1.263 . S
C175 O176 1.235 . S
C175 O202 1.289 . S
O176 C175 1.235 . S
C177 C179 1.400 . S
C177 N180 1.351 . S
C177 C182 1.501 . S
C178 C179 1.387 . S
C178 N181 1.341 . S
C179 C177 1.400 . S
C179 C178 1.387 . S
N180 Co171 2.022 . S
N180 C177 1.351 . S
N180 N181 1.365 . S
N181 C178 1.341 . S
N181 N180 1.365 . S
N181 H201 0.862 . S
C182 C177 1.501 . S
C182 H183 0.961 . S
C182 H184 0.961 . S
C182 H185 0.960 . S
H183 C182 0.961 . S
H184 C182 0.961 . S
H185 C182 0.960 . S
C186 N187 1.342 . S
C186 C190 1.401 . S
C186 C191 1.499 . S
N187 Co170 1.989 . S
N187 C186 1.342 . S
N187 N188 1.388 . S
N188 Co171 1.993 . S
N188 N187 1.388 . S
N188 C189 1.346 . S
C189 N188 1.346 . S
C189 C190 1.396 . S
C189 C199 1.510 . S
C190 C186 1.401 . S
C190 C189 1.396 . S
C191 C186 1.499 . S
C191 H192 0.959 . S
C191 H193 0.960 . S
C191 H194 0.961 . S
H192 C191 0.959 . S
H193 C191 0.960 . S
H194 C191 0.961 . S
O195 Co170 1.967 . S
O195 C203 1.258 . S
O196 Co171 1.941 . S
O196 C203 1.266 . S
H197 C199 0.959 . S
H198 C199 0.961 . S
C199 C189 1.510 . S
C199 H197 0.959 . S
C199 H198 0.961 . S
C199 H200 0.960 . S
H200 C199 0.960 . S
H201 N181 0.862 . S
O202 Co170 1.920 . S
O202 C175 1.289 . S
C203 O195 1.258 . S
C203 O196 1.266 . S
Co204 O207 1.970 . S
Co204 N221 1.989 . S
Co204 O229 1.967 . S
Co204 O236 1.920 . S
Co205 O208 1.966 . S
Co205 N214 2.022 . S
Co205 N222 1.993 . S
Co205 O230 1.941 . S
C206 O207 1.258 . S
C206 O208 1.263 . S
O207 Co204 1.970 . S
O207 C206 1.258 . S
O208 Co205 1.966 . S
O208 C206 1.263 . S
C209 O210 1.235 . S
C209 O236 1.289 . S
O210 C209 1.235 . S
C211 C213 1.400 . S
C211 N214 1.351 . S
C211 C216 1.501 . S
C212 C213 1.387 . S
C212 N215 1.341 . S
C213 C211 1.400 . S
C213 C212 1.387 . S
N214 Co205 2.022 . S
N214 C211 1.351 . S
N214 N215 1.365 . S
N215 C212 1.341 . S
N215 N214 1.365 . S
N215 H235 0.862 . S
C216 C211 1.501 . S
C216 H217 0.961 . S
C216 H218 0.961 . S
C216 H219 0.960 . S
H217 C216 0.961 . S
H218 C216 0.961 . S
H219 C216 0.960 . S
C220 N221 1.342 . S
C220 C224 1.401 . S
C220 C225 1.499 . S
N221 Co204 1.989 . S
N221 C220 1.342 . S
N221 N222 1.388 . S
N222 Co205 1.993 . S
N222 N221 1.388 . S
N222 C223 1.346 . S
C223 N222 1.346 . S
C223 C224 1.396 . S
C223 C233 1.510 . S
C224 C220 1.401 . S
C224 C223 1.396 . S
C225 C220 1.499 . S
C225 H226 0.959 . S
C225 H227 0.960 . S
C225 H228 0.961 . S
H226 C225 0.959 . S
H227 C225 0.960 . S
H228 C225 0.961 . S
O229 Co204 1.967 . S
O229 C237 1.258 . S
O230 Co205 1.941 . S
O230 C237 1.266 . S
H231 C233 0.959 . S
H232 C233 0.961 . S
C233 C223 1.510 . S
C233 H231 0.959 . S
C233 H232 0.961 . S
C233 H234 0.960 . S
H234 C233 0.960 . S
H235 N215 0.862 . S
O236 Co204 1.920 . S
O236 C209 1.289 . S
C237 O229 1.258 . S
C237 O230 1.266 . S
Co238 O241 1.970 . S
Co238 N255 1.989 . S
Co238 O263 1.967 . S
Co238 O270 1.920 . S
Co239 O242 1.966 . S
Co239 N248 2.022 . S
Co239 N256 1.993 . S
Co239 O264 1.941 . S
C240 O241 1.258 . S
C240 O242 1.263 . S
O241 Co238 1.970 . S
O241 C240 1.258 . S
O242 Co239 1.966 . S
O242 C240 1.263 . S
C243 O244 1.235 . S
C243 O270 1.289 . S
O244 C243 1.235 . S
C245 C247 1.400 . S
C245 N248 1.351 . S
C245 C250 1.501 . S
C246 C247 1.387 . S
C246 N249 1.341 . S
C247 C245 1.400 . S
C247 C246 1.387 . S
N248 Co239 2.022 . S
N248 C245 1.351 . S
N248 N249 1.365 . S
N249 C246 1.341 . S
N249 N248 1.365 . S
N249 H269 0.862 . S
C250 C245 1.501 . S
C250 H251 0.961 . S
C250 H252 0.961 . S
C250 H253 0.960 . S
H251 C250 0.961 . S
H252 C250 0.961 . S
H253 C250 0.960 . S
C254 N255 1.342 . S
C254 C258 1.401 . S
C254 C259 1.499 . S
N255 Co238 1.989 . S
N255 C254 1.342 . S
N255 N256 1.388 . S
N256 Co239 1.993 . S
N256 N255 1.388 . S
N256 C257 1.346 . S
C257 N256 1.346 . S
C257 C258 1.396 . S
C257 C267 1.510 . S
C258 C254 1.401 . S
C258 C257 1.396 . S
C259 C254 1.499 . S
C259 H260 0.959 . S
C259 H261 0.960 . S
C259 H262 0.961 . S
H260 C259 0.959 . S
H261 C259 0.960 . S
H262 C259 0.961 . S
O263 Co238 1.967 . S
O263 C271 1.258 . S
O264 Co239 1.941 . S
O264 C271 1.266 . S
H265 C267 0.959 . S
H266 C267 0.961 . S
C267 C257 1.510 . S
C267 H265 0.959 . S
C267 H266 0.961 . S
C267 H268 0.960 . S
H268 C267 0.960 . S
H269 N249 0.862 . S
O270 Co238 1.920 . S
O270 C243 1.289 . S
C271 O263 1.258 . S
C271 O264 1.266 . S
Co272 O275 1.970 . S
Co272 N289 1.989 . S
Co272 O297 1.967 . S
Co272 O304 1.920 . S
Co273 O276 1.966 . S
Co273 N282 2.022 . S
Co273 N290 1.993 . S
Co273 O298 1.941 . S
C274 O275 1.258 . S
C274 O276 1.263 . S
O275 Co272 1.970 . S
O275 C274 1.258 . S
O276 Co273 1.966 . S
O276 C274 1.263 . S
C277 O278 1.235 . S
C277 O304 1.289 . S
O278 C277 1.235 . S
C279 C281 1.400 . S
C279 N282 1.351 . S
C279 C284 1.501 . S
C280 C281 1.387 . S
C280 N283 1.341 . S
C281 C279 1.400 . S
C281 C280 1.387 . S
N282 Co273 2.022 . S
N282 C279 1.351 . S
N282 N283 1.365 . S
N283 C280 1.341 . S
N283 N282 1.365 . S
N283 H303 0.862 . S
C284 C279 1.501 . S
C284 H285 0.961 . S
C284 H286 0.961 . S
C284 H287 0.960 . S
H285 C284 0.961 . S
H286 C284 0.961 . S
H287 C284 0.960 . S
C288 N289 1.342 . S
C288 C292 1.401 . S
C288 C293 1.499 . S
N289 Co272 1.989 . S
N289 C288 1.342 . S
N289 N290 1.388 . S
N290 Co273 1.993 . S
N290 N289 1.388 . S
N290 C291 1.346 . S
C291 N290 1.346 . S
C291 C292 1.396 . S
C291 C301 1.510 . S
C292 C288 1.401 . S
C292 C291 1.396 . S
C293 C288 1.499 . S
C293 H294 0.959 . S
C293 H295 0.960 . S
C293 H296 0.961 . S
H294 C293 0.959 . S
H295 C293 0.960 . S
H296 C293 0.961 . S
O297 Co272 1.967 . S
O297 C305 1.258 . S
O298 Co273 1.941 . S
O298 C305 1.266 . S
H299 C301 0.959 . S
H300 C301 0.961 . S
C301 C291 1.510 . S
C301 H299 0.959 . S
C301 H300 0.961 . S
C301 H302 0.960 . S
H302 C301 0.960 . S
H303 N283 0.862 . S
O304 Co272 1.920 . S
O304 C277 1.289 . S
C305 O297 1.258 . S
C305 O298 1.266 . S
Co306 O309 1.970 . S
Co306 N323 1.989 . S
Co306 O331 1.967 . S
Co306 O338 1.920 . S
Co307 O310 1.966 . S
Co307 N316 2.022 . S
Co307 N324 1.993 . S
Co307 O332 1.941 . S
C308 O309 1.258 . S
C308 O310 1.263 . S
O309 Co306 1.970 . S
O309 C308 1.258 . S
O310 Co307 1.966 . S
O310 C308 1.263 . S
C311 O312 1.235 . S
C311 O338 1.289 . S
O312 C311 1.235 . S
C313 C315 1.400 . S
C313 N316 1.351 . S
C313 C318 1.501 . S
C314 C315 1.387 . S
C314 N317 1.341 . S
C315 C313 1.400 . S
C315 C314 1.387 . S
N316 Co307 2.022 . S
N316 C313 1.351 . S
N316 N317 1.365 . S
N317 C314 1.341 . S
N317 N316 1.365 . S
N317 H337 0.862 . S
C318 C313 1.501 . S
C318 H319 0.961 . S
C318 H320 0.961 . S
C318 H321 0.960 . S
H319 C318 0.961 . S
H320 C318 0.961 . S
H321 C318 0.960 . S
C322 N323 1.342 . S
C322 C326 1.401 . S
C322 C327 1.499 . S
N323 Co306 1.989 . S
N323 C322 1.342 . S
N323 N324 1.388 . S
N324 Co307 1.993 . S
N324 N323 1.388 . S
N324 C325 1.346 . S
C325 N324 1.346 . S
C325 C326 1.396 . S
C325 C335 1.510 . S
C326 C322 1.401 . S
C326 C325 1.396 . S
C327 C322 1.499 . S
C327 H328 0.959 . S
C327 H329 0.960 . S
C327 H330 0.961 . S
H328 C327 0.959 . S
H329 C327 0.960 . S
H330 C327 0.961 . S
O331 Co306 1.967 . S
O331 C339 1.258 . S
O332 Co307 1.941 . S
O332 C339 1.266 . S
H333 C335 0.959 . S
H334 C335 0.961 . S
C335 C325 1.510 . S
C335 H333 0.959 . S
C335 H334 0.961 . S
C335 H336 0.960 . S
H336 C335 0.960 . S
H337 N317 0.862 . S
O338 Co306 1.920 . S
O338 C311 1.289 . S
C339 O331 1.258 . S
C339 O332 1.266 . S
Co340 O343 1.970 . S
Co340 N357 1.989 . S
Co340 O365 1.967 . S
Co340 O372 1.920 . S
Co341 O344 1.966 . S
Co341 N350 2.022 . S
Co341 N358 1.993 . S
Co341 O366 1.941 . S
C342 O343 1.258 . S
C342 O344 1.263 . S
O343 Co340 1.970 . S
O343 C342 1.258 . S
O344 Co341 1.966 . S
O344 C342 1.263 . S
C345 O346 1.235 . S
C345 O372 1.289 . S
O346 C345 1.235 . S
C347 C349 1.400 . S
C347 N350 1.351 . S
C347 C352 1.501 . S
C348 C349 1.387 . S
C348 N351 1.341 . S
C349 C347 1.400 . S
C349 C348 1.387 . S
N350 Co341 2.022 . S
N350 C347 1.351 . S
N350 N351 1.365 . S
N351 C348 1.341 . S
N351 N350 1.365 . S
N351 H371 0.862 . S
C352 C347 1.501 . S
C352 H353 0.961 . S
C352 H354 0.961 . S
C352 H355 0.960 . S
H353 C352 0.961 . S
H354 C352 0.961 . S
H355 C352 0.960 . S
C356 N357 1.342 . S
C356 C360 1.401 . S
C356 C361 1.499 . S
N357 Co340 1.989 . S
N357 C356 1.342 . S
N357 N358 1.388 . S
N358 Co341 1.993 . S
N358 N357 1.388 . S
N358 C359 1.346 . S
C359 N358 1.346 . S
C359 C360 1.396 . S
C359 C369 1.510 . S
C360 C356 1.401 . S
C360 C359 1.396 . S
C361 C356 1.499 . S
C361 H362 0.959 . S
C361 H363 0.960 . S
C361 H364 0.961 . S
H362 C361 0.959 . S
H363 C361 0.960 . S
H364 C361 0.961 . S
O365 Co340 1.967 . S
O365 C373 1.258 . S
O366 Co341 1.941 . S
O366 C373 1.266 . S
H367 C369 0.959 . S
H368 C369 0.961 . S
C369 C359 1.510 . S
C369 H367 0.959 . S
C369 H368 0.961 . S
C369 H370 0.960 . S
H370 C369 0.960 . S
H371 N351 0.862 . S
O372 Co340 1.920 . S
O372 C345 1.289 . S
C373 O365 1.258 . S
C373 O366 1.266 . S
Co374 O377 1.970 . S
Co374 N391 1.989 . S
Co374 O399 1.967 . S
Co374 O406 1.920 . S
Co375 O378 1.966 . S
Co375 N384 2.022 . S
Co375 N392 1.993 . S
Co375 O400 1.941 . S
C376 O377 1.258 . S
C376 O378 1.263 . S
O377 Co374 1.970 . S
O377 C376 1.258 . S
O378 Co375 1.966 . S
O378 C376 1.263 . S
C379 O380 1.235 . S
C379 O406 1.289 . S
O380 C379 1.235 . S
C381 C383 1.400 . S
C381 N384 1.351 . S
C381 C386 1.501 . S
C382 C383 1.387 . S
C382 N385 1.341 . S
C383 C381 1.400 . S
C383 C382 1.387 . S
N384 Co375 2.022 . S
N384 C381 1.351 . S
N384 N385 1.365 . S
N385 C382 1.341 . S
N385 N384 1.365 . S
N385 H405 0.862 . S
C386 C381 1.501 . S
C386 H387 0.961 . S
C386 H388 0.961 . S
C386 H389 0.960 . S
H387 C386 0.961 . S
H388 C386 0.961 . S
H389 C386 0.960 . S
C390 N391 1.342 . S
C390 C394 1.401 . S
C390 C395 1.499 . S
N391 Co374 1.989 . S
N391 C390 1.342 . S
N391 N392 1.388 . S
N392 Co375 1.993 . S
N392 N391 1.388 . S
N392 C393 1.346 . S
C393 N392 1.346 . S
C393 C394 1.396 . S
C393 C403 1.510 . S
C394 C390 1.401 . S
C394 C393 1.396 . S
C395 C390 1.499 . S
C395 H396 0.959 . S
C395 H397 0.960 . S
C395 H398 0.961 . S
H396 C395 0.959 . S
H397 C395 0.960 . S
H398 C395 0.961 . S
O399 Co374 1.967 . S
O399 C407 1.258 . S
O400 Co375 1.941 . S
O400 C407 1.266 . S
H401 C403 0.959 . S
H402 C403 0.961 . S
C403 C393 1.510 . S
C403 H401 0.959 . S
C403 H402 0.961 . S
C403 H404 0.960 . S
H404 C403 0.960 . S
H405 N385 0.862 . S
O406 Co374 1.920 . S
O406 C379 1.289 . S
C407 O399 1.258 . S
C407 O400 1.266 . S
Co408 O411 1.970 . S
Co408 N425 1.989 . S
Co408 O433 1.967 . S
Co408 O440 1.920 . S
Co409 O412 1.966 . S
Co409 N418 2.022 . S
Co409 N426 1.993 . S
Co409 O434 1.941 . S
C410 O411 1.258 . S
C410 O412 1.263 . S
O411 Co408 1.970 . S
O411 C410 1.258 . S
O412 Co409 1.966 . S
O412 C410 1.263 . S
C413 O414 1.235 . S
C413 O440 1.289 . S
O414 C413 1.235 . S
C415 C417 1.400 . S
C415 N418 1.351 . S
C415 C420 1.501 . S
C416 C417 1.387 . S
C416 N419 1.341 . S
C417 C415 1.400 . S
C417 C416 1.387 . S
N418 Co409 2.022 . S
N418 C415 1.351 . S
N418 N419 1.365 . S
N419 C416 1.341 . S
N419 N418 1.365 . S
N419 H439 0.862 . S
C420 C415 1.501 . S
C420 H421 0.961 . S
C420 H422 0.961 . S
C420 H423 0.960 . S
H421 C420 0.961 . S
H422 C420 0.961 . S
H423 C420 0.960 . S
C424 N425 1.342 . S
C424 C428 1.401 . S
C424 C429 1.499 . S
N425 Co408 1.989 . S
N425 C424 1.342 . S
N425 N426 1.388 . S
N426 Co409 1.993 . S
N426 N425 1.388 . S
N426 C427 1.346 . S
C427 N426 1.346 . S
C427 C428 1.396 . S
C427 C437 1.510 . S
C428 C424 1.401 . S
C428 C427 1.396 . S
C429 C424 1.499 . S
C429 H430 0.959 . S
C429 H431 0.960 . S
C429 H432 0.961 . S
H430 C429 0.959 . S
H431 C429 0.960 . S
H432 C429 0.961 . S
O433 Co408 1.967 . S
O433 C441 1.258 . S
O434 Co409 1.941 . S
O434 C441 1.266 . S
H435 C437 0.959 . S
H436 C437 0.961 . S
C437 C427 1.510 . S
C437 H435 0.959 . S
C437 H436 0.961 . S
C437 H438 0.960 . S
H438 C437 0.960 . S
H439 N419 0.862 . S
O440 Co408 1.920 . S
O440 C413 1.289 . S
C441 O433 1.258 . S
C441 O434 1.266 . S
Co442 O445 1.970 . S
Co442 N459 1.990 . S
Co442 O467 1.967 1_455 S
Co442 O474 1.920 1_455 S
Co443 O446 1.966 1_655 S
Co443 N452 2.022 . S
Co443 N460 1.993 1_655 S
Co443 O468 1.941 . S
C444 O445 1.258 . S
C444 O446 1.263 . S
O445 Co442 1.970 . S
O445 C444 1.258 . S
O446 Co443 1.966 1_455 S
O446 C444 1.263 . S
C447 O448 1.235 . S
C447 O474 1.290 1_455 S
O448 C447 1.235 . S
C449 C451 1.400 . S
C449 N452 1.351 1_455 S
C449 C454 1.501 . S
C450 C451 1.387 1_655 S
C450 N453 1.341 . S
C451 C449 1.400 . S
C451 C450 1.387 1_455 S
N452 Co443 2.022 . S
N452 C449 1.351 1_655 S
N452 N453 1.365 . S
N453 C450 1.341 . S
N453 N452 1.365 . S
N453 H473 0.862 . S
C454 C449 1.501 . S
C454 H455 0.961 . S
C454 H456 0.961 . S
C454 H457 0.960 . S
H455 C454 0.961 . S
H456 C454 0.961 . S
H457 C454 0.960 . S
C458 N459 1.340 1_655 S
C458 C462 1.401 . S
C458 C463 1.499 . S
N459 Co442 1.990 . S
N459 C458 1.340 1_455 S
N459 N460 1.388 . S
N460 Co443 1.993 1_455 S
N460 N459 1.388 . S
N460 C461 1.346 1_455 S
C461 N460 1.346 1_655 S
C461 C462 1.396 . S
C461 C471 1.512 . S
C462 C458 1.401 . S
C462 C461 1.396 . S
C463 C458 1.499 . S
C463 H464 0.959 . S
C463 H465 0.960 1_655 S
C463 H466 0.961 . S
H464 C463 0.959 . S
H465 C463 0.960 1_455 S
H466 C463 0.961 . S
O467 Co442 1.967 1_655 S
O467 C475 1.258 . S
O468 Co443 1.941 . S
O468 C475 1.266 . S
H469 C471 0.992 . S
H470 C471 0.932 1_455 S
C471 C461 1.512 . S
C471 H469 0.992 . S
C471 H470 0.932 1_655 S
C471 H472 0.956 1_655 S
H472 C471 0.956 1_455 S
H473 N453 0.862 . S
O474 Co442 1.920 1_655 S
O474 C447 1.290 1_655 S
C475 O467 1.258 . S
C475 O468 1.266 . S
Co476 O479 1.970 . S
Co476 N493 1.989 . S
Co476 O501 1.967 . S
Co476 O508 1.920 . S
Co477 O480 1.966 . S
Co477 N486 2.022 . S
Co477 N494 1.993 . S
Co477 O502 1.941 . S
C478 O479 1.258 . S
C478 O480 1.263 . S
O479 Co476 1.970 . S
O479 C478 1.258 . S
O480 Co477 1.966 . S
O480 C478 1.263 . S
C481 O482 1.235 . S
C481 O508 1.289 . S
O482 C481 1.235 . S
C483 C485 1.400 . S
C483 N486 1.351 . S
C483 C488 1.501 . S
C484 C485 1.387 . S
C484 N487 1.341 . S
C485 C483 1.400 . S
C485 C484 1.387 . S
N486 Co477 2.022 . S
N486 C483 1.351 . S
N486 N487 1.365 . S
N487 C484 1.341 . S
N487 N486 1.365 . S
N487 H507 0.862 . S
C488 C483 1.501 . S
C488 H489 0.961 . S
C488 H490 0.961 . S
C488 H491 0.960 . S
H489 C488 0.961 . S
H490 C488 0.961 . S
H491 C488 0.960 . S
C492 N493 1.342 . S
C492 C496 1.401 . S
C492 C497 1.499 . S
N493 Co476 1.989 . S
N493 C492 1.342 . S
N493 N494 1.388 . S
N494 Co477 1.993 . S
N494 N493 1.388 . S
N494 C495 1.346 . S
C495 N494 1.346 . S
C495 C496 1.396 . S
C495 C505 1.510 . S
C496 C492 1.401 . S
C496 C495 1.396 . S
C497 C492 1.499 . S
C497 H498 0.959 . S
C497 H499 0.960 . S
C497 H500 0.961 . S
H498 C497 0.959 . S
H499 C497 0.960 . S
H500 C497 0.961 . S
O501 Co476 1.967 . S
O501 C509 1.258 . S
O502 Co477 1.941 . S
O502 C509 1.266 . S
H503 C505 0.959 . S
H504 C505 0.961 . S
C505 C495 1.510 . S
C505 H503 0.959 . S
C505 H504 0.961 . S
C505 H506 0.960 . S
H506 C505 0.960 . S
H507 N487 0.862 . S
O508 Co476 1.920 . S
O508 C481 1.289 . S
C509 O501 1.258 . S
C509 O502 1.266 . S
Co510 O513 1.970 . S
Co510 N527 1.990 . S
Co510 O535 1.967 1_455 S
Co510 O542 1.920 1_455 S
Co511 O514 1.966 1_655 S
Co511 N520 2.022 . S
Co511 N528 1.993 1_655 S
Co511 O536 1.941 . S
C512 O513 1.258 . S
C512 O514 1.263 . S
O513 Co510 1.970 . S
O513 C512 1.258 . S
O514 Co511 1.966 1_455 S
O514 C512 1.263 . S
C515 O516 1.235 . S
C515 O542 1.287 1_455 S
O516 C515 1.235 . S
C517 C519 1.400 . S
C517 N520 1.351 1_455 S
C517 C522 1.501 . S
C518 C519 1.387 1_655 S
C518 N521 1.341 . S
C519 C517 1.400 . S
C519 C518 1.387 1_455 S
N520 Co511 2.022 . S
N520 C517 1.351 1_655 S
N520 N521 1.365 . S
N521 C518 1.341 . S
N521 N520 1.365 . S
N521 H541 0.862 . S
C522 C517 1.501 . S
C522 H523 0.961 . S
C522 H524 0.961 . S
C522 H525 0.960 . S
H523 C522 0.961 . S
H524 C522 0.961 . S
H525 C522 0.960 . S
C526 N527 1.341 1_655 S
C526 C530 1.401 . S
C526 C531 1.499 . S
N527 Co510 1.990 . S
N527 C526 1.341 1_455 S
N527 N528 1.388 . S
N528 Co511 1.993 1_455 S
N528 N527 1.388 . S
N528 C529 1.346 1_455 S
C529 N528 1.346 1_655 S
C529 C530 1.396 . S
C529 C539 1.510 . S
C530 C526 1.401 . S
C530 C529 1.396 . S
C531 C526 1.499 . S
C531 H532 0.959 . S
C531 H533 0.960 1_655 S
C531 H534 0.961 . S
H532 C531 0.959 . S
H533 C531 0.960 1_455 S
H534 C531 0.961 . S
O535 Co510 1.967 1_655 S
O535 C543 1.258 . S
O536 Co511 1.941 . S
O536 C543 1.266 . S
H537 C539 0.959 . S
H538 C539 0.961 1_455 S
C539 C529 1.510 . S
C539 H537 0.959 . S
C539 H538 0.961 1_655 S
C539 H540 0.960 1_655 S
H540 C539 0.960 1_455 S
H541 N521 0.862 . S
O542 Co510 1.920 1_655 S
O542 C515 1.287 1_655 S
C543 O535 1.258 . S
C543 O536 1.266 . S
H544 C552 0.929 . S
H545 C554 0.930 . S
H546 C556 0.930 . S
H547 C559 0.929 . S
H548 C562 0.930 . S
H549 C564 0.960 . S
H550 C564 0.960 . S
H551 C564 0.960 . S
C552 H544 0.929 . S
C552 C553 1.377 1_655 S
C552 C554 1.384 . S
C553 C552 1.377 1_455 S
C553 C559 1.390 . S
C554 H545 0.930 . S
C554 C552 1.384 . S
C554 C555 1.372 1_655 S
C555 C554 1.372 1_455 S
C555 C556 1.400 . S
C555 C560 1.490 . S
C556 H546 0.930 . S
C556 C555 1.400 . S
C556 C559 1.386 . S
H557 C573 0.930 . S
H558 C574 0.931 . S
C559 H547 0.929 . S
C559 C553 1.390 . S
C559 C556 1.386 . S
C560 C555 1.490 . S
C560 C562 1.395 1_455 S
C560 C563 1.403 . S
H561 C567 0.930 . S
C562 H548 0.930 . S
C562 C560 1.395 1_655 S
C562 C565 1.403 . S
C563 C560 1.403 . S
C563 C564 1.524 . S
C563 C567 1.400 . S
C564 H549 0.960 . S
C564 H550 0.960 . S
C564 H551 0.960 . S
C564 C563 1.524 . S
C565 C562 1.403 . S
C565 C566 1.393 . S
C565 C569 1.495 . S
C566 C565 1.393 . S
C566 C567 1.385 1_655 S
C566 C568 1.478 . S
C567 H561 0.930 . S
C567 C563 1.400 . S
C567 C566 1.385 1_455 S
C568 C566 1.478 . S
C568 C570 1.381 . S
C568 C574 1.383 1_655 S
C569 C565 1.495 . S
C569 H575 0.959 . S
C569 H576 0.961 . S
C569 H577 0.960 . S
C570 C568 1.381 . S
C570 C571 1.394 . S
C570 H578 0.930 . S
C571 C570 1.394 . S
C571 C572 1.383 . S
C571 H579 0.929 . S
C572 C571 1.383 . S
C572 C573 1.377 1_655 S
C573 H557 0.930 . S
C573 C572 1.377 1_455 S
C573 C574 1.379 . S
C574 H558 0.931 . S
C574 C568 1.383 1_455 S
C574 C573 1.379 . S
H575 C569 0.959 . S
H576 C569 0.961 . S
H577 C569 0.960 . S
H578 C570 0.930 . S
H579 C571 0.929 . S
H580 C588 0.929 . S
H581 C590 0.930 . S
H582 C592 0.930 . S
H583 C595 0.929 . S
H584 C598 0.930 . S
H585 C600 0.960 . S
H586 C600 0.960 . S
H587 C600 0.960 . S
C588 H580 0.929 . S
C588 C589 1.377 . S
C588 C590 1.384 . S
C589 C588 1.377 . S
C589 C595 1.390 . S
C590 H581 0.930 . S
C590 C588 1.384 . S
C590 C591 1.372 . S
C591 C590 1.372 . S
C591 C592 1.400 . S
C591 C596 1.490 . S
C592 H582 0.930 . S
C592 C591 1.400 . S
C592 C595 1.386 . S
H593 C609 0.930 . S
H594 C610 0.931 . S
C595 H583 0.929 . S
C595 C589 1.390 . S
C595 C592 1.386 . S
C596 C591 1.490 . S
C596 C598 1.395 . S
C596 C599 1.403 . S
H597 C603 0.930 . S
C598 H584 0.930 . S
C598 C596 1.395 . S
C598 C601 1.403 1_455 S
C599 C596 1.403 . S
C599 C600 1.524 . S
C599 C603 1.400 1_455 S
C600 H585 0.960 . S
C600 H586 0.960 . S
C600 H587 0.960 . S
C600 C599 1.524 . S
C601 C598 1.403 1_655 S
C601 C602 1.392 . S
C601 C605 1.495 . S
C602 C601 1.392 . S
C602 C603 1.385 . S
C602 C604 1.478 . S
C603 H597 0.930 . S
C603 C599 1.400 1_655 S
C603 C602 1.385 . S
C604 C602 1.478 . S
C604 C606 1.381 . S
C604 C610 1.383 . S
C605 C601 1.495 . S
C605 H611 0.959 1_655 S
C605 H612 0.961 . S
C605 H613 0.960 . S
C606 C604 1.381 . S
C606 C607 1.394 . S
C606 H614 0.930 . S
C607 C606 1.394 . S
C607 C608 1.383 . S
C607 H615 0.929 . S
C608 C607 1.383 . S
C608 C609 1.377 . S
C609 H593 0.930 . S
C609 C608 1.377 . S
C609 C610 1.379 . S
C610 H594 0.931 . S
C610 C604 1.383 . S
C610 C609 1.379 . S
H611 C605 0.959 1_455 S
H612 C605 0.961 . S
H613 C605 0.960 . S
H614 C606 0.930 . S
H615 C607 0.929 . S
H616 C624 0.929 . S
H617 C626 0.930 . S
H618 C628 0.930 . S
H619 C631 0.929 . S
H620 C634 0.930 . S
H621 C636 0.960 . S
H622 C636 0.960 . S
H623 C636 0.960 . S
C624 H616 0.929 . S
C624 C625 1.377 . S
C624 C626 1.384 1_545 S
C625 C624 1.377 . S
C625 C631 1.390 . S
C626 H617 0.930 . S
C626 C624 1.384 1_565 S
C626 C627 1.372 . S
C627 C626 1.372 . S
C627 C628 1.400 . S
C627 C632 1.490 . S
C628 H618 0.930 . S
C628 C627 1.400 . S
C628 C631 1.386 1_565 S
H629 C645 0.930 . S
H630 C646 0.931 . S
C631 H619 0.929 . S
C631 C625 1.390 . S
C631 C628 1.386 1_545 S
C632 C627 1.490 . S
C632 C634 1.395 . S
C632 C635 1.403 . S
H633 C639 0.930 . S
C634 H620 0.930 . S
C634 C632 1.395 . S
C634 C637 1.403 . S
C635 C632 1.403 . S
C635 C636 1.524 . S
C635 C639 1.400 . S
C636 H621 0.960 . S
C636 H622 0.960 . S
C636 H623 0.960 . S
C636 C635 1.524 . S
C637 C634 1.403 . S
C637 C638 1.392 . S
C637 C641 1.495 . S
C638 C637 1.392 . S
C638 C639 1.385 . S
C638 C640 1.478 . S
C639 H633 0.930 . S
C639 C635 1.400 . S
C639 C638 1.385 . S
C640 C638 1.478 . S
C640 C642 1.381 . S
C640 C646 1.383 . S
C641 C637 1.495 . S
C641 H647 0.959 . S
C641 H648 0.961 . S
C641 H649 0.960 . S
C642 C640 1.381 . S
C642 C643 1.394 . S
C642 H650 0.930 . S
C643 C642 1.394 . S
C643 C644 1.383 . S
C643 H651 0.929 . S
C644 C643 1.383 . S
C644 C645 1.377 . S
C645 H629 0.930 . S
C645 C644 1.377 . S
C645 C646 1.379 . S
C646 H630 0.931 . S
C646 C640 1.383 . S
C646 C645 1.379 . S
H647 C641 0.959 . S
H648 C641 0.961 . S
H649 C641 0.960 . S
H650 C642 0.930 . S
H651 C643 0.929 . S
H652 C660 0.929 . S
H653 C662 0.930 . S
H654 C664 0.930 . S
H655 C667 0.929 . S
H656 C670 0.930 . S
H657 C672 0.960 . S
H658 C672 0.960 . S
H659 C672 0.960 . S
C660 H652 0.929 . S
C660 C661 1.377 . S
C660 C662 1.384 . S
C661 C660 1.377 . S
C661 C667 1.390 . S
C662 H653 0.930 . S
C662 C660 1.384 . S
C662 C663 1.372 . S
C663 C662 1.372 . S
C663 C664 1.400 . S
C663 C668 1.490 . S
C664 H654 0.930 . S
C664 C663 1.400 . S
C664 C667 1.386 . S
H665 C681 0.930 . S
H666 C682 0.931 . S
C667 H655 0.929 . S
C667 C661 1.390 . S
C667 C664 1.386 . S
C668 C663 1.490 . S
C668 C670 1.395 . S
C668 C671 1.403 . S
H669 C675 0.930 . S
C670 H656 0.930 . S
C670 C668 1.395 . S
C670 C673 1.403 . S
C671 C668 1.403 . S
C671 C672 1.524 . S
C671 C675 1.400 . S
C672 H657 0.960 . S
C672 H658 0.960 . S
C672 H659 0.960 . S
C672 C671 1.524 . S
C673 C670 1.403 . S
C673 C674 1.392 . S
C673 C677 1.495 . S
C674 C673 1.392 . S
C674 C675 1.385 . S
C674 C676 1.478 . S
C675 H669 0.930 . S
C675 C671 1.400 . S
C675 C674 1.385 . S
C676 C674 1.478 . S
C676 C678 1.381 . S
C676 C682 1.383 . S
C677 C673 1.495 . S
C677 H683 0.959 . S
C677 H684 0.961 . S
C677 H685 0.960 . S
C678 C676 1.381 . S
C678 C679 1.394 . S
C678 H686 0.930 . S
C679 C678 1.394 . S
C679 C680 1.383 . S
C679 H687 0.929 . S
C680 C679 1.383 . S
C680 C681 1.377 . S
C681 H665 0.930 . S
C681 C680 1.377 . S
C681 C682 1.379 . S
C682 H666 0.931 . S
C682 C676 1.383 . S
C682 C681 1.379 . S
H683 C677 0.959 . S
H684 C677 0.961 . S
H685 C677 0.960 . S
H686 C678 0.930 . S
H687 C679 0.929 . S
H688 C696 0.929 1_655 S
H689 C698 0.930 1_655 S
H690 C700 0.930 . S
H691 C703 0.929 . S
H692 C706 0.930 . S
H693 C708 0.960 . S
H694 C708 0.960 . S
H695 C708 0.960 . S
C696 H688 0.929 1_455 S
C696 C697 1.377 . S
C696 C698 1.384 . S
C697 C696 1.377 . S
C697 C703 1.390 . S
C698 H689 0.930 1_455 S
C698 C696 1.384 . S
C698 C699 1.372 . S
C699 C698 1.372 . S
C699 C700 1.400 . S
C699 C704 1.490 . S
C700 H690 0.930 . S
C700 C699 1.400 . S
C700 C703 1.386 . S
H701 C717 0.930 . S
H702 C718 0.931 . S
C703 H691 0.929 . S
C703 C697 1.390 . S
C703 C700 1.386 . S
C704 C699 1.490 . S
C704 C706 1.395 1_455 S
C704 C707 1.403 . S
H705 C711 0.930 . S
C706 H692 0.930 . S
C706 C704 1.395 1_655 S
C706 C709 1.403 . S
C707 C704 1.403 . S
C707 C708 1.524 . S
C707 C711 1.400 . S
C708 H693 0.960 . S
C708 H694 0.960 . S
C708 H695 0.960 . S
C708 C707 1.524 . S
C709 C706 1.403 . S
C709 C710 1.392 . S
C709 C713 1.495 . S
C710 C709 1.392 . S
C710 C711 1.385 1_655 S
C710 C712 1.478 . S
C711 H705 0.930 . S
C711 C707 1.400 . S
C711 C710 1.385 1_455 S
C712 C710 1.478 . S
C712 C714 1.381 . S
C712 C718 1.383 1_655 S
C713 C709 1.495 . S
C713 H719 0.959 . S
C713 H720 0.961 . S
C713 H721 0.960 . S
C714 C712 1.381 . S
C714 C715 1.394 1_565 S
C714 H722 0.930 . S
C715 C714 1.394 1_545 S
C715 C716 1.383 . S
C715 H723 0.929 . S
C716 C715 1.383 . S
C716 C717 1.377 1_655 S
C717 H701 0.930 . S
C717 C716 1.377 1_455 S
C717 C718 1.379 1_545 S
C718 H702 0.931 . S
C718 C712 1.383 1_455 S
C718 C717 1.379 1_565 S
H719 C713 0.959 . S
H720 C713 0.961 . S
H721 C713 0.960 . S
H722 C714 0.930 . S
H723 C715 0.929 . S
H724 C732 0.929 . S
H725 C734 0.930 . S
H726 C736 0.930 . S
H727 C739 0.929 . S
H728 C742 0.930 . S
H729 C744 0.960 . S
H730 C744 0.960 . S
H731 C744 0.960 . S
C732 H724 0.929 . S
C732 C733 1.377 . S
C732 C734 1.384 . S
C733 C732 1.377 . S
C733 C739 1.390 . S
C734 H725 0.930 . S
C734 C732 1.384 . S
C734 C735 1.372 . S
C735 C734 1.372 . S
C735 C736 1.400 . S
C735 C740 1.490 . S
C736 H726 0.930 . S
C736 C735 1.400 . S
C736 C739 1.386 . S
H737 C753 0.930 . S
H738 C754 0.931 . S
C739 H727 0.929 . S
C739 C733 1.390 . S
C739 C736 1.386 . S
C740 C735 1.490 . S
C740 C742 1.395 . S
C740 C743 1.403 . S
H741 C747 0.930 . S
C742 H728 0.930 . S
C742 C740 1.395 . S
C742 C745 1.403 . S
C743 C740 1.403 . S
C743 C744 1.524 . S
C743 C747 1.400 . S
C744 H729 0.960 . S
C744 H730 0.960 . S
C744 H731 0.960 . S
C744 C743 1.524 . S
C745 C742 1.403 . S
C745 C746 1.392 . S
C745 C749 1.495 . S
C746 C745 1.392 . S
C746 C747 1.385 . S
C746 C748 1.478 . S
C747 H741 0.930 . S
C747 C743 1.400 . S
C747 C746 1.385 . S
C748 C746 1.478 . S
C748 C750 1.381 . S
C748 C754 1.383 . S
C749 C745 1.495 . S
C749 H755 0.959 . S
C749 H756 0.961 . S
C749 H757 0.960 . S
C750 C748 1.381 . S
C750 C751 1.394 . S
C750 H758 0.930 . S
C751 C750 1.394 . S
C751 C752 1.383 . S
C751 H759 0.929 . S
C752 C751 1.383 . S
C752 C753 1.377 . S
C753 H737 0.930 . S
C753 C752 1.377 . S
C753 C754 1.379 . S
C754 H738 0.931 . S
C754 C748 1.383 . S
C754 C753 1.379 . S
H755 C749 0.959 . S
H756 C749 0.961 . S
H757 C749 0.960 . S
H758 C750 0.930 . S
H759 C751 0.929 . S
H760 C768 0.929 . S
H761 C770 0.930 . S
H762 C772 0.930 . S
H763 C775 0.929 . S
H764 C778 0.930 . S
H765 C780 0.960 . S
H766 C780 0.960 . S
H767 C780 0.960 . S
C768 H760 0.929 . S
C768 C769 1.377 . S
C768 C770 1.384 . S
C769 C768 1.377 . S
C769 C775 1.390 . S
C770 H761 0.930 . S
C770 C768 1.384 . S
C770 C771 1.372 . S
C771 C770 1.372 . S
C771 C772 1.400 . S
C771 C776 1.490 . S
C772 H762 0.930 . S
C772 C771 1.400 . S
C772 C775 1.386 . S
H773 C789 0.930 . S
H774 C790 0.931 . S
C775 H763 0.929 . S
C775 C769 1.390 . S
C775 C772 1.386 . S
C776 C771 1.490 . S
C776 C778 1.395 . S
C776 C779 1.403 . S
H777 C783 0.930 . S
C778 H764 0.930 . S
C778 C776 1.395 . S
C778 C781 1.403 . S
C779 C776 1.403 . S
C779 C780 1.524 . S
C779 C783 1.400 . S
C780 H765 0.960 . S
C780 H766 0.960 . S
C780 H767 0.960 . S
C780 C779 1.524 . S
C781 C778 1.403 . S
C781 C782 1.392 . S
C781 C785 1.495 . S
C782 C781 1.392 . S
C782 C783 1.385 . S
C782 C784 1.478 . S
C783 H777 0.930 . S
C783 C779 1.400 . S
C783 C782 1.385 . S
C784 C782 1.478 . S
C784 C786 1.381 . S
C784 C790 1.383 . S
C785 C781 1.495 . S
C785 H791 0.959 . S
C785 H792 0.961 . S
C785 H793 0.960 . S
C786 C784 1.381 . S
C786 C787 1.394 . S
C786 H794 0.930 . S
C787 C786 1.394 . S
C787 C788 1.383 . S
C787 H795 0.929 . S
C788 C787 1.383 . S
C788 C789 1.377 . S
C789 H773 0.930 . S
C789 C788 1.377 . S
C789 C790 1.379 . S
C790 H774 0.931 . S
C790 C784 1.383 . S
C790 C789 1.379 . S
H791 C785 0.959 . S
H792 C785 0.961 . S
H793 C785 0.960 . S
H794 C786 0.930 . S
H795 C787 0.929 . S
H796 C804 0.929 . S
H797 C806 0.930 . S
H798 C808 0.930 . S
H799 C811 0.929 . S
H800 C814 0.930 . S
H801 C816 0.960 1_455 S
H802 C816 0.960 . S
H803 C816 0.960 . S
C804 H796 0.929 . S
C804 C805 1.377 . S
C804 C806 1.384 . S
C805 C804 1.377 . S
C805 C811 1.390 . S
C806 H797 0.930 . S
C806 C804 1.384 . S
C806 C807 1.372 . S
C807 C806 1.372 . S
C807 C808 1.400 . S
C807 C812 1.490 . S
C808 H798 0.930 . S
C808 C807 1.400 . S
C808 C811 1.386 . S
H809 C825 0.930 . S
H810 C826 0.931 . S
C811 H799 0.929 . S
C811 C805 1.390 . S
C811 C808 1.386 . S
C812 C807 1.490 . S
C812 C814 1.395 . S
C812 C815 1.403 . S
H813 C819 0.930 . S
C814 H800 0.930 . S
C814 C812 1.395 . S
C814 C817 1.403 1_655 S
C815 C812 1.403 . S
C815 C816 1.524 . S
C815 C819 1.400 1_655 S
C816 H801 0.960 1_655 S
C816 H802 0.960 . S
C816 H803 0.960 . S
C816 C815 1.524 . S
C817 C814 1.403 1_455 S
C817 C818 1.392 . S
C817 C821 1.495 . S
C818 C817 1.392 . S
C818 C819 1.385 . S
C818 C820 1.478 . S
C819 H813 0.930 . S
C819 C815 1.400 1_455 S
C819 C818 1.385 . S
C820 C818 1.478 . S
C820 C822 1.381 . S
C820 C826 1.383 . S
C821 C817 1.495 . S
C821 H827 0.959 . S
C821 H828 0.961 . S
C821 H829 0.960 . S
C822 C820 1.381 . S
C822 C823 1.394 . S
C822 H830 0.930 . S
C823 C822 1.394 . S
C823 C824 1.383 . S
C823 H831 0.929 . S
C824 C823 1.383 . S
C824 C825 1.377 . S
C825 H809 0.930 . S
C825 C824 1.377 . S
C825 C826 1.379 . S
C826 H810 0.931 . S
C826 C820 1.383 . S
C826 C825 1.379 . S
H827 C821 0.959 . S
H828 C821 0.961 . S
H829 C821 0.960 . S
H830 C822 0.930 . S
H831 C823 0.929 . S
H832 C840 0.929 . S
H833 C842 0.930 . S
H834 C844 0.930 . S
H835 C847 0.929 . S
H836 C850 0.930 . S
H837 C852 0.960 . S
H838 C852 0.960 . S
H839 C852 0.960 . S
C840 H832 0.929 . S
C840 C841 1.377 . S
C840 C842 1.384 . S
C841 C840 1.377 . S
C841 C847 1.390 . S
C842 H833 0.930 . S
C842 C840 1.384 . S
C842 C843 1.372 . S
C843 C842 1.372 . S
C843 C844 1.400 . S
C843 C848 1.490 . S
C844 H834 0.930 . S
C844 C843 1.400 . S
C844 C847 1.386 . S
H845 C861 0.930 . S
H846 C862 0.931 . S
C847 H835 0.929 . S
C847 C841 1.390 . S
C847 C844 1.386 . S
C848 C843 1.490 . S
C848 C850 1.395 1_455 S
C848 C851 1.403 . S
H849 C855 0.930 . S
C850 H836 0.930 . S
C850 C848 1.395 1_655 S
C850 C853 1.403 1_554 S
C851 C848 1.403 . S
C851 C852 1.524 . S
C851 C855 1.400 1_554 S
C852 H837 0.960 . S
C852 H838 0.960 . S
C852 H839 0.960 . S
C852 C851 1.524 . S
C853 C850 1.403 1_556 S
C853 C854 1.392 1_655 S
C853 C857 1.495 . S
C854 C853 1.392 1_455 S
C854 C855 1.385 . S
C854 C856 1.478 . S
C855 H849 0.930 . S
C855 C851 1.400 1_556 S
C855 C854 1.385 . S
C856 C854 1.478 . S
C856 C858 1.381 . S
C856 C862 1.383 . S
C857 C853 1.495 . S
C857 H863 0.959 . S
C857 H864 0.961 . S
C857 H865 0.960 . S
C858 C856 1.381 . S
C858 C859 1.394 . S
C858 H866 0.930 . S
C859 C858 1.394 . S
C859 C860 1.383 . S
C859 H867 0.929 . S
C860 C859 1.383 . S
C860 C861 1.377 . S
C861 H845 0.930 . S
C861 C860 1.377 . S
C861 C862 1.379 . S
C862 H846 0.931 . S
C862 C856 1.383 . S
C862 C861 1.379 . S
H863 C857 0.959 . S
H864 C857 0.961 . S
H865 C857 0.960 . S
H866 C858 0.930 . S
H867 C859 0.929 . S
H868 C876 0.929 . S
H869 C878 0.930 . S
H870 C880 0.930 . S
H871 C883 0.929 . S
H872 C886 0.930 . S
H873 C888 0.960 . S
H874 C888 0.960 . S
H875 C888 0.960 . S
C876 H868 0.929 . S
C876 C877 1.377 . S
C876 C878 1.384 . S
C877 C876 1.377 . S
C877 C883 1.390 . S
C878 H869 0.930 . S
C878 C876 1.384 . S
C878 C879 1.372 . S
C879 C878 1.372 . S
C879 C880 1.400 . S
C879 C884 1.490 . S
C880 H870 0.930 . S
C880 C879 1.400 . S
C880 C883 1.386 . S
H881 C897 0.930 . S
H882 C898 0.931 . S
C883 H871 0.929 . S
C883 C877 1.390 . S
C883 C880 1.386 . S
C884 C879 1.490 . S
C884 C886 1.395 . S
C884 C887 1.403 . S
H885 C891 0.930 . S
C886 H872 0.930 . S
C886 C884 1.395 . S
C886 C889 1.403 . S
C887 C884 1.403 . S
C887 C888 1.524 . S
C887 C891 1.400 . S
C888 H873 0.960 . S
C888 H874 0.960 . S
C888 H875 0.960 . S
C888 C887 1.524 . S
C889 C886 1.403 . S
C889 C890 1.392 . S
C889 C893 1.495 . S
C890 C889 1.392 . S
C890 C891 1.385 . S
C890 C892 1.478 . S
C891 H885 0.930 . S
C891 C887 1.400 . S
C891 C890 1.385 . S
C892 C890 1.478 . S
C892 C894 1.381 . S
C892 C898 1.383 . S
C893 C889 1.495 . S
C893 H899 0.959 . S
C893 H900 0.961 . S
C893 H901 0.960 . S
C894 C892 1.381 . S
C894 C895 1.394 . S
C894 H902 0.930 . S
C895 C894 1.394 . S
C895 C896 1.383 . S
C895 H903 0.929 . S
C896 C895 1.383 . S
C896 C897 1.377 . S
C897 H881 0.930 . S
C897 C896 1.377 . S
C897 C898 1.379 . S
C898 H882 0.931 . S
C898 C892 1.383 . S
C898 C897 1.379 . S
H899 C893 0.959 . S
H900 C893 0.961 . S
H901 C893 0.960 . S
H902 C894 0.930 . S
H903 C895 0.929 . S
H904 C912 0.929 . S
H905 C914 0.930 . S
H906 C916 0.930 . S
H907 C919 0.929 . S
H908 C922 0.930 . S
H909 C924 0.960 . S
H910 C924 0.960 . S
H911 C924 0.960 . S
C912 H904 0.929 . S
C912 C913 1.377 . S
C912 C914 1.384 . S
C913 C912 1.377 . S
C913 C919 1.390 . S
C914 H905 0.930 . S
C914 C912 1.384 . S
C914 C915 1.372 . S
C915 C914 1.372 . S
C915 C916 1.400 . S
C915 C920 1.490 . S
C916 H906 0.930 . S
C916 C915 1.400 . S
C916 C919 1.386 . S
H917 C933 0.930 . S
H918 C934 0.931 . S
C919 H907 0.929 . S
C919 C913 1.390 . S
C919 C916 1.386 . S
C920 C915 1.490 . S
C920 C922 1.395 . S
C920 C923 1.403 . S
H921 C927 0.930 . S
C922 H908 0.930 . S
C922 C920 1.395 . S
C922 C925 1.403 . S
C923 C920 1.403 . S
C923 C924 1.524 . S
C923 C927 1.400 . S
C924 H909 0.960 . S
C924 H910 0.960 . S
C924 H911 0.960 . S
C924 C923 1.524 . S
C925 C922 1.403 . S
C925 C926 1.392 . S
C925 C929 1.495 . S
C926 C925 1.392 . S
C926 C927 1.385 . S
C926 C928 1.478 . S
C927 H921 0.930 . S
C927 C923 1.400 . S
C927 C926 1.385 . S
C928 C926 1.478 . S
C928 C930 1.381 . S
C928 C934 1.383 . S
C929 C925 1.495 . S
C929 H935 0.959 . S
C929 H936 0.961 . S
C929 H937 0.960 . S
C930 C928 1.381 . S
C930 C931 1.394 . S
C930 H938 0.930 . S
C931 C930 1.394 . S
C931 C932 1.383 . S
C931 H939 0.929 . S
C932 C931 1.383 . S
C932 C933 1.377 . S
C933 H917 0.930 . S
C933 C932 1.377 . S
C933 C934 1.379 . S
C934 H918 0.931 . S
C934 C928 1.383 . S
C934 C933 1.379 . S
H935 C929 0.959 . S
H936 C929 0.961 . S
H937 C929 0.960 . S
H938 C930 0.930 . S
H939 C931 0.929 . S
H940 C948 0.929 . S
H941 C950 0.930 . S
H942 C952 0.930 . S
H943 C955 0.929 . S
H944 C958 0.930 . S
H945 C960 0.960 . S
H946 C960 0.960 . S
H947 C960 0.960 . S
C948 H940 0.929 . S
C948 C949 1.377 . S
C948 C950 1.384 . S
C949 C948 1.377 . S
C949 C955 1.390 . S
C950 H941 0.930 . S
C950 C948 1.384 . S
C950 C951 1.372 . S
C951 C950 1.372 . S
C951 C952 1.400 . S
C951 C956 1.490 . S
C952 H942 0.930 . S
C952 C951 1.400 . S
C952 C955 1.386 . S
H953 C969 0.930 . S
H954 C970 0.931 . S
C955 H943 0.929 . S
C955 C949 1.390 . S
C955 C952 1.386 . S
C956 C951 1.490 . S
C956 C958 1.395 . S
C956 C959 1.403 . S
H957 C963 0.930 . S
C958 H944 0.930 . S
C958 C956 1.395 . S
C958 C961 1.403 . S
C959 C956 1.403 . S
C959 C960 1.524 . S
C959 C963 1.400 . S
C960 H945 0.960 . S
C960 H946 0.960 . S
C960 H947 0.960 . S
C960 C959 1.524 . S
C961 C958 1.403 . S
C961 C962 1.392 . S
C961 C965 1.495 . S
C962 C961 1.392 . S
C962 C963 1.385 . S
C962 C964 1.478 . S
C963 H957 0.930 . S
C963 C959 1.400 . S
C963 C962 1.385 . S
C964 C962 1.478 . S
C964 C966 1.381 . S
C964 C970 1.383 . S
C965 C961 1.495 . S
C965 H971 0.959 . S
C965 H972 0.961 . S
C965 H973 0.960 . S
C966 C964 1.381 . S
C966 C967 1.394 . S
C966 H974 0.930 . S
C967 C966 1.394 . S
C967 C968 1.383 . S
C967 H975 0.929 . S
C968 C967 1.383 . S
C968 C969 1.377 . S
C969 H953 0.930 . S
C969 C968 1.377 . S
C969 C970 1.379 . S
C970 H954 0.931 . S
C970 C964 1.383 . S
C970 C969 1.379 . S
H971 C965 0.959 . S
H972 C965 0.961 . S
H973 C965 0.960 . S
H974 C966 0.930 . S
H975 C967 0.929 . S
H976 C984 0.929 . S
H977 C986 0.930 . S
H978 C988 0.930 . S
H979 C991 0.929 . S
H980 C994 0.930 . S
H981 C996 0.960 . S
H982 C996 0.960 . S
H983 C996 0.960 . S
C984 H976 0.929 . S
C984 C985 1.377 . S
C984 C986 1.384 . S
C985 C984 1.377 . S
C985 C991 1.390 . S
C986 H977 0.930 . S
C986 C984 1.384 . S
C986 C987 1.372 . S
C987 C986 1.372 . S
C987 C988 1.400 . S
C987 C992 1.490 . S
C988 H978 0.930 . S
C988 C987 1.400 . S
C988 C991 1.386 . S
H989 C1005 0.930 . S
H990 C1006 0.931 . S
C991 H979 0.929 . S
C991 C985 1.390 . S
C991 C988 1.386 . S
C992 C987 1.490 . S
C992 C994 1.395 . S
C992 C995 1.403 . S
H993 C999 0.930 . S
C994 H980 0.930 . S
C994 C992 1.395 . S
C994 C997 1.403 . S
C995 C992 1.403 . S
C995 C996 1.524 . S
C995 C999 1.400 . S
C996 H981 0.960 . S
C996 H982 0.960 . S
C996 H983 0.960 . S
C996 C995 1.524 . S
C997 C994 1.403 . S
C997 C998 1.392 . S
C997 C1001 1.495 . S
C998 C997 1.392 . S
C998 C999 1.385 . S
C998 C1000 1.478 . S
C999 H993 0.930 . S
C999 C995 1.400 . S
C999 C998 1.385 . S
C1000 C998 1.478 . S
C1000 C1002 1.381 . S
C1000 C1006 1.383 . S
C1001 C997 1.495 . S
C1001 H1007 0.959 . S
C1001 H1008 0.961 . S
C1001 H1009 0.960 . S
C1002 C1000 1.381 . S
C1002 C1003 1.394 . S
C1002 H1010 0.930 . S
C1003 C1002 1.394 . S
C1003 C1004 1.383 . S
C1003 H1011 0.929 . S
C1004 C1003 1.383 . S
C1004 C1005 1.377 . S
C1005 H989 0.930 . S
C1005 C1004 1.377 . S
C1005 C1006 1.379 . S
C1006 H990 0.931 . S
C1006 C1000 1.383 . S
C1006 C1005 1.379 . S
H1007 C1001 0.959 . S
H1008 C1001 0.961 . S
H1009 C1001 0.960 . S
H1010 C1002 0.930 . S
H1011 C1003 0.929 . S
H1012 C1020 0.929 . S
H1013 C1022 0.930 . S
H1014 C1024 0.930 . S
H1015 C1027 0.929 . S
H1016 C1030 0.930 . S
H1017 C1032 0.960 . S
H1018 C1032 0.960 . S
H1019 C1032 0.960 . S
C1020 H1012 0.929 . S
C1020 C1021 1.377 . S
C1020 C1022 1.384 . S
C1021 C1020 1.377 . S
C1021 C1027 1.390 . S
C1022 H1013 0.930 . S
C1022 C1020 1.384 . S
C1022 C1023 1.372 . S
C1023 C1022 1.372 . S
C1023 C1024 1.400 . S
C1023 C1028 1.490 . S
C1024 H1014 0.930 . S
C1024 C1023 1.400 . S
C1024 C1027 1.386 . S
H1025 C1041 0.930 . S
H1026 C1042 0.931 . S
C1027 H1015 0.929 . S
C1027 C1021 1.390 . S
C1027 C1024 1.386 . S
C1028 C1023 1.490 . S
C1028 C1030 1.395 . S
C1028 C1031 1.403 . S
H1029 C1035 0.930 . S
C1030 H1016 0.930 . S
C1030 C1028 1.395 . S
C1030 C1033 1.403 . S
C1031 C1028 1.403 . S
C1031 C1032 1.524 . S
C1031 C1035 1.400 . S
C1032 H1017 0.960 . S
C1032 H1018 0.960 . S
C1032 H1019 0.960 . S
C1032 C1031 1.524 . S
C1033 C1030 1.403 . S
C1033 C1034 1.392 . S
C1033 C1037 1.495 . S
C1034 C1033 1.392 . S
C1034 C1035 1.385 . S
C1034 C1036 1.478 . S
C1035 H1029 0.930 . S
C1035 C1031 1.400 . S
C1035 C1034 1.385 . S
C1036 C1034 1.478 . S
C1036 C1038 1.381 . S
C1036 C1042 1.383 . S
C1037 C1033 1.495 . S
C1037 H1043 0.959 . S
C1037 H1044 0.961 . S
C1037 H1045 0.960 . S
C1038 C1036 1.381 . S
C1038 C1039 1.394 . S
C1038 H1046 0.930 . S
C1039 C1038 1.394 . S
C1039 C1040 1.383 . S
C1039 H1047 0.929 . S
C1040 C1039 1.383 . S
C1040 C1041 1.377 . S
C1041 H1025 0.930 . S
C1041 C1040 1.377 . S
C1041 C1042 1.379 . S
C1042 H1026 0.931 . S
C1042 C1036 1.383 . S
C1042 C1041 1.379 . S
H1043 C1037 0.959 . S
H1044 C1037 0.961 . S
H1045 C1037 0.960 . S
H1046 C1038 0.930 . S
H1047 C1039 0.929 . S
H1048 C1056 0.929 . S
H1049 C1058 0.930 . S
H1050 C1060 0.930 . S
H1051 C1063 0.929 . S
H1052 C1066 0.930 . S
H1053 C1068 0.960 . S
H1054 C1068 0.960 . S
H1055 C1068 0.960 . S
C1056 H1048 0.929 . S
C1056 C1057 1.377 . S
C1056 C1058 1.384 . S
C1057 C1056 1.377 . S
C1057 C1063 1.390 . S
C1058 H1049 0.930 . S
C1058 C1056 1.384 . S
C1058 C1059 1.372 . S
C1059 C1058 1.372 . S
C1059 C1060 1.400 . S
C1059 C1064 1.490 . S
C1060 H1050 0.930 . S
C1060 C1059 1.400 . S
C1060 C1063 1.386 . S
H1061 C1077 0.930 . S
H1062 C1078 0.931 . S
C1063 H1051 0.929 . S
C1063 C1057 1.390 . S
C1063 C1060 1.386 . S
C1064 C1059 1.490 . S
C1064 C1066 1.395 . S
C1064 C1067 1.403 . S
H1065 C1071 0.930 . S
C1066 H1052 0.930 . S
C1066 C1064 1.395 . S
C1066 C1069 1.403 . S
C1067 C1064 1.403 . S
C1067 C1068 1.524 . S
C1067 C1071 1.400 . S
C1068 H1053 0.960 . S
C1068 H1054 0.960 . S
C1068 H1055 0.960 . S
C1068 C1067 1.524 . S
C1069 C1066 1.403 . S
C1069 C1070 1.392 . S
C1069 C1073 1.495 . S
C1070 C1069 1.392 . S
C1070 C1071 1.385 . S
C1070 C1072 1.478 . S
C1071 H1065 0.930 . S
C1071 C1067 1.400 . S
C1071 C1070 1.385 . S
C1072 C1070 1.478 . S
C1072 C1074 1.381 . S
C1072 C1078 1.383 . S
C1073 C1069 1.495 . S
C1073 H1079 0.959 . S
C1073 H1080 0.961 . S
C1073 H1081 0.960 . S
C1074 C1072 1.381 . S
C1074 C1075 1.394 . S
C1074 H1082 0.930 . S
C1075 C1074 1.394 . S
C1075 C1076 1.383 . S
C1075 H1083 0.929 . S
C1076 C1075 1.383 . S
C1076 C1077 1.377 . S
C1077 H1061 0.930 . S
C1077 C1076 1.377 . S
C1077 C1078 1.379 . S
C1078 H1062 0.931 . S
C1078 C1072 1.383 . S
C1078 C1077 1.379 . S
H1079 C1073 0.959 . S
H1080 C1073 0.961 . S
H1081 C1073 0.960 . S
H1082 C1074 0.930 . S
H1083 C1075 0.929 . S
H1084 C1092 0.929 . S
H1085 C1094 0.930 . S
H1086 C1096 0.930 . S
H1087 C1099 0.929 . S
H1088 C1102 0.930 . S
H1089 C1104 0.960 . S
H1090 C1104 0.960 1_455 S
H1091 C1104 0.960 . S
C1092 H1084 0.929 . S
C1092 C1093 1.377 1_455 S
C1092 C1094 1.384 . S
C1093 C1092 1.377 1_655 S
C1093 C1099 1.390 . S
C1094 H1085 0.930 . S
C1094 C1092 1.384 . S
C1094 C1095 1.372 1_455 S
C1095 C1094 1.372 1_655 S
C1095 C1096 1.400 . S
C1095 C1100 1.490 . S
C1096 H1086 0.930 . S
C1096 C1095 1.400 . S
C1096 C1099 1.386 . S
H1097 C1113 0.930 . S
H1098 C1114 0.931 . S
C1099 H1087 0.929 . S
C1099 C1093 1.390 . S
C1099 C1096 1.386 . S
C1100 C1095 1.490 . S
C1100 C1102 1.395 . S
C1100 C1103 1.403 . S
H1101 C1107 0.930 . S
C1102 H1088 0.930 . S
C1102 C1100 1.395 . S
C1102 C1105 1.403 1_556 S
C1103 C1100 1.403 . S
C1103 C1104 1.524 . S
C1103 C1107 1.400 1_556 S
C1104 H1089 0.960 . S
C1104 H1090 0.960 1_655 S
C1104 H1091 0.960 . S
C1104 C1103 1.524 . S
C1105 C1102 1.403 1_554 S
C1105 C1106 1.392 . S
C1105 C1109 1.495 . S
C1106 C1105 1.392 . S
C1106 C1107 1.385 . S
C1106 C1108 1.478 . S
C1107 H1101 0.930 . S
C1107 C1103 1.400 1_554 S
C1107 C1106 1.385 . S
C1108 C1106 1.478 . S
C1108 C1110 1.381 1_655 S
C1108 C1114 1.383 . S
C1109 C1105 1.495 . S
C1109 H1115 0.959 . S
C1109 H1116 0.961 . S
C1109 H1117 0.960 1_655 S
C1110 C1108 1.381 1_455 S
C1110 C1111 1.394 . S
C1110 H1118 0.930 . S
C1111 C1110 1.394 . S
C1111 C1112 1.383 1_455 S
C1111 H1119 0.929 . S
C1112 C1111 1.383 1_655 S
C1112 C1113 1.377 . S
C1113 H1097 0.930 . S
C1113 C1112 1.377 . S
C1113 C1114 1.379 . S
C1114 H1098 0.931 . S
C1114 C1108 1.383 . S
C1114 C1113 1.379 . S
H1115 C1109 0.959 . S
H1116 C1109 0.961 . S
H1117 C1109 0.960 1_455 S
H1118 C1110 0.930 . S
H1119 C1111 0.929 . S
H1120 C1128 0.926 1_545 S
H1121 C1130 0.930 . S
H1122 C1132 0.930 . S
H1123 C1135 0.929 . S
H1124 C1138 0.930 . S
H1125 C1140 0.960 . S
H1126 C1140 0.960 . S
H1127 C1140 0.960 . S
C1128 H1120 0.926 1_565 S
C1128 C1129 1.389 . S
C1128 C1130 1.376 1_565 S
C1129 C1128 1.389 . S
C1129 C1135 1.390 . S
C1130 H1121 0.930 . S
C1130 C1128 1.376 1_545 S
C1130 C1131 1.372 . S
C1131 C1130 1.372 . S
C1131 C1132 1.400 1_545 S
C1131 C1136 1.490 . S
C1132 H1122 0.930 . S
C1132 C1131 1.400 1_565 S
C1132 C1135 1.386 . S
H1133 C1149 0.930 . S
H1134 C1150 0.931 . S
C1135 H1123 0.929 . S
C1135 C1129 1.390 . S
C1135 C1132 1.386 . S
C1136 C1131 1.490 . S
C1136 C1138 1.395 . S
C1136 C1139 1.403 . S
H1137 C1143 0.930 . S
C1138 H1124 0.930 . S
C1138 C1136 1.395 . S
C1138 C1141 1.403 . S
C1139 C1136 1.403 . S
C1139 C1140 1.524 1_545 S
C1139 C1143 1.400 . S
C1140 H1125 0.960 . S
C1140 H1126 0.960 . S
C1140 H1127 0.960 . S
C1140 C1139 1.524 1_565 S
C1141 C1138 1.403 . S
C1141 C1142 1.392 . S
C1141 C1145 1.495 . S
C1142 C1141 1.392 . S
C1142 C1143 1.385 . S
C1142 C1144 1.478 . S
C1143 H1137 0.930 . S
C1143 C1139 1.400 . S
C1143 C1142 1.385 . S
C1144 C1142 1.478 . S
C1144 C1146 1.381 . S
C1144 C1150 1.383 . S
C1145 C1141 1.495 . S
C1145 H1151 0.959 . S
C1145 H1152 0.961 . S
C1145 H1153 0.960 . S
C1146 C1144 1.381 . S
C1146 C1147 1.394 . S
C1146 H1154 0.930 . S
C1147 C1146 1.394 . S
C1147 C1148 1.383 . S
C1147 H1155 0.929 . S
C1148 C1147 1.383 . S
C1148 C1149 1.377 . S
C1149 H1133 0.930 . S
C1149 C1148 1.377 . S
C1149 C1150 1.379 . S
C1150 H1134 0.931 . S
C1150 C1144 1.383 . S
C1150 C1149 1.379 . S
H1151 C1145 0.959 . S
H1152 C1145 0.961 . S
H1153 C1145 0.960 . S
H1154 C1146 0.930 . S
H1155 C1147 0.929 . S
H1156 C1164 0.929 . S
H1157 C1166 0.930 . S
H1158 C1168 0.930 . S
H1159 C1171 0.929 . S
H1160 C1174 0.930 1_565 S
H1161 C1176 0.960 . S
H1162 C1176 0.960 . S
H1163 C1176 0.960 . S
C1164 H1156 0.929 . S
C1164 C1165 1.377 . S
C1164 C1166 1.384 . S
C1165 C1164 1.377 . S
C1165 C1171 1.390 1_565 S
C1166 H1157 0.930 . S
C1166 C1164 1.384 . S
C1166 C1167 1.372 1_565 S
C1167 C1166 1.372 1_545 S
C1167 C1168 1.400 . S
C1167 C1172 1.490 . S
C1168 H1158 0.930 . S
C1168 C1167 1.400 . S
C1168 C1171 1.386 . S
H1169 C1185 0.930 . S
H1170 C1186 0.931 . S
C1171 H1159 0.929 . S
C1171 C1165 1.390 1_545 S
C1171 C1168 1.386 . S
C1172 C1167 1.490 . S
C1172 C1174 1.395 . S
C1172 C1175 1.403 . S
H1173 C1179 0.930 . S
C1174 H1160 0.930 1_545 S
C1174 C1172 1.395 . S
C1174 C1177 1.403 . S
C1175 C1172 1.403 . S
C1175 C1176 1.524 . S
C1175 C1179 1.400 . S
C1176 H1161 0.960 . S
C1176 H1162 0.960 . S
C1176 H1163 0.960 . S
C1176 C1175 1.524 . S
C1177 C1174 1.403 . S
C1177 C1178 1.392 . S
C1177 C1181 1.495 . S
C1178 C1177 1.392 . S
C1178 C1179 1.385 . S
C1178 C1180 1.478 . S
C1179 H1173 0.930 . S
C1179 C1175 1.400 . S
C1179 C1178 1.385 . S
C1180 C1178 1.478 . S
C1180 C1182 1.381 . S
C1180 C1186 1.383 . S
C1181 C1177 1.495 . S
C1181 H1187 0.959 . S
C1181 H1188 0.961 . S
C1181 H1189 0.960 . S
C1182 C1180 1.381 . S
C1182 C1183 1.394 . S
C1182 H1190 0.930 . S
C1183 C1182 1.394 . S
C1183 C1184 1.383 . S
C1183 H1191 0.929 . S
C1184 C1183 1.383 . S
C1184 C1185 1.377 . S
C1185 H1169 0.930 . S
C1185 C1184 1.377 . S
C1185 C1186 1.379 . S
C1186 H1170 0.931 . S
C1186 C1180 1.383 . S
C1186 C1185 1.379 . S
H1187 C1181 0.959 . S
H1188 C1181 0.961 . S
H1189 C1181 0.960 . S
H1190 C1182 0.930 . S
H1191 C1183 0.929 . S
H1192 C1200 0.929 . S
H1193 C1202 0.930 . S
H1194 C1204 0.930 . S
H1195 C1207 0.929 . S
H1196 C1210 0.930 . S
H1197 C1212 0.960 . S
H1198 C1212 0.960 . S
H1199 C1212 0.960 . S
C1200 H1192 0.929 . S
C1200 C1201 1.377 . S
C1200 C1202 1.384 . S
C1201 C1200 1.377 . S
C1201 C1207 1.390 . S
C1202 H1193 0.930 . S
C1202 C1200 1.384 . S
C1202 C1203 1.372 . S
C1203 C1202 1.372 . S
C1203 C1204 1.400 . S
C1203 C1208 1.490 . S
C1204 H1194 0.930 . S
C1204 C1203 1.400 . S
C1204 C1207 1.386 . S
H1205 C1221 0.930 . S
H1206 C1222 0.931 . S
C1207 H1195 0.929 . S
C1207 C1201 1.390 . S
C1207 C1204 1.386 . S
C1208 C1203 1.490 . S
C1208 C1210 1.395 . S
C1208 C1211 1.403 . S
H1209 C1215 0.930 . S
C1210 H1196 0.930 . S
C1210 C1208 1.395 . S
C1210 C1213 1.403 . S
C1211 C1208 1.403 . S
C1211 C1212 1.524 . S
C1211 C1215 1.400 . S
C1212 H1197 0.960 . S
C1212 H1198 0.960 . S
C1212 H1199 0.960 . S
C1212 C1211 1.524 . S
C1213 C1210 1.403 . S
C1213 C1214 1.392 . S
C1213 C1217 1.495 . S
C1214 C1213 1.392 . S
C1214 C1215 1.385 . S
C1214 C1216 1.478 . S
C1215 H1209 0.930 . S
C1215 C1211 1.400 . S
C1215 C1214 1.385 . S
C1216 C1214 1.478 . S
C1216 C1218 1.381 . S
C1216 C1222 1.383 . S
C1217 C1213 1.495 . S
C1217 H1223 0.959 . S
C1217 H1224 0.961 . S
C1217 H1225 0.960 . S
C1218 C1216 1.381 . S
C1218 C1219 1.394 . S
C1218 H1226 0.930 . S
C1219 C1218 1.394 . S
C1219 C1220 1.383 . S
C1219 H1227 0.929 . S
C1220 C1219 1.383 . S
C1220 C1221 1.377 . S
C1221 H1205 0.930 . S
C1221 C1220 1.377 . S
C1221 C1222 1.379 . S
C1222 H1206 0.931 . S
C1222 C1216 1.383 . S
C1222 C1221 1.379 . S
H1223 C1217 0.959 . S
H1224 C1217 0.961 . S
H1225 C1217 0.960 . S
H1226 C1218 0.930 . S
H1227 C1219 0.929 . S
H1228 C1236 0.929 . S
H1229 C1238 0.930 . S
H1230 C1240 0.930 . S
H1231 C1243 0.929 . S
H1232 C1246 0.930 . S
H1233 C1248 0.960 . S
H1234 C1248 0.960 . S
H1235 C1248 0.960 . S
C1236 H1228 0.929 . S
C1236 C1237 1.377 . S
C1236 C1238 1.384 . S
C1237 C1236 1.377 . S
C1237 C1243 1.390 . S
C1238 H1229 0.930 . S
C1238 C1236 1.384 . S
C1238 C1239 1.372 . S
C1239 C1238 1.372 . S
C1239 C1240 1.400 . S
C1239 C1244 1.490 . S
C1240 H1230 0.930 . S
C1240 C1239 1.400 . S
C1240 C1243 1.386 . S
H1241 C1257 0.930 . S
H1242 C1258 0.931 . S
C1243 H1231 0.929 . S
C1243 C1237 1.390 . S
C1243 C1240 1.386 . S
C1244 C1239 1.490 . S
C1244 C1246 1.395 . S
C1244 C1247 1.403 . S
H1245 C1251 0.930 . S
C1246 H1232 0.930 . S
C1246 C1244 1.395 . S
C1246 C1249 1.403 . S
C1247 C1244 1.403 . S
C1247 C1248 1.524 . S
C1247 C1251 1.400 . S
C1248 H1233 0.960 . S
C1248 H1234 0.960 . S
C1248 H1235 0.960 . S
C1248 C1247 1.524 . S
C1249 C1246 1.403 . S
C1249 C1250 1.392 . S
C1249 C1253 1.495 . S
C1250 C1249 1.392 . S
C1250 C1251 1.385 . S
C1250 C1252 1.478 . S
C1251 H1245 0.930 . S
C1251 C1247 1.400 . S
C1251 C1250 1.385 . S
C1252 C1250 1.478 . S
C1252 C1254 1.381 . S
C1252 C1258 1.383 . S
C1253 C1249 1.495 . S
C1253 H1259 0.959 . S
C1253 H1260 0.961 . S
C1253 H1261 0.960 . S
C1254 C1252 1.381 . S
C1254 C1255 1.394 . S
C1254 H1262 0.930 . S
C1255 C1254 1.394 . S
C1255 C1256 1.383 . S
C1255 H1263 0.929 . S
C1256 C1255 1.383 . S
C1256 C1257 1.377 . S
C1257 H1241 0.930 . S
C1257 C1256 1.377 . S
C1257 C1258 1.379 . S
C1258 H1242 0.931 . S
C1258 C1252 1.383 . S
C1258 C1257 1.379 . S
H1259 C1253 0.959 . S
H1260 C1253 0.961 . S
H1261 C1253 0.960 . S
H1262 C1254 0.930 . S
H1263 C1255 0.929 . S
H1264 C1272 0.929 . S
H1265 C1274 0.930 . S
H1266 C1276 0.930 . S
H1267 C1279 0.929 . S
H1268 C1282 0.930 . S
H1269 C1284 0.960 . S
H1270 C1284 0.960 . S
H1271 C1284 0.960 . S
C1272 H1264 0.929 . S
C1272 C1273 1.377 . S
C1272 C1274 1.384 . S
C1273 C1272 1.377 . S
C1273 C1279 1.390 . S
C1274 H1265 0.930 . S
C1274 C1272 1.384 . S
C1274 C1275 1.372 . S
C1275 C1274 1.372 . S
C1275 C1276 1.400 . S
C1275 C1280 1.490 . S
C1276 H1266 0.930 . S
C1276 C1275 1.400 . S
C1276 C1279 1.386 . S
H1277 C1293 0.930 . S
H1278 C1294 0.931 . S
C1279 H1267 0.929 . S
C1279 C1273 1.390 . S
C1279 C1276 1.386 . S
C1280 C1275 1.490 . S
C1280 C1282 1.395 . S
C1280 C1283 1.403 . S
H1281 C1287 0.930 . S
C1282 H1268 0.930 . S
C1282 C1280 1.395 . S
C1282 C1285 1.403 . S
C1283 C1280 1.403 . S
C1283 C1284 1.524 . S
C1283 C1287 1.400 . S
C1284 H1269 0.960 . S
C1284 H1270 0.960 . S
C1284 H1271 0.960 . S
C1284 C1283 1.524 . S
C1285 C1282 1.403 . S
C1285 C1286 1.392 . S
C1285 C1289 1.495 . S
C1286 C1285 1.392 . S
C1286 C1287 1.385 . S
C1286 C1288 1.478 . S
C1287 H1281 0.930 . S
C1287 C1283 1.400 . S
C1287 C1286 1.385 . S
C1288 C1286 1.478 . S
C1288 C1290 1.381 . S
C1288 C1294 1.383 . S
C1289 C1285 1.495 . S
C1289 H1295 0.959 . S
C1289 H1296 0.961 . S
C1289 H1297 0.960 . S
C1290 C1288 1.381 . S
C1290 C1291 1.394 . S
C1290 H1298 0.930 . S
C1291 C1290 1.394 . S
C1291 C1292 1.383 . S
C1291 H1299 0.929 . S
C1292 C1291 1.383 . S
C1292 C1293 1.377 . S
C1293 H1277 0.930 . S
C1293 C1292 1.377 . S
C1293 C1294 1.379 . S
C1294 H1278 0.931 . S
C1294 C1288 1.383 . S
C1294 C1293 1.379 . S
H1295 C1289 0.959 . S
H1296 C1289 0.961 . S
H1297 C1289 0.960 . S
H1298 C1290 0.930 . S
H1299 C1291 0.929 . S
H1300 C1308 0.929 . S
H1301 C1310 0.930 . S
H1302 C1312 0.930 . S
H1303 C1315 0.929 . S
H1304 C1318 0.930 . S
H1305 C1320 0.960 . S
H1306 C1320 0.960 . S
H1307 C1320 0.960 . S
C1308 H1300 0.929 . S
C1308 C1309 1.377 . S
C1308 C1310 1.384 . S
C1309 C1308 1.377 . S
C1309 C1315 1.390 . S
C1310 H1301 0.930 . S
C1310 C1308 1.384 . S
C1310 C1311 1.372 . S
C1311 C1310 1.372 . S
C1311 C1312 1.400 . S
C1311 C1316 1.490 . S
C1312 H1302 0.930 . S
C1312 C1311 1.400 . S
C1312 C1315 1.386 . S
H1313 C1329 0.930 . S
H1314 C1330 0.931 . S
C1315 H1303 0.929 . S
C1315 C1309 1.390 . S
C1315 C1312 1.386 . S
C1316 C1311 1.490 . S
C1316 C1318 1.395 . S
C1316 C1319 1.403 . S
H1317 C1323 0.930 . S
C1318 H1304 0.930 . S
C1318 C1316 1.395 . S
C1318 C1321 1.403 . S
C1319 C1316 1.403 . S
C1319 C1320 1.524 . S
C1319 C1323 1.400 . S
C1320 H1305 0.960 . S
C1320 H1306 0.960 . S
C1320 H1307 0.960 . S
C1320 C1319 1.524 . S
C1321 C1318 1.403 . S
C1321 C1322 1.392 . S
C1321 C1325 1.495 . S
C1322 C1321 1.392 . S
C1322 C1323 1.385 . S
C1322 C1324 1.478 . S
C1323 H1317 0.930 . S
C1323 C1319 1.400 . S
C1323 C1322 1.385 . S
C1324 C1322 1.478 . S
C1324 C1326 1.381 . S
C1324 C1330 1.383 . S
C1325 C1321 1.495 . S
C1325 H1331 0.959 . S
C1325 H1332 0.961 . S
C1325 H1333 0.960 . S
C1326 C1324 1.381 . S
C1326 C1327 1.394 . S
C1326 H1334 0.930 . S
C1327 C1326 1.394 . S
C1327 C1328 1.383 . S
C1327 H1335 0.929 . S
C1328 C1327 1.383 . S
C1328 C1329 1.377 . S
C1329 H1313 0.930 . S
C1329 C1328 1.377 . S
C1329 C1330 1.379 . S
C1330 H1314 0.931 . S
C1330 C1324 1.383 . S
C1330 C1329 1.379 . S
H1331 C1325 0.959 . S
H1332 C1325 0.961 . S
H1333 C1325 0.960 . S
H1334 C1326 0.930 . S
H1335 C1327 0.929 . S
H1336 C1344 0.929 . S
H1337 C1346 0.941 . S
H1338 C1348 0.930 . S
H1339 C1351 0.929 . S
H1340 C1354 0.930 . S
H1341 C1356 0.960 . S
H1342 C1356 0.960 . S
H1343 C1356 0.960 . S
C1344 H1336 0.929 . S
C1344 C1345 1.377 . S
C1344 C1346 1.373 1_565 S
C1345 C1344 1.377 . S
C1345 C1351 1.390 . S
C1346 H1337 0.941 . S
C1346 C1344 1.373 1_545 S
C1346 C1347 1.373 . S
C1347 C1346 1.373 . S
C1347 C1348 1.400 1_545 S
C1347 C1352 1.490 . S
C1348 H1338 0.930 . S
C1348 C1347 1.400 1_565 S
C1348 C1351 1.386 . S
H1349 C1365 0.930 . S
H1350 C1366 0.931 . S
C1351 H1339 0.929 . S
C1351 C1345 1.390 . S
C1351 C1348 1.386 . S
C1352 C1347 1.490 . S
C1352 C1354 1.395 . S
C1352 C1355 1.403 . S
H1353 C1359 0.930 . S
C1354 H1340 0.930 . S
C1354 C1352 1.395 . S
C1354 C1357 1.403 . S
C1355 C1352 1.403 . S
C1355 C1356 1.524 1_545 S
C1355 C1359 1.400 . S
C1356 H1341 0.960 . S
C1356 H1342 0.960 . S
C1356 H1343 0.960 . S
C1356 C1355 1.524 1_565 S
C1357 C1354 1.403 . S
C1357 C1358 1.392 . S
C1357 C1361 1.495 . S
C1358 C1357 1.392 . S
C1358 C1359 1.385 . S
C1358 C1360 1.478 . S
C1359 H1353 0.930 . S
C1359 C1355 1.400 . S
C1359 C1358 1.385 . S
C1360 C1358 1.478 . S
C1360 C1362 1.381 . S
C1360 C1366 1.383 . S
C1361 C1357 1.495 . S
C1361 H1367 0.959 . S
C1361 H1368 0.961 . S
C1361 H1369 0.960 . S
C1362 C1360 1.381 . S
C1362 C1363 1.394 . S
C1362 H1370 0.930 . S
C1363 C1362 1.394 . S
C1363 C1364 1.383 . S
C1363 H1371 0.929 . S
C1364 C1363 1.383 . S
C1364 C1365 1.377 . S
C1365 H1349 0.930 . S
C1365 C1364 1.377 . S
C1365 C1366 1.379 . S
C1366 H1350 0.931 . S
C1366 C1360 1.383 . S
C1366 C1365 1.379 . S
H1367 C1361 0.959 . S
H1368 C1361 0.961 . S
H1369 C1361 0.960 . S
H1370 C1362 0.930 . S
H1371 C1363 0.929 . S
H1372 C1380 0.929 . S
H1373 C1382 0.930 . S
H1374 C1384 0.930 . S
H1375 C1387 0.929 . S
H1376 C1390 0.930 . S
H1377 C1392 0.960 . S
H1378 C1392 0.960 . S
H1379 C1392 0.960 . S
C1380 H1372 0.929 . S
C1380 C1381 1.377 . S
C1380 C1382 1.384 1_565 S
C1381 C1380 1.377 . S
C1381 C1387 1.390 . S
C1382 H1373 0.930 . S
C1382 C1380 1.384 1_545 S
C1382 C1383 1.372 . S
C1383 C1382 1.372 . S
C1383 C1384 1.400 1_545 S
C1383 C1388 1.490 . S
C1384 H1374 0.930 . S
C1384 C1383 1.400 1_565 S
C1384 C1387 1.386 . S
H1385 C1401 0.930 . S
H1386 C1402 0.931 . S
C1387 H1375 0.929 . S
C1387 C1381 1.390 . S
C1387 C1384 1.386 . S
C1388 C1383 1.490 . S
C1388 C1390 1.395 . S
C1388 C1391 1.403 . S
H1389 C1395 0.930 . S
C1390 H1376 0.930 . S
C1390 C1388 1.395 . S
C1390 C1393 1.403 . S
C1391 C1388 1.403 . S
C1391 C1392 1.524 . S
C1391 C1395 1.400 . S
C1392 H1377 0.960 . S
C1392 H1378 0.960 . S
C1392 H1379 0.960 . S
C1392 C1391 1.524 . S
C1393 C1390 1.403 . S
C1393 C1394 1.392 . S
C1393 C1397 1.495 . S
C1394 C1393 1.392 . S
C1394 C1395 1.385 . S
C1394 C1396 1.478 . S
C1395 H1389 0.930 . S
C1395 C1391 1.400 . S
C1395 C1394 1.385 . S
C1396 C1394 1.478 . S
C1396 C1398 1.381 . S
C1396 C1402 1.383 . S
C1397 C1393 1.495 . S
C1397 H1403 0.959 . S
C1397 H1404 0.961 . S
C1397 H1405 0.960 . S
C1398 C1396 1.381 . S
C1398 C1399 1.394 . S
C1398 H1406 0.930 . S
C1399 C1398 1.394 . S
C1399 C1400 1.383 . S
C1399 H1407 0.929 . S
C1400 C1399 1.383 . S
C1400 C1401 1.377 . S
C1401 H1385 0.930 . S
C1401 C1400 1.377 . S
C1401 C1402 1.379 . S
C1402 H1386 0.931 . S
C1402 C1396 1.383 . S
C1402 C1401 1.379 . S
H1403 C1397 0.959 . S
H1404 C1397 0.961 . S
H1405 C1397 0.960 . S
H1406 C1398 0.930 . S
H1407 C1399 0.929 . S
H1408 C1416 0.929 . S
H1409 C1418 0.930 . S
H1410 C1420 0.930 . S
H1411 C1423 0.929 . S
H1412 C1426 0.930 . S
H1413 C1428 0.960 . S
H1414 C1428 0.960 . S
H1415 C1428 0.960 . S
C1416 H1408 0.929 . S
C1416 C1417 1.377 . S
C1416 C1418 1.384 . S
C1417 C1416 1.377 . S
C1417 C1423 1.390 . S
C1418 H1409 0.930 . S
C1418 C1416 1.384 . S
C1418 C1419 1.372 . S
C1419 C1418 1.372 . S
C1419 C1420 1.400 . S
C1419 C1424 1.490 . S
C1420 H1410 0.930 . S
C1420 C1419 1.400 . S
C1420 C1423 1.386 . S
H1421 C1437 0.930 . S
H1422 C1438 0.931 . S
C1423 H1411 0.929 . S
C1423 C1417 1.390 . S
C1423 C1420 1.386 . S
C1424 C1419 1.490 . S
C1424 C1426 1.395 . S
C1424 C1427 1.403 . S
H1425 C1431 0.930 . S
C1426 H1412 0.930 . S
C1426 C1424 1.395 . S
C1426 C1429 1.403 . S
C1427 C1424 1.403 . S
C1427 C1428 1.524 . S
C1427 C1431 1.400 . S
C1428 H1413 0.960 . S
C1428 H1414 0.960 . S
C1428 H1415 0.960 . S
C1428 C1427 1.524 . S
C1429 C1426 1.403 . S
C1429 C1430 1.392 . S
C1429 C1433 1.495 . S
C1430 C1429 1.392 . S
C1430 C1431 1.385 . S
C1430 C1432 1.478 . S
C1431 H1425 0.930 . S
C1431 C1427 1.400 . S
C1431 C1430 1.385 . S
C1432 C1430 1.478 . S
C1432 C1434 1.381 . S
C1432 C1438 1.383 . S
C1433 C1429 1.495 . S
C1433 H1439 0.959 . S
C1433 H1440 0.961 . S
C1433 H1441 0.960 . S
C1434 C1432 1.381 . S
C1434 C1435 1.394 . S
C1434 H1442 0.930 . S
C1435 C1434 1.394 . S
C1435 C1436 1.383 . S
C1435 H1443 0.929 . S
C1436 C1435 1.383 . S
C1436 C1437 1.377 . S
C1437 H1421 0.930 . S
C1437 C1436 1.377 . S
C1437 C1438 1.379 . S
C1438 H1422 0.931 . S
C1438 C1432 1.383 . S
C1438 C1437 1.379 . S
H1439 C1433 0.959 . S
H1440 C1433 0.961 . S
H1441 C1433 0.960 . S
H1442 C1434 0.930 . S
H1443 C1435 0.929 . S
H1444 C1452 0.929 . S
H1445 C1454 0.930 . S
H1446 C1456 0.930 . S
H1447 C1459 0.929 . S
H1448 C1462 0.930 . S
H1449 C1464 0.960 . S
H1450 C1464 0.960 . S
H1451 C1464 0.960 . S
C1452 H1444 0.929 . S
C1452 C1453 1.377 . S
C1452 C1454 1.384 . S
C1453 C1452 1.377 . S
C1453 C1459 1.390 . S
C1454 H1445 0.930 . S
C1454 C1452 1.384 . S
C1454 C1455 1.372 . S
C1455 C1454 1.372 . S
C1455 C1456 1.400 . S
C1455 C1460 1.490 . S
C1456 H1446 0.930 . S
C1456 C1455 1.400 . S
C1456 C1459 1.386 . S
H1457 C1473 0.930 . S
H1458 C1474 0.931 . S
C1459 H1447 0.929 . S
C1459 C1453 1.390 . S
C1459 C1456 1.386 . S
C1460 C1455 1.490 . S
C1460 C1462 1.395 . S
C1460 C1463 1.403 . S
H1461 C1467 0.930 . S
C1462 H1448 0.930 . S
C1462 C1460 1.395 . S
C1462 C1465 1.403 . S
C1463 C1460 1.403 . S
C1463 C1464 1.524 . S
C1463 C1467 1.400 . S
C1464 H1449 0.960 . S
C1464 H1450 0.960 . S
C1464 H1451 0.960 . S
C1464 C1463 1.524 . S
C1465 C1462 1.403 . S
C1465 C1466 1.392 . S
C1465 C1469 1.495 . S
C1466 C1465 1.392 . S
C1466 C1467 1.385 . S
C1466 C1468 1.478 . S
C1467 H1461 0.930 . S
C1467 C1463 1.400 . S
C1467 C1466 1.385 . S
C1468 C1466 1.478 . S
C1468 C1470 1.381 . S
C1468 C1474 1.383 . S
C1469 C1465 1.495 . S
C1469 H1475 0.959 . S
C1469 H1476 0.961 . S
C1469 H1477 0.960 . S
C1470 C1468 1.381 . S
C1470 C1471 1.394 . S
C1470 H1478 0.930 . S
C1471 C1470 1.394 . S
C1471 C1472 1.383 . S
C1471 H1479 0.929 . S
C1472 C1471 1.383 . S
C1472 C1473 1.377 . S
C1473 H1457 0.930 . S
C1473 C1472 1.377 . S
C1473 C1474 1.379 . S
C1474 H1458 0.931 . S
C1474 C1468 1.383 . S
C1474 C1473 1.379 . S
H1475 C1469 0.959 . S
H1476 C1469 0.961 . S
H1477 C1469 0.960 . S
H1478 C1470 0.930 . S
H1479 C1471 0.929 . S
H1480 C1488 0.929 . S
H1481 C1490 0.930 . S
H1482 C1492 0.930 . S
H1483 C1495 0.929 . S
H1484 C1498 0.930 . S
H1485 C1500 0.960 . S
H1486 C1500 0.960 . S
H1487 C1500 0.960 . S
C1488 H1480 0.929 . S
C1488 C1489 1.377 . S
C1488 C1490 1.384 . S
C1489 C1488 1.377 . S
C1489 C1495 1.390 . S
C1490 H1481 0.930 . S
C1490 C1488 1.384 . S
C1490 C1491 1.372 . S
C1491 C1490 1.372 . S
C1491 C1492 1.400 . S
C1491 C1496 1.490 . S
C1492 H1482 0.930 . S
C1492 C1491 1.400 . S
C1492 C1495 1.386 . S
H1493 C1509 0.930 . S
H1494 C1510 0.931 . S
C1495 H1483 0.929 . S
C1495 C1489 1.390 . S
C1495 C1492 1.386 . S
C1496 C1491 1.490 . S
C1496 C1498 1.395 . S
C1496 C1499 1.403 . S
H1497 C1503 0.930 . S
C1498 H1484 0.930 . S
C1498 C1496 1.395 . S
C1498 C1501 1.403 . S
C1499 C1496 1.403 . S
C1499 C1500 1.524 . S
C1499 C1503 1.400 . S
C1500 H1485 0.960 . S
C1500 H1486 0.960 . S
C1500 H1487 0.960 . S
C1500 C1499 1.524 . S
C1501 C1498 1.403 . S
C1501 C1502 1.392 . S
C1501 C1505 1.495 . S
C1502 C1501 1.392 . S
C1502 C1503 1.385 . S
C1502 C1504 1.478 . S
C1503 H1497 0.930 . S
C1503 C1499 1.400 . S
C1503 C1502 1.385 . S
C1504 C1502 1.478 . S
C1504 C1506 1.381 . S
C1504 C1510 1.383 . S
C1505 C1501 1.495 . S
C1505 H1511 0.959 . S
C1505 H1512 0.961 . S
C1505 H1513 0.960 . S
C1506 C1504 1.381 . S
C1506 C1507 1.394 . S
C1506 H1514 0.930 . S
C1507 C1506 1.394 . S
C1507 C1508 1.383 . S
C1507 H1515 0.929 . S
C1508 C1507 1.383 . S
C1508 C1509 1.377 . S
C1509 H1493 0.930 . S
C1509 C1508 1.377 . S
C1509 C1510 1.379 . S
C1510 H1494 0.931 . S
C1510 C1504 1.383 . S
C1510 C1509 1.379 . S
H1511 C1505 0.959 . S
H1512 C1505 0.961 . S
H1513 C1505 0.960 . S
H1514 C1506 0.930 . S
H1515 C1507 0.929 . S
H1516 C1524 0.929 . S
H1517 C1526 0.930 . S
H1518 C1528 0.930 . S
H1519 C1531 0.929 . S
H1520 C1534 0.930 . S
H1521 C1536 0.960 . S
H1522 C1536 0.960 . S
H1523 C1536 0.960 . S
C1524 H1516 0.929 . S
C1524 C1525 1.377 . S
C1524 C1526 1.384 . S
C1525 C1524 1.377 . S
C1525 C1531 1.390 . S
C1526 H1517 0.930 . S
C1526 C1524 1.384 . S
C1526 C1527 1.372 . S
C1527 C1526 1.372 . S
C1527 C1528 1.400 . S
C1527 C1532 1.490 . S
C1528 H1518 0.930 . S
C1528 C1527 1.400 . S
C1528 C1531 1.386 . S
H1529 C1545 0.930 . S
H1530 C1546 0.931 . S
C1531 H1519 0.929 . S
C1531 C1525 1.390 . S
C1531 C1528 1.386 . S
C1532 C1527 1.490 . S
C1532 C1534 1.395 . S
C1532 C1535 1.403 . S
H1533 C1539 0.930 . S
C1534 H1520 0.930 . S
C1534 C1532 1.395 . S
C1534 C1537 1.403 . S
C1535 C1532 1.403 . S
C1535 C1536 1.524 . S
C1535 C1539 1.400 . S
C1536 H1521 0.960 . S
C1536 H1522 0.960 . S
C1536 H1523 0.960 . S
C1536 C1535 1.524 . S
C1537 C1534 1.403 . S
C1537 C1538 1.392 . S
C1537 C1541 1.495 . S
C1538 C1537 1.392 . S
C1538 C1539 1.385 . S
C1538 C1540 1.478 . S
C1539 H1533 0.930 . S
C1539 C1535 1.400 . S
C1539 C1538 1.385 . S
C1540 C1538 1.478 . S
C1540 C1542 1.381 . S
C1540 C1546 1.383 . S
C1541 C1537 1.495 . S
C1541 H1547 0.959 . S
C1541 H1548 0.961 . S
C1541 H1549 0.960 . S
C1542 C1540 1.381 . S
C1542 C1543 1.394 . S
C1542 H1550 0.930 . S
C1543 C1542 1.394 . S
C1543 C1544 1.383 . S
C1543 H1551 0.929 . S
C1544 C1543 1.383 . S
C1544 C1545 1.377 . S
C1545 H1529 0.930 . S
C1545 C1544 1.377 . S
C1545 C1546 1.379 . S
C1546 H1530 0.931 . S
C1546 C1540 1.383 . S
C1546 C1545 1.379 . S
H1547 C1541 0.959 . S
H1548 C1541 0.961 . S
H1549 C1541 0.960 . S
H1550 C1542 0.930 . S
H1551 C1543 0.929 . S
H1552 C1560 0.929 . S
H1553 C1562 0.930 . S
H1554 C1564 0.930 . S
H1555 C1567 0.929 . S
H1556 C1570 0.930 . S
H1557 C1572 0.960 . S
H1558 C1572 0.960 . S
H1559 C1572 0.960 . S
C1560 H1552 0.929 . S
C1560 C1561 1.377 . S
C1560 C1562 1.384 . S
C1561 C1560 1.377 . S
C1561 C1567 1.390 . S
C1562 H1553 0.930 . S
C1562 C1560 1.384 . S
C1562 C1563 1.372 . S
C1563 C1562 1.372 . S
C1563 C1564 1.400 . S
C1563 C1568 1.490 . S
C1564 H1554 0.930 . S
C1564 C1563 1.400 . S
C1564 C1567 1.386 . S
H1565 C1581 0.930 . S
H1566 C1582 0.931 . S
C1567 H1555 0.929 . S
C1567 C1561 1.390 . S
C1567 C1564 1.386 . S
C1568 C1563 1.490 . S
C1568 C1570 1.395 . S
C1568 C1571 1.403 . S
H1569 C1575 0.930 . S
C1570 H1556 0.930 . S
C1570 C1568 1.395 . S
C1570 C1573 1.403 . S
C1571 C1568 1.403 . S
C1571 C1572 1.524 . S
C1571 C1575 1.400 . S
C1572 H1557 0.960 . S
C1572 H1558 0.960 . S
C1572 H1559 0.960 . S
C1572 C1571 1.524 . S
C1573 C1570 1.403 . S
C1573 C1574 1.392 . S
C1573 C1577 1.495 . S
C1574 C1573 1.392 . S
C1574 C1575 1.385 . S
C1574 C1576 1.478 . S
C1575 H1569 0.930 . S
C1575 C1571 1.400 . S
C1575 C1574 1.385 . S
C1576 C1574 1.478 . S
C1576 C1578 1.381 . S
C1576 C1582 1.383 . S
C1577 C1573 1.495 . S
C1577 H1583 0.959 . S
C1577 H1584 0.961 . S
C1577 H1585 0.960 . S
C1578 C1576 1.381 . S
C1578 C1579 1.394 . S
C1578 H1586 0.930 . S
C1579 C1578 1.394 . S
C1579 C1580 1.383 . S
C1579 H1587 0.929 . S
C1580 C1579 1.383 . S
C1580 C1581 1.377 . S
C1581 H1565 0.930 . S
C1581 C1580 1.377 . S
C1581 C1582 1.379 . S
C1582 H1566 0.931 . S
C1582 C1576 1.383 . S
C1582 C1581 1.379 . S
H1583 C1577 0.959 . S
H1584 C1577 0.961 . S
H1585 C1577 0.960 . S
H1586 C1578 0.930 . S
H1587 C1579 0.929 . S
H1588 C1596 0.929 . S
H1589 C1598 0.930 . S
H1590 C1600 0.930 . S
H1591 C1603 0.929 . S
H1592 C1606 0.930 . S
H1593 C1608 0.960 . S
H1594 C1608 0.960 . S
H1595 C1608 0.960 . S
C1596 H1588 0.929 . S
C1596 C1597 1.377 . S
C1596 C1598 1.384 . S
C1597 C1596 1.377 . S
C1597 C1603 1.390 . S
C1598 H1589 0.930 . S
C1598 C1596 1.384 . S
C1598 C1599 1.372 . S
C1599 C1598 1.372 . S
C1599 C1600 1.400 . S
C1599 C1604 1.490 . S
C1600 H1590 0.930 . S
C1600 C1599 1.400 . S
C1600 C1603 1.386 . S
H1601 C1617 0.930 . S
H1602 C1618 0.931 . S
C1603 H1591 0.929 . S
C1603 C1597 1.390 . S
C1603 C1600 1.386 . S
C1604 C1599 1.490 . S
C1604 C1606 1.395 . S
C1604 C1607 1.403 . S
H1605 C1611 0.930 . S
C1606 H1592 0.930 . S
C1606 C1604 1.395 . S
C1606 C1609 1.403 . S
C1607 C1604 1.403 . S
C1607 C1608 1.524 . S
C1607 C1611 1.400 . S
C1608 H1593 0.960 . S
C1608 H1594 0.960 . S
C1608 H1595 0.960 . S
C1608 C1607 1.524 . S
C1609 C1606 1.403 . S
C1609 C1610 1.392 . S
C1609 C1613 1.495 . S
C1610 C1609 1.392 . S
C1610 C1611 1.385 . S
C1610 C1612 1.478 . S
C1611 H1605 0.930 . S
C1611 C1607 1.400 . S
C1611 C1610 1.385 . S
C1612 C1610 1.478 . S
C1612 C1614 1.381 . S
C1612 C1618 1.383 . S
C1613 C1609 1.495 . S
C1613 H1619 0.959 . S
C1613 H1620 0.961 . S
C1613 H1621 0.960 . S
C1614 C1612 1.381 . S
C1614 C1615 1.394 . S
C1614 H1622 0.930 . S
C1615 C1614 1.394 . S
C1615 C1616 1.383 . S
C1615 H1623 0.929 . S
C1616 C1615 1.383 . S
C1616 C1617 1.377 . S
C1617 H1601 0.930 . S
C1617 C1616 1.377 . S
C1617 C1618 1.379 . S
C1618 H1602 0.931 . S
C1618 C1612 1.383 . S
C1618 C1617 1.379 . S
H1619 C1613 0.959 . S
H1620 C1613 0.961 . S
H1621 C1613 0.960 . S
H1622 C1614 0.930 . S
H1623 C1615 0.929 . S
H1624 C1632 0.929 . S
H1625 C1634 0.930 . S
H1626 C1636 0.930 . S
H1627 C1639 0.929 . S
H1628 C1642 0.930 . S
H1629 C1644 0.960 . S
H1630 C1644 0.960 . S
H1631 C1644 0.960 . S
C1632 H1624 0.929 . S
C1632 C1633 1.377 . S
C1632 C1634 1.384 . S
C1633 C1632 1.377 . S
C1633 C1639 1.390 . S
C1634 H1625 0.930 . S
C1634 C1632 1.384 . S
C1634 C1635 1.372 . S
C1635 C1634 1.372 . S
C1635 C1636 1.400 . S
C1635 C1640 1.490 . S
C1636 H1626 0.930 . S
C1636 C1635 1.400 . S
C1636 C1639 1.386 . S
H1637 C1653 0.930 . S
H1638 C1654 0.931 . S
C1639 H1627 0.929 . S
C1639 C1633 1.390 . S
C1639 C1636 1.386 . S
C1640 C1635 1.490 . S
C1640 C1642 1.395 . S
C1640 C1643 1.403 . S
H1641 C1647 0.930 . S
C1642 H1628 0.930 . S
C1642 C1640 1.395 . S
C1642 C1645 1.403 . S
C1643 C1640 1.403 . S
C1643 C1644 1.524 . S
C1643 C1647 1.400 . S
C1644 H1629 0.960 . S
C1644 H1630 0.960 . S
C1644 H1631 0.960 . S
C1644 C1643 1.524 . S
C1645 C1642 1.403 . S
C1645 C1646 1.392 . S
C1645 C1649 1.495 . S
C1646 C1645 1.392 . S
C1646 C1647 1.385 . S
C1646 C1648 1.478 . S
C1647 H1641 0.930 . S
C1647 C1643 1.400 . S
C1647 C1646 1.385 . S
C1648 C1646 1.478 . S
C1648 C1650 1.381 . S
C1648 C1654 1.383 . S
C1649 C1645 1.495 . S
C1649 H1655 0.959 . S
C1649 H1656 0.961 . S
C1649 H1657 0.960 . S
C1650 C1648 1.381 . S
C1650 C1651 1.394 . S
C1650 H1658 0.930 . S
C1651 C1650 1.394 . S
C1651 C1652 1.383 . S
C1651 H1659 0.929 . S
C1652 C1651 1.383 . S
C1652 C1653 1.377 . S
C1653 H1637 0.930 . S
C1653 C1652 1.377 . S
C1653 C1654 1.379 . S
C1654 H1638 0.931 . S
C1654 C1648 1.383 . S
C1654 C1653 1.379 . S
H1655 C1649 0.959 . S
H1656 C1649 0.961 . S
H1657 C1649 0.960 . S
H1658 C1650 0.930 . S
H1659 C1651 0.929 . S
H1660 C1668 0.929 . S
H1661 C1670 0.930 . S
H1662 C1672 0.930 . S
H1663 C1675 0.929 . S
H1664 C1678 0.930 . S
H1665 C1680 0.960 . S
H1666 C1680 0.960 . S
H1667 C1680 0.960 . S
C1668 H1660 0.929 . S
C1668 C1669 1.377 . S
C1668 C1670 1.384 . S
C1669 C1668 1.377 . S
C1669 C1675 1.390 . S
C1670 H1661 0.930 . S
C1670 C1668 1.384 . S
C1670 C1671 1.372 . S
C1671 C1670 1.372 . S
C1671 C1672 1.400 . S
C1671 C1676 1.490 . S
C1672 H1662 0.930 . S
C1672 C1671 1.400 . S
C1672 C1675 1.386 . S
H1673 C1689 0.930 . S
H1674 C1690 0.931 . S
C1675 H1663 0.929 . S
C1675 C1669 1.390 . S
C1675 C1672 1.386 . S
C1676 C1671 1.490 . S
C1676 C1678 1.395 . S
C1676 C1679 1.403 . S
H1677 C1683 0.930 . S
C1678 H1664 0.930 . S
C1678 C1676 1.395 . S
C1678 C1681 1.403 . S
C1679 C1676 1.403 . S
C1679 C1680 1.524 . S
C1679 C1683 1.400 . S
C1680 H1665 0.960 . S
C1680 H1666 0.960 . S
C1680 H1667 0.960 . S
C1680 C1679 1.524 . S
C1681 C1678 1.403 . S
C1681 C1682 1.392 . S
C1681 C1685 1.495 . S
C1682 C1681 1.392 . S
C1682 C1683 1.385 . S
C1682 C1684 1.478 . S
C1683 H1677 0.930 . S
C1683 C1679 1.400 . S
C1683 C1682 1.385 . S
C1684 C1682 1.478 . S
C1684 C1686 1.381 . S
C1684 C1690 1.383 . S
C1685 C1681 1.495 . S
C1685 H1691 0.959 . S
C1685 H1692 0.961 . S
C1685 H1693 0.960 . S
C1686 C1684 1.381 . S
C1686 C1687 1.394 . S
C1686 H1694 0.930 . S
C1687 C1686 1.394 . S
C1687 C1688 1.383 . S
C1687 H1695 0.929 . S
C1688 C1687 1.383 . S
C1688 C1689 1.377 . S
C1689 H1673 0.930 . S
C1689 C1688 1.377 . S
C1689 C1690 1.379 . S
C1690 H1674 0.931 . S
C1690 C1684 1.383 . S
C1690 C1689 1.379 . S
H1691 C1685 0.959 . S
H1692 C1685 0.961 . S
H1693 C1685 0.960 . S
H1694 C1686 0.930 . S
H1695 C1687 0.929 . S
H1696 C1704 0.929 . S
H1697 C1706 0.930 . S
H1698 C1708 0.930 . S
H1699 C1711 0.929 . S
H1700 C1714 0.930 . S
H1701 C1716 0.960 . S
H1702 C1716 0.960 . S
H1703 C1716 0.960 . S
C1704 H1696 0.929 . S
C1704 C1705 1.377 . S
C1704 C1706 1.384 1_545 S
C1705 C1704 1.377 . S
C1705 C1711 1.390 . S
C1706 H1697 0.930 . S
C1706 C1704 1.384 1_565 S
C1706 C1707 1.374 . S
C1707 C1706 1.374 . S
C1707 C1708 1.401 . S
C1707 C1712 1.487 1_655 S
C1708 H1698 0.930 . S
C1708 C1707 1.401 . S
C1708 C1711 1.386 1_565 S
H1709 C1725 0.930 . S
H1710 C1726 0.931 . S
C1711 H1699 0.929 . S
C1711 C1705 1.390 . S
C1711 C1708 1.386 1_545 S
C1712 C1707 1.487 1_455 S
C1712 C1714 1.395 . S
C1712 C1715 1.403 1_455 S
H1713 C1719 0.930 . S
C1714 H1700 0.930 . S
C1714 C1712 1.395 . S
C1714 C1717 1.403 . S
C1715 C1712 1.403 1_655 S
C1715 C1716 1.524 . S
C1715 C1719 1.400 . S
C1716 H1701 0.960 . S
C1716 H1702 0.960 . S
C1716 H1703 0.960 . S
C1716 C1715 1.524 . S
C1717 C1714 1.403 . S
C1717 C1718 1.392 . S
C1717 C1721 1.495 . S
C1718 C1717 1.392 . S
C1718 C1719 1.385 1_455 S
C1718 C1720 1.478 . S
C1719 H1713 0.930 . S
C1719 C1715 1.400 . S
C1719 C1718 1.385 1_655 S
C1720 C1718 1.478 . S
C1720 C1722 1.381 . S
C1720 C1726 1.383 . S
C1721 C1717 1.495 . S
C1721 H1727 0.959 . S
C1721 H1728 0.961 . S
C1721 H1729 0.960 . S
C1722 C1720 1.381 . S
C1722 C1723 1.394 . S
C1722 H1730 0.930 . S
C1723 C1722 1.394 . S
C1723 C1724 1.383 . S
C1723 H1731 0.929 . S
C1724 C1723 1.383 . S
C1724 C1725 1.377 . S
C1725 H1709 0.930 . S
C1725 C1724 1.377 . S
C1725 C1726 1.379 . S
C1726 H1710 0.931 . S
C1726 C1720 1.383 . S
C1726 C1725 1.379 . S
H1727 C1721 0.959 . S
H1728 C1721 0.961 . S
H1729 C1721 0.960 . S
H1730 C1722 0.930 . S
H1731 C1723 0.929 . S
H1732 C1740 0.929 . S
H1733 C1742 0.930 . S
H1734 C1744 0.930 . S
H1735 C1747 0.929 . S
H1736 C1750 0.930 . S
H1737 C1752 0.960 . S
H1738 C1752 0.960 . S
H1739 C1752 0.960 . S
C1740 H1732 0.929 . S
C1740 C1741 1.377 . S
C1740 C1742 1.384 . S
C1741 C1740 1.377 . S
C1741 C1747 1.390 . S
C1742 H1733 0.930 . S
C1742 C1740 1.384 . S
C1742 C1743 1.372 . S
C1743 C1742 1.372 . S
C1743 C1744 1.400 . S
C1743 C1748 1.490 . S
C1744 H1734 0.930 . S
C1744 C1743 1.400 . S
C1744 C1747 1.386 . S
H1745 C1761 0.930 . S
H1746 C1762 0.931 . S
C1747 H1735 0.929 . S
C1747 C1741 1.390 . S
C1747 C1744 1.386 . S
C1748 C1743 1.490 . S
C1748 C1750 1.395 . S
C1748 C1751 1.403 . S
H1749 C1755 0.930 . S
C1750 H1736 0.930 . S
C1750 C1748 1.395 . S
C1750 C1753 1.403 . S
C1751 C1748 1.403 . S
C1751 C1752 1.524 . S
C1751 C1755 1.400 . S
C1752 H1737 0.960 . S
C1752 H1738 0.960 . S
C1752 H1739 0.960 . S
C1752 C1751 1.524 . S
C1753 C1750 1.403 . S
C1753 C1754 1.392 . S
C1753 C1757 1.495 . S
C1754 C1753 1.392 . S
C1754 C1755 1.385 . S
C1754 C1756 1.478 . S
C1755 H1749 0.930 . S
C1755 C1751 1.400 . S
C1755 C1754 1.385 . S
C1756 C1754 1.478 . S
C1756 C1758 1.381 . S
C1756 C1762 1.383 . S
C1757 C1753 1.495 . S
C1757 H1763 0.959 . S
C1757 H1764 0.961 . S
C1757 H1765 0.960 . S
C1758 C1756 1.381 . S
C1758 C1759 1.394 . S
C1758 H1766 0.930 . S
C1759 C1758 1.394 . S
C1759 C1760 1.383 . S
C1759 H1767 0.929 . S
C1760 C1759 1.383 . S
C1760 C1761 1.377 . S
C1761 H1745 0.930 . S
C1761 C1760 1.377 . S
C1761 C1762 1.379 . S
C1762 H1746 0.931 . S
C1762 C1756 1.383 . S
C1762 C1761 1.379 . S
H1763 C1757 0.959 . S
H1764 C1757 0.961 . S
H1765 C1757 0.960 . S
H1766 C1758 0.930 . S
H1767 C1759 0.929 . S
H1768 C1776 0.929 . S
H1769 C1778 0.930 . S
H1770 C1780 0.930 . S
H1771 C1783 0.929 . S
H1772 C1786 0.930 . S
H1773 C1788 0.960 . S
H1774 C1788 0.960 . S
H1775 C1788 0.960 . S
C1776 H1768 0.929 . S
C1776 C1777 1.377 . S
C1776 C1778 1.384 . S
C1777 C1776 1.377 . S
C1777 C1783 1.390 . S
C1778 H1769 0.930 . S
C1778 C1776 1.384 . S
C1778 C1779 1.372 . S
C1779 C1778 1.372 . S
C1779 C1780 1.400 . S
C1779 C1784 1.490 . S
C1780 H1770 0.930 . S
C1780 C1779 1.400 . S
C1780 C1783 1.386 . S
H1781 C1797 0.930 . S
H1782 C1798 0.931 . S
C1783 H1771 0.929 . S
C1783 C1777 1.390 . S
C1783 C1780 1.386 . S
C1784 C1779 1.490 . S
C1784 C1786 1.395 . S
C1784 C1787 1.403 . S
H1785 C1791 0.930 . S
C1786 H1772 0.930 . S
C1786 C1784 1.395 . S
C1786 C1789 1.403 . S
C1787 C1784 1.403 . S
C1787 C1788 1.524 . S
C1787 C1791 1.400 . S
C1788 H1773 0.960 . S
C1788 H1774 0.960 . S
C1788 H1775 0.960 . S
C1788 C1787 1.524 . S
C1789 C1786 1.403 . S
C1789 C1790 1.392 . S
C1789 C1793 1.495 . S
C1790 C1789 1.392 . S
C1790 C1791 1.385 . S
C1790 C1792 1.478 . S
C1791 H1785 0.930 . S
C1791 C1787 1.400 . S
C1791 C1790 1.385 . S
C1792 C1790 1.478 . S
C1792 C1794 1.381 . S
C1792 C1798 1.383 . S
C1793 C1789 1.495 . S
C1793 H1799 0.959 . S
C1793 H1800 0.961 . S
C1793 H1801 0.960 . S
C1794 C1792 1.381 . S
C1794 C1795 1.394 . S
C1794 H1802 0.930 . S
C1795 C1794 1.394 . S
C1795 C1796 1.383 . S
C1795 H1803 0.929 . S
C1796 C1795 1.383 . S
C1796 C1797 1.377 . S
C1797 H1781 0.930 . S
C1797 C1796 1.377 . S
C1797 C1798 1.379 . S
C1798 H1782 0.931 . S
C1798 C1792 1.383 . S
C1798 C1797 1.379 . S
H1799 C1793 0.959 . S
H1800 C1793 0.961 . S
H1801 C1793 0.960 . S
H1802 C1794 0.930 . S
H1803 C1795 0.929 . S
H1804 C1812 0.929 . S
H1805 C1814 0.930 . S
H1806 C1816 0.930 . S
H1807 C1819 0.929 . S
H1808 C1822 0.930 . S
H1809 C1824 0.960 . S
H1810 C1824 0.960 . S
H1811 C1824 0.960 . S
C1812 H1804 0.929 . S
C1812 C1813 1.377 . S
C1812 C1814 1.384 . S
C1813 C1812 1.377 . S
C1813 C1819 1.390 . S
C1814 H1805 0.930 . S
C1814 C1812 1.384 . S
C1814 C1815 1.372 . S
C1815 C1814 1.372 . S
C1815 C1816 1.400 . S
C1815 C1820 1.490 . S
C1816 H1806 0.930 . S
C1816 C1815 1.400 . S
C1816 C1819 1.386 . S
H1817 C1833 0.930 . S
H1818 C1834 0.931 . S
C1819 H1807 0.929 . S
C1819 C1813 1.390 . S
C1819 C1816 1.386 . S
C1820 C1815 1.490 . S
C1820 C1822 1.395 . S
C1820 C1823 1.403 . S
H1821 C1827 0.930 . S
C1822 H1808 0.930 . S
C1822 C1820 1.395 . S
C1822 C1825 1.403 1_455 S
C1823 C1820 1.403 . S
C1823 C1824 1.524 . S
C1823 C1827 1.400 1_455 S
C1824 H1809 0.960 . S
C1824 H1810 0.960 . S
C1824 H1811 0.960 . S
C1824 C1823 1.524 . S
C1825 C1822 1.403 1_655 S
C1825 C1826 1.392 . S
C1825 C1829 1.495 . S
C1826 C1825 1.392 . S
C1826 C1827 1.385 . S
C1826 C1828 1.478 . S
C1827 H1821 0.930 . S
C1827 C1823 1.400 1_655 S
C1827 C1826 1.385 . S
C1828 C1826 1.478 . S
C1828 C1830 1.381 . S
C1828 C1834 1.383 . S
C1829 C1825 1.495 . S
C1829 H1835 0.959 1_655 S
C1829 H1836 0.961 . S
C1829 H1837 0.960 . S
C1830 C1828 1.381 . S
C1830 C1831 1.394 . S
C1830 H1838 0.930 . S
C1831 C1830 1.394 . S
C1831 C1832 1.383 . S
C1831 H1839 0.929 . S
C1832 C1831 1.383 . S
C1832 C1833 1.377 . S
C1833 H1817 0.930 . S
C1833 C1832 1.377 . S
C1833 C1834 1.379 . S
C1834 H1818 0.931 . S
C1834 C1828 1.383 . S
C1834 C1833 1.379 . S
H1835 C1829 0.959 1_455 S
H1836 C1829 0.961 . S
H1837 C1829 0.960 . S
H1838 C1830 0.930 . S
H1839 C1831 0.929 . S
H1840 C1848 0.929 . S
H1841 C1850 0.930 . S
H1842 C1852 0.930 . S
H1843 C1855 0.929 . S
H1844 C1858 0.930 . S
H1845 C1860 0.960 . S
H1846 C1860 0.960 . S
H1847 C1860 0.960 . S
C1848 H1840 0.929 . S
C1848 C1849 1.377 . S
C1848 C1850 1.384 . S
C1849 C1848 1.377 . S
C1849 C1855 1.390 1_655 S
C1850 H1841 0.930 . S
C1850 C1848 1.384 . S
C1850 C1851 1.372 . S
C1851 C1850 1.372 . S
C1851 C1852 1.400 1_655 S
C1851 C1856 1.490 1_655 S
C1852 H1842 0.930 . S
C1852 C1851 1.400 1_455 S
C1852 C1855 1.386 . S
H1853 C1869 0.930 . S
H1854 C1870 0.931 . S
C1855 H1843 0.929 . S
C1855 C1849 1.390 1_455 S
C1855 C1852 1.386 . S
C1856 C1851 1.490 1_455 S
C1856 C1858 1.395 1_455 S
C1856 C1859 1.403 . S
H1857 C1863 0.930 . S
C1858 H1844 0.930 . S
C1858 C1856 1.395 1_655 S
C1858 C1861 1.403 . S
C1859 C1856 1.403 . S
C1859 C1860 1.524 . S
C1859 C1863 1.400 . S
C1860 H1845 0.960 . S
C1860 H1846 0.960 . S
C1860 H1847 0.960 . S
C1860 C1859 1.524 . S
C1861 C1858 1.403 . S
C1861 C1862 1.392 1_655 S
C1861 C1865 1.495 . S
C1862 C1861 1.392 1_455 S
C1862 C1863 1.385 . S
C1862 C1864 1.478 . S
C1863 H1857 0.930 . S
C1863 C1859 1.400 . S
C1863 C1862 1.385 . S
C1864 C1862 1.478 . S
C1864 C1866 1.381 1_455 S
C1864 C1870 1.383 . S
C1865 C1861 1.495 . S
C1865 H1871 0.959 . S
C1865 H1872 0.961 . S
C1865 H1873 0.960 . S
C1866 C1864 1.381 1_655 S
C1866 C1867 1.389 1_655 S
C1866 H1874 0.930 . S
C1867 C1866 1.389 1_455 S
C1867 C1868 1.402 . S
C1867 H1875 0.917 1_455 S
C1868 C1867 1.402 . S
C1868 C1869 1.377 . S
C1869 H1853 0.930 . S
C1869 C1868 1.377 . S
C1869 C1870 1.379 . S
C1870 H1854 0.931 . S
C1870 C1864 1.383 . S
C1870 C1869 1.379 . S
H1871 C1865 0.959 . S
H1872 C1865 0.961 . S
H1873 C1865 0.960 . S
H1874 C1866 0.930 . S
H1875 C1867 0.917 1_655 S
H1876 C1884 0.929 . S
H1877 C1886 0.930 . S
H1878 C1888 0.930 . S
H1879 C1891 0.929 . S
H1880 C1894 0.930 . S
H1881 C1896 0.960 . S
H1882 C1896 0.960 . S
H1883 C1896 0.960 . S
C1884 H1876 0.929 . S
C1884 C1885 1.377 . S
C1884 C1886 1.384 . S
C1885 C1884 1.377 . S
C1885 C1891 1.390 . S
C1886 H1877 0.930 . S
C1886 C1884 1.384 . S
C1886 C1887 1.372 . S
C1887 C1886 1.372 . S
C1887 C1888 1.400 . S
C1887 C1892 1.490 . S
C1888 H1878 0.930 . S
C1888 C1887 1.400 . S
C1888 C1891 1.386 . S
H1889 C1905 0.930 . S
H1890 C1906 0.931 . S
C1891 H1879 0.929 . S
C1891 C1885 1.390 . S
C1891 C1888 1.386 . S
C1892 C1887 1.490 . S
C1892 C1894 1.395 . S
C1892 C1895 1.403 . S
H1893 C1899 0.930 . S
C1894 H1880 0.930 . S
C1894 C1892 1.395 . S
C1894 C1897 1.403 1_455 S
C1895 C1892 1.403 . S
C1895 C1896 1.524 . S
C1895 C1899 1.400 1_455 S
C1896 H1881 0.960 . S
C1896 H1882 0.960 . S
C1896 H1883 0.960 . S
C1896 C1895 1.524 . S
C1897 C1894 1.403 1_655 S
C1897 C1898 1.392 . S
C1897 C1901 1.495 . S
C1898 C1897 1.392 . S
C1898 C1899 1.385 . S
C1898 C1900 1.478 . S
C1899 H1893 0.930 . S
C1899 C1895 1.400 1_655 S
C1899 C1898 1.385 . S
C1900 C1898 1.478 . S
C1900 C1902 1.381 . S
C1900 C1906 1.383 . S
C1901 C1897 1.495 . S
C1901 H1907 0.959 1_655 S
C1901 H1908 0.961 . S
C1901 H1909 0.960 . S
C1902 C1900 1.381 . S
C1902 C1903 1.394 . S
C1902 H1910 0.930 . S
C1903 C1902 1.394 . S
C1903 C1904 1.383 . S
C1903 H1911 0.929 . S
C1904 C1903 1.383 . S
C1904 C1905 1.377 . S
C1905 H1889 0.930 . S
C1905 C1904 1.377 . S
C1905 C1906 1.379 . S
C1906 H1890 0.931 . S
C1906 C1900 1.383 . S
C1906 C1905 1.379 . S
H1907 C1901 0.959 1_455 S
H1908 C1901 0.961 . S
H1909 C1901 0.960 . S
H1910 C1902 0.930 . S
H1911 C1903 0.929 . S
H1912 C1920 0.929 . S
H1913 C1922 0.930 . S
H1914 C1924 0.930 . S
H1915 C1927 0.929 . S
H1916 C1930 0.930 . S
H1917 C1932 0.960 . S
H1918 C1932 0.960 . S
H1919 C1932 0.960 . S
C1920 H1912 0.929 . S
C1920 C1921 1.377 . S
C1920 C1922 1.384 . S
C1921 C1920 1.377 . S
C1921 C1927 1.390 . S
C1922 H1913 0.930 . S
C1922 C1920 1.384 . S
C1922 C1923 1.372 . S
C1923 C1922 1.372 . S
C1923 C1924 1.400 . S
C1923 C1928 1.490 . S
C1924 H1914 0.930 . S
C1924 C1923 1.400 . S
C1924 C1927 1.386 . S
H1925 C1941 0.930 . S
H1926 C1942 0.931 . S
C1927 H1915 0.929 . S
C1927 C1921 1.390 . S
C1927 C1924 1.386 . S
C1928 C1923 1.490 . S
C1928 C1930 1.395 . S
C1928 C1931 1.403 . S
H1929 C1935 0.930 . S
C1930 H1916 0.930 . S
C1930 C1928 1.395 . S
C1930 C1933 1.403 . S
C1931 C1928 1.403 . S
C1931 C1932 1.524 . S
C1931 C1935 1.400 . S
C1932 H1917 0.960 . S
C1932 H1918 0.960 . S
C1932 H1919 0.960 . S
C1932 C1931 1.524 . S
C1933 C1930 1.403 . S
C1933 C1934 1.392 . S
C1933 C1937 1.495 . S
C1934 C1933 1.392 . S
C1934 C1935 1.385 . S
C1934 C1936 1.478 . S
C1935 H1929 0.930 . S
C1935 C1931 1.400 . S
C1935 C1934 1.385 . S
C1936 C1934 1.478 . S
C1936 C1938 1.381 . S
C1936 C1942 1.383 . S
C1937 C1933 1.495 . S
C1937 H1943 0.959 . S
C1937 H1944 0.961 . S
C1937 H1945 0.960 . S
C1938 C1936 1.381 . S
C1938 C1939 1.394 1_565 S
C1938 H1946 0.930 . S
C1939 C1938 1.394 1_545 S
C1939 C1940 1.383 . S
C1939 H1947 0.929 . S
C1940 C1939 1.383 . S
C1940 C1941 1.377 . S
C1941 H1925 0.930 . S
C1941 C1940 1.377 . S
C1941 C1942 1.379 1_545 S
C1942 H1926 0.931 . S
C1942 C1936 1.383 . S
C1942 C1941 1.379 1_565 S
H1943 C1937 0.959 . S
H1944 C1937 0.961 . S
H1945 C1937 0.960 . S
H1946 C1938 0.930 . S
H1947 C1939 0.929 . S
H1948 C1956 0.929 . S
H1949 C1958 0.930 . S
H1950 C1960 0.930 . S
H1951 C1963 0.929 . S
H1952 C1966 0.930 . S
H1953 C1968 0.960 . S
H1954 C1968 0.960 . S
H1955 C1968 0.960 . S
C1956 H1948 0.929 . S
C1956 C1957 1.377 . S
C1956 C1958 1.384 . S
C1957 C1956 1.377 . S
C1957 C1963 1.390 . S
C1958 H1949 0.930 . S
C1958 C1956 1.384 . S
C1958 C1959 1.372 . S
C1959 C1958 1.372 . S
C1959 C1960 1.400 . S
C1959 C1964 1.490 . S
C1960 H1950 0.930 . S
C1960 C1959 1.400 . S
C1960 C1963 1.386 . S
H1961 C1977 0.930 . S
H1962 C1978 0.931 . S
C1963 H1951 0.929 . S
C1963 C1957 1.390 . S
C1963 C1960 1.386 . S
C1964 C1959 1.490 . S
C1964 C1966 1.395 . S
C1964 C1967 1.403 . S
H1965 C1971 0.930 . S
C1966 H1952 0.930 . S
C1966 C1964 1.395 . S
C1966 C1969 1.403 . S
C1967 C1964 1.403 . S
C1967 C1968 1.524 . S
C1967 C1971 1.400 . S
C1968 H1953 0.960 . S
C1968 H1954 0.960 . S
C1968 H1955 0.960 . S
C1968 C1967 1.524 . S
C1969 C1966 1.403 . S
C1969 C1970 1.392 . S
C1969 C1973 1.495 . S
C1970 C1969 1.392 . S
C1970 C1971 1.385 . S
C1970 C1972 1.478 . S
C1971 H1965 0.930 . S
C1971 C1967 1.400 . S
C1971 C1970 1.385 . S
C1972 C1970 1.478 . S
C1972 C1974 1.381 . S
C1972 C1978 1.383 . S
C1973 C1969 1.495 . S
C1973 H1979 0.959 . S
C1973 H1980 0.961 . S
C1973 H1981 0.960 . S
C1974 C1972 1.381 . S
C1974 C1975 1.394 . S
C1974 H1982 0.930 . S
C1975 C1974 1.394 . S
C1975 C1976 1.383 . S
C1975 H1983 0.929 . S
C1976 C1975 1.383 . S
C1976 C1977 1.377 . S
C1977 H1961 0.930 . S
C1977 C1976 1.377 . S
C1977 C1978 1.379 . S
C1978 H1962 0.931 . S
C1978 C1972 1.383 . S
C1978 C1977 1.379 . S
H1979 C1973 0.959 . S
H1980 C1973 0.961 . S
H1981 C1973 0.960 . S
H1982 C1974 0.930 . S
H1983 C1975 0.929 . S
C553 C451 1.006 . S
C572 C9 1.017 1_655 S
C589 C43 1.019 . S
C608 C383 1.065 . S
C625 C77 1.014 . S
C644 C417 0.966 . S
C661 C111 1.010 . S
C680 C349 0.959 . S
C697 C519 1.017 . S
C716 C145 1.053 1_655 S
C733 C179 1.003 . S
C752 C315 0.989 . S
C769 C213 1.010 . S
C788 C485 1.049 . S
C805 C281 1.022 . S
C824 C247 1.064 . S
C841 C20 1.648 . S
C860 C156 1.636 . S
C877 C54 1.646 . S
C896 C190 1.645 . S
C913 C88 1.645 . S
C932 C224 1.637 . S
C949 C258 1.647 . S
C968 C122 1.633 . S
C985 C360 1.650 . S
C1004 C292 1.651 . S
C1021 C326 1.648 . S
C1040 C394 1.636 . S
C1057 C496 1.650 . S
C1076 C428 1.648 . S
C1093 C530 1.645 . S
C1112 C462 1.637 . S
C1129 C203 0.781 . S
C1148 C33 0.820 . S
C1165 C67 0.785 . S
C1184 C237 0.745 . S
C1201 C101 0.789 . S
C1220 C271 0.751 . S
C1237 C169 0.785 . S
C1256 C135 0.745 . S
C1273 C138 1.128 . S
C1292 C342 1.099 . S
C1309 C70 1.120 . S
C1328 C274 1.094 . S
C1345 C376 1.132 . S
C1364 C206 1.161 . S
C1381 C308 1.132 . S
C1400 C2 1.112 . S
C1417 C305 0.783 . S
C1436 C441 0.746 . S
C1453 C543 0.784 . S
C1472 C373 0.745 . S
C1489 C475 0.790 . S
C1508 C339 0.804 . S
C1525 C407 0.781 . S
C1544 C509 0.752 . S
C1561 C478 1.132 . S
C1580 C36 1.161 . S
C1597 C172 1.121 . S
C1616 C444 1.121 . S
C1633 C512 1.121 . S
C1652 C104 1.091 . S
C1669 C240 1.131 . S
C1688 C410 1.110 . S
C1705 C5 0.133 . S
C1724 C447 0.173 . S
C1741 C39 0.144 . S
C1760 C379 0.108 . S
C1777 C73 0.105 . S
C1796 C413 0.209 . S
C1813 C107 0.142 . S
C1832 C345 0.130 . S
C1849 C141 0.108 . S
C1868 C515 0.198 . S
C1885 C175 0.137 . S
C1904 C311 0.156 . S
C1921 C481 0.117 . S
C1940 C209 0.160 . S
C1957 C277 0.145 . S
C1976 C243 0.036 . S
