# Generated by pormake.
# Topology dft, (4)-cn, num edge types: 1
# Building blocks:
#     Node 0, Type 0, BuildingBlock: NAHDIM_clean_sbu_0, # of connection points: 4
#     Node 1, Type 0, BuildingBlock: NAHDIM_clean_sbu_0, # of connection points: 4
#     Node 2, Type 0, BuildingBlock: NAHDIM_clean_sbu_0, # of connection points: 4
#     Node 3, Type 0, BuildingBlock: NAHDIM_clean_sbu_0, # of connection points: 4
#     Node 4, Type 0, BuildingBlock: NAHDIM_clean_sbu_0, # of connection points: 4
#     Node 5, Type 0, BuildingBlock: NAHDIM_clean_sbu_0, # of connection points: 4
#     Node 6, Type 0, BuildingBlock: NAHDIM_clean_sbu_0, # of connection points: 4
#     Node 7, Type 0, BuildingBlock: NAHDIM_clean_sbu_0, # of connection points: 4
#     Edge 8, Type (0, 0), BuildingBlock: UVAHIK_clean_linker_0, # of connection points: 2
#     Edge 9, Type (0, 0), BuildingBlock: UVAHIK_clean_linker_0, # of connection points: 2
#     Edge 10, Type (0, 0), BuildingBlock: UVAHIK_clean_linker_0, # of connection points: 2
#     Edge 11, Type (0, 0), BuildingBlock: UVAHIK_clean_linker_0, # of connection points: 2
#     Edge 12, Type (0, 0), BuildingBlock: UVAHIK_clean_linker_0, # of connection points: 2
#     Edge 13, Type (0, 0), BuildingBlock: UVAHIK_clean_linker_0, # of connection points: 2
#     Edge 14, Type (0, 0), BuildingBlock: UVAHIK_clean_linker_0, # of connection points: 2
#     Edge 15, Type (0, 0), BuildingBlock: UVAHIK_clean_linker_0, # of connection points: 2
#     Edge 16, Type (0, 0), BuildingBlock: UVAHIK_clean_linker_0, # of connection points: 2
#     Edge 17, Type (0, 0), BuildingBlock: UVAHIK_clean_linker_0, # of connection points: 2
#     Edge 18, Type (0, 0), BuildingBlock: UVAHIK_clean_linker_0, # of connection points: 2
#     Edge 19, Type (0, 0), BuildingBlock: UVAHIK_clean_linker_0, # of connection points: 2
#     Edge 20, Type (0, 0), BuildingBlock: UVAHIK_clean_linker_0, # of connection points: 2
#     Edge 21, Type (0, 0), BuildingBlock: UVAHIK_clean_linker_0, # of connection points: 2
#     Edge 22, Type (0, 0), BuildingBlock: UVAHIK_clean_linker_0, # of connection points: 2
#     Edge 23, Type (0, 0), BuildingBlock: UVAHIK_clean_linker_0, # of connection points: 2
# Relax obj value: 0.138
# Max RMSD: 0.138
# Mean RMSD: 0.138
data_MOF--net-dft--node1-NAHDIM_clean_sbu_0--edge1-UVAHIK_clean_linker_0
_symmetry_space_group_name_H-M    P1
_symmetry_Int_Tables_number       1
_symmetry_cell_setting            triclinic
loop_
_symmetry_equiv_pos_as_xyz
'x, y, z'
_cell_length_a     45.013101
_cell_length_b     45.047922
_cell_length_c     49.929213
_cell_angle_alpha  89.79856
_cell_angle_beta   90.10208
_cell_angle_gamma 89.89045
loop_
_atom_site_label
_atom_site_type_symbol
_atom_site_fract_x
_atom_site_fract_y
_atom_site_fract_z
_atom_type_partial_charge
C0 C 0.35504 0.01896 0.20949 0.0
O1 O 0.34461 0.04173 0.19587 0.0
O2 O 0.27596 0.03217 0.21054 0.0
Zn3 Zn 0.29775 -0.00376 0.1973 0.0
O4 O 0.2993 -0.00407 0.1571 0.0
C5 C 0.27501 0.95421 0.23493 0.0
O6 O 0.28968 0.971 0.25185 0.0
O7 O 0.3388 -0.00379 0.21262 0.0
C8 C 0.27559 0.99123 0.14396 0.0
O9 O 0.25069 0.98678 0.15707 0.0
C10 C 0.27082 0.05519 0.1965 0.0
O11 O 0.28026 0.05636 0.17164 0.0
O12 O 0.27576 0.96041 0.21012 0.0
C13 C 0.98089 0.35434 0.69657 0.0
O14 O 0.96032 0.34745 0.67895 0.0
O15 O 0.96335 0.27331 0.69742 0.0
Zn16 Zn -0.00017 0.29515 0.68582 0.0
O17 O -0.00011 0.29957 0.64576 0.0
C18 C 0.04676 0.27572 0.72067 0.0
O19 O 0.03482 0.29537 0.7368 0.0
O20 O 0.00052 0.33524 0.70269 0.0
C21 C 0.98907 0.27919 0.63119 0.0
O22 O 0.97817 0.2553 0.64267 0.0
C23 C 0.95274 0.2759 0.72085 0.0
O24 O 0.96565 0.29386 0.73795 0.0
O25 O 0.03561 0.27194 0.69754 0.0
C26 C 0.66423 -0.00197 0.22989 0.0
O27 O 0.68059 0.97855 0.2429 0.0
O28 O 0.73178 0.9645 0.21008 0.0
Zn29 Zn 0.71466 0.00161 0.19385 0.0
O30 O 0.71124 -0.00346 0.15411 0.0
C31 C 0.75724 0.0377 0.22192 0.0
O32 O 0.75519 0.01666 0.24011 0.0
O33 O 0.67445 0.01038 0.20894 0.0
C34 C 0.73438 0.99015 0.14078 0.0
O35 O 0.75975 0.98673 0.1535 0.0
C36 C 0.72487 0.93895 0.2014 0.0
O37 O 0.7058 0.93673 0.18155 0.0
O38 O 0.74174 0.03593 0.20072 0.0
C39 C 0.03618 0.65779 0.7149 0.0
O40 O 0.05911 0.66507 0.70002 0.0
O41 O 0.06057 0.7334 0.70922 0.0
Zn42 Zn 0.02061 0.71609 0.70063 0.0
O43 O 0.01632 0.70982 0.66093 0.0
C44 C 0.98623 0.76865 0.69982 0.0
O45 O 0.00484 0.77458 0.68028 0.0
O46 O 0.01599 0.67695 0.71893 0.0
C47 C 0.99072 0.70943 0.65015 0.0
O48 O 0.96706 0.71227 0.6653 0.0
C49 C 0.07674 0.7451 0.69123 0.0
O50 O 0.06735 0.74551 0.66631 0.0
O51 O 0.98888 0.74431 0.71253 0.0
C52 C 0.34899 0.011 0.76753 0.0
O53 O 0.33159 -0.00523 0.75237 0.0
O54 O 0.28356 0.97419 0.78554 0.0
Zn55 Zn 0.29851 0.01135 0.80293 0.0
O56 O 0.299 0.00683 0.84297 0.0
C57 C 0.26914 0.0681 0.80671 0.0
O58 O 0.28454 0.07028 0.82899 0.0
O59 O 0.33949 0.02036 0.78992 0.0
C60 C 0.27504 0.00231 0.85574 0.0
O61 O 0.24994 0.00036 0.84238 0.0
C62 C 0.2844 0.94869 0.79646 0.0
O63 O 0.29561 0.94571 0.82063 0.0
O64 O 0.27165 0.04491 0.7925 0.0
C65 C 0.0326 0.3625 0.27647 0.0
O66 O 0.0551 0.35324 0.2911 0.0
O67 O 0.04879 0.28396 0.28061 0.0
Zn68 Zn 0.01087 0.30523 0.29006 0.0
O69 O 0.00715 0.30944 0.33018 0.0
C70 C 0.97882 0.26286 0.25775 0.0
O71 O 0.00463 0.25967 0.24585 0.0
O72 O 0.01057 0.34538 0.27296 0.0
C73 C -0.0067 0.28971 0.34345 0.0
O74 O 0.98174 0.26703 0.33068 0.0
C75 C 0.06263 0.26764 0.29729 0.0
O76 O 0.05259 0.26524 0.32188 0.0
O77 O 0.9762 0.28166 0.2765 0.0
C78 C 0.65711 0.02527 0.78703 0.0
O79 O 0.66746 0.04632 0.8026 0.0
O80 O 0.73548 0.03767 0.79045 0.0
Zn81 Zn 0.71313 0.00057 0.79972 0.0
O82 O 0.70963 -0.00368 0.83959 0.0
C83 C 0.74769 0.96822 0.76219 0.0
O84 O 0.74281 0.99224 0.74781 0.0
O85 O 0.67297 0.00246 0.78275 0.0
C86 C 0.73286 0.98997 0.85293 0.0
O87 O 0.7581 0.98633 0.84017 0.0
C88 C 0.74036 0.05904 0.80639 0.0
O89 O 0.73008 0.05779 0.83097 0.0
O90 O 0.73616 0.96616 0.78531 0.0
C91 C 0.99128 0.66933 0.2712 0.0
O92 O 0.97188 0.68581 0.25822 0.0
O93 O 0.95753 0.73653 0.29275 0.0
Zn94 Zn -0.00555 0.71873 0.30874 0.0
O95 O 0.99035 0.71353 0.34859 0.0
C96 C 0.04865 0.75156 0.31832 0.0
O97 O 0.04608 0.74073 0.34266 0.0
O98 O 0.00298 0.67901 0.29263 0.0
C99 C 0.97409 0.72969 0.36337 0.0
O100 O 0.95813 0.75101 0.3525 0.0
C101 C 0.93156 0.72719 0.29798 0.0
O102 O 0.92819 0.70476 0.31459 0.0
O103 O 0.02911 0.74533 0.30082 0.0
C104 C 0.30254 -0.00411 0.10029 0.0
C105 C 0.27592 0.9912 0.11434 0.0
C106 C 0.30277 -0.00384 0.07232 0.0
C107 C 0.25964 0.97216 0.01319 0.0
H108 H 0.30617 0.03196 0.97629 0.0
C109 C 0.24903 -0.0055 0.89951 0.0
C110 C 0.27541 -0.00028 0.88527 0.0
C111 C 0.24936 0.99258 0.92746 0.0
C112 C 0.29334 0.0149 0.98629 0.0
H113 H 0.22866 0.98304 0.11002 0.0
H114 H 0.22903 0.98385 0.06122 0.0
H115 H 0.30629 0.03024 0.02507 0.0
H116 H 0.32292 0.00669 0.88919 0.0
H117 H 0.32349 0.00316 0.93788 0.0
H118 H 0.24656 0.95695 0.97434 0.0
C119 C 0.2498 0.98693 0.07183 0.0
C120 C 0.29342 0.01391 0.01424 0.0
C121 C 0.24956 0.98665 0.09981 0.0
C122 C 0.30217 0.00276 0.89955 0.0
C123 C 0.30249 0.0009 0.92747 0.0
C124 C 0.25954 0.97318 0.98521 0.0
C125 C 0.27638 0.99177 0.05776 0.0
C126 C 0.27654 0.99256 0.02802 0.0
C127 C 0.27608 -0.00409 0.94175 0.0
C128 C 0.27636 -0.00542 0.97146 0.0
H129 H 0.32326 -0.00063 0.11089 0.0
H130 H 0.32369 -0.00044 0.06208 0.0
H131 H 0.24675 0.95515 0.02319 0.0
H132 H 0.22804 0.99208 0.88912 0.0
H133 H 0.22859 0.98903 0.9379 0.0
C134 C 0.00155 0.30721 0.58922 0.0
C135 C 0.98863 0.28236 0.60169 0.0
C136 C 0.00119 0.31007 0.56133 0.0
C137 C 0.96202 0.28378 0.50099 0.0
H138 H 0.03378 0.30767 0.46391 0.0
C139 C 0.97658 0.26901 0.3874 0.0
C140 C 0.99131 0.29138 0.37297 0.0
C141 C 0.9753 0.26994 0.41531 0.0
C142 C 0.01342 0.3014 0.47397 0.0
H143 H 0.96513 0.2411 0.59466 0.0
H144 H 0.96464 0.24605 0.54607 0.0
H145 H 0.03338 0.30551 0.51274 0.0
H146 H 0.01595 0.33254 0.37651 0.0
H147 H 0.01347 0.33429 0.42534 0.0
H148 H 0.94208 0.27949 0.46228 0.0
C149 C 0.97479 0.26345 0.55785 0.0
C150 C 0.01322 0.30013 0.50194 0.0
C151 C 0.97525 0.26053 0.5857 0.0
C152 C 0.00449 0.31491 0.38706 0.0
C153 C 0.00321 0.31584 0.41503 0.0
C154 C 0.9622 0.28511 0.47305 0.0
C155 C 0.98778 0.28822 0.54536 0.0
C156 C 0.98761 0.29098 0.51573 0.0
C157 C 0.98869 0.29329 0.42946 0.0
C158 C 0.988 0.2936 0.4592 0.0
H159 H 0.01199 0.32446 0.60097 0.0
H160 H 0.01114 0.32954 0.55229 0.0
H161 H 0.94178 0.27716 0.51107 0.0
H162 H 0.96625 0.25053 0.37719 0.0
H163 H 0.96433 0.25199 0.42582 0.0
C164 C 0.7049 0.99218 0.89623 0.0
C165 C 0.73171 0.98758 0.88245 0.0
C166 C 0.70403 0.99061 0.92416 0.0
C167 C 0.74525 0.96187 0.9829 0.0
H168 H 0.70126 0.02228 0.02134 0.0
C169 C 0.75864 0.98095 0.0965 0.0
C170 C 0.73293 0.98741 0.11131 0.0
C171 C 0.75746 0.9793 0.06859 0.0
C172 C 0.71332 0.00501 0.01091 0.0
H173 H 0.77858 0.97747 0.88719 0.0
H174 H 0.7771 0.97503 0.9359 0.0
H175 H 0.701 0.0224 0.97254 0.0
H176 H 0.68569 -0.00332 0.10848 0.0
H177 H 0.68364 -0.00642 0.05978 0.0
H178 H 0.75779 0.94466 0.02131 0.0
C179 C 0.75668 0.97949 0.9251 0.0
C180 C 0.71316 0.00508 0.98295 0.0
C181 C 0.75755 0.98108 0.89718 0.0
C182 C 0.70594 0.99179 0.09765 0.0
C183 C 0.70477 0.99017 0.06974 0.0
C184 C 0.74541 0.9618 0.01088 0.0
C185 C 0.72994 0.98439 0.93892 0.0
C186 C 0.72927 0.98362 0.96863 0.0
C187 C 0.73056 0.9841 0.05489 0.0
C188 C 0.72959 0.98348 0.02519 0.0
H189 H 0.68456 -0.00287 0.88546 0.0
H190 H 0.68301 -0.00588 0.93421 0.0
H191 H 0.75751 0.94477 0.97244 0.0
H192 H 0.77979 0.97749 0.10641 0.0
H193 H 0.77779 0.97492 0.0577 0.0
C194 C -0.00309 0.70835 0.40483 0.0
C195 C 0.97426 0.72521 0.39268 0.0
C196 C -0.00212 0.70497 0.43261 0.0
C197 C 0.95279 0.70661 0.49318 0.0
H198 H 0.02693 0.72483 0.52916 0.0
C199 C 0.96116 0.71667 0.6082 0.0
C200 C 0.98775 0.70794 0.62073 0.0
C201 C 0.95895 0.71714 0.58029 0.0
C202 C 0.00619 0.7191 0.51947 0.0
H203 H 0.9345 0.75118 0.40003 0.0
H204 H 0.93599 0.74481 0.44873 0.0
H205 H 0.02392 0.72836 0.48058 0.0
H206 H 0.03249 0.69177 0.61398 0.0
H207 H 0.02832 0.69148 0.56536 0.0
H208 H 0.93513 0.69672 0.53191 0.0
C209 C 0.95301 0.73438 0.43665 0.0
C210 C 0.00447 0.7213 0.49163 0.0
C211 C 0.95227 0.73814 0.40884 0.0
C212 C 0.01179 0.69887 0.60486 0.0
C213 C 0.00945 0.69892 0.57697 0.0
C214 C 0.9546 0.70399 0.52104 0.0
C215 C 0.97602 0.71803 0.44877 0.0
C216 C 0.97774 0.71522 0.47825 0.0
C217 C 0.98315 0.7085 0.56429 0.0
C218 C 0.98131 0.71034 0.53457 0.0
H219 H 0.01422 0.69815 0.39293 0.0
H220 H 0.01573 0.69208 0.44149 0.0
H221 H 0.93201 0.70153 0.48325 0.0
H222 H 0.9423 0.72397 0.61992 0.0
H223 H 0.93851 0.72508 0.57131 0.0
C224 C 0.40524 0.04221 0.21309 0.0
C225 C 0.38561 0.01936 0.22024 0.0
C226 C 0.4347 0.04161 0.22186 0.0
C227 C 0.49175 0.98843 0.2437 0.0
H228 H 0.53722 0.06008 0.2564 0.0
C229 C 0.61863 0.9847 0.25593 0.0
C230 C 0.63325 0.0038 0.238 0.0
C231 C 0.5883 0.98825 0.26099 0.0
C232 C 0.52474 0.03988 0.25306 0.0
H233 H 0.38098 0.97871 0.24329 0.0
H234 H 0.43228 0.97792 0.25897 0.0
H235 H 0.48323 0.0631 0.2521 0.0
H236 H 0.62811 0.04273 0.21268 0.0
H237 H 0.57534 0.04889 0.2215 0.0
H238 H 0.53329 0.96536 0.24394 0.0
C239 C 0.4251 -0.00402 0.24611 0.0
C240 C 0.49388 0.0416 0.25048 0.0
C241 C 0.39569 -0.00353 0.23717 0.0
C242 C 0.6174 0.0275 0.22644 0.0
C243 C 0.58722 0.03121 0.23168 0.0
C244 C 0.52255 0.9867 0.24646 0.0
C245 C 0.44509 0.01825 0.23815 0.0
C246 C 0.47714 0.01601 0.24495 0.0
C247 C 0.5722 0.01117 0.24844 0.0
C248 C 0.53942 0.01252 0.25036 0.0
H249 H 0.39814 0.06017 0.20007 0.0
H250 H 0.44957 0.05889 0.21499 0.0
H251 H 0.47965 0.96833 0.23912 0.0
H252 H 0.6303 0.9663 0.26523 0.0
H253 H 0.57726 0.97262 0.27415 0.0
C254 C 0.96637 0.40787 0.69614 0.0
C255 C 0.98253 0.38451 0.70782 0.0
C256 C 0.97024 0.43692 0.70508 0.0
C257 C 0.02651 0.48297 0.73828 0.0
H258 H 0.96477 0.5427 0.7321 0.0
C259 C 0.00777 0.61897 0.74005 0.0
C260 C 0.03218 0.62686 0.72403 0.0
C261 C 0.00199 0.58918 0.74584 0.0
C262 C 0.98221 0.52632 0.73453 0.0
H263 H 0.01393 0.37286 0.73918 0.0
H264 H 0.02014 0.42349 0.75522 0.0
H265 H 0.9518 0.49049 0.72884 0.0
H266 H 0.07058 0.6099 0.70278 0.0
H267 H 0.06015 0.55811 0.71222 0.0
H268 H 0.05692 0.51879 0.74399 0.0
C269 C 0.00511 0.41953 0.73866 0.0
C270 C 0.97481 0.49637 0.73225 0.0
C271 C 0.00147 0.39051 0.72953 0.0
C272 C 0.05155 0.60455 0.71512 0.0
C273 C 0.04567 0.5748 0.72074 0.0
C274 C 0.03386 0.5129 0.74082 0.0
C275 C 0.9901 0.44318 0.7261 0.0
C276 C -0.00298 0.47441 0.73312 0.0
C277 C 0.02042 0.56671 0.73561 0.0
C278 C 0.01197 0.53497 0.73798 0.0
H279 H 0.95161 0.40392 0.67936 0.0
H280 H 0.95863 0.45459 0.69464 0.0
H281 H 0.04425 0.46673 0.73894 0.0
H282 H 0.9926 0.63573 0.74746 0.0
H283 H 0.98265 0.58372 0.75774 0.0
C284 C 0.61688 0.00665 0.75682 0.0
C285 C 0.6269 0.02747 0.77567 0.0
C286 C 0.58763 0.0076 0.74748 0.0
C287 C 0.5191 0.0543 0.74671 0.0
H288 H 0.47919 0.97809 0.74766 0.0
C289 C 0.3966 0.03852 0.77313 0.0
C290 C 0.37996 0.01691 0.75957 0.0
C291 C 0.42663 0.04241 0.76741 0.0
C292 C 0.49008 -0.00051 0.7467 0.0
H293 H 0.61451 0.06626 0.79874 0.0
H294 H 0.56338 0.0674 0.78314 0.0
H295 H 0.53295 0.97997 0.75181 0.0
H296 H 0.38133 0.98332 0.72856 0.0
H297 H 0.4342 0.98983 0.7189 0.0
H298 H 0.47578 0.07376 0.74324 0.0
C299 C 0.57817 0.05069 0.77508 0.0
C300 C 0.52094 0.0006 0.74906 0.0
C301 C 0.60745 0.04988 0.78425 0.0
C302 C 0.39364 8e-05 0.73939 0.0
C303 C 0.42385 0.00375 0.73388 0.0
C304 C 0.48819 0.05318 0.74459 0.0
C305 C 0.56776 0.02926 0.75694 0.0
C306 C 0.53572 0.02806 0.74993 0.0
C307 C 0.4407 0.0246 0.74819 0.0
C308 C 0.47337 0.02579 0.74538 0.0
H309 H 0.63148 0.98932 0.74958 0.0
H310 H 0.58046 0.99106 0.73319 0.0
H311 H 0.52987 0.07577 0.74672 0.0
H312 H 0.3866 0.05197 0.78865 0.0
H313 H 0.43916 0.05841 0.77896 0.0
C314 C 0.00873 0.40243 0.24885 0.0
C315 C 0.03179 0.39318 0.26598 0.0
C316 C 0.0064 0.43211 0.24094 0.0
C317 C 0.04653 0.50443 0.24091 0.0
H318 H 0.96729 0.5371 0.24899 0.0
C319 C 0.02298 0.62392 0.27296 0.0
C320 C -0.00141 0.63914 0.26189 0.0
C321 C 0.02871 0.59454 0.26597 0.0
C322 C 0.98945 0.5283 0.24605 0.0
H323 H 0.07125 0.40749 0.28728 0.0
H324 H 0.06679 0.45931 0.27412 0.0
H325 H 0.97442 0.48363 0.25032 0.0
H326 H 0.96175 0.63593 0.234 0.0
H327 H 0.97159 0.58419 0.22205 0.0
H328 H 0.06162 0.54941 0.23814 0.0
C329 C 0.05076 0.44363 0.26635 0.0
C330 C -0.00642 0.49761 0.24679 0.0
C331 C 0.0532 0.41393 0.2741 0.0
C332 C 0.98066 0.62472 0.24292 0.0
C333 C 0.98623 0.59514 0.23612 0.0
C334 C 0.04241 0.53516 0.24034 0.0
C335 C 0.02698 0.45319 0.25014 0.0
C336 C 0.02227 0.48535 0.24503 0.0
C337 C 0.01005 0.57966 0.24792 0.0
C338 C 0.01393 0.54738 0.24369 0.0
H339 H 0.99207 0.38687 0.24199 0.0
H340 H 0.98811 0.43865 0.22808 0.0
H341 H 0.06884 0.49566 0.23894 0.0
H342 H 0.03734 0.63449 0.2875 0.0
H343 H 0.04701 0.58308 0.27565 0.0
C344 C 0.09836 0.2512 0.2619 0.0
C345 C 0.08827 0.24964 0.2885 0.0
C346 C 0.12102 0.23242 0.25306 0.0
C347 C 0.15382 0.15989 0.26813 0.0
H348 H 0.21638 0.18511 0.21988 0.0
C349 C 0.24555 0.07951 0.23517 0.0
C350 C 0.25334 0.07985 0.20793 0.0
C351 C 0.22776 0.1019 0.24583 0.0
C352 C 0.19889 0.1777 0.23317 0.0
H353 H 0.09483 0.22797 0.32695 0.0
H354 H 0.13443 0.1953 0.31152 0.0
H355 H 0.18122 0.22167 0.23727 0.0
H356 H 0.24914 0.10435 0.17063 0.0
H357 H 0.21755 0.14325 0.18917 0.0
H358 H 0.17092 0.11594 0.26373 0.0
C359 C 0.12454 0.21079 0.29744 0.0
C360 C 0.17882 0.19863 0.24315 0.0
C361 C 0.10196 0.22961 0.30629 0.0
C362 C 0.24353 0.10347 0.1917 0.0
C363 C 0.22557 0.12584 0.20236 0.0
C364 C 0.17377 0.139 0.25811 0.0
C365 C 0.13396 0.21166 0.27063 0.0
C366 C 0.15605 0.1899 0.2607 0.0
C367 C 0.21718 0.12508 0.22948 0.0
C368 C 0.19651 0.14763 0.24049 0.0
H369 H 0.0883 0.26643 0.2477 0.0
H370 H 0.12765 0.23344 0.23224 0.0
H371 H 0.13615 0.15238 0.28119 0.0
H372 H 0.25299 0.06178 0.24829 0.0
H373 H 0.22216 0.10096 0.2669 0.0
C374 C 0.91419 0.23768 0.71088 0.0
C375 C 0.92738 0.25729 0.72919 0.0
C376 C 0.89174 0.21845 0.7191 0.0
C377 C 0.83652 0.2041 0.77204 0.0
H378 H 0.8449 0.12258 0.74847 0.0
C379 C 0.76795 0.10625 0.81558 0.0
C380 C 0.75865 0.08436 0.79743 0.0
C381 C 0.78683 0.12908 0.80721 0.0
C382 C 0.84197 0.14532 0.75494 0.0
H383 H 0.9266 0.27286 0.77026 0.0
H384 H 0.88741 0.23899 0.78467 0.0
H385 H 0.88062 0.15956 0.73378 0.0
H386 H 0.76081 0.06995 0.75602 0.0
H387 H 0.79326 0.10987 0.74143 0.0
H388 H 0.79782 0.18965 0.79333 0.0
C389 C 0.89439 0.23868 0.76392 0.0
C390 C 0.86246 0.16651 0.74653 0.0
C391 C 0.91692 0.25796 0.75569 0.0
C392 C 0.76782 0.08628 0.7706 0.0
C393 C 0.78655 0.10908 0.76224 0.0
C394 C 0.81591 0.18284 0.78045 0.0
C395 C 0.88196 0.21837 0.7458 0.0
C396 C 0.85991 0.19614 0.75487 0.0
C397 C 0.79668 0.13044 0.78053 0.0
C398 C 0.81838 0.15324 0.77187 0.0
H399 H 0.92155 0.23677 0.69025 0.0
H400 H 0.8822 0.20339 0.70457 0.0
H401 H 0.83392 0.22684 0.77864 0.0
H402 H 0.76124 0.10537 0.83639 0.0
H403 H 0.79442 0.1451 0.8218 0.0
C404 C 0.87692 0.7381 0.29702 0.0
C405 C 0.90549 0.7426 0.28647 0.0
C406 C 0.85274 0.75444 0.28726 0.0
C407 C 0.82751 0.80028 0.23011 0.0
H408 H 0.78041 0.84211 0.28295 0.0
C409 C 0.73684 0.88465 0.19975 0.0
C410 C 0.73946 0.91224 0.21259 0.0
C411 C 0.75255 0.85997 0.20926 0.0
C412 C 0.79326 0.83042 0.26798 0.0
H413 H 0.93095 0.76687 0.25675 0.0
H414 H 0.88885 0.79518 0.23971 0.0
H415 H 0.81697 0.80528 0.29759 0.0
H416 H 0.7596 0.93532 0.24608 0.0
H417 H 0.78693 0.8923 0.26263 0.0
H418 H 0.80468 0.82623 0.20057 0.0
C419 C 0.88507 0.77903 0.25547 0.0
C420 C 0.81397 0.80918 0.27633 0.0
C421 C 0.90923 0.76297 0.26539 0.0
C422 C 0.7572 0.91439 0.23568 0.0
C423 C 0.77268 0.88969 0.2453 0.0
C424 C 0.80665 0.82135 0.22175 0.0
C425 C 0.85667 0.77526 0.26654 0.0
C426 C 0.83185 0.79448 0.25751 0.0
C427 C 0.77091 0.86235 0.23194 0.0
C428 C 0.78988 0.83718 0.24065 0.0
H429 H 0.87336 0.72253 0.31328 0.0
H430 H 0.83103 0.75101 0.29606 0.0
H431 H 0.84082 0.78906 0.21517 0.0
H432 H 0.72328 0.88228 0.18195 0.0
H433 H 0.75063 0.83909 0.1987 0.0
C434 C 0.11538 0.75871 0.7251 0.0
C435 C 0.10464 0.76021 0.69867 0.0
C436 C 0.14018 0.77522 0.73276 0.0
C437 C 0.17728 0.84413 0.71551 0.0
H438 H 0.23817 0.81673 0.76482 0.0
C439 C 0.26493 0.92471 0.75505 0.0
C440 C 0.27085 0.92318 0.78265 0.0
C441 C 0.24958 0.90188 0.74231 0.0
C442 C 0.22123 0.82475 0.75116 0.0
H443 H 0.11235 0.77906 0.65924 0.0
H444 H 0.15558 0.80803 0.67271 0.0
H445 H 0.20209 0.78146 0.74688 0.0
H446 H 0.26647 0.89604 0.81835 0.0
H447 H 0.23878 0.85659 0.79633 0.0
H448 H 0.19525 0.88751 0.72052 0.0
C449 C 0.14464 0.79422 0.6875 0.0
C450 C 0.20068 0.80454 0.74084 0.0
C451 C 0.11995 0.77757 0.6798 0.0
C452 C 0.26222 0.89781 0.79705 0.0
C453 C 0.2465 0.87511 0.78436 0.0
C454 C 0.19761 0.86433 0.72595 0.0
C455 C 0.15463 0.79366 0.71418 0.0
C456 C 0.17828 0.81414 0.72317 0.0
C457 C 0.23943 0.8772 0.75694 0.0
C458 C 0.21962 0.85499 0.74417 0.0
H459 H 0.10416 0.74541 0.74009 0.0
H460 H 0.14723 0.77455 0.75351 0.0
H461 H 0.15995 0.85228 0.70229 0.0
H462 H 0.27173 0.94381 0.74335 0.0
H463 H 0.24515 0.90389 0.72105 0.0
C464 C 0.77437 0.91992 0.76846 0.0
C465 C 0.76881 0.94537 0.75286 0.0
C466 C 0.79634 0.89971 0.76095 0.0
C467 C 0.86582 0.89636 0.72328 0.0
H468 H 0.85608 0.81113 0.72979 0.0
C469 C 0.95626 0.814 0.68934 0.0
C470 C 0.96138 0.78905 0.70567 0.0
C471 C 0.9321 0.83269 0.69419 0.0
C472 C 0.85923 0.8349 0.72815 0.0
H473 H 0.78116 0.969 0.71661 0.0
H474 H 0.8195 0.93361 0.70349 0.0
H475 H 0.81413 0.84391 0.73909 0.0
H476 H 0.94544 0.76432 0.74011 0.0
H477 H 0.90361 0.79728 0.74889 0.0
H478 H 0.91098 0.8875 0.7128 0.0
C479 C 0.80706 0.92952 0.72168 0.0
C480 C 0.8352 0.85363 0.73338 0.0
C481 C 0.78499 0.94967 0.72912 0.0
C482 C 0.94203 0.78332 0.72711 0.0
C483 C 0.91793 0.80208 0.73202 0.0
C484 C 0.88987 0.87766 0.71815 0.0
C485 C 0.81327 0.9046 0.73775 0.0
C486 C 0.83828 0.88455 0.73108 0.0
C487 C 0.91262 0.8269 0.71554 0.0
C488 C 0.88689 0.84672 0.72062 0.0
H489 H 0.76226 0.91595 0.78685 0.0
H490 H 0.8008 0.88082 0.77383 0.0
H491 H 0.86899 0.92014 0.72178 0.0
H492 H 0.97066 0.81893 0.67256 0.0
H493 H 0.92842 0.85141 0.68091 0.0
C494 C 0.25461 0.92294 0.27218 0.0
C495 C 0.25605 0.92974 0.24473 0.0
C496 C 0.23514 0.90112 0.28152 0.0
C497 C 0.18867 0.83785 0.25917 0.0
H498 H 0.14194 0.85662 0.32209 0.0
C499 C 0.07919 0.77861 0.28435 0.0
C500 C 0.07429 0.77038 0.31115 0.0
C501 C 0.10351 0.79617 0.27747 0.0
C502 C 0.1551 0.85088 0.30471 0.0
H503 H 0.23873 0.91848 0.20546 0.0
H504 H 0.20454 0.88089 0.22175 0.0
H505 H 0.18128 0.89028 0.30787 0.0
H506 H 0.09104 0.7742 0.35178 0.0
H507 H 0.13351 0.80513 0.33969 0.0
H508 H 0.16186 0.79886 0.25563 0.0
C509 C 0.21871 0.89204 0.23607 0.0
C510 C 0.17769 0.87011 0.29659 0.0
C511 C 0.2382 0.91376 0.22674 0.0
C512 C 0.09421 0.78017 0.33094 0.0
C513 C 0.11844 0.79795 0.32407 0.0
C514 C 0.16599 0.81873 0.2672 0.0
C515 C 0.2167 0.88569 0.26359 0.0
C516 C 0.19444 0.86403 0.2735 0.0
C517 C 0.12336 0.80606 0.29725 0.0
C518 C 0.14872 0.82527 0.28984 0.0
H519 H 0.26819 0.93476 0.28653 0.0
H520 H 0.2344 0.89646 0.3028 0.0
H521 H 0.20154 0.83224 0.24158 0.0
H522 H 0.06426 0.77143 0.26862 0.0
H523 H 0.10654 0.80242 0.25668 0.0
C524 C 0.08504 0.26187 0.75499 0.0
C525 C 0.07228 0.25751 0.7296 0.0
C526 C 0.10857 0.24399 0.76371 0.0
C527 C 0.16654 0.19235 0.73925 0.0
H528 H 0.16445 0.16161 0.81188 0.0
C529 C 0.23489 0.09107 0.77307 0.0
C530 C 0.24882 0.09217 0.79825 0.0
C531 C 0.21534 0.11348 0.76509 0.0
C532 C 0.16556 0.17035 0.79167 0.0
H533 H 0.07438 0.23116 0.69334 0.0
H534 H 0.11502 0.19976 0.70869 0.0
H535 H 0.12659 0.19689 0.79711 0.0
H536 H 0.25329 0.11773 0.83478 0.0
H537 H 0.21892 0.15693 0.8208 0.0
H538 H 0.20511 0.16523 0.73366 0.0
C539 C 0.10721 0.21727 0.72172 0.0
C540 C 0.14391 0.19058 0.78321 0.0
C541 C 0.08376 0.23516 0.71299 0.0
C542 C 0.24289 0.11625 0.81526 0.0
C543 C 0.22314 0.13861 0.80732 0.0
C544 C 0.18809 0.17205 0.74768 0.0
C545 C 0.11979 0.22138 0.74723 0.0
C546 C 0.14393 0.2015 0.75679 0.0
C547 C 0.20916 0.13741 0.78216 0.0
C548 C 0.18759 0.16055 0.77386 0.0
H549 H 0.07678 0.27899 0.76823 0.0
H550 H 0.11802 0.24794 0.78334 0.0
H551 H 0.1675 0.20078 0.71893 0.0
H552 H 0.23897 0.07282 0.75948 0.0
H553 H 0.20459 0.11176 0.74573 0.0
C554 C 0.92632 0.24624 0.26419 0.0
C555 C 0.95383 0.24289 0.25128 0.0
C556 C 0.90347 0.22592 0.25984 0.0
C557 C 0.8781 0.16647 0.21424 0.0
H558 H 0.8349 0.13939 0.27686 0.0
C559 C 0.77938 0.08565 0.2064 0.0
C560 C 0.77803 0.06272 0.22553 0.0
C561 C 0.7996 0.10887 0.20932 0.0
C562 C 0.84687 0.1466 0.2592 0.0
H563 H 0.97866 0.21606 0.22306 0.0
H564 H 0.9389 0.18037 0.21572 0.0
H565 H 0.87259 0.17772 0.28159 0.0
H566 H 0.7967 0.0463 0.26284 0.0
H567 H 0.83229 0.08664 0.26774 0.0
H568 H 0.85304 0.13464 0.19201 0.0
C569 C 0.93486 0.1989 0.22899 0.0
C570 C 0.8682 0.16884 0.26185 0.0
C571 C 0.95771 0.21929 0.23329 0.0
C572 C 0.79712 0.06367 0.24779 0.0
C573 C 0.81741 0.08688 0.25067 0.0
C574 C 0.85679 0.14418 0.21161 0.0
C575 C 0.90765 0.20174 0.24252 0.0
C576 C 0.88417 0.17893 0.23942 0.0
C577 C 0.81897 0.10965 0.23139 0.0
C578 C 0.84105 0.13388 0.23409 0.0
H579 H 0.92254 0.2643 0.27806 0.0
H580 H 0.88258 0.22901 0.2702 0.0
H581 H 0.88982 0.17395 0.19655 0.0
H582 H 0.76487 0.08566 0.18907 0.0
H583 H 0.79994 0.1263 0.19433 0.0
loop_
_geom_bond_atom_site_label_1
_geom_bond_atom_site_label_2
_geom_bond_distance
_geom_bond_site_symmetry_2
_ccdc_geom_bond_type
C0 O1 1.160 . S
C0 O7 1.185 . S
O1 C0 1.160 . S
O2 Zn3 1.899 . S
O2 C10 1.284 . S
Zn3 O2 1.899 . S
Zn3 O4 2.032 . S
Zn3 O7 2.086 . S
Zn3 O12 1.977 1_545 S
O4 Zn3 2.032 . S
O4 C8 1.278 . S
C5 O6 1.203 . S
C5 O12 1.267 . S
O6 C5 1.203 . S
O7 C0 1.185 . S
O7 Zn3 2.086 . S
C8 O4 1.278 . S
C8 O9 1.206 1_545 S
O9 C8 1.206 1_565 S
C10 O2 1.284 . S
C10 O11 1.273 . S
O11 C10 1.273 . S
O12 Zn3 1.977 1_565 S
O12 C5 1.267 . S
C13 O14 1.160 1_455 S
C13 O20 1.185 . S
O14 C13 1.160 1_655 S
O15 Zn16 1.899 1_655 S
O15 C23 1.284 . S
Zn16 O15 1.899 1_455 S
Zn16 O17 2.032 . S
Zn16 O20 2.086 . S
Zn16 O25 1.977 . S
O17 Zn16 2.032 . S
O17 C21 1.278 . S
C18 O19 1.203 . S
C18 O25 1.267 . S
O19 C18 1.203 . S
O20 C13 1.185 . S
O20 Zn16 2.086 . S
C21 O17 1.278 . S
C21 O22 1.211 . S
O22 C21 1.211 . S
C23 O15 1.284 . S
C23 O24 1.273 . S
O24 C23 1.273 . S
O25 Zn16 1.977 . S
O25 C18 1.267 . S
C26 O27 1.160 1_545 S
C26 O33 1.185 . S
O27 C26 1.160 1_565 S
O28 Zn29 1.899 1_565 S
O28 C36 1.284 . S
Zn29 O28 1.899 1_545 S
Zn29 O30 2.032 . S
Zn29 O33 2.086 . S
Zn29 O38 1.977 . S
O30 Zn29 2.032 . S
O30 C34 1.278 . S
C31 O32 1.203 . S
C31 O38 1.267 . S
O32 C31 1.203 . S
O33 C26 1.185 . S
O33 Zn29 2.086 . S
C34 O30 1.278 . S
C34 O35 1.211 . S
O35 C34 1.211 . S
C36 O28 1.284 . S
C36 O37 1.273 . S
O37 C36 1.273 . S
O38 Zn29 1.977 . S
O38 C31 1.267 . S
C39 O40 1.160 . S
C39 O46 1.185 . S
O40 C39 1.160 . S
O41 Zn42 1.899 . S
O41 C49 1.284 . S
Zn42 O41 1.899 . S
Zn42 O43 2.032 . S
Zn42 O46 2.086 . S
Zn42 O51 1.977 1_455 S
O43 Zn42 2.032 . S
O43 C47 1.278 . S
C44 O45 1.203 . S
C44 O51 1.267 . S
O45 C44 1.203 . S
O46 C39 1.185 . S
O46 Zn42 2.086 . S
C47 O43 1.278 . S
C47 O48 1.206 1_455 S
O48 C47 1.206 1_655 S
C49 O41 1.284 . S
C49 O50 1.273 . S
O50 C49 1.273 . S
O51 Zn42 1.977 1_655 S
O51 C44 1.267 . S
C52 O53 1.160 1_545 S
C52 O59 1.185 . S
O53 C52 1.160 1_565 S
O54 Zn55 1.899 1_565 S
O54 C62 1.284 . S
Zn55 O54 1.899 1_545 S
Zn55 O56 2.032 . S
Zn55 O59 2.086 . S
Zn55 O64 1.977 . S
O56 Zn55 2.032 . S
O56 C60 1.278 . S
C57 O58 1.203 . S
C57 O64 1.267 . S
O58 C57 1.203 . S
O59 C52 1.185 . S
O59 Zn55 2.086 . S
C60 O56 1.278 . S
C60 O61 1.211 . S
O61 C60 1.211 . S
C62 O54 1.284 . S
C62 O63 1.273 . S
O63 C62 1.273 . S
O64 Zn55 1.977 . S
O64 C57 1.267 . S
C65 O66 1.160 . S
C65 O72 1.185 . S
O66 C65 1.160 . S
O67 Zn68 1.899 . S
O67 C75 1.284 . S
Zn68 O67 1.899 . S
Zn68 O69 2.032 . S
Zn68 O72 2.086 . S
Zn68 O77 1.977 1_455 S
O69 Zn68 2.032 . S
O69 C73 1.278 . S
C70 O71 1.203 . S
C70 O77 1.267 . S
O71 C70 1.203 . S
O72 C65 1.185 . S
O72 Zn68 2.086 . S
C73 O69 1.278 . S
C73 O74 1.206 1_455 S
O74 C73 1.206 1_655 S
C75 O67 1.284 . S
C75 O76 1.273 . S
O76 C75 1.273 . S
O77 Zn68 1.977 1_655 S
O77 C70 1.267 . S
C78 O79 1.160 . S
C78 O85 1.185 . S
O79 C78 1.160 . S
O80 Zn81 1.899 . S
O80 C88 1.284 . S
Zn81 O80 1.899 . S
Zn81 O82 2.032 . S
Zn81 O85 2.086 . S
Zn81 O90 1.977 1_545 S
O82 Zn81 2.032 . S
O82 C86 1.278 . S
C83 O84 1.203 . S
C83 O90 1.267 . S
O84 C83 1.203 . S
O85 C78 1.185 . S
O85 Zn81 2.086 . S
C86 O82 1.278 . S
C86 O87 1.206 1_545 S
O87 C86 1.206 1_565 S
C88 O80 1.284 . S
C88 O89 1.273 . S
O89 C88 1.273 . S
O90 Zn81 1.977 1_565 S
O90 C83 1.267 . S
C91 O92 1.160 1_455 S
C91 O98 1.185 . S
O92 C91 1.160 1_655 S
O93 Zn94 1.899 1_655 S
O93 C101 1.284 . S
Zn94 O93 1.899 1_455 S
Zn94 O95 2.032 . S
Zn94 O98 2.086 . S
Zn94 O103 1.977 . S
O95 Zn94 2.032 . S
O95 C99 1.278 . S
C96 O97 1.203 . S
C96 O103 1.267 . S
O97 C96 1.203 . S
O98 C91 1.185 . S
O98 Zn94 2.086 . S
C99 O95 1.278 . S
C99 O100 1.211 . S
O100 C99 1.211 . S
C101 O93 1.284 . S
C101 O102 1.273 . S
O102 C101 1.273 . S
O103 Zn94 1.977 . S
O103 C96 1.267 . S
C104 C105 1.349 . S
C104 C106 1.327 . S
C104 H129 0.950 . S
C105 C104 1.349 . S
C105 C121 1.349 1_545 S
C106 C104 1.327 . S
C106 C125 1.429 . S
C106 H130 0.950 . S
C107 C124 1.574 1_554 S
C107 C126 1.368 1_565 S
C107 H131 0.949 . S
H108 C112 0.949 . S
C109 C110 1.349 1_565 S
C109 C111 1.327 . S
C109 H132 0.950 . S
C110 C109 1.349 1_545 S
C110 C122 1.349 . S
C111 C109 1.327 . S
C111 C127 1.429 1_565 S
C111 H133 0.950 . S
C112 H108 0.949 . S
C112 C120 1.574 1_556 S
C112 C128 1.368 . S
H113 C121 0.950 . S
H114 C119 0.950 . S
H115 C120 0.949 . S
H116 C122 0.950 . S
H117 C123 0.950 . S
H118 C124 0.949 . S
C119 H114 0.950 . S
C119 C121 1.327 . S
C119 C125 1.429 1_565 S
C120 C112 1.574 1_554 S
C120 H115 0.949 . S
C120 C126 1.368 . S
C121 C105 1.349 1_565 S
C121 H113 0.950 . S
C121 C119 1.327 . S
C122 C110 1.349 . S
C122 H116 0.950 . S
C122 C123 1.327 . S
C123 H117 0.950 . S
C123 C122 1.327 . S
C123 C127 1.429 . S
C124 C107 1.574 1_556 S
C124 H118 0.949 . S
C124 C128 1.368 1_565 S
C125 C106 1.429 . S
C125 C119 1.429 1_545 S
C125 C126 1.523 . S
C126 C107 1.368 1_545 S
C126 C120 1.368 . S
C126 C125 1.523 . S
C127 C111 1.429 1_545 S
C127 C123 1.429 . S
C127 C128 1.523 . S
C128 C112 1.368 . S
C128 C124 1.368 1_545 S
C128 C127 1.523 . S
H129 C104 0.950 . S
H130 C106 0.950 . S
H131 C107 0.949 . S
H132 C109 0.950 . S
H133 C111 0.950 . S
C134 C135 1.349 . S
C134 C136 1.327 . S
C134 H159 0.950 . S
C135 C134 1.349 . S
C135 C151 1.349 1_455 S
C136 C134 1.327 . S
C136 C155 1.429 . S
C136 H160 0.950 . S
C137 C154 1.574 . S
C137 C156 1.368 1_655 S
C137 H161 0.949 . S
H138 C142 0.949 . S
C139 C140 1.341 1_655 S
C139 C141 1.328 . S
C139 H162 0.958 . S
C140 C139 1.341 1_455 S
C140 C152 1.349 . S
C141 C139 1.328 . S
C141 C157 1.429 1_655 S
C141 H163 0.950 . S
C142 H138 0.949 . S
C142 C150 1.574 . S
C142 C158 1.368 . S
H143 C151 0.950 . S
H144 C149 0.950 . S
H145 C150 0.949 . S
H146 C152 0.950 . S
H147 C153 0.950 . S
H148 C154 0.949 . S
C149 H144 0.950 . S
C149 C151 1.327 . S
C149 C155 1.429 1_655 S
C150 C142 1.574 . S
C150 H145 0.949 . S
C150 C156 1.368 . S
C151 C135 1.349 1_655 S
C151 H143 0.950 . S
C151 C149 1.327 . S
C152 C140 1.349 . S
C152 H146 0.950 . S
C152 C153 1.327 . S
C153 H147 0.950 . S
C153 C152 1.327 . S
C153 C157 1.429 . S
C154 C137 1.574 . S
C154 H148 0.949 . S
C154 C158 1.368 1_655 S
C155 C136 1.429 . S
C155 C149 1.429 1_455 S
C155 C156 1.523 . S
C156 C137 1.368 1_455 S
C156 C150 1.368 . S
C156 C155 1.523 . S
C157 C141 1.429 1_455 S
C157 C153 1.429 . S
C157 C158 1.523 . S
C158 C142 1.368 . S
C158 C154 1.368 1_455 S
C158 C157 1.523 . S
H159 C134 0.950 . S
H160 C136 0.950 . S
H161 C137 0.949 . S
H162 C139 0.958 . S
H163 C141 0.950 . S
C164 C165 1.349 . S
C164 C166 1.327 . S
C164 H189 0.950 . S
C165 C164 1.349 . S
C165 C181 1.349 1_545 S
C166 C164 1.327 . S
C166 C185 1.429 . S
C166 H190 0.950 . S
C167 C184 1.574 1_556 S
C167 C186 1.368 1_565 S
C167 H191 0.949 . S
H168 C172 0.949 . S
C169 C170 1.349 1_565 S
C169 C171 1.327 . S
C169 H192 0.950 . S
C170 C169 1.349 1_545 S
C170 C182 1.349 . S
C171 C169 1.327 . S
C171 C187 1.429 1_565 S
C171 H193 0.950 . S
C172 H168 0.949 . S
C172 C180 1.574 1_554 S
C172 C188 1.368 . S
H173 C181 0.950 . S
H174 C179 0.950 . S
H175 C180 0.949 . S
H176 C182 0.950 . S
H177 C183 0.950 . S
H178 C184 0.949 . S
C179 H174 0.950 . S
C179 C181 1.327 . S
C179 C185 1.429 1_565 S
C180 C172 1.574 1_556 S
C180 H175 0.949 . S
C180 C186 1.368 . S
C181 C165 1.349 1_565 S
C181 H173 0.950 . S
C181 C179 1.327 . S
C182 C170 1.349 . S
C182 H176 0.950 . S
C182 C183 1.327 . S
C183 H177 0.950 . S
C183 C182 1.327 . S
C183 C187 1.429 . S
C184 C167 1.574 1_554 S
C184 H178 0.949 . S
C184 C188 1.368 1_565 S
C185 C166 1.429 . S
C185 C179 1.429 1_545 S
C185 C186 1.523 . S
C186 C167 1.368 1_545 S
C186 C180 1.368 . S
C186 C185 1.523 . S
C187 C171 1.429 1_545 S
C187 C183 1.429 . S
C187 C188 1.523 . S
C188 C172 1.368 . S
C188 C184 1.368 1_545 S
C188 C187 1.523 . S
H189 C164 0.950 . S
H190 C166 0.950 . S
H191 C167 0.949 . S
H192 C169 0.950 . S
H193 C171 0.950 . S
C194 C195 1.349 . S
C194 C196 1.327 . S
C194 H219 0.950 . S
C195 C194 1.349 . S
C195 C211 1.349 1_455 S
C196 C194 1.327 . S
C196 C215 1.429 . S
C196 H220 0.950 . S
C197 C214 1.574 . S
C197 C216 1.368 1_655 S
C197 H221 0.949 . S
H198 C202 0.949 . S
C199 C200 1.341 1_655 S
C199 C201 1.328 . S
C199 H222 0.957 . S
C200 C199 1.341 1_455 S
C200 C212 1.349 . S
C201 C199 1.328 . S
C201 C217 1.429 1_655 S
C201 H223 0.950 . S
C202 H198 0.949 . S
C202 C210 1.574 . S
C202 C218 1.368 . S
H203 C211 0.950 . S
H204 C209 0.950 . S
H205 C210 0.949 . S
H206 C212 0.950 . S
H207 C213 0.950 . S
H208 C214 0.949 . S
C209 H204 0.950 . S
C209 C211 1.327 . S
C209 C215 1.429 1_655 S
C210 C202 1.574 . S
C210 H205 0.949 . S
C210 C216 1.368 . S
C211 C195 1.349 1_655 S
C211 H203 0.950 . S
C211 C209 1.327 . S
C212 C200 1.349 . S
C212 H206 0.950 . S
C212 C213 1.327 . S
C213 H207 0.950 . S
C213 C212 1.327 . S
C213 C217 1.429 . S
C214 C197 1.574 . S
C214 H208 0.949 . S
C214 C218 1.368 1_655 S
C215 C196 1.429 . S
C215 C209 1.429 1_455 S
C215 C216 1.523 . S
C216 C197 1.368 1_455 S
C216 C210 1.368 . S
C216 C215 1.523 . S
C217 C201 1.429 1_455 S
C217 C213 1.429 . S
C217 C218 1.523 . S
C218 C202 1.368 . S
C218 C214 1.368 1_455 S
C218 C217 1.523 . S
H219 C194 0.950 . S
H220 C196 0.950 . S
H221 C197 0.949 . S
H222 C199 0.957 . S
H223 C201 0.950 . S
C224 C225 1.349 . S
C224 C226 1.327 . S
C224 H249 0.950 . S
C225 C224 1.349 . S
C225 C241 1.349 . S
C226 C224 1.327 . S
C226 C245 1.429 . S
C226 H250 0.950 . S
C227 C244 1.574 . S
C227 C246 1.368 1_565 S
C227 H251 0.949 . S
H228 C232 0.949 . S
C229 C230 1.349 1_565 S
C229 C231 1.327 . S
C229 H252 0.950 . S
C230 C229 1.349 1_545 S
C230 C242 1.349 . S
C231 C229 1.327 . S
C231 C247 1.429 1_565 S
C231 H253 0.950 . S
C232 H228 0.949 . S
C232 C240 1.574 . S
C232 C248 1.368 . S
H233 C241 0.950 1_565 S
H234 C239 0.950 1_565 S
H235 C240 0.949 . S
H236 C242 0.950 . S
H237 C243 0.950 . S
H238 C244 0.949 . S
C239 H234 0.950 1_545 S
C239 C241 1.327 . S
C239 C245 1.429 . S
C240 C232 1.574 . S
C240 H235 0.949 . S
C240 C246 1.368 . S
C241 C225 1.349 . S
C241 H233 0.950 1_545 S
C241 C239 1.327 . S
C242 C230 1.349 . S
C242 H236 0.950 . S
C242 C243 1.327 . S
C243 H237 0.950 . S
C243 C242 1.327 . S
C243 C247 1.429 . S
C244 C227 1.574 . S
C244 H238 0.949 . S
C244 C248 1.368 1_565 S
C245 C226 1.429 . S
C245 C239 1.429 . S
C245 C246 1.523 . S
C246 C227 1.368 1_545 S
C246 C240 1.368 . S
C246 C245 1.523 . S
C247 C231 1.429 1_545 S
C247 C243 1.429 . S
C247 C248 1.523 . S
C248 C232 1.368 . S
C248 C244 1.368 1_545 S
C248 C247 1.523 . S
H249 C224 0.950 . S
H250 C226 0.950 . S
H251 C227 0.949 . S
H252 C229 0.950 . S
H253 C231 0.950 . S
C254 C255 1.349 1_655 S
C254 C256 1.327 . S
C254 H279 0.950 . S
C255 C254 1.349 1_455 S
C255 C271 1.349 . S
C256 C254 1.327 . S
C256 C275 1.429 1_655 S
C256 H280 0.950 . S
C257 C274 1.574 . S
C257 C276 1.368 . S
C257 H281 0.949 . S
H258 C262 0.949 . S
C259 C260 1.349 . S
C259 C261 1.327 . S
C259 H282 0.950 . S
C260 C259 1.349 . S
C260 C272 1.349 . S
C261 C259 1.327 . S
C261 C277 1.429 . S
C261 H283 0.950 . S
C262 H258 0.949 . S
C262 C270 1.574 . S
C262 C278 1.368 1_655 S
H263 C271 0.950 . S
H264 C269 0.950 . S
H265 C270 0.949 . S
H266 C272 0.950 1_655 S
H267 C273 0.950 1_655 S
H268 C274 0.949 . S
C269 H264 0.950 . S
C269 C271 1.327 . S
C269 C275 1.429 . S
C270 C262 1.574 . S
C270 H265 0.949 . S
C270 C276 1.368 1_655 S
C271 C255 1.349 . S
C271 H263 0.950 . S
C271 C269 1.327 . S
C272 C260 1.349 . S
C272 H266 0.950 1_455 S
C272 C273 1.327 . S
C273 H267 0.950 1_455 S
C273 C272 1.327 . S
C273 C277 1.429 . S
C274 C257 1.574 . S
C274 H268 0.949 . S
C274 C278 1.368 . S
C275 C256 1.429 1_455 S
C275 C269 1.429 . S
C275 C276 1.523 . S
C276 C257 1.368 . S
C276 C270 1.368 1_455 S
C276 C275 1.523 . S
C277 C261 1.429 . S
C277 C273 1.429 . S
C277 C278 1.523 . S
C278 C262 1.368 1_455 S
C278 C274 1.368 . S
C278 C277 1.523 . S
H279 C254 0.950 . S
H280 C256 0.950 . S
H281 C257 0.949 . S
H282 C259 0.950 . S
H283 C261 0.950 . S
C284 C285 1.349 . S
C284 C286 1.327 . S
C284 H309 0.950 1_545 S
C285 C284 1.349 . S
C285 C301 1.349 . S
C286 C284 1.327 . S
C286 C305 1.429 . S
C286 H310 0.950 1_545 S
C287 C304 1.574 . S
C287 C306 1.368 . S
C287 H311 0.949 . S
H288 C292 0.949 . S
C289 C290 1.349 . S
C289 C291 1.327 . S
C289 H312 0.950 . S
C290 C289 1.349 . S
C290 C302 1.349 1_545 S
C291 C289 1.327 . S
C291 C307 1.429 . S
C291 H313 0.950 . S
C292 H288 0.949 . S
C292 C300 1.574 . S
C292 C308 1.368 1_565 S
H293 C301 0.950 . S
H294 C299 0.950 . S
H295 C300 0.949 . S
H296 C302 0.950 . S
H297 C303 0.950 . S
H298 C304 0.949 . S
C299 H294 0.950 . S
C299 C301 1.327 . S
C299 C305 1.429 . S
C300 C292 1.574 . S
C300 H295 0.949 . S
C300 C306 1.368 1_565 S
C301 C285 1.349 . S
C301 H293 0.950 . S
C301 C299 1.327 . S
C302 C290 1.349 1_565 S
C302 H296 0.950 . S
C302 C303 1.327 . S
C303 H297 0.950 . S
C303 C302 1.327 . S
C303 C307 1.429 1_565 S
C304 C287 1.574 . S
C304 H298 0.949 . S
C304 C308 1.368 . S
C305 C286 1.429 . S
C305 C299 1.429 . S
C305 C306 1.523 . S
C306 C287 1.368 . S
C306 C300 1.368 1_545 S
C306 C305 1.523 . S
C307 C291 1.429 . S
C307 C303 1.429 1_545 S
C307 C308 1.523 . S
C308 C292 1.368 1_545 S
C308 C304 1.368 . S
C308 C307 1.523 . S
H309 C284 0.950 1_565 S
H310 C286 0.950 1_565 S
H311 C287 0.949 . S
H312 C289 0.950 . S
H313 C291 0.950 . S
C314 C315 1.349 . S
C314 C316 1.327 . S
C314 H339 0.950 1_455 S
C315 C314 1.349 . S
C315 C331 1.349 . S
C316 C314 1.327 . S
C316 C335 1.429 . S
C316 H340 0.950 1_455 S
C317 C334 1.574 . S
C317 C336 1.368 . S
C317 H341 0.949 . S
H318 C322 0.949 . S
C319 C320 1.349 . S
C319 C321 1.327 . S
C319 H342 0.950 . S
C320 C319 1.349 . S
C320 C332 1.349 1_455 S
C321 C319 1.327 . S
C321 C337 1.429 . S
C321 H343 0.950 . S
C322 H318 0.949 . S
C322 C330 1.574 . S
C322 C338 1.368 1_655 S
H323 C331 0.950 . S
H324 C329 0.950 . S
H325 C330 0.949 . S
H326 C332 0.950 . S
H327 C333 0.950 . S
H328 C334 0.949 . S
C329 H324 0.950 . S
C329 C331 1.327 . S
C329 C335 1.429 . S
C330 C322 1.574 . S
C330 H325 0.949 . S
C330 C336 1.368 1_655 S
C331 C315 1.349 . S
C331 H323 0.950 . S
C331 C329 1.327 . S
C332 C320 1.349 1_655 S
C332 H326 0.950 . S
C332 C333 1.327 . S
C333 H327 0.950 . S
C333 C332 1.327 . S
C333 C337 1.429 1_655 S
C334 C317 1.574 . S
C334 H328 0.949 . S
C334 C338 1.368 . S
C335 C316 1.429 . S
C335 C329 1.429 . S
C335 C336 1.523 . S
C336 C317 1.368 . S
C336 C330 1.368 1_455 S
C336 C335 1.523 . S
C337 C321 1.429 . S
C337 C333 1.429 1_455 S
C337 C338 1.523 . S
C338 C322 1.368 1_455 S
C338 C334 1.368 . S
C338 C337 1.523 . S
H339 C314 0.950 1_655 S
H340 C316 0.950 1_655 S
H341 C317 0.949 . S
H342 C319 0.950 . S
H343 C321 0.950 . S
C344 C345 1.349 . S
C344 C346 1.327 . S
C344 H369 0.950 . S
C345 C344 1.349 . S
C345 C361 1.349 . S
C346 C344 1.327 . S
C346 C365 1.429 . S
C346 H370 0.950 . S
C347 C364 1.574 . S
C347 C366 1.368 . S
C347 H371 0.949 . S
H348 C352 0.949 . S
C349 C350 1.349 . S
C349 C351 1.327 . S
C349 H372 0.950 . S
C350 C349 1.349 . S
C350 C362 1.349 . S
C351 C349 1.327 . S
C351 C367 1.429 . S
C351 H373 0.950 . S
C352 H348 0.949 . S
C352 C360 1.574 . S
C352 C368 1.368 . S
H353 C361 0.950 . S
H354 C359 0.950 . S
H355 C360 0.949 . S
H356 C362 0.950 . S
H357 C363 0.950 . S
H358 C364 0.949 . S
C359 H354 0.950 . S
C359 C361 1.327 . S
C359 C365 1.429 . S
C360 C352 1.574 . S
C360 H355 0.949 . S
C360 C366 1.368 . S
C361 C345 1.349 . S
C361 H353 0.950 . S
C361 C359 1.327 . S
C362 C350 1.349 . S
C362 H356 0.950 . S
C362 C363 1.327 . S
C363 H357 0.950 . S
C363 C362 1.327 . S
C363 C367 1.429 . S
C364 C347 1.574 . S
C364 H358 0.949 . S
C364 C368 1.368 . S
C365 C346 1.429 . S
C365 C359 1.429 . S
C365 C366 1.523 . S
C366 C347 1.368 . S
C366 C360 1.368 . S
C366 C365 1.523 . S
C367 C351 1.429 . S
C367 C363 1.429 . S
C367 C368 1.523 . S
C368 C352 1.368 . S
C368 C364 1.368 . S
C368 C367 1.523 . S
H369 C344 0.950 . S
H370 C346 0.950 . S
H371 C347 0.949 . S
H372 C349 0.950 . S
H373 C351 0.950 . S
C374 C375 1.349 . S
C374 C376 1.327 . S
C374 H399 0.950 . S
C375 C374 1.349 . S
C375 C391 1.349 . S
C376 C374 1.327 . S
C376 C395 1.429 . S
C376 H400 0.950 . S
C377 C394 1.574 . S
C377 C396 1.368 . S
C377 H401 0.949 . S
H378 C382 0.949 . S
C379 C380 1.349 . S
C379 C381 1.327 . S
C379 H402 0.950 . S
C380 C379 1.349 . S
C380 C392 1.349 . S
C381 C379 1.327 . S
C381 C397 1.429 . S
C381 H403 0.950 . S
C382 H378 0.949 . S
C382 C390 1.574 . S
C382 C398 1.368 . S
H383 C391 0.950 . S
H384 C389 0.950 . S
H385 C390 0.949 . S
H386 C392 0.950 . S
H387 C393 0.950 . S
H388 C394 0.949 . S
C389 H384 0.950 . S
C389 C391 1.327 . S
C389 C395 1.429 . S
C390 C382 1.574 . S
C390 H385 0.949 . S
C390 C396 1.368 . S
C391 C375 1.349 . S
C391 H383 0.950 . S
C391 C389 1.327 . S
C392 C380 1.349 . S
C392 H386 0.950 . S
C392 C393 1.327 . S
C393 H387 0.950 . S
C393 C392 1.327 . S
C393 C397 1.429 . S
C394 C377 1.574 . S
C394 H388 0.949 . S
C394 C398 1.368 . S
C395 C376 1.429 . S
C395 C389 1.429 . S
C395 C396 1.523 . S
C396 C377 1.368 . S
C396 C390 1.368 . S
C396 C395 1.523 . S
C397 C381 1.429 . S
C397 C393 1.429 . S
C397 C398 1.523 . S
C398 C382 1.368 . S
C398 C394 1.368 . S
C398 C397 1.523 . S
H399 C374 0.950 . S
H400 C376 0.950 . S
H401 C377 0.949 . S
H402 C379 0.950 . S
H403 C381 0.950 . S
C404 C405 1.349 . S
C404 C406 1.327 . S
C404 H429 0.950 . S
C405 C404 1.349 . S
C405 C421 1.349 . S
C406 C404 1.327 . S
C406 C425 1.429 . S
C406 H430 0.950 . S
C407 C424 1.574 . S
C407 C426 1.368 . S
C407 H431 0.949 . S
H408 C412 0.949 . S
C409 C410 1.349 . S
C409 C411 1.327 . S
C409 H432 0.950 . S
C410 C409 1.349 . S
C410 C422 1.349 . S
C411 C409 1.327 . S
C411 C427 1.429 . S
C411 H433 0.950 . S
C412 H408 0.949 . S
C412 C420 1.574 . S
C412 C428 1.368 . S
H413 C421 0.950 . S
H414 C419 0.950 . S
H415 C420 0.949 . S
H416 C422 0.950 . S
H417 C423 0.950 . S
H418 C424 0.949 . S
C419 H414 0.950 . S
C419 C421 1.327 . S
C419 C425 1.429 . S
C420 C412 1.574 . S
C420 H415 0.949 . S
C420 C426 1.368 . S
C421 C405 1.349 . S
C421 H413 0.950 . S
C421 C419 1.327 . S
C422 C410 1.349 . S
C422 H416 0.950 . S
C422 C423 1.327 . S
C423 H417 0.950 . S
C423 C422 1.327 . S
C423 C427 1.429 . S
C424 C407 1.574 . S
C424 H418 0.949 . S
C424 C428 1.368 . S
C425 C406 1.429 . S
C425 C419 1.429 . S
C425 C426 1.523 . S
C426 C407 1.368 . S
C426 C420 1.368 . S
C426 C425 1.523 . S
C427 C411 1.429 . S
C427 C423 1.429 . S
C427 C428 1.523 . S
C428 C412 1.368 . S
C428 C424 1.368 . S
C428 C427 1.523 . S
H429 C404 0.950 . S
H430 C406 0.950 . S
H431 C407 0.949 . S
H432 C409 0.950 . S
H433 C411 0.950 . S
C434 C435 1.349 . S
C434 C436 1.327 . S
C434 H459 0.950 . S
C435 C434 1.349 . S
C435 C451 1.349 . S
C436 C434 1.327 . S
C436 C455 1.429 . S
C436 H460 0.950 . S
C437 C454 1.574 . S
C437 C456 1.368 . S
C437 H461 0.949 . S
H438 C442 0.949 . S
C439 C440 1.349 . S
C439 C441 1.327 . S
C439 H462 0.950 . S
C440 C439 1.349 . S
C440 C452 1.349 . S
C441 C439 1.327 . S
C441 C457 1.429 . S
C441 H463 0.950 . S
C442 H438 0.949 . S
C442 C450 1.574 . S
C442 C458 1.368 . S
H443 C451 0.950 . S
H444 C449 0.950 . S
H445 C450 0.949 . S
H446 C452 0.950 . S
H447 C453 0.950 . S
H448 C454 0.949 . S
C449 H444 0.950 . S
C449 C451 1.327 . S
C449 C455 1.429 . S
C450 C442 1.574 . S
C450 H445 0.949 . S
C450 C456 1.368 . S
C451 C435 1.349 . S
C451 H443 0.950 . S
C451 C449 1.327 . S
C452 C440 1.349 . S
C452 H446 0.950 . S
C452 C453 1.327 . S
C453 H447 0.950 . S
C453 C452 1.327 . S
C453 C457 1.429 . S
C454 C437 1.574 . S
C454 H448 0.949 . S
C454 C458 1.368 . S
C455 C436 1.429 . S
C455 C449 1.429 . S
C455 C456 1.523 . S
C456 C437 1.368 . S
C456 C450 1.368 . S
C456 C455 1.523 . S
C457 C441 1.429 . S
C457 C453 1.429 . S
C457 C458 1.523 . S
C458 C442 1.368 . S
C458 C454 1.368 . S
C458 C457 1.523 . S
H459 C434 0.950 . S
H460 C436 0.950 . S
H461 C437 0.949 . S
H462 C439 0.950 . S
H463 C441 0.950 . S
C464 C465 1.349 . S
C464 C466 1.327 . S
C464 H489 0.950 . S
C465 C464 1.349 . S
C465 C481 1.349 . S
C466 C464 1.327 . S
C466 C485 1.429 . S
C466 H490 0.950 . S
C467 C484 1.574 . S
C467 C486 1.368 . S
C467 H491 0.949 . S
H468 C472 0.949 . S
C469 C470 1.349 . S
C469 C471 1.327 . S
C469 H492 0.950 . S
C470 C469 1.349 . S
C470 C482 1.349 . S
C471 C469 1.327 . S
C471 C487 1.429 . S
C471 H493 0.950 . S
C472 H468 0.949 . S
C472 C480 1.574 . S
C472 C488 1.368 . S
H473 C481 0.950 . S
H474 C479 0.950 . S
H475 C480 0.949 . S
H476 C482 0.950 . S
H477 C483 0.950 . S
H478 C484 0.949 . S
C479 H474 0.950 . S
C479 C481 1.327 . S
C479 C485 1.429 . S
C480 C472 1.574 . S
C480 H475 0.949 . S
C480 C486 1.368 . S
C481 C465 1.349 . S
C481 H473 0.950 . S
C481 C479 1.327 . S
C482 C470 1.349 . S
C482 H476 0.950 . S
C482 C483 1.327 . S
C483 H477 0.950 . S
C483 C482 1.327 . S
C483 C487 1.429 . S
C484 C467 1.574 . S
C484 H478 0.949 . S
C484 C488 1.368 . S
C485 C466 1.429 . S
C485 C479 1.429 . S
C485 C486 1.523 . S
C486 C467 1.368 . S
C486 C480 1.368 . S
C486 C485 1.523 . S
C487 C471 1.429 . S
C487 C483 1.429 . S
C487 C488 1.523 . S
C488 C472 1.368 . S
C488 C484 1.368 . S
C488 C487 1.523 . S
H489 C464 0.950 . S
H490 C466 0.950 . S
H491 C467 0.949 . S
H492 C469 0.950 . S
H493 C471 0.950 . S
C494 C495 1.349 . S
C494 C496 1.327 . S
C494 H519 0.950 . S
C495 C494 1.349 . S
C495 C511 1.349 . S
C496 C494 1.327 . S
C496 C515 1.429 . S
C496 H520 0.950 . S
C497 C514 1.574 . S
C497 C516 1.368 . S
C497 H521 0.949 . S
H498 C502 0.949 . S
C499 C500 1.349 . S
C499 C501 1.327 . S
C499 H522 0.950 . S
C500 C499 1.349 . S
C500 C512 1.349 . S
C501 C499 1.327 . S
C501 C517 1.429 . S
C501 H523 0.950 . S
C502 H498 0.949 . S
C502 C510 1.574 . S
C502 C518 1.368 . S
H503 C511 0.950 . S
H504 C509 0.950 . S
H505 C510 0.949 . S
H506 C512 0.950 . S
H507 C513 0.950 . S
H508 C514 0.949 . S
C509 H504 0.950 . S
C509 C511 1.327 . S
C509 C515 1.429 . S
C510 C502 1.574 . S
C510 H505 0.949 . S
C510 C516 1.368 . S
C511 C495 1.349 . S
C511 H503 0.950 . S
C511 C509 1.327 . S
C512 C500 1.349 . S
C512 H506 0.950 . S
C512 C513 1.327 . S
C513 H507 0.950 . S
C513 C512 1.327 . S
C513 C517 1.429 . S
C514 C497 1.574 . S
C514 H508 0.949 . S
C514 C518 1.368 . S
C515 C496 1.429 . S
C515 C509 1.429 . S
C515 C516 1.523 . S
C516 C497 1.368 . S
C516 C510 1.368 . S
C516 C515 1.523 . S
C517 C501 1.429 . S
C517 C513 1.429 . S
C517 C518 1.523 . S
C518 C502 1.368 . S
C518 C514 1.368 . S
C518 C517 1.523 . S
H519 C494 0.950 . S
H520 C496 0.950 . S
H521 C497 0.949 . S
H522 C499 0.950 . S
H523 C501 0.950 . S
C524 C525 1.349 . S
C524 C526 1.327 . S
C524 H549 0.950 . S
C525 C524 1.349 . S
C525 C541 1.349 . S
C526 C524 1.327 . S
C526 C545 1.429 . S
C526 H550 0.950 . S
C527 C544 1.574 . S
C527 C546 1.368 . S
C527 H551 0.949 . S
H528 C532 0.949 . S
C529 C530 1.349 . S
C529 C531 1.327 . S
C529 H552 0.950 . S
C530 C529 1.349 . S
C530 C542 1.349 . S
C531 C529 1.327 . S
C531 C547 1.429 . S
C531 H553 0.950 . S
C532 H528 0.949 . S
C532 C540 1.574 . S
C532 C548 1.368 . S
H533 C541 0.950 . S
H534 C539 0.950 . S
H535 C540 0.949 . S
H536 C542 0.950 . S
H537 C543 0.950 . S
H538 C544 0.949 . S
C539 H534 0.950 . S
C539 C541 1.327 . S
C539 C545 1.429 . S
C540 C532 1.574 . S
C540 H535 0.949 . S
C540 C546 1.368 . S
C541 C525 1.349 . S
C541 H533 0.950 . S
C541 C539 1.327 . S
C542 C530 1.349 . S
C542 H536 0.950 . S
C542 C543 1.327 . S
C543 H537 0.950 . S
C543 C542 1.327 . S
C543 C547 1.429 . S
C544 C527 1.574 . S
C544 H538 0.949 . S
C544 C548 1.368 . S
C545 C526 1.429 . S
C545 C539 1.429 . S
C545 C546 1.523 . S
C546 C527 1.368 . S
C546 C540 1.368 . S
C546 C545 1.523 . S
C547 C531 1.429 . S
C547 C543 1.429 . S
C547 C548 1.523 . S
C548 C532 1.368 . S
C548 C544 1.368 . S
C548 C547 1.523 . S
H549 C524 0.950 . S
H550 C526 0.950 . S
H551 C527 0.949 . S
H552 C529 0.950 . S
H553 C531 0.950 . S
C554 C555 1.349 . S
C554 C556 1.327 . S
C554 H579 0.950 . S
C555 C554 1.349 . S
C555 C571 1.349 . S
C556 C554 1.327 . S
C556 C575 1.429 . S
C556 H580 0.950 . S
C557 C574 1.574 . S
C557 C576 1.368 . S
C557 H581 0.949 . S
H558 C562 0.949 . S
C559 C560 1.349 . S
C559 C561 1.327 . S
C559 H582 0.950 . S
C560 C559 1.349 . S
C560 C572 1.349 . S
C561 C559 1.327 . S
C561 C577 1.429 . S
C561 H583 0.950 . S
C562 H558 0.949 . S
C562 C570 1.574 . S
C562 C578 1.368 . S
H563 C571 0.950 . S
H564 C569 0.950 . S
H565 C570 0.949 . S
H566 C572 0.950 . S
H567 C573 0.950 . S
H568 C574 0.949 . S
C569 H564 0.950 . S
C569 C571 1.327 . S
C569 C575 1.429 . S
C570 C562 1.574 . S
C570 H565 0.949 . S
C570 C576 1.368 . S
C571 C555 1.349 . S
C571 H563 0.950 . S
C571 C569 1.327 . S
C572 C560 1.349 . S
C572 H566 0.950 . S
C572 C573 1.327 . S
C573 H567 0.950 . S
C573 C572 1.327 . S
C573 C577 1.429 . S
C574 C557 1.574 . S
C574 H568 0.949 . S
C574 C578 1.368 . S
C575 C556 1.429 . S
C575 C569 1.429 . S
C575 C576 1.523 . S
C576 C557 1.368 . S
C576 C570 1.368 . S
C576 C575 1.523 . S
C577 C561 1.429 . S
C577 C573 1.429 . S
C577 C578 1.523 . S
C578 C562 1.368 . S
C578 C574 1.368 . S
C578 C577 1.523 . S
H579 C554 0.950 . S
H580 C556 0.950 . S
H581 C557 0.949 . S
H582 C559 0.950 . S
H583 C561 0.950 . S
C105 C8 1.542 . S
C110 C60 1.542 . S
C135 C21 1.542 . S
C140 C73 1.542 . S
C165 C86 1.542 . S
C170 C34 1.542 . S
C195 C99 1.542 . S
C200 C47 1.542 . S
C225 C0 0.964 . S
C230 C26 0.964 . S
C255 C13 0.964 . S
C260 C39 0.964 . S
C285 C78 0.964 . S
C290 C52 0.964 . S
C315 C65 0.964 . S
C320 C91 0.964 . S
C345 C75 1.215 . S
C350 C10 1.215 . S
C375 C23 1.215 . S
C380 C88 1.215 . S
C405 C101 1.215 . S
C410 C36 1.215 . S
C435 C49 1.215 . S
C440 C62 1.215 . S
C465 C83 1.143 . S
C470 C44 1.143 . S
C495 C5 1.143 . S
C500 C96 1.143 . S
C525 C18 1.144 . S
C530 C57 1.144 . S
C555 C70 1.143 . S
C560 C31 1.143 . S
