# Generated by pormake.
# Topology ukf, (4)-cn, num edge types: 1
# Building blocks:
#     Node 0, Type 0, BuildingBlock: AZAVOO_clean_sbu_0, # of connection points: 4
#     Node 1, Type 0, BuildingBlock: AZAVOO_clean_sbu_0, # of connection points: 4
#     Node 2, Type 0, BuildingBlock: AZAVOO_clean_sbu_0, # of connection points: 4
#     Node 3, Type 0, BuildingBlock: AZAVOO_clean_sbu_0, # of connection points: 4
#     Node 4, Type 0, BuildingBlock: AZAVOO_clean_sbu_0, # of connection points: 4
#     Node 5, Type 0, BuildingBlock: AZAVOO_clean_sbu_0, # of connection points: 4
#     Node 6, Type 0, BuildingBlock: AZAVOO_clean_sbu_0, # of connection points: 4
#     Node 7, Type 0, BuildingBlock: AZAVOO_clean_sbu_0, # of connection points: 4
#     Node 8, Type 0, BuildingBlock: AZAVOO_clean_sbu_0, # of connection points: 4
#     Node 9, Type 0, BuildingBlock: AZAVOO_clean_sbu_0, # of connection points: 4
#     Node 10, Type 0, BuildingBlock: AZAVOO_clean_sbu_0, # of connection points: 4
#     Node 11, Type 0, BuildingBlock: AZAVOO_clean_sbu_0, # of connection points: 4
#     Edge 12, Type (0, 0), BuildingBlock: XIVTED_clean_linker_0, # of connection points: 2
#     Edge 13, Type (0, 0), BuildingBlock: XIVTED_clean_linker_0, # of connection points: 2
#     Edge 14, Type (0, 0), BuildingBlock: XIVTED_clean_linker_0, # of connection points: 2
#     Edge 15, Type (0, 0), BuildingBlock: XIVTED_clean_linker_0, # of connection points: 2
#     Edge 16, Type (0, 0), BuildingBlock: XIVTED_clean_linker_0, # of connection points: 2
#     Edge 17, Type (0, 0), BuildingBlock: XIVTED_clean_linker_0, # of connection points: 2
#     Edge 18, Type (0, 0), BuildingBlock: XIVTED_clean_linker_0, # of connection points: 2
#     Edge 19, Type (0, 0), BuildingBlock: XIVTED_clean_linker_0, # of connection points: 2
#     Edge 20, Type (0, 0), BuildingBlock: XIVTED_clean_linker_0, # of connection points: 2
#     Edge 21, Type (0, 0), BuildingBlock: XIVTED_clean_linker_0, # of connection points: 2
#     Edge 22, Type (0, 0), BuildingBlock: XIVTED_clean_linker_0, # of connection points: 2
#     Edge 23, Type (0, 0), BuildingBlock: XIVTED_clean_linker_0, # of connection points: 2
#     Edge 24, Type (0, 0), BuildingBlock: XIVTED_clean_linker_0, # of connection points: 2
#     Edge 25, Type (0, 0), BuildingBlock: XIVTED_clean_linker_0, # of connection points: 2
#     Edge 26, Type (0, 0), BuildingBlock: XIVTED_clean_linker_0, # of connection points: 2
#     Edge 27, Type (0, 0), BuildingBlock: XIVTED_clean_linker_0, # of connection points: 2
#     Edge 28, Type (0, 0), BuildingBlock: XIVTED_clean_linker_0, # of connection points: 2
#     Edge 29, Type (0, 0), BuildingBlock: XIVTED_clean_linker_0, # of connection points: 2
#     Edge 30, Type (0, 0), BuildingBlock: XIVTED_clean_linker_0, # of connection points: 2
#     Edge 31, Type (0, 0), BuildingBlock: XIVTED_clean_linker_0, # of connection points: 2
#     Edge 32, Type (0, 0), BuildingBlock: XIVTED_clean_linker_0, # of connection points: 2
#     Edge 33, Type (0, 0), BuildingBlock: XIVTED_clean_linker_0, # of connection points: 2
#     Edge 34, Type (0, 0), BuildingBlock: XIVTED_clean_linker_0, # of connection points: 2
#     Edge 35, Type (0, 0), BuildingBlock: XIVTED_clean_linker_0, # of connection points: 2
# Relax obj value: 0.209
# Max RMSD: 0.201
# Mean RMSD: 0.201
data_MOF--net-ukf--node1-AZAVOO_clean_sbu_0--edge1-XIVTED_clean_linker_0
_symmetry_space_group_name_H-M    P1
_symmetry_Int_Tables_number       1
_symmetry_cell_setting            triclinic
loop_
_symmetry_equiv_pos_as_xyz
'x, y, z'
_cell_length_a     32.092748
_cell_length_b     32.00947
_cell_length_c     63.833116
_cell_angle_alpha  90.052789
_cell_angle_beta   90.060711
_cell_angle_gamma 119.95552
loop_
_atom_site_label
_atom_site_type_symbol
_atom_site_fract_x
_atom_site_fract_y
_atom_site_fract_z
_atom_type_partial_charge
Mg0 Mg 0.36331 0.26183 0.04311 0.0
O1 O 0.44183 0.28561 0.03652 0.0
O2 O 0.48842 0.36382 0.04392 0.0
Mg3 Mg 0.43861 0.38809 0.05855 0.0
C4 C 0.48287 0.32385 0.03706 0.0
C5 C 0.35868 0.17357 0.02109 0.0
O6 O 0.38195 0.20753 0.00713 0.0
O7 O 0.37717 0.25806 0.07787 0.0
O8 O 0.42263 0.33608 0.08621 0.0
O9 O 0.36056 0.28854 0.01118 0.0
O10 O 0.37821 0.33269 0.04006 0.0
C11 C 0.40104 0.29147 0.09118 0.0
C12 C 0.37621 0.33026 0.01992 0.0
O13 O 0.34532 0.18418 0.03805 0.0
Mg14 Mg 0.10386 0.3767 0.38715 0.0
O15 O 0.16517 0.44876 0.37565 0.0
O16 O 0.15461 0.50847 0.38763 0.0
Mg17 Mg 0.08304 0.47291 0.40556 0.0
C18 C 0.17861 0.49344 0.3773 0.0
C19 C 0.12966 0.30749 0.36511 0.0
O20 O 0.08477 0.2903 0.3592 0.0
O21 O 0.13478 0.39262 0.42044 0.0
O22 O 0.1158 0.44765 0.43112 0.0
O23 O 0.06423 0.37326 0.35787 0.0
O24 O 0.05876 0.40561 0.38774 0.0
C25 C 0.13337 0.42022 0.43457 0.0
C26 C 0.04876 0.39771 0.36809 0.0
O27 O 0.1482 0.3426 0.37788 0.0
Mg28 Mg 0.72011 0.12106 0.71552 0.0
O29 O 0.69832 0.17701 0.70654 0.0
O30 O 0.62085 0.14802 0.71427 0.0
Mg31 Mg 0.59527 0.07618 0.73097 0.0
C32 C 0.66054 0.18076 0.70661 0.0
C33 C 0.80956 0.19815 0.692 0.0
O34 O 0.77582 0.18704 0.67786 0.0
O35 O 0.72544 0.14251 0.74987 0.0
O36 O 0.64836 0.11582 0.75799 0.0
O37 O 0.69254 0.0863 0.68438 0.0
O38 O 0.64909 0.06655 0.71348 0.0
C39 C 0.69293 0.13712 0.76288 0.0
C40 C 0.65127 0.06202 0.69354 0.0
O41 O 0.7982 0.17724 0.70969 0.0
Mg42 Mg 0.62182 0.7239 0.04468 0.0
O43 O 0.54343 0.69985 0.0372 0.0
O44 O 0.49703 0.62187 0.04502 0.0
Mg45 Mg 0.54654 0.59784 0.06019 0.0
C46 C 0.50246 0.66146 0.03776 0.0
C47 C 0.62935 0.81353 0.02233 0.0
O48 O 0.60636 0.78019 0.00803 0.0
O49 O 0.60642 0.72798 0.07921 0.0
O50 O 0.56147 0.65009 0.08777 0.0
O51 O 0.62639 0.69706 0.01299 0.0
O52 O 0.60719 0.65311 0.04192 0.0
C53 C 0.58254 0.69482 0.09257 0.0
C54 C 0.61064 0.65547 0.02181 0.0
O55 O 0.64086 0.80183 0.03949 0.0
Mg56 Mg 0.86949 0.62692 0.38825 0.0
O57 O 0.81123 0.55162 0.37731 0.0
O58 O 0.83404 0.49846 0.38608 0.0
Mg59 Mg 0.90226 0.53869 0.40583 0.0
C60 C 0.80475 0.50889 0.37719 0.0
C61 C 0.83968 0.69728 0.37149 0.0
O62 O 0.8868 0.72229 0.3701 0.0
O63 O 0.84101 0.61023 0.42166 0.0
O64 O 0.86033 0.55454 0.43087 0.0
O65 O 0.90821 0.63241 0.3586 0.0
O66 O 0.92033 0.60516 0.38864 0.0
C67 C 0.84118 0.58037 0.43487 0.0
C68 C 0.9282 0.61215 0.36883 0.0
O69 O 0.82007 0.65537 0.37943 0.0
Mg70 Mg 0.25159 0.85054 0.71844 0.0
O71 O 0.27651 0.79801 0.70855 0.0
O72 O 0.3545 0.82909 0.71582 0.0
Mg73 Mg 0.37794 0.90087 0.73281 0.0
C74 C 0.31502 0.79568 0.70819 0.0
C75 C 0.16355 0.77179 0.6948 0.0
O76 O 0.19744 0.78473 0.68062 0.0
O77 O 0.24884 0.82787 0.75243 0.0
O78 O 0.32697 0.86155 0.76045 0.0
O79 O 0.27673 0.88637 0.68741 0.0
O80 O 0.32138 0.90767 0.71623 0.0
C81 C 0.28256 0.83704 0.76549 0.0
C82 C 0.31814 0.91206 0.69635 0.0
O83 O 0.17437 0.79194 0.71269 0.0
Mg84 Mg 0.73053 0.5847 0.62937 0.0
O85 O 0.70861 0.50595 0.63616 0.0
O86 O 0.63353 0.45816 0.62479 0.0
Mg87 Mg 0.60997 0.50645 0.6084 0.0
C88 C 0.67155 0.46425 0.63396 0.0
C89 C 0.81731 0.59726 0.65575 0.0
O90 O 0.78244 0.57452 0.66935 0.0
O91 O 0.74327 0.57589 0.59504 0.0
O92 O 0.66861 0.52698 0.58322 0.0
O93 O 0.69644 0.58587 0.65961 0.0
O94 O 0.65904 0.56671 0.62886 0.0
C95 C 0.71402 0.55185 0.58034 0.0
C96 C 0.65716 0.57012 0.64889 0.0
O97 O 0.80748 0.60667 0.63769 0.0
Mg98 Mg 0.17026 0.73594 0.9606 0.0
O99 O 0.22461 0.71293 0.97053 0.0
O100 O 0.19768 0.63802 0.95856 0.0
Mg101 Mg 0.12648 0.61303 0.94132 0.0
C102 C 0.22872 0.67542 0.96848 0.0
C103 C 0.2337 0.82653 0.98783 0.0
O104 O 0.21614 0.79322 0.00243 0.0
O105 O 0.19739 0.74626 0.9269 0.0
O106 O 0.16461 0.67006 0.91563 0.0
O107 O 0.12799 0.70395 0.99007 0.0
O108 O 0.11676 0.66463 0.96015 0.0
C109 C 0.18883 0.71549 0.91238 0.0
C110 C 0.10669 0.66394 0.97966 0.0
O111 O 0.223 0.81413 0.96879 0.0
Mg112 Mg 0.41834 0.1808 0.28443 0.0
O113 O 0.49328 0.23935 0.29575 0.0
O114 O 0.54605 0.22155 0.2813 0.0
Mg115 Mg 0.50616 0.15262 0.26176 0.0
C116 C 0.53638 0.24815 0.2929 0.0
C117 C 0.33852 0.2016 0.29304 0.0
O118 O 0.31778 0.16006 0.28311 0.0
O119 O 0.43239 0.21433 0.25186 0.0
O120 O 0.48028 0.18922 0.23818 0.0
O121 O 0.4111 0.13419 0.31186 0.0
O122 O 0.44344 0.13324 0.28136 0.0
C123 C 0.45544 0.21022 0.23644 0.0
C124 C 0.43352 0.11842 0.30038 0.0
O125 O 0.38377 0.22332 0.29571 0.0
Mg126 Mg 0.24383 0.39589 0.62765 0.0
O127 O 0.26944 0.47485 0.6354 0.0
O128 O 0.34463 0.52036 0.62381 0.0
Mg129 Mg 0.36556 0.46975 0.60723 0.0
C130 C 0.3075 0.51577 0.63326 0.0
C131 C 0.15703 0.38123 0.65462 0.0
O132 O 0.19127 0.39946 0.66882 0.0
O133 O 0.23249 0.4085 0.59356 0.0
O134 O 0.30789 0.45068 0.58159 0.0
O135 O 0.27643 0.39102 0.65777 0.0
O136 O 0.31427 0.41023 0.62721 0.0
C137 C 0.2624 0.4295 0.57871 0.0
C138 C 0.31564 0.40563 0.64718 0.0
O139 O 0.16744 0.37617 0.63594 0.0
Mg140 Mg 0.8155 0.25169 0.95723 0.0
O141 O 0.75772 0.27069 0.96716 0.0
O142 O 0.7793 0.34316 0.9536 0.0
Mg143 Mg 0.84821 0.36959 0.93481 0.0
C144 C 0.75093 0.30649 0.96454 0.0
C145 C 0.76174 0.16105 0.98605 0.0
O146 O 0.78243 0.19444 1.00053 0.0
O147 O 0.78602 0.23495 0.92394 0.0
O148 O 0.80804 0.30804 0.91102 0.0
O149 O 0.85886 0.28931 0.98574 0.0
O150 O 0.86473 0.32445 0.95515 0.0
C151 C 0.78791 0.26231 0.90899 0.0
C152 C 0.87635 0.32826 0.97465 0.0
O153 O 0.76751 0.17339 0.96688 0.0
Mg154 Mg 0.55924 0.82444 0.28179 0.0
O155 O 0.48867 0.7631 0.29496 0.0
O156 O 0.4286 0.76736 0.27909 0.0
Mg157 Mg 0.46085 0.83544 0.25876 0.0
C158 C 0.44392 0.74718 0.29177 0.0
C159 C 0.64449 0.81787 0.29799 0.0
O160 O 0.66283 0.86397 0.29385 0.0
O161 O 0.54609 0.78689 0.25003 0.0
O162 O 0.49211 0.80308 0.2357 0.0
O163 O 0.56348 0.87191 0.30816 0.0
O164 O 0.5262 0.86515 0.27805 0.0
C165 C 0.52078 0.78633 0.23446 0.0
C166 C 0.53656 0.88238 0.29678 0.0
O167 O 0.60038 0.78924 0.294 0.0
H168 H 0.24964 0.8662 0.02709 0.0
H169 H 0.37397 0.13744 0.98491 0.0
H170 H 0.27846 0.90454 0.96174 0.0
H171 H 0.31673 0.09558 0.04739 0.0
H172 H 0.35059 0.05372 0.9774 0.0
H173 H 0.28614 0.95168 0.03595 0.0
C174 C 0.2641 0.89258 0.01461 0.0
C175 C 0.26053 0.87815 0.99361 0.0
C176 C 0.34332 0.0629 0.99277 0.0
C177 C 0.30219 0.97597 0.00366 0.0
C178 C 0.35669 0.1107 0.99709 0.0
C179 C 0.34685 0.12346 0.01675 0.0
C180 C 0.32017 0.02758 0.00825 0.0
C181 C 0.32462 0.0873 0.03196 0.0
C182 C 0.28476 0.94136 0.01969 0.0
C183 C 0.28004 0.91398 0.97812 0.0
N184 N 0.31188 0.04095 0.02736 0.0
N185 N 0.2998 0.96122 0.98346 0.0
H186 H 0.10133 0.2328 0.33746 0.0
H187 H 0.36817 0.28057 0.3185 0.0
H188 H 0.22629 0.34243 0.37008 0.0
H189 H 0.24135 0.16367 0.28996 0.0
H190 H 0.31727 0.30599 0.33648 0.0
H191 H 0.15243 0.20801 0.31937 0.0
C192 C 0.13947 0.25148 0.34092 0.0
C193 C 0.15957 0.28978 0.35529 0.0
C194 C 0.30062 0.27485 0.32624 0.0
C195 C 0.21838 0.26188 0.33449 0.0
C196 C 0.32968 0.26046 0.31589 0.0
C197 C 0.30895 0.21985 0.30275 0.0
C198 C 0.25053 0.2485 0.32338 0.0
C199 C 0.25888 0.19511 0.29999 0.0
C200 C 0.16867 0.23739 0.33054 0.0
C201 C 0.20925 0.31267 0.35914 0.0
N202 N 0.23139 0.20977 0.31025 0.0
N203 N 0.23698 0.29849 0.34873 0.0
H204 H 0.84705 0.24087 0.6543 0.0
H205 H 0.11988 0.37038 0.69413 0.0
H206 H 0.88789 0.23295 0.71802 0.0
H207 H 0.07869 0.34912 0.62887 0.0
H208 H 0.03496 0.33202 0.70379 0.0
H209 H 0.93184 0.29238 0.64549 0.0
C210 C 0.8738 0.25022 0.66649 0.0
C211 C 0.8604 0.23216 0.68688 0.0
C212 C 0.04458 0.33607 0.68736 0.0
C213 C 0.95746 0.29115 0.67689 0.0
C214 C 0.09304 0.3581 0.68183 0.0
C215 C 0.10635 0.3625 0.66066 0.0
C216 C 0.00925 0.31862 0.67162 0.0
C217 C 0.07003 0.34605 0.64539 0.0
C218 C 0.9222 0.27956 0.66143 0.0
C219 C 0.89663 0.24571 0.70205 0.0
N220 N 0.02312 0.32463 0.65118 0.0
N221 N 0.94356 0.27424 0.69672 0.0
H222 H 0.67365 0.89106 0.04889 0.0
H223 H 0.71159 0.08302 0.9603 0.0
H224 H 0.61758 0.85186 0.98601 0.0
H225 H 0.75276 0.12135 0.02495 0.0
H226 H 0.67447 -0.00204 0.96972 0.0
H227 H 0.70067 0.97538 0.04076 0.0
C228 C 0.66683 0.90013 0.0334 0.0
C229 C 0.64362 0.86436 0.01805 0.0
C230 C 0.69131 0.02495 0.98188 0.0
C231 C 0.67459 0.96086 0.00863 0.0
C232 C 0.71255 0.07357 0.97651 0.0
C233 C 0.73565 0.10942 0.99183 0.0
C234 C 0.69344 0.012 0.00271 0.0
C235 C 0.73554 0.09497 0.0126 0.0
C236 C 0.6822 0.9483 0.02878 0.0
C237 C 0.63552 0.87822 0.9983 0.0
N238 N 0.71512 0.04739 0.0174 0.0
N239 N 0.65128 0.9254 0.99412 0.0
H240 H 0.74045 0.86899 0.30718 0.0
H241 H 0.74169 0.65043 0.36728 0.0
H242 H 0.61548 0.72718 0.31287 0.0
H243 H 0.87 0.78592 0.35412 0.0
H244 H 0.69391 0.67977 0.34946 0.0
H245 H 0.7878 0.84052 0.32594 0.0
C246 C 0.72298 0.8318 0.31231 0.0
C247 C 0.67393 0.8004 0.30845 0.0
C248 C 0.7325 0.70311 0.35052 0.0
C249 C 0.72787 0.76768 0.33007 0.0
C250 C 0.75979 0.68648 0.36077 0.0
C251 C 0.80995 0.71574 0.36213 0.0
C252 C 0.7555 0.74939 0.34162 0.0
C253 C 0.83146 0.76208 0.35339 0.0
C254 C 0.75005 0.81559 0.32304 0.0
C255 C 0.65322 0.75261 0.31547 0.0
N256 N 0.80411 0.77744 0.34347 0.0
N257 N 0.68028 0.73774 0.326 0.0
H258 H 0.85323 0.59944 0.69491 0.0
H259 H 0.12674 0.73267 0.65644 0.0
H260 H 0.89628 0.63453 0.63031 0.0
H261 H 0.08504 0.73317 0.7207 0.0
H262 H 0.04205 0.68259 0.64701 0.0
H263 H 0.93786 0.63457 0.70483 0.0
C264 C 0.88042 0.61413 0.68279 0.0
C265 C 0.86776 0.6146 0.66178 0.0
C266 C 0.05149 0.69341 0.66319 0.0
C267 C 0.9644 0.65458 0.67302 0.0
C268 C 0.09983 0.7219 0.66861 0.0
C269 C 0.11293 0.73764 0.68935 0.0
C270 C 0.01603 0.68034 0.67864 0.0
C271 C 0.0765 0.72229 0.70448 0.0
C272 C 0.92867 0.63426 0.68848 0.0
C273 C 0.90446 0.63392 0.64673 0.0
N274 N 0.02964 0.69468 0.6988 0.0
N275 N 0.95115 0.65332 0.65265 0.0
H276 H 0.67482 0.23258 0.98542 0.0
H277 H 0.57042 0.39941 0.02538 0.0
H278 H 0.73561 0.3827 0.9689 0.0
H279 H 0.48968 0.24385 0.02807 0.0
H280 H 0.63612 0.39477 0.00827 0.0
H281 H 0.61054 0.2367 0.00433 0.0
C282 C 0.67463 0.26632 0.98571 0.0
C283 C 0.7106 0.30727 0.97545 0.0
C284 C 0.60407 0.36167 0.01269 0.0
C285 C 0.6376 0.31235 0.99725 0.0
C286 C 0.56669 0.36431 0.02259 0.0
C287 C 0.52446 0.32197 0.02817 0.0
C288 C 0.59938 0.31641 0.00848 0.0
C289 C 0.52151 0.27744 0.02398 0.0
C290 C 0.63796 0.26864 0.9965 0.0
C291 C 0.70854 0.35007 0.97642 0.0
N292 N 0.55845 0.27583 0.01439 0.0
N293 N 0.67282 0.35151 0.98717 0.0
H294 H 0.20757 0.48013 0.3391 0.0
H295 H 0.45093 0.72843 0.33287 0.0
H296 H 0.24535 0.58612 0.38806 0.0
H297 H 0.35602 0.67407 0.27945 0.0
H298 H 0.38798 0.6647 0.35454 0.0
H299 H 0.27489 0.54012 0.31806 0.0
C300 C 0.23048 0.51583 0.34553 0.0
C301 C 0.22104 0.52838 0.36531 0.0
C302 C 0.38135 0.66666 0.33802 0.0
C303 C 0.29806 0.59632 0.34157 0.0
C304 C 0.41716 0.70258 0.32565 0.0
C305 C 0.40844 0.70632 0.30439 0.0
C306 C 0.33729 0.63359 0.32886 0.0
C307 C 0.36395 0.67238 0.29581 0.0
C308 C 0.26853 0.54992 0.33349 0.0
C309 C 0.25143 0.57522 0.37284 0.0
N310 N 0.33003 0.63709 0.30806 0.0
N311 N 0.28896 0.60755 0.361 0.0
H312 H 0.58494 0.19412 0.69665 0.0
H313 H 0.74808 0.45904 0.6502 0.0
H314 H 0.73979 0.2638 0.69305 0.0
H315 H 0.59476 0.37364 0.64012 0.0
H316 H 0.74597 0.39038 0.66802 0.0
H317 H 0.58807 0.26266 0.67845 0.0
C318 C 0.61965 0.22394 0.69217 0.0
C319 C 0.66218 0.22315 0.69644 0.0
C320 C 0.71287 0.38665 0.6618 0.0
C321 C 0.66593 0.30177 0.67549 0.0
C322 C 0.71401 0.42582 0.65162 0.0
C323 C 0.67152 0.42214 0.64359 0.0
C324 C 0.66886 0.34365 0.6642 0.0
C325 C 0.62845 0.37814 0.64594 0.0
C326 C 0.62136 0.26296 0.68165 0.0
C327 C 0.70607 0.26278 0.69008 0.0
N328 N 0.6282 0.34077 0.65613 0.0
N329 N 0.70681 0.30052 0.67998 0.0
H330 H 0.30907 0.75057 0.98639 0.0
H331 H 0.41367 0.58514 0.02775 0.0
H332 H 0.24155 0.59771 0.97405 0.0
H333 H 0.49606 0.74077 0.02686 0.0
H334 H 0.34677 0.58853 0.01108 0.0
H335 H 0.37497 0.74714 0.004 0.0
C336 C 0.3081 0.71631 0.98733 0.0
C337 C 0.26972 0.67439 0.97864 0.0
C338 C 0.37948 0.62191 0.01458 0.0
C339 C 0.34488 0.6702 0.99897 0.0
C340 C 0.4176 0.62002 0.02421 0.0
C341 C 0.46059 0.66273 0.02873 0.0
C342 C 0.38421 0.66681 0.00958 0.0
C343 C 0.46368 0.70689 0.02363 0.0
C344 C 0.34577 0.7144 0.99738 0.0
C345 C 0.27047 0.63101 0.98039 0.0
N346 N 0.42601 0.70777 0.01436 0.0
N347 N 0.30733 0.63002 0.99041 0.0
H348 H 0.62829 0.26557 0.29786 0.0
H349 H 0.7237 0.50898 0.36329 0.0
H350 H 0.53581 0.32251 0.31446 0.0
H351 H 0.79226 0.42226 0.36374 0.0
H352 H 0.65789 0.44655 0.34235 0.0
H353 H 0.69272 0.32917 0.31844 0.0
C354 C 0.62154 0.29164 0.3057 0.0
C355 C 0.57639 0.28854 0.30442 0.0
C356 C 0.68728 0.44121 0.34715 0.0
C357 C 0.65038 0.36163 0.32813 0.0
C358 C 0.72487 0.4768 0.35906 0.0
C359 C 0.76351 0.47078 0.36536 0.0
C360 C 0.68877 0.39974 0.34121 0.0
C361 C 0.7631 0.42834 0.3594 0.0
C362 C 0.65836 0.3278 0.31757 0.0
C363 C 0.56994 0.32337 0.31505 0.0
N364 N 0.72652 0.39465 0.34757 0.0
N365 N 0.60659 0.35858 0.32644 0.0
H366 H 0.38623 0.60574 0.63934 0.0
H367 H 0.23601 0.71178 0.69558 0.0
H368 H 0.23308 0.52327 0.65014 0.0
H369 H 0.39122 0.7843 0.69642 0.0
H370 H 0.23437 0.64466 0.67679 0.0
H371 H 0.38869 0.67408 0.65771 0.0
C372 C 0.35306 0.60206 0.64541 0.0
C373 C 0.30936 0.55859 0.64316 0.0
C374 C 0.26881 0.67515 0.68114 0.0
C375 C 0.31205 0.63667 0.66429 0.0
C376 C 0.26981 0.71357 0.69189 0.0
C377 C 0.31386 0.7538 0.69767 0.0
C378 C 0.31214 0.67692 0.67592 0.0
C379 C 0.35643 0.75394 0.69241 0.0
C380 C 0.35457 0.64103 0.65601 0.0
C381 C 0.26762 0.55594 0.65151 0.0
N382 N 0.35451 0.71617 0.68175 0.0
N383 N 0.27002 0.5944 0.66166 0.0
H384 H 0.39277 0.20691 0.10519 0.0
H385 H 0.42674 0.27552 0.22615 0.0
H386 H 0.42118 0.34676 0.12654 0.0
H387 H 0.46977 0.17955 0.1987 0.0
H388 H 0.41202 0.29566 0.19078 0.0
H389 H 0.40671 0.18848 0.14086 0.0
C390 C 0.40145 0.23353 0.11741 0.0
C391 C 0.40598 0.27848 0.11289 0.0
C392 C 0.42494 0.27041 0.1926 0.0
C393 C 0.42172 0.25755 0.15364 0.0
C394 C 0.43333 0.25892 0.21272 0.0
C395 C 0.44969 0.22596 0.21538 0.0
C396 C 0.43187 0.24788 0.17514 0.0
C397 C 0.45754 0.20543 0.19742 0.0
C398 C 0.40974 0.22313 0.1377 0.0
C399 C 0.41763 0.31177 0.12933 0.0
N400 N 0.44811 0.21636 0.17809 0.0
N401 N 0.42491 0.30057 0.14903 0.0
H402 H 0.10717 0.44448 0.47117 0.0
H403 H 0.30852 0.43963 0.54143 0.0
H404 H 0.20137 0.39651 0.44644 0.0
H405 H 0.17426 0.41616 0.56728 0.0
H406 H 0.27674 0.43582 0.50613 0.0
H407 H 0.13829 0.44606 0.50628 0.0
C408 C 0.1345 0.43437 0.47312 0.0
C409 C 0.15176 0.42036 0.45584 0.0
C410 C 0.25432 0.43143 0.51956 0.0
C411 C 0.18779 0.42261 0.49597 0.0
C412 C 0.27246 0.43391 0.53969 0.0
C413 C 0.24396 0.42822 0.55733 0.0
C414 C 0.20775 0.42422 0.51705 0.0
C415 C 0.19738 0.42055 0.55413 0.0
C416 C 0.15203 0.43506 0.49317 0.0
C417 C 0.18696 0.40732 0.45934 0.0
N418 N 0.18085 0.41916 0.53437 0.0
N419 N 0.20419 0.40919 0.47902 0.0
H420 H 0.74695 0.29252 0.8796 0.0
H421 H 0.76747 0.14329 0.78612 0.0
H422 H 0.78784 0.18494 0.89089 0.0
H423 H 0.64972 0.17198 0.78874 0.0
H424 H 0.78792 0.17129 0.82253 0.0
H425 H 0.72214 0.2607 0.84396 0.0
C426 C 0.75043 0.26205 0.87459 0.0
C427 C 0.76923 0.24112 0.88817 0.0
C428 C 0.75762 0.17134 0.81506 0.0
C429 C 0.74234 0.20573 0.84748 0.0
C430 C 0.74618 0.15578 0.79432 0.0
C431 C 0.70685 0.15533 0.78449 0.0
C432 C 0.73034 0.18776 0.82575 0.0
C433 C 0.68018 0.17155 0.79583 0.0
C434 C 0.73625 0.24397 0.85434 0.0
C435 C 0.77309 0.20177 0.88094 0.0
N436 N 0.69272 0.18763 0.81582 0.0
N437 N 0.76039 0.18571 0.86094 0.0
H438 H 0.56461 0.64187 0.12849 0.0
H439 H 0.50149 0.80998 0.1961 0.0
H440 H 0.58615 0.778 0.10548 0.0
H441 H 0.55694 0.7263 0.22559 0.0
H442 H 0.51857 0.78804 0.16185 0.0
H443 H 0.5497 0.66295 0.16359 0.0
C444 C 0.56639 0.67625 0.13084 0.0
C445 C 0.57668 0.70831 0.11407 0.0
C446 C 0.52689 0.77444 0.17583 0.0
C447 C 0.55874 0.73195 0.15392 0.0
C448 C 0.51679 0.78654 0.19539 0.0
C449 C 0.52781 0.76993 0.21376 0.0
C450 C 0.54731 0.74472 0.17455 0.0
C451 C 0.54802 0.74 0.21182 0.0
C452 C 0.55801 0.68821 0.15084 0.0
C453 C 0.57864 0.75239 0.11799 0.0
N454 N 0.55688 0.72806 0.19252 0.0
N455 N 0.56917 0.76267 0.13747 0.0
H456 H 0.67804 0.48239 0.54996 0.0
H457 H 0.83801 0.65096 0.45782 0.0
H458 H 0.79207 0.62772 0.56211 0.0
H459 H 0.7968 0.50042 0.45953 0.0
H460 H 0.80716 0.64389 0.49365 0.0
H461 H 0.70799 0.489 0.51404 0.0
C462 C 0.70937 0.51563 0.54506 0.0
C463 C 0.73282 0.55451 0.55899 0.0
C464 C 0.80483 0.61249 0.48607 0.0
C465 C 0.76622 0.56259 0.518 0.0
C466 C 0.82201 0.61637 0.46565 0.0
C467 C 0.81999 0.57622 0.4558 0.0
C468 C 0.7844 0.56789 0.49639 0.0
C469 C 0.79926 0.53228 0.46667 0.0
C470 C 0.72639 0.51929 0.52464 0.0
C471 C 0.77327 0.59678 0.55188 0.0
N472 N 0.78189 0.52915 0.48635 0.0
N473 N 0.78843 0.59993 0.53176 0.0
H474 H 0.15404 0.66476 0.876 0.0
H475 H 0.33902 0.87168 0.80049 0.0
H476 H 0.25941 0.80507 0.89939 0.0
H477 H 0.19788 0.76203 0.78007 0.0
H478 H 0.31765 0.84207 0.83646 0.0
H479 H 0.17749 0.69416 0.84024 0.0
C480 C 0.18241 0.70166 0.87364 0.0
C481 C 0.20479 0.73255 0.89074 0.0
C482 C 0.29143 0.82461 0.82408 0.0
C483 C 0.2318 0.76622 0.84981 0.0
C484 C 0.3036 0.84127 0.80355 0.0
C485 C 0.27012 0.81929 0.78725 0.0
C486 C 0.24581 0.78511 0.82827 0.0
C487 C 0.22469 0.78019 0.79216 0.0
C488 C 0.1955 0.71844 0.85321 0.0
C489 C 0.24109 0.78011 0.88668 0.0
N490 N 0.21397 0.76412 0.81222 0.0
N491 N 0.25366 0.79546 0.8666 0.0
H492 H 0.62559 0.57924 0.02191 0.0
H493 H 0.45044 0.35173 0.99355 0.0
H494 H 0.534 0.62922 0.99635 0.0
H495 H 0.36833 0.41074 0.02105 0.0
H496 H 0.51353 0.43373 0.9842 0.0
H497 H 0.56711 0.49708 0.01081 0.0
C498 C 0.59405 0.57306 0.01315 0.0
C499 C 0.58461 0.61071 0.00974 0.0
C500 C 0.48083 0.42837 0.99157 0.0
C501 C 0.51706 0.51725 0.99781 0.0
C502 C 0.44471 0.38176 0.99669 0.0
C503 C 0.40439 0.37491 0.00804 0.0
C504 C 0.47581 0.46781 0.9976 0.0
C505 C 0.399 0.41486 0.01226 0.0
C506 C 0.56078 0.52633 0.0068 0.0
C507 C 0.54269 0.60099 0.9989 0.0
N508 N 0.43462 0.45983 0.00718 0.0
N509 N 0.50951 0.55477 0.99394 0.0
H510 H 0.88566 0.53922 0.34065 0.0
H511 H 0.95508 0.37195 0.36235 0.0
H512 H 0.01837 0.6274 0.37384 0.0
H513 H 0.09994 0.48569 0.35059 0.0
H514 H 0.92558 0.42686 0.3528 0.0
H515 H 0.9145 0.48352 0.33105 0.0
C516 C 0.92161 0.54772 0.34517 0.0
C517 C 0.94998 0.58763 0.35796 0.0
C518 C 0.96364 0.43925 0.35146 0.0
C519 C 0.98251 0.52456 0.34745 0.0
C520 C 0.98036 0.40801 0.35698 0.0
C521 C 0.02976 0.4247 0.35715 0.0
C522 C -0.00307 0.4876 0.34675 0.0
C523 C 0.06152 0.47185 0.35061 0.0
C524 C 0.93772 0.5158 0.33992 0.0
C525 C -0.00425 0.5969 0.3639 0.0
N526 N 0.04467 0.50222 0.3462 0.0
N527 N 0.0106 0.56535 0.35867 0.0
H528 H 0.59054 0.96608 0.68906 0.0
H529 H 0.35143 0.87295 0.66785 0.0
H530 H 0.60943 0.105 0.67278 0.0
H531 H 0.38612 0.00631 0.69864 0.0
H532 H 0.4357 0.909 0.65654 0.0
H533 H 0.50574 0.92858 0.67893 0.0
C534 C 0.5771 0.98829 0.68248 0.0
C535 C 0.60651 0.03837 0.68153 0.0
C536 C 0.42436 0.93073 0.66519 0.0
C537 C 0.50995 -0.00355 0.67064 0.0
C538 C 0.37642 0.91047 0.67142 0.0
C539 C 0.36241 0.93701 0.68412 0.0
C540 C 0.4578 0.97775 0.67166 0.0
C541 C 0.39594 0.98498 0.68882 0.0
C542 C 0.52885 0.96699 0.67665 0.0
C543 C 0.58756 0.06611 0.67351 0.0
N544 N 0.44236 0.00382 0.68271 0.0
N545 N 0.53992 0.04491 0.66898 0.0
H546 H 0.60769 0.4808 0.66556 0.0
H547 H 0.36396 0.49029 0.66806 0.0
H548 H 0.59988 0.60918 0.65379 0.0
H549 H 0.37351 0.36666 0.64828 0.0
H550 H 0.44993 0.53189 0.67714 0.0
H551 H 0.52134 0.43732 0.67366 0.0
C552 C 0.58797 0.50012 0.66544 0.0
C553 C 0.61028 0.54835 0.6591 0.0
C554 C 0.43277 0.49511 0.67143 0.0
C555 C 0.51251 0.49937 0.66812 0.0
C556 C 0.38392 0.47139 0.66639 0.0
C557 C 0.36224 0.42519 0.65757 0.0
C558 C 0.45951 0.47205 0.6677 0.0
C559 C 0.38933 0.40227 0.65519 0.0
C560 C 0.5389 0.47538 0.66993 0.0
C561 C 0.58355 0.57195 0.65876 0.0
N562 N 0.43685 0.42611 0.6601 0.0
N563 N 0.53573 0.54706 0.66304 0.0
H564 H 0.01543 0.63264 0.99255 0.0
H565 H 0.95724 0.35943 0.99835 0.0
H566 H 0.12346 0.59075 0.98793 0.0
H567 H 0.86256 0.40501 0.97222 0.0
H568 H 0.01356 0.44356 0.0085 0.0
H569 H 0.95477 0.54826 0.99963 0.0
C570 C 0.02651 0.60584 0.99382 0.0
C571 C 0.07401 0.61799 0.98965 0.0
C572 C 0.97988 0.43475 1.00096 0.0
C573 C 0.00562 0.52239 0.99744 0.0
C574 C 0.94791 0.38702 0.99523 0.0
C575 C 0.906 0.37595 0.98411 0.0
C576 C 0.96898 0.47092 0.99587 0.0
C577 C 0.89514 0.41255 0.98037 0.0
C578 C -0.00795 0.55788 0.9977 0.0
C579 C 0.08691 0.58229 0.99107 0.0
N580 N 0.92664 0.45857 0.98612 0.0
N581 N 0.05271 0.53577 0.99464 0.0
H582 H 0.5857 0.96411 0.31986 0.0
H583 H 0.37618 0.02912 0.31636 0.0
H584 H 0.44713 0.87086 0.29189 0.0
H585 H 0.5238 0.13213 0.302 0.0
H586 H 0.39952 0.96756 0.32241 0.0
H587 H 0.5594 0.0224 0.32821 0.0
C588 C 0.54942 0.95552 0.31593 0.0
C589 C 0.5187 0.91338 0.30484 0.0
C590 C 0.42684 0.00406 0.31851 0.0
C591 C 0.48841 0.97859 0.31471 0.0
C592 C 0.41368 0.03901 0.31517 0.0
C593 C 0.44826 0.08519 0.30858 0.0
C594 C 0.47493 0.01615 0.31565 0.0
C595 C 0.49627 0.09658 0.30694 0.0
C596 C 0.53458 0.98863 0.32066 0.0
C597 C 0.47209 0.9036 0.30004 0.0
N598 N 0.50829 0.0621 0.31037 0.0
N599 N 0.45831 0.93619 0.30494 0.0
loop_
_geom_bond_atom_site_label_1
_geom_bond_atom_site_label_2
_geom_bond_distance
_geom_bond_site_symmetry_2
_ccdc_geom_bond_type
Mg0 O1 2.028 . S
Mg0 O7 1.986 . S
Mg0 O9 2.114 . S
Mg0 O10 2.251 . S
Mg0 O13 2.010 . S
O1 Mg0 2.028 . S
O1 C4 1.250 . S
O2 Mg3 2.028 . S
O2 C4 1.248 . S
Mg3 O2 2.028 . S
Mg3 O8 2.032 . S
Mg3 O10 2.079 . S
C4 O1 1.250 . S
C4 O2 1.248 . S
C5 O6 1.264 . S
C5 O13 1.249 . S
O6 C5 1.264 . S
O7 Mg0 1.986 . S
O7 C11 1.246 . S
O8 Mg3 2.032 . S
O8 C11 1.259 . S
O9 Mg0 2.114 . S
O9 C12 1.252 . S
O10 Mg0 2.251 . S
O10 Mg3 2.079 . S
O10 C12 1.273 . S
C11 O7 1.246 . S
C11 O8 1.259 . S
C12 O9 1.252 . S
C12 O10 1.273 . S
O13 Mg0 2.010 . S
O13 C5 1.249 . S
Mg14 O15 2.028 . S
Mg14 O21 1.986 . S
Mg14 O23 2.114 . S
Mg14 O24 2.251 . S
Mg14 O27 2.010 . S
O15 Mg14 2.028 . S
O15 C18 1.250 . S
O16 Mg17 2.028 . S
O16 C18 1.248 . S
Mg17 O16 2.028 . S
Mg17 O22 2.032 . S
Mg17 O24 2.079 . S
C18 O15 1.250 . S
C18 O16 1.248 . S
C19 O20 1.264 . S
C19 O27 1.249 . S
O20 C19 1.264 . S
O21 Mg14 1.986 . S
O21 C25 1.246 . S
O22 Mg17 2.032 . S
O22 C25 1.259 . S
O23 Mg14 2.114 . S
O23 C26 1.252 . S
O24 Mg14 2.251 . S
O24 Mg17 2.079 . S
O24 C26 1.273 . S
C25 O21 1.246 . S
C25 O22 1.259 . S
C26 O23 1.252 . S
C26 O24 1.273 . S
O27 Mg14 2.010 . S
O27 C19 1.249 . S
Mg28 O29 2.028 . S
Mg28 O35 1.986 . S
Mg28 O37 2.114 . S
Mg28 O38 2.251 . S
Mg28 O41 2.010 . S
O29 Mg28 2.028 . S
O29 C32 1.250 . S
O30 Mg31 2.028 . S
O30 C32 1.248 . S
Mg31 O30 2.028 . S
Mg31 O36 2.032 . S
Mg31 O38 2.079 . S
C32 O29 1.250 . S
C32 O30 1.248 . S
C33 O34 1.264 . S
C33 O41 1.249 . S
O34 C33 1.264 . S
O35 Mg28 1.986 . S
O35 C39 1.246 . S
O36 Mg31 2.032 . S
O36 C39 1.259 . S
O37 Mg28 2.114 . S
O37 C40 1.252 . S
O38 Mg28 2.251 . S
O38 Mg31 2.079 . S
O38 C40 1.273 . S
C39 O35 1.246 . S
C39 O36 1.259 . S
C40 O37 1.252 . S
C40 O38 1.273 . S
O41 Mg28 2.010 . S
O41 C33 1.249 . S
Mg42 O43 2.028 . S
Mg42 O49 1.986 . S
Mg42 O51 2.114 . S
Mg42 O52 2.251 . S
Mg42 O55 2.010 . S
O43 Mg42 2.028 . S
O43 C46 1.250 . S
O44 Mg45 2.028 . S
O44 C46 1.248 . S
Mg45 O44 2.028 . S
Mg45 O50 2.032 . S
Mg45 O52 2.079 . S
C46 O43 1.250 . S
C46 O44 1.248 . S
C47 O48 1.264 . S
C47 O55 1.249 . S
O48 C47 1.264 . S
O49 Mg42 1.986 . S
O49 C53 1.246 . S
O50 Mg45 2.032 . S
O50 C53 1.259 . S
O51 Mg42 2.114 . S
O51 C54 1.252 . S
O52 Mg42 2.251 . S
O52 Mg45 2.079 . S
O52 C54 1.273 . S
C53 O49 1.246 . S
C53 O50 1.259 . S
C54 O51 1.252 . S
C54 O52 1.273 . S
O55 Mg42 2.010 . S
O55 C47 1.249 . S
Mg56 O57 2.028 . S
Mg56 O63 1.986 . S
Mg56 O65 2.114 . S
Mg56 O66 2.251 . S
Mg56 O69 2.010 . S
O57 Mg56 2.028 . S
O57 C60 1.250 . S
O58 Mg59 2.028 . S
O58 C60 1.248 . S
Mg59 O58 2.028 . S
Mg59 O64 2.032 . S
Mg59 O66 2.079 . S
C60 O57 1.250 . S
C60 O58 1.248 . S
C61 O62 1.264 . S
C61 O69 1.249 . S
O62 C61 1.264 . S
O63 Mg56 1.986 . S
O63 C67 1.246 . S
O64 Mg59 2.032 . S
O64 C67 1.259 . S
O65 Mg56 2.114 . S
O65 C68 1.252 . S
O66 Mg56 2.251 . S
O66 Mg59 2.079 . S
O66 C68 1.273 . S
C67 O63 1.246 . S
C67 O64 1.259 . S
C68 O65 1.252 . S
C68 O66 1.273 . S
O69 Mg56 2.010 . S
O69 C61 1.249 . S
Mg70 O71 2.028 . S
Mg70 O77 1.986 . S
Mg70 O79 2.114 . S
Mg70 O80 2.251 . S
Mg70 O83 2.010 . S
O71 Mg70 2.028 . S
O71 C74 1.250 . S
O72 Mg73 2.028 . S
O72 C74 1.248 . S
Mg73 O72 2.028 . S
Mg73 O78 2.032 . S
Mg73 O80 2.079 . S
C74 O71 1.250 . S
C74 O72 1.248 . S
C75 O76 1.264 . S
C75 O83 1.249 . S
O76 C75 1.264 . S
O77 Mg70 1.986 . S
O77 C81 1.246 . S
O78 Mg73 2.032 . S
O78 C81 1.259 . S
O79 Mg70 2.114 . S
O79 C82 1.252 . S
O80 Mg70 2.251 . S
O80 Mg73 2.079 . S
O80 C82 1.273 . S
C81 O77 1.246 . S
C81 O78 1.259 . S
C82 O79 1.252 . S
C82 O80 1.273 . S
O83 Mg70 2.010 . S
O83 C75 1.249 . S
Mg84 O85 2.028 . S
Mg84 O91 1.986 . S
Mg84 O93 2.114 . S
Mg84 O94 2.251 . S
Mg84 O97 2.010 . S
O85 Mg84 2.028 . S
O85 C88 1.250 . S
O86 Mg87 2.028 . S
O86 C88 1.248 . S
Mg87 O86 2.028 . S
Mg87 O92 2.032 . S
Mg87 O94 2.079 . S
C88 O85 1.250 . S
C88 O86 1.248 . S
C89 O90 1.264 . S
C89 O97 1.249 . S
O90 C89 1.264 . S
O91 Mg84 1.986 . S
O91 C95 1.246 . S
O92 Mg87 2.032 . S
O92 C95 1.259 . S
O93 Mg84 2.114 . S
O93 C96 1.252 . S
O94 Mg84 2.251 . S
O94 Mg87 2.079 . S
O94 C96 1.273 . S
C95 O91 1.246 . S
C95 O92 1.259 . S
C96 O93 1.252 . S
C96 O94 1.273 . S
O97 Mg84 2.010 . S
O97 C89 1.249 . S
Mg98 O99 2.028 . S
Mg98 O105 1.986 . S
Mg98 O107 2.114 . S
Mg98 O108 2.251 . S
Mg98 O111 2.010 . S
O99 Mg98 2.028 . S
O99 C102 1.250 . S
O100 Mg101 2.028 . S
O100 C102 1.248 . S
Mg101 O100 2.028 . S
Mg101 O106 2.032 . S
Mg101 O108 2.079 . S
C102 O99 1.250 . S
C102 O100 1.248 . S
C103 O104 1.264 . S
C103 O111 1.249 . S
O104 C103 1.264 . S
O105 Mg98 1.986 . S
O105 C109 1.246 . S
O106 Mg101 2.032 . S
O106 C109 1.259 . S
O107 Mg98 2.114 . S
O107 C110 1.252 . S
O108 Mg98 2.251 . S
O108 Mg101 2.079 . S
O108 C110 1.273 . S
C109 O105 1.246 . S
C109 O106 1.259 . S
C110 O107 1.252 . S
C110 O108 1.273 . S
O111 Mg98 2.010 . S
O111 C103 1.249 . S
Mg112 O113 2.028 . S
Mg112 O119 1.986 . S
Mg112 O121 2.114 . S
Mg112 O122 2.251 . S
Mg112 O125 2.010 . S
O113 Mg112 2.028 . S
O113 C116 1.250 . S
O114 Mg115 2.028 . S
O114 C116 1.248 . S
Mg115 O114 2.028 . S
Mg115 O120 2.032 . S
Mg115 O122 2.079 . S
C116 O113 1.250 . S
C116 O114 1.248 . S
C117 O118 1.264 . S
C117 O125 1.249 . S
O118 C117 1.264 . S
O119 Mg112 1.986 . S
O119 C123 1.246 . S
O120 Mg115 2.032 . S
O120 C123 1.259 . S
O121 Mg112 2.114 . S
O121 C124 1.252 . S
O122 Mg112 2.251 . S
O122 Mg115 2.079 . S
O122 C124 1.273 . S
C123 O119 1.246 . S
C123 O120 1.259 . S
C124 O121 1.252 . S
C124 O122 1.273 . S
O125 Mg112 2.010 . S
O125 C117 1.249 . S
Mg126 O127 2.028 . S
Mg126 O133 1.986 . S
Mg126 O135 2.114 . S
Mg126 O136 2.251 . S
Mg126 O139 2.010 . S
O127 Mg126 2.028 . S
O127 C130 1.250 . S
O128 Mg129 2.028 . S
O128 C130 1.248 . S
Mg129 O128 2.028 . S
Mg129 O134 2.032 . S
Mg129 O136 2.079 . S
C130 O127 1.250 . S
C130 O128 1.248 . S
C131 O132 1.264 . S
C131 O139 1.249 . S
O132 C131 1.264 . S
O133 Mg126 1.986 . S
O133 C137 1.246 . S
O134 Mg129 2.032 . S
O134 C137 1.259 . S
O135 Mg126 2.114 . S
O135 C138 1.252 . S
O136 Mg126 2.251 . S
O136 Mg129 2.079 . S
O136 C138 1.273 . S
C137 O133 1.246 . S
C137 O134 1.259 . S
C138 O135 1.252 . S
C138 O136 1.273 . S
O139 Mg126 2.010 . S
O139 C131 1.249 . S
Mg140 O141 2.028 . S
Mg140 O147 1.986 . S
Mg140 O149 2.114 . S
Mg140 O150 2.251 . S
Mg140 O153 2.010 . S
O141 Mg140 2.028 . S
O141 C144 1.250 . S
O142 Mg143 2.028 . S
O142 C144 1.248 . S
Mg143 O142 2.028 . S
Mg143 O148 2.032 . S
Mg143 O150 2.079 . S
C144 O141 1.250 . S
C144 O142 1.248 . S
C145 O146 1.264 . S
C145 O153 1.249 . S
O146 C145 1.264 . S
O147 Mg140 1.986 . S
O147 C151 1.246 . S
O148 Mg143 2.032 . S
O148 C151 1.259 . S
O149 Mg140 2.114 . S
O149 C152 1.252 . S
O150 Mg140 2.251 . S
O150 Mg143 2.079 . S
O150 C152 1.273 . S
C151 O147 1.246 . S
C151 O148 1.259 . S
C152 O149 1.252 . S
C152 O150 1.273 . S
O153 Mg140 2.010 . S
O153 C145 1.249 . S
Mg154 O155 2.028 . S
Mg154 O161 1.986 . S
Mg154 O163 2.114 . S
Mg154 O164 2.251 . S
Mg154 O167 2.010 . S
O155 Mg154 2.028 . S
O155 C158 1.250 . S
O156 Mg157 2.028 . S
O156 C158 1.248 . S
Mg157 O156 2.028 . S
Mg157 O162 2.032 . S
Mg157 O164 2.079 . S
C158 O155 1.250 . S
C158 O156 1.248 . S
C159 O160 1.264 . S
C159 O167 1.249 . S
O160 C159 1.264 . S
O161 Mg154 1.986 . S
O161 C165 1.246 . S
O162 Mg157 2.032 . S
O162 C165 1.259 . S
O163 Mg154 2.114 . S
O163 C166 1.252 . S
O164 Mg154 2.251 . S
O164 Mg157 2.079 . S
O164 C166 1.273 . S
C165 O161 1.246 . S
C165 O162 1.259 . S
C166 O163 1.252 . S
C166 O164 1.273 . S
O167 Mg154 2.010 . S
O167 C159 1.249 . S
H168 C174 0.930 . S
H169 C178 0.930 . S
H170 C183 0.929 . S
H171 C181 0.929 . S
H172 C176 0.929 . S
H173 C182 0.929 . S
C174 H168 0.930 . S
C174 C175 1.367 1_554 S
C174 C182 1.378 . S
C175 C174 1.367 1_556 S
C175 C183 1.433 . S
C176 H172 0.929 . S
C176 C178 1.378 . S
C176 C180 1.350 1_556 S
C177 C180 1.463 1_566 S
C177 C182 1.350 1_556 S
C177 N185 1.427 . S
C178 H169 0.930 . S
C178 C176 1.378 . S
C178 C179 1.367 1_556 S
C179 C178 1.367 1_554 S
C179 C181 1.433 . S
C180 C176 1.350 1_554 S
C180 C177 1.463 1_544 S
C180 N184 1.427 . S
C181 H171 0.929 . S
C181 C179 1.433 . S
C181 N184 1.384 . S
C182 H173 0.929 . S
C182 C174 1.378 . S
C182 C177 1.350 1_554 S
C183 H170 0.929 . S
C183 C175 1.433 . S
C183 N185 1.384 . S
N184 C180 1.427 . S
N184 C181 1.384 . S
N185 C177 1.427 . S
N185 C183 1.384 . S
H186 C192 0.930 . S
H187 C196 0.930 . S
H188 C201 0.929 . S
H189 C199 0.929 . S
H190 C194 0.929 . S
H191 C200 0.929 . S
C192 H186 0.930 . S
C192 C193 1.367 . S
C192 C200 1.378 . S
C193 C192 1.367 . S
C193 C201 1.433 . S
C194 H190 0.929 . S
C194 C196 1.378 . S
C194 C198 1.350 . S
C195 C198 1.463 . S
C195 C200 1.350 . S
C195 N203 1.427 . S
C196 H187 0.930 . S
C196 C194 1.378 . S
C196 C197 1.367 . S
C197 C196 1.367 . S
C197 C199 1.433 . S
C198 C194 1.350 . S
C198 C195 1.463 . S
C198 N202 1.427 . S
C199 H189 0.929 . S
C199 C197 1.433 . S
C199 N202 1.384 . S
C200 H191 0.929 . S
C200 C192 1.378 . S
C200 C195 1.350 . S
C201 H188 0.929 . S
C201 C193 1.433 . S
C201 N203 1.384 . S
N202 C198 1.427 . S
N202 C199 1.384 . S
N203 C195 1.427 . S
N203 C201 1.384 . S
H204 C210 0.930 . S
H205 C214 0.930 . S
H206 C219 0.929 . S
H207 C217 0.929 . S
H208 C212 0.929 . S
H209 C218 0.929 . S
C210 H204 0.930 . S
C210 C211 1.367 . S
C210 C218 1.378 . S
C211 C210 1.367 . S
C211 C219 1.433 . S
C212 H208 0.929 . S
C212 C214 1.378 . S
C212 C216 1.350 . S
C213 C216 1.463 1_655 S
C213 C218 1.350 . S
C213 N221 1.427 . S
C214 H205 0.930 . S
C214 C212 1.378 . S
C214 C215 1.367 . S
C215 C214 1.367 . S
C215 C217 1.433 . S
C216 C212 1.350 . S
C216 C213 1.463 1_455 S
C216 N220 1.427 . S
C217 H207 0.929 . S
C217 C215 1.433 . S
C217 N220 1.384 . S
C218 H209 0.929 . S
C218 C210 1.378 . S
C218 C213 1.350 . S
C219 H206 0.929 . S
C219 C211 1.433 . S
C219 N221 1.384 . S
N220 C216 1.427 . S
N220 C217 1.384 . S
N221 C213 1.427 . S
N221 C219 1.384 . S
H222 C228 0.930 . S
H223 C232 0.930 . S
H224 C237 0.929 . S
H225 C235 0.929 . S
H226 C230 0.929 . S
H227 C236 0.929 . S
C228 H222 0.930 . S
C228 C229 1.367 . S
C228 C236 1.378 . S
C229 C228 1.367 . S
C229 C237 1.433 1_554 S
C230 H226 0.929 . S
C230 C232 1.378 . S
C230 C234 1.350 . S
C231 C234 1.463 1_564 S
C231 C236 1.350 . S
C231 N239 1.427 1_554 S
C232 H223 0.930 . S
C232 C230 1.378 . S
C232 C233 1.367 . S
C233 C232 1.367 . S
C233 C235 1.433 1_556 S
C234 C230 1.350 . S
C234 C231 1.463 1_546 S
C234 N238 1.427 1_556 S
C235 H225 0.929 . S
C235 C233 1.433 1_554 S
C235 N238 1.384 . S
C236 H227 0.929 . S
C236 C228 1.378 . S
C236 C231 1.350 . S
C237 H224 0.929 . S
C237 C229 1.433 1_556 S
C237 N239 1.384 . S
N238 C234 1.427 1_554 S
N238 C235 1.384 . S
N239 C231 1.427 1_556 S
N239 C237 1.384 . S
H240 C246 0.930 . S
H241 C250 0.930 . S
H242 C255 0.929 . S
H243 C253 0.929 . S
H244 C248 0.929 . S
H245 C254 0.929 . S
C246 H240 0.930 . S
C246 C247 1.367 . S
C246 C254 1.378 . S
C247 C246 1.367 . S
C247 C255 1.433 . S
C248 H244 0.929 . S
C248 C250 1.378 . S
C248 C252 1.350 . S
C249 C252 1.463 . S
C249 C254 1.350 . S
C249 N257 1.427 . S
C250 H241 0.930 . S
C250 C248 1.378 . S
C250 C251 1.367 . S
C251 C250 1.367 . S
C251 C253 1.433 . S
C252 C248 1.350 . S
C252 C249 1.463 . S
C252 N256 1.427 . S
C253 H243 0.929 . S
C253 C251 1.433 . S
C253 N256 1.384 . S
C254 H245 0.929 . S
C254 C246 1.378 . S
C254 C249 1.350 . S
C255 H242 0.929 . S
C255 C247 1.433 . S
C255 N257 1.384 . S
N256 C252 1.427 . S
N256 C253 1.384 . S
N257 C249 1.427 . S
N257 C255 1.384 . S
H258 C264 0.930 . S
H259 C268 0.930 . S
H260 C273 0.929 . S
H261 C271 0.929 . S
H262 C266 0.929 . S
H263 C272 0.929 . S
C264 H258 0.930 . S
C264 C265 1.367 . S
C264 C272 1.378 . S
C265 C264 1.367 . S
C265 C273 1.433 . S
C266 H262 0.929 . S
C266 C268 1.378 . S
C266 C270 1.350 . S
C267 C270 1.463 1_655 S
C267 C272 1.350 . S
C267 N275 1.427 . S
C268 H259 0.930 . S
C268 C266 1.378 . S
C268 C269 1.367 . S
C269 C268 1.367 . S
C269 C271 1.433 . S
C270 C266 1.350 . S
C270 C267 1.463 1_455 S
C270 N274 1.427 . S
C271 H261 0.929 . S
C271 C269 1.433 . S
C271 N274 1.384 . S
C272 H263 0.929 . S
C272 C264 1.378 . S
C272 C267 1.350 . S
C273 H260 0.929 . S
C273 C265 1.433 . S
C273 N275 1.384 . S
N274 C270 1.427 . S
N274 C271 1.384 . S
N275 C267 1.427 . S
N275 C273 1.384 . S
H276 C282 0.930 . S
H277 C286 0.930 . S
H278 C291 0.929 . S
H279 C289 0.929 . S
H280 C284 0.929 . S
H281 C290 0.929 . S
C282 H276 0.930 . S
C282 C283 1.367 . S
C282 C290 1.378 . S
C283 C282 1.367 . S
C283 C291 1.433 . S
C284 H280 0.929 . S
C284 C286 1.378 . S
C284 C288 1.350 . S
C285 C288 1.463 1_556 S
C285 C290 1.350 . S
C285 N293 1.427 . S
C286 H277 0.930 . S
C286 C284 1.378 . S
C286 C287 1.367 . S
C287 C286 1.367 . S
C287 C289 1.433 . S
C288 C284 1.350 . S
C288 C285 1.463 1_554 S
C288 N292 1.427 . S
C289 H279 0.929 . S
C289 C287 1.433 . S
C289 N292 1.384 . S
C290 H281 0.929 . S
C290 C282 1.378 . S
C290 C285 1.350 . S
C291 H278 0.929 . S
C291 C283 1.433 . S
C291 N293 1.384 . S
N292 C288 1.427 . S
N292 C289 1.384 . S
N293 C285 1.427 . S
N293 C291 1.384 . S
H294 C300 0.930 . S
H295 C304 0.930 . S
H296 C309 0.929 . S
H297 C307 0.929 . S
H298 C302 0.929 . S
H299 C308 0.929 . S
C300 H294 0.930 . S
C300 C301 1.367 . S
C300 C308 1.378 . S
C301 C300 1.367 . S
C301 C309 1.433 . S
C302 H298 0.929 . S
C302 C304 1.378 . S
C302 C306 1.350 . S
C303 C306 1.463 . S
C303 C308 1.350 . S
C303 N311 1.427 . S
C304 H295 0.930 . S
C304 C302 1.378 . S
C304 C305 1.367 . S
C305 C304 1.367 . S
C305 C307 1.433 . S
C306 C302 1.350 . S
C306 C303 1.463 . S
C306 N310 1.427 . S
C307 H297 0.929 . S
C307 C305 1.433 . S
C307 N310 1.384 . S
C308 H299 0.929 . S
C308 C300 1.378 . S
C308 C303 1.350 . S
C309 H296 0.929 . S
C309 C301 1.433 . S
C309 N311 1.384 . S
N310 C306 1.427 . S
N310 C307 1.384 . S
N311 C303 1.427 . S
N311 C309 1.384 . S
H312 C318 0.930 . S
H313 C322 0.930 . S
H314 C327 0.929 . S
H315 C325 0.929 . S
H316 C320 0.929 . S
H317 C326 0.929 . S
C318 H312 0.930 . S
C318 C319 1.367 . S
C318 C326 1.378 . S
C319 C318 1.367 . S
C319 C327 1.433 . S
C320 H316 0.929 . S
C320 C322 1.378 . S
C320 C324 1.350 . S
C321 C324 1.463 . S
C321 C326 1.350 . S
C321 N329 1.427 . S
C322 H313 0.930 . S
C322 C320 1.378 . S
C322 C323 1.367 . S
C323 C322 1.367 . S
C323 C325 1.433 . S
C324 C320 1.350 . S
C324 C321 1.463 . S
C324 N328 1.427 . S
C325 H315 0.929 . S
C325 C323 1.433 . S
C325 N328 1.384 . S
C326 H317 0.929 . S
C326 C318 1.378 . S
C326 C321 1.350 . S
C327 H314 0.929 . S
C327 C319 1.433 . S
C327 N329 1.384 . S
N328 C324 1.427 . S
N328 C325 1.384 . S
N329 C321 1.427 . S
N329 C327 1.384 . S
H330 C336 0.930 . S
H331 C340 0.930 . S
H332 C345 0.929 . S
H333 C343 0.929 . S
H334 C338 0.929 . S
H335 C344 0.929 . S
C336 H330 0.930 . S
C336 C337 1.367 . S
C336 C344 1.378 . S
C337 C336 1.367 . S
C337 C345 1.433 . S
C338 H334 0.929 . S
C338 C340 1.378 . S
C338 C342 1.350 . S
C339 C342 1.463 1_556 S
C339 C344 1.350 . S
C339 N347 1.427 . S
C340 H331 0.930 . S
C340 C338 1.378 . S
C340 C341 1.367 . S
C341 C340 1.367 . S
C341 C343 1.433 . S
C342 C338 1.350 . S
C342 C339 1.463 1_554 S
C342 N346 1.427 . S
C343 H333 0.929 . S
C343 C341 1.433 . S
C343 N346 1.384 . S
C344 H335 0.929 . S
C344 C336 1.378 . S
C344 C339 1.350 . S
C345 H332 0.929 . S
C345 C337 1.433 . S
C345 N347 1.384 . S
N346 C342 1.427 . S
N346 C343 1.384 . S
N347 C339 1.427 . S
N347 C345 1.384 . S
H348 C354 0.930 . S
H349 C358 0.930 . S
H350 C363 0.929 . S
H351 C361 0.929 . S
H352 C356 0.929 . S
H353 C362 0.929 . S
C354 H348 0.930 . S
C354 C355 1.367 . S
C354 C362 1.378 . S
C355 C354 1.367 . S
C355 C363 1.433 . S
C356 H352 0.929 . S
C356 C358 1.378 . S
C356 C360 1.350 . S
C357 C360 1.463 . S
C357 C362 1.350 . S
C357 N365 1.427 . S
C358 H349 0.930 . S
C358 C356 1.378 . S
C358 C359 1.367 . S
C359 C358 1.367 . S
C359 C361 1.433 . S
C360 C356 1.350 . S
C360 C357 1.463 . S
C360 N364 1.427 . S
C361 H351 0.929 . S
C361 C359 1.433 . S
C361 N364 1.384 . S
C362 H353 0.929 . S
C362 C354 1.378 . S
C362 C357 1.350 . S
C363 H350 0.929 . S
C363 C355 1.433 . S
C363 N365 1.384 . S
N364 C360 1.427 . S
N364 C361 1.384 . S
N365 C357 1.427 . S
N365 C363 1.384 . S
H366 C372 0.930 . S
H367 C376 0.930 . S
H368 C381 0.929 . S
H369 C379 0.929 . S
H370 C374 0.929 . S
H371 C380 0.929 . S
C372 H366 0.930 . S
C372 C373 1.367 . S
C372 C380 1.378 . S
C373 C372 1.367 . S
C373 C381 1.433 . S
C374 H370 0.929 . S
C374 C376 1.378 . S
C374 C378 1.350 . S
C375 C378 1.463 . S
C375 C380 1.350 . S
C375 N383 1.427 . S
C376 H367 0.930 . S
C376 C374 1.378 . S
C376 C377 1.367 . S
C377 C376 1.367 . S
C377 C379 1.433 . S
C378 C374 1.350 . S
C378 C375 1.463 . S
C378 N382 1.427 . S
C379 H369 0.929 . S
C379 C377 1.433 . S
C379 N382 1.384 . S
C380 H371 0.929 . S
C380 C372 1.378 . S
C380 C375 1.350 . S
C381 H368 0.929 . S
C381 C373 1.433 . S
C381 N383 1.384 . S
N382 C378 1.427 . S
N382 C379 1.384 . S
N383 C375 1.427 . S
N383 C381 1.384 . S
H384 C390 0.930 . S
H385 C394 0.930 . S
H386 C399 0.929 . S
H387 C397 0.929 . S
H388 C392 0.929 . S
H389 C398 0.929 . S
C390 H384 0.930 . S
C390 C391 1.367 . S
C390 C398 1.378 . S
C391 C390 1.367 . S
C391 C399 1.433 . S
C392 H388 0.929 . S
C392 C394 1.378 . S
C392 C396 1.350 . S
C393 C396 1.463 . S
C393 C398 1.350 . S
C393 N401 1.427 . S
C394 H385 0.930 . S
C394 C392 1.378 . S
C394 C395 1.367 . S
C395 C394 1.367 . S
C395 C397 1.433 . S
C396 C392 1.350 . S
C396 C393 1.463 . S
C396 N400 1.427 . S
C397 H387 0.929 . S
C397 C395 1.433 . S
C397 N400 1.384 . S
C398 H389 0.929 . S
C398 C390 1.378 . S
C398 C393 1.350 . S
C399 H386 0.929 . S
C399 C391 1.433 . S
C399 N401 1.384 . S
N400 C396 1.427 . S
N400 C397 1.384 . S
N401 C393 1.427 . S
N401 C399 1.384 . S
H402 C408 0.930 . S
H403 C412 0.930 . S
H404 C417 0.929 . S
H405 C415 0.929 . S
H406 C410 0.929 . S
H407 C416 0.929 . S
C408 H402 0.930 . S
C408 C409 1.367 . S
C408 C416 1.378 . S
C409 C408 1.367 . S
C409 C417 1.433 . S
C410 H406 0.929 . S
C410 C412 1.378 . S
C410 C414 1.350 . S
C411 C414 1.463 . S
C411 C416 1.350 . S
C411 N419 1.427 . S
C412 H403 0.930 . S
C412 C410 1.378 . S
C412 C413 1.367 . S
C413 C412 1.367 . S
C413 C415 1.433 . S
C414 C410 1.350 . S
C414 C411 1.463 . S
C414 N418 1.427 . S
C415 H405 0.929 . S
C415 C413 1.433 . S
C415 N418 1.384 . S
C416 H407 0.929 . S
C416 C408 1.378 . S
C416 C411 1.350 . S
C417 H404 0.929 . S
C417 C409 1.433 . S
C417 N419 1.384 . S
N418 C414 1.427 . S
N418 C415 1.384 . S
N419 C411 1.427 . S
N419 C417 1.384 . S
H420 C426 0.930 . S
H421 C430 0.930 . S
H422 C435 0.929 . S
H423 C433 0.929 . S
H424 C428 0.929 . S
H425 C434 0.929 . S
C426 H420 0.930 . S
C426 C427 1.367 . S
C426 C434 1.378 . S
C427 C426 1.367 . S
C427 C435 1.433 . S
C428 H424 0.929 . S
C428 C430 1.378 . S
C428 C432 1.350 . S
C429 C432 1.463 . S
C429 C434 1.350 . S
C429 N437 1.427 . S
C430 H421 0.930 . S
C430 C428 1.378 . S
C430 C431 1.367 . S
C431 C430 1.367 . S
C431 C433 1.433 . S
C432 C428 1.350 . S
C432 C429 1.463 . S
C432 N436 1.427 . S
C433 H423 0.929 . S
C433 C431 1.433 . S
C433 N436 1.384 . S
C434 H425 0.929 . S
C434 C426 1.378 . S
C434 C429 1.350 . S
C435 H422 0.929 . S
C435 C427 1.433 . S
C435 N437 1.384 . S
N436 C432 1.427 . S
N436 C433 1.384 . S
N437 C429 1.427 . S
N437 C435 1.384 . S
H438 C444 0.930 . S
H439 C448 0.930 . S
H440 C453 0.929 . S
H441 C451 0.929 . S
H442 C446 0.929 . S
H443 C452 0.929 . S
C444 H438 0.930 . S
C444 C445 1.367 . S
C444 C452 1.378 . S
C445 C444 1.367 . S
C445 C453 1.433 . S
C446 H442 0.929 . S
C446 C448 1.378 . S
C446 C450 1.350 . S
C447 C450 1.463 . S
C447 C452 1.350 . S
C447 N455 1.427 . S
C448 H439 0.930 . S
C448 C446 1.378 . S
C448 C449 1.367 . S
C449 C448 1.367 . S
C449 C451 1.433 . S
C450 C446 1.350 . S
C450 C447 1.463 . S
C450 N454 1.427 . S
C451 H441 0.929 . S
C451 C449 1.433 . S
C451 N454 1.384 . S
C452 H443 0.929 . S
C452 C444 1.378 . S
C452 C447 1.350 . S
C453 H440 0.929 . S
C453 C445 1.433 . S
C453 N455 1.384 . S
N454 C450 1.427 . S
N454 C451 1.384 . S
N455 C447 1.427 . S
N455 C453 1.384 . S
H456 C462 0.930 . S
H457 C466 0.930 . S
H458 C471 0.929 . S
H459 C469 0.929 . S
H460 C464 0.929 . S
H461 C470 0.929 . S
C462 H456 0.930 . S
C462 C463 1.367 . S
C462 C470 1.378 . S
C463 C462 1.367 . S
C463 C471 1.433 . S
C464 H460 0.929 . S
C464 C466 1.378 . S
C464 C468 1.350 . S
C465 C468 1.463 . S
C465 C470 1.350 . S
C465 N473 1.427 . S
C466 H457 0.930 . S
C466 C464 1.378 . S
C466 C467 1.367 . S
C467 C466 1.367 . S
C467 C469 1.433 . S
C468 C464 1.350 . S
C468 C465 1.463 . S
C468 N472 1.427 . S
C469 H459 0.929 . S
C469 C467 1.433 . S
C469 N472 1.384 . S
C470 H461 0.929 . S
C470 C462 1.378 . S
C470 C465 1.350 . S
C471 H458 0.929 . S
C471 C463 1.433 . S
C471 N473 1.384 . S
N472 C468 1.427 . S
N472 C469 1.384 . S
N473 C465 1.427 . S
N473 C471 1.384 . S
H474 C480 0.930 . S
H475 C484 0.930 . S
H476 C489 0.929 . S
H477 C487 0.929 . S
H478 C482 0.929 . S
H479 C488 0.929 . S
C480 H474 0.930 . S
C480 C481 1.367 . S
C480 C488 1.378 . S
C481 C480 1.367 . S
C481 C489 1.433 . S
C482 H478 0.929 . S
C482 C484 1.378 . S
C482 C486 1.350 . S
C483 C486 1.463 . S
C483 C488 1.350 . S
C483 N491 1.427 . S
C484 H475 0.930 . S
C484 C482 1.378 . S
C484 C485 1.367 . S
C485 C484 1.367 . S
C485 C487 1.433 . S
C486 C482 1.350 . S
C486 C483 1.463 . S
C486 N490 1.427 . S
C487 H477 0.929 . S
C487 C485 1.433 . S
C487 N490 1.384 . S
C488 H479 0.929 . S
C488 C480 1.378 . S
C488 C483 1.350 . S
C489 H476 0.929 . S
C489 C481 1.433 . S
C489 N491 1.384 . S
N490 C486 1.427 . S
N490 C487 1.384 . S
N491 C483 1.427 . S
N491 C489 1.384 . S
H492 C498 0.930 . S
H493 C502 0.930 . S
H494 C507 0.929 . S
H495 C505 0.929 . S
H496 C500 0.929 . S
H497 C506 0.929 . S
C498 H492 0.930 . S
C498 C499 1.367 . S
C498 C506 1.378 . S
C499 C498 1.367 . S
C499 C507 1.433 . S
C500 H496 0.929 . S
C500 C502 1.378 . S
C500 C504 1.350 . S
C501 C504 1.463 . S
C501 C506 1.350 . S
C501 N509 1.427 . S
C502 H493 0.930 . S
C502 C500 1.378 . S
C502 C503 1.367 . S
C503 C502 1.367 . S
C503 C505 1.433 . S
C504 C500 1.350 . S
C504 C501 1.463 . S
C504 N508 1.427 . S
C505 H495 0.929 . S
C505 C503 1.433 . S
C505 N508 1.384 . S
C506 H497 0.929 . S
C506 C498 1.378 . S
C506 C501 1.350 . S
C507 H494 0.929 . S
C507 C499 1.433 . S
C507 N509 1.384 . S
N508 C504 1.427 . S
N508 C505 1.384 . S
N509 C501 1.427 . S
N509 C507 1.384 . S
H510 C516 0.930 . S
H511 C520 0.930 . S
H512 C525 0.929 . S
H513 C523 0.929 . S
H514 C518 0.945 . S
H515 C524 0.945 . S
C516 H510 0.930 . S
C516 C517 1.367 . S
C516 C524 1.358 1_655 S
C517 C516 1.367 . S
C517 C525 1.433 . S
C518 H514 0.945 . S
C518 C520 1.358 1_655 S
C518 C522 1.353 1_655 S
C519 C522 1.463 1_655 S
C519 C524 1.353 1_655 S
C519 N527 1.427 . S
C520 H511 0.930 . S
C520 C518 1.358 1_455 S
C520 C521 1.367 . S
C521 C520 1.367 . S
C521 C523 1.433 . S
C522 C518 1.353 1_455 S
C522 C519 1.463 1_455 S
C522 N526 1.427 . S
C523 H513 0.929 . S
C523 C521 1.433 . S
C523 N526 1.384 . S
C524 H515 0.945 . S
C524 C516 1.358 1_455 S
C524 C519 1.353 1_455 S
C525 H512 0.929 . S
C525 C517 1.433 . S
C525 N527 1.384 . S
N526 C522 1.427 . S
N526 C523 1.384 . S
N527 C519 1.427 . S
N527 C525 1.384 . S
H528 C534 0.930 . S
H529 C538 0.930 . S
H530 C543 0.929 . S
H531 C541 0.929 . S
H532 C536 0.929 . S
H533 C542 0.929 . S
C534 H528 0.930 . S
C534 C535 1.367 . S
C534 C542 1.378 . S
C535 C534 1.367 . S
C535 C543 1.433 . S
C536 H532 0.929 . S
C536 C538 1.378 . S
C536 C540 1.350 . S
C537 C540 1.463 1_545 S
C537 C542 1.350 . S
C537 N545 1.427 . S
C538 H529 0.930 . S
C538 C536 1.378 . S
C538 C539 1.367 . S
C539 C538 1.367 . S
C539 C541 1.433 . S
C540 C536 1.350 . S
C540 C537 1.463 1_565 S
C540 N544 1.427 . S
C541 H531 0.929 . S
C541 C539 1.433 . S
C541 N544 1.384 . S
C542 H533 0.929 . S
C542 C534 1.378 . S
C542 C537 1.350 . S
C543 H530 0.929 . S
C543 C535 1.433 . S
C543 N545 1.384 . S
N544 C540 1.427 . S
N544 C541 1.384 . S
N545 C537 1.427 . S
N545 C543 1.384 . S
H546 C552 0.930 . S
H547 C556 0.930 . S
H548 C561 0.929 . S
H549 C559 0.929 . S
H550 C554 0.929 . S
H551 C560 0.929 . S
C552 H546 0.930 . S
C552 C553 1.367 . S
C552 C560 1.378 . S
C553 C552 1.367 . S
C553 C561 1.433 . S
C554 H550 0.929 . S
C554 C556 1.378 . S
C554 C558 1.350 . S
C555 C558 1.463 . S
C555 C560 1.350 . S
C555 N563 1.427 . S
C556 H547 0.930 . S
C556 C554 1.378 . S
C556 C557 1.367 . S
C557 C556 1.367 . S
C557 C559 1.433 . S
C558 C554 1.350 . S
C558 C555 1.463 . S
C558 N562 1.427 . S
C559 H549 0.929 . S
C559 C557 1.433 . S
C559 N562 1.384 . S
C560 H551 0.929 . S
C560 C552 1.378 . S
C560 C555 1.350 . S
C561 H548 0.929 . S
C561 C553 1.433 . S
C561 N563 1.384 . S
N562 C558 1.427 . S
N562 C559 1.384 . S
N563 C555 1.427 . S
N563 C561 1.384 . S
H564 C570 0.930 1_655 S
H565 C574 0.930 1_455 S
H566 C579 0.929 . S
H567 C577 0.929 . S
H568 C572 0.929 . S
H569 C578 0.929 . S
C570 H564 0.930 1_455 S
C570 C571 1.367 . S
C570 C578 1.378 1_455 S
C571 C570 1.367 . S
C571 C579 1.433 . S
C572 H568 0.929 . S
C572 C574 1.378 1_455 S
C572 C576 1.350 1_455 S
C573 C576 1.463 1_455 S
C573 C578 1.350 1_455 S
C573 N581 1.427 . S
C574 H565 0.930 1_655 S
C574 C572 1.378 1_655 S
C574 C575 1.367 . S
C575 C574 1.367 . S
C575 C577 1.433 . S
C576 C572 1.350 1_655 S
C576 C573 1.463 1_655 S
C576 N580 1.427 . S
C577 H567 0.929 . S
C577 C575 1.433 . S
C577 N580 1.384 . S
C578 H569 0.929 . S
C578 C570 1.378 1_655 S
C578 C573 1.350 1_655 S
C579 H566 0.929 . S
C579 C571 1.433 . S
C579 N581 1.384 . S
N580 C576 1.427 . S
N580 C577 1.384 . S
N581 C573 1.427 . S
N581 C579 1.384 . S
H582 C588 0.930 1_545 S
H583 C592 0.930 1_565 S
H584 C597 0.929 . S
H585 C595 0.929 . S
H586 C590 0.929 . S
H587 C596 0.929 . S
C588 H582 0.930 1_565 S
C588 C589 1.367 . S
C588 C596 1.378 1_565 S
C589 C588 1.367 . S
C589 C597 1.433 . S
C590 H586 0.929 . S
C590 C592 1.378 1_565 S
C590 C594 1.350 1_565 S
C591 C594 1.463 1_565 S
C591 C596 1.350 1_565 S
C591 N599 1.427 . S
C592 H583 0.930 1_545 S
C592 C590 1.378 1_545 S
C592 C593 1.367 . S
C593 C592 1.367 . S
C593 C595 1.433 . S
C594 C590 1.350 1_545 S
C594 C591 1.463 1_545 S
C594 N598 1.427 . S
C595 H585 0.929 . S
C595 C593 1.433 . S
C595 N598 1.384 . S
C596 H587 0.929 . S
C596 C588 1.378 1_545 S
C596 C591 1.350 1_545 S
C597 H584 0.929 . S
C597 C589 1.433 . S
C597 N599 1.384 . S
N598 C594 1.427 . S
N598 C595 1.384 . S
N599 C591 1.427 . S
N599 C597 1.384 . S
C175 C103 1.145 . S
C179 C5 1.132 . S
C193 C19 1.120 . S
C197 C117 1.144 . S
C211 C33 1.137 . S
C215 C131 1.142 . S
C229 C47 1.126 . S
C233 C145 1.118 . S
C247 C159 1.123 . S
C251 C61 1.145 . S
C265 C89 1.134 . S
C269 C75 1.144 . S
C283 C144 1.304 . S
C287 C4 1.296 . S
C301 C18 1.302 . S
C305 C158 1.303 . S
C319 C32 1.298 . S
C323 C88 1.304 . S
C337 C102 1.303 . S
C341 C46 1.295 . S
C355 C116 1.297 . S
C359 C60 1.305 . S
C373 C130 1.296 . S
C377 C74 1.304 . S
C391 C11 1.580 . S
C395 C123 1.578 . S
C409 C25 1.573 . S
C413 C137 1.577 . S
C427 C151 1.573 . S
C431 C39 1.580 . S
C445 C53 1.575 . S
C449 C165 1.574 . S
C463 C95 1.573 . S
C467 C67 1.579 . S
C481 C109 1.576 . S
C485 C81 1.574 . S
C499 C54 1.179 . S
C503 C12 1.184 . S
C517 C68 1.195 . S
C521 C26 1.190 . S
C535 C40 1.182 . S
C539 C82 1.189 . S
C553 C96 1.178 . S
C557 C138 1.182 . S
C571 C110 1.195 . S
C575 C152 1.194 . S
C589 C166 1.194 . S
C593 C124 1.195 . S
