# Generated by pormake.
# Topology ana, (4)-cn, num edge types: 1
# Building blocks:
#     Node 0, Type 0, BuildingBlock: TATPOV_clean_sbu_0, # of connection points: 4
#     Node 1, Type 0, BuildingBlock: TATPOV_clean_sbu_0, # of connection points: 4
#     Node 2, Type 0, BuildingBlock: TATPOV_clean_sbu_0, # of connection points: 4
#     Node 3, Type 0, BuildingBlock: TATPOV_clean_sbu_0, # of connection points: 4
#     Node 4, Type 0, BuildingBlock: TATPOV_clean_sbu_0, # of connection points: 4
#     Node 5, Type 0, BuildingBlock: TATPOV_clean_sbu_0, # of connection points: 4
#     Node 6, Type 0, BuildingBlock: TATPOV_clean_sbu_0, # of connection points: 4
#     Node 7, Type 0, BuildingBlock: TATPOV_clean_sbu_0, # of connection points: 4
#     Node 8, Type 0, BuildingBlock: TATPOV_clean_sbu_0, # of connection points: 4
#     Node 9, Type 0, BuildingBlock: TATPOV_clean_sbu_0, # of connection points: 4
#     Node 10, Type 0, BuildingBlock: TATPOV_clean_sbu_0, # of connection points: 4
#     Node 11, Type 0, BuildingBlock: TATPOV_clean_sbu_0, # of connection points: 4
#     Node 12, Type 0, BuildingBlock: TATPOV_clean_sbu_0, # of connection points: 4
#     Node 13, Type 0, BuildingBlock: TATPOV_clean_sbu_0, # of connection points: 4
#     Node 14, Type 0, BuildingBlock: TATPOV_clean_sbu_0, # of connection points: 4
#     Node 15, Type 0, BuildingBlock: TATPOV_clean_sbu_0, # of connection points: 4
#     Node 16, Type 0, BuildingBlock: TATPOV_clean_sbu_0, # of connection points: 4
#     Node 17, Type 0, BuildingBlock: TATPOV_clean_sbu_0, # of connection points: 4
#     Node 18, Type 0, BuildingBlock: TATPOV_clean_sbu_0, # of connection points: 4
#     Node 19, Type 0, BuildingBlock: TATPOV_clean_sbu_0, # of connection points: 4
#     Node 20, Type 0, BuildingBlock: TATPOV_clean_sbu_0, # of connection points: 4
#     Node 21, Type 0, BuildingBlock: TATPOV_clean_sbu_0, # of connection points: 4
#     Node 22, Type 0, BuildingBlock: TATPOV_clean_sbu_0, # of connection points: 4
#     Node 23, Type 0, BuildingBlock: TATPOV_clean_sbu_0, # of connection points: 4
#     Node 24, Type 0, BuildingBlock: TATPOV_clean_sbu_0, # of connection points: 4
#     Node 25, Type 0, BuildingBlock: TATPOV_clean_sbu_0, # of connection points: 4
#     Node 26, Type 0, BuildingBlock: TATPOV_clean_sbu_0, # of connection points: 4
#     Node 27, Type 0, BuildingBlock: TATPOV_clean_sbu_0, # of connection points: 4
#     Node 28, Type 0, BuildingBlock: TATPOV_clean_sbu_0, # of connection points: 4
#     Node 29, Type 0, BuildingBlock: TATPOV_clean_sbu_0, # of connection points: 4
#     Node 30, Type 0, BuildingBlock: TATPOV_clean_sbu_0, # of connection points: 4
#     Node 31, Type 0, BuildingBlock: TATPOV_clean_sbu_0, # of connection points: 4
#     Node 32, Type 0, BuildingBlock: TATPOV_clean_sbu_0, # of connection points: 4
#     Node 33, Type 0, BuildingBlock: TATPOV_clean_sbu_0, # of connection points: 4
#     Node 34, Type 0, BuildingBlock: TATPOV_clean_sbu_0, # of connection points: 4
#     Node 35, Type 0, BuildingBlock: TATPOV_clean_sbu_0, # of connection points: 4
#     Node 36, Type 0, BuildingBlock: TATPOV_clean_sbu_0, # of connection points: 4
#     Node 37, Type 0, BuildingBlock: TATPOV_clean_sbu_0, # of connection points: 4
#     Node 38, Type 0, BuildingBlock: TATPOV_clean_sbu_0, # of connection points: 4
#     Node 39, Type 0, BuildingBlock: TATPOV_clean_sbu_0, # of connection points: 4
#     Node 40, Type 0, BuildingBlock: TATPOV_clean_sbu_0, # of connection points: 4
#     Node 41, Type 0, BuildingBlock: TATPOV_clean_sbu_0, # of connection points: 4
#     Node 42, Type 0, BuildingBlock: TATPOV_clean_sbu_0, # of connection points: 4
#     Node 43, Type 0, BuildingBlock: TATPOV_clean_sbu_0, # of connection points: 4
#     Node 44, Type 0, BuildingBlock: TATPOV_clean_sbu_0, # of connection points: 4
#     Node 45, Type 0, BuildingBlock: TATPOV_clean_sbu_0, # of connection points: 4
#     Node 46, Type 0, BuildingBlock: TATPOV_clean_sbu_0, # of connection points: 4
#     Node 47, Type 0, BuildingBlock: TATPOV_clean_sbu_0, # of connection points: 4
#     Edge 48, Type (0, 0), BuildingBlock: XIVTED_clean_linker_0, # of connection points: 2
#     Edge 49, Type (0, 0), BuildingBlock: XIVTED_clean_linker_0, # of connection points: 2
#     Edge 50, Type (0, 0), BuildingBlock: XIVTED_clean_linker_0, # of connection points: 2
#     Edge 51, Type (0, 0), BuildingBlock: XIVTED_clean_linker_0, # of connection points: 2
#     Edge 52, Type (0, 0), BuildingBlock: XIVTED_clean_linker_0, # of connection points: 2
#     Edge 53, Type (0, 0), BuildingBlock: XIVTED_clean_linker_0, # of connection points: 2
#     Edge 54, Type (0, 0), BuildingBlock: XIVTED_clean_linker_0, # of connection points: 2
#     Edge 55, Type (0, 0), BuildingBlock: XIVTED_clean_linker_0, # of connection points: 2
#     Edge 56, Type (0, 0), BuildingBlock: XIVTED_clean_linker_0, # of connection points: 2
#     Edge 57, Type (0, 0), BuildingBlock: XIVTED_clean_linker_0, # of connection points: 2
#     Edge 58, Type (0, 0), BuildingBlock: XIVTED_clean_linker_0, # of connection points: 2
#     Edge 59, Type (0, 0), BuildingBlock: XIVTED_clean_linker_0, # of connection points: 2
#     Edge 60, Type (0, 0), BuildingBlock: XIVTED_clean_linker_0, # of connection points: 2
#     Edge 61, Type (0, 0), BuildingBlock: XIVTED_clean_linker_0, # of connection points: 2
#     Edge 62, Type (0, 0), BuildingBlock: XIVTED_clean_linker_0, # of connection points: 2
#     Edge 63, Type (0, 0), BuildingBlock: XIVTED_clean_linker_0, # of connection points: 2
#     Edge 64, Type (0, 0), BuildingBlock: XIVTED_clean_linker_0, # of connection points: 2
#     Edge 65, Type (0, 0), BuildingBlock: XIVTED_clean_linker_0, # of connection points: 2
#     Edge 66, Type (0, 0), BuildingBlock: XIVTED_clean_linker_0, # of connection points: 2
#     Edge 67, Type (0, 0), BuildingBlock: XIVTED_clean_linker_0, # of connection points: 2
#     Edge 68, Type (0, 0), BuildingBlock: XIVTED_clean_linker_0, # of connection points: 2
#     Edge 69, Type (0, 0), BuildingBlock: XIVTED_clean_linker_0, # of connection points: 2
#     Edge 70, Type (0, 0), BuildingBlock: XIVTED_clean_linker_0, # of connection points: 2
#     Edge 71, Type (0, 0), BuildingBlock: XIVTED_clean_linker_0, # of connection points: 2
#     Edge 72, Type (0, 0), BuildingBlock: XIVTED_clean_linker_0, # of connection points: 2
#     Edge 73, Type (0, 0), BuildingBlock: XIVTED_clean_linker_0, # of connection points: 2
#     Edge 74, Type (0, 0), BuildingBlock: XIVTED_clean_linker_0, # of connection points: 2
#     Edge 75, Type (0, 0), BuildingBlock: XIVTED_clean_linker_0, # of connection points: 2
#     Edge 76, Type (0, 0), BuildingBlock: XIVTED_clean_linker_0, # of connection points: 2
#     Edge 77, Type (0, 0), BuildingBlock: XIVTED_clean_linker_0, # of connection points: 2
#     Edge 78, Type (0, 0), BuildingBlock: XIVTED_clean_linker_0, # of connection points: 2
#     Edge 79, Type (0, 0), BuildingBlock: XIVTED_clean_linker_0, # of connection points: 2
#     Edge 80, Type (0, 0), BuildingBlock: XIVTED_clean_linker_0, # of connection points: 2
#     Edge 81, Type (0, 0), BuildingBlock: XIVTED_clean_linker_0, # of connection points: 2
#     Edge 82, Type (0, 0), BuildingBlock: XIVTED_clean_linker_0, # of connection points: 2
#     Edge 83, Type (0, 0), BuildingBlock: XIVTED_clean_linker_0, # of connection points: 2
#     Edge 84, Type (0, 0), BuildingBlock: XIVTED_clean_linker_0, # of connection points: 2
#     Edge 85, Type (0, 0), BuildingBlock: XIVTED_clean_linker_0, # of connection points: 2
#     Edge 86, Type (0, 0), BuildingBlock: XIVTED_clean_linker_0, # of connection points: 2
#     Edge 87, Type (0, 0), BuildingBlock: XIVTED_clean_linker_0, # of connection points: 2
#     Edge 88, Type (0, 0), BuildingBlock: XIVTED_clean_linker_0, # of connection points: 2
#     Edge 89, Type (0, 0), BuildingBlock: XIVTED_clean_linker_0, # of connection points: 2
#     Edge 90, Type (0, 0), BuildingBlock: XIVTED_clean_linker_0, # of connection points: 2
#     Edge 91, Type (0, 0), BuildingBlock: XIVTED_clean_linker_0, # of connection points: 2
#     Edge 92, Type (0, 0), BuildingBlock: XIVTED_clean_linker_0, # of connection points: 2
#     Edge 93, Type (0, 0), BuildingBlock: XIVTED_clean_linker_0, # of connection points: 2
#     Edge 94, Type (0, 0), BuildingBlock: XIVTED_clean_linker_0, # of connection points: 2
#     Edge 95, Type (0, 0), BuildingBlock: XIVTED_clean_linker_0, # of connection points: 2
#     Edge 96, Type (0, 0), BuildingBlock: XIVTED_clean_linker_0, # of connection points: 2
#     Edge 97, Type (0, 0), BuildingBlock: XIVTED_clean_linker_0, # of connection points: 2
#     Edge 98, Type (0, 0), BuildingBlock: XIVTED_clean_linker_0, # of connection points: 2
#     Edge 99, Type (0, 0), BuildingBlock: XIVTED_clean_linker_0, # of connection points: 2
#     Edge 100, Type (0, 0), BuildingBlock: XIVTED_clean_linker_0, # of connection points: 2
#     Edge 101, Type (0, 0), BuildingBlock: XIVTED_clean_linker_0, # of connection points: 2
#     Edge 102, Type (0, 0), BuildingBlock: XIVTED_clean_linker_0, # of connection points: 2
#     Edge 103, Type (0, 0), BuildingBlock: XIVTED_clean_linker_0, # of connection points: 2
#     Edge 104, Type (0, 0), BuildingBlock: XIVTED_clean_linker_0, # of connection points: 2
#     Edge 105, Type (0, 0), BuildingBlock: XIVTED_clean_linker_0, # of connection points: 2
#     Edge 106, Type (0, 0), BuildingBlock: XIVTED_clean_linker_0, # of connection points: 2
#     Edge 107, Type (0, 0), BuildingBlock: XIVTED_clean_linker_0, # of connection points: 2
#     Edge 108, Type (0, 0), BuildingBlock: XIVTED_clean_linker_0, # of connection points: 2
#     Edge 109, Type (0, 0), BuildingBlock: XIVTED_clean_linker_0, # of connection points: 2
#     Edge 110, Type (0, 0), BuildingBlock: XIVTED_clean_linker_0, # of connection points: 2
#     Edge 111, Type (0, 0), BuildingBlock: XIVTED_clean_linker_0, # of connection points: 2
#     Edge 112, Type (0, 0), BuildingBlock: XIVTED_clean_linker_0, # of connection points: 2
#     Edge 113, Type (0, 0), BuildingBlock: XIVTED_clean_linker_0, # of connection points: 2
#     Edge 114, Type (0, 0), BuildingBlock: XIVTED_clean_linker_0, # of connection points: 2
#     Edge 115, Type (0, 0), BuildingBlock: XIVTED_clean_linker_0, # of connection points: 2
#     Edge 116, Type (0, 0), BuildingBlock: XIVTED_clean_linker_0, # of connection points: 2
#     Edge 117, Type (0, 0), BuildingBlock: XIVTED_clean_linker_0, # of connection points: 2
#     Edge 118, Type (0, 0), BuildingBlock: XIVTED_clean_linker_0, # of connection points: 2
#     Edge 119, Type (0, 0), BuildingBlock: XIVTED_clean_linker_0, # of connection points: 2
#     Edge 120, Type (0, 0), BuildingBlock: XIVTED_clean_linker_0, # of connection points: 2
#     Edge 121, Type (0, 0), BuildingBlock: XIVTED_clean_linker_0, # of connection points: 2
#     Edge 122, Type (0, 0), BuildingBlock: XIVTED_clean_linker_0, # of connection points: 2
#     Edge 123, Type (0, 0), BuildingBlock: XIVTED_clean_linker_0, # of connection points: 2
#     Edge 124, Type (0, 0), BuildingBlock: XIVTED_clean_linker_0, # of connection points: 2
#     Edge 125, Type (0, 0), BuildingBlock: XIVTED_clean_linker_0, # of connection points: 2
#     Edge 126, Type (0, 0), BuildingBlock: XIVTED_clean_linker_0, # of connection points: 2
#     Edge 127, Type (0, 0), BuildingBlock: XIVTED_clean_linker_0, # of connection points: 2
#     Edge 128, Type (0, 0), BuildingBlock: XIVTED_clean_linker_0, # of connection points: 2
#     Edge 129, Type (0, 0), BuildingBlock: XIVTED_clean_linker_0, # of connection points: 2
#     Edge 130, Type (0, 0), BuildingBlock: XIVTED_clean_linker_0, # of connection points: 2
#     Edge 131, Type (0, 0), BuildingBlock: XIVTED_clean_linker_0, # of connection points: 2
#     Edge 132, Type (0, 0), BuildingBlock: XIVTED_clean_linker_0, # of connection points: 2
#     Edge 133, Type (0, 0), BuildingBlock: XIVTED_clean_linker_0, # of connection points: 2
#     Edge 134, Type (0, 0), BuildingBlock: XIVTED_clean_linker_0, # of connection points: 2
#     Edge 135, Type (0, 0), BuildingBlock: XIVTED_clean_linker_0, # of connection points: 2
#     Edge 136, Type (0, 0), BuildingBlock: XIVTED_clean_linker_0, # of connection points: 2
#     Edge 137, Type (0, 0), BuildingBlock: XIVTED_clean_linker_0, # of connection points: 2
#     Edge 138, Type (0, 0), BuildingBlock: XIVTED_clean_linker_0, # of connection points: 2
#     Edge 139, Type (0, 0), BuildingBlock: XIVTED_clean_linker_0, # of connection points: 2
#     Edge 140, Type (0, 0), BuildingBlock: XIVTED_clean_linker_0, # of connection points: 2
#     Edge 141, Type (0, 0), BuildingBlock: XIVTED_clean_linker_0, # of connection points: 2
#     Edge 142, Type (0, 0), BuildingBlock: XIVTED_clean_linker_0, # of connection points: 2
#     Edge 143, Type (0, 0), BuildingBlock: XIVTED_clean_linker_0, # of connection points: 2
# Relax obj value: 0.165
# Max RMSD: 0.202
# Mean RMSD: 0.184
data_MOF--net-ana--node1-TATPOV_clean_sbu_0--edge1-XIVTED_clean_linker_0
_symmetry_space_group_name_H-M    P1
_symmetry_Int_Tables_number       1
_symmetry_cell_setting            triclinic
loop_
_symmetry_equiv_pos_as_xyz
'x, y, z'
_cell_length_a     63.373003
_cell_length_b     63.935009
_cell_length_c     63.875263
_cell_angle_alpha  90.501975
_cell_angle_beta   90.014271
_cell_angle_gamma 91.256146
loop_
_atom_site_label
_atom_site_type_symbol
_atom_site_fract_x
_atom_site_fract_y
_atom_site_fract_z
_atom_type_partial_charge
Zn0 Zn 0.15229 0.14906 0.33599 0.0
Zn1 Zn 0.14377 0.15223 0.37819 0.0
O2 O 0.11812 0.13886 0.36459 0.0
O3 O 0.12398 0.13371 0.33105 0.0
O4 O 0.1354 0.14885 0.40828 0.0
O5 O 0.17881 0.13315 0.34288 0.0
O6 O 0.17125 0.13618 0.3764 0.0
C7 C 0.1119 0.13224 0.34679 0.0
C8 C 0.14952 0.19199 0.35389 0.0
O9 O 0.14599 0.18323 0.37143 0.0
O10 O 0.15276 0.18104 0.33755 0.0
C11 C 0.14266 0.15712 0.425 0.0
O12 O 0.15785 0.17139 0.42396 0.0
C13 C 0.18326 0.12971 0.36186 0.0
Zn14 Zn 0.07066 0.80034 0.68552 0.0
Zn15 Zn 0.09051 0.83208 0.66364 0.0
O16 O 0.05927 0.83608 0.65888 0.0
O17 O 0.04214 0.81166 0.67649 0.0
O18 O 0.10288 0.85752 0.64963 0.0
O19 O 0.08446 0.81088 0.71242 0.0
O20 O 0.1013 0.83467 0.69363 0.0
C21 C 0.04201 0.82739 0.66457 0.0
C22 C 0.09868 0.78772 0.65067 0.0
O23 O 0.10143 0.8072 0.64753 0.0
O24 O 0.0871 0.78128 0.66562 0.0
C25 C 0.09627 0.87496 0.65637 0.0
O26 O 0.08286 0.87507 0.67206 0.0
C27 C 0.09773 0.82592 0.71114 0.0
Zn28 Zn 0.38211 0.85071 0.85777 0.0
Zn29 Zn 0.37736 0.8382 0.89816 0.0
O30 O 0.40793 0.84932 0.89755 0.0
O31 O 0.41084 0.86251 0.86587 0.0
O32 O 0.37155 0.83187 0.92832 0.0
O33 O 0.35682 0.86935 0.86032 0.0
O34 O 0.35426 0.85947 0.89312 0.0
C35 C 0.41864 0.85908 0.88375 0.0
C36 C 0.37502 0.80575 0.86331 0.0
O37 O 0.37337 0.81058 0.88261 0.0
O38 O 0.37898 0.81974 0.84982 0.0
C39 C 0.38494 0.83179 0.94312 0.0
O40 O 0.40514 0.83383 0.93879 0.0
C41 C 0.34777 0.87038 0.87795 0.0
Zn42 Zn 0.4222 0.18052 0.19523 0.0
Zn43 Zn 0.40362 0.14397 0.1812 0.0
O44 O 0.43189 0.14494 0.16661 0.0
O45 O 0.44863 0.17324 0.17822 0.0
O46 O 0.39209 0.11631 0.17117 0.0
O47 O 0.41855 0.17052 0.22517 0.0
O48 O 0.40414 0.14116 0.21306 0.0
C49 C 0.4481 0.15697 0.16671 0.0
C50 C 0.38335 0.18505 0.17073 0.0
O51 O 0.38348 0.16519 0.16943 0.0
O52 O 0.39766 0.19496 0.18087 0.0
C53 C 0.39056 0.11308 0.15157 0.0
O54 O 0.3955 0.12831 0.13866 0.0
C55 C 0.41026 0.15263 0.2284 0.0
Zn56 Zn 0.09649 0.91353 0.09867 0.0
Zn57 Zn 0.10481 0.87209 0.0958 0.0
O58 O 0.13014 0.88489 0.11164 0.0
O59 O 0.12356 0.91839 0.11496 0.0
O60 O 0.10993 0.84093 0.09672 0.0
O61 O 0.06925 0.90745 0.11368 0.0
O62 O 0.07645 0.87398 0.11141 0.0
C63 C 0.13549 0.90311 0.11817 0.0
C64 C 0.10147 0.89784 0.05594 0.0
O65 O 0.10473 0.88028 0.0646 0.0
O66 O 0.09738 0.91377 0.06705 0.0
C67 C 0.12818 0.83346 0.09937 0.0
O68 O 0.14474 0.84617 0.09957 0.0
C69 C 0.06438 0.88855 0.1174 0.0
Zn70 Zn 0.43662 0.81993 0.29538 0.0
Zn71 Zn 0.44231 0.86145 0.30576 0.0
O72 O 0.47118 0.85023 0.31222 0.0
O73 O 0.46708 0.81652 0.30549 0.0
O74 O 0.44353 0.89155 0.31467 0.0
O75 O 0.42944 0.82894 0.26572 0.0
O76 O 0.43335 0.862 0.2752 0.0
C77 C 0.47843 0.83183 0.31204 0.0
C78 C 0.40998 0.83354 0.32895 0.0
O79 O 0.42027 0.85052 0.3261 0.0
O80 O 0.41315 0.81782 0.31723 0.0
C81 C 0.44641 0.89483 0.33412 0.0
O82 O 0.451 0.87895 0.34611 0.0
C83 C 0.42879 0.84821 0.26134 0.0
Zn84 Zn 0.38159 0.09635 0.63135 0.0
Zn85 Zn 0.37489 0.13757 0.62627 0.0
O86 O 0.34585 0.12414 0.63104 0.0
O87 O 0.35049 0.0908 0.63741 0.0
O88 O 0.36851 0.16809 0.62829 0.0
O89 O 0.4027 0.10183 0.65446 0.0
O90 O 0.39782 0.13524 0.64877 0.0
C91 C 0.3383 0.10607 0.63529 0.0
C92 C 0.39169 0.11399 0.58952 0.0
O93 O 0.38539 0.13139 0.59677 0.0
O94 O 0.39164 0.09786 0.60099 0.0
C95 C 0.37743 0.18314 0.61863 0.0
O96 O 0.39185 0.17918 0.60445 0.0
C97 C 0.40723 0.12082 0.65846 0.0
Zn98 Zn 0.06326 0.17007 0.79086 0.0
Zn99 Zn 0.05865 0.12939 0.80241 0.0
O100 O 0.03093 0.141 0.81281 0.0
O101 O 0.03456 0.17433 0.80472 0.0
O102 O 0.0582 0.09904 0.80994 0.0
O103 O 0.06616 0.16131 0.76044 0.0
O104 O 0.0637 0.12859 0.7707 0.0
C105 C 0.024 0.15955 0.81314 0.0
C106 C 0.09397 0.15723 0.82103 0.0
O107 O 0.08313 0.1403 0.82019 0.0
O108 O 0.08951 0.17235 0.80923 0.0
C109 C 0.05971 0.09325 0.82887 0.0
O110 O 0.05922 0.1074 0.84389 0.0
C111 C 0.0663 0.14193 0.75618 0.0
Zn112 Zn 0.16019 0.45571 0.06863 0.0
Zn113 Zn 0.14345 0.44048 0.10478 0.0
O114 O 0.17435 0.43467 0.10938 0.0
O115 O 0.18883 0.4472 0.08061 0.0
O116 O 0.12958 0.43147 0.1314 0.0
O117 O 0.14915 0.48474 0.07489 0.0
O118 O 0.13657 0.47155 0.10413 0.0
C119 C 0.19059 0.43828 0.09819 0.0
C120 C 0.13161 0.41997 0.06296 0.0
O121 O 0.13073 0.42075 0.08284 0.0
O122 O 0.14227 0.43363 0.05298 0.0
C123 C 0.13235 0.41384 0.13985 0.0
O124 O 0.14477 0.4003 0.13076 0.0
C125 C 0.13952 0.48711 0.09209 0.0
Zn126 Zn 0.74305 0.0349 0.89952 0.0
Zn127 Zn 0.72296 0.05249 0.86597 0.0
O128 O 0.74938 0.07044 0.86966 0.0
O129 O 0.7672 0.05597 0.89513 0.0
O130 O 0.70867 0.06556 0.84142 0.0
O131 O 0.74189 0.00691 0.88437 0.0
O132 O 0.72628 0.02191 0.85776 0.0
C133 C 0.76545 0.07016 0.88154 0.0
C134 C 0.70204 0.05282 0.90886 0.0
O135 O 0.70202 0.057 0.88945 0.0
O136 O 0.71754 0.04359 0.91696 0.0
C137 C 0.70364 0.08461 0.84345 0.0
O138 O 0.70826 0.09453 0.86102 0.0
C139 C 0.73362 0.00568 0.86634 0.0
Zn140 Zn 0.75165 0.97177 0.41403 0.0
Zn141 Zn 0.78074 0.95802 0.3849 0.0
O142 O 0.75382 0.9425 0.37748 0.0
O143 O 0.72911 0.95412 0.39843 0.0
O144 O 0.80069 0.94726 0.36312 0.0
O145 O 0.76001 0.00166 0.40617 0.0
O146 O 0.78143 0.98953 0.38189 0.0
C147 C 0.73477 0.94216 0.38361 0.0
C148 C 0.78686 0.94848 0.43105 0.0
O149 O 0.7931 0.94795 0.41213 0.0
O150 O 0.76977 0.95732 0.43584 0.0
C151 C 0.79594 0.94852 0.34386 0.0
O152 O 0.77862 0.95808 0.33854 0.0
C153 C 0.77303 0.00479 0.39143 0.0
Zn154 Zn 0.82351 0.04745 0.05777 0.0
Zn155 Zn 0.83038 0.06061 0.09827 0.0
O156 O 0.79981 0.0677 0.09553 0.0
O157 O 0.79282 0.05627 0.06355 0.0
O158 O 0.83777 0.0668 0.128 0.0
O159 O 0.83225 0.01764 0.06479 0.0
O160 O 0.83561 0.02956 0.09703 0.0
C161 C 0.78684 0.0647 0.08058 0.0
C162 C 0.85404 0.08203 0.06258 0.0
O163 O 0.84956 0.08011 0.08186 0.0
O164 O 0.84559 0.06977 0.0491 0.0
C165 C 0.84299 0.08465 0.13542 0.0
O166 O 0.84286 0.1011 0.12325 0.0
C167 C 0.8361 0.01449 0.08395 0.0
Zn168 Zn 0.30599 0.54287 0.57179 0.0
Zn169 Zn 0.31308 0.55903 0.61129 0.0
O170 O 0.28125 0.55953 0.61016 0.0
O171 O 0.27455 0.54653 0.57872 0.0
O172 O 0.32058 0.56723 0.64067 0.0
O173 O 0.32029 0.51556 0.57927 0.0
O174 O 0.32566 0.53016 0.61013 0.0
C175 C 0.26812 0.55401 0.596 0.0
C176 C 0.33006 0.58254 0.57354 0.0
O177 O 0.32684 0.58121 0.59312 0.0
O178 O 0.32354 0.56809 0.56123 0.0
C179 C 0.32797 0.58478 0.64703 0.0
O180 O 0.3301 0.60033 0.63384 0.0
C181 C 0.32764 0.51471 0.59767 0.0
Zn182 Zn 0.24683 0.53962 0.40418 0.0
Zn183 Zn 0.22476 0.55214 0.36982 0.0
O184 O 0.25112 0.57072 0.37065 0.0
O185 O 0.27056 0.56008 0.39685 0.0
O186 O 0.20968 0.56334 0.3447 0.0
O187 O 0.24537 0.51013 0.39268 0.0
O188 O 0.22781 0.52066 0.36501 0.0
C189 C 0.26776 0.57236 0.3817 0.0
C190 C 0.20548 0.55665 0.41327 0.0
O191 O 0.20441 0.55845 0.39349 0.0
O192 O 0.22188 0.5494 0.4217 0.0
C193 C 0.20517 0.58258 0.34625 0.0
O194 O 0.21043 0.59287 0.36345 0.0
C195 C 0.23592 0.50604 0.37561 0.0
Zn196 Zn 0.23915 0.46447 0.90943 0.0
Zn197 Zn 0.26789 0.45218 0.87958 0.0
O198 O 0.24069 0.43769 0.87071 0.0
O199 O 0.21634 0.44916 0.89221 0.0
O200 O 0.28844 0.44284 0.8575 0.0
O201 O 0.2484 0.49464 0.90451 0.0
O202 O 0.26934 0.48401 0.87912 0.0
C203 C 0.2216 0.43776 0.8768 0.0
C204 C 0.27267 0.43835 0.92494 0.0
O205 O 0.27934 0.4395 0.9062 0.0
O206 O 0.25586 0.44739 0.93028 0.0
C207 C 0.2938 0.42379 0.85766 0.0
O208 O 0.28579 0.4113 0.87198 0.0
C209 C 0.26145 0.49867 0.89001 0.0
Zn210 Zn 0.87966 0.83111 0.55871 0.0
Zn211 Zn 0.8594 0.85436 0.58843 0.0
O212 O 0.84687 0.82524 0.59292 0.0
O213 O 0.86224 0.80593 0.5689 0.0
O214 O 0.84224 0.87325 0.60666 0.0
O215 O 0.8691 0.84924 0.53529 0.0
O216 O 0.85369 0.86744 0.56005 0.0
C217 C 0.84952 0.80756 0.58413 0.0
C218 C 0.90666 0.84964 0.59162 0.0
O219 O 0.88954 0.85644 0.59925 0.0
O220 O 0.9066 0.8394 0.57451 0.0
C221 C 0.83095 0.86769 0.62216 0.0
O222 O 0.83172 0.84834 0.62881 0.0
C223 C 0.85787 0.86445 0.54079 0.0
Zn224 Zn 0.9213 0.0727 0.31762 0.0
Zn225 Zn 0.91559 0.11454 0.31938 0.0
O226 O 0.9083 0.10831 0.289 0.0
O227 O 0.90952 0.07391 0.28804 0.0
O228 O 0.91086 0.14524 0.32305 0.0
O229 O 0.95254 0.07741 0.32218 0.0
O230 O 0.94677 0.11103 0.3267 0.0
C231 C 0.90575 0.09108 0.27914 0.0
C232 C 0.88996 0.08468 0.34721 0.0
O233 O 0.89346 0.10247 0.33909 0.0
O234 O 0.901 0.06919 0.34204 0.0
C235 C 0.89498 0.15362 0.31465 0.0
O236 O 0.88237 0.14222 0.30261 0.0
C237 C 0.95933 0.09573 0.32639 0.0
Zn238 Zn 0.58542 0.15903 0.02614 0.0
Zn239 Zn 0.61141 0.13882 0.05353 0.0
O240 O 0.62268 0.16859 0.05528 0.0
O241 O 0.60235 0.18581 0.03376 0.0
O242 O 0.63241 0.12188 0.06899 0.0
O243 O 0.59446 0.14034 0.00168 0.0
O244 O 0.6134 0.12458 0.02532 0.0
C245 C 0.61739 0.18567 0.0469 0.0
C246 C 0.56513 0.14132 0.06389 0.0
O247 O 0.58368 0.13604 0.06892 0.0
O248 O 0.56171 0.15003 0.04644 0.0
C249 C 0.64536 0.12857 0.08279 0.0
O250 O 0.64392 0.14782 0.08991 0.0
C251 C 0.60696 0.12599 0.00658 0.0
Zn252 Zn 0.58889 0.89698 0.81909 0.0
Zn253 Zn 0.6034 0.86195 0.83126 0.0
O254 O 0.59807 0.8578 0.79959 0.0
O255 O 0.57887 0.88482 0.79173 0.0
O256 O 0.61364 0.83382 0.8399 0.0
O257 O 0.56908 0.89919 0.84326 0.0
O258 O 0.57699 0.8666 0.8498 0.0
C259 C 0.58724 0.86781 0.78636 0.0
C260 C 0.63275 0.89961 0.82933 0.0
O261 O 0.62914 0.88138 0.83655 0.0
O262 O 0.61824 0.90933 0.82022 0.0
C263 C 0.61425 0.82758 0.85872 0.0
O264 O 0.60775 0.83992 0.87384 0.0
C265 C 0.56582 0.88258 0.85348 0.0
Zn266 Zn 0.84756 0.22672 0.96273 0.0
Zn267 Zn 0.88438 0.21834 0.94134 0.0
O268 O 0.89124 0.20743 0.97008 0.0
O269 O 0.8629 0.21516 0.98832 0.0
O270 O 0.9097 0.21252 0.92349 0.0
O271 O 0.84974 0.2569 0.95319 0.0
O272 O 0.87979 0.24948 0.9377 0.0
C273 C 0.88095 0.20698 0.98717 0.0
C274 C 0.84274 0.1961 0.92949 0.0
O275 O 0.8624 0.19967 0.92732 0.0
O276 O 0.83236 0.20578 0.94334 0.0
C277 C 0.91409 0.19354 0.91977 0.0
O278 O 0.90309 0.17866 0.9291 0.0
C279 C 0.86565 0.26252 0.94247 0.0
Zn280 Zn 0.58639 0.18489 0.71954 0.0
Zn281 Zn 0.59528 0.15318 0.69203 0.0
O282 O 0.56378 0.15001 0.6974 0.0
O283 O 0.5552 0.17624 0.71806 0.0
O284 O 0.60105 0.12834 0.67343 0.0
O285 O 0.60576 0.17172 0.74078 0.0
O286 O 0.61377 0.14755 0.71753 0.0
C287 C 0.54995 0.16004 0.70755 0.0
C288 C 0.60434 0.19842 0.67968 0.0
O289 O 0.60335 0.17907 0.67475 0.0
O290 O 0.59887 0.20455 0.69777 0.0
C291 C 0.59527 0.11057 0.68048 0.0
O292 O 0.58605 0.10966 0.69889 0.0
C293 C 0.61606 0.15571 0.73567 0.0
Zn294 Zn 0.67284 0.78067 0.44398 0.0
Zn295 Zn 0.63281 0.78498 0.42732 0.0
O296 O 0.62846 0.79711 0.45618 0.0
O297 O 0.65948 0.79247 0.47092 0.0
O298 O 0.60525 0.78754 0.4122 0.0
O299 O 0.67173 0.74967 0.43625 0.0
O300 O 0.6391 0.75404 0.42538 0.0
C301 C 0.64073 0.79906 0.47185 0.0
C302 C 0.67074 0.80963 0.40963 0.0
O303 O 0.65134 0.80431 0.41014 0.0
O304 O 0.68367 0.80161 0.42222 0.0
C305 C 0.59916 0.80589 0.40822 0.0
O306 O 0.60995 0.822 0.41587 0.0
C307 C 0.6546 0.74224 0.42884 0.0
Zn308 Zn 0.89879 0.83365 0.21784 0.0
Zn309 Zn 0.88057 0.85751 0.18788 0.0
O310 O 0.91189 0.86292 0.18346 0.0
O311 O 0.92756 0.84273 0.20622 0.0
O312 O 0.86736 0.87671 0.16735 0.0
O313 O 0.88445 0.85095 0.24046 0.0
O314 O 0.86884 0.86841 0.21554 0.0
C315 C 0.92864 0.85577 0.19139 0.0
C316 C 0.8734 0.81043 0.18696 0.0
O317 O 0.87116 0.82826 0.17865 0.0
O318 O 0.8835 0.8088 0.204 0.0
C319 C 0.87325 0.8789 0.14846 0.0
O320 O 0.88839 0.86724 0.14104 0.0
C321 C 0.87184 0.86497 0.2349 0.0
Zn322 Zn 0.84781 0.53255 0.92609 0.0
Zn323 Zn 0.86004 0.5591 0.89503 0.0
O324 O 0.82794 0.55957 0.89481 0.0
O325 O 0.81704 0.53924 0.92043 0.0
O326 O 0.86725 0.57553 0.86937 0.0
O327 O 0.86221 0.50863 0.91139 0.0
O328 O 0.87334 0.53116 0.88778 0.0
C329 C 0.813 0.55145 0.90551 0.0
C330 C 0.87494 0.56834 0.93889 0.0
O331 O 0.87374 0.57442 0.92001 0.0
O332 O 0.86589 0.55148 0.94466 0.0
C333 C 0.87173 0.5949 0.86783 0.0
O334 O 0.87252 0.60674 0.88473 0.0
C335 C 0.87288 0.51273 0.89512 0.0
Zn336 Zn 0.31284 0.94597 0.07746 0.0
Zn337 Zn 0.33213 0.92671 0.10893 0.0
O338 O 0.30117 0.92357 0.11794 0.0
O339 O 0.28612 0.94359 0.09455 0.0
O340 O 0.3485 0.91422 0.13239 0.0
O341 O 0.3312 0.97191 0.08113 0.0
O342 O 0.3434 0.957 0.10943 0.0
C343 C 0.28491 0.93247 0.11084 0.0
C344 C 0.33365 0.90845 0.06467 0.0
O345 O 0.34005 0.90879 0.08354 0.0
O346 O 0.32117 0.92222 0.05824 0.0
C347 C 0.35161 0.89477 0.13424 0.0
O348 O 0.34327 0.88158 0.12051 0.0
C349 C 0.34238 0.97284 0.09755 0.0
Zn350 Zn 0.16706 0.03807 0.56522 0.0
Zn351 Zn 0.14606 0.05772 0.59592 0.0
O352 O 0.17647 0.06375 0.6049 0.0
O353 O 0.19383 0.0511 0.57784 0.0
O354 O 0.12888 0.07045 0.61895 0.0
O355 O 0.15616 0.00982 0.57493 0.0
O356 O 0.13734 0.02675 0.59821 0.0
C357 C 0.19372 0.06068 0.5953 0.0
C358 C 0.14037 0.07008 0.54996 0.0
O359 O 0.13783 0.07379 0.56941 0.0
O360 O 0.1509 0.05453 0.54395 0.0
C361 C 0.12663 0.08998 0.62164 0.0
O362 O 0.13581 0.10313 0.60864 0.0
C363 C 0.14281 0.00963 0.58966 0.0
Zn364 Zn 0.18249 0.94574 0.83692 0.0
Zn365 Zn 0.16347 0.92868 0.86894 0.0
O366 O 0.14715 0.956 0.8637 0.0
O367 O 0.16191 0.9688 0.83526 0.0
O368 O 0.1503 0.91751 0.89558 0.0
O369 O 0.21011 0.94932 0.85162 0.0
O370 O 0.19537 0.93035 0.87637 0.0
C371 C 0.14792 0.9697 0.84932 0.0
C372 C 0.16424 0.90495 0.82782 0.0
O373 O 0.15679 0.90642 0.8463 0.0
O374 O 0.17641 0.91919 0.82076 0.0
C375 C 0.14644 0.93068 0.91003 0.0
O376 O 0.15112 0.95054 0.90695 0.0
C377 C 0.21169 0.93931 0.86851 0.0
Zn378 Zn 0.65341 0.43027 0.32851 0.0
Zn379 Zn 0.63801 0.42009 0.36538 0.0
O380 O 0.62535 0.44903 0.35956 0.0
O381 O 0.63537 0.45569 0.3273 0.0
O382 O 0.62732 0.41296 0.3943 0.0
O383 O 0.68289 0.43216 0.33957 0.0
O384 O 0.67056 0.41843 0.36868 0.0
C385 C 0.62501 0.46065 0.34346 0.0
C386 C 0.62942 0.39176 0.32783 0.0
O387 O 0.62491 0.39703 0.34654 0.0
O388 O 0.64232 0.40266 0.31716 0.0
C389 C 0.625 0.42734 0.40793 0.0
O390 O 0.62966 0.44679 0.40294 0.0
C391 C 0.68613 0.42451 0.35745 0.0
Zn392 Zn 0.83311 0.44348 0.55388 0.0
Zn393 Zn 0.84926 0.42698 0.58881 0.0
O394 O 0.81818 0.42003 0.59307 0.0
O395 O 0.8051 0.42992 0.5628 0.0
O396 O 0.8632 0.41555 0.61427 0.0
O397 O 0.84091 0.47263 0.56406 0.0
O398 O 0.85556 0.45842 0.59157 0.0
C399 C 0.80265 0.42164 0.58063 0.0
C400 C 0.86351 0.41263 0.54501 0.0
O401 O 0.86262 0.41031 0.56476 0.0
O402 O 0.85342 0.42703 0.53629 0.0
C403 C 0.86458 0.39601 0.61719 0.0
O404 O 0.8565 0.38287 0.60327 0.0
C405 C 0.85089 0.47457 0.58116 0.0
Zn406 Zn 0.66423 0.55199 0.16759 0.0
Zn407 Zn 0.65666 0.55934 0.12705 0.0
O408 O 0.64607 0.52873 0.12915 0.0
O409 O 0.65064 0.52363 0.16292 0.0
O410 O 0.65428 0.56714 0.09664 0.0
O411 O 0.6955 0.55527 0.16431 0.0
O412 O 0.68874 0.5637 0.13168 0.0
C413 C 0.64454 0.51697 0.14513 0.0
C414 C 0.63583 0.58556 0.1612 0.0
O415 O 0.63727 0.58005 0.14208 0.0
O416 O 0.64656 0.57674 0.17515 0.0
C417 C 0.63777 0.5739 0.08789 0.0
O418 O 0.62018 0.57497 0.09868 0.0
C419 C 0.70189 0.56111 0.1465 0.0
Zn420 Zn 0.64106 0.63468 0.85722 0.0
Zn421 Zn 0.63529 0.6355 0.89942 0.0
O422 O 0.60695 0.62487 0.88786 0.0
O423 O 0.61177 0.62177 0.85383 0.0
O424 O 0.6316 0.63223 0.93064 0.0
O425 O 0.66651 0.61659 0.8597 0.0
O426 O 0.66119 0.61741 0.89371 0.0
C427 C 0.59998 0.61998 0.86974 0.0
C428 C 0.64298 0.67642 0.87685 0.0
O429 O 0.6396 0.66682 0.89398 0.0
O430 O 0.64441 0.66626 0.85978 0.0
C431 C 0.64768 0.63177 0.94252 0.0
O432 O 0.66649 0.63524 0.93443 0.0
C433 C 0.67182 0.61131 0.87797 0.0
Zn434 Zn 0.55882 0.29306 0.17364 0.0
Zn435 Zn 0.57482 0.33123 0.16158 0.0
O436 O 0.54546 0.33224 0.14955 0.0
O437 O 0.53095 0.30276 0.16086 0.0
O438 O 0.58729 0.3597 0.15626 0.0
O439 O 0.56546 0.29887 0.20412 0.0
O440 O 0.57601 0.33015 0.19361 0.0
C441 C 0.52961 0.31982 0.15097 0.0
C442 C 0.59418 0.29169 0.14431 0.0
O443 O 0.59346 0.31154 0.14499 0.0
O444 O 0.58152 0.28058 0.15511 0.0
C445 C 0.5858 0.37013 0.1395 0.0
O446 O 0.57551 0.36204 0.12341 0.0
C447 C 0.5724 0.31714 0.20824 0.0
Zn448 Zn 0.86251 0.34681 0.33946 0.0
Zn449 Zn 0.86362 0.33771 0.38119 0.0
O450 O 0.89126 0.35356 0.37526 0.0
O451 O 0.89093 0.36185 0.34189 0.0
O452 O 0.86558 0.33342 0.41229 0.0
O453 O 0.83598 0.36293 0.34475 0.0
O454 O 0.83637 0.35438 0.37808 0.0
C455 C 0.90009 0.36207 0.35952 0.0
C456 C 0.86233 0.30225 0.34923 0.0
O457 O 0.86317 0.30862 0.36816 0.0
O458 O 0.8614 0.31524 0.33437 0.0
C459 C 0.88331 0.33055 0.42101 0.0
O460 O 0.90016 0.32822 0.40933 0.0
C461 C 0.82777 0.36364 0.36281 0.0
Zn462 Zn 0.90885 0.67867 0.69124 0.0
Zn463 Zn 0.88573 0.64546 0.6756 0.0
O464 O 0.91403 0.64399 0.66106 0.0
O465 O 0.93421 0.66946 0.67381 0.0
O466 O 0.87202 0.61935 0.6641 0.0
O467 O 0.90441 0.66758 0.72052 0.0
O468 O 0.8856 0.64122 0.70736 0.0
C469 C 0.9316 0.6539 0.66158 0.0
C470 C 0.87064 0.68902 0.6675 0.0
O471 O 0.86824 0.66937 0.66491 0.0
O472 O 0.88608 0.69646 0.67805 0.0
C473 C 0.87056 0.61749 0.64433 0.0
O474 O 0.87599 0.63347 0.63254 0.0
C475 C 0.89351 0.65095 0.7231 0.0
Zn476 Zn 0.61052 0.41151 0.60189 0.0
Zn477 Zn 0.61181 0.36888 0.59577 0.0
O478 O 0.64184 0.3785 0.60293 0.0
O479 O 0.64132 0.41204 0.61088 0.0
O480 O 0.6126 0.3371 0.59565 0.0
O481 O 0.58709 0.40807 0.62308 0.0
O482 O 0.58916 0.37407 0.61807 0.0
C483 C 0.65139 0.39526 0.60874 0.0
C484 C 0.60224 0.39624 0.55874 0.0
O485 O 0.6044 0.37794 0.5661 0.0
O486 O 0.6039 0.41219 0.57066 0.0
C487 C 0.62937 0.32705 0.59898 0.0
O488 O 0.64748 0.33731 0.60047 0.0
C489 C 0.5809 0.38962 0.6273 0.0
Zn490 Zn 0.93039 0.31884 0.78705 0.0
Zn491 Zn 0.9373 0.36016 0.79764 0.0
O492 O 0.96564 0.34808 0.8044 0.0
O493 O 0.96042 0.31442 0.79811 0.0
O494 O 0.93927 0.39 0.80724 0.0
O495 O 0.92453 0.32844 0.75724 0.0
O496 O 0.9292 0.36137 0.76692 0.0
C497 C 0.97219 0.32942 0.80466 0.0
C498 C 0.90387 0.33294 0.8203 0.0
O499 O 0.91485 0.34953 0.81762 0.0
O500 O 0.90639 0.31723 0.80839 0.0
C501 C 0.94311 0.39261 0.82662 0.0
O502 O 0.94801 0.37629 0.83785 0.0
C503 C 0.92468 0.34775 0.75288 0.0
Zn504 Zn 0.89918 0.59023 0.11864 0.0
Zn505 Zn 0.88743 0.63094 0.11811 0.0
O506 O 0.86071 0.61401 0.12379 0.0
O507 O 0.86911 0.58092 0.12617 0.0
O508 O 0.87755 0.65987 0.12397 0.0
O509 O 0.92113 0.59646 0.141 0.0
O510 O 0.91196 0.62933 0.13878 0.0
C511 C 0.85535 0.59499 0.12667 0.0
C512 C 0.90404 0.61309 0.07832 0.0
O513 O 0.89618 0.62882 0.08758 0.0
O514 O 0.90677 0.59614 0.0881 0.0
C515 C 0.87415 0.67536 0.11224 0.0
O516 O 0.87758 0.67388 0.092 0.0
C517 C 0.92361 0.61541 0.14654 0.0
Zn518 Zn 0.55475 0.67758 0.30275 0.0
Zn519 Zn 0.55095 0.63616 0.31156 0.0
O520 O 0.52432 0.64699 0.32532 0.0
O521 O 0.52751 0.68083 0.31938 0.0
O522 O 0.55084 0.60517 0.31627 0.0
O523 O 0.55502 0.67158 0.27165 0.0
O524 O 0.55336 0.63816 0.27961 0.0
C525 C 0.51761 0.6655 0.32758 0.0
C526 C 0.58821 0.66226 0.32859 0.0
O527 O 0.57716 0.64545 0.32783 0.0
O528 O 0.58266 0.67818 0.31846 0.0
C529 C 0.5539 0.5977 0.33437 0.0
O530 O 0.55507 0.61048 0.35057 0.0
C531 C 0.55479 0.65256 0.26597 0.0
Zn532 Zn 0.66376 0.95106 0.58642 0.0
Zn533 Zn 0.64755 0.9301 0.61977 0.0
O534 O 0.67888 0.9283 0.62606 0.0
O535 O 0.69263 0.94525 0.59925 0.0
O536 O 0.63318 0.91483 0.64316 0.0
O537 O 0.64843 0.97718 0.59538 0.0
O538 O 0.63585 0.95969 0.62232 0.0
C539 C 0.69494 0.9352 0.61612 0.0
C540 C 0.6409 0.91336 0.575 0.0
O541 O 0.63914 0.912 0.59476 0.0
O542 O 0.65001 0.92919 0.56694 0.0
C543 C 0.63745 0.89607 0.64768 0.0
O544 O 0.65234 0.88646 0.6373 0.0
C545 C 0.63748 0.97659 0.61196 0.0
Zn546 Zn 0.36546 0.31296 0.04633 0.0
Zn547 Zn 0.34623 0.3369 0.07642 0.0
O548 O 0.33611 0.30774 0.08427 0.0
O549 O 0.35063 0.28781 0.06019 0.0
O550 O 0.33026 0.3571 0.09433 0.0
O551 O 0.35199 0.3291 0.02265 0.0
O552 O 0.3377 0.34752 0.04789 0.0
C553 C 0.33944 0.28969 0.07657 0.0
C554 C 0.39389 0.33462 0.07597 0.0
O555 O 0.37695 0.34096 0.08436 0.0
O556 O 0.39325 0.32348 0.05942 0.0
C557 C 0.31596 0.35252 0.10755 0.0
O558 O 0.31233 0.33282 0.1123 0.0
C559 C 0.34039 0.34392 0.0285 0.0
Zn560 Zn 0.40922 0.57237 0.82766 0.0
Zn561 Zn 0.40422 0.61419 0.82966 0.0
O562 O 0.39706 0.60783 0.79916 0.0
O563 O 0.39827 0.57345 0.79784 0.0
O564 O 0.40042 0.64529 0.83181 0.0
O565 O 0.44019 0.57629 0.83349 0.0
O566 O 0.4352 0.61002 0.83818 0.0
C567 C 0.39459 0.5907 0.78907 0.0
C568 C 0.37761 0.58445 0.85691 0.0
O569 O 0.38159 0.60239 0.84927 0.0
O570 O 0.38833 0.56885 0.85142 0.0
C571 C 0.38209 0.65261 0.83435 0.0
O572 O 0.36571 0.63972 0.83541 0.0
C573 C 0.4473 0.59434 0.8383 0.0
Zn574 Zn 0.07413 0.64673 0.52903 0.0
Zn575 Zn 0.09643 0.62324 0.55703 0.0
O576 O 0.10826 0.65232 0.56278 0.0
O577 O 0.09113 0.67199 0.54062 0.0
O578 O 0.11464 0.60422 0.57355 0.0
O579 O 0.08552 0.62995 0.50419 0.0
O580 O 0.10204 0.61195 0.528 0.0
C581 C 0.10452 0.67021 0.55525 0.0
C582 C 0.04925 0.62702 0.56267 0.0
O583 O 0.06697 0.62034 0.56877 0.0
O584 O 0.04794 0.6374 0.54587 0.0
C585 C 0.12491 0.60919 0.58999 0.0
O586 O 0.12217 0.62763 0.59869 0.0
C587 C 0.0977 0.61529 0.50893 0.0
Zn588 Zn 0.08657 0.42077 0.33004 0.0
Zn589 Zn 0.09327 0.37952 0.33178 0.0
O590 O 0.09343 0.38339 0.30013 0.0
O591 O 0.08911 0.41746 0.2985 0.0
O592 O 0.09895 0.34913 0.33619 0.0
O593 O 0.05812 0.4173 0.34322 0.0
O594 O 0.06398 0.38356 0.34527 0.0
C595 C 0.09181 0.39999 0.28944 0.0
C596 C 0.12473 0.41161 0.35081 0.0
O597 O 0.11953 0.39315 0.34507 0.0
O598 O 0.11258 0.42667 0.3475 0.0
C599 C 0.11545 0.34144 0.3282 0.0
O600 O 0.12766 0.35329 0.31638 0.0
C601 C 0.05202 0.39908 0.34833 0.0
Zn602 Zn 0.33245 0.73022 0.4627 0.0
Zn603 Zn 0.3731 0.72162 0.4501 0.0
O604 O 0.37299 0.70966 0.47927 0.0
O605 O 0.3413 0.71756 0.49075 0.0
O606 O 0.40148 0.71578 0.43779 0.0
O607 O 0.33758 0.76064 0.4547 0.0
O608 O 0.3703 0.75293 0.44649 0.0
C609 C 0.35898 0.70901 0.49353 0.0
C610 C 0.33488 0.70075 0.42837 0.0
O611 O 0.35454 0.70406 0.4309 0.0
O612 O 0.32169 0.71011 0.43984 0.0
C613 C 0.40615 0.69693 0.43381 0.0
O614 O 0.39338 0.6818 0.44015 0.0
C615 C 0.3557 0.76619 0.44815 0.0
Zn616 Zn 0.09767 0.68712 0.21733 0.0
Zn617 Zn 0.10917 0.65684 0.18938 0.0
O618 O 0.07748 0.65277 0.19205 0.0
O619 O 0.06689 0.67744 0.21361 0.0
O620 O 0.11673 0.63219 0.17145 0.0
O621 O 0.1158 0.67391 0.23958 0.0
O622 O 0.12561 0.65067 0.21613 0.0
C623 C 0.06273 0.66184 0.20182 0.0
C624 C 0.11779 0.70251 0.17896 0.0
O625 O 0.11776 0.68335 0.17329 0.0
O626 O 0.11096 0.70777 0.19687 0.0
C627 C 0.11369 0.62962 0.15193 0.0
O628 O 0.10578 0.64483 0.14091 0.0
C629 C 0.12654 0.65814 0.23466 0.0
Zn630 Zn 0.16048 0.28005 0.94434 0.0
Zn631 Zn 0.12077 0.28267 0.92685 0.0
O632 O 0.11578 0.29557 0.9554 0.0
O633 O 0.14658 0.29191 0.97089 0.0
O634 O 0.0934 0.28455 0.91126 0.0
O635 O 0.16041 0.24901 0.93695 0.0
O636 O 0.12783 0.25185 0.92535 0.0
C637 C 0.12769 0.29816 0.97129 0.0
C638 C 0.15837 0.30768 0.90892 0.0
O639 O 0.13915 0.3017 0.90913 0.0
O640 O 0.17117 0.30075 0.92231 0.0
C641 C 0.0874 0.30285 0.90695 0.0
O642 O 0.09796 0.31902 0.91477 0.0
C643 C 0.1438 0.24078 0.92917 0.0
Zn644 Zn 0.41665 0.33613 0.72786 0.0
Zn645 Zn 0.40099 0.36421 0.70031 0.0
O646 O 0.43268 0.36923 0.69863 0.0
O647 O 0.44639 0.34589 0.71951 0.0
O648 O 0.38993 0.38687 0.68208 0.0
O649 O 0.40071 0.3501 0.75157 0.0
O650 O 0.38727 0.37132 0.72841 0.0
C651 C 0.44873 0.36073 0.70662 0.0
C652 C 0.39261 0.31778 0.69298 0.0
O653 O 0.39144 0.33655 0.68664 0.0
O654 O 0.40165 0.31379 0.71016 0.0
C655 C 0.38563 0.38598 0.66265 0.0
O656 O 0.38805 0.3684 0.65223 0.0
C657 C 0.38862 0.36496 0.74718 0.0
Zn658 Zn 0.34726 0.03811 0.4255 0.0
Zn659 Zn 0.3672 0.06472 0.39891 0.0
O660 O 0.33587 0.06946 0.39359 0.0
O661 O 0.319 0.04879 0.41564 0.0
O662 O 0.38099 0.08138 0.37607 0.0
O663 O 0.36088 0.01323 0.41187 0.0
O664 O 0.37807 0.03557 0.39178 0.0
C665 C 0.31867 0.06242 0.40136 0.0
C666 C 0.37533 0.06958 0.44523 0.0
O667 O 0.37803 0.07688 0.4269 0.0
O668 O 0.36368 0.0535 0.44818 0.0
C669 C 0.37822 0.10061 0.37237 0.0
O670 O 0.36656 0.11166 0.38516 0.0
C671 C 0.37438 0.01689 0.39769 0.0
H672 H 0.09849 0.31534 0.35782 0.0
H673 H 0.16389 0.21657 0.32192 0.0
H674 H 0.14612 0.31829 0.30956 0.0
H675 H 0.13094 0.21948 0.38098 0.0
H676 H 0.15696 0.25355 0.31657 0.0
H677 H 0.109 0.27969 0.3657 0.0
C678 C 0.11113 0.30848 0.34884 0.0
C679 C 0.12139 0.31977 0.33294 0.0
C680 C 0.15144 0.24616 0.3308 0.0
C681 C 0.13349 0.27902 0.34191 0.0
C682 C 0.15539 0.22505 0.33388 0.0
C683 C 0.14789 0.2149 0.35188 0.0
C684 C 0.13962 0.25715 0.34568 0.0
C685 C 0.13703 0.22669 0.36689 0.0
C686 C 0.1172 0.28818 0.35346 0.0
C687 C 0.13776 0.31015 0.32193 0.0
N688 N 0.13299 0.24715 0.36333 0.0
N689 N 0.14321 0.29028 0.32653 0.0
H690 H 0.03694 0.8525 0.63076 0.0
H691 H 0.9113 0.85171 0.63409 0.0
H692 H 0.00156 0.81926 0.67825 0.0
H693 H 0.94687 0.85155 0.5765 0.0
H694 H 0.94448 0.84962 0.65377 0.0
H695 H 0.00381 0.86202 0.6142 0.0
C696 C 0.0222 0.84742 0.63788 0.0
C697 C 0.02199 0.83486 0.65581 0.0
C698 C 0.94494 0.85035 0.63684 0.0
C699 C 0.98414 0.84594 0.63701 0.0
C700 C 0.92611 0.8517 0.62563 0.0
C701 C 0.92642 0.85169 0.60366 0.0
C702 C 0.96412 0.84947 0.62596 0.0
C703 C 0.94598 0.85144 0.59342 0.0
C704 C 0.00335 0.85282 0.62836 0.0
C705 C 0.00241 0.82877 0.66433 0.0
N706 N 0.96409 0.85033 0.60467 0.0
N707 N 0.9842 0.83435 0.65481 0.0
H708 H 0.39188 0.78767 0.82839 0.0
H709 H 0.34923 0.67245 0.85293 0.0
H710 H 0.35534 0.77335 0.88367 0.0
H711 H 0.40856 0.68435 0.82157 0.0
H712 H 0.3456 0.71019 0.85841 0.0
H713 H 0.39223 0.75027 0.81967 0.0
C714 C 0.3837 0.77669 0.83853 0.0
C715 C 0.37366 0.78356 0.85684 0.0
C716 C 0.35934 0.70448 0.85025 0.0
C717 C 0.3739 0.74099 0.84687 0.0
C718 C 0.36139 0.68301 0.84705 0.0
C719 C 0.37929 0.67532 0.83691 0.0
C720 C 0.37507 0.7183 0.84286 0.0
C721 C 0.39461 0.68966 0.82964 0.0
C722 C 0.38403 0.75541 0.83361 0.0
C723 C 0.3634 0.76867 0.8695 0.0
N724 N 0.39212 0.71052 0.83269 0.0
N725 N 0.36374 0.74805 0.86425 0.0
H726 H 0.44628 0.13395 0.13069 0.0
H727 H 0.56904 0.14018 0.10636 0.0
H728 H 0.48969 0.16964 0.16981 0.0
H729 H 0.52242 0.13965 0.05706 0.0
H730 H 0.54067 0.14238 0.13227 0.0
H731 H 0.47493 0.12766 0.10592 0.0
C732 C 0.46189 0.1403 0.13417 0.0
C733 C 0.46564 0.15241 0.1523 0.0
C734 C 0.53672 0.14158 0.11578 0.0
C735 C 0.49839 0.14499 0.12419 0.0
C736 C 0.55282 0.14013 0.101 0.0
C737 C 0.54803 0.13977 0.07952 0.0
C738 C 0.5157 0.14219 0.10905 0.0
C739 C 0.52677 0.13998 0.07346 0.0
C740 C 0.47815 0.13677 0.11999 0.0
C741 C 0.48614 0.16034 0.15596 0.0
N742 N 0.51133 0.14112 0.08817 0.0
N743 N 0.50183 0.15639 0.14204 0.0
H744 H 0.14027 0.7381 0.18795 0.0
H745 H 0.10051 0.80045 0.09292 0.0
H746 H 0.10941 0.70492 0.13707 0.0
H747 H 0.1602 0.81682 0.12191 0.0
H748 H 0.10178 0.76588 0.10925 0.0
H749 H 0.14648 0.768 0.16487 0.0
C750 C 0.13511 0.73704 0.1718 0.0
C751 C 0.12435 0.71911 0.16433 0.0
C752 C 0.11477 0.77694 0.11166 0.0
C753 C 0.13082 0.75334 0.13811 0.0
C754 C 0.11402 0.79665 0.10243 0.0
C755 C 0.1302 0.81155 0.10618 0.0
C756 C 0.1315 0.77239 0.12516 0.0
C757 C 0.14738 0.80581 0.1186 0.0
C758 C 0.13869 0.75403 0.15865 0.0
C759 C 0.11789 0.71847 0.14331 0.0
N760 N 0.14737 0.78684 0.12801 0.0
N761 N 0.12081 0.73557 0.131 0.0
H762 H 0.50694 0.86086 0.32733 0.0
H763 H 0.57476 0.77623 0.38771 0.0
H764 H 0.49624 0.79417 0.3209 0.0
H765 H 0.58404 0.84305 0.39454 0.0
H766 H 0.54724 0.78226 0.36175 0.0
H767 H 0.53725 0.85438 0.34964 0.0
C768 C 0.51113 0.84483 0.33034 0.0
C769 C 0.49888 0.82804 0.32235 0.0
C770 C 0.55531 0.79559 0.36893 0.0
C771 C 0.53345 0.82051 0.34823 0.0
C772 C 0.57095 0.79216 0.38383 0.0
C773 C 0.58166 0.80917 0.39339 0.0
C774 C 0.55035 0.81617 0.36354 0.0
C775 C 0.57614 0.82947 0.38766 0.0
C776 C 0.5284 0.84114 0.3432 0.0
C777 C 0.50516 0.80761 0.32676 0.0
N778 N 0.56088 0.83239 0.37313 0.0
N779 N 0.52189 0.80442 0.33959 0.0
H780 H 0.35206 0.19577 0.65065 0.0
H781 H 0.39159 0.31516 0.65017 0.0
H782 H 0.39497 0.21989 0.60372 0.0
H783 H 0.3763 0.28046 0.70596 0.0
H784 H 0.38338 0.28364 0.62902 0.0
H785 H 0.351 0.23048 0.6666 0.0
C786 C 0.36102 0.20841 0.64347 0.0
C787 C 0.37398 0.2048 0.62603 0.0
C788 C 0.38153 0.28312 0.64587 0.0
C789 C 0.37268 0.2446 0.64426 0.0
C790 C 0.38608 0.30105 0.6579 0.0
C791 C 0.38477 0.30026 0.67981 0.0
C792 C 0.3752 0.26457 0.65588 0.0
C793 C 0.3777 0.28162 0.68912 0.0
C794 C 0.36042 0.22821 0.65264 0.0
C795 C 0.38501 0.22191 0.61732 0.0
N796 N 0.37321 0.2645 0.67711 0.0
N797 N 0.38429 0.2411 0.62667 0.0
H798 H 0.00639 0.19777 0.8201 0.0
H799 H 0.92665 0.15462 0.90761 0.0
H800 H -0.00112 0.13239 0.83552 0.0
H801 H 0.93725 0.22025 0.89498 0.0
H802 H 0.95147 0.14602 0.87977 0.0
H803 H 0.97878 0.20602 0.84529 0.0
C804 C -0.00125 0.1851 0.82855 0.0
C805 C 0.0051 0.16435 0.82576 0.0
C806 C 0.94838 0.16231 0.88309 0.0
C807 C 0.97363 0.17377 0.85487 0.0
C808 C 0.93426 0.16724 0.89905 0.0
C809 C 0.92991 0.1882 0.9037 0.0
C810 C 0.95821 0.17844 0.87164 0.0
C811 C 0.94018 0.20388 0.89201 0.0
C812 C 0.98306 0.18985 0.84304 0.0
C813 C 0.99458 0.14861 0.83718 0.0
N814 N 0.95384 0.19867 0.87651 0.0
N815 N 0.97949 0.15367 0.85134 0.0
H816 H 0.40322 0.11246 0.2412 0.0
H817 H 0.37783 0.14153 0.35948 0.0
H818 H 0.41061 0.17566 0.26483 0.0
H819 H 0.3955 0.07967 0.3394 0.0
H820 H 0.38742 0.15477 0.32472 0.0
H821 H 0.39751 0.10032 0.27694 0.0
C822 C 0.40366 0.12378 0.25392 0.0
C823 C 0.40738 0.1451 0.25004 0.0
C824 C 0.38936 0.13834 0.32807 0.0
C825 C 0.40071 0.13133 0.29096 0.0
C826 C 0.38388 0.13078 0.34786 0.0
C827 C 0.38577 0.10945 0.35233 0.0
C828 C 0.39643 0.12439 0.31262 0.0
C829 C 0.39373 0.09622 0.33668 0.0
C830 C 0.40051 0.11683 0.27432 0.0
C831 C 0.40787 0.15907 0.26715 0.0
N832 N 0.39854 0.10386 0.31748 0.0
N833 N 0.40438 0.15197 0.28688 0.0
H834 H 0.11388 0.1255 0.43163 0.0
H835 H 0.14011 0.11275 0.55301 0.0
H836 H 0.15657 0.16776 0.4647 0.0
H837 H 0.12576 0.0614 0.51077 0.0
H838 H 0.13572 0.13725 0.52389 0.0
H839 H 0.10758 0.10659 0.46404 0.0
C840 C 0.12171 0.13104 0.44576 0.0
C841 C 0.13616 0.14803 0.44532 0.0
C842 C 0.13312 0.12064 0.52119 0.0
C843 C 0.1288 0.1264 0.48253 0.0
C844 C 0.13543 0.10671 0.53776 0.0
C845 C 0.13339 0.08507 0.53416 0.0
C846 C 0.12829 0.1128 0.50112 0.0
C847 C 0.12759 0.07798 0.51411 0.0
C848 C 0.11808 0.12019 0.46425 0.0
C849 C 0.14555 0.15459 0.46425 0.0
N850 N 0.12531 0.0918 0.49832 0.0
N851 N 0.14189 0.1436 0.48211 0.0
H852 H 0.18374 0.89243 0.79216 0.0
H853 H 0.08761 0.81956 0.75249 0.0
H854 H 0.12928 0.87877 0.83068 0.0
H855 H 0.13389 0.84957 0.71253 0.0
H856 H 0.10606 0.83447 0.78318 0.0
H857 H 0.16944 0.86912 0.76517 0.0
C858 C 0.16886 0.8843 0.79505 0.0
C859 C 0.15747 0.88785 0.81352 0.0
C860 C 0.11221 0.83759 0.76767 0.0
C861 C 0.14086 0.86129 0.7825 0.0
C862 C 0.10173 0.8291 0.75019 0.0
C863 C 0.10912 0.83354 0.72995 0.0
C864 C 0.1303 0.8503 0.7648 0.0
C865 C 0.12749 0.84595 0.72783 0.0
C866 C 0.16068 0.87103 0.7796 0.0
C867 C 0.13847 0.87658 0.81657 0.0
N868 N 0.13739 0.85391 0.74502 0.0
N869 N 0.13055 0.864 0.80102 0.0
H870 H 0.34432 0.82889 0.95718 0.0
H871 H 0.36996 0.88589 0.0662 0.0
H872 H 0.40803 0.84181 0.9784 0.0
H873 H 0.31316 0.89362 0.03005 0.0
H874 H 0.38227 0.86076 0.03975 0.0
H875 H 0.33106 0.84252 0.99028 0.0
C876 C 0.35557 0.83418 0.96896 0.0
C877 C 0.37732 0.83473 0.96479 0.0
C878 C 0.36701 0.86781 0.03784 0.0
C879 C 0.36217 0.85045 0.00263 0.0
C880 C 0.35999 0.8821 0.05285 0.0
C881 C 0.34068 0.89205 0.05007 0.0
C882 C 0.35439 0.86321 0.02027 0.0
C883 C 0.32831 0.88656 0.0326 0.0
C884 C 0.34796 0.84203 0.98782 0.0
C885 C 0.39113 0.84142 0.98083 0.0
N886 N 0.3354 0.87255 0.01834 0.0
N887 N 0.3833 0.84939 -0.00103 0.0
H888 H 0.42673 0.88799 0.24626 0.0
H889 H 0.3606 0.85423 0.14425 0.0
H890 H 0.4126 0.82362 0.22946 0.0
H891 H 0.3727 0.91821 0.16378 0.0
H892 H 0.38201 0.84245 0.17362 0.0
H893 H 0.40991 0.89905 0.21405 0.0
C894 C 0.42026 0.87615 0.23571 0.0
C895 C 0.42092 0.85484 0.24069 0.0
C896 C 0.38002 0.85906 0.1714 0.0
C897 C 0.4014 0.86745 0.20377 0.0
C898 C 0.36778 0.8658 0.15467 0.0
C899 C 0.36473 0.88723 0.15163 0.0
C900 C 0.38929 0.87388 0.18515 0.0
C901 C 0.37449 0.90152 0.16557 0.0
C902 C 0.41059 0.88249 0.21731 0.0
C903 C 0.41237 0.84022 0.22631 0.0
N904 N 0.38626 0.89458 0.18172 0.0
N905 N 0.4028 0.84681 0.20857 0.0
H906 H 0.41424 0.08296 0.5714 0.0
H907 H 0.37841 0.11136 0.45547 0.0
H908 H 0.38175 0.13962 0.55673 0.0
H909 H 0.39472 0.05002 0.47682 0.0
H910 H 0.38915 0.12596 0.48983 0.0
H911 H 0.41738 0.07534 0.53415 0.0
C912 C 0.40802 0.09397 0.56031 0.0
C913 C 0.39727 0.1117 0.56717 0.0
C914 C 0.39078 0.10939 0.48676 0.0
C915 C 0.40056 0.10289 0.52443 0.0
C916 C 0.38479 0.10112 0.4672 0.0
C917 C 0.3855 0.07949 0.46357 0.0
C918 C 0.39777 0.09587 0.50244 0.0
C919 C 0.39371 0.06676 0.47918 0.0
C920 C 0.40981 0.0896 0.53903 0.0
C921 C 0.38991 0.12563 0.55208 0.0
N922 N 0.39938 0.07512 0.49796 0.0
N923 N 0.39132 0.12072 0.53135 0.0
H924 H 0.07666 0.16584 0.72206 0.0
H925 H 0.1059 0.0668 0.65131 0.0
H926 H 0.06755 0.10168 0.74128 0.0
H927 H 0.12004 0.13065 0.63372 0.0
H928 H 0.0881 0.07956 0.68256 0.0
H929 H 0.08866 0.15345 0.68787 0.0
C930 C 0.07695 0.14915 0.71904 0.0
C931 C 0.07126 0.13477 0.73467 0.0
C932 C 0.09499 0.09081 0.67183 0.0
C933 C 0.08511 0.12052 0.69558 0.0
C934 C 0.10518 0.08353 0.65395 0.0
C935 C 0.11467 0.09768 0.63994 0.0
C936 C 0.09426 0.11241 0.67582 0.0
C937 C 0.11308 0.11917 0.64415 0.0
C938 C 0.08388 0.1421 0.69952 0.0
C939 C 0.07192 0.11335 0.7298 0.0
N940 N 0.10318 0.12588 0.66179 0.0
N941 N 0.07886 0.10688 0.71075 0.0
H942 H 0.09111 0.93167 0.03278 0.0
H943 H 0.14271 0.89089 0.92604 0.0
H944 H 0.11779 0.87033 0.02689 0.0
H945 H 0.12902 0.95535 0.94002 0.0
H946 H 0.12879 0.88105 0.96059 0.0
H947 H 0.09942 0.93822 0.99627 0.0
C948 C 0.09857 0.91946 0.02376 0.0
C949 C 0.104 0.9005 0.03305 0.0
C950 C 0.12877 0.89731 0.95598 0.0
C951 C 0.11375 0.90804 0.99101 0.0
C952 C 0.13665 0.90293 0.93629 0.0
C953 C 0.13716 0.924 0.93021 0.0
C954 C 0.12115 0.91286 0.96951 0.0
C955 C 0.12912 0.93896 0.94409 0.0
C956 C 0.10337 0.92326 0.00287 0.0
C957 C 0.11343 0.88521 0.02041 0.0
N958 N 0.12148 0.9331 0.96303 0.0
N959 N 0.1182 0.88939 4e-05 0.0
H960 H 0.28056 0.34815 0.13204 0.0
H961 H 0.22959 0.4472 0.08161 0.0
H962 H 0.31603 0.3936 0.09594 0.0
H963 H 0.19856 0.41079 0.12969 0.0
H964 H 0.26254 0.42981 0.08945 0.0
H965 H 0.2517 0.37277 0.13474 0.0
C966 C 0.28247 0.36344 0.12504 0.0
C967 C 0.30057 0.36863 0.11338 0.0
C968 C 0.24861 0.42584 0.09853 0.0
C969 C 0.26751 0.39674 0.11614 0.0
C970 C 0.22977 0.43574 0.094 0.0
C971 C 0.21123 0.43023 0.1048 0.0
C972 C 0.24884 0.41007 0.11371 0.0
C973 C 0.21244 0.41541 0.12085 0.0
C974 C 0.26597 0.37749 0.12656 0.0
C975 C 0.30224 0.38876 0.10481 0.0
N976 N 0.23084 0.40559 0.12458 0.0
N977 N 0.28576 0.40192 0.10602 0.0
H978 H 0.80571 0.07249 0.89718 0.0
H979 H 0.80094 0.19125 0.91942 0.0
H980 H 0.75816 0.10939 0.86742 0.0
H981 H 0.86144 0.1624 0.91171 0.0
H982 H 0.78414 0.1609 0.90196 0.0
H983 H 0.82652 0.10462 0.90395 0.0
C984 C 0.79987 0.08728 0.89171 0.0
C985 C 0.78014 0.08834 0.8819 0.0
C986 C 0.80114 0.16144 0.90382 0.0
C987 C 0.80345 0.12493 0.89005 0.0
C988 C 0.81067 0.17864 0.91385 0.0
C989 C 0.83254 0.17922 0.91708 0.0
C990 C 0.81352 0.14455 0.89756 0.0
C991 C 0.84451 0.16253 0.90951 0.0
C992 C 0.81173 0.10555 0.89555 0.0
C993 C 0.77329 0.10788 0.87508 0.0
N994 N 0.83478 0.14564 0.90045 0.0
N995 N 0.78471 0.12551 0.87973 0.0
H996 H 0.14061 0.52399 0.07009 0.0
H997 H 0.12158 0.59324 0.17204 0.0
H998 H 0.12471 0.4984 0.13056 0.0
H999 H 0.11399 0.61858 0.11011 0.0
H1000 H 0.12631 0.55876 0.15663 0.0
H1001 H 0.13357 0.55913 0.08386 0.0
C1002 C 0.13547 0.52571 0.08617 0.0
C1003 C 0.13335 0.50821 0.09922 0.0
C1004 C 0.12357 0.57183 0.14637 0.0
C1005 C 0.12562 0.54826 0.11505 0.0
C1006 C 0.121 0.59159 0.15516 0.0
C1007 C 0.11738 0.60887 0.14235 0.0
C1008 C 0.12278 0.56922 0.12456 0.0
C1009 C 0.11671 0.60567 0.12056 0.0
C1010 C 0.13147 0.54575 0.09399 0.0
C1011 C 0.12661 0.51138 0.11991 0.0
N1012 N 0.11949 0.58621 0.11231 0.0
N1013 N 0.1232 0.531 0.12721 0.0
H1014 H 0.64609 0.84037 0.39429 0.0
H1015 H 0.74489 0.90947 0.35798 0.0
H1016 H 0.71049 0.81972 0.39555 0.0
H1017 H 0.69313 0.9344 0.39368 0.0
H1018 H 0.72629 0.87571 0.35624 0.0
H1019 H 0.65829 0.87348 0.37908 0.0
C1020 C 0.66272 0.84254 0.39083 0.0
C1021 C 0.67741 0.82744 0.39651 0.0
C1022 C 0.71879 0.88878 0.3639 0.0
C1023 C 0.69119 0.86498 0.37881 0.0
C1024 C 0.72931 0.90811 0.36488 0.0
C1025 C 0.72082 0.92464 0.3766 0.0
C1026 C 0.69953 0.88612 0.37434 0.0
C1027 C 0.70045 0.92196 0.38489 0.0
C1028 C 0.6696 0.86143 0.38219 0.0
C1029 C 0.69873 0.83109 0.39168 0.0
N1030 N 0.69061 0.90287 0.38392 0.0
N1031 N 0.70503 0.84962 0.38324 0.0
H1032 H 0.88456 0.89139 0.10876 0.0
H1033 H 0.83111 0.001 0.12372 0.0
H1034 H 0.8431 0.90637 0.16015 0.0
H1035 H 0.84976 0.97974 0.06224 0.0
H1036 H 0.83773 0.96651 0.13741 0.0
H1037 H 0.87363 0.92336 0.09105 0.0
C1038 C 0.87299 0.90121 0.11619 0.0
C1039 C 0.86496 0.89635 0.13611 0.0
C1040 C 0.84029 0.96926 0.12089 0.0
C1041 C 0.85266 0.93282 0.1161 0.0
C1042 C 0.83666 0.98904 0.11306 0.0
C1043 C 0.84001 0.99328 0.09181 0.0
C1044 C 0.84767 0.95354 0.1075 0.0
C1045 C 0.847 0.97707 0.07874 0.0
C1046 C 0.86677 0.91941 0.10607 0.0
C1047 C 0.84994 0.90958 0.14495 0.0
N1048 N 0.85084 0.95788 0.08685 0.0
N1049 N 0.84449 0.9273 0.13501 0.0
H1050 H 0.13615 0.5714 0.57359 0.0
H1051 H 0.24951 0.57558 0.62804 0.0
H1052 H 0.15486 0.61752 0.6202 0.0
H1053 H 0.23488 0.54101 0.57129 0.0
H1054 H 0.21246 0.58498 0.63088 0.0
H1055 H 0.16953 0.55393 0.5787 0.0
C1056 C 0.1471 0.57767 0.58518 0.0
C1057 C 0.14286 0.59622 0.5962 0.0
C1058 C 0.21734 0.57515 0.61795 0.0
C1059 C 0.18119 0.5763 0.60198 0.0
C1060 C 0.23848 0.56973 0.61631 0.0
C1061 C 0.24539 0.55772 0.59921 0.0
C1062 C 0.20297 0.56841 0.60247 0.0
C1063 C 0.23033 0.55051 0.58458 0.0
C1064 C 0.16621 0.5677 0.58802 0.0
C1065 C 0.15757 0.60342 0.61118 0.0
N1066 N 0.20986 0.5561 0.58646 0.0
N1067 N 0.17624 0.5936 0.61343 0.0
H1068 H 0.13708 0.43161 0.38662 0.0
H1069 H 0.22411 0.48907 0.33773 0.0
H1070 H 0.16079 0.40345 0.33005 0.0
H1071 H 0.23245 0.47364 0.40282 0.0
H1072 H 0.2025 0.45712 0.33316 0.0
H1073 H 0.1723 0.44684 0.39348 0.0
C1074 C 0.14992 0.42815 0.37604 0.0
C1075 C 0.14629 0.41632 0.35785 0.0
C1076 C 0.20975 0.46038 0.34823 0.0
C1077 C 0.18599 0.43419 0.36502 0.0
C1078 C 0.22204 0.47859 0.35085 0.0
C1079 C 0.2297 0.48419 0.37076 0.0
C1080 C 0.20462 0.44826 0.36579 0.0
C1081 C 0.22662 0.47003 0.38724 0.0
C1082 C 0.16995 0.43673 0.37994 0.0
C1083 C 0.16322 0.41243 0.34433 0.0
N1084 N 0.2136 0.45308 0.3846 0.0
N1085 N 0.18229 0.42195 0.34782 0.0
H1086 H 0.37156 0.55907 0.89053 0.0
H1087 H 0.26909 0.52072 0.85447 0.0
H1088 H 0.33923 0.60057 0.84912 0.0
H1089 H 0.27642 0.52337 0.92154 0.0
H1090 H 0.29389 0.55052 0.8514 0.0
H1091 H 0.33729 0.54593 0.90325 0.0
C1092 C 0.35723 0.56586 0.88465 0.0
C1093 C 0.35807 0.58079 0.86876 0.0
C1094 C 0.28944 0.54505 0.86683 0.0
C1095 C 0.31919 0.56541 0.88253 0.0
C1096 C 0.27538 0.52809 0.86855 0.0
C1097 C 0.27084 0.51973 0.88825 0.0
C1098 C 0.29963 0.55291 0.88484 0.0
C1099 C 0.27953 0.52956 0.90609 0.0
C1100 C 0.33775 0.55845 0.89192 0.0
C1101 C 0.33913 0.58906 0.86146 0.0
N1102 N 0.29416 0.54523 0.90394 0.0
N1103 N 0.32035 0.5807 0.86787 0.0
H1104 H 0.85187 0.6831 0.62936 0.0
H1105 H 0.82861 0.8045 0.6215 0.0
H1106 H 0.85901 0.72796 0.67983 0.0
H1107 H 0.85095 0.76697 0.56987 0.0
H1108 H 0.82414 0.77283 0.64221 0.0
H1109 H 0.83657 0.71039 0.60761 0.0
C1110 C 0.8496 0.69851 0.63607 0.0
C1111 C 0.85702 0.70349 0.65624 0.0
C1112 C 0.82948 0.77152 0.62615 0.0
C1113 C 0.83945 0.73444 0.63169 0.0
C1114 C 0.83201 0.78957 0.61426 0.0
C1115 C 0.84084 0.78846 0.59413 0.0
C1116 C 0.83567 0.75226 0.61777 0.0
C1117 C 0.8446 0.76861 0.58551 0.0
C1118 C 0.84095 0.71403 0.62365 0.0
C1119 C 0.85378 0.72365 0.66421 0.0
N1120 N 0.84238 0.75127 0.59755 0.0
N1121 N 0.84542 0.73847 0.65183 0.0
H1122 H 0.99216 0.07244 0.31233 0.0
H1123 H 0.07976 0.13802 0.37421 0.0
H1124 H 0.97808 0.12766 0.34862 0.0
H1125 H 0.09371 0.10947 0.31439 0.0
H1126 H 0.04275 0.12792 0.36974 0.0
H1127 H 0.02998 0.07991 0.3175 0.0
C1128 C -0.00297 0.08602 0.32152 0.0
C1129 C 0.98204 0.09949 0.33008 0.0
C1130 C 0.05395 0.1238 0.35765 0.0
C1131 C 0.02496 0.10786 0.33616 0.0
C1132 C 0.0751 0.12943 0.3602 0.0
C1133 C 0.08985 0.12465 0.34457 0.0
C1134 C 0.04749 0.11299 0.33953 0.0
C1135 C 0.08282 0.11355 0.32674 0.0
C1136 C 0.01854 0.0903 0.32432 0.0
C1137 C 0.98915 0.11695 0.34171 0.0
N1138 N 0.06205 0.10801 0.32471 0.0
N1139 N 0.01014 0.12056 0.34454 0.0
H1140 H 0.64672 0.19105 0.07805 0.0
H1141 H 0.60415 0.30412 0.10471 0.0
H1142 H 0.60674 0.22582 0.0368 0.0
H1143 H 0.61498 0.25534 0.1494 0.0
H1144 H 0.61981 0.28221 0.07724 0.0
H1145 H 0.65049 0.22191 0.10055 0.0
C1146 C 0.63925 0.20533 0.07333 0.0
C1147 C 0.62569 0.2056 0.05593 0.0
C1148 C 0.61933 0.27666 0.09321 0.0
C1149 C 0.63009 0.24089 0.08161 0.0
C1150 C 0.61048 0.28911 0.10885 0.0
C1151 C 0.60802 0.28127 0.12918 0.0
C1152 C 0.62606 0.25653 0.09816 0.0
C1153 C 0.61634 0.26175 0.1338 0.0
C1154 C 0.64142 0.22292 0.08623 0.0
C1155 C 0.61687 0.22474 0.05038 0.0
N1156 N 0.62483 0.24993 0.11834 0.0
N1157 N 0.61881 0.24154 0.06348 0.0
H1158 H 0.44824 0.83764 0.90551 0.0
H1159 H 0.54045 0.91429 0.86587 0.0
H1160 H 0.43928 0.89411 0.87048 0.0
H1161 H 0.54833 0.84773 0.87233 0.0
H1162 H 0.50529 0.91069 0.881 0.0
H1163 H 0.48653 0.84513 0.90586 0.0
C1164 C 0.4543 0.85188 0.89841 0.0
C1165 C 0.44078 0.8652 0.88772 0.0
C1166 C 0.5149 0.89695 0.87948 0.0
C1167 C 0.48406 0.87389 0.88833 0.0
C1168 C 0.53499 0.89896 0.87087 0.0
C1169 C 0.54712 0.88117 0.86727 0.0
C1170 C 0.50687 0.87705 0.88458 0.0
C1171 C 0.53934 0.86179 0.87447 0.0
C1172 C 0.47606 0.85606 0.89854 0.0
C1173 C 0.44929 0.88336 0.87865 0.0
N1174 N 0.51948 0.86016 0.88247 0.0
N1175 N 0.47042 0.88712 0.87907 0.0
H1176 H 0.83303 0.2788 0.92118 0.0
H1177 H 0.90865 0.35504 0.85668 0.0
H1178 H 0.89851 0.29005 0.93675 0.0
H1179 H 0.8707 0.30576 0.82793 0.0
H1180 H 0.89392 0.34556 0.8908 0.0
H1181 H 0.83661 0.30375 0.89233 0.0
C1182 C 0.84785 0.28733 0.91919 0.0
C1183 C 0.86559 0.28238 0.93116 0.0
C1184 C 0.88835 0.33736 0.87687 0.0
C1185 C 0.8696 0.31078 0.89863 0.0
C1186 C 0.89668 0.3427 0.85741 0.0
C1187 C 0.89115 0.33085 0.83952 0.0
C1188 C 0.87404 0.32046 0.8783 0.0
C1189 C 0.87561 0.31504 0.8414 0.0
C1190 C 0.84988 0.30136 0.90267 0.0
C1191 C 0.88454 0.29348 0.92775 0.0
N1192 N 0.86772 0.31012 0.86056 0.0
N1193 N 0.88615 0.30706 0.91158 0.0
H1194 H 0.42025 0.15968 0.67246 0.0
H1195 H 0.53457 0.12119 0.69731 0.0
H1196 H 0.43569 0.09432 0.67559 0.0
H1197 H 0.5146 0.1832 0.7142 0.0
H1198 H 0.49786 0.11085 0.69093 0.0
H1199 H 0.45373 0.16865 0.68971 0.0
C1200 C 0.4305 0.14719 0.67709 0.0
C1201 C 0.4253 0.12623 0.67227 0.0
C1202 C 0.50143 0.12665 0.69631 0.0
C1203 C 0.4637 0.13642 0.69173 0.0
C1204 C 0.52241 0.13258 0.69986 0.0
C1205 C 0.52762 0.15315 0.70607 0.0
C1206 C 0.48556 0.14148 0.69857 0.0
C1207 C 0.51123 0.1672 0.70935 0.0
C1208 C 0.4496 0.15233 0.68695 0.0
C1209 C 0.43911 0.1107 0.67879 0.0
N1210 N 0.49091 0.16121 0.70521 0.0
N1211 N 0.45784 0.11614 0.68785 0.0
H1212 H 0.68175 0.72422 0.40175 0.0
H1213 H 0.59174 0.64315 0.36633 0.0
H1214 H 0.62393 0.71276 0.43564 0.0
H1215 H 0.62405 0.68646 0.32529 0.0
H1216 H 0.61567 0.65405 0.39479 0.0
H1217 H 0.67233 0.6952 0.37785 0.0
C1218 C 0.66763 0.71488 0.4048 0.0
C1219 C 0.65341 0.72087 0.42042 0.0
C1220 C 0.61795 0.66053 0.37932 0.0
C1221 C 0.64273 0.68797 0.39348 0.0
C1222 C 0.60437 0.65437 0.3631 0.0
C1223 C 0.60572 0.66433 0.34364 0.0
C1224 C 0.63315 0.67637 0.37579 0.0
C1225 C 0.62229 0.67875 0.34023 0.0
C1226 C 0.66223 0.69847 0.39112 0.0
C1227 C 0.63516 0.70859 0.42361 0.0
N1228 N 0.63524 0.68457 0.35628 0.0
N1229 N 0.63014 0.69284 0.41 0.0
H1230 H 0.05268 0.85154 0.13595 0.0
H1231 H 0.93766 0.88899 0.16615 0.0
H1232 H 0.03145 0.91428 0.12528 0.0
H1233 H 0.96642 0.83611 0.19549 0.0
H1234 H 0.9711 0.89723 0.14884 0.0
H1235 H 0.02012 0.84406 0.15544 0.0
C1236 C 0.04116 0.86371 0.13766 0.0
C1237 C 0.04476 0.88355 0.12896 0.0
C1238 C 0.97014 0.88392 0.15919 0.0
C1239 C 0.00758 0.87509 0.15112 0.0
C1240 C 0.95106 0.87918 0.16906 0.0
C1241 C 0.94926 0.86183 0.18227 0.0
C1242 C 0.98749 0.87102 0.16228 0.0
C1243 C 0.96715 0.84969 0.18549 0.0
C1244 C 0.02267 0.85947 0.14887 0.0
C1245 C 0.02936 0.89877 0.13175 0.0
N1246 N 0.9855 0.8544 0.17539 0.0
N1247 N 0.0114 0.89418 0.14248 0.0
H1248 H 0.64877 0.86098 0.66907 0.0
H1249 H 0.56093 0.88067 0.75546 0.0
H1250 H 0.60035 0.90727 0.66562 0.0
H1251 H 0.61583 0.84339 0.76593 0.0
H1252 H 0.56917 0.88135 0.7182 0.0
H1253 H 0.63157 0.84654 0.70035 0.0
C1254 C 0.63438 0.86791 0.67472 0.0
C1255 C 0.6262 0.88561 0.66504 0.0
C1256 C 0.57919 0.87264 0.72857 0.0
C1257 C 0.60641 0.86909 0.7005 0.0
C1258 C 0.57442 0.87214 0.74983 0.0
C1259 C 0.58803 0.86243 0.76386 0.0
C1260 C 0.59785 0.8636 0.72135 0.0
C1261 C 0.60508 0.85133 0.75567 0.0
C1262 C 0.62457 0.85965 0.69252 0.0
C1263 C 0.60744 0.89387 0.67286 0.0
N1264 N 0.60983 0.85265 0.73497 0.0
N1265 N 0.5983 0.88566 0.69022 0.0
H1266 H 0.83074 0.89654 0.54715 0.0
H1267 H 0.82174 0.92448 0.42579 0.0
H1268 H 0.86473 0.86439 0.49837 0.0
H1269 H 0.78003 0.94829 0.47342 0.0
H1270 H 0.84058 0.9054 0.45265 0.0
H1271 H 0.81495 0.9186 0.52073 0.0
C1272 C 0.83497 0.89416 0.53089 0.0
C1273 C 0.849 0.87848 0.52495 0.0
C1274 C 0.82735 0.91486 0.45722 0.0
C1275 C 0.83094 0.90374 0.49462 0.0
C1276 C 0.81661 0.92581 0.44191 0.0
C1277 C 0.79918 0.93791 0.44734 0.0
C1278 C 0.82069 0.91608 0.47814 0.0
C1279 C 0.79329 0.93906 0.46849 0.0
C1280 C 0.82591 0.90676 0.51581 0.0
C1281 C 0.85391 0.87619 0.50364 0.0
N1282 N 0.804 0.92823 0.48311 0.0
N1283 N 0.84484 0.88866 0.48923 0.0
H1284 H 0.84646 0.05314 0.16355 0.0
H1285 H 0.89669 0.12472 0.25455 0.0
H1286 H 0.85784 0.11959 0.15663 0.0
H1287 H 0.89512 0.05714 0.25482 0.0
H1288 H 0.8807 0.12384 0.21966 0.0
H1289 H 0.86182 0.05513 0.19836 0.0
C1290 C 0.8521 0.06821 0.16939 0.0
C1291 C 0.85095 0.08623 0.15709 0.0
C1292 C 0.88395 0.10924 0.22736 0.0
C1293 C 0.86871 0.08857 0.19706 0.0
C1294 C 0.89309 0.10971 0.24725 0.0
C1295 C 0.89725 0.09096 0.25763 0.0
C1296 C 0.87881 0.08989 0.21791 0.0
C1297 C 0.89223 0.07198 0.24744 0.0
C1298 C 0.86096 0.06931 0.18928 0.0
C1299 C 0.85847 0.10531 0.16556 0.0
N1300 N 0.88321 0.07195 0.22819 0.0
N1301 N 0.86709 0.10598 0.18506 0.0
H1302 H 0.69433 0.04333 0.94989 0.0
H1303 H 0.60622 0.12953 0.96362 0.0
H1304 H 0.66984 0.07863 0.89828 0.0
H1305 H 0.62826 0.09022 0.01334 0.0
H1306 H 0.6262 0.10856 0.93848 0.0
H1307 H 0.66731 0.05792 0.9725 0.0
C1308 C 0.68316 0.05403 0.94326 0.0
C1309 C 0.6845 0.05993 0.92222 0.0
C1310 C 0.6264 0.10439 0.95486 0.0
C1311 C 0.65355 0.07688 0.94808 0.0
C1312 C 0.61494 0.1163 0.96919 0.0
C1313 C 0.61584 0.11182 0.99063 0.0
C1314 C 0.6388 0.08795 0.96211 0.0
C1315 C 0.62737 0.09447 0.997 0.0
C1316 C 0.66769 0.06235 0.95619 0.0
C1317 C 0.66947 0.07373 0.91445 0.0
N1318 N 0.63855 0.08335 0.98285 0.0
N1319 N 0.65477 0.08193 0.92746 0.0
H1320 H 0.6926 0.06939 0.80457 0.0
H1321 H 0.62728 0.1705 0.77456 0.0
H1322 H 0.68829 0.12421 0.84416 0.0
H1323 H 0.63722 0.11891 0.73185 0.0
H1324 H 0.64968 0.15369 0.80021 0.0
H1325 H 0.6724 0.08716 0.77766 0.0
C1326 C 0.68747 0.08518 0.80759 0.0
C1327 C 0.69209 0.0953 0.82668 0.0
C1328 C 0.64704 0.14608 0.7852 0.0
C1329 C 0.66892 0.1157 0.79599 0.0
C1330 C 0.63422 0.15567 0.77053 0.0
C1331 C 0.6303 0.14609 0.75102 0.0
C1332 C 0.65593 0.12669 0.78041 0.0
C1333 C 0.63979 0.12688 0.74669 0.0
C1334 C 0.67596 0.09532 0.79221 0.0
C1335 C 0.68507 0.11578 0.8297 0.0
N1336 N 0.65209 0.11776 0.7613 0.0
N1337 N 0.67378 0.12526 0.81456 0.0
H1338 H 0.61096 0.82916 0.47217 0.0
H1339 H 0.63837 0.87241 0.58633 0.0
H1340 H 0.65665 0.79979 0.51181 0.0
H1341 H 0.62995 0.91303 0.53349 0.0
H1342 H 0.63344 0.84201 0.56305 0.0
H1343 H 0.60608 0.85604 0.49914 0.0
C1344 C 0.61953 0.82801 0.48678 0.0
C1345 C 0.63441 0.81232 0.48971 0.0
C1346 C 0.63231 0.85761 0.55671 0.0
C1347 C 0.62871 0.84288 0.5205 0.0
C1348 C 0.63501 0.87494 0.56992 0.0
C1349 C 0.63472 0.89525 0.56173 0.0
C1350 C 0.62879 0.86065 0.53532 0.0
C1351 C 0.63046 0.89763 0.54035 0.0
C1352 C 0.61682 0.84343 0.50203 0.0
C1353 C 0.64517 0.81171 0.50888 0.0
N1354 N 0.62768 0.88049 0.52783 0.0
N1355 N 0.64219 0.82688 0.52357 0.0
H1356 H 0.83018 0.92383 0.34991 0.0
H1357 H 0.84217 0.89471 0.22842 0.0
H1358 H 0.79042 0.94818 0.30134 0.0
H1359 H 0.87665 0.86456 0.27761 0.0
H1360 H 0.82466 0.91606 0.25474 0.0
H1361 H 0.84923 0.90396 0.3234 0.0
C1362 C 0.82554 0.92512 0.33365 0.0
C1363 C 0.80861 0.93764 0.32785 0.0
C1364 C 0.83604 0.90477 0.25979 0.0
C1365 C 0.83031 0.91484 0.29744 0.0
C1366 C 0.84606 0.89255 0.24476 0.0
C1367 C 0.86089 0.87775 0.2508 0.0
C1368 C 0.84091 0.90229 0.28105 0.0
C1369 C 0.86528 0.8757 0.27222 0.0
C1370 C 0.83638 0.9137 0.31854 0.0
C1371 C 0.80332 0.93869 0.30655 0.0
N1372 N 0.85535 0.88784 0.28657 0.0
N1373 N 0.81409 0.92739 0.29214 0.0
H1374 H 0.90946 0.17566 0.98413 0.0
H1375 H 0.86227 0.11826 0.08431 0.0
H1376 H 0.86656 0.20451 0.02763 0.0
H1377 H 0.8746 0.08764 0.0252 0.0
H1378 H 0.87727 0.15083 0.07029 0.0
H1379 H 0.91052 0.14504 0.00666 0.0
C1380 C 0.90087 0.17594 -0.00121 0.0
C1381 C 0.88745 0.19248 0.00376 0.0
C1382 C 0.87713 0.13682 0.06062 0.0
C1383 C 0.88873 0.15751 0.02948 0.0
C1384 C 0.86863 0.11822 0.06857 0.0
C1385 C 0.86685 0.1003 0.05573 0.0
C1386 C 0.88423 0.13738 0.03986 0.0
C1387 C 0.87537 0.10118 0.03549 0.0
C1388 C 0.9014 0.15837 0.01153 0.0
C1389 C 0.87679 0.19194 0.02302 0.0
N1390 N 0.88353 0.1195 0.0281 0.0
N1391 N 0.87737 0.17453 0.03504 0.0
H1392 H 0.77788 0.54588 0.93016 0.0
H1393 H 0.70118 0.6005 0.84866 0.0
H1394 H 0.79805 0.56977 0.87022 0.0
H1395 H 0.68656 0.5945 0.91441 0.0
H1396 H 0.7345 0.58309 0.85464 0.0
H1397 H 0.7421 0.55771 0.92285 0.0
C1398 C 0.77475 0.55342 0.9154 0.0
C1399 C 0.79099 0.557 0.90084 0.0
C1400 C 0.72393 0.58548 0.86773 0.0
C1401 C 0.75022 0.57042 0.89239 0.0
C1402 C 0.70487 0.59536 0.86433 0.0
C1403 C 0.69113 0.59914 0.8811 0.0
C1404 C 0.72928 0.57921 0.88801 0.0
C1405 C 0.69676 0.59206 0.90105 0.0
C1406 C 0.75437 0.56023 0.91128 0.0
C1407 C 0.78605 0.56686 0.88197 0.0
N1408 N 0.71546 0.58249 0.90398 0.0
N1409 N 0.76612 0.57325 0.87831 0.0
H1410 H 0.25402 0.96083 0.11451 0.0
H1411 H 0.16604 0.87448 0.12641 0.0
H1412 H 0.26865 0.8971 0.1293 0.0
H1413 H 0.15385 0.94062 0.12955 0.0
H1414 H 0.20342 0.88221 0.13274 0.0
H1415 H 0.21758 0.95414 0.12499 0.0
C1416 C 0.24955 0.94548 0.1203 0.0
C1417 C 0.26417 0.92939 0.12077 0.0
C1418 C 0.19249 0.89499 0.1325 0.0
C1419 C 0.22238 0.92141 0.13236 0.0
C1420 C 0.17113 0.8906 0.12883 0.0
C1421 C 0.15688 0.90698 0.12682 0.0
C1422 C 0.19962 0.91591 0.13392 0.0
C1423 C 0.16432 0.92751 0.13051 0.0
C1424 C 0.22876 0.94166 0.12636 0.0
C1425 C 0.25773 0.90986 0.12862 0.0
N1426 N 0.18524 0.93141 0.13345 0.0
N1427 N 0.23712 0.90624 0.13366 0.0
H1428 H 0.89132 0.51342 0.85635 0.0
H1429 H 0.94139 0.4006 0.86863 0.0
H1430 H 0.88308 0.47465 0.91088 0.0
H1431 H 0.93205 0.42961 0.80862 0.0
H1432 H 0.92659 0.43121 0.88574 0.0
H1433 H 0.91201 0.48584 0.83995 0.0
C1434 C 0.89389 0.49914 0.86489 0.0
C1435 C 0.88532 0.49624 0.88495 0.0
C1436 C 0.92797 0.43095 0.86884 0.0
C1437 C 0.90917 0.46487 0.86642 0.0
C1438 C 0.93656 0.41355 0.85905 0.0
C1439 C 0.93772 0.41244 0.83713 0.0
C1440 C 0.92063 0.44743 0.85665 0.0
C1441 C 0.93126 0.42974 0.82555 0.0
C1442 C 0.9057 0.48345 0.85552 0.0
C1443 C 0.8892 0.47746 0.89532 0.0
N1444 N 0.92282 0.44649 0.83546 0.0
N1445 N 0.90087 0.4625 0.88593 0.0
H1446 H 0.20706 0.06013 0.63605 0.0
H1447 H 0.30918 0.13015 0.61632 0.0
H1448 H 0.22551 0.08003 0.57423 0.0
H1449 H 0.31503 0.0733 0.65168 0.0
H1450 H 0.27231 0.12065 0.60909 0.0
H1451 H 0.24148 0.07314 0.64957 0.0
C1452 C 0.21829 0.06741 0.62543 0.0
C1453 C 0.21369 0.06894 0.60402 0.0
C1454 C 0.28163 0.11053 0.61877 0.0
C1455 C 0.25221 0.08425 0.61934 0.0
C1456 C 0.30259 0.11593 0.62302 0.0
C1457 C 0.31524 0.10235 0.63445 0.0
C1458 C 0.27314 0.09169 0.6264 0.0
C1459 C 0.30585 0.08408 0.64264 0.0
C1460 C 0.23778 0.07472 0.63311 0.0
C1461 C 0.22863 0.07842 0.5908 0.0
N1462 N 0.28527 0.07919 0.63839 0.0
N1463 N 0.2472 0.0859 0.59871 0.0
H1464 H 0.12329 0.98616 0.88076 0.0
H1465 H 0.06421 0.0609 0.80115 0.0
H1466 H 0.13553 0.98972 0.81439 0.0
H1467 H 0.07107 0.0767 0.86672 0.0
H1468 H 0.08224 0.02828 0.80733 0.0
H1469 H 0.09709 0.01386 0.87705 0.0
C1470 C 0.12038 0.99268 0.86545 0.0
C1471 C 0.13176 0.98589 0.8479 0.0
C1472 C 0.07957 0.03877 0.82042 0.0
C1473 C 0.10171 0.01688 0.84352 0.0
C1474 C 0.06918 0.05738 0.81693 0.0
C1475 C 0.06651 0.07177 0.83336 0.0
C1476 C 0.08732 0.03447 0.84047 0.0
C1477 C 0.07305 0.06616 0.85355 0.0
C1478 C 0.10549 0.0084 0.86336 0.0
C1479 C 0.12737 0.99472 0.8284 0.0
N1480 N 0.08344 0.04802 0.85651 0.0
N1481 N 0.11269 0.00969 0.82675 0.0
H1482 H 0.79882 0.36031 0.39484 0.0
H1483 H 0.7221 0.44186 0.34127 0.0
H1484 H 0.81213 0.39382 0.3378 0.0
H1485 H 0.7003 0.3975 0.38746 0.0
H1486 H 0.75796 0.42998 0.34618 0.0
H1487 H 0.76524 0.37867 0.3978 0.0
C1488 C 0.79479 0.37165 0.38308 0.0
C1489 C 0.80815 0.37536 0.3659 0.0
C1490 C 0.7454 0.42297 0.35544 0.0
C1491 C 0.7701 0.39649 0.36935 0.0
C1492 C 0.7249 0.42981 0.3527 0.0
C1493 C 0.70811 0.4204 0.3637 0.0
C1494 C 0.74921 0.40647 0.36918 0.0
C1495 C 0.71277 0.40507 0.37854 0.0
C1496 C 0.77565 0.38208 0.38477 0.0
C1497 C 0.80219 0.39024 0.35114 0.0
N1498 N 0.7329 0.39833 0.38063 0.0
N1499 N 0.78363 0.40018 0.35319 0.0
H1500 H 0.86541 0.48472 0.62037 0.0
H1501 H 0.86412 0.6082 0.60287 0.0
H1502 H 0.84627 0.51246 0.56214 0.0
H1503 H 0.86696 0.57965 0.66379 0.0
H1504 H 0.86002 0.5734 0.58697 0.0
H1505 H 0.86952 0.51967 0.6357 0.0
C1506 C 0.86226 0.49816 0.61073 0.0
C1507 C 0.85542 0.49565 0.58994 0.0
C1508 C 0.86141 0.57479 0.60382 0.0
C1509 C 0.85995 0.53569 0.60747 0.0
C1510 C 0.86371 0.59464 0.61292 0.0
C1511 C 0.8659 0.59683 0.63469 0.0
C1512 C 0.86155 0.55703 0.61658 0.0
C1513 C 0.86528 0.57871 0.64695 0.0
C1514 C 0.86446 0.5181 0.61955 0.0
C1515 C 0.85151 0.51366 0.57825 0.0
N1516 N 0.86331 0.55957 0.6377 0.0
N1517 N 0.85382 0.53293 0.58718 0.0
H1518 H 0.64178 0.48808 0.17601 0.0
H1519 H 0.58536 0.3982 0.10697 0.0
H1520 H 0.62775 0.4964 0.11046 0.0
H1521 H 0.60715 0.39097 0.17052 0.0
H1522 H 0.59989 0.43416 0.10729 0.0
H1523 H 0.62797 0.45257 0.17373 0.0
C1524 C 0.63577 0.48245 0.16107 0.0
C1525 C 0.63595 0.49532 0.14338 0.0
C1526 C 0.6015 0.42461 0.12109 0.0
C1527 C 0.62 0.45426 0.14065 0.0
C1528 C 0.59324 0.40412 0.12093 0.0
C1529 C 0.59498 0.39157 0.13877 0.0
C1530 C 0.61147 0.43252 0.13924 0.0
C1531 C 0.60535 0.40002 0.15641 0.0
C1532 C 0.6279 0.46205 0.15977 0.0
C1533 C 0.62793 0.48701 0.12448 0.0
N1534 N 0.61311 0.41992 0.15619 0.0
N1535 N 0.62022 0.46696 0.1236 0.0
H1536 H 0.65572 0.70127 0.84458 0.0
H1537 H 0.61275 0.80654 0.89607 0.0
H1538 H 0.6311 0.70428 0.90753 0.0
H1539 H 0.63263 0.80015 0.83172 0.0
H1540 H 0.62334 0.77047 0.90233 0.0
H1541 H 0.65186 0.73888 0.84163 0.0
C1542 C 0.64968 0.70988 0.85789 0.0
C1543 C 0.64347 0.69954 0.87625 0.0
C1544 C 0.62549 0.77705 0.8869 0.0
C1545 C 0.63878 0.74277 0.87287 0.0
C1546 C 0.61946 0.79763 0.88331 0.0
C1547 C 0.62162 0.80631 0.86328 0.0
C1548 C 0.6338 0.76517 0.87036 0.0
C1549 C 0.63047 0.79407 0.84736 0.0
C1550 C 0.64744 0.7314 0.85617 0.0
C1551 C 0.63598 0.7116 0.89305 0.0
N1552 N 0.63614 0.77414 0.85123 0.0
N1553 N 0.6336 0.73258 0.89087 0.0
H1554 H 0.52492 0.34284 0.11563 0.0
H1555 H 0.39975 0.34063 0.11782 0.0
H1556 H 0.48939 0.30872 0.16234 0.0
H1557 H 0.43386 0.33484 0.05964 0.0
H1558 H 0.43324 0.33968 0.13687 0.0
H1559 H 0.49182 0.35009 0.09734 0.0
C1560 C 0.51013 0.33707 0.12213 0.0
C1561 C 0.50979 0.32506 0.14042 0.0
C1562 C 0.43332 0.33893 0.11992 0.0
C1563 C 0.4722 0.33368 0.11994 0.0
C1564 C 0.41431 0.33965 0.10903 0.0
C1565 C 0.41408 0.33769 0.08713 0.0
C1566 C 0.4522 0.33673 0.10879 0.0
C1567 C 0.43339 0.33625 0.07653 0.0
C1568 C 0.49137 0.34116 0.11168 0.0
C1569 C 0.49028 0.31788 0.14817 0.0
N1570 N 0.45176 0.33579 0.08749 0.0
N1571 N 0.47219 0.3224 0.13793 0.0
H1572 H 0.91077 0.17806 0.3465 0.0
H1573 H 0.85395 0.28177 0.31218 0.0
H1574 H 0.86749 0.1789 0.29432 0.0
H1575 H 0.87591 0.27161 0.3752 0.0
H1576 H 0.8611 0.24517 0.30369 0.0
H1577 H 0.90113 0.21384 0.35539 0.0
C1578 C 0.89932 0.18582 0.33684 0.0
C1579 C 0.88991 0.17552 0.31963 0.0
C1580 C 0.86415 0.25095 0.31941 0.0
C1581 C 0.87884 0.2164 0.32974 0.0
C1582 C 0.8601 0.2718 0.32427 0.0
C1583 C 0.86439 0.27975 0.34442 0.0
C1584 C 0.8729 0.23811 0.3347 0.0
C1585 C 0.87231 0.26614 0.35949 0.0
C1586 C 0.89372 0.20616 0.34203 0.0
C1587 C 0.87507 0.18627 0.30775 0.0
N1588 N 0.87654 0.24604 0.35426 0.0
N1589 N 0.87007 0.20621 0.31295 0.0
H1590 H 0.92723 0.63382 0.624 0.0
H1591 H 0.04988 0.62044 0.60475 0.0
H1592 H 0.97433 0.65946 0.66638 0.0
H1593 H 0.00727 0.63175 0.55352 0.0
H1594 H 0.02076 0.62502 0.62932 0.0
H1595 H 0.95533 0.62405 0.59969 0.0
C1596 C 0.9435 0.63725 0.62826 0.0
C1597 C 0.94852 0.64754 0.64719 0.0
C1598 C 0.01779 0.62621 0.61268 0.0
C1599 C 0.98054 0.63604 0.6197 0.0
C1600 C 0.03431 0.62341 0.59861 0.0
C1601 C 0.031 0.62582 0.57703 0.0
C1602 C -0.00224 0.63103 0.6051 0.0
C1603 C 0.0105 0.62986 0.57003 0.0
C1604 C 0.95944 0.63172 0.61436 0.0
C1605 C 0.96982 0.65168 0.65189 0.0
N1606 N 0.9946 0.63236 0.58406 0.0
N1607 N 0.9851 0.64579 0.63827 0.0
H1608 H 0.59694 0.29858 0.5921 0.0
H1609 H 0.59639 0.19859 0.63751 0.0
H1610 H 0.65833 0.30529 0.621 0.0
H1611 H 0.62723 0.23413 0.68687 0.0
H1612 H 0.60408 0.22749 0.6132 0.0
H1613 H 0.59285 0.26392 0.60803 0.0
C1614 C 0.60971 0.2926 0.60143 0.0
C1615 C 0.62795 0.30488 0.60532 0.0
C1616 C 0.60926 0.22879 0.62932 0.0
C1617 C 0.62329 0.26553 0.62364 0.0
C1618 C 0.60506 0.21232 0.6431 0.0
C1619 C 0.61104 0.21417 0.6642 0.0
C1620 C 0.61989 0.24689 0.63673 0.0
C1621 C 0.62217 0.23224 0.67076 0.0
C1622 C 0.60742 0.2728 0.61039 0.0
C1623 C 0.64401 0.29639 0.61756 0.0
N1624 N 0.6263 0.24789 0.65704 0.0
N1625 N 0.64108 0.27745 0.62669 0.0
H1626 H 0.06339 0.27307 0.88607 0.0
H1627 H 0.00163 0.35771 0.81947 0.0
H1628 H 0.07351 0.33989 0.89181 0.0
H1629 H 0.98781 0.29133 0.81573 0.0
H1630 H 0.03058 0.35088 0.84333 0.0
H1631 H 0.03733 0.27898 0.85858 0.0
C1632 C 0.06006 0.28898 0.88165 0.0
C1633 C 0.07059 0.30602 0.89133 0.0
C1634 C 0.02136 0.33777 0.83716 0.0
C1635 C 0.04103 0.31286 0.85972 0.0
C1636 C 0.00488 0.34165 0.82339 0.0
C1637 C 0.99212 0.32508 0.8157 0.0
C1638 C 0.02511 0.31718 0.8434 0.0
C1639 C -0.00282 0.3046 0.82131 0.0
C1640 C 0.04526 0.29233 0.86588 0.0
C1641 C 0.06573 0.32628 0.88487 0.0
N1642 N 0.01316 0.30124 0.83501 0.0
N1643 N 0.05133 0.32911 0.86948 0.0
H1644 H 0.86093 0.68144 0.15231 0.0
H1645 H 0.86376 0.80602 0.1453 0.0
H1646 H 0.87282 0.71458 0.09473 0.0
H1647 H 0.86769 0.77117 0.2027 0.0
H1648 H 0.85853 0.77305 0.12593 0.0
H1649 H 0.85474 0.71456 0.16996 0.0
C1650 C 0.8621 0.6957 0.1433 0.0
C1651 C 0.86783 0.69527 0.12207 0.0
C1652 C 0.86022 0.7727 0.1428 0.0
C1653 C 0.86077 0.73336 0.14233 0.0
C1654 C 0.86309 0.79148 0.15388 0.0
C1655 C 0.86645 0.79129 0.17562 0.0
C1656 C 0.86053 0.75368 0.15359 0.0
C1657 C 0.86545 0.77203 0.18593 0.0
C1658 C 0.85853 0.71462 0.15343 0.0
C1659 C 0.86868 0.71423 0.11117 0.0
N1660 N 0.86275 0.754 0.1748 0.0
N1661 N 0.86546 0.7326 0.1215 0.0
H1662 H 0.43296 0.72473 0.41437 0.0
H1663 H 0.49325 0.6369 0.3491 0.0
H1664 H 0.41911 0.65859 0.42008 0.0
H1665 H 0.50136 0.70328 0.33884 0.0
H1666 H 0.4665 0.64431 0.37555 0.0
H1667 H 0.45938 0.71692 0.38783 0.0
C1668 C 0.4356 0.70854 0.41019 0.0
C1669 C 0.42376 0.69229 0.41944 0.0
C1670 C 0.47405 0.65723 0.36741 0.0
C1671 C 0.45386 0.68325 0.38885 0.0
C1672 C 0.48926 0.65302 0.35222 0.0
C1673 C 0.49963 0.66949 0.34173 0.0
C1674 C 0.46925 0.67807 0.37222 0.0
C1675 C 0.49382 0.69006 0.34651 0.0
C1676 C 0.45061 0.7041 0.39492 0.0
C1677 C 0.42786 0.67162 0.41335 0.0
N1678 N 0.47913 0.69376 0.36148 0.0
N1679 N 0.44254 0.66769 0.3984 0.0
H1680 H 0.88448 0.63497 0.85768 0.0
H1681 H 0.87491 0.6137 0.73433 0.0
H1682 H 0.86692 0.5752 0.83005 0.0
H1683 H 0.90415 0.66969 0.76054 0.0
H1684 H 0.86957 0.60043 0.76965 0.0
H1685 H 0.8897 0.64908 0.82243 0.0
C1686 C 0.88174 0.62483 0.84425 0.0
C1687 C 0.87528 0.60387 0.84683 0.0
C1688 C 0.87718 0.61561 0.76769 0.0
C1689 C 0.88109 0.61989 0.80659 0.0
C1690 C 0.88019 0.62323 0.74751 0.0
C1691 C 0.89004 0.64282 0.74445 0.0
C1692 C 0.88393 0.62771 0.78499 0.0
C1693 C 0.89655 0.65446 0.76216 0.0
C1694 C 0.88474 0.63287 0.82415 0.0
C1695 C 0.87196 0.59143 0.82886 0.0
N1696 N 0.89335 0.64674 0.78168 0.0
N1697 N 0.87485 0.59964 0.80954 0.0
H1698 H 0.67276 0.57816 0.06311 0.0
H1699 H 0.61132 0.62394 0.96481 0.0
H1700 H 0.60566 0.58849 0.06344 0.0
H1701 H 0.67922 0.62371 0.97032 0.0
H1702 H 0.60849 0.60994 0.00029 0.0
H1703 H 0.67494 0.59316 0.02822 0.0
C1704 C 0.65844 0.58349 0.05582 0.0
C1705 C 0.63898 0.58205 0.06627 0.0
C1706 C 0.62399 0.61308 0.99375 0.0
C1707 C 0.64141 0.59938 0.0262 0.0
C1708 C 0.62563 0.6211 0.97351 0.0
C1709 C 0.64555 0.62498 0.96454 0.0
C1710 C 0.6424 0.60875 0.00503 0.0
C1711 C 0.66353 0.62098 0.97656 0.0
C1712 C 0.65972 0.59216 0.0359 0.0
C1713 C 0.62099 0.58929 0.05599 0.0
N1714 N 0.66152 0.61298 0.99611 0.0
N1715 N 0.62263 0.59763 0.03651 0.0
H1716 H 0.59364 0.29563 0.23799 0.0
H1717 H 0.58703 0.38633 0.32386 0.0
H1718 H 0.56119 0.35317 0.22747 0.0
H1719 H 0.64627 0.35907 0.30682 0.0
H1720 H 0.56908 0.36342 0.29797 0.0
H1721 H 0.60478 0.30904 0.27268 0.0
C1722 C 0.58847 0.31085 0.24323 0.0
C1723 C 0.57673 0.3235 0.22997 0.0
C1724 C 0.5859 0.36203 0.30049 0.0
C1725 C 0.58868 0.3384 0.26937 0.0
C1726 C 0.59607 0.37491 0.31528 0.0
C1727 C 0.61806 0.37448 0.31728 0.0
C1728 C 0.59784 0.34842 0.28816 0.0
C1729 C 0.62925 0.35977 0.30558 0.0
C1730 C 0.59479 0.31842 0.26289 0.0
C1731 C 0.57045 0.34312 0.23727 0.0
N1732 N 0.61902 0.34734 0.29135 0.0
N1733 N 0.57652 0.35002 0.25654 0.0
H1734 H 0.86322 0.37036 0.55004 0.0
H1735 H 0.8549 0.32283 0.45227 0.0
H1736 H 0.88621 0.41937 0.50949 0.0
H1737 H 0.91648 0.35026 0.44037 0.0
H1738 H 0.85574 0.33838 0.4875 0.0
H1739 H 0.87276 0.34434 0.52325 0.0
C1740 C 0.8709 0.37556 0.5358 0.0
C1741 C 0.87377 0.39696 0.53173 0.0
C1742 C 0.86936 0.34036 0.47741 0.0
C1743 C 0.88469 0.36757 0.50145 0.0
C1744 C 0.86883 0.33161 0.45733 0.0
C1745 C 0.8856 0.33536 0.44347 0.0
C1746 C 0.88648 0.35343 0.4833 0.0
C1747 C 0.90326 0.34695 0.45065 0.0
C1748 C 0.87616 0.36077 0.52055 0.0
C1749 C 0.88359 0.40299 0.51303 0.0
N1750 N 0.90295 0.35618 0.46988 0.0
N1751 N 0.88863 0.38833 0.49848 0.0
H1752 H 0.92454 0.38767 0.7379 0.0
H1753 H 0.86962 0.35532 0.6292 0.0
H1754 H 0.91038 0.32363 0.71981 0.0
H1755 H 0.8834 0.41906 0.64851 0.0
H1756 H 0.88625 0.34311 0.66129 0.0
H1757 H 0.91157 0.39913 0.70409 0.0
C1758 C 0.91882 0.37598 0.72677 0.0
C1759 C 0.91843 0.35465 0.73178 0.0
C1760 C 0.88569 0.35976 0.65845 0.0
C1761 C 0.90339 0.36773 0.69298 0.0
C1762 C 0.87618 0.36675 0.64014 0.0
C1763 C 0.87501 0.38825 0.63621 0.0
C1764 C 0.89407 0.3744 0.67291 0.0
C1765 C 0.88384 0.40234 0.65092 0.0
C1766 C 0.91138 0.38256 0.70744 0.0
C1767 C 0.91092 0.34025 0.71666 0.0
N1768 N 0.89293 0.39516 0.66862 0.0
N1769 N 0.90357 0.34706 0.69798 0.0
H1770 H 0.87154 0.60985 0.94912 0.0
H1771 H 0.93105 0.58891 0.05623 0.0
H1772 H 0.90482 0.55403 0.96468 0.0
H1773 H 0.8858 0.63771 0.04863 0.0
H1774 H 0.93124 0.58343 0.01845 0.0
H1775 H 0.88572 0.62682 0.9811 0.0
C1776 C 0.88236 0.60146 0.95894 0.0
C1777 C 0.88691 0.58052 0.9546 0.0
C1778 C 0.92153 0.59561 0.02497 0.0
C1779 C 0.90303 0.59958 0.99078 0.0
C1780 C 0.92143 0.59874 0.04654 0.0
C1781 C 0.90797 0.61339 0.05557 0.0
C1782 C 0.90776 0.60692 0.01235 0.0
C1783 C 0.89618 0.62603 0.04227 0.0
C1784 C 0.89034 0.61106 0.97717 0.0
C1785 C 0.90081 0.57015 0.96773 0.0
N1786 N 0.89594 0.62216 0.02128 0.0
N1787 N 0.90823 0.57972 0.98533 0.0
H1788 H 0.57203 0.67771 0.23569 0.0
H1789 H 0.64383 0.6241 0.17758 0.0
H1790 H 0.54909 0.61462 0.24638 0.0
H1791 H 0.59326 0.58083 0.16146 0.0
H1792 H 0.61882 0.64534 0.19714 0.0
H1793 H 0.58807 0.66596 0.20291 0.0
C1794 C 0.56991 0.6615 0.23092 0.0
C1795 C 0.55968 0.64697 0.24404 0.0
C1796 C 0.61296 0.63169 0.18863 0.0
C1797 C 0.57814 0.63352 0.20681 0.0
C1798 C 0.62725 0.61957 0.17756 0.0
C1799 C 0.6204 0.60095 0.16786 0.0
C1800 C 0.59187 0.62466 0.19051 0.0
C1801 C 0.59894 0.59531 0.16861 0.0
C1802 C 0.57922 0.65481 0.2123 0.0
C1803 C 0.55725 0.62622 0.23695 0.0
N1804 N 0.58547 0.60684 0.1803 0.0
N1805 N 0.56667 0.62004 0.21891 0.0
H1806 H 0.6049 0.36696 0.52706 0.0
H1807 H 0.61441 0.4546 0.43912 0.0
H1808 H 0.59536 0.43279 0.53823 0.0
H1809 H 0.6194 0.38861 0.42567 0.0
H1810 H 0.60471 0.44632 0.47505 0.0
H1811 H 0.60707 0.37384 0.48946 0.0
C1812 C 0.60292 0.38279 0.52161 0.0
C1813 C 0.60019 0.39935 0.53588 0.0
C1814 C 0.60778 0.43361 0.46424 0.0
C1815 C 0.6029 0.40736 0.49293 0.0
C1816 C 0.61339 0.43834 0.4437 0.0
C1817 C 0.61791 0.42229 0.4294 0.0
C1818 C 0.60684 0.41265 0.47067 0.0
C1819 C 0.61614 0.40149 0.43621 0.0
C1820 C 0.60425 0.38672 0.50014 0.0
C1821 C 0.59772 0.41955 0.52789 0.0
N1822 N 0.61092 0.39727 0.45642 0.0
N1823 N 0.59935 0.42299 0.50701 0.0
H1824 H 0.73263 0.95203 0.60292 0.0
H1825 H 0.79766 0.85833 0.64823 0.0
H1826 H 0.70613 0.90614 0.64518 0.0
H1827 H 0.82491 0.90841 0.61146 0.0
H1828 H 0.76567 0.87862 0.65248 0.0
H1829 H 0.76777 0.93941 0.61065 0.0
C1830 C 0.73422 0.93945 0.61403 0.0
C1831 C 0.71638 0.92989 0.62314 0.0
C1832 C 0.7788 0.88533 0.64381 0.0
C1833 C 0.75662 0.91516 0.6319 0.0
C1834 C 0.79712 0.87378 0.64144 0.0
C1835 C 0.81381 0.88148 0.62906 0.0
C1836 C 0.77717 0.90463 0.63363 0.0
C1837 C 0.81228 0.90166 0.62079 0.0
C1838 C 0.75433 0.93227 0.61849 0.0
C1839 C 0.71944 0.91384 0.63764 0.0
N1840 N 0.79414 0.91237 0.62292 0.0
N1841 N 0.73915 0.90673 0.6413 0.0
H1842 H 0.2585 0.60914 0.36284 0.0
H1843 H 0.35825 0.66939 0.41174 0.0
H1844 H 0.30825 0.57826 0.39594 0.0
H1845 H 0.29532 0.69399 0.41192 0.0
H1846 H 0.34497 0.63846 0.39273 0.0
H1847 H 0.27767 0.64247 0.36739 0.0
C1848 C 0.27377 0.60923 0.37048 0.0
C1849 C 0.28166 0.59098 0.3794 0.0
C1850 C 0.33423 0.65088 0.39657 0.0
C1851 C 0.30353 0.62892 0.38444 0.0
C1852 C 0.34173 0.66853 0.40737 0.0
C1853 C 0.32773 0.6841 0.41375 0.0
C1854 C 0.31271 0.649 0.39179 0.0
C1855 C 0.30654 0.68218 0.40759 0.0
C1856 C 0.28458 0.62827 0.37314 0.0
C1857 C 0.30149 0.59204 0.38912 0.0
N1858 N 0.2996 0.66481 0.39707 0.0
N1859 N 0.31168 0.6108 0.39161 0.0
H1860 H 0.61483 0.10623 0.64235 0.0
H1861 H 0.61261 0.98113 0.64672 0.0
H1862 H 0.58509 0.07046 0.69165 0.0
H1863 H 0.64102 0.01631 0.59624 0.0
H1864 H 0.60029 0.01373 0.66208 0.0
H1865 H 0.62273 0.07354 0.62404 0.0
C1866 C 0.60988 0.09153 0.64928 0.0
C1867 C 0.5994 0.09109 0.66863 0.0
C1868 C 0.60909 0.01432 0.64756 0.0
C1869 C 0.60839 0.05363 0.64778 0.0
C1870 C 0.61611 0.99568 0.63875 0.0
C1871 C 0.62801 0.99596 0.62022 0.0
C1872 C 0.61407 0.03344 0.63786 0.0
C1873 C 0.63197 0.01533 0.61058 0.0
C1874 C 0.61438 0.07286 0.63881 0.0
C1875 C 0.5933 0.07157 0.67683 0.0
N1876 N 0.62516 0.03329 0.6196 0.0
N1877 N 0.59797 0.05366 0.66642 0.0
H1878 H 0.13311 0.33466 0.88808 0.0
H1879 H 0.17924 0.43266 0.8848 0.0
H1880 H 0.19851 0.31971 0.89768 0.0
H1881 H 0.23132 0.4035 0.8532 0.0
H1882 H 0.15997 0.3992 0.88393 0.0
H1883 H 0.14435 0.36687 0.87048 0.0
C1884 C 0.14983 0.33792 0.88612 0.0
C1885 C 0.16495 0.32475 0.8948 0.0
C1886 C 0.17526 0.40032 0.87642 0.0
C1887 C 0.17773 0.36141 0.87471 0.0
C1888 C 0.1863 0.41945 0.87697 0.0
C1889 C 0.20713 0.42076 0.86958 0.0
C1890 C 0.18534 0.38245 0.86879 0.0
C1891 C 0.21544 0.40314 0.85946 0.0
C1892 C 0.15617 0.35633 0.87616 0.0
C1893 C 0.18636 0.32965 0.8916 0.0
N1894 N 0.20483 0.3845 0.86007 0.0
N1895 N 0.19212 0.34772 0.88195 0.0
H1896 H 0.38289 0.42519 0.67921 0.0
H1897 H 0.33117 0.47629 0.57803 0.0
H1898 H 0.37142 0.39009 0.62211 0.0
H1899 H 0.34737 0.50973 0.63506 0.0
H1900 H 0.3464 0.44464 0.59283 0.0
H1901 H 0.37025 0.45635 0.66235 0.0
C1902 C 0.3777 0.42401 0.66308 0.0
C1903 C 0.37816 0.40494 0.6521 0.0
C1904 C 0.34668 0.45897 0.60199 0.0
C1905 C 0.36354 0.44081 0.63254 0.0
C1906 C 0.33804 0.47703 0.59356 0.0
C1907 C 0.33787 0.49567 0.60536 0.0
C1908 C 0.35516 0.45964 0.62233 0.0
C1909 C 0.34697 0.49573 0.62539 0.0
C1910 C 0.3705 0.44189 0.6534 0.0
C1911 C 0.37131 0.40447 0.63117 0.0
N1912 N 0.35513 0.47802 0.63322 0.0
N1913 N 0.36418 0.42217 0.62206 0.0
H1914 H 0.75276 0.05524 0.05554 0.0
H1915 H 0.67854 0.13854 0.10899 0.0
H1916 H 0.77089 0.08993 0.11125 0.0
H1917 H 0.65563 0.09066 0.06605 0.0
H1918 H 0.71229 0.12074 0.11083 0.0
H1919 H 0.71694 0.06819 0.05923 0.0
C1920 C 0.74919 0.06551 0.06858 0.0
C1921 C 0.76487 0.07161 0.08302 0.0
C1922 C 0.69974 0.114 0.10124 0.0
C1923 C 0.72396 0.08654 0.08731 0.0
C1924 C 0.68046 0.12413 0.10022 0.0
C1925 C 0.66432 0.11624 0.08715 0.0
C1926 C 0.70292 0.09604 0.08891 0.0
C1927 C 0.66768 0.09745 0.0762 0.0
C1928 C 0.72872 0.07282 0.07075 0.0
C1929 C 0.75931 0.08485 0.09971 0.0
N1930 N 0.6867 0.08817 0.07708 0.0
N1931 N 0.73937 0.09205 0.10128 0.0
H1932 H 0.7339 0.96734 0.88522 0.0
H1933 H 0.65072 0.92679 0.80212 0.0
H1934 H 0.72167 0.99695 0.8261 0.0
H1935 H 0.66256 0.89512 0.86015 0.0
H1936 H 0.68314 0.94729 0.80691 0.0
H1937 H 0.7153 0.93583 0.87258 0.0
C1938 C 0.72788 0.96701 0.86934 0.0
C1939 C 0.72873 0.98501 0.85689 0.0
C1940 C 0.67889 0.93571 0.81853 0.0
C1941 C 0.70725 0.94918 0.84252 0.0
C1942 C 0.6603 0.92408 0.81584 0.0
C1943 C 0.65376 0.90969 0.83106 0.0
C1944 C 0.6908 0.93334 0.83686 0.0
C1945 C 0.66698 0.90634 0.84824 0.0
C1946 C 0.71715 0.94903 0.86218 0.0
C1947 C 0.72087 0.98361 0.83641 0.0
N1948 N 0.6847 0.91847 0.85095 0.0
N1949 N 0.71008 0.96616 0.83002 0.0
H1950 H 0.88479 0.05914 0.38091 0.0
H1951 H 0.77786 0.02528 0.35458 0.0
H1952 H 0.85159 0.10164 0.34123 0.0
H1953 H 0.79076 0.03033 0.42069 0.0
H1954 H 0.80376 0.05359 0.34827 0.0
H1955 H 0.85095 0.04788 0.39623 0.0
C1956 C 0.87042 0.06646 0.37586 0.0
C1957 C 0.87083 0.0812 0.35979 0.0
C1958 C 0.80028 0.04905 0.36422 0.0
C1959 C 0.83239 0.06806 0.37662 0.0
C1960 C 0.78553 0.03299 0.36779 0.0
C1961 C 0.78225 0.02568 0.38814 0.0
C1962 C 0.81237 0.05699 0.38102 0.0
C1963 C 0.79283 0.03577 0.4048 0.0
C1964 C 0.8512 0.06015 0.38463 0.0
C1965 C 0.85183 0.09023 0.35365 0.0
N1966 N 0.80807 0.05047 0.40081 0.0
N1967 N 0.83321 0.08299 0.36159 0.0
H1968 H 0.32264 0.2884 0.11602 0.0
H1969 H 0.36347 0.17312 0.13442 0.0
H1970 H 0.34499 0.24831 0.06637 0.0
H1971 H 0.3684 0.2239 0.17922 0.0
H1972 H 0.34341 0.19568 0.11114 0.0
H1973 H 0.32519 0.25936 0.14033 0.0
C1974 C 0.32746 0.27335 0.11003 0.0
C1975 C 0.33425 0.27098 0.08922 0.0
C1976 C 0.34847 0.20165 0.12629 0.0
C1977 C 0.33719 0.23778 0.11705 0.0
C1978 C 0.35984 0.18882 0.13959 0.0
C1979 C 0.36786 0.19684 0.15859 0.0
C1980 C 0.34483 0.22243 0.13227 0.0
C1981 C 0.36277 0.21726 0.16454 0.0
C1982 C 0.329 0.25682 0.12399 0.0
C1983 C 0.34005 0.25098 0.08238 0.0
N1984 N 0.35171 0.22943 0.15134 0.0
N1985 N 0.3418 0.23521 0.09637 0.0
H1986 H 0.56695 0.62925 0.89538 0.0
H1987 H 0.47967 0.56922 0.82714 0.0
H1988 H 0.58202 0.59743 0.83758 0.0
H1989 H 0.46605 0.62555 0.86188 0.0
H1990 H 0.51704 0.57398 0.83602 0.0
H1991 H 0.52937 0.62224 0.88859 0.0
C1992 C 0.56237 0.62053 0.88143 0.0
C1993 C 0.57756 0.61394 0.86697 0.0
C1994 C 0.50583 0.58524 0.8417 0.0
C1995 C 0.53483 0.60587 0.85925 0.0
C1996 C 0.48454 0.58254 0.83673 0.0
C1997 C 0.4698 0.59708 0.84375 0.0
C1998 C 0.51234 0.60236 0.85414 0.0
C1999 C 0.47696 0.61408 0.85605 0.0
C2000 C 0.54097 0.61671 0.87751 0.0
C2001 C 0.57078 0.60286 0.84906 0.0
N2002 N 0.49777 0.6162 0.86098 0.0
N2003 N 0.54986 0.5991 0.84572 0.0
H2004 H 0.12853 0.67209 0.59083 0.0
H2005 H 0.1087 0.79351 0.60946 0.0
H2006 H 0.0997 0.71143 0.54473 0.0
H2007 H 0.10851 0.74715 0.65817 0.0
H2008 H 0.11791 0.76629 0.58393 0.0
H2009 H 0.13438 0.70274 0.61326 0.0
C2010 C 0.12387 0.68722 0.58516 0.0
C2011 C 0.11306 0.6891 0.56609 0.0
C2012 C 0.11625 0.76225 0.60029 0.0
C2013 C 0.11981 0.72415 0.59172 0.0
C2014 C 0.11106 0.77771 0.61485 0.0
C2015 C 0.10753 0.77244 0.63587 0.0
C2016 C 0.11828 0.74154 0.60694 0.0
C2017 C 0.11077 0.75177 0.64205 0.0
C2018 C 0.12718 0.70468 0.59803 0.0
C2019 C 0.10771 0.7092 0.55949 0.0
N2020 N 0.11584 0.73703 0.6276 0.0
N2021 N 0.11084 0.72594 0.57246 0.0
H2022 H 0.03434 0.36431 0.36695 0.0
H2023 H 0.91926 0.39216 0.3356 0.0
H2024 H 0.01943 0.42595 0.34496 0.0
H2025 H 0.93034 0.35106 0.3875 0.0
H2026 H 0.95643 0.40345 0.33686 0.0
H2027 H -0.00338 0.35751 0.3733 0.0
C2028 C 0.0232 0.37649 0.36375 0.0
C2029 C 0.03 0.39565 0.35528 0.0
C2030 C 0.95061 0.39216 0.34814 0.0
C2031 C 0.98707 0.38783 0.36207 0.0
C2032 C 0.92948 0.38567 0.34737 0.0
C2033 C 0.92178 0.37064 0.36142 0.0
C2034 C 0.9642 0.38312 0.36269 0.0
C2035 C 0.93565 0.36274 0.37642 0.0
C2036 C 0.00174 0.37262 0.36741 0.0
C2037 C 0.0149 0.41093 0.35146 0.0
N2038 N 0.95633 0.36881 0.37644 0.0
N2039 N 0.99409 0.40654 0.35451 0.0
H2040 H 0.41209 0.85667 0.36502 0.0
H2041 H 0.39066 0.79176 0.4482 0.0
H2042 H 0.37742 0.80551 0.33556 0.0
H2043 H 0.32811 0.78473 0.42219 0.0
H2044 H 0.39968 0.81667 0.42057 0.0
H2045 H 0.39448 0.84854 0.39821 0.0
C2046 C 0.4004 0.84406 0.36539 0.0
C2047 C 0.39648 0.83142 0.34763 0.0
C2048 C 0.3837 0.81037 0.42144 0.0
C2049 C 0.37627 0.82238 0.38532 0.0
C2050 C 0.37857 0.7962 0.4372 0.0
C2051 C 0.35867 0.78623 0.43737 0.0
C2052 C 0.36903 0.81391 0.40545 0.0
C2053 C 0.3436 0.79221 0.42261 0.0
C2054 C 0.39045 0.83946 0.38433 0.0
C2055 C 0.38115 0.81537 0.34898 0.0
N2056 N 0.34935 0.80508 0.4067 0.0
N2057 N 0.37168 0.81119 0.3676 0.0
H2058 H 0.02617 0.68057 0.21448 0.0
H2059 H 0.93203 0.65408 0.16374 0.0
H2060 H 0.04907 0.62609 0.18197 0.0
H2061 H 0.95602 0.59145 0.16034 0.0
H2062 H 0.96421 0.66561 0.18163 0.0
H2063 H 0.99 0.66914 0.20627 0.0
C2064 C 0.02359 0.6662 0.20565 0.0
C2065 C 0.04069 0.65447 0.19858 0.0
C2066 C 0.96225 0.64922 0.17756 0.0
C2067 C -0.00058 0.6415 0.18877 0.0
C2068 C 0.94388 0.64264 0.16716 0.0
C2069 C 0.94139 0.62179 0.16035 0.0
C2070 C 0.97828 0.63485 0.18111 0.0
C2071 C 0.95728 0.60769 0.16521 0.0
C2072 C 0.00293 0.65978 0.2008 0.0
C2073 C 0.03641 0.63583 0.18745 0.0
N2074 N 0.9752 0.61456 0.17498 0.0
N2075 N 0.01622 0.62998 0.18283 0.0
H2076 H 0.17466 0.2238 0.90554 0.0
H2077 H 0.09387 0.13868 0.85925 0.0
H2078 H 0.11303 0.21051 0.93135 0.0
H2079 H 0.12843 0.18376 0.82195 0.0
H2080 H 0.1131 0.15129 0.89033 0.0
H2081 H 0.16929 0.19486 0.88047 0.0
C2082 C 0.16047 0.21412 0.90662 0.0
C2083 C 0.14411 0.21956 0.92026 0.0
C2084 C 0.11695 0.15783 0.87518 0.0
C2085 C 0.13806 0.18667 0.892 0.0
C2086 C 0.10605 0.15069 0.85745 0.0
C2087 C 0.1093 0.16057 0.83813 0.0
C2088 C 0.13144 0.17457 0.87338 0.0
C2089 C 0.12522 0.17604 0.83667 0.0
C2090 C 0.15739 0.19776 0.89225 0.0
C2091 C 0.12589 0.20681 0.92089 0.0
N2092 N 0.13556 0.18279 0.85417 0.0
N2093 N 0.1232 0.19106 0.9067 0.0
H2094 H 0.56842 0.35288 0.64575 0.0
H2095 H 0.46052 0.39705 0.68728 0.0
H2096 H 0.55366 0.41842 0.64307 0.0
H2097 H 0.48519 0.3386 0.70874 0.0
H2098 H 0.49451 0.40524 0.67097 0.0
H2099 H 0.53796 0.34708 0.66864 0.0
C2100 C 0.55885 0.36607 0.65007 0.0
C2101 C 0.56349 0.38614 0.64234 0.0
C2102 C 0.49259 0.39075 0.67949 0.0
C2103 C 0.52858 0.37957 0.66839 0.0
C2104 C 0.47318 0.38604 0.68877 0.0
C2105 C 0.46999 0.36705 0.69926 0.0
C2106 C 0.50881 0.37618 0.68035 0.0
C2107 C 0.48698 0.35342 0.70079 0.0
C2108 C 0.54154 0.36277 0.66321 0.0
C2109 C 0.55064 0.40268 0.64859 0.0
N2110 N 0.50559 0.35811 0.69115 0.0
N2111 N 0.53362 0.39898 0.66105 0.0
H2112 H 0.10713 0.36826 0.26487 0.0
H2113 H 0.10445 0.43769 0.16143 0.0
H2114 H 0.08192 0.43035 0.26166 0.0
H2115 H 0.13851 0.38008 0.16534 0.0
H2116 H 0.0913 0.43216 0.19675 0.0
H2117 H 0.11406 0.36941 0.22712 0.0
C2118 C 0.10282 0.38201 0.2562 0.0
C2119 C 0.09414 0.39933 0.26645 0.0
C2120 C 0.10155 0.42064 0.18988 0.0
C2121 C 0.102 0.40073 0.22343 0.0
C2122 C 0.10908 0.42378 0.16967 0.0
C2123 C 0.12283 0.40946 0.1605 0.0
C2124 C 0.10785 0.40307 0.20112 0.0
C2125 C 0.12807 0.39161 0.17188 0.0
C2126 C 0.10684 0.38268 0.2347 0.0
C2127 C 0.08886 0.41673 0.25447 0.0
N2128 N 0.12071 0.389 0.19172 0.0
N2129 N 0.09297 0.41702 0.23365 0.0
H2130 H 0.30596 0.41261 0.91768 0.0
H2131 H 0.31156 0.37406 0.03618 0.0
H2132 H 0.26477 0.43416 0.96685 0.0
H2133 H 0.34629 0.34523 0.98584 0.0
H2134 H 0.29583 0.39755 0.01114 0.0
H2135 H 0.32272 0.38951 0.94268 0.0
C2136 C 0.30052 0.41261 0.93376 0.0
C2137 C 0.28389 0.42534 0.94018 0.0
C2138 C 0.30685 0.38607 0.00553 0.0
C2139 C 0.30297 0.39885 0.9688 0.0
C2140 C 0.31587 0.37262 0.01982 0.0
C2141 C 0.33029 0.35762 0.0131 0.0
C2142 C 0.31232 0.38466 0.98429 0.0
C2143 C 0.33521 0.35652 0.99169 0.0
C2144 C 0.31005 0.39933 0.94799 0.0
C2145 C 0.27749 0.4246 0.96118 0.0
N2146 N 0.32627 0.36992 0.97804 0.0
N2147 N 0.28703 0.41157 0.97472 0.0
H2148 H 0.32882 0.55438 0.67664 0.0
H2149 H 0.38659 0.6245 0.76424 0.0
H2150 H 0.34646 0.61914 0.66643 0.0
H2151 H 0.38247 0.55699 0.76512 0.0
H2152 H 0.36966 0.62392 0.72974 0.0
H2153 H 0.34533 0.55635 0.71094 0.0
C2154 C 0.33605 0.56909 0.68165 0.0
C2155 C 0.33636 0.58661 0.66856 0.0
C2156 C 0.37259 0.60927 0.73749 0.0
C2157 C 0.35546 0.5889 0.70794 0.0
C2158 C 0.38226 0.60957 0.75714 0.0
C2159 C 0.38593 0.59075 0.7676 0.0
C2160 C 0.36638 0.59004 0.72839 0.0
C2161 C 0.37999 0.57188 0.75768 0.0
C2162 C 0.34559 0.57016 0.70124 0.0
C2163 C 0.34593 0.60524 0.676 0.0
N2164 N 0.37041 0.57202 0.7387 0.0
N2165 N 0.35516 0.6059 0.69523 0.0
H2166 H 0.10087 0.62324 0.46668 0.0
H2167 H 0.19868 0.54814 0.45457 0.0
H2168 H 0.12097 0.58049 0.51432 0.0
H2169 H 0.17141 0.57973 0.40192 0.0
H2170 H 0.16952 0.55963 0.47635 0.0
H2171 H 0.12519 0.60677 0.44197 0.0
C2172 C 0.11008 0.61017 0.47184 0.0
C2173 C 0.1091 0.60343 0.49267 0.0
C2174 C 0.1698 0.56396 0.46 0.0
C2175 C 0.13707 0.5848 0.46468 0.0
C2176 C 0.18653 0.55748 0.44758 0.0
C2177 C 0.18756 0.56309 0.42644 0.0
C2178 C 0.15405 0.57637 0.45132 0.0
C2179 C 0.17125 0.57508 0.41818 0.0
C2180 C 0.12402 0.60084 0.45776 0.0
C2181 C 0.1214 0.58643 0.4985 0.0
N2182 N 0.15524 0.5815 0.4307 0.0
N2183 N 0.13503 0.5779 0.48467 0.0
H2184 H 0.13511 0.67152 0.27466 0.0
H2185 H 0.19457 0.56752 0.3071 0.0
H2186 H 0.14712 0.62097 0.2313 0.0
H2187 H 0.19086 0.6225 0.34656 0.0
H2188 H 0.17634 0.58623 0.27936 0.0
H2189 H 0.15483 0.65326 0.30146 0.0
C2190 C 0.14197 0.65662 0.27074 0.0
C2191 C 0.13942 0.64777 0.2507 0.0
C2192 C 0.17957 0.59419 0.29409 0.0
C2193 C 0.16193 0.62667 0.2814 0.0
C2194 C 0.18993 0.5835 0.30994 0.0
C2195 C 0.19422 0.59345 0.32919 0.0
C2196 C 0.17337 0.6149 0.29759 0.0
C2197 C 0.18789 0.61419 0.33198 0.0
C2198 C 0.15324 0.64619 0.28606 0.0
C2199 C 0.1487 0.62841 0.24653 0.0
N2200 N 0.17774 0.62418 0.3164 0.0
N2201 N 0.15945 0.61846 0.26178 0.0
H2202 H 0.11833 0.41707 0.02225 0.0
H2203 H 0.1431 0.30065 0.01138 0.0
H2204 H 0.1263 0.38046 0.07801 0.0
H2205 H 0.09757 0.32791 0.97004 0.0
H2206 H 0.13744 0.32923 0.03645 0.0
H2207 H 0.11074 0.38476 0.00246 0.0
C2208 C 0.11806 0.40227 0.03038 0.0
C2209 C 0.12304 0.40139 0.05173 0.0
C2210 C 0.12832 0.32862 0.02211 0.0
C2211 C 0.11498 0.3645 0.02919 0.0
C2212 C 0.13155 0.31235 0.00781 0.0
C2213 C 0.12093 0.31201 0.98854 0.0
C2214 C 0.11488 0.34491 0.01676 0.0
C2215 C 0.10613 0.32757 0.9847 0.0
C2216 C 0.11368 0.38388 0.01913 0.0
C2217 C 0.1225 0.38181 0.06156 0.0
N2218 N 0.10394 0.34371 -0.00156 0.0
N2219 N 0.11908 0.36405 0.05009 0.0
H2220 H 0.31302 0.38598 0.85746 0.0
H2221 H 0.36531 0.40046 0.74476 0.0
H2222 H 0.3084 0.44286 0.82198 0.0
H2223 H 0.38222 0.35147 0.78733 0.0
H2224 H 0.34298 0.41546 0.77198 0.0
H2225 H 0.33693 0.37224 0.83102 0.0
C2226 C 0.31704 0.3956 0.84411 0.0
C2227 C 0.30866 0.4156 0.84191 0.0
C2228 C 0.35166 0.40149 0.77539 0.0
C2229 C 0.33599 0.39989 0.81151 0.0
C2230 C 0.36438 0.39288 0.75984 0.0
C2231 C 0.37564 0.37464 0.76375 0.0
C2232 C 0.34999 0.39168 0.79491 0.0
C2233 C 0.37385 0.36555 0.78361 0.0
C2234 C 0.33076 0.38776 0.82905 0.0
C2235 C 0.31451 0.42738 0.82431 0.0
N2236 N 0.36118 0.37409 0.7984 0.0
N2237 N 0.32773 0.41929 0.80971 0.0
H2238 H 0.33602 0.70665 0.52991 0.0
H2239 H 0.35128 0.58732 0.53653 0.0
H2240 H 0.38676 0.67716 0.49651 0.0
H2241 H 0.33086 0.62161 0.59111 0.0
H2242 H 0.36404 0.62023 0.52121 0.0
H2243 H 0.33381 0.67643 0.55318 0.0
C2244 C 0.34706 0.69411 0.52782 0.0
C2245 C 0.36139 0.69431 0.51106 0.0
C2246 C 0.35709 0.62047 0.5367 0.0
C2247 C 0.35851 0.65957 0.53715 0.0
C2248 C 0.34969 0.60174 0.54536 0.0
C2249 C 0.33989 0.60179 0.56503 0.0
C2250 C 0.35412 0.63939 0.54754 0.0
C2251 C 0.33833 0.6209 0.57589 0.0
C2252 C 0.34577 0.67686 0.54107 0.0
C2253 C 0.37537 0.67764 0.50912 0.0
N2254 N 0.34498 0.63903 0.56681 0.0
N2255 N 0.37321 0.66068 0.52164 0.0
H2256 H 0.19347 0.11225 0.39935 0.0
H2257 H 0.31111 0.08599 0.36667 0.0
H2258 H 0.21714 0.1215 0.33666 0.0
H2259 H 0.27995 0.05812 0.42003 0.0
H2260 H 0.27765 0.1012 0.3563 0.0
H2261 H 0.22598 0.09448 0.40826 0.0
C2262 C 0.20549 0.11052 0.38745 0.0
C2263 C 0.20261 0.11841 0.36724 0.0
C2264 C 0.27813 0.09164 0.37019 0.0
C2265 C 0.23989 0.09822 0.37738 0.0
C2266 C 0.29722 0.083 0.37616 0.0
C2267 C 0.29834 0.0708 0.39428 0.0
C2268 C 0.2601 0.08832 0.38259 0.0
C2269 C 0.27982 0.06739 0.40593 0.0
C2270 C 0.224 0.1003 0.39252 0.0
C2271 C 0.21869 0.11563 0.35242 0.0
N2272 N 0.2615 0.07626 0.39999 0.0
N2273 N 0.23673 0.10591 0.35784 0.0
H2274 H 0.7723 0.40314 0.55633 0.0
H2275 H 0.6774 0.42383 0.62895 0.0
H2276 H 0.78501 0.42414 0.61953 0.0
H2277 H 0.67826 0.36819 0.59019 0.0
H2278 H 0.7159 0.42734 0.62496 0.0
H2279 H 0.73625 0.39336 0.56678 0.0
C2280 C 0.76748 0.40557 0.57243 0.0
C2281 C 0.78149 0.41444 0.58712 0.0
C2282 C 0.7076 0.41416 0.61773 0.0
C2283 C 0.74043 0.40375 0.599 0.0
C2284 C 0.68571 0.41218 0.61994 0.0
C2285 C 0.67464 0.39577 0.60979 0.0
C2286 C 0.71821 0.39999 0.60482 0.0
C2287 C 0.68615 0.38106 0.59831 0.0
C2288 C 0.74704 0.3999 0.57839 0.0
C2289 C 0.7746 0.41724 0.60782 0.0
N2290 N 0.70727 0.38378 0.59575 0.0
N2291 N 0.75433 0.41226 0.61311 0.0
H2292 H 0.43806 0.93175 0.31449 0.0
H2293 H 0.37877 0.97761 0.41326 0.0
H2294 H 0.44004 0.90333 0.37552 0.0
H2295 H 0.39763 0.01679 0.36151 0.0
H2296 H 0.39932 0.94928 0.39837 0.0
H2297 H 0.42225 0.96272 0.33036 0.0
C2298 C 0.43547 0.93215 0.33125 0.0
C2299 C 0.44022 0.91487 0.34368 0.0
C2300 C 0.39905 0.96411 0.39033 0.0
C2301 C 0.42183 0.94996 0.36177 0.0
C2302 C 0.38718 0.98023 0.39872 0.0
C2303 C 0.38643 -0.00045 0.38856 0.0
C2304 C 0.40999 0.9672 0.37146 0.0
C2305 C 0.39779 0.00212 0.36985 0.0
C2306 C 0.42643 0.94979 0.34027 0.0
C2307 C 0.43657 0.91624 0.36531 0.0
N2308 N 0.40899 0.98604 0.36178 0.0
N2309 N 0.42731 0.93335 0.37362 0.0
H2310 H 0.82168 0.61808 0.11553 0.0
H2311 H 0.73473 0.54587 0.16898 0.0
H2312 H 0.8377 0.55947 0.14392 0.0
H2313 H 0.7208 0.58502 0.11624 0.0
H2314 H 0.77243 0.55321 0.16369 0.0
H2315 H 0.78433 0.60894 0.11957 0.0
C2316 C 0.81733 0.60331 0.12271 0.0
C2317 C 0.8328 0.58951 0.12947 0.0
C2318 C 0.76109 0.56008 0.15324 0.0
C2319 C 0.7901 0.57908 0.13418 0.0
C2320 C 0.73961 0.55601 0.15629 0.0
C2321 C 0.72465 0.56493 0.14305 0.0
C2322 C 0.76758 0.5735 0.13713 0.0
C2323 C 0.73183 0.57781 0.12677 0.0
C2324 C 0.79602 0.59807 0.12486 0.0
C2325 C 0.82626 0.57052 0.13849 0.0
N2326 N 0.75281 0.5819 0.1244 0.0
N2327 N 0.80533 0.56592 0.14077 0.0
H2328 H 0.55673 0.56809 0.30343 0.0
H2329 H 0.60683 0.48121 0.3767 0.0
H2330 H 0.56476 0.57687 0.3701 0.0
H2331 H 0.61368 0.48327 0.30949 0.0
H2332 H 0.58607 0.51317 0.37529 0.0
H2333 H 0.5715 0.53337 0.3063 0.0
C2334 C 0.56135 0.56263 0.31874 0.0
C2335 C 0.55975 0.57554 0.33651 0.0
C2336 C 0.59209 0.50652 0.36089 0.0
C2337 C 0.57685 0.53578 0.33986 0.0
C2338 C 0.60392 0.48832 0.36167 0.0
C2339 C 0.61216 0.47967 0.3432 0.0
C2340 C 0.58829 0.5159 0.34148 0.0
C2341 C 0.60784 0.48948 0.32415 0.0
C2342 C 0.56988 0.54282 0.32034 0.0
C2343 C 0.56587 0.56751 0.35595 0.0
N2344 N 0.59622 0.50703 0.3238 0.0
N2345 N 0.57433 0.54818 0.35709 0.0
H2346 H 0.24916 0.95733 0.85649 0.0
H2347 H 0.31823 0.86914 0.9093 0.0
H2348 H 0.22295 0.91103 0.89849 0.0
H2349 H 0.33547 0.90251 0.85316 0.0
H2350 H 0.28645 0.89018 0.91213 0.0
H2351 H 0.28422 0.94382 0.86283 0.0
C2352 C 0.2508 0.9446 0.86741 0.0
C2353 C 0.23301 0.93499 0.87661 0.0
C2354 C 0.29734 0.893 0.89934 0.0
C2355 C 0.27313 0.91932 0.88373 0.0
C2356 C 0.31545 0.88103 0.8977 0.0
C2357 C 0.32936 0.8839 0.8808 0.0
C2358 C 0.2933 0.90811 0.88414 0.0
C2359 C 0.32504 0.89956 0.86628 0.0
C2360 C 0.27083 0.93683 0.87092 0.0
C2361 C 0.23619 0.91875 0.89086 0.0
N2362 N 0.30735 0.91102 0.86825 0.0
N2363 N 0.25587 0.91117 0.89373 0.0
H2364 H 0.34576 0.00912 0.07514 0.0
H2365 H 0.38515 0.07686 0.17356 0.0
H2366 H 0.36178 0.98238 0.13478 0.0
H2367 H 0.38225 0.10159 0.11095 0.0
H2368 H 0.37571 0.04224 0.15966 0.0
H2369 H 0.35885 0.04318 0.08778 0.0
C2370 C 0.35222 0.01036 0.09082 0.0
C2371 C 0.35254 0.99289 0.10397 0.0
C2372 C 0.37721 0.05522 0.14894 0.0
C2373 C 0.36729 0.03185 0.1186 0.0
C2374 C 0.38248 0.07503 0.15688 0.0
C2375 C 0.38442 0.09216 0.1434 0.0
C2376 C 0.37367 0.05254 0.12738 0.0
C2377 C 0.38089 0.08882 0.12192 0.0
C2378 C 0.35967 0.02981 0.09802 0.0
C2379 C 0.36116 0.99541 0.12411 0.0
N2380 N 0.37559 0.0694 0.11458 0.0
N2381 N 0.368 0.01458 0.13087 0.0
H2382 H 0.08446 0.91449 0.66692 0.0
H2383 H 0.15243 0.96995 0.57667 0.0
H2384 H 0.12275 0.88065 0.62279 0.0
H2385 H 0.11472 0.00334 0.62168 0.0
H2386 H 0.14069 0.93698 0.59234 0.0
H2387 H 0.09469 0.94709 0.64981 0.0
C2388 C 0.09506 0.9139 0.65364 0.0
C2389 C 0.1028 0.89479 0.6463 0.0
C2390 C 0.13492 0.95152 0.59873 0.0
C2391 C 0.11454 0.93214 0.62655 0.0
C2392 C 0.14157 0.97036 0.58975 0.0
C2393 C 0.13461 0.98948 0.59791 0.0
C2394 C 0.12123 0.95176 0.61601 0.0
C2395 C 0.12055 0.98901 0.61489 0.0
C2396 C 0.10087 0.93255 0.64384 0.0
C2397 C 0.11645 0.89502 0.629 0.0
N2398 N 0.1144 0.97047 0.62341 0.0
N2399 N 0.12189 0.91342 0.61971 0.0
loop_
_geom_bond_atom_site_label_1
_geom_bond_atom_site_label_2
_geom_bond_distance
_geom_bond_site_symmetry_2
_ccdc_geom_bond_type
Zn0 O3 2.031 . S
Zn0 O5 2.049 . S
Zn0 O10 2.067 . S
Zn1 O2 1.962 . S
Zn1 O4 1.986 . S
Zn1 O6 1.996 . S
Zn1 O9 1.943 . S
O2 Zn1 1.962 . S
O2 C7 1.254 . S
O3 Zn0 2.031 . S
O3 C7 1.269 . S
O4 Zn1 1.986 . S
O4 C11 1.262 . S
O5 Zn0 2.049 . S
O5 C13 1.260 . S
O6 Zn1 1.996 . S
O6 C13 1.257 . S
C7 O2 1.254 . S
C7 O3 1.269 . S
C8 O9 1.249 . S
C8 O10 1.270 . S
O9 Zn1 1.943 . S
O9 C8 1.249 . S
O10 Zn0 2.067 . S
O10 C8 1.270 . S
C11 O4 1.262 . S
C11 O12 1.232 . S
O12 C11 1.232 . S
C13 O5 1.260 . S
C13 O6 1.257 . S
Zn14 O17 2.031 . S
Zn14 O19 2.049 . S
Zn14 O24 2.067 . S
Zn15 O16 1.962 . S
Zn15 O18 1.986 . S
Zn15 O20 1.996 . S
Zn15 O23 1.943 . S
O16 Zn15 1.962 . S
O16 C21 1.254 . S
O17 Zn14 2.031 . S
O17 C21 1.269 . S
O18 Zn15 1.986 . S
O18 C25 1.262 . S
O19 Zn14 2.049 . S
O19 C27 1.260 . S
O20 Zn15 1.996 . S
O20 C27 1.257 . S
C21 O16 1.254 . S
C21 O17 1.269 . S
C22 O23 1.249 . S
C22 O24 1.270 . S
O23 Zn15 1.943 . S
O23 C22 1.249 . S
O24 Zn14 2.067 . S
O24 C22 1.270 . S
C25 O18 1.262 . S
C25 O26 1.232 . S
O26 C25 1.232 . S
C27 O19 1.260 . S
C27 O20 1.257 . S
Zn28 O31 2.031 . S
Zn28 O33 2.049 . S
Zn28 O38 2.067 . S
Zn29 O30 1.962 . S
Zn29 O32 1.986 . S
Zn29 O34 1.996 . S
Zn29 O37 1.943 . S
O30 Zn29 1.962 . S
O30 C35 1.254 . S
O31 Zn28 2.031 . S
O31 C35 1.269 . S
O32 Zn29 1.986 . S
O32 C39 1.262 . S
O33 Zn28 2.049 . S
O33 C41 1.260 . S
O34 Zn29 1.996 . S
O34 C41 1.257 . S
C35 O30 1.254 . S
C35 O31 1.269 . S
C36 O37 1.249 . S
C36 O38 1.270 . S
O37 Zn29 1.943 . S
O37 C36 1.249 . S
O38 Zn28 2.067 . S
O38 C36 1.270 . S
C39 O32 1.262 . S
C39 O40 1.232 . S
O40 C39 1.232 . S
C41 O33 1.260 . S
C41 O34 1.257 . S
Zn42 O45 2.031 . S
Zn42 O47 2.049 . S
Zn42 O52 2.067 . S
Zn43 O44 1.962 . S
Zn43 O46 1.986 . S
Zn43 O48 1.996 . S
Zn43 O51 1.943 . S
O44 Zn43 1.962 . S
O44 C49 1.254 . S
O45 Zn42 2.031 . S
O45 C49 1.269 . S
O46 Zn43 1.986 . S
O46 C53 1.262 . S
O47 Zn42 2.049 . S
O47 C55 1.260 . S
O48 Zn43 1.996 . S
O48 C55 1.257 . S
C49 O44 1.254 . S
C49 O45 1.269 . S
C50 O51 1.249 . S
C50 O52 1.270 . S
O51 Zn43 1.943 . S
O51 C50 1.249 . S
O52 Zn42 2.067 . S
O52 C50 1.270 . S
C53 O46 1.262 . S
C53 O54 1.232 . S
O54 C53 1.232 . S
C55 O47 1.260 . S
C55 O48 1.257 . S
Zn56 O59 2.031 . S
Zn56 O61 2.049 . S
Zn56 O66 2.067 . S
Zn57 O58 1.962 . S
Zn57 O60 1.986 . S
Zn57 O62 1.996 . S
Zn57 O65 1.943 . S
O58 Zn57 1.962 . S
O58 C63 1.254 . S
O59 Zn56 2.031 . S
O59 C63 1.269 . S
O60 Zn57 1.986 . S
O60 C67 1.262 . S
O61 Zn56 2.049 . S
O61 C69 1.260 . S
O62 Zn57 1.996 . S
O62 C69 1.257 . S
C63 O58 1.254 . S
C63 O59 1.269 . S
C64 O65 1.249 . S
C64 O66 1.270 . S
O65 Zn57 1.943 . S
O65 C64 1.249 . S
O66 Zn56 2.067 . S
O66 C64 1.270 . S
C67 O60 1.262 . S
C67 O68 1.232 . S
O68 C67 1.232 . S
C69 O61 1.260 . S
C69 O62 1.257 . S
Zn70 O73 2.031 . S
Zn70 O75 2.049 . S
Zn70 O80 2.067 . S
Zn71 O72 1.962 . S
Zn71 O74 1.986 . S
Zn71 O76 1.996 . S
Zn71 O79 1.943 . S
O72 Zn71 1.962 . S
O72 C77 1.254 . S
O73 Zn70 2.031 . S
O73 C77 1.269 . S
O74 Zn71 1.986 . S
O74 C81 1.262 . S
O75 Zn70 2.049 . S
O75 C83 1.260 . S
O76 Zn71 1.996 . S
O76 C83 1.257 . S
C77 O72 1.254 . S
C77 O73 1.269 . S
C78 O79 1.249 . S
C78 O80 1.270 . S
O79 Zn71 1.943 . S
O79 C78 1.249 . S
O80 Zn70 2.067 . S
O80 C78 1.270 . S
C81 O74 1.262 . S
C81 O82 1.232 . S
O82 C81 1.232 . S
C83 O75 1.260 . S
C83 O76 1.257 . S
Zn84 O87 2.031 . S
Zn84 O89 2.049 . S
Zn84 O94 2.067 . S
Zn85 O86 1.962 . S
Zn85 O88 1.986 . S
Zn85 O90 1.996 . S
Zn85 O93 1.943 . S
O86 Zn85 1.962 . S
O86 C91 1.254 . S
O87 Zn84 2.031 . S
O87 C91 1.269 . S
O88 Zn85 1.986 . S
O88 C95 1.262 . S
O89 Zn84 2.049 . S
O89 C97 1.260 . S
O90 Zn85 1.996 . S
O90 C97 1.257 . S
C91 O86 1.254 . S
C91 O87 1.269 . S
C92 O93 1.249 . S
C92 O94 1.270 . S
O93 Zn85 1.943 . S
O93 C92 1.249 . S
O94 Zn84 2.067 . S
O94 C92 1.270 . S
C95 O88 1.262 . S
C95 O96 1.232 . S
O96 C95 1.232 . S
C97 O89 1.260 . S
C97 O90 1.257 . S
Zn98 O101 2.031 . S
Zn98 O103 2.049 . S
Zn98 O108 2.067 . S
Zn99 O100 1.962 . S
Zn99 O102 1.986 . S
Zn99 O104 1.996 . S
Zn99 O107 1.943 . S
O100 Zn99 1.962 . S
O100 C105 1.254 . S
O101 Zn98 2.031 . S
O101 C105 1.269 . S
O102 Zn99 1.986 . S
O102 C109 1.262 . S
O103 Zn98 2.049 . S
O103 C111 1.260 . S
O104 Zn99 1.996 . S
O104 C111 1.257 . S
C105 O100 1.254 . S
C105 O101 1.269 . S
C106 O107 1.249 . S
C106 O108 1.270 . S
O107 Zn99 1.943 . S
O107 C106 1.249 . S
O108 Zn98 2.067 . S
O108 C106 1.270 . S
C109 O102 1.262 . S
C109 O110 1.232 . S
O110 C109 1.232 . S
C111 O103 1.260 . S
C111 O104 1.257 . S
Zn112 O115 2.031 . S
Zn112 O117 2.049 . S
Zn112 O122 2.067 . S
Zn113 O114 1.962 . S
Zn113 O116 1.986 . S
Zn113 O118 1.996 . S
Zn113 O121 1.943 . S
O114 Zn113 1.962 . S
O114 C119 1.254 . S
O115 Zn112 2.031 . S
O115 C119 1.269 . S
O116 Zn113 1.986 . S
O116 C123 1.262 . S
O117 Zn112 2.049 . S
O117 C125 1.260 . S
O118 Zn113 1.996 . S
O118 C125 1.257 . S
C119 O114 1.254 . S
C119 O115 1.269 . S
C120 O121 1.249 . S
C120 O122 1.270 . S
O121 Zn113 1.943 . S
O121 C120 1.249 . S
O122 Zn112 2.067 . S
O122 C120 1.270 . S
C123 O116 1.262 . S
C123 O124 1.232 . S
O124 C123 1.232 . S
C125 O117 1.260 . S
C125 O118 1.257 . S
Zn126 O129 2.031 . S
Zn126 O131 2.049 . S
Zn126 O136 2.067 . S
Zn127 O128 1.962 . S
Zn127 O130 1.986 . S
Zn127 O132 1.996 . S
Zn127 O135 1.943 . S
O128 Zn127 1.962 . S
O128 C133 1.254 . S
O129 Zn126 2.031 . S
O129 C133 1.269 . S
O130 Zn127 1.986 . S
O130 C137 1.262 . S
O131 Zn126 2.049 . S
O131 C139 1.260 . S
O132 Zn127 1.996 . S
O132 C139 1.257 . S
C133 O128 1.254 . S
C133 O129 1.269 . S
C134 O135 1.249 . S
C134 O136 1.270 . S
O135 Zn127 1.943 . S
O135 C134 1.249 . S
O136 Zn126 2.067 . S
O136 C134 1.270 . S
C137 O130 1.262 . S
C137 O138 1.232 . S
O138 C137 1.232 . S
C139 O131 1.260 . S
C139 O132 1.257 . S
Zn140 O143 2.031 . S
Zn140 O145 2.049 . S
Zn140 O150 2.067 . S
Zn141 O142 1.962 . S
Zn141 O144 1.986 . S
Zn141 O146 1.996 . S
Zn141 O149 1.943 . S
O142 Zn141 1.962 . S
O142 C147 1.254 . S
O143 Zn140 2.031 . S
O143 C147 1.269 . S
O144 Zn141 1.986 . S
O144 C151 1.262 . S
O145 Zn140 2.049 . S
O145 C153 1.260 . S
O146 Zn141 1.996 . S
O146 C153 1.257 . S
C147 O142 1.254 . S
C147 O143 1.269 . S
C148 O149 1.249 . S
C148 O150 1.270 . S
O149 Zn141 1.943 . S
O149 C148 1.249 . S
O150 Zn140 2.067 . S
O150 C148 1.270 . S
C151 O144 1.262 . S
C151 O152 1.232 . S
O152 C151 1.232 . S
C153 O145 1.260 . S
C153 O146 1.257 . S
Zn154 O157 2.031 . S
Zn154 O159 2.049 . S
Zn154 O164 2.067 . S
Zn155 O156 1.962 . S
Zn155 O158 1.986 . S
Zn155 O160 1.996 . S
Zn155 O163 1.943 . S
O156 Zn155 1.962 . S
O156 C161 1.254 . S
O157 Zn154 2.031 . S
O157 C161 1.269 . S
O158 Zn155 1.986 . S
O158 C165 1.262 . S
O159 Zn154 2.049 . S
O159 C167 1.260 . S
O160 Zn155 1.996 . S
O160 C167 1.257 . S
C161 O156 1.254 . S
C161 O157 1.269 . S
C162 O163 1.249 . S
C162 O164 1.270 . S
O163 Zn155 1.943 . S
O163 C162 1.249 . S
O164 Zn154 2.067 . S
O164 C162 1.270 . S
C165 O158 1.262 . S
C165 O166 1.232 . S
O166 C165 1.232 . S
C167 O159 1.260 . S
C167 O160 1.257 . S
Zn168 O171 2.031 . S
Zn168 O173 2.049 . S
Zn168 O178 2.067 . S
Zn169 O170 1.962 . S
Zn169 O172 1.986 . S
Zn169 O174 1.996 . S
Zn169 O177 1.943 . S
O170 Zn169 1.962 . S
O170 C175 1.254 . S
O171 Zn168 2.031 . S
O171 C175 1.269 . S
O172 Zn169 1.986 . S
O172 C179 1.262 . S
O173 Zn168 2.049 . S
O173 C181 1.260 . S
O174 Zn169 1.996 . S
O174 C181 1.257 . S
C175 O170 1.254 . S
C175 O171 1.269 . S
C176 O177 1.249 . S
C176 O178 1.270 . S
O177 Zn169 1.943 . S
O177 C176 1.249 . S
O178 Zn168 2.067 . S
O178 C176 1.270 . S
C179 O172 1.262 . S
C179 O180 1.232 . S
O180 C179 1.232 . S
C181 O173 1.260 . S
C181 O174 1.257 . S
Zn182 O185 2.031 . S
Zn182 O187 2.049 . S
Zn182 O192 2.067 . S
Zn183 O184 1.962 . S
Zn183 O186 1.986 . S
Zn183 O188 1.996 . S
Zn183 O191 1.943 . S
O184 Zn183 1.962 . S
O184 C189 1.254 . S
O185 Zn182 2.031 . S
O185 C189 1.269 . S
O186 Zn183 1.986 . S
O186 C193 1.262 . S
O187 Zn182 2.049 . S
O187 C195 1.260 . S
O188 Zn183 1.996 . S
O188 C195 1.257 . S
C189 O184 1.254 . S
C189 O185 1.269 . S
C190 O191 1.249 . S
C190 O192 1.270 . S
O191 Zn183 1.943 . S
O191 C190 1.249 . S
O192 Zn182 2.067 . S
O192 C190 1.270 . S
C193 O186 1.262 . S
C193 O194 1.232 . S
O194 C193 1.232 . S
C195 O187 1.260 . S
C195 O188 1.257 . S
Zn196 O199 2.031 . S
Zn196 O201 2.049 . S
Zn196 O206 2.067 . S
Zn197 O198 1.962 . S
Zn197 O200 1.986 . S
Zn197 O202 1.996 . S
Zn197 O205 1.943 . S
O198 Zn197 1.962 . S
O198 C203 1.254 . S
O199 Zn196 2.031 . S
O199 C203 1.269 . S
O200 Zn197 1.986 . S
O200 C207 1.262 . S
O201 Zn196 2.049 . S
O201 C209 1.260 . S
O202 Zn197 1.996 . S
O202 C209 1.257 . S
C203 O198 1.254 . S
C203 O199 1.269 . S
C204 O205 1.249 . S
C204 O206 1.270 . S
O205 Zn197 1.943 . S
O205 C204 1.249 . S
O206 Zn196 2.067 . S
O206 C204 1.270 . S
C207 O200 1.262 . S
C207 O208 1.232 . S
O208 C207 1.232 . S
C209 O201 1.260 . S
C209 O202 1.257 . S
Zn210 O213 2.031 . S
Zn210 O215 2.049 . S
Zn210 O220 2.067 . S
Zn211 O212 1.962 . S
Zn211 O214 1.986 . S
Zn211 O216 1.996 . S
Zn211 O219 1.943 . S
O212 Zn211 1.962 . S
O212 C217 1.254 . S
O213 Zn210 2.031 . S
O213 C217 1.269 . S
O214 Zn211 1.986 . S
O214 C221 1.262 . S
O215 Zn210 2.049 . S
O215 C223 1.260 . S
O216 Zn211 1.996 . S
O216 C223 1.257 . S
C217 O212 1.254 . S
C217 O213 1.269 . S
C218 O219 1.249 . S
C218 O220 1.270 . S
O219 Zn211 1.943 . S
O219 C218 1.249 . S
O220 Zn210 2.067 . S
O220 C218 1.270 . S
C221 O214 1.262 . S
C221 O222 1.232 . S
O222 C221 1.232 . S
C223 O215 1.260 . S
C223 O216 1.257 . S
Zn224 O227 2.031 . S
Zn224 O229 2.049 . S
Zn224 O234 2.067 . S
Zn225 O226 1.962 . S
Zn225 O228 1.986 . S
Zn225 O230 1.996 . S
Zn225 O233 1.943 . S
O226 Zn225 1.962 . S
O226 C231 1.254 . S
O227 Zn224 2.031 . S
O227 C231 1.269 . S
O228 Zn225 1.986 . S
O228 C235 1.262 . S
O229 Zn224 2.049 . S
O229 C237 1.260 . S
O230 Zn225 1.996 . S
O230 C237 1.257 . S
C231 O226 1.254 . S
C231 O227 1.269 . S
C232 O233 1.249 . S
C232 O234 1.270 . S
O233 Zn225 1.943 . S
O233 C232 1.249 . S
O234 Zn224 2.067 . S
O234 C232 1.270 . S
C235 O228 1.262 . S
C235 O236 1.232 . S
O236 C235 1.232 . S
C237 O229 1.260 . S
C237 O230 1.257 . S
Zn238 O241 2.031 . S
Zn238 O243 2.049 . S
Zn238 O248 2.067 . S
Zn239 O240 1.962 . S
Zn239 O242 1.986 . S
Zn239 O244 1.996 . S
Zn239 O247 1.943 . S
O240 Zn239 1.962 . S
O240 C245 1.254 . S
O241 Zn238 2.031 . S
O241 C245 1.269 . S
O242 Zn239 1.986 . S
O242 C249 1.262 . S
O243 Zn238 2.049 . S
O243 C251 1.260 . S
O244 Zn239 1.996 . S
O244 C251 1.257 . S
C245 O240 1.254 . S
C245 O241 1.269 . S
C246 O247 1.249 . S
C246 O248 1.270 . S
O247 Zn239 1.943 . S
O247 C246 1.249 . S
O248 Zn238 2.067 . S
O248 C246 1.270 . S
C249 O242 1.262 . S
C249 O250 1.232 . S
O250 C249 1.232 . S
C251 O243 1.260 . S
C251 O244 1.257 . S
Zn252 O255 2.031 . S
Zn252 O257 2.049 . S
Zn252 O262 2.067 . S
Zn253 O254 1.962 . S
Zn253 O256 1.986 . S
Zn253 O258 1.996 . S
Zn253 O261 1.943 . S
O254 Zn253 1.962 . S
O254 C259 1.254 . S
O255 Zn252 2.031 . S
O255 C259 1.269 . S
O256 Zn253 1.986 . S
O256 C263 1.262 . S
O257 Zn252 2.049 . S
O257 C265 1.260 . S
O258 Zn253 1.996 . S
O258 C265 1.257 . S
C259 O254 1.254 . S
C259 O255 1.269 . S
C260 O261 1.249 . S
C260 O262 1.270 . S
O261 Zn253 1.943 . S
O261 C260 1.249 . S
O262 Zn252 2.067 . S
O262 C260 1.270 . S
C263 O256 1.262 . S
C263 O264 1.232 . S
O264 C263 1.232 . S
C265 O257 1.260 . S
C265 O258 1.257 . S
Zn266 O269 2.031 . S
Zn266 O271 2.049 . S
Zn266 O276 2.067 . S
Zn267 O268 1.962 . S
Zn267 O270 1.986 . S
Zn267 O272 1.996 . S
Zn267 O275 1.943 . S
O268 Zn267 1.962 . S
O268 C273 1.254 . S
O269 Zn266 2.031 . S
O269 C273 1.269 . S
O270 Zn267 1.986 . S
O270 C277 1.262 . S
O271 Zn266 2.049 . S
O271 C279 1.260 . S
O272 Zn267 1.996 . S
O272 C279 1.257 . S
C273 O268 1.254 . S
C273 O269 1.269 . S
C274 O275 1.249 . S
C274 O276 1.270 . S
O275 Zn267 1.943 . S
O275 C274 1.249 . S
O276 Zn266 2.067 . S
O276 C274 1.270 . S
C277 O270 1.262 . S
C277 O278 1.232 . S
O278 C277 1.232 . S
C279 O271 1.260 . S
C279 O272 1.257 . S
Zn280 O283 2.031 . S
Zn280 O285 2.049 . S
Zn280 O290 2.067 . S
Zn281 O282 1.962 . S
Zn281 O284 1.986 . S
Zn281 O286 1.996 . S
Zn281 O289 1.943 . S
O282 Zn281 1.962 . S
O282 C287 1.254 . S
O283 Zn280 2.031 . S
O283 C287 1.269 . S
O284 Zn281 1.986 . S
O284 C291 1.262 . S
O285 Zn280 2.049 . S
O285 C293 1.260 . S
O286 Zn281 1.996 . S
O286 C293 1.257 . S
C287 O282 1.254 . S
C287 O283 1.269 . S
C288 O289 1.249 . S
C288 O290 1.270 . S
O289 Zn281 1.943 . S
O289 C288 1.249 . S
O290 Zn280 2.067 . S
O290 C288 1.270 . S
C291 O284 1.262 . S
C291 O292 1.232 . S
O292 C291 1.232 . S
C293 O285 1.260 . S
C293 O286 1.257 . S
Zn294 O297 2.031 . S
Zn294 O299 2.049 . S
Zn294 O304 2.067 . S
Zn295 O296 1.962 . S
Zn295 O298 1.986 . S
Zn295 O300 1.996 . S
Zn295 O303 1.943 . S
O296 Zn295 1.962 . S
O296 C301 1.254 . S
O297 Zn294 2.031 . S
O297 C301 1.269 . S
O298 Zn295 1.986 . S
O298 C305 1.262 . S
O299 Zn294 2.049 . S
O299 C307 1.260 . S
O300 Zn295 1.996 . S
O300 C307 1.257 . S
C301 O296 1.254 . S
C301 O297 1.269 . S
C302 O303 1.249 . S
C302 O304 1.270 . S
O303 Zn295 1.943 . S
O303 C302 1.249 . S
O304 Zn294 2.067 . S
O304 C302 1.270 . S
C305 O298 1.262 . S
C305 O306 1.232 . S
O306 C305 1.232 . S
C307 O299 1.260 . S
C307 O300 1.257 . S
Zn308 O311 2.031 . S
Zn308 O313 2.049 . S
Zn308 O318 2.067 . S
Zn309 O310 1.962 . S
Zn309 O312 1.986 . S
Zn309 O314 1.996 . S
Zn309 O317 1.943 . S
O310 Zn309 1.962 . S
O310 C315 1.254 . S
O311 Zn308 2.031 . S
O311 C315 1.269 . S
O312 Zn309 1.986 . S
O312 C319 1.262 . S
O313 Zn308 2.049 . S
O313 C321 1.260 . S
O314 Zn309 1.996 . S
O314 C321 1.257 . S
C315 O310 1.254 . S
C315 O311 1.269 . S
C316 O317 1.249 . S
C316 O318 1.270 . S
O317 Zn309 1.943 . S
O317 C316 1.249 . S
O318 Zn308 2.067 . S
O318 C316 1.270 . S
C319 O312 1.262 . S
C319 O320 1.232 . S
O320 C319 1.232 . S
C321 O313 1.260 . S
C321 O314 1.257 . S
Zn322 O325 2.031 . S
Zn322 O327 2.049 . S
Zn322 O332 2.067 . S
Zn323 O324 1.962 . S
Zn323 O326 1.986 . S
Zn323 O328 1.996 . S
Zn323 O331 1.943 . S
O324 Zn323 1.962 . S
O324 C329 1.254 . S
O325 Zn322 2.031 . S
O325 C329 1.269 . S
O326 Zn323 1.986 . S
O326 C333 1.262 . S
O327 Zn322 2.049 . S
O327 C335 1.260 . S
O328 Zn323 1.996 . S
O328 C335 1.257 . S
C329 O324 1.254 . S
C329 O325 1.269 . S
C330 O331 1.249 . S
C330 O332 1.270 . S
O331 Zn323 1.943 . S
O331 C330 1.249 . S
O332 Zn322 2.067 . S
O332 C330 1.270 . S
C333 O326 1.262 . S
C333 O334 1.232 . S
O334 C333 1.232 . S
C335 O327 1.260 . S
C335 O328 1.257 . S
Zn336 O339 2.031 . S
Zn336 O341 2.049 . S
Zn336 O346 2.067 . S
Zn337 O338 1.962 . S
Zn337 O340 1.986 . S
Zn337 O342 1.996 . S
Zn337 O345 1.943 . S
O338 Zn337 1.962 . S
O338 C343 1.254 . S
O339 Zn336 2.031 . S
O339 C343 1.269 . S
O340 Zn337 1.986 . S
O340 C347 1.262 . S
O341 Zn336 2.049 . S
O341 C349 1.260 . S
O342 Zn337 1.996 . S
O342 C349 1.257 . S
C343 O338 1.254 . S
C343 O339 1.269 . S
C344 O345 1.249 . S
C344 O346 1.270 . S
O345 Zn337 1.943 . S
O345 C344 1.249 . S
O346 Zn336 2.067 . S
O346 C344 1.270 . S
C347 O340 1.262 . S
C347 O348 1.232 . S
O348 C347 1.232 . S
C349 O341 1.260 . S
C349 O342 1.257 . S
Zn350 O353 2.031 . S
Zn350 O355 2.049 . S
Zn350 O360 2.067 . S
Zn351 O352 1.962 . S
Zn351 O354 1.986 . S
Zn351 O356 1.996 . S
Zn351 O359 1.943 . S
O352 Zn351 1.962 . S
O352 C357 1.254 . S
O353 Zn350 2.031 . S
O353 C357 1.269 . S
O354 Zn351 1.986 . S
O354 C361 1.262 . S
O355 Zn350 2.049 . S
O355 C363 1.260 . S
O356 Zn351 1.996 . S
O356 C363 1.257 . S
C357 O352 1.254 . S
C357 O353 1.269 . S
C358 O359 1.249 . S
C358 O360 1.270 . S
O359 Zn351 1.943 . S
O359 C358 1.249 . S
O360 Zn350 2.067 . S
O360 C358 1.270 . S
C361 O354 1.262 . S
C361 O362 1.232 . S
O362 C361 1.232 . S
C363 O355 1.260 . S
C363 O356 1.257 . S
Zn364 O367 2.031 . S
Zn364 O369 2.049 . S
Zn364 O374 2.067 . S
Zn365 O366 1.962 . S
Zn365 O368 1.986 . S
Zn365 O370 1.996 . S
Zn365 O373 1.943 . S
O366 Zn365 1.962 . S
O366 C371 1.254 . S
O367 Zn364 2.031 . S
O367 C371 1.269 . S
O368 Zn365 1.986 . S
O368 C375 1.262 . S
O369 Zn364 2.049 . S
O369 C377 1.260 . S
O370 Zn365 1.996 . S
O370 C377 1.257 . S
C371 O366 1.254 . S
C371 O367 1.269 . S
C372 O373 1.249 . S
C372 O374 1.270 . S
O373 Zn365 1.943 . S
O373 C372 1.249 . S
O374 Zn364 2.067 . S
O374 C372 1.270 . S
C375 O368 1.262 . S
C375 O376 1.232 . S
O376 C375 1.232 . S
C377 O369 1.260 . S
C377 O370 1.257 . S
Zn378 O381 2.031 . S
Zn378 O383 2.049 . S
Zn378 O388 2.067 . S
Zn379 O380 1.962 . S
Zn379 O382 1.986 . S
Zn379 O384 1.996 . S
Zn379 O387 1.943 . S
O380 Zn379 1.962 . S
O380 C385 1.254 . S
O381 Zn378 2.031 . S
O381 C385 1.269 . S
O382 Zn379 1.986 . S
O382 C389 1.262 . S
O383 Zn378 2.049 . S
O383 C391 1.260 . S
O384 Zn379 1.996 . S
O384 C391 1.257 . S
C385 O380 1.254 . S
C385 O381 1.269 . S
C386 O387 1.249 . S
C386 O388 1.270 . S
O387 Zn379 1.943 . S
O387 C386 1.249 . S
O388 Zn378 2.067 . S
O388 C386 1.270 . S
C389 O382 1.262 . S
C389 O390 1.232 . S
O390 C389 1.232 . S
C391 O383 1.260 . S
C391 O384 1.257 . S
Zn392 O395 2.031 . S
Zn392 O397 2.049 . S
Zn392 O402 2.067 . S
Zn393 O394 1.962 . S
Zn393 O396 1.986 . S
Zn393 O398 1.996 . S
Zn393 O401 1.943 . S
O394 Zn393 1.962 . S
O394 C399 1.254 . S
O395 Zn392 2.031 . S
O395 C399 1.269 . S
O396 Zn393 1.986 . S
O396 C403 1.262 . S
O397 Zn392 2.049 . S
O397 C405 1.260 . S
O398 Zn393 1.996 . S
O398 C405 1.257 . S
C399 O394 1.254 . S
C399 O395 1.269 . S
C400 O401 1.249 . S
C400 O402 1.270 . S
O401 Zn393 1.943 . S
O401 C400 1.249 . S
O402 Zn392 2.067 . S
O402 C400 1.270 . S
C403 O396 1.262 . S
C403 O404 1.232 . S
O404 C403 1.232 . S
C405 O397 1.260 . S
C405 O398 1.257 . S
Zn406 O409 2.031 . S
Zn406 O411 2.049 . S
Zn406 O416 2.067 . S
Zn407 O408 1.962 . S
Zn407 O410 1.986 . S
Zn407 O412 1.996 . S
Zn407 O415 1.943 . S
O408 Zn407 1.962 . S
O408 C413 1.254 . S
O409 Zn406 2.031 . S
O409 C413 1.269 . S
O410 Zn407 1.986 . S
O410 C417 1.262 . S
O411 Zn406 2.049 . S
O411 C419 1.260 . S
O412 Zn407 1.996 . S
O412 C419 1.257 . S
C413 O408 1.254 . S
C413 O409 1.269 . S
C414 O415 1.249 . S
C414 O416 1.270 . S
O415 Zn407 1.943 . S
O415 C414 1.249 . S
O416 Zn406 2.067 . S
O416 C414 1.270 . S
C417 O410 1.262 . S
C417 O418 1.232 . S
O418 C417 1.232 . S
C419 O411 1.260 . S
C419 O412 1.257 . S
Zn420 O423 2.031 . S
Zn420 O425 2.049 . S
Zn420 O430 2.067 . S
Zn421 O422 1.962 . S
Zn421 O424 1.986 . S
Zn421 O426 1.996 . S
Zn421 O429 1.943 . S
O422 Zn421 1.962 . S
O422 C427 1.254 . S
O423 Zn420 2.031 . S
O423 C427 1.269 . S
O424 Zn421 1.986 . S
O424 C431 1.262 . S
O425 Zn420 2.049 . S
O425 C433 1.260 . S
O426 Zn421 1.996 . S
O426 C433 1.257 . S
C427 O422 1.254 . S
C427 O423 1.269 . S
C428 O429 1.249 . S
C428 O430 1.270 . S
O429 Zn421 1.943 . S
O429 C428 1.249 . S
O430 Zn420 2.067 . S
O430 C428 1.270 . S
C431 O424 1.262 . S
C431 O432 1.232 . S
O432 C431 1.232 . S
C433 O425 1.260 . S
C433 O426 1.257 . S
Zn434 O437 2.031 . S
Zn434 O439 2.049 . S
Zn434 O444 2.067 . S
Zn435 O436 1.962 . S
Zn435 O438 1.986 . S
Zn435 O440 1.996 . S
Zn435 O443 1.943 . S
O436 Zn435 1.962 . S
O436 C441 1.254 . S
O437 Zn434 2.031 . S
O437 C441 1.269 . S
O438 Zn435 1.986 . S
O438 C445 1.262 . S
O439 Zn434 2.049 . S
O439 C447 1.260 . S
O440 Zn435 1.996 . S
O440 C447 1.257 . S
C441 O436 1.254 . S
C441 O437 1.269 . S
C442 O443 1.249 . S
C442 O444 1.270 . S
O443 Zn435 1.943 . S
O443 C442 1.249 . S
O444 Zn434 2.067 . S
O444 C442 1.270 . S
C445 O438 1.262 . S
C445 O446 1.232 . S
O446 C445 1.232 . S
C447 O439 1.260 . S
C447 O440 1.257 . S
Zn448 O451 2.031 . S
Zn448 O453 2.049 . S
Zn448 O458 2.067 . S
Zn449 O450 1.962 . S
Zn449 O452 1.986 . S
Zn449 O454 1.996 . S
Zn449 O457 1.943 . S
O450 Zn449 1.962 . S
O450 C455 1.254 . S
O451 Zn448 2.031 . S
O451 C455 1.269 . S
O452 Zn449 1.986 . S
O452 C459 1.262 . S
O453 Zn448 2.049 . S
O453 C461 1.260 . S
O454 Zn449 1.996 . S
O454 C461 1.257 . S
C455 O450 1.254 . S
C455 O451 1.269 . S
C456 O457 1.249 . S
C456 O458 1.270 . S
O457 Zn449 1.943 . S
O457 C456 1.249 . S
O458 Zn448 2.067 . S
O458 C456 1.270 . S
C459 O452 1.262 . S
C459 O460 1.232 . S
O460 C459 1.232 . S
C461 O453 1.260 . S
C461 O454 1.257 . S
Zn462 O465 2.031 . S
Zn462 O467 2.049 . S
Zn462 O472 2.067 . S
Zn463 O464 1.962 . S
Zn463 O466 1.986 . S
Zn463 O468 1.996 . S
Zn463 O471 1.943 . S
O464 Zn463 1.962 . S
O464 C469 1.254 . S
O465 Zn462 2.031 . S
O465 C469 1.269 . S
O466 Zn463 1.986 . S
O466 C473 1.262 . S
O467 Zn462 2.049 . S
O467 C475 1.260 . S
O468 Zn463 1.996 . S
O468 C475 1.257 . S
C469 O464 1.254 . S
C469 O465 1.269 . S
C470 O471 1.249 . S
C470 O472 1.270 . S
O471 Zn463 1.943 . S
O471 C470 1.249 . S
O472 Zn462 2.067 . S
O472 C470 1.270 . S
C473 O466 1.262 . S
C473 O474 1.232 . S
O474 C473 1.232 . S
C475 O467 1.260 . S
C475 O468 1.257 . S
Zn476 O479 2.031 . S
Zn476 O481 2.049 . S
Zn476 O486 2.067 . S
Zn477 O478 1.962 . S
Zn477 O480 1.986 . S
Zn477 O482 1.996 . S
Zn477 O485 1.943 . S
O478 Zn477 1.962 . S
O478 C483 1.254 . S
O479 Zn476 2.031 . S
O479 C483 1.269 . S
O480 Zn477 1.986 . S
O480 C487 1.262 . S
O481 Zn476 2.049 . S
O481 C489 1.260 . S
O482 Zn477 1.996 . S
O482 C489 1.257 . S
C483 O478 1.254 . S
C483 O479 1.269 . S
C484 O485 1.249 . S
C484 O486 1.270 . S
O485 Zn477 1.943 . S
O485 C484 1.249 . S
O486 Zn476 2.067 . S
O486 C484 1.270 . S
C487 O480 1.262 . S
C487 O488 1.232 . S
O488 C487 1.232 . S
C489 O481 1.260 . S
C489 O482 1.257 . S
Zn490 O493 2.031 . S
Zn490 O495 2.049 . S
Zn490 O500 2.067 . S
Zn491 O492 1.962 . S
Zn491 O494 1.986 . S
Zn491 O496 1.996 . S
Zn491 O499 1.943 . S
O492 Zn491 1.962 . S
O492 C497 1.254 . S
O493 Zn490 2.031 . S
O493 C497 1.269 . S
O494 Zn491 1.986 . S
O494 C501 1.262 . S
O495 Zn490 2.049 . S
O495 C503 1.260 . S
O496 Zn491 1.996 . S
O496 C503 1.257 . S
C497 O492 1.254 . S
C497 O493 1.269 . S
C498 O499 1.249 . S
C498 O500 1.270 . S
O499 Zn491 1.943 . S
O499 C498 1.249 . S
O500 Zn490 2.067 . S
O500 C498 1.270 . S
C501 O494 1.262 . S
C501 O502 1.232 . S
O502 C501 1.232 . S
C503 O495 1.260 . S
C503 O496 1.257 . S
Zn504 O507 2.031 . S
Zn504 O509 2.049 . S
Zn504 O514 2.067 . S
Zn505 O506 1.962 . S
Zn505 O508 1.986 . S
Zn505 O510 1.996 . S
Zn505 O513 1.943 . S
O506 Zn505 1.962 . S
O506 C511 1.254 . S
O507 Zn504 2.031 . S
O507 C511 1.269 . S
O508 Zn505 1.986 . S
O508 C515 1.262 . S
O509 Zn504 2.049 . S
O509 C517 1.260 . S
O510 Zn505 1.996 . S
O510 C517 1.257 . S
C511 O506 1.254 . S
C511 O507 1.269 . S
C512 O513 1.249 . S
C512 O514 1.270 . S
O513 Zn505 1.943 . S
O513 C512 1.249 . S
O514 Zn504 2.067 . S
O514 C512 1.270 . S
C515 O508 1.262 . S
C515 O516 1.232 . S
O516 C515 1.232 . S
C517 O509 1.260 . S
C517 O510 1.257 . S
Zn518 O521 2.031 . S
Zn518 O523 2.049 . S
Zn518 O528 2.067 . S
Zn519 O520 1.962 . S
Zn519 O522 1.986 . S
Zn519 O524 1.996 . S
Zn519 O527 1.943 . S
O520 Zn519 1.962 . S
O520 C525 1.254 . S
O521 Zn518 2.031 . S
O521 C525 1.269 . S
O522 Zn519 1.986 . S
O522 C529 1.262 . S
O523 Zn518 2.049 . S
O523 C531 1.260 . S
O524 Zn519 1.996 . S
O524 C531 1.257 . S
C525 O520 1.254 . S
C525 O521 1.269 . S
C526 O527 1.249 . S
C526 O528 1.270 . S
O527 Zn519 1.943 . S
O527 C526 1.249 . S
O528 Zn518 2.067 . S
O528 C526 1.270 . S
C529 O522 1.262 . S
C529 O530 1.232 . S
O530 C529 1.232 . S
C531 O523 1.260 . S
C531 O524 1.257 . S
Zn532 O535 2.031 . S
Zn532 O537 2.049 . S
Zn532 O542 2.067 . S
Zn533 O534 1.962 . S
Zn533 O536 1.986 . S
Zn533 O538 1.996 . S
Zn533 O541 1.943 . S
O534 Zn533 1.962 . S
O534 C539 1.254 . S
O535 Zn532 2.031 . S
O535 C539 1.269 . S
O536 Zn533 1.986 . S
O536 C543 1.262 . S
O537 Zn532 2.049 . S
O537 C545 1.260 . S
O538 Zn533 1.996 . S
O538 C545 1.257 . S
C539 O534 1.254 . S
C539 O535 1.269 . S
C540 O541 1.249 . S
C540 O542 1.270 . S
O541 Zn533 1.943 . S
O541 C540 1.249 . S
O542 Zn532 2.067 . S
O542 C540 1.270 . S
C543 O536 1.262 . S
C543 O544 1.232 . S
O544 C543 1.232 . S
C545 O537 1.260 . S
C545 O538 1.257 . S
Zn546 O549 2.031 . S
Zn546 O551 2.049 . S
Zn546 O556 2.067 . S
Zn547 O548 1.962 . S
Zn547 O550 1.986 . S
Zn547 O552 1.996 . S
Zn547 O555 1.943 . S
O548 Zn547 1.962 . S
O548 C553 1.254 . S
O549 Zn546 2.031 . S
O549 C553 1.269 . S
O550 Zn547 1.986 . S
O550 C557 1.262 . S
O551 Zn546 2.049 . S
O551 C559 1.260 . S
O552 Zn547 1.996 . S
O552 C559 1.257 . S
C553 O548 1.254 . S
C553 O549 1.269 . S
C554 O555 1.249 . S
C554 O556 1.270 . S
O555 Zn547 1.943 . S
O555 C554 1.249 . S
O556 Zn546 2.067 . S
O556 C554 1.270 . S
C557 O550 1.262 . S
C557 O558 1.232 . S
O558 C557 1.232 . S
C559 O551 1.260 . S
C559 O552 1.257 . S
Zn560 O563 2.031 . S
Zn560 O565 2.049 . S
Zn560 O570 2.067 . S
Zn561 O562 1.962 . S
Zn561 O564 1.986 . S
Zn561 O566 1.996 . S
Zn561 O569 1.943 . S
O562 Zn561 1.962 . S
O562 C567 1.254 . S
O563 Zn560 2.031 . S
O563 C567 1.269 . S
O564 Zn561 1.986 . S
O564 C571 1.262 . S
O565 Zn560 2.049 . S
O565 C573 1.260 . S
O566 Zn561 1.996 . S
O566 C573 1.257 . S
C567 O562 1.254 . S
C567 O563 1.269 . S
C568 O569 1.249 . S
C568 O570 1.270 . S
O569 Zn561 1.943 . S
O569 C568 1.249 . S
O570 Zn560 2.067 . S
O570 C568 1.270 . S
C571 O564 1.262 . S
C571 O572 1.232 . S
O572 C571 1.232 . S
C573 O565 1.260 . S
C573 O566 1.257 . S
Zn574 O577 2.031 . S
Zn574 O579 2.049 . S
Zn574 O584 2.067 . S
Zn575 O576 1.962 . S
Zn575 O578 1.986 . S
Zn575 O580 1.996 . S
Zn575 O583 1.943 . S
O576 Zn575 1.962 . S
O576 C581 1.254 . S
O577 Zn574 2.031 . S
O577 C581 1.269 . S
O578 Zn575 1.986 . S
O578 C585 1.262 . S
O579 Zn574 2.049 . S
O579 C587 1.260 . S
O580 Zn575 1.996 . S
O580 C587 1.257 . S
C581 O576 1.254 . S
C581 O577 1.269 . S
C582 O583 1.249 . S
C582 O584 1.270 . S
O583 Zn575 1.943 . S
O583 C582 1.249 . S
O584 Zn574 2.067 . S
O584 C582 1.270 . S
C585 O578 1.262 . S
C585 O586 1.232 . S
O586 C585 1.232 . S
C587 O579 1.260 . S
C587 O580 1.257 . S
Zn588 O591 2.031 . S
Zn588 O593 2.049 . S
Zn588 O598 2.067 . S
Zn589 O590 1.962 . S
Zn589 O592 1.986 . S
Zn589 O594 1.996 . S
Zn589 O597 1.943 . S
O590 Zn589 1.962 . S
O590 C595 1.254 . S
O591 Zn588 2.031 . S
O591 C595 1.269 . S
O592 Zn589 1.986 . S
O592 C599 1.262 . S
O593 Zn588 2.049 . S
O593 C601 1.260 . S
O594 Zn589 1.996 . S
O594 C601 1.257 . S
C595 O590 1.254 . S
C595 O591 1.269 . S
C596 O597 1.249 . S
C596 O598 1.270 . S
O597 Zn589 1.943 . S
O597 C596 1.249 . S
O598 Zn588 2.067 . S
O598 C596 1.270 . S
C599 O592 1.262 . S
C599 O600 1.232 . S
O600 C599 1.232 . S
C601 O593 1.260 . S
C601 O594 1.257 . S
Zn602 O605 2.031 . S
Zn602 O607 2.049 . S
Zn602 O612 2.067 . S
Zn603 O604 1.962 . S
Zn603 O606 1.986 . S
Zn603 O608 1.996 . S
Zn603 O611 1.943 . S
O604 Zn603 1.962 . S
O604 C609 1.254 . S
O605 Zn602 2.031 . S
O605 C609 1.269 . S
O606 Zn603 1.986 . S
O606 C613 1.262 . S
O607 Zn602 2.049 . S
O607 C615 1.260 . S
O608 Zn603 1.996 . S
O608 C615 1.257 . S
C609 O604 1.254 . S
C609 O605 1.269 . S
C610 O611 1.249 . S
C610 O612 1.270 . S
O611 Zn603 1.943 . S
O611 C610 1.249 . S
O612 Zn602 2.067 . S
O612 C610 1.270 . S
C613 O606 1.262 . S
C613 O614 1.232 . S
O614 C613 1.232 . S
C615 O607 1.260 . S
C615 O608 1.257 . S
Zn616 O619 2.031 . S
Zn616 O621 2.049 . S
Zn616 O626 2.067 . S
Zn617 O618 1.962 . S
Zn617 O620 1.986 . S
Zn617 O622 1.996 . S
Zn617 O625 1.943 . S
O618 Zn617 1.962 . S
O618 C623 1.254 . S
O619 Zn616 2.031 . S
O619 C623 1.269 . S
O620 Zn617 1.986 . S
O620 C627 1.262 . S
O621 Zn616 2.049 . S
O621 C629 1.260 . S
O622 Zn617 1.996 . S
O622 C629 1.257 . S
C623 O618 1.254 . S
C623 O619 1.269 . S
C624 O625 1.249 . S
C624 O626 1.270 . S
O625 Zn617 1.943 . S
O625 C624 1.249 . S
O626 Zn616 2.067 . S
O626 C624 1.270 . S
C627 O620 1.262 . S
C627 O628 1.232 . S
O628 C627 1.232 . S
C629 O621 1.260 . S
C629 O622 1.257 . S
Zn630 O633 2.031 . S
Zn630 O635 2.049 . S
Zn630 O640 2.067 . S
Zn631 O632 1.962 . S
Zn631 O634 1.986 . S
Zn631 O636 1.996 . S
Zn631 O639 1.943 . S
O632 Zn631 1.962 . S
O632 C637 1.254 . S
O633 Zn630 2.031 . S
O633 C637 1.269 . S
O634 Zn631 1.986 . S
O634 C641 1.262 . S
O635 Zn630 2.049 . S
O635 C643 1.260 . S
O636 Zn631 1.996 . S
O636 C643 1.257 . S
C637 O632 1.254 . S
C637 O633 1.269 . S
C638 O639 1.249 . S
C638 O640 1.270 . S
O639 Zn631 1.943 . S
O639 C638 1.249 . S
O640 Zn630 2.067 . S
O640 C638 1.270 . S
C641 O634 1.262 . S
C641 O642 1.232 . S
O642 C641 1.232 . S
C643 O635 1.260 . S
C643 O636 1.257 . S
Zn644 O647 2.031 . S
Zn644 O649 2.049 . S
Zn644 O654 2.067 . S
Zn645 O646 1.962 . S
Zn645 O648 1.986 . S
Zn645 O650 1.996 . S
Zn645 O653 1.943 . S
O646 Zn645 1.962 . S
O646 C651 1.254 . S
O647 Zn644 2.031 . S
O647 C651 1.269 . S
O648 Zn645 1.986 . S
O648 C655 1.262 . S
O649 Zn644 2.049 . S
O649 C657 1.260 . S
O650 Zn645 1.996 . S
O650 C657 1.257 . S
C651 O646 1.254 . S
C651 O647 1.269 . S
C652 O653 1.249 . S
C652 O654 1.270 . S
O653 Zn645 1.943 . S
O653 C652 1.249 . S
O654 Zn644 2.067 . S
O654 C652 1.270 . S
C655 O648 1.262 . S
C655 O656 1.232 . S
O656 C655 1.232 . S
C657 O649 1.260 . S
C657 O650 1.257 . S
Zn658 O661 2.031 . S
Zn658 O663 2.049 . S
Zn658 O668 2.067 . S
Zn659 O660 1.962 . S
Zn659 O662 1.986 . S
Zn659 O664 1.996 . S
Zn659 O667 1.943 . S
O660 Zn659 1.962 . S
O660 C665 1.254 . S
O661 Zn658 2.031 . S
O661 C665 1.269 . S
O662 Zn659 1.986 . S
O662 C669 1.262 . S
O663 Zn658 2.049 . S
O663 C671 1.260 . S
O664 Zn659 1.996 . S
O664 C671 1.257 . S
C665 O660 1.254 . S
C665 O661 1.269 . S
C666 O667 1.249 . S
C666 O668 1.270 . S
O667 Zn659 1.943 . S
O667 C666 1.249 . S
O668 Zn658 2.067 . S
O668 C666 1.270 . S
C669 O662 1.262 . S
C669 O670 1.232 . S
O670 C669 1.232 . S
C671 O663 1.260 . S
C671 O664 1.257 . S
H672 C678 0.930 . S
H673 C682 0.930 . S
H674 C687 0.929 . S
H675 C685 0.929 . S
H676 C680 0.929 . S
H677 C686 0.929 . S
C678 H672 0.930 . S
C678 C679 1.367 . S
C678 C686 1.378 . S
C679 C678 1.367 . S
C679 C687 1.433 . S
C680 H676 0.929 . S
C680 C682 1.378 . S
C680 C684 1.350 . S
C681 C684 1.463 . S
C681 C686 1.350 . S
C681 N689 1.427 . S
C682 H673 0.930 . S
C682 C680 1.378 . S
C682 C683 1.367 . S
C683 C682 1.367 . S
C683 C685 1.433 . S
C684 C680 1.350 . S
C684 C681 1.463 . S
C684 N688 1.427 . S
C685 H675 0.929 . S
C685 C683 1.433 . S
C685 N688 1.384 . S
C686 H677 0.929 . S
C686 C678 1.378 . S
C686 C681 1.350 . S
C687 H674 0.929 . S
C687 C679 1.433 . S
C687 N689 1.384 . S
N688 C684 1.427 . S
N688 C685 1.384 . S
N689 C681 1.427 . S
N689 C687 1.384 . S
H690 C696 0.930 . S
H691 C700 0.930 . S
H692 C705 0.929 . S
H693 C703 0.929 . S
H694 C698 0.929 . S
H695 C704 0.929 . S
C696 H690 0.930 . S
C696 C697 1.367 . S
C696 C704 1.378 . S
C697 C696 1.367 . S
C697 C705 1.433 . S
C698 H694 0.929 . S
C698 C700 1.378 . S
C698 C702 1.350 . S
C699 C702 1.463 . S
C699 C704 1.350 1_655 S
C699 N707 1.427 . S
C700 H691 0.930 . S
C700 C698 1.378 . S
C700 C701 1.367 . S
C701 C700 1.367 . S
C701 C703 1.433 . S
C702 C698 1.350 . S
C702 C699 1.463 . S
C702 N706 1.427 . S
C703 H693 0.929 . S
C703 C701 1.433 . S
C703 N706 1.384 . S
C704 H695 0.929 . S
C704 C696 1.378 . S
C704 C699 1.350 1_455 S
C705 H692 0.929 . S
C705 C697 1.433 . S
C705 N707 1.384 1_455 S
N706 C702 1.427 . S
N706 C703 1.384 . S
N707 C699 1.427 . S
N707 C705 1.384 1_655 S
H708 C714 0.930 . S
H709 C718 0.930 . S
H710 C723 0.929 . S
H711 C721 0.929 . S
H712 C716 0.929 . S
H713 C722 0.929 . S
C714 H708 0.930 . S
C714 C715 1.367 . S
C714 C722 1.378 . S
C715 C714 1.367 . S
C715 C723 1.433 . S
C716 H712 0.929 . S
C716 C718 1.378 . S
C716 C720 1.350 . S
C717 C720 1.463 . S
C717 C722 1.350 . S
C717 N725 1.427 . S
C718 H709 0.930 . S
C718 C716 1.378 . S
C718 C719 1.367 . S
C719 C718 1.367 . S
C719 C721 1.433 . S
C720 C716 1.350 . S
C720 C717 1.463 . S
C720 N724 1.427 . S
C721 H711 0.929 . S
C721 C719 1.433 . S
C721 N724 1.384 . S
C722 H713 0.929 . S
C722 C714 1.378 . S
C722 C717 1.350 . S
C723 H710 0.929 . S
C723 C715 1.433 . S
C723 N725 1.384 . S
N724 C720 1.427 . S
N724 C721 1.384 . S
N725 C717 1.427 . S
N725 C723 1.384 . S
H726 C732 0.930 . S
H727 C736 0.930 . S
H728 C741 0.929 . S
H729 C739 0.929 . S
H730 C734 0.929 . S
H731 C740 0.929 . S
C732 H726 0.930 . S
C732 C733 1.367 . S
C732 C740 1.378 . S
C733 C732 1.367 . S
C733 C741 1.433 . S
C734 H730 0.929 . S
C734 C736 1.378 . S
C734 C738 1.350 . S
C735 C738 1.463 . S
C735 C740 1.350 . S
C735 N743 1.427 . S
C736 H727 0.930 . S
C736 C734 1.378 . S
C736 C737 1.367 . S
C737 C736 1.367 . S
C737 C739 1.433 . S
C738 C734 1.350 . S
C738 C735 1.463 . S
C738 N742 1.427 . S
C739 H729 0.929 . S
C739 C737 1.433 . S
C739 N742 1.384 . S
C740 H731 0.929 . S
C740 C732 1.378 . S
C740 C735 1.350 . S
C741 H728 0.929 . S
C741 C733 1.433 . S
C741 N743 1.384 . S
N742 C738 1.427 . S
N742 C739 1.384 . S
N743 C735 1.427 . S
N743 C741 1.384 . S
H744 C750 0.930 . S
H745 C754 0.930 . S
H746 C759 0.929 . S
H747 C757 0.929 . S
H748 C752 0.929 . S
H749 C758 0.929 . S
C750 H744 0.930 . S
C750 C751 1.367 . S
C750 C758 1.378 . S
C751 C750 1.367 . S
C751 C759 1.433 . S
C752 H748 0.929 . S
C752 C754 1.378 . S
C752 C756 1.350 . S
C753 C756 1.463 . S
C753 C758 1.350 . S
C753 N761 1.427 . S
C754 H745 0.930 . S
C754 C752 1.378 . S
C754 C755 1.367 . S
C755 C754 1.367 . S
C755 C757 1.433 . S
C756 C752 1.350 . S
C756 C753 1.463 . S
C756 N760 1.427 . S
C757 H747 0.929 . S
C757 C755 1.433 . S
C757 N760 1.384 . S
C758 H749 0.929 . S
C758 C750 1.378 . S
C758 C753 1.350 . S
C759 H746 0.929 . S
C759 C751 1.433 . S
C759 N761 1.384 . S
N760 C756 1.427 . S
N760 C757 1.384 . S
N761 C753 1.427 . S
N761 C759 1.384 . S
H762 C768 0.930 . S
H763 C772 0.930 . S
H764 C777 0.929 . S
H765 C775 0.929 . S
H766 C770 0.929 . S
H767 C776 0.929 . S
C768 H762 0.930 . S
C768 C769 1.367 . S
C768 C776 1.378 . S
C769 C768 1.367 . S
C769 C777 1.433 . S
C770 H766 0.929 . S
C770 C772 1.378 . S
C770 C774 1.350 . S
C771 C774 1.463 . S
C771 C776 1.350 . S
C771 N779 1.427 . S
C772 H763 0.930 . S
C772 C770 1.378 . S
C772 C773 1.367 . S
C773 C772 1.367 . S
C773 C775 1.433 . S
C774 C770 1.350 . S
C774 C771 1.463 . S
C774 N778 1.427 . S
C775 H765 0.929 . S
C775 C773 1.433 . S
C775 N778 1.384 . S
C776 H767 0.929 . S
C776 C768 1.378 . S
C776 C771 1.350 . S
C777 H764 0.929 . S
C777 C769 1.433 . S
C777 N779 1.384 . S
N778 C774 1.427 . S
N778 C775 1.384 . S
N779 C771 1.427 . S
N779 C777 1.384 . S
H780 C786 0.930 . S
H781 C790 0.930 . S
H782 C795 0.929 . S
H783 C793 0.929 . S
H784 C788 0.929 . S
H785 C794 0.929 . S
C786 H780 0.930 . S
C786 C787 1.367 . S
C786 C794 1.378 . S
C787 C786 1.367 . S
C787 C795 1.433 . S
C788 H784 0.929 . S
C788 C790 1.378 . S
C788 C792 1.350 . S
C789 C792 1.463 . S
C789 C794 1.350 . S
C789 N797 1.427 . S
C790 H781 0.930 . S
C790 C788 1.378 . S
C790 C791 1.367 . S
C791 C790 1.367 . S
C791 C793 1.433 . S
C792 C788 1.350 . S
C792 C789 1.463 . S
C792 N796 1.427 . S
C793 H783 0.929 . S
C793 C791 1.433 . S
C793 N796 1.384 . S
C794 H785 0.929 . S
C794 C786 1.378 . S
C794 C789 1.350 . S
C795 H782 0.929 . S
C795 C787 1.433 . S
C795 N797 1.384 . S
N796 C792 1.427 . S
N796 C793 1.384 . S
N797 C789 1.427 . S
N797 C795 1.384 . S
H798 C804 0.930 . S
H799 C808 0.930 . S
H800 C813 0.929 . S
H801 C811 0.929 . S
H802 C806 0.929 . S
H803 C812 0.929 . S
C804 H798 0.930 . S
C804 C805 1.367 . S
C804 C812 1.378 . S
C805 C804 1.367 . S
C805 C813 1.433 . S
C806 H802 0.929 . S
C806 C808 1.378 . S
C806 C810 1.350 . S
C807 C810 1.463 . S
C807 C812 1.350 1_655 S
C807 N815 1.427 1_655 S
C808 H799 0.930 . S
C808 C806 1.378 . S
C808 C809 1.367 . S
C809 C808 1.367 . S
C809 C811 1.433 . S
C810 C806 1.350 . S
C810 C807 1.463 . S
C810 N814 1.427 . S
C811 H801 0.929 . S
C811 C809 1.433 . S
C811 N814 1.384 . S
C812 H803 0.929 . S
C812 C804 1.378 . S
C812 C807 1.350 1_455 S
C813 H800 0.929 . S
C813 C805 1.433 . S
C813 N815 1.386 . S
N814 C810 1.427 . S
N814 C811 1.384 . S
N815 C807 1.427 1_455 S
N815 C813 1.386 . S
H816 C822 0.930 . S
H817 C826 0.930 . S
H818 C831 0.929 . S
H819 C829 0.929 . S
H820 C824 0.929 . S
H821 C830 0.929 . S
C822 H816 0.930 . S
C822 C823 1.367 . S
C822 C830 1.378 . S
C823 C822 1.367 . S
C823 C831 1.433 . S
C824 H820 0.929 . S
C824 C826 1.378 . S
C824 C828 1.350 . S
C825 C828 1.463 . S
C825 C830 1.350 . S
C825 N833 1.427 . S
C826 H817 0.930 . S
C826 C824 1.378 . S
C826 C827 1.367 . S
C827 C826 1.367 . S
C827 C829 1.433 . S
C828 C824 1.350 . S
C828 C825 1.463 . S
C828 N832 1.427 . S
C829 H819 0.929 . S
C829 C827 1.433 . S
C829 N832 1.384 . S
C830 H821 0.929 . S
C830 C822 1.378 . S
C830 C825 1.350 . S
C831 H818 0.929 . S
C831 C823 1.433 . S
C831 N833 1.384 . S
N832 C828 1.427 . S
N832 C829 1.384 . S
N833 C825 1.427 . S
N833 C831 1.384 . S
H834 C840 0.930 . S
H835 C844 0.930 . S
H836 C849 0.929 . S
H837 C847 0.929 . S
H838 C842 0.929 . S
H839 C848 0.929 . S
C840 H834 0.930 . S
C840 C841 1.367 . S
C840 C848 1.378 . S
C841 C840 1.367 . S
C841 C849 1.433 . S
C842 H838 0.929 . S
C842 C844 1.378 . S
C842 C846 1.350 . S
C843 C846 1.463 . S
C843 C848 1.350 . S
C843 N851 1.427 . S
C844 H835 0.930 . S
C844 C842 1.378 . S
C844 C845 1.367 . S
C845 C844 1.367 . S
C845 C847 1.433 . S
C846 C842 1.350 . S
C846 C843 1.463 . S
C846 N850 1.427 . S
C847 H837 0.929 . S
C847 C845 1.433 . S
C847 N850 1.384 . S
C848 H839 0.929 . S
C848 C840 1.378 . S
C848 C843 1.350 . S
C849 H836 0.929 . S
C849 C841 1.433 . S
C849 N851 1.384 . S
N850 C846 1.427 . S
N850 C847 1.384 . S
N851 C843 1.427 . S
N851 C849 1.384 . S
H852 C858 0.930 . S
H853 C862 0.930 . S
H854 C867 0.929 . S
H855 C865 0.929 . S
H856 C860 0.929 . S
H857 C866 0.929 . S
C858 H852 0.930 . S
C858 C859 1.367 . S
C858 C866 1.378 . S
C859 C858 1.367 . S
C859 C867 1.433 . S
C860 H856 0.929 . S
C860 C862 1.378 . S
C860 C864 1.350 . S
C861 C864 1.463 . S
C861 C866 1.350 . S
C861 N869 1.427 . S
C862 H853 0.930 . S
C862 C860 1.378 . S
C862 C863 1.367 . S
C863 C862 1.367 . S
C863 C865 1.433 . S
C864 C860 1.350 . S
C864 C861 1.463 . S
C864 N868 1.427 . S
C865 H855 0.929 . S
C865 C863 1.433 . S
C865 N868 1.384 . S
C866 H857 0.929 . S
C866 C858 1.378 . S
C866 C861 1.350 . S
C867 H854 0.929 . S
C867 C859 1.433 . S
C867 N869 1.384 . S
N868 C864 1.427 . S
N868 C865 1.384 . S
N869 C861 1.427 . S
N869 C867 1.384 . S
H870 C876 0.930 . S
H871 C880 0.930 . S
H872 C885 0.929 . S
H873 C883 0.929 . S
H874 C878 0.929 . S
H875 C884 0.929 . S
C876 H870 0.930 . S
C876 C877 1.367 . S
C876 C884 1.378 1_556 S
C877 C876 1.367 . S
C877 C885 1.433 . S
C878 H874 0.929 . S
C878 C880 1.378 . S
C878 C882 1.350 . S
C879 C882 1.463 . S
C879 C884 1.350 . S
C879 N887 1.427 . S
C880 H871 0.930 . S
C880 C878 1.378 . S
C880 C881 1.367 . S
C881 C880 1.367 . S
C881 C883 1.433 . S
C882 C878 1.350 . S
C882 C879 1.463 . S
C882 N886 1.427 . S
C883 H873 0.929 . S
C883 C881 1.433 . S
C883 N886 1.384 . S
C884 H875 0.929 . S
C884 C876 1.378 1_554 S
C884 C879 1.350 . S
C885 H872 0.929 . S
C885 C877 1.433 . S
C885 N887 1.384 1_556 S
N886 C882 1.427 . S
N886 C883 1.384 . S
N887 C879 1.427 . S
N887 C885 1.384 1_554 S
H888 C894 0.930 . S
H889 C898 0.930 . S
H890 C903 0.929 . S
H891 C901 0.929 . S
H892 C896 0.929 . S
H893 C902 0.929 . S
C894 H888 0.930 . S
C894 C895 1.367 . S
C894 C902 1.378 . S
C895 C894 1.367 . S
C895 C903 1.433 . S
C896 H892 0.929 . S
C896 C898 1.378 . S
C896 C900 1.350 . S
C897 C900 1.463 . S
C897 C902 1.350 . S
C897 N905 1.427 . S
C898 H889 0.930 . S
C898 C896 1.378 . S
C898 C899 1.367 . S
C899 C898 1.367 . S
C899 C901 1.433 . S
C900 C896 1.350 . S
C900 C897 1.463 . S
C900 N904 1.427 . S
C901 H891 0.929 . S
C901 C899 1.433 . S
C901 N904 1.384 . S
C902 H893 0.929 . S
C902 C894 1.378 . S
C902 C897 1.350 . S
C903 H890 0.929 . S
C903 C895 1.433 . S
C903 N905 1.384 . S
N904 C900 1.427 . S
N904 C901 1.384 . S
N905 C897 1.427 . S
N905 C903 1.384 . S
H906 C912 0.930 . S
H907 C916 0.930 . S
H908 C921 0.929 . S
H909 C919 0.929 . S
H910 C914 0.929 . S
H911 C920 0.929 . S
C912 H906 0.930 . S
C912 C913 1.367 . S
C912 C920 1.378 . S
C913 C912 1.367 . S
C913 C921 1.433 . S
C914 H910 0.929 . S
C914 C916 1.378 . S
C914 C918 1.350 . S
C915 C918 1.463 . S
C915 C920 1.350 . S
C915 N923 1.427 . S
C916 H907 0.930 . S
C916 C914 1.378 . S
C916 C917 1.367 . S
C917 C916 1.367 . S
C917 C919 1.433 . S
C918 C914 1.350 . S
C918 C915 1.463 . S
C918 N922 1.427 . S
C919 H909 0.929 . S
C919 C917 1.433 . S
C919 N922 1.384 . S
C920 H911 0.929 . S
C920 C912 1.378 . S
C920 C915 1.350 . S
C921 H908 0.929 . S
C921 C913 1.433 . S
C921 N923 1.384 . S
N922 C918 1.427 . S
N922 C919 1.384 . S
N923 C915 1.427 . S
N923 C921 1.384 . S
H924 C930 0.930 . S
H925 C934 0.930 . S
H926 C939 0.929 . S
H927 C937 0.929 . S
H928 C932 0.929 . S
H929 C938 0.929 . S
C930 H924 0.930 . S
C930 C931 1.367 . S
C930 C938 1.378 . S
C931 C930 1.367 . S
C931 C939 1.433 . S
C932 H928 0.929 . S
C932 C934 1.378 . S
C932 C936 1.350 . S
C933 C936 1.463 . S
C933 C938 1.350 . S
C933 N941 1.427 . S
C934 H925 0.930 . S
C934 C932 1.378 . S
C934 C935 1.367 . S
C935 C934 1.367 . S
C935 C937 1.433 . S
C936 C932 1.350 . S
C936 C933 1.463 . S
C936 N940 1.427 . S
C937 H927 0.929 . S
C937 C935 1.433 . S
C937 N940 1.384 . S
C938 H929 0.929 . S
C938 C930 1.378 . S
C938 C933 1.350 . S
C939 H926 0.929 . S
C939 C931 1.433 . S
C939 N941 1.384 . S
N940 C936 1.427 . S
N940 C937 1.384 . S
N941 C933 1.427 . S
N941 C939 1.384 . S
H942 C948 0.930 . S
H943 C952 0.930 . S
H944 C957 0.929 . S
H945 C955 0.929 . S
H946 C950 0.929 . S
H947 C956 0.929 . S
C948 H942 0.930 . S
C948 C949 1.367 . S
C948 C956 1.378 . S
C949 C948 1.367 . S
C949 C957 1.433 . S
C950 H946 0.929 . S
C950 C952 1.378 . S
C950 C954 1.350 . S
C951 C954 1.463 . S
C951 C956 1.350 1_556 S
C951 N959 1.425 1_556 S
C952 H943 0.930 . S
C952 C950 1.378 . S
C952 C953 1.367 . S
C953 C952 1.367 . S
C953 C955 1.433 . S
C954 C950 1.350 . S
C954 C951 1.463 . S
C954 N958 1.427 . S
C955 H945 0.929 . S
C955 C953 1.433 . S
C955 N958 1.384 . S
C956 H947 0.929 . S
C956 C948 1.378 . S
C956 C951 1.350 1_554 S
C957 H944 0.929 . S
C957 C949 1.433 . S
C957 N959 1.392 . S
N958 C954 1.427 . S
N958 C955 1.384 . S
N959 C951 1.425 1_554 S
N959 C957 1.392 . S
H960 C966 0.930 . S
H961 C970 0.930 . S
H962 C975 0.929 . S
H963 C973 0.929 . S
H964 C968 0.929 . S
H965 C974 0.929 . S
C966 H960 0.930 . S
C966 C967 1.367 . S
C966 C974 1.378 . S
C967 C966 1.367 . S
C967 C975 1.433 . S
C968 H964 0.929 . S
C968 C970 1.378 . S
C968 C972 1.350 . S
C969 C972 1.463 . S
C969 C974 1.350 . S
C969 N977 1.427 . S
C970 H961 0.930 . S
C970 C968 1.378 . S
C970 C971 1.367 . S
C971 C970 1.367 . S
C971 C973 1.433 . S
C972 C968 1.350 . S
C972 C969 1.463 . S
C972 N976 1.427 . S
C973 H963 0.929 . S
C973 C971 1.433 . S
C973 N976 1.384 . S
C974 H965 0.929 . S
C974 C966 1.378 . S
C974 C969 1.350 . S
C975 H962 0.929 . S
C975 C967 1.433 . S
C975 N977 1.384 . S
N976 C972 1.427 . S
N976 C973 1.384 . S
N977 C969 1.427 . S
N977 C975 1.384 . S
H978 C984 0.930 . S
H979 C988 0.930 . S
H980 C993 0.929 . S
H981 C991 0.929 . S
H982 C986 0.929 . S
H983 C992 0.929 . S
C984 H978 0.930 . S
C984 C985 1.367 . S
C984 C992 1.378 . S
C985 C984 1.367 . S
C985 C993 1.433 . S
C986 H982 0.929 . S
C986 C988 1.378 . S
C986 C990 1.350 . S
C987 C990 1.463 . S
C987 C992 1.350 . S
C987 N995 1.427 . S
C988 H979 0.930 . S
C988 C986 1.378 . S
C988 C989 1.367 . S
C989 C988 1.367 . S
C989 C991 1.433 . S
C990 C986 1.350 . S
C990 C987 1.463 . S
C990 N994 1.427 . S
C991 H981 0.929 . S
C991 C989 1.433 . S
C991 N994 1.384 . S
C992 H983 0.929 . S
C992 C984 1.378 . S
C992 C987 1.350 . S
C993 H980 0.929 . S
C993 C985 1.433 . S
C993 N995 1.384 . S
N994 C990 1.427 . S
N994 C991 1.384 . S
N995 C987 1.427 . S
N995 C993 1.384 . S
H996 C1002 0.930 . S
H997 C1006 0.930 . S
H998 C1011 0.929 . S
H999 C1009 0.929 . S
H1000 C1004 0.929 . S
H1001 C1010 0.929 . S
C1002 H996 0.930 . S
C1002 C1003 1.367 . S
C1002 C1010 1.378 . S
C1003 C1002 1.367 . S
C1003 C1011 1.433 . S
C1004 H1000 0.929 . S
C1004 C1006 1.378 . S
C1004 C1008 1.350 . S
C1005 C1008 1.463 . S
C1005 C1010 1.350 . S
C1005 N1013 1.427 . S
C1006 H997 0.930 . S
C1006 C1004 1.378 . S
C1006 C1007 1.367 . S
C1007 C1006 1.367 . S
C1007 C1009 1.433 . S
C1008 C1004 1.350 . S
C1008 C1005 1.463 . S
C1008 N1012 1.427 . S
C1009 H999 0.929 . S
C1009 C1007 1.433 . S
C1009 N1012 1.384 . S
C1010 H1001 0.929 . S
C1010 C1002 1.378 . S
C1010 C1005 1.350 . S
C1011 H998 0.929 . S
C1011 C1003 1.433 . S
C1011 N1013 1.384 . S
N1012 C1008 1.427 . S
N1012 C1009 1.384 . S
N1013 C1005 1.427 . S
N1013 C1011 1.384 . S
H1014 C1020 0.930 . S
H1015 C1024 0.930 . S
H1016 C1029 0.929 . S
H1017 C1027 0.929 . S
H1018 C1022 0.929 . S
H1019 C1028 0.929 . S
C1020 H1014 0.930 . S
C1020 C1021 1.367 . S
C1020 C1028 1.378 . S
C1021 C1020 1.367 . S
C1021 C1029 1.433 . S
C1022 H1018 0.929 . S
C1022 C1024 1.378 . S
C1022 C1026 1.350 . S
C1023 C1026 1.463 . S
C1023 C1028 1.350 . S
C1023 N1031 1.427 . S
C1024 H1015 0.930 . S
C1024 C1022 1.378 . S
C1024 C1025 1.367 . S
C1025 C1024 1.367 . S
C1025 C1027 1.433 . S
C1026 C1022 1.350 . S
C1026 C1023 1.463 . S
C1026 N1030 1.427 . S
C1027 H1017 0.929 . S
C1027 C1025 1.433 . S
C1027 N1030 1.384 . S
C1028 H1019 0.929 . S
C1028 C1020 1.378 . S
C1028 C1023 1.350 . S
C1029 H1016 0.929 . S
C1029 C1021 1.433 . S
C1029 N1031 1.384 . S
N1030 C1026 1.427 . S
N1030 C1027 1.384 . S
N1031 C1023 1.427 . S
N1031 C1029 1.384 . S
H1032 C1038 0.930 . S
H1033 C1042 0.930 . S
H1034 C1047 0.929 . S
H1035 C1045 0.929 . S
H1036 C1040 0.929 . S
H1037 C1046 0.929 . S
C1038 H1032 0.930 . S
C1038 C1039 1.367 . S
C1038 C1046 1.378 . S
C1039 C1038 1.367 . S
C1039 C1047 1.433 . S
C1040 H1036 0.929 . S
C1040 C1042 1.378 . S
C1040 C1044 1.350 1_545 S
C1041 C1044 1.463 . S
C1041 C1046 1.350 . S
C1041 N1049 1.427 . S
C1042 H1033 0.930 . S
C1042 C1040 1.378 . S
C1042 C1043 1.367 . S
C1043 C1042 1.367 . S
C1043 C1045 1.433 . S
C1044 C1040 1.350 1_565 S
C1044 C1041 1.463 . S
C1044 N1048 1.427 1_565 S
C1045 H1035 0.929 . S
C1045 C1043 1.433 . S
C1045 N1048 1.384 . S
C1046 H1037 0.929 . S
C1046 C1038 1.378 . S
C1046 C1041 1.350 . S
C1047 H1034 0.929 . S
C1047 C1039 1.433 . S
C1047 N1049 1.384 . S
N1048 C1044 1.427 1_545 S
N1048 C1045 1.384 . S
N1049 C1041 1.427 . S
N1049 C1047 1.384 . S
H1050 C1056 0.930 . S
H1051 C1060 0.930 . S
H1052 C1065 0.929 . S
H1053 C1063 0.929 . S
H1054 C1058 0.929 . S
H1055 C1064 0.929 . S
C1056 H1050 0.930 . S
C1056 C1057 1.367 . S
C1056 C1064 1.378 . S
C1057 C1056 1.367 . S
C1057 C1065 1.433 . S
C1058 H1054 0.929 . S
C1058 C1060 1.378 . S
C1058 C1062 1.350 . S
C1059 C1062 1.463 . S
C1059 C1064 1.350 . S
C1059 N1067 1.427 . S
C1060 H1051 0.930 . S
C1060 C1058 1.378 . S
C1060 C1061 1.367 . S
C1061 C1060 1.367 . S
C1061 C1063 1.433 . S
C1062 C1058 1.350 . S
C1062 C1059 1.463 . S
C1062 N1066 1.427 . S
C1063 H1053 0.929 . S
C1063 C1061 1.433 . S
C1063 N1066 1.384 . S
C1064 H1055 0.929 . S
C1064 C1056 1.378 . S
C1064 C1059 1.350 . S
C1065 H1052 0.929 . S
C1065 C1057 1.433 . S
C1065 N1067 1.384 . S
N1066 C1062 1.427 . S
N1066 C1063 1.384 . S
N1067 C1059 1.427 . S
N1067 C1065 1.384 . S
H1068 C1074 0.930 . S
H1069 C1078 0.930 . S
H1070 C1083 0.929 . S
H1071 C1081 0.929 . S
H1072 C1076 0.929 . S
H1073 C1082 0.929 . S
C1074 H1068 0.930 . S
C1074 C1075 1.367 . S
C1074 C1082 1.378 . S
C1075 C1074 1.367 . S
C1075 C1083 1.433 . S
C1076 H1072 0.929 . S
C1076 C1078 1.378 . S
C1076 C1080 1.350 . S
C1077 C1080 1.463 . S
C1077 C1082 1.350 . S
C1077 N1085 1.427 . S
C1078 H1069 0.930 . S
C1078 C1076 1.378 . S
C1078 C1079 1.367 . S
C1079 C1078 1.367 . S
C1079 C1081 1.433 . S
C1080 C1076 1.350 . S
C1080 C1077 1.463 . S
C1080 N1084 1.427 . S
C1081 H1071 0.929 . S
C1081 C1079 1.433 . S
C1081 N1084 1.384 . S
C1082 H1073 0.929 . S
C1082 C1074 1.378 . S
C1082 C1077 1.350 . S
C1083 H1070 0.929 . S
C1083 C1075 1.433 . S
C1083 N1085 1.384 . S
N1084 C1080 1.427 . S
N1084 C1081 1.384 . S
N1085 C1077 1.427 . S
N1085 C1083 1.384 . S
H1086 C1092 0.930 . S
H1087 C1096 0.930 . S
H1088 C1101 0.929 . S
H1089 C1099 0.929 . S
H1090 C1094 0.929 . S
H1091 C1100 0.929 . S
C1092 H1086 0.930 . S
C1092 C1093 1.367 . S
C1092 C1100 1.378 . S
C1093 C1092 1.367 . S
C1093 C1101 1.433 . S
C1094 H1090 0.929 . S
C1094 C1096 1.378 . S
C1094 C1098 1.350 . S
C1095 C1098 1.463 . S
C1095 C1100 1.350 . S
C1095 N1103 1.427 . S
C1096 H1087 0.930 . S
C1096 C1094 1.378 . S
C1096 C1097 1.367 . S
C1097 C1096 1.367 . S
C1097 C1099 1.433 . S
C1098 C1094 1.350 . S
C1098 C1095 1.463 . S
C1098 N1102 1.427 . S
C1099 H1089 0.929 . S
C1099 C1097 1.433 . S
C1099 N1102 1.384 . S
C1100 H1091 0.929 . S
C1100 C1092 1.378 . S
C1100 C1095 1.350 . S
C1101 H1088 0.929 . S
C1101 C1093 1.433 . S
C1101 N1103 1.384 . S
N1102 C1098 1.427 . S
N1102 C1099 1.384 . S
N1103 C1095 1.427 . S
N1103 C1101 1.384 . S
H1104 C1110 0.930 . S
H1105 C1114 0.930 . S
H1106 C1119 0.929 . S
H1107 C1117 0.929 . S
H1108 C1112 0.929 . S
H1109 C1118 0.929 . S
C1110 H1104 0.930 . S
C1110 C1111 1.367 . S
C1110 C1118 1.378 . S
C1111 C1110 1.367 . S
C1111 C1119 1.433 . S
C1112 H1108 0.929 . S
C1112 C1114 1.378 . S
C1112 C1116 1.350 . S
C1113 C1116 1.463 . S
C1113 C1118 1.350 . S
C1113 N1121 1.427 . S
C1114 H1105 0.930 . S
C1114 C1112 1.378 . S
C1114 C1115 1.367 . S
C1115 C1114 1.367 . S
C1115 C1117 1.433 . S
C1116 C1112 1.350 . S
C1116 C1113 1.463 . S
C1116 N1120 1.427 . S
C1117 H1107 0.929 . S
C1117 C1115 1.433 . S
C1117 N1120 1.384 . S
C1118 H1109 0.929 . S
C1118 C1110 1.378 . S
C1118 C1113 1.350 . S
C1119 H1106 0.929 . S
C1119 C1111 1.433 . S
C1119 N1121 1.384 . S
N1120 C1116 1.427 . S
N1120 C1117 1.384 . S
N1121 C1113 1.427 . S
N1121 C1119 1.384 . S
H1122 C1128 0.930 . S
H1123 C1132 0.930 . S
H1124 C1137 0.929 . S
H1125 C1135 0.929 . S
H1126 C1130 0.929 . S
H1127 C1136 0.929 . S
C1128 H1122 0.930 . S
C1128 C1129 1.367 . S
C1128 C1136 1.378 1_655 S
C1129 C1128 1.367 . S
C1129 C1137 1.433 . S
C1130 H1126 0.929 . S
C1130 C1132 1.378 . S
C1130 C1134 1.350 . S
C1131 C1134 1.463 . S
C1131 C1136 1.350 . S
C1131 N1139 1.427 1_455 S
C1132 H1123 0.930 . S
C1132 C1130 1.378 . S
C1132 C1133 1.367 . S
C1133 C1132 1.367 . S
C1133 C1135 1.433 . S
C1134 C1130 1.350 . S
C1134 C1131 1.463 . S
C1134 N1138 1.427 . S
C1135 H1125 0.929 . S
C1135 C1133 1.433 . S
C1135 N1138 1.384 . S
C1136 H1127 0.929 . S
C1136 C1128 1.378 1_455 S
C1136 C1131 1.350 . S
C1137 H1124 0.929 . S
C1137 C1129 1.433 . S
C1137 N1139 1.384 . S
N1138 C1134 1.427 . S
N1138 C1135 1.384 . S
N1139 C1131 1.427 1_655 S
N1139 C1137 1.384 . S
H1140 C1146 0.930 . S
H1141 C1150 0.930 . S
H1142 C1155 0.929 . S
H1143 C1153 0.929 . S
H1144 C1148 0.929 . S
H1145 C1154 0.929 . S
C1146 H1140 0.930 . S
C1146 C1147 1.367 . S
C1146 C1154 1.378 . S
C1147 C1146 1.367 . S
C1147 C1155 1.433 . S
C1148 H1144 0.929 . S
C1148 C1150 1.378 . S
C1148 C1152 1.350 . S
C1149 C1152 1.463 . S
C1149 C1154 1.350 . S
C1149 N1157 1.427 . S
C1150 H1141 0.930 . S
C1150 C1148 1.378 . S
C1150 C1151 1.367 . S
C1151 C1150 1.367 . S
C1151 C1153 1.433 . S
C1152 C1148 1.350 . S
C1152 C1149 1.463 . S
C1152 N1156 1.427 . S
C1153 H1143 0.929 . S
C1153 C1151 1.433 . S
C1153 N1156 1.384 . S
C1154 H1145 0.929 . S
C1154 C1146 1.378 . S
C1154 C1149 1.350 . S
C1155 H1142 0.929 . S
C1155 C1147 1.433 . S
C1155 N1157 1.384 . S
N1156 C1152 1.427 . S
N1156 C1153 1.384 . S
N1157 C1149 1.427 . S
N1157 C1155 1.384 . S
H1158 C1164 0.930 . S
H1159 C1168 0.930 . S
H1160 C1173 0.929 . S
H1161 C1171 0.929 . S
H1162 C1166 0.929 . S
H1163 C1172 0.929 . S
C1164 H1158 0.930 . S
C1164 C1165 1.367 . S
C1164 C1172 1.378 . S
C1165 C1164 1.367 . S
C1165 C1173 1.433 . S
C1166 H1162 0.929 . S
C1166 C1168 1.378 . S
C1166 C1170 1.350 . S
C1167 C1170 1.463 . S
C1167 C1172 1.350 . S
C1167 N1175 1.427 . S
C1168 H1159 0.930 . S
C1168 C1166 1.378 . S
C1168 C1169 1.367 . S
C1169 C1168 1.367 . S
C1169 C1171 1.433 . S
C1170 C1166 1.350 . S
C1170 C1167 1.463 . S
C1170 N1174 1.427 . S
C1171 H1161 0.929 . S
C1171 C1169 1.433 . S
C1171 N1174 1.384 . S
C1172 H1163 0.929 . S
C1172 C1164 1.378 . S
C1172 C1167 1.350 . S
C1173 H1160 0.929 . S
C1173 C1165 1.433 . S
C1173 N1175 1.384 . S
N1174 C1170 1.427 . S
N1174 C1171 1.384 . S
N1175 C1167 1.427 . S
N1175 C1173 1.384 . S
H1176 C1182 0.930 . S
H1177 C1186 0.930 . S
H1178 C1191 0.929 . S
H1179 C1189 0.929 . S
H1180 C1184 0.929 . S
H1181 C1190 0.929 . S
C1182 H1176 0.930 . S
C1182 C1183 1.367 . S
C1182 C1190 1.378 . S
C1183 C1182 1.367 . S
C1183 C1191 1.433 . S
C1184 H1180 0.929 . S
C1184 C1186 1.378 . S
C1184 C1188 1.350 . S
C1185 C1188 1.463 . S
C1185 C1190 1.350 . S
C1185 N1193 1.427 . S
C1186 H1177 0.930 . S
C1186 C1184 1.378 . S
C1186 C1187 1.367 . S
C1187 C1186 1.367 . S
C1187 C1189 1.433 . S
C1188 C1184 1.350 . S
C1188 C1185 1.463 . S
C1188 N1192 1.427 . S
C1189 H1179 0.929 . S
C1189 C1187 1.433 . S
C1189 N1192 1.384 . S
C1190 H1181 0.929 . S
C1190 C1182 1.378 . S
C1190 C1185 1.350 . S
C1191 H1178 0.929 . S
C1191 C1183 1.433 . S
C1191 N1193 1.384 . S
N1192 C1188 1.427 . S
N1192 C1189 1.384 . S
N1193 C1185 1.427 . S
N1193 C1191 1.384 . S
H1194 C1200 0.930 . S
H1195 C1204 0.930 . S
H1196 C1209 0.929 . S
H1197 C1207 0.929 . S
H1198 C1202 0.929 . S
H1199 C1208 0.929 . S
C1200 H1194 0.930 . S
C1200 C1201 1.367 . S
C1200 C1208 1.378 . S
C1201 C1200 1.367 . S
C1201 C1209 1.433 . S
C1202 H1198 0.929 . S
C1202 C1204 1.378 . S
C1202 C1206 1.350 . S
C1203 C1206 1.463 . S
C1203 C1208 1.350 . S
C1203 N1211 1.427 . S
C1204 H1195 0.930 . S
C1204 C1202 1.378 . S
C1204 C1205 1.367 . S
C1205 C1204 1.367 . S
C1205 C1207 1.433 . S
C1206 C1202 1.350 . S
C1206 C1203 1.463 . S
C1206 N1210 1.427 . S
C1207 H1197 0.929 . S
C1207 C1205 1.433 . S
C1207 N1210 1.384 . S
C1208 H1199 0.929 . S
C1208 C1200 1.378 . S
C1208 C1203 1.350 . S
C1209 H1196 0.929 . S
C1209 C1201 1.433 . S
C1209 N1211 1.384 . S
N1210 C1206 1.427 . S
N1210 C1207 1.384 . S
N1211 C1203 1.427 . S
N1211 C1209 1.384 . S
H1212 C1218 0.930 . S
H1213 C1222 0.930 . S
H1214 C1227 0.929 . S
H1215 C1225 0.929 . S
H1216 C1220 0.929 . S
H1217 C1226 0.929 . S
C1218 H1212 0.930 . S
C1218 C1219 1.367 . S
C1218 C1226 1.378 . S
C1219 C1218 1.367 . S
C1219 C1227 1.433 . S
C1220 H1216 0.929 . S
C1220 C1222 1.378 . S
C1220 C1224 1.350 . S
C1221 C1224 1.463 . S
C1221 C1226 1.350 . S
C1221 N1229 1.427 . S
C1222 H1213 0.930 . S
C1222 C1220 1.378 . S
C1222 C1223 1.367 . S
C1223 C1222 1.367 . S
C1223 C1225 1.433 . S
C1224 C1220 1.350 . S
C1224 C1221 1.463 . S
C1224 N1228 1.427 . S
C1225 H1215 0.929 . S
C1225 C1223 1.433 . S
C1225 N1228 1.384 . S
C1226 H1217 0.929 . S
C1226 C1218 1.378 . S
C1226 C1221 1.350 . S
C1227 H1214 0.929 . S
C1227 C1219 1.433 . S
C1227 N1229 1.384 . S
N1228 C1224 1.427 . S
N1228 C1225 1.384 . S
N1229 C1221 1.427 . S
N1229 C1227 1.384 . S
H1230 C1236 0.930 . S
H1231 C1240 0.930 . S
H1232 C1245 0.929 . S
H1233 C1243 0.929 . S
H1234 C1238 0.929 1_455 S
H1235 C1244 0.929 . S
C1236 H1230 0.930 . S
C1236 C1237 1.367 . S
C1236 C1244 1.378 . S
C1237 C1236 1.367 . S
C1237 C1245 1.433 . S
C1238 H1234 0.929 1_655 S
C1238 C1240 1.378 . S
C1238 C1242 1.350 1_655 S
C1239 C1242 1.463 . S
C1239 C1244 1.350 . S
C1239 N1247 1.427 . S
C1240 H1231 0.930 . S
C1240 C1238 1.378 . S
C1240 C1241 1.367 . S
C1241 C1240 1.367 . S
C1241 C1243 1.433 . S
C1242 C1238 1.350 1_455 S
C1242 C1239 1.463 . S
C1242 N1246 1.427 1_455 S
C1243 H1233 0.929 . S
C1243 C1241 1.433 . S
C1243 N1246 1.384 . S
C1244 H1235 0.929 . S
C1244 C1236 1.378 . S
C1244 C1239 1.350 . S
C1245 H1232 0.929 . S
C1245 C1237 1.433 . S
C1245 N1247 1.384 . S
N1246 C1242 1.427 1_655 S
N1246 C1243 1.384 . S
N1247 C1239 1.427 . S
N1247 C1245 1.384 . S
H1248 C1254 0.930 . S
H1249 C1258 0.930 . S
H1250 C1263 0.929 . S
H1251 C1261 0.929 . S
H1252 C1256 0.929 . S
H1253 C1262 0.929 . S
C1254 H1248 0.930 . S
C1254 C1255 1.367 . S
C1254 C1262 1.378 . S
C1255 C1254 1.367 . S
C1255 C1263 1.433 . S
C1256 H1252 0.929 . S
C1256 C1258 1.378 . S
C1256 C1260 1.350 . S
C1257 C1260 1.463 . S
C1257 C1262 1.350 . S
C1257 N1265 1.427 . S
C1258 H1249 0.930 . S
C1258 C1256 1.378 . S
C1258 C1259 1.367 . S
C1259 C1258 1.367 . S
C1259 C1261 1.433 . S
C1260 C1256 1.350 . S
C1260 C1257 1.463 . S
C1260 N1264 1.427 . S
C1261 H1251 0.929 . S
C1261 C1259 1.433 . S
C1261 N1264 1.384 . S
C1262 H1253 0.929 . S
C1262 C1254 1.378 . S
C1262 C1257 1.350 . S
C1263 H1250 0.929 . S
C1263 C1255 1.433 . S
C1263 N1265 1.384 . S
N1264 C1260 1.427 . S
N1264 C1261 1.384 . S
N1265 C1257 1.427 . S
N1265 C1263 1.384 . S
H1266 C1272 0.930 . S
H1267 C1276 0.930 . S
H1268 C1281 0.929 . S
H1269 C1279 0.929 . S
H1270 C1274 0.929 . S
H1271 C1280 0.929 . S
C1272 H1266 0.930 . S
C1272 C1273 1.367 . S
C1272 C1280 1.378 . S
C1273 C1272 1.367 . S
C1273 C1281 1.433 . S
C1274 H1270 0.929 . S
C1274 C1276 1.378 . S
C1274 C1278 1.350 . S
C1275 C1278 1.463 . S
C1275 C1280 1.350 . S
C1275 N1283 1.427 . S
C1276 H1267 0.930 . S
C1276 C1274 1.378 . S
C1276 C1277 1.367 . S
C1277 C1276 1.367 . S
C1277 C1279 1.433 . S
C1278 C1274 1.350 . S
C1278 C1275 1.463 . S
C1278 N1282 1.427 . S
C1279 H1269 0.929 . S
C1279 C1277 1.433 . S
C1279 N1282 1.384 . S
C1280 H1271 0.929 . S
C1280 C1272 1.378 . S
C1280 C1275 1.350 . S
C1281 H1268 0.929 . S
C1281 C1273 1.433 . S
C1281 N1283 1.384 . S
N1282 C1278 1.427 . S
N1282 C1279 1.384 . S
N1283 C1275 1.427 . S
N1283 C1281 1.384 . S
H1284 C1290 0.930 . S
H1285 C1294 0.930 . S
H1286 C1299 0.929 . S
H1287 C1297 0.929 . S
H1288 C1292 0.929 . S
H1289 C1298 0.929 . S
C1290 H1284 0.930 . S
C1290 C1291 1.367 . S
C1290 C1298 1.378 . S
C1291 C1290 1.367 . S
C1291 C1299 1.433 . S
C1292 H1288 0.929 . S
C1292 C1294 1.378 . S
C1292 C1296 1.350 . S
C1293 C1296 1.463 . S
C1293 C1298 1.350 . S
C1293 N1301 1.427 . S
C1294 H1285 0.930 . S
C1294 C1292 1.378 . S
C1294 C1295 1.367 . S
C1295 C1294 1.367 . S
C1295 C1297 1.433 . S
C1296 C1292 1.350 . S
C1296 C1293 1.463 . S
C1296 N1300 1.427 . S
C1297 H1287 0.929 . S
C1297 C1295 1.433 . S
C1297 N1300 1.384 . S
C1298 H1289 0.929 . S
C1298 C1290 1.378 . S
C1298 C1293 1.350 . S
C1299 H1286 0.929 . S
C1299 C1291 1.433 . S
C1299 N1301 1.384 . S
N1300 C1296 1.427 . S
N1300 C1297 1.384 . S
N1301 C1293 1.427 . S
N1301 C1299 1.384 . S
H1302 C1308 0.930 . S
H1303 C1312 0.930 . S
H1304 C1317 0.929 . S
H1305 C1315 0.929 . S
H1306 C1310 0.929 . S
H1307 C1316 0.929 . S
C1308 H1302 0.930 . S
C1308 C1309 1.367 . S
C1308 C1316 1.378 . S
C1309 C1308 1.367 . S
C1309 C1317 1.433 . S
C1310 H1306 0.929 . S
C1310 C1312 1.378 1_556 S
C1310 C1314 1.350 . S
C1311 C1314 1.463 . S
C1311 C1316 1.350 . S
C1311 N1319 1.427 . S
C1312 H1303 0.930 . S
C1312 C1310 1.378 1_554 S
C1312 C1313 1.367 . S
C1313 C1312 1.367 . S
C1313 C1315 1.433 . S
C1314 C1310 1.350 . S
C1314 C1311 1.463 . S
C1314 N1318 1.427 . S
C1315 H1305 0.929 . S
C1315 C1313 1.433 . S
C1315 N1318 1.384 1_554 S
C1316 H1307 0.929 . S
C1316 C1308 1.378 . S
C1316 C1311 1.350 . S
C1317 H1304 0.929 . S
C1317 C1309 1.433 . S
C1317 N1319 1.384 . S
N1318 C1314 1.427 . S
N1318 C1315 1.384 1_556 S
N1319 C1311 1.427 . S
N1319 C1317 1.384 . S
H1320 C1326 0.930 . S
H1321 C1330 0.930 . S
H1322 C1335 0.929 . S
H1323 C1333 0.929 . S
H1324 C1328 0.929 . S
H1325 C1334 0.929 . S
C1326 H1320 0.930 . S
C1326 C1327 1.367 . S
C1326 C1334 1.378 . S
C1327 C1326 1.367 . S
C1327 C1335 1.433 . S
C1328 H1324 0.929 . S
C1328 C1330 1.378 . S
C1328 C1332 1.350 . S
C1329 C1332 1.463 . S
C1329 C1334 1.350 . S
C1329 N1337 1.427 . S
C1330 H1321 0.930 . S
C1330 C1328 1.378 . S
C1330 C1331 1.367 . S
C1331 C1330 1.367 . S
C1331 C1333 1.433 . S
C1332 C1328 1.350 . S
C1332 C1329 1.463 . S
C1332 N1336 1.427 . S
C1333 H1323 0.929 . S
C1333 C1331 1.433 . S
C1333 N1336 1.384 . S
C1334 H1325 0.929 . S
C1334 C1326 1.378 . S
C1334 C1329 1.350 . S
C1335 H1322 0.929 . S
C1335 C1327 1.433 . S
C1335 N1337 1.384 . S
N1336 C1332 1.427 . S
N1336 C1333 1.384 . S
N1337 C1329 1.427 . S
N1337 C1335 1.384 . S
H1338 C1344 0.930 . S
H1339 C1348 0.930 . S
H1340 C1353 0.929 . S
H1341 C1351 0.929 . S
H1342 C1346 0.929 . S
H1343 C1352 0.929 . S
C1344 H1338 0.930 . S
C1344 C1345 1.367 . S
C1344 C1352 1.378 . S
C1345 C1344 1.367 . S
C1345 C1353 1.433 . S
C1346 H1342 0.929 . S
C1346 C1348 1.378 . S
C1346 C1350 1.350 . S
C1347 C1350 1.463 . S
C1347 C1352 1.350 . S
C1347 N1355 1.427 . S
C1348 H1339 0.930 . S
C1348 C1346 1.378 . S
C1348 C1349 1.367 . S
C1349 C1348 1.367 . S
C1349 C1351 1.433 . S
C1350 C1346 1.350 . S
C1350 C1347 1.463 . S
C1350 N1354 1.427 . S
C1351 H1341 0.929 . S
C1351 C1349 1.433 . S
C1351 N1354 1.384 . S
C1352 H1343 0.929 . S
C1352 C1344 1.378 . S
C1352 C1347 1.350 . S
C1353 H1340 0.929 . S
C1353 C1345 1.433 . S
C1353 N1355 1.384 . S
N1354 C1350 1.427 . S
N1354 C1351 1.384 . S
N1355 C1347 1.427 . S
N1355 C1353 1.384 . S
H1356 C1362 0.930 . S
H1357 C1366 0.930 . S
H1358 C1371 0.929 . S
H1359 C1369 0.929 . S
H1360 C1364 0.929 . S
H1361 C1370 0.929 . S
C1362 H1356 0.930 . S
C1362 C1363 1.367 . S
C1362 C1370 1.378 . S
C1363 C1362 1.367 . S
C1363 C1371 1.433 . S
C1364 H1360 0.929 . S
C1364 C1366 1.378 . S
C1364 C1368 1.350 . S
C1365 C1368 1.463 . S
C1365 C1370 1.350 . S
C1365 N1373 1.427 . S
C1366 H1357 0.930 . S
C1366 C1364 1.378 . S
C1366 C1367 1.367 . S
C1367 C1366 1.367 . S
C1367 C1369 1.433 . S
C1368 C1364 1.350 . S
C1368 C1365 1.463 . S
C1368 N1372 1.427 . S
C1369 H1359 0.929 . S
C1369 C1367 1.433 . S
C1369 N1372 1.384 . S
C1370 H1361 0.929 . S
C1370 C1362 1.378 . S
C1370 C1365 1.350 . S
C1371 H1358 0.929 . S
C1371 C1363 1.433 . S
C1371 N1373 1.384 . S
N1372 C1368 1.427 . S
N1372 C1369 1.384 . S
N1373 C1365 1.427 . S
N1373 C1371 1.384 . S
H1374 C1380 0.930 . S
H1375 C1384 0.930 . S
H1376 C1389 0.929 . S
H1377 C1387 0.929 . S
H1378 C1382 0.929 . S
H1379 C1388 0.929 . S
C1380 H1374 0.930 . S
C1380 C1381 1.367 . S
C1380 C1388 1.378 1_556 S
C1381 C1380 1.367 . S
C1381 C1389 1.433 . S
C1382 H1378 0.929 . S
C1382 C1384 1.378 . S
C1382 C1386 1.350 . S
C1383 C1386 1.463 . S
C1383 C1388 1.350 . S
C1383 N1391 1.427 . S
C1384 H1375 0.930 . S
C1384 C1382 1.378 . S
C1384 C1385 1.367 . S
C1385 C1384 1.367 . S
C1385 C1387 1.433 . S
C1386 C1382 1.350 . S
C1386 C1383 1.463 . S
C1386 N1390 1.427 . S
C1387 H1377 0.929 . S
C1387 C1385 1.433 . S
C1387 N1390 1.384 . S
C1388 H1379 0.929 . S
C1388 C1380 1.378 1_554 S
C1388 C1383 1.350 . S
C1389 H1376 0.929 . S
C1389 C1381 1.433 . S
C1389 N1391 1.384 1_556 S
N1390 C1386 1.427 . S
N1390 C1387 1.384 . S
N1391 C1383 1.427 . S
N1391 C1389 1.384 1_554 S
H1392 C1398 0.930 . S
H1393 C1402 0.930 . S
H1394 C1407 0.929 . S
H1395 C1405 0.929 . S
H1396 C1400 0.929 . S
H1397 C1406 0.929 . S
C1398 H1392 0.930 . S
C1398 C1399 1.367 . S
C1398 C1406 1.378 . S
C1399 C1398 1.367 . S
C1399 C1407 1.433 . S
C1400 H1396 0.929 . S
C1400 C1402 1.378 . S
C1400 C1404 1.350 . S
C1401 C1404 1.463 . S
C1401 C1406 1.350 . S
C1401 N1409 1.427 . S
C1402 H1393 0.930 . S
C1402 C1400 1.378 . S
C1402 C1403 1.367 . S
C1403 C1402 1.367 . S
C1403 C1405 1.433 . S
C1404 C1400 1.350 . S
C1404 C1401 1.463 . S
C1404 N1408 1.427 . S
C1405 H1395 0.929 . S
C1405 C1403 1.433 . S
C1405 N1408 1.384 . S
C1406 H1397 0.929 . S
C1406 C1398 1.378 . S
C1406 C1401 1.350 . S
C1407 H1394 0.929 . S
C1407 C1399 1.433 . S
C1407 N1409 1.384 . S
N1408 C1404 1.427 . S
N1408 C1405 1.384 . S
N1409 C1401 1.427 . S
N1409 C1407 1.384 . S
H1410 C1416 0.930 . S
H1411 C1420 0.930 . S
H1412 C1425 0.929 . S
H1413 C1423 0.929 . S
H1414 C1418 0.929 . S
H1415 C1424 0.929 . S
C1416 H1410 0.930 . S
C1416 C1417 1.367 . S
C1416 C1424 1.378 . S
C1417 C1416 1.367 . S
C1417 C1425 1.433 . S
C1418 H1414 0.929 . S
C1418 C1420 1.378 . S
C1418 C1422 1.350 . S
C1419 C1422 1.463 . S
C1419 C1424 1.350 . S
C1419 N1427 1.427 . S
C1420 H1411 0.930 . S
C1420 C1418 1.378 . S
C1420 C1421 1.367 . S
C1421 C1420 1.367 . S
C1421 C1423 1.433 . S
C1422 C1418 1.350 . S
C1422 C1419 1.463 . S
C1422 N1426 1.427 . S
C1423 H1413 0.929 . S
C1423 C1421 1.433 . S
C1423 N1426 1.384 . S
C1424 H1415 0.929 . S
C1424 C1416 1.378 . S
C1424 C1419 1.350 . S
C1425 H1412 0.929 . S
C1425 C1417 1.433 . S
C1425 N1427 1.384 . S
N1426 C1422 1.427 . S
N1426 C1423 1.384 . S
N1427 C1419 1.427 . S
N1427 C1425 1.384 . S
H1428 C1434 0.930 . S
H1429 C1438 0.930 . S
H1430 C1443 0.929 . S
H1431 C1441 0.929 . S
H1432 C1436 0.929 . S
H1433 C1442 0.929 . S
C1434 H1428 0.930 . S
C1434 C1435 1.367 . S
C1434 C1442 1.378 . S
C1435 C1434 1.367 . S
C1435 C1443 1.433 . S
C1436 H1432 0.929 . S
C1436 C1438 1.378 . S
C1436 C1440 1.350 . S
C1437 C1440 1.463 . S
C1437 C1442 1.350 . S
C1437 N1445 1.427 . S
C1438 H1429 0.930 . S
C1438 C1436 1.378 . S
C1438 C1439 1.367 . S
C1439 C1438 1.367 . S
C1439 C1441 1.433 . S
C1440 C1436 1.350 . S
C1440 C1437 1.463 . S
C1440 N1444 1.427 . S
C1441 H1431 0.929 . S
C1441 C1439 1.433 . S
C1441 N1444 1.384 . S
C1442 H1433 0.929 . S
C1442 C1434 1.378 . S
C1442 C1437 1.350 . S
C1443 H1430 0.929 . S
C1443 C1435 1.433 . S
C1443 N1445 1.384 . S
N1444 C1440 1.427 . S
N1444 C1441 1.384 . S
N1445 C1437 1.427 . S
N1445 C1443 1.384 . S
H1446 C1452 0.930 . S
H1447 C1456 0.930 . S
H1448 C1461 0.929 . S
H1449 C1459 0.929 . S
H1450 C1454 0.929 . S
H1451 C1460 0.929 . S
C1452 H1446 0.930 . S
C1452 C1453 1.367 . S
C1452 C1460 1.378 . S
C1453 C1452 1.367 . S
C1453 C1461 1.433 . S
C1454 H1450 0.929 . S
C1454 C1456 1.378 . S
C1454 C1458 1.350 . S
C1455 C1458 1.463 . S
C1455 C1460 1.350 . S
C1455 N1463 1.427 . S
C1456 H1447 0.930 . S
C1456 C1454 1.378 . S
C1456 C1457 1.367 . S
C1457 C1456 1.367 . S
C1457 C1459 1.433 . S
C1458 C1454 1.350 . S
C1458 C1455 1.463 . S
C1458 N1462 1.427 . S
C1459 H1449 0.929 . S
C1459 C1457 1.433 . S
C1459 N1462 1.384 . S
C1460 H1451 0.929 . S
C1460 C1452 1.378 . S
C1460 C1455 1.350 . S
C1461 H1448 0.929 . S
C1461 C1453 1.433 . S
C1461 N1463 1.384 . S
N1462 C1458 1.427 . S
N1462 C1459 1.384 . S
N1463 C1455 1.427 . S
N1463 C1461 1.384 . S
H1464 C1470 0.930 . S
H1465 C1474 0.930 . S
H1466 C1479 0.929 . S
H1467 C1477 0.929 . S
H1468 C1472 0.929 . S
H1469 C1478 0.929 . S
C1470 H1464 0.930 . S
C1470 C1471 1.367 . S
C1470 C1478 1.378 . S
C1471 C1470 1.367 . S
C1471 C1479 1.433 . S
C1472 H1468 0.929 . S
C1472 C1474 1.378 . S
C1472 C1476 1.350 . S
C1473 C1476 1.463 1_565 S
C1473 C1478 1.350 . S
C1473 N1481 1.427 . S
C1474 H1465 0.930 . S
C1474 C1472 1.378 . S
C1474 C1475 1.367 . S
C1475 C1474 1.367 . S
C1475 C1477 1.433 . S
C1476 C1472 1.350 . S
C1476 C1473 1.463 1_545 S
C1476 N1480 1.427 . S
C1477 H1467 0.929 . S
C1477 C1475 1.433 . S
C1477 N1480 1.384 . S
C1478 H1469 0.929 . S
C1478 C1470 1.378 . S
C1478 C1473 1.350 . S
C1479 H1466 0.929 . S
C1479 C1471 1.433 . S
C1479 N1481 1.384 . S
N1480 C1476 1.427 . S
N1480 C1477 1.384 . S
N1481 C1473 1.427 . S
N1481 C1479 1.384 . S
H1482 C1488 0.930 . S
H1483 C1492 0.930 . S
H1484 C1497 0.929 . S
H1485 C1495 0.929 . S
H1486 C1490 0.929 . S
H1487 C1496 0.929 . S
C1488 H1482 0.930 . S
C1488 C1489 1.367 . S
C1488 C1496 1.378 . S
C1489 C1488 1.367 . S
C1489 C1497 1.433 . S
C1490 H1486 0.929 . S
C1490 C1492 1.378 . S
C1490 C1494 1.350 . S
C1491 C1494 1.463 . S
C1491 C1496 1.350 . S
C1491 N1499 1.427 . S
C1492 H1483 0.930 . S
C1492 C1490 1.378 . S
C1492 C1493 1.367 . S
C1493 C1492 1.367 . S
C1493 C1495 1.433 . S
C1494 C1490 1.350 . S
C1494 C1491 1.463 . S
C1494 N1498 1.427 . S
C1495 H1485 0.929 . S
C1495 C1493 1.433 . S
C1495 N1498 1.384 . S
C1496 H1487 0.929 . S
C1496 C1488 1.378 . S
C1496 C1491 1.350 . S
C1497 H1484 0.929 . S
C1497 C1489 1.433 . S
C1497 N1499 1.384 . S
N1498 C1494 1.427 . S
N1498 C1495 1.384 . S
N1499 C1491 1.427 . S
N1499 C1497 1.384 . S
H1500 C1506 0.930 . S
H1501 C1510 0.930 . S
H1502 C1515 0.929 . S
H1503 C1513 0.929 . S
H1504 C1508 0.929 . S
H1505 C1514 0.929 . S
C1506 H1500 0.930 . S
C1506 C1507 1.367 . S
C1506 C1514 1.378 . S
C1507 C1506 1.367 . S
C1507 C1515 1.433 . S
C1508 H1504 0.929 . S
C1508 C1510 1.378 . S
C1508 C1512 1.350 . S
C1509 C1512 1.463 . S
C1509 C1514 1.350 . S
C1509 N1517 1.427 . S
C1510 H1501 0.930 . S
C1510 C1508 1.378 . S
C1510 C1511 1.367 . S
C1511 C1510 1.367 . S
C1511 C1513 1.433 . S
C1512 C1508 1.350 . S
C1512 C1509 1.463 . S
C1512 N1516 1.427 . S
C1513 H1503 0.929 . S
C1513 C1511 1.433 . S
C1513 N1516 1.384 . S
C1514 H1505 0.929 . S
C1514 C1506 1.378 . S
C1514 C1509 1.350 . S
C1515 H1502 0.929 . S
C1515 C1507 1.433 . S
C1515 N1517 1.384 . S
N1516 C1512 1.427 . S
N1516 C1513 1.384 . S
N1517 C1509 1.427 . S
N1517 C1515 1.384 . S
H1518 C1524 0.930 . S
H1519 C1528 0.930 . S
H1520 C1533 0.929 . S
H1521 C1531 0.929 . S
H1522 C1526 0.929 . S
H1523 C1532 0.929 . S
C1524 H1518 0.930 . S
C1524 C1525 1.367 . S
C1524 C1532 1.378 . S
C1525 C1524 1.367 . S
C1525 C1533 1.433 . S
C1526 H1522 0.929 . S
C1526 C1528 1.378 . S
C1526 C1530 1.350 . S
C1527 C1530 1.463 . S
C1527 C1532 1.350 . S
C1527 N1535 1.427 . S
C1528 H1519 0.930 . S
C1528 C1526 1.378 . S
C1528 C1529 1.367 . S
C1529 C1528 1.367 . S
C1529 C1531 1.433 . S
C1530 C1526 1.350 . S
C1530 C1527 1.463 . S
C1530 N1534 1.427 . S
C1531 H1521 0.929 . S
C1531 C1529 1.433 . S
C1531 N1534 1.384 . S
C1532 H1523 0.929 . S
C1532 C1524 1.378 . S
C1532 C1527 1.350 . S
C1533 H1520 0.929 . S
C1533 C1525 1.433 . S
C1533 N1535 1.384 . S
N1534 C1530 1.427 . S
N1534 C1531 1.384 . S
N1535 C1527 1.427 . S
N1535 C1533 1.384 . S
H1536 C1542 0.930 . S
H1537 C1546 0.930 . S
H1538 C1551 0.929 . S
H1539 C1549 0.929 . S
H1540 C1544 0.929 . S
H1541 C1550 0.929 . S
C1542 H1536 0.930 . S
C1542 C1543 1.367 . S
C1542 C1550 1.378 . S
C1543 C1542 1.367 . S
C1543 C1551 1.433 . S
C1544 H1540 0.929 . S
C1544 C1546 1.378 . S
C1544 C1548 1.350 . S
C1545 C1548 1.463 . S
C1545 C1550 1.350 . S
C1545 N1553 1.427 . S
C1546 H1537 0.930 . S
C1546 C1544 1.378 . S
C1546 C1547 1.367 . S
C1547 C1546 1.367 . S
C1547 C1549 1.433 . S
C1548 C1544 1.350 . S
C1548 C1545 1.463 . S
C1548 N1552 1.427 . S
C1549 H1539 0.929 . S
C1549 C1547 1.433 . S
C1549 N1552 1.384 . S
C1550 H1541 0.929 . S
C1550 C1542 1.378 . S
C1550 C1545 1.350 . S
C1551 H1538 0.929 . S
C1551 C1543 1.433 . S
C1551 N1553 1.384 . S
N1552 C1548 1.427 . S
N1552 C1549 1.384 . S
N1553 C1545 1.427 . S
N1553 C1551 1.384 . S
H1554 C1560 0.930 . S
H1555 C1564 0.930 . S
H1556 C1569 0.929 . S
H1557 C1567 0.929 . S
H1558 C1562 0.929 . S
H1559 C1568 0.929 . S
C1560 H1554 0.930 . S
C1560 C1561 1.367 . S
C1560 C1568 1.378 . S
C1561 C1560 1.367 . S
C1561 C1569 1.433 . S
C1562 H1558 0.929 . S
C1562 C1564 1.378 . S
C1562 C1566 1.350 . S
C1563 C1566 1.463 . S
C1563 C1568 1.350 . S
C1563 N1571 1.427 . S
C1564 H1555 0.930 . S
C1564 C1562 1.378 . S
C1564 C1565 1.367 . S
C1565 C1564 1.367 . S
C1565 C1567 1.433 . S
C1566 C1562 1.350 . S
C1566 C1563 1.463 . S
C1566 N1570 1.427 . S
C1567 H1557 0.929 . S
C1567 C1565 1.433 . S
C1567 N1570 1.384 . S
C1568 H1559 0.929 . S
C1568 C1560 1.378 . S
C1568 C1563 1.350 . S
C1569 H1556 0.929 . S
C1569 C1561 1.433 . S
C1569 N1571 1.384 . S
N1570 C1566 1.427 . S
N1570 C1567 1.384 . S
N1571 C1563 1.427 . S
N1571 C1569 1.384 . S
H1572 C1578 0.930 . S
H1573 C1582 0.930 . S
H1574 C1587 0.929 . S
H1575 C1585 0.929 . S
H1576 C1580 0.929 . S
H1577 C1586 0.929 . S
C1578 H1572 0.930 . S
C1578 C1579 1.367 . S
C1578 C1586 1.378 . S
C1579 C1578 1.367 . S
C1579 C1587 1.433 . S
C1580 H1576 0.929 . S
C1580 C1582 1.378 . S
C1580 C1584 1.350 . S
C1581 C1584 1.463 . S
C1581 C1586 1.350 . S
C1581 N1589 1.427 . S
C1582 H1573 0.930 . S
C1582 C1580 1.378 . S
C1582 C1583 1.367 . S
C1583 C1582 1.367 . S
C1583 C1585 1.433 . S
C1584 C1580 1.350 . S
C1584 C1581 1.463 . S
C1584 N1588 1.427 . S
C1585 H1575 0.929 . S
C1585 C1583 1.433 . S
C1585 N1588 1.384 . S
C1586 H1577 0.929 . S
C1586 C1578 1.378 . S
C1586 C1581 1.350 . S
C1587 H1574 0.929 . S
C1587 C1579 1.433 . S
C1587 N1589 1.384 . S
N1588 C1584 1.427 . S
N1588 C1585 1.384 . S
N1589 C1581 1.427 . S
N1589 C1587 1.384 . S
H1590 C1596 0.930 . S
H1591 C1600 0.930 . S
H1592 C1605 0.929 . S
H1593 C1603 0.929 . S
H1594 C1598 0.929 . S
H1595 C1604 0.916 1_455 S
C1596 H1590 0.930 . S
C1596 C1597 1.367 . S
C1596 C1604 1.412 . S
C1597 C1596 1.367 . S
C1597 C1605 1.433 . S
C1598 H1594 0.929 . S
C1598 C1600 1.378 . S
C1598 C1602 1.350 . S
C1599 C1602 1.463 . S
C1599 C1604 1.329 1_455 S
C1599 N1607 1.427 . S
C1600 H1591 0.930 . S
C1600 C1598 1.378 . S
C1600 C1601 1.367 . S
C1601 C1600 1.367 . S
C1601 C1603 1.433 . S
C1602 C1598 1.350 . S
C1602 C1599 1.463 . S
C1602 N1606 1.427 . S
C1603 H1593 0.929 . S
C1603 C1601 1.433 . S
C1603 N1606 1.384 . S
C1604 H1595 0.916 1_655 S
C1604 C1596 1.412 . S
C1604 C1599 1.329 1_655 S
C1605 H1592 0.929 . S
C1605 C1597 1.433 . S
C1605 N1607 1.384 1_655 S
N1606 C1602 1.427 . S
N1606 C1603 1.384 . S
N1607 C1599 1.427 . S
N1607 C1605 1.384 1_455 S
H1608 C1614 0.930 . S
H1609 C1618 0.930 . S
H1610 C1623 0.929 . S
H1611 C1621 0.929 . S
H1612 C1616 0.929 . S
H1613 C1622 0.929 . S
C1614 H1608 0.930 . S
C1614 C1615 1.367 . S
C1614 C1622 1.378 . S
C1615 C1614 1.367 . S
C1615 C1623 1.433 . S
C1616 H1612 0.929 . S
C1616 C1618 1.378 . S
C1616 C1620 1.350 . S
C1617 C1620 1.463 . S
C1617 C1622 1.350 . S
C1617 N1625 1.427 . S
C1618 H1609 0.930 . S
C1618 C1616 1.378 . S
C1618 C1619 1.367 . S
C1619 C1618 1.367 . S
C1619 C1621 1.433 . S
C1620 C1616 1.350 . S
C1620 C1617 1.463 . S
C1620 N1624 1.427 . S
C1621 H1611 0.929 . S
C1621 C1619 1.433 . S
C1621 N1624 1.384 . S
C1622 H1613 0.929 . S
C1622 C1614 1.378 . S
C1622 C1617 1.350 . S
C1623 H1610 0.929 . S
C1623 C1615 1.433 . S
C1623 N1625 1.384 . S
N1624 C1620 1.427 . S
N1624 C1621 1.384 . S
N1625 C1617 1.427 . S
N1625 C1623 1.384 . S
H1626 C1632 0.930 . S
H1627 C1636 0.930 . S
H1628 C1641 0.929 . S
H1629 C1639 0.929 . S
H1630 C1634 0.929 1_455 S
H1631 C1640 0.929 . S
C1632 H1626 0.930 . S
C1632 C1633 1.367 . S
C1632 C1640 1.378 . S
C1633 C1632 1.367 . S
C1633 C1641 1.433 . S
C1634 H1630 0.929 1_655 S
C1634 C1636 1.378 . S
C1634 C1638 1.350 1_655 S
C1635 C1638 1.463 . S
C1635 C1640 1.350 . S
C1635 N1643 1.427 . S
C1636 H1627 0.930 . S
C1636 C1634 1.378 . S
C1636 C1637 1.367 . S
C1637 C1636 1.367 . S
C1637 C1639 1.433 . S
C1638 C1634 1.350 1_455 S
C1638 C1635 1.463 . S
C1638 N1642 1.427 1_455 S
C1639 H1629 0.929 . S
C1639 C1637 1.433 . S
C1639 N1642 1.384 . S
C1640 H1631 0.929 . S
C1640 C1632 1.378 . S
C1640 C1635 1.350 . S
C1641 H1628 0.929 . S
C1641 C1633 1.433 . S
C1641 N1643 1.384 . S
N1642 C1638 1.427 1_655 S
N1642 C1639 1.384 . S
N1643 C1635 1.427 . S
N1643 C1641 1.384 . S
H1644 C1650 0.930 . S
H1645 C1654 0.930 . S
H1646 C1659 0.929 . S
H1647 C1657 0.929 . S
H1648 C1652 0.929 . S
H1649 C1658 0.929 . S
C1650 H1644 0.930 . S
C1650 C1651 1.367 . S
C1650 C1658 1.378 . S
C1651 C1650 1.367 . S
C1651 C1659 1.433 . S
C1652 H1648 0.929 . S
C1652 C1654 1.378 . S
C1652 C1656 1.350 . S
C1653 C1656 1.463 . S
C1653 C1658 1.350 . S
C1653 N1661 1.427 . S
C1654 H1645 0.930 . S
C1654 C1652 1.378 . S
C1654 C1655 1.367 . S
C1655 C1654 1.367 . S
C1655 C1657 1.433 . S
C1656 C1652 1.350 . S
C1656 C1653 1.463 . S
C1656 N1660 1.427 . S
C1657 H1647 0.929 . S
C1657 C1655 1.433 . S
C1657 N1660 1.384 . S
C1658 H1649 0.929 . S
C1658 C1650 1.378 . S
C1658 C1653 1.350 . S
C1659 H1646 0.929 . S
C1659 C1651 1.433 . S
C1659 N1661 1.384 . S
N1660 C1656 1.427 . S
N1660 C1657 1.384 . S
N1661 C1653 1.427 . S
N1661 C1659 1.384 . S
H1662 C1668 0.930 . S
H1663 C1672 0.930 . S
H1664 C1677 0.929 . S
H1665 C1675 0.929 . S
H1666 C1670 0.929 . S
H1667 C1676 0.929 . S
C1668 H1662 0.930 . S
C1668 C1669 1.367 . S
C1668 C1676 1.378 . S
C1669 C1668 1.367 . S
C1669 C1677 1.433 . S
C1670 H1666 0.929 . S
C1670 C1672 1.378 . S
C1670 C1674 1.350 . S
C1671 C1674 1.463 . S
C1671 C1676 1.350 . S
C1671 N1679 1.427 . S
C1672 H1663 0.930 . S
C1672 C1670 1.378 . S
C1672 C1673 1.367 . S
C1673 C1672 1.367 . S
C1673 C1675 1.433 . S
C1674 C1670 1.350 . S
C1674 C1671 1.463 . S
C1674 N1678 1.427 . S
C1675 H1665 0.929 . S
C1675 C1673 1.433 . S
C1675 N1678 1.384 . S
C1676 H1667 0.929 . S
C1676 C1668 1.378 . S
C1676 C1671 1.350 . S
C1677 H1664 0.929 . S
C1677 C1669 1.433 . S
C1677 N1679 1.384 . S
N1678 C1674 1.427 . S
N1678 C1675 1.384 . S
N1679 C1671 1.427 . S
N1679 C1677 1.384 . S
H1680 C1686 0.930 . S
H1681 C1690 0.930 . S
H1682 C1695 0.929 . S
H1683 C1693 0.929 . S
H1684 C1688 0.929 . S
H1685 C1694 0.929 . S
C1686 H1680 0.930 . S
C1686 C1687 1.367 . S
C1686 C1694 1.378 . S
C1687 C1686 1.367 . S
C1687 C1695 1.433 . S
C1688 H1684 0.929 . S
C1688 C1690 1.378 . S
C1688 C1692 1.350 . S
C1689 C1692 1.463 . S
C1689 C1694 1.350 . S
C1689 N1697 1.427 . S
C1690 H1681 0.930 . S
C1690 C1688 1.378 . S
C1690 C1691 1.367 . S
C1691 C1690 1.367 . S
C1691 C1693 1.433 . S
C1692 C1688 1.350 . S
C1692 C1689 1.463 . S
C1692 N1696 1.427 . S
C1693 H1683 0.929 . S
C1693 C1691 1.433 . S
C1693 N1696 1.384 . S
C1694 H1685 0.929 . S
C1694 C1686 1.378 . S
C1694 C1689 1.350 . S
C1695 H1682 0.929 . S
C1695 C1687 1.433 . S
C1695 N1697 1.384 . S
N1696 C1692 1.427 . S
N1696 C1693 1.384 . S
N1697 C1689 1.427 . S
N1697 C1695 1.384 . S
H1698 C1704 0.930 . S
H1699 C1708 0.930 . S
H1700 C1713 0.929 . S
H1701 C1711 0.929 . S
H1702 C1706 0.929 1_554 S
H1703 C1712 0.929 . S
C1704 H1698 0.930 . S
C1704 C1705 1.367 . S
C1704 C1712 1.378 . S
C1705 C1704 1.367 . S
C1705 C1713 1.433 . S
C1706 H1702 0.929 1_556 S
C1706 C1708 1.378 . S
C1706 C1710 1.350 1_556 S
C1707 C1710 1.463 . S
C1707 C1712 1.350 . S
C1707 N1715 1.427 . S
C1708 H1699 0.930 . S
C1708 C1706 1.378 . S
C1708 C1709 1.367 . S
C1709 C1708 1.367 . S
C1709 C1711 1.433 . S
C1710 C1706 1.350 1_554 S
C1710 C1707 1.463 . S
C1710 N1714 1.427 . S
C1711 H1701 0.929 . S
C1711 C1709 1.433 . S
C1711 N1714 1.384 1_556 S
C1712 H1703 0.929 . S
C1712 C1704 1.378 . S
C1712 C1707 1.350 . S
C1713 H1700 0.929 . S
C1713 C1705 1.433 . S
C1713 N1715 1.384 . S
N1714 C1710 1.427 . S
N1714 C1711 1.384 1_554 S
N1715 C1707 1.427 . S
N1715 C1713 1.384 . S
H1716 C1722 0.930 . S
H1717 C1726 0.930 . S
H1718 C1731 0.929 . S
H1719 C1729 0.929 . S
H1720 C1724 0.929 . S
H1721 C1730 0.929 . S
C1722 H1716 0.930 . S
C1722 C1723 1.367 . S
C1722 C1730 1.378 . S
C1723 C1722 1.367 . S
C1723 C1731 1.433 . S
C1724 H1720 0.929 . S
C1724 C1726 1.378 . S
C1724 C1728 1.350 . S
C1725 C1728 1.463 . S
C1725 C1730 1.350 . S
C1725 N1733 1.427 . S
C1726 H1717 0.930 . S
C1726 C1724 1.378 . S
C1726 C1727 1.367 . S
C1727 C1726 1.367 . S
C1727 C1729 1.433 . S
C1728 C1724 1.350 . S
C1728 C1725 1.463 . S
C1728 N1732 1.427 . S
C1729 H1719 0.929 . S
C1729 C1727 1.433 . S
C1729 N1732 1.384 . S
C1730 H1721 0.929 . S
C1730 C1722 1.378 . S
C1730 C1725 1.350 . S
C1731 H1718 0.929 . S
C1731 C1723 1.433 . S
C1731 N1733 1.384 . S
N1732 C1728 1.427 . S
N1732 C1729 1.384 . S
N1733 C1725 1.427 . S
N1733 C1731 1.384 . S
H1734 C1740 0.930 . S
H1735 C1744 0.930 . S
H1736 C1749 0.929 . S
H1737 C1747 0.929 . S
H1738 C1742 0.929 . S
H1739 C1748 0.929 . S
C1740 H1734 0.930 . S
C1740 C1741 1.367 . S
C1740 C1748 1.378 . S
C1741 C1740 1.367 . S
C1741 C1749 1.433 . S
C1742 H1738 0.929 . S
C1742 C1744 1.378 . S
C1742 C1746 1.350 . S
C1743 C1746 1.463 . S
C1743 C1748 1.350 . S
C1743 N1751 1.427 . S
C1744 H1735 0.930 . S
C1744 C1742 1.378 . S
C1744 C1745 1.367 . S
C1745 C1744 1.367 . S
C1745 C1747 1.433 . S
C1746 C1742 1.350 . S
C1746 C1743 1.463 . S
C1746 N1750 1.427 . S
C1747 H1737 0.929 . S
C1747 C1745 1.433 . S
C1747 N1750 1.384 . S
C1748 H1739 0.929 . S
C1748 C1740 1.378 . S
C1748 C1743 1.350 . S
C1749 H1736 0.929 . S
C1749 C1741 1.433 . S
C1749 N1751 1.384 . S
N1750 C1746 1.427 . S
N1750 C1747 1.384 . S
N1751 C1743 1.427 . S
N1751 C1749 1.384 . S
H1752 C1758 0.930 . S
H1753 C1762 0.930 . S
H1754 C1767 0.929 . S
H1755 C1765 0.929 . S
H1756 C1760 0.929 . S
H1757 C1766 0.929 . S
C1758 H1752 0.930 . S
C1758 C1759 1.367 . S
C1758 C1766 1.378 . S
C1759 C1758 1.367 . S
C1759 C1767 1.433 . S
C1760 H1756 0.929 . S
C1760 C1762 1.378 . S
C1760 C1764 1.350 . S
C1761 C1764 1.463 . S
C1761 C1766 1.350 . S
C1761 N1769 1.427 . S
C1762 H1753 0.930 . S
C1762 C1760 1.378 . S
C1762 C1763 1.367 . S
C1763 C1762 1.367 . S
C1763 C1765 1.433 . S
C1764 C1760 1.350 . S
C1764 C1761 1.463 . S
C1764 N1768 1.427 . S
C1765 H1755 0.929 . S
C1765 C1763 1.433 . S
C1765 N1768 1.384 . S
C1766 H1757 0.929 . S
C1766 C1758 1.378 . S
C1766 C1761 1.350 . S
C1767 H1754 0.929 . S
C1767 C1759 1.433 . S
C1767 N1769 1.384 . S
N1768 C1764 1.427 . S
N1768 C1765 1.384 . S
N1769 C1761 1.427 . S
N1769 C1767 1.384 . S
H1770 C1776 0.930 . S
H1771 C1780 0.930 . S
H1772 C1785 0.929 . S
H1773 C1783 0.929 . S
H1774 C1778 0.929 1_556 S
H1775 C1784 0.929 . S
C1776 H1770 0.930 . S
C1776 C1777 1.367 . S
C1776 C1784 1.378 . S
C1777 C1776 1.367 . S
C1777 C1785 1.433 . S
C1778 H1774 0.929 1_554 S
C1778 C1780 1.378 . S
C1778 C1782 1.350 1_554 S
C1779 C1782 1.463 . S
C1779 C1784 1.350 . S
C1779 N1787 1.427 . S
C1780 H1771 0.930 . S
C1780 C1778 1.378 . S
C1780 C1781 1.367 . S
C1781 C1780 1.367 . S
C1781 C1783 1.433 . S
C1782 C1778 1.350 1_556 S
C1782 C1779 1.463 . S
C1782 N1786 1.431 . S
C1783 H1773 0.929 . S
C1783 C1781 1.433 . S
C1783 N1786 1.375 1_554 S
C1784 H1775 0.929 . S
C1784 C1776 1.378 . S
C1784 C1779 1.350 . S
C1785 H1772 0.929 . S
C1785 C1777 1.433 . S
C1785 N1787 1.384 . S
N1786 C1782 1.431 . S
N1786 C1783 1.375 1_556 S
N1787 C1779 1.427 . S
N1787 C1785 1.384 . S
H1788 C1794 0.930 . S
H1789 C1798 0.930 . S
H1790 C1803 0.929 . S
H1791 C1801 0.929 . S
H1792 C1796 0.929 . S
H1793 C1802 0.929 . S
C1794 H1788 0.930 . S
C1794 C1795 1.367 . S
C1794 C1802 1.378 . S
C1795 C1794 1.367 . S
C1795 C1803 1.433 . S
C1796 H1792 0.929 . S
C1796 C1798 1.378 . S
C1796 C1800 1.350 . S
C1797 C1800 1.463 . S
C1797 C1802 1.350 . S
C1797 N1805 1.427 . S
C1798 H1789 0.930 . S
C1798 C1796 1.378 . S
C1798 C1799 1.367 . S
C1799 C1798 1.367 . S
C1799 C1801 1.433 . S
C1800 C1796 1.350 . S
C1800 C1797 1.463 . S
C1800 N1804 1.427 . S
C1801 H1791 0.929 . S
C1801 C1799 1.433 . S
C1801 N1804 1.384 . S
C1802 H1793 0.929 . S
C1802 C1794 1.378 . S
C1802 C1797 1.350 . S
C1803 H1790 0.929 . S
C1803 C1795 1.433 . S
C1803 N1805 1.384 . S
N1804 C1800 1.427 . S
N1804 C1801 1.384 . S
N1805 C1797 1.427 . S
N1805 C1803 1.384 . S
H1806 C1812 0.930 . S
H1807 C1816 0.930 . S
H1808 C1821 0.929 . S
H1809 C1819 0.929 . S
H1810 C1814 0.929 . S
H1811 C1820 0.929 . S
C1812 H1806 0.930 . S
C1812 C1813 1.367 . S
C1812 C1820 1.378 . S
C1813 C1812 1.367 . S
C1813 C1821 1.433 . S
C1814 H1810 0.929 . S
C1814 C1816 1.378 . S
C1814 C1818 1.350 . S
C1815 C1818 1.463 . S
C1815 C1820 1.350 . S
C1815 N1823 1.427 . S
C1816 H1807 0.930 . S
C1816 C1814 1.378 . S
C1816 C1817 1.367 . S
C1817 C1816 1.367 . S
C1817 C1819 1.433 . S
C1818 C1814 1.350 . S
C1818 C1815 1.463 . S
C1818 N1822 1.427 . S
C1819 H1809 0.929 . S
C1819 C1817 1.433 . S
C1819 N1822 1.384 . S
C1820 H1811 0.929 . S
C1820 C1812 1.378 . S
C1820 C1815 1.350 . S
C1821 H1808 0.929 . S
C1821 C1813 1.433 . S
C1821 N1823 1.384 . S
N1822 C1818 1.427 . S
N1822 C1819 1.384 . S
N1823 C1815 1.427 . S
N1823 C1821 1.384 . S
H1824 C1830 0.930 . S
H1825 C1834 0.930 . S
H1826 C1839 0.929 . S
H1827 C1837 0.929 . S
H1828 C1832 0.929 . S
H1829 C1838 0.929 . S
C1830 H1824 0.930 . S
C1830 C1831 1.367 . S
C1830 C1838 1.378 . S
C1831 C1830 1.367 . S
C1831 C1839 1.433 . S
C1832 H1828 0.929 . S
C1832 C1834 1.378 . S
C1832 C1836 1.350 . S
C1833 C1836 1.463 . S
C1833 C1838 1.350 . S
C1833 N1841 1.427 . S
C1834 H1825 0.930 . S
C1834 C1832 1.378 . S
C1834 C1835 1.367 . S
C1835 C1834 1.367 . S
C1835 C1837 1.433 . S
C1836 C1832 1.350 . S
C1836 C1833 1.463 . S
C1836 N1840 1.427 . S
C1837 H1827 0.929 . S
C1837 C1835 1.433 . S
C1837 N1840 1.384 . S
C1838 H1829 0.929 . S
C1838 C1830 1.378 . S
C1838 C1833 1.350 . S
C1839 H1826 0.929 . S
C1839 C1831 1.433 . S
C1839 N1841 1.384 . S
N1840 C1836 1.427 . S
N1840 C1837 1.384 . S
N1841 C1833 1.427 . S
N1841 C1839 1.384 . S
H1842 C1848 0.930 . S
H1843 C1852 0.930 . S
H1844 C1857 0.929 . S
H1845 C1855 0.929 . S
H1846 C1850 0.929 . S
H1847 C1856 0.929 . S
C1848 H1842 0.930 . S
C1848 C1849 1.367 . S
C1848 C1856 1.378 . S
C1849 C1848 1.367 . S
C1849 C1857 1.433 . S
C1850 H1846 0.929 . S
C1850 C1852 1.378 . S
C1850 C1854 1.350 . S
C1851 C1854 1.463 . S
C1851 C1856 1.350 . S
C1851 N1859 1.427 . S
C1852 H1843 0.930 . S
C1852 C1850 1.378 . S
C1852 C1853 1.367 . S
C1853 C1852 1.367 . S
C1853 C1855 1.433 . S
C1854 C1850 1.350 . S
C1854 C1851 1.463 . S
C1854 N1858 1.427 . S
C1855 H1845 0.929 . S
C1855 C1853 1.433 . S
C1855 N1858 1.384 . S
C1856 H1847 0.929 . S
C1856 C1848 1.378 . S
C1856 C1851 1.350 . S
C1857 H1844 0.929 . S
C1857 C1849 1.433 . S
C1857 N1859 1.384 . S
N1858 C1854 1.427 . S
N1858 C1855 1.384 . S
N1859 C1851 1.427 . S
N1859 C1857 1.384 . S
H1860 C1866 0.930 . S
H1861 C1870 0.930 . S
H1862 C1875 0.929 . S
H1863 C1873 0.929 . S
H1864 C1868 0.929 . S
H1865 C1874 0.929 . S
C1866 H1860 0.930 . S
C1866 C1867 1.367 . S
C1866 C1874 1.378 . S
C1867 C1866 1.367 . S
C1867 C1875 1.433 . S
C1868 H1864 0.929 . S
C1868 C1870 1.378 . S
C1868 C1872 1.350 . S
C1869 C1872 1.463 1_545 S
C1869 C1874 1.350 . S
C1869 N1877 1.427 . S
C1870 H1861 0.930 . S
C1870 C1868 1.378 . S
C1870 C1871 1.367 . S
C1871 C1870 1.367 . S
C1871 C1873 1.433 . S
C1872 C1868 1.350 . S
C1872 C1869 1.463 1_565 S
C1872 N1876 1.427 . S
C1873 H1863 0.929 . S
C1873 C1871 1.433 . S
C1873 N1876 1.384 . S
C1874 H1865 0.929 . S
C1874 C1866 1.378 . S
C1874 C1869 1.350 . S
C1875 H1862 0.929 . S
C1875 C1867 1.433 . S
C1875 N1877 1.384 . S
N1876 C1872 1.427 . S
N1876 C1873 1.384 . S
N1877 C1869 1.427 . S
N1877 C1875 1.384 . S
H1878 C1884 0.930 . S
H1879 C1888 0.930 . S
H1880 C1893 0.929 . S
H1881 C1891 0.929 . S
H1882 C1886 0.929 . S
H1883 C1892 0.929 . S
C1884 H1878 0.930 . S
C1884 C1885 1.367 . S
C1884 C1892 1.378 . S
C1885 C1884 1.367 . S
C1885 C1893 1.433 . S
C1886 H1882 0.929 . S
C1886 C1888 1.378 . S
C1886 C1890 1.350 . S
C1887 C1890 1.463 . S
C1887 C1892 1.350 . S
C1887 N1895 1.427 . S
C1888 H1879 0.930 . S
C1888 C1886 1.378 . S
C1888 C1889 1.367 . S
C1889 C1888 1.367 . S
C1889 C1891 1.433 . S
C1890 C1886 1.350 . S
C1890 C1887 1.463 . S
C1890 N1894 1.427 . S
C1891 H1881 0.929 . S
C1891 C1889 1.433 . S
C1891 N1894 1.384 . S
C1892 H1883 0.929 . S
C1892 C1884 1.378 . S
C1892 C1887 1.350 . S
C1893 H1880 0.929 . S
C1893 C1885 1.433 . S
C1893 N1895 1.384 . S
N1894 C1890 1.427 . S
N1894 C1891 1.384 . S
N1895 C1887 1.427 . S
N1895 C1893 1.384 . S
H1896 C1902 0.930 . S
H1897 C1906 0.930 . S
H1898 C1911 0.929 . S
H1899 C1909 0.929 . S
H1900 C1904 0.929 . S
H1901 C1910 0.929 . S
C1902 H1896 0.930 . S
C1902 C1903 1.367 . S
C1902 C1910 1.378 . S
C1903 C1902 1.367 . S
C1903 C1911 1.433 . S
C1904 H1900 0.929 . S
C1904 C1906 1.378 . S
C1904 C1908 1.350 . S
C1905 C1908 1.463 . S
C1905 C1910 1.350 . S
C1905 N1913 1.427 . S
C1906 H1897 0.930 . S
C1906 C1904 1.378 . S
C1906 C1907 1.367 . S
C1907 C1906 1.367 . S
C1907 C1909 1.433 . S
C1908 C1904 1.350 . S
C1908 C1905 1.463 . S
C1908 N1912 1.427 . S
C1909 H1899 0.929 . S
C1909 C1907 1.433 . S
C1909 N1912 1.384 . S
C1910 H1901 0.929 . S
C1910 C1902 1.378 . S
C1910 C1905 1.350 . S
C1911 H1898 0.929 . S
C1911 C1903 1.433 . S
C1911 N1913 1.384 . S
N1912 C1908 1.427 . S
N1912 C1909 1.384 . S
N1913 C1905 1.427 . S
N1913 C1911 1.384 . S
H1914 C1920 0.930 . S
H1915 C1924 0.930 . S
H1916 C1929 0.929 . S
H1917 C1927 0.929 . S
H1918 C1922 0.929 . S
H1919 C1928 0.929 . S
C1920 H1914 0.930 . S
C1920 C1921 1.367 . S
C1920 C1928 1.378 . S
C1921 C1920 1.367 . S
C1921 C1929 1.433 . S
C1922 H1918 0.929 . S
C1922 C1924 1.378 . S
C1922 C1926 1.350 . S
C1923 C1926 1.463 . S
C1923 C1928 1.350 . S
C1923 N1931 1.427 . S
C1924 H1915 0.930 . S
C1924 C1922 1.378 . S
C1924 C1925 1.367 . S
C1925 C1924 1.367 . S
C1925 C1927 1.433 . S
C1926 C1922 1.350 . S
C1926 C1923 1.463 . S
C1926 N1930 1.427 . S
C1927 H1917 0.929 . S
C1927 C1925 1.433 . S
C1927 N1930 1.384 . S
C1928 H1919 0.929 . S
C1928 C1920 1.378 . S
C1928 C1923 1.350 . S
C1929 H1916 0.929 . S
C1929 C1921 1.433 . S
C1929 N1931 1.384 . S
N1930 C1926 1.427 . S
N1930 C1927 1.384 . S
N1931 C1923 1.427 . S
N1931 C1929 1.384 . S
H1932 C1938 0.930 . S
H1933 C1942 0.930 . S
H1934 C1947 0.929 . S
H1935 C1945 0.929 . S
H1936 C1940 0.929 . S
H1937 C1946 0.929 . S
C1938 H1932 0.930 . S
C1938 C1939 1.367 . S
C1938 C1946 1.378 1_545 S
C1939 C1938 1.367 . S
C1939 C1947 1.433 . S
C1940 H1936 0.929 . S
C1940 C1942 1.378 . S
C1940 C1944 1.350 . S
C1941 C1944 1.463 . S
C1941 C1946 1.350 . S
C1941 N1949 1.427 1_565 S
C1942 H1933 0.930 . S
C1942 C1940 1.378 . S
C1942 C1943 1.367 . S
C1943 C1942 1.367 . S
C1943 C1945 1.433 . S
C1944 C1940 1.350 . S
C1944 C1941 1.463 . S
C1944 N1948 1.427 . S
C1945 H1935 0.929 . S
C1945 C1943 1.433 . S
C1945 N1948 1.384 . S
C1946 H1937 0.929 . S
C1946 C1938 1.378 1_565 S
C1946 C1941 1.350 . S
C1947 H1934 0.929 . S
C1947 C1939 1.433 . S
C1947 N1949 1.384 . S
N1948 C1944 1.427 . S
N1948 C1945 1.384 . S
N1949 C1941 1.427 1_545 S
N1949 C1947 1.384 . S
H1950 C1956 0.930 . S
H1951 C1960 0.930 . S
H1952 C1965 0.929 . S
H1953 C1963 0.929 . S
H1954 C1958 0.942 . S
H1955 C1964 0.929 . S
C1956 H1950 0.930 . S
C1956 C1957 1.367 . S
C1956 C1964 1.378 . S
C1957 C1956 1.367 . S
C1957 C1965 1.433 . S
C1958 H1954 0.942 . S
C1958 C1960 1.345 1_545 S
C1958 C1962 1.370 . S
C1959 C1962 1.463 . S
C1959 C1964 1.350 . S
C1959 N1967 1.427 . S
C1960 H1951 0.930 . S
C1960 C1958 1.345 1_565 S
C1960 C1961 1.367 . S
C1961 C1960 1.367 . S
C1961 C1963 1.433 . S
C1962 C1958 1.370 . S
C1962 C1959 1.463 . S
C1962 N1966 1.427 . S
C1963 H1953 0.929 . S
C1963 C1961 1.433 . S
C1963 N1966 1.384 1_565 S
C1964 H1955 0.929 . S
C1964 C1956 1.378 . S
C1964 C1959 1.350 . S
C1965 H1952 0.929 . S
C1965 C1957 1.433 . S
C1965 N1967 1.384 . S
N1966 C1962 1.427 . S
N1966 C1963 1.384 1_545 S
N1967 C1959 1.427 . S
N1967 C1965 1.384 . S
H1968 C1974 0.930 . S
H1969 C1978 0.930 . S
H1970 C1983 0.929 . S
H1971 C1981 0.929 . S
H1972 C1976 0.929 . S
H1973 C1982 0.929 . S
C1974 H1968 0.930 . S
C1974 C1975 1.367 . S
C1974 C1982 1.378 . S
C1975 C1974 1.367 . S
C1975 C1983 1.433 . S
C1976 H1972 0.929 . S
C1976 C1978 1.378 . S
C1976 C1980 1.350 . S
C1977 C1980 1.463 . S
C1977 C1982 1.350 . S
C1977 N1985 1.427 . S
C1978 H1969 0.930 . S
C1978 C1976 1.378 . S
C1978 C1979 1.367 . S
C1979 C1978 1.367 . S
C1979 C1981 1.433 . S
C1980 C1976 1.350 . S
C1980 C1977 1.463 . S
C1980 N1984 1.427 . S
C1981 H1971 0.929 . S
C1981 C1979 1.433 . S
C1981 N1984 1.384 . S
C1982 H1973 0.929 . S
C1982 C1974 1.378 . S
C1982 C1977 1.350 . S
C1983 H1970 0.929 . S
C1983 C1975 1.433 . S
C1983 N1985 1.384 . S
N1984 C1980 1.427 . S
N1984 C1981 1.384 . S
N1985 C1977 1.427 . S
N1985 C1983 1.384 . S
H1986 C1992 0.930 . S
H1987 C1996 0.930 . S
H1988 C2001 0.929 . S
H1989 C1999 0.929 . S
H1990 C1994 0.929 . S
H1991 C2000 0.929 . S
C1992 H1986 0.930 . S
C1992 C1993 1.367 . S
C1992 C2000 1.378 . S
C1993 C1992 1.367 . S
C1993 C2001 1.433 . S
C1994 H1990 0.929 . S
C1994 C1996 1.378 . S
C1994 C1998 1.350 . S
C1995 C1998 1.463 . S
C1995 C2000 1.350 . S
C1995 N2003 1.427 . S
C1996 H1987 0.930 . S
C1996 C1994 1.378 . S
C1996 C1997 1.367 . S
C1997 C1996 1.367 . S
C1997 C1999 1.433 . S
C1998 C1994 1.350 . S
C1998 C1995 1.463 . S
C1998 N2002 1.427 . S
C1999 H1989 0.929 . S
C1999 C1997 1.433 . S
C1999 N2002 1.384 . S
C2000 H1991 0.929 . S
C2000 C1992 1.378 . S
C2000 C1995 1.350 . S
C2001 H1988 0.929 . S
C2001 C1993 1.433 . S
C2001 N2003 1.384 . S
N2002 C1998 1.427 . S
N2002 C1999 1.384 . S
N2003 C1995 1.427 . S
N2003 C2001 1.384 . S
H2004 C2010 0.930 . S
H2005 C2014 0.930 . S
H2006 C2019 0.929 . S
H2007 C2017 0.929 . S
H2008 C2012 0.929 . S
H2009 C2018 0.929 . S
C2010 H2004 0.930 . S
C2010 C2011 1.367 . S
C2010 C2018 1.378 . S
C2011 C2010 1.367 . S
C2011 C2019 1.433 . S
C2012 H2008 0.929 . S
C2012 C2014 1.378 . S
C2012 C2016 1.350 . S
C2013 C2016 1.463 . S
C2013 C2018 1.350 . S
C2013 N2021 1.427 . S
C2014 H2005 0.930 . S
C2014 C2012 1.378 . S
C2014 C2015 1.367 . S
C2015 C2014 1.367 . S
C2015 C2017 1.433 . S
C2016 C2012 1.350 . S
C2016 C2013 1.463 . S
C2016 N2020 1.427 . S
C2017 H2007 0.929 . S
C2017 C2015 1.433 . S
C2017 N2020 1.384 . S
C2018 H2009 0.929 . S
C2018 C2010 1.378 . S
C2018 C2013 1.350 . S
C2019 H2006 0.929 . S
C2019 C2011 1.433 . S
C2019 N2021 1.384 . S
N2020 C2016 1.427 . S
N2020 C2017 1.384 . S
N2021 C2013 1.427 . S
N2021 C2019 1.384 . S
H2022 C2028 0.930 . S
H2023 C2032 0.930 . S
H2024 C2037 0.929 . S
H2025 C2035 0.929 . S
H2026 C2030 0.929 . S
H2027 C2036 0.929 1_655 S
C2028 H2022 0.930 . S
C2028 C2029 1.367 . S
C2028 C2036 1.378 . S
C2029 C2028 1.367 . S
C2029 C2037 1.433 . S
C2030 H2026 0.929 . S
C2030 C2032 1.378 . S
C2030 C2034 1.350 . S
C2031 C2034 1.463 . S
C2031 C2036 1.350 1_655 S
C2031 N2039 1.427 1_655 S
C2032 H2023 0.930 . S
C2032 C2030 1.378 . S
C2032 C2033 1.367 . S
C2033 C2032 1.367 . S
C2033 C2035 1.433 . S
C2034 C2030 1.350 . S
C2034 C2031 1.463 . S
C2034 N2038 1.427 . S
C2035 H2025 0.929 . S
C2035 C2033 1.433 . S
C2035 N2038 1.384 . S
C2036 H2027 0.929 1_455 S
C2036 C2028 1.378 . S
C2036 C2031 1.350 1_455 S
C2037 H2024 0.929 . S
C2037 C2029 1.433 . S
C2037 N2039 1.384 . S
N2038 C2034 1.427 . S
N2038 C2035 1.384 . S
N2039 C2031 1.427 1_455 S
N2039 C2037 1.384 . S
H2040 C2046 0.930 . S
H2041 C2050 0.930 . S
H2042 C2055 0.929 . S
H2043 C2053 0.929 . S
H2044 C2048 0.929 . S
H2045 C2054 0.929 . S
C2046 H2040 0.930 . S
C2046 C2047 1.367 . S
C2046 C2054 1.378 . S
C2047 C2046 1.367 . S
C2047 C2055 1.433 . S
C2048 H2044 0.929 . S
C2048 C2050 1.378 . S
C2048 C2052 1.350 . S
C2049 C2052 1.463 . S
C2049 C2054 1.350 . S
C2049 N2057 1.427 . S
C2050 H2041 0.930 . S
C2050 C2048 1.378 . S
C2050 C2051 1.367 . S
C2051 C2050 1.367 . S
C2051 C2053 1.433 . S
C2052 C2048 1.350 . S
C2052 C2049 1.463 . S
C2052 N2056 1.427 . S
C2053 H2043 0.929 . S
C2053 C2051 1.433 . S
C2053 N2056 1.384 . S
C2054 H2045 0.929 . S
C2054 C2046 1.378 . S
C2054 C2049 1.350 . S
C2055 H2042 0.929 . S
C2055 C2047 1.433 . S
C2055 N2057 1.384 . S
N2056 C2052 1.427 . S
N2056 C2053 1.384 . S
N2057 C2049 1.427 . S
N2057 C2055 1.384 . S
H2058 C2064 0.930 . S
H2059 C2068 0.930 . S
H2060 C2073 0.929 . S
H2061 C2071 0.929 . S
H2062 C2066 0.929 . S
H2063 C2072 0.929 . S
C2064 H2058 0.930 . S
C2064 C2065 1.367 . S
C2064 C2072 1.378 . S
C2065 C2064 1.367 . S
C2065 C2073 1.433 . S
C2066 H2062 0.929 . S
C2066 C2068 1.378 . S
C2066 C2070 1.350 . S
C2067 C2070 1.463 . S
C2067 C2072 1.350 1_655 S
C2067 N2075 1.427 . S
C2068 H2059 0.930 . S
C2068 C2066 1.378 . S
C2068 C2069 1.367 . S
C2069 C2068 1.367 . S
C2069 C2071 1.433 . S
C2070 C2066 1.350 . S
C2070 C2067 1.463 . S
C2070 N2074 1.427 . S
C2071 H2061 0.929 . S
C2071 C2069 1.433 . S
C2071 N2074 1.384 . S
C2072 H2063 0.929 . S
C2072 C2064 1.378 . S
C2072 C2067 1.350 1_455 S
C2073 H2060 0.929 . S
C2073 C2065 1.433 . S
C2073 N2075 1.384 1_455 S
N2074 C2070 1.427 . S
N2074 C2071 1.384 . S
N2075 C2067 1.427 . S
N2075 C2073 1.384 1_655 S
H2076 C2082 0.930 . S
H2077 C2086 0.930 . S
H2078 C2091 0.929 . S
H2079 C2089 0.929 . S
H2080 C2084 0.929 . S
H2081 C2090 0.929 . S
C2082 H2076 0.930 . S
C2082 C2083 1.367 . S
C2082 C2090 1.378 . S
C2083 C2082 1.367 . S
C2083 C2091 1.433 . S
C2084 H2080 0.929 . S
C2084 C2086 1.378 . S
C2084 C2088 1.350 . S
C2085 C2088 1.463 . S
C2085 C2090 1.350 . S
C2085 N2093 1.427 . S
C2086 H2077 0.930 . S
C2086 C2084 1.378 . S
C2086 C2087 1.367 . S
C2087 C2086 1.367 . S
C2087 C2089 1.433 . S
C2088 C2084 1.350 . S
C2088 C2085 1.463 . S
C2088 N2092 1.427 . S
C2089 H2079 0.929 . S
C2089 C2087 1.433 . S
C2089 N2092 1.384 . S
C2090 H2081 0.929 . S
C2090 C2082 1.378 . S
C2090 C2085 1.350 . S
C2091 H2078 0.929 . S
C2091 C2083 1.433 . S
C2091 N2093 1.384 . S
N2092 C2088 1.427 . S
N2092 C2089 1.384 . S
N2093 C2085 1.427 . S
N2093 C2091 1.384 . S
H2094 C2100 0.930 . S
H2095 C2104 0.930 . S
H2096 C2109 0.929 . S
H2097 C2107 0.929 . S
H2098 C2102 0.929 . S
H2099 C2108 0.929 . S
C2100 H2094 0.930 . S
C2100 C2101 1.367 . S
C2100 C2108 1.378 . S
C2101 C2100 1.367 . S
C2101 C2109 1.433 . S
C2102 H2098 0.929 . S
C2102 C2104 1.378 . S
C2102 C2106 1.350 . S
C2103 C2106 1.463 . S
C2103 C2108 1.350 . S
C2103 N2111 1.427 . S
C2104 H2095 0.930 . S
C2104 C2102 1.378 . S
C2104 C2105 1.367 . S
C2105 C2104 1.367 . S
C2105 C2107 1.433 . S
C2106 C2102 1.350 . S
C2106 C2103 1.463 . S
C2106 N2110 1.427 . S
C2107 H2097 0.929 . S
C2107 C2105 1.433 . S
C2107 N2110 1.384 . S
C2108 H2099 0.929 . S
C2108 C2100 1.378 . S
C2108 C2103 1.350 . S
C2109 H2096 0.929 . S
C2109 C2101 1.433 . S
C2109 N2111 1.384 . S
N2110 C2106 1.427 . S
N2110 C2107 1.384 . S
N2111 C2103 1.427 . S
N2111 C2109 1.384 . S
H2112 C2118 0.930 . S
H2113 C2122 0.930 . S
H2114 C2127 0.929 . S
H2115 C2125 0.929 . S
H2116 C2120 0.929 . S
H2117 C2126 0.929 . S
C2118 H2112 0.930 . S
C2118 C2119 1.367 . S
C2118 C2126 1.378 . S
C2119 C2118 1.367 . S
C2119 C2127 1.433 . S
C2120 H2116 0.929 . S
C2120 C2122 1.378 . S
C2120 C2124 1.350 . S
C2121 C2124 1.463 . S
C2121 C2126 1.350 . S
C2121 N2129 1.427 . S
C2122 H2113 0.930 . S
C2122 C2120 1.378 . S
C2122 C2123 1.367 . S
C2123 C2122 1.367 . S
C2123 C2125 1.433 . S
C2124 C2120 1.350 . S
C2124 C2121 1.463 . S
C2124 N2128 1.427 . S
C2125 H2115 0.929 . S
C2125 C2123 1.433 . S
C2125 N2128 1.384 . S
C2126 H2117 0.929 . S
C2126 C2118 1.378 . S
C2126 C2121 1.350 . S
C2127 H2114 0.929 . S
C2127 C2119 1.433 . S
C2127 N2129 1.384 . S
N2128 C2124 1.427 . S
N2128 C2125 1.384 . S
N2129 C2121 1.427 . S
N2129 C2127 1.384 . S
H2130 C2136 0.930 . S
H2131 C2140 0.930 . S
H2132 C2145 0.929 . S
H2133 C2143 0.929 . S
H2134 C2138 0.929 . S
H2135 C2144 0.929 . S
C2136 H2130 0.930 . S
C2136 C2137 1.367 . S
C2136 C2144 1.378 . S
C2137 C2136 1.367 . S
C2137 C2145 1.433 . S
C2138 H2134 0.929 . S
C2138 C2140 1.378 1_556 S
C2138 C2142 1.350 . S
C2139 C2142 1.463 . S
C2139 C2144 1.350 . S
C2139 N2147 1.427 . S
C2140 H2131 0.930 . S
C2140 C2138 1.378 1_554 S
C2140 C2141 1.367 . S
C2141 C2140 1.367 . S
C2141 C2143 1.433 . S
C2142 C2138 1.350 . S
C2142 C2139 1.463 . S
C2142 N2146 1.427 . S
C2143 H2133 0.929 . S
C2143 C2141 1.433 . S
C2143 N2146 1.384 1_554 S
C2144 H2135 0.929 . S
C2144 C2136 1.378 . S
C2144 C2139 1.350 . S
C2145 H2132 0.929 . S
C2145 C2137 1.433 . S
C2145 N2147 1.384 . S
N2146 C2142 1.427 . S
N2146 C2143 1.384 1_556 S
N2147 C2139 1.427 . S
N2147 C2145 1.384 . S
H2148 C2154 0.930 . S
H2149 C2158 0.930 . S
H2150 C2163 0.929 . S
H2151 C2161 0.929 . S
H2152 C2156 0.929 . S
H2153 C2162 0.929 . S
C2154 H2148 0.930 . S
C2154 C2155 1.367 . S
C2154 C2162 1.378 . S
C2155 C2154 1.367 . S
C2155 C2163 1.433 . S
C2156 H2152 0.929 . S
C2156 C2158 1.378 . S
C2156 C2160 1.350 . S
C2157 C2160 1.463 . S
C2157 C2162 1.350 . S
C2157 N2165 1.427 . S
C2158 H2149 0.930 . S
C2158 C2156 1.378 . S
C2158 C2159 1.367 . S
C2159 C2158 1.367 . S
C2159 C2161 1.433 . S
C2160 C2156 1.350 . S
C2160 C2157 1.463 . S
C2160 N2164 1.427 . S
C2161 H2151 0.929 . S
C2161 C2159 1.433 . S
C2161 N2164 1.384 . S
C2162 H2153 0.929 . S
C2162 C2154 1.378 . S
C2162 C2157 1.350 . S
C2163 H2150 0.929 . S
C2163 C2155 1.433 . S
C2163 N2165 1.384 . S
N2164 C2160 1.427 . S
N2164 C2161 1.384 . S
N2165 C2157 1.427 . S
N2165 C2163 1.384 . S
H2166 C2172 0.930 . S
H2167 C2176 0.930 . S
H2168 C2181 0.929 . S
H2169 C2179 0.929 . S
H2170 C2174 0.929 . S
H2171 C2180 0.929 . S
C2172 H2166 0.930 . S
C2172 C2173 1.367 . S
C2172 C2180 1.378 . S
C2173 C2172 1.367 . S
C2173 C2181 1.433 . S
C2174 H2170 0.929 . S
C2174 C2176 1.378 . S
C2174 C2178 1.350 . S
C2175 C2178 1.463 . S
C2175 C2180 1.350 . S
C2175 N2183 1.427 . S
C2176 H2167 0.930 . S
C2176 C2174 1.378 . S
C2176 C2177 1.367 . S
C2177 C2176 1.367 . S
C2177 C2179 1.433 . S
C2178 C2174 1.350 . S
C2178 C2175 1.463 . S
C2178 N2182 1.427 . S
C2179 H2169 0.929 . S
C2179 C2177 1.433 . S
C2179 N2182 1.384 . S
C2180 H2171 0.929 . S
C2180 C2172 1.378 . S
C2180 C2175 1.350 . S
C2181 H2168 0.929 . S
C2181 C2173 1.433 . S
C2181 N2183 1.384 . S
N2182 C2178 1.427 . S
N2182 C2179 1.384 . S
N2183 C2175 1.427 . S
N2183 C2181 1.384 . S
H2184 C2190 0.930 . S
H2185 C2194 0.930 . S
H2186 C2199 0.929 . S
H2187 C2197 0.929 . S
H2188 C2192 0.929 . S
H2189 C2198 0.929 . S
C2190 H2184 0.930 . S
C2190 C2191 1.367 . S
C2190 C2198 1.378 . S
C2191 C2190 1.367 . S
C2191 C2199 1.433 . S
C2192 H2188 0.929 . S
C2192 C2194 1.378 . S
C2192 C2196 1.350 . S
C2193 C2196 1.463 . S
C2193 C2198 1.350 . S
C2193 N2201 1.427 . S
C2194 H2185 0.930 . S
C2194 C2192 1.378 . S
C2194 C2195 1.367 . S
C2195 C2194 1.367 . S
C2195 C2197 1.433 . S
C2196 C2192 1.350 . S
C2196 C2193 1.463 . S
C2196 N2200 1.427 . S
C2197 H2187 0.929 . S
C2197 C2195 1.433 . S
C2197 N2200 1.384 . S
C2198 H2189 0.929 . S
C2198 C2190 1.378 . S
C2198 C2193 1.350 . S
C2199 H2186 0.929 . S
C2199 C2191 1.433 . S
C2199 N2201 1.384 . S
N2200 C2196 1.427 . S
N2200 C2197 1.384 . S
N2201 C2193 1.427 . S
N2201 C2199 1.384 . S
H2202 C2208 0.930 . S
H2203 C2212 0.930 . S
H2204 C2217 0.929 . S
H2205 C2215 0.929 . S
H2206 C2210 0.929 . S
H2207 C2216 0.929 . S
C2208 H2202 0.930 . S
C2208 C2209 1.367 . S
C2208 C2216 1.378 . S
C2209 C2208 1.367 . S
C2209 C2217 1.433 . S
C2210 H2206 0.929 . S
C2210 C2212 1.378 1_554 S
C2210 C2214 1.350 . S
C2211 C2214 1.463 . S
C2211 C2216 1.350 . S
C2211 N2219 1.427 . S
C2212 H2203 0.930 . S
C2212 C2210 1.378 1_556 S
C2212 C2213 1.367 . S
C2213 C2212 1.367 . S
C2213 C2215 1.433 . S
C2214 C2210 1.350 . S
C2214 C2211 1.463 . S
C2214 N2218 1.427 . S
C2215 H2205 0.929 . S
C2215 C2213 1.433 . S
C2215 N2218 1.384 1_556 S
C2216 H2207 0.929 . S
C2216 C2208 1.378 . S
C2216 C2211 1.350 . S
C2217 H2204 0.929 . S
C2217 C2209 1.433 . S
C2217 N2219 1.384 . S
N2218 C2214 1.427 . S
N2218 C2215 1.384 1_554 S
N2219 C2211 1.427 . S
N2219 C2217 1.384 . S
H2220 C2226 0.930 . S
H2221 C2230 0.930 . S
H2222 C2235 0.929 . S
H2223 C2233 0.929 . S
H2224 C2228 0.929 . S
H2225 C2234 0.929 . S
C2226 H2220 0.930 . S
C2226 C2227 1.367 . S
C2226 C2234 1.378 . S
C2227 C2226 1.367 . S
C2227 C2235 1.433 . S
C2228 H2224 0.929 . S
C2228 C2230 1.378 . S
C2228 C2232 1.350 . S
C2229 C2232 1.463 . S
C2229 C2234 1.350 . S
C2229 N2237 1.427 . S
C2230 H2221 0.930 . S
C2230 C2228 1.378 . S
C2230 C2231 1.367 . S
C2231 C2230 1.367 . S
C2231 C2233 1.433 . S
C2232 C2228 1.350 . S
C2232 C2229 1.463 . S
C2232 N2236 1.427 . S
C2233 H2223 0.929 . S
C2233 C2231 1.433 . S
C2233 N2236 1.384 . S
C2234 H2225 0.929 . S
C2234 C2226 1.378 . S
C2234 C2229 1.350 . S
C2235 H2222 0.929 . S
C2235 C2227 1.433 . S
C2235 N2237 1.384 . S
N2236 C2232 1.427 . S
N2236 C2233 1.384 . S
N2237 C2229 1.427 . S
N2237 C2235 1.384 . S
H2238 C2244 0.930 . S
H2239 C2248 0.930 . S
H2240 C2253 0.929 . S
H2241 C2251 0.929 . S
H2242 C2246 0.929 . S
H2243 C2252 0.929 . S
C2244 H2238 0.930 . S
C2244 C2245 1.367 . S
C2244 C2252 1.378 . S
C2245 C2244 1.367 . S
C2245 C2253 1.433 . S
C2246 H2242 0.929 . S
C2246 C2248 1.378 . S
C2246 C2250 1.350 . S
C2247 C2250 1.463 . S
C2247 C2252 1.350 . S
C2247 N2255 1.427 . S
C2248 H2239 0.930 . S
C2248 C2246 1.378 . S
C2248 C2249 1.367 . S
C2249 C2248 1.367 . S
C2249 C2251 1.433 . S
C2250 C2246 1.350 . S
C2250 C2247 1.463 . S
C2250 N2254 1.427 . S
C2251 H2241 0.929 . S
C2251 C2249 1.433 . S
C2251 N2254 1.384 . S
C2252 H2243 0.929 . S
C2252 C2244 1.378 . S
C2252 C2247 1.350 . S
C2253 H2240 0.929 . S
C2253 C2245 1.433 . S
C2253 N2255 1.384 . S
N2254 C2250 1.427 . S
N2254 C2251 1.384 . S
N2255 C2247 1.427 . S
N2255 C2253 1.384 . S
H2256 C2262 0.930 . S
H2257 C2266 0.930 . S
H2258 C2271 0.929 . S
H2259 C2269 0.929 . S
H2260 C2264 0.929 . S
H2261 C2270 0.929 . S
C2262 H2256 0.930 . S
C2262 C2263 1.367 . S
C2262 C2270 1.378 . S
C2263 C2262 1.367 . S
C2263 C2271 1.433 . S
C2264 H2260 0.929 . S
C2264 C2266 1.378 . S
C2264 C2268 1.350 . S
C2265 C2268 1.463 . S
C2265 C2270 1.350 . S
C2265 N2273 1.427 . S
C2266 H2257 0.930 . S
C2266 C2264 1.378 . S
C2266 C2267 1.367 . S
C2267 C2266 1.367 . S
C2267 C2269 1.433 . S
C2268 C2264 1.350 . S
C2268 C2265 1.463 . S
C2268 N2272 1.427 . S
C2269 H2259 0.929 . S
C2269 C2267 1.433 . S
C2269 N2272 1.384 . S
C2270 H2261 0.929 . S
C2270 C2262 1.378 . S
C2270 C2265 1.350 . S
C2271 H2258 0.929 . S
C2271 C2263 1.433 . S
C2271 N2273 1.384 . S
N2272 C2268 1.427 . S
N2272 C2269 1.384 . S
N2273 C2265 1.427 . S
N2273 C2271 1.384 . S
H2274 C2280 0.930 . S
H2275 C2284 0.930 . S
H2276 C2289 0.929 . S
H2277 C2287 0.929 . S
H2278 C2282 0.929 . S
H2279 C2288 0.929 . S
C2280 H2274 0.930 . S
C2280 C2281 1.367 . S
C2280 C2288 1.378 . S
C2281 C2280 1.367 . S
C2281 C2289 1.433 . S
C2282 H2278 0.929 . S
C2282 C2284 1.378 . S
C2282 C2286 1.350 . S
C2283 C2286 1.463 . S
C2283 C2288 1.350 . S
C2283 N2291 1.427 . S
C2284 H2275 0.930 . S
C2284 C2282 1.378 . S
C2284 C2285 1.367 . S
C2285 C2284 1.367 . S
C2285 C2287 1.433 . S
C2286 C2282 1.350 . S
C2286 C2283 1.463 . S
C2286 N2290 1.427 . S
C2287 H2277 0.929 . S
C2287 C2285 1.433 . S
C2287 N2290 1.384 . S
C2288 H2279 0.929 . S
C2288 C2280 1.378 . S
C2288 C2283 1.350 . S
C2289 H2276 0.929 . S
C2289 C2281 1.433 . S
C2289 N2291 1.384 . S
N2290 C2286 1.427 . S
N2290 C2287 1.384 . S
N2291 C2283 1.427 . S
N2291 C2289 1.384 . S
H2292 C2298 0.930 . S
H2293 C2302 0.930 . S
H2294 C2307 0.929 . S
H2295 C2305 0.929 . S
H2296 C2300 0.929 . S
H2297 C2306 0.929 . S
C2298 H2292 0.930 . S
C2298 C2299 1.367 . S
C2298 C2306 1.378 . S
C2299 C2298 1.367 . S
C2299 C2307 1.433 . S
C2300 H2296 0.929 . S
C2300 C2302 1.378 . S
C2300 C2304 1.375 . S
C2301 C2304 1.415 1_565 S
C2301 C2306 1.350 . S
C2301 N2309 1.427 . S
C2302 H2293 0.930 . S
C2302 C2300 1.378 . S
C2302 C2303 1.367 . S
C2303 C2302 1.367 . S
C2303 C2305 1.433 . S
C2304 C2300 1.375 . S
C2304 C2301 1.415 1_545 S
C2304 N2308 1.449 . S
C2305 H2295 0.929 . S
C2305 C2303 1.433 . S
C2305 N2308 1.384 . S
C2306 H2297 0.929 . S
C2306 C2298 1.378 . S
C2306 C2301 1.350 . S
C2307 H2294 0.929 . S
C2307 C2299 1.433 . S
C2307 N2309 1.384 . S
N2308 C2304 1.449 . S
N2308 C2305 1.384 . S
N2309 C2301 1.427 . S
N2309 C2307 1.384 . S
H2310 C2316 0.930 . S
H2311 C2320 0.930 . S
H2312 C2325 0.929 . S
H2313 C2323 0.929 . S
H2314 C2318 0.929 . S
H2315 C2324 0.929 . S
C2316 H2310 0.930 . S
C2316 C2317 1.367 . S
C2316 C2324 1.378 . S
C2317 C2316 1.367 . S
C2317 C2325 1.433 . S
C2318 H2314 0.929 . S
C2318 C2320 1.378 . S
C2318 C2322 1.350 . S
C2319 C2322 1.463 . S
C2319 C2324 1.350 . S
C2319 N2327 1.427 . S
C2320 H2311 0.930 . S
C2320 C2318 1.378 . S
C2320 C2321 1.367 . S
C2321 C2320 1.367 . S
C2321 C2323 1.433 . S
C2322 C2318 1.350 . S
C2322 C2319 1.463 . S
C2322 N2326 1.427 . S
C2323 H2313 0.929 . S
C2323 C2321 1.433 . S
C2323 N2326 1.384 . S
C2324 H2315 0.929 . S
C2324 C2316 1.378 . S
C2324 C2319 1.350 . S
C2325 H2312 0.929 . S
C2325 C2317 1.433 . S
C2325 N2327 1.384 . S
N2326 C2322 1.427 . S
N2326 C2323 1.384 . S
N2327 C2319 1.427 . S
N2327 C2325 1.384 . S
H2328 C2334 0.930 . S
H2329 C2338 0.930 . S
H2330 C2343 0.929 . S
H2331 C2341 0.929 . S
H2332 C2336 0.929 . S
H2333 C2342 0.929 . S
C2334 H2328 0.930 . S
C2334 C2335 1.367 . S
C2334 C2342 1.378 . S
C2335 C2334 1.367 . S
C2335 C2343 1.433 . S
C2336 H2332 0.929 . S
C2336 C2338 1.378 . S
C2336 C2340 1.350 . S
C2337 C2340 1.463 . S
C2337 C2342 1.350 . S
C2337 N2345 1.427 . S
C2338 H2329 0.930 . S
C2338 C2336 1.378 . S
C2338 C2339 1.367 . S
C2339 C2338 1.367 . S
C2339 C2341 1.433 . S
C2340 C2336 1.350 . S
C2340 C2337 1.463 . S
C2340 N2344 1.427 . S
C2341 H2331 0.929 . S
C2341 C2339 1.433 . S
C2341 N2344 1.384 . S
C2342 H2333 0.929 . S
C2342 C2334 1.378 . S
C2342 C2337 1.350 . S
C2343 H2330 0.929 . S
C2343 C2335 1.433 . S
C2343 N2345 1.384 . S
N2344 C2340 1.427 . S
N2344 C2341 1.384 . S
N2345 C2337 1.427 . S
N2345 C2343 1.384 . S
H2346 C2352 0.930 . S
H2347 C2356 0.930 . S
H2348 C2361 0.929 . S
H2349 C2359 0.929 . S
H2350 C2354 0.929 . S
H2351 C2360 0.929 . S
C2352 H2346 0.930 . S
C2352 C2353 1.367 . S
C2352 C2360 1.378 . S
C2353 C2352 1.367 . S
C2353 C2361 1.433 . S
C2354 H2350 0.929 . S
C2354 C2356 1.378 . S
C2354 C2358 1.350 . S
C2355 C2358 1.463 . S
C2355 C2360 1.350 . S
C2355 N2363 1.427 . S
C2356 H2347 0.930 . S
C2356 C2354 1.378 . S
C2356 C2357 1.367 . S
C2357 C2356 1.367 . S
C2357 C2359 1.433 . S
C2358 C2354 1.350 . S
C2358 C2355 1.463 . S
C2358 N2362 1.427 . S
C2359 H2349 0.929 . S
C2359 C2357 1.433 . S
C2359 N2362 1.384 . S
C2360 H2351 0.929 . S
C2360 C2352 1.378 . S
C2360 C2355 1.350 . S
C2361 H2348 0.929 . S
C2361 C2353 1.433 . S
C2361 N2363 1.384 . S
N2362 C2358 1.427 . S
N2362 C2359 1.384 . S
N2363 C2355 1.427 . S
N2363 C2361 1.384 . S
H2364 C2370 0.930 . S
H2365 C2374 0.930 . S
H2366 C2379 0.929 . S
H2367 C2377 0.929 . S
H2368 C2372 0.929 . S
H2369 C2378 0.929 1_545 S
C2370 H2364 0.930 . S
C2370 C2371 1.367 . S
C2370 C2378 1.378 . S
C2371 C2370 1.367 . S
C2371 C2379 1.433 . S
C2372 H2368 0.929 . S
C2372 C2374 1.378 . S
C2372 C2376 1.350 . S
C2373 C2376 1.463 . S
C2373 C2378 1.350 1_545 S
C2373 N2381 1.427 1_545 S
C2374 H2365 0.930 . S
C2374 C2372 1.378 . S
C2374 C2375 1.367 . S
C2375 C2374 1.367 . S
C2375 C2377 1.433 . S
C2376 C2372 1.350 . S
C2376 C2373 1.463 . S
C2376 N2380 1.427 . S
C2377 H2367 0.929 . S
C2377 C2375 1.433 . S
C2377 N2380 1.384 . S
C2378 H2369 0.929 1_565 S
C2378 C2370 1.378 . S
C2378 C2373 1.350 1_565 S
C2379 H2366 0.929 . S
C2379 C2371 1.433 . S
C2379 N2381 1.384 . S
N2380 C2376 1.427 . S
N2380 C2377 1.384 . S
N2381 C2373 1.427 1_565 S
N2381 C2379 1.384 . S
H2382 C2388 0.930 . S
H2383 C2392 0.930 . S
H2384 C2397 0.929 . S
H2385 C2395 0.929 . S
H2386 C2390 0.929 1_565 S
H2387 C2396 0.929 . S
C2388 H2382 0.930 . S
C2388 C2389 1.367 . S
C2388 C2396 1.378 . S
C2389 C2388 1.367 . S
C2389 C2397 1.433 . S
C2390 H2386 0.929 1_545 S
C2390 C2392 1.378 . S
C2390 C2394 1.350 1_545 S
C2391 C2394 1.463 . S
C2391 C2396 1.350 . S
C2391 N2399 1.427 . S
C2392 H2383 0.930 . S
C2392 C2390 1.378 . S
C2392 C2393 1.367 . S
C2393 C2392 1.367 . S
C2393 C2395 1.433 . S
C2394 C2390 1.350 1_565 S
C2394 C2391 1.463 . S
C2394 N2398 1.427 1_565 S
C2395 H2385 0.929 . S
C2395 C2393 1.433 . S
C2395 N2398 1.384 . S
C2396 H2387 0.929 . S
C2396 C2388 1.378 . S
C2396 C2391 1.350 . S
C2397 H2384 0.929 . S
C2397 C2389 1.433 . S
C2397 N2399 1.384 . S
N2398 C2394 1.427 1_545 S
N2398 C2395 1.384 . S
N2399 C2391 1.427 . S
N2399 C2397 1.384 . S
C679 C599 1.227 . S
C683 C8 1.218 . S
C697 C21 1.324 . S
C701 C218 1.278 . S
C715 C36 1.211 . S
C719 C571 1.212 . S
C733 C49 1.283 . S
C737 C246 1.230 . S
C751 C624 1.069 . S
C755 C67 1.124 . S
C769 C77 1.297 . S
C773 C305 1.285 . S
C787 C95 1.135 . S
C791 C652 1.095 . S
C805 C105 1.297 . S
C809 C277 1.288 . S
C823 C55 1.276 . S
C827 C669 1.315 . S
C841 C11 1.014 . S
C845 C358 0.986 . S
C859 C372 1.358 . S
C863 C27 1.363 . S
C877 C39 1.129 . S
C881 C344 1.076 . S
C895 C83 1.203 . S
C899 C347 1.245 . S
C913 C92 1.282 . S
C917 C666 1.219 . S
C931 C111 1.078 . S
C935 C361 1.117 . S
C949 C64 1.196 . S
C953 C375 1.204 . S
C967 C557 1.166 . S
C971 C119 1.174 . S
C985 C133 1.436 . S
C989 C274 1.375 . S
C1003 C125 1.064 . S
C1007 C627 1.104 . S
C1021 C302 1.389 . S
C1025 C147 1.445 . S
C1039 C319 1.130 . S
C1043 C167 1.100 . S
C1057 C585 1.169 . S
C1061 C175 1.182 . S
C1075 C596 1.372 . S
C1079 C195 1.384 . S
C1093 C568 1.381 . S
C1097 C209 1.396 . S
C1111 C470 1.180 . S
C1115 C217 1.239 . S
C1129 C237 1.196 . S
C1133 C7 1.267 . S
C1147 C245 1.294 . S
C1151 C442 1.239 . S
C1165 C35 1.255 . S
C1169 C265 1.186 . S
C1183 C279 1.217 . S
C1187 C498 1.211 . S
C1201 C97 1.226 . S
C1205 C287 1.249 . S
C1219 C307 1.268 . S
C1223 C526 1.269 . S
C1237 C69 1.186 . S
C1241 C315 1.204 . S
C1255 C543 1.294 . S
C1259 C259 1.315 . S
C1273 C223 1.199 . S
C1277 C148 1.188 . S
C1291 C165 1.300 . S
C1295 C231 1.328 . S
C1309 C134 1.167 . S
C1313 C251 1.177 . S
C1327 C137 1.218 . S
C1331 C293 1.172 . S
C1345 C301 1.299 . S
C1349 C540 1.232 . S
C1363 C151 1.210 . S
C1367 C321 1.166 . S
C1381 C273 1.320 . S
C1385 C162 1.254 . S
C1399 C329 1.282 . S
C1403 C433 1.265 . S
C1417 C343 1.314 . S
C1421 C63 1.315 . S
C1435 C335 1.242 . S
C1439 C501 1.286 . S
C1453 C357 1.241 . S
C1457 C91 1.241 . S
C1471 C371 1.349 . S
C1475 C109 1.318 . S
C1489 C461 1.139 . S
C1493 C391 1.088 . S
C1507 C405 1.186 . S
C1511 C473 1.225 . S
C1525 C413 1.221 . S
C1529 C445 1.210 . S
C1543 C428 1.183 . S
C1547 C263 1.183 . S
C1561 C441 1.325 . S
C1565 C554 1.283 . S
C1579 C235 1.208 . S
C1583 C456 1.207 . S
C1597 C469 1.291 . S
C1601 C582 1.239 . S
C1615 C487 1.108 . S
C1619 C288 1.065 . S
C1633 C641 1.278 . S
C1637 C497 1.298 . S
C1651 C515 1.145 . S
C1655 C316 1.095 . S
C1669 C613 1.325 . S
C1673 C525 1.342 . S
C1687 C333 1.331 . S
C1691 C475 1.296 . S
C1705 C417 0.913 . S
C1709 C431 0.916 . S
C1723 C447 1.260 . S
C1727 C386 1.259 . S
C1741 C400 1.085 . S
C1745 C459 1.137 . S
C1759 C503 1.199 . S
C1763 C403 1.240 . S
C1777 C330 1.346 . S
C1781 C512 1.401 . S
C1795 C531 1.186 . S
C1799 C414 1.181 . S
C1813 C484 1.194 . S
C1817 C389 1.181 . S
C1831 C539 1.182 . S
C1835 C221 1.173 . S
C1849 C189 1.430 . S
C1853 C610 1.364 . S
C1867 C291 1.127 . S
C1871 C545 1.094 . S
C1885 C638 1.388 . S
C1889 C203 1.452 . S
C1903 C655 1.106 . S
C1907 C181 1.067 . S
C1921 C161 1.192 . S
C1925 C249 1.183 . S
C1939 C139 1.375 . S
C1943 C260 1.366 . S
C1957 C232 1.384 . S
C1961 C153 1.398 . S
C1975 C553 1.234 . S
C1979 C50 1.175 . S
C1993 C427 1.210 . S
C1997 C573 1.139 . S
C2011 C581 1.258 . S
C2015 C22 1.204 . S
C2029 C601 1.199 . S
C2033 C455 1.258 . S
C2047 C78 1.209 . S
C2051 C615 1.219 . S
C2065 C623 1.211 . S
C2069 C517 1.188 . S
C2083 C643 1.212 . S
C2087 C106 1.210 . S
C2101 C489 1.183 . S
C2105 C651 1.200 . S
C2119 C595 1.317 . S
C2123 C123 1.287 . S
C2137 C204 1.232 . S
C2141 C559 1.239 . S
C2155 C179 1.278 . S
C2159 C567 1.306 . S
C2173 C587 1.169 . S
C2177 C190 1.156 . S
C2191 C629 1.147 . S
C2195 C193 1.193 . S
C2209 C120 1.211 . S
C2213 C637 1.274 . S
C2227 C207 1.240 . S
C2231 C657 1.197 . S
C2245 C609 1.315 . S
C2249 C176 1.244 . S
C2263 C13 1.214 . S
C2267 C665 1.228 . S
C2281 C399 1.307 . S
C2285 C483 1.310 . S
C2299 C81 1.262 . S
C2303 C671 1.211 . S
C2317 C511 1.178 . S
C2321 C419 1.126 . S
C2335 C529 1.280 . S
C2339 C385 1.303 . S
C2353 C377 1.098 . S
C2357 C41 1.152 . S
C2371 C349 1.160 . S
C2375 C53 1.207 . S
C2389 C25 1.142 . S
C2393 C363 1.106 . S
