# Generated by pormake.
# Topology nov, (5)-cn, num edge types: 1
# Building blocks:
#     Node 0, Type 0, BuildingBlock: XOMCOT_clean_sbu_0, # of connection points: 5
#     Node 1, Type 0, BuildingBlock: XOMCOT_clean_sbu_0, # of connection points: 5
#     Node 2, Type 0, BuildingBlock: XOMCOT_clean_sbu_0, # of connection points: 5
#     Node 3, Type 0, BuildingBlock: XOMCOT_clean_sbu_0, # of connection points: 5
#     Node 4, Type 0, BuildingBlock: XOMCOT_clean_sbu_0, # of connection points: 5
#     Node 5, Type 0, BuildingBlock: XOMCOT_clean_sbu_0, # of connection points: 5
#     Node 6, Type 0, BuildingBlock: XOMCOT_clean_sbu_0, # of connection points: 5
#     Node 7, Type 0, BuildingBlock: XOMCOT_clean_sbu_0, # of connection points: 5
#     Edge 8, Type (0, 0), BuildingBlock: ZUJKAS_clean_linker_0, # of connection points: 2
#     Edge 9, Type (0, 0), BuildingBlock: ZUJKAS_clean_linker_0, # of connection points: 2
#     Edge 10, Type (0, 0), BuildingBlock: ZUJKAS_clean_linker_0, # of connection points: 2
#     Edge 11, Type (0, 0), BuildingBlock: ZUJKAS_clean_linker_0, # of connection points: 2
#     Edge 12, Type (0, 0), BuildingBlock: ZUJKAS_clean_linker_0, # of connection points: 2
#     Edge 13, Type (0, 0), BuildingBlock: ZUJKAS_clean_linker_0, # of connection points: 2
#     Edge 14, Type (0, 0), BuildingBlock: ZUJKAS_clean_linker_0, # of connection points: 2
#     Edge 15, Type (0, 0), BuildingBlock: ZUJKAS_clean_linker_0, # of connection points: 2
#     Edge 16, Type (0, 0), BuildingBlock: ZUJKAS_clean_linker_0, # of connection points: 2
#     Edge 17, Type (0, 0), BuildingBlock: ZUJKAS_clean_linker_0, # of connection points: 2
#     Edge 18, Type (0, 0), BuildingBlock: ZUJKAS_clean_linker_0, # of connection points: 2
#     Edge 19, Type (0, 0), BuildingBlock: ZUJKAS_clean_linker_0, # of connection points: 2
#     Edge 20, Type (0, 0), BuildingBlock: ZUJKAS_clean_linker_0, # of connection points: 2
#     Edge 21, Type (0, 0), BuildingBlock: ZUJKAS_clean_linker_0, # of connection points: 2
#     Edge 22, Type (0, 0), BuildingBlock: ZUJKAS_clean_linker_0, # of connection points: 2
#     Edge 23, Type (0, 0), BuildingBlock: ZUJKAS_clean_linker_0, # of connection points: 2
#     Edge 24, Type (0, 0), BuildingBlock: ZUJKAS_clean_linker_0, # of connection points: 2
#     Edge 25, Type (0, 0), BuildingBlock: ZUJKAS_clean_linker_0, # of connection points: 2
#     Edge 26, Type (0, 0), BuildingBlock: ZUJKAS_clean_linker_0, # of connection points: 2
#     Edge 27, Type (0, 0), BuildingBlock: ZUJKAS_clean_linker_0, # of connection points: 2
# Relax obj value: 0.161
# Max RMSD: 0.191
# Mean RMSD: 0.191
data_MOF--net-nov--node1-XOMCOT_clean_sbu_0--edge1-ZUJKAS_clean_linker_0
_symmetry_space_group_name_H-M    P1
_symmetry_Int_Tables_number       1
_symmetry_cell_setting            triclinic
loop_
_symmetry_equiv_pos_as_xyz
'x, y, z'
_cell_length_a     35.227906
_cell_length_b     67.721377
_cell_length_c     35.305397
_cell_angle_alpha  89.9707
_cell_angle_beta   89.923931
_cell_angle_gamma 90.165749
loop_
_atom_site_label
_atom_site_type_symbol
_atom_site_fract_x
_atom_site_fract_y
_atom_site_fract_z
_atom_type_partial_charge
Co0 Co 0.03016 0.16056 0.14723 0.0
C1 C 0.0326 0.12058 0.10817 0.0
C2 C 0.06069 0.12167 0.1619 0.0
C3 C 0.0624 0.10269 0.14867 0.0
N4 N 0.04275 0.13312 0.13636 0.0
N5 N 0.04482 0.10193 0.11483 0.0
H6 H 0.01603 0.12462 0.08381 0.0
H7 H 0.07093 0.12672 0.1891 0.0
C8 C 0.11411 0.15867 0.15359 0.0
O9 O 0.11371 0.14967 0.12061 0.0
N10 N 0.01767 0.18738 0.16062 0.0
C11 C 0.99729 0.20058 0.14069 0.0
C12 C 0.99277 0.21732 0.16249 0.0
C13 C 0.02487 0.19606 0.19419 0.0
N14 N 0.00997 0.21438 0.19619 0.0
C15 C 0.02353 0.16464 0.06649 0.0
C16 C 0.07715 0.1942 0.05851 0.0
C17 C 0.05536 0.18886 0.02688 0.0
C18 C 0.02868 0.1736 0.03118 0.0
C19 C 0.07128 0.18475 0.09326 0.0
N20 N 0.04518 0.16986 0.09694 0.0
H21 H 1.00021 0.15447 0.06973 0.0
H22 H 0.08607 0.19039 0.11774 0.0
H23 H 0.98578 0.19804 0.11273 0.0
H24 H 0.04027 0.18891 0.21686 0.0
O25 O 0.97738 0.1553 0.13706 0.0
O26 O 1.00497 0.15167 0.19302 0.0
O27 O 0.08298 0.16462 0.16833 0.0
C28 C 0.97419 0.15069 0.17266 0.0
H29 H 0.07438 0.09023 0.16364 0.0
H30 H 0.97685 0.23034 0.15466 0.0
H31 H 0.09707 0.20639 0.05712 0.0
H32 H 0.01084 0.16903 0.00781 0.0
Co33 Co 0.54921 0.86572 0.65083 0.0
C34 C 0.54549 0.9051 0.61006 0.0
C35 C 0.51456 0.90404 0.6623 0.0
C36 C 0.51199 0.92278 0.64797 0.0
N37 N 0.53473 0.89268 0.63827 0.0
N38 N 0.53136 0.92351 0.61508 0.0
H39 H 0.56399 0.90117 0.58699 0.0
H40 H 0.50345 0.89915 0.6893 0.0
C41 C 0.46501 0.86557 0.65732 0.0
O42 O 0.46441 0.87373 0.62354 0.0
N43 N 0.5635 0.83937 0.66567 0.0
C44 C 0.58538 0.82642 0.64674 0.0
C45 C 0.59001 0.80985 0.66901 0.0
C46 C 0.55548 0.83073 0.69911 0.0
N47 N 0.57131 0.81265 0.70199 0.0
C48 C 0.55554 0.86049 0.57024 0.0
C49 C 0.50355 0.83001 0.56446 0.0
C50 C 0.52456 0.83537 0.53231 0.0
C51 C 0.55061 0.85095 0.53548 0.0
C52 C 0.50955 0.83986 0.59874 0.0
N53 N 0.53458 0.85531 0.60127 0.0
H54 H 0.57818 0.87111 0.57261 0.0
H55 H 0.49557 0.8342 0.62373 0.0
H56 H 0.59759 0.82898 0.61904 0.0
H57 H 0.53857 0.83768 0.72094 0.0
O58 O 0.60159 0.8717 0.63983 0.0
O59 O 0.57421 0.87579 0.69581 0.0
O60 O 0.49671 0.86105 0.67267 0.0
C61 C 0.60481 0.87688 0.67511 0.0
H62 H 0.49823 0.93516 0.66161 0.0
H63 H 0.60679 0.797 0.66191 0.0
H64 H 0.48419 0.81756 0.56376 0.0
H65 H 0.568 0.85536 0.51159 0.0
Co66 Co 0.02906 0.86686 0.86485 0.0
C67 C 0.03224 0.90525 0.90628 0.0
C68 C 0.06853 0.90439 0.85735 0.0
C69 C 0.07134 0.92276 0.87343 0.0
N70 N 0.04433 0.89336 0.878 0.0
N71 N 0.0486 0.92337 0.90421 0.0
H72 H 0.01181 0.90079 0.92757 0.0
H73 H 0.0824 0.89959 0.83163 0.0
C74 C 0.10186 0.84644 0.84231 0.0
O75 O 0.08927 0.82974 0.85658 0.0
N76 N 0.01385 0.84041 0.84956 0.0
C77 C 0.99473 0.82623 0.8686 0.0
C78 C 0.98926 0.81031 0.84492 0.0
C79 C 0.01874 0.83303 0.81435 0.0
N80 N 1.00451 0.81458 0.81081 0.0
C81 C 0.01374 0.85388 0.94055 0.0
C82 C 0.0878 0.84786 0.9631 0.0
C83 C 0.05825 0.84175 0.98715 0.0
C84 C 0.02086 0.84552 0.97591 0.0
C85 C 0.07933 0.85638 0.92791 0.0
N86 N 0.04258 0.85792 0.91582 0.0
H87 H 0.98459 0.85623 0.9325 0.0
H88 H 0.10251 0.86162 0.91066 0.0
H89 H 0.98474 0.82713 0.89736 0.0
H90 H 0.0324 0.84119 0.79175 0.0
O91 O 0.97653 0.87347 0.8738 0.0
O92 O 0.006 0.87687 0.8188 0.0
O93 O 0.08195 0.86216 0.84442 0.0
C94 C 0.97474 0.87839 0.8383 0.0
H95 H 0.08787 0.93497 0.8624 0.0
H96 H 0.9754 0.79659 0.8525 0.0
H97 H 0.11718 0.84605 0.97135 0.0
H98 H 0.99702 0.84131 0.99359 0.0
Co99 Co 0.54936 0.15969 0.3661 0.0
C100 C 0.54639 0.11997 0.40598 0.0
C101 C 0.52037 0.12042 0.35115 0.0
C102 C 0.51815 0.10156 0.36507 0.0
N103 N 0.53741 0.13216 0.37689 0.0
N104 N 0.53445 0.10122 0.39956 0.0
H105 H 0.56161 0.12437 0.43102 0.0
H106 H 0.5108 0.12523 0.32356 0.0
C107 C 0.46529 0.15688 0.3601 0.0
O108 O 0.46589 0.14738 0.39256 0.0
N109 N 0.56117 0.18667 0.353 0.0
C110 C 0.58153 0.19989 0.37298 0.0
C111 C 0.58538 0.21682 0.35157 0.0
C112 C 0.55322 0.19555 0.31981 0.0
N113 N 0.56766 0.21405 0.31802 0.0
C114 C 0.5583 0.16399 0.44645 0.0
C115 C 0.50229 0.192 0.45639 0.0
C116 C 0.52586 0.18735 0.48703 0.0
C117 C 0.55387 0.17296 0.48181 0.0
C118 C 0.50786 0.18278 0.4214 0.0
N119 N 0.53511 0.16861 0.41679 0.0
H120 H 0.58216 0.15429 0.44244 0.0
H121 H 0.49182 0.1881 0.39749 0.0
H122 H 0.59326 0.1973 0.40082 0.0
H123 H 0.53836 0.18822 0.29698 0.0
O124 O 0.60249 0.15474 0.37508 0.0
O125 O 0.57374 0.15119 0.31971 0.0
O126 O 0.49623 0.16345 0.34579 0.0
C127 C 0.60495 0.15029 0.33936 0.0
H128 H 0.50655 0.08892 0.35029 0.0
H129 H 0.60031 0.23006 0.36013 0.0
H130 H 0.48121 0.20356 0.45872 0.0
H131 H 0.57313 0.16911 0.50452 0.0
Co132 Co 0.53122 0.65822 0.15053 0.0
C133 C 0.53195 0.61886 0.11021 0.0
C134 C 0.56711 0.61988 0.15959 0.0
C135 C 0.56731 0.60094 0.1459 0.0
N136 N 0.54573 0.63138 0.13687 0.0
N137 N 0.54513 0.60026 0.11492 0.0
H138 H 0.51074 0.62266 0.08952 0.0
H139 H 0.58041 0.62472 0.18557 0.0
C140 C 0.61529 0.65863 0.15593 0.0
O141 O 0.61548 0.65092 0.12176 0.0
N142 N 0.51662 0.68439 0.16638 0.0
C143 C 0.49239 0.69674 0.14893 0.0
C144 C 0.48694 0.71299 0.1718 0.0
C145 C 0.52552 0.69315 0.19948 0.0
N146 N 0.50779 0.71069 0.20357 0.0
C147 C 0.52629 0.66368 0.06966 0.0
C148 C 0.57613 0.69521 0.06591 0.0
C149 C 0.55687 0.68949 0.03298 0.0
C150 C 0.53194 0.67335 0.0351 0.0
C151 C 0.56972 0.68511 0.09982 0.0
N152 N 0.54575 0.66919 0.10138 0.0
H153 H 0.50427 0.6527 0.07127 0.0
H154 H 0.58279 0.69077 0.12525 0.0
H155 H 0.479 0.6939 0.12191 0.0
H156 H 0.54336 0.68641 0.22078 0.0
O157 O 0.47892 0.65221 0.13961 0.0
O158 O 0.50669 0.64764 0.19528 0.0
O159 O 0.58373 0.6628 0.172 0.0
C160 C 0.47602 0.64663 0.17474 0.0
H161 H 0.58208 0.58854 0.15831 0.0
H162 H 0.46881 0.72546 0.16562 0.0
H163 H 0.59528 0.70775 0.0658 0.0
H164 H 0.51526 0.66892 0.01078 0.0
Co165 Co 0.0506 0.3659 0.64607 0.0
C166 C 0.04723 0.40547 0.60539 0.0
C167 C 0.02515 0.40563 0.66199 0.0
C168 C 0.02279 0.42441 0.64778 0.0
N169 N 0.03981 0.39356 0.6354 0.0
N170 N 0.0366 0.42436 0.61219 0.0
H171 H 0.06024 0.40077 0.57931 0.0
H172 H 0.01712 0.40105 0.69025 0.0
C173 C 0.96719 0.37002 0.65526 0.0
O174 O 0.96741 0.37996 0.62328 0.0
N175 N 0.06141 0.33883 0.65918 0.0
C176 C 0.08061 0.32532 0.63888 0.0
C177 C 0.08434 0.30848 0.66055 0.0
C178 C 0.05401 0.33021 0.69279 0.0
N179 N 0.06769 0.3116 0.69456 0.0
C180 C 0.05599 0.36126 0.56534 0.0
C181 C 0.99885 0.33345 0.55875 0.0
C182 C 0.02112 0.33779 0.52689 0.0
C183 C 0.0496 0.35217 0.53036 0.0
C184 C 0.00605 0.34295 0.59312 0.0
N185 N 0.03399 0.35695 0.59615 0.0
H186 H 0.08043 0.37076 0.56811 0.0
H187 H 0.99069 0.33798 0.61781 0.0
H188 H 0.09169 0.32766 0.61065 0.0
H189 H 0.04015 0.33779 0.71593 0.0
O190 O 0.10357 0.37021 0.63497 0.0
O191 O 0.077 0.37426 0.69138 0.0
O192 O 0.99802 0.36276 0.66825 0.0
C193 C 0.1075 0.37477 0.67052 0.0
H194 H 0.01268 0.43724 0.66296 0.0
H195 H 0.09848 0.29507 0.65187 0.0
H196 H 0.97687 0.32225 0.55756 0.0
H197 H 0.0684 0.35549 0.50689 0.0
Co198 Co 0.53095 0.36454 0.86575 0.0
C199 C 0.53134 0.4047 0.90382 0.0
C200 C 0.55912 0.40389 0.84981 0.0
C201 C 0.559 0.42305 0.8623 0.0
N202 N 0.54228 0.39221 0.87588 0.0
N203 N 0.54144 0.4236 0.89617 0.0
H204 H 0.51485 0.40053 0.92825 0.0
H205 H 0.56995 0.39883 0.82284 0.0
C206 C 0.61485 0.36787 0.86063 0.0
O207 O 0.61348 0.37796 0.89239 0.0
N208 N 0.51955 0.33744 0.85329 0.0
C209 C 0.49644 0.32493 0.87204 0.0
C210 C 0.49211 0.30805 0.85061 0.0
C211 C 0.52893 0.32814 0.82088 0.0
N212 N 0.51252 0.31013 0.81844 0.0
C213 C 0.52178 0.36093 0.94638 0.0
C214 C 0.57719 0.33266 0.95672 0.0
C215 C 0.55411 0.33777 0.98758 0.0
C216 C 0.52648 0.35237 0.98209 0.0
C217 C 0.57173 0.34169 0.92157 0.0
N218 N 0.54475 0.35596 0.91672 0.0
H219 H 0.49794 0.37059 0.94216 0.0
H220 H 0.58763 0.33616 0.89771 0.0
H221 H 0.48269 0.32814 0.89874 0.0
H222 H 0.54578 0.33488 0.79868 0.0
O223 O 0.47766 0.36938 0.87402 0.0
O224 O 0.50724 0.37262 0.81889 0.0
O225 O 0.58441 0.36078 0.84631 0.0
C226 C 0.47573 0.37358 0.83813 0.0
H227 H 0.57065 0.43565 0.84737 0.0
H228 H 0.47475 0.29539 0.85786 0.0
H229 H 0.5979 0.32093 0.95899 0.0
H230 H 0.50763 0.3567 1.00484 0.0
Co231 Co 0.05283 0.66061 0.36193 0.0
C232 C 0.04754 0.62131 0.40281 0.0
C233 C 0.01425 0.62298 0.35222 0.0
C234 C 0.01086 0.60428 0.36669 0.0
N235 N 0.03631 0.63398 0.37527 0.0
N236 N 0.03173 0.60318 0.39854 0.0
H237 H 0.06772 0.62481 0.42469 0.0
H238 H 1.00245 0.62801 0.32566 0.0
C239 C 0.96875 0.66224 0.35632 0.0
O240 O 0.96785 0.65449 0.39047 0.0
N241 N 0.0693 0.6866 0.34638 0.0
C242 C 0.09307 0.69886 0.36482 0.0
C243 C 0.09932 0.71526 0.34248 0.0
C244 C 0.06171 0.6955 0.3131 0.0
N245 N 0.07966 0.7131 0.30989 0.0
C246 C 0.05865 0.66586 0.44276 0.0
C247 C 0.00975 0.69761 0.44729 0.0
C248 C 0.02871 0.69153 0.48015 0.0
C249 C 0.05331 0.67533 0.47755 0.0
C250 C 0.01585 0.6877 0.41315 0.0
N251 N 0.03919 0.67161 0.41125 0.0
H252 H 0.08024 0.65472 0.44088 0.0
H253 H 1.00314 0.69367 0.38781 0.0
H254 H 0.10553 0.6959 0.39222 0.0
H255 H 0.04362 0.68907 0.29161 0.0
O256 O 0.10479 0.65368 0.37248 0.0
O257 O 0.07626 0.6498 0.31699 0.0
O258 O 1.00065 0.66611 0.34056 0.0
C259 C 0.107 0.64821 0.33723 0.0
H260 H 0.99555 0.59216 0.35376 0.0
H261 H 0.11786 0.72752 0.34928 0.0
H262 H 0.99174 0.71054 0.4474 0.0
H263 H 0.06916 0.67029 0.50195 0.0
H264 H 0.98515 0.93256 0.94483 0.0
H265 H 0.97387 0.96314 0.98063 0.0
H266 H 0.08662 0.98337 0.95276 0.0
H267 H 0.09827 0.95301 0.91779 0.0
H268 H 0.01611 0.9802 0.04272 0.0
H269 H 0.01668 0.02869 0.91635 0.0
H270 H 0.0103 1.00225 0.91334 0.0
H271 H 0.05707 0.01262 0.91856 0.0
C272 C 0.00763 0.94343 0.94671 0.0
C273 C 0.04242 0.94044 0.92793 0.0
C274 C 1.00106 0.96094 0.96694 0.0
C275 C 0.02909 0.97573 0.96849 0.0
C276 C 0.06423 0.97241 0.95102 0.0
H277 H 0.08952 0.06954 0.11331 0.0
H278 H 0.07892 0.03908 0.07829 0.0
C279 C 0.07082 0.95501 0.93101 0.0
C280 C 0.02247 0.99461 0.98873 0.0
H281 H 0.02665 0.04462 0.97632 0.0
C282 C 0.01774 0.99429 0.02817 0.0
C283 C 0.024 0.01299 0.96965 0.0
C284 C 0.02691 0.01423 0.92708 0.0
C285 C 0.01694 1.01187 0.04927 0.0
C286 C 0.02142 0.03021 0.03044 0.0
C287 C 0.02367 0.03056 0.99078 0.0
C288 C 0.0271 0.04892 0.05161 0.0
C289 C 0.01211 1.01066 0.09167 0.0
C290 C 1.00217 0.06492 0.04726 0.0
C291 C 0.00813 0.0825 0.06747 0.0
C292 C 0.03929 0.08439 0.09216 0.0
C293 C 0.0647 0.06848 0.0954 0.0
C294 C 0.05869 0.05099 0.07538 0.0
H295 H 0.99767 0.99674 0.1002 0.0
H296 H 0.04049 1.01092 0.10527 0.0
H297 H 0.99551 0.02337 0.10258 0.0
H298 H 0.97783 0.0637 0.02868 0.0
H299 H 0.98792 0.09439 0.06439 0.0
H300 H 0.59068 0.09387 0.45057 0.0
H301 H 0.59958 0.06343 0.48741 0.0
H302 H 0.49732 0.0392 0.43889 0.0
H303 H 0.48819 0.06937 0.40247 0.0
H304 H 0.5526 0.04512 0.5405 0.0
H305 H 0.57506 0.996 0.41742 0.0
H306 H 0.57757 0.02257 0.41382 0.0
H307 H 0.53231 1.01016 0.41326 0.0
C308 C 0.56999 0.08211 0.448 0.0
C309 C 0.53898 0.08397 0.42317 0.0
C310 C 0.57523 0.06468 0.46886 0.0
C311 C 0.54966 0.04884 0.4651 0.0
C312 C 0.51809 0.05096 0.44133 0.0
H313 H 0.48324 0.95425 0.60791 0.0
H314 H 0.49339 0.98463 0.57228 0.0
C315 C 0.51287 0.06827 0.42056 0.0
C316 C 0.55488 0.03021 0.4867 0.0
H317 H 0.55775 0.98008 0.47595 0.0
C318 C 0.55432 0.03092 0.52641 0.0
C319 C 0.55784 1.01168 0.46835 0.0
C320 C 0.56115 1.01003 0.42586 0.0
C321 C 0.55435 0.01354 0.54817 0.0
C322 C 0.55432 0.99498 0.52969 0.0
C323 C 0.55722 0.99429 0.49009 0.0
C324 C 0.54858 0.97623 0.55085 0.0
C325 C 0.55386 0.01522 0.59077 0.0
C326 C 0.57558 0.96101 0.54947 0.0
C327 C 0.56978 0.94347 0.56991 0.0
C328 C 0.53679 0.94087 0.5919 0.0
C329 C 0.50938 0.95594 0.59209 0.0
C330 C 0.51516 0.97336 0.57175 0.0
H331 H 0.56589 0.02956 0.60031 0.0
H332 H 0.52408 0.01437 0.60094 0.0
H333 H 0.57014 1.00306 0.60415 0.0
H334 H 0.6014 0.96284 0.53314 0.0
H335 H 0.59151 0.93222 0.56924 0.0
H336 H 0.52983 0.59853 0.03973 0.0
H337 H 0.5209 0.56855 1.00154 0.0
H338 H 0.53305 0.53279 0.10185 0.0
H339 H 0.54122 0.56252 0.14001 0.0
H340 H 0.57543 0.5382 0.99556 0.0
H341 H 0.43906 0.50879 0.05079 0.0
H342 H 0.4538 0.5341 0.05776 0.0
H343 H 0.47304 0.5148 0.08689 0.0
C344 C 0.52981 0.58429 0.05367 0.0
C345 C 0.53647 0.5829 0.09283 0.0
C346 C 0.52487 0.56719 0.03185 0.0
C347 C 0.52591 0.54844 0.04893 0.0
C348 C 0.5315 0.54708 0.08815 0.0
H349 H 0.53821 0.4265 0.97281 0.0
H350 H 0.53226 0.45702 0.01 0.0
C351 C 0.53665 0.56411 0.10986 0.0
C352 C 0.52443 0.53023 0.02556 0.0
H353 H 0.47628 0.4868 0.01332 0.0
C354 C 0.55352 0.52705 0.99912 0.0
C355 C 0.49607 0.51562 0.03062 0.0
C356 C 0.46351 0.51852 0.05781 0.0
C357 C 0.55557 0.50947 0.9782 0.0
C358 C 0.52724 0.49481 0.98322 0.0
C359 C 0.49798 0.49803 0.00953 0.0
C360 C 0.52759 0.47616 0.96111 0.0
C361 C 0.58877 0.5065 0.95173 0.0
C362 C 0.52564 0.47672 0.92146 0.0
C363 C 0.52916 0.45941 0.90033 0.0
C364 C 0.5343 0.44108 0.91837 0.0
C365 C 0.53426 0.44038 0.95817 0.0
C366 C 0.53097 0.4578 0.97938 0.0
H367 H 0.61286 0.51646 0.95877 0.0
H368 H 0.59895 0.491 0.95266 0.0
H369 H 0.57974 0.50982 0.92232 0.0
H370 H 0.52199 0.49064 0.90679 0.0
H371 H 0.52812 0.46039 0.86975 0.0
H372 H 0.99047 0.45611 0.61105 0.0
H373 H 0.99783 0.48605 0.57339 0.0
H374 H 0.09746 0.46165 0.52022 0.0
H375 H 0.0902 0.43142 0.55815 0.0
H376 H 0.05917 0.51207 0.57269 0.0
H377 H 0.03314 0.48001 0.42995 0.0
H378 H 0.02146 0.46696 0.47303 0.0
H379 H 0.06992 0.46857 0.45748 0.0
C380 C 0.01402 0.45707 0.59142 0.0
C381 C 0.03986 0.44139 0.58776 0.0
C382 C 0.01814 0.47421 0.56983 0.0
C383 C 0.04811 0.47611 0.54391 0.0
C384 C 0.0738 0.4604 0.53968 0.0
H385 H 0.09382 0.59294 0.44006 0.0
H386 H 0.10281 0.56217 0.47578 0.0
C387 C 0.0696 0.44313 0.56131 0.0
C388 C 0.05223 0.49475 0.52205 0.0
H389 H 0.04533 0.51415 0.43302 0.0
C390 C 0.05654 0.51254 0.5421 0.0
C391 C 0.04858 0.49531 0.48217 0.0
C392 C 0.04273 0.47675 0.45926 0.0
C393 C 0.05619 0.5309 0.52351 0.0
C394 C 0.05195 0.53147 0.4837 0.0
C395 C 0.04876 0.51366 0.46353 0.0
C396 C 0.04717 0.55035 0.46277 0.0
C397 C 0.05855 0.54954 0.54679 0.0
C398 C 0.0131 0.55389 0.4435 0.0
C399 C 0.00795 0.57136 0.42319 0.0
C400 C 0.03682 0.58572 0.42147 0.0
C401 C 0.07087 0.5823 0.4412 0.0
C402 C 0.07606 0.5647 0.46154 0.0
H403 H 0.05441 0.54662 0.57749 0.0
H404 H 0.08697 0.55636 0.54293 0.0
H405 H 0.03693 0.56038 0.53738 0.0
H406 H 0.99032 0.54311 0.44425 0.0
H407 H 0.98118 0.57363 0.40887 0.0
H408 H 0.39521 0.14343 0.38123 0.0
H409 H 0.33574 0.14597 0.3461 0.0
H410 H 0.393 0.17842 0.25772 0.0
H411 H 0.4528 0.1761 0.29283 0.0
H412 H 0.32006 0.19413 0.27987 0.0
H413 H 0.31501 0.1138 0.24842 0.0
H414 H 0.3206 0.11981 0.29767 0.0
H415 H 0.35756 0.12606 0.26462 0.0
C416 C 0.39523 0.1512 0.35442 0.0
C417 C 0.42888 0.15943 0.33971 0.0
C418 C 0.3612 0.15257 0.33432 0.0
C419 C 0.36011 0.16212 0.29909 0.0
C420 C 0.39332 0.1709 0.28481 0.0
H421 H 0.1849 0.14821 0.12949 0.0
H422 H 0.24458 0.15061 0.16422 0.0
C423 C 0.42746 0.16952 0.30488 0.0
C424 C 0.3245 0.16248 0.27678 0.0
H425 H 0.26063 0.13245 0.23229 0.0
C426 C 0.30704 0.18068 0.26935 0.0
C427 C 0.3079 0.14491 0.26276 0.0
C428 C 0.32632 0.12503 0.26841 0.0
C429 C 0.27296 0.18173 0.24876 0.0
C430 C 0.25583 0.16409 0.23564 0.0
C431 C 0.27366 0.14594 0.24262 0.0
C432 C 0.21975 0.16402 0.21398 0.0
C433 C 0.25592 0.2017 0.24068 0.0
C434 C 0.18589 0.17082 0.2304 0.0
C435 C 0.15159 0.1695 0.21054 0.0
C436 C 0.15053 0.16122 0.17401 0.0
C437 C 0.18462 0.15466 0.15755 0.0
C438 C 0.21881 0.15601 0.17737 0.0
H439 H 0.27701 0.21378 0.24432 0.0
H440 H 0.24447 0.20235 0.21142 0.0
H441 H 0.23215 0.20437 0.26067 0.0
H442 H 0.18583 0.17672 0.2589 0.0
H443 H 0.12583 0.17462 0.22411 0.0
H444 H 0.45286 0.86169 0.73358 0.0
H445 H 0.39196 0.85715 0.76602 0.0
H446 H 0.33484 0.85502 0.65801 0.0
H447 H 0.39525 0.86059 0.62573 0.0
H448 H 0.29745 0.87756 0.70235 0.0
H449 H 0.32876 0.80947 0.78287 0.0
H450 H 0.36155 0.82889 0.79402 0.0
H451 H 0.36025 0.81886 0.74676 0.0
C452 C 0.4273 0.86008 0.71683 0.0
C453 C 0.42878 0.86151 0.67714 0.0
C454 C 0.3925 0.85732 0.73538 0.0
C455 C 0.35869 0.85536 0.71453 0.0
C456 C 0.36041 0.85647 0.67482 0.0
H457 H 0.14184 0.81643 0.80949 0.0
H458 H 0.20381 0.81853 0.77808 0.0
C459 C 0.39499 0.85964 0.65636 0.0
C460 C 0.32122 0.8533 0.73384 0.0
H461 H 0.27259 0.82688 0.80076 0.0
C462 C 0.29201 0.86635 0.72366 0.0
C463 C 0.31371 0.83852 0.7613 0.0
C464 C 0.34261 0.82302 0.77158 0.0
C465 C 0.25583 0.86519 0.74023 0.0
C466 C 0.24893 0.8511 0.76913 0.0
C467 C 0.27794 0.83787 0.77902 0.0
C468 C 0.21172 0.84974 0.78907 0.0
C469 C 0.22519 0.87876 0.72567 0.0
C470 C 0.19575 0.86644 0.8064 0.0
C471 C 0.16006 0.86535 0.82362 0.0
C472 C 0.14004 0.84738 0.8249 0.0
C473 C 0.15663 0.83048 0.80893 0.0
C474 C 0.19205 0.83167 0.791 0.0
H475 H 0.23115 0.88364 0.6962 0.0
H476 H 0.19692 0.87147 0.72623 0.0
H477 H 0.22405 0.89216 0.7437 0.0
H478 H 0.21084 0.88039 0.80655 0.0
H479 H 0.14828 0.87856 0.83627 0.0
H480 H 0.95965 0.88417 0.76304 0.0
H481 H 0.89733 0.88901 0.73369 0.0
H482 H 0.84476 0.88863 0.84406 0.0
H483 H 0.90676 0.884 0.87354 0.0
H484 H 0.83779 0.86218 0.74062 0.0
H485 H 0.79364 0.93578 0.7931 0.0
H486 H 0.84233 0.92751 0.79446 0.0
H487 H 0.80904 0.9193 0.82981 0.0
C488 C 0.9349 0.88553 0.78108 0.0
C489 C 0.93812 0.8837 0.8206 0.0
C490 C 0.89932 0.88826 0.76427 0.0
C491 C 0.86644 0.88942 0.78671 0.0
C492 C 0.86978 0.8882 0.82623 0.0
H493 H 0.62383 0.8818 0.7498 0.0
H494 H 0.68775 0.88635 0.77601 0.0
C495 C 0.90526 0.88542 0.84302 0.0
C496 C 0.82835 0.88991 0.76881 0.0
H497 H 0.7451 0.91567 0.76558 0.0
C498 C 0.81768 0.874 0.74569 0.0
C499 C 0.80203 0.90524 0.77582 0.0
C500 C 0.81237 0.92303 0.79937 0.0
C501 C 0.78112 0.87271 0.73016 0.0
C502 C 0.7547 0.88798 0.73727 0.0
C503 C 0.76541 0.904 0.76016 0.0
C504 C 0.71572 0.88732 0.72143 0.0
C505 C 0.77072 0.85467 0.70725 0.0
C506 C 0.71016 0.88703 0.6821 0.0
C507 C 0.67384 0.88436 0.66712 0.0
C508 C 0.64228 0.88211 0.69118 0.0
C509 C 0.6476 0.88346 0.73055 0.0
C510 C 0.68407 0.88605 0.74555 0.0
H511 H 0.79059 0.84224 0.71244 0.0
H512 H 0.74144 0.84963 0.71393 0.0
H513 H 0.77199 0.85838 0.67666 0.0
H514 H 0.73409 0.88841 0.66297 0.0
H515 H 0.67065 0.88358 0.63664 0.0
H516 H 0.62032 0.14425 0.26428 0.0
H517 H 0.68275 0.13968 0.2349 0.0
H518 H 0.73549 0.14193 0.34497 0.0
H519 H 0.67335 0.14632 0.37454 0.0
H520 H 0.74209 0.1671 0.24075 0.0
H521 H 0.78654 0.09397 0.29569 0.0
H522 H 0.73777 0.10213 0.29652 0.0
H523 H 0.77074 0.11085 0.33159 0.0
C524 C 0.64516 0.14344 0.28226 0.0
C525 C 0.64194 0.14566 0.32171 0.0
C526 C 0.68077 0.14084 0.26544 0.0
C527 C 0.71369 0.14022 0.2878 0.0
C528 C 0.71042 0.14195 0.32726 0.0
H529 H 0.95589 0.14674 0.24771 0.0
H530 H 0.89222 0.14279 0.27495 0.0
C531 C 0.67487 0.1446 0.34408 0.0
C532 C 0.75167 0.1396 0.26974 0.0
H533 H 0.83461 0.11363 0.26633 0.0
C534 C 0.76219 0.1553 0.24599 0.0
C535 C 0.77791 0.12429 0.27698 0.0
C536 C 0.76765 0.10675 0.30132 0.0
C537 C 0.79857 0.15637 0.22994 0.0
C538 C 0.8249 0.14109 0.2372 0.0
C539 C 0.81434 0.1253 0.26079 0.0
C540 C 0.86363 0.14149 0.22079 0.0
C541 C 0.80887 0.17419 0.2063 0.0
C542 C 0.86871 0.14142 0.18138 0.0
C543 C 0.90489 0.14377 0.1658 0.0
C544 C 0.93674 0.14602 0.18937 0.0
C545 C 0.93187 0.14507 0.22885 0.0
C546 C 0.89555 0.14281 0.24444 0.0
H547 H 0.78923 0.18672 0.21141 0.0
H548 H 0.8383 0.17918 0.21235 0.0
H549 H 0.80714 0.17024 0.17586 0.0
H550 H 0.84453 0.13999 0.16264 0.0
H551 H 0.90777 0.14424 0.13526 0.0
H552 H 0.95935 0.66997 0.28075 0.0
H553 H 0.8993 0.67243 0.24601 0.0
H554 H 0.83711 0.66401 0.35 0.0
H555 H 0.89679 0.66135 0.38494 0.0
H556 H 0.83931 0.63958 0.25119 0.0
H557 H 0.78959 0.71434 0.29361 0.0
H558 H 0.83924 0.70765 0.29347 0.0
H559 H 0.80847 0.69858 0.33009 0.0
C560 C 0.9329 0.66888 0.2963 0.0
C561 C 0.93281 0.6654 0.33559 0.0
C562 C 0.89868 0.67028 0.27641 0.0
C563 C 0.86392 0.66854 0.29557 0.0
C564 C 0.86371 0.66559 0.33485 0.0
H565 H 0.62632 0.6665 0.23127 0.0
H566 H 0.68704 0.66934 0.26464 0.0
C567 C 0.89784 0.66399 0.3547 0.0
C568 C 0.82784 0.66834 0.27424 0.0
H569 H 0.74691 0.69463 0.2583 0.0
C570 C 0.81915 0.65165 0.25244 0.0
C571 C 0.80158 0.68401 0.27654 0.0
C572 C 0.81003 0.70226 0.29949 0.0
C573 C 0.78444 0.65004 0.23324 0.0
C574 C 0.75824 0.66585 0.23499 0.0
C575 C 0.76704 0.68257 0.25685 0.0
C576 C 0.72151 0.66519 0.21447 0.0
C577 C 0.77575 0.63112 0.21231 0.0
C578 C 0.72071 0.66244 0.17509 0.0
C579 C 0.68616 0.66058 0.15608 0.0
C580 C 0.65164 0.6618 0.17597 0.0
C581 C 0.65243 0.66542 0.21518 0.0
C582 C 0.68709 0.66706 0.23427 0.0
H583 H 0.79313 0.61864 0.22296 0.0
H584 H 0.7453 0.62707 0.21497 0.0
H585 H 0.78243 0.63312 0.18183 0.0
H586 H 0.74687 0.66154 0.15905 0.0
H587 H 0.68654 0.65809 0.12578 0.0
H588 H 0.90382 0.39267 0.65002 0.0
H589 H 0.84499 0.38952 0.68611 0.0
H590 H 0.88955 0.3381 0.74281 0.0
H591 H 0.94936 0.3418 0.70799 0.0
H592 H 0.79306 0.36229 0.68886 0.0
H593 H 0.8558 0.36913 0.8322 0.0
H594 H 0.88288 0.3737 0.78974 0.0
H595 H 0.87476 0.3488 0.80582 0.0
C596 C 0.90114 0.38072 0.67026 0.0
C597 C 0.93126 0.36757 0.6764 0.0
C598 C 0.86746 0.37891 0.69087 0.0
C599 C 0.86296 0.36378 0.71774 0.0
C600 C 0.89268 0.35026 0.72314 0.0
H601 H 0.63406 0.34003 0.80782 0.0
H602 H 0.69448 0.33697 0.77389 0.0
C603 C 0.92675 0.3523 0.70303 0.0
C604 C 0.82694 0.36224 0.7396 0.0
H605 H 0.79042 0.36118 0.82924 0.0
C606 C 0.79249 0.36206 0.71958 0.0
C607 C 0.82613 0.36215 0.77971 0.0
C608 C 0.86183 0.36366 0.80315 0.0
C609 C 0.75736 0.36216 0.7384 0.0
C610 C 0.75655 0.3616 0.7785 0.0
C611 C 0.791 0.36143 0.79852 0.0
C612 C 0.72046 0.3625 0.80036 0.0
C613 C 0.72163 0.36374 0.71503 0.0
C614 C 0.7155 0.37726 0.82783 0.0
C615 C 0.68146 0.37869 0.84794 0.0
C616 C 0.65146 0.36553 0.84068 0.0
C617 C 0.65657 0.35053 0.81366 0.0
C618 C 0.69098 0.34887 0.79405 0.0
H619 H 0.72757 0.3697 0.68628 0.0
H620 H 0.70897 0.34884 0.71156 0.0
H621 H 0.70041 0.37343 0.72895 0.0
H622 H 0.73779 0.38794 0.83332 0.0
H623 H 0.67835 0.39044 0.86851 0.0
H624 H 0.40631 0.37649 0.87187 0.0
H625 H 0.34477 0.38068 0.84095 0.0
H626 H 0.40041 0.38489 0.73238 0.0
H627 H 0.46218 0.38052 0.76304 0.0
H628 H 0.31589 0.41114 0.79204 0.0
H629 H 0.32568 0.33796 0.72124 0.0
H630 H 0.35641 0.34501 0.75983 0.0
H631 H 0.36491 0.35444 0.71301 0.0
C632 C 0.40551 0.37847 0.84144 0.0
C633 C 0.43905 0.37799 0.81982 0.0
C634 C 0.37034 0.38091 0.82386 0.0
C635 C 0.36807 0.38281 0.78438 0.0
C636 C 0.40159 0.38314 0.76285 0.0
H637 H 0.17444 0.37876 0.63249 0.0
H638 H 0.23778 0.38317 0.6594 0.0
C639 C 0.43682 0.38072 0.78042 0.0
C640 C 0.33049 0.38351 0.76575 0.0
H641 H 0.27185 0.35721 0.70767 0.0
C642 C 0.30622 0.39941 0.77348 0.0
C643 C 0.31803 0.36813 0.74167 0.0
C644 C 0.3424 0.35031 0.73358 0.0
C645 C 0.26978 0.40041 0.75747 0.0
C646 C 0.25717 0.3849 0.73374 0.0
C647 C 0.28164 0.36911 0.72577 0.0
C648 C 0.21838 0.38433 0.71753 0.0
C649 C 0.24533 0.41814 0.76572 0.0
C650 C 0.1864 0.38367 0.74128 0.0
C651 C 0.15009 0.38122 0.72596 0.0
C652 C 0.14526 0.37918 0.68665 0.0
C653 C 0.17725 0.38026 0.6629 0.0
C654 C 0.21346 0.38279 0.67821 0.0
H655 H 0.26264 0.43102 0.7749 0.0
H656 H 0.22849 0.42245 0.74048 0.0
H657 H 0.2253 0.41447 0.78898 0.0
H658 H 0.1896 0.38438 0.77175 0.0
H659 H 0.126 0.38031 0.74498 0.0
H660 H 0.12232 0.64034 0.26284 0.0
H661 H 0.18462 0.63439 0.23423 0.0
H662 H 0.23663 0.63715 0.34461 0.0
H663 H 0.17455 0.64293 0.37344 0.0
H664 H 0.24414 0.66165 0.24009 0.0
H665 H 0.28751 0.58868 0.29669 0.0
H666 H 0.23879 0.59696 0.29693 0.0
H667 H 0.27153 0.60581 0.33208 0.0
C668 C 0.14692 0.63927 0.2811 0.0
C669 C 0.14357 0.64215 0.32038 0.0
C670 C 0.18247 0.63588 0.26471 0.0
C671 C 0.21517 0.63512 0.28735 0.0
C672 C 0.21169 0.63729 0.32671 0.0
H673 H 0.45735 0.64187 0.24949 0.0
H674 H 0.39356 0.63725 0.27604 0.0
C675 C 0.1762 0.64073 0.3431 0.0
C676 C 0.25323 0.63424 0.26954 0.0
H677 H 0.33597 0.60807 0.2672 0.0
C678 C 0.26407 0.64982 0.24564 0.0
C679 C 0.27927 0.6189 0.27725 0.0
C680 C 0.26867 0.60154 0.30188 0.0
C681 C 0.30057 0.65075 0.22988 0.0
C682 C 0.3267 0.63542 0.23755 0.0
C683 C 0.31583 0.61975 0.26129 0.0
C684 C 0.36561 0.63576 0.22157 0.0
C685 C 0.31123 0.66848 0.20616 0.0
C686 C 0.3711 0.63573 0.18222 0.0
C687 C 0.40734 0.63849 0.16704 0.0
C688 C 0.43882 0.6411 0.19096 0.0
C689 C 0.43361 0.63993 0.23038 0.0
C690 C 0.39722 0.6373 0.24557 0.0
H691 H 0.29162 0.68106 0.21094 0.0
H692 H 0.34062 0.67345 0.21246 0.0
H693 H 0.30978 0.66445 0.17574 0.0
H694 H 0.34717 0.63414 0.16323 0.0
H695 H 0.41051 0.63911 0.13654 0.0
H696 H 0.11402 0.28028 0.70852 0.0
H697 H 0.11256 0.25838 0.76348 0.0
H698 H 0.01827 0.29094 0.80951 0.0
H699 H 0.0188 0.31266 0.7543 0.0
H700 H 0.08105 0.28371 0.86136 0.0
H701 H 0.03006 0.21575 0.78884 0.0
H702 H 0.0698 0.22815 0.76722 0.0
H703 H 0.02442 0.2401 0.76873 0.0
C704 C 0.09255 0.28268 0.72993 0.0
C705 C 0.06649 0.29833 0.72671 0.0
C706 C 0.09186 0.27014 0.76145 0.0
C707 C 0.06515 0.27296 0.79041 0.0
C708 C 0.03915 0.28852 0.78745 0.0
H709 H 0.99763 0.19958 0.979 0.0
H710 H 1.00175 0.21935 0.92133 0.0
C711 C 0.03966 0.30101 0.75587 0.0
C712 C 0.06478 0.25996 0.82425 0.0
H713 H 0.04748 0.21263 0.85325 0.0
C714 C 0.07379 0.26816 0.85963 0.0
C715 C 0.05502 0.23972 0.82187 0.0
C716 C 0.04397 0.23035 0.78473 0.0
C717 C 0.07354 0.25662 0.89271 0.0
C718 C 0.06423 0.23633 0.89027 0.0
C719 C 0.05494 0.22815 0.85494 0.0
C720 C 0.06251 0.22356 0.92438 0.0
C721 C 0.08248 0.26626 0.93018 0.0
C722 C 0.09547 0.21906 0.94488 0.0
C723 C 0.09335 0.2075 0.97773 0.0
C724 C 0.05817 0.20022 0.99073 0.0
C725 C 0.02532 0.20456 0.96962 0.0
C726 C 0.02753 0.21601 0.93672 0.0
H727 H 0.08217 0.28264 0.92821 0.0
H728 H 0.06177 0.26155 0.95216 0.0
H729 H 0.11114 0.26162 0.93958 0.0
H730 H 0.12284 0.22453 0.93551 0.0
H731 H 0.11929 0.20425 0.99289 0.0
H732 H 0.58239 0.82245 0.48695 0.0
H733 H 0.57786 0.80194 0.43002 0.0
H734 H 0.45602 0.80078 0.44064 0.0
H735 H 0.46017 0.82146 0.49763 0.0
H736 H 0.52664 0.76096 0.43047 0.0
H737 H 0.49524 0.81989 0.32484 0.0
H738 H 0.52372 0.82486 0.36632 0.0
H739 H 0.47373 0.82074 0.37125 0.0
C740 C 0.55456 0.81811 0.4769 0.0
C741 C 0.52159 0.82368 0.49673 0.0
C742 C 0.55209 0.80628 0.44453 0.0
C743 C 0.51664 0.79995 0.43121 0.0
C744 C 0.48362 0.8056 0.45055 0.0
H745 H 0.4522 0.73505 0.22865 0.0
H746 H 0.45411 0.75643 0.28443 0.0
C747 C 0.48606 0.81734 0.48312 0.0
C748 C 0.51435 0.78692 0.39766 0.0
H749 H 0.49959 0.78729 0.30216 0.0
C750 C 0.52071 0.76665 0.40237 0.0
C751 C 0.50632 0.79445 0.36129 0.0
C752 C 0.49937 0.81618 0.35521 0.0
C753 C 0.51913 0.75361 0.37146 0.0
C754 C 0.51198 0.76117 0.33473 0.0
C755 C 0.50525 0.78149 0.33022 0.0
C756 C 0.51117 0.74826 0.30066 0.0
C757 C 0.5243 0.73181 0.37865 0.0
C758 C 0.54281 0.73677 0.29078 0.0
C759 C 0.54171 0.72447 0.25898 0.0
C760 C 0.50915 0.72363 0.23602 0.0
C761 C 0.47782 0.73548 0.2455 0.0
C762 C 0.47882 0.74766 0.27749 0.0
H763 H 0.51824 0.72792 0.40864 0.0
H764 H 0.50553 0.72285 0.36012 0.0
H765 H 0.55418 0.72773 0.37261 0.0
H766 H 0.56849 0.7374 0.30756 0.0
H767 H 0.56654 0.7158 0.25206 0.0
H768 H 0.10988 0.8122 0.99879 0.0
H769 H 0.11634 0.79114 0.05483 0.0
H770 H 0.02985 0.82485 0.11191 0.0
H771 H 0.02331 0.84601 0.05615 0.0
H772 H 0.1329 0.79889 0.13165 0.0
H773 H 0.98778 0.76817 0.11373 0.0
H774 H 0.01137 0.78227 0.0772 0.0
H775 H 0.98958 0.79463 0.11665 0.0
C776 C 0.09274 0.81538 0.02352 0.0
C777 C 0.06578 0.83067 0.02281 0.0
C778 C 0.09632 0.80325 0.05545 0.0
C779 C 0.07299 0.80616 0.08722 0.0
C780 C 0.04748 0.82204 0.08736 0.0
H781 H 0.09266 0.75265 0.31061 0.0
H782 H 0.09251 0.77512 0.25642 0.0
C783 C 0.04382 0.83413 0.05547 0.0
C784 C 0.07438 0.79221 0.11968 0.0
H785 H 0.02047 0.75928 0.16981 0.0
C786 C 0.10837 0.79021 0.14001 0.0
C787 C 0.0425 0.78064 0.13014 0.0
C788 C 0.00582 0.78134 0.10812 0.0
C789 C 0.11111 0.77722 0.17099 0.0
C790 C 0.07883 0.76615 0.18221 0.0
C791 C 0.04507 0.7679 0.16143 0.0
C792 C 0.0795 0.75248 0.21517 0.0
C793 C 0.14871 0.77521 0.19101 0.0
C794 C 0.07134 0.73235 0.21022 0.0
C795 C 0.07131 0.71945 0.2412 0.0
C796 C 0.07927 0.72644 0.2779 0.0
C797 C 0.08709 0.74668 0.28275 0.0
C798 C 0.08706 0.75956 0.25175 0.0
H799 H 0.17263 0.78055 0.17315 0.0
H800 H 0.14823 0.78419 0.21728 0.0
H801 H 0.15413 0.75961 0.19901 0.0
H802 H 0.06529 0.72657 0.18225 0.0
H803 H 0.0656 0.70397 0.23622 0.0
H804 H 0.45733 0.2849 0.79527 0.0
H805 H 0.45919 0.26293 0.74015 0.0
H806 H 0.57229 0.2832 0.71401 0.0
H807 H 0.57074 0.30519 0.76918 0.0
H808 H 0.48092 0.27815 0.6576 0.0
H809 H 0.56993 0.21855 0.71985 0.0
H810 H 0.54023 0.23423 0.74877 0.0
H811 H 0.58307 0.2439 0.72848 0.0
C812 C 0.48277 0.28452 0.77808 0.0
C813 C 0.51395 0.29676 0.78666 0.0
C814 C 0.48367 0.27206 0.74649 0.0
C815 C 0.51592 0.27143 0.72322 0.0
C816 C 0.54721 0.28346 0.73179 0.0
H817 H 0.58434 0.20269 0.52856 0.0
H818 H 0.58057 0.22283 0.58583 0.0
C819 C 0.5462 0.29607 0.76316 0.0
C820 C 0.51655 0.2585 0.68944 0.0
H821 H 0.55301 0.21533 0.65559 0.0
C822 C 0.49651 0.26436 0.65707 0.0
C823 C 0.53716 0.24066 0.68896 0.0
C824 C 0.55879 0.23377 0.72333 0.0
C825 C 0.49707 0.25296 0.62382 0.0
C826 C 0.51738 0.23493 0.62337 0.0
C827 C 0.53732 0.22908 0.65595 0.0
C828 C 0.51923 0.22219 0.58911 0.0
C829 C 0.47694 0.2607 0.58916 0.0
C830 C 0.48604 0.21477 0.57219 0.0
C831 C 0.48811 0.20329 0.53929 0.0
C832 C 0.52347 0.19871 0.52302 0.0
C833 C 0.55668 0.20573 0.54062 0.0
C834 C 0.55457 0.21733 0.57328 0.0
H835 H 0.47217 0.27689 0.59092 0.0
H836 H 0.49336 0.25752 0.56301 0.0
H837 H 0.4488 0.25342 0.58676 0.0
H838 H 0.45849 0.21787 0.58443 0.0
H839 H 0.46206 0.19791 0.52665 0.0
H840 H 0.57696 0.77268 0.70139 0.0
H841 H 0.57407 0.75047 0.75611 0.0
H842 H 0.55992 0.80052 0.8302 0.0
H843 H 0.56272 0.82273 0.77582 0.0
H844 H 0.6199 0.74859 0.81936 0.0
H845 H 0.47177 0.76527 0.86128 0.0
H846 H 0.49118 0.77246 0.81597 0.0
H847 H 0.50102 0.78692 0.85758 0.0
C848 C 0.57333 0.77896 0.72933 0.0
C849 C 0.56972 0.79949 0.73414 0.0
C850 C 0.57155 0.76624 0.76056 0.0
C851 C 0.56605 0.7738 0.79717 0.0
C852 C 0.56312 0.7943 0.80212 0.0
H853 H 0.55858 0.72968 0.02576 0.0
H854 H 0.56211 0.74912 0.96753 0.0
C855 C 0.56473 0.807 0.77096 0.0
C856 C 0.56424 0.76035 0.83036 0.0
H857 H 0.509 0.74748 0.9061 0.0
C858 C 0.59552 0.74819 0.83814 0.0
C859 C 0.53234 0.75981 0.85478 0.0
C860 C 0.49702 0.77166 0.84684 0.0
C861 C 0.59627 0.73601 0.87038 0.0
C862 C 0.56473 0.73584 0.89519 0.0
C863 C 0.53322 0.74773 0.88709 0.0
C864 C 0.56415 0.7238 0.93029 0.0
C865 C 0.6312 0.72386 0.87829 0.0
C866 C 0.56403 0.70309 0.92863 0.0
C867 C 0.56214 0.6919 0.96194 0.0
C868 C 0.56038 0.70124 0.9975 0.0
C869 C 0.56062 0.722 0.99894 0.0
C870 C 0.56235 0.73315 0.96567 0.0
H871 H 0.65579 0.72863 0.86077 0.0
H872 H 0.63917 0.72486 0.90866 0.0
H873 H 0.62512 0.70814 0.87179 0.0
H874 H 0.56486 0.69559 0.90156 0.0
H875 H 0.56208 0.67594 0.95988 0.0
H876 H 0.01132 0.29791 0.51989 0.0
H877 H 0.008 0.27845 0.46177 0.0
H878 H 0.01861 0.33164 0.39531 0.0
H879 H 0.02235 0.35125 0.45354 0.0
H880 H 0.95807 0.279 0.40318 0.0
H881 H 0.10253 0.29796 0.35136 0.0
H882 H 0.08687 0.30358 0.39881 0.0
H883 H 0.07281 0.31899 0.35979 0.0
C884 C 0.01255 0.30552 0.49292 0.0
C885 C 0.0171 0.32615 0.49136 0.0
C886 C 0.01085 0.29435 0.45969 0.0
C887 C 0.01371 0.30352 0.42414 0.0
C888 C 0.01732 0.32417 0.42241 0.0
H889 H 0.00743 0.25441 0.19512 0.0
H890 H 0.00697 0.27663 0.24996 0.0
C891 C 0.01928 0.33537 0.45569 0.0
C892 C 0.01269 0.29136 0.38909 0.0
H893 H 0.06384 0.27899 0.31025 0.0
C894 C 0.98122 0.279 0.38289 0.0
C895 C 0.04294 0.29134 0.36259 0.0
C896 C 0.07837 0.30353 0.36853 0.0
C897 C 0.97911 0.26669 0.35095 0.0
C898 C 0.0094 0.26661 0.32464 0.0
C899 C 0.04063 0.27914 0.33047 0.0
C900 C 0.00964 0.25318 0.29147 0.0
C901 C 0.94437 0.25394 0.3454 0.0
C902 C 0.01177 0.23268 0.29667 0.0
C903 C 0.01211 0.21998 0.26546 0.0
C904 C 0.01029 0.22753 0.22837 0.0
C905 C 0.00842 0.24812 0.22328 0.0
C906 C 0.00834 0.26083 0.25455 0.0
H907 H 0.92017 0.25897 0.36312 0.0
H908 H 0.93547 0.25392 0.31524 0.0
H909 H 0.95114 0.23852 0.35354 0.0
H910 H 0.01325 0.2265 0.32493 0.0
H911 H 0.01318 0.20423 0.27045 0.0
H912 H 0.61812 0.32402 0.02341 0.0
H913 H 0.62149 0.30377 0.08081 0.0
H914 H 0.49982 0.30642 0.09219 0.0
H915 H 0.49589 0.32611 0.03439 0.0
H916 H 0.5453 0.31391 0.16184 0.0
H917 H 0.58219 0.24469 0.08535 0.0
H918 H 0.61 0.26627 0.07423 0.0
H919 H 0.56062 0.26556 0.06195 0.0
C920 C 0.59202 0.32024 0.03798 0.0
C921 C 0.55672 0.32673 0.02408 0.0
C922 C 0.59405 0.30872 0.07084 0.0
C923 C 0.56088 0.3035 0.09051 0.0
C924 C 0.52575 0.31034 0.07741 0.0
H925 H 0.51764 0.2135 0.25927 0.0
H926 H 0.51655 0.2356 0.20464 0.0
C927 C 0.52364 0.32174 0.04446 0.0
C928 C 0.56258 0.29056 0.12432 0.0
H929 H 0.58021 0.24314 0.15212 0.0
C930 C 0.55305 0.29846 0.15981 0.0
C931 C 0.5723 0.27037 0.1214 0.0
C932 C 0.58164 0.26107 0.08371 0.0
C933 C 0.55332 0.28668 0.19261 0.0
C934 C 0.56343 0.26655 0.18974 0.0
C935 C 0.57266 0.25862 0.1542 0.0
C936 C 0.56406 0.25336 0.22326 0.0
C937 C 0.54216 0.29573 0.23002 0.0
C938 C 0.59132 0.25595 0.25173 0.0
C939 C 0.59238 0.24319 0.28289 0.0
C940 C 0.56611 0.22754 0.28625 0.0
C941 C 0.53869 0.22513 0.25759 0.0
C942 C 0.53784 0.23783 0.22635 0.0
H943 H 0.5285 0.31037 0.22638 0.0
H944 H 0.52237 0.28583 0.24558 0.0
H945 H 0.5679 0.29771 0.24773 0.0
H946 H 0.61216 0.2677 0.24958 0.0
H947 H 0.61428 0.24541 0.30388 0.0
H948 H 0.96446 0.70831 0.51004 0.0
H949 H 0.95928 0.72889 0.56679 0.0
H950 H 0.07867 0.72112 0.58848 0.0
H951 H 0.08439 0.70088 0.53147 0.0
H952 H 0.02981 0.71617 0.65357 0.0
H953 H 1.00293 0.78597 0.57517 0.0
H954 H 0.97253 0.76555 0.56309 0.0
H955 H 0.02236 0.76428 0.55267 0.0
C956 C 0.98969 0.71105 0.52675 0.0
C957 C 0.02488 0.70296 0.51603 0.0
C958 C 0.98664 0.72279 0.55919 0.0
C959 C 0.01869 0.7267 0.58154 0.0
C960 C 0.05361 0.71827 0.57157 0.0
H961 H 0.05484 0.81653 0.75244 0.0
H962 H 0.05758 0.79501 0.69701 0.0
C963 C 0.05674 0.70659 0.53907 0.0
C964 C 0.01597 0.73975 0.61515 0.0
H965 H 0.99881 0.78736 0.64201 0.0
C966 C 0.02298 0.73173 0.65111 0.0
C967 C 0.00751 0.76008 0.61172 0.0
C968 C 1.00118 0.7696 0.57361 0.0
C969 C 0.02131 0.74348 0.68386 0.0
C970 C 0.01213 0.76372 0.68049 0.0
C971 C 0.00555 0.77179 0.64449 0.0
C972 C 0.0099 0.77687 0.71399 0.0
C973 C 0.03001 0.73425 0.72175 0.0
C974 C 0.98183 0.77396 0.74166 0.0
C975 C 0.97991 0.78637 0.77327 0.0
C976 C 0.00602 0.80197 0.77782 0.0
C977 C 0.03392 0.8049 0.74975 0.0
C978 C 0.03571 0.79252 0.7181 0.0
H979 H 0.04432 0.71974 0.71869 0.0
H980 H 0.04836 0.74414 0.73893 0.0
H981 H 1.00311 0.7319 0.73754 0.0
H982 H 0.96123 0.76216 0.73867 0.0
H983 H 0.95768 0.78384 0.79388 0.0
loop_
_geom_bond_atom_site_label_1
_geom_bond_atom_site_label_2
_geom_bond_distance
_geom_bond_site_symmetry_2
_ccdc_geom_bond_type
Co0 N4 2.148 . S
Co0 N10 2.128 . S
Co0 N20 2.194 . S
Co0 O25 2.351 1_455 S
Co0 O26 2.155 1_455 S
Co0 O27 2.096 . S
C1 N4 1.301 . S
C1 N5 1.328 . S
C1 H6 0.930 1_455 S
C2 C3 1.333 . S
C2 N4 1.317 . S
C2 H7 0.930 . S
C3 C2 1.333 . S
C3 N5 1.350 . S
C3 H29 0.931 . S
N4 Co0 2.148 . S
N4 C1 1.301 . S
N4 C2 1.317 . S
N5 C1 1.328 . S
N5 C3 1.350 . S
H6 C1 0.930 1_655 S
H7 C2 0.930 . S
C8 O9 1.224 . S
C8 O27 1.247 . S
O9 C8 1.224 . S
N10 Co0 2.128 . S
N10 C11 1.355 1_455 S
N10 C13 1.311 . S
C11 N10 1.355 1_655 S
C11 C12 1.363 1_655 S
C11 H23 0.929 . S
C12 C11 1.363 1_455 S
C12 N14 1.375 . S
C12 H30 0.931 1_455 S
C13 N10 1.311 . S
C13 N14 1.347 . S
C13 H24 0.929 . S
N14 C12 1.375 . S
N14 C13 1.347 . S
C15 C18 1.365 . S
C15 N20 1.328 1_655 S
C15 H21 0.929 . S
C16 C17 1.362 . S
C16 C19 1.378 . S
C16 H31 0.929 . S
C17 C16 1.362 . S
C17 C18 1.366 1_455 S
C18 C15 1.365 . S
C18 C17 1.366 1_655 S
C18 H32 0.930 . S
C19 C16 1.378 . S
C19 N20 1.315 . S
C19 H22 0.930 . S
N20 Co0 2.194 . S
N20 C15 1.328 1_455 S
N20 C19 1.315 . S
H21 C15 0.929 . S
H22 C19 0.930 . S
H23 C11 0.929 . S
H24 C13 0.929 . S
O25 Co0 2.351 1_655 S
O25 C28 1.244 . S
O26 Co0 2.155 1_655 S
O26 C28 1.240 . S
O27 Co0 2.096 . S
O27 C8 1.247 . S
C28 O25 1.244 . S
C28 O26 1.240 . S
H29 C3 0.931 . S
H30 C12 0.931 1_655 S
H31 C16 0.929 . S
H32 C18 0.930 . S
Co33 N37 2.148 . S
Co33 N43 2.128 . S
Co33 N53 2.194 . S
Co33 O58 2.351 . S
Co33 O59 2.155 . S
Co33 O60 2.096 . S
C34 N37 1.301 . S
C34 N38 1.328 . S
C34 H39 0.930 . S
C35 C36 1.333 . S
C35 N37 1.317 . S
C35 H40 0.930 . S
C36 C35 1.333 . S
C36 N38 1.350 . S
C36 H62 0.931 . S
N37 Co33 2.148 . S
N37 C34 1.301 . S
N37 C35 1.317 . S
N38 C34 1.328 . S
N38 C36 1.350 . S
H39 C34 0.930 . S
H40 C35 0.930 . S
C41 O42 1.224 . S
C41 O60 1.247 . S
O42 C41 1.224 . S
N43 Co33 2.128 . S
N43 C44 1.355 . S
N43 C46 1.311 . S
C44 N43 1.355 . S
C44 C45 1.363 . S
C44 H56 0.929 . S
C45 C44 1.363 . S
C45 N47 1.375 . S
C45 H63 0.931 . S
C46 N43 1.311 . S
C46 N47 1.347 . S
C46 H57 0.929 . S
N47 C45 1.375 . S
N47 C46 1.347 . S
C48 C51 1.365 . S
C48 N53 1.328 . S
C48 H54 0.929 . S
C49 C50 1.362 . S
C49 C52 1.378 . S
C49 H64 0.929 . S
C50 C49 1.362 . S
C50 C51 1.366 . S
C51 C48 1.365 . S
C51 C50 1.366 . S
C51 H65 0.930 . S
C52 C49 1.378 . S
C52 N53 1.315 . S
C52 H55 0.930 . S
N53 Co33 2.194 . S
N53 C48 1.328 . S
N53 C52 1.315 . S
H54 C48 0.929 . S
H55 C52 0.930 . S
H56 C44 0.929 . S
H57 C46 0.929 . S
O58 Co33 2.351 . S
O58 C61 1.244 . S
O59 Co33 2.155 . S
O59 C61 1.240 . S
O60 Co33 2.096 . S
O60 C41 1.247 . S
C61 O58 1.244 . S
C61 O59 1.240 . S
H62 C36 0.931 . S
H63 C45 0.931 . S
H64 C49 0.929 . S
H65 C51 0.930 . S
Co66 N70 2.148 . S
Co66 N76 2.128 . S
Co66 N86 2.194 . S
Co66 O91 2.351 1_455 S
Co66 O92 2.155 1_455 S
Co66 O93 2.096 . S
C67 N70 1.301 . S
C67 N71 1.328 . S
C67 H72 0.930 1_455 S
C68 C69 1.333 . S
C68 N70 1.317 . S
C68 H73 0.930 . S
C69 C68 1.333 . S
C69 N71 1.350 . S
C69 H95 0.931 . S
N70 Co66 2.148 . S
N70 C67 1.301 . S
N70 C68 1.317 . S
N71 C67 1.328 . S
N71 C69 1.350 . S
H72 C67 0.930 1_655 S
H73 C68 0.930 . S
C74 O75 1.224 . S
C74 O93 1.247 . S
O75 C74 1.224 . S
N76 Co66 2.128 . S
N76 C77 1.355 1_455 S
N76 C79 1.311 . S
C77 N76 1.355 1_655 S
C77 C78 1.363 1_655 S
C77 H89 0.929 . S
C78 C77 1.363 1_455 S
C78 N80 1.375 . S
C78 H96 0.931 1_455 S
C79 N76 1.311 . S
C79 N80 1.347 . S
C79 H90 0.929 . S
N80 C78 1.375 . S
N80 C79 1.347 . S
C81 C84 1.365 . S
C81 N86 1.328 1_655 S
C81 H87 0.929 . S
C82 C83 1.362 . S
C82 C85 1.378 . S
C82 H97 0.929 . S
C83 C82 1.362 . S
C83 C84 1.366 1_455 S
C84 C81 1.365 . S
C84 C83 1.366 1_655 S
C84 H98 0.930 . S
C85 C82 1.378 . S
C85 N86 1.315 . S
C85 H88 0.930 . S
N86 Co66 2.194 . S
N86 C81 1.328 1_455 S
N86 C85 1.315 . S
H87 C81 0.929 . S
H88 C85 0.930 . S
H89 C77 0.929 . S
H90 C79 0.929 . S
O91 Co66 2.351 1_655 S
O91 C94 1.244 . S
O92 Co66 2.155 1_655 S
O92 C94 1.240 . S
O93 Co66 2.096 . S
O93 C74 1.247 . S
C94 O91 1.244 . S
C94 O92 1.240 . S
H95 C69 0.931 . S
H96 C78 0.931 1_655 S
H97 C82 0.929 . S
H98 C84 0.930 . S
Co99 N103 2.148 . S
Co99 N109 2.128 . S
Co99 N119 2.194 . S
Co99 O124 2.351 . S
Co99 O125 2.155 . S
Co99 O126 2.096 . S
C100 N103 1.301 . S
C100 N104 1.328 . S
C100 H105 0.930 . S
C101 C102 1.333 . S
C101 N103 1.317 . S
C101 H106 0.930 . S
C102 C101 1.333 . S
C102 N104 1.350 . S
C102 H128 0.931 . S
N103 Co99 2.148 . S
N103 C100 1.301 . S
N103 C101 1.317 . S
N104 C100 1.328 . S
N104 C102 1.350 . S
H105 C100 0.930 . S
H106 C101 0.930 . S
C107 O108 1.224 . S
C107 O126 1.247 . S
O108 C107 1.224 . S
N109 Co99 2.128 . S
N109 C110 1.355 . S
N109 C112 1.311 . S
C110 N109 1.355 . S
C110 C111 1.363 . S
C110 H122 0.929 . S
C111 C110 1.363 . S
C111 N113 1.375 . S
C111 H129 0.931 . S
C112 N109 1.311 . S
C112 N113 1.347 . S
C112 H123 0.929 . S
N113 C111 1.375 . S
N113 C112 1.347 . S
C114 C117 1.365 . S
C114 N119 1.328 . S
C114 H120 0.929 . S
C115 C116 1.362 . S
C115 C118 1.378 . S
C115 H130 0.929 . S
C116 C115 1.362 . S
C116 C117 1.366 . S
C117 C114 1.365 . S
C117 C116 1.366 . S
C117 H131 0.930 . S
C118 C115 1.378 . S
C118 N119 1.315 . S
C118 H121 0.930 . S
N119 Co99 2.194 . S
N119 C114 1.328 . S
N119 C118 1.315 . S
H120 C114 0.929 . S
H121 C118 0.930 . S
H122 C110 0.929 . S
H123 C112 0.929 . S
O124 Co99 2.351 . S
O124 C127 1.244 . S
O125 Co99 2.155 . S
O125 C127 1.240 . S
O126 Co99 2.096 . S
O126 C107 1.247 . S
C127 O124 1.244 . S
C127 O125 1.240 . S
H128 C102 0.931 . S
H129 C111 0.931 . S
H130 C115 0.929 . S
H131 C117 0.930 . S
Co132 N136 2.148 . S
Co132 N142 2.128 . S
Co132 N152 2.194 . S
Co132 O157 2.351 . S
Co132 O158 2.155 . S
Co132 O159 2.096 . S
C133 N136 1.301 . S
C133 N137 1.328 . S
C133 H138 0.930 . S
C134 C135 1.333 . S
C134 N136 1.317 . S
C134 H139 0.930 . S
C135 C134 1.333 . S
C135 N137 1.350 . S
C135 H161 0.931 . S
N136 Co132 2.148 . S
N136 C133 1.301 . S
N136 C134 1.317 . S
N137 C133 1.328 . S
N137 C135 1.350 . S
H138 C133 0.930 . S
H139 C134 0.930 . S
C140 O141 1.224 . S
C140 O159 1.247 . S
O141 C140 1.224 . S
N142 Co132 2.128 . S
N142 C143 1.355 . S
N142 C145 1.311 . S
C143 N142 1.355 . S
C143 C144 1.363 . S
C143 H155 0.929 . S
C144 C143 1.363 . S
C144 N146 1.375 . S
C144 H162 0.931 . S
C145 N142 1.311 . S
C145 N146 1.347 . S
C145 H156 0.929 . S
N146 C144 1.375 . S
N146 C145 1.347 . S
C147 C150 1.365 . S
C147 N152 1.328 . S
C147 H153 0.929 . S
C148 C149 1.362 . S
C148 C151 1.378 . S
C148 H163 0.929 . S
C149 C148 1.362 . S
C149 C150 1.366 . S
C150 C147 1.365 . S
C150 C149 1.366 . S
C150 H164 0.930 . S
C151 C148 1.378 . S
C151 N152 1.315 . S
C151 H154 0.930 . S
N152 Co132 2.194 . S
N152 C147 1.328 . S
N152 C151 1.315 . S
H153 C147 0.929 . S
H154 C151 0.930 . S
H155 C143 0.929 . S
H156 C145 0.929 . S
O157 Co132 2.351 . S
O157 C160 1.244 . S
O158 Co132 2.155 . S
O158 C160 1.240 . S
O159 Co132 2.096 . S
O159 C140 1.247 . S
C160 O157 1.244 . S
C160 O158 1.240 . S
H161 C135 0.931 . S
H162 C144 0.931 . S
H163 C148 0.929 . S
H164 C150 0.930 . S
Co165 N169 2.148 . S
Co165 N175 2.128 . S
Co165 N185 2.194 . S
Co165 O190 2.351 . S
Co165 O191 2.155 . S
Co165 O192 2.096 . S
C166 N169 1.301 . S
C166 N170 1.328 . S
C166 H171 0.930 . S
C167 C168 1.333 . S
C167 N169 1.317 . S
C167 H172 0.930 1_455 S
C168 C167 1.333 . S
C168 N170 1.350 . S
C168 H194 0.931 . S
N169 Co165 2.148 . S
N169 C166 1.301 . S
N169 C167 1.317 . S
N170 C166 1.328 . S
N170 C168 1.350 . S
H171 C166 0.930 . S
H172 C167 0.930 1_655 S
C173 O174 1.224 . S
C173 O192 1.247 1_655 S
O174 C173 1.224 . S
N175 Co165 2.128 . S
N175 C176 1.355 . S
N175 C178 1.311 . S
C176 N175 1.355 . S
C176 C177 1.363 . S
C176 H188 0.929 . S
C177 C176 1.363 . S
C177 N179 1.375 . S
C177 H195 0.931 . S
C178 N175 1.311 . S
C178 N179 1.347 . S
C178 H189 0.929 . S
N179 C177 1.375 . S
N179 C178 1.347 . S
C180 C183 1.365 . S
C180 N185 1.328 . S
C180 H186 0.929 . S
C181 C182 1.362 . S
C181 C184 1.378 . S
C181 H196 0.929 1_455 S
C182 C181 1.362 . S
C182 C183 1.366 . S
C183 C180 1.365 . S
C183 C182 1.366 . S
C183 H197 0.930 . S
C184 C181 1.378 . S
C184 N185 1.315 . S
C184 H187 0.930 1_455 S
N185 Co165 2.194 . S
N185 C180 1.328 . S
N185 C184 1.315 . S
H186 C180 0.929 . S
H187 C184 0.930 1_655 S
H188 C176 0.929 . S
H189 C178 0.929 . S
O190 Co165 2.351 . S
O190 C193 1.244 . S
O191 Co165 2.155 . S
O191 C193 1.240 . S
O192 Co165 2.096 . S
O192 C173 1.247 1_455 S
C193 O190 1.244 . S
C193 O191 1.240 . S
H194 C168 0.931 . S
H195 C177 0.931 . S
H196 C181 0.929 1_655 S
H197 C183 0.930 . S
Co198 N202 2.148 . S
Co198 N208 2.128 . S
Co198 N218 2.194 . S
Co198 O223 2.351 . S
Co198 O224 2.155 . S
Co198 O225 2.096 . S
C199 N202 1.301 . S
C199 N203 1.328 . S
C199 H204 0.930 . S
C200 C201 1.333 . S
C200 N202 1.317 . S
C200 H205 0.930 . S
C201 C200 1.333 . S
C201 N203 1.350 . S
C201 H227 0.931 . S
N202 Co198 2.148 . S
N202 C199 1.301 . S
N202 C200 1.317 . S
N203 C199 1.328 . S
N203 C201 1.350 . S
H204 C199 0.930 . S
H205 C200 0.930 . S
C206 O207 1.224 . S
C206 O225 1.247 . S
O207 C206 1.224 . S
N208 Co198 2.128 . S
N208 C209 1.355 . S
N208 C211 1.311 . S
C209 N208 1.355 . S
C209 C210 1.363 . S
C209 H221 0.929 . S
C210 C209 1.363 . S
C210 N212 1.375 . S
C210 H228 0.931 . S
C211 N208 1.311 . S
C211 N212 1.347 . S
C211 H222 0.929 . S
N212 C210 1.375 . S
N212 C211 1.347 . S
C213 C216 1.365 . S
C213 N218 1.328 . S
C213 H219 0.929 . S
C214 C215 1.362 . S
C214 C217 1.378 . S
C214 H229 0.929 . S
C215 C214 1.362 . S
C215 C216 1.366 . S
C216 C213 1.365 . S
C216 C215 1.366 . S
C216 H230 0.930 . S
C217 C214 1.378 . S
C217 N218 1.315 . S
C217 H220 0.930 . S
N218 Co198 2.194 . S
N218 C213 1.328 . S
N218 C217 1.315 . S
H219 C213 0.929 . S
H220 C217 0.930 . S
H221 C209 0.929 . S
H222 C211 0.929 . S
O223 Co198 2.351 . S
O223 C226 1.244 . S
O224 Co198 2.155 . S
O224 C226 1.240 . S
O225 Co198 2.096 . S
O225 C206 1.247 . S
C226 O223 1.244 . S
C226 O224 1.240 . S
H227 C201 0.931 . S
H228 C210 0.931 . S
H229 C214 0.929 . S
H230 C216 0.930 . S
Co231 N235 2.148 . S
Co231 N241 2.128 . S
Co231 N251 2.194 . S
Co231 O256 2.351 . S
Co231 O257 2.155 . S
Co231 O258 2.096 . S
C232 N235 1.301 . S
C232 N236 1.328 . S
C232 H237 0.930 . S
C233 C234 1.333 . S
C233 N235 1.317 . S
C233 H238 0.930 1_455 S
C234 C233 1.333 . S
C234 N236 1.350 . S
C234 H260 0.931 . S
N235 Co231 2.148 . S
N235 C232 1.301 . S
N235 C233 1.317 . S
N236 C232 1.328 . S
N236 C234 1.350 . S
H237 C232 0.930 . S
H238 C233 0.930 1_655 S
C239 O240 1.224 . S
C239 O258 1.247 1_655 S
O240 C239 1.224 . S
N241 Co231 2.128 . S
N241 C242 1.355 . S
N241 C244 1.311 . S
C242 N241 1.355 . S
C242 C243 1.363 . S
C242 H254 0.929 . S
C243 C242 1.363 . S
C243 N245 1.375 . S
C243 H261 0.931 . S
C244 N241 1.311 . S
C244 N245 1.347 . S
C244 H255 0.929 . S
N245 C243 1.375 . S
N245 C244 1.347 . S
C246 C249 1.365 . S
C246 N251 1.328 . S
C246 H252 0.929 . S
C247 C248 1.362 . S
C247 C250 1.378 . S
C247 H262 0.929 1_455 S
C248 C247 1.362 . S
C248 C249 1.366 . S
C249 C246 1.365 . S
C249 C248 1.366 . S
C249 H263 0.930 . S
C250 C247 1.378 . S
C250 N251 1.315 . S
C250 H253 0.930 1_455 S
N251 Co231 2.194 . S
N251 C246 1.328 . S
N251 C250 1.315 . S
H252 C246 0.929 . S
H253 C250 0.930 1_655 S
H254 C242 0.929 . S
H255 C244 0.929 . S
O256 Co231 2.351 . S
O256 C259 1.244 . S
O257 Co231 2.155 . S
O257 C259 1.240 . S
O258 Co231 2.096 . S
O258 C239 1.247 1_455 S
C259 O256 1.244 . S
C259 O257 1.240 . S
H260 C234 0.931 . S
H261 C243 0.931 . S
H262 C247 0.929 1_655 S
H263 C249 0.930 . S
H264 C272 0.929 . S
H265 C274 0.930 . S
H266 C276 0.930 . S
H267 C279 0.929 . S
H268 C282 0.930 . S
H269 C284 0.960 1_545 S
H270 C284 0.960 1_655 S
H271 C284 0.960 . S
C272 H264 0.929 . S
C272 C273 1.377 1_655 S
C272 C274 1.384 . S
C273 C272 1.377 1_455 S
C273 C279 1.390 . S
C274 H265 0.930 . S
C274 C272 1.384 . S
C274 C275 1.372 1_655 S
C275 C274 1.372 1_455 S
C275 C276 1.400 . S
C275 C280 1.490 . S
C276 H266 0.930 . S
C276 C275 1.400 . S
C276 C279 1.386 . S
H277 C293 0.930 . S
H278 C294 0.931 . S
C279 H267 0.929 . S
C279 C273 1.390 . S
C279 C276 1.386 . S
C280 C275 1.490 . S
C280 C282 1.395 1_556 S
C280 C283 1.403 . S
H281 C287 0.930 . S
C282 H268 0.930 . S
C282 C280 1.395 1_554 S
C282 C285 1.405 1_565 S
C283 C280 1.403 . S
C283 C284 1.524 . S
C283 C287 1.400 1_565 S
C284 H269 0.960 1_565 S
C284 H270 0.960 1_455 S
C284 H271 0.960 . S
C284 C283 1.524 . S
C285 C282 1.405 1_545 S
C285 C286 1.391 . S
C285 C289 1.495 . S
C286 C285 1.391 . S
C286 C287 1.385 1_554 S
C286 C288 1.478 . S
C287 H281 0.930 . S
C287 C283 1.400 1_545 S
C287 C286 1.385 1_556 S
C288 C286 1.478 . S
C288 C290 1.381 1_455 S
C288 C294 1.383 . S
C289 C285 1.495 . S
C289 H295 0.954 1_545 S
C289 H296 0.963 . S
C289 H297 0.962 1_455 S
C290 C288 1.381 1_655 S
C290 C291 1.394 . S
C290 H298 0.930 . S
C291 C290 1.394 . S
C291 C292 1.383 1_655 S
C291 H299 0.929 . S
C292 C291 1.383 1_455 S
C292 C293 1.377 . S
C293 H277 0.930 . S
C293 C292 1.377 . S
C293 C294 1.379 . S
C294 H278 0.931 . S
C294 C288 1.383 . S
C294 C293 1.379 . S
H295 C289 0.954 1_565 S
H296 C289 0.963 . S
H297 C289 0.962 1_655 S
H298 C290 0.930 . S
H299 C291 0.929 . S
H300 C308 0.929 . S
H301 C310 0.930 . S
H302 C312 0.930 . S
H303 C315 0.929 . S
H304 C318 0.930 . S
H305 C320 0.960 1_565 S
H306 C320 0.960 . S
H307 C320 0.960 . S
C308 H300 0.929 . S
C308 C309 1.377 . S
C308 C310 1.384 . S
C309 C308 1.377 . S
C309 C315 1.390 . S
C310 H301 0.930 . S
C310 C308 1.384 . S
C310 C311 1.372 . S
C311 C310 1.372 . S
C311 C312 1.400 . S
C311 C316 1.490 . S
C312 H302 0.930 . S
C312 C311 1.400 . S
C312 C315 1.386 . S
H313 C329 0.930 . S
H314 C330 0.931 . S
C315 H303 0.929 . S
C315 C309 1.390 . S
C315 C312 1.386 . S
C316 C311 1.490 . S
C316 C318 1.395 . S
C316 C319 1.403 . S
H317 C323 0.930 . S
C318 H304 0.930 . S
C318 C316 1.395 . S
C318 C321 1.373 1_545 S
C319 C316 1.403 . S
C319 C320 1.524 . S
C319 C323 1.400 1_545 S
C320 H305 0.960 1_545 S
C320 H306 0.960 . S
C320 H307 0.960 . S
C320 C319 1.524 . S
C321 C318 1.373 1_565 S
C321 C322 1.422 . S
C321 C325 1.496 . S
C322 C321 1.422 . S
C322 C323 1.385 . S
C322 C324 1.478 . S
C323 H317 0.930 . S
C323 C319 1.400 1_565 S
C323 C322 1.385 . S
C324 C322 1.478 . S
C324 C326 1.381 . S
C324 C330 1.383 . S
C325 C321 1.496 . S
C325 H331 0.959 1_565 S
C325 H332 0.961 . S
C325 H333 0.960 . S
C326 C324 1.381 . S
C326 C327 1.394 . S
C326 H334 0.930 . S
C327 C326 1.394 . S
C327 C328 1.383 . S
C327 H335 0.929 . S
C328 C327 1.383 . S
C328 C329 1.377 . S
C329 H313 0.930 . S
C329 C328 1.377 . S
C329 C330 1.379 . S
C330 H314 0.931 . S
C330 C324 1.383 . S
C330 C329 1.379 . S
H331 C325 0.959 1_545 S
H332 C325 0.961 . S
H333 C325 0.960 . S
H334 C326 0.930 . S
H335 C327 0.929 . S
H336 C344 0.929 . S
H337 C346 0.930 1_556 S
H338 C348 0.930 . S
H339 C351 0.929 . S
H340 C354 0.930 . S
H341 C356 0.960 . S
H342 C356 0.960 1_556 S
H343 C356 0.960 . S
C344 H336 0.929 . S
C344 C345 1.377 . S
C344 C346 1.384 . S
C345 C344 1.377 . S
C345 C351 1.390 . S
C346 H337 0.930 1_554 S
C346 C344 1.384 . S
C346 C347 1.372 . S
C347 C346 1.372 . S
C347 C348 1.400 . S
C347 C352 1.490 . S
C348 H338 0.930 . S
C348 C347 1.400 . S
C348 C351 1.386 . S
H349 C365 0.930 . S
H350 C366 0.931 1_554 S
C351 H339 0.929 . S
C351 C345 1.390 . S
C351 C348 1.386 . S
C352 C347 1.490 . S
C352 C354 1.395 . S
C352 C355 1.403 . S
H353 C359 0.930 . S
C354 H340 0.930 . S
C354 C352 1.395 . S
C354 C357 1.403 1_554 S
C355 C352 1.403 . S
C355 C356 1.524 . S
C355 C359 1.400 1_554 S
C356 H341 0.960 . S
C356 H342 0.960 1_554 S
C356 H343 0.960 . S
C356 C355 1.524 . S
C357 C354 1.403 1_556 S
C357 C358 1.392 . S
C357 C361 1.495 . S
C358 C357 1.392 . S
C358 C359 1.385 . S
C358 C360 1.478 . S
C359 H353 0.930 . S
C359 C355 1.400 1_556 S
C359 C358 1.385 . S
C360 C358 1.478 . S
C360 C362 1.381 . S
C360 C366 1.383 . S
C361 C357 1.495 . S
C361 H367 0.959 . S
C361 H368 0.959 1_556 S
C361 H369 0.960 . S
C362 C360 1.381 . S
C362 C363 1.394 . S
C362 H370 0.930 . S
C363 C362 1.394 . S
C363 C364 1.383 . S
C363 H371 0.929 . S
C364 C363 1.383 . S
C364 C365 1.377 . S
C365 H349 0.930 . S
C365 C364 1.377 . S
C365 C366 1.379 . S
C366 H350 0.931 1_556 S
C366 C360 1.383 . S
C366 C365 1.379 . S
H367 C361 0.959 . S
H368 C361 0.959 1_554 S
H369 C361 0.960 . S
H370 C362 0.930 . S
H371 C363 0.929 . S
H372 C380 0.929 . S
H373 C382 0.930 . S
H374 C384 0.930 . S
H375 C387 0.929 . S
H376 C390 0.930 . S
H377 C392 0.960 . S
H378 C392 0.960 . S
H379 C392 0.960 . S
C380 H372 0.929 . S
C380 C381 1.377 . S
C380 C382 1.384 . S
C381 C380 1.377 . S
C381 C387 1.390 . S
C382 H373 0.930 . S
C382 C380 1.384 . S
C382 C383 1.372 . S
C383 C382 1.372 . S
C383 C384 1.400 . S
C383 C388 1.490 . S
C384 H374 0.930 . S
C384 C383 1.400 . S
C384 C387 1.386 . S
H385 C401 0.930 . S
H386 C402 0.931 . S
C387 H375 0.929 . S
C387 C381 1.390 . S
C387 C384 1.386 . S
C388 C383 1.490 . S
C388 C390 1.395 . S
C388 C391 1.403 . S
H389 C395 0.930 . S
C390 H376 0.930 . S
C390 C388 1.395 . S
C390 C393 1.403 . S
C391 C388 1.403 . S
C391 C392 1.524 . S
C391 C395 1.400 . S
C392 H377 0.960 . S
C392 H378 0.960 . S
C392 H379 0.960 . S
C392 C391 1.524 . S
C393 C390 1.403 . S
C393 C394 1.392 . S
C393 C397 1.495 . S
C394 C393 1.392 . S
C394 C395 1.385 . S
C394 C396 1.478 . S
C395 H389 0.930 . S
C395 C391 1.400 . S
C395 C394 1.385 . S
C396 C394 1.478 . S
C396 C398 1.381 . S
C396 C402 1.383 . S
C397 C393 1.495 . S
C397 H403 0.959 . S
C397 H404 0.961 . S
C397 H405 0.960 . S
C398 C396 1.381 . S
C398 C399 1.394 . S
C398 H406 0.930 . S
C399 C398 1.394 . S
C399 C400 1.383 . S
C399 H407 0.929 . S
C400 C399 1.383 . S
C400 C401 1.377 . S
C401 H385 0.930 . S
C401 C400 1.377 . S
C401 C402 1.379 . S
C402 H386 0.931 . S
C402 C396 1.383 . S
C402 C401 1.379 . S
H403 C397 0.959 . S
H404 C397 0.961 . S
H405 C397 0.960 . S
H406 C398 0.930 . S
H407 C399 0.929 . S
H408 C416 0.929 . S
H409 C418 0.930 . S
H410 C420 0.930 . S
H411 C423 0.929 . S
H412 C426 0.930 . S
H413 C428 0.960 . S
H414 C428 0.960 . S
H415 C428 0.960 . S
C416 H408 0.929 . S
C416 C417 1.377 . S
C416 C418 1.384 . S
C417 C416 1.377 . S
C417 C423 1.390 . S
C418 H409 0.930 . S
C418 C416 1.384 . S
C418 C419 1.372 . S
C419 C418 1.372 . S
C419 C420 1.400 . S
C419 C424 1.490 . S
C420 H410 0.930 . S
C420 C419 1.400 . S
C420 C423 1.386 . S
H421 C437 0.930 . S
H422 C438 0.931 . S
C423 H411 0.929 . S
C423 C417 1.390 . S
C423 C420 1.386 . S
C424 C419 1.490 . S
C424 C426 1.395 . S
C424 C427 1.403 . S
H425 C431 0.930 . S
C426 H412 0.930 . S
C426 C424 1.395 . S
C426 C429 1.403 . S
C427 C424 1.403 . S
C427 C428 1.524 . S
C427 C431 1.400 . S
C428 H413 0.960 . S
C428 H414 0.960 . S
C428 H415 0.960 . S
C428 C427 1.524 . S
C429 C426 1.403 . S
C429 C430 1.392 . S
C429 C433 1.495 . S
C430 C429 1.392 . S
C430 C431 1.385 . S
C430 C432 1.478 . S
C431 H425 0.930 . S
C431 C427 1.400 . S
C431 C430 1.385 . S
C432 C430 1.478 . S
C432 C434 1.381 . S
C432 C438 1.383 . S
C433 C429 1.495 . S
C433 H439 0.959 . S
C433 H440 0.961 . S
C433 H441 0.960 . S
C434 C432 1.381 . S
C434 C435 1.394 . S
C434 H442 0.930 . S
C435 C434 1.394 . S
C435 C436 1.383 . S
C435 H443 0.929 . S
C436 C435 1.383 . S
C436 C437 1.377 . S
C437 H421 0.930 . S
C437 C436 1.377 . S
C437 C438 1.379 . S
C438 H422 0.931 . S
C438 C432 1.383 . S
C438 C437 1.379 . S
H439 C433 0.959 . S
H440 C433 0.961 . S
H441 C433 0.960 . S
H442 C434 0.930 . S
H443 C435 0.929 . S
H444 C452 0.929 . S
H445 C454 0.930 . S
H446 C456 0.930 . S
H447 C459 0.929 . S
H448 C462 0.930 . S
H449 C464 0.960 . S
H450 C464 0.960 . S
H451 C464 0.960 . S
C452 H444 0.929 . S
C452 C453 1.377 . S
C452 C454 1.384 . S
C453 C452 1.377 . S
C453 C459 1.390 . S
C454 H445 0.930 . S
C454 C452 1.384 . S
C454 C455 1.372 . S
C455 C454 1.372 . S
C455 C456 1.400 . S
C455 C460 1.490 . S
C456 H446 0.930 . S
C456 C455 1.400 . S
C456 C459 1.386 . S
H457 C473 0.930 . S
H458 C474 0.931 . S
C459 H447 0.929 . S
C459 C453 1.390 . S
C459 C456 1.386 . S
C460 C455 1.490 . S
C460 C462 1.395 . S
C460 C463 1.403 . S
H461 C467 0.930 . S
C462 H448 0.930 . S
C462 C460 1.395 . S
C462 C465 1.403 . S
C463 C460 1.403 . S
C463 C464 1.524 . S
C463 C467 1.400 . S
C464 H449 0.960 . S
C464 H450 0.960 . S
C464 H451 0.960 . S
C464 C463 1.524 . S
C465 C462 1.403 . S
C465 C466 1.392 . S
C465 C469 1.495 . S
C466 C465 1.392 . S
C466 C467 1.385 . S
C466 C468 1.478 . S
C467 H461 0.930 . S
C467 C463 1.400 . S
C467 C466 1.385 . S
C468 C466 1.478 . S
C468 C470 1.381 . S
C468 C474 1.383 . S
C469 C465 1.495 . S
C469 H475 0.959 . S
C469 H476 0.961 . S
C469 H477 0.960 . S
C470 C468 1.381 . S
C470 C471 1.394 . S
C470 H478 0.930 . S
C471 C470 1.394 . S
C471 C472 1.383 . S
C471 H479 0.929 . S
C472 C471 1.383 . S
C472 C473 1.377 . S
C473 H457 0.930 . S
C473 C472 1.377 . S
C473 C474 1.379 . S
C474 H458 0.931 . S
C474 C468 1.383 . S
C474 C473 1.379 . S
H475 C469 0.959 . S
H476 C469 0.961 . S
H477 C469 0.960 . S
H478 C470 0.930 . S
H479 C471 0.929 . S
H480 C488 0.929 . S
H481 C490 0.930 . S
H482 C492 0.930 . S
H483 C495 0.929 . S
H484 C498 0.930 . S
H485 C500 0.960 . S
H486 C500 0.960 . S
H487 C500 0.960 . S
C488 H480 0.929 . S
C488 C489 1.377 . S
C488 C490 1.384 . S
C489 C488 1.377 . S
C489 C495 1.390 . S
C490 H481 0.930 . S
C490 C488 1.384 . S
C490 C491 1.372 . S
C491 C490 1.372 . S
C491 C492 1.400 . S
C491 C496 1.490 . S
C492 H482 0.930 . S
C492 C491 1.400 . S
C492 C495 1.386 . S
H493 C509 0.930 . S
H494 C510 0.931 . S
C495 H483 0.929 . S
C495 C489 1.390 . S
C495 C492 1.386 . S
C496 C491 1.490 . S
C496 C498 1.395 . S
C496 C499 1.403 . S
H497 C503 0.930 . S
C498 H484 0.930 . S
C498 C496 1.395 . S
C498 C501 1.403 . S
C499 C496 1.403 . S
C499 C500 1.524 . S
C499 C503 1.400 . S
C500 H485 0.960 . S
C500 H486 0.960 . S
C500 H487 0.960 . S
C500 C499 1.524 . S
C501 C498 1.403 . S
C501 C502 1.392 . S
C501 C505 1.495 . S
C502 C501 1.392 . S
C502 C503 1.385 . S
C502 C504 1.478 . S
C503 H497 0.930 . S
C503 C499 1.400 . S
C503 C502 1.385 . S
C504 C502 1.478 . S
C504 C506 1.381 . S
C504 C510 1.383 . S
C505 C501 1.495 . S
C505 H511 0.959 . S
C505 H512 0.961 . S
C505 H513 0.960 . S
C506 C504 1.381 . S
C506 C507 1.394 . S
C506 H514 0.930 . S
C507 C506 1.394 . S
C507 C508 1.383 . S
C507 H515 0.929 . S
C508 C507 1.383 . S
C508 C509 1.377 . S
C509 H493 0.930 . S
C509 C508 1.377 . S
C509 C510 1.379 . S
C510 H494 0.931 . S
C510 C504 1.383 . S
C510 C509 1.379 . S
H511 C505 0.959 . S
H512 C505 0.961 . S
H513 C505 0.960 . S
H514 C506 0.930 . S
H515 C507 0.929 . S
H516 C524 0.929 . S
H517 C526 0.930 . S
H518 C528 0.930 . S
H519 C531 0.929 . S
H520 C534 0.930 . S
H521 C536 0.960 . S
H522 C536 0.960 . S
H523 C536 0.960 . S
C524 H516 0.929 . S
C524 C525 1.377 . S
C524 C526 1.384 . S
C525 C524 1.377 . S
C525 C531 1.390 . S
C526 H517 0.930 . S
C526 C524 1.384 . S
C526 C527 1.372 . S
C527 C526 1.372 . S
C527 C528 1.400 . S
C527 C532 1.490 . S
C528 H518 0.930 . S
C528 C527 1.400 . S
C528 C531 1.386 . S
H529 C545 0.930 . S
H530 C546 0.931 . S
C531 H519 0.929 . S
C531 C525 1.390 . S
C531 C528 1.386 . S
C532 C527 1.490 . S
C532 C534 1.395 . S
C532 C535 1.403 . S
H533 C539 0.930 . S
C534 H520 0.930 . S
C534 C532 1.395 . S
C534 C537 1.403 . S
C535 C532 1.403 . S
C535 C536 1.524 . S
C535 C539 1.400 . S
C536 H521 0.960 . S
C536 H522 0.960 . S
C536 H523 0.960 . S
C536 C535 1.524 . S
C537 C534 1.403 . S
C537 C538 1.392 . S
C537 C541 1.495 . S
C538 C537 1.392 . S
C538 C539 1.385 . S
C538 C540 1.478 . S
C539 H533 0.930 . S
C539 C535 1.400 . S
C539 C538 1.385 . S
C540 C538 1.478 . S
C540 C542 1.381 . S
C540 C546 1.383 . S
C541 C537 1.495 . S
C541 H547 0.959 . S
C541 H548 0.961 . S
C541 H549 0.960 . S
C542 C540 1.381 . S
C542 C543 1.394 . S
C542 H550 0.930 . S
C543 C542 1.394 . S
C543 C544 1.383 . S
C543 H551 0.929 . S
C544 C543 1.383 . S
C544 C545 1.377 . S
C545 H529 0.930 . S
C545 C544 1.377 . S
C545 C546 1.379 . S
C546 H530 0.931 . S
C546 C540 1.383 . S
C546 C545 1.379 . S
H547 C541 0.959 . S
H548 C541 0.961 . S
H549 C541 0.960 . S
H550 C542 0.930 . S
H551 C543 0.929 . S
H552 C560 0.929 . S
H553 C562 0.930 . S
H554 C564 0.930 . S
H555 C567 0.929 . S
H556 C570 0.930 . S
H557 C572 0.960 . S
H558 C572 0.960 . S
H559 C572 0.960 . S
C560 H552 0.929 . S
C560 C561 1.377 . S
C560 C562 1.384 . S
C561 C560 1.377 . S
C561 C567 1.390 . S
C562 H553 0.930 . S
C562 C560 1.384 . S
C562 C563 1.372 . S
C563 C562 1.372 . S
C563 C564 1.400 . S
C563 C568 1.490 . S
C564 H554 0.930 . S
C564 C563 1.400 . S
C564 C567 1.386 . S
H565 C581 0.930 . S
H566 C582 0.931 . S
C567 H555 0.929 . S
C567 C561 1.390 . S
C567 C564 1.386 . S
C568 C563 1.490 . S
C568 C570 1.395 . S
C568 C571 1.403 . S
H569 C575 0.930 . S
C570 H556 0.930 . S
C570 C568 1.395 . S
C570 C573 1.403 . S
C571 C568 1.403 . S
C571 C572 1.524 . S
C571 C575 1.400 . S
C572 H557 0.960 . S
C572 H558 0.960 . S
C572 H559 0.960 . S
C572 C571 1.524 . S
C573 C570 1.403 . S
C573 C574 1.392 . S
C573 C577 1.495 . S
C574 C573 1.392 . S
C574 C575 1.385 . S
C574 C576 1.478 . S
C575 H569 0.930 . S
C575 C571 1.400 . S
C575 C574 1.385 . S
C576 C574 1.478 . S
C576 C578 1.381 . S
C576 C582 1.383 . S
C577 C573 1.495 . S
C577 H583 0.959 . S
C577 H584 0.961 . S
C577 H585 0.960 . S
C578 C576 1.381 . S
C578 C579 1.394 . S
C578 H586 0.930 . S
C579 C578 1.394 . S
C579 C580 1.383 . S
C579 H587 0.929 . S
C580 C579 1.383 . S
C580 C581 1.377 . S
C581 H565 0.930 . S
C581 C580 1.377 . S
C581 C582 1.379 . S
C582 H566 0.931 . S
C582 C576 1.383 . S
C582 C581 1.379 . S
H583 C577 0.959 . S
H584 C577 0.961 . S
H585 C577 0.960 . S
H586 C578 0.930 . S
H587 C579 0.929 . S
H588 C596 0.929 . S
H589 C598 0.930 . S
H590 C600 0.930 . S
H591 C603 0.929 . S
H592 C606 0.930 . S
H593 C608 0.960 . S
H594 C608 0.960 . S
H595 C608 0.960 . S
C596 H588 0.929 . S
C596 C597 1.377 . S
C596 C598 1.384 . S
C597 C596 1.377 . S
C597 C603 1.390 . S
C598 H589 0.930 . S
C598 C596 1.384 . S
C598 C599 1.372 . S
C599 C598 1.372 . S
C599 C600 1.400 . S
C599 C604 1.490 . S
C600 H590 0.930 . S
C600 C599 1.400 . S
C600 C603 1.386 . S
H601 C617 0.930 . S
H602 C618 0.931 . S
C603 H591 0.929 . S
C603 C597 1.390 . S
C603 C600 1.386 . S
C604 C599 1.490 . S
C604 C606 1.395 . S
C604 C607 1.403 . S
H605 C611 0.930 . S
C606 H592 0.930 . S
C606 C604 1.395 . S
C606 C609 1.403 . S
C607 C604 1.403 . S
C607 C608 1.524 . S
C607 C611 1.400 . S
C608 H593 0.960 . S
C608 H594 0.960 . S
C608 H595 0.960 . S
C608 C607 1.524 . S
C609 C606 1.403 . S
C609 C610 1.392 . S
C609 C613 1.495 . S
C610 C609 1.392 . S
C610 C611 1.385 . S
C610 C612 1.478 . S
C611 H605 0.930 . S
C611 C607 1.400 . S
C611 C610 1.385 . S
C612 C610 1.478 . S
C612 C614 1.381 . S
C612 C618 1.383 . S
C613 C609 1.495 . S
C613 H619 0.959 . S
C613 H620 0.961 . S
C613 H621 0.960 . S
C614 C612 1.381 . S
C614 C615 1.394 . S
C614 H622 0.930 . S
C615 C614 1.394 . S
C615 C616 1.383 . S
C615 H623 0.929 . S
C616 C615 1.383 . S
C616 C617 1.377 . S
C617 H601 0.930 . S
C617 C616 1.377 . S
C617 C618 1.379 . S
C618 H602 0.931 . S
C618 C612 1.383 . S
C618 C617 1.379 . S
H619 C613 0.959 . S
H620 C613 0.961 . S
H621 C613 0.960 . S
H622 C614 0.930 . S
H623 C615 0.929 . S
H624 C632 0.929 . S
H625 C634 0.930 . S
H626 C636 0.930 . S
H627 C639 0.929 . S
H628 C642 0.930 . S
H629 C644 0.960 . S
H630 C644 0.960 . S
H631 C644 0.960 . S
C632 H624 0.929 . S
C632 C633 1.377 . S
C632 C634 1.384 . S
C633 C632 1.377 . S
C633 C639 1.390 . S
C634 H625 0.930 . S
C634 C632 1.384 . S
C634 C635 1.372 . S
C635 C634 1.372 . S
C635 C636 1.400 . S
C635 C640 1.490 . S
C636 H626 0.930 . S
C636 C635 1.400 . S
C636 C639 1.386 . S
H637 C653 0.930 . S
H638 C654 0.931 . S
C639 H627 0.929 . S
C639 C633 1.390 . S
C639 C636 1.386 . S
C640 C635 1.490 . S
C640 C642 1.395 . S
C640 C643 1.403 . S
H641 C647 0.930 . S
C642 H628 0.930 . S
C642 C640 1.395 . S
C642 C645 1.403 . S
C643 C640 1.403 . S
C643 C644 1.524 . S
C643 C647 1.400 . S
C644 H629 0.960 . S
C644 H630 0.960 . S
C644 H631 0.960 . S
C644 C643 1.524 . S
C645 C642 1.403 . S
C645 C646 1.392 . S
C645 C649 1.495 . S
C646 C645 1.392 . S
C646 C647 1.385 . S
C646 C648 1.478 . S
C647 H641 0.930 . S
C647 C643 1.400 . S
C647 C646 1.385 . S
C648 C646 1.478 . S
C648 C650 1.381 . S
C648 C654 1.383 . S
C649 C645 1.495 . S
C649 H655 0.959 . S
C649 H656 0.961 . S
C649 H657 0.960 . S
C650 C648 1.381 . S
C650 C651 1.394 . S
C650 H658 0.930 . S
C651 C650 1.394 . S
C651 C652 1.383 . S
C651 H659 0.929 . S
C652 C651 1.383 . S
C652 C653 1.377 . S
C653 H637 0.930 . S
C653 C652 1.377 . S
C653 C654 1.379 . S
C654 H638 0.931 . S
C654 C648 1.383 . S
C654 C653 1.379 . S
H655 C649 0.959 . S
H656 C649 0.961 . S
H657 C649 0.960 . S
H658 C650 0.930 . S
H659 C651 0.929 . S
H660 C668 0.929 . S
H661 C670 0.930 . S
H662 C672 0.930 . S
H663 C675 0.929 . S
H664 C678 0.930 . S
H665 C680 0.960 . S
H666 C680 0.960 . S
H667 C680 0.960 . S
C668 H660 0.929 . S
C668 C669 1.377 . S
C668 C670 1.384 . S
C669 C668 1.377 . S
C669 C675 1.390 . S
C670 H661 0.930 . S
C670 C668 1.384 . S
C670 C671 1.372 . S
C671 C670 1.372 . S
C671 C672 1.400 . S
C671 C676 1.490 . S
C672 H662 0.930 . S
C672 C671 1.400 . S
C672 C675 1.386 . S
H673 C689 0.930 . S
H674 C690 0.931 . S
C675 H663 0.929 . S
C675 C669 1.390 . S
C675 C672 1.386 . S
C676 C671 1.490 . S
C676 C678 1.395 . S
C676 C679 1.403 . S
H677 C683 0.930 . S
C678 H664 0.930 . S
C678 C676 1.395 . S
C678 C681 1.403 . S
C679 C676 1.403 . S
C679 C680 1.524 . S
C679 C683 1.400 . S
C680 H665 0.960 . S
C680 H666 0.960 . S
C680 H667 0.960 . S
C680 C679 1.524 . S
C681 C678 1.403 . S
C681 C682 1.392 . S
C681 C685 1.495 . S
C682 C681 1.392 . S
C682 C683 1.385 . S
C682 C684 1.478 . S
C683 H677 0.930 . S
C683 C679 1.400 . S
C683 C682 1.385 . S
C684 C682 1.478 . S
C684 C686 1.381 . S
C684 C690 1.383 . S
C685 C681 1.495 . S
C685 H691 0.959 . S
C685 H692 0.961 . S
C685 H693 0.960 . S
C686 C684 1.381 . S
C686 C687 1.394 . S
C686 H694 0.930 . S
C687 C686 1.394 . S
C687 C688 1.383 . S
C687 H695 0.929 . S
C688 C687 1.383 . S
C688 C689 1.377 . S
C689 H673 0.930 . S
C689 C688 1.377 . S
C689 C690 1.379 . S
C690 H674 0.931 . S
C690 C684 1.383 . S
C690 C689 1.379 . S
H691 C685 0.959 . S
H692 C685 0.961 . S
H693 C685 0.960 . S
H694 C686 0.930 . S
H695 C687 0.929 . S
H696 C704 0.929 . S
H697 C706 0.930 . S
H698 C708 0.930 . S
H699 C711 0.929 . S
H700 C714 0.930 . S
H701 C716 0.960 . S
H702 C716 0.960 . S
H703 C716 0.960 . S
C704 H696 0.929 . S
C704 C705 1.377 . S
C704 C706 1.384 . S
C705 C704 1.377 . S
C705 C711 1.390 1_455 S
C706 H697 0.930 . S
C706 C704 1.384 . S
C706 C707 1.372 . S
C707 C706 1.372 . S
C707 C708 1.400 1_455 S
C707 C712 1.490 . S
C708 H698 0.930 . S
C708 C707 1.400 1_655 S
C708 C711 1.386 . S
H709 C725 0.943 1_554 S
H710 C726 0.931 1_655 S
C711 H699 0.929 . S
C711 C705 1.390 1_655 S
C711 C708 1.386 . S
C712 C707 1.490 . S
C712 C714 1.395 . S
C712 C715 1.403 . S
H713 C719 0.930 1_655 S
C714 H700 0.930 . S
C714 C712 1.395 . S
C714 C717 1.403 . S
C715 C712 1.403 . S
C715 C716 1.524 1_455 S
C715 C719 1.400 . S
C716 H701 0.960 . S
C716 H702 0.960 . S
C716 H703 0.960 . S
C716 C715 1.524 1_655 S
C717 C714 1.403 . S
C717 C718 1.392 . S
C717 C721 1.495 . S
C718 C717 1.392 . S
C718 C719 1.385 . S
C718 C720 1.478 . S
C719 H713 0.930 1_455 S
C719 C715 1.400 . S
C719 C718 1.385 . S
C720 C718 1.478 . S
C720 C722 1.381 . S
C720 C726 1.383 . S
C721 C717 1.495 . S
C721 H727 0.959 . S
C721 H728 0.961 . S
C721 H729 0.960 . S
C722 C720 1.381 . S
C722 C723 1.394 . S
C722 H730 0.930 . S
C723 C722 1.394 . S
C723 C724 1.383 1_556 S
C723 H731 0.929 . S
C724 C723 1.383 1_554 S
C724 C725 1.350 1_454 S
C725 H709 0.943 1_556 S
C725 C724 1.350 1_656 S
C725 C726 1.395 1_655 S
C726 H710 0.931 1_455 S
C726 C720 1.383 . S
C726 C725 1.395 1_455 S
H727 C721 0.959 . S
H728 C721 0.961 . S
H729 C721 0.960 . S
H730 C722 0.930 . S
H731 C723 0.929 . S
H732 C740 0.929 . S
H733 C742 0.930 . S
H734 C744 0.930 . S
H735 C747 0.929 . S
H736 C750 0.930 . S
H737 C752 0.960 . S
H738 C752 0.960 . S
H739 C752 0.960 . S
C740 H732 0.929 . S
C740 C741 1.377 . S
C740 C742 1.384 . S
C741 C740 1.377 . S
C741 C747 1.390 . S
C742 H733 0.930 . S
C742 C740 1.384 . S
C742 C743 1.372 . S
C743 C742 1.372 . S
C743 C744 1.400 . S
C743 C748 1.490 . S
C744 H734 0.930 . S
C744 C743 1.400 . S
C744 C747 1.386 . S
H745 C761 0.930 . S
H746 C762 0.931 . S
C747 H735 0.929 . S
C747 C741 1.390 . S
C747 C744 1.386 . S
C748 C743 1.490 . S
C748 C750 1.395 . S
C748 C751 1.403 . S
H749 C755 0.930 . S
C750 H736 0.930 . S
C750 C748 1.395 . S
C750 C753 1.403 . S
C751 C748 1.403 . S
C751 C752 1.524 . S
C751 C755 1.400 . S
C752 H737 0.960 . S
C752 H738 0.960 . S
C752 H739 0.960 . S
C752 C751 1.524 . S
C753 C750 1.403 . S
C753 C754 1.392 . S
C753 C757 1.495 . S
C754 C753 1.392 . S
C754 C755 1.385 . S
C754 C756 1.478 . S
C755 H749 0.930 . S
C755 C751 1.400 . S
C755 C754 1.385 . S
C756 C754 1.478 . S
C756 C758 1.381 . S
C756 C762 1.383 . S
C757 C753 1.495 . S
C757 H763 0.959 . S
C757 H764 0.961 . S
C757 H765 0.960 . S
C758 C756 1.381 . S
C758 C759 1.394 . S
C758 H766 0.930 . S
C759 C758 1.394 . S
C759 C760 1.383 . S
C759 H767 0.929 . S
C760 C759 1.383 . S
C760 C761 1.377 . S
C761 H745 0.930 . S
C761 C760 1.377 . S
C761 C762 1.379 . S
C762 H746 0.931 . S
C762 C756 1.383 . S
C762 C761 1.379 . S
H763 C757 0.959 . S
H764 C757 0.961 . S
H765 C757 0.960 . S
H766 C758 0.930 . S
H767 C759 0.929 . S
H768 C776 0.929 . S
H769 C778 0.930 . S
H770 C780 0.948 . S
H771 C783 0.929 . S
H772 C786 0.930 . S
H773 C788 0.960 . S
H774 C788 0.960 . S
H775 C788 0.960 . S
C776 H768 0.929 . S
C776 C777 1.377 . S
C776 C778 1.384 1_556 S
C777 C776 1.377 . S
C777 C783 1.390 1_456 S
C778 H769 0.930 . S
C778 C776 1.384 1_554 S
C778 C779 1.372 . S
C779 C778 1.372 . S
C779 C780 1.382 1_455 S
C779 C784 1.490 . S
C780 H770 0.948 . S
C780 C779 1.382 1_655 S
C780 C783 1.386 . S
H781 C797 0.930 1_655 S
H782 C798 0.931 1_655 S
C783 H771 0.929 . S
C783 C777 1.390 1_654 S
C783 C780 1.386 . S
C784 C779 1.490 . S
C784 C786 1.395 . S
C784 C787 1.403 . S
H785 C791 0.930 1_655 S
C786 H772 0.930 . S
C786 C784 1.395 . S
C786 C789 1.403 . S
C787 C784 1.403 . S
C787 C788 1.524 1_455 S
C787 C791 1.400 . S
C788 H773 0.960 . S
C788 H774 0.960 . S
C788 H775 0.960 . S
C788 C787 1.524 1_655 S
C789 C786 1.403 . S
C789 C790 1.392 . S
C789 C793 1.495 . S
C790 C789 1.392 . S
C790 C791 1.385 . S
C790 C792 1.478 . S
C791 H785 0.930 1_455 S
C791 C787 1.400 . S
C791 C790 1.385 . S
C792 C790 1.478 . S
C792 C794 1.381 . S
C792 C798 1.383 . S
C793 C789 1.495 . S
C793 H799 0.959 . S
C793 H800 0.961 . S
C793 H801 0.960 . S
C794 C792 1.381 . S
C794 C795 1.394 . S
C794 H802 0.930 . S
C795 C794 1.394 . S
C795 C796 1.383 . S
C795 H803 0.929 . S
C796 C795 1.383 . S
C796 C797 1.377 . S
C797 H781 0.930 1_455 S
C797 C796 1.377 . S
C797 C798 1.379 . S
C798 H782 0.931 1_455 S
C798 C792 1.383 . S
C798 C797 1.379 . S
H799 C793 0.959 . S
H800 C793 0.961 . S
H801 C793 0.960 . S
H802 C794 0.930 . S
H803 C795 0.929 . S
H804 C812 0.929 . S
H805 C814 0.930 . S
H806 C816 0.930 . S
H807 C819 0.929 . S
H808 C822 0.930 . S
H809 C824 0.960 . S
H810 C824 0.960 . S
H811 C824 0.960 . S
C812 H804 0.929 . S
C812 C813 1.377 . S
C812 C814 1.384 . S
C813 C812 1.377 . S
C813 C819 1.390 . S
C814 H805 0.930 . S
C814 C812 1.384 . S
C814 C815 1.372 . S
C815 C814 1.372 . S
C815 C816 1.400 . S
C815 C820 1.490 . S
C816 H806 0.930 . S
C816 C815 1.400 . S
C816 C819 1.386 . S
H817 C833 0.930 . S
H818 C834 0.931 . S
C819 H807 0.929 . S
C819 C813 1.390 . S
C819 C816 1.386 . S
C820 C815 1.490 . S
C820 C822 1.395 . S
C820 C823 1.403 . S
H821 C827 0.930 . S
C822 H808 0.930 . S
C822 C820 1.395 . S
C822 C825 1.403 . S
C823 C820 1.403 . S
C823 C824 1.524 . S
C823 C827 1.400 . S
C824 H809 0.960 . S
C824 H810 0.960 . S
C824 H811 0.960 . S
C824 C823 1.524 . S
C825 C822 1.403 . S
C825 C826 1.392 . S
C825 C829 1.495 . S
C826 C825 1.392 . S
C826 C827 1.385 . S
C826 C828 1.478 . S
C827 H821 0.930 . S
C827 C823 1.400 . S
C827 C826 1.385 . S
C828 C826 1.478 . S
C828 C830 1.381 . S
C828 C834 1.383 . S
C829 C825 1.495 . S
C829 H835 0.959 . S
C829 H836 0.961 . S
C829 H837 0.960 . S
C830 C828 1.381 . S
C830 C831 1.394 . S
C830 H838 0.930 . S
C831 C830 1.394 . S
C831 C832 1.383 . S
C831 H839 0.929 . S
C832 C831 1.383 . S
C832 C833 1.377 . S
C833 H817 0.930 . S
C833 C832 1.377 . S
C833 C834 1.379 . S
C834 H818 0.931 . S
C834 C828 1.383 . S
C834 C833 1.379 . S
H835 C829 0.959 . S
H836 C829 0.961 . S
H837 C829 0.960 . S
H838 C830 0.930 . S
H839 C831 0.929 . S
H840 C848 0.929 . S
H841 C850 0.930 . S
H842 C852 0.930 . S
H843 C855 0.929 . S
H844 C858 0.930 . S
H845 C860 0.960 . S
H846 C860 0.960 . S
H847 C860 0.960 . S
C848 H840 0.929 . S
C848 C849 1.377 . S
C848 C850 1.384 . S
C849 C848 1.377 . S
C849 C855 1.390 . S
C850 H841 0.930 . S
C850 C848 1.384 . S
C850 C851 1.372 . S
C851 C850 1.372 . S
C851 C852 1.400 . S
C851 C856 1.490 . S
C852 H842 0.930 . S
C852 C851 1.400 . S
C852 C855 1.386 . S
H853 C869 0.930 . S
H854 C870 0.931 . S
C855 H843 0.929 . S
C855 C849 1.390 . S
C855 C852 1.386 . S
C856 C851 1.490 . S
C856 C858 1.395 . S
C856 C859 1.403 . S
H857 C863 0.930 . S
C858 H844 0.930 . S
C858 C856 1.395 . S
C858 C861 1.403 . S
C859 C856 1.403 . S
C859 C860 1.524 . S
C859 C863 1.400 . S
C860 H845 0.960 . S
C860 H846 0.960 . S
C860 H847 0.960 . S
C860 C859 1.524 . S
C861 C858 1.403 . S
C861 C862 1.392 . S
C861 C865 1.495 . S
C862 C861 1.392 . S
C862 C863 1.385 . S
C862 C864 1.478 . S
C863 H857 0.930 . S
C863 C859 1.400 . S
C863 C862 1.385 . S
C864 C862 1.478 . S
C864 C866 1.381 . S
C864 C870 1.383 . S
C865 C861 1.495 . S
C865 H871 0.959 . S
C865 H872 0.961 . S
C865 H873 0.960 . S
C866 C864 1.381 . S
C866 C867 1.394 . S
C866 H874 0.930 . S
C867 C866 1.394 . S
C867 C868 1.383 1_556 S
C867 H875 0.929 . S
C868 C867 1.383 1_554 S
C868 C869 1.377 . S
C869 H853 0.930 . S
C869 C868 1.377 . S
C869 C870 1.379 1_554 S
C870 H854 0.931 . S
C870 C864 1.383 . S
C870 C869 1.379 1_556 S
H871 C865 0.959 . S
H872 C865 0.961 . S
H873 C865 0.960 . S
H874 C866 0.930 . S
H875 C867 0.929 . S
H876 C884 0.929 . S
H877 C886 0.930 . S
H878 C888 0.930 . S
H879 C891 0.929 . S
H880 C894 0.930 . S
H881 C896 0.960 . S
H882 C896 0.960 . S
H883 C896 0.960 . S
C884 H876 0.929 . S
C884 C885 1.377 . S
C884 C886 1.384 . S
C885 C884 1.377 . S
C885 C891 1.390 . S
C886 H877 0.930 . S
C886 C884 1.384 . S
C886 C887 1.372 . S
C887 C886 1.372 . S
C887 C888 1.400 . S
C887 C892 1.490 . S
C888 H878 0.930 . S
C888 C887 1.400 . S
C888 C891 1.386 . S
H889 C905 0.930 . S
H890 C906 0.931 . S
C891 H879 0.929 . S
C891 C885 1.390 . S
C891 C888 1.386 . S
C892 C887 1.490 . S
C892 C894 1.395 . S
C892 C895 1.403 . S
H893 C899 0.930 . S
C894 H880 0.930 . S
C894 C892 1.395 . S
C894 C897 1.403 . S
C895 C892 1.403 . S
C895 C896 1.524 . S
C895 C899 1.400 . S
C896 H881 0.960 . S
C896 H882 0.960 . S
C896 H883 0.960 . S
C896 C895 1.524 . S
C897 C894 1.403 . S
C897 C898 1.392 . S
C897 C901 1.495 1_455 S
C898 C897 1.392 . S
C898 C899 1.385 . S
C898 C900 1.478 . S
C899 H893 0.930 . S
C899 C895 1.400 . S
C899 C898 1.385 . S
C900 C898 1.478 . S
C900 C902 1.381 . S
C900 C906 1.383 . S
C901 C897 1.495 1_655 S
C901 H907 0.959 . S
C901 H908 0.961 . S
C901 H909 0.960 1_655 S
C902 C900 1.381 . S
C902 C903 1.394 . S
C902 H910 0.930 . S
C903 C902 1.394 . S
C903 C904 1.383 . S
C903 H911 0.929 . S
C904 C903 1.383 . S
C904 C905 1.377 . S
C905 H889 0.930 . S
C905 C904 1.377 . S
C905 C906 1.379 . S
C906 H890 0.931 . S
C906 C900 1.383 . S
C906 C905 1.379 . S
H907 C901 0.959 . S
H908 C901 0.961 . S
H909 C901 0.960 1_455 S
H910 C902 0.930 . S
H911 C903 0.929 . S
H912 C920 0.929 . S
H913 C922 0.930 . S
H914 C924 0.930 . S
H915 C927 0.929 1_556 S
H916 C930 0.930 . S
H917 C932 0.960 . S
H918 C932 0.960 . S
H919 C932 0.960 . S
C920 H912 0.929 . S
C920 C921 1.377 1_554 S
C920 C922 1.384 . S
C921 C920 1.377 1_556 S
C921 C927 1.390 1_556 S
C922 H913 0.930 . S
C922 C920 1.384 . S
C922 C923 1.372 . S
C923 C922 1.372 . S
C923 C924 1.400 . S
C923 C928 1.490 . S
C924 H914 0.930 . S
C924 C923 1.400 . S
C924 C927 1.386 . S
H925 C941 0.930 . S
H926 C942 0.931 . S
C927 H915 0.929 1_554 S
C927 C921 1.390 1_554 S
C927 C924 1.386 . S
C928 C923 1.490 . S
C928 C930 1.395 . S
C928 C931 1.403 . S
H929 C935 0.930 . S
C930 H916 0.930 . S
C930 C928 1.395 . S
C930 C933 1.403 . S
C931 C928 1.403 . S
C931 C932 1.524 . S
C931 C935 1.400 . S
C932 H917 0.960 . S
C932 H918 0.960 . S
C932 H919 0.960 . S
C932 C931 1.524 . S
C933 C930 1.403 . S
C933 C934 1.392 . S
C933 C937 1.495 . S
C934 C933 1.392 . S
C934 C935 1.385 . S
C934 C936 1.478 . S
C935 H929 0.930 . S
C935 C931 1.400 . S
C935 C934 1.385 . S
C936 C934 1.478 . S
C936 C938 1.381 . S
C936 C942 1.383 . S
C937 C933 1.495 . S
C937 H943 0.959 . S
C937 H944 0.961 . S
C937 H945 0.960 . S
C938 C936 1.381 . S
C938 C939 1.394 . S
C938 H946 0.930 . S
C939 C938 1.394 . S
C939 C940 1.383 . S
C939 H947 0.929 . S
C940 C939 1.383 . S
C940 C941 1.377 . S
C941 H925 0.930 . S
C941 C940 1.377 . S
C941 C942 1.379 . S
C942 H926 0.931 . S
C942 C936 1.383 . S
C942 C941 1.379 . S
H943 C937 0.959 . S
H944 C937 0.961 . S
H945 C937 0.960 . S
H946 C938 0.930 . S
H947 C939 0.929 . S
H948 C956 0.929 1_655 S
H949 C958 0.930 1_655 S
H950 C960 0.930 . S
H951 C963 0.929 . S
H952 C966 0.930 . S
H953 C968 0.960 . S
H954 C968 0.960 . S
H955 C968 0.960 . S
C956 H948 0.929 1_455 S
C956 C957 1.377 . S
C956 C958 1.384 . S
C957 C956 1.377 . S
C957 C963 1.390 . S
C958 H949 0.930 1_455 S
C958 C956 1.384 . S
C958 C959 1.372 . S
C959 C958 1.372 . S
C959 C960 1.400 . S
C959 C964 1.490 . S
C960 H950 0.930 . S
C960 C959 1.400 . S
C960 C963 1.386 . S
H961 C977 0.930 . S
H962 C978 0.931 . S
C963 H951 0.929 . S
C963 C957 1.390 . S
C963 C960 1.386 . S
C964 C959 1.490 . S
C964 C966 1.395 . S
C964 C967 1.403 . S
H965 C971 0.930 . S
C966 H952 0.930 . S
C966 C964 1.395 . S
C966 C969 1.403 . S
C967 C964 1.403 . S
C967 C968 1.524 . S
C967 C971 1.400 . S
C968 H953 0.960 . S
C968 H954 0.960 . S
C968 H955 0.960 . S
C968 C967 1.524 . S
C969 C966 1.403 . S
C969 C970 1.392 . S
C969 C973 1.495 . S
C970 C969 1.392 . S
C970 C971 1.385 . S
C970 C972 1.478 . S
C971 H965 0.930 . S
C971 C967 1.400 . S
C971 C970 1.385 . S
C972 C970 1.478 . S
C972 C974 1.381 . S
C972 C978 1.383 . S
C973 C969 1.495 . S
C973 H979 0.959 . S
C973 H980 0.961 . S
C973 H981 0.960 . S
C974 C972 1.381 . S
C974 C975 1.394 . S
C974 H982 0.930 1_455 S
C975 C974 1.394 . S
C975 C976 1.383 . S
C975 H983 0.929 1_455 S
C976 C975 1.383 . S
C976 C977 1.377 . S
C977 H961 0.930 . S
C977 C976 1.377 . S
C977 C978 1.379 . S
C978 H962 0.931 . S
C978 C972 1.383 . S
C978 C977 1.379 . S
H979 C973 0.959 . S
H980 C973 0.961 . S
H981 C973 0.960 . S
H982 C974 0.930 1_655 S
H983 C975 0.929 1_655 S
C273 N71 1.360 . S
C292 N5 1.334 . S
C309 N104 1.359 . S
C328 N38 1.342 . S
C345 N137 1.363 . S
C364 N203 1.333 . S
C381 N170 1.355 . S
C400 N236 1.373 . S
C417 C107 1.533 . S
C436 C8 1.534 . S
C453 C41 1.531 . S
C472 C74 1.541 . S
C489 C94 0.922 . S
C508 C61 0.893 . S
C525 C127 0.925 . S
C544 C28 0.910 . S
C561 C239 1.527 . S
C580 C140 1.520 . S
C597 C173 1.532 . S
C616 C206 1.542 . S
C633 C226 0.915 . S
C652 C193 0.940 . S
C669 C259 0.925 . S
C688 C160 0.928 . S
C705 N179 1.579 . S
C724 C17 1.620 . S
C741 C50 1.620 . S
C760 N146 1.585 . S
C777 C83 1.622 . S
C796 N245 1.561 . S
C813 N212 1.580 . S
C832 C116 1.620 . S
C849 N47 1.584 . S
C868 C149 1.616 . S
C885 C182 1.621 . S
C904 N14 1.562 . S
C921 C215 1.621 . S
C940 N113 1.578 . S
C957 C248 1.621 . S
C976 N80 1.579 . S
