# Generated by pormake.
# Topology sxc, (6)-cn, num edge types: 1
# Building blocks:
#     Node 0, Type 0, BuildingBlock: KUMBUR_clean_sbu_1, # of connection points: 6
#     Node 1, Type 0, BuildingBlock: KUMBUR_clean_sbu_1, # of connection points: 6
#     Node 2, Type 0, BuildingBlock: KUMBUR_clean_sbu_1, # of connection points: 6
#     Edge 3, Type (0, 0), BuildingBlock: ZUJKAS_clean_linker_0, # of connection points: 2
#     Edge 4, Type (0, 0), BuildingBlock: ZUJKAS_clean_linker_0, # of connection points: 2
#     Edge 5, Type (0, 0), BuildingBlock: ZUJKAS_clean_linker_0, # of connection points: 2
#     Edge 6, Type (0, 0), BuildingBlock: ZUJKAS_clean_linker_0, # of connection points: 2
#     Edge 7, Type (0, 0), BuildingBlock: ZUJKAS_clean_linker_0, # of connection points: 2
#     Edge 8, Type (0, 0), BuildingBlock: ZUJKAS_clean_linker_0, # of connection points: 2
#     Edge 9, Type (0, 0), BuildingBlock: ZUJKAS_clean_linker_0, # of connection points: 2
#     Edge 10, Type (0, 0), BuildingBlock: ZUJKAS_clean_linker_0, # of connection points: 2
#     Edge 11, Type (0, 0), BuildingBlock: ZUJKAS_clean_linker_0, # of connection points: 2
# Relax obj value: 0.177
# Max RMSD: 0.147
# Mean RMSD: 0.105
data_MOF--net-sxc--node1-KUMBUR_clean_sbu_1--edge1-ZUJKAS_clean_linker_0
_symmetry_space_group_name_H-M    P1
_symmetry_Int_Tables_number       1
_symmetry_cell_setting            triclinic
loop_
_symmetry_equiv_pos_as_xyz
'x, y, z'
_cell_length_a     19.844422
_cell_length_b     20.935829
_cell_length_c     57.36584
_cell_angle_alpha  108.86516
_cell_angle_beta   98.492099
_cell_angle_gamma 100.06592
loop_
_atom_site_label
_atom_site_type_symbol
_atom_site_fract_x
_atom_site_fract_y
_atom_site_fract_z
_atom_type_partial_charge
Tb0 Tb 0.98117 0.15595 0.00313 0.0
C1 C 0.27776 0.11382 0.032 0.0
N2 N 0.22908 0.14116 0.04374 0.0
C3 C 0.24935 0.08627 0.07403 0.0
C4 C 0.31203 1.06892 0.04024 0.0
C5 C 0.21678 0.13064 0.06518 0.0
C6 C 0.29667 1.05472 0.06137 0.0
C7 C 0.34236 0.10303 0.99877 0.0
C8 C 0.29267 0.13086 0.01157 0.0
C9 C 0.37539 1.05678 0.00647 0.0
C10 C 0.36039 1.0399 0.02719 0.0
Tb11 Tb 0.18295 0.21614 0.0287 0.0
N12 N 0.26051 0.17665 0.00489 0.0
C13 C 0.35851 0.12367 0.97896 0.0
C14 C 0.27924 0.19989 0.98648 0.0
C15 C 0.32733 0.17282 0.97298 0.0
H16 H 0.18143 0.15592 0.07526 0.0
H17 H 0.34118 0.19077 0.95822 0.0
H18 H 0.98991 0.21909 0.95741 0.0
H19 H 0.81529 0.17961 0.07109 0.0
H20 H 0.25865 0.2405 0.98241 0.0
H21 H 0.39633 0.10341 0.96863 0.0
H22 H 0.90016 0.13037 0.04799 0.0
H23 H 0.23827 1.07678 0.0907 0.0
H24 H 0.41347 1.03466 0.99679 0.0
H25 H 0.38691 1.00484 0.0331 0.0
H26 H 0.93612 0.29952 0.94176 0.0
H27 H 0.32177 1.02033 0.06827 0.0
H28 H 0.76221 0.26754 0.06022 0.0
N29 N 0.93843 0.23239 0.98796 0.0
C30 C 0.88836 0.25921 0.99896 0.0
C31 C 0.92274 0.28913 0.95801 0.0
C32 C 0.85569 0.30478 0.99055 0.0
C33 C 0.95365 0.24408 0.96701 0.0
C34 C 0.87404 0.32015 0.96997 0.0
N35 N 0.90153 0.19505 0.02587 0.0
C36 C 0.88054 0.17132 0.04387 0.0
C37 C 0.81975 0.26883 0.03105 0.0
C38 C 0.87066 0.24125 0.01893 0.0
C39 C 0.80105 0.24751 0.05043 0.0
C40 C 0.83108 0.19805 0.05668 0.0
H41 H 0.85025 0.35509 0.96296 0.0
H42 H 0.78064 0.36894 0.99683 0.0
H43 H 0.74919 0.33751 0.03229 0.0
O44 O 0.88096 0.08847 0.99241 0.0
O45 O 1.02633 0.27463 0.01598 0.0
O46 O 0.14512 0.29796 0.01635 0.0
O47 O 0.94292 0.09275 0.96495 0.0
O48 O 1.01516 0.15095 0.04025 0.0
O49 O 0.10839 0.2423 0.0528 0.0
O50 O 0.28328 0.28328 0.03884 0.0
O51 O 0.13821 0.09786 0.01719 0.0
O52 O 1.01821 1.07311 0.0151 0.0
O53 O 0.2213 0.2824 0.06649 0.0
O54 O 0.14632 0.22049 0.99166 0.0
O55 O 1.05643 0.12682 0.97972 0.0
C56 C 0.08547 0.31903 0.01691 0.0
C57 C 0.87605 0.98214 0.96019 0.0
C58 C 0.8192 0.87045 0.96156 0.0
C59 C 0.85845 0.83737 0.94495 0.0
C60 C 0.91401 0.94781 0.94327 0.0
C61 C 0.90521 0.87593 0.93578 0.0
C62 C 0.82804 0.94281 0.96896 0.0
C63 C 0.06468 0.19783 0.05825 0.0
C64 C 0.88788 1.05875 0.96946 0.0
C65 C 0.80598 0.33339 0.00289 0.0
C66 C 0.78819 0.31559 0.02313 0.0
C67 C 0.07858 1.05303 0.01559 0.0
C68 C 0.28672 0.39182 0.06941 0.0
C69 C 0.34486 0.50147 0.06679 0.0
C70 C 0.30162 0.53544 0.08129 0.0
C71 C 0.24435 0.42704 0.08406 0.0
C72 C 0.33745 0.42971 0.06113 0.0
C73 C 0.25198 0.49837 0.08994 0.0
C74 C 0.09945 0.17052 0.9738 0.0
C75 C 0.27603 0.31547 0.06153 0.0
H76 H 0.85239 0.78163 0.93884 0.0
H77 H 0.95099 0.97641 0.93597 0.0
H78 H 0.93496 0.85002 0.92288 0.0
H79 H 0.79884 0.9688 0.98212 0.0
H80 H 0.30646 0.59075 0.08607 0.0
H81 H 0.20466 0.39957 0.09072 0.0
H82 H 0.36961 0.40283 0.04953 0.0
H83 H 0.21889 0.52494 0.1011 0.0
Tb84 Tb 1.06202 0.11775 0.33305 0.0
C85 C 0.20884 0.39637 0.4267 0.0
N86 N 0.14046 0.36306 0.41716 0.0
C87 C 0.12236 0.38414 0.45924 0.0
C88 C 0.23792 0.42213 0.45284 0.0
C89 C 0.09602 0.36115 0.43315 0.0
C90 C 0.19405 0.41332 0.46911 0.0
C91 C 0.3151 0.45537 0.41942 0.0
C92 C 0.24668 0.41253 0.4104 0.0
C93 C 0.34692 0.47651 0.44514 0.0
C94 C 0.30831 0.45974 0.46187 0.0
Tb95 Tb 0.10382 0.31997 0.3739 0.0
N96 N 0.21282 0.39305 0.38607 0.0
C97 C 0.34737 0.47901 0.40264 0.0
C98 C 0.24179 0.41986 0.37005 0.0
C99 C 0.30984 0.46254 0.37799 0.0
H100 H 1.04026 0.34023 0.42573 0.0
H101 H 0.33337 0.48231 0.36507 0.0
H102 H 0.91839 1.07472 0.28864 0.0
H103 H 0.14973 0.96152 0.38497 0.0
H104 H 0.21287 0.40676 0.35096 0.0
H105 H 0.39986 0.5123 0.4088 0.0
H106 H 0.16506 1.04261 0.36183 0.0
H107 H 0.08723 0.38001 0.47171 0.0
H108 H 0.39992 0.50858 0.45247 0.0
H109 H 0.33209 0.47919 0.48186 0.0
H110 H 0.79695 1.00327 0.27851 0.0
H111 H 0.21419 0.43221 0.48934 0.0
H112 H 1.03062 0.90166 0.38487 0.0
N113 N 0.95245 1.04456 0.3195 0.0
C114 C 0.93627 1.00237 0.33239 0.0
C115 C 0.83558 1.00278 0.29384 0.0
C116 C 0.86819 0.96078 0.32748 0.0
C117 C 0.90433 1.04282 0.2995 0.0
C118 C 0.81699 0.96263 0.30826 0.0
N119 N 1.0554 1.03201 0.3502 0.0
C120 C 0.11276 1.01668 0.36168 0.0
C121 C 0.97879 0.94845 0.36105 0.0
C122 C 0.99029 0.9961 0.34864 0.0
C123 C 1.03699 0.93765 0.37494 0.0
C124 C 0.10437 0.97086 0.37481 0.0
H125 H 0.76388 0.9315 0.30383 0.0
H126 H 0.80245 0.88527 0.33808 0.0
H127 H 0.89967 0.87514 0.36789 0.0
O128 O 0.06672 1.03189 0.30204 0.0
O129 O 0.97015 0.16627 0.3361 0.0
O130 O 1.0019 0.25691 0.37454 0.0
O131 O 0.12759 0.13337 0.30869 0.0
O132 O 0.10901 0.14914 0.37367 0.0
O133 O 0.06963 0.2461 0.39196 0.0
O134 O 1.02638 0.34565 0.35168 0.0
O135 O 0.19309 0.2796 0.35985 0.0
O136 O 0.16936 0.16467 0.35642 0.0
O137 O 0.09186 0.42235 0.38615 0.0
O138 O 0.1186 0.28669 0.33503 0.0
O139 O 1.02628 0.19426 0.31906 0.0
C140 C 0.95311 0.20988 0.35559 0.0
C141 C 0.17916 1.04204 0.2921 0.0
C142 C 0.25948 0.97439 0.30201 0.0
C143 C 0.30417 0.99715 0.2881 0.0
C144 C 0.22449 1.06565 0.27842 0.0
C145 C 0.2867 1.04321 0.27644 0.0
C146 C 0.19725 0.99668 0.30383 0.0
C147 C 0.09248 0.19198 0.39313 0.0
C148 C 0.11561 1.06803 0.29542 0.0
C149 C 0.85468 0.91687 0.34118 0.0
C150 C 0.91001 0.91112 0.35815 0.0
C151 C 0.21377 0.22163 0.35809 0.0
C152 C 0.97702 0.4331 0.37497 0.0
C153 C 0.90542 0.51629 0.37549 0.0
C154 C 0.86757 0.49223 0.39101 0.0
C155 C 0.93908 0.40878 0.39043 0.0
C156 C 0.95934 0.48574 0.36734 0.0
C157 C 0.88379 0.43766 0.3981 0.0
C158 C 0.07034 0.24293 0.31567 0.0
C159 C 1.03835 0.40861 0.36779 0.0
H160 H 0.35181 0.97929 0.28623 0.0
H161 H 0.21195 0.10163 0.26942 0.0
H162 H 0.32128 1.06139 0.2658 0.0
H163 H 0.1626 0.97795 0.31439 0.0
H164 H 0.82681 0.51629 0.39791 0.0
H165 H 0.95321 0.36899 0.39696 0.0
H166 H 0.99055 0.50584 0.35609 0.0
H167 H 0.85488 0.41907 0.41016 0.0
Tb168 Tb 0.16205 0.22944 0.70218 0.0
C169 C 0.22886 0.96731 0.64619 0.0
N170 N 0.18632 1.00059 0.63624 0.0
C171 C 0.24646 0.99004 0.60233 0.0
C172 C 0.2849 0.94782 0.6354 0.0
C173 C 0.19211 1.00926 0.61391 0.0
C174 C 0.29377 0.96021 0.61334 0.0
C175 C 0.25805 0.91748 0.67787 0.0
C176 C 0.21556 0.95278 0.66719 0.0
C177 C 0.31618 0.90095 0.66801 0.0
C178 C 0.32951 0.91598 0.64679 0.0
Tb179 Tb 0.10006 1.03097 0.65682 0.0
N180 N 0.15857 0.96932 0.67612 0.0
C181 C 0.23933 0.89753 0.69751 0.0
C182 C 0.13636 0.94336 0.69348 0.0
C183 C 0.17734 0.90912 0.70493 0.0
H184 H 0.15602 1.03298 0.60554 0.0
H185 H 0.1604 0.89065 0.71918 0.0
H186 H 0.20592 0.22807 0.76041 0.0
H187 H 1.00878 0.37673 0.66472 0.0
H188 H 0.0866 0.94774 0.6985 0.0
H189 H 0.27055 0.87034 0.70623 0.0
H190 H 0.08885 0.29808 0.66362 0.0
H191 H 0.25212 0.99868 0.58504 0.0
H192 H 0.34995 0.87471 0.6762 0.0
H193 H 0.37356 0.90151 0.63903 0.0
H194 H 0.16756 0.26983 0.80051 0.0
H195 H 0.33618 0.94593 0.60445 0.0
H196 H 0.96335 0.42375 0.70313 0.0
N197 N 0.13387 0.26746 0.74073 0.0
C198 C 0.08765 0.30872 0.74278 0.0
C199 C 0.14411 0.28057 0.78434 0.0
C200 C 0.06623 0.33609 0.76559 0.0
C201 C 0.16472 0.25579 0.76142 0.0
C202 C 0.09395 0.32016 0.78635 0.0
N203 N 0.08606 0.29844 0.70057 0.0
C204 C 0.06863 0.31774 0.68032 0.0
C205 C 1.01913 0.37168 0.72381 0.0
C206 C 0.06439 0.32627 0.72222 0.0
C207 C 0.99827 0.38916 0.70272 0.0
C208 C 1.02362 0.36253 0.68096 0.0
H209 H 0.07864 0.33991 0.8042 0.0
H210 H 1.00204 0.40104 0.78442 0.0
H211 H 0.96077 0.43218 0.74783 0.0
O212 O 0.23768 0.29005 0.69099 0.0
O213 O 1.04521 0.1915 0.68749 0.0
O214 O 1.01358 1.06997 0.67274 0.0
O215 O 0.23071 0.3182 0.72999 0.0
O216 O 0.16157 0.20781 0.66188 0.0
O217 O 0.07287 0.10969 0.64248 0.0
O218 O 1.04127 0.92708 0.64254 0.0
O219 O 0.20611 0.09696 0.66124 0.0
O220 O 0.23533 0.16177 0.70288 0.0
O221 O 1.04086 0.99 0.61964 0.0
O222 O 0.07832 1.05426 0.6949 0.0
O223 O 0.17182 0.14597 0.7166 0.0
C224 C 0.99755 0.13143 0.68015 0.0
C225 C 0.34338 0.33616 0.72141 0.0
C226 C 0.46151 0.38283 0.71828 0.0
C227 C 0.48803 0.34493 0.73217 0.0
C228 C 0.3705 0.29921 0.73561 0.0
C229 C 0.44259 0.30371 0.74093 0.0
C230 C 0.38899 0.37779 0.71289 0.0
C231 C 0.11703 0.16245 0.6415 0.0
C232 C 0.26764 0.3296 0.71423 0.0
C233 C 1.01945 0.3798 0.7671 0.0
C234 C 0.99611 0.39772 0.74628 0.0
C235 C 0.25441 0.1281 0.68228 0.0
C236 C 0.93426 0.9115 0.61445 0.0
C237 C 0.82417 0.84016 0.61533 0.0
C238 C 0.78689 0.87485 0.60266 0.0
C239 C 0.89603 0.94502 0.60142 0.0
C240 C 0.89781 0.85857 0.62103 0.0
C241 C 0.82281 0.92674 0.59564 0.0
C242 C 0.11842 0.09899 0.71632 0.0
C243 C 1.01169 0.93212 0.62163 0.0
H244 H 0.54376 0.34792 0.73651 0.0
H245 H 0.33605 0.26631 0.7423 0.0
H246 H 0.46323 0.27482 0.75173 0.0
H247 H 0.36767 0.40532 0.70159 0.0
H248 H 0.73008 0.86142 0.598 0.0
H249 H 0.92249 0.98577 0.59588 0.0
H250 H 0.92684 0.83281 0.6312 0.0
H251 H 0.79382 0.95307 0.58578 0.0
H252 H 0.98017 0.39637 0.02339 0.0
H253 H 0.97974 0.51335 0.02292 0.0
H254 H 0.19022 0.53705 0.01108 0.0
H255 H 0.19045 0.42056 0.01162 0.0
H256 H 0.98051 0.58569 0.99448 0.0
H257 H 0.23318 0.72257 0.061 0.0
H258 H 0.24503 0.65841 0.03349 0.0
H259 H 0.19654 0.63207 0.05451 0.0
C260 C 1.02654 0.42558 0.02042 0.0
C261 C 0.08491 0.39501 0.01721 0.0
C262 C 1.02654 0.49452 0.02031 0.0
C263 C 0.08541 0.53918 0.01745 0.0
C264 C 0.14373 0.50829 0.01418 0.0
H265 H 0.1846 0.97646 0.01011 0.0
H266 H 0.1848 0.85953 0.01063 0.0
C267 C 0.14361 0.43938 0.01422 0.0
C268 C 0.08486 0.61536 0.01737 0.0
H269 H 0.18327 0.78666 0.0385 0.0
C270 C 1.02535 0.62907 0.0044 0.0
C271 C 0.14187 0.6759 0.02991 0.0
C272 C 0.20744 0.67178 0.04574 0.0
C273 C 1.0219 0.69647 0.00305 0.0
C274 C 0.07893 0.75703 0.0156 0.0
C275 C 0.13841 0.74331 0.02858 0.0
C276 C 0.07848 0.83321 0.01546 0.0
C277 C 0.95648 0.70052 0.98712 0.0
C278 C 1.01989 0.86388 0.01837 0.0
C279 C 1.02006 0.93269 0.01821 0.0
C280 C 0.07914 0.97727 0.01552 0.0
C281 C 0.13787 0.94704 0.01278 0.0
C282 C 0.13774 0.87813 0.01294 0.0
H283 H 0.93024 0.64948 0.97207 0.0
H284 H 0.91907 0.71508 0.99935 0.0
H285 H 0.96789 0.73946 0.97805 0.0
H286 H 0.97311 0.83507 0.02127 0.0
H287 H 0.97298 0.9513 0.02048 0.0
H288 H 0.27356 0.10882 0.34986 0.0
H289 H 0.39526 0.1041 0.34857 0.0
H290 H 0.45081 0.32523 0.36574 0.0
H291 H 0.32844 0.32911 0.36575 0.0
H292 H 0.51823 0.26803 0.33202 0.0
H293 H 0.55849 0.15066 0.40501 0.0
H294 H 0.48785 0.0973 0.37884 0.0
H295 H 0.48107 0.18155 0.39856 0.0
C296 C 0.31144 0.15664 0.35338 0.0
C297 C 0.2899 0.21962 0.35805 0.0
C298 C 0.38194 0.15399 0.35292 0.0
C299 C 0.43428 0.21457 0.3577 0.0
C300 C 0.41268 0.27739 0.36212 0.0
H301 H 0.89251 0.2561 0.39641 0.0
H302 H 0.76928 0.25799 0.39659 0.0
C303 C 0.342 0.27977 0.36224 0.0
C304 C 0.5107 0.21266 0.35765 0.0
H305 H 0.6487 0.15734 0.3822 0.0
C306 C 0.54642 0.24377 0.34307 0.0
C307 C 0.54944 0.1822 0.37226 0.0
C308 C 0.51755 0.15168 0.38975 0.0
C309 C 0.61776 0.24442 0.34242 0.0
C310 C 0.65563 0.2118 0.35631 0.0
C311 C 0.62039 0.18166 0.3712 0.0
C312 C 0.73181 0.20976 0.35607 0.0
C313 C 0.65249 0.28203 0.3273 0.0
C314 C 0.75349 0.18109 0.33337 0.0
C315 C 0.82452 0.1804 0.33323 0.0
C316 C 0.87661 0.20809 0.3558 0.0
C317 C 0.85465 0.23531 0.37856 0.0
C318 C 0.78362 0.23598 0.37869 0.0
H319 H 0.62392 0.32038 0.32383 0.0
H320 H 0.70761 0.30964 0.33708 0.0
H321 H 0.65272 0.24376 0.30869 0.0
H322 H 0.71533 0.1589 0.3156 0.0
H323 H 0.83876 0.15922 0.31529 0.0
H324 H 0.71285 0.84486 0.6381 0.0
H325 H 0.65652 0.75879 0.65403 0.0
H326 H 0.7955 0.62848 0.62702 0.0
H327 H 0.85189 0.71411 0.61093 0.0
H328 H 0.5902 0.61574 0.62752 0.0
H329 H 0.82231 0.6553 0.7027 0.0
H330 H 0.81475 0.71604 0.68672 0.0
H331 H 0.83729 0.63581 0.67126 0.0
C332 C 0.73076 0.79746 0.63528 0.0
C333 C 0.78691 0.78622 0.62341 0.0
C334 C 0.69889 0.74865 0.64449 0.0
C335 C 0.72282 0.68808 0.64204 0.0
C336 C 0.77744 0.67571 0.62955 0.0
H337 H 0.56804 0.35168 0.69454 0.0
H338 H 0.63633 0.42241 0.67531 0.0
C339 C 0.80941 0.72451 0.62036 0.0
C340 C 0.69034 0.63801 0.65261 0.0
H341 H 0.72195 0.5696 0.69855 0.0
C342 C 0.619 0.60534 0.64296 0.0
C343 C 0.72845 0.62456 0.67266 0.0
C344 C 0.80482 0.66005 0.68414 0.0
C345 C 0.5843 0.56007 0.65311 0.0
C346 C 0.62188 0.54811 0.67359 0.0
C347 C 0.69367 0.57908 0.68279 0.0
C348 C 0.58584 0.50764 0.6868 0.0
C349 C 0.50749 0.52584 0.64203 0.0
C350 C 0.53709 0.53363 0.70025 0.0
C351 C 0.49862 0.49388 0.71126 0.0
C352 C 0.50837 0.42747 0.70903 0.0
C353 C 0.55973 0.40281 0.69657 0.0
C354 C 0.59839 0.44284 0.68552 0.0
H355 H 0.49098 0.52653 0.62276 0.0
H356 H 0.49558 0.47116 0.64115 0.0
H357 H 0.47579 0.55429 0.65422 0.0
H358 H 0.52786 0.5842 0.70179 0.0
H359 H 0.4603 0.51461 0.72118 0.0
H360 H 0.87935 1.02365 0.65591 0.0
H361 H 0.75581 1.02373 0.65573 0.0
H362 H 0.81658 0.23832 0.70533 0.0
H363 H 0.93923 0.23837 0.70503 0.0
H364 H 0.67885 1.03974 0.68973 0.0
H365 H 0.66818 0.25614 0.65511 0.0
H366 H 0.74254 0.21746 0.65517 0.0
H367 H 0.7338 0.28193 0.68357 0.0
C368 C 0.86672 1.07127 0.66666 0.0
C369 C 0.92086 0.13174 0.68014 0.0
C370 C 0.79532 1.0712 0.66658 0.0
C371 C 0.77491 0.13155 0.68001 0.0
C372 C 0.82907 0.1914 0.69394 0.0
H373 H 0.35979 0.1344 0.72081 0.0
H374 H 0.48359 0.13484 0.72045 0.0
C375 C 0.90028 0.19151 0.69384 0.0
C376 C 0.69788 0.13131 0.67997 0.0
H377 H 0.57036 0.21876 0.67102 0.0
C378 C 0.65551 1.07902 0.68556 0.0
C379 C 0.66535 0.18157 0.67424 0.0
C380 C 0.70457 0.23698 0.66643 0.0
C381 C 0.58369 1.07636 0.68603 0.0
C382 C 0.55203 0.12797 0.68117 0.0
C383 C 0.59386 0.17948 0.67512 0.0
C384 C 0.47562 0.12847 0.68167 0.0
C385 C 0.54176 1.01694 0.69118 0.0
C386 C 0.42857 0.12657 0.66033 0.0
C387 C 0.35747 0.12657 0.66058 0.0
C388 C 0.33081 0.12922 0.68226 0.0
C389 C 0.37799 0.13223 0.70374 0.0
C390 C 0.44908 0.13182 0.70345 0.0
H391 H 0.56718 0.97248 0.6878 0.0
H392 H 0.53757 1.03488 0.71123 0.0
H393 H 0.48788 0.99838 0.67916 0.0
H394 H 0.4467 0.12434 0.64325 0.0
H395 H 0.32332 0.12508 0.64376 0.0
H396 H 0.84183 0.76931 0.97983 0.0
H397 H 0.7617 0.70378 0.9973 0.0
H398 H 0.60671 0.8165 0.98412 0.0
H399 H 0.68613 0.88113 0.96626 0.0
H400 H 0.70017 0.76114 0.0394 0.0
H401 H 0.50004 0.60931 0.95083 0.0
H402 H 0.58764 0.65174 0.95097 0.0
H403 H 0.5231 0.70146 0.95779 0.0
C404 C 0.79035 0.77931 0.98039 0.0
C405 C 0.7701 0.82994 0.97161 0.0
C406 C 0.74488 0.74228 0.99048 0.0
C407 C 0.67812 0.75485 0.9917 0.0
C408 C 0.6577 0.80541 0.98298 0.0
H409 H 0.32447 0.59714 0.04544 0.0
H410 H 0.40763 0.66019 0.02831 0.0
C411 C 0.70328 0.84264 0.973 0.0
C412 C 0.63042 0.71645 0.00272 0.0
H413 H 0.47104 0.60381 0.9889 0.0
C414 C 0.65023 0.72637 0.02838 0.0
C415 C 0.56538 0.67143 0.98823 0.0
C416 C 0.54278 0.65719 0.96037 0.0
C417 C 0.60579 0.69353 0.04013 0.0
C418 C 0.54058 0.64863 0.02565 0.0
C419 C 0.52105 0.6384 0.99994 0.0
C420 C 0.49144 0.61205 0.03681 0.0
C421 C 0.62815 0.70861 0.06806 0.0
C422 C 0.51092 0.56391 0.04711 0.0
C423 C 0.46366 0.52842 0.05711 0.0
C424 C 0.39597 0.54022 0.05682 0.0
C425 C 0.37663 0.58817 0.04635 0.0
C426 C 0.42387 0.62369 0.03639 0.0
H427 H 0.6703 0.75701 0.07752 0.0
H428 H 0.5831 0.71368 0.07737 0.0
H429 H 0.6487 0.66505 0.0709 0.0
H430 H 0.5624 0.55323 0.04717 0.0
H431 H 0.48013 0.49191 0.06513 0.0
H432 H 0.93254 0.64704 0.40964 0.0
H433 H 0.98977 0.74726 0.40085 0.0
H434 H 0.93157 0.62539 0.32108 0.0
H435 H 0.87144 0.5276 0.32986 0.0
H436 H 0.10048 0.72457 0.38393 0.0
H437 H 0.9466 0.80871 0.31609 0.0
H438 H 0.90459 0.75992 0.33306 0.0
H439 H 0.93016 0.71613 0.30429 0.0
C440 C 0.9272 0.64374 0.39019 0.0
C441 C 0.89899 0.57965 0.37039 0.0
C442 C 0.96085 0.7007 0.38516 0.0
C443 C 0.9664 0.69358 0.36035 0.0
C444 C 0.9276 0.63302 0.34037 0.0
H445 H 0.23381 0.83621 0.27786 0.0
H446 H 0.17547 0.75766 0.2961 0.0
C447 C 0.89289 0.57675 0.34537 0.0
C448 C 1.02531 0.73895 0.35583 0.0
H449 H 0.06955 0.81678 0.31471 0.0
C450 C 0.09352 0.746 0.36911 0.0
C451 C 1.01663 0.76591 0.33627 0.0
C452 C 0.94534 0.76277 0.32186 0.0
C453 C 0.15313 0.77614 0.36252 0.0
C454 C 0.14418 0.80029 0.34229 0.0
C455 C 0.0762 0.79612 0.32976 0.0
C456 C 0.20374 0.83332 0.33416 0.0
C457 C 0.22497 0.77957 0.37657 0.0
C458 C 0.24564 0.89865 0.35006 0.0
C459 C 0.27975 0.94322 0.33965 0.0
C460 C 0.2711 0.92267 0.31333 0.0
C461 C 0.24112 0.85293 0.29822 0.0
C462 C 0.20686 0.80839 0.30859 0.0
H463 H 0.22287 0.7428 0.38688 0.0
H464 H 0.26091 0.76787 0.36348 0.0
H465 H 0.24739 0.83288 0.39061 0.0
H466 H 0.24471 0.91864 0.36989 0.0
H467 H 0.30274 0.99695 0.35162 0.0
H468 H 0.98681 0.14906 0.27119 0.0
H469 H 0.9894 0.14507 0.22836 0.0
H470 H 0.15735 0.33038 0.25792 0.0
H471 H 0.15606 0.33387 0.30097 0.0
H472 H 0.96606 0.23768 0.20606 0.0
H473 H 0.23653 0.20258 0.20528 0.0
H474 H 0.19187 0.1927 0.22956 0.0
H475 H 0.23158 0.27793 0.23059 0.0
C476 C 1.02452 0.18896 0.26867 0.0
C477 C 0.07141 0.24167 0.28962 0.0
C478 C 1.0259 0.18659 0.24408 0.0
C479 C 0.07425 0.23676 0.23975 0.0
C480 C 0.12061 0.29007 0.26064 0.0
H481 H 0.14064 0.30518 0.10136 0.0
H482 H 0.14294 0.31585 0.14526 0.0
C483 C 0.11946 0.29232 0.2853 0.0
C484 C 0.07457 0.23377 0.2134 0.0
H485 H 0.17737 0.22162 0.16992 0.0
C486 C 1.01228 0.23401 0.19818 0.0
C487 C 0.13481 0.22892 0.203 0.0
C488 C 0.20233 0.22483 0.21784 0.0
C489 C 1.00872 0.23015 0.17306 0.0
C490 C 0.06885 0.22519 0.16268 0.0
C491 C 0.13135 0.22559 0.17791 0.0
C492 C 0.06748 0.21846 0.13593 0.0
C493 C 0.94081 0.23235 0.15789 0.0
C494 C 1.025 0.15975 0.11601 0.0
C495 C 1.02391 0.15328 0.09086 0.0
C496 C 0.06514 0.20553 0.08503 0.0
C497 C 0.1081 0.26402 0.10506 0.0
C498 C 0.10948 0.27024 0.13022 0.0
H499 H 0.9052 0.25267 0.17016 0.0
H500 H 0.9508 0.26522 0.14638 0.0
H501 H 0.91349 0.17896 0.14482 0.0
H502 H 0.99318 0.11844 0.11991 0.0
H503 H 0.99137 0.10681 0.07599 0.0
H504 H 1.00723 0.22014 0.42608 0.0
H505 H 1.02139 0.21314 0.46809 0.0
H506 H 0.20087 0.12633 0.45676 0.0
H507 H 0.18688 0.13357 0.41435 0.0
H508 H 0.11243 1.06139 0.48056 0.0
H509 H 0.17446 0.34704 0.52828 0.0
H510 H 0.0938 0.31457 0.50489 0.0
H511 H 0.17526 0.30577 0.49544 0.0
C512 C 1.04993 0.19975 0.43253 0.0
C513 C 0.09692 0.17888 0.41715 0.0
C514 C 1.05802 0.19587 0.45659 0.0
C515 C 0.11343 0.17116 0.46594 0.0
C516 C 0.15827 0.14649 0.45008 0.0
H517 H 0.21963 0.24206 0.62842 0.0
H518 H 0.22552 0.24297 0.58609 0.0
C519 C 0.15007 0.15031 0.42584 0.0
C520 C 0.12409 0.17205 0.49233 0.0
H521 H 0.14317 0.27957 0.55341 0.0
C522 C 0.11987 0.10915 0.49652 0.0
C523 C 0.1354 0.23453 0.5133 0.0
C524 C 0.14577 0.30441 0.51035 0.0
C525 C 0.12327 0.1067 0.52091 0.0
C526 C 0.12953 0.16863 0.54163 0.0
C527 C 0.13717 0.23189 0.53757 0.0
C528 C 0.12607 0.16863 0.56745 0.0
C529 C 0.12041 1.03772 0.52422 0.0
C530 C 0.06745 0.12813 0.57129 0.0
C531 C 1.06397 0.12754 0.59539 0.0
C532 C 0.11869 0.16813 0.6164 0.0
C533 C 0.17644 0.21042 0.61271 0.0
C534 C 0.18003 0.2107 0.58848 0.0
H535 H 0.1387 1.00154 0.50894 0.0
H536 H 0.15297 1.04418 0.54269 0.0
H537 H 0.06534 1.01328 0.52338 0.0
H538 H 1.02409 0.0969 0.55559 0.0
H539 H 1.01836 0.09484 0.59752 0.0
H540 H 0.21221 1.07125 0.74892 0.0
H541 H 0.2048 1.0728 0.79134 0.0
H542 H 1.00144 0.11986 0.78147 0.0
H543 H 1.00711 0.11302 0.73835 0.0
H544 H 0.20535 0.1713 0.83019 0.0
H545 H 0.95537 0.98136 0.81257 0.0
H546 H 0.99539 0.99037 0.78723 0.0
H547 H 0.94188 1.04805 0.80047 0.0
C548 C 0.16509 1.07969 0.75564 0.0
C549 C 0.10963 0.09063 0.74034 0.0
C550 C 0.161 1.08123 0.77996 0.0
C551 C 0.10204 0.09546 0.78978 0.0
C552 C 1.04639 0.10615 0.77427 0.0
H553 H 0.13804 0.26801 0.95328 0.0
H554 H 0.13729 0.25005 0.90894 0.0
C555 C 1.04964 0.10252 0.74962 0.0
C556 C 0.10148 0.10382 0.81671 0.0
H557 H 1.00126 1.05942 0.85529 0.0
C558 C 0.16086 0.14602 0.83555 0.0
C559 C 1.04413 1.07044 0.82402 0.0
C560 C 0.98102 1.01945 0.80496 0.0
C561 C 0.16448 0.15604 0.86121 0.0
C562 C 0.10547 0.12614 0.86868 0.0
C563 C 1.04631 0.08335 0.84983 0.0
C564 C 0.10421 0.13768 0.89579 0.0
C565 C 0.23269 0.19683 0.87981 0.0
C566 C 0.08246 1.08113 0.90333 0.0
C567 C 0.08049 0.09169 0.92861 0.0
C568 C 0.10134 0.15892 0.94701 0.0
C569 C 0.12291 0.21548 0.93956 0.0
C570 C 0.12302 0.20512 0.91418 0.0
H571 H 0.27794 0.19418 0.87049 0.0
H572 H 0.23121 0.25232 0.88769 0.0
H573 H 0.24205 0.17741 0.89557 0.0
H574 H 0.06739 1.02855 0.88967 0.0
H575 H 1.06383 1.04711 0.93383 0.0
loop_
_geom_bond_atom_site_label_1
_geom_bond_atom_site_label_2
_geom_bond_distance
_geom_bond_site_symmetry_2
_ccdc_geom_bond_type
Tb0 N29 2.617 1_554 S
Tb0 N35 2.572 . S
Tb0 O44 2.465 . S
Tb0 O45 2.387 . S
Tb0 O47 2.428 1_544 S
Tb0 O48 2.308 . S
Tb0 O52 2.349 . S
Tb0 O55 2.393 1_554 S
Tb0 C64 2.802 1_544 S
C1 N2 1.379 . S
C1 C4 1.416 . S
C1 C8 1.424 . S
N2 C1 1.379 . S
N2 C5 1.334 . S
N2 Tb11 2.617 . S
C3 C5 1.390 . S
C3 C6 1.339 . S
C3 H23 0.930 . S
C4 C1 1.416 . S
C4 C6 1.416 . S
C4 C10 1.448 . S
C5 N2 1.334 . S
C5 C3 1.390 . S
C5 H16 0.930 . S
C6 C3 1.339 . S
C6 C4 1.416 . S
C6 H27 0.930 . S
C7 C8 1.413 . S
C7 C9 1.427 . S
C7 C13 1.416 1_554 S
C8 C1 1.424 . S
C8 C7 1.413 . S
C8 N12 1.361 . S
C9 C7 1.427 . S
C9 C10 1.328 . S
C9 H24 0.929 . S
C10 C4 1.448 . S
C10 C9 1.328 . S
C10 H25 0.930 . S
Tb11 N2 2.617 . S
Tb11 N12 2.572 . S
Tb11 O46 2.349 . S
Tb11 O49 2.393 . S
Tb11 O50 2.465 . S
Tb11 O51 2.387 . S
Tb11 O53 2.428 . S
Tb11 O54 2.308 1_554 S
Tb11 C75 2.802 . S
N12 C8 1.361 . S
N12 Tb11 2.572 . S
N12 C14 1.340 1_554 S
C13 C7 1.416 1_556 S
C13 C15 1.332 . S
C13 H21 0.931 . S
C14 N12 1.340 1_556 S
C14 C15 1.407 . S
C14 H20 0.930 . S
C15 C13 1.332 . S
C15 C14 1.407 . S
C15 H17 0.929 . S
H16 C5 0.930 . S
H17 C15 0.929 . S
H18 C33 0.930 . S
H19 C40 0.929 . S
H20 C14 0.930 . S
H21 C13 0.931 . S
H22 C36 0.930 . S
H23 C3 0.930 . S
H24 C9 0.929 . S
H25 C10 0.930 . S
H26 C31 0.930 . S
H27 C6 0.930 . S
H28 C39 0.931 . S
N29 Tb0 2.617 1_556 S
N29 C30 1.379 . S
N29 C33 1.334 . S
C30 N29 1.379 . S
C30 C32 1.416 . S
C30 C38 1.424 1_556 S
C31 H26 0.930 . S
C31 C33 1.390 . S
C31 C34 1.339 . S
C32 C30 1.416 . S
C32 C34 1.416 . S
C32 C65 1.448 . S
C33 H18 0.930 . S
C33 N29 1.334 . S
C33 C31 1.390 . S
C34 C31 1.339 . S
C34 C32 1.416 . S
C34 H41 0.930 . S
N35 Tb0 2.572 . S
N35 C36 1.340 . S
N35 C38 1.361 . S
C36 H22 0.930 . S
C36 N35 1.340 . S
C36 C40 1.407 . S
C37 C38 1.413 . S
C37 C39 1.416 . S
C37 C66 1.427 1_554 S
C38 C30 1.424 1_554 S
C38 N35 1.361 . S
C38 C37 1.413 . S
C39 H28 0.931 . S
C39 C37 1.416 . S
C39 C40 1.332 . S
C40 H19 0.929 . S
C40 C36 1.407 . S
C40 C39 1.332 . S
H41 C34 0.930 . S
H42 C65 0.930 . S
H43 C66 0.929 . S
O44 Tb0 2.465 . S
O44 C64 1.264 1_544 S
O45 Tb0 2.387 . S
O45 C56 1.264 . S
O46 Tb11 2.349 . S
O46 C56 1.243 1_455 S
O47 Tb0 2.428 1_566 S
O47 C64 1.256 . S
O48 Tb0 2.308 . S
O48 C63 1.266 1_655 S
O49 Tb11 2.393 . S
O49 C63 1.248 . S
O50 Tb11 2.465 . S
O50 C75 1.264 . S
O51 Tb11 2.387 . S
O51 C67 1.264 . S
O52 Tb0 2.349 . S
O52 C67 1.243 1_655 S
O53 Tb11 2.428 . S
O53 C75 1.256 . S
O54 Tb11 2.308 1_556 S
O54 C74 1.266 . S
O55 Tb0 2.393 1_556 S
O55 C74 1.248 1_655 S
C56 O45 1.264 . S
C56 O46 1.243 1_655 S
C57 C60 1.399 . S
C57 C62 1.383 1_556 S
C57 C64 1.496 . S
C58 C59 1.399 1_554 S
C58 C62 1.389 . S
C59 C58 1.399 1_556 S
C59 C61 1.380 . S
C59 H76 0.929 . S
C60 C57 1.399 . S
C60 C61 1.392 . S
C60 H77 0.929 . S
C61 C59 1.380 . S
C61 C60 1.392 . S
C61 H78 0.929 . S
C62 C57 1.383 1_554 S
C62 C58 1.389 . S
C62 H79 0.931 . S
C63 O48 1.266 1_455 S
C63 O49 1.248 . S
C64 Tb0 2.802 1_566 S
C64 O44 1.264 1_566 S
C64 O47 1.256 . S
C64 C57 1.496 . S
C65 C32 1.448 . S
C65 H42 0.930 . S
C65 C66 1.328 . S
C66 C37 1.427 1_556 S
C66 H43 0.929 . S
C66 C65 1.328 . S
C67 O51 1.264 . S
C67 O52 1.243 1_455 S
C68 C71 1.399 . S
C68 C72 1.383 . S
C68 C75 1.496 . S
C69 C70 1.399 . S
C69 C72 1.389 . S
C70 C69 1.399 . S
C70 C73 1.380 . S
C70 H80 0.929 . S
C71 C68 1.399 . S
C71 C73 1.392 . S
C71 H81 0.929 . S
C72 C68 1.383 . S
C72 C69 1.389 . S
C72 H82 0.931 1_554 S
C73 C70 1.380 . S
C73 C71 1.392 . S
C73 H83 0.929 . S
C74 O54 1.266 . S
C74 O55 1.248 1_455 S
C75 Tb11 2.802 . S
C75 O50 1.264 . S
C75 O53 1.256 . S
C75 C68 1.496 . S
H76 C59 0.929 . S
H77 C60 0.929 . S
H78 C61 0.929 . S
H79 C62 0.931 . S
H80 C70 0.929 . S
H81 C71 0.929 . S
H82 C72 0.931 1_556 S
H83 C73 0.929 . S
Tb84 N113 2.617 1_545 S
Tb84 N119 2.572 1_545 S
Tb84 O128 2.465 1_645 S
Tb84 O129 2.387 . S
Tb84 O131 2.428 1_645 S
Tb84 O132 2.308 1_655 S
Tb84 O136 2.349 1_655 S
Tb84 O139 2.393 1_655 S
Tb84 C148 2.802 1_645 S
C85 N86 1.379 . S
C85 C88 1.416 . S
C85 C92 1.424 . S
N86 C85 1.379 . S
N86 C89 1.334 . S
N86 Tb95 2.617 . S
C87 C89 1.390 . S
C87 C90 1.339 . S
C87 H107 0.930 . S
C88 C85 1.416 . S
C88 C90 1.416 . S
C88 C94 1.448 . S
C89 N86 1.334 . S
C89 C87 1.390 . S
C89 H100 0.930 . S
C90 C87 1.339 . S
C90 C88 1.416 . S
C90 H111 0.930 . S
C91 C92 1.413 . S
C91 C93 1.427 . S
C91 C97 1.416 . S
C92 C85 1.424 . S
C92 C91 1.413 . S
C92 N96 1.361 . S
C93 C91 1.427 . S
C93 C94 1.328 . S
C93 H108 0.929 . S
C94 C88 1.448 . S
C94 C93 1.328 . S
C94 H109 0.930 . S
Tb95 N86 2.617 . S
Tb95 N96 2.572 . S
Tb95 O130 2.349 1_455 S
Tb95 O133 2.393 . S
Tb95 O134 2.465 . S
Tb95 O135 2.387 . S
Tb95 O137 2.428 . S
Tb95 O138 2.308 . S
Tb95 C159 2.802 . S
N96 C92 1.361 . S
N96 Tb95 2.572 . S
N96 C98 1.340 . S
C97 C91 1.416 . S
C97 C99 1.332 . S
C97 H105 0.931 . S
C98 N96 1.340 . S
C98 C99 1.407 . S
C98 H104 0.930 . S
C99 C97 1.332 . S
C99 C98 1.407 . S
C99 H101 0.929 . S
H100 C89 0.930 . S
H101 C99 0.929 . S
H102 C117 0.925 1_545 S
H103 C124 0.929 . S
H104 C98 0.930 . S
H105 C97 0.931 . S
H106 C120 0.930 1_545 S
H107 C87 0.930 . S
H108 C93 0.929 . S
H109 C94 0.930 . S
H110 C115 0.930 . S
H111 C90 0.930 . S
H112 C123 0.931 . S
N113 Tb84 2.617 1_565 S
N113 C114 1.379 . S
N113 C117 1.334 . S
C114 N113 1.379 . S
C114 C116 1.416 . S
C114 C122 1.424 . S
C115 H110 0.930 . S
C115 C117 1.390 . S
C115 C118 1.339 . S
C116 C114 1.416 . S
C116 C118 1.416 . S
C116 C149 1.448 . S
C117 H102 0.925 1_565 S
C117 N113 1.334 . S
C117 C115 1.390 . S
C118 C115 1.339 . S
C118 C116 1.416 . S
C118 H125 0.930 . S
N119 Tb84 2.572 1_565 S
N119 C120 1.340 . S
N119 C122 1.361 . S
C120 H106 0.930 1_565 S
C120 N119 1.340 . S
C120 C124 1.407 . S
C121 C122 1.413 . S
C121 C123 1.416 . S
C121 C150 1.427 . S
C122 C114 1.424 . S
C122 N119 1.361 . S
C122 C121 1.413 . S
C123 H112 0.931 . S
C123 C121 1.416 . S
C123 C124 1.332 . S
C124 H103 0.929 . S
C124 C120 1.407 . S
C124 C123 1.332 . S
H125 C118 0.930 . S
H126 C149 0.930 . S
H127 C150 0.929 . S
O128 Tb84 2.465 1_465 S
O128 C148 1.264 . S
O129 Tb84 2.387 . S
O129 C140 1.264 . S
O130 Tb95 2.349 1_655 S
O130 C140 1.243 . S
O131 Tb84 2.428 1_465 S
O131 C148 1.256 . S
O132 Tb84 2.308 1_455 S
O132 C147 1.266 . S
O133 Tb95 2.393 . S
O133 C147 1.248 . S
O134 Tb95 2.465 . S
O134 C159 1.264 . S
O135 Tb95 2.387 . S
O135 C151 1.264 . S
O136 Tb84 2.349 1_455 S
O136 C151 1.243 . S
O137 Tb95 2.428 . S
O137 C159 1.256 . S
O138 Tb95 2.308 . S
O138 C158 1.266 . S
O139 Tb84 2.393 1_455 S
O139 C158 1.248 . S
C140 O129 1.264 . S
C140 O130 1.243 . S
C141 C144 1.399 . S
C141 C146 1.383 . S
C141 C148 1.496 . S
C142 C143 1.399 . S
C142 C146 1.389 . S
C143 C142 1.399 . S
C143 C145 1.380 . S
C143 H160 0.929 . S
C144 C141 1.399 . S
C144 C145 1.392 . S
C144 H161 0.929 . S
C145 C143 1.380 . S
C145 C144 1.392 . S
C145 H162 0.929 . S
C146 C141 1.383 . S
C146 C142 1.389 . S
C146 H163 0.931 . S
C147 O132 1.266 . S
C147 O133 1.248 . S
C148 Tb84 2.802 1_465 S
C148 O128 1.264 . S
C148 O131 1.256 . S
C148 C141 1.496 . S
C149 C116 1.448 . S
C149 H126 0.930 . S
C149 C150 1.328 . S
C150 C121 1.427 . S
C150 H127 0.929 . S
C150 C149 1.328 . S
C151 O135 1.264 . S
C151 O136 1.243 . S
C152 C155 1.399 . S
C152 C156 1.383 . S
C152 C159 1.496 . S
C153 C154 1.399 . S
C153 C156 1.389 . S
C154 C153 1.399 . S
C154 C157 1.380 . S
C154 H164 0.937 . S
C155 C152 1.399 . S
C155 C157 1.392 . S
C155 H165 0.929 . S
C156 C152 1.383 . S
C156 C153 1.389 . S
C156 H166 0.931 . S
C157 C154 1.380 . S
C157 C155 1.392 . S
C157 H167 0.929 . S
C158 O138 1.266 . S
C158 O139 1.248 . S
C159 Tb95 2.802 . S
C159 O134 1.264 . S
C159 O137 1.256 . S
C159 C152 1.496 . S
H160 C143 0.929 . S
H161 C144 0.929 . S
H162 C145 0.929 . S
H163 C146 0.931 . S
H164 C154 0.937 . S
H165 C155 0.929 . S
H166 C156 0.931 . S
H167 C157 0.929 . S
Tb168 N197 2.617 . S
Tb168 N203 2.572 . S
Tb168 O212 2.465 . S
Tb168 O213 2.387 . S
Tb168 O215 2.428 . S
Tb168 O216 2.308 . S
Tb168 O220 2.349 . S
Tb168 O223 2.393 . S
Tb168 C232 2.802 . S
C169 N170 1.379 . S
C169 C172 1.416 . S
C169 C176 1.424 . S
N170 C169 1.379 . S
N170 C173 1.334 . S
N170 Tb179 2.617 . S
C171 C173 1.390 . S
C171 C174 1.339 . S
C171 H191 0.930 . S
C172 C169 1.416 . S
C172 C174 1.416 . S
C172 C178 1.448 . S
C173 N170 1.334 . S
C173 C171 1.390 . S
C173 H184 0.930 . S
C174 C171 1.339 . S
C174 C172 1.416 . S
C174 H195 0.930 . S
C175 C176 1.413 . S
C175 C177 1.427 . S
C175 C181 1.416 . S
C176 C169 1.424 . S
C176 C175 1.413 . S
C176 N180 1.361 . S
C177 C175 1.427 . S
C177 C178 1.328 . S
C177 H192 0.929 . S
C178 C172 1.448 . S
C178 C177 1.328 . S
C178 H193 0.930 . S
Tb179 N170 2.617 . S
Tb179 N180 2.572 . S
Tb179 O214 2.349 1_455 S
Tb179 O217 2.393 . S
Tb179 O218 2.465 1_455 S
Tb179 O219 2.387 . S
Tb179 O221 2.428 1_455 S
Tb179 O222 2.308 . S
Tb179 C243 2.802 1_455 S
N180 C176 1.361 . S
N180 Tb179 2.572 . S
N180 C182 1.340 . S
C181 C175 1.416 . S
C181 C183 1.332 . S
C181 H189 0.931 . S
C182 N180 1.340 . S
C182 C183 1.407 . S
C182 H188 0.930 . S
C183 C181 1.332 . S
C183 C182 1.407 . S
C183 H185 0.929 . S
H184 C173 0.930 . S
H185 C183 0.929 . S
H186 C201 0.930 . S
H187 C208 0.929 1_655 S
H188 C182 0.930 . S
H189 C181 0.931 . S
H190 C204 0.930 . S
H191 C171 0.930 . S
H192 C177 0.929 . S
H193 C178 0.930 . S
H194 C199 0.930 . S
H195 C174 0.930 . S
H196 C207 0.931 . S
N197 Tb168 2.617 . S
N197 C198 1.379 . S
N197 C201 1.334 . S
C198 N197 1.379 . S
C198 C200 1.416 . S
C198 C206 1.424 . S
C199 H194 0.930 . S
C199 C201 1.390 . S
C199 C202 1.339 . S
C200 C198 1.416 . S
C200 C202 1.416 . S
C200 C233 1.448 1_455 S
C201 H186 0.930 . S
C201 N197 1.334 . S
C201 C199 1.390 . S
C202 C199 1.339 . S
C202 C200 1.416 . S
C202 H209 0.930 . S
N203 Tb168 2.572 . S
N203 C204 1.340 . S
N203 C206 1.361 . S
C204 H190 0.930 . S
C204 N203 1.340 . S
C204 C208 1.407 . S
C205 C206 1.401 1_655 S
C205 C207 1.418 . S
C205 C234 1.436 . S
C206 C198 1.424 . S
C206 N203 1.361 . S
C206 C205 1.401 1_455 S
C207 H196 0.931 . S
C207 C205 1.418 . S
C207 C208 1.332 1_655 S
C208 H187 0.929 1_455 S
C208 C204 1.407 . S
C208 C207 1.332 1_455 S
H209 C202 0.930 . S
H210 C233 0.930 . S
H211 C234 0.929 . S
O212 Tb168 2.465 . S
O212 C232 1.264 . S
O213 Tb168 2.387 . S
O213 C224 1.264 1_455 S
O214 Tb179 2.349 1_655 S
O214 C224 1.243 1_565 S
O215 Tb168 2.428 . S
O215 C232 1.256 . S
O216 Tb168 2.308 . S
O216 C231 1.266 . S
O217 Tb179 2.393 . S
O217 C231 1.248 1_565 S
O218 Tb179 2.465 1_655 S
O218 C243 1.264 . S
O219 Tb179 2.387 . S
O219 C235 1.264 1_565 S
O220 Tb168 2.349 . S
O220 C235 1.243 . S
O221 Tb179 2.428 1_655 S
O221 C243 1.256 . S
O222 Tb179 2.308 . S
O222 C242 1.266 1_565 S
O223 Tb168 2.393 . S
O223 C242 1.248 . S
C224 O213 1.264 1_655 S
C224 O214 1.243 1_545 S
C225 C228 1.399 . S
C225 C230 1.383 . S
C225 C232 1.496 . S
C226 C227 1.399 . S
C226 C230 1.389 . S
C227 C226 1.399 . S
C227 C229 1.380 . S
C227 H244 0.929 . S
C228 C225 1.399 . S
C228 C229 1.392 . S
C228 H245 0.929 . S
C229 C227 1.380 . S
C229 C228 1.392 . S
C229 H246 0.929 . S
C230 C225 1.383 . S
C230 C226 1.389 . S
C230 H247 0.931 . S
C231 O216 1.266 . S
C231 O217 1.248 1_545 S
C232 Tb168 2.802 . S
C232 O212 1.264 . S
C232 O215 1.256 . S
C232 C225 1.496 . S
C233 C200 1.448 1_655 S
C233 H210 0.930 . S
C233 C234 1.328 . S
C234 C205 1.436 . S
C234 H211 0.929 . S
C234 C233 1.328 . S
C235 O219 1.264 1_545 S
C235 O220 1.243 . S
C236 C239 1.399 . S
C236 C240 1.383 . S
C236 C243 1.496 . S
C237 C238 1.399 . S
C237 C240 1.389 . S
C238 C237 1.399 . S
C238 C241 1.380 . S
C238 H248 0.929 . S
C239 C236 1.399 . S
C239 C241 1.392 . S
C239 H249 0.929 . S
C240 C236 1.383 . S
C240 C237 1.389 . S
C240 H250 0.931 . S
C241 C238 1.380 . S
C241 C239 1.392 . S
C241 H251 0.929 . S
C242 O222 1.266 1_545 S
C242 O223 1.248 . S
C243 Tb179 2.802 1_655 S
C243 O218 1.264 . S
C243 O221 1.256 . S
C243 C236 1.496 . S
H244 C227 0.929 . S
H245 C228 0.929 . S
H246 C229 0.929 . S
H247 C230 0.931 . S
H248 C238 0.929 . S
H249 C239 0.929 . S
H250 C240 0.931 . S
H251 C241 0.929 . S
H252 C260 0.929 . S
H253 C262 0.930 . S
H254 C264 0.930 . S
H255 C267 0.929 . S
H256 C270 0.930 1_556 S
H257 C272 0.960 . S
H258 C272 0.960 . S
H259 C272 0.960 . S
C260 H252 0.929 . S
C260 C261 1.377 1_556 S
C260 C262 1.384 . S
C261 C260 1.377 1_554 S
C261 C267 1.390 1_655 S
C262 H253 0.930 . S
C262 C260 1.384 . S
C262 C263 1.373 1_656 S
C263 C262 1.373 1_454 S
C263 C264 1.401 . S
C263 C268 1.487 . S
C264 H254 0.930 . S
C264 C263 1.401 . S
C264 C267 1.386 . S
H265 C281 0.930 . S
H266 C282 0.931 . S
C267 H255 0.929 . S
C267 C261 1.390 1_455 S
C267 C264 1.386 . S
C268 C263 1.487 . S
C268 C270 1.395 1_455 S
C268 C271 1.403 . S
H269 C275 0.930 . S
C270 H256 0.930 1_554 S
C270 C268 1.395 1_655 S
C270 C273 1.403 . S
C271 C268 1.403 . S
C271 C272 1.524 . S
C271 C275 1.400 . S
C272 H257 0.960 . S
C272 H258 0.960 . S
C272 H259 0.960 . S
C272 C271 1.524 . S
C273 C270 1.403 . S
C273 C274 1.392 . S
C273 C277 1.495 1_554 S
C274 C273 1.392 . S
C274 C275 1.385 1_655 S
C274 C276 1.476 . S
C275 H269 0.930 . S
C275 C271 1.400 . S
C275 C274 1.385 1_455 S
C276 C274 1.476 . S
C276 C278 1.381 1_554 S
C276 C282 1.384 1_655 S
C277 C273 1.495 1_556 S
C277 H283 0.959 . S
C277 H284 0.961 1_556 S
C277 H285 0.960 . S
C278 C276 1.381 1_556 S
C278 C279 1.394 1_655 S
C278 H286 0.930 . S
C279 C278 1.394 1_455 S
C279 C280 1.383 1_556 S
C279 H287 0.929 1_455 S
C280 C279 1.383 1_554 S
C280 C281 1.377 . S
C281 H265 0.930 . S
C281 C280 1.377 . S
C281 C282 1.379 . S
C282 H266 0.931 . S
C282 C276 1.384 1_455 S
C282 C281 1.379 . S
H283 C277 0.959 . S
H284 C277 0.961 1_554 S
H285 C277 0.960 . S
H286 C278 0.930 . S
H287 C279 0.929 1_655 S
H288 C296 0.929 . S
H289 C298 0.930 . S
H290 C300 0.930 . S
H291 C303 0.929 . S
H292 C306 0.930 . S
H293 C308 0.960 . S
H294 C308 0.960 . S
H295 C308 0.960 . S
C296 H288 0.929 . S
C296 C297 1.377 . S
C296 C298 1.384 . S
C297 C296 1.377 . S
C297 C303 1.390 . S
C298 H289 0.930 . S
C298 C296 1.384 . S
C298 C299 1.372 . S
C299 C298 1.372 . S
C299 C300 1.400 . S
C299 C304 1.490 . S
C300 H290 0.930 . S
C300 C299 1.400 . S
C300 C303 1.386 . S
H301 C317 0.930 . S
H302 C318 0.931 . S
C303 H291 0.929 . S
C303 C297 1.390 . S
C303 C300 1.386 . S
C304 C299 1.490 . S
C304 C306 1.395 . S
C304 C307 1.403 . S
H305 C311 0.930 . S
C306 H292 0.930 . S
C306 C304 1.395 . S
C306 C309 1.403 . S
C307 C304 1.403 . S
C307 C308 1.524 . S
C307 C311 1.400 . S
C308 H293 0.960 . S
C308 H294 0.960 . S
C308 H295 0.960 . S
C308 C307 1.524 . S
C309 C306 1.403 . S
C309 C310 1.392 . S
C309 C313 1.495 . S
C310 C309 1.392 . S
C310 C311 1.385 . S
C310 C312 1.478 . S
C311 H305 0.930 . S
C311 C307 1.400 . S
C311 C310 1.385 . S
C312 C310 1.478 . S
C312 C314 1.381 . S
C312 C318 1.383 . S
C313 C309 1.495 . S
C313 H319 0.959 . S
C313 H320 0.961 . S
C313 H321 0.960 . S
C314 C312 1.381 . S
C314 C315 1.394 . S
C314 H322 0.930 . S
C315 C314 1.394 . S
C315 C316 1.383 . S
C315 H323 0.929 . S
C316 C315 1.383 . S
C316 C317 1.377 . S
C317 H301 0.930 . S
C317 C316 1.377 . S
C317 C318 1.379 . S
C318 H302 0.931 . S
C318 C312 1.383 . S
C318 C317 1.379 . S
H319 C313 0.959 . S
H320 C313 0.961 . S
H321 C313 0.960 . S
H322 C314 0.930 . S
H323 C315 0.929 . S
H324 C332 0.929 . S
H325 C334 0.930 . S
H326 C336 0.930 . S
H327 C339 0.929 . S
H328 C342 0.930 . S
H329 C344 0.960 . S
H330 C344 0.960 . S
H331 C344 0.960 . S
C332 H324 0.929 . S
C332 C333 1.377 . S
C332 C334 1.384 . S
C333 C332 1.377 . S
C333 C339 1.390 . S
C334 H325 0.930 . S
C334 C332 1.384 . S
C334 C335 1.372 . S
C335 C334 1.372 . S
C335 C336 1.400 . S
C335 C340 1.490 . S
C336 H326 0.930 . S
C336 C335 1.400 . S
C336 C339 1.386 . S
H337 C353 0.930 . S
H338 C354 0.931 . S
C339 H327 0.929 . S
C339 C333 1.390 . S
C339 C336 1.386 . S
C340 C335 1.490 . S
C340 C342 1.395 . S
C340 C343 1.403 . S
H341 C347 0.930 . S
C342 H328 0.930 . S
C342 C340 1.395 . S
C342 C345 1.403 . S
C343 C340 1.403 . S
C343 C344 1.524 . S
C343 C347 1.400 . S
C344 H329 0.960 . S
C344 H330 0.960 . S
C344 H331 0.960 . S
C344 C343 1.524 . S
C345 C342 1.403 . S
C345 C346 1.392 . S
C345 C349 1.495 . S
C346 C345 1.392 . S
C346 C347 1.385 . S
C346 C348 1.478 . S
C347 H341 0.930 . S
C347 C343 1.400 . S
C347 C346 1.385 . S
C348 C346 1.478 . S
C348 C350 1.381 . S
C348 C354 1.383 . S
C349 C345 1.495 . S
C349 H355 0.959 . S
C349 H356 0.961 . S
C349 H357 0.960 . S
C350 C348 1.381 . S
C350 C351 1.394 . S
C350 H358 0.930 . S
C351 C350 1.394 . S
C351 C352 1.383 . S
C351 H359 0.929 . S
C352 C351 1.383 . S
C352 C353 1.377 . S
C353 H337 0.930 . S
C353 C352 1.377 . S
C353 C354 1.379 . S
C354 H338 0.931 . S
C354 C348 1.383 . S
C354 C353 1.379 . S
H355 C349 0.959 . S
H356 C349 0.961 . S
H357 C349 0.960 . S
H358 C350 0.930 . S
H359 C351 0.929 . S
H360 C368 0.929 . S
H361 C370 0.930 . S
H362 C372 0.930 . S
H363 C375 0.929 . S
H364 C378 0.930 . S
H365 C380 0.960 . S
H366 C380 0.960 . S
H367 C380 0.960 . S
C368 H360 0.929 . S
C368 C369 1.377 1_565 S
C368 C370 1.384 . S
C369 C368 1.377 1_545 S
C369 C375 1.390 . S
C370 H361 0.930 . S
C370 C368 1.384 . S
C370 C371 1.372 1_565 S
C371 C370 1.372 1_545 S
C371 C372 1.400 . S
C371 C376 1.490 . S
C372 H362 0.930 . S
C372 C371 1.400 . S
C372 C375 1.386 . S
H373 C389 0.930 . S
H374 C390 0.931 . S
C375 H363 0.929 . S
C375 C369 1.390 . S
C375 C372 1.386 . S
C376 C371 1.490 . S
C376 C378 1.395 1_545 S
C376 C379 1.403 . S
H377 C383 0.930 . S
C378 H364 0.930 . S
C378 C376 1.395 1_565 S
C378 C381 1.403 . S
C379 C376 1.403 . S
C379 C380 1.524 . S
C379 C383 1.400 . S
C380 H365 0.960 . S
C380 H366 0.960 . S
C380 H367 0.960 . S
C380 C379 1.524 . S
C381 C378 1.403 . S
C381 C382 1.392 1_565 S
C381 C385 1.495 . S
C382 C381 1.392 1_545 S
C382 C383 1.385 . S
C382 C384 1.478 . S
C383 H377 0.930 . S
C383 C379 1.400 . S
C383 C382 1.385 . S
C384 C382 1.478 . S
C384 C386 1.381 1_545 S
C384 C390 1.383 . S
C385 C381 1.495 . S
C385 H391 0.959 . S
C385 H392 0.961 . S
C385 H393 0.960 . S
C386 C384 1.381 1_565 S
C386 C387 1.394 . S
C386 H394 0.930 . S
C387 C386 1.394 . S
C387 C388 1.383 1_565 S
C387 H395 0.929 . S
C388 C387 1.383 1_545 S
C388 C389 1.377 . S
C389 H373 0.930 . S
C389 C388 1.377 . S
C389 C390 1.379 . S
C390 H374 0.931 . S
C390 C384 1.383 . S
C390 C389 1.379 . S
H391 C385 0.959 . S
H392 C385 0.961 . S
H393 C385 0.960 . S
H394 C386 0.930 . S
H395 C387 0.929 . S
H396 C404 0.929 1_556 S
H397 C406 0.930 1_556 S
H398 C408 0.930 . S
H399 C411 0.929 . S
H400 C414 0.930 . S
H401 C416 0.960 . S
H402 C416 0.960 . S
H403 C416 0.960 . S
C404 H396 0.929 1_554 S
C404 C405 1.377 . S
C404 C406 1.384 . S
C405 C404 1.377 . S
C405 C411 1.390 . S
C406 H397 0.930 1_554 S
C406 C404 1.384 . S
C406 C407 1.372 . S
C407 C406 1.372 . S
C407 C408 1.400 . S
C407 C412 1.490 . S
C408 H398 0.930 . S
C408 C407 1.400 . S
C408 C411 1.386 . S
H409 C425 0.930 . S
H410 C426 0.931 . S
C411 H399 0.929 . S
C411 C405 1.390 . S
C411 C408 1.386 . S
C412 C407 1.490 . S
C412 C414 1.395 . S
C412 C415 1.403 . S
H413 C419 0.930 . S
C414 H400 0.930 . S
C414 C412 1.395 . S
C414 C417 1.403 . S
C415 C412 1.403 . S
C415 C416 1.524 . S
C415 C419 1.400 . S
C416 H401 0.960 . S
C416 H402 0.960 . S
C416 H403 0.960 . S
C416 C415 1.524 . S
C417 C414 1.403 . S
C417 C418 1.392 . S
C417 C421 1.495 . S
C418 C417 1.392 . S
C418 C419 1.385 . S
C418 C420 1.478 . S
C419 H413 0.930 . S
C419 C415 1.400 . S
C419 C418 1.385 . S
C420 C418 1.478 . S
C420 C422 1.381 1_554 S
C420 C426 1.383 . S
C421 C417 1.495 . S
C421 H427 0.959 . S
C421 H428 0.961 . S
C421 H429 0.960 1_554 S
C422 C420 1.381 1_556 S
C422 C423 1.394 . S
C422 H430 0.930 . S
C423 C422 1.394 . S
C423 C424 1.383 1_556 S
C423 H431 0.929 . S
C424 C423 1.383 1_554 S
C424 C425 1.377 . S
C425 H409 0.930 . S
C425 C424 1.377 . S
C425 C426 1.379 . S
C426 H410 0.931 . S
C426 C420 1.383 . S
C426 C425 1.379 . S
H427 C421 0.959 . S
H428 C421 0.961 . S
H429 C421 0.960 1_556 S
H430 C422 0.930 . S
H431 C423 0.929 . S
H432 C440 0.929 . S
H433 C442 0.930 . S
H434 C444 0.930 . S
H435 C447 0.929 . S
H436 C450 0.930 . S
H437 C452 0.960 . S
H438 C452 0.960 . S
H439 C452 0.960 . S
C440 H432 0.929 . S
C440 C441 1.377 . S
C440 C442 1.384 . S
C441 C440 1.377 . S
C441 C447 1.390 1_655 S
C442 H433 0.930 . S
C442 C440 1.384 . S
C442 C443 1.372 1_655 S
C443 C442 1.372 1_455 S
C443 C444 1.400 . S
C443 C448 1.490 . S
C444 H434 0.930 . S
C444 C443 1.400 . S
C444 C447 1.386 . S
H445 C461 0.930 . S
H446 C462 0.931 . S
C447 H435 0.929 . S
C447 C441 1.390 1_455 S
C447 C444 1.386 . S
C448 C443 1.490 . S
C448 C450 1.395 1_455 S
C448 C451 1.403 . S
H449 C455 0.930 . S
C450 H436 0.930 . S
C450 C448 1.395 1_655 S
C450 C453 1.403 . S
C451 C448 1.403 . S
C451 C452 1.524 . S
C451 C455 1.400 . S
C452 H437 0.960 . S
C452 H438 0.960 . S
C452 H439 0.960 . S
C452 C451 1.524 . S
C453 C450 1.403 . S
C453 C454 1.392 1_655 S
C453 C457 1.495 . S
C454 C453 1.392 1_455 S
C454 C455 1.385 . S
C454 C456 1.478 . S
C455 H449 0.930 . S
C455 C451 1.400 . S
C455 C454 1.385 . S
C456 C454 1.478 . S
C456 C458 1.381 . S
C456 C462 1.383 . S
C457 C453 1.495 . S
C457 H463 0.959 . S
C457 H464 0.961 . S
C457 H465 0.960 . S
C458 C456 1.381 . S
C458 C459 1.394 . S
C458 H466 0.930 . S
C459 C458 1.394 . S
C459 C460 1.383 . S
C459 H467 0.929 . S
C460 C459 1.383 . S
C460 C461 1.377 . S
C461 H445 0.930 . S
C461 C460 1.377 . S
C461 C462 1.379 . S
C462 H446 0.931 . S
C462 C456 1.383 . S
C462 C461 1.379 . S
H463 C457 0.959 . S
H464 C457 0.961 . S
H465 C457 0.960 . S
H466 C458 0.930 . S
H467 C459 0.929 . S
H468 C476 0.929 . S
H469 C478 0.930 . S
H470 C480 0.930 . S
H471 C483 0.929 . S
H472 C486 0.930 . S
H473 C488 0.960 . S
H474 C488 0.960 . S
H475 C488 0.960 . S
C476 H468 0.929 . S
C476 C477 1.377 1_655 S
C476 C478 1.384 . S
C477 C476 1.377 1_455 S
C477 C483 1.390 . S
C478 H469 0.930 . S
C478 C476 1.384 . S
C478 C479 1.372 1_655 S
C479 C478 1.372 1_455 S
C479 C480 1.400 . S
C479 C484 1.490 . S
C480 H470 0.930 . S
C480 C479 1.400 . S
C480 C483 1.386 . S
H481 C497 0.930 . S
H482 C498 0.931 . S
C483 H471 0.929 . S
C483 C477 1.390 . S
C483 C480 1.386 . S
C484 C479 1.490 . S
C484 C486 1.395 1_455 S
C484 C487 1.403 . S
H485 C491 0.930 . S
C486 H472 0.930 . S
C486 C484 1.395 1_655 S
C486 C489 1.403 . S
C487 C484 1.403 . S
C487 C488 1.524 . S
C487 C491 1.400 . S
C488 H473 0.960 . S
C488 H474 0.960 . S
C488 H475 0.960 . S
C488 C487 1.524 . S
C489 C486 1.403 . S
C489 C490 1.392 . S
C489 C493 1.495 . S
C490 C489 1.392 . S
C490 C491 1.385 1_655 S
C490 C492 1.478 . S
C491 H485 0.930 . S
C491 C487 1.400 . S
C491 C490 1.385 1_455 S
C492 C490 1.478 . S
C492 C494 1.381 . S
C492 C498 1.383 1_655 S
C493 C489 1.495 . S
C493 H499 0.959 . S
C493 H500 0.961 . S
C493 H501 0.960 . S
C494 C492 1.381 . S
C494 C495 1.394 . S
C494 H502 0.930 . S
C495 C494 1.394 . S
C495 C496 1.383 . S
C495 H503 0.929 . S
C496 C495 1.383 . S
C496 C497 1.377 1_655 S
C497 H481 0.930 . S
C497 C496 1.377 1_455 S
C497 C498 1.379 . S
C498 H482 0.931 . S
C498 C492 1.383 1_455 S
C498 C497 1.379 . S
H499 C493 0.959 . S
H500 C493 0.961 . S
H501 C493 0.960 . S
H502 C494 0.930 . S
H503 C495 0.929 . S
H504 C512 0.929 . S
H505 C514 0.939 . S
H506 C516 0.930 . S
H507 C519 0.929 . S
H508 C522 0.930 . S
H509 C524 0.960 . S
H510 C524 0.960 . S
H511 C524 0.960 . S
C512 H504 0.929 . S
C512 C513 1.377 1_655 S
C512 C514 1.384 . S
C513 C512 1.377 1_455 S
C513 C519 1.390 . S
C514 H505 0.939 . S
C514 C512 1.384 . S
C514 C515 1.363 1_655 S
C515 C514 1.363 1_455 S
C515 C516 1.400 . S
C515 C520 1.490 . S
C516 H506 0.930 . S
C516 C515 1.400 . S
C516 C519 1.386 . S
H517 C533 0.930 . S
H518 C534 0.931 . S
C519 H507 0.929 . S
C519 C513 1.390 . S
C519 C516 1.386 . S
C520 C515 1.490 . S
C520 C522 1.395 1_455 S
C520 C523 1.403 . S
H521 C527 0.930 . S
C522 H508 0.930 . S
C522 C520 1.395 1_655 S
C522 C525 1.403 . S
C523 C520 1.403 . S
C523 C524 1.524 . S
C523 C527 1.400 . S
C524 H509 0.960 . S
C524 H510 0.960 . S
C524 H511 0.960 . S
C524 C523 1.524 . S
C525 C522 1.403 . S
C525 C526 1.392 1_655 S
C525 C529 1.495 1_545 S
C526 C525 1.392 1_455 S
C526 C527 1.385 . S
C526 C528 1.478 . S
C527 H521 0.930 . S
C527 C523 1.400 . S
C527 C526 1.385 . S
C528 C526 1.478 . S
C528 C530 1.381 . S
C528 C534 1.383 . S
C529 C525 1.495 1_565 S
C529 H535 0.959 . S
C529 H536 0.961 . S
C529 H537 0.962 . S
C530 C528 1.381 . S
C530 C531 1.394 . S
C530 H538 0.930 1_455 S
C531 C530 1.394 . S
C531 C532 1.383 . S
C531 H539 0.929 1_455 S
C532 C531 1.383 . S
C532 C533 1.377 . S
C533 H517 0.930 . S
C533 C532 1.377 . S
C533 C534 1.379 . S
C534 H518 0.931 . S
C534 C528 1.383 . S
C534 C533 1.379 . S
H535 C529 0.959 . S
H536 C529 0.961 . S
H537 C529 0.962 . S
H538 C530 0.930 1_655 S
H539 C531 0.929 1_655 S
H540 C548 0.929 . S
H541 C550 0.929 1_565 S
H542 C552 0.930 . S
H543 C555 0.929 . S
H544 C558 0.930 . S
H545 C560 0.960 1_565 S
H546 C560 0.960 1_565 S
H547 C560 0.960 . S
C548 H540 0.929 . S
C548 C549 1.377 1_565 S
C548 C550 1.384 1_565 S
C549 C548 1.377 1_545 S
C549 C555 1.390 . S
C550 H541 0.929 1_545 S
C550 C548 1.384 1_545 S
C550 C551 1.373 . S
C551 C550 1.373 . S
C551 C552 1.400 . S
C551 C556 1.490 . S
C552 H542 0.930 . S
C552 C551 1.400 . S
C552 C555 1.386 . S
H553 C569 0.930 1_655 S
H554 C570 0.931 . S
C555 H543 0.929 . S
C555 C549 1.390 . S
C555 C552 1.386 . S
C556 C551 1.490 . S
C556 C558 1.395 . S
C556 C559 1.418 . S
H557 C563 0.914 1_655 S
C558 H544 0.930 . S
C558 C556 1.395 . S
C558 C561 1.403 . S
C559 C556 1.418 . S
C559 C560 1.512 1_455 S
C559 C563 1.400 . S
C560 H545 0.960 1_545 S
C560 H546 0.960 1_545 S
C560 H547 0.960 . S
C560 C559 1.512 1_655 S
C561 C558 1.403 . S
C561 C562 1.392 . S
C561 C565 1.495 . S
C562 C561 1.392 . S
C562 C563 1.397 . S
C562 C564 1.478 . S
C563 H557 0.914 1_455 S
C563 C559 1.400 . S
C563 C562 1.397 . S
C564 C562 1.478 . S
C564 C566 1.381 . S
C564 C570 1.383 . S
C565 C561 1.495 . S
C565 H571 0.959 . S
C565 H572 0.961 . S
C565 H573 0.960 . S
C566 C564 1.381 . S
C566 C567 1.394 . S
C566 H574 0.930 . S
C567 C566 1.394 . S
C567 C568 1.383 . S
C567 H575 0.929 . S
C568 C567 1.383 . S
C568 C569 1.377 . S
C569 H553 0.930 1_455 S
C569 C568 1.377 . S
C569 C570 1.379 . S
C570 H554 0.931 . S
C570 C564 1.383 . S
C570 C569 1.379 . S
H571 C565 0.959 . S
H572 C565 0.961 . S
H573 C565 0.960 . S
H574 C566 0.930 . S
H575 C567 0.929 . S
C261 C56 4.223 . S
C280 C67 4.217 1_565 S
C297 C151 2.557 . S
C316 C140 2.551 . S
C333 C237 0.643 . S
C352 C226 0.695 . S
C369 C224 2.536 . S
C388 C235 2.536 . S
C405 C58 0.690 . S
C424 C69 0.716 . S
C441 C153 1.353 1_655 S
C460 C142 1.339 . S
C477 C158 1.513 . S
C496 C63 1.541 1_655 S
C513 C147 1.593 . S
C532 C231 1.563 . S
C549 C242 1.569 . S
C568 C74 1.581 . S
