# Generated by pormake.
# Topology lvt, (4)-cn, num edge types: 1
# Building blocks:
#     Node 0, Type 0, BuildingBlock: ESEHIV_clean_sbu_0, # of connection points: 4
#     Node 1, Type 0, BuildingBlock: ESEHIV_clean_sbu_0, # of connection points: 4
#     Node 2, Type 0, BuildingBlock: ESEHIV_clean_sbu_0, # of connection points: 4
#     Node 3, Type 0, BuildingBlock: ESEHIV_clean_sbu_0, # of connection points: 4
#     Node 4, Type 0, BuildingBlock: ESEHIV_clean_sbu_0, # of connection points: 4
#     Node 5, Type 0, BuildingBlock: ESEHIV_clean_sbu_0, # of connection points: 4
#     Node 6, Type 0, BuildingBlock: ESEHIV_clean_sbu_0, # of connection points: 4
#     Node 7, Type 0, BuildingBlock: ESEHIV_clean_sbu_0, # of connection points: 4
#     Edge 8, Type (0, 0), BuildingBlock: XIVTED_clean_linker_0, # of connection points: 2
#     Edge 9, Type (0, 0), BuildingBlock: XIVTED_clean_linker_0, # of connection points: 2
#     Edge 10, Type (0, 0), BuildingBlock: XIVTED_clean_linker_0, # of connection points: 2
#     Edge 11, Type (0, 0), BuildingBlock: XIVTED_clean_linker_0, # of connection points: 2
#     Edge 12, Type (0, 0), BuildingBlock: XIVTED_clean_linker_0, # of connection points: 2
#     Edge 13, Type (0, 0), BuildingBlock: XIVTED_clean_linker_0, # of connection points: 2
#     Edge 14, Type (0, 0), BuildingBlock: XIVTED_clean_linker_0, # of connection points: 2
#     Edge 15, Type (0, 0), BuildingBlock: XIVTED_clean_linker_0, # of connection points: 2
#     Edge 16, Type (0, 0), BuildingBlock: XIVTED_clean_linker_0, # of connection points: 2
#     Edge 17, Type (0, 0), BuildingBlock: XIVTED_clean_linker_0, # of connection points: 2
#     Edge 18, Type (0, 0), BuildingBlock: XIVTED_clean_linker_0, # of connection points: 2
#     Edge 19, Type (0, 0), BuildingBlock: XIVTED_clean_linker_0, # of connection points: 2
#     Edge 20, Type (0, 0), BuildingBlock: XIVTED_clean_linker_0, # of connection points: 2
#     Edge 21, Type (0, 0), BuildingBlock: XIVTED_clean_linker_0, # of connection points: 2
#     Edge 22, Type (0, 0), BuildingBlock: XIVTED_clean_linker_0, # of connection points: 2
#     Edge 23, Type (0, 0), BuildingBlock: XIVTED_clean_linker_0, # of connection points: 2
# Relax obj value: 0.002
# Max RMSD: 0.100
# Mean RMSD: 0.095
data_MOF--net-lvt--node1-ESEHIV_clean_sbu_0--edge1-XIVTED_clean_linker_0
_symmetry_space_group_name_H-M    P1
_symmetry_Int_Tables_number       1
_symmetry_cell_setting            triclinic
loop_
_symmetry_equiv_pos_as_xyz
'x, y, z'
_cell_length_a     38.86844
_cell_length_b     38.692271
_cell_length_c     32.589431
_cell_angle_alpha  96.679597
_cell_angle_beta   89.086779
_cell_angle_gamma 95.347987
loop_
_atom_site_label
_atom_site_type_symbol
_atom_site_fract_x
_atom_site_fract_y
_atom_site_fract_z
_atom_type_partial_charge
Cu0 Cu 0.05519 1.02316 0.52831 0.0
N1 N 0.07496 0.98107 0.53157 0.0
N2 N 0.09801 0.93969 0.56238 0.0
C3 C 0.08613 0.97166 0.56727 0.0
C4 C 0.0943 0.92867 0.52163 0.0
C5 C 0.08008 0.95418 0.50276 0.0
O6 O 0.03655 0.03395 0.5839 0.0
C7 C 0.09722 0.05042 0.46968 0.0
O8 O 0.08475 1.02016 0.45067 0.0
H9 H 0.0856 0.98826 0.59632 0.0
H10 H 0.07374 0.95294 0.47043 0.0
N11 N 1.01751 1.01931 0.49208 0.0
N12 N 0.97091 0.03544 0.46238 0.0
C13 C 0.99577 0.04435 0.49116 0.0
C14 C 1.00604 0.99349 0.46287 0.0
C15 C 0.97737 1.00345 0.44437 0.0
C16 C 1.01001 1.01336 0.59077 0.0
O17 O 0.99806 0.98985 0.56086 0.0
H18 H 0.99852 0.06889 0.51099 0.0
H19 H 1.01755 0.96915 0.45555 0.0
O20 O 0.08913 0.05789 0.5076 0.0
H21 H 0.10077 0.90372 0.50646 0.0
H22 H 0.96224 0.98813 0.41993 0.0
Cu23 Cu 0.28153 0.76298 0.80345 0.0
N24 N 0.24249 0.78794 0.80475 0.0
N25 N 0.20342 0.81738 0.77689 0.0
C26 C 0.23063 0.79818 0.76994 0.0
C27 C 0.198 0.81942 0.81818 0.0
C28 C 0.22216 0.80116 0.83531 0.0
O29 O 0.27567 0.73142 0.7523 0.0
C30 C 0.32628 0.81251 0.84542 0.0
O31 O 0.30287 0.80558 0.87356 0.0
H32 H 0.24271 0.79241 0.74009 0.0
H33 H 0.22501 0.7983 0.86767 0.0
N34 N 0.28594 0.73417 0.84508 0.0
N35 N 0.31078 0.69437 0.87628 0.0
C36 C 0.31184 0.71338 0.84407 0.0
C37 C 0.26756 0.72841 0.87936 0.0
C38 C 0.28295 0.70386 0.89881 0.0
C39 C 0.25167 0.70686 0.75502 0.0
O40 O 0.23598 0.70464 0.79073 0.0
H41 H 0.33146 0.71278 0.82012 0.0
H42 H 0.24468 0.74099 0.8894 0.0
O43 O 0.32223 0.79684 0.80886 0.0
H44 H 0.17813 0.83313 0.83489 0.0
H45 H 0.27409 0.69358 0.92701 0.0
Cu46 Cu 0.55704 0.05118 0.97953 0.0
N47 N 0.58203 0.04718 0.92978 0.0
N48 N 0.6138 1.01989 0.88033 0.0
C49 C 0.59715 1.01795 0.91676 0.0
C50 C 0.60903 0.05198 0.87008 0.0
C51 C 0.58932 0.06875 0.90062 0.0
O52 O 0.52414 1.00958 0.97448 0.0
C53 C 0.61452 0.08097 0.02089 0.0
O54 O 0.61352 0.09941 0.98961 0.0
H55 H 0.59634 0.99588 0.93442 0.0
H56 H 0.58123 0.0948 0.90154 0.0
N57 N 0.53189 0.09034 0.99047 0.0
N58 N 0.50123 0.12878 0.02869 0.0
C59 C 0.51826 0.09982 0.02793 0.0
C60 C 0.52318 0.1141 0.96638 0.0
C61 C 0.50436 0.13792 0.98992 0.0
C62 C 0.50604 1.00664 0.94167 0.0
O63 O 0.50966 0.03203 0.918 0.0
H64 H 0.52116 0.08572 0.05427 0.0
H65 H 0.52963 0.11399 0.934 0.0
O66 O 0.59114 0.05585 0.02359 0.0
H67 H 0.6189 0.0626 0.84248 0.0
H68 H 0.49324 0.15978 0.97903 0.0
Cu69 Cu 0.30226 0.2848 0.26242 0.0
N70 N 0.26748 0.24752 0.26133 0.0
N71 N 0.22968 0.20685 0.28502 0.0
C72 C 0.25209 0.23543 0.29494 0.0
C73 C 0.23129 0.20091 0.24329 0.0
C74 C 0.25456 0.22591 0.22886 0.0
O75 O 0.29319 0.31886 0.30942 0.0
C76 C 0.35213 0.23446 0.25326 0.0
O77 O 0.32722 0.21243 0.26511 0.0
H78 H 0.25767 0.24739 0.32607 0.0
H79 H 0.26229 0.22755 0.19708 0.0
N80 N 0.30187 0.3111 0.21814 0.0
N81 N 0.32269 0.35396 0.18145 0.0
C82 C 0.32441 0.33948 0.21697 0.0
C83 C 0.28465 0.30731 0.18221 0.0
C84 C 0.29745 0.33382 0.15946 0.0
C85 C 0.26237 0.32766 0.30874 0.0
O86 O 0.24137 0.31231 0.2796 0.0
H87 H 0.34215 0.3488 0.24189 0.0
H88 H 0.26498 0.2864 0.17273 0.0
O89 O 0.34782 0.26695 0.25667 0.0
H90 H 0.21751 0.17944 0.22427 0.0
H91 H 0.28961 0.33709 0.12855 0.0
Cu92 Cu 0.77816 0.26025 0.30726 0.0
N93 N 0.74016 0.28642 0.30501 0.0
N94 N 0.70387 0.31767 0.2751 0.0
C95 C 0.73022 0.29714 0.26951 0.0
C96 C 0.69699 0.31994 0.31609 0.0
C97 C 0.71943 0.30066 0.33446 0.0
O98 O 0.77462 0.22775 0.25663 0.0
C99 C 0.82175 0.31028 0.35085 0.0
O100 O 0.79648 0.30503 0.3773 0.0
H101 H 0.74312 0.29087 0.2403 0.0
H102 H 0.72097 0.29799 0.367 0.0
N103 N 0.77862 0.23229 0.35056 0.0
N104 N 0.79891 0.1926 0.38632 0.0
C105 C 0.80157 0.20843 0.35152 0.0
C106 C 0.76049 0.23156 0.38606 0.0
C107 C 0.77314 0.20716 0.40834 0.0
C108 C 0.74962 0.20396 0.25778 0.0
O109 O 0.73096 0.20347 0.29171 0.0
H110 H 0.82067 0.20364 0.3275 0.0
H111 H 0.74008 0.24796 0.39549 0.0
O112 O 0.81953 0.2932 0.31485 0.0
H113 H 0.67735 0.33464 0.33186 0.0
H114 H 0.76413 0.20073 0.43837 0.0
Cu115 Cu 0.81981 0.79601 0.79425 0.0
N116 N 0.81476 0.77064 0.84004 0.0
N117 N 0.79198 0.73684 0.88695 0.0
C118 C 0.78562 0.75418 0.85446 0.0
C119 C 0.82642 0.74289 0.89311 0.0
C120 C 0.84031 0.76359 0.86422 0.0
O121 O 0.7768 0.8178 0.78887 0.0
C122 C 0.83348 0.76925 0.70891 0.0
O123 O 0.81971 0.79659 0.69828 0.0
H124 H 0.7605 0.75405 0.84056 0.0
H125 H 0.86729 0.7725 0.86068 0.0
N126 N 0.85571 0.83189 0.80376 0.0
N127 N 0.89325 0.8768 0.79082 0.0
C128 C 0.87192 0.84931 0.77449 0.0
C129 C 0.86777 0.84861 0.83999 0.0
C130 C 0.89113 0.8763 0.83207 0.0
C131 C 0.77506 0.8452 0.77097 0.0
O132 O 0.80175 0.8568 0.74973 0.0
H133 H 0.86701 0.84295 0.74178 0.0
H134 H 0.85896 0.84219 0.87006 0.0
O135 O 0.83361 0.76415 0.74686 0.0
H136 H 0.84071 0.73299 0.91674 0.0
H137 H 0.90382 0.89577 0.85479 0.0
Cu138 Cu 0.56322 0.52892 0.02671 0.0
N139 N 0.53871 0.53145 0.97833 0.0
N140 N 0.49725 0.54899 0.94077 0.0
C141 C 0.511 0.54987 0.97862 0.0
C142 C 0.51761 0.52949 0.9153 0.0
C143 C 0.54324 0.51869 0.93862 0.0
O144 O 0.59839 0.56898 0.02997 0.0
C145 C 0.50364 0.50354 0.05989 0.0
O146 O 0.50624 0.48334 0.0249 0.0
H147 H 0.50158 0.56424 1.00635 0.0
H148 H 0.56379 0.50303 0.92734 0.0
N149 N 0.58373 0.48716 0.02935 0.0
N150 N 0.60642 0.44542 0.0598 0.0
C151 C 0.5963 0.47816 0.06452 0.0
C152 C 0.58585 0.45917 1.00112 0.0
C153 C 0.6 0.43347 0.01974 0.0
C154 C 0.62763 0.56427 0.01285 0.0
O155 O 0.63409 0.53243 0.99827 0.0
H156 H 0.59737 0.49534 0.09322 0.0
H157 H 0.57673 0.45709 0.9697 0.0
O158 O 0.52757 0.52794 0.06969 0.0
H159 H 0.51422 0.52333 0.88228 0.0
H160 H 0.604 0.40757 1.00515 0.0
Cu161 Cu 0.04637 0.55558 0.48316 0.0
N162 N 1.01961 0.59342 0.4825 0.0
N163 N 0.98329 0.63246 0.5083 0.0
C164 C 1.00028 0.60472 0.51512 0.0
C165 C 0.99236 0.63866 0.46938 0.0
C166 C 1.01476 0.61456 0.45356 0.0
O167 O 0.07495 0.56599 0.53246 0.0
C168 C 1.00191 0.50606 0.44134 0.0
O169 O 1.01008 0.52807 0.41415 0.0
H170 H 0.99863 0.59234 0.54326 0.0
H171 H 0.02667 0.6127 0.42326 0.0
N172 N 0.07883 0.54821 0.44073 0.0
N173 N 0.12075 0.51935 0.40852 0.0
C174 C 0.09597 0.51944 0.43793 0.0
C175 C 0.09322 0.56748 0.41201 0.0
C176 C 0.11921 0.54964 0.39202 0.0
C177 C 0.09554 0.59346 0.53034 0.0
O178 O 0.09312 0.61093 0.49841 0.0
H179 H 0.09103 0.49953 0.45855 0.0
H180 H 0.08613 0.59297 0.40679 0.0
O181 O 1.01467 0.51302 0.47758 0.0
H182 H 0.98391 0.65939 0.4535 0.0
H183 H 0.13572 0.5584 0.3675 0.0
H184 H 0.13567 0.1131 0.49655 0.0
H185 H 0.17628 0.15694 0.26541 0.0
H186 H 0.10443 0.04518 0.38632 0.0
H187 H 0.23589 0.20908 0.36923 0.0
H188 H 0.14435 0.12073 0.31166 0.0
H189 H 0.16773 0.15323 0.45271 0.0
C190 C 0.13553 0.1066 0.46332 0.0
C191 C 0.11741 0.07558 0.44521 0.0
C192 C 0.16446 0.14009 0.32437 0.0
C193 C 0.15345 0.1214 0.39508 0.0
C194 C 0.18296 0.16086 0.29778 0.0
C195 C 0.20945 0.18615 0.31288 0.0
C196 C 0.17203 0.14453 0.36676 0.0
C197 C 0.21584 0.19015 0.35577 0.0
C198 C 0.15383 0.12945 0.43836 0.0
C199 C 0.11811 0.06857 0.40191 0.0
N200 N 0.19734 0.16957 0.38114 0.0
N201 N 0.13559 0.09124 0.37853 0.0
H202 H 0.08869 0.95182 0.64603 0.0
H203 H 0.19998 0.79729 0.69407 0.0
H204 H 0.13819 0.88505 0.55207 0.0
H205 H 0.16557 0.87389 0.78907 0.0
H206 H 0.17338 0.8265 0.6422 0.0
H207 H 0.11277 0.92139 0.69885 0.0
C208 C 0.10473 0.93096 0.63629 0.0
C209 C 0.11148 0.92133 0.59412 0.0
C210 C 0.1716 0.83697 0.67437 0.0
C211 C 0.13879 0.8858 0.65502 0.0
C212 C 0.18699 0.82035 0.70417 0.0
C213 C 0.18556 0.8333 0.74627 0.0
C214 C 0.15432 0.86683 0.68643 0.0
C215 C 0.16735 0.86281 0.75717 0.0
C216 C 0.11834 0.91341 0.66665 0.0
C217 C 0.13192 0.8934 0.58389 0.0
N218 N 0.15259 0.87862 0.72747 0.0
N219 N 0.14481 0.87674 0.61403 0.0
H220 H 0.47912 0.95415 0.98695 0.0
H221 H 0.37175 0.84833 0.79576 0.0
H222 H 0.47978 0.98702 0.86483 0.0
H223 H 0.34945 0.83432 0.92322 0.0
H224 H 0.41861 0.8932 0.81891 0.0
H225 H 0.43823 0.90383 0.96245 0.0
C226 C 0.47085 0.9507 0.95504 0.0
C227 C 0.48259 0.97504 0.92808 0.0
C228 C 0.4035 0.88011 0.84173 0.0
C229 C 0.43625 0.91756 0.89974 0.0
C230 C 0.37688 0.85445 0.82849 0.0
C231 C 0.35643 0.83783 0.85756 0.0
C232 C 0.40993 0.88881 0.88428 0.0
C233 C 0.36426 0.84677 0.89968 0.0
C234 C 0.4475 0.92207 0.94107 0.0
C235 C 0.47109 0.9692 0.88692 0.0
N236 N 0.39028 0.87161 0.91174 0.0
N237 N 0.44863 0.94116 0.87406 0.0
H238 H 0.37186 0.16787 0.24337 0.0
H239 H 0.4873 0.19697 0.04247 0.0
H240 H 0.39613 0.26908 0.20135 0.0
H241 H 0.47293 0.09913 0.09467 0.0
H242 H 0.45524 0.22432 0.10094 0.0
H243 H 0.41101 0.14301 0.19095 0.0
C244 C 0.38585 0.18502 0.22358 0.0
C245 C 0.38054 0.22066 0.22687 0.0
C246 C 0.45929 0.19691 0.0997 0.0
C247 C 0.4251 0.19209 0.16588 0.0
C248 C 0.4774 0.18119 0.06611 0.0
C249 C 0.48288 0.14559 0.0634 0.0
C250 C 0.44623 0.17688 0.1308 0.0
C251 C 0.46977 0.12667 0.09546 0.0
C252 C 0.40814 0.17075 0.19345 0.0
C253 C 0.39943 0.24151 0.20017 0.0
N254 N 0.45196 0.14245 0.12754 0.0
N255 N 0.42051 0.22686 0.17055 0.0
H256 H 0.04223 1.00144 0.66123 0.0
H257 H 0.86606 0.90518 0.72861 0.0
H258 H 0.94304 1.01539 0.6118 0.0
H259 H 0.95724 0.91101 0.80339 0.0
H260 H 0.89433 0.94934 0.68884 0.0
H261 H 1.01282 0.9742 0.71843 0.0
C262 C 1.01433 1.00031 0.66358 0.0
C263 C 0.99491 1.0108 0.63206 0.0
C264 C 0.90826 0.94133 0.71411 0.0
C265 C 0.96122 0.97862 0.696 0.0
C266 C 0.89217 0.91584 0.73654 0.0
C267 C 0.90959 0.90413 0.76882 0.0
C268 C 0.94242 0.95493 0.72337 0.0
C269 C 0.94312 0.91934 0.7785 0.0
C270 C 0.99752 0.98432 0.69585 0.0
C271 C 0.95885 1.00779 0.6357 0.0
N272 N 0.95875 0.94362 0.7554 0.0
N273 N 0.94319 0.9915 0.66662 0.0
H274 H 0.9405 0.08401 0.51415 0.0
H275 H 0.8296 0.14426 0.335 0.0
H276 H 0.93899 0.03438 0.38856 0.0
H277 H 0.81818 0.18253 0.46366 0.0
H278 H 0.86982 0.10402 0.3541 0.0
H279 H 0.89617 0.12059 0.49648 0.0
C280 C 0.93092 0.08084 0.48282 0.0
C281 C 0.94371 0.05617 0.45273 0.0
C282 C 0.85841 0.12105 0.37824 0.0
C283 C 0.89269 0.09796 0.43229 0.0
C284 C 0.83555 0.14418 0.36732 0.0
C285 C 0.82066 0.16701 0.39775 0.0
C286 C 0.86682 0.12085 0.41996 0.0
C287 C 0.82889 0.16529 0.43923 0.0
C288 C 0.9054 0.10159 0.47282 0.0
C289 C 0.92979 0.05283 0.41281 0.0
N290 N 0.85164 0.14285 0.44908 0.0
N291 N 0.90525 0.07363 0.40371 0.0
H292 H 0.71011 0.14233 0.25749 0.0
H293 H 0.67197 0.12626 0.01618 0.0
H294 H 0.76234 0.2098 0.17514 0.0
H295 H 0.61697 0.06171 0.09973 0.0
H296 H 0.71113 0.15102 0.07179 0.0
H297 H 0.68246 0.10675 0.19839 0.0
C298 C 0.71615 0.14941 0.22681 0.0
C299 C 0.7383 0.17935 0.22127 0.0
C300 C 0.69076 0.1312 0.07796 0.0
C301 C 0.70625 0.13875 0.15325 0.0
C302 C 0.66829 0.11699 0.04619 0.0
C303 C 0.64079 0.09213 0.05341 0.0
C304 C 0.68573 0.1207 0.11753 0.0
C305 C 0.63768 0.0809 0.0928 0.0
C306 C 0.70027 0.12904 0.19305 0.0
C307 C 0.74543 0.18698 0.18082 0.0
N308 N 0.65963 0.09558 0.12352 0.0
N309 N 0.72906 0.16707 0.14835 0.0
H310 H 0.66544 0.0289 0.82381 0.0
H311 H 0.71737 0.83334 0.81932 0.0
H312 H 0.60728 0.94996 0.88653 0.0
H313 H 0.767 0.90832 0.74394 0.0
H314 H 0.67472 0.87455 0.84127 0.0
H315 H 0.70092 0.98429 0.79132 0.0
C316 C 0.65984 1.00222 0.83052 0.0
C317 C 0.63349 0.99347 0.85852 0.0
C318 C 0.69473 0.88183 0.81957 0.0
C319 C 0.67442 0.94213 0.82164 0.0
C320 C 0.71905 0.85823 0.80691 0.0
C321 C 0.74603 0.86739 0.77995 0.0
C322 C 0.69751 0.91498 0.80543 0.0
C323 C 0.74682 0.9001 0.76494 0.0
C324 C 0.68024 0.97671 0.81204 0.0
C325 C 0.62775 0.9583 0.86605 0.0
N326 N 0.7232 0.92278 0.7782 0.0
N327 N 0.64816 0.93407 0.84803 0.0
H328 H 0.69706 0.56388 1.00342 0.0
H329 H 0.72245 0.74053 0.89719 0.0
H330 H 0.61504 0.63106 0.99904 0.0
H331 H 0.8061 0.6822 0.92725 0.0
H332 H 0.6823 0.7016 0.93372 0.0
H333 H 0.73718 0.60811 0.97649 0.0
C334 C 0.6876 0.58826 0.99736 0.0
C335 C 0.65265 0.59378 1.00359 0.0
C336 C 0.7095 0.69756 0.93253 0.0
C337 C 0.69849 0.64454 0.97155 0.0
C338 C 0.73242 0.71961 0.9114 0.0
C339 C 0.76784 0.71474 0.909 0.0
C340 C 0.722 0.67017 0.95105 0.0
C341 C 0.77923 0.68737 0.92854 0.0
C342 C 0.71054 0.61353 0.98182 0.0
C343 C 0.64185 0.62587 0.99506 0.0
N344 N 0.75644 0.66613 0.94838 0.0
N345 N 0.66459 0.64988 0.97893 0.0
H346 H 0.703 0.29895 0.19183 0.0
H347 H 0.59968 0.4593 0.14356 0.0
H348 H 0.66837 0.37579 0.2864 0.0
H349 H 0.64325 0.38827 0.04903 0.0
H350 H 0.62246 0.4278 0.19612 0.0
H351 H 0.67893 0.32973 0.13942 0.0
C352 C 0.69049 0.32236 0.20173 0.0
C353 C 0.6881 0.33482 0.24389 0.0
C354 C 0.62706 0.4191 0.16387 0.0
C355 C 0.6599 0.37018 0.1835 0.0
C356 C 0.61419 0.43727 0.13365 0.0
C357 C 0.61959 0.42672 0.09141 0.0
C358 C 0.64547 0.38996 0.15207 0.0
C359 C 0.63808 0.39735 0.08097 0.0
C360 C 0.67656 0.33988 0.17164 0.0
C361 C 0.67075 0.36495 0.25449 0.0
N362 N 0.65034 0.3801 0.111 0.0
N363 N 0.65745 0.3816 0.22456 0.0
H364 H 0.83901 0.33729 0.42939 0.0
H365 H 0.98523 0.47837 0.3629 0.0
H366 H 0.87246 0.34136 0.30302 0.0
H367 H 0.96576 0.46076 0.48987 0.0
H368 H 0.94462 0.42819 0.34061 0.0
H369 H 0.88537 0.38184 0.45198 0.0
C370 C 0.85621 0.34748 0.40629 0.0
C371 C 0.8516 0.33569 0.36409 0.0
C372 C 0.94931 0.43507 0.37333 0.0
C373 C 0.90496 0.38714 0.39004 0.0
C374 C 0.97246 0.46388 0.38621 0.0
C375 C 0.97875 0.47406 0.42846 0.0
C376 C 0.93183 0.41629 0.40284 0.0
C377 C 0.96166 0.45394 0.45705 0.0
C378 C 0.88281 0.3729 0.41934 0.0
C379 C 0.87498 0.34969 0.33579 0.0
N380 N 0.93871 0.42621 0.44372 0.0
N381 N 0.90045 0.37493 0.34925 0.0
H382 H 0.8388 0.77212 0.62505 0.0
H383 H 0.97858 0.63179 0.59196 0.0
H384 H 0.87198 0.71539 0.72151 0.0
H385 H 0.93595 0.67687 0.49103 0.0
H386 H 0.94012 0.66284 0.63943 0.0
H387 H 0.87406 0.73807 0.57541 0.0
C388 C 0.85325 0.75234 0.6358 0.0
C389 C 0.85236 0.74674 0.67769 0.0
C390 C 0.93905 0.66588 0.60687 0.0
C391 C 0.8932 0.70781 0.62088 0.0
C392 C 0.96104 0.64793 0.57947 0.0
C393 C 0.96068 0.6513 0.53694 0.0
C394 C 0.91643 0.68778 0.59206 0.0
C395 C 0.93757 0.67349 0.52337 0.0
C396 C 0.87346 0.73293 0.60739 0.0
C397 C 0.87175 0.72071 0.68964 0.0
N398 N 0.91649 0.69086 0.55078 0.0
N399 N 0.89145 0.70244 0.66151 0.0
H400 H 0.50239 0.49427 0.14216 0.0
H401 H 0.31269 0.39362 0.11937 0.0
H402 H 0.43713 0.49245 0.03618 0.0
H403 H 0.38508 0.38087 0.21452 0.0
H404 H 0.35328 0.43947 0.09596 0.0
H405 H 0.45427 0.46384 0.17763 0.0
C406 C 0.47754 0.48863 0.12706 0.0
C407 C 0.47353 0.49577 0.08635 0.0
C408 C 0.36005 0.4268 0.12226 0.0
C409 C 0.41896 0.46035 0.12587 0.0
C410 C 0.33692 0.40039 0.13549 0.0
C411 C 0.34531 0.3828 0.16882 0.0
C412 C 0.3919 0.43583 0.14242 0.0
C413 C 0.37703 0.3935 0.1889 0.0
C414 C 0.45024 0.47086 0.14698 0.0
C415 C 0.44112 0.48727 0.06763 0.0
N416 N 0.39916 0.41903 0.17521 0.0
N417 N 0.41521 0.46968 0.08732 0.0
H418 H 0.35177 0.65915 0.82077 0.0
H419 H 0.44454 0.5683 0.99175 0.0
H420 H 0.32544 0.67299 0.95045 0.0
H421 H 0.48175 0.56936 0.86636 0.0
H422 H 0.39717 0.60145 0.97567 0.0
H423 H 0.39554 0.62127 0.83555 0.0
C424 C 0.3552 0.6544 0.85244 0.0
C425 C 0.33505 0.66987 0.8845 0.0
C426 C 0.41565 0.5944 0.95163 0.0
C427 C 0.38512 0.62575 0.90154 0.0
C428 C 0.44292 0.57557 0.96083 0.0
C429 C 0.46768 0.56637 0.93054 0.0
C430 C 0.4128 0.60407 0.91175 0.0
C431 C 0.46338 0.57575 0.8907 0.0
C432 C 0.38017 0.63253 0.8608 0.0
C433 C 0.3402 0.6617 0.92471 0.0
N434 N 0.43661 0.59421 0.88254 0.0
N435 N 0.36482 0.64037 0.93209 0.0
H436 H 0.21445 0.64393 0.75455 0.0
H437 H 0.14718 0.64516 0.52516 0.0
H438 H 0.2544 0.71859 0.67317 0.0
H439 H 0.10627 0.57033 0.60602 0.0
H440 H 0.19067 0.66806 0.57634 0.0
H441 H 0.18009 0.61215 0.69794 0.0
C442 C 0.21645 0.65332 0.72447 0.0
C443 C 0.23711 0.68415 0.71862 0.0
C444 C 0.17237 0.64653 0.58295 0.0
C445 C 0.1973 0.64807 0.65371 0.0
C446 C 0.14731 0.63342 0.55375 0.0
C447 C 0.12265 0.60594 0.56145 0.0
C448 C 0.17291 0.6323 0.62052 0.0
C449 C 0.12458 0.59165 0.59888 0.0
C450 C 0.19669 0.63518 0.69219 0.0
C451 C 0.23889 0.69493 0.679 0.0
N452 N 0.14913 0.60521 0.6272 0.0
N453 N 0.21883 0.67715 0.64816 0.0
H454 H 0.28869 0.39629 0.32047 0.0
H455 H 0.1094 0.45106 0.42044 0.0
H456 H 0.20544 0.32447 0.3566 0.0
H457 H 0.18528 0.52559 0.37373 0.0
H458 H 0.14867 0.40605 0.40588 0.0
H459 H 0.25643 0.44543 0.34971 0.0
C460 C 0.26428 0.39095 0.33606 0.0
C461 C 0.24977 0.35643 0.33675 0.0
C462 C 0.15696 0.43223 0.39889 0.0
C463 C 0.21242 0.41203 0.36882 0.0
C464 C 0.13448 0.45814 0.4074 0.0
C465 C 0.14395 0.49241 0.39851 0.0
C466 C 0.18938 0.44022 0.38097 0.0
C467 C 0.17669 0.49952 0.38073 0.0
C468 C 0.24564 0.41891 0.35211 0.0
C469 C 0.2176 0.35076 0.35594 0.0
N470 N 0.19823 0.47362 0.37244 0.0
N471 N 0.19996 0.37819 0.37092 0.0
loop_
_geom_bond_atom_site_label_1
_geom_bond_atom_site_label_2
_geom_bond_distance
_geom_bond_site_symmetry_2
_ccdc_geom_bond_type
Cu0 N1 1.999 1_545 S
Cu0 O6 1.974 1_445 S
Cu0 N11 1.985 1_455 S
Cu0 O20 1.959 . S
N1 Cu0 1.999 1_565 S
N1 C3 1.263 . S
N1 C5 1.389 1_565 S
N2 C3 1.358 . S
N2 C4 1.400 . S
C3 N1 1.263 . S
C3 N2 1.358 . S
C3 H9 0.930 . S
C4 N2 1.400 . S
C4 C5 1.351 1_565 S
C4 H21 0.930 . S
C5 N1 1.389 1_545 S
C5 C4 1.351 1_545 S
C5 H10 0.930 . S
O6 Cu0 1.974 1_665 S
O6 C16 1.282 . S
C7 O8 1.261 . S
C7 O20 1.251 . S
O8 C7 1.261 . S
H9 C3 0.930 . S
H10 C5 0.930 . S
N11 Cu0 1.985 1_655 S
N11 C13 1.335 . S
N11 C14 1.390 . S
N12 C13 1.345 . S
N12 C15 1.336 . S
C13 N11 1.335 . S
C13 N12 1.345 . S
C13 H18 0.930 1_655 S
C14 N11 1.390 . S
C14 C15 1.346 . S
C14 H19 0.930 1_545 S
C15 N12 1.336 . S
C15 C14 1.346 . S
C15 H22 0.929 . S
C16 O6 1.282 . S
C16 O17 1.216 . S
O17 C16 1.216 . S
H18 C13 0.930 1_455 S
H19 C14 0.930 1_565 S
O20 Cu0 1.959 . S
O20 C7 1.251 . S
H21 C4 0.930 . S
H22 C15 0.929 . S
Cu23 N24 1.999 . S
Cu23 O29 1.974 . S
Cu23 N34 1.985 . S
Cu23 O43 1.959 . S
N24 Cu23 1.999 . S
N24 C26 1.263 . S
N24 C28 1.389 . S
N25 C26 1.358 . S
N25 C27 1.400 . S
C26 N24 1.263 . S
C26 N25 1.358 . S
C26 H32 0.930 . S
C27 N25 1.400 . S
C27 C28 1.351 . S
C27 H44 0.930 . S
C28 N24 1.389 . S
C28 C27 1.351 . S
C28 H33 0.930 . S
O29 Cu23 1.974 . S
O29 C39 1.282 . S
C30 O31 1.261 . S
C30 O43 1.251 . S
O31 C30 1.261 . S
H32 C26 0.930 . S
H33 C28 0.930 . S
N34 Cu23 1.985 . S
N34 C36 1.335 . S
N34 C37 1.390 . S
N35 C36 1.345 . S
N35 C38 1.336 . S
C36 N34 1.335 . S
C36 N35 1.345 . S
C36 H41 0.930 . S
C37 N34 1.390 . S
C37 C38 1.346 . S
C37 H42 0.930 . S
C38 N35 1.336 . S
C38 C37 1.346 . S
C38 H45 0.929 . S
C39 O29 1.282 . S
C39 O40 1.216 . S
O40 C39 1.216 . S
H41 C36 0.930 . S
H42 C37 0.930 . S
O43 Cu23 1.959 . S
O43 C30 1.251 . S
H44 C27 0.930 . S
H45 C38 0.929 . S
Cu46 N47 1.999 1_544 S
Cu46 O52 1.974 1_544 S
Cu46 N57 1.985 . S
Cu46 O66 1.959 . S
N47 Cu46 1.999 1_566 S
N47 C49 1.263 . S
N47 C51 1.389 1_556 S
N48 C49 1.358 . S
N48 C50 1.400 . S
C49 N47 1.263 . S
C49 N48 1.358 . S
C49 H55 0.930 . S
C50 N48 1.400 . S
C50 C51 1.351 1_556 S
C50 H67 0.930 . S
C51 N47 1.389 1_554 S
C51 C50 1.351 1_554 S
C51 H56 0.930 . S
O52 Cu46 1.974 1_566 S
O52 C62 1.282 . S
C53 O54 1.261 1_554 S
C53 O66 1.251 . S
O54 C53 1.261 1_556 S
H55 C49 0.930 . S
H56 C51 0.930 . S
N57 Cu46 1.985 . S
N57 C59 1.335 . S
N57 C60 1.390 . S
N58 C59 1.345 . S
N58 C61 1.336 . S
C59 N57 1.335 . S
C59 N58 1.345 . S
C59 H64 0.930 . S
C60 N57 1.390 . S
C60 C61 1.346 . S
C60 H65 0.930 1_554 S
C61 N58 1.336 . S
C61 C60 1.346 . S
C61 H68 0.929 . S
C62 O52 1.282 . S
C62 O63 1.216 . S
O63 C62 1.216 . S
H64 C59 0.930 . S
H65 C60 0.930 1_556 S
O66 Cu46 1.959 . S
O66 C53 1.251 . S
H67 C50 0.930 . S
H68 C61 0.929 . S
Cu69 N70 1.999 . S
Cu69 O75 1.974 . S
Cu69 N80 1.985 . S
Cu69 O89 1.959 . S
N70 Cu69 1.999 . S
N70 C72 1.263 . S
N70 C74 1.389 . S
N71 C72 1.358 . S
N71 C73 1.400 . S
C72 N70 1.263 . S
C72 N71 1.358 . S
C72 H78 0.930 . S
C73 N71 1.400 . S
C73 C74 1.351 . S
C73 H90 0.930 . S
C74 N70 1.389 . S
C74 C73 1.351 . S
C74 H79 0.930 . S
O75 Cu69 1.974 . S
O75 C85 1.282 . S
C76 O77 1.261 . S
C76 O89 1.251 . S
O77 C76 1.261 . S
H78 C72 0.930 . S
H79 C74 0.930 . S
N80 Cu69 1.985 . S
N80 C82 1.335 . S
N80 C83 1.390 . S
N81 C82 1.345 . S
N81 C84 1.336 . S
C82 N80 1.335 . S
C82 N81 1.345 . S
C82 H87 0.930 . S
C83 N80 1.390 . S
C83 C84 1.346 . S
C83 H88 0.930 . S
C84 N81 1.336 . S
C84 C83 1.346 . S
C84 H91 0.929 . S
C85 O75 1.282 . S
C85 O86 1.216 . S
O86 C85 1.216 . S
H87 C82 0.930 . S
H88 C83 0.930 . S
O89 Cu69 1.959 . S
O89 C76 1.251 . S
H90 C73 0.930 . S
H91 C84 0.929 . S
Cu92 N93 1.999 . S
Cu92 O98 1.974 . S
Cu92 N103 1.985 . S
Cu92 O112 1.959 . S
N93 Cu92 1.999 . S
N93 C95 1.263 . S
N93 C97 1.389 . S
N94 C95 1.358 . S
N94 C96 1.400 . S
C95 N93 1.263 . S
C95 N94 1.358 . S
C95 H101 0.930 . S
C96 N94 1.400 . S
C96 C97 1.351 . S
C96 H113 0.930 . S
C97 N93 1.389 . S
C97 C96 1.351 . S
C97 H102 0.930 . S
O98 Cu92 1.974 . S
O98 C108 1.282 . S
C99 O100 1.261 . S
C99 O112 1.251 . S
O100 C99 1.261 . S
H101 C95 0.930 . S
H102 C97 0.930 . S
N103 Cu92 1.985 . S
N103 C105 1.335 . S
N103 C106 1.390 . S
N104 C105 1.345 . S
N104 C107 1.336 . S
C105 N103 1.335 . S
C105 N104 1.345 . S
C105 H110 0.930 . S
C106 N103 1.390 . S
C106 C107 1.346 . S
C106 H111 0.930 . S
C107 N104 1.336 . S
C107 C106 1.346 . S
C107 H114 0.929 . S
C108 O98 1.282 . S
C108 O109 1.216 . S
O109 C108 1.216 . S
H110 C105 0.930 . S
H111 C106 0.930 . S
O112 Cu92 1.959 . S
O112 C99 1.251 . S
H113 C96 0.930 . S
H114 C107 0.929 . S
Cu115 N116 1.999 . S
Cu115 O121 1.974 . S
Cu115 N126 1.985 . S
Cu115 O135 1.959 . S
N116 Cu115 1.999 . S
N116 C118 1.263 . S
N116 C120 1.389 . S
N117 C118 1.358 . S
N117 C119 1.400 . S
C118 N116 1.263 . S
C118 N117 1.358 . S
C118 H124 0.930 . S
C119 N117 1.400 . S
C119 C120 1.351 . S
C119 H136 0.930 . S
C120 N116 1.389 . S
C120 C119 1.351 . S
C120 H125 0.930 . S
O121 Cu115 1.974 . S
O121 C131 1.282 . S
C122 O123 1.261 . S
C122 O135 1.251 . S
O123 C122 1.261 . S
H124 C118 0.930 . S
H125 C120 0.930 . S
N126 Cu115 1.985 . S
N126 C128 1.335 . S
N126 C129 1.390 . S
N127 C128 1.345 . S
N127 C130 1.336 . S
C128 N126 1.335 . S
C128 N127 1.345 . S
C128 H133 0.930 . S
C129 N126 1.390 . S
C129 C130 1.346 . S
C129 H134 0.930 . S
C130 N127 1.336 . S
C130 C129 1.346 . S
C130 H137 0.929 . S
C131 O121 1.282 . S
C131 O132 1.216 . S
O132 C131 1.216 . S
H133 C128 0.930 . S
H134 C129 0.930 . S
O135 Cu115 1.959 . S
O135 C122 1.251 . S
H136 C119 0.930 . S
H137 C130 0.929 . S
Cu138 N139 1.999 . S
Cu138 O144 1.974 . S
Cu138 N149 1.985 . S
Cu138 O158 1.959 . S
N139 Cu138 1.999 . S
N139 C141 1.263 1_554 S
N139 C143 1.389 . S
N140 C141 1.358 . S
N140 C142 1.400 1_556 S
C141 N139 1.263 1_556 S
C141 N140 1.358 . S
C141 H147 0.930 . S
C142 N140 1.400 1_554 S
C142 C143 1.351 . S
C142 H159 0.930 . S
C143 N139 1.389 . S
C143 C142 1.351 . S
C143 H148 0.930 . S
O144 Cu138 1.974 . S
O144 C154 1.282 1_554 S
C145 O146 1.261 . S
C145 O158 1.251 . S
O146 C145 1.261 . S
H147 C141 0.930 . S
H148 C143 0.930 . S
N149 Cu138 1.985 . S
N149 C151 1.335 . S
N149 C152 1.390 . S
N150 C151 1.345 . S
N150 C153 1.336 . S
C151 N149 1.335 . S
C151 N150 1.345 . S
C151 H156 0.930 . S
C152 N149 1.390 . S
C152 C153 1.346 . S
C152 H157 0.930 . S
C153 N150 1.336 . S
C153 C152 1.346 . S
C153 H160 0.929 . S
C154 O144 1.282 1_556 S
C154 O155 1.216 . S
O155 C154 1.216 . S
H156 C151 0.930 . S
H157 C152 0.930 . S
O158 Cu138 1.959 . S
O158 C145 1.251 . S
H159 C142 0.930 . S
H160 C153 0.929 . S
Cu161 N162 1.999 1_455 S
Cu161 O167 1.974 . S
Cu161 N172 1.985 . S
Cu161 O181 1.959 1_455 S
N162 Cu161 1.999 1_655 S
N162 C164 1.263 . S
N162 C166 1.389 . S
N163 C164 1.358 . S
N163 C165 1.400 . S
C164 N162 1.263 . S
C164 N163 1.358 . S
C164 H170 0.946 . S
C165 N163 1.400 . S
C165 C166 1.351 . S
C165 H182 0.930 . S
C166 N162 1.389 . S
C166 C165 1.351 . S
C166 H171 0.930 . S
O167 Cu161 1.974 . S
O167 C177 1.282 . S
C168 O169 1.261 . S
C168 O181 1.251 . S
O169 C168 1.261 . S
H170 C164 0.946 . S
H171 C166 0.930 . S
N172 Cu161 1.985 . S
N172 C174 1.335 . S
N172 C175 1.390 . S
N173 C174 1.345 . S
N173 C176 1.336 . S
C174 N172 1.335 . S
C174 N173 1.345 . S
C174 H179 0.930 . S
C175 N172 1.390 . S
C175 C176 1.346 . S
C175 H180 0.930 . S
C176 N173 1.336 . S
C176 C175 1.346 . S
C176 H183 0.929 . S
C177 O167 1.282 . S
C177 O178 1.216 . S
O178 C177 1.216 . S
H179 C174 0.930 . S
H180 C175 0.930 . S
O181 Cu161 1.959 1_655 S
O181 C168 1.251 . S
H182 C165 0.930 . S
H183 C176 0.929 . S
H184 C190 0.930 . S
H185 C194 0.930 . S
H186 C199 0.929 . S
H187 C197 0.929 . S
H188 C192 0.929 . S
H189 C198 0.929 . S
C190 H184 0.930 . S
C190 C191 1.367 . S
C190 C198 1.378 . S
C191 C190 1.367 . S
C191 C199 1.433 . S
C192 H188 0.929 . S
C192 C194 1.378 . S
C192 C196 1.350 . S
C193 C196 1.463 . S
C193 C198 1.350 . S
C193 N201 1.427 . S
C194 H185 0.930 . S
C194 C192 1.378 . S
C194 C195 1.367 . S
C195 C194 1.367 . S
C195 C197 1.433 . S
C196 C192 1.350 . S
C196 C193 1.463 . S
C196 N200 1.427 . S
C197 H187 0.929 . S
C197 C195 1.433 . S
C197 N200 1.384 . S
C198 H189 0.929 . S
C198 C190 1.378 . S
C198 C193 1.350 . S
C199 H186 0.929 . S
C199 C191 1.433 . S
C199 N201 1.384 . S
N200 C196 1.427 . S
N200 C197 1.384 . S
N201 C193 1.427 . S
N201 C199 1.384 . S
H202 C208 0.930 . S
H203 C212 0.930 . S
H204 C217 0.929 . S
H205 C215 0.929 . S
H206 C210 0.929 . S
H207 C216 0.929 . S
C208 H202 0.930 . S
C208 C209 1.367 . S
C208 C216 1.378 . S
C209 C208 1.367 . S
C209 C217 1.433 . S
C210 H206 0.929 . S
C210 C212 1.378 . S
C210 C214 1.350 . S
C211 C214 1.463 . S
C211 C216 1.350 . S
C211 N219 1.427 . S
C212 H203 0.930 . S
C212 C210 1.378 . S
C212 C213 1.367 . S
C213 C212 1.367 . S
C213 C215 1.433 . S
C214 C210 1.350 . S
C214 C211 1.463 . S
C214 N218 1.427 . S
C215 H205 0.929 . S
C215 C213 1.433 . S
C215 N218 1.384 . S
C216 H207 0.929 . S
C216 C208 1.378 . S
C216 C211 1.350 . S
C217 H204 0.929 . S
C217 C209 1.433 . S
C217 N219 1.384 . S
N218 C214 1.427 . S
N218 C215 1.384 . S
N219 C211 1.427 . S
N219 C217 1.384 . S
H220 C226 0.930 . S
H221 C230 0.930 . S
H222 C235 0.929 . S
H223 C233 0.929 . S
H224 C228 0.929 . S
H225 C234 0.929 . S
C226 H220 0.930 . S
C226 C227 1.367 . S
C226 C234 1.378 . S
C227 C226 1.367 . S
C227 C235 1.433 . S
C228 H224 0.929 . S
C228 C230 1.378 . S
C228 C232 1.350 . S
C229 C232 1.463 . S
C229 C234 1.350 . S
C229 N237 1.427 . S
C230 H221 0.930 . S
C230 C228 1.378 . S
C230 C231 1.367 . S
C231 C230 1.367 . S
C231 C233 1.433 . S
C232 C228 1.350 . S
C232 C229 1.463 . S
C232 N236 1.427 . S
C233 H223 0.929 . S
C233 C231 1.433 . S
C233 N236 1.384 . S
C234 H225 0.929 . S
C234 C226 1.378 . S
C234 C229 1.350 . S
C235 H222 0.929 . S
C235 C227 1.433 . S
C235 N237 1.384 . S
N236 C232 1.427 . S
N236 C233 1.384 . S
N237 C229 1.427 . S
N237 C235 1.384 . S
H238 C244 0.930 . S
H239 C248 0.930 . S
H240 C253 0.929 . S
H241 C251 0.929 . S
H242 C246 0.929 . S
H243 C252 0.929 . S
C244 H238 0.930 . S
C244 C245 1.367 . S
C244 C252 1.378 . S
C245 C244 1.367 . S
C245 C253 1.433 . S
C246 H242 0.929 . S
C246 C248 1.378 . S
C246 C250 1.350 . S
C247 C250 1.463 . S
C247 C252 1.350 . S
C247 N255 1.427 . S
C248 H239 0.930 . S
C248 C246 1.378 . S
C248 C249 1.367 . S
C249 C248 1.367 . S
C249 C251 1.433 . S
C250 C246 1.350 . S
C250 C247 1.463 . S
C250 N254 1.427 . S
C251 H241 0.929 . S
C251 C249 1.433 . S
C251 N254 1.384 . S
C252 H243 0.929 . S
C252 C244 1.378 . S
C252 C247 1.350 . S
C253 H240 0.929 . S
C253 C245 1.433 . S
C253 N255 1.384 . S
N254 C250 1.427 . S
N254 C251 1.384 . S
N255 C247 1.427 . S
N255 C253 1.384 . S
H256 C262 0.930 . S
H257 C266 0.930 . S
H258 C271 0.929 . S
H259 C269 0.929 . S
H260 C264 0.929 . S
H261 C270 0.929 . S
C262 H256 0.930 . S
C262 C263 1.367 . S
C262 C270 1.378 . S
C263 C262 1.367 . S
C263 C271 1.433 . S
C264 H260 0.929 . S
C264 C266 1.378 . S
C264 C268 1.350 . S
C265 C268 1.463 . S
C265 C270 1.350 . S
C265 N273 1.427 . S
C266 H257 0.930 . S
C266 C264 1.378 . S
C266 C267 1.367 . S
C267 C266 1.367 . S
C267 C269 1.433 . S
C268 C264 1.350 . S
C268 C265 1.463 . S
C268 N272 1.427 . S
C269 H259 0.929 . S
C269 C267 1.433 . S
C269 N272 1.384 . S
C270 H261 0.929 . S
C270 C262 1.378 . S
C270 C265 1.350 . S
C271 H258 0.929 . S
C271 C263 1.433 . S
C271 N273 1.384 . S
N272 C268 1.427 . S
N272 C269 1.384 . S
N273 C265 1.427 . S
N273 C271 1.384 . S
H274 C280 0.930 . S
H275 C284 0.930 . S
H276 C289 0.929 . S
H277 C287 0.929 . S
H278 C282 0.929 . S
H279 C288 0.929 . S
C280 H274 0.930 . S
C280 C281 1.367 . S
C280 C288 1.378 . S
C281 C280 1.367 . S
C281 C289 1.433 . S
C282 H278 0.929 . S
C282 C284 1.378 . S
C282 C286 1.350 . S
C283 C286 1.463 . S
C283 C288 1.350 . S
C283 N291 1.427 . S
C284 H275 0.930 . S
C284 C282 1.378 . S
C284 C285 1.367 . S
C285 C284 1.367 . S
C285 C287 1.433 . S
C286 C282 1.350 . S
C286 C283 1.463 . S
C286 N290 1.427 . S
C287 H277 0.929 . S
C287 C285 1.433 . S
C287 N290 1.384 . S
C288 H279 0.929 . S
C288 C280 1.378 . S
C288 C283 1.350 . S
C289 H276 0.929 . S
C289 C281 1.433 . S
C289 N291 1.384 . S
N290 C286 1.427 . S
N290 C287 1.384 . S
N291 C283 1.427 . S
N291 C289 1.384 . S
H292 C298 0.930 . S
H293 C302 0.930 . S
H294 C307 0.929 . S
H295 C305 0.929 . S
H296 C300 0.929 . S
H297 C306 0.929 . S
C298 H292 0.930 . S
C298 C299 1.367 . S
C298 C306 1.378 . S
C299 C298 1.367 . S
C299 C307 1.433 . S
C300 H296 0.929 . S
C300 C302 1.378 . S
C300 C304 1.350 . S
C301 C304 1.463 . S
C301 C306 1.350 . S
C301 N309 1.427 . S
C302 H293 0.930 . S
C302 C300 1.378 . S
C302 C303 1.367 . S
C303 C302 1.367 . S
C303 C305 1.433 . S
C304 C300 1.350 . S
C304 C301 1.463 . S
C304 N308 1.427 . S
C305 H295 0.929 . S
C305 C303 1.433 . S
C305 N308 1.384 . S
C306 H297 0.929 . S
C306 C298 1.378 . S
C306 C301 1.350 . S
C307 H294 0.929 . S
C307 C299 1.433 . S
C307 N309 1.384 . S
N308 C304 1.427 . S
N308 C305 1.384 . S
N309 C301 1.427 . S
N309 C307 1.384 . S
H310 C316 0.930 . S
H311 C320 0.930 . S
H312 C325 0.929 . S
H313 C323 0.929 . S
H314 C318 0.929 . S
H315 C324 0.929 . S
C316 H310 0.930 . S
C316 C317 1.367 . S
C316 C324 1.378 . S
C317 C316 1.367 . S
C317 C325 1.433 . S
C318 H314 0.929 . S
C318 C320 1.378 . S
C318 C322 1.350 . S
C319 C322 1.463 . S
C319 C324 1.350 . S
C319 N327 1.427 . S
C320 H311 0.930 . S
C320 C318 1.378 . S
C320 C321 1.367 . S
C321 C320 1.367 . S
C321 C323 1.433 . S
C322 C318 1.350 . S
C322 C319 1.463 . S
C322 N326 1.427 . S
C323 H313 0.929 . S
C323 C321 1.433 . S
C323 N326 1.384 . S
C324 H315 0.929 . S
C324 C316 1.378 . S
C324 C319 1.350 . S
C325 H312 0.929 . S
C325 C317 1.433 . S
C325 N327 1.384 . S
N326 C322 1.427 . S
N326 C323 1.384 . S
N327 C319 1.427 . S
N327 C325 1.384 . S
H328 C334 0.930 . S
H329 C338 0.930 . S
H330 C343 0.929 . S
H331 C341 0.929 . S
H332 C336 0.929 . S
H333 C342 0.929 . S
C334 H328 0.930 . S
C334 C335 1.367 . S
C334 C342 1.378 . S
C335 C334 1.367 . S
C335 C343 1.433 . S
C336 H332 0.929 . S
C336 C338 1.378 . S
C336 C340 1.350 . S
C337 C340 1.463 . S
C337 C342 1.350 . S
C337 N345 1.427 . S
C338 H329 0.930 . S
C338 C336 1.378 . S
C338 C339 1.367 . S
C339 C338 1.367 . S
C339 C341 1.433 . S
C340 C336 1.350 . S
C340 C337 1.463 . S
C340 N344 1.427 . S
C341 H331 0.929 . S
C341 C339 1.433 . S
C341 N344 1.384 . S
C342 H333 0.929 . S
C342 C334 1.378 . S
C342 C337 1.350 . S
C343 H330 0.929 . S
C343 C335 1.433 . S
C343 N345 1.384 . S
N344 C340 1.427 . S
N344 C341 1.384 . S
N345 C337 1.427 . S
N345 C343 1.384 . S
H346 C352 0.930 . S
H347 C356 0.930 . S
H348 C361 0.929 . S
H349 C359 0.929 . S
H350 C354 0.929 . S
H351 C360 0.929 . S
C352 H346 0.930 . S
C352 C353 1.367 . S
C352 C360 1.378 . S
C353 C352 1.367 . S
C353 C361 1.433 . S
C354 H350 0.929 . S
C354 C356 1.378 . S
C354 C358 1.350 . S
C355 C358 1.463 . S
C355 C360 1.350 . S
C355 N363 1.427 . S
C356 H347 0.930 . S
C356 C354 1.378 . S
C356 C357 1.367 . S
C357 C356 1.367 . S
C357 C359 1.433 . S
C358 C354 1.350 . S
C358 C355 1.463 . S
C358 N362 1.427 . S
C359 H349 0.929 . S
C359 C357 1.433 . S
C359 N362 1.384 . S
C360 H351 0.929 . S
C360 C352 1.378 . S
C360 C355 1.350 . S
C361 H348 0.929 . S
C361 C353 1.433 . S
C361 N363 1.384 . S
N362 C358 1.427 . S
N362 C359 1.384 . S
N363 C355 1.427 . S
N363 C361 1.384 . S
H364 C370 0.930 . S
H365 C374 0.930 . S
H366 C379 0.929 . S
H367 C377 0.929 . S
H368 C372 0.929 . S
H369 C378 0.929 . S
C370 H364 0.930 . S
C370 C371 1.367 . S
C370 C378 1.378 . S
C371 C370 1.367 . S
C371 C379 1.433 . S
C372 H368 0.929 . S
C372 C374 1.378 . S
C372 C376 1.350 . S
C373 C376 1.463 . S
C373 C378 1.350 . S
C373 N381 1.427 . S
C374 H365 0.930 . S
C374 C372 1.378 . S
C374 C375 1.367 . S
C375 C374 1.367 . S
C375 C377 1.433 . S
C376 C372 1.350 . S
C376 C373 1.463 . S
C376 N380 1.427 . S
C377 H367 0.929 . S
C377 C375 1.433 . S
C377 N380 1.384 . S
C378 H369 0.929 . S
C378 C370 1.378 . S
C378 C373 1.350 . S
C379 H366 0.929 . S
C379 C371 1.433 . S
C379 N381 1.384 . S
N380 C376 1.427 . S
N380 C377 1.384 . S
N381 C373 1.427 . S
N381 C379 1.384 . S
H382 C388 0.930 . S
H383 C392 0.930 . S
H384 C397 0.929 . S
H385 C395 0.929 . S
H386 C390 0.929 . S
H387 C396 0.929 . S
C388 H382 0.930 . S
C388 C389 1.367 . S
C388 C396 1.378 . S
C389 C388 1.367 . S
C389 C397 1.433 . S
C390 H386 0.929 . S
C390 C392 1.378 . S
C390 C394 1.350 . S
C391 C394 1.463 . S
C391 C396 1.350 . S
C391 N399 1.427 . S
C392 H383 0.930 . S
C392 C390 1.378 . S
C392 C393 1.367 . S
C393 C392 1.367 . S
C393 C395 1.433 . S
C394 C390 1.350 . S
C394 C391 1.463 . S
C394 N398 1.427 . S
C395 H385 0.929 . S
C395 C393 1.433 . S
C395 N398 1.384 . S
C396 H387 0.929 . S
C396 C388 1.378 . S
C396 C391 1.350 . S
C397 H384 0.929 . S
C397 C389 1.433 . S
C397 N399 1.384 . S
N398 C394 1.427 . S
N398 C395 1.384 . S
N399 C391 1.427 . S
N399 C397 1.384 . S
H400 C406 0.930 . S
H401 C410 0.930 . S
H402 C415 0.929 . S
H403 C413 0.929 . S
H404 C408 0.929 . S
H405 C414 0.929 . S
C406 H400 0.930 . S
C406 C407 1.367 . S
C406 C414 1.378 . S
C407 C406 1.367 . S
C407 C415 1.433 . S
C408 H404 0.929 . S
C408 C410 1.378 . S
C408 C412 1.350 . S
C409 C412 1.463 . S
C409 C414 1.350 . S
C409 N417 1.427 . S
C410 H401 0.930 . S
C410 C408 1.378 . S
C410 C411 1.367 . S
C411 C410 1.367 . S
C411 C413 1.433 . S
C412 C408 1.350 . S
C412 C409 1.463 . S
C412 N416 1.427 . S
C413 H403 0.929 . S
C413 C411 1.433 . S
C413 N416 1.384 . S
C414 H405 0.929 . S
C414 C406 1.378 . S
C414 C409 1.350 . S
C415 H402 0.929 . S
C415 C407 1.433 . S
C415 N417 1.384 . S
N416 C412 1.427 . S
N416 C413 1.384 . S
N417 C409 1.427 . S
N417 C415 1.384 . S
H418 C424 0.930 . S
H419 C428 0.930 . S
H420 C433 0.929 . S
H421 C431 0.929 . S
H422 C426 0.929 . S
H423 C432 0.929 . S
C424 H418 0.930 . S
C424 C425 1.367 . S
C424 C432 1.378 . S
C425 C424 1.367 . S
C425 C433 1.433 . S
C426 H422 0.929 . S
C426 C428 1.378 . S
C426 C430 1.350 . S
C427 C430 1.463 . S
C427 C432 1.350 . S
C427 N435 1.427 . S
C428 H419 0.930 . S
C428 C426 1.378 . S
C428 C429 1.367 . S
C429 C428 1.367 . S
C429 C431 1.433 . S
C430 C426 1.350 . S
C430 C427 1.463 . S
C430 N434 1.427 . S
C431 H421 0.929 . S
C431 C429 1.433 . S
C431 N434 1.384 . S
C432 H423 0.929 . S
C432 C424 1.378 . S
C432 C427 1.350 . S
C433 H420 0.929 . S
C433 C425 1.433 . S
C433 N435 1.384 . S
N434 C430 1.427 . S
N434 C431 1.384 . S
N435 C427 1.427 . S
N435 C433 1.384 . S
H436 C442 0.930 . S
H437 C446 0.930 . S
H438 C451 0.929 . S
H439 C449 0.929 . S
H440 C444 0.929 . S
H441 C450 0.929 . S
C442 H436 0.930 . S
C442 C443 1.367 . S
C442 C450 1.378 . S
C443 C442 1.367 . S
C443 C451 1.433 . S
C444 H440 0.929 . S
C444 C446 1.378 . S
C444 C448 1.350 . S
C445 C448 1.463 . S
C445 C450 1.350 . S
C445 N453 1.427 . S
C446 H437 0.930 . S
C446 C444 1.378 . S
C446 C447 1.367 . S
C447 C446 1.367 . S
C447 C449 1.433 . S
C448 C444 1.350 . S
C448 C445 1.463 . S
C448 N452 1.427 . S
C449 H439 0.929 . S
C449 C447 1.433 . S
C449 N452 1.384 . S
C450 H441 0.929 . S
C450 C442 1.378 . S
C450 C445 1.350 . S
C451 H438 0.929 . S
C451 C443 1.433 . S
C451 N453 1.384 . S
N452 C448 1.427 . S
N452 C449 1.384 . S
N453 C445 1.427 . S
N453 C451 1.384 . S
H454 C460 0.930 . S
H455 C464 0.930 . S
H456 C469 0.929 . S
H457 C467 0.929 . S
H458 C462 0.929 . S
H459 C468 0.929 . S
C460 H454 0.930 . S
C460 C461 1.367 . S
C460 C468 1.378 . S
C461 C460 1.367 . S
C461 C469 1.433 . S
C462 H458 0.929 . S
C462 C464 1.378 . S
C462 C466 1.350 . S
C463 C466 1.463 . S
C463 C468 1.350 . S
C463 N471 1.427 . S
C464 H455 0.930 . S
C464 C462 1.378 . S
C464 C465 1.367 . S
C465 C464 1.367 . S
C465 C467 1.433 . S
C466 C462 1.350 . S
C466 C463 1.463 . S
C466 N470 1.427 . S
C467 H457 0.929 . S
C467 C465 1.433 . S
C467 N470 1.384 . S
C468 H459 0.929 . S
C468 C460 1.378 . S
C468 C463 1.350 . S
C469 H456 0.929 . S
C469 C461 1.433 . S
C469 N471 1.384 . S
N470 C466 1.427 . S
N470 C467 1.384 . S
N471 C463 1.427 . S
N471 C469 1.384 . S
C191 C7 1.461 . S
C195 N71 1.432 . S
C209 N2 1.413 . S
C213 N25 1.399 . S
C227 C62 1.558 . S
C231 C30 1.565 . S
C245 C76 1.552 . S
C249 N58 1.501 . S
C263 C16 1.431 . S
C267 N127 1.401 . S
C281 N12 1.394 . S
C285 N104 1.388 . S
C299 C108 1.585 . S
C303 C53 1.589 . S
C317 N48 1.551 . S
C321 C131 1.579 . S
C335 C154 1.404 . S
C339 N117 1.381 . S
C353 N94 1.391 . S
C357 N150 1.395 . S
C371 C99 1.581 . S
C375 C168 1.579 . S
C389 C122 1.600 . S
C393 N163 1.562 . S
C407 C145 1.460 . S
C411 N81 1.417 . S
C425 N35 1.432 . S
C429 N140 1.440 . S
C443 C39 1.547 . S
C447 C177 1.544 . S
C461 C85 1.555 . S
C465 N173 1.514 . S
