# Generated by pormake.
# Topology snl, (6)-cn, num edge types: 1
# Building blocks:
#     Node 0, Type 0, BuildingBlock: UKALOJ_clean_sbu_0, # of connection points: 6
#     Node 1, Type 0, BuildingBlock: UKALOJ_clean_sbu_0, # of connection points: 6
#     Node 2, Type 0, BuildingBlock: UKALOJ_clean_sbu_0, # of connection points: 6
#     Node 3, Type 0, BuildingBlock: UKALOJ_clean_sbu_0, # of connection points: 6
#     Node 4, Type 0, BuildingBlock: UKALOJ_clean_sbu_0, # of connection points: 6
#     Node 5, Type 0, BuildingBlock: UKALOJ_clean_sbu_0, # of connection points: 6
#     Node 6, Type 0, BuildingBlock: UKALOJ_clean_sbu_0, # of connection points: 6
#     Node 7, Type 0, BuildingBlock: UKALOJ_clean_sbu_0, # of connection points: 6
#     Node 8, Type 0, BuildingBlock: UKALOJ_clean_sbu_0, # of connection points: 6
#     Node 9, Type 0, BuildingBlock: UKALOJ_clean_sbu_0, # of connection points: 6
#     Node 10, Type 0, BuildingBlock: UKALOJ_clean_sbu_0, # of connection points: 6
#     Node 11, Type 0, BuildingBlock: UKALOJ_clean_sbu_0, # of connection points: 6
#     Node 12, Type 0, BuildingBlock: UKALOJ_clean_sbu_0, # of connection points: 6
#     Node 13, Type 0, BuildingBlock: UKALOJ_clean_sbu_0, # of connection points: 6
#     Node 14, Type 0, BuildingBlock: UKALOJ_clean_sbu_0, # of connection points: 6
#     Node 15, Type 0, BuildingBlock: UKALOJ_clean_sbu_0, # of connection points: 6
#     Edge 16, Type (0, 0), BuildingBlock: XIVTED_clean_linker_0, # of connection points: 2
#     Edge 17, Type (0, 0), BuildingBlock: XIVTED_clean_linker_0, # of connection points: 2
#     Edge 18, Type (0, 0), BuildingBlock: XIVTED_clean_linker_0, # of connection points: 2
#     Edge 19, Type (0, 0), BuildingBlock: XIVTED_clean_linker_0, # of connection points: 2
#     Edge 20, Type (0, 0), BuildingBlock: XIVTED_clean_linker_0, # of connection points: 2
#     Edge 21, Type (0, 0), BuildingBlock: XIVTED_clean_linker_0, # of connection points: 2
#     Edge 22, Type (0, 0), BuildingBlock: XIVTED_clean_linker_0, # of connection points: 2
#     Edge 23, Type (0, 0), BuildingBlock: XIVTED_clean_linker_0, # of connection points: 2
#     Edge 24, Type (0, 0), BuildingBlock: XIVTED_clean_linker_0, # of connection points: 2
#     Edge 25, Type (0, 0), BuildingBlock: XIVTED_clean_linker_0, # of connection points: 2
#     Edge 26, Type (0, 0), BuildingBlock: XIVTED_clean_linker_0, # of connection points: 2
#     Edge 27, Type (0, 0), BuildingBlock: XIVTED_clean_linker_0, # of connection points: 2
#     Edge 28, Type (0, 0), BuildingBlock: XIVTED_clean_linker_0, # of connection points: 2
#     Edge 29, Type (0, 0), BuildingBlock: XIVTED_clean_linker_0, # of connection points: 2
#     Edge 30, Type (0, 0), BuildingBlock: XIVTED_clean_linker_0, # of connection points: 2
#     Edge 31, Type (0, 0), BuildingBlock: XIVTED_clean_linker_0, # of connection points: 2
#     Edge 32, Type (0, 0), BuildingBlock: XIVTED_clean_linker_0, # of connection points: 2
#     Edge 33, Type (0, 0), BuildingBlock: XIVTED_clean_linker_0, # of connection points: 2
#     Edge 34, Type (0, 0), BuildingBlock: XIVTED_clean_linker_0, # of connection points: 2
#     Edge 35, Type (0, 0), BuildingBlock: XIVTED_clean_linker_0, # of connection points: 2
#     Edge 36, Type (0, 0), BuildingBlock: XIVTED_clean_linker_0, # of connection points: 2
#     Edge 37, Type (0, 0), BuildingBlock: XIVTED_clean_linker_0, # of connection points: 2
#     Edge 38, Type (0, 0), BuildingBlock: XIVTED_clean_linker_0, # of connection points: 2
#     Edge 39, Type (0, 0), BuildingBlock: XIVTED_clean_linker_0, # of connection points: 2
#     Edge 40, Type (0, 0), BuildingBlock: XIVTED_clean_linker_0, # of connection points: 2
#     Edge 41, Type (0, 0), BuildingBlock: XIVTED_clean_linker_0, # of connection points: 2
#     Edge 42, Type (0, 0), BuildingBlock: XIVTED_clean_linker_0, # of connection points: 2
#     Edge 43, Type (0, 0), BuildingBlock: XIVTED_clean_linker_0, # of connection points: 2
#     Edge 44, Type (0, 0), BuildingBlock: XIVTED_clean_linker_0, # of connection points: 2
#     Edge 45, Type (0, 0), BuildingBlock: XIVTED_clean_linker_0, # of connection points: 2
#     Edge 46, Type (0, 0), BuildingBlock: XIVTED_clean_linker_0, # of connection points: 2
#     Edge 47, Type (0, 0), BuildingBlock: XIVTED_clean_linker_0, # of connection points: 2
#     Edge 48, Type (0, 0), BuildingBlock: XIVTED_clean_linker_0, # of connection points: 2
#     Edge 49, Type (0, 0), BuildingBlock: XIVTED_clean_linker_0, # of connection points: 2
#     Edge 50, Type (0, 0), BuildingBlock: XIVTED_clean_linker_0, # of connection points: 2
#     Edge 51, Type (0, 0), BuildingBlock: XIVTED_clean_linker_0, # of connection points: 2
#     Edge 52, Type (0, 0), BuildingBlock: XIVTED_clean_linker_0, # of connection points: 2
#     Edge 53, Type (0, 0), BuildingBlock: XIVTED_clean_linker_0, # of connection points: 2
#     Edge 54, Type (0, 0), BuildingBlock: XIVTED_clean_linker_0, # of connection points: 2
#     Edge 55, Type (0, 0), BuildingBlock: XIVTED_clean_linker_0, # of connection points: 2
#     Edge 56, Type (0, 0), BuildingBlock: XIVTED_clean_linker_0, # of connection points: 2
#     Edge 57, Type (0, 0), BuildingBlock: XIVTED_clean_linker_0, # of connection points: 2
#     Edge 58, Type (0, 0), BuildingBlock: XIVTED_clean_linker_0, # of connection points: 2
#     Edge 59, Type (0, 0), BuildingBlock: XIVTED_clean_linker_0, # of connection points: 2
#     Edge 60, Type (0, 0), BuildingBlock: XIVTED_clean_linker_0, # of connection points: 2
#     Edge 61, Type (0, 0), BuildingBlock: XIVTED_clean_linker_0, # of connection points: 2
#     Edge 62, Type (0, 0), BuildingBlock: XIVTED_clean_linker_0, # of connection points: 2
#     Edge 63, Type (0, 0), BuildingBlock: XIVTED_clean_linker_0, # of connection points: 2
# Relax obj value: 0.073
# Max RMSD: 0.105
# Mean RMSD: 0.095
data_MOF--net-snl--node1-UKALOJ_clean_sbu_0--edge1-XIVTED_clean_linker_0
_symmetry_space_group_name_H-M    P1
_symmetry_Int_Tables_number       1
_symmetry_cell_setting            triclinic
loop_
_symmetry_equiv_pos_as_xyz
'x, y, z'
_cell_length_a     72.591562
_cell_length_b     66.992046
_cell_length_c     15.528424
_cell_angle_alpha  89.020398
_cell_angle_beta   89.434379
_cell_angle_gamma 90.299701
loop_
_atom_site_label
_atom_site_type_symbol
_atom_site_fract_x
_atom_site_fract_y
_atom_site_fract_z
_atom_type_partial_charge
Zn0 Zn 0.11711 0.66043 -0.01294 0.0
O1 O 0.11761 0.66086 0.85089 0.0
C2 C 0.12851 0.61792 -0.00957 0.0
Zn3 Zn 0.14744 0.65799 -0.01416 0.0
C4 C 0.13268 0.65933 0.80922 0.0
O5 O 0.14771 0.65781 0.85009 0.0
C6 C 0.13162 0.65889 0.16383 0.0
O7 O 0.15106 0.68909 -0.01793 0.0
O8 O 0.1211 0.69248 -0.01304 0.0
N9 N 0.17503 0.65371 -0.01276 0.0
C10 C 0.18773 0.65958 0.04416 0.0
C11 C 0.20054 0.63848 0.96194 0.0
N12 N 0.18304 0.64076 0.93559 0.0
N13 N 0.20375 0.65002 0.03042 0.0
C14 C 0.07519 0.6544 0.95729 0.0
C15 C 0.06427 0.67985 0.0203 0.0
N16 N 0.08951 0.66476 -0.01134 0.0
N17 N 0.0827 0.68056 0.02769 0.0
N18 N 0.0592 0.66355 0.9767 0.0
H19 H 0.09014 0.63626 0.86728 0.0
H20 H 0.06534 0.6349 0.85838 0.0
H21 H 0.07676 0.62271 0.94709 0.0
C22 C 0.07697 0.63608 0.90392 0.0
C23 C 0.18476 0.67516 0.11127 0.0
H24 H 0.1745 0.6863 0.09052 0.0
H25 H 0.1979 0.68294 0.12527 0.0
H26 H 0.17966 0.66799 0.17166 0.0
O27 O 0.14673 0.65789 0.12232 0.0
O28 O 0.11665 0.66011 0.12266 0.0
C29 C 0.1371 0.70036 -0.01501 0.0
O30 O 0.11383 0.62824 -0.01105 0.0
O31 O 0.14395 0.62688 -0.01067 0.0
Zn32 Zn 0.62213 0.90308 0.18595 0.0
O33 O 0.59262 0.90268 0.18815 0.0
C34 C 0.62331 0.88556 0.36496 0.0
Zn35 Zn 0.62338 0.86988 0.18957 0.0
C36 C 0.5841 0.88605 0.19021 0.0
O37 O 0.5935 0.87006 0.19145 0.0
C38 C 0.66135 0.88736 0.18237 0.0
O39 O 0.62319 0.87088 0.05371 0.0
O40 O 0.62175 0.90371 0.04987 0.0
N41 N 0.62229 0.83937 0.19114 0.0
C42 C 0.63442 0.82456 0.17667 0.0
C43 C 0.60904 0.81094 0.2162 0.0
N44 N 0.60656 0.83079 0.21542 0.0
N45 N 0.62642 0.80661 0.19245 0.0
C46 C 0.61476 0.94547 0.25119 0.0
C47 C 0.63684 0.96213 0.19367 0.0
N48 N 0.62292 0.9336 0.19292 0.0
N49 N 0.63651 0.94408 0.15652 0.0
N50 N 0.62345 0.9633 0.25405 0.0
H51 H 0.58698 0.93437 0.2582 0.0
H52 H 0.59181 0.95334 0.33423 0.0
H53 H 0.60056 0.92849 0.35118 0.0
C54 C 0.59763 0.94012 0.30187 0.0
C55 C 0.65359 0.82761 0.14248 0.0
H56 H 0.65383 0.83991 0.0937 0.0
H57 H 0.6589 0.81383 0.11259 0.0
H58 H 0.66272 0.83164 0.19637 0.0
O59 O 0.65317 0.87051 0.18705 0.0
O60 O 0.65166 0.90313 0.18176 0.0
C61 C 0.62244 0.88719 0.01059 0.0
O62 O 0.62284 0.90177 0.32166 0.0
O63 O 0.62357 0.86912 0.3256 0.0
Zn64 Zn 0.35203 0.39211 0.59005 0.0
O65 O 0.35186 0.35997 0.60888 0.0
C66 C 0.36865 0.39598 0.76552 0.0
Zn67 Zn 0.38248 0.39303 0.58744 0.0
C68 C 0.36759 0.35166 0.61146 0.0
O69 O 0.38193 0.36229 0.60033 0.0
C70 C 0.36817 0.43357 0.56963 0.0
O71 O 0.38108 0.39078 0.45197 0.0
O72 O 0.35094 0.38883 0.45449 0.0
N73 N 0.41033 0.3918 0.57937 0.0
C74 C 0.42273 0.40257 0.53281 0.0
C75 C 0.43735 0.37933 0.59769 0.0
N76 N 0.41944 0.37737 0.61957 0.0
N77 N 0.4397 0.39501 0.54332 0.0
C78 C 0.31151 0.38571 0.65223 0.0
C79 C 0.29736 0.40573 0.568 0.0
N80 N 0.32404 0.39334 0.59581 0.0
N81 N 0.31517 0.40561 0.54308 0.0
N82 N 0.2947 0.39331 0.63612 0.0
H83 H 0.30857 0.3577 0.71941 0.0
H84 H 0.31087 0.37882 0.78769 0.0
H85 H 0.33074 0.36898 0.73168 0.0
C86 C 0.31587 0.37212 0.72698 0.0
C87 C 0.41824 0.41975 0.47361 0.0
H88 H 0.40414 0.41847 0.44801 0.0
H89 H 0.4282 0.42064 0.41899 0.0
H90 H 0.41927 0.43382 0.50987 0.0
O91 O 0.38302 0.42388 0.57689 0.0
O92 O 0.35287 0.42418 0.57169 0.0
C93 C 0.36598 0.38927 0.41192 0.0
O94 O 0.35351 0.39575 0.72522 0.0
O95 O 0.38369 0.39505 0.72325 0.0
Zn96 Zn 0.85564 0.1344 0.93377 0.0
O97 O 0.85438 0.16662 0.9299 0.0
C98 C 0.87023 0.13342 0.75562 0.0
Zn99 Zn 0.88687 0.13416 0.93155 0.0
C100 C 0.8699 0.17566 0.92834 0.0
O101 O 0.88462 0.16547 0.92775 0.0
C102 C 0.87356 0.0929 0.94124 0.0
O103 O 0.88746 0.13484 0.0674 0.0
O104 O 0.85712 0.13508 0.06958 0.0
N105 N 0.9153 0.13759 0.9211 0.0
C106 C 0.9303 0.12828 0.95345 0.0
C107 C 0.94 0.15253 0.87466 0.0
N108 N 0.92149 0.1526 0.87216 0.0
N109 N 0.94605 0.13742 0.92509 0.0
C110 C 0.81227 0.13963 0.90044 0.0
C111 C 0.80171 0.11667 -0.01622 0.0
N112 N 0.82688 0.13135 0.94137 0.0
N113 N 0.82012 0.11719 -0.00669 0.0
N114 N 0.79625 0.1306 0.92591 0.0
H115 H 0.82822 0.15746 0.80929 0.0
H116 H 0.80944 0.17008 0.86067 0.0
H117 H 0.80462 0.15239 0.77816 0.0
C118 C 0.81384 0.15573 0.83273 0.0
C119 C 0.92931 0.11101 0.01579 0.0
H120 H 0.91601 0.11092 0.05144 0.0
H121 H 0.94087 0.11164 0.06193 0.0
H122 H 0.93031 0.09691 0.97965 0.0
O123 O 0.88856 0.1028 0.93668 0.0
O124 O 0.85825 0.10221 0.93987 0.0
C125 C 0.87234 0.13508 0.10966 0.0
O126 O 0.85513 0.13359 0.7979 0.0
O127 O 0.88542 0.13353 0.79575 0.0
Zn128 Zn 0.13693 0.37284 0.96411 0.0
O129 O 0.13386 0.37185 0.82826 0.0
C130 C 0.1741 0.38722 0.94009 0.0
Zn131 Zn 0.13616 0.40626 0.9597 0.0
C132 C 0.13315 0.38814 0.7851 0.0
O133 O 0.13357 0.40462 0.82445 0.0
C134 C 0.1399 0.39101 0.13867 0.0
O135 O 0.10703 0.40809 0.97341 0.0
O136 O 0.10846 0.37535 -0.01964 0.0
N137 N 0.13906 0.43674 0.94678 0.0
C138 C 0.13091 0.45288 -0.01854 0.0
C139 C 0.15224 0.46355 0.8971 0.0
N140 N 0.15221 0.44351 0.89416 0.0
N141 N 0.13897 0.46989 0.95108 0.0
C142 C 0.1419 0.32651 0.93819 0.0
C143 C 0.12123 0.31526 0.02486 0.0
N144 N 0.13401 0.34238 0.97611 0.0
N145 N 0.12124 0.33528 0.03003 0.0
N146 N 0.13408 0.30928 0.96786 0.0
H147 H 0.15618 0.34274 0.8362 0.0
H148 H 0.15472 0.31601 0.82186 0.0
H149 H 0.17019 0.32624 0.89966 0.0
C150 C 0.15649 0.32801 0.8695 0.0
C151 C 0.11578 0.45187 0.04757 0.0
H152 H 0.11594 0.43739 0.0831 0.0
H153 H 0.10235 0.45332 0.01461 0.0
H154 H 0.11709 0.46431 0.09342 0.0
O155 O 0.1388 0.4073 0.09564 0.0
O156 O 0.13989 0.37452 0.09924 0.0
C157 C 0.09905 0.39124 -0.01692 0.0
O158 O 0.16542 0.37079 0.94819 0.0
O159 O 0.16531 0.40357 0.94483 0.0
Zn160 Zn 0.85614 0.90271 0.05623 0.0
O161 O 0.85446 0.87105 0.06129 0.0
C162 C 0.87018 0.90409 0.23309 0.0
Zn163 Zn 0.88735 0.90229 0.05573 0.0
C164 C 0.86939 0.8612 0.06508 0.0
O165 O 0.88475 0.87051 0.06487 0.0
C166 C 0.87398 0.94387 0.0441 0.0
O167 O 0.88847 0.90073 0.91989 0.0
O168 O 0.85813 0.90175 0.92043 0.0
N169 N 0.91582 0.8995 0.06798 0.0
C170 C 0.93118 0.90634 0.02641 0.0
C171 C 0.94004 0.88967 0.13629 0.0
N172 N 0.92152 0.88908 0.13576 0.0
N173 N 0.94658 0.90034 0.06829 0.0
C174 C 0.81293 0.89652 0.08835 0.0
C175 C 0.80243 0.91969 0.00754 0.0
N176 N 0.82758 0.9055 0.0487 0.0
N177 N 0.82089 0.9198 -0.00165 0.0
N178 N 0.79693 0.90521 0.06357 0.0
H179 H 0.82847 0.87935 0.18126 0.0
H180 H 0.81153 0.8656 0.12296 0.0
H181 H 0.80419 0.88206 0.2067 0.0
C182 C 0.81444 0.88003 0.15415 0.0
C183 C 0.93102 0.91954 0.9478 0.0
H184 H 0.9338 0.91034 0.89039 0.0
H185 H 0.94205 0.93102 0.95143 0.0
H186 H 0.91743 0.92679 0.94012 0.0
O187 O 0.88901 0.93412 0.04617 0.0
O188 O 0.85872 0.93443 0.04916 0.0
C189 C 0.87333 0.901 0.879 0.0
O190 O 0.85509 0.90377 0.19227 0.0
O191 O 0.88534 0.90388 0.19146 0.0
Zn192 Zn 0.36913 0.62356 0.43729 0.0
O193 O 0.37303 0.65487 0.42597 0.0
C194 C 0.38315 0.61878 0.25896 0.0
Zn195 Zn 0.39931 0.61962 0.43503 0.0
C196 C 0.38909 0.66233 0.41824 0.0
O197 O 0.40294 0.65083 0.42097 0.0
C198 C 0.37944 0.58086 0.45345 0.0
O199 O 0.4003 0.62196 0.57062 0.0
O200 O 0.37021 0.6254 0.57288 0.0
N201 N 0.42682 0.61608 0.42424 0.0
C202 C 0.43975 0.6067 0.47135 0.0
C203 C 0.45272 0.61748 0.35559 0.0
N204 N 0.43494 0.62281 0.35267 0.0
N205 N 0.45604 0.6073 0.42913 0.0
C206 C 0.33015 0.63531 0.38218 0.0
C207 C 0.31313 0.62004 0.47488 0.0
N208 N 0.34137 0.62682 0.44057 0.0
N209 N 0.3308 0.61748 0.49864 0.0
N210 N 0.31244 0.63105 0.40166 0.0
H211 H 0.3496 0.65559 0.31881 0.0
H212 H 0.32582 0.65967 0.29224 0.0
H213 H 0.33797 0.63881 0.24925 0.0
C214 C 0.33631 0.64815 0.30687 0.0
C215 C 0.43629 0.59635 0.5562 0.0
H216 H 0.43806 0.60729 0.60834 0.0
H217 H 0.44628 0.58407 0.56643 0.0
H218 H 0.42205 0.59037 0.56008 0.0
O219 O 0.39551 0.58843 0.44836 0.0
O220 O 0.36553 0.59225 0.44944 0.0
C221 C 0.38537 0.62409 0.61298 0.0
O222 O 0.36832 0.62129 0.30113 0.0
O223 O 0.39815 0.61736 0.29949 0.0
Zn224 Zn 0.62158 0.15536 0.7947 0.0
O225 O 0.62067 0.15316 0.93042 0.0
C226 C 0.66059 0.14031 0.80215 0.0
Zn227 Zn 0.62226 0.12217 0.79563 0.0
C228 C 0.62087 0.13671 0.97248 0.0
O229 O 0.62145 0.12035 0.93199 0.0
C230 C 0.62317 0.14097 0.61762 0.0
O231 O 0.59269 0.12097 0.79417 0.0
O232 O 0.59179 0.15361 0.79073 0.0
N233 N 0.62389 0.09174 0.7844 0.0
C234 C 0.61738 0.08011 0.7213 0.0
C235 C 0.63632 0.06255 0.79355 0.0
N236 N 0.63554 0.08072 0.82977 0.0
N237 N 0.62512 0.06189 0.72501 0.0
C238 C 0.62782 0.20086 0.75845 0.0
C239 C 0.60627 0.21325 0.83465 0.0
N240 N 0.61951 0.18563 0.8018 0.0
N241 N 0.60625 0.19341 0.84962 0.0
N242 N 0.61969 0.21835 0.77777 0.0
H243 H 0.65597 0.20469 0.71966 0.0
H244 H 0.63977 0.2069 0.63343 0.0
H245 H 0.64555 0.18266 0.67872 0.0
C246 C 0.64304 0.19848 0.69348 0.0
C247 C 0.60333 0.08625 0.65566 0.0
H248 H 0.59452 0.09845 0.67837 0.0
H249 H 0.5945 0.07329 0.63954 0.0
H250 H 0.61034 0.09134 0.59562 0.0
O251 O 0.62349 0.12457 0.65955 0.0
O252 O 0.62216 0.15717 0.65843 0.0
C253 C 0.58329 0.13693 0.79123 0.0
O254 O 0.65154 0.1566 0.80001 0.0
O255 O 0.65173 0.12387 0.79964 0.0
Zn256 Zn 0.9076 0.36427 0.97236 0.0
O257 O 0.9075 0.36394 0.10861 0.0
C258 C 0.89596 0.40688 0.96949 0.0
Zn259 Zn 0.87729 0.3668 0.97619 0.0
C260 C 0.89258 0.36548 0.15148 0.0
O261 O 0.87741 0.367 0.11182 0.0
C262 C 0.89255 0.36579 0.79691 0.0
O263 O 0.87398 0.33558 -0.01963 0.0
O264 O 0.90393 0.33219 0.97318 0.0
N265 N 0.84967 0.37068 0.97658 0.0
C266 C 0.83692 0.36451 0.92056 0.0
C267 C 0.82399 0.38546 0.00312 0.0
N268 N 0.8416 0.38354 0.02848 0.0
N269 N 0.8208 0.37378 0.93509 0.0
C270 C 0.94939 0.37133 -0.00036 0.0
C271 C 0.96086 0.34623 0.9361 0.0
N272 N 0.93528 0.36048 0.96925 0.0
N273 N 0.94242 0.3449 0.92987 0.0
N274 N 0.96557 0.36274 0.97915 0.0
H275 H 0.93418 0.38913 0.09016 0.0
H276 H 0.95895 0.39098 0.09853 0.0
H277 H 0.94731 0.40297 0.01016 0.0
C278 C 0.94731 0.38959 0.05321 0.0
C279 C 0.83995 0.34901 0.85316 0.0
H280 H 0.85048 0.33808 0.87296 0.0
H281 H 0.82691 0.34094 0.84013 0.0
H282 H 0.8447 0.35629 0.7924 0.0
O283 O 0.8776 0.3669 0.83963 0.0
O284 O 0.90766 0.36447 0.83686 0.0
C285 C 0.88792 0.3243 0.97644 0.0
O286 O 0.91056 0.39643 0.96947 0.0
O287 O 0.88045 0.39804 0.97239 0.0
Zn288 Zn 0.40477 0.1493 0.76695 0.0
O289 O 0.40462 0.14827 0.90293 0.0
C290 C 0.36646 0.13205 0.7729 0.0
Zn291 Zn 0.40539 0.11607 0.76882 0.0
C292 C 0.40536 0.13182 0.94504 0.0
O293 O 0.40605 0.11544 0.90472 0.0
C294 C 0.40443 0.13388 0.59054 0.0
O295 O 0.43516 0.11649 0.76595 0.0
O296 O 0.4345 0.14913 0.76695 0.0
N297 N 0.40501 0.0855 0.76358 0.0
C298 C 0.41281 0.07319 0.70592 0.0
C299 C 0.3928 0.05619 0.77694 0.0
N300 N 0.39276 0.07481 0.80846 0.0
N301 N 0.40531 0.05473 0.71263 0.0
C302 C 0.39361 0.19459 0.78115 0.0
C303 C 0.41835 0.20838 0.73441 0.0
N304 N 0.40573 0.17987 0.76488 0.0
N305 N 0.42108 0.18856 0.73619 0.0
N306 N 0.40118 0.21259 0.76189 0.0
H307 H 0.37493 0.17848 0.86552 0.0
H308 H 0.37029 0.20491 0.85464 0.0
H309 H 0.365 0.18848 0.76775 0.0
C310 C 0.37487 0.19142 0.82002 0.0
C311 C 0.42649 0.07952 0.63743 0.0
H312 H 0.43033 0.09542 0.64102 0.0
H313 H 0.43926 0.07069 0.64482 0.0
H314 H 0.42083 0.07641 0.57289 0.0
O315 O 0.40421 0.11749 0.63267 0.0
O316 O 0.40493 0.15014 0.63108 0.0
C317 C 0.44379 0.13307 0.76644 0.0
O318 O 0.37512 0.14863 0.7674 0.0
O319 O 0.37569 0.11595 0.7746 0.0
Zn320 Zn 0.67227 0.62621 0.36584 0.0
O321 O 0.67174 0.65822 0.34641 0.0
C322 C 0.65722 0.62194 0.1891 0.0
Zn323 Zn 0.64182 0.62552 0.36617 0.0
C324 C 0.65608 0.66662 0.34086 0.0
O325 O 0.64156 0.65618 0.3504 0.0
C326 C 0.65675 0.58505 0.38791 0.0
O327 O 0.64183 0.62846 0.50188 0.0
O328 O 0.67202 0.62968 0.50132 0.0
N329 N 0.61397 0.62495 0.36438 0.0
C330 C 0.60127 0.61586 0.41567 0.0
C331 C 0.58711 0.62868 0.30863 0.0
N332 N 0.60513 0.63299 0.29821 0.0
N333 N 0.5844 0.61805 0.38198 0.0
C334 C 0.71302 0.63342 0.31054 0.0
C335 C 0.72697 0.61415 0.39872 0.0
N336 N 0.70027 0.6258 0.36581 0.0
N337 N 0.709 0.61401 0.42106 0.0
N338 N 0.72985 0.62628 0.3298 0.0
H339 H 0.6941 0.6499 0.22851 0.0
H340 H 0.71651 0.6607 0.23799 0.0
H341 H 0.71364 0.63893 0.17407 0.0
C342 C 0.70888 0.6464 0.23348 0.0
C343 C 0.60527 0.60396 0.49595 0.0
H344 H 0.61985 0.5994 0.49924 0.0
H345 H 0.60204 0.6132 0.55268 0.0
H346 H 0.59634 0.59047 0.4997 0.0
O347 O 0.64199 0.59482 0.37968 0.0
O348 O 0.6721 0.59431 0.38502 0.0
C349 C 0.65685 0.62971 0.54287 0.0
O350 O 0.67221 0.62235 0.23042 0.0
O351 O 0.64208 0.62285 0.23038 0.0
Zn352 Zn 0.17273 0.88924 0.02897 0.0
O353 O 0.17197 0.85717 0.03291 0.0
C354 C 0.15877 0.89093 0.20678 0.0
Zn355 Zn 0.14153 0.89108 0.03052 0.0
C356 C 0.15614 0.84878 0.03384 0.0
O357 O 0.14175 0.85954 0.0341 0.0
C358 C 0.15759 0.93154 0.02147 0.0
O359 O 0.14031 0.89056 0.89484 0.0
O360 O 0.17062 0.88869 0.89315 0.0
N361 N 0.11293 0.89025 0.04535 0.0
C362 C 0.09808 0.8988 0.00765 0.0
C363 C 0.08813 0.88142 0.11456 0.0
N364 N 0.10654 0.8794 0.11129 0.0
N365 N 0.08234 0.89347 0.05018 0.0
C366 C 0.21579 0.88166 0.0613 0.0
C367 C 0.22726 0.90294 0.97236 0.0
N368 N 0.20152 0.89019 0.01874 0.0
N369 N 0.20884 0.90327 0.96327 0.0
N370 N 0.23214 0.8895 0.03347 0.0
H371 H 0.19901 0.86469 0.15245 0.0
H372 H 0.21878 0.85194 0.1109 0.0
H373 H 0.22198 0.87107 0.18889 0.0
C374 C 0.21362 0.86657 0.13291 0.0
C375 C 0.09913 0.91301 0.93242 0.0
H376 H 0.09482 0.9051 0.87367 0.0
H377 H 0.08954 0.92563 0.94227 0.0
H378 H 0.11338 0.9187 0.92251 0.0
O379 O 0.14209 0.92258 0.02562 0.0
O380 O 0.17236 0.92134 0.02303 0.0
C381 C 0.15543 0.88951 0.85284 0.0
O382 O 0.17385 0.89003 0.16474 0.0
O383 O 0.14364 0.89156 0.16635 0.0
Zn384 Zn 0.88861 0.61844 0.00047 0.0
O385 O 0.91772 0.61964 -0.01413 0.0
C386 C 0.88413 0.63247 0.82179 0.0
Zn387 Zn 0.88632 0.6518 -0.00367 0.0
C388 C 0.92501 0.6369 0.97708 0.0
O389 O 0.91493 0.65233 0.9798 0.0
C390 C 0.84992 0.63396 0.02139 0.0
O391 O 0.88931 0.65385 0.13217 0.0
O392 O 0.89121 0.62117 0.13548 0.0
N393 N 0.88559 0.68238 0.97936 0.0
C394 C 0.87984 0.69765 0.02842 0.0
C395 C 0.88833 0.7101 0.90705 0.0
N396 N 0.89086 0.69023 0.90414 0.0
N397 N 0.88145 0.71516 -0.01561 0.0
C398 C 0.89513 0.57215 0.97422 0.0
C399 C 0.88018 0.56055 0.08303 0.0
N400 N 0.88859 0.58791 0.01803 0.0
N401 N 0.87943 0.58058 0.08574 0.0
N402 N 0.89004 0.55483 0.01398 0.0
H403 H 0.91233 0.58834 0.88306 0.0
H404 H 0.91523 0.56144 0.88344 0.0
H405 H 0.89506 0.57246 0.83697 0.0
C406 C 0.90516 0.57373 0.88976 0.0
C407 C 0.87172 0.69527 0.11698 0.0
H408 H 0.88305 0.6949 0.16437 0.0
H409 H 0.86256 0.70797 0.13228 0.0
H410 H 0.86383 0.68109 0.12288 0.0
O411 O 0.8578 0.65084 0.0129 0.0
O412 O 0.85945 0.61812 0.01644 0.0
C413 C 0.89084 0.6376 0.17512 0.0
O414 O 0.88597 0.61627 0.86475 0.0
O415 O 0.88346 0.64892 0.86135 0.0
Zn416 Zn 0.17152 0.12293 0.91016 0.0
O417 O 0.16671 0.15462 0.90487 0.0
C418 C 0.1569 0.12073 0.73348 0.0
Zn419 Zn 0.14046 0.11989 0.91108 0.0
C420 C 0.15071 0.16236 0.90351 0.0
O421 O 0.1366 0.15102 0.90495 0.0
C422 C 0.16069 0.0804 0.92035 0.0
O423 O 0.13999 0.1205 0.04697 0.0
O424 O 0.1702 0.12346 0.04616 0.0
N425 N 0.11224 0.11437 0.90657 0.0
C426 C 0.09708 0.12354 0.93794 0.0
C427 C 0.08787 0.09796 0.87082 0.0
N428 N 0.10639 0.09851 0.86499 0.0
N429 N 0.08153 0.11352 0.91609 0.0
C430 C 0.21498 0.1211 0.87504 0.0
C431 C 0.2237 0.14601 0.94785 0.0
N432 N 0.19977 0.12865 0.91372 0.0
N433 N 0.20537 0.14404 0.95911 0.0
N434 N 0.23023 0.13181 0.89537 0.0
H435 H 0.2242 0.10694 0.7592 0.0
H436 H 0.21933 0.09032 0.84876 0.0
H437 H 0.20057 0.10122 0.79046 0.0
C438 C 0.21466 0.10399 0.81429 0.0
C439 C 0.09774 0.14156 -0.00642 0.0
H440 H 0.09637 0.15516 0.95241 0.0
H441 H 0.08628 0.1412 0.04142 0.0
H442 H 0.11106 0.14247 0.02752 0.0
O443 O 0.14505 0.08885 0.91771 0.0
O444 O 0.17528 0.09111 0.91704 0.0
C445 C 0.15504 0.12212 0.08775 0.0
O446 O 0.17193 0.12246 0.77424 0.0
O447 O 0.14176 0.11928 0.77512 0.0
Zn448 Zn 0.62496 0.39933 0.5248 0.0
O449 O 0.62453 0.39637 0.38895 0.0
C450 C 0.64486 0.43806 0.5058 0.0
Zn451 Zn 0.65517 0.39562 0.52421 0.0
C452 C 0.63963 0.39451 0.34763 0.0
O453 O 0.65466 0.39365 0.38879 0.0
C454 C 0.64057 0.40064 0.70165 0.0
O455 O 0.65129 0.36447 0.53565 0.0
O456 O 0.62131 0.36812 0.54125 0.0
N457 N 0.68288 0.39244 0.52279 0.0
C458 C 0.69401 0.38409 0.5819 0.0
C459 C 0.71114 0.39945 0.48989 0.0
N460 N 0.69353 0.40183 0.46514 0.0
N461 N 0.71173 0.38851 0.56331 0.0
C462 C 0.58459 0.41101 0.48013 0.0
C463 C 0.57112 0.40362 0.59923 0.0
N464 N 0.59737 0.40328 0.53323 0.0
N465 N 0.58895 0.39874 0.60711 0.0
N466 N 0.56809 0.41149 0.52043 0.0
H467 H 0.58821 0.40631 0.34575 0.0
H468 H 0.57766 0.42978 0.37101 0.0
H469 H 0.60211 0.42623 0.38751 0.0
C470 C 0.58837 0.41893 0.391 0.0
C471 C 0.68774 0.37121 0.65685 0.0
H472 H 0.67464 0.3635 0.64363 0.0
H473 H 0.69835 0.35991 0.67275 0.0
H474 H 0.68563 0.38056 0.7141 0.0
O475 O 0.6555 0.39797 0.66047 0.0
O476 O 0.6257 0.40211 0.66015 0.0
C477 C 0.63532 0.35683 0.54412 0.0
O478 O 0.6288 0.43045 0.50924 0.0
O479 O 0.65878 0.42676 0.51191 0.0
Zn480 Zn 0.40598 0.86486 0.17584 0.0
O481 O 0.40692 0.86624 0.04002 0.0
C482 C 0.3673 0.88047 0.1657 0.0
Zn483 Zn 0.40585 0.89808 0.17246 0.0
C484 C 0.40729 0.88255 -0.00312 0.0
O485 O 0.40719 0.89906 0.03625 0.0
C486 C 0.40435 0.88029 0.35159 0.0
O487 O 0.43535 0.89899 0.17644 0.0
O488 O 0.43582 0.86632 0.17963 0.0
N489 N 0.40458 0.9286 0.17883 0.0
C490 C 0.41209 0.94119 0.23593 0.0
C491 C 0.39175 0.95746 0.16663 0.0
N492 N 0.39212 0.93884 0.13508 0.0
N493 N 0.40421 0.95937 0.22985 0.0
C494 C 0.39874 0.81958 0.21531 0.0
C495 C 0.42037 0.80638 0.14237 0.0
N496 N 0.40765 0.83446 0.17226 0.0
N497 N 0.42097 0.82618 0.12655 0.0
N498 N 0.40653 0.8018 0.19775 0.0
H499 H 0.38161 0.83841 0.29499 0.0
H500 H 0.37014 0.81762 0.24832 0.0
H501 H 0.38537 0.81342 0.33722 0.0
C502 C 0.38319 0.82257 0.27798 0.0
C503 C 0.42592 0.93538 0.30308 0.0
H504 H 0.42954 0.91945 0.30181 0.0
H505 H 0.43879 0.94406 0.29177 0.0
H506 H 0.42059 0.93912 0.36801 0.0
O507 O 0.40401 0.8965 0.30834 0.0
O508 O 0.40532 0.86389 0.31216 0.0
C509 C 0.44453 0.88289 0.17928 0.0
O510 O 0.37603 0.864 0.17039 0.0
O511 O 0.37645 0.89674 0.16631 0.0
H512 H 0.16219 0.65484 0.70034 0.0
H513 H 0.10243 0.66578 0.27196 0.0
H514 H 0.10326 0.66347 0.70148 0.0
H515 H 0.1603 0.65126 0.27256 0.0
H516 H 0.10255 0.66582 0.42925 0.0
H517 H 0.16191 0.65453 0.54323 0.0
C518 C 0.14918 0.65669 0.66757 0.0
C519 C 0.13272 0.6592 0.71414 0.0
C520 C 0.11523 0.66266 0.39493 0.0
C521 C 0.13231 0.65885 0.53422 0.0
C522 C 0.11518 0.66262 0.30511 0.0
C523 C 0.13144 0.65871 0.25894 0.0
C524 C 0.13167 0.65876 0.43892 0.0
C525 C 0.14753 0.65468 0.30533 0.0
C526 C 0.14903 0.65648 0.57782 0.0
C527 C 0.11629 0.6615 0.6682 0.0
N528 N 0.14724 0.65485 0.39275 0.0
N529 N 0.1165 0.66129 0.58076 0.0
H530 H 0.62332 0.85448 0.90773 0.0
H531 H 0.62376 0.91831 0.46765 0.0
H532 H 0.62177 0.91891 0.89663 0.0
H533 H 0.62312 0.85386 0.47896 0.0
H534 H 0.62349 0.91884 0.6246 0.0
H535 H 0.62366 0.854 0.75076 0.0
C536 C 0.62304 0.86855 0.87232 0.0
C537 C 0.6225 0.88678 0.91548 0.0
C538 C 0.6234 0.90457 0.59283 0.0
C539 C 0.62292 0.88631 0.73546 0.0
C540 C 0.62354 0.90425 0.50311 0.0
C541 C 0.6234 0.886 0.46002 0.0
C542 C 0.62315 0.88651 0.64001 0.0
C543 C 0.62322 0.86827 0.50945 0.0
C544 C 0.62323 0.86825 0.78259 0.0
C545 C 0.62217 0.90451 0.8661 0.0
N546 N 0.62309 0.86897 0.59685 0.0
N547 N 0.62239 0.90383 0.77869 0.0
H548 H 0.33634 0.38841 0.3036 0.0
H549 H 0.39829 0.39558 0.87374 0.0
H550 H 0.39581 0.3905 0.3029 0.0
H551 H 0.33881 0.39615 0.87468 0.0
H552 H 0.39766 0.39352 0.03105 0.0
H553 H 0.33696 0.39049 0.1462 0.0
C554 C 0.34953 0.38918 0.2704 0.0
C555 C 0.36604 0.38926 0.3166 0.0
C556 C 0.38475 0.39415 -0.00316 0.0
C557 C 0.36685 0.39179 0.13642 0.0
C558 C 0.3851 0.39539 0.90697 0.0
C559 C 0.36859 0.39604 0.86083 0.0
C560 C 0.36776 0.3935 0.04101 0.0
C561 C 0.3519 0.39569 0.90746 0.0
C562 C 0.34987 0.39044 0.18051 0.0
C563 C 0.38272 0.39036 0.27005 0.0
N564 N 0.35192 0.39439 -0.00512 0.0
N565 N 0.38269 0.39161 0.18265 0.0
H566 H 0.84049 0.13412 0.64819 0.0
H567 H 0.90207 0.13426 0.21712 0.0
H568 H 0.89997 0.13277 0.64622 0.0
H569 H 0.84259 0.13574 0.21908 0.0
H570 H 0.90159 0.13373 0.37449 0.0
H571 H 0.84097 0.1346 0.49081 0.0
C572 C 0.85365 0.13388 0.61471 0.0
C573 C 0.87022 0.13339 0.66048 0.0
C574 C 0.88864 0.13419 0.34047 0.0
C575 C 0.87087 0.13399 0.48036 0.0
C576 C 0.88891 0.13452 0.25059 0.0
C577 C 0.87235 0.13507 0.20481 0.0
C578 C 0.87169 0.1344 0.38494 0.0
C579 C 0.85571 0.13533 0.25165 0.0
C580 C 0.85392 0.13418 0.52483 0.0
C581 C 0.88686 0.13314 0.61364 0.0
N582 N 0.85581 0.13498 0.3391 0.0
N583 N 0.88676 0.13345 0.5262 0.0
H584 H 0.1379 0.42315 0.24563 0.0
H585 H 0.13492 0.35597 0.67817 0.0
H586 H 0.14158 0.35883 0.24925 0.0
H587 H 0.13168 0.42032 0.67453 0.0
H588 H 0.137 0.35667 0.52085 0.0
H589 H 0.1358 0.42243 0.40291 0.0
C590 C 0.1384 0.40889 0.27945 0.0
C591 C 0.13994 0.39102 0.23405 0.0
C592 C 0.13577 0.37064 0.55448 0.0
C593 C 0.13736 0.39008 0.41419 0.0
C594 C 0.13451 0.37024 0.64434 0.0
C595 C 0.13311 0.38811 0.68973 0.0
C596 C 0.13566 0.38904 0.50958 0.0
C597 C 0.13273 0.40616 0.64235 0.0
C598 C 0.13713 0.40848 0.36929 0.0
C599 C 0.14043 0.37298 0.28143 0.0
N600 N 0.13404 0.40616 0.55501 0.0
N601 N 0.13911 0.37297 0.36877 0.0
H602 H 0.90295 0.90126 0.76772 0.0
H603 H 0.84059 0.90337 0.34443 0.0
H604 H 0.84345 0.90084 0.77324 0.0
H605 H 0.90008 0.90464 0.33874 0.0
H606 H 0.84136 0.9024 0.50181 0.0
H607 H 0.9022 0.90219 0.6103 0.0
C608 C 0.88974 0.90129 0.7359 0.0
C609 C 0.87324 0.90096 0.78379 0.0
C610 C 0.85424 0.90292 0.4661 0.0
C611 C 0.87228 0.90211 0.6037 0.0
C612 C 0.85381 0.90352 0.37622 0.0
C613 C 0.87029 0.90411 0.32829 0.0
C614 C 0.87128 0.9029 0.50837 0.0
C615 C 0.88702 0.90421 0.373 0.0
C616 C 0.88932 0.90186 0.64601 0.0
C617 C 0.85652 0.90108 0.73903 0.0
N618 N 0.88708 0.90358 0.46044 0.0
N619 N 0.85648 0.90166 0.6516 0.0
H620 H 0.4151 0.62187 0.72023 0.0
H621 H 0.35348 0.61791 0.15092 0.0
H622 H 0.35574 0.6258 0.72279 0.0
H623 H 0.41295 0.61898 0.14984 0.0
H624 H 0.35403 0.61962 -0.00627 0.0
H625 H 0.41462 0.61999 0.87752 0.0
C626 C 0.40197 0.62243 0.75381 0.0
C627 C 0.38543 0.624 0.70819 0.0
C628 C 0.36696 0.61949 0.02789 0.0
C629 C 0.38477 0.62172 0.88826 0.0
C630 C 0.36665 0.61856 0.11773 0.0
C631 C 0.38318 0.61853 0.16376 0.0
C632 C 0.38393 0.62033 -0.01637 0.0
C633 C 0.39986 0.61901 0.11709 0.0
C634 C 0.4017 0.62132 0.84366 0.0
C635 C 0.36883 0.62463 0.75521 0.0
N636 N 0.3998 0.61994 0.02964 0.0
N637 N 0.36893 0.62344 0.8426 0.0
H638 H 0.62499 0.10505 0.08519 0.0
H639 H 0.61592 0.17203 0.50602 0.0
H640 H 0.6169 0.16887 0.07673 0.0
H641 H 0.63163 0.10997 0.51232 0.0
H642 H 0.61522 0.17101 0.34864 0.0
H643 H 0.62595 0.10621 0.24248 0.0
C644 C 0.62335 0.11929 0.11635 0.0
C645 C 0.62088 0.13688 0.06768 0.0
C646 C 0.61879 0.15761 0.38454 0.0
C647 C 0.62201 0.13834 0.2475 0.0
C648 C 0.61923 0.1582 0.47435 0.0
C649 C 0.62354 0.14097 0.52246 0.0
C650 C 0.6227 0.13966 0.34262 0.0
C651 C 0.62779 0.12348 0.47801 0.0
C652 C 0.62396 0.11996 0.20612 0.0
C653 C 0.61887 0.15492 0.11156 0.0
N654 N 0.62718 0.12325 0.39069 0.0
N655 N 0.61947 0.15518 0.19889 0.0
H656 H 0.92239 0.36131 0.25683 0.0
H657 H 0.86349 0.37362 0.69064 0.0
H658 H 0.86347 0.36991 0.26269 0.0
H659 H 0.92133 0.35891 0.68638 0.0
H660 H 0.86345 0.37345 0.53365 0.0
H661 H 0.92252 0.36156 0.41408 0.0
C662 C 0.90948 0.36324 0.29115 0.0
C663 C 0.89289 0.36556 0.24653 0.0
C664 C 0.87614 0.37019 0.56702 0.0
C665 C 0.89295 0.36591 0.42648 0.0
C666 C 0.87615 0.37019 0.65678 0.0
C667 C 0.89238 0.36603 0.70183 0.0
C668 C 0.8925 0.36611 0.52183 0.0
C669 C 0.90848 0.36215 0.65432 0.0
C670 C 0.90956 0.36337 0.38095 0.0
C671 C 0.87658 0.36804 0.29439 0.0
N672 N 0.90813 0.36227 0.56688 0.0
N673 N 0.87703 0.36816 0.38177 0.0
H674 H 0.40552 0.16613 0.47967 0.0
H675 H 0.4057 0.0996 0.05608 0.0
H676 H 0.40305 0.1017 0.48466 0.0
H677 H 0.40477 0.16406 0.05082 0.0
H678 H 0.40534 0.10007 0.21332 0.0
H679 H 0.40574 0.16569 0.32238 0.0
C680 C 0.40502 0.15189 0.44773 0.0
C681 C 0.40432 0.13392 0.49543 0.0
C682 C 0.40521 0.11411 0.17776 0.0
C683 C 0.4046 0.1333 0.31545 0.0
C684 C 0.40544 0.11385 0.08795 0.0
C685 C 0.40528 0.13182 0.04018 0.0
C686 C 0.40485 0.13246 0.22016 0.0
C687 C 0.40491 0.14984 0.08498 0.0
C688 C 0.40515 0.15165 0.35791 0.0
C689 C 0.40368 0.11591 0.45057 0.0
N690 N 0.40472 0.1497 0.17244 0.0
N691 N 0.40386 0.11607 0.36313 0.0
H692 H 0.68719 0.62186 0.08038 0.0
H693 H 0.62691 0.62925 0.6517 0.0
H694 H 0.62771 0.62234 0.08042 0.0
H695 H 0.68639 0.62988 0.65153 0.0
H696 H 0.62695 0.62683 0.80875 0.0
H697 H 0.68719 0.6243 0.92325 0.0
C698 C 0.67412 0.62234 0.04738 0.0
C699 C 0.65742 0.6219 0.09378 0.0
C700 C 0.64 0.62756 0.77442 0.0
C701 C 0.65733 0.62485 0.91367 0.0
C702 C 0.63999 0.629 0.68465 0.0
C703 C 0.65667 0.62976 0.63821 0.0
C704 C 0.65681 0.62683 0.81832 0.0
C705 C 0.67319 0.62936 0.68456 0.0
C706 C 0.67413 0.62381 0.95759 0.0
C707 C 0.64092 0.62262 0.04741 0.0
N708 N 0.67284 0.62787 0.77198 0.0
N709 N 0.6413 0.6241 0.96001 0.0
H710 H 0.18826 0.88868 0.31556 0.0
H711 H 0.12594 0.89195 0.74408 0.0
H712 H 0.12893 0.89315 0.31491 0.0
H713 H 0.18525 0.88721 0.74461 0.0
H714 H 0.12674 0.89242 0.58663 0.0
H715 H 0.18745 0.88826 0.47301 0.0
C716 C 0.17507 0.88961 0.34848 0.0
C717 C 0.15864 0.89097 0.30196 0.0
C718 C 0.13957 0.89126 0.62124 0.0
C719 C 0.15761 0.89044 0.48209 0.0
C720 C 0.13912 0.89097 0.71115 0.0
C721 C 0.15555 0.88952 0.75765 0.0
C722 C 0.15657 0.8901 0.5775 0.0
C723 C 0.17223 0.88833 0.7115 0.0
C724 C 0.17461 0.88935 0.43838 0.0
C725 C 0.14194 0.8921 0.34806 0.0
N726 N 0.17231 0.88866 0.62406 0.0
N727 N 0.14186 0.8918 0.43551 0.0
H728 H 0.88802 0.60076 0.7131 0.0
H729 H 0.88738 0.66931 0.28419 0.0
H730 H 0.88053 0.66466 0.71274 0.0
H731 H 0.8941 0.60531 0.28392 0.0
H732 H 0.88528 0.66797 0.4415 0.0
H733 H 0.89013 0.60206 0.55569 0.0
C734 C 0.88667 0.61503 0.68 0.0
C735 C 0.88408 0.63262 0.72635 0.0
C736 C 0.88728 0.65423 0.40699 0.0
C737 C 0.88667 0.63426 0.54616 0.0
C738 C 0.88855 0.655 0.31711 0.0
C739 C 0.89092 0.63742 0.27058 0.0
C740 C 0.88836 0.63573 0.45079 0.0
C741 C 0.89227 0.61928 0.31693 0.0
C742 C 0.88796 0.61579 0.5901 0.0
C743 C 0.88253 0.65071 0.67986 0.0
N744 N 0.89093 0.61891 0.40428 0.0
N745 N 0.88389 0.65106 0.59253 0.0
H746 H 0.1866 0.12332 0.62348 0.0
H747 H 0.12533 0.11961 0.19775 0.0
H748 H 0.12727 0.11812 0.62667 0.0
H749 H 0.18467 0.12469 0.19458 0.0
H750 H 0.12575 0.11914 0.35506 0.0
H751 H 0.18618 0.1238 0.46617 0.0
C752 C 0.17349 0.12226 0.59114 0.0
C753 C 0.15694 0.1207 0.63834 0.0
C754 C 0.13868 0.12037 0.31994 0.0
C755 C 0.15636 0.12126 0.45829 0.0
C756 C 0.13845 0.12065 0.23009 0.0
C757 C 0.15499 0.12217 0.18289 0.0
C758 C 0.15557 0.12162 0.36295 0.0
C759 C 0.17158 0.12349 0.22829 0.0
C760 C 0.17325 0.12254 0.5013 0.0
C761 C 0.14036 0.11935 0.59295 0.0
N762 N 0.17144 0.12317 0.31575 0.0
N763 N 0.1405 0.11968 0.5055 0.0
H764 H 0.66971 0.39406 0.24019 0.0
H765 H 0.61045 0.40029 0.80873 0.0
H766 H 0.61026 0.39524 0.23773 0.0
H767 H 0.6699 0.40151 0.81179 0.0
H768 H 0.6101 0.39849 0.96582 0.0
H769 H 0.67004 0.39611 0.08317 0.0
C770 C 0.6567 0.39465 0.20669 0.0
C771 C 0.63991 0.39453 0.25238 0.0
C772 C 0.62323 0.39916 0.93217 0.0
C773 C 0.64021 0.39702 0.07231 0.0
C774 C 0.62345 0.40026 0.84239 0.0
C775 C 0.64026 0.40086 0.79686 0.0
C776 C 0.63993 0.39866 0.97695 0.0
C777 C 0.65664 0.40077 0.84404 0.0
C778 C 0.65691 0.3959 0.11694 0.0
C779 C 0.62352 0.39538 0.20535 0.0
N780 N 0.65607 0.39962 0.93148 0.0
N781 N 0.62408 0.39662 0.11792 0.0
H782 H 0.40839 0.8498 0.89446 0.0
H783 H 0.40212 0.91296 0.4541 0.0
H784 H 0.40609 0.91419 0.88244 0.0
H785 H 0.40627 0.84869 0.46581 0.0
H786 H 0.40308 0.91366 0.61088 0.0
H787 H 0.4074 0.84912 0.73768 0.0
C788 C 0.40772 0.86382 0.85887 0.0
C789 C 0.40732 0.8821 0.90176 0.0
C790 C 0.40377 0.8994 0.57925 0.0
C791 C 0.40611 0.88139 0.72188 0.0
C792 C 0.40322 0.89897 0.48962 0.0
C793 C 0.4042 0.88073 0.44667 0.0
C794 C 0.40529 0.88145 0.62653 0.0
C795 C 0.40551 0.86309 0.49621 0.0
C796 C 0.40714 0.8634 0.76924 0.0
C797 C 0.40645 0.89977 0.85213 0.0
N798 N 0.40604 0.8639 0.58354 0.0
N799 N 0.40585 0.89896 0.7648 0.0
H800 H 0.11061 0.72938 -0.00272 0.0
H801 H 0.18319 0.8201 0.02189 0.0
H802 H 0.16956 0.72145 -0.01491 0.0
H803 H 0.12417 0.82711 0.03759 0.0
H804 H 0.1787 0.78393 0.00926 0.0
H805 H 0.11546 0.76534 0.01125 0.0
C806 C 0.12457 0.73519 -0.00285 0.0
C807 C 0.13968 0.72233 -0.01015 0.0
C808 C 0.16675 0.79341 0.01568 0.0
C809 C 0.14537 0.76357 0.00637 0.0
C810 C 0.16931 0.81406 0.02313 0.0
C811 C 0.15405 0.82672 0.0307 0.0
C812 C 0.14879 0.78537 0.01576 0.0
C813 C 0.13638 0.81801 0.03174 0.0
C814 C 0.12735 0.75574 0.00536 0.0
C815 C 0.15747 0.73076 -0.00961 0.0
N816 N 0.13426 0.79796 0.02418 0.0
N817 N 0.15981 0.7508 -0.00142 0.0
H818 H 0.56141 0.85296 0.194 0.0
H819 H 0.46732 0.91579 0.18141 0.0
H820 H 0.5596 0.91732 0.18589 0.0
H821 H 0.46888 0.85141 0.1835 0.0
H822 H 0.501 0.91657 0.18501 0.0
H823 H 0.52768 0.85204 0.19221 0.0
C824 C 0.55396 0.86692 0.19198 0.0
C825 C 0.5635 0.88526 0.19018 0.0
C826 C 0.49401 0.90225 0.18468 0.0
C827 C 0.52463 0.88429 0.18805 0.0
C828 C 0.47471 0.90178 0.18259 0.0
C829 C 0.46512 0.88349 0.18198 0.0
C830 C 0.50397 0.8843 0.18627 0.0
C831 C 0.47559 0.86588 0.18382 0.0
C832 C 0.53464 0.86637 0.19091 0.0
C833 C 0.55295 0.90282 0.18752 0.0
N834 N 0.49438 0.86672 0.18584 0.0
N835 N 0.53418 0.90189 0.18652 0.0
H836 H 0.34129 0.32152 0.63297 0.0
H837 H 0.41708 0.24615 0.81603 0.0
H838 H 0.39972 0.33339 0.64865 0.0
H839 H 0.36773 0.22363 0.69949 0.0
H840 H 0.4066 0.28018 0.78797 0.0
H841 H 0.34709 0.28686 0.68301 0.0
C842 C 0.35525 0.31688 0.64644 0.0
C843 C 0.37003 0.33038 0.63606 0.0
C844 C 0.39789 0.26782 0.76952 0.0
C845 C 0.37659 0.29137 0.69521 0.0
C846 C 0.40383 0.24847 0.78605 0.0
C847 C 0.39323 0.23218 0.76033 0.0
C848 C 0.38128 0.27099 0.72582 0.0
C849 C 0.37615 0.23586 0.72143 0.0
C850 C 0.35852 0.29721 0.67517 0.0
C851 C 0.38784 0.32362 0.655 0.0
N852 N 0.37073 0.25497 0.70435 0.0
N853 N 0.39055 0.30474 0.68394 0.0
H854 H 0.96301 0.10104 0.93837 0.0
H855 H 0.06415 0.1497 0.91829 0.0
H856 H 0.97338 0.16441 0.94193 0.0
H857 H 0.05443 0.08639 0.94559 0.0
H858 H 0.03104 0.15538 0.93372 0.0
H859 H 0.99625 0.09519 0.94829 0.0
C860 C 0.97219 0.11371 0.94351 0.0
C861 C 0.9653 0.13327 0.94075 0.0
C862 C 0.03615 0.14023 0.93756 0.0
C863 C 1.00355 0.12671 0.94899 0.0
C864 C 0.05516 0.13701 0.92984 0.0
C865 C 0.06222 0.11754 0.93258 0.0
C866 C 0.02398 0.12387 0.9469 0.0
C867 C 0.04962 0.10165 0.94357 0.0
C868 C 0.99124 0.11038 0.94811 0.0
C869 C 0.97806 0.1491 0.94408 0.0
N870 N 0.03119 0.10513 0.94999 0.0
N871 N 0.99647 0.1455 0.94762 0.0
H872 H 0.16707 0.29066 0.94498 0.0
H873 H 0.11864 0.18359 0.89691 0.0
H874 H 0.10835 0.28106 0.94288 0.0
H875 H 0.17762 0.19141 0.90866 0.0
H876 H 0.11496 0.21967 0.90253 0.0
H877 H 0.17162 0.25492 0.91953 0.0
C878 C 0.15516 0.28111 0.93723 0.0
C879 C 0.13729 0.28884 0.94485 0.0
C880 C 0.12873 0.21355 0.90358 0.0
C881 C 0.14234 0.24793 0.91806 0.0
C882 C 0.13084 0.19289 0.90038 0.0
C883 C 0.14846 0.18438 0.90279 0.0
C884 C 0.14434 0.22594 0.90944 0.0
C885 C 0.16376 0.19729 0.9069 0.0
C886 C 0.15774 0.26068 0.92366 0.0
C887 C 0.12233 0.27567 0.93725 0.0
N888 N 0.16134 0.21741 0.91048 0.0
N889 N 0.12518 0.25592 0.92445 0.0
H890 H 0.06119 0.89238 0.90548 0.0
H891 H 0.97002 0.91475 0.18423 0.0
H892 H 0.0602 0.90792 0.17318 0.0
H893 H 0.96723 0.89543 0.92186 0.0
H894 H 1.00347 0.91711 0.17123 0.0
H895 H 0.02754 0.89783 0.89983 0.0
C896 C 0.05396 0.89744 0.96229 0.0
C897 C 0.06347 0.89983 0.03987 0.0
C898 C 0.99567 0.91257 0.11574 0.0
C899 C 0.0251 0.90579 0.03453 0.0
C900 C 0.97653 0.91133 0.12321 0.0
C901 C 0.96585 0.90499 0.05403 0.0
C902 C 1.00448 0.90709 0.0387 0.0
C903 C 0.97498 0.90062 0.97637 0.0
C904 C 0.03476 0.90037 0.95936 0.0
C905 C 0.05339 0.90594 0.11218 0.0
N906 N 0.99381 0.90151 0.97103 0.0
N907 N 0.03488 0.90862 0.10783 0.0
H908 H 0.42144 0.68326 0.40277 0.0
H909 H 0.37358 0.78313 0.22731 0.0
H910 H 0.36248 0.6904 0.38758 0.0
H911 H 0.43221 0.77612 0.25432 0.0
H912 H 0.36893 0.74987 0.29227 0.0
H913 H 0.42545 0.71795 0.35587 0.0
C914 C 0.40932 0.69217 0.39035 0.0
C915 C 0.3916 0.68387 0.39879 0.0
C916 C 0.38281 0.75568 0.28473 0.0
C917 C 0.39609 0.72362 0.34406 0.0
C918 C 0.38543 0.77473 0.24838 0.0
C919 C 0.40329 0.78247 0.23692 0.0
C920 C 0.39817 0.74428 0.30908 0.0
C921 C 0.41823 0.77064 0.26219 0.0
C922 C 0.41161 0.71199 0.36334 0.0
C923 C 0.3764 0.69617 0.38186 0.0
N924 N 0.41535 0.75216 0.29705 0.0
N925 N 0.379 0.71539 0.35469 0.0
H926 H 0.56079 0.10377 0.78633 0.0
H927 H 0.46643 0.16608 0.76984 0.0
H928 H 0.55866 0.16811 0.78705 0.0
H929 H 0.46833 0.10174 0.7672 0.0
H930 H 0.50009 0.16705 0.77545 0.0
H931 H 0.52711 0.10268 0.77918 0.0
C932 C 0.55327 0.11769 0.78513 0.0
C933 C 0.56271 0.13607 0.78748 0.0
C934 C 0.49318 0.1527 0.77356 0.0
C935 C 0.52388 0.13491 0.77904 0.0
C936 C 0.47389 0.15213 0.77028 0.0
C937 C 0.46439 0.13379 0.76809 0.0
C938 C 0.50324 0.13481 0.77474 0.0
C939 C 0.47497 0.11624 0.76886 0.0
C940 C 0.53398 0.11705 0.78093 0.0
C941 C 0.55208 0.15358 0.78545 0.0
N942 N 0.49374 0.11719 0.7722 0.0
N943 N 0.53333 0.15256 0.7814 0.0
H944 H 0.84235 0.20383 0.94614 0.0
H945 H 0.91435 0.29535 0.96097 0.0
H946 H 0.90129 0.19803 0.91755 0.0
H947 H 0.85547 0.30311 0.9799 0.0
H948 H 0.90952 0.25943 0.94705 0.0
H949 H 0.84644 0.24015 0.95867 0.0
C950 C 0.8561 0.21016 0.94199 0.0
C951 C 0.87147 0.19779 0.93098 0.0
C952 C 0.89763 0.26897 0.95439 0.0
C953 C 0.87628 0.23924 0.94584 0.0
C954 C 0.90041 0.28951 0.96261 0.0
C955 C 0.88532 0.30233 0.97176 0.0
C956 C 0.87962 0.26107 0.95529 0.0
C957 C 0.86754 0.29383 0.97312 0.0
C958 C 0.85844 0.23087 0.94941 0.0
C959 C 0.88899 0.20686 0.92628 0.0
N960 N 0.86518 0.27377 0.96492 0.0
N961 N 0.89089 0.22692 0.93394 0.0
H962 H 0.61093 0.77384 0.12833 0.0
H963 H 0.6826 0.69663 0.33339 0.0
H964 H 0.65869 0.79454 0.26353 0.0
H965 H 0.62505 0.68478 0.28635 0.0
H966 H 0.67794 0.73145 0.28331 0.0
H967 H 0.62052 0.73943 0.15488 0.0
C968 C 0.62366 0.77104 0.16214 0.0
C969 C 0.63406 0.7869 0.19355 0.0
C970 C 0.66644 0.72108 0.28418 0.0
C971 C 0.64495 0.74768 0.22641 0.0
C972 C 0.66906 0.70132 0.31287 0.0
C973 C 0.65416 0.68783 0.31488 0.0
C974 C 0.64894 0.72706 0.25582 0.0
C975 C 0.63693 0.69462 0.28696 0.0
C976 C 0.62909 0.75147 0.17782 0.0
C977 C 0.65046 0.78263 0.23731 0.0
N978 N 0.63485 0.71364 0.25844 0.0
N979 N 0.65535 0.76332 0.25347 0.0
H980 H 0.89475 0.73476 0.12148 0.0
H981 H 0.84207 0.83637 0.00908 0.0
H982 H 0.85907 0.74102 0.90317 0.0
H983 H 0.89612 0.83567 0.12218 0.0
H984 H 0.84313 0.79985 -0.00049 0.0
H985 H 0.8903 0.77042 0.15239 0.0
C986 C 0.88568 0.74361 0.08138 0.0
C987 C 0.87717 0.73512 0.01008 0.0
C988 C 0.85466 0.80773 0.02708 0.0
C989 C 0.87198 0.77554 0.0446 0.0
C990 C 0.85405 0.82852 0.03288 0.0
C991 C 0.8691 0.83908 0.06581 0.0
C992 C 0.87026 0.79739 0.05614 0.0
C993 C 0.88429 0.82814 0.09558 0.0
C994 C 0.88326 0.76389 0.09846 0.0
C995 C 0.8658 0.74716 0.95878 0.0
N996 N 0.88448 0.80788 0.09017 0.0
N997 N 0.86348 0.76676 0.9771 0.0
H998 H 0.59279 0.24261 0.72207 0.0
H999 H 0.66256 0.32926 0.56826 0.0
H1000 H 0.65174 0.23845 0.7449 0.0
H1001 H 0.60338 0.3355 0.57011 0.0
H1002 H 0.65895 0.29478 0.61919 0.0
H1003 H 0.59646 0.27574 0.65536 0.0
C1004 C 0.60652 0.2487 0.71254 0.0
C1005 C 0.622 0.2377 0.73762 0.0
C1006 C 0.64675 0.30365 0.6079 0.0
C1007 C 0.62638 0.27554 0.66151 0.0
C1008 C 0.64879 0.32333 0.57844 0.0
C1009 C 0.63324 0.33534 0.56528 0.0
C1010 C 0.62904 0.29589 0.6243 0.0
C1011 C 0.61575 0.32682 0.57962 0.0
C1012 C 0.60863 0.26754 0.67427 0.0
C1013 C 0.6395 0.24618 0.72411 0.0
N1014 N 0.61414 0.30765 0.60879 0.0
N1015 N 0.64122 0.26464 0.687 0.0
H1016 H 0.98016 0.39979 0.95436 0.0
H1017 H 0.08112 0.35982 0.0566 0.0
H1018 H 0.99298 0.33994 0.03866 0.0
H1019 H 0.07157 0.41842 0.94655 0.0
H1020 H 0.04818 0.35472 0.07102 0.0
H1021 H 1.01274 0.40914 0.97024 0.0
C1022 C 0.98981 0.38878 0.97806 0.0
C1023 C 0.98402 0.36913 -0.00388 0.0
C1024 C 0.05318 0.36876 0.04395 0.0
C1025 C 0.02106 0.37949 0.01288 0.0
C1026 C 0.07203 0.37168 0.03553 0.0
C1027 C 0.07906 0.38944 -0.0012 0.0
C1028 C 0.0411 0.38359 0.01462 0.0
C1029 C 0.06665 0.40444 0.97448 0.0
C1030 C 1.00836 0.39405 -0.01359 0.0
C1031 C 0.99701 0.35522 0.02422 0.0
N1032 N 0.04816 0.40108 -0.01822 0.0
N1033 N 0.01492 0.36065 0.03155 0.0
H1034 H 0.47595 0.61693 0.5682 0.0
H1035 H 0.56421 0.59187 0.29512 0.0
H1036 H 0.47618 0.58138 0.34027 0.0
H1037 H 0.5662 0.62442 0.53122 0.0
H1038 H 0.53303 0.58058 0.33203 0.0
H1039 H 0.50942 0.61239 0.57975 0.0
C1040 C 0.48303 0.60749 0.52282 0.0
C1041 C 0.47362 0.59965 0.45274 0.0
C1042 C 0.54029 0.58992 0.37686 0.0
C1043 C 0.51155 0.59481 0.46355 0.0
C1044 C 0.558 0.59636 0.35544 0.0
C1045 C 0.56738 0.60922 0.40982 0.0
C1046 C 0.53172 0.59696 0.45201 0.0
C1047 C 0.55912 0.61457 0.4878 0.0
C1048 C 0.50209 0.60502 0.52878 0.0
C1049 C 0.48319 0.58774 0.39464 0.0
N1050 N 0.54152 0.60876 0.50593 0.0
N1051 N 0.50171 0.58595 0.4004 0.0
H1052 H 0.4539 0.43213 0.55334 0.0
H1053 H 0.5516 0.39481 0.38496 0.0
H1054 H 0.46451 0.37345 0.45634 0.0
H1055 H 0.54416 0.43775 0.58502 0.0
H1056 H 0.51827 0.39545 0.35836 0.0
H1057 H 0.48554 0.44214 0.51365 0.0
C1058 C 0.4628 0.42159 0.52139 0.0
C1059 C 0.4569 0.40196 0.50832 0.0
C1060 C 0.52405 0.40524 0.40602 0.0
C1061 C 0.49266 0.41314 0.46295 0.0
C1062 C 0.54297 0.40498 0.42057 0.0
C1063 C 0.55033 0.41616 0.48741 0.0
C1064 C 0.51265 0.41685 0.4586 0.0
C1065 C 0.53876 0.42889 0.53325 0.0
C1066 C 0.48075 0.42724 0.499 0.0
C1067 C 0.46882 0.38865 0.46789 0.0
N1068 N 0.52037 0.42872 0.51882 0.0
N1069 N 0.48626 0.39443 0.44714 0.0
H1070 H 0.04374 0.62675 -0.00313 0.0
H1071 H 0.94302 0.67064 0.92485 0.0
H1072 H 0.03219 0.68757 0.92191 0.0
H1073 H 0.95253 0.60906 -0.00268 0.0
H1074 H 0.97598 0.6758 0.90996 0.0
H1075 H 1.0109 0.61859 -0.01673 0.0
C1076 C 0.03432 0.63823 0.97544 0.0
C1077 C 0.04057 0.6578 0.95947 0.0
C1078 C 0.97094 0.66111 0.92879 0.0
C1079 C 1.00315 0.64881 0.94604 0.0
C1080 C 0.95207 0.65815 0.93759 0.0
C1081 C 0.94502 0.63944 0.9635 0.0
C1082 C 0.983 0.64531 0.94673 0.0
C1083 C 0.95743 0.62376 0.97778 0.0
C1084 C 0.0156 0.63364 0.9685 0.0
C1085 C 0.02781 0.67232 0.93466 0.0
N1086 N 0.97589 0.62709 0.97002 0.0
N1087 N 1.00971 0.66756 0.92904 0.0
H1088 H 0.09893 0.59177 0.97404 0.0
H1089 H 0.16505 0.49623 -0.00713 0.0
H1090 H 0.15764 0.59332 0.01524 0.0
H1091 H 0.1066 0.49047 0.95559 0.0
H1092 H 0.16142 0.532 0.01153 0.0
H1093 H 0.10018 0.55497 0.97536 0.0
C1094 C 0.11202 0.58444 -0.01625 0.0
C1095 C 0.12822 0.59572 -0.00611 0.0
C1096 C 0.14927 0.52303 0.00011 0.0
C1097 C 0.12973 0.55379 -0.00418 0.0
C1098 C 0.15138 0.50259 -0.01027 0.0
C1099 C 0.13612 0.49044 0.97323 0.0
C1100 C 0.13173 0.53167 -0.00739 0.0
C1101 C 0.11866 0.49936 0.96944 0.0
C1102 C 0.11272 0.56345 -0.01547 0.0
C1103 C 0.14479 0.58539 0.00639 0.0
N1104 N 0.11694 0.51953 0.97823 0.0
N1105 N 0.14508 0.56516 0.00674 0.0
H1106 H 0.68705 0.85714 0.16749 0.0
H1107 H 0.77182 0.93348 0.09722 0.0
H1108 H 0.68261 0.92126 0.17708 0.0
H1109 H 0.7786 0.86969 0.09117 0.0
H1110 H 0.73926 0.9287 0.13282 0.0
H1111 H 0.7205 0.86075 0.14607 0.0
C1112 C 0.69306 0.87196 0.16573 0.0
C1113 C 0.68185 0.88891 0.17404 0.0
C1114 C 0.74782 0.91567 0.12459 0.0
C1115 C 0.72025 0.89315 0.14911 0.0
C1116 C 0.76645 0.91842 0.10425 0.0
C1117 C 0.77807 0.902 0.09217 0.0
C1118 C 0.74044 0.89628 0.13213 0.0
C1119 C 0.77031 0.88279 0.10181 0.0
C1120 C 0.71219 0.874 0.15333 0.0
C1121 C 0.69055 0.90772 0.17086 0.0
N1122 N 0.75197 0.88046 0.12076 0.0
N1123 N 0.70909 0.90929 0.15847 0.0
H1124 H 0.39847 0.45738 0.58067 0.0
H1125 H 0.34717 0.55925 0.4611 0.0
H1126 H 0.34018 0.45973 0.5288 0.0
H1127 H 0.40619 0.55295 0.47891 0.0
H1128 H 0.3437 0.52338 0.49098 0.0
H1129 H 0.40082 0.49294 0.55091 0.0
C1130 C 0.38612 0.46537 0.56284 0.0
C1131 C 0.36912 0.45547 0.55641 0.0
C1132 C 0.35739 0.52988 0.48804 0.0
C1133 C 0.37174 0.49652 0.52242 0.0
C1134 C 0.3594 0.55033 0.47095 0.0
C1135 C 0.37701 0.55913 0.46752 0.0
C1136 C 0.37311 0.5182 0.50228 0.0
C1137 C 0.39235 0.54685 0.4808 0.0
C1138 C 0.38749 0.48576 0.54584 0.0
C1139 C 0.35357 0.46676 0.53435 0.0
N1140 N 0.39002 0.52707 0.49783 0.0
N1141 N 0.35525 0.48674 0.5179 0.0
H1142 H 0.77234 0.101 0.89245 0.0
H1143 H 0.68482 0.17219 0.81876 0.0
H1144 H 0.77687 0.1651 0.89475 0.0
H1145 H 0.68343 0.10791 0.80699 0.0
H1146 H 0.71834 0.1707 0.84117 0.0
H1147 H 0.73986 0.10394 0.85574 0.0
C1148 C 0.76651 0.11575 0.88432 0.0
C1149 C 0.77749 0.13279 0.89582 0.0
C1150 C 0.71068 0.15695 0.83323 0.0
C1151 C 0.73984 0.13641 0.85462 0.0
C1152 C 0.69152 0.15778 0.82035 0.0
C1153 C 0.68113 0.14014 0.81113 0.0
C1154 C 0.71959 0.13834 0.83708 0.0
C1155 C 0.69069 0.12194 0.81389 0.0
C1156 C 0.74789 0.11745 0.86336 0.0
C1157 C 0.76909 0.15155 0.88471 0.0
N1158 N 0.70921 0.12154 0.82681 0.0
N1159 N 0.75077 0.15286 0.86529 0.0
H1160 H 0.86254 0.52995 0.97558 0.0
H1161 H 0.92613 0.43235 0.97581 0.0
H1162 H 0.92147 0.53336 -0.00247 0.0
H1163 H 0.86689 0.43213 0.95412 0.0
H1164 H 0.92569 0.4691 0.97347 0.0
H1165 H 0.86473 0.49399 0.9544 0.0
C1166 C 0.87599 0.52303 0.97417 0.0
C1167 C 0.89184 0.53451 -0.01287 0.0
C1168 C 0.91283 0.46094 0.9688 0.0
C1169 C 0.8946 0.49321 0.96569 0.0
C1170 C 0.91307 0.43997 0.97025 0.0
C1171 C 0.89652 0.42906 0.9658 0.0
C1172 C 0.89592 0.47102 0.96259 0.0
C1173 C 0.88001 0.43979 0.95839 0.0
C1174 C 0.87729 0.50251 0.96267 0.0
C1175 C 0.90899 0.52495 -0.0138 0.0
N1176 N 0.88016 0.46004 0.95727 0.0
N1177 N 0.90994 0.50476 0.97646 0.0
H1178 H 0.25149 0.09843 0.87617 0.0
H1179 H 0.34228 0.1634 0.76286 0.0
H1180 H 0.25262 0.16256 0.85122 0.0
H1181 H 0.34355 0.09954 0.80188 0.0
H1182 H 0.30899 0.16271 0.78474 0.0
H1183 H 0.28448 0.09776 0.83818 0.0
C1184 C 0.25854 0.11232 0.86093 0.0
C1185 C 0.24917 0.13057 0.86578 0.0
C1186 C 0.31649 0.1488 0.78836 0.0
C1187 C 0.28706 0.13 0.82423 0.0
C1188 C 0.3356 0.1492 0.7759 0.0
C1189 C 0.34592 0.13155 0.78108 0.0
C1190 C 0.30739 0.13059 0.80631 0.0
C1191 C 0.33626 0.11357 0.79741 0.0
C1192 C 0.27745 0.11196 0.84016 0.0
C1193 C 0.25926 0.14816 0.84815 0.0
N1194 N 0.3176 0.11356 0.80976 0.0
N1195 N 0.27754 0.14743 0.82833 0.0
H1196 H 0.62569 0.56233 0.39731 0.0
H1197 H 0.6772 0.45938 0.49433 0.0
H1198 H 0.68491 0.55819 0.41507 0.0
H1199 H 0.61812 0.46615 0.48461 0.0
H1200 H 0.68074 0.49525 0.46534 0.0
H1201 H 0.62317 0.52684 0.42769 0.0
C1202 C 0.63823 0.55393 0.40733 0.0
C1203 C 0.65557 0.56328 0.40352 0.0
C1204 C 0.66702 0.48886 0.4698 0.0
C1205 C 0.65271 0.52236 0.43897 0.0
C1206 C 0.66498 0.46841 0.48643 0.0
C1207 C 0.64732 0.45976 0.49183 0.0
C1208 C 0.6513 0.50068 0.45834 0.0
C1209 C 0.63199 0.47215 0.48103 0.0
C1210 C 0.63675 0.5336 0.42494 0.0
C1211 C 0.67127 0.55156 0.41728 0.0
N1212 N 0.63435 0.49194 0.46465 0.0
N1213 N 0.66947 0.53165 0.43451 0.0
H1214 H 0.34521 0.91337 0.15869 0.0
H1215 H 0.25044 0.85467 0.07075 0.0
H1216 H 0.34244 0.84909 0.14991 0.0
H1217 H 0.25676 0.91863 0.06378 0.0
H1218 H 0.28308 0.85159 0.11107 0.0
H1219 H 0.31217 0.91487 0.13512 0.0
C1220 C 0.33766 0.8995 0.15218 0.0
C1221 C 0.3468 0.88107 0.15606 0.0
C1222 C 0.27725 0.8663 0.10157 0.0
C1223 C 0.30846 0.8827 0.12833 0.0
C1224 C 0.25854 0.86806 0.07951 0.0
C1225 C 0.25074 0.88698 0.06495 0.0
C1226 C 0.28824 0.88357 0.10917 0.0
C1227 C 0.26216 0.90377 0.07445 0.0
C1228 C 0.31868 0.90038 0.13853 0.0
C1229 C 0.33606 0.86365 0.14727 0.0
N1230 N 0.28018 0.90168 0.09578 0.0
N1231 N 0.3175 0.86489 0.1335 0.0
H1232 H 0.62591 1.00336 0.23579 0.0
H1233 H 0.61866 0.02229 0.74439 0.0
H1234 H 0.6209 0.95598 0.42572 0.0
H1235 H 0.63279 0.06796 0.55648 0.0
H1236 H 0.61789 0.99766 0.62847 0.0
H1237 H 0.6266 0.02769 0.35231 0.0
C1238 C 0.62472 0.99818 0.30205 0.0
C1239 C 0.62276 0.97779 0.32125 0.0
C1240 C 0.62107 0.01311 0.61258 0.0
C1241 C 0.62383 1.00524 0.45469 0.0
C1242 C 0.62153 0.02704 0.67861 0.0
C1243 C 0.62526 0.04713 0.65909 0.0
C1244 C 0.62448 0.01941 0.52689 0.0
C1245 C 0.62916 0.0527 0.57334 0.0
C1246 C 0.62517 0.01197 0.36848 0.0
C1247 C 0.62168 0.97165 0.40813 0.0
N1248 N 0.62856 0.03895 0.51032 0.0
N1249 N 0.62216 0.98531 0.47162 0.0
H1250 H 0.19632 0.35526 0.90626 0.0
H1251 H 0.27541 0.42424 0.69602 0.0
H1252 H 0.19649 0.41969 0.91305 0.0
H1253 H 0.27679 0.36001 0.69427 0.0
H1254 H 0.2474 0.42266 0.78466 0.0
H1255 H 0.22709 0.35636 0.84105 0.0
C1256 C 0.20293 0.36963 0.89534 0.0
C1257 C 0.19374 0.38743 0.91438 0.0
C1258 C 0.25387 0.40887 0.76568 0.0
C1259 C 0.22882 0.38878 0.83881 0.0
C1260 C 0.26976 0.40981 0.71481 0.0
C1261 C 0.27838 0.39224 0.68884 0.0
C1262 C 0.24642 0.39019 0.78991 0.0
C1263 C 0.27069 0.37385 0.71471 0.0
C1264 C 0.22047 0.37024 0.85774 0.0
C1265 C 0.20299 0.40559 0.89888 0.0
N1266 N 0.25505 0.37328 0.76362 0.0
N1267 N 0.21994 0.4058 0.86124 0.0
H1268 H 0.84425 0.96879 0.03734 0.0
H1269 H 0.90374 0.06842 0.94972 0.0
H1270 H 0.90365 0.96936 0.02164 0.0
H1271 H 0.84431 0.06694 0.96002 0.0
H1272 H 0.90412 0.03232 0.97574 0.0
H1273 H 0.84419 1.00477 0.01064 0.0
C1274 C 0.85732 0.97648 0.02867 0.0
C1275 C 0.874 0.96595 0.03192 0.0
C1276 C 0.89099 0.03987 0.97208 0.0
C1277 C 0.87399 1.00739 0.00066 0.0
C1278 C 0.89075 0.06052 0.95699 0.0
C1279 C 0.87395 0.07082 0.95252 0.0
C1280 C 0.87432 0.02935 -0.01697 0.0
C1281 C 0.85759 0.0597 0.96276 0.0
C1282 C 0.85726 0.99708 0.01317 0.0
C1283 C 0.89047 0.97682 0.01994 0.0
N1284 N 0.85819 0.03963 0.97766 0.0
N1285 N 0.89004 0.99691 0.00476 0.0
H1286 H 0.20349 0.64637 0.2043 0.0
H1287 H 0.30981 0.62279 0.23296 0.0
H1288 H 0.23943 0.64862 -0.01822 0.0
H1289 H 0.27899 0.6444 0.45035 0.0
H1290 H 0.28335 0.62887 0.14088 0.0
H1291 H 0.2302 0.6428 0.29693 0.0
C1292 C 0.21707 0.64674 0.17516 0.0
C1293 C 0.2194 0.64863 0.08561 0.0
C1294 C 0.28241 0.63252 0.20846 0.0
C1295 C 0.24988 0.64339 0.1907 0.0
C1296 C 0.29754 0.62923 0.26075 0.0
C1297 C 0.29668 0.63388 0.34832 0.0
C1298 C 0.26617 0.64003 0.2446 0.0
C1299 C 0.28013 0.64096 0.38267 0.0
C1300 C 0.23227 0.64441 0.22798 0.0
C1301 C 0.2372 0.64754 0.05073 0.0
N1302 N 0.26543 0.64388 0.33051 0.0
N1303 N 0.25183 0.64496 0.10346 0.0
H1304 H 0.3747 0.97522 0.30873 0.0
H1305 H 0.4352 0.03619 0.64482 0.0
H1306 H 0.43393 0.97841 0.29603 0.0
H1307 H 0.37601 0.03875 0.63405 0.0
H1308 H 0.43524 0.01371 0.52168 0.0
H1309 H 0.37494 0.99814 0.4296 0.0
C1310 C 0.38775 0.98097 0.33101 0.0
C1311 C 0.40433 0.97473 0.29345 0.0
C1312 C 0.42224 0.01917 0.54629 0.0
C1313 C 0.40482 1.00065 0.4326 0.0
C1314 C 0.42224 0.032 0.61631 0.0
C1315 C 0.4056 0.03952 0.64841 0.0
C1316 C 0.40544 0.01375 0.50868 0.0
C1317 C 0.38911 0.0332 0.61112 0.0
C1318 C 0.38792 0.99389 0.40042 0.0
C1319 C 0.4209 0.98247 0.32485 0.0
N1320 N 0.38944 0.02077 0.54297 0.0
N1321 N 0.42074 0.99494 0.39307 0.0
H1322 H 0.82617 0.66493 0.04662 0.0
H1323 H 0.74966 0.59525 0.27415 0.0
H1324 H 0.8293 0.60058 0.05975 0.0
H1325 H 0.74768 0.65949 0.27068 0.0
H1326 H 0.77767 0.59678 0.18511 0.0
H1327 H 0.79572 0.66312 0.11414 0.0
C1328 C 0.82034 0.65039 0.06245 0.0
C1329 C 0.83038 0.63288 0.04823 0.0
C1330 C 0.77106 0.61057 0.20315 0.0
C1331 C 0.79563 0.63074 0.12665 0.0
C1332 C 0.75519 0.60967 0.25426 0.0
C1333 C 0.74637 0.62726 0.27855 0.0
C1334 C 0.77822 0.62924 0.17686 0.0
C1335 C 0.75389 0.64562 0.25133 0.0
C1336 C 0.80298 0.64938 0.10145 0.0
C1337 C 0.82211 0.61447 0.06994 0.0
N1338 N 0.76945 0.64614 0.20198 0.0
N1339 N 0.80528 0.6139 0.10886 0.0
H1340 H 0.19107 0.05598 0.94059 0.0
H1341 H 0.12874 0.95749 0.00905 0.0
H1342 H 0.1317 0.05443 0.92645 0.0
H1343 H 0.18819 0.95593 0.00704 0.0
H1344 H 0.13005 0.99342 -0.01689 0.0
H1345 H 0.19086 0.01966 0.96694 0.0
C1346 C 0.17803 0.04804 0.94253 0.0
C1347 C 0.16139 0.05834 0.93139 0.0
C1348 C 0.14285 0.98528 -0.01154 0.0
C1349 C 0.16104 0.0169 0.96212 0.0
C1350 C 0.1421 0.9647 0.00363 0.0
C1351 C 0.15837 0.9536 0.01033 0.0
C1352 C 0.16001 0.99499 0.97984 0.0
C1353 C 0.17528 0.96387 0.00241 0.0
C1354 C 0.17792 0.02733 0.9578 0.0
C1355 C 0.1449 0.04724 0.93479 0.0
N1356 N 0.17566 0.98398 -0.01251 0.0
N1357 N 0.14517 0.02724 0.95 0.0
H1358 H 0.71374 0.3964 0.73274 0.0
H1359 H 0.82088 0.37809 0.76175 0.0
H1360 H 0.74562 0.37633 0.51571 0.0
H1361 H 0.78511 0.37369 -0.01559 0.0
H1362 H 0.79404 0.38048 0.66935 0.0
H1363 H 0.74029 0.3914 0.82535 0.0
C1364 C 0.72625 0.39047 0.70515 0.0
C1365 C 0.7274 0.38596 0.61747 0.0
C1366 C 0.79203 0.37867 0.73827 0.0
C1367 C 0.758 0.38114 0.72178 0.0
C1368 C 0.80732 0.37704 0.79091 0.0
C1369 C 0.80507 0.37485 0.88036 0.0
C1370 C 0.7744 0.37867 0.77567 0.0
C1371 C 0.78727 0.37503 0.91548 0.0
C1372 C 0.74143 0.38783 0.75775 0.0
C1373 C 0.74424 0.37962 0.58345 0.0
N1374 N 0.77252 0.37692 0.8629 0.0
N1375 N 0.75898 0.37736 0.63587 0.0
loop_
_geom_bond_atom_site_label_1
_geom_bond_atom_site_label_2
_geom_bond_distance
_geom_bond_site_symmetry_2
_ccdc_geom_bond_type
Zn0 O1 2.055 1_554 S
Zn0 O8 2.046 . S
Zn0 N16 2.036 . S
Zn0 O28 2.053 . S
Zn0 O30 2.066 . S
O1 Zn0 2.055 1_556 S
O1 C4 1.259 . S
C2 O30 1.256 . S
C2 O31 1.244 . S
Zn3 O5 2.046 1_554 S
Zn3 O7 2.055 . S
Zn3 N9 2.036 . S
Zn3 O27 2.066 . S
Zn3 O31 2.053 . S
C4 O1 1.259 . S
C4 O5 1.254 . S
O5 Zn3 2.046 1_556 S
O5 C4 1.254 . S
C6 O27 1.256 . S
C6 O28 1.244 . S
O7 Zn3 2.055 . S
O7 C29 1.259 . S
O8 Zn0 2.046 . S
O8 C29 1.254 . S
N9 Zn3 2.036 . S
N9 C10 1.298 . S
N9 N12 1.398 . S
C10 N9 1.298 . S
C10 N13 1.367 . S
C10 C23 1.481 . S
C11 N12 1.299 . S
C11 N13 1.379 . S
N12 N9 1.398 . S
N12 C11 1.299 . S
N13 C10 1.367 . S
N13 C11 1.379 . S
C14 N16 1.298 . S
C14 N18 1.367 . S
C14 C22 1.481 1_554 S
C15 N17 1.299 . S
C15 N18 1.379 . S
N16 Zn0 2.036 . S
N16 C14 1.298 . S
N16 N17 1.398 . S
N17 C15 1.299 . S
N17 N16 1.398 . S
N18 C14 1.367 . S
N18 C15 1.379 . S
H19 C22 0.980 . S
H20 C22 0.981 . S
H21 C22 0.981 . S
C22 C14 1.481 1_556 S
C22 H19 0.980 . S
C22 H20 0.981 . S
C22 H21 0.981 . S
C23 C10 1.481 . S
C23 H24 0.980 . S
C23 H25 0.981 . S
C23 H26 0.981 . S
H24 C23 0.980 . S
H25 C23 0.981 . S
H26 C23 0.981 . S
O27 Zn3 2.066 . S
O27 C6 1.256 . S
O28 Zn0 2.053 . S
O28 C6 1.244 . S
C29 O7 1.259 . S
C29 O8 1.254 . S
O30 Zn0 2.066 . S
O30 C2 1.256 . S
O31 C2 1.244 . S
O31 Zn3 2.053 . S
Zn32 O33 2.055 . S
Zn32 O40 2.046 . S
Zn32 N48 2.036 . S
Zn32 O60 2.053 . S
Zn32 O62 2.066 . S
O33 Zn32 2.055 . S
O33 C36 1.259 . S
C34 O62 1.256 . S
C34 O63 1.244 . S
Zn35 O37 2.046 . S
Zn35 O39 2.055 . S
Zn35 N41 2.036 . S
Zn35 O59 2.066 . S
Zn35 O63 2.053 . S
C36 O33 1.259 . S
C36 O37 1.254 . S
O37 Zn35 2.046 . S
O37 C36 1.254 . S
C38 O59 1.256 . S
C38 O60 1.244 . S
O39 Zn35 2.055 . S
O39 C61 1.259 . S
O40 Zn32 2.046 . S
O40 C61 1.254 . S
N41 Zn35 2.036 . S
N41 C42 1.298 . S
N41 N44 1.398 . S
C42 N41 1.298 . S
C42 N45 1.367 . S
C42 C55 1.481 . S
C43 N44 1.299 . S
C43 N45 1.379 . S
N44 N41 1.398 . S
N44 C43 1.299 . S
N45 C42 1.367 . S
N45 C43 1.379 . S
C46 N48 1.298 . S
C46 N50 1.367 . S
C46 C54 1.481 . S
C47 N49 1.299 . S
C47 N50 1.379 . S
N48 Zn32 2.036 . S
N48 C46 1.298 . S
N48 N49 1.398 . S
N49 C47 1.299 . S
N49 N48 1.398 . S
N50 C46 1.367 . S
N50 C47 1.379 . S
H51 C54 0.980 . S
H52 C54 0.981 . S
H53 C54 0.981 . S
C54 C46 1.481 . S
C54 H51 0.980 . S
C54 H52 0.981 . S
C54 H53 0.981 . S
C55 C42 1.481 . S
C55 H56 0.980 . S
C55 H57 0.981 . S
C55 H58 0.981 . S
H56 C55 0.980 . S
H57 C55 0.981 . S
H58 C55 0.981 . S
O59 Zn35 2.066 . S
O59 C38 1.256 . S
O60 Zn32 2.053 . S
O60 C38 1.244 . S
C61 O39 1.259 . S
C61 O40 1.254 . S
O62 Zn32 2.066 . S
O62 C34 1.256 . S
O63 C34 1.244 . S
O63 Zn35 2.053 . S
Zn64 O65 2.055 . S
Zn64 O72 2.046 . S
Zn64 N80 2.036 . S
Zn64 O92 2.053 . S
Zn64 O94 2.066 . S
O65 Zn64 2.055 . S
O65 C68 1.259 . S
C66 O94 1.256 . S
C66 O95 1.244 . S
Zn67 O69 2.046 . S
Zn67 O71 2.055 . S
Zn67 N73 2.036 . S
Zn67 O91 2.066 . S
Zn67 O95 2.053 . S
C68 O65 1.259 . S
C68 O69 1.254 . S
O69 Zn67 2.046 . S
O69 C68 1.254 . S
C70 O91 1.256 . S
C70 O92 1.244 . S
O71 Zn67 2.055 . S
O71 C93 1.259 . S
O72 Zn64 2.046 . S
O72 C93 1.254 . S
N73 Zn67 2.036 . S
N73 C74 1.298 . S
N73 N76 1.398 . S
C74 N73 1.298 . S
C74 N77 1.367 . S
C74 C87 1.481 . S
C75 N76 1.299 . S
C75 N77 1.379 . S
N76 N73 1.398 . S
N76 C75 1.299 . S
N77 C74 1.367 . S
N77 C75 1.379 . S
C78 N80 1.298 . S
C78 N82 1.367 . S
C78 C86 1.481 . S
C79 N81 1.299 . S
C79 N82 1.379 . S
N80 Zn64 2.036 . S
N80 C78 1.298 . S
N80 N81 1.398 . S
N81 C79 1.299 . S
N81 N80 1.398 . S
N82 C78 1.367 . S
N82 C79 1.379 . S
H83 C86 0.980 . S
H84 C86 0.981 . S
H85 C86 0.981 . S
C86 C78 1.481 . S
C86 H83 0.980 . S
C86 H84 0.981 . S
C86 H85 0.981 . S
C87 C74 1.481 . S
C87 H88 0.980 . S
C87 H89 0.981 . S
C87 H90 0.981 . S
H88 C87 0.980 . S
H89 C87 0.981 . S
H90 C87 0.981 . S
O91 Zn67 2.066 . S
O91 C70 1.256 . S
O92 Zn64 2.053 . S
O92 C70 1.244 . S
C93 O71 1.259 . S
C93 O72 1.254 . S
O94 Zn64 2.066 . S
O94 C66 1.256 . S
O95 C66 1.244 . S
O95 Zn67 2.053 . S
Zn96 O97 2.055 . S
Zn96 O104 2.046 1_556 S
Zn96 N112 2.036 . S
Zn96 O124 2.053 . S
Zn96 O126 2.066 . S
O97 Zn96 2.055 . S
O97 C100 1.259 . S
C98 O126 1.256 . S
C98 O127 1.244 . S
Zn99 O101 2.046 . S
Zn99 O103 2.055 1_556 S
Zn99 N105 2.036 . S
Zn99 O123 2.066 . S
Zn99 O127 2.053 . S
C100 O97 1.259 . S
C100 O101 1.254 . S
O101 Zn99 2.046 . S
O101 C100 1.254 . S
C102 O123 1.256 . S
C102 O124 1.244 . S
O103 Zn99 2.055 1_554 S
O103 C125 1.259 . S
O104 Zn96 2.046 1_554 S
O104 C125 1.254 . S
N105 Zn99 2.036 . S
N105 C106 1.298 . S
N105 N108 1.398 . S
C106 N105 1.298 . S
C106 N109 1.367 . S
C106 C119 1.481 1_556 S
C107 N108 1.299 . S
C107 N109 1.379 . S
N108 N105 1.398 . S
N108 C107 1.299 . S
N109 C106 1.367 . S
N109 C107 1.379 . S
C110 N112 1.298 . S
C110 N114 1.367 . S
C110 C118 1.481 . S
C111 N113 1.299 . S
C111 N114 1.379 . S
N112 Zn96 2.036 . S
N112 C110 1.298 . S
N112 N113 1.398 . S
N113 C111 1.299 . S
N113 N112 1.398 . S
N114 C110 1.367 . S
N114 C111 1.379 . S
H115 C118 0.980 . S
H116 C118 0.981 . S
H117 C118 0.981 . S
C118 C110 1.481 . S
C118 H115 0.980 . S
C118 H116 0.981 . S
C118 H117 0.981 . S
C119 C106 1.481 1_554 S
C119 H120 0.980 . S
C119 H121 0.981 . S
C119 H122 0.981 . S
H120 C119 0.980 . S
H121 C119 0.981 . S
H122 C119 0.981 . S
O123 Zn99 2.066 . S
O123 C102 1.256 . S
O124 Zn96 2.053 . S
O124 C102 1.244 . S
C125 O103 1.259 . S
C125 O104 1.254 . S
O126 Zn96 2.066 . S
O126 C98 1.256 . S
O127 C98 1.244 . S
O127 Zn99 2.053 . S
Zn128 O129 2.055 . S
Zn128 O136 2.046 . S
Zn128 N144 2.036 . S
Zn128 O156 2.053 . S
Zn128 O158 2.066 . S
O129 Zn128 2.055 . S
O129 C132 1.259 . S
C130 O158 1.256 . S
C130 O159 1.244 . S
Zn131 O133 2.046 . S
Zn131 O135 2.055 . S
Zn131 N137 2.036 . S
Zn131 O155 2.066 . S
Zn131 O159 2.053 . S
C132 O129 1.259 . S
C132 O133 1.254 . S
O133 Zn131 2.046 . S
O133 C132 1.254 . S
C134 O155 1.256 1_554 S
C134 O156 1.244 1_554 S
O135 Zn131 2.055 . S
O135 C157 1.259 . S
O136 Zn128 2.046 . S
O136 C157 1.254 . S
N137 Zn131 2.036 . S
N137 C138 1.298 . S
N137 N140 1.398 . S
C138 N137 1.298 . S
C138 N141 1.367 . S
C138 C151 1.481 . S
C139 N140 1.299 . S
C139 N141 1.379 . S
N140 N137 1.398 . S
N140 C139 1.299 . S
N141 C138 1.367 . S
N141 C139 1.379 . S
C142 N144 1.298 . S
C142 N146 1.367 . S
C142 C150 1.481 . S
C143 N145 1.299 . S
C143 N146 1.379 . S
N144 Zn128 2.036 . S
N144 C142 1.298 . S
N144 N145 1.398 . S
N145 C143 1.299 . S
N145 N144 1.398 . S
N146 C142 1.367 . S
N146 C143 1.379 . S
H147 C150 0.980 . S
H148 C150 0.981 . S
H149 C150 0.981 . S
C150 C142 1.481 . S
C150 H147 0.980 . S
C150 H148 0.981 . S
C150 H149 0.981 . S
C151 C138 1.481 . S
C151 H152 0.980 . S
C151 H153 0.981 . S
C151 H154 0.981 1_556 S
H152 C151 0.980 . S
H153 C151 0.981 . S
H154 C151 0.981 1_554 S
O155 Zn131 2.066 . S
O155 C134 1.256 1_556 S
O156 Zn128 2.053 . S
O156 C134 1.244 1_556 S
C157 O135 1.259 . S
C157 O136 1.254 . S
O158 Zn128 2.066 . S
O158 C130 1.256 . S
O159 C130 1.244 . S
O159 Zn131 2.053 . S
Zn160 O161 2.055 . S
Zn160 O168 2.046 1_554 S
Zn160 N176 2.036 . S
Zn160 O188 2.053 . S
Zn160 O190 2.066 . S
O161 Zn160 2.055 . S
O161 C164 1.259 . S
C162 O190 1.256 . S
C162 O191 1.244 . S
Zn163 O165 2.046 . S
Zn163 O167 2.055 1_554 S
Zn163 N169 2.036 . S
Zn163 O187 2.066 . S
Zn163 O191 2.053 . S
C164 O161 1.259 . S
C164 O165 1.254 . S
O165 Zn163 2.046 . S
O165 C164 1.254 . S
C166 O187 1.256 . S
C166 O188 1.244 . S
O167 Zn163 2.055 1_556 S
O167 C189 1.259 . S
O168 Zn160 2.046 1_556 S
O168 C189 1.254 . S
N169 Zn163 2.036 . S
N169 C170 1.298 . S
N169 N172 1.398 . S
C170 N169 1.298 . S
C170 N173 1.367 . S
C170 C183 1.481 1_554 S
C171 N172 1.299 . S
C171 N173 1.379 . S
N172 N169 1.398 . S
N172 C171 1.299 . S
N173 C170 1.367 . S
N173 C171 1.379 . S
C174 N176 1.298 . S
C174 N178 1.367 . S
C174 C182 1.481 . S
C175 N177 1.299 . S
C175 N178 1.379 . S
N176 Zn160 2.036 . S
N176 C174 1.298 . S
N176 N177 1.398 . S
N177 C175 1.299 . S
N177 N176 1.398 . S
N178 C174 1.367 . S
N178 C175 1.379 . S
H179 C182 0.980 . S
H180 C182 0.981 . S
H181 C182 0.981 . S
C182 C174 1.481 . S
C182 H179 0.980 . S
C182 H180 0.981 . S
C182 H181 0.981 . S
C183 C170 1.481 1_556 S
C183 H184 0.980 . S
C183 H185 0.981 . S
C183 H186 0.981 . S
H184 C183 0.980 . S
H185 C183 0.981 . S
H186 C183 0.981 . S
O187 Zn163 2.066 . S
O187 C166 1.256 . S
O188 Zn160 2.053 . S
O188 C166 1.244 . S
C189 O167 1.259 . S
C189 O168 1.254 . S
O190 Zn160 2.066 . S
O190 C162 1.256 . S
O191 C162 1.244 . S
O191 Zn163 2.053 . S
Zn192 O193 2.055 . S
Zn192 O200 2.046 . S
Zn192 N208 2.036 . S
Zn192 O220 2.053 . S
Zn192 O222 2.066 . S
O193 Zn192 2.055 . S
O193 C196 1.259 . S
C194 O222 1.256 . S
C194 O223 1.244 . S
Zn195 O197 2.046 . S
Zn195 O199 2.055 . S
Zn195 N201 2.036 . S
Zn195 O219 2.066 . S
Zn195 O223 2.053 . S
C196 O193 1.259 . S
C196 O197 1.254 . S
O197 Zn195 2.046 . S
O197 C196 1.254 . S
C198 O219 1.256 . S
C198 O220 1.244 . S
O199 Zn195 2.055 . S
O199 C221 1.259 . S
O200 Zn192 2.046 . S
O200 C221 1.254 . S
N201 Zn195 2.036 . S
N201 C202 1.298 . S
N201 N204 1.398 . S
C202 N201 1.298 . S
C202 N205 1.367 . S
C202 C215 1.481 . S
C203 N204 1.299 . S
C203 N205 1.379 . S
N204 N201 1.398 . S
N204 C203 1.299 . S
N205 C202 1.367 . S
N205 C203 1.379 . S
C206 N208 1.298 . S
C206 N210 1.367 . S
C206 C214 1.481 . S
C207 N209 1.299 . S
C207 N210 1.379 . S
N208 Zn192 2.036 . S
N208 C206 1.298 . S
N208 N209 1.398 . S
N209 C207 1.299 . S
N209 N208 1.398 . S
N210 C206 1.367 . S
N210 C207 1.379 . S
H211 C214 0.980 . S
H212 C214 0.981 . S
H213 C214 0.981 . S
C214 C206 1.481 . S
C214 H211 0.980 . S
C214 H212 0.981 . S
C214 H213 0.981 . S
C215 C202 1.481 . S
C215 H216 0.980 . S
C215 H217 0.981 . S
C215 H218 0.981 . S
H216 C215 0.980 . S
H217 C215 0.981 . S
H218 C215 0.981 . S
O219 Zn195 2.066 . S
O219 C198 1.256 . S
O220 Zn192 2.053 . S
O220 C198 1.244 . S
C221 O199 1.259 . S
C221 O200 1.254 . S
O222 Zn192 2.066 . S
O222 C194 1.256 . S
O223 C194 1.244 . S
O223 Zn195 2.053 . S
Zn224 O225 2.055 . S
Zn224 O232 2.046 . S
Zn224 N240 2.036 . S
Zn224 O252 2.053 . S
Zn224 O254 2.066 . S
O225 Zn224 2.055 . S
O225 C228 1.259 . S
C226 O254 1.256 . S
C226 O255 1.244 . S
Zn227 O229 2.046 . S
Zn227 O231 2.055 . S
Zn227 N233 2.036 . S
Zn227 O251 2.066 . S
Zn227 O255 2.053 . S
C228 O225 1.259 . S
C228 O229 1.254 . S
O229 Zn227 2.046 . S
O229 C228 1.254 . S
C230 O251 1.256 . S
C230 O252 1.244 . S
O231 Zn227 2.055 . S
O231 C253 1.259 . S
O232 Zn224 2.046 . S
O232 C253 1.254 . S
N233 Zn227 2.036 . S
N233 C234 1.298 . S
N233 N236 1.398 . S
C234 N233 1.298 . S
C234 N237 1.367 . S
C234 C247 1.481 . S
C235 N236 1.299 . S
C235 N237 1.379 . S
N236 N233 1.398 . S
N236 C235 1.299 . S
N237 C234 1.367 . S
N237 C235 1.379 . S
C238 N240 1.298 . S
C238 N242 1.367 . S
C238 C246 1.481 . S
C239 N241 1.299 . S
C239 N242 1.379 . S
N240 Zn224 2.036 . S
N240 C238 1.298 . S
N240 N241 1.398 . S
N241 C239 1.299 . S
N241 N240 1.398 . S
N242 C238 1.367 . S
N242 C239 1.379 . S
H243 C246 0.980 . S
H244 C246 0.981 . S
H245 C246 0.981 . S
C246 C238 1.481 . S
C246 H243 0.980 . S
C246 H244 0.981 . S
C246 H245 0.981 . S
C247 C234 1.481 . S
C247 H248 0.980 . S
C247 H249 0.981 . S
C247 H250 0.981 . S
H248 C247 0.980 . S
H249 C247 0.981 . S
H250 C247 0.981 . S
O251 Zn227 2.066 . S
O251 C230 1.256 . S
O252 Zn224 2.053 . S
O252 C230 1.244 . S
C253 O231 1.259 . S
C253 O232 1.254 . S
O254 Zn224 2.066 . S
O254 C226 1.256 . S
O255 C226 1.244 . S
O255 Zn227 2.053 . S
Zn256 O257 2.055 1_556 S
Zn256 O264 2.046 . S
Zn256 N272 2.036 . S
Zn256 O284 2.053 . S
Zn256 O286 2.066 . S
O257 Zn256 2.055 1_554 S
O257 C260 1.259 . S
C258 O286 1.256 . S
C258 O287 1.244 . S
Zn259 O261 2.046 1_556 S
Zn259 O263 2.055 . S
Zn259 N265 2.036 . S
Zn259 O283 2.066 . S
Zn259 O287 2.053 . S
C260 O257 1.259 . S
C260 O261 1.254 . S
O261 Zn259 2.046 1_554 S
O261 C260 1.254 . S
C262 O283 1.256 . S
C262 O284 1.244 . S
O263 Zn259 2.055 . S
O263 C285 1.259 . S
O264 Zn256 2.046 . S
O264 C285 1.254 . S
N265 Zn259 2.036 . S
N265 C266 1.298 . S
N265 N268 1.398 . S
C266 N265 1.298 . S
C266 N269 1.367 . S
C266 C279 1.481 . S
C267 N268 1.299 . S
C267 N269 1.379 . S
N268 N265 1.398 . S
N268 C267 1.299 . S
N269 C266 1.367 . S
N269 C267 1.379 . S
C270 N272 1.298 . S
C270 N274 1.367 . S
C270 C278 1.481 1_556 S
C271 N273 1.299 . S
C271 N274 1.379 . S
N272 Zn256 2.036 . S
N272 C270 1.298 . S
N272 N273 1.398 . S
N273 C271 1.299 . S
N273 N272 1.398 . S
N274 C270 1.367 . S
N274 C271 1.379 . S
H275 C278 0.980 . S
H276 C278 0.981 . S
H277 C278 0.981 . S
C278 C270 1.481 1_554 S
C278 H275 0.980 . S
C278 H276 0.981 . S
C278 H277 0.981 . S
C279 C266 1.481 . S
C279 H280 0.980 . S
C279 H281 0.981 . S
C279 H282 0.981 . S
H280 C279 0.980 . S
H281 C279 0.981 . S
H282 C279 0.981 . S
O283 Zn259 2.066 . S
O283 C262 1.256 . S
O284 Zn256 2.053 . S
O284 C262 1.244 . S
C285 O263 1.259 . S
C285 O264 1.254 . S
O286 Zn256 2.066 . S
O286 C258 1.256 . S
O287 C258 1.244 . S
O287 Zn259 2.053 . S
Zn288 O289 2.055 . S
Zn288 O296 2.046 . S
Zn288 N304 2.036 . S
Zn288 O316 2.053 . S
Zn288 O318 2.066 . S
O289 Zn288 2.055 . S
O289 C292 1.259 . S
C290 O318 1.256 . S
C290 O319 1.244 . S
Zn291 O293 2.046 . S
Zn291 O295 2.055 . S
Zn291 N297 2.036 . S
Zn291 O315 2.066 . S
Zn291 O319 2.053 . S
C292 O289 1.259 . S
C292 O293 1.254 . S
O293 Zn291 2.046 . S
O293 C292 1.254 . S
C294 O315 1.256 . S
C294 O316 1.244 . S
O295 Zn291 2.055 . S
O295 C317 1.259 . S
O296 Zn288 2.046 . S
O296 C317 1.254 . S
N297 Zn291 2.036 . S
N297 C298 1.298 . S
N297 N300 1.398 . S
C298 N297 1.298 . S
C298 N301 1.367 . S
C298 C311 1.481 . S
C299 N300 1.299 . S
C299 N301 1.379 . S
N300 N297 1.398 . S
N300 C299 1.299 . S
N301 C298 1.367 . S
N301 C299 1.379 . S
C302 N304 1.298 . S
C302 N306 1.367 . S
C302 C310 1.481 . S
C303 N305 1.299 . S
C303 N306 1.379 . S
N304 Zn288 2.036 . S
N304 C302 1.298 . S
N304 N305 1.398 . S
N305 C303 1.299 . S
N305 N304 1.398 . S
N306 C302 1.367 . S
N306 C303 1.379 . S
H307 C310 0.980 . S
H308 C310 0.981 . S
H309 C310 0.981 . S
C310 C302 1.481 . S
C310 H307 0.980 . S
C310 H308 0.981 . S
C310 H309 0.981 . S
C311 C298 1.481 . S
C311 H312 0.980 . S
C311 H313 0.981 . S
C311 H314 0.981 . S
H312 C311 0.980 . S
H313 C311 0.981 . S
H314 C311 0.981 . S
O315 Zn291 2.066 . S
O315 C294 1.256 . S
O316 Zn288 2.053 . S
O316 C294 1.244 . S
C317 O295 1.259 . S
C317 O296 1.254 . S
O318 Zn288 2.066 . S
O318 C290 1.256 . S
O319 C290 1.244 . S
O319 Zn291 2.053 . S
Zn320 O321 2.055 . S
Zn320 O328 2.046 . S
Zn320 N336 2.036 . S
Zn320 O348 2.053 . S
Zn320 O350 2.066 . S
O321 Zn320 2.055 . S
O321 C324 1.259 . S
C322 O350 1.256 . S
C322 O351 1.244 . S
Zn323 O325 2.046 . S
Zn323 O327 2.055 . S
Zn323 N329 2.036 . S
Zn323 O347 2.066 . S
Zn323 O351 2.053 . S
C324 O321 1.259 . S
C324 O325 1.254 . S
O325 Zn323 2.046 . S
O325 C324 1.254 . S
C326 O347 1.256 . S
C326 O348 1.244 . S
O327 Zn323 2.055 . S
O327 C349 1.259 . S
O328 Zn320 2.046 . S
O328 C349 1.254 . S
N329 Zn323 2.036 . S
N329 C330 1.298 . S
N329 N332 1.398 . S
C330 N329 1.298 . S
C330 N333 1.367 . S
C330 C343 1.481 . S
C331 N332 1.299 . S
C331 N333 1.379 . S
N332 N329 1.398 . S
N332 C331 1.299 . S
N333 C330 1.367 . S
N333 C331 1.379 . S
C334 N336 1.298 . S
C334 N338 1.367 . S
C334 C342 1.481 . S
C335 N337 1.299 . S
C335 N338 1.379 . S
N336 Zn320 2.036 . S
N336 C334 1.298 . S
N336 N337 1.398 . S
N337 C335 1.299 . S
N337 N336 1.398 . S
N338 C334 1.367 . S
N338 C335 1.379 . S
H339 C342 0.980 . S
H340 C342 0.981 . S
H341 C342 0.981 . S
C342 C334 1.481 . S
C342 H339 0.980 . S
C342 H340 0.981 . S
C342 H341 0.981 . S
C343 C330 1.481 . S
C343 H344 0.980 . S
C343 H345 0.981 . S
C343 H346 0.981 . S
H344 C343 0.980 . S
H345 C343 0.981 . S
H346 C343 0.981 . S
O347 Zn323 2.066 . S
O347 C326 1.256 . S
O348 Zn320 2.053 . S
O348 C326 1.244 . S
C349 O327 1.259 . S
C349 O328 1.254 . S
O350 Zn320 2.066 . S
O350 C322 1.256 . S
O351 C322 1.244 . S
O351 Zn323 2.053 . S
Zn352 O353 2.055 . S
Zn352 O360 2.046 1_554 S
Zn352 N368 2.036 . S
Zn352 O380 2.053 . S
Zn352 O382 2.066 . S
O353 Zn352 2.055 . S
O353 C356 1.259 . S
C354 O382 1.256 . S
C354 O383 1.244 . S
Zn355 O357 2.046 . S
Zn355 O359 2.055 1_554 S
Zn355 N361 2.036 . S
Zn355 O379 2.066 . S
Zn355 O383 2.053 . S
C356 O353 1.259 . S
C356 O357 1.254 . S
O357 Zn355 2.046 . S
O357 C356 1.254 . S
C358 O379 1.256 . S
C358 O380 1.244 . S
O359 Zn355 2.055 1_556 S
O359 C381 1.259 . S
O360 Zn352 2.046 1_556 S
O360 C381 1.254 . S
N361 Zn355 2.036 . S
N361 C362 1.298 . S
N361 N364 1.398 . S
C362 N361 1.298 . S
C362 N365 1.367 . S
C362 C375 1.481 1_554 S
C363 N364 1.299 . S
C363 N365 1.379 . S
N364 N361 1.398 . S
N364 C363 1.299 . S
N365 C362 1.367 . S
N365 C363 1.379 . S
C366 N368 1.298 . S
C366 N370 1.367 . S
C366 C374 1.481 . S
C367 N369 1.299 . S
C367 N370 1.379 . S
N368 Zn352 2.036 . S
N368 C366 1.298 . S
N368 N369 1.398 . S
N369 C367 1.299 . S
N369 N368 1.398 . S
N370 C366 1.367 . S
N370 C367 1.379 . S
H371 C374 0.980 . S
H372 C374 0.981 . S
H373 C374 0.981 . S
C374 C366 1.481 . S
C374 H371 0.980 . S
C374 H372 0.981 . S
C374 H373 0.981 . S
C375 C362 1.481 1_556 S
C375 H376 0.980 . S
C375 H377 0.981 . S
C375 H378 0.981 . S
H376 C375 0.980 . S
H377 C375 0.981 . S
H378 C375 0.981 . S
O379 Zn355 2.066 . S
O379 C358 1.256 . S
O380 Zn352 2.053 . S
O380 C358 1.244 . S
C381 O359 1.259 . S
C381 O360 1.254 . S
O382 Zn352 2.066 . S
O382 C354 1.256 . S
O383 C354 1.244 . S
O383 Zn355 2.053 . S
Zn384 O385 2.055 . S
Zn384 O392 2.046 . S
Zn384 N400 2.036 . S
Zn384 O412 2.053 . S
Zn384 O414 2.066 . S
O385 Zn384 2.055 . S
O385 C388 1.259 . S
C386 O414 1.256 1_556 S
C386 O415 1.244 1_556 S
Zn387 O389 2.046 . S
Zn387 O391 2.055 . S
Zn387 N393 2.036 . S
Zn387 O411 2.066 . S
Zn387 O415 2.053 . S
C388 O385 1.259 . S
C388 O389 1.254 . S
O389 Zn387 2.046 . S
O389 C388 1.254 . S
C390 O411 1.256 . S
C390 O412 1.244 . S
O391 Zn387 2.055 . S
O391 C413 1.259 . S
O392 Zn384 2.046 . S
O392 C413 1.254 . S
N393 Zn387 2.036 . S
N393 C394 1.298 . S
N393 N396 1.398 . S
C394 N393 1.298 . S
C394 N397 1.367 . S
C394 C407 1.481 . S
C395 N396 1.299 . S
C395 N397 1.379 . S
N396 N393 1.398 . S
N396 C395 1.299 . S
N397 C394 1.367 . S
N397 C395 1.379 . S
C398 N400 1.298 . S
C398 N402 1.367 . S
C398 C406 1.481 . S
C399 N401 1.299 . S
C399 N402 1.379 . S
N400 Zn384 2.036 . S
N400 C398 1.298 . S
N400 N401 1.398 . S
N401 C399 1.299 . S
N401 N400 1.398 . S
N402 C398 1.367 . S
N402 C399 1.379 . S
H403 C406 0.980 . S
H404 C406 0.981 . S
H405 C406 0.981 1_556 S
C406 C398 1.481 . S
C406 H403 0.980 . S
C406 H404 0.981 . S
C406 H405 0.981 1_554 S
C407 C394 1.481 . S
C407 H408 0.980 . S
C407 H409 0.981 . S
C407 H410 0.981 . S
H408 C407 0.980 . S
H409 C407 0.981 . S
H410 C407 0.981 . S
O411 Zn387 2.066 . S
O411 C390 1.256 . S
O412 Zn384 2.053 . S
O412 C390 1.244 . S
C413 O391 1.259 . S
C413 O392 1.254 . S
O414 Zn384 2.066 . S
O414 C386 1.256 1_554 S
O415 C386 1.244 1_554 S
O415 Zn387 2.053 . S
Zn416 O417 2.055 . S
Zn416 O424 2.046 1_556 S
Zn416 N432 2.036 . S
Zn416 O444 2.053 . S
Zn416 O446 2.066 . S
O417 Zn416 2.055 . S
O417 C420 1.259 . S
C418 O446 1.256 . S
C418 O447 1.244 . S
Zn419 O421 2.046 . S
Zn419 O423 2.055 1_556 S
Zn419 N425 2.036 . S
Zn419 O443 2.066 . S
Zn419 O447 2.053 . S
C420 O417 1.259 . S
C420 O421 1.254 . S
O421 Zn419 2.046 . S
O421 C420 1.254 . S
C422 O443 1.256 . S
C422 O444 1.244 . S
O423 Zn419 2.055 1_554 S
O423 C445 1.259 . S
O424 Zn416 2.046 1_554 S
O424 C445 1.254 . S
N425 Zn419 2.036 . S
N425 C426 1.298 . S
N425 N428 1.398 . S
C426 N425 1.298 . S
C426 N429 1.367 . S
C426 C439 1.481 1_556 S
C427 N428 1.299 . S
C427 N429 1.379 . S
N428 N425 1.398 . S
N428 C427 1.299 . S
N429 C426 1.367 . S
N429 C427 1.379 . S
C430 N432 1.298 . S
C430 N434 1.367 . S
C430 C438 1.481 . S
C431 N433 1.299 . S
C431 N434 1.379 . S
N432 Zn416 2.036 . S
N432 C430 1.298 . S
N432 N433 1.398 . S
N433 C431 1.299 . S
N433 N432 1.398 . S
N434 C430 1.367 . S
N434 C431 1.379 . S
H435 C438 0.980 . S
H436 C438 0.981 . S
H437 C438 0.981 . S
C438 C430 1.481 . S
C438 H435 0.980 . S
C438 H436 0.981 . S
C438 H437 0.981 . S
C439 C426 1.481 1_554 S
C439 H440 0.980 . S
C439 H441 0.981 . S
C439 H442 0.981 . S
H440 C439 0.980 . S
H441 C439 0.981 . S
H442 C439 0.981 . S
O443 Zn419 2.066 . S
O443 C422 1.256 . S
O444 Zn416 2.053 . S
O444 C422 1.244 . S
C445 O423 1.259 . S
C445 O424 1.254 . S
O446 Zn416 2.066 . S
O446 C418 1.256 . S
O447 C418 1.244 . S
O447 Zn419 2.053 . S
Zn448 O449 2.055 . S
Zn448 O456 2.046 . S
Zn448 N464 2.036 . S
Zn448 O476 2.053 . S
Zn448 O478 2.066 . S
O449 Zn448 2.055 . S
O449 C452 1.259 . S
C450 O478 1.256 . S
C450 O479 1.244 . S
Zn451 O453 2.046 . S
Zn451 O455 2.055 . S
Zn451 N457 2.036 . S
Zn451 O475 2.066 . S
Zn451 O479 2.053 . S
C452 O449 1.259 . S
C452 O453 1.254 . S
O453 Zn451 2.046 . S
O453 C452 1.254 . S
C454 O475 1.256 . S
C454 O476 1.244 . S
O455 Zn451 2.055 . S
O455 C477 1.259 . S
O456 Zn448 2.046 . S
O456 C477 1.254 . S
N457 Zn451 2.036 . S
N457 C458 1.298 . S
N457 N460 1.398 . S
C458 N457 1.298 . S
C458 N461 1.367 . S
C458 C471 1.481 . S
C459 N460 1.299 . S
C459 N461 1.379 . S
N460 N457 1.398 . S
N460 C459 1.299 . S
N461 C458 1.367 . S
N461 C459 1.379 . S
C462 N464 1.298 . S
C462 N466 1.367 . S
C462 C470 1.481 . S
C463 N465 1.299 . S
C463 N466 1.379 . S
N464 Zn448 2.036 . S
N464 C462 1.298 . S
N464 N465 1.398 . S
N465 C463 1.299 . S
N465 N464 1.398 . S
N466 C462 1.367 . S
N466 C463 1.379 . S
H467 C470 0.980 . S
H468 C470 0.981 . S
H469 C470 0.981 . S
C470 C462 1.481 . S
C470 H467 0.980 . S
C470 H468 0.981 . S
C470 H469 0.981 . S
C471 C458 1.481 . S
C471 H472 0.980 . S
C471 H473 0.981 . S
C471 H474 0.981 . S
H472 C471 0.980 . S
H473 C471 0.981 . S
H474 C471 0.981 . S
O475 Zn451 2.066 . S
O475 C454 1.256 . S
O476 Zn448 2.053 . S
O476 C454 1.244 . S
C477 O455 1.259 . S
C477 O456 1.254 . S
O478 Zn448 2.066 . S
O478 C450 1.256 . S
O479 C450 1.244 . S
O479 Zn451 2.053 . S
Zn480 O481 2.055 . S
Zn480 O488 2.046 . S
Zn480 N496 2.036 . S
Zn480 O508 2.053 . S
Zn480 O510 2.066 . S
O481 Zn480 2.055 . S
O481 C484 1.259 . S
C482 O510 1.256 . S
C482 O511 1.244 . S
Zn483 O485 2.046 . S
Zn483 O487 2.055 . S
Zn483 N489 2.036 . S
Zn483 O507 2.066 . S
Zn483 O511 2.053 . S
C484 O481 1.259 . S
C484 O485 1.254 . S
O485 Zn483 2.046 . S
O485 C484 1.254 . S
C486 O507 1.256 . S
C486 O508 1.244 . S
O487 Zn483 2.055 . S
O487 C509 1.259 . S
O488 Zn480 2.046 . S
O488 C509 1.254 . S
N489 Zn483 2.036 . S
N489 C490 1.298 . S
N489 N492 1.398 . S
C490 N489 1.298 . S
C490 N493 1.367 . S
C490 C503 1.481 . S
C491 N492 1.299 . S
C491 N493 1.379 . S
N492 N489 1.398 . S
N492 C491 1.299 . S
N493 C490 1.367 . S
N493 C491 1.379 . S
C494 N496 1.298 . S
C494 N498 1.367 . S
C494 C502 1.481 . S
C495 N497 1.299 . S
C495 N498 1.379 . S
N496 Zn480 2.036 . S
N496 C494 1.298 . S
N496 N497 1.398 . S
N497 C495 1.299 . S
N497 N496 1.398 . S
N498 C494 1.367 . S
N498 C495 1.379 . S
H499 C502 0.980 . S
H500 C502 0.981 . S
H501 C502 0.981 . S
C502 C494 1.481 . S
C502 H499 0.980 . S
C502 H500 0.981 . S
C502 H501 0.981 . S
C503 C490 1.481 . S
C503 H504 0.980 . S
C503 H505 0.981 . S
C503 H506 0.981 . S
H504 C503 0.980 . S
H505 C503 0.981 . S
H506 C503 0.981 . S
O507 Zn483 2.066 . S
O507 C486 1.256 . S
O508 Zn480 2.053 . S
O508 C486 1.244 . S
C509 O487 1.259 . S
C509 O488 1.254 . S
O510 Zn480 2.066 . S
O510 C482 1.256 . S
O511 C482 1.244 . S
O511 Zn483 2.053 . S
H512 C518 0.930 . S
H513 C522 0.930 . S
H514 C527 0.929 . S
H515 C525 0.929 . S
H516 C520 0.929 . S
H517 C526 0.929 . S
C518 H512 0.930 . S
C518 C519 1.367 . S
C518 C526 1.378 . S
C519 C518 1.367 . S
C519 C527 1.433 . S
C520 H516 0.929 . S
C520 C522 1.378 . S
C520 C524 1.350 . S
C521 C524 1.463 . S
C521 C526 1.350 . S
C521 N529 1.427 . S
C522 H513 0.930 . S
C522 C520 1.378 . S
C522 C523 1.367 . S
C523 C522 1.367 . S
C523 C525 1.433 . S
C524 C520 1.350 . S
C524 C521 1.463 . S
C524 N528 1.427 . S
C525 H515 0.929 . S
C525 C523 1.433 . S
C525 N528 1.384 . S
C526 H517 0.929 . S
C526 C518 1.378 . S
C526 C521 1.350 . S
C527 H514 0.929 . S
C527 C519 1.433 . S
C527 N529 1.384 . S
N528 C524 1.427 . S
N528 C525 1.384 . S
N529 C521 1.427 . S
N529 C527 1.384 . S
H530 C536 0.930 . S
H531 C540 0.930 . S
H532 C545 0.929 . S
H533 C543 0.929 . S
H534 C538 0.929 . S
H535 C544 0.929 . S
C536 H530 0.930 . S
C536 C537 1.367 . S
C536 C544 1.378 1_554 S
C537 C536 1.367 . S
C537 C545 1.433 . S
C538 H534 0.929 . S
C538 C540 1.378 . S
C538 C542 1.350 . S
C539 C542 1.463 . S
C539 C544 1.350 . S
C539 N547 1.427 . S
C540 H531 0.930 . S
C540 C538 1.378 . S
C540 C541 1.367 . S
C541 C540 1.367 . S
C541 C543 1.433 . S
C542 C538 1.350 . S
C542 C539 1.463 . S
C542 N546 1.427 . S
C543 H533 0.929 . S
C543 C541 1.433 . S
C543 N546 1.384 . S
C544 H535 0.929 . S
C544 C536 1.378 1_556 S
C544 C539 1.350 . S
C545 H532 0.929 . S
C545 C537 1.433 . S
C545 N547 1.384 1_554 S
N546 C542 1.427 . S
N546 C543 1.384 . S
N547 C539 1.427 . S
N547 C545 1.384 1_556 S
H548 C554 0.930 . S
H549 C558 0.930 . S
H550 C563 0.929 . S
H551 C561 0.929 . S
H552 C556 0.929 . S
H553 C562 0.929 . S
C554 H548 0.930 . S
C554 C555 1.367 . S
C554 C562 1.378 . S
C555 C554 1.367 . S
C555 C563 1.433 . S
C556 H552 0.929 . S
C556 C558 1.378 1_554 S
C556 C560 1.350 . S
C557 C560 1.463 . S
C557 C562 1.350 . S
C557 N565 1.427 . S
C558 H549 0.930 . S
C558 C556 1.378 1_556 S
C558 C559 1.367 . S
C559 C558 1.367 . S
C559 C561 1.433 . S
C560 C556 1.350 . S
C560 C557 1.463 . S
C560 N564 1.427 . S
C561 H551 0.929 . S
C561 C559 1.433 . S
C561 N564 1.384 1_556 S
C562 H553 0.929 . S
C562 C554 1.378 . S
C562 C557 1.350 . S
C563 H550 0.929 . S
C563 C555 1.433 . S
C563 N565 1.384 . S
N564 C560 1.427 . S
N564 C561 1.384 1_554 S
N565 C557 1.427 . S
N565 C563 1.384 . S
H566 C572 0.930 . S
H567 C576 0.930 . S
H568 C581 0.929 . S
H569 C579 0.929 . S
H570 C574 0.929 . S
H571 C580 0.929 . S
C572 H566 0.930 . S
C572 C573 1.367 . S
C572 C580 1.378 . S
C573 C572 1.367 . S
C573 C581 1.433 . S
C574 H570 0.929 . S
C574 C576 1.378 . S
C574 C578 1.350 . S
C575 C578 1.463 . S
C575 C580 1.350 . S
C575 N583 1.427 . S
C576 H567 0.930 . S
C576 C574 1.378 . S
C576 C577 1.367 . S
C577 C576 1.367 . S
C577 C579 1.433 . S
C578 C574 1.350 . S
C578 C575 1.463 . S
C578 N582 1.427 . S
C579 H569 0.929 . S
C579 C577 1.433 . S
C579 N582 1.384 . S
C580 H571 0.929 . S
C580 C572 1.378 . S
C580 C575 1.350 . S
C581 H568 0.929 . S
C581 C573 1.433 . S
C581 N583 1.384 . S
N582 C578 1.427 . S
N582 C579 1.384 . S
N583 C575 1.427 . S
N583 C581 1.384 . S
H584 C590 0.930 . S
H585 C594 0.930 . S
H586 C599 0.929 . S
H587 C597 0.929 . S
H588 C592 0.929 . S
H589 C598 0.929 . S
C590 H584 0.930 . S
C590 C591 1.367 . S
C590 C598 1.378 . S
C591 C590 1.367 . S
C591 C599 1.433 . S
C592 H588 0.929 . S
C592 C594 1.378 . S
C592 C596 1.350 . S
C593 C596 1.463 . S
C593 C598 1.350 . S
C593 N601 1.427 . S
C594 H585 0.930 . S
C594 C592 1.378 . S
C594 C595 1.367 . S
C595 C594 1.367 . S
C595 C597 1.433 . S
C596 C592 1.350 . S
C596 C593 1.463 . S
C596 N600 1.427 . S
C597 H587 0.929 . S
C597 C595 1.433 . S
C597 N600 1.384 . S
C598 H589 0.929 . S
C598 C590 1.378 . S
C598 C593 1.350 . S
C599 H586 0.929 . S
C599 C591 1.433 . S
C599 N601 1.384 . S
N600 C596 1.427 . S
N600 C597 1.384 . S
N601 C593 1.427 . S
N601 C599 1.384 . S
H602 C608 0.930 . S
H603 C612 0.930 . S
H604 C617 0.929 . S
H605 C615 0.929 . S
H606 C610 0.929 . S
H607 C616 0.929 . S
C608 H602 0.930 . S
C608 C609 1.367 . S
C608 C616 1.378 . S
C609 C608 1.367 . S
C609 C617 1.433 . S
C610 H606 0.929 . S
C610 C612 1.378 . S
C610 C614 1.350 . S
C611 C614 1.463 . S
C611 C616 1.350 . S
C611 N619 1.427 . S
C612 H603 0.930 . S
C612 C610 1.378 . S
C612 C613 1.367 . S
C613 C612 1.367 . S
C613 C615 1.433 . S
C614 C610 1.350 . S
C614 C611 1.463 . S
C614 N618 1.427 . S
C615 H605 0.929 . S
C615 C613 1.433 . S
C615 N618 1.384 . S
C616 H607 0.929 . S
C616 C608 1.378 . S
C616 C611 1.350 . S
C617 H604 0.929 . S
C617 C609 1.433 . S
C617 N619 1.384 . S
N618 C614 1.427 . S
N618 C615 1.384 . S
N619 C611 1.427 . S
N619 C617 1.384 . S
H620 C626 0.930 . S
H621 C630 0.930 . S
H622 C635 0.929 . S
H623 C633 0.929 . S
H624 C628 0.929 . S
H625 C634 0.929 . S
C626 H620 0.930 . S
C626 C627 1.367 . S
C626 C634 1.378 . S
C627 C626 1.367 . S
C627 C635 1.433 . S
C628 H624 0.929 . S
C628 C630 1.378 1_556 S
C628 C632 1.350 . S
C629 C632 1.463 . S
C629 C634 1.350 . S
C629 N637 1.427 . S
C630 H621 0.930 . S
C630 C628 1.378 1_554 S
C630 C631 1.367 . S
C631 C630 1.367 . S
C631 C633 1.433 . S
C632 C628 1.350 . S
C632 C629 1.463 . S
C632 N636 1.427 . S
C633 H623 0.929 . S
C633 C631 1.433 . S
C633 N636 1.384 1_554 S
C634 H625 0.929 . S
C634 C626 1.378 . S
C634 C629 1.350 . S
C635 H622 0.929 . S
C635 C627 1.433 . S
C635 N637 1.384 . S
N636 C632 1.427 . S
N636 C633 1.384 1_556 S
N637 C629 1.427 . S
N637 C635 1.384 . S
H638 C644 0.930 . S
H639 C648 0.930 . S
H640 C653 0.929 . S
H641 C651 0.929 . S
H642 C646 0.929 . S
H643 C652 0.929 . S
C644 H638 0.930 . S
C644 C645 1.367 . S
C644 C652 1.378 1_556 S
C645 C644 1.367 . S
C645 C653 1.433 . S
C646 H642 0.929 . S
C646 C648 1.378 . S
C646 C650 1.350 . S
C647 C650 1.463 . S
C647 C652 1.350 . S
C647 N655 1.427 . S
C648 H639 0.930 . S
C648 C646 1.378 . S
C648 C649 1.367 . S
C649 C648 1.367 . S
C649 C651 1.433 . S
C650 C646 1.350 . S
C650 C647 1.463 . S
C650 N654 1.427 . S
C651 H641 0.929 . S
C651 C649 1.433 . S
C651 N654 1.384 . S
C652 H643 0.929 . S
C652 C644 1.378 1_554 S
C652 C647 1.350 . S
C653 H640 0.929 . S
C653 C645 1.433 . S
C653 N655 1.384 1_556 S
N654 C650 1.427 . S
N654 C651 1.384 . S
N655 C647 1.427 . S
N655 C653 1.384 1_554 S
H656 C662 0.930 . S
H657 C666 0.930 . S
H658 C671 0.929 . S
H659 C669 0.929 . S
H660 C664 0.929 . S
H661 C670 0.929 . S
C662 H656 0.930 . S
C662 C663 1.367 . S
C662 C670 1.378 . S
C663 C662 1.367 . S
C663 C671 1.433 . S
C664 H660 0.929 . S
C664 C666 1.378 . S
C664 C668 1.350 . S
C665 C668 1.463 . S
C665 C670 1.350 . S
C665 N673 1.427 . S
C666 H657 0.930 . S
C666 C664 1.378 . S
C666 C667 1.367 . S
C667 C666 1.367 . S
C667 C669 1.433 . S
C668 C664 1.350 . S
C668 C665 1.463 . S
C668 N672 1.427 . S
C669 H659 0.929 . S
C669 C667 1.433 . S
C669 N672 1.384 . S
C670 H661 0.929 . S
C670 C662 1.378 . S
C670 C665 1.350 . S
C671 H658 0.929 . S
C671 C663 1.433 . S
C671 N673 1.384 . S
N672 C668 1.427 . S
N672 C669 1.384 . S
N673 C665 1.427 . S
N673 C671 1.384 . S
H674 C680 0.930 . S
H675 C684 0.930 . S
H676 C689 0.929 . S
H677 C687 0.929 . S
H678 C682 0.929 . S
H679 C688 0.929 . S
C680 H674 0.930 . S
C680 C681 1.367 . S
C680 C688 1.378 . S
C681 C680 1.367 . S
C681 C689 1.433 . S
C682 H678 0.929 . S
C682 C684 1.378 1_554 S
C682 C686 1.350 . S
C683 C686 1.463 . S
C683 C688 1.350 . S
C683 N691 1.427 . S
C684 H675 0.930 . S
C684 C682 1.378 1_556 S
C684 C685 1.367 . S
C685 C684 1.367 . S
C685 C687 1.433 . S
C686 C682 1.350 . S
C686 C683 1.463 . S
C686 N690 1.427 . S
C687 H677 0.929 . S
C687 C685 1.433 . S
C687 N690 1.384 1_556 S
C688 H679 0.929 . S
C688 C680 1.378 . S
C688 C683 1.350 . S
C689 H676 0.929 . S
C689 C681 1.433 . S
C689 N691 1.384 . S
N690 C686 1.427 . S
N690 C687 1.384 1_554 S
N691 C683 1.427 . S
N691 C689 1.384 . S
H692 C698 0.930 . S
H693 C702 0.930 . S
H694 C707 0.929 . S
H695 C705 0.929 . S
H696 C700 0.929 . S
H697 C706 0.929 . S
C698 H692 0.930 . S
C698 C699 1.367 . S
C698 C706 1.378 1_554 S
C699 C698 1.367 . S
C699 C707 1.433 . S
C700 H696 0.929 . S
C700 C702 1.378 . S
C700 C704 1.350 . S
C701 C704 1.463 . S
C701 C706 1.350 . S
C701 N709 1.427 . S
C702 H693 0.930 . S
C702 C700 1.378 . S
C702 C703 1.367 . S
C703 C702 1.367 . S
C703 C705 1.433 . S
C704 C700 1.350 . S
C704 C701 1.463 . S
C704 N708 1.427 . S
C705 H695 0.929 . S
C705 C703 1.433 . S
C705 N708 1.384 . S
C706 H697 0.929 . S
C706 C698 1.378 1_556 S
C706 C701 1.350 . S
C707 H694 0.929 . S
C707 C699 1.433 . S
C707 N709 1.384 1_554 S
N708 C704 1.427 . S
N708 C705 1.384 . S
N709 C701 1.427 . S
N709 C707 1.384 1_556 S
H710 C716 0.930 . S
H711 C720 0.930 . S
H712 C725 0.929 . S
H713 C723 0.929 . S
H714 C718 0.929 . S
H715 C724 0.929 . S
C716 H710 0.930 . S
C716 C717 1.367 . S
C716 C724 1.378 . S
C717 C716 1.367 . S
C717 C725 1.433 . S
C718 H714 0.929 . S
C718 C720 1.378 . S
C718 C722 1.350 . S
C719 C722 1.463 . S
C719 C724 1.350 . S
C719 N727 1.427 . S
C720 H711 0.930 . S
C720 C718 1.378 . S
C720 C721 1.367 . S
C721 C720 1.367 . S
C721 C723 1.433 . S
C722 C718 1.350 . S
C722 C719 1.463 . S
C722 N726 1.427 . S
C723 H713 0.929 . S
C723 C721 1.433 . S
C723 N726 1.384 . S
C724 H715 0.929 . S
C724 C716 1.378 . S
C724 C719 1.350 . S
C725 H712 0.929 . S
C725 C717 1.433 . S
C725 N727 1.384 . S
N726 C722 1.427 . S
N726 C723 1.384 . S
N727 C719 1.427 . S
N727 C725 1.384 . S
H728 C734 0.930 . S
H729 C738 0.930 . S
H730 C743 0.929 . S
H731 C741 0.929 . S
H732 C736 0.929 . S
H733 C742 0.929 . S
C734 H728 0.930 . S
C734 C735 1.367 . S
C734 C742 1.378 . S
C735 C734 1.367 . S
C735 C743 1.433 . S
C736 H732 0.929 . S
C736 C738 1.378 . S
C736 C740 1.350 . S
C737 C740 1.463 . S
C737 C742 1.350 . S
C737 N745 1.427 . S
C738 H729 0.930 . S
C738 C736 1.378 . S
C738 C739 1.367 . S
C739 C738 1.367 . S
C739 C741 1.433 . S
C740 C736 1.350 . S
C740 C737 1.463 . S
C740 N744 1.427 . S
C741 H731 0.929 . S
C741 C739 1.433 . S
C741 N744 1.384 . S
C742 H733 0.929 . S
C742 C734 1.378 . S
C742 C737 1.350 . S
C743 H730 0.929 . S
C743 C735 1.433 . S
C743 N745 1.384 . S
N744 C740 1.427 . S
N744 C741 1.384 . S
N745 C737 1.427 . S
N745 C743 1.384 . S
H746 C752 0.930 . S
H747 C756 0.930 . S
H748 C761 0.929 . S
H749 C759 0.929 . S
H750 C754 0.929 . S
H751 C760 0.929 . S
C752 H746 0.930 . S
C752 C753 1.367 . S
C752 C760 1.378 . S
C753 C752 1.367 . S
C753 C761 1.433 . S
C754 H750 0.929 . S
C754 C756 1.378 . S
C754 C758 1.350 . S
C755 C758 1.463 . S
C755 C760 1.350 . S
C755 N763 1.427 . S
C756 H747 0.930 . S
C756 C754 1.378 . S
C756 C757 1.367 . S
C757 C756 1.367 . S
C757 C759 1.433 . S
C758 C754 1.350 . S
C758 C755 1.463 . S
C758 N762 1.427 . S
C759 H749 0.929 . S
C759 C757 1.433 . S
C759 N762 1.384 . S
C760 H751 0.929 . S
C760 C752 1.378 . S
C760 C755 1.350 . S
C761 H748 0.929 . S
C761 C753 1.433 . S
C761 N763 1.384 . S
N762 C758 1.427 . S
N762 C759 1.384 . S
N763 C755 1.427 . S
N763 C761 1.384 . S
H764 C770 0.930 . S
H765 C774 0.930 . S
H766 C779 0.929 . S
H767 C777 0.929 . S
H768 C772 0.929 . S
H769 C778 0.929 . S
C770 H764 0.930 . S
C770 C771 1.367 . S
C770 C778 1.378 . S
C771 C770 1.367 . S
C771 C779 1.433 . S
C772 H768 0.929 . S
C772 C774 1.378 1_554 S
C772 C776 1.350 . S
C773 C776 1.463 . S
C773 C778 1.350 . S
C773 N781 1.427 . S
C774 H765 0.930 . S
C774 C772 1.378 1_556 S
C774 C775 1.367 . S
C775 C774 1.367 . S
C775 C777 1.433 . S
C776 C772 1.350 . S
C776 C773 1.463 . S
C776 N780 1.427 . S
C777 H767 0.929 . S
C777 C775 1.433 . S
C777 N780 1.384 1_556 S
C778 H769 0.929 . S
C778 C770 1.378 . S
C778 C773 1.350 . S
C779 H766 0.929 . S
C779 C771 1.433 . S
C779 N781 1.384 . S
N780 C776 1.427 . S
N780 C777 1.384 1_554 S
N781 C773 1.427 . S
N781 C779 1.384 . S
H782 C788 0.930 . S
H783 C792 0.930 . S
H784 C797 0.929 . S
H785 C795 0.929 . S
H786 C790 0.929 . S
H787 C796 0.929 . S
C788 H782 0.930 . S
C788 C789 1.367 . S
C788 C796 1.378 1_554 S
C789 C788 1.367 . S
C789 C797 1.433 . S
C790 H786 0.929 . S
C790 C792 1.378 . S
C790 C794 1.350 . S
C791 C794 1.463 . S
C791 C796 1.350 . S
C791 N799 1.427 . S
C792 H783 0.930 . S
C792 C790 1.378 . S
C792 C793 1.367 . S
C793 C792 1.367 . S
C793 C795 1.433 . S
C794 C790 1.350 . S
C794 C791 1.463 . S
C794 N798 1.427 . S
C795 H785 0.929 . S
C795 C793 1.433 . S
C795 N798 1.384 . S
C796 H787 0.929 . S
C796 C788 1.378 1_556 S
C796 C791 1.350 . S
C797 H784 0.929 . S
C797 C789 1.433 . S
C797 N799 1.384 1_554 S
N798 C794 1.427 . S
N798 C795 1.384 . S
N799 C791 1.427 . S
N799 C797 1.384 1_556 S
H800 C806 0.930 . S
H801 C810 0.930 1_556 S
H802 C815 0.929 1_556 S
H803 C813 0.929 . S
H804 C808 0.929 1_556 S
H805 C814 0.929 . S
C806 H800 0.930 . S
C806 C807 1.367 . S
C806 C814 1.378 . S
C807 C806 1.367 . S
C807 C815 1.433 . S
C808 H804 0.929 1_554 S
C808 C810 1.378 . S
C808 C812 1.350 . S
C809 C812 1.463 . S
C809 C814 1.350 . S
C809 N817 1.427 . S
C810 H801 0.930 1_554 S
C810 C808 1.378 . S
C810 C811 1.367 . S
C811 C810 1.367 . S
C811 C813 1.433 . S
C812 C808 1.350 . S
C812 C809 1.463 . S
C812 N816 1.427 . S
C813 H803 0.929 . S
C813 C811 1.433 . S
C813 N816 1.384 . S
C814 H805 0.929 . S
C814 C806 1.378 . S
C814 C809 1.350 . S
C815 H802 0.929 1_554 S
C815 C807 1.433 . S
C815 N817 1.384 . S
N816 C812 1.427 . S
N816 C813 1.384 . S
N817 C809 1.427 . S
N817 C815 1.384 . S
H818 C824 0.930 . S
H819 C828 0.930 . S
H820 C833 0.929 . S
H821 C831 0.929 . S
H822 C826 0.929 . S
H823 C832 0.929 . S
C824 H818 0.930 . S
C824 C825 1.367 . S
C824 C832 1.378 . S
C825 C824 1.367 . S
C825 C833 1.433 . S
C826 H822 0.929 . S
C826 C828 1.378 . S
C826 C830 1.350 . S
C827 C830 1.463 . S
C827 C832 1.350 . S
C827 N835 1.427 . S
C828 H819 0.930 . S
C828 C826 1.378 . S
C828 C829 1.367 . S
C829 C828 1.367 . S
C829 C831 1.433 . S
C830 C826 1.350 . S
C830 C827 1.463 . S
C830 N834 1.427 . S
C831 H821 0.929 . S
C831 C829 1.433 . S
C831 N834 1.384 . S
C832 H823 0.929 . S
C832 C824 1.378 . S
C832 C827 1.350 . S
C833 H820 0.929 . S
C833 C825 1.433 . S
C833 N835 1.384 . S
N834 C830 1.427 . S
N834 C831 1.384 . S
N835 C827 1.427 . S
N835 C833 1.384 . S
H836 C842 0.930 . S
H837 C846 0.930 . S
H838 C851 0.929 . S
H839 C849 0.929 . S
H840 C844 0.929 . S
H841 C850 0.929 . S
C842 H836 0.930 . S
C842 C843 1.367 . S
C842 C850 1.378 . S
C843 C842 1.367 . S
C843 C851 1.433 . S
C844 H840 0.929 . S
C844 C846 1.378 . S
C844 C848 1.350 . S
C845 C848 1.463 . S
C845 C850 1.350 . S
C845 N853 1.427 . S
C846 H837 0.930 . S
C846 C844 1.378 . S
C846 C847 1.367 . S
C847 C846 1.367 . S
C847 C849 1.433 . S
C848 C844 1.350 . S
C848 C845 1.463 . S
C848 N852 1.427 . S
C849 H839 0.929 . S
C849 C847 1.433 . S
C849 N852 1.384 . S
C850 H841 0.929 . S
C850 C842 1.378 . S
C850 C845 1.350 . S
C851 H838 0.929 . S
C851 C843 1.433 . S
C851 N853 1.384 . S
N852 C848 1.427 . S
N852 C849 1.384 . S
N853 C845 1.427 . S
N853 C851 1.384 . S
H854 C860 0.930 . S
H855 C864 0.930 . S
H856 C869 0.929 . S
H857 C867 0.929 . S
H858 C862 0.929 . S
H859 C868 0.929 . S
C860 H854 0.930 . S
C860 C861 1.367 1_554 S
C860 C868 1.378 . S
C861 C860 1.367 1_556 S
C861 C869 1.433 . S
C862 H858 0.929 . S
C862 C864 1.378 . S
C862 C866 1.350 . S
C863 C866 1.463 1_655 S
C863 C868 1.350 1_556 S
C863 N871 1.427 . S
C864 H855 0.930 . S
C864 C862 1.378 . S
C864 C865 1.367 . S
C865 C864 1.367 . S
C865 C867 1.433 1_556 S
C866 C862 1.350 . S
C866 C863 1.463 1_455 S
C866 N870 1.427 1_556 S
C867 H857 0.929 . S
C867 C865 1.433 1_554 S
C867 N870 1.384 . S
C868 H859 0.929 . S
C868 C860 1.378 . S
C868 C863 1.350 1_554 S
C869 H856 0.929 . S
C869 C861 1.433 . S
C869 N871 1.384 . S
N870 C866 1.427 1_554 S
N870 C867 1.384 . S
N871 C863 1.427 . S
N871 C869 1.384 . S
H872 C878 0.930 . S
H873 C882 0.930 . S
H874 C887 0.929 . S
H875 C885 0.929 . S
H876 C880 0.929 . S
H877 C886 0.929 . S
C878 H872 0.930 . S
C878 C879 1.367 . S
C878 C886 1.378 . S
C879 C878 1.367 . S
C879 C887 1.433 . S
C880 H876 0.929 . S
C880 C882 1.378 . S
C880 C884 1.350 . S
C881 C884 1.463 . S
C881 C886 1.350 . S
C881 N889 1.427 . S
C882 H873 0.930 . S
C882 C880 1.378 . S
C882 C883 1.367 . S
C883 C882 1.367 . S
C883 C885 1.433 . S
C884 C880 1.350 . S
C884 C881 1.463 . S
C884 N888 1.427 . S
C885 H875 0.929 . S
C885 C883 1.433 . S
C885 N888 1.384 . S
C886 H877 0.929 . S
C886 C878 1.378 . S
C886 C881 1.350 . S
C887 H874 0.929 . S
C887 C879 1.433 . S
C887 N889 1.384 . S
N888 C884 1.427 . S
N888 C885 1.384 . S
N889 C881 1.427 . S
N889 C887 1.384 . S
H890 C896 0.930 1_556 S
H891 C900 0.930 . S
H892 C905 0.929 . S
H893 C903 0.929 1_556 S
H894 C898 0.929 . S
H895 C904 0.929 1_556 S
C896 H890 0.930 1_554 S
C896 C897 1.367 . S
C896 C904 1.378 . S
C897 C896 1.367 . S
C897 C905 1.433 . S
C898 H894 0.929 . S
C898 C900 1.378 . S
C898 C902 1.350 . S
C899 C902 1.463 1_455 S
C899 C904 1.350 . S
C899 N907 1.427 . S
C900 H891 0.930 . S
C900 C898 1.378 . S
C900 C901 1.367 . S
C901 C900 1.367 . S
C901 C903 1.433 . S
C902 C898 1.350 . S
C902 C899 1.463 1_655 S
C902 N906 1.427 . S
C903 H893 0.929 1_554 S
C903 C901 1.433 . S
C903 N906 1.384 . S
C904 H895 0.929 1_554 S
C904 C896 1.378 . S
C904 C899 1.350 . S
C905 H892 0.929 . S
C905 C897 1.433 . S
C905 N907 1.384 . S
N906 C902 1.427 . S
N906 C903 1.384 . S
N907 C899 1.427 . S
N907 C905 1.384 . S
H908 C914 0.930 . S
H909 C918 0.930 . S
H910 C923 0.929 . S
H911 C921 0.929 . S
H912 C916 0.929 . S
H913 C922 0.929 . S
C914 H908 0.930 . S
C914 C915 1.367 . S
C914 C922 1.378 . S
C915 C914 1.367 . S
C915 C923 1.433 . S
C916 H912 0.929 . S
C916 C918 1.378 . S
C916 C920 1.350 . S
C917 C920 1.463 . S
C917 C922 1.350 . S
C917 N925 1.427 . S
C918 H909 0.930 . S
C918 C916 1.378 . S
C918 C919 1.367 . S
C919 C918 1.367 . S
C919 C921 1.433 . S
C920 C916 1.350 . S
C920 C917 1.463 . S
C920 N924 1.427 . S
C921 H911 0.929 . S
C921 C919 1.433 . S
C921 N924 1.384 . S
C922 H913 0.929 . S
C922 C914 1.378 . S
C922 C917 1.350 . S
C923 H910 0.929 . S
C923 C915 1.433 . S
C923 N925 1.384 . S
N924 C920 1.427 . S
N924 C921 1.384 . S
N925 C917 1.427 . S
N925 C923 1.384 . S
H926 C932 0.930 . S
H927 C936 0.930 . S
H928 C941 0.929 . S
H929 C939 0.929 . S
H930 C934 0.929 . S
H931 C940 0.929 . S
C932 H926 0.930 . S
C932 C933 1.367 . S
C932 C940 1.378 . S
C933 C932 1.367 . S
C933 C941 1.433 . S
C934 H930 0.929 . S
C934 C936 1.378 . S
C934 C938 1.350 . S
C935 C938 1.463 . S
C935 C940 1.350 . S
C935 N943 1.427 . S
C936 H927 0.930 . S
C936 C934 1.378 . S
C936 C937 1.367 . S
C937 C936 1.367 . S
C937 C939 1.433 . S
C938 C934 1.350 . S
C938 C935 1.463 . S
C938 N942 1.427 . S
C939 H929 0.929 . S
C939 C937 1.433 . S
C939 N942 1.384 . S
C940 H931 0.929 . S
C940 C932 1.378 . S
C940 C935 1.350 . S
C941 H928 0.929 . S
C941 C933 1.433 . S
C941 N943 1.384 . S
N942 C938 1.427 . S
N942 C939 1.384 . S
N943 C935 1.427 . S
N943 C941 1.384 . S
H944 C950 0.930 . S
H945 C954 0.930 1_554 S
H946 C959 0.929 1_554 S
H947 C957 0.929 . S
H948 C952 0.929 1_554 S
H949 C958 0.929 . S
C950 H944 0.930 . S
C950 C951 1.367 . S
C950 C958 1.378 . S
C951 C950 1.367 . S
C951 C959 1.433 . S
C952 H948 0.929 1_556 S
C952 C954 1.378 . S
C952 C956 1.350 . S
C953 C956 1.463 . S
C953 C958 1.350 . S
C953 N961 1.427 . S
C954 H945 0.930 1_556 S
C954 C952 1.378 . S
C954 C955 1.367 . S
C955 C954 1.367 . S
C955 C957 1.433 . S
C956 C952 1.350 . S
C956 C953 1.463 . S
C956 N960 1.427 . S
C957 H947 0.929 . S
C957 C955 1.433 . S
C957 N960 1.384 . S
C958 H949 0.929 . S
C958 C950 1.378 . S
C958 C953 1.350 . S
C959 H946 0.929 1_556 S
C959 C951 1.433 . S
C959 N961 1.384 . S
N960 C956 1.427 . S
N960 C957 1.384 . S
N961 C953 1.427 . S
N961 C959 1.384 . S
H962 C968 0.930 . S
H963 C972 0.930 . S
H964 C977 0.929 . S
H965 C975 0.929 . S
H966 C970 0.929 . S
H967 C976 0.929 . S
C968 H962 0.930 . S
C968 C969 1.367 . S
C968 C976 1.378 . S
C969 C968 1.367 . S
C969 C977 1.433 . S
C970 H966 0.929 . S
C970 C972 1.378 . S
C970 C974 1.350 . S
C971 C974 1.463 . S
C971 C976 1.350 . S
C971 N979 1.427 . S
C972 H963 0.930 . S
C972 C970 1.378 . S
C972 C973 1.367 . S
C973 C972 1.367 . S
C973 C975 1.433 . S
C974 C970 1.350 . S
C974 C971 1.463 . S
C974 N978 1.427 . S
C975 H965 0.929 . S
C975 C973 1.433 . S
C975 N978 1.384 . S
C976 H967 0.929 . S
C976 C968 1.378 . S
C976 C971 1.350 . S
C977 H964 0.929 . S
C977 C969 1.433 . S
C977 N979 1.384 . S
N978 C974 1.427 . S
N978 C975 1.384 . S
N979 C971 1.427 . S
N979 C977 1.384 . S
H980 C986 0.930 . S
H981 C990 0.930 . S
H982 C995 0.929 . S
H983 C993 0.929 . S
H984 C988 0.929 . S
H985 C994 0.929 . S
C986 H980 0.930 . S
C986 C987 1.367 . S
C986 C994 1.378 . S
C987 C986 1.367 . S
C987 C995 1.433 . S
C988 H984 0.929 . S
C988 C990 1.378 . S
C988 C992 1.350 . S
C989 C992 1.463 . S
C989 C994 1.350 . S
C989 N997 1.427 . S
C990 H981 0.930 . S
C990 C988 1.378 . S
C990 C991 1.367 . S
C991 C990 1.367 . S
C991 C993 1.433 . S
C992 C988 1.350 . S
C992 C989 1.463 . S
C992 N996 1.427 . S
C993 H983 0.929 . S
C993 C991 1.433 . S
C993 N996 1.384 . S
C994 H985 0.929 . S
C994 C986 1.378 . S
C994 C989 1.350 . S
C995 H982 0.929 . S
C995 C987 1.433 . S
C995 N997 1.384 . S
N996 C992 1.427 . S
N996 C993 1.384 . S
N997 C989 1.427 . S
N997 C995 1.384 . S
H998 C1004 0.930 . S
H999 C1008 0.930 . S
H1000 C1013 0.929 . S
H1001 C1011 0.929 . S
H1002 C1006 0.929 . S
H1003 C1012 0.929 . S
C1004 H998 0.930 . S
C1004 C1005 1.367 . S
C1004 C1012 1.378 . S
C1005 C1004 1.367 . S
C1005 C1013 1.433 . S
C1006 H1002 0.929 . S
C1006 C1008 1.378 . S
C1006 C1010 1.350 . S
C1007 C1010 1.463 . S
C1007 C1012 1.350 . S
C1007 N1015 1.427 . S
C1008 H999 0.930 . S
C1008 C1006 1.378 . S
C1008 C1009 1.367 . S
C1009 C1008 1.367 . S
C1009 C1011 1.433 . S
C1010 C1006 1.350 . S
C1010 C1007 1.463 . S
C1010 N1014 1.427 . S
C1011 H1001 0.929 . S
C1011 C1009 1.433 . S
C1011 N1014 1.384 . S
C1012 H1003 0.929 . S
C1012 C1004 1.378 . S
C1012 C1007 1.350 . S
C1013 H1000 0.929 . S
C1013 C1005 1.433 . S
C1013 N1015 1.384 . S
N1014 C1010 1.427 . S
N1014 C1011 1.384 . S
N1015 C1007 1.427 . S
N1015 C1013 1.384 . S
H1016 C1022 0.930 . S
H1017 C1026 0.930 . S
H1018 C1031 0.929 . S
H1019 C1029 0.929 . S
H1020 C1024 0.929 . S
H1021 C1030 0.929 . S
C1022 H1016 0.930 . S
C1022 C1023 1.367 . S
C1022 C1030 1.378 1_655 S
C1023 C1022 1.367 . S
C1023 C1031 1.433 . S
C1024 H1020 0.929 . S
C1024 C1026 1.378 . S
C1024 C1028 1.350 . S
C1025 C1028 1.463 . S
C1025 C1030 1.350 . S
C1025 N1033 1.427 . S
C1026 H1017 0.930 . S
C1026 C1024 1.378 . S
C1026 C1027 1.367 . S
C1027 C1026 1.367 . S
C1027 C1029 1.433 . S
C1028 C1024 1.350 . S
C1028 C1025 1.463 . S
C1028 N1032 1.427 . S
C1029 H1019 0.929 . S
C1029 C1027 1.433 . S
C1029 N1032 1.384 . S
C1030 H1021 0.929 . S
C1030 C1022 1.378 1_455 S
C1030 C1025 1.350 . S
C1031 H1018 0.929 . S
C1031 C1023 1.433 . S
C1031 N1033 1.384 1_655 S
N1032 C1028 1.427 . S
N1032 C1029 1.384 . S
N1033 C1025 1.427 . S
N1033 C1031 1.384 1_455 S
H1034 C1040 0.930 . S
H1035 C1044 0.930 . S
H1036 C1049 0.929 . S
H1037 C1047 0.929 . S
H1038 C1042 0.929 . S
H1039 C1048 0.929 . S
C1040 H1034 0.930 . S
C1040 C1041 1.367 . S
C1040 C1048 1.378 . S
C1041 C1040 1.367 . S
C1041 C1049 1.433 . S
C1042 H1038 0.929 . S
C1042 C1044 1.378 . S
C1042 C1046 1.350 . S
C1043 C1046 1.463 . S
C1043 C1048 1.350 . S
C1043 N1051 1.427 . S
C1044 H1035 0.930 . S
C1044 C1042 1.378 . S
C1044 C1045 1.367 . S
C1045 C1044 1.367 . S
C1045 C1047 1.433 . S
C1046 C1042 1.350 . S
C1046 C1043 1.463 . S
C1046 N1050 1.427 . S
C1047 H1037 0.929 . S
C1047 C1045 1.433 . S
C1047 N1050 1.384 . S
C1048 H1039 0.929 . S
C1048 C1040 1.378 . S
C1048 C1043 1.350 . S
C1049 H1036 0.929 . S
C1049 C1041 1.433 . S
C1049 N1051 1.384 . S
N1050 C1046 1.427 . S
N1050 C1047 1.384 . S
N1051 C1043 1.427 . S
N1051 C1049 1.384 . S
H1052 C1058 0.930 . S
H1053 C1062 0.930 . S
H1054 C1067 0.929 . S
H1055 C1065 0.929 . S
H1056 C1060 0.929 . S
H1057 C1066 0.929 . S
C1058 H1052 0.930 . S
C1058 C1059 1.367 . S
C1058 C1066 1.378 . S
C1059 C1058 1.367 . S
C1059 C1067 1.433 . S
C1060 H1056 0.929 . S
C1060 C1062 1.378 . S
C1060 C1064 1.350 . S
C1061 C1064 1.463 . S
C1061 C1066 1.350 . S
C1061 N1069 1.427 . S
C1062 H1053 0.930 . S
C1062 C1060 1.378 . S
C1062 C1063 1.367 . S
C1063 C1062 1.367 . S
C1063 C1065 1.433 . S
C1064 C1060 1.350 . S
C1064 C1061 1.463 . S
C1064 N1068 1.427 . S
C1065 H1055 0.929 . S
C1065 C1063 1.433 . S
C1065 N1068 1.384 . S
C1066 H1057 0.929 . S
C1066 C1058 1.378 . S
C1066 C1061 1.350 . S
C1067 H1054 0.929 . S
C1067 C1059 1.433 . S
C1067 N1069 1.384 . S
N1068 C1064 1.427 . S
N1068 C1065 1.384 . S
N1069 C1061 1.427 . S
N1069 C1067 1.384 . S
H1070 C1076 0.930 . S
H1071 C1080 0.930 . S
H1072 C1085 0.929 . S
H1073 C1083 0.929 . S
H1074 C1078 0.929 . S
H1075 C1084 0.929 . S
C1076 H1070 0.930 . S
C1076 C1077 1.367 . S
C1076 C1084 1.378 1_455 S
C1077 C1076 1.367 . S
C1077 C1085 1.433 . S
C1078 H1074 0.929 . S
C1078 C1080 1.378 . S
C1078 C1082 1.350 . S
C1079 C1082 1.463 . S
C1079 C1084 1.350 . S
C1079 N1087 1.427 . S
C1080 H1071 0.930 . S
C1080 C1078 1.378 . S
C1080 C1081 1.367 . S
C1081 C1080 1.367 . S
C1081 C1083 1.433 . S
C1082 C1078 1.350 . S
C1082 C1079 1.463 . S
C1082 N1086 1.427 . S
C1083 H1073 0.929 . S
C1083 C1081 1.433 . S
C1083 N1086 1.384 . S
C1084 H1075 0.929 . S
C1084 C1076 1.378 1_655 S
C1084 C1079 1.350 . S
C1085 H1072 0.929 . S
C1085 C1077 1.433 . S
C1085 N1087 1.384 1_455 S
N1086 C1082 1.427 . S
N1086 C1083 1.384 . S
N1087 C1079 1.427 . S
N1087 C1085 1.384 1_655 S
H1088 C1094 0.930 . S
H1089 C1098 0.930 . S
H1090 C1103 0.929 . S
H1091 C1101 0.929 . S
H1092 C1096 0.929 . S
H1093 C1102 0.929 . S
C1094 H1088 0.930 . S
C1094 C1095 1.367 . S
C1094 C1102 1.378 . S
C1095 C1094 1.367 . S
C1095 C1103 1.433 1_554 S
C1096 H1092 0.929 . S
C1096 C1098 1.378 . S
C1096 C1100 1.350 . S
C1097 C1100 1.463 1_554 S
C1097 C1102 1.350 . S
C1097 N1105 1.427 1_554 S
C1098 H1089 0.930 . S
C1098 C1096 1.378 . S
C1098 C1099 1.367 . S
C1099 C1098 1.367 . S
C1099 C1101 1.433 1_556 S
C1100 C1096 1.350 . S
C1100 C1097 1.463 1_556 S
C1100 N1104 1.427 1_556 S
C1101 H1091 0.929 . S
C1101 C1099 1.433 1_554 S
C1101 N1104 1.384 . S
C1102 H1093 0.929 . S
C1102 C1094 1.378 . S
C1102 C1097 1.350 . S
C1103 H1090 0.929 . S
C1103 C1095 1.433 1_556 S
C1103 N1105 1.384 . S
N1104 C1100 1.427 1_554 S
N1104 C1101 1.384 . S
N1105 C1097 1.427 1_556 S
N1105 C1103 1.384 . S
H1106 C1112 0.930 . S
H1107 C1116 0.930 . S
H1108 C1121 0.929 . S
H1109 C1119 0.929 . S
H1110 C1114 0.929 . S
H1111 C1120 0.929 . S
C1112 H1106 0.930 . S
C1112 C1113 1.367 . S
C1112 C1120 1.378 . S
C1113 C1112 1.367 . S
C1113 C1121 1.433 . S
C1114 H1110 0.929 . S
C1114 C1116 1.378 . S
C1114 C1118 1.350 . S
C1115 C1118 1.463 . S
C1115 C1120 1.350 . S
C1115 N1123 1.427 . S
C1116 H1107 0.930 . S
C1116 C1114 1.378 . S
C1116 C1117 1.367 . S
C1117 C1116 1.367 . S
C1117 C1119 1.433 . S
C1118 C1114 1.350 . S
C1118 C1115 1.463 . S
C1118 N1122 1.427 . S
C1119 H1109 0.929 . S
C1119 C1117 1.433 . S
C1119 N1122 1.384 . S
C1120 H1111 0.929 . S
C1120 C1112 1.378 . S
C1120 C1115 1.350 . S
C1121 H1108 0.929 . S
C1121 C1113 1.433 . S
C1121 N1123 1.384 . S
N1122 C1118 1.427 . S
N1122 C1119 1.384 . S
N1123 C1115 1.427 . S
N1123 C1121 1.384 . S
H1124 C1130 0.930 . S
H1125 C1134 0.930 . S
H1126 C1139 0.929 . S
H1127 C1137 0.929 . S
H1128 C1132 0.929 . S
H1129 C1138 0.929 . S
C1130 H1124 0.930 . S
C1130 C1131 1.367 . S
C1130 C1138 1.378 . S
C1131 C1130 1.367 . S
C1131 C1139 1.433 . S
C1132 H1128 0.929 . S
C1132 C1134 1.378 . S
C1132 C1136 1.350 . S
C1133 C1136 1.463 . S
C1133 C1138 1.350 . S
C1133 N1141 1.427 . S
C1134 H1125 0.930 . S
C1134 C1132 1.378 . S
C1134 C1135 1.367 . S
C1135 C1134 1.367 . S
C1135 C1137 1.433 . S
C1136 C1132 1.350 . S
C1136 C1133 1.463 . S
C1136 N1140 1.427 . S
C1137 H1127 0.929 . S
C1137 C1135 1.433 . S
C1137 N1140 1.384 . S
C1138 H1129 0.929 . S
C1138 C1130 1.378 . S
C1138 C1133 1.350 . S
C1139 H1126 0.929 . S
C1139 C1131 1.433 . S
C1139 N1141 1.384 . S
N1140 C1136 1.427 . S
N1140 C1137 1.384 . S
N1141 C1133 1.427 . S
N1141 C1139 1.384 . S
H1142 C1148 0.930 . S
H1143 C1152 0.930 . S
H1144 C1157 0.929 . S
H1145 C1155 0.929 . S
H1146 C1150 0.929 . S
H1147 C1156 0.929 . S
C1148 H1142 0.930 . S
C1148 C1149 1.367 . S
C1148 C1156 1.378 . S
C1149 C1148 1.367 . S
C1149 C1157 1.433 . S
C1150 H1146 0.929 . S
C1150 C1152 1.378 . S
C1150 C1154 1.350 . S
C1151 C1154 1.463 . S
C1151 C1156 1.350 . S
C1151 N1159 1.427 . S
C1152 H1143 0.930 . S
C1152 C1150 1.378 . S
C1152 C1153 1.367 . S
C1153 C1152 1.367 . S
C1153 C1155 1.433 . S
C1154 C1150 1.350 . S
C1154 C1151 1.463 . S
C1154 N1158 1.427 . S
C1155 H1145 0.929 . S
C1155 C1153 1.433 . S
C1155 N1158 1.384 . S
C1156 H1147 0.929 . S
C1156 C1148 1.378 . S
C1156 C1151 1.350 . S
C1157 H1144 0.929 . S
C1157 C1149 1.433 . S
C1157 N1159 1.384 . S
N1158 C1154 1.427 . S
N1158 C1155 1.384 . S
N1159 C1151 1.427 . S
N1159 C1157 1.384 . S
H1160 C1166 0.930 . S
H1161 C1170 0.930 . S
H1162 C1175 0.929 . S
H1163 C1173 0.929 . S
H1164 C1168 0.929 . S
H1165 C1174 0.929 . S
C1166 H1160 0.930 . S
C1166 C1167 1.367 . S
C1166 C1174 1.378 . S
C1167 C1166 1.367 . S
C1167 C1175 1.433 1_554 S
C1168 H1164 0.929 . S
C1168 C1170 1.378 . S
C1168 C1172 1.350 . S
C1169 C1172 1.463 1_554 S
C1169 C1174 1.350 . S
C1169 N1177 1.427 1_554 S
C1170 H1161 0.930 . S
C1170 C1168 1.378 . S
C1170 C1171 1.367 . S
C1171 C1170 1.367 . S
C1171 C1173 1.433 1_556 S
C1172 C1168 1.350 . S
C1172 C1169 1.463 1_556 S
C1172 N1176 1.427 1_556 S
C1173 H1163 0.929 . S
C1173 C1171 1.433 1_554 S
C1173 N1176 1.384 . S
C1174 H1165 0.929 . S
C1174 C1166 1.378 . S
C1174 C1169 1.350 . S
C1175 H1162 0.929 . S
C1175 C1167 1.433 1_556 S
C1175 N1177 1.384 . S
N1176 C1172 1.427 1_554 S
N1176 C1173 1.384 . S
N1177 C1169 1.427 1_556 S
N1177 C1175 1.384 . S
H1178 C1184 0.930 . S
H1179 C1188 0.930 . S
H1180 C1193 0.929 . S
H1181 C1191 0.929 . S
H1182 C1186 0.929 . S
H1183 C1192 0.929 . S
C1184 H1178 0.930 . S
C1184 C1185 1.367 . S
C1184 C1192 1.378 . S
C1185 C1184 1.367 . S
C1185 C1193 1.433 . S
C1186 H1182 0.929 . S
C1186 C1188 1.378 . S
C1186 C1190 1.350 . S
C1187 C1190 1.463 . S
C1187 C1192 1.350 . S
C1187 N1195 1.427 . S
C1188 H1179 0.930 . S
C1188 C1186 1.378 . S
C1188 C1189 1.367 . S
C1189 C1188 1.367 . S
C1189 C1191 1.433 . S
C1190 C1186 1.350 . S
C1190 C1187 1.463 . S
C1190 N1194 1.427 . S
C1191 H1181 0.929 . S
C1191 C1189 1.433 . S
C1191 N1194 1.384 . S
C1192 H1183 0.929 . S
C1192 C1184 1.378 . S
C1192 C1187 1.350 . S
C1193 H1180 0.929 . S
C1193 C1185 1.433 . S
C1193 N1195 1.384 . S
N1194 C1190 1.427 . S
N1194 C1191 1.384 . S
N1195 C1187 1.427 . S
N1195 C1193 1.384 . S
H1196 C1202 0.930 . S
H1197 C1206 0.930 . S
H1198 C1211 0.929 . S
H1199 C1209 0.929 . S
H1200 C1204 0.929 . S
H1201 C1210 0.929 . S
C1202 H1196 0.930 . S
C1202 C1203 1.367 . S
C1202 C1210 1.378 . S
C1203 C1202 1.367 . S
C1203 C1211 1.433 . S
C1204 H1200 0.929 . S
C1204 C1206 1.378 . S
C1204 C1208 1.350 . S
C1205 C1208 1.463 . S
C1205 C1210 1.350 . S
C1205 N1213 1.427 . S
C1206 H1197 0.930 . S
C1206 C1204 1.378 . S
C1206 C1207 1.367 . S
C1207 C1206 1.367 . S
C1207 C1209 1.433 . S
C1208 C1204 1.350 . S
C1208 C1205 1.463 . S
C1208 N1212 1.427 . S
C1209 H1199 0.929 . S
C1209 C1207 1.433 . S
C1209 N1212 1.384 . S
C1210 H1201 0.929 . S
C1210 C1202 1.378 . S
C1210 C1205 1.350 . S
C1211 H1198 0.929 . S
C1211 C1203 1.433 . S
C1211 N1213 1.384 . S
N1212 C1208 1.427 . S
N1212 C1209 1.384 . S
N1213 C1205 1.427 . S
N1213 C1211 1.384 . S
H1214 C1220 0.930 . S
H1215 C1224 0.930 . S
H1216 C1229 0.929 . S
H1217 C1227 0.929 . S
H1218 C1222 0.929 . S
H1219 C1228 0.929 . S
C1220 H1214 0.930 . S
C1220 C1221 1.367 . S
C1220 C1228 1.378 . S
C1221 C1220 1.367 . S
C1221 C1229 1.433 . S
C1222 H1218 0.929 . S
C1222 C1224 1.378 . S
C1222 C1226 1.350 . S
C1223 C1226 1.463 . S
C1223 C1228 1.350 . S
C1223 N1231 1.427 . S
C1224 H1215 0.930 . S
C1224 C1222 1.378 . S
C1224 C1225 1.367 . S
C1225 C1224 1.367 . S
C1225 C1227 1.433 . S
C1226 C1222 1.350 . S
C1226 C1223 1.463 . S
C1226 N1230 1.427 . S
C1227 H1217 0.929 . S
C1227 C1225 1.433 . S
C1227 N1230 1.384 . S
C1228 H1219 0.929 . S
C1228 C1220 1.378 . S
C1228 C1223 1.350 . S
C1229 H1216 0.929 . S
C1229 C1221 1.433 . S
C1229 N1231 1.384 . S
N1230 C1226 1.427 . S
N1230 C1227 1.384 . S
N1231 C1223 1.427 . S
N1231 C1229 1.384 . S
H1232 C1238 0.930 . S
H1233 C1242 0.930 . S
H1234 C1247 0.929 . S
H1235 C1245 0.929 . S
H1236 C1240 0.929 . S
H1237 C1246 0.929 . S
C1238 H1232 0.930 . S
C1238 C1239 1.367 . S
C1238 C1246 1.378 . S
C1239 C1238 1.367 . S
C1239 C1247 1.433 . S
C1240 H1236 0.929 . S
C1240 C1242 1.378 . S
C1240 C1244 1.350 . S
C1241 C1244 1.463 1_565 S
C1241 C1246 1.350 . S
C1241 N1249 1.427 . S
C1242 H1233 0.930 . S
C1242 C1240 1.378 . S
C1242 C1243 1.367 . S
C1243 C1242 1.367 . S
C1243 C1245 1.433 . S
C1244 C1240 1.350 . S
C1244 C1241 1.463 1_545 S
C1244 N1248 1.427 . S
C1245 H1235 0.929 . S
C1245 C1243 1.433 . S
C1245 N1248 1.384 . S
C1246 H1237 0.929 . S
C1246 C1238 1.378 . S
C1246 C1241 1.350 . S
C1247 H1234 0.929 . S
C1247 C1239 1.433 . S
C1247 N1249 1.384 . S
N1248 C1244 1.427 . S
N1248 C1245 1.384 . S
N1249 C1241 1.427 . S
N1249 C1247 1.384 . S
H1250 C1256 0.930 . S
H1251 C1260 0.930 . S
H1252 C1265 0.929 . S
H1253 C1263 0.929 . S
H1254 C1258 0.929 . S
H1255 C1264 0.929 . S
C1256 H1250 0.930 . S
C1256 C1257 1.367 . S
C1256 C1264 1.378 . S
C1257 C1256 1.367 . S
C1257 C1265 1.433 . S
C1258 H1254 0.929 . S
C1258 C1260 1.378 . S
C1258 C1262 1.350 . S
C1259 C1262 1.463 . S
C1259 C1264 1.350 . S
C1259 N1267 1.427 . S
C1260 H1251 0.930 . S
C1260 C1258 1.378 . S
C1260 C1261 1.367 . S
C1261 C1260 1.367 . S
C1261 C1263 1.433 . S
C1262 C1258 1.350 . S
C1262 C1259 1.463 . S
C1262 N1266 1.427 . S
C1263 H1253 0.929 . S
C1263 C1261 1.433 . S
C1263 N1266 1.384 . S
C1264 H1255 0.929 . S
C1264 C1256 1.378 . S
C1264 C1259 1.350 . S
C1265 H1252 0.929 . S
C1265 C1257 1.433 . S
C1265 N1267 1.384 . S
N1266 C1262 1.427 . S
N1266 C1263 1.384 . S
N1267 C1259 1.427 . S
N1267 C1265 1.384 . S
H1268 C1274 0.930 . S
H1269 C1278 0.930 . S
H1270 C1283 0.929 . S
H1271 C1281 0.929 . S
H1272 C1276 0.929 . S
H1273 C1282 0.929 . S
C1274 H1268 0.930 . S
C1274 C1275 1.367 1_556 S
C1274 C1282 1.378 . S
C1275 C1274 1.367 1_554 S
C1275 C1283 1.433 . S
C1276 H1272 0.929 . S
C1276 C1278 1.378 . S
C1276 C1280 1.350 1_554 S
C1277 C1280 1.463 1_564 S
C1277 C1282 1.350 1_554 S
C1277 N1285 1.427 . S
C1278 H1269 0.930 . S
C1278 C1276 1.378 . S
C1278 C1279 1.367 1_554 S
C1279 C1278 1.367 1_556 S
C1279 C1281 1.433 . S
C1280 C1276 1.350 1_556 S
C1280 C1277 1.463 1_546 S
C1280 N1284 1.427 . S
C1281 H1271 0.929 . S
C1281 C1279 1.433 . S
C1281 N1284 1.384 . S
C1282 H1273 0.929 . S
C1282 C1274 1.378 . S
C1282 C1277 1.350 1_556 S
C1283 H1270 0.929 . S
C1283 C1275 1.433 . S
C1283 N1285 1.384 . S
N1284 C1280 1.427 . S
N1284 C1281 1.384 . S
N1285 C1277 1.427 . S
N1285 C1283 1.384 . S
H1286 C1292 0.930 . S
H1287 C1296 0.930 . S
H1288 C1301 0.929 . S
H1289 C1299 0.929 . S
H1290 C1294 0.929 . S
H1291 C1300 0.929 . S
C1292 H1286 0.930 . S
C1292 C1293 1.367 . S
C1292 C1300 1.378 . S
C1293 C1292 1.367 . S
C1293 C1301 1.433 . S
C1294 H1290 0.929 . S
C1294 C1296 1.378 . S
C1294 C1298 1.350 . S
C1295 C1298 1.463 . S
C1295 C1300 1.350 . S
C1295 N1303 1.427 . S
C1296 H1287 0.930 . S
C1296 C1294 1.378 . S
C1296 C1297 1.367 . S
C1297 C1296 1.367 . S
C1297 C1299 1.433 . S
C1298 C1294 1.350 . S
C1298 C1295 1.463 . S
C1298 N1302 1.427 . S
C1299 H1289 0.929 . S
C1299 C1297 1.433 . S
C1299 N1302 1.384 . S
C1300 H1291 0.929 . S
C1300 C1292 1.378 . S
C1300 C1295 1.350 . S
C1301 H1288 0.929 . S
C1301 C1293 1.433 . S
C1301 N1303 1.384 . S
N1302 C1298 1.427 . S
N1302 C1299 1.384 . S
N1303 C1295 1.427 . S
N1303 C1301 1.384 . S
H1304 C1310 0.930 . S
H1305 C1314 0.930 . S
H1306 C1319 0.929 . S
H1307 C1317 0.929 . S
H1308 C1312 0.929 . S
H1309 C1318 0.929 . S
C1310 H1304 0.930 . S
C1310 C1311 1.367 . S
C1310 C1318 1.378 . S
C1311 C1310 1.367 . S
C1311 C1319 1.433 . S
C1312 H1308 0.929 . S
C1312 C1314 1.378 . S
C1312 C1316 1.350 . S
C1313 C1316 1.463 1_565 S
C1313 C1318 1.350 . S
C1313 N1321 1.427 . S
C1314 H1305 0.930 . S
C1314 C1312 1.378 . S
C1314 C1315 1.367 . S
C1315 C1314 1.367 . S
C1315 C1317 1.433 . S
C1316 C1312 1.350 . S
C1316 C1313 1.463 1_545 S
C1316 N1320 1.427 . S
C1317 H1307 0.929 . S
C1317 C1315 1.433 . S
C1317 N1320 1.384 . S
C1318 H1309 0.929 . S
C1318 C1310 1.378 . S
C1318 C1313 1.350 . S
C1319 H1306 0.929 . S
C1319 C1311 1.433 . S
C1319 N1321 1.384 . S
N1320 C1316 1.427 . S
N1320 C1317 1.384 . S
N1321 C1313 1.427 . S
N1321 C1319 1.384 . S
H1322 C1328 0.930 . S
H1323 C1332 0.930 . S
H1324 C1337 0.929 . S
H1325 C1335 0.929 . S
H1326 C1330 0.929 . S
H1327 C1336 0.929 . S
C1328 H1322 0.930 . S
C1328 C1329 1.367 . S
C1328 C1336 1.378 . S
C1329 C1328 1.367 . S
C1329 C1337 1.433 . S
C1330 H1326 0.929 . S
C1330 C1332 1.378 . S
C1330 C1334 1.350 . S
C1331 C1334 1.463 . S
C1331 C1336 1.350 . S
C1331 N1339 1.427 . S
C1332 H1323 0.930 . S
C1332 C1330 1.378 . S
C1332 C1333 1.367 . S
C1333 C1332 1.367 . S
C1333 C1335 1.433 . S
C1334 C1330 1.350 . S
C1334 C1331 1.463 . S
C1334 N1338 1.427 . S
C1335 H1325 0.929 . S
C1335 C1333 1.433 . S
C1335 N1338 1.384 . S
C1336 H1327 0.929 . S
C1336 C1328 1.378 . S
C1336 C1331 1.350 . S
C1337 H1324 0.929 . S
C1337 C1329 1.433 . S
C1337 N1339 1.384 . S
N1338 C1334 1.427 . S
N1338 C1335 1.384 . S
N1339 C1331 1.427 . S
N1339 C1337 1.384 . S
H1340 C1346 0.930 . S
H1341 C1350 0.930 . S
H1342 C1355 0.929 1_554 S
H1343 C1353 0.926 1_556 S
H1344 C1348 0.929 . S
H1345 C1354 0.929 . S
C1346 H1340 0.930 . S
C1346 C1347 1.367 . S
C1346 C1354 1.378 . S
C1347 C1346 1.367 . S
C1347 C1355 1.433 . S
C1348 H1344 0.929 . S
C1348 C1350 1.378 . S
C1348 C1352 1.350 . S
C1349 C1352 1.463 1_546 S
C1349 C1354 1.350 . S
C1349 N1357 1.427 1_556 S
C1350 H1341 0.930 . S
C1350 C1348 1.378 . S
C1350 C1351 1.367 . S
C1351 C1350 1.367 . S
C1351 C1353 1.438 . S
C1352 C1348 1.350 . S
C1352 C1349 1.463 1_564 S
C1352 N1356 1.427 1_554 S
C1353 H1343 0.926 1_554 S
C1353 C1351 1.438 . S
C1353 N1356 1.382 1_554 S
C1354 H1345 0.929 . S
C1354 C1346 1.378 . S
C1354 C1349 1.350 . S
C1355 H1342 0.929 1_556 S
C1355 C1347 1.433 . S
C1355 N1357 1.384 1_556 S
N1356 C1352 1.427 1_556 S
N1356 C1353 1.382 1_556 S
N1357 C1349 1.427 1_554 S
N1357 C1355 1.384 1_554 S
H1358 C1364 0.930 . S
H1359 C1368 0.930 . S
H1360 C1373 0.929 . S
H1361 C1371 0.929 . S
H1362 C1366 0.929 . S
H1363 C1372 0.929 . S
C1364 H1358 0.930 . S
C1364 C1365 1.367 . S
C1364 C1372 1.378 . S
C1365 C1364 1.367 . S
C1365 C1373 1.433 . S
C1366 H1362 0.929 . S
C1366 C1368 1.378 . S
C1366 C1370 1.350 . S
C1367 C1370 1.463 . S
C1367 C1372 1.350 . S
C1367 N1375 1.427 . S
C1368 H1359 0.930 . S
C1368 C1366 1.378 . S
C1368 C1369 1.367 . S
C1369 C1368 1.367 . S
C1369 C1371 1.433 . S
C1370 C1366 1.350 . S
C1370 C1367 1.463 . S
C1370 N1374 1.427 . S
C1371 H1361 0.929 . S
C1371 C1369 1.433 . S
C1371 N1374 1.384 . S
C1372 H1363 0.929 . S
C1372 C1364 1.378 . S
C1372 C1367 1.350 . S
C1373 H1360 0.929 . S
C1373 C1365 1.433 . S
C1373 N1375 1.384 . S
N1374 C1370 1.427 . S
N1374 C1371 1.384 . S
N1375 C1367 1.427 . S
N1375 C1373 1.384 . S
C519 C4 1.458 . S
C523 C6 1.463 . S
C537 C61 1.456 . S
C541 C34 1.462 . S
C555 C93 1.455 . S
C559 C66 1.462 . S
C573 C98 1.467 . S
C577 C125 1.461 . S
C591 C134 1.462 . S
C595 C132 1.458 . S
C609 C189 1.460 . S
C613 C162 1.466 . S
C627 C221 1.459 . S
C631 C194 1.463 . S
C645 C228 1.459 . S
C649 C230 1.464 . S
C663 C260 1.455 . S
C667 C262 1.461 . S
C681 C294 1.464 . S
C685 C292 1.459 . S
C699 C322 1.463 . S
C703 C349 1.458 . S
C717 C354 1.464 . S
C721 C381 1.456 . S
C735 C386 1.461 . S
C739 C413 1.455 . S
C753 C418 1.466 . S
C757 C445 1.462 . S
C771 C452 1.455 . S
C775 C454 1.462 . S
C789 C484 1.458 . S
C793 C486 1.462 . S
C807 C29 2.061 . S
C811 C356 2.047 . S
C825 C36 2.131 . S
C829 C509 2.129 . S
C843 C68 1.342 . S
C847 N306 1.291 . S
C861 N109 1.646 . S
C865 N429 1.615 . S
C879 N146 1.606 . S
C883 C420 1.657 . S
C897 N365 1.639 . S
C901 N173 1.624 . S
C915 C196 1.189 . S
C919 N498 1.154 . S
C933 C253 2.129 . S
C937 C317 2.131 . S
C951 C100 2.053 . S
C955 C285 2.055 . S
C969 N45 1.291 . S
C973 C324 1.342 . S
C987 N397 1.597 . S
C991 C164 1.658 . S
C1005 N242 1.136 . S
C1009 C477 1.197 . S
C1023 N274 1.335 . S
C1027 C157 1.365 . S
C1041 N205 1.107 . S
C1045 N333 1.121 . S
C1059 N77 1.128 . S
C1063 N466 1.100 . S
C1077 N18 1.337 . S
C1081 C388 1.364 . S
C1095 C2 1.633 . S
C1099 N141 1.600 . S
C1113 C38 1.861 . S
C1117 N178 1.839 . S
C1131 C70 1.393 . S
C1135 C198 1.396 . S
C1149 N114 2.046 . S
C1153 C226 2.076 . S
C1167 N402 1.600 . S
C1171 C258 1.633 . S
C1185 N434 1.843 . S
C1189 C290 1.859 . S
C1203 C326 1.393 . S
C1207 C450 1.396 . S
C1221 C482 2.073 . S
C1225 N370 2.052 . S
C1239 N50 1.060 . S
C1243 N237 1.054 . S
C1257 C130 1.472 . S
C1261 N82 1.453 . S
C1275 C166 2.320 . S
C1279 C102 2.320 . S
C1293 N13 0.968 . S
C1297 N210 0.991 . S
C1311 N493 1.053 . S
C1315 N301 1.063 . S
C1329 C390 1.473 . S
C1333 N338 1.452 . S
C1347 C422 2.320 . S
C1351 C358 2.320 . S
C1365 N461 0.990 . S
C1369 N269 0.974 . S
