# Generated by pormake.
# Topology vby, (6)-cn, num edge types: 1
# Building blocks:
#     Node 0, Type 0, BuildingBlock: INOVEN_clean_sbu_0, # of connection points: 6
#     Node 1, Type 0, BuildingBlock: INOVEN_clean_sbu_0, # of connection points: 6
#     Node 2, Type 0, BuildingBlock: INOVEN_clean_sbu_0, # of connection points: 6
#     Node 3, Type 0, BuildingBlock: INOVEN_clean_sbu_0, # of connection points: 6
#     Node 4, Type 0, BuildingBlock: INOVEN_clean_sbu_0, # of connection points: 6
#     Node 5, Type 0, BuildingBlock: INOVEN_clean_sbu_0, # of connection points: 6
#     Node 6, Type 0, BuildingBlock: INOVEN_clean_sbu_0, # of connection points: 6
#     Node 7, Type 0, BuildingBlock: INOVEN_clean_sbu_0, # of connection points: 6
#     Edge 8, Type (0, 0), None
#     Edge 9, Type (0, 0), None
#     Edge 10, Type (0, 0), None
#     Edge 11, Type (0, 0), None
#     Edge 12, Type (0, 0), None
#     Edge 13, Type (0, 0), None
#     Edge 14, Type (0, 0), None
#     Edge 15, Type (0, 0), None
#     Edge 16, Type (0, 0), None
#     Edge 17, Type (0, 0), None
#     Edge 18, Type (0, 0), None
#     Edge 19, Type (0, 0), None
#     Edge 20, Type (0, 0), None
#     Edge 21, Type (0, 0), None
#     Edge 22, Type (0, 0), None
#     Edge 23, Type (0, 0), None
#     Edge 24, Type (0, 0), None
#     Edge 25, Type (0, 0), None
#     Edge 26, Type (0, 0), None
#     Edge 27, Type (0, 0), None
#     Edge 28, Type (0, 0), None
#     Edge 29, Type (0, 0), None
#     Edge 30, Type (0, 0), None
#     Edge 31, Type (0, 0), None
# Relax obj value: 0.190
# Max RMSD: 0.239
# Mean RMSD: 0.238
data_MOF--net-vby--node1-INOVEN_clean_sbu_0--edge1-none
_symmetry_space_group_name_H-M    P1
_symmetry_Int_Tables_number       1
_symmetry_cell_setting            triclinic
loop_
_symmetry_equiv_pos_as_xyz
'x, y, z'
_cell_length_a     6.9451983
_cell_length_b     66.577572
_cell_length_c     12.605431
_cell_angle_alpha  90.01209
_cell_angle_beta   87.459296
_cell_angle_gamma 90.000829
loop_
_atom_site_label
_atom_site_type_symbol
_atom_site_fract_x
_atom_site_fract_y
_atom_site_fract_z
_atom_type_partial_charge
Gd0 Gd 1.0417 0.4582 0.01754 0.0
Gd1 Gd 1.03431 0.41371 0.02929 0.0
C2 C 0.63091 0.43619 0.01745 0.0
C3 C 1.00676 0.49687 0.00738 0.0
C4 C 0.87984 0.51418 0.99015 0.0
C5 C 0.68027 0.51295 0.01194 0.0
C6 C 0.96409 0.53303 0.9711 0.0
C7 C 0.65361 0.54953 0.00456 0.0
C8 C 0.85293 0.55051 0.97879 0.0
C9 C 0.56829 0.53043 0.01876 0.0
C10 C 0.09965 0.44232 0.21344 0.0
C11 C 0.44109 0.43605 0.01416 0.0
C12 C 1.00492 0.37585 0.07477 0.0
C13 C 0.10726 0.35645 0.05751 0.0
C14 C 1.07905 0.3448 0.96637 0.0
C15 C 0.22468 0.34876 0.13604 0.0
C16 C 0.28534 0.31833 0.03223 0.0
C17 C 0.31324 0.32999 0.12337 0.0
C18 C 0.16731 0.32599 0.95382 0.0
C19 C 0.10161 0.4281 0.82776 0.0
O20 O 0.72694 0.45266 0.99141 0.0
O21 O 0.71751 0.41978 0.04804 0.0
O22 O 0.96315 0.48614 0.09178 0.0
O23 O 1.07287 0.48614 0.92629 0.0
O24 O 0.20011 0.45658 0.16956 0.0
O25 O 0.97422 0.43691 0.15039 0.0
O26 O 0.34635 0.42041 0.0542 0.0
O27 O 0.35179 0.45166 0.97476 0.0
O28 O 0.92464 0.38411 0.99332 0.0
O29 O 0.08488 0.38903 0.13636 0.0
O30 O 0.18442 0.41257 0.86754 0.0
O31 O 0.9826 0.43504 0.89671 0.0
H32 H 0.61229 0.49855 0.02804 0.0
H33 H 0.11803 0.53435 0.95533 0.0
H34 H 0.92558 0.56481 0.96871 0.0
H35 H 0.41547 0.52892 0.03712 0.0
H36 H 0.98765 0.35011 0.90486 0.0
H37 H 0.24652 0.35715 0.20817 0.0
H38 H 0.40065 0.32443 0.1861 0.0
H39 H 0.14414 0.3175 0.88217 0.0
Gd40 Gd 0.12832 0.70308 0.01422 0.0
Gd41 Gd 0.12022 0.6585 0.02244 0.0
C42 C 0.72138 0.68066 0.02781 0.0
C43 C 0.15965 0.74104 0.9725 0.0
C44 C 1.05817 0.76033 0.99185 0.0
C45 C 0.15905 0.77658 0.03365 0.0
C46 C 0.86582 0.76314 0.96468 0.0
C47 C 0.87865 0.79827 0.01921 0.0
C48 C 0.77727 0.78192 0.97801 0.0
C49 C 1.07039 0.79532 0.04744 0.0
C50 C 1.0617 0.68822 0.21439 0.0
C51 C 0.53173 0.68052 0.02381 0.0
C52 C 0.16275 0.61982 0.02814 0.0
C53 C 0.30535 0.60338 0.03449 0.0
C54 C 0.46791 0.60268 0.96387 0.0
C55 C 0.26358 0.58669 0.09935 0.0
C56 C 0.53652 0.56831 0.01748 0.0
C57 C 0.37858 0.5694 0.0916 0.0
C58 C 0.58086 0.58535 0.95491 0.0
C59 C 1.06418 0.67518 0.82824 0.0
O60 O 0.81616 0.69643 0.98927 0.0
O61 O 0.81043 0.66492 0.06617 0.0
O62 O 0.23766 0.73258 0.054 0.0
O63 O 1.08025 0.72809 0.90932 0.0
O64 O 0.9783 0.70381 0.17572 0.0
O65 O 0.1797 0.68134 0.14479 0.0
O66 O 0.43599 0.66387 0.04637 0.0
O67 O 0.44521 0.69712 0.9959 0.0
O68 O 0.17617 0.63068 0.94201 0.0
O69 O 0.113 0.63031 0.11321 0.0
O70 O 0.96133 0.66097 0.87093 0.0
O71 O 0.19013 0.68015 0.89189 0.0
H72 H 0.30777 0.77482 0.05455 0.0
H73 H 0.78398 0.7509 0.9324 0.0
H74 H 0.62888 0.78361 0.95657 0.0
H75 H 0.15354 0.80762 0.07816 0.0
H76 H 0.50352 0.61522 0.91187 0.0
H77 H 0.13803 0.58675 0.15356 0.0
H78 H 0.34185 0.55683 0.14304 0.0
H79 H 0.69885 0.58515 0.89585 0.0
Gd80 Gd 1.03664 0.70307 0.52759 0.0
Gd81 Gd 1.04473 0.65849 0.51932 0.0
C82 C 0.44355 0.68065 0.51401 0.0
C83 C 1.00529 0.74104 0.56937 0.0
C84 C 0.10676 0.76033 0.55004 0.0
C85 C 1.00603 0.77655 0.50795 0.0
C86 C 0.29895 0.76316 0.57748 0.0
C87 C 0.28624 0.79827 0.52264 0.0
C88 C 0.38747 0.78194 0.56413 0.0
C89 C 0.09469 0.7953 0.49413 0.0
C90 C 0.10298 0.68824 0.32746 0.0
C91 C 0.63321 0.68051 0.51801 0.0
C92 C 1.00215 0.61981 0.51352 0.0
C93 C 0.8595 0.60337 0.50721 0.0
C94 C 0.69691 0.60269 0.5778 0.0
C95 C 0.90127 0.58667 0.44241 0.0
C96 C 0.62826 0.56832 0.52432 0.0
C97 C 0.78624 0.56939 0.45021 0.0
C98 C 0.58392 0.58537 0.58681 0.0
C99 C 0.10042 0.67515 0.71351 0.0
O100 O 0.34877 0.69642 0.55259 0.0
O101 O 0.35451 0.66491 0.4756 0.0
O102 O 0.92727 0.73257 0.48786 0.0
O103 O 0.08468 0.72809 0.63253 0.0
O104 O 0.18669 0.70382 0.36608 0.0
O105 O 0.98511 0.68133 0.39703 0.0
O106 O 0.72894 0.66387 0.49542 0.0
O107 O 0.71973 0.69711 0.54592 0.0
O108 O 0.98888 0.63067 0.59969 0.0
O109 O 1.05176 0.63031 0.42846 0.0
O110 O 0.20357 0.66095 0.67088 0.0
O111 O 0.97461 0.68015 0.64985 0.0
H112 H 0.85743 0.77479 0.48686 0.0
H113 H 0.38067 0.75094 0.61 0.0
H114 H 0.53574 0.78365 0.58579 0.0
H115 H 1.01168 0.80758 0.46316 0.0
H116 H 0.6613 0.61525 0.62975 0.0
H117 H 1.02685 0.58671 0.38822 0.0
H118 H 0.82297 0.5568 0.39883 0.0
H119 H 0.46591 0.58518 0.64586 0.0
Gd120 Gd 0.12297 0.45821 0.52442 0.0
Gd121 Gd 0.13035 0.41372 0.51262 0.0
C122 C 0.53378 0.4362 0.52447 0.0
C123 C 0.15795 0.49688 0.53463 0.0
C124 C 0.28489 0.51419 0.55183 0.0
C125 C 0.48446 0.51295 0.53004 0.0
C126 C 0.20066 0.53304 0.57082 0.0
C127 C 0.51116 0.54953 0.5373 0.0
C128 C 0.31184 0.55052 0.56308 0.0
C129 C 0.59646 0.53044 0.52317 0.0
C130 C 1.06537 0.44234 0.32853 0.0
C131 C 0.7236 0.43605 0.52775 0.0
C132 C 0.15981 0.37585 0.46709 0.0
C133 C 1.05752 0.35645 0.48433 0.0
C134 C 0.08566 0.34481 0.57549 0.0
C135 C 0.94021 0.34875 0.40577 0.0
C136 C 0.87952 0.31833 0.50959 0.0
C137 C 0.8517 0.32997 0.41842 0.0
C138 C 0.99744 0.326 0.58803 0.0
C139 C 1.06335 0.42808 0.71412 0.0
O140 O 0.43774 0.45266 0.55053 0.0
O141 O 0.44716 0.41978 0.49386 0.0
O142 O 0.20144 0.48615 0.4502 0.0
O143 O 0.09195 0.48615 0.61573 0.0
O144 O 0.96458 0.45659 0.37235 0.0
O145 O 0.19066 0.43691 0.39159 0.0
O146 O 0.81834 0.42042 0.48767 0.0
O147 O 0.8129 0.45166 0.5672 0.0
O148 O 0.24008 0.38412 0.54855 0.0
O149 O 1.07981 0.38903 0.40552 0.0
O150 O 0.98022 0.41257 0.67438 0.0
O151 O 0.18223 0.43505 0.6452 0.0
H152 H 0.55242 0.49855 0.51399 0.0
H153 H 1.04672 0.53437 0.58658 0.0
H154 H 0.2392 0.56482 0.5731 0.0
H155 H 0.74927 0.52892 0.50481 0.0
H156 H 0.17696 0.35014 0.63704 0.0
H157 H 0.91843 0.35713 0.33362 0.0
H158 H 0.76436 0.32441 0.35567 0.0
H159 H 1.02055 0.31752 0.6597 0.0
Gd160 Gd 0.54168 0.9582 0.01756 0.0
Gd161 Gd 0.5343 0.91371 0.02931 0.0
C162 C 0.13089 0.93619 0.01746 0.0
C163 C 0.50676 0.99687 0.00741 0.0
C164 C 0.37984 1.01418 0.99018 0.0
C165 C 0.18028 1.01295 0.01198 0.0
C166 C 0.46411 1.03303 0.97112 0.0
C167 C 0.15365 1.04953 0.00457 0.0
C168 C 0.35297 1.05051 0.97879 0.0
C169 C 1.06831 1.03044 0.01879 0.0
C170 C 0.59964 0.94231 0.21346 0.0
C171 C 0.94107 0.93605 0.01418 0.0
C172 C 0.5049 0.87585 0.07477 0.0
C173 C 0.60724 0.85645 0.05752 0.0
C174 C 0.57872 0.84478 0.96648 0.0
C175 C 0.72498 0.84878 0.13594 0.0
C176 C 0.78533 0.81833 0.03224 0.0
C177 C 0.81353 0.83 0.12329 0.0
C178 C 0.66698 0.82597 0.95393 0.0
C179 C 0.6016 0.9281 0.82777 0.0
O180 O 0.22693 0.95266 0.99143 0.0
O181 O 0.2175 0.91978 0.04805 0.0
O182 O 0.46313 0.98614 0.0918 0.0
O183 O 0.57288 0.98614 0.92632 0.0
O184 O 0.7001 0.95658 0.16958 0.0
O185 O 0.47421 0.93691 0.15041 0.0
O186 O 0.84633 0.92041 0.05422 0.0
O187 O 0.85177 0.95166 0.97478 0.0
O188 O 0.42464 0.88411 0.99331 0.0
O189 O 0.58483 0.88903 0.13637 0.0
O190 O 0.68441 0.91257 0.86756 0.0
O191 O 0.48259 0.93504 0.89673 0.0
H192 H 0.11229 0.99856 0.02808 0.0
H193 H 0.61806 1.03435 0.95534 0.0
H194 H 0.42563 0.06481 0.9687 0.0
H195 H 0.9155 1.02893 0.03716 0.0
H196 H 0.48706 0.85008 0.90505 0.0
H197 H 0.74707 0.85718 0.208 0.0
H198 H 0.90118 0.82446 0.18595 0.0
H199 H 0.64357 0.81747 0.88236 0.0
Gd200 Gd 0.62838 0.20308 0.01416 0.0
Gd201 Gd 0.62027 0.1585 0.02238 0.0
C202 C 0.22143 0.18066 0.02774 0.0
C203 C 0.65969 0.24105 0.97244 0.0
C204 C 0.5582 0.26034 0.9918 0.0
C205 C 0.65901 0.27657 0.03372 0.0
C206 C 0.36591 0.26315 0.96452 0.0
C207 C 0.37867 0.29827 0.01919 0.0
C208 C 0.27736 0.28193 0.97787 0.0
C209 C 0.57033 0.29532 0.04753 0.0
C210 C 0.56175 0.18823 0.21432 0.0
C211 C 1.03178 0.18052 0.02375 0.0
C212 C 0.66281 0.11982 0.02809 0.0
C213 C 0.80541 0.10338 0.03445 0.0
C214 C 0.96796 0.10268 0.96382 0.0
C215 C 0.76365 0.08669 0.09933 0.0
C216 C 1.03658 0.06832 0.01747 0.0
C217 C 0.87865 0.06941 0.09161 0.0
C218 C 1.08091 0.08535 0.95488 0.0
C219 C 0.56423 0.17518 0.82818 0.0
O220 O 0.31621 0.19643 0.9892 0.0
O221 O 0.31048 0.16492 0.0661 0.0
O222 O 0.73771 0.23258 0.05394 0.0
O223 O 0.5803 0.22809 0.90926 0.0
O224 O 0.47835 0.20382 0.17566 0.0
O225 O 0.67975 0.18134 0.14472 0.0
O226 O 0.93605 0.16388 0.04631 0.0
O227 O 0.94527 0.19712 0.99584 0.0
O228 O 0.67625 0.13068 0.94195 0.0
O229 O 0.61304 0.13032 0.11315 0.0
O230 O 0.46138 0.16097 0.87088 0.0
O231 O 0.69018 0.18015 0.89183 0.0
H232 H 0.80768 0.27482 0.05469 0.0
H233 H 0.28413 0.25092 0.93214 0.0
H234 H 0.12901 0.28362 0.95634 0.0
H235 H 0.65342 0.30761 0.07836 0.0
H236 H 1.00356 0.11522 0.9118 0.0
H237 H 0.63811 0.08676 0.15356 0.0
H238 H 0.84193 1.05684 0.14306 0.0
H239 H 0.19889 0.08514 0.89582 0.0
Gd240 Gd 0.53667 0.20307 0.52753 0.0
Gd241 Gd 0.54476 0.15849 0.51926 0.0
C242 C 0.94359 0.18065 0.51395 0.0
C243 C 0.5053 0.24104 0.56932 0.0
C244 C 0.60676 0.26033 0.54999 0.0
C245 C 0.50595 0.27656 0.50805 0.0
C246 C 0.79902 0.26316 0.57731 0.0
C247 C 0.78623 0.29827 0.52261 0.0
C248 C 0.88755 0.28194 0.56397 0.0
C249 C 0.59459 0.29531 0.49424 0.0
C250 C 0.60303 0.18824 0.3274 0.0
C251 C 0.13324 0.18051 0.51794 0.0
C252 C 0.50217 0.11981 0.51345 0.0
C253 C 0.35952 0.10337 0.50714 0.0
C254 C 0.19691 0.1027 0.57773 0.0
C255 C 0.40129 0.08667 0.44236 0.0
C256 C 0.12827 0.06832 0.52427 0.0
C257 C 0.28626 0.06939 0.45016 0.0
C258 C 0.08392 0.08537 0.58675 0.0
C259 C 0.60046 0.17515 0.71344 0.0
O260 O 0.8488 0.19642 0.55253 0.0
O261 O 0.85454 0.16491 0.47554 0.0
O262 O 0.4273 0.23257 0.48781 0.0
O263 O 0.58471 0.22809 0.63248 0.0
O264 O 0.68673 0.20382 0.36602 0.0
O265 O 0.48515 0.18133 0.39696 0.0
O266 O 0.22898 0.16387 0.49536 0.0
O267 O 0.21977 0.19711 0.54585 0.0
O268 O 0.48891 0.13067 0.59963 0.0
O269 O 0.55178 0.13031 0.4284 0.0
O270 O 0.7036 0.16095 0.67082 0.0
O271 O 0.47465 0.18015 0.64979 0.0
H272 H 0.35729 0.2748 0.48704 0.0
H273 H 0.88081 0.25092 0.60971 0.0
H274 H 1.03587 0.28363 0.58552 0.0
H275 H 0.51151 0.3076 0.46339 0.0
H276 H 0.1613 0.11525 0.62966 0.0
H277 H 0.52688 0.08671 0.38817 0.0
H278 H 0.323 1.0568 0.39879 0.0
H279 H 0.9659 0.08518 0.64578 0.0
Gd280 Gd 0.62295 0.95821 0.52443 0.0
Gd281 Gd 0.63033 0.91372 0.51264 0.0
C282 C 1.03376 0.9362 0.52449 0.0
C283 C 0.65794 0.99688 0.53463 0.0
C284 C 0.7849 1.01419 0.55181 0.0
C285 C 0.98446 1.01296 0.53002 0.0
C286 C 0.70066 1.03304 0.57078 0.0
C287 C 1.01116 1.04954 0.53726 0.0
C288 C 0.81184 1.05052 0.56303 0.0
C289 C 0.09646 1.03044 0.52313 0.0
C290 C 0.56535 0.94234 0.32855 0.0
C291 C 0.22358 0.93605 0.52777 0.0
C292 C 0.65978 0.87585 0.46711 0.0
C293 C 0.5575 0.85645 0.48435 0.0
C294 C 0.58529 0.84483 0.57563 0.0
C295 C 0.44055 0.84873 0.40568 0.0
C296 C 0.37952 0.81833 0.50961 0.0
C297 C 0.35204 0.82995 0.41833 0.0
C298 C 0.49708 0.82602 0.58816 0.0
C299 C 0.56333 0.92808 0.71414 0.0
O300 O 0.93772 0.95266 0.55054 0.0
O301 O 0.94714 0.91978 0.49389 0.0
O302 O 0.70143 0.98614 0.4502 0.0
O303 O 0.59196 0.98615 0.61573 0.0
O304 O 0.46457 0.95658 0.37236 0.0
O305 O 0.69064 0.93691 0.3916 0.0
O306 O 0.31833 0.92042 0.48769 0.0
O307 O 0.31288 0.95166 0.56721 0.0
O308 O 0.74007 0.88412 0.54856 0.0
O309 O 0.57977 0.88903 0.40554 0.0
O310 O 0.4802 0.91257 0.6744 0.0
O311 O 0.68221 0.93505 0.64522 0.0
H312 H 1.05242 0.99855 0.51398 0.0
H313 H 0.54672 1.03437 0.58654 0.0
H314 H 0.7392 0.06483 0.57305 0.0
H315 H 0.24927 1.02892 0.50478 0.0
H316 H 0.6763 0.85017 0.63727 0.0
H317 H 0.41905 0.85709 0.33345 0.0
H318 H 0.26498 0.82437 0.3555 0.0
H319 H 0.51992 0.81756 0.65991 0.0
loop_
_geom_bond_atom_site_label_1
_geom_bond_atom_site_label_2
_geom_bond_distance
_geom_bond_site_symmetry_2
_ccdc_geom_bond_type
Gd0 C3 2.818 1_455 S
Gd0 O20 2.377 1_455 S
Gd0 O22 2.448 . S
Gd0 O23 2.506 1_454 S
Gd0 O24 2.435 . S
Gd0 O25 2.717 . S
Gd0 O27 2.395 . S
Gd0 O31 2.327 1_554 S
Gd1 C12 2.818 . S
Gd1 O21 2.395 1_455 S
Gd1 O25 2.327 . S
Gd1 O26 2.377 1_554 S
Gd1 O28 2.448 1_554 S
Gd1 O29 2.506 . S
Gd1 O30 2.435 1_554 S
Gd1 O31 2.717 1_554 S
C2 O20 1.240 . S
C2 O21 1.240 . S
C3 Gd0 2.818 1_655 S
C3 C4 1.510 1_554 S
C3 O22 1.249 1_655 S
C3 O23 1.252 1_554 S
C4 C3 1.510 1_556 S
C4 C5 1.404 1_556 S
C4 C6 1.352 . S
C5 C4 1.404 1_554 S
C5 C9 1.389 . S
C5 H32 0.930 . S
C6 C4 1.352 . S
C6 C8 1.374 . S
C6 H33 0.931 . S
C7 C8 1.359 . S
C7 C9 1.364 1_556 S
C8 C6 1.374 . S
C8 C7 1.359 . S
C8 H34 0.931 . S
C9 C5 1.389 . S
C9 C7 1.364 1_554 S
C9 H35 0.931 . S
C10 O24 1.256 . S
C10 O25 1.257 . S
C11 O26 1.239 1_554 S
C11 O27 1.241 . S
C12 Gd1 2.818 . S
C12 C13 1.510 . S
C12 O28 1.249 1_554 S
C12 O29 1.252 . S
C13 C12 1.510 . S
C13 C14 1.404 1_554 S
C13 C15 1.352 . S
C14 C13 1.404 1_556 S
C14 C18 1.389 . S
C14 H36 0.930 . S
C15 C13 1.352 . S
C15 C17 1.374 . S
C15 H37 0.931 . S
C16 C17 1.359 . S
C16 C18 1.364 1_554 S
C17 C15 1.374 . S
C17 C16 1.359 . S
C17 H38 0.931 . S
C18 C14 1.389 . S
C18 C16 1.364 1_556 S
C18 H39 0.931 . S
C19 O30 1.256 . S
C19 O31 1.257 . S
O20 Gd0 2.377 1_655 S
O20 C2 1.240 . S
O21 Gd1 2.395 1_655 S
O21 C2 1.240 . S
O22 Gd0 2.448 . S
O22 C3 1.249 1_455 S
O23 Gd0 2.506 1_656 S
O23 C3 1.252 1_556 S
O24 Gd0 2.435 . S
O24 C10 1.256 . S
O25 Gd0 2.717 . S
O25 Gd1 2.327 . S
O25 C10 1.257 . S
O26 Gd1 2.377 1_556 S
O26 C11 1.239 1_556 S
O27 Gd0 2.395 . S
O27 C11 1.241 . S
O28 Gd1 2.448 1_556 S
O28 C12 1.249 1_556 S
O29 Gd1 2.506 . S
O29 C12 1.252 . S
O30 Gd1 2.435 1_556 S
O30 C19 1.256 . S
O31 Gd0 2.327 1_556 S
O31 Gd1 2.717 1_556 S
O31 C19 1.257 . S
H32 C5 0.930 . S
H33 C6 0.931 . S
H34 C8 0.931 . S
H35 C9 0.931 . S
H36 C14 0.930 . S
H37 C15 0.931 . S
H38 C17 0.931 . S
H39 C18 0.931 . S
Gd40 C43 2.818 . S
Gd40 O60 2.377 . S
Gd40 O62 2.448 . S
Gd40 O63 2.506 1_554 S
Gd40 O64 2.435 . S
Gd40 O65 2.717 . S
Gd40 O67 2.395 1_655 S
Gd40 O71 2.327 1_554 S
Gd41 C52 2.818 1_655 S
Gd41 O61 2.395 . S
Gd41 O65 2.327 . S
Gd41 O66 2.377 1_654 S
Gd41 O68 2.448 1_554 S
Gd41 O69 2.506 1_655 S
Gd41 O70 2.435 1_554 S
Gd41 O71 2.717 1_554 S
C42 O60 1.240 . S
C42 O61 1.240 . S
C43 Gd40 2.818 . S
C43 C44 1.510 1_554 S
C43 O62 1.249 . S
C43 O63 1.252 1_554 S
C44 C43 1.510 1_556 S
C44 C45 1.405 1_556 S
C44 C46 1.352 . S
C45 C44 1.405 1_554 S
C45 C49 1.389 . S
C45 H72 0.930 . S
C46 C44 1.352 . S
C46 C48 1.374 . S
C46 H73 0.931 . S
C47 C48 1.359 . S
C47 C49 1.364 1_556 S
C48 C46 1.374 . S
C48 C47 1.359 . S
C48 H74 0.931 . S
C49 C45 1.389 . S
C49 C47 1.364 1_554 S
C49 H75 0.931 . S
C50 O64 1.256 . S
C50 O65 1.257 . S
C51 O66 1.240 1_554 S
C51 O67 1.240 . S
C52 Gd41 2.818 1_455 S
C52 C53 1.510 . S
C52 O68 1.249 1_454 S
C52 O69 1.252 . S
C53 C52 1.510 . S
C53 C54 1.404 1_554 S
C53 C55 1.352 . S
C54 C53 1.404 1_556 S
C54 C58 1.389 . S
C54 H76 0.930 . S
C55 C53 1.352 . S
C55 C57 1.374 . S
C55 H77 0.931 . S
C56 C57 1.359 . S
C56 C58 1.364 1_554 S
C57 C55 1.374 . S
C57 C56 1.359 . S
C57 H78 0.931 . S
C58 C54 1.389 . S
C58 C56 1.364 1_556 S
C58 H79 0.931 . S
C59 O70 1.256 . S
C59 O71 1.257 . S
O60 Gd40 2.377 . S
O60 C42 1.240 . S
O61 Gd41 2.395 . S
O61 C42 1.240 . S
O62 Gd40 2.448 . S
O62 C43 1.249 . S
O63 Gd40 2.506 1_556 S
O63 C43 1.252 1_556 S
O64 Gd40 2.435 . S
O64 C50 1.256 . S
O65 Gd40 2.717 . S
O65 Gd41 2.327 . S
O65 C50 1.257 . S
O66 Gd41 2.377 1_456 S
O66 C51 1.240 1_556 S
O67 Gd40 2.395 1_455 S
O67 C51 1.240 . S
O68 Gd41 2.448 1_556 S
O68 C52 1.249 1_656 S
O69 Gd41 2.506 1_455 S
O69 C52 1.252 . S
O70 Gd41 2.435 1_556 S
O70 C59 1.256 . S
O71 Gd40 2.327 1_556 S
O71 Gd41 2.717 1_556 S
O71 C59 1.257 . S
H72 C45 0.930 . S
H73 C46 0.931 . S
H74 C48 0.931 . S
H75 C49 0.931 . S
H76 C54 0.930 . S
H77 C55 0.931 . S
H78 C57 0.931 . S
H79 C58 0.931 . S
Gd80 C83 2.818 . S
Gd80 O100 2.377 . S
Gd80 O102 2.448 . S
Gd80 O103 2.506 . S
Gd80 O104 2.435 . S
Gd80 O105 2.717 . S
Gd80 O107 2.395 1_455 S
Gd80 O111 2.327 . S
Gd81 C92 2.818 1_455 S
Gd81 O101 2.395 . S
Gd81 O105 2.327 . S
Gd81 O106 2.377 1_455 S
Gd81 O108 2.448 . S
Gd81 O109 2.506 1_455 S
Gd81 O110 2.435 . S
Gd81 O111 2.717 . S
C82 O100 1.240 . S
C82 O101 1.240 . S
C83 Gd80 2.818 . S
C83 C84 1.510 . S
C83 O102 1.249 . S
C83 O103 1.252 . S
C84 C83 1.510 . S
C84 C85 1.404 . S
C84 C86 1.352 . S
C85 C84 1.404 . S
C85 C89 1.389 . S
C85 H112 0.930 . S
C86 C84 1.352 . S
C86 C88 1.374 . S
C86 H113 0.931 . S
C87 C88 1.359 . S
C87 C89 1.364 . S
C88 C86 1.374 . S
C88 C87 1.359 . S
C88 H114 0.931 . S
C89 C85 1.389 . S
C89 C87 1.364 . S
C89 H115 0.931 . S
C90 O104 1.256 . S
C90 O105 1.257 . S
C91 O106 1.240 . S
C91 O107 1.240 . S
C92 Gd81 2.818 1_655 S
C92 C93 1.510 . S
C92 O108 1.249 1_655 S
C92 O109 1.252 . S
C93 C92 1.510 . S
C93 C94 1.404 . S
C93 C95 1.352 . S
C94 C93 1.404 . S
C94 C98 1.389 . S
C94 H116 0.930 . S
C95 C93 1.352 . S
C95 C97 1.374 . S
C95 H117 0.931 . S
C96 C97 1.359 . S
C96 C98 1.364 . S
C97 C95 1.374 . S
C97 C96 1.359 . S
C97 H118 0.931 . S
C98 C94 1.389 . S
C98 C96 1.364 . S
C98 H119 0.931 . S
C99 O110 1.256 . S
C99 O111 1.257 . S
O100 Gd80 2.377 . S
O100 C82 1.240 . S
O101 Gd81 2.395 . S
O101 C82 1.240 . S
O102 Gd80 2.448 . S
O102 C83 1.249 . S
O103 Gd80 2.506 . S
O103 C83 1.252 . S
O104 Gd80 2.435 . S
O104 C90 1.256 . S
O105 Gd80 2.717 . S
O105 Gd81 2.327 . S
O105 C90 1.257 . S
O106 Gd81 2.377 1_655 S
O106 C91 1.240 . S
O107 Gd80 2.395 1_655 S
O107 C91 1.240 . S
O108 Gd81 2.448 . S
O108 C92 1.249 1_455 S
O109 Gd81 2.506 1_655 S
O109 C92 1.252 . S
O110 Gd81 2.435 . S
O110 C99 1.256 . S
O111 Gd80 2.327 . S
O111 Gd81 2.717 . S
O111 C99 1.257 . S
H112 C85 0.930 . S
H113 C86 0.931 . S
H114 C88 0.931 . S
H115 C89 0.931 . S
H116 C94 0.930 . S
H117 C95 0.931 . S
H118 C97 0.931 . S
H119 C98 0.931 . S
Gd120 C123 2.818 1_655 S
Gd120 O140 2.377 1_655 S
Gd120 O142 2.448 . S
Gd120 O143 2.506 1_655 S
Gd120 O144 2.435 . S
Gd120 O145 2.717 . S
Gd120 O147 2.395 . S
Gd120 O151 2.327 . S
Gd121 C132 2.818 . S
Gd121 O141 2.395 1_655 S
Gd121 O145 2.327 . S
Gd121 O146 2.377 . S
Gd121 O148 2.448 . S
Gd121 O149 2.506 . S
Gd121 O150 2.435 . S
Gd121 O151 2.717 . S
C122 O140 1.240 . S
C122 O141 1.240 . S
C123 Gd120 2.818 1_455 S
C123 C124 1.510 . S
C123 O142 1.249 1_455 S
C123 O143 1.252 . S
C124 C123 1.510 . S
C124 C125 1.404 . S
C124 C126 1.352 . S
C125 C124 1.404 . S
C125 C129 1.389 . S
C125 H152 0.930 . S
C126 C124 1.352 . S
C126 C128 1.374 . S
C126 H153 0.931 . S
C127 C128 1.359 . S
C127 C129 1.364 . S
C128 C126 1.374 . S
C128 C127 1.359 . S
C128 H154 0.931 . S
C129 C125 1.389 . S
C129 C127 1.364 . S
C129 H155 0.931 . S
C130 O144 1.256 . S
C130 O145 1.257 . S
C131 O146 1.240 . S
C131 O147 1.240 . S
C132 Gd121 2.818 . S
C132 C133 1.510 . S
C132 O148 1.249 . S
C132 O149 1.252 . S
C133 C132 1.510 . S
C133 C134 1.404 . S
C133 C135 1.352 . S
C134 C133 1.404 . S
C134 C138 1.389 . S
C134 H156 0.930 . S
C135 C133 1.352 . S
C135 C137 1.374 . S
C135 H157 0.931 . S
C136 C137 1.359 . S
C136 C138 1.364 . S
C137 C135 1.374 . S
C137 C136 1.359 . S
C137 H158 0.931 . S
C138 C134 1.389 . S
C138 C136 1.364 . S
C138 H159 0.931 . S
C139 O150 1.256 . S
C139 O151 1.257 . S
O140 Gd120 2.377 1_455 S
O140 C122 1.240 . S
O141 Gd121 2.395 1_455 S
O141 C122 1.240 . S
O142 Gd120 2.448 . S
O142 C123 1.249 1_655 S
O143 Gd120 2.506 1_455 S
O143 C123 1.252 . S
O144 Gd120 2.435 . S
O144 C130 1.256 . S
O145 Gd120 2.717 . S
O145 Gd121 2.327 . S
O145 C130 1.257 . S
O146 Gd121 2.377 . S
O146 C131 1.240 . S
O147 Gd120 2.395 . S
O147 C131 1.240 . S
O148 Gd121 2.448 . S
O148 C132 1.249 . S
O149 Gd121 2.506 . S
O149 C132 1.252 . S
O150 Gd121 2.435 . S
O150 C139 1.256 . S
O151 Gd120 2.327 . S
O151 Gd121 2.717 . S
O151 C139 1.257 . S
H152 C125 0.930 . S
H153 C126 0.931 . S
H154 C128 0.931 . S
H155 C129 0.931 . S
H156 C134 0.930 . S
H157 C135 0.931 . S
H158 C137 0.931 . S
H159 C138 0.931 . S
Gd160 C163 2.818 . S
Gd160 O180 2.377 . S
Gd160 O182 2.448 . S
Gd160 O183 2.506 1_554 S
Gd160 O184 2.435 . S
Gd160 O185 2.717 . S
Gd160 O187 2.395 . S
Gd160 O191 2.327 1_554 S
Gd161 C172 2.818 . S
Gd161 O181 2.395 . S
Gd161 O185 2.327 . S
Gd161 O186 2.377 1_554 S
Gd161 O188 2.448 1_554 S
Gd161 O189 2.506 . S
Gd161 O190 2.435 1_554 S
Gd161 O191 2.717 1_554 S
C162 O180 1.240 . S
C162 O181 1.240 . S
C163 Gd160 2.818 . S
C163 C164 1.510 1_554 S
C163 O182 1.249 . S
C163 O183 1.252 1_554 S
C164 C163 1.510 1_556 S
C164 C165 1.404 1_556 S
C164 C166 1.352 . S
C165 C164 1.404 1_554 S
C165 C169 1.389 . S
C165 H192 0.930 . S
C166 C164 1.352 . S
C166 C168 1.374 . S
C166 H193 0.931 . S
C167 C168 1.359 . S
C167 C169 1.364 1_556 S
C168 C166 1.374 . S
C168 C167 1.359 . S
C168 H194 0.931 . S
C169 C165 1.389 . S
C169 C167 1.364 1_554 S
C169 H195 0.931 . S
C170 O184 1.256 . S
C170 O185 1.257 . S
C171 O186 1.240 1_554 S
C171 O187 1.240 . S
C172 Gd161 2.818 . S
C172 C173 1.510 . S
C172 O188 1.249 1_554 S
C172 O189 1.252 . S
C173 C172 1.510 . S
C173 C174 1.404 1_554 S
C173 C175 1.352 . S
C174 C173 1.404 1_556 S
C174 C178 1.389 . S
C174 H196 0.930 . S
C175 C173 1.352 . S
C175 C177 1.374 . S
C175 H197 0.931 . S
C176 C177 1.359 . S
C176 C178 1.364 1_554 S
C177 C175 1.374 . S
C177 C176 1.359 . S
C177 H198 0.931 . S
C178 C174 1.389 . S
C178 C176 1.364 1_556 S
C178 H199 0.931 . S
C179 O190 1.256 . S
C179 O191 1.257 . S
O180 Gd160 2.377 . S
O180 C162 1.240 . S
O181 Gd161 2.395 . S
O181 C162 1.240 . S
O182 Gd160 2.448 . S
O182 C163 1.249 . S
O183 Gd160 2.506 1_556 S
O183 C163 1.252 1_556 S
O184 Gd160 2.435 . S
O184 C170 1.256 . S
O185 Gd160 2.717 . S
O185 Gd161 2.327 . S
O185 C170 1.257 . S
O186 Gd161 2.377 1_556 S
O186 C171 1.240 1_556 S
O187 Gd160 2.395 . S
O187 C171 1.240 . S
O188 Gd161 2.448 1_556 S
O188 C172 1.249 1_556 S
O189 Gd161 2.506 . S
O189 C172 1.252 . S
O190 Gd161 2.435 1_556 S
O190 C179 1.256 . S
O191 Gd160 2.327 1_556 S
O191 Gd161 2.717 1_556 S
O191 C179 1.257 . S
H192 C165 0.930 . S
H193 C166 0.931 . S
H194 C168 0.931 . S
H195 C169 0.931 . S
H196 C174 0.930 . S
H197 C175 0.931 . S
H198 C177 0.931 . S
H199 C178 0.931 . S
Gd200 C203 2.818 . S
Gd200 O220 2.377 . S
Gd200 O222 2.448 . S
Gd200 O223 2.506 1_554 S
Gd200 O224 2.435 . S
Gd200 O225 2.717 . S
Gd200 O227 2.395 . S
Gd200 O231 2.327 1_554 S
Gd201 C212 2.818 . S
Gd201 O221 2.395 . S
Gd201 O225 2.327 . S
Gd201 O226 2.377 1_554 S
Gd201 O228 2.448 1_554 S
Gd201 O229 2.506 . S
Gd201 O230 2.435 1_554 S
Gd201 O231 2.717 1_554 S
C202 O220 1.240 . S
C202 O221 1.240 . S
C203 Gd200 2.818 . S
C203 C204 1.511 . S
C203 O222 1.249 . S
C203 O223 1.252 1_554 S
C204 C203 1.511 . S
C204 C205 1.407 . S
C204 C206 1.349 1_554 S
C205 C204 1.407 . S
C205 C209 1.389 . S
C205 H232 0.930 . S
C206 C204 1.349 1_556 S
C206 C208 1.374 . S
C206 H233 0.931 . S
C207 C208 1.359 . S
C207 C209 1.364 1_556 S
C208 C206 1.374 . S
C208 C207 1.359 . S
C208 H234 0.931 . S
C209 C205 1.389 . S
C209 C207 1.364 1_554 S
C209 H235 0.931 . S
C210 O224 1.256 . S
C210 O225 1.257 . S
C211 O226 1.240 1_554 S
C211 O227 1.240 . S
C212 Gd201 2.818 . S
C212 C213 1.510 . S
C212 O228 1.249 1_554 S
C212 O229 1.252 . S
C213 C212 1.510 . S
C213 C214 1.404 1_554 S
C213 C215 1.352 . S
C214 C213 1.404 1_556 S
C214 C218 1.389 . S
C214 H236 0.930 . S
C215 C213 1.352 . S
C215 C217 1.374 . S
C215 H237 0.931 . S
C216 C217 1.359 . S
C216 C218 1.364 1_554 S
C217 C215 1.374 . S
C217 C216 1.359 . S
C217 H238 0.931 . S
C218 C214 1.389 . S
C218 C216 1.364 1_556 S
C218 H239 0.931 . S
C219 O230 1.256 . S
C219 O231 1.257 . S
O220 Gd200 2.377 . S
O220 C202 1.240 . S
O221 Gd201 2.395 . S
O221 C202 1.240 . S
O222 Gd200 2.448 . S
O222 C203 1.249 . S
O223 Gd200 2.506 1_556 S
O223 C203 1.252 1_556 S
O224 Gd200 2.435 . S
O224 C210 1.256 . S
O225 Gd200 2.717 . S
O225 Gd201 2.327 . S
O225 C210 1.257 . S
O226 Gd201 2.377 1_556 S
O226 C211 1.240 1_556 S
O227 Gd200 2.395 . S
O227 C211 1.240 . S
O228 Gd201 2.448 1_556 S
O228 C212 1.249 1_556 S
O229 Gd201 2.506 . S
O229 C212 1.252 . S
O230 Gd201 2.435 1_556 S
O230 C219 1.256 . S
O231 Gd200 2.327 1_556 S
O231 Gd201 2.717 1_556 S
O231 C219 1.257 . S
H232 C205 0.930 . S
H233 C206 0.931 . S
H234 C208 0.931 . S
H235 C209 0.931 . S
H236 C214 0.930 . S
H237 C215 0.931 . S
H238 C217 0.931 . S
H239 C218 0.931 . S
Gd240 C243 2.818 . S
Gd240 O260 2.377 . S
Gd240 O262 2.448 . S
Gd240 O263 2.506 . S
Gd240 O264 2.435 . S
Gd240 O265 2.717 . S
Gd240 O267 2.395 . S
Gd240 O271 2.327 . S
Gd241 C252 2.818 . S
Gd241 O261 2.395 . S
Gd241 O265 2.327 . S
Gd241 O266 2.377 . S
Gd241 O268 2.448 . S
Gd241 O269 2.506 . S
Gd241 O270 2.435 . S
Gd241 O271 2.717 . S
C242 O260 1.240 . S
C242 O261 1.240 . S
C243 Gd240 2.818 . S
C243 C244 1.510 . S
C243 O262 1.249 . S
C243 O263 1.252 . S
C244 C243 1.510 . S
C244 C245 1.404 . S
C244 C246 1.352 . S
C245 C244 1.404 . S
C245 C249 1.389 . S
C245 H272 0.930 . S
C246 C244 1.352 . S
C246 C248 1.374 . S
C246 H273 0.931 . S
C247 C248 1.359 . S
C247 C249 1.364 . S
C248 C246 1.374 . S
C248 C247 1.359 . S
C248 H274 0.931 . S
C249 C245 1.389 . S
C249 C247 1.364 . S
C249 H275 0.931 . S
C250 O264 1.256 . S
C250 O265 1.257 . S
C251 O266 1.240 . S
C251 O267 1.240 . S
C252 Gd241 2.818 . S
C252 C253 1.510 . S
C252 O268 1.249 . S
C252 O269 1.252 . S
C253 C252 1.510 . S
C253 C254 1.404 . S
C253 C255 1.352 . S
C254 C253 1.404 . S
C254 C258 1.389 . S
C254 H276 0.930 . S
C255 C253 1.352 . S
C255 C257 1.374 . S
C255 H277 0.931 . S
C256 C257 1.359 . S
C256 C258 1.364 . S
C257 C255 1.374 . S
C257 C256 1.359 . S
C257 H278 0.931 . S
C258 C254 1.389 . S
C258 C256 1.364 . S
C258 H279 0.931 . S
C259 O270 1.256 . S
C259 O271 1.257 . S
O260 Gd240 2.377 . S
O260 C242 1.240 . S
O261 Gd241 2.395 . S
O261 C242 1.240 . S
O262 Gd240 2.448 . S
O262 C243 1.249 . S
O263 Gd240 2.506 . S
O263 C243 1.252 . S
O264 Gd240 2.435 . S
O264 C250 1.256 . S
O265 Gd240 2.717 . S
O265 Gd241 2.327 . S
O265 C250 1.257 . S
O266 Gd241 2.377 . S
O266 C251 1.240 . S
O267 Gd240 2.395 . S
O267 C251 1.240 . S
O268 Gd241 2.448 . S
O268 C252 1.249 . S
O269 Gd241 2.506 . S
O269 C252 1.252 . S
O270 Gd241 2.435 . S
O270 C259 1.256 . S
O271 Gd240 2.327 . S
O271 Gd241 2.717 . S
O271 C259 1.257 . S
H272 C245 0.930 . S
H273 C246 0.931 . S
H274 C248 0.931 . S
H275 C249 0.931 . S
H276 C254 0.930 . S
H277 C255 0.931 . S
H278 C257 0.931 . S
H279 C258 0.931 . S
Gd280 C283 2.818 . S
Gd280 O300 2.377 . S
Gd280 O302 2.448 . S
Gd280 O303 2.506 . S
Gd280 O304 2.435 . S
Gd280 O305 2.717 . S
Gd280 O307 2.395 . S
Gd280 O311 2.327 . S
Gd281 C292 2.818 . S
Gd281 O301 2.395 . S
Gd281 O305 2.327 . S
Gd281 O306 2.377 . S
Gd281 O308 2.448 . S
Gd281 O309 2.506 . S
Gd281 O310 2.435 . S
Gd281 O311 2.717 . S
C282 O300 1.240 . S
C282 O301 1.240 . S
C283 Gd280 2.818 . S
C283 C284 1.510 . S
C283 O302 1.249 . S
C283 O303 1.252 . S
C284 C283 1.510 . S
C284 C285 1.404 . S
C284 C286 1.352 . S
C285 C284 1.404 . S
C285 C289 1.389 . S
C285 H312 0.930 . S
C286 C284 1.352 . S
C286 C288 1.374 . S
C286 H313 0.931 . S
C287 C288 1.359 . S
C287 C289 1.364 . S
C288 C286 1.374 . S
C288 C287 1.359 . S
C288 H314 0.931 . S
C289 C285 1.389 . S
C289 C287 1.364 . S
C289 H315 0.931 . S
C290 O304 1.256 . S
C290 O305 1.257 . S
C291 O306 1.240 . S
C291 O307 1.240 . S
C292 Gd281 2.818 . S
C292 C293 1.510 . S
C292 O308 1.249 . S
C292 O309 1.252 . S
C293 C292 1.510 . S
C293 C294 1.404 . S
C293 C295 1.352 . S
C294 C293 1.404 . S
C294 C298 1.389 . S
C294 H316 0.930 . S
C295 C293 1.352 . S
C295 C297 1.374 . S
C295 H317 0.931 . S
C296 C297 1.359 . S
C296 C298 1.364 . S
C297 C295 1.374 . S
C297 C296 1.359 . S
C297 H318 0.931 . S
C298 C294 1.389 . S
C298 C296 1.364 . S
C298 H319 0.931 . S
C299 O310 1.256 . S
C299 O311 1.257 . S
O300 Gd280 2.377 . S
O300 C282 1.240 . S
O301 Gd281 2.395 . S
O301 C282 1.240 . S
O302 Gd280 2.448 . S
O302 C283 1.249 . S
O303 Gd280 2.506 . S
O303 C283 1.252 . S
O304 Gd280 2.435 . S
O304 C290 1.256 . S
O305 Gd280 2.717 . S
O305 Gd281 2.327 . S
O305 C290 1.257 . S
O306 Gd281 2.377 . S
O306 C291 1.240 . S
O307 Gd280 2.395 . S
O307 C291 1.240 . S
O308 Gd281 2.448 . S
O308 C292 1.249 . S
O309 Gd281 2.506 . S
O309 C292 1.252 . S
O310 Gd281 2.435 . S
O310 C299 1.256 . S
O311 Gd280 2.327 . S
O311 Gd281 2.717 . S
O311 C299 1.257 . S
H312 C285 0.930 . S
H313 C286 0.931 . S
H314 C288 0.931 . S
H315 C289 0.931 . S
H316 C294 0.930 . S
H317 C295 0.931 . S
H318 C297 0.931 . S
H319 C298 0.931 . S
C11 C2 3.108 . S
C51 C42 3.107 . S
C91 C82 3.106 . S
C131 C122 3.106 . S
C171 C162 3.106 1_655 S
C202 C211 3.106 1_455 S
C251 C242 3.107 1_455 S
C282 C291 3.107 1_655 S
C56 C7 4.011 1_554 S
C127 C96 4.020 . S
C167 C216 4.021 1_466 S
C256 C287 4.011 1_445 S
C16 C207 4.075 1_554 S
C176 C47 4.074 1_554 S
C87 C296 4.076 . S
C136 C247 4.075 . S
C10 C130 1.515 1_455 S
C50 C90 1.721 1_655 S
C59 C99 1.513 1_655 S
C139 C19 1.722 1_655 S
C170 C290 1.517 . S
C210 C250 1.719 . S
C219 C259 1.515 . S
C299 C179 1.720 . S
