# Generated by pormake.
# Topology zni, (4)-cn, num edge types: 1
# Building blocks:
#     Node 0, Type 0, BuildingBlock: CEKHIL_clean_sbu_0, # of connection points: 4
#     Node 1, Type 0, BuildingBlock: CEKHIL_clean_sbu_0, # of connection points: 4
#     Node 2, Type 0, BuildingBlock: CEKHIL_clean_sbu_0, # of connection points: 4
#     Node 3, Type 0, BuildingBlock: CEKHIL_clean_sbu_0, # of connection points: 4
#     Node 4, Type 0, BuildingBlock: CEKHIL_clean_sbu_0, # of connection points: 4
#     Node 5, Type 0, BuildingBlock: CEKHIL_clean_sbu_0, # of connection points: 4
#     Node 6, Type 0, BuildingBlock: CEKHIL_clean_sbu_0, # of connection points: 4
#     Node 7, Type 0, BuildingBlock: CEKHIL_clean_sbu_0, # of connection points: 4
#     Node 8, Type 0, BuildingBlock: CEKHIL_clean_sbu_0, # of connection points: 4
#     Node 9, Type 0, BuildingBlock: CEKHIL_clean_sbu_0, # of connection points: 4
#     Node 10, Type 0, BuildingBlock: CEKHIL_clean_sbu_0, # of connection points: 4
#     Node 11, Type 0, BuildingBlock: CEKHIL_clean_sbu_0, # of connection points: 4
#     Node 12, Type 0, BuildingBlock: CEKHIL_clean_sbu_0, # of connection points: 4
#     Node 13, Type 0, BuildingBlock: CEKHIL_clean_sbu_0, # of connection points: 4
#     Node 14, Type 0, BuildingBlock: CEKHIL_clean_sbu_0, # of connection points: 4
#     Node 15, Type 0, BuildingBlock: CEKHIL_clean_sbu_0, # of connection points: 4
#     Node 16, Type 0, BuildingBlock: CEKHIL_clean_sbu_0, # of connection points: 4
#     Node 17, Type 0, BuildingBlock: CEKHIL_clean_sbu_0, # of connection points: 4
#     Node 18, Type 0, BuildingBlock: CEKHIL_clean_sbu_0, # of connection points: 4
#     Node 19, Type 0, BuildingBlock: CEKHIL_clean_sbu_0, # of connection points: 4
#     Node 20, Type 0, BuildingBlock: CEKHIL_clean_sbu_0, # of connection points: 4
#     Node 21, Type 0, BuildingBlock: CEKHIL_clean_sbu_0, # of connection points: 4
#     Node 22, Type 0, BuildingBlock: CEKHIL_clean_sbu_0, # of connection points: 4
#     Node 23, Type 0, BuildingBlock: CEKHIL_clean_sbu_0, # of connection points: 4
#     Node 24, Type 0, BuildingBlock: CEKHIL_clean_sbu_0, # of connection points: 4
#     Node 25, Type 0, BuildingBlock: CEKHIL_clean_sbu_0, # of connection points: 4
#     Node 26, Type 0, BuildingBlock: CEKHIL_clean_sbu_0, # of connection points: 4
#     Node 27, Type 0, BuildingBlock: CEKHIL_clean_sbu_0, # of connection points: 4
#     Node 28, Type 0, BuildingBlock: CEKHIL_clean_sbu_0, # of connection points: 4
#     Node 29, Type 0, BuildingBlock: CEKHIL_clean_sbu_0, # of connection points: 4
#     Node 30, Type 0, BuildingBlock: CEKHIL_clean_sbu_0, # of connection points: 4
#     Node 31, Type 0, BuildingBlock: CEKHIL_clean_sbu_0, # of connection points: 4
#     Edge 32, Type (0, 0), BuildingBlock: MIFKUJ_clean_linker_0, # of connection points: 2
#     Edge 33, Type (0, 0), BuildingBlock: MIFKUJ_clean_linker_0, # of connection points: 2
#     Edge 34, Type (0, 0), BuildingBlock: MIFKUJ_clean_linker_0, # of connection points: 2
#     Edge 35, Type (0, 0), BuildingBlock: MIFKUJ_clean_linker_0, # of connection points: 2
#     Edge 36, Type (0, 0), BuildingBlock: MIFKUJ_clean_linker_0, # of connection points: 2
#     Edge 37, Type (0, 0), BuildingBlock: MIFKUJ_clean_linker_0, # of connection points: 2
#     Edge 38, Type (0, 0), BuildingBlock: MIFKUJ_clean_linker_0, # of connection points: 2
#     Edge 39, Type (0, 0), BuildingBlock: MIFKUJ_clean_linker_0, # of connection points: 2
#     Edge 40, Type (0, 0), BuildingBlock: MIFKUJ_clean_linker_0, # of connection points: 2
#     Edge 41, Type (0, 0), BuildingBlock: MIFKUJ_clean_linker_0, # of connection points: 2
#     Edge 42, Type (0, 0), BuildingBlock: MIFKUJ_clean_linker_0, # of connection points: 2
#     Edge 43, Type (0, 0), BuildingBlock: MIFKUJ_clean_linker_0, # of connection points: 2
#     Edge 44, Type (0, 0), BuildingBlock: MIFKUJ_clean_linker_0, # of connection points: 2
#     Edge 45, Type (0, 0), BuildingBlock: MIFKUJ_clean_linker_0, # of connection points: 2
#     Edge 46, Type (0, 0), BuildingBlock: MIFKUJ_clean_linker_0, # of connection points: 2
#     Edge 47, Type (0, 0), BuildingBlock: MIFKUJ_clean_linker_0, # of connection points: 2
#     Edge 48, Type (0, 0), BuildingBlock: MIFKUJ_clean_linker_0, # of connection points: 2
#     Edge 49, Type (0, 0), BuildingBlock: MIFKUJ_clean_linker_0, # of connection points: 2
#     Edge 50, Type (0, 0), BuildingBlock: MIFKUJ_clean_linker_0, # of connection points: 2
#     Edge 51, Type (0, 0), BuildingBlock: MIFKUJ_clean_linker_0, # of connection points: 2
#     Edge 52, Type (0, 0), BuildingBlock: MIFKUJ_clean_linker_0, # of connection points: 2
#     Edge 53, Type (0, 0), BuildingBlock: MIFKUJ_clean_linker_0, # of connection points: 2
#     Edge 54, Type (0, 0), BuildingBlock: MIFKUJ_clean_linker_0, # of connection points: 2
#     Edge 55, Type (0, 0), BuildingBlock: MIFKUJ_clean_linker_0, # of connection points: 2
#     Edge 56, Type (0, 0), BuildingBlock: MIFKUJ_clean_linker_0, # of connection points: 2
#     Edge 57, Type (0, 0), BuildingBlock: MIFKUJ_clean_linker_0, # of connection points: 2
#     Edge 58, Type (0, 0), BuildingBlock: MIFKUJ_clean_linker_0, # of connection points: 2
#     Edge 59, Type (0, 0), BuildingBlock: MIFKUJ_clean_linker_0, # of connection points: 2
#     Edge 60, Type (0, 0), BuildingBlock: MIFKUJ_clean_linker_0, # of connection points: 2
#     Edge 61, Type (0, 0), BuildingBlock: MIFKUJ_clean_linker_0, # of connection points: 2
#     Edge 62, Type (0, 0), BuildingBlock: MIFKUJ_clean_linker_0, # of connection points: 2
#     Edge 63, Type (0, 0), BuildingBlock: MIFKUJ_clean_linker_0, # of connection points: 2
#     Edge 64, Type (0, 0), BuildingBlock: MIFKUJ_clean_linker_0, # of connection points: 2
#     Edge 65, Type (0, 0), BuildingBlock: MIFKUJ_clean_linker_0, # of connection points: 2
#     Edge 66, Type (0, 0), BuildingBlock: MIFKUJ_clean_linker_0, # of connection points: 2
#     Edge 67, Type (0, 0), BuildingBlock: MIFKUJ_clean_linker_0, # of connection points: 2
#     Edge 68, Type (0, 0), BuildingBlock: MIFKUJ_clean_linker_0, # of connection points: 2
#     Edge 69, Type (0, 0), BuildingBlock: MIFKUJ_clean_linker_0, # of connection points: 2
#     Edge 70, Type (0, 0), BuildingBlock: MIFKUJ_clean_linker_0, # of connection points: 2
#     Edge 71, Type (0, 0), BuildingBlock: MIFKUJ_clean_linker_0, # of connection points: 2
#     Edge 72, Type (0, 0), BuildingBlock: MIFKUJ_clean_linker_0, # of connection points: 2
#     Edge 73, Type (0, 0), BuildingBlock: MIFKUJ_clean_linker_0, # of connection points: 2
#     Edge 74, Type (0, 0), BuildingBlock: MIFKUJ_clean_linker_0, # of connection points: 2
#     Edge 75, Type (0, 0), BuildingBlock: MIFKUJ_clean_linker_0, # of connection points: 2
#     Edge 76, Type (0, 0), BuildingBlock: MIFKUJ_clean_linker_0, # of connection points: 2
#     Edge 77, Type (0, 0), BuildingBlock: MIFKUJ_clean_linker_0, # of connection points: 2
#     Edge 78, Type (0, 0), BuildingBlock: MIFKUJ_clean_linker_0, # of connection points: 2
#     Edge 79, Type (0, 0), BuildingBlock: MIFKUJ_clean_linker_0, # of connection points: 2
#     Edge 80, Type (0, 0), BuildingBlock: MIFKUJ_clean_linker_0, # of connection points: 2
#     Edge 81, Type (0, 0), BuildingBlock: MIFKUJ_clean_linker_0, # of connection points: 2
#     Edge 82, Type (0, 0), BuildingBlock: MIFKUJ_clean_linker_0, # of connection points: 2
#     Edge 83, Type (0, 0), BuildingBlock: MIFKUJ_clean_linker_0, # of connection points: 2
#     Edge 84, Type (0, 0), BuildingBlock: MIFKUJ_clean_linker_0, # of connection points: 2
#     Edge 85, Type (0, 0), BuildingBlock: MIFKUJ_clean_linker_0, # of connection points: 2
#     Edge 86, Type (0, 0), BuildingBlock: MIFKUJ_clean_linker_0, # of connection points: 2
#     Edge 87, Type (0, 0), BuildingBlock: MIFKUJ_clean_linker_0, # of connection points: 2
#     Edge 88, Type (0, 0), BuildingBlock: MIFKUJ_clean_linker_0, # of connection points: 2
#     Edge 89, Type (0, 0), BuildingBlock: MIFKUJ_clean_linker_0, # of connection points: 2
#     Edge 90, Type (0, 0), BuildingBlock: MIFKUJ_clean_linker_0, # of connection points: 2
#     Edge 91, Type (0, 0), BuildingBlock: MIFKUJ_clean_linker_0, # of connection points: 2
#     Edge 92, Type (0, 0), BuildingBlock: MIFKUJ_clean_linker_0, # of connection points: 2
#     Edge 93, Type (0, 0), BuildingBlock: MIFKUJ_clean_linker_0, # of connection points: 2
#     Edge 94, Type (0, 0), BuildingBlock: MIFKUJ_clean_linker_0, # of connection points: 2
#     Edge 95, Type (0, 0), BuildingBlock: MIFKUJ_clean_linker_0, # of connection points: 2
# Relax obj value: 0.229
# Max RMSD: 0.114
# Mean RMSD: 0.114
data_MOF--net-zni--node1-CEKHIL_clean_sbu_0--edge1-MIFKUJ_clean_linker_0
_symmetry_space_group_name_H-M    P1
_symmetry_Int_Tables_number       1
_symmetry_cell_setting            triclinic
loop_
_symmetry_equiv_pos_as_xyz
'x, y, z'
_cell_length_a     74.738123
_cell_length_b     74.7513
_cell_length_c     38.320101
_cell_angle_alpha  90.002308
_cell_angle_beta   89.997627
_cell_angle_gamma 89.999216
loop_
_atom_site_label
_atom_site_type_symbol
_atom_site_fract_x
_atom_site_fract_y
_atom_site_fract_z
_atom_type_partial_charge
Co0 Co 0.09173 0.08903 0.42085 0.0
O1 O 0.08775 0.06461 0.40801 0.0
O2 O 0.09534 0.08625 0.37126 0.0
C3 C 0.10866 0.08263 0.46739 0.0
O4 O 0.09789 0.11548 0.42474 0.0
Co5 Co 0.07869 0.10413 0.49146 0.0
O6 O 0.09407 0.12493 0.47984 0.0
C7 C 0.05277 0.09873 0.43416 0.0
C8 C 0.09174 0.06942 0.37644 0.0
C9 C 0.09954 0.12743 0.44873 0.0
O10 O 0.06563 0.09463 0.4133 0.0
O11 O 0.05512 0.10178 0.46673 0.0
O12 O 0.11582 0.08317 0.43654 0.0
O13 O 0.09154 0.0848 0.46895 0.0
Co14 Co 0.15479 0.84583 0.66014 0.0
O15 O 0.17909 0.83934 0.65054 0.0
O16 O 0.15967 0.84938 0.61123 0.0
C17 C 0.16082 0.86215 0.70788 0.0
O18 O 0.12893 0.85431 0.66064 0.0
Co19 Co 0.1363 0.83372 0.72863 0.0
O20 O 0.11675 0.85 0.71359 0.0
C21 C 0.14356 0.80754 0.67285 0.0
C22 C 0.17575 0.84387 0.61852 0.0
C23 C 0.11602 0.85613 0.68257 0.0
O24 O 0.14713 0.82037 0.65159 0.0
O25 O 0.14067 0.80997 0.70545 0.0
O26 O 0.16245 0.86922 0.67708 0.0
O27 O 0.15706 0.8453 0.7086 0.0
Co28 Co 0.40685 0.91087 0.91723 0.0
O29 O 0.41143 0.93523 0.90499 0.0
O30 O 0.4032 0.91406 0.86772 0.0
C31 C 0.39017 0.91725 0.96412 0.0
O32 O 0.40019 0.88456 0.92085 0.0
Co33 Co 0.42024 0.89555 0.98763 0.0
O34 O 0.40497 0.8747 0.97544 0.0
C35 C 0.44586 0.90209 0.93062 0.0
C36 C 0.40734 0.93074 0.8733 0.0
C37 C 0.39895 0.87246 0.94462 0.0
O38 O 0.43279 0.90476 0.90941 0.0
O39 O 0.44374 0.8999 0.96351 0.0
O40 O 0.3829 0.91716 0.93333 0.0
O41 O 0.40725 0.91481 0.96526 0.0
Co42 Co 0.34753 0.15285 0.16134 0.0
O43 O 0.32266 0.15794 0.15486 0.0
O44 O 0.3414 0.15004 0.11268 0.0
C45 C 0.34332 0.1355 0.20848 0.0
O46 O 0.37381 0.1458 0.15862 0.0
Co47 Co 0.36713 0.16455 0.22879 0.0
O48 O 0.3865 0.14873 0.21146 0.0
C49 C 0.35838 0.19137 0.17481 0.0
C50 C 0.32519 0.15416 0.12221 0.0
C51 C 0.38703 0.14362 0.17974 0.0
O52 O 0.35362 0.17881 0.1538 0.0
O53 O 0.36276 0.18853 0.20666 0.0
O54 O 0.34157 0.12879 0.17739 0.0
O55 O 0.34639 0.15247 0.20994 0.0
Co56 Co 0.09451 0.90985 0.0765 0.0
O57 O 0.08916 0.93446 0.08569 0.0
O58 O 0.09847 0.91492 0.12528 0.0
C59 C 0.11063 0.91495 0.02808 0.0
O60 O 0.10215 0.88371 0.07616 0.0
Co61 Co 0.08096 0.89154 0.00878 0.0
O62 O 0.0969 0.87166 0.02338 0.0
C63 C 0.05571 0.89929 0.06585 0.0
C64 C 0.09375 0.93122 0.11772 0.0
C65 C 0.10341 0.87077 0.05409 0.0
O66 O 0.06888 0.90309 0.08616 0.0
O67 O 0.05762 0.89603 0.03325 0.0
O68 O 0.11802 0.91657 0.0586 0.0
O69 O 0.09363 0.91184 0.02805 0.0
Co70 Co 0.34069 0.84324 0.33108 0.0
O71 O 0.31655 0.83727 0.34298 0.0
O72 O 0.33752 0.84547 0.38084 0.0
C73 C 0.33386 0.86118 0.2862 0.0
O74 O 0.36674 0.85094 0.3283 0.0
Co75 Co 0.35673 0.83276 0.25949 0.0
O76 O 0.37657 0.84903 0.27304 0.0
C77 C 0.35209 0.80519 0.31395 0.0
C78 C 0.32105 0.84072 0.37499 0.0
C79 C 0.37867 0.85379 0.30471 0.0
O80 O 0.3478 0.81741 0.33606 0.0
O81 O 0.35483 0.80841 0.28156 0.0
O82 O 0.33349 0.86733 0.31789 0.0
O83 O 0.33682 0.84423 0.28293 0.0
Co84 Co 0.39735 0.09182 0.57711 0.0
O85 O 0.40144 0.06688 0.58498 0.0
O86 O 0.3965 0.08697 0.62653 0.0
C87 C 0.37769 0.08809 0.53376 0.0
O88 O 0.39179 0.11849 0.57847 0.0
Co89 Co 0.40784 0.10896 0.50634 0.0
O90 O 0.39521 0.13025 0.52487 0.0
C91 C 0.43596 0.10063 0.55763 0.0
C92 C 0.39944 0.07039 0.61789 0.0
C93 C 0.39059 0.1316 0.55678 0.0
O94 O 0.42383 0.09666 0.58015 0.0
O95 O 0.43239 0.1045 0.52583 0.0
O96 O 0.37237 0.08693 0.5659 0.0
O97 O 0.3947 0.08983 0.52882 0.0
Co98 Co 0.15919 0.15392 0.83624 0.0
O99 O 0.18389 0.15817 0.84642 0.0
O100 O 0.16326 0.15104 0.88565 0.0
C101 C 0.16403 0.13619 0.79001 0.0
O102 O 0.13272 0.14769 0.83512 0.0
Co103 Co 0.14267 0.16659 0.76633 0.0
O104 O 0.12173 0.15209 0.78121 0.0
C105 C 0.15016 0.19289 0.8216 0.0
C106 C 0.17991 0.15462 0.87863 0.0
C107 C 0.12007 0.14647 0.81246 0.0
O108 O 0.15361 0.18007 0.84295 0.0
O109 O 0.14712 0.19042 0.78907 0.0
O110 O 0.16471 0.12963 0.82136 0.0
O111 O 0.16202 0.15332 0.78782 0.0
Co112 Co 0.90073 0.90471 0.58184 0.0
O113 O 0.90447 0.92949 0.59152 0.0
O114 O 0.89892 0.90876 0.63153 0.0
C115 C 0.88194 0.9094 0.5375 0.0
O116 O 0.89528 0.87803 0.58109 0.0
Co117 Co 0.91217 0.88866 0.51103 0.0
O118 O 0.89826 0.86747 0.52652 0.0
C119 C 0.93961 0.89718 0.56362 0.0
C120 C 0.90188 0.92549 0.62404 0.0
C121 C 0.89359 0.86549 0.55829 0.0
O122 O 0.92719 0.9001 0.58616 0.0
O123 O 0.93639 0.8939 0.53142 0.0
O124 O 0.87593 0.90948 0.56927 0.0
O125 O 0.89903 0.90778 0.53362 0.0
Co126 Co 0.84066 0.15802 0.33774 0.0
O127 O 0.81654 0.16492 0.3479 0.0
O128 O 0.836 0.1549 0.38696 0.0
C129 C 0.83382 0.14182 0.29037 0.0
O130 O 0.86635 0.14893 0.33657 0.0
Co131 Co 0.85907 0.16899 0.26845 0.0
O132 O 0.87682 0.15043 0.2817 0.0
C133 C 0.85495 0.19554 0.32518 0.0
C134 C 0.81992 0.16054 0.37998 0.0
C135 C 0.8782 0.14524 0.31325 0.0
O136 O 0.84901 0.18329 0.34575 0.0
O137 O 0.85854 0.19275 0.29295 0.0
O138 O 0.83246 0.13471 0.3212 0.0
O139 O 0.83797 0.15857 0.28943 0.0
Co140 Co 0.60163 0.09254 0.07742 0.0
O141 O 0.59656 0.06787 0.08636 0.0
O142 O 0.60214 0.08824 0.12707 0.0
C143 C 0.62116 0.08744 0.03445 0.0
O144 O 0.60812 0.11897 0.0778 0.0
Co145 Co 0.59232 0.10959 0.00618 0.0
O146 O 0.60743 0.12966 0.023 0.0
C147 C 0.56354 0.10273 0.05702 0.0
C148 C 0.59852 0.07169 0.11915 0.0
C149 C 0.61117 0.13138 0.05528 0.0
O150 O 0.57539 0.09837 0.07982 0.0
O151 O 0.56742 0.10638 0.02524 0.0
O152 O 0.62643 0.08666 0.06668 0.0
O153 O 0.60426 0.08983 0.02925 0.0
Co154 Co 0.65851 0.84342 0.8296 0.0
O155 O 0.68312 0.83814 0.83871 0.0
O156 O 0.66366 0.84771 0.87824 0.0
C157 C 0.66354 0.85925 0.78083 0.0
O158 O 0.63236 0.85106 0.82926 0.0
Co159 Co 0.64012 0.82948 0.7622 0.0
O160 O 0.62012 0.84527 0.77684 0.0
C161 C 0.6486 0.80452 0.81928 0.0
C162 C 0.67996 0.84301 0.87061 0.0
C163 C 0.61934 0.85205 0.80734 0.0
O164 O 0.65181 0.8178 0.83973 0.0
O165 O 0.64554 0.80632 0.78659 0.0
O166 O 0.66523 0.86682 0.81116 0.0
O167 O 0.66041 0.84227 0.78119 0.0
Co168 Co 0.90837 0.0842 0.92463 0.0
O169 O 0.91285 0.05982 0.91235 0.0
O170 O 0.90516 0.08117 0.875 0.0
C171 C 0.89105 0.07809 0.97078 0.0
O172 O 0.90194 0.11057 0.92829 0.0
Co173 Co 0.92121 0.09937 0.99552 0.0
O174 O 0.90475 0.11944 0.98407 0.0
C175 C 0.94722 0.09423 0.93845 0.0
C176 C 0.909 0.06442 0.8806 0.0
C177 C 0.89962 0.12213 0.95278 0.0
O178 O 0.93434 0.09027 0.91759 0.0
O179 O 0.94497 0.09694 0.97118 0.0
O180 O 0.88426 0.07807 0.93959 0.0
O181 O 0.90818 0.08025 0.97274 0.0
Co182 Co 0.65154 0.15202 0.66045 0.0
O183 O 0.67633 0.15738 0.65334 0.0
O184 O 0.65733 0.14961 0.61152 0.0
C185 C 0.65627 0.1345 0.70714 0.0
O186 O 0.6253 0.1447 0.65823 0.0
Co187 Co 0.63207 0.16299 0.7284 0.0
O188 O 0.61299 0.14669 0.71156 0.0
C189 C 0.6397 0.19025 0.6745 0.0
C190 C 0.67355 0.1539 0.62065 0.0
C191 C 0.61231 0.14196 0.67964 0.0
O192 O 0.64512 0.17794 0.65355 0.0
O193 O 0.63517 0.18715 0.70617 0.0
O194 O 0.65783 0.12794 0.67588 0.0
O195 O 0.65301 0.15143 0.70904 0.0
Co196 Co 0.59224 0.91061 0.41488 0.0
O197 O 0.58586 0.93484 0.40454 0.0
O198 O 0.59539 0.91498 0.3657 0.0
C199 C 0.60869 0.91707 0.46217 0.0
O200 O 0.60085 0.88478 0.4161 0.0
Co201 Co 0.58068 0.89248 0.48406 0.0
O202 O 0.59815 0.87375 0.47036 0.0
C203 C 0.55424 0.89771 0.42765 0.0
C204 C 0.59014 0.93121 0.37249 0.0
C205 C 0.60371 0.87251 0.43902 0.0
O206 O 0.56679 0.9028 0.40691 0.0
O207 O 0.55685 0.8943 0.46 0.0
O208 O 0.61569 0.91844 0.43124 0.0
O209 O 0.59185 0.91326 0.4632 0.0
Co210 Co 0.84235 0.84415 0.16319 0.0
O211 O 0.81782 0.83986 0.15165 0.0
O212 O 0.83889 0.84772 0.11379 0.0
C213 C 0.83647 0.86108 0.21006 0.0
O214 O 0.86875 0.85069 0.16582 0.0
Co215 Co 0.85853 0.83115 0.23301 0.0
O216 O 0.87909 0.84662 0.22026 0.0
C217 C 0.85273 0.8053 0.17579 0.0
C218 C 0.82218 0.84399 0.11989 0.0
C219 C 0.88104 0.85229 0.18914 0.0
O220 O 0.84823 0.81817 0.1553 0.0
O221 O 0.85613 0.80758 0.20825 0.0
O222 O 0.83631 0.86813 0.17908 0.0
O223 O 0.83887 0.84398 0.2115 0.0
Co224 Co 0.59472 0.59004 0.91257 0.0
O225 O 0.58978 0.5656 0.90187 0.0
O226 O 0.59633 0.58648 0.86273 0.0
C227 C 0.61347 0.58435 0.95653 0.0
O228 O 0.60131 0.61642 0.91459 0.0
Co229 Co 0.58365 0.60549 0.98427 0.0
O230 O 0.59779 0.62664 0.96936 0.0
C231 C 0.55613 0.59916 0.93081 0.0
C232 C 0.59246 0.56985 0.8695 0.0
C233 C 0.60292 0.62872 0.93789 0.0
O234 O 0.56852 0.59592 0.90842 0.0
O235 O 0.55927 0.60174 0.96328 0.0
O236 O 0.6193 0.58414 0.92464 0.0
O237 O 0.59644 0.58643 0.9607 0.0
Co238 Co 0.66064 0.34727 0.1606 0.0
O239 O 0.68478 0.3412 0.14905 0.0
O240 O 0.66423 0.35025 0.11107 0.0
C241 C 0.66766 0.36429 0.20666 0.0
O242 O 0.63467 0.35531 0.16311 0.0
Co243 Co 0.64385 0.33622 0.23115 0.0
O244 O 0.6244 0.353 0.21798 0.0
C245 C 0.64866 0.3092 0.17559 0.0
C246 C 0.68062 0.34526 0.11715 0.0
C247 C 0.62262 0.35815 0.18648 0.0
O248 O 0.65333 0.32157 0.15408 0.0
O249 O 0.64554 0.31215 0.20796 0.0
O250 O 0.66809 0.37105 0.17546 0.0
O251 O 0.66426 0.34739 0.20881 0.0
Co252 Co 0.89905 0.41249 0.42062 0.0
O253 O 0.90174 0.43737 0.41022 0.0
O254 O 0.89782 0.41592 0.37083 0.0
C255 C 0.87942 0.41625 0.46412 0.0
O256 O 0.8949 0.38564 0.42163 0.0
Co257 Co 0.90986 0.39711 0.49263 0.0
O258 O 0.89551 0.37615 0.47718 0.0
C259 C 0.93784 0.40506 0.44043 0.0
C260 C 0.89989 0.43284 0.37773 0.0
C261 C 0.89223 0.37357 0.44496 0.0
O262 O 0.92571 0.40884 0.41778 0.0
O263 O 0.93431 0.4013 0.47232 0.0
O264 O 0.87387 0.4161 0.432 0.0
O265 O 0.89652 0.41558 0.46866 0.0
Co266 Co 0.83626 0.65213 0.66528 0.0
O267 O 0.81159 0.65479 0.6534 0.0
O268 O 0.83348 0.64958 0.61548 0.0
C269 C 0.8316 0.63365 0.71032 0.0
O270 O 0.86301 0.64758 0.66835 0.0
Co271 Co 0.85058 0.66501 0.73676 0.0
O272 O 0.87223 0.65111 0.72371 0.0
C273 C 0.84353 0.69142 0.68135 0.0
C274 C 0.81649 0.65185 0.62145 0.0
C275 C 0.87502 0.64628 0.69227 0.0
O276 O 0.84034 0.67861 0.65983 0.0
O277 O 0.8465 0.68888 0.71389 0.0
O278 O 0.83204 0.6274 0.67872 0.0
O279 O 0.83245 0.65085 0.71339 0.0
Co280 Co 0.59141 0.40638 0.57958 0.0
O281 O 0.58785 0.43117 0.58949 0.0
O282 O 0.59498 0.41054 0.62882 0.0
C283 C 0.60844 0.41125 0.53245 0.0
O284 O 0.59699 0.37976 0.57852 0.0
Co285 Co 0.57812 0.38965 0.51039 0.0
O286 O 0.59353 0.36915 0.52409 0.0
C287 C 0.55229 0.39795 0.56649 0.0
C288 C 0.59172 0.42724 0.62157 0.0
C289 C 0.59868 0.3673 0.55559 0.0
O290 O 0.56526 0.40143 0.58748 0.0
O291 O 0.55458 0.39447 0.53405 0.0
O292 O 0.61563 0.41145 0.56332 0.0
O293 O 0.5913 0.4092 0.53129 0.0
Co294 Co 0.84895 0.33713 0.84113 0.0
O295 O 0.82514 0.33037 0.85409 0.0
O296 O 0.84484 0.34341 0.88927 0.0
C297 C 0.84091 0.35019 0.79088 0.0
O298 O 0.87435 0.34676 0.83683 0.0
Co299 Co 0.86705 0.32276 0.77419 0.0
O300 O 0.88571 0.34094 0.7838 0.0
C301 C 0.86259 0.29913 0.83556 0.0
C302 C 0.82881 0.33711 0.88446 0.0
C303 C 0.88664 0.3485 0.81353 0.0
O304 O 0.85776 0.31257 0.85435 0.0
O305 O 0.86551 0.30028 0.8027 0.0
O306 O 0.83995 0.35905 0.81997 0.0
O307 O 0.84566 0.33363 0.7933 0.0
Co308 Co 0.90818 0.59221 0.07944 0.0
O309 O 0.91346 0.56789 0.09087 0.0
O310 O 0.90474 0.58854 0.12885 0.0
C311 C 0.89153 0.58558 0.03276 0.0
O312 O 0.90092 0.61837 0.0769 0.0
Co313 Co 0.92054 0.60875 0.00963 0.0
O314 O 0.90398 0.62857 0.0221 0.0
C315 C 0.94667 0.60332 0.06644 0.0
C316 C 0.9093 0.57202 0.12272 0.0
C317 C 0.89865 0.63049 0.05346 0.0
O318 O 0.93388 0.59898 0.0872 0.0
O319 O 0.94434 0.60632 0.03383 0.0
O320 O 0.88438 0.5854 0.06363 0.0
O321 O 0.90853 0.58861 0.03122 0.0
Co322 Co 0.65804 0.66022 0.32121 0.0
O323 O 0.68247 0.66513 0.33269 0.0
O324 O 0.66164 0.65656 0.37046 0.0
C325 C 0.66403 0.64341 0.27425 0.0
O326 O 0.63179 0.65319 0.31869 0.0
Co327 Co 0.64161 0.67343 0.25184 0.0
O328 O 0.62148 0.65728 0.26423 0.0
C329 C 0.64784 0.69909 0.30897 0.0
C330 C 0.67823 0.66085 0.36444 0.0
C331 C 0.61958 0.65143 0.29525 0.0
O332 O 0.65169 0.68601 0.32939 0.0
O333 O 0.64479 0.69705 0.27632 0.0
O334 O 0.66456 0.63643 0.30526 0.0
O335 O 0.66138 0.6605 0.27284 0.0
Co336 Co 0.40749 0.40711 0.07752 0.0
O337 O 0.41128 0.43187 0.08743 0.0
O338 O 0.40411 0.41128 0.1268 0.0
C339 C 0.39036 0.41218 0.03064 0.0
O340 O 0.40164 0.38055 0.07655 0.0
Co341 Co 0.42035 0.39022 0.00824 0.0
O342 O 0.40515 0.36968 0.02236 0.0
C343 C 0.44651 0.39828 0.06393 0.0
C344 C 0.40748 0.42796 0.11954 0.0
C345 C 0.39995 0.36797 0.05385 0.0
O346 O 0.43366 0.40203 0.08504 0.0
O347 O 0.44402 0.39463 0.03163 0.0
O348 O 0.38327 0.41239 0.06159 0.0
O349 O 0.40747 0.40996 0.02923 0.0
Co350 Co 0.34277 0.65881 0.83301 0.0
O351 O 0.31782 0.66259 0.84176 0.0
O352 O 0.33786 0.65451 0.88156 0.0
C353 C 0.33913 0.64235 0.78464 0.0
O354 O 0.36925 0.65277 0.83346 0.0
Co355 Co 0.36086 0.67336 0.76597 0.0
O356 O 0.38138 0.65829 0.78091 0.0
C357 C 0.35191 0.69812 0.82321 0.0
C358 C 0.3213 0.65812 0.87379 0.0
C359 C 0.38237 0.65202 0.81179 0.0
O360 O 0.34799 0.68475 0.8429 0.0
O361 O 0.35581 0.6965 0.79081 0.0
O362 O 0.33767 0.63496 0.81518 0.0
O363 O 0.34109 0.65953 0.78446 0.0
Co364 Co 0.09016 0.59225 0.58669 0.0
O365 O 0.08578 0.56782 0.59866 0.0
O366 O 0.09386 0.58898 0.63611 0.0
C367 C 0.10713 0.58631 0.54001 0.0
O368 O 0.09665 0.61862 0.58337 0.0
Co369 Co 0.07676 0.60771 0.51645 0.0
O370 O 0.09191 0.62859 0.52882 0.0
C371 C 0.05115 0.60172 0.57381 0.0
C372 C 0.09002 0.57226 0.63032 0.0
C373 C 0.09786 0.63078 0.5597 0.0
O374 O 0.06421 0.59818 0.59454 0.0
O375 O 0.05323 0.6044 0.54104 0.0
O376 O 0.11415 0.5862 0.571 0.0
O377 O 0.09 0.5885 0.5385 0.0
Co378 Co 0.15018 0.3421 0.33639 0.0
O379 O 0.17506 0.33697 0.34227 0.0
O380 O 0.15678 0.34573 0.38458 0.0
C381 C 0.15396 0.35866 0.28817 0.0
O382 O 0.12399 0.34945 0.3395 0.0
Co383 Co 0.12989 0.32907 0.27079 0.0
O384 O 0.11078 0.34544 0.28742 0.0
C385 C 0.1394 0.30332 0.326 0.0
C386 C 0.17288 0.34141 0.37469 0.0
C387 C 0.11062 0.35132 0.31864 0.0
O388 O 0.14402 0.31635 0.34596 0.0
O389 O 0.13484 0.30546 0.29404 0.0
O390 O 0.15616 0.36578 0.31878 0.0
O391 O 0.15081 0.34166 0.2877 0.0
Co392 Co 0.40789 0.59099 0.41162 0.0
O393 O 0.41313 0.56651 0.40131 0.0
O394 O 0.40341 0.58646 0.36284 0.0
C395 C 0.39249 0.5849 0.46029 0.0
O396 O 0.40036 0.61713 0.41296 0.0
Co397 Co 0.42146 0.60899 0.47918 0.0
O398 O 0.40493 0.62871 0.46625 0.0
C399 C 0.44656 0.60232 0.42103 0.0
C400 C 0.40826 0.57009 0.36959 0.0
C401 C 0.39873 0.62985 0.43536 0.0
O402 O 0.43339 0.59777 0.4013 0.0
O403 O 0.44473 0.60588 0.45354 0.0
O404 O 0.38455 0.58417 0.43018 0.0
O405 O 0.40943 0.58828 0.45989 0.0
Co406 Co 0.15941 0.65805 0.16666 0.0
O407 O 0.18421 0.66062 0.15578 0.0
O408 O 0.16302 0.65348 0.11759 0.0
C409 C 0.16392 0.64163 0.21467 0.0
O410 O 0.13269 0.65326 0.16889 0.0
Co411 Co 0.14379 0.67323 0.23541 0.0
O412 O 0.12229 0.65899 0.22273 0.0
C413 C 0.15302 0.69769 0.17778 0.0
C414 C 0.17988 0.65629 0.12412 0.0
C415 C 0.12019 0.65286 0.19196 0.0
O416 O 0.15527 0.68425 0.15726 0.0
O417 O 0.15005 0.69606 0.21054 0.0
O418 O 0.16377 0.63397 0.18425 0.0
O419 O 0.16259 0.65885 0.21484 0.0
Co420 Co 0.09862 0.40802 0.91692 0.0
O421 O 0.0962 0.433 0.90777 0.0
O422 O 0.10294 0.41247 0.86797 0.0
C423 C 0.11536 0.41156 0.96499 0.0
O424 O 0.10319 0.38119 0.91765 0.0
Co425 Co 0.08317 0.39189 0.98514 0.0
O426 O 0.09679 0.37028 0.97091 0.0
C427 C 0.05885 0.40235 0.92826 0.0
C428 C 0.10033 0.42922 0.87576 0.0
C429 C 0.10309 0.36841 0.94019 0.0
O430 O 0.07232 0.40425 0.90767 0.0
O431 O 0.06046 0.39921 0.96097 0.0
O432 O 0.12281 0.41202 0.93438 0.0
O433 O 0.09813 0.41039 0.96526 0.0
Co434 Co 0.33778 0.34668 0.66075 0.0
O435 O 0.31347 0.34177 0.64866 0.0
O436 O 0.33474 0.34926 0.61098 0.0
C437 C 0.33125 0.36439 0.70608 0.0
O438 O 0.36403 0.35357 0.66398 0.0
Co439 Co 0.35318 0.33507 0.73223 0.0
O440 O 0.37398 0.35015 0.71889 0.0
C441 C 0.34753 0.30812 0.67715 0.0
C442 C 0.31803 0.34533 0.61676 0.0
C443 C 0.37615 0.35545 0.68755 0.0
O444 O 0.34411 0.32065 0.65512 0.0
O445 O 0.34993 0.31097 0.70977 0.0
O446 O 0.33133 0.3709 0.67466 0.0
O447 O 0.33377 0.34736 0.70879 0.0
H448 H 0.09359 0.07527 0.30595 0.0
H449 H 0.09519 0.05251 0.25981 0.0
H450 H 0.09422 0.01086 0.3377 0.0
H451 H 0.09241 0.03336 0.38368 0.0
H452 H 0.12076 0.0063 0.28486 0.0
H453 H 0.05747 0.01905 0.29802 0.0
H454 H 0.03122 0.03903 0.2995 0.0
H455 H 0.04179 0.05541 0.19409 0.0
H456 H 0.06827 0.0357 0.19217 0.0
H457 H 0.09917 0.92848 0.18818 0.0
H458 H 0.10004 0.95292 0.23069 0.0
H459 H 0.09067 0.99108 0.14813 0.0
H460 H 0.08926 0.96676 0.10586 0.0
H461 H 0.07061 0.99891 0.20125 0.0
H462 H 0.13252 0.98538 0.18534 0.0
H463 H 0.15957 0.96655 0.18287 0.0
H464 H 0.15307 0.95296 0.291 0.0
H465 H 0.12582 0.97152 0.294 0.0
C466 C 0.09373 0.06126 0.31314 0.0
C467 C 0.09276 0.05606 0.34831 0.0
C468 C 0.09465 0.04832 0.28686 0.0
C469 C 0.09481 0.03007 0.29553 0.0
C470 C 0.09416 0.0249 0.33061 0.0
C471 C 0.09301 0.03777 0.35677 0.0
C472 C 0.09512 0.01622 0.26816 0.0
C473 C 0.10978 0.00454 0.26667 0.0
C474 C 0.08096 0.01434 0.24406 0.0
C475 C 0.06495 0.02606 0.24509 0.0
C476 C 0.05428 0.02702 0.27526 0.0
C477 C 0.03935 0.03828 0.27616 0.0
C478 C 0.03487 0.04853 0.24694 0.0
C479 C 0.04529 0.04749 0.21672 0.0
C480 C 0.06025 0.03627 0.2157 0.0
C481 C 0.09727 0.94208 0.17917 0.0
C482 C 0.09413 0.94572 0.14376 0.0
C483 C 0.09789 0.95604 0.2034 0.0
C484 C 0.09566 0.97385 0.19248 0.0
C485 C 0.09243 0.97745 0.15713 0.0
C486 C 0.09164 0.96352 0.13301 0.0
C487 C 0.09625 0.98875 0.21791 0.0
C488 C 0.08173 0.00066 0.21913 0.0
C489 C 0.11066 0.99095 0.24152 0.0
C490 C 0.12702 0.97971 0.23979 0.0
C491 C 0.13677 0.97826 0.20852 0.0
C492 C 0.15216 0.96765 0.20704 0.0
C493 C 0.15801 0.95853 0.23673 0.0
C494 C 0.14851 0.96002 0.268 0.0
C495 C 0.1331 0.97059 0.26961 0.0
H496 H 0.16993 0.95033 0.23554 0.0
H497 H 0.0233 0.05723 0.24769 0.0
H498 H 0.18066 0.86647 0.56365 0.0
H499 H 0.20609 0.86696 0.52335 0.0
H500 H 0.22771 0.81987 0.57334 0.0
H501 H 0.203 0.82018 0.61499 0.0
H502 H 0.25322 0.84096 0.56281 0.0
H503 H 0.20475 0.82015 0.48978 0.0
H504 H 0.17502 0.82174 0.46196 0.0
H505 H 0.18959 0.87109 0.41213 0.0
H506 H 0.21934 0.86989 0.43998 0.0
H507 H 0.29156 0.8198 0.37701 0.0
H508 H 0.26761 0.8203 0.42025 0.0
H509 H 0.29558 0.86152 0.47742 0.0
H510 H 0.32009 0.8603 0.43501 0.0
H511 H 0.2455 0.84489 0.43455 0.0
H512 H 0.28302 0.8614 0.56232 0.0
H513 H 0.31248 0.85633 0.58966 0.0
H514 H 0.31936 0.80851 0.52903 0.0
H515 H 0.28986 0.81318 0.50165 0.0
C516 C 0.19081 0.85618 0.5657 0.0
C517 C 0.18994 0.84324 0.59215 0.0
C518 C 0.2053 0.85642 0.54267 0.0
C519 C 0.21875 0.84331 0.54498 0.0
C520 C 0.2176 0.83019 0.57111 0.0
C521 C 0.20344 0.83029 0.59473 0.0
C522 C 0.2342 0.84327 0.5207 0.0
C523 C 0.25151 0.84178 0.53474 0.0
C524 C 0.23204 0.84432 0.48407 0.0
C525 C 0.21419 0.84501 0.46722 0.0
C526 C 0.20156 0.83139 0.47305 0.0
C527 C 0.18472 0.83222 0.45726 0.0
C528 C 0.1804 0.84653 0.43537 0.0
C529 C 0.19294 0.86003 0.42914 0.0
C530 C 0.20979 0.85927 0.44489 0.0
C531 C 0.2927 0.82876 0.39914 0.0
C532 C 0.30761 0.83998 0.40287 0.0
C533 C 0.27899 0.82911 0.42371 0.0
C534 C 0.27977 0.84094 0.45213 0.0
C535 C 0.29481 0.85205 0.4561 0.0
C536 C 0.30878 0.85137 0.43188 0.0
C537 C 0.26445 0.84197 0.47661 0.0
C538 C 0.2472 0.84397 0.46262 0.0
C539 C 0.26663 0.8408 0.5132 0.0
C540 C 0.28433 0.83776 0.52968 0.0
C541 C 0.29081 0.84978 0.55491 0.0
C542 C 0.30751 0.84698 0.57039 0.0
C543 C 0.31782 0.83214 0.56099 0.0
C544 C 0.3114 0.82004 0.53618 0.0
C545 C 0.2947 0.82277 0.52064 0.0
H546 H 0.33075 0.83 0.573 0.0
H547 H 0.16735 0.84715 0.42317 0.0
H548 H 0.40193 0.07341 0.68888 0.0
H549 H 0.40324 0.04892 0.73145 0.0
H550 H 0.39936 0.01042 0.64794 0.0
H551 H 0.39821 0.03468 0.60537 0.0
H552 H 0.37643 0.00343 0.70543 0.0
H553 H 0.43823 0.01691 0.68056 0.0
H554 H 0.46441 0.03679 0.67507 0.0
H555 H 0.4605 0.05031 0.78371 0.0
H556 H 0.4341 0.03072 0.78972 0.0
H557 H 0.40052 0.92594 0.80357 0.0
H558 H 0.39919 0.94918 0.75845 0.0
H559 H 0.41132 0.98937 0.8358 0.0
H560 H 0.41309 0.96636 0.88052 0.0
H561 H 0.43027 0.99502 0.7794 0.0
H562 H 0.36857 0.98285 0.80534 0.0
H563 H 0.34153 0.96428 0.81211 0.0
H564 H 0.34416 0.94955 0.70393 0.0
H565 H 0.37139 0.96785 0.69663 0.0
C566 C 0.40135 0.05972 0.67968 0.0
C567 C 0.40008 0.05592 0.64389 0.0
C568 C 0.40211 0.04579 0.70393 0.0
C569 C 0.40146 0.02793 0.69265 0.0
C570 C 0.39986 0.02413 0.65702 0.0
C571 C 0.39931 0.03801 0.6328 0.0
C572 C 0.40279 0.01313 0.71792 0.0
C573 C 0.38826 0.00141 0.72137 0.0
C574 C 0.41811 0.01083 0.73899 0.0
C575 C 0.43408 0.02249 0.7355 0.0
C576 C 0.44286 0.02424 0.70321 0.0
C577 C 0.45775 0.03543 0.70001 0.0
C578 C 0.46408 0.04484 0.729 0.0
C579 C 0.45556 0.04303 0.76127 0.0
C580 C 0.44064 0.03188 0.76459 0.0
C581 C 0.40297 0.93973 0.81082 0.0
C582 C 0.4069 0.94434 0.84552 0.0
C583 C 0.40211 0.95298 0.78512 0.0
C584 C 0.40499 0.97101 0.7939 0.0
C585 C 0.4091 0.97554 0.82846 0.0
C586 C 0.41006 0.96236 0.854 0.0
C587 C 0.40381 0.9853 0.76732 0.0
C588 C 0.41841 0.99695 0.76349 0.0
C589 C 0.38846 0.98763 0.74618 0.0
C590 C 0.37214 0.97655 0.75055 0.0
C591 C 0.36348 0.97552 0.78308 0.0
C592 C 0.3481 0.96507 0.78699 0.0
C593 C 0.34116 0.9557 0.7585 0.0
C594 C 0.34957 0.95679 0.726 0.0
C595 C 0.36497 0.9672 0.72195 0.0
H596 H 0.32924 0.94763 0.76158 0.0
H597 H 0.47562 0.0535 0.72647 0.0
H598 H 0.17593 0.15102 0.94939 0.0
H599 H 0.19984 0.14963 0.99324 0.0
H600 H 0.23941 0.15518 0.91199 0.0
H601 H 0.21576 0.15665 0.86827 0.0
H602 H 0.24711 0.12786 0.96018 0.0
H603 H 0.22894 0.19038 0.95865 0.0
H604 H 0.20686 0.21476 0.96401 0.0
H605 H 0.1951 0.19844 0.06897 0.0
H606 H 0.21693 0.1738 0.06404 0.0
H607 H 0.32608 0.15128 0.05098 0.0
H608 H 0.30042 0.15018 0.01127 0.0
H609 H 0.26446 0.15433 0.09907 0.0
H610 H 0.28992 0.15605 0.13855 0.0
H611 H 0.25337 0.17513 0.05025 0.0
H612 H 0.27166 0.11417 0.05559 0.0
H613 H 0.29233 0.08852 0.05236 0.0
H614 H 0.3022 0.09966 0.94413 0.0
H615 H 0.28176 0.12554 0.94683 0.0
C616 C 0.18973 0.15197 0.94096 0.0
C617 C 0.194 0.15403 0.90549 0.0
C618 C 0.20333 0.15116 0.96596 0.0
C619 C 0.22133 0.15233 0.9557 0.0
C620 C 0.22558 0.1542 0.92031 0.0
C621 C 0.21204 0.15515 0.89544 0.0
C622 C 0.23588 0.15198 0.9817 0.0
C623 C 0.24861 0.13824 0.97977 0.0
C624 C 0.2374 0.16523 0.0078 0.0
C625 C 0.22442 0.18015 0.01084 0.0
C626 C 0.22154 0.19191 0.98277 0.0
C627 C 0.20909 0.20579 0.98575 0.0
C628 C 0.19955 0.20812 0.01677 0.0
C629 C 0.20248 0.1966 0.04493 0.0
C630 C 0.21489 0.18269 0.04207 0.0
C631 C 0.31269 0.152 0.0617 0.0
C632 C 0.30999 0.15378 0.09778 0.0
C633 C 0.29805 0.15125 0.03907 0.0
C634 C 0.28051 0.15193 0.05228 0.0
C635 C 0.27785 0.1538 0.0883 0.0
C636 C 0.29244 0.15477 0.11082 0.0
C637 C 0.26488 0.15109 0.0286 0.0
C638 C 0.25189 0.16462 0.03093 0.0
C639 C 0.26296 0.13744 0.00326 0.0
C640 C 0.2753 0.12191 0.00151 0.0
C641 C 0.27835 0.11124 0.03117 0.0
C642 C 0.29 0.09664 0.02942 0.0
C643 C 0.29861 0.09249 0.99808 0.0
C644 C 0.29554 0.1029 0.9684 0.0
C645 C 0.28391 0.11753 0.97002 0.0
H646 H 0.30762 0.08118 0.99678 0.0
H647 H 0.18991 0.21887 0.01903 0.0
H648 H 0.90145 0.96126 0.6128 0.0
H649 H 0.90177 0.98508 0.65602 0.0
H650 H 0.90298 0.94588 0.73869 0.0
H651 H 0.90215 0.92176 0.69523 0.0
H652 H 0.88024 0.9727 0.75347 0.0
H653 H 0.94099 0.96807 0.71399 0.0
H654 H 0.96516 0.96675 0.67025 0.0
H655 H 0.95109 0.01922 0.63381 0.0
H656 H 0.92667 0.02076 0.67704 0.0
H657 H 0.91185 0.02848 0.88829 0.0
H658 H 0.90943 0.00561 0.84327 0.0
H659 H 0.90196 0.04648 0.76516 0.0
H660 H 0.90428 0.06966 0.81039 0.0
H661 H 0.92719 0.01958 0.74722 0.0
H662 H 0.86696 0.02436 0.78869 0.0
H663 H 0.84309 0.02545 0.83304 0.0
H664 H 0.85672 0.9724 0.86677 0.0
H665 H 0.88086 0.97109 0.82294 0.0
C666 C 0.90181 0.95766 0.64017 0.0
C667 C 0.90195 0.93965 0.65071 0.0
C668 C 0.90204 0.9713 0.66482 0.0
C669 C 0.90275 0.96724 0.70049 0.0
C670 C 0.90253 0.94927 0.71122 0.0
C671 C 0.90211 0.93553 0.68645 0.0
C672 C 0.90379 0.98184 0.72639 0.0
C673 C 0.89065 0.98281 0.75243 0.0
C674 C 0.91711 0.99528 0.72435 0.0
C675 C 0.93191 0.99446 0.69856 0.0
C676 C 0.94298 0.97928 0.6965 0.0
C677 C 0.95673 0.9785 0.67181 0.0
C678 C 0.95963 0.99288 0.64921 0.0
C679 C 0.94882 0.00809 0.65131 0.0
C680 C 0.93503 0.00893 0.67592 0.0
C681 C 0.90974 0.03266 0.86154 0.0
C682 C 0.90823 0.05086 0.8528 0.0
C683 C 0.90827 0.01956 0.83592 0.0
C684 C 0.90532 0.0244 0.8011 0.0
C685 C 0.90416 0.04256 0.79203 0.0
C686 C 0.90547 0.05573 0.81781 0.0
C687 C 0.90372 0.01035 0.77431 0.0
C688 C 0.91677 0.00949 0.74814 0.0
C689 C 0.89038 0.99697 0.77636 0.0
C690 C 0.87584 0.99769 0.80273 0.0
C691 C 0.86498 0.01298 0.80577 0.0
C692 C 0.85137 0.01363 0.83077 0.0
C693 C 0.84842 0.99902 0.85277 0.0
C694 C 0.85904 0.98371 0.84974 0.0
C695 C 0.87267 0.983 0.82479 0.0
H696 H 0.83788 0.99954 0.87211 0.0
H697 H 0.97028 0.99224 0.63011 0.0
H698 H 0.78515 0.16978 0.37015 0.0
H699 H 0.76099 0.16925 0.41265 0.0
H700 H 0.79808 0.15257 0.49261 0.0
H701 H 0.82243 0.15264 0.44969 0.0
H702 H 0.76868 0.13294 0.49497 0.0
H703 H 0.78112 0.19532 0.49059 0.0
H704 H 0.78625 0.22508 0.46466 0.0
H705 H 0.73333 0.22456 0.42109 0.0
H706 H 0.72798 0.19467 0.44624 0.0
H707 H 0.70897 0.15253 0.63553 0.0
H708 H 0.73401 0.1534 0.59463 0.0
H709 H 0.6971 0.15743 0.5085 0.0
H710 H 0.67179 0.1562 0.54942 0.0
H711 H 0.72672 0.18372 0.51117 0.0
H712 H 0.71532 0.1203 0.51621 0.0
H713 H 0.7106 0.09143 0.54593 0.0
H714 H 0.76272 0.09518 0.5925 0.0
H715 H 0.76764 0.12423 0.56346 0.0
C716 C 0.78825 0.16613 0.39683 0.0
C717 C 0.8057 0.16127 0.40663 0.0
C718 C 0.77441 0.16592 0.42116 0.0
C719 C 0.77777 0.1611 0.45591 0.0
C720 C 0.79523 0.15638 0.46591 0.0
C721 C 0.80912 0.15648 0.44144 0.0
C722 C 0.76282 0.1603 0.48121 0.0
C723 C 0.75969 0.14416 0.49892 0.0
C724 C 0.75089 0.17482 0.48586 0.0
C725 C 0.7542 0.19267 0.4701 0.0
C726 C 0.77064 0.20146 0.47517 0.0
C727 C 0.77358 0.21837 0.46067 0.0
C728 C 0.76013 0.22669 0.44125 0.0
C729 C 0.74374 0.21809 0.43615 0.0
C730 C 0.74074 0.20117 0.45053 0.0
C731 C 0.70616 0.15357 0.60788 0.0
C732 C 0.68846 0.15434 0.59557 0.0
C733 C 0.72047 0.154 0.58461 0.0
C734 C 0.71732 0.15541 0.5487 0.0
C735 C 0.69969 0.1563 0.53622 0.0
C736 C 0.68531 0.15556 0.55952 0.0
C737 C 0.73259 0.15639 0.52441 0.0
C738 C 0.73577 0.17257 0.50708 0.0
C739 C 0.74469 0.14202 0.52049 0.0
C740 C 0.74177 0.12454 0.53795 0.0
C741 C 0.7257 0.11506 0.53307 0.0
C742 C 0.72301 0.09864 0.54973 0.0
C743 C 0.73633 0.0915 0.57117 0.0
C744 C 0.7524 0.10074 0.57592 0.0
C745 C 0.75515 0.11718 0.55934 0.0
H746 H 0.73422 0.07878 0.58404 0.0
H747 H 0.76235 0.23983 0.43028 0.0
H748 H 0.58508 0.9668 0.3824 0.0
H749 H 0.58586 0.99042 0.33871 0.0
H750 H 0.59488 0.95114 0.25803 0.0
H751 H 0.59467 0.92735 0.30204 0.0
H752 H 0.61662 0.97859 0.24989 0.0
H753 H 0.55384 0.9717 0.26823 0.0
H754 H 0.52608 0.96924 0.30259 0.0
H755 H 0.53405 0.0223 0.34264 0.0
H756 H 0.56202 0.02499 0.30886 0.0
H757 H 0.5966 0.0359 0.10807 0.0
H758 H 0.59484 0.0122 0.15165 0.0
H759 H 0.59535 0.05161 0.23386 0.0
H760 H 0.59725 0.07558 0.19019 0.0
H761 H 0.56855 0.02417 0.24051 0.0
H762 H 0.63191 0.03024 0.22048 0.0
H763 H 0.65913 0.03192 0.18427 0.0
H764 H 0.64886 0.9792 0.14455 0.0
H765 H 0.62142 0.9773 0.18016 0.0
C766 C 0.58711 0.96315 0.35533 0.0
C767 C 0.58975 0.94523 0.34555 0.0
C768 C 0.58748 0.97667 0.33037 0.0
C769 C 0.59016 0.97251 0.29507 0.0
C770 C 0.59275 0.95461 0.28516 0.0
C771 C 0.59257 0.94105 0.31025 0.0
C772 C 0.59077 0.98698 0.26878 0.0
C773 C 0.60597 0.98839 0.24747 0.0
C774 C 0.57704 -4e-05 0.26615 0.0
C775 C 0.56011 0.99848 0.28623 0.0
C776 C 0.54974 0.9828 0.28454 0.0
C777 C 0.53395 0.98137 0.30389 0.0
C778 C 0.52832 0.99559 0.32486 0.0
C779 C 0.53844 0.01129 0.32641 0.0
C780 C 0.55425 0.01278 0.30713 0.0
C781 C 0.59631 0.03957 0.13541 0.0
C782 C 0.5971 0.05758 0.1458 0.0
C783 C 0.59536 0.026 0.16022 0.0
C784 C 0.59511 0.03021 0.19582 0.0
C785 C 0.59558 0.04818 0.20639 0.0
C786 C 0.59671 0.06181 0.18151 0.0
C787 C 0.59436 0.01572 0.22186 0.0
C788 C 0.57915 0.01433 0.24303 0.0
C789 C 0.60796 0.00263 0.22404 0.0
C790 C 0.62451 0.0037 0.20274 0.0
C791 C 0.63537 0.01906 0.2038 0.0
C792 C 0.65086 0.02004 0.18343 0.0
C793 C 0.6557 0.00569 0.16206 0.0
C794 C 0.64509 0.99031 0.16108 0.0
C795 C 0.62957 0.98927 0.18138 0.0
H796 H 0.6677 0.00647 0.14631 0.0
H797 H 0.5161 0.99447 0.33985 0.0
H798 H 0.7152 0.8367 0.85885 0.0
H799 H 0.73976 0.83859 0.90038 0.0
H800 H 0.70267 0.85303 0.98195 0.0
H801 H 0.67787 0.85152 0.94008 0.0
H802 H 0.73277 0.87328 0.98463 0.0
H803 H 0.71866 0.81133 0.97898 0.0
H804 H 0.71203 0.7826 0.95054 0.0
H805 H 0.76428 0.78229 0.90388 0.0
H806 H 0.77114 0.81125 0.9318 0.0
H807 H 0.78641 0.84707 0.12943 0.0
H808 H 0.76322 0.84915 0.08477 0.0
H809 H 0.80338 0.84546 0.00426 0.0
H810 H 0.82687 0.84373 0.04905 0.0
H811 H 0.77257 0.82069 3e-05 0.0
H812 H 0.78647 0.88317 0.01212 0.0
H813 H 0.79161 0.91114 0.0447 0.0
H814 H 0.73796 0.90914 0.08461 0.0
H815 H 0.73258 0.881 0.05267 0.0
C816 C 0.71221 0.84024 0.88563 0.0
C817 C 0.69459 0.84381 0.89633 0.0
C818 C 0.72628 0.84131 0.90932 0.0
C819 C 0.72299 0.84574 0.94428 0.0
C820 C 0.70545 0.84957 0.95504 0.0
C821 C 0.69131 0.84859 0.9312 0.0
C822 C 0.73794 0.846 0.96952 0.0
C823 C 0.74136 0.86174 0.98831 0.0
C824 C 0.74928 0.831 0.97385 0.0
C825 C 0.74534 0.81354 0.95718 0.0
C826 C 0.72869 0.80521 0.96244 0.0
C827 C 0.7249 0.78886 0.94644 0.0
C828 C 0.7377 0.78061 0.92529 0.0
C829 C 0.75436 0.7887 0.92022 0.0
C830 C 0.75822 0.80508 0.93617 0.0
C831 C 0.79034 0.84673 0.10222 0.0
C832 C 0.80841 0.84516 0.0926 0.0
C833 C 0.77709 0.84803 0.07682 0.0
C834 C 0.78168 0.84758 0.04142 0.0
C835 C 0.79969 0.84592 0.03159 0.0
C836 C 0.81303 0.84493 0.05708 0.0
C837 C 0.76743 0.84797 0.01492 0.0
C838 C 0.76408 0.83229 0.99605 0.0
C839 C 0.756 0.86291 0.01108 0.0
C840 C 0.75918 0.87987 0.03024 0.0
C841 C 0.77582 0.8886 0.0281 0.0
C842 C 0.77876 0.90451 0.0464 0.0
C843 C 0.76513 0.91189 0.06678 0.0
C844 C 0.74851 0.9034 0.06884 0.0
C845 C 0.7455 0.88748 0.05061 0.0
H846 H 0.76744 0.92421 0.08092 0.0
H847 H 0.73472 0.76794 0.91291 0.0
H848 H 0.5971 0.46248 0.60977 0.0
H849 H 0.59836 0.48657 0.6527 0.0
H850 H 0.58988 0.44844 0.73554 0.0
H851 H 0.58899 0.42402 0.69251 0.0
H852 H 0.5661 0.48016 0.73318 0.0
H853 H 0.6282 0.46365 0.73266 0.0
H854 H 0.65737 0.45678 0.7058 0.0
H855 H 0.6595 0.50956 0.6618 0.0
H856 H 0.63018 0.51666 0.68797 0.0
H857 H 0.5826 0.53524 0.87775 0.0
H858 H 0.58262 0.51161 0.83418 0.0
H859 H 0.60045 0.54916 0.75604 0.0
H860 H 0.60068 0.57309 0.8 0.0
H861 H 0.61959 0.51794 0.75487 0.0
H862 H 0.55823 0.53501 0.75458 0.0
H863 H 0.52881 0.54247 0.77975 0.0
H864 H 0.52465 0.48954 0.8225 0.0
H865 H 0.5542 0.48184 0.79805 0.0
C866 C 0.59558 0.4592 0.63714 0.0
C867 C 0.59287 0.44144 0.64794 0.0
C868 C 0.59639 0.47294 0.66156 0.0
C869 C 0.59428 0.46918 0.69709 0.0
C870 C 0.59159 0.45148 0.7081 0.0
C871 C 0.59111 0.43761 0.68363 0.0
C872 C 0.59409 0.48399 0.72235 0.0
C873 C 0.57783 0.48827 0.73848 0.0
C874 C 0.60929 0.49487 0.72787 0.0
C875 C 0.62689 0.49061 0.71196 0.0
C876 C 0.63479 0.47373 0.71694 0.0
C877 C 0.65138 0.46981 0.70191 0.0
C878 C 0.66026 0.4827 0.68202 0.0
C879 C 0.65259 0.49957 0.67717 0.0
C880 C 0.63599 0.50355 0.69212 0.0
C881 C 0.58643 0.53856 0.85127 0.0
C882 C 0.59162 0.55602 0.84222 0.0
C883 C 0.58637 0.52503 0.82638 0.0
C884 C 0.59136 0.52871 0.79189 0.0
C885 C 0.59651 0.54613 0.7826 0.0
C886 C 0.59656 0.55976 0.80761 0.0
C887 C 0.59159 0.51407 0.76604 0.0
C888 C 0.60783 0.50985 0.74965 0.0
C889 C 0.57631 0.50334 0.75998 0.0
C890 C 0.55852 0.5079 0.77474 0.0
C891 C 0.55112 0.525 0.76961 0.0
C892 C 0.5344 0.52927 0.7837 0.0
C893 C 0.52489 0.5165 0.80278 0.0
C894 C 0.53205 0.49942 0.80775 0.0
C895 C 0.54878 0.4951 0.79375 0.0
H896 H 0.51194 0.51983 0.81366 0.0
H897 H 0.67311 0.47965 0.67043 0.0
H898 H 0.80009 0.31553 0.89333 0.0
H899 H 0.77472 0.32031 0.93227 0.0
H900 H 0.7997 0.36827 0.97198 0.0
H901 H 0.82564 0.36289 0.93431 0.0
H902 H 0.78439 0.35326 0.02222 0.0
H903 H 0.76465 0.36969 0.91062 0.0
H904 H 0.75964 0.36756 0.84717 0.0
H905 H 0.72598 0.32169 0.86252 0.0
H906 H 0.73099 0.32337 0.92605 0.0
H907 H 0.68121 0.36451 0.0565 0.0
H908 H 0.70636 0.36712 0.01561 0.0
H909 H 0.73583 0.328 0.07535 0.0
H910 H 0.71119 0.32594 0.11676 0.0
H911 H 0.72328 0.34662 0.97315 0.0
H912 H 0.77872 0.33719 0.08032 0.0
H913 H 0.78333 0.34524 0.14209 0.0
H914 H 0.74504 0.38778 0.13253 0.0
H915 H 0.7404 0.38018 0.0706 0.0
C916 C 0.80025 0.32694 0.91075 0.0
C917 C 0.81472 0.33887 0.91089 0.0
C918 C 0.78567 0.3298 0.93268 0.0
C919 C 0.78503 0.34497 0.95425 0.0
C920 C 0.79983 0.35655 0.95536 0.0
C921 C 0.81465 0.35344 0.93398 0.0
C922 C 0.76891 0.34855 0.97567 0.0
C923 C 0.77105 0.35191 0.01143 0.0
C924 C 0.75144 0.34768 0.96136 0.0
C925 C 0.74829 0.3466 0.92313 0.0
C926 C 0.75627 0.35907 0.90046 0.0
C927 C 0.75342 0.35796 0.86448 0.0
C928 C 0.74252 0.34448 0.85082 0.0
C929 C 0.73442 0.33212 0.87314 0.0
C930 C 0.73724 0.33316 0.90916 0.0
C931 C 0.69303 0.35638 0.06059 0.0
C932 C 0.69441 0.34517 0.08987 0.0
C933 C 0.70737 0.35791 0.03733 0.0
C934 C 0.72315 0.34812 0.04299 0.0
C935 C 0.72402 0.33613 0.07111 0.0
C936 C 0.70989 0.33484 0.09459 0.0
C937 C 0.73886 0.35031 0.01987 0.0
C938 C 0.73664 0.34817 0.9838 0.0
C939 C 0.75621 0.35325 0.03361 0.0
C940 C 0.75913 0.35802 0.07082 0.0
C941 C 0.77136 0.34833 0.09132 0.0
C942 C 0.77396 0.3528 0.12639 0.0
C943 C 0.76445 0.36698 0.14125 0.0
C944 C 0.75236 0.37676 0.12103 0.0
C945 C 0.74973 0.37236 0.08595 0.0
H946 H 0.76647 0.3704 0.1684 0.0
H947 H 0.74033 0.34364 0.82295 0.0
H948 H 0.89447 0.46843 0.38589 0.0
H949 H 0.89507 0.49154 0.34089 0.0
H950 H 0.90616 0.45152 0.26274 0.0
H951 H 0.90529 0.42813 0.30776 0.0
H952 H 0.9297 0.48239 0.26342 0.0
H953 H 0.8674 0.46763 0.26062 0.0
H954 H 0.8375 0.46198 0.28542 0.0
H955 H 0.83563 0.51571 0.32489 0.0
H956 H 0.86566 0.5216 0.30077 0.0
H957 H 0.91837 0.53708 0.11548 0.0
H958 H 0.9165 0.51352 0.15911 0.0
H959 H 0.89789 0.55176 0.23526 0.0
H960 H 0.89945 0.57556 0.19126 0.0
H961 H 0.8779 0.52136 0.23528 0.0
H962 H 0.9401 0.53622 0.2393 0.0
H963 H 0.97013 0.54213 0.21527 0.0
H964 H 0.97249 0.48859 0.17488 0.0
H965 H 0.94235 0.48245 0.19825 0.0
C966 C 0.89697 0.46452 0.35911 0.0
C967 C 0.89989 0.44653 0.35022 0.0
C968 C 0.89722 0.47771 0.33348 0.0
C969 C 0.90057 0.47314 0.29866 0.0
C970 C 0.90351 0.4552 0.28959 0.0
C971 C 0.90297 0.44191 0.31521 0.0
C972 C 0.90169 0.48734 0.27214 0.0
C973 C 0.91834 0.49075 0.25673 0.0
C974 C 0.88693 0.49849 0.26454 0.0
C975 C 0.86888 0.49499 0.27919 0.0
C976 C 0.8607 0.47818 0.2749 0.0
C977 C 0.84371 0.47495 0.28876 0.0
C978 C 0.83469 0.48846 0.30681 0.0
C979 C 0.84264 0.50525 0.31095 0.0
C980 C 0.85964 0.50854 0.29716 0.0
C981 C 0.91398 0.54056 0.14155 0.0
C982 C 0.90909 0.55818 0.15003 0.0
C983 C 0.91298 0.52706 0.16647 0.0
C984 C 0.90724 0.53096 0.20044 0.0
C985 C 0.90239 0.54855 0.20913 0.0
C986 C 0.90336 0.56211 0.18409 0.0
C987 C 0.90595 0.51646 0.22648 0.0
C988 C 0.88928 0.51301 0.24187 0.0
C989 C 0.92073 0.50531 0.23423 0.0
C990 C 0.93889 0.50893 0.22026 0.0
C991 C 0.94696 0.52575 0.22506 0.0
C992 C 0.96401 0.52914 0.21159 0.0
C993 C 0.97319 0.51576 0.19349 0.0
C994 C 0.96536 0.49895 0.18888 0.0
C995 C 0.94829 0.4955 0.20226 0.0
H996 H 0.9864 0.5184 0.18309 0.0
H997 H 0.82153 0.48594 0.3175 0.0
H998 H 0.71293 0.67136 0.3593 0.0
H999 H 0.73641 0.66823 0.40302 0.0
H1000 H 0.69845 0.64492 0.47466 0.0
H1001 H 0.6747 0.64828 0.43108 0.0
H1002 H 0.71953 0.66936 0.50603 0.0
H1003 H 0.728 0.61859 0.43136 0.0
H1004 H 0.73206 0.60302 0.37519 0.0
H1005 H 0.78068 0.63219 0.35713 0.0
H1006 H 0.77677 0.64813 0.413 0.0
H1007 H 0.78243 0.64051 0.62832 0.0
H1008 H 0.75918 0.63983 0.58372 0.0
H1009 H 0.79671 0.66032 0.50793 0.0
H1010 H 0.82039 0.66007 0.55239 0.0
H1011 H 0.77547 0.63638 0.47877 0.0
H1012 H 0.76629 0.68808 0.55214 0.0
H1013 H 0.76227 0.70361 0.60839 0.0
H1014 H 0.71489 0.6728 0.62854 0.0
H1015 H 0.71876 0.65693 0.57258 0.0
C1016 C 0.70954 0.66563 0.38441 0.0
C1017 C 0.69201 0.65999 0.39179 0.0
C1018 C 0.723 0.66376 0.40925 0.0
C1019 C 0.7192 0.65604 0.44175 0.0
C1020 C 0.70162 0.65081 0.44958 0.0
C1021 C 0.6881 0.65276 0.42474 0.0
C1022 C 0.7336 0.65369 0.46769 0.0
C1023 C 0.73165 0.66193 0.50029 0.0
C1024 C 0.74956 0.64433 0.45975 0.0
C1025 C 0.75201 0.63467 0.42624 0.0
C1026 C 0.73949 0.62178 0.4153 0.0
C1027 C 0.74178 0.61288 0.38353 0.0
C1028 C 0.7566 0.61665 0.36257 0.0
C1029 C 0.7692 0.6293 0.37338 0.0
C1030 C 0.76696 0.63826 0.40512 0.0
C1031 C 0.78573 0.64477 0.60207 0.0
C1032 C 0.80305 0.65061 0.59373 0.0
C1033 C 0.77245 0.64442 0.57667 0.0
C1034 C 0.77609 0.65052 0.5428 0.0
C1035 C 0.7936 0.6557 0.53402 0.0
C1036 C 0.80707 0.65561 0.55934 0.0
C1037 C 0.76144 0.65214 0.51708 0.0
C1038 C 0.76334 0.64378 0.48453 0.0
C1039 C 0.74543 0.66144 0.52499 0.0
C1040 C 0.74289 0.67124 0.5583 0.0
C1041 C 0.75506 0.68457 0.56864 0.0
C1042 C 0.75281 0.69343 0.60046 0.0
C1043 C 0.73835 0.68917 0.62206 0.0
C1044 C 0.72608 0.67608 0.6118 0.0
C1045 C 0.72829 0.66717 0.58002 0.0
H1046 H 0.73664 0.69603 0.6467 0.0
H1047 H 0.75835 0.60974 0.33798 0.0
H1048 H 0.40297 0.46331 0.10777 0.0
H1049 H 0.40183 0.48732 0.15059 0.0
H1050 H 0.40902 0.44896 0.23362 0.0
H1051 H 0.40943 0.42461 0.1906 0.0
H1052 H 0.38515 0.47339 0.25171 0.0
H1053 H 0.44413 0.47475 0.20302 0.0
H1054 H 0.46643 0.4754 0.15563 0.0
H1055 H 0.44584 0.52592 0.12058 0.0
H1056 H 0.42318 0.52543 0.1674 0.0
H1057 H 0.41486 0.53476 0.37945 0.0
H1058 H 0.41344 0.51083 0.33637 0.0
H1059 H 0.39916 0.54907 0.25678 0.0
H1060 H 0.40056 0.57328 0.29998 0.0
H1061 H 0.42627 0.52501 0.23704 0.0
H1062 H 0.36755 0.52331 0.28829 0.0
H1063 H 0.34596 0.52208 0.33688 0.0
H1064 H 0.36755 0.47151 0.36928 0.0
H1065 H 0.38945 0.47255 0.32115 0.0
C1066 C 0.40432 0.45997 0.13516 0.0
C1067 C 0.40652 0.44216 0.14596 0.0
C1068 C 0.4037 0.47371 0.15957 0.0
C1069 C 0.40577 0.46996 0.19519 0.0
C1070 C 0.40752 0.45212 0.20619 0.0
C1071 C 0.4078 0.43826 0.18169 0.0
C1072 C 0.40633 0.48478 0.2207 0.0
C1073 C 0.3943 0.48455 0.24879 0.0
C1074 C 0.41806 0.49951 0.21642 0.0
C1075 C 0.43187 0.49998 0.18857 0.0
C1076 C 0.44429 0.48595 0.18509 0.0
C1077 C 0.457 0.4863 0.15834 0.0
C1078 C 0.45754 0.50068 0.13509 0.0
C1079 C 0.4454 0.51478 0.1386 0.0
C1080 C 0.43262 0.51448 0.16525 0.0
C1081 C 0.41143 0.53813 0.35279 0.0
C1082 C 0.40779 0.55588 0.34303 0.0
C1083 C 0.41054 0.52442 0.32828 0.0
C1084 C 0.40599 0.52822 0.29362 0.0
C1085 C 0.40262 0.54595 0.28355 0.0
C1086 C 0.40341 0.55971 0.30818 0.0
C1087 C 0.40509 0.51358 0.2679 0.0
C1088 C 0.41709 0.51385 0.23984 0.0
C1089 C 0.3935 0.49881 0.27246 0.0
C1090 C 0.38024 0.49809 0.30127 0.0
C1091 C 0.36778 0.51199 0.30593 0.0
C1092 C 0.35547 0.51131 0.33336 0.0
C1093 C 0.35541 0.49674 0.3562 0.0
C1094 C 0.36762 0.48279 0.35159 0.0
C1095 C 0.37997 0.48341 0.32421 0.0
H1096 H 0.34587 0.49625 0.37743 0.0
H1097 H 0.46739 0.50092 0.11439 0.0
H1098 H 0.21537 0.65218 0.13518 0.0
H1099 H 0.23901 0.64999 0.09173 0.0
H1100 H 0.19982 0.65372 0.00933 0.0
H1101 H 0.17583 0.65536 0.05307 0.0
H1102 H 0.22601 0.62956 0.99402 0.0
H1103 H 0.22313 0.69043 0.03394 0.0
H1104 H 0.22228 0.71434 0.07825 0.0
H1105 H 0.27397 0.69828 0.11582 0.0
H1106 H 0.27501 0.67411 0.07203 0.0
H1107 H 0.2855 0.65998 0.86189 0.0
H1108 H 0.2614 0.65704 0.90451 0.0
H1109 H 0.30024 0.6497 0.98655 0.0
H1110 H 0.32453 0.65258 0.94395 0.0
H1111 H 0.27424 0.67507 0.00171 0.0
H1112 H 0.27752 0.61478 0.96014 0.0
H1113 H 0.2782 0.59083 0.91593 0.0
H1114 H 0.22581 0.60599 0.88073 0.0
H1115 H 0.22492 0.63022 0.92442 0.0
C1116 C 0.21174 0.65249 0.10781 0.0
C1117 C 0.19382 0.65423 0.09739 0.0
C1118 C 0.22527 0.65122 0.08305 0.0
C1119 C 0.22117 0.65209 0.04741 0.0
C1120 C 0.20322 0.65314 0.03679 0.0
C1121 C 0.18958 0.65415 0.0617 0.0
C1122 C 0.23578 0.65271 0.02155 0.0
C1123 C 0.23643 0.63964 0.99533 0.0
C1124 C 0.24955 0.66566 0.02388 0.0
C1125 C 0.24908 0.68038 0.04988 0.0
C1126 C 0.23427 0.69194 0.05178 0.0
C1127 C 0.23376 0.70554 0.07679 0.0
C1128 C 0.24805 0.70781 0.09988 0.0
C1129 C 0.2629 0.6965 0.09793 0.0
C1130 C 0.26347 0.68286 0.073 0.0
C1131 C 0.28893 0.65774 0.889 0.0
C1132 C 0.30688 0.65657 0.89969 0.0
C1133 C 0.27515 0.65593 0.91321 0.0
C1134 C 0.27911 0.65297 0.94848 0.0
C1135 C 0.297 0.65189 0.95933 0.0
C1136 C 0.31081 0.65356 0.93504 0.0
C1137 C 0.26451 0.6519 0.97423 0.0
C1138 C 0.26384 0.66496 0.0004 0.0
C1139 C 0.25074 0.639 0.97168 0.0
C1140 C 0.25123 0.62444 0.94533 0.0
C1141 C 0.26621 0.61312 0.94276 0.0
C1142 C 0.26662 0.59947 0.91784 0.0
C1143 C 0.25208 0.59692 0.89547 0.0
C1144 C 0.23708 0.608 0.89804 0.0
C1145 C 0.23661 0.62168 0.9229 0.0
H1146 H 0.25242 0.58634 0.87621 0.0
H1147 H 0.24762 0.71834 0.11924 0.0
H1148 H 0.10913 0.46356 0.88909 0.0
H1149 H 0.11051 0.48837 0.84795 0.0
H1150 H 0.0969 0.45253 0.76369 0.0
H1151 H 0.0963 0.42734 0.80486 0.0
H1152 H 0.12097 0.47667 0.74292 0.0
H1153 H 0.0648 0.47857 0.80511 0.0
H1154 H 0.04588 0.47914 0.85785 0.0
H1155 H 0.07085 0.52807 0.89063 0.0
H1156 H 0.09008 0.52767 0.83828 0.0
H1157 H 0.08306 0.53681 0.6236 0.0
H1158 H 0.08758 0.51339 0.66684 0.0
H1159 H 0.10509 0.55277 0.74172 0.0
H1160 H 0.10052 0.5765 0.69835 0.0
H1161 H 0.08119 0.52818 0.76898 0.0
H1162 H 0.13562 0.52748 0.70371 0.0
H1163 H 0.15423 0.52683 0.6506 0.0
H1164 H 0.13223 0.47571 0.62289 0.0
H1165 H 0.11328 0.47616 0.67559 0.0
C1166 C 0.10655 0.46094 0.86174 0.0
C1167 C 0.10232 0.44365 0.85008 0.0
C1168 C 0.10732 0.47512 0.83831 0.0
C1169 C 0.10334 0.47236 0.80298 0.0
C1170 C 0.0999 0.45493 0.79095 0.0
C1171 C 0.0995 0.4406 0.81439 0.0
C1172 C 0.10191 0.48781 0.77906 0.0
C1173 C 0.11214 0.48785 0.74839 0.0
C1174 C 0.09074 0.5026 0.78678 0.0
C1175 C 0.07897 0.50301 0.81795 0.0
C1176 C 0.06631 0.4894 0.82366 0.0
C1177 C 0.05553 0.4897 0.85348 0.0
C1178 C 0.05719 0.50361 0.87762 0.0
C1179 C 0.06959 0.51729 0.87193 0.0
C1180 C 0.08042 0.51705 0.84218 0.0
C1181 C 0.0878 0.54055 0.6493 0.0
C1182 C 0.09151 0.55848 0.6576 0.0
C1183 C 0.09048 0.52712 0.67387 0.0
C1184 C 0.09698 0.53136 0.70714 0.0
C1185 C 0.1002 0.54929 0.71599 0.0
C1186 C 0.09755 0.56279 0.69129 0.0
C1187 C 0.10007 0.51693 0.73268 0.0
C1188 C 0.09014 0.51707 0.76364 0.0
C1189 C 0.11145 0.5023 0.72514 0.0
C1190 C 0.12292 0.50192 0.69349 0.0
C1191 C 0.13464 0.51616 0.68616 0.0
C1192 C 0.14527 0.51582 0.65615 0.0
C1193 C 0.14438 0.50126 0.63335 0.0
C1194 C 0.13289 0.48699 0.64057 0.0
C1195 C 0.12222 0.48726 0.67053 0.0
H1196 H 0.15262 0.50102 0.61012 0.0
H1197 H 0.04884 0.5038 0.9007 0.0
H1198 H 0.20793 0.34089 0.35657 0.0
H1199 H 0.23383 0.3434 0.3948 0.0
H1200 H 0.19892 0.34653 0.48434 0.0
H1201 H 0.17277 0.34467 0.44585 0.0
H1202 H 0.2252 0.37023 0.48947 0.0
H1203 H 0.22143 0.30739 0.46186 0.0
H1204 H 0.21963 0.28131 0.42258 0.0
H1205 H 0.26998 0.29571 0.37649 0.0
H1206 H 0.27196 0.32202 0.41521 0.0
H1207 H 0.28209 0.34322 0.62491 0.0
H1208 H 0.25917 0.34475 0.57989 0.0
H1209 H 0.29995 0.34989 0.50086 0.0
H1210 H 0.32321 0.3485 0.54615 0.0
H1211 H 0.27289 0.32403 0.48634 0.0
H1212 H 0.27777 0.38542 0.51865 0.0
H1213 H 0.27944 0.41104 0.55903 0.0
H1214 H 0.22689 0.3989 0.5976 0.0
H1215 H 0.225 0.37303 0.55781 0.0
C1216 C 0.20574 0.34203 0.38443 0.0
C1217 C 0.18835 0.34241 0.39835 0.0
C1218 C 0.22057 0.34344 0.40623 0.0
C1219 C 0.21831 0.34485 0.44243 0.0
C1220 C 0.20094 0.34541 0.45643 0.0
C1221 C 0.18604 0.34426 0.43451 0.0
C1222 C 0.23409 0.34567 0.46566 0.0
C1223 C 0.23553 0.36003 0.48906 0.0
C1224 C 0.24785 0.33266 0.46424 0.0
C1225 C 0.24675 0.31676 0.44119 0.0
C1226 C 0.23206 0.30505 0.44319 0.0
C1227 C 0.23101 0.29022 0.42105 0.0
C1228 C 0.24466 0.28688 0.39699 0.0
C1229 C 0.25941 0.29833 0.3951 0.0
C1230 C 0.26051 0.31319 0.41716 0.0
C1231 C 0.28625 0.34465 0.59797 0.0
C1232 C 0.30444 0.34573 0.58898 0.0
C1233 C 0.27312 0.34564 0.57234 0.0
C1234 C 0.27792 0.34765 0.53725 0.0
C1235 C 0.29606 0.34844 0.52795 0.0
C1236 C 0.30928 0.34764 0.55374 0.0
C1237 C 0.26377 0.34837 0.51051 0.0
C1238 C 0.26264 0.33431 0.48645 0.0
C1239 C 0.25025 0.36159 0.51146 0.0
C1240 C 0.2513 0.37718 0.53541 0.0
C1241 C 0.26662 0.38811 0.53594 0.0
C1242 C 0.2676 0.4027 0.55869 0.0
C1243 C 0.25329 0.40657 0.58091 0.0
C1244 C 0.23796 0.39588 0.58038 0.0
C1245 C 0.23692 0.38126 0.5577 0.0
H1246 H 0.25407 0.41788 0.5985 0.0
H1247 H 0.24383 0.2754 0.37987 0.0
H1248 H 0.1131 0.13809 0.3856 0.0
H1249 H 0.12355 0.16785 0.36921 0.0
H1250 H 0.11389 0.18661 0.47397 0.0
H1251 H 0.10323 0.15694 0.4906 0.0
H1252 H 0.09945 0.20865 0.42731 0.0
H1253 H 0.15627 0.18157 0.44412 0.0
H1254 H 0.18008 0.15898 0.43784 0.0
H1255 H 0.18223 0.16883 0.32754 0.0
H1256 H 0.15822 0.1913 0.33304 0.0
H1257 H 0.13853 0.29385 0.39496 0.0
H1258 H 0.13518 0.26378 0.41933 0.0
H1259 H 0.13545 0.24147 0.31557 0.0
H1260 H 0.13862 0.27148 0.29086 0.0
H1261 H 0.15647 0.22192 0.36618 0.0
H1262 H 0.09734 0.24708 0.3504 0.0
H1263 H 0.07414 0.27021 0.35808 0.0
H1264 H 0.07735 0.26413 0.46933 0.0
H1265 H 0.10078 0.24113 0.4623 0.0
C1266 C 0.11333 0.14848 0.4053 0.0
C1267 C 0.1072 0.1451 0.43939 0.0
C1268 C 0.11943 0.16548 0.39591 0.0
C1269 C 0.1196 0.17944 0.42042 0.0
C1270 C 0.11386 0.17603 0.45464 0.0
C1271 C 0.10779 0.15903 0.46409 0.0
C1272 C 0.12462 0.19783 0.40967 0.0
C1273 C 0.11207 0.21159 0.41456 0.0
C1274 C 0.14096 0.20163 0.39249 0.0
C1275 C 0.15531 0.18801 0.38896 0.0
C1276 C 0.16169 0.1788 0.41846 0.0
C1277 C 0.17525 0.16604 0.41505 0.0
C1278 C 0.18263 0.16244 0.3823 0.0
C1279 C 0.17648 0.17162 0.35289 0.0
C1280 C 0.16291 0.18438 0.35614 0.0
C1281 C 0.13806 0.28254 0.37731 0.0
C1282 C 0.13868 0.28507 0.34094 0.0
C1283 C 0.13614 0.26539 0.39129 0.0
C1284 C 0.13499 0.25047 0.36919 0.0
C1285 C 0.13634 0.25285 0.33301 0.0
C1286 C 0.13802 0.27001 0.31896 0.0
C1287 C 0.13124 0.23251 0.38362 0.0
C1288 C 0.14397 0.21891 0.37932 0.0
C1289 C 0.11513 0.22884 0.40157 0.0
C1290 C 0.10095 0.24255 0.40584 0.0
C1291 C 0.09321 0.25079 0.37651 0.0
C1292 C 0.08 0.26386 0.38074 0.0
C1293 C 0.07432 0.26868 0.41418 0.0
C1294 C 0.08179 0.2604 0.44345 0.0
C1295 C 0.09503 0.24735 0.43936 0.0
H1296 H 0.06409 0.27879 0.41741 0.0
H1297 H 0.19314 0.15256 0.37972 0.0
H1298 H 0.96996 0.89733 0.52366 0.0
H1299 H 0.00086 0.89441 0.5434 0.0
H1300 H 0.98291 0.89277 0.65036 0.0
H1301 H 0.95196 0.8962 0.63092 0.0
H1302 H 0.0131 0.91153 0.64552 0.0
H1303 H 0.99258 0.85422 0.60523 0.0
H1304 H 0.97934 0.83302 0.56322 0.0
H1305 H 0.02155 0.84414 0.49037 0.0
H1306 H 0.03493 0.8656 0.5318 0.0
H1307 H 0.08612 0.86379 0.72128 0.0
H1308 H 0.05737 0.87488 0.70021 0.0
H1309 H 0.07875 0.87873 0.59594 0.0
H1310 H 0.10755 0.86752 0.61664 0.0
H1311 H 0.04757 0.86036 0.59774 0.0
H1312 H 0.06938 0.91618 0.64222 0.0
H1313 H 0.08232 0.93646 0.68625 0.0
H1314 H 0.03747 0.92701 0.75381 0.0
H1315 H 0.02437 0.90648 0.71038 0.0
C1316 C 0.97256 0.89648 0.55142 0.0
C1317 C 0.95844 0.89677 0.57568 0.0
C1318 C 0.99025 0.89478 0.56265 0.0
C1319 C 0.99417 0.89301 0.59832 0.0
C1320 C 0.98019 0.89405 0.6227 0.0
C1321 C 0.96249 0.89595 0.61151 0.0
C1322 C 0.0127 0.88917 0.61006 0.0
C1323 C 0.02059 0.90026 0.63532 0.0
C1324 C 0.02259 0.87462 0.59633 0.0
C1325 C 0.01465 0.86164 0.57147 0.0
C1326 C 0.99897 0.85224 0.58016 0.0
C1327 C 0.99145 0.84016 0.55646 0.0
C1328 C 0.99957 0.83728 0.52411 0.0
C1329 C 0.01526 0.84642 0.51542 0.0
C1330 C 0.02282 0.85852 0.539 0.0
C1331 C 0.08482 0.86719 0.69392 0.0
C1332 C 0.09916 0.86463 0.67063 0.0
C1333 C 0.06837 0.87363 0.68197 0.0
C1334 C 0.06594 0.8777 0.64654 0.0
C1335 C 0.08035 0.87567 0.6234 0.0
C1336 C 0.09682 0.86929 0.63533 0.0
C1337 C 0.04801 0.88272 0.63318 0.0
C1338 C 0.04018 0.87176 0.6077 0.0
C1339 C 0.03816 0.89725 0.64702 0.0
C1340 C 0.04597 0.90966 0.67314 0.0
C1341 C 0.06234 0.91831 0.66658 0.0
C1342 C 0.06969 0.92988 0.69141 0.0
C1343 C 0.06074 0.93299 0.72285 0.0
C1344 C 0.04439 0.92458 0.72947 0.0
C1345 C 0.03699 0.91299 0.70473 0.0
H1346 H 0.06646 0.94194 0.74205 0.0
H1347 H 0.99373 0.82793 0.5058 0.0
H1348 H 0.39587 0.84264 0.98583 0.0
H1349 H 0.38465 0.81319 0.96909 0.0
H1350 H 0.37278 0.83291 0.8659 0.0
H1351 H 0.38385 0.86248 0.88238 0.0
H1352 H 0.34632 0.8108 0.89028 0.0
H1353 H 0.41028 0.81007 0.87922 0.0
H1354 H 0.44146 0.81402 0.8988 0.0
H1355 H 0.4334 0.77496 0.97944 0.0
H1356 H 0.40206 0.77097 0.96064 0.0
H1357 H 0.35045 0.73044 0.79002 0.0
H1358 H 0.35481 0.76008 0.81563 0.0
H1359 H 0.36066 0.73628 0.91749 0.0
H1360 H 0.35608 0.70654 0.8922 0.0
H1361 H 0.38875 0.75987 0.89788 0.0
H1362 H 0.32495 0.75891 0.9043 0.0
H1363 H 0.29432 0.75469 0.88193 0.0
H1364 H 0.30258 0.79663 0.80709 0.0
H1365 H 0.33338 0.80093 0.82867 0.0
C1366 C 0.39076 0.8408 0.95963 0.0
C1367 C 0.39096 0.85493 0.93535 0.0
C1368 C 0.38436 0.82393 0.95011 0.0
C1369 C 0.37809 0.82082 0.91613 0.0
C1370 C 0.37759 0.83503 0.89225 0.0
C1371 C 0.38402 0.85191 0.9017 0.0
C1372 C 0.3729 0.80256 0.90495 0.0
C1373 C 0.35562 0.79969 0.8917 0.0
C1374 C 0.38495 0.788 0.90738 0.0
C1375 C 0.40377 0.79039 0.9188 0.0
C1376 C 0.41511 0.80245 0.90134 0.0
C1377 C 0.43282 0.80467 0.91225 0.0
C1378 C 0.43939 0.79479 0.94042 0.0
C1379 C 0.42827 0.78263 0.95768 0.0
C1380 C 0.41054 0.78038 0.9469 0.0
C1381 C 0.35247 0.73151 0.81793 0.0
C1382 C 0.35298 0.71614 0.83906 0.0
C1383 C 0.35488 0.74846 0.83252 0.0
C1384 C 0.35801 0.75033 0.86842 0.0
C1385 C 0.35822 0.73507 0.88972 0.0
C1386 C 0.35554 0.71812 0.87523 0.0
C1387 C 0.36221 0.76813 0.88317 0.0
C1388 C 0.37936 0.77093 0.89692 0.0
C1389 C 0.35009 0.7826 0.88089 0.0
C1390 C 0.33154 0.78013 0.86791 0.0
C1391 C 0.32029 0.76713 0.88287 0.0
C1392 C 0.30289 0.76475 0.87037 0.0
C1393 C 0.29652 0.77536 0.84305 0.0
C1394 C 0.30754 0.78841 0.82823 0.0
C1395 C 0.32497 0.79084 0.84062 0.0
H1396 H 0.28303 0.77349 0.83341 0.0
H1397 H 0.45311 0.79651 0.94882 0.0
H1398 H 0.41604 0.13247 0.21736 0.0
H1399 H 0.44508 0.12293 0.19511 0.0
H1400 H 0.42585 0.12842 0.08953 0.0
H1401 H 0.39655 0.13767 0.11156 0.0
H1402 H 0.44717 0.09941 0.09585 0.0
H1403 H 0.45036 0.16144 0.12618 0.0
H1404 H 0.44689 0.18786 0.16413 0.0
H1405 H 0.48372 0.16521 0.23791 0.0
H1406 H 0.48723 0.13853 0.20061 0.0
H1407 H 0.53376 0.10884 0.01678 0.0
H1408 H 0.50297 0.11315 0.03673 0.0
H1409 H 0.51975 0.10465 0.14311 0.0
H1410 H 0.55052 0.10033 0.12359 0.0
H1411 H 0.49947 0.13508 0.13494 0.0
H1412 H 0.49649 0.07301 0.10226 0.0
H1413 H 0.50004 0.04734 0.06245 0.0
H1414 H 0.463 0.07117 0.99049 0.0
H1415 H 0.45943 0.09712 0.02967 0.0
C1416 C 0.41789 0.13151 0.18939 0.0
C1417 C 0.40401 0.13607 0.16625 0.0
C1418 C 0.43453 0.12608 0.17672 0.0
C1419 C 0.43773 0.12533 0.14066 0.0
C1420 C 0.42368 0.129 0.11746 0.0
C1421 C 0.40695 0.13432 0.13012 0.0
C1422 C 0.45599 0.1216 0.12734 0.0
C1423 C 0.45858 0.10733 0.10406 0.0
C1424 C 0.47091 0.13183 0.13835 0.0
C1425 C 0.46892 0.14791 0.16076 0.0
C1426 C 0.45762 0.16203 0.15062 0.0
C1427 C 0.45566 0.17706 0.17199 0.0
C1428 C 0.46504 0.17819 0.20345 0.0
C1429 C 0.47644 0.16431 0.21356 0.0
C1430 C 0.47843 0.14923 0.1923 0.0
C1431 C 0.53091 0.10776 0.0444 0.0
C1432 C 0.54467 0.10429 0.06856 0.0
C1433 C 0.51328 0.11015 0.05572 0.0
C1434 C 0.5091 0.10915 0.09137 0.0
C1435 C 0.52272 0.10548 0.11548 0.0
C1436 C 0.54031 0.10297 0.10421 0.0
C1437 C 0.49069 0.11277 0.10381 0.0
C1438 C 0.48807 0.12712 0.12681 0.0
C1439 C 0.47578 0.10273 0.09224 0.0
C1440 C 0.47783 0.08709 0.06875 0.0
C1441 C 0.48922 0.07285 0.07781 0.0
C1442 C 0.49121 0.05823 0.05539 0.0
C1443 C 0.48179 0.05764 0.02392 0.0
C1444 C 0.47031 0.07165 0.01485 0.0
C1445 C 0.46828 0.08631 0.03718 0.0
H1446 H 0.48335 0.04632 0.00659 0.0
H1447 H 0.46351 0.18984 0.21996 0.0
H1448 H 0.16057 0.72909 0.2108 0.0
H1449 H 0.15673 0.75937 0.18808 0.0
H1450 H 0.14017 0.73778 0.08874 0.0
H1451 H 0.14474 0.70742 0.11092 0.0
H1452 H 0.15894 0.76726 0.07874 0.0
H1453 H 0.10936 0.75068 0.15247 0.0
H1454 H 0.09533 0.73989 0.2068 0.0
H1455 H 0.11793 0.78413 0.2631 0.0
H1456 H 0.13228 0.79506 0.20915 0.0
H1457 H 0.10498 0.83907 0.01837 0.0
H1458 H 0.11747 0.81074 0.03824 0.0
H1459 H 0.13419 0.83563 0.13443 0.0
H1460 H 0.12136 0.86402 0.1151 0.0
H1461 H 0.11725 0.8053 0.14694 0.0
H1462 H 0.16464 0.82326 0.07004 0.0
H1463 H 0.17774 0.83368 0.01458 0.0
H1464 H 0.15816 0.78668 0.96269 0.0
H1465 H 0.14474 0.77609 0.01774 0.0
C1466 C 0.15633 0.7308 0.18397 0.0
C1467 C 0.15271 0.7159 0.16277 0.0
C1468 C 0.15409 0.74811 0.17104 0.0
C1469 C 0.1477 0.75085 0.137 0.0
C1470 C 0.14502 0.736 0.11516 0.0
C1471 C 0.1476 0.71865 0.12788 0.0
C1472 C 0.14267 0.76906 0.125 0.0
C1473 C 0.14972 0.77553 0.09348 0.0
C1474 C 0.13086 0.77999 0.14452 0.0
C1475 C 0.12202 0.77359 0.17686 0.0
C1476 C 0.11141 0.75805 0.17648 0.0
C1477 C 0.1034 0.75191 0.2072 0.0
C1478 C 0.10578 0.76129 0.2384 0.0
C1479 C 0.11612 0.77686 0.23892 0.0
C1480 C 0.12418 0.78305 0.20828 0.0
C1481 C 0.11146 0.83862 0.04364 0.0
C1482 C 0.11209 0.85386 0.06519 0.0
C1483 C 0.1187 0.82239 0.05487 0.0
C1484 C 0.12696 0.82109 0.08766 0.0
C1485 C 0.12791 0.83634 0.10899 0.0
C1486 C 0.12056 0.85256 0.09788 0.0
C1487 C 0.13351 0.80356 0.10064 0.0
C1488 C 0.12665 0.79715 0.13233 0.0
C1489 C 0.14535 0.79268 0.08107 0.0
C1490 C 0.15356 0.79895 0.04799 0.0
C1491 C 0.16302 0.8152 0.04676 0.0
C1492 C 0.17052 0.82113 0.01539 0.0
C1493 C 0.16875 0.81087 0.98511 0.0
C1494 C 0.15952 0.79462 0.98616 0.0
C1495 C 0.15198 0.78864 0.01745 0.0
H1496 H 0.17456 0.81549 0.96086 0.0
H1497 H 0.09957 0.75651 0.26216 0.0
H1498 H 0.54273 0.90317 0.36036 0.0
H1499 H 0.51276 0.89789 0.33689 0.0
H1500 H 0.49445 0.88164 0.43882 0.0
H1501 H 0.52429 0.88661 0.46244 0.0
H1502 H 0.48427 0.85833 0.38986 0.0
H1503 H 0.48312 0.92223 0.40478 0.0
H1504 H 0.49388 0.95315 0.39692 0.0
H1505 H 0.48774 0.9482 0.28594 0.0
H1506 H 0.47714 0.91714 0.2931 0.0
H1507 H 0.39119 0.85887 0.37096 0.0
H1508 H 0.42099 0.86872 0.38842 0.0
H1509 H 0.4354 0.87639 0.28052 0.0
H1510 H 0.40555 0.86644 0.26258 0.0
H1511 H 0.44808 0.90405 0.32787 0.0
H1512 H 0.44854 0.8403 0.31357 0.0
H1513 H 0.43734 0.80958 0.322 0.0
H1514 H 0.44493 0.81448 0.43266 0.0
H1515 H 0.45591 0.84536 0.42492 0.0
C1516 C 0.5323 0.89853 0.37789 0.0
C1517 C 0.53597 0.89526 0.41335 0.0
C1518 C 0.51517 0.89562 0.36438 0.0
C1519 C 0.50136 0.88947 0.38615 0.0
C1520 C 0.50493 0.88636 0.42155 0.0
C1521 C 0.52202 0.88925 0.43507 0.0
C1522 C 0.48332 0.88564 0.37199 0.0
C1523 C 0.4763 0.8684 0.37667 0.0
C1524 C 0.47313 0.89864 0.35385 0.0
C1525 C 0.4795 0.9173 0.34946 0.0
C1526 C 0.48421 0.92768 0.37867 0.0
C1527 C 0.49024 0.94524 0.37435 0.0
C1528 C 0.49151 0.95262 0.34095 0.0
C1529 C 0.48675 0.94245 0.31179 0.0
C1530 C 0.48071 0.92488 0.31597 0.0
C1531 C 0.40057 0.86287 0.35087 0.0
C1532 C 0.39603 0.86166 0.31532 0.0
C1533 C 0.4176 0.86847 0.36094 0.0
C1534 C 0.4304 0.87309 0.33572 0.0
C1535 C 0.42568 0.87284 0.30032 0.0
C1536 C 0.40866 0.86706 0.29016 0.0
C1537 C 0.44902 0.87689 0.34647 0.0
C1538 C 0.45614 0.89402 0.34099 0.0
C1539 C 0.45935 0.86382 0.36394 0.0
C1540 C 0.45288 0.84521 0.36869 0.0
C1541 C 0.44767 0.83488 0.33973 0.0
C1542 C 0.44139 0.81743 0.34437 0.0
C1543 C 0.44038 0.8101 0.37785 0.0
C1544 C 0.4457 0.82019 0.40674 0.0
C1545 C 0.45196 0.83767 0.40224 0.0
H1546 H 0.43551 0.79659 0.3814 0.0
H1547 H 0.49611 0.96624 0.33768 0.0
H1548 H 0.39015 0.16323 0.52106 0.0
H1549 H 0.38129 0.19259 0.54253 0.0
H1550 H 0.36784 0.16965 0.64237 0.0
H1551 H 0.3767 0.14002 0.62114 0.0
H1552 H 0.34243 0.19447 0.61833 0.0
H1553 H 0.40552 0.19077 0.63624 0.0
H1554 H 0.43691 0.18494 0.62006 0.0
H1555 H 0.4344 0.22634 0.54255 0.0
H1556 H 0.40288 0.23223 0.55789 0.0
H1557 H 0.34492 0.27698 0.71417 0.0
H1558 H 0.35032 0.24654 0.69314 0.0
H1559 H 0.36086 0.26699 0.58996 0.0
H1560 H 0.35522 0.29748 0.61058 0.0
H1561 H 0.3876 0.24317 0.6173 0.0
H1562 H 0.32408 0.24654 0.59998 0.0
H1563 H 0.29283 0.25221 0.61735 0.0
H1564 H 0.29657 0.2114 0.69586 0.0
H1565 H 0.32796 0.20566 0.67929 0.0
C1566 C 0.38522 0.16432 0.54755 0.0
C1567 C 0.38426 0.14924 0.56945 0.0
C1568 C 0.38021 0.18116 0.55978 0.0
C1569 C 0.37411 0.18329 0.59412 0.0
C1570 C 0.37256 0.16825 0.61579 0.0
C1571 C 0.3777 0.15136 0.60363 0.0
C1572 C 0.36985 0.20139 0.60744 0.0
C1573 C 0.35236 0.20507 0.6186 0.0
C1574 C 0.38277 0.21523 0.6072 0.0
C1575 C 0.40176 0.21181 0.59798 0.0
C1576 C 0.41161 0.19852 0.61553 0.0
C1577 C 0.42943 0.19523 0.60655 0.0
C1578 C 0.43763 0.20523 0.58023 0.0
C1579 C 0.42802 0.21858 0.5629 0.0
C1580 C 0.41018 0.22192 0.57175 0.0
C1581 C 0.34826 0.275 0.68694 0.0
C1582 C 0.34966 0.28964 0.66404 0.0
C1583 C 0.35128 0.25761 0.67498 0.0
C1584 C 0.35597 0.25458 0.64004 0.0
C1585 C 0.35725 0.26911 0.61703 0.0
C1586 C 0.35394 0.28649 0.62882 0.0
C1587 C 0.36016 0.23629 0.62787 0.0
C1588 C 0.37768 0.23257 0.61704 0.0
C1589 C 0.34731 0.22241 0.62865 0.0
C1590 C 0.32844 0.22581 0.63865 0.0
C1591 C 0.3183 0.23889 0.62118 0.0
C1592 C 0.30055 0.24209 0.63083 0.0
C1593 C 0.29274 0.23221 0.65776 0.0
C1594 C 0.30265 0.21906 0.67504 0.0
C1595 C 0.32042 0.21582 0.66551 0.0
H1596 H 0.27899 0.2347 0.66519 0.0
H1597 H 0.45144 0.20266 0.57332 0.0
H1598 H 0.08857 0.14606 0.77597 0.0
H1599 H 0.0597 0.13446 0.79495 0.0
H1600 H 0.08286 0.11863 0.89332 0.0
H1601 H 0.11202 0.12965 0.87407 0.0
H1602 H 0.05983 0.09365 0.87052 0.0
H1603 H 0.05934 0.15695 0.88673 0.0
H1604 H 0.06329 0.1884 0.86938 0.0
H1605 H 0.02209 0.18268 0.79203 0.0
H1606 H 0.01816 0.15099 0.80851 0.0
H1607 H 0.97932 0.09394 0.97288 0.0
H1608 H 0.00897 0.10018 0.94853 0.0
H1609 H 0.98568 0.107 0.84647 0.0
H1610 H 0.95603 0.10052 0.87036 0.0
H1611 H 0.00845 0.13573 0.86972 0.0
H1612 H 0.00854 0.07175 0.85754 0.0
H1613 H 0.00509 0.04068 0.87806 0.0
H1614 H 0.04721 0.04864 0.95266 0.0
H1615 H 0.05074 0.07986 0.93291 0.0
C1616 C 0.08764 0.13989 0.80145 0.0
C1617 C 0.10266 0.13882 0.82348 0.0
C1618 C 0.07106 0.13336 0.81236 0.0
C1619 C 0.06906 0.12589 0.84574 0.0
C1620 C 0.0841 0.12435 0.86746 0.0
C1621 C 0.10074 0.13078 0.85648 0.0
C1622 C 0.05114 0.12044 0.85852 0.0
C1623 C 0.04865 0.1029 0.87067 0.0
C1624 C 0.03648 0.13245 0.85832 0.0
C1625 C 0.0386 0.15155 0.84861 0.0
C1626 C 0.05121 0.16236 0.86585 0.0
C1627 C 0.05344 0.18024 0.85618 0.0
C1628 C 0.04297 0.18755 0.82956 0.0
C1629 C 0.03021 0.17699 0.81261 0.0
C1630 C 0.02798 0.15906 0.8221 0.0
C1631 C 0.98052 0.09661 0.94519 0.0
C1632 C 0.96532 0.09675 0.92357 0.0
C1633 C 0.99746 0.10011 0.93134 0.0
C1634 C 0.99945 0.10401 0.89574 0.0
C1635 C 0.98437 0.10399 0.87401 0.0
C1636 C 0.96747 0.10021 0.88771 0.0
C1637 C 0.01717 0.10896 0.88156 0.0
C1638 C 0.01963 0.12646 0.86931 0.0
C1639 C 0.03181 0.09699 0.88215 0.0
C1640 C 0.02978 0.0782 0.89398 0.0
C1641 C 0.01696 0.06693 0.87854 0.0
C1642 C 0.01501 0.04928 0.88998 0.0
C1643 C 0.02589 0.04271 0.91671 0.0
C1644 C 0.03878 0.05376 0.93198 0.0
C1645 C 0.04077 0.07143 0.92065 0.0
H1646 H 0.02436 0.02904 0.92553 0.0
H1647 H 0.04471 0.20141 0.82211 0.0
H1648 H 0.8472 0.70162 0.61317 0.0
H1649 H 0.85336 0.73163 0.59091 0.0
H1650 H 0.84985 0.75292 0.69525 0.0
H1651 H 0.84381 0.72292 0.71794 0.0
H1652 H 0.83284 0.77446 0.64288 0.0
H1653 H 0.88904 0.74525 0.66629 0.0
H1654 H 0.91098 0.72071 0.66196 0.0
H1655 H 0.91308 0.72735 0.55074 0.0
H1656 H 0.89092 0.75177 0.55436 0.0
H1657 H 0.88041 0.8562 0.62258 0.0
H1658 H 0.86951 0.82694 0.64136 0.0
H1659 H 0.87952 0.80568 0.53857 0.0
H1660 H 0.89057 0.83482 0.51954 0.0
H1661 H 0.89241 0.78386 0.58861 0.0
H1662 H 0.83735 0.81387 0.56479 0.0
H1663 H 0.81499 0.83805 0.56837 0.0
H1664 H 0.81026 0.8298 0.67888 0.0
H1665 H 0.83281 0.80573 0.67605 0.0
C1666 C 0.84748 0.7127 0.6314 0.0
C1667 C 0.84516 0.70984 0.66741 0.0
C1668 C 0.85106 0.72982 0.6186 0.0
C1669 C 0.85222 0.74441 0.64151 0.0
C1670 C 0.84902 0.74179 0.6772 0.0
C1671 C 0.84565 0.72463 0.6901 0.0
C1672 C 0.85782 0.76218 0.6285 0.0
C1673 C 0.84592 0.77661 0.63133 0.0
C1674 C 0.87474 0.76479 0.61279 0.0
C1675 C 0.88817 0.7502 0.61056 0.0
C1676 C 0.89406 0.74137 0.64087 0.0
C1677 C 0.90656 0.7275 0.63856 0.0
C1678 C 0.91338 0.72244 0.60608 0.0
C1679 C 0.90776 0.73127 0.57587 0.0
C1680 C 0.89524 0.74513 0.57804 0.0
C1681 C 0.88025 0.84534 0.60387 0.0
C1682 C 0.88641 0.8479 0.56953 0.0
C1683 C 0.87392 0.82863 0.61463 0.0
C1684 C 0.87358 0.81416 0.59128 0.0
C1685 C 0.87966 0.81667 0.557 0.0
C1686 C 0.88594 0.83337 0.54617 0.0
C1687 C 0.86744 0.79627 0.60296 0.0
C1688 C 0.87928 0.78177 0.59997 0.0
C1689 C 0.85043 0.7936 0.61842 0.0
C1690 C 0.83691 0.80811 0.62026 0.0
C1691 C 0.83167 0.81732 0.58992 0.0
C1692 C 0.81894 0.83098 0.59179 0.0
C1693 C 0.81125 0.83549 0.62385 0.0
C1694 C 0.81625 0.82631 0.65407 0.0
C1695 C 0.829 0.81264 0.65235 0.0
H1696 H 0.80138 0.84606 0.62524 0.0
H1697 H 0.92305 0.7117 0.60434 0.0
H1698 H 0.8921 0.14268 0.37891 0.0
H1699 H 0.92162 0.13147 0.39541 0.0
H1700 H 0.93173 0.11604 0.28883 0.0
H1701 H 0.90221 0.12741 0.27188 0.0
H1702 H 0.94452 0.09068 0.34348 0.0
H1703 H 0.94862 0.15165 0.30684 0.0
H1704 H 0.93963 0.18335 0.30461 0.0
H1705 H 0.94997 0.18861 0.41435 0.0
H1706 H 0.95872 0.15681 0.41736 0.0
H1707 H 0.04057 0.08954 0.36886 0.0
H1708 H 0.01059 0.09452 0.34483 0.0
H1709 H 0.99375 0.11765 0.44256 0.0
H1710 H 0.02348 0.11278 0.46678 0.0
H1711 H 0.98516 0.13859 0.38563 0.0
H1712 H 0.98022 0.07664 0.42148 0.0
H1713 H 0.98971 0.04505 0.4221 0.0
H1714 H 0.98214 0.04189 0.31119 0.0
H1715 H 0.97276 0.07356 0.30988 0.0
C1716 C 0.90043 0.13661 0.35905 0.0
C1717 C 0.89491 0.13615 0.324 0.0
C1718 C 0.9173 0.13023 0.36853 0.0
C1719 C 0.92885 0.12308 0.34326 0.0
C1720 C 0.92297 0.12152 0.30865 0.0
C1721 C 0.90618 0.12814 0.29902 0.0
C1722 C 0.94759 0.11895 0.35262 0.0
C1723 C 0.95353 0.10114 0.35223 0.0
C1724 C 0.95926 0.13263 0.36405 0.0
C1725 C 0.95413 0.15179 0.3624 0.0
C1726 C 0.9488 0.15951 0.33057 0.0
C1727 C 0.94378 0.17751 0.32915 0.0
C1728 C 0.94418 0.18798 0.35934 0.0
C1729 C 0.94964 0.18047 0.391 0.0
C1730 C 0.95464 0.16246 0.39258 0.0
C1731 C 0.03046 0.0956 0.38531 0.0
C1732 C 0.03447 0.10078 0.41976 0.0
C1733 C 0.01333 0.09837 0.37156 0.0
C1734 C -2e-05 0.10643 0.39198 0.0
C1735 C 0.0039 0.11144 0.42638 0.0
C1736 C 0.02091 0.10857 0.4402 0.0
C1737 C 0.98202 0.11025 0.37745 0.0
C1738 C 0.97624 0.12809 0.3767 0.0
C1739 C 0.97063 0.0966 0.36471 0.0
C1740 C 0.97596 0.0775 0.36554 0.0
C1741 C 0.98068 0.06924 0.3972 0.0
C1742 C 0.98602 0.05132 0.39768 0.0
C1743 C 0.98657 0.04148 0.36669 0.0
C1744 C 0.98171 0.04953 0.33517 0.0
C1745 C 0.97636 0.06746 0.33455 0.0
H1746 H 0.99073 0.02761 0.36711 0.0
H1747 H 0.94029 0.20191 0.35819 0.0
H1748 H 0.63511 0.2802 0.21023 0.0
H1749 H 0.63148 0.2498 0.1884 0.0
H1750 H 0.65408 0.26556 0.08948 0.0
H1751 H 0.65748 0.29619 0.11087 0.0
H1752 H 0.62473 0.24564 0.08052 0.0
H1753 H 0.67842 0.24082 0.14841 0.0
H1754 H 0.69709 0.24449 0.20098 0.0
H1755 H 0.6613 0.21082 0.25902 0.0
H1756 H 0.64227 0.20714 0.20691 0.0
H1757 H 0.62828 0.15704 0.01695 0.0
H1758 H 0.63779 0.1867 0.03635 0.0
H1759 H 0.61886 0.17497 0.14027 0.0
H1760 H 0.60996 0.14506 0.12135 0.0
H1761 H 0.6486 0.19305 0.14437 0.0
H1762 H 0.59374 0.19983 0.07912 0.0
H1763 H 0.57414 0.19662 0.0277 0.0
H1764 H 0.61125 0.22699 0.96597 0.0
H1765 H 0.63118 0.23018 0.01694 0.0
C1766 C 0.63939 0.27724 0.18386 0.0
C1767 C 0.64664 0.29067 0.16236 0.0
C1768 C 0.63738 0.2598 0.17147 0.0
C1769 C 0.64277 0.25534 0.13749 0.0
C1770 C 0.6499 0.2687 0.11584 0.0
C1771 C 0.65184 0.2862 0.12815 0.0
C1772 C 0.64047 0.23682 0.12433 0.0
C1773 C 0.63023 0.23415 0.09412 0.0
C1774 C 0.64729 0.22182 0.14254 0.0
C1775 C 0.65885 0.22381 0.1738 0.0
C1776 C 0.67447 0.23428 0.17244 0.0
C1777 C 0.68513 0.23636 0.20215 0.0
C1778 C 0.68037 0.22792 0.23334 0.0
C1779 C 0.66497 0.21735 0.23485 0.0
C1780 C 0.65426 0.21525 0.20522 0.0
C1781 C 0.62627 0.16074 0.044 0.0
C1782 C 0.61821 0.14878 0.06755 0.0
C1783 C 0.63165 0.17772 0.05503 0.0
C1784 C 0.62867 0.18324 0.08959 0.0
C1785 C 0.62124 0.17106 0.11344 0.0
C1786 C 0.61613 0.15396 0.10258 0.0
C1787 C 0.63269 0.20185 0.10072 0.0
C1788 C 0.64325 0.20454 0.13057 0.0
C1789 C 0.62606 0.21689 0.0823 0.0
C1790 C 0.61403 0.21508 0.05173 0.0
C1791 C 0.59777 0.20572 0.05451 0.0
C1792 C 0.5866 0.20392 0.02546 0.0
C1793 C 0.59147 0.21155 0.99356 0.0
C1794 C 0.60751 0.22106 0.99068 0.0
C1795 C 0.61874 0.22288 0.01964 0.0
H1796 H 0.58281 0.21014 0.9711 0.0
H1797 H 0.68863 0.22956 0.25632 0.0
H1798 H 0.61333 0.87243 0.8657 0.0
H1799 H 0.5849 0.88502 0.8855 0.0
H1800 H 0.55859 0.86351 0.7945 0.0
H1801 H 0.58697 0.85133 0.77403 0.0
H1802 H 0.54596 0.89592 0.80879 0.0
H1803 H 0.55772 0.84186 0.87498 0.0
H1804 H 0.57545 0.82245 0.9139 0.0
H1805 H 0.57432 0.86286 0.99352 0.0
H1806 H 0.55676 0.8826 0.95489 0.0
H1807 H 0.45574 0.89137 0.86532 0.0
H1808 H 0.48606 0.88648 0.84358 0.0
H1809 H 0.5076 0.90536 0.94144 0.0
H1810 H 0.47727 0.90936 0.96388 0.0
H1811 H 0.52375 0.87678 0.9249 0.0
H1812 H 0.50962 0.93001 0.86089 0.0
H1813 H 0.49157 0.9493 0.82232 0.0
H1814 H 0.49697 0.91118 0.73916 0.0
H1815 H 0.51485 0.89155 0.77736 0.0
C1816 C 0.60152 0.87048 0.84977 0.0
C1817 C 0.60242 0.8607 0.81844 0.0
C1818 C 0.58527 0.87765 0.86117 0.0
C1819 C 0.56954 0.87494 0.84179 0.0
C1820 C 0.57053 0.86575 0.80992 0.0
C1821 C 0.58679 0.85874 0.79832 0.0
C1822 C 0.5519 0.88088 0.85531 0.0
C1823 C 0.54103 0.89167 0.8341 0.0
C1824 C 0.54565 0.87569 0.88866 0.0
C1825 C 0.5561 0.86377 0.91193 0.0
C1826 C 0.56136 0.84665 0.90071 0.0
C1827 C 0.57136 0.83558 0.92272 0.0
C1828 C 0.57605 0.84144 0.95612 0.0
C1829 C 0.5707 0.85835 0.96762 0.0
C1830 C 0.56072 0.86948 0.94569 0.0
C1831 C 0.46696 0.89466 0.88203 0.0
C1832 C 0.46415 0.9007 0.91632 0.0
C1833 C 0.48431 0.89198 0.8695 0.0
C1834 C 0.4992 0.89579 0.89066 0.0
C1835 C 0.49637 0.90229 0.9246 0.0
C1836 C 0.47903 0.9046 0.9374 0.0
C1837 C 0.51765 0.89183 0.87838 0.0
C1838 C 0.5287 0.88131 0.89979 0.0
C1839 C 0.52405 0.89734 0.84527 0.0
C1840 C 0.51348 0.90925 0.82209 0.0
C1841 C 0.50688 0.9257 0.83444 0.0
C1842 C 0.49668 0.9367 0.81263 0.0
C1843 C 0.4931 0.93146 0.77834 0.0
C1844 C 0.49975 0.91522 0.76574 0.0
C1845 C 0.50994 0.90417 0.78744 0.0
H1846 H 0.48519 0.93998 0.76151 0.0
H1847 H 0.5838 0.83285 0.97312 0.0
H1848 H 0.87657 0.26887 0.80659 0.0
H1849 H 0.87866 0.23923 0.83231 0.0
H1850 H 0.85516 0.25895 0.92764 0.0
H1851 H 0.85317 0.28899 0.90214 0.0
H1852 H 0.8836 0.23678 0.93996 0.0
H1853 H 0.82993 0.23441 0.87321 0.0
H1854 H 0.81098 0.23894 0.82129 0.0
H1855 H 0.84424 0.20309 0.76248 0.0
H1856 H 0.86354 0.19853 0.81392 0.0
H1857 H 0.88309 0.14596 0.99644 0.0
H1858 H 0.87207 0.17589 0.98196 0.0
H1859 H 0.8883 0.16819 0.87488 0.0
H1860 H 0.89856 0.13807 0.88886 0.0
H1861 H 0.85812 0.18503 0.87583 0.0
H1862 H 0.91437 0.1918 0.93946 0.0
H1863 H 0.93399 0.18787 0.99067 0.0
H1864 H 0.89602 0.21572 0.05487 0.0
H1865 H 0.87609 0.21966 0.00407 0.0
C1866 C 0.87182 0.26701 0.83305 0.0
C1867 C 0.86457 0.28134 0.85219 0.0
C1868 C 0.87297 0.24999 0.84767 0.0
C1869 C 0.86673 0.24681 0.88161 0.0
C1870 C 0.85992 0.26112 0.90127 0.0
C1871 C 0.85881 0.27826 0.88666 0.0
C1872 C 0.86756 0.22847 0.89621 0.0
C1873 C 0.87772 0.22547 0.92639 0.0
C1874 C 0.85999 0.21373 0.8783 0.0
C1875 C 0.84823 0.21619 0.84742 0.0
C1876 C 0.83326 0.22756 0.84916 0.0
C1877 C 0.82245 0.23013 0.81981 0.0
C1878 C 0.82642 0.22132 0.78859 0.0
C1879 C 0.84118 0.20989 0.78669 0.0
C1880 C 0.85204 0.20729 0.81596 0.0
C1881 C 0.88417 0.15063 0.96976 0.0
C1882 C 0.89183 0.13972 0.94384 0.0
C1883 C 0.87793 0.16776 0.96154 0.0
C1884 C 0.87969 0.17447 0.92747 0.0
C1885 C 0.88681 0.16335 0.90138 0.0
C1886 C 0.89271 0.14612 0.90942 0.0
C1887 C 0.8748 0.19323 0.91881 0.0
C1888 C 0.86377 0.19633 0.88978 0.0
C1889 C 0.88161 0.20804 0.93773 0.0
C1890 C 0.89368 0.20585 0.9681 0.0
C1891 C 0.91018 0.197 0.96454 0.0
C1892 C 0.92135 0.19478 0.99348 0.0
C1893 C 0.91623 0.2015 0.02603 0.0
C1894 C 0.89995 0.2105 0.02967 0.0
C1895 C 0.88873 0.21275 0.00082 0.0
H1896 H 0.92489 0.19975 0.0484 0.0
H1897 H 0.81804 0.22334 0.76589 0.0
H1898 H 0.58452 0.12799 0.71739 0.0
H1899 H 0.5555 0.11788 0.69552 0.0
H1900 H 0.57252 0.12861 0.59005 0.0
H1901 H 0.60164 0.13866 0.61161 0.0
H1902 H 0.53973 0.14439 0.60781 0.0
H1903 H 0.56827 0.08679 0.61514 0.0
H1904 H 0.58476 0.0624 0.64414 0.0
H1905 H 0.54257 0.05702 0.71948 0.0
H1906 H 0.52594 0.08158 0.69123 0.0
H1907 H 0.46545 0.10955 0.51893 0.0
H1908 H 0.49603 0.1138 0.53944 0.0
H1909 H 0.48 0.0988 0.64351 0.0
H1910 H 0.44932 0.09426 0.62322 0.0
H1911 H 0.5124 0.08467 0.62686 0.0
H1912 H 0.48441 0.14197 0.62385 0.0
H1913 H 0.46727 0.16693 0.59831 0.0
H1914 H 0.50761 0.17385 0.51968 0.0
H1915 H 0.52488 0.14875 0.54447 0.0
C1916 C 0.58219 0.12803 0.68951 0.0
C1917 C 0.59539 0.13422 0.66626 0.0
C1918 C 0.56561 0.12217 0.67706 0.0
C1919 C 0.5619 0.12248 0.64118 0.0
C1920 C 0.57516 0.12827 0.61785 0.0
C1921 C 0.59181 0.13394 0.63023 0.0
C1922 C 0.54381 0.11786 0.62823 0.0
C1923 C 0.53386 0.13124 0.61141 0.0
C1924 C 0.53595 0.10091 0.63421 0.0
C1925 C 0.54594 0.08616 0.65127 0.0
C1926 C 0.56258 0.08053 0.63809 0.0
C1927 C 0.57194 0.06664 0.65435 0.0
C1928 C 0.56474 0.0582 0.68369 0.0
C1929 C 0.54814 0.06359 0.69678 0.0
C1930 C 0.53874 0.07748 0.68064 0.0
C1931 C 0.46839 0.10699 0.54612 0.0
C1932 C 0.45483 0.10174 0.56946 0.0
C1933 C 0.4859 0.10948 0.55784 0.0
C1934 C 0.49021 0.10689 0.59311 0.0
C1935 C 0.47693 0.10093 0.61621 0.0
C1936 C 0.45938 0.09842 0.60452 0.0
C1937 C 0.50842 0.11114 0.60604 0.0
C1938 C 0.51832 0.09778 0.62304 0.0
C1939 C 0.51618 0.12821 0.60077 0.0
C1940 C 0.50585 0.14335 0.5858 0.0
C1941 C 0.48956 0.14871 0.60093 0.0
C1942 C 0.47983 0.16291 0.58663 0.0
C1943 C 0.48632 0.17194 0.55734 0.0
C1944 C 0.50259 0.16682 0.54234 0.0
C1945 C 0.51236 0.15262 0.55652 0.0
H1946 H 0.47878 0.18292 0.5463 0.0
H1947 H 0.572 0.04745 0.69624 0.0
H1948 H 0.64416 0.73101 0.27449 0.0
H1949 H 0.64064 0.76076 0.29999 0.0
H1950 H 0.64471 0.73819 0.40325 0.0
H1951 H 0.64823 0.70837 0.37811 0.0
H1952 H 0.61597 0.7606 0.39632 0.0
H1953 H 0.67858 0.76204 0.37266 0.0
H1954 H 0.70585 0.75864 0.33709 0.0
H1955 H 0.68711 0.79917 0.26662 0.0
H1956 H 0.65958 0.80264 0.3015 0.0
H1957 H 0.61431 0.84444 0.48009 0.0
H1958 H 0.62589 0.81551 0.46102 0.0
H1959 H 0.62462 0.83338 0.35403 0.0
H1960 H 0.61333 0.86248 0.37283 0.0
H1961 H 0.65397 0.8129 0.36677 0.0
H1962 H 0.59032 0.80925 0.38718 0.0
H1963 H 0.56272 0.81236 0.42194 0.0
H1964 H 0.58338 0.77553 0.49792 0.0
H1965 H 0.61122 0.77239 0.46381 0.0
C1966 C 0.64441 0.73235 0.30262 0.0
C1967 C 0.64643 0.71726 0.32422 0.0
C1968 C 0.64249 0.74939 0.31715 0.0
C1969 C 0.64254 0.75167 0.3535 0.0
C1970 C 0.64468 0.73669 0.37513 0.0
C1971 C 0.64672 0.71967 0.36066 0.0
C1972 C 0.63946 0.76958 0.36888 0.0
C1973 C 0.62447 0.77197 0.3904 0.0
C1974 C 0.65036 0.78445 0.36053 0.0
C1975 C 0.66693 0.78249 0.33955 0.0
C1976 C 0.6802 0.77013 0.34942 0.0
C1977 C 0.69572 0.76821 0.32941 0.0
C1978 C 0.69819 0.77865 0.29957 0.0
C1979 C 0.68517 0.79108 0.28973 0.0
C1980 C 0.66961 0.79304 0.30964 0.0
C1981 C 0.61666 0.84232 0.45253 0.0
C1982 C 0.61262 0.85572 0.42796 0.0
C1983 C 0.62328 0.82576 0.44167 0.0
C1984 C 0.6258 0.82219 0.40605 0.0
C1985 C 0.62271 0.83583 0.38164 0.0
C1986 C 0.61619 0.85245 0.39248 0.0
C1987 C 0.6304 0.80392 0.39397 0.0
C1988 C 0.64561 0.80148 0.373 0.0
C1989 C 0.61969 0.78895 0.40274 0.0
C1990 C 0.60292 0.79074 0.42316 0.0
C1991 C 0.58903 0.80192 0.41144 0.0
C1992 C 0.57334 0.80367 0.43099 0.0
C1993 C 0.57132 0.79419 0.46217 0.0
C1994 C 0.58498 0.78289 0.4738 0.0
C1995 C 0.60071 0.78111 0.45436 0.0
H1996 H 0.55916 0.79556 0.47727 0.0
H1997 H 0.71022 0.77715 0.28411 0.0
H1998 H 0.88972 0.86857 0.12741 0.0
H1999 H 0.919 0.87958 0.10912 0.0
H2000 H 0.94118 0.86481 0.20895 0.0
H2001 H 0.91187 0.85405 0.2278 0.0
H2002 H 0.95472 0.89646 0.18654 0.0
H2003 H 0.94631 0.83744 0.13954 0.0
H2004 H 0.93032 0.81387 0.10709 0.0
H2005 H 0.93272 0.8456 0.01377 0.0
H2006 H 0.94854 0.86947 0.04583 0.0
H2007 H 0.04649 0.89268 0.13378 0.0
H2008 H 0.01648 0.88747 0.15706 0.0
H2009 H 0.99391 0.8979 0.05537 0.0
H2010 H 0.02387 0.90241 0.03173 0.0
H2011 H 0.98042 0.86885 0.08002 0.0
H2012 H 0.99027 0.92773 0.12756 0.0
H2013 H 0.00662 0.95073 0.16092 0.0
H2014 H 0.00209 0.91896 0.25386 0.0
H2015 H 0.98592 0.89566 0.22095 0.0
C2016 C 0.90077 0.86776 0.14563 0.0
C2017 C 0.89846 0.86021 0.17895 0.0
C2018 C 0.91751 0.87406 0.1351 0.0
C2019 C 0.93232 0.87274 0.15748 0.0
C2020 C 0.92993 0.86591 0.19125 0.0
C2021 C 0.91316 0.8597 0.2019 0.0
C2022 C 0.95047 0.87756 0.14496 0.0
C2023 C 0.96045 0.89034 0.16342 0.0
C2024 C 0.95781 0.86971 0.11457 0.0
C2025 C 0.94845 0.8553 0.09516 0.0
C2026 C 0.94332 0.83944 0.11215 0.0
C2027 C 0.9343 0.82602 0.09382 0.0
C2028 C 0.93046 0.82825 0.05841 0.0
C2029 C 0.93568 0.84389 0.04122 0.0
C2030 C 0.94469 0.85737 0.05945 0.0
C2031 C 0.0351 0.89407 0.11651 0.0
C2032 C 0.03754 0.89785 0.08088 0.0
C2033 C 0.01793 0.89117 0.12988 0.0
C2034 C 0.00288 0.89243 0.10804 0.0
C2035 C 0.0053 0.89678 0.07272 0.0
C2036 C 0.02244 0.89937 0.05923 0.0
C2037 C 0.9847 0.88804 0.12119 0.0
C2038 C 0.97471 0.87516 0.10296 0.0
C2039 C 0.97744 0.89579 0.15183 0.0
C2040 C 0.98702 0.90988 0.1717 0.0
C2041 C 0.99287 0.92559 0.15506 0.0
C2042 C 0.00209 0.93869 0.1739 0.0
C2043 C 0.00543 0.93629 0.20946 0.0
C2044 C 0.99951 0.9208 0.2263 0.0
C2045 C 0.9903 0.90765 0.20757 0.0
H2046 H 0.01258 0.94644 0.224 0.0
H2047 H 0.92347 0.81784 0.04427 0.0
H2048 H 0.63843 0.79478 0.88512 0.0
H2049 H 0.63367 0.76442 0.90703 0.0
H2050 H 0.65247 0.74289 0.80909 0.0
H2051 H 0.65634 0.77318 0.78659 0.0
H2052 H 0.62384 0.72696 0.82488 0.0
H2053 H 0.67726 0.73923 0.8897 0.0
H2054 H 0.6972 0.75626 0.92855 0.0
H2055 H 0.65826 0.75318 0.01078 0.0
H2056 H 0.63808 0.73602 0.9723 0.0
H2057 H 0.62248 0.63666 0.87951 0.0
H2058 H 0.63358 0.66595 0.86125 0.0
H2059 H 0.61102 0.6898 0.95387 0.0
H2060 H 0.6004 0.6605 0.97287 0.0
H2061 H 0.64281 0.70397 0.94051 0.0
H2062 H 0.58949 0.69123 0.87244 0.0
H2063 H 0.57104 0.67324 0.83218 0.0
H2064 H 0.61194 0.67688 0.75378 0.0
H2065 H 0.63071 0.69471 0.79374 0.0
C2066 C 0.64176 0.78354 0.86849 0.0
C2067 C 0.64764 0.78631 0.8341 0.0
C2068 C 0.63913 0.76617 0.88109 0.0
C2069 C 0.64285 0.75128 0.85985 0.0
C2070 C 0.6494 0.75411 0.82595 0.0
C2071 C 0.65164 0.77143 0.81311 0.0
C2072 C 0.63866 0.73281 0.8718 0.0
C2073 C 0.6283 0.72186 0.84993 0.0
C2074 C 0.64407 0.7262 0.90478 0.0
C2075 C 0.65612 0.73649 0.92804 0.0
C2076 C 0.67291 0.74228 0.916 0.0
C2077 C 0.68427 0.75194 0.93799 0.0
C2078 C 0.67897 0.75592 0.9721 0.0
C2079 C 0.66234 0.75012 0.98435 0.0
C2080 C 0.65096 0.74037 0.9625 0.0
C2081 C 0.61995 0.64813 0.89607 0.0
C2082 C 0.61041 0.64627 0.92749 0.0
C2083 C 0.62627 0.66487 0.88556 0.0
C2084 C 0.62283 0.68014 0.90586 0.0
C2085 C 0.61379 0.67823 0.93773 0.0
C2086 C 0.60769 0.66146 0.9485 0.0
C2087 C 0.62811 0.6982 0.89348 0.0
C2088 C 0.63854 0.70908 0.91535 0.0
C2089 C 0.62295 0.7047 0.86028 0.0
C2090 C 0.61155 0.69416 0.83618 0.0
C2091 C 0.59457 0.68811 0.84668 0.0
C2092 C 0.58406 0.67795 0.82391 0.0
C2093 C 0.59033 0.67388 0.79048 0.0
C2094 C 0.6071 0.68002 0.7797 0.0
C2095 C 0.61768 0.69016 0.80238 0.0
H2096 H 0.58218 0.66601 0.7729 0.0
H2097 H 0.68778 0.76343 0.98907 0.0
H2098 H 0.45759 0.40148 0.13201 0.0
H2099 H 0.48797 0.39791 0.15465 0.0
H2100 H 0.50767 0.38989 0.04999 0.0
H2101 H 0.47743 0.39312 0.02717 0.0
H2102 H 0.51945 0.36449 0.09264 0.0
H2103 H 0.51552 0.42874 0.09543 0.0
H2104 H 0.50211 0.45773 0.11156 0.0
H2105 H 0.50888 0.44532 0.22015 0.0
H2106 H 0.52208 0.41613 0.20469 0.0
H2107 H 0.61174 0.36672 0.12039 0.0
H2108 H 0.58222 0.37701 0.10208 0.0
H2109 H 0.56497 0.37866 0.20939 0.0
H2110 H 0.59454 0.36838 0.22817 0.0
H2111 H 0.55176 0.4076 0.16833 0.0
H2112 H 0.55474 0.34352 0.16616 0.0
H2113 H 0.56779 0.31424 0.151 0.0
H2114 H 0.56208 0.32621 0.04197 0.0
H2115 H 0.54925 0.3557 0.05651 0.0
C2116 C 0.46841 0.39911 0.11373 0.0
C2117 C 0.46502 0.39748 0.07774 0.0
C2118 C 0.48578 0.39716 0.12676 0.0
C2119 C 0.50009 0.39371 0.10399 0.0
C2120 C 0.49681 0.39249 0.06804 0.0
C2121 C 0.47948 0.39437 0.05502 0.0
C2122 C 0.51835 0.39031 0.11756 0.0
C2123 C 0.52658 0.37406 0.10875 0.0
C2124 C 0.52744 0.40254 0.13956 0.0
C2125 C 0.51964 0.42016 0.14889 0.0
C2126 C 0.51403 0.43213 0.12275 0.0
C2127 C 0.50648 0.44861 0.13177 0.0
C2128 C 0.50461 0.45335 0.16686 0.0
C2129 C 0.51032 0.44163 0.19299 0.0
C2130 C 0.51785 0.42511 0.18411 0.0
C2131 C 0.6018 0.3695 0.14023 0.0
C2132 C 0.60546 0.36646 0.17575 0.0
C2133 C 0.58492 0.37538 0.12967 0.0
C2134 C 0.57139 0.37837 0.15437 0.0
C2135 C 0.57526 0.37639 0.18996 0.0
C2136 C 0.59213 0.37041 0.20058 0.0
C2137 C 0.55286 0.38199 0.14269 0.0
C2138 C 0.54457 0.39814 0.15208 0.0
C2139 C 0.54362 0.36967 0.12128 0.0
C2140 C 0.55121 0.35189 0.11243 0.0
C2141 C 0.55641 0.33997 0.13895 0.0
C2142 C 0.56374 0.32333 0.13047 0.0
C2143 C 0.56581 0.31839 0.09554 0.0
C2144 C 0.5605 0.33007 0.06902 0.0
C2145 C 0.55319 0.34674 0.07736 0.0
H2146 H 0.57149 0.30549 0.08902 0.0
H2147 H 0.4988 0.46612 0.1738 0.0
H2148 H 0.8475 0.20795 0.39108 0.0
H2149 H 0.85304 0.23794 0.41421 0.0
H2150 H 0.87485 0.2542 0.31494 0.0
H2151 H 0.86959 0.22433 0.29167 0.0
H2152 H 0.89563 0.26518 0.36864 0.0
H2153 H 0.83316 0.2668 0.33789 0.0
H2154 H 0.80206 0.25579 0.33885 0.0
H2155 H 0.80014 0.26285 0.44999 0.0
H2156 H 0.83134 0.27377 0.44972 0.0
H2157 H 0.89493 0.35881 0.38001 0.0
H2158 H 0.88735 0.32828 0.36268 0.0
H2159 H 0.86855 0.31718 0.46689 0.0
H2160 H 0.87576 0.34791 0.48418 0.0
H2161 H 0.84649 0.30283 0.41556 0.0
H2162 H 0.90877 0.30345 0.445 0.0
H2163 H 0.93988 0.3144 0.44287 0.0
H2164 H 0.94229 0.30283 0.33322 0.0
H2165 H 0.91109 0.29208 0.33456 0.0
C2166 C 0.85348 0.2179 0.37411 0.0
C2167 C 0.85805 0.21371 0.33944 0.0
C2168 C 0.85658 0.23504 0.38739 0.0
C2169 C 0.86425 0.24831 0.3662 0.0
C2170 C 0.86894 0.24414 0.33173 0.0
C2171 C 0.86584 0.22705 0.31843 0.0
C2172 C 0.86742 0.26659 0.37975 0.0
C2173 C 0.88487 0.27347 0.37859 0.0
C2174 C 0.85344 0.27721 0.39357 0.0
C2175 C 0.83461 0.27094 0.39382 0.0
C2176 C 0.82614 0.26591 0.36256 0.0
C2177 C 0.8085 0.25971 0.36297 0.0
C2178 C 0.79916 0.25859 0.39447 0.0
C2179 C 0.80741 0.26372 0.42562 0.0
C2180 C 0.82506 0.26995 0.42535 0.0
C2181 C 0.88901 0.34995 0.39917 0.0
C2182 C 0.88626 0.35563 0.43371 0.0
C2183 C 0.88477 0.33249 0.38926 0.0
C2184 C 0.8777 0.32041 0.41368 0.0
C2185 C 0.87415 0.32627 0.44775 0.0
C2186 C 0.87844 0.34373 0.45769 0.0
C2187 C 0.87465 0.30151 0.4038 0.0
C2188 C 0.85727 0.29449 0.4058 0.0
C2189 C 0.8887 0.29075 0.39067 0.0
C2190 C 0.90753 0.2971 0.38983 0.0
C2191 C 0.91589 0.30337 0.42037 0.0
C2192 C 0.93355 0.30952 0.41932 0.0
C2193 C 0.94304 0.30934 0.38791 0.0
C2194 C 0.93491 0.30298 0.35752 0.0
C2195 C 0.91725 0.29684 0.35842 0.0
H2196 H 0.95672 0.31409 0.38713 0.0
H2197 H 0.78551 0.2538 0.39466 0.0
H2198 H 0.90426 0.64185 0.73462 0.0
H2199 H 0.93415 0.63181 0.71785 0.0
H2200 H 0.91645 0.62533 0.61147 0.0
H2201 H 0.88647 0.63514 0.62795 0.0
H2202 H 0.93748 0.59769 0.63189 0.0
H2203 H 0.93963 0.66194 0.63474 0.0
H2204 H 0.93577 0.6918 0.66104 0.0
H2205 H 0.973 0.67816 0.74214 0.0
H2206 H 0.9769 0.6481 0.71655 0.0
H2207 H 0.01933 0.60305 0.53864 0.0
H2208 H 0.98953 0.60792 0.56298 0.0
H2209 H 0.01184 0.60967 0.6667 0.0
H2210 H 0.04177 0.60475 0.64266 0.0
H2211 H 0.98903 0.63828 0.65185 0.0
H2212 H 0.98853 0.57439 0.64466 0.0
H2213 H 0.99249 0.54511 0.61608 0.0
H2214 H 0.95223 0.55867 0.54066 0.0
H2215 H 0.9482 0.58816 0.56849 0.0
C2216 C 0.90667 0.63822 0.70767 0.0
C2217 C 0.89297 0.63945 0.68259 0.0
C2218 C 0.92378 0.63252 0.69813 0.0
C2219 C 0.92755 0.62803 0.66334 0.0
C2220 C 0.91381 0.62875 0.63846 0.0
C2221 C 0.8967 0.63444 0.64794 0.0
C2222 C 0.94594 0.62312 0.65258 0.0
C2223 C 0.94874 0.60662 0.63599 0.0
C2224 C 0.96066 0.63463 0.6586 0.0
C2225 C 0.9584 0.65271 0.67396 0.0
C2226 C 0.94688 0.66526 0.65834 0.0
C2227 C 0.94471 0.68223 0.67308 0.0
C2228 C 0.95409 0.68686 0.7033 0.0
C2229 C 0.96571 0.67454 0.71877 0.0
C2230 C 0.96792 0.65754 0.70415 0.0
C2231 C 0.01793 0.60434 0.56666 0.0
C2232 C 0.03296 0.60354 0.58869 0.0
C2233 C 0.00087 0.60705 0.58052 0.0
C2234 C 0.99851 0.60906 0.61662 0.0
C2235 C 0.01342 0.60811 0.63876 0.0
C2236 C 0.03049 0.60524 0.62496 0.0
C2237 C 0.98054 0.61292 0.63094 0.0
C2238 C 0.97782 0.62926 0.64811 0.0
C2239 C 0.96588 0.60133 0.6252 0.0
C2240 C 0.96817 0.58355 0.60851 0.0
C2241 C 0.98062 0.57119 0.62182 0.0
C2242 C 0.98286 0.55455 0.60578 0.0
C2243 C 0.97264 0.55005 0.57653 0.0
C2244 C 0.96014 0.56218 0.5633 0.0
C2245 C 0.95786 0.57886 0.57923 0.0
H2246 H 0.9744 0.53716 0.56414 0.0
H2247 H 0.95239 0.7 0.71468 0.0
H2248 H 0.62776 0.21974 0.70974 0.0
H2249 H 0.62298 0.24976 0.68696 0.0
H2250 H 0.64254 0.23306 0.58623 0.0
H2251 H 0.64758 0.20285 0.60886 0.0
H2252 H 0.65502 0.26643 0.60446 0.0
H2253 H 0.59897 0.23647 0.59756 0.0
H2254 H 0.57357 0.21835 0.61843 0.0
H2255 H 0.56143 0.25818 0.69563 0.0
H2256 H 0.58695 0.27643 0.67556 0.0
H2257 H 0.6125 0.34059 0.51468 0.0
H2258 H 0.62212 0.31073 0.53335 0.0
H2259 H 0.61004 0.32429 0.64014 0.0
H2260 H 0.60067 0.35419 0.62192 0.0
H2261 H 0.5939 0.29188 0.61464 0.0
H2262 H 0.65117 0.32151 0.62022 0.0
H2263 H 0.67636 0.33914 0.59697 0.0
H2264 H 0.68554 0.29932 0.51821 0.0
H2265 H 0.6602 0.28156 0.54069 0.0
C2266 C 0.63117 0.22239 0.68281 0.0
C2267 C 0.6379 0.20878 0.66109 0.0
C2268 C 0.62838 0.23959 0.66978 0.0
C2269 C 0.63216 0.24355 0.63478 0.0
C2270 C 0.63948 0.23024 0.61329 0.0
C2271 C 0.64228 0.21297 0.6263 0.0
C2272 C 0.62785 0.26148 0.62059 0.0
C2273 C 0.64161 0.27191 0.60619 0.0
C2274 C 0.61037 0.26864 0.62311 0.0
C2275 C 0.59498 0.25774 0.63527 0.0
C2276 C 0.59098 0.2413 0.61919 0.0
C2277 C 0.57655 0.23101 0.63083 0.0
C2278 C 0.56592 0.23709 0.65839 0.0
C2279 C 0.56969 0.25348 0.67431 0.0
C2280 C 0.58413 0.26381 0.66279 0.0
C2281 C 0.61205 0.33726 0.54218 0.0
C2282 C 0.60576 0.34973 0.56681 0.0
C2283 C 0.61761 0.32024 0.55278 0.0
C2284 C 0.61676 0.31537 0.58808 0.0
C2285 C 0.61078 0.32785 0.61277 0.0
C2286 C 0.60549 0.34494 0.6023 0.0
C2287 C 0.62113 0.29694 0.59918 0.0
C2288 C 0.60731 0.28637 0.61283 0.0
C2289 C 0.63847 0.28962 0.59552 0.0
C2290 C 0.65364 0.30032 0.58186 0.0
C2291 C 0.65842 0.3166 0.5977 0.0
C2292 C 0.67277 0.3266 0.58472 0.0
C2293 C 0.68251 0.32039 0.55606 0.0
C2294 C 0.67796 0.30414 0.54037 0.0
C2295 C 0.66361 0.2941 0.55323 0.0
H2296 H 0.69361 0.32814 0.54607 0.0
H2297 H 0.55474 0.22911 0.66736 0.0
H2298 H 0.02789 0.41189 0.96088 0.0
H2299 H 0.9974 0.4086 0.93885 0.0
H2300 H 0.01805 0.38911 0.84079 0.0
H2301 H 0.04864 0.3932 0.86217 0.0
H2302 H 0.98878 0.40801 0.82949 0.0
H2303 H 0.00511 0.36025 0.90846 0.0
H2304 H 0.01586 0.34777 0.96424 0.0
H2305 H 0.97217 0.37279 0.01823 0.0
H2306 H 0.96128 0.3856 0.96279 0.0
H2307 H 0.91778 0.35095 0.77609 0.0
H2308 H 0.94559 0.36546 0.79352 0.0
H2309 H 0.92042 0.38415 0.88806 0.0
H2310 H 0.89262 0.36931 0.87123 0.0
H2311 H 0.95083 0.36837 0.90233 0.0
H2312 H 0.93252 0.41317 0.8206 0.0
H2313 H 0.92201 0.42484 0.76402 0.0
H2314 H 0.96925 0.40456 0.71402 0.0
H2315 H 0.97994 0.39254 0.77022 0.0
C2316 C 0.02593 0.40716 0.93443 0.0
C2317 C 0.04062 0.40254 0.9134 0.0
C2318 C 0.0085 0.40524 0.92189 0.0
C2319 C 0.00542 0.39813 0.88851 0.0
C2320 C 0.02009 0.39452 0.86671 0.0
C2321 C 0.03756 0.39682 0.87898 0.0
C2322 C 0.98705 0.39307 0.87743 0.0
C2323 C 0.9805 0.39925 0.84527 0.0
C2324 C 0.9761 0.38191 0.89832 0.0
C2325 C 0.98249 0.37401 0.93156 0.0
C2326 C 0.99785 0.36316 0.93226 0.0
C2327 C 0.00396 0.35602 0.96381 0.0
C2328 C 0.99473 0.35952 0.99477 0.0
C2329 C 0.97932 0.37011 0.99424 0.0
C2330 C 0.97317 0.3773 0.96276 0.0
C2331 C 0.91805 0.35833 0.80039 0.0
C2332 C 0.90297 0.35882 0.82238 0.0
C2333 C 0.93396 0.36675 0.81022 0.0
C2334 C 0.93508 0.37604 0.84198 0.0
C2335 C 0.91988 0.37706 0.86343 0.0
C2336 C 0.90399 0.36855 0.85375 0.0
C2337 C 0.95249 0.38324 0.85428 0.0
C2338 C 0.95893 0.37735 0.88668 0.0
C2339 C 0.96332 0.39455 0.83345 0.0
C2340 C 0.95697 0.40184 0.79961 0.0
C2341 C 0.94061 0.41108 0.7975 0.0
C2342 C 0.93463 0.41778 0.7655 0.0
C2343 C 0.94494 0.41541 0.73543 0.0
C2344 C 0.96128 0.40638 0.73732 0.0
C2345 C 0.96731 0.39964 0.76926 0.0
H2346 H 0.94029 0.4206 0.71068 0.0
H2347 H 0.99949 0.35399 0.01917 0.0
H2348 H 0.86713 0.77592 0.20756 0.0
H2349 H 0.87267 0.74657 0.18218 0.0
H2350 H 0.84904 0.7638 0.08519 0.0
H2351 H 0.84341 0.79342 0.11037 0.0
H2352 H 0.83864 0.72889 0.10537 0.0
H2353 H 0.8917 0.76232 0.08695 0.0
H2354 H 0.91676 0.78229 0.10197 0.0
H2355 H 0.9359 0.74401 0.17672 0.0
H2356 H 0.91077 0.72388 0.16247 0.0
H2357 H 0.88285 0.65583 0.01191 0.0
H2358 H 0.87224 0.68558 0.02951 0.0
H2359 H 0.88688 0.67431 0.13607 0.0
H2360 H 0.89714 0.64453 0.11901 0.0
H2361 H 0.90147 0.70736 0.10421 0.0
H2362 H 0.84628 0.67463 0.12232 0.0
H2363 H 0.82121 0.65529 0.10431 0.0
H2364 H 0.80656 0.69316 0.02504 0.0
H2365 H 0.83174 0.71262 0.04226 0.0
C2366 C 0.86295 0.77351 0.18092 0.0
C2367 C 0.85492 0.78711 0.16095 0.0
C2368 C 0.86618 0.75671 0.16643 0.0
C2369 C 0.86144 0.75311 0.13173 0.0
C2370 C 0.85284 0.76637 0.11201 0.0
C2371 C 0.8497 0.78329 0.12643 0.0
C2372 C 0.86613 0.73563 0.11607 0.0
C2373 C 0.8524 0.72427 0.10454 0.0
C2374 C 0.88408 0.72963 0.11513 0.0
C2375 C 0.89924 0.74166 0.12387 0.0
C2376 C 0.90115 0.75822 0.10683 0.0
C2377 C 0.91539 0.76956 0.11516 0.0
C2378 C 0.92789 0.76446 0.14037 0.0
C2379 C 0.92619 0.74796 0.15723 0.0
C2380 C 0.91196 0.73657 0.149 0.0
C2381 C 0.88362 0.65963 0.03915 0.0
C2382 C 0.89087 0.64785 0.06407 0.0
C2383 C 0.87752 0.67657 0.04913 0.0
C2384 C 0.87883 0.68206 0.08403 0.0
C2385 C 0.88577 0.67026 0.10901 0.0
C2386 C 0.89156 0.65323 0.09921 0.0
C2387 C 0.87396 0.70047 0.0944 0.0
C2388 C 0.88773 0.71203 0.10479 0.0
C2389 C 0.8561 0.70669 0.09375 0.0
C2390 C 0.84105 0.69496 0.08325 0.0
C2391 C 0.83785 0.67874 0.10077 0.0
C2392 C 0.82359 0.66778 0.09078 0.0
C2393 C 0.81234 0.67296 0.06346 0.0
C2394 C 0.81531 0.68914 0.04614 0.0
C2395 C 0.82957 0.70014 0.05601 0.0
H2396 H 0.80129 0.66446 0.05578 0.0
H2397 H 0.93891 0.77326 0.14678 0.0
H2398 H 0.59143 0.64279 0.25265 0.0
H2399 H 0.56263 0.63012 0.26946 0.0
H2400 H 0.57932 0.62956 0.37726 0.0
H2401 H 0.60855 0.64122 0.36042 0.0
H2402 H 0.56058 0.60093 0.36465 0.0
H2403 H 0.5528 0.66396 0.3407 0.0
H2404 H 0.55437 0.69129 0.30474 0.0
H2405 H 0.52028 0.66704 0.22793 0.0
H2406 H 0.51868 0.63948 0.26327 0.0
H2407 H 0.47832 0.6081 0.45467 0.0
H2408 H 0.50776 0.61249 0.42869 0.0
H2409 H 0.48533 0.60492 0.32605 0.0
H2410 H 0.45569 0.60057 0.35176 0.0
H2411 H 0.5063 0.63491 0.33052 0.0
H2412 H 0.51133 0.573 0.35993 0.0
H2413 H 0.50927 0.54662 0.39832 0.0
H2414 H 0.54812 0.56967 0.46755 0.0
H2415 H 0.55023 0.59632 0.42982 0.0
C2416 C 0.58912 0.63968 0.27986 0.0
C2417 C 0.60235 0.64303 0.30515 0.0
C2418 C 0.57255 0.63258 0.28948 0.0
C2419 C 0.56865 0.62921 0.32472 0.0
C2420 C 0.58199 0.63207 0.3499 0.0
C2421 C 0.59869 0.63883 0.34022 0.0
C2422 C 0.55047 0.6235 0.33571 0.0
C2423 C 0.54873 0.60844 0.35738 0.0
C2424 C 0.53492 0.63302 0.32556 0.0
C2425 C 0.53578 0.64961 0.30443 0.0
C2426 C 0.54573 0.66442 0.31603 0.0
C2427 C 0.54662 0.67995 0.29578 0.0
C2428 C 0.53748 0.68088 0.26402 0.0
C2429 C 0.52738 0.66629 0.2525 0.0
C2430 C 0.52647 0.65072 0.27264 0.0
C2431 C 0.4796 0.60724 0.42658 0.0
C2432 C 0.46459 0.60403 0.40532 0.0
C2433 C 0.49649 0.60965 0.41178 0.0
C2434 C 0.49874 0.60887 0.37548 0.0
C2435 C 0.48386 0.60551 0.35415 0.0
C2436 C 0.46695 0.603 0.36893 0.0
C2437 C 0.51648 0.61257 0.35988 0.0
C2438 C 0.51813 0.62726 0.33738 0.0
C2439 C 0.53193 0.60283 0.36957 0.0
C2440 C 0.53085 0.58672 0.39214 0.0
C2441 C 0.51935 0.5725 0.38346 0.0
C2442 C 0.51818 0.55749 0.40509 0.0
C2443 C 0.52853 0.55648 0.43539 0.0
C2444 C 0.54011 0.57047 0.44407 0.0
C2445 C 0.54131 0.58553 0.42254 0.0
H2446 H 0.52761 0.54485 0.45211 0.0
H2447 H 0.53818 0.69291 0.24838 0.0
H2448 H 0.39108 0.33908 0.01321 0.0
H2449 H 0.38119 0.30957 0.03279 0.0
H2450 H 0.38247 0.32763 0.13964 0.0
H2451 H 0.39238 0.35715 0.12045 0.0
H2452 H 0.40073 0.29613 0.12966 0.0
H2453 H 0.3432 0.32084 0.1002 0.0
H2454 H 0.32102 0.33536 0.06191 0.0
H2455 H 0.32524 0.29195 0.98898 0.0
H2456 H 0.34765 0.27729 0.02661 0.0
H2457 H 0.36253 0.22213 0.21251 0.0
H2458 H 0.36688 0.25237 0.19039 0.0
H2459 H 0.36176 0.23306 0.08479 0.0
H2460 H 0.35698 0.20269 0.10672 0.0
H2461 H 0.3453 0.26495 0.09244 0.0
H2462 H 0.40275 0.24044 0.11925 0.0
H2463 H 0.42541 0.22541 0.15571 0.0
H2464 H 0.42235 0.26798 0.23071 0.0
H2465 H 0.39946 0.28314 0.19493 0.0
C2466 C 0.38912 0.33685 0.04086 0.0
C2467 C 0.39264 0.35049 0.06526 0.0
C2468 C 0.38338 0.31998 0.05198 0.0
C2469 C 0.38106 0.31645 0.08765 0.0
C2470 C 0.3842 0.3301 0.11199 0.0
C2471 C 0.38983 0.34699 0.10092 0.0
C2472 C 0.3764 0.29822 0.09983 0.0
C2473 C 0.38848 0.28942 0.12195 0.0
C2474 C 0.36072 0.28926 0.08872 0.0
C2475 C 0.34725 0.29806 0.06606 0.0
C2476 C 0.33952 0.31447 0.07584 0.0
C2477 C 0.32688 0.32271 0.05429 0.0
C2478 C 0.32176 0.31461 0.02298 0.0
C2479 C 0.32924 0.29823 0.01321 0.0
C2480 C 0.3419 0.28994 0.03466 0.0
C2481 C 0.3622 0.22427 0.18456 0.0
C2482 C 0.35962 0.20992 0.16137 0.0
C2483 C 0.36473 0.24159 0.17197 0.0
C2484 C 0.365 0.24491 0.13593 0.0
C2485 C 0.36168 0.23078 0.1127 0.0
C2486 C 0.359 0.21342 0.1253 0.0
C2487 C 0.36953 0.26298 0.12265 0.0
C2488 C 0.35752 0.2717 0.10021 0.0
C2489 C 0.38539 0.27184 0.13311 0.0
C2490 C 0.39927 0.26285 0.15456 0.0
C2491 C 0.40682 0.24654 0.14364 0.0
C2492 C 0.41971 0.238 0.16416 0.0
C2493 C 0.42528 0.24572 0.19554 0.0
C2494 C 0.418 0.26201 0.20641 0.0
C2495 C 0.40508 0.27059 0.18601 0.0
H2496 H 0.43527 0.23909 0.2114 0.0
H2497 H 0.31197 0.32101 0.00634 0.0
H2498 H 0.41391 0.6499 0.77586 0.0
H2499 H 0.44234 0.6375 0.79596 0.0
H2500 H 0.41838 0.62453 0.89514 0.0
H2501 H 0.38976 0.63653 0.87502 0.0
H2502 H 0.45084 0.64337 0.9001 0.0
H2503 H 0.42698 0.59181 0.84084 0.0
H2504 H 0.41346 0.57642 0.79041 0.0
H2505 H 0.45969 0.58864 0.72832 0.0
H2506 H 0.47338 0.60437 0.77824 0.0
H2507 H 0.5253 0.59876 0.96937 0.0
H2508 H 0.49487 0.60432 0.94892 0.0
H2509 H 0.51436 0.60984 0.84347 0.0
H2510 H 0.54475 0.60367 0.86352 0.0
H2511 H 0.48327 0.59355 0.84238 0.0
H2512 H 0.50626 0.64668 0.89573 0.0
H2513 H 0.5201 0.66486 0.94215 0.0
H2514 H 0.47636 0.65261 0.01079 0.0
H2515 H 0.46237 0.63415 0.96488 0.0
C2516 C 0.41458 0.64413 0.8017 0.0
C2517 C 0.39949 0.64407 0.82364 0.0
C2518 C 0.43085 0.63709 0.81318 0.0
C2519 C 0.43239 0.63 0.84693 0.0
C2520 C 0.41741 0.62991 0.86896 0.0
C2521 C 0.40107 0.63678 0.85737 0.0
C2522 C 0.44985 0.62338 0.85974 0.0
C2523 C 0.45781 0.63226 0.88795 0.0
C2524 C 0.45912 0.60931 0.84298 0.0
C2525 C 0.45115 0.59938 0.81323 0.0
C2526 C 0.43423 0.59129 0.81639 0.0
C2527 C 0.42654 0.5825 0.7879 0.0
C2528 C 0.4357 0.58158 0.75616 0.0
C2529 C 0.45261 0.58937 0.75291 0.0
C2530 C 0.46035 0.59821 0.78132 0.0
C2531 C 0.5231 0.60099 0.94178 0.0
C2532 C 0.5375 0.60099 0.91815 0.0
C2533 C 0.50569 0.60421 0.93013 0.0
C2534 C 0.50237 0.60788 0.89476 0.0
C2535 C 0.51659 0.6071 0.87089 0.0
C2536 C 0.53398 0.60363 0.88244 0.0
C2537 C 0.4843 0.6135 0.88299 0.0
C2538 C 0.47624 0.60452 0.85485 0.0
C2539 C 0.47503 0.62775 0.89937 0.0
C2540 C 0.48337 0.63888 0.92701 0.0
C2541 C 0.49966 0.64776 0.92081 0.0
C2542 C 0.50752 0.65813 0.94701 0.0
C2543 C 0.49914 0.65985 0.97943 0.0
C2544 C 0.48285 0.65124 0.98568 0.0
C2545 C 0.47495 0.64083 0.95958 0.0
H2546 H 0.50524 0.66789 -0.00032 0.0
H2547 H 0.42969 0.57482 0.7341 0.0
H2548 H 0.09846 0.66149 0.52063 0.0
H2549 H 0.10939 0.6909 0.53809 0.0
H2550 H 0.12622 0.66935 0.63723 0.0
H2551 H 0.11497 0.63993 0.62033 0.0
H2552 H 0.10738 0.69894 0.64598 0.0
H2553 H 0.15664 0.6815 0.57257 0.0
H2554 H 0.17053 0.67054 0.51824 0.0
H2555 H 0.14938 0.71561 0.46236 0.0
H2556 H 0.13516 0.72672 0.51627 0.0
H2557 H 0.14908 0.7764 0.7081 0.0
H2558 H 0.14488 0.74594 0.6867 0.0
H2559 H 0.13003 0.76655 0.58554 0.0
H2560 H 0.13505 0.7971 0.60644 0.0
H2561 H 0.14878 0.73716 0.57751 0.0
H2562 H 0.09814 0.75369 0.64791 0.0
H2563 H 0.08295 0.76482 0.70077 0.0
H2564 H 0.1052 0.72159 0.76043 0.0
H2565 H 0.12071 0.71032 0.70799 0.0
C2566 C 0.10465 0.66292 0.54604 0.0
C2567 C 0.10574 0.64833 0.56915 0.0
C2568 C 0.11099 0.67976 0.5559 0.0
C2569 C 0.11877 0.68231 0.58886 0.0
C2570 C 0.12026 0.66769 0.61167 0.0
C2571 C 0.11382 0.65087 0.60194 0.0
C2572 C 0.12426 0.70042 0.60051 0.0
C2573 C 0.11669 0.70716 0.63132 0.0
C2574 C 0.13593 0.71139 0.58075 0.0
C2575 C 0.14471 0.70487 0.54842 0.0
C2576 C 0.15486 0.68902 0.54865 0.0
C2577 C 0.16281 0.68279 0.51794 0.0
C2578 C 0.1608 0.69235 0.48685 0.0
C2579 C 0.15091 0.70821 0.48645 0.0
C2580 C 0.14292 0.71449 0.51709 0.0
C2581 C 0.14504 0.77444 0.68122 0.0
C2582 C 0.14215 0.78913 0.65907 0.0
C2583 C 0.14259 0.75702 0.66903 0.0
C2584 C 0.13668 0.75395 0.63476 0.0
C2585 C 0.1345 0.76858 0.61214 0.0
C2586 C 0.13732 0.78603 0.62413 0.0
C2587 C 0.13198 0.73559 0.62313 0.0
C2588 C 0.13959 0.72886 0.59229 0.0
C2589 C 0.12019 0.72463 0.64264 0.0
C2590 C 0.1107 0.73126 0.6741 0.0
C2591 C 0.09987 0.74662 0.67235 0.0
C2592 C 0.0912 0.75294 0.70223 0.0
C2593 C 0.09315 0.74394 0.73396 0.0
C2594 C 0.10372 0.72856 0.73585 0.0
C2595 C 0.11244 0.72219 0.70605 0.0
H2596 H 0.08643 0.74887 0.75706 0.0
H2597 H 0.16694 0.68749 0.46309 0.0
H2598 H 0.08125 0.36162 0.28095 0.0
H2599 H 0.05324 0.37402 0.30302 0.0
H2600 H 0.07418 0.37279 0.40785 0.0
H2601 H 0.10231 0.36031 0.38608 0.0
H2602 H 0.04072 0.35749 0.40237 0.0
H2603 H 0.06955 0.41205 0.36683 0.0
H2604 H 0.08525 0.43209 0.32589 0.0
H2605 H 0.04043 0.43011 0.25589 0.0
H2606 H 0.02456 0.40986 0.29619 0.0
H2607 H 0.96787 0.40108 0.48065 0.0
H2608 H 0.99834 0.39527 0.46078 0.0
H2609 H 0.98099 0.39951 0.35374 0.0
H2610 H 0.95052 0.40572 0.37332 0.0
H2611 H 0.01334 0.41428 0.36172 0.0
H2612 H 0.98521 0.35899 0.39247 0.0
H2613 H 0.96875 0.33809 0.43049 0.0
H2614 H 0.01141 0.33986 0.50545 0.0
H2615 H 0.02799 0.36108 0.46815 0.0
C2616 C 0.07999 0.36409 0.30869 0.0
C2617 C 0.09404 0.3599 0.33176 0.0
C2618 C 0.06398 0.37127 0.32122 0.0
C2619 C 0.06169 0.37443 0.35703 0.0
C2620 C 0.07572 0.37048 0.3801 0.0
C2621 C 0.0918 0.3634 0.36758 0.0
C2622 C 0.04429 0.38095 0.37053 0.0
C2623 C 0.03488 0.37007 0.39401 0.0
C2624 C 0.03643 0.39706 0.35862 0.0
C2625 C 0.04593 0.40931 0.33441 0.0
C2626 C 0.0631 0.41577 0.34258 0.0
C2627 C 0.07202 0.42719 0.31951 0.0
C2628 C 0.06386 0.43234 0.28827 0.0
C2629 C 0.04674 0.4261 0.28008 0.0
C2630 C 0.03777 0.41467 0.30305 0.0
C2631 C 0.97054 0.40099 0.45287 0.0
C2632 C 0.95667 0.40366 0.42858 0.0
C2633 C 0.98797 0.39762 0.44156 0.0
C2634 C 0.99186 0.3966 0.40578 0.0
C2635 C 0.97827 0.40017 0.38148 0.0
C2636 C 0.96084 0.40368 0.39276 0.0
C2637 C 0.00982 0.39085 0.39372 0.0
C2638 C 0.01928 0.40179 0.37037 0.0
C2639 C 0.01763 0.37464 0.40531 0.0
C2640 C 0.00776 0.36178 0.42769 0.0
C2641 C 0.99102 0.35504 0.41718 0.0
C2642 C 0.98168 0.34311 0.43858 0.0
C2643 C 0.98902 0.33767 0.47038 0.0
C2644 C 0.00574 0.34412 0.48082 0.0
C2645 C 0.01511 0.35609 0.45957 0.0
H2646 H 0.98177 0.32843 0.4869 0.0
H2647 H 0.07079 0.44118 0.27045 0.0
H2648 H 0.38992 0.63999 0.36895 0.0
H2649 H 0.3794 0.66925 0.3495 0.0
H2650 H 0.37849 0.6878 0.45602 0.0
H2651 H 0.38908 0.65854 0.47589 0.0
H2652 H 0.34866 0.69938 0.41563 0.0
H2653 H 0.41291 0.69823 0.41015 0.0
H2654 H 0.4423 0.68595 0.39337 0.0
H2655 H 0.42843 0.69087 0.28505 0.0
H2656 H 0.39882 0.70292 0.30122 0.0
H2657 H 0.35069 0.79313 0.38151 0.0
H2658 H 0.35616 0.76279 0.40254 0.0
H2659 H 0.36415 0.74479 0.29672 0.0
H2660 H 0.35907 0.77512 0.27545 0.0
H2661 H 0.3899 0.73272 0.33768 0.0
H2662 H 0.32582 0.73462 0.34277 0.0
H2663 H 0.29648 0.74704 0.35944 0.0
H2664 H 0.30973 0.74093 0.46781 0.0
H2665 H 0.33928 0.7287 0.45179 0.0
C2666 C 0.38729 0.65018 0.38837 0.0
C2667 C 0.39054 0.64695 0.42399 0.0
C2668 C 0.3813 0.66691 0.37716 0.0
C2669 C 0.37837 0.68071 0.40131 0.0
C2670 C 0.38072 0.67731 0.437 0.0
C2671 C 0.38685 0.6606 0.44826 0.0
C2672 C 0.37402 0.69898 0.38901 0.0
C2673 C 0.35772 0.70678 0.39889 0.0
C2674 C 0.38575 0.70845 0.36671 0.0
C2675 C 0.40357 0.70129 0.3569 0.0
C2676 C 0.41606 0.69654 0.38276 0.0
C2677 C 0.43277 0.68965 0.37336 0.0
C2678 C 0.43721 0.68758 0.33817 0.0
C2679 C 0.42496 0.69245 0.3123 0.0
C2680 C 0.40821 0.69931 0.32157 0.0
C2681 C 0.3535 0.78271 0.36262 0.0
C2682 C 0.35447 0.78661 0.32674 0.0
C2683 C 0.35654 0.76534 0.37473 0.0
C2684 C 0.36041 0.75148 0.35118 0.0
C2685 C 0.36119 0.75528 0.31536 0.0
C2686 C 0.35825 0.77265 0.30323 0.0
C2687 C 0.3644 0.73316 0.36392 0.0
C2688 C 0.38073 0.72534 0.35427 0.0
C2689 C 0.35266 0.72371 0.38635 0.0
C2690 C 0.33483 0.73089 0.39607 0.0
C2691 C 0.32253 0.73604 0.37016 0.0
C2692 C 0.30585 0.74303 0.37949 0.0
C2693 C 0.30126 0.74482 0.41466 0.0
C2694 C 0.31332 0.73956 0.44058 0.0
C2695 C 0.33002 0.73258 0.43138 0.0
H2696 H 0.28835 0.75024 0.42184 0.0
H2697 H 0.45015 0.68225 0.33094 0.0
H2698 H 0.95575 0.60747 0.13506 0.0
H2699 H 0.98541 0.61358 0.15914 0.0
H2700 H 0.00824 0.61069 0.05597 0.0
H2701 H 0.97859 0.60474 0.03145 0.0
H2702 H 0.02834 0.59243 0.10982 0.0
H2703 H 0.00092 0.64959 0.08541 0.0
H2704 H 0.97688 0.67211 0.08902 0.0
H2705 H 0.98212 0.67342 0.20059 0.0
H2706 H 0.00602 0.65068 0.19766 0.0
H2707 H 0.1105 0.63827 0.12923 0.0
H2708 H 0.08111 0.6273 0.11184 0.0
H2709 H 0.06041 0.63947 0.2142 0.0
H2710 H 0.08977 0.6507 0.23184 0.0
H2711 H 0.03864 0.65176 0.1644 0.0
H2712 H 0.06732 0.59644 0.18962 0.0
H2713 H 0.09085 0.57336 0.18738 0.0
H2714 H 0.08299 0.56772 0.07693 0.0
H2715 H 0.05958 0.59097 0.0784 0.0
C2716 C 0.96708 0.60796 0.11747 0.0
C2717 C 0.96479 0.60573 0.08127 0.0
C2718 C 0.984 0.61149 0.1313 0.0
C2719 C 0.99893 0.61268 0.10927 0.0
C2720 C 0.99684 0.60981 0.07334 0.0
C2721 C 0.97988 0.60651 0.05939 0.0
C2722 C 0.01659 0.61775 0.1235 0.0
C2723 C 0.0307 0.60544 0.12146 0.0
C2724 C 0.01941 0.63454 0.13955 0.0
C2725 C 0.00511 0.64828 0.14134 0.0
C2726 C 0.99683 0.65456 0.11074 0.0
C2727 C 0.98326 0.66738 0.11265 0.0
C2728 C 0.97794 0.67415 0.14502 0.0
C2729 C 0.98623 0.66814 0.17554 0.0
C2730 C 0.9998 0.65529 0.17376 0.0
C2731 C 0.09976 0.63855 0.1482 0.0
C2732 C 0.10252 0.64545 0.18194 0.0
C2733 C 0.08297 0.63216 0.13823 0.0
C2734 C 0.06861 0.63242 0.16182 0.0
C2735 C 0.07132 0.63913 0.1956 0.0
C2736 C 0.08813 0.64552 0.20564 0.0
C2737 C 0.05058 0.62648 0.15054 0.0
C2738 C 0.03634 0.63866 0.15306 0.0
C2739 C 0.04764 0.60951 0.13516 0.0
C2740 C 0.0618 0.59559 0.13408 0.0
C2741 C 0.07072 0.59041 0.16479 0.0
C2742 C 0.08401 0.57726 0.16367 0.0
C2743 C 0.08844 0.56911 0.13202 0.0
C2744 C 0.07956 0.57406 0.10143 0.0
C2745 C 0.06627 0.58722 0.10239 0.0
H2746 H 0.09873 0.55893 0.13122 0.0
H2747 H 0.96742 0.68408 0.14646 0.0
H2748 H 0.14254 0.20285 0.88853 0.0
H2749 H 0.13675 0.23311 0.91019 0.0
H2750 H 0.1483 0.25468 0.80831 0.0
H2751 H 0.15376 0.22442 0.78615 0.0
H2752 H 0.16378 0.27415 0.86858 0.0
H2753 H 0.10826 0.25097 0.82346 0.0
H2754 H 0.08352 0.22937 0.81734 0.0
H2755 H 0.07175 0.23427 0.92659 0.0
H2756 H 0.09664 0.25568 0.93349 0.0
H2757 H 0.12111 0.35947 0.88029 0.0
H2758 H 0.13168 0.32985 0.86268 0.0
H2759 H 0.11164 0.30752 0.95881 0.0
H2760 H 0.10098 0.33699 0.97665 0.0
H2761 H 0.10125 0.2882 0.90253 0.0
H2762 H 0.15558 0.31244 0.94773 0.0
H2763 H 0.1799 0.33445 0.95431 0.0
H2764 H 0.19404 0.32776 0.84649 0.0
H2765 H 0.16961 0.30589 0.83911 0.0
C2766 C 0.14408 0.21404 0.87082 0.0
C2767 C 0.1485 0.21126 0.83557 0.0
C2768 C 0.14072 0.23129 0.88323 0.0
C2769 C 0.14202 0.24604 0.86075 0.0
C2770 C 0.14724 0.24342 0.82599 0.0
C2771 C 0.15027 0.22614 0.81338 0.0
C2772 C 0.13691 0.26406 0.87304 0.0
C2773 C 0.1501 0.27734 0.87568 0.0
C2774 C 0.11912 0.26799 0.88296 0.0
C2775 C 0.10446 0.25476 0.87907 0.0
C2776 C 0.10057 0.24725 0.84628 0.0
C2777 C 0.08648 0.23509 0.84265 0.0
C2778 C 0.07609 0.23044 0.87157 0.0
C2779 C 0.07983 0.23787 0.90423 0.0
C2780 C 0.09392 0.25002 0.90801 0.0
C2781 C 0.11901 0.34829 0.89779 0.0
C2782 C 0.11014 0.35063 0.92986 0.0
C2783 C 0.12516 0.33139 0.88775 0.0
C2784 C 0.12253 0.31652 0.90955 0.0
C2785 C 0.11381 0.31883 0.94163 0.0
C2786 C 0.10776 0.33572 0.95179 0.0
C2787 C 0.12812 0.29841 0.89821 0.0
C2788 C 0.11499 0.28507 0.89564 0.0
C2789 C 0.14597 0.29446 0.88851 0.0
C2790 C 0.16062 0.30767 0.89277 0.0
C2791 C 0.16375 0.31579 0.92532 0.0
C2792 C 0.17759 0.32821 0.92922 0.0
C2793 C 0.18848 0.33254 0.90081 0.0
C2794 C 0.18558 0.32442 0.86846 0.0
C2795 C 0.17174 0.312 0.86441 0.0
H2796 H 0.19919 0.34215 0.90389 0.0
H2797 H 0.06507 0.22119 0.86864 0.0
H2798 H 0.38531 0.37053 0.62495 0.0
H2799 H 0.41474 0.38102 0.60656 0.0
H2800 H 0.43618 0.36832 0.70808 0.0
H2801 H 0.40668 0.35807 0.72702 0.0
H2802 H 0.45005 0.39951 0.68295 0.0
H2803 H 0.44128 0.33938 0.64133 0.0
H2804 H 0.42533 0.31523 0.61044 0.0
H2805 H 0.42908 0.34462 0.51444 0.0
H2806 H 0.44484 0.36907 0.54489 0.0
H2807 H 0.54209 0.39323 0.63444 0.0
H2808 H 0.51175 0.38906 0.65673 0.0
H2809 H 0.49058 0.39705 0.55309 0.0
H2810 H 0.52089 0.40055 0.53046 0.0
H2811 H 0.47632 0.36891 0.58013 0.0
H2812 H 0.48634 0.4288 0.6215 0.0
H2813 H 0.50261 0.45265 0.65266 0.0
H2814 H 0.49697 0.42385 0.74898 0.0
H2815 H 0.48086 0.39971 0.71832 0.0
C2816 C 0.39621 0.37008 0.64354 0.0
C2817 C 0.39365 0.36322 0.67735 0.0
C2818 C 0.41305 0.37608 0.63294 0.0
C2819 C 0.42771 0.37516 0.65576 0.0
C2820 C 0.42505 0.36909 0.69002 0.0
C2821 C 0.40818 0.36317 0.70073 0.0
C2822 C 0.44596 0.37954 0.64325 0.0
C2823 C 0.4559 0.39275 0.66066 0.0
C2824 C 0.45345 0.37088 0.61385 0.0
C2825 C 0.44408 0.35613 0.59546 0.0
C2826 C 0.43859 0.34075 0.61369 0.0
C2827 C 0.4296 0.327 0.59625 0.0
C2828 C 0.42615 0.32841 0.56052 0.0
C2829 C 0.43174 0.34356 0.54212 0.0
C2830 C 0.44071 0.35736 0.55945 0.0
C2831 C 0.53095 0.39431 0.61648 0.0
C2832 C 0.53389 0.39713 0.58064 0.0
C2833 C 0.51359 0.39201 0.62929 0.0
C2834 C 0.49883 0.3929 0.60666 0.0
C2835 C 0.50174 0.39626 0.57106 0.0
C2836 C 0.51909 0.39827 0.55815 0.0
C2837 C 0.48045 0.38912 0.61945 0.0
C2838 C 0.47049 0.37587 0.60223 0.0
C2839 C 0.47301 0.39777 0.64899 0.0
C2840 C 0.48252 0.41237 0.66754 0.0
C2841 C 0.48867 0.4275 0.64929 0.0
C2842 C 0.49785 0.44108 0.66687 0.0
C2843 C 0.50086 0.43974 0.70276 0.0
C2844 C 0.49464 0.42486 0.72117 0.0
C2845 C 0.48547 0.41123 0.70371 0.0
H2846 H 0.50798 0.45027 0.71632 0.0
H2847 H 0.41919 0.31775 0.54706 0.0
H2848 H 0.13987 0.09923 0.48354 0.0
H2849 H 0.15461 0.09952 0.54046 0.0
H2850 H 0.1165 0.06066 0.57866 0.0
H2851 H 0.10098 0.06159 0.52255 0.0
H2852 H 0.11675 0.08516 0.62066 0.0
H2853 H 0.16441 0.05267 0.5713 0.0
H2854 H 0.18761 0.04403 0.5288 0.0
H2855 H 0.21459 0.09403 0.54521 0.0
H2856 H 0.19142 0.10311 0.58741 0.0
H2857 H 0.15645 0.10054 0.78626 0.0
H2858 H 0.15274 0.08267 0.73302 0.0
H2859 H 0.16805 0.12821 0.6707 0.0
H2860 H 0.17141 0.14621 0.72357 0.0
H2861 H 0.18138 0.09216 0.64674 0.0
H2862 H 0.12684 0.12547 0.68211 0.0
H2863 H 0.10343 0.13301 0.72491 0.0
H2864 H 0.09034 0.07735 0.7359 0.0
H2865 H 0.11378 0.0695 0.69307 0.0
C2866 C 0.13494 0.09052 0.504 0.0
C2867 C 0.1193 0.08052 0.49915 0.0
C2868 C 0.14346 0.09051 0.53644 0.0
C2869 C 0.13681 0.07997 0.56399 0.0
C2870 C 0.12186 0.06898 0.55801 0.0
C2871 C 0.113 0.0695 0.52604 0.0
C2872 C 0.14358 0.08256 0.60007 0.0
C2873 C 0.13094 0.08604 0.62637 0.0
C2874 C 0.16207 0.08395 0.60791 0.0
C2875 C 0.17609 0.0786 0.58247 0.0
C2876 C 0.17521 0.06189 0.56568 0.0
C2877 C 0.18838 0.0569 0.54166 0.0
C2878 C 0.20255 0.06848 0.53429 0.0
C2879 C 0.20361 0.08507 0.55096 0.0
C2880 C 0.19047 0.09013 0.575 0.0
C2881 C 0.15936 0.1066 0.76122 0.0
C2882 C 0.16399 0.12477 0.75882 0.0
C2883 C 0.15734 0.09638 0.73096 0.0
C2884 C 0.16022 0.10417 0.69814 0.0
C2885 C 0.16596 0.12197 0.6959 0.0
C2886 C 0.16768 0.13226 0.72602 0.0
C2887 C 0.15452 0.09496 0.66606 0.0
C2888 C 0.1673 0.09045 0.64079 0.0
C2889 C 0.1362 0.0922 0.65916 0.0
C2890 C 0.12215 0.0969 0.6848 0.0
C2891 C 0.11905 0.11485 0.69388 0.0
C2892 C 0.10577 0.11917 0.71811 0.0
C2893 C 0.09545 0.10566 0.7333 0.0
C2894 C 0.09837 0.08779 0.72418 0.0
C2895 C 0.11163 0.0834 0.6999 0.0
H2896 H 0.08514 0.10902 0.752 0.0
H2897 H 0.21273 0.06459 0.51568 0.0
H2898 H 0.16837 0.89786 0.71434 0.0
H2899 H 0.1698 0.91529 0.76856 0.0
H2900 H 0.15801 0.86757 0.82771 0.0
H2901 H 0.15698 0.85019 0.77422 0.0
H2902 H 0.14431 0.92186 0.81223 0.0
H2903 H 0.17512 0.86686 0.90478 0.0
H2904 H 0.20009 0.84537 0.90314 0.0
H2905 H 0.22616 0.8767 0.82419 0.0
H2906 H 0.20149 0.89856 0.8257 0.0
H2907 H 0.09832 0.90895 0.96262 0.0
H2908 H 0.1152 0.90927 0.90853 0.0
H2909 H 0.16303 0.92389 0.96493 0.0
H2910 H 0.14612 0.92308 0.01984 0.0
H2911 H 0.17035 0.8983 0.92209 0.0
H2912 H 0.14383 0.95409 0.90712 0.0
H2913 H 0.12054 0.97742 0.90866 0.0
H2914 H 0.08988 0.94861 0.83237 0.0
H2915 H 0.11281 0.92495 0.83075 0.0
C2916 C 0.16633 0.8911 0.73903 0.0
C2917 C 0.1625 0.8727 0.74014 0.0
C2918 C 0.16721 0.90105 0.76991 0.0
C2919 C 0.16436 0.89268 0.80223 0.0
C2920 C 0.16079 0.87425 0.80321 0.0
C2921 C 0.15997 0.86435 0.77253 0.0
C2922 C 0.16294 0.90318 0.83486 0.0
C2923 C 0.15024 0.91697 0.83623 0.0
C2924 C 0.17138 0.89744 0.86596 0.0
C2925 C 0.1864 0.88439 0.86537 0.0
C2926 C 0.18625 0.86929 0.8873 0.0
C2927 C 0.20034 0.857 0.88631 0.0
C2928 C 0.2147 0.85966 0.86357 0.0
C2929 C 0.21501 0.87463 0.84176 0.0
C2930 C 0.20096 0.88697 0.84264 0.0
C2931 C 0.11239 0.91239 0.96358 0.0
C2932 C 0.12093 0.91595 0.99542 0.0
C2933 C 0.12201 0.91278 0.93254 0.0
C2934 C 0.14031 0.91704 0.93254 0.0
C2935 C 0.14888 0.92077 0.96431 0.0
C2936 C 0.13924 0.92026 0.99559 0.0
C2937 C 0.15048 0.91567 0.8995 0.0
C2938 C 0.16491 0.90369 0.89807 0.0
C2939 C 0.14399 0.92346 0.86831 0.0
C2940 C 0.13012 0.93773 0.86879 0.0
C2941 C 0.13209 0.95268 0.89076 0.0
C2942 C 0.11894 0.96597 0.89165 0.0
C2943 C 0.10375 0.9645 0.87061 0.0
C2944 C 0.10168 0.94975 0.8486 0.0
C2945 C 0.11479 0.93641 0.84762 0.0
H2946 H 0.09358 0.9748 0.87136 0.0
H2947 H 0.22559 0.85012 0.86283 0.0
H2948 H 0.40014 0.93394 0.02336 0.0
H2949 H 0.38511 0.93273 0.07992 0.0
H2950 H 0.34219 0.90202 0.03413 0.0
H2951 H 0.35679 0.90413 0.97688 0.0
H2952 H 0.32975 0.92192 0.08758 0.0
H2953 H 0.37795 0.88086 0.0681 0.0
H2954 H 0.40858 0.87188 0.05178 0.0
H2955 H 0.4299 0.90358 0.13547 0.0
H2956 H 0.39938 0.91294 0.15201 0.0
H2957 H 0.32261 0.85281 0.22107 0.0
H2958 H 0.3262 0.87087 0.16822 0.0
H2959 H 0.3487 0.91371 0.22946 0.0
H2960 H 0.34453 0.89594 0.28272 0.0
H2961 H 0.37044 0.8921 0.17184 0.0
H2962 H 0.31866 0.92817 0.19556 0.0
H2963 H 0.28694 0.93336 0.20994 0.0
H2964 H 0.27101 0.90595 0.1165 0.0
H2965 H 0.30265 0.90034 0.10182 0.0
C2966 C 0.38727 0.92733 0.02528 0.0
C2967 C 0.37968 0.91886 0.99621 0.0
C2968 C 0.37869 0.92668 0.05748 0.0
C2969 C 0.36279 0.9169 0.06133 0.0
C2970 C 0.35448 0.9096 0.03169 0.0
C2971 C 0.36285 0.9107 -0.00087 0.0
C2972 C 0.35645 0.91204 0.0966 0.0
C2973 C 0.33861 0.91541 0.10605 0.0
C2974 C 0.36805 0.90351 0.12064 0.0
C2975 C 0.38642 0.89777 0.11103 0.0
C2976 C 0.38919 0.88601 0.08287 0.0
C2977 C 0.40652 0.88084 0.07359 0.0
C2978 C 0.42118 0.88721 0.09249 0.0
C2979 C 0.41853 0.8987 0.12081 0.0
C2980 C 0.40122 0.90393 0.13016 0.0
C2981 C 0.32783 0.86628 0.22332 0.0
C2982 C 0.33341 0.87301 0.25571 0.0
C2983 C 0.32972 0.8766 0.19327 0.0
C2984 C 0.33752 0.89361 0.19522 0.0
C2985 C 0.34236 0.9007 0.22774 0.0
C2986 C 0.34005 0.89054 0.25798 0.0
C2987 C 0.34384 0.90209 0.16291 0.0
C2988 C 0.3617 0.89909 0.15377 0.0
C2989 C 0.3321 0.91038 0.13902 0.0
C2990 C 0.31305 0.91368 0.14778 0.0
C2991 C 0.3084 0.92307 0.17827 0.0
C2992 C 0.29042 0.92613 0.18643 0.0
C2993 C 0.27696 0.91995 0.16419 0.0
C2994 C 0.28145 0.91072 0.13372 0.0
C2995 C 0.29941 0.90761 0.12545 0.0
H2996 H 0.26306 0.92234 0.17054 0.0
H2997 H 0.4346 0.8832 0.08526 0.0
H2998 H 0.36288 0.05873 0.50424 0.0
H2999 H 0.34618 0.05767 0.44889 0.0
H3000 H 0.34856 0.11529 0.44255 0.0
H3001 H 0.36508 0.11627 0.49756 0.0
H3002 H 0.31629 0.10116 0.41666 0.0
H3003 H 0.38206 0.09052 0.40819 0.0
H3004 H 0.40876 0.07246 0.4222 0.0
H3005 H 0.38334 0.02577 0.37962 0.0
H3006 H 0.35642 0.04359 0.36571 0.0
H3007 H 0.34281 0.1478 0.27485 0.0
H3008 H 0.3383 0.1308 0.3281 0.0
H3009 H 0.33357 0.08212 0.26827 0.0
H3010 H 0.33811 0.09926 0.21417 0.0
H3011 H 0.35688 0.07917 0.32354 0.0
H3012 H 0.29692 0.09568 0.30958 0.0
H3013 H 0.27121 0.1149 0.29488 0.0
H3014 H 0.28479 0.15047 0.37876 0.0
H3015 H 0.31075 0.13165 0.39367 0.0
C3016 C 0.35934 0.07111 0.49128 0.0
C3017 C 0.36523 0.08758 0.50453 0.0
C3018 C 0.34983 0.07051 0.45989 0.0
C3019 C 0.34623 0.08639 0.44167 0.0
C3020 C 0.3511 0.1029 0.45636 0.0
C3021 C 0.36066 0.10347 0.48753 0.0
C3022 C 0.3401 0.08613 0.40508 0.0
C3023 C 0.32491 0.09613 0.39612 0.0
C3024 C 0.35099 0.07888 0.37841 0.0
C3025 C 0.36722 0.06829 0.38627 0.0
C3026 C 0.38217 0.07639 0.40196 0.0
C3027 C 0.39732 0.06621 0.40988 0.0
C3028 C 0.39772 0.04796 0.40189 0.0
C3029 C 0.38299 0.03989 0.38586 0.0
C3030 C 0.36779 0.05002 0.37796 0.0
C3031 C 0.34073 0.1335 0.27286 0.0
C3032 C 0.34083 0.12484 0.24039 0.0
C3033 C 0.33794 0.12381 0.30332 0.0
C3034 C 0.33517 0.10527 0.30202 0.0
C3035 C 0.33541 0.09647 0.26968 0.0
C3036 C 0.33809 0.10624 0.23894 0.0
C3037 C 0.33375 0.09532 0.3352 0.0
C3038 C 0.34755 0.08339 0.34362 0.0
C3039 C 0.32152 0.10077 0.3613 0.0
C3040 C 0.3058 0.11217 0.3528 0.0
C3041 C 0.29448 0.10763 0.32483 0.0
C3042 C 0.27986 0.11847 0.31645 0.0
C3043 C 0.27636 0.13389 0.3359 0.0
C3044 C 0.28749 0.13849 0.36378 0.0
C3045 C 0.30214 0.12771 0.37227 0.0
H3046 H 0.26504 0.14226 0.32935 0.0
H3047 H 0.40946 0.0401 0.40805 0.0
H3048 H 0.82778 0.84941 0.2748 0.0
H3049 H 0.82767 0.8667 0.32881 0.0
H3050 H 0.84161 0.91433 0.27135 0.0
H3051 H 0.84144 0.89709 0.21683 0.0
H3052 H 0.86558 0.90448 0.32474 0.0
H3053 H 0.80356 0.9154 0.31126 0.0
H3054 H 0.77206 0.90807 0.29876 0.0
H3055 H 0.77087 0.87238 0.38651 0.0
H3056 H 0.80245 0.87927 0.39926 0.0
H3057 H 0.88268 0.93622 0.49072 0.0
H3058 H 0.86692 0.9373 0.43472 0.0
H3059 H 0.84045 0.88756 0.45974 0.0
H3060 H 0.85539 0.88717 0.51675 0.0
H3061 H 0.81965 0.90712 0.41817 0.0
H3062 H 0.88186 0.8884 0.41949 0.0
H3063 H 0.91399 0.89235 0.43202 0.0
H3064 H 0.91529 0.93886 0.36627 0.0
H3065 H 0.88307 0.93531 0.35378 0.0
C3066 C 0.83052 0.86363 0.27359 0.0
C3067 C 0.8348 0.87192 0.24183 0.0
C3068 C 0.83025 0.87352 0.30437 0.0
C3069 C 0.83443 0.8918 0.30389 0.0
C3070 C 0.83814 0.90027 0.27204 0.0
C3071 C 0.83812 0.89041 0.24107 0.0
C3072 C 0.83771 0.90104 0.33724 0.0
C3073 C 0.85542 0.90567 0.34487 0.0
C3074 C 0.8245 0.902 0.36357 0.0
C3075 C 0.80544 0.89782 0.35615 0.0
C3076 C 0.79663 0.90589 0.32777 0.0
C3077 C 0.77874 0.90183 0.32065 0.0
C3078 C 0.76947 0.88976 0.34181 0.0
C3079 C 0.77806 0.88174 0.37016 0.0
C3080 C 0.79596 0.88575 0.37738 0.0
C3081 C 0.87305 0.92587 0.48451 0.0
C3082 C 0.87025 0.91153 0.50737 0.0
C3083 C 0.86408 0.92647 0.45268 0.0
C3084 C 0.85289 0.91228 0.44274 0.0
C3085 C 0.84905 0.89864 0.46687 0.0
C3086 C 0.85763 0.89834 0.49924 0.0
C3087 C 0.84762 0.91003 0.40581 0.0
C3088 C 0.82963 0.90661 0.39765 0.0
C3089 C 0.86065 0.90971 0.37895 0.0
C3090 C 0.88005 0.91173 0.38606 0.0
C3091 C 0.88899 0.89952 0.40787 0.0
C3092 C 0.90721 0.90168 0.41496 0.0
C3093 C 0.91666 0.91588 0.40004 0.0
C3094 C 0.90793 0.9279 0.37789 0.0
C3095 C 0.8897 0.92582 0.3708 0.0
H3096 H 0.93077 0.91754 0.40556 0.0
H3097 H 0.75562 0.88663 0.33625 0.0
H3098 H 0.90047 0.06753 0.03581 0.0
H3099 H 0.88366 0.07249 0.08977 0.0
H3100 H 0.84019 0.09521 0.03055 0.0
H3101 H 0.85662 0.08959 0.97629 0.0
H3102 H 0.87079 0.11402 0.09248 0.0
H3103 H 0.81848 0.07626 0.06147 0.0
H3104 H 0.80556 0.04745 0.04271 0.0
H3105 H 0.83118 0.02097 0.1287 0.0
H3106 H 0.84445 0.04964 0.14763 0.0
H3107 H 0.82487 0.15395 0.22648 0.0
H3108 H 0.82809 0.13823 0.17106 0.0
H3109 H 0.84472 0.0906 0.22581 0.0
H3110 H 0.84086 0.1062 0.28176 0.0
H3111 H 0.82565 0.08262 0.16519 0.0
H3112 H 0.8766 0.1181 0.19876 0.0
H3113 H 0.89274 0.1451 0.2183 0.0
H3114 H 0.87321 0.17408 0.12943 0.0
H3115 H 0.85705 0.14721 0.10919 0.0
C3116 C 0.88707 0.07303 0.03428 0.0
C3117 C 0.87981 0.07828 0.00213 0.0
C3118 C 0.87745 0.07569 0.06497 0.0
C3119 C 0.86059 0.08386 0.0639 0.0
C3120 C 0.85295 0.08836 0.03168 0.0
C3121 C 0.8624 0.08531 0.00083 0.0
C3122 C 0.85321 0.0913 0.09629 0.0
C3123 C 0.86066 0.10736 0.1081 0.0
C3124 C 0.84054 0.08218 0.11694 0.0
C3125 C 0.83266 0.06499 0.1056 0.0
C3126 C 0.82155 0.06425 0.07606 0.0
C3127 C 0.81411 0.04797 0.06549 0.0
C3128 C 0.81761 0.03237 0.08441 0.0
C3129 C 0.82852 0.03305 0.11402 0.0
C3130 C 0.83599 0.0493 0.12468 0.0
C3131 C 0.82881 0.14 0.22672 0.0
C3132 C 0.83289 0.1313 0.25814 0.0
C3133 C 0.83062 0.13104 0.19512 0.0
C3134 C 0.837 0.11341 0.19443 0.0
C3135 C 0.8398 0.10423 0.22591 0.0
C3136 C 0.83767 0.11314 0.25774 0.0
C3137 C 0.84295 0.10562 0.16102 0.0
C3138 C 0.83552 0.08945 0.14929 0.0
C3139 C 0.85592 0.1145 0.14042 0.0
C3140 C 0.86546 0.13073 0.15269 0.0
C3141 C 0.87564 0.13027 0.18354 0.0
C3142 C 0.88481 0.14553 0.19471 0.0
C3143 C 0.88388 0.16133 0.1753 0.0
C3144 C 0.87387 0.16186 0.14451 0.0
C3145 C 0.86476 0.14661 0.13311 0.0
H3146 H 0.89098 0.17313 0.18403 0.0
H3147 H 0.81183 0.01978 0.07621 0.0
H3148 H 0.66132 0.14673 0.77279 0.0
H3149 H 0.66462 0.12932 0.82599 0.0
H3150 H 0.66011 0.0804 0.76685 0.0
H3151 H 0.65695 0.09794 0.71284 0.0
H3152 H 0.63662 0.08273 0.82277 0.0
H3153 H 0.69874 0.08739 0.80584 0.0
H3154 H 0.72741 0.10167 0.79059 0.0
H3155 H 0.72162 0.13812 0.87644 0.0
H3156 H 0.69278 0.12426 0.89193 0.0
H3157 H 0.6283 0.05748 0.99772 0.0
H3158 H 0.64402 0.05585 0.94153 0.0
H3159 H 0.65615 0.11222 0.94871 0.0
H3160 H 0.64102 0.11361 0.00532 0.0
H3161 H 0.68235 0.09447 0.91386 0.0
H3162 H 0.61652 0.09744 0.91285 0.0
H3163 H 0.58668 0.0855 0.9276 0.0
H3164 H 0.5991 0.0365 0.8743 0.0
H3165 H 0.62912 0.04812 0.85963 0.0
C3166 C 0.66119 0.13227 0.77097 0.0
C3167 C 0.65877 0.12366 0.73878 0.0
C3168 C 0.6633 0.12233 0.80135 0.0
C3169 C 0.66294 0.10358 0.80022 0.0
C3170 C 0.66067 0.09487 0.76808 0.0
C3171 C 0.65879 0.10487 0.73741 0.0
C3172 C 0.66273 0.09361 0.83346 0.0
C3173 C 0.64692 0.08467 0.84239 0.0
C3174 C 0.67611 0.09635 0.85902 0.0
C3175 C 0.69355 0.10474 0.85006 0.0
C3176 C 0.70352 0.09851 0.82138 0.0
C3177 C 0.71982 0.10653 0.8127 0.0
C3178 C 0.72634 0.12079 0.83254 0.0
C3179 C 0.71657 0.12705 0.86113 0.0
C3180 C 0.70026 0.11908 0.86993 0.0
C3181 C 0.6349 0.06931 0.98764 0.0
C3182 C 0.63351 0.08568 0.00523 0.0
C3183 C 0.64383 0.06839 0.9557 0.0
C3184 C 0.65098 0.08397 0.94074 0.0
C3185 C 0.65076 0.10003 0.95983 0.0
C3186 C 0.64205 0.10087 0.99196 0.0
C3187 C 0.65586 0.08456 0.90337 0.0
C3188 C 0.67249 0.09174 0.8938 0.0
C3189 C 0.64316 0.0804 0.87715 0.0
C3190 C 0.62508 0.07354 0.88553 0.0
C3191 C 0.61289 0.08409 0.90443 0.0
C3192 C 0.59597 0.07739 0.91278 0.0
C3193 C 0.59102 0.06023 0.90199 0.0
C3194 C 0.60297 0.04976 0.88272 0.0
C3195 C 0.61994 0.0564 0.87439 0.0
H3196 H 0.57791 0.05505 0.90847 0.0
H3197 H 0.73895 0.12699 0.82576 0.0
H3198 H 0.64486 0.92243 0.4683 0.0
H3199 H 0.66259 0.9212 0.52219 0.0
H3200 H 0.61426 0.91258 0.58158 0.0
H3201 H 0.59663 0.91422 0.52851 0.0
H3202 H 0.63655 0.93272 0.61776 0.0
H3203 H 0.6393 0.87738 0.54905 0.0
H3204 H 0.64699 0.85997 0.49644 0.0
H3205 H 0.70195 0.87601 0.5062 0.0
H3206 H 0.69449 0.89371 0.55868 0.0
H3207 H 0.65394 0.84752 0.71667 0.0
H3208 H 0.65331 0.86439 0.6626 0.0
H3209 H 0.67499 0.9105 0.71579 0.0
H3210 H 0.6749 0.8937 0.77084 0.0
H3211 H 0.67624 0.87959 0.62213 0.0
H3212 H 0.6574 0.94788 0.67646 0.0
H3213 H 0.64452 0.96175 0.7293 0.0
H3214 H 0.61411 0.91409 0.74934 0.0
H3215 H 0.62668 0.90005 0.69645 0.0
C3216 C 0.63805 0.92058 0.49299 0.0
C3217 C 0.61942 0.91815 0.49426 0.0
C3218 C 0.64817 0.91993 0.52368 0.0
C3219 C 0.63974 0.91668 0.55582 0.0
C3220 C 0.62105 0.91523 0.55712 0.0
C3221 C 0.61098 0.91597 0.52668 0.0
C3222 C 0.65007 0.91247 0.58766 0.0
C3223 C 0.64559 0.92136 0.6187 0.0
C3224 C 0.66182 0.89765 0.58884 0.0
C3225 C 0.66631 0.88704 0.5574 0.0
C3226 C 0.65299 0.87728 0.5398 0.0
C3227 C 0.65731 0.86736 0.51005 0.0
C3228 C 0.67494 0.86694 0.49791 0.0
C3229 C 0.68829 0.8764 0.51557 0.0
C3230 C 0.68403 0.88639 0.5453 0.0
C3231 C 0.65864 0.86122 0.71693 0.0
C3232 C 0.66425 0.86939 0.74799 0.0
C3233 C 0.65844 0.87083 0.68589 0.0
C3234 C 0.66405 0.88874 0.68511 0.0
C3235 C 0.6704 0.89675 0.71587 0.0
C3236 C 0.67032 0.88718 0.74723 0.0
C3237 C 0.66166 0.89903 0.65245 0.0
C3238 C 0.66789 0.89146 0.62119 0.0
C3239 C 0.65086 0.91457 0.65116 0.0
C3240 C 0.64318 0.92286 0.68289 0.0
C3241 C 0.64797 0.94039 0.69219 0.0
C3242 C 0.64071 0.94828 0.72211 0.0
C3243 C 0.62856 0.93878 0.74275 0.0
C3244 C 0.62357 0.92141 0.73342 0.0
C3245 C 0.63077 0.91348 0.7035 0.0
H3246 H 0.62298 0.9449 0.7659 0.0
H3247 H 0.67826 0.85924 0.47488 0.0
H3248 H 0.63864 0.60864 0.97347 0.0
H3249 H 0.65536 0.61025 0.02809 0.0
H3250 H 0.6328 0.55954 0.05995 0.0
H3251 H 0.61496 0.55884 0.00631 0.0
H3252 H 0.62784 0.58035 0.10791 0.0
H3253 H 0.68061 0.56728 0.04672 0.0
H3254 H 0.70329 0.56819 6e-05 0.0
H3255 H 0.71394 0.62339 0.02296 0.0
H3256 H 0.69115 0.62293 0.06941 0.0
H3257 H 0.66508 0.60699 0.27 0.0
H3258 H 0.6649 0.58881 0.21681 0.0
H3259 H 0.66628 0.63679 0.15432 0.0
H3260 H 0.66643 0.65503 0.20719 0.0
H3261 H 0.68747 0.60774 0.12703 0.0
H3262 H 0.62696 0.62012 0.17423 0.0
H3263 H 0.60438 0.61832 0.22095 0.0
H3264 H 0.61016 0.5612 0.22415 0.0
H3265 H 0.63291 0.5627 0.17746 0.0
C3266 C 0.63762 0.59772 0.99197 0.0
C3267 C 0.6256 0.58369 0.98627 0.0
C3268 C 0.64734 0.59848 0.02299 0.0
C3269 C 0.6456 0.58487 0.04815 0.0
C3270 C 0.63438 0.57021 0.04107 0.0
C3271 C 0.62421 0.56979 0.01057 0.0
C3272 C 0.65297 0.58755 0.08374 0.0
C3273 C 0.64116 0.5857 0.11203 0.0
C3274 C 0.67031 0.59463 0.08955 0.0
C3275 C 0.6841 0.59506 0.06159 0.0
C3276 C 0.6877 0.57965 0.0417 0.0
C3277 C 0.7006 0.58009 0.01528 0.0
C3278 C 0.71005 0.59584 0.00855 0.0
C3279 C 0.70663 0.61119 0.02824 0.0
C3280 C 0.69375 0.61083 0.05469 0.0
C3281 C 0.66562 0.61364 0.2449 0.0
C3282 C 0.66551 0.63241 0.2426 0.0
C3283 C 0.66562 0.60324 0.21464 0.0
C3284 C 0.66558 0.61151 0.1818 0.0
C3285 C 0.66646 0.63021 0.17951 0.0
C3286 C 0.66634 0.64059 0.20969 0.0
C3287 C 0.66204 0.60112 0.14987 0.0
C3288 C 0.67452 0.60159 0.12259 0.0
C3289 C 0.64547 0.59243 0.14494 0.0
C3290 C 0.63175 0.59154 0.17275 0.0
C3291 C 0.62349 0.6072 0.18508 0.0
C3292 C 0.61065 0.60623 0.21153 0.0
C3293 C 0.60588 0.58968 0.22568 0.0
C3294 C 0.61389 0.57403 0.21325 0.0
C3295 C 0.62675 0.57492 0.18678 0.0
H3296 H 0.59594 0.58898 0.24618 0.0
H3297 H 0.72002 0.59615 0.98808 0.0
H3298 H 0.59673 0.42329 0.47021 0.0
H3299 H 0.61257 0.42246 0.41465 0.0
H3300 H 0.65946 0.40159 0.46622 0.0
H3301 H 0.64374 0.403 0.52254 0.0
H3302 H 0.66786 0.42374 0.40832 0.0
H3303 H 0.63212 0.37256 0.43547 0.0
H3304 H 0.60504 0.35661 0.45498 0.0
H3305 H 0.57537 0.37884 0.36938 0.0
H3306 H 0.60226 0.39512 0.34959 0.0
H3307 H 0.68186 0.35486 0.26876 0.0
H3308 H 0.67851 0.37078 0.32418 0.0
H3309 H 0.65135 0.41377 0.27111 0.0
H3310 H 0.65539 0.39825 0.21522 0.0
H3311 H 0.63496 0.38263 0.32932 0.0
H3312 H 0.67412 0.43321 0.3023 0.0
H3313 H 0.70303 0.44635 0.28493 0.0
H3314 H 0.72863 0.42108 0.3723 0.0
H3315 H 0.69988 0.40755 0.38985 0.0
C3316 C 0.61053 0.41884 0.46982 0.0
C3317 C 0.61896 0.41285 0.50033 0.0
C3318 C 0.61958 0.4185 0.43816 0.0
C3319 C 0.63703 0.41169 0.43639 0.0
C3320 C 0.64598 0.4069 0.4672 0.0
C3321 C 0.63698 0.40757 0.49918 0.0
C3322 C 0.64458 0.40702 0.40204 0.0
C3323 C 0.66075 0.41472 0.39103 0.0
C3324 C 0.6353 0.39513 0.37973 0.0
C3325 C 0.61914 0.3852 0.39127 0.0
C3326 C 0.61979 0.37415 0.42096 0.0
C3327 C 0.60448 0.36504 0.43205 0.0
C3328 C 0.58847 0.36677 0.41352 0.0
C3329 C 0.58777 0.37755 0.38375 0.0
C3330 C 0.60304 0.3867 0.37255 0.0
C3331 C 0.67579 0.36803 0.26882 0.0
C3332 C 0.66877 0.37537 0.23806 0.0
C3333 C 0.67405 0.37715 0.30031 0.0
C3334 C 0.66497 0.39352 0.30145 0.0
C3335 C 0.65884 0.40137 0.27044 0.0
C3336 C 0.66102 0.39246 0.23869 0.0
C3337 C 0.65798 0.39968 0.33515 0.0
C3338 C 0.64194 0.39192 0.34633 0.0
C3339 C 0.66763 0.4111 0.35763 0.0
C3340 C 0.68491 0.41915 0.34705 0.0
C3341 C 0.68595 0.43024 0.3175 0.0
C3342 C 0.7023 0.43782 0.30771 0.0
C3343 C 0.71768 0.43449 0.32741 0.0
C3344 C 0.71672 0.42361 0.35702 0.0
C3345 C 0.7004 0.416 0.36691 0.0
H3346 H 0.73032 0.44038 0.31981 0.0
H3347 H 0.57663 0.35971 0.42217 0.0
H3348 H 0.84124 0.38576 0.7745 0.0
H3349 H 0.83911 0.39883 0.71602 0.0
H3350 H 0.82982 0.34631 0.67272 0.0
H3351 H 0.83263 0.3332 0.73072 0.0
H3352 H 0.85699 0.36119 0.64322 0.0
H3353 H 0.79763 0.37996 0.66997 0.0
H3354 H 0.77365 0.39429 0.70416 0.0
H3355 H 0.79957 0.44524 0.6932 0.0
H3356 H 0.82387 0.43118 0.65938 0.0
H3357 H 0.85262 0.392 0.46941 0.0
H3358 H 0.83793 0.38261 0.52375 0.0
H3359 H 0.86468 0.42506 0.57931 0.0
H3360 H 0.88002 0.43392 0.52546 0.0
H3361 H 0.82492 0.41478 0.5994 0.0
H3362 H 0.8866 0.39439 0.58468 0.0
H3363 H 0.91191 0.37964 0.55514 0.0
H3364 H 0.88156 0.33104 0.54737 0.0
H3365 H 0.85585 0.3457 0.57599 0.0
C3366 C 0.83845 0.3771 0.7525 0.0
C3367 C 0.83742 0.35848 0.75684 0.0
C3368 C 0.83705 0.38458 0.7192 0.0
C3369 C 0.83424 0.37353 0.69004 0.0
C3370 C 0.83204 0.35506 0.69486 0.0
C3371 C 0.83375 0.34758 0.72793 0.0
C3372 C 0.83647 0.38066 0.65433 0.0
C3373 C 0.84958 0.37262 0.63341 0.0
C3374 C 0.82724 0.39594 0.64197 0.0
C3375 C 0.81266 0.40447 0.66235 0.0
C3376 C 0.79831 0.39419 0.6751 0.0
C3377 C 0.78464 0.40228 0.69437 0.0
C3378 C 0.7851 0.42066 0.70091 0.0
C3379 C 0.79923 0.431 0.68813 0.0
C3380 C 0.81295 0.42298 0.66887 0.0
C3381 C 0.85482 0.39967 0.49302 0.0
C3382 C 0.86734 0.41364 0.49364 0.0
C3383 C 0.84647 0.39432 0.5239 0.0
C3384 C 0.85027 0.40321 0.55527 0.0
C3385 C 0.86152 0.4182 0.55518 0.0
C3386 C 0.87029 0.42318 0.52459 0.0
C3387 C 0.84521 0.3951 0.58877 0.0
C3388 C 0.83184 0.40306 0.6092 0.0
C3389 C 0.85418 0.37971 0.60099 0.0
C3390 C 0.86916 0.37128 0.58168 0.0
C3391 C 0.88516 0.3807 0.57591 0.0
C3392 C 0.89963 0.37231 0.55958 0.0
C3393 C 0.89833 0.35443 0.54929 0.0
C3394 C 0.88254 0.3449 0.5553 0.0
C3395 C 0.86798 0.35327 0.57138 0.0
H3396 H 0.90954 0.34795 0.53666 0.0
H3397 H 0.7745 0.42689 0.71582 0.0
H3398 H 0.90082 0.56568 0.97699 0.0
H3399 H 0.88545 0.56422 0.92074 0.0
H3400 H 0.84399 0.59894 0.96048 0.0
H3401 H 0.85879 0.59935 0.01763 0.0
H3402 H 0.83023 0.57748 0.91283 0.0
H3403 H 0.88174 0.61582 0.92073 0.0
H3404 H 0.91331 0.62307 0.93306 0.0
H3405 H 0.93025 0.58554 0.8549 0.0
H3406 H 0.89876 0.57786 0.84251 0.0
H3407 H 0.82039 0.64153 0.77575 0.0
H3408 H 0.82503 0.62367 0.82848 0.0
H3409 H 0.84933 0.58194 0.76689 0.0
H3410 H 0.84423 0.59954 0.71376 0.0
H3411 H 0.87101 0.60044 0.82094 0.0
H3412 H 0.81614 0.56886 0.80574 0.0
H3413 H 0.78382 0.56571 0.7946 0.0
H3414 H 0.77217 0.59593 0.88714 0.0
H3415 H 0.80444 0.59951 0.89858 0.0
C3416 C 0.88819 0.57263 0.97381 0.0
C3417 C 0.88103 0.58287 0.00105 0.0
C3418 C 0.87942 0.57177 0.94182 0.0
C3419 C 0.86386 0.58188 0.93618 0.0
C3420 C 0.85602 0.59109 0.96425 0.0
C3421 C 0.8645 0.59143 0.99672 0.0
C3422 C 0.85733 0.58496 0.90026 0.0
C3423 C 0.83911 0.58248 0.89268 0.0
C3424 C 0.86899 0.59136 0.87392 0.0
C3425 C 0.88793 0.5961 0.88101 0.0
C3426 C 0.89221 0.60903 0.90633 0.0
C3427 C 0.91008 0.61323 0.91333 0.0
C3428 C 0.92378 0.60473 0.89485 0.0
C3429 C 0.91963 0.59207 0.86925 0.0
C3430 C 0.90177 0.58779 0.86224 0.0
C3431 C 0.8263 0.62835 0.7734 0.0
C3432 C 0.83212 0.62191 0.74094 0.0
C3433 C 0.82878 0.61812 0.80339 0.0
C3434 C 0.83737 0.60149 0.80133 0.0
C3435 C 0.84246 0.59466 0.76874 0.0
C3436 C 0.83961 0.60473 0.73857 0.0
C3437 C 0.84393 0.59315 0.83361 0.0
C3438 C 0.86221 0.59487 0.84069 0.0
C3439 C 0.8322 0.58667 0.8596 0.0
C3440 C 0.81275 0.58454 0.85289 0.0
C3441 C 0.80671 0.57497 0.82356 0.0
C3442 C 0.78838 0.57308 0.81723 0.0
C3443 C 0.77595 0.58064 0.84012 0.0
C3444 C 0.78182 0.59008 0.86943 0.0
C3445 C 0.80013 0.59202 0.87588 0.0
H3446 H 0.76177 0.57916 0.83517 0.0
H3447 H 0.93761 0.608 0.90029 0.0
H3448 H 0.31678 0.35586 0.76847 0.0
H3449 H 0.32025 0.37232 0.82327 0.0
H3450 H 0.34837 0.41423 0.7688 0.0
H3451 H 0.34424 0.39817 0.71351 0.0
H3452 H 0.36445 0.3842 0.82781 0.0
H3453 H 0.32473 0.43377 0.79933 0.0
H3454 H 0.29575 0.4466 0.78153 0.0
H3455 H 0.27035 0.42227 0.87013 0.0
H3456 H 0.29916 0.40905 0.88814 0.0
H3457 H 0.40188 0.42503 0.96893 0.0
H3458 H 0.38605 0.42451 0.91334 0.0
H3459 H 0.33941 0.40266 0.96422 0.0
H3460 H 0.35511 0.40378 0.02059 0.0
H3461 H 0.33088 0.42507 0.90624 0.0
H3462 H 0.36687 0.37402 0.93356 0.0
H3463 H 0.39399 0.35832 0.9536 0.0
H3464 H 0.42403 0.3813 0.86924 0.0
H3465 H 0.39708 0.3973 0.8489 0.0
C3466 C 0.32312 0.3689 0.76807 0.0
C3467 C 0.33038 0.37577 0.73711 0.0
C3468 C 0.32491 0.37833 0.7992 0.0
C3469 C 0.33429 0.39455 0.79977 0.0
C3470 C 0.34068 0.40194 0.76854 0.0
C3471 C 0.33845 0.39272 0.73714 0.0
C3472 C 0.34122 0.40099 0.83331 0.0
C3473 C 0.35733 0.39345 0.84467 0.0
C3474 C 0.33138 0.41235 0.85562 0.0
C3475 C 0.31405 0.42021 0.84478 0.0
C3476 C 0.31292 0.43095 0.81474 0.0
C3477 C 0.29654 0.43835 0.80469 0.0
C3478 C 0.2812 0.4352 0.82461 0.0
C3479 C 0.28223 0.42467 0.85468 0.0
C3480 C 0.29859 0.41724 0.86483 0.0
C3481 C 0.38813 0.42046 0.96839 0.0
C3482 C 0.37977 0.41408 -0.00132 0.0
C3483 C 0.37907 0.42031 0.93674 0.0
C3484 C 0.36172 0.41328 0.93474 0.0
C3485 C 0.35281 0.40815 0.96539 0.0
C3486 C 0.36181 0.40864 0.99739 0.0
C3487 C 0.35435 0.40858 0.90028 0.0
C3488 C 0.33814 0.4161 0.88905 0.0
C3489 C 0.36382 0.39678 0.87812 0.0
C3490 C 0.38002 0.387 0.88993 0.0
C3491 C 0.37929 0.37582 0.91943 0.0
C3492 C 0.39462 0.36686 0.93083 0.0
C3493 C 0.41075 0.36887 0.9128 0.0
C3494 C 0.41154 0.37979 0.88322 0.0
C3495 C 0.39623 0.38879 0.87171 0.0
H3496 H 0.42261 0.36194 0.92169 0.0
H3497 H 0.26853 0.44095 0.8168 0.0
H3498 H 0.33758 0.60595 0.77791 0.0
H3499 H 0.34292 0.58849 0.72462 0.0
H3500 H 0.34896 0.63737 0.66605 0.0
H3501 H 0.34362 0.65485 0.71875 0.0
H3502 H 0.32674 0.58963 0.65179 0.0
H3503 H 0.38936 0.63272 0.62735 0.0
H3504 H 0.41305 0.64856 0.65981 0.0
H3505 H 0.40569 0.61324 0.74702 0.0
H3506 H 0.3821 0.59705 0.71488 0.0
H3507 H 0.35837 0.59485 0.47665 0.0
H3508 H 0.34532 0.59563 0.53536 0.0
H3509 H 0.39219 0.56909 0.57619 0.0
H3510 H 0.40554 0.56918 0.51811 0.0
H3511 H 0.38822 0.59892 0.60649 0.0
H3512 H 0.34956 0.55038 0.58253 0.0
H3513 H 0.3275 0.53236 0.55015 0.0
H3514 H 0.28857 0.57422 0.56117 0.0
H3515 H 0.31048 0.59263 0.59316 0.0
C3516 C 0.33978 0.61294 0.75353 0.0
C3517 C 0.34043 0.63173 0.75246 0.0
C3518 C 0.3427 0.60296 0.7232 0.0
C3519 C 0.34639 0.61172 0.69171 0.0
C3520 C 0.34616 0.63045 0.69029 0.0
C3521 C 0.34319 0.64039 0.72042 0.0
C3522 C 0.35248 0.60166 0.66095 0.0
C3523 C 0.3402 0.59142 0.64179 0.0
C3524 C 0.37015 0.60375 0.64874 0.0
C3525 C 0.3839 0.61375 0.66876 0.0
C3526 C 0.3928 0.62834 0.65345 0.0
C3527 C 0.40621 0.63737 0.67177 0.0
C3528 C 0.41089 0.63188 0.70539 0.0
C3529 C 0.40203 0.61748 0.72096 0.0
C3530 C 0.3886 0.6084 0.70273 0.0
C3531 C 0.36562 0.58882 0.49814 0.0
C3532 C 0.38303 0.5823 0.49335 0.0
C3533 C 0.35811 0.5891 0.53156 0.0
C3534 C 0.36782 0.58246 0.5602 0.0
C3535 C 0.38453 0.57439 0.55453 0.0
C3536 C 0.39217 0.57453 0.52146 0.0
C3537 C 0.36241 0.58706 0.59622 0.0
C3538 C 0.37483 0.59656 0.61646 0.0
C3539 C 0.345 0.58394 0.60943 0.0
C3540 C 0.33174 0.57295 0.59009 0.0
C3541 C 0.33635 0.55583 0.57781 0.0
C3542 C 0.32385 0.54552 0.55956 0.0
C3543 C 0.30665 0.55215 0.55356 0.0
C3544 C 0.3019 0.5691 0.56584 0.0
C3545 C 0.31435 0.57947 0.58409 0.0
H3546 H 0.297 0.54415 0.53943 0.0
H3547 H 0.42148 0.63873 0.71925 0.0
H3548 H 0.09702 0.57542 0.47555 0.0
H3549 H 0.11392 0.5788 0.42119 0.0
H3550 H 0.15837 0.60077 0.47867 0.0
H3551 H 0.14181 0.59679 0.53338 0.0
H3552 H 0.13223 0.62152 0.41938 0.0
H3553 H 0.17477 0.57446 0.44773 0.0
H3554 H 0.18287 0.54373 0.46489 0.0
H3555 H 0.15583 0.52306 0.37461 0.0
H3556 H 0.14732 0.55369 0.35723 0.0
H3557 H 0.17735 0.65289 0.27617 0.0
H3558 H 0.17458 0.63818 0.33275 0.0
H3559 H 0.14832 0.5933 0.28373 0.0
H3560 H 0.15181 0.60772 0.22655 0.0
H3561 H 0.16801 0.58268 0.34075 0.0
H3562 H 0.12333 0.6264 0.31354 0.0
H3563 H 0.11184 0.65575 0.29458 0.0
H3564 H 0.13843 0.68112 0.38072 0.0
H3565 H 0.15024 0.6519 0.40001 0.0
C3566 C 0.11059 0.58048 0.47663 0.0
C3567 C 0.11814 0.58597 0.50839 0.0
C3568 C 0.12025 0.58223 0.44573 0.0
C3569 C 0.13742 0.58974 0.44624 0.0
C3570 C 0.14528 0.59455 0.47808 0.0
C3571 C 0.13578 0.59239 0.50914 0.0
C3572 C 0.14522 0.59601 0.41334 0.0
C3573 C 0.14042 0.61321 0.40248 0.0
C3574 C 0.15516 0.58476 0.39103 0.0
C3575 C 0.1602 0.56635 0.40146 0.0
C3576 C 0.17034 0.56335 0.4318 0.0
C3577 C 0.17507 0.54595 0.44149 0.0
C3578 C 0.16981 0.53144 0.42092 0.0
C3579 C 0.15986 0.53431 0.39056 0.0
C3580 C 0.1551 0.55169 0.38076 0.0
C3581 C 0.17134 0.63971 0.27741 0.0
C3582 C 0.16448 0.63151 0.24735 0.0
C3583 C 0.16983 0.63131 0.30963 0.0
C3584 C 0.1609 0.61487 0.3124 0.0
C3585 C 0.15522 0.60602 0.28205 0.0
C3586 C 0.15711 0.61428 0.24954 0.0
C3587 C 0.1553 0.60838 0.34705 0.0
C3588 C 0.16017 0.59113 0.35797 0.0
C3589 C 0.14499 0.61942 0.36935 0.0
C3590 C 0.13783 0.63701 0.35797 0.0
C3591 C 0.12684 0.63826 0.32828 0.0
C3592 C 0.12026 0.65486 0.31749 0.0
C3593 C 0.12447 0.6703 0.33633 0.0
C3594 C 0.13522 0.66915 0.3661 0.0
C3595 C 0.14184 0.65257 0.377 0.0
H3596 H 0.11937 0.68315 0.32792 0.0
H3597 H 0.1735 0.51798 0.42845 0.0
H3598 H 0.14676 0.34753 0.22234 0.0
H3599 H 0.15091 0.36408 0.16836 0.0
H3600 H 0.17088 0.4094 0.22636 0.0
H3601 H 0.16624 0.39293 0.281 0.0
H3602 H 0.14857 0.42045 0.17991 0.0
H3603 H 0.19983 0.38576 0.17316 0.0
H3604 H 0.21946 0.35942 0.17846 0.0
H3605 H 0.1893 0.33233 0.0991 0.0
H3606 H 0.16928 0.35837 0.09367 0.0
H3607 H 0.15172 0.41421 0.97261 0.0
H3608 H 0.16858 0.41464 0.02762 0.0
H3609 H 0.11902 0.41076 0.08503 0.0
H3610 H 0.1023 0.41069 0.03082 0.0
H3611 H 0.17113 0.38962 0.07401 0.0
H3612 H 0.11915 0.4302 0.15927 0.0
H3613 H 0.10194 0.45816 0.15376 0.0
H3614 H 0.13875 0.47722 0.07621 0.0
H3615 H 0.15639 0.44951 0.08161 0.0
C3616 C 0.15209 0.36099 0.22365 0.0
C3617 C 0.15618 0.36895 0.25579 0.0
C3618 C 0.15468 0.37038 0.19274 0.0
C3619 C 0.1617 0.38781 0.19325 0.0
C3620 C 0.16568 0.39588 0.22538 0.0
C3621 C 0.16294 0.38651 0.25649 0.0
C3622 C 0.16321 0.39781 0.16008 0.0
C3623 C 0.15378 0.41393 0.15677 0.0
C3624 C 0.171 0.38987 0.13018 0.0
C3625 C 0.18305 0.3741 0.13297 0.0
C3626 C 0.19732 0.37417 0.15692 0.0
C3627 C 0.20852 0.35928 0.15995 0.0
C3628 C 0.20564 0.34422 0.13911 0.0
C3629 C 0.19154 0.34403 0.11517 0.0
C3630 C 0.18029 0.35888 0.11203 0.0
C3631 C 0.14449 0.41367 0.99707 0.0
C3632 C 0.12573 0.41235 0.99754 0.0
C3633 C 0.15411 0.414 0.02838 0.0
C3634 C 0.14505 0.41314 0.06043 0.0
C3635 C 0.1263 0.41202 0.0607 0.0
C3636 C 0.11674 0.41173 0.02963 0.0
C3637 C 0.15481 0.41111 0.09375 0.0
C3638 C 0.16653 0.39658 0.09717 0.0
C3639 C 0.14964 0.42086 0.12375 0.0
C3640 C 0.13915 0.43772 0.12091 0.0
C3641 C 0.12372 0.44041 0.1413 0.0
C3642 C 0.11384 0.45621 0.13811 0.0
C3643 C 0.11925 0.46945 0.11466 0.0
C3644 C 0.13456 0.46694 0.09435 0.0
C3645 C 0.1445 0.45117 0.09743 0.0
H3646 H 0.11157 0.48167 0.11222 0.0
H3647 H 0.21432 0.3327 0.14152 0.0
loop_
_geom_bond_atom_site_label_1
_geom_bond_atom_site_label_2
_geom_bond_distance
_geom_bond_site_symmetry_2
_ccdc_geom_bond_type
Co0 O1 2.216 . S
Co0 O2 2.091 . S
Co0 O4 2.004 . S
Co0 O10 2.021 . S
Co0 O12 2.137 . S
Co0 O13 2.244 . S
O1 Co0 2.216 . S
O1 C8 1.247 . S
O2 Co0 2.091 . S
O2 C8 1.261 . S
C3 O12 1.247 . S
C3 O13 1.272 . S
O4 Co0 2.004 . S
O4 C9 1.259 . S
Co5 O6 2.061 . S
Co5 O11 2.052 . S
Co5 O13 2.135 . S
O6 Co5 2.061 . S
O6 C9 1.235 . S
C7 O10 1.238 . S
C7 O11 1.241 . S
C8 O1 1.247 . S
C8 O2 1.261 . S
C9 O4 1.259 . S
C9 O6 1.235 . S
O10 Co0 2.021 . S
O10 C7 1.238 . S
O11 Co5 2.052 . S
O11 C7 1.241 . S
O12 Co0 2.137 . S
O12 C3 1.247 . S
O13 Co0 2.244 . S
O13 C3 1.272 . S
O13 Co5 2.135 . S
Co14 O15 2.216 . S
Co14 O16 2.091 . S
Co14 O18 2.004 . S
Co14 O24 2.021 . S
Co14 O26 2.137 . S
Co14 O27 2.244 . S
O15 Co14 2.216 . S
O15 C22 1.247 . S
O16 Co14 2.091 . S
O16 C22 1.261 . S
C17 O26 1.247 . S
C17 O27 1.272 . S
O18 Co14 2.004 . S
O18 C23 1.259 . S
Co19 O20 2.061 . S
Co19 O25 2.052 . S
Co19 O27 2.135 . S
O20 Co19 2.061 . S
O20 C23 1.235 . S
C21 O24 1.238 . S
C21 O25 1.241 . S
C22 O15 1.247 . S
C22 O16 1.261 . S
C23 O18 1.259 . S
C23 O20 1.235 . S
O24 Co14 2.021 . S
O24 C21 1.238 . S
O25 Co19 2.052 . S
O25 C21 1.241 . S
O26 Co14 2.137 . S
O26 C17 1.247 . S
O27 Co14 2.244 . S
O27 C17 1.272 . S
O27 Co19 2.135 . S
Co28 O29 2.216 . S
Co28 O30 2.091 . S
Co28 O32 2.004 . S
Co28 O38 2.021 . S
Co28 O40 2.137 . S
Co28 O41 2.244 . S
O29 Co28 2.216 . S
O29 C36 1.247 . S
O30 Co28 2.091 . S
O30 C36 1.261 . S
C31 O40 1.247 . S
C31 O41 1.272 . S
O32 Co28 2.004 . S
O32 C37 1.259 . S
Co33 O34 2.061 . S
Co33 O39 2.052 . S
Co33 O41 2.135 . S
O34 Co33 2.061 . S
O34 C37 1.235 . S
C35 O38 1.238 . S
C35 O39 1.241 . S
C36 O29 1.247 . S
C36 O30 1.261 . S
C37 O32 1.259 . S
C37 O34 1.235 . S
O38 Co28 2.021 . S
O38 C35 1.238 . S
O39 Co33 2.052 . S
O39 C35 1.241 . S
O40 Co28 2.137 . S
O40 C31 1.247 . S
O41 Co28 2.244 . S
O41 C31 1.272 . S
O41 Co33 2.135 . S
Co42 O43 2.216 . S
Co42 O44 2.091 . S
Co42 O46 2.004 . S
Co42 O52 2.021 . S
Co42 O54 2.137 . S
Co42 O55 2.244 . S
O43 Co42 2.216 . S
O43 C50 1.247 . S
O44 Co42 2.091 . S
O44 C50 1.261 . S
C45 O54 1.247 . S
C45 O55 1.272 . S
O46 Co42 2.004 . S
O46 C51 1.259 . S
Co47 O48 2.061 . S
Co47 O53 2.052 . S
Co47 O55 2.135 . S
O48 Co47 2.061 . S
O48 C51 1.235 . S
C49 O52 1.238 . S
C49 O53 1.241 . S
C50 O43 1.247 . S
C50 O44 1.261 . S
C51 O46 1.259 . S
C51 O48 1.235 . S
O52 Co42 2.021 . S
O52 C49 1.238 . S
O53 Co47 2.052 . S
O53 C49 1.241 . S
O54 Co42 2.137 . S
O54 C45 1.247 . S
O55 Co42 2.244 . S
O55 C45 1.272 . S
O55 Co47 2.135 . S
Co56 O57 2.216 . S
Co56 O58 2.091 . S
Co56 O60 2.004 . S
Co56 O66 2.021 . S
Co56 O68 2.137 . S
Co56 O69 2.244 . S
O57 Co56 2.216 . S
O57 C64 1.247 . S
O58 Co56 2.091 . S
O58 C64 1.261 . S
C59 O68 1.247 . S
C59 O69 1.272 . S
O60 Co56 2.004 . S
O60 C65 1.259 . S
Co61 O62 2.061 . S
Co61 O67 2.052 . S
Co61 O69 2.135 . S
O62 Co61 2.061 . S
O62 C65 1.235 . S
C63 O66 1.238 . S
C63 O67 1.241 . S
C64 O57 1.247 . S
C64 O58 1.261 . S
C65 O60 1.259 . S
C65 O62 1.235 . S
O66 Co56 2.021 . S
O66 C63 1.238 . S
O67 Co61 2.052 . S
O67 C63 1.241 . S
O68 Co56 2.137 . S
O68 C59 1.247 . S
O69 Co56 2.244 . S
O69 C59 1.272 . S
O69 Co61 2.135 . S
Co70 O71 2.216 . S
Co70 O72 2.091 . S
Co70 O74 2.004 . S
Co70 O80 2.021 . S
Co70 O82 2.137 . S
Co70 O83 2.244 . S
O71 Co70 2.216 . S
O71 C78 1.247 . S
O72 Co70 2.091 . S
O72 C78 1.261 . S
C73 O82 1.247 . S
C73 O83 1.272 . S
O74 Co70 2.004 . S
O74 C79 1.259 . S
Co75 O76 2.061 . S
Co75 O81 2.052 . S
Co75 O83 2.135 . S
O76 Co75 2.061 . S
O76 C79 1.235 . S
C77 O80 1.238 . S
C77 O81 1.241 . S
C78 O71 1.247 . S
C78 O72 1.261 . S
C79 O74 1.259 . S
C79 O76 1.235 . S
O80 Co70 2.021 . S
O80 C77 1.238 . S
O81 Co75 2.052 . S
O81 C77 1.241 . S
O82 Co70 2.137 . S
O82 C73 1.247 . S
O83 Co70 2.244 . S
O83 C73 1.272 . S
O83 Co75 2.135 . S
Co84 O85 2.216 . S
Co84 O86 2.091 . S
Co84 O88 2.004 . S
Co84 O94 2.021 . S
Co84 O96 2.137 . S
Co84 O97 2.244 . S
O85 Co84 2.216 . S
O85 C92 1.247 . S
O86 Co84 2.091 . S
O86 C92 1.261 . S
C87 O96 1.247 . S
C87 O97 1.272 . S
O88 Co84 2.004 . S
O88 C93 1.259 . S
Co89 O90 2.061 . S
Co89 O95 2.052 . S
Co89 O97 2.135 . S
O90 Co89 2.061 . S
O90 C93 1.235 . S
C91 O94 1.238 . S
C91 O95 1.241 . S
C92 O85 1.247 . S
C92 O86 1.261 . S
C93 O88 1.259 . S
C93 O90 1.235 . S
O94 Co84 2.021 . S
O94 C91 1.238 . S
O95 Co89 2.052 . S
O95 C91 1.241 . S
O96 Co84 2.137 . S
O96 C87 1.247 . S
O97 Co84 2.244 . S
O97 C87 1.272 . S
O97 Co89 2.135 . S
Co98 O99 2.216 . S
Co98 O100 2.091 . S
Co98 O102 2.004 . S
Co98 O108 2.021 . S
Co98 O110 2.137 . S
Co98 O111 2.244 . S
O99 Co98 2.216 . S
O99 C106 1.247 . S
O100 Co98 2.091 . S
O100 C106 1.261 . S
C101 O110 1.247 . S
C101 O111 1.272 . S
O102 Co98 2.004 . S
O102 C107 1.259 . S
Co103 O104 2.061 . S
Co103 O109 2.052 . S
Co103 O111 2.135 . S
O104 Co103 2.061 . S
O104 C107 1.235 . S
C105 O108 1.238 . S
C105 O109 1.241 . S
C106 O99 1.247 . S
C106 O100 1.261 . S
C107 O102 1.259 . S
C107 O104 1.235 . S
O108 Co98 2.021 . S
O108 C105 1.238 . S
O109 Co103 2.052 . S
O109 C105 1.241 . S
O110 Co98 2.137 . S
O110 C101 1.247 . S
O111 Co98 2.244 . S
O111 C101 1.272 . S
O111 Co103 2.135 . S
Co112 O113 2.216 . S
Co112 O114 2.091 . S
Co112 O116 2.004 . S
Co112 O122 2.021 . S
Co112 O124 2.137 . S
Co112 O125 2.244 . S
O113 Co112 2.216 . S
O113 C120 1.247 . S
O114 Co112 2.091 . S
O114 C120 1.261 . S
C115 O124 1.247 . S
C115 O125 1.272 . S
O116 Co112 2.004 . S
O116 C121 1.259 . S
Co117 O118 2.061 . S
Co117 O123 2.052 . S
Co117 O125 2.135 . S
O118 Co117 2.061 . S
O118 C121 1.235 . S
C119 O122 1.238 . S
C119 O123 1.241 . S
C120 O113 1.247 . S
C120 O114 1.261 . S
C121 O116 1.259 . S
C121 O118 1.235 . S
O122 Co112 2.021 . S
O122 C119 1.238 . S
O123 Co117 2.052 . S
O123 C119 1.241 . S
O124 Co112 2.137 . S
O124 C115 1.247 . S
O125 Co112 2.244 . S
O125 C115 1.272 . S
O125 Co117 2.135 . S
Co126 O127 2.216 . S
Co126 O128 2.091 . S
Co126 O130 2.004 . S
Co126 O136 2.021 . S
Co126 O138 2.137 . S
Co126 O139 2.244 . S
O127 Co126 2.216 . S
O127 C134 1.247 . S
O128 Co126 2.091 . S
O128 C134 1.261 . S
C129 O138 1.247 . S
C129 O139 1.272 . S
O130 Co126 2.004 . S
O130 C135 1.259 . S
Co131 O132 2.061 . S
Co131 O137 2.052 . S
Co131 O139 2.135 . S
O132 Co131 2.061 . S
O132 C135 1.235 . S
C133 O136 1.238 . S
C133 O137 1.241 . S
C134 O127 1.247 . S
C134 O128 1.261 . S
C135 O130 1.259 . S
C135 O132 1.235 . S
O136 Co126 2.021 . S
O136 C133 1.238 . S
O137 Co131 2.052 . S
O137 C133 1.241 . S
O138 Co126 2.137 . S
O138 C129 1.247 . S
O139 Co126 2.244 . S
O139 C129 1.272 . S
O139 Co131 2.135 . S
Co140 O141 2.216 . S
Co140 O142 2.091 . S
Co140 O144 2.004 . S
Co140 O150 2.021 . S
Co140 O152 2.137 . S
Co140 O153 2.244 . S
O141 Co140 2.216 . S
O141 C148 1.247 . S
O142 Co140 2.091 . S
O142 C148 1.261 . S
C143 O152 1.247 . S
C143 O153 1.272 . S
O144 Co140 2.004 . S
O144 C149 1.259 . S
Co145 O146 2.061 . S
Co145 O151 2.052 . S
Co145 O153 2.135 . S
O146 Co145 2.061 . S
O146 C149 1.235 . S
C147 O150 1.238 . S
C147 O151 1.241 . S
C148 O141 1.247 . S
C148 O142 1.261 . S
C149 O144 1.259 . S
C149 O146 1.235 . S
O150 Co140 2.021 . S
O150 C147 1.238 . S
O151 Co145 2.052 . S
O151 C147 1.241 . S
O152 Co140 2.137 . S
O152 C143 1.247 . S
O153 Co140 2.244 . S
O153 C143 1.272 . S
O153 Co145 2.135 . S
Co154 O155 2.216 . S
Co154 O156 2.091 . S
Co154 O158 2.004 . S
Co154 O164 2.021 . S
Co154 O166 2.137 . S
Co154 O167 2.244 . S
O155 Co154 2.216 . S
O155 C162 1.247 . S
O156 Co154 2.091 . S
O156 C162 1.261 . S
C157 O166 1.247 . S
C157 O167 1.272 . S
O158 Co154 2.004 . S
O158 C163 1.259 . S
Co159 O160 2.061 . S
Co159 O165 2.052 . S
Co159 O167 2.135 . S
O160 Co159 2.061 . S
O160 C163 1.235 . S
C161 O164 1.238 . S
C161 O165 1.241 . S
C162 O155 1.247 . S
C162 O156 1.261 . S
C163 O158 1.259 . S
C163 O160 1.235 . S
O164 Co154 2.021 . S
O164 C161 1.238 . S
O165 Co159 2.052 . S
O165 C161 1.241 . S
O166 Co154 2.137 . S
O166 C157 1.247 . S
O167 Co154 2.244 . S
O167 C157 1.272 . S
O167 Co159 2.135 . S
Co168 O169 2.216 . S
Co168 O170 2.091 . S
Co168 O172 2.004 . S
Co168 O178 2.021 . S
Co168 O180 2.137 . S
Co168 O181 2.244 . S
O169 Co168 2.216 . S
O169 C176 1.247 . S
O170 Co168 2.091 . S
O170 C176 1.261 . S
C171 O180 1.247 . S
C171 O181 1.272 . S
O172 Co168 2.004 . S
O172 C177 1.259 . S
Co173 O174 2.061 . S
Co173 O179 2.052 . S
Co173 O181 2.135 . S
O174 Co173 2.061 . S
O174 C177 1.235 . S
C175 O178 1.238 . S
C175 O179 1.241 . S
C176 O169 1.247 . S
C176 O170 1.261 . S
C177 O172 1.259 . S
C177 O174 1.235 . S
O178 Co168 2.021 . S
O178 C175 1.238 . S
O179 Co173 2.052 . S
O179 C175 1.241 . S
O180 Co168 2.137 . S
O180 C171 1.247 . S
O181 Co168 2.244 . S
O181 C171 1.272 . S
O181 Co173 2.135 . S
Co182 O183 2.216 . S
Co182 O184 2.091 . S
Co182 O186 2.004 . S
Co182 O192 2.021 . S
Co182 O194 2.137 . S
Co182 O195 2.244 . S
O183 Co182 2.216 . S
O183 C190 1.247 . S
O184 Co182 2.091 . S
O184 C190 1.261 . S
C185 O194 1.247 . S
C185 O195 1.272 . S
O186 Co182 2.004 . S
O186 C191 1.259 . S
Co187 O188 2.061 . S
Co187 O193 2.052 . S
Co187 O195 2.135 . S
O188 Co187 2.061 . S
O188 C191 1.235 . S
C189 O192 1.238 . S
C189 O193 1.241 . S
C190 O183 1.247 . S
C190 O184 1.261 . S
C191 O186 1.259 . S
C191 O188 1.235 . S
O192 Co182 2.021 . S
O192 C189 1.238 . S
O193 Co187 2.052 . S
O193 C189 1.241 . S
O194 Co182 2.137 . S
O194 C185 1.247 . S
O195 Co182 2.244 . S
O195 C185 1.272 . S
O195 Co187 2.135 . S
Co196 O197 2.216 . S
Co196 O198 2.091 . S
Co196 O200 2.004 . S
Co196 O206 2.021 . S
Co196 O208 2.137 . S
Co196 O209 2.244 . S
O197 Co196 2.216 . S
O197 C204 1.247 . S
O198 Co196 2.091 . S
O198 C204 1.261 . S
C199 O208 1.247 . S
C199 O209 1.272 . S
O200 Co196 2.004 . S
O200 C205 1.259 . S
Co201 O202 2.061 . S
Co201 O207 2.052 . S
Co201 O209 2.135 . S
O202 Co201 2.061 . S
O202 C205 1.235 . S
C203 O206 1.238 . S
C203 O207 1.241 . S
C204 O197 1.247 . S
C204 O198 1.261 . S
C205 O200 1.259 . S
C205 O202 1.235 . S
O206 Co196 2.021 . S
O206 C203 1.238 . S
O207 Co201 2.052 . S
O207 C203 1.241 . S
O208 Co196 2.137 . S
O208 C199 1.247 . S
O209 Co196 2.244 . S
O209 C199 1.272 . S
O209 Co201 2.135 . S
Co210 O211 2.216 . S
Co210 O212 2.091 . S
Co210 O214 2.004 . S
Co210 O220 2.021 . S
Co210 O222 2.137 . S
Co210 O223 2.244 . S
O211 Co210 2.216 . S
O211 C218 1.247 . S
O212 Co210 2.091 . S
O212 C218 1.261 . S
C213 O222 1.247 . S
C213 O223 1.272 . S
O214 Co210 2.004 . S
O214 C219 1.259 . S
Co215 O216 2.061 . S
Co215 O221 2.052 . S
Co215 O223 2.135 . S
O216 Co215 2.061 . S
O216 C219 1.235 . S
C217 O220 1.238 . S
C217 O221 1.241 . S
C218 O211 1.247 . S
C218 O212 1.261 . S
C219 O214 1.259 . S
C219 O216 1.235 . S
O220 Co210 2.021 . S
O220 C217 1.238 . S
O221 Co215 2.052 . S
O221 C217 1.241 . S
O222 Co210 2.137 . S
O222 C213 1.247 . S
O223 Co210 2.244 . S
O223 C213 1.272 . S
O223 Co215 2.135 . S
Co224 O225 2.216 . S
Co224 O226 2.091 . S
Co224 O228 2.004 . S
Co224 O234 2.021 . S
Co224 O236 2.137 . S
Co224 O237 2.244 . S
O225 Co224 2.216 . S
O225 C232 1.247 . S
O226 Co224 2.091 . S
O226 C232 1.261 . S
C227 O236 1.247 . S
C227 O237 1.272 . S
O228 Co224 2.004 . S
O228 C233 1.259 . S
Co229 O230 2.061 . S
Co229 O235 2.052 . S
Co229 O237 2.135 . S
O230 Co229 2.061 . S
O230 C233 1.235 . S
C231 O234 1.238 . S
C231 O235 1.241 . S
C232 O225 1.247 . S
C232 O226 1.261 . S
C233 O228 1.259 . S
C233 O230 1.235 . S
O234 Co224 2.021 . S
O234 C231 1.238 . S
O235 Co229 2.052 . S
O235 C231 1.241 . S
O236 Co224 2.137 . S
O236 C227 1.247 . S
O237 Co224 2.244 . S
O237 C227 1.272 . S
O237 Co229 2.135 . S
Co238 O239 2.216 . S
Co238 O240 2.091 . S
Co238 O242 2.004 . S
Co238 O248 2.021 . S
Co238 O250 2.137 . S
Co238 O251 2.244 . S
O239 Co238 2.216 . S
O239 C246 1.247 . S
O240 Co238 2.091 . S
O240 C246 1.261 . S
C241 O250 1.247 . S
C241 O251 1.272 . S
O242 Co238 2.004 . S
O242 C247 1.259 . S
Co243 O244 2.061 . S
Co243 O249 2.052 . S
Co243 O251 2.135 . S
O244 Co243 2.061 . S
O244 C247 1.235 . S
C245 O248 1.238 . S
C245 O249 1.241 . S
C246 O239 1.247 . S
C246 O240 1.261 . S
C247 O242 1.259 . S
C247 O244 1.235 . S
O248 Co238 2.021 . S
O248 C245 1.238 . S
O249 Co243 2.052 . S
O249 C245 1.241 . S
O250 Co238 2.137 . S
O250 C241 1.247 . S
O251 Co238 2.244 . S
O251 C241 1.272 . S
O251 Co243 2.135 . S
Co252 O253 2.216 . S
Co252 O254 2.091 . S
Co252 O256 2.004 . S
Co252 O262 2.021 . S
Co252 O264 2.137 . S
Co252 O265 2.244 . S
O253 Co252 2.216 . S
O253 C260 1.247 . S
O254 Co252 2.091 . S
O254 C260 1.261 . S
C255 O264 1.247 . S
C255 O265 1.272 . S
O256 Co252 2.004 . S
O256 C261 1.259 . S
Co257 O258 2.061 . S
Co257 O263 2.052 . S
Co257 O265 2.135 . S
O258 Co257 2.061 . S
O258 C261 1.235 . S
C259 O262 1.238 . S
C259 O263 1.241 . S
C260 O253 1.247 . S
C260 O254 1.261 . S
C261 O256 1.259 . S
C261 O258 1.235 . S
O262 Co252 2.021 . S
O262 C259 1.238 . S
O263 Co257 2.052 . S
O263 C259 1.241 . S
O264 Co252 2.137 . S
O264 C255 1.247 . S
O265 Co252 2.244 . S
O265 C255 1.272 . S
O265 Co257 2.135 . S
Co266 O267 2.216 . S
Co266 O268 2.091 . S
Co266 O270 2.004 . S
Co266 O276 2.021 . S
Co266 O278 2.137 . S
Co266 O279 2.244 . S
O267 Co266 2.216 . S
O267 C274 1.247 . S
O268 Co266 2.091 . S
O268 C274 1.261 . S
C269 O278 1.247 . S
C269 O279 1.272 . S
O270 Co266 2.004 . S
O270 C275 1.259 . S
Co271 O272 2.061 . S
Co271 O277 2.052 . S
Co271 O279 2.135 . S
O272 Co271 2.061 . S
O272 C275 1.235 . S
C273 O276 1.238 . S
C273 O277 1.241 . S
C274 O267 1.247 . S
C274 O268 1.261 . S
C275 O270 1.259 . S
C275 O272 1.235 . S
O276 Co266 2.021 . S
O276 C273 1.238 . S
O277 Co271 2.052 . S
O277 C273 1.241 . S
O278 Co266 2.137 . S
O278 C269 1.247 . S
O279 Co266 2.244 . S
O279 C269 1.272 . S
O279 Co271 2.135 . S
Co280 O281 2.216 . S
Co280 O282 2.091 . S
Co280 O284 2.004 . S
Co280 O290 2.021 . S
Co280 O292 2.137 . S
Co280 O293 2.244 . S
O281 Co280 2.216 . S
O281 C288 1.247 . S
O282 Co280 2.091 . S
O282 C288 1.261 . S
C283 O292 1.247 . S
C283 O293 1.272 . S
O284 Co280 2.004 . S
O284 C289 1.259 . S
Co285 O286 2.061 . S
Co285 O291 2.052 . S
Co285 O293 2.135 . S
O286 Co285 2.061 . S
O286 C289 1.235 . S
C287 O290 1.238 . S
C287 O291 1.241 . S
C288 O281 1.247 . S
C288 O282 1.261 . S
C289 O284 1.259 . S
C289 O286 1.235 . S
O290 Co280 2.021 . S
O290 C287 1.238 . S
O291 Co285 2.052 . S
O291 C287 1.241 . S
O292 Co280 2.137 . S
O292 C283 1.247 . S
O293 Co280 2.244 . S
O293 C283 1.272 . S
O293 Co285 2.135 . S
Co294 O295 2.216 . S
Co294 O296 2.091 . S
Co294 O298 2.004 . S
Co294 O304 2.021 . S
Co294 O306 2.137 . S
Co294 O307 2.244 . S
O295 Co294 2.216 . S
O295 C302 1.247 . S
O296 Co294 2.091 . S
O296 C302 1.261 . S
C297 O306 1.247 . S
C297 O307 1.272 . S
O298 Co294 2.004 . S
O298 C303 1.259 . S
Co299 O300 2.061 . S
Co299 O305 2.052 . S
Co299 O307 2.135 . S
O300 Co299 2.061 . S
O300 C303 1.235 . S
C301 O304 1.238 . S
C301 O305 1.241 . S
C302 O295 1.247 . S
C302 O296 1.261 . S
C303 O298 1.259 . S
C303 O300 1.235 . S
O304 Co294 2.021 . S
O304 C301 1.238 . S
O305 Co299 2.052 . S
O305 C301 1.241 . S
O306 Co294 2.137 . S
O306 C297 1.247 . S
O307 Co294 2.244 . S
O307 C297 1.272 . S
O307 Co299 2.135 . S
Co308 O309 2.216 . S
Co308 O310 2.091 . S
Co308 O312 2.004 . S
Co308 O318 2.021 . S
Co308 O320 2.137 . S
Co308 O321 2.244 . S
O309 Co308 2.216 . S
O309 C316 1.247 . S
O310 Co308 2.091 . S
O310 C316 1.261 . S
C311 O320 1.247 . S
C311 O321 1.272 . S
O312 Co308 2.004 . S
O312 C317 1.259 . S
Co313 O314 2.061 . S
Co313 O319 2.052 . S
Co313 O321 2.135 . S
O314 Co313 2.061 . S
O314 C317 1.235 . S
C315 O318 1.238 . S
C315 O319 1.241 . S
C316 O309 1.247 . S
C316 O310 1.261 . S
C317 O312 1.259 . S
C317 O314 1.235 . S
O318 Co308 2.021 . S
O318 C315 1.238 . S
O319 Co313 2.052 . S
O319 C315 1.241 . S
O320 Co308 2.137 . S
O320 C311 1.247 . S
O321 Co308 2.244 . S
O321 C311 1.272 . S
O321 Co313 2.135 . S
Co322 O323 2.216 . S
Co322 O324 2.091 . S
Co322 O326 2.004 . S
Co322 O332 2.021 . S
Co322 O334 2.137 . S
Co322 O335 2.244 . S
O323 Co322 2.216 . S
O323 C330 1.247 . S
O324 Co322 2.091 . S
O324 C330 1.261 . S
C325 O334 1.247 . S
C325 O335 1.272 . S
O326 Co322 2.004 . S
O326 C331 1.259 . S
Co327 O328 2.061 . S
Co327 O333 2.052 . S
Co327 O335 2.135 . S
O328 Co327 2.061 . S
O328 C331 1.235 . S
C329 O332 1.238 . S
C329 O333 1.241 . S
C330 O323 1.247 . S
C330 O324 1.261 . S
C331 O326 1.259 . S
C331 O328 1.235 . S
O332 Co322 2.021 . S
O332 C329 1.238 . S
O333 Co327 2.052 . S
O333 C329 1.241 . S
O334 Co322 2.137 . S
O334 C325 1.247 . S
O335 Co322 2.244 . S
O335 C325 1.272 . S
O335 Co327 2.135 . S
Co336 O337 2.216 . S
Co336 O338 2.091 . S
Co336 O340 2.004 . S
Co336 O346 2.021 . S
Co336 O348 2.137 . S
Co336 O349 2.244 . S
O337 Co336 2.216 . S
O337 C344 1.247 . S
O338 Co336 2.091 . S
O338 C344 1.261 . S
C339 O348 1.247 . S
C339 O349 1.272 . S
O340 Co336 2.004 . S
O340 C345 1.259 . S
Co341 O342 2.061 . S
Co341 O347 2.052 . S
Co341 O349 2.135 . S
O342 Co341 2.061 . S
O342 C345 1.235 . S
C343 O346 1.238 . S
C343 O347 1.241 . S
C344 O337 1.247 . S
C344 O338 1.261 . S
C345 O340 1.259 . S
C345 O342 1.235 . S
O346 Co336 2.021 . S
O346 C343 1.238 . S
O347 Co341 2.052 . S
O347 C343 1.241 . S
O348 Co336 2.137 . S
O348 C339 1.247 . S
O349 Co336 2.244 . S
O349 C339 1.272 . S
O349 Co341 2.135 . S
Co350 O351 2.216 . S
Co350 O352 2.091 . S
Co350 O354 2.004 . S
Co350 O360 2.021 . S
Co350 O362 2.137 . S
Co350 O363 2.244 . S
O351 Co350 2.216 . S
O351 C358 1.247 . S
O352 Co350 2.091 . S
O352 C358 1.261 . S
C353 O362 1.247 . S
C353 O363 1.272 . S
O354 Co350 2.004 . S
O354 C359 1.259 . S
Co355 O356 2.061 . S
Co355 O361 2.052 . S
Co355 O363 2.135 . S
O356 Co355 2.061 . S
O356 C359 1.235 . S
C357 O360 1.238 . S
C357 O361 1.241 . S
C358 O351 1.247 . S
C358 O352 1.261 . S
C359 O354 1.259 . S
C359 O356 1.235 . S
O360 Co350 2.021 . S
O360 C357 1.238 . S
O361 Co355 2.052 . S
O361 C357 1.241 . S
O362 Co350 2.137 . S
O362 C353 1.247 . S
O363 Co350 2.244 . S
O363 C353 1.272 . S
O363 Co355 2.135 . S
Co364 O365 2.216 . S
Co364 O366 2.091 . S
Co364 O368 2.004 . S
Co364 O374 2.021 . S
Co364 O376 2.137 . S
Co364 O377 2.244 . S
O365 Co364 2.216 . S
O365 C372 1.247 . S
O366 Co364 2.091 . S
O366 C372 1.261 . S
C367 O376 1.247 . S
C367 O377 1.272 . S
O368 Co364 2.004 . S
O368 C373 1.259 . S
Co369 O370 2.061 . S
Co369 O375 2.052 . S
Co369 O377 2.135 . S
O370 Co369 2.061 . S
O370 C373 1.235 . S
C371 O374 1.238 . S
C371 O375 1.241 . S
C372 O365 1.247 . S
C372 O366 1.261 . S
C373 O368 1.259 . S
C373 O370 1.235 . S
O374 Co364 2.021 . S
O374 C371 1.238 . S
O375 Co369 2.052 . S
O375 C371 1.241 . S
O376 Co364 2.137 . S
O376 C367 1.247 . S
O377 Co364 2.244 . S
O377 C367 1.272 . S
O377 Co369 2.135 . S
Co378 O379 2.216 . S
Co378 O380 2.091 . S
Co378 O382 2.004 . S
Co378 O388 2.021 . S
Co378 O390 2.137 . S
Co378 O391 2.244 . S
O379 Co378 2.216 . S
O379 C386 1.247 . S
O380 Co378 2.091 . S
O380 C386 1.261 . S
C381 O390 1.247 . S
C381 O391 1.272 . S
O382 Co378 2.004 . S
O382 C387 1.259 . S
Co383 O384 2.061 . S
Co383 O389 2.052 . S
Co383 O391 2.135 . S
O384 Co383 2.061 . S
O384 C387 1.235 . S
C385 O388 1.238 . S
C385 O389 1.241 . S
C386 O379 1.247 . S
C386 O380 1.261 . S
C387 O382 1.259 . S
C387 O384 1.235 . S
O388 Co378 2.021 . S
O388 C385 1.238 . S
O389 Co383 2.052 . S
O389 C385 1.241 . S
O390 Co378 2.137 . S
O390 C381 1.247 . S
O391 Co378 2.244 . S
O391 C381 1.272 . S
O391 Co383 2.135 . S
Co392 O393 2.216 . S
Co392 O394 2.091 . S
Co392 O396 2.004 . S
Co392 O402 2.021 . S
Co392 O404 2.137 . S
Co392 O405 2.244 . S
O393 Co392 2.216 . S
O393 C400 1.247 . S
O394 Co392 2.091 . S
O394 C400 1.261 . S
C395 O404 1.247 . S
C395 O405 1.272 . S
O396 Co392 2.004 . S
O396 C401 1.259 . S
Co397 O398 2.061 . S
Co397 O403 2.052 . S
Co397 O405 2.135 . S
O398 Co397 2.061 . S
O398 C401 1.235 . S
C399 O402 1.238 . S
C399 O403 1.241 . S
C400 O393 1.247 . S
C400 O394 1.261 . S
C401 O396 1.259 . S
C401 O398 1.235 . S
O402 Co392 2.021 . S
O402 C399 1.238 . S
O403 Co397 2.052 . S
O403 C399 1.241 . S
O404 Co392 2.137 . S
O404 C395 1.247 . S
O405 Co392 2.244 . S
O405 C395 1.272 . S
O405 Co397 2.135 . S
Co406 O407 2.216 . S
Co406 O408 2.091 . S
Co406 O410 2.004 . S
Co406 O416 2.021 . S
Co406 O418 2.137 . S
Co406 O419 2.244 . S
O407 Co406 2.216 . S
O407 C414 1.247 . S
O408 Co406 2.091 . S
O408 C414 1.261 . S
C409 O418 1.247 . S
C409 O419 1.272 . S
O410 Co406 2.004 . S
O410 C415 1.259 . S
Co411 O412 2.061 . S
Co411 O417 2.052 . S
Co411 O419 2.135 . S
O412 Co411 2.061 . S
O412 C415 1.235 . S
C413 O416 1.238 . S
C413 O417 1.241 . S
C414 O407 1.247 . S
C414 O408 1.261 . S
C415 O410 1.259 . S
C415 O412 1.235 . S
O416 Co406 2.021 . S
O416 C413 1.238 . S
O417 Co411 2.052 . S
O417 C413 1.241 . S
O418 Co406 2.137 . S
O418 C409 1.247 . S
O419 Co406 2.244 . S
O419 C409 1.272 . S
O419 Co411 2.135 . S
Co420 O421 2.216 . S
Co420 O422 2.091 . S
Co420 O424 2.004 . S
Co420 O430 2.021 . S
Co420 O432 2.137 . S
Co420 O433 2.244 . S
O421 Co420 2.216 . S
O421 C428 1.247 . S
O422 Co420 2.091 . S
O422 C428 1.261 . S
C423 O432 1.247 . S
C423 O433 1.272 . S
O424 Co420 2.004 . S
O424 C429 1.259 . S
Co425 O426 2.061 . S
Co425 O431 2.052 . S
Co425 O433 2.135 . S
O426 Co425 2.061 . S
O426 C429 1.235 . S
C427 O430 1.238 . S
C427 O431 1.241 . S
C428 O421 1.247 . S
C428 O422 1.261 . S
C429 O424 1.259 . S
C429 O426 1.235 . S
O430 Co420 2.021 . S
O430 C427 1.238 . S
O431 Co425 2.052 . S
O431 C427 1.241 . S
O432 Co420 2.137 . S
O432 C423 1.247 . S
O433 Co420 2.244 . S
O433 C423 1.272 . S
O433 Co425 2.135 . S
Co434 O435 2.216 . S
Co434 O436 2.091 . S
Co434 O438 2.004 . S
Co434 O444 2.021 . S
Co434 O446 2.137 . S
Co434 O447 2.244 . S
O435 Co434 2.216 . S
O435 C442 1.247 . S
O436 Co434 2.091 . S
O436 C442 1.261 . S
C437 O446 1.247 . S
C437 O447 1.272 . S
O438 Co434 2.004 . S
O438 C443 1.259 . S
Co439 O440 2.061 . S
Co439 O445 2.052 . S
Co439 O447 2.135 . S
O440 Co439 2.061 . S
O440 C443 1.235 . S
C441 O444 1.238 . S
C441 O445 1.241 . S
C442 O435 1.247 . S
C442 O436 1.261 . S
C443 O438 1.259 . S
C443 O440 1.235 . S
O444 Co434 2.021 . S
O444 C441 1.238 . S
O445 Co439 2.052 . S
O445 C441 1.241 . S
O446 Co434 2.137 . S
O446 C437 1.247 . S
O447 Co434 2.244 . S
O447 C437 1.272 . S
O447 Co439 2.135 . S
H448 C466 0.951 . S
H449 C468 0.951 . S
H450 C470 0.950 . S
H451 C471 0.950 . S
H452 C473 0.950 . S
H453 C476 0.950 . S
H454 C477 0.950 . S
H455 C479 0.950 . S
H456 C480 0.950 . S
H457 C481 0.951 . S
H458 C483 0.951 . S
H459 C485 0.950 . S
H460 C486 0.950 . S
H461 C488 0.950 . S
H462 C491 0.950 . S
H463 C492 0.950 . S
H464 C494 0.950 . S
H465 C495 0.950 . S
C466 H448 0.951 . S
C466 C467 1.366 . S
C466 C468 1.388 . S
C467 C466 1.366 . S
C467 C471 1.385 . S
C468 H449 0.951 . S
C468 C466 1.388 . S
C468 C469 1.366 . S
C469 C468 1.366 . S
C469 C470 1.414 . S
C469 C472 1.499 . S
C470 H450 0.950 . S
C470 C469 1.414 . S
C470 C471 1.374 . S
C471 H451 0.950 . S
C471 C467 1.385 . S
C471 C470 1.374 . S
C472 C469 1.499 . S
C472 C473 1.373 . S
C472 C474 1.389 . S
C473 H452 0.950 . S
C473 C472 1.373 . S
C473 C489 1.377 1_545 S
C474 C472 1.389 . S
C474 C475 1.524 . S
C474 C488 1.377 1_545 S
C475 C474 1.524 . S
C475 C476 1.397 . S
C475 C480 1.363 . S
C476 H453 0.950 . S
C476 C475 1.397 . S
C476 C477 1.334 . S
C477 H454 0.950 . S
C477 C476 1.334 . S
C477 C478 1.287 . S
C478 C477 1.287 . S
C478 C479 1.524 . S
C478 H497 0.913 . S
C479 H455 0.950 . S
C479 C478 1.524 . S
C479 C480 1.415 . S
C480 H456 0.950 . S
C480 C475 1.363 . S
C480 C479 1.415 . S
C481 H457 0.951 . S
C481 C482 1.366 . S
C481 C483 1.388 . S
C482 C481 1.366 . S
C482 C486 1.385 . S
C483 H458 0.951 . S
C483 C481 1.388 . S
C483 C484 1.366 . S
C484 C483 1.366 . S
C484 C485 1.414 . S
C484 C487 1.499 . S
C485 H459 0.950 . S
C485 C484 1.414 . S
C485 C486 1.374 . S
C486 H460 0.950 . S
C486 C482 1.385 . S
C486 C485 1.374 . S
C487 C484 1.499 . S
C487 C488 1.373 . S
C487 C489 1.389 . S
C488 H461 0.950 . S
C488 C474 1.377 1_565 S
C488 C487 1.373 . S
C489 C473 1.377 1_565 S
C489 C487 1.389 . S
C489 C490 1.524 . S
C490 C489 1.524 . S
C490 C491 1.397 . S
C490 C495 1.363 . S
C491 H462 0.950 . S
C491 C490 1.397 . S
C491 C492 1.334 . S
C492 H463 0.950 . S
C492 C491 1.334 . S
C492 C493 1.287 . S
C493 C492 1.287 . S
C493 C494 1.524 . S
C493 H496 0.999 . S
C494 H464 0.950 . S
C494 C493 1.524 . S
C494 C495 1.415 . S
C495 H465 0.950 . S
C495 C490 1.363 . S
C495 C494 1.415 . S
H496 C493 0.999 . S
H497 C478 0.913 . S
H498 C516 0.951 . S
H499 C518 0.951 . S
H500 C520 0.950 . S
H501 C521 0.950 . S
H502 C523 0.950 . S
H503 C526 0.950 . S
H504 C527 0.950 . S
H505 C529 0.950 . S
H506 C530 0.950 . S
H507 C531 0.951 . S
H508 C533 0.951 . S
H509 C535 0.950 . S
H510 C536 0.950 . S
H511 C538 0.950 . S
H512 C541 0.950 . S
H513 C542 0.950 . S
H514 C544 0.950 . S
H515 C545 0.950 . S
C516 H498 0.951 . S
C516 C517 1.366 . S
C516 C518 1.388 . S
C517 C516 1.366 . S
C517 C521 1.385 . S
C518 H499 0.951 . S
C518 C516 1.388 . S
C518 C519 1.366 . S
C519 C518 1.366 . S
C519 C520 1.414 . S
C519 C522 1.499 . S
C520 H500 0.950 . S
C520 C519 1.414 . S
C520 C521 1.374 . S
C521 H501 0.950 . S
C521 C517 1.385 . S
C521 C520 1.374 . S
C522 C519 1.499 . S
C522 C523 1.373 . S
C522 C524 1.389 . S
C523 H502 0.950 . S
C523 C522 1.373 . S
C523 C539 1.377 . S
C524 C522 1.389 . S
C524 C525 1.524 . S
C524 C538 1.377 . S
C525 C524 1.524 . S
C525 C526 1.397 . S
C525 C530 1.363 . S
C526 H503 0.950 . S
C526 C525 1.397 . S
C526 C527 1.334 . S
C527 H504 0.950 . S
C527 C526 1.334 . S
C527 C528 1.287 . S
C528 C527 1.287 . S
C528 C529 1.524 . S
C528 H547 0.913 . S
C529 H505 0.950 . S
C529 C528 1.524 . S
C529 C530 1.415 . S
C530 H506 0.950 . S
C530 C525 1.363 . S
C530 C529 1.415 . S
C531 H507 0.951 . S
C531 C532 1.366 . S
C531 C533 1.388 . S
C532 C531 1.366 . S
C532 C536 1.385 . S
C533 H508 0.951 . S
C533 C531 1.388 . S
C533 C534 1.366 . S
C534 C533 1.366 . S
C534 C535 1.414 . S
C534 C537 1.499 . S
C535 H509 0.950 . S
C535 C534 1.414 . S
C535 C536 1.374 . S
C536 H510 0.950 . S
C536 C532 1.385 . S
C536 C535 1.374 . S
C537 C534 1.499 . S
C537 C538 1.373 . S
C537 C539 1.389 . S
C538 H511 0.950 . S
C538 C524 1.377 . S
C538 C537 1.373 . S
C539 C523 1.377 . S
C539 C537 1.389 . S
C539 C540 1.524 . S
C540 C539 1.524 . S
C540 C541 1.397 . S
C540 C545 1.363 . S
C541 H512 0.950 . S
C541 C540 1.397 . S
C541 C542 1.334 . S
C542 H513 0.950 . S
C542 C541 1.334 . S
C542 C543 1.287 . S
C543 C542 1.287 . S
C543 C544 1.524 . S
C543 H546 0.999 . S
C544 H514 0.950 . S
C544 C543 1.524 . S
C544 C545 1.415 . S
C545 H515 0.950 . S
C545 C540 1.363 . S
C545 C544 1.415 . S
H546 C543 0.999 . S
H547 C528 0.913 . S
H548 C566 0.951 . S
H549 C568 0.951 . S
H550 C570 0.950 . S
H551 C571 0.950 . S
H552 C573 0.950 . S
H553 C576 0.950 . S
H554 C577 0.950 . S
H555 C579 0.950 . S
H556 C580 0.950 . S
H557 C581 0.951 . S
H558 C583 0.951 . S
H559 C585 0.950 . S
H560 C586 0.950 . S
H561 C588 0.950 . S
H562 C591 0.950 . S
H563 C592 0.950 . S
H564 C594 0.950 . S
H565 C595 0.950 . S
C566 H548 0.951 . S
C566 C567 1.366 . S
C566 C568 1.388 . S
C567 C566 1.366 . S
C567 C571 1.385 . S
C568 H549 0.951 . S
C568 C566 1.388 . S
C568 C569 1.366 . S
C569 C568 1.366 . S
C569 C570 1.414 . S
C569 C572 1.499 . S
C570 H550 0.950 . S
C570 C569 1.414 . S
C570 C571 1.374 . S
C571 H551 0.950 . S
C571 C567 1.385 . S
C571 C570 1.374 . S
C572 C569 1.499 . S
C572 C573 1.373 . S
C572 C574 1.389 . S
C573 H552 0.950 . S
C573 C572 1.373 . S
C573 C589 1.377 1_545 S
C574 C572 1.389 . S
C574 C575 1.524 . S
C574 C588 1.377 1_545 S
C575 C574 1.524 . S
C575 C576 1.397 . S
C575 C580 1.363 . S
C576 H553 0.950 . S
C576 C575 1.397 . S
C576 C577 1.334 . S
C577 H554 0.950 . S
C577 C576 1.334 . S
C577 C578 1.287 . S
C578 C577 1.287 . S
C578 C579 1.524 . S
C578 H597 0.913 . S
C579 H555 0.950 . S
C579 C578 1.524 . S
C579 C580 1.415 . S
C580 H556 0.950 . S
C580 C575 1.363 . S
C580 C579 1.415 . S
C581 H557 0.951 . S
C581 C582 1.366 . S
C581 C583 1.388 . S
C582 C581 1.366 . S
C582 C586 1.385 . S
C583 H558 0.951 . S
C583 C581 1.388 . S
C583 C584 1.366 . S
C584 C583 1.366 . S
C584 C585 1.414 . S
C584 C587 1.499 . S
C585 H559 0.950 . S
C585 C584 1.414 . S
C585 C586 1.374 . S
C586 H560 0.950 . S
C586 C582 1.385 . S
C586 C585 1.374 . S
C587 C584 1.499 . S
C587 C588 1.373 . S
C587 C589 1.389 . S
C588 H561 0.950 . S
C588 C574 1.377 1_565 S
C588 C587 1.373 . S
C589 C573 1.377 1_565 S
C589 C587 1.389 . S
C589 C590 1.524 . S
C590 C589 1.524 . S
C590 C591 1.397 . S
C590 C595 1.363 . S
C591 H562 0.950 . S
C591 C590 1.397 . S
C591 C592 1.334 . S
C592 H563 0.950 . S
C592 C591 1.334 . S
C592 C593 1.287 . S
C593 C592 1.287 . S
C593 C594 1.524 . S
C593 H596 0.999 . S
C594 H564 0.950 . S
C594 C593 1.524 . S
C594 C595 1.415 . S
C595 H565 0.950 . S
C595 C590 1.363 . S
C595 C594 1.415 . S
H596 C593 0.999 . S
H597 C578 0.913 . S
H598 C616 0.951 . S
H599 C618 0.951 . S
H600 C620 0.950 . S
H601 C621 0.950 . S
H602 C623 0.950 . S
H603 C626 0.950 . S
H604 C627 0.950 . S
H605 C629 0.950 . S
H606 C630 0.950 . S
H607 C631 0.951 . S
H608 C633 0.951 . S
H609 C635 0.950 . S
H610 C636 0.950 . S
H611 C638 0.950 . S
H612 C641 0.950 . S
H613 C642 0.950 . S
H614 C644 0.950 . S
H615 C645 0.950 . S
C616 H598 0.951 . S
C616 C617 1.366 . S
C616 C618 1.388 . S
C617 C616 1.366 . S
C617 C621 1.385 . S
C618 H599 0.951 . S
C618 C616 1.388 . S
C618 C619 1.366 . S
C619 C618 1.366 . S
C619 C620 1.414 . S
C619 C622 1.499 . S
C620 H600 0.950 . S
C620 C619 1.414 . S
C620 C621 1.374 . S
C621 H601 0.950 . S
C621 C617 1.385 . S
C621 C620 1.374 . S
C622 C619 1.499 . S
C622 C623 1.373 . S
C622 C624 1.389 1_556 S
C623 H602 0.950 . S
C623 C622 1.373 . S
C623 C639 1.377 . S
C624 C622 1.389 1_554 S
C624 C625 1.524 . S
C624 C638 1.377 . S
C625 C624 1.524 . S
C625 C626 1.397 1_554 S
C625 C630 1.363 . S
C626 H603 0.950 . S
C626 C625 1.397 1_556 S
C626 C627 1.334 . S
C627 H604 0.950 . S
C627 C626 1.334 . S
C627 C628 1.287 1_556 S
C628 C627 1.287 1_554 S
C628 C629 1.524 . S
C628 H647 0.913 . S
C629 H605 0.950 . S
C629 C628 1.524 . S
C629 C630 1.415 . S
C630 H606 0.950 . S
C630 C625 1.363 . S
C630 C629 1.415 . S
C631 H607 0.951 . S
C631 C632 1.366 . S
C631 C633 1.388 . S
C632 C631 1.366 . S
C632 C636 1.385 . S
C633 H608 0.951 . S
C633 C631 1.388 . S
C633 C634 1.366 . S
C634 C633 1.366 . S
C634 C635 1.414 . S
C634 C637 1.499 . S
C635 H609 0.950 . S
C635 C634 1.414 . S
C635 C636 1.374 . S
C636 H610 0.950 . S
C636 C632 1.385 . S
C636 C635 1.374 . S
C637 C634 1.499 . S
C637 C638 1.373 . S
C637 C639 1.389 1_554 S
C638 H611 0.950 . S
C638 C624 1.377 . S
C638 C637 1.373 . S
C639 C623 1.377 . S
C639 C637 1.389 1_556 S
C639 C640 1.524 . S
C640 C639 1.524 . S
C640 C641 1.397 1_556 S
C640 C645 1.363 . S
C641 H612 0.950 . S
C641 C640 1.397 1_554 S
C641 C642 1.334 . S
C642 H613 0.950 . S
C642 C641 1.334 . S
C642 C643 1.287 1_554 S
C643 C642 1.287 1_556 S
C643 C644 1.524 . S
C643 H646 0.999 . S
C644 H614 0.950 . S
C644 C643 1.524 . S
C644 C645 1.415 . S
C645 H615 0.950 . S
C645 C640 1.363 . S
C645 C644 1.415 . S
H646 C643 0.999 . S
H647 C628 0.913 . S
H648 C666 0.951 . S
H649 C668 0.951 . S
H650 C670 0.950 . S
H651 C671 0.950 . S
H652 C673 0.950 . S
H653 C676 0.950 . S
H654 C677 0.950 . S
H655 C679 0.950 . S
H656 C680 0.950 . S
H657 C681 0.951 . S
H658 C683 0.951 . S
H659 C685 0.950 . S
H660 C686 0.950 . S
H661 C688 0.950 . S
H662 C691 0.950 . S
H663 C692 0.950 . S
H664 C694 0.950 . S
H665 C695 0.950 . S
C666 H648 0.951 . S
C666 C667 1.366 . S
C666 C668 1.388 . S
C667 C666 1.366 . S
C667 C671 1.385 . S
C668 H649 0.951 . S
C668 C666 1.388 . S
C668 C669 1.366 . S
C669 C668 1.366 . S
C669 C670 1.414 . S
C669 C672 1.499 . S
C670 H650 0.950 . S
C670 C669 1.414 . S
C670 C671 1.374 . S
C671 H651 0.950 . S
C671 C667 1.385 . S
C671 C670 1.374 . S
C672 C669 1.499 . S
C672 C673 1.373 . S
C672 C674 1.391 1_565 S
C673 H652 0.950 . S
C673 C672 1.373 . S
C673 C689 1.375 . S
C674 C672 1.391 1_545 S
C674 C675 1.524 . S
C674 C688 1.375 . S
C675 C674 1.524 . S
C675 C676 1.360 1_545 S
C675 C680 1.402 . S
C676 H653 0.950 . S
C676 C675 1.360 1_565 S
C676 C677 1.334 . S
C677 H654 0.950 . S
C677 C676 1.334 . S
C677 C678 1.287 . S
C678 C677 1.287 . S
C678 C679 1.523 1_565 S
C678 H697 0.913 . S
C679 H655 0.950 . S
C679 C678 1.523 1_545 S
C679 C680 1.415 . S
C680 H656 0.950 . S
C680 C675 1.402 . S
C680 C679 1.415 . S
C681 H657 0.951 . S
C681 C682 1.366 . S
C681 C683 1.388 . S
C682 C681 1.366 . S
C682 C686 1.385 . S
C683 H658 0.951 . S
C683 C681 1.388 . S
C683 C684 1.366 . S
C684 C683 1.366 . S
C684 C685 1.414 . S
C684 C687 1.499 . S
C685 H659 0.950 . S
C685 C684 1.414 . S
C685 C686 1.374 . S
C686 H660 0.950 . S
C686 C682 1.385 . S
C686 C685 1.374 . S
C687 C684 1.499 . S
C687 C688 1.373 . S
C687 C689 1.391 1_545 S
C688 H661 0.950 . S
C688 C674 1.375 . S
C688 C687 1.373 . S
C689 C673 1.375 . S
C689 C687 1.391 1_565 S
C689 C690 1.524 . S
C690 C689 1.524 . S
C690 C691 1.361 1_565 S
C690 C695 1.402 . S
C691 H662 0.950 . S
C691 C690 1.361 1_545 S
C691 C692 1.334 . S
C692 H663 0.950 . S
C692 C691 1.334 . S
C692 C693 1.287 . S
C693 C692 1.287 . S
C693 C694 1.523 1_545 S
C693 H696 0.999 1_545 S
C694 H664 0.950 . S
C694 C693 1.523 1_565 S
C694 C695 1.415 . S
C695 H665 0.950 . S
C695 C690 1.402 . S
C695 C694 1.415 . S
H696 C693 0.999 1_565 S
H697 C678 0.913 . S
H698 C716 0.951 . S
H699 C718 0.951 . S
H700 C720 0.950 . S
H701 C721 0.950 . S
H702 C723 0.950 . S
H703 C726 0.950 . S
H704 C727 0.950 . S
H705 C729 0.950 . S
H706 C730 0.950 . S
H707 C731 0.951 . S
H708 C733 0.951 . S
H709 C735 0.950 . S
H710 C736 0.950 . S
H711 C738 0.950 . S
H712 C741 0.950 . S
H713 C742 0.950 . S
H714 C744 0.950 . S
H715 C745 0.950 . S
C716 H698 0.951 . S
C716 C717 1.366 . S
C716 C718 1.388 . S
C717 C716 1.366 . S
C717 C721 1.385 . S
C718 H699 0.951 . S
C718 C716 1.388 . S
C718 C719 1.366 . S
C719 C718 1.366 . S
C719 C720 1.414 . S
C719 C722 1.499 . S
C720 H700 0.950 . S
C720 C719 1.414 . S
C720 C721 1.374 . S
C721 H701 0.950 . S
C721 C717 1.385 . S
C721 C720 1.374 . S
C722 C719 1.499 . S
C722 C723 1.373 . S
C722 C724 1.389 . S
C723 H702 0.950 . S
C723 C722 1.373 . S
C723 C739 1.377 . S
C724 C722 1.389 . S
C724 C725 1.524 . S
C724 C738 1.377 . S
C725 C724 1.524 . S
C725 C726 1.397 . S
C725 C730 1.363 . S
C726 H703 0.950 . S
C726 C725 1.397 . S
C726 C727 1.334 . S
C727 H704 0.950 . S
C727 C726 1.334 . S
C727 C728 1.287 . S
C728 C727 1.287 . S
C728 C729 1.524 . S
C728 H747 0.913 . S
C729 H705 0.950 . S
C729 C728 1.524 . S
C729 C730 1.415 . S
C730 H706 0.950 . S
C730 C725 1.363 . S
C730 C729 1.415 . S
C731 H707 0.951 . S
C731 C732 1.366 . S
C731 C733 1.388 . S
C732 C731 1.366 . S
C732 C736 1.385 . S
C733 H708 0.951 . S
C733 C731 1.388 . S
C733 C734 1.366 . S
C734 C733 1.366 . S
C734 C735 1.414 . S
C734 C737 1.499 . S
C735 H709 0.950 . S
C735 C734 1.414 . S
C735 C736 1.374 . S
C736 H710 0.950 . S
C736 C732 1.385 . S
C736 C735 1.374 . S
C737 C734 1.499 . S
C737 C738 1.373 . S
C737 C739 1.389 . S
C738 H711 0.950 . S
C738 C724 1.377 . S
C738 C737 1.373 . S
C739 C723 1.377 . S
C739 C737 1.389 . S
C739 C740 1.524 . S
C740 C739 1.524 . S
C740 C741 1.397 . S
C740 C745 1.363 . S
C741 H712 0.950 . S
C741 C740 1.397 . S
C741 C742 1.334 . S
C742 H713 0.950 . S
C742 C741 1.334 . S
C742 C743 1.287 . S
C743 C742 1.287 . S
C743 C744 1.524 . S
C743 H746 0.999 . S
C744 H714 0.950 . S
C744 C743 1.524 . S
C744 C745 1.415 . S
C745 H715 0.950 . S
C745 C740 1.363 . S
C745 C744 1.415 . S
H746 C743 0.999 . S
H747 C728 0.913 . S
H748 C766 0.951 . S
H749 C768 0.951 . S
H750 C770 0.950 . S
H751 C771 0.950 . S
H752 C773 0.950 . S
H753 C776 0.950 . S
H754 C777 0.950 . S
H755 C779 0.950 . S
H756 C780 0.950 . S
H757 C781 0.951 . S
H758 C783 0.951 . S
H759 C785 0.950 . S
H760 C786 0.950 . S
H761 C788 0.950 . S
H762 C791 0.950 . S
H763 C792 0.950 . S
H764 C794 0.950 . S
H765 C795 0.950 . S
C766 H748 0.951 . S
C766 C767 1.366 . S
C766 C768 1.388 . S
C767 C766 1.366 . S
C767 C771 1.385 . S
C768 H749 0.951 . S
C768 C766 1.388 . S
C768 C769 1.366 . S
C769 C768 1.366 . S
C769 C770 1.414 . S
C769 C772 1.499 . S
C770 H750 0.950 . S
C770 C769 1.414 . S
C770 C771 1.374 . S
C771 H751 0.950 . S
C771 C767 1.385 . S
C771 C770 1.374 . S
C772 C769 1.499 . S
C772 C773 1.373 . S
C772 C774 1.363 1_565 S
C773 H752 0.950 . S
C773 C772 1.373 . S
C773 C789 1.402 . S
C774 C772 1.363 1_545 S
C774 C775 1.527 . S
C774 C788 1.402 . S
C775 C774 1.527 . S
C775 C776 1.397 1_545 S
C775 C780 1.363 . S
C776 H753 0.950 . S
C776 C775 1.397 1_565 S
C776 C777 1.334 . S
C777 H754 0.950 . S
C777 C776 1.334 . S
C777 C778 1.287 1_565 S
C778 C777 1.287 1_545 S
C778 C779 1.524 . S
C778 H797 0.913 . S
C779 H755 0.950 . S
C779 C778 1.524 . S
C779 C780 1.415 . S
C780 H756 0.950 . S
C780 C775 1.363 . S
C780 C779 1.415 . S
C781 H757 0.951 . S
C781 C782 1.366 . S
C781 C783 1.388 . S
C782 C781 1.366 . S
C782 C786 1.385 . S
C783 H758 0.951 . S
C783 C781 1.388 . S
C783 C784 1.366 . S
C784 C783 1.366 . S
C784 C785 1.414 . S
C784 C787 1.499 . S
C785 H759 0.950 . S
C785 C784 1.414 . S
C785 C786 1.374 . S
C786 H760 0.950 . S
C786 C782 1.385 . S
C786 C785 1.374 . S
C787 C784 1.499 . S
C787 C788 1.373 . S
C787 C789 1.363 1_545 S
C788 H761 0.950 . S
C788 C774 1.402 . S
C788 C787 1.373 . S
C789 C773 1.402 . S
C789 C787 1.363 1_565 S
C789 C790 1.527 . S
C790 C789 1.527 . S
C790 C791 1.397 1_565 S
C790 C795 1.363 . S
C791 H762 0.950 . S
C791 C790 1.397 1_545 S
C791 C792 1.334 . S
C792 H763 0.950 . S
C792 C791 1.334 . S
C792 C793 1.287 1_545 S
C793 C792 1.287 1_565 S
C793 C794 1.524 . S
C793 H796 0.999 . S
C794 H764 0.950 . S
C794 C793 1.524 . S
C794 C795 1.415 . S
C795 H765 0.950 . S
C795 C790 1.363 . S
C795 C794 1.415 . S
H796 C793 0.999 . S
H797 C778 0.913 . S
H798 C816 0.951 . S
H799 C818 0.951 . S
H800 C820 0.950 . S
H801 C821 0.950 . S
H802 C823 0.950 . S
H803 C826 0.950 . S
H804 C827 0.950 . S
H805 C829 0.950 . S
H806 C830 0.950 . S
H807 C831 0.951 . S
H808 C833 0.951 . S
H809 C835 0.950 . S
H810 C836 0.950 . S
H811 C838 0.950 . S
H812 C841 0.950 . S
H813 C842 0.950 . S
H814 C844 0.950 . S
H815 C845 0.950 . S
C816 H798 0.951 . S
C816 C817 1.366 . S
C816 C818 1.388 . S
C817 C816 1.366 . S
C817 C821 1.385 . S
C818 H799 0.951 . S
C818 C816 1.388 . S
C818 C819 1.366 . S
C819 C818 1.366 . S
C819 C820 1.414 . S
C819 C822 1.499 . S
C820 H800 0.950 . S
C820 C819 1.414 . S
C820 C821 1.374 . S
C821 H801 0.950 . S
C821 C817 1.385 . S
C821 C820 1.374 . S
C822 C819 1.499 . S
C822 C823 1.373 . S
C822 C824 1.389 . S
C823 H802 0.950 . S
C823 C822 1.373 . S
C823 C839 1.377 1_556 S
C824 C822 1.389 . S
C824 C825 1.524 . S
C824 C838 1.377 1_556 S
C825 C824 1.524 . S
C825 C826 1.397 . S
C825 C830 1.363 . S
C826 H803 0.950 . S
C826 C825 1.397 . S
C826 C827 1.334 . S
C827 H804 0.950 . S
C827 C826 1.334 . S
C827 C828 1.287 . S
C828 C827 1.287 . S
C828 C829 1.524 . S
C828 H847 0.913 . S
C829 H805 0.950 . S
C829 C828 1.524 . S
C829 C830 1.415 . S
C830 H806 0.950 . S
C830 C825 1.363 . S
C830 C829 1.415 . S
C831 H807 0.951 . S
C831 C832 1.366 . S
C831 C833 1.388 . S
C832 C831 1.366 . S
C832 C836 1.385 . S
C833 H808 0.951 . S
C833 C831 1.388 . S
C833 C834 1.366 . S
C834 C833 1.366 . S
C834 C835 1.414 . S
C834 C837 1.499 . S
C835 H809 0.950 . S
C835 C834 1.414 . S
C835 C836 1.374 . S
C836 H810 0.950 . S
C836 C832 1.385 . S
C836 C835 1.374 . S
C837 C834 1.499 . S
C837 C838 1.373 . S
C837 C839 1.389 . S
C838 H811 0.950 . S
C838 C824 1.377 1_554 S
C838 C837 1.373 . S
C839 C823 1.377 1_554 S
C839 C837 1.389 . S
C839 C840 1.524 . S
C840 C839 1.524 . S
C840 C841 1.397 . S
C840 C845 1.363 . S
C841 H812 0.950 . S
C841 C840 1.397 . S
C841 C842 1.334 . S
C842 H813 0.950 . S
C842 C841 1.334 . S
C842 C843 1.287 . S
C843 C842 1.287 . S
C843 C844 1.524 . S
C843 H846 0.999 . S
C844 H814 0.950 . S
C844 C843 1.524 . S
C844 C845 1.415 . S
C845 H815 0.950 . S
C845 C840 1.363 . S
C845 C844 1.415 . S
H846 C843 0.999 . S
H847 C828 0.913 . S
H848 C866 0.951 . S
H849 C868 0.951 . S
H850 C870 0.950 . S
H851 C871 0.950 . S
H852 C873 0.950 . S
H853 C876 0.950 . S
H854 C877 0.950 . S
H855 C879 0.950 . S
H856 C880 0.950 . S
H857 C881 0.951 . S
H858 C883 0.951 . S
H859 C885 0.950 . S
H860 C886 0.950 . S
H861 C888 0.950 . S
H862 C891 0.950 . S
H863 C892 0.950 . S
H864 C894 0.950 . S
H865 C895 0.950 . S
C866 H848 0.951 . S
C866 C867 1.366 . S
C866 C868 1.388 . S
C867 C866 1.366 . S
C867 C871 1.385 . S
C868 H849 0.951 . S
C868 C866 1.388 . S
C868 C869 1.366 . S
C869 C868 1.366 . S
C869 C870 1.414 . S
C869 C872 1.499 . S
C870 H850 0.950 . S
C870 C869 1.414 . S
C870 C871 1.374 . S
C871 H851 0.950 . S
C871 C867 1.385 . S
C871 C870 1.374 . S
C872 C869 1.499 . S
C872 C873 1.373 . S
C872 C874 1.389 . S
C873 H852 0.950 . S
C873 C872 1.373 . S
C873 C889 1.377 . S
C874 C872 1.389 . S
C874 C875 1.524 . S
C874 C888 1.377 . S
C875 C874 1.524 . S
C875 C876 1.397 . S
C875 C880 1.363 . S
C876 H853 0.950 . S
C876 C875 1.397 . S
C876 C877 1.334 . S
C877 H854 0.950 . S
C877 C876 1.334 . S
C877 C878 1.287 . S
C878 C877 1.287 . S
C878 C879 1.524 . S
C878 H897 0.913 . S
C879 H855 0.950 . S
C879 C878 1.524 . S
C879 C880 1.415 . S
C880 H856 0.950 . S
C880 C875 1.363 . S
C880 C879 1.415 . S
C881 H857 0.951 . S
C881 C882 1.366 . S
C881 C883 1.388 . S
C882 C881 1.366 . S
C882 C886 1.385 . S
C883 H858 0.951 . S
C883 C881 1.388 . S
C883 C884 1.366 . S
C884 C883 1.366 . S
C884 C885 1.414 . S
C884 C887 1.499 . S
C885 H859 0.950 . S
C885 C884 1.414 . S
C885 C886 1.374 . S
C886 H860 0.950 . S
C886 C882 1.385 . S
C886 C885 1.374 . S
C887 C884 1.499 . S
C887 C888 1.373 . S
C887 C889 1.389 . S
C888 H861 0.950 . S
C888 C874 1.377 . S
C888 C887 1.373 . S
C889 C873 1.377 . S
C889 C887 1.389 . S
C889 C890 1.524 . S
C890 C889 1.524 . S
C890 C891 1.397 . S
C890 C895 1.363 . S
C891 H862 0.950 . S
C891 C890 1.397 . S
C891 C892 1.334 . S
C892 H863 0.950 . S
C892 C891 1.334 . S
C892 C893 1.287 . S
C893 C892 1.287 . S
C893 C894 1.524 . S
C893 H896 0.999 . S
C894 H864 0.950 . S
C894 C893 1.524 . S
C894 C895 1.415 . S
C895 H865 0.950 . S
C895 C890 1.363 . S
C895 C894 1.415 . S
H896 C893 0.999 . S
H897 C878 0.913 . S
H898 C916 0.951 . S
H899 C918 0.951 . S
H900 C920 0.950 . S
H901 C921 0.950 . S
H902 C923 0.950 . S
H903 C926 0.950 . S
H904 C927 0.950 . S
H905 C929 0.950 . S
H906 C930 0.950 . S
H907 C931 0.951 . S
H908 C933 0.951 . S
H909 C935 0.950 . S
H910 C936 0.950 . S
H911 C938 0.950 . S
H912 C941 0.950 . S
H913 C942 0.950 . S
H914 C944 0.950 . S
H915 C945 0.950 . S
C916 H898 0.951 . S
C916 C917 1.366 . S
C916 C918 1.388 . S
C917 C916 1.366 . S
C917 C921 1.385 . S
C918 H899 0.951 . S
C918 C916 1.388 . S
C918 C919 1.366 . S
C919 C918 1.366 . S
C919 C920 1.414 . S
C919 C922 1.499 . S
C920 H900 0.950 . S
C920 C919 1.414 . S
C920 C921 1.374 . S
C921 H901 0.950 . S
C921 C917 1.385 . S
C921 C920 1.374 . S
C922 C919 1.499 . S
C922 C923 1.373 1_556 S
C922 C924 1.389 . S
C923 H902 0.950 . S
C923 C922 1.373 1_554 S
C923 C939 1.377 . S
C924 C922 1.389 . S
C924 C925 1.524 . S
C924 C938 1.377 . S
C925 C924 1.524 . S
C925 C926 1.397 . S
C925 C930 1.363 . S
C926 H903 0.950 . S
C926 C925 1.397 . S
C926 C927 1.334 . S
C927 H904 0.950 . S
C927 C926 1.334 . S
C927 C928 1.287 . S
C928 C927 1.287 . S
C928 C929 1.524 . S
C928 H947 0.913 . S
C929 H905 0.950 . S
C929 C928 1.524 . S
C929 C930 1.415 . S
C930 H906 0.950 . S
C930 C925 1.363 . S
C930 C929 1.415 . S
C931 H907 0.951 . S
C931 C932 1.366 . S
C931 C933 1.388 . S
C932 C931 1.366 . S
C932 C936 1.385 . S
C933 H908 0.951 . S
C933 C931 1.388 . S
C933 C934 1.366 . S
C934 C933 1.366 . S
C934 C935 1.414 . S
C934 C937 1.499 . S
C935 H909 0.950 . S
C935 C934 1.414 . S
C935 C936 1.374 . S
C936 H910 0.950 . S
C936 C932 1.385 . S
C936 C935 1.374 . S
C937 C934 1.499 . S
C937 C938 1.373 1_554 S
C937 C939 1.389 . S
C938 H911 0.950 . S
C938 C924 1.377 . S
C938 C937 1.373 1_556 S
C939 C923 1.377 . S
C939 C937 1.389 . S
C939 C940 1.524 . S
C940 C939 1.524 . S
C940 C941 1.397 . S
C940 C945 1.363 . S
C941 H912 0.950 . S
C941 C940 1.397 . S
C941 C942 1.334 . S
C942 H913 0.950 . S
C942 C941 1.334 . S
C942 C943 1.287 . S
C943 C942 1.287 . S
C943 C944 1.524 . S
C943 H946 0.999 . S
C944 H914 0.950 . S
C944 C943 1.524 . S
C944 C945 1.415 . S
C945 H915 0.950 . S
C945 C940 1.363 . S
C945 C944 1.415 . S
H946 C943 0.999 . S
H947 C928 0.913 . S
H948 C966 0.951 . S
H949 C968 0.951 . S
H950 C970 0.950 . S
H951 C971 0.950 . S
H952 C973 0.950 . S
H953 C976 0.950 . S
H954 C977 0.950 . S
H955 C979 0.950 . S
H956 C980 0.950 . S
H957 C981 0.951 . S
H958 C983 0.951 . S
H959 C985 0.950 . S
H960 C986 0.950 . S
H961 C988 0.950 . S
H962 C991 0.950 . S
H963 C992 0.950 . S
H964 C994 0.950 . S
H965 C995 0.950 . S
C966 H948 0.951 . S
C966 C967 1.366 . S
C966 C968 1.388 . S
C967 C966 1.366 . S
C967 C971 1.385 . S
C968 H949 0.951 . S
C968 C966 1.388 . S
C968 C969 1.366 . S
C969 C968 1.366 . S
C969 C970 1.414 . S
C969 C972 1.499 . S
C970 H950 0.950 . S
C970 C969 1.414 . S
C970 C971 1.374 . S
C971 H951 0.950 . S
C971 C967 1.385 . S
C971 C970 1.374 . S
C972 C969 1.499 . S
C972 C973 1.373 . S
C972 C974 1.389 . S
C973 H952 0.950 . S
C973 C972 1.373 . S
C973 C989 1.377 . S
C974 C972 1.389 . S
C974 C975 1.524 . S
C974 C988 1.377 . S
C975 C974 1.524 . S
C975 C976 1.397 . S
C975 C980 1.363 . S
C976 H953 0.950 . S
C976 C975 1.397 . S
C976 C977 1.334 . S
C977 H954 0.950 . S
C977 C976 1.334 . S
C977 C978 1.287 . S
C978 C977 1.287 . S
C978 C979 1.524 . S
C978 H997 0.913 . S
C979 H955 0.950 . S
C979 C978 1.524 . S
C979 C980 1.415 . S
C980 H956 0.950 . S
C980 C975 1.363 . S
C980 C979 1.415 . S
C981 H957 0.951 . S
C981 C982 1.366 . S
C981 C983 1.388 . S
C982 C981 1.366 . S
C982 C986 1.385 . S
C983 H958 0.951 . S
C983 C981 1.388 . S
C983 C984 1.366 . S
C984 C983 1.366 . S
C984 C985 1.414 . S
C984 C987 1.499 . S
C985 H959 0.950 . S
C985 C984 1.414 . S
C985 C986 1.374 . S
C986 H960 0.950 . S
C986 C982 1.385 . S
C986 C985 1.374 . S
C987 C984 1.499 . S
C987 C988 1.373 . S
C987 C989 1.389 . S
C988 H961 0.950 . S
C988 C974 1.377 . S
C988 C987 1.373 . S
C989 C973 1.377 . S
C989 C987 1.389 . S
C989 C990 1.524 . S
C990 C989 1.524 . S
C990 C991 1.397 . S
C990 C995 1.363 . S
C991 H962 0.950 . S
C991 C990 1.397 . S
C991 C992 1.334 . S
C992 H963 0.950 . S
C992 C991 1.334 . S
C992 C993 1.287 . S
C993 C992 1.287 . S
C993 C994 1.524 . S
C993 H996 0.999 . S
C994 H964 0.950 . S
C994 C993 1.524 . S
C994 C995 1.415 . S
C995 H965 0.950 . S
C995 C990 1.363 . S
C995 C994 1.415 . S
H996 C993 0.999 . S
H997 C978 0.913 . S
H998 C1016 0.951 . S
H999 C1018 0.951 . S
H1000 C1020 0.950 . S
H1001 C1021 0.950 . S
H1002 C1023 0.950 . S
H1003 C1026 0.950 . S
H1004 C1027 0.950 . S
H1005 C1029 0.950 . S
H1006 C1030 0.950 . S
H1007 C1031 0.951 . S
H1008 C1033 0.951 . S
H1009 C1035 0.950 . S
H1010 C1036 0.950 . S
H1011 C1038 0.950 . S
H1012 C1041 0.950 . S
H1013 C1042 0.950 . S
H1014 C1044 0.950 . S
H1015 C1045 0.950 . S
C1016 H998 0.951 . S
C1016 C1017 1.366 . S
C1016 C1018 1.388 . S
C1017 C1016 1.366 . S
C1017 C1021 1.385 . S
C1018 H999 0.951 . S
C1018 C1016 1.388 . S
C1018 C1019 1.366 . S
C1019 C1018 1.366 . S
C1019 C1020 1.414 . S
C1019 C1022 1.499 . S
C1020 H1000 0.950 . S
C1020 C1019 1.414 . S
C1020 C1021 1.374 . S
C1021 H1001 0.950 . S
C1021 C1017 1.385 . S
C1021 C1020 1.374 . S
C1022 C1019 1.499 . S
C1022 C1023 1.373 . S
C1022 C1024 1.389 . S
C1023 H1002 0.950 . S
C1023 C1022 1.373 . S
C1023 C1039 1.377 . S
C1024 C1022 1.389 . S
C1024 C1025 1.524 . S
C1024 C1038 1.377 . S
C1025 C1024 1.524 . S
C1025 C1026 1.397 . S
C1025 C1030 1.363 . S
C1026 H1003 0.950 . S
C1026 C1025 1.397 . S
C1026 C1027 1.334 . S
C1027 H1004 0.950 . S
C1027 C1026 1.334 . S
C1027 C1028 1.287 . S
C1028 C1027 1.287 . S
C1028 C1029 1.524 . S
C1028 H1047 0.913 . S
C1029 H1005 0.950 . S
C1029 C1028 1.524 . S
C1029 C1030 1.415 . S
C1030 H1006 0.950 . S
C1030 C1025 1.363 . S
C1030 C1029 1.415 . S
C1031 H1007 0.951 . S
C1031 C1032 1.366 . S
C1031 C1033 1.388 . S
C1032 C1031 1.366 . S
C1032 C1036 1.385 . S
C1033 H1008 0.951 . S
C1033 C1031 1.388 . S
C1033 C1034 1.366 . S
C1034 C1033 1.366 . S
C1034 C1035 1.414 . S
C1034 C1037 1.499 . S
C1035 H1009 0.950 . S
C1035 C1034 1.414 . S
C1035 C1036 1.374 . S
C1036 H1010 0.950 . S
C1036 C1032 1.385 . S
C1036 C1035 1.374 . S
C1037 C1034 1.499 . S
C1037 C1038 1.373 . S
C1037 C1039 1.389 . S
C1038 H1011 0.950 . S
C1038 C1024 1.377 . S
C1038 C1037 1.373 . S
C1039 C1023 1.377 . S
C1039 C1037 1.389 . S
C1039 C1040 1.524 . S
C1040 C1039 1.524 . S
C1040 C1041 1.397 . S
C1040 C1045 1.363 . S
C1041 H1012 0.950 . S
C1041 C1040 1.397 . S
C1041 C1042 1.334 . S
C1042 H1013 0.950 . S
C1042 C1041 1.334 . S
C1042 C1043 1.287 . S
C1043 C1042 1.287 . S
C1043 C1044 1.524 . S
C1043 H1046 0.999 . S
C1044 H1014 0.950 . S
C1044 C1043 1.524 . S
C1044 C1045 1.415 . S
C1045 H1015 0.950 . S
C1045 C1040 1.363 . S
C1045 C1044 1.415 . S
H1046 C1043 0.999 . S
H1047 C1028 0.913 . S
H1048 C1066 0.951 . S
H1049 C1068 0.951 . S
H1050 C1070 0.950 . S
H1051 C1071 0.950 . S
H1052 C1073 0.950 . S
H1053 C1076 0.950 . S
H1054 C1077 0.950 . S
H1055 C1079 0.950 . S
H1056 C1080 0.950 . S
H1057 C1081 0.951 . S
H1058 C1083 0.951 . S
H1059 C1085 0.950 . S
H1060 C1086 0.950 . S
H1061 C1088 0.950 . S
H1062 C1091 0.950 . S
H1063 C1092 0.950 . S
H1064 C1094 0.950 . S
H1065 C1095 0.950 . S
C1066 H1048 0.951 . S
C1066 C1067 1.366 . S
C1066 C1068 1.388 . S
C1067 C1066 1.366 . S
C1067 C1071 1.385 . S
C1068 H1049 0.951 . S
C1068 C1066 1.388 . S
C1068 C1069 1.366 . S
C1069 C1068 1.366 . S
C1069 C1070 1.414 . S
C1069 C1072 1.499 . S
C1070 H1050 0.950 . S
C1070 C1069 1.414 . S
C1070 C1071 1.374 . S
C1071 H1051 0.950 . S
C1071 C1067 1.385 . S
C1071 C1070 1.374 . S
C1072 C1069 1.499 . S
C1072 C1073 1.373 . S
C1072 C1074 1.389 . S
C1073 H1052 0.950 . S
C1073 C1072 1.373 . S
C1073 C1089 1.377 . S
C1074 C1072 1.389 . S
C1074 C1075 1.524 . S
C1074 C1088 1.377 . S
C1075 C1074 1.524 . S
C1075 C1076 1.397 . S
C1075 C1080 1.363 . S
C1076 H1053 0.950 . S
C1076 C1075 1.397 . S
C1076 C1077 1.334 . S
C1077 H1054 0.950 . S
C1077 C1076 1.334 . S
C1077 C1078 1.287 . S
C1078 C1077 1.287 . S
C1078 C1079 1.524 . S
C1078 H1097 0.913 . S
C1079 H1055 0.950 . S
C1079 C1078 1.524 . S
C1079 C1080 1.415 . S
C1080 H1056 0.950 . S
C1080 C1075 1.363 . S
C1080 C1079 1.415 . S
C1081 H1057 0.951 . S
C1081 C1082 1.366 . S
C1081 C1083 1.388 . S
C1082 C1081 1.366 . S
C1082 C1086 1.385 . S
C1083 H1058 0.951 . S
C1083 C1081 1.388 . S
C1083 C1084 1.366 . S
C1084 C1083 1.366 . S
C1084 C1085 1.414 . S
C1084 C1087 1.499 . S
C1085 H1059 0.950 . S
C1085 C1084 1.414 . S
C1085 C1086 1.374 . S
C1086 H1060 0.950 . S
C1086 C1082 1.385 . S
C1086 C1085 1.374 . S
C1087 C1084 1.499 . S
C1087 C1088 1.373 . S
C1087 C1089 1.389 . S
C1088 H1061 0.950 . S
C1088 C1074 1.377 . S
C1088 C1087 1.373 . S
C1089 C1073 1.377 . S
C1089 C1087 1.389 . S
C1089 C1090 1.524 . S
C1090 C1089 1.524 . S
C1090 C1091 1.397 . S
C1090 C1095 1.363 . S
C1091 H1062 0.950 . S
C1091 C1090 1.397 . S
C1091 C1092 1.334 . S
C1092 H1063 0.950 . S
C1092 C1091 1.334 . S
C1092 C1093 1.287 . S
C1093 C1092 1.287 . S
C1093 C1094 1.524 . S
C1093 H1096 0.999 . S
C1094 H1064 0.950 . S
C1094 C1093 1.524 . S
C1094 C1095 1.415 . S
C1095 H1065 0.950 . S
C1095 C1090 1.363 . S
C1095 C1094 1.415 . S
H1096 C1093 0.999 . S
H1097 C1078 0.913 . S
H1098 C1116 0.951 . S
H1099 C1118 0.951 . S
H1100 C1120 0.950 . S
H1101 C1121 0.950 . S
H1102 C1123 0.950 . S
H1103 C1126 0.950 . S
H1104 C1127 0.950 . S
H1105 C1129 0.950 . S
H1106 C1130 0.950 . S
H1107 C1131 0.951 . S
H1108 C1133 0.951 . S
H1109 C1135 0.950 . S
H1110 C1136 0.950 . S
H1111 C1138 0.950 . S
H1112 C1141 0.950 . S
H1113 C1142 0.950 . S
H1114 C1144 0.950 . S
H1115 C1145 0.950 . S
C1116 H1098 0.951 . S
C1116 C1117 1.366 . S
C1116 C1118 1.388 . S
C1117 C1116 1.366 . S
C1117 C1121 1.385 . S
C1118 H1099 0.951 . S
C1118 C1116 1.388 . S
C1118 C1119 1.366 . S
C1119 C1118 1.366 . S
C1119 C1120 1.414 . S
C1119 C1122 1.499 . S
C1120 H1100 0.950 . S
C1120 C1119 1.414 . S
C1120 C1121 1.374 . S
C1121 H1101 0.950 . S
C1121 C1117 1.385 . S
C1121 C1120 1.374 . S
C1122 C1119 1.499 . S
C1122 C1123 1.373 1_554 S
C1122 C1124 1.389 . S
C1123 H1102 0.950 . S
C1123 C1122 1.373 1_556 S
C1123 C1139 1.377 . S
C1124 C1122 1.389 . S
C1124 C1125 1.524 . S
C1124 C1138 1.377 . S
C1125 C1124 1.524 . S
C1125 C1126 1.397 . S
C1125 C1130 1.363 . S
C1126 H1103 0.950 . S
C1126 C1125 1.397 . S
C1126 C1127 1.334 . S
C1127 H1104 0.950 . S
C1127 C1126 1.334 . S
C1127 C1128 1.287 . S
C1128 C1127 1.287 . S
C1128 C1129 1.524 . S
C1128 H1147 0.913 . S
C1129 H1105 0.950 . S
C1129 C1128 1.524 . S
C1129 C1130 1.415 . S
C1130 H1106 0.950 . S
C1130 C1125 1.363 . S
C1130 C1129 1.415 . S
C1131 H1107 0.951 . S
C1131 C1132 1.366 . S
C1131 C1133 1.388 . S
C1132 C1131 1.366 . S
C1132 C1136 1.385 . S
C1133 H1108 0.951 . S
C1133 C1131 1.388 . S
C1133 C1134 1.366 . S
C1134 C1133 1.366 . S
C1134 C1135 1.414 . S
C1134 C1137 1.499 . S
C1135 H1109 0.950 . S
C1135 C1134 1.414 . S
C1135 C1136 1.374 . S
C1136 H1110 0.950 . S
C1136 C1132 1.385 . S
C1136 C1135 1.374 . S
C1137 C1134 1.499 . S
C1137 C1138 1.373 1_556 S
C1137 C1139 1.389 . S
C1138 H1111 0.950 . S
C1138 C1124 1.377 . S
C1138 C1137 1.373 1_554 S
C1139 C1123 1.377 . S
C1139 C1137 1.389 . S
C1139 C1140 1.524 . S
C1140 C1139 1.524 . S
C1140 C1141 1.397 . S
C1140 C1145 1.363 . S
C1141 H1112 0.950 . S
C1141 C1140 1.397 . S
C1141 C1142 1.334 . S
C1142 H1113 0.950 . S
C1142 C1141 1.334 . S
C1142 C1143 1.287 . S
C1143 C1142 1.287 . S
C1143 C1144 1.524 . S
C1143 H1146 0.999 . S
C1144 H1114 0.950 . S
C1144 C1143 1.524 . S
C1144 C1145 1.415 . S
C1145 H1115 0.950 . S
C1145 C1140 1.363 . S
C1145 C1144 1.415 . S
H1146 C1143 0.999 . S
H1147 C1128 0.913 . S
H1148 C1166 0.951 . S
H1149 C1168 0.951 . S
H1150 C1170 0.950 . S
H1151 C1171 0.950 . S
H1152 C1173 0.950 . S
H1153 C1176 0.950 . S
H1154 C1177 0.950 . S
H1155 C1179 0.950 . S
H1156 C1180 0.950 . S
H1157 C1181 0.951 . S
H1158 C1183 0.951 . S
H1159 C1185 0.950 . S
H1160 C1186 0.950 . S
H1161 C1188 0.950 . S
H1162 C1191 0.950 . S
H1163 C1192 0.950 . S
H1164 C1194 0.950 . S
H1165 C1195 0.950 . S
C1166 H1148 0.951 . S
C1166 C1167 1.366 . S
C1166 C1168 1.388 . S
C1167 C1166 1.366 . S
C1167 C1171 1.385 . S
C1168 H1149 0.951 . S
C1168 C1166 1.388 . S
C1168 C1169 1.366 . S
C1169 C1168 1.366 . S
C1169 C1170 1.414 . S
C1169 C1172 1.499 . S
C1170 H1150 0.950 . S
C1170 C1169 1.414 . S
C1170 C1171 1.374 . S
C1171 H1151 0.950 . S
C1171 C1167 1.385 . S
C1171 C1170 1.374 . S
C1172 C1169 1.499 . S
C1172 C1173 1.373 . S
C1172 C1174 1.389 . S
C1173 H1152 0.950 . S
C1173 C1172 1.373 . S
C1173 C1189 1.377 . S
C1174 C1172 1.389 . S
C1174 C1175 1.524 . S
C1174 C1188 1.377 . S
C1175 C1174 1.524 . S
C1175 C1176 1.397 . S
C1175 C1180 1.363 . S
C1176 H1153 0.950 . S
C1176 C1175 1.397 . S
C1176 C1177 1.334 . S
C1177 H1154 0.950 . S
C1177 C1176 1.334 . S
C1177 C1178 1.287 . S
C1178 C1177 1.287 . S
C1178 C1179 1.524 . S
C1178 H1197 0.913 . S
C1179 H1155 0.950 . S
C1179 C1178 1.524 . S
C1179 C1180 1.415 . S
C1180 H1156 0.950 . S
C1180 C1175 1.363 . S
C1180 C1179 1.415 . S
C1181 H1157 0.951 . S
C1181 C1182 1.366 . S
C1181 C1183 1.388 . S
C1182 C1181 1.366 . S
C1182 C1186 1.385 . S
C1183 H1158 0.951 . S
C1183 C1181 1.388 . S
C1183 C1184 1.366 . S
C1184 C1183 1.366 . S
C1184 C1185 1.414 . S
C1184 C1187 1.499 . S
C1185 H1159 0.950 . S
C1185 C1184 1.414 . S
C1185 C1186 1.374 . S
C1186 H1160 0.950 . S
C1186 C1182 1.385 . S
C1186 C1185 1.374 . S
C1187 C1184 1.499 . S
C1187 C1188 1.373 . S
C1187 C1189 1.389 . S
C1188 H1161 0.950 . S
C1188 C1174 1.377 . S
C1188 C1187 1.373 . S
C1189 C1173 1.377 . S
C1189 C1187 1.389 . S
C1189 C1190 1.524 . S
C1190 C1189 1.524 . S
C1190 C1191 1.397 . S
C1190 C1195 1.363 . S
C1191 H1162 0.950 . S
C1191 C1190 1.397 . S
C1191 C1192 1.334 . S
C1192 H1163 0.950 . S
C1192 C1191 1.334 . S
C1192 C1193 1.287 . S
C1193 C1192 1.287 . S
C1193 C1194 1.524 . S
C1193 H1196 0.999 . S
C1194 H1164 0.950 . S
C1194 C1193 1.524 . S
C1194 C1195 1.415 . S
C1195 H1165 0.950 . S
C1195 C1190 1.363 . S
C1195 C1194 1.415 . S
H1196 C1193 0.999 . S
H1197 C1178 0.913 . S
H1198 C1216 0.951 . S
H1199 C1218 0.951 . S
H1200 C1220 0.950 . S
H1201 C1221 0.950 . S
H1202 C1223 0.950 . S
H1203 C1226 0.950 . S
H1204 C1227 0.950 . S
H1205 C1229 0.950 . S
H1206 C1230 0.950 . S
H1207 C1231 0.951 . S
H1208 C1233 0.951 . S
H1209 C1235 0.950 . S
H1210 C1236 0.950 . S
H1211 C1238 0.950 . S
H1212 C1241 0.950 . S
H1213 C1242 0.950 . S
H1214 C1244 0.950 . S
H1215 C1245 0.950 . S
C1216 H1198 0.951 . S
C1216 C1217 1.366 . S
C1216 C1218 1.388 . S
C1217 C1216 1.366 . S
C1217 C1221 1.385 . S
C1218 H1199 0.951 . S
C1218 C1216 1.388 . S
C1218 C1219 1.366 . S
C1219 C1218 1.366 . S
C1219 C1220 1.414 . S
C1219 C1222 1.499 . S
C1220 H1200 0.950 . S
C1220 C1219 1.414 . S
C1220 C1221 1.374 . S
C1221 H1201 0.950 . S
C1221 C1217 1.385 . S
C1221 C1220 1.374 . S
C1222 C1219 1.499 . S
C1222 C1223 1.373 . S
C1222 C1224 1.389 . S
C1223 H1202 0.950 . S
C1223 C1222 1.373 . S
C1223 C1239 1.377 . S
C1224 C1222 1.389 . S
C1224 C1225 1.524 . S
C1224 C1238 1.377 . S
C1225 C1224 1.524 . S
C1225 C1226 1.397 . S
C1225 C1230 1.363 . S
C1226 H1203 0.950 . S
C1226 C1225 1.397 . S
C1226 C1227 1.334 . S
C1227 H1204 0.950 . S
C1227 C1226 1.334 . S
C1227 C1228 1.287 . S
C1228 C1227 1.287 . S
C1228 C1229 1.524 . S
C1228 H1247 0.913 . S
C1229 H1205 0.950 . S
C1229 C1228 1.524 . S
C1229 C1230 1.415 . S
C1230 H1206 0.950 . S
C1230 C1225 1.363 . S
C1230 C1229 1.415 . S
C1231 H1207 0.951 . S
C1231 C1232 1.366 . S
C1231 C1233 1.388 . S
C1232 C1231 1.366 . S
C1232 C1236 1.385 . S
C1233 H1208 0.951 . S
C1233 C1231 1.388 . S
C1233 C1234 1.366 . S
C1234 C1233 1.366 . S
C1234 C1235 1.414 . S
C1234 C1237 1.499 . S
C1235 H1209 0.950 . S
C1235 C1234 1.414 . S
C1235 C1236 1.374 . S
C1236 H1210 0.950 . S
C1236 C1232 1.385 . S
C1236 C1235 1.374 . S
C1237 C1234 1.499 . S
C1237 C1238 1.373 . S
C1237 C1239 1.389 . S
C1238 H1211 0.950 . S
C1238 C1224 1.377 . S
C1238 C1237 1.373 . S
C1239 C1223 1.377 . S
C1239 C1237 1.389 . S
C1239 C1240 1.524 . S
C1240 C1239 1.524 . S
C1240 C1241 1.397 . S
C1240 C1245 1.363 . S
C1241 H1212 0.950 . S
C1241 C1240 1.397 . S
C1241 C1242 1.334 . S
C1242 H1213 0.950 . S
C1242 C1241 1.334 . S
C1242 C1243 1.287 . S
C1243 C1242 1.287 . S
C1243 C1244 1.524 . S
C1243 H1246 0.999 . S
C1244 H1214 0.950 . S
C1244 C1243 1.524 . S
C1244 C1245 1.415 . S
C1245 H1215 0.950 . S
C1245 C1240 1.363 . S
C1245 C1244 1.415 . S
H1246 C1243 0.999 . S
H1247 C1228 0.913 . S
H1248 C1266 0.951 . S
H1249 C1268 0.951 . S
H1250 C1270 0.950 . S
H1251 C1271 0.950 . S
H1252 C1273 0.950 . S
H1253 C1276 0.950 . S
H1254 C1277 0.950 . S
H1255 C1279 0.950 . S
H1256 C1280 0.950 . S
H1257 C1281 0.951 . S
H1258 C1283 0.951 . S
H1259 C1285 0.950 . S
H1260 C1286 0.950 . S
H1261 C1288 0.950 . S
H1262 C1291 0.950 . S
H1263 C1292 0.950 . S
H1264 C1294 0.950 . S
H1265 C1295 0.950 . S
C1266 H1248 0.951 . S
C1266 C1267 1.366 . S
C1266 C1268 1.388 . S
C1267 C1266 1.366 . S
C1267 C1271 1.385 . S
C1268 H1249 0.951 . S
C1268 C1266 1.388 . S
C1268 C1269 1.366 . S
C1269 C1268 1.366 . S
C1269 C1270 1.414 . S
C1269 C1272 1.499 . S
C1270 H1250 0.950 . S
C1270 C1269 1.414 . S
C1270 C1271 1.374 . S
C1271 H1251 0.950 . S
C1271 C1267 1.385 . S
C1271 C1270 1.374 . S
C1272 C1269 1.499 . S
C1272 C1273 1.373 . S
C1272 C1274 1.389 . S
C1273 H1252 0.950 . S
C1273 C1272 1.373 . S
C1273 C1289 1.377 . S
C1274 C1272 1.389 . S
C1274 C1275 1.524 . S
C1274 C1288 1.377 . S
C1275 C1274 1.524 . S
C1275 C1276 1.397 . S
C1275 C1280 1.363 . S
C1276 H1253 0.950 . S
C1276 C1275 1.397 . S
C1276 C1277 1.334 . S
C1277 H1254 0.950 . S
C1277 C1276 1.334 . S
C1277 C1278 1.287 . S
C1278 C1277 1.287 . S
C1278 C1279 1.524 . S
C1278 H1297 0.913 . S
C1279 H1255 0.950 . S
C1279 C1278 1.524 . S
C1279 C1280 1.415 . S
C1280 H1256 0.950 . S
C1280 C1275 1.363 . S
C1280 C1279 1.415 . S
C1281 H1257 0.951 . S
C1281 C1282 1.366 . S
C1281 C1283 1.388 . S
C1282 C1281 1.366 . S
C1282 C1286 1.385 . S
C1283 H1258 0.951 . S
C1283 C1281 1.388 . S
C1283 C1284 1.366 . S
C1284 C1283 1.366 . S
C1284 C1285 1.414 . S
C1284 C1287 1.499 . S
C1285 H1259 0.950 . S
C1285 C1284 1.414 . S
C1285 C1286 1.374 . S
C1286 H1260 0.950 . S
C1286 C1282 1.385 . S
C1286 C1285 1.374 . S
C1287 C1284 1.499 . S
C1287 C1288 1.373 . S
C1287 C1289 1.389 . S
C1288 H1261 0.950 . S
C1288 C1274 1.377 . S
C1288 C1287 1.373 . S
C1289 C1273 1.377 . S
C1289 C1287 1.389 . S
C1289 C1290 1.524 . S
C1290 C1289 1.524 . S
C1290 C1291 1.397 . S
C1290 C1295 1.363 . S
C1291 H1262 0.950 . S
C1291 C1290 1.397 . S
C1291 C1292 1.334 . S
C1292 H1263 0.950 . S
C1292 C1291 1.334 . S
C1292 C1293 1.287 . S
C1293 C1292 1.287 . S
C1293 C1294 1.524 . S
C1293 H1296 0.999 . S
C1294 H1264 0.950 . S
C1294 C1293 1.524 . S
C1294 C1295 1.415 . S
C1295 H1265 0.950 . S
C1295 C1290 1.363 . S
C1295 C1294 1.415 . S
H1296 C1293 0.999 . S
H1297 C1278 0.913 . S
H1298 C1316 0.951 . S
H1299 C1318 0.951 . S
H1300 C1320 0.950 . S
H1301 C1321 0.950 . S
H1302 C1323 0.950 1_655 S
H1303 C1326 0.950 . S
H1304 C1327 0.950 . S
H1305 C1329 0.950 . S
H1306 C1330 0.950 . S
H1307 C1331 0.951 . S
H1308 C1333 0.951 . S
H1309 C1335 0.950 . S
H1310 C1336 0.950 . S
H1311 C1338 0.950 . S
H1312 C1341 0.950 . S
H1313 C1342 0.950 . S
H1314 C1344 0.950 . S
H1315 C1345 0.950 . S
C1316 H1298 0.951 . S
C1316 C1317 1.366 . S
C1316 C1318 1.388 . S
C1317 C1316 1.366 . S
C1317 C1321 1.385 . S
C1318 H1299 0.951 . S
C1318 C1316 1.388 . S
C1318 C1319 1.366 . S
C1319 C1318 1.366 . S
C1319 C1320 1.414 . S
C1319 C1322 1.499 . S
C1320 H1300 0.950 . S
C1320 C1319 1.414 . S
C1320 C1321 1.374 . S
C1321 H1301 0.950 . S
C1321 C1317 1.385 . S
C1321 C1320 1.374 . S
C1322 C1319 1.499 . S
C1322 C1323 1.373 1_655 S
C1322 C1324 1.389 1_655 S
C1323 H1302 0.950 1_455 S
C1323 C1322 1.373 1_455 S
C1323 C1339 1.377 . S
C1324 C1322 1.389 1_455 S
C1324 C1325 1.524 1_455 S
C1324 C1338 1.377 . S
C1325 C1324 1.524 1_655 S
C1325 C1326 1.397 . S
C1325 C1330 1.363 1_655 S
C1326 H1303 0.950 . S
C1326 C1325 1.397 . S
C1326 C1327 1.334 . S
C1327 H1304 0.950 . S
C1327 C1326 1.334 . S
C1327 C1328 1.287 . S
C1328 C1327 1.287 . S
C1328 C1329 1.524 . S
C1328 H1347 0.913 . S
C1329 H1305 0.950 . S
C1329 C1328 1.524 . S
C1329 C1330 1.415 1_655 S
C1330 H1306 0.950 . S
C1330 C1325 1.363 1_455 S
C1330 C1329 1.415 1_455 S
C1331 H1307 0.951 . S
C1331 C1332 1.366 . S
C1331 C1333 1.388 . S
C1332 C1331 1.366 . S
C1332 C1336 1.385 . S
C1333 H1308 0.951 . S
C1333 C1331 1.388 . S
C1333 C1334 1.366 . S
C1334 C1333 1.366 . S
C1334 C1335 1.414 . S
C1334 C1337 1.499 . S
C1335 H1309 0.950 . S
C1335 C1334 1.414 . S
C1335 C1336 1.374 . S
C1336 H1310 0.950 . S
C1336 C1332 1.385 . S
C1336 C1335 1.374 . S
C1337 C1334 1.499 . S
C1337 C1338 1.373 . S
C1337 C1339 1.389 . S
C1338 H1311 0.950 . S
C1338 C1324 1.377 . S
C1338 C1337 1.373 . S
C1339 C1323 1.377 . S
C1339 C1337 1.389 . S
C1339 C1340 1.524 . S
C1340 C1339 1.524 . S
C1340 C1341 1.397 . S
C1340 C1345 1.363 . S
C1341 H1312 0.950 . S
C1341 C1340 1.397 . S
C1341 C1342 1.334 . S
C1342 H1313 0.950 . S
C1342 C1341 1.334 . S
C1342 C1343 1.287 . S
C1343 C1342 1.287 . S
C1343 C1344 1.524 . S
C1343 H1346 0.999 . S
C1344 H1314 0.950 . S
C1344 C1343 1.524 . S
C1344 C1345 1.415 . S
C1345 H1315 0.950 . S
C1345 C1340 1.363 . S
C1345 C1344 1.415 . S
H1346 C1343 0.999 . S
H1347 C1328 0.913 . S
H1348 C1366 0.951 . S
H1349 C1368 0.951 . S
H1350 C1370 0.950 . S
H1351 C1371 0.950 . S
H1352 C1373 0.950 . S
H1353 C1376 0.950 . S
H1354 C1377 0.950 . S
H1355 C1379 0.950 . S
H1356 C1380 0.950 . S
H1357 C1381 0.951 . S
H1358 C1383 0.951 . S
H1359 C1385 0.950 . S
H1360 C1386 0.950 . S
H1361 C1388 0.950 . S
H1362 C1391 0.950 . S
H1363 C1392 0.950 . S
H1364 C1394 0.950 . S
H1365 C1395 0.950 . S
C1366 H1348 0.951 . S
C1366 C1367 1.366 . S
C1366 C1368 1.388 . S
C1367 C1366 1.366 . S
C1367 C1371 1.385 . S
C1368 H1349 0.951 . S
C1368 C1366 1.388 . S
C1368 C1369 1.366 . S
C1369 C1368 1.366 . S
C1369 C1370 1.414 . S
C1369 C1372 1.499 . S
C1370 H1350 0.950 . S
C1370 C1369 1.414 . S
C1370 C1371 1.374 . S
C1371 H1351 0.950 . S
C1371 C1367 1.385 . S
C1371 C1370 1.374 . S
C1372 C1369 1.499 . S
C1372 C1373 1.373 . S
C1372 C1374 1.389 . S
C1373 H1352 0.950 . S
C1373 C1372 1.373 . S
C1373 C1389 1.377 . S
C1374 C1372 1.389 . S
C1374 C1375 1.524 . S
C1374 C1388 1.377 . S
C1375 C1374 1.524 . S
C1375 C1376 1.397 . S
C1375 C1380 1.363 . S
C1376 H1353 0.950 . S
C1376 C1375 1.397 . S
C1376 C1377 1.334 . S
C1377 H1354 0.950 . S
C1377 C1376 1.334 . S
C1377 C1378 1.287 . S
C1378 C1377 1.287 . S
C1378 C1379 1.524 . S
C1378 H1397 0.913 . S
C1379 H1355 0.950 . S
C1379 C1378 1.524 . S
C1379 C1380 1.415 . S
C1380 H1356 0.950 . S
C1380 C1375 1.363 . S
C1380 C1379 1.415 . S
C1381 H1357 0.951 . S
C1381 C1382 1.366 . S
C1381 C1383 1.388 . S
C1382 C1381 1.366 . S
C1382 C1386 1.385 . S
C1383 H1358 0.951 . S
C1383 C1381 1.388 . S
C1383 C1384 1.366 . S
C1384 C1383 1.366 . S
C1384 C1385 1.414 . S
C1384 C1387 1.499 . S
C1385 H1359 0.950 . S
C1385 C1384 1.414 . S
C1385 C1386 1.374 . S
C1386 H1360 0.950 . S
C1386 C1382 1.385 . S
C1386 C1385 1.374 . S
C1387 C1384 1.499 . S
C1387 C1388 1.373 . S
C1387 C1389 1.389 . S
C1388 H1361 0.950 . S
C1388 C1374 1.377 . S
C1388 C1387 1.373 . S
C1389 C1373 1.377 . S
C1389 C1387 1.389 . S
C1389 C1390 1.524 . S
C1390 C1389 1.524 . S
C1390 C1391 1.397 . S
C1390 C1395 1.363 . S
C1391 H1362 0.950 . S
C1391 C1390 1.397 . S
C1391 C1392 1.334 . S
C1392 H1363 0.950 . S
C1392 C1391 1.334 . S
C1392 C1393 1.287 . S
C1393 C1392 1.287 . S
C1393 C1394 1.524 . S
C1393 H1396 0.999 . S
C1394 H1364 0.950 . S
C1394 C1393 1.524 . S
C1394 C1395 1.415 . S
C1395 H1365 0.950 . S
C1395 C1390 1.363 . S
C1395 C1394 1.415 . S
H1396 C1393 0.999 . S
H1397 C1378 0.913 . S
H1398 C1416 0.951 . S
H1399 C1418 0.951 . S
H1400 C1420 0.950 . S
H1401 C1421 0.950 . S
H1402 C1423 0.950 . S
H1403 C1426 0.950 . S
H1404 C1427 0.950 . S
H1405 C1429 0.950 . S
H1406 C1430 0.950 . S
H1407 C1431 0.951 . S
H1408 C1433 0.951 . S
H1409 C1435 0.950 . S
H1410 C1436 0.950 . S
H1411 C1438 0.950 . S
H1412 C1441 0.950 . S
H1413 C1442 0.950 . S
H1414 C1444 0.950 1_556 S
H1415 C1445 0.950 . S
C1416 H1398 0.951 . S
C1416 C1417 1.366 . S
C1416 C1418 1.388 . S
C1417 C1416 1.366 . S
C1417 C1421 1.385 . S
C1418 H1399 0.951 . S
C1418 C1416 1.388 . S
C1418 C1419 1.366 . S
C1419 C1418 1.366 . S
C1419 C1420 1.414 . S
C1419 C1422 1.499 . S
C1420 H1400 0.950 . S
C1420 C1419 1.414 . S
C1420 C1421 1.374 . S
C1421 H1401 0.950 . S
C1421 C1417 1.385 . S
C1421 C1420 1.374 . S
C1422 C1419 1.499 . S
C1422 C1423 1.373 . S
C1422 C1424 1.389 . S
C1423 H1402 0.950 . S
C1423 C1422 1.373 . S
C1423 C1439 1.377 . S
C1424 C1422 1.389 . S
C1424 C1425 1.524 . S
C1424 C1438 1.377 . S
C1425 C1424 1.524 . S
C1425 C1426 1.397 . S
C1425 C1430 1.363 . S
C1426 H1403 0.950 . S
C1426 C1425 1.397 . S
C1426 C1427 1.334 . S
C1427 H1404 0.950 . S
C1427 C1426 1.334 . S
C1427 C1428 1.287 . S
C1428 C1427 1.287 . S
C1428 C1429 1.524 . S
C1428 H1447 0.913 . S
C1429 H1405 0.950 . S
C1429 C1428 1.524 . S
C1429 C1430 1.415 . S
C1430 H1406 0.950 . S
C1430 C1425 1.363 . S
C1430 C1429 1.415 . S
C1431 H1407 0.951 . S
C1431 C1432 1.366 . S
C1431 C1433 1.388 . S
C1432 C1431 1.366 . S
C1432 C1436 1.385 . S
C1433 H1408 0.951 . S
C1433 C1431 1.388 . S
C1433 C1434 1.366 . S
C1434 C1433 1.366 . S
C1434 C1435 1.414 . S
C1434 C1437 1.499 . S
C1435 H1409 0.950 . S
C1435 C1434 1.414 . S
C1435 C1436 1.374 . S
C1436 H1410 0.950 . S
C1436 C1432 1.385 . S
C1436 C1435 1.374 . S
C1437 C1434 1.499 . S
C1437 C1438 1.373 . S
C1437 C1439 1.389 . S
C1438 H1411 0.950 . S
C1438 C1424 1.377 . S
C1438 C1437 1.373 . S
C1439 C1423 1.377 . S
C1439 C1437 1.389 . S
C1439 C1440 1.524 . S
C1440 C1439 1.524 . S
C1440 C1441 1.397 . S
C1440 C1445 1.363 . S
C1441 H1412 0.950 . S
C1441 C1440 1.397 . S
C1441 C1442 1.334 . S
C1442 H1413 0.950 . S
C1442 C1441 1.334 . S
C1442 C1443 1.287 . S
C1443 C1442 1.287 . S
C1443 C1444 1.524 . S
C1443 H1446 0.999 . S
C1444 H1414 0.950 1_554 S
C1444 C1443 1.524 . S
C1444 C1445 1.415 . S
C1445 H1415 0.950 . S
C1445 C1440 1.363 . S
C1445 C1444 1.415 . S
H1446 C1443 0.999 . S
H1447 C1428 0.913 . S
H1448 C1466 0.951 . S
H1449 C1468 0.951 . S
H1450 C1470 0.950 . S
H1451 C1471 0.950 . S
H1452 C1473 0.950 . S
H1453 C1476 0.950 . S
H1454 C1477 0.950 . S
H1455 C1479 0.950 . S
H1456 C1480 0.950 . S
H1457 C1481 0.951 . S
H1458 C1483 0.951 . S
H1459 C1485 0.950 . S
H1460 C1486 0.950 . S
H1461 C1488 0.950 . S
H1462 C1491 0.950 . S
H1463 C1492 0.950 . S
H1464 C1494 0.950 . S
H1465 C1495 0.950 . S
C1466 H1448 0.951 . S
C1466 C1467 1.366 . S
C1466 C1468 1.388 . S
C1467 C1466 1.366 . S
C1467 C1471 1.385 . S
C1468 H1449 0.951 . S
C1468 C1466 1.388 . S
C1468 C1469 1.366 . S
C1469 C1468 1.366 . S
C1469 C1470 1.414 . S
C1469 C1472 1.499 . S
C1470 H1450 0.950 . S
C1470 C1469 1.414 . S
C1470 C1471 1.374 . S
C1471 H1451 0.950 . S
C1471 C1467 1.385 . S
C1471 C1470 1.374 . S
C1472 C1469 1.499 . S
C1472 C1473 1.373 . S
C1472 C1474 1.389 . S
C1473 H1452 0.950 . S
C1473 C1472 1.373 . S
C1473 C1489 1.377 . S
C1474 C1472 1.389 . S
C1474 C1475 1.524 . S
C1474 C1488 1.377 . S
C1475 C1474 1.524 . S
C1475 C1476 1.397 . S
C1475 C1480 1.363 . S
C1476 H1453 0.950 . S
C1476 C1475 1.397 . S
C1476 C1477 1.334 . S
C1477 H1454 0.950 . S
C1477 C1476 1.334 . S
C1477 C1478 1.287 . S
C1478 C1477 1.287 . S
C1478 C1479 1.524 . S
C1478 H1497 0.913 . S
C1479 H1455 0.950 . S
C1479 C1478 1.524 . S
C1479 C1480 1.415 . S
C1480 H1456 0.950 . S
C1480 C1475 1.363 . S
C1480 C1479 1.415 . S
C1481 H1457 0.951 . S
C1481 C1482 1.366 . S
C1481 C1483 1.388 . S
C1482 C1481 1.366 . S
C1482 C1486 1.385 . S
C1483 H1458 0.951 . S
C1483 C1481 1.388 . S
C1483 C1484 1.366 . S
C1484 C1483 1.366 . S
C1484 C1485 1.414 . S
C1484 C1487 1.499 . S
C1485 H1459 0.950 . S
C1485 C1484 1.414 . S
C1485 C1486 1.374 . S
C1486 H1460 0.950 . S
C1486 C1482 1.385 . S
C1486 C1485 1.374 . S
C1487 C1484 1.499 . S
C1487 C1488 1.373 . S
C1487 C1489 1.389 . S
C1488 H1461 0.950 . S
C1488 C1474 1.377 . S
C1488 C1487 1.373 . S
C1489 C1473 1.377 . S
C1489 C1487 1.389 . S
C1489 C1490 1.524 . S
C1490 C1489 1.524 . S
C1490 C1491 1.397 . S
C1490 C1495 1.363 . S
C1491 H1462 0.950 . S
C1491 C1490 1.397 . S
C1491 C1492 1.334 . S
C1492 H1463 0.950 . S
C1492 C1491 1.334 . S
C1492 C1493 1.287 1_554 S
C1493 C1492 1.287 1_556 S
C1493 C1494 1.524 . S
C1493 H1496 0.999 . S
C1494 H1464 0.950 . S
C1494 C1493 1.524 . S
C1494 C1495 1.415 1_556 S
C1495 H1465 0.950 . S
C1495 C1490 1.363 . S
C1495 C1494 1.415 1_554 S
H1496 C1493 0.999 . S
H1497 C1478 0.913 . S
H1498 C1516 0.951 . S
H1499 C1518 0.951 . S
H1500 C1520 0.950 . S
H1501 C1521 0.950 . S
H1502 C1523 0.950 . S
H1503 C1526 0.950 . S
H1504 C1527 0.950 . S
H1505 C1529 0.950 . S
H1506 C1530 0.950 . S
H1507 C1531 0.951 . S
H1508 C1533 0.951 . S
H1509 C1535 0.950 . S
H1510 C1536 0.950 . S
H1511 C1538 0.950 . S
H1512 C1541 0.950 . S
H1513 C1542 0.950 . S
H1514 C1544 0.950 . S
H1515 C1545 0.950 . S
C1516 H1498 0.951 . S
C1516 C1517 1.366 . S
C1516 C1518 1.388 . S
C1517 C1516 1.366 . S
C1517 C1521 1.385 . S
C1518 H1499 0.951 . S
C1518 C1516 1.388 . S
C1518 C1519 1.366 . S
C1519 C1518 1.366 . S
C1519 C1520 1.414 . S
C1519 C1522 1.499 . S
C1520 H1500 0.950 . S
C1520 C1519 1.414 . S
C1520 C1521 1.374 . S
C1521 H1501 0.950 . S
C1521 C1517 1.385 . S
C1521 C1520 1.374 . S
C1522 C1519 1.499 . S
C1522 C1523 1.373 . S
C1522 C1524 1.389 . S
C1523 H1502 0.950 . S
C1523 C1522 1.373 . S
C1523 C1539 1.377 . S
C1524 C1522 1.389 . S
C1524 C1525 1.524 . S
C1524 C1538 1.377 . S
C1525 C1524 1.524 . S
C1525 C1526 1.397 . S
C1525 C1530 1.363 . S
C1526 H1503 0.950 . S
C1526 C1525 1.397 . S
C1526 C1527 1.334 . S
C1527 H1504 0.950 . S
C1527 C1526 1.334 . S
C1527 C1528 1.287 . S
C1528 C1527 1.287 . S
C1528 C1529 1.524 . S
C1528 H1547 0.913 . S
C1529 H1505 0.950 . S
C1529 C1528 1.524 . S
C1529 C1530 1.415 . S
C1530 H1506 0.950 . S
C1530 C1525 1.363 . S
C1530 C1529 1.415 . S
C1531 H1507 0.951 . S
C1531 C1532 1.366 . S
C1531 C1533 1.388 . S
C1532 C1531 1.366 . S
C1532 C1536 1.385 . S
C1533 H1508 0.951 . S
C1533 C1531 1.388 . S
C1533 C1534 1.366 . S
C1534 C1533 1.366 . S
C1534 C1535 1.414 . S
C1534 C1537 1.499 . S
C1535 H1509 0.950 . S
C1535 C1534 1.414 . S
C1535 C1536 1.374 . S
C1536 H1510 0.950 . S
C1536 C1532 1.385 . S
C1536 C1535 1.374 . S
C1537 C1534 1.499 . S
C1537 C1538 1.373 . S
C1537 C1539 1.389 . S
C1538 H1511 0.950 . S
C1538 C1524 1.377 . S
C1538 C1537 1.373 . S
C1539 C1523 1.377 . S
C1539 C1537 1.389 . S
C1539 C1540 1.524 . S
C1540 C1539 1.524 . S
C1540 C1541 1.397 . S
C1540 C1545 1.363 . S
C1541 H1512 0.950 . S
C1541 C1540 1.397 . S
C1541 C1542 1.334 . S
C1542 H1513 0.950 . S
C1542 C1541 1.334 . S
C1542 C1543 1.287 . S
C1543 C1542 1.287 . S
C1543 C1544 1.524 . S
C1543 H1546 0.999 . S
C1544 H1514 0.950 . S
C1544 C1543 1.524 . S
C1544 C1545 1.415 . S
C1545 H1515 0.950 . S
C1545 C1540 1.363 . S
C1545 C1544 1.415 . S
H1546 C1543 0.999 . S
H1547 C1528 0.913 . S
H1548 C1566 0.951 . S
H1549 C1568 0.951 . S
H1550 C1570 0.950 . S
H1551 C1571 0.950 . S
H1552 C1573 0.950 . S
H1553 C1576 0.950 . S
H1554 C1577 0.950 . S
H1555 C1579 0.950 . S
H1556 C1580 0.950 . S
H1557 C1581 0.951 . S
H1558 C1583 0.951 . S
H1559 C1585 0.950 . S
H1560 C1586 0.950 . S
H1561 C1588 0.950 . S
H1562 C1591 0.950 . S
H1563 C1592 0.950 . S
H1564 C1594 0.950 . S
H1565 C1595 0.950 . S
C1566 H1548 0.951 . S
C1566 C1567 1.366 . S
C1566 C1568 1.388 . S
C1567 C1566 1.366 . S
C1567 C1571 1.385 . S
C1568 H1549 0.951 . S
C1568 C1566 1.388 . S
C1568 C1569 1.366 . S
C1569 C1568 1.366 . S
C1569 C1570 1.414 . S
C1569 C1572 1.499 . S
C1570 H1550 0.950 . S
C1570 C1569 1.414 . S
C1570 C1571 1.374 . S
C1571 H1551 0.950 . S
C1571 C1567 1.385 . S
C1571 C1570 1.374 . S
C1572 C1569 1.499 . S
C1572 C1573 1.373 . S
C1572 C1574 1.389 . S
C1573 H1552 0.950 . S
C1573 C1572 1.373 . S
C1573 C1589 1.377 . S
C1574 C1572 1.389 . S
C1574 C1575 1.524 . S
C1574 C1588 1.377 . S
C1575 C1574 1.524 . S
C1575 C1576 1.397 . S
C1575 C1580 1.363 . S
C1576 H1553 0.950 . S
C1576 C1575 1.397 . S
C1576 C1577 1.334 . S
C1577 H1554 0.950 . S
C1577 C1576 1.334 . S
C1577 C1578 1.287 . S
C1578 C1577 1.287 . S
C1578 C1579 1.524 . S
C1578 H1597 0.913 . S
C1579 H1555 0.950 . S
C1579 C1578 1.524 . S
C1579 C1580 1.415 . S
C1580 H1556 0.950 . S
C1580 C1575 1.363 . S
C1580 C1579 1.415 . S
C1581 H1557 0.951 . S
C1581 C1582 1.366 . S
C1581 C1583 1.388 . S
C1582 C1581 1.366 . S
C1582 C1586 1.385 . S
C1583 H1558 0.951 . S
C1583 C1581 1.388 . S
C1583 C1584 1.366 . S
C1584 C1583 1.366 . S
C1584 C1585 1.414 . S
C1584 C1587 1.499 . S
C1585 H1559 0.950 . S
C1585 C1584 1.414 . S
C1585 C1586 1.374 . S
C1586 H1560 0.950 . S
C1586 C1582 1.385 . S
C1586 C1585 1.374 . S
C1587 C1584 1.499 . S
C1587 C1588 1.373 . S
C1587 C1589 1.389 . S
C1588 H1561 0.950 . S
C1588 C1574 1.377 . S
C1588 C1587 1.373 . S
C1589 C1573 1.377 . S
C1589 C1587 1.389 . S
C1589 C1590 1.524 . S
C1590 C1589 1.524 . S
C1590 C1591 1.397 . S
C1590 C1595 1.363 . S
C1591 H1562 0.950 . S
C1591 C1590 1.397 . S
C1591 C1592 1.334 . S
C1592 H1563 0.950 . S
C1592 C1591 1.334 . S
C1592 C1593 1.287 . S
C1593 C1592 1.287 . S
C1593 C1594 1.524 . S
C1593 H1596 0.999 . S
C1594 H1564 0.950 . S
C1594 C1593 1.524 . S
C1594 C1595 1.415 . S
C1595 H1565 0.950 . S
C1595 C1590 1.363 . S
C1595 C1594 1.415 . S
H1596 C1593 0.999 . S
H1597 C1578 0.913 . S
H1598 C1616 0.951 . S
H1599 C1618 0.951 . S
H1600 C1620 0.950 . S
H1601 C1621 0.950 . S
H1602 C1623 0.950 . S
H1603 C1626 0.950 . S
H1604 C1627 0.950 . S
H1605 C1629 0.950 . S
H1606 C1630 0.950 . S
H1607 C1631 0.951 . S
H1608 C1633 0.951 . S
H1609 C1635 0.950 . S
H1610 C1636 0.950 . S
H1611 C1638 0.950 1_655 S
H1612 C1641 0.950 . S
H1613 C1642 0.950 . S
H1614 C1644 0.945 1_455 S
H1615 C1645 0.950 . S
C1616 H1598 0.951 . S
C1616 C1617 1.366 . S
C1616 C1618 1.388 . S
C1617 C1616 1.366 . S
C1617 C1621 1.385 . S
C1618 H1599 0.951 . S
C1618 C1616 1.388 . S
C1618 C1619 1.366 . S
C1619 C1618 1.366 . S
C1619 C1620 1.414 . S
C1619 C1622 1.499 . S
C1620 H1600 0.950 . S
C1620 C1619 1.414 . S
C1620 C1621 1.374 . S
C1621 H1601 0.950 . S
C1621 C1617 1.385 . S
C1621 C1620 1.374 . S
C1622 C1619 1.499 . S
C1622 C1623 1.373 . S
C1622 C1624 1.389 . S
C1623 H1602 0.950 . S
C1623 C1622 1.373 . S
C1623 C1639 1.377 . S
C1624 C1622 1.389 . S
C1624 C1625 1.524 . S
C1624 C1638 1.377 . S
C1625 C1624 1.524 . S
C1625 C1626 1.397 . S
C1625 C1630 1.363 . S
C1626 H1603 0.950 . S
C1626 C1625 1.397 . S
C1626 C1627 1.334 . S
C1627 H1604 0.950 . S
C1627 C1626 1.334 . S
C1627 C1628 1.287 . S
C1628 C1627 1.287 . S
C1628 C1629 1.524 . S
C1628 H1647 0.913 . S
C1629 H1605 0.950 . S
C1629 C1628 1.524 . S
C1629 C1630 1.415 . S
C1630 H1606 0.950 . S
C1630 C1625 1.363 . S
C1630 C1629 1.415 . S
C1631 H1607 0.951 . S
C1631 C1632 1.366 . S
C1631 C1633 1.388 . S
C1632 C1631 1.366 . S
C1632 C1636 1.385 . S
C1633 H1608 0.951 . S
C1633 C1631 1.388 . S
C1633 C1634 1.366 . S
C1634 C1633 1.366 . S
C1634 C1635 1.414 . S
C1634 C1637 1.499 . S
C1635 H1609 0.950 . S
C1635 C1634 1.414 . S
C1635 C1636 1.374 . S
C1636 H1610 0.950 . S
C1636 C1632 1.385 . S
C1636 C1635 1.374 . S
C1637 C1634 1.499 . S
C1637 C1638 1.373 1_655 S
C1637 C1639 1.389 1_655 S
C1638 H1611 0.950 1_455 S
C1638 C1624 1.377 . S
C1638 C1637 1.373 1_455 S
C1639 C1623 1.377 . S
C1639 C1637 1.389 1_455 S
C1639 C1640 1.511 1_455 S
C1640 C1639 1.511 1_655 S
C1640 C1641 1.422 . S
C1640 C1645 1.350 1_655 S
C1641 H1612 0.950 . S
C1641 C1640 1.422 . S
C1641 C1642 1.334 . S
C1642 H1613 0.950 . S
C1642 C1641 1.334 . S
C1642 C1643 1.287 . S
C1643 C1642 1.287 . S
C1643 C1644 1.535 . S
C1643 H1646 0.999 . S
C1644 H1614 0.945 1_655 S
C1644 C1643 1.535 . S
C1644 C1645 1.409 1_655 S
C1645 H1615 0.950 . S
C1645 C1640 1.350 1_455 S
C1645 C1644 1.409 1_455 S
H1646 C1643 0.999 . S
H1647 C1628 0.913 . S
H1648 C1666 0.951 . S
H1649 C1668 0.951 . S
H1650 C1670 0.950 . S
H1651 C1671 0.950 . S
H1652 C1673 0.950 . S
H1653 C1676 0.950 . S
H1654 C1677 0.950 . S
H1655 C1679 0.950 . S
H1656 C1680 0.950 . S
H1657 C1681 0.951 . S
H1658 C1683 0.951 . S
H1659 C1685 0.950 . S
H1660 C1686 0.950 . S
H1661 C1688 0.950 . S
H1662 C1691 0.950 . S
H1663 C1692 0.950 . S
H1664 C1694 0.950 . S
H1665 C1695 0.950 . S
C1666 H1648 0.951 . S
C1666 C1667 1.366 . S
C1666 C1668 1.388 . S
C1667 C1666 1.366 . S
C1667 C1671 1.385 . S
C1668 H1649 0.951 . S
C1668 C1666 1.388 . S
C1668 C1669 1.366 . S
C1669 C1668 1.366 . S
C1669 C1670 1.414 . S
C1669 C1672 1.499 . S
C1670 H1650 0.950 . S
C1670 C1669 1.414 . S
C1670 C1671 1.374 . S
C1671 H1651 0.950 . S
C1671 C1667 1.385 . S
C1671 C1670 1.374 . S
C1672 C1669 1.499 . S
C1672 C1673 1.373 . S
C1672 C1674 1.389 . S
C1673 H1652 0.950 . S
C1673 C1672 1.373 . S
C1673 C1689 1.377 . S
C1674 C1672 1.389 . S
C1674 C1675 1.524 . S
C1674 C1688 1.377 . S
C1675 C1674 1.524 . S
C1675 C1676 1.397 . S
C1675 C1680 1.363 . S
C1676 H1653 0.950 . S
C1676 C1675 1.397 . S
C1676 C1677 1.334 . S
C1677 H1654 0.950 . S
C1677 C1676 1.334 . S
C1677 C1678 1.287 . S
C1678 C1677 1.287 . S
C1678 C1679 1.524 . S
C1678 H1697 0.913 . S
C1679 H1655 0.950 . S
C1679 C1678 1.524 . S
C1679 C1680 1.415 . S
C1680 H1656 0.950 . S
C1680 C1675 1.363 . S
C1680 C1679 1.415 . S
C1681 H1657 0.951 . S
C1681 C1682 1.366 . S
C1681 C1683 1.388 . S
C1682 C1681 1.366 . S
C1682 C1686 1.385 . S
C1683 H1658 0.951 . S
C1683 C1681 1.388 . S
C1683 C1684 1.366 . S
C1684 C1683 1.366 . S
C1684 C1685 1.414 . S
C1684 C1687 1.499 . S
C1685 H1659 0.950 . S
C1685 C1684 1.414 . S
C1685 C1686 1.374 . S
C1686 H1660 0.950 . S
C1686 C1682 1.385 . S
C1686 C1685 1.374 . S
C1687 C1684 1.499 . S
C1687 C1688 1.373 . S
C1687 C1689 1.389 . S
C1688 H1661 0.950 . S
C1688 C1674 1.377 . S
C1688 C1687 1.373 . S
C1689 C1673 1.377 . S
C1689 C1687 1.389 . S
C1689 C1690 1.524 . S
C1690 C1689 1.524 . S
C1690 C1691 1.397 . S
C1690 C1695 1.363 . S
C1691 H1662 0.950 . S
C1691 C1690 1.397 . S
C1691 C1692 1.334 . S
C1692 H1663 0.950 . S
C1692 C1691 1.334 . S
C1692 C1693 1.287 . S
C1693 C1692 1.287 . S
C1693 C1694 1.524 . S
C1693 H1696 0.999 . S
C1694 H1664 0.950 . S
C1694 C1693 1.524 . S
C1694 C1695 1.415 . S
C1695 H1665 0.950 . S
C1695 C1690 1.363 . S
C1695 C1694 1.415 . S
H1696 C1693 0.999 . S
H1697 C1678 0.913 . S
H1698 C1716 0.951 . S
H1699 C1718 0.951 . S
H1700 C1720 0.950 . S
H1701 C1721 0.950 . S
H1702 C1723 0.950 . S
H1703 C1726 0.950 . S
H1704 C1727 0.950 . S
H1705 C1729 0.950 . S
H1706 C1730 0.950 . S
H1707 C1731 0.951 . S
H1708 C1733 0.951 . S
H1709 C1735 0.950 . S
H1710 C1736 0.950 . S
H1711 C1738 0.950 1_455 S
H1712 C1741 0.950 . S
H1713 C1742 0.950 . S
H1714 C1744 0.948 1_655 S
H1715 C1745 0.950 . S
C1716 H1698 0.951 . S
C1716 C1717 1.366 . S
C1716 C1718 1.388 . S
C1717 C1716 1.366 . S
C1717 C1721 1.385 . S
C1718 H1699 0.951 . S
C1718 C1716 1.388 . S
C1718 C1719 1.366 . S
C1719 C1718 1.366 . S
C1719 C1720 1.414 . S
C1719 C1722 1.499 . S
C1720 H1700 0.950 . S
C1720 C1719 1.414 . S
C1720 C1721 1.374 . S
C1721 H1701 0.950 . S
C1721 C1717 1.385 . S
C1721 C1720 1.374 . S
C1722 C1719 1.499 . S
C1722 C1723 1.373 . S
C1722 C1724 1.389 . S
C1723 H1702 0.950 . S
C1723 C1722 1.373 . S
C1723 C1739 1.377 . S
C1724 C1722 1.389 . S
C1724 C1725 1.524 . S
C1724 C1738 1.377 . S
C1725 C1724 1.524 . S
C1725 C1726 1.397 . S
C1725 C1730 1.363 . S
C1726 H1703 0.950 . S
C1726 C1725 1.397 . S
C1726 C1727 1.334 . S
C1727 H1704 0.950 . S
C1727 C1726 1.334 . S
C1727 C1728 1.287 . S
C1728 C1727 1.287 . S
C1728 C1729 1.524 . S
C1728 H1747 0.913 . S
C1729 H1705 0.950 . S
C1729 C1728 1.524 . S
C1729 C1730 1.415 . S
C1730 H1706 0.950 . S
C1730 C1725 1.363 . S
C1730 C1729 1.415 . S
C1731 H1707 0.951 . S
C1731 C1732 1.366 . S
C1731 C1733 1.388 . S
C1732 C1731 1.366 . S
C1732 C1736 1.385 . S
C1733 H1708 0.951 . S
C1733 C1731 1.388 . S
C1733 C1734 1.366 . S
C1734 C1733 1.366 . S
C1734 C1735 1.414 . S
C1734 C1737 1.499 . S
C1735 H1709 0.950 . S
C1735 C1734 1.414 . S
C1735 C1736 1.374 . S
C1736 H1710 0.950 . S
C1736 C1732 1.385 . S
C1736 C1735 1.374 . S
C1737 C1734 1.499 . S
C1737 C1738 1.373 1_455 S
C1737 C1739 1.389 1_455 S
C1738 H1711 0.950 1_655 S
C1738 C1724 1.377 . S
C1738 C1737 1.373 1_655 S
C1739 C1723 1.377 . S
C1739 C1737 1.389 1_655 S
C1739 C1740 1.520 1_655 S
C1740 C1739 1.520 1_455 S
C1740 C1741 1.404 . S
C1740 C1745 1.359 1_455 S
C1741 H1712 0.950 . S
C1741 C1740 1.404 . S
C1741 C1742 1.334 . S
C1742 H1713 0.950 . S
C1742 C1741 1.334 . S
C1742 C1743 1.287 . S
C1743 C1742 1.287 . S
C1743 C1744 1.528 . S
C1743 H1746 0.999 . S
C1744 H1714 0.948 1_455 S
C1744 C1743 1.528 . S
C1744 C1745 1.413 1_455 S
C1745 H1715 0.950 . S
C1745 C1740 1.359 1_655 S
C1745 C1744 1.413 1_655 S
H1746 C1743 0.999 . S
H1747 C1728 0.913 . S
H1748 C1766 0.951 . S
H1749 C1768 0.951 . S
H1750 C1770 0.950 . S
H1751 C1771 0.950 . S
H1752 C1773 0.950 . S
H1753 C1776 0.950 . S
H1754 C1777 0.950 . S
H1755 C1779 0.950 . S
H1756 C1780 0.950 . S
H1757 C1781 0.951 . S
H1758 C1783 0.951 . S
H1759 C1785 0.950 . S
H1760 C1786 0.950 . S
H1761 C1788 0.950 . S
H1762 C1791 0.950 . S
H1763 C1792 0.950 . S
H1764 C1794 0.950 . S
H1765 C1795 0.950 . S
C1766 H1748 0.951 . S
C1766 C1767 1.366 . S
C1766 C1768 1.388 . S
C1767 C1766 1.366 . S
C1767 C1771 1.385 . S
C1768 H1749 0.951 . S
C1768 C1766 1.388 . S
C1768 C1769 1.366 . S
C1769 C1768 1.366 . S
C1769 C1770 1.414 . S
C1769 C1772 1.499 . S
C1770 H1750 0.950 . S
C1770 C1769 1.414 . S
C1770 C1771 1.374 . S
C1771 H1751 0.950 . S
C1771 C1767 1.385 . S
C1771 C1770 1.374 . S
C1772 C1769 1.499 . S
C1772 C1773 1.373 . S
C1772 C1774 1.389 . S
C1773 H1752 0.950 . S
C1773 C1772 1.373 . S
C1773 C1789 1.377 . S
C1774 C1772 1.389 . S
C1774 C1775 1.524 . S
C1774 C1788 1.377 . S
C1775 C1774 1.524 . S
C1775 C1776 1.397 . S
C1775 C1780 1.363 . S
C1776 H1753 0.950 . S
C1776 C1775 1.397 . S
C1776 C1777 1.334 . S
C1777 H1754 0.950 . S
C1777 C1776 1.334 . S
C1777 C1778 1.287 . S
C1778 C1777 1.287 . S
C1778 C1779 1.524 . S
C1778 H1797 0.913 . S
C1779 H1755 0.950 . S
C1779 C1778 1.524 . S
C1779 C1780 1.415 . S
C1780 H1756 0.950 . S
C1780 C1775 1.363 . S
C1780 C1779 1.415 . S
C1781 H1757 0.951 . S
C1781 C1782 1.366 . S
C1781 C1783 1.388 . S
C1782 C1781 1.366 . S
C1782 C1786 1.385 . S
C1783 H1758 0.951 . S
C1783 C1781 1.388 . S
C1783 C1784 1.366 . S
C1784 C1783 1.366 . S
C1784 C1785 1.414 . S
C1784 C1787 1.499 . S
C1785 H1759 0.950 . S
C1785 C1784 1.414 . S
C1785 C1786 1.374 . S
C1786 H1760 0.950 . S
C1786 C1782 1.385 . S
C1786 C1785 1.374 . S
C1787 C1784 1.499 . S
C1787 C1788 1.373 . S
C1787 C1789 1.389 . S
C1788 H1761 0.950 . S
C1788 C1774 1.377 . S
C1788 C1787 1.373 . S
C1789 C1773 1.377 . S
C1789 C1787 1.389 . S
C1789 C1790 1.524 . S
C1790 C1789 1.524 . S
C1790 C1791 1.397 . S
C1790 C1795 1.363 . S
C1791 H1762 0.950 . S
C1791 C1790 1.397 . S
C1791 C1792 1.334 . S
C1792 H1763 0.950 . S
C1792 C1791 1.334 . S
C1792 C1793 1.287 1_554 S
C1793 C1792 1.287 1_556 S
C1793 C1794 1.524 . S
C1793 H1796 0.999 . S
C1794 H1764 0.950 . S
C1794 C1793 1.524 . S
C1794 C1795 1.415 1_556 S
C1795 H1765 0.950 . S
C1795 C1790 1.363 . S
C1795 C1794 1.415 1_554 S
H1796 C1793 0.999 . S
H1797 C1778 0.913 . S
H1798 C1816 0.951 . S
H1799 C1818 0.951 . S
H1800 C1820 0.950 . S
H1801 C1821 0.950 . S
H1802 C1823 0.950 . S
H1803 C1826 0.950 . S
H1804 C1827 0.950 . S
H1805 C1829 0.950 1_554 S
H1806 C1830 0.950 . S
H1807 C1831 0.951 . S
H1808 C1833 0.951 . S
H1809 C1835 0.950 . S
H1810 C1836 0.950 . S
H1811 C1838 0.950 . S
H1812 C1841 0.950 . S
H1813 C1842 0.950 . S
H1814 C1844 0.950 . S
H1815 C1845 0.950 . S
C1816 H1798 0.951 . S
C1816 C1817 1.366 . S
C1816 C1818 1.388 . S
C1817 C1816 1.366 . S
C1817 C1821 1.385 . S
C1818 H1799 0.951 . S
C1818 C1816 1.388 . S
C1818 C1819 1.366 . S
C1819 C1818 1.366 . S
C1819 C1820 1.414 . S
C1819 C1822 1.499 . S
C1820 H1800 0.950 . S
C1820 C1819 1.414 . S
C1820 C1821 1.374 . S
C1821 H1801 0.950 . S
C1821 C1817 1.385 . S
C1821 C1820 1.374 . S
C1822 C1819 1.499 . S
C1822 C1823 1.373 . S
C1822 C1824 1.389 . S
C1823 H1802 0.950 . S
C1823 C1822 1.373 . S
C1823 C1839 1.377 . S
C1824 C1822 1.389 . S
C1824 C1825 1.524 . S
C1824 C1838 1.377 . S
C1825 C1824 1.524 . S
C1825 C1826 1.397 . S
C1825 C1830 1.363 . S
C1826 H1803 0.950 . S
C1826 C1825 1.397 . S
C1826 C1827 1.334 . S
C1827 H1804 0.950 . S
C1827 C1826 1.334 . S
C1827 C1828 1.282 1_556 S
C1828 C1827 1.282 1_554 S
C1828 C1829 1.522 1_554 S
C1828 H1847 0.920 . S
C1829 H1805 0.950 1_556 S
C1829 C1828 1.522 1_556 S
C1829 C1830 1.415 . S
C1830 H1806 0.950 . S
C1830 C1825 1.363 . S
C1830 C1829 1.415 . S
C1831 H1807 0.951 . S
C1831 C1832 1.366 . S
C1831 C1833 1.388 . S
C1832 C1831 1.366 . S
C1832 C1836 1.385 . S
C1833 H1808 0.951 . S
C1833 C1831 1.388 . S
C1833 C1834 1.366 . S
C1834 C1833 1.366 . S
C1834 C1835 1.414 . S
C1834 C1837 1.499 . S
C1835 H1809 0.950 . S
C1835 C1834 1.414 . S
C1835 C1836 1.374 . S
C1836 H1810 0.950 . S
C1836 C1832 1.385 . S
C1836 C1835 1.374 . S
C1837 C1834 1.499 . S
C1837 C1838 1.373 . S
C1837 C1839 1.389 . S
C1838 H1811 0.950 . S
C1838 C1824 1.377 . S
C1838 C1837 1.373 . S
C1839 C1823 1.377 . S
C1839 C1837 1.389 . S
C1839 C1840 1.524 . S
C1840 C1839 1.524 . S
C1840 C1841 1.397 . S
C1840 C1845 1.363 . S
C1841 H1812 0.950 . S
C1841 C1840 1.397 . S
C1841 C1842 1.334 . S
C1842 H1813 0.950 . S
C1842 C1841 1.334 . S
C1842 C1843 1.287 . S
C1843 C1842 1.287 . S
C1843 C1844 1.524 . S
C1843 H1846 0.999 . S
C1844 H1814 0.950 . S
C1844 C1843 1.524 . S
C1844 C1845 1.415 . S
C1845 H1815 0.950 . S
C1845 C1840 1.363 . S
C1845 C1844 1.415 . S
H1846 C1843 0.999 . S
H1847 C1828 0.920 . S
H1848 C1866 0.951 . S
H1849 C1868 0.951 . S
H1850 C1870 0.950 . S
H1851 C1871 0.950 . S
H1852 C1873 0.950 . S
H1853 C1876 0.950 . S
H1854 C1877 0.950 . S
H1855 C1879 0.950 . S
H1856 C1880 0.950 . S
H1857 C1881 0.951 . S
H1858 C1883 0.951 . S
H1859 C1885 0.950 . S
H1860 C1886 0.950 . S
H1861 C1888 0.950 . S
H1862 C1891 0.950 . S
H1863 C1892 0.950 . S
H1864 C1894 0.950 . S
H1865 C1895 0.950 . S
C1866 H1848 0.951 . S
C1866 C1867 1.366 . S
C1866 C1868 1.388 . S
C1867 C1866 1.366 . S
C1867 C1871 1.385 . S
C1868 H1849 0.951 . S
C1868 C1866 1.388 . S
C1868 C1869 1.366 . S
C1869 C1868 1.366 . S
C1869 C1870 1.414 . S
C1869 C1872 1.499 . S
C1870 H1850 0.950 . S
C1870 C1869 1.414 . S
C1870 C1871 1.374 . S
C1871 H1851 0.950 . S
C1871 C1867 1.385 . S
C1871 C1870 1.374 . S
C1872 C1869 1.499 . S
C1872 C1873 1.373 . S
C1872 C1874 1.389 . S
C1873 H1852 0.950 . S
C1873 C1872 1.373 . S
C1873 C1889 1.377 . S
C1874 C1872 1.389 . S
C1874 C1875 1.524 . S
C1874 C1888 1.377 . S
C1875 C1874 1.524 . S
C1875 C1876 1.397 . S
C1875 C1880 1.363 . S
C1876 H1853 0.950 . S
C1876 C1875 1.397 . S
C1876 C1877 1.334 . S
C1877 H1854 0.950 . S
C1877 C1876 1.334 . S
C1877 C1878 1.287 . S
C1878 C1877 1.287 . S
C1878 C1879 1.524 . S
C1878 H1897 0.913 . S
C1879 H1855 0.950 . S
C1879 C1878 1.524 . S
C1879 C1880 1.415 . S
C1880 H1856 0.950 . S
C1880 C1875 1.363 . S
C1880 C1879 1.415 . S
C1881 H1857 0.951 . S
C1881 C1882 1.366 . S
C1881 C1883 1.388 . S
C1882 C1881 1.366 . S
C1882 C1886 1.385 . S
C1883 H1858 0.951 . S
C1883 C1881 1.388 . S
C1883 C1884 1.366 . S
C1884 C1883 1.366 . S
C1884 C1885 1.414 . S
C1884 C1887 1.499 . S
C1885 H1859 0.950 . S
C1885 C1884 1.414 . S
C1885 C1886 1.374 . S
C1886 H1860 0.950 . S
C1886 C1882 1.385 . S
C1886 C1885 1.374 . S
C1887 C1884 1.499 . S
C1887 C1888 1.373 . S
C1887 C1889 1.389 . S
C1888 H1861 0.950 . S
C1888 C1874 1.377 . S
C1888 C1887 1.373 . S
C1889 C1873 1.377 . S
C1889 C1887 1.389 . S
C1889 C1890 1.524 . S
C1890 C1889 1.524 . S
C1890 C1891 1.397 . S
C1890 C1895 1.363 . S
C1891 H1862 0.950 . S
C1891 C1890 1.397 . S
C1891 C1892 1.334 . S
C1892 H1863 0.950 . S
C1892 C1891 1.334 . S
C1892 C1893 1.287 1_556 S
C1893 C1892 1.287 1_554 S
C1893 C1894 1.524 . S
C1893 H1896 0.999 . S
C1894 H1864 0.950 . S
C1894 C1893 1.524 . S
C1894 C1895 1.415 1_554 S
C1895 H1865 0.950 . S
C1895 C1890 1.363 . S
C1895 C1894 1.415 1_556 S
H1896 C1893 0.999 . S
H1897 C1878 0.913 . S
H1898 C1916 0.951 . S
H1899 C1918 0.951 . S
H1900 C1920 0.950 . S
H1901 C1921 0.950 . S
H1902 C1923 0.950 . S
H1903 C1926 0.950 . S
H1904 C1927 0.950 . S
H1905 C1929 0.950 . S
H1906 C1930 0.950 . S
H1907 C1931 0.951 . S
H1908 C1933 0.951 . S
H1909 C1935 0.950 . S
H1910 C1936 0.950 . S
H1911 C1938 0.950 . S
H1912 C1941 0.950 . S
H1913 C1942 0.950 . S
H1914 C1944 0.950 . S
H1915 C1945 0.950 . S
C1916 H1898 0.951 . S
C1916 C1917 1.366 . S
C1916 C1918 1.388 . S
C1917 C1916 1.366 . S
C1917 C1921 1.385 . S
C1918 H1899 0.951 . S
C1918 C1916 1.388 . S
C1918 C1919 1.366 . S
C1919 C1918 1.366 . S
C1919 C1920 1.414 . S
C1919 C1922 1.499 . S
C1920 H1900 0.950 . S
C1920 C1919 1.414 . S
C1920 C1921 1.374 . S
C1921 H1901 0.950 . S
C1921 C1917 1.385 . S
C1921 C1920 1.374 . S
C1922 C1919 1.499 . S
C1922 C1923 1.373 . S
C1922 C1924 1.389 . S
C1923 H1902 0.950 . S
C1923 C1922 1.373 . S
C1923 C1939 1.377 . S
C1924 C1922 1.389 . S
C1924 C1925 1.524 . S
C1924 C1938 1.377 . S
C1925 C1924 1.524 . S
C1925 C1926 1.397 . S
C1925 C1930 1.363 . S
C1926 H1903 0.950 . S
C1926 C1925 1.397 . S
C1926 C1927 1.334 . S
C1927 H1904 0.950 . S
C1927 C1926 1.334 . S
C1927 C1928 1.287 . S
C1928 C1927 1.287 . S
C1928 C1929 1.524 . S
C1928 H1947 0.913 . S
C1929 H1905 0.950 . S
C1929 C1928 1.524 . S
C1929 C1930 1.415 . S
C1930 H1906 0.950 . S
C1930 C1925 1.363 . S
C1930 C1929 1.415 . S
C1931 H1907 0.951 . S
C1931 C1932 1.366 . S
C1931 C1933 1.388 . S
C1932 C1931 1.366 . S
C1932 C1936 1.385 . S
C1933 H1908 0.951 . S
C1933 C1931 1.388 . S
C1933 C1934 1.366 . S
C1934 C1933 1.366 . S
C1934 C1935 1.414 . S
C1934 C1937 1.499 . S
C1935 H1909 0.950 . S
C1935 C1934 1.414 . S
C1935 C1936 1.374 . S
C1936 H1910 0.950 . S
C1936 C1932 1.385 . S
C1936 C1935 1.374 . S
C1937 C1934 1.499 . S
C1937 C1938 1.373 . S
C1937 C1939 1.389 . S
C1938 H1911 0.950 . S
C1938 C1924 1.377 . S
C1938 C1937 1.373 . S
C1939 C1923 1.377 . S
C1939 C1937 1.389 . S
C1939 C1940 1.524 . S
C1940 C1939 1.524 . S
C1940 C1941 1.397 . S
C1940 C1945 1.363 . S
C1941 H1912 0.950 . S
C1941 C1940 1.397 . S
C1941 C1942 1.334 . S
C1942 H1913 0.950 . S
C1942 C1941 1.334 . S
C1942 C1943 1.287 . S
C1943 C1942 1.287 . S
C1943 C1944 1.524 . S
C1943 H1946 0.999 . S
C1944 H1914 0.950 . S
C1944 C1943 1.524 . S
C1944 C1945 1.415 . S
C1945 H1915 0.950 . S
C1945 C1940 1.363 . S
C1945 C1944 1.415 . S
H1946 C1943 0.999 . S
H1947 C1928 0.913 . S
H1948 C1966 0.951 . S
H1949 C1968 0.951 . S
H1950 C1970 0.950 . S
H1951 C1971 0.950 . S
H1952 C1973 0.950 . S
H1953 C1976 0.950 . S
H1954 C1977 0.950 . S
H1955 C1979 0.950 . S
H1956 C1980 0.950 . S
H1957 C1981 0.951 . S
H1958 C1983 0.951 . S
H1959 C1985 0.950 . S
H1960 C1986 0.950 . S
H1961 C1988 0.950 . S
H1962 C1991 0.950 . S
H1963 C1992 0.950 . S
H1964 C1994 0.950 . S
H1965 C1995 0.950 . S
C1966 H1948 0.951 . S
C1966 C1967 1.366 . S
C1966 C1968 1.388 . S
C1967 C1966 1.366 . S
C1967 C1971 1.385 . S
C1968 H1949 0.951 . S
C1968 C1966 1.388 . S
C1968 C1969 1.366 . S
C1969 C1968 1.366 . S
C1969 C1970 1.414 . S
C1969 C1972 1.499 . S
C1970 H1950 0.950 . S
C1970 C1969 1.414 . S
C1970 C1971 1.374 . S
C1971 H1951 0.950 . S
C1971 C1967 1.385 . S
C1971 C1970 1.374 . S
C1972 C1969 1.499 . S
C1972 C1973 1.373 . S
C1972 C1974 1.389 . S
C1973 H1952 0.950 . S
C1973 C1972 1.373 . S
C1973 C1989 1.377 . S
C1974 C1972 1.389 . S
C1974 C1975 1.524 . S
C1974 C1988 1.377 . S
C1975 C1974 1.524 . S
C1975 C1976 1.397 . S
C1975 C1980 1.363 . S
C1976 H1953 0.950 . S
C1976 C1975 1.397 . S
C1976 C1977 1.334 . S
C1977 H1954 0.950 . S
C1977 C1976 1.334 . S
C1977 C1978 1.287 . S
C1978 C1977 1.287 . S
C1978 C1979 1.524 . S
C1978 H1997 0.913 . S
C1979 H1955 0.950 . S
C1979 C1978 1.524 . S
C1979 C1980 1.415 . S
C1980 H1956 0.950 . S
C1980 C1975 1.363 . S
C1980 C1979 1.415 . S
C1981 H1957 0.951 . S
C1981 C1982 1.366 . S
C1981 C1983 1.388 . S
C1982 C1981 1.366 . S
C1982 C1986 1.385 . S
C1983 H1958 0.951 . S
C1983 C1981 1.388 . S
C1983 C1984 1.366 . S
C1984 C1983 1.366 . S
C1984 C1985 1.414 . S
C1984 C1987 1.499 . S
C1985 H1959 0.950 . S
C1985 C1984 1.414 . S
C1985 C1986 1.374 . S
C1986 H1960 0.950 . S
C1986 C1982 1.385 . S
C1986 C1985 1.374 . S
C1987 C1984 1.499 . S
C1987 C1988 1.373 . S
C1987 C1989 1.389 . S
C1988 H1961 0.950 . S
C1988 C1974 1.377 . S
C1988 C1987 1.373 . S
C1989 C1973 1.377 . S
C1989 C1987 1.389 . S
C1989 C1990 1.524 . S
C1990 C1989 1.524 . S
C1990 C1991 1.397 . S
C1990 C1995 1.363 . S
C1991 H1962 0.950 . S
C1991 C1990 1.397 . S
C1991 C1992 1.334 . S
C1992 H1963 0.950 . S
C1992 C1991 1.334 . S
C1992 C1993 1.287 . S
C1993 C1992 1.287 . S
C1993 C1994 1.524 . S
C1993 H1996 0.999 . S
C1994 H1964 0.950 . S
C1994 C1993 1.524 . S
C1994 C1995 1.415 . S
C1995 H1965 0.950 . S
C1995 C1990 1.363 . S
C1995 C1994 1.415 . S
H1996 C1993 0.999 . S
H1997 C1978 0.913 . S
H1998 C2016 0.951 . S
H1999 C2018 0.951 . S
H2000 C2020 0.950 . S
H2001 C2021 0.950 . S
H2002 C2023 0.950 . S
H2003 C2026 0.950 . S
H2004 C2027 0.950 . S
H2005 C2029 0.931 1_556 S
H2006 C2030 0.950 . S
H2007 C2031 0.951 . S
H2008 C2033 0.951 . S
H2009 C2035 0.950 . S
H2010 C2036 0.950 . S
H2011 C2038 0.950 1_455 S
H2012 C2041 0.950 . S
H2013 C2042 0.950 . S
H2014 C2044 0.950 . S
H2015 C2045 0.950 1_655 S
C2016 H1998 0.951 . S
C2016 C2017 1.366 . S
C2016 C2018 1.388 . S
C2017 C2016 1.366 . S
C2017 C2021 1.385 . S
C2018 H1999 0.951 . S
C2018 C2016 1.388 . S
C2018 C2019 1.366 . S
C2019 C2018 1.366 . S
C2019 C2020 1.414 . S
C2019 C2022 1.499 . S
C2020 H2000 0.950 . S
C2020 C2019 1.414 . S
C2020 C2021 1.374 . S
C2021 H2001 0.950 . S
C2021 C2017 1.385 . S
C2021 C2020 1.374 . S
C2022 C2019 1.499 . S
C2022 C2023 1.373 . S
C2022 C2024 1.389 . S
C2023 H2002 0.950 . S
C2023 C2022 1.373 . S
C2023 C2039 1.377 . S
C2024 C2022 1.389 . S
C2024 C2025 1.524 . S
C2024 C2038 1.377 . S
C2025 C2024 1.524 . S
C2025 C2026 1.397 . S
C2025 C2030 1.363 . S
C2026 H2003 0.950 . S
C2026 C2025 1.397 . S
C2026 C2027 1.334 . S
C2027 H2004 0.950 . S
C2027 C2026 1.334 . S
C2027 C2028 1.287 . S
C2028 C2027 1.287 . S
C2028 C2029 1.525 . S
C2028 H2047 0.913 1_554 S
C2029 H2005 0.931 1_554 S
C2029 C2028 1.525 . S
C2029 C2030 1.435 . S
C2030 H2006 0.950 . S
C2030 C2025 1.363 . S
C2030 C2029 1.435 . S
C2031 H2007 0.951 . S
C2031 C2032 1.366 . S
C2031 C2033 1.388 . S
C2032 C2031 1.366 . S
C2032 C2036 1.385 . S
C2033 H2008 0.951 . S
C2033 C2031 1.388 . S
C2033 C2034 1.366 . S
C2034 C2033 1.366 . S
C2034 C2035 1.414 . S
C2034 C2037 1.499 . S
C2035 H2009 0.950 . S
C2035 C2034 1.414 . S
C2035 C2036 1.374 . S
C2036 H2010 0.950 . S
C2036 C2032 1.385 . S
C2036 C2035 1.374 . S
C2037 C2034 1.499 . S
C2037 C2038 1.373 1_455 S
C2037 C2039 1.389 1_455 S
C2038 H2011 0.950 1_655 S
C2038 C2024 1.377 . S
C2038 C2037 1.373 1_655 S
C2039 C2023 1.377 . S
C2039 C2037 1.389 1_655 S
C2039 C2040 1.524 1_655 S
C2040 C2039 1.524 1_455 S
C2040 C2041 1.397 . S
C2040 C2045 1.363 . S
C2041 H2012 0.950 . S
C2041 C2040 1.397 . S
C2041 C2042 1.334 . S
C2042 H2013 0.950 . S
C2042 C2041 1.334 . S
C2042 C2043 1.287 . S
C2043 C2042 1.287 . S
C2043 C2044 1.524 . S
C2043 H2046 0.999 . S
C2044 H2014 0.950 . S
C2044 C2043 1.524 . S
C2044 C2045 1.415 . S
C2045 H2015 0.950 1_455 S
C2045 C2040 1.363 . S
C2045 C2044 1.415 . S
H2046 C2043 0.999 . S
H2047 C2028 0.913 1_556 S
H2048 C2066 0.951 . S
H2049 C2068 0.951 . S
H2050 C2070 0.950 . S
H2051 C2071 0.950 . S
H2052 C2073 0.950 . S
H2053 C2076 0.950 . S
H2054 C2077 0.950 . S
H2055 C2079 0.950 . S
H2056 C2080 0.950 . S
H2057 C2081 0.951 . S
H2058 C2083 0.951 . S
H2059 C2085 0.950 . S
H2060 C2086 0.950 . S
H2061 C2088 0.950 . S
H2062 C2091 0.950 . S
H2063 C2092 0.950 . S
H2064 C2094 0.950 . S
H2065 C2095 0.950 . S
C2066 H2048 0.951 . S
C2066 C2067 1.366 . S
C2066 C2068 1.388 . S
C2067 C2066 1.366 . S
C2067 C2071 1.385 . S
C2068 H2049 0.951 . S
C2068 C2066 1.388 . S
C2068 C2069 1.366 . S
C2069 C2068 1.366 . S
C2069 C2070 1.414 . S
C2069 C2072 1.499 . S
C2070 H2050 0.950 . S
C2070 C2069 1.414 . S
C2070 C2071 1.374 . S
C2071 H2051 0.950 . S
C2071 C2067 1.385 . S
C2071 C2070 1.374 . S
C2072 C2069 1.499 . S
C2072 C2073 1.373 . S
C2072 C2074 1.389 . S
C2073 H2052 0.950 . S
C2073 C2072 1.373 . S
C2073 C2089 1.377 . S
C2074 C2072 1.389 . S
C2074 C2075 1.524 . S
C2074 C2088 1.377 . S
C2075 C2074 1.524 . S
C2075 C2076 1.397 . S
C2075 C2080 1.363 . S
C2076 H2053 0.950 . S
C2076 C2075 1.397 . S
C2076 C2077 1.334 . S
C2077 H2054 0.950 . S
C2077 C2076 1.334 . S
C2077 C2078 1.300 . S
C2078 C2077 1.300 . S
C2078 C2079 1.536 . S
C2078 H2097 0.887 1_556 S
C2079 H2055 0.950 . S
C2079 C2078 1.536 . S
C2079 C2080 1.415 . S
C2080 H2056 0.950 . S
C2080 C2075 1.363 . S
C2080 C2079 1.415 . S
C2081 H2057 0.951 . S
C2081 C2082 1.366 . S
C2081 C2083 1.388 . S
C2082 C2081 1.366 . S
C2082 C2086 1.385 . S
C2083 H2058 0.951 . S
C2083 C2081 1.388 . S
C2083 C2084 1.366 . S
C2084 C2083 1.366 . S
C2084 C2085 1.414 . S
C2084 C2087 1.499 . S
C2085 H2059 0.950 . S
C2085 C2084 1.414 . S
C2085 C2086 1.374 . S
C2086 H2060 0.950 . S
C2086 C2082 1.385 . S
C2086 C2085 1.374 . S
C2087 C2084 1.499 . S
C2087 C2088 1.373 . S
C2087 C2089 1.389 . S
C2088 H2061 0.950 . S
C2088 C2074 1.377 . S
C2088 C2087 1.373 . S
C2089 C2073 1.377 . S
C2089 C2087 1.389 . S
C2089 C2090 1.524 . S
C2090 C2089 1.524 . S
C2090 C2091 1.397 . S
C2090 C2095 1.363 . S
C2091 H2062 0.950 . S
C2091 C2090 1.397 . S
C2091 C2092 1.334 . S
C2092 H2063 0.950 . S
C2092 C2091 1.334 . S
C2092 C2093 1.287 . S
C2093 C2092 1.287 . S
C2093 C2094 1.524 . S
C2093 H2096 0.999 . S
C2094 H2064 0.950 . S
C2094 C2093 1.524 . S
C2094 C2095 1.415 . S
C2095 H2065 0.950 . S
C2095 C2090 1.363 . S
C2095 C2094 1.415 . S
H2096 C2093 0.999 . S
H2097 C2078 0.887 1_554 S
H2098 C2116 0.951 . S
H2099 C2118 0.951 . S
H2100 C2120 0.950 . S
H2101 C2121 0.950 . S
H2102 C2123 0.950 . S
H2103 C2126 0.950 . S
H2104 C2127 0.950 . S
H2105 C2129 0.950 . S
H2106 C2130 0.950 . S
H2107 C2131 0.951 . S
H2108 C2133 0.951 . S
H2109 C2135 0.950 . S
H2110 C2136 0.950 . S
H2111 C2138 0.950 . S
H2112 C2141 0.950 . S
H2113 C2142 0.950 . S
H2114 C2144 0.950 . S
H2115 C2145 0.950 . S
C2116 H2098 0.951 . S
C2116 C2117 1.366 . S
C2116 C2118 1.388 . S
C2117 C2116 1.366 . S
C2117 C2121 1.385 . S
C2118 H2099 0.951 . S
C2118 C2116 1.388 . S
C2118 C2119 1.366 . S
C2119 C2118 1.366 . S
C2119 C2120 1.414 . S
C2119 C2122 1.499 . S
C2120 H2100 0.950 . S
C2120 C2119 1.414 . S
C2120 C2121 1.374 . S
C2121 H2101 0.950 . S
C2121 C2117 1.385 . S
C2121 C2120 1.374 . S
C2122 C2119 1.499 . S
C2122 C2123 1.373 . S
C2122 C2124 1.389 . S
C2123 H2102 0.950 . S
C2123 C2122 1.373 . S
C2123 C2139 1.377 . S
C2124 C2122 1.389 . S
C2124 C2125 1.524 . S
C2124 C2138 1.377 . S
C2125 C2124 1.524 . S
C2125 C2126 1.397 . S
C2125 C2130 1.363 . S
C2126 H2103 0.950 . S
C2126 C2125 1.397 . S
C2126 C2127 1.334 . S
C2127 H2104 0.950 . S
C2127 C2126 1.334 . S
C2127 C2128 1.287 . S
C2128 C2127 1.287 . S
C2128 C2129 1.524 . S
C2128 H2147 0.913 . S
C2129 H2105 0.950 . S
C2129 C2128 1.524 . S
C2129 C2130 1.415 . S
C2130 H2106 0.950 . S
C2130 C2125 1.363 . S
C2130 C2129 1.415 . S
C2131 H2107 0.951 . S
C2131 C2132 1.366 . S
C2131 C2133 1.388 . S
C2132 C2131 1.366 . S
C2132 C2136 1.385 . S
C2133 H2108 0.951 . S
C2133 C2131 1.388 . S
C2133 C2134 1.366 . S
C2134 C2133 1.366 . S
C2134 C2135 1.414 . S
C2134 C2137 1.499 . S
C2135 H2109 0.950 . S
C2135 C2134 1.414 . S
C2135 C2136 1.374 . S
C2136 H2110 0.950 . S
C2136 C2132 1.385 . S
C2136 C2135 1.374 . S
C2137 C2134 1.499 . S
C2137 C2138 1.373 . S
C2137 C2139 1.389 . S
C2138 H2111 0.950 . S
C2138 C2124 1.377 . S
C2138 C2137 1.373 . S
C2139 C2123 1.377 . S
C2139 C2137 1.389 . S
C2139 C2140 1.524 . S
C2140 C2139 1.524 . S
C2140 C2141 1.397 . S
C2140 C2145 1.363 . S
C2141 H2112 0.950 . S
C2141 C2140 1.397 . S
C2141 C2142 1.334 . S
C2142 H2113 0.950 . S
C2142 C2141 1.334 . S
C2142 C2143 1.287 . S
C2143 C2142 1.287 . S
C2143 C2144 1.524 . S
C2143 H2146 0.999 . S
C2144 H2114 0.950 . S
C2144 C2143 1.524 . S
C2144 C2145 1.415 . S
C2145 H2115 0.950 . S
C2145 C2140 1.363 . S
C2145 C2144 1.415 . S
H2146 C2143 0.999 . S
H2147 C2128 0.913 . S
H2148 C2166 0.951 . S
H2149 C2168 0.951 . S
H2150 C2170 0.950 . S
H2151 C2171 0.950 . S
H2152 C2173 0.950 . S
H2153 C2176 0.950 . S
H2154 C2177 0.950 . S
H2155 C2179 0.950 . S
H2156 C2180 0.950 . S
H2157 C2181 0.951 . S
H2158 C2183 0.951 . S
H2159 C2185 0.950 . S
H2160 C2186 0.950 . S
H2161 C2188 0.950 . S
H2162 C2191 0.950 . S
H2163 C2192 0.950 . S
H2164 C2194 0.950 . S
H2165 C2195 0.950 . S
C2166 H2148 0.951 . S
C2166 C2167 1.366 . S
C2166 C2168 1.388 . S
C2167 C2166 1.366 . S
C2167 C2171 1.385 . S
C2168 H2149 0.951 . S
C2168 C2166 1.388 . S
C2168 C2169 1.366 . S
C2169 C2168 1.366 . S
C2169 C2170 1.414 . S
C2169 C2172 1.499 . S
C2170 H2150 0.950 . S
C2170 C2169 1.414 . S
C2170 C2171 1.374 . S
C2171 H2151 0.950 . S
C2171 C2167 1.385 . S
C2171 C2170 1.374 . S
C2172 C2169 1.499 . S
C2172 C2173 1.373 . S
C2172 C2174 1.389 . S
C2173 H2152 0.950 . S
C2173 C2172 1.373 . S
C2173 C2189 1.377 . S
C2174 C2172 1.389 . S
C2174 C2175 1.524 . S
C2174 C2188 1.377 . S
C2175 C2174 1.524 . S
C2175 C2176 1.397 . S
C2175 C2180 1.363 . S
C2176 H2153 0.950 . S
C2176 C2175 1.397 . S
C2176 C2177 1.334 . S
C2177 H2154 0.950 . S
C2177 C2176 1.334 . S
C2177 C2178 1.287 . S
C2178 C2177 1.287 . S
C2178 C2179 1.524 . S
C2178 H2197 0.913 . S
C2179 H2155 0.950 . S
C2179 C2178 1.524 . S
C2179 C2180 1.415 . S
C2180 H2156 0.950 . S
C2180 C2175 1.363 . S
C2180 C2179 1.415 . S
C2181 H2157 0.951 . S
C2181 C2182 1.366 . S
C2181 C2183 1.388 . S
C2182 C2181 1.366 . S
C2182 C2186 1.385 . S
C2183 H2158 0.951 . S
C2183 C2181 1.388 . S
C2183 C2184 1.366 . S
C2184 C2183 1.366 . S
C2184 C2185 1.414 . S
C2184 C2187 1.499 . S
C2185 H2159 0.950 . S
C2185 C2184 1.414 . S
C2185 C2186 1.374 . S
C2186 H2160 0.950 . S
C2186 C2182 1.385 . S
C2186 C2185 1.374 . S
C2187 C2184 1.499 . S
C2187 C2188 1.373 . S
C2187 C2189 1.389 . S
C2188 H2161 0.950 . S
C2188 C2174 1.377 . S
C2188 C2187 1.373 . S
C2189 C2173 1.377 . S
C2189 C2187 1.389 . S
C2189 C2190 1.524 . S
C2190 C2189 1.524 . S
C2190 C2191 1.397 . S
C2190 C2195 1.363 . S
C2191 H2162 0.950 . S
C2191 C2190 1.397 . S
C2191 C2192 1.334 . S
C2192 H2163 0.950 . S
C2192 C2191 1.334 . S
C2192 C2193 1.287 . S
C2193 C2192 1.287 . S
C2193 C2194 1.524 . S
C2193 H2196 0.999 . S
C2194 H2164 0.950 . S
C2194 C2193 1.524 . S
C2194 C2195 1.415 . S
C2195 H2165 0.950 . S
C2195 C2190 1.363 . S
C2195 C2194 1.415 . S
H2196 C2193 0.999 . S
H2197 C2178 0.913 . S
H2198 C2216 0.951 . S
H2199 C2218 0.951 . S
H2200 C2220 0.950 . S
H2201 C2221 0.950 . S
H2202 C2223 0.950 . S
H2203 C2226 0.950 . S
H2204 C2227 0.950 . S
H2205 C2229 0.950 . S
H2206 C2230 0.950 . S
H2207 C2231 0.951 . S
H2208 C2233 0.951 . S
H2209 C2235 0.950 . S
H2210 C2236 0.950 . S
H2211 C2238 0.950 1_455 S
H2212 C2241 0.950 . S
H2213 C2242 0.950 . S
H2214 C2244 0.945 1_655 S
H2215 C2245 0.950 . S
C2216 H2198 0.951 . S
C2216 C2217 1.366 . S
C2216 C2218 1.388 . S
C2217 C2216 1.366 . S
C2217 C2221 1.385 . S
C2218 H2199 0.951 . S
C2218 C2216 1.388 . S
C2218 C2219 1.366 . S
C2219 C2218 1.366 . S
C2219 C2220 1.414 . S
C2219 C2222 1.499 . S
C2220 H2200 0.950 . S
C2220 C2219 1.414 . S
C2220 C2221 1.374 . S
C2221 H2201 0.950 . S
C2221 C2217 1.385 . S
C2221 C2220 1.374 . S
C2222 C2219 1.499 . S
C2222 C2223 1.373 . S
C2222 C2224 1.389 . S
C2223 H2202 0.950 . S
C2223 C2222 1.373 . S
C2223 C2239 1.377 . S
C2224 C2222 1.389 . S
C2224 C2225 1.524 . S
C2224 C2238 1.377 . S
C2225 C2224 1.524 . S
C2225 C2226 1.397 . S
C2225 C2230 1.363 . S
C2226 H2203 0.950 . S
C2226 C2225 1.397 . S
C2226 C2227 1.334 . S
C2227 H2204 0.950 . S
C2227 C2226 1.334 . S
C2227 C2228 1.287 . S
C2228 C2227 1.287 . S
C2228 C2229 1.524 . S
C2228 H2247 0.913 . S
C2229 H2205 0.950 . S
C2229 C2228 1.524 . S
C2229 C2230 1.415 . S
C2230 H2206 0.950 . S
C2230 C2225 1.363 . S
C2230 C2229 1.415 . S
C2231 H2207 0.951 . S
C2231 C2232 1.366 . S
C2231 C2233 1.388 . S
C2232 C2231 1.366 . S
C2232 C2236 1.385 . S
C2233 H2208 0.951 . S
C2233 C2231 1.388 . S
C2233 C2234 1.366 . S
C2234 C2233 1.366 . S
C2234 C2235 1.414 . S
C2234 C2237 1.499 . S
C2235 H2209 0.950 . S
C2235 C2234 1.414 . S
C2235 C2236 1.374 . S
C2236 H2210 0.950 . S
C2236 C2232 1.385 . S
C2236 C2235 1.374 . S
C2237 C2234 1.499 . S
C2237 C2238 1.373 1_455 S
C2237 C2239 1.389 1_455 S
C2238 H2211 0.950 1_655 S
C2238 C2224 1.377 . S
C2238 C2237 1.373 1_655 S
C2239 C2223 1.377 . S
C2239 C2237 1.389 1_655 S
C2239 C2240 1.519 1_655 S
C2240 C2239 1.519 1_455 S
C2240 C2241 1.406 . S
C2240 C2245 1.358 1_455 S
C2241 H2212 0.950 . S
C2241 C2240 1.406 . S
C2241 C2242 1.334 . S
C2242 H2213 0.950 . S
C2242 C2241 1.334 . S
C2242 C2243 1.287 . S
C2243 C2242 1.287 . S
C2243 C2244 1.536 . S
C2243 H2246 0.999 . S
C2244 H2214 0.945 1_455 S
C2244 C2243 1.536 . S
C2244 C2245 1.409 1_455 S
C2245 H2215 0.950 . S
C2245 C2240 1.358 1_655 S
C2245 C2244 1.409 1_655 S
H2246 C2243 0.999 . S
H2247 C2228 0.913 . S
H2248 C2266 0.951 . S
H2249 C2268 0.951 . S
H2250 C2270 0.950 . S
H2251 C2271 0.950 . S
H2252 C2273 0.950 . S
H2253 C2276 0.950 . S
H2254 C2277 0.950 . S
H2255 C2279 0.950 . S
H2256 C2280 0.950 . S
H2257 C2281 0.951 . S
H2258 C2283 0.951 . S
H2259 C2285 0.950 . S
H2260 C2286 0.950 . S
H2261 C2288 0.950 . S
H2262 C2291 0.950 . S
H2263 C2292 0.950 . S
H2264 C2294 0.950 . S
H2265 C2295 0.950 . S
C2266 H2248 0.951 . S
C2266 C2267 1.366 . S
C2266 C2268 1.388 . S
C2267 C2266 1.366 . S
C2267 C2271 1.385 . S
C2268 H2249 0.951 . S
C2268 C2266 1.388 . S
C2268 C2269 1.366 . S
C2269 C2268 1.366 . S
C2269 C2270 1.414 . S
C2269 C2272 1.499 . S
C2270 H2250 0.950 . S
C2270 C2269 1.414 . S
C2270 C2271 1.374 . S
C2271 H2251 0.950 . S
C2271 C2267 1.385 . S
C2271 C2270 1.374 . S
C2272 C2269 1.499 . S
C2272 C2273 1.373 . S
C2272 C2274 1.389 . S
C2273 H2252 0.950 . S
C2273 C2272 1.373 . S
C2273 C2289 1.377 . S
C2274 C2272 1.389 . S
C2274 C2275 1.524 . S
C2274 C2288 1.377 . S
C2275 C2274 1.524 . S
C2275 C2276 1.397 . S
C2275 C2280 1.363 . S
C2276 H2253 0.950 . S
C2276 C2275 1.397 . S
C2276 C2277 1.334 . S
C2277 H2254 0.950 . S
C2277 C2276 1.334 . S
C2277 C2278 1.287 . S
C2278 C2277 1.287 . S
C2278 C2279 1.524 . S
C2278 H2297 0.913 . S
C2279 H2255 0.950 . S
C2279 C2278 1.524 . S
C2279 C2280 1.415 . S
C2280 H2256 0.950 . S
C2280 C2275 1.363 . S
C2280 C2279 1.415 . S
C2281 H2257 0.951 . S
C2281 C2282 1.366 . S
C2281 C2283 1.388 . S
C2282 C2281 1.366 . S
C2282 C2286 1.385 . S
C2283 H2258 0.951 . S
C2283 C2281 1.388 . S
C2283 C2284 1.366 . S
C2284 C2283 1.366 . S
C2284 C2285 1.414 . S
C2284 C2287 1.499 . S
C2285 H2259 0.950 . S
C2285 C2284 1.414 . S
C2285 C2286 1.374 . S
C2286 H2260 0.950 . S
C2286 C2282 1.385 . S
C2286 C2285 1.374 . S
C2287 C2284 1.499 . S
C2287 C2288 1.373 . S
C2287 C2289 1.389 . S
C2288 H2261 0.950 . S
C2288 C2274 1.377 . S
C2288 C2287 1.373 . S
C2289 C2273 1.377 . S
C2289 C2287 1.389 . S
C2289 C2290 1.524 . S
C2290 C2289 1.524 . S
C2290 C2291 1.397 . S
C2290 C2295 1.363 . S
C2291 H2262 0.950 . S
C2291 C2290 1.397 . S
C2291 C2292 1.334 . S
C2292 H2263 0.950 . S
C2292 C2291 1.334 . S
C2292 C2293 1.287 . S
C2293 C2292 1.287 . S
C2293 C2294 1.524 . S
C2293 H2296 0.999 . S
C2294 H2264 0.950 . S
C2294 C2293 1.524 . S
C2294 C2295 1.415 . S
C2295 H2265 0.950 . S
C2295 C2290 1.363 . S
C2295 C2294 1.415 . S
H2296 C2293 0.999 . S
H2297 C2278 0.913 . S
H2298 C2316 0.951 . S
H2299 C2318 0.951 . S
H2300 C2320 0.950 . S
H2301 C2321 0.950 . S
H2302 C2323 0.950 1_455 S
H2303 C2326 0.950 . S
H2304 C2327 0.950 . S
H2305 C2329 0.937 1_655 S
H2306 C2330 0.950 . S
H2307 C2331 0.951 . S
H2308 C2333 0.951 . S
H2309 C2335 0.950 . S
H2310 C2336 0.950 . S
H2311 C2338 0.950 . S
H2312 C2341 0.950 . S
H2313 C2342 0.950 . S
H2314 C2344 0.950 . S
H2315 C2345 0.950 . S
C2316 H2298 0.951 . S
C2316 C2317 1.366 . S
C2316 C2318 1.388 . S
C2317 C2316 1.366 . S
C2317 C2321 1.385 . S
C2318 H2299 0.951 . S
C2318 C2316 1.388 . S
C2318 C2319 1.366 . S
C2319 C2318 1.366 . S
C2319 C2320 1.414 . S
C2319 C2322 1.499 . S
C2320 H2300 0.950 . S
C2320 C2319 1.414 . S
C2320 C2321 1.374 . S
C2321 H2301 0.950 . S
C2321 C2317 1.385 . S
C2321 C2320 1.374 . S
C2322 C2319 1.499 . S
C2322 C2323 1.373 1_455 S
C2322 C2324 1.389 1_455 S
C2323 H2302 0.950 1_655 S
C2323 C2322 1.373 1_655 S
C2323 C2339 1.377 . S
C2324 C2322 1.389 1_655 S
C2324 C2325 1.524 1_655 S
C2324 C2338 1.377 . S
C2325 C2324 1.524 1_455 S
C2325 C2326 1.397 . S
C2325 C2330 1.363 1_455 S
C2326 H2303 0.950 . S
C2326 C2325 1.397 . S
C2326 C2327 1.334 . S
C2327 H2304 0.950 . S
C2327 C2326 1.334 . S
C2327 C2328 1.287 1_556 S
C2328 C2327 1.287 1_554 S
C2328 C2329 1.558 1_554 S
C2328 H2347 0.913 . S
C2329 H2305 0.937 1_455 S
C2329 C2328 1.558 1_556 S
C2329 C2330 1.399 1_455 S
C2330 H2306 0.950 . S
C2330 C2325 1.363 1_655 S
C2330 C2329 1.399 1_655 S
C2331 H2307 0.951 . S
C2331 C2332 1.366 . S
C2331 C2333 1.388 . S
C2332 C2331 1.366 . S
C2332 C2336 1.385 . S
C2333 H2308 0.951 . S
C2333 C2331 1.388 . S
C2333 C2334 1.366 . S
C2334 C2333 1.366 . S
C2334 C2335 1.414 . S
C2334 C2337 1.499 . S
C2335 H2309 0.950 . S
C2335 C2334 1.414 . S
C2335 C2336 1.374 . S
C2336 H2310 0.950 . S
C2336 C2332 1.385 . S
C2336 C2335 1.374 . S
C2337 C2334 1.499 . S
C2337 C2338 1.373 . S
C2337 C2339 1.389 . S
C2338 H2311 0.950 . S
C2338 C2324 1.377 . S
C2338 C2337 1.373 . S
C2339 C2323 1.377 . S
C2339 C2337 1.389 . S
C2339 C2340 1.524 . S
C2340 C2339 1.524 . S
C2340 C2341 1.397 . S
C2340 C2345 1.363 . S
C2341 H2312 0.950 . S
C2341 C2340 1.397 . S
C2341 C2342 1.334 . S
C2342 H2313 0.950 . S
C2342 C2341 1.334 . S
C2342 C2343 1.287 . S
C2343 C2342 1.287 . S
C2343 C2344 1.524 . S
C2343 H2346 0.999 . S
C2344 H2314 0.950 . S
C2344 C2343 1.524 . S
C2344 C2345 1.415 . S
C2345 H2315 0.950 . S
C2345 C2340 1.363 . S
C2345 C2344 1.415 . S
H2346 C2343 0.999 . S
H2347 C2328 0.913 . S
H2348 C2366 0.951 . S
H2349 C2368 0.951 . S
H2350 C2370 0.950 . S
H2351 C2371 0.950 . S
H2352 C2373 0.950 . S
H2353 C2376 0.950 . S
H2354 C2377 0.950 . S
H2355 C2379 0.950 . S
H2356 C2380 0.950 . S
H2357 C2381 0.951 . S
H2358 C2383 0.951 . S
H2359 C2385 0.950 . S
H2360 C2386 0.950 . S
H2361 C2388 0.950 . S
H2362 C2391 0.950 . S
H2363 C2392 0.950 . S
H2364 C2394 0.950 . S
H2365 C2395 0.950 . S
C2366 H2348 0.951 . S
C2366 C2367 1.366 . S
C2366 C2368 1.388 . S
C2367 C2366 1.366 . S
C2367 C2371 1.385 . S
C2368 H2349 0.951 . S
C2368 C2366 1.388 . S
C2368 C2369 1.366 . S
C2369 C2368 1.366 . S
C2369 C2370 1.414 . S
C2369 C2372 1.499 . S
C2370 H2350 0.950 . S
C2370 C2369 1.414 . S
C2370 C2371 1.374 . S
C2371 H2351 0.950 . S
C2371 C2367 1.385 . S
C2371 C2370 1.374 . S
C2372 C2369 1.499 . S
C2372 C2373 1.373 . S
C2372 C2374 1.389 . S
C2373 H2352 0.950 . S
C2373 C2372 1.373 . S
C2373 C2389 1.377 . S
C2374 C2372 1.389 . S
C2374 C2375 1.524 . S
C2374 C2388 1.377 . S
C2375 C2374 1.524 . S
C2375 C2376 1.397 . S
C2375 C2380 1.363 . S
C2376 H2353 0.950 . S
C2376 C2375 1.397 . S
C2376 C2377 1.334 . S
C2377 H2354 0.950 . S
C2377 C2376 1.334 . S
C2377 C2378 1.287 . S
C2378 C2377 1.287 . S
C2378 C2379 1.524 . S
C2378 H2397 0.913 . S
C2379 H2355 0.950 . S
C2379 C2378 1.524 . S
C2379 C2380 1.415 . S
C2380 H2356 0.950 . S
C2380 C2375 1.363 . S
C2380 C2379 1.415 . S
C2381 H2357 0.951 . S
C2381 C2382 1.366 . S
C2381 C2383 1.388 . S
C2382 C2381 1.366 . S
C2382 C2386 1.385 . S
C2383 H2358 0.951 . S
C2383 C2381 1.388 . S
C2383 C2384 1.366 . S
C2384 C2383 1.366 . S
C2384 C2385 1.414 . S
C2384 C2387 1.499 . S
C2385 H2359 0.950 . S
C2385 C2384 1.414 . S
C2385 C2386 1.374 . S
C2386 H2360 0.950 . S
C2386 C2382 1.385 . S
C2386 C2385 1.374 . S
C2387 C2384 1.499 . S
C2387 C2388 1.373 . S
C2387 C2389 1.389 . S
C2388 H2361 0.950 . S
C2388 C2374 1.377 . S
C2388 C2387 1.373 . S
C2389 C2373 1.377 . S
C2389 C2387 1.389 . S
C2389 C2390 1.524 . S
C2390 C2389 1.524 . S
C2390 C2391 1.397 . S
C2390 C2395 1.363 . S
C2391 H2362 0.950 . S
C2391 C2390 1.397 . S
C2391 C2392 1.334 . S
C2392 H2363 0.950 . S
C2392 C2391 1.334 . S
C2392 C2393 1.287 . S
C2393 C2392 1.287 . S
C2393 C2394 1.524 . S
C2393 H2396 0.999 . S
C2394 H2364 0.950 . S
C2394 C2393 1.524 . S
C2394 C2395 1.415 . S
C2395 H2365 0.950 . S
C2395 C2390 1.363 . S
C2395 C2394 1.415 . S
H2396 C2393 0.999 . S
H2397 C2378 0.913 . S
H2398 C2416 0.951 . S
H2399 C2418 0.951 . S
H2400 C2420 0.950 . S
H2401 C2421 0.950 . S
H2402 C2423 0.950 . S
H2403 C2426 0.950 . S
H2404 C2427 0.950 . S
H2405 C2429 0.950 . S
H2406 C2430 0.950 . S
H2407 C2431 0.951 . S
H2408 C2433 0.951 . S
H2409 C2435 0.950 . S
H2410 C2436 0.950 . S
H2411 C2438 0.950 . S
H2412 C2441 0.950 . S
H2413 C2442 0.950 . S
H2414 C2444 0.950 . S
H2415 C2445 0.950 . S
C2416 H2398 0.951 . S
C2416 C2417 1.366 . S
C2416 C2418 1.388 . S
C2417 C2416 1.366 . S
C2417 C2421 1.385 . S
C2418 H2399 0.951 . S
C2418 C2416 1.388 . S
C2418 C2419 1.366 . S
C2419 C2418 1.366 . S
C2419 C2420 1.414 . S
C2419 C2422 1.499 . S
C2420 H2400 0.950 . S
C2420 C2419 1.414 . S
C2420 C2421 1.374 . S
C2421 H2401 0.950 . S
C2421 C2417 1.385 . S
C2421 C2420 1.374 . S
C2422 C2419 1.499 . S
C2422 C2423 1.373 . S
C2422 C2424 1.389 . S
C2423 H2402 0.950 . S
C2423 C2422 1.373 . S
C2423 C2439 1.377 . S
C2424 C2422 1.389 . S
C2424 C2425 1.524 . S
C2424 C2438 1.377 . S
C2425 C2424 1.524 . S
C2425 C2426 1.397 . S
C2425 C2430 1.363 . S
C2426 H2403 0.950 . S
C2426 C2425 1.397 . S
C2426 C2427 1.334 . S
C2427 H2404 0.950 . S
C2427 C2426 1.334 . S
C2427 C2428 1.287 . S
C2428 C2427 1.287 . S
C2428 C2429 1.524 . S
C2428 H2447 0.913 . S
C2429 H2405 0.950 . S
C2429 C2428 1.524 . S
C2429 C2430 1.415 . S
C2430 H2406 0.950 . S
C2430 C2425 1.363 . S
C2430 C2429 1.415 . S
C2431 H2407 0.951 . S
C2431 C2432 1.366 . S
C2431 C2433 1.388 . S
C2432 C2431 1.366 . S
C2432 C2436 1.385 . S
C2433 H2408 0.951 . S
C2433 C2431 1.388 . S
C2433 C2434 1.366 . S
C2434 C2433 1.366 . S
C2434 C2435 1.414 . S
C2434 C2437 1.499 . S
C2435 H2409 0.950 . S
C2435 C2434 1.414 . S
C2435 C2436 1.374 . S
C2436 H2410 0.950 . S
C2436 C2432 1.385 . S
C2436 C2435 1.374 . S
C2437 C2434 1.499 . S
C2437 C2438 1.373 . S
C2437 C2439 1.389 . S
C2438 H2411 0.950 . S
C2438 C2424 1.377 . S
C2438 C2437 1.373 . S
C2439 C2423 1.377 . S
C2439 C2437 1.389 . S
C2439 C2440 1.524 . S
C2440 C2439 1.524 . S
C2440 C2441 1.397 . S
C2440 C2445 1.363 . S
C2441 H2412 0.950 . S
C2441 C2440 1.397 . S
C2441 C2442 1.334 . S
C2442 H2413 0.950 . S
C2442 C2441 1.334 . S
C2442 C2443 1.287 . S
C2443 C2442 1.287 . S
C2443 C2444 1.524 . S
C2443 H2446 0.999 . S
C2444 H2414 0.950 . S
C2444 C2443 1.524 . S
C2444 C2445 1.415 . S
C2445 H2415 0.950 . S
C2445 C2440 1.363 . S
C2445 C2444 1.415 . S
H2446 C2443 0.999 . S
H2447 C2428 0.913 . S
H2448 C2466 0.951 . S
H2449 C2468 0.951 . S
H2450 C2470 0.950 . S
H2451 C2471 0.950 . S
H2452 C2473 0.950 . S
H2453 C2476 0.950 . S
H2454 C2477 0.950 . S
H2455 C2479 0.950 . S
H2456 C2480 0.950 . S
H2457 C2481 0.951 . S
H2458 C2483 0.951 . S
H2459 C2485 0.950 . S
H2460 C2486 0.950 . S
H2461 C2488 0.950 . S
H2462 C2491 0.950 . S
H2463 C2492 0.950 . S
H2464 C2494 0.950 . S
H2465 C2495 0.950 . S
C2466 H2448 0.951 . S
C2466 C2467 1.366 . S
C2466 C2468 1.388 . S
C2467 C2466 1.366 . S
C2467 C2471 1.385 . S
C2468 H2449 0.951 . S
C2468 C2466 1.388 . S
C2468 C2469 1.366 . S
C2469 C2468 1.366 . S
C2469 C2470 1.414 . S
C2469 C2472 1.499 . S
C2470 H2450 0.950 . S
C2470 C2469 1.414 . S
C2470 C2471 1.374 . S
C2471 H2451 0.950 . S
C2471 C2467 1.385 . S
C2471 C2470 1.374 . S
C2472 C2469 1.499 . S
C2472 C2473 1.373 . S
C2472 C2474 1.389 . S
C2473 H2452 0.950 . S
C2473 C2472 1.373 . S
C2473 C2489 1.377 . S
C2474 C2472 1.389 . S
C2474 C2475 1.524 . S
C2474 C2488 1.377 . S
C2475 C2474 1.524 . S
C2475 C2476 1.397 . S
C2475 C2480 1.363 . S
C2476 H2453 0.950 . S
C2476 C2475 1.397 . S
C2476 C2477 1.334 . S
C2477 H2454 0.950 . S
C2477 C2476 1.334 . S
C2477 C2478 1.287 . S
C2478 C2477 1.287 . S
C2478 C2479 1.524 . S
C2478 H2497 0.913 . S
C2479 H2455 0.950 . S
C2479 C2478 1.524 . S
C2479 C2480 1.415 . S
C2480 H2456 0.950 . S
C2480 C2475 1.363 . S
C2480 C2479 1.415 . S
C2481 H2457 0.951 . S
C2481 C2482 1.366 . S
C2481 C2483 1.388 . S
C2482 C2481 1.366 . S
C2482 C2486 1.385 . S
C2483 H2458 0.951 . S
C2483 C2481 1.388 . S
C2483 C2484 1.366 . S
C2484 C2483 1.366 . S
C2484 C2485 1.414 . S
C2484 C2487 1.499 . S
C2485 H2459 0.950 . S
C2485 C2484 1.414 . S
C2485 C2486 1.374 . S
C2486 H2460 0.950 . S
C2486 C2482 1.385 . S
C2486 C2485 1.374 . S
C2487 C2484 1.499 . S
C2487 C2488 1.373 . S
C2487 C2489 1.389 . S
C2488 H2461 0.950 . S
C2488 C2474 1.377 . S
C2488 C2487 1.373 . S
C2489 C2473 1.377 . S
C2489 C2487 1.389 . S
C2489 C2490 1.524 . S
C2490 C2489 1.524 . S
C2490 C2491 1.397 . S
C2490 C2495 1.363 . S
C2491 H2462 0.950 . S
C2491 C2490 1.397 . S
C2491 C2492 1.334 . S
C2492 H2463 0.950 . S
C2492 C2491 1.334 . S
C2492 C2493 1.287 . S
C2493 C2492 1.287 . S
C2493 C2494 1.524 . S
C2493 H2496 0.999 . S
C2494 H2464 0.950 . S
C2494 C2493 1.524 . S
C2494 C2495 1.415 . S
C2495 H2465 0.950 . S
C2495 C2490 1.363 . S
C2495 C2494 1.415 . S
H2496 C2493 0.999 . S
H2497 C2478 0.913 . S
H2498 C2516 0.951 . S
H2499 C2518 0.951 . S
H2500 C2520 0.950 . S
H2501 C2521 0.950 . S
H2502 C2523 0.950 . S
H2503 C2526 0.950 . S
H2504 C2527 0.950 . S
H2505 C2529 0.950 . S
H2506 C2530 0.950 . S
H2507 C2531 0.951 . S
H2508 C2533 0.951 . S
H2509 C2535 0.950 . S
H2510 C2536 0.950 . S
H2511 C2538 0.950 . S
H2512 C2541 0.950 . S
H2513 C2542 0.950 . S
H2514 C2544 0.950 1_554 S
H2515 C2545 0.950 . S
C2516 H2498 0.951 . S
C2516 C2517 1.366 . S
C2516 C2518 1.388 . S
C2517 C2516 1.366 . S
C2517 C2521 1.385 . S
C2518 H2499 0.951 . S
C2518 C2516 1.388 . S
C2518 C2519 1.366 . S
C2519 C2518 1.366 . S
C2519 C2520 1.414 . S
C2519 C2522 1.499 . S
C2520 H2500 0.950 . S
C2520 C2519 1.414 . S
C2520 C2521 1.374 . S
C2521 H2501 0.950 . S
C2521 C2517 1.385 . S
C2521 C2520 1.374 . S
C2522 C2519 1.499 . S
C2522 C2523 1.373 . S
C2522 C2524 1.389 . S
C2523 H2502 0.950 . S
C2523 C2522 1.373 . S
C2523 C2539 1.377 . S
C2524 C2522 1.389 . S
C2524 C2525 1.524 . S
C2524 C2538 1.377 . S
C2525 C2524 1.524 . S
C2525 C2526 1.397 . S
C2525 C2530 1.363 . S
C2526 H2503 0.950 . S
C2526 C2525 1.397 . S
C2526 C2527 1.334 . S
C2527 H2504 0.950 . S
C2527 C2526 1.334 . S
C2527 C2528 1.287 . S
C2528 C2527 1.287 . S
C2528 C2529 1.524 . S
C2528 H2547 0.913 . S
C2529 H2505 0.950 . S
C2529 C2528 1.524 . S
C2529 C2530 1.415 . S
C2530 H2506 0.950 . S
C2530 C2525 1.363 . S
C2530 C2529 1.415 . S
C2531 H2507 0.951 . S
C2531 C2532 1.366 . S
C2531 C2533 1.388 . S
C2532 C2531 1.366 . S
C2532 C2536 1.385 . S
C2533 H2508 0.951 . S
C2533 C2531 1.388 . S
C2533 C2534 1.366 . S
C2534 C2533 1.366 . S
C2534 C2535 1.414 . S
C2534 C2537 1.499 . S
C2535 H2509 0.950 . S
C2535 C2534 1.414 . S
C2535 C2536 1.374 . S
C2536 H2510 0.950 . S
C2536 C2532 1.385 . S
C2536 C2535 1.374 . S
C2537 C2534 1.499 . S
C2537 C2538 1.373 . S
C2537 C2539 1.389 . S
C2538 H2511 0.950 . S
C2538 C2524 1.377 . S
C2538 C2537 1.373 . S
C2539 C2523 1.377 . S
C2539 C2537 1.389 . S
C2539 C2540 1.524 . S
C2540 C2539 1.524 . S
C2540 C2541 1.397 . S
C2540 C2545 1.363 . S
C2541 H2512 0.950 . S
C2541 C2540 1.397 . S
C2541 C2542 1.334 . S
C2542 H2513 0.950 . S
C2542 C2541 1.334 . S
C2542 C2543 1.287 . S
C2543 C2542 1.287 . S
C2543 C2544 1.524 . S
C2543 H2546 0.999 . S
C2544 H2514 0.950 1_556 S
C2544 C2543 1.524 . S
C2544 C2545 1.415 . S
C2545 H2515 0.950 . S
C2545 C2540 1.363 . S
C2545 C2544 1.415 . S
H2546 C2543 0.999 . S
H2547 C2528 0.913 . S
H2548 C2566 0.951 . S
H2549 C2568 0.951 . S
H2550 C2570 0.950 . S
H2551 C2571 0.950 . S
H2552 C2573 0.950 . S
H2553 C2576 0.950 . S
H2554 C2577 0.950 . S
H2555 C2579 0.950 . S
H2556 C2580 0.950 . S
H2557 C2581 0.951 . S
H2558 C2583 0.951 . S
H2559 C2585 0.950 . S
H2560 C2586 0.950 . S
H2561 C2588 0.950 . S
H2562 C2591 0.950 . S
H2563 C2592 0.950 . S
H2564 C2594 0.950 . S
H2565 C2595 0.950 . S
C2566 H2548 0.951 . S
C2566 C2567 1.366 . S
C2566 C2568 1.388 . S
C2567 C2566 1.366 . S
C2567 C2571 1.385 . S
C2568 H2549 0.951 . S
C2568 C2566 1.388 . S
C2568 C2569 1.366 . S
C2569 C2568 1.366 . S
C2569 C2570 1.414 . S
C2569 C2572 1.499 . S
C2570 H2550 0.950 . S
C2570 C2569 1.414 . S
C2570 C2571 1.374 . S
C2571 H2551 0.950 . S
C2571 C2567 1.385 . S
C2571 C2570 1.374 . S
C2572 C2569 1.499 . S
C2572 C2573 1.373 . S
C2572 C2574 1.389 . S
C2573 H2552 0.950 . S
C2573 C2572 1.373 . S
C2573 C2589 1.377 . S
C2574 C2572 1.389 . S
C2574 C2575 1.524 . S
C2574 C2588 1.377 . S
C2575 C2574 1.524 . S
C2575 C2576 1.397 . S
C2575 C2580 1.363 . S
C2576 H2553 0.950 . S
C2576 C2575 1.397 . S
C2576 C2577 1.334 . S
C2577 H2554 0.950 . S
C2577 C2576 1.334 . S
C2577 C2578 1.287 . S
C2578 C2577 1.287 . S
C2578 C2579 1.524 . S
C2578 H2597 0.913 . S
C2579 H2555 0.950 . S
C2579 C2578 1.524 . S
C2579 C2580 1.415 . S
C2580 H2556 0.950 . S
C2580 C2575 1.363 . S
C2580 C2579 1.415 . S
C2581 H2557 0.951 . S
C2581 C2582 1.366 . S
C2581 C2583 1.388 . S
C2582 C2581 1.366 . S
C2582 C2586 1.385 . S
C2583 H2558 0.951 . S
C2583 C2581 1.388 . S
C2583 C2584 1.366 . S
C2584 C2583 1.366 . S
C2584 C2585 1.414 . S
C2584 C2587 1.499 . S
C2585 H2559 0.950 . S
C2585 C2584 1.414 . S
C2585 C2586 1.374 . S
C2586 H2560 0.950 . S
C2586 C2582 1.385 . S
C2586 C2585 1.374 . S
C2587 C2584 1.499 . S
C2587 C2588 1.373 . S
C2587 C2589 1.389 . S
C2588 H2561 0.950 . S
C2588 C2574 1.377 . S
C2588 C2587 1.373 . S
C2589 C2573 1.377 . S
C2589 C2587 1.389 . S
C2589 C2590 1.524 . S
C2590 C2589 1.524 . S
C2590 C2591 1.397 . S
C2590 C2595 1.363 . S
C2591 H2562 0.950 . S
C2591 C2590 1.397 . S
C2591 C2592 1.334 . S
C2592 H2563 0.950 . S
C2592 C2591 1.334 . S
C2592 C2593 1.287 . S
C2593 C2592 1.287 . S
C2593 C2594 1.524 . S
C2593 H2596 0.999 . S
C2594 H2564 0.950 . S
C2594 C2593 1.524 . S
C2594 C2595 1.415 . S
C2595 H2565 0.950 . S
C2595 C2590 1.363 . S
C2595 C2594 1.415 . S
H2596 C2593 0.999 . S
H2597 C2578 0.913 . S
H2598 C2616 0.951 . S
H2599 C2618 0.951 . S
H2600 C2620 0.950 . S
H2601 C2621 0.950 . S
H2602 C2623 0.950 . S
H2603 C2626 0.950 . S
H2604 C2627 0.950 . S
H2605 C2629 0.950 . S
H2606 C2630 0.950 . S
H2607 C2631 0.951 . S
H2608 C2633 0.951 . S
H2609 C2635 0.950 . S
H2610 C2636 0.950 . S
H2611 C2638 0.950 1_655 S
H2612 C2641 0.950 . S
H2613 C2642 0.950 . S
H2614 C2644 0.950 . S
H2615 C2645 0.950 . S
C2616 H2598 0.951 . S
C2616 C2617 1.366 . S
C2616 C2618 1.388 . S
C2617 C2616 1.366 . S
C2617 C2621 1.385 . S
C2618 H2599 0.951 . S
C2618 C2616 1.388 . S
C2618 C2619 1.366 . S
C2619 C2618 1.366 . S
C2619 C2620 1.414 . S
C2619 C2622 1.499 . S
C2620 H2600 0.950 . S
C2620 C2619 1.414 . S
C2620 C2621 1.374 . S
C2621 H2601 0.950 . S
C2621 C2617 1.385 . S
C2621 C2620 1.374 . S
C2622 C2619 1.499 . S
C2622 C2623 1.373 . S
C2622 C2624 1.389 . S
C2623 H2602 0.950 . S
C2623 C2622 1.373 . S
C2623 C2639 1.377 . S
C2624 C2622 1.389 . S
C2624 C2625 1.524 . S
C2624 C2638 1.377 . S
C2625 C2624 1.524 . S
C2625 C2626 1.397 . S
C2625 C2630 1.363 . S
C2626 H2603 0.950 . S
C2626 C2625 1.397 . S
C2626 C2627 1.334 . S
C2627 H2604 0.950 . S
C2627 C2626 1.334 . S
C2627 C2628 1.287 . S
C2628 C2627 1.287 . S
C2628 C2629 1.524 . S
C2628 H2647 0.913 . S
C2629 H2605 0.950 . S
C2629 C2628 1.524 . S
C2629 C2630 1.415 . S
C2630 H2606 0.950 . S
C2630 C2625 1.363 . S
C2630 C2629 1.415 . S
C2631 H2607 0.951 . S
C2631 C2632 1.366 . S
C2631 C2633 1.388 . S
C2632 C2631 1.366 . S
C2632 C2636 1.385 . S
C2633 H2608 0.951 . S
C2633 C2631 1.388 . S
C2633 C2634 1.366 . S
C2634 C2633 1.366 . S
C2634 C2635 1.414 . S
C2634 C2637 1.499 . S
C2635 H2609 0.950 . S
C2635 C2634 1.414 . S
C2635 C2636 1.374 . S
C2636 H2610 0.950 . S
C2636 C2632 1.385 . S
C2636 C2635 1.374 . S
C2637 C2634 1.499 . S
C2637 C2638 1.373 1_655 S
C2637 C2639 1.389 1_655 S
C2638 H2611 0.950 1_455 S
C2638 C2624 1.377 . S
C2638 C2637 1.373 1_455 S
C2639 C2623 1.377 . S
C2639 C2637 1.389 1_455 S
C2639 C2640 1.524 1_455 S
C2640 C2639 1.524 1_655 S
C2640 C2641 1.397 . S
C2640 C2645 1.363 1_655 S
C2641 H2612 0.950 . S
C2641 C2640 1.397 . S
C2641 C2642 1.334 . S
C2642 H2613 0.950 . S
C2642 C2641 1.334 . S
C2642 C2643 1.287 . S
C2643 C2642 1.287 . S
C2643 C2644 1.524 . S
C2643 H2646 0.999 . S
C2644 H2614 0.950 . S
C2644 C2643 1.524 . S
C2644 C2645 1.415 1_655 S
C2645 H2615 0.950 . S
C2645 C2640 1.363 1_455 S
C2645 C2644 1.415 1_455 S
H2646 C2643 0.999 . S
H2647 C2628 0.913 . S
H2648 C2666 0.951 . S
H2649 C2668 0.951 . S
H2650 C2670 0.950 . S
H2651 C2671 0.950 . S
H2652 C2673 0.950 . S
H2653 C2676 0.950 . S
H2654 C2677 0.950 . S
H2655 C2679 0.950 . S
H2656 C2680 0.950 . S
H2657 C2681 0.951 . S
H2658 C2683 0.951 . S
H2659 C2685 0.950 . S
H2660 C2686 0.950 . S
H2661 C2688 0.950 . S
H2662 C2691 0.950 . S
H2663 C2692 0.950 . S
H2664 C2694 0.950 . S
H2665 C2695 0.950 . S
C2666 H2648 0.951 . S
C2666 C2667 1.366 . S
C2666 C2668 1.388 . S
C2667 C2666 1.366 . S
C2667 C2671 1.385 . S
C2668 H2649 0.951 . S
C2668 C2666 1.388 . S
C2668 C2669 1.366 . S
C2669 C2668 1.366 . S
C2669 C2670 1.414 . S
C2669 C2672 1.499 . S
C2670 H2650 0.950 . S
C2670 C2669 1.414 . S
C2670 C2671 1.374 . S
C2671 H2651 0.950 . S
C2671 C2667 1.385 . S
C2671 C2670 1.374 . S
C2672 C2669 1.499 . S
C2672 C2673 1.373 . S
C2672 C2674 1.389 . S
C2673 H2652 0.950 . S
C2673 C2672 1.373 . S
C2673 C2689 1.377 . S
C2674 C2672 1.389 . S
C2674 C2675 1.524 . S
C2674 C2688 1.377 . S
C2675 C2674 1.524 . S
C2675 C2676 1.397 . S
C2675 C2680 1.363 . S
C2676 H2653 0.950 . S
C2676 C2675 1.397 . S
C2676 C2677 1.334 . S
C2677 H2654 0.950 . S
C2677 C2676 1.334 . S
C2677 C2678 1.287 . S
C2678 C2677 1.287 . S
C2678 C2679 1.524 . S
C2678 H2697 0.913 . S
C2679 H2655 0.950 . S
C2679 C2678 1.524 . S
C2679 C2680 1.415 . S
C2680 H2656 0.950 . S
C2680 C2675 1.363 . S
C2680 C2679 1.415 . S
C2681 H2657 0.951 . S
C2681 C2682 1.366 . S
C2681 C2683 1.388 . S
C2682 C2681 1.366 . S
C2682 C2686 1.385 . S
C2683 H2658 0.951 . S
C2683 C2681 1.388 . S
C2683 C2684 1.366 . S
C2684 C2683 1.366 . S
C2684 C2685 1.414 . S
C2684 C2687 1.499 . S
C2685 H2659 0.950 . S
C2685 C2684 1.414 . S
C2685 C2686 1.374 . S
C2686 H2660 0.950 . S
C2686 C2682 1.385 . S
C2686 C2685 1.374 . S
C2687 C2684 1.499 . S
C2687 C2688 1.373 . S
C2687 C2689 1.389 . S
C2688 H2661 0.950 . S
C2688 C2674 1.377 . S
C2688 C2687 1.373 . S
C2689 C2673 1.377 . S
C2689 C2687 1.389 . S
C2689 C2690 1.524 . S
C2690 C2689 1.524 . S
C2690 C2691 1.397 . S
C2690 C2695 1.363 . S
C2691 H2662 0.950 . S
C2691 C2690 1.397 . S
C2691 C2692 1.334 . S
C2692 H2663 0.950 . S
C2692 C2691 1.334 . S
C2692 C2693 1.287 . S
C2693 C2692 1.287 . S
C2693 C2694 1.524 . S
C2693 H2696 0.999 . S
C2694 H2664 0.950 . S
C2694 C2693 1.524 . S
C2694 C2695 1.415 . S
C2695 H2665 0.950 . S
C2695 C2690 1.363 . S
C2695 C2694 1.415 . S
H2696 C2693 0.999 . S
H2697 C2678 0.913 . S
H2698 C2716 0.951 . S
H2699 C2718 0.951 . S
H2700 C2720 0.950 . S
H2701 C2721 0.950 . S
H2702 C2723 0.925 1_655 S
H2703 C2726 0.950 . S
H2704 C2727 0.950 . S
H2705 C2729 0.950 . S
H2706 C2730 0.950 1_455 S
H2707 C2731 0.951 . S
H2708 C2733 0.951 . S
H2709 C2735 0.950 . S
H2710 C2736 0.950 . S
H2711 C2738 0.950 . S
H2712 C2741 0.950 . S
H2713 C2742 0.950 . S
H2714 C2744 0.950 . S
H2715 C2745 0.950 . S
C2716 H2698 0.951 . S
C2716 C2717 1.366 . S
C2716 C2718 1.388 . S
C2717 C2716 1.366 . S
C2717 C2721 1.385 . S
C2718 H2699 0.951 . S
C2718 C2716 1.388 . S
C2718 C2719 1.366 . S
C2719 C2718 1.366 . S
C2719 C2720 1.414 . S
C2719 C2722 1.499 . S
C2720 H2700 0.950 . S
C2720 C2719 1.414 . S
C2720 C2721 1.374 . S
C2721 H2701 0.950 . S
C2721 C2717 1.385 . S
C2721 C2720 1.374 . S
C2722 C2719 1.499 . S
C2722 C2723 1.373 1_655 S
C2722 C2724 1.389 1_655 S
C2723 H2702 0.925 1_455 S
C2723 C2722 1.373 1_455 S
C2723 C2739 1.377 . S
C2724 C2722 1.389 1_455 S
C2724 C2725 1.524 1_455 S
C2724 C2738 1.377 . S
C2725 C2724 1.524 1_655 S
C2725 C2726 1.397 . S
C2725 C2730 1.363 . S
C2726 H2703 0.950 . S
C2726 C2725 1.397 . S
C2726 C2727 1.334 . S
C2727 H2704 0.950 . S
C2727 C2726 1.334 . S
C2727 C2728 1.287 . S
C2728 C2727 1.287 . S
C2728 C2729 1.524 . S
C2728 H2747 0.913 . S
C2729 H2705 0.950 . S
C2729 C2728 1.524 . S
C2729 C2730 1.415 . S
C2730 H2706 0.950 1_655 S
C2730 C2725 1.363 . S
C2730 C2729 1.415 . S
C2731 H2707 0.951 . S
C2731 C2732 1.366 . S
C2731 C2733 1.388 . S
C2732 C2731 1.366 . S
C2732 C2736 1.385 . S
C2733 H2708 0.951 . S
C2733 C2731 1.388 . S
C2733 C2734 1.366 . S
C2734 C2733 1.366 . S
C2734 C2735 1.414 . S
C2734 C2737 1.499 . S
C2735 H2709 0.950 . S
C2735 C2734 1.414 . S
C2735 C2736 1.374 . S
C2736 H2710 0.950 . S
C2736 C2732 1.385 . S
C2736 C2735 1.374 . S
C2737 C2734 1.499 . S
C2737 C2738 1.373 . S
C2737 C2739 1.389 . S
C2738 H2711 0.950 . S
C2738 C2724 1.377 . S
C2738 C2737 1.373 . S
C2739 C2723 1.377 . S
C2739 C2737 1.389 . S
C2739 C2740 1.524 . S
C2740 C2739 1.524 . S
C2740 C2741 1.397 . S
C2740 C2745 1.363 . S
C2741 H2712 0.950 . S
C2741 C2740 1.397 . S
C2741 C2742 1.334 . S
C2742 H2713 0.950 . S
C2742 C2741 1.334 . S
C2742 C2743 1.287 . S
C2743 C2742 1.287 . S
C2743 C2744 1.524 . S
C2743 H2746 0.999 . S
C2744 H2714 0.950 . S
C2744 C2743 1.524 . S
C2744 C2745 1.415 . S
C2745 H2715 0.950 . S
C2745 C2740 1.363 . S
C2745 C2744 1.415 . S
H2746 C2743 0.999 . S
H2747 C2728 0.913 . S
H2748 C2766 0.951 . S
H2749 C2768 0.951 . S
H2750 C2770 0.950 . S
H2751 C2771 0.950 . S
H2752 C2773 0.950 . S
H2753 C2776 0.950 . S
H2754 C2777 0.950 . S
H2755 C2779 0.950 . S
H2756 C2780 0.950 . S
H2757 C2781 0.951 . S
H2758 C2783 0.951 . S
H2759 C2785 0.950 . S
H2760 C2786 0.950 . S
H2761 C2788 0.950 . S
H2762 C2791 0.950 . S
H2763 C2792 0.950 . S
H2764 C2794 0.950 . S
H2765 C2795 0.950 . S
C2766 H2748 0.951 . S
C2766 C2767 1.366 . S
C2766 C2768 1.388 . S
C2767 C2766 1.366 . S
C2767 C2771 1.385 . S
C2768 H2749 0.951 . S
C2768 C2766 1.388 . S
C2768 C2769 1.366 . S
C2769 C2768 1.366 . S
C2769 C2770 1.414 . S
C2769 C2772 1.499 . S
C2770 H2750 0.950 . S
C2770 C2769 1.414 . S
C2770 C2771 1.374 . S
C2771 H2751 0.950 . S
C2771 C2767 1.385 . S
C2771 C2770 1.374 . S
C2772 C2769 1.499 . S
C2772 C2773 1.373 . S
C2772 C2774 1.389 . S
C2773 H2752 0.950 . S
C2773 C2772 1.373 . S
C2773 C2789 1.377 . S
C2774 C2772 1.389 . S
C2774 C2775 1.524 . S
C2774 C2788 1.377 . S
C2775 C2774 1.524 . S
C2775 C2776 1.397 . S
C2775 C2780 1.363 . S
C2776 H2753 0.950 . S
C2776 C2775 1.397 . S
C2776 C2777 1.334 . S
C2777 H2754 0.950 . S
C2777 C2776 1.334 . S
C2777 C2778 1.287 . S
C2778 C2777 1.287 . S
C2778 C2779 1.524 . S
C2778 H2797 0.913 . S
C2779 H2755 0.950 . S
C2779 C2778 1.524 . S
C2779 C2780 1.415 . S
C2780 H2756 0.950 . S
C2780 C2775 1.363 . S
C2780 C2779 1.415 . S
C2781 H2757 0.951 . S
C2781 C2782 1.366 . S
C2781 C2783 1.388 . S
C2782 C2781 1.366 . S
C2782 C2786 1.385 . S
C2783 H2758 0.951 . S
C2783 C2781 1.388 . S
C2783 C2784 1.366 . S
C2784 C2783 1.366 . S
C2784 C2785 1.414 . S
C2784 C2787 1.499 . S
C2785 H2759 0.950 . S
C2785 C2784 1.414 . S
C2785 C2786 1.374 . S
C2786 H2760 0.950 . S
C2786 C2782 1.385 . S
C2786 C2785 1.374 . S
C2787 C2784 1.499 . S
C2787 C2788 1.373 . S
C2787 C2789 1.389 . S
C2788 H2761 0.950 . S
C2788 C2774 1.377 . S
C2788 C2787 1.373 . S
C2789 C2773 1.377 . S
C2789 C2787 1.389 . S
C2789 C2790 1.524 . S
C2790 C2789 1.524 . S
C2790 C2791 1.397 . S
C2790 C2795 1.363 . S
C2791 H2762 0.950 . S
C2791 C2790 1.397 . S
C2791 C2792 1.334 . S
C2792 H2763 0.950 . S
C2792 C2791 1.334 . S
C2792 C2793 1.287 . S
C2793 C2792 1.287 . S
C2793 C2794 1.524 . S
C2793 H2796 0.999 . S
C2794 H2764 0.950 . S
C2794 C2793 1.524 . S
C2794 C2795 1.415 . S
C2795 H2765 0.950 . S
C2795 C2790 1.363 . S
C2795 C2794 1.415 . S
H2796 C2793 0.999 . S
H2797 C2778 0.913 . S
H2798 C2816 0.951 . S
H2799 C2818 0.951 . S
H2800 C2820 0.950 . S
H2801 C2821 0.950 . S
H2802 C2823 0.950 . S
H2803 C2826 0.950 . S
H2804 C2827 0.950 . S
H2805 C2829 0.950 . S
H2806 C2830 0.950 . S
H2807 C2831 0.951 . S
H2808 C2833 0.951 . S
H2809 C2835 0.950 . S
H2810 C2836 0.950 . S
H2811 C2838 0.950 . S
H2812 C2841 0.950 . S
H2813 C2842 0.950 . S
H2814 C2844 0.950 . S
H2815 C2845 0.950 . S
C2816 H2798 0.951 . S
C2816 C2817 1.366 . S
C2816 C2818 1.388 . S
C2817 C2816 1.366 . S
C2817 C2821 1.385 . S
C2818 H2799 0.951 . S
C2818 C2816 1.388 . S
C2818 C2819 1.366 . S
C2819 C2818 1.366 . S
C2819 C2820 1.414 . S
C2819 C2822 1.499 . S
C2820 H2800 0.950 . S
C2820 C2819 1.414 . S
C2820 C2821 1.374 . S
C2821 H2801 0.950 . S
C2821 C2817 1.385 . S
C2821 C2820 1.374 . S
C2822 C2819 1.499 . S
C2822 C2823 1.373 . S
C2822 C2824 1.389 . S
C2823 H2802 0.950 . S
C2823 C2822 1.373 . S
C2823 C2839 1.377 . S
C2824 C2822 1.389 . S
C2824 C2825 1.524 . S
C2824 C2838 1.377 . S
C2825 C2824 1.524 . S
C2825 C2826 1.397 . S
C2825 C2830 1.363 . S
C2826 H2803 0.950 . S
C2826 C2825 1.397 . S
C2826 C2827 1.334 . S
C2827 H2804 0.950 . S
C2827 C2826 1.334 . S
C2827 C2828 1.287 . S
C2828 C2827 1.287 . S
C2828 C2829 1.524 . S
C2828 H2847 0.913 . S
C2829 H2805 0.950 . S
C2829 C2828 1.524 . S
C2829 C2830 1.415 . S
C2830 H2806 0.950 . S
C2830 C2825 1.363 . S
C2830 C2829 1.415 . S
C2831 H2807 0.951 . S
C2831 C2832 1.366 . S
C2831 C2833 1.388 . S
C2832 C2831 1.366 . S
C2832 C2836 1.385 . S
C2833 H2808 0.951 . S
C2833 C2831 1.388 . S
C2833 C2834 1.366 . S
C2834 C2833 1.366 . S
C2834 C2835 1.414 . S
C2834 C2837 1.499 . S
C2835 H2809 0.950 . S
C2835 C2834 1.414 . S
C2835 C2836 1.374 . S
C2836 H2810 0.950 . S
C2836 C2832 1.385 . S
C2836 C2835 1.374 . S
C2837 C2834 1.499 . S
C2837 C2838 1.373 . S
C2837 C2839 1.389 . S
C2838 H2811 0.950 . S
C2838 C2824 1.377 . S
C2838 C2837 1.373 . S
C2839 C2823 1.377 . S
C2839 C2837 1.389 . S
C2839 C2840 1.524 . S
C2840 C2839 1.524 . S
C2840 C2841 1.397 . S
C2840 C2845 1.363 . S
C2841 H2812 0.950 . S
C2841 C2840 1.397 . S
C2841 C2842 1.334 . S
C2842 H2813 0.950 . S
C2842 C2841 1.334 . S
C2842 C2843 1.287 . S
C2843 C2842 1.287 . S
C2843 C2844 1.524 . S
C2843 H2846 0.999 . S
C2844 H2814 0.950 . S
C2844 C2843 1.524 . S
C2844 C2845 1.415 . S
C2845 H2815 0.950 . S
C2845 C2840 1.363 . S
C2845 C2844 1.415 . S
H2846 C2843 0.999 . S
H2847 C2828 0.913 . S
H2848 C2866 0.951 . S
H2849 C2868 0.951 . S
H2850 C2870 0.950 . S
H2851 C2871 0.950 . S
H2852 C2873 0.950 . S
H2853 C2876 0.950 . S
H2854 C2877 0.950 . S
H2855 C2879 0.950 . S
H2856 C2880 0.950 . S
H2857 C2881 0.951 . S
H2858 C2883 0.951 . S
H2859 C2885 0.950 . S
H2860 C2886 0.950 . S
H2861 C2888 0.950 . S
H2862 C2891 0.950 . S
H2863 C2892 0.950 . S
H2864 C2894 0.950 . S
H2865 C2895 0.950 . S
C2866 H2848 0.951 . S
C2866 C2867 1.366 . S
C2866 C2868 1.388 . S
C2867 C2866 1.366 . S
C2867 C2871 1.385 . S
C2868 H2849 0.951 . S
C2868 C2866 1.388 . S
C2868 C2869 1.366 . S
C2869 C2868 1.366 . S
C2869 C2870 1.414 . S
C2869 C2872 1.499 . S
C2870 H2850 0.950 . S
C2870 C2869 1.414 . S
C2870 C2871 1.374 . S
C2871 H2851 0.950 . S
C2871 C2867 1.385 . S
C2871 C2870 1.374 . S
C2872 C2869 1.499 . S
C2872 C2873 1.373 . S
C2872 C2874 1.389 . S
C2873 H2852 0.950 . S
C2873 C2872 1.373 . S
C2873 C2889 1.377 . S
C2874 C2872 1.389 . S
C2874 C2875 1.524 . S
C2874 C2888 1.377 . S
C2875 C2874 1.524 . S
C2875 C2876 1.397 . S
C2875 C2880 1.363 . S
C2876 H2853 0.950 . S
C2876 C2875 1.397 . S
C2876 C2877 1.334 . S
C2877 H2854 0.950 . S
C2877 C2876 1.334 . S
C2877 C2878 1.287 . S
C2878 C2877 1.287 . S
C2878 C2879 1.524 . S
C2878 H2897 0.913 . S
C2879 H2855 0.950 . S
C2879 C2878 1.524 . S
C2879 C2880 1.415 . S
C2880 H2856 0.950 . S
C2880 C2875 1.363 . S
C2880 C2879 1.415 . S
C2881 H2857 0.951 . S
C2881 C2882 1.366 . S
C2881 C2883 1.388 . S
C2882 C2881 1.366 . S
C2882 C2886 1.385 . S
C2883 H2858 0.951 . S
C2883 C2881 1.388 . S
C2883 C2884 1.366 . S
C2884 C2883 1.366 . S
C2884 C2885 1.414 . S
C2884 C2887 1.499 . S
C2885 H2859 0.950 . S
C2885 C2884 1.414 . S
C2885 C2886 1.374 . S
C2886 H2860 0.950 . S
C2886 C2882 1.385 . S
C2886 C2885 1.374 . S
C2887 C2884 1.499 . S
C2887 C2888 1.373 . S
C2887 C2889 1.389 . S
C2888 H2861 0.950 . S
C2888 C2874 1.377 . S
C2888 C2887 1.373 . S
C2889 C2873 1.377 . S
C2889 C2887 1.389 . S
C2889 C2890 1.524 . S
C2890 C2889 1.524 . S
C2890 C2891 1.397 . S
C2890 C2895 1.363 . S
C2891 H2862 0.950 . S
C2891 C2890 1.397 . S
C2891 C2892 1.334 . S
C2892 H2863 0.950 . S
C2892 C2891 1.334 . S
C2892 C2893 1.287 . S
C2893 C2892 1.287 . S
C2893 C2894 1.524 . S
C2893 H2896 0.999 . S
C2894 H2864 0.950 . S
C2894 C2893 1.524 . S
C2894 C2895 1.415 . S
C2895 H2865 0.950 . S
C2895 C2890 1.363 . S
C2895 C2894 1.415 . S
H2896 C2893 0.999 . S
H2897 C2878 0.913 . S
H2898 C2916 0.951 . S
H2899 C2918 0.951 . S
H2900 C2920 0.950 . S
H2901 C2921 0.950 . S
H2902 C2923 0.950 . S
H2903 C2926 0.950 . S
H2904 C2927 0.950 . S
H2905 C2929 0.950 . S
H2906 C2930 0.950 . S
H2907 C2931 0.951 . S
H2908 C2933 0.951 . S
H2909 C2935 0.950 . S
H2910 C2936 0.950 . S
H2911 C2938 0.950 . S
H2912 C2941 0.950 . S
H2913 C2942 0.950 . S
H2914 C2944 0.950 . S
H2915 C2945 0.950 . S
C2916 H2898 0.951 . S
C2916 C2917 1.366 . S
C2916 C2918 1.388 . S
C2917 C2916 1.366 . S
C2917 C2921 1.385 . S
C2918 H2899 0.951 . S
C2918 C2916 1.388 . S
C2918 C2919 1.366 . S
C2919 C2918 1.366 . S
C2919 C2920 1.414 . S
C2919 C2922 1.499 . S
C2920 H2900 0.950 . S
C2920 C2919 1.414 . S
C2920 C2921 1.374 . S
C2921 H2901 0.950 . S
C2921 C2917 1.385 . S
C2921 C2920 1.374 . S
C2922 C2919 1.499 . S
C2922 C2923 1.373 . S
C2922 C2924 1.389 . S
C2923 H2902 0.950 . S
C2923 C2922 1.373 . S
C2923 C2939 1.377 . S
C2924 C2922 1.389 . S
C2924 C2925 1.524 . S
C2924 C2938 1.377 . S
C2925 C2924 1.524 . S
C2925 C2926 1.397 . S
C2925 C2930 1.363 . S
C2926 H2903 0.950 . S
C2926 C2925 1.397 . S
C2926 C2927 1.334 . S
C2927 H2904 0.950 . S
C2927 C2926 1.334 . S
C2927 C2928 1.287 . S
C2928 C2927 1.287 . S
C2928 C2929 1.524 . S
C2928 H2947 0.913 . S
C2929 H2905 0.950 . S
C2929 C2928 1.524 . S
C2929 C2930 1.415 . S
C2930 H2906 0.950 . S
C2930 C2925 1.363 . S
C2930 C2929 1.415 . S
C2931 H2907 0.951 . S
C2931 C2932 1.366 . S
C2931 C2933 1.388 1_554 S
C2932 C2931 1.366 . S
C2932 C2936 1.385 . S
C2933 H2908 0.951 . S
C2933 C2931 1.388 1_556 S
C2933 C2934 1.366 . S
C2934 C2933 1.366 . S
C2934 C2935 1.414 . S
C2934 C2937 1.499 . S
C2935 H2909 0.950 . S
C2935 C2934 1.414 . S
C2935 C2936 1.374 1_556 S
C2936 H2910 0.950 . S
C2936 C2932 1.385 . S
C2936 C2935 1.374 1_554 S
C2937 C2934 1.499 . S
C2937 C2938 1.373 . S
C2937 C2939 1.389 . S
C2938 H2911 0.950 . S
C2938 C2924 1.377 . S
C2938 C2937 1.373 . S
C2939 C2923 1.377 . S
C2939 C2937 1.389 . S
C2939 C2940 1.524 . S
C2940 C2939 1.524 . S
C2940 C2941 1.397 . S
C2940 C2945 1.363 . S
C2941 H2912 0.950 . S
C2941 C2940 1.397 . S
C2941 C2942 1.334 . S
C2942 H2913 0.950 . S
C2942 C2941 1.334 . S
C2942 C2943 1.287 . S
C2943 C2942 1.287 . S
C2943 C2944 1.524 . S
C2943 H2946 0.999 . S
C2944 H2914 0.950 . S
C2944 C2943 1.524 . S
C2944 C2945 1.415 . S
C2945 H2915 0.950 . S
C2945 C2940 1.363 . S
C2945 C2944 1.415 . S
H2946 C2943 0.999 . S
H2947 C2928 0.913 . S
H2948 C2966 0.951 1_556 S
H2949 C2968 0.951 . S
H2950 C2970 0.950 . S
H2951 C2971 0.950 . S
H2952 C2973 0.950 . S
H2953 C2976 0.950 . S
H2954 C2977 0.950 . S
H2955 C2979 0.950 . S
H2956 C2980 0.950 . S
H2957 C2981 0.951 . S
H2958 C2983 0.951 . S
H2959 C2985 0.950 . S
H2960 C2986 0.950 . S
H2961 C2988 0.950 . S
H2962 C2991 0.950 . S
H2963 C2992 0.950 . S
H2964 C2994 0.950 . S
H2965 C2995 0.950 . S
C2966 H2948 0.951 1_554 S
C2966 C2967 1.365 1_554 S
C2966 C2968 1.389 . S
C2967 C2966 1.365 1_556 S
C2967 C2971 1.385 . S
C2968 H2949 0.951 . S
C2968 C2966 1.389 . S
C2968 C2969 1.366 . S
C2969 C2968 1.366 . S
C2969 C2970 1.414 . S
C2969 C2972 1.499 . S
C2970 H2950 0.950 . S
C2970 C2969 1.414 . S
C2970 C2971 1.374 1_554 S
C2971 H2951 0.950 . S
C2971 C2967 1.385 . S
C2971 C2970 1.374 1_556 S
C2972 C2969 1.499 . S
C2972 C2973 1.373 . S
C2972 C2974 1.389 . S
C2973 H2952 0.950 . S
C2973 C2972 1.373 . S
C2973 C2989 1.377 . S
C2974 C2972 1.389 . S
C2974 C2975 1.524 . S
C2974 C2988 1.377 . S
C2975 C2974 1.524 . S
C2975 C2976 1.397 . S
C2975 C2980 1.363 . S
C2976 H2953 0.950 . S
C2976 C2975 1.397 . S
C2976 C2977 1.334 . S
C2977 H2954 0.950 . S
C2977 C2976 1.334 . S
C2977 C2978 1.287 . S
C2978 C2977 1.287 . S
C2978 C2979 1.524 . S
C2978 H2997 0.913 . S
C2979 H2955 0.950 . S
C2979 C2978 1.524 . S
C2979 C2980 1.415 . S
C2980 H2956 0.950 . S
C2980 C2975 1.363 . S
C2980 C2979 1.415 . S
C2981 H2957 0.951 . S
C2981 C2982 1.366 . S
C2981 C2983 1.388 . S
C2982 C2981 1.366 . S
C2982 C2986 1.385 . S
C2983 H2958 0.951 . S
C2983 C2981 1.388 . S
C2983 C2984 1.366 . S
C2984 C2983 1.366 . S
C2984 C2985 1.414 . S
C2984 C2987 1.499 . S
C2985 H2959 0.950 . S
C2985 C2984 1.414 . S
C2985 C2986 1.374 . S
C2986 H2960 0.950 . S
C2986 C2982 1.385 . S
C2986 C2985 1.374 . S
C2987 C2984 1.499 . S
C2987 C2988 1.373 . S
C2987 C2989 1.389 . S
C2988 H2961 0.950 . S
C2988 C2974 1.377 . S
C2988 C2987 1.373 . S
C2989 C2973 1.377 . S
C2989 C2987 1.389 . S
C2989 C2990 1.524 . S
C2990 C2989 1.524 . S
C2990 C2991 1.397 . S
C2990 C2995 1.363 . S
C2991 H2962 0.950 . S
C2991 C2990 1.397 . S
C2991 C2992 1.334 . S
C2992 H2963 0.950 . S
C2992 C2991 1.334 . S
C2992 C2993 1.287 . S
C2993 C2992 1.287 . S
C2993 C2994 1.524 . S
C2993 H2996 0.999 . S
C2994 H2964 0.950 . S
C2994 C2993 1.524 . S
C2994 C2995 1.415 . S
C2995 H2965 0.950 . S
C2995 C2990 1.363 . S
C2995 C2994 1.415 . S
H2996 C2993 0.999 . S
H2997 C2978 0.913 . S
H2998 C3016 0.951 . S
H2999 C3018 0.951 . S
H3000 C3020 0.950 . S
H3001 C3021 0.950 . S
H3002 C3023 0.950 . S
H3003 C3026 0.950 . S
H3004 C3027 0.950 . S
H3005 C3029 0.950 . S
H3006 C3030 0.950 . S
H3007 C3031 0.951 . S
H3008 C3033 0.951 . S
H3009 C3035 0.950 . S
H3010 C3036 0.950 . S
H3011 C3038 0.950 . S
H3012 C3041 0.950 . S
H3013 C3042 0.950 . S
H3014 C3044 0.950 . S
H3015 C3045 0.950 . S
C3016 H2998 0.951 . S
C3016 C3017 1.366 . S
C3016 C3018 1.388 . S
C3017 C3016 1.366 . S
C3017 C3021 1.385 . S
C3018 H2999 0.951 . S
C3018 C3016 1.388 . S
C3018 C3019 1.366 . S
C3019 C3018 1.366 . S
C3019 C3020 1.414 . S
C3019 C3022 1.499 . S
C3020 H3000 0.950 . S
C3020 C3019 1.414 . S
C3020 C3021 1.374 . S
C3021 H3001 0.950 . S
C3021 C3017 1.385 . S
C3021 C3020 1.374 . S
C3022 C3019 1.499 . S
C3022 C3023 1.373 . S
C3022 C3024 1.389 . S
C3023 H3002 0.950 . S
C3023 C3022 1.373 . S
C3023 C3039 1.377 . S
C3024 C3022 1.389 . S
C3024 C3025 1.524 . S
C3024 C3038 1.377 . S
C3025 C3024 1.524 . S
C3025 C3026 1.397 . S
C3025 C3030 1.363 . S
C3026 H3003 0.950 . S
C3026 C3025 1.397 . S
C3026 C3027 1.334 . S
C3027 H3004 0.950 . S
C3027 C3026 1.334 . S
C3027 C3028 1.287 . S
C3028 C3027 1.287 . S
C3028 C3029 1.524 . S
C3028 H3047 0.913 . S
C3029 H3005 0.950 . S
C3029 C3028 1.524 . S
C3029 C3030 1.415 . S
C3030 H3006 0.950 . S
C3030 C3025 1.363 . S
C3030 C3029 1.415 . S
C3031 H3007 0.951 . S
C3031 C3032 1.366 . S
C3031 C3033 1.388 . S
C3032 C3031 1.366 . S
C3032 C3036 1.385 . S
C3033 H3008 0.951 . S
C3033 C3031 1.388 . S
C3033 C3034 1.366 . S
C3034 C3033 1.366 . S
C3034 C3035 1.414 . S
C3034 C3037 1.499 . S
C3035 H3009 0.950 . S
C3035 C3034 1.414 . S
C3035 C3036 1.374 . S
C3036 H3010 0.950 . S
C3036 C3032 1.385 . S
C3036 C3035 1.374 . S
C3037 C3034 1.499 . S
C3037 C3038 1.373 . S
C3037 C3039 1.389 . S
C3038 H3011 0.950 . S
C3038 C3024 1.377 . S
C3038 C3037 1.373 . S
C3039 C3023 1.377 . S
C3039 C3037 1.389 . S
C3039 C3040 1.524 . S
C3040 C3039 1.524 . S
C3040 C3041 1.397 . S
C3040 C3045 1.363 . S
C3041 H3012 0.950 . S
C3041 C3040 1.397 . S
C3041 C3042 1.334 . S
C3042 H3013 0.950 . S
C3042 C3041 1.334 . S
C3042 C3043 1.287 . S
C3043 C3042 1.287 . S
C3043 C3044 1.524 . S
C3043 H3046 0.999 . S
C3044 H3014 0.950 . S
C3044 C3043 1.524 . S
C3044 C3045 1.415 . S
C3045 H3015 0.950 . S
C3045 C3040 1.363 . S
C3045 C3044 1.415 . S
H3046 C3043 0.999 . S
H3047 C3028 0.913 . S
H3048 C3066 0.951 . S
H3049 C3068 0.951 . S
H3050 C3070 0.950 . S
H3051 C3071 0.950 . S
H3052 C3073 0.950 . S
H3053 C3076 0.950 . S
H3054 C3077 0.950 . S
H3055 C3079 0.950 . S
H3056 C3080 0.950 . S
H3057 C3081 0.951 . S
H3058 C3083 0.951 . S
H3059 C3085 0.950 . S
H3060 C3086 0.950 . S
H3061 C3088 0.950 . S
H3062 C3091 0.950 . S
H3063 C3092 0.950 . S
H3064 C3094 0.950 . S
H3065 C3095 0.950 . S
C3066 H3048 0.951 . S
C3066 C3067 1.366 . S
C3066 C3068 1.388 . S
C3067 C3066 1.366 . S
C3067 C3071 1.385 . S
C3068 H3049 0.951 . S
C3068 C3066 1.388 . S
C3068 C3069 1.366 . S
C3069 C3068 1.366 . S
C3069 C3070 1.414 . S
C3069 C3072 1.499 . S
C3070 H3050 0.950 . S
C3070 C3069 1.414 . S
C3070 C3071 1.374 . S
C3071 H3051 0.950 . S
C3071 C3067 1.385 . S
C3071 C3070 1.374 . S
C3072 C3069 1.499 . S
C3072 C3073 1.373 . S
C3072 C3074 1.389 . S
C3073 H3052 0.950 . S
C3073 C3072 1.373 . S
C3073 C3089 1.377 . S
C3074 C3072 1.389 . S
C3074 C3075 1.524 . S
C3074 C3088 1.377 . S
C3075 C3074 1.524 . S
C3075 C3076 1.397 . S
C3075 C3080 1.363 . S
C3076 H3053 0.950 . S
C3076 C3075 1.397 . S
C3076 C3077 1.334 . S
C3077 H3054 0.950 . S
C3077 C3076 1.334 . S
C3077 C3078 1.287 . S
C3078 C3077 1.287 . S
C3078 C3079 1.524 . S
C3078 H3097 0.913 . S
C3079 H3055 0.950 . S
C3079 C3078 1.524 . S
C3079 C3080 1.415 . S
C3080 H3056 0.950 . S
C3080 C3075 1.363 . S
C3080 C3079 1.415 . S
C3081 H3057 0.951 . S
C3081 C3082 1.366 . S
C3081 C3083 1.388 . S
C3082 C3081 1.366 . S
C3082 C3086 1.385 . S
C3083 H3058 0.951 . S
C3083 C3081 1.388 . S
C3083 C3084 1.366 . S
C3084 C3083 1.366 . S
C3084 C3085 1.414 . S
C3084 C3087 1.499 . S
C3085 H3059 0.950 . S
C3085 C3084 1.414 . S
C3085 C3086 1.374 . S
C3086 H3060 0.950 . S
C3086 C3082 1.385 . S
C3086 C3085 1.374 . S
C3087 C3084 1.499 . S
C3087 C3088 1.373 . S
C3087 C3089 1.389 . S
C3088 H3061 0.950 . S
C3088 C3074 1.377 . S
C3088 C3087 1.373 . S
C3089 C3073 1.377 . S
C3089 C3087 1.389 . S
C3089 C3090 1.524 . S
C3090 C3089 1.524 . S
C3090 C3091 1.397 . S
C3090 C3095 1.363 . S
C3091 H3062 0.950 . S
C3091 C3090 1.397 . S
C3091 C3092 1.334 . S
C3092 H3063 0.950 . S
C3092 C3091 1.334 . S
C3092 C3093 1.287 . S
C3093 C3092 1.287 . S
C3093 C3094 1.524 . S
C3093 H3096 0.999 . S
C3094 H3064 0.950 . S
C3094 C3093 1.524 . S
C3094 C3095 1.415 . S
C3095 H3065 0.950 . S
C3095 C3090 1.363 . S
C3095 C3094 1.415 . S
H3096 C3093 0.999 . S
H3097 C3078 0.913 . S
H3098 C3116 0.964 . S
H3099 C3118 0.951 . S
H3100 C3120 0.950 . S
H3101 C3121 0.950 . S
H3102 C3123 0.950 . S
H3103 C3126 0.950 . S
H3104 C3127 0.950 . S
H3105 C3129 0.950 . S
H3106 C3130 0.950 . S
H3107 C3131 0.951 . S
H3108 C3133 0.951 . S
H3109 C3135 0.950 . S
H3110 C3136 0.950 . S
H3111 C3138 0.950 . S
H3112 C3141 0.950 . S
H3113 C3142 0.950 . S
H3114 C3144 0.950 . S
H3115 C3145 0.950 . S
C3116 H3098 0.964 . S
C3116 C3117 1.385 . S
C3116 C3118 1.357 1_556 S
C3117 C3116 1.385 . S
C3117 C3121 1.385 . S
C3118 H3099 0.951 . S
C3118 C3116 1.357 1_554 S
C3118 C3119 1.366 . S
C3119 C3118 1.366 . S
C3119 C3120 1.414 . S
C3119 C3122 1.499 . S
C3120 H3100 0.950 . S
C3120 C3119 1.414 . S
C3120 C3121 1.374 1_554 S
C3121 H3101 0.950 . S
C3121 C3117 1.385 . S
C3121 C3120 1.374 1_556 S
C3122 C3119 1.499 . S
C3122 C3123 1.373 . S
C3122 C3124 1.389 . S
C3123 H3102 0.950 . S
C3123 C3122 1.373 . S
C3123 C3139 1.377 . S
C3124 C3122 1.389 . S
C3124 C3125 1.524 . S
C3124 C3138 1.377 . S
C3125 C3124 1.524 . S
C3125 C3126 1.397 . S
C3125 C3130 1.363 . S
C3126 H3103 0.950 . S
C3126 C3125 1.397 . S
C3126 C3127 1.334 . S
C3127 H3104 0.950 . S
C3127 C3126 1.334 . S
C3127 C3128 1.287 . S
C3128 C3127 1.287 . S
C3128 C3129 1.524 . S
C3128 H3147 0.913 . S
C3129 H3105 0.950 . S
C3129 C3128 1.524 . S
C3129 C3130 1.415 . S
C3130 H3106 0.950 . S
C3130 C3125 1.363 . S
C3130 C3129 1.415 . S
C3131 H3107 0.951 . S
C3131 C3132 1.366 . S
C3131 C3133 1.388 . S
C3132 C3131 1.366 . S
C3132 C3136 1.385 . S
C3133 H3108 0.951 . S
C3133 C3131 1.388 . S
C3133 C3134 1.366 . S
C3134 C3133 1.366 . S
C3134 C3135 1.414 . S
C3134 C3137 1.499 . S
C3135 H3109 0.950 . S
C3135 C3134 1.414 . S
C3135 C3136 1.374 . S
C3136 H3110 0.950 . S
C3136 C3132 1.385 . S
C3136 C3135 1.374 . S
C3137 C3134 1.499 . S
C3137 C3138 1.373 . S
C3137 C3139 1.389 . S
C3138 H3111 0.950 . S
C3138 C3124 1.377 . S
C3138 C3137 1.373 . S
C3139 C3123 1.377 . S
C3139 C3137 1.389 . S
C3139 C3140 1.524 . S
C3140 C3139 1.524 . S
C3140 C3141 1.397 . S
C3140 C3145 1.363 . S
C3141 H3112 0.950 . S
C3141 C3140 1.397 . S
C3141 C3142 1.334 . S
C3142 H3113 0.950 . S
C3142 C3141 1.334 . S
C3142 C3143 1.287 . S
C3143 C3142 1.287 . S
C3143 C3144 1.524 . S
C3143 H3146 0.999 . S
C3144 H3114 0.950 . S
C3144 C3143 1.524 . S
C3144 C3145 1.415 . S
C3145 H3115 0.950 . S
C3145 C3140 1.363 . S
C3145 C3144 1.415 . S
H3146 C3143 0.999 . S
H3147 C3128 0.913 . S
H3148 C3166 0.951 . S
H3149 C3168 0.951 . S
H3150 C3170 0.950 . S
H3151 C3171 0.950 . S
H3152 C3173 0.950 . S
H3153 C3176 0.950 . S
H3154 C3177 0.950 . S
H3155 C3179 0.950 . S
H3156 C3180 0.950 . S
H3157 C3181 0.962 . S
H3158 C3183 0.951 . S
H3159 C3185 0.950 . S
H3160 C3186 0.950 . S
H3161 C3188 0.950 . S
H3162 C3191 0.950 . S
H3163 C3192 0.950 . S
H3164 C3194 0.950 . S
H3165 C3195 0.950 . S
C3166 H3148 0.951 . S
C3166 C3167 1.366 . S
C3166 C3168 1.388 . S
C3167 C3166 1.366 . S
C3167 C3171 1.385 . S
C3168 H3149 0.951 . S
C3168 C3166 1.388 . S
C3168 C3169 1.366 . S
C3169 C3168 1.366 . S
C3169 C3170 1.414 . S
C3169 C3172 1.499 . S
C3170 H3150 0.950 . S
C3170 C3169 1.414 . S
C3170 C3171 1.374 . S
C3171 H3151 0.950 . S
C3171 C3167 1.385 . S
C3171 C3170 1.374 . S
C3172 C3169 1.499 . S
C3172 C3173 1.373 . S
C3172 C3174 1.389 . S
C3173 H3152 0.950 . S
C3173 C3172 1.373 . S
C3173 C3189 1.377 . S
C3174 C3172 1.389 . S
C3174 C3175 1.524 . S
C3174 C3188 1.377 . S
C3175 C3174 1.524 . S
C3175 C3176 1.397 . S
C3175 C3180 1.363 . S
C3176 H3153 0.950 . S
C3176 C3175 1.397 . S
C3176 C3177 1.334 . S
C3177 H3154 0.950 . S
C3177 C3176 1.334 . S
C3177 C3178 1.287 . S
C3178 C3177 1.287 . S
C3178 C3179 1.524 . S
C3178 H3197 0.913 . S
C3179 H3155 0.950 . S
C3179 C3178 1.524 . S
C3179 C3180 1.415 . S
C3180 H3156 0.950 . S
C3180 C3175 1.363 . S
C3180 C3179 1.415 . S
C3181 H3157 0.962 . S
C3181 C3182 1.383 . S
C3181 C3183 1.360 1_554 S
C3182 C3181 1.383 . S
C3182 C3186 1.385 . S
C3183 H3158 0.951 . S
C3183 C3181 1.360 1_556 S
C3183 C3184 1.366 . S
C3184 C3183 1.366 . S
C3184 C3185 1.414 . S
C3184 C3187 1.499 . S
C3185 H3159 0.950 . S
C3185 C3184 1.414 . S
C3185 C3186 1.374 1_556 S
C3186 H3160 0.950 . S
C3186 C3182 1.385 . S
C3186 C3185 1.374 1_554 S
C3187 C3184 1.499 . S
C3187 C3188 1.373 . S
C3187 C3189 1.389 . S
C3188 H3161 0.950 . S
C3188 C3174 1.377 . S
C3188 C3187 1.373 . S
C3189 C3173 1.377 . S
C3189 C3187 1.389 . S
C3189 C3190 1.524 . S
C3190 C3189 1.524 . S
C3190 C3191 1.397 . S
C3190 C3195 1.363 . S
C3191 H3162 0.950 . S
C3191 C3190 1.397 . S
C3191 C3192 1.334 . S
C3192 H3163 0.950 . S
C3192 C3191 1.334 . S
C3192 C3193 1.287 . S
C3193 C3192 1.287 . S
C3193 C3194 1.524 . S
C3193 H3196 0.999 . S
C3194 H3164 0.950 . S
C3194 C3193 1.524 . S
C3194 C3195 1.415 . S
C3195 H3165 0.950 . S
C3195 C3190 1.363 . S
C3195 C3194 1.415 . S
H3196 C3193 0.999 . S
H3197 C3178 0.913 . S
H3198 C3216 0.951 . S
H3199 C3218 0.951 . S
H3200 C3220 0.950 . S
H3201 C3221 0.950 . S
H3202 C3223 0.950 . S
H3203 C3226 0.950 . S
H3204 C3227 0.950 . S
H3205 C3229 0.950 . S
H3206 C3230 0.950 . S
H3207 C3231 0.951 . S
H3208 C3233 0.951 . S
H3209 C3235 0.950 . S
H3210 C3236 0.950 . S
H3211 C3238 0.950 . S
H3212 C3241 0.950 . S
H3213 C3242 0.950 . S
H3214 C3244 0.950 . S
H3215 C3245 0.950 . S
C3216 H3198 0.951 . S
C3216 C3217 1.366 . S
C3216 C3218 1.388 . S
C3217 C3216 1.366 . S
C3217 C3221 1.385 . S
C3218 H3199 0.951 . S
C3218 C3216 1.388 . S
C3218 C3219 1.366 . S
C3219 C3218 1.366 . S
C3219 C3220 1.414 . S
C3219 C3222 1.499 . S
C3220 H3200 0.950 . S
C3220 C3219 1.414 . S
C3220 C3221 1.374 . S
C3221 H3201 0.950 . S
C3221 C3217 1.385 . S
C3221 C3220 1.374 . S
C3222 C3219 1.499 . S
C3222 C3223 1.373 . S
C3222 C3224 1.389 . S
C3223 H3202 0.950 . S
C3223 C3222 1.373 . S
C3223 C3239 1.377 . S
C3224 C3222 1.389 . S
C3224 C3225 1.524 . S
C3224 C3238 1.377 . S
C3225 C3224 1.524 . S
C3225 C3226 1.397 . S
C3225 C3230 1.363 . S
C3226 H3203 0.950 . S
C3226 C3225 1.397 . S
C3226 C3227 1.334 . S
C3227 H3204 0.950 . S
C3227 C3226 1.334 . S
C3227 C3228 1.287 . S
C3228 C3227 1.287 . S
C3228 C3229 1.524 . S
C3228 H3247 0.913 . S
C3229 H3205 0.950 . S
C3229 C3228 1.524 . S
C3229 C3230 1.415 . S
C3230 H3206 0.950 . S
C3230 C3225 1.363 . S
C3230 C3229 1.415 . S
C3231 H3207 0.951 . S
C3231 C3232 1.366 . S
C3231 C3233 1.388 . S
C3232 C3231 1.366 . S
C3232 C3236 1.385 . S
C3233 H3208 0.951 . S
C3233 C3231 1.388 . S
C3233 C3234 1.366 . S
C3234 C3233 1.366 . S
C3234 C3235 1.414 . S
C3234 C3237 1.499 . S
C3235 H3209 0.950 . S
C3235 C3234 1.414 . S
C3235 C3236 1.374 . S
C3236 H3210 0.950 . S
C3236 C3232 1.385 . S
C3236 C3235 1.374 . S
C3237 C3234 1.499 . S
C3237 C3238 1.373 . S
C3237 C3239 1.389 . S
C3238 H3211 0.950 . S
C3238 C3224 1.377 . S
C3238 C3237 1.373 . S
C3239 C3223 1.377 . S
C3239 C3237 1.389 . S
C3239 C3240 1.524 . S
C3240 C3239 1.524 . S
C3240 C3241 1.397 . S
C3240 C3245 1.363 . S
C3241 H3212 0.950 . S
C3241 C3240 1.397 . S
C3241 C3242 1.334 . S
C3242 H3213 0.950 . S
C3242 C3241 1.334 . S
C3242 C3243 1.287 . S
C3243 C3242 1.287 . S
C3243 C3244 1.524 . S
C3243 H3246 0.999 . S
C3244 H3214 0.950 . S
C3244 C3243 1.524 . S
C3244 C3245 1.415 . S
C3245 H3215 0.950 . S
C3245 C3240 1.363 . S
C3245 C3244 1.415 . S
H3246 C3243 0.999 . S
H3247 C3228 0.913 . S
H3248 C3266 0.951 . S
H3249 C3268 0.951 . S
H3250 C3270 0.950 . S
H3251 C3271 0.962 . S
H3252 C3273 0.950 . S
H3253 C3276 0.950 . S
H3254 C3277 0.950 . S
H3255 C3279 0.950 . S
H3256 C3280 0.950 . S
H3257 C3281 0.951 . S
H3258 C3283 0.951 . S
H3259 C3285 0.950 . S
H3260 C3286 0.950 . S
H3261 C3288 0.950 . S
H3262 C3291 0.950 . S
H3263 C3292 0.950 . S
H3264 C3294 0.950 . S
H3265 C3295 0.950 . S
C3266 H3248 0.951 . S
C3266 C3267 1.366 . S
C3266 C3268 1.388 1_556 S
C3267 C3266 1.366 . S
C3267 C3271 1.402 . S
C3268 H3249 0.951 . S
C3268 C3266 1.388 1_554 S
C3268 C3269 1.366 . S
C3269 C3268 1.366 . S
C3269 C3270 1.414 . S
C3269 C3272 1.499 . S
C3270 H3250 0.950 . S
C3270 C3269 1.414 . S
C3270 C3271 1.346 1_554 S
C3271 H3251 0.962 . S
C3271 C3267 1.402 . S
C3271 C3270 1.346 1_556 S
C3272 C3269 1.499 . S
C3272 C3273 1.373 . S
C3272 C3274 1.389 . S
C3273 H3252 0.950 . S
C3273 C3272 1.373 . S
C3273 C3289 1.377 . S
C3274 C3272 1.389 . S
C3274 C3275 1.524 . S
C3274 C3288 1.377 . S
C3275 C3274 1.524 . S
C3275 C3276 1.397 . S
C3275 C3280 1.363 . S
C3276 H3253 0.950 . S
C3276 C3275 1.397 . S
C3276 C3277 1.334 . S
C3277 H3254 0.950 . S
C3277 C3276 1.334 . S
C3277 C3278 1.287 . S
C3278 C3277 1.287 . S
C3278 C3279 1.524 . S
C3278 H3297 0.913 . S
C3279 H3255 0.950 . S
C3279 C3278 1.524 . S
C3279 C3280 1.415 . S
C3280 H3256 0.950 . S
C3280 C3275 1.363 . S
C3280 C3279 1.415 . S
C3281 H3257 0.951 . S
C3281 C3282 1.366 . S
C3281 C3283 1.388 . S
C3282 C3281 1.366 . S
C3282 C3286 1.385 . S
C3283 H3258 0.951 . S
C3283 C3281 1.388 . S
C3283 C3284 1.366 . S
C3284 C3283 1.366 . S
C3284 C3285 1.414 . S
C3284 C3287 1.499 . S
C3285 H3259 0.950 . S
C3285 C3284 1.414 . S
C3285 C3286 1.374 . S
C3286 H3260 0.950 . S
C3286 C3282 1.385 . S
C3286 C3285 1.374 . S
C3287 C3284 1.499 . S
C3287 C3288 1.373 . S
C3287 C3289 1.389 . S
C3288 H3261 0.950 . S
C3288 C3274 1.377 . S
C3288 C3287 1.373 . S
C3289 C3273 1.377 . S
C3289 C3287 1.389 . S
C3289 C3290 1.524 . S
C3290 C3289 1.524 . S
C3290 C3291 1.397 . S
C3290 C3295 1.363 . S
C3291 H3262 0.950 . S
C3291 C3290 1.397 . S
C3291 C3292 1.334 . S
C3292 H3263 0.950 . S
C3292 C3291 1.334 . S
C3292 C3293 1.287 . S
C3293 C3292 1.287 . S
C3293 C3294 1.524 . S
C3293 H3296 0.999 . S
C3294 H3264 0.950 . S
C3294 C3293 1.524 . S
C3294 C3295 1.415 . S
C3295 H3265 0.950 . S
C3295 C3290 1.363 . S
C3295 C3294 1.415 . S
H3296 C3293 0.999 . S
H3297 C3278 0.913 . S
H3298 C3316 0.951 . S
H3299 C3318 0.951 . S
H3300 C3320 0.950 . S
H3301 C3321 0.950 . S
H3302 C3323 0.950 . S
H3303 C3326 0.950 . S
H3304 C3327 0.950 . S
H3305 C3329 0.950 . S
H3306 C3330 0.950 . S
H3307 C3331 0.951 . S
H3308 C3333 0.951 . S
H3309 C3335 0.950 . S
H3310 C3336 0.950 . S
H3311 C3338 0.950 . S
H3312 C3341 0.950 . S
H3313 C3342 0.950 . S
H3314 C3344 0.950 . S
H3315 C3345 0.950 . S
C3316 H3298 0.951 . S
C3316 C3317 1.366 . S
C3316 C3318 1.388 . S
C3317 C3316 1.366 . S
C3317 C3321 1.385 . S
C3318 H3299 0.951 . S
C3318 C3316 1.388 . S
C3318 C3319 1.366 . S
C3319 C3318 1.366 . S
C3319 C3320 1.414 . S
C3319 C3322 1.499 . S
C3320 H3300 0.950 . S
C3320 C3319 1.414 . S
C3320 C3321 1.374 . S
C3321 H3301 0.950 . S
C3321 C3317 1.385 . S
C3321 C3320 1.374 . S
C3322 C3319 1.499 . S
C3322 C3323 1.373 . S
C3322 C3324 1.389 . S
C3323 H3302 0.950 . S
C3323 C3322 1.373 . S
C3323 C3339 1.377 . S
C3324 C3322 1.389 . S
C3324 C3325 1.524 . S
C3324 C3338 1.377 . S
C3325 C3324 1.524 . S
C3325 C3326 1.397 . S
C3325 C3330 1.363 . S
C3326 H3303 0.950 . S
C3326 C3325 1.397 . S
C3326 C3327 1.334 . S
C3327 H3304 0.950 . S
C3327 C3326 1.334 . S
C3327 C3328 1.287 . S
C3328 C3327 1.287 . S
C3328 C3329 1.524 . S
C3328 H3347 0.913 . S
C3329 H3305 0.950 . S
C3329 C3328 1.524 . S
C3329 C3330 1.415 . S
C3330 H3306 0.950 . S
C3330 C3325 1.363 . S
C3330 C3329 1.415 . S
C3331 H3307 0.951 . S
C3331 C3332 1.366 . S
C3331 C3333 1.388 . S
C3332 C3331 1.366 . S
C3332 C3336 1.385 . S
C3333 H3308 0.951 . S
C3333 C3331 1.388 . S
C3333 C3334 1.366 . S
C3334 C3333 1.366 . S
C3334 C3335 1.414 . S
C3334 C3337 1.499 . S
C3335 H3309 0.950 . S
C3335 C3334 1.414 . S
C3335 C3336 1.374 . S
C3336 H3310 0.950 . S
C3336 C3332 1.385 . S
C3336 C3335 1.374 . S
C3337 C3334 1.499 . S
C3337 C3338 1.373 . S
C3337 C3339 1.389 . S
C3338 H3311 0.950 . S
C3338 C3324 1.377 . S
C3338 C3337 1.373 . S
C3339 C3323 1.377 . S
C3339 C3337 1.389 . S
C3339 C3340 1.524 . S
C3340 C3339 1.524 . S
C3340 C3341 1.397 . S
C3340 C3345 1.363 . S
C3341 H3312 0.950 . S
C3341 C3340 1.397 . S
C3341 C3342 1.334 . S
C3342 H3313 0.950 . S
C3342 C3341 1.334 . S
C3342 C3343 1.287 . S
C3343 C3342 1.287 . S
C3343 C3344 1.524 . S
C3343 H3346 0.999 . S
C3344 H3314 0.950 . S
C3344 C3343 1.524 . S
C3344 C3345 1.415 . S
C3345 H3315 0.950 . S
C3345 C3340 1.363 . S
C3345 C3344 1.415 . S
H3346 C3343 0.999 . S
H3347 C3328 0.913 . S
H3348 C3366 0.951 . S
H3349 C3368 0.951 . S
H3350 C3370 0.950 . S
H3351 C3371 0.950 . S
H3352 C3373 0.950 . S
H3353 C3376 0.950 . S
H3354 C3377 0.950 . S
H3355 C3379 0.950 . S
H3356 C3380 0.950 . S
H3357 C3381 0.951 . S
H3358 C3383 0.951 . S
H3359 C3385 0.950 . S
H3360 C3386 0.950 . S
H3361 C3388 0.950 . S
H3362 C3391 0.950 . S
H3363 C3392 0.950 . S
H3364 C3394 0.950 . S
H3365 C3395 0.950 . S
C3366 H3348 0.951 . S
C3366 C3367 1.366 . S
C3366 C3368 1.388 . S
C3367 C3366 1.366 . S
C3367 C3371 1.385 . S
C3368 H3349 0.951 . S
C3368 C3366 1.388 . S
C3368 C3369 1.366 . S
C3369 C3368 1.366 . S
C3369 C3370 1.414 . S
C3369 C3372 1.499 . S
C3370 H3350 0.950 . S
C3370 C3369 1.414 . S
C3370 C3371 1.374 . S
C3371 H3351 0.950 . S
C3371 C3367 1.385 . S
C3371 C3370 1.374 . S
C3372 C3369 1.499 . S
C3372 C3373 1.373 . S
C3372 C3374 1.389 . S
C3373 H3352 0.950 . S
C3373 C3372 1.373 . S
C3373 C3389 1.377 . S
C3374 C3372 1.389 . S
C3374 C3375 1.524 . S
C3374 C3388 1.377 . S
C3375 C3374 1.524 . S
C3375 C3376 1.397 . S
C3375 C3380 1.363 . S
C3376 H3353 0.950 . S
C3376 C3375 1.397 . S
C3376 C3377 1.334 . S
C3377 H3354 0.950 . S
C3377 C3376 1.334 . S
C3377 C3378 1.287 . S
C3378 C3377 1.287 . S
C3378 C3379 1.524 . S
C3378 H3397 0.913 . S
C3379 H3355 0.950 . S
C3379 C3378 1.524 . S
C3379 C3380 1.415 . S
C3380 H3356 0.950 . S
C3380 C3375 1.363 . S
C3380 C3379 1.415 . S
C3381 H3357 0.951 . S
C3381 C3382 1.366 . S
C3381 C3383 1.388 . S
C3382 C3381 1.366 . S
C3382 C3386 1.385 . S
C3383 H3358 0.951 . S
C3383 C3381 1.388 . S
C3383 C3384 1.366 . S
C3384 C3383 1.366 . S
C3384 C3385 1.414 . S
C3384 C3387 1.499 . S
C3385 H3359 0.950 . S
C3385 C3384 1.414 . S
C3385 C3386 1.374 . S
C3386 H3360 0.950 . S
C3386 C3382 1.385 . S
C3386 C3385 1.374 . S
C3387 C3384 1.499 . S
C3387 C3388 1.373 . S
C3387 C3389 1.389 . S
C3388 H3361 0.950 . S
C3388 C3374 1.377 . S
C3388 C3387 1.373 . S
C3389 C3373 1.377 . S
C3389 C3387 1.389 . S
C3389 C3390 1.524 . S
C3390 C3389 1.524 . S
C3390 C3391 1.397 . S
C3390 C3395 1.363 . S
C3391 H3362 0.950 . S
C3391 C3390 1.397 . S
C3391 C3392 1.334 . S
C3392 H3363 0.950 . S
C3392 C3391 1.334 . S
C3392 C3393 1.287 . S
C3393 C3392 1.287 . S
C3393 C3394 1.524 . S
C3393 H3396 0.999 . S
C3394 H3364 0.950 . S
C3394 C3393 1.524 . S
C3394 C3395 1.415 . S
C3395 H3365 0.950 . S
C3395 C3390 1.363 . S
C3395 C3394 1.415 . S
H3396 C3393 0.999 . S
H3397 C3378 0.913 . S
H3398 C3416 0.949 1_554 S
H3399 C3418 0.951 . S
H3400 C3420 0.950 . S
H3401 C3421 0.950 . S
H3402 C3423 0.950 . S
H3403 C3426 0.950 . S
H3404 C3427 0.950 . S
H3405 C3429 0.950 . S
H3406 C3430 0.950 . S
H3407 C3431 0.951 . S
H3408 C3433 0.951 . S
H3409 C3435 0.950 . S
H3410 C3436 0.950 . S
H3411 C3438 0.950 . S
H3412 C3441 0.950 . S
H3413 C3442 0.950 . S
H3414 C3444 0.950 . S
H3415 C3445 0.950 . S
C3416 H3398 0.949 1_556 S
C3416 C3417 1.363 1_556 S
C3416 C3418 1.392 . S
C3417 C3416 1.363 1_554 S
C3417 C3421 1.385 . S
C3418 H3399 0.951 . S
C3418 C3416 1.392 . S
C3418 C3419 1.366 . S
C3419 C3418 1.366 . S
C3419 C3420 1.414 . S
C3419 C3422 1.499 . S
C3420 H3400 0.950 . S
C3420 C3419 1.414 . S
C3420 C3421 1.374 1_556 S
C3421 H3401 0.950 . S
C3421 C3417 1.385 . S
C3421 C3420 1.374 1_554 S
C3422 C3419 1.499 . S
C3422 C3423 1.373 . S
C3422 C3424 1.389 . S
C3423 H3402 0.950 . S
C3423 C3422 1.373 . S
C3423 C3439 1.377 . S
C3424 C3422 1.389 . S
C3424 C3425 1.524 . S
C3424 C3438 1.377 . S
C3425 C3424 1.524 . S
C3425 C3426 1.397 . S
C3425 C3430 1.363 . S
C3426 H3403 0.950 . S
C3426 C3425 1.397 . S
C3426 C3427 1.334 . S
C3427 H3404 0.950 . S
C3427 C3426 1.334 . S
C3427 C3428 1.287 . S
C3428 C3427 1.287 . S
C3428 C3429 1.524 . S
C3428 H3447 0.913 . S
C3429 H3405 0.950 . S
C3429 C3428 1.524 . S
C3429 C3430 1.415 . S
C3430 H3406 0.950 . S
C3430 C3425 1.363 . S
C3430 C3429 1.415 . S
C3431 H3407 0.951 . S
C3431 C3432 1.366 . S
C3431 C3433 1.388 . S
C3432 C3431 1.366 . S
C3432 C3436 1.385 . S
C3433 H3408 0.951 . S
C3433 C3431 1.388 . S
C3433 C3434 1.366 . S
C3434 C3433 1.366 . S
C3434 C3435 1.414 . S
C3434 C3437 1.499 . S
C3435 H3409 0.950 . S
C3435 C3434 1.414 . S
C3435 C3436 1.374 . S
C3436 H3410 0.950 . S
C3436 C3432 1.385 . S
C3436 C3435 1.374 . S
C3437 C3434 1.499 . S
C3437 C3438 1.373 . S
C3437 C3439 1.389 . S
C3438 H3411 0.950 . S
C3438 C3424 1.377 . S
C3438 C3437 1.373 . S
C3439 C3423 1.377 . S
C3439 C3437 1.389 . S
C3439 C3440 1.524 . S
C3440 C3439 1.524 . S
C3440 C3441 1.397 . S
C3440 C3445 1.363 . S
C3441 H3412 0.950 . S
C3441 C3440 1.397 . S
C3441 C3442 1.334 . S
C3442 H3413 0.950 . S
C3442 C3441 1.334 . S
C3442 C3443 1.287 . S
C3443 C3442 1.287 . S
C3443 C3444 1.524 . S
C3443 H3446 0.999 . S
C3444 H3414 0.950 . S
C3444 C3443 1.524 . S
C3444 C3445 1.415 . S
C3445 H3415 0.950 . S
C3445 C3440 1.363 . S
C3445 C3444 1.415 . S
H3446 C3443 0.999 . S
H3447 C3428 0.913 . S
H3448 C3466 0.951 . S
H3449 C3468 0.951 . S
H3450 C3470 0.950 . S
H3451 C3471 0.950 . S
H3452 C3473 0.950 . S
H3453 C3476 0.950 . S
H3454 C3477 0.950 . S
H3455 C3479 0.950 . S
H3456 C3480 0.950 . S
H3457 C3481 0.958 . S
H3458 C3483 0.951 . S
H3459 C3485 0.950 . S
H3460 C3486 0.950 . S
H3461 C3488 0.950 . S
H3462 C3491 0.950 . S
H3463 C3492 0.950 . S
H3464 C3494 0.950 . S
H3465 C3495 0.950 . S
C3466 H3448 0.951 . S
C3466 C3467 1.366 . S
C3466 C3468 1.388 . S
C3467 C3466 1.366 . S
C3467 C3471 1.385 . S
C3468 H3449 0.951 . S
C3468 C3466 1.388 . S
C3468 C3469 1.366 . S
C3469 C3468 1.366 . S
C3469 C3470 1.414 . S
C3469 C3472 1.499 . S
C3470 H3450 0.950 . S
C3470 C3469 1.414 . S
C3470 C3471 1.374 . S
C3471 H3451 0.950 . S
C3471 C3467 1.385 . S
C3471 C3470 1.374 . S
C3472 C3469 1.499 . S
C3472 C3473 1.373 . S
C3472 C3474 1.389 . S
C3473 H3452 0.950 . S
C3473 C3472 1.373 . S
C3473 C3489 1.377 . S
C3474 C3472 1.389 . S
C3474 C3475 1.524 . S
C3474 C3488 1.377 . S
C3475 C3474 1.524 . S
C3475 C3476 1.397 . S
C3475 C3480 1.363 . S
C3476 H3453 0.950 . S
C3476 C3475 1.397 . S
C3476 C3477 1.334 . S
C3477 H3454 0.950 . S
C3477 C3476 1.334 . S
C3477 C3478 1.287 . S
C3478 C3477 1.287 . S
C3478 C3479 1.524 . S
C3478 H3497 0.913 . S
C3479 H3455 0.950 . S
C3479 C3478 1.524 . S
C3479 C3480 1.415 . S
C3480 H3456 0.950 . S
C3480 C3475 1.363 . S
C3480 C3479 1.415 . S
C3481 H3457 0.958 . S
C3481 C3482 1.377 . S
C3481 C3483 1.369 1_554 S
C3482 C3481 1.377 . S
C3482 C3486 1.385 . S
C3483 H3458 0.951 . S
C3483 C3481 1.369 1_556 S
C3483 C3484 1.366 . S
C3484 C3483 1.366 . S
C3484 C3485 1.414 . S
C3484 C3487 1.499 . S
C3485 H3459 0.950 . S
C3485 C3484 1.414 . S
C3485 C3486 1.374 1_556 S
C3486 H3460 0.950 . S
C3486 C3482 1.385 . S
C3486 C3485 1.374 1_554 S
C3487 C3484 1.499 . S
C3487 C3488 1.373 . S
C3487 C3489 1.389 . S
C3488 H3461 0.950 . S
C3488 C3474 1.377 . S
C3488 C3487 1.373 . S
C3489 C3473 1.377 . S
C3489 C3487 1.389 . S
C3489 C3490 1.524 . S
C3490 C3489 1.524 . S
C3490 C3491 1.397 . S
C3490 C3495 1.363 . S
C3491 H3462 0.950 . S
C3491 C3490 1.397 . S
C3491 C3492 1.334 . S
C3492 H3463 0.950 . S
C3492 C3491 1.334 . S
C3492 C3493 1.287 . S
C3493 C3492 1.287 . S
C3493 C3494 1.524 . S
C3493 H3496 0.999 . S
C3494 H3464 0.950 . S
C3494 C3493 1.524 . S
C3494 C3495 1.415 . S
C3495 H3465 0.950 . S
C3495 C3490 1.363 . S
C3495 C3494 1.415 . S
H3496 C3493 0.999 . S
H3497 C3478 0.913 . S
H3498 C3516 0.951 . S
H3499 C3518 0.951 . S
H3500 C3520 0.950 . S
H3501 C3521 0.950 . S
H3502 C3523 0.950 . S
H3503 C3526 0.950 . S
H3504 C3527 0.950 . S
H3505 C3529 0.950 . S
H3506 C3530 0.950 . S
H3507 C3531 0.951 . S
H3508 C3533 0.951 . S
H3509 C3535 0.950 . S
H3510 C3536 0.950 . S
H3511 C3538 0.950 . S
H3512 C3541 0.950 . S
H3513 C3542 0.950 . S
H3514 C3544 0.950 . S
H3515 C3545 0.950 . S
C3516 H3498 0.951 . S
C3516 C3517 1.366 . S
C3516 C3518 1.388 . S
C3517 C3516 1.366 . S
C3517 C3521 1.385 . S
C3518 H3499 0.951 . S
C3518 C3516 1.388 . S
C3518 C3519 1.366 . S
C3519 C3518 1.366 . S
C3519 C3520 1.414 . S
C3519 C3522 1.499 . S
C3520 H3500 0.950 . S
C3520 C3519 1.414 . S
C3520 C3521 1.374 . S
C3521 H3501 0.950 . S
C3521 C3517 1.385 . S
C3521 C3520 1.374 . S
C3522 C3519 1.499 . S
C3522 C3523 1.373 . S
C3522 C3524 1.389 . S
C3523 H3502 0.950 . S
C3523 C3522 1.373 . S
C3523 C3539 1.377 . S
C3524 C3522 1.389 . S
C3524 C3525 1.524 . S
C3524 C3538 1.377 . S
C3525 C3524 1.524 . S
C3525 C3526 1.397 . S
C3525 C3530 1.363 . S
C3526 H3503 0.950 . S
C3526 C3525 1.397 . S
C3526 C3527 1.334 . S
C3527 H3504 0.950 . S
C3527 C3526 1.334 . S
C3527 C3528 1.287 . S
C3528 C3527 1.287 . S
C3528 C3529 1.524 . S
C3528 H3547 0.913 . S
C3529 H3505 0.950 . S
C3529 C3528 1.524 . S
C3529 C3530 1.415 . S
C3530 H3506 0.950 . S
C3530 C3525 1.363 . S
C3530 C3529 1.415 . S
C3531 H3507 0.951 . S
C3531 C3532 1.366 . S
C3531 C3533 1.388 . S
C3532 C3531 1.366 . S
C3532 C3536 1.385 . S
C3533 H3508 0.951 . S
C3533 C3531 1.388 . S
C3533 C3534 1.366 . S
C3534 C3533 1.366 . S
C3534 C3535 1.414 . S
C3534 C3537 1.499 . S
C3535 H3509 0.950 . S
C3535 C3534 1.414 . S
C3535 C3536 1.374 . S
C3536 H3510 0.950 . S
C3536 C3532 1.385 . S
C3536 C3535 1.374 . S
C3537 C3534 1.499 . S
C3537 C3538 1.373 . S
C3537 C3539 1.389 . S
C3538 H3511 0.950 . S
C3538 C3524 1.377 . S
C3538 C3537 1.373 . S
C3539 C3523 1.377 . S
C3539 C3537 1.389 . S
C3539 C3540 1.524 . S
C3540 C3539 1.524 . S
C3540 C3541 1.397 . S
C3540 C3545 1.363 . S
C3541 H3512 0.950 . S
C3541 C3540 1.397 . S
C3541 C3542 1.334 . S
C3542 H3513 0.950 . S
C3542 C3541 1.334 . S
C3542 C3543 1.287 . S
C3543 C3542 1.287 . S
C3543 C3544 1.524 . S
C3543 H3546 0.999 . S
C3544 H3514 0.950 . S
C3544 C3543 1.524 . S
C3544 C3545 1.415 . S
C3545 H3515 0.950 . S
C3545 C3540 1.363 . S
C3545 C3544 1.415 . S
H3546 C3543 0.999 . S
H3547 C3528 0.913 . S
H3548 C3566 0.951 . S
H3549 C3568 0.951 . S
H3550 C3570 0.950 . S
H3551 C3571 0.950 . S
H3552 C3573 0.950 . S
H3553 C3576 0.950 . S
H3554 C3577 0.950 . S
H3555 C3579 0.950 . S
H3556 C3580 0.950 . S
H3557 C3581 0.951 . S
H3558 C3583 0.951 . S
H3559 C3585 0.950 . S
H3560 C3586 0.950 . S
H3561 C3588 0.950 . S
H3562 C3591 0.950 . S
H3563 C3592 0.950 . S
H3564 C3594 0.950 . S
H3565 C3595 0.950 . S
C3566 H3548 0.951 . S
C3566 C3567 1.366 . S
C3566 C3568 1.388 . S
C3567 C3566 1.366 . S
C3567 C3571 1.385 . S
C3568 H3549 0.951 . S
C3568 C3566 1.388 . S
C3568 C3569 1.366 . S
C3569 C3568 1.366 . S
C3569 C3570 1.414 . S
C3569 C3572 1.499 . S
C3570 H3550 0.950 . S
C3570 C3569 1.414 . S
C3570 C3571 1.374 . S
C3571 H3551 0.950 . S
C3571 C3567 1.385 . S
C3571 C3570 1.374 . S
C3572 C3569 1.499 . S
C3572 C3573 1.373 . S
C3572 C3574 1.389 . S
C3573 H3552 0.950 . S
C3573 C3572 1.373 . S
C3573 C3589 1.377 . S
C3574 C3572 1.389 . S
C3574 C3575 1.524 . S
C3574 C3588 1.377 . S
C3575 C3574 1.524 . S
C3575 C3576 1.397 . S
C3575 C3580 1.363 . S
C3576 H3553 0.950 . S
C3576 C3575 1.397 . S
C3576 C3577 1.334 . S
C3577 H3554 0.950 . S
C3577 C3576 1.334 . S
C3577 C3578 1.287 . S
C3578 C3577 1.287 . S
C3578 C3579 1.524 . S
C3578 H3597 0.913 . S
C3579 H3555 0.950 . S
C3579 C3578 1.524 . S
C3579 C3580 1.415 . S
C3580 H3556 0.950 . S
C3580 C3575 1.363 . S
C3580 C3579 1.415 . S
C3581 H3557 0.951 . S
C3581 C3582 1.366 . S
C3581 C3583 1.388 . S
C3582 C3581 1.366 . S
C3582 C3586 1.385 . S
C3583 H3558 0.951 . S
C3583 C3581 1.388 . S
C3583 C3584 1.366 . S
C3584 C3583 1.366 . S
C3584 C3585 1.414 . S
C3584 C3587 1.499 . S
C3585 H3559 0.950 . S
C3585 C3584 1.414 . S
C3585 C3586 1.374 . S
C3586 H3560 0.950 . S
C3586 C3582 1.385 . S
C3586 C3585 1.374 . S
C3587 C3584 1.499 . S
C3587 C3588 1.373 . S
C3587 C3589 1.389 . S
C3588 H3561 0.950 . S
C3588 C3574 1.377 . S
C3588 C3587 1.373 . S
C3589 C3573 1.377 . S
C3589 C3587 1.389 . S
C3589 C3590 1.524 . S
C3590 C3589 1.524 . S
C3590 C3591 1.397 . S
C3590 C3595 1.363 . S
C3591 H3562 0.950 . S
C3591 C3590 1.397 . S
C3591 C3592 1.334 . S
C3592 H3563 0.950 . S
C3592 C3591 1.334 . S
C3592 C3593 1.287 . S
C3593 C3592 1.287 . S
C3593 C3594 1.524 . S
C3593 H3596 0.999 . S
C3594 H3564 0.950 . S
C3594 C3593 1.524 . S
C3594 C3595 1.415 . S
C3595 H3565 0.950 . S
C3595 C3590 1.363 . S
C3595 C3594 1.415 . S
H3596 C3593 0.999 . S
H3597 C3578 0.913 . S
H3598 C3616 0.951 . S
H3599 C3618 0.951 . S
H3600 C3620 0.950 . S
H3601 C3621 0.950 . S
H3602 C3623 0.950 . S
H3603 C3626 0.950 . S
H3604 C3627 0.950 . S
H3605 C3629 0.950 . S
H3606 C3630 0.950 . S
H3607 C3631 0.951 . S
H3608 C3633 0.951 . S
H3609 C3635 0.950 . S
H3610 C3636 0.950 . S
H3611 C3638 0.950 . S
H3612 C3641 0.950 . S
H3613 C3642 0.950 . S
H3614 C3644 0.950 . S
H3615 C3645 0.950 . S
C3616 H3598 0.951 . S
C3616 C3617 1.366 . S
C3616 C3618 1.388 . S
C3617 C3616 1.366 . S
C3617 C3621 1.385 . S
C3618 H3599 0.951 . S
C3618 C3616 1.388 . S
C3618 C3619 1.366 . S
C3619 C3618 1.366 . S
C3619 C3620 1.414 . S
C3619 C3622 1.499 . S
C3620 H3600 0.950 . S
C3620 C3619 1.414 . S
C3620 C3621 1.374 . S
C3621 H3601 0.950 . S
C3621 C3617 1.385 . S
C3621 C3620 1.374 . S
C3622 C3619 1.499 . S
C3622 C3623 1.373 . S
C3622 C3624 1.389 . S
C3623 H3602 0.950 . S
C3623 C3622 1.373 . S
C3623 C3639 1.377 . S
C3624 C3622 1.389 . S
C3624 C3625 1.524 . S
C3624 C3638 1.377 . S
C3625 C3624 1.524 . S
C3625 C3626 1.397 . S
C3625 C3630 1.363 . S
C3626 H3603 0.950 . S
C3626 C3625 1.397 . S
C3626 C3627 1.334 . S
C3627 H3604 0.950 . S
C3627 C3626 1.334 . S
C3627 C3628 1.287 . S
C3628 C3627 1.287 . S
C3628 C3629 1.524 . S
C3628 H3647 0.913 . S
C3629 H3605 0.950 . S
C3629 C3628 1.524 . S
C3629 C3630 1.415 . S
C3630 H3606 0.950 . S
C3630 C3625 1.363 . S
C3630 C3629 1.415 . S
C3631 H3607 0.951 . S
C3631 C3632 1.366 . S
C3631 C3633 1.388 1_556 S
C3632 C3631 1.366 . S
C3632 C3636 1.385 . S
C3633 H3608 0.951 . S
C3633 C3631 1.388 1_554 S
C3633 C3634 1.366 . S
C3634 C3633 1.366 . S
C3634 C3635 1.414 . S
C3634 C3637 1.499 . S
C3635 H3609 0.950 . S
C3635 C3634 1.414 . S
C3635 C3636 1.374 1_554 S
C3636 H3610 0.950 . S
C3636 C3632 1.385 . S
C3636 C3635 1.374 1_556 S
C3637 C3634 1.499 . S
C3637 C3638 1.373 . S
C3637 C3639 1.389 . S
C3638 H3611 0.950 . S
C3638 C3624 1.377 . S
C3638 C3637 1.373 . S
C3639 C3623 1.377 . S
C3639 C3637 1.389 . S
C3639 C3640 1.524 . S
C3640 C3639 1.524 . S
C3640 C3641 1.397 . S
C3640 C3645 1.363 . S
C3641 H3612 0.950 . S
C3641 C3640 1.397 . S
C3641 C3642 1.334 . S
C3642 H3613 0.950 . S
C3642 C3641 1.334 . S
C3642 C3643 1.287 . S
C3643 C3642 1.287 . S
C3643 C3644 1.524 . S
C3643 H3646 0.999 . S
C3644 H3614 0.950 . S
C3644 C3643 1.524 . S
C3644 C3645 1.415 . S
C3645 H3615 0.950 . S
C3645 C3640 1.363 . S
C3645 C3644 1.415 . S
H3646 C3643 0.999 . S
H3647 C3628 0.913 . S
C467 C8 1.414 . S
C482 C64 1.413 . S
C517 C22 1.414 . S
C532 C78 1.414 . S
C567 C92 1.414 . S
C582 C36 1.413 . S
C617 C106 1.414 . S
C632 C50 1.413 . S
C667 C120 1.414 . S
C682 C176 1.413 . S
C717 C134 1.414 . S
C732 C190 1.413 . S
C767 C204 1.414 . S
C782 C148 1.413 . S
C817 C162 1.414 . S
C832 C218 1.413 . S
C867 C288 1.413 . S
C882 C232 1.414 . S
C917 C302 1.413 . S
C932 C246 1.413 . S
C967 C260 1.413 . S
C982 C316 1.414 . S
C1017 C330 1.413 . S
C1032 C274 1.413 . S
C1067 C344 1.413 . S
C1082 C400 1.413 . S
C1117 C414 1.414 . S
C1132 C358 1.413 . S
C1167 C428 1.413 . S
C1182 C372 1.413 . S
C1217 C386 1.414 . S
C1232 C442 1.413 . S
C1267 C9 1.500 . S
C1282 C385 1.491 . S
C1317 C119 1.490 . S
C1332 C23 1.500 . S
C1367 C37 1.500 . S
C1382 C357 1.490 . S
C1417 C51 1.500 . S
C1432 C147 1.490 . S
C1467 C413 1.491 . S
C1482 C65 1.500 . S
C1517 C203 1.490 . S
C1532 C79 1.501 . S
C1567 C93 1.500 . S
C1582 C441 1.489 . S
C1617 C107 1.500 . S
C1632 C175 1.490 . S
C1667 C273 1.491 . S
C1682 C121 1.500 . S
C1717 C135 1.500 . S
C1732 C7 1.490 . S
C1767 C245 1.491 . S
C1782 C149 1.500 . S
C1817 C163 1.500 . S
C1832 C35 1.490 . S
C1867 C301 1.490 . S
C1882 C177 1.500 . S
C1917 C191 1.500 . S
C1932 C91 1.490 . S
C1967 C329 1.490 . S
C1982 C205 1.500 . S
C2017 C219 1.500 . S
C2032 C63 1.490 . S
C2067 C161 1.490 . S
C2082 C233 1.500 . S
C2117 C343 1.490 . S
C2132 C247 1.500 . S
C2167 C133 1.490 . S
C2182 C261 1.500 . S
C2217 C275 1.500 . S
C2232 C371 1.490 . S
C2267 C189 1.490 . S
C2282 C289 1.499 . S
C2317 C427 1.491 . S
C2332 C303 1.500 . S
C2367 C217 1.490 . S
C2382 C317 1.499 . S
C2417 C331 1.500 . S
C2432 C399 1.490 . S
C2467 C345 1.500 . S
C2482 C49 1.491 . S
C2517 C359 1.500 . S
C2532 C231 1.491 . S
C2567 C373 1.500 . S
C2582 C21 1.491 . S
C2617 C387 1.500 . S
C2632 C259 1.491 . S
C2667 C401 1.500 . S
C2682 C77 1.490 . S
C2717 C315 1.491 . S
C2732 C415 1.500 . S
C2767 C105 1.491 . S
C2782 C429 1.500 . S
C2817 C443 1.500 . S
C2832 C287 1.490 . S
C2867 C3 0.815 . S
C2882 C101 0.816 . S
C2917 C17 0.816 . S
C2932 C59 0.816 . S
C2967 C31 0.816 . S
C2982 C73 0.815 . S
C3017 C87 0.816 . S
C3032 C45 0.816 . S
C3067 C213 0.815 . S
C3082 C115 0.816 . S
C3117 C171 0.815 . S
C3132 C129 0.816 . S
C3167 C185 0.815 . S
C3182 C143 0.816 . S
C3217 C199 0.816 . S
C3232 C157 0.815 . S
C3267 C227 0.815 . S
C3282 C325 0.816 . S
C3317 C283 0.816 . S
C3332 C241 0.815 . S
C3367 C297 0.815 . S
C3382 C255 0.816 . S
C3417 C311 0.816 . S
C3432 C269 0.815 . S
C3467 C437 0.815 . S
C3482 C339 0.816 . S
C3517 C353 0.816 . S
C3532 C395 0.815 . S
C3567 C367 0.815 . S
C3582 C409 0.816 . S
C3617 C381 0.816 . S
C3632 C423 0.816 . S
