# Generated by pormake.
# Topology nfb, (4)-cn, num edge types: 1
# Building blocks:
#     Node 0, Type 0, BuildingBlock: QUQFOY_clean_sbu_3, # of connection points: 4
#     Node 1, Type 0, BuildingBlock: QUQFOY_clean_sbu_3, # of connection points: 4
#     Node 2, Type 0, BuildingBlock: QUQFOY_clean_sbu_3, # of connection points: 4
#     Node 3, Type 0, BuildingBlock: QUQFOY_clean_sbu_3, # of connection points: 4
#     Node 4, Type 0, BuildingBlock: QUQFOY_clean_sbu_3, # of connection points: 4
#     Node 5, Type 0, BuildingBlock: QUQFOY_clean_sbu_3, # of connection points: 4
#     Node 6, Type 0, BuildingBlock: QUQFOY_clean_sbu_3, # of connection points: 4
#     Node 7, Type 0, BuildingBlock: QUQFOY_clean_sbu_3, # of connection points: 4
#     Node 8, Type 0, BuildingBlock: QUQFOY_clean_sbu_3, # of connection points: 4
#     Node 9, Type 0, BuildingBlock: QUQFOY_clean_sbu_3, # of connection points: 4
#     Node 10, Type 0, BuildingBlock: QUQFOY_clean_sbu_3, # of connection points: 4
#     Node 11, Type 0, BuildingBlock: QUQFOY_clean_sbu_3, # of connection points: 4
#     Node 12, Type 0, BuildingBlock: QUQFOY_clean_sbu_3, # of connection points: 4
#     Node 13, Type 0, BuildingBlock: QUQFOY_clean_sbu_3, # of connection points: 4
#     Node 14, Type 0, BuildingBlock: QUQFOY_clean_sbu_3, # of connection points: 4
#     Node 15, Type 0, BuildingBlock: QUQFOY_clean_sbu_3, # of connection points: 4
#     Node 16, Type 0, BuildingBlock: QUQFOY_clean_sbu_3, # of connection points: 4
#     Node 17, Type 0, BuildingBlock: QUQFOY_clean_sbu_3, # of connection points: 4
#     Node 18, Type 0, BuildingBlock: QUQFOY_clean_sbu_3, # of connection points: 4
#     Node 19, Type 0, BuildingBlock: QUQFOY_clean_sbu_3, # of connection points: 4
#     Node 20, Type 0, BuildingBlock: QUQFOY_clean_sbu_3, # of connection points: 4
#     Node 21, Type 0, BuildingBlock: QUQFOY_clean_sbu_3, # of connection points: 4
#     Node 22, Type 0, BuildingBlock: QUQFOY_clean_sbu_3, # of connection points: 4
#     Node 23, Type 0, BuildingBlock: QUQFOY_clean_sbu_3, # of connection points: 4
#     Node 24, Type 0, BuildingBlock: QUQFOY_clean_sbu_3, # of connection points: 4
#     Node 25, Type 0, BuildingBlock: QUQFOY_clean_sbu_3, # of connection points: 4
#     Node 26, Type 0, BuildingBlock: QUQFOY_clean_sbu_3, # of connection points: 4
#     Node 27, Type 0, BuildingBlock: QUQFOY_clean_sbu_3, # of connection points: 4
#     Node 28, Type 0, BuildingBlock: QUQFOY_clean_sbu_3, # of connection points: 4
#     Node 29, Type 0, BuildingBlock: QUQFOY_clean_sbu_3, # of connection points: 4
#     Node 30, Type 0, BuildingBlock: QUQFOY_clean_sbu_3, # of connection points: 4
#     Node 31, Type 0, BuildingBlock: QUQFOY_clean_sbu_3, # of connection points: 4
#     Node 32, Type 0, BuildingBlock: QUQFOY_clean_sbu_3, # of connection points: 4
#     Node 33, Type 0, BuildingBlock: QUQFOY_clean_sbu_3, # of connection points: 4
#     Node 34, Type 0, BuildingBlock: QUQFOY_clean_sbu_3, # of connection points: 4
#     Node 35, Type 0, BuildingBlock: QUQFOY_clean_sbu_3, # of connection points: 4
#     Node 36, Type 0, BuildingBlock: QUQFOY_clean_sbu_3, # of connection points: 4
#     Node 37, Type 0, BuildingBlock: QUQFOY_clean_sbu_3, # of connection points: 4
#     Node 38, Type 0, BuildingBlock: QUQFOY_clean_sbu_3, # of connection points: 4
#     Node 39, Type 0, BuildingBlock: QUQFOY_clean_sbu_3, # of connection points: 4
#     Node 40, Type 0, BuildingBlock: QUQFOY_clean_sbu_3, # of connection points: 4
#     Node 41, Type 0, BuildingBlock: QUQFOY_clean_sbu_3, # of connection points: 4
#     Node 42, Type 0, BuildingBlock: QUQFOY_clean_sbu_3, # of connection points: 4
#     Node 43, Type 0, BuildingBlock: QUQFOY_clean_sbu_3, # of connection points: 4
#     Node 44, Type 0, BuildingBlock: QUQFOY_clean_sbu_3, # of connection points: 4
#     Node 45, Type 0, BuildingBlock: QUQFOY_clean_sbu_3, # of connection points: 4
#     Node 46, Type 0, BuildingBlock: QUQFOY_clean_sbu_3, # of connection points: 4
#     Node 47, Type 0, BuildingBlock: QUQFOY_clean_sbu_3, # of connection points: 4
#     Edge 48, Type (0, 0), BuildingBlock: KIFKEQ_clean_linker_1, # of connection points: 2
#     Edge 49, Type (0, 0), BuildingBlock: KIFKEQ_clean_linker_1, # of connection points: 2
#     Edge 50, Type (0, 0), BuildingBlock: KIFKEQ_clean_linker_1, # of connection points: 2
#     Edge 51, Type (0, 0), BuildingBlock: KIFKEQ_clean_linker_1, # of connection points: 2
#     Edge 52, Type (0, 0), BuildingBlock: KIFKEQ_clean_linker_1, # of connection points: 2
#     Edge 53, Type (0, 0), BuildingBlock: KIFKEQ_clean_linker_1, # of connection points: 2
#     Edge 54, Type (0, 0), BuildingBlock: KIFKEQ_clean_linker_1, # of connection points: 2
#     Edge 55, Type (0, 0), BuildingBlock: KIFKEQ_clean_linker_1, # of connection points: 2
#     Edge 56, Type (0, 0), BuildingBlock: KIFKEQ_clean_linker_1, # of connection points: 2
#     Edge 57, Type (0, 0), BuildingBlock: KIFKEQ_clean_linker_1, # of connection points: 2
#     Edge 58, Type (0, 0), BuildingBlock: KIFKEQ_clean_linker_1, # of connection points: 2
#     Edge 59, Type (0, 0), BuildingBlock: KIFKEQ_clean_linker_1, # of connection points: 2
#     Edge 60, Type (0, 0), BuildingBlock: KIFKEQ_clean_linker_1, # of connection points: 2
#     Edge 61, Type (0, 0), BuildingBlock: KIFKEQ_clean_linker_1, # of connection points: 2
#     Edge 62, Type (0, 0), BuildingBlock: KIFKEQ_clean_linker_1, # of connection points: 2
#     Edge 63, Type (0, 0), BuildingBlock: KIFKEQ_clean_linker_1, # of connection points: 2
#     Edge 64, Type (0, 0), BuildingBlock: KIFKEQ_clean_linker_1, # of connection points: 2
#     Edge 65, Type (0, 0), BuildingBlock: KIFKEQ_clean_linker_1, # of connection points: 2
#     Edge 66, Type (0, 0), BuildingBlock: KIFKEQ_clean_linker_1, # of connection points: 2
#     Edge 67, Type (0, 0), BuildingBlock: KIFKEQ_clean_linker_1, # of connection points: 2
#     Edge 68, Type (0, 0), BuildingBlock: KIFKEQ_clean_linker_1, # of connection points: 2
#     Edge 69, Type (0, 0), BuildingBlock: KIFKEQ_clean_linker_1, # of connection points: 2
#     Edge 70, Type (0, 0), BuildingBlock: KIFKEQ_clean_linker_1, # of connection points: 2
#     Edge 71, Type (0, 0), BuildingBlock: KIFKEQ_clean_linker_1, # of connection points: 2
#     Edge 72, Type (0, 0), BuildingBlock: KIFKEQ_clean_linker_1, # of connection points: 2
#     Edge 73, Type (0, 0), BuildingBlock: KIFKEQ_clean_linker_1, # of connection points: 2
#     Edge 74, Type (0, 0), BuildingBlock: KIFKEQ_clean_linker_1, # of connection points: 2
#     Edge 75, Type (0, 0), BuildingBlock: KIFKEQ_clean_linker_1, # of connection points: 2
#     Edge 76, Type (0, 0), BuildingBlock: KIFKEQ_clean_linker_1, # of connection points: 2
#     Edge 77, Type (0, 0), BuildingBlock: KIFKEQ_clean_linker_1, # of connection points: 2
#     Edge 78, Type (0, 0), BuildingBlock: KIFKEQ_clean_linker_1, # of connection points: 2
#     Edge 79, Type (0, 0), BuildingBlock: KIFKEQ_clean_linker_1, # of connection points: 2
#     Edge 80, Type (0, 0), BuildingBlock: KIFKEQ_clean_linker_1, # of connection points: 2
#     Edge 81, Type (0, 0), BuildingBlock: KIFKEQ_clean_linker_1, # of connection points: 2
#     Edge 82, Type (0, 0), BuildingBlock: KIFKEQ_clean_linker_1, # of connection points: 2
#     Edge 83, Type (0, 0), BuildingBlock: KIFKEQ_clean_linker_1, # of connection points: 2
#     Edge 84, Type (0, 0), BuildingBlock: KIFKEQ_clean_linker_1, # of connection points: 2
#     Edge 85, Type (0, 0), BuildingBlock: KIFKEQ_clean_linker_1, # of connection points: 2
#     Edge 86, Type (0, 0), BuildingBlock: KIFKEQ_clean_linker_1, # of connection points: 2
#     Edge 87, Type (0, 0), BuildingBlock: KIFKEQ_clean_linker_1, # of connection points: 2
#     Edge 88, Type (0, 0), BuildingBlock: KIFKEQ_clean_linker_1, # of connection points: 2
#     Edge 89, Type (0, 0), BuildingBlock: KIFKEQ_clean_linker_1, # of connection points: 2
#     Edge 90, Type (0, 0), BuildingBlock: KIFKEQ_clean_linker_1, # of connection points: 2
#     Edge 91, Type (0, 0), BuildingBlock: KIFKEQ_clean_linker_1, # of connection points: 2
#     Edge 92, Type (0, 0), BuildingBlock: KIFKEQ_clean_linker_1, # of connection points: 2
#     Edge 93, Type (0, 0), BuildingBlock: KIFKEQ_clean_linker_1, # of connection points: 2
#     Edge 94, Type (0, 0), BuildingBlock: KIFKEQ_clean_linker_1, # of connection points: 2
#     Edge 95, Type (0, 0), BuildingBlock: KIFKEQ_clean_linker_1, # of connection points: 2
#     Edge 96, Type (0, 0), BuildingBlock: KIFKEQ_clean_linker_1, # of connection points: 2
#     Edge 97, Type (0, 0), BuildingBlock: KIFKEQ_clean_linker_1, # of connection points: 2
#     Edge 98, Type (0, 0), BuildingBlock: KIFKEQ_clean_linker_1, # of connection points: 2
#     Edge 99, Type (0, 0), BuildingBlock: KIFKEQ_clean_linker_1, # of connection points: 2
#     Edge 100, Type (0, 0), BuildingBlock: KIFKEQ_clean_linker_1, # of connection points: 2
#     Edge 101, Type (0, 0), BuildingBlock: KIFKEQ_clean_linker_1, # of connection points: 2
#     Edge 102, Type (0, 0), BuildingBlock: KIFKEQ_clean_linker_1, # of connection points: 2
#     Edge 103, Type (0, 0), BuildingBlock: KIFKEQ_clean_linker_1, # of connection points: 2
#     Edge 104, Type (0, 0), BuildingBlock: KIFKEQ_clean_linker_1, # of connection points: 2
#     Edge 105, Type (0, 0), BuildingBlock: KIFKEQ_clean_linker_1, # of connection points: 2
#     Edge 106, Type (0, 0), BuildingBlock: KIFKEQ_clean_linker_1, # of connection points: 2
#     Edge 107, Type (0, 0), BuildingBlock: KIFKEQ_clean_linker_1, # of connection points: 2
#     Edge 108, Type (0, 0), BuildingBlock: KIFKEQ_clean_linker_1, # of connection points: 2
#     Edge 109, Type (0, 0), BuildingBlock: KIFKEQ_clean_linker_1, # of connection points: 2
#     Edge 110, Type (0, 0), BuildingBlock: KIFKEQ_clean_linker_1, # of connection points: 2
#     Edge 111, Type (0, 0), BuildingBlock: KIFKEQ_clean_linker_1, # of connection points: 2
#     Edge 112, Type (0, 0), BuildingBlock: KIFKEQ_clean_linker_1, # of connection points: 2
#     Edge 113, Type (0, 0), BuildingBlock: KIFKEQ_clean_linker_1, # of connection points: 2
#     Edge 114, Type (0, 0), BuildingBlock: KIFKEQ_clean_linker_1, # of connection points: 2
#     Edge 115, Type (0, 0), BuildingBlock: KIFKEQ_clean_linker_1, # of connection points: 2
#     Edge 116, Type (0, 0), BuildingBlock: KIFKEQ_clean_linker_1, # of connection points: 2
#     Edge 117, Type (0, 0), BuildingBlock: KIFKEQ_clean_linker_1, # of connection points: 2
#     Edge 118, Type (0, 0), BuildingBlock: KIFKEQ_clean_linker_1, # of connection points: 2
#     Edge 119, Type (0, 0), BuildingBlock: KIFKEQ_clean_linker_1, # of connection points: 2
#     Edge 120, Type (0, 0), BuildingBlock: KIFKEQ_clean_linker_1, # of connection points: 2
#     Edge 121, Type (0, 0), BuildingBlock: KIFKEQ_clean_linker_1, # of connection points: 2
#     Edge 122, Type (0, 0), BuildingBlock: KIFKEQ_clean_linker_1, # of connection points: 2
#     Edge 123, Type (0, 0), BuildingBlock: KIFKEQ_clean_linker_1, # of connection points: 2
#     Edge 124, Type (0, 0), BuildingBlock: KIFKEQ_clean_linker_1, # of connection points: 2
#     Edge 125, Type (0, 0), BuildingBlock: KIFKEQ_clean_linker_1, # of connection points: 2
#     Edge 126, Type (0, 0), BuildingBlock: KIFKEQ_clean_linker_1, # of connection points: 2
#     Edge 127, Type (0, 0), BuildingBlock: KIFKEQ_clean_linker_1, # of connection points: 2
#     Edge 128, Type (0, 0), BuildingBlock: KIFKEQ_clean_linker_1, # of connection points: 2
#     Edge 129, Type (0, 0), BuildingBlock: KIFKEQ_clean_linker_1, # of connection points: 2
#     Edge 130, Type (0, 0), BuildingBlock: KIFKEQ_clean_linker_1, # of connection points: 2
#     Edge 131, Type (0, 0), BuildingBlock: KIFKEQ_clean_linker_1, # of connection points: 2
#     Edge 132, Type (0, 0), BuildingBlock: KIFKEQ_clean_linker_1, # of connection points: 2
#     Edge 133, Type (0, 0), BuildingBlock: KIFKEQ_clean_linker_1, # of connection points: 2
#     Edge 134, Type (0, 0), BuildingBlock: KIFKEQ_clean_linker_1, # of connection points: 2
#     Edge 135, Type (0, 0), BuildingBlock: KIFKEQ_clean_linker_1, # of connection points: 2
#     Edge 136, Type (0, 0), BuildingBlock: KIFKEQ_clean_linker_1, # of connection points: 2
#     Edge 137, Type (0, 0), BuildingBlock: KIFKEQ_clean_linker_1, # of connection points: 2
#     Edge 138, Type (0, 0), BuildingBlock: KIFKEQ_clean_linker_1, # of connection points: 2
#     Edge 139, Type (0, 0), BuildingBlock: KIFKEQ_clean_linker_1, # of connection points: 2
#     Edge 140, Type (0, 0), BuildingBlock: KIFKEQ_clean_linker_1, # of connection points: 2
#     Edge 141, Type (0, 0), BuildingBlock: KIFKEQ_clean_linker_1, # of connection points: 2
#     Edge 142, Type (0, 0), BuildingBlock: KIFKEQ_clean_linker_1, # of connection points: 2
#     Edge 143, Type (0, 0), BuildingBlock: KIFKEQ_clean_linker_1, # of connection points: 2
# Relax obj value: 0.265
# Max RMSD: 0.076
# Mean RMSD: 0.068
data_MOF--net-nfb--node1-QUQFOY_clean_sbu_3--edge1-KIFKEQ_clean_linker_1
_symmetry_space_group_name_H-M    P1
_symmetry_Int_Tables_number       1
_symmetry_cell_setting            triclinic
loop_
_symmetry_equiv_pos_as_xyz
'x, y, z'
_cell_length_a     62.769564
_cell_length_b     62.715124
_cell_length_c     62.724095
_cell_angle_alpha  90.358871
_cell_angle_beta   90.369736
_cell_angle_gamma 91.524797
loop_
_atom_site_label
_atom_site_type_symbol
_atom_site_fract_x
_atom_site_fract_y
_atom_site_fract_z
_atom_type_partial_charge
C0 C 0.10749 0.16757 0.37039 0.0
O1 O 0.09654 0.16765 0.38734 0.0
Cd2 Cd 0.08988 0.13862 0.41041 0.0
O3 O 0.11602 0.15068 0.3635 0.0
Cd4 Cd 0.11815 0.11217 0.37291 0.0
C5 C 0.06408 0.10594 0.37256 0.0
O6 O 0.12252 0.12197 0.40887 0.0
O7 O 0.11899 0.08807 0.40449 0.0
O8 O 0.15125 0.12397 0.35685 0.0
C9 C 0.12204 0.10369 0.41715 0.0
O10 O 0.06504 0.11666 0.38986 0.0
C11 C 0.15987 0.10596 0.35654 0.0
O12 O 0.08067 0.10279 0.36125 0.0
O13 O 0.14798 0.08987 0.36107 0.0
C14 C 0.37268 0.64078 0.91614 0.0
O15 O 0.35741 0.65315 0.91239 0.0
Cd16 Cd 0.33622 0.65501 0.88088 0.0
O17 O 0.37926 0.62799 0.90184 0.0
Cd18 Cd 0.37196 0.6189 0.86364 0.0
C19 C 0.37807 0.66745 0.85383 0.0
O20 O 0.33461 0.61873 0.87176 0.0
O21 O 0.34128 0.62077 0.83807 0.0
O22 O 0.37932 0.58426 0.8771 0.0
C23 C 0.32769 0.61847 0.85284 0.0
O24 O 0.3588 0.66179 0.85089 0.0
C25 C 0.38638 0.57604 0.86013 0.0
O26 O 0.39155 0.65308 0.85734 0.0
O27 O 0.38847 0.58841 0.84418 0.0
C28 C 0.87868 0.81621 0.36877 0.0
O29 O 0.89165 0.81658 0.38447 0.0
Cd30 Cd 0.90321 0.84722 0.40377 0.0
O31 O 0.8701 0.83318 0.36185 0.0
Cd32 Cd 0.86706 0.87335 0.36672 0.0
C33 C 0.91378 0.87995 0.35911 0.0
O34 O 0.86991 0.86325 0.40388 0.0
O35 O 0.86621 0.89682 0.39915 0.0
O36 O 0.83252 0.85936 0.35789 0.0
C37 C 0.86811 0.8815 0.41205 0.0
O38 O 0.9064 0.86887 0.37406 0.0
C39 C 0.82342 0.87704 0.35625 0.0
O40 O 0.90014 0.8879 0.34667 0.0
O41 O 0.83528 0.89379 0.35635 0.0
C42 C 0.61214 0.34529 0.92379 0.0
O43 O 0.62913 0.33463 0.92474 0.0
Cd44 Cd 0.65251 0.32847 0.89635 0.0
O45 O 0.60619 0.35476 0.90679 0.0
Cd46 Cd 0.61426 0.36328 0.86811 0.0
C47 C 0.60755 0.31664 0.86542 0.0
O48 O 0.65121 0.36198 0.87994 0.0
O49 O 0.64789 0.36416 0.84597 0.0
O50 O 0.60671 0.39762 0.88262 0.0
C51 C 0.66019 0.36284 0.86206 0.0
O52 O 0.62306 0.32612 0.87425 0.0
C53 C 0.60002 0.40624 0.86573 0.0
O54 O 0.59489 0.32835 0.85521 0.0
O55 O 0.59809 0.39427 0.8493 0.0
C56 C 0.13566 0.86467 0.56372 0.0
O57 O 0.14458 0.84667 0.56399 0.0
Cd58 Cd 0.15111 0.82534 0.59373 0.0
O59 O 0.12776 0.87301 0.58048 0.0
Cd60 Cd 0.12057 0.86602 0.61956 0.0
C61 C 0.16748 0.87021 0.62475 0.0
O62 O 0.11765 0.82832 0.6095 0.0
O63 O 0.12237 0.83375 0.64307 0.0
O64 O 0.08663 0.87781 0.60618 0.0
C65 C 0.11872 0.82063 0.62793 0.0
O66 O 0.15863 0.85521 0.61447 0.0
C67 C 0.07809 0.88166 0.62398 0.0
O68 O 0.15539 0.88438 0.63213 0.0
O69 O 0.08994 0.8799 0.64039 0.0
C70 C 0.66838 0.61166 0.11505 0.0
O71 O 0.66737 0.59877 0.09938 0.0
Cd72 Cd 0.63575 0.59014 0.07992 0.0
O73 O 0.65182 0.62059 0.12216 0.0
Cd74 Cd 0.6123 0.62089 0.11633 0.0
C75 C 0.60655 0.56718 0.12135 0.0
O76 O 0.61942 0.62346 0.07915 0.0
O77 O 0.58612 0.62021 0.08681 0.0
O78 O 0.62218 0.65494 0.13292 0.0
C79 C 0.60029 0.62335 0.07283 0.0
O80 O 0.61661 0.56662 0.10383 0.0
C81 C 0.60378 0.66267 0.13202 0.0
O82 O 0.60329 0.58479 0.13109 0.0
O83 O 0.58859 0.65 0.12651 0.0
C84 C 0.84908 0.11524 0.56933 0.0
O85 O 0.84043 0.13333 0.56815 0.0
Cd86 Cd 0.83749 0.1576 0.59653 0.0
O87 O 0.8578 0.10858 0.5865 0.0
Cd88 Cd 0.86647 0.11671 0.62537 0.0
C89 C 0.81904 0.11515 0.62903 0.0
O90 O 0.87045 0.1528 0.61323 0.0
O91 O 0.86692 0.15081 0.64715 0.0
O92 O 0.90018 0.10268 0.61335 0.0
C93 C 0.86987 0.16242 0.63088 0.0
O94 O 0.82883 0.12917 0.61851 0.0
C95 C 0.90833 0.09999 0.63164 0.0
O96 O 0.83035 0.10105 0.63771 0.0
O97 O 0.89625 0.10321 0.6475 0.0
C98 C 0.31722 0.37618 0.11126 0.0
O99 O 0.31681 0.38468 0.09299 0.0
Cd100 Cd 0.3476 0.3923 0.07286 0.0
O101 O 0.33459 0.37044 0.11979 0.0
Cd102 Cd 0.37321 0.36831 0.11119 0.0
C103 C 0.37779 0.4209 0.11178 0.0
O104 O 0.36622 0.36062 0.07448 0.0
O105 O 0.39871 0.37042 0.08106 0.0
O106 O 0.35932 0.33597 0.12443 0.0
C107 C 0.38501 0.36317 0.06777 0.0
O108 O 0.36728 0.41815 0.09449 0.0
C109 C 0.37671 0.32641 0.12623 0.0
O110 O 0.38178 0.4052 0.12396 0.0
O111 O 0.39382 0.33776 0.12507 0.0
C112 C 0.37279 0.11372 0.16717 0.0
O113 O 0.38921 0.10232 0.1676 0.0
Cd114 Cd 0.41042 0.09398 0.13785 0.0
O115 O 0.36613 0.12203 0.14995 0.0
Cd116 Cd 0.37491 0.12512 0.11118 0.0
C117 C 0.36868 0.07132 0.10687 0.0
O118 O 0.4109 0.1273 0.12154 0.0
O119 O 0.40676 0.12882 0.0876 0.0
O120 O 0.36225 0.15699 0.12572 0.0
C121 C 0.41938 0.12922 0.10347 0.0
O122 O 0.38535 0.07108 0.1185 0.0
C123 C 0.36089 0.16731 0.10853 0.0
O124 O 0.36014 0.08882 0.10144 0.0
O125 O 0.36243 0.15675 0.09119 0.0
C126 C 0.37072 0.91717 0.61292 0.0
O127 O 0.37616 0.91948 0.63227 0.0
Cd128 Cd 0.35776 0.89417 0.65289 0.0
O129 O 0.36621 0.89864 0.60549 0.0
Cd130 Cd 0.37507 0.86231 0.61962 0.0
C131 C 0.3251 0.86819 0.61321 0.0
O132 O 0.38184 0.86755 0.65729 0.0
O133 O 0.36504 0.8382 0.64958 0.0
O134 O 0.41018 0.87305 0.60854 0.0
C135 C 0.37331 0.85035 0.6638 0.0
O136 O 0.32986 0.88066 0.62875 0.0
C137 C 0.41585 0.85485 0.60217 0.0
O138 O 0.33908 0.85642 0.60477 0.0
O139 O 0.40191 0.83966 0.60264 0.0
C140 C 0.60887 0.87714 0.16887 0.0
O141 O 0.59313 0.88916 0.16615 0.0
Cd142 Cd 0.57295 0.89402 0.1352 0.0
O143 O 0.61652 0.86661 0.15332 0.0
Cd144 Cd 0.61 0.86176 0.11375 0.0
C145 C 0.61304 0.91544 0.10324 0.0
O146 O 0.5733 0.85929 0.12208 0.0
O147 O 0.57886 0.85603 0.08859 0.0
O148 O 0.6261 0.82953 0.12704 0.0
C149 C 0.56556 0.85638 0.10367 0.0
O150 O 0.59552 0.91561 0.11326 0.0
C151 C 0.6264 0.81977 0.10931 0.0
O152 O 0.6238 0.89837 0.10172 0.0
O153 O 0.62184 0.83056 0.09289 0.0
C154 C 0.632 0.06806 0.6199 0.0
O155 O 0.64504 0.06811 0.63556 0.0
Cd156 Cd 0.65583 0.09698 0.65728 0.0
O157 O 0.62197 0.08464 0.61419 0.0
Cd158 Cd 0.61561 0.12365 0.62171 0.0
C159 C 0.66136 0.12751 0.61324 0.0
O160 O 0.62169 0.11153 0.65838 0.0
O161 O 0.61369 0.1445 0.6563 0.0
O162 O 0.58081 0.1093 0.61057 0.0
C163 C 0.61884 0.12893 0.66791 0.0
O164 O 0.65259 0.11978 0.62934 0.0
C165 C 0.57239 0.12709 0.60699 0.0
O166 O 0.64916 0.1373 0.60067 0.0
O167 O 0.58445 0.14361 0.60908 0.0
C168 C 0.41791 0.85421 0.86881 0.0
O169 O 0.41955 0.84512 0.85069 0.0
Cd170 Cd 0.39198 0.83923 0.82525 0.0
O171 O 0.40069 0.86281 0.87494 0.0
Cd172 Cd 0.36244 0.87086 0.86525 0.0
C173 C 0.36121 0.82397 0.86896 0.0
O174 O 0.37317 0.87109 0.82765 0.0
O175 O 0.33926 0.87027 0.83275 0.0
O176 O 0.37632 0.9055 0.87564 0.0
C177 C 0.35463 0.87061 0.81971 0.0
O178 O 0.36962 0.83431 0.85404 0.0
C179 C 0.35901 0.91336 0.88183 0.0
O180 O 0.35074 0.83486 0.88223 0.0
O181 O 0.34266 0.90086 0.88172 0.0
C182 C 0.61293 0.87197 0.32036 0.0
O183 O 0.60419 0.88995 0.31918 0.0
Cd184 Cd 0.59809 0.91335 0.3481 0.0
O185 O 0.62001 0.86489 0.33794 0.0
Cd186 Cd 0.62426 0.87542 0.3761 0.0
C187 C 0.57071 0.87562 0.38027 0.0
O188 O 0.63007 0.9116 0.36673 0.0
O189 O 0.62757 0.90684 0.4005 0.0
O190 O 0.65532 0.8615 0.36082 0.0
C191 C 0.63047 0.9197 0.38521 0.0
O192 O 0.57335 0.89207 0.36869 0.0
C193 C 0.66594 0.85948 0.37785 0.0
O194 O 0.58652 0.86408 0.38533 0.0
O195 O 0.6559 0.86174 0.39533 0.0
C196 C 0.56801 0.13052 0.87558 0.0
O197 O 0.56664 0.14182 0.85884 0.0
Cd198 Cd 0.59429 0.14746 0.834 0.0
O199 O 0.58494 0.12074 0.88063 0.0
Cd200 Cd 0.62324 0.11321 0.87232 0.0
C201 C 0.62948 0.16004 0.8756 0.0
O202 O 0.60892 0.11335 0.83597 0.0
O203 O 0.64302 0.11241 0.83778 0.0
O204 O 0.61175 0.07901 0.8886 0.0
C205 C 0.62637 0.11265 0.82621 0.0
O206 O 0.61842 0.15054 0.86168 0.0
C207 C 0.62987 0.07064 0.88736 0.0
O208 O 0.63835 0.14825 0.88927 0.0
O209 O 0.64518 0.0826 0.88106 0.0
C210 C 0.36617 0.11056 0.3182 0.0
O211 O 0.37671 0.09362 0.31784 0.0
Cd212 Cd 0.38421 0.07417 0.34876 0.0
O213 O 0.35908 0.11814 0.33558 0.0
Cd214 Cd 0.35851 0.11113 0.37484 0.0
C215 C 0.41109 0.11348 0.38055 0.0
O216 O 0.35145 0.07393 0.36647 0.0
O217 O 0.36208 0.08019 0.39859 0.0
O218 O 0.32652 0.13146 0.36722 0.0
C219 C 0.35474 0.06686 0.38496 0.0
O220 O 0.40852 0.09666 0.36927 0.0
C221 C 0.31707 0.12686 0.38441 0.0
O222 O 0.3952 0.12508 0.38496 0.0
O223 O 0.32811 0.11782 0.39858 0.0
C224 C 0.16593 0.37737 0.11162 0.0
O225 O 0.16601 0.39398 0.10016 0.0
Cd226 Cd 0.13544 0.41343 0.09107 0.0
O227 O 0.14878 0.36959 0.11948 0.0
Cd228 Cd 0.11004 0.37677 0.12094 0.0
C229 C 0.10449 0.37256 0.06758 0.0
O230 O 0.11819 0.41354 0.12393 0.0
O231 O 0.0848 0.40666 0.11896 0.0
O232 O 0.12151 0.36833 0.15588 0.0
C233 C 0.09954 0.42038 0.12279 0.0
O234 O 0.11462 0.3904 0.06747 0.0
C235 C 0.10348 0.36352 0.16362 0.0
O236 O 0.10168 0.36197 0.08476 0.0
O237 O 0.08776 0.36209 0.15068 0.0
C238 C 0.17107 0.61439 0.86875 0.0
O239 O 0.16784 0.59888 0.88137 0.0
Cd240 Cd 0.13539 0.5803 0.88745 0.0
O241 O 0.15584 0.62259 0.85833 0.0
Cd242 Cd 0.11631 0.61798 0.85358 0.0
C243 C 0.10643 0.62266 0.90687 0.0
O244 O 0.12353 0.58194 0.85242 0.0
O245 O 0.09006 0.58675 0.84928 0.0
O246 O 0.1317 0.63115 0.8209 0.0
C247 C 0.10521 0.5738 0.84971 0.0
O248 O 0.11497 0.60457 0.90834 0.0
C249 C 0.11424 0.63278 0.81089 0.0
O250 O 0.10588 0.63282 0.88921 0.0
O251 O 0.09727 0.6308 0.82179 0.0
C252 C 0.91944 0.61692 0.3489 0.0
O253 O 0.91436 0.63154 0.33608 0.0
Cd254 Cd 0.88223 0.65054 0.33578 0.0
O255 O 0.90622 0.60969 0.36255 0.0
Cd256 Cd 0.86843 0.61703 0.36987 0.0
C257 C 0.85602 0.60923 0.3197 0.0
O258 O 0.87629 0.65467 0.37249 0.0
O259 O 0.84335 0.647 0.3656 0.0
O260 O 0.88016 0.6069 0.40494 0.0
C261 C 0.85747 0.66097 0.37083 0.0
O262 O 0.85242 0.6288 0.32264 0.0
C263 C 0.86224 0.60011 0.41166 0.0
O264 O 0.86333 0.59859 0.33519 0.0
O265 O 0.84681 0.5998 0.39834 0.0
C266 C 0.81633 0.36388 0.87242 0.0
O267 O 0.81637 0.3806 0.88394 0.0
Cd268 Cd 0.84675 0.40116 0.89417 0.0
O269 O 0.83349 0.35648 0.86484 0.0
Cd270 Cd 0.87312 0.36402 0.86395 0.0
C271 C 0.87567 0.36022 0.91779 0.0
O272 O 0.86454 0.39966 0.8619 0.0
O273 O 0.89838 0.39582 0.86317 0.0
O274 O 0.86156 0.35069 0.82982 0.0
C275 C 0.88287 0.40826 0.86172 0.0
O276 O 0.86475 0.37702 0.91757 0.0
C277 C 0.87984 0.34962 0.82155 0.0
O278 O 0.88093 0.35065 0.90057 0.0
O279 O 0.89578 0.35227 0.83401 0.0
C280 C 0.1055 0.31959 0.37903 0.0
O281 O 0.08923 0.32208 0.39065 0.0
Cd282 Cd 0.06941 0.35309 0.39583 0.0
O283 O 0.1138 0.33519 0.36874 0.0
Cd284 Cd 0.10774 0.37416 0.36352 0.0
C285 C 0.11109 0.38419 0.41714 0.0
O286 O 0.0711 0.3659 0.3612 0.0
O287 O 0.07763 0.39955 0.35985 0.0
O288 O 0.12096 0.35999 0.33056 0.0
C289 C 0.06393 0.38435 0.35931 0.0
O290 O 0.0928 0.37499 0.41794 0.0
C291 C 0.12399 0.3777 0.32133 0.0
O292 O 0.12175 0.38512 0.39979 0.0
O293 O 0.12223 0.39442 0.33274 0.0
C294 C 0.86914 0.56318 0.13392 0.0
O295 O 0.85231 0.5622 0.1452 0.0
Cd296 Cd 0.83028 0.59099 0.15416 0.0
O297 O 0.87557 0.58031 0.12473 0.0
Cd298 Cd 0.86971 0.61916 0.11763 0.0
C299 C 0.87571 0.6212 0.16405 0.0
O300 O 0.832 0.60888 0.12131 0.0
O301 O 0.83765 0.64231 0.11534 0.0
O302 O 0.87542 0.60521 0.08242 0.0
C303 C 0.82441 0.62714 0.11908 0.0
O304 O 0.85986 0.61339 0.15435 0.0
C305 C 0.88469 0.62156 0.07468 0.0
O306 O 0.8892 0.63119 0.15258 0.0
O307 O 0.88853 0.63716 0.08736 0.0
C308 C 0.91941 0.36966 0.6331 0.0
O309 O 0.92078 0.35177 0.64229 0.0
Cd310 Cd 0.89178 0.328 0.64648 0.0
O311 O 0.90204 0.37563 0.62452 0.0
Cd312 Cd 0.86338 0.36591 0.61743 0.0
C313 C 0.85849 0.36866 0.66749 0.0
O314 O 0.87392 0.33022 0.61416 0.0
O315 O 0.84036 0.33242 0.61987 0.0
O316 O 0.87614 0.37798 0.58356 0.0
C317 C 0.85613 0.32073 0.61624 0.0
O318 O 0.8704 0.35317 0.66362 0.0
C319 C 0.85837 0.3817 0.57487 0.0
O320 O 0.85233 0.38076 0.65249 0.0
O321 O 0.84201 0.37987 0.58671 0.0
C322 C 0.06839 0.6165 0.61804 0.0
O323 O 0.06721 0.63581 0.62402 0.0
Cd324 Cd 0.09702 0.65856 0.62862 0.0
O325 O 0.08566 0.60879 0.6111 0.0
Cd326 Cd 0.1234 0.61923 0.60253 0.0
C327 C 0.12307 0.61618 0.65473 0.0
O328 O 0.11526 0.65506 0.59698 0.0
O329 O 0.14815 0.65186 0.60528 0.0
O330 O 0.11039 0.60994 0.56792 0.0
C331 C 0.13319 0.66407 0.60001 0.0
O332 O 0.11289 0.63321 0.65196 0.0
C333 C 0.12708 0.60155 0.56085 0.0
O334 O 0.13018 0.60555 0.63897 0.0
O335 O 0.14251 0.59945 0.57396 0.0
C336 C 0.87561 0.86833 0.56626 0.0
O337 O 0.88144 0.84916 0.56535 0.0
Cd338 Cd 0.8904 0.82957 0.59529 0.0
O339 O 0.87124 0.87724 0.58394 0.0
Cd340 Cd 0.86707 0.86535 0.6217 0.0
C341 C 0.91991 0.87022 0.62166 0.0
O342 O 0.85859 0.8288 0.61447 0.0
O343 O 0.87273 0.83411 0.64541 0.0
O344 O 0.83305 0.87781 0.61112 0.0
C345 C 0.863 0.82149 0.63258 0.0
O346 O 0.91803 0.85299 0.61089 0.0
C347 C 0.82564 0.88055 0.6296 0.0
O348 O 0.90359 0.8799 0.62844 0.0
O349 O 0.83844 0.8785 0.64526 0.0
C350 C 0.66123 0.34865 0.12046 0.0
O351 O 0.66047 0.33728 0.10358 0.0
Cd352 Cd 0.63101 0.32952 0.08167 0.0
O353 O 0.64508 0.35858 0.12753 0.0
Cd354 Cd 0.60561 0.36583 0.12109 0.0
C355 C 0.60356 0.31934 0.12744 0.0
O356 O 0.61433 0.36277 0.08312 0.0
O357 O 0.58101 0.36676 0.08937 0.0
O358 O 0.61972 0.401 0.12899 0.0
C359 C 0.59566 0.36434 0.07579 0.0
O360 O 0.6104 0.32913 0.11151 0.0
C361 C 0.60247 0.40931 0.13475 0.0
O362 O 0.59423 0.33075 0.14114 0.0
O363 O 0.58627 0.39676 0.13624 0.0
C364 C 0.10729 0.11675 0.57201 0.0
O365 O 0.09701 0.13388 0.57153 0.0
Cd366 Cd 0.09062 0.15465 0.60215 0.0
O367 O 0.1155 0.10996 0.58918 0.0
Cd368 Cd 0.11917 0.1195 0.62736 0.0
C369 C 0.06549 0.11453 0.63166 0.0
O370 O 0.12522 0.15568 0.6172 0.0
O371 O 0.12027 0.15176 0.65081 0.0
O372 O 0.15186 0.10539 0.61489 0.0
C373 C 0.12575 0.16389 0.63558 0.0
O374 O 0.06568 0.13198 0.62143 0.0
C375 C 0.161 0.10376 0.6328 0.0
O376 O 0.0827 0.10481 0.63576 0.0
O377 O 0.14961 0.10676 0.64923 0.0
C378 C 0.32335 0.63858 0.10663 0.0
O379 O 0.32961 0.64839 0.0901 0.0
Cd380 Cd 0.36315 0.64955 0.07474 0.0
O381 O 0.33628 0.62769 0.11774 0.0
Cd382 Cd 0.37568 0.62037 0.11431 0.0
C383 C 0.3848 0.67336 0.11916 0.0
O384 O 0.36986 0.61342 0.0782 0.0
O385 O 0.4025 0.62195 0.08359 0.0
O386 O 0.36313 0.58597 0.12497 0.0
C387 C 0.38815 0.61569 0.07045 0.0
O388 O 0.38226 0.67306 0.09904 0.0
C389 C 0.38068 0.57896 0.13165 0.0
O390 O 0.38173 0.65654 0.13023 0.0
O391 O 0.3962 0.59239 0.13333 0.0
C392 C 0.84997 0.167 0.37235 0.0
O393 O 0.84112 0.16588 0.39043 0.0
Cd394 Cd 0.83716 0.13622 0.41287 0.0
O395 O 0.85935 0.15119 0.3641 0.0
Cd396 Cd 0.86601 0.11325 0.37358 0.0
C397 C 0.81268 0.10586 0.37264 0.0
O398 O 0.86887 0.1183 0.41109 0.0
O399 O 0.86466 0.08539 0.40165 0.0
O400 O 0.90246 0.12321 0.36874 0.0
C401 C 0.8674 0.09896 0.41656 0.0
O402 O 0.81366 0.11516 0.39071 0.0
C403 C 0.90778 0.10708 0.35795 0.0
O404 O 0.82908 0.10423 0.36076 0.0
O405 O 0.89296 0.09388 0.35229 0.0
C406 C 0.36503 0.37582 0.91538 0.0
O407 O 0.34773 0.3858 0.91598 0.0
Cd408 Cd 0.32765 0.39146 0.88492 0.0
O409 O 0.37197 0.36798 0.89804 0.0
Cd410 Cd 0.36386 0.36404 0.85914 0.0
C411 C 0.36939 0.41747 0.85736 0.0
O412 O 0.32799 0.35716 0.86911 0.0
O413 O 0.33177 0.36368 0.83571 0.0
O414 O 0.38265 0.33357 0.87116 0.0
C415 C 0.31978 0.35733 0.85073 0.0
O416 O 0.35242 0.41647 0.86833 0.0
C417 C 0.38115 0.32266 0.85416 0.0
O418 O 0.37841 0.40057 0.85091 0.0
O419 O 0.37424 0.33221 0.83777 0.0
C420 C 0.13526 0.82161 0.36645 0.0
O421 O 0.14965 0.8271 0.37988 0.0
Cd422 Cd 0.15395 0.8601 0.39834 0.0
O423 O 0.12197 0.83494 0.35937 0.0
Cd424 Cd 0.117 0.87398 0.36493 0.0
C425 C 0.16713 0.88596 0.35752 0.0
O426 O 0.11778 0.86646 0.40183 0.0
O427 O 0.11857 0.9001 0.39605 0.0
O428 O 0.08192 0.86145 0.35782 0.0
C429 C 0.11768 0.88504 0.40947 0.0
O430 O 0.16387 0.89046 0.37687 0.0
C431 C 0.07438 0.87864 0.35087 0.0
O432 O 0.15173 0.878 0.34653 0.0
O433 O 0.08756 0.89409 0.34771 0.0
C434 C 0.61721 0.60884 0.92095 0.0
O435 O 0.63531 0.60051 0.92271 0.0
Cd436 Cd 0.657 0.59453 0.89326 0.0
O437 O 0.6101 0.61521 0.90309 0.0
Cd438 Cd 0.61942 0.61832 0.86465 0.0
C439 C 0.61793 0.56552 0.86283 0.0
O440 O 0.65505 0.62681 0.87521 0.0
O441 O 0.65204 0.61622 0.84263 0.0
O442 O 0.60016 0.64954 0.87437 0.0
C443 C 0.66375 0.62416 0.85737 0.0
O444 O 0.63457 0.56904 0.87416 0.0
C445 C 0.60309 0.65977 0.85727 0.0
O446 O 0.60649 0.58094 0.85661 0.0
O447 O 0.6107 0.64939 0.84172 0.0
C448 C 0.5664 0.87061 0.87193 0.0
O449 O 0.56536 0.88158 0.85506 0.0
Cd450 Cd 0.59529 0.88865 0.83346 0.0
O451 O 0.58371 0.86231 0.87795 0.0
Cd452 Cd 0.62187 0.85941 0.86797 0.0
C453 C 0.62727 0.91289 0.87296 0.0
O454 O 0.61046 0.85472 0.83199 0.0
O455 O 0.64422 0.86073 0.83548 0.0
O456 O 0.61022 0.82687 0.88479 0.0
C457 C 0.62859 0.85556 0.82344 0.0
O458 O 0.61602 0.91287 0.85602 0.0
C459 C 0.6275 0.81701 0.8835 0.0
O460 O 0.63175 0.89557 0.88248 0.0
O461 O 0.64377 0.82791 0.87755 0.0
C462 C 0.63124 0.11621 0.32339 0.0
O463 O 0.64038 0.09864 0.32621 0.0
Cd464 Cd 0.64091 0.07965 0.35833 0.0
O465 O 0.62074 0.12507 0.33827 0.0
Cd466 Cd 0.61136 0.1192 0.37676 0.0
C467 C 0.66382 0.12382 0.38452 0.0
O468 O 0.60627 0.08253 0.37066 0.0
O469 O 0.61272 0.08954 0.40359 0.0
O470 O 0.57696 0.12749 0.36348 0.0
C471 C 0.60749 0.07576 0.38946 0.0
O472 O 0.66333 0.10474 0.37751 0.0
C473 C 0.56917 0.1348 0.38054 0.0
O474 O 0.64713 0.13506 0.3849 0.0
O475 O 0.58202 0.13759 0.3962 0.0
C476 C 0.41923 0.11194 0.87227 0.0
O477 O 0.42072 0.10195 0.8547 0.0
Cd478 Cd 0.39214 0.09398 0.83152 0.0
O479 O 0.40174 0.1198 0.87841 0.0
Cd480 Cd 0.36367 0.12381 0.86705 0.0
C481 C 0.36126 0.07027 0.87207 0.0
O482 O 0.37534 0.12658 0.83194 0.0
O483 O 0.34126 0.12318 0.83391 0.0
O484 O 0.37614 0.1569 0.88239 0.0
C485 C 0.35762 0.12595 0.8224 0.0
O486 O 0.37315 0.07056 0.85571 0.0
C487 C 0.35859 0.1664 0.88211 0.0
O488 O 0.35477 0.08745 0.88074 0.0
O489 O 0.34205 0.15514 0.87732 0.0
C490 C 0.35144 0.8683 0.31882 0.0
O491 O 0.34326 0.88664 0.31983 0.0
Cd492 Cd 0.34023 0.90877 0.35005 0.0
O493 O 0.3604 0.85963 0.33492 0.0
Cd494 Cd 0.36956 0.86521 0.37431 0.0
C495 C 0.3227 0.8631 0.3763 0.0
O496 O 0.37344 0.90353 0.36653 0.0
O497 O 0.36882 0.89592 0.39962 0.0
O498 O 0.40409 0.85707 0.36101 0.0
C499 C 0.3728 0.90994 0.38559 0.0
O500 O 0.33414 0.87819 0.3695 0.0
C501 C 0.41244 0.851 0.3783 0.0
O502 O 0.33272 0.848 0.38488 0.0
O503 O 0.39997 0.84876 0.39413 0.0
C504 C 0.61015 0.13345 0.1686 0.0
O505 O 0.59129 0.13967 0.16516 0.0
Cd506 Cd 0.573 0.14034 0.13267 0.0
O507 O 0.62135 0.12493 0.15388 0.0
Cd508 Cd 0.6198 0.11375 0.11448 0.0
C509 C 0.62063 0.16103 0.11016 0.0
O510 O 0.58196 0.10717 0.11879 0.0
O511 O 0.59078 0.11461 0.08664 0.0
O512 O 0.627 0.07844 0.12713 0.0
C513 C 0.57636 0.10867 0.09958 0.0
O514 O 0.60512 0.15027 0.11715 0.0
C515 C 0.63546 0.07125 0.11036 0.0
O516 O 0.63664 0.15043 0.1044 0.0
O517 O 0.63954 0.08472 0.09572 0.0
C518 C 0.37065 0.06371 0.61604 0.0
O519 O 0.38253 0.06257 0.63245 0.0
Cd520 Cd 0.39307 0.09197 0.65443 0.0
O521 O 0.36279 0.08118 0.61002 0.0
Cd522 Cd 0.36041 0.11943 0.61875 0.0
C523 C 0.41463 0.12275 0.6129 0.0
O524 O 0.36106 0.10981 0.65447 0.0
O525 O 0.35684 0.14351 0.65043 0.0
O526 O 0.32729 0.10358 0.6073 0.0
C527 C 0.35887 0.12787 0.66291 0.0
O528 O 0.41531 0.11137 0.6296 0.0
C529 C 0.31757 0.12075 0.60431 0.0
O530 O 0.39695 0.12819 0.6044 0.0
O531 O 0.32869 0.13806 0.60533 0.0
C532 C 0.36582 0.85613 0.16367 0.0
O533 O 0.38376 0.84729 0.16252 0.0
Cd534 Cd 0.40307 0.84054 0.13187 0.0
O535 O 0.35653 0.86397 0.14731 0.0
Cd536 Cd 0.36206 0.87091 0.10744 0.0
C537 C 0.35701 0.82267 0.10172 0.0
O538 O 0.39879 0.87328 0.11614 0.0
O539 O 0.39371 0.86919 0.08256 0.0
O540 O 0.35333 0.90546 0.12056 0.0
C541 C 0.40678 0.87207 0.09788 0.0
O542 O 0.37311 0.82894 0.11226 0.0
C543 C 0.34941 0.91415 0.10284 0.0
O544 O 0.34373 0.83641 0.09562 0.0
O545 O 0.34874 0.90192 0.08656 0.0
C546 C 0.6166 0.91843 0.61593 0.0
O547 O 0.60569 0.91936 0.63286 0.0
Cd548 Cd 0.59632 0.89002 0.65427 0.0
O549 O 0.62427 0.90108 0.60924 0.0
Cd550 Cd 0.62659 0.86302 0.6187 0.0
C551 C 0.57295 0.85828 0.61375 0.0
O552 O 0.62953 0.87429 0.65456 0.0
O553 O 0.62721 0.84022 0.65137 0.0
O554 O 0.65935 0.87664 0.60376 0.0
C555 C 0.62972 0.85638 0.66348 0.0
O556 O 0.57298 0.86944 0.63076 0.0
C557 C 0.66891 0.85914 0.603 0.0
O558 O 0.59025 0.85369 0.60424 0.0
O559 O 0.6578 0.84235 0.60699 0.0
C560 C 0.87004 0.56252 0.87393 0.0
O561 O 0.85364 0.5611 0.88562 0.0
Cd562 Cd 0.83227 0.58996 0.89457 0.0
O563 O 0.87638 0.58017 0.86593 0.0
Cd564 Cd 0.8683 0.6187 0.86441 0.0
C565 C 0.87213 0.62323 0.91798 0.0
O566 O 0.83268 0.60599 0.86124 0.0
O567 O 0.83547 0.64014 0.86319 0.0
O568 O 0.88738 0.60863 0.83271 0.0
C569 C 0.82357 0.62362 0.86086 0.0
O570 O 0.85536 0.61136 0.91752 0.0
C571 C 0.88414 0.62544 0.82223 0.0
O572 O 0.88207 0.62836 0.90091 0.0
O573 O 0.87628 0.64088 0.83249 0.0
C574 C 0.81611 0.36639 0.13253 0.0
O575 O 0.81705 0.38422 0.1423 0.0
Cd576 Cd 0.84784 0.40396 0.15076 0.0
O577 O 0.8326 0.35771 0.12458 0.0
Cd578 Cd 0.87271 0.36324 0.11846 0.0
C579 C 0.87431 0.3567 0.16613 0.0
O580 O 0.86408 0.39991 0.11796 0.0
O581 O 0.89782 0.39565 0.11927 0.0
O582 O 0.85934 0.35375 0.08367 0.0
C583 C 0.88245 0.40834 0.11812 0.0
O584 O 0.86565 0.37295 0.15884 0.0
C585 C 0.87695 0.34935 0.07516 0.0
O586 O 0.88288 0.34421 0.15285 0.0
O587 O 0.89311 0.34907 0.08751 0.0
C588 C 0.10678 0.32068 0.63241 0.0
O589 O 0.08915 0.32423 0.64153 0.0
Cd590 Cd 0.07193 0.35602 0.64639 0.0
O591 O 0.1182 0.3357 0.62398 0.0
Cd592 Cd 0.11757 0.37615 0.61674 0.0
C593 C 0.11946 0.38063 0.6635 0.0
O594 O 0.07987 0.36783 0.61207 0.0
O595 O 0.0864 0.40113 0.61713 0.0
O596 O 0.13374 0.36587 0.58237 0.0
C597 C 0.07283 0.38639 0.61268 0.0
O598 O 0.10401 0.37351 0.6527 0.0
C599 C 0.13426 0.38465 0.57497 0.0
O600 O 0.13532 0.38745 0.6528 0.0
O601 O 0.12949 0.39951 0.58775 0.0
C602 C 0.16723 0.62397 0.12537 0.0
O603 O 0.16579 0.60638 0.13517 0.0
Cd604 Cd 0.13603 0.583 0.13718 0.0
O605 O 0.15179 0.63095 0.11429 0.0
Cd606 Cd 0.11391 0.62097 0.10541 0.0
C607 C 0.10585 0.62348 0.15863 0.0
O608 O 0.11993 0.58386 0.10378 0.0
O609 O 0.08675 0.59163 0.10513 0.0
O610 O 0.12622 0.6294 0.07 0.0
C611 C 0.10068 0.57745 0.10371 0.0
O612 O 0.11496 0.60561 0.15867 0.0
C613 C 0.10885 0.63648 0.06286 0.0
O614 O 0.1044 0.63472 0.14171 0.0
O615 O 0.09374 0.63833 0.07619 0.0
C616 C 0.92139 0.61107 0.61041 0.0
O617 O 0.92345 0.62754 0.59887 0.0
Cd618 Cd 0.89546 0.65051 0.59044 0.0
O619 O 0.90372 0.60579 0.61902 0.0
Cd620 Cd 0.86603 0.61632 0.62241 0.0
C621 C 0.86156 0.61059 0.56869 0.0
O622 O 0.87919 0.6519 0.62374 0.0
O623 O 0.84498 0.64939 0.62372 0.0
O624 O 0.87855 0.60081 0.6548 0.0
C625 C 0.86167 0.66122 0.62445 0.0
O626 O 0.87389 0.627 0.56804 0.0
C627 C 0.86124 0.60091 0.66504 0.0
O628 O 0.85608 0.6019 0.58633 0.0
O629 O 0.84466 0.60588 0.65457 0.0
C630 C 0.16413 0.37548 0.85404 0.0
O631 O 0.1629 0.39202 0.84247 0.0
Cd632 Cd 0.13249 0.40991 0.83278 0.0
O633 O 0.14779 0.36652 0.86283 0.0
Cd634 Cd 0.10749 0.36948 0.86855 0.0
C635 C 0.10535 0.36257 0.82229 0.0
O636 O 0.118 0.40677 0.86699 0.0
O637 O 0.08419 0.402 0.86902 0.0
O638 O 0.11965 0.35723 0.90317 0.0
C639 C 0.10001 0.41498 0.86805 0.0
O640 O 0.11263 0.37879 0.83175 0.0
C641 C 0.10131 0.35515 0.91135 0.0
O642 O 0.09608 0.3488 0.834 0.0
O643 O 0.08548 0.35773 0.89898 0.0
C644 C 0.06979 0.6102 0.36211 0.0
O645 O 0.06877 0.62679 0.37366 0.0
Cd646 Cd 0.09747 0.65128 0.37878 0.0
O647 O 0.08691 0.60537 0.35271 0.0
Cd648 Cd 0.12442 0.61816 0.35069 0.0
C649 C 0.13059 0.61549 0.40366 0.0
O650 O 0.11284 0.65397 0.34467 0.0
O651 O 0.14598 0.6516 0.35287 0.0
O652 O 0.11582 0.59931 0.3179 0.0
C653 C 0.13094 0.66309 0.34644 0.0
O654 O 0.11969 0.63229 0.4032 0.0
C655 C 0.13359 0.60287 0.30902 0.0
O656 O 0.13415 0.60474 0.38672 0.0
O657 O 0.14851 0.61052 0.3208 0.0
C658 C 0.91136 0.37329 0.36951 0.0
O659 O 0.91296 0.35332 0.37162 0.0
Cd660 Cd 0.8852 0.33277 0.38529 0.0
O661 O 0.89327 0.38209 0.36886 0.0
Cd662 Cd 0.85557 0.36876 0.36236 0.0
C663 C 0.8591 0.37246 0.41518 0.0
O664 O 0.86444 0.33376 0.35519 0.0
O665 O 0.83169 0.33538 0.36423 0.0
O666 O 0.8704 0.38158 0.33007 0.0
C667 C 0.84691 0.32409 0.35784 0.0
O668 O 0.87129 0.35674 0.41254 0.0
C669 C 0.85303 0.38456 0.32031 0.0
O670 O 0.84944 0.38092 0.39946 0.0
O671 O 0.83592 0.38285 0.33119 0.0
H672 H 0.13346 0.30468 0.34873 0.0
H673 H 0.09351 0.28455 0.40126 0.0
H674 H 0.13797 0.26697 0.3387 0.0
H675 H 0.09779 0.2477 0.39107 0.0
H676 H 0.07795 0.19363 0.35496 0.0
H677 H 0.08261 0.23215 0.35159 0.0
H678 H 0.15037 0.22684 0.3613 0.0
H679 H 0.14572 0.18791 0.36401 0.0
C680 C 0.12602 0.29231 0.35834 0.0
C681 C 0.11268 0.2976 0.37548 0.0
C682 C 0.12854 0.27085 0.35252 0.0
C683 C 0.11762 0.25471 0.36375 0.0
C684 C 0.10591 0.26 0.38188 0.0
C685 C 0.10355 0.28114 0.38774 0.0
C686 C 0.09395 0.20057 0.35513 0.0
C687 C 0.11145 0.18806 0.35992 0.0
C688 C 0.09664 0.22255 0.35323 0.0
C689 C 0.11678 0.2323 0.3566 0.0
C690 C 0.13472 0.21958 0.3586 0.0
C691 C 0.13206 0.19738 0.36015 0.0
H692 H 0.30388 0.64942 0.83403 0.0
H693 H 0.30025 0.58868 0.86577 0.0
H694 H 0.2646 0.6511 0.83458 0.0
H695 H 0.26187 0.59039 0.86698 0.0
H696 H 0.19543 0.58482 0.85238 0.0
H697 H 0.2327 0.58753 0.84317 0.0
H698 H 0.23413 0.65443 0.86041 0.0
H699 H 0.19565 0.65181 0.86849 0.0
C700 C 0.29458 0.63622 0.84051 0.0
C701 C 0.30472 0.61855 0.84925 0.0
C702 C 0.27227 0.63733 0.84118 0.0
C703 C 0.2601 0.62071 0.85048 0.0
C704 C 0.27061 0.60317 0.8591 0.0
C705 C 0.2926 0.60212 0.85844 0.0
C706 C 0.20363 0.6002 0.85394 0.0
C707 C 0.19301 0.61798 0.86161 0.0
C708 C 0.22499 0.60176 0.84873 0.0
C709 C 0.23654 0.62101 0.85172 0.0
C710 C 0.22563 0.63934 0.85808 0.0
C711 C 0.20378 0.63785 0.86286 0.0
H712 H 0.84895 0.79571 0.39112 0.0
H713 H 0.88783 0.78963 0.3351 0.0
H714 H 0.83897 0.75801 0.38896 0.0
H715 H 0.87786 0.75137 0.33287 0.0
H716 H 0.84642 0.68241 0.33493 0.0
H717 H 0.84773 0.72144 0.33026 0.0
H718 H 0.86461 0.72916 0.39681 0.0
H719 H 0.86348 0.69059 0.40121 0.0
C720 C 0.85475 0.78634 0.37789 0.0
C721 C 0.86906 0.79537 0.36326 0.0
C722 C 0.84917 0.76477 0.37673 0.0
C723 C 0.85792 0.75174 0.36098 0.0
C724 C 0.87089 0.76112 0.34517 0.0
C725 C 0.87658 0.7829 0.3464 0.0
C726 C 0.8497 0.69265 0.34859 0.0
C727 C 0.85414 0.68382 0.36862 0.0
C728 C 0.85075 0.71483 0.34587 0.0
C729 C 0.85593 0.72829 0.36325 0.0
C730 C 0.86006 0.71922 0.38326 0.0
C731 C 0.85935 0.69721 0.38585 0.0
H732 H 0.79123 0.33429 0.89231 0.0
H733 H 0.79451 0.37555 0.83775 0.0
H734 H 0.75309 0.32838 0.8862 0.0
H735 H 0.75629 0.37133 0.83241 0.0
H736 H 0.68553 0.36236 0.82628 0.0
H737 H 0.72373 0.35576 0.82494 0.0
H738 H 0.72461 0.34847 0.89356 0.0
H739 H 0.68693 0.35392 0.89456 0.0
C740 C 0.78377 0.34158 0.87864 0.0
C741 C 0.79557 0.35523 0.8654 0.0
C742 C 0.76185 0.33862 0.87532 0.0
C743 C 0.75125 0.34996 0.85921 0.0
C744 C 0.76363 0.36221 0.84493 0.0
C745 C 0.7856 0.36471 0.84796 0.0
C746 C 0.69398 0.35905 0.84096 0.0
C747 C 0.6832 0.35869 0.86049 0.0
C748 C 0.71591 0.35536 0.84027 0.0
C749 C 0.72752 0.3514 0.85913 0.0
C750 C 0.71644 0.3508 0.87854 0.0
C751 C 0.69468 0.35429 0.87918 0.0
H752 H 0.16328 0.68891 0.62196 0.0
H753 H 0.10452 0.69192 0.5862 0.0
H754 H 0.15991 0.72614 0.63248 0.0
H755 H 0.10184 0.7289 0.5948 0.0
H756 H 0.08812 0.79083 0.62164 0.0
H757 H 0.09238 0.75301 0.61711 0.0
H758 H 0.1601 0.76132 0.63024 0.0
H759 H 0.15473 0.79905 0.63712 0.0
C760 C 0.14988 0.69769 0.61601 0.0
C761 C 0.13403 0.68741 0.60351 0.0
C762 C 0.14785 0.71917 0.62201 0.0
C763 C 0.13009 0.73092 0.61531 0.0
C764 C 0.11515 0.72066 0.60156 0.0
C765 C 0.11693 0.69929 0.59607 0.0
C766 C 0.10371 0.78427 0.62433 0.0
C767 C 0.12098 0.79758 0.63009 0.0
C768 C 0.10645 0.76254 0.62106 0.0
C769 C 0.12689 0.75365 0.62221 0.0
C770 C 0.14407 0.76709 0.62906 0.0
C771 C 0.14107 0.78883 0.63312 0.0
H772 H 0.69579 0.5886 0.1386 0.0
H773 H 0.68866 0.64915 0.10763 0.0
H774 H 0.73391 0.59625 0.1433 0.0
H775 H 0.72673 0.6571 0.11234 0.0
H776 H 0.79608 0.64402 0.09165 0.0
H777 H 0.75732 0.64336 0.09503 0.0
H778 H 0.76305 0.6168 0.15822 0.0
H779 H 0.80172 0.61684 0.15431 0.0
C780 C 0.70238 0.60384 0.13344 0.0
C781 C 0.68953 0.61836 0.12286 0.0
C782 C 0.72417 0.60829 0.13612 0.0
C783 C 0.73346 0.62718 0.12787 0.0
C784 C 0.72016 0.64227 0.11855 0.0
C785 C 0.69836 0.63789 0.1161 0.0
C786 C 0.78897 0.63856 0.1064 0.0
C787 C 0.80169 0.63047 0.1227 0.0
C788 C 0.7668 0.63819 0.10842 0.0
C789 C 0.75703 0.62999 0.12693 0.0
C790 C 0.77001 0.62289 0.14365 0.0
C791 C 0.79213 0.62298 0.14146 0.0
H792 H 0.87773 0.18838 0.59802 0.0
H793 H 0.85572 0.18892 0.66318 0.0
H794 H 0.87116 0.22572 0.59499 0.0
H795 H 0.85035 0.22763 0.66057 0.0
H796 H 0.82705 0.29495 0.63795 0.0
H797 H 0.82946 0.25617 0.6434 0.0
H798 H 0.88796 0.25666 0.60729 0.0
H799 H 0.88487 0.29418 0.60099 0.0
C800 C 0.87173 0.1966 0.6119 0.0
C801 C 0.86739 0.18571 0.6309 0.0
C802 C 0.86807 0.21817 0.61019 0.0
C803 C 0.8606 0.22982 0.62765 0.0
C804 C 0.8561 0.21904 0.64681 0.0
C805 C 0.85946 0.19704 0.64843 0.0
C806 C 0.84007 0.28648 0.63086 0.0
C807 C 0.85561 0.29743 0.61877 0.0
C808 C 0.84166 0.26444 0.63425 0.0
C809 C 0.85876 0.25325 0.62554 0.0
C810 C 0.87425 0.26453 0.61377 0.0
C811 C 0.87256 0.28617 0.61024 0.0
H812 H 0.29686 0.33799 0.11708 0.0
H813 H 0.29171 0.4056 0.12776 0.0
H814 H 0.25877 0.33281 0.12464 0.0
H815 H 0.25397 0.40077 0.13511 0.0
H816 H 0.18695 0.39221 0.14603 0.0
H817 H 0.2244 0.38715 0.1548 0.0
H818 H 0.22874 0.3424 0.10234 0.0
H819 H 0.19104 0.34726 0.09407 0.0
C820 C 0.28768 0.35157 0.12192 0.0
C821 C 0.29691 0.37218 0.12193 0.0
C822 C 0.26591 0.34868 0.12602 0.0
C823 C 0.25326 0.36638 0.13023 0.0
C824 C 0.26318 0.38671 0.13216 0.0
C825 C 0.2848 0.38958 0.12789 0.0
C826 C 0.19583 0.38071 0.13695 0.0
C827 C 0.18643 0.3701 0.11943 0.0
C828 C 0.21724 0.3779 0.14186 0.0
C829 C 0.22966 0.36463 0.12909 0.0
C830 C 0.21963 0.35262 0.11262 0.0
C831 C 0.19812 0.35544 0.10774 0.0
H832 H 0.35622 0.08411 0.19333 0.0
H833 H 0.3664 0.15198 0.18666 0.0
H834 H 0.34737 0.08893 0.23061 0.0
H835 H 0.35755 0.15709 0.22444 0.0
H836 H 0.38514 0.14173 0.29431 0.0
H837 H 0.37875 0.14738 0.25623 0.0
H838 H 0.3251 0.10276 0.25821 0.0
H839 H 0.33193 0.09693 0.29602 0.0
C840 C 0.35578 0.10016 0.19979 0.0
C841 C 0.36197 0.11765 0.18736 0.0
C842 C 0.35062 0.10301 0.22113 0.0
C843 C 0.35187 0.12343 0.23056 0.0
C844 C 0.35657 0.14118 0.21763 0.0
C845 C 0.36145 0.1383 0.19605 0.0
C846 C 0.37154 0.13384 0.28665 0.0
C847 C 0.35899 0.11894 0.2978 0.0
C848 C 0.36778 0.1371 0.26491 0.0
C849 C 0.35159 0.12525 0.25414 0.0
C850 C 0.33784 0.1119 0.26599 0.0
C851 C 0.34163 0.10866 0.28761 0.0
H852 H 0.34096 0.87143 0.68146 0.0
H853 H 0.39027 0.82718 0.6959 0.0
H854 H 0.33213 0.87403 0.71908 0.0
H855 H 0.38238 0.83034 0.73383 0.0
H856 H 0.3602 0.83224 0.801 0.0
H857 H 0.36103 0.8244 0.7629 0.0
H858 H 0.34482 0.88975 0.74978 0.0
H859 H 0.343 0.89691 0.78794 0.0
C860 C 0.34977 0.86211 0.69282 0.0
C861 C 0.36625 0.8491 0.68599 0.0
C862 C 0.3449 0.86375 0.71443 0.0
C863 C 0.35668 0.85267 0.72976 0.0
C864 C 0.37269 0.83895 0.72264 0.0
C865 C 0.37736 0.83715 0.70092 0.0
C866 C 0.35642 0.84471 0.78983 0.0
C867 C 0.35155 0.86514 0.79715 0.0
C868 C 0.3571 0.84033 0.76798 0.0
C869 C 0.35331 0.85647 0.75302 0.0
C870 C 0.34755 0.87675 0.76062 0.0
C871 C 0.34657 0.88098 0.7825 0.0
H872 H 0.63712 0.84752 0.18431 0.0
H873 H 0.59644 0.89864 0.20392 0.0
H874 H 0.64188 0.8377 0.22208 0.0
H875 H 0.60084 0.88857 0.24067 0.0
H876 H 0.58287 0.85411 0.29473 0.0
H877 H 0.58673 0.84905 0.25639 0.0
H878 H 0.65448 0.86137 0.26209 0.0
H879 H 0.65066 0.8657 0.30081 0.0
C880 C 0.62951 0.85682 0.19656 0.0
C881 C 0.61598 0.87354 0.19106 0.0
C882 C 0.63214 0.8511 0.21804 0.0
C883 C 0.62107 0.86195 0.23398 0.0
C884 C 0.60904 0.87961 0.22853 0.0
C885 C 0.60663 0.88542 0.20742 0.0
C886 C 0.59872 0.85443 0.28795 0.0
C887 C 0.61644 0.86043 0.30044 0.0
C888 C 0.60095 0.85155 0.26608 0.0
C889 C 0.62084 0.85522 0.25642 0.0
C890 C 0.63904 0.85839 0.26926 0.0
C891 C 0.63683 0.8609 0.29134 0.0
H892 H 0.59265 0.11884 0.80005 0.0
H893 H 0.66138 0.11593 0.80023 0.0
H894 H 0.5928 0.12603 0.76221 0.0
H895 H 0.6616 0.12378 0.76208 0.0
H896 H 0.64864 0.10852 0.69112 0.0
H897 H 0.65198 0.10681 0.72938 0.0
H898 H 0.6014 0.15186 0.73577 0.0
H899 H 0.59784 0.15314 0.69689 0.0
C900 C 0.60786 0.11989 0.792 0.0
C901 C 0.62703 0.11679 0.80312 0.0
C902 C 0.60794 0.12429 0.7703 0.0
C903 C 0.6272 0.12575 0.75911 0.0
C904 C 0.64645 0.12267 0.77022 0.0
C905 C 0.64637 0.11821 0.79205 0.0
C906 C 0.63839 0.11826 0.70056 0.0
C907 C 0.62287 0.13085 0.69099 0.0
C908 C 0.64045 0.11744 0.72263 0.0
C909 C 0.62688 0.12906 0.73571 0.0
C910 C 0.61194 0.14247 0.72612 0.0
C911 C 0.61002 0.14342 0.7039 0.0
H912 H 0.82849 0.79582 0.62819 0.0
H913 H 0.89577 0.79565 0.64182 0.0
H914 H 0.82762 0.75762 0.62445 0.0
H915 H 0.89521 0.75709 0.64003 0.0
H916 H 0.89531 0.68898 0.62125 0.0
H917 H 0.89535 0.7272 0.62309 0.0
H918 H 0.82674 0.72449 0.63211 0.0
H919 H 0.82694 0.68631 0.62796 0.0
C920 C 0.84301 0.78727 0.63105 0.0
C921 C 0.86209 0.79841 0.63553 0.0
C922 C 0.84263 0.76515 0.62901 0.0
C923 C 0.86139 0.75348 0.63164 0.0
C924 C 0.88039 0.76496 0.63714 0.0
C925 C 0.88075 0.78719 0.63885 0.0
C926 C 0.88022 0.69669 0.6234 0.0
C927 C 0.86113 0.68466 0.62476 0.0
C928 C 0.88021 0.71885 0.62487 0.0
C929 C 0.86115 0.72969 0.62851 0.0
C930 C 0.84194 0.71739 0.62923 0.0
C931 C 0.84193 0.69521 0.62709 0.0
H932 H 0.79526 0.33603 0.15567 0.0
H933 H 0.7888 0.37846 0.10237 0.0
H934 H 0.75638 0.33156 0.1574 0.0
H935 H 0.75016 0.3739 0.1037 0.0
H936 H 0.68485 0.38513 0.12491 0.0
H937 H 0.72368 0.38679 0.12835 0.0
H938 H 0.72372 0.3189 0.13996 0.0
H939 H 0.68494 0.31751 0.1368 0.0
C940 C 0.78548 0.34362 0.14378 0.0
C941 C 0.79478 0.35734 0.12872 0.0
C942 C 0.76328 0.34133 0.14491 0.0
C943 C 0.75023 0.35298 0.13116 0.0
C944 C 0.75977 0.36529 0.11499 0.0
C945 C 0.78186 0.36751 0.11385 0.0
C946 C 0.69316 0.37084 0.1292 0.0
C947 C 0.68214 0.35122 0.13063 0.0
C948 C 0.71537 0.37163 0.1307 0.0
C949 C 0.72677 0.3528 0.13369 0.0
C950 C 0.71544 0.33362 0.13746 0.0
C951 C 0.69327 0.33283 0.13582 0.0
H952 H 0.10573 0.1893 0.664 0.0
H953 H 0.15039 0.19066 0.61193 0.0
H954 H 0.10435 0.22815 0.66308 0.0
H955 H 0.14902 0.22963 0.61096 0.0
H956 H 0.14696 0.30357 0.62901 0.0
H957 H 0.15524 0.26538 0.63126 0.0
H958 H 0.08794 0.24954 0.63422 0.0
H959 H 0.07979 0.28681 0.63209 0.0
C960 C 0.11568 0.19797 0.65278 0.0
C961 C 0.128 0.18713 0.63793 0.0
C962 C 0.1148 0.22015 0.65211 0.0
C963 C 0.12637 0.23181 0.63673 0.0
C964 C 0.13996 0.22103 0.62295 0.0
C965 C 0.14064 0.1988 0.62345 0.0
C966 C 0.13405 0.29181 0.62995 0.0
C967 C 0.11278 0.29816 0.63093 0.0
C968 C 0.13875 0.27007 0.6313 0.0
C969 C 0.12221 0.25467 0.63368 0.0
C970 C 0.10103 0.2611 0.63325 0.0
C971 C 0.09639 0.28251 0.63192 0.0
H972 H 0.18803 0.63649 0.09008 0.0
H973 H 0.19402 0.63312 0.15848 0.0
H974 H 0.22622 0.64164 0.08709 0.0
H975 H 0.23243 0.64004 0.15588 0.0
H976 H 0.30117 0.61995 0.14014 0.0
H977 H 0.26268 0.62096 0.14615 0.0
H978 H 0.2562 0.66202 0.09142 0.0
H979 H 0.29358 0.65994 0.08479 0.0
C980 C 0.19752 0.63796 0.10454 0.0
C981 C 0.18831 0.63433 0.12444 0.0
C982 C 0.21951 0.64087 0.10292 0.0
C983 C 0.23262 0.64096 0.12129 0.0
C984 C 0.22296 0.6394 0.14139 0.0
C985 C 0.20098 0.63585 0.14294 0.0
C986 C 0.29141 0.62913 0.12947 0.0
C987 C 0.30049 0.63972 0.11193 0.0
C988 C 0.26938 0.62992 0.133 0.0
C989 C 0.25619 0.64145 0.11913 0.0
C990 C 0.26559 0.65253 0.10214 0.0
C991 C 0.28727 0.65149 0.09847 0.0
H992 H 0.81692 0.18735 0.35468 0.0
H993 H 0.88395 0.19365 0.36934 0.0
H994 H 0.81553 0.2257 0.34831 0.0
H995 H 0.88258 0.232 0.36455 0.0
H996 H 0.87824 0.29911 0.34417 0.0
H997 H 0.87902 0.26082 0.3428 0.0
H998 H 0.81556 0.257 0.3693 0.0
H999 H 0.81442 0.29602 0.36965 0.0
C1000 C 0.83146 0.19699 0.3559 0.0
C1001 C 0.85061 0.1878 0.36215 0.0
C1002 C 0.83061 0.21896 0.35274 0.0
C1003 C 0.8488 0.23208 0.35634 0.0
C1004 C 0.86826 0.22248 0.36134 0.0
C1005 C 0.86917 0.20048 0.364 0.0
C1006 C 0.86428 0.29019 0.34953 0.0
C1007 C 0.84617 0.3006 0.35689 0.0
C1008 C 0.86484 0.2681 0.34891 0.0
C1009 C 0.84741 0.25568 0.35594 0.0
C1010 C 0.82915 0.26606 0.36333 0.0
C1011 C 0.82849 0.28839 0.36371 0.0
H1012 H 0.1955 0.39972 0.87084 0.0
H1013 H 0.18115 0.33623 0.84701 0.0
H1014 H 0.2334 0.39276 0.87001 0.0
H1015 H 0.21955 0.32918 0.84588 0.0
H1016 H 0.29322 0.32572 0.86422 0.0
H1017 H 0.25435 0.3272 0.86757 0.0
H1018 H 0.25596 0.38906 0.83755 0.0
H1019 H 0.29462 0.38734 0.83402 0.0
C1020 C 0.20056 0.38405 0.86594 0.0
C1021 C 0.18565 0.36852 0.85887 0.0
C1022 C 0.2222 0.38016 0.86524 0.0
C1023 C 0.22934 0.3607 0.85724 0.0
C1024 C 0.21436 0.34439 0.85193 0.0
C1025 C 0.1925 0.34831 0.8527 0.0
C1026 C 0.28504 0.33932 0.85788 0.0
C1027 C 0.2966 0.35632 0.84866 0.0
C1028 C 0.26294 0.34019 0.85985 0.0
C1029 C 0.25228 0.35836 0.85312 0.0
C1030 C 0.26387 0.37498 0.84312 0.0
C1031 C 0.28587 0.3739 0.84079 0.0
H1032 H 0.1303 0.80168 0.32752 0.0
H1033 H 0.13327 0.79035 0.39522 0.0
H1034 H 0.12946 0.76296 0.32091 0.0
H1035 H 0.13139 0.7521 0.3889 0.0
H1036 H 0.156 0.68797 0.37237 0.0
H1037 H 0.15582 0.72665 0.37583 0.0
H1038 H 0.10911 0.72951 0.325 0.0
H1039 H 0.10953 0.69062 0.3215 0.0
C1040 C 0.13043 0.79086 0.34091 0.0
C1041 C 0.13233 0.79877 0.36181 0.0
C1042 C 0.1299 0.76878 0.3372 0.0
C1043 C 0.13092 0.75448 0.35439 0.0
C1044 C 0.1314 0.76264 0.37529 0.0
C1045 C 0.13234 0.78452 0.37893 0.0
C1046 C 0.14602 0.69692 0.36169 0.0
C1047 C 0.13279 0.68646 0.34668 0.0
C1048 C 0.14566 0.71904 0.36383 0.0
C1049 C 0.1322 0.73114 0.35088 0.0
C1050 C 0.11965 0.72066 0.3352 0.0
C1051 C 0.11983 0.69846 0.33324 0.0
H1052 H 0.79867 0.65876 0.86181 0.0
H1053 H 0.79571 0.58985 0.85938 0.0
H1054 H 0.75988 0.65933 0.86007 0.0
H1055 H 0.75711 0.59033 0.85857 0.0
H1056 H 0.68958 0.59819 0.83468 0.0
H1057 H 0.7285 0.59827 0.8357 0.0
H1058 H 0.72876 0.65186 0.87953 0.0
H1059 H 0.69005 0.65201 0.8779 0.0
C1060 C 0.78972 0.64377 0.86102 0.0
C1061 C 0.80017 0.62431 0.86052 0.0
C1062 C 0.76749 0.64404 0.86019 0.0
C1063 C 0.75536 0.62486 0.85898 0.0
C1064 C 0.76592 0.60541 0.85896 0.0
C1065 C 0.78808 0.60514 0.8596 0.0
C1066 C 0.69809 0.61022 0.84411 0.0
C1067 C 0.68702 0.62527 0.85599 0.0
C1068 C 0.72032 0.6101 0.84501 0.0
C1069 C 0.73178 0.62511 0.85771 0.0
C1070 C 0.72052 0.64031 0.86933 0.0
C1071 C 0.69837 0.64035 0.86848 0.0
H1072 H 0.60287 0.83268 0.79678 0.0
H1073 H 0.65797 0.87536 0.79791 0.0
H1074 H 0.60333 0.83226 0.75798 0.0
H1075 H 0.65881 0.87468 0.75898 0.0
H1076 H 0.63853 0.88867 0.69115 0.0
H1077 H 0.63865 0.88769 0.72976 0.0
H1078 H 0.62252 0.82024 0.72757 0.0
H1079 H 0.62177 0.82142 0.68861 0.0
C1080 C 0.61522 0.8418 0.78864 0.0
C1081 C 0.63041 0.85403 0.8002 0.0
C1082 C 0.61558 0.84145 0.76644 0.0
C1083 C 0.63109 0.85342 0.75537 0.0
C1084 C 0.64651 0.86543 0.76704 0.0
C1085 C 0.64623 0.86565 0.78929 0.0
C1086 C 0.63501 0.8736 0.69888 0.0
C1087 C 0.63022 0.85507 0.68689 0.0
C1088 C 0.63526 0.87302 0.72104 0.0
C1089 C 0.63083 0.85385 0.73176 0.0
C1090 C 0.62591 0.83529 0.71977 0.0
C1091 C 0.62565 0.83589 0.69749 0.0
H1092 H 0.5985 0.16259 0.19794 0.0
H1093 H 0.64032 0.10976 0.18882 0.0
H1094 H 0.60703 0.16345 0.23565 0.0
H1095 H 0.64826 0.10992 0.22699 0.0
H1096 H 0.66435 0.11711 0.29585 0.0
H1097 H 0.66315 0.12584 0.258 0.0
H1098 H 0.59699 0.1424 0.2645 0.0
H1099 H 0.59877 0.13485 0.30244 0.0
C1100 C 0.60968 0.15122 0.20403 0.0
C1101 C 0.61846 0.13583 0.19054 0.0
C1102 C 0.61447 0.15163 0.22571 0.0
C1103 C 0.62792 0.13645 0.23453 0.0
C1104 C 0.63787 0.12194 0.22077 0.0
C1105 C 0.63329 0.12174 0.1989 0.0
C1106 C 0.64975 0.12315 0.28915 0.0
C1107 C 0.6316 0.12527 0.30188 0.0
C1108 C 0.64899 0.12794 0.26748 0.0
C1109 C 0.62991 0.13453 0.25806 0.0
C1110 C 0.61208 0.13769 0.27118 0.0
C1111 C 0.61302 0.13333 0.29294 0.0
H1112 H 0.38809 0.11191 0.68928 0.0
H1113 H 0.33041 0.14778 0.68822 0.0
H1114 H 0.3865 0.10989 0.72784 0.0
H1115 H 0.32895 0.1464 0.72729 0.0
H1116 H 0.32268 0.12125 0.7958 0.0
H1117 H 0.32279 0.12188 0.75669 0.0
H1118 H 0.39125 0.13178 0.75782 0.0
H1119 H 0.39122 0.13028 0.79616 0.0
C1120 C 0.37525 0.11966 0.69747 0.0
C1121 C 0.35948 0.13013 0.68605 0.0
C1122 C 0.37432 0.11857 0.71954 0.0
C1123 C 0.35757 0.12798 0.73065 0.0
C1124 C 0.34192 0.13881 0.71914 0.0
C1125 C 0.34294 0.13997 0.69692 0.0
C1126 C 0.33767 0.12345 0.78755 0.0
C1127 C 0.3569 0.12585 0.79898 0.0
C1128 C 0.33775 0.12395 0.76524 0.0
C1129 C 0.35703 0.12696 0.75418 0.0
C1130 C 0.37615 0.12912 0.76577 0.0
C1131 C 0.3761 0.12844 0.78784 0.0
H1132 H 0.33254 0.83574 0.18363 0.0
H1133 H 0.38278 0.88328 0.19226 0.0
H1134 H 0.32802 0.83388 0.22249 0.0
H1135 H 0.37828 0.88176 0.23071 0.0
H1136 H 0.38636 0.8589 0.29593 0.0
H1137 H 0.38718 0.85502 0.25715 0.0
H1138 H 0.31831 0.85321 0.25521 0.0
H1139 H 0.31767 0.85696 0.29402 0.0
C1140 C 0.34199 0.84634 0.19385 0.0
C1141 C 0.35786 0.85978 0.18519 0.0
C1142 C 0.33964 0.84511 0.21602 0.0
C1143 C 0.35333 0.85712 0.22964 0.0
C1144 C 0.368 0.87175 0.22069 0.0
C1145 C 0.37028 0.87299 0.19869 0.0
C1146 C 0.37147 0.85672 0.28724 0.0
C1147 C 0.35196 0.85825 0.29773 0.0
C1148 C 0.37188 0.8549 0.26504 0.0
C1149 C 0.35277 0.85453 0.25311 0.0
C1150 C 0.33326 0.85368 0.26393 0.0
C1151 C 0.33288 0.8557 0.2861 0.0
H1152 H 0.08665 0.08529 0.5491 0.0
H1153 H 0.14132 0.12842 0.54943 0.0
H1154 H 0.09258 0.07743 0.51113 0.0
H1155 H 0.14751 0.12049 0.51194 0.0
H1156 H 0.1238 0.13579 0.44584 0.0
H1157 H 0.12263 0.13365 0.48416 0.0
H1158 H 0.11746 0.0649 0.4803 0.0
H1159 H 0.1183 0.06702 0.4411 0.0
C1160 C 0.10033 0.09242 0.54115 0.0
C1161 C 0.11351 0.10749 0.55175 0.0
C1162 C 0.10377 0.08792 0.51959 0.0
C1163 C 0.12024 0.0987 0.50864 0.0
C1164 C 0.13453 0.1122 0.52 0.0
C1165 C 0.1311 0.11667 0.54138 0.0
C1166 C 0.12256 0.12014 0.453 0.0
C1167 C 0.12143 0.10154 0.44047 0.0
C1168 C 0.12202 0.11892 0.47502 0.0
C1169 C 0.12053 0.09908 0.48515 0.0
C1170 C 0.11886 0.08036 0.47276 0.0
C1171 C 0.1194 0.08158 0.45046 0.0
H1172 H 0.40046 0.61207 0.93293 0.0
H1173 H 0.36395 0.66731 0.94927 0.0
H1174 H 0.40859 0.60685 0.97081 0.0
H1175 H 0.37211 0.66201 0.98672 0.0
H1176 H 0.3555 0.62026 0.04289 0.0
H1177 H 0.3567 0.62827 0.00545 0.0
H1178 H 0.42535 0.62602 0.00664 0.0
H1179 H 0.42434 0.61839 0.04527 0.0
C1180 C 0.39465 0.6234 0.94448 0.0
C1181 C 0.38123 0.63987 0.93813 0.0
C1182 C 0.39941 0.62045 0.96609 0.0
C1183 C 0.3908 0.63393 0.98156 0.0
C1184 C 0.37881 0.65133 0.97505 0.0
C1185 C 0.3741 0.6543 0.95358 0.0
C1186 C 0.37099 0.62133 0.0354 0.0
C1187 C 0.38991 0.6188 0.04717 0.0
C1188 C 0.37161 0.62609 0.01388 0.0
C1189 C 0.3911 0.62809 0.00331 0.0
C1190 C 0.41013 0.62472 0.01463 0.0
C1191 C 0.40956 0.62037 0.0366 0.0
H1192 H 0.85679 0.91613 0.43607 0.0
H1193 H 0.88299 0.85322 0.44037 0.0
H1194 H 0.85934 0.9198 0.47514 0.0
H1195 H 0.88554 0.85693 0.47871 0.0
H1196 H 0.90904 0.87243 0.54072 0.0
H1197 H 0.90812 0.88137 0.50311 0.0
H1198 H 0.84235 0.89902 0.50885 0.0
H1199 H 0.84345 0.89025 0.54708 0.0
C1200 C 0.86327 0.90326 0.44531 0.0
C1201 C 0.86996 0.88453 0.43524 0.0
C1202 C 0.8646 0.90532 0.46754 0.0
C1203 C 0.873 0.88883 0.47975 0.0
C1204 C 0.87945 0.87009 0.46959 0.0
C1205 C 0.8779 0.86794 0.44762 0.0
C1206 C 0.89466 0.87905 0.53412 0.0
C1207 C 0.87624 0.8804 0.54645 0.0
C1208 C 0.89411 0.88409 0.51266 0.0
C1209 C 0.87503 0.89034 0.50312 0.0
C1210 C 0.85721 0.89413 0.51595 0.0
C1211 C 0.85782 0.88916 0.53771 0.0
H1212 H 0.59871 0.31368 0.94963 0.0
H1213 H 0.5995 0.38204 0.94248 0.0
H1214 H 0.58711 0.31744 0.98638 0.0
H1215 H 0.58921 0.38607 0.97985 0.0
H1216 H 0.56932 0.38582 0.04887 0.0
H1217 H 0.566 0.38076 0.00999 0.0
H1218 H 0.60971 0.32872 0.01361 0.0
H1219 H 0.61225 0.33335 0.05145 0.0
C1220 C 0.59586 0.3295 0.95588 0.0
C1221 C 0.60007 0.34759 0.9435 0.0
C1222 C 0.58941 0.3317 0.97693 0.0
C1223 C 0.58782 0.35208 0.9862 0.0
C1224 C 0.59021 0.37016 0.97318 0.0
C1225 C 0.59615 0.3679 0.95183 0.0
C1226 C 0.57773 0.37304 0.04121 0.0
C1227 C 0.5912 0.36007 0.05313 0.0
C1228 C 0.57598 0.37024 0.01904 0.0
C1229 C 0.58742 0.35419 0.00871 0.0
C1230 C 0.60025 0.34091 0.02097 0.0
C1231 C 0.60205 0.34381 0.04281 0.0
H1232 H 0.11579 0.84307 0.53276 0.0
H1233 H 0.14363 0.90512 0.54762 0.0
H1234 H 0.11131 0.85328 0.4959 0.0
H1235 H 0.13975 0.91536 0.50974 0.0
H1236 H 0.10725 0.9182 0.43642 0.0
H1237 H 0.11076 0.91818 0.47574 0.0
H1238 H 0.14393 0.85885 0.47205 0.0
H1239 H 0.13961 0.85823 0.43399 0.0
C1240 C 0.12072 0.85905 0.52807 0.0
C1241 C 0.13043 0.87318 0.54272 0.0
C1242 C 0.11815 0.86491 0.50701 0.0
C1243 C 0.12569 0.88489 0.49997 0.0
C1244 C 0.13396 0.89982 0.51489 0.0
C1245 C 0.13624 0.89398 0.53638 0.0
C1246 C 0.11556 0.90543 0.44417 0.0
C1247 C 0.12272 0.88802 0.43224 0.0
C1248 C 0.11763 0.90547 0.46651 0.0
C1249 C 0.12713 0.88823 0.47678 0.0
C1250 C 0.13608 0.87207 0.46453 0.0
C1251 C 0.13364 0.87178 0.44263 0.0
H1252 H 0.61248 0.64601 0.94183 0.0
H1253 H 0.59627 0.57887 0.94387 0.0
H1254 H 0.60243 0.6498 0.97904 0.0
H1255 H 0.58442 0.58265 0.98059 0.0
H1256 H 0.60621 0.5885 0.04902 0.0
H1257 H 0.60363 0.58544 0.01056 0.0
H1258 H 0.58051 0.64987 0.00743 0.0
H1259 H 0.58429 0.65295 0.04622 0.0
C1260 C 0.60577 0.6323 0.9501 0.0
C1261 C 0.60514 0.61218 0.94035 0.0
C1262 C 0.59991 0.63441 0.97141 0.0
C1263 C 0.59303 0.61641 0.98309 0.0
C1264 C 0.59032 0.59672 0.97237 0.0
C1265 C 0.59675 0.59454 0.95127 0.0
C1266 C 0.60029 0.60181 0.04 0.0
C1267 C 0.5954 0.62089 0.05023 0.0
C1268 C 0.59853 0.60006 0.01796 0.0
C1269 C 0.59174 0.6174 0.0057 0.0
C1270 C 0.58599 0.63628 0.01626 0.0
C1271 C 0.58792 0.63803 0.03842 0.0
H1272 H 0.89075 0.07521 0.44392 0.0
H1273 H 0.8331 0.11069 0.43895 0.0
H1274 H 0.88496 0.07124 0.48236 0.0
H1275 H 0.82808 0.1085 0.47688 0.0
H1276 H 0.81665 0.10174 0.54372 0.0
H1277 H 0.81953 0.08984 0.50684 0.0
H1278 H 0.88833 0.09243 0.51284 0.0
H1279 H 0.88505 0.1025 0.55021 0.0
C1280 C 0.87676 0.08195 0.45108 0.0
C1281 C 0.86257 0.0936 0.43872 0.0
C1282 C 0.87352 0.07992 0.47306 0.0
C1283 C 0.85612 0.08966 0.48293 0.0
C1284 C 0.84147 0.10041 0.47007 0.0
C1285 C 0.84458 0.10215 0.44824 0.0
C1286 C 0.83229 0.09886 0.53725 0.0
C1287 C 0.85064 0.10294 0.54956 0.0
C1288 C 0.83402 0.09237 0.51606 0.0
C1289 C 0.85419 0.09077 0.50655 0.0
C1290 C 0.87252 0.0933 0.51952 0.0
C1291 C 0.87071 0.09912 0.54095 0.0
H1292 H 0.37965 0.40627 0.94265 0.0
H1293 H 0.37524 0.33815 0.93313 0.0
H1294 H 0.39101 0.40113 0.97946 0.0
H1295 H 0.38677 0.33275 0.97001 0.0
H1296 H 0.36528 0.33681 0.03958 0.0
H1297 H 0.36693 0.33824 0.00099 0.0
H1298 H 0.41531 0.38851 0.00538 0.0
H1299 H 0.4133 0.38719 0.04437 0.0
C1300 C 0.38174 0.3902 0.9484 0.0
C1301 C 0.3765 0.37259 0.93539 0.0
C1302 C 0.38838 0.38721 0.96939 0.0
C1303 C 0.38951 0.36652 0.97775 0.0
C1304 C 0.38578 0.34889 0.96409 0.0
C1305 C 0.37937 0.35192 0.94299 0.0
C1306 C 0.37657 0.34786 0.03227 0.0
C1307 C 0.38912 0.36191 0.04481 0.0
C1308 C 0.37769 0.34856 0.01016 0.0
C1309 C 0.39132 0.36344 8e-05 0.0
C1310 C 0.40462 0.3769 0.0127 0.0
C1311 C 0.40362 0.37606 0.03496 0.0
H1312 H 0.55625 0.13717 0.0737 0.0
H1313 H 0.54529 0.08451 0.11656 0.0
H1314 H 0.51794 0.14427 0.07377 0.0
H1315 H 0.50739 0.09096 0.11616 0.0
H1316 H 0.44799 0.12161 0.13474 0.0
H1317 H 0.48606 0.1177 0.13148 0.0
H1318 H 0.48189 0.13111 0.06408 0.0
H1319 H 0.44338 0.13562 0.06751 0.0
C1320 C 0.54554 0.12669 0.08248 0.0
C1321 C 0.55353 0.1102 0.09499 0.0
C1322 C 0.5237 0.13082 0.08267 0.0
C1323 C 0.50972 0.11843 0.09531 0.0
C1324 C 0.51777 0.10118 0.10673 0.0
C1325 C 0.53942 0.09724 0.10669 0.0
C1326 C 0.45515 0.12391 0.11922 0.0
C1327 C 0.44267 0.1285 0.10127 0.0
C1328 C 0.47699 0.12151 0.11732 0.0
C1329 C 0.48691 0.12352 0.09739 0.0
C1330 C 0.47465 0.1293 0.0796 0.0
C1331 C 0.45263 0.13171 0.08152 0.0
H1332 H 0.33841 0.94037 0.62586 0.0
H1333 H 0.38578 0.9366 0.57667 0.0
H1334 H 0.33264 0.9771 0.61743 0.0
H1335 H 0.37893 0.97346 0.56659 0.0
H1336 H 0.39699 0.03979 0.59294 0.0
H1337 H 0.39067 0.0031 0.58203 0.0
H1338 H 0.32486 0.00706 0.60202 0.0
H1339 H 0.332 0.04367 0.6139 0.0
C1340 C 0.34693 0.94736 0.61251 0.0
C1341 C 0.36292 0.93612 0.60228 0.0
C1342 C 0.34348 0.9685 0.60741 0.0
C1343 C 0.35586 0.97881 0.59172 0.0
C1344 C 0.36974 0.9664 0.57939 0.0
C1345 C 0.37351 0.94521 0.58488 0.0
C1346 C 0.3811 0.0328 0.59449 0.0
C1347 C 0.36509 0.04408 0.60453 0.0
C1348 C 0.37728 0.01176 0.58801 0.0
C1349 C 0.35735 0.00158 0.5917 0.0
C1350 C 0.34063 0.01396 0.59959 0.0
C1351 C 0.34457 0.03502 0.60619 0.0
H1352 H 0.4351 0.87617 0.12984 0.0
H1353 H 0.43078 0.86144 0.06251 0.0
H1354 H 0.47239 0.87051 0.12953 0.0
H1355 H 0.46965 0.85781 0.06156 0.0
H1356 H 0.53972 0.83727 0.07301 0.0
H1357 H 0.50087 0.84022 0.06973 0.0
H1358 H 0.50253 0.88682 0.12105 0.0
H1359 H 0.53957 0.8814 0.12605 0.0
C1360 C 0.44226 0.87209 0.11473 0.0
C1361 C 0.42996 0.86951 0.09612 0.0
C1362 C 0.46398 0.86917 0.11445 0.0
C1363 C 0.47451 0.86452 0.09533 0.0
C1364 C 0.4622 0.86155 0.07659 0.0
C1365 C 0.43999 0.86388 0.07702 0.0
C1366 C 0.53147 0.8479 0.08363 0.0
C1367 C 0.54263 0.85892 0.09994 0.0
C1368 C 0.50928 0.84977 0.08166 0.0
C1369 C 0.4982 0.86329 0.09555 0.0
C1370 C 0.50996 0.87531 0.11076 0.0
C1371 C 0.53159 0.87257 0.11339 0.0
H1372 H 0.61132 0.03762 0.64107 0.0
H1373 H 0.63969 0.05172 0.58009 0.0
H1374 H 0.60933 -0.00013 0.63188 0.0
H1375 H 0.63781 0.01332 0.5708 0.0
H1376 H 0.59903 0.93804 0.58174 0.0
H1377 H 0.60238 0.97661 0.57486 0.0
H1378 H 0.65169 0.9822 0.62299 0.0
H1379 H 0.64823 0.94406 0.62989 0.0
C1380 C 0.6164 0.0326 0.62537 0.0
C1381 C 0.62568 0.04725 0.61125 0.0
C1382 C 0.61534 0.01112 0.62016 0.0
C1383 C 0.62371 0.00397 0.60082 0.0
C1384 C 0.63133 0.01873 0.58579 0.0
C1385 C 0.63233 0.0405 0.59104 0.0
C1386 C 0.61126 0.94748 0.58999 0.0
C1387 C 0.62335 0.9385 0.60634 0.0
C1388 C 0.6132 0.96937 0.58604 0.0
C1389 C 0.62719 0.98208 0.59851 0.0
C1390 C 0.64095 0.97252 0.61311 0.0
C1391 C 0.63896 0.95082 0.61707 0.0
H1392 H 0.43891 0.88981 0.88326 0.0
H1393 H 0.44001 0.82114 0.88378 0.0
H1394 H 0.47629 0.89165 0.89382 0.0
H1395 H 0.47696 0.82268 0.89598 0.0
H1396 H 0.54262 0.83538 0.86465 0.0
H1397 H 0.50559 0.82965 0.87403 0.0
H1398 H 0.50815 0.88731 0.91247 0.0
H1399 H 0.54529 0.89344 0.90173 0.0
C1400 C 0.44695 0.87514 0.88675 0.0
C1401 C 0.43698 0.85537 0.88234 0.0
C1402 C 0.46839 0.87611 0.89291 0.0
C1403 C 0.47995 0.85725 0.89503 0.0
C1404 C 0.46882 0.83751 0.89367 0.0
C1405 C 0.44762 0.83657 0.88691 0.0
C1406 C 0.53537 0.84639 0.87566 0.0
C1407 C 0.5465 0.86478 0.88252 0.0
C1408 C 0.51413 0.8431 0.88124 0.0
C1409 C 0.50364 0.85811 0.89398 0.0
C1410 C 0.51556 0.87562 0.90235 0.0
C1411 C 0.53681 0.87908 0.89641 0.0
H1412 H 0.62577 0.94248 0.42235 0.0
H1413 H 0.63393 0.94955 0.35436 0.0
H1414 H 0.62036 0.98091 0.42566 0.0
H1415 H 0.6291 0.98761 0.35771 0.0
H1416 H 0.59092 0.04491 0.36406 0.0
H1417 H 0.59799 0.00719 0.36472 0.0
H1418 H 0.63597 0.01638 0.42194 0.0
H1419 H 0.62841 0.05461 0.42147 0.0
C1420 C 0.62669 0.95227 0.4082 0.0
C1421 C 0.62988 0.943 0.38806 0.0
C1422 C 0.6237 0.97424 0.41011 0.0
C1423 C 0.62385 0.98717 0.39189 0.0
C1424 C 0.6283 0.97798 0.37198 0.0
C1425 C 0.63122 0.95616 0.37008 0.0
C1426 C 0.60051 0.03887 0.377 0.0
C1427 C 0.60917 0.05266 0.39268 0.0
C1428 C 0.60478 0.01728 0.37724 0.0
C1429 C 0.61795 0.0089 0.39311 0.0
C1430 C 0.62578 0.02244 0.4095 0.0
C1431 C 0.62141 0.04425 0.4093 0.0
H1432 H 0.43971 0.1488 0.88423 0.0
H1433 H 0.44223 0.08037 0.88859 0.0
H1434 H 0.47708 0.15197 0.89463 0.0
H1435 H 0.47905 0.08329 0.9008 0.0
H1436 H 0.5453 0.09433 0.87146 0.0
H1437 H 0.50813 0.08895 0.88003 0.0
H1438 H 0.50875 0.14979 0.91325 0.0
H1439 H 0.54599 0.15565 0.90282 0.0
C1440 C 0.44808 0.13453 0.8885 0.0
C1441 C 0.43849 0.11436 0.88533 0.0
C1442 C 0.46952 0.13626 0.89457 0.0
C1443 C 0.48144 0.11779 0.89788 0.0
C1444 C 0.4707 0.09781 0.89754 0.0
C1445 C 0.44954 0.09608 0.89083 0.0
C1446 C 0.5376 0.10616 0.88123 0.0
C1447 C 0.54823 0.12529 0.8866 0.0
C1448 C 0.51623 0.1031 0.88633 0.0
C1449 C 0.50515 0.11902 0.89731 0.0
C1450 C 0.51658 0.13739 0.90441 0.0
C1451 C 0.53791 0.14069 0.89872 0.0
H1452 H 0.40316 0.94067 0.3821 0.0
H1453 H 0.33669 0.92999 0.39635 0.0
H1454 H 0.39836 0.97911 0.38301 0.0
H1455 H 0.33168 0.96854 0.3979 0.0
H1456 H 0.3258 0.03606 0.37363 0.0
H1457 H 0.32997 -0.0025 0.37552 0.0
H1458 H 0.39208 0.00772 0.40478 0.0
H1459 H 0.38783 0.04617 0.40242 0.0
C1460 C 0.38764 0.94672 0.38602 0.0
C1461 C 0.37042 0.93267 0.38977 0.0
C1462 C 0.38483 0.96869 0.38657 0.0
C1463 C 0.36464 0.97701 0.39069 0.0
C1464 C 0.34742 0.96274 0.39459 0.0
C1465 C 0.3503 0.94072 0.39411 0.0
C1466 C 0.34018 0.0299 0.38066 0.0
C1467 C 0.35636 0.04386 0.38818 0.0
C1468 C 0.34258 0.00786 0.38186 0.0
C1469 C 0.36136 -0.00057 0.39036 0.0
C1470 C 0.37748 0.0136 0.39799 0.0
C1471 C 0.37496 0.03561 0.39697 0.0
H1472 H 0.06541 0.44154 0.10657 0.0
H1473 H 0.1267 0.45105 0.13742 0.0
H1474 H 0.06225 0.48025 0.10338 0.0
H1475 H 0.12402 0.48921 0.13362 0.0
H1476 H 0.10882 0.55684 0.14034 0.0
H1477 H 0.10566 0.51877 0.14662 0.0
H1478 H 0.07783 0.50971 0.08381 0.0
H1479 H 0.08084 0.54827 0.07782 0.0
C1480 C 0.07804 0.45192 0.11284 0.0
C1481 C 0.09626 0.44342 0.12225 0.0
C1482 C 0.07637 0.474 0.11084 0.0
C1483 C 0.09283 0.4878 0.11834 0.0
C1484 C 0.11084 0.47912 0.12806 0.0
C1485 C 0.11247 0.45721 0.13007 0.0
C1486 C 0.10201 0.54671 0.12793 0.0
C1487 C 0.09547 0.55519 0.10845 0.0
C1488 C 0.10016 0.5249 0.1315 0.0
C1489 C 0.09188 0.51115 0.11555 0.0
C1490 C 0.0842 0.51989 0.09645 0.0
C1491 C 0.08595 0.54186 0.09295 0.0
H1492 H 0.13497 0.54614 0.86142 0.0
H1493 H 0.06869 0.549 0.84274 0.0
H1494 H 0.13137 0.50848 0.86608 0.0
H1495 H 0.0654 0.50998 0.84567 0.0
H1496 H 0.06508 0.44049 0.87274 0.0
H1497 H 0.06442 0.4793 0.86773 0.0
H1498 H 0.12982 0.4786 0.84628 0.0
H1499 H 0.13119 0.44146 0.85377 0.0
C1500 C 0.11958 0.53862 0.85797 0.0
C1501 C 0.1021 0.55057 0.85163 0.0
C1502 C 0.11757 0.51677 0.86038 0.0
C1503 C 0.09823 0.50591 0.85566 0.0
C1504 C 0.08053 0.51782 0.84945 0.0
C1505 C 0.08242 0.54009 0.8476 0.0
C1506 C 0.07924 0.44886 0.8671 0.0
C1507 C 0.09815 0.4379 0.86373 0.0
C1508 C 0.07885 0.471 0.86402 0.0
C1509 C 0.09723 0.48227 0.85708 0.0
C1510 C 0.11558 0.47083 0.85251 0.0
C1511 C 0.11623 0.4492 0.85641 0.0
H1512 H 0.0511 0.60712 0.32357 0.0
H1513 H 0.0435 0.58934 0.38944 0.0
H1514 H 0.01286 0.60174 0.31769 0.0
H1515 H 0.00518 0.58366 0.38358 0.0
H1516 H 0.93495 0.57875 0.36279 0.0
H1517 H 0.97248 0.5682 0.36302 0.0
H1518 H 0.99075 0.62921 0.33619 0.0
H1519 H 0.9539 0.63951 0.33571 0.0
C1520 C 0.04137 0.60086 0.33643 0.0
C1521 C 0.0499 0.59877 0.35696 0.0
C1522 C 0.01953 0.59792 0.33313 0.0
C1523 C 0.00614 0.59274 0.35033 0.0
C1524 C 0.01519 0.58771 0.37012 0.0
C1525 C 0.03703 0.59098 0.37349 0.0
C1526 C 0.94706 0.58971 0.35677 0.0
C1527 C 0.94155 0.60978 0.34888 0.0
C1528 C 0.96839 0.58366 0.35683 0.0
C1529 C 0.98431 0.59765 0.349 0.0
C1530 C 0.97869 0.61777 0.34148 0.0
C1531 C 0.95758 0.62372 0.34133 0.0
H1532 H 0.90501 0.54273 0.88938 0.0
H1533 H 0.85434 0.53772 0.84272 0.0
H1534 H 0.91276 0.50487 0.88367 0.0
H1535 H 0.8622 0.50036 0.83664 0.0
H1536 H 0.85124 0.4359 0.86632 0.0
H1537 H 0.85338 0.47426 0.86571 0.0
H1538 H 0.92164 0.47264 0.85786 0.0
H1539 H 0.91959 0.43332 0.85875 0.0
C1540 C 0.8962 0.53368 0.87731 0.0
C1541 C 0.87908 0.54272 0.86652 0.0
C1542 C 0.90063 0.51217 0.874 0.0
C1543 C 0.88779 0.49976 0.86003 0.0
C1544 C 0.87214 0.5096 0.84769 0.0
C1545 C 0.8677 0.5309 0.85106 0.0
C1546 C 0.86679 0.44354 0.86441 0.0
C1547 C 0.88524 0.43161 0.86229 0.0
C1548 C 0.86796 0.46557 0.86391 0.0
C1549 C 0.8876 0.47631 0.8611 0.0
C1550 C 0.90631 0.46458 0.85976 0.0
C1551 C 0.90513 0.44223 0.86028 0.0
H1552 H 0.03405 0.35464 0.36987 0.0
H1553 H 0.04182 0.42125 0.35341 0.0
H1554 H -0.00367 0.35917 0.37473 0.0
H1555 H 0.00325 0.42575 0.35825 0.0
H1556 H 0.9298 0.40131 0.34106 0.0
H1557 H 0.96837 0.40955 0.34009 0.0
H1558 H 0.97569 0.37989 0.40158 0.0
H1559 H 0.9377 0.37192 0.40252 0.0
C1560 C 0.0277 0.37031 0.36727 0.0
C1561 C 0.04092 0.38765 0.36138 0.0
C1562 C 0.00607 0.37293 0.37023 0.0
C1563 C -0.00297 0.39292 0.36724 0.0
C1564 C 0.01001 0.41025 0.36081 0.0
C1565 C 0.03194 0.40767 0.35808 0.0
C1566 C 0.93962 0.39763 0.35475 0.0
C1567 C 0.93113 0.38585 0.37178 0.0
C1568 C 0.96159 0.40222 0.35419 0.0
C1569 C 0.9749 0.39486 0.37055 0.0
C1570 C 0.96577 0.3855 0.38868 0.0
C1571 C 0.94406 0.38106 0.38928 0.0
H1572 H 0.91928 0.43367 0.11977 0.0
H1573 H 0.85045 0.43582 0.12123 0.0
H1574 H 0.92116 0.47304 0.12099 0.0
H1575 H 0.85242 0.47411 0.12271 0.0
H1576 H 0.85575 0.53874 0.10155 0.0
H1577 H 0.86362 0.50138 0.09566 0.0
H1578 H 0.90976 0.50435 0.14709 0.0
H1579 H 0.90188 0.54225 0.15277 0.0
C1580 C 0.90468 0.44246 0.12041 0.0
C1581 C 0.88476 0.43169 0.12008 0.0
C1582 C 0.90575 0.46485 0.12113 0.0
C1583 C 0.88691 0.47649 0.12135 0.0
C1584 C 0.86718 0.46556 0.12186 0.0
C1585 C 0.8661 0.44352 0.12116 0.0
C1586 C 0.86814 0.53158 0.11102 0.0
C1587 C 0.87824 0.54302 0.12757 0.0
C1588 C 0.87258 0.51026 0.10775 0.0
C1589 C 0.88702 0.49999 0.12118 0.0
C1590 C 0.89858 0.51198 0.13656 0.0
C1591 C 0.89407 0.5335 0.13985 0.0
H1592 H 0.94536 0.39307 0.65994 0.0
H1593 H 0.93884 0.36925 0.59554 0.0
H1594 H 0.98314 0.40206 0.65347 0.0
H1595 H 0.97628 0.37793 0.58904 0.0
H1596 H 0.04295 0.35706 0.6013 0.0
H1597 H 0.00485 0.35838 0.60548 0.0
H1598 H 0.01127 0.42223 0.63138 0.0
H1599 H 0.05028 0.42077 0.62754 0.0
C1600 C 0.95189 0.39059 0.64419 0.0
C1601 C 0.93941 0.38082 0.62807 0.0
C1602 C 0.9734 0.39567 0.64049 0.0
C1603 C 0.98262 0.39046 0.62083 0.0
C1604 C 0.96959 0.38203 0.60436 0.0
C1605 C 0.94815 0.37728 0.60796 0.0
C1606 C 0.03636 0.37155 0.60768 0.0
C1607 C 0.04961 0.38893 0.61387 0.0
C1608 C 0.01446 0.37233 0.60996 0.0
C1609 C 0.00507 0.39057 0.61834 0.0
C1610 C 0.01818 0.40805 0.62469 0.0
C1611 C 0.04039 0.40729 0.62236 0.0
H1612 H 0.04772 0.60413 0.65355 0.0
H1613 H 0.04553 0.60007 0.58499 0.0
H1614 H 0.01097 0.59082 0.65537 0.0
H1615 H 0.00837 0.58869 0.5863 0.0
H1616 H 0.94153 0.58097 0.58741 0.0
H1617 H 0.97839 0.57045 0.59262 0.0
H1618 H 0.98164 0.60871 0.65043 0.0
H1619 H 0.94464 0.61738 0.64584 0.0
C1620 C 0.03937 0.59983 0.6389 0.0
C1621 C 0.04907 0.60318 0.61913 0.0
C1622 C 0.01825 0.59249 0.63985 0.0
C1623 C 0.00622 0.5894 0.621 0.0
C1624 C 0.01685 0.59076 0.60126 0.0
C1625 C 0.0382 0.59743 0.60038 0.0
C1626 C 0.95007 0.58619 0.60166 0.0
C1627 C 0.94062 0.59995 0.61623 0.0
C1628 C 0.97124 0.58046 0.60456 0.0
C1629 C 0.98344 0.58921 0.62159 0.0
C1630 C 0.97304 0.60139 0.63718 0.0
C1631 C 0.95177 0.60657 0.63455 0.0
H1632 H 0.93343 0.09993 0.32295 0.0
H1633 H 0.93323 0.10331 0.39159 0.0
H1634 H 0.97223 0.09495 0.3237 0.0
H1635 H 0.97135 0.09916 0.39261 0.0
H1636 H 0.03652 0.08136 0.39482 0.0
H1637 H -0.00162 0.07702 0.3888 0.0
H1638 H 0.00427 0.11299 0.3304 0.0
H1639 H 0.04288 0.11592 0.33597 0.0
C1640 C 0.94168 0.09927 0.33814 0.0
C1641 C 0.9305 0.10187 0.35722 0.0
C1642 C 0.96389 0.09666 0.33864 0.0
C1643 C 0.97513 0.09644 0.35823 0.0
C1644 C 0.96349 0.09864 0.37719 0.0
C1645 C 0.94157 0.10127 0.37666 0.0
C1646 C 0.02971 0.08753 0.38025 0.0
C1647 C 0.04263 0.0986 0.36565 0.0
C1648 C 0.00775 0.08545 0.37696 0.0
C1649 C -0.00205 0.09509 0.35933 0.0
C1650 C 0.01113 0.10516 0.34405 0.0
C1651 C 0.0333 0.10679 0.34715 0.0
H1652 H 0.37605 0.4421 0.82173 0.0
H1653 H 0.38484 0.44105 0.88984 0.0
H1654 H 0.38392 0.4805 0.8217 0.0
H1655 H 0.39454 0.47857 0.89 0.0
H1656 H 0.37938 0.54753 0.89156 0.0
H1657 H 0.37904 0.50945 0.88966 0.0
H1658 H 0.40146 0.5125 0.82454 0.0
H1659 H 0.39988 0.55142 0.82613 0.0
C1660 C 0.38051 0.45001 0.83656 0.0
C1661 C 0.37986 0.43872 0.85577 0.0
C1662 C 0.38503 0.47211 0.83666 0.0
C1663 C 0.38923 0.48326 0.85598 0.0
C1664 C 0.39041 0.4712 0.87484 0.0
C1665 C 0.38535 0.44942 0.87478 0.0
C1666 C 0.38445 0.54019 0.87682 0.0
C1667 C 0.38965 0.55267 0.85901 0.0
C1668 C 0.38454 0.51802 0.87576 0.0
C1669 C 0.39051 0.50729 0.85699 0.0
C1670 C 0.39648 0.51986 0.83926 0.0
C1671 C 0.39587 0.54228 0.8402 0.0
H1672 H 0.04716 0.85773 0.37593 0.0
H1673 H 0.04895 0.90558 0.32694 0.0
H1674 H 0.01021 0.85944 0.37807 0.0
H1675 H 0.01034 0.9083 0.32905 0.0
H1676 H 0.93818 0.90417 0.33052 0.0
H1677 H 0.97693 0.90595 0.32837 0.0
H1678 H 0.97965 0.86363 0.38299 0.0
H1679 H 0.94265 0.86116 0.38366 0.0
C1680 C 0.03932 0.86867 0.36531 0.0
C1681 C 0.05102 0.88105 0.35086 0.0
C1682 C 0.01743 0.87008 0.36671 0.0
C1683 C 0.00586 0.8841 0.3537 0.0
C1684 C 0.01787 0.897 0.33936 0.0
C1685 C 0.04022 0.89557 0.33806 0.0
C1686 C 0.94746 0.8951 0.34171 0.0
C1687 C 0.93724 0.88227 0.357 0.0
C1688 C 0.96992 0.89614 0.34067 0.0
C1689 C 0.98268 0.88448 0.35504 0.0
C1690 C 0.9718 0.8724 0.37071 0.0
C1691 C 0.9498 0.87111 0.37143 0.0
H1692 H 0.624 0.43433 0.88824 0.0
H1693 H 0.57343 0.43124 0.84125 0.0
H1694 H 0.62547 0.47273 0.8859 0.0
H1695 H 0.57498 0.47054 0.83872 0.0
H1696 H 0.5781 0.54545 0.85729 0.0
H1697 H 0.57083 0.50654 0.85749 0.0
H1698 H 0.63857 0.49606 0.85884 0.0
H1699 H 0.64563 0.53399 0.85894 0.0
C1700 C 0.61291 0.44194 0.87758 0.0
C1701 C 0.59866 0.42974 0.86486 0.0
C1702 C 0.61391 0.46404 0.87606 0.0
C1703 C 0.60066 0.47477 0.86176 0.0
C1704 C 0.58552 0.46273 0.84976 0.0
C1705 C 0.58471 0.44029 0.85109 0.0
C1706 C 0.59132 0.53471 0.85714 0.0
C1707 C 0.61243 0.5428 0.8583 0.0
C1708 C 0.58719 0.51248 0.85737 0.0
C1709 C 0.60412 0.49819 0.85877 0.0
C1710 C 0.6251 0.5065 0.85843 0.0
C1711 C 0.62916 0.52836 0.85828 0.0
H1712 H 0.94343 0.89476 0.59489 0.0
H1713 H 0.94571 0.86284 0.65535 0.0
H1714 H 0.98169 0.90205 0.59676 0.0
H1715 H 0.98417 0.86846 0.65686 0.0
H1716 H 0.05296 0.88476 0.65963 0.0
H1717 H 0.01429 0.88682 0.66085 0.0
H1718 H 0.0121 0.88694 0.59182 0.0
H1719 H 0.05047 0.8865 0.5909 0.0
C1720 C 0.95219 0.8898 0.60887 0.0
C1721 C 0.94167 0.8788 0.62528 0.0
C1722 C 0.97428 0.89349 0.60979 0.0
C1723 C 0.98655 0.88563 0.62685 0.0
C1724 C 0.97562 0.87521 0.6436 0.0
C1725 C 0.95347 0.87192 0.64283 0.0
C1726 C 0.04416 0.8858 0.64478 0.0
C1727 C 0.05487 0.88555 0.6252 0.0
C1728 C 0.02184 0.88663 0.64541 0.0
C1729 C 0.00958 0.8869 0.62644 0.0
C1730 C 0.02056 0.88722 0.6069 0.0
C1731 C 0.04279 0.88676 0.60632 0.0
H1732 H 0.63435 0.43839 0.12822 0.0
H1733 H 0.56792 0.43359 0.14558 0.0
H1734 H 0.63278 0.47678 0.12829 0.0
H1735 H 0.56653 0.47269 0.14655 0.0
H1736 H 0.57021 0.54254 0.11768 0.0
H1737 H 0.56764 0.50394 0.12371 0.0
H1738 H 0.63098 0.50626 0.15128 0.0
H1739 H 0.63349 0.54443 0.14468 0.0
C1740 C 0.61946 0.44555 0.13257 0.0
C1741 C 0.60135 0.43282 0.13722 0.0
C1742 C 0.61859 0.46772 0.13272 0.0
C1743 C 0.59965 0.47801 0.13787 0.0
C1744 C 0.58141 0.46533 0.14256 0.0
C1745 C 0.58225 0.44294 0.14222 0.0
C1746 C 0.58314 0.5348 0.12583 0.0
C1747 C 0.60183 0.54643 0.13124 0.0
C1748 C 0.58177 0.51268 0.12915 0.0
C1749 C 0.59924 0.50183 0.13768 0.0
C1750 C 0.61735 0.51392 0.14431 0.0
C1751 C 0.61867 0.53589 0.14097 0.0
H1752 H 0.93277 0.10223 0.66805 0.0
H1753 H 0.93648 0.08991 0.60043 0.0
H1754 H 0.97145 0.10097 0.67085 0.0
H1755 H 0.97505 0.08968 0.60287 0.0
H1756 H 0.04396 0.08236 0.61109 0.0
H1757 H 0.00566 0.07458 0.6128 0.0
H1758 H 0.00052 0.12127 0.66349 0.0
H1759 H 0.03879 0.12815 0.66207 0.0
C1760 C 0.94183 0.09891 0.65382 0.0
C1761 C 0.93148 0.09608 0.63404 0.0
C1762 C 0.96412 0.0985 0.65533 0.0
C1763 C 0.97671 0.09539 0.63708 0.0
C1764 C 0.96616 0.09177 0.61742 0.0
C1765 C 0.94391 0.09205 0.61596 0.0
C1766 C 0.03467 0.09013 0.62324 0.0
C1767 C 0.04435 0.10535 0.63692 0.0
C1768 C 0.0126 0.08609 0.62394 0.0
C1769 C -0.00035 0.09738 0.63819 0.0
C1770 C 0.00973 0.11188 0.65254 0.0
C1771 C 0.03176 0.11585 0.65183 0.0
H1772 H 0.36639 0.55277 0.10107 0.0
H1773 H 0.40226 0.55288 0.15999 0.0
H1774 H 0.3695 0.51477 0.09788 0.0
H1775 H 0.40595 0.51385 0.15662 0.0
H1776 H 0.38225 0.44075 0.15124 0.0
H1777 H 0.38636 0.47942 0.15755 0.0
H1778 H 0.3938 0.48904 0.08978 0.0
H1779 H 0.38872 0.45124 0.08362 0.0
C1780 C 0.37496 0.54452 0.11346 0.0
C1781 C 0.38378 0.55571 0.13095 0.0
C1782 C 0.37708 0.52264 0.11146 0.0
C1783 C 0.38824 0.51108 0.12685 0.0
C1784 C 0.39723 0.52225 0.14449 0.0
C1785 C 0.39523 0.54453 0.1464 0.0
C1786 C 0.38515 0.45122 0.13785 0.0
C1787 C 0.38477 0.44306 0.11693 0.0
C1788 C 0.38753 0.47335 0.14142 0.0
C1789 C 0.38977 0.48749 0.12412 0.0
C1790 C 0.39131 0.47885 0.10347 0.0
C1791 C 0.38859 0.45706 0.09992 0.0
H1792 H 0.34823 0.04704 0.13541 0.0
H1793 H 0.36778 0.04806 0.06972 0.0
H1794 H 0.34041 0.009 0.13281 0.0
H1795 H 0.36085 0.0094 0.06708 0.0
H1796 H 0.33812 0.93937 0.0686 0.0
H1797 H 0.33881 0.97856 0.06738 0.0
H1798 H 0.36216 0.98074 0.13237 0.0
H1799 H 0.36032 0.94241 0.13389 0.0
C1800 C 0.35017 0.03912 0.12015 0.0
C1801 C 0.35819 0.05046 0.10265 0.0
C1802 C 0.34614 0.01719 0.11873 0.0
C1803 C 0.35054 0.00586 0.09988 0.0
C1804 C 0.35723 0.01752 0.08185 0.0
C1805 C 0.36108 0.03968 0.08326 0.0
C1806 C 0.34295 0.94836 0.0827 0.0
C1807 C 0.34853 0.93774 0.10153 0.0
C1808 C 0.34356 0.9708 0.08196 0.0
C1809 C 0.35001 0.98299 0.09996 0.0
C1810 C 0.3562 0.97214 0.11846 0.0
C1811 C 0.35524 0.94997 0.1193 0.0
H1812 H 0.43901 0.81974 0.61052 0.0
H1813 H 0.44388 0.88293 0.58406 0.0
H1814 H 0.47755 0.81684 0.60879 0.0
H1815 H 0.48244 0.88072 0.58313 0.0
H1816 H 0.55248 0.87239 0.57827 0.0
H1817 H 0.51422 0.86882 0.57101 0.0
H1818 H 0.50735 0.82819 0.62626 0.0
H1819 H 0.54544 0.831 0.6324 0.0
C1820 C 0.44835 0.8328 0.60381 0.0
C1821 C 0.43848 0.85145 0.59724 0.0
C1822 C 0.47056 0.83138 0.60319 0.0
C1823 C 0.48349 0.84863 0.59605 0.0
C1824 C 0.47332 0.86691 0.58849 0.0
C1825 C 0.45112 0.86829 0.58912 0.0
C1826 C 0.54279 0.86186 0.58809 0.0
C1827 C 0.5519 0.8514 0.60547 0.0
C1828 C 0.52074 0.86019 0.58431 0.0
C1829 C 0.50732 0.84825 0.59806 0.0
C1830 C 0.51687 0.83711 0.6149 0.0
C1831 C 0.53883 0.83866 0.6185 0.0
H1832 H 0.66493 0.04678 0.08881 0.0
H1833 H 0.60554 0.04294 0.12303 0.0
H1834 H 0.66243 0.00784 0.08225 0.0
H1835 H 0.6028 0.0049 0.11614 0.0
H1836 H 0.58935 0.94514 0.08446 0.0
H1837 H 0.59724 0.98323 0.08323 0.0
H1838 H 0.66153 0.97254 0.10462 0.0
H1839 H 0.65348 0.9339 0.10595 0.0
C1840 C 0.65145 0.03766 0.09494 0.0
C1841 C 0.63557 0.04785 0.10665 0.0
C1842 C 0.65002 0.01545 0.09121 0.0
C1843 C 0.63231 0.00333 0.09848 0.0
C1844 C 0.61654 0.01372 0.1101 0.0
C1845 C 0.61823 0.03555 0.11426 0.0
C1846 C 0.60544 0.95077 0.08814 0.0
C1847 C 0.62077 0.9365 0.09539 0.0
C1848 C 0.6099 0.97265 0.08763 0.0
C1849 C 0.62987 0.98096 0.09428 0.0
C1850 C 0.64598 0.96659 0.09944 0.0
C1851 C 0.64145 0.94446 0.10004 0.0
H1852 H 0.54412 0.09421 0.59881 0.0
H1853 H 0.54811 0.16273 0.60553 0.0
H1854 H 0.50567 0.09551 0.59595 0.0
H1855 H 0.50962 0.16435 0.60143 0.0
H1856 H 0.44006 0.15658 0.6233 0.0
H1857 H 0.47846 0.15874 0.61888 0.0
H1858 H 0.47497 0.10262 0.5783 0.0
H1859 H 0.43661 0.10005 0.58406 0.0
C1860 C 0.53677 0.10965 0.59924 0.0
C1861 C 0.54922 0.12837 0.60243 0.0
C1862 C 0.51459 0.11046 0.59737 0.0
C1863 C 0.50414 0.13007 0.59843 0.0
C1864 C 0.5168 0.14887 0.60089 0.0
C1865 C 0.53901 0.14801 0.60297 0.0
C1866 C 0.44749 0.14529 0.61272 0.0
C1867 C 0.43536 0.12854 0.60352 0.0
C1868 C 0.46964 0.14639 0.61022 0.0
C1869 C 0.48023 0.13072 0.59838 0.0
C1870 C 0.46769 0.11476 0.58795 0.0
C1871 C 0.44556 0.11355 0.59073 0.0
H1872 H 0.32532 0.04495 0.87069 0.0
H1873 H 0.39014 0.04796 0.89353 0.0
H1874 H 0.32375 0.00663 0.87682 0.0
H1875 H 0.38844 0.01019 0.90146 0.0
H1876 H 0.39217 0.94189 0.88355 0.0
H1877 H 0.39118 0.98009 0.88526 0.0
H1878 H 0.32276 0.97617 0.89389 0.0
H1879 H 0.32383 0.93745 0.89033 0.0
C1880 C 0.33888 0.03747 0.87801 0.0
C1881 C 0.3577 0.04933 0.88198 0.0
C1882 C 0.3381 0.01539 0.88153 0.0
C1883 C 0.35613 0.00474 0.88927 0.0
C1884 C 0.37439 0.01726 0.89476 0.0
C1885 C 0.37527 0.03914 0.89076 0.0
C1886 C 0.37688 0.94912 0.88599 0.0
C1887 C 0.35806 0.93653 0.88668 0.0
C1888 C 0.37629 0.9713 0.88726 0.0
C1889 C 0.35685 0.98178 0.88981 0.0
C1890 C 0.33806 0.96902 0.89151 0.0
C1891 C 0.33864 0.94669 0.8898 0.0
H1892 H 0.55216 0.83628 0.39105 0.0
H1893 H 0.53829 0.90283 0.38255 0.0
H1894 H 0.51355 0.82793 0.39298 0.0
H1895 H 0.50057 0.89456 0.38434 0.0
H1896 H 0.44069 0.87079 0.35254 0.0
H1897 H 0.47883 0.87496 0.35674 0.0
H1898 H 0.47674 0.83556 0.4129 0.0
H1899 H 0.43765 0.8315 0.40882 0.0
C1900 C 0.54101 0.84913 0.39011 0.0
C1901 C 0.54833 0.87014 0.38622 0.0
C1902 C 0.51894 0.84436 0.39117 0.0
C1903 C 0.50404 0.86053 0.38827 0.0
C1904 C 0.51158 0.88166 0.38613 0.0
C1905 C 0.53331 0.88638 0.38515 0.0
C1906 C 0.44821 0.86263 0.36564 0.0
C1907 C 0.43604 0.85069 0.38028 0.0
C1908 C 0.47017 0.86522 0.36815 0.0
C1909 C 0.48082 0.85578 0.38529 0.0
C1910 C 0.46893 0.84303 0.39955 0.0
C1911 C 0.44661 0.84072 0.39724 0.0
H1912 H 0.61332 0.04326 0.91749 0.0
H1913 H 0.65028 0.04543 0.85993 0.0
H1914 H 0.61599 0.00456 0.91833 0.0
H1915 H 0.65097 0.00709 0.85892 0.0
H1916 H 0.65989 0.93918 0.86126 0.0
H1917 H 0.66302 0.97721 0.86793 0.0
H1918 H 0.60706 0.97298 0.90807 0.0
H1919 H 0.60572 0.93464 0.90278 0.0
C1920 C 0.62206 0.03534 0.90504 0.0
C1921 C 0.63216 0.04731 0.88902 0.0
C1922 C 0.62338 0.013 0.90523 0.0
C1923 C 0.63404 0.002 0.88884 0.0
C1924 C 0.64351 0.01436 0.87252 0.0
C1925 C 0.64299 0.0366 0.87291 0.0
C1926 C 0.64899 0.9464 0.87234 0.0
C1927 C 0.63299 0.93397 0.882 0.0
C1928 C 0.65025 0.96847 0.87571 0.0
C1929 C 0.63486 0.97895 0.88808 0.0
C1930 C 0.61944 0.96606 0.89858 0.0
C1931 C 0.61864 0.94387 0.89567 0.0
H1932 H 0.4299 0.15295 0.3916 0.0
H1933 H 0.44295 0.08596 0.38467 0.0
H1934 H 0.46862 0.16081 0.39459 0.0
H1935 H 0.48069 0.09373 0.3875 0.0
H1936 H 0.53998 0.11558 0.35483 0.0
H1937 H 0.5019 0.11258 0.35911 0.0
H1938 H 0.50592 0.1527 0.41523 0.0
H1939 H 0.54505 0.15562 0.41107 0.0
C1940 C 0.44088 0.13993 0.39121 0.0
C1941 C 0.43334 0.11891 0.3873 0.0
C1942 C 0.46299 0.14441 0.39291 0.0
C1943 C 0.47767 0.12793 0.39067 0.0
C1944 C 0.46985 0.10685 0.38877 0.0
C1945 C 0.44811 0.10242 0.38714 0.0
C1946 C 0.53293 0.12418 0.36794 0.0
C1947 C 0.54566 0.13596 0.38255 0.0
C1948 C 0.511 0.12226 0.37049 0.0
C1949 C 0.5009 0.1322 0.38765 0.0
C1950 C 0.51333 0.14484 0.40188 0.0
C1951 C 0.53565 0.14649 0.3995 0.0
H1952 H 0.06541 0.36057 0.93513 0.0
H1953 H 0.13191 0.3453 0.94041 0.0
H1954 H 0.06271 0.36118 0.97394 0.0
H1955 H 0.12941 0.34642 0.97907 0.0
H1956 H 0.11842 0.33715 0.04747 0.0
H1957 H 0.11549 0.32958 0.00922 0.0
H1958 H 0.07441 0.38335 0.00191 0.0
H1959 H 0.07722 0.3905 0.04008 0.0
C1960 C 0.07934 0.35692 0.94457 0.0
C1961 C 0.09881 0.35262 0.93468 0.0
C1962 C 0.07787 0.35751 0.96684 0.0
C1963 C 0.09581 0.35374 0.97973 0.0
C1964 C 0.11513 0.34895 0.96974 0.0
C1965 C 0.1166 0.3484 0.94753 0.0
C1966 C 0.10803 0.34668 0.03775 0.0
C1967 C 0.09766 0.36408 0.04667 0.0
C1968 C 0.10666 0.34266 0.01579 0.0
C1969 C 0.09485 0.35596 0.00237 0.0
C1970 C 0.08343 0.37259 0.01168 0.0
C1971 C 0.08495 0.37667 0.03357 0.0
H1972 H 0.0743 0.61032 0.93299 0.0
H1973 H 0.12732 0.65488 0.92742 0.0
H1974 H 0.07312 0.61697 0.97136 0.0
H1975 H 0.12619 0.66189 0.96573 0.0
H1976 H 0.14003 0.64107 0.03328 0.0
H1977 H 0.1363 0.64156 -0.00525 0.0
H1978 H 0.06774 0.63948 0.00085 0.0
H1979 H 0.07159 0.6385 0.03972 0.0
C1980 C 0.085 0.62236 0.93989 0.0
C1981 C 0.10051 0.63255 0.92722 0.0
C1982 C 0.08448 0.62607 0.96193 0.0
C1983 C 0.09973 0.6398 0.9718 0.0
C1984 C 0.11436 0.65101 0.95878 0.0
C1985 C 0.11473 0.64741 0.93673 0.0
C1986 C 0.12413 0.6411 0.02645 0.0
C1987 C 0.10611 0.64002 0.03962 0.0
C1988 C 0.12197 0.6415 0.00427 0.0
C1989 C 0.10169 0.64081 -0.00546 0.0
C1990 C 0.08361 0.64003 0.00774 0.0
C1991 C 0.08579 0.63973 0.03004 0.0
H1992 H 0.82528 0.59908 0.43475 0.0
H1993 H 0.89312 0.591 0.44046 0.0
H1994 H 0.82188 0.59643 0.4734 0.0
H1995 H 0.89007 0.58929 0.4789 0.0
H1996 H 0.88179 0.57937 0.54784 0.0
H1997 H 0.87989 0.5721 0.50961 0.0
H1998 H 0.82863 0.61657 0.50388 0.0
H1999 H 0.83019 0.62287 0.54221 0.0
C2000 C 0.8394 0.59632 0.44424 0.0
C2001 C 0.85945 0.59517 0.43455 0.0
C2002 C 0.83754 0.59511 0.46647 0.0
C2003 C 0.85569 0.59273 0.47954 0.0
C2004 C 0.8756 0.59074 0.4696 0.0
C2005 C 0.87743 0.59189 0.44745 0.0
C2006 C 0.86941 0.58666 0.53846 0.0
C2007 C 0.85562 0.60109 0.54797 0.0
C2008 C 0.86862 0.58294 0.51644 0.0
C2009 C 0.85424 0.59389 0.50336 0.0
C2010 C 0.83969 0.60749 0.51325 0.0
C2011 C 0.84044 0.61108 0.53529 0.0
H2012 H 0.84677 0.33975 0.94171 0.0
H2013 H 0.91208 0.36261 0.94192 0.0
H2014 H 0.84845 0.33435 0.97999 0.0
H2015 H 0.91381 0.35804 0.98071 0.0
H2016 H 0.91139 0.33798 0.05062 0.0
H2017 H 0.91316 0.33678 0.01153 0.0
H2018 H 0.84802 0.35729 0.00799 0.0
H2019 H 0.846 0.35737 0.04635 0.0
C2020 C 0.86177 0.34286 0.94996 0.0
C2021 C 0.87946 0.35102 0.93889 0.0
C2022 C 0.86265 0.34025 0.972 0.0
C2023 C 0.88114 0.34618 0.98366 0.0
C2024 C 0.89934 0.35318 0.97233 0.0
C2025 C 0.89846 0.35565 0.95009 0.0
C2026 C 0.89738 0.3418 0.04138 0.0
C2027 C 0.8784 0.34723 0.05163 0.0
C2028 C 0.89844 0.34133 0.01899 0.0
C2029 C 0.88059 0.34648 0.00646 0.0
C2030 C 0.86186 0.35239 0.01691 0.0
C2031 C 0.86073 0.35254 0.03907 0.0
H2032 H 0.10451 0.4042 0.55213 0.0
H2033 H 0.16382 0.37209 0.54551 0.0
H2034 H 0.10101 0.40661 0.51426 0.0
H2035 H 0.16217 0.37649 0.50715 0.0
H2036 H 0.14691 0.3702 0.4365 0.0
H2037 H 0.15451 0.37178 0.47425 0.0
H2038 H 0.10292 0.41598 0.48216 0.0
H2039 H 0.09452 0.41217 0.4449 0.0
C2040 C 0.11731 0.39837 0.54233 0.0
C2041 C 0.13462 0.38834 0.55174 0.0
C2042 C 0.11549 0.39988 0.5202 0.0
C2043 C 0.13145 0.3922 0.50652 0.0
C2044 C 0.14915 0.38252 0.51634 0.0
C2045 C 0.15043 0.38018 0.53859 0.0
C2046 C 0.13766 0.38064 0.44644 0.0
C2047 C 0.12026 0.39118 0.4378 0.0
C2048 C 0.14183 0.38151 0.46845 0.0
C2049 C 0.12897 0.3934 0.48243 0.0
C2050 C 0.11279 0.40559 0.47297 0.0
C2051 C 0.10822 0.40405 0.45117 0.0
H2052 H 0.84988 0.64551 0.94624 0.0
H2053 H 0.90973 0.61442 0.93821 0.0
H2054 H 0.8556 0.64701 0.98457 0.0
H2055 H 0.91539 0.61533 0.97707 0.0
H2056 H 0.91963 0.63274 0.04993 0.0
H2057 H 0.92005 0.63613 0.0107 0.0
H2058 H 0.85317 0.61796 0.0085 0.0
H2059 H 0.85292 0.61458 0.04698 0.0
C2060 C 0.86468 0.63971 0.9527 0.0
C2061 C 0.87951 0.63019 0.9393 0.0
C2062 C 0.86782 0.64022 0.9747 0.0
C2063 C 0.88573 0.63085 0.98396 0.0
C2064 C 0.90146 0.62273 0.97044 0.0
C2065 C 0.89834 0.62237 0.9482 0.0
C2066 C 0.90511 0.62963 0.04088 0.0
C2067 C 0.88618 0.62363 0.05134 0.0
C2068 C 0.90535 0.63142 0.01851 0.0
C2069 C 0.88653 0.6278 0.0065 0.0
C2070 C 0.86783 0.62141 0.0172 0.0
C2071 C 0.8677 0.61929 0.03926 0.0
H2072 H 0.82361 0.37161 0.43998 0.0
H2073 H 0.89012 0.3901 0.43997 0.0
H2074 H 0.82252 0.37645 0.47845 0.0
H2075 H 0.88897 0.39736 0.47784 0.0
H2076 H 0.89137 0.38298 0.54734 0.0
H2077 H 0.89048 0.38353 0.50927 0.0
H2078 H 0.822 0.39092 0.51063 0.0
H2079 H 0.82301 0.38819 0.54935 0.0
C2080 C 0.83779 0.37757 0.44823 0.0
C2081 C 0.85689 0.3806 0.43711 0.0
C2082 C 0.83728 0.38043 0.47044 0.0
C2083 C 0.8558 0.38688 0.48201 0.0
C2084 C 0.87448 0.39144 0.47023 0.0
C2085 C 0.87512 0.38781 0.44824 0.0
C2086 C 0.87607 0.38488 0.53958 0.0
C2087 C 0.85726 0.38555 0.55153 0.0
C2088 C 0.87552 0.38549 0.51737 0.0
C2089 C 0.85615 0.38748 0.5061 0.0
C2090 C 0.83731 0.38898 0.51824 0.0
C2091 C 0.83783 0.38776 0.54063 0.0
H2092 H 0.13984 0.56743 0.53586 0.0
H2093 H 0.11986 0.63266 0.53349 0.0
H2094 H 0.14375 0.56738 0.49662 0.0
H2095 H 0.1237 0.63274 0.49512 0.0
H2096 H 0.15243 0.63877 0.43278 0.0
H2097 H 0.15375 0.63252 0.47095 0.0
H2098 H 0.12237 0.571 0.4616 0.0
H2099 H 0.12169 0.57718 0.42289 0.0
C2100 C 0.13647 0.5817 0.52697 0.0
C2101 C 0.12981 0.60014 0.53758 0.0
C2102 C 0.13854 0.58167 0.50461 0.0
C2103 C 0.13452 0.60023 0.49282 0.0
C2104 C 0.12747 0.61835 0.50367 0.0
C2105 C 0.12511 0.61827 0.52567 0.0
C2106 C 0.14666 0.62353 0.43879 0.0
C2107 C 0.13727 0.60834 0.42493 0.0
C2108 C 0.14709 0.62005 0.46068 0.0
C2109 C 0.13777 0.60144 0.46936 0.0
C2110 C 0.12976 0.58545 0.45538 0.0
C2111 C 0.12952 0.58889 0.43325 0.0
H2112 H 0.28912 0.15598 0.3692 0.0
H2113 H 0.29222 0.09441 0.39886 0.0
H2114 H 0.25138 0.15001 0.36231 0.0
H2115 H 0.25551 0.08691 0.38984 0.0
H2116 H 0.18452 0.07953 0.37956 0.0
H2117 H 0.22135 0.0857 0.38923 0.0
H2118 H 0.22568 0.1367 0.34286 0.0
H2119 H 0.18807 0.13166 0.33526 0.0
C2120 C 0.28155 0.14121 0.37443 0.0
C2121 C 0.29353 0.1258 0.38478 0.0
C2122 C 0.25987 0.13737 0.36993 0.0
C2123 C 0.2498 0.11748 0.3746 0.0
C2124 C 0.2619 0.10252 0.38589 0.0
C2125 C 0.28326 0.10681 0.39123 0.0
C2126 C 0.19357 0.09174 0.37114 0.0
C2127 C 0.18339 0.10511 0.35667 0.0
C2128 C 0.21498 0.09549 0.37676 0.0
C2129 C 0.22714 0.11231 0.36749 0.0
C2130 C 0.21716 0.12432 0.35143 0.0
C2131 C 0.19554 0.12106 0.34647 0.0
H2132 H 0.3622 0.68603 0.88906 0.0
H2133 H 0.40161 0.69827 0.83443 0.0
H2134 H 0.36135 0.72372 0.89704 0.0
H2135 H 0.39921 0.73613 0.84052 0.0
H2136 H 0.39507 0.80446 0.85251 0.0
H2137 H 0.40381 0.76763 0.85366 0.0
H2138 H 0.34679 0.75434 0.89058 0.0
H2139 H 0.3395 0.79225 0.89111 0.0
C2140 C 0.37106 0.69694 0.87899 0.0
C2141 C 0.38218 0.68937 0.86127 0.0
C2142 C 0.37016 0.71877 0.88321 0.0
C2143 C 0.37966 0.7337 0.86926 0.0
C2144 C 0.39179 0.72572 0.8521 0.0
C2145 C 0.39324 0.70381 0.84838 0.0
C2146 C 0.3845 0.7937 0.86114 0.0
C2147 C 0.3664 0.80125 0.87151 0.0
C2148 C 0.38936 0.77221 0.86153 0.0
C2149 C 0.37581 0.7572 0.87159 0.0
C2150 C 0.35796 0.76498 0.88268 0.0
C2151 C 0.3535 0.78683 0.88289 0.0
H2152 H 0.69543 0.86467 0.41031 0.0
H2153 H 0.68962 0.85582 0.3421 0.0
H2154 H 0.73356 0.87274 0.4062 0.0
H2155 H 0.72733 0.86376 0.33807 0.0
H2156 H 0.79166 0.89656 0.33341 0.0
H2157 H 0.75315 0.89338 0.34042 0.0
H2158 H 0.76605 0.85593 0.39648 0.0
H2159 H 0.80396 0.85929 0.3895 0.0
C2160 C 0.70234 0.86395 0.39455 0.0
C2161 C 0.68948 0.85948 0.37659 0.0
C2162 C 0.72412 0.86881 0.39214 0.0
C2163 C 0.7334 0.86935 0.37172 0.0
C2164 C 0.72063 0.86409 0.35394 0.0
C2165 C 0.69903 0.85911 0.35634 0.0
C2166 C 0.78609 0.88792 0.34728 0.0
C2167 C 0.80051 0.87772 0.36064 0.0
C2168 C 0.76415 0.88598 0.35129 0.0
C2169 C 0.75652 0.87409 0.36887 0.0
C2170 C 0.77127 0.86519 0.38287 0.0
C2171 C 0.79298 0.8669 0.37873 0.0
H2172 H 0.6323 0.18652 0.84245 0.0
H2173 H 0.623 0.18579 0.91047 0.0
H2174 H 0.62293 0.22373 0.84123 0.0
H2175 H 0.61235 0.22303 0.90936 0.0
H2176 H 0.61766 0.29575 0.90107 0.0
H2177 H 0.62263 0.25798 0.90506 0.0
H2178 H 0.59491 0.24691 0.84246 0.0
H2179 H 0.59115 0.28546 0.8381 0.0
C2180 C 0.62854 0.19457 0.85725 0.0
C2181 C 0.6287 0.18345 0.87661 0.0
C2182 C 0.62263 0.21579 0.8565 0.0
C2183 C 0.61628 0.22648 0.87507 0.0
C2184 C 0.6172 0.21549 0.89467 0.0
C2185 C 0.62351 0.19419 0.89544 0.0
C2186 C 0.61233 0.28521 0.88824 0.0
C2187 C 0.60447 0.29354 0.86907 0.0
C2188 C 0.61505 0.26341 0.8906 0.0
C2189 C 0.60979 0.24921 0.87389 0.0
C2190 C 0.59991 0.2574 0.85542 0.0
C2191 C 0.59735 0.27944 0.85299 0.0
H2192 H 0.2981 0.83412 0.60334 0.0
H2193 H 0.30191 0.90269 0.60691 0.0
H2194 H 0.2595 0.83523 0.60302 0.0
H2195 H 0.26412 0.90432 0.60879 0.0
H2196 H 0.19365 0.90537 0.61916 0.0
H2197 H 0.23069 0.90498 0.60937 0.0
H2198 H 0.23083 0.83665 0.62088 0.0
H2199 H 0.19358 0.83745 0.62869 0.0
C2200 C 0.29055 0.84945 0.6037 0.0
C2201 C 0.30284 0.86828 0.6058 0.0
C2202 C 0.26824 0.85024 0.60427 0.0
C2203 C 0.25788 0.86983 0.60768 0.0
C2204 C 0.27059 0.88868 0.60695 0.0
C2205 C 0.29265 0.88786 0.60581 0.0
C2206 C 0.20193 0.89046 0.6199 0.0
C2207 C 0.19087 0.87152 0.62475 0.0
C2208 C 0.22344 0.88999 0.61409 0.0
C2209 C 0.23461 0.87058 0.61358 0.0
C2210 C 0.22339 0.85191 0.6199 0.0
C2211 C 0.20188 0.85237 0.62507 0.0
H2212 H 0.59252 0.68367 0.09686 0.0
H2213 H 0.61289 0.69359 0.16192 0.0
H2214 H 0.6001 0.72081 0.08904 0.0
H2215 H 0.61825 0.73156 0.15514 0.0
H2216 H 0.64756 0.79361 0.13623 0.0
H2217 H 0.64069 0.75574 0.14143 0.0
H2218 H 0.59561 0.7556 0.0888 0.0
H2219 H 0.6043 0.79287 0.08258 0.0
C2220 C 0.59767 0.69419 0.10978 0.0
C2221 C 0.60196 0.6859 0.13003 0.0
C2222 C 0.60213 0.71566 0.10532 0.0
C2223 C 0.6104 0.72962 0.12124 0.0
C2224 C 0.6129 0.72143 0.14205 0.0
C2225 C 0.60928 0.69972 0.14623 0.0
C2226 C 0.63676 0.78519 0.12536 0.0
C2227 C 0.62657 0.79618 0.10895 0.0
C2228 C 0.6323 0.76348 0.12865 0.0
C2229 C 0.61687 0.7523 0.11613 0.0
C2230 C 0.60762 0.7632 0.09889 0.0
C2231 C 0.61267 0.78475 0.09518 0.0
H2232 H 0.79444 0.1493 0.62727 0.0
H2233 H 0.79097 0.08052 0.62736 0.0
H2234 H 0.7568 0.15056 0.61933 0.0
H2235 H 0.75307 0.08151 0.61814 0.0
H2236 H 0.68179 0.09275 0.62597 0.0
H2237 H 0.7196 0.08829 0.62919 0.0
H2238 H 0.73058 0.14664 0.59392 0.0
H2239 H 0.69204 0.15185 0.59227 0.0
C2240 C 0.78545 0.13436 0.62572 0.0
C2241 C 0.79555 0.1148 0.62813 0.0
C2242 C 0.76387 0.13507 0.62067 0.0
C2243 C 0.7517 0.11619 0.61751 0.0
C2244 C 0.76175 0.09648 0.62054 0.0
C2245 C 0.78346 0.0958 0.62598 0.0
C2246 C 0.69226 0.10461 0.61875 0.0
C2247 C 0.68399 0.12298 0.60941 0.0
C2248 C 0.71411 0.10189 0.62039 0.0
C2249 C 0.72845 0.11734 0.61237 0.0
C2250 C 0.72009 0.13476 0.60106 0.0
C2251 C 0.698 0.13763 0.59971 0.0
H2252 H 0.37801 0.19028 0.14085 0.0
H2253 H 0.35026 0.19718 0.07813 0.0
H2254 H 0.38448 0.22819 0.14335 0.0
H2255 H 0.35722 0.23584 0.08042 0.0
H2256 H 0.34679 0.30348 0.10503 0.0
H2257 H 0.34468 0.26567 0.09836 0.0
H2258 H 0.4042 0.25824 0.13235 0.0
H2259 H 0.40601 0.29681 0.13952 0.0
C2260 C 0.37302 0.20001 0.1276 0.0
C2261 C 0.36304 0.19078 0.1095 0.0
C2262 C 0.37721 0.22182 0.12888 0.0
C2263 C 0.37146 0.23522 0.11214 0.0
C2264 C 0.36166 0.22602 0.09378 0.0
C2265 C 0.35761 0.20393 0.09241 0.0
C2266 C 0.35934 0.2938 0.11143 0.0
C2267 C 0.37625 0.30303 0.12344 0.0
C2268 C 0.35833 0.27206 0.10715 0.0
C2269 C 0.37417 0.25874 0.11482 0.0
C2270 C 0.39149 0.268 0.12645 0.0
C2271 C 0.3926 0.29003 0.13061 0.0
H2272 H 0.10842 0.40009 0.18483 0.0
H2273 H 0.09407 0.33324 0.19414 0.0
H2274 H 0.11434 0.40502 0.22277 0.0
H2275 H 0.09885 0.33818 0.23276 0.0
H2276 H 0.13559 0.34606 0.29431 0.0
H2277 H 0.12759 0.34315 0.25643 0.0
H2278 H 0.10289 0.40688 0.2575 0.0
H2279 H 0.11193 0.41004 0.29522 0.0
C2280 C 0.10582 0.38657 0.19527 0.0
C2281 C 0.10085 0.3663 0.18671 0.0
C2282 C 0.10919 0.38938 0.21708 0.0
C2283 C 0.10756 0.37194 0.23098 0.0
C2284 C 0.10092 0.35187 0.22249 0.0
C2285 C 0.09776 0.34903 0.20046 0.0
C2286 C 0.12899 0.35966 0.28629 0.0
C2287 C 0.12444 0.37829 0.29776 0.0
C2288 C 0.12394 0.35784 0.26462 0.0
C2289 C 0.11395 0.3745 0.25387 0.0
C2290 C 0.11055 0.39365 0.26512 0.0
C2291 C 0.1159 0.39558 0.28678 0.0
H2292 H 0.15611 0.60639 0.68198 0.0
H2293 H 0.08775 0.60845 0.67666 0.0
H2294 H 0.15326 0.6073 0.72084 0.0
H2295 H 0.08469 0.61205 0.71448 0.0
H2296 H 0.08152 0.61919 0.78507 0.0
H2297 H 0.0841 0.60721 0.74861 0.0
H2298 H 0.1494 0.63147 0.74656 0.0
H2299 H 0.1471 0.64147 0.78379 0.0
C2300 C 0.14047 0.60642 0.6892 0.0
C2301 C 0.12217 0.6077 0.67648 0.0
C2302 C 0.13875 0.60766 0.71148 0.0
C2303 C 0.1188 0.61104 0.72123 0.0
C2304 C 0.10044 0.60967 0.70823 0.0
C2305 C 0.10214 0.60756 0.68625 0.0
C2306 C 0.0963 0.62229 0.77667 0.0
C2307 C 0.11406 0.63136 0.78733 0.0
C2308 C 0.09791 0.61531 0.75554 0.0
C2309 C 0.11715 0.6179 0.74415 0.0
C2310 C 0.13451 0.62826 0.75464 0.0
C2311 C 0.13306 0.63462 0.77597 0.0
H2312 H 0.89602 0.64502 0.19576 0.0
H2313 H 0.8614 0.58576 0.18364 0.0
H2314 H 0.89393 0.63832 0.23414 0.0
H2315 H 0.86021 0.57846 0.22136 0.0
H2316 H 0.83281 0.589 0.28823 0.0
H2317 H 0.84111 0.58967 0.25028 0.0
H2318 H 0.90257 0.6195 0.2647 0.0
H2319 H 0.89367 0.61928 0.30235 0.0
C2320 C 0.8885 0.63035 0.20129 0.0
C2321 C 0.87859 0.61611 0.1868 0.0
C2322 C 0.8873 0.62639 0.22327 0.0
C2323 C 0.87645 0.60797 0.23101 0.0
C2324 C 0.86802 0.59312 0.2162 0.0
C2325 C 0.86889 0.59724 0.19448 0.0
C2326 C 0.8483 0.59501 0.28319 0.0
C2327 C 0.86275 0.60376 0.29807 0.0
C2328 C 0.85316 0.5955 0.26144 0.0
C2329 C 0.87253 0.60489 0.25424 0.0
C2330 C 0.8874 0.61251 0.26947 0.0
C2331 C 0.8825 0.61201 0.29111 0.0
H2332 H 0.87635 0.38758 0.80353 0.0
H2333 H 0.88536 0.32131 0.78841 0.0
H2334 H 0.86903 0.39506 0.76626 0.0
H2335 H 0.87918 0.32886 0.75054 0.0
H2336 H 0.83945 0.34051 0.69286 0.0
H2337 H 0.84839 0.33618 0.73018 0.0
H2338 H 0.88005 0.39829 0.73047 0.0
H2339 H 0.8709 0.40243 0.69275 0.0
C2340 C 0.87756 0.37477 0.79195 0.0
C2341 C 0.88151 0.35392 0.79865 0.0
C2342 C 0.87335 0.37905 0.77058 0.0
C2343 C 0.87308 0.36254 0.75539 0.0
C2344 C 0.87863 0.34187 0.76194 0.0
C2345 C 0.88255 0.33753 0.7835 0.0
C2346 C 0.84728 0.35374 0.70125 0.0
C2347 C 0.85409 0.37199 0.69009 0.0
C2348 C 0.85309 0.35096 0.72247 0.0
C2349 C 0.86556 0.36656 0.73323 0.0
C2350 C 0.87055 0.38585 0.72265 0.0
C2351 C 0.86489 0.38851 0.70118 0.0
H2352 H 0.69539 0.89068 0.58818 0.0
H2353 H 0.69567 0.82905 0.61815 0.0
H2354 H 0.73278 0.8959 0.59601 0.0
H2355 H 0.73249 0.83469 0.62799 0.0
H2356 H 0.80308 0.84511 0.63817 0.0
H2357 H 0.76637 0.83799 0.62896 0.0
H2358 H 0.75866 0.9055 0.61692 0.0
H2359 H 0.79642 0.91155 0.62371 0.0
C2360 C 0.70363 0.87808 0.59629 0.0
C2361 C 0.69251 0.85949 0.60263 0.0
C2362 C 0.72518 0.8813 0.60143 0.0
C2363 C 0.73624 0.86631 0.61374 0.0
C2364 C 0.72523 0.84698 0.61868 0.0
C2365 C 0.7038 0.84353 0.61294 0.0
C2366 C 0.79323 0.85846 0.63409 0.0
C2367 C 0.80241 0.87892 0.63198 0.0
C2368 C 0.7719 0.85441 0.62858 0.0
C2369 C 0.75882 0.87093 0.62139 0.0
C2370 C 0.76788 0.89188 0.62123 0.0
C2371 C 0.78954 0.89568 0.62585 0.0
H2372 H 0.58587 0.18423 0.11691 0.0
H2373 H 0.65392 0.19108 0.10849 0.0
H2374 H 0.58354 0.22175 0.12413 0.0
H2375 H 0.6519 0.22913 0.11689 0.0
H2376 H 0.63694 0.29964 0.11028 0.0
H2377 H 0.64245 0.262 0.10668 0.0
H2378 H 0.58824 0.24921 0.14744 0.0
H2379 H 0.58187 0.28751 0.14961 0.0
C2380 C 0.60048 0.19384 0.11666 0.0
C2381 C 0.62014 0.18458 0.11217 0.0
C2382 C 0.59917 0.2155 0.12122 0.0
C2383 C 0.61752 0.22878 0.12169 0.0
C2384 C 0.63727 0.21961 0.11665 0.0
C2385 C 0.63854 0.19775 0.1118 0.0
C2386 C 0.62617 0.28882 0.11856 0.0
C2387 C 0.60863 0.29655 0.12982 0.0
C2388 C 0.62953 0.26703 0.11669 0.0
C2389 C 0.6156 0.25216 0.12631 0.0
C2390 C 0.59895 0.26002 0.13909 0.0
C2391 C 0.59542 0.28201 0.14072 0.0
H2392 H 0.192 0.07408 0.63972 0.0
H2393 H 0.18197 0.14016 0.62541 0.0
H2394 H 0.23015 0.07931 0.63255 0.0
H2395 H 0.21919 0.14526 0.61664 0.0
H2396 H 0.29108 0.15299 0.6149 0.0
H2397 H 0.25397 0.14909 0.62519 0.0
H2398 H 0.25356 0.08299 0.60481 0.0
H2399 H 0.291 0.08676 0.59582 0.0
C2400 C 0.1981 0.08978 0.63543 0.0
C2401 C 0.18428 0.10679 0.63336 0.0
C2402 C 0.21985 0.09277 0.63084 0.0
C2403 C 0.22797 0.11269 0.62354 0.0
C2404 C 0.21397 0.12979 0.62243 0.0
C2405 C 0.1925 0.12688 0.62744 0.0
C2406 C 0.28289 0.13779 0.61216 0.0
C2407 C 0.29399 0.12021 0.60456 0.0
C2408 C 0.26151 0.13544 0.61818 0.0
C2409 C 0.25058 0.11553 0.61633 0.0
C2410 C 0.26144 0.09837 0.60728 0.0
C2411 C 0.28287 0.10065 0.60163 0.0
H2412 H 0.38169 0.7971 0.07913 0.0
H2413 H 0.32841 0.79683 0.12197 0.0
H2414 H 0.38966 0.76105 0.0892 0.0
H2415 H 0.33695 0.76113 0.13351 0.0
H2416 H 0.35126 0.6898 0.13905 0.0
H2417 H 0.34095 0.72612 0.13306 0.0
H2418 H 0.40567 0.74249 0.11451 0.0
H2419 H 0.41498 0.70535 0.11826 0.0
C2420 C 0.37107 0.78882 0.09006 0.0
C2421 C 0.35418 0.79955 0.09945 0.0
C2422 C 0.37616 0.76837 0.09663 0.0
C2423 C 0.36475 0.75818 0.11316 0.0
C2424 C 0.34645 0.76822 0.12097 0.0
C2425 C 0.34117 0.78866 0.11407 0.0
C2426 C 0.3635 0.70144 0.13462 0.0
C2427 C 0.38381 0.69471 0.12877 0.0
C2428 C 0.3575 0.72241 0.13081 0.0
C2429 C 0.37203 0.73731 0.12187 0.0
C2430 C 0.39348 0.7313 0.11988 0.0
C2431 C 0.39918 0.71011 0.12286 0.0
H2432 H 0.68368 0.14467 0.35311 0.0
H2433 H 0.69258 0.12156 0.41694 0.0
H2434 H 0.72021 0.13667 0.34463 0.0
H2435 H 0.72989 0.11533 0.40936 0.0
H2436 H 0.78306 0.07819 0.38809 0.0
H2437 H 0.74604 0.08794 0.39137 0.0
H2438 H 0.75655 0.13824 0.34541 0.0
H2439 H 0.79315 0.12733 0.34131 0.0
C2440 C 0.69399 0.13938 0.36585 0.0
C2441 C 0.68527 0.13343 0.38558 0.0
C2442 C 0.71494 0.13433 0.36085 0.0
C2443 C 0.72781 0.12414 0.37592 0.0
C2444 C 0.7201 0.12192 0.3969 0.0
C2445 C 0.69892 0.12631 0.40161 0.0
C2446 C 0.777 0.09039 0.37768 0.0
C2447 C 0.79095 0.10213 0.3646 0.0
C2448 C 0.75598 0.09661 0.38016 0.0
C2449 C 0.74858 0.11485 0.36974 0.0
C2450 C 0.76167 0.12445 0.35415 0.0
C2451 C 0.78264 0.1179 0.3514 0.0
H2452 H 0.3999 0.30007 0.88529 0.0
H2453 H 0.36372 0.29218 0.82692 0.0
H2454 H 0.39206 0.26359 0.89457 0.0
H2455 H 0.35717 0.25458 0.83525 0.0
H2456 H 0.33036 0.19364 0.86357 0.0
H2457 H 0.33726 0.23132 0.85582 0.0
H2458 H 0.39643 0.22895 0.89154 0.0
H2459 H 0.38857 0.19233 0.9004 0.0
C2460 C 0.3909 0.29022 0.87398 0.0
C2461 C 0.38233 0.29913 0.85546 0.0
C2462 C 0.38635 0.26905 0.8793 0.0
C2463 C 0.37357 0.2558 0.86593 0.0
C2464 C 0.36646 0.2643 0.8464 0.0
C2465 C 0.37069 0.28577 0.84128 0.0
C2466 C 0.34435 0.20155 0.87046 0.0
C2467 C 0.35894 0.19001 0.88261 0.0
C2468 C 0.34866 0.22306 0.86555 0.0
C2469 C 0.36774 0.23342 0.87253 0.0
C2470 C 0.38147 0.22202 0.88587 0.0
C2471 C 0.37699 0.20079 0.89102 0.0
H2472 H 0.19993 0.91198 0.34592 0.0
H2473 H 0.18345 0.84693 0.36167 0.0
H2474 H 0.2375 0.90444 0.34993 0.0
H2475 H 0.22114 0.83882 0.3652 0.0
H2476 H 0.28926 0.84021 0.39518 0.0
H2477 H 0.25106 0.84404 0.38761 0.0
H2478 H 0.26676 0.88829 0.33709 0.0
H2479 H 0.30393 0.8854 0.34536 0.0
C2480 C 0.2045 0.89579 0.34926 0.0
C2481 C 0.18896 0.87989 0.35278 0.0
C2482 C 0.22607 0.89137 0.35174 0.0
C2483 C 0.23259 0.8709 0.35791 0.0
C2484 C 0.21686 0.85478 0.36065 0.0
C2485 C 0.19528 0.85925 0.35811 0.0
C2486 C 0.28438 0.85064 0.38246 0.0
C2487 C 0.29962 0.86272 0.37113 0.0
C2488 C 0.26251 0.85281 0.37799 0.0
C2489 C 0.25564 0.86685 0.36192 0.0
C2490 C 0.27115 0.87793 0.35004 0.0
C2491 C 0.29266 0.87608 0.35471 0.0
H2492 H 0.6245 0.68852 0.8316 0.0
H2493 H 0.58236 0.68432 0.88552 0.0
H2494 H 0.63158 0.72617 0.8395 0.0
H2495 H 0.59064 0.72082 0.89469 0.0
H2496 H 0.59654 0.79178 0.90047 0.0
H2497 H 0.5886 0.75515 0.89186 0.0
H2498 H 0.64929 0.7509 0.85975 0.0
H2499 H 0.65614 0.78878 0.86689 0.0
C2500 C 0.61635 0.69578 0.84486 0.0
C2501 C 0.60278 0.68341 0.8579 0.0
C2502 C 0.62088 0.71732 0.84983 0.0
C2503 C 0.61217 0.72696 0.86813 0.0
C2504 C 0.59765 0.71463 0.88031 0.0
C2505 C 0.59282 0.69339 0.87508 0.0
C2506 C 0.60839 0.78297 0.89186 0.0
C2507 C 0.62684 0.79335 0.88419 0.0
C2508 C 0.60388 0.76162 0.8869 0.0
C2509 C 0.61802 0.74956 0.87462 0.0
C2510 C 0.63749 0.75956 0.86854 0.0
C2511 C 0.64177 0.78124 0.87312 0.0
H2512 H 0.90475 0.59719 0.79742 0.0
H2513 H 0.86314 0.65071 0.79378 0.0
H2514 H 0.89704 0.58831 0.76071 0.0
H2515 H 0.85644 0.64289 0.75615 0.0
H2516 H 0.83187 0.6148 0.69422 0.0
H2517 H 0.83838 0.62126 0.7322 0.0
H2518 H 0.90039 0.59324 0.72611 0.0
H2519 H 0.89301 0.58538 0.68921 0.0
C2520 C 0.89448 0.60755 0.78848 0.0
C2521 C 0.88453 0.6246 0.7986 0.0
C2522 C 0.89 0.60248 0.76719 0.0
C2523 C 0.87574 0.6146 0.7551 0.0
C2524 C 0.86697 0.63267 0.7649 0.0
C2525 C 0.87124 0.63755 0.78641 0.0
C2526 C 0.84651 0.60933 0.70132 0.0
C2527 C 0.86198 0.59969 0.68865 0.0
C2528 C 0.85054 0.6135 0.72304 0.0
C2529 C 0.87024 0.60836 0.7325 0.0
C2530 C 0.88496 0.59742 0.71991 0.0
C2531 C 0.88075 0.59291 0.69848 0.0
H2532 H 0.8219 0.36953 0.29325 0.0
H2533 H 0.88539 0.39754 0.29449 0.0
H2534 H 0.82716 0.35765 0.25691 0.0
H2535 H 0.89035 0.3872 0.25757 0.0
H2536 H 0.90439 0.35273 0.19776 0.0
H2537 H 0.89791 0.35973 0.23555 0.0
H2538 H 0.83019 0.36206 0.22213 0.0
H2539 H 0.83682 0.35316 0.18543 0.0
C2540 C 0.83666 0.37399 0.28539 0.0
C2541 C 0.85322 0.3844 0.29676 0.0
C2542 C 0.83985 0.36701 0.26444 0.0
C2543 C 0.85952 0.37079 0.25411 0.0
C2544 C 0.87533 0.38301 0.26503 0.0
C2545 C 0.87229 0.38952 0.28611 0.0
C2546 C 0.88813 0.35357 0.20333 0.0
C2547 C 0.87109 0.35221 0.18884 0.0
C2548 C 0.88434 0.3583 0.22487 0.0
C2549 C 0.86349 0.36231 0.2321 0.0
C2550 C 0.84646 0.35908 0.21766 0.0
C2551 C 0.85022 0.35383 0.19644 0.0
H2552 H 0.08196 0.34052 0.79134 0.0
H2553 H 0.13892 0.37927 0.80152 0.0
H2554 H 0.08755 0.34224 0.75305 0.0
H2555 H 0.14355 0.38311 0.76398 0.0
H2556 H 0.15192 0.38735 0.6932 0.0
H2557 H 0.15081 0.37867 0.73084 0.0
H2558 H 0.084 0.35997 0.72396 0.0
H2559 H 0.08599 0.36692 0.68674 0.0
C2560 C 0.09573 0.3493 0.78533 0.0
C2561 C 0.10975 0.36006 0.79935 0.0
C2562 C 0.0988 0.35084 0.76322 0.0
C2563 C 0.11566 0.36364 0.75468 0.0
C2564 C 0.13033 0.37313 0.76915 0.0
C2565 C 0.12753 0.37114 0.79102 0.0
C2566 C 0.13713 0.38128 0.69992 0.0
C2567 C 0.11916 0.37772 0.68691 0.0
C2568 C 0.13628 0.37635 0.72172 0.0
C2569 C 0.11726 0.36818 0.73115 0.0
C2570 C 0.09926 0.36533 0.71787 0.0
C2571 C 0.10028 0.36979 0.69622 0.0
H2572 H 0.151 0.63574 0.28704 0.0
H2573 H 0.11496 0.57676 0.27896 0.0
H2574 H 0.1401 0.64705 0.25188 0.0
H2575 H 0.10559 0.5869 0.24279 0.0
H2576 H 0.07511 0.6115 0.18648 0.0
H2577 H 0.08317 0.60744 0.22414 0.0
H2578 H 0.14011 0.64705 0.21632 0.0
H2579 H 0.13071 0.6524 0.17934 0.0
C2580 C 0.14161 0.62469 0.27723 0.0
C2581 C 0.13389 0.60532 0.28568 0.0
C2582 C 0.13511 0.63127 0.257 0.0
C2583 C 0.12125 0.61832 0.2444 0.0
C2584 C 0.11534 0.59794 0.25222 0.0
C2585 C 0.12124 0.59172 0.27275 0.0
C2586 C 0.08849 0.62054 0.19328 0.0
C2587 C 0.10232 0.6322 0.18 0.0
C2588 C 0.09369 0.61752 0.21474 0.0
C2589 C 0.11309 0.62577 0.22325 0.0
C2590 C 0.1252 0.64005 0.2106 0.0
C2591 C 0.1196 0.64352 0.1893 0.0
loop_
_geom_bond_atom_site_label_1
_geom_bond_atom_site_label_2
_geom_bond_distance
_geom_bond_site_symmetry_2
_ccdc_geom_bond_type
C0 O1 1.306 . S
C0 O3 1.160 . S
O1 C0 1.306 . S
O1 Cd2 2.228 . S
Cd2 O1 2.228 . S
Cd2 O6 2.273 . S
Cd2 O10 2.277 . S
O3 C0 1.160 . S
O3 Cd4 2.203 . S
Cd4 O3 2.203 . S
Cd4 O6 2.411 . S
Cd4 O7 2.333 . S
Cd4 O8 2.352 . S
Cd4 O12 2.277 . S
Cd4 O13 2.356 . S
C5 O10 1.209 . S
C5 O12 1.226 . S
O6 Cd2 2.273 . S
O6 Cd4 2.411 . S
O6 C9 1.320 . S
O7 Cd4 2.333 . S
O7 C9 1.214 . S
O8 Cd4 2.352 . S
O8 C11 1.258 . S
C9 O6 1.320 . S
C9 O7 1.214 . S
O10 Cd2 2.277 . S
O10 C5 1.209 . S
C11 O8 1.258 . S
C11 O13 1.282 . S
O12 Cd4 2.277 . S
O12 C5 1.226 . S
O13 Cd4 2.356 . S
O13 C11 1.282 . S
C14 O15 1.306 . S
C14 O17 1.160 . S
O15 C14 1.306 . S
O15 Cd16 2.228 . S
Cd16 O15 2.228 . S
Cd16 O20 2.273 . S
Cd16 O24 2.277 . S
O17 C14 1.160 . S
O17 Cd18 2.203 . S
Cd18 O17 2.203 . S
Cd18 O20 2.411 . S
Cd18 O21 2.333 . S
Cd18 O22 2.352 . S
Cd18 O26 2.277 . S
Cd18 O27 2.356 . S
C19 O24 1.209 . S
C19 O26 1.226 . S
O20 Cd16 2.273 . S
O20 Cd18 2.411 . S
O20 C23 1.320 . S
O21 Cd18 2.333 . S
O21 C23 1.214 . S
O22 Cd18 2.352 . S
O22 C25 1.258 . S
C23 O20 1.320 . S
C23 O21 1.214 . S
O24 Cd16 2.277 . S
O24 C19 1.209 . S
C25 O22 1.258 . S
C25 O27 1.282 . S
O26 Cd18 2.277 . S
O26 C19 1.226 . S
O27 Cd18 2.356 . S
O27 C25 1.282 . S
C28 O29 1.306 . S
C28 O31 1.160 . S
O29 C28 1.306 . S
O29 Cd30 2.228 . S
Cd30 O29 2.228 . S
Cd30 O34 2.273 . S
Cd30 O38 2.277 . S
O31 C28 1.160 . S
O31 Cd32 2.203 . S
Cd32 O31 2.203 . S
Cd32 O34 2.411 . S
Cd32 O35 2.333 . S
Cd32 O36 2.352 . S
Cd32 O40 2.277 . S
Cd32 O41 2.356 . S
C33 O38 1.209 . S
C33 O40 1.226 . S
O34 Cd30 2.273 . S
O34 Cd32 2.411 . S
O34 C37 1.320 . S
O35 Cd32 2.333 . S
O35 C37 1.214 . S
O36 Cd32 2.352 . S
O36 C39 1.258 . S
C37 O34 1.320 . S
C37 O35 1.214 . S
O38 Cd30 2.277 . S
O38 C33 1.209 . S
C39 O36 1.258 . S
C39 O41 1.282 . S
O40 Cd32 2.277 . S
O40 C33 1.226 . S
O41 Cd32 2.356 . S
O41 C39 1.282 . S
C42 O43 1.306 . S
C42 O45 1.160 . S
O43 C42 1.306 . S
O43 Cd44 2.228 . S
Cd44 O43 2.228 . S
Cd44 O48 2.273 . S
Cd44 O52 2.277 . S
O45 C42 1.160 . S
O45 Cd46 2.203 . S
Cd46 O45 2.203 . S
Cd46 O48 2.411 . S
Cd46 O49 2.333 . S
Cd46 O50 2.352 . S
Cd46 O54 2.277 . S
Cd46 O55 2.356 . S
C47 O52 1.209 . S
C47 O54 1.226 . S
O48 Cd44 2.273 . S
O48 Cd46 2.411 . S
O48 C51 1.320 . S
O49 Cd46 2.333 . S
O49 C51 1.214 . S
O50 Cd46 2.352 . S
O50 C53 1.258 . S
C51 O48 1.320 . S
C51 O49 1.214 . S
O52 Cd44 2.277 . S
O52 C47 1.209 . S
C53 O50 1.258 . S
C53 O55 1.282 . S
O54 Cd46 2.277 . S
O54 C47 1.226 . S
O55 Cd46 2.356 . S
O55 C53 1.282 . S
C56 O57 1.306 . S
C56 O59 1.160 . S
O57 C56 1.306 . S
O57 Cd58 2.228 . S
Cd58 O57 2.228 . S
Cd58 O62 2.273 . S
Cd58 O66 2.277 . S
O59 C56 1.160 . S
O59 Cd60 2.203 . S
Cd60 O59 2.203 . S
Cd60 O62 2.411 . S
Cd60 O63 2.333 . S
Cd60 O64 2.352 . S
Cd60 O68 2.277 . S
Cd60 O69 2.356 . S
C61 O66 1.209 . S
C61 O68 1.226 . S
O62 Cd58 2.273 . S
O62 Cd60 2.411 . S
O62 C65 1.320 . S
O63 Cd60 2.333 . S
O63 C65 1.214 . S
O64 Cd60 2.352 . S
O64 C67 1.258 . S
C65 O62 1.320 . S
C65 O63 1.214 . S
O66 Cd58 2.277 . S
O66 C61 1.209 . S
C67 O64 1.258 . S
C67 O69 1.282 . S
O68 Cd60 2.277 . S
O68 C61 1.226 . S
O69 Cd60 2.356 . S
O69 C67 1.282 . S
C70 O71 1.306 . S
C70 O73 1.160 . S
O71 C70 1.306 . S
O71 Cd72 2.228 . S
Cd72 O71 2.228 . S
Cd72 O76 2.273 . S
Cd72 O80 2.277 . S
O73 C70 1.160 . S
O73 Cd74 2.203 . S
Cd74 O73 2.203 . S
Cd74 O76 2.411 . S
Cd74 O77 2.333 . S
Cd74 O78 2.352 . S
Cd74 O82 2.277 . S
Cd74 O83 2.356 . S
C75 O80 1.209 . S
C75 O82 1.226 . S
O76 Cd72 2.273 . S
O76 Cd74 2.411 . S
O76 C79 1.320 . S
O77 Cd74 2.333 . S
O77 C79 1.214 . S
O78 Cd74 2.352 . S
O78 C81 1.258 . S
C79 O76 1.320 . S
C79 O77 1.214 . S
O80 Cd72 2.277 . S
O80 C75 1.209 . S
C81 O78 1.258 . S
C81 O83 1.282 . S
O82 Cd74 2.277 . S
O82 C75 1.226 . S
O83 Cd74 2.356 . S
O83 C81 1.282 . S
C84 O85 1.306 . S
C84 O87 1.160 . S
O85 C84 1.306 . S
O85 Cd86 2.228 . S
Cd86 O85 2.228 . S
Cd86 O90 2.273 . S
Cd86 O94 2.277 . S
O87 C84 1.160 . S
O87 Cd88 2.203 . S
Cd88 O87 2.203 . S
Cd88 O90 2.411 . S
Cd88 O91 2.333 . S
Cd88 O92 2.352 . S
Cd88 O96 2.277 . S
Cd88 O97 2.356 . S
C89 O94 1.209 . S
C89 O96 1.226 . S
O90 Cd86 2.273 . S
O90 Cd88 2.411 . S
O90 C93 1.320 . S
O91 Cd88 2.333 . S
O91 C93 1.214 . S
O92 Cd88 2.352 . S
O92 C95 1.258 . S
C93 O90 1.320 . S
C93 O91 1.214 . S
O94 Cd86 2.277 . S
O94 C89 1.209 . S
C95 O92 1.258 . S
C95 O97 1.282 . S
O96 Cd88 2.277 . S
O96 C89 1.226 . S
O97 Cd88 2.356 . S
O97 C95 1.282 . S
C98 O99 1.306 . S
C98 O101 1.160 . S
O99 C98 1.306 . S
O99 Cd100 2.228 . S
Cd100 O99 2.228 . S
Cd100 O104 2.273 . S
Cd100 O108 2.277 . S
O101 C98 1.160 . S
O101 Cd102 2.203 . S
Cd102 O101 2.203 . S
Cd102 O104 2.411 . S
Cd102 O105 2.333 . S
Cd102 O106 2.352 . S
Cd102 O110 2.277 . S
Cd102 O111 2.356 . S
C103 O108 1.209 . S
C103 O110 1.226 . S
O104 Cd100 2.273 . S
O104 Cd102 2.411 . S
O104 C107 1.320 . S
O105 Cd102 2.333 . S
O105 C107 1.214 . S
O106 Cd102 2.352 . S
O106 C109 1.258 . S
C107 O104 1.320 . S
C107 O105 1.214 . S
O108 Cd100 2.277 . S
O108 C103 1.209 . S
C109 O106 1.258 . S
C109 O111 1.282 . S
O110 Cd102 2.277 . S
O110 C103 1.226 . S
O111 Cd102 2.356 . S
O111 C109 1.282 . S
C112 O113 1.306 . S
C112 O115 1.160 . S
O113 C112 1.306 . S
O113 Cd114 2.228 . S
Cd114 O113 2.228 . S
Cd114 O118 2.273 . S
Cd114 O122 2.277 . S
O115 C112 1.160 . S
O115 Cd116 2.203 . S
Cd116 O115 2.203 . S
Cd116 O118 2.411 . S
Cd116 O119 2.333 . S
Cd116 O120 2.352 . S
Cd116 O124 2.277 . S
Cd116 O125 2.356 . S
C117 O122 1.209 . S
C117 O124 1.226 . S
O118 Cd114 2.273 . S
O118 Cd116 2.411 . S
O118 C121 1.320 . S
O119 Cd116 2.333 . S
O119 C121 1.214 . S
O120 Cd116 2.352 . S
O120 C123 1.258 . S
C121 O118 1.320 . S
C121 O119 1.214 . S
O122 Cd114 2.277 . S
O122 C117 1.209 . S
C123 O120 1.258 . S
C123 O125 1.282 . S
O124 Cd116 2.277 . S
O124 C117 1.226 . S
O125 Cd116 2.356 . S
O125 C123 1.282 . S
C126 O127 1.306 . S
C126 O129 1.160 . S
O127 C126 1.306 . S
O127 Cd128 2.228 . S
Cd128 O127 2.228 . S
Cd128 O132 2.273 . S
Cd128 O136 2.277 . S
O129 C126 1.160 . S
O129 Cd130 2.203 . S
Cd130 O129 2.203 . S
Cd130 O132 2.411 . S
Cd130 O133 2.333 . S
Cd130 O134 2.352 . S
Cd130 O138 2.277 . S
Cd130 O139 2.356 . S
C131 O136 1.209 . S
C131 O138 1.226 . S
O132 Cd128 2.273 . S
O132 Cd130 2.411 . S
O132 C135 1.320 . S
O133 Cd130 2.333 . S
O133 C135 1.214 . S
O134 Cd130 2.352 . S
O134 C137 1.258 . S
C135 O132 1.320 . S
C135 O133 1.214 . S
O136 Cd128 2.277 . S
O136 C131 1.209 . S
C137 O134 1.258 . S
C137 O139 1.282 . S
O138 Cd130 2.277 . S
O138 C131 1.226 . S
O139 Cd130 2.356 . S
O139 C137 1.282 . S
C140 O141 1.306 . S
C140 O143 1.160 . S
O141 C140 1.306 . S
O141 Cd142 2.228 . S
Cd142 O141 2.228 . S
Cd142 O146 2.273 . S
Cd142 O150 2.277 . S
O143 C140 1.160 . S
O143 Cd144 2.203 . S
Cd144 O143 2.203 . S
Cd144 O146 2.411 . S
Cd144 O147 2.333 . S
Cd144 O148 2.352 . S
Cd144 O152 2.277 . S
Cd144 O153 2.356 . S
C145 O150 1.209 . S
C145 O152 1.226 . S
O146 Cd142 2.273 . S
O146 Cd144 2.411 . S
O146 C149 1.320 . S
O147 Cd144 2.333 . S
O147 C149 1.214 . S
O148 Cd144 2.352 . S
O148 C151 1.258 . S
C149 O146 1.320 . S
C149 O147 1.214 . S
O150 Cd142 2.277 . S
O150 C145 1.209 . S
C151 O148 1.258 . S
C151 O153 1.282 . S
O152 Cd144 2.277 . S
O152 C145 1.226 . S
O153 Cd144 2.356 . S
O153 C151 1.282 . S
C154 O155 1.306 . S
C154 O157 1.160 . S
O155 C154 1.306 . S
O155 Cd156 2.228 . S
Cd156 O155 2.228 . S
Cd156 O160 2.273 . S
Cd156 O164 2.277 . S
O157 C154 1.160 . S
O157 Cd158 2.203 . S
Cd158 O157 2.203 . S
Cd158 O160 2.411 . S
Cd158 O161 2.333 . S
Cd158 O162 2.352 . S
Cd158 O166 2.277 . S
Cd158 O167 2.356 . S
C159 O164 1.209 . S
C159 O166 1.226 . S
O160 Cd156 2.273 . S
O160 Cd158 2.411 . S
O160 C163 1.320 . S
O161 Cd158 2.333 . S
O161 C163 1.214 . S
O162 Cd158 2.352 . S
O162 C165 1.258 . S
C163 O160 1.320 . S
C163 O161 1.214 . S
O164 Cd156 2.277 . S
O164 C159 1.209 . S
C165 O162 1.258 . S
C165 O167 1.282 . S
O166 Cd158 2.277 . S
O166 C159 1.226 . S
O167 Cd158 2.356 . S
O167 C165 1.282 . S
C168 O169 1.306 . S
C168 O171 1.160 . S
O169 C168 1.306 . S
O169 Cd170 2.228 . S
Cd170 O169 2.228 . S
Cd170 O174 2.273 . S
Cd170 O178 2.277 . S
O171 C168 1.160 . S
O171 Cd172 2.203 . S
Cd172 O171 2.203 . S
Cd172 O174 2.411 . S
Cd172 O175 2.333 . S
Cd172 O176 2.352 . S
Cd172 O180 2.277 . S
Cd172 O181 2.356 . S
C173 O178 1.209 . S
C173 O180 1.226 . S
O174 Cd170 2.273 . S
O174 Cd172 2.411 . S
O174 C177 1.320 . S
O175 Cd172 2.333 . S
O175 C177 1.214 . S
O176 Cd172 2.352 . S
O176 C179 1.258 . S
C177 O174 1.320 . S
C177 O175 1.214 . S
O178 Cd170 2.277 . S
O178 C173 1.209 . S
C179 O176 1.258 . S
C179 O181 1.282 . S
O180 Cd172 2.277 . S
O180 C173 1.226 . S
O181 Cd172 2.356 . S
O181 C179 1.282 . S
C182 O183 1.306 . S
C182 O185 1.160 . S
O183 C182 1.306 . S
O183 Cd184 2.228 . S
Cd184 O183 2.228 . S
Cd184 O188 2.273 . S
Cd184 O192 2.277 . S
O185 C182 1.160 . S
O185 Cd186 2.203 . S
Cd186 O185 2.203 . S
Cd186 O188 2.411 . S
Cd186 O189 2.333 . S
Cd186 O190 2.352 . S
Cd186 O194 2.277 . S
Cd186 O195 2.356 . S
C187 O192 1.209 . S
C187 O194 1.226 . S
O188 Cd184 2.273 . S
O188 Cd186 2.411 . S
O188 C191 1.320 . S
O189 Cd186 2.333 . S
O189 C191 1.214 . S
O190 Cd186 2.352 . S
O190 C193 1.258 . S
C191 O188 1.320 . S
C191 O189 1.214 . S
O192 Cd184 2.277 . S
O192 C187 1.209 . S
C193 O190 1.258 . S
C193 O195 1.282 . S
O194 Cd186 2.277 . S
O194 C187 1.226 . S
O195 Cd186 2.356 . S
O195 C193 1.282 . S
C196 O197 1.306 . S
C196 O199 1.160 . S
O197 C196 1.306 . S
O197 Cd198 2.228 . S
Cd198 O197 2.228 . S
Cd198 O202 2.273 . S
Cd198 O206 2.277 . S
O199 C196 1.160 . S
O199 Cd200 2.203 . S
Cd200 O199 2.203 . S
Cd200 O202 2.411 . S
Cd200 O203 2.333 . S
Cd200 O204 2.352 . S
Cd200 O208 2.277 . S
Cd200 O209 2.356 . S
C201 O206 1.209 . S
C201 O208 1.226 . S
O202 Cd198 2.273 . S
O202 Cd200 2.411 . S
O202 C205 1.320 . S
O203 Cd200 2.333 . S
O203 C205 1.214 . S
O204 Cd200 2.352 . S
O204 C207 1.258 . S
C205 O202 1.320 . S
C205 O203 1.214 . S
O206 Cd198 2.277 . S
O206 C201 1.209 . S
C207 O204 1.258 . S
C207 O209 1.282 . S
O208 Cd200 2.277 . S
O208 C201 1.226 . S
O209 Cd200 2.356 . S
O209 C207 1.282 . S
C210 O211 1.306 . S
C210 O213 1.160 . S
O211 C210 1.306 . S
O211 Cd212 2.228 . S
Cd212 O211 2.228 . S
Cd212 O216 2.273 . S
Cd212 O220 2.277 . S
O213 C210 1.160 . S
O213 Cd214 2.203 . S
Cd214 O213 2.203 . S
Cd214 O216 2.411 . S
Cd214 O217 2.333 . S
Cd214 O218 2.352 . S
Cd214 O222 2.277 . S
Cd214 O223 2.356 . S
C215 O220 1.209 . S
C215 O222 1.226 . S
O216 Cd212 2.273 . S
O216 Cd214 2.411 . S
O216 C219 1.320 . S
O217 Cd214 2.333 . S
O217 C219 1.214 . S
O218 Cd214 2.352 . S
O218 C221 1.258 . S
C219 O216 1.320 . S
C219 O217 1.214 . S
O220 Cd212 2.277 . S
O220 C215 1.209 . S
C221 O218 1.258 . S
C221 O223 1.282 . S
O222 Cd214 2.277 . S
O222 C215 1.226 . S
O223 Cd214 2.356 . S
O223 C221 1.282 . S
C224 O225 1.306 . S
C224 O227 1.160 . S
O225 C224 1.306 . S
O225 Cd226 2.228 . S
Cd226 O225 2.228 . S
Cd226 O230 2.273 . S
Cd226 O234 2.277 . S
O227 C224 1.160 . S
O227 Cd228 2.203 . S
Cd228 O227 2.203 . S
Cd228 O230 2.411 . S
Cd228 O231 2.333 . S
Cd228 O232 2.352 . S
Cd228 O236 2.277 . S
Cd228 O237 2.356 . S
C229 O234 1.209 . S
C229 O236 1.226 . S
O230 Cd226 2.273 . S
O230 Cd228 2.411 . S
O230 C233 1.320 . S
O231 Cd228 2.333 . S
O231 C233 1.214 . S
O232 Cd228 2.352 . S
O232 C235 1.258 . S
C233 O230 1.320 . S
C233 O231 1.214 . S
O234 Cd226 2.277 . S
O234 C229 1.209 . S
C235 O232 1.258 . S
C235 O237 1.282 . S
O236 Cd228 2.277 . S
O236 C229 1.226 . S
O237 Cd228 2.356 . S
O237 C235 1.282 . S
C238 O239 1.306 . S
C238 O241 1.160 . S
O239 C238 1.306 . S
O239 Cd240 2.228 . S
Cd240 O239 2.228 . S
Cd240 O244 2.273 . S
Cd240 O248 2.277 . S
O241 C238 1.160 . S
O241 Cd242 2.203 . S
Cd242 O241 2.203 . S
Cd242 O244 2.411 . S
Cd242 O245 2.333 . S
Cd242 O246 2.352 . S
Cd242 O250 2.277 . S
Cd242 O251 2.356 . S
C243 O248 1.209 . S
C243 O250 1.226 . S
O244 Cd240 2.273 . S
O244 Cd242 2.411 . S
O244 C247 1.320 . S
O245 Cd242 2.333 . S
O245 C247 1.214 . S
O246 Cd242 2.352 . S
O246 C249 1.258 . S
C247 O244 1.320 . S
C247 O245 1.214 . S
O248 Cd240 2.277 . S
O248 C243 1.209 . S
C249 O246 1.258 . S
C249 O251 1.282 . S
O250 Cd242 2.277 . S
O250 C243 1.226 . S
O251 Cd242 2.356 . S
O251 C249 1.282 . S
C252 O253 1.306 . S
C252 O255 1.160 . S
O253 C252 1.306 . S
O253 Cd254 2.228 . S
Cd254 O253 2.228 . S
Cd254 O258 2.273 . S
Cd254 O262 2.277 . S
O255 C252 1.160 . S
O255 Cd256 2.203 . S
Cd256 O255 2.203 . S
Cd256 O258 2.411 . S
Cd256 O259 2.333 . S
Cd256 O260 2.352 . S
Cd256 O264 2.277 . S
Cd256 O265 2.356 . S
C257 O262 1.209 . S
C257 O264 1.226 . S
O258 Cd254 2.273 . S
O258 Cd256 2.411 . S
O258 C261 1.320 . S
O259 Cd256 2.333 . S
O259 C261 1.214 . S
O260 Cd256 2.352 . S
O260 C263 1.258 . S
C261 O258 1.320 . S
C261 O259 1.214 . S
O262 Cd254 2.277 . S
O262 C257 1.209 . S
C263 O260 1.258 . S
C263 O265 1.282 . S
O264 Cd256 2.277 . S
O264 C257 1.226 . S
O265 Cd256 2.356 . S
O265 C263 1.282 . S
C266 O267 1.306 . S
C266 O269 1.160 . S
O267 C266 1.306 . S
O267 Cd268 2.228 . S
Cd268 O267 2.228 . S
Cd268 O272 2.273 . S
Cd268 O276 2.277 . S
O269 C266 1.160 . S
O269 Cd270 2.203 . S
Cd270 O269 2.203 . S
Cd270 O272 2.411 . S
Cd270 O273 2.333 . S
Cd270 O274 2.352 . S
Cd270 O278 2.277 . S
Cd270 O279 2.356 . S
C271 O276 1.209 . S
C271 O278 1.226 . S
O272 Cd268 2.273 . S
O272 Cd270 2.411 . S
O272 C275 1.320 . S
O273 Cd270 2.333 . S
O273 C275 1.214 . S
O274 Cd270 2.352 . S
O274 C277 1.258 . S
C275 O272 1.320 . S
C275 O273 1.214 . S
O276 Cd268 2.277 . S
O276 C271 1.209 . S
C277 O274 1.258 . S
C277 O279 1.282 . S
O278 Cd270 2.277 . S
O278 C271 1.226 . S
O279 Cd270 2.356 . S
O279 C277 1.282 . S
C280 O281 1.306 . S
C280 O283 1.160 . S
O281 C280 1.306 . S
O281 Cd282 2.228 . S
Cd282 O281 2.228 . S
Cd282 O286 2.273 . S
Cd282 O290 2.277 . S
O283 C280 1.160 . S
O283 Cd284 2.203 . S
Cd284 O283 2.203 . S
Cd284 O286 2.411 . S
Cd284 O287 2.333 . S
Cd284 O288 2.352 . S
Cd284 O292 2.277 . S
Cd284 O293 2.356 . S
C285 O290 1.209 . S
C285 O292 1.226 . S
O286 Cd282 2.273 . S
O286 Cd284 2.411 . S
O286 C289 1.320 . S
O287 Cd284 2.333 . S
O287 C289 1.214 . S
O288 Cd284 2.352 . S
O288 C291 1.258 . S
C289 O286 1.320 . S
C289 O287 1.214 . S
O290 Cd282 2.277 . S
O290 C285 1.209 . S
C291 O288 1.258 . S
C291 O293 1.282 . S
O292 Cd284 2.277 . S
O292 C285 1.226 . S
O293 Cd284 2.356 . S
O293 C291 1.282 . S
C294 O295 1.306 . S
C294 O297 1.160 . S
O295 C294 1.306 . S
O295 Cd296 2.228 . S
Cd296 O295 2.228 . S
Cd296 O300 2.273 . S
Cd296 O304 2.277 . S
O297 C294 1.160 . S
O297 Cd298 2.203 . S
Cd298 O297 2.203 . S
Cd298 O300 2.411 . S
Cd298 O301 2.333 . S
Cd298 O302 2.352 . S
Cd298 O306 2.277 . S
Cd298 O307 2.356 . S
C299 O304 1.209 . S
C299 O306 1.226 . S
O300 Cd296 2.273 . S
O300 Cd298 2.411 . S
O300 C303 1.320 . S
O301 Cd298 2.333 . S
O301 C303 1.214 . S
O302 Cd298 2.352 . S
O302 C305 1.258 . S
C303 O300 1.320 . S
C303 O301 1.214 . S
O304 Cd296 2.277 . S
O304 C299 1.209 . S
C305 O302 1.258 . S
C305 O307 1.282 . S
O306 Cd298 2.277 . S
O306 C299 1.226 . S
O307 Cd298 2.356 . S
O307 C305 1.282 . S
C308 O309 1.306 . S
C308 O311 1.160 . S
O309 C308 1.306 . S
O309 Cd310 2.228 . S
Cd310 O309 2.228 . S
Cd310 O314 2.273 . S
Cd310 O318 2.277 . S
O311 C308 1.160 . S
O311 Cd312 2.203 . S
Cd312 O311 2.203 . S
Cd312 O314 2.411 . S
Cd312 O315 2.333 . S
Cd312 O316 2.352 . S
Cd312 O320 2.277 . S
Cd312 O321 2.356 . S
C313 O318 1.209 . S
C313 O320 1.226 . S
O314 Cd310 2.273 . S
O314 Cd312 2.411 . S
O314 C317 1.320 . S
O315 Cd312 2.333 . S
O315 C317 1.214 . S
O316 Cd312 2.352 . S
O316 C319 1.258 . S
C317 O314 1.320 . S
C317 O315 1.214 . S
O318 Cd310 2.277 . S
O318 C313 1.209 . S
C319 O316 1.258 . S
C319 O321 1.282 . S
O320 Cd312 2.277 . S
O320 C313 1.226 . S
O321 Cd312 2.356 . S
O321 C319 1.282 . S
C322 O323 1.306 . S
C322 O325 1.160 . S
O323 C322 1.306 . S
O323 Cd324 2.228 . S
Cd324 O323 2.228 . S
Cd324 O328 2.273 . S
Cd324 O332 2.277 . S
O325 C322 1.160 . S
O325 Cd326 2.203 . S
Cd326 O325 2.203 . S
Cd326 O328 2.411 . S
Cd326 O329 2.333 . S
Cd326 O330 2.352 . S
Cd326 O334 2.277 . S
Cd326 O335 2.356 . S
C327 O332 1.209 . S
C327 O334 1.226 . S
O328 Cd324 2.273 . S
O328 Cd326 2.411 . S
O328 C331 1.320 . S
O329 Cd326 2.333 . S
O329 C331 1.214 . S
O330 Cd326 2.352 . S
O330 C333 1.258 . S
C331 O328 1.320 . S
C331 O329 1.214 . S
O332 Cd324 2.277 . S
O332 C327 1.209 . S
C333 O330 1.258 . S
C333 O335 1.282 . S
O334 Cd326 2.277 . S
O334 C327 1.226 . S
O335 Cd326 2.356 . S
O335 C333 1.282 . S
C336 O337 1.306 . S
C336 O339 1.160 . S
O337 C336 1.306 . S
O337 Cd338 2.228 . S
Cd338 O337 2.228 . S
Cd338 O342 2.273 . S
Cd338 O346 2.277 . S
O339 C336 1.160 . S
O339 Cd340 2.203 . S
Cd340 O339 2.203 . S
Cd340 O342 2.411 . S
Cd340 O343 2.333 . S
Cd340 O344 2.352 . S
Cd340 O348 2.277 . S
Cd340 O349 2.356 . S
C341 O346 1.209 . S
C341 O348 1.226 . S
O342 Cd338 2.273 . S
O342 Cd340 2.411 . S
O342 C345 1.320 . S
O343 Cd340 2.333 . S
O343 C345 1.214 . S
O344 Cd340 2.352 . S
O344 C347 1.258 . S
C345 O342 1.320 . S
C345 O343 1.214 . S
O346 Cd338 2.277 . S
O346 C341 1.209 . S
C347 O344 1.258 . S
C347 O349 1.282 . S
O348 Cd340 2.277 . S
O348 C341 1.226 . S
O349 Cd340 2.356 . S
O349 C347 1.282 . S
C350 O351 1.306 . S
C350 O353 1.160 . S
O351 C350 1.306 . S
O351 Cd352 2.228 . S
Cd352 O351 2.228 . S
Cd352 O356 2.273 . S
Cd352 O360 2.277 . S
O353 C350 1.160 . S
O353 Cd354 2.203 . S
Cd354 O353 2.203 . S
Cd354 O356 2.411 . S
Cd354 O357 2.333 . S
Cd354 O358 2.352 . S
Cd354 O362 2.277 . S
Cd354 O363 2.356 . S
C355 O360 1.209 . S
C355 O362 1.226 . S
O356 Cd352 2.273 . S
O356 Cd354 2.411 . S
O356 C359 1.320 . S
O357 Cd354 2.333 . S
O357 C359 1.214 . S
O358 Cd354 2.352 . S
O358 C361 1.258 . S
C359 O356 1.320 . S
C359 O357 1.214 . S
O360 Cd352 2.277 . S
O360 C355 1.209 . S
C361 O358 1.258 . S
C361 O363 1.282 . S
O362 Cd354 2.277 . S
O362 C355 1.226 . S
O363 Cd354 2.356 . S
O363 C361 1.282 . S
C364 O365 1.306 . S
C364 O367 1.160 . S
O365 C364 1.306 . S
O365 Cd366 2.228 . S
Cd366 O365 2.228 . S
Cd366 O370 2.273 . S
Cd366 O374 2.277 . S
O367 C364 1.160 . S
O367 Cd368 2.203 . S
Cd368 O367 2.203 . S
Cd368 O370 2.411 . S
Cd368 O371 2.333 . S
Cd368 O372 2.352 . S
Cd368 O376 2.277 . S
Cd368 O377 2.356 . S
C369 O374 1.209 . S
C369 O376 1.226 . S
O370 Cd366 2.273 . S
O370 Cd368 2.411 . S
O370 C373 1.320 . S
O371 Cd368 2.333 . S
O371 C373 1.214 . S
O372 Cd368 2.352 . S
O372 C375 1.258 . S
C373 O370 1.320 . S
C373 O371 1.214 . S
O374 Cd366 2.277 . S
O374 C369 1.209 . S
C375 O372 1.258 . S
C375 O377 1.282 . S
O376 Cd368 2.277 . S
O376 C369 1.226 . S
O377 Cd368 2.356 . S
O377 C375 1.282 . S
C378 O379 1.306 . S
C378 O381 1.160 . S
O379 C378 1.306 . S
O379 Cd380 2.228 . S
Cd380 O379 2.228 . S
Cd380 O384 2.273 . S
Cd380 O388 2.277 . S
O381 C378 1.160 . S
O381 Cd382 2.203 . S
Cd382 O381 2.203 . S
Cd382 O384 2.411 . S
Cd382 O385 2.333 . S
Cd382 O386 2.352 . S
Cd382 O390 2.277 . S
Cd382 O391 2.356 . S
C383 O388 1.209 . S
C383 O390 1.226 . S
O384 Cd380 2.273 . S
O384 Cd382 2.411 . S
O384 C387 1.320 . S
O385 Cd382 2.333 . S
O385 C387 1.214 . S
O386 Cd382 2.352 . S
O386 C389 1.258 . S
C387 O384 1.320 . S
C387 O385 1.214 . S
O388 Cd380 2.277 . S
O388 C383 1.209 . S
C389 O386 1.258 . S
C389 O391 1.282 . S
O390 Cd382 2.277 . S
O390 C383 1.226 . S
O391 Cd382 2.356 . S
O391 C389 1.282 . S
C392 O393 1.306 . S
C392 O395 1.160 . S
O393 C392 1.306 . S
O393 Cd394 2.228 . S
Cd394 O393 2.228 . S
Cd394 O398 2.273 . S
Cd394 O402 2.277 . S
O395 C392 1.160 . S
O395 Cd396 2.203 . S
Cd396 O395 2.203 . S
Cd396 O398 2.411 . S
Cd396 O399 2.333 . S
Cd396 O400 2.352 . S
Cd396 O404 2.277 . S
Cd396 O405 2.356 . S
C397 O402 1.209 . S
C397 O404 1.226 . S
O398 Cd394 2.273 . S
O398 Cd396 2.411 . S
O398 C401 1.320 . S
O399 Cd396 2.333 . S
O399 C401 1.214 . S
O400 Cd396 2.352 . S
O400 C403 1.258 . S
C401 O398 1.320 . S
C401 O399 1.214 . S
O402 Cd394 2.277 . S
O402 C397 1.209 . S
C403 O400 1.258 . S
C403 O405 1.282 . S
O404 Cd396 2.277 . S
O404 C397 1.226 . S
O405 Cd396 2.356 . S
O405 C403 1.282 . S
C406 O407 1.306 . S
C406 O409 1.160 . S
O407 C406 1.306 . S
O407 Cd408 2.228 . S
Cd408 O407 2.228 . S
Cd408 O412 2.273 . S
Cd408 O416 2.277 . S
O409 C406 1.160 . S
O409 Cd410 2.203 . S
Cd410 O409 2.203 . S
Cd410 O412 2.411 . S
Cd410 O413 2.333 . S
Cd410 O414 2.352 . S
Cd410 O418 2.277 . S
Cd410 O419 2.356 . S
C411 O416 1.209 . S
C411 O418 1.226 . S
O412 Cd408 2.273 . S
O412 Cd410 2.411 . S
O412 C415 1.320 . S
O413 Cd410 2.333 . S
O413 C415 1.214 . S
O414 Cd410 2.352 . S
O414 C417 1.258 . S
C415 O412 1.320 . S
C415 O413 1.214 . S
O416 Cd408 2.277 . S
O416 C411 1.209 . S
C417 O414 1.258 . S
C417 O419 1.282 . S
O418 Cd410 2.277 . S
O418 C411 1.226 . S
O419 Cd410 2.356 . S
O419 C417 1.282 . S
C420 O421 1.306 . S
C420 O423 1.160 . S
O421 C420 1.306 . S
O421 Cd422 2.228 . S
Cd422 O421 2.228 . S
Cd422 O426 2.273 . S
Cd422 O430 2.277 . S
O423 C420 1.160 . S
O423 Cd424 2.203 . S
Cd424 O423 2.203 . S
Cd424 O426 2.411 . S
Cd424 O427 2.333 . S
Cd424 O428 2.352 . S
Cd424 O432 2.277 . S
Cd424 O433 2.356 . S
C425 O430 1.209 . S
C425 O432 1.226 . S
O426 Cd422 2.273 . S
O426 Cd424 2.411 . S
O426 C429 1.320 . S
O427 Cd424 2.333 . S
O427 C429 1.214 . S
O428 Cd424 2.352 . S
O428 C431 1.258 . S
C429 O426 1.320 . S
C429 O427 1.214 . S
O430 Cd422 2.277 . S
O430 C425 1.209 . S
C431 O428 1.258 . S
C431 O433 1.282 . S
O432 Cd424 2.277 . S
O432 C425 1.226 . S
O433 Cd424 2.356 . S
O433 C431 1.282 . S
C434 O435 1.306 . S
C434 O437 1.160 . S
O435 C434 1.306 . S
O435 Cd436 2.228 . S
Cd436 O435 2.228 . S
Cd436 O440 2.273 . S
Cd436 O444 2.277 . S
O437 C434 1.160 . S
O437 Cd438 2.203 . S
Cd438 O437 2.203 . S
Cd438 O440 2.411 . S
Cd438 O441 2.333 . S
Cd438 O442 2.352 . S
Cd438 O446 2.277 . S
Cd438 O447 2.356 . S
C439 O444 1.209 . S
C439 O446 1.226 . S
O440 Cd436 2.273 . S
O440 Cd438 2.411 . S
O440 C443 1.320 . S
O441 Cd438 2.333 . S
O441 C443 1.214 . S
O442 Cd438 2.352 . S
O442 C445 1.258 . S
C443 O440 1.320 . S
C443 O441 1.214 . S
O444 Cd436 2.277 . S
O444 C439 1.209 . S
C445 O442 1.258 . S
C445 O447 1.282 . S
O446 Cd438 2.277 . S
O446 C439 1.226 . S
O447 Cd438 2.356 . S
O447 C445 1.282 . S
C448 O449 1.306 . S
C448 O451 1.160 . S
O449 C448 1.306 . S
O449 Cd450 2.228 . S
Cd450 O449 2.228 . S
Cd450 O454 2.273 . S
Cd450 O458 2.277 . S
O451 C448 1.160 . S
O451 Cd452 2.203 . S
Cd452 O451 2.203 . S
Cd452 O454 2.411 . S
Cd452 O455 2.333 . S
Cd452 O456 2.352 . S
Cd452 O460 2.277 . S
Cd452 O461 2.356 . S
C453 O458 1.209 . S
C453 O460 1.226 . S
O454 Cd450 2.273 . S
O454 Cd452 2.411 . S
O454 C457 1.320 . S
O455 Cd452 2.333 . S
O455 C457 1.214 . S
O456 Cd452 2.352 . S
O456 C459 1.258 . S
C457 O454 1.320 . S
C457 O455 1.214 . S
O458 Cd450 2.277 . S
O458 C453 1.209 . S
C459 O456 1.258 . S
C459 O461 1.282 . S
O460 Cd452 2.277 . S
O460 C453 1.226 . S
O461 Cd452 2.356 . S
O461 C459 1.282 . S
C462 O463 1.306 . S
C462 O465 1.160 . S
O463 C462 1.306 . S
O463 Cd464 2.228 . S
Cd464 O463 2.228 . S
Cd464 O468 2.273 . S
Cd464 O472 2.277 . S
O465 C462 1.160 . S
O465 Cd466 2.203 . S
Cd466 O465 2.203 . S
Cd466 O468 2.411 . S
Cd466 O469 2.333 . S
Cd466 O470 2.352 . S
Cd466 O474 2.277 . S
Cd466 O475 2.356 . S
C467 O472 1.209 . S
C467 O474 1.226 . S
O468 Cd464 2.273 . S
O468 Cd466 2.411 . S
O468 C471 1.320 . S
O469 Cd466 2.333 . S
O469 C471 1.214 . S
O470 Cd466 2.352 . S
O470 C473 1.258 . S
C471 O468 1.320 . S
C471 O469 1.214 . S
O472 Cd464 2.277 . S
O472 C467 1.209 . S
C473 O470 1.258 . S
C473 O475 1.282 . S
O474 Cd466 2.277 . S
O474 C467 1.226 . S
O475 Cd466 2.356 . S
O475 C473 1.282 . S
C476 O477 1.306 . S
C476 O479 1.160 . S
O477 C476 1.306 . S
O477 Cd478 2.228 . S
Cd478 O477 2.228 . S
Cd478 O482 2.273 . S
Cd478 O486 2.277 . S
O479 C476 1.160 . S
O479 Cd480 2.203 . S
Cd480 O479 2.203 . S
Cd480 O482 2.411 . S
Cd480 O483 2.333 . S
Cd480 O484 2.352 . S
Cd480 O488 2.277 . S
Cd480 O489 2.356 . S
C481 O486 1.209 . S
C481 O488 1.226 . S
O482 Cd478 2.273 . S
O482 Cd480 2.411 . S
O482 C485 1.320 . S
O483 Cd480 2.333 . S
O483 C485 1.214 . S
O484 Cd480 2.352 . S
O484 C487 1.258 . S
C485 O482 1.320 . S
C485 O483 1.214 . S
O486 Cd478 2.277 . S
O486 C481 1.209 . S
C487 O484 1.258 . S
C487 O489 1.282 . S
O488 Cd480 2.277 . S
O488 C481 1.226 . S
O489 Cd480 2.356 . S
O489 C487 1.282 . S
C490 O491 1.306 . S
C490 O493 1.160 . S
O491 C490 1.306 . S
O491 Cd492 2.228 . S
Cd492 O491 2.228 . S
Cd492 O496 2.273 . S
Cd492 O500 2.277 . S
O493 C490 1.160 . S
O493 Cd494 2.203 . S
Cd494 O493 2.203 . S
Cd494 O496 2.411 . S
Cd494 O497 2.333 . S
Cd494 O498 2.352 . S
Cd494 O502 2.277 . S
Cd494 O503 2.356 . S
C495 O500 1.209 . S
C495 O502 1.226 . S
O496 Cd492 2.273 . S
O496 Cd494 2.411 . S
O496 C499 1.320 . S
O497 Cd494 2.333 . S
O497 C499 1.214 . S
O498 Cd494 2.352 . S
O498 C501 1.258 . S
C499 O496 1.320 . S
C499 O497 1.214 . S
O500 Cd492 2.277 . S
O500 C495 1.209 . S
C501 O498 1.258 . S
C501 O503 1.282 . S
O502 Cd494 2.277 . S
O502 C495 1.226 . S
O503 Cd494 2.356 . S
O503 C501 1.282 . S
C504 O505 1.306 . S
C504 O507 1.160 . S
O505 C504 1.306 . S
O505 Cd506 2.228 . S
Cd506 O505 2.228 . S
Cd506 O510 2.273 . S
Cd506 O514 2.277 . S
O507 C504 1.160 . S
O507 Cd508 2.203 . S
Cd508 O507 2.203 . S
Cd508 O510 2.411 . S
Cd508 O511 2.333 . S
Cd508 O512 2.352 . S
Cd508 O516 2.277 . S
Cd508 O517 2.356 . S
C509 O514 1.209 . S
C509 O516 1.226 . S
O510 Cd506 2.273 . S
O510 Cd508 2.411 . S
O510 C513 1.320 . S
O511 Cd508 2.333 . S
O511 C513 1.214 . S
O512 Cd508 2.352 . S
O512 C515 1.258 . S
C513 O510 1.320 . S
C513 O511 1.214 . S
O514 Cd506 2.277 . S
O514 C509 1.209 . S
C515 O512 1.258 . S
C515 O517 1.282 . S
O516 Cd508 2.277 . S
O516 C509 1.226 . S
O517 Cd508 2.356 . S
O517 C515 1.282 . S
C518 O519 1.306 . S
C518 O521 1.160 . S
O519 C518 1.306 . S
O519 Cd520 2.228 . S
Cd520 O519 2.228 . S
Cd520 O524 2.273 . S
Cd520 O528 2.277 . S
O521 C518 1.160 . S
O521 Cd522 2.203 . S
Cd522 O521 2.203 . S
Cd522 O524 2.411 . S
Cd522 O525 2.333 . S
Cd522 O526 2.352 . S
Cd522 O530 2.277 . S
Cd522 O531 2.356 . S
C523 O528 1.209 . S
C523 O530 1.226 . S
O524 Cd520 2.273 . S
O524 Cd522 2.411 . S
O524 C527 1.320 . S
O525 Cd522 2.333 . S
O525 C527 1.214 . S
O526 Cd522 2.352 . S
O526 C529 1.258 . S
C527 O524 1.320 . S
C527 O525 1.214 . S
O528 Cd520 2.277 . S
O528 C523 1.209 . S
C529 O526 1.258 . S
C529 O531 1.282 . S
O530 Cd522 2.277 . S
O530 C523 1.226 . S
O531 Cd522 2.356 . S
O531 C529 1.282 . S
C532 O533 1.306 . S
C532 O535 1.160 . S
O533 C532 1.306 . S
O533 Cd534 2.228 . S
Cd534 O533 2.228 . S
Cd534 O538 2.273 . S
Cd534 O542 2.277 . S
O535 C532 1.160 . S
O535 Cd536 2.203 . S
Cd536 O535 2.203 . S
Cd536 O538 2.411 . S
Cd536 O539 2.333 . S
Cd536 O540 2.352 . S
Cd536 O544 2.277 . S
Cd536 O545 2.356 . S
C537 O542 1.209 . S
C537 O544 1.226 . S
O538 Cd534 2.273 . S
O538 Cd536 2.411 . S
O538 C541 1.320 . S
O539 Cd536 2.333 . S
O539 C541 1.214 . S
O540 Cd536 2.352 . S
O540 C543 1.258 . S
C541 O538 1.320 . S
C541 O539 1.214 . S
O542 Cd534 2.277 . S
O542 C537 1.209 . S
C543 O540 1.258 . S
C543 O545 1.282 . S
O544 Cd536 2.277 . S
O544 C537 1.226 . S
O545 Cd536 2.356 . S
O545 C543 1.282 . S
C546 O547 1.306 . S
C546 O549 1.160 . S
O547 C546 1.306 . S
O547 Cd548 2.228 . S
Cd548 O547 2.228 . S
Cd548 O552 2.273 . S
Cd548 O556 2.277 . S
O549 C546 1.160 . S
O549 Cd550 2.203 . S
Cd550 O549 2.203 . S
Cd550 O552 2.411 . S
Cd550 O553 2.333 . S
Cd550 O554 2.352 . S
Cd550 O558 2.277 . S
Cd550 O559 2.356 . S
C551 O556 1.209 . S
C551 O558 1.226 . S
O552 Cd548 2.273 . S
O552 Cd550 2.411 . S
O552 C555 1.320 . S
O553 Cd550 2.333 . S
O553 C555 1.214 . S
O554 Cd550 2.352 . S
O554 C557 1.258 . S
C555 O552 1.320 . S
C555 O553 1.214 . S
O556 Cd548 2.277 . S
O556 C551 1.209 . S
C557 O554 1.258 . S
C557 O559 1.282 . S
O558 Cd550 2.277 . S
O558 C551 1.226 . S
O559 Cd550 2.356 . S
O559 C557 1.282 . S
C560 O561 1.306 . S
C560 O563 1.160 . S
O561 C560 1.306 . S
O561 Cd562 2.228 . S
Cd562 O561 2.228 . S
Cd562 O566 2.273 . S
Cd562 O570 2.277 . S
O563 C560 1.160 . S
O563 Cd564 2.203 . S
Cd564 O563 2.203 . S
Cd564 O566 2.411 . S
Cd564 O567 2.333 . S
Cd564 O568 2.352 . S
Cd564 O572 2.277 . S
Cd564 O573 2.356 . S
C565 O570 1.209 . S
C565 O572 1.226 . S
O566 Cd562 2.273 . S
O566 Cd564 2.411 . S
O566 C569 1.320 . S
O567 Cd564 2.333 . S
O567 C569 1.214 . S
O568 Cd564 2.352 . S
O568 C571 1.258 . S
C569 O566 1.320 . S
C569 O567 1.214 . S
O570 Cd562 2.277 . S
O570 C565 1.209 . S
C571 O568 1.258 . S
C571 O573 1.282 . S
O572 Cd564 2.277 . S
O572 C565 1.226 . S
O573 Cd564 2.356 . S
O573 C571 1.282 . S
C574 O575 1.306 . S
C574 O577 1.160 . S
O575 C574 1.306 . S
O575 Cd576 2.228 . S
Cd576 O575 2.228 . S
Cd576 O580 2.273 . S
Cd576 O584 2.277 . S
O577 C574 1.160 . S
O577 Cd578 2.203 . S
Cd578 O577 2.203 . S
Cd578 O580 2.411 . S
Cd578 O581 2.333 . S
Cd578 O582 2.352 . S
Cd578 O586 2.277 . S
Cd578 O587 2.356 . S
C579 O584 1.209 . S
C579 O586 1.226 . S
O580 Cd576 2.273 . S
O580 Cd578 2.411 . S
O580 C583 1.320 . S
O581 Cd578 2.333 . S
O581 C583 1.214 . S
O582 Cd578 2.352 . S
O582 C585 1.258 . S
C583 O580 1.320 . S
C583 O581 1.214 . S
O584 Cd576 2.277 . S
O584 C579 1.209 . S
C585 O582 1.258 . S
C585 O587 1.282 . S
O586 Cd578 2.277 . S
O586 C579 1.226 . S
O587 Cd578 2.356 . S
O587 C585 1.282 . S
C588 O589 1.306 . S
C588 O591 1.160 . S
O589 C588 1.306 . S
O589 Cd590 2.228 . S
Cd590 O589 2.228 . S
Cd590 O594 2.273 . S
Cd590 O598 2.277 . S
O591 C588 1.160 . S
O591 Cd592 2.203 . S
Cd592 O591 2.203 . S
Cd592 O594 2.411 . S
Cd592 O595 2.333 . S
Cd592 O596 2.352 . S
Cd592 O600 2.277 . S
Cd592 O601 2.356 . S
C593 O598 1.209 . S
C593 O600 1.226 . S
O594 Cd590 2.273 . S
O594 Cd592 2.411 . S
O594 C597 1.320 . S
O595 Cd592 2.333 . S
O595 C597 1.214 . S
O596 Cd592 2.352 . S
O596 C599 1.258 . S
C597 O594 1.320 . S
C597 O595 1.214 . S
O598 Cd590 2.277 . S
O598 C593 1.209 . S
C599 O596 1.258 . S
C599 O601 1.282 . S
O600 Cd592 2.277 . S
O600 C593 1.226 . S
O601 Cd592 2.356 . S
O601 C599 1.282 . S
C602 O603 1.306 . S
C602 O605 1.160 . S
O603 C602 1.306 . S
O603 Cd604 2.228 . S
Cd604 O603 2.228 . S
Cd604 O608 2.273 . S
Cd604 O612 2.277 . S
O605 C602 1.160 . S
O605 Cd606 2.203 . S
Cd606 O605 2.203 . S
Cd606 O608 2.411 . S
Cd606 O609 2.333 . S
Cd606 O610 2.352 . S
Cd606 O614 2.277 . S
Cd606 O615 2.356 . S
C607 O612 1.209 . S
C607 O614 1.226 . S
O608 Cd604 2.273 . S
O608 Cd606 2.411 . S
O608 C611 1.320 . S
O609 Cd606 2.333 . S
O609 C611 1.214 . S
O610 Cd606 2.352 . S
O610 C613 1.258 . S
C611 O608 1.320 . S
C611 O609 1.214 . S
O612 Cd604 2.277 . S
O612 C607 1.209 . S
C613 O610 1.258 . S
C613 O615 1.282 . S
O614 Cd606 2.277 . S
O614 C607 1.226 . S
O615 Cd606 2.356 . S
O615 C613 1.282 . S
C616 O617 1.306 . S
C616 O619 1.160 . S
O617 C616 1.306 . S
O617 Cd618 2.228 . S
Cd618 O617 2.228 . S
Cd618 O622 2.273 . S
Cd618 O626 2.277 . S
O619 C616 1.160 . S
O619 Cd620 2.203 . S
Cd620 O619 2.203 . S
Cd620 O622 2.411 . S
Cd620 O623 2.333 . S
Cd620 O624 2.352 . S
Cd620 O628 2.277 . S
Cd620 O629 2.356 . S
C621 O626 1.209 . S
C621 O628 1.226 . S
O622 Cd618 2.273 . S
O622 Cd620 2.411 . S
O622 C625 1.320 . S
O623 Cd620 2.333 . S
O623 C625 1.214 . S
O624 Cd620 2.352 . S
O624 C627 1.258 . S
C625 O622 1.320 . S
C625 O623 1.214 . S
O626 Cd618 2.277 . S
O626 C621 1.209 . S
C627 O624 1.258 . S
C627 O629 1.282 . S
O628 Cd620 2.277 . S
O628 C621 1.226 . S
O629 Cd620 2.356 . S
O629 C627 1.282 . S
C630 O631 1.306 . S
C630 O633 1.160 . S
O631 C630 1.306 . S
O631 Cd632 2.228 . S
Cd632 O631 2.228 . S
Cd632 O636 2.273 . S
Cd632 O640 2.277 . S
O633 C630 1.160 . S
O633 Cd634 2.203 . S
Cd634 O633 2.203 . S
Cd634 O636 2.411 . S
Cd634 O637 2.333 . S
Cd634 O638 2.352 . S
Cd634 O642 2.277 . S
Cd634 O643 2.356 . S
C635 O640 1.209 . S
C635 O642 1.226 . S
O636 Cd632 2.273 . S
O636 Cd634 2.411 . S
O636 C639 1.320 . S
O637 Cd634 2.333 . S
O637 C639 1.214 . S
O638 Cd634 2.352 . S
O638 C641 1.258 . S
C639 O636 1.320 . S
C639 O637 1.214 . S
O640 Cd632 2.277 . S
O640 C635 1.209 . S
C641 O638 1.258 . S
C641 O643 1.282 . S
O642 Cd634 2.277 . S
O642 C635 1.226 . S
O643 Cd634 2.356 . S
O643 C641 1.282 . S
C644 O645 1.306 . S
C644 O647 1.160 . S
O645 C644 1.306 . S
O645 Cd646 2.228 . S
Cd646 O645 2.228 . S
Cd646 O650 2.273 . S
Cd646 O654 2.277 . S
O647 C644 1.160 . S
O647 Cd648 2.203 . S
Cd648 O647 2.203 . S
Cd648 O650 2.411 . S
Cd648 O651 2.333 . S
Cd648 O652 2.352 . S
Cd648 O656 2.277 . S
Cd648 O657 2.356 . S
C649 O654 1.209 . S
C649 O656 1.226 . S
O650 Cd646 2.273 . S
O650 Cd648 2.411 . S
O650 C653 1.320 . S
O651 Cd648 2.333 . S
O651 C653 1.214 . S
O652 Cd648 2.352 . S
O652 C655 1.258 . S
C653 O650 1.320 . S
C653 O651 1.214 . S
O654 Cd646 2.277 . S
O654 C649 1.209 . S
C655 O652 1.258 . S
C655 O657 1.282 . S
O656 Cd648 2.277 . S
O656 C649 1.226 . S
O657 Cd648 2.356 . S
O657 C655 1.282 . S
C658 O659 1.306 . S
C658 O661 1.160 . S
O659 C658 1.306 . S
O659 Cd660 2.228 . S
Cd660 O659 2.228 . S
Cd660 O664 2.273 . S
Cd660 O668 2.277 . S
O661 C658 1.160 . S
O661 Cd662 2.203 . S
Cd662 O661 2.203 . S
Cd662 O664 2.411 . S
Cd662 O665 2.333 . S
Cd662 O666 2.352 . S
Cd662 O670 2.277 . S
Cd662 O671 2.356 . S
C663 O668 1.209 . S
C663 O670 1.226 . S
O664 Cd660 2.273 . S
O664 Cd662 2.411 . S
O664 C667 1.320 . S
O665 Cd662 2.333 . S
O665 C667 1.214 . S
O666 Cd662 2.352 . S
O666 C669 1.258 . S
C667 O664 1.320 . S
C667 O665 1.214 . S
O668 Cd660 2.277 . S
O668 C663 1.209 . S
C669 O666 1.258 . S
C669 O671 1.282 . S
O670 Cd662 2.277 . S
O670 C663 1.226 . S
O671 Cd662 2.356 . S
O671 C669 1.282 . S
H672 C680 0.950 . S
H673 C685 0.950 . S
H674 C682 0.950 . S
H675 C684 0.950 . S
H676 C686 0.950 . S
H677 C688 0.950 . S
H678 C690 0.950 . S
H679 C691 0.950 . S
C680 H672 0.950 . S
C680 C681 1.386 . S
C680 C682 1.391 . S
C681 C680 1.386 . S
C681 C685 1.393 . S
C682 H674 0.950 . S
C682 C680 1.391 . S
C682 C683 1.400 . S
C683 C682 1.400 . S
C683 C684 1.398 . S
C683 C689 1.491 . S
C684 H675 0.950 . S
C684 C683 1.398 . S
C684 C685 1.391 . S
C685 H673 0.950 . S
C685 C681 1.393 . S
C685 C684 1.391 . S
C686 H676 0.950 . S
C686 C687 1.386 . S
C686 C688 1.391 . S
C687 C686 1.386 . S
C687 C691 1.393 . S
C688 H677 0.950 . S
C688 C686 1.391 . S
C688 C689 1.400 . S
C689 C683 1.491 . S
C689 C688 1.400 . S
C689 C690 1.398 . S
C690 H678 0.950 . S
C690 C689 1.398 . S
C690 C691 1.391 . S
C691 H679 0.950 . S
C691 C687 1.393 . S
C691 C690 1.391 . S
H692 C700 0.950 . S
H693 C705 0.950 . S
H694 C702 0.950 . S
H695 C704 0.950 . S
H696 C706 0.950 . S
H697 C708 0.950 . S
H698 C710 0.950 . S
H699 C711 0.950 . S
C700 H692 0.950 . S
C700 C701 1.386 . S
C700 C702 1.391 . S
C701 C700 1.386 . S
C701 C705 1.393 . S
C702 H694 0.950 . S
C702 C700 1.391 . S
C702 C703 1.400 . S
C703 C702 1.400 . S
C703 C704 1.398 . S
C703 C709 1.491 . S
C704 H695 0.950 . S
C704 C703 1.398 . S
C704 C705 1.391 . S
C705 H693 0.950 . S
C705 C701 1.393 . S
C705 C704 1.391 . S
C706 H696 0.950 . S
C706 C707 1.386 . S
C706 C708 1.391 . S
C707 C706 1.386 . S
C707 C711 1.393 . S
C708 H697 0.950 . S
C708 C706 1.391 . S
C708 C709 1.400 . S
C709 C703 1.491 . S
C709 C708 1.400 . S
C709 C710 1.398 . S
C710 H698 0.950 . S
C710 C709 1.398 . S
C710 C711 1.391 . S
C711 H699 0.950 . S
C711 C707 1.393 . S
C711 C710 1.391 . S
H712 C720 0.950 . S
H713 C725 0.950 . S
H714 C722 0.950 . S
H715 C724 0.950 . S
H716 C726 0.950 . S
H717 C728 0.950 . S
H718 C730 0.950 . S
H719 C731 0.950 . S
C720 H712 0.950 . S
C720 C721 1.386 . S
C720 C722 1.391 . S
C721 C720 1.386 . S
C721 C725 1.393 . S
C722 H714 0.950 . S
C722 C720 1.391 . S
C722 C723 1.400 . S
C723 C722 1.400 . S
C723 C724 1.398 . S
C723 C729 1.491 . S
C724 H715 0.950 . S
C724 C723 1.398 . S
C724 C725 1.391 . S
C725 H713 0.950 . S
C725 C721 1.393 . S
C725 C724 1.391 . S
C726 H716 0.950 . S
C726 C727 1.386 . S
C726 C728 1.391 . S
C727 C726 1.386 . S
C727 C731 1.393 . S
C728 H717 0.950 . S
C728 C726 1.391 . S
C728 C729 1.400 . S
C729 C723 1.491 . S
C729 C728 1.400 . S
C729 C730 1.398 . S
C730 H718 0.950 . S
C730 C729 1.398 . S
C730 C731 1.391 . S
C731 H719 0.950 . S
C731 C727 1.393 . S
C731 C730 1.391 . S
H732 C740 0.950 . S
H733 C745 0.950 . S
H734 C742 0.950 . S
H735 C744 0.950 . S
H736 C746 0.950 . S
H737 C748 0.950 . S
H738 C750 0.950 . S
H739 C751 0.950 . S
C740 H732 0.950 . S
C740 C741 1.386 . S
C740 C742 1.391 . S
C741 C740 1.386 . S
C741 C745 1.393 . S
C742 H734 0.950 . S
C742 C740 1.391 . S
C742 C743 1.400 . S
C743 C742 1.400 . S
C743 C744 1.398 . S
C743 C749 1.491 . S
C744 H735 0.950 . S
C744 C743 1.398 . S
C744 C745 1.391 . S
C745 H733 0.950 . S
C745 C741 1.393 . S
C745 C744 1.391 . S
C746 H736 0.950 . S
C746 C747 1.386 . S
C746 C748 1.391 . S
C747 C746 1.386 . S
C747 C751 1.393 . S
C748 H737 0.950 . S
C748 C746 1.391 . S
C748 C749 1.400 . S
C749 C743 1.491 . S
C749 C748 1.400 . S
C749 C750 1.398 . S
C750 H738 0.950 . S
C750 C749 1.398 . S
C750 C751 1.391 . S
C751 H739 0.950 . S
C751 C747 1.393 . S
C751 C750 1.391 . S
H752 C760 0.950 . S
H753 C765 0.950 . S
H754 C762 0.950 . S
H755 C764 0.950 . S
H756 C766 0.950 . S
H757 C768 0.950 . S
H758 C770 0.950 . S
H759 C771 0.950 . S
C760 H752 0.950 . S
C760 C761 1.386 . S
C760 C762 1.391 . S
C761 C760 1.386 . S
C761 C765 1.393 . S
C762 H754 0.950 . S
C762 C760 1.391 . S
C762 C763 1.400 . S
C763 C762 1.400 . S
C763 C764 1.398 . S
C763 C769 1.491 . S
C764 H755 0.950 . S
C764 C763 1.398 . S
C764 C765 1.391 . S
C765 H753 0.950 . S
C765 C761 1.393 . S
C765 C764 1.391 . S
C766 H756 0.950 . S
C766 C767 1.386 . S
C766 C768 1.391 . S
C767 C766 1.386 . S
C767 C771 1.393 . S
C768 H757 0.950 . S
C768 C766 1.391 . S
C768 C769 1.400 . S
C769 C763 1.491 . S
C769 C768 1.400 . S
C769 C770 1.398 . S
C770 H758 0.950 . S
C770 C769 1.398 . S
C770 C771 1.391 . S
C771 H759 0.950 . S
C771 C767 1.393 . S
C771 C770 1.391 . S
H772 C780 0.950 . S
H773 C785 0.950 . S
H774 C782 0.950 . S
H775 C784 0.950 . S
H776 C786 0.950 . S
H777 C788 0.950 . S
H778 C790 0.950 . S
H779 C791 0.950 . S
C780 H772 0.950 . S
C780 C781 1.386 . S
C780 C782 1.391 . S
C781 C780 1.386 . S
C781 C785 1.393 . S
C782 H774 0.950 . S
C782 C780 1.391 . S
C782 C783 1.400 . S
C783 C782 1.400 . S
C783 C784 1.398 . S
C783 C789 1.491 . S
C784 H775 0.950 . S
C784 C783 1.398 . S
C784 C785 1.391 . S
C785 H773 0.950 . S
C785 C781 1.393 . S
C785 C784 1.391 . S
C786 H776 0.950 . S
C786 C787 1.386 . S
C786 C788 1.391 . S
C787 C786 1.386 . S
C787 C791 1.393 . S
C788 H777 0.950 . S
C788 C786 1.391 . S
C788 C789 1.400 . S
C789 C783 1.491 . S
C789 C788 1.400 . S
C789 C790 1.398 . S
C790 H778 0.950 . S
C790 C789 1.398 . S
C790 C791 1.391 . S
C791 H779 0.950 . S
C791 C787 1.393 . S
C791 C790 1.391 . S
H792 C800 0.950 . S
H793 C805 0.950 . S
H794 C802 0.950 . S
H795 C804 0.950 . S
H796 C806 0.950 . S
H797 C808 0.950 . S
H798 C810 0.950 . S
H799 C811 0.950 . S
C800 H792 0.950 . S
C800 C801 1.386 . S
C800 C802 1.391 . S
C801 C800 1.386 . S
C801 C805 1.393 . S
C802 H794 0.950 . S
C802 C800 1.391 . S
C802 C803 1.400 . S
C803 C802 1.400 . S
C803 C804 1.398 . S
C803 C809 1.491 . S
C804 H795 0.950 . S
C804 C803 1.398 . S
C804 C805 1.391 . S
C805 H793 0.950 . S
C805 C801 1.393 . S
C805 C804 1.391 . S
C806 H796 0.950 . S
C806 C807 1.386 . S
C806 C808 1.391 . S
C807 C806 1.386 . S
C807 C811 1.393 . S
C808 H797 0.950 . S
C808 C806 1.391 . S
C808 C809 1.400 . S
C809 C803 1.491 . S
C809 C808 1.400 . S
C809 C810 1.398 . S
C810 H798 0.950 . S
C810 C809 1.398 . S
C810 C811 1.391 . S
C811 H799 0.950 . S
C811 C807 1.393 . S
C811 C810 1.391 . S
H812 C820 0.950 . S
H813 C825 0.950 . S
H814 C822 0.950 . S
H815 C824 0.950 . S
H816 C826 0.950 . S
H817 C828 0.950 . S
H818 C830 0.950 . S
H819 C831 0.950 . S
C820 H812 0.950 . S
C820 C821 1.386 . S
C820 C822 1.391 . S
C821 C820 1.386 . S
C821 C825 1.393 . S
C822 H814 0.950 . S
C822 C820 1.391 . S
C822 C823 1.400 . S
C823 C822 1.400 . S
C823 C824 1.398 . S
C823 C829 1.491 . S
C824 H815 0.950 . S
C824 C823 1.398 . S
C824 C825 1.391 . S
C825 H813 0.950 . S
C825 C821 1.393 . S
C825 C824 1.391 . S
C826 H816 0.950 . S
C826 C827 1.386 . S
C826 C828 1.391 . S
C827 C826 1.386 . S
C827 C831 1.393 . S
C828 H817 0.950 . S
C828 C826 1.391 . S
C828 C829 1.400 . S
C829 C823 1.491 . S
C829 C828 1.400 . S
C829 C830 1.398 . S
C830 H818 0.950 . S
C830 C829 1.398 . S
C830 C831 1.391 . S
C831 H819 0.950 . S
C831 C827 1.393 . S
C831 C830 1.391 . S
H832 C840 0.950 . S
H833 C845 0.950 . S
H834 C842 0.950 . S
H835 C844 0.950 . S
H836 C846 0.950 . S
H837 C848 0.950 . S
H838 C850 0.950 . S
H839 C851 0.950 . S
C840 H832 0.950 . S
C840 C841 1.386 . S
C840 C842 1.391 . S
C841 C840 1.386 . S
C841 C845 1.393 . S
C842 H834 0.950 . S
C842 C840 1.391 . S
C842 C843 1.400 . S
C843 C842 1.400 . S
C843 C844 1.398 . S
C843 C849 1.491 . S
C844 H835 0.950 . S
C844 C843 1.398 . S
C844 C845 1.391 . S
C845 H833 0.950 . S
C845 C841 1.393 . S
C845 C844 1.391 . S
C846 H836 0.950 . S
C846 C847 1.386 . S
C846 C848 1.391 . S
C847 C846 1.386 . S
C847 C851 1.393 . S
C848 H837 0.950 . S
C848 C846 1.391 . S
C848 C849 1.400 . S
C849 C843 1.491 . S
C849 C848 1.400 . S
C849 C850 1.398 . S
C850 H838 0.950 . S
C850 C849 1.398 . S
C850 C851 1.391 . S
C851 H839 0.950 . S
C851 C847 1.393 . S
C851 C850 1.391 . S
H852 C860 0.950 . S
H853 C865 0.950 . S
H854 C862 0.950 . S
H855 C864 0.950 . S
H856 C866 0.950 . S
H857 C868 0.950 . S
H858 C870 0.950 . S
H859 C871 0.950 . S
C860 H852 0.950 . S
C860 C861 1.386 . S
C860 C862 1.391 . S
C861 C860 1.386 . S
C861 C865 1.393 . S
C862 H854 0.950 . S
C862 C860 1.391 . S
C862 C863 1.400 . S
C863 C862 1.400 . S
C863 C864 1.398 . S
C863 C869 1.491 . S
C864 H855 0.950 . S
C864 C863 1.398 . S
C864 C865 1.391 . S
C865 H853 0.950 . S
C865 C861 1.393 . S
C865 C864 1.391 . S
C866 H856 0.950 . S
C866 C867 1.386 . S
C866 C868 1.391 . S
C867 C866 1.386 . S
C867 C871 1.393 . S
C868 H857 0.950 . S
C868 C866 1.391 . S
C868 C869 1.400 . S
C869 C863 1.491 . S
C869 C868 1.400 . S
C869 C870 1.398 . S
C870 H858 0.950 . S
C870 C869 1.398 . S
C870 C871 1.391 . S
C871 H859 0.950 . S
C871 C867 1.393 . S
C871 C870 1.391 . S
H872 C880 0.950 . S
H873 C885 0.950 . S
H874 C882 0.950 . S
H875 C884 0.950 . S
H876 C886 0.950 . S
H877 C888 0.950 . S
H878 C890 0.950 . S
H879 C891 0.950 . S
C880 H872 0.950 . S
C880 C881 1.386 . S
C880 C882 1.391 . S
C881 C880 1.386 . S
C881 C885 1.393 . S
C882 H874 0.950 . S
C882 C880 1.391 . S
C882 C883 1.400 . S
C883 C882 1.400 . S
C883 C884 1.398 . S
C883 C889 1.491 . S
C884 H875 0.950 . S
C884 C883 1.398 . S
C884 C885 1.391 . S
C885 H873 0.950 . S
C885 C881 1.393 . S
C885 C884 1.391 . S
C886 H876 0.950 . S
C886 C887 1.386 . S
C886 C888 1.391 . S
C887 C886 1.386 . S
C887 C891 1.393 . S
C888 H877 0.950 . S
C888 C886 1.391 . S
C888 C889 1.400 . S
C889 C883 1.491 . S
C889 C888 1.400 . S
C889 C890 1.398 . S
C890 H878 0.950 . S
C890 C889 1.398 . S
C890 C891 1.391 . S
C891 H879 0.950 . S
C891 C887 1.393 . S
C891 C890 1.391 . S
H892 C900 0.950 . S
H893 C905 0.950 . S
H894 C902 0.950 . S
H895 C904 0.950 . S
H896 C906 0.950 . S
H897 C908 0.950 . S
H898 C910 0.950 . S
H899 C911 0.950 . S
C900 H892 0.950 . S
C900 C901 1.386 . S
C900 C902 1.391 . S
C901 C900 1.386 . S
C901 C905 1.393 . S
C902 H894 0.950 . S
C902 C900 1.391 . S
C902 C903 1.400 . S
C903 C902 1.400 . S
C903 C904 1.398 . S
C903 C909 1.491 . S
C904 H895 0.950 . S
C904 C903 1.398 . S
C904 C905 1.391 . S
C905 H893 0.950 . S
C905 C901 1.393 . S
C905 C904 1.391 . S
C906 H896 0.950 . S
C906 C907 1.386 . S
C906 C908 1.391 . S
C907 C906 1.386 . S
C907 C911 1.393 . S
C908 H897 0.950 . S
C908 C906 1.391 . S
C908 C909 1.400 . S
C909 C903 1.491 . S
C909 C908 1.400 . S
C909 C910 1.398 . S
C910 H898 0.950 . S
C910 C909 1.398 . S
C910 C911 1.391 . S
C911 H899 0.950 . S
C911 C907 1.393 . S
C911 C910 1.391 . S
H912 C920 0.950 . S
H913 C925 0.950 . S
H914 C922 0.950 . S
H915 C924 0.950 . S
H916 C926 0.950 . S
H917 C928 0.950 . S
H918 C930 0.950 . S
H919 C931 0.950 . S
C920 H912 0.950 . S
C920 C921 1.386 . S
C920 C922 1.391 . S
C921 C920 1.386 . S
C921 C925 1.393 . S
C922 H914 0.950 . S
C922 C920 1.391 . S
C922 C923 1.400 . S
C923 C922 1.400 . S
C923 C924 1.398 . S
C923 C929 1.491 . S
C924 H915 0.950 . S
C924 C923 1.398 . S
C924 C925 1.391 . S
C925 H913 0.950 . S
C925 C921 1.393 . S
C925 C924 1.391 . S
C926 H916 0.950 . S
C926 C927 1.386 . S
C926 C928 1.391 . S
C927 C926 1.386 . S
C927 C931 1.393 . S
C928 H917 0.950 . S
C928 C926 1.391 . S
C928 C929 1.400 . S
C929 C923 1.491 . S
C929 C928 1.400 . S
C929 C930 1.398 . S
C930 H918 0.950 . S
C930 C929 1.398 . S
C930 C931 1.391 . S
C931 H919 0.950 . S
C931 C927 1.393 . S
C931 C930 1.391 . S
H932 C940 0.950 . S
H933 C945 0.950 . S
H934 C942 0.950 . S
H935 C944 0.950 . S
H936 C946 0.950 . S
H937 C948 0.950 . S
H938 C950 0.950 . S
H939 C951 0.950 . S
C940 H932 0.950 . S
C940 C941 1.386 . S
C940 C942 1.391 . S
C941 C940 1.386 . S
C941 C945 1.393 . S
C942 H934 0.950 . S
C942 C940 1.391 . S
C942 C943 1.400 . S
C943 C942 1.400 . S
C943 C944 1.398 . S
C943 C949 1.491 . S
C944 H935 0.950 . S
C944 C943 1.398 . S
C944 C945 1.391 . S
C945 H933 0.950 . S
C945 C941 1.393 . S
C945 C944 1.391 . S
C946 H936 0.950 . S
C946 C947 1.386 . S
C946 C948 1.391 . S
C947 C946 1.386 . S
C947 C951 1.393 . S
C948 H937 0.950 . S
C948 C946 1.391 . S
C948 C949 1.400 . S
C949 C943 1.491 . S
C949 C948 1.400 . S
C949 C950 1.398 . S
C950 H938 0.950 . S
C950 C949 1.398 . S
C950 C951 1.391 . S
C951 H939 0.950 . S
C951 C947 1.393 . S
C951 C950 1.391 . S
H952 C960 0.950 . S
H953 C965 0.950 . S
H954 C962 0.950 . S
H955 C964 0.950 . S
H956 C966 0.950 . S
H957 C968 0.950 . S
H958 C970 0.950 . S
H959 C971 0.950 . S
C960 H952 0.950 . S
C960 C961 1.386 . S
C960 C962 1.391 . S
C961 C960 1.386 . S
C961 C965 1.393 . S
C962 H954 0.950 . S
C962 C960 1.391 . S
C962 C963 1.400 . S
C963 C962 1.400 . S
C963 C964 1.398 . S
C963 C969 1.491 . S
C964 H955 0.950 . S
C964 C963 1.398 . S
C964 C965 1.391 . S
C965 H953 0.950 . S
C965 C961 1.393 . S
C965 C964 1.391 . S
C966 H956 0.950 . S
C966 C967 1.386 . S
C966 C968 1.391 . S
C967 C966 1.386 . S
C967 C971 1.393 . S
C968 H957 0.950 . S
C968 C966 1.391 . S
C968 C969 1.400 . S
C969 C963 1.491 . S
C969 C968 1.400 . S
C969 C970 1.398 . S
C970 H958 0.950 . S
C970 C969 1.398 . S
C970 C971 1.391 . S
C971 H959 0.950 . S
C971 C967 1.393 . S
C971 C970 1.391 . S
H972 C980 0.950 . S
H973 C985 0.950 . S
H974 C982 0.950 . S
H975 C984 0.950 . S
H976 C986 0.950 . S
H977 C988 0.950 . S
H978 C990 0.950 . S
H979 C991 0.950 . S
C980 H972 0.950 . S
C980 C981 1.386 . S
C980 C982 1.391 . S
C981 C980 1.386 . S
C981 C985 1.393 . S
C982 H974 0.950 . S
C982 C980 1.391 . S
C982 C983 1.400 . S
C983 C982 1.400 . S
C983 C984 1.398 . S
C983 C989 1.491 . S
C984 H975 0.950 . S
C984 C983 1.398 . S
C984 C985 1.391 . S
C985 H973 0.950 . S
C985 C981 1.393 . S
C985 C984 1.391 . S
C986 H976 0.950 . S
C986 C987 1.386 . S
C986 C988 1.391 . S
C987 C986 1.386 . S
C987 C991 1.393 . S
C988 H977 0.950 . S
C988 C986 1.391 . S
C988 C989 1.400 . S
C989 C983 1.491 . S
C989 C988 1.400 . S
C989 C990 1.398 . S
C990 H978 0.950 . S
C990 C989 1.398 . S
C990 C991 1.391 . S
C991 H979 0.950 . S
C991 C987 1.393 . S
C991 C990 1.391 . S
H992 C1000 0.950 . S
H993 C1005 0.950 . S
H994 C1002 0.950 . S
H995 C1004 0.950 . S
H996 C1006 0.950 . S
H997 C1008 0.950 . S
H998 C1010 0.950 . S
H999 C1011 0.950 . S
C1000 H992 0.950 . S
C1000 C1001 1.386 . S
C1000 C1002 1.391 . S
C1001 C1000 1.386 . S
C1001 C1005 1.393 . S
C1002 H994 0.950 . S
C1002 C1000 1.391 . S
C1002 C1003 1.400 . S
C1003 C1002 1.400 . S
C1003 C1004 1.398 . S
C1003 C1009 1.491 . S
C1004 H995 0.950 . S
C1004 C1003 1.398 . S
C1004 C1005 1.391 . S
C1005 H993 0.950 . S
C1005 C1001 1.393 . S
C1005 C1004 1.391 . S
C1006 H996 0.950 . S
C1006 C1007 1.386 . S
C1006 C1008 1.391 . S
C1007 C1006 1.386 . S
C1007 C1011 1.393 . S
C1008 H997 0.950 . S
C1008 C1006 1.391 . S
C1008 C1009 1.400 . S
C1009 C1003 1.491 . S
C1009 C1008 1.400 . S
C1009 C1010 1.398 . S
C1010 H998 0.950 . S
C1010 C1009 1.398 . S
C1010 C1011 1.391 . S
C1011 H999 0.950 . S
C1011 C1007 1.393 . S
C1011 C1010 1.391 . S
H1012 C1020 0.950 . S
H1013 C1025 0.950 . S
H1014 C1022 0.950 . S
H1015 C1024 0.950 . S
H1016 C1026 0.950 . S
H1017 C1028 0.950 . S
H1018 C1030 0.950 . S
H1019 C1031 0.950 . S
C1020 H1012 0.950 . S
C1020 C1021 1.386 . S
C1020 C1022 1.391 . S
C1021 C1020 1.386 . S
C1021 C1025 1.393 . S
C1022 H1014 0.950 . S
C1022 C1020 1.391 . S
C1022 C1023 1.400 . S
C1023 C1022 1.400 . S
C1023 C1024 1.398 . S
C1023 C1029 1.491 . S
C1024 H1015 0.950 . S
C1024 C1023 1.398 . S
C1024 C1025 1.391 . S
C1025 H1013 0.950 . S
C1025 C1021 1.393 . S
C1025 C1024 1.391 . S
C1026 H1016 0.950 . S
C1026 C1027 1.386 . S
C1026 C1028 1.391 . S
C1027 C1026 1.386 . S
C1027 C1031 1.393 . S
C1028 H1017 0.950 . S
C1028 C1026 1.391 . S
C1028 C1029 1.400 . S
C1029 C1023 1.491 . S
C1029 C1028 1.400 . S
C1029 C1030 1.398 . S
C1030 H1018 0.950 . S
C1030 C1029 1.398 . S
C1030 C1031 1.391 . S
C1031 H1019 0.950 . S
C1031 C1027 1.393 . S
C1031 C1030 1.391 . S
H1032 C1040 0.950 . S
H1033 C1045 0.950 . S
H1034 C1042 0.950 . S
H1035 C1044 0.950 . S
H1036 C1046 0.950 . S
H1037 C1048 0.950 . S
H1038 C1050 0.950 . S
H1039 C1051 0.950 . S
C1040 H1032 0.950 . S
C1040 C1041 1.386 . S
C1040 C1042 1.391 . S
C1041 C1040 1.386 . S
C1041 C1045 1.393 . S
C1042 H1034 0.950 . S
C1042 C1040 1.391 . S
C1042 C1043 1.400 . S
C1043 C1042 1.400 . S
C1043 C1044 1.398 . S
C1043 C1049 1.491 . S
C1044 H1035 0.950 . S
C1044 C1043 1.398 . S
C1044 C1045 1.391 . S
C1045 H1033 0.950 . S
C1045 C1041 1.393 . S
C1045 C1044 1.391 . S
C1046 H1036 0.950 . S
C1046 C1047 1.386 . S
C1046 C1048 1.391 . S
C1047 C1046 1.386 . S
C1047 C1051 1.393 . S
C1048 H1037 0.950 . S
C1048 C1046 1.391 . S
C1048 C1049 1.400 . S
C1049 C1043 1.491 . S
C1049 C1048 1.400 . S
C1049 C1050 1.398 . S
C1050 H1038 0.950 . S
C1050 C1049 1.398 . S
C1050 C1051 1.391 . S
C1051 H1039 0.950 . S
C1051 C1047 1.393 . S
C1051 C1050 1.391 . S
H1052 C1060 0.950 . S
H1053 C1065 0.950 . S
H1054 C1062 0.950 . S
H1055 C1064 0.950 . S
H1056 C1066 0.950 . S
H1057 C1068 0.950 . S
H1058 C1070 0.950 . S
H1059 C1071 0.950 . S
C1060 H1052 0.950 . S
C1060 C1061 1.386 . S
C1060 C1062 1.391 . S
C1061 C1060 1.386 . S
C1061 C1065 1.393 . S
C1062 H1054 0.950 . S
C1062 C1060 1.391 . S
C1062 C1063 1.400 . S
C1063 C1062 1.400 . S
C1063 C1064 1.398 . S
C1063 C1069 1.491 . S
C1064 H1055 0.950 . S
C1064 C1063 1.398 . S
C1064 C1065 1.391 . S
C1065 H1053 0.950 . S
C1065 C1061 1.393 . S
C1065 C1064 1.391 . S
C1066 H1056 0.950 . S
C1066 C1067 1.386 . S
C1066 C1068 1.391 . S
C1067 C1066 1.386 . S
C1067 C1071 1.393 . S
C1068 H1057 0.950 . S
C1068 C1066 1.391 . S
C1068 C1069 1.400 . S
C1069 C1063 1.491 . S
C1069 C1068 1.400 . S
C1069 C1070 1.398 . S
C1070 H1058 0.950 . S
C1070 C1069 1.398 . S
C1070 C1071 1.391 . S
C1071 H1059 0.950 . S
C1071 C1067 1.393 . S
C1071 C1070 1.391 . S
H1072 C1080 0.950 . S
H1073 C1085 0.950 . S
H1074 C1082 0.950 . S
H1075 C1084 0.950 . S
H1076 C1086 0.950 . S
H1077 C1088 0.950 . S
H1078 C1090 0.950 . S
H1079 C1091 0.950 . S
C1080 H1072 0.950 . S
C1080 C1081 1.386 . S
C1080 C1082 1.391 . S
C1081 C1080 1.386 . S
C1081 C1085 1.393 . S
C1082 H1074 0.950 . S
C1082 C1080 1.391 . S
C1082 C1083 1.400 . S
C1083 C1082 1.400 . S
C1083 C1084 1.398 . S
C1083 C1089 1.491 . S
C1084 H1075 0.950 . S
C1084 C1083 1.398 . S
C1084 C1085 1.391 . S
C1085 H1073 0.950 . S
C1085 C1081 1.393 . S
C1085 C1084 1.391 . S
C1086 H1076 0.950 . S
C1086 C1087 1.386 . S
C1086 C1088 1.391 . S
C1087 C1086 1.386 . S
C1087 C1091 1.393 . S
C1088 H1077 0.950 . S
C1088 C1086 1.391 . S
C1088 C1089 1.400 . S
C1089 C1083 1.491 . S
C1089 C1088 1.400 . S
C1089 C1090 1.398 . S
C1090 H1078 0.950 . S
C1090 C1089 1.398 . S
C1090 C1091 1.391 . S
C1091 H1079 0.950 . S
C1091 C1087 1.393 . S
C1091 C1090 1.391 . S
H1092 C1100 0.950 . S
H1093 C1105 0.950 . S
H1094 C1102 0.950 . S
H1095 C1104 0.950 . S
H1096 C1106 0.950 . S
H1097 C1108 0.950 . S
H1098 C1110 0.950 . S
H1099 C1111 0.950 . S
C1100 H1092 0.950 . S
C1100 C1101 1.386 . S
C1100 C1102 1.391 . S
C1101 C1100 1.386 . S
C1101 C1105 1.393 . S
C1102 H1094 0.950 . S
C1102 C1100 1.391 . S
C1102 C1103 1.400 . S
C1103 C1102 1.400 . S
C1103 C1104 1.398 . S
C1103 C1109 1.491 . S
C1104 H1095 0.950 . S
C1104 C1103 1.398 . S
C1104 C1105 1.391 . S
C1105 H1093 0.950 . S
C1105 C1101 1.393 . S
C1105 C1104 1.391 . S
C1106 H1096 0.950 . S
C1106 C1107 1.386 . S
C1106 C1108 1.391 . S
C1107 C1106 1.386 . S
C1107 C1111 1.393 . S
C1108 H1097 0.950 . S
C1108 C1106 1.391 . S
C1108 C1109 1.400 . S
C1109 C1103 1.491 . S
C1109 C1108 1.400 . S
C1109 C1110 1.398 . S
C1110 H1098 0.950 . S
C1110 C1109 1.398 . S
C1110 C1111 1.391 . S
C1111 H1099 0.950 . S
C1111 C1107 1.393 . S
C1111 C1110 1.391 . S
H1112 C1120 0.950 . S
H1113 C1125 0.950 . S
H1114 C1122 0.950 . S
H1115 C1124 0.950 . S
H1116 C1126 0.950 . S
H1117 C1128 0.950 . S
H1118 C1130 0.950 . S
H1119 C1131 0.950 . S
C1120 H1112 0.950 . S
C1120 C1121 1.386 . S
C1120 C1122 1.391 . S
C1121 C1120 1.386 . S
C1121 C1125 1.393 . S
C1122 H1114 0.950 . S
C1122 C1120 1.391 . S
C1122 C1123 1.400 . S
C1123 C1122 1.400 . S
C1123 C1124 1.398 . S
C1123 C1129 1.491 . S
C1124 H1115 0.950 . S
C1124 C1123 1.398 . S
C1124 C1125 1.391 . S
C1125 H1113 0.950 . S
C1125 C1121 1.393 . S
C1125 C1124 1.391 . S
C1126 H1116 0.950 . S
C1126 C1127 1.386 . S
C1126 C1128 1.391 . S
C1127 C1126 1.386 . S
C1127 C1131 1.393 . S
C1128 H1117 0.950 . S
C1128 C1126 1.391 . S
C1128 C1129 1.400 . S
C1129 C1123 1.491 . S
C1129 C1128 1.400 . S
C1129 C1130 1.398 . S
C1130 H1118 0.950 . S
C1130 C1129 1.398 . S
C1130 C1131 1.391 . S
C1131 H1119 0.950 . S
C1131 C1127 1.393 . S
C1131 C1130 1.391 . S
H1132 C1140 0.950 . S
H1133 C1145 0.950 . S
H1134 C1142 0.950 . S
H1135 C1144 0.950 . S
H1136 C1146 0.950 . S
H1137 C1148 0.950 . S
H1138 C1150 0.950 . S
H1139 C1151 0.950 . S
C1140 H1132 0.950 . S
C1140 C1141 1.386 . S
C1140 C1142 1.391 . S
C1141 C1140 1.386 . S
C1141 C1145 1.393 . S
C1142 H1134 0.950 . S
C1142 C1140 1.391 . S
C1142 C1143 1.400 . S
C1143 C1142 1.400 . S
C1143 C1144 1.398 . S
C1143 C1149 1.491 . S
C1144 H1135 0.950 . S
C1144 C1143 1.398 . S
C1144 C1145 1.391 . S
C1145 H1133 0.950 . S
C1145 C1141 1.393 . S
C1145 C1144 1.391 . S
C1146 H1136 0.950 . S
C1146 C1147 1.386 . S
C1146 C1148 1.391 . S
C1147 C1146 1.386 . S
C1147 C1151 1.393 . S
C1148 H1137 0.950 . S
C1148 C1146 1.391 . S
C1148 C1149 1.400 . S
C1149 C1143 1.491 . S
C1149 C1148 1.400 . S
C1149 C1150 1.398 . S
C1150 H1138 0.950 . S
C1150 C1149 1.398 . S
C1150 C1151 1.391 . S
C1151 H1139 0.950 . S
C1151 C1147 1.393 . S
C1151 C1150 1.391 . S
H1152 C1160 0.950 . S
H1153 C1165 0.950 . S
H1154 C1162 0.950 . S
H1155 C1164 0.950 . S
H1156 C1166 0.950 . S
H1157 C1168 0.950 . S
H1158 C1170 0.950 . S
H1159 C1171 0.950 . S
C1160 H1152 0.950 . S
C1160 C1161 1.386 . S
C1160 C1162 1.391 . S
C1161 C1160 1.386 . S
C1161 C1165 1.393 . S
C1162 H1154 0.950 . S
C1162 C1160 1.391 . S
C1162 C1163 1.400 . S
C1163 C1162 1.400 . S
C1163 C1164 1.398 . S
C1163 C1169 1.491 . S
C1164 H1155 0.950 . S
C1164 C1163 1.398 . S
C1164 C1165 1.391 . S
C1165 H1153 0.950 . S
C1165 C1161 1.393 . S
C1165 C1164 1.391 . S
C1166 H1156 0.950 . S
C1166 C1167 1.386 . S
C1166 C1168 1.391 . S
C1167 C1166 1.386 . S
C1167 C1171 1.393 . S
C1168 H1157 0.950 . S
C1168 C1166 1.391 . S
C1168 C1169 1.400 . S
C1169 C1163 1.491 . S
C1169 C1168 1.400 . S
C1169 C1170 1.398 . S
C1170 H1158 0.950 . S
C1170 C1169 1.398 . S
C1170 C1171 1.391 . S
C1171 H1159 0.950 . S
C1171 C1167 1.393 . S
C1171 C1170 1.391 . S
H1172 C1180 0.950 . S
H1173 C1185 0.950 . S
H1174 C1182 0.950 . S
H1175 C1184 0.950 . S
H1176 C1186 0.950 . S
H1177 C1188 0.950 . S
H1178 C1190 0.950 . S
H1179 C1191 0.950 . S
C1180 H1172 0.950 . S
C1180 C1181 1.386 . S
C1180 C1182 1.391 . S
C1181 C1180 1.386 . S
C1181 C1185 1.393 . S
C1182 H1174 0.950 . S
C1182 C1180 1.391 . S
C1182 C1183 1.400 . S
C1183 C1182 1.400 . S
C1183 C1184 1.398 . S
C1183 C1189 1.491 1_556 S
C1184 H1175 0.950 . S
C1184 C1183 1.398 . S
C1184 C1185 1.391 . S
C1185 H1173 0.950 . S
C1185 C1181 1.393 . S
C1185 C1184 1.391 . S
C1186 H1176 0.950 . S
C1186 C1187 1.386 . S
C1186 C1188 1.391 . S
C1187 C1186 1.386 . S
C1187 C1191 1.393 . S
C1188 H1177 0.950 . S
C1188 C1186 1.391 . S
C1188 C1189 1.400 . S
C1189 C1183 1.491 1_554 S
C1189 C1188 1.400 . S
C1189 C1190 1.398 . S
C1190 H1178 0.950 . S
C1190 C1189 1.398 . S
C1190 C1191 1.391 . S
C1191 H1179 0.950 . S
C1191 C1187 1.393 . S
C1191 C1190 1.391 . S
H1192 C1200 0.950 . S
H1193 C1205 0.950 . S
H1194 C1202 0.950 . S
H1195 C1204 0.950 . S
H1196 C1206 0.950 . S
H1197 C1208 0.950 . S
H1198 C1210 0.950 . S
H1199 C1211 0.950 . S
C1200 H1192 0.950 . S
C1200 C1201 1.386 . S
C1200 C1202 1.391 . S
C1201 C1200 1.386 . S
C1201 C1205 1.393 . S
C1202 H1194 0.950 . S
C1202 C1200 1.391 . S
C1202 C1203 1.400 . S
C1203 C1202 1.400 . S
C1203 C1204 1.398 . S
C1203 C1209 1.491 . S
C1204 H1195 0.950 . S
C1204 C1203 1.398 . S
C1204 C1205 1.391 . S
C1205 H1193 0.950 . S
C1205 C1201 1.393 . S
C1205 C1204 1.391 . S
C1206 H1196 0.950 . S
C1206 C1207 1.386 . S
C1206 C1208 1.391 . S
C1207 C1206 1.386 . S
C1207 C1211 1.393 . S
C1208 H1197 0.950 . S
C1208 C1206 1.391 . S
C1208 C1209 1.400 . S
C1209 C1203 1.491 . S
C1209 C1208 1.400 . S
C1209 C1210 1.398 . S
C1210 H1198 0.950 . S
C1210 C1209 1.398 . S
C1210 C1211 1.391 . S
C1211 H1199 0.950 . S
C1211 C1207 1.393 . S
C1211 C1210 1.391 . S
H1212 C1220 0.950 . S
H1213 C1225 0.950 . S
H1214 C1222 0.950 . S
H1215 C1224 0.950 . S
H1216 C1226 0.950 . S
H1217 C1228 0.950 . S
H1218 C1230 0.950 . S
H1219 C1231 0.950 . S
C1220 H1212 0.950 . S
C1220 C1221 1.386 . S
C1220 C1222 1.391 . S
C1221 C1220 1.386 . S
C1221 C1225 1.393 . S
C1222 H1214 0.950 . S
C1222 C1220 1.391 . S
C1222 C1223 1.400 . S
C1223 C1222 1.400 . S
C1223 C1224 1.398 . S
C1223 C1229 1.491 1_556 S
C1224 H1215 0.950 . S
C1224 C1223 1.398 . S
C1224 C1225 1.391 . S
C1225 H1213 0.950 . S
C1225 C1221 1.393 . S
C1225 C1224 1.391 . S
C1226 H1216 0.950 . S
C1226 C1227 1.386 . S
C1226 C1228 1.391 . S
C1227 C1226 1.386 . S
C1227 C1231 1.393 . S
C1228 H1217 0.950 . S
C1228 C1226 1.391 . S
C1228 C1229 1.400 . S
C1229 C1223 1.491 1_554 S
C1229 C1228 1.400 . S
C1229 C1230 1.398 . S
C1230 H1218 0.950 . S
C1230 C1229 1.398 . S
C1230 C1231 1.391 . S
C1231 H1219 0.950 . S
C1231 C1227 1.393 . S
C1231 C1230 1.391 . S
H1232 C1240 0.950 . S
H1233 C1245 0.950 . S
H1234 C1242 0.950 . S
H1235 C1244 0.950 . S
H1236 C1246 0.950 . S
H1237 C1248 0.950 . S
H1238 C1250 0.950 . S
H1239 C1251 0.950 . S
C1240 H1232 0.950 . S
C1240 C1241 1.386 . S
C1240 C1242 1.391 . S
C1241 C1240 1.386 . S
C1241 C1245 1.393 . S
C1242 H1234 0.950 . S
C1242 C1240 1.391 . S
C1242 C1243 1.400 . S
C1243 C1242 1.400 . S
C1243 C1244 1.398 . S
C1243 C1249 1.491 . S
C1244 H1235 0.950 . S
C1244 C1243 1.398 . S
C1244 C1245 1.391 . S
C1245 H1233 0.950 . S
C1245 C1241 1.393 . S
C1245 C1244 1.391 . S
C1246 H1236 0.950 . S
C1246 C1247 1.386 . S
C1246 C1248 1.391 . S
C1247 C1246 1.386 . S
C1247 C1251 1.393 . S
C1248 H1237 0.950 . S
C1248 C1246 1.391 . S
C1248 C1249 1.400 . S
C1249 C1243 1.491 . S
C1249 C1248 1.400 . S
C1249 C1250 1.398 . S
C1250 H1238 0.950 . S
C1250 C1249 1.398 . S
C1250 C1251 1.391 . S
C1251 H1239 0.950 . S
C1251 C1247 1.393 . S
C1251 C1250 1.391 . S
H1252 C1260 0.950 . S
H1253 C1265 0.950 . S
H1254 C1262 0.950 . S
H1255 C1264 0.950 . S
H1256 C1266 0.950 . S
H1257 C1268 0.950 . S
H1258 C1270 0.950 . S
H1259 C1271 0.950 . S
C1260 H1252 0.950 . S
C1260 C1261 1.386 . S
C1260 C1262 1.391 . S
C1261 C1260 1.386 . S
C1261 C1265 1.393 . S
C1262 H1254 0.950 . S
C1262 C1260 1.391 . S
C1262 C1263 1.400 . S
C1263 C1262 1.400 . S
C1263 C1264 1.398 . S
C1263 C1269 1.491 1_556 S
C1264 H1255 0.950 . S
C1264 C1263 1.398 . S
C1264 C1265 1.391 . S
C1265 H1253 0.950 . S
C1265 C1261 1.393 . S
C1265 C1264 1.391 . S
C1266 H1256 0.950 . S
C1266 C1267 1.386 . S
C1266 C1268 1.391 . S
C1267 C1266 1.386 . S
C1267 C1271 1.393 . S
C1268 H1257 0.950 . S
C1268 C1266 1.391 . S
C1268 C1269 1.400 . S
C1269 C1263 1.491 1_554 S
C1269 C1268 1.400 . S
C1269 C1270 1.398 . S
C1270 H1258 0.950 . S
C1270 C1269 1.398 . S
C1270 C1271 1.391 . S
C1271 H1259 0.950 . S
C1271 C1267 1.393 . S
C1271 C1270 1.391 . S
H1272 C1280 0.950 . S
H1273 C1285 0.950 . S
H1274 C1282 0.950 . S
H1275 C1284 0.950 . S
H1276 C1286 0.950 . S
H1277 C1288 0.950 . S
H1278 C1290 0.950 . S
H1279 C1291 0.950 . S
C1280 H1272 0.950 . S
C1280 C1281 1.386 . S
C1280 C1282 1.391 . S
C1281 C1280 1.386 . S
C1281 C1285 1.393 . S
C1282 H1274 0.950 . S
C1282 C1280 1.391 . S
C1282 C1283 1.400 . S
C1283 C1282 1.400 . S
C1283 C1284 1.398 . S
C1283 C1289 1.491 . S
C1284 H1275 0.950 . S
C1284 C1283 1.398 . S
C1284 C1285 1.391 . S
C1285 H1273 0.950 . S
C1285 C1281 1.393 . S
C1285 C1284 1.391 . S
C1286 H1276 0.950 . S
C1286 C1287 1.386 . S
C1286 C1288 1.391 . S
C1287 C1286 1.386 . S
C1287 C1291 1.393 . S
C1288 H1277 0.950 . S
C1288 C1286 1.391 . S
C1288 C1289 1.400 . S
C1289 C1283 1.491 . S
C1289 C1288 1.400 . S
C1289 C1290 1.398 . S
C1290 H1278 0.950 . S
C1290 C1289 1.398 . S
C1290 C1291 1.391 . S
C1291 H1279 0.950 . S
C1291 C1287 1.393 . S
C1291 C1290 1.391 . S
H1292 C1300 0.950 . S
H1293 C1305 0.950 . S
H1294 C1302 0.950 . S
H1295 C1304 0.950 . S
H1296 C1306 0.950 . S
H1297 C1308 0.950 . S
H1298 C1310 0.950 . S
H1299 C1311 0.950 . S
C1300 H1292 0.950 . S
C1300 C1301 1.386 . S
C1300 C1302 1.391 . S
C1301 C1300 1.386 . S
C1301 C1305 1.393 . S
C1302 H1294 0.950 . S
C1302 C1300 1.391 . S
C1302 C1303 1.400 . S
C1303 C1302 1.400 . S
C1303 C1304 1.398 . S
C1303 C1309 1.491 1_556 S
C1304 H1295 0.950 . S
C1304 C1303 1.398 . S
C1304 C1305 1.391 . S
C1305 H1293 0.950 . S
C1305 C1301 1.393 . S
C1305 C1304 1.391 . S
C1306 H1296 0.950 . S
C1306 C1307 1.386 . S
C1306 C1308 1.391 . S
C1307 C1306 1.386 . S
C1307 C1311 1.393 . S
C1308 H1297 0.950 . S
C1308 C1306 1.391 . S
C1308 C1309 1.400 . S
C1309 C1303 1.491 1_554 S
C1309 C1308 1.400 . S
C1309 C1310 1.398 . S
C1310 H1298 0.950 . S
C1310 C1309 1.398 . S
C1310 C1311 1.391 . S
C1311 H1299 0.950 . S
C1311 C1307 1.393 . S
C1311 C1310 1.391 . S
H1312 C1320 0.950 . S
H1313 C1325 0.950 . S
H1314 C1322 0.950 . S
H1315 C1324 0.950 . S
H1316 C1326 0.950 . S
H1317 C1328 0.950 . S
H1318 C1330 0.950 . S
H1319 C1331 0.950 . S
C1320 H1312 0.950 . S
C1320 C1321 1.386 . S
C1320 C1322 1.391 . S
C1321 C1320 1.386 . S
C1321 C1325 1.393 . S
C1322 H1314 0.950 . S
C1322 C1320 1.391 . S
C1322 C1323 1.400 . S
C1323 C1322 1.400 . S
C1323 C1324 1.398 . S
C1323 C1329 1.491 . S
C1324 H1315 0.950 . S
C1324 C1323 1.398 . S
C1324 C1325 1.391 . S
C1325 H1313 0.950 . S
C1325 C1321 1.393 . S
C1325 C1324 1.391 . S
C1326 H1316 0.950 . S
C1326 C1327 1.386 . S
C1326 C1328 1.391 . S
C1327 C1326 1.386 . S
C1327 C1331 1.393 . S
C1328 H1317 0.950 . S
C1328 C1326 1.391 . S
C1328 C1329 1.400 . S
C1329 C1323 1.491 . S
C1329 C1328 1.400 . S
C1329 C1330 1.398 . S
C1330 H1318 0.950 . S
C1330 C1329 1.398 . S
C1330 C1331 1.391 . S
C1331 H1319 0.950 . S
C1331 C1327 1.393 . S
C1331 C1330 1.391 . S
H1332 C1340 0.950 . S
H1333 C1345 0.950 . S
H1334 C1342 0.950 . S
H1335 C1344 0.950 . S
H1336 C1346 0.950 . S
H1337 C1348 0.950 . S
H1338 C1350 0.950 . S
H1339 C1351 0.950 . S
C1340 H1332 0.950 . S
C1340 C1341 1.386 . S
C1340 C1342 1.391 . S
C1341 C1340 1.386 . S
C1341 C1345 1.393 . S
C1342 H1334 0.950 . S
C1342 C1340 1.391 . S
C1342 C1343 1.400 . S
C1343 C1342 1.400 . S
C1343 C1344 1.398 . S
C1343 C1349 1.491 1_565 S
C1344 H1335 0.950 . S
C1344 C1343 1.398 . S
C1344 C1345 1.391 . S
C1345 H1333 0.950 . S
C1345 C1341 1.393 . S
C1345 C1344 1.391 . S
C1346 H1336 0.950 . S
C1346 C1347 1.386 . S
C1346 C1348 1.391 . S
C1347 C1346 1.386 . S
C1347 C1351 1.393 . S
C1348 H1337 0.950 . S
C1348 C1346 1.391 . S
C1348 C1349 1.400 . S
C1349 C1343 1.491 1_545 S
C1349 C1348 1.400 . S
C1349 C1350 1.398 . S
C1350 H1338 0.950 . S
C1350 C1349 1.398 . S
C1350 C1351 1.391 . S
C1351 H1339 0.950 . S
C1351 C1347 1.393 . S
C1351 C1350 1.391 . S
H1352 C1360 0.950 . S
H1353 C1365 0.950 . S
H1354 C1362 0.950 . S
H1355 C1364 0.950 . S
H1356 C1366 0.950 . S
H1357 C1368 0.950 . S
H1358 C1370 0.950 . S
H1359 C1371 0.950 . S
C1360 H1352 0.950 . S
C1360 C1361 1.386 . S
C1360 C1362 1.391 . S
C1361 C1360 1.386 . S
C1361 C1365 1.393 . S
C1362 H1354 0.950 . S
C1362 C1360 1.391 . S
C1362 C1363 1.400 . S
C1363 C1362 1.400 . S
C1363 C1364 1.398 . S
C1363 C1369 1.491 . S
C1364 H1355 0.950 . S
C1364 C1363 1.398 . S
C1364 C1365 1.391 . S
C1365 H1353 0.950 . S
C1365 C1361 1.393 . S
C1365 C1364 1.391 . S
C1366 H1356 0.950 . S
C1366 C1367 1.386 . S
C1366 C1368 1.391 . S
C1367 C1366 1.386 . S
C1367 C1371 1.393 . S
C1368 H1357 0.950 . S
C1368 C1366 1.391 . S
C1368 C1369 1.400 . S
C1369 C1363 1.491 . S
C1369 C1368 1.400 . S
C1369 C1370 1.398 . S
C1370 H1358 0.950 . S
C1370 C1369 1.398 . S
C1370 C1371 1.391 . S
C1371 H1359 0.950 . S
C1371 C1367 1.393 . S
C1371 C1370 1.391 . S
H1372 C1380 0.950 . S
H1373 C1385 0.950 . S
H1374 C1382 0.950 . S
H1375 C1384 0.950 . S
H1376 C1386 0.950 . S
H1377 C1388 0.950 . S
H1378 C1390 0.950 . S
H1379 C1391 0.950 . S
C1380 H1372 0.950 . S
C1380 C1381 1.386 . S
C1380 C1382 1.391 . S
C1381 C1380 1.386 . S
C1381 C1385 1.393 . S
C1382 H1374 0.950 . S
C1382 C1380 1.391 . S
C1382 C1383 1.400 . S
C1383 C1382 1.400 . S
C1383 C1384 1.398 . S
C1383 C1389 1.491 1_545 S
C1384 H1375 0.950 . S
C1384 C1383 1.398 . S
C1384 C1385 1.391 . S
C1385 H1373 0.950 . S
C1385 C1381 1.393 . S
C1385 C1384 1.391 . S
C1386 H1376 0.950 . S
C1386 C1387 1.386 . S
C1386 C1388 1.391 . S
C1387 C1386 1.386 . S
C1387 C1391 1.393 . S
C1388 H1377 0.950 . S
C1388 C1386 1.391 . S
C1388 C1389 1.400 . S
C1389 C1383 1.491 1_565 S
C1389 C1388 1.400 . S
C1389 C1390 1.398 . S
C1390 H1378 0.950 . S
C1390 C1389 1.398 . S
C1390 C1391 1.391 . S
C1391 H1379 0.950 . S
C1391 C1387 1.393 . S
C1391 C1390 1.391 . S
H1392 C1400 0.950 . S
H1393 C1405 0.950 . S
H1394 C1402 0.950 . S
H1395 C1404 0.950 . S
H1396 C1406 0.950 . S
H1397 C1408 0.950 . S
H1398 C1410 0.950 . S
H1399 C1411 0.950 . S
C1400 H1392 0.950 . S
C1400 C1401 1.386 . S
C1400 C1402 1.391 . S
C1401 C1400 1.386 . S
C1401 C1405 1.393 . S
C1402 H1394 0.950 . S
C1402 C1400 1.391 . S
C1402 C1403 1.400 . S
C1403 C1402 1.400 . S
C1403 C1404 1.398 . S
C1403 C1409 1.491 . S
C1404 H1395 0.950 . S
C1404 C1403 1.398 . S
C1404 C1405 1.391 . S
C1405 H1393 0.950 . S
C1405 C1401 1.393 . S
C1405 C1404 1.391 . S
C1406 H1396 0.950 . S
C1406 C1407 1.386 . S
C1406 C1408 1.391 . S
C1407 C1406 1.386 . S
C1407 C1411 1.393 . S
C1408 H1397 0.950 . S
C1408 C1406 1.391 . S
C1408 C1409 1.400 . S
C1409 C1403 1.491 . S
C1409 C1408 1.400 . S
C1409 C1410 1.398 . S
C1410 H1398 0.950 . S
C1410 C1409 1.398 . S
C1410 C1411 1.391 . S
C1411 H1399 0.950 . S
C1411 C1407 1.393 . S
C1411 C1410 1.391 . S
H1412 C1420 0.950 . S
H1413 C1425 0.950 . S
H1414 C1422 0.950 . S
H1415 C1424 0.950 . S
H1416 C1426 0.950 . S
H1417 C1428 0.950 . S
H1418 C1430 0.950 . S
H1419 C1431 0.950 . S
C1420 H1412 0.950 . S
C1420 C1421 1.386 . S
C1420 C1422 1.391 . S
C1421 C1420 1.386 . S
C1421 C1425 1.393 . S
C1422 H1414 0.950 . S
C1422 C1420 1.391 . S
C1422 C1423 1.400 . S
C1423 C1422 1.400 . S
C1423 C1424 1.398 . S
C1423 C1429 1.491 1_565 S
C1424 H1415 0.950 . S
C1424 C1423 1.398 . S
C1424 C1425 1.391 . S
C1425 H1413 0.950 . S
C1425 C1421 1.393 . S
C1425 C1424 1.391 . S
C1426 H1416 0.950 . S
C1426 C1427 1.386 . S
C1426 C1428 1.391 . S
C1427 C1426 1.386 . S
C1427 C1431 1.393 . S
C1428 H1417 0.950 . S
C1428 C1426 1.391 . S
C1428 C1429 1.400 . S
C1429 C1423 1.491 1_545 S
C1429 C1428 1.400 . S
C1429 C1430 1.398 . S
C1430 H1418 0.950 . S
C1430 C1429 1.398 . S
C1430 C1431 1.391 . S
C1431 H1419 0.950 . S
C1431 C1427 1.393 . S
C1431 C1430 1.391 . S
H1432 C1440 0.950 . S
H1433 C1445 0.950 . S
H1434 C1442 0.950 . S
H1435 C1444 0.950 . S
H1436 C1446 0.950 . S
H1437 C1448 0.950 . S
H1438 C1450 0.950 . S
H1439 C1451 0.950 . S
C1440 H1432 0.950 . S
C1440 C1441 1.386 . S
C1440 C1442 1.391 . S
C1441 C1440 1.386 . S
C1441 C1445 1.393 . S
C1442 H1434 0.950 . S
C1442 C1440 1.391 . S
C1442 C1443 1.400 . S
C1443 C1442 1.400 . S
C1443 C1444 1.398 . S
C1443 C1449 1.491 . S
C1444 H1435 0.950 . S
C1444 C1443 1.398 . S
C1444 C1445 1.391 . S
C1445 H1433 0.950 . S
C1445 C1441 1.393 . S
C1445 C1444 1.391 . S
C1446 H1436 0.950 . S
C1446 C1447 1.386 . S
C1446 C1448 1.391 . S
C1447 C1446 1.386 . S
C1447 C1451 1.393 . S
C1448 H1437 0.950 . S
C1448 C1446 1.391 . S
C1448 C1449 1.400 . S
C1449 C1443 1.491 . S
C1449 C1448 1.400 . S
C1449 C1450 1.398 . S
C1450 H1438 0.950 . S
C1450 C1449 1.398 . S
C1450 C1451 1.391 . S
C1451 H1439 0.950 . S
C1451 C1447 1.393 . S
C1451 C1450 1.391 . S
H1452 C1460 0.950 . S
H1453 C1465 0.950 . S
H1454 C1462 0.950 . S
H1455 C1464 0.950 . S
H1456 C1466 0.950 . S
H1457 C1468 0.950 . S
H1458 C1470 0.950 . S
H1459 C1471 0.950 . S
C1460 H1452 0.950 . S
C1460 C1461 1.386 . S
C1460 C1462 1.391 . S
C1461 C1460 1.386 . S
C1461 C1465 1.393 . S
C1462 H1454 0.950 . S
C1462 C1460 1.391 . S
C1462 C1463 1.400 . S
C1463 C1462 1.400 . S
C1463 C1464 1.398 . S
C1463 C1469 1.491 1_565 S
C1464 H1455 0.950 . S
C1464 C1463 1.398 . S
C1464 C1465 1.391 . S
C1465 H1453 0.950 . S
C1465 C1461 1.393 . S
C1465 C1464 1.391 . S
C1466 H1456 0.950 . S
C1466 C1467 1.386 . S
C1466 C1468 1.391 . S
C1467 C1466 1.386 . S
C1467 C1471 1.393 . S
C1468 H1457 0.950 . S
C1468 C1466 1.391 . S
C1468 C1469 1.400 . S
C1469 C1463 1.491 1_545 S
C1469 C1468 1.400 . S
C1469 C1470 1.398 . S
C1470 H1458 0.950 . S
C1470 C1469 1.398 . S
C1470 C1471 1.391 . S
C1471 H1459 0.950 . S
C1471 C1467 1.393 . S
C1471 C1470 1.391 . S
H1472 C1480 0.950 . S
H1473 C1485 0.950 . S
H1474 C1482 0.950 . S
H1475 C1484 0.950 . S
H1476 C1486 0.950 . S
H1477 C1488 0.950 . S
H1478 C1490 0.950 . S
H1479 C1491 0.950 . S
C1480 H1472 0.950 . S
C1480 C1481 1.386 . S
C1480 C1482 1.391 . S
C1481 C1480 1.386 . S
C1481 C1485 1.393 . S
C1482 H1474 0.950 . S
C1482 C1480 1.391 . S
C1482 C1483 1.400 . S
C1483 C1482 1.400 . S
C1483 C1484 1.398 . S
C1483 C1489 1.491 . S
C1484 H1475 0.950 . S
C1484 C1483 1.398 . S
C1484 C1485 1.391 . S
C1485 H1473 0.950 . S
C1485 C1481 1.393 . S
C1485 C1484 1.391 . S
C1486 H1476 0.950 . S
C1486 C1487 1.386 . S
C1486 C1488 1.391 . S
C1487 C1486 1.386 . S
C1487 C1491 1.393 . S
C1488 H1477 0.950 . S
C1488 C1486 1.391 . S
C1488 C1489 1.400 . S
C1489 C1483 1.491 . S
C1489 C1488 1.400 . S
C1489 C1490 1.398 . S
C1490 H1478 0.950 . S
C1490 C1489 1.398 . S
C1490 C1491 1.391 . S
C1491 H1479 0.950 . S
C1491 C1487 1.393 . S
C1491 C1490 1.391 . S
H1492 C1500 0.950 . S
H1493 C1505 0.950 . S
H1494 C1502 0.950 . S
H1495 C1504 0.950 . S
H1496 C1506 0.950 . S
H1497 C1508 0.950 . S
H1498 C1510 0.950 . S
H1499 C1511 0.950 . S
C1500 H1492 0.950 . S
C1500 C1501 1.386 . S
C1500 C1502 1.391 . S
C1501 C1500 1.386 . S
C1501 C1505 1.393 . S
C1502 H1494 0.950 . S
C1502 C1500 1.391 . S
C1502 C1503 1.400 . S
C1503 C1502 1.400 . S
C1503 C1504 1.398 . S
C1503 C1509 1.491 . S
C1504 H1495 0.950 . S
C1504 C1503 1.398 . S
C1504 C1505 1.391 . S
C1505 H1493 0.950 . S
C1505 C1501 1.393 . S
C1505 C1504 1.391 . S
C1506 H1496 0.950 . S
C1506 C1507 1.386 . S
C1506 C1508 1.391 . S
C1507 C1506 1.386 . S
C1507 C1511 1.393 . S
C1508 H1497 0.950 . S
C1508 C1506 1.391 . S
C1508 C1509 1.400 . S
C1509 C1503 1.491 . S
C1509 C1508 1.400 . S
C1509 C1510 1.398 . S
C1510 H1498 0.950 . S
C1510 C1509 1.398 . S
C1510 C1511 1.391 . S
C1511 H1499 0.950 . S
C1511 C1507 1.393 . S
C1511 C1510 1.391 . S
H1512 C1520 0.950 . S
H1513 C1525 0.950 . S
H1514 C1522 0.950 . S
H1515 C1524 0.950 . S
H1516 C1526 0.950 . S
H1517 C1528 0.950 . S
H1518 C1530 0.950 . S
H1519 C1531 0.950 . S
C1520 H1512 0.950 . S
C1520 C1521 1.386 . S
C1520 C1522 1.391 . S
C1521 C1520 1.386 . S
C1521 C1525 1.393 . S
C1522 H1514 0.950 . S
C1522 C1520 1.391 . S
C1522 C1523 1.400 . S
C1523 C1522 1.400 . S
C1523 C1524 1.398 . S
C1523 C1529 1.491 1_455 S
C1524 H1515 0.950 . S
C1524 C1523 1.398 . S
C1524 C1525 1.391 . S
C1525 H1513 0.950 . S
C1525 C1521 1.393 . S
C1525 C1524 1.391 . S
C1526 H1516 0.950 . S
C1526 C1527 1.386 . S
C1526 C1528 1.391 . S
C1527 C1526 1.386 . S
C1527 C1531 1.393 . S
C1528 H1517 0.950 . S
C1528 C1526 1.391 . S
C1528 C1529 1.400 . S
C1529 C1523 1.491 1_655 S
C1529 C1528 1.400 . S
C1529 C1530 1.398 . S
C1530 H1518 0.950 . S
C1530 C1529 1.398 . S
C1530 C1531 1.391 . S
C1531 H1519 0.950 . S
C1531 C1527 1.393 . S
C1531 C1530 1.391 . S
H1532 C1540 0.950 . S
H1533 C1545 0.950 . S
H1534 C1542 0.950 . S
H1535 C1544 0.950 . S
H1536 C1546 0.950 . S
H1537 C1548 0.950 . S
H1538 C1550 0.950 . S
H1539 C1551 0.950 . S
C1540 H1532 0.950 . S
C1540 C1541 1.386 . S
C1540 C1542 1.391 . S
C1541 C1540 1.386 . S
C1541 C1545 1.393 . S
C1542 H1534 0.950 . S
C1542 C1540 1.391 . S
C1542 C1543 1.400 . S
C1543 C1542 1.400 . S
C1543 C1544 1.398 . S
C1543 C1549 1.491 . S
C1544 H1535 0.950 . S
C1544 C1543 1.398 . S
C1544 C1545 1.391 . S
C1545 H1533 0.950 . S
C1545 C1541 1.393 . S
C1545 C1544 1.391 . S
C1546 H1536 0.950 . S
C1546 C1547 1.386 . S
C1546 C1548 1.391 . S
C1547 C1546 1.386 . S
C1547 C1551 1.393 . S
C1548 H1537 0.950 . S
C1548 C1546 1.391 . S
C1548 C1549 1.400 . S
C1549 C1543 1.491 . S
C1549 C1548 1.400 . S
C1549 C1550 1.398 . S
C1550 H1538 0.950 . S
C1550 C1549 1.398 . S
C1550 C1551 1.391 . S
C1551 H1539 0.950 . S
C1551 C1547 1.393 . S
C1551 C1550 1.391 . S
H1552 C1560 0.950 . S
H1553 C1565 0.950 . S
H1554 C1562 0.950 . S
H1555 C1564 0.950 . S
H1556 C1566 0.950 . S
H1557 C1568 0.950 . S
H1558 C1570 0.950 . S
H1559 C1571 0.950 . S
C1560 H1552 0.950 . S
C1560 C1561 1.386 . S
C1560 C1562 1.391 . S
C1561 C1560 1.386 . S
C1561 C1565 1.393 . S
C1562 H1554 0.950 . S
C1562 C1560 1.391 . S
C1562 C1563 1.400 . S
C1563 C1562 1.400 . S
C1563 C1564 1.398 . S
C1563 C1569 1.491 1_455 S
C1564 H1555 0.950 . S
C1564 C1563 1.398 . S
C1564 C1565 1.391 . S
C1565 H1553 0.950 . S
C1565 C1561 1.393 . S
C1565 C1564 1.391 . S
C1566 H1556 0.950 . S
C1566 C1567 1.386 . S
C1566 C1568 1.391 . S
C1567 C1566 1.386 . S
C1567 C1571 1.393 . S
C1568 H1557 0.950 . S
C1568 C1566 1.391 . S
C1568 C1569 1.400 . S
C1569 C1563 1.491 1_655 S
C1569 C1568 1.400 . S
C1569 C1570 1.398 . S
C1570 H1558 0.950 . S
C1570 C1569 1.398 . S
C1570 C1571 1.391 . S
C1571 H1559 0.950 . S
C1571 C1567 1.393 . S
C1571 C1570 1.391 . S
H1572 C1580 0.950 . S
H1573 C1585 0.950 . S
H1574 C1582 0.950 . S
H1575 C1584 0.950 . S
H1576 C1586 0.950 . S
H1577 C1588 0.950 . S
H1578 C1590 0.950 . S
H1579 C1591 0.950 . S
C1580 H1572 0.950 . S
C1580 C1581 1.386 . S
C1580 C1582 1.391 . S
C1581 C1580 1.386 . S
C1581 C1585 1.393 . S
C1582 H1574 0.950 . S
C1582 C1580 1.391 . S
C1582 C1583 1.400 . S
C1583 C1582 1.400 . S
C1583 C1584 1.398 . S
C1583 C1589 1.491 . S
C1584 H1575 0.950 . S
C1584 C1583 1.398 . S
C1584 C1585 1.391 . S
C1585 H1573 0.950 . S
C1585 C1581 1.393 . S
C1585 C1584 1.391 . S
C1586 H1576 0.950 . S
C1586 C1587 1.386 . S
C1586 C1588 1.391 . S
C1587 C1586 1.386 . S
C1587 C1591 1.393 . S
C1588 H1577 0.950 . S
C1588 C1586 1.391 . S
C1588 C1589 1.400 . S
C1589 C1583 1.491 . S
C1589 C1588 1.400 . S
C1589 C1590 1.398 . S
C1590 H1578 0.950 . S
C1590 C1589 1.398 . S
C1590 C1591 1.391 . S
C1591 H1579 0.950 . S
C1591 C1587 1.393 . S
C1591 C1590 1.391 . S
H1592 C1600 0.950 . S
H1593 C1605 0.950 . S
H1594 C1602 0.950 . S
H1595 C1604 0.950 . S
H1596 C1606 0.950 . S
H1597 C1608 0.950 . S
H1598 C1610 0.950 . S
H1599 C1611 0.950 . S
C1600 H1592 0.950 . S
C1600 C1601 1.386 . S
C1600 C1602 1.391 . S
C1601 C1600 1.386 . S
C1601 C1605 1.393 . S
C1602 H1594 0.950 . S
C1602 C1600 1.391 . S
C1602 C1603 1.400 . S
C1603 C1602 1.400 . S
C1603 C1604 1.398 . S
C1603 C1609 1.491 1_655 S
C1604 H1595 0.950 . S
C1604 C1603 1.398 . S
C1604 C1605 1.391 . S
C1605 H1593 0.950 . S
C1605 C1601 1.393 . S
C1605 C1604 1.391 . S
C1606 H1596 0.950 . S
C1606 C1607 1.386 . S
C1606 C1608 1.391 . S
C1607 C1606 1.386 . S
C1607 C1611 1.393 . S
C1608 H1597 0.950 . S
C1608 C1606 1.391 . S
C1608 C1609 1.400 . S
C1609 C1603 1.491 1_455 S
C1609 C1608 1.400 . S
C1609 C1610 1.398 . S
C1610 H1598 0.950 . S
C1610 C1609 1.398 . S
C1610 C1611 1.391 . S
C1611 H1599 0.950 . S
C1611 C1607 1.393 . S
C1611 C1610 1.391 . S
H1612 C1620 0.950 . S
H1613 C1625 0.950 . S
H1614 C1622 0.950 . S
H1615 C1624 0.950 . S
H1616 C1626 0.950 . S
H1617 C1628 0.950 . S
H1618 C1630 0.950 . S
H1619 C1631 0.950 . S
C1620 H1612 0.950 . S
C1620 C1621 1.386 . S
C1620 C1622 1.391 . S
C1621 C1620 1.386 . S
C1621 C1625 1.393 . S
C1622 H1614 0.950 . S
C1622 C1620 1.391 . S
C1622 C1623 1.400 . S
C1623 C1622 1.400 . S
C1623 C1624 1.398 . S
C1623 C1629 1.491 1_455 S
C1624 H1615 0.950 . S
C1624 C1623 1.398 . S
C1624 C1625 1.391 . S
C1625 H1613 0.950 . S
C1625 C1621 1.393 . S
C1625 C1624 1.391 . S
C1626 H1616 0.950 . S
C1626 C1627 1.386 . S
C1626 C1628 1.391 . S
C1627 C1626 1.386 . S
C1627 C1631 1.393 . S
C1628 H1617 0.950 . S
C1628 C1626 1.391 . S
C1628 C1629 1.400 . S
C1629 C1623 1.491 1_655 S
C1629 C1628 1.400 . S
C1629 C1630 1.398 . S
C1630 H1618 0.950 . S
C1630 C1629 1.398 . S
C1630 C1631 1.391 . S
C1631 H1619 0.950 . S
C1631 C1627 1.393 . S
C1631 C1630 1.391 . S
H1632 C1640 0.950 . S
H1633 C1645 0.950 . S
H1634 C1642 0.950 . S
H1635 C1644 0.950 . S
H1636 C1646 0.950 . S
H1637 C1648 0.950 . S
H1638 C1650 0.950 . S
H1639 C1651 0.950 . S
C1640 H1632 0.950 . S
C1640 C1641 1.386 . S
C1640 C1642 1.391 . S
C1641 C1640 1.386 . S
C1641 C1645 1.393 . S
C1642 H1634 0.950 . S
C1642 C1640 1.391 . S
C1642 C1643 1.400 . S
C1643 C1642 1.400 . S
C1643 C1644 1.398 . S
C1643 C1649 1.491 1_655 S
C1644 H1635 0.950 . S
C1644 C1643 1.398 . S
C1644 C1645 1.391 . S
C1645 H1633 0.950 . S
C1645 C1641 1.393 . S
C1645 C1644 1.391 . S
C1646 H1636 0.950 . S
C1646 C1647 1.386 . S
C1646 C1648 1.391 . S
C1647 C1646 1.386 . S
C1647 C1651 1.393 . S
C1648 H1637 0.950 . S
C1648 C1646 1.391 . S
C1648 C1649 1.400 . S
C1649 C1643 1.491 1_455 S
C1649 C1648 1.400 . S
C1649 C1650 1.398 . S
C1650 H1638 0.950 . S
C1650 C1649 1.398 . S
C1650 C1651 1.391 . S
C1651 H1639 0.950 . S
C1651 C1647 1.393 . S
C1651 C1650 1.391 . S
H1652 C1660 0.950 . S
H1653 C1665 0.950 . S
H1654 C1662 0.950 . S
H1655 C1664 0.950 . S
H1656 C1666 0.950 . S
H1657 C1668 0.950 . S
H1658 C1670 0.950 . S
H1659 C1671 0.950 . S
C1660 H1652 0.950 . S
C1660 C1661 1.386 . S
C1660 C1662 1.391 . S
C1661 C1660 1.386 . S
C1661 C1665 1.393 . S
C1662 H1654 0.950 . S
C1662 C1660 1.391 . S
C1662 C1663 1.400 . S
C1663 C1662 1.400 . S
C1663 C1664 1.398 . S
C1663 C1669 1.491 . S
C1664 H1655 0.950 . S
C1664 C1663 1.398 . S
C1664 C1665 1.391 . S
C1665 H1653 0.950 . S
C1665 C1661 1.393 . S
C1665 C1664 1.391 . S
C1666 H1656 0.950 . S
C1666 C1667 1.386 . S
C1666 C1668 1.391 . S
C1667 C1666 1.386 . S
C1667 C1671 1.393 . S
C1668 H1657 0.950 . S
C1668 C1666 1.391 . S
C1668 C1669 1.400 . S
C1669 C1663 1.491 . S
C1669 C1668 1.400 . S
C1669 C1670 1.398 . S
C1670 H1658 0.950 . S
C1670 C1669 1.398 . S
C1670 C1671 1.391 . S
C1671 H1659 0.950 . S
C1671 C1667 1.393 . S
C1671 C1670 1.391 . S
H1672 C1680 0.950 . S
H1673 C1685 0.950 . S
H1674 C1682 0.950 . S
H1675 C1684 0.950 . S
H1676 C1686 0.950 . S
H1677 C1688 0.950 . S
H1678 C1690 0.950 . S
H1679 C1691 0.950 . S
C1680 H1672 0.950 . S
C1680 C1681 1.386 . S
C1680 C1682 1.391 . S
C1681 C1680 1.386 . S
C1681 C1685 1.393 . S
C1682 H1674 0.950 . S
C1682 C1680 1.391 . S
C1682 C1683 1.400 . S
C1683 C1682 1.400 . S
C1683 C1684 1.398 . S
C1683 C1689 1.491 1_455 S
C1684 H1675 0.950 . S
C1684 C1683 1.398 . S
C1684 C1685 1.391 . S
C1685 H1673 0.950 . S
C1685 C1681 1.393 . S
C1685 C1684 1.391 . S
C1686 H1676 0.950 . S
C1686 C1687 1.386 . S
C1686 C1688 1.391 . S
C1687 C1686 1.386 . S
C1687 C1691 1.393 . S
C1688 H1677 0.950 . S
C1688 C1686 1.391 . S
C1688 C1689 1.400 . S
C1689 C1683 1.491 1_655 S
C1689 C1688 1.400 . S
C1689 C1690 1.398 . S
C1690 H1678 0.950 . S
C1690 C1689 1.398 . S
C1690 C1691 1.391 . S
C1691 H1679 0.950 . S
C1691 C1687 1.393 . S
C1691 C1690 1.391 . S
H1692 C1700 0.950 . S
H1693 C1705 0.950 . S
H1694 C1702 0.950 . S
H1695 C1704 0.950 . S
H1696 C1706 0.950 . S
H1697 C1708 0.950 . S
H1698 C1710 0.950 . S
H1699 C1711 0.950 . S
C1700 H1692 0.950 . S
C1700 C1701 1.386 . S
C1700 C1702 1.391 . S
C1701 C1700 1.386 . S
C1701 C1705 1.393 . S
C1702 H1694 0.950 . S
C1702 C1700 1.391 . S
C1702 C1703 1.400 . S
C1703 C1702 1.400 . S
C1703 C1704 1.398 . S
C1703 C1709 1.491 . S
C1704 H1695 0.950 . S
C1704 C1703 1.398 . S
C1704 C1705 1.391 . S
C1705 H1693 0.950 . S
C1705 C1701 1.393 . S
C1705 C1704 1.391 . S
C1706 H1696 0.950 . S
C1706 C1707 1.386 . S
C1706 C1708 1.391 . S
C1707 C1706 1.386 . S
C1707 C1711 1.393 . S
C1708 H1697 0.950 . S
C1708 C1706 1.391 . S
C1708 C1709 1.400 . S
C1709 C1703 1.491 . S
C1709 C1708 1.400 . S
C1709 C1710 1.398 . S
C1710 H1698 0.950 . S
C1710 C1709 1.398 . S
C1710 C1711 1.391 . S
C1711 H1699 0.950 . S
C1711 C1707 1.393 . S
C1711 C1710 1.391 . S
H1712 C1720 0.950 . S
H1713 C1725 0.950 . S
H1714 C1722 0.950 . S
H1715 C1724 0.950 . S
H1716 C1726 0.950 . S
H1717 C1728 0.950 . S
H1718 C1730 0.950 . S
H1719 C1731 0.950 . S
C1720 H1712 0.950 . S
C1720 C1721 1.386 . S
C1720 C1722 1.391 . S
C1721 C1720 1.386 . S
C1721 C1725 1.393 . S
C1722 H1714 0.950 . S
C1722 C1720 1.391 . S
C1722 C1723 1.400 . S
C1723 C1722 1.400 . S
C1723 C1724 1.398 . S
C1723 C1729 1.491 1_655 S
C1724 H1715 0.950 . S
C1724 C1723 1.398 . S
C1724 C1725 1.391 . S
C1725 H1713 0.950 . S
C1725 C1721 1.393 . S
C1725 C1724 1.391 . S
C1726 H1716 0.950 . S
C1726 C1727 1.386 . S
C1726 C1728 1.391 . S
C1727 C1726 1.386 . S
C1727 C1731 1.393 . S
C1728 H1717 0.950 . S
C1728 C1726 1.391 . S
C1728 C1729 1.400 . S
C1729 C1723 1.491 1_455 S
C1729 C1728 1.400 . S
C1729 C1730 1.398 . S
C1730 H1718 0.950 . S
C1730 C1729 1.398 . S
C1730 C1731 1.391 . S
C1731 H1719 0.950 . S
C1731 C1727 1.393 . S
C1731 C1730 1.391 . S
H1732 C1740 0.950 . S
H1733 C1745 0.950 . S
H1734 C1742 0.950 . S
H1735 C1744 0.950 . S
H1736 C1746 0.950 . S
H1737 C1748 0.950 . S
H1738 C1750 0.950 . S
H1739 C1751 0.950 . S
C1740 H1732 0.950 . S
C1740 C1741 1.386 . S
C1740 C1742 1.391 . S
C1741 C1740 1.386 . S
C1741 C1745 1.393 . S
C1742 H1734 0.950 . S
C1742 C1740 1.391 . S
C1742 C1743 1.400 . S
C1743 C1742 1.400 . S
C1743 C1744 1.398 . S
C1743 C1749 1.491 . S
C1744 H1735 0.950 . S
C1744 C1743 1.398 . S
C1744 C1745 1.391 . S
C1745 H1733 0.950 . S
C1745 C1741 1.393 . S
C1745 C1744 1.391 . S
C1746 H1736 0.950 . S
C1746 C1747 1.386 . S
C1746 C1748 1.391 . S
C1747 C1746 1.386 . S
C1747 C1751 1.393 . S
C1748 H1737 0.950 . S
C1748 C1746 1.391 . S
C1748 C1749 1.400 . S
C1749 C1743 1.491 . S
C1749 C1748 1.400 . S
C1749 C1750 1.398 . S
C1750 H1738 0.950 . S
C1750 C1749 1.398 . S
C1750 C1751 1.391 . S
C1751 H1739 0.950 . S
C1751 C1747 1.393 . S
C1751 C1750 1.391 . S
H1752 C1760 0.950 . S
H1753 C1765 0.950 . S
H1754 C1762 0.950 . S
H1755 C1764 0.950 . S
H1756 C1766 0.950 . S
H1757 C1768 0.950 . S
H1758 C1770 0.950 . S
H1759 C1771 0.950 . S
C1760 H1752 0.950 . S
C1760 C1761 1.386 . S
C1760 C1762 1.391 . S
C1761 C1760 1.386 . S
C1761 C1765 1.393 . S
C1762 H1754 0.950 . S
C1762 C1760 1.391 . S
C1762 C1763 1.400 . S
C1763 C1762 1.400 . S
C1763 C1764 1.398 . S
C1763 C1769 1.491 1_655 S
C1764 H1755 0.950 . S
C1764 C1763 1.398 . S
C1764 C1765 1.391 . S
C1765 H1753 0.950 . S
C1765 C1761 1.393 . S
C1765 C1764 1.391 . S
C1766 H1756 0.950 . S
C1766 C1767 1.386 . S
C1766 C1768 1.391 . S
C1767 C1766 1.386 . S
C1767 C1771 1.393 . S
C1768 H1757 0.950 . S
C1768 C1766 1.391 . S
C1768 C1769 1.400 . S
C1769 C1763 1.491 1_455 S
C1769 C1768 1.400 . S
C1769 C1770 1.398 . S
C1770 H1758 0.950 . S
C1770 C1769 1.398 . S
C1770 C1771 1.391 . S
C1771 H1759 0.950 . S
C1771 C1767 1.393 . S
C1771 C1770 1.391 . S
H1772 C1780 0.950 . S
H1773 C1785 0.950 . S
H1774 C1782 0.950 . S
H1775 C1784 0.950 . S
H1776 C1786 0.950 . S
H1777 C1788 0.950 . S
H1778 C1790 0.950 . S
H1779 C1791 0.950 . S
C1780 H1772 0.950 . S
C1780 C1781 1.386 . S
C1780 C1782 1.391 . S
C1781 C1780 1.386 . S
C1781 C1785 1.393 . S
C1782 H1774 0.950 . S
C1782 C1780 1.391 . S
C1782 C1783 1.400 . S
C1783 C1782 1.400 . S
C1783 C1784 1.398 . S
C1783 C1789 1.491 . S
C1784 H1775 0.950 . S
C1784 C1783 1.398 . S
C1784 C1785 1.391 . S
C1785 H1773 0.950 . S
C1785 C1781 1.393 . S
C1785 C1784 1.391 . S
C1786 H1776 0.950 . S
C1786 C1787 1.386 . S
C1786 C1788 1.391 . S
C1787 C1786 1.386 . S
C1787 C1791 1.393 . S
C1788 H1777 0.950 . S
C1788 C1786 1.391 . S
C1788 C1789 1.400 . S
C1789 C1783 1.491 . S
C1789 C1788 1.400 . S
C1789 C1790 1.398 . S
C1790 H1778 0.950 . S
C1790 C1789 1.398 . S
C1790 C1791 1.391 . S
C1791 H1779 0.950 . S
C1791 C1787 1.393 . S
C1791 C1790 1.391 . S
H1792 C1800 0.950 . S
H1793 C1805 0.950 . S
H1794 C1802 0.950 . S
H1795 C1804 0.950 . S
H1796 C1806 0.950 . S
H1797 C1808 0.950 . S
H1798 C1810 0.950 . S
H1799 C1811 0.950 . S
C1800 H1792 0.950 . S
C1800 C1801 1.386 . S
C1800 C1802 1.391 . S
C1801 C1800 1.386 . S
C1801 C1805 1.393 . S
C1802 H1794 0.950 . S
C1802 C1800 1.391 . S
C1802 C1803 1.400 . S
C1803 C1802 1.400 . S
C1803 C1804 1.398 . S
C1803 C1809 1.491 1_545 S
C1804 H1795 0.950 . S
C1804 C1803 1.398 . S
C1804 C1805 1.391 . S
C1805 H1793 0.950 . S
C1805 C1801 1.393 . S
C1805 C1804 1.391 . S
C1806 H1796 0.950 . S
C1806 C1807 1.386 . S
C1806 C1808 1.391 . S
C1807 C1806 1.386 . S
C1807 C1811 1.393 . S
C1808 H1797 0.950 . S
C1808 C1806 1.391 . S
C1808 C1809 1.400 . S
C1809 C1803 1.491 1_565 S
C1809 C1808 1.400 . S
C1809 C1810 1.398 . S
C1810 H1798 0.950 . S
C1810 C1809 1.398 . S
C1810 C1811 1.391 . S
C1811 H1799 0.950 . S
C1811 C1807 1.393 . S
C1811 C1810 1.391 . S
H1812 C1820 0.950 . S
H1813 C1825 0.950 . S
H1814 C1822 0.950 . S
H1815 C1824 0.950 . S
H1816 C1826 0.950 . S
H1817 C1828 0.950 . S
H1818 C1830 0.950 . S
H1819 C1831 0.950 . S
C1820 H1812 0.950 . S
C1820 C1821 1.386 . S
C1820 C1822 1.391 . S
C1821 C1820 1.386 . S
C1821 C1825 1.393 . S
C1822 H1814 0.950 . S
C1822 C1820 1.391 . S
C1822 C1823 1.400 . S
C1823 C1822 1.400 . S
C1823 C1824 1.398 . S
C1823 C1829 1.491 . S
C1824 H1815 0.950 . S
C1824 C1823 1.398 . S
C1824 C1825 1.391 . S
C1825 H1813 0.950 . S
C1825 C1821 1.393 . S
C1825 C1824 1.391 . S
C1826 H1816 0.950 . S
C1826 C1827 1.386 . S
C1826 C1828 1.391 . S
C1827 C1826 1.386 . S
C1827 C1831 1.393 . S
C1828 H1817 0.950 . S
C1828 C1826 1.391 . S
C1828 C1829 1.400 . S
C1829 C1823 1.491 . S
C1829 C1828 1.400 . S
C1829 C1830 1.398 . S
C1830 H1818 0.950 . S
C1830 C1829 1.398 . S
C1830 C1831 1.391 . S
C1831 H1819 0.950 . S
C1831 C1827 1.393 . S
C1831 C1830 1.391 . S
H1832 C1840 0.950 . S
H1833 C1845 0.950 . S
H1834 C1842 0.950 . S
H1835 C1844 0.950 . S
H1836 C1846 0.950 . S
H1837 C1848 0.950 . S
H1838 C1850 0.950 . S
H1839 C1851 0.950 . S
C1840 H1832 0.950 . S
C1840 C1841 1.386 . S
C1840 C1842 1.391 . S
C1841 C1840 1.386 . S
C1841 C1845 1.393 . S
C1842 H1834 0.950 . S
C1842 C1840 1.391 . S
C1842 C1843 1.400 . S
C1843 C1842 1.400 . S
C1843 C1844 1.398 . S
C1843 C1849 1.491 1_545 S
C1844 H1835 0.950 . S
C1844 C1843 1.398 . S
C1844 C1845 1.391 . S
C1845 H1833 0.950 . S
C1845 C1841 1.393 . S
C1845 C1844 1.391 . S
C1846 H1836 0.950 . S
C1846 C1847 1.386 . S
C1846 C1848 1.391 . S
C1847 C1846 1.386 . S
C1847 C1851 1.393 . S
C1848 H1837 0.950 . S
C1848 C1846 1.391 . S
C1848 C1849 1.400 . S
C1849 C1843 1.491 1_565 S
C1849 C1848 1.400 . S
C1849 C1850 1.398 . S
C1850 H1838 0.950 . S
C1850 C1849 1.398 . S
C1850 C1851 1.391 . S
C1851 H1839 0.950 . S
C1851 C1847 1.393 . S
C1851 C1850 1.391 . S
H1852 C1860 0.950 . S
H1853 C1865 0.950 . S
H1854 C1862 0.950 . S
H1855 C1864 0.950 . S
H1856 C1866 0.950 . S
H1857 C1868 0.950 . S
H1858 C1870 0.950 . S
H1859 C1871 0.950 . S
C1860 H1852 0.950 . S
C1860 C1861 1.386 . S
C1860 C1862 1.391 . S
C1861 C1860 1.386 . S
C1861 C1865 1.393 . S
C1862 H1854 0.950 . S
C1862 C1860 1.391 . S
C1862 C1863 1.400 . S
C1863 C1862 1.400 . S
C1863 C1864 1.398 . S
C1863 C1869 1.491 . S
C1864 H1855 0.950 . S
C1864 C1863 1.398 . S
C1864 C1865 1.391 . S
C1865 H1853 0.950 . S
C1865 C1861 1.393 . S
C1865 C1864 1.391 . S
C1866 H1856 0.950 . S
C1866 C1867 1.386 . S
C1866 C1868 1.391 . S
C1867 C1866 1.386 . S
C1867 C1871 1.393 . S
C1868 H1857 0.950 . S
C1868 C1866 1.391 . S
C1868 C1869 1.400 . S
C1869 C1863 1.491 . S
C1869 C1868 1.400 . S
C1869 C1870 1.398 . S
C1870 H1858 0.950 . S
C1870 C1869 1.398 . S
C1870 C1871 1.391 . S
C1871 H1859 0.950 . S
C1871 C1867 1.393 . S
C1871 C1870 1.391 . S
H1872 C1880 0.950 . S
H1873 C1885 0.950 . S
H1874 C1882 0.950 . S
H1875 C1884 0.950 . S
H1876 C1886 0.950 . S
H1877 C1888 0.950 . S
H1878 C1890 0.950 . S
H1879 C1891 0.950 . S
C1880 H1872 0.950 . S
C1880 C1881 1.386 . S
C1880 C1882 1.391 . S
C1881 C1880 1.386 . S
C1881 C1885 1.393 . S
C1882 H1874 0.950 . S
C1882 C1880 1.391 . S
C1882 C1883 1.400 . S
C1883 C1882 1.400 . S
C1883 C1884 1.398 . S
C1883 C1889 1.491 1_545 S
C1884 H1875 0.950 . S
C1884 C1883 1.398 . S
C1884 C1885 1.391 . S
C1885 H1873 0.950 . S
C1885 C1881 1.393 . S
C1885 C1884 1.391 . S
C1886 H1876 0.950 . S
C1886 C1887 1.386 . S
C1886 C1888 1.391 . S
C1887 C1886 1.386 . S
C1887 C1891 1.393 . S
C1888 H1877 0.950 . S
C1888 C1886 1.391 . S
C1888 C1889 1.400 . S
C1889 C1883 1.491 1_565 S
C1889 C1888 1.400 . S
C1889 C1890 1.398 . S
C1890 H1878 0.950 . S
C1890 C1889 1.398 . S
C1890 C1891 1.391 . S
C1891 H1879 0.950 . S
C1891 C1887 1.393 . S
C1891 C1890 1.391 . S
H1892 C1900 0.950 . S
H1893 C1905 0.950 . S
H1894 C1902 0.950 . S
H1895 C1904 0.950 . S
H1896 C1906 0.950 . S
H1897 C1908 0.950 . S
H1898 C1910 0.950 . S
H1899 C1911 0.950 . S
C1900 H1892 0.950 . S
C1900 C1901 1.386 . S
C1900 C1902 1.391 . S
C1901 C1900 1.386 . S
C1901 C1905 1.393 . S
C1902 H1894 0.950 . S
C1902 C1900 1.391 . S
C1902 C1903 1.400 . S
C1903 C1902 1.400 . S
C1903 C1904 1.398 . S
C1903 C1909 1.491 . S
C1904 H1895 0.950 . S
C1904 C1903 1.398 . S
C1904 C1905 1.391 . S
C1905 H1893 0.950 . S
C1905 C1901 1.393 . S
C1905 C1904 1.391 . S
C1906 H1896 0.950 . S
C1906 C1907 1.386 . S
C1906 C1908 1.391 . S
C1907 C1906 1.386 . S
C1907 C1911 1.393 . S
C1908 H1897 0.950 . S
C1908 C1906 1.391 . S
C1908 C1909 1.400 . S
C1909 C1903 1.491 . S
C1909 C1908 1.400 . S
C1909 C1910 1.398 . S
C1910 H1898 0.950 . S
C1910 C1909 1.398 . S
C1910 C1911 1.391 . S
C1911 H1899 0.950 . S
C1911 C1907 1.393 . S
C1911 C1910 1.391 . S
H1912 C1920 0.950 . S
H1913 C1925 0.950 . S
H1914 C1922 0.950 . S
H1915 C1924 0.950 . S
H1916 C1926 0.950 . S
H1917 C1928 0.950 . S
H1918 C1930 0.950 . S
H1919 C1931 0.950 . S
C1920 H1912 0.950 . S
C1920 C1921 1.386 . S
C1920 C1922 1.391 . S
C1921 C1920 1.386 . S
C1921 C1925 1.393 . S
C1922 H1914 0.950 . S
C1922 C1920 1.391 . S
C1922 C1923 1.400 . S
C1923 C1922 1.400 . S
C1923 C1924 1.398 . S
C1923 C1929 1.491 1_545 S
C1924 H1915 0.950 . S
C1924 C1923 1.398 . S
C1924 C1925 1.391 . S
C1925 H1913 0.950 . S
C1925 C1921 1.393 . S
C1925 C1924 1.391 . S
C1926 H1916 0.950 . S
C1926 C1927 1.386 . S
C1926 C1928 1.391 . S
C1927 C1926 1.386 . S
C1927 C1931 1.393 . S
C1928 H1917 0.950 . S
C1928 C1926 1.391 . S
C1928 C1929 1.400 . S
C1929 C1923 1.491 1_565 S
C1929 C1928 1.400 . S
C1929 C1930 1.398 . S
C1930 H1918 0.950 . S
C1930 C1929 1.398 . S
C1930 C1931 1.391 . S
C1931 H1919 0.950 . S
C1931 C1927 1.393 . S
C1931 C1930 1.391 . S
H1932 C1940 0.950 . S
H1933 C1945 0.950 . S
H1934 C1942 0.950 . S
H1935 C1944 0.950 . S
H1936 C1946 0.950 . S
H1937 C1948 0.950 . S
H1938 C1950 0.950 . S
H1939 C1951 0.950 . S
C1940 H1932 0.950 . S
C1940 C1941 1.386 . S
C1940 C1942 1.391 . S
C1941 C1940 1.386 . S
C1941 C1945 1.393 . S
C1942 H1934 0.950 . S
C1942 C1940 1.391 . S
C1942 C1943 1.400 . S
C1943 C1942 1.400 . S
C1943 C1944 1.398 . S
C1943 C1949 1.491 . S
C1944 H1935 0.950 . S
C1944 C1943 1.398 . S
C1944 C1945 1.391 . S
C1945 H1933 0.950 . S
C1945 C1941 1.393 . S
C1945 C1944 1.391 . S
C1946 H1936 0.950 . S
C1946 C1947 1.386 . S
C1946 C1948 1.391 . S
C1947 C1946 1.386 . S
C1947 C1951 1.393 . S
C1948 H1937 0.950 . S
C1948 C1946 1.391 . S
C1948 C1949 1.400 . S
C1949 C1943 1.491 . S
C1949 C1948 1.400 . S
C1949 C1950 1.398 . S
C1950 H1938 0.950 . S
C1950 C1949 1.398 . S
C1950 C1951 1.391 . S
C1951 H1939 0.950 . S
C1951 C1947 1.393 . S
C1951 C1950 1.391 . S
H1952 C1960 0.950 . S
H1953 C1965 0.950 . S
H1954 C1962 0.950 . S
H1955 C1964 0.950 . S
H1956 C1966 0.950 . S
H1957 C1968 0.950 . S
H1958 C1970 0.950 . S
H1959 C1971 0.950 . S
C1960 H1952 0.950 . S
C1960 C1961 1.386 . S
C1960 C1962 1.391 . S
C1961 C1960 1.386 . S
C1961 C1965 1.393 . S
C1962 H1954 0.950 . S
C1962 C1960 1.391 . S
C1962 C1963 1.400 . S
C1963 C1962 1.400 . S
C1963 C1964 1.398 . S
C1963 C1969 1.491 1_556 S
C1964 H1955 0.950 . S
C1964 C1963 1.398 . S
C1964 C1965 1.391 . S
C1965 H1953 0.950 . S
C1965 C1961 1.393 . S
C1965 C1964 1.391 . S
C1966 H1956 0.950 . S
C1966 C1967 1.386 . S
C1966 C1968 1.391 . S
C1967 C1966 1.386 . S
C1967 C1971 1.393 . S
C1968 H1957 0.950 . S
C1968 C1966 1.391 . S
C1968 C1969 1.400 . S
C1969 C1963 1.491 1_554 S
C1969 C1968 1.400 . S
C1969 C1970 1.398 . S
C1970 H1958 0.950 . S
C1970 C1969 1.398 . S
C1970 C1971 1.391 . S
C1971 H1959 0.950 . S
C1971 C1967 1.393 . S
C1971 C1970 1.391 . S
H1972 C1980 0.950 . S
H1973 C1985 0.950 . S
H1974 C1982 0.950 . S
H1975 C1984 0.950 . S
H1976 C1986 0.950 . S
H1977 C1988 0.950 . S
H1978 C1990 0.950 . S
H1979 C1991 0.950 . S
C1980 H1972 0.950 . S
C1980 C1981 1.386 . S
C1980 C1982 1.391 . S
C1981 C1980 1.386 . S
C1981 C1985 1.393 . S
C1982 H1974 0.950 . S
C1982 C1980 1.391 . S
C1982 C1983 1.400 . S
C1983 C1982 1.400 . S
C1983 C1984 1.398 . S
C1983 C1989 1.444 1_556 S
C1984 H1975 0.950 . S
C1984 C1983 1.398 . S
C1984 C1985 1.391 . S
C1985 H1973 0.950 . S
C1985 C1981 1.393 . S
C1985 C1984 1.391 . S
C1986 H1976 0.950 . S
C1986 C1987 1.386 . S
C1986 C1988 1.391 . S
C1987 C1986 1.386 . S
C1987 C1991 1.393 . S
C1988 H1977 0.950 . S
C1988 C1986 1.391 . S
C1988 C1989 1.425 . S
C1989 C1983 1.444 1_554 S
C1989 C1988 1.425 . S
C1989 C1990 1.422 . S
C1990 H1978 0.950 . S
C1990 C1989 1.422 . S
C1990 C1991 1.391 . S
C1991 H1979 0.950 . S
C1991 C1987 1.393 . S
C1991 C1990 1.391 . S
H1992 C2000 0.950 . S
H1993 C2005 0.950 . S
H1994 C2002 0.950 . S
H1995 C2004 0.950 . S
H1996 C2006 0.950 . S
H1997 C2008 0.950 . S
H1998 C2010 0.950 . S
H1999 C2011 0.950 . S
C2000 H1992 0.950 . S
C2000 C2001 1.386 . S
C2000 C2002 1.391 . S
C2001 C2000 1.386 . S
C2001 C2005 1.393 . S
C2002 H1994 0.950 . S
C2002 C2000 1.391 . S
C2002 C2003 1.400 . S
C2003 C2002 1.400 . S
C2003 C2004 1.398 . S
C2003 C2009 1.491 . S
C2004 H1995 0.950 . S
C2004 C2003 1.398 . S
C2004 C2005 1.391 . S
C2005 H1993 0.950 . S
C2005 C2001 1.393 . S
C2005 C2004 1.391 . S
C2006 H1996 0.950 . S
C2006 C2007 1.386 . S
C2006 C2008 1.391 . S
C2007 C2006 1.386 . S
C2007 C2011 1.393 . S
C2008 H1997 0.950 . S
C2008 C2006 1.391 . S
C2008 C2009 1.400 . S
C2009 C2003 1.491 . S
C2009 C2008 1.400 . S
C2009 C2010 1.398 . S
C2010 H1998 0.950 . S
C2010 C2009 1.398 . S
C2010 C2011 1.391 . S
C2011 H1999 0.950 . S
C2011 C2007 1.393 . S
C2011 C2010 1.391 . S
H2012 C2020 0.950 . S
H2013 C2025 0.950 . S
H2014 C2022 0.950 . S
H2015 C2024 0.950 . S
H2016 C2026 0.950 . S
H2017 C2028 0.950 . S
H2018 C2030 0.950 . S
H2019 C2031 0.950 . S
C2020 H2012 0.950 . S
C2020 C2021 1.386 . S
C2020 C2022 1.391 . S
C2021 C2020 1.386 . S
C2021 C2025 1.393 . S
C2022 H2014 0.950 . S
C2022 C2020 1.391 . S
C2022 C2023 1.400 . S
C2023 C2022 1.400 . S
C2023 C2024 1.398 . S
C2023 C2029 1.491 1_556 S
C2024 H2015 0.950 . S
C2024 C2023 1.398 . S
C2024 C2025 1.391 . S
C2025 H2013 0.950 . S
C2025 C2021 1.393 . S
C2025 C2024 1.391 . S
C2026 H2016 0.950 . S
C2026 C2027 1.386 . S
C2026 C2028 1.391 . S
C2027 C2026 1.386 . S
C2027 C2031 1.393 . S
C2028 H2017 0.950 . S
C2028 C2026 1.391 . S
C2028 C2029 1.400 . S
C2029 C2023 1.491 1_554 S
C2029 C2028 1.400 . S
C2029 C2030 1.398 . S
C2030 H2018 0.950 . S
C2030 C2029 1.398 . S
C2030 C2031 1.391 . S
C2031 H2019 0.950 . S
C2031 C2027 1.393 . S
C2031 C2030 1.391 . S
H2032 C2040 0.950 . S
H2033 C2045 0.950 . S
H2034 C2042 0.950 . S
H2035 C2044 0.950 . S
H2036 C2046 0.950 . S
H2037 C2048 0.950 . S
H2038 C2050 0.950 . S
H2039 C2051 0.950 . S
C2040 H2032 0.950 . S
C2040 C2041 1.386 . S
C2040 C2042 1.391 . S
C2041 C2040 1.386 . S
C2041 C2045 1.393 . S
C2042 H2034 0.950 . S
C2042 C2040 1.391 . S
C2042 C2043 1.400 . S
C2043 C2042 1.400 . S
C2043 C2044 1.398 . S
C2043 C2049 1.491 . S
C2044 H2035 0.950 . S
C2044 C2043 1.398 . S
C2044 C2045 1.391 . S
C2045 H2033 0.950 . S
C2045 C2041 1.393 . S
C2045 C2044 1.391 . S
C2046 H2036 0.950 . S
C2046 C2047 1.386 . S
C2046 C2048 1.391 . S
C2047 C2046 1.386 . S
C2047 C2051 1.393 . S
C2048 H2037 0.950 . S
C2048 C2046 1.391 . S
C2048 C2049 1.400 . S
C2049 C2043 1.491 . S
C2049 C2048 1.400 . S
C2049 C2050 1.398 . S
C2050 H2038 0.950 . S
C2050 C2049 1.398 . S
C2050 C2051 1.391 . S
C2051 H2039 0.950 . S
C2051 C2047 1.393 . S
C2051 C2050 1.391 . S
H2052 C2060 0.950 . S
H2053 C2065 0.950 . S
H2054 C2062 0.950 . S
H2055 C2064 0.950 . S
H2056 C2066 0.950 . S
H2057 C2068 0.950 . S
H2058 C2070 0.950 . S
H2059 C2071 0.950 . S
C2060 H2052 0.950 . S
C2060 C2061 1.386 . S
C2060 C2062 1.391 . S
C2061 C2060 1.386 . S
C2061 C2065 1.393 . S
C2062 H2054 0.950 . S
C2062 C2060 1.391 . S
C2062 C2063 1.400 . S
C2063 C2062 1.400 . S
C2063 C2064 1.398 . S
C2063 C2069 1.491 1_556 S
C2064 H2055 0.950 . S
C2064 C2063 1.398 . S
C2064 C2065 1.391 . S
C2065 H2053 0.950 . S
C2065 C2061 1.393 . S
C2065 C2064 1.391 . S
C2066 H2056 0.950 . S
C2066 C2067 1.386 . S
C2066 C2068 1.391 . S
C2067 C2066 1.386 . S
C2067 C2071 1.393 . S
C2068 H2057 0.950 . S
C2068 C2066 1.391 . S
C2068 C2069 1.400 . S
C2069 C2063 1.491 1_554 S
C2069 C2068 1.400 . S
C2069 C2070 1.398 . S
C2070 H2058 0.950 . S
C2070 C2069 1.398 . S
C2070 C2071 1.391 . S
C2071 H2059 0.950 . S
C2071 C2067 1.393 . S
C2071 C2070 1.391 . S
H2072 C2080 0.950 . S
H2073 C2085 0.950 . S
H2074 C2082 0.950 . S
H2075 C2084 0.950 . S
H2076 C2086 0.950 . S
H2077 C2088 0.950 . S
H2078 C2090 0.950 . S
H2079 C2091 0.950 . S
C2080 H2072 0.950 . S
C2080 C2081 1.386 . S
C2080 C2082 1.391 . S
C2081 C2080 1.386 . S
C2081 C2085 1.393 . S
C2082 H2074 0.950 . S
C2082 C2080 1.391 . S
C2082 C2083 1.400 . S
C2083 C2082 1.400 . S
C2083 C2084 1.398 . S
C2083 C2089 1.491 . S
C2084 H2075 0.950 . S
C2084 C2083 1.398 . S
C2084 C2085 1.391 . S
C2085 H2073 0.950 . S
C2085 C2081 1.393 . S
C2085 C2084 1.391 . S
C2086 H2076 0.950 . S
C2086 C2087 1.386 . S
C2086 C2088 1.391 . S
C2087 C2086 1.386 . S
C2087 C2091 1.393 . S
C2088 H2077 0.950 . S
C2088 C2086 1.391 . S
C2088 C2089 1.400 . S
C2089 C2083 1.491 . S
C2089 C2088 1.400 . S
C2089 C2090 1.398 . S
C2090 H2078 0.950 . S
C2090 C2089 1.398 . S
C2090 C2091 1.391 . S
C2091 H2079 0.950 . S
C2091 C2087 1.393 . S
C2091 C2090 1.391 . S
H2092 C2100 0.950 . S
H2093 C2105 0.950 . S
H2094 C2102 0.950 . S
H2095 C2104 0.950 . S
H2096 C2106 0.950 . S
H2097 C2108 0.950 . S
H2098 C2110 0.950 . S
H2099 C2111 0.950 . S
C2100 H2092 0.950 . S
C2100 C2101 1.386 . S
C2100 C2102 1.391 . S
C2101 C2100 1.386 . S
C2101 C2105 1.393 . S
C2102 H2094 0.950 . S
C2102 C2100 1.391 . S
C2102 C2103 1.400 . S
C2103 C2102 1.400 . S
C2103 C2104 1.398 . S
C2103 C2109 1.491 . S
C2104 H2095 0.950 . S
C2104 C2103 1.398 . S
C2104 C2105 1.391 . S
C2105 H2093 0.950 . S
C2105 C2101 1.393 . S
C2105 C2104 1.391 . S
C2106 H2096 0.950 . S
C2106 C2107 1.386 . S
C2106 C2108 1.391 . S
C2107 C2106 1.386 . S
C2107 C2111 1.393 . S
C2108 H2097 0.950 . S
C2108 C2106 1.391 . S
C2108 C2109 1.400 . S
C2109 C2103 1.491 . S
C2109 C2108 1.400 . S
C2109 C2110 1.398 . S
C2110 H2098 0.950 . S
C2110 C2109 1.398 . S
C2110 C2111 1.391 . S
C2111 H2099 0.950 . S
C2111 C2107 1.393 . S
C2111 C2110 1.391 . S
H2112 C2120 0.950 . S
H2113 C2125 0.950 . S
H2114 C2122 0.950 . S
H2115 C2124 0.950 . S
H2116 C2126 0.950 . S
H2117 C2128 0.950 . S
H2118 C2130 0.950 . S
H2119 C2131 0.950 . S
C2120 H2112 0.950 . S
C2120 C2121 1.386 . S
C2120 C2122 1.391 . S
C2121 C2120 1.386 . S
C2121 C2125 1.393 . S
C2122 H2114 0.950 . S
C2122 C2120 1.391 . S
C2122 C2123 1.400 . S
C2123 C2122 1.400 . S
C2123 C2124 1.398 . S
C2123 C2129 1.491 . S
C2124 H2115 0.950 . S
C2124 C2123 1.398 . S
C2124 C2125 1.391 . S
C2125 H2113 0.950 . S
C2125 C2121 1.393 . S
C2125 C2124 1.391 . S
C2126 H2116 0.950 . S
C2126 C2127 1.386 . S
C2126 C2128 1.391 . S
C2127 C2126 1.386 . S
C2127 C2131 1.393 . S
C2128 H2117 0.950 . S
C2128 C2126 1.391 . S
C2128 C2129 1.400 . S
C2129 C2123 1.491 . S
C2129 C2128 1.400 . S
C2129 C2130 1.398 . S
C2130 H2118 0.950 . S
C2130 C2129 1.398 . S
C2130 C2131 1.391 . S
C2131 H2119 0.950 . S
C2131 C2127 1.393 . S
C2131 C2130 1.391 . S
H2132 C2140 0.950 . S
H2133 C2145 0.950 . S
H2134 C2142 0.950 . S
H2135 C2144 0.950 . S
H2136 C2146 0.950 . S
H2137 C2148 0.950 . S
H2138 C2150 0.950 . S
H2139 C2151 0.950 . S
C2140 H2132 0.950 . S
C2140 C2141 1.386 . S
C2140 C2142 1.391 . S
C2141 C2140 1.386 . S
C2141 C2145 1.393 . S
C2142 H2134 0.950 . S
C2142 C2140 1.391 . S
C2142 C2143 1.400 . S
C2143 C2142 1.400 . S
C2143 C2144 1.398 . S
C2143 C2149 1.491 . S
C2144 H2135 0.950 . S
C2144 C2143 1.398 . S
C2144 C2145 1.391 . S
C2145 H2133 0.950 . S
C2145 C2141 1.393 . S
C2145 C2144 1.391 . S
C2146 H2136 0.950 . S
C2146 C2147 1.386 . S
C2146 C2148 1.391 . S
C2147 C2146 1.386 . S
C2147 C2151 1.393 . S
C2148 H2137 0.950 . S
C2148 C2146 1.391 . S
C2148 C2149 1.400 . S
C2149 C2143 1.491 . S
C2149 C2148 1.400 . S
C2149 C2150 1.398 . S
C2150 H2138 0.950 . S
C2150 C2149 1.398 . S
C2150 C2151 1.391 . S
C2151 H2139 0.950 . S
C2151 C2147 1.393 . S
C2151 C2150 1.391 . S
H2152 C2160 0.950 . S
H2153 C2165 0.950 . S
H2154 C2162 0.950 . S
H2155 C2164 0.950 . S
H2156 C2166 0.950 . S
H2157 C2168 0.950 . S
H2158 C2170 0.950 . S
H2159 C2171 0.950 . S
C2160 H2152 0.950 . S
C2160 C2161 1.386 . S
C2160 C2162 1.391 . S
C2161 C2160 1.386 . S
C2161 C2165 1.393 . S
C2162 H2154 0.950 . S
C2162 C2160 1.391 . S
C2162 C2163 1.400 . S
C2163 C2162 1.400 . S
C2163 C2164 1.398 . S
C2163 C2169 1.491 . S
C2164 H2155 0.950 . S
C2164 C2163 1.398 . S
C2164 C2165 1.391 . S
C2165 H2153 0.950 . S
C2165 C2161 1.393 . S
C2165 C2164 1.391 . S
C2166 H2156 0.950 . S
C2166 C2167 1.386 . S
C2166 C2168 1.391 . S
C2167 C2166 1.386 . S
C2167 C2171 1.393 . S
C2168 H2157 0.950 . S
C2168 C2166 1.391 . S
C2168 C2169 1.400 . S
C2169 C2163 1.491 . S
C2169 C2168 1.400 . S
C2169 C2170 1.398 . S
C2170 H2158 0.950 . S
C2170 C2169 1.398 . S
C2170 C2171 1.391 . S
C2171 H2159 0.950 . S
C2171 C2167 1.393 . S
C2171 C2170 1.391 . S
H2172 C2180 0.950 . S
H2173 C2185 0.950 . S
H2174 C2182 0.950 . S
H2175 C2184 0.950 . S
H2176 C2186 0.950 . S
H2177 C2188 0.950 . S
H2178 C2190 0.950 . S
H2179 C2191 0.950 . S
C2180 H2172 0.950 . S
C2180 C2181 1.386 . S
C2180 C2182 1.391 . S
C2181 C2180 1.386 . S
C2181 C2185 1.393 . S
C2182 H2174 0.950 . S
C2182 C2180 1.391 . S
C2182 C2183 1.400 . S
C2183 C2182 1.400 . S
C2183 C2184 1.398 . S
C2183 C2189 1.491 . S
C2184 H2175 0.950 . S
C2184 C2183 1.398 . S
C2184 C2185 1.391 . S
C2185 H2173 0.950 . S
C2185 C2181 1.393 . S
C2185 C2184 1.391 . S
C2186 H2176 0.950 . S
C2186 C2187 1.386 . S
C2186 C2188 1.391 . S
C2187 C2186 1.386 . S
C2187 C2191 1.393 . S
C2188 H2177 0.950 . S
C2188 C2186 1.391 . S
C2188 C2189 1.400 . S
C2189 C2183 1.491 . S
C2189 C2188 1.400 . S
C2189 C2190 1.398 . S
C2190 H2178 0.950 . S
C2190 C2189 1.398 . S
C2190 C2191 1.391 . S
C2191 H2179 0.950 . S
C2191 C2187 1.393 . S
C2191 C2190 1.391 . S
H2192 C2200 0.950 . S
H2193 C2205 0.950 . S
H2194 C2202 0.950 . S
H2195 C2204 0.950 . S
H2196 C2206 0.950 . S
H2197 C2208 0.950 . S
H2198 C2210 0.950 . S
H2199 C2211 0.950 . S
C2200 H2192 0.950 . S
C2200 C2201 1.386 . S
C2200 C2202 1.391 . S
C2201 C2200 1.386 . S
C2201 C2205 1.393 . S
C2202 H2194 0.950 . S
C2202 C2200 1.391 . S
C2202 C2203 1.400 . S
C2203 C2202 1.400 . S
C2203 C2204 1.398 . S
C2203 C2209 1.491 . S
C2204 H2195 0.950 . S
C2204 C2203 1.398 . S
C2204 C2205 1.391 . S
C2205 H2193 0.950 . S
C2205 C2201 1.393 . S
C2205 C2204 1.391 . S
C2206 H2196 0.950 . S
C2206 C2207 1.386 . S
C2206 C2208 1.391 . S
C2207 C2206 1.386 . S
C2207 C2211 1.393 . S
C2208 H2197 0.950 . S
C2208 C2206 1.391 . S
C2208 C2209 1.400 . S
C2209 C2203 1.491 . S
C2209 C2208 1.400 . S
C2209 C2210 1.398 . S
C2210 H2198 0.950 . S
C2210 C2209 1.398 . S
C2210 C2211 1.391 . S
C2211 H2199 0.950 . S
C2211 C2207 1.393 . S
C2211 C2210 1.391 . S
H2212 C2220 0.950 . S
H2213 C2225 0.950 . S
H2214 C2222 0.950 . S
H2215 C2224 0.950 . S
H2216 C2226 0.950 . S
H2217 C2228 0.950 . S
H2218 C2230 0.950 . S
H2219 C2231 0.950 . S
C2220 H2212 0.950 . S
C2220 C2221 1.386 . S
C2220 C2222 1.391 . S
C2221 C2220 1.386 . S
C2221 C2225 1.393 . S
C2222 H2214 0.950 . S
C2222 C2220 1.391 . S
C2222 C2223 1.400 . S
C2223 C2222 1.400 . S
C2223 C2224 1.398 . S
C2223 C2229 1.491 . S
C2224 H2215 0.950 . S
C2224 C2223 1.398 . S
C2224 C2225 1.391 . S
C2225 H2213 0.950 . S
C2225 C2221 1.393 . S
C2225 C2224 1.391 . S
C2226 H2216 0.950 . S
C2226 C2227 1.386 . S
C2226 C2228 1.391 . S
C2227 C2226 1.386 . S
C2227 C2231 1.393 . S
C2228 H2217 0.950 . S
C2228 C2226 1.391 . S
C2228 C2229 1.400 . S
C2229 C2223 1.491 . S
C2229 C2228 1.400 . S
C2229 C2230 1.398 . S
C2230 H2218 0.950 . S
C2230 C2229 1.398 . S
C2230 C2231 1.391 . S
C2231 H2219 0.950 . S
C2231 C2227 1.393 . S
C2231 C2230 1.391 . S
H2232 C2240 0.950 . S
H2233 C2245 0.950 . S
H2234 C2242 0.950 . S
H2235 C2244 0.950 . S
H2236 C2246 0.950 . S
H2237 C2248 0.950 . S
H2238 C2250 0.950 . S
H2239 C2251 0.950 . S
C2240 H2232 0.950 . S
C2240 C2241 1.386 . S
C2240 C2242 1.391 . S
C2241 C2240 1.386 . S
C2241 C2245 1.393 . S
C2242 H2234 0.950 . S
C2242 C2240 1.391 . S
C2242 C2243 1.400 . S
C2243 C2242 1.400 . S
C2243 C2244 1.398 . S
C2243 C2249 1.491 . S
C2244 H2235 0.950 . S
C2244 C2243 1.398 . S
C2244 C2245 1.391 . S
C2245 H2233 0.950 . S
C2245 C2241 1.393 . S
C2245 C2244 1.391 . S
C2246 H2236 0.950 . S
C2246 C2247 1.386 . S
C2246 C2248 1.391 . S
C2247 C2246 1.386 . S
C2247 C2251 1.393 . S
C2248 H2237 0.950 . S
C2248 C2246 1.391 . S
C2248 C2249 1.400 . S
C2249 C2243 1.491 . S
C2249 C2248 1.400 . S
C2249 C2250 1.398 . S
C2250 H2238 0.950 . S
C2250 C2249 1.398 . S
C2250 C2251 1.391 . S
C2251 H2239 0.950 . S
C2251 C2247 1.393 . S
C2251 C2250 1.391 . S
H2252 C2260 0.950 . S
H2253 C2265 0.950 . S
H2254 C2262 0.950 . S
H2255 C2264 0.950 . S
H2256 C2266 0.950 . S
H2257 C2268 0.950 . S
H2258 C2270 0.950 . S
H2259 C2271 0.950 . S
C2260 H2252 0.950 . S
C2260 C2261 1.386 . S
C2260 C2262 1.391 . S
C2261 C2260 1.386 . S
C2261 C2265 1.393 . S
C2262 H2254 0.950 . S
C2262 C2260 1.391 . S
C2262 C2263 1.400 . S
C2263 C2262 1.400 . S
C2263 C2264 1.398 . S
C2263 C2269 1.491 . S
C2264 H2255 0.950 . S
C2264 C2263 1.398 . S
C2264 C2265 1.391 . S
C2265 H2253 0.950 . S
C2265 C2261 1.393 . S
C2265 C2264 1.391 . S
C2266 H2256 0.950 . S
C2266 C2267 1.386 . S
C2266 C2268 1.391 . S
C2267 C2266 1.386 . S
C2267 C2271 1.393 . S
C2268 H2257 0.950 . S
C2268 C2266 1.391 . S
C2268 C2269 1.400 . S
C2269 C2263 1.491 . S
C2269 C2268 1.400 . S
C2269 C2270 1.398 . S
C2270 H2258 0.950 . S
C2270 C2269 1.398 . S
C2270 C2271 1.391 . S
C2271 H2259 0.950 . S
C2271 C2267 1.393 . S
C2271 C2270 1.391 . S
H2272 C2280 0.950 . S
H2273 C2285 0.950 . S
H2274 C2282 0.950 . S
H2275 C2284 0.950 . S
H2276 C2286 0.950 . S
H2277 C2288 0.950 . S
H2278 C2290 0.950 . S
H2279 C2291 0.950 . S
C2280 H2272 0.950 . S
C2280 C2281 1.386 . S
C2280 C2282 1.391 . S
C2281 C2280 1.386 . S
C2281 C2285 1.393 . S
C2282 H2274 0.950 . S
C2282 C2280 1.391 . S
C2282 C2283 1.400 . S
C2283 C2282 1.400 . S
C2283 C2284 1.398 . S
C2283 C2289 1.491 . S
C2284 H2275 0.950 . S
C2284 C2283 1.398 . S
C2284 C2285 1.391 . S
C2285 H2273 0.950 . S
C2285 C2281 1.393 . S
C2285 C2284 1.391 . S
C2286 H2276 0.950 . S
C2286 C2287 1.386 . S
C2286 C2288 1.391 . S
C2287 C2286 1.386 . S
C2287 C2291 1.393 . S
C2288 H2277 0.950 . S
C2288 C2286 1.391 . S
C2288 C2289 1.400 . S
C2289 C2283 1.491 . S
C2289 C2288 1.400 . S
C2289 C2290 1.398 . S
C2290 H2278 0.950 . S
C2290 C2289 1.398 . S
C2290 C2291 1.391 . S
C2291 H2279 0.950 . S
C2291 C2287 1.393 . S
C2291 C2290 1.391 . S
H2292 C2300 0.950 . S
H2293 C2305 0.950 . S
H2294 C2302 0.950 . S
H2295 C2304 0.950 . S
H2296 C2306 0.950 . S
H2297 C2308 0.950 . S
H2298 C2310 0.950 . S
H2299 C2311 0.950 . S
C2300 H2292 0.950 . S
C2300 C2301 1.386 . S
C2300 C2302 1.391 . S
C2301 C2300 1.386 . S
C2301 C2305 1.393 . S
C2302 H2294 0.950 . S
C2302 C2300 1.391 . S
C2302 C2303 1.400 . S
C2303 C2302 1.400 . S
C2303 C2304 1.398 . S
C2303 C2309 1.491 . S
C2304 H2295 0.950 . S
C2304 C2303 1.398 . S
C2304 C2305 1.391 . S
C2305 H2293 0.950 . S
C2305 C2301 1.393 . S
C2305 C2304 1.391 . S
C2306 H2296 0.950 . S
C2306 C2307 1.386 . S
C2306 C2308 1.391 . S
C2307 C2306 1.386 . S
C2307 C2311 1.393 . S
C2308 H2297 0.950 . S
C2308 C2306 1.391 . S
C2308 C2309 1.400 . S
C2309 C2303 1.491 . S
C2309 C2308 1.400 . S
C2309 C2310 1.398 . S
C2310 H2298 0.950 . S
C2310 C2309 1.398 . S
C2310 C2311 1.391 . S
C2311 H2299 0.950 . S
C2311 C2307 1.393 . S
C2311 C2310 1.391 . S
H2312 C2320 0.950 . S
H2313 C2325 0.950 . S
H2314 C2322 0.950 . S
H2315 C2324 0.950 . S
H2316 C2326 0.950 . S
H2317 C2328 0.950 . S
H2318 C2330 0.950 . S
H2319 C2331 0.950 . S
C2320 H2312 0.950 . S
C2320 C2321 1.386 . S
C2320 C2322 1.391 . S
C2321 C2320 1.386 . S
C2321 C2325 1.393 . S
C2322 H2314 0.950 . S
C2322 C2320 1.391 . S
C2322 C2323 1.400 . S
C2323 C2322 1.400 . S
C2323 C2324 1.398 . S
C2323 C2329 1.491 . S
C2324 H2315 0.950 . S
C2324 C2323 1.398 . S
C2324 C2325 1.391 . S
C2325 H2313 0.950 . S
C2325 C2321 1.393 . S
C2325 C2324 1.391 . S
C2326 H2316 0.950 . S
C2326 C2327 1.386 . S
C2326 C2328 1.391 . S
C2327 C2326 1.386 . S
C2327 C2331 1.393 . S
C2328 H2317 0.950 . S
C2328 C2326 1.391 . S
C2328 C2329 1.400 . S
C2329 C2323 1.491 . S
C2329 C2328 1.400 . S
C2329 C2330 1.398 . S
C2330 H2318 0.950 . S
C2330 C2329 1.398 . S
C2330 C2331 1.391 . S
C2331 H2319 0.950 . S
C2331 C2327 1.393 . S
C2331 C2330 1.391 . S
H2332 C2340 0.950 . S
H2333 C2345 0.950 . S
H2334 C2342 0.950 . S
H2335 C2344 0.950 . S
H2336 C2346 0.950 . S
H2337 C2348 0.950 . S
H2338 C2350 0.950 . S
H2339 C2351 0.950 . S
C2340 H2332 0.950 . S
C2340 C2341 1.386 . S
C2340 C2342 1.391 . S
C2341 C2340 1.386 . S
C2341 C2345 1.393 . S
C2342 H2334 0.950 . S
C2342 C2340 1.391 . S
C2342 C2343 1.400 . S
C2343 C2342 1.400 . S
C2343 C2344 1.398 . S
C2343 C2349 1.491 . S
C2344 H2335 0.950 . S
C2344 C2343 1.398 . S
C2344 C2345 1.391 . S
C2345 H2333 0.950 . S
C2345 C2341 1.393 . S
C2345 C2344 1.391 . S
C2346 H2336 0.950 . S
C2346 C2347 1.386 . S
C2346 C2348 1.391 . S
C2347 C2346 1.386 . S
C2347 C2351 1.393 . S
C2348 H2337 0.950 . S
C2348 C2346 1.391 . S
C2348 C2349 1.400 . S
C2349 C2343 1.491 . S
C2349 C2348 1.400 . S
C2349 C2350 1.398 . S
C2350 H2338 0.950 . S
C2350 C2349 1.398 . S
C2350 C2351 1.391 . S
C2351 H2339 0.950 . S
C2351 C2347 1.393 . S
C2351 C2350 1.391 . S
H2352 C2360 0.950 . S
H2353 C2365 0.950 . S
H2354 C2362 0.950 . S
H2355 C2364 0.950 . S
H2356 C2366 0.950 . S
H2357 C2368 0.950 . S
H2358 C2370 0.950 . S
H2359 C2371 0.950 . S
C2360 H2352 0.950 . S
C2360 C2361 1.386 . S
C2360 C2362 1.391 . S
C2361 C2360 1.386 . S
C2361 C2365 1.393 . S
C2362 H2354 0.950 . S
C2362 C2360 1.391 . S
C2362 C2363 1.400 . S
C2363 C2362 1.400 . S
C2363 C2364 1.398 . S
C2363 C2369 1.491 . S
C2364 H2355 0.950 . S
C2364 C2363 1.398 . S
C2364 C2365 1.391 . S
C2365 H2353 0.950 . S
C2365 C2361 1.393 . S
C2365 C2364 1.391 . S
C2366 H2356 0.950 . S
C2366 C2367 1.386 . S
C2366 C2368 1.391 . S
C2367 C2366 1.386 . S
C2367 C2371 1.393 . S
C2368 H2357 0.950 . S
C2368 C2366 1.391 . S
C2368 C2369 1.400 . S
C2369 C2363 1.491 . S
C2369 C2368 1.400 . S
C2369 C2370 1.398 . S
C2370 H2358 0.950 . S
C2370 C2369 1.398 . S
C2370 C2371 1.391 . S
C2371 H2359 0.950 . S
C2371 C2367 1.393 . S
C2371 C2370 1.391 . S
H2372 C2380 0.950 . S
H2373 C2385 0.950 . S
H2374 C2382 0.950 . S
H2375 C2384 0.950 . S
H2376 C2386 0.950 . S
H2377 C2388 0.950 . S
H2378 C2390 0.950 . S
H2379 C2391 0.950 . S
C2380 H2372 0.950 . S
C2380 C2381 1.386 . S
C2380 C2382 1.391 . S
C2381 C2380 1.386 . S
C2381 C2385 1.393 . S
C2382 H2374 0.950 . S
C2382 C2380 1.391 . S
C2382 C2383 1.400 . S
C2383 C2382 1.400 . S
C2383 C2384 1.398 . S
C2383 C2389 1.491 . S
C2384 H2375 0.950 . S
C2384 C2383 1.398 . S
C2384 C2385 1.391 . S
C2385 H2373 0.950 . S
C2385 C2381 1.393 . S
C2385 C2384 1.391 . S
C2386 H2376 0.950 . S
C2386 C2387 1.386 . S
C2386 C2388 1.391 . S
C2387 C2386 1.386 . S
C2387 C2391 1.393 . S
C2388 H2377 0.950 . S
C2388 C2386 1.391 . S
C2388 C2389 1.400 . S
C2389 C2383 1.491 . S
C2389 C2388 1.400 . S
C2389 C2390 1.398 . S
C2390 H2378 0.950 . S
C2390 C2389 1.398 . S
C2390 C2391 1.391 . S
C2391 H2379 0.950 . S
C2391 C2387 1.393 . S
C2391 C2390 1.391 . S
H2392 C2400 0.950 . S
H2393 C2405 0.950 . S
H2394 C2402 0.950 . S
H2395 C2404 0.950 . S
H2396 C2406 0.950 . S
H2397 C2408 0.950 . S
H2398 C2410 0.950 . S
H2399 C2411 0.950 . S
C2400 H2392 0.950 . S
C2400 C2401 1.386 . S
C2400 C2402 1.391 . S
C2401 C2400 1.386 . S
C2401 C2405 1.393 . S
C2402 H2394 0.950 . S
C2402 C2400 1.391 . S
C2402 C2403 1.400 . S
C2403 C2402 1.400 . S
C2403 C2404 1.398 . S
C2403 C2409 1.491 . S
C2404 H2395 0.950 . S
C2404 C2403 1.398 . S
C2404 C2405 1.391 . S
C2405 H2393 0.950 . S
C2405 C2401 1.393 . S
C2405 C2404 1.391 . S
C2406 H2396 0.950 . S
C2406 C2407 1.386 . S
C2406 C2408 1.391 . S
C2407 C2406 1.386 . S
C2407 C2411 1.393 . S
C2408 H2397 0.950 . S
C2408 C2406 1.391 . S
C2408 C2409 1.400 . S
C2409 C2403 1.491 . S
C2409 C2408 1.400 . S
C2409 C2410 1.398 . S
C2410 H2398 0.950 . S
C2410 C2409 1.398 . S
C2410 C2411 1.391 . S
C2411 H2399 0.950 . S
C2411 C2407 1.393 . S
C2411 C2410 1.391 . S
H2412 C2420 0.950 . S
H2413 C2425 0.950 . S
H2414 C2422 0.950 . S
H2415 C2424 0.950 . S
H2416 C2426 0.950 . S
H2417 C2428 0.950 . S
H2418 C2430 0.950 . S
H2419 C2431 0.950 . S
C2420 H2412 0.950 . S
C2420 C2421 1.386 . S
C2420 C2422 1.391 . S
C2421 C2420 1.386 . S
C2421 C2425 1.393 . S
C2422 H2414 0.950 . S
C2422 C2420 1.391 . S
C2422 C2423 1.400 . S
C2423 C2422 1.400 . S
C2423 C2424 1.398 . S
C2423 C2429 1.491 . S
C2424 H2415 0.950 . S
C2424 C2423 1.398 . S
C2424 C2425 1.391 . S
C2425 H2413 0.950 . S
C2425 C2421 1.393 . S
C2425 C2424 1.391 . S
C2426 H2416 0.950 . S
C2426 C2427 1.386 . S
C2426 C2428 1.391 . S
C2427 C2426 1.386 . S
C2427 C2431 1.393 . S
C2428 H2417 0.950 . S
C2428 C2426 1.391 . S
C2428 C2429 1.400 . S
C2429 C2423 1.491 . S
C2429 C2428 1.400 . S
C2429 C2430 1.398 . S
C2430 H2418 0.950 . S
C2430 C2429 1.398 . S
C2430 C2431 1.391 . S
C2431 H2419 0.950 . S
C2431 C2427 1.393 . S
C2431 C2430 1.391 . S
H2432 C2440 0.950 . S
H2433 C2445 0.950 . S
H2434 C2442 0.950 . S
H2435 C2444 0.950 . S
H2436 C2446 0.950 . S
H2437 C2448 0.950 . S
H2438 C2450 0.950 . S
H2439 C2451 0.950 . S
C2440 H2432 0.950 . S
C2440 C2441 1.386 . S
C2440 C2442 1.391 . S
C2441 C2440 1.386 . S
C2441 C2445 1.393 . S
C2442 H2434 0.950 . S
C2442 C2440 1.391 . S
C2442 C2443 1.400 . S
C2443 C2442 1.400 . S
C2443 C2444 1.398 . S
C2443 C2449 1.491 . S
C2444 H2435 0.950 . S
C2444 C2443 1.398 . S
C2444 C2445 1.391 . S
C2445 H2433 0.950 . S
C2445 C2441 1.393 . S
C2445 C2444 1.391 . S
C2446 H2436 0.950 . S
C2446 C2447 1.386 . S
C2446 C2448 1.391 . S
C2447 C2446 1.386 . S
C2447 C2451 1.393 . S
C2448 H2437 0.950 . S
C2448 C2446 1.391 . S
C2448 C2449 1.400 . S
C2449 C2443 1.491 . S
C2449 C2448 1.400 . S
C2449 C2450 1.398 . S
C2450 H2438 0.950 . S
C2450 C2449 1.398 . S
C2450 C2451 1.391 . S
C2451 H2439 0.950 . S
C2451 C2447 1.393 . S
C2451 C2450 1.391 . S
H2452 C2460 0.950 . S
H2453 C2465 0.950 . S
H2454 C2462 0.950 . S
H2455 C2464 0.950 . S
H2456 C2466 0.950 . S
H2457 C2468 0.950 . S
H2458 C2470 0.950 . S
H2459 C2471 0.950 . S
C2460 H2452 0.950 . S
C2460 C2461 1.386 . S
C2460 C2462 1.391 . S
C2461 C2460 1.386 . S
C2461 C2465 1.393 . S
C2462 H2454 0.950 . S
C2462 C2460 1.391 . S
C2462 C2463 1.400 . S
C2463 C2462 1.400 . S
C2463 C2464 1.398 . S
C2463 C2469 1.491 . S
C2464 H2455 0.950 . S
C2464 C2463 1.398 . S
C2464 C2465 1.391 . S
C2465 H2453 0.950 . S
C2465 C2461 1.393 . S
C2465 C2464 1.391 . S
C2466 H2456 0.950 . S
C2466 C2467 1.386 . S
C2466 C2468 1.391 . S
C2467 C2466 1.386 . S
C2467 C2471 1.393 . S
C2468 H2457 0.950 . S
C2468 C2466 1.391 . S
C2468 C2469 1.400 . S
C2469 C2463 1.491 . S
C2469 C2468 1.400 . S
C2469 C2470 1.398 . S
C2470 H2458 0.950 . S
C2470 C2469 1.398 . S
C2470 C2471 1.391 . S
C2471 H2459 0.950 . S
C2471 C2467 1.393 . S
C2471 C2470 1.391 . S
H2472 C2480 0.950 . S
H2473 C2485 0.950 . S
H2474 C2482 0.950 . S
H2475 C2484 0.950 . S
H2476 C2486 0.950 . S
H2477 C2488 0.950 . S
H2478 C2490 0.950 . S
H2479 C2491 0.950 . S
C2480 H2472 0.950 . S
C2480 C2481 1.386 . S
C2480 C2482 1.391 . S
C2481 C2480 1.386 . S
C2481 C2485 1.393 . S
C2482 H2474 0.950 . S
C2482 C2480 1.391 . S
C2482 C2483 1.400 . S
C2483 C2482 1.400 . S
C2483 C2484 1.398 . S
C2483 C2489 1.491 . S
C2484 H2475 0.950 . S
C2484 C2483 1.398 . S
C2484 C2485 1.391 . S
C2485 H2473 0.950 . S
C2485 C2481 1.393 . S
C2485 C2484 1.391 . S
C2486 H2476 0.950 . S
C2486 C2487 1.386 . S
C2486 C2488 1.391 . S
C2487 C2486 1.386 . S
C2487 C2491 1.393 . S
C2488 H2477 0.950 . S
C2488 C2486 1.391 . S
C2488 C2489 1.400 . S
C2489 C2483 1.491 . S
C2489 C2488 1.400 . S
C2489 C2490 1.398 . S
C2490 H2478 0.950 . S
C2490 C2489 1.398 . S
C2490 C2491 1.391 . S
C2491 H2479 0.950 . S
C2491 C2487 1.393 . S
C2491 C2490 1.391 . S
H2492 C2500 0.950 . S
H2493 C2505 0.950 . S
H2494 C2502 0.950 . S
H2495 C2504 0.950 . S
H2496 C2506 0.950 . S
H2497 C2508 0.950 . S
H2498 C2510 0.950 . S
H2499 C2511 0.950 . S
C2500 H2492 0.950 . S
C2500 C2501 1.386 . S
C2500 C2502 1.391 . S
C2501 C2500 1.386 . S
C2501 C2505 1.393 . S
C2502 H2494 0.950 . S
C2502 C2500 1.391 . S
C2502 C2503 1.400 . S
C2503 C2502 1.400 . S
C2503 C2504 1.398 . S
C2503 C2509 1.491 . S
C2504 H2495 0.950 . S
C2504 C2503 1.398 . S
C2504 C2505 1.391 . S
C2505 H2493 0.950 . S
C2505 C2501 1.393 . S
C2505 C2504 1.391 . S
C2506 H2496 0.950 . S
C2506 C2507 1.386 . S
C2506 C2508 1.391 . S
C2507 C2506 1.386 . S
C2507 C2511 1.393 . S
C2508 H2497 0.950 . S
C2508 C2506 1.391 . S
C2508 C2509 1.400 . S
C2509 C2503 1.491 . S
C2509 C2508 1.400 . S
C2509 C2510 1.398 . S
C2510 H2498 0.950 . S
C2510 C2509 1.398 . S
C2510 C2511 1.391 . S
C2511 H2499 0.950 . S
C2511 C2507 1.393 . S
C2511 C2510 1.391 . S
H2512 C2520 0.950 . S
H2513 C2525 0.950 . S
H2514 C2522 0.950 . S
H2515 C2524 0.950 . S
H2516 C2526 0.950 . S
H2517 C2528 0.950 . S
H2518 C2530 0.950 . S
H2519 C2531 0.950 . S
C2520 H2512 0.950 . S
C2520 C2521 1.386 . S
C2520 C2522 1.391 . S
C2521 C2520 1.386 . S
C2521 C2525 1.393 . S
C2522 H2514 0.950 . S
C2522 C2520 1.391 . S
C2522 C2523 1.400 . S
C2523 C2522 1.400 . S
C2523 C2524 1.398 . S
C2523 C2529 1.491 . S
C2524 H2515 0.950 . S
C2524 C2523 1.398 . S
C2524 C2525 1.391 . S
C2525 H2513 0.950 . S
C2525 C2521 1.393 . S
C2525 C2524 1.391 . S
C2526 H2516 0.950 . S
C2526 C2527 1.386 . S
C2526 C2528 1.391 . S
C2527 C2526 1.386 . S
C2527 C2531 1.393 . S
C2528 H2517 0.950 . S
C2528 C2526 1.391 . S
C2528 C2529 1.400 . S
C2529 C2523 1.491 . S
C2529 C2528 1.400 . S
C2529 C2530 1.398 . S
C2530 H2518 0.950 . S
C2530 C2529 1.398 . S
C2530 C2531 1.391 . S
C2531 H2519 0.950 . S
C2531 C2527 1.393 . S
C2531 C2530 1.391 . S
H2532 C2540 0.950 . S
H2533 C2545 0.950 . S
H2534 C2542 0.950 . S
H2535 C2544 0.950 . S
H2536 C2546 0.950 . S
H2537 C2548 0.950 . S
H2538 C2550 0.950 . S
H2539 C2551 0.950 . S
C2540 H2532 0.950 . S
C2540 C2541 1.386 . S
C2540 C2542 1.391 . S
C2541 C2540 1.386 . S
C2541 C2545 1.393 . S
C2542 H2534 0.950 . S
C2542 C2540 1.391 . S
C2542 C2543 1.400 . S
C2543 C2542 1.400 . S
C2543 C2544 1.398 . S
C2543 C2549 1.491 . S
C2544 H2535 0.950 . S
C2544 C2543 1.398 . S
C2544 C2545 1.391 . S
C2545 H2533 0.950 . S
C2545 C2541 1.393 . S
C2545 C2544 1.391 . S
C2546 H2536 0.950 . S
C2546 C2547 1.386 . S
C2546 C2548 1.391 . S
C2547 C2546 1.386 . S
C2547 C2551 1.393 . S
C2548 H2537 0.950 . S
C2548 C2546 1.391 . S
C2548 C2549 1.400 . S
C2549 C2543 1.491 . S
C2549 C2548 1.400 . S
C2549 C2550 1.398 . S
C2550 H2538 0.950 . S
C2550 C2549 1.398 . S
C2550 C2551 1.391 . S
C2551 H2539 0.950 . S
C2551 C2547 1.393 . S
C2551 C2550 1.391 . S
H2552 C2560 0.950 . S
H2553 C2565 0.950 . S
H2554 C2562 0.950 . S
H2555 C2564 0.950 . S
H2556 C2566 0.950 . S
H2557 C2568 0.950 . S
H2558 C2570 0.950 . S
H2559 C2571 0.950 . S
C2560 H2552 0.950 . S
C2560 C2561 1.386 . S
C2560 C2562 1.391 . S
C2561 C2560 1.386 . S
C2561 C2565 1.393 . S
C2562 H2554 0.950 . S
C2562 C2560 1.391 . S
C2562 C2563 1.400 . S
C2563 C2562 1.400 . S
C2563 C2564 1.398 . S
C2563 C2569 1.491 . S
C2564 H2555 0.950 . S
C2564 C2563 1.398 . S
C2564 C2565 1.391 . S
C2565 H2553 0.950 . S
C2565 C2561 1.393 . S
C2565 C2564 1.391 . S
C2566 H2556 0.950 . S
C2566 C2567 1.386 . S
C2566 C2568 1.391 . S
C2567 C2566 1.386 . S
C2567 C2571 1.393 . S
C2568 H2557 0.950 . S
C2568 C2566 1.391 . S
C2568 C2569 1.400 . S
C2569 C2563 1.491 . S
C2569 C2568 1.400 . S
C2569 C2570 1.398 . S
C2570 H2558 0.950 . S
C2570 C2569 1.398 . S
C2570 C2571 1.391 . S
C2571 H2559 0.950 . S
C2571 C2567 1.393 . S
C2571 C2570 1.391 . S
H2572 C2580 0.950 . S
H2573 C2585 0.950 . S
H2574 C2582 0.950 . S
H2575 C2584 0.950 . S
H2576 C2586 0.950 . S
H2577 C2588 0.950 . S
H2578 C2590 0.950 . S
H2579 C2591 0.950 . S
C2580 H2572 0.950 . S
C2580 C2581 1.386 . S
C2580 C2582 1.391 . S
C2581 C2580 1.386 . S
C2581 C2585 1.393 . S
C2582 H2574 0.950 . S
C2582 C2580 1.391 . S
C2582 C2583 1.400 . S
C2583 C2582 1.400 . S
C2583 C2584 1.398 . S
C2583 C2589 1.491 . S
C2584 H2575 0.950 . S
C2584 C2583 1.398 . S
C2584 C2585 1.391 . S
C2585 H2573 0.950 . S
C2585 C2581 1.393 . S
C2585 C2584 1.391 . S
C2586 H2576 0.950 . S
C2586 C2587 1.386 . S
C2586 C2588 1.391 . S
C2587 C2586 1.386 . S
C2587 C2591 1.393 . S
C2588 H2577 0.950 . S
C2588 C2586 1.391 . S
C2588 C2589 1.400 . S
C2589 C2583 1.491 . S
C2589 C2588 1.400 . S
C2589 C2590 1.398 . S
C2590 H2578 0.950 . S
C2590 C2589 1.398 . S
C2590 C2591 1.391 . S
C2591 H2579 0.950 . S
C2591 C2587 1.393 . S
C2591 C2590 1.391 . S
C681 C280 1.485 . S
C687 C0 1.494 . S
C701 C23 1.481 . S
C707 C238 1.445 . S
C721 C28 1.488 . S
C727 C261 1.510 . S
C741 C266 1.436 . S
C747 C51 1.487 . S
C761 C331 1.465 . S
C767 C65 1.471 . S
C781 C70 1.460 . S
C787 C303 1.509 . S
C801 C93 1.455 . S
C807 C317 1.454 . S
C821 C98 1.479 . S
C827 C224 1.465 . S
C841 C112 1.455 . S
C847 C210 1.471 . S
C861 C135 1.502 . S
C867 C177 1.491 . S
C881 C140 1.435 . S
C887 C182 1.446 . S
C901 C205 1.501 . S
C907 C163 1.490 . S
C921 C345 1.475 . S
C927 C625 1.479 . S
C941 C574 1.346 . S
C947 C350 1.343 . S
C961 C373 1.475 . S
C967 C588 1.436 . S
C981 C602 1.381 . S
C987 C378 1.372 . S
C1001 C392 1.416 . S
C1007 C667 1.455 . S
C1021 C630 1.456 . S
C1027 C415 1.491 . S
C1041 C420 1.408 . S
C1047 C653 1.436 . S
C1061 C569 1.492 . S
C1067 C443 1.488 . S
C1081 C457 1.459 . S
C1087 C555 1.464 . S
C1101 C504 1.425 . S
C1107 C462 1.434 . S
C1121 C527 1.436 . S
C1127 C485 1.434 . S
C1141 C532 1.416 . S
C1147 C490 1.413 . S
C1161 C364 1.079 . S
C1167 C9 1.108 . S
C1181 C14 1.097 . S
C1187 C387 1.102 . S
C1201 C37 1.100 . S
C1207 C336 1.096 . S
C1221 C42 1.087 . S
C1227 C359 1.117 . S
C1241 C56 1.084 . S
C1247 C429 1.103 . S
C1261 C434 1.101 . S
C1267 C79 1.098 . S
C1281 C401 1.091 . S
C1287 C84 1.094 . S
C1301 C406 1.075 . S
C1307 C107 1.112 . S
C1321 C513 1.107 . S
C1327 C121 1.104 . S
C1341 C126 1.081 . S
C1347 C518 1.097 . S
C1361 C541 1.103 . S
C1367 C149 1.109 . S
C1381 C154 1.092 . S
C1387 C546 1.093 . S
C1401 C168 1.083 . S
C1407 C448 1.060 . S
C1421 C191 1.109 . S
C1427 C471 1.111 . S
C1441 C476 1.080 . S
C1447 C196 1.058 . S
C1461 C499 1.110 . S
C1467 C219 1.124 . S
C1481 C233 1.101 . S
C1487 C611 1.090 . S
C1501 C247 1.127 . S
C1507 C639 1.127 . S
C1521 C644 1.108 . S
C1527 C252 1.093 . S
C1541 C560 1.090 . S
C1547 C275 1.114 . S
C1561 C289 1.126 . S
C1567 C658 1.095 . S
C1581 C583 1.088 . S
C1587 C294 1.074 . S
C1601 C308 1.065 . S
C1607 C597 1.093 . S
C1621 C322 1.059 . S
C1627 C616 1.083 . S
C1641 C403 1.733 . S
C1647 C5 1.740 . S
C1661 C411 1.721 . S
C1667 C25 1.745 . S
C1681 C431 1.753 . S
C1687 C33 1.743 . S
C1701 C53 1.739 . S
C1707 C439 1.719 . S
C1721 C341 1.728 . S
C1727 C67 1.729 . S
C1741 C361 1.737 . S
C1747 C75 1.740 . S
C1761 C95 1.745 . S
C1767 C369 1.715 . S
C1781 C389 1.733 . S
C1787 C103 1.716 . S
C1801 C117 1.735 . S
C1807 C543 1.729 . S
C1821 C137 1.750 . S
C1827 C551 1.722 . S
C1841 C515 1.730 . S
C1847 C145 1.732 . S
C1861 C165 1.739 . S
C1867 C523 1.737 . S
C1881 C481 1.719 . S
C1887 C179 1.750 . S
C1901 C187 1.731 . S
C1907 C501 1.738 . S
C1921 C207 1.735 . S
C1927 C453 1.736 . S
C1941 C215 1.735 . S
C1947 C473 1.738 . S
C1961 C641 1.737 . S
C1967 C229 1.713 . S
C1981 C243 1.731 . S
C1987 C613 1.754 . S
C2001 C263 1.741 . S
C2007 C621 1.711 . S
C2021 C271 1.740 . S
C2027 C585 1.741 . S
C2041 C599 1.743 . S
C2047 C285 1.721 . S
C2061 C565 1.707 . S
C2067 C305 1.731 . S
C2081 C663 1.720 . S
C2087 C319 1.756 . S
C2101 C333 1.742 . S
C2107 C649 1.736 . S
C2121 C221 1.513 . S
C2127 C11 1.509 . S
C2141 C19 1.473 . S
C2147 C173 1.473 . S
C2161 C193 1.532 . S
C2167 C39 1.527 . S
C2181 C201 1.458 . S
C2187 C47 1.461 . S
C2201 C131 1.457 . S
C2207 C61 1.461 . S
C2221 C81 1.536 . S
C2227 C151 1.539 . S
C2241 C89 1.468 . S
C2247 C159 1.467 . S
C2261 C123 1.526 . S
C2267 C109 1.525 . S
C2281 C235 1.530 . S
C2287 C291 1.530 . S
C2301 C327 1.468 . S
C2307 C249 1.504 . S
C2321 C299 1.470 . S
C2327 C257 1.469 . S
C2341 C277 1.521 . S
C2347 C313 1.500 . S
C2361 C557 1.485 . S
C2367 C347 1.483 . S
C2381 C509 1.445 . S
C2387 C355 1.445 . S
C2401 C375 1.492 . S
C2407 C529 1.490 . S
C2421 C537 1.433 . S
C2427 C383 1.437 . S
C2441 C467 1.462 . S
C2447 C397 1.466 . S
C2461 C417 1.488 . S
C2467 C487 1.487 . S
C2481 C425 1.442 . S
C2487 C495 1.442 . S
C2501 C445 1.507 . S
C2507 C459 1.508 . S
C2521 C571 1.481 . S
C2527 C627 1.483 . S
C2541 C669 1.501 . S
C2547 C579 1.476 . S
C2561 C635 1.434 . S
C2567 C593 1.436 . S
C2581 C655 1.506 . S
C2587 C607 1.473 . S
