# Generated by pormake.
# Topology unj, (4)-cn, num edge types: 1
# Building blocks:
#     Node 0, Type 0, BuildingBlock: TATPOV_clean_sbu_0, # of connection points: 4
#     Node 1, Type 0, BuildingBlock: TATPOV_clean_sbu_0, # of connection points: 4
#     Node 2, Type 0, BuildingBlock: TATPOV_clean_sbu_0, # of connection points: 4
#     Node 3, Type 0, BuildingBlock: TATPOV_clean_sbu_0, # of connection points: 4
#     Node 4, Type 0, BuildingBlock: TATPOV_clean_sbu_0, # of connection points: 4
#     Node 5, Type 0, BuildingBlock: TATPOV_clean_sbu_0, # of connection points: 4
#     Edge 6, Type (0, 0), BuildingBlock: XIVTED_clean_linker_0, # of connection points: 2
#     Edge 7, Type (0, 0), BuildingBlock: XIVTED_clean_linker_0, # of connection points: 2
#     Edge 8, Type (0, 0), BuildingBlock: XIVTED_clean_linker_0, # of connection points: 2
#     Edge 9, Type (0, 0), BuildingBlock: XIVTED_clean_linker_0, # of connection points: 2
#     Edge 10, Type (0, 0), BuildingBlock: XIVTED_clean_linker_0, # of connection points: 2
#     Edge 11, Type (0, 0), BuildingBlock: XIVTED_clean_linker_0, # of connection points: 2
#     Edge 12, Type (0, 0), BuildingBlock: XIVTED_clean_linker_0, # of connection points: 2
#     Edge 13, Type (0, 0), BuildingBlock: XIVTED_clean_linker_0, # of connection points: 2
#     Edge 14, Type (0, 0), BuildingBlock: XIVTED_clean_linker_0, # of connection points: 2
#     Edge 15, Type (0, 0), BuildingBlock: XIVTED_clean_linker_0, # of connection points: 2
#     Edge 16, Type (0, 0), BuildingBlock: XIVTED_clean_linker_0, # of connection points: 2
#     Edge 17, Type (0, 0), BuildingBlock: XIVTED_clean_linker_0, # of connection points: 2
# Relax obj value: 0.021
# Max RMSD: 0.060
# Mean RMSD: 0.060
data_MOF--net-unj--node1-TATPOV_clean_sbu_0--edge1-XIVTED_clean_linker_0
_symmetry_space_group_name_H-M    P1
_symmetry_Int_Tables_number       1
_symmetry_cell_setting            triclinic
loop_
_symmetry_equiv_pos_as_xyz
'x, y, z'
_cell_length_a     35.012672
_cell_length_b     34.702897
_cell_length_c     34.556288
_cell_angle_alpha  90.264375
_cell_angle_beta   89.665555
_cell_angle_gamma 120.39217
loop_
_atom_site_label
_atom_site_type_symbol
_atom_site_fract_x
_atom_site_fract_y
_atom_site_fract_z
_atom_type_partial_charge
Zn0 Zn 0.38187 0.12174 0.64429 0.0
Zn1 Zn 0.44131 0.18772 0.59956 0.0
O2 O 0.39425 0.20526 0.6088 0.0
O3 O 0.34174 0.14786 0.64047 0.0
O4 O 0.48353 0.23493 0.56277 0.0
O5 O 0.37827 0.07579 0.60644 0.0
O6 O 0.4213 0.13084 0.56714 0.0
C7 C 0.35624 0.18575 0.62485 0.0
C8 C 0.46641 0.17512 0.68128 0.0
O9 O 0.47779 0.1949 0.64862 0.0
O10 O 0.42715 0.14341 0.68667 0.0
C11 C 0.49497 0.27578 0.56673 0.0
O12 O 0.48078 0.28811 0.59697 0.0
C13 C 0.39781 0.08925 0.5742 0.0
Zn14 Zn 0.19841 0.3793 0.80572 0.0
Zn15 Zn 0.22395 0.44341 0.7521 0.0
O16 O 0.15871 0.42347 0.76364 0.0
O17 O 0.13598 0.36714 0.80415 0.0
O18 O 0.23716 0.48747 0.70903 0.0
O19 O 0.21473 0.34386 0.7708 0.0
O20 O 0.23656 0.39665 0.72675 0.0
C21 C 0.12816 0.39257 0.78385 0.0
C22 C 0.26764 0.46737 0.83145 0.0
O23 O 0.2648 0.47945 0.79728 0.0
O24 O 0.24337 0.42695 0.8416 0.0
C25 C 0.22866 0.51854 0.7149 0.0
O26 O 0.21544 0.52275 0.74952 0.0
C27 C 0.23061 0.35891 0.73763 0.0
Zn28 Zn 0.81665 0.26436 0.98001 0.0
Zn29 Zn 0.75798 0.26959 0.93489 0.0
O30 O 0.73192 0.20217 0.94058 0.0
O31 O 0.784 0.19724 0.97152 0.0
O32 O 0.71552 0.27228 0.89789 0.0
O33 O 0.86646 0.30572 0.9446 0.0
O34 O 0.81626 0.30168 0.90406 0.0
C35 C 0.74676 0.17858 0.95476 0.0
C36 C 0.77112 0.30357 0.01836 0.0
O37 O 0.75393 0.29984 0.98509 0.0
O38 O 0.79798 0.28981 0.02371 0.0
C39 C 0.67409 0.24886 0.90376 0.0
O40 O 0.65962 0.22556 0.93584 0.0
C41 C 0.85646 0.31503 0.91224 0.0
Zn42 Zn 0.56907 0.83519 0.11853 0.0
Zn43 Zn 0.51022 0.77582 0.07085 0.0
O44 O 0.54859 0.74816 0.08515 0.0
O45 O 0.6 0.80037 0.12193 0.0
O46 O 0.4681 0.73218 0.03136 0.0
O47 O 0.59085 0.88409 0.0801 0.0
O48 O 0.54259 0.83495 0.03908 0.0
C49 C 0.58364 0.76282 0.10528 0.0
C50 C 0.48068 0.79414 0.14923 0.0
O51 O 0.47059 0.77323 0.11698 0.0
O52 O 0.52061 0.82302 0.15632 0.0
C53 C 0.4494 0.69031 0.03692 0.0
O54 O 0.45605 0.67566 0.06974 0.0
C55 C 0.57361 0.87448 0.04689 0.0
Zn56 Zn 0.72037 0.58727 0.32748 0.0
Zn57 Zn 0.70919 0.52281 0.27832 0.0
O58 O 0.77649 0.55622 0.28816 0.0
O59 O 0.78573 0.61041 0.32745 0.0
O60 O 0.70202 0.47694 0.239 0.0
O61 O 0.69711 0.61234 0.28833 0.0
O62 O 0.68709 0.5588 0.24791 0.0
C63 C 0.80174 0.59085 0.30803 0.0
C64 C 0.66372 0.49902 0.35789 0.0
O65 O 0.67172 0.48695 0.32537 0.0
O66 O 0.68013 0.54013 0.36556 0.0
C67 C 0.71865 0.45233 0.24462 0.0
O68 O 0.73819 0.45521 0.27774 0.0
C69 C 0.68513 0.59369 0.25558 0.0
Zn70 Zn 0.15733 0.73881 0.46432 0.0
Zn71 Zn 0.19911 0.71708 0.41243 0.0
O72 O 0.23931 0.78525 0.42101 0.0
O73 O 0.20111 0.80393 0.45971 0.0
O74 O 0.23284 0.7073 0.36971 0.0
O75 O 0.10371 0.714 0.43159 0.0
O76 O 0.13764 0.69597 0.38739 0.0
C77 C 0.23511 0.81485 0.43928 0.0
C78 C 0.18584 0.67938 0.49407 0.0
O79 O 0.19962 0.68067 0.45954 0.0
O80 O 0.16689 0.70115 0.50285 0.0
C81 C 0.27409 0.72327 0.37459 0.0
O82 O 0.29145 0.74091 0.40831 0.0
C83 C 0.10385 0.69771 0.39885 0.0
H84 H 0.39844 0.01197 0.5831 0.0
H85 H 0.23059 0.88982 0.42883 0.0
H86 H 0.37934 0.09097 0.49792 0.0
H87 H 0.3212 0.84444 0.45655 0.0
H88 H 0.28564 0.96503 0.45052 0.0
H89 H 0.37257 0.95071 0.53627 0.0
C90 C 0.38964 0.01661 0.55419 0.0
C91 C 0.39059 0.05614 0.54422 0.0
C92 C 0.29408 0.939 0.45062 0.0
C93 C 0.36006 0.98626 0.49116 0.0
C94 C 0.26274 0.89621 0.43831 0.0
C95 C 0.27161 0.86126 0.44113 0.0
C96 C 0.33359 0.94614 0.46727 0.0
C97 C 0.31341 0.8708 0.45389 0.0
C98 C 0.37521 0.98189 0.52746 0.0
C99 C 0.37897 0.06082 0.50651 0.0
N100 N 0.3425 0.91219 0.46773 0.0
N101 N 0.36287 0.02566 0.48156 0.0
H102 H 0.38256 0.27262 0.60611 0.0
H103 H 0.19597 0.26919 0.73953 0.0
H104 H 0.27322 0.15304 0.65503 0.0
H105 H 0.29153 0.38732 0.67814 0.0
H106 H 0.21998 0.22527 0.70287 0.0
H107 H 0.34609 0.31412 0.62543 0.0
C108 C 0.35053 0.25488 0.62026 0.0
C109 C 0.33128 0.20941 0.62959 0.0
C110 C 0.23554 0.26069 0.69699 0.0
C111 C 0.28969 0.25678 0.652 0.0
C112 C 0.22193 0.28586 0.71808 0.0
C113 C 0.24226 0.33207 0.71224 0.0
C114 C 0.27037 0.28189 0.67022 0.0
C115 C 0.2752 0.35177 0.68364 0.0
C116 C 0.32979 0.27865 0.63134 0.0
C117 C 0.28967 0.18817 0.64776 0.0
N118 N 0.2888 0.32665 0.66406 0.0
N119 N 0.27061 0.21215 0.6588 0.0
H120 H 0.85337 0.29224 0.83642 0.0
H121 H 0.1108 0.45895 0.79984 0.0
H122 H 0.93889 0.3869 0.92212 0.0
H123 H 0.04751 0.31745 0.77778 0.0
H124 H 0.03919 0.4486 0.82188 0.0
H125 H 0.91727 0.31874 0.79239 0.0
C126 C 0.88527 0.31964 0.84537 0.0
C127 C 0.89132 0.33728 0.88288 0.0
C128 C 0.04093 0.42022 0.81094 0.0
C129 C 0.96342 0.36798 0.83286 0.0
C130 C 0.08148 0.42606 0.79829 0.0
C131 C 0.08467 0.38885 0.78737 0.0
C132 C 0.00357 0.37715 0.81154 0.0
C133 C 0.04612 0.34679 0.78628 0.0
C134 C 0.9215 0.33453 0.82039 0.0
C135 C 0.93323 0.37232 0.89345 0.0
N136 N 0.00702 0.34196 0.79849 0.0
N137 N 0.96791 0.38645 0.86859 0.0
H138 H 0.65482 0.90847 0.01603 0.0
H139 H 0.65745 0.12679 0.94165 0.0
H140 H 0.53828 0.92037 0.01265 0.0
H141 H 0.77338 0.1182 0.96758 0.0
H142 H 0.61142 0.04586 0.95108 0.0
H143 H 0.69575 0.97856 0.98047 0.0
C144 C 0.63762 0.92542 1.00668 0.0
C145 C 0.59334 0.90899 0.017 0.0
C146 C 0.64699 0.06168 0.95409 0.0
C147 C 0.64015 -0.01011 0.97778 0.0
C148 C 0.6733 0.1078 0.94865 0.0
C149 C 0.71925 0.12933 0.95451 0.0
C150 C 0.6669 0.03704 0.96512 0.0
C151 C 0.73803 0.10311 0.96341 0.0
C152 C 0.661 0.96554 0.98669 0.0
C153 C 0.57241 0.9321 1.00482 0.0
N154 N 0.71176 0.05846 0.96876 0.0
N155 N 0.59628 0.972 0.98632 0.0
H156 H 0.62725 0.5546 0.19469 0.0
H157 H 0.66885 0.79159 0.12423 0.0
H158 H 0.71501 0.6818 0.24829 0.0
H159 H 0.54353 0.67109 0.10502 0.0
H160 H 0.6975 0.74719 0.15246 0.0
H161 H 0.60593 0.59332 0.14718 0.0
C162 C 0.6422 0.59057 0.19622 0.0
C163 C 0.67241 0.6151 0.22566 0.0
C164 C 0.66393 0.73032 0.14155 0.0
C165 C 0.64943 0.65911 0.17138 0.0
C166 C 0.6476 0.75561 0.12532 0.0
C167 C 0.60349 0.73501 0.11311 0.0
C168 C 0.63587 0.68412 0.14598 0.0
C169 C 0.57765 0.6882 0.1145 0.0
C170 C 0.6301 0.61249 0.16924 0.0
C171 C 0.69105 0.66155 0.22645 0.0
N172 N 0.59398 0.66419 0.1315 0.0
N173 N 0.67932 0.68198 0.19973 0.0
H174 H 0.05921 0.62239 0.35309 0.0
H175 H 0.86556 0.67668 0.32015 0.0
H176 H 0.06128 0.74283 0.3881 0.0
H177 H 0.84731 0.54582 0.29884 0.0
H178 H 0.94382 0.7054 0.331 0.0
H179 H -0.01206 0.59751 0.32019 0.0
C180 C 0.04508 0.64386 0.35311 0.0
C181 C 0.06548 0.68432 0.37363 0.0
C182 C 0.92298 0.67042 0.32371 0.0
C183 C -0.01486 0.65664 0.33638 0.0
C184 C 0.87821 0.65401 0.31755 0.0
C185 C 0.84988 0.60867 0.30936 0.0
C186 C 0.93967 0.64117 0.32248 0.0
C187 C 0.86816 0.58097 0.30548 0.0
C188 C 0.00451 0.62967 0.33458 0.0
C189 C 0.04613 0.71106 0.37305 0.0
N190 N 0.91197 0.59751 0.3128 0.0
N191 N 0.00704 0.69665 0.35498 0.0
H192 H 0.52489 0.2602 0.49829 0.0
H193 H 0.63592 0.51372 0.42748 0.0
H194 H 0.52422 0.36535 0.56505 0.0
H195 H 0.63083 0.40827 0.3568 0.0
H196 H 0.59546 0.45956 0.4782 0.0
H197 H 0.56492 0.31382 0.44668 0.0
C198 C 0.53332 0.29461 0.5022 0.0
C199 C 0.52114 0.3083 0.53609 0.0
C200 C 0.60303 0.44815 0.45159 0.0
C201 C 0.56679 0.36977 0.47698 0.0
C202 C 0.62615 0.4791 0.42251 0.0
C203 C 0.6369 0.46558 0.38776 0.0
C204 C 0.59058 0.40321 0.44611 0.0
C205 C 0.62321 0.42019 0.38307 0.0
C206 C 0.55606 0.32516 0.47264 0.0
C207 C 0.5329 0.35327 0.53947 0.0
N208 N 0.60088 0.39063 0.412 0.0
N209 N 0.55502 0.38235 0.51028 0.0
H210 H 0.22477 0.62723 0.48878 0.0
H211 H 0.20845 0.58479 0.71765 0.0
H212 H 0.16498 0.67583 0.57047 0.0
H213 H 0.24682 0.51413 0.63788 0.0
H214 H 0.20018 0.6244 0.66343 0.0
H215 H 0.23918 0.58989 0.54232 0.0
C216 C 0.21454 0.62994 0.51781 0.0
C217 C 0.19354 0.65467 0.52504 0.0
C218 C 0.21055 0.60035 0.65768 0.0
C219 C 0.21036 0.61266 0.58624 0.0
C220 C 0.21549 0.57781 0.68873 0.0
C221 C 0.22807 0.54583 0.68235 0.0
C222 C 0.21825 0.591 0.61977 0.0
C223 C 0.23689 0.53841 0.64413 0.0
C224 C 0.22285 0.60873 0.54833 0.0
C225 C 0.18116 0.65715 0.56331 0.0
N226 N 0.23161 0.56069 0.61421 0.0
N227 N 0.18986 0.63659 0.59231 0.0
H228 H 0.58378 0.19763 0.90491 0.0
H229 H 0.5549 0.2399 0.68193 0.0
H230 H 0.6932 0.28702 0.83163 0.0
H231 H 0.44994 0.14296 0.75499 0.0
H232 H 0.60557 0.26222 0.73712 0.0
H233 H 0.53334 0.18275 0.85118 0.0
C234 C 0.59719 0.21445 0.87762 0.0
C235 C 0.64283 0.24335 0.87272 0.0
C236 C 0.5714 0.23612 0.74096 0.0
C237 C 0.58523 0.22615 0.81082 0.0
C238 C 0.54251 0.22332 0.70948 0.0
C239 C 0.49814 0.18935 0.71373 0.0
C240 C 0.55568 0.21488 0.77689 0.0
C241 C 0.48386 0.16915 0.75018 0.0
C242 C 0.56836 0.20581 0.84685 0.0
C243 C 0.65825 0.26431 0.83666 0.0
N244 N 0.5125 0.1822 0.78022 0.0
N245 N 0.62953 0.25507 0.80699 0.0
H246 H 0.28638 0.45113 0.90409 0.0
H247 H 0.43276 0.7089 0.96381 0.0
H248 H 0.3162 0.55912 0.82532 0.0
H249 H 0.40538 0.599 0.03933 0.0
H250 H 0.39047 0.6553 0.91262 0.0
H251 H 0.33085 0.50546 0.95342 0.0
C252 C 0.30248 0.48632 0.89703 0.0
C253 C 0.29739 0.50051 0.86042 0.0
C254 C 0.39372 0.64296 0.94041 0.0
C255 C 0.3484 0.56324 0.91724 0.0
C256 C 0.41775 0.67353 0.9697 0.0
C257 C 0.42262 0.65845 1.00599 0.0
C258 C 0.37436 0.59697 0.94744 0.0
C259 C 0.40253 0.61222 1.01188 0.0
C260 C 0.32788 0.5174 0.92534 0.0
C261 C 0.31923 0.54663 0.8531 0.0
N262 N 0.37934 0.58321 0.98295 0.0
N263 N 0.34363 0.57637 0.88132 0.0
H264 H 0.71837 0.34149 0.01893 0.0
H265 H 0.75577 0.39941 0.24529 0.0
H266 H 0.79735 0.30984 0.09338 0.0
H267 H 0.68631 0.44305 0.17093 0.0
H268 H 0.76498 0.36021 0.19057 0.0
H269 H 0.70086 0.37376 0.07479 0.0
C270 C 0.73199 0.34128 0.04694 0.0
C271 C 0.75959 0.32316 0.05138 0.0
C272 C 0.74751 0.37816 0.18621 0.0
C273 C 0.73951 0.35967 0.1153 0.0
C274 C 0.74212 0.40046 0.21753 0.0
C275 C 0.72053 0.42485 0.21266 0.0
C276 C 0.73127 0.38025 0.14966 0.0
C277 C 0.70339 0.42485 0.17598 0.0
C278 C 0.72194 0.35964 0.0788 0.0
C279 C 0.77615 0.32363 0.08842 0.0
N280 N 0.70937 0.40313 0.14581 0.0
N281 N 0.7659 0.3416 0.11883 0.0
H282 H 0.36409 0.76328 0.37434 0.0
H283 H 0.39082 0.73247 0.14809 0.0
H284 H 0.25078 0.69516 0.2992 0.0
H285 H 0.49453 0.82959 0.2217 0.0
H286 H 0.33874 0.71143 0.20284 0.0
H287 H 0.41259 0.77887 0.3187 0.0
C288 C 0.34932 0.75121 0.34617 0.0
C289 C 0.30324 0.72814 0.34146 0.0
C290 C 0.37291 0.73745 0.20674 0.0
C291 C 0.35888 0.74629 0.27726 0.0
C292 C 0.40258 0.74956 0.17553 0.0
C293 C 0.44719 0.78283 0.18022 0.0
C294 C 0.38822 0.75843 0.24282 0.0
C295 C 0.46058 0.80373 0.21652 0.0
C296 C 0.37711 0.76038 0.3143 0.0
C297 C 0.28615 0.71324 0.30413 0.0
N298 N 0.43138 0.79102 0.24631 0.0
N299 N 0.314 0.72271 0.27336 0.0
loop_
_geom_bond_atom_site_label_1
_geom_bond_atom_site_label_2
_geom_bond_distance
_geom_bond_site_symmetry_2
_ccdc_geom_bond_type
Zn0 O3 2.031 . S
Zn0 O5 2.049 . S
Zn0 O10 2.067 . S
Zn1 O2 1.962 . S
Zn1 O4 1.986 . S
Zn1 O6 1.996 . S
Zn1 O9 1.943 . S
O2 Zn1 1.962 . S
O2 C7 1.254 . S
O3 Zn0 2.031 . S
O3 C7 1.269 . S
O4 Zn1 1.986 . S
O4 C11 1.262 . S
O5 Zn0 2.049 . S
O5 C13 1.260 . S
O6 Zn1 1.996 . S
O6 C13 1.257 . S
C7 O2 1.254 . S
C7 O3 1.269 . S
C8 O9 1.249 . S
C8 O10 1.270 . S
O9 Zn1 1.943 . S
O9 C8 1.249 . S
O10 Zn0 2.067 . S
O10 C8 1.270 . S
C11 O4 1.262 . S
C11 O12 1.232 . S
O12 C11 1.232 . S
C13 O5 1.260 . S
C13 O6 1.257 . S
Zn14 O17 2.031 . S
Zn14 O19 2.049 . S
Zn14 O24 2.067 . S
Zn15 O16 1.962 . S
Zn15 O18 1.986 . S
Zn15 O20 1.996 . S
Zn15 O23 1.943 . S
O16 Zn15 1.962 . S
O16 C21 1.254 . S
O17 Zn14 2.031 . S
O17 C21 1.269 . S
O18 Zn15 1.986 . S
O18 C25 1.262 . S
O19 Zn14 2.049 . S
O19 C27 1.260 . S
O20 Zn15 1.996 . S
O20 C27 1.257 . S
C21 O16 1.254 . S
C21 O17 1.269 . S
C22 O23 1.249 . S
C22 O24 1.270 . S
O23 Zn15 1.943 . S
O23 C22 1.249 . S
O24 Zn14 2.067 . S
O24 C22 1.270 . S
C25 O18 1.262 . S
C25 O26 1.232 . S
O26 C25 1.232 . S
C27 O19 1.260 . S
C27 O20 1.257 . S
Zn28 O31 2.031 . S
Zn28 O33 2.049 . S
Zn28 O38 2.067 . S
Zn29 O30 1.962 . S
Zn29 O32 1.986 . S
Zn29 O34 1.996 . S
Zn29 O37 1.943 . S
O30 Zn29 1.962 . S
O30 C35 1.254 . S
O31 Zn28 2.031 . S
O31 C35 1.269 . S
O32 Zn29 1.986 . S
O32 C39 1.262 . S
O33 Zn28 2.049 . S
O33 C41 1.260 . S
O34 Zn29 1.996 . S
O34 C41 1.257 . S
C35 O30 1.254 . S
C35 O31 1.269 . S
C36 O37 1.249 . S
C36 O38 1.270 . S
O37 Zn29 1.943 . S
O37 C36 1.249 . S
O38 Zn28 2.067 . S
O38 C36 1.270 . S
C39 O32 1.262 . S
C39 O40 1.232 . S
O40 C39 1.232 . S
C41 O33 1.260 . S
C41 O34 1.257 . S
Zn42 O45 2.031 . S
Zn42 O47 2.049 . S
Zn42 O52 2.067 . S
Zn43 O44 1.962 . S
Zn43 O46 1.986 . S
Zn43 O48 1.996 . S
Zn43 O51 1.943 . S
O44 Zn43 1.962 . S
O44 C49 1.254 . S
O45 Zn42 2.031 . S
O45 C49 1.269 . S
O46 Zn43 1.986 . S
O46 C53 1.262 . S
O47 Zn42 2.049 . S
O47 C55 1.260 . S
O48 Zn43 1.996 . S
O48 C55 1.257 . S
C49 O44 1.254 . S
C49 O45 1.269 . S
C50 O51 1.249 . S
C50 O52 1.270 . S
O51 Zn43 1.943 . S
O51 C50 1.249 . S
O52 Zn42 2.067 . S
O52 C50 1.270 . S
C53 O46 1.262 . S
C53 O54 1.232 . S
O54 C53 1.232 . S
C55 O47 1.260 . S
C55 O48 1.257 . S
Zn56 O59 2.031 . S
Zn56 O61 2.049 . S
Zn56 O66 2.067 . S
Zn57 O58 1.962 . S
Zn57 O60 1.986 . S
Zn57 O62 1.996 . S
Zn57 O65 1.943 . S
O58 Zn57 1.962 . S
O58 C63 1.254 . S
O59 Zn56 2.031 . S
O59 C63 1.269 . S
O60 Zn57 1.986 . S
O60 C67 1.262 . S
O61 Zn56 2.049 . S
O61 C69 1.260 . S
O62 Zn57 1.996 . S
O62 C69 1.257 . S
C63 O58 1.254 . S
C63 O59 1.269 . S
C64 O65 1.249 . S
C64 O66 1.270 . S
O65 Zn57 1.943 . S
O65 C64 1.249 . S
O66 Zn56 2.067 . S
O66 C64 1.270 . S
C67 O60 1.262 . S
C67 O68 1.232 . S
O68 C67 1.232 . S
C69 O61 1.260 . S
C69 O62 1.257 . S
Zn70 O73 2.031 . S
Zn70 O75 2.049 . S
Zn70 O80 2.067 . S
Zn71 O72 1.962 . S
Zn71 O74 1.986 . S
Zn71 O76 1.996 . S
Zn71 O79 1.943 . S
O72 Zn71 1.962 . S
O72 C77 1.254 . S
O73 Zn70 2.031 . S
O73 C77 1.269 . S
O74 Zn71 1.986 . S
O74 C81 1.262 . S
O75 Zn70 2.049 . S
O75 C83 1.260 . S
O76 Zn71 1.996 . S
O76 C83 1.257 . S
C77 O72 1.254 . S
C77 O73 1.269 . S
C78 O79 1.249 . S
C78 O80 1.270 . S
O79 Zn71 1.943 . S
O79 C78 1.249 . S
O80 Zn70 2.067 . S
O80 C78 1.270 . S
C81 O74 1.262 . S
C81 O82 1.232 . S
O82 C81 1.232 . S
C83 O75 1.260 . S
C83 O76 1.257 . S
H84 C90 0.930 . S
H85 C94 0.930 . S
H86 C99 0.929 . S
H87 C97 0.929 . S
H88 C92 0.929 . S
H89 C98 0.927 . S
C90 H84 0.930 . S
C90 C91 1.367 . S
C90 C98 1.378 . S
C91 C90 1.367 . S
C91 C99 1.433 . S
C92 H88 0.929 . S
C92 C94 1.378 . S
C92 C96 1.350 . S
C93 C96 1.463 1_545 S
C93 C98 1.350 . S
C93 N101 1.427 . S
C94 H85 0.930 . S
C94 C92 1.378 . S
C94 C95 1.367 . S
C95 C94 1.367 . S
C95 C97 1.433 . S
C96 C92 1.350 . S
C96 C93 1.463 1_565 S
C96 N100 1.427 . S
C97 H87 0.929 . S
C97 C95 1.433 . S
C97 N100 1.384 . S
C98 H89 0.927 . S
C98 C90 1.378 . S
C98 C93 1.350 . S
C99 H86 0.929 . S
C99 C91 1.433 . S
C99 N101 1.384 . S
N100 C96 1.427 . S
N100 C97 1.384 . S
N101 C93 1.427 . S
N101 C99 1.384 . S
H102 C108 0.930 . S
H103 C112 0.930 . S
H104 C117 0.929 . S
H105 C115 0.929 . S
H106 C110 0.929 . S
H107 C116 0.929 . S
C108 H102 0.930 . S
C108 C109 1.367 . S
C108 C116 1.378 . S
C109 C108 1.367 . S
C109 C117 1.433 . S
C110 H106 0.929 . S
C110 C112 1.378 . S
C110 C114 1.350 . S
C111 C114 1.463 . S
C111 C116 1.350 . S
C111 N119 1.427 . S
C112 H103 0.930 . S
C112 C110 1.378 . S
C112 C113 1.367 . S
C113 C112 1.367 . S
C113 C115 1.433 . S
C114 C110 1.350 . S
C114 C111 1.463 . S
C114 N118 1.427 . S
C115 H105 0.929 . S
C115 C113 1.433 . S
C115 N118 1.384 . S
C116 H107 0.929 . S
C116 C108 1.378 . S
C116 C111 1.350 . S
C117 H104 0.929 . S
C117 C109 1.433 . S
C117 N119 1.384 . S
N118 C114 1.427 . S
N118 C115 1.384 . S
N119 C111 1.427 . S
N119 C117 1.384 . S
H120 C126 0.930 . S
H121 C130 0.930 . S
H122 C135 0.929 . S
H123 C133 0.929 . S
H124 C128 0.929 . S
H125 C134 0.929 . S
C126 H120 0.930 . S
C126 C127 1.367 . S
C126 C134 1.378 . S
C127 C126 1.367 . S
C127 C135 1.433 . S
C128 H124 0.929 . S
C128 C130 1.378 . S
C128 C132 1.350 . S
C129 C132 1.463 1_655 S
C129 C134 1.350 . S
C129 N137 1.427 . S
C130 H121 0.930 . S
C130 C128 1.378 . S
C130 C131 1.367 . S
C131 C130 1.367 . S
C131 C133 1.433 . S
C132 C128 1.350 . S
C132 C129 1.463 1_455 S
C132 N136 1.427 . S
C133 H123 0.929 . S
C133 C131 1.433 . S
C133 N136 1.384 . S
C134 H125 0.929 . S
C134 C126 1.378 . S
C134 C129 1.350 . S
C135 H122 0.929 . S
C135 C127 1.433 . S
C135 N137 1.384 . S
N136 C132 1.427 . S
N136 C133 1.384 . S
N137 C129 1.427 . S
N137 C135 1.384 . S
H138 C144 0.930 . S
H139 C148 0.930 . S
H140 C153 0.929 . S
H141 C151 0.929 . S
H142 C146 0.929 . S
H143 C152 0.929 . S
C144 H138 0.930 . S
C144 C145 1.367 . S
C144 C152 1.378 . S
C145 C144 1.367 . S
C145 C153 1.433 . S
C146 H142 0.929 . S
C146 C148 1.378 . S
C146 C150 1.350 . S
C147 C150 1.463 1_564 S
C147 C152 1.350 . S
C147 N155 1.427 . S
C148 H139 0.930 . S
C148 C146 1.378 . S
C148 C149 1.367 . S
C149 C148 1.367 . S
C149 C151 1.433 . S
C150 C146 1.350 . S
C150 C147 1.463 1_546 S
C150 N154 1.427 . S
C151 H141 0.929 . S
C151 C149 1.433 . S
C151 N154 1.384 . S
C152 H143 0.929 . S
C152 C144 1.378 . S
C152 C147 1.350 . S
C153 H140 0.929 . S
C153 C145 1.433 . S
C153 N155 1.384 . S
N154 C150 1.427 . S
N154 C151 1.384 . S
N155 C147 1.427 . S
N155 C153 1.384 . S
H156 C162 0.930 . S
H157 C166 0.930 . S
H158 C171 0.929 . S
H159 C169 0.929 . S
H160 C164 0.929 . S
H161 C170 0.929 . S
C162 H156 0.930 . S
C162 C163 1.367 . S
C162 C170 1.378 . S
C163 C162 1.367 . S
C163 C171 1.433 . S
C164 H160 0.929 . S
C164 C166 1.378 . S
C164 C168 1.350 . S
C165 C168 1.463 . S
C165 C170 1.350 . S
C165 N173 1.427 . S
C166 H157 0.930 . S
C166 C164 1.378 . S
C166 C167 1.367 . S
C167 C166 1.367 . S
C167 C169 1.433 . S
C168 C164 1.350 . S
C168 C165 1.463 . S
C168 N172 1.427 . S
C169 H159 0.929 . S
C169 C167 1.433 . S
C169 N172 1.384 . S
C170 H161 0.929 . S
C170 C162 1.378 . S
C170 C165 1.350 . S
C171 H158 0.929 . S
C171 C163 1.433 . S
C171 N173 1.384 . S
N172 C168 1.427 . S
N172 C169 1.384 . S
N173 C165 1.427 . S
N173 C171 1.384 . S
H174 C180 0.930 . S
H175 C184 0.930 . S
H176 C189 0.929 . S
H177 C187 0.929 . S
H178 C182 0.929 . S
H179 C188 0.929 . S
C180 H174 0.930 . S
C180 C181 1.367 . S
C180 C188 1.378 . S
C181 C180 1.367 . S
C181 C189 1.433 . S
C182 H178 0.929 . S
C182 C184 1.378 . S
C182 C186 1.350 . S
C183 C186 1.463 1_455 S
C183 C188 1.350 . S
C183 N191 1.427 . S
C184 H175 0.930 . S
C184 C182 1.378 . S
C184 C185 1.367 . S
C185 C184 1.367 . S
C185 C187 1.433 . S
C186 C182 1.350 . S
C186 C183 1.463 1_655 S
C186 N190 1.427 . S
C187 H177 0.929 . S
C187 C185 1.433 . S
C187 N190 1.384 . S
C188 H179 0.929 . S
C188 C180 1.378 . S
C188 C183 1.350 . S
C189 H176 0.929 . S
C189 C181 1.433 . S
C189 N191 1.384 . S
N190 C186 1.427 . S
N190 C187 1.384 . S
N191 C183 1.427 . S
N191 C189 1.384 . S
H192 C198 0.930 . S
H193 C202 0.930 . S
H194 C207 0.929 . S
H195 C205 0.929 . S
H196 C200 0.929 . S
H197 C206 0.929 . S
C198 H192 0.930 . S
C198 C199 1.367 . S
C198 C206 1.378 . S
C199 C198 1.367 . S
C199 C207 1.433 . S
C200 H196 0.929 . S
C200 C202 1.378 . S
C200 C204 1.350 . S
C201 C204 1.463 . S
C201 C206 1.350 . S
C201 N209 1.427 . S
C202 H193 0.930 . S
C202 C200 1.378 . S
C202 C203 1.367 . S
C203 C202 1.367 . S
C203 C205 1.433 . S
C204 C200 1.350 . S
C204 C201 1.463 . S
C204 N208 1.427 . S
C205 H195 0.929 . S
C205 C203 1.433 . S
C205 N208 1.384 . S
C206 H197 0.929 . S
C206 C198 1.378 . S
C206 C201 1.350 . S
C207 H194 0.929 . S
C207 C199 1.433 . S
C207 N209 1.384 . S
N208 C204 1.427 . S
N208 C205 1.384 . S
N209 C201 1.427 . S
N209 C207 1.384 . S
H210 C216 0.930 . S
H211 C220 0.930 . S
H212 C225 0.929 . S
H213 C223 0.929 . S
H214 C218 0.929 . S
H215 C224 0.929 . S
C216 H210 0.930 . S
C216 C217 1.367 . S
C216 C224 1.378 . S
C217 C216 1.367 . S
C217 C225 1.433 . S
C218 H214 0.929 . S
C218 C220 1.378 . S
C218 C222 1.350 . S
C219 C222 1.463 . S
C219 C224 1.350 . S
C219 N227 1.427 . S
C220 H211 0.930 . S
C220 C218 1.378 . S
C220 C221 1.367 . S
C221 C220 1.367 . S
C221 C223 1.433 . S
C222 C218 1.350 . S
C222 C219 1.463 . S
C222 N226 1.427 . S
C223 H213 0.929 . S
C223 C221 1.433 . S
C223 N226 1.384 . S
C224 H215 0.929 . S
C224 C216 1.378 . S
C224 C219 1.350 . S
C225 H212 0.929 . S
C225 C217 1.433 . S
C225 N227 1.384 . S
N226 C222 1.427 . S
N226 C223 1.384 . S
N227 C219 1.427 . S
N227 C225 1.384 . S
H228 C234 0.930 . S
H229 C238 0.930 . S
H230 C243 0.929 . S
H231 C241 0.929 . S
H232 C236 0.929 . S
H233 C242 0.929 . S
C234 H228 0.930 . S
C234 C235 1.367 . S
C234 C242 1.378 . S
C235 C234 1.367 . S
C235 C243 1.433 . S
C236 H232 0.929 . S
C236 C238 1.378 . S
C236 C240 1.350 . S
C237 C240 1.463 . S
C237 C242 1.350 . S
C237 N245 1.427 . S
C238 H229 0.930 . S
C238 C236 1.378 . S
C238 C239 1.367 . S
C239 C238 1.367 . S
C239 C241 1.433 . S
C240 C236 1.350 . S
C240 C237 1.463 . S
C240 N244 1.427 . S
C241 H231 0.929 . S
C241 C239 1.433 . S
C241 N244 1.384 . S
C242 H233 0.929 . S
C242 C234 1.378 . S
C242 C237 1.350 . S
C243 H230 0.929 . S
C243 C235 1.433 . S
C243 N245 1.384 . S
N244 C240 1.427 . S
N244 C241 1.384 . S
N245 C237 1.427 . S
N245 C243 1.384 . S
H246 C252 0.930 . S
H247 C256 0.930 . S
H248 C261 0.929 . S
H249 C259 0.929 1_554 S
H250 C254 0.929 . S
H251 C260 0.929 . S
C252 H246 0.930 . S
C252 C253 1.367 . S
C252 C260 1.378 . S
C253 C252 1.367 . S
C253 C261 1.433 . S
C254 H250 0.929 . S
C254 C256 1.378 . S
C254 C258 1.350 . S
C255 C258 1.463 . S
C255 C260 1.350 . S
C255 N263 1.427 . S
C256 H247 0.930 . S
C256 C254 1.378 . S
C256 C257 1.367 . S
C257 C256 1.367 . S
C257 C259 1.433 . S
C258 C254 1.350 . S
C258 C255 1.463 . S
C258 N262 1.427 . S
C259 H249 0.929 1_556 S
C259 C257 1.433 . S
C259 N262 1.384 . S
C260 H251 0.929 . S
C260 C252 1.378 . S
C260 C255 1.350 . S
C261 H248 0.929 . S
C261 C253 1.433 . S
C261 N263 1.384 . S
N262 C258 1.427 . S
N262 C259 1.384 . S
N263 C255 1.427 . S
N263 C261 1.384 . S
H264 C270 0.929 1_556 S
H265 C274 0.930 . S
H266 C279 0.929 . S
H267 C277 0.929 . S
H268 C272 0.929 . S
H269 C278 0.929 . S
C270 H264 0.929 1_554 S
C270 C271 1.367 . S
C270 C278 1.379 . S
C271 C270 1.367 . S
C271 C279 1.433 . S
C272 H268 0.929 . S
C272 C274 1.378 . S
C272 C276 1.350 . S
C273 C276 1.463 . S
C273 C278 1.350 . S
C273 N281 1.427 . S
C274 H265 0.930 . S
C274 C272 1.378 . S
C274 C275 1.367 . S
C275 C274 1.367 . S
C275 C277 1.433 . S
C276 C272 1.350 . S
C276 C273 1.463 . S
C276 N280 1.427 . S
C277 H267 0.929 . S
C277 C275 1.433 . S
C277 N280 1.384 . S
C278 H269 0.929 . S
C278 C270 1.379 . S
C278 C273 1.350 . S
C279 H266 0.929 . S
C279 C271 1.433 . S
C279 N281 1.384 . S
N280 C276 1.427 . S
N280 C277 1.384 . S
N281 C273 1.427 . S
N281 C279 1.384 . S
H282 C288 0.930 . S
H283 C292 0.930 . S
H284 C297 0.929 . S
H285 C295 0.929 . S
H286 C290 0.929 . S
H287 C296 0.929 . S
C288 H282 0.930 . S
C288 C289 1.367 . S
C288 C296 1.378 . S
C289 C288 1.367 . S
C289 C297 1.433 . S
C290 H286 0.929 . S
C290 C292 1.378 . S
C290 C294 1.350 . S
C291 C294 1.463 . S
C291 C296 1.350 . S
C291 N299 1.427 . S
C292 H283 0.930 . S
C292 C290 1.378 . S
C292 C293 1.367 . S
C293 C292 1.367 . S
C293 C295 1.433 . S
C294 C290 1.350 . S
C294 C291 1.463 . S
C294 N298 1.427 . S
C295 H285 0.929 . S
C295 C293 1.433 . S
C295 N298 1.384 . S
C296 H287 0.929 . S
C296 C288 1.378 . S
C296 C291 1.350 . S
C297 H284 0.929 . S
C297 C289 1.433 . S
C297 N299 1.384 . S
N298 C294 1.427 . S
N298 C295 1.384 . S
N299 C291 1.427 . S
N299 C297 1.384 . S
C91 C13 1.353 . S
C95 C77 1.426 . S
C109 C7 1.425 . S
C113 C27 1.366 . S
C127 C41 1.370 . S
C131 C21 1.424 . S
C145 C55 1.356 . S
C149 C35 1.427 . S
C163 C69 1.369 . S
C167 C49 1.423 . S
C181 C83 1.371 . S
C185 C63 1.423 . S
C199 C11 1.528 . S
C203 C64 1.502 . S
C217 C78 1.503 . S
C221 C25 1.527 . S
C235 C39 1.526 . S
C239 C8 1.507 . S
C253 C22 1.498 . S
C257 C53 1.530 1_556 S
C271 C36 1.499 1_554 S
C275 C67 1.529 . S
C289 C81 1.526 . S
C293 C50 1.506 . S
