# Generated by pormake.
# Topology ukh, (4)-cn, num edge types: 1
# Building blocks:
#     Node 0, Type 0, BuildingBlock: UXUYUI_clean_sbu_0, # of connection points: 4
#     Node 1, Type 0, BuildingBlock: UXUYUI_clean_sbu_0, # of connection points: 4
#     Node 2, Type 0, BuildingBlock: UXUYUI_clean_sbu_0, # of connection points: 4
#     Node 3, Type 0, BuildingBlock: UXUYUI_clean_sbu_0, # of connection points: 4
#     Node 4, Type 0, BuildingBlock: UXUYUI_clean_sbu_0, # of connection points: 4
#     Node 5, Type 0, BuildingBlock: UXUYUI_clean_sbu_0, # of connection points: 4
#     Node 6, Type 0, BuildingBlock: UXUYUI_clean_sbu_0, # of connection points: 4
#     Node 7, Type 0, BuildingBlock: UXUYUI_clean_sbu_0, # of connection points: 4
#     Node 8, Type 0, BuildingBlock: UXUYUI_clean_sbu_0, # of connection points: 4
#     Node 9, Type 0, BuildingBlock: UXUYUI_clean_sbu_0, # of connection points: 4
#     Node 10, Type 0, BuildingBlock: UXUYUI_clean_sbu_0, # of connection points: 4
#     Node 11, Type 0, BuildingBlock: UXUYUI_clean_sbu_0, # of connection points: 4
#     Edge 12, Type (0, 0), BuildingBlock: EZIPEK_clean_linker_0, # of connection points: 2
#     Edge 13, Type (0, 0), BuildingBlock: EZIPEK_clean_linker_0, # of connection points: 2
#     Edge 14, Type (0, 0), BuildingBlock: EZIPEK_clean_linker_0, # of connection points: 2
#     Edge 15, Type (0, 0), BuildingBlock: EZIPEK_clean_linker_0, # of connection points: 2
#     Edge 16, Type (0, 0), BuildingBlock: EZIPEK_clean_linker_0, # of connection points: 2
#     Edge 17, Type (0, 0), BuildingBlock: EZIPEK_clean_linker_0, # of connection points: 2
#     Edge 18, Type (0, 0), BuildingBlock: EZIPEK_clean_linker_0, # of connection points: 2
#     Edge 19, Type (0, 0), BuildingBlock: EZIPEK_clean_linker_0, # of connection points: 2
#     Edge 20, Type (0, 0), BuildingBlock: EZIPEK_clean_linker_0, # of connection points: 2
#     Edge 21, Type (0, 0), BuildingBlock: EZIPEK_clean_linker_0, # of connection points: 2
#     Edge 22, Type (0, 0), BuildingBlock: EZIPEK_clean_linker_0, # of connection points: 2
#     Edge 23, Type (0, 0), BuildingBlock: EZIPEK_clean_linker_0, # of connection points: 2
#     Edge 24, Type (0, 0), BuildingBlock: EZIPEK_clean_linker_0, # of connection points: 2
#     Edge 25, Type (0, 0), BuildingBlock: EZIPEK_clean_linker_0, # of connection points: 2
#     Edge 26, Type (0, 0), BuildingBlock: EZIPEK_clean_linker_0, # of connection points: 2
#     Edge 27, Type (0, 0), BuildingBlock: EZIPEK_clean_linker_0, # of connection points: 2
#     Edge 28, Type (0, 0), BuildingBlock: EZIPEK_clean_linker_0, # of connection points: 2
#     Edge 29, Type (0, 0), BuildingBlock: EZIPEK_clean_linker_0, # of connection points: 2
#     Edge 30, Type (0, 0), BuildingBlock: EZIPEK_clean_linker_0, # of connection points: 2
#     Edge 31, Type (0, 0), BuildingBlock: EZIPEK_clean_linker_0, # of connection points: 2
#     Edge 32, Type (0, 0), BuildingBlock: EZIPEK_clean_linker_0, # of connection points: 2
#     Edge 33, Type (0, 0), BuildingBlock: EZIPEK_clean_linker_0, # of connection points: 2
#     Edge 34, Type (0, 0), BuildingBlock: EZIPEK_clean_linker_0, # of connection points: 2
#     Edge 35, Type (0, 0), BuildingBlock: EZIPEK_clean_linker_0, # of connection points: 2
# Relax obj value: 0.278
# Max RMSD: 0.251
# Mean RMSD: 0.251
data_MOF--net-ukh--node1-UXUYUI_clean_sbu_0--edge1-EZIPEK_clean_linker_0
_symmetry_space_group_name_H-M    P1
_symmetry_Int_Tables_number       1
_symmetry_cell_setting            triclinic
loop_
_symmetry_equiv_pos_as_xyz
'x, y, z'
_cell_length_a     37.740824
_cell_length_b     37.740978
_cell_length_c     73.372787
_cell_angle_alpha  90.004974
_cell_angle_beta   89.987482
_cell_angle_gamma 119.98413
loop_
_atom_site_label
_atom_site_type_symbol
_atom_site_fract_x
_atom_site_fract_y
_atom_site_fract_z
_atom_type_partial_charge
Li0 Li 0.3686 0.26868 0.0427 0.0
Li1 Li 0.33489 0.22102 0.06677 0.0
Li2 Li 0.34268 0.19403 0.03863 0.0
Li3 Li 0.29635 0.22233 0.04153 0.0
C4 C 0.4243 0.24134 0.0486 0.0
N5 N 0.49972 0.25829 0.03534 0.0
C6 C 0.45595 0.24871 0.06063 0.0
C7 C 0.43096 0.24243 0.0298 0.0
C8 C 0.49388 0.25728 0.05367 0.0
C9 C 0.46932 0.25109 0.02338 0.0
C10 C 0.34382 0.29777 0.0715 0.0
C11 C 0.34454 0.35396 0.08749 0.0
N12 N 0.38082 0.36311 0.09529 0.0
C13 C 0.38115 0.30774 0.07968 0.0
C14 C 0.32538 0.32107 0.07541 0.0
C15 C 0.39934 0.34087 0.09167 0.0
C16 C 0.38826 0.34576 0.03204 0.0
N17 N 0.40676 0.32424 0.03704 0.0
C18 C 0.47182 0.38557 0.03814 0.0
C19 C 0.44782 0.34309 0.03997 0.0
C20 C 0.45306 0.40845 0.03357 0.0
C21 C 0.41093 0.38813 0.03022 0.0
H22 H 0.35543 0.33004 0.03027 0.0
H23 H 0.46177 0.32566 0.04445 0.0
C24 C 0.35283 0.19007 0.09757 0.0
N25 N 0.33381 0.21082 0.09217 0.0
C26 C 0.35153 0.17897 0.11579 0.0
C27 C 0.31162 0.2114 0.12261 0.0
C28 C 0.31347 0.22168 0.1042 0.0
C29 C 0.33063 0.18961 0.12843 0.0
H30 H 0.36838 0.18153 0.08762 0.0
H31 H 0.29809 0.23763 0.09946 0.0
C32 C 0.3169 0.23134 0.00649 0.0
N33 N 0.273 0.22736 0.97566 0.0
C34 C 0.28363 0.19404 0.001 0.0
C35 C 0.32797 0.26658 0.99625 0.0
C36 C 0.26185 0.19265 0.98538 0.0
C37 C 0.30532 0.26396 0.98073 0.0
C38 C 0.26762 0.14925 0.06661 0.0
C39 C 0.27035 0.1154 0.07237 0.0
C40 C 0.24022 0.15857 0.0752 0.0
C41 C 0.24566 0.09146 0.08672 0.0
C42 C 0.21605 0.13387 0.0895 0.0
N43 N 0.21923 0.1011 0.0949 0.0
C44 C 0.35685 0.12849 0.04102 0.0
C45 C 0.33685 0.13766 0.01154 0.0
C46 C 0.34964 0.08957 0.0363 0.0
N47 N 0.34852 0.15067 0.02892 0.0
C48 C 0.32889 0.09882 0.0063 0.0
C49 C 0.33349 0.07378 0.01906 0.0
H50 H 0.36583 0.13962 0.05479 0.0
H51 H 0.33089 0.15608 0.00215 0.0
C52 C 0.24952 0.25372 0.02685 0.0
N53 N 0.24714 0.21859 0.03296 0.0
C54 C 0.21553 0.25283 0.0189 0.0
C55 C 0.17686 0.17981 0.02425 0.0
C56 C 0.2118 0.18201 0.0319 0.0
C57 C 0.17886 0.21551 0.0175 0.0
H58 H 0.27817 0.28224 0.02777 0.0
H59 H 0.21103 0.15449 0.03662 0.0
O60 O 0.38712 0.23291 0.05538 0.0
O61 O 0.32575 0.26621 0.05929 0.0
O62 O 0.33845 0.2334 0.02183 0.0
O63 O 0.29187 0.17339 0.05273 0.0
H64 H 0.45124 0.2479 0.07522 0.0
H65 H 0.40695 0.2367 0.02022 0.0
H66 H 0.51867 0.26313 0.06283 0.0
H67 H 0.47491 0.25207 0.00888 0.0
H68 H 0.33062 0.37229 0.09062 0.0
H69 H 0.39611 0.29034 0.07677 0.0
H70 H 0.29663 0.31391 0.06909 0.0
H71 H 0.42825 0.34898 0.09806 0.0
H72 H 0.50431 0.40061 0.04097 0.0
H73 H 0.39558 0.40504 0.02685 0.0
H74 H 0.36634 0.16202 0.11997 0.0
H75 H 0.2951 0.21976 0.13213 0.0
H76 H 0.27426 0.16657 0.00893 0.0
H77 H 0.35385 0.29563 0.00018 0.0
H78 H 0.2359 0.16402 0.98104 0.0
H79 H 0.31347 0.29101 0.9727 0.0
H80 H 0.29133 0.10771 0.06587 0.0
H81 H 0.23803 0.18491 0.07102 0.0
H82 H 0.24753 0.06524 0.09136 0.0
H83 H 0.19487 0.14083 0.09634 0.0
H84 H 0.35318 0.07072 0.04645 0.0
H85 H 0.31642 0.08729 0.99289 0.0
H86 H 0.21784 0.28082 0.01376 0.0
H87 H 0.14888 0.15058 0.02326 0.0
Li88 Li 0.09417 0.3724 0.37219 0.0
Li89 Li 0.11034 0.34121 0.39783 0.0
Li90 Li 0.14152 0.34941 0.36826 0.0
Li91 Li 0.06777 0.29974 0.3721 0.0
C92 C 0.18768 0.42139 0.38295 0.0
N93 N 0.26997 0.47646 0.3781 0.0
C94 C 0.21566 0.42749 0.39677 0.0
C95 C 0.20146 0.44394 0.36683 0.0
C96 C 0.25716 0.45529 0.39402 0.0
C97 C 0.2432 0.47145 0.36458 0.0
C98 C 0.03877 0.34687 0.40156 0.0
C99 C 0.98095 0.34175 0.4179 0.0
N100 N 0.00487 0.38053 0.42421 0.0
C101 C 0.0628 0.38672 0.40819 0.0
C102 C 0.99751 0.32422 0.40641 0.0
C103 C 0.04508 0.40316 0.41963 0.0
C104 C 0.03506 0.39274 0.36396 0.0
N105 N 0.07614 0.41001 0.36636 0.0
C106 C 0.08438 0.47701 0.36548 0.0
C107 C 0.10106 0.4513 0.36688 0.0
C108 C 0.04183 0.45969 0.36378 0.0
C109 C 0.01716 0.41716 0.36263 0.0
H110 H 0.01594 0.35981 0.36397 0.0
H111 H 0.13348 0.46418 0.36921 0.0
C112 C 0.15534 0.33631 0.42635 0.0
N113 N 0.12119 0.33881 0.42307 0.0
C114 C 0.16701 0.33422 0.44416 0.0
C115 C 0.10764 0.33645 0.45501 0.0
C116 C 0.09689 0.33811 0.43695 0.0
C117 C 0.14317 0.3347 0.45865 0.0
H118 H 0.17359 0.336 0.41505 0.0
H119 H 0.06911 0.33858 0.43415 0.0
C120 C 0.08484 0.3537 0.33732 0.0
N121 N 0.06205 0.38562 0.30868 0.0
C122 C 0.04382 0.33543 0.33207 0.0
C123 C 0.11436 0.38774 0.32775 0.0
C124 C 0.03288 0.35214 0.31764 0.0
C125 C 0.10221 0.40355 0.31338 0.0
C126 C 0.10349 0.26509 0.39369 0.0
C127 C 0.12753 0.24651 0.39376 0.0
C128 C 0.0677 0.24844 0.40411 0.0
C129 C 0.11529 0.21139 0.40425 0.0
C130 C 0.05653 0.21331 0.41443 0.0
N131 N 0.08035 0.19566 0.41429 0.0
C132 C 0.21548 0.35032 0.36937 0.0
C133 C 0.19047 0.34762 0.33942 0.0
C134 C 0.24395 0.34005 0.36292 0.0
N135 N 0.18883 0.35275 0.35768 0.0
C136 C 0.21844 0.33719 0.33238 0.0
C137 C 0.24432 0.33174 0.34434 0.0
H138 H 0.2123 0.35289 0.38388 0.0
H139 H 0.1679 0.34819 0.33055 0.0
C140 C 0.98595 0.24426 0.36388 0.0
N141 N 0.02389 0.24862 0.36474 0.0
C142 C 0.95337 0.2086 0.35674 0.0
C143 C 0.99914 0.18174 0.35244 0.0
C144 C 0.03105 0.2183 0.35933 0.0
C145 C 0.96001 0.17709 0.35076 0.0
H146 H 0.98139 0.26911 0.36818 0.0
H147 H 0.06168 0.22287 0.36001 0.0
O148 O 0.14697 0.39387 0.38526 0.0
O149 O 0.05494 0.33056 0.38978 0.0
O150 O 0.09604 0.33821 0.35166 0.0
O151 O 0.11542 0.29978 0.38365 0.0
H152 H 0.20552 0.41103 0.40949 0.0
H153 H 0.18016 0.44028 0.35619 0.0
H154 H 0.27917 0.46009 0.40455 0.0
H155 H 0.25429 0.48889 0.35211 0.0
H156 H 0.94905 0.32456 0.42177 0.0
H157 H 0.09475 0.40482 0.40455 0.0
H158 H 0.97845 0.29346 0.40129 0.0
H159 H 0.06327 0.43395 0.42484 0.0
H160 H 0.10409 0.50983 0.36652 0.0
H161 H 0.98423 0.40298 0.36144 0.0
H162 H 0.19447 0.33261 0.44663 0.0
H163 H 0.08849 0.33641 0.46601 0.0
H164 H 0.02059 0.30891 0.33919 0.0
H165 H 0.14634 0.40169 0.3313 0.0
H166 H 0.00118 0.33852 0.31356 0.0
H167 H 0.12474 0.43001 0.30594 0.0
H168 H 0.15539 0.25916 0.38579 0.0
H169 H 0.0488 0.26252 0.40428 0.0
H170 H 0.13359 0.19666 0.40444 0.0
H171 H 0.02895 0.2001 0.42257 0.0
H172 H 0.26303 0.33525 0.37248 0.0
H173 H 0.21763 0.33019 0.31801 0.0
H174 H 0.92347 0.20582 0.3556 0.0
H175 H 0.00509 0.15786 0.34795 0.0
Li176 Li 0.78029 0.11463 0.7344 0.0
Li177 Li 0.72862 0.0948 0.71047 0.0
Li178 Li 0.77764 0.06917 0.71071 0.0
Li179 Li 0.80135 0.14014 0.7024 0.0
C180 C 0.71805 0.04459 0.74551 0.0
N181 N 0.686 0.01757 0.77991 0.0
C182 C 0.68187 0.04342 0.75075 0.0
C183 C 0.73765 0.03153 0.7577 0.0
C184 C 0.66618 0.0297 0.76821 0.0
C185 C 0.72108 0.01818 0.77506 0.0
C186 C 0.75558 0.17979 0.71819 0.0
C187 C 0.74998 0.23078 0.70059 0.0
N188 N 0.7334 0.23917 0.71527 0.0
C189 C 0.73908 0.18938 0.73318 0.0
C190 C 0.76161 0.20106 0.70183 0.0
C191 C 0.72781 0.2193 0.7314 0.0
C192 C 0.83126 0.14085 0.76521 0.0
N193 N 0.79309 0.13021 0.75927 0.0
C194 C 0.77496 0.1431 0.78875 0.0
C195 C 0.76509 0.13138 0.77056 0.0
C196 C 0.81393 0.15352 0.79524 0.0
C197 C 0.84231 0.1524 0.7833 0.0
H198 H 0.85325 0.14057 0.7559 0.0
H199 H 0.73508 0.12311 0.76547 0.0
C200 C 0.652 0.03993 0.69709 0.0
N201 N 0.67246 0.07668 0.70571 0.0
C202 C 0.60949 0.01991 0.69544 0.0
C203 C 0.60994 0.07657 0.71106 0.0
C204 C 0.65251 0.09554 0.7124 0.0
C205 C 0.5881 0.03797 0.70283 0.0
H206 H 0.66865 0.02539 0.69218 0.0
H207 H 0.6692 0.12422 0.71954 0.0
C208 C 0.85518 0.10695 0.71945 0.0
N209 N 0.91177 0.08087 0.71781 0.0
C210 C 0.88377 0.12002 0.7053 0.0
C211 C 0.8556 0.08081 0.73284 0.0
C212 C 0.91213 0.10653 0.70471 0.0
C213 C 0.88433 0.06785 0.73174 0.0
C214 C 0.75169 0.09614 0.67222 0.0
C215 C 0.7622 0.07975 0.65749 0.0
C216 C 0.73167 0.11825 0.66906 0.0
C217 C 0.75328 0.08654 0.63979 0.0
C218 C 0.72322 0.12434 0.65117 0.0
N219 N 0.73417 0.10854 0.63702 0.0
C220 C 0.76628 0.98944 0.71492 0.0
C221 C 0.80909 0.02796 0.69057 0.0
C222 C 0.77341 0.95726 0.71116 0.0
N223 N 0.78498 0.02429 0.70496 0.0
C224 C 0.8173 0.99673 0.68643 0.0
C225 C 0.80177 0.96133 0.6975 0.0
H226 H 0.74546 0.98643 0.72572 0.0
H227 H 0.82218 0.05538 0.68234 0.0
C228 C 0.86619 0.21977 0.69901 0.0
N229 N 0.84303 0.18497 0.68928 0.0
C230 C 0.90455 0.24936 0.69255 0.0
C231 C 0.89323 0.20782 0.66569 0.0
C232 C 0.85502 0.17916 0.67261 0.0
C233 C 0.91895 0.24247 0.67609 0.0
H234 H 0.8563 0.22295 0.71245 0.0
H235 H 0.83685 0.15066 0.66548 0.0
O236 O 0.73424 0.0585 0.72857 0.0
O237 O 0.76737 0.15102 0.7198 0.0
O238 O 0.82659 0.11918 0.72004 0.0
O239 O 0.76005 0.0895 0.68963 0.0
H240 H 0.66616 0.05323 0.74153 0.0
H241 H 0.76552 0.03201 0.75386 0.0
H242 H 0.6383 0.02883 0.77246 0.0
H243 H 0.73614 0.00835 0.78468 0.0
H244 H 0.7543 0.24731 0.68798 0.0
H245 H 0.73466 0.17367 0.74601 0.0
H246 H 0.77542 0.19499 0.69022 0.0
H247 H 0.71467 0.22674 0.74285 0.0
H248 H 0.75248 0.1438 0.79769 0.0
H249 H 0.87269 0.1605 0.78794 0.0
H250 H 0.59332 0.98999 0.68912 0.0
H251 H 0.59407 0.09102 0.71701 0.0
H252 H 0.88383 0.13999 0.69477 0.0
H253 H 0.83374 0.07034 0.74389 0.0
H254 H 0.93431 0.11632 0.69378 0.0
H255 H 0.88478 0.04741 0.74195 0.0
H256 H 0.77727 0.06212 0.65968 0.0
H257 H 0.72231 0.13021 0.68027 0.0
H258 H 0.76149 0.07426 0.62825 0.0
H259 H 0.70781 0.14148 0.64854 0.0
H260 H 0.75547 0.92965 0.71881 0.0
H261 H 0.83518 0.00056 0.67433 0.0
H262 H 0.92406 0.27557 0.70095 0.0
H263 H 0.90391 0.20151 0.65306 0.0
Li264 Li 0.66157 0.77729 0.06655 0.0
Li265 Li 0.62786 0.72619 0.04147 0.0
Li266 Li 0.70169 0.77387 0.03991 0.0
Li267 Li 0.65436 0.79736 0.03598 0.0
C268 C 0.66384 0.69482 0.0636 0.0
N269 N 0.64662 0.61677 0.07262 0.0
C270 C 0.63579 0.67325 0.07744 0.0
C271 C 0.68307 0.67673 0.05431 0.0
C272 C 0.62767 0.6339 0.08187 0.0
C273 C 0.67384 0.63716 0.05904 0.0
C274 C 0.57975 0.76901 0.04689 0.0
C275 C 0.52536 0.75522 0.02578 0.0
N276 N 0.52248 0.78692 0.03295 0.0
C277 C 0.57613 0.80133 0.05411 0.0
C278 C 0.55412 0.74569 0.03264 0.0
C279 C 0.54704 0.80995 0.04685 0.0
C280 C 0.65601 0.82055 0.09594 0.0
N281 N 0.66342 0.78985 0.09157 0.0
C282 C 0.67522 0.78131 0.12283 0.0
C283 C 0.67324 0.77038 0.1045 0.0
C284 C 0.66705 0.81247 0.12768 0.0
C285 C 0.65739 0.83226 0.11406 0.0
H286 H 0.64948 0.83621 0.08529 0.0
H287 H 0.67995 0.74676 0.10057 0.0
C288 C 0.60288 0.64948 0.02649 0.0
N289 N 0.58972 0.6701 0.03713 0.0
C290 C 0.57965 0.60701 0.02497 0.0
C291 C 0.52853 0.60802 0.04452 0.0
C292 C 0.55318 0.65049 0.04596 0.0
C293 C 0.54232 0.58583 0.03427 0.0
H294 H 0.63235 0.66594 0.01984 0.0
H295 H 0.54387 0.66764 0.05458 0.0
C296 C 0.74416 0.8479 0.05305 0.0
N297 N 0.82786 0.89823 0.05564 0.0
C298 C 0.76671 0.87012 0.03788 0.0
C299 C 0.76406 0.85154 0.06959 0.0
C300 C 0.80904 0.89529 0.03945 0.0
C301 C 0.80643 0.87713 0.07062 0.0
C302 C 0.65274 0.76492 0.00313 0.0
C303 C 0.68138 0.79991 0.99378 0.0
C304 C 0.61611 0.73722 0.99458 0.0
C305 C 0.67261 0.80687 0.97608 0.0
C306 C 0.60849 0.74527 0.97687 0.0
N307 N 0.63664 0.77965 0.96807 0.0
C308 C 0.75933 0.77801 0.01463 0.0
C309 C 0.77949 0.78066 0.04546 0.0
C310 C 0.79544 0.78039 0.00858 0.0
N311 N 0.75216 0.7784 0.03276 0.0
C312 C 0.81612 0.78309 0.04 0.0
C313 C 0.8241 0.78283 0.02135 0.0
H314 H 0.73678 0.77526 0.00485 0.0
H315 H 0.77262 0.78021 0.0598 0.0
C316 C 0.67268 0.87738 0.03263 0.0
N317 N 0.64906 0.8404 0.02456 0.0
C318 C 0.67833 0.91298 0.02438 0.0
C319 C 0.63205 0.87188 0.00041 0.0
C320 C 0.62702 0.83679 0.00927 0.0
C321 C 0.65928 0.91046 0.00772 0.0
H322 H 0.68874 0.87954 0.04512 0.0
H323 H 0.60729 0.80704 0.00339 0.0
O324 O 0.67255 0.73355 0.05922 0.0
O325 O 0.60885 0.76077 0.05341 0.0
O326 O 0.70286 0.82227 0.05162 0.0
O327 O 0.6609 0.75724 0.02038 0.0
H328 H 0.62038 0.68673 0.08463 0.0
H329 H 0.7047 0.69297 0.0435 0.0
H330 H 0.60609 0.61685 0.09257 0.0
H331 H 0.68834 0.62267 0.05192 0.0
H332 H 0.50546 0.73753 0.01469 0.0
H333 H 0.59581 0.81987 0.06505 0.0
H334 H 0.55662 0.72074 0.02681 0.0
H335 H 0.54407 0.83503 0.05223 0.0
H336 H 0.68308 0.76578 0.13309 0.0
H337 H 0.65131 0.85667 0.11743 0.0
H338 H 0.59116 0.59071 0.01702 0.0
H339 H 0.49986 0.59244 0.0519 0.0
H340 H 0.75169 0.86768 0.025 0.0
H341 H 0.74705 0.83448 0.08145 0.0
H342 H 0.82694 0.91244 0.02779 0.0
H343 H 0.8223 0.88009 0.0833 0.0
H344 H 0.70984 0.82173 0.0002 0.0
H345 H 0.59383 0.70975 0.00153 0.0
H346 H 0.69434 0.83398 0.96875 0.0
H347 H 0.58021 0.72417 0.9701 0.0
H348 H 0.80077 0.7798 0.9941 0.0
H349 H 0.83774 0.78469 0.05013 0.0
H350 H 0.69934 0.94239 0.03037 0.0
H351 H 0.61684 0.86914 0.98754 0.0
Li352 Li 0.89976 0.63506 0.37869 0.0
Li353 Li 0.88306 0.66995 0.40191 0.0
Li354 Li 0.8512 0.65631 0.37047 0.0
Li355 Li 0.92297 0.70522 0.37433 0.0
C356 C 0.82802 0.58104 0.39953 0.0
N357 N 0.79257 0.50914 0.41933 0.0
C358 C 0.84472 0.57911 0.41625 0.0
C359 C 0.79303 0.54652 0.39297 0.0
C360 C 0.82641 0.54246 0.42604 0.0
C361 C 0.77566 0.5104 0.40315 0.0
C362 C 0.96988 0.67496 0.39781 0.0
C363 C 0.0354 0.6836 0.38916 0.0
N364 N 0.03407 0.66088 0.40381 0.0
C365 C 0.96927 0.65192 0.41283 0.0
C366 C 0.00333 0.69121 0.38594 0.0
C367 C 0.00198 0.64508 0.41561 0.0
C368 C 0.94922 0.60965 0.36206 0.0
N369 N 0.91797 0.59647 0.37426 0.0
C370 C 0.92278 0.53688 0.38065 0.0
C371 C 0.90402 0.56039 0.38327 0.0
C372 C 0.95629 0.55093 0.36878 0.0
C373 C 0.96917 0.58743 0.35921 0.0
H374 H 0.95979 0.63843 0.35507 0.0
H375 H 0.87919 0.55015 0.39282 0.0
C376 C 0.83273 0.66141 0.43127 0.0
N377 N 0.87239 0.67543 0.42658 0.0
C378 C 0.82249 0.66417 0.44927 0.0
C379 C 0.89424 0.69617 0.45721 0.0
C380 C 0.90311 0.6927 0.43903 0.0
C381 C 0.8535 0.68166 0.46241 0.0
H382 H 0.80909 0.64789 0.42099 0.0
H383 H 0.93436 0.70366 0.43482 0.0
C384 C 0.88326 0.6345 0.3417 0.0
N385 N 0.85459 0.57848 0.31351 0.0
C386 C 0.90331 0.64449 0.32488 0.0
C387 C 0.84866 0.596 0.34419 0.0
C388 C 0.88834 0.61576 0.31079 0.0
C389 C 0.83463 0.56812 0.32977 0.0
C390 C 0.88857 0.7476 0.38395 0.0
C391 C 0.88148 0.76357 0.36807 0.0
C392 C 0.91031 0.77373 0.39834 0.0
C393 C 0.89648 0.80563 0.36683 0.0
C394 C 0.92484 0.81564 0.39655 0.0
N395 N 0.9177 0.83058 0.38097 0.0
C396 C 0.77044 0.63932 0.36909 0.0
C397 C 0.80748 0.66437 0.34145 0.0
C398 C 0.74009 0.64721 0.36285 0.0
N399 N 0.80387 0.64939 0.3586 0.0
C400 C 0.7779 0.67273 0.33468 0.0
C401 C 0.74483 0.66582 0.3458 0.0
H402 H 0.7692 0.62867 0.38289 0.0
H403 H 0.83511 0.67346 0.33371 0.0
C404 C 0.96479 0.76264 0.34701 0.0
N405 N 0.96547 0.75529 0.3651 0.0
C406 C 0.99682 0.79764 0.33913 0.0
C407 C 0.02903 0.81734 0.36879 0.0
C408 C 0.99633 0.78191 0.3761 0.0
C409 C 0.02956 0.82499 0.35006 0.0
H410 H 0.93967 0.74089 0.33866 0.0
H411 H 0.99592 0.77509 0.39045 0.0
O412 O 0.84483 0.61683 0.38988 0.0
O413 O 0.9381 0.68195 0.39483 0.0
O414 O 0.89802 0.66229 0.35565 0.0
O415 O 0.87512 0.70669 0.38524 0.0
H416 H 0.87171 0.60544 0.42155 0.0
H417 H 0.77934 0.54765 0.38018 0.0
H418 H 0.83913 0.54051 0.43896 0.0
H419 H 0.74865 0.48341 0.39821 0.0
H420 H 0.06131 0.69568 0.38 0.0
H421 H 0.94388 0.6395 0.42227 0.0
H422 H 0.00425 0.70898 0.37419 0.0
H423 H 0.00184 0.62715 0.42714 0.0
H424 H 0.91217 0.50871 0.38822 0.0
H425 H 0.99501 0.59908 0.34998 0.0
H426 H 0.7908 0.6527 0.45295 0.0
H427 H 0.91873 0.70979 0.46713 0.0
H428 H 0.93027 0.6741 0.32277 0.0
H429 H 0.83279 0.58767 0.35708 0.0
H430 H 0.90358 0.62307 0.2977 0.0
H431 H 0.80788 0.53821 0.33152 0.0
H432 H 0.86494 0.74375 0.35678 0.0
H433 H 0.91623 0.7618 0.41067 0.0
H434 H 0.89136 0.81846 0.3546 0.0
H435 H 0.94189 0.83629 0.40754 0.0
H436 H 0.71521 0.64226 0.37181 0.0
H437 H 0.78261 0.68775 0.3216 0.0
H438 H 0.99659 0.80288 0.32463 0.0
H439 H 0.05407 0.83801 0.37749 0.0
Li440 Li 0.27239 0.90749 0.71512 0.0
Li441 Li 0.22145 0.89436 0.73878 0.0
Li442 Li 0.20052 0.86087 0.70921 0.0
Li443 Li 0.22619 0.93436 0.71242 0.0
C444 C 0.22374 0.81482 0.72706 0.0
N445 N 0.19596 0.7319 0.7252 0.0
C446 C 0.20027 0.78901 0.74125 0.0
C447 C 0.23333 0.79853 0.712 0.0
C448 C 0.18646 0.74715 0.74003 0.0
C449 C 0.21891 0.75651 0.71129 0.0
C450 C 0.28378 0.9634 0.74779 0.0
C451 C 0.28191 0.9962 0.7757 0.0
N452 N 0.3124 0.99089 0.78257 0.0
C453 C 0.31514 0.9583 0.75512 0.0
C454 C 0.26707 0.98259 0.75813 0.0
C455 C 0.32921 0.97244 0.77272 0.0
C456 C 0.35299 0.96483 0.70885 0.0
N457 N 0.32812 0.92372 0.7106 0.0
C458 C 0.38523 0.91309 0.70769 0.0
C459 C 0.34319 0.89767 0.70998 0.0
C460 C 0.41144 0.95551 0.70612 0.0
C461 C 0.39496 0.98147 0.70653 0.0
H462 H 0.34016 0.98479 0.70959 0.0
H463 H 0.3228 0.86516 0.71161 0.0
C464 C 0.17704 0.8869 0.77102 0.0
N465 N 0.20958 0.88522 0.76408 0.0
C466 C 0.16627 0.87751 0.78931 0.0
C467 C 0.22259 0.86466 0.79294 0.0
C468 C 0.23247 0.87461 0.77461 0.0
C469 C 0.18893 0.86579 0.80036 0.0
H470 H 0.15891 0.89464 0.76229 0.0
H471 H 0.25781 0.87298 0.76863 0.0
C472 C 0.26756 0.91736 0.67988 0.0
N473 N 0.32716 0.9422 0.65331 0.0
C474 C 0.29115 0.95877 0.67537 0.0
C475 C 0.27395 0.88854 0.67075 0.0
C476 C 0.3212 0.97072 0.66192 0.0
C477 C 0.30433 0.90173 0.65739 0.0
C478 C 0.14932 0.90149 0.71974 0.0
C479 C 0.12198 0.88459 0.70521 0.0
C480 C 0.1501 0.93321 0.72991 0.0
C481 C 0.09567 0.8995 0.70113 0.0
C482 C 0.12344 0.94743 0.72536 0.0
N483 N 0.09697 0.93039 0.7112 0.0
C484 C 0.12923 0.78397 0.70869 0.0
C485 C 0.15245 0.81354 0.67948 0.0
C486 C 0.09175 0.75455 0.70144 0.0
N487 N 0.15822 0.81318 0.69775 0.0
C488 C 0.11499 0.78524 0.67172 0.0
C489 C 0.08376 0.75641 0.68293 0.0
H490 H 0.13377 0.78557 0.72327 0.0
H491 H 0.17546 0.83795 0.67122 0.0
C492 C 0.24227 0.01636 0.70985 0.0
N493 N 0.22227 0.97843 0.70228 0.0
C494 C 0.2419 0.04913 0.70119 0.0
C495 C 0.1999 0.00289 0.67733 0.0
C496 C 0.20136 0.97116 0.68635 0.0
C497 C 0.22077 0.04241 0.68468 0.0
H498 H 0.25932 0.02133 0.72234 0.0
H499 H 0.18656 0.94082 0.68048 0.0
O500 O 0.23728 0.85582 0.72792 0.0
O501 O 0.26867 0.94861 0.73082 0.0
O502 O 0.23877 0.90514 0.69336 0.0
O503 O 0.17588 0.88778 0.72368 0.0
H504 H 0.1924 0.80105 0.75297 0.0
H505 H 0.25148 0.8181 0.70093 0.0
H506 H 0.16809 0.72677 0.75086 0.0
H507 H 0.22594 0.74346 0.69967 0.0
H508 H 0.26907 0.01086 0.7839 0.0
H509 H 0.32809 0.94305 0.74742 0.0
H510 H 0.24255 0.98646 0.75273 0.0
H511 H 0.35332 0.96853 0.77859 0.0
H512 H 0.39729 0.8924 0.7075 0.0
H513 H 0.41452 0.01432 0.70544 0.0
H514 H 0.14003 0.87846 0.79469 0.0
H515 H 0.24051 0.85556 0.80117 0.0
H516 H 0.28676 0.98152 0.68235 0.0
H517 H 0.25573 0.85635 0.67398 0.0
H518 H 0.3399 0.0027 0.65838 0.0
H519 H 0.30977 0.87978 0.65028 0.0
H520 H 0.1215 0.86064 0.69698 0.0
H521 H 0.1716 0.94726 0.74098 0.0
H522 H 0.07441 0.88669 0.68989 0.0
H523 H 0.12392 0.97214 0.73304 0.0
H524 H 0.06792 0.7331 0.71045 0.0
H525 H 0.1094 0.78766 0.65742 0.0
H526 H 0.25849 0.07946 0.70708 0.0
H527 H 0.18357 0.99696 0.66453 0.0
Li528 Li 0.77939 0.71415 0.62722 0.0
Li529 Li 0.80312 0.66585 0.62778 0.0
Li530 Li 0.78098 0.68278 0.59935 0.0
Li531 Li 0.72974 0.64161 0.62215 0.0
C532 C 0.85517 0.75839 0.61908 0.0
N533 N 0.90801 0.83862 0.62902 0.0
C534 C 0.88128 0.76717 0.634 0.0
C535 C 0.85596 0.79047 0.60921 0.0
C536 C 0.90781 0.8079 0.6388 0.0
C537 C 0.88284 0.83081 0.61447 0.0
C538 C 0.75105 0.63968 0.65818 0.0
C539 C 0.72692 0.57054 0.66833 0.0
N540 N 0.7266 0.58242 0.6858 0.0
C541 C 0.75029 0.65118 0.67622 0.0
C542 C 0.73914 0.59902 0.65417 0.0
C543 C 0.73793 0.62179 0.69 0.0
C544 C 0.77328 0.78622 0.63339 0.0
N545 N 0.78652 0.76107 0.63986 0.0
C546 C 0.81156 0.80061 0.66707 0.0
C547 C 0.80514 0.76747 0.65636 0.0
C548 C 0.79805 0.82688 0.66081 0.0
C549 C 0.77881 0.8197 0.64377 0.0
H550 H 0.75827 0.78013 0.62029 0.0
H551 H 0.81506 0.74673 0.66115 0.0
C552 C 0.87982 0.6732 0.62707 0.0
N553 N 0.84613 0.65867 0.63792 0.0
C554 C 0.91731 0.68124 0.63427 0.0
C555 C 0.88447 0.65653 0.66346 0.0
C556 C 0.8475 0.64903 0.6557 0.0
C557 C 0.92011 0.67449 0.65282 0.0
H558 H 0.87861 0.68233 0.61325 0.0
H559 H 0.82105 0.63868 0.66433 0.0
C560 C 0.71949 0.69391 0.5928 0.0
N561 N 0.68853 0.70076 0.5597 0.0
C562 C 0.68485 0.66028 0.58543 0.0
C563 C 0.73818 0.73111 0.58341 0.0
C564 C 0.66968 0.66436 0.56867 0.0
C565 C 0.72215 0.73392 0.56666 0.0
C566 C 0.78274 0.60504 0.60165 0.0
C567 C 0.81766 0.62405 0.59068 0.0
C568 C 0.76489 0.56326 0.60543 0.0
C569 C 0.83411 0.60097 0.58365 0.0
C570 C 0.7823 0.54124 0.59816 0.0
N571 N 0.81624 0.56038 0.5875 0.0
C572 C 0.82592 0.71985 0.56711 0.0
C573 C 0.7641 0.65706 0.56281 0.0
C574 C 0.83581 0.72098 0.54871 0.0
N575 N 0.79073 0.68806 0.57377 0.0
C576 C 0.77273 0.657 0.54433 0.0
C577 C 0.80926 0.68896 0.53724 0.0
H578 H 0.84713 0.7434 0.5762 0.0
H579 H 0.7369 0.63165 0.5686 0.0
C580 C 0.65163 0.61636 0.63443 0.0
N581 N 0.67412 0.60204 0.62607 0.0
C582 C 0.60933 0.59161 0.63601 0.0
C583 C 0.6143 0.5372 0.62096 0.0
C584 C 0.6566 0.5632 0.61951 0.0
C585 C 0.59026 0.55178 0.62899 0.0
H586 H 0.66653 0.6476 0.63928 0.0
H587 H 0.6752 0.55294 0.61265 0.0
O588 O 0.82814 0.71861 0.61452 0.0
O589 O 0.76254 0.66805 0.64456 0.0
O590 O 0.73535 0.69033 0.60901 0.0
O591 O 0.76573 0.62688 0.60855 0.0
H592 H 0.88045 0.74281 0.64202 0.0
H593 H 0.83559 0.78432 0.5978 0.0
H594 H 0.92801 0.81508 0.65038 0.0
H595 H 0.88356 0.8559 0.60703 0.0
H596 H 0.7177 0.53899 0.66542 0.0
H597 H 0.75915 0.68248 0.67953 0.0
H598 H 0.73941 0.58954 0.64032 0.0
H599 H 0.73728 0.63027 0.70402 0.0
H600 H 0.82654 0.80552 0.68017 0.0
H601 H 0.76811 0.83963 0.63866 0.0
H602 H 0.94447 0.69577 0.62582 0.0
H603 H 0.88593 0.65159 0.67792 0.0
H604 H 0.67004 0.63121 0.59246 0.0
H605 H 0.76501 0.75742 0.58891 0.0
H606 H 0.64302 0.63853 0.56277 0.0
H607 H 0.73648 0.76244 0.55919 0.0
H608 H 0.83226 0.65636 0.58775 0.0
H609 H 0.73786 0.54794 0.61388 0.0
H610 H 0.86115 0.61537 0.57516 0.0
H611 H 0.76879 0.5089 0.60099 0.0
H612 H 0.86443 0.74579 0.54359 0.0
H613 H 0.75189 0.63173 0.53577 0.0
H614 H 0.59152 0.60373 0.64219 0.0
H615 H 0.60029 0.5066 0.61532 0.0
Li616 Li 0.14372 0.796 0.96584 0.0
Li617 Li 0.07095 0.77346 0.96297 0.0
Li618 Li 0.09569 0.72597 0.95855 0.0
Li619 Li 0.11078 0.77975 0.93628 0.0
C620 C 0.0863 0.72642 0.99378 0.0
N621 N 0.06047 0.66226 0.01807 0.0
C622 C 0.04557 0.70526 0.99957 0.0
C623 C 0.11399 0.71523 0.00048 0.0
C624 C 0.0331 0.67286 0.01184 0.0
C625 C 0.1003 0.68261 0.01271 0.0
C626 C 0.10674 0.85136 0.95779 0.0
C627 C 0.0641 0.88167 0.95381 0.0
N628 N 0.08096 0.90476 0.96899 0.0
C629 C 0.12355 0.87534 0.97337 0.0
C630 C 0.07676 0.85454 0.94792 0.0
C631 C 0.11019 0.90222 0.97878 0.0
C632 C 0.2151 0.87003 0.96721 0.0
N633 N 0.19229 0.83601 0.97744 0.0
C634 C 0.22883 0.87059 0.00434 0.0
C635 C 0.19934 0.83509 0.99556 0.0
C636 C 0.25016 0.907 0.9943 0.0
C637 C 0.24449 0.9061 0.97542 0.0
H638 H 0.20791 0.87013 0.95295 0.0
H639 H 0.18 0.80792 0.00342 0.0
C640 C 0.99108 0.76285 0.9647 0.0
N641 N 0.02766 0.77844 0.97338 0.0
C642 C 0.95879 0.76497 0.97287 0.0
C643 C 0.00253 0.79913 0.99872 0.0
C644 C 0.03393 0.79627 0.99008 0.0
C645 C 0.96451 0.78314 0.99008 0.0
H646 H 0.98681 0.74827 0.95158 0.0
H647 H 0.0632 0.80778 0.99675 0.0
C648 C 0.18932 0.77693 0.9465 0.0
N649 N 0.27321 0.81038 0.9478 0.0
C650 C 0.21428 0.80666 0.93383 0.0
C651 C 0.20698 0.76404 0.95976 0.0
C652 C 0.25663 0.82323 0.93473 0.0
C653 C 0.24946 0.78137 0.96022 0.0
C654 C 0.04096 0.72013 0.9263 0.0
C655 C 0.04349 0.68786 0.91829 0.0
C656 C 0.0245 0.74015 0.91639 0.0
C657 C 0.02955 0.67619 0.90046 0.0
C658 C 0.01102 0.72765 0.89857 0.0
N659 N 0.0138 0.6962 0.89104 0.0
C660 C 0.03689 0.64548 0.96429 0.0
C661 C 0.10274 0.65322 0.96004 0.0
C662 C 0.0193 0.6032 0.96567 0.0
N663 N 0.07781 0.66947 0.96152 0.0
C664 C 0.08631 0.61084 0.96125 0.0
C665 C 0.04409 0.58557 0.96397 0.0
H666 H 0.0178 0.65929 0.96512 0.0
H667 H 0.13507 0.67299 0.95757 0.0
C668 C 0.12037 0.82769 0.90486 0.0
N669 N 0.12061 0.79398 0.91122 0.0
C670 C 0.13013 0.8395 0.88669 0.0
C671 C 0.14049 0.78184 0.88202 0.0
C672 C 0.13024 0.77098 0.90024 0.0
C673 C 0.1407 0.8166 0.87517 0.0
H674 H 0.11336 0.84583 0.91395 0.0
H675 H 0.13072 0.74466 0.90578 0.0
O676 O 0.09885 0.75743 0.98136 0.0
O677 O 0.11863 0.82404 0.95253 0.0
O678 O 0.14785 0.7609 0.94607 0.0
O679 O 0.05565 0.73291 0.94354 0.0
H680 H 0.02366 0.71333 0.99444 0.0
H681 H 0.1456 0.73131 0.99614 0.0
H682 H 0.00161 0.65602 0.01634 0.0
H683 H 0.12132 0.67341 0.0179 0.0
H684 H 0.0407 0.88419 0.94638 0.0
H685 H 0.14615 0.8728 0.98139 0.0
H686 H 0.06278 0.83568 0.93604 0.0
H687 H 0.12287 0.92083 0.99084 0.0
H688 H 0.23243 0.87061 0.01899 0.0
H689 H 0.26026 0.9338 0.96737 0.0
H690 H 0.92955 0.75217 0.96599 0.0
H691 H 0.00758 0.81306 0.01208 0.0
H692 H 0.20118 0.81726 0.92356 0.0
H693 H 0.18811 0.74111 0.96968 0.0
H694 H 0.27634 0.84643 0.92508 0.0
H695 H 0.26357 0.77182 0.97046 0.0
H696 H 0.05657 0.6723 0.92565 0.0
H697 H 0.02281 0.76554 0.92229 0.0
H698 H 0.03148 0.65138 0.89406 0.0
H699 H 0.99852 0.74308 0.8907 0.0
H700 H 0.98659 0.58434 0.96765 0.0
H701 H 0.10606 0.59784 0.95977 0.0
H702 H 0.13019 0.86656 0.88173 0.0
H703 H 0.14865 0.76369 0.87342 0.0
Li704 Li 0.28842 0.06575 0.28991 0.0
Li705 Li 0.33656 0.13822 0.29378 0.0
Li706 Li 0.32638 0.10441 0.2644 0.0
Li707 Li 0.36182 0.08891 0.28738 0.0
C708 C 0.24689 0.10021 0.28135 0.0
N709 N 0.16505 0.07281 0.28766 0.0
C710 C 0.23467 0.1111 0.29737 0.0
C711 C 0.21754 0.07551 0.2685 0.0
C712 C 0.19314 0.09694 0.30031 0.0
C713 C 0.1763 0.06192 0.27196 0.0
C714 C 0.35595 0.10459 0.32396 0.0
C715 C 0.42082 0.15062 0.33796 0.0
N716 N 0.40726 0.12956 0.35388 0.0
C717 C 0.3427 0.08332 0.34043 0.0
C718 C 0.39537 0.13846 0.32268 0.0
C719 C 0.36907 0.09646 0.35541 0.0
C720 C 0.21472 0.98854 0.28983 0.0
N721 N 0.23866 0.02311 0.29954 0.0
C722 C 0.19389 0.99697 0.3252 0.0
C723 C 0.22893 0.02796 0.31686 0.0
C724 C 0.16903 0.96082 0.31557 0.0
C725 C 0.17938 0.95673 0.29765 0.0
H726 H 0.22342 0.98538 0.27617 0.0
H727 H 0.24873 0.05577 0.32424 0.0
C728 C 0.33767 0.21186 0.29368 0.0
N729 N 0.34113 0.18558 0.30523 0.0
C730 C 0.32903 0.2413 0.30041 0.0
C731 C 0.32937 0.21729 0.33093 0.0
C732 C 0.33808 0.18829 0.32361 0.0
C733 C 0.32337 0.24311 0.31917 0.0
H734 H 0.3381 0.20767 0.27913 0.0
H735 H 0.339 0.16599 0.3325 0.0
C736 C 0.314 0.03063 0.25571 0.0
N737 N 0.30948 0.99272 0.22287 0.0
C738 C 0.34597 0.02441 0.25022 0.0
C739 C 0.27963 0.01733 0.24455 0.0
C740 C 0.3431 0.00519 0.23356 0.0
C741 C 0.27799 0.99835 0.22797 0.0
C742 C 0.40471 0.16278 0.26188 0.0
C743 C 0.42588 0.14588 0.25326 0.0
C744 C 0.40836 0.19918 0.25526 0.0
C745 C 0.45022 0.16561 0.2381 0.0
C746 C 0.43289 0.21791 0.24002 0.0
N747 N 0.45314 0.20088 0.23183 0.0
C748 C 0.30266 0.13377 0.23441 0.0
C749 C 0.34594 0.1076 0.22616 0.0
C750 C 0.30186 0.14536 0.21642 0.0
N751 N 0.32447 0.11525 0.23894 0.0
C752 C 0.34622 0.11893 0.20804 0.0
C753 C 0.32412 0.13817 0.20313 0.0
H754 H 0.2865 0.14029 0.24483 0.0
H755 H 0.3636 0.0935 0.23002 0.0
C756 C 0.38224 0.03113 0.29713 0.0
N757 N 0.39978 0.07156 0.29301 0.0
C758 C 0.40637 0.01305 0.29932 0.0
C759 C 0.46644 0.07905 0.29391 0.0
C760 C 0.44108 0.09597 0.2919 0.0
C761 C 0.44881 0.03698 0.29727 0.0
H762 H 0.34929 0.01263 0.29796 0.0
H763 H 0.45418 0.12814 0.28883 0.0
O764 O 0.28728 0.11277 0.27848 0.0
O765 O 0.33059 0.09162 0.30914 0.0
O766 O 0.31616 0.04921 0.272 0.0
O767 O 0.38039 0.14366 0.27664 0.0
H768 H 0.25693 0.12967 0.30756 0.0
H769 H 0.2265 0.06672 0.25606 0.0
H770 H 0.18323 0.10495 0.3127 0.0
H771 H 0.15322 0.04263 0.26218 0.0
H772 H 0.45137 0.17679 0.33718 0.0
H773 H 0.31236 0.05688 0.3416 0.0
H774 H 0.40624 0.15527 0.31005 0.0
H775 H 0.35921 0.08032 0.36824 0.0
H776 H 0.18664 0.00077 0.33909 0.0
H777 H 0.16073 0.92896 0.28999 0.0
H778 H 0.32366 0.26023 0.291 0.0
H779 H 0.32429 0.2175 0.34545 0.0
H780 H 0.37289 0.03461 0.2586 0.0
H781 H 0.25476 0.02213 0.24852 0.0
H782 H 0.36767 0.00033 0.22911 0.0
H783 H 0.25172 0.9882 0.21914 0.0
H784 H 0.42279 0.11731 0.25792 0.0
H785 H 0.39233 0.21278 0.26174 0.0
H786 H 0.4665 0.15267 0.23122 0.0
H787 H 0.43581 0.24599 0.2347 0.0
H788 H 0.28473 0.16043 0.21296 0.0
H789 H 0.36383 0.11321 0.19801 0.0
H790 H 0.39202 0.98049 0.30188 0.0
H791 H 0.49922 0.09817 0.29228 0.0
Li792 Li 0.22888 0.29181 0.6197 0.0
Li793 Li 0.20267 0.33698 0.62352 0.0
Li794 Li 0.22598 0.33309 0.59408 0.0
Li795 Li 0.27421 0.36508 0.61965 0.0
C796 C 0.16084 0.25442 0.59691 0.0
N797 N 0.12161 0.18583 0.57503 0.0
C798 C 0.11814 0.23149 0.59656 0.0
C799 C 0.18361 0.24243 0.58613 0.0
C800 C 0.09888 0.19691 0.58542 0.0
C801 C 0.1632 0.20769 0.57516 0.0
C802 C 0.22078 0.30907 0.65536 0.0
C803 C 0.22036 0.29598 0.68756 0.0
N804 N 0.18128 0.26441 0.68611 0.0
C805 C 0.18058 0.27644 0.6542 0.0
C806 C 0.24085 0.31889 0.67217 0.0
C807 C 0.16116 0.25427 0.66989 0.0
C808 C 0.26113 0.24703 0.63506 0.0
N809 N 0.22601 0.24271 0.62785 0.0
C810 C 0.18886 0.17268 0.6371 0.0
C811 C 0.1902 0.20648 0.62867 0.0
C812 C 0.22453 0.17666 0.64494 0.0
C813 C 0.26111 0.21413 0.64373 0.0
H814 H 0.28882 0.27653 0.63464 0.0
H815 H 0.16236 0.20412 0.62347 0.0
C816 C 0.12466 0.32521 0.62385 0.0
N817 N 0.15853 0.34005 0.63453 0.0
C818 C 0.08735 0.31694 0.63128 0.0
C819 C 0.12114 0.34268 0.66027 0.0
C820 C 0.15795 0.35035 0.65226 0.0
C821 C 0.08513 0.32419 0.64983 0.0
H822 H 0.12619 0.31753 0.60978 0.0
H823 H 0.18537 0.36209 0.66044 0.0
C824 C 0.30873 0.34098 0.59336 0.0
N825 N 0.38491 0.37656 0.57714 0.0
C826 C 0.32276 0.37668 0.58307 0.0
C827 C 0.33352 0.3235 0.59552 0.0
C828 C 0.36128 0.39409 0.5749 0.0
C829 C 0.37198 0.34199 0.58722 0.0
C830 C 0.22859 0.41079 0.61402 0.0
C831 C 0.20105 0.41808 0.60428 0.0
C832 C 0.24339 0.42982 0.63086 0.0
C833 C 0.18851 0.44418 0.61165 0.0
C834 C 0.23014 0.45574 0.63775 0.0
N835 N 0.20317 0.46229 0.62809 0.0
C836 C 0.18062 0.33567 0.56516 0.0
C837 C 0.23686 0.32872 0.5555 0.0
C838 C 0.16866 0.33528 0.54716 0.0
N839 N 0.21443 0.33294 0.56895 0.0
C840 C 0.22619 0.32855 0.53726 0.0
C841 C 0.19182 0.332 0.53305 0.0
H842 H 0.16279 0.33783 0.5762 0.0
H843 H 0.26274 0.32515 0.55888 0.0
C844 C 0.35192 0.3889 0.63281 0.0
N845 N 0.32929 0.40415 0.62539 0.0
C846 C 0.3942 0.41366 0.63458 0.0
C847 C 0.38881 0.47005 0.62202 0.0
C848 C 0.34661 0.44398 0.62021 0.0
C849 C 0.41309 0.45452 0.62886 0.0
H850 H 0.33728 0.35692 0.63651 0.0
H851 H 0.32796 0.45502 0.61401 0.0
O852 O 0.17986 0.28863 0.60763 0.0
O853 O 0.24098 0.33093 0.64017 0.0
O854 O 0.27121 0.32362 0.60157 0.0
O855 O 0.24036 0.38442 0.60735 0.0
H856 H 0.10005 0.24031 0.60482 0.0
H857 H 0.21663 0.25961 0.58617 0.0
H858 H 0.06584 0.17888 0.58502 0.0
H859 H 0.18042 0.1981 0.56674 0.0
H860 H 0.23556 0.30325 0.70066 0.0
H861 H 0.16445 0.26821 0.64135 0.0
H862 H 0.27202 0.34392 0.67329 0.0
H863 H 0.1301 0.22896 0.66917 0.0
H864 H 0.16014 0.14412 0.638 0.0
H865 H 0.28902 0.21808 0.64979 0.0
H866 H 0.06003 0.30264 0.62292 0.0
H867 H 0.12018 0.34843 0.67467 0.0
H868 H 0.30409 0.39084 0.58146 0.0
H869 H 0.32315 0.29595 0.60351 0.0
H870 H 0.37252 0.42169 0.56688 0.0
H871 H 0.39153 0.32883 0.58877 0.0
H872 H 0.18934 0.40363 0.59123 0.0
H873 H 0.26443 0.42416 0.63863 0.0
H874 H 0.16707 0.44999 0.60431 0.0
H875 H 0.24114 0.47049 0.65081 0.0
H876 H 0.1418 0.33767 0.54424 0.0
H877 H 0.24432 0.32557 0.52656 0.0
H878 H 0.41216 0.40077 0.63982 0.0
H879 H 0.40263 0.50146 0.61742 0.0
Li880 Li 0.85538 0.19283 0.96151 0.0
Li881 Li 0.92783 0.21753 0.95837 0.0
Li882 Li 0.90538 0.26818 0.95698 0.0
Li883 Li 0.89123 0.22004 0.93247 0.0
C884 C 0.91936 0.232 0.99359 0.0
N885 N 0.95971 0.23254 0.02513 0.0
C886 C 0.91232 0.19523 0.00137 0.0
C887 C 0.94669 0.26903 0.00195 0.0
C888 C 0.9331 0.19614 0.01727 0.0
C889 C 0.96687 0.26868 0.01785 0.0
C890 C 0.88983 0.13928 0.94626 0.0
C891 C 0.93007 0.10867 0.93735 0.0
N892 N 0.90524 0.07501 0.94744 0.0
C893 C 0.86481 0.10443 0.95659 0.0
C894 C 0.92277 0.14147 0.93657 0.0
C895 C 0.87305 0.07223 0.95698 0.0
C896 C 0.77532 0.12884 0.95846 0.0
N897 N 0.80508 0.15045 0.97095 0.0
C898 C 0.77074 0.09819 0.99322 0.0
C899 C 0.80223 0.13705 0.98836 0.0
C900 C 0.74179 0.0737 0.9801 0.0
C901 C 0.74263 0.09025 0.96289 0.0
H902 H 0.7787 0.14017 0.94466 0.0
H903 H 0.8259 0.15509 0.99809 0.0
C904 C 0.01018 0.24711 0.96654 0.0
N905 N 0.97296 0.21244 0.96726 0.0
C906 C 0.04445 0.24789 0.97416 0.0
C907 C 0.00171 0.17705 0.98286 0.0
C908 C 0.96822 0.17774 0.97523 0.0
C909 C 0.04014 0.21257 0.98249 0.0
H910 H 0.01302 0.2745 0.96044 0.0
H911 H 0.93831 0.15094 0.97629 0.0
C912 C 0.82274 0.24171 0.95103 0.0
N913 N 0.76446 0.25907 0.96423 0.0
C914 C 0.79793 0.24831 0.93897 0.0
C915 C 0.81768 0.24368 0.96982 0.0
C916 C 0.76872 0.25714 0.94591 0.0
C917 C 0.7881 0.25255 0.97621 0.0
C918 C 0.9626 0.2798 0.92501 0.0
C919 C 0.95625 0.30974 0.91698 0.0
C920 C 0.98585 0.26587 0.91593 0.0
C921 C 0.9731 0.3251 0.89985 0.0
C922 C 0.00217 0.28198 0.89881 0.0
N923 N 0.99549 0.31098 0.89119 0.0
C924 C 0.96488 0.34632 0.96564 0.0
C925 C 0.90161 0.34314 0.95956 0.0
C926 C 0.98461 0.38878 0.96725 0.0
N927 N 0.92418 0.32444 0.96184 0.0
C928 C 0.92022 0.38571 0.96098 0.0
C929 C 0.96225 0.4088 0.96467 0.0
H930 H 0.9823 0.33077 0.96683 0.0
H931 H 0.86967 0.32547 0.95598 0.0
C932 C 0.89212 0.18747 0.89761 0.0
N933 N 0.88303 0.21315 0.90684 0.0
C934 C 0.88242 0.17953 0.87917 0.0
C935 C 0.85466 0.22506 0.87999 0.0
C936 C 0.86522 0.23238 0.8984 0.0
C937 C 0.86286 0.19794 0.87031 0.0
H938 H 0.90602 0.17241 0.90462 0.0
H939 H 0.8585 0.25274 0.90608 0.0
O940 O 0.89921 0.23174 0.97803 0.0
O941 O 0.8818 0.17082 0.94556 0.0
O942 O 0.85129 0.23284 0.94434 0.0
O943 O 0.94525 0.26342 0.94148 0.0
H944 H 0.89174 0.16629 0.99496 0.0
H945 H 0.95202 0.29774 0.99636 0.0
H946 H 0.92824 0.16791 0.02332 0.0
H947 H 0.98814 0.29713 0.02445 0.0
H948 H 0.9556 0.11007 0.93001 0.0
H949 H 0.8394 0.10228 0.96426 0.0
H950 H 0.94306 0.16855 0.92886 0.0
H951 H 0.85389 0.04508 0.96491 0.0
H952 H 0.77047 0.08633 0.0067 0.0
H953 H 0.72052 0.07205 0.95253 0.0
H954 H 0.07384 0.27581 0.97381 0.0
H955 H 0.99754 0.1495 0.98941 0.0
H956 H 0.80118 0.24663 0.9244 0.0
H957 H 0.83626 0.23847 0.97943 0.0
H958 H 0.7494 0.2624 0.93672 0.0
H959 H 0.78392 0.25424 0.99071 0.0
H960 H 0.93804 0.32061 0.92379 0.0
H961 H 0.991 0.24268 0.92199 0.0
H962 H 0.96826 0.34811 0.89341 0.0
H963 H 0.02008 0.27137 0.89157 0.0
H964 H 0.0172 0.40595 0.96989 0.0
H965 H 0.90239 0.40058 0.95871 0.0
H966 H 0.88908 0.15845 0.872 0.0
H967 H 0.83959 0.2397 0.87346 0.0
Li968 Li 0.70648 0.92992 0.29076 0.0
Li969 Li 0.65579 0.85712 0.29354 0.0
Li970 Li 0.66974 0.89128 0.26418 0.0
Li971 Li 0.63385 0.90577 0.28819 0.0
C972 C 0.74717 0.89295 0.28198 0.0
N973 N 0.82799 0.91553 0.28819 0.0
C974 C 0.75728 0.87393 0.29573 0.0
C975 C 0.77819 0.92338 0.27134 0.0
C976 C 0.7983 0.88574 0.29865 0.0
C977 C 0.81886 0.93443 0.27472 0.0
C978 C 0.64818 0.91449 0.32325 0.0
C979 C 0.59272 0.90161 0.34354 0.0
N980 N 0.61429 0.94089 0.34957 0.0
C981 C 0.66993 0.95465 0.32973 0.0
C982 C 0.6094 0.88763 0.33029 0.0
C983 C 0.65223 0.96743 0.34303 0.0
C984 C 0.77051 0.01152 0.2938 0.0
N985 N 0.75592 0.97297 0.30031 0.0
C986 C 0.80897 0.99681 0.32263 0.0
C987 C 0.7741 0.96511 0.31451 0.0
C988 C 0.82423 0.03696 0.31639 0.0
C989 C 0.80485 0.04426 0.30175 0.0
H990 H 0.75485 0.01695 0.28277 0.0
H991 H 0.761 0.93433 0.31976 0.0
C992 C 0.65699 0.78453 0.29373 0.0
N993 N 0.64803 0.8083 0.30451 0.0
C994 C 0.66429 0.75508 0.30147 0.0
C995 C 0.64955 0.77272 0.33113 0.0
C996 C 0.64284 0.80218 0.32281 0.0
C997 C 0.66242 0.75037 0.32043 0.0
H998 H 0.66211 0.79099 0.27931 0.0
H999 H 0.63673 0.82226 0.33107 0.0
C1000 C 0.68067 0.96363 0.25618 0.0
N1001 N 0.68313 0.99781 0.22258 0.0
C1002 C 0.64592 0.96333 0.24938 0.0
C1003 C 0.71673 0.98153 0.24594 0.0
C1004 C 0.64779 0.98078 0.23236 0.0
C1005 C 0.71732 0.99854 0.22896 0.0
C1006 C 0.58961 0.81263 0.2748 0.0
C1007 C 0.59287 0.78899 0.26095 0.0
C1008 C 0.56069 0.79364 0.28863 0.0
C1009 C 0.56728 0.74656 0.26126 0.0
C1010 C 0.5357 0.75112 0.28847 0.0
N1011 N 0.5395 0.72866 0.27491 0.0
C1012 C 0.70227 0.87577 0.2326 0.0
C1013 C 0.64223 0.87982 0.22771 0.0
C1014 C 0.70281 0.86566 0.21436 0.0
N1015 N 0.67228 0.88258 0.23887 0.0
C1016 C 0.64174 0.87003 0.20933 0.0
C1017 C 0.67211 0.86247 0.20261 0.0
H1018 H 0.7251 0.87704 0.24186 0.0
H1019 H 0.61812 0.88422 0.2332 0.0
C1020 C 0.61297 0.96436 0.29642 0.0
N1021 N 0.59589 0.92376 0.29274 0.0
C1022 C 0.58841 0.98199 0.29843 0.0
C1023 C 0.52893 0.9156 0.29293 0.0
C1024 C 0.55473 0.89912 0.29111 0.0
C1025 C 0.54603 0.95757 0.29643 0.0
H1026 H 0.64587 0.98325 0.2973 0.0
H1027 H 0.5421 0.86708 0.28791 0.0
O1028 O 0.70721 0.88221 0.27908 0.0
O1029 O 0.66451 0.90168 0.30991 0.0
O1030 O 0.6793 0.94605 0.27266 0.0
O1031 O 0.61482 0.85413 0.27492 0.0
H1032 H 0.73381 0.85074 0.30424 0.0
H1033 H 0.77096 0.93859 0.26071 0.0
H1034 H 0.80653 0.87137 0.30931 0.0
H1035 H 0.84317 0.95809 0.26666 0.0
H1036 H 0.5626 0.88125 0.349 0.0
H1037 H 0.69995 0.97588 0.32442 0.0
H1038 H 0.59221 0.85645 0.32542 0.0
H1039 H 0.6686 0.99849 0.34809 0.0
H1040 H 0.82322 0.99034 0.33398 0.0
H1041 H 0.81587 0.07502 0.29673 0.0
H1042 H 0.67453 0.73853 0.29292 0.0
H1043 H 0.64825 0.76989 0.34584 0.0
H1044 H 0.61764 0.94935 0.25703 0.0
H1045 H 0.74388 0.98201 0.25101 0.0
H1046 H 0.62108 0.9806 0.22689 0.0
H1047 H 0.74495 0.01227 0.22084 0.0
H1048 H 0.61517 0.80316 0.25017 0.0
H1049 H 0.55778 0.81151 0.29944 0.0
H1050 H 0.56959 0.72785 0.25068 0.0
H1051 H 0.51332 0.73598 0.29914 0.0
H1052 H 0.7264 0.85962 0.20953 0.0
H1053 H 0.61749 0.86743 0.20055 0.0
H1054 H 0.60237 0.01452 0.30097 0.0
H1055 H 0.49622 0.89618 0.29118 0.0
C1056 C 0.5154 0.51828 0.05033 0.0
C1057 C 0.51898 0.54031 0.03408 0.0
C1058 C 0.48379 0.4758 0.01707 0.0
C1059 C 0.47664 0.45387 0.03364 0.0
N1060 N 0.47813 0.45413 0.06655 0.0
N1061 N 0.50027 0.54 0.00262 0.0
C1062 C 0.49033 0.47506 0.05043 0.0
C1063 C 0.50141 0.51905 0.01759 0.0
N1064 N 0.53715 0.53842 0.0655 0.0
N1065 N 0.47476 0.45542 0.00081 0.0
H1066 H 0.51226 0.57161 0.00259 0.0
H1067 H 0.48418 0.52572 0.9908 0.0
H1068 H 0.46202 0.42376 -8e-05 0.0
H1069 H 0.48318 0.47015 0.98824 0.0
H1070 H 0.53924 0.52347 0.07703 0.0
H1071 H 0.55623 0.57002 0.06597 0.0
H1072 H 0.48352 0.46853 0.07918 0.0
H1073 H 0.45929 0.42246 0.06729 0.0
C1074 C 0.00293 0.48992 0.34899 0.0
C1075 C 0.02234 0.48543 0.36467 0.0
C1076 C 0.00287 0.52828 0.38222 0.0
C1077 C 0.9794 0.52871 0.3672 0.0
N1078 N 0.95213 0.5052 0.33707 0.0
N1079 N 0.03467 0.49409 0.39711 0.0
C1080 C 0.97815 0.50833 0.35074 0.0
C1081 C 0.02076 0.50299 0.38154 0.0
N1082 N 0.00893 0.47735 0.33238 0.0
N1083 N 0.00911 0.55296 0.39693 0.0
H1084 H 0.04773 0.47542 0.39732 0.0
H1085 H 0.02997 0.50224 0.41008 0.0
H1086 H 0.99677 0.57219 0.39791 0.0
H1087 H 0.02959 0.55723 0.40736 0.0
H1088 H 0.99902 0.48351 0.32017 0.0
H1089 H 0.02704 0.46388 0.33063 0.0
H1090 H 0.94666 0.48704 0.32556 0.0
H1091 H 0.93325 0.51798 0.33792 0.0
C1092 C 0.4793 0.9778 0.72094 0.0
C1093 C 0.45646 0.97347 0.70491 0.0
C1094 C 0.51999 0.01258 0.68749 0.0
C1095 C 0.5427 0.01497 0.70331 0.0
N1096 N 0.54441 0.99329 0.73407 0.0
N1097 N 0.45392 0.98026 0.67236 0.0
C1098 C 0.52245 0.99557 0.71975 0.0
C1099 C 0.47652 0.98892 0.68798 0.0
N1100 N 0.45993 0.96648 0.73745 0.0
N1101 N 0.53997 0.03405 0.67222 0.0
H1102 H 0.42203 0.96313 0.67228 0.0
H1103 H 0.46666 0.98704 0.65936 0.0
H1104 H 0.57179 0.05129 0.67134 0.0
H1105 H 0.52517 0.03729 0.66092 0.0
H1106 H 0.47538 0.97337 0.74985 0.0
H1107 H 0.4283 0.95287 0.73892 0.0
H1108 H 0.53098 0.97568 0.74566 0.0
H1109 H 0.57614 0.00618 0.73379 0.0
C1110 C 0.52348 0.51137 0.64569 0.0
C1111 C 0.54489 0.5265 0.62901 0.0
C1112 C 0.48022 0.49173 0.61221 0.0
C1113 C 0.4585 0.48008 0.62897 0.0
N1114 N 0.459 0.4848 0.66176 0.0
N1115 N 0.54324 0.53828 0.59675 0.0
C1116 C 0.48002 0.49158 0.64577 0.0
C1117 C 0.52315 0.51872 0.61235 0.0
N1118 N 0.5446 0.51482 0.66134 0.0
N1119 N 0.46013 0.47581 0.59616 0.0
H1120 H 0.57464 0.55879 0.59627 0.0
H1121 H 0.5282 0.53716 0.58468 0.0
H1122 H 0.42875 0.45557 0.59543 0.0
H1123 H 0.47511 0.47964 0.58377 0.0
H1124 H 0.53051 0.50065 0.67353 0.0
H1125 H 0.57643 0.52887 0.66176 0.0
H1126 H 0.47318 0.49627 0.67427 0.0
H1127 H 0.42719 0.47084 0.66233 0.0
C1128 C 0.9919 0.47586 0.98125 0.0
C1129 C 0.98363 0.45415 0.96456 0.0
C1130 C 0.01456 0.51859 0.94747 0.0
C1131 C 0.02506 0.5404 0.9642 0.0
N1132 N 0.02926 0.54106 0.99696 0.0
N1133 N 0.99238 0.45409 0.93199 0.0
C1134 C 0.01533 0.51936 0.9811 0.0
C1135 C 0.9965 0.47532 0.94771 0.0
N1136 N 0.97638 0.45485 0.99716 0.0
N1137 N 0.02062 0.53918 0.93138 0.0
H1138 H 0.97853 0.42228 0.93154 0.0
H1139 H 0.00537 0.46802 0.91962 0.0
H1140 H 0.03464 0.57096 0.93059 0.0
H1141 H 0.0092 0.52474 0.91893 0.0
H1142 H 0.97745 0.46879 0.00955 0.0
H1143 H 0.95967 0.42297 0.99778 0.0
H1144 H 0.02695 0.52765 0.00963 0.0
H1145 H 0.04606 0.57295 0.99732 0.0
C1146 C 0.48362 0.00542 0.28027 0.0
C1147 C 0.47416 0.01709 0.29716 0.0
C1148 C 0.50804 0.9857 0.31365 0.0
C1149 C 0.52014 0.97687 0.29673 0.0
N1150 N 0.52508 0.98333 0.26398 0.0
N1151 N 0.48087 0.02314 0.32982 0.0
C1152 C 0.50944 0.98808 0.28003 0.0
C1153 C 0.48734 0.00854 0.31385 0.0
N1154 N 0.46693 0.00988 0.26448 0.0
N1155 N 0.51556 0.97139 0.32945 0.0
H1156 H 0.46528 0.03944 0.33044 0.0
H1157 H 0.49337 0.02178 0.34226 0.0
H1158 H 0.53111 0.95502 0.32977 0.0
H1159 H 0.50392 0.97301 0.34209 0.0
H1160 H 0.46866 0.99757 0.25204 0.0
H1161 H 0.44858 0.02331 0.264 0.0
H1162 H 0.52244 0.99533 0.25161 0.0
H1163 H 0.54347 0.96999 0.26317 0.0
C1164 C 0.35582 0.19162 0.1788 0.0
C1165 C 0.32516 0.15174 0.1841 0.0
C1166 C 0.29571 0.13843 0.15339 0.0
C1167 C 0.32813 0.17712 0.14775 0.0
N1168 N 0.39133 0.23916 0.1541 0.0
N1169 N 0.2685 0.08532 0.17652 0.0
C1170 C 0.35881 0.20341 0.1602 0.0
C1171 C 0.29573 0.12461 0.17141 0.0
N1172 N 0.38156 0.21838 0.19165 0.0
N1173 N 0.26455 0.11532 0.14156 0.0
H1174 H 0.26683 0.07452 0.18976 0.0
H1175 H 0.24931 0.06255 0.16746 0.0
H1176 H 0.2641 0.12405 0.12812 0.0
H1177 H 0.23777 0.08895 0.14532 0.0
H1178 H 0.4016 0.24926 0.18916 0.0
H1179 H 0.38109 0.21039 0.20529 0.0
H1180 H 0.41714 0.25751 0.16191 0.0
H1181 H 0.39383 0.24942 0.14071 0.0
C1182 C 0.18386 0.37115 0.48633 0.0
C1183 C 0.15579 0.33389 0.47768 0.0
C1184 C 0.15406 0.29511 0.50481 0.0
C1185 C 0.18009 0.33256 0.51384 0.0
N1186 N 0.21684 0.4063 0.51437 0.0
N1187 N 0.1109 0.26084 0.47867 0.0
C1188 C 0.19424 0.37064 0.50491 0.0
C1189 C 0.13998 0.29593 0.48692 0.0
N1190 N 0.20115 0.4069 0.47662 0.0
N1191 N 0.14348 0.25885 0.51328 0.0
H1192 H 0.10099 0.26009 0.46533 0.0
H1193 H 0.09468 0.2328 0.48528 0.0
H1194 H 0.15213 0.2571 0.5266 0.0
H1195 H 0.12835 0.23052 0.50684 0.0
H1196 H 0.22532 0.43436 0.48136 0.0
H1197 H 0.19307 0.40876 0.46321 0.0
H1198 H 0.22407 0.43498 0.50943 0.0
H1199 H 0.22648 0.40719 0.52777 0.0
C1200 C 0.8073 0.13545 0.82847 0.0
C1201 C 0.82515 0.16541 0.81456 0.0
C1202 C 0.86951 0.21632 0.83707 0.0
C1203 C 0.84932 0.18725 0.85112 0.0
N1204 N 0.79334 0.12195 0.8607 0.0
N1205 N 0.86731 0.23615 0.80587 0.0
C1206 C 0.8165 0.14759 0.84697 0.0
C1207 C 0.85456 0.20644 0.81893 0.0
N1208 N 0.78283 0.09514 0.82399 0.0
N1209 N 0.90384 0.25276 0.84094 0.0
H1210 H 0.85671 0.23011 0.79246 0.0
H1211 H 0.88545 0.26724 0.80867 0.0
H1212 H 0.91581 0.26106 0.85406 0.0
H1213 H 0.9224 0.27327 0.83096 0.0
H1214 H 0.77266 0.07149 0.83346 0.0
H1215 H 0.77554 0.08486 0.81058 0.0
H1216 H 0.76642 0.09441 0.85843 0.0
H1217 H 0.79884 0.12988 0.87445 0.0
C1218 C 0.70139 0.86311 0.15294 0.0
C1219 C 0.66886 0.82479 0.147 0.0
C1220 C 0.64087 0.8096 0.17796 0.0
C1221 C 0.67092 0.84959 0.18343 0.0
N1222 N 0.72587 0.91691 0.17563 0.0
N1223 N 0.60385 0.76427 0.15292 0.0
C1224 C 0.70016 0.87709 0.17078 0.0
C1225 C 0.63752 0.79871 0.15926 0.0
N1226 N 0.73405 0.88554 0.14173 0.0
N1227 N 0.61641 0.7816 0.19072 0.0
H1228 H 0.60021 0.75523 0.13929 0.0
H1229 H 0.57798 0.74653 0.16083 0.0
H1230 H 0.61801 0.78833 0.20459 0.0
H1231 H 0.59705 0.75075 0.18781 0.0
H1232 H 0.76064 0.91158 0.14597 0.0
H1233 H 0.73617 0.87613 0.1286 0.0
H1234 H 0.74481 0.93947 0.16642 0.0
H1235 H 0.72579 0.92831 0.18858 0.0
C1236 C 0.83549 0.66058 0.51327 0.0
C1237 C 0.82101 0.68754 0.51809 0.0
C1238 C 0.83231 0.71387 0.48683 0.0
C1239 C 0.84303 0.6842 0.48167 0.0
N1240 N 0.84879 0.62501 0.4891 0.0
N1241 N 0.80001 0.73581 0.50926 0.0
C1242 C 0.84301 0.65635 0.49466 0.0
C1243 C 0.81789 0.71314 0.50481 0.0
N1244 N 0.84324 0.63994 0.52657 0.0
N1245 N 0.83702 0.74342 0.4747 0.0
H1246 H 0.78936 0.73622 0.52234 0.0
H1247 H 0.79277 0.75162 0.49972 0.0
H1248 H 0.84743 0.74483 0.4614 0.0
H1249 H 0.83391 0.76845 0.47821 0.0
H1250 H 0.85805 0.62338 0.52412 0.0
H1251 H 0.83804 0.64212 0.54038 0.0
H1252 H 0.84454 0.60108 0.49758 0.0
H1253 H 0.85458 0.62097 0.47558 0.0
C1254 C 0.19106 0.86495 0.85222 0.0
C1255 C 0.15289 0.8295 0.85601 0.0
C1256 C 0.14035 0.81582 0.82332 0.0
C1257 C 0.17654 0.85337 0.81954 0.0
N1258 N 0.23279 0.91725 0.83022 0.0
N1259 N 0.08779 0.77507 0.84539 0.0
C1260 C 0.20094 0.879 0.83395 0.0
C1261 C 0.12651 0.806 0.84161 0.0
N1262 N 0.21848 0.88434 0.86598 0.0
N1263 N 0.12001 0.78887 0.80952 0.0
H1264 H 0.07646 0.76709 0.85863 0.0
H1265 H 0.06571 0.75975 0.8354 0.0
H1266 H 0.12939 0.79474 0.79594 0.0
H1267 H 0.09602 0.75922 0.8117 0.0
H1268 H 0.24845 0.90763 0.86376 0.0
H1269 H 0.21254 0.87481 0.87953 0.0
H1270 H 0.24891 0.93895 0.84025 0.0
H1271 H 0.24091 0.92868 0.817 0.0
C1272 C 0.31611 0.97094 0.00176 0.0
C1273 C 0.27295 0.9473 0.00353 0.0
C1274 C 0.27219 0.00393 0.0195 0.0
C1275 C 0.3143 0.02932 0.01541 0.0
N1276 N 0.37679 0.03853 0.00229 0.0
N1277 N 0.20885 0.9427 0.01206 0.0
C1278 C 0.33655 0.01317 0.00656 0.0
C1279 C 0.25071 0.96394 0.01209 0.0
N1280 N 0.33737 0.95274 0.99562 0.0
N1281 N 0.25262 0.01812 0.03045 0.0
H1282 H 0.19147 0.91323 0.00685 0.0
H1283 H 0.19107 0.95546 0.01589 0.0
H1284 H 0.26677 0.04775 0.0357 0.0
H1285 H 0.22335 0.99946 0.03566 0.0
H1286 H 0.36915 0.96712 0.99545 0.0
H1287 H 0.32302 0.92185 0.99206 0.0
H1288 H 0.39371 0.02994 0.99408 0.0
H1289 H 0.39282 0.06919 0.00624 0.0
C1290 C 0.30785 0.33138 0.33401 0.0
C1291 C 0.26545 0.3097 0.33812 0.0
C1292 C 0.26102 0.2453 0.32884 0.0
C1293 C 0.30396 0.26638 0.32599 0.0
N1294 N 0.36944 0.32809 0.32778 0.0
N1295 N 0.2031 0.24543 0.34288 0.0
C1296 C 0.32779 0.30912 0.32912 0.0
C1297 C 0.24244 0.26647 0.33653 0.0
N1298 N 0.32868 0.37318 0.3344 0.0
N1299 N 0.23769 0.20532 0.3236 0.0
H1300 H 0.18796 0.25963 0.34847 0.0
H1301 H 0.18655 0.2137 0.34409 0.0
H1302 H 0.24998 0.18838 0.31807 0.0
H1303 H 0.20584 0.18986 0.32328 0.0
H1304 H 0.35859 0.3911 0.3298 0.0
H1305 H 0.315 0.39018 0.33825 0.0
H1306 H 0.38899 0.35829 0.33163 0.0
H1307 H 0.38475 0.31263 0.32398 0.0
C1308 C 0.97774 0.30318 0.66075 0.0
C1309 C 0.96294 0.26702 0.67128 0.0
C1310 C 0.02888 0.26969 0.66859 0.0
C1311 C 0.04436 0.30673 0.6586 0.0
N1312 N 0.03675 0.36282 0.64784 0.0
N1313 N 0.97669 0.22129 0.68896 0.0
C1314 C 0.01973 0.32481 0.65553 0.0
C1315 C 0.98933 0.2521 0.67642 0.0
N1316 N 0.95138 0.31604 0.65532 0.0
N1317 N 0.05095 0.24999 0.66973 0.0
H1318 H 0.94782 0.20743 0.69498 0.0
H1319 H 0.99605 0.21209 0.69469 0.0
H1320 H 0.08003 0.26145 0.66411 0.0
H1321 H 0.0391 0.22051 0.67489 0.0
H1322 H 0.95901 0.33953 0.64598 0.0
H1323 H 0.92081 0.3015 0.65941 0.0
H1324 H 0.02165 0.37944 0.64671 0.0
H1325 H 0.06741 0.37924 0.6439 0.0
C1326 C 0.70715 0.96117 0.9851 0.0
C1327 C 0.67335 0.94852 0.99704 0.0
C1328 C 0.67983 0.01639 0.9953 0.0
C1329 C 0.71446 0.02943 0.98383 0.0
N1330 N 0.75579 0.01254 0.96449 0.0
N1331 N 0.62193 0.95983 0.01061 0.0
C1332 C 0.72615 0.00112 0.97754 0.0
C1333 C 0.65777 0.97484 0.00114 0.0
N1334 N 0.72273 0.93584 0.98193 0.0
N1335 N 0.669 0.04416 0.00101 0.0
H1336 H 0.60545 0.92948 0.01498 0.0
H1337 H 0.60686 0.97615 0.01296 0.0
H1338 H 0.68333 0.0742 0.99621 0.0
H1339 H 0.64703 0.03816 0.01094 0.0
H1340 H 0.75063 0.94512 0.97554 0.0
H1341 H 0.70895 0.90579 0.98665 0.0
H1342 H 0.76232 0.99213 0.95783 0.0
H1343 H 0.77199 0.04197 0.95915 0.0
C1344 C 0.72055 0.74997 0.33669 0.0
C1345 C 0.68078 0.72765 0.32898 0.0
C1346 C 0.68184 0.66356 0.33284 0.0
C1347 C 0.7208 0.68588 0.34119 0.0
N1348 N 0.77293 0.74836 0.35506 0.0
N1349 N 0.62046 0.66318 0.32246 0.0
C1350 C 0.73871 0.72847 0.34441 0.0
C1351 C 0.6604 0.68432 0.32792 0.0
N1352 N 0.74207 0.79177 0.33573 0.0
N1353 N 0.66605 0.62294 0.32911 0.0
H1354 H 0.60413 0.67769 0.3188 0.0
H1355 H 0.60256 0.63145 0.32295 0.0
H1356 H 0.68063 0.6068 0.33297 0.0
H1357 H 0.63991 0.6058 0.32129 0.0
H1358 H 0.77301 0.80922 0.33897 0.0
H1359 H 0.73025 0.80915 0.33024 0.0
H1360 H 0.7847 0.77837 0.35953 0.0
H1361 H 0.78752 0.73384 0.36088 0.0
C1362 C 0.01531 0.75061 0.67869 0.0
C1363 C 0.04104 0.73358 0.67606 0.0
C1364 C 0.98527 0.67452 0.66038 0.0
C1365 C 0.96102 0.69349 0.66159 0.0
N1366 N 0.95466 0.75223 0.66946 0.0
N1367 N 0.05261 0.68137 0.66341 0.0
C1368 C 0.97642 0.73216 0.67017 0.0
C1369 C 0.02658 0.696 0.66664 0.0
N1370 N 0.0278 0.78423 0.68958 0.0
N1371 N 0.96842 0.6357 0.65358 0.0
H1372 H 0.08252 0.69569 0.66838 0.0
H1373 H 0.04559 0.65653 0.65499 0.0
H1374 H 0.93839 0.61949 0.64879 0.0
H1375 H 0.9829 0.6184 0.65386 0.0
H1376 H 0.00854 0.79493 0.69388 0.0
H1377 H 0.0566 0.79979 0.69558 0.0
H1378 H 0.96661 0.78271 0.67322 0.0
H1379 H 0.92553 0.73961 0.66381 0.0
C1380 C 0.10229 0.20484 0.98106 0.0
C1381 C 0.0756 0.21315 0.99147 0.0
C1382 C 0.11724 0.2242 0.01883 0.0
C1383 C 0.14277 0.21389 0.00863 0.0
N1384 N 0.15814 0.19037 0.98079 0.0
N1385 N 0.05425 0.2267 0.02034 0.0
C1386 C 0.13485 0.20303 0.98993 0.0
C1387 C 0.08213 0.22171 0.0104 0.0
N1388 N 0.09691 0.19958 0.96261 0.0
N1389 N 0.12712 0.23711 0.03648 0.0
H1390 H 0.02915 0.22684 0.01449 0.0
H1391 H 0.05439 0.22833 0.0345 0.0
H1392 H 0.15145 0.23745 0.04338 0.0
H1393 H 0.11282 0.24968 0.04407 0.0
H1394 H 0.11775 0.19801 0.95384 0.0
H1395 H 0.07253 0.19925 0.95575 0.0
H1396 H 0.1514 0.17765 0.96779 0.0
H1397 H 0.1832 0.19019 0.98664 0.0
C1398 C 0.85619 0.08203 0.34374 0.0
C1399 C 0.85976 0.07162 0.3255 0.0
C1400 C 0.92818 0.13183 0.32344 0.0
C1401 C 0.92616 0.1399 0.3422 0.0
N1402 N 0.89182 0.11748 0.37119 0.0
N1403 N 0.9024 0.0813 0.29933 0.0
C1404 C 0.89121 0.11339 0.35267 0.0
C1405 C 0.89679 0.09493 0.31574 0.0
N1406 N 0.81902 0.06331 0.35228 0.0
N1407 N 0.959 0.16018 0.31275 0.0
H1408 H 0.88032 0.05399 0.29338 0.0
H1409 H 0.93036 0.09498 0.2925 0.0
H1410 H 0.98208 0.18817 0.3177 0.0
H1411 H 0.95947 0.15763 0.29862 0.0
H1412 H 0.81396 0.0728 0.36487 0.0
H1413 H 0.79229 0.04089 0.34609 0.0
H1414 H 0.8687 0.09643 0.37966 0.0
H1415 H 0.91726 0.13968 0.37826 0.0
C1416 C 0.83698 0.90162 0.66879 0.0
C1417 C 0.804 0.86164 0.67235 0.0
C1418 C 0.78742 0.88733 0.69967 0.0
C1419 C 0.81149 0.92771 0.69303 0.0
N1420 N 0.87884 0.9702 0.68078 0.0
N1421 N 0.74785 0.81589 0.69185 0.0
C1422 C 0.84245 0.93434 0.68027 0.0
C1423 C 0.77933 0.85422 0.68805 0.0
N1424 N 0.86247 0.90848 0.65435 0.0
N1425 N 0.77907 0.88068 0.71781 0.0
H1426 H 0.74068 0.79054 0.68368 0.0
H1427 H 0.72713 0.81028 0.70238 0.0
H1428 H 0.79302 0.90458 0.72721 0.0
H1429 H 0.76438 0.85153 0.72359 0.0
H1430 H 0.88406 0.93769 0.64996 0.0
H1431 H 0.86049 0.88499 0.64613 0.0
H1432 H 0.9042 0.9758 0.67299 0.0
H1433 H 0.88476 0.99234 0.6907 0.0
C1434 C 0.89458 0.82091 0.00808 0.0
C1435 C 0.86183 0.78386 0.01497 0.0
C1436 C 0.89957 0.74825 0.0081 0.0
C1437 C 0.93008 0.78407 0.99932 0.0
N1438 N 0.95563 0.8535 0.98928 0.0
N1439 N 0.83045 0.71114 0.01999 0.0
C1440 C 0.92746 0.82027 0.99893 0.0
C1441 C 0.86366 0.74722 0.01467 0.0
N1442 N 0.89445 0.85676 0.01058 0.0
N1443 N 0.90538 0.71556 0.01047 0.0
H1444 H 0.80383 0.70921 0.0252 0.0
H1445 H 0.82804 0.68269 0.01805 0.0
H1446 H 0.93117 0.71509 0.00568 0.0
H1447 H 0.88643 0.69029 0.01847 0.0
H1448 H 0.91924 0.88541 0.00754 0.0
H1449 H 0.87067 0.8582 0.01715 0.0
H1450 H 0.95291 0.87916 0.98674 0.0
H1451 H 0.98051 0.85434 0.98266 0.0
C1452 C 0.10139 0.85808 0.3383 0.0
C1453 C 0.06553 0.86034 0.34162 0.0
C1454 C 0.09646 0.92736 0.32669 0.0
C1455 C 0.13334 0.92638 0.32462 0.0
N1456 N 0.17374 0.89461 0.33116 0.0
N1457 N 0.03035 0.89887 0.34159 0.0
C1458 C 0.13662 0.8928 0.3312 0.0
C1459 C 0.06345 0.89553 0.33656 0.0
N1460 N 0.10131 0.82228 0.34134 0.0
N1461 N 0.09266 0.9581 0.31877 0.0
H1462 H 0.00551 0.87596 0.34871 0.0
H1463 H 0.02883 0.92549 0.34002 0.0
H1464 H 0.11638 0.98212 0.3116 0.0
H1465 H 0.0652 0.95827 0.31809 0.0
H1466 H 0.12485 0.81729 0.33721 0.0
H1467 H 0.0762 0.79618 0.34667 0.0
H1468 H 0.17906 0.87316 0.33764 0.0
H1469 H 0.20028 0.91942 0.32596 0.0
C1470 C 0.24511 0.09124 0.65832 0.0
C1471 C 0.2219 0.07703 0.67462 0.0
C1472 C 0.2036 0.13065 0.67232 0.0
C1473 C 0.22332 0.14209 0.65509 0.0
N1474 N 0.25695 0.12909 0.63017 0.0
N1475 N 0.17349 0.0784 0.69566 0.0
C1476 C 0.24245 0.1212 0.64765 0.0
C1477 C 0.19955 0.0954 0.68123 0.0
N1478 N 0.27076 0.07709 0.65336 0.0
N1479 N 0.19002 0.15428 0.68045 0.0
H1480 H 0.16967 0.05252 0.70253 0.0
H1481 H 0.15309 0.08779 0.69983 0.0
H1482 H 0.1927 0.18055 0.67444 0.0
H1483 H 0.17939 0.14993 0.69383 0.0
H1484 H 0.29166 0.08951 0.6427 0.0
H1485 H 0.27387 0.05538 0.66091 0.0
H1486 H 0.2672 0.11172 0.62333 0.0
H1487 H 0.25541 0.15076 0.62189 0.0
loop_
_geom_bond_atom_site_label_1
_geom_bond_atom_site_label_2
_geom_bond_distance
_geom_bond_site_symmetry_2
_ccdc_geom_bond_type
Li0 N17 1.990 . S
Li0 O60 1.956 . S
Li0 O61 1.970 . S
Li0 O62 1.961 . S
Li1 N25 1.990 . S
Li1 O60 1.970 . S
Li1 O61 1.956 . S
Li1 O63 1.961 . S
Li2 N47 1.990 . S
Li2 O60 1.961 . S
Li2 O62 1.956 . S
Li2 O63 1.970 . S
Li3 N53 1.990 . S
Li3 O61 1.961 . S
Li3 O62 1.970 . S
Li3 O63 1.956 . S
C4 C6 1.348 . S
C4 C7 1.356 . S
C4 O60 1.325 . S
N5 C8 1.314 . S
N5 C9 1.279 . S
C6 C4 1.348 . S
C6 C8 1.353 . S
C6 H64 0.929 . S
C7 C4 1.356 . S
C7 C9 1.358 . S
C7 H65 0.930 . S
C8 N5 1.314 . S
C8 C6 1.353 . S
C8 H66 0.930 . S
C9 N5 1.279 . S
C9 C7 1.358 . S
C9 H67 0.930 . S
C10 C13 1.348 . S
C10 C14 1.356 . S
C10 O61 1.325 . S
C11 N12 1.279 . S
C11 C14 1.358 . S
C11 H68 0.930 . S
N12 C11 1.279 . S
N12 C15 1.314 . S
C13 C10 1.348 . S
C13 C15 1.353 . S
C13 H69 0.929 . S
C14 C10 1.356 . S
C14 C11 1.358 . S
C14 H70 0.930 . S
C15 N12 1.314 . S
C15 C13 1.353 . S
C15 H71 0.930 . S
C16 N17 1.314 . S
C16 C21 1.353 . S
C16 H22 0.930 . S
N17 Li0 1.990 . S
N17 C16 1.314 . S
N17 C19 1.279 . S
C18 C19 1.358 . S
C18 C20 1.356 . S
C18 H72 0.930 . S
C19 N17 1.279 . S
C19 C18 1.358 . S
C19 H23 0.930 . S
C20 C18 1.356 . S
C20 C21 1.348 . S
C21 C16 1.353 . S
C21 C20 1.348 . S
C21 H73 0.929 . S
H22 C16 0.930 . S
H23 C19 0.930 . S
C24 N25 1.314 . S
C24 C26 1.353 . S
C24 H30 0.930 . S
N25 Li1 1.990 . S
N25 C24 1.314 . S
N25 C28 1.279 . S
C26 C24 1.353 . S
C26 C29 1.348 . S
C26 H74 0.929 . S
C27 C28 1.358 . S
C27 C29 1.356 . S
C27 H75 0.930 . S
C28 N25 1.279 . S
C28 C27 1.358 . S
C28 H31 0.930 . S
C29 C26 1.348 . S
C29 C27 1.356 . S
H30 C24 0.930 . S
H31 C28 0.930 . S
C32 C34 1.348 1_554 S
C32 C35 1.356 1_554 S
C32 O62 1.325 . S
N33 C36 1.314 . S
N33 C37 1.279 . S
C34 C32 1.348 1_556 S
C34 C36 1.353 . S
C34 H76 0.929 . S
C35 C32 1.356 1_556 S
C35 C37 1.358 . S
C35 H77 0.930 . S
C36 N33 1.314 . S
C36 C34 1.353 . S
C36 H78 0.930 . S
C37 N33 1.279 . S
C37 C35 1.358 . S
C37 H79 0.930 . S
C38 C39 1.348 . S
C38 C40 1.356 . S
C38 O63 1.325 . S
C39 C38 1.348 . S
C39 C41 1.353 . S
C39 H80 0.929 . S
C40 C38 1.356 . S
C40 C42 1.358 . S
C40 H81 0.930 . S
C41 C39 1.353 . S
C41 N43 1.314 . S
C41 H82 0.930 . S
C42 C40 1.358 . S
C42 N43 1.279 . S
C42 H83 0.930 . S
N43 C41 1.314 . S
N43 C42 1.279 . S
C44 C46 1.353 . S
C44 N47 1.314 . S
C44 H50 0.930 . S
C45 N47 1.279 1_556 S
C45 C48 1.358 . S
C45 H51 0.930 . S
C46 C44 1.353 . S
C46 C49 1.348 1_554 S
C46 H84 0.929 . S
N47 Li2 1.990 . S
N47 C44 1.314 . S
N47 C45 1.279 1_554 S
C48 C45 1.358 . S
C48 C49 1.356 . S
C48 H85 0.930 . S
C49 C46 1.348 1_556 S
C49 C48 1.356 . S
H50 C44 0.930 . S
H51 C45 0.930 . S
C52 N53 1.314 . S
C52 C54 1.353 . S
C52 H58 0.930 . S
N53 Li3 1.990 . S
N53 C52 1.314 . S
N53 C56 1.279 . S
C54 C52 1.353 . S
C54 C57 1.348 . S
C54 H86 0.929 . S
C55 C56 1.358 . S
C55 C57 1.356 . S
C55 H87 0.930 . S
C56 N53 1.279 . S
C56 C55 1.358 . S
C56 H59 0.930 . S
C57 C54 1.348 . S
C57 C55 1.356 . S
H58 C52 0.930 . S
H59 C56 0.930 . S
O60 Li0 1.956 . S
O60 Li1 1.970 . S
O60 Li2 1.961 . S
O60 C4 1.325 . S
O61 Li0 1.970 . S
O61 Li1 1.956 . S
O61 Li3 1.961 . S
O61 C10 1.325 . S
O62 Li0 1.961 . S
O62 Li2 1.956 . S
O62 Li3 1.970 . S
O62 C32 1.325 . S
O63 Li1 1.961 . S
O63 Li2 1.970 . S
O63 Li3 1.956 . S
O63 C38 1.325 . S
H64 C6 0.929 . S
H65 C7 0.930 . S
H66 C8 0.930 . S
H67 C9 0.930 . S
H68 C11 0.930 . S
H69 C13 0.929 . S
H70 C14 0.930 . S
H71 C15 0.930 . S
H72 C18 0.930 . S
H73 C21 0.929 . S
H74 C26 0.929 . S
H75 C27 0.930 . S
H76 C34 0.929 . S
H77 C35 0.930 . S
H78 C36 0.930 . S
H79 C37 0.930 . S
H80 C39 0.929 . S
H81 C40 0.930 . S
H82 C41 0.930 . S
H83 C42 0.930 . S
H84 C46 0.929 . S
H85 C48 0.930 . S
H86 C54 0.929 . S
H87 C55 0.930 . S
Li88 N105 1.990 . S
Li88 O148 1.956 . S
Li88 O149 1.970 . S
Li88 O150 1.961 . S
Li89 N113 1.990 . S
Li89 O148 1.970 . S
Li89 O149 1.956 . S
Li89 O151 1.961 . S
Li90 N135 1.990 . S
Li90 O148 1.961 . S
Li90 O150 1.956 . S
Li90 O151 1.970 . S
Li91 N141 1.990 . S
Li91 O149 1.961 . S
Li91 O150 1.970 . S
Li91 O151 1.956 . S
C92 C94 1.348 . S
C92 C95 1.356 . S
C92 O148 1.325 . S
N93 C96 1.314 . S
N93 C97 1.279 . S
C94 C92 1.348 . S
C94 C96 1.353 . S
C94 H152 0.929 . S
C95 C92 1.356 . S
C95 C97 1.358 . S
C95 H153 0.930 . S
C96 N93 1.314 . S
C96 C94 1.353 . S
C96 H154 0.930 . S
C97 N93 1.279 . S
C97 C95 1.358 . S
C97 H155 0.930 . S
C98 C101 1.348 . S
C98 C102 1.356 . S
C98 O149 1.325 . S
C99 N100 1.279 . S
C99 C102 1.358 1_655 S
C99 H156 0.930 . S
N100 C99 1.279 . S
N100 C103 1.314 1_655 S
C101 C98 1.348 . S
C101 C103 1.353 . S
C101 H157 0.929 . S
C102 C98 1.356 . S
C102 C99 1.358 1_455 S
C102 H158 0.930 . S
C103 N100 1.314 1_455 S
C103 C101 1.353 . S
C103 H159 0.930 . S
C104 N105 1.314 . S
C104 C109 1.353 . S
C104 H110 0.930 . S
N105 Li88 1.990 . S
N105 C104 1.314 . S
N105 C107 1.279 . S
C106 C107 1.358 . S
C106 C108 1.356 . S
C106 H160 0.930 . S
C107 N105 1.279 . S
C107 C106 1.358 . S
C107 H111 0.930 . S
C108 C106 1.356 . S
C108 C109 1.348 . S
C109 C104 1.353 . S
C109 C108 1.348 . S
C109 H161 0.929 . S
H110 C104 0.930 . S
H111 C107 0.930 . S
C112 N113 1.314 . S
C112 C114 1.353 . S
C112 H118 0.930 . S
N113 Li89 1.990 . S
N113 C112 1.314 . S
N113 C116 1.279 . S
C114 C112 1.353 . S
C114 C117 1.348 . S
C114 H162 0.929 . S
C115 C116 1.358 . S
C115 C117 1.356 . S
C115 H163 0.930 . S
C116 N113 1.279 . S
C116 C115 1.358 . S
C116 H119 0.930 . S
C117 C114 1.348 . S
C117 C115 1.356 . S
H118 C112 0.930 . S
H119 C116 0.930 . S
C120 C122 1.348 . S
C120 C123 1.356 . S
C120 O150 1.325 . S
N121 C124 1.314 . S
N121 C125 1.279 . S
C122 C120 1.348 . S
C122 C124 1.353 . S
C122 H164 0.929 . S
C123 C120 1.356 . S
C123 C125 1.358 . S
C123 H165 0.930 . S
C124 N121 1.314 . S
C124 C122 1.353 . S
C124 H166 0.930 . S
C125 N121 1.279 . S
C125 C123 1.358 . S
C125 H167 0.930 . S
C126 C127 1.348 . S
C126 C128 1.356 . S
C126 O151 1.325 . S
C127 C126 1.348 . S
C127 C129 1.353 . S
C127 H168 0.929 . S
C128 C126 1.356 . S
C128 C130 1.358 . S
C128 H169 0.930 . S
C129 C127 1.353 . S
C129 N131 1.314 . S
C129 H170 0.930 . S
C130 C128 1.358 . S
C130 N131 1.279 . S
C130 H171 0.930 . S
N131 C129 1.314 . S
N131 C130 1.279 . S
C132 C134 1.353 . S
C132 N135 1.314 . S
C132 H138 0.930 . S
C133 N135 1.279 . S
C133 C136 1.358 . S
C133 H139 0.930 . S
C134 C132 1.353 . S
C134 C137 1.348 . S
C134 H172 0.929 . S
N135 Li90 1.990 . S
N135 C132 1.314 . S
N135 C133 1.279 . S
C136 C133 1.358 . S
C136 C137 1.356 . S
C136 H173 0.930 . S
C137 C134 1.348 . S
C137 C136 1.356 . S
H138 C132 0.930 . S
H139 C133 0.930 . S
C140 N141 1.314 1_655 S
C140 C142 1.353 . S
C140 H146 0.930 . S
N141 Li91 1.990 . S
N141 C140 1.314 1_455 S
N141 C144 1.279 . S
C142 C140 1.353 . S
C142 C145 1.348 . S
C142 H174 0.929 . S
C143 C144 1.358 1_655 S
C143 C145 1.356 . S
C143 H175 0.930 . S
C144 N141 1.279 . S
C144 C143 1.358 1_455 S
C144 H147 0.930 . S
C145 C142 1.348 . S
C145 C143 1.356 . S
H146 C140 0.930 . S
H147 C144 0.930 . S
O148 Li88 1.956 . S
O148 Li89 1.970 . S
O148 Li90 1.961 . S
O148 C92 1.325 . S
O149 Li88 1.970 . S
O149 Li89 1.956 . S
O149 Li91 1.961 . S
O149 C98 1.325 . S
O150 Li88 1.961 . S
O150 Li90 1.956 . S
O150 Li91 1.970 . S
O150 C120 1.325 . S
O151 Li89 1.961 . S
O151 Li90 1.970 . S
O151 Li91 1.956 . S
O151 C126 1.325 . S
H152 C94 0.929 . S
H153 C95 0.930 . S
H154 C96 0.930 . S
H155 C97 0.930 . S
H156 C99 0.930 . S
H157 C101 0.929 . S
H158 C102 0.930 . S
H159 C103 0.930 . S
H160 C106 0.930 . S
H161 C109 0.929 . S
H162 C114 0.929 . S
H163 C115 0.930 . S
H164 C122 0.929 . S
H165 C123 0.930 . S
H166 C124 0.930 . S
H167 C125 0.930 . S
H168 C127 0.929 . S
H169 C128 0.930 . S
H170 C129 0.930 . S
H171 C130 0.930 . S
H172 C134 0.929 . S
H173 C136 0.930 . S
H174 C142 0.929 . S
H175 C143 0.930 . S
Li176 N193 1.990 . S
Li176 O236 1.956 . S
Li176 O237 1.970 . S
Li176 O238 1.961 . S
Li177 N201 1.990 . S
Li177 O236 1.970 . S
Li177 O237 1.956 . S
Li177 O239 1.961 . S
Li178 N223 1.990 . S
Li178 O236 1.961 . S
Li178 O238 1.956 . S
Li178 O239 1.970 . S
Li179 N229 1.990 . S
Li179 O237 1.961 . S
Li179 O238 1.970 . S
Li179 O239 1.956 . S
C180 C182 1.348 . S
C180 C183 1.356 . S
C180 O236 1.325 . S
N181 C184 1.314 1_565 S
N181 C185 1.279 . S
C182 C180 1.348 . S
C182 C184 1.353 . S
C182 H240 0.929 . S
C183 C180 1.356 . S
C183 C185 1.358 1_545 S
C183 H241 0.930 . S
C184 N181 1.314 1_545 S
C184 C182 1.353 . S
C184 H242 0.930 . S
C185 N181 1.279 . S
C185 C183 1.358 1_565 S
C185 H243 0.930 . S
C186 C189 1.348 . S
C186 C190 1.356 . S
C186 O237 1.325 . S
C187 N188 1.279 . S
C187 C190 1.358 . S
C187 H244 0.930 . S
N188 C187 1.279 . S
N188 C191 1.314 . S
C189 C186 1.348 . S
C189 C191 1.353 . S
C189 H245 0.929 . S
C190 C186 1.356 . S
C190 C187 1.358 . S
C190 H246 0.930 . S
C191 N188 1.314 . S
C191 C189 1.353 . S
C191 H247 0.930 . S
C192 N193 1.314 . S
C192 C197 1.353 . S
C192 H198 0.930 . S
N193 Li176 1.990 . S
N193 C192 1.314 . S
N193 C195 1.279 . S
C194 C195 1.358 . S
C194 C196 1.356 . S
C194 H248 0.930 . S
C195 N193 1.279 . S
C195 C194 1.358 . S
C195 H199 0.930 . S
C196 C194 1.356 . S
C196 C197 1.348 . S
C197 C192 1.353 . S
C197 C196 1.348 . S
C197 H249 0.929 . S
H198 C192 0.930 . S
H199 C195 0.930 . S
C200 N201 1.314 . S
C200 C202 1.353 . S
C200 H206 0.930 . S
N201 Li177 1.990 . S
N201 C200 1.314 . S
N201 C204 1.279 . S
C202 C200 1.353 . S
C202 C205 1.348 . S
C202 H250 0.929 . S
C203 C204 1.358 . S
C203 C205 1.356 . S
C203 H251 0.930 . S
C204 N201 1.279 . S
C204 C203 1.358 . S
C204 H207 0.930 . S
C205 C202 1.348 . S
C205 C203 1.356 . S
H206 C200 0.930 . S
H207 C204 0.930 . S
C208 C210 1.348 . S
C208 C211 1.356 . S
C208 O238 1.325 . S
N209 C212 1.314 . S
N209 C213 1.279 . S
C210 C208 1.348 . S
C210 C212 1.353 . S
C210 H252 0.929 . S
C211 C208 1.356 . S
C211 C213 1.358 . S
C211 H253 0.930 . S
C212 N209 1.314 . S
C212 C210 1.353 . S
C212 H254 0.930 . S
C213 N209 1.279 . S
C213 C211 1.358 . S
C213 H255 0.930 . S
C214 C215 1.348 . S
C214 C216 1.356 . S
C214 O239 1.325 . S
C215 C214 1.348 . S
C215 C217 1.353 . S
C215 H256 0.929 . S
C216 C214 1.356 . S
C216 C218 1.358 . S
C216 H257 0.930 . S
C217 C215 1.353 . S
C217 N219 1.314 . S
C217 H258 0.930 . S
C218 C216 1.358 . S
C218 N219 1.279 . S
C218 H259 0.930 . S
N219 C217 1.314 . S
N219 C218 1.279 . S
C220 C222 1.353 . S
C220 N223 1.314 1_565 S
C220 H226 0.930 . S
C221 N223 1.279 . S
C221 C224 1.358 1_545 S
C221 H227 0.930 . S
C222 C220 1.353 . S
C222 C225 1.348 . S
C222 H260 0.929 . S
N223 Li178 1.990 . S
N223 C220 1.314 1_545 S
N223 C221 1.279 . S
C224 C221 1.358 1_565 S
C224 C225 1.356 . S
C224 H261 0.930 . S
C225 C222 1.348 . S
C225 C224 1.356 . S
H226 C220 0.930 . S
H227 C221 0.930 . S
C228 N229 1.314 . S
C228 C230 1.353 . S
C228 H234 0.930 . S
N229 Li179 1.990 . S
N229 C228 1.314 . S
N229 C232 1.279 . S
C230 C228 1.353 . S
C230 C233 1.348 . S
C230 H262 0.929 . S
C231 C232 1.358 . S
C231 C233 1.356 . S
C231 H263 0.930 . S
C232 N229 1.279 . S
C232 C231 1.358 . S
C232 H235 0.930 . S
C233 C230 1.348 . S
C233 C231 1.356 . S
H234 C228 0.930 . S
H235 C232 0.930 . S
O236 Li176 1.956 . S
O236 Li177 1.970 . S
O236 Li178 1.961 . S
O236 C180 1.325 . S
O237 Li176 1.970 . S
O237 Li177 1.956 . S
O237 Li179 1.961 . S
O237 C186 1.325 . S
O238 Li176 1.961 . S
O238 Li178 1.956 . S
O238 Li179 1.970 . S
O238 C208 1.325 . S
O239 Li177 1.961 . S
O239 Li178 1.970 . S
O239 Li179 1.956 . S
O239 C214 1.325 . S
H240 C182 0.929 . S
H241 C183 0.930 . S
H242 C184 0.930 . S
H243 C185 0.930 . S
H244 C187 0.930 . S
H245 C189 0.929 . S
H246 C190 0.930 . S
H247 C191 0.930 . S
H248 C194 0.930 . S
H249 C197 0.929 . S
H250 C202 0.929 . S
H251 C203 0.930 . S
H252 C210 0.929 . S
H253 C211 0.930 . S
H254 C212 0.930 . S
H255 C213 0.930 . S
H256 C215 0.929 . S
H257 C216 0.930 . S
H258 C217 0.930 . S
H259 C218 0.930 . S
H260 C222 0.929 . S
H261 C224 0.930 . S
H262 C230 0.929 . S
H263 C231 0.930 . S
Li264 N281 1.990 . S
Li264 O324 1.956 . S
Li264 O325 1.970 . S
Li264 O326 1.961 . S
Li265 N289 1.990 . S
Li265 O324 1.970 . S
Li265 O325 1.956 . S
Li265 O327 1.961 . S
Li266 N311 1.990 . S
Li266 O324 1.961 . S
Li266 O326 1.956 . S
Li266 O327 1.970 . S
Li267 N317 1.990 . S
Li267 O325 1.961 . S
Li267 O326 1.970 . S
Li267 O327 1.956 . S
C268 C270 1.348 . S
C268 C271 1.356 . S
C268 O324 1.325 . S
N269 C272 1.314 . S
N269 C273 1.279 . S
C270 C268 1.348 . S
C270 C272 1.353 . S
C270 H328 0.929 . S
C271 C268 1.356 . S
C271 C273 1.358 . S
C271 H329 0.930 . S
C272 N269 1.314 . S
C272 C270 1.353 . S
C272 H330 0.930 . S
C273 N269 1.279 . S
C273 C271 1.358 . S
C273 H331 0.930 . S
C274 C277 1.348 . S
C274 C278 1.356 . S
C274 O325 1.325 . S
C275 N276 1.279 . S
C275 C278 1.358 . S
C275 H332 0.930 . S
N276 C275 1.279 . S
N276 C279 1.314 . S
C277 C274 1.348 . S
C277 C279 1.353 . S
C277 H333 0.929 . S
C278 C274 1.356 . S
C278 C275 1.358 . S
C278 H334 0.930 . S
C279 N276 1.314 . S
C279 C277 1.353 . S
C279 H335 0.930 . S
C280 N281 1.314 . S
C280 C285 1.353 . S
C280 H286 0.930 . S
N281 Li264 1.990 . S
N281 C280 1.314 . S
N281 C283 1.279 . S
C282 C283 1.358 . S
C282 C284 1.356 . S
C282 H336 0.930 . S
C283 N281 1.279 . S
C283 C282 1.358 . S
C283 H287 0.930 . S
C284 C282 1.356 . S
C284 C285 1.348 . S
C285 C280 1.353 . S
C285 C284 1.348 . S
C285 H337 0.929 . S
H286 C280 0.930 . S
H287 C283 0.930 . S
C288 N289 1.314 . S
C288 C290 1.353 . S
C288 H294 0.930 . S
N289 Li265 1.990 . S
N289 C288 1.314 . S
N289 C292 1.279 . S
C290 C288 1.353 . S
C290 C293 1.348 . S
C290 H338 0.929 . S
C291 C292 1.358 . S
C291 C293 1.356 . S
C291 H339 0.930 . S
C292 N289 1.279 . S
C292 C291 1.358 . S
C292 H295 0.930 . S
C293 C290 1.348 . S
C293 C291 1.356 . S
H294 C288 0.930 . S
H295 C292 0.930 . S
C296 C298 1.348 . S
C296 C299 1.356 . S
C296 O326 1.325 . S
N297 C300 1.314 . S
N297 C301 1.279 . S
C298 C296 1.348 . S
C298 C300 1.353 . S
C298 H340 0.929 . S
C299 C296 1.356 . S
C299 C301 1.358 . S
C299 H341 0.930 . S
C300 N297 1.314 . S
C300 C298 1.353 . S
C300 H342 0.930 . S
C301 N297 1.279 . S
C301 C299 1.358 . S
C301 H343 0.930 . S
C302 C303 1.348 1_554 S
C302 C304 1.356 1_554 S
C302 O327 1.325 . S
C303 C302 1.348 1_556 S
C303 C305 1.353 . S
C303 H344 0.929 . S
C304 C302 1.356 1_556 S
C304 C306 1.358 . S
C304 H345 0.930 . S
C305 C303 1.353 . S
C305 N307 1.314 . S
C305 H346 0.930 . S
C306 C304 1.358 . S
C306 N307 1.279 . S
C306 H347 0.930 . S
N307 C305 1.314 . S
N307 C306 1.279 . S
C308 C310 1.353 . S
C308 N311 1.314 . S
C308 H314 0.930 . S
C309 N311 1.279 . S
C309 C312 1.358 . S
C309 H315 0.930 . S
C310 C308 1.353 . S
C310 C313 1.348 . S
C310 H348 0.929 . S
N311 Li266 1.990 . S
N311 C308 1.314 . S
N311 C309 1.279 . S
C312 C309 1.358 . S
C312 C313 1.356 . S
C312 H349 0.930 . S
C313 C310 1.348 . S
C313 C312 1.356 . S
H314 C308 0.930 . S
H315 C309 0.930 . S
C316 N317 1.314 . S
C316 C318 1.353 . S
C316 H322 0.930 . S
N317 Li267 1.990 . S
N317 C316 1.314 . S
N317 C320 1.279 1_554 S
C318 C316 1.353 . S
C318 C321 1.348 1_554 S
C318 H350 0.929 . S
C319 C320 1.358 . S
C319 C321 1.356 . S
C319 H351 0.930 . S
C320 N317 1.279 1_556 S
C320 C319 1.358 . S
C320 H323 0.930 . S
C321 C318 1.348 1_556 S
C321 C319 1.356 . S
H322 C316 0.930 . S
H323 C320 0.930 . S
O324 Li264 1.956 . S
O324 Li265 1.970 . S
O324 Li266 1.961 . S
O324 C268 1.325 . S
O325 Li264 1.970 . S
O325 Li265 1.956 . S
O325 Li267 1.961 . S
O325 C274 1.325 . S
O326 Li264 1.961 . S
O326 Li266 1.956 . S
O326 Li267 1.970 . S
O326 C296 1.325 . S
O327 Li265 1.961 . S
O327 Li266 1.970 . S
O327 Li267 1.956 . S
O327 C302 1.325 . S
H328 C270 0.929 . S
H329 C271 0.930 . S
H330 C272 0.930 . S
H331 C273 0.930 . S
H332 C275 0.930 . S
H333 C277 0.929 . S
H334 C278 0.930 . S
H335 C279 0.930 . S
H336 C282 0.930 . S
H337 C285 0.929 . S
H338 C290 0.929 . S
H339 C291 0.930 . S
H340 C298 0.929 . S
H341 C299 0.930 . S
H342 C300 0.930 . S
H343 C301 0.930 . S
H344 C303 0.929 . S
H345 C304 0.930 . S
H346 C305 0.930 . S
H347 C306 0.930 . S
H348 C310 0.929 . S
H349 C312 0.930 . S
H350 C318 0.929 . S
H351 C319 0.930 . S
Li352 N369 1.990 . S
Li352 O412 1.956 . S
Li352 O413 1.970 . S
Li352 O414 1.961 . S
Li353 N377 1.990 . S
Li353 O412 1.970 . S
Li353 O413 1.956 . S
Li353 O415 1.961 . S
Li354 N399 1.990 . S
Li354 O412 1.961 . S
Li354 O414 1.956 . S
Li354 O415 1.970 . S
Li355 N405 1.990 . S
Li355 O413 1.961 . S
Li355 O414 1.970 . S
Li355 O415 1.956 . S
C356 C358 1.348 . S
C356 C359 1.356 . S
C356 O412 1.325 . S
N357 C360 1.314 . S
N357 C361 1.279 . S
C358 C356 1.348 . S
C358 C360 1.353 . S
C358 H416 0.929 . S
C359 C356 1.356 . S
C359 C361 1.358 . S
C359 H417 0.930 . S
C360 N357 1.314 . S
C360 C358 1.353 . S
C360 H418 0.930 . S
C361 N357 1.279 . S
C361 C359 1.358 . S
C361 H419 0.930 . S
C362 C365 1.348 . S
C362 C366 1.356 . S
C362 O413 1.325 . S
C363 N364 1.279 . S
C363 C366 1.358 1_455 S
C363 H420 0.930 . S
N364 C363 1.279 . S
N364 C367 1.314 1_455 S
C365 C362 1.348 . S
C365 C367 1.353 . S
C365 H421 0.929 . S
C366 C362 1.356 . S
C366 C363 1.358 1_655 S
C366 H422 0.930 . S
C367 N364 1.314 1_655 S
C367 C365 1.353 . S
C367 H423 0.930 . S
C368 N369 1.314 . S
C368 C373 1.353 . S
C368 H374 0.930 . S
N369 Li352 1.990 . S
N369 C368 1.314 . S
N369 C371 1.279 . S
C370 C371 1.358 . S
C370 C372 1.356 . S
C370 H424 0.930 . S
C371 N369 1.279 . S
C371 C370 1.358 . S
C371 H375 0.930 . S
C372 C370 1.356 . S
C372 C373 1.348 . S
C373 C368 1.353 . S
C373 C372 1.348 . S
C373 H425 0.929 . S
H374 C368 0.930 . S
H375 C371 0.930 . S
C376 N377 1.314 . S
C376 C378 1.353 . S
C376 H382 0.930 . S
N377 Li353 1.990 . S
N377 C376 1.314 . S
N377 C380 1.279 . S
C378 C376 1.353 . S
C378 C381 1.348 . S
C378 H426 0.929 . S
C379 C380 1.358 . S
C379 C381 1.356 . S
C379 H427 0.930 . S
C380 N377 1.279 . S
C380 C379 1.358 . S
C380 H383 0.930 . S
C381 C378 1.348 . S
C381 C379 1.356 . S
H382 C376 0.930 . S
H383 C380 0.930 . S
C384 C386 1.348 . S
C384 C387 1.356 . S
C384 O414 1.325 . S
N385 C388 1.314 . S
N385 C389 1.279 . S
C386 C384 1.348 . S
C386 C388 1.353 . S
C386 H428 0.929 . S
C387 C384 1.356 . S
C387 C389 1.358 . S
C387 H429 0.930 . S
C388 N385 1.314 . S
C388 C386 1.353 . S
C388 H430 0.930 . S
C389 N385 1.279 . S
C389 C387 1.358 . S
C389 H431 0.930 . S
C390 C391 1.348 . S
C390 C392 1.356 . S
C390 O415 1.325 . S
C391 C390 1.348 . S
C391 C393 1.353 . S
C391 H432 0.929 . S
C392 C390 1.356 . S
C392 C394 1.358 . S
C392 H433 0.930 . S
C393 C391 1.353 . S
C393 N395 1.314 . S
C393 H434 0.930 . S
C394 C392 1.358 . S
C394 N395 1.279 . S
C394 H435 0.930 . S
N395 C393 1.314 . S
N395 C394 1.279 . S
C396 C398 1.353 . S
C396 N399 1.314 . S
C396 H402 0.930 . S
C397 N399 1.279 . S
C397 C400 1.358 . S
C397 H403 0.930 . S
C398 C396 1.353 . S
C398 C401 1.348 . S
C398 H436 0.929 . S
N399 Li354 1.990 . S
N399 C396 1.314 . S
N399 C397 1.279 . S
C400 C397 1.358 . S
C400 C401 1.356 . S
C400 H437 0.930 . S
C401 C398 1.348 . S
C401 C400 1.356 . S
H402 C396 0.930 . S
H403 C397 0.930 . S
C404 N405 1.314 1_455 S
C404 C406 1.353 . S
C404 H410 0.930 . S
N405 Li355 1.990 . S
N405 C404 1.314 1_655 S
N405 C408 1.279 . S
C406 C404 1.353 . S
C406 C409 1.348 . S
C406 H438 0.929 . S
C407 C408 1.358 1_455 S
C407 C409 1.356 . S
C407 H439 0.930 . S
C408 N405 1.279 . S
C408 C407 1.358 1_655 S
C408 H411 0.930 . S
C409 C406 1.348 . S
C409 C407 1.356 . S
H410 C404 0.930 . S
H411 C408 0.930 . S
O412 Li352 1.956 . S
O412 Li353 1.970 . S
O412 Li354 1.961 . S
O412 C356 1.325 . S
O413 Li352 1.970 . S
O413 Li353 1.956 . S
O413 Li355 1.961 . S
O413 C362 1.325 . S
O414 Li352 1.961 . S
O414 Li354 1.956 . S
O414 Li355 1.970 . S
O414 C384 1.325 . S
O415 Li353 1.961 . S
O415 Li354 1.970 . S
O415 Li355 1.956 . S
O415 C390 1.325 . S
H416 C358 0.929 . S
H417 C359 0.930 . S
H418 C360 0.930 . S
H419 C361 0.930 . S
H420 C363 0.930 . S
H421 C365 0.929 . S
H422 C366 0.930 . S
H423 C367 0.930 . S
H424 C370 0.930 . S
H425 C373 0.929 . S
H426 C378 0.929 . S
H427 C379 0.930 . S
H428 C386 0.929 . S
H429 C387 0.930 . S
H430 C388 0.930 . S
H431 C389 0.930 . S
H432 C391 0.929 . S
H433 C392 0.930 . S
H434 C393 0.930 . S
H435 C394 0.930 . S
H436 C398 0.929 . S
H437 C400 0.930 . S
H438 C406 0.929 . S
H439 C407 0.930 . S
Li440 N457 1.990 . S
Li440 O500 1.956 . S
Li440 O501 1.970 . S
Li440 O502 1.961 . S
Li441 N465 1.990 . S
Li441 O500 1.970 . S
Li441 O501 1.956 . S
Li441 O503 1.961 . S
Li442 N487 1.990 . S
Li442 O500 1.961 . S
Li442 O502 1.956 . S
Li442 O503 1.970 . S
Li443 N493 1.990 . S
Li443 O501 1.961 . S
Li443 O502 1.970 . S
Li443 O503 1.956 . S
C444 C446 1.348 . S
C444 C447 1.356 . S
C444 O500 1.325 . S
N445 C448 1.314 . S
N445 C449 1.279 . S
C446 C444 1.348 . S
C446 C448 1.353 . S
C446 H504 0.929 . S
C447 C444 1.356 . S
C447 C449 1.358 . S
C447 H505 0.930 . S
C448 N445 1.314 . S
C448 C446 1.353 . S
C448 H506 0.930 . S
C449 N445 1.279 . S
C449 C447 1.358 . S
C449 H507 0.930 . S
C450 C453 1.348 . S
C450 C454 1.356 . S
C450 O501 1.325 . S
C451 N452 1.279 . S
C451 C454 1.358 1_545 S
C451 H508 0.930 . S
N452 C451 1.279 . S
N452 C455 1.314 1_545 S
C453 C450 1.348 . S
C453 C455 1.353 . S
C453 H509 0.929 . S
C454 C450 1.356 . S
C454 C451 1.358 1_565 S
C454 H510 0.930 . S
C455 N452 1.314 1_565 S
C455 C453 1.353 . S
C455 H511 0.930 . S
C456 N457 1.314 . S
C456 C461 1.353 . S
C456 H462 0.930 . S
N457 Li440 1.990 . S
N457 C456 1.314 . S
N457 C459 1.279 . S
C458 C459 1.358 . S
C458 C460 1.356 . S
C458 H512 0.930 . S
C459 N457 1.279 . S
C459 C458 1.358 . S
C459 H463 0.930 . S
C460 C458 1.356 . S
C460 C461 1.348 . S
C461 C456 1.353 . S
C461 C460 1.348 . S
C461 H513 0.929 . S
H462 C456 0.930 . S
H463 C459 0.930 . S
C464 N465 1.314 . S
C464 C466 1.353 . S
C464 H470 0.930 . S
N465 Li441 1.990 . S
N465 C464 1.314 . S
N465 C468 1.279 . S
C466 C464 1.353 . S
C466 C469 1.348 . S
C466 H514 0.929 . S
C467 C468 1.358 . S
C467 C469 1.356 . S
C467 H515 0.930 . S
C468 N465 1.279 . S
C468 C467 1.358 . S
C468 H471 0.930 . S
C469 C466 1.348 . S
C469 C467 1.356 . S
H470 C464 0.930 . S
H471 C468 0.930 . S
C472 C474 1.348 . S
C472 C475 1.356 . S
C472 O502 1.325 . S
N473 C476 1.314 . S
N473 C477 1.279 . S
C474 C472 1.348 . S
C474 C476 1.353 . S
C474 H516 0.929 . S
C475 C472 1.356 . S
C475 C477 1.358 . S
C475 H517 0.930 . S
C476 N473 1.314 . S
C476 C474 1.353 . S
C476 H518 0.930 . S
C477 N473 1.279 . S
C477 C475 1.358 . S
C477 H519 0.930 . S
C478 C479 1.348 . S
C478 C480 1.356 . S
C478 O503 1.325 . S
C479 C478 1.348 . S
C479 C481 1.353 . S
C479 H520 0.929 . S
C480 C478 1.356 . S
C480 C482 1.358 . S
C480 H521 0.930 . S
C481 C479 1.353 . S
C481 N483 1.314 . S
C481 H522 0.930 . S
C482 C480 1.358 . S
C482 N483 1.279 . S
C482 H523 0.930 . S
N483 C481 1.314 . S
N483 C482 1.279 . S
C484 C486 1.353 . S
C484 N487 1.314 . S
C484 H490 0.930 . S
C485 N487 1.279 . S
C485 C488 1.358 . S
C485 H491 0.930 . S
C486 C484 1.353 . S
C486 C489 1.348 . S
C486 H524 0.929 . S
N487 Li442 1.990 . S
N487 C484 1.314 . S
N487 C485 1.279 . S
C488 C485 1.358 . S
C488 C489 1.356 . S
C488 H525 0.930 . S
C489 C486 1.348 . S
C489 C488 1.356 . S
H490 C484 0.930 . S
H491 C485 0.930 . S
C492 N493 1.314 1_545 S
C492 C494 1.353 . S
C492 H498 0.930 . S
N493 Li443 1.990 . S
N493 C492 1.314 1_565 S
N493 C496 1.279 . S
C494 C492 1.353 . S
C494 C497 1.348 . S
C494 H526 0.929 . S
C495 C496 1.358 1_545 S
C495 C497 1.356 . S
C495 H527 0.930 . S
C496 N493 1.279 . S
C496 C495 1.358 1_565 S
C496 H499 0.930 . S
C497 C494 1.348 . S
C497 C495 1.356 . S
H498 C492 0.930 . S
H499 C496 0.930 . S
O500 Li440 1.956 . S
O500 Li441 1.970 . S
O500 Li442 1.961 . S
O500 C444 1.325 . S
O501 Li440 1.970 . S
O501 Li441 1.956 . S
O501 Li443 1.961 . S
O501 C450 1.325 . S
O502 Li440 1.961 . S
O502 Li442 1.956 . S
O502 Li443 1.970 . S
O502 C472 1.325 . S
O503 Li441 1.961 . S
O503 Li442 1.970 . S
O503 Li443 1.956 . S
O503 C478 1.325 . S
H504 C446 0.929 . S
H505 C447 0.930 . S
H506 C448 0.930 . S
H507 C449 0.930 . S
H508 C451 0.930 . S
H509 C453 0.929 . S
H510 C454 0.930 . S
H511 C455 0.930 . S
H512 C458 0.930 . S
H513 C461 0.929 . S
H514 C466 0.929 . S
H515 C467 0.930 . S
H516 C474 0.929 . S
H517 C475 0.930 . S
H518 C476 0.930 . S
H519 C477 0.930 . S
H520 C479 0.929 . S
H521 C480 0.930 . S
H522 C481 0.930 . S
H523 C482 0.930 . S
H524 C486 0.929 . S
H525 C488 0.930 . S
H526 C494 0.929 . S
H527 C495 0.930 . S
Li528 N545 1.990 . S
Li528 O588 1.956 . S
Li528 O589 1.970 . S
Li528 O590 1.961 . S
Li529 N553 1.990 . S
Li529 O588 1.970 . S
Li529 O589 1.956 . S
Li529 O591 1.961 . S
Li530 N575 1.990 . S
Li530 O588 1.961 . S
Li530 O590 1.956 . S
Li530 O591 1.970 . S
Li531 N581 1.990 . S
Li531 O589 1.961 . S
Li531 O590 1.970 . S
Li531 O591 1.956 . S
C532 C534 1.348 . S
C532 C535 1.356 . S
C532 O588 1.325 . S
N533 C536 1.314 . S
N533 C537 1.279 . S
C534 C532 1.348 . S
C534 C536 1.353 . S
C534 H592 0.929 . S
C535 C532 1.356 . S
C535 C537 1.358 . S
C535 H593 0.930 . S
C536 N533 1.314 . S
C536 C534 1.353 . S
C536 H594 0.930 . S
C537 N533 1.279 . S
C537 C535 1.358 . S
C537 H595 0.930 . S
C538 C541 1.348 . S
C538 C542 1.356 . S
C538 O589 1.325 . S
C539 N540 1.279 . S
C539 C542 1.358 . S
C539 H596 0.930 . S
N540 C539 1.279 . S
N540 C543 1.314 . S
C541 C538 1.348 . S
C541 C543 1.353 . S
C541 H597 0.929 . S
C542 C538 1.356 . S
C542 C539 1.358 . S
C542 H598 0.930 . S
C543 N540 1.314 . S
C543 C541 1.353 . S
C543 H599 0.930 . S
C544 N545 1.314 . S
C544 C549 1.353 . S
C544 H550 0.930 . S
N545 Li528 1.990 . S
N545 C544 1.314 . S
N545 C547 1.279 . S
C546 C547 1.358 . S
C546 C548 1.356 . S
C546 H600 0.930 . S
C547 N545 1.279 . S
C547 C546 1.358 . S
C547 H551 0.930 . S
C548 C546 1.356 . S
C548 C549 1.348 . S
C549 C544 1.353 . S
C549 C548 1.348 . S
C549 H601 0.929 . S
H550 C544 0.930 . S
H551 C547 0.930 . S
C552 N553 1.314 . S
C552 C554 1.353 . S
C552 H558 0.930 . S
N553 Li529 1.990 . S
N553 C552 1.314 . S
N553 C556 1.279 . S
C554 C552 1.353 . S
C554 C557 1.348 . S
C554 H602 0.929 . S
C555 C556 1.358 . S
C555 C557 1.356 . S
C555 H603 0.930 . S
C556 N553 1.279 . S
C556 C555 1.358 . S
C556 H559 0.930 . S
C557 C554 1.348 . S
C557 C555 1.356 . S
H558 C552 0.930 . S
H559 C556 0.930 . S
C560 C562 1.348 . S
C560 C563 1.356 . S
C560 O590 1.325 . S
N561 C564 1.314 . S
N561 C565 1.279 . S
C562 C560 1.348 . S
C562 C564 1.353 . S
C562 H604 0.929 . S
C563 C560 1.356 . S
C563 C565 1.358 . S
C563 H605 0.930 . S
C564 N561 1.314 . S
C564 C562 1.353 . S
C564 H606 0.930 . S
C565 N561 1.279 . S
C565 C563 1.358 . S
C565 H607 0.930 . S
C566 C567 1.348 . S
C566 C568 1.356 . S
C566 O591 1.325 . S
C567 C566 1.348 . S
C567 C569 1.353 . S
C567 H608 0.929 . S
C568 C566 1.356 . S
C568 C570 1.358 . S
C568 H609 0.930 . S
C569 C567 1.353 . S
C569 N571 1.314 . S
C569 H610 0.930 . S
C570 C568 1.358 . S
C570 N571 1.279 . S
C570 H611 0.930 . S
N571 C569 1.314 . S
N571 C570 1.279 . S
C572 C574 1.353 . S
C572 N575 1.314 . S
C572 H578 0.930 . S
C573 N575 1.279 . S
C573 C576 1.358 . S
C573 H579 0.930 . S
C574 C572 1.353 . S
C574 C577 1.348 . S
C574 H612 0.929 . S
N575 Li530 1.990 . S
N575 C572 1.314 . S
N575 C573 1.279 . S
C576 C573 1.358 . S
C576 C577 1.356 . S
C576 H613 0.930 . S
C577 C574 1.348 . S
C577 C576 1.356 . S
H578 C572 0.930 . S
H579 C573 0.930 . S
C580 N581 1.314 . S
C580 C582 1.353 . S
C580 H586 0.930 . S
N581 Li531 1.990 . S
N581 C580 1.314 . S
N581 C584 1.279 . S
C582 C580 1.353 . S
C582 C585 1.348 . S
C582 H614 0.929 . S
C583 C584 1.358 . S
C583 C585 1.356 . S
C583 H615 0.930 . S
C584 N581 1.279 . S
C584 C583 1.358 . S
C584 H587 0.930 . S
C585 C582 1.348 . S
C585 C583 1.356 . S
H586 C580 0.930 . S
H587 C584 0.930 . S
O588 Li528 1.956 . S
O588 Li529 1.970 . S
O588 Li530 1.961 . S
O588 C532 1.325 . S
O589 Li528 1.970 . S
O589 Li529 1.956 . S
O589 Li531 1.961 . S
O589 C538 1.325 . S
O590 Li528 1.961 . S
O590 Li530 1.956 . S
O590 Li531 1.970 . S
O590 C560 1.325 . S
O591 Li529 1.961 . S
O591 Li530 1.970 . S
O591 Li531 1.956 . S
O591 C566 1.325 . S
H592 C534 0.929 . S
H593 C535 0.930 . S
H594 C536 0.930 . S
H595 C537 0.930 . S
H596 C539 0.930 . S
H597 C541 0.929 . S
H598 C542 0.930 . S
H599 C543 0.930 . S
H600 C546 0.930 . S
H601 C549 0.929 . S
H602 C554 0.929 . S
H603 C555 0.930 . S
H604 C562 0.929 . S
H605 C563 0.930 . S
H606 C564 0.930 . S
H607 C565 0.930 . S
H608 C567 0.929 . S
H609 C568 0.930 . S
H610 C569 0.930 . S
H611 C570 0.930 . S
H612 C574 0.929 . S
H613 C576 0.930 . S
H614 C582 0.929 . S
H615 C583 0.930 . S
Li616 N633 1.990 . S
Li616 O676 1.956 . S
Li616 O677 1.970 . S
Li616 O678 1.961 . S
Li617 N641 1.990 . S
Li617 O676 1.970 . S
Li617 O677 1.956 . S
Li617 O679 1.961 . S
Li618 N663 1.990 . S
Li618 O676 1.961 . S
Li618 O678 1.956 . S
Li618 O679 1.970 . S
Li619 N669 1.990 . S
Li619 O677 1.961 . S
Li619 O678 1.970 . S
Li619 O679 1.956 . S
C620 C622 1.348 1_556 S
C620 C623 1.356 1_556 S
C620 O676 1.325 . S
N621 C624 1.314 . S
N621 C625 1.279 . S
C622 C620 1.348 1_554 S
C622 C624 1.353 . S
C622 H680 0.929 . S
C623 C620 1.356 1_554 S
C623 C625 1.358 . S
C623 H681 0.930 . S
C624 N621 1.314 . S
C624 C622 1.353 . S
C624 H682 0.930 . S
C625 N621 1.279 . S
C625 C623 1.358 . S
C625 H683 0.930 . S
C626 C629 1.348 . S
C626 C630 1.356 . S
C626 O677 1.325 . S
C627 N628 1.279 . S
C627 C630 1.358 . S
C627 H684 0.930 . S
N628 C627 1.279 . S
N628 C631 1.314 . S
C629 C626 1.348 . S
C629 C631 1.353 . S
C629 H685 0.929 . S
C630 C626 1.356 . S
C630 C627 1.358 . S
C630 H686 0.930 . S
C631 N628 1.314 . S
C631 C629 1.353 . S
C631 H687 0.930 . S
C632 N633 1.314 . S
C632 C637 1.353 . S
C632 H638 0.930 . S
N633 Li616 1.990 . S
N633 C632 1.314 . S
N633 C635 1.279 1_556 S
C634 C635 1.358 . S
C634 C636 1.356 . S
C634 H688 0.930 . S
C635 N633 1.279 1_554 S
C635 C634 1.358 . S
C635 H639 0.930 . S
C636 C634 1.356 . S
C636 C637 1.348 1_554 S
C637 C632 1.353 . S
C637 C636 1.348 1_556 S
C637 H689 0.929 . S
H638 C632 0.930 . S
H639 C635 0.930 . S
C640 N641 1.314 1_655 S
C640 C642 1.353 . S
C640 H646 0.930 . S
N641 Li617 1.990 . S
N641 C640 1.314 1_455 S
N641 C644 1.279 . S
C642 C640 1.353 . S
C642 C645 1.348 . S
C642 H690 0.929 . S
C643 C644 1.358 1_655 S
C643 C645 1.356 . S
C643 H691 0.930 . S
C644 N641 1.279 . S
C644 C643 1.358 1_455 S
C644 H647 0.930 . S
C645 C642 1.348 . S
C645 C643 1.356 . S
H646 C640 0.930 . S
H647 C644 0.930 . S
C648 C650 1.348 . S
C648 C651 1.356 . S
C648 O678 1.325 . S
N649 C652 1.314 . S
N649 C653 1.279 . S
C650 C648 1.348 . S
C650 C652 1.353 . S
C650 H692 0.929 . S
C651 C648 1.356 . S
C651 C653 1.358 . S
C651 H693 0.930 . S
C652 N649 1.314 . S
C652 C650 1.353 . S
C652 H694 0.930 . S
C653 N649 1.279 . S
C653 C651 1.358 . S
C653 H695 0.930 . S
C654 C655 1.348 . S
C654 C656 1.356 . S
C654 O679 1.325 . S
C655 C654 1.348 . S
C655 C657 1.353 . S
C655 H696 0.929 . S
C656 C654 1.356 . S
C656 C658 1.358 1_455 S
C656 H697 0.930 . S
C657 C655 1.353 . S
C657 N659 1.314 1_455 S
C657 H698 0.930 . S
C658 C656 1.358 1_655 S
C658 N659 1.279 . S
C658 H699 0.930 . S
N659 C657 1.314 1_655 S
N659 C658 1.279 . S
C660 C662 1.353 . S
C660 N663 1.314 . S
C660 H666 0.930 . S
C661 N663 1.279 . S
C661 C664 1.358 . S
C661 H667 0.930 . S
C662 C660 1.353 . S
C662 C665 1.348 . S
C662 H700 0.929 . S
N663 Li618 1.990 . S
N663 C660 1.314 . S
N663 C661 1.279 . S
C664 C661 1.358 . S
C664 C665 1.356 . S
C664 H701 0.930 . S
C665 C662 1.348 . S
C665 C664 1.356 . S
H666 C660 0.930 . S
H667 C661 0.930 . S
C668 N669 1.314 . S
C668 C670 1.353 . S
C668 H674 0.930 . S
N669 Li619 1.990 . S
N669 C668 1.314 . S
N669 C672 1.279 . S
C670 C668 1.353 . S
C670 C673 1.348 . S
C670 H702 0.929 . S
C671 C672 1.358 . S
C671 C673 1.356 . S
C671 H703 0.930 . S
C672 N669 1.279 . S
C672 C671 1.358 . S
C672 H675 0.930 . S
C673 C670 1.348 . S
C673 C671 1.356 . S
H674 C668 0.930 . S
H675 C672 0.930 . S
O676 Li616 1.956 . S
O676 Li617 1.970 . S
O676 Li618 1.961 . S
O676 C620 1.325 . S
O677 Li616 1.970 . S
O677 Li617 1.956 . S
O677 Li619 1.961 . S
O677 C626 1.325 . S
O678 Li616 1.961 . S
O678 Li618 1.956 . S
O678 Li619 1.970 . S
O678 C648 1.325 . S
O679 Li617 1.961 . S
O679 Li618 1.970 . S
O679 Li619 1.956 . S
O679 C654 1.325 . S
H680 C622 0.929 . S
H681 C623 0.930 . S
H682 C624 0.930 . S
H683 C625 0.930 . S
H684 C627 0.930 . S
H685 C629 0.929 . S
H686 C630 0.930 . S
H687 C631 0.930 . S
H688 C634 0.930 . S
H689 C637 0.929 . S
H690 C642 0.929 . S
H691 C643 0.930 . S
H692 C650 0.929 . S
H693 C651 0.930 . S
H694 C652 0.930 . S
H695 C653 0.930 . S
H696 C655 0.929 . S
H697 C656 0.930 . S
H698 C657 0.930 . S
H699 C658 0.930 . S
H700 C662 0.929 . S
H701 C664 0.930 . S
H702 C670 0.929 . S
H703 C671 0.930 . S
Li704 N721 1.990 . S
Li704 O764 1.956 . S
Li704 O765 1.970 . S
Li704 O766 1.961 . S
Li705 N729 1.990 . S
Li705 O764 1.970 . S
Li705 O765 1.956 . S
Li705 O767 1.961 . S
Li706 N751 1.990 . S
Li706 O764 1.961 . S
Li706 O766 1.956 . S
Li706 O767 1.970 . S
Li707 N757 1.990 . S
Li707 O765 1.961 . S
Li707 O766 1.970 . S
Li707 O767 1.956 . S
C708 C710 1.348 . S
C708 C711 1.356 . S
C708 O764 1.325 . S
N709 C712 1.314 . S
N709 C713 1.279 . S
C710 C708 1.348 . S
C710 C712 1.353 . S
C710 H768 0.929 . S
C711 C708 1.356 . S
C711 C713 1.358 . S
C711 H769 0.930 . S
C712 N709 1.314 . S
C712 C710 1.353 . S
C712 H770 0.930 . S
C713 N709 1.279 . S
C713 C711 1.358 . S
C713 H771 0.930 . S
C714 C717 1.348 . S
C714 C718 1.356 . S
C714 O765 1.325 . S
C715 N716 1.279 . S
C715 C718 1.358 . S
C715 H772 0.930 . S
N716 C715 1.279 . S
N716 C719 1.314 . S
C717 C714 1.348 . S
C717 C719 1.353 . S
C717 H773 0.929 . S
C718 C714 1.356 . S
C718 C715 1.358 . S
C718 H774 0.930 . S
C719 N716 1.314 . S
C719 C717 1.353 . S
C719 H775 0.930 . S
C720 N721 1.314 1_565 S
C720 C725 1.353 . S
C720 H726 0.930 . S
N721 Li704 1.990 . S
N721 C720 1.314 1_545 S
N721 C723 1.279 . S
C722 C723 1.358 1_565 S
C722 C724 1.356 . S
C722 H776 0.930 . S
C723 N721 1.279 . S
C723 C722 1.358 1_545 S
C723 H727 0.930 . S
C724 C722 1.356 . S
C724 C725 1.348 . S
C725 C720 1.353 . S
C725 C724 1.348 . S
C725 H777 0.929 . S
H726 C720 0.930 . S
H727 C723 0.930 . S
C728 N729 1.314 . S
C728 C730 1.353 . S
C728 H734 0.930 . S
N729 Li705 1.990 . S
N729 C728 1.314 . S
N729 C732 1.279 . S
C730 C728 1.353 . S
C730 C733 1.348 . S
C730 H778 0.929 . S
C731 C732 1.358 . S
C731 C733 1.356 . S
C731 H779 0.930 . S
C732 N729 1.279 . S
C732 C731 1.358 . S
C732 H735 0.930 . S
C733 C730 1.348 . S
C733 C731 1.356 . S
H734 C728 0.930 . S
H735 C732 0.930 . S
C736 C738 1.348 . S
C736 C739 1.356 . S
C736 O766 1.325 . S
N737 C740 1.314 1_565 S
N737 C741 1.279 . S
C738 C736 1.348 . S
C738 C740 1.353 . S
C738 H780 0.929 . S
C739 C736 1.356 . S
C739 C741 1.358 1_545 S
C739 H781 0.930 . S
C740 N737 1.314 1_545 S
C740 C738 1.353 . S
C740 H782 0.930 . S
C741 N737 1.279 . S
C741 C739 1.358 1_565 S
C741 H783 0.930 . S
C742 C743 1.348 . S
C742 C744 1.356 . S
C742 O767 1.325 . S
C743 C742 1.348 . S
C743 C745 1.353 . S
C743 H784 0.929 . S
C744 C742 1.356 . S
C744 C746 1.358 . S
C744 H785 0.930 . S
C745 C743 1.353 . S
C745 N747 1.314 . S
C745 H786 0.930 . S
C746 C744 1.358 . S
C746 N747 1.279 . S
C746 H787 0.930 . S
N747 C745 1.314 . S
N747 C746 1.279 . S
C748 C750 1.353 . S
C748 N751 1.314 . S
C748 H754 0.930 . S
C749 N751 1.279 . S
C749 C752 1.358 . S
C749 H755 0.930 . S
C750 C748 1.353 . S
C750 C753 1.348 . S
C750 H788 0.929 . S
N751 Li706 1.990 . S
N751 C748 1.314 . S
N751 C749 1.279 . S
C752 C749 1.358 . S
C752 C753 1.356 . S
C752 H789 0.930 . S
C753 C750 1.348 . S
C753 C752 1.356 . S
H754 C748 0.930 . S
H755 C749 0.930 . S
C756 N757 1.314 . S
C756 C758 1.353 . S
C756 H762 0.930 . S
N757 Li707 1.990 . S
N757 C756 1.314 . S
N757 C760 1.279 . S
C758 C756 1.353 . S
C758 C761 1.348 . S
C758 H790 0.929 . S
C759 C760 1.358 . S
C759 C761 1.356 . S
C759 H791 0.930 . S
C760 N757 1.279 . S
C760 C759 1.358 . S
C760 H763 0.930 . S
C761 C758 1.348 . S
C761 C759 1.356 . S
H762 C756 0.930 . S
H763 C760 0.930 . S
O764 Li704 1.956 . S
O764 Li705 1.970 . S
O764 Li706 1.961 . S
O764 C708 1.325 . S
O765 Li704 1.970 . S
O765 Li705 1.956 . S
O765 Li707 1.961 . S
O765 C714 1.325 . S
O766 Li704 1.961 . S
O766 Li706 1.956 . S
O766 Li707 1.970 . S
O766 C736 1.325 . S
O767 Li705 1.961 . S
O767 Li706 1.970 . S
O767 Li707 1.956 . S
O767 C742 1.325 . S
H768 C710 0.929 . S
H769 C711 0.930 . S
H770 C712 0.930 . S
H771 C713 0.930 . S
H772 C715 0.930 . S
H773 C717 0.929 . S
H774 C718 0.930 . S
H775 C719 0.930 . S
H776 C722 0.930 . S
H777 C725 0.929 . S
H778 C730 0.929 . S
H779 C731 0.930 . S
H780 C738 0.929 . S
H781 C739 0.930 . S
H782 C740 0.930 . S
H783 C741 0.930 . S
H784 C743 0.929 . S
H785 C744 0.930 . S
H786 C745 0.930 . S
H787 C746 0.930 . S
H788 C750 0.929 . S
H789 C752 0.930 . S
H790 C758 0.929 . S
H791 C759 0.930 . S
Li792 N809 1.990 . S
Li792 O852 1.956 . S
Li792 O853 1.970 . S
Li792 O854 1.961 . S
Li793 N817 1.990 . S
Li793 O852 1.970 . S
Li793 O853 1.956 . S
Li793 O855 1.961 . S
Li794 N839 1.990 . S
Li794 O852 1.961 . S
Li794 O854 1.956 . S
Li794 O855 1.970 . S
Li795 N845 1.990 . S
Li795 O853 1.961 . S
Li795 O854 1.970 . S
Li795 O855 1.956 . S
C796 C798 1.348 . S
C796 C799 1.356 . S
C796 O852 1.325 . S
N797 C800 1.314 . S
N797 C801 1.279 . S
C798 C796 1.348 . S
C798 C800 1.353 . S
C798 H856 0.929 . S
C799 C796 1.356 . S
C799 C801 1.358 . S
C799 H857 0.930 . S
C800 N797 1.314 . S
C800 C798 1.353 . S
C800 H858 0.930 . S
C801 N797 1.279 . S
C801 C799 1.358 . S
C801 H859 0.930 . S
C802 C805 1.348 . S
C802 C806 1.356 . S
C802 O853 1.325 . S
C803 N804 1.279 . S
C803 C806 1.358 . S
C803 H860 0.930 . S
N804 C803 1.279 . S
N804 C807 1.314 . S
C805 C802 1.348 . S
C805 C807 1.353 . S
C805 H861 0.929 . S
C806 C802 1.356 . S
C806 C803 1.358 . S
C806 H862 0.930 . S
C807 N804 1.314 . S
C807 C805 1.353 . S
C807 H863 0.930 . S
C808 N809 1.314 . S
C808 C813 1.353 . S
C808 H814 0.930 . S
N809 Li792 1.990 . S
N809 C808 1.314 . S
N809 C811 1.279 . S
C810 C811 1.358 . S
C810 C812 1.356 . S
C810 H864 0.930 . S
C811 N809 1.279 . S
C811 C810 1.358 . S
C811 H815 0.930 . S
C812 C810 1.356 . S
C812 C813 1.348 . S
C813 C808 1.353 . S
C813 C812 1.348 . S
C813 H865 0.929 . S
H814 C808 0.930 . S
H815 C811 0.930 . S
C816 N817 1.314 . S
C816 C818 1.353 . S
C816 H822 0.930 . S
N817 Li793 1.990 . S
N817 C816 1.314 . S
N817 C820 1.279 . S
C818 C816 1.353 . S
C818 C821 1.348 . S
C818 H866 0.929 . S
C819 C820 1.358 . S
C819 C821 1.356 . S
C819 H867 0.930 . S
C820 N817 1.279 . S
C820 C819 1.358 . S
C820 H823 0.930 . S
C821 C818 1.348 . S
C821 C819 1.356 . S
H822 C816 0.930 . S
H823 C820 0.930 . S
C824 C826 1.348 . S
C824 C827 1.356 . S
C824 O854 1.325 . S
N825 C828 1.314 . S
N825 C829 1.279 . S
C826 C824 1.348 . S
C826 C828 1.353 . S
C826 H868 0.929 . S
C827 C824 1.356 . S
C827 C829 1.358 . S
C827 H869 0.930 . S
C828 N825 1.314 . S
C828 C826 1.353 . S
C828 H870 0.930 . S
C829 N825 1.279 . S
C829 C827 1.358 . S
C829 H871 0.930 . S
C830 C831 1.348 . S
C830 C832 1.356 . S
C830 O855 1.325 . S
C831 C830 1.348 . S
C831 C833 1.353 . S
C831 H872 0.929 . S
C832 C830 1.356 . S
C832 C834 1.358 . S
C832 H873 0.930 . S
C833 C831 1.353 . S
C833 N835 1.314 . S
C833 H874 0.930 . S
C834 C832 1.358 . S
C834 N835 1.279 . S
C834 H875 0.930 . S
N835 C833 1.314 . S
N835 C834 1.279 . S
C836 C838 1.353 . S
C836 N839 1.314 . S
C836 H842 0.930 . S
C837 N839 1.279 . S
C837 C840 1.358 . S
C837 H843 0.930 . S
C838 C836 1.353 . S
C838 C841 1.348 . S
C838 H876 0.929 . S
N839 Li794 1.990 . S
N839 C836 1.314 . S
N839 C837 1.279 . S
C840 C837 1.358 . S
C840 C841 1.356 . S
C840 H877 0.930 . S
C841 C838 1.348 . S
C841 C840 1.356 . S
H842 C836 0.930 . S
H843 C837 0.930 . S
C844 N845 1.314 . S
C844 C846 1.353 . S
C844 H850 0.930 . S
N845 Li795 1.990 . S
N845 C844 1.314 . S
N845 C848 1.279 . S
C846 C844 1.353 . S
C846 C849 1.348 . S
C846 H878 0.929 . S
C847 C848 1.358 . S
C847 C849 1.356 . S
C847 H879 0.930 . S
C848 N845 1.279 . S
C848 C847 1.358 . S
C848 H851 0.930 . S
C849 C846 1.348 . S
C849 C847 1.356 . S
H850 C844 0.930 . S
H851 C848 0.930 . S
O852 Li792 1.956 . S
O852 Li793 1.970 . S
O852 Li794 1.961 . S
O852 C796 1.325 . S
O853 Li792 1.970 . S
O853 Li793 1.956 . S
O853 Li795 1.961 . S
O853 C802 1.325 . S
O854 Li792 1.961 . S
O854 Li794 1.956 . S
O854 Li795 1.970 . S
O854 C824 1.325 . S
O855 Li793 1.961 . S
O855 Li794 1.970 . S
O855 Li795 1.956 . S
O855 C830 1.325 . S
H856 C798 0.929 . S
H857 C799 0.930 . S
H858 C800 0.930 . S
H859 C801 0.930 . S
H860 C803 0.930 . S
H861 C805 0.929 . S
H862 C806 0.930 . S
H863 C807 0.930 . S
H864 C810 0.930 . S
H865 C813 0.929 . S
H866 C818 0.929 . S
H867 C819 0.930 . S
H868 C826 0.929 . S
H869 C827 0.930 . S
H870 C828 0.930 . S
H871 C829 0.930 . S
H872 C831 0.929 . S
H873 C832 0.930 . S
H874 C833 0.930 . S
H875 C834 0.930 . S
H876 C838 0.929 . S
H877 C840 0.930 . S
H878 C846 0.929 . S
H879 C847 0.930 . S
Li880 N897 1.990 . S
Li880 O940 1.956 . S
Li880 O941 1.970 . S
Li880 O942 1.961 . S
Li881 N905 1.990 . S
Li881 O940 1.970 . S
Li881 O941 1.956 . S
Li881 O943 1.961 . S
Li882 N927 1.990 . S
Li882 O940 1.961 . S
Li882 O942 1.956 . S
Li882 O943 1.970 . S
Li883 N933 1.990 . S
Li883 O941 1.961 . S
Li883 O942 1.970 . S
Li883 O943 1.956 . S
C884 C886 1.348 1_556 S
C884 C887 1.356 1_556 S
C884 O940 1.325 . S
N885 C888 1.314 . S
N885 C889 1.279 . S
C886 C884 1.348 1_554 S
C886 C888 1.353 . S
C886 H944 0.929 . S
C887 C884 1.356 1_554 S
C887 C889 1.358 . S
C887 H945 0.930 . S
C888 N885 1.314 . S
C888 C886 1.353 . S
C888 H946 0.930 . S
C889 N885 1.279 . S
C889 C887 1.358 . S
C889 H947 0.930 . S
C890 C893 1.348 . S
C890 C894 1.356 . S
C890 O941 1.325 . S
C891 N892 1.279 . S
C891 C894 1.358 . S
C891 H948 0.930 . S
N892 C891 1.279 . S
N892 C895 1.314 . S
C893 C890 1.348 . S
C893 C895 1.353 . S
C893 H949 0.929 . S
C894 C890 1.356 . S
C894 C891 1.358 . S
C894 H950 0.930 . S
C895 N892 1.314 . S
C895 C893 1.353 . S
C895 H951 0.930 . S
C896 N897 1.314 . S
C896 C901 1.353 . S
C896 H902 0.930 . S
N897 Li880 1.990 . S
N897 C896 1.314 . S
N897 C899 1.279 1_556 S
C898 C899 1.358 . S
C898 C900 1.356 . S
C898 H952 0.930 . S
C899 N897 1.279 1_554 S
C899 C898 1.358 . S
C899 H903 0.930 . S
C900 C898 1.356 . S
C900 C901 1.348 1_554 S
C901 C896 1.353 . S
C901 C900 1.348 1_556 S
C901 H953 0.929 . S
H902 C896 0.930 . S
H903 C899 0.930 . S
C904 N905 1.314 1_455 S
C904 C906 1.353 . S
C904 H910 0.930 . S
N905 Li881 1.990 . S
N905 C904 1.314 1_655 S
N905 C908 1.279 . S
C906 C904 1.353 . S
C906 C909 1.348 . S
C906 H954 0.929 . S
C907 C908 1.358 1_455 S
C907 C909 1.356 . S
C907 H955 0.930 . S
C908 N905 1.279 . S
C908 C907 1.358 1_655 S
C908 H911 0.930 . S
C909 C906 1.348 . S
C909 C907 1.356 . S
H910 C904 0.930 . S
H911 C908 0.930 . S
C912 C914 1.348 . S
C912 C915 1.356 . S
C912 O942 1.325 . S
N913 C916 1.314 . S
N913 C917 1.279 . S
C914 C912 1.348 . S
C914 C916 1.353 . S
C914 H956 0.929 . S
C915 C912 1.356 . S
C915 C917 1.358 . S
C915 H957 0.930 . S
C916 N913 1.314 . S
C916 C914 1.353 . S
C916 H958 0.930 . S
C917 N913 1.279 . S
C917 C915 1.358 . S
C917 H959 0.930 . S
C918 C919 1.348 . S
C918 C920 1.356 . S
C918 O943 1.325 . S
C919 C918 1.348 . S
C919 C921 1.353 . S
C919 H960 0.929 . S
C920 C918 1.356 . S
C920 C922 1.358 1_655 S
C920 H961 0.930 . S
C921 C919 1.353 . S
C921 N923 1.314 1_655 S
C921 H962 0.930 . S
C922 C920 1.358 1_455 S
C922 N923 1.279 . S
C922 H963 0.930 . S
N923 C921 1.314 1_455 S
N923 C922 1.279 . S
C924 C926 1.353 . S
C924 N927 1.314 . S
C924 H930 0.930 . S
C925 N927 1.279 . S
C925 C928 1.358 . S
C925 H931 0.930 . S
C926 C924 1.353 . S
C926 C929 1.348 . S
C926 H964 0.929 . S
N927 Li882 1.990 . S
N927 C924 1.314 . S
N927 C925 1.279 . S
C928 C925 1.358 . S
C928 C929 1.356 . S
C928 H965 0.930 . S
C929 C926 1.348 . S
C929 C928 1.356 . S
H930 C924 0.930 . S
H931 C925 0.930 . S
C932 N933 1.314 . S
C932 C934 1.353 . S
C932 H938 0.930 . S
N933 Li883 1.990 . S
N933 C932 1.314 . S
N933 C936 1.279 . S
C934 C932 1.353 . S
C934 C937 1.348 . S
C934 H966 0.929 . S
C935 C936 1.358 . S
C935 C937 1.356 . S
C935 H967 0.930 . S
C936 N933 1.279 . S
C936 C935 1.358 . S
C936 H939 0.930 . S
C937 C934 1.348 . S
C937 C935 1.356 . S
H938 C932 0.930 . S
H939 C936 0.930 . S
O940 Li880 1.956 . S
O940 Li881 1.970 . S
O940 Li882 1.961 . S
O940 C884 1.325 . S
O941 Li880 1.970 . S
O941 Li881 1.956 . S
O941 Li883 1.961 . S
O941 C890 1.325 . S
O942 Li880 1.961 . S
O942 Li882 1.956 . S
O942 Li883 1.970 . S
O942 C912 1.325 . S
O943 Li881 1.961 . S
O943 Li882 1.970 . S
O943 Li883 1.956 . S
O943 C918 1.325 . S
H944 C886 0.929 . S
H945 C887 0.930 . S
H946 C888 0.930 . S
H947 C889 0.930 . S
H948 C891 0.930 . S
H949 C893 0.929 . S
H950 C894 0.930 . S
H951 C895 0.930 . S
H952 C898 0.930 . S
H953 C901 0.929 . S
H954 C906 0.929 . S
H955 C907 0.930 . S
H956 C914 0.929 . S
H957 C915 0.930 . S
H958 C916 0.930 . S
H959 C917 0.930 . S
H960 C919 0.929 . S
H961 C920 0.930 . S
H962 C921 0.930 . S
H963 C922 0.930 . S
H964 C926 0.929 . S
H965 C928 0.930 . S
H966 C934 0.929 . S
H967 C935 0.930 . S
Li968 N985 1.990 . S
Li968 O1028 1.956 . S
Li968 O1029 1.970 . S
Li968 O1030 1.961 . S
Li969 N993 1.990 . S
Li969 O1028 1.970 . S
Li969 O1029 1.956 . S
Li969 O1031 1.961 . S
Li970 N1015 1.990 . S
Li970 O1028 1.961 . S
Li970 O1030 1.956 . S
Li970 O1031 1.970 . S
Li971 N1021 1.990 . S
Li971 O1029 1.961 . S
Li971 O1030 1.970 . S
Li971 O1031 1.956 . S
C972 C974 1.348 . S
C972 C975 1.356 . S
C972 O1028 1.325 . S
N973 C976 1.314 . S
N973 C977 1.279 . S
C974 C972 1.348 . S
C974 C976 1.353 . S
C974 H1032 0.929 . S
C975 C972 1.356 . S
C975 C977 1.358 . S
C975 H1033 0.930 . S
C976 N973 1.314 . S
C976 C974 1.353 . S
C976 H1034 0.930 . S
C977 N973 1.279 . S
C977 C975 1.358 . S
C977 H1035 0.930 . S
C978 C981 1.348 . S
C978 C982 1.356 . S
C978 O1029 1.325 . S
C979 N980 1.279 . S
C979 C982 1.358 . S
C979 H1036 0.930 . S
N980 C979 1.279 . S
N980 C983 1.314 . S
C981 C978 1.348 . S
C981 C983 1.353 . S
C981 H1037 0.929 . S
C982 C978 1.356 . S
C982 C979 1.358 . S
C982 H1038 0.930 . S
C983 N980 1.314 . S
C983 C981 1.353 . S
C983 H1039 0.930 . S
C984 N985 1.314 1_545 S
C984 C989 1.353 . S
C984 H990 0.930 . S
N985 Li968 1.990 . S
N985 C984 1.314 1_565 S
N985 C987 1.279 . S
C986 C987 1.358 1_545 S
C986 C988 1.356 . S
C986 H1040 0.930 . S
C987 N985 1.279 . S
C987 C986 1.358 1_565 S
C987 H991 0.930 . S
C988 C986 1.356 . S
C988 C989 1.348 . S
C989 C984 1.353 . S
C989 C988 1.348 . S
C989 H1041 0.929 . S
H990 C984 0.930 . S
H991 C987 0.930 . S
C992 N993 1.314 . S
C992 C994 1.353 . S
C992 H998 0.930 . S
N993 Li969 1.990 . S
N993 C992 1.314 . S
N993 C996 1.279 . S
C994 C992 1.353 . S
C994 C997 1.348 . S
C994 H1042 0.929 . S
C995 C996 1.358 . S
C995 C997 1.356 . S
C995 H1043 0.930 . S
C996 N993 1.279 . S
C996 C995 1.358 . S
C996 H999 0.930 . S
C997 C994 1.348 . S
C997 C995 1.356 . S
H998 C992 0.930 . S
H999 C996 0.930 . S
C1000 C1002 1.348 . S
C1000 C1003 1.356 . S
C1000 O1030 1.325 . S
N1001 C1004 1.314 1_545 S
N1001 C1005 1.279 . S
C1002 C1000 1.348 . S
C1002 C1004 1.353 . S
C1002 H1044 0.929 . S
C1003 C1000 1.356 . S
C1003 C1005 1.358 1_565 S
C1003 H1045 0.930 . S
C1004 N1001 1.314 1_565 S
C1004 C1002 1.353 . S
C1004 H1046 0.930 . S
C1005 N1001 1.279 . S
C1005 C1003 1.358 1_545 S
C1005 H1047 0.930 . S
C1006 C1007 1.348 . S
C1006 C1008 1.356 . S
C1006 O1031 1.325 . S
C1007 C1006 1.348 . S
C1007 C1009 1.353 . S
C1007 H1048 0.929 . S
C1008 C1006 1.356 . S
C1008 C1010 1.358 . S
C1008 H1049 0.930 . S
C1009 C1007 1.353 . S
C1009 N1011 1.314 . S
C1009 H1050 0.930 . S
C1010 C1008 1.358 . S
C1010 N1011 1.279 . S
C1010 H1051 0.930 . S
N1011 C1009 1.314 . S
N1011 C1010 1.279 . S
C1012 C1014 1.353 . S
C1012 N1015 1.314 . S
C1012 H1018 0.930 . S
C1013 N1015 1.279 . S
C1013 C1016 1.358 . S
C1013 H1019 0.930 . S
C1014 C1012 1.353 . S
C1014 C1017 1.348 . S
C1014 H1052 0.929 . S
N1015 Li970 1.990 . S
N1015 C1012 1.314 . S
N1015 C1013 1.279 . S
C1016 C1013 1.358 . S
C1016 C1017 1.356 . S
C1016 H1053 0.930 . S
C1017 C1014 1.348 . S
C1017 C1016 1.356 . S
H1018 C1012 0.930 . S
H1019 C1013 0.930 . S
C1020 N1021 1.314 . S
C1020 C1022 1.353 . S
C1020 H1026 0.930 . S
N1021 Li971 1.990 . S
N1021 C1020 1.314 . S
N1021 C1024 1.279 . S
C1022 C1020 1.353 . S
C1022 C1025 1.348 . S
C1022 H1054 0.929 . S
C1023 C1024 1.358 . S
C1023 C1025 1.356 . S
C1023 H1055 0.930 . S
C1024 N1021 1.279 . S
C1024 C1023 1.358 . S
C1024 H1027 0.930 . S
C1025 C1022 1.348 . S
C1025 C1023 1.356 . S
H1026 C1020 0.930 . S
H1027 C1024 0.930 . S
O1028 Li968 1.956 . S
O1028 Li969 1.970 . S
O1028 Li970 1.961 . S
O1028 C972 1.325 . S
O1029 Li968 1.970 . S
O1029 Li969 1.956 . S
O1029 Li971 1.961 . S
O1029 C978 1.325 . S
O1030 Li968 1.961 . S
O1030 Li970 1.956 . S
O1030 Li971 1.970 . S
O1030 C1000 1.325 . S
O1031 Li969 1.961 . S
O1031 Li970 1.970 . S
O1031 Li971 1.956 . S
O1031 C1006 1.325 . S
H1032 C974 0.929 . S
H1033 C975 0.930 . S
H1034 C976 0.930 . S
H1035 C977 0.930 . S
H1036 C979 0.930 . S
H1037 C981 0.929 . S
H1038 C982 0.930 . S
H1039 C983 0.930 . S
H1040 C986 0.930 . S
H1041 C989 0.929 . S
H1042 C994 0.929 . S
H1043 C995 0.930 . S
H1044 C1002 0.929 . S
H1045 C1003 0.930 . S
H1046 C1004 0.930 . S
H1047 C1005 0.930 . S
H1048 C1007 0.929 . S
H1049 C1008 0.930 . S
H1050 C1009 0.930 . S
H1051 C1010 0.930 . S
H1052 C1014 0.929 . S
H1053 C1016 0.930 . S
H1054 C1022 0.929 . S
H1055 C1023 0.930 . S
C1056 C1057 1.363 . S
C1056 C1062 1.379 . S
C1056 N1064 1.356 . S
C1057 C1056 1.363 . S
C1057 C1063 1.363 . S
C1058 C1059 1.363 . S
C1058 C1063 1.379 . S
C1058 N1065 1.356 1_554 S
C1059 C1058 1.363 . S
C1059 C1062 1.363 . S
N1060 C1062 1.356 . S
N1060 H1072 0.984 . S
N1060 H1073 0.985 . S
N1061 C1063 1.356 1_556 S
N1061 H1066 0.984 1_556 S
N1061 H1067 0.985 . S
C1062 C1056 1.379 . S
C1062 C1059 1.363 . S
C1062 N1060 1.356 . S
C1063 C1057 1.363 . S
C1063 C1058 1.379 . S
C1063 N1061 1.356 1_554 S
N1064 C1056 1.356 . S
N1064 H1070 0.984 . S
N1064 H1071 0.984 . S
N1065 C1058 1.356 1_556 S
N1065 H1068 0.984 1_556 S
N1065 H1069 0.985 . S
H1066 N1061 0.984 1_554 S
H1067 N1061 0.985 . S
H1068 N1065 0.984 1_554 S
H1069 N1065 0.985 . S
H1070 N1064 0.984 . S
H1071 N1064 0.984 . S
H1072 N1060 0.984 . S
H1073 N1060 0.985 . S
C1074 C1075 1.363 . S
C1074 C1080 1.379 1_455 S
C1074 N1082 1.356 . S
C1075 C1074 1.363 . S
C1075 C1081 1.363 . S
C1076 C1077 1.363 . S
C1076 C1081 1.379 1_655 S
C1076 N1083 1.356 . S
C1077 C1076 1.363 . S
C1077 C1080 1.363 . S
N1078 C1080 1.356 . S
N1078 H1090 0.984 . S
N1078 H1091 0.985 . S
N1079 C1081 1.356 . S
N1079 H1084 0.984 . S
N1079 H1085 0.985 . S
C1080 C1074 1.379 1_655 S
C1080 C1077 1.363 . S
C1080 N1078 1.356 . S
C1081 C1075 1.363 . S
C1081 C1076 1.379 1_455 S
C1081 N1079 1.356 . S
N1082 C1074 1.356 . S
N1082 H1088 0.984 . S
N1082 H1089 0.984 . S
N1083 C1076 1.356 . S
N1083 H1086 0.984 . S
N1083 H1087 0.985 . S
H1084 N1079 0.984 . S
H1085 N1079 0.985 . S
H1086 N1083 0.984 . S
H1087 N1083 0.985 . S
H1088 N1082 0.984 . S
H1089 N1082 0.984 . S
H1090 N1078 0.984 . S
H1091 N1078 0.985 . S
C1092 C1093 1.363 . S
C1092 C1098 1.379 1_565 S
C1092 N1100 1.356 . S
C1093 C1092 1.363 . S
C1093 C1099 1.363 . S
C1094 C1095 1.363 . S
C1094 C1099 1.379 1_545 S
C1094 N1101 1.356 . S
C1095 C1094 1.363 . S
C1095 C1098 1.363 . S
N1096 C1098 1.356 . S
N1096 H1108 0.984 . S
N1096 H1109 0.985 . S
N1097 C1099 1.356 . S
N1097 H1102 0.984 . S
N1097 H1103 0.985 . S
C1098 C1092 1.379 1_545 S
C1098 C1095 1.363 . S
C1098 N1096 1.356 . S
C1099 C1093 1.363 . S
C1099 C1094 1.379 1_565 S
C1099 N1097 1.356 . S
N1100 C1092 1.356 . S
N1100 H1106 0.984 . S
N1100 H1107 0.984 . S
N1101 C1094 1.356 . S
N1101 H1104 0.984 . S
N1101 H1105 0.985 . S
H1102 N1097 0.984 . S
H1103 N1097 0.985 . S
H1104 N1101 0.984 . S
H1105 N1101 0.985 . S
H1106 N1100 0.984 . S
H1107 N1100 0.984 . S
H1108 N1096 0.984 . S
H1109 N1096 0.985 . S
C1110 C1111 1.363 . S
C1110 C1116 1.379 . S
C1110 N1118 1.356 . S
C1111 C1110 1.363 . S
C1111 C1117 1.363 . S
C1112 C1113 1.363 . S
C1112 C1117 1.379 . S
C1112 N1119 1.356 . S
C1113 C1112 1.363 . S
C1113 C1116 1.363 . S
N1114 C1116 1.356 . S
N1114 H1126 0.984 . S
N1114 H1127 0.985 . S
N1115 C1117 1.356 . S
N1115 H1120 0.984 . S
N1115 H1121 0.985 . S
C1116 C1110 1.379 . S
C1116 C1113 1.363 . S
C1116 N1114 1.356 . S
C1117 C1111 1.363 . S
C1117 C1112 1.379 . S
C1117 N1115 1.356 . S
N1118 C1110 1.356 . S
N1118 H1124 0.984 . S
N1118 H1125 0.984 . S
N1119 C1112 1.356 . S
N1119 H1122 0.984 . S
N1119 H1123 0.985 . S
H1120 N1115 0.984 . S
H1121 N1115 0.985 . S
H1122 N1119 0.984 . S
H1123 N1119 0.985 . S
H1124 N1118 0.984 . S
H1125 N1118 0.984 . S
H1126 N1114 0.984 . S
H1127 N1114 0.985 . S
C1128 C1129 1.363 . S
C1128 C1134 1.379 1_655 S
C1128 N1136 1.356 1_556 S
C1129 C1128 1.363 . S
C1129 C1135 1.363 . S
C1130 C1131 1.363 . S
C1130 C1135 1.379 1_455 S
C1130 N1137 1.356 . S
C1131 C1130 1.363 . S
C1131 C1134 1.363 . S
N1132 C1134 1.356 1_554 S
N1132 H1144 0.984 . S
N1132 H1145 0.985 1_554 S
N1133 C1135 1.356 . S
N1133 H1138 0.984 . S
N1133 H1139 0.985 . S
C1134 C1128 1.379 1_455 S
C1134 C1131 1.363 . S
C1134 N1132 1.356 1_556 S
C1135 C1129 1.363 . S
C1135 C1130 1.379 1_655 S
C1135 N1133 1.356 . S
N1136 C1128 1.356 1_554 S
N1136 H1142 0.984 . S
N1136 H1143 0.984 1_554 S
N1137 C1130 1.356 . S
N1137 H1140 0.984 . S
N1137 H1141 0.985 . S
H1138 N1133 0.984 . S
H1139 N1133 0.985 . S
H1140 N1137 0.984 . S
H1141 N1137 0.985 . S
H1142 N1136 0.984 . S
H1143 N1136 0.984 1_556 S
H1144 N1132 0.984 . S
H1145 N1132 0.985 1_556 S
C1146 C1147 1.363 . S
C1146 C1152 1.379 1_545 S
C1146 N1154 1.356 . S
C1147 C1146 1.363 . S
C1147 C1153 1.363 . S
C1148 C1149 1.363 . S
C1148 C1153 1.379 1_565 S
C1148 N1155 1.356 . S
C1149 C1148 1.363 . S
C1149 C1152 1.363 . S
N1150 C1152 1.356 . S
N1150 H1162 0.984 . S
N1150 H1163 0.985 . S
N1151 C1153 1.356 . S
N1151 H1156 0.984 . S
N1151 H1157 0.985 . S
C1152 C1146 1.379 1_565 S
C1152 C1149 1.363 . S
C1152 N1150 1.356 . S
C1153 C1147 1.363 . S
C1153 C1148 1.379 1_545 S
C1153 N1151 1.356 . S
N1154 C1146 1.356 . S
N1154 H1160 0.984 . S
N1154 H1161 0.984 . S
N1155 C1148 1.356 . S
N1155 H1158 0.984 . S
N1155 H1159 0.985 . S
H1156 N1151 0.984 . S
H1157 N1151 0.985 . S
H1158 N1155 0.984 . S
H1159 N1155 0.985 . S
H1160 N1154 0.984 . S
H1161 N1154 0.984 . S
H1162 N1150 0.984 . S
H1163 N1150 0.985 . S
C1164 C1165 1.363 . S
C1164 C1170 1.379 . S
C1164 N1172 1.356 . S
C1165 C1164 1.363 . S
C1165 C1171 1.363 . S
C1166 C1167 1.363 . S
C1166 C1171 1.379 . S
C1166 N1173 1.356 . S
C1167 C1166 1.363 . S
C1167 C1170 1.363 . S
N1168 C1170 1.356 . S
N1168 H1180 0.984 . S
N1168 H1181 0.985 . S
N1169 C1171 1.356 . S
N1169 H1174 0.984 . S
N1169 H1175 0.985 . S
C1170 C1164 1.379 . S
C1170 C1167 1.363 . S
C1170 N1168 1.356 . S
C1171 C1165 1.363 . S
C1171 C1166 1.379 . S
C1171 N1169 1.356 . S
N1172 C1164 1.356 . S
N1172 H1178 0.984 . S
N1172 H1179 0.984 . S
N1173 C1166 1.356 . S
N1173 H1176 0.984 . S
N1173 H1177 0.985 . S
H1174 N1169 0.984 . S
H1175 N1169 0.985 . S
H1176 N1173 0.984 . S
H1177 N1173 0.985 . S
H1178 N1172 0.984 . S
H1179 N1172 0.984 . S
H1180 N1168 0.984 . S
H1181 N1168 0.985 . S
C1182 C1183 1.363 . S
C1182 C1188 1.379 . S
C1182 N1190 1.356 . S
C1183 C1182 1.363 . S
C1183 C1189 1.363 . S
C1184 C1185 1.363 . S
C1184 C1189 1.379 . S
C1184 N1191 1.356 . S
C1185 C1184 1.363 . S
C1185 C1188 1.363 . S
N1186 C1188 1.356 . S
N1186 H1198 0.984 . S
N1186 H1199 0.985 . S
N1187 C1189 1.356 . S
N1187 H1192 0.984 . S
N1187 H1193 0.985 . S
C1188 C1182 1.379 . S
C1188 C1185 1.363 . S
C1188 N1186 1.356 . S
C1189 C1183 1.363 . S
C1189 C1184 1.379 . S
C1189 N1187 1.356 . S
N1190 C1182 1.356 . S
N1190 H1196 0.984 . S
N1190 H1197 0.984 . S
N1191 C1184 1.356 . S
N1191 H1194 0.984 . S
N1191 H1195 0.985 . S
H1192 N1187 0.984 . S
H1193 N1187 0.985 . S
H1194 N1191 0.984 . S
H1195 N1191 0.985 . S
H1196 N1190 0.984 . S
H1197 N1190 0.984 . S
H1198 N1186 0.984 . S
H1199 N1186 0.985 . S
C1200 C1201 1.363 . S
C1200 C1206 1.379 . S
C1200 N1208 1.356 . S
C1201 C1200 1.363 . S
C1201 C1207 1.363 . S
C1202 C1203 1.363 . S
C1202 C1207 1.379 . S
C1202 N1209 1.356 . S
C1203 C1202 1.363 . S
C1203 C1206 1.363 . S
N1204 C1206 1.356 . S
N1204 H1216 0.984 . S
N1204 H1217 0.985 . S
N1205 C1207 1.356 . S
N1205 H1210 0.984 . S
N1205 H1211 0.985 . S
C1206 C1200 1.379 . S
C1206 C1203 1.363 . S
C1206 N1204 1.356 . S
C1207 C1201 1.363 . S
C1207 C1202 1.379 . S
C1207 N1205 1.356 . S
N1208 C1200 1.356 . S
N1208 H1214 0.984 . S
N1208 H1215 0.984 . S
N1209 C1202 1.356 . S
N1209 H1212 0.984 . S
N1209 H1213 0.985 . S
H1210 N1205 0.984 . S
H1211 N1205 0.985 . S
H1212 N1209 0.984 . S
H1213 N1209 0.985 . S
H1214 N1208 0.984 . S
H1215 N1208 0.984 . S
H1216 N1204 0.984 . S
H1217 N1204 0.985 . S
C1218 C1219 1.363 . S
C1218 C1224 1.379 . S
C1218 N1226 1.356 . S
C1219 C1218 1.363 . S
C1219 C1225 1.363 . S
C1220 C1221 1.363 . S
C1220 C1225 1.379 . S
C1220 N1227 1.356 . S
C1221 C1220 1.363 . S
C1221 C1224 1.363 . S
N1222 C1224 1.356 . S
N1222 H1234 0.984 . S
N1222 H1235 0.985 . S
N1223 C1225 1.356 . S
N1223 H1228 0.984 . S
N1223 H1229 0.985 . S
C1224 C1218 1.379 . S
C1224 C1221 1.363 . S
C1224 N1222 1.356 . S
C1225 C1219 1.363 . S
C1225 C1220 1.379 . S
C1225 N1223 1.356 . S
N1226 C1218 1.356 . S
N1226 H1232 0.984 . S
N1226 H1233 0.984 . S
N1227 C1220 1.356 . S
N1227 H1230 0.984 . S
N1227 H1231 0.985 . S
H1228 N1223 0.984 . S
H1229 N1223 0.985 . S
H1230 N1227 0.984 . S
H1231 N1227 0.985 . S
H1232 N1226 0.984 . S
H1233 N1226 0.984 . S
H1234 N1222 0.984 . S
H1235 N1222 0.985 . S
C1236 C1237 1.363 . S
C1236 C1242 1.379 . S
C1236 N1244 1.356 . S
C1237 C1236 1.363 . S
C1237 C1243 1.363 . S
C1238 C1239 1.363 . S
C1238 C1243 1.379 . S
C1238 N1245 1.356 . S
C1239 C1238 1.363 . S
C1239 C1242 1.363 . S
N1240 C1242 1.356 . S
N1240 H1252 0.984 . S
N1240 H1253 0.985 . S
N1241 C1243 1.356 . S
N1241 H1246 0.984 . S
N1241 H1247 0.985 . S
C1242 C1236 1.379 . S
C1242 C1239 1.363 . S
C1242 N1240 1.356 . S
C1243 C1237 1.363 . S
C1243 C1238 1.379 . S
C1243 N1241 1.356 . S
N1244 C1236 1.356 . S
N1244 H1250 0.984 . S
N1244 H1251 0.984 . S
N1245 C1238 1.356 . S
N1245 H1248 0.984 . S
N1245 H1249 0.985 . S
H1246 N1241 0.984 . S
H1247 N1241 0.985 . S
H1248 N1245 0.984 . S
H1249 N1245 0.985 . S
H1250 N1244 0.984 . S
H1251 N1244 0.984 . S
H1252 N1240 0.984 . S
H1253 N1240 0.985 . S
C1254 C1255 1.363 . S
C1254 C1260 1.379 . S
C1254 N1262 1.356 . S
C1255 C1254 1.363 . S
C1255 C1261 1.363 . S
C1256 C1257 1.363 . S
C1256 C1261 1.379 . S
C1256 N1263 1.356 . S
C1257 C1256 1.363 . S
C1257 C1260 1.363 . S
N1258 C1260 1.356 . S
N1258 H1270 0.984 . S
N1258 H1271 0.985 . S
N1259 C1261 1.356 . S
N1259 H1264 0.984 . S
N1259 H1265 0.985 . S
C1260 C1254 1.379 . S
C1260 C1257 1.363 . S
C1260 N1258 1.356 . S
C1261 C1255 1.363 . S
C1261 C1256 1.379 . S
C1261 N1259 1.356 . S
N1262 C1254 1.356 . S
N1262 H1268 0.984 . S
N1262 H1269 0.984 . S
N1263 C1256 1.356 . S
N1263 H1266 0.984 . S
N1263 H1267 0.985 . S
H1264 N1259 0.984 . S
H1265 N1259 0.985 . S
H1266 N1263 0.984 . S
H1267 N1263 0.985 . S
H1268 N1262 0.984 . S
H1269 N1262 0.984 . S
H1270 N1258 0.984 . S
H1271 N1258 0.985 . S
C1272 C1273 1.363 1_556 S
C1272 C1278 1.379 1_565 S
C1272 N1280 1.356 . S
C1273 C1272 1.363 1_554 S
C1273 C1279 1.363 . S
C1274 C1275 1.363 1_554 S
C1274 C1279 1.379 1_545 S
C1274 N1281 1.356 . S
C1275 C1274 1.363 1_556 S
C1275 C1278 1.363 . S
N1276 C1278 1.356 . S
N1276 H1288 0.984 . S
N1276 H1289 0.985 . S
N1277 C1279 1.356 . S
N1277 H1282 0.984 . S
N1277 H1283 0.985 . S
C1278 C1272 1.379 1_545 S
C1278 C1275 1.363 . S
C1278 N1276 1.356 . S
C1279 C1273 1.363 . S
C1279 C1274 1.379 1_565 S
C1279 N1277 1.356 . S
N1280 C1272 1.356 . S
N1280 H1286 0.984 . S
N1280 H1287 0.984 . S
N1281 C1274 1.356 . S
N1281 H1284 0.984 . S
N1281 H1285 0.985 . S
H1282 N1277 0.984 . S
H1283 N1277 0.985 . S
H1284 N1281 0.984 . S
H1285 N1281 0.985 . S
H1286 N1280 0.984 . S
H1287 N1280 0.984 . S
H1288 N1276 0.984 . S
H1289 N1276 0.985 . S
C1290 C1291 1.363 . S
C1290 C1296 1.379 . S
C1290 N1298 1.356 . S
C1291 C1290 1.363 . S
C1291 C1297 1.363 . S
C1292 C1293 1.363 . S
C1292 C1297 1.379 . S
C1292 N1299 1.356 . S
C1293 C1292 1.363 . S
C1293 C1296 1.363 . S
N1294 C1296 1.356 . S
N1294 H1306 0.984 . S
N1294 H1307 0.985 . S
N1295 C1297 1.356 . S
N1295 H1300 0.984 . S
N1295 H1301 0.985 . S
C1296 C1290 1.379 . S
C1296 C1293 1.363 . S
C1296 N1294 1.356 . S
C1297 C1291 1.363 . S
C1297 C1292 1.379 . S
C1297 N1295 1.356 . S
N1298 C1290 1.356 . S
N1298 H1304 0.984 . S
N1298 H1305 0.984 . S
N1299 C1292 1.356 . S
N1299 H1302 0.984 . S
N1299 H1303 0.985 . S
H1300 N1295 0.984 . S
H1301 N1295 0.985 . S
H1302 N1299 0.984 . S
H1303 N1299 0.985 . S
H1304 N1298 0.984 . S
H1305 N1298 0.984 . S
H1306 N1294 0.984 . S
H1307 N1294 0.985 . S
C1308 C1309 1.363 . S
C1308 C1314 1.379 1_655 S
C1308 N1316 1.356 . S
C1309 C1308 1.363 . S
C1309 C1315 1.363 . S
C1310 C1311 1.363 . S
C1310 C1315 1.379 1_455 S
C1310 N1317 1.356 . S
C1311 C1310 1.363 . S
C1311 C1314 1.363 . S
N1312 C1314 1.356 . S
N1312 H1324 0.984 . S
N1312 H1325 0.985 . S
N1313 C1315 1.356 . S
N1313 H1318 0.984 . S
N1313 H1319 0.985 . S
C1314 C1308 1.379 1_455 S
C1314 C1311 1.363 . S
C1314 N1312 1.356 . S
C1315 C1309 1.363 . S
C1315 C1310 1.379 1_655 S
C1315 N1313 1.356 . S
N1316 C1308 1.356 . S
N1316 H1322 0.984 . S
N1316 H1323 0.984 . S
N1317 C1310 1.356 . S
N1317 H1320 0.984 . S
N1317 H1321 0.985 . S
H1318 N1313 0.984 . S
H1319 N1313 0.985 . S
H1320 N1317 0.984 . S
H1321 N1317 0.985 . S
H1322 N1316 0.984 . S
H1323 N1316 0.984 . S
H1324 N1312 0.984 . S
H1325 N1312 0.985 . S
C1326 C1327 1.363 . S
C1326 C1332 1.379 1_565 S
C1326 N1334 1.356 . S
C1327 C1326 1.363 . S
C1327 C1333 1.363 1_556 S
C1328 C1329 1.363 . S
C1328 C1333 1.379 1_545 S
C1328 N1335 1.356 . S
C1329 C1328 1.363 . S
C1329 C1332 1.363 1_554 S
N1330 C1332 1.356 . S
N1330 H1342 0.984 . S
N1330 H1343 0.985 . S
N1331 C1333 1.356 . S
N1331 H1336 0.984 . S
N1331 H1337 0.985 . S
C1332 C1326 1.379 1_545 S
C1332 C1329 1.363 1_556 S
C1332 N1330 1.356 . S
C1333 C1327 1.363 1_554 S
C1333 C1328 1.379 1_565 S
C1333 N1331 1.356 . S
N1334 C1326 1.356 . S
N1334 H1340 0.984 . S
N1334 H1341 0.984 . S
N1335 C1328 1.356 . S
N1335 H1338 0.984 . S
N1335 H1339 0.985 . S
H1336 N1331 0.984 . S
H1337 N1331 0.985 . S
H1338 N1335 0.984 . S
H1339 N1335 0.985 . S
H1340 N1334 0.984 . S
H1341 N1334 0.984 . S
H1342 N1330 0.984 . S
H1343 N1330 0.985 . S
C1344 C1345 1.363 . S
C1344 C1350 1.379 . S
C1344 N1352 1.356 . S
C1345 C1344 1.363 . S
C1345 C1351 1.363 . S
C1346 C1347 1.363 . S
C1346 C1351 1.379 . S
C1346 N1353 1.356 . S
C1347 C1346 1.363 . S
C1347 C1350 1.363 . S
N1348 C1350 1.356 . S
N1348 H1360 0.984 . S
N1348 H1361 0.985 . S
N1349 C1351 1.356 . S
N1349 H1354 0.984 . S
N1349 H1355 0.985 . S
C1350 C1344 1.379 . S
C1350 C1347 1.363 . S
C1350 N1348 1.356 . S
C1351 C1345 1.363 . S
C1351 C1346 1.379 . S
C1351 N1349 1.356 . S
N1352 C1344 1.356 . S
N1352 H1358 0.984 . S
N1352 H1359 0.984 . S
N1353 C1346 1.356 . S
N1353 H1356 0.984 . S
N1353 H1357 0.985 . S
H1354 N1349 0.984 . S
H1355 N1349 0.985 . S
H1356 N1353 0.984 . S
H1357 N1353 0.985 . S
H1358 N1352 0.984 . S
H1359 N1352 0.984 . S
H1360 N1348 0.984 . S
H1361 N1348 0.985 . S
C1362 C1363 1.363 . S
C1362 C1368 1.379 1_455 S
C1362 N1370 1.356 . S
C1363 C1362 1.363 . S
C1363 C1369 1.363 . S
C1364 C1365 1.363 . S
C1364 C1369 1.379 1_655 S
C1364 N1371 1.356 . S
C1365 C1364 1.363 . S
C1365 C1368 1.363 . S
N1366 C1368 1.356 . S
N1366 H1378 0.984 . S
N1366 H1379 0.985 . S
N1367 C1369 1.356 . S
N1367 H1372 0.984 . S
N1367 H1373 0.985 . S
C1368 C1362 1.379 1_655 S
C1368 C1365 1.363 . S
C1368 N1366 1.356 . S
C1369 C1363 1.363 . S
C1369 C1364 1.379 1_455 S
C1369 N1367 1.356 . S
N1370 C1362 1.356 . S
N1370 H1376 0.984 . S
N1370 H1377 0.984 . S
N1371 C1364 1.356 . S
N1371 H1374 0.984 . S
N1371 H1375 0.985 . S
H1372 N1367 0.984 . S
H1373 N1367 0.985 . S
H1374 N1371 0.984 . S
H1375 N1371 0.985 . S
H1376 N1370 0.984 . S
H1377 N1370 0.984 . S
H1378 N1366 0.984 . S
H1379 N1366 0.985 . S
C1380 C1381 1.363 . S
C1380 C1386 1.364 1_556 S
C1380 N1388 1.356 . S
C1381 C1380 1.363 . S
C1381 C1387 1.378 . S
C1382 C1383 1.363 . S
C1382 C1387 1.364 1_554 S
C1382 N1389 1.356 . S
C1383 C1382 1.363 . S
C1383 C1386 1.378 . S
N1384 C1386 1.362 . S
N1384 H1396 0.984 1_554 S
N1384 H1397 0.985 . S
N1385 C1387 1.362 . S
N1385 H1390 0.984 . S
N1385 H1391 0.985 1_556 S
C1386 C1380 1.364 1_554 S
C1386 C1383 1.378 . S
C1386 N1384 1.362 . S
C1387 C1381 1.378 . S
C1387 C1382 1.364 1_556 S
C1387 N1385 1.362 . S
N1388 C1380 1.356 . S
N1388 H1394 0.984 . S
N1388 H1395 0.984 . S
N1389 C1382 1.356 . S
N1389 H1392 0.984 . S
N1389 H1393 0.985 . S
H1390 N1385 0.984 . S
H1391 N1385 0.985 1_554 S
H1392 N1389 0.984 . S
H1393 N1389 0.985 . S
H1394 N1388 0.984 . S
H1395 N1388 0.984 . S
H1396 N1384 0.984 1_556 S
H1397 N1384 0.985 . S
C1398 C1399 1.363 . S
C1398 C1404 1.379 . S
C1398 N1406 1.356 . S
C1399 C1398 1.363 . S
C1399 C1405 1.363 . S
C1400 C1401 1.363 . S
C1400 C1405 1.379 . S
C1400 N1407 1.356 . S
C1401 C1400 1.363 . S
C1401 C1404 1.363 . S
N1402 C1404 1.356 . S
N1402 H1414 0.984 . S
N1402 H1415 0.985 . S
N1403 C1405 1.356 . S
N1403 H1408 0.984 . S
N1403 H1409 0.985 . S
C1404 C1398 1.379 . S
C1404 C1401 1.363 . S
C1404 N1402 1.356 . S
C1405 C1399 1.363 . S
C1405 C1400 1.379 . S
C1405 N1403 1.356 . S
N1406 C1398 1.356 . S
N1406 H1412 0.984 . S
N1406 H1413 0.984 . S
N1407 C1400 1.356 . S
N1407 H1410 0.984 . S
N1407 H1411 0.985 . S
H1408 N1403 0.984 . S
H1409 N1403 0.985 . S
H1410 N1407 0.984 . S
H1411 N1407 0.985 . S
H1412 N1406 0.984 . S
H1413 N1406 0.984 . S
H1414 N1402 0.984 . S
H1415 N1402 0.985 . S
C1416 C1417 1.363 . S
C1416 C1422 1.379 . S
C1416 N1424 1.356 . S
C1417 C1416 1.363 . S
C1417 C1423 1.363 . S
C1418 C1419 1.363 . S
C1418 C1423 1.379 . S
C1418 N1425 1.356 . S
C1419 C1418 1.363 . S
C1419 C1422 1.363 . S
N1420 C1422 1.356 . S
N1420 H1432 0.984 . S
N1420 H1433 0.985 . S
N1421 C1423 1.356 . S
N1421 H1426 0.984 . S
N1421 H1427 0.985 . S
C1422 C1416 1.379 . S
C1422 C1419 1.363 . S
C1422 N1420 1.356 . S
C1423 C1417 1.363 . S
C1423 C1418 1.379 . S
C1423 N1421 1.356 . S
N1424 C1416 1.356 . S
N1424 H1430 0.984 . S
N1424 H1431 0.984 . S
N1425 C1418 1.356 . S
N1425 H1428 0.984 . S
N1425 H1429 0.985 . S
H1426 N1421 0.984 . S
H1427 N1421 0.985 . S
H1428 N1425 0.984 . S
H1429 N1425 0.985 . S
H1430 N1424 0.984 . S
H1431 N1424 0.984 . S
H1432 N1420 0.984 . S
H1433 N1420 0.985 . S
C1434 C1435 1.378 . S
C1434 C1440 1.364 1_554 S
C1434 N1442 1.362 . S
C1435 C1434 1.378 . S
C1435 C1441 1.363 . S
C1436 C1437 1.378 . S
C1436 C1441 1.364 1_556 S
C1436 N1443 1.362 . S
C1437 C1436 1.378 . S
C1437 C1440 1.363 . S
N1438 C1440 1.356 . S
N1438 H1450 0.984 . S
N1438 H1451 0.985 . S
N1439 C1441 1.356 . S
N1439 H1444 0.984 . S
N1439 H1445 0.985 . S
C1440 C1434 1.364 1_556 S
C1440 C1437 1.363 . S
C1440 N1438 1.356 . S
C1441 C1435 1.363 . S
C1441 C1436 1.364 1_554 S
C1441 N1439 1.356 . S
N1442 C1434 1.362 . S
N1442 H1448 0.984 1_554 S
N1442 H1449 0.984 . S
N1443 C1436 1.362 . S
N1443 H1446 0.984 . S
N1443 H1447 0.985 1_556 S
H1444 N1439 0.984 . S
H1445 N1439 0.985 . S
H1446 N1443 0.984 . S
H1447 N1443 0.985 1_554 S
H1448 N1442 0.984 1_556 S
H1449 N1442 0.984 . S
H1450 N1438 0.984 . S
H1451 N1438 0.985 . S
C1452 C1453 1.363 . S
C1452 C1458 1.379 . S
C1452 N1460 1.356 . S
C1453 C1452 1.363 . S
C1453 C1459 1.363 . S
C1454 C1455 1.363 . S
C1454 C1459 1.379 . S
C1454 N1461 1.356 . S
C1455 C1454 1.363 . S
C1455 C1458 1.363 . S
N1456 C1458 1.356 . S
N1456 H1468 0.984 . S
N1456 H1469 0.985 . S
N1457 C1459 1.356 . S
N1457 H1462 0.984 . S
N1457 H1463 0.985 . S
C1458 C1452 1.379 . S
C1458 C1455 1.363 . S
C1458 N1456 1.356 . S
C1459 C1453 1.363 . S
C1459 C1454 1.379 . S
C1459 N1457 1.356 . S
N1460 C1452 1.356 . S
N1460 H1466 0.984 . S
N1460 H1467 0.984 . S
N1461 C1454 1.356 . S
N1461 H1464 0.984 . S
N1461 H1465 0.985 . S
H1462 N1457 0.984 . S
H1463 N1457 0.985 . S
H1464 N1461 0.984 . S
H1465 N1461 0.985 . S
H1466 N1460 0.984 . S
H1467 N1460 0.984 . S
H1468 N1456 0.984 . S
H1469 N1456 0.985 . S
C1470 C1471 1.363 . S
C1470 C1476 1.379 . S
C1470 N1478 1.356 . S
C1471 C1470 1.363 . S
C1471 C1477 1.363 . S
C1472 C1473 1.363 . S
C1472 C1477 1.379 . S
C1472 N1479 1.356 . S
C1473 C1472 1.363 . S
C1473 C1476 1.363 . S
N1474 C1476 1.356 . S
N1474 H1486 0.984 . S
N1474 H1487 0.985 . S
N1475 C1477 1.356 . S
N1475 H1480 0.984 . S
N1475 H1481 0.985 . S
C1476 C1470 1.379 . S
C1476 C1473 1.363 . S
C1476 N1474 1.356 . S
C1477 C1471 1.363 . S
C1477 C1472 1.379 . S
C1477 N1475 1.356 . S
N1478 C1470 1.356 . S
N1478 H1484 0.984 . S
N1478 H1485 0.984 . S
N1479 C1472 1.356 . S
N1479 H1482 0.984 . S
N1479 H1483 0.985 . S
H1480 N1475 0.984 . S
H1481 N1475 0.985 . S
H1482 N1479 0.984 . S
H1483 N1479 0.985 . S
H1484 N1478 0.984 . S
H1485 N1478 0.984 . S
H1486 N1474 0.984 . S
H1487 N1474 0.985 . S
C1057 C293 2.276 . S
C1059 C20 2.276 . S
C1075 C108 2.276 . S
C1077 C372 2.276 . S
C1093 C460 2.276 . S
C1095 C205 2.276 . S
C1111 C585 2.276 . S
C1113 C849 2.276 . S
C1129 C929 2.276 . S
C1131 C665 2.276 . S
C1147 C761 2.275 . S
C1149 C1025 2.275 . S
C1165 C753 1.578 . S
C1167 C29 1.578 . S
C1183 C117 1.578 . S
C1185 C841 1.578 . S
C1201 C196 1.578 . S
C1203 C937 1.578 . S
C1219 C284 1.578 . S
C1221 C1017 1.578 . S
C1237 C577 1.578 . S
C1239 C381 1.578 . S
C1255 C673 1.578 . S
C1257 C469 1.578 . S
C1273 C636 1.552 . S
C1275 C49 1.552 . S
C1291 C137 1.552 . S
C1293 C733 1.552 . S
C1309 C233 1.552 . S
C1311 C821 1.552 . S
C1327 C321 1.552 . S
C1329 C900 1.552 . S
C1345 C997 1.552 . S
C1347 C401 1.552 . S
C1363 C489 1.552 . S
C1365 C557 1.552 . S
C1381 C909 1.289 . S
C1383 C57 1.289 . S
C1399 C988 1.289 . S
C1401 C145 1.289 . S
C1417 C548 1.289 . S
C1419 C225 1.289 . S
C1435 C313 1.289 . S
C1437 C645 1.289 . S
C1453 C409 1.289 . S
C1455 C724 1.289 . S
C1471 C497 1.289 . S
C1473 C812 1.289 . S
