# Generated by pormake.
# Topology wnd, (6)-cn, num edge types: 1
# Building blocks:
#     Node 0, Type 0, BuildingBlock: BETGAK_clean_sbu_0, # of connection points: 6
#     Node 1, Type 0, BuildingBlock: BETGAK_clean_sbu_0, # of connection points: 6
#     Node 2, Type 0, BuildingBlock: BETGAK_clean_sbu_0, # of connection points: 6
#     Node 3, Type 0, BuildingBlock: BETGAK_clean_sbu_0, # of connection points: 6
#     Node 4, Type 0, BuildingBlock: BETGAK_clean_sbu_0, # of connection points: 6
#     Node 5, Type 0, BuildingBlock: BETGAK_clean_sbu_0, # of connection points: 6
#     Node 6, Type 0, BuildingBlock: BETGAK_clean_sbu_0, # of connection points: 6
#     Node 7, Type 0, BuildingBlock: BETGAK_clean_sbu_0, # of connection points: 6
#     Node 8, Type 0, BuildingBlock: BETGAK_clean_sbu_0, # of connection points: 6
#     Node 9, Type 0, BuildingBlock: BETGAK_clean_sbu_0, # of connection points: 6
#     Node 10, Type 0, BuildingBlock: BETGAK_clean_sbu_0, # of connection points: 6
#     Node 11, Type 0, BuildingBlock: BETGAK_clean_sbu_0, # of connection points: 6
#     Node 12, Type 0, BuildingBlock: BETGAK_clean_sbu_0, # of connection points: 6
#     Node 13, Type 0, BuildingBlock: BETGAK_clean_sbu_0, # of connection points: 6
#     Node 14, Type 0, BuildingBlock: BETGAK_clean_sbu_0, # of connection points: 6
#     Node 15, Type 0, BuildingBlock: BETGAK_clean_sbu_0, # of connection points: 6
#     Node 16, Type 0, BuildingBlock: BETGAK_clean_sbu_0, # of connection points: 6
#     Node 17, Type 0, BuildingBlock: BETGAK_clean_sbu_0, # of connection points: 6
#     Node 18, Type 0, BuildingBlock: BETGAK_clean_sbu_0, # of connection points: 6
#     Node 19, Type 0, BuildingBlock: BETGAK_clean_sbu_0, # of connection points: 6
#     Node 20, Type 0, BuildingBlock: BETGAK_clean_sbu_0, # of connection points: 6
#     Node 21, Type 0, BuildingBlock: BETGAK_clean_sbu_0, # of connection points: 6
#     Node 22, Type 0, BuildingBlock: BETGAK_clean_sbu_0, # of connection points: 6
#     Node 23, Type 0, BuildingBlock: BETGAK_clean_sbu_0, # of connection points: 6
#     Node 24, Type 0, BuildingBlock: BETGAK_clean_sbu_0, # of connection points: 6
#     Node 25, Type 0, BuildingBlock: BETGAK_clean_sbu_0, # of connection points: 6
#     Node 26, Type 0, BuildingBlock: BETGAK_clean_sbu_0, # of connection points: 6
#     Node 27, Type 0, BuildingBlock: BETGAK_clean_sbu_0, # of connection points: 6
#     Node 28, Type 0, BuildingBlock: BETGAK_clean_sbu_0, # of connection points: 6
#     Node 29, Type 0, BuildingBlock: BETGAK_clean_sbu_0, # of connection points: 6
#     Node 30, Type 0, BuildingBlock: BETGAK_clean_sbu_0, # of connection points: 6
#     Node 31, Type 0, BuildingBlock: BETGAK_clean_sbu_0, # of connection points: 6
#     Node 32, Type 0, BuildingBlock: BETGAK_clean_sbu_0, # of connection points: 6
#     Node 33, Type 0, BuildingBlock: BETGAK_clean_sbu_0, # of connection points: 6
#     Node 34, Type 0, BuildingBlock: BETGAK_clean_sbu_0, # of connection points: 6
#     Node 35, Type 0, BuildingBlock: BETGAK_clean_sbu_0, # of connection points: 6
#     Edge 36, Type (0, 0), BuildingBlock: ZUJKAS_clean_linker_0, # of connection points: 2
#     Edge 37, Type (0, 0), BuildingBlock: ZUJKAS_clean_linker_0, # of connection points: 2
#     Edge 38, Type (0, 0), BuildingBlock: ZUJKAS_clean_linker_0, # of connection points: 2
#     Edge 39, Type (0, 0), BuildingBlock: ZUJKAS_clean_linker_0, # of connection points: 2
#     Edge 40, Type (0, 0), BuildingBlock: ZUJKAS_clean_linker_0, # of connection points: 2
#     Edge 41, Type (0, 0), BuildingBlock: ZUJKAS_clean_linker_0, # of connection points: 2
#     Edge 42, Type (0, 0), BuildingBlock: ZUJKAS_clean_linker_0, # of connection points: 2
#     Edge 43, Type (0, 0), BuildingBlock: ZUJKAS_clean_linker_0, # of connection points: 2
#     Edge 44, Type (0, 0), BuildingBlock: ZUJKAS_clean_linker_0, # of connection points: 2
#     Edge 45, Type (0, 0), BuildingBlock: ZUJKAS_clean_linker_0, # of connection points: 2
#     Edge 46, Type (0, 0), BuildingBlock: ZUJKAS_clean_linker_0, # of connection points: 2
#     Edge 47, Type (0, 0), BuildingBlock: ZUJKAS_clean_linker_0, # of connection points: 2
#     Edge 48, Type (0, 0), BuildingBlock: ZUJKAS_clean_linker_0, # of connection points: 2
#     Edge 49, Type (0, 0), BuildingBlock: ZUJKAS_clean_linker_0, # of connection points: 2
#     Edge 50, Type (0, 0), BuildingBlock: ZUJKAS_clean_linker_0, # of connection points: 2
#     Edge 51, Type (0, 0), BuildingBlock: ZUJKAS_clean_linker_0, # of connection points: 2
#     Edge 52, Type (0, 0), BuildingBlock: ZUJKAS_clean_linker_0, # of connection points: 2
#     Edge 53, Type (0, 0), BuildingBlock: ZUJKAS_clean_linker_0, # of connection points: 2
#     Edge 54, Type (0, 0), BuildingBlock: ZUJKAS_clean_linker_0, # of connection points: 2
#     Edge 55, Type (0, 0), BuildingBlock: ZUJKAS_clean_linker_0, # of connection points: 2
#     Edge 56, Type (0, 0), BuildingBlock: ZUJKAS_clean_linker_0, # of connection points: 2
#     Edge 57, Type (0, 0), BuildingBlock: ZUJKAS_clean_linker_0, # of connection points: 2
#     Edge 58, Type (0, 0), BuildingBlock: ZUJKAS_clean_linker_0, # of connection points: 2
#     Edge 59, Type (0, 0), BuildingBlock: ZUJKAS_clean_linker_0, # of connection points: 2
#     Edge 60, Type (0, 0), BuildingBlock: ZUJKAS_clean_linker_0, # of connection points: 2
#     Edge 61, Type (0, 0), BuildingBlock: ZUJKAS_clean_linker_0, # of connection points: 2
#     Edge 62, Type (0, 0), BuildingBlock: ZUJKAS_clean_linker_0, # of connection points: 2
#     Edge 63, Type (0, 0), BuildingBlock: ZUJKAS_clean_linker_0, # of connection points: 2
#     Edge 64, Type (0, 0), BuildingBlock: ZUJKAS_clean_linker_0, # of connection points: 2
#     Edge 65, Type (0, 0), BuildingBlock: ZUJKAS_clean_linker_0, # of connection points: 2
#     Edge 66, Type (0, 0), BuildingBlock: ZUJKAS_clean_linker_0, # of connection points: 2
#     Edge 67, Type (0, 0), BuildingBlock: ZUJKAS_clean_linker_0, # of connection points: 2
#     Edge 68, Type (0, 0), BuildingBlock: ZUJKAS_clean_linker_0, # of connection points: 2
#     Edge 69, Type (0, 0), BuildingBlock: ZUJKAS_clean_linker_0, # of connection points: 2
#     Edge 70, Type (0, 0), BuildingBlock: ZUJKAS_clean_linker_0, # of connection points: 2
#     Edge 71, Type (0, 0), BuildingBlock: ZUJKAS_clean_linker_0, # of connection points: 2
#     Edge 72, Type (0, 0), BuildingBlock: ZUJKAS_clean_linker_0, # of connection points: 2
#     Edge 73, Type (0, 0), BuildingBlock: ZUJKAS_clean_linker_0, # of connection points: 2
#     Edge 74, Type (0, 0), BuildingBlock: ZUJKAS_clean_linker_0, # of connection points: 2
#     Edge 75, Type (0, 0), BuildingBlock: ZUJKAS_clean_linker_0, # of connection points: 2
#     Edge 76, Type (0, 0), BuildingBlock: ZUJKAS_clean_linker_0, # of connection points: 2
#     Edge 77, Type (0, 0), BuildingBlock: ZUJKAS_clean_linker_0, # of connection points: 2
#     Edge 78, Type (0, 0), BuildingBlock: ZUJKAS_clean_linker_0, # of connection points: 2
#     Edge 79, Type (0, 0), BuildingBlock: ZUJKAS_clean_linker_0, # of connection points: 2
#     Edge 80, Type (0, 0), BuildingBlock: ZUJKAS_clean_linker_0, # of connection points: 2
#     Edge 81, Type (0, 0), BuildingBlock: ZUJKAS_clean_linker_0, # of connection points: 2
#     Edge 82, Type (0, 0), BuildingBlock: ZUJKAS_clean_linker_0, # of connection points: 2
#     Edge 83, Type (0, 0), BuildingBlock: ZUJKAS_clean_linker_0, # of connection points: 2
#     Edge 84, Type (0, 0), BuildingBlock: ZUJKAS_clean_linker_0, # of connection points: 2
#     Edge 85, Type (0, 0), BuildingBlock: ZUJKAS_clean_linker_0, # of connection points: 2
#     Edge 86, Type (0, 0), BuildingBlock: ZUJKAS_clean_linker_0, # of connection points: 2
#     Edge 87, Type (0, 0), BuildingBlock: ZUJKAS_clean_linker_0, # of connection points: 2
#     Edge 88, Type (0, 0), BuildingBlock: ZUJKAS_clean_linker_0, # of connection points: 2
#     Edge 89, Type (0, 0), BuildingBlock: ZUJKAS_clean_linker_0, # of connection points: 2
#     Edge 90, Type (0, 0), BuildingBlock: ZUJKAS_clean_linker_0, # of connection points: 2
#     Edge 91, Type (0, 0), BuildingBlock: ZUJKAS_clean_linker_0, # of connection points: 2
#     Edge 92, Type (0, 0), BuildingBlock: ZUJKAS_clean_linker_0, # of connection points: 2
#     Edge 93, Type (0, 0), BuildingBlock: ZUJKAS_clean_linker_0, # of connection points: 2
#     Edge 94, Type (0, 0), BuildingBlock: ZUJKAS_clean_linker_0, # of connection points: 2
#     Edge 95, Type (0, 0), BuildingBlock: ZUJKAS_clean_linker_0, # of connection points: 2
#     Edge 96, Type (0, 0), BuildingBlock: ZUJKAS_clean_linker_0, # of connection points: 2
#     Edge 97, Type (0, 0), BuildingBlock: ZUJKAS_clean_linker_0, # of connection points: 2
#     Edge 98, Type (0, 0), BuildingBlock: ZUJKAS_clean_linker_0, # of connection points: 2
#     Edge 99, Type (0, 0), BuildingBlock: ZUJKAS_clean_linker_0, # of connection points: 2
#     Edge 100, Type (0, 0), BuildingBlock: ZUJKAS_clean_linker_0, # of connection points: 2
#     Edge 101, Type (0, 0), BuildingBlock: ZUJKAS_clean_linker_0, # of connection points: 2
#     Edge 102, Type (0, 0), BuildingBlock: ZUJKAS_clean_linker_0, # of connection points: 2
#     Edge 103, Type (0, 0), BuildingBlock: ZUJKAS_clean_linker_0, # of connection points: 2
#     Edge 104, Type (0, 0), BuildingBlock: ZUJKAS_clean_linker_0, # of connection points: 2
#     Edge 105, Type (0, 0), BuildingBlock: ZUJKAS_clean_linker_0, # of connection points: 2
#     Edge 106, Type (0, 0), BuildingBlock: ZUJKAS_clean_linker_0, # of connection points: 2
#     Edge 107, Type (0, 0), BuildingBlock: ZUJKAS_clean_linker_0, # of connection points: 2
#     Edge 108, Type (0, 0), BuildingBlock: ZUJKAS_clean_linker_0, # of connection points: 2
#     Edge 109, Type (0, 0), BuildingBlock: ZUJKAS_clean_linker_0, # of connection points: 2
#     Edge 110, Type (0, 0), BuildingBlock: ZUJKAS_clean_linker_0, # of connection points: 2
#     Edge 111, Type (0, 0), BuildingBlock: ZUJKAS_clean_linker_0, # of connection points: 2
#     Edge 112, Type (0, 0), BuildingBlock: ZUJKAS_clean_linker_0, # of connection points: 2
#     Edge 113, Type (0, 0), BuildingBlock: ZUJKAS_clean_linker_0, # of connection points: 2
#     Edge 114, Type (0, 0), BuildingBlock: ZUJKAS_clean_linker_0, # of connection points: 2
#     Edge 115, Type (0, 0), BuildingBlock: ZUJKAS_clean_linker_0, # of connection points: 2
#     Edge 116, Type (0, 0), BuildingBlock: ZUJKAS_clean_linker_0, # of connection points: 2
#     Edge 117, Type (0, 0), BuildingBlock: ZUJKAS_clean_linker_0, # of connection points: 2
#     Edge 118, Type (0, 0), BuildingBlock: ZUJKAS_clean_linker_0, # of connection points: 2
#     Edge 119, Type (0, 0), BuildingBlock: ZUJKAS_clean_linker_0, # of connection points: 2
#     Edge 120, Type (0, 0), BuildingBlock: ZUJKAS_clean_linker_0, # of connection points: 2
#     Edge 121, Type (0, 0), BuildingBlock: ZUJKAS_clean_linker_0, # of connection points: 2
#     Edge 122, Type (0, 0), BuildingBlock: ZUJKAS_clean_linker_0, # of connection points: 2
#     Edge 123, Type (0, 0), BuildingBlock: ZUJKAS_clean_linker_0, # of connection points: 2
#     Edge 124, Type (0, 0), BuildingBlock: ZUJKAS_clean_linker_0, # of connection points: 2
#     Edge 125, Type (0, 0), BuildingBlock: ZUJKAS_clean_linker_0, # of connection points: 2
#     Edge 126, Type (0, 0), BuildingBlock: ZUJKAS_clean_linker_0, # of connection points: 2
#     Edge 127, Type (0, 0), BuildingBlock: ZUJKAS_clean_linker_0, # of connection points: 2
#     Edge 128, Type (0, 0), BuildingBlock: ZUJKAS_clean_linker_0, # of connection points: 2
#     Edge 129, Type (0, 0), BuildingBlock: ZUJKAS_clean_linker_0, # of connection points: 2
#     Edge 130, Type (0, 0), BuildingBlock: ZUJKAS_clean_linker_0, # of connection points: 2
#     Edge 131, Type (0, 0), BuildingBlock: ZUJKAS_clean_linker_0, # of connection points: 2
#     Edge 132, Type (0, 0), BuildingBlock: ZUJKAS_clean_linker_0, # of connection points: 2
#     Edge 133, Type (0, 0), BuildingBlock: ZUJKAS_clean_linker_0, # of connection points: 2
#     Edge 134, Type (0, 0), BuildingBlock: ZUJKAS_clean_linker_0, # of connection points: 2
#     Edge 135, Type (0, 0), BuildingBlock: ZUJKAS_clean_linker_0, # of connection points: 2
#     Edge 136, Type (0, 0), BuildingBlock: ZUJKAS_clean_linker_0, # of connection points: 2
#     Edge 137, Type (0, 0), BuildingBlock: ZUJKAS_clean_linker_0, # of connection points: 2
#     Edge 138, Type (0, 0), BuildingBlock: ZUJKAS_clean_linker_0, # of connection points: 2
#     Edge 139, Type (0, 0), BuildingBlock: ZUJKAS_clean_linker_0, # of connection points: 2
#     Edge 140, Type (0, 0), BuildingBlock: ZUJKAS_clean_linker_0, # of connection points: 2
#     Edge 141, Type (0, 0), BuildingBlock: ZUJKAS_clean_linker_0, # of connection points: 2
#     Edge 142, Type (0, 0), BuildingBlock: ZUJKAS_clean_linker_0, # of connection points: 2
#     Edge 143, Type (0, 0), BuildingBlock: ZUJKAS_clean_linker_0, # of connection points: 2
# Relax obj value: 0.096
# Max RMSD: 0.193
# Mean RMSD: 0.193
data_MOF--net-wnd--node1-BETGAK_clean_sbu_0--edge1-ZUJKAS_clean_linker_0
_symmetry_space_group_name_H-M    P1
_symmetry_Int_Tables_number       1
_symmetry_cell_setting            triclinic
loop_
_symmetry_equiv_pos_as_xyz
'x, y, z'
_cell_length_a     49.428105
_cell_length_b     49.389551
_cell_length_c     206.62222
_cell_angle_alpha  89.936
_cell_angle_beta   90.018386
_cell_angle_gamma 120.00165
loop_
_atom_site_label
_atom_site_type_symbol
_atom_site_fract_x
_atom_site_fract_y
_atom_site_fract_z
_atom_type_partial_charge
La0 La 0.49234 0.0715 0.06019 0.0
La1 La 0.52383 0.03184 0.06259 0.0
C2 C 0.47344 0.10904 0.06292 0.0
C3 C 0.48475 0.14246 0.06161 0.0
C4 C 0.4662 0.15551 0.06327 0.0
C5 C 0.47791 0.18778 0.06266 0.0
C6 C 0.50859 0.20771 0.06044 0.0
C7 C 0.52689 0.19438 0.05867 0.0
C8 C 0.51504 0.16209 0.05922 0.0
C9 C 0.51133 0.06183 0.04885 0.0
C10 C 0.5673 0.10333 0.06066 0.0
C11 C 0.54463 0.99428 0.06346 0.0
C12 C 0.54523 0.9655 0.06147 0.0
C13 C 0.52497 0.93625 0.0643 0.0
C14 C 0.52984 0.91076 0.06343 0.0
C15 C 0.55532 0.91389 0.05977 0.0
C16 C 0.57478 0.94283 0.05673 0.0
C17 C 0.56984 0.96822 0.05759 0.0
C18 C 0.50934 0.05531 0.07288 0.0
C19 C 0.45178 0.99808 0.05906 0.0
O20 O 0.46288 0.08975 0.05798 0.0
O21 O 0.49168 0.10369 0.06666 0.0
O22 O 0.49678 0.07726 0.04973 0.0
O23 O 0.51447 0.05215 0.05435 0.0
O24 O 0.54243 0.10669 0.06142 0.0
O25 O 0.56495 0.0756 0.06025 0.0
O26 O 0.52121 0.99184 0.0669 0.0
O27 O 0.55593 0.01827 0.05951 0.0
O28 O 0.53459 0.05365 0.0724 0.0
O29 O 0.49387 0.04381 0.06782 0.0
O30 O 0.47838 0.99771 0.05862 0.0
O31 O 0.45117 0.02412 0.06046 0.0
H32 H 0.44289 0.14085 0.06519 0.0
H33 H 0.46329 0.19725 0.06414 0.0
H34 H 0.55044 0.20895 0.05687 0.0
H35 H 0.52981 0.15255 0.0579 0.0
H36 H 0.50611 0.93334 0.06743 0.0
H37 H 0.51446 0.889 0.06589 0.0
H38 H 0.59432 0.94611 0.05379 0.0
H39 H 0.58621 0.99045 0.05541 0.0
La40 La 0.0294 0.46063 0.05984 0.0
La41 La 0.07004 0.53204 0.06252 0.0
C42 C 0.99137 0.40446 0.06269 0.0
C43 C 0.95795 0.38133 0.0617 0.0
C44 C 0.94195 0.38029 0.056 0.0
C45 C 0.90968 0.35938 0.05546 0.0
C46 C 0.8927 0.33929 0.06063 0.0
C47 C 0.90906 0.3406 0.06631 0.0
C48 C 0.94121 0.36126 0.06683 0.0
C49 C 0.0408 0.49075 0.04866 0.0
C50 C 0.99846 0.50484 0.06072 0.0
C51 C 0.1077 0.59024 0.06344 0.0
C52 C 0.13798 0.61965 0.06242 0.0
C53 C 0.15369 0.63772 0.06787 0.0
C54 C 0.17918 0.66803 0.06719 0.0
C55 C 0.18987 0.68126 0.06103 0.0
C56 C 0.17503 0.66269 0.05555 0.0
C57 C 0.14918 0.6323 0.05624 0.0
C58 C 0.04637 0.49307 0.07264 0.0
C59 C 0.10314 0.49265 0.05909 0.0
O60 O 1.01032 0.41277 0.05769 0.0
O61 O 0.99664 0.42834 0.06632 0.0
O62 O 1.02508 0.46058 0.04935 0.0
O63 O 0.04956 0.50269 0.05425 0.0
O64 O 0.99459 0.47617 0.06092 0.0
O65 O 0.02632 0.53019 0.06066 0.0
O66 O 0.1061 0.56967 0.06766 0.0
O67 O 0.08821 0.57729 0.0586 0.0
O68 O 0.04871 0.52038 0.07236 0.0
O69 O 0.05741 0.48929 0.06749 0.0
O70 O 0.10447 0.52018 0.05901 0.0
O71 O 0.07647 0.46592 0.06009 0.0
H72 H 0.95428 0.39582 0.05201 0.0
H73 H 0.89809 0.35892 0.05098 0.0
H74 H 0.89693 0.32616 0.07045 0.0
H75 H 0.95297 0.36202 0.07131 0.0
H76 H 0.14544 0.62882 0.0727 0.0
H77 H 0.19025 0.68137 0.07152 0.0
H78 H 0.18255 0.67213 0.05074 0.0
H79 H 0.13739 0.61918 0.05194 0.0
La80 La 0.63886 0.60805 0.06021 0.0
La81 La 0.56778 0.57589 0.06288 0.0
C82 C 0.69515 0.62652 0.06298 0.0
C83 C 0.71734 0.61462 0.06217 0.0
C84 C 0.73372 0.61841 0.05636 0.0
C85 C 0.75469 0.60713 0.05579 0.0
C86 C 0.75986 0.5919 0.06102 0.0
C87 C 0.74337 0.58816 0.06681 0.0
C88 C 0.72262 0.59951 0.06738 0.0
C89 C 0.60925 0.58866 0.04899 0.0
C90 C 0.59622 0.53273 0.06111 0.0
C91 C 0.50943 0.55461 0.06378 0.0
C92 C 0.48063 0.55603 0.06228 0.0
C93 C 0.46571 0.56301 0.06726 0.0
C94 C 0.43563 0.55865 0.0664 0.0
C95 C 0.41939 0.54702 0.06053 0.0
C96 C 0.43484 0.54114 0.05546 0.0
C97 C 0.46497 0.54546 0.05632 0.0
C98 C 0.6065 0.591 0.07302 0.0
C99 C 0.60564 0.64855 0.0594 0.0
O100 O 0.68665 0.63615 0.05784 0.0
O101 O 0.6716 0.61007 0.06687 0.0
O102 O 0.63933 0.60368 0.04975 0.0
O103 O 0.5969 0.58532 0.05455 0.0
O104 O 0.62454 0.55796 0.06137 0.0
O105 O 0.57054 0.53459 0.06096 0.0
O106 O 0.52998 0.57498 0.06781 0.0
O107 O 0.52252 0.54655 0.05923 0.0
O108 O 0.57968 0.56552 0.07263 0.0
O109 O 0.61003 0.60638 0.06795 0.0
O110 O 0.57857 0.6219 0.05935 0.0
O111 O 0.63276 0.64936 0.06033 0.0
H112 H 0.73048 0.63019 0.05226 0.0
H113 H 0.76725 0.61085 0.05128 0.0
H114 H 0.74624 0.57617 0.07091 0.0
H115 H 0.7106 0.59634 0.07195 0.0
H116 H 0.47673 0.57051 0.07196 0.0
H117 H 0.42459 0.56307 0.07047 0.0
H118 H 0.42345 0.53266 0.05083 0.0
H119 H 0.4755 0.53945 0.0524 0.0
La120 La 0.07906 0.48397 0.47176 0.0
La121 La 0.03882 0.51468 0.46925 0.0
C122 C 0.11709 0.46564 0.46913 0.0
C123 C 0.15098 0.47804 0.47023 0.0
C124 C 0.1617 0.45825 0.47248 0.0
C125 C 0.19381 0.46936 0.47318 0.0
C126 C 0.21601 0.50054 0.47161 0.0
C127 C 0.20506 0.52039 0.46945 0.0
C128 C 0.17303 0.50933 0.46878 0.0
C129 C 0.06988 0.50396 0.48301 0.0
C130 C 0.11033 0.55902 0.4708 0.0
C131 C 1.00092 0.53497 0.46832 0.0
C132 C 0.97114 0.5341 0.47003 0.0
C133 C 0.94549 0.52004 0.46578 0.0
C134 C 0.91992 0.52475 0.46653 0.0
C135 C 0.91928 0.54382 0.47152 0.0
C136 C 0.94429 0.55668 0.47595 0.0
C137 C 0.96993 0.55202 0.47519 0.0
C138 C 0.06207 0.49968 0.45901 0.0
C139 C 1.00565 0.44275 0.47299 0.0
O140 O 0.09861 0.45579 0.47421 0.0
O141 O 0.11004 0.48192 0.46517 0.0
O142 O 0.08545 0.48954 0.48218 0.0
O143 O 0.05977 0.50642 0.47751 0.0
O144 O 0.11396 0.53415 0.47029 0.0
O145 O 0.08251 0.55641 0.47121 0.0
O146 O 1.00011 0.51312 0.4646 0.0
O147 O 1.02351 0.54503 0.4726 0.0
O148 O 0.06038 0.52496 0.45942 0.0
O149 O 0.05084 0.48448 0.46412 0.0
O150 O 1.0049 0.4692 0.47325 0.0
O151 O 0.03188 0.44232 0.4717 0.0
H152 H 0.14523 0.43406 0.47363 0.0
H153 H 0.2012 0.45345 0.47495 0.0
H154 H 0.22125 0.54436 0.46809 0.0
H155 H 0.16562 0.52522 0.46701 0.0
H156 H 0.94573 0.50648 0.46169 0.0
H157 H 0.90091 0.51397 0.46308 0.0
H158 H 0.94486 0.57169 0.47983 0.0
H159 H 0.98947 0.56372 0.47849 0.0
La160 La 0.61627 0.63124 0.47233 0.0
La161 La 0.58584 0.5604 0.46942 0.0
C162 C 0.63397 0.68776 0.46996 0.0
C163 C 0.62163 0.70913 0.47123 0.0
C164 C 0.64215 0.74073 0.47263 0.0
C165 C 0.63098 0.76172 0.47323 0.0
C166 C 0.59897 0.75159 0.47241 0.0
C167 C 0.57841 0.71967 0.47117 0.0
C168 C 0.58957 0.69874 0.4706 0.0
C169 C 0.59719 0.60054 0.48344 0.0
C170 C 0.54124 0.58708 0.47132 0.0
C171 C 0.56571 0.50241 0.46822 0.0
C172 C 0.56651 0.47309 0.46939 0.0
C173 C 0.56576 0.45535 0.46401 0.0
C174 C 0.56089 0.42506 0.46478 0.0
C175 C 0.55669 0.41157 0.47096 0.0
C176 C 0.55881 0.42983 0.47638 0.0
C177 C 0.56342 0.46019 0.47561 0.0
C178 C 0.6011 0.59996 0.4594 0.0
C179 C 0.65789 0.59929 0.47311 0.0
O180 O 0.64421 0.67882 0.47492 0.0
O181 O 0.61728 0.66463 0.46599 0.0
O182 O 0.6116 0.63068 0.4828 0.0
O183 O 0.59425 0.58876 0.47784 0.0
O184 O 0.56598 0.61576 0.47114 0.0
O185 O 0.54386 0.56182 0.47135 0.0
O186 O 0.58629 0.52364 0.46431 0.0
O187 O 0.55724 0.51458 0.47289 0.0
O188 O 0.57613 0.57268 0.45965 0.0
O189 O 0.61599 0.60345 0.46453 0.0
O190 O 0.63161 0.57189 0.47317 0.0
O191 O 0.65812 0.62609 0.47209 0.0
H192 H 0.66696 0.74933 0.47313 0.0
H193 H 0.6475 0.78596 0.47431 0.0
H194 H 0.55373 0.71092 0.47041 0.0
H195 H 0.57314 0.67454 0.46949 0.0
H196 H 0.56771 0.46449 0.45916 0.0
H197 H 0.55991 0.41196 0.4605 0.0
H198 H 0.55558 0.42017 0.48122 0.0
H199 H 0.56351 0.47308 0.47985 0.0
La200 La 0.46838 0.02126 0.47169 0.0
La201 La 0.53964 0.06099 0.46925 0.0
C202 C 0.41204 0.98398 0.46884 0.0
C203 C 0.38937 0.95063 0.47004 0.0
C204 C 0.35977 0.93701 0.46716 0.0
C205 C 0.33904 0.90479 0.46767 0.0
C206 C 0.34747 0.88536 0.47108 0.0
C207 C 0.37712 0.89929 0.47405 0.0
C208 C 0.39785 0.93159 0.47353 0.0
C209 C 0.4972 0.03067 0.48299 0.0
C210 C 0.51157 0.98934 0.47088 0.0
C211 C 0.59793 0.09826 0.46831 0.0
C212 C 0.62747 0.12834 0.46942 0.0
C213 C 0.64587 0.14435 0.46402 0.0
C214 C 0.67619 0.16973 0.46478 0.0
C215 C 0.68911 0.18002 0.47097 0.0
C216 C 0.67023 0.16482 0.4764 0.0
C217 C 0.63984 0.13908 0.47563 0.0
C218 C 0.50142 0.0377 0.45901 0.0
C219 C 0.50112 0.09483 0.4727 0.0
O220 O 0.42066 1.00302 0.47382 0.0
O221 O 0.43576 0.98911 0.46518 0.0
O222 O 0.4672 1.01535 0.48213 0.0
O223 O 0.50994 0.04037 0.47748 0.0
O224 O 0.4832 0.98599 0.47046 0.0
O225 O 0.5371 1.017 0.47119 0.0
O226 O 0.57741 0.09733 0.46417 0.0
O227 O 0.58488 0.07829 0.47307 0.0
O228 O 0.52816 0.03896 0.45948 0.0
O229 O 0.49758 0.04925 0.46408 0.0
O230 O 0.52834 0.09564 0.47289 0.0
O231 O 0.47435 0.06857 0.47151 0.0
H232 H 0.35295 0.9512 0.46436 0.0
H233 H 0.31672 0.89499 0.46523 0.0
H234 H 0.38436 0.88524 0.47676 0.0
H235 H 0.42072 0.94161 0.47575 0.0
H236 H 0.63719 0.13646 0.45917 0.0
H237 H 0.68973 0.18108 0.46048 0.0
H238 H 0.67941 0.172 0.48124 0.0
H239 H 0.62647 0.12705 0.4799 0.0
La240 La 0.5843 0.06076 0.96926 0.0
La241 La 0.61507 0.02068 0.97196 0.0
C242 C 0.56374 0.0983 0.96811 0.0
C243 C 0.56433 0.1284 0.96916 0.0
C244 C 0.5616 0.14404 0.96374 0.0
C245 C 0.55657 0.16936 0.96446 0.0
C246 C 0.55421 0.17994 0.97064 0.0
C247 C 0.55833 0.16518 0.97609 0.0
C248 C 0.56307 0.13948 0.97537 0.0
C249 C 0.59882 0.03653 0.95915 0.0
C250 C 0.65654 0.09425 0.9728 0.0
C251 C 0.63312 0.9823 0.96944 0.0
C252 C 0.6208 0.9485 0.97064 0.0
C253 C 0.64129 0.9375 0.97214 0.0
C254 C 0.63013 0.90533 0.97279 0.0
C255 C 0.59817 0.88338 0.97193 0.0
C256 C 0.57765 0.89464 0.97056 0.0
C257 C 0.5888 0.92674 0.96993 0.0
C258 C 0.59568 0.03101 0.98316 0.0
C259 C 0.54 0.98941 0.97113 0.0
O260 O 0.5837 0.09733 0.96408 0.0
O261 O 0.55622 0.07827 0.97288 0.0
O262 O 0.5735 0.03811 0.95956 0.0
O263 O 0.61432 0.04824 0.9642 0.0
O264 O 0.63027 0.09536 0.9729 0.0
O265 O 0.65679 0.06774 0.97176 0.0
O266 O 0.64317 1.00112 0.97446 0.0
O267 O 0.61656 0.98901 0.96548 0.0
O268 O 0.61018 1.01546 0.98241 0.0
O269 O 0.5929 0.04056 0.97762 0.0
O270 O 0.5648 0.98566 0.97076 0.0
O271 O 0.54256 1.01727 0.97131 0.0
H272 H 0.56213 0.13585 0.9589 0.0
H273 H 0.554 0.1804 0.96015 0.0
H274 H 0.55656 0.17263 0.98092 0.0
H275 H 0.56473 0.12773 0.97965 0.0
H276 H 0.66605 0.95377 0.97271 0.0
H277 H 0.64662 0.89769 0.97396 0.0
H278 H 0.55302 0.87865 0.96976 0.0
H279 H 0.57239 0.93444 0.96874 0.0
La280 La 0.03882 0.55911 0.96901 0.0
La281 La 0.07751 0.63035 0.9717 0.0
C282 C 1.00212 0.50076 0.96794 0.0
C283 C 0.97177 0.47149 0.96899 0.0
C284 C 0.95619 0.45299 0.96358 0.0
C285 C 0.93055 0.4228 0.96433 0.0
C286 C 0.91963 0.41016 0.97052 0.0
C287 C 0.93441 0.42917 0.97595 0.0
C288 C 0.96036 0.45942 0.9752 0.0
C289 C 0.06368 0.59797 0.95892 0.0
C290 C 1.00378 0.59709 0.97216 0.0
C291 C 0.11579 0.68691 0.96922 0.0
C292 C 0.1497 0.70819 0.97037 0.0
C293 C 0.16052 0.73843 0.97279 0.0
C294 C 0.19266 0.75931 0.97351 0.0
C295 C 0.2148 0.75048 0.97179 0.0
C296 C 0.20375 0.71994 0.96946 0.0
C297 C 0.1717 0.6991 0.96878 0.0
C298 C 0.06557 0.60035 0.98291 0.0
C299 C 0.11002 0.58756 0.97136 0.0
O300 O 1.00361 0.52133 0.96373 0.0
O301 O 1.02136 0.51379 0.97281 0.0
O302 O 0.06261 0.5713 0.95943 0.0
O303 O 0.05119 0.60152 0.96388 0.0
O304 O 1.00318 0.5699 0.97226 0.0
O305 O 0.03017 0.62421 0.97127 0.0
O306 O 0.09716 0.67797 0.97427 0.0
O307 O 0.1087 0.66383 0.96519 0.0
O308 O 0.0807 0.63047 0.98221 0.0
O309 O 0.05754 0.58834 0.97732 0.0
O310 O 0.11321 0.61584 0.97073 0.0
O311 O 0.08242 0.56192 0.97152 0.0
H312 H 0.96461 0.46145 0.95874 0.0
H313 H 0.91953 0.40914 0.96003 0.0
H314 H 0.92674 0.4202 0.98079 0.0
H315 H 0.97204 0.4729 0.97947 0.0
H316 H 0.14411 0.74604 0.97405 0.0
H317 H 0.20013 0.7824 0.97541 0.0
H318 H 0.21987 0.71229 0.96799 0.0
H319 H 0.16423 0.67601 0.96687 0.0
La320 La 0.5381 0.51376 0.96945 0.0
La321 La 0.4669 0.4826 0.97193 0.0
C322 C 0.59632 0.53417 0.96857 0.0
C323 C 0.62523 0.53279 0.97 0.0
C324 C 0.63971 0.52542 0.96499 0.0
C325 C 0.66984 0.52976 0.96575 0.0
C326 C 0.68659 0.54172 0.97156 0.0
C327 C 0.67158 0.54802 0.97667 0.0
C328 C 0.64141 0.54375 0.97589 0.0
C329 C 0.49997 0.49917 0.95921 0.0
C330 C 0.49924 0.4414 0.9729 0.0
C331 C 0.41066 0.4637 0.96903 0.0
C332 C 0.38755 0.47395 0.97008 0.0
C333 C 0.38965 0.49281 0.97536 0.0
C334 C 0.36878 0.50418 0.97593 0.0
C335 C 0.34558 0.49722 0.9712 0.0
C336 C 0.34373 0.47823 0.96594 0.0
C337 C 0.36439 0.46671 0.9654 0.0
C338 C 0.49591 0.50136 0.98323 0.0
C339 C 0.51048 0.55773 0.97111 0.0
O340 O 0.57555 0.51375 0.96457 0.0
O341 O 0.58352 0.54262 0.97311 0.0
O342 O 0.52693 0.52443 0.95966 0.0
O343 O 0.4959 0.48375 0.9643 0.0
O344 O 0.5265 0.46777 0.97316 0.0
O345 O 0.4726 0.4411 0.97168 0.0
O346 O 0.41914 0.45326 0.97404 0.0
O347 O 0.43446 0.48241 0.96539 0.0
O348 O 0.46588 0.48685 0.9824 0.0
O349 O 0.50853 0.50459 0.97771 0.0
O350 O 0.48198 0.53281 0.97076 0.0
O351 O 0.53589 0.5554 0.97136 0.0
H352 H 0.62831 0.51762 0.96033 0.0
H353 H 0.68049 0.52503 0.96166 0.0
H354 H 0.68333 0.55677 0.98125 0.0
H355 H 0.63123 0.55008 0.97983 0.0
H356 H 0.40763 0.49904 0.97899 0.0
H357 H 0.37082 0.51839 0.98009 0.0
H358 H 0.32679 0.47281 0.96212 0.0
H359 H 0.36266 0.4526 0.96124 0.0
La360 La 0.06879 0.5755 0.56269 0.0
La361 La 0.02862 0.60623 0.56003 0.0
C362 C 0.10637 0.5548 0.56355 0.0
C363 C 0.1351 0.55419 0.56157 0.0
C364 C 0.16421 0.57408 0.56447 0.0
C365 C 0.18958 0.56906 0.5636 0.0
C366 C 0.18644 0.54379 0.55987 0.0
C367 C 0.15769 0.52473 0.55675 0.0
C368 C 0.13242 0.52982 0.5576 0.0
C369 C 0.04597 0.5912 0.57288 0.0
C370 C 0.10197 0.64718 0.55873 0.0
C371 C 0.99071 0.62483 0.56256 0.0
C372 C 0.95681 0.6123 0.56147 0.0
C373 C 0.94559 0.63256 0.55991 0.0
C374 C 0.91338 0.62121 0.55934 0.0
C375 C 0.8916 0.58929 0.56035 0.0
C376 C 0.90308 0.56898 0.56178 0.0
C377 C 0.93521 0.58032 0.56232 0.0
C378 C 0.03753 0.58538 0.54886 0.0
C379 C 0.99713 0.53134 0.56132 0.0
O380 O 0.10879 0.57822 0.56699 0.0
O381 O 0.08242 0.54347 0.5596 0.0
O382 O 0.04817 0.56619 0.57258 0.0
O383 O 0.05683 0.60604 0.56772 0.0
O384 O 0.10259 0.62065 0.55855 0.0
O385 O 0.07579 0.64776 0.55998 0.0
O386 O 1.00907 0.63426 0.55747 0.0
O387 O 0.99777 0.60877 0.56658 0.0
O388 O 1.02205 0.59995 0.54962 0.0
O389 O 0.04772 0.58326 0.55437 0.0
O390 O 0.99362 0.5563 0.56159 0.0
O391 O 1.02483 0.53365 0.561 0.0
H392 H 0.16705 0.59274 0.56766 0.0
H393 H 0.21121 0.58413 0.56612 0.0
H394 H 0.15445 0.50536 0.55375 0.0
H395 H 0.11029 0.51372 0.55536 0.0
H396 H 0.96173 0.6573 0.55923 0.0
H397 H 0.90557 0.63754 0.55813 0.0
H398 H 0.88722 0.54439 0.56268 0.0
H399 H 0.94307 0.56408 0.56355 0.0
La400 La 0.5234 0.53022 0.56311 0.0
La401 La 0.49104 0.45901 0.5604 0.0
C402 C 0.54509 0.58861 0.56407 0.0
C403 C 0.54391 0.61781 0.56298 0.0
C404 C 0.54645 0.63626 0.56837 0.0
C405 C 0.55095 0.66642 0.56759 0.0
C406 C 0.553 0.67908 0.56139 0.0
C407 C 0.54913 0.66011 0.55597 0.0
C408 C 0.54488 0.62989 0.55675 0.0
C409 C 0.50844 0.49132 0.5732 0.0
C410 C 0.45061 0.4924 0.55977 0.0
C411 C 0.47232 0.40241 0.56295 0.0
C412 C 0.4845 0.38075 0.56185 0.0
C413 C 0.46397 0.34932 0.5603 0.0
C414 C 0.47495 0.32814 0.55974 0.0
C415 C 0.50676 0.33789 0.56075 0.0
C416 C 0.52733 0.36961 0.56218 0.0
C417 C 0.51637 0.39074 0.56271 0.0
C418 C 0.51022 0.48895 0.54921 0.0
C419 C 0.56635 0.50167 0.56121 0.0
O420 O 0.52619 0.56823 0.56832 0.0
O421 O 0.55113 0.57536 0.55921 0.0
O422 O 0.53402 0.51805 0.57279 0.0
O423 O 0.4929 0.48779 0.56816 0.0
O424 O 0.47718 0.51955 0.5598 0.0
O425 O 0.44982 0.4652 0.56059 0.0
O426 O 0.46279 0.41139 0.55788 0.0
O427 O 0.48868 0.42558 0.56693 0.0
O428 O 0.49517 0.45883 0.54992 0.0
O429 O 0.5137 0.5011 0.55478 0.0
O430 O 0.54112 0.47334 0.56152 0.0
O431 O 0.56453 0.52738 0.56107 0.0
H432 H 0.54616 0.62779 0.57322 0.0
H433 H 0.5533 0.68005 0.57187 0.0
H434 H 0.55069 0.66911 0.55112 0.0
H435 H 0.54338 0.61646 0.55249 0.0
H436 H 0.43932 0.34102 0.55961 0.0
H437 H 0.45844 0.30408 0.55852 0.0
H438 H 0.55184 0.37806 0.56309 0.0
H439 H 0.53281 0.41478 0.56394 0.0
La440 La 0.56736 0.0282 0.56276 0.0
La441 La 0.63838 0.06858 0.56021 0.0
C442 C 0.50922 0.99006 0.56365 0.0
C443 C 0.48048 0.95999 0.56202 0.0
C444 C 0.46568 0.93734 0.56689 0.0
C445 C 0.43564 0.91164 0.56595 0.0
C446 C 0.41931 0.90779 0.56012 0.0
C447 C 0.43466 0.92991 0.55515 0.0
C448 C 0.46475 0.9557 0.5561 0.0
C449 C 0.60567 0.05145 0.57298 0.0
C450 C 0.60636 0.99518 0.55908 0.0
C451 C 0.69472 0.10662 0.56286 0.0
C452 C 0.71639 0.14047 0.56178 0.0
C453 C 0.748 0.15144 0.56042 0.0
C454 C 0.76916 0.18363 0.55989 0.0
C455 C 0.7592 0.20562 0.56075 0.0
C456 C 0.7273 0.19439 0.56198 0.0
C457 C 0.7062 0.16228 0.56247 0.0
C458 C 0.60906 0.05883 0.54896 0.0
C459 C 0.59457 0.09979 0.56124 0.0
O460 O 0.53015 0.98973 0.56749 0.0
O461 O 0.52182 1.01225 0.55927 0.0
O462 O 0.57864 0.04959 0.57259 0.0
O463 O 0.60971 0.04036 0.56786 0.0
O464 O 0.57908 0.99425 0.55886 0.0
O465 O 0.63299 0.0215 0.56032 0.0
O466 O 0.68611 0.08817 0.55779 0.0
O467 O 0.67131 0.09978 0.56678 0.0
O468 O 0.63907 0.07442 0.54977 0.0
O469 O 0.59656 0.04902 0.55448 0.0
O470 O 0.6231 0.10345 0.56157 0.0
O471 O 0.56924 0.072 0.56096 0.0
H472 H 0.47676 0.94023 0.57156 0.0
H473 H 0.42469 0.89558 0.56995 0.0
H474 H 0.42322 0.92762 0.55055 0.0
H475 H 0.4752 0.97283 0.55226 0.0
H476 H 0.75645 0.13512 0.55986 0.0
H477 H 0.79338 0.19123 0.55883 0.0
H478 H 0.71868 0.21041 0.56276 0.0
H479 H 0.68199 0.15459 0.56355 0.0
La480 La 0.1602 0.40314 0.39351 0.0
La481 La 0.19088 0.36284 0.39609 0.0
C482 C 0.14141 0.44087 0.3961 0.0
C483 C 0.15355 0.47469 0.395 0.0
C484 C 0.133 0.48566 0.39353 0.0
C485 C 0.14409 0.51783 0.39293 0.0
C486 C 0.17602 0.5398 0.39382 0.0
C487 C 0.19658 0.52857 0.39517 0.0
C488 C 0.1855 0.49648 0.39574 0.0
C489 C 0.18067 0.39418 0.3823 0.0
C490 C 0.23518 0.43437 0.39448 0.0
C491 C 0.21155 0.32534 0.39715 0.0
C492 C 0.21076 0.29523 0.39598 0.0
C493 C 0.21238 0.2786 0.40134 0.0
C494 C 0.21718 0.25315 0.40054 0.0
C495 C 0.22043 0.24347 0.39433 0.0
C496 C 0.21748 0.25928 0.38892 0.0
C497 C 0.21295 0.28505 0.38974 0.0
C498 C 0.1758 0.38633 0.40626 0.0
C499 C 0.1189 0.32956 0.39237 0.0
O500 O 0.13189 0.42246 0.39102 0.0
O501 O 0.15788 0.43408 0.40007 0.0
O502 O 0.16632 0.40984 0.38309 0.0
O503 O 0.18283 0.38391 0.38781 0.0
O504 O 0.21034 0.43803 0.395 0.0
O505 O 0.23257 0.40652 0.39409 0.0
O506 O 0.19141 0.32602 0.40117 0.0
O507 O 0.21928 0.34574 0.39245 0.0
O508 O 0.20123 0.38494 0.40585 0.0
O509 O 0.16058 0.37489 0.40116 0.0
O510 O 0.14519 0.3285 0.39229 0.0
O511 O 0.11857 0.35597 0.39351 0.0
H512 H 0.10827 0.46934 0.39294 0.0
H513 H 0.12757 0.52546 0.39178 0.0
H514 H 0.2212 0.54459 0.39599 0.0
H515 H 0.20191 0.48878 0.39691 0.0
H516 H 0.21114 0.28606 0.40621 0.0
H517 H 0.21881 0.24131 0.40481 0.0
H518 H 0.21997 0.25255 0.38407 0.0
H519 H 0.21217 0.29757 0.3855 0.0
La520 La 0.69695 0.79302 0.39354 0.0
La521 La 0.73679 0.86437 0.39604 0.0
C522 C 0.65929 0.73663 0.39631 0.0
C523 C 0.62616 0.71387 0.39497 0.0
C524 C 0.61271 0.68373 0.3976 0.0
C525 C 0.58057 0.66291 0.39702 0.0
C526 C 0.56107 0.67179 0.3938 0.0
C527 C 0.57485 0.70194 0.39105 0.0
C528 C 0.60706 0.72277 0.39163 0.0
C529 C 0.70738 0.82224 0.38227 0.0
C530 C 0.66529 0.83654 0.39417 0.0
C531 C 0.77421 0.92263 0.39699 0.0
C532 C 0.80441 0.95193 0.39583 0.0
C533 C 0.82116 0.96993 0.4012 0.0
C534 C 0.84668 1.00015 0.40042 0.0
C535 C 0.85635 1.01334 0.39422 0.0
C536 C 0.84041 0.99484 0.38881 0.0
C537 C 0.81456 0.96455 0.3896 0.0
C538 C 0.71341 0.82589 0.40626 0.0
C539 C 0.77057 0.82574 0.39266 0.0
O540 O 0.679 0.74526 0.39144 0.0
O541 O 0.66382 0.76036 0.3999 0.0
O542 O 0.69196 0.79217 0.38307 0.0
O543 O 0.71652 0.83471 0.38781 0.0
O544 O 0.66182 0.80812 0.39471 0.0
O545 O 0.69302 0.86201 0.39393 0.0
O546 O 0.77328 0.90198 0.4011 0.0
O547 O 0.75407 0.90973 0.39226 0.0
O548 O 0.71509 0.85288 0.40586 0.0
O549 O 0.72475 0.82208 0.40116 0.0
O550 O 0.77137 0.85298 0.3924 0.0
O551 O 0.74427 0.79898 0.39387 0.0
H552 H 0.62696 0.67657 0.40028 0.0
H553 H 0.57088 0.64016 0.3993 0.0
H554 H 0.56073 0.70954 0.38847 0.0
H555 H 0.61695 0.74605 0.38961 0.0
H556 H 0.81373 0.96104 0.40606 0.0
H557 H 0.85861 1.01341 0.4047 0.0
H558 H 0.84711 1.00425 0.38396 0.0
H559 H 0.80196 0.95148 0.38535 0.0
La560 La 0.30718 0.94031 0.39342 0.0
La561 La 0.23595 0.9092 0.39597 0.0
C562 C 0.36344 0.95936 0.39631 0.0
C563 C 0.38646 0.94879 0.39543 0.0
C564 C 0.38884 0.93527 0.38963 0.0
C565 C 0.40976 0.92391 0.38913 0.0
C566 C 0.42856 0.92558 0.39443 0.0
C567 C 0.42589 0.93913 0.40022 0.0
C568 C 0.4052 0.95062 0.4007 0.0
C569 C 0.27767 0.91969 0.38222 0.0
C570 C 0.26373 0.86528 0.39455 0.0
C571 C 0.17772 0.88821 0.39694 0.0
C572 C 0.14823 0.88882 0.39586 0.0
C573 C 0.12999 0.88645 0.40128 0.0
C574 C 0.09968 0.88153 0.40056 0.0
C575 C 0.08664 0.87892 0.39438 0.0
C576 C 0.10537 0.88261 0.38893 0.0
C577 C 0.13575 0.88725 0.38966 0.0
C578 C 0.27447 0.92457 0.40616 0.0
C579 C 0.27467 0.98142 0.39231 0.0
O580 O 0.3549 0.96921 0.39121 0.0
O581 O 0.33976 0.94144 0.40005 0.0
O582 O 0.30774 0.93427 0.383 0.0
O583 O 0.26535 0.91745 0.38774 0.0
O584 O 0.29221 0.89027 0.39487 0.0
O585 O 0.23828 0.86751 0.39422 0.0
O586 O 0.19828 0.9077 0.40108 0.0
O587 O 0.19069 0.88139 0.39215 0.0
O588 O 0.24759 0.89918 0.40577 0.0
O589 O 0.27827 0.93969 0.40103 0.0
O590 O 0.24732 0.9551 0.39225 0.0
O591 O 0.30146 0.98183 0.39342 0.0
H592 H 0.37439 0.93324 0.38551 0.0
H593 H 0.4113 0.91398 0.38457 0.0
H594 H 0.43932 0.94031 0.40446 0.0
H595 H 0.40344 0.96052 0.40525 0.0
H596 H 0.13877 0.8872 0.40612 0.0
H597 H 0.08623 0.87931 0.40487 0.0
H598 H 0.09608 0.88063 0.38409 0.0
H599 H 0.14902 0.8886 0.38538 0.0
La600 La 0.74529 0.81585 0.80555 0.0
La601 La 0.70497 0.84656 0.80286 0.0
C602 C 0.78347 0.79758 0.80296 0.0
C603 C 0.8166 0.80827 0.80439 0.0
C604 C 0.83572 0.83705 0.80745 0.0
C605 C 0.86791 0.84853 0.80813 0.0
C606 C 0.88166 0.83146 0.80575 0.0
C607 C 0.86215 0.80231 0.80281 0.0
C608 C 0.83003 0.79092 0.80212 0.0
C609 C 0.73446 0.8348 0.81676 0.0
C610 C 0.77631 0.89092 0.80478 0.0
C611 C 0.66707 0.86674 0.80172 0.0
C612 C 0.63698 0.86607 0.80288 0.0
C613 C 0.62011 0.86703 0.7975 0.0
C614 C 0.59464 0.87183 0.79825 0.0
C615 C 0.58513 0.87573 0.80443 0.0
C616 C 0.6012 0.87347 0.80986 0.0
C617 C 0.62701 0.86895 0.8091 0.0
C618 C 0.72888 0.83151 0.79273 0.0
C619 C 0.67177 0.77441 0.80643 0.0
O620 O 0.76353 0.7864 0.80779 0.0
O621 O 0.77886 0.81656 0.79929 0.0
O622 O 0.75016 0.82043 0.81602 0.0
O623 O 0.72522 0.83779 0.8112 0.0
O624 O 0.78007 0.86613 0.80431 0.0
O625 O 0.74845 0.88835 0.80496 0.0
O626 O 0.66772 0.84628 0.79779 0.0
O627 O 0.6877 0.87503 0.80639 0.0
O628 O 0.72682 0.85662 0.79305 0.0
O629 O 0.71754 0.81647 0.79785 0.0
O630 O 0.67076 0.80074 0.80666 0.0
O631 O 0.69816 0.77417 0.80521 0.0
H632 H 0.82587 0.85094 0.8092 0.0
H633 H 0.88203 0.87085 0.81049 0.0
H634 H 0.87184 0.78867 0.80083 0.0
H635 H 0.81578 0.76886 0.79966 0.0
H636 H 0.6274 0.86526 0.79264 0.0
H637 H 0.58262 0.87292 0.79396 0.0
H638 H 0.59464 0.87646 0.81469 0.0
H639 H 0.6397 0.8687 0.81335 0.0
La640 La 0.28246 0.96337 0.80525 0.0
La641 La 0.25103 0.8923 0.80266 0.0
C642 C 0.30084 0.01987 0.80268 0.0
C643 C 0.28832 0.04124 0.8038 0.0
C644 C 0.30836 0.07239 0.80564 0.0
C645 C 0.29702 0.09325 0.80628 0.0
C646 C 0.26534 0.08343 0.80507 0.0
C647 C 0.24526 0.052 0.80335 0.0
C648 C 0.25658 0.03122 0.80274 0.0
C649 C 0.26414 0.93382 0.81652 0.0
C650 C 0.20738 0.92001 0.80477 0.0
C651 C 0.23025 0.834 0.80171 0.0
C652 C 0.22955 0.80465 0.80376 0.0
C653 C 0.24925 0.7952 0.80085 0.0
C654 C 0.24419 0.76482 0.80179 0.0
C655 C 0.21908 0.74292 0.8056 0.0
C656 C 0.20019 0.75285 0.80871 0.0
C657 C 0.20531 0.7832 0.80779 0.0
C658 C 0.26541 0.93081 0.79246 0.0
C659 C 0.32309 0.93057 0.80626 0.0
O660 O 0.31057 1.01105 0.80775 0.0
O661 O 0.28462 0.99665 0.7987 0.0
O662 O 0.27872 0.96389 0.81574 0.0
O663 O 0.26061 0.92149 0.81096 0.0
O664 O 0.23224 0.94843 0.80416 0.0
O665 O 0.20986 0.89467 0.80503 0.0
O666 O 0.254 0.85513 0.79836 0.0
O667 O 0.21859 0.84652 0.8056 0.0
O668 O 0.24032 0.90373 0.79288 0.0
O669 O 0.2809 0.93461 0.79751 0.0
O670 O 0.29648 0.90353 0.80663 0.0
O671 O 0.32375 0.95735 0.80495 0.0
H672 H 0.33292 0.08072 0.80649 0.0
H673 H 0.31315 0.11711 0.8077 0.0
H674 H 0.22088 0.04356 0.80228 0.0
H675 H 0.24054 1.00743 0.80127 0.0
H676 H 0.26777 0.81081 0.79761 0.0
H677 H 0.25911 0.75806 0.79927 0.0
H678 H 0.18095 0.73691 0.81176 0.0
H679 H 0.18935 0.78941 0.81003 0.0
La680 La 0.13428 0.35304 0.8052 0.0
La681 La 0.20544 0.39262 0.80254 0.0
C682 C 0.07796 0.31571 0.80236 0.0
C683 C 0.05463 0.28231 0.80338 0.0
C684 C 0.05276 0.26657 0.80917 0.0
C685 C 0.03167 0.23433 0.80976 0.0
C686 C 1.01223 0.21712 0.80454 0.0
C687 C 1.01437 0.23321 0.79876 0.0
C688 C 0.03521 0.26533 0.7982 0.0
C689 C 0.16379 0.3626 0.8164 0.0
C690 C 0.17731 0.32092 0.80417 0.0
C691 C 0.26384 0.42932 0.80164 0.0
C692 C 0.29322 0.45972 0.80254 0.0
C693 C 0.31316 0.47273 0.79719 0.0
C694 C 0.34306 0.49882 0.79789 0.0
C695 C 0.35405 0.513 0.80397 0.0
C696 C 0.33365 0.50035 0.80932 0.0
C697 C 0.30366 0.47392 0.80862 0.0
C698 C 0.16658 0.36966 0.7924 0.0
C699 C 0.16724 0.42703 0.80594 0.0
O700 O 0.08656 0.33468 0.80737 0.0
O701 O 0.10166 0.32075 0.79871 0.0
O702 O 0.13371 0.34731 0.81563 0.0
O703 O 0.17622 0.37214 0.81086 0.0
O704 O 0.1489 0.31759 0.80393 0.0
O705 O 0.20288 0.34856 0.80435 0.0
O706 O 0.24374 0.42714 0.79725 0.0
O707 O 0.25032 0.41102 0.80663 0.0
O708 O 0.19351 0.3712 0.79272 0.0
O709 O 0.16302 0.38094 0.79754 0.0
O710 O 0.19453 0.42795 0.80586 0.0
O711 O 0.14021 0.40045 0.80512 0.0
H712 H 0.06777 0.27907 0.81322 0.0
H713 H 0.03056 0.22296 0.81432 0.0
H714 H 1.00044 0.22088 0.79458 0.0
H715 H 0.0366 0.27687 0.79364 0.0
H716 H 0.30603 0.46194 0.79247 0.0
H717 H 0.35793 0.5071 0.79366 0.0
H718 H 0.34087 0.5107 0.81407 0.0
H719 H 0.28895 0.46429 0.81285 0.0
La720 La 0.24805 0.3931 0.3022 0.0
La721 La 0.27971 0.35383 0.30506 0.0
C722 C 0.22649 0.42989 0.30117 0.0
C723 C 0.22746 0.46015 0.30229 0.0
C724 C 0.22457 0.47597 0.29691 0.0
C725 C 0.21998 0.50156 0.29771 0.0
C726 C 0.2182 0.51219 0.30393 0.0
C727 C 0.2224 0.49717 0.30932 0.0
C728 C 0.22674 0.47127 0.30852 0.0
C729 C 0.26381 0.36962 0.29215 0.0
C730 C 0.32036 0.42763 0.3059 0.0
C731 C 0.29866 0.31607 0.30264 0.0
C732 C 0.28633 0.28222 0.30378 0.0
C733 C 0.30674 0.27118 0.30533 0.0
C734 C 0.29557 0.23899 0.30594 0.0
C735 C 0.26369 0.21704 0.30497 0.0
C736 C 0.24324 0.22834 0.30355 0.0
C737 C 0.25438 0.26046 0.30298 0.0
C738 C 0.25814 0.36266 0.31613 0.0
C739 C 0.20469 0.32143 0.30376 0.0
O740 O 0.24583 0.42874 0.297 0.0
O741 O 0.21998 0.41026 0.30599 0.0
O742 O 0.23837 0.37106 0.29246 0.0
O743 O 0.27892 0.38127 0.29726 0.0
O744 O 0.29391 0.42837 0.30572 0.0
O745 O 0.32106 0.40117 0.30513 0.0
O746 O 0.30787 0.33456 0.30772 0.0
O747 O 0.28258 0.3229 0.29858 0.0
O748 O 0.27307 0.34749 0.31547 0.0
O749 O 0.25612 0.37261 0.31057 0.0
O750 O 0.22988 0.31828 0.30358 0.0
O751 O 0.20654 0.34898 0.30394 0.0
H752 H 0.22467 0.46778 0.29205 0.0
H753 H 0.21737 0.51277 0.29344 0.0
H754 H 0.22107 0.50462 0.31418 0.0
H755 H 0.22853 0.4594 0.31277 0.0
H756 H 0.33145 0.28745 0.30598 0.0
H757 H 0.31201 0.23133 0.30714 0.0
H758 H 0.21867 0.21236 0.30268 0.0
H759 H 0.23802 0.26817 0.30175 0.0
La760 La 0.70169 0.89278 0.30259 0.0
La761 La 0.7426 0.96361 0.3053 0.0
C762 C 0.66327 0.8347 0.30162 0.0
C763 C 0.63482 0.80545 0.30377 0.0
C764 C 0.60549 0.79595 0.30094 0.0
C765 C 0.58022 0.7656 0.30194 0.0
C766 C 0.58368 0.74377 0.30574 0.0
C767 C 0.61267 0.75376 0.30877 0.0
C768 C 0.63785 0.78409 0.30779 0.0
C769 C 0.72502 0.93158 0.29241 0.0
C770 C 0.66935 0.9318 0.30654 0.0
C771 C 0.78095 0.02016 0.30284 0.0
C772 C 0.81456 0.04181 0.30413 0.0
C773 C 0.82561 0.07371 0.30516 0.0
C774 C 0.85775 0.09476 0.3058 0.0
C775 C 0.87958 0.08437 0.30539 0.0
C776 C 0.86822 0.05218 0.30451 0.0
C777 C 0.83616 0.03122 0.30392 0.0
C778 C 0.73178 0.93362 0.31649 0.0
C779 C 0.77304 0.91917 0.3044 0.0
O780 O 0.66038 0.85625 0.2985 0.0
O781 O 0.68822 0.84668 0.3053 0.0
O782 O 0.72214 0.90407 0.29266 0.0
O783 O 0.71442 0.93558 0.2976 0.0
O784 O 0.66854 0.90458 0.30688 0.0
O785 O 0.69555 0.9583 0.30513 0.0
O786 O 0.76174 1.01122 0.3078 0.0
O787 O 0.77486 0.99693 0.29893 0.0
O788 O 0.74772 0.96369 0.31575 0.0
O789 O 0.72231 0.92145 0.31094 0.0
O790 O 0.77712 0.94784 0.30395 0.0
O791 O 0.74503 0.89413 0.30466 0.0
H792 H 0.60238 0.81147 0.29772 0.0
H793 H 0.55841 0.7588 0.29948 0.0
H794 H 0.61616 0.73788 0.3118 0.0
H795 H 0.66015 0.79032 0.30997 0.0
H796 H 0.80943 0.08247 0.30535 0.0
H797 H 0.86546 0.11924 0.30658 0.0
H798 H 0.88411 0.04319 0.30407 0.0
H799 H 0.82835 1.00678 0.3031 0.0
La800 La 0.20389 0.84737 0.30265 0.0
La801 La 0.13271 0.81633 0.30521 0.0
C802 C 0.26212 0.86825 0.30173 0.0
C803 C 0.29142 0.86737 0.30291 0.0
C804 C 0.3094 0.86848 0.29754 0.0
C805 C 0.33962 0.87324 0.29833 0.0
C806 C 0.35285 0.87699 0.30452 0.0
C807 C 0.33437 0.87456 0.30993 0.0
C808 C 0.30408 0.87005 0.30914 0.0
C809 C 0.16546 0.83202 0.29246 0.0
C810 C 0.16513 0.77513 0.3063 0.0
C811 C 0.07648 0.79744 0.30233 0.0
C812 C 0.05345 0.80813 0.30313 0.0
C813 C 0.04588 0.81533 0.30921 0.0
C814 C 1.02461 0.82626 0.3097 0.0
C815 C 1.01054 0.83039 0.30413 0.0
C816 C 1.01837 0.82319 0.29806 0.0
C817 C 0.03938 0.81211 0.29758 0.0
C818 C 0.16224 0.83687 0.31641 0.0
C819 C 0.1762 0.89139 0.30408 0.0
O820 O 0.24158 0.8486 0.2976 0.0
O821 O 0.24912 0.87539 0.30646 0.0
O822 O 0.19238 0.85737 0.29284 0.0
O823 O 0.16153 0.8169 0.29759 0.0
O824 O 0.19248 0.80145 0.30637 0.0
O825 O 0.13835 0.77476 0.3052 0.0
O826 O 0.08494 0.78763 0.30745 0.0
O827 O 0.10018 0.81504 0.29856 0.0
O828 O 0.13217 0.8223 0.31564 0.0
O829 O 0.17455 0.83913 0.31089 0.0
O830 O 0.14771 0.86641 0.30378 0.0
O831 O 0.20163 0.88912 0.30439 0.0
H832 H 0.30049 0.86688 0.29268 0.0
H833 H 0.35287 0.87446 0.29405 0.0
H834 H 0.3438 0.87744 0.31478 0.0
H835 H 0.29104 0.86971 0.31338 0.0
H836 H 0.05644 0.81264 0.31357 0.0
H837 H 1.01897 0.83117 0.31446 0.0
H838 H 1.00867 0.82659 0.29364 0.0
H839 H 0.04497 0.80696 0.29283 0.0
La840 La 0.73547 0.90732 0.8963 0.0
La841 La 0.69693 0.94017 0.89377 0.0
C842 C 0.77146 0.88473 0.89713 0.0
C843 C 0.8021 0.88608 0.89644 0.0
C844 C 0.8134 0.87695 0.90176 0.0
C845 C 0.83971 0.87344 0.90118 0.0
C846 C 0.85584 0.87915 0.89526 0.0
C847 C 0.8449 0.88909 0.88996 0.0
C848 C 0.81825 0.89236 0.89053 0.0
C849 C 0.71178 0.92199 0.90647 0.0
C850 C 0.77096 0.98057 0.8933 0.0
C851 C 0.65987 0.95939 0.8967 0.0
C852 C 0.62645 0.94908 0.89569 0.0
C853 C 0.61025 0.9328 0.89011 0.0
C854 C 0.57799 0.92136 0.88954 0.0
C855 C 0.56118 0.92569 0.89457 0.0
C856 C 0.57772 0.94206 0.90014 0.0
C857 C 0.60989 0.95362 0.90068 0.0
C858 C 0.70691 0.9211 0.88251 0.0
C859 C 0.66399 0.8648 0.89426 0.0
O860 O 0.76789 0.90081 0.90175 0.0
O861 O 0.75488 0.88223 0.89197 0.0
O862 O 0.71244 0.89617 0.90596 0.0
O863 O 0.72391 0.93778 0.90146 0.0
O864 O 0.77164 0.95405 0.8934 0.0
O865 O 0.74446 0.98129 0.89398 0.0
O866 O 0.67866 0.96968 0.89167 0.0
O867 O 0.66511 0.94085 0.90036 0.0
O868 O 0.69198 0.93625 0.8833 0.0
O869 O 0.71589 0.9175 0.88805 0.0
O870 O 0.66095 0.89002 0.89475 0.0
O871 O 0.69151 0.86663 0.89406 0.0
H872 H 0.80111 0.87135 0.90634 0.0
H873 H 0.84664 0.86511 0.90536 0.0
H874 H 0.85676 0.89417 0.88534 0.0
H875 H 0.80998 0.89918 0.88632 0.0
H876 H 0.62244 0.92862 0.88623 0.0
H877 H 0.56628 0.9092 0.88515 0.0
H878 H 0.56571 0.94537 0.90417 0.0
H879 H 0.62179 0.96562 0.90507 0.0
La880 La 0.19255 0.8642 0.89602 0.0
La881 La 0.16015 0.79283 0.89356 0.0
C882 C 0.21397 0.92258 0.897 0.0
C883 C 0.21283 0.95188 0.89602 0.0
C884 C 0.21591 0.97024 0.90146 0.0
C885 C 0.22041 1.00044 0.90078 0.0
C886 C 0.22188 1.01326 0.89462 0.0
C887 C 0.21745 0.9944 0.88915 0.0
C888 C 0.21323 0.96412 0.88984 0.0
C889 C 0.17837 0.82588 0.90623 0.0
C890 C 0.11969 0.82609 0.89294 0.0
C891 C 0.1412 0.73634 0.89631 0.0
C892 C 0.15191 0.71381 0.89499 0.0
C893 C 0.18039 0.7232 0.89181 0.0
C894 C 0.19195 0.70253 0.89121 0.0
C895 C 0.17525 0.67199 0.89376 0.0
C896 C 0.1464 0.66259 0.89682 0.0
C897 C 0.13494 0.68331 0.89744 0.0
C898 C 0.17832 0.82192 0.88225 0.0
C899 C 0.23541 0.83571 0.8939 0.0
O900 O 0.19535 0.90213 0.90128 0.0
O901 O 0.2198 0.90942 0.8921 0.0
O902 O 0.20403 0.85246 0.90568 0.0
O903 O 0.16247 0.82213 0.90124 0.0
O904 O 0.14622 0.85324 0.89267 0.0
O905 O 0.11907 0.79917 0.89405 0.0
O906 O 0.13045 0.74511 0.8914 0.0
O907 O 0.15997 0.75997 0.89998 0.0
O908 O 0.16346 0.79186 0.88306 0.0
O909 O 0.18216 0.83441 0.88779 0.0
O910 O 0.21035 0.80747 0.89459 0.0
O911 O 0.2334 0.86132 0.89363 0.0
H912 H 0.21606 0.96166 0.90628 0.0
H913 H 0.22324 1.014 0.9051 0.0
H914 H 0.21855 1.00352 0.88433 0.0
H915 H 0.2113 0.95077 0.88553 0.0
H916 H 0.19399 0.74674 0.88992 0.0
H917 H 0.21402 0.71051 0.88875 0.0
H918 H 0.13307 0.63949 0.89892 0.0
H919 H 0.11313 0.67572 0.89998 0.0
La920 La 0.23576 0.36282 0.89604 0.0
La921 La 0.30661 0.40263 0.89353 0.0
C922 C 0.17751 0.32516 0.89696 0.0
C923 C 0.14825 0.29636 0.89497 0.0
C924 C 0.13896 0.26735 0.89795 0.0
C925 C 0.10863 0.2419 0.89706 0.0
C926 C 0.08664 0.24485 0.89323 0.0
C927 C 0.09642 0.27352 0.89005 0.0
C928 C 0.12672 0.29887 0.89092 0.0
C929 C 0.2738 0.38644 0.9063 0.0
C930 C 0.2743 0.32928 0.89245 0.0
C931 C 0.36282 0.44101 0.89618 0.0
C932 C 0.38376 0.47508 0.89513 0.0
C933 C 0.41349 0.48634 0.8924 0.0
C934 C 0.43394 0.51858 0.89168 0.0
C935 C 0.42519 0.54039 0.89371 0.0
C936 C 0.39519 0.52893 0.89637 0.0
C937 C 0.37476 0.49678 0.89705 0.0
C938 C 0.27765 0.39231 0.88222 0.0
C939 C 0.26323 0.43425 0.89409 0.0
O940 O 0.19859 0.32279 0.90038 0.0
O941 O 0.19005 0.34915 0.89301 0.0
O942 O 0.24686 0.3847 0.90584 0.0
O943 O 0.27786 0.37501 0.90124 0.0
O944 O 0.24719 0.32869 0.8921 0.0
O945 O 0.30096 0.35547 0.89374 0.0
O946 O 0.35437 0.42274 0.89108 0.0
O947 O 0.33949 0.43332 0.90017 0.0
O948 O 0.30764 0.40779 0.88307 0.0
O949 O 0.26493 0.38285 0.88773 0.0
O950 O 0.29161 0.43782 0.89472 0.0
O951 O 0.23798 0.40642 0.89377 0.0
H952 H 0.15463 0.26464 0.9012 0.0
H953 H 0.10199 0.22035 0.89963 0.0
H954 H 0.08041 0.27662 0.88698 0.0
H955 H 0.13282 0.32093 0.88863 0.0
H956 H 0.42102 0.47017 0.89087 0.0
H957 H 0.45661 0.52639 0.88952 0.0
H958 H 0.38765 0.5448 0.89809 0.0
H959 H 0.35206 0.48901 0.8992 0.0
La960 La 0.82567 0.7355 0.72679 0.0
La961 La 0.85637 0.69501 0.7293 0.0
C962 C 0.80702 0.77297 0.72975 0.0
C963 C 0.81716 0.80642 0.72881 0.0
C964 C 0.83068 0.82231 0.72301 0.0
C965 C 0.84194 0.85458 0.72249 0.0
C966 C 0.84015 0.87167 0.72778 0.0
C967 C 0.82654 0.85544 0.73357 0.0
C968 C 0.81515 0.82328 0.73406 0.0
C969 C 0.84555 0.72627 0.71555 0.0
C970 C 0.90069 0.76671 0.72769 0.0
C971 C 0.8771 0.65748 0.7302 0.0
C972 C 0.8762 0.62728 0.72903 0.0
C973 C 0.87732 0.6104 0.73441 0.0
C974 C 0.8821 0.58493 0.73363 0.0
C975 C 0.88586 0.57545 0.72744 0.0
C976 C 0.88341 0.5915 0.72202 0.0
C977 C 0.87889 0.6173 0.72281 0.0
C978 C 0.84096 0.71797 0.73953 0.0
C979 C 0.78412 0.66176 0.72578 0.0
O980 O 0.7965 0.75419 0.72472 0.0
O981 O 0.82571 0.76772 0.73335 0.0
O982 O 0.83113 0.74189 0.71637 0.0
O983 O 0.84803 0.71616 0.72105 0.0
O984 O 0.87585 0.77038 0.72814 0.0
O985 O 0.89816 0.73886 0.72741 0.0
O986 O 0.85755 0.65844 0.73434 0.0
O987 O 0.88418 0.67761 0.72546 0.0
O988 O 0.86619 0.71618 0.73916 0.0
O989 O 0.82609 0.70701 0.73438 0.0
O990 O 0.81035 0.66057 0.72564 0.0
O991 O 0.784 0.68831 0.72689 0.0
H992 H 0.83285 0.80989 0.71891 0.0
H993 H 0.85194 0.86609 0.71794 0.0
H994 H 0.8253 0.86768 0.7378 0.0
H995 H 0.80528 0.81161 0.73862 0.0
H996 H 0.87572 0.61771 0.73927 0.0
H997 H 0.88334 0.57291 0.73791 0.0
H998 H 0.8863 0.58494 0.71718 0.0
H999 H 0.87854 0.63 0.71856 0.0
La1000 La 0.36232 0.12505 0.72698 0.0
La1001 La 0.4017 0.19634 0.72937 0.0
C1002 C 0.325 0.06864 0.72982 0.0
C1003 C 0.29171 0.04607 0.72855 0.0
C1004 C 0.27258 0.05529 0.72533 0.0
C1005 C 0.24036 0.03455 0.72474 0.0
C1006 C 0.22659 1.00411 0.72734 0.0
C1007 C 0.24608 0.99491 0.73046 0.0
C1008 C 0.27824 1.01569 0.73106 0.0
C1009 C 0.37144 0.15373 0.71567 0.0
C1010 C 0.33017 0.1681 0.72758 0.0
C1011 C 0.43871 0.25472 0.73031 0.0
C1012 C 0.46891 0.28418 0.72924 0.0
C1013 C 0.4845 0.30268 0.73465 0.0
C1014 C 0.50996 0.33298 0.73391 0.0
C1015 C 0.52074 0.34576 0.72772 0.0
C1016 C 0.506 0.32676 0.72228 0.0
C1017 C 0.48019 0.29639 0.72303 0.0
C1018 C 0.37827 0.15815 0.73962 0.0
C1019 C 0.43599 0.15809 0.72603 0.0
O1020 O 0.3443 0.07729 0.72488 0.0
O1021 O 0.33 0.09236 0.73347 0.0
O1022 O 0.35625 0.12372 0.71654 0.0
O1023 O 0.38125 0.16655 0.72115 0.0
O1024 O 0.32695 0.13981 0.7282 0.0
O1025 O 0.35782 0.19363 0.72723 0.0
O1026 O 0.43742 0.23426 0.73452 0.0
O1027 O 0.41921 0.24156 0.72548 0.0
O1028 O 0.37922 0.18476 0.7391 0.0
O1029 O 0.39006 0.15437 0.73458 0.0
O1030 O 0.43665 0.18527 0.72581 0.0
O1031 O 0.40974 0.13122 0.7272 0.0
H1032 H 0.28247 0.07873 0.72338 0.0
H1033 H 0.22625 0.04238 0.72224 0.0
H1034 H 0.23636 0.9719 0.73261 0.0
H1035 H 0.2925 1.00824 0.73364 0.0
H1036 H 0.4762 0.29412 0.73949 0.0
H1037 H 0.52095 0.34664 0.7382 0.0
H1038 H 0.51357 0.33583 0.71744 0.0
H1039 H 0.4685 0.28291 0.71876 0.0
La1040 La 0.9726 0.27205 0.72652 0.0
La1041 La 0.90152 0.24124 0.72916 0.0
C1042 C 0.02905 0.29066 0.72915 0.0
C1043 C 0.05138 0.27976 0.72779 0.0
C1044 C 0.0416 0.25089 0.72475 0.0
C1045 C 0.06212 0.23916 0.72413 0.0
C1046 C 0.09287 0.25606 0.72655 0.0
C1047 C 0.10264 0.28529 0.72947 0.0
C1048 C 0.08209 0.29693 0.7301 0.0
C1049 C 0.94289 0.25151 0.71535 0.0
C1050 C 0.92893 0.19708 0.72749 0.0
C1051 C 0.84334 0.22054 0.73022 0.0
C1052 C 0.81381 0.22111 0.72915 0.0
C1053 C 0.79559 0.21874 0.73457 0.0
C1054 C 0.76528 0.21385 0.73385 0.0
C1055 C 0.75222 0.21127 0.72768 0.0
C1056 C 0.77093 0.21495 0.72222 0.0
C1057 C 0.80131 0.21955 0.72295 0.0
C1058 C 0.94035 0.25681 0.73932 0.0
C1059 C 0.94029 0.31336 0.72549 0.0
O1060 O 1.02022 0.30148 0.72426 0.0
O1061 O 1.00553 0.27197 0.73286 0.0
O1062 O 0.97293 0.26599 0.71611 0.0
O1063 O 0.93063 0.24935 0.72087 0.0
O1064 O 0.95735 0.22197 0.728 0.0
O1065 O 0.90356 0.19949 0.72719 0.0
O1066 O 0.86413 0.24034 0.73429 0.0
O1067 O 0.85604 0.21326 0.72545 0.0
O1068 O 0.91331 0.23155 0.73899 0.0
O1069 O 0.94407 0.27168 0.73417 0.0
O1070 O 0.91294 0.28705 0.72538 0.0
O1071 O 0.96701 0.31368 0.72664 0.0
H1072 H 1.01789 0.23714 0.72297 0.0
H1073 H 0.05384 0.21679 0.72179 0.0
H1074 H 0.12593 0.29879 0.73147 0.0
H1075 H 0.08997 0.31904 0.73254 0.0
H1076 H 0.8044 0.21949 0.73941 0.0
H1077 H 0.75186 0.21164 0.73816 0.0
H1078 H 0.76162 0.213 0.71739 0.0
H1079 H 0.81456 0.22091 0.71866 0.0
La1080 La 0.41171 0.15068 0.1384 0.0
La1081 La 0.37249 0.18278 0.13604 0.0
C1082 C 0.44867 0.13122 0.13553 0.0
C1083 C 0.48195 0.14178 0.13675 0.0
C1084 C 0.50086 0.16917 0.14028 0.0
C1085 C 0.5331 0.18068 0.14084 0.0
C1086 C 0.54711 0.16505 0.13788 0.0
C1087 C 0.52785 0.13735 0.13442 0.0
C1088 C 0.49568 0.12593 0.13385 0.0
C1089 C 0.40244 0.17006 0.14973 0.0
C1090 C 0.44409 0.22577 0.13789 0.0
C1091 C 0.33533 0.20404 0.13522 0.0
C1092 C 0.30657 0.20468 0.13719 0.0
C1093 C 0.27729 0.18422 0.13441 0.0
C1094 C 0.25181 0.18912 0.13526 0.0
C1095 C 0.255 0.21482 0.13885 0.0
C1096 C 0.28396 0.23447 0.14183 0.0
C1097 C 0.30933 0.22951 0.14101 0.0
C1098 C 0.39564 0.16807 0.12573 0.0
C1099 C 0.33825 0.11061 0.13957 0.0
O1100 O 0.42952 0.12076 0.1405 0.0
O1101 O 0.44374 0.15002 0.13188 0.0
O1102 O 0.41772 0.15533 0.14887 0.0
O1103 O 0.39278 0.17316 0.14424 0.0
O1104 O 0.4472 0.20072 0.13714 0.0
O1105 O 0.41649 0.22369 0.13831 0.0
O1106 O 0.33291 0.18083 0.13171 0.0
O1107 O 0.35908 0.2149 0.13922 0.0
O1108 O 0.3942 0.19346 0.12622 0.0
O1109 O 0.38411 0.15259 0.1308 0.0
O1110 O 0.33816 0.13737 0.14002 0.0
O1111 O 0.36413 0.10973 0.13816 0.0
H1112 H 0.49077 0.18196 0.1425 0.0
H1113 H 0.54703 0.20186 0.14359 0.0
H1114 H 0.53777 0.12491 0.13199 0.0
H1115 H 0.4816 0.10505 0.13102 0.0
H1116 H 0.27434 0.16517 0.13134 0.0
H1117 H 0.23003 0.17357 0.13284 0.0
H1118 H 0.28728 0.25418 0.14472 0.0
H1119 H 0.33158 0.24603 0.14314 0.0
La1120 La 0.94809 0.29673 0.13843 0.0
La1121 La 0.91677 0.2258 0.13549 0.0
C1122 C 0.96632 0.35342 0.1361 0.0
C1123 C 0.95417 0.37497 0.13736 0.0
C1124 C 0.97465 0.40619 0.13907 0.0
C1125 C 0.96371 0.42738 0.13971 0.0
C1126 C 0.93199 0.41781 0.13863 0.0
C1127 C 0.91145 0.38625 0.13707 0.0
C1128 C 0.92237 0.36515 0.13646 0.0
C1129 C 0.92914 0.26591 0.14952 0.0
C1130 C 0.87286 0.25321 0.13763 0.0
C1131 C 0.89577 0.16763 0.13431 0.0
C1132 C 0.89661 0.1383 0.13543 0.0
C1133 C 0.89361 0.11963 0.13005 0.0
C1134 C 0.88876 0.08936 0.13084 0.0
C1135 C 0.88683 0.07684 0.13706 0.0
C1136 C 0.89125 0.09604 0.14246 0.0
C1137 C 0.89584 0.12638 0.14166 0.0
C1138 C 0.93206 0.2655 0.12549 0.0
C1139 C 0.9892 0.264 0.13902 0.0
O1140 O 0.97626 0.34423 0.14107 0.0
O1141 O 0.94968 0.33043 0.1321 0.0
O1142 O 0.9438 0.29607 0.14892 0.0
O1143 O 0.92586 0.25423 0.14391 0.0
O1144 O 0.8978 0.28176 0.13732 0.0
O1145 O 0.87523 0.22779 0.13762 0.0
O1146 O 0.91569 0.18854 0.13027 0.0
O1147 O 0.88842 0.18021 0.13909 0.0
O1148 O 0.90685 0.2384 0.12576 0.0
O1149 O 0.94711 0.26877 0.1306 0.0
O1150 O 0.96277 0.23672 0.13898 0.0
O1151 O 0.98967 0.29106 0.13818 0.0
H1152 H 0.99926 0.41437 0.13979 0.0
H1153 H 0.98019 0.45131 0.14102 0.0
H1154 H 0.88701 0.37796 0.1361 0.0
H1155 H 0.90599 0.34128 0.1351 0.0
H1156 H 0.89378 0.12803 0.12519 0.0
H1157 H 0.88596 0.07551 0.12657 0.0
H1158 H 0.88982 0.08713 0.14732 0.0
H1159 H 0.89773 0.14004 0.14591 0.0
La1160 La 0.80122 0.68748 0.13834 0.0
La1161 La 0.87253 0.72772 0.13596 0.0
C1162 C 0.74515 0.65018 0.13532 0.0
C1163 C 0.7221 0.61664 0.13624 0.0
C1164 C 0.72149 0.60029 0.14186 0.0
C1165 C 0.70069 0.56797 0.14236 0.0
C1166 C 0.68026 0.55127 0.13722 0.0
C1167 C 0.68113 0.56796 0.13162 0.0
C1168 C 0.70171 0.60019 0.13115 0.0
C1169 C 0.82992 0.6965 0.14964 0.0
C1170 C 0.84481 0.65602 0.13748 0.0
C1171 C 0.93083 0.76516 0.13512 0.0
C1172 C 0.96018 0.79548 0.13618 0.0
C1173 C 0.97843 0.81145 0.13077 0.0
C1174 C 1.00865 0.83704 0.13149 0.0
C1175 C 1.02161 0.84757 0.13768 0.0
C1176 C 1.00287 0.83241 0.14312 0.0
C1177 C 0.97258 0.80648 0.14239 0.0
C1178 C 0.83447 0.70464 0.12569 0.0
C1179 C 0.83346 0.76112 0.13936 0.0
O1180 O 0.75336 0.66868 0.1404 0.0
O1181 O 0.76909 0.65578 0.13169 0.0
O1182 O 0.79992 0.68102 0.14877 0.0
O1183 O 0.84271 0.70659 0.14416 0.0
O1184 O 0.81634 0.65246 0.13706 0.0
O1185 O 0.87022 0.68376 0.1378 0.0
O1186 O 0.91051 0.76367 0.13085 0.0
O1187 O 0.91756 0.74564 0.13995 0.0
O1188 O 0.8613 0.70606 0.12614 0.0
O1189 O 0.83048 0.7159 0.13079 0.0
O1190 O 0.86087 0.76229 0.1395 0.0
O1191 O 0.80679 0.73462 0.13825 0.0
H1192 H 0.73729 0.6124 0.14583 0.0
H1193 H 0.70058 0.55613 0.14678 0.0
H1194 H 0.66639 0.55604 0.1275 0.0
H1195 H 0.70214 0.61222 0.12672 0.0
H1196 H 0.96974 0.80336 0.12592 0.0
H1197 H 1.0221 0.84834 0.12719 0.0
H1198 H 1.01208 0.83978 0.14796 0.0
H1199 H 0.95933 0.7945 0.14667 0.0
La1200 La 0.91698 0.72687 0.63605 0.0
La1201 La 0.9482 0.68677 0.63839 0.0
C1202 C 0.89601 0.76432 0.63543 0.0
C1203 C 0.89594 0.79337 0.63739 0.0
C1204 C 0.91566 0.82224 0.63437 0.0
C1205 C 0.91105 0.84788 0.63524 0.0
C1206 C 0.88637 0.84528 0.63912 0.0
C1207 C 0.8675 0.81675 0.64234 0.0
C1208 C 0.87218 0.79121 0.64149 0.0
C1209 C 0.93256 0.70483 0.62571 0.0
C1210 C 0.98887 0.7602 0.63978 0.0
C1211 C 0.96762 0.65003 0.63535 0.0
C1212 C 0.95715 0.61645 0.6362 0.0
C1213 C 0.94233 0.60011 0.64188 0.0
C1214 C 0.93077 0.56777 0.64233 0.0
C1215 C 0.93351 0.55103 0.63708 0.0
C1216 C 0.94844 0.5677 0.63141 0.0
C1217 C 0.96014 0.59995 0.63099 0.0
C1218 C 0.92787 0.69505 0.64968 0.0
C1219 C 0.87325 0.65492 0.6373 0.0
O1220 O 0.91851 0.76631 0.63173 0.0
O1221 O 0.88572 0.74083 0.6395 0.0
O1222 O 0.9074 0.70669 0.62611 0.0
O1223 O 0.94748 0.71547 0.63087 0.0
O1224 O 0.96235 0.76079 0.64006 0.0
O1225 O 0.98947 0.7341 0.63845 0.0
O1226 O 0.97746 0.66823 0.64047 0.0
O1227 O 0.94952 0.65578 0.63166 0.0
O1228 O 0.94247 0.67963 0.6488 0.0
O1229 O 0.9254 0.70541 0.64421 0.0
O1230 O 0.89827 0.65153 0.63695 0.0
O1231 O 0.87541 0.68257 0.63769 0.0
H1232 H 0.93385 0.8247 0.63109 0.0
H1233 H 0.92593 0.86929 0.63263 0.0
H1234 H 0.8486 0.81391 0.64545 0.0
H1235 H 0.85623 0.76926 0.64382 0.0
H1236 H 0.93939 0.61224 0.64595 0.0
H1237 H 0.91978 0.55594 0.6468 0.0
H1238 H 0.95049 0.55575 0.62722 0.0
H1239 H 0.97103 0.61198 0.62652 0.0
La1240 La 0.37047 0.225 0.63599 0.0
La1241 La 0.41083 0.29605 0.63853 0.0
C1242 C 0.33237 0.16683 0.63511 0.0
C1243 C 0.30216 0.13818 0.6367 0.0
C1244 C 0.27976 0.12353 0.63179 0.0
C1245 C 0.25396 0.09351 0.63269 0.0
C1246 C 0.24975 0.07708 0.63852 0.0
C1247 C 0.27157 0.09231 0.64353 0.0
C1248 C 0.29748 0.12238 0.64263 0.0
C1249 C 0.39382 0.26329 0.62578 0.0
C1250 C 0.3374 0.26403 0.63966 0.0
C1251 C 0.44903 0.35238 0.63586 0.0
C1252 C 0.48289 0.3739 0.63695 0.0
C1253 C 0.49396 0.40539 0.63846 0.0
C1254 C 0.52613 0.42641 0.63904 0.0
C1255 C 0.54804 0.41642 0.63807 0.0
C1256 C 0.53672 0.38464 0.63667 0.0
C1257 C 0.50461 0.36367 0.63613 0.0
C1258 C 0.40141 0.26668 0.64977 0.0
C1259 C 0.44193 0.25211 0.63756 0.0
O1260 O 0.33238 0.18776 0.6312 0.0
O1261 O 0.35422 0.17945 0.63954 0.0
O1262 O 0.39201 0.23626 0.62618 0.0
O1263 O 0.38268 0.26738 0.63089 0.0
O1264 O 0.33646 0.23672 0.63983 0.0
O1265 O 0.36379 0.29075 0.63848 0.0
O1266 O 0.43055 0.34384 0.64094 0.0
O1267 O 0.44205 0.32893 0.63194 0.0
O1268 O 0.41697 0.29671 0.64896 0.0
O1269 O 0.39138 0.25418 0.64427 0.0
O1270 O 0.44567 0.28068 0.63719 0.0
O1271 O 0.41412 0.22681 0.63784 0.0
H1272 H 0.28295 0.13468 0.62711 0.0
H1273 H 0.23813 0.08265 0.62866 0.0
H1274 H 0.26899 0.08078 0.64814 0.0
H1275 H 0.3144 0.13272 0.6465 0.0
H1276 H 0.47772 0.41387 0.63912 0.0
H1277 H 0.53381 0.45052 0.64023 0.0
H1278 H 0.55267 0.37601 0.6358 0.0
H1279 H 0.49687 0.33957 0.63493 0.0
La1280 La 0.87296 0.18273 0.63557 0.0
La1281 La 0.80185 0.15041 0.63817 0.0
C1282 C 0.93138 0.20411 0.6347 0.0
C1283 C 0.9601 0.20278 0.63637 0.0
C1284 C 0.97096 0.18767 0.63222 0.0
C1285 C 1.00099 0.19171 0.63298 0.0
C1286 C 1.02121 0.21116 0.63787 0.0
C1287 C 1.00982 0.2252 0.64219 0.0
C1288 C 0.97978 0.22119 0.64143 0.0
C1289 C 0.83447 0.16744 0.62539 0.0
C1290 C 0.83539 0.11029 0.63916 0.0
C1291 C 0.74531 0.13137 0.63559 0.0
C1292 C 0.72374 0.14372 0.63664 0.0
C1293 C 0.6934 0.12409 0.63898 0.0
C1294 C 0.67235 0.13518 0.63964 0.0
C1295 C 0.68113 0.16618 0.63795 0.0
C1296 C 0.71174 0.18586 0.63568 0.0
C1297 C 0.73274 0.17482 0.63505 0.0
C1298 C 0.83135 0.17089 0.64937 0.0
C1299 C 0.84425 0.2256 0.63741 0.0
O1300 O 0.91076 0.18315 0.63076 0.0
O1301 O 0.9183 0.21287 0.63912 0.0
O1302 O 0.86115 0.19306 0.62581 0.0
O1303 O 0.83081 0.15206 0.63047 0.0
O1304 O 0.86236 0.13704 0.63926 0.0
O1305 O 0.80825 0.10929 0.63814 0.0
O1306 O 0.75426 0.12203 0.6407 0.0
O1307 O 0.76844 0.14741 0.63157 0.0
O1308 O 0.80131 0.1559 0.64861 0.0
O1309 O 0.84371 0.17356 0.64385 0.0
O1310 O 0.81608 0.20039 0.63681 0.0
O1311 O 0.86991 0.22373 0.63771 0.0
H1312 H 0.95674 0.17368 0.62821 0.0
H1313 H 1.0086 0.18004 0.62962 0.0
H1314 H 1.02465 0.24057 0.64598 0.0
H1315 H 0.97255 0.23373 0.64464 0.0
H1316 H 0.68586 0.10004 0.64024 0.0
H1317 H 0.6492 0.11941 0.6415 0.0
H1318 H 0.71935 0.20967 0.63422 0.0
H1319 H 0.7559 0.19059 0.6332 0.0
La1320 La 0.40024 0.23957 0.22935 0.0
La1321 La 0.36136 0.27214 0.22687 0.0
C1322 C 0.43661 0.21739 0.23015 0.0
C1323 C 0.46714 0.21873 0.22917 0.0
C1324 C 0.48206 0.21483 0.23459 0.0
C1325 C 0.50783 0.2105 0.23387 0.0
C1326 C 0.51959 0.20997 0.2277 0.0
C1327 C 0.50547 0.21517 0.22227 0.0
C1328 C 0.47938 0.21925 0.22299 0.0
C1329 C 0.37712 0.25467 0.23956 0.0
C1330 C 0.43536 0.31253 0.22612 0.0
C1331 C 0.32457 0.29171 0.22981 0.0
C1332 C 0.29107 0.2816 0.22893 0.0
C1333 C 0.27509 0.26841 0.22312 0.0
C1334 C 0.24289 0.25748 0.22262 0.0
C1335 C 0.22591 0.25927 0.22793 0.0
C1336 C 0.24221 0.27252 0.23373 0.0
C1337 C 0.27431 0.28357 0.23421 0.0
C1338 C 0.37043 0.25211 0.21562 0.0
C1339 C 0.32859 0.19686 0.22755 0.0
O1340 O 0.43434 0.23498 0.2346 0.0
O1341 O 0.41831 0.21295 0.22518 0.0
O1342 O 0.37789 0.2289 0.23908 0.0
O1343 O 0.38888 0.27021 0.2345 0.0
O1344 O 0.43595 0.28596 0.22614 0.0
O1345 O 0.40895 0.31328 0.22695 0.0
O1346 O 0.34302 0.30155 0.22472 0.0
O1347 O 0.33003 0.27344 0.23351 0.0
O1348 O 0.3553 0.26705 0.21642 0.0
O1349 O 0.37999 0.24917 0.22114 0.0
O1350 O 0.32561 0.22209 0.22815 0.0
O1351 O 0.35611 0.19872 0.2272 0.0
H1352 H 0.47302 0.21394 0.23941 0.0
H1353 H 0.51831 0.20708 0.23817 0.0
H1354 H 0.51378 0.21481 0.21744 0.0
H1355 H 0.46823 0.2218 0.2187 0.0
H1356 H 0.28739 0.26629 0.21899 0.0
H1357 H 0.23138 0.24778 0.21805 0.0
H1358 H 0.23007 0.27378 0.23798 0.0
H1359 H 0.28602 0.29323 0.23877 0.0
La1360 La 0.85548 0.19736 0.22927 0.0
La1361 La 0.82498 0.12648 0.22656 0.0
C1362 C 0.87544 0.25551 0.23024 0.0
C1363 C 0.87628 0.28478 0.2281 0.0
C1364 C 0.85564 0.29376 0.23071 0.0
C1365 C 0.86064 0.3241 0.22974 0.0
C1366 C 0.88661 0.34642 0.22618 0.0
C1367 C 0.90644 0.33695 0.22334 0.0
C1368 C 0.90139 0.30664 0.2243 0.0
C1369 C 0.84005 0.15856 0.23945 0.0
C1370 C 0.78384 0.15866 0.22545 0.0
C1371 C 0.80718 0.07002 0.22901 0.0
C1372 C 0.81979 0.04883 0.22776 0.0
C1373 C 0.80004 0.0182 0.22559 0.0
C1374 C 0.81137 0.99738 0.22484 0.0
C1375 C 0.84272 1.00669 0.22629 0.0
C1376 C 0.86254 0.03763 0.22835 0.0
C1377 C 0.85127 0.05841 0.22906 0.0
C1378 C 0.84374 0.15645 0.21536 0.0
C1379 C 0.8999 0.17042 0.22731 0.0
O1380 O 0.85106 0.23405 0.23338 0.0
O1381 O 0.88821 0.24341 0.22654 0.0
O1382 O 0.8648 0.18597 0.23918 0.0
O1383 O 0.82533 0.15468 0.23428 0.0
O1384 O 0.81036 0.18578 0.22508 0.0
O1385 O 0.78339 0.13203 0.22682 0.0
O1386 O 0.79696 0.07884 0.22402 0.0
O1387 O 0.82356 0.09318 0.23299 0.0
O1388 O 0.82936 0.12637 0.21608 0.0
O1389 O 0.84683 0.16859 0.22092 0.0
O1390 O 0.87519 0.14189 0.22786 0.0
O1391 O 0.89718 0.19562 0.22706 0.0
H1392 H 0.83639 0.27781 0.23376 0.0
H1393 H 0.84496 0.3305 0.23204 0.0
H1394 H 0.92638 0.35322 0.22049 0.0
H1395 H 0.91805 0.3008 0.22228 0.0
H1396 H 0.77571 1.01022 0.22455 0.0
H1397 H 0.79547 0.97395 0.22313 0.0
H1398 H 0.88664 0.04568 0.22962 0.0
H1399 H 0.86713 0.08182 0.23077 0.0
La1400 La 0.90002 0.69596 0.2294 0.0
La1401 La 0.97106 0.73546 0.2269 0.0
C1402 C 0.84162 0.65867 0.23019 0.0
C1403 C 0.81227 0.62985 0.22823 0.0
C1404 C 0.80333 0.60063 0.23107 0.0
C1405 C 0.77299 0.57511 0.23021 0.0
C1406 C 0.75062 0.5782 0.22654 0.0
C1407 C 0.76004 0.6071 0.22349 0.0
C1408 C 0.79035 0.63251 0.22434 0.0
C1409 C 0.93808 0.71871 0.23966 0.0
C1410 C 0.93795 0.66197 0.22565 0.0
C1411 C 0.0273 0.77238 0.22986 0.0
C1412 C 0.05006 0.80595 0.22894 0.0
C1413 C 0.04722 0.82327 0.22385 0.0
C1414 C 0.06733 0.85576 0.22348 0.0
C1415 C 0.09032 0.87158 0.22825 0.0
C1416 C 0.09322 0.85395 0.23328 0.0
C1417 C 0.07333 0.82155 0.23361 0.0
C1418 C 0.94222 0.72653 0.21562 0.0
C1419 C 0.92825 0.76768 0.2277 0.0
O1420 O 0.86239 0.65634 0.23373 0.0
O1421 O 0.85453 0.68241 0.22618 0.0
O1422 O 0.91114 0.71702 0.23925 0.0
O1423 O 0.94206 0.70754 0.23454 0.0
O1424 O 0.91098 0.66168 0.22542 0.0
O1425 O 0.96485 0.68804 0.22688 0.0
O1426 O 1.01881 0.75411 0.22474 0.0
O1427 O 1.00355 0.76664 0.23356 0.0
O1428 O 0.97224 0.7418 0.21647 0.0
O1429 O 0.9294 0.71654 0.22111 0.0
O1430 O 0.95663 0.77104 0.2281 0.0
O1431 O 0.90275 0.74001 0.22745 0.0
H1432 H 0.81933 0.59776 0.2342 0.0
H1433 H 0.76666 0.55338 0.23267 0.0
H1434 H 0.74376 0.61035 0.22055 0.0
H1435 H 0.79617 0.65472 0.22215 0.0
H1436 H 0.02904 0.8118 0.22024 0.0
H1437 H 0.06427 0.86863 0.21957 0.0
H1438 H 0.11087 0.86525 0.23699 0.0
H1439 H 0.07571 0.80871 0.23762 0.0
H1440 H 0.38794 0.11023 0.1234 0.0
H1441 H 0.40923 0.09363 0.11456 0.0
H1442 H 0.45466 0.18712 0.10675 0.0
H1443 H 0.43246 0.20358 0.11554 0.0
H1444 H 0.43093 0.14701 0.09716 0.0
H1445 H 0.49479 0.10635 0.11257 0.0
H1446 H 0.45405 0.08646 0.11456 0.0
H1447 H 0.47744 0.12805 0.1158 0.0
C1448 C 0.40254 0.12733 0.11981 0.0
C1449 C 0.40868 0.15836 0.12023 0.0
C1450 C 0.41503 0.11784 0.11476 0.0
C1451 C 0.43444 0.13916 0.11001 0.0
C1452 C 0.44007 0.1701 0.11035 0.0
H1453 H 0.54461 0.0916 0.08315 0.0
H1454 H 0.52803 0.11358 0.09196 0.0
C1455 C 0.42735 0.17956 0.11539 0.0
C1456 C 0.448 0.1289 0.10461 0.0
H1457 H 0.48756 0.08966 0.1015 0.0
C1458 C 0.44348 0.13466 0.09814 0.0
C1459 C 0.46513 0.1133 0.10579 0.0
C1460 C 0.47345 0.10849 0.11255 0.0
C1461 C 0.45453 0.12455 0.09288 0.0
C1462 C 0.46992 0.10721 0.09405 0.0
C1463 C 0.47537 0.10237 0.10053 0.0
C1464 C 0.48025 0.09375 0.08865 0.0
C1465 C 0.45007 0.13322 0.08612 0.0
C1466 C 0.45907 0.07463 0.08385 0.0
C1467 C 0.46863 0.06229 0.07879 0.0
C1468 C 0.49958 0.06825 0.0784 0.0
C1469 C 0.52064 0.08662 0.08328 0.0
C1470 C 0.51111 0.09922 0.08833 0.0
H1471 H 0.44809 0.15466 0.08612 0.0
H1472 H 0.4697 0.13722 0.08289 0.0
H1473 H 0.42807 0.11397 0.08408 0.0
H1474 H 0.43491 0.06896 0.08403 0.0
H1475 H 0.45163 0.04791 0.07517 0.0
H1476 H 0.98798 0.31971 0.12424 0.0
H1477 H 1.00551 0.35846 0.11557 0.0
H1478 H 0.91948 0.30098 0.10527 0.0
H1479 H 0.90108 0.26301 0.11419 0.0
H1480 H 1.01979 0.35918 0.10386 0.0
H1481 H 0.92044 0.38084 0.10349 0.0
H1482 H 0.92488 0.3579 0.10974 0.0
H1483 H 0.9079 0.34048 0.10205 0.0
C1484 C 0.97252 0.31551 0.12018 0.0
C1485 C 0.94277 0.28848 0.12001 0.0
C1486 C 0.98269 0.33772 0.11517 0.0
C1487 C 0.96372 0.33345 0.10974 0.0
C1488 C 0.93434 0.3058 0.10946 0.0
H1489 H 0.04652 0.43801 0.07378 0.0
H1490 H 0.02579 0.3997 0.08253 0.0
C1491 C 0.92389 0.28378 0.11455 0.0
C1492 C 0.97541 0.35741 0.10434 0.0
H1493 H 0.95594 0.40148 0.09461 0.0
C1494 C 1.00573 0.36845 0.10189 0.0
C1495 C 0.9577 0.37038 0.10176 0.0
C1496 C 0.92608 0.36206 0.10444 0.0
C1497 C 1.01857 0.3914 0.09698 0.0
C1498 C 1.00025 0.40312 0.09415 0.0
C1499 C 0.97007 0.39244 0.09666 0.0
C1500 C 1.01195 0.42636 0.08863 0.0
C1501 C 0.05214 0.40349 0.09505 0.0
C1502 C 1.01001 0.45391 0.08887 0.0
C1503 C 1.02107 0.47559 0.08371 0.0
C1504 C 0.03439 0.47034 0.07817 0.0
C1505 C 0.03633 0.44286 0.07795 0.0
C1506 C 1.02478 0.42099 0.08302 0.0
H1507 H 0.06566 0.40085 0.09906 0.0
H1508 H 0.0529 0.38972 0.09089 0.0
H1509 H 0.06388 0.42853 0.09365 0.0
H1510 H 1.00017 0.45884 0.09308 0.0
H1511 H 1.01923 0.49648 0.08407 0.0
H1512 H 0.60893 0.55569 0.08312 0.0
H1513 H 0.64739 0.5726 0.09193 0.0
H1514 H 0.69389 0.66639 0.08425 0.0
H1515 H 0.65611 0.64929 0.07537 0.0
H1516 H 0.73629 0.65242 0.08778 0.0
H1517 H 0.65251 0.6187 0.10809 0.0
H1518 H 0.64478 0.58631 0.10298 0.0
H1519 H 0.64097 0.61821 0.09979 0.0
C1520 C 0.62727 0.57994 0.08333 0.0
C1521 C 0.6293 0.6011 0.07853 0.0
C1522 C 0.64925 0.58972 0.08842 0.0
C1523 C 0.67356 0.62109 0.08891 0.0
C1524 C 0.67554 0.64212 0.08407 0.0
H1525 H 0.78399 0.71197 0.1235 0.0
H1526 H 0.74635 0.69147 0.11459 0.0
C1527 C 0.65377 0.63232 0.07898 0.0
C1528 C 0.69723 0.63208 0.09434 0.0
H1529 H 0.70502 0.63505 0.11087 0.0
C1530 C 0.72933 0.64859 0.09283 0.0
C1531 C 0.68861 0.62765 0.10098 0.0
C1532 C 0.65487 0.61205 0.10307 0.0
C1533 C 0.75268 0.66059 0.09768 0.0
C1534 C 0.74407 0.65541 0.10431 0.0
C1535 C 0.71197 0.63893 0.10583 0.0
C1536 C 0.76771 0.66799 0.10975 0.0
C1537 C 0.78638 0.67968 0.0956 0.0
C1538 C 0.79257 0.66171 0.11014 0.0
C1539 C 0.81447 0.6738 0.11524 0.0
C1540 C 0.81182 0.69204 0.12016 0.0
C1541 C 0.78682 0.69802 0.11981 0.0
C1542 C 0.76512 0.68617 0.1147 0.0
H1543 H 0.78852 0.68918 0.09063 0.0
H1544 H 0.79989 0.6995 0.09896 0.0
H1545 H 0.79706 0.66456 0.09558 0.0
H1546 H 0.79491 0.64713 0.10654 0.0
H1547 H 0.83323 0.66849 0.11539 0.0
H1548 H 0.05437 0.44175 0.45676 0.0
H1549 H 0.07538 0.42487 0.44791 0.0
H1550 H 0.12038 0.51806 0.43995 0.0
H1551 H 0.09846 0.53479 0.44874 0.0
H1552 H 0.09633 0.47749 0.43043 0.0
H1553 H 0.16102 0.43782 0.44585 0.0
H1554 H 0.12033 0.41794 0.44788 0.0
H1555 H 0.14368 0.45959 0.44905 0.0
C1556 C 0.06882 0.45872 0.45313 0.0
C1557 C 0.07492 0.48975 0.45351 0.0
C1558 C 0.08114 0.44907 0.44808 0.0
C1559 C 0.10035 0.47023 0.44328 0.0
C1560 C 0.10594 0.50116 0.44358 0.0
H1561 H 0.21087 0.42312 0.41648 0.0
H1562 H 0.19402 0.44502 0.42525 0.0
C1563 C 0.09338 0.51078 0.44862 0.0
C1564 C 0.11379 0.45983 0.43789 0.0
H1565 H 0.15368 0.4209 0.4348 0.0
C1566 C 0.10903 0.4653 0.43141 0.0
C1567 C 0.1311 0.44443 0.43907 0.0
C1568 C 0.13965 0.43991 0.44584 0.0
C1569 C 0.12006 0.45512 0.42616 0.0
C1570 C 0.13568 0.43802 0.42734 0.0
C1571 C 0.14132 0.43344 0.43382 0.0
C1572 C 0.14615 0.42463 0.42196 0.0
C1573 C 0.11534 0.46348 0.41939 0.0
C1574 C 0.12503 0.40523 0.41718 0.0
C1575 C 0.13474 0.39292 0.41214 0.0
C1576 C 0.16581 0.39922 0.41175 0.0
C1577 C 0.18682 0.41789 0.41661 0.0
C1578 C 0.17713 0.43044 0.42164 0.0
H1579 H 0.11307 0.48476 0.41937 0.0
H1580 H 0.13499 0.46761 0.41616 0.0
H1581 H 0.09342 0.44401 0.41737 0.0
H1582 H 0.1008 0.39931 0.41736 0.0
H1583 H 0.11779 0.37832 0.40853 0.0
H1584 H 0.65654 0.65477 0.4582 0.0
H1585 H 0.67379 0.69338 0.44949 0.0
H1586 H 0.58837 0.63469 0.4391 0.0
H1587 H 0.57026 0.59682 0.44804 0.0
H1588 H 0.68845 0.69403 0.43778 0.0
H1589 H 0.588 0.71392 0.43723 0.0
H1590 H 0.59277 0.6914 0.44354 0.0
H1591 H 0.576 0.67366 0.43585 0.0
C1592 C 0.64116 0.65026 0.4541 0.0
C1593 C 0.61166 0.6229 0.45391 0.0
C1594 C 0.65117 0.6724 0.44908 0.0
C1595 C 0.63227 0.66773 0.44362 0.0
C1596 C 0.60315 0.63979 0.44332 0.0
H1597 H 0.71392 0.7711 0.40752 0.0
H1598 H 0.69365 0.73325 0.41636 0.0
C1599 C 0.59288 0.61784 0.44841 0.0
C1600 C 0.64375 0.69159 0.4382 0.0
H1601 H 0.62351 0.7347 0.42836 0.0
C1602 C 0.67416 0.70294 0.43577 0.0
C1603 C 0.62572 0.7041 0.43557 0.0
C1604 C 0.59397 0.69541 0.43823 0.0
C1605 C 0.68675 0.72573 0.43082 0.0
C1606 C 0.66812 0.73697 0.42794 0.0
C1607 C 0.63788 0.72602 0.43044 0.0
C1608 C 0.67955 0.75994 0.42237 0.0
C1609 C 0.72039 0.73815 0.4289 0.0
C1610 C 0.6773 0.78732 0.42254 0.0
C1611 C 0.68814 0.80876 0.41734 0.0
C1612 C 0.70153 0.80341 0.41183 0.0
C1613 C 0.7037 0.77605 0.41167 0.0
C1614 C 0.69241 0.75444 0.41679 0.0
H1615 H 0.73405 0.7359 0.43293 0.0
H1616 H 0.72135 0.72433 0.42477 0.0
H1617 H 0.73183 0.76312 0.42745 0.0
H1618 H 0.66741 0.79233 0.42674 0.0
H1619 H 0.68611 0.82956 0.41765 0.0
H1620 H 0.27599 0.88959 0.41641 0.0
H1621 H 0.3143 0.90649 0.42525 0.0
H1622 H 0.36258 0.99963 0.41725 0.0
H1623 H 0.32495 0.9825 0.40834 0.0
H1624 H 0.40408 0.98509 0.42102 0.0
H1625 H 0.32002 0.95405 0.44119 0.0
H1626 H 0.3118 0.92107 0.43622 0.0
H1627 H 0.30874 0.9531 0.43286 0.0
C1628 C 0.2947 0.9137 0.41656 0.0
C1629 C 0.29726 0.93466 0.41166 0.0
C1630 C 0.31659 0.92348 0.42166 0.0
C1631 C 0.34133 0.95467 0.42207 0.0
C1632 C 0.34387 0.9755 0.41713 0.0
H1633 H 0.4512 0.0454 0.45676 0.0
H1634 H 0.41381 0.02517 0.4478 0.0
C1635 C 0.3222 0.96568 0.41202 0.0
C1636 C 0.36485 0.96568 0.42753 0.0
H1637 H 0.37219 0.9694 0.44407 0.0
C1638 C 0.39699 0.98164 0.42605 0.0
C1639 C 0.35607 0.96177 0.43416 0.0
C1640 C 0.32231 0.94686 0.43622 0.0
C1641 C 0.42023 0.9936 0.43093 0.0
C1642 C 0.41143 0.98886 0.43756 0.0
C1643 C 0.37929 0.97293 0.43904 0.0
C1644 C 0.43493 1.00131 0.44303 0.0
C1645 C 0.454 1.01218 0.42887 0.0
C1646 C 0.45956 0.99471 0.44347 0.0
C1647 C 0.48135 1.00669 0.44859 0.0
C1648 C 0.47878 0.0251 0.45348 0.0
C1649 C 0.45396 0.03132 0.45308 0.0
C1650 C 0.43241 0.01962 0.44795 0.0
H1651 H 0.45639 0.02162 0.42389 0.0
H1652 H 0.46771 0.032 0.43222 0.0
H1653 H 0.46428 0.9967 0.4289 0.0
H1654 H 0.46182 0.97997 0.43989 0.0
H1655 H 0.49997 1.00117 0.44877 0.0
H1656 H 0.65654 0.04373 0.95691 0.0
H1657 H 0.67337 0.02295 0.948 0.0
H1658 H 0.58016 0.9782 0.94011 0.0
H1659 H 0.56352 0.99987 0.94894 0.0
H1660 H 0.65821 0.96641 0.94435 0.0
H1661 H 0.62786 0.01982 0.92411 0.0
H1662 H 0.62712 0.03039 0.93243 0.0
H1663 H 0.59493 0.99533 0.92912 0.0
C1664 C 0.63963 0.02962 0.95325 0.0
C1665 C 0.60867 0.02363 0.95364 0.0
C1666 C 0.64929 0.01761 0.94815 0.0
C1667 C 0.62834 0.99925 0.94324 0.0
C1668 C 0.59722 0.99293 0.94367 0.0
H1669 H 0.67406 0.8865 0.91656 0.0
H1670 H 0.65263 0.90341 0.9254 0.0
C1671 C 0.58759 1.00519 0.94877 0.0
C1672 C 0.63919 0.98652 0.9378 0.0
H1673 H 0.64329 0.98301 0.92127 0.0
C1674 C 0.6549 0.97011 0.93931 0.0
C1675 C 0.63545 0.99147 0.93116 0.0
C1676 C 0.62072 1.01047 0.92909 0.0
C1677 C 0.6668 0.95869 0.93446 0.0
C1678 C 0.66232 0.96292 0.92782 0.0
C1679 C 0.64662 0.97933 0.92631 0.0
C1680 C 0.67491 0.9519 0.92238 0.0
C1681 C 0.68506 0.94317 0.93653 0.0
C1682 C 0.69392 0.97297 0.91755 0.0
C1683 C 0.70584 0.96318 0.91245 0.0
C1684 C 0.69907 0.93195 0.91199 0.0
C1685 C 0.67998 0.91075 0.91679 0.0
C1686 C 0.66785 0.92053 0.92189 0.0
H1687 H 0.69415 0.94984 0.94154 0.0
H1688 H 0.66949 0.91742 0.93643 0.0
H1689 H 0.70507 0.94938 0.93323 0.0
H1690 H 0.69984 0.99723 0.91775 0.0
H1691 H 0.72046 0.98018 0.90885 0.0
H1692 H 0.12061 0.77563 0.90853 0.0
H1693 H 0.10375 0.73794 0.91743 0.0
H1694 H 0.19709 0.78597 0.92527 0.0
H1695 H 0.21382 0.82433 0.91641 0.0
H1696 H 0.11908 0.69632 0.92105 0.0
H1697 H 0.14915 0.78001 0.94128 0.0
H1698 H 0.14978 0.79129 0.93295 0.0
H1699 H 0.18201 0.78845 0.93624 0.0
C1700 C 0.13756 0.77832 0.91217 0.0
C1701 C 0.16859 0.80318 0.91175 0.0
C1702 C 0.12788 0.7566 0.91727 0.0
C1703 C 0.14885 0.75903 0.92216 0.0
C1704 C 0.18004 0.78375 0.92171 0.0
H1705 H 0.10204 0.60038 0.94896 0.0
H1706 H 0.12393 0.63879 0.94012 0.0
C1707 C 0.18971 0.80566 0.9166 0.0
C1708 C 0.13792 0.7354 0.9276 0.0
H1709 H 0.13313 0.72764 0.94413 0.0
C1710 C 0.12222 0.70328 0.92609 0.0
C1711 C 0.14144 0.74404 0.93423 0.0
C1712 C 0.15622 0.77779 0.93629 0.0
C1713 C 0.11011 0.67991 0.93094 0.0
C1714 C 0.11431 0.68856 0.93757 0.0
C1715 C 0.13001 0.72068 0.93908 0.0
C1716 C 0.10142 0.6649 0.94301 0.0
C1717 C 0.09193 0.64613 0.92887 0.0
C1718 C 0.08208 0.66686 0.94777 0.0
C1719 C 0.06989 0.64511 0.95287 0.0
C1720 C 0.0767 0.62071 0.9534 0.0
C1721 C 0.0961 0.61868 0.94867 0.0
C1722 C 0.1085 0.64063 0.94358 0.0
H1723 H 0.08314 0.64374 0.92383 0.0
H1724 H 0.10745 0.63592 0.92905 0.0
H1725 H 0.07172 0.63233 0.93212 0.0
H1726 H 0.07612 0.68517 0.94752 0.0
H1727 H 0.05501 0.64742 0.95641 0.0
H1728 H 0.49947 0.53437 0.94886 0.0
H1729 H 0.46093 0.51797 0.94005 0.0
H1730 H 0.41116 0.42517 0.94818 0.0
H1731 H 0.44899 0.44169 0.95702 0.0
H1732 H 0.44383 0.47671 0.93061 0.0
H1733 H 0.33967 0.44014 0.94591 0.0
H1734 H 0.37882 0.46176 0.94909 0.0
H1735 H 0.35999 0.41996 0.94813 0.0
C1736 C 0.48021 0.51051 0.94878 0.0
C1737 C 0.4772 0.48949 0.95371 0.0
C1738 C 0.4581 0.50109 0.94372 0.0
C1739 C 0.43237 0.47038 0.94346 0.0
C1740 C 0.42994 0.44923 0.94831 0.0
H1741 H 0.32319 0.37775 0.90878 0.0
H1742 H 0.36092 0.39879 0.91765 0.0
C1743 C 0.45187 0.45867 0.95337 0.0
C1744 C 0.40865 0.46016 0.93805 0.0
H1745 H 0.32992 0.42239 0.93492 0.0
C1746 C 0.41895 0.46502 0.93158 0.0
C1747 C 0.37597 0.44547 0.93921 0.0
C1748 C 0.36295 0.44183 0.94596 0.0
C1749 C 0.39781 0.45485 0.92631 0.0
C1750 C 0.36507 0.43834 0.92748 0.0
C1751 C 0.35481 0.43443 0.93395 0.0
C1752 C 0.34125 0.42482 0.92208 0.0
C1753 C 0.41101 0.46261 0.91955 0.0
C1754 C 0.31631 0.43095 0.92167 0.0
C1755 C 0.29417 0.41833 0.91662 0.0
C1756 C 0.29642 0.39929 0.91183 0.0
C1757 C 0.32093 0.39265 0.91233 0.0
C1758 C 0.34282 0.405 0.91739 0.0
H1759 H 0.43467 0.48371 0.9195 0.0
H1760 H 0.41324 0.44285 0.91763 0.0
H1761 H 0.3957 0.46676 0.91625 0.0
H1762 H 0.31413 0.44587 0.92522 0.0
H1763 H 0.27556 0.42384 0.91641 0.0
H1764 H 0.99045 0.71244 0.62349 0.0
H1765 H 1.00767 0.6922 0.61455 0.0
H1766 H 0.91468 0.64751 0.60655 0.0
H1767 H 0.89769 0.66875 0.6154 0.0
H1768 H 0.99346 0.63649 0.61081 0.0
H1769 H 0.96209 0.68912 0.5906 0.0
H1770 H 0.961 0.69942 0.59892 0.0
H1771 H 0.92914 0.66424 0.59556 0.0
C1772 C 0.97369 0.6985 0.6198 0.0
C1773 C 0.94269 0.69241 0.62016 0.0
C1774 C 0.98357 0.68678 0.61467 0.0
C1775 C 0.9628 0.66858 0.60973 0.0
C1776 C 0.93163 0.66216 0.61014 0.0
H1777 H 1.01002 0.55651 0.58322 0.0
H1778 H 0.98879 0.57358 0.59205 0.0
C1779 C 0.92179 0.67416 0.61525 0.0
C1780 C 0.97387 0.65609 0.60427 0.0
H1781 H 0.97757 0.65233 0.58774 0.0
C1782 C 0.98997 0.64006 0.60577 0.0
C1783 C 0.96992 0.66089 0.59764 0.0
C1784 C 0.95489 0.67962 0.59557 0.0
C1785 C 1.00204 0.62885 0.60091 0.0
C1786 C 0.99723 0.63278 0.59427 0.0
C1787 C 0.98116 0.64885 0.59278 0.0
C1788 C 1.00968 0.62167 0.58882 0.0
C1789 C 1.02083 0.61389 0.60298 0.0
C1790 C 0.02772 0.64236 0.58384 0.0
C1791 C 0.03939 0.63241 0.57871 0.0
C1792 C 0.03344 0.60142 0.57839 0.0
C1793 C 1.01532 0.5806 0.58334 0.0
C1794 C 1.00334 0.59049 0.58844 0.0
H1795 H 0.03039 0.62121 0.60794 0.0
H1796 H 1.00548 0.58811 0.60302 0.0
H1797 H 0.04057 0.61996 0.59962 0.0
H1798 H 0.03306 0.66646 0.58393 0.0
H1799 H 0.05324 0.64911 0.575 0.0
H1800 H 0.54378 0.48886 0.58329 0.0
H1801 H 0.52691 0.4499 0.59204 0.0
H1802 H 0.43323 0.40369 0.58438 0.0
H1803 H 0.4502 0.4419 0.57558 0.0
H1804 H 0.48684 0.43406 0.60169 0.0
H1805 H 0.44472 0.32979 0.58616 0.0
H1806 H 0.46699 0.36894 0.58298 0.0
H1807 H 0.42549 0.35138 0.58424 0.0
C1808 C 0.51963 0.47029 0.58346 0.0
C1809 C 0.49847 0.46835 0.57868 0.0
C1810 C 0.50993 0.44794 0.58848 0.0
C1811 C 0.47881 0.42308 0.58885 0.0
C1812 C 0.45755 0.42177 0.58415 0.0
H1813 H 0.38658 0.31379 0.62354 0.0
H1814 H 0.40794 0.35187 0.61472 0.0
C1815 C 0.46726 0.44391 0.57913 0.0
C1816 C 0.46832 0.39909 0.59421 0.0
H1817 H 0.42828 0.32019 0.59724 0.0
C1818 C 0.47422 0.40918 0.60069 0.0
C1819 C 0.45236 0.3664 0.593 0.0
C1820 C 0.44732 0.35348 0.58622 0.0
C1821 C 0.4639 0.38784 0.60592 0.0
C1822 C 0.44625 0.35517 0.60472 0.0
C1823 C 0.44125 0.34506 0.59824 0.0
C1824 C 0.43262 0.33124 0.61009 0.0
C1825 C 0.47265 0.40069 0.6127 0.0
C1826 C 0.43796 0.30574 0.61038 0.0
C1827 C 0.42522 0.28347 0.61541 0.0
C1828 C 0.40683 0.28613 0.62029 0.0
C1829 C 0.40097 0.31121 0.61992 0.0
C1830 C 0.41348 0.33327 0.61488 0.0
H1831 H 0.49417 0.42405 0.61272 0.0
H1832 H 0.4535 0.40351 0.61478 0.0
H1833 H 0.47651 0.38481 0.61589 0.0
H1834 H 0.45234 0.30323 0.60674 0.0
H1835 H 0.43011 0.26441 0.61552 0.0
H1836 H 0.83193 0.20256 0.61524 0.0
H1837 H 0.79294 0.18542 0.6065 0.0
H1838 H 0.747 0.09182 0.61426 0.0
H1839 H 0.78524 0.10905 0.62304 0.0
H1840 H 0.7769 0.14508 0.59688 0.0
H1841 H 0.67304 0.10317 0.61253 0.0
H1842 H 0.71222 0.12558 0.61566 0.0
H1843 H 0.69472 0.08403 0.61445 0.0
C1844 C 0.81343 0.17836 0.61509 0.0
C1845 C 0.81157 0.15731 0.6199 0.0
C1846 C 0.79106 0.16851 0.61008 0.0
C1847 C 0.76624 0.13734 0.60974 0.0
C1848 C 0.76504 0.11618 0.61447 0.0
H1849 H 0.65623 0.04429 0.57518 0.0
H1850 H 0.69447 0.06583 0.58395 0.0
C1851 C 0.7872 0.12604 0.61948 0.0
C1852 C 0.74214 0.12669 0.6044 0.0
H1853 H 0.66322 0.08649 0.60147 0.0
C1854 C 0.75206 0.13245 0.59791 0.0
C1855 C 0.70949 0.11071 0.60565 0.0
C1856 C 0.69672 0.10581 0.61245 0.0
C1857 C 0.73061 0.12197 0.5927 0.0
C1858 C 0.69798 0.10431 0.59394 0.0
C1859 C 0.68805 0.09946 0.60044 0.0
C1860 C 0.67393 0.09056 0.5886 0.0
C1861 C 0.74331 0.13057 0.58591 0.0
C1862 C 0.64841 0.09584 0.58833 0.0
C1863 C 0.62604 0.083 0.58333 0.0
C1864 C 0.6286 0.06454 0.57845 0.0
C1865 C 0.6537 0.05872 0.5788 0.0
C1866 C 0.67587 0.07134 0.58381 0.0
H1867 H 0.76664 0.15211 0.58585 0.0
H1868 H 0.74609 0.11137 0.58384 0.0
H1869 H 0.72737 0.13436 0.58273 0.0
H1870 H 0.64595 0.11026 0.59196 0.0
H1871 H 0.60697 0.08786 0.58324 0.0
H1872 H 0.78523 0.71651 0.74089 0.0
H1873 H 0.76808 0.73774 0.74962 0.0
H1874 H 0.85441 0.76605 0.75978 0.0
H1875 H 0.87236 0.74632 0.75082 0.0
H1876 H 0.75434 0.72402 0.76142 0.0
H1877 H 0.85353 0.8452 0.76153 0.0
H1878 H 0.8486 0.81774 0.75527 0.0
H1879 H 0.86618 0.81742 0.76289 0.0
C1880 C 0.80081 0.72764 0.74494 0.0
C1881 C 0.8305 0.73021 0.74506 0.0
C1882 C 0.79087 0.73972 0.74998 0.0
C1883 C 0.81004 0.75437 0.75539 0.0
C1884 C 0.83938 0.75601 0.75561 0.0
H1885 H 0.72945 0.77664 0.79162 0.0
H1886 H 0.74978 0.75904 0.78281 0.0
C1887 C 0.84957 0.74434 0.7505 0.0
C1888 C 0.79862 0.76672 0.76082 0.0
H1889 H 0.81854 0.83049 0.77049 0.0
C1890 C 0.76848 0.7474 0.76336 0.0
C1891 C 0.81642 0.79748 0.76335 0.0
C1892 C 0.84782 0.82077 0.76057 0.0
C1893 C 0.75594 0.75756 0.76832 0.0
C1894 C 0.77436 0.7877 0.7711 0.0
C1895 C 0.80433 0.80724 0.76849 0.0
C1896 C 0.76297 0.79931 0.77667 0.0
C1897 C 0.72254 0.73599 0.77036 0.0
C1898 C 0.76469 0.82871 0.77642 0.0
C1899 C 0.75382 0.83933 0.78161 0.0
C1900 C 0.7409 0.82087 0.78718 0.0
C1901 C 0.73929 0.7916 0.78742 0.0
C1902 C 0.75061 0.78125 0.78232 0.0
H1903 H 0.70877 0.71966 0.7664 0.0
H1904 H 0.72218 0.72165 0.77453 0.0
H1905 H 0.71082 0.74924 0.7718 0.0
H1906 H 0.77417 0.84339 0.77218 0.0
H1907 H 0.75542 0.86196 0.78123 0.0
H1908 H 0.23001 0.93234 0.78229 0.0
H1909 H 0.24666 0.97061 0.77342 0.0
H1910 H 0.34015 0.01851 0.78119 0.0
H1911 H 0.3233 0.98095 0.79012 0.0
H1912 H 0.32548 0.06023 0.77756 0.0
H1913 H 0.29355 0.97626 0.75735 0.0
H1914 H 0.26088 0.96813 0.76241 0.0
H1915 H 0.29297 0.96491 0.76566 0.0
C1916 C 0.25414 0.95095 0.78208 0.0
C1917 C 0.27529 0.95346 0.78692 0.0
C1918 C 0.26378 0.97282 0.77697 0.0
C1919 C 0.29498 0.99747 0.77649 0.0
C1920 C 0.316 0.9999 0.78136 0.0
H1921 H 0.38606 0.108 0.7419 0.0
H1922 H 0.36557 0.0704 0.75083 0.0
C1923 C 0.30634 0.97826 0.78649 0.0
C1924 C 0.30583 0.02106 0.77103 0.0
H1925 H 0.30931 0.02862 0.7545 0.0
C1926 C 0.3219 0.0532 0.77252 0.0
C1927 C 0.30175 1.01234 0.7644 0.0
C1928 C 0.28664 0.97857 0.76234 0.0
C1929 C 0.33381 0.07651 0.76766 0.0
C1930 C 0.32897 0.06779 0.76103 0.0
C1931 C 0.31292 0.03565 0.75954 0.0
C1932 C 0.3415 0.09138 0.75557 0.0
C1933 C 0.35248 0.11029 0.76971 0.0
C1934 C 0.33488 0.11601 0.75512 0.0
C1935 C 0.34697 0.1379 0.75001 0.0
C1936 C 0.36555 0.13546 0.74515 0.0
C1937 C 0.37184 0.11066 0.74556 0.0
C1938 C 0.36 0.08899 0.75067 0.0
H1939 H 0.36183 0.11261 0.7747 0.0
H1940 H 0.37235 0.12395 0.76637 0.0
H1941 H 0.33712 0.1207 0.76967 0.0
H1942 H 0.32003 0.11818 0.75869 0.0
H1943 H 0.34142 0.1565 0.74983 0.0
H1944 H 0.99537 0.31204 0.74049 0.0
H1945 H 0.03376 0.32934 0.74922 0.0
H1946 H 0.97444 0.24434 0.75972 0.0
H1947 H 0.93677 0.22616 0.75076 0.0
H1948 H 0.03443 0.34452 0.7609 0.0
H1949 H 0.05318 0.2433 0.76176 0.0
H1950 H 0.03092 0.24808 0.75541 0.0
H1951 H 1.01302 0.23174 0.76311 0.0
C1952 C 0.99066 0.29676 0.74461 0.0
C1953 C 0.96317 0.26736 0.74483 0.0
C1954 C 1.01267 0.3068 0.74965 0.0
C1955 C 1.00778 0.28804 0.75516 0.0
C1956 C 0.97972 0.25901 0.75548 0.0
H1957 H 0.11218 0.37103 0.79115 0.0
H1958 H 0.07403 0.35064 0.78237 0.0
C1959 C 0.95788 0.2487 0.75036 0.0
C1960 C 0.03156 0.29958 0.76059 0.0
H1961 H 0.07423 0.27926 0.77054 0.0
C1962 C 0.04314 0.33015 0.76296 0.0
C1963 C 0.04381 0.28144 0.76329 0.0
C1964 C 0.03486 0.24947 0.76071 0.0
C1965 C 0.06592 0.34281 0.7679 0.0
C1966 C 0.07696 0.32412 0.77084 0.0
C1967 C 0.06574 0.29369 0.76841 0.0
C1968 C 0.1001 0.33571 0.77638 0.0
C1969 C 0.07859 0.3766 0.76974 0.0
C1970 C 0.12726 0.3331 0.7762 0.0
C1971 C 0.14885 0.34401 0.78137 0.0
C1972 C 0.14391 0.35786 0.78685 0.0
C1973 C 0.11681 0.36046 0.78702 0.0
C1974 C 0.09503 0.34909 0.78193 0.0
H1975 H 0.07636 0.39016 0.76569 0.0
H1976 H 0.06495 0.37786 0.77388 0.0
H1977 H 0.10357 0.38796 0.77116 0.0
H1978 H 0.13197 0.32283 0.77203 0.0
H1979 H 0.16944 0.34164 0.78106 0.0
H1980 H 0.32184 0.37723 0.29 0.0
H1981 H 0.33908 0.35659 0.28113 0.0
H1982 H 0.24602 0.31127 0.27315 0.0
H1983 H 0.22899 0.33277 0.28195 0.0
H1984 H 0.32447 0.30019 0.27746 0.0
H1985 H 0.29371 0.35302 0.25718 0.0
H1986 H 0.29277 0.36355 0.2655 0.0
H1987 H 0.26073 0.32841 0.26217 0.0
C1988 C 0.30506 0.36301 0.28633 0.0
C1989 C 0.27402 0.35682 0.28669 0.0
C1990 C 0.31495 0.35109 0.28125 0.0
C1991 C 0.29416 0.33263 0.27633 0.0
C1992 C 0.26296 0.32609 0.27673 0.0
H1993 H 0.33992 0.21956 0.24975 0.0
H1994 H 0.31877 0.23674 0.2586 0.0
C1995 C 0.25311 0.33825 0.2818 0.0
C1996 C 0.30521 0.32 0.27089 0.0
H1997 H 0.30906 0.3161 0.25436 0.0
C1998 C 0.32107 0.30376 0.27241 0.0
C1999 C 0.30136 0.32478 0.26425 0.0
C2000 C 0.28651 0.34365 0.26216 0.0
C2001 C 0.33296 0.29228 0.26757 0.0
C2002 C 0.32831 0.29628 0.26093 0.0
C2003 C 0.31251 0.31258 0.25941 0.0
C2004 C 0.34079 0.2851 0.25549 0.0
C2005 C 0.35134 0.27691 0.26965 0.0
C2006 C 0.35956 0.30598 0.25061 0.0
C2007 C 0.37131 0.29603 0.24551 0.0
C2008 C 0.36461 0.26482 0.24509 0.0
C2009 C 0.34578 0.2438 0.24994 0.0
C2010 C 0.33381 0.25374 0.25504 0.0
H2011 H 0.36058 0.28381 0.27465 0.0
H2012 H 0.33582 0.25116 0.2696 0.0
H2013 H 0.37126 0.28303 0.26634 0.0
H2014 H 0.3654 0.33024 0.25077 0.0
H2015 H 0.38573 0.31291 0.24187 0.0
H2016 H 0.75206 0.92798 0.28098 0.0
H2017 H 0.772 0.96595 0.27205 0.0
H2018 H 0.74656 0.02536 0.28255 0.0
H2019 H 0.72509 0.98673 0.29125 0.0
H2020 H 0.73223 0.02611 0.27083 0.0
H2021 H 0.85218 0.04487 0.27022 0.0
H2022 H 0.82354 1.00473 0.26884 0.0
H2023 H 0.82486 0.02252 0.27653 0.0
C2024 C 0.75077 0.94917 0.28138 0.0
C2025 C 0.73739 0.95444 0.2869 0.0
C2026 C 0.76256 0.97117 0.27629 0.0
C2027 C 0.76178 0.99933 0.27662 0.0
C2028 C 0.74787 1.00419 0.28211 0.0
H2029 H 0.87054 0.16193 0.2509 0.0
H2030 H 0.85172 0.12441 0.25994 0.0
C2031 C 0.73568 0.98204 0.28713 0.0
C2032 C 0.77429 0.02328 0.27123 0.0
H2033 H 0.83777 0.06638 0.26143 0.0
C2034 C 0.75541 0.03492 0.26882 0.0
C2035 C 0.8048 0.03564 0.2686 0.0
C2036 C 0.82764 0.02657 0.27123 0.0
C2037 C 0.76577 0.05786 0.2639 0.0
C2038 C 0.79564 0.06902 0.26103 0.0
C2039 C 0.81475 0.05778 0.2635 0.0
C2040 C 0.80735 0.09219 0.2555 0.0
C2041 C 0.74473 0.07053 0.26199 0.0
C2042 C 0.78916 0.0869 0.24989 0.0
C2043 C 0.79966 0.10865 0.2448 0.0
C2044 C 0.82918 0.13598 0.24501 0.0
C2045 C 0.84772 0.14116 0.25055 0.0
C2046 C 0.83696 0.11956 0.25572 0.0
H2047 H 0.72875 0.06819 0.26601 0.0
H2048 H 0.75839 0.09556 0.26059 0.0
H2049 H 0.73004 0.05695 0.25783 0.0
H2050 H 0.76674 0.06575 0.24942 0.0
H2051 H 0.78463 0.10384 0.24063 0.0
H2052 H 0.98832 0.71099 0.2419 0.0
H2053 H 0.02583 0.73129 0.25083 0.0
H2054 H 0.9777 0.77626 0.2588 0.0
H2055 H 0.93947 0.75501 0.24994 0.0
H2056 H 0.0674 0.78717 0.25455 0.0
H2057 H 0.98352 0.7347 0.27478 0.0
H2058 H 0.9721 0.7243 0.26646 0.0
H2059 H 0.97544 0.75954 0.26979 0.0
C2060 C 0.98556 0.72501 0.24558 0.0
C2061 C 0.96069 0.73119 0.2452 0.0
C2062 C 1.00717 0.73676 0.2507 0.0
C2063 C 1.00467 0.75505 0.25564 0.0
C2064 C 0.97996 0.76155 0.25521 0.0
H2065 H 0.1639 0.86703 0.2822 0.0
H2066 H 0.12554 0.85012 0.27337 0.0
C2067 C 0.95812 0.74954 0.2501 0.0
C2068 C 0.02824 0.76757 0.26109 0.0
H2069 H 0.03581 0.77136 0.27763 0.0
C2070 C 0.06037 0.78361 0.2596 0.0
C2071 C 1.01955 0.76281 0.26773 0.0
C2072 C 0.98581 0.74414 0.2698 0.0
C2073 C 0.08367 0.79484 0.26445 0.0
C2074 C 0.07497 0.79089 0.27109 0.0
C2075 C 0.04285 0.77484 0.27259 0.0
C2076 C 0.09855 0.80192 0.27654 0.0
C2077 C 0.1174 0.80987 0.26238 0.0
C2078 C 0.09607 0.78108 0.28148 0.0
C2079 C 0.11777 0.79091 0.28658 0.0
C2080 C 0.14269 0.82194 0.28695 0.0
C2081 C 0.14521 0.84291 0.28205 0.0
C2082 C 0.12329 0.83312 0.27695 0.0
H2083 H 0.11966 0.80273 0.25741 0.0
H2084 H 0.12782 0.83565 0.26239 0.0
H2085 H 0.13107 0.80369 0.26573 0.0
H2086 H 0.07739 0.75695 0.28136 0.0
H2087 H 0.11504 0.77408 0.29026 0.0
H2088 H 0.54246 0.0301 0.04504 0.0
H2089 H 0.55768 0.02529 0.03386 0.0
H2090 H 0.51673 0.07883 0.02677 0.0
H2091 H 0.50203 0.08387 0.03769 0.0
H2092 H 0.51937 0.99976 0.02252 0.0
H2093 H 0.60383 0.12558 0.01888 0.0
H2094 H 0.58999 0.10884 0.02679 0.0
H2095 H 0.5664 0.11828 0.02167 0.0
C2096 C 0.53691 0.04088 0.04108 0.0
C2097 C 0.52121 0.05753 0.04229 0.0
C2098 C 0.54557 0.03815 0.0347 0.0
C2099 C 0.53895 0.05229 0.02945 0.0
C2100 C 0.52289 0.06839 0.0307 0.0
H2101 H 0.56446 0.06299 0.9868 0.0
H2102 H 0.54896 0.06819 0.99794 0.0
C2103 C 0.5143 0.07105 0.03699 0.0
C2104 C 0.54768 0.04989 0.02261 0.0
H2105 H 0.58697 0.09401 1.00937 0.0
C2106 C 0.5344 0.02036 0.01967 0.0
C2107 C 0.56691 0.07677 0.01882 0.0
C2108 C 0.58285 0.10914 0.02171 0.0
C2109 C 0.53939 1.01702 1.01307 0.0
C2110 C 0.55866 0.04389 1.00928 0.0
C2111 C 0.57191 0.07342 1.01221 0.0
C2112 C 0.56766 0.04141 1.00247 0.0
C2113 C 0.52347 0.98464 1.01018 0.0
C2114 C 0.58383 0.02536 1.0013 0.0
C2115 C 0.59257 0.02248 0.99504 0.0
C2116 C 0.58572 0.03573 0.98969 0.0
C2117 C 0.56997 0.0524 0.9908 0.0
C2118 C 0.56114 0.05535 0.99717 0.0
H2119 H 0.5024 0.96824 1.01299 0.0
H2120 H 0.51647 0.98494 1.00508 0.0
H2121 H 0.53986 0.97544 1.01025 0.0
H2122 H 0.58992 1.01509 1.00528 0.0
H2123 H 0.60488 1.00966 0.99441 0.0
H2124 H 0.05042 0.53981 0.98653 0.0
H2125 H 0.04534 0.52006 0.99775 0.0
H2126 H 0.06086 0.6084 1.00507 0.0
H2127 H 0.06572 0.62781 0.9941 0.0
H2128 H 0.09162 0.54677 1.00782 0.0
H2129 H 0.98383 0.54642 1.01523 0.0
H2130 H 0.99479 0.54773 1.00685 0.0
H2131 H 1.01237 0.58276 1.01166 0.0
C2132 C 0.05207 0.55463 0.99055 0.0
C2133 C 0.0583 0.5853 0.98941 0.0
C2134 C 0.04938 0.54347 0.99696 0.0
C2135 C 0.05231 0.56261 1.00229 0.0
C2136 C 0.05786 0.59289 1.00109 0.0
H2137 H 0.05685 0.55151 0.04504 0.0
H2138 H 0.06216 0.57128 0.03381 0.0
C2139 C 0.0608 0.60401 0.99477 0.0
C2140 C 0.0515 0.55232 1.00915 0.0
H2141 H 1.01536 0.54433 0.02376 0.0
C2142 C 0.07472 0.54591 1.01128 0.0
C2143 C 0.02983 0.55168 1.01374 0.0
C2144 C 1.00362 0.55723 1.01175 0.0
C2145 C 0.07713 0.5394 0.01784 0.0
C2146 C 0.05548 0.5388 0.02242 0.0
C2147 C 0.03226 0.5452 0.0203 0.0
C2148 C 0.05466 0.52852 0.02928 0.0
C2149 C 0.10328 0.53375 0.01982 0.0
C2150 C 0.04877 0.49813 0.03048 0.0
C2151 C 0.04567 0.48699 0.03681 0.0
C2152 C 0.04837 0.5058 0.04216 0.0
C2153 C 0.05503 0.5366 0.04102 0.0
C2154 C 0.05785 0.54778 0.03461 0.0
H2155 H 0.123 0.54435 0.01633 0.0
H2156 H 0.11222 0.5434 0.02471 0.0
H2157 H 0.09439 0.50821 0.01995 0.0
H2158 H 0.0456 0.48255 0.02651 0.0
H2159 H 0.04044 0.46309 0.03749 0.0
H2160 H 0.54691 0.54825 0.04543 0.0
H2161 H 0.52694 0.53225 0.03426 0.0
H2162 H 0.61922 0.59348 0.02673 0.0
H2163 H 0.63898 0.60895 0.03764 0.0
H2164 H 0.52842 0.56796 0.02315 0.0
H2165 H 0.59819 0.51062 0.01841 0.0
H2166 H 0.59221 0.52077 0.02646 0.0
H2167 H 0.62135 0.55003 0.02125 0.0
C2168 C 0.56275 0.5583 0.04137 0.0
C2169 C 0.5946 0.57964 0.04245 0.0
C2170 C 0.55141 0.54912 0.03499 0.0
C2171 C 0.57177 0.56102 0.02962 0.0
C2172 C 0.60316 0.58317 0.03074 0.0
H2173 H 0.55817 0.54101 0.98692 0.0
H2174 H 0.57771 0.55657 0.99813 0.0
C2175 C 0.61438 0.59216 0.03703 0.0
C2176 C 0.5609 0.55106 0.0228 0.0
H2177 H 0.57575 0.52097 1.00918 0.0
C2178 C 0.53854 0.55739 0.02012 0.0
C2179 C 0.57437 0.53763 0.01877 0.0
C2180 C 0.59765 0.52908 0.02138 0.0
C2181 C 0.52978 0.55129 1.01355 0.0
C2182 C 0.54326 0.53787 1.00952 0.0
C2183 C 0.5656 0.53151 1.0122 0.0
C2184 C 0.53259 0.52813 1.00268 0.0
C2185 C 0.50657 0.55994 1.01095 0.0
C2186 C 0.50115 0.50631 1.00149 0.0
C2187 C 0.49017 0.49759 0.99518 0.0
C2188 C 0.51024 0.51004 0.98981 0.0
C2189 C 0.54211 0.53102 0.99095 0.0
C2190 C 0.55321 0.53995 0.99735 0.0
H2191 H 0.50612 0.57845 1.01392 0.0
H2192 H 0.51201 0.56823 1.00586 0.0
H2193 H 0.48283 0.53905 1.01108 0.0
H2194 H 0.48488 0.49603 1.00548 0.0
H2195 H 0.46553 0.48106 0.99453 0.0
H2196 H 0.07594 0.56165 0.5449 0.0
H2197 H 0.08242 0.54809 0.53367 0.0
H2198 H 1.01388 0.57141 0.52705 0.0
H2199 H 1.00757 0.58492 0.538 0.0
H2200 H 0.03698 0.50405 0.52458 0.0
H2201 H 0.08831 0.6251 0.51529 0.0
H2202 H 0.08589 0.6163 0.52382 0.0
H2203 H 0.05224 0.61199 0.51955 0.0
C2204 C 0.06228 0.56373 0.54103 0.0
C2205 C 0.04149 0.57469 0.54235 0.0
C2206 C 0.066 0.55607 0.53462 0.0
C2207 C 0.04916 0.55946 0.52945 0.0
C2208 C 0.02779 0.56938 0.53087 0.0
H2209 H 0.0319 0.52809 0.48703 0.0
H2210 H 1.02547 0.54142 0.49827 0.0
C2211 C 1.02411 0.57695 0.53719 0.0
C2212 C 0.05309 0.55249 0.52257 0.0
H2213 H 0.07051 0.58473 0.50736 0.0
C2214 C 0.04463 0.52178 0.52083 0.0
C2215 C 0.0626 0.57544 0.51762 0.0
C2216 C 0.07305 0.60912 0.51916 0.0
C2217 C 0.04489 0.51333 0.51432 0.0
C2218 C 0.0544 0.53629 0.50937 0.0
C2219 C 0.06288 0.567 0.51111 0.0
C2220 C 0.05823 0.52931 0.50247 0.0
C2221 C 0.03433 0.47963 0.51278 0.0
C2222 C 0.0793 0.51902 0.50104 0.0
C2223 C 0.08292 0.51155 0.49471 0.0
C2224 C 0.06583 0.51432 0.48955 0.0
C2225 C 0.04533 0.5256 0.49089 0.0
C2226 C 0.04165 0.53315 0.49731 0.0
H2227 H 1.01893 0.46367 0.51664 0.0
H2228 H 1.0216 0.4725 0.5081 0.0
H2229 H 0.05509 0.47664 0.51242 0.0
H2230 H 0.09304 0.51666 0.50485 0.0
H2231 H 0.09924 0.50331 0.49388 0.0
H2232 H 0.62175 0.62867 0.49474 0.0
H2233 H 0.60671 0.60881 0.50566 0.0
H2234 H 0.53835 0.51886 0.4981 0.0
H2235 H 0.55399 0.5389 0.48694 0.0
H2236 H 0.55075 0.58847 0.51137 0.0
H2237 H 0.58154 0.49467 0.5119 0.0
H2238 H 0.59494 0.52383 0.50559 0.0
H2239 H 0.55556 0.49155 0.50549 0.0
C2240 C 0.60371 0.60446 0.49535 0.0
C2241 C 0.58908 0.58537 0.48994 0.0
C2242 C 0.59505 0.59317 0.50165 0.0
C2243 C 0.57138 0.56233 0.50278 0.0
C2244 C 0.55702 0.54268 0.49738 0.0
H2245 H 0.48632 0.46026 0.53791 0.0
H2246 H 0.50145 0.47983 0.52697 0.0
C2247 C 0.56592 0.55408 0.491 0.0
C2248 C 0.56155 0.55192 0.50963 0.0
H2249 H 0.55704 0.50028 0.52121 0.0
C2250 C 0.55213 0.56915 0.51352 0.0
C2251 C 0.56353 0.5269 0.51248 0.0
C2252 C 0.57468 0.50827 0.50869 0.0
C2253 C 0.54423 0.56183 0.5201 0.0
C2254 C 0.54624 0.53683 0.52296 0.0
C2255 C 0.55564 0.51959 0.51907 0.0
C2256 C 0.53649 0.5265 0.52982 0.0
C2257 C 0.53301 0.58043 0.52389 0.0
C2258 C 0.55071 0.54631 0.5352 0.0
C2259 C 0.54175 0.53509 0.54159 0.0
C2260 C 0.51868 0.50379 0.54268 0.0
C2261 C 0.50428 0.48448 0.53728 0.0
C2262 C 0.51299 0.49561 0.53098 0.0
H2263 H 0.52594 0.59383 0.52066 0.0
H2264 H 0.51288 0.56489 0.52702 0.0
H2265 H 0.55218 0.59735 0.52705 0.0
H2266 H 0.56927 0.57017 0.53446 0.0
H2267 H 0.5535 0.55044 0.54564 0.0
H2268 H 0.64005 0.07785 0.5377 0.0
H2269 H 0.62008 0.07236 0.52679 0.0
H2270 H 0.52573 0.02284 0.53408 0.0
H2271 H 0.546 0.02864 0.54525 0.0
H2272 H 0.58387 0.02038 0.51962 0.0
H2273 H 0.52526 0.09062 0.52265 0.0
H2274 H 0.55217 0.09072 0.52857 0.0
H2275 H 0.51293 0.05833 0.52815 0.0
C2276 C 0.61495 0.06574 0.53705 0.0
C2277 C 0.59464 0.05377 0.5424 0.0
C2278 C 0.60357 0.06258 0.53075 0.0
C2279 C 0.57141 0.04746 0.52954 0.0
C2280 C 0.55073 0.03508 0.53486 0.0
H2281 H 0.46586 1.01148 0.49421 0.0
H2282 H 0.48551 1.01661 0.50514 0.0
C2283 C 0.56226 0.0382 0.54125 0.0
C2284 C 0.56041 0.04502 0.52268 0.0
H2285 H 0.52163 0.06823 0.51237 0.0
C2286 C 0.5702 0.03082 0.51805 0.0
C2287 C 0.5429 0.05891 0.52057 0.0
C2288 C 0.53285 0.07576 0.52521 0.0
C2289 C 0.56258 0.02967 0.51143 0.0
C2290 C 0.54509 0.0436 0.50931 0.0
C2291 C 0.53528 0.05777 0.51395 0.0
C2292 C 0.53426 0.04133 0.50244 0.0
C2293 C 0.57261 1.01281 0.50679 0.0
C2294 C 0.55509 0.05373 0.49715 0.0
C2295 C 0.54374 0.05081 0.49075 0.0
C2296 C 0.5114 0.03545 0.48956 0.0
C2297 C 0.49094 0.02345 0.49489 0.0
C2298 C 0.50214 0.0264 0.5012 0.0
H2299 H 0.58002 0.99781 0.50936 0.0
H2300 H 0.55337 0.99799 0.50341 0.0
H2301 H 0.59268 0.03023 0.50388 0.0
H2302 H 0.58006 0.06584 0.49796 0.0
H2303 H 0.56012 0.06039 0.48677 0.0
H2304 H 0.25006 0.32724 0.32657 0.0
H2305 H 0.23661 0.33321 0.33756 0.0
H2306 H 0.22694 0.41163 0.33159 0.0
H2307 H 0.24023 0.40535 0.32035 0.0
H2308 H 0.26857 0.38238 0.34557 0.0
H2309 H 0.14772 0.36037 0.34226 0.0
H2310 H 0.16769 0.35109 0.3361 0.0
H2311 H 0.17679 0.39081 0.33726 0.0
C2312 C 0.24477 0.34566 0.32754 0.0
C2313 C 0.24627 0.36585 0.32255 0.0
C2314 C 0.23713 0.34907 0.33387 0.0
C2315 C 0.23068 0.37281 0.33547 0.0
C2316 C 0.23139 0.39279 0.33048 0.0
H2317 H 0.18723 0.42894 0.37182 0.0
H2318 H 0.20038 0.42306 0.3608 0.0
C2319 C 0.23899 0.38925 0.32406 0.0
C2320 C 0.22446 0.37668 0.34243 0.0
H2321 H 0.16928 0.37451 0.35275 0.0
C2322 C 0.24683 0.38066 0.34713 0.0
C2323 C 0.19605 0.37422 0.34452 0.0
C2324 C 0.1705 0.36862 0.3398 0.0
C2325 C 0.24183 0.38273 0.35379 0.0
C2326 C 0.2134 0.38021 0.35589 0.0
C2327 C 0.19104 0.37625 0.35119 0.0
C2328 C 0.20711 0.38392 0.36285 0.0
C2329 C 0.26744 0.38842 0.35851 0.0
C2330 C 0.20688 0.36414 0.36784 0.0
C2331 C 0.19948 0.36765 0.37428 0.0
C2332 C 0.1919 0.39081 0.37582 0.0
C2333 C 0.19278 0.41072 0.37083 0.0
C2334 C 0.20024 0.40736 0.36448 0.0
H2335 H 0.29028 0.39702 0.35604 0.0
H2336 H 0.27004 0.4057 0.36225 0.0
H2337 H 0.26141 0.36616 0.36099 0.0
H2338 H 0.21162 0.34551 0.36672 0.0
H2339 H 0.19873 0.35177 0.37799 0.0
H2340 H 0.69915 0.79242 0.37098 0.0
H2341 H 0.70369 0.81198 0.36004 0.0
H2342 H 0.73234 0.90398 0.36748 0.0
H2343 H 0.72827 0.88423 0.37866 0.0
H2344 H 0.67093 0.83565 0.35441 0.0
H2345 H 0.79759 0.92308 0.3535 0.0
H2346 H 0.78063 0.89444 0.35989 0.0
H2347 H 0.77645 0.92855 0.35996 0.0
C2348 C 0.70674 0.81697 0.37034 0.0
C2349 C 0.71338 0.83678 0.37573 0.0
C2350 C 0.70922 0.8281 0.36404 0.0
C2351 C 0.71842 0.85948 0.36287 0.0
C2352 C 0.72563 0.87972 0.36823 0.0
H2353 H 0.73947 0.96306 0.32781 0.0
H2354 H 0.73469 0.94322 0.33873 0.0
C2355 C 0.72328 0.86848 0.37462 0.0
C2356 C 0.71927 0.86995 0.35602 0.0
H2357 H 0.76759 0.91951 0.3443 0.0
C2358 C 0.69211 0.85402 0.3522 0.0
C2359 C 0.74687 0.8937 0.35308 0.0
C2360 C 0.77716 0.91081 0.35678 0.0
C2361 C 0.69166 0.86146 0.34562 0.0
C2362 C 0.71926 0.88522 0.34269 0.0
C2363 C 0.74641 0.90114 0.34651 0.0
C2364 C 0.72009 0.89581 0.33585 0.0
C2365 C 0.66139 0.84435 0.34192 0.0
C2366 C 0.71298 0.8757 0.33047 0.0
C2367 C 0.71546 0.8871 0.32409 0.0
C2368 C 0.72541 0.91884 0.32302 0.0
C2369 C 0.73188 0.93849 0.32842 0.0
C2370 C 0.72925 0.92719 0.33472 0.0
H2371 H 0.64096 0.83195 0.3452 0.0
H2372 H 0.65786 0.86075 0.33883 0.0
H2373 H 0.66216 0.82672 0.33872 0.0
H2374 H 0.70629 0.85143 0.33119 0.0
H2375 H 0.7106 0.87147 0.32003 0.0
H2376 H 0.13293 0.83704 0.32734 0.0
H2377 H 0.15322 0.85126 0.33825 0.0
H2378 H 0.24489 0.87465 0.33147 0.0
H2379 H 0.22439 0.8606 0.32031 0.0
H2380 H 0.17822 0.82561 0.34597 0.0
H2381 H 0.26407 0.95137 0.34221 0.0
H2382 H 0.23498 0.92821 0.33623 0.0
H2383 H 0.26944 0.925 0.3371 0.0
C2384 C 0.15755 0.84539 0.32811 0.0
C2385 C 0.17703 0.84768 0.32291 0.0
C2386 C 0.16911 0.85348 0.3344 0.0
C2387 C 0.20065 0.86424 0.33575 0.0
C2388 C 0.22051 0.86689 0.33057 0.0
H2389 H 0.30701 0.91948 0.37131 0.0
H2390 H 0.28675 0.90523 0.36039 0.0
C2391 C 0.20882 0.85878 0.32419 0.0
C2392 C 0.21176 0.87177 0.34264 0.0
H2393 H 0.26177 0.9309 0.35266 0.0
C2394 C 0.19652 0.84867 0.34742 0.0
C2395 C 0.23543 0.90188 0.34459 0.0
C2396 C 0.25181 0.92819 0.33979 0.0
C2397 C 0.20456 0.85462 0.35404 0.0
C2398 C 0.22822 0.88474 0.35599 0.0
C2399 C 0.24347 0.90783 0.35121 0.0
C2400 C 0.23932 0.89227 0.36288 0.0
C2401 C 0.18818 0.82832 0.35884 0.0
C2402 C 0.21944 0.88964 0.36806 0.0
C2403 C 0.23111 0.89776 0.37444 0.0
C2404 C 0.2629 0.90886 0.37573 0.0
C2405 C 0.2824 0.91113 0.37053 0.0
C2406 C 0.27085 0.90303 0.36424 0.0
H2407 H 0.17592 0.80514 0.35642 0.0
H2408 H 0.20501 0.8283 0.3624 0.0
H2409 H 0.17054 0.8315 0.36153 0.0
H2410 H 0.19506 0.88188 0.36716 0.0
H2411 H 0.21553 0.89595 0.37831 0.0
H2412 H 0.7469 0.81712 0.82813 0.0
H2413 H 0.74144 0.83192 0.83902 0.0
H2414 H 0.70433 0.88803 0.8314 0.0
H2415 H 0.70937 0.87256 0.82027 0.0
H2416 H 0.76991 0.88886 0.8445 0.0
H2417 H 0.64126 0.83839 0.84554 0.0
H2418 H 0.66007 0.8288 0.83918 0.0
H2419 H 0.66049 0.86538 0.83902 0.0
C2420 C 0.73731 0.83248 0.82872 0.0
C2421 C 0.72853 0.84361 0.82329 0.0
C2422 C 0.7343 0.841 0.835 0.0
C2423 C 0.72237 0.86102 0.83611 0.0
C2424 C 0.71318 0.87213 0.83071 0.0
H2425 H 0.69362 0.93837 0.87117 0.0
H2426 H 0.69855 0.9234 0.86026 0.0
C2427 C 0.71611 0.86339 0.82434 0.0
C2428 C 0.72066 0.87036 0.84294 0.0
H2429 H 0.67016 0.86661 0.85471 0.0
C2430 C 0.74805 0.88398 0.84673 0.0
C2431 C 0.6922 0.86384 0.84591 0.0
C2432 C 0.66174 0.84806 0.84224 0.0
C2433 C 0.74786 0.89163 0.8533 0.0
C2434 C 0.71939 0.88507 0.85627 0.0
C2435 C 0.69201 0.87149 0.85248 0.0
C2436 C 0.7177 0.8943 0.86311 0.0
C2437 C 0.77834 0.90744 0.85696 0.0
C2438 C 0.72704 0.88317 0.86849 0.0
C2439 C 0.72439 0.89199 0.87487 0.0
C2440 C 0.71216 0.91189 0.87595 0.0
C2441 C 0.70312 0.92295 0.87055 0.0
C2442 C 0.70582 0.91432 0.86426 0.0
H2443 H 0.7988 0.91723 0.85365 0.0
H2444 H 0.77996 0.92662 0.86004 0.0
H2445 H 0.77968 0.8901 0.86016 0.0
H2446 H 0.73583 0.86725 0.86777 0.0
H2447 H 0.73132 0.88287 0.87891 0.0
H2448 H 0.21973 0.88379 0.87861 0.0
H2449 H 0.23433 0.90372 0.8674 0.0
H2450 H 0.17039 0.81185 0.86001 0.0
H2451 H 0.1559 0.79224 0.87096 0.0
H2452 H 0.25993 0.88156 0.85753 0.0
H2453 H 0.14638 0.86686 0.84956 0.0
H2454 H 0.15618 0.86726 0.85799 0.0
H2455 H 0.14299 0.83237 0.85324 0.0
C2456 C 0.20855 0.86811 0.87457 0.0
C2457 C 0.18655 0.83648 0.87569 0.0
C2458 C 0.21696 0.87942 0.86817 0.0
C2459 C 0.20311 0.85937 0.86282 0.0
C2460 C 0.18099 0.828 0.864 0.0
H2461 H 0.22287 0.87184 0.82011 0.0
H2462 H 0.20828 0.85172 0.83131 0.0
C2463 C 0.17285 0.81678 0.87031 0.0
C2464 C 0.21235 0.87014 0.85598 0.0
H2465 H 0.18263 0.87372 0.84121 0.0
C2466 C 0.2431 0.88016 0.85398 0.0
C2467 C 0.19032 0.86784 0.85128 0.0
C2468 C 0.15719 0.85827 0.85312 0.0
C2469 C 0.25224 0.88743 0.84745 0.0
C2470 C 0.23022 0.88514 0.84276 0.0
C2471 C 0.19946 0.87511 0.84475 0.0
C2472 C 0.23948 0.896 0.83592 0.0
C2473 C 0.28537 0.897 0.84561 0.0
C2474 C 0.26159 0.92739 0.83476 0.0
C2475 C 0.26972 0.93872 0.82845 0.0
C2476 C 0.25602 0.91912 0.82306 0.0
C2477 C 0.23405 0.88745 0.82416 0.0
C2478 C 0.22565 0.87604 0.83055 0.0
H2479 H 0.29615 0.88835 0.84917 0.0
H2480 H 0.2864 0.88808 0.84074 0.0
H2481 H 0.29959 0.9229 0.84551 0.0
H2482 H 0.27217 0.94348 0.83876 0.0
H2483 H 0.28664 0.96328 0.82781 0.0
H2484 H 0.22681 0.38984 0.82004 0.0
H2485 H 0.24701 0.39455 0.83121 0.0
H2486 H 0.15301 0.35193 0.83862 0.0
H2487 H 0.13307 0.34691 0.82772 0.0
H2488 H 0.24 0.42487 0.84243 0.0
H2489 H 0.18397 0.29744 0.84676 0.0
H2490 H 0.18831 0.3138 0.83875 0.0
H2491 H 0.15702 0.30915 0.84394 0.0
C2492 C 0.21061 0.38153 0.82407 0.0
C2493 C 0.1783 0.36774 0.82295 0.0
C2494 C 0.2221 0.38416 0.83045 0.0
C2495 C 0.20144 0.37286 0.83578 0.0
C2496 C 0.16943 0.36001 0.83462 0.0
H2497 H 0.21484 0.36515 0.87848 0.0
H2498 H 0.19502 0.36047 0.86728 0.0
C2499 C 0.15808 0.35736 0.82834 0.0
C2500 C 0.21258 0.37468 0.84261 0.0
H2501 H 0.20237 0.33006 0.85611 0.0
C2502 C 0.23203 0.40411 0.84539 0.0
C2503 C 0.20186 0.34766 0.84655 0.0
C2504 C 0.18187 0.31521 0.84384 0.0
C2505 C 0.24054 0.40727 0.85198 0.0
C2506 C 0.22979 0.38025 0.85593 0.0
C2507 C 0.21036 0.35082 0.85315 0.0
C2508 C 0.24074 0.38206 0.86277 0.0
C2509 C 0.26054 0.43971 0.8547 0.0
C2510 C 0.27271 0.39485 0.86398 0.0
C2511 C 0.28384 0.39747 0.87029 0.0
C2512 C 0.26343 0.38712 0.87564 0.0
C2513 C 0.23117 0.37341 0.87448 0.0
C2514 C 0.2199 0.3708 0.86808 0.0
H2515 H 0.2586 0.45752 0.85176 0.0
H2516 H 0.25398 0.44115 0.85977 0.0
H2517 H 0.28537 0.44569 0.85464 0.0
H2518 H 0.28925 0.40291 0.86001 0.0
H2519 H 0.30882 0.40787 0.87095 0.0
H2520 H 0.87275 0.6908 0.71168 0.0
H2521 H 0.88779 0.68554 0.70051 0.0
H2522 H 0.85569 0.74697 0.69359 0.0
H2523 H 0.84122 0.75248 0.7045 0.0
H2524 H 0.84985 0.66392 0.68907 0.0
H2525 H 0.94294 0.78713 0.68586 0.0
H2526 H 0.92763 0.77049 0.69372 0.0
H2527 H 0.90678 0.78338 0.6886 0.0
C2528 C 0.86921 0.7033 0.70777 0.0
C2529 C 0.85594 0.72219 0.70902 0.0
C2530 C 0.87773 0.70028 0.70138 0.0
C2531 C 0.87346 0.71639 0.69618 0.0
C2532 C 0.86002 0.73492 0.69748 0.0
H2533 H 0.90078 0.73042 0.65365 0.0
H2534 H 0.88584 0.7354 0.66484 0.0
C2535 C 0.85153 0.73785 0.70377 0.0
C2536 C 0.8818 0.71348 0.68934 0.0
H2537 H 0.92379 0.75671 0.67622 0.0
C2538 C 0.86628 0.68416 0.68629 0.0
C2539 C 0.90287 0.73993 0.68563 0.0
C2540 C 0.92124 0.77196 0.68863 0.0
C2541 C 0.87079 0.68068 0.67967 0.0
C2542 C 0.89184 0.70714 0.67596 0.0
C2543 C 0.90738 0.73645 0.679 0.0
C2544 C 0.90003 0.70429 0.66909 0.0
C2545 C 0.85239 0.64866 0.67666 0.0
C2546 C 0.91334 0.68568 0.66775 0.0
C2547 C 0.92176 0.6829 0.66144 0.0
C2548 C 0.91742 0.69879 0.65623 0.0
C2549 C 0.90425 0.71773 0.65753 0.0
C2550 C 0.8958 0.7206 0.66393 0.0
H2551 H 0.83072 0.63349 0.67944 0.0
H2552 H 0.84596 0.65014 0.67158 0.0
H2553 H 0.86685 0.63724 0.67668 0.0
H2554 H 0.91765 0.67348 0.67161 0.0
H2555 H 0.93199 0.66823 0.66067 0.0
H2556 H 0.36496 0.20412 0.6537 0.0
H2557 H 0.35867 0.18407 0.66493 0.0
H2558 H 0.42277 0.27717 0.67169 0.0
H2559 H 0.42889 0.29698 0.66074 0.0
H2560 H 0.40512 0.18837 0.6741 0.0
H2561 H 0.34683 0.25159 0.6833 0.0
H2562 H 0.35015 0.24588 0.67477 0.0
H2563 H 0.38266 0.27642 0.6791 0.0
C2564 C 0.37763 0.22015 0.6576 0.0
C2565 C 0.39718 0.2522 0.65631 0.0
C2566 C 0.37403 0.20876 0.66401 0.0
C2567 C 0.38971 0.22927 0.66921 0.0
C2568 C 0.40975 0.26095 0.66784 0.0
H2569 H 0.40712 0.21618 0.71165 0.0
H2570 H 0.41299 0.2358 0.70039 0.0
C2571 C 0.41332 0.27221 0.66152 0.0
C2572 C 0.38612 0.21828 0.67608 0.0
H2573 H 0.3667 0.23106 0.69126 0.0
C2574 C 0.3964 0.19745 0.67784 0.0
C2575 C 0.37522 0.23047 0.68101 0.0
C2576 C 0.36282 0.25211 0.67946 0.0
C2577 C 0.39659 0.18894 0.68435 0.0
C2578 C 0.3857 0.20114 0.68928 0.0
C2579 C 0.3754 0.22196 0.68753 0.0
C2580 C 0.38233 0.19035 0.69617 0.0
C2581 C 0.40908 0.16738 0.68591 0.0
C2582 C 0.36264 0.15865 0.69759 0.0
C2583 C 0.35933 0.14762 0.70392 0.0
C2584 C 0.37537 0.1679 0.70911 0.0
C2585 C 0.39454 0.19995 0.70777 0.0
C2586 C 0.3979 0.2111 0.70134 0.0
H2587 H 0.42511 0.16798 0.68207 0.0
H2588 H 0.42174 0.17361 0.6906 0.0
H2589 H 0.38929 0.14303 0.68626 0.0
H2590 H 0.34969 0.14223 0.69376 0.0
H2591 H 0.34404 0.12283 0.70474 0.0
H2592 H 0.80236 0.17441 0.66003 0.0
H2593 H 0.82198 0.18845 0.67099 0.0
H2594 H 0.91262 0.20628 0.66469 0.0
H2595 H 0.89283 0.19249 0.65348 0.0
H2596 H 0.84332 0.16014 0.6789 0.0
H2597 H 0.93536 0.28403 0.67536 0.0
H2598 H 0.90643 0.26221 0.66926 0.0
H2599 H 0.93928 0.25645 0.67036 0.0
C2600 C 0.82664 0.18155 0.66092 0.0
C2601 C 0.84602 0.18228 0.65585 0.0
C2602 C 0.8378 0.18953 0.66724 0.0
C2603 C 0.86882 0.19856 0.66874 0.0
C2604 C 0.88866 0.19985 0.66367 0.0
H2605 H 0.97149 0.24754 0.70467 0.0
H2606 H 0.95176 0.23382 0.69372 0.0
C2607 C 0.87739 0.19192 0.65726 0.0
C2608 C 0.8793 0.2055 0.67566 0.0
H2609 H 0.93061 0.26288 0.68584 0.0
C2610 C 0.86243 0.18265 0.68041 0.0
C2611 C 0.90403 0.2349 0.67769 0.0
C2612 C 0.92221 0.26097 0.67292 0.0
C2613 C 0.86987 0.18815 0.68705 0.0
C2614 C 0.89462 0.21754 0.68907 0.0
C2615 C 0.91148 0.24039 0.68433 0.0
C2616 C 0.90517 0.2244 0.69599 0.0
C2617 C 0.85168 0.16212 0.69182 0.0
C2618 C 0.8855 0.2234 0.70107 0.0
C2619 C 0.89684 0.23119 0.70748 0.0
C2620 C 0.92811 0.24034 0.70888 0.0
C2621 C 0.94731 0.24077 0.7038 0.0
C2622 C 0.93608 0.23297 0.69748 0.0
H2623 H 0.83826 0.13907 0.68938 0.0
H2624 H 0.8675 0.16071 0.69545 0.0
H2625 H 0.83485 0.16683 0.69443 0.0
H2626 H 0.86162 0.2173 0.70005 0.0
H2627 H 0.88154 0.23086 0.71126 0.0
H2628 H 0.34361 0.25545 0.20458 0.0
H2629 H 0.3496 0.24124 0.19367 0.0
H2630 H 0.41282 0.21146 0.20064 0.0
H2631 H 0.40645 0.22553 0.2118 0.0
H2632 H 0.40121 0.26455 0.18616 0.0
H2633 H 0.3523 0.13693 0.18963 0.0
H2634 H 0.3478 0.16107 0.19559 0.0
H2635 H 0.38422 0.16145 0.19489 0.0
C2636 C 0.35875 0.24572 0.20385 0.0
C2637 C 0.37453 0.24162 0.2091 0.0
C2638 C 0.36219 0.23765 0.19755 0.0
C2639 C 0.38149 0.22506 0.19626 0.0
C2640 C 0.39734 0.22067 0.2015 0.0
H2641 H 0.42886 0.16586 0.16077 0.0
H2642 H 0.42307 0.18001 0.1717 0.0
C2643 C 0.39382 0.2288 0.20788 0.0
C2644 C 0.38496 0.2174 0.18939 0.0
H2645 H 0.37203 0.1573 0.17926 0.0
C2646 C 0.39483 0.24106 0.18466 0.0
C2647 C 0.37641 0.18676 0.18737 0.0
C2648 C 0.36432 0.15996 0.19211 0.0
C2649 C 0.39688 0.23511 0.17805 0.0
C2650 C 0.38829 0.20445 0.17603 0.0
C2651 C 0.37844 0.1808 0.18076 0.0
C2652 C 0.39159 0.19675 0.16915 0.0
C2653 C 0.40904 0.26194 0.17331 0.0
C2654 C 0.37588 0.20145 0.16392 0.0
C2655 C 0.3793 0.19338 0.15753 0.0
C2656 C 0.39833 0.18029 0.15628 0.0
C2657 C 0.41393 0.17581 0.16152 0.0
C2658 C 0.4106 0.18385 0.16782 0.0
H2659 H 0.4213 0.28495 0.1758 0.0
H2660 H 0.42536 0.26069 0.16979 0.0
H2661 H 0.38913 0.26067 0.17057 0.0
H2662 H 0.36061 0.21089 0.1648 0.0
H2663 H 0.36684 0.19696 0.15362 0.0
H2664 H 0.95615 0.29293 0.16075 0.0
H2665 H 0.94108 0.27334 0.1717 0.0
H2666 H 0.86816 0.18541 0.16422 0.0
H2667 H 0.88379 0.20516 0.15304 0.0
H2668 H 0.88584 0.25639 0.17752 0.0
H2669 H 0.90874 0.15717 0.17786 0.0
H2670 H 0.92355 0.18644 0.17155 0.0
H2671 H 0.88332 0.15594 0.1715 0.0
C2672 C 0.93712 0.26919 0.16139 0.0
C2673 C 0.92118 0.2506 0.156 0.0
C2674 C 0.92845 0.25806 0.16769 0.0
C2675 C 0.90346 0.2279 0.16885 0.0
C2676 C 0.88783 0.20868 0.16348 0.0
H2677 H 0.81716 0.12832 0.20418 0.0
H2678 H 0.83175 0.14746 0.19319 0.0
C2679 C 0.89674 0.2199 0.15708 0.0
C2680 C 0.89358 0.21785 0.17571 0.0
H2681 H 0.8861 0.16479 0.18724 0.0
C2682 C 0.88588 0.23632 0.17964 0.0
C2683 C 0.89381 0.19184 0.17853 0.0
C2684 C 0.90304 0.17179 0.17468 0.0
C2685 C 0.87802 0.22929 0.18623 0.0
C2686 C 0.87833 0.20332 0.18906 0.0
C2687 C 0.886 0.18484 0.18512 0.0
C2688 C 0.86873 0.19343 0.19594 0.0
C2689 C 0.86869 0.24931 0.19006 0.0
C2690 C 0.88416 0.21307 0.20127 0.0
C2691 C 0.87549 0.20212 0.20769 0.0
C2692 C 0.85152 0.17127 0.20884 0.0
C2693 C 0.83583 0.15219 0.20349 0.0
C2694 C 0.84423 0.16307 0.19716 0.0
H2695 H 0.86244 0.26345 0.18687 0.0
H2696 H 0.84852 0.23472 0.19327 0.0
H2697 H 0.88859 0.26564 0.19315 0.0
H2698 H 0.9035 0.23648 0.20049 0.0
H2699 H 0.88825 0.21723 0.2117 0.0
H2700 H 0.89256 0.73085 0.15359 0.0
H2701 H 0.91241 0.73582 0.1648 0.0
H2702 H 0.81831 0.67655 0.17163 0.0
H2703 H 0.79877 0.67131 0.16069 0.0
H2704 H 0.89693 0.75845 0.17617 0.0
H2705 H 0.86299 0.63422 0.17951 0.0
H2706 H 0.86498 0.65097 0.17163 0.0
H2707 H 0.83135 0.63914 0.17672 0.0
C2708 C 0.87628 0.71877 0.15749 0.0
C2709 C 0.8441 0.70054 0.15621 0.0
C2710 C 0.88757 0.72162 0.1639 0.0
C2711 C 0.8669 0.706 0.16909 0.0
C2712 C 0.8349 0.68819 0.16775 0.0
H2713 H 0.87954 0.6925 0.2117 0.0
H2714 H 0.85962 0.68766 0.2005 0.0
C2715 C 0.82374 0.68542 0.16144 0.0
C2716 C 0.87789 0.70865 0.17595 0.0
H2717 H 0.87506 0.66493 0.18912 0.0
C2718 C 0.89243 0.73803 0.17898 0.0
C2719 C 0.87164 0.68198 0.17969 0.0
C2720 C 0.85714 0.64984 0.17671 0.0
C2721 C 0.90035 0.74139 0.18561 0.0
C2722 C 0.89409 0.71473 0.18934 0.0
C2723 C 0.87955 0.68535 0.18632 0.0
C2724 C 0.90512 0.71738 0.1962 0.0
C2725 C 0.91487 0.77354 0.18858 0.0
C2726 C 0.93713 0.73511 0.19752 0.0
C2727 C 0.94833 0.73779 0.20383 0.0
C2728 C 0.928 0.72268 0.20907 0.0
C2729 C 0.8958 0.70456 0.20779 0.0
C2730 C 0.88447 0.70179 0.20139 0.0
H2731 H 0.90904 0.78917 0.18579 0.0
H2732 H 0.90702 0.77241 0.19366 0.0
H2733 H 0.94066 0.78421 0.18858 0.0
H2734 H 0.9537 0.74673 0.19364 0.0
H2735 H 0.97332 0.75182 0.20458 0.0
H2736 H 0.51439 0.85058 0.05843 0.0
H2737 H 0.52654 0.80815 0.05806 0.0
H2738 H 0.62468 0.8753 0.05974 0.0
H2739 H 0.61277 0.91773 0.06024 0.0
H2740 H 0.56511 0.79863 0.04913 0.0
H2741 H 0.61054 0.81221 0.07422 0.0
H2742 H 0.58775 0.8295 0.07156 0.0
H2743 H 0.62828 0.84716 0.06939 0.0
C2744 C 0.53856 0.85636 0.05877 0.0
C2745 C 0.56254 0.88775 0.05937 0.0
C2746 C 0.5455 0.83203 0.05852 0.0
C2747 C 0.57653 0.83836 0.05895 0.0
C2748 C 0.60052 0.86965 0.05949 0.0
H2749 H 0.65332 0.71028 0.06058 0.0
H2750 H 0.64872 0.75764 0.06005 0.0
C2751 C 0.59364 0.89399 0.0597 0.0
C2752 C 0.58378 0.81232 0.05874 0.0
H2753 H 0.6143 0.77523 0.06761 0.0
C2754 C 0.57587 0.79354 0.05318 0.0
C2755 C 0.59816 0.80576 0.06398 0.0
C2756 C 0.6065 0.8245 0.07015 0.0
C2757 C 0.58186 0.76854 0.0527 0.0
C2758 C 0.59547 0.7614 0.05801 0.0
C2759 C 0.60395 0.78058 0.06353 0.0
C2760 C 0.59904 0.73296 0.05809 0.0
C2761 C 0.57388 0.75027 0.04647 0.0
C2762 C 0.57278 0.70322 0.05722 0.0
C2763 C 0.57536 0.67629 0.05748 0.0
C2764 C 0.6043 0.67807 0.0587 0.0
C2765 C 0.63073 0.7079 0.05958 0.0
C2766 C 0.62808 0.73502 0.0593 0.0
H2767 H 0.57401 0.76459 0.0423 0.0
H2768 H 0.5905 0.74187 0.04544 0.0
H2769 H 0.55002 0.72968 0.04685 0.0
H2770 H 0.54995 0.70068 0.05645 0.0
H2771 H 0.55431 0.65392 0.05682 0.0
H2772 H 0.2408 0.70644 0.05283 0.0
H2773 H 0.2834 0.76097 0.05221 0.0
H2774 H 0.23864 0.78643 0.06699 0.0
H2775 H 0.19668 0.73208 0.06774 0.0
H2776 H 0.28653 0.81474 0.04912 0.0
H2777 H 0.32366 0.82352 0.07466 0.0
H2778 H 0.29615 0.78676 0.07101 0.0
H2779 H 0.28339 0.81285 0.07397 0.0
C2780 C 0.24007 0.72367 0.05595 0.0
C2781 C 0.21549 0.71466 0.06041 0.0
C2782 C 0.26449 0.75491 0.0556 0.0
C2783 C 0.26489 0.77797 0.05967 0.0
C2784 C 0.23972 0.76914 0.06395 0.0
H2785 H 0.39288 0.98098 0.06365 0.0
H2786 H 0.34623 0.92848 0.06352 0.0
C2787 C 0.21557 0.73794 0.06436 0.0
C2788 C 0.2913 0.8112 0.0594 0.0
H2789 H 0.34565 0.87117 0.06873 0.0
C2790 C 0.29947 0.82695 0.05341 0.0
C2791 C 0.30849 0.82746 0.06499 0.0
C2792 C 0.30272 0.81169 0.07151 0.0
C2793 C 0.32385 0.85826 0.05288 0.0
C2794 C 0.34069 0.87449 0.05847 0.0
C2795 C 0.3325 0.85891 0.06446 0.0
C2796 C 0.36811 0.90694 0.05816 0.0
C2797 C 0.33137 0.87395 0.04634 0.0
C2798 C 0.39589 0.91244 0.05517 0.0
C2799 C 0.42255 0.94224 0.05529 0.0
C2800 C 0.42215 0.96752 0.05836 0.0
C2801 C 0.394 0.96222 0.06119 0.0
C2802 C 0.36735 0.93216 0.06115 0.0
H2803 H 0.31237 0.86082 0.04279 0.0
H2804 H 0.33549 0.89815 0.04674 0.0
H2805 H 0.35307 0.87537 0.04446 0.0
H2806 H 0.39725 0.89339 0.0529 0.0
H2807 H 0.44374 0.94533 0.05306 0.0
H2808 H 0.11755 0.44691 0.06238 0.0
H2809 H 0.16941 0.4513 0.06221 0.0
H2810 H 0.2092 0.54407 0.0542 0.0
H2811 H 0.15797 0.53986 0.0543 0.0
H2812 H 0.23165 0.50837 0.04822 0.0
H2813 H 0.24021 0.50554 0.07502 0.0
H2814 H 0.20645 0.47307 0.07143 0.0
H2815 H 0.2111 0.51149 0.07103 0.0
C2816 C 0.13728 0.46807 0.06051 0.0
C2817 C 0.13345 0.49306 0.0584 0.0
C2818 C 0.16701 0.47068 0.06047 0.0
C2819 C 0.19345 0.49826 0.05828 0.0
C2820 C 0.18934 0.52262 0.05594 0.0
H2821 H 0.39178 0.57918 0.06554 0.0
H2822 H 0.33702 0.56562 0.06487 0.0
C2823 C 0.15987 0.52014 0.05602 0.0
C2824 C 0.22564 0.50251 0.05854 0.0
H2825 H 0.28302 0.51069 0.069 0.0
C2826 C 0.24277 0.50859 0.05276 0.0
C2827 C 0.24045 0.50334 0.06447 0.0
C2828 C 0.22382 0.49827 0.07086 0.0
C2829 C 0.27414 0.51554 0.05275 0.0
C2830 C 0.28891 0.51624 0.05868 0.0
C2831 C 0.27174 0.51003 0.06445 0.0
C2832 C 0.32241 0.52437 0.05901 0.0
C2833 C 0.29154 0.52311 0.04641 0.0
C2834 C 0.33268 0.50568 0.05596 0.0
C2835 C 0.36407 0.51326 0.05636 0.0
C2836 C 0.3861 0.53973 0.05985 0.0
C2837 C 0.37565 0.55843 0.06288 0.0
C2838 C 0.34425 0.55076 0.06248 0.0
H2839 H 0.27937 0.52859 0.04254 0.0
H2840 H 0.31558 0.54329 0.04695 0.0
H2841 H 0.29338 0.50264 0.04482 0.0
H2842 H 0.31627 0.48486 0.05335 0.0
H2843 H 0.37085 0.49784 0.05408 0.0
H2844 H 0.8906 0.55632 0.4615 0.0
H2845 H 0.8493 0.56969 0.46202 0.0
H2846 H 0.8481 0.56265 0.48282 0.0
H2847 H 0.88958 0.5493 0.48235 0.0
H2848 H 0.79073 0.53705 0.46637 0.0
H2849 H 0.8529 0.64623 0.48063 0.0
H2850 H 0.8727 0.62746 0.4771 0.0
H2851 H 0.85167 0.61327 0.4846 0.0
C2852 C 0.88148 0.55738 0.4662 0.0
C2853 C 0.89356 0.5516 0.47188 0.0
C2854 C 0.85792 0.56528 0.46649 0.0
C2855 C 0.84577 0.56779 0.47246 0.0
C2856 C 0.85755 0.56177 0.47815 0.0
H2857 H 0.66502 0.552 0.47801 0.0
H2858 H 0.71138 0.54667 0.47791 0.0
C2859 C 0.88125 0.55397 0.47787 0.0
C2860 C 0.81992 0.57533 0.47268 0.0
H2861 H 0.79803 0.62532 0.4792 0.0
C2862 C 0.79249 0.55647 0.46915 0.0
C2863 C 0.82216 0.60098 0.47622 0.0
C2864 C 0.85155 0.62336 0.4798 0.0
C2865 C 0.76715 0.56197 0.4692 0.0
C2866 C 0.76881 0.58671 0.47297 0.0
C2867 C 0.79653 0.60616 0.47636 0.0
C2868 C 0.74152 0.59186 0.47358 0.0
C2869 C 0.73885 0.54128 0.46513 0.0
C2870 C 0.74318 0.6198 0.47148 0.0
C2871 C 0.71647 0.62312 0.47158 0.0
C2872 C 0.68762 0.59854 0.47379 0.0
C2873 C 0.68662 0.57132 0.47618 0.0
C2874 C 0.71317 0.56811 0.47611 0.0
H2875 H 0.74462 0.52982 0.46117 0.0
H2876 H 0.72081 0.52262 0.46823 0.0
H2877 H 0.72868 0.55481 0.46297 0.0
H2878 H 0.76486 0.63861 0.46955 0.0
H2879 H 0.71813 0.64437 0.46969 0.0
H2880 H 0.54514 0.14673 0.47897 0.0
H2881 H 0.5508 0.19864 0.47928 0.0
H2882 H 0.46613 0.16499 0.46816 0.0
H2883 H 0.45977 0.11239 0.46803 0.0
H2884 H 0.56096 0.23671 0.46968 0.0
H2885 H 0.45104 0.21438 0.48147 0.0
H2886 H 0.46328 0.18557 0.48133 0.0
H2887 H 0.44444 0.19095 0.47438 0.0
C2888 C 0.52735 0.15015 0.47668 0.0
C2889 C 0.50191 0.12525 0.47349 0.0
C2890 C 0.53069 0.18001 0.47684 0.0
C2891 C 0.50884 0.18603 0.47379 0.0
C2892 C 0.48299 0.16103 0.4707 0.0
H2893 H 0.51529 0.36095 0.46381 0.0
H2894 H 0.50346 0.30664 0.46467 0.0
C2895 C 0.47939 0.13089 0.47061 0.0
C2896 C 0.51456 0.21887 0.47353 0.0
H2897 H 0.48215 0.26472 0.47669 0.0
C2898 C 0.54372 0.24272 0.47127 0.0
C2899 C 0.4922 0.22708 0.47557 0.0
C2900 C 0.46111 0.20321 0.47839 0.0
C2901 C 0.55096 0.27413 0.47095 0.0
C2902 C 0.52856 0.28222 0.47295 0.0
C2903 C 0.49934 0.25851 0.47517 0.0
C2904 C 0.53503 0.31514 0.47264 0.0
C2905 C 0.58242 0.29852 0.46839 0.0
C2906 C 0.5565 0.33807 0.47689 0.0
C2907 C 0.56326 0.36924 0.47643 0.0
C2908 C 0.54894 0.37823 0.47166 0.0
C2909 C 0.52715 0.35504 0.46747 0.0
C2910 C 0.52016 0.32388 0.46798 0.0
H2911 H 0.59533 0.28793 0.46613 0.0
H2912 H 0.57965 0.31356 0.46476 0.0
H2913 H 0.59672 0.31375 0.47243 0.0
H2914 H 0.56816 0.33186 0.48055 0.0
H2915 H 0.58019 0.38642 0.47972 0.0
H2916 H 0.98761 0.38397 0.46812 0.0
H2917 H 0.93466 0.33804 0.46812 0.0
H2918 H 0.90197 0.38856 0.47967 0.0
H2919 H 0.95415 0.43445 0.47951 0.0
H2920 H 0.89323 0.29997 0.47708 0.0
H2921 H 0.84246 0.36398 0.46485 0.0
H2922 H 0.88404 0.38017 0.46569 0.0
H2923 H 0.86136 0.38239 0.47228 0.0
C2924 C 0.96919 0.38512 0.47072 0.0
C2925 C 0.97516 0.41308 0.47376 0.0
C2926 C 0.93883 0.35886 0.47069 0.0
C2927 C 0.91384 0.35996 0.47372 0.0
C2928 C 0.92035 0.38726 0.47709 0.0
H2929 H 0.71366 0.23021 0.47935 0.0
H2930 H 0.76816 0.27279 0.4802 0.0
C2931 C 0.95042 0.41351 0.47705 0.0
C2932 C 0.88093 0.33303 0.4733 0.0
H2933 H 0.80621 0.31421 0.46927 0.0
C2934 C 0.8743 0.30311 0.47533 0.0
C2935 C 0.85593 0.3368 0.47098 0.0
C2936 C 0.86131 0.36748 0.46826 0.0
C2937 C 0.84355 0.27733 0.47525 0.0
C2938 C 0.81861 0.28137 0.47308 0.0
C2939 C 0.8252 0.31113 0.47101 0.0
C2940 C 0.78564 0.25485 0.47274 0.0
C2941 C 0.8378 0.24597 0.4776 0.0
C2942 C 0.77714 0.23062 0.46824 0.0
C2943 C 0.746 0.20643 0.46771 0.0
C2944 C 0.72245 0.20569 0.47169 0.0
C2945 C 0.73111 0.22984 0.47625 0.0
C2946 C 0.76227 0.25427 0.47672 0.0
H2947 H 0.85821 0.24788 0.48027 0.0
H2948 H 0.81699 0.23487 0.48081 0.0
H2949 H 0.83311 0.23034 0.47338 0.0
H2950 H 0.79458 0.23063 0.46507 0.0
H2951 H 0.74037 0.18813 0.46419 0.0
H2952 H 0.45688 0.38257 0.96835 0.0
H2953 H 0.46232 0.33565 0.96845 0.0
H2954 H 0.54874 0.38622 0.97899 0.0
H2955 H 0.5437 0.43295 0.97886 0.0
H2956 H 0.51852 0.33479 0.96314 0.0
H2957 H 0.49666 0.30138 0.9891 0.0
H2958 H 0.48256 0.32477 0.98521 0.0
H2959 H 0.52296 0.3421 0.98743 0.0
C2960 C 0.47672 0.38351 0.97079 0.0
C2961 C 0.4998 0.41159 0.9736 0.0
C2962 C 0.4799 0.35671 0.97081 0.0
C2963 C 0.50585 0.35729 0.97377 0.0
C2964 C 0.52835 0.38501 0.97674 0.0
H2965 H 0.58016 0.23098 0.97879 0.0
H2966 H 0.56784 0.27329 0.97948 0.0
C2967 C 0.52544 0.4118 0.97664 0.0
C2968 C 0.51074 0.32981 0.97341 0.0
H2969 H 0.51699 0.27581 0.98272 0.0
C2970 C 0.51786 0.32165 0.96741 0.0
C2971 C 0.51043 0.31301 0.97899 0.0
C2972 C 0.50254 0.32049 0.98556 0.0
C2973 C 0.52538 0.29772 0.96684 0.0
C2974 C 0.52481 0.2806 0.97242 0.0
C2975 C 0.51745 0.28871 0.97843 0.0
C2976 C 0.53183 0.25437 0.97212 0.0
C2977 C 0.5351 0.29197 0.9603 0.0
C2978 C 0.51535 0.22908 0.96788 0.0
C2979 C 0.52261 0.2051 0.96743 0.0
C2980 C 0.54618 0.20533 0.97131 0.0
C2981 C 0.56191 0.23003 0.97573 0.0
C2982 C 0.55488 0.25428 0.97612 0.0
H2983 H 0.54388 0.31286 0.95712 0.0
H2984 H 0.55361 0.2856 0.96074 0.0
H2985 H 0.51456 0.27248 0.95788 0.0
H2986 H 0.49672 0.22779 0.9649 0.0
H2987 H 0.50948 0.18611 0.96408 0.0
H2988 H 0.91155 0.35847 0.96392 0.0
H2989 H 0.86867 0.30439 0.96483 0.0
H2990 H 0.82624 0.33198 0.97969 0.0
H2991 H 0.8691 0.38631 0.9788 0.0
H2992 H 0.84587 0.26368 0.97663 0.0
H2993 H 0.75727 0.28658 0.96526 0.0
H2994 H 0.79874 0.31253 0.96423 0.0
H2995 H 0.7802 0.31243 0.9717 0.0
C2996 C 0.89303 0.35314 0.96736 0.0
C2997 C 0.89373 0.37695 0.97125 0.0
C2998 C 0.86861 0.3221 0.96791 0.0
C2999 C 0.84404 0.31407 0.97229 0.0
C3000 C 0.8448 0.33761 0.97624 0.0
H3001 H 0.66471 0.14696 0.97877 0.0
H3002 H 0.71116 0.19871 0.97895 0.0
C3003 C 0.86942 0.36867 0.97575 0.0
C3004 C 0.81742 0.28119 0.97263 0.0
H3005 H 0.73962 0.23578 0.96923 0.0
C3006 C 0.82261 0.25751 0.97502 0.0
C3007 C 0.78708 0.2731 0.97051 0.0
C3008 C 0.7803 0.29734 0.96773 0.0
C3009 C 0.79816 0.22617 0.97549 0.0
C3010 C 0.76774 0.21798 0.97334 0.0
C3011 C 0.76276 0.24178 0.9709 0.0
C3012 C 0.74045 0.18525 0.97369 0.0
C3013 C 0.80506 0.2024 0.97849 0.0
C3014 C 0.74116 0.15981 0.97077 0.0
C3015 C 0.71447 0.12975 0.97075 0.0
C3016 C 0.68631 0.12461 0.97354 0.0
C3017 C 0.68591 0.14996 0.97656 0.0
C3018 C 0.71255 0.17974 0.97665 0.0
H3019 H 0.8262 0.21371 0.9816 0.0
H3020 H 0.78509 0.18515 0.98145 0.0
H3021 H 0.80945 0.18966 0.97459 0.0
H3022 H 0.76199 0.16334 0.96831 0.0
H3023 H 0.71551 0.11091 0.96831 0.0
H3024 H 0.71372 0.50934 0.96641 0.0
H3025 H 0.76845 0.52269 0.96688 0.0
H3026 H 0.79028 0.60346 0.9785 0.0
H3027 H 0.73575 0.59077 0.97794 0.0
H3028 H 0.82256 0.57816 0.96267 0.0
H3029 H 0.82746 0.55878 0.98903 0.0
H3030 H 0.79104 0.5441 0.9847 0.0
H3031 H 0.81316 0.58466 0.9869 0.0
C3032 C 0.73007 0.53008 0.96904 0.0
C3033 C 0.71991 0.54886 0.97214 0.0
C3034 C 0.76147 0.53762 0.96933 0.0
C3035 C 0.78362 0.56395 0.97278 0.0
C3036 C 0.77365 0.5827 0.9759 0.0
H3037 H 0.98853 0.64253 0.96912 0.0
H3038 H 0.93638 0.63746 0.96939 0.0
C3039 C 0.74227 0.57527 0.9756 0.0
C3040 C 0.81713 0.57195 0.97299 0.0
H3041 H 0.87484 0.579 0.98322 0.0
C3042 C 0.83403 0.5785 0.96717 0.0
C3043 C 0.83217 0.57222 0.97885 0.0
C3044 C 0.81506 0.56433 0.98523 0.0
C3045 C 0.86533 0.58519 0.96705 0.0
C3046 C 0.88041 0.58558 0.97291 0.0
C3047 C 0.86352 0.5791 0.97873 0.0
C3048 C 0.9127 0.59001 0.97305 0.0
C3049 C 0.88172 0.59076 0.96062 0.0
C3050 C 0.91709 0.56552 0.97519 0.0
C3051 C 0.94673 0.56836 0.97505 0.0
C3052 C 0.97306 0.59595 0.97281 0.0
C3053 C 0.96889 0.62098 0.97087 0.0
C3054 C 0.939 0.618 0.97097 0.0
H3055 H 0.86519 0.58392 0.95649 0.0
H3056 H 0.89916 0.61598 0.96013 0.0
H3057 H 0.89434 0.57747 0.96031 0.0
H3058 H 0.89735 0.54376 0.97684 0.0
H3059 H 0.94885 0.54859 0.97662 0.0
H3060 H 0.38894 0.44452 0.56082 0.0
H3061 H 0.34157 0.44903 0.56024 0.0
H3062 H 0.39851 0.54811 0.55686 0.0
H3063 H 0.44528 0.54385 0.5573 0.0
H3064 H 0.32364 0.48332 0.56783 0.0
H3065 H 0.33543 0.5243 0.54255 0.0
H3066 H 0.35789 0.5076 0.54572 0.0
H3067 H 0.37014 0.54811 0.54715 0.0
C3068 C 0.39131 0.46717 0.55987 0.0
C3069 C 0.42112 0.49372 0.55907 0.0
C3070 C 0.36419 0.46976 0.55956 0.0
C3071 C 0.36628 0.49886 0.55839 0.0
C3072 C 0.396 0.52525 0.5576 0.0
H3073 H 0.24982 0.58443 0.55866 0.0
H3074 H 0.29192 0.57185 0.55833 0.0
C3075 C 0.42291 0.52272 0.5579 0.0
C3076 C 0.33787 0.50239 0.55826 0.0
H3077 H 0.30125 0.53321 0.54933 0.0
C3078 C 0.3185 0.49381 0.56375 0.0
C3079 C 0.33101 0.51617 0.55294 0.0
C3080 C 0.34953 0.52427 0.54673 0.0
C3081 C 0.29341 0.49972 0.56416 0.0
C3082 C 0.28718 0.51433 0.55892 0.0
C3083 C 0.30611 0.52229 0.55338 0.0
C3084 C 0.26135 0.52182 0.55911 0.0
C3085 C 0.27444 0.49129 0.57031 0.0
C3086 C 0.23 0.49796 0.55958 0.0
C3087 C 0.20585 0.50509 0.55976 0.0
C3088 C 0.21237 0.53632 0.55948 0.0
C3089 C 0.24383 0.56017 0.55896 0.0
C3090 C 0.26797 0.55299 0.55873 0.0
H3091 H 0.28642 0.48691 0.57439 0.0
H3092 H 0.26964 0.51017 0.57173 0.0
H3093 H 0.2517 0.46968 0.5695 0.0
H3094 H 0.22414 0.47371 0.55978 0.0
H3095 H 0.18203 0.48606 0.56024 0.0
H3096 H 0.59619 0.73073 0.56805 0.0
H3097 H 0.6074 0.78481 0.56711 0.0
H3098 H 0.53826 0.75731 0.55205 0.0
H3099 H 0.52677 0.70296 0.55299 0.0
H3100 H 0.62605 0.82555 0.55533 0.0
H3101 H 0.51379 0.80267 0.56629 0.0
H3102 H 0.52917 0.77662 0.56742 0.0
H3103 H 0.51131 0.77692 0.55988 0.0
C3104 C 0.58319 0.73608 0.56456 0.0
C3105 C 0.56032 0.71229 0.56064 0.0
C3106 C 0.58983 0.76711 0.56399 0.0
C3107 C 0.57354 0.77517 0.55955 0.0
C3108 C 0.55099 0.75165 0.55556 0.0
H3109 H 0.56228 0.94289 0.55291 0.0
H3110 H 0.55683 0.89105 0.5527 0.0
C3111 C 0.54455 0.72059 0.55607 0.0
C3112 C 0.57982 0.80806 0.55918 0.0
H3113 H 0.54729 0.85353 0.5624 0.0
C3114 C 0.60886 0.83174 0.55687 0.0
C3115 C 0.55744 0.81616 0.5612 0.0
C3116 C 0.52621 0.79191 0.56388 0.0
C3117 C 0.61583 0.86311 0.55639 0.0
C3118 C 0.59349 0.87131 0.55845 0.0
C3119 C 0.56451 0.84751 0.5608 0.0
C3120 C 0.59906 0.9041 0.55812 0.0
C3121 C 0.64672 0.88689 0.5535 0.0
C3122 C 0.62499 0.92933 0.56114 0.0
C3123 C 0.62846 0.95943 0.56118 0.0
C3124 C 0.60575 0.96482 0.55831 0.0
C3125 C 0.58023 0.93969 0.55519 0.0
C3126 C 0.577 0.90987 0.55508 0.0
H3127 H 0.65672 0.87561 0.55042 0.0
H3128 H 0.64429 0.90429 0.55052 0.0
H3129 H 0.66358 0.89946 0.55745 0.0
H3130 H 0.64202 0.92559 0.56367 0.0
H3131 H 0.64814 0.97809 0.56371 0.0
H3132 H 0.3919 0.84738 0.56482 0.0
H3133 H 0.33716 0.80614 0.56411 0.0
H3134 H 0.31604 0.86726 0.55305 0.0
H3135 H 0.37059 0.90891 0.55384 0.0
H3136 H 0.28332 0.8068 0.56849 0.0
H3137 H 0.2786 0.78745 0.54195 0.0
H3138 H 0.31498 0.80846 0.54632 0.0
H3139 H 0.29288 0.82725 0.54438 0.0
C3140 C 0.3757 0.85225 0.56225 0.0
C3141 C 0.38604 0.88174 0.55938 0.0
C3142 C 0.34431 0.82848 0.56183 0.0
C3143 C 0.32236 0.83334 0.55848 0.0
C3144 C 0.33252 0.86262 0.55557 0.0
H3145 H 0.11761 0.70754 0.56209 0.0
H3146 H 0.16985 0.75447 0.56186 0.0
C3147 C 0.3639 0.88647 0.55601 0.0
C3148 C 0.28882 0.80798 0.55815 0.0
H3149 H 0.23103 0.75959 0.54768 0.0
C3150 C 0.27186 0.79659 0.56394 0.0
C3151 C 0.27379 0.79441 0.55222 0.0
C3152 C 0.29097 0.80475 0.54586 0.0
C3153 C 0.2405 0.77209 0.56396 0.0
C3154 C 0.22541 0.75864 0.55802 0.0
C3155 C 0.24236 0.77008 0.55223 0.0
C3156 C 0.19298 0.73104 0.55776 0.0
C3157 C 0.22408 0.76008 0.57036 0.0
C3158 C 0.18821 0.70246 0.55533 0.0
C3159 C 0.15849 0.67575 0.55545 0.0
C3160 C 0.13249 0.67682 0.55794 0.0
C3161 C 0.13699 0.70579 0.56012 0.0
C3162 C 0.16695 0.7326 0.56005 0.0
H3163 H 0.24065 0.76868 0.57449 0.0
H3164 H 0.20697 0.76814 0.57105 0.0
H3165 H 0.21109 0.73412 0.57044 0.0
H3166 H 0.20775 0.70056 0.55351 0.0
H3167 H 0.15608 0.654 0.55368 0.0
H3168 H 0.23041 0.98934 0.38615 0.0
H3169 H 0.22491 0.03569 0.38585 0.0
H3170 H 0.31037 0.08682 0.39672 0.0
H3171 H 0.31655 0.04048 0.39683 0.0
H3172 H 0.21547 0.06387 0.39546 0.0
H3173 H 0.32477 0.15119 0.38341 0.0
H3174 H 0.31246 0.1101 0.38358 0.0
H3175 H 0.33176 0.13445 0.39047 0.0
C3176 C 0.24841 1.0106 0.38838 0.0
C3177 C 0.27402 1.01113 0.39149 0.0
C3178 C 0.24516 0.03717 0.38822 0.0
C3179 C 0.26727 0.06512 0.39122 0.0
C3180 C 0.29329 0.06596 0.39423 0.0
H3181 H 0.26274 0.23453 0.40122 0.0
H3182 H 0.27426 0.19187 0.40029 0.0
C3183 C 0.29679 0.03935 0.39431 0.0
C3184 C 0.26166 0.09231 0.39151 0.0
H3185 H 0.29412 0.1706 0.3883 0.0
C3186 C 0.23268 0.08711 0.39384 0.0
C3187 C 0.28397 0.12286 0.38941 0.0
C3188 C 0.31485 0.12999 0.38652 0.0
C3189 C 0.22556 0.11136 0.3942 0.0
C3190 C 0.24791 0.14183 0.39216 0.0
C3191 C 0.27696 0.14723 0.38986 0.0
C3192 C 0.24158 0.16838 0.3925 0.0
C3193 C 0.1943 0.10437 0.39686 0.0
C3194 C 0.21959 0.16968 0.38838 0.0
C3195 C 0.213 0.19419 0.38889 0.0
C3196 C 0.22802 0.21779 0.39358 0.0
C3197 C 0.25034 0.21655 0.39763 0.0
C3198 C 0.25714 0.19227 0.39707 0.0
H3199 H 0.18159 0.08098 0.39918 0.0
H3200 H 0.19731 0.12236 0.40045 0.0
H3201 H 0.17966 0.10502 0.39285 0.0
H3202 H 0.2074 0.15162 0.38479 0.0
H3203 H 0.19566 0.1943 0.3857 0.0
H3204 H 0.11092 0.27742 0.38617 0.0
H3205 H 0.06455 0.22561 0.38586 0.0
H3206 H 1.01351 0.2599 0.39677 0.0
H3207 H 0.05987 0.31239 0.3969 0.0
H3208 H 0.03622 0.18768 0.39542 0.0
H3209 H 0.9492 0.21038 0.38347 0.0
H3210 H 0.99027 0.23907 0.38365 0.0
H3211 H 0.9659 0.23389 0.39055 0.0
C3212 C 0.08968 0.27416 0.38841 0.0
C3213 C 0.08918 0.29923 0.39154 0.0
C3214 C 0.06309 0.24436 0.38825 0.0
C3215 C 0.03515 0.23851 0.39124 0.0
C3216 C 0.03436 0.26369 0.39427 0.0
H3217 H 0.86567 0.06445 0.40123 0.0
H3218 H 0.90843 0.11859 0.40032 0.0
C3219 C 0.06098 0.29378 0.39436 0.0
C3220 C 1.00791 0.20571 0.39152 0.0
H3221 H 0.92964 0.16014 0.38833 0.0
C3222 C 1.01301 0.18177 0.39382 0.0
C3223 C 0.9774 0.19761 0.38944 0.0
C3224 C 0.97036 0.22152 0.38658 0.0
C3225 C 0.98872 0.15041 0.39415 0.0
C3226 C 0.95829 0.14244 0.39214 0.0
C3227 C 0.95298 0.16624 0.38987 0.0
C3228 C 0.93168 0.10956 0.39247 0.0
C3229 C 0.99561 0.12596 0.39677 0.0
C3230 C 0.9302 0.08637 0.3883 0.0
C3231 C 0.90562 0.05528 0.38878 0.0
C3232 C 0.88213 0.04661 0.3935 0.0
C3233 C 0.88356 0.07008 0.3976 0.0
C3234 C 0.9079 0.10115 0.39707 0.0
H3235 H 1.01904 0.13651 0.39906 0.0
H3236 H 0.97768 0.11099 0.40038 0.0
H3237 H 0.99477 0.11068 0.39275 0.0
H3238 H 0.94818 0.0923 0.38468 0.0
H3239 H 0.90537 0.03789 0.38555 0.0
H3240 H 0.78832 0.78467 0.39749 0.0
H3241 H 0.84118 0.79147 0.39749 0.0
H3242 H 0.87437 0.87534 0.38608 0.0
H3243 H 0.82231 0.86926 0.38625 0.0
H3244 H 0.88253 0.79517 0.38843 0.0
H3245 H 0.93369 0.90911 0.40099 0.0
H3246 H 0.89209 0.88387 0.40013 0.0
H3247 H 0.91481 0.90924 0.39359 0.0
C3248 C 0.80684 0.80436 0.39493 0.0
C3249 C 0.80107 0.8266 0.39194 0.0
C3250 C 0.83714 0.80833 0.39495 0.0
C3251 C 0.86222 0.83451 0.39195 0.0
C3252 C 0.8559 0.85558 0.38864 0.0
H3253 H 0.06197 0.90477 0.38608 0.0
H3254 H 1.00745 0.89285 0.38531 0.0
C3255 C 0.82591 0.85188 0.38869 0.0
C3256 C 0.89503 0.84031 0.39235 0.0
H3257 H 0.96982 0.89583 0.39642 0.0
C3258 C 0.90153 0.8171 0.39022 0.0
C3259 C 0.92008 0.86888 0.39473 0.0
C3260 C 0.91481 0.89405 0.39755 0.0
C3261 C 0.93223 0.822 0.39025 0.0
C3262 C 0.95723 0.85081 0.39247 0.0
C3263 C 0.95076 0.87389 0.39464 0.0
C3264 C 0.99016 0.8572 0.39274 0.0
C3265 C 0.93789 0.79651 0.38779 0.0
C3266 C 0.99872 0.84131 0.39719 0.0
C3267 C 0.02986 0.84827 0.39768 0.0
C3268 C 0.0533 0.87122 0.3937 0.0
C3269 C 0.04458 0.88684 0.38918 0.0
C3270 C 1.01342 0.88011 0.38875 0.0
H3271 H 0.91737 0.77812 0.38514 0.0
H3272 H 0.95855 0.80641 0.38454 0.0
H3273 H 0.94279 0.7854 0.39195 0.0
H3274 H 0.98134 0.82378 0.40037 0.0
H3275 H 0.03557 0.8355 0.40117 0.0
H3276 H 0.33087 0.88612 0.81244 0.0
H3277 H 0.37701 0.88031 0.8127 0.0
H3278 H 0.42811 0.96528 0.80164 0.0
H3279 H 0.38202 0.9718 0.80156 0.0
H3280 H 0.40514 0.87018 0.80322 0.0
H3281 H 0.4927 0.98049 0.81488 0.0
H3282 H 0.45167 0.96823 0.81472 0.0
H3283 H 0.47592 0.98703 0.80777 0.0
C3284 C 0.35207 0.90394 0.81015 0.0
C3285 C 0.35266 0.92955 0.807 0.0
C3286 C 0.37853 0.90051 0.81029 0.0
C3287 C 0.40645 0.92242 0.80725 0.0
C3288 C 0.4073 0.94836 0.80418 0.0
H3289 H 0.57549 0.91698 0.79727 0.0
H3290 H 0.53275 0.92839 0.79813 0.0
C3291 C 0.38082 0.95206 0.80412 0.0
C3292 C 0.43364 0.91675 0.80699 0.0
H3293 H 0.51202 0.94954 0.81008 0.0
C3294 C 0.42841 0.88755 0.80478 0.0
C3295 C 0.46425 0.93925 0.809 0.0
C3296 C 0.47147 0.97038 0.81179 0.0
C3297 C 0.45266 0.88042 0.80446 0.0
C3298 C 0.48319 0.90298 0.8064 0.0
C3299 C 0.48862 0.93222 0.80859 0.0
C3300 C 0.50977 0.89664 0.80609 0.0
C3301 C 0.44561 0.84891 0.80193 0.0
C3302 C 0.51141 0.87522 0.81033 0.0
C3303 C 0.53599 0.86871 0.80988 0.0
C3304 C 0.55933 0.88323 0.80512 0.0
C3305 C 0.55773 0.90496 0.80093 0.0
C3306 C 0.53339 0.9117 0.80144 0.0
H3307 H 0.42207 0.83587 0.79969 0.0
H3308 H 0.46336 0.85164 0.7983 0.0
H3309 H 0.44664 0.83471 0.80599 0.0
H3310 H 0.49357 0.86341 0.81399 0.0
H3311 H 0.53636 0.85181 0.81317 0.0
H3312 H 0.16139 0.68959 0.80536 0.0
H3313 H 0.14907 0.6351 0.806 0.0
H3314 H 0.24722 0.66559 0.80729 0.0
H3315 H 0.25975 0.72023 0.80679 0.0
H3316 H 0.16781 0.60219 0.79768 0.0
H3317 H 0.20985 0.60516 0.82269 0.0
H3318 H 0.20269 0.63513 0.81954 0.0
H3319 H 0.23806 0.63518 0.81749 0.0
C3320 C 0.18041 0.68482 0.80588 0.0
C3321 C 0.21163 0.70954 0.80609 0.0
C3322 C 0.17329 0.65354 0.80619 0.0
C3323 C 0.19713 0.64608 0.80678 0.0
C3324 C 0.22832 0.67064 0.80695 0.0
H3325 H 0.21843 0.48419 0.80822 0.0
H3326 H 0.2222 0.53507 0.80851 0.0
C3327 C 0.23549 0.70195 0.8066 0.0
C3328 C 0.18944 0.61268 0.80707 0.0
H3329 H 0.19781 0.56016 0.81643 0.0
C3330 C 0.17412 0.59289 0.8018 0.0
C3331 C 0.19751 0.60042 0.81246 0.0
C3332 C 0.21268 0.61994 0.8184 0.0
C3333 C 0.16788 0.56171 0.80165 0.0
C3334 C 0.1765 0.54959 0.80699 0.0
C3335 C 0.19113 0.56924 0.81233 0.0
C3336 C 0.17294 0.5176 0.80696 0.0
C3337 C 0.15333 0.54249 0.79565 0.0
C3338 C 0.14377 0.49024 0.8061 0.0
C3339 C 0.14144 0.46061 0.8059 0.0
C3340 C 0.16824 0.45772 0.80659 0.0
C3341 C 0.19716 0.48517 0.80763 0.0
C3342 C 0.19943 0.51453 0.80782 0.0
H3343 H 0.15492 0.5573 0.79145 0.0
H3344 H 0.16478 0.52882 0.79433 0.0
H3345 H 0.12824 0.52583 0.79658 0.0
H3346 H 0.12277 0.49175 0.80558 0.0
H3347 H 0.11879 0.44009 0.80511 0.0
H3348 H 0.6214 0.76519 0.81347 0.0
H3349 H 0.56921 0.71934 0.8137 0.0
H3350 H 0.5999 0.6711 0.8009 0.0
H3351 H 0.65284 0.7168 0.80089 0.0
H3352 H 0.52961 0.69556 0.8045 0.0
H3353 H 0.55084 0.60191 0.81324 0.0
H3354 H 0.58051 0.64265 0.81355 0.0
H3355 H 0.57322 0.62087 0.80615 0.0
C3356 C 0.61727 0.74459 0.81081 0.0
C3357 C 0.64144 0.74468 0.80719 0.0
C3358 C 0.58724 0.71831 0.81092 0.0
C3359 C 0.58024 0.69134 0.80736 0.0
C3360 C 0.60457 0.6911 0.80383 0.0
H3361 H 0.3886 0.56026 0.79523 0.0
H3362 H 0.44274 0.60193 0.79604 0.0
C3363 C 0.63493 0.71735 0.80381 0.0
C3364 C 0.54707 0.66476 0.80702 0.0
H3365 H 0.50039 0.5855 0.8088 0.0
C3366 C 0.52334 0.67154 0.80548 0.0
C3367 C 0.5384 0.63326 0.80837 0.0
C3368 C 0.56203 0.62423 0.81049 0.0
C3369 C 0.49164 0.6481 0.80522 0.0
C3370 C 0.48309 0.61643 0.80629 0.0
C3371 C 0.50672 0.6096 0.8079 0.0
C3372 C 0.44988 0.5902 0.80575 0.0
C3373 C 0.46761 0.65782 0.80397 0.0
C3374 C 0.43564 0.56862 0.81083 0.0
C3375 C 0.40461 0.54398 0.81031 0.0
C3376 C 0.38686 0.54014 0.80469 0.0
C3377 C 0.40128 0.5619 0.79962 0.0
C3378 C 0.43234 0.58626 0.80012 0.0
H3379 H 0.47639 0.68251 0.80541 0.0
H3380 H 0.46236 0.65596 0.79871 0.0
H3381 H 0.44557 0.64275 0.80663 0.0
H3382 H 0.44855 0.57085 0.81523 0.0
H3383 H 0.39482 0.52757 0.81428 0.0
H3384 H 0.17461 0.52048 0.29737 0.0
H3385 H 0.16345 0.56335 0.29834 0.0
H3386 H 0.23337 0.6053 0.31324 0.0
H3387 H 0.24481 0.56244 0.31228 0.0
H3388 H 0.14551 0.58579 0.31018 0.0
H3389 H 0.25709 0.67482 0.29889 0.0
H3390 H 0.24155 0.63335 0.2978 0.0
H3391 H 0.2599 0.65164 0.3053 0.0
C3392 C 0.18778 0.53888 0.30083 0.0
C3393 C 0.21087 0.53806 0.3047 0.0
C3394 C 0.18118 0.5633 0.30141 0.0
C3395 C 0.19771 0.58775 0.30582 0.0
C3396 C 0.22046 0.58684 0.30976 0.0
H3397 H 0.2097 0.76713 0.31231 0.0
H3398 H 0.21511 0.72073 0.31253 0.0
C3399 C 0.22687 0.56222 0.30923 0.0
C3400 C 0.19148 0.61439 0.30619 0.0
H3401 H 0.22386 0.69231 0.30285 0.0
C3402 C 0.16261 0.60911 0.30858 0.0
C3403 C 0.21374 0.6448 0.3041 0.0
C3404 C 0.24478 0.65168 0.30133 0.0
C3405 C 0.15571 0.63355 0.30907 0.0
C3406 C 0.17793 0.66405 0.30693 0.0
C3407 C 0.20672 0.66912 0.3045 0.0
C3408 C 0.17242 0.69131 0.30727 0.0
C3409 C 0.12504 0.62655 0.31206 0.0
C3410 C 0.14625 0.69051 0.30434 0.0
C3411 C 0.14281 0.71715 0.3043 0.0
C3412 C 0.16578 0.74538 0.30708 0.0
C3413 C 0.19154 0.74588 0.31011 0.0
C3414 C 0.19475 0.71927 0.31022 0.0
H3415 H 0.11525 0.60539 0.31517 0.0
H3416 H 0.12768 0.6465 0.31501 0.0
H3417 H 0.10789 0.62209 0.30815 0.0
H3418 H 0.12899 0.66963 0.30187 0.0
H3419 H 0.12292 0.71604 0.30184 0.0
H3420 H 0.32588 0.48457 0.30827 0.0
H3421 H 0.37281 0.53558 0.30864 0.0
H3422 H 0.42942 0.49277 0.30572 0.0
H3423 H 0.38196 0.44101 0.30518 0.0
H3424 H 0.42235 0.56083 0.31659 0.0
H3425 H 0.46242 0.5584 0.2916 0.0
H3426 H 0.42414 0.52981 0.29447 0.0
H3427 H 0.45775 0.52689 0.2967 0.0
C3428 C 0.3482 0.4857 0.3077 0.0
C3429 C 0.34988 0.45836 0.30664 0.0
C3430 C 0.37519 0.51513 0.30793 0.0
C3431 C 0.40483 0.51837 0.3071 0.0
C3432 C 0.40684 0.49112 0.30623 0.0
H3433 H 0.58807 0.69044 0.30547 0.0
H3434 H 0.54596 0.63596 0.30612 0.0
C3435 C 0.37966 0.46143 0.30598 0.0
C3436 C 0.43315 0.55042 0.30714 0.0
H3437 H 0.49436 0.60319 0.29785 0.0
C3438 C 0.43811 0.56999 0.31249 0.0
C3439 C 0.45387 0.56264 0.3018 0.0
C3440 C 0.44925 0.54352 0.29579 0.0
C3441 C 0.46287 0.60118 0.31264 0.0
C3442 C 0.48321 0.61353 0.30726 0.0
C3443 C 0.47876 0.59382 0.30197 0.0
C3444 C 0.5089 0.64694 0.30698 0.0
C3445 C 0.46718 0.62059 0.31859 0.0
C3446 C 0.50226 0.6715 0.30719 0.0
C3447 C 0.52637 0.70281 0.30684 0.0
C3448 C 0.5578 0.7104 0.30627 0.0
C3449 C 0.5643 0.68567 0.30603 0.0
C3450 C 0.54017 0.6544 0.30635 0.0
H3451 H 0.4553 0.60573 0.32288 0.0
H3452 H 0.49235 0.63583 0.31973 0.0
H3453 H 0.45695 0.63578 0.31771 0.0
H3454 H 0.47832 0.66645 0.30757 0.0
H3455 H 0.52037 0.72109 0.30705 0.0
H3456 H 0.40384 0.91848 0.29744 0.0
H3457 H 0.45799 0.93002 0.29836 0.0
H3458 H 0.43198 0.86478 0.31418 0.0
H3459 H 0.37756 0.853 0.31328 0.0
H3460 H 0.49967 0.95141 0.31016 0.0
H3461 H 0.47627 0.8372 0.30014 0.0
H3462 H 0.45038 0.85254 0.29876 0.0
H3463 H 0.45075 0.83611 0.30648 0.0
C3464 C 0.40953 0.90642 0.3011 0.0
C3465 C 0.38613 0.88455 0.30525 0.0
C3466 C 0.44061 0.91324 0.30165 0.0
C3467 C 0.44911 0.89814 0.3063 0.0
C3468 C 0.42598 0.8766 0.31052 0.0
H3469 H 0.61763 0.88842 0.313 0.0
H3470 H 0.56575 0.88278 0.31327 0.0
C3471 C 0.39488 0.86999 0.31002 0.0
C3472 C 0.48203 0.90456 0.30666 0.0
H3473 H 0.52741 0.87167 0.30371 0.0
C3474 C 0.5058 0.93401 0.30875 0.0
C3475 C 0.49007 0.8819 0.30482 0.0
C3476 C 0.46568 0.85018 0.30238 0.0
C3477 C 0.53721 0.94114 0.3092 0.0
C3478 C 0.54537 0.91852 0.30731 0.0
C3479 C 0.52145 0.88912 0.30518 0.0
C3480 C 0.57822 0.92427 0.3076 0.0
C3481 C 0.56109 0.97252 0.31188 0.0
C3482 C 0.60317 0.94987 0.30442 0.0
C3483 C 0.63331 0.95347 0.30436 0.0
C3484 C 0.63902 0.93121 0.30735 0.0
C3485 C 0.61418 0.90603 0.31063 0.0
C3486 C 0.58433 0.90269 0.31077 0.0
H3487 H 0.54997 0.98289 0.3149 0.0
H3488 H 0.57879 0.97066 0.31486 0.0
H3489 H 0.57324 0.98882 0.30781 0.0
H3490 H 0.59918 0.96651 0.3018 0.0
H3491 H 0.65172 0.97286 0.3017 0.0
H3492 H 0.11119 0.86945 0.88653 0.0
H3493 H 0.06541 0.8759 0.88653 0.0
H3494 H 1.0156 0.79297 0.89824 0.0
H3495 H 0.06138 0.78573 0.89805 0.0
H3496 H 0.97685 0.79608 0.88956 0.0
H3497 H 0.04228 0.91139 0.90145 0.0
H3498 H 0.05994 0.91068 0.89393 0.0
H3499 H 0.05833 0.88592 0.90051 0.0
C3500 C 0.09043 0.85235 0.88907 0.0
C3501 C 0.09014 0.8272 0.89234 0.0
C3502 C 0.06425 0.85626 0.88911 0.0
C3503 C 0.0372 0.83559 0.89256 0.0
C3504 C 0.03624 0.80952 0.89559 0.0
H3505 H 0.90026 0.88838 0.90445 0.0
H3506 H 0.94198 0.87587 0.90378 0.0
C3507 C 0.06241 0.80531 0.89547 0.0
C3508 C 1.01041 0.84172 0.8931 0.0
H3509 H 0.99254 0.89822 0.89711 0.0
C3510 C 0.98028 0.81837 0.89124 0.0
C3511 C 1.01448 0.87057 0.89541 0.0
C3512 C 0.04543 0.89592 0.89801 0.0
C3513 C 0.95447 0.82326 0.89151 0.0
C3514 C 0.9589 0.8527 0.89352 0.0
C3515 C 0.98894 0.87579 0.89548 0.0
C3516 C 0.93271 0.85986 0.89385 0.0
C3517 C 0.9226 0.79643 0.8898 0.0
C3518 C 0.9135 0.85565 0.88847 0.0
C3519 C 0.88895 0.86222 0.88888 0.0
C3520 C 0.88317 0.8737 0.89466 0.0
C3521 C 0.90319 0.87887 0.89996 0.0
C3522 C 0.92743 0.87196 0.89956 0.0
H3523 H 0.92155 0.77354 0.89036 0.0
H3524 H 0.90414 0.79635 0.89287 0.0
H3525 H 0.91743 0.79866 0.88466 0.0
H3526 H 0.91747 0.84731 0.88393 0.0
H3527 H 0.87416 0.85769 0.88469 0.0
H3528 H 0.31675 0.31269 0.89688 0.0
H3529 H 0.31123 0.26031 0.89677 0.0
H3530 H 0.2242 0.22436 0.88646 0.0
H3531 H 0.22932 0.27617 0.8866 0.0
H3532 H 0.25557 0.20318 0.9022 0.0
H3533 H 0.2756 0.19161 0.87615 0.0
H3534 H 0.28986 0.22912 0.88002 0.0
H3535 H 0.2493 0.20585 0.87794 0.0
C3536 C 0.29673 0.29376 0.89449 0.0
C3537 C 0.27354 0.29878 0.89174 0.0
C3538 C 0.29351 0.26377 0.89446 0.0
C3539 C 0.26738 0.23834 0.89157 0.0
C3540 C 0.24473 0.24356 0.88866 0.0
H3541 H 0.19472 0.03769 0.88659 0.0
H3542 H 0.20618 0.09207 0.88592 0.0
C3543 C 0.24769 0.2733 0.88876 0.0
C3544 C 0.26259 0.20597 0.8919 0.0
H3545 H 0.25624 0.14584 0.88256 0.0
C3546 C 0.25602 0.19073 0.89792 0.0
C3547 C 0.26262 0.18948 0.8863 0.0
C3548 C 0.26993 0.2048 0.87973 0.0
C3549 C 0.24884 0.15936 0.89848 0.0
C3550 C 0.2492 0.14284 0.89288 0.0
C3551 C 0.25595 0.15825 0.88686 0.0
C3552 C 0.24265 0.1097 0.89318 0.0
C3553 C 0.23974 0.14394 0.90504 0.0
C3554 C 0.25967 0.10126 0.89736 0.0
C3555 C 0.25292 0.07015 0.8978 0.0
C3556 C 0.22932 0.04656 0.89397 0.0
C3557 C 0.21302 0.05517 0.88961 0.0
C3558 C 0.21956 0.08632 0.88923 0.0
H3559 H 0.23092 0.15586 0.90825 0.0
H3560 H 0.22143 0.11895 0.90464 0.0
H3561 H 0.26058 0.14535 0.9074 0.0
H3562 H 0.27835 0.11879 0.9003 0.0
H3563 H 0.2665 0.06461 0.9011 0.0
H3564 H 0.82821 0.98618 0.89137 0.0
H3565 H 0.87912 0.03321 0.89104 0.0
H3566 H 0.8359 0.08978 0.89341 0.0
H3567 H 0.7842 0.04222 0.8939 0.0
H3568 H 0.90421 0.08209 0.88284 0.0
H3569 H 0.90126 0.12428 0.90759 0.0
H3570 H 0.87291 0.08563 0.90485 0.0
H3571 H 0.86977 0.1189 0.90241 0.0
C3572 C 0.82922 1.00851 0.89183 0.0
C3573 C 0.80177 1.01015 0.89271 0.0
C3574 C 0.8586 0.03555 0.89162 0.0
C3575 C 0.86168 0.06522 0.8923 0.0
C3576 C 0.83435 0.06719 0.89302 0.0
H3577 H 0.03322 0.24904 0.8934 0.0
H3578 H 0.97884 0.2067 0.89287 0.0
C3579 C 0.80471 0.03994 0.89325 0.0
C3580 C 0.89365 0.09363 0.8922 0.0
H3581 H 0.94613 0.15574 0.90131 0.0
C3582 C 0.91328 0.09821 0.88688 0.0
C3583 C 0.90573 0.11483 0.89746 0.0
C3584 C 0.88649 0.11064 0.90343 0.0
C3585 C 0.9444 0.12306 0.88669 0.0
C3586 C 0.95663 0.14386 0.89199 0.0
C3587 C 0.93686 0.13979 0.89725 0.0
C3588 C 0.98997 0.16967 0.89222 0.0
C3589 C 0.96386 0.12696 0.88076 0.0
C3590 C 1.01459 0.16312 0.8921 0.0
C3591 C 0.04584 0.18735 0.89238 0.0
C3592 C 0.05332 0.21882 0.8928 0.0
C3593 C 0.02854 0.22523 0.89296 0.0
C3594 C 0.99732 0.20098 0.89271 0.0
H3595 H 0.94906 0.11471 0.8765 0.0
H3596 H 0.97905 0.15206 0.87953 0.0
H3597 H 0.97908 0.11684 0.88174 0.0
H3598 H 1.00963 0.13917 0.89183 0.0
H3599 H 0.06416 0.18143 0.89223 0.0
H3600 H 0.89638 0.32153 0.71924 0.0
H3601 H 0.89088 0.36787 0.71895 0.0
H3602 H 0.97569 0.4186 0.73004 0.0
H3603 H 0.98189 0.37226 0.73013 0.0
H3604 H 0.88079 0.39569 0.72852 0.0
H3605 H 0.99095 0.48356 0.71684 0.0
H3606 H 0.97867 0.44248 0.71695 0.0
H3607 H 0.99746 0.46655 0.72391 0.0
C3608 C 0.91425 0.3427 0.72152 0.0
C3609 C 0.93968 0.34311 0.72469 0.0
C3610 C 0.91099 0.36927 0.72137 0.0
C3611 C 0.93291 0.39711 0.72443 0.0
C3612 C 0.95876 0.39783 0.7275 0.0
H3613 H 0.92743 0.56605 0.73451 0.0
H3614 H 0.939 0.52342 0.7336 0.0
C3615 C 0.96228 0.37123 0.72757 0.0
C3616 C 0.92728 0.4243 0.72472 0.0
H3617 H 0.95995 0.50276 0.72165 0.0
C3618 C 0.89811 0.41901 0.72696 0.0
C3619 C 0.94973 0.45496 0.72271 0.0
C3620 C 0.98083 0.46223 0.71991 0.0
C3621 C 0.89096 0.44323 0.72731 0.0
C3622 C 0.91345 0.4738 0.72535 0.0
C3623 C 0.94268 0.47931 0.72315 0.0
C3624 C 0.90707 0.50034 0.72569 0.0
C3625 C 0.85948 0.43612 0.72986 0.0
C3626 C 0.88549 0.50188 0.72148 0.0
C3627 C 0.87887 0.52638 0.72197 0.0
C3628 C 0.89345 0.54974 0.72672 0.0
C3629 C 0.91536 0.54826 0.73086 0.0
C3630 C 0.9222 0.52399 0.73032 0.0
H3631 H 0.84657 0.41259 0.73213 0.0
H3632 H 0.86221 0.45391 0.73348 0.0
H3633 H 0.84519 0.43703 0.72581 0.0
H3634 H 0.87364 0.48401 0.71784 0.0
H3635 H 0.86185 0.52668 0.71871 0.0
H3636 H 0.52797 0.39709 0.73432 0.0
H3637 H 0.56986 0.45143 0.73337 0.0
H3638 H 0.61416 0.42468 0.71873 0.0
H3639 H 0.57172 0.37027 0.71955 0.0
H3640 H 0.62947 0.47854 0.73581 0.0
H3641 H 0.6177 0.49779 0.70983 0.0
H3642 H 0.58892 0.46351 0.71408 0.0
H3643 H 0.62413 0.46554 0.7111 0.0
C3644 C 0.54659 0.40273 0.73088 0.0
C3645 C 0.54635 0.37914 0.727 0.0
C3646 C 0.57059 0.43395 0.73033 0.0
C3647 C 0.59518 0.44263 0.7259 0.0
C3648 C 0.59513 0.41906 0.72205 0.0
H3649 H 0.77567 0.60803 0.72018 0.0
H3650 H 0.72866 0.55647 0.72009 0.0
C3651 C 0.57087 0.3878 0.72254 0.0
C3652 C 0.62129 0.47602 0.72552 0.0
H3653 H 0.66415 0.53663 0.71507 0.0
C3654 C 0.63673 0.49125 0.73127 0.0
C3655 C 0.63099 0.49301 0.71962 0.0
C3656 C 0.61436 0.47924 0.71332 0.0
C3657 C 0.66182 0.52232 0.73125 0.0
C3658 C 0.67192 0.53893 0.72534 0.0
C3659 C 0.65644 0.52394 0.7196 0.0
C3660 C 0.69964 0.57121 0.72501 0.0
C3661 C 0.67801 0.53697 0.73754 0.0
C3662 C 0.69894 0.5971 0.72766 0.0
C3663 C 0.7259 0.62696 0.72766 0.0
C3664 C 0.7542 0.63143 0.72507 0.0
C3665 C 0.75442 0.60556 0.72225 0.0
C3666 C 0.72749 0.57595 0.72218 0.0
H3667 H 0.67027 0.51969 0.74155 0.0
H3668 H 0.70372 0.54792 0.73698 0.0
H3669 H 0.67285 0.55565 0.7389 0.0
H3670 H 0.67766 0.59411 0.72983 0.0
H3671 H 0.72487 0.64623 0.72991 0.0
H3672 H 0.45382 0.11691 0.73076 0.0
H3673 H 0.50673 0.12383 0.73074 0.0
H3674 H 0.53994 0.20827 0.71953 0.0
H3675 H 0.48784 0.20207 0.71972 0.0
H3676 H 0.54814 0.12792 0.72171 0.0
H3677 H 0.59928 0.24148 0.73441 0.0
H3678 H 0.55769 0.21632 0.73353 0.0
H3679 H 0.5805 0.24189 0.72703 0.0
C3680 C 0.47237 0.13677 0.72824 0.0
C3681 C 0.46657 0.15911 0.72531 0.0
C3682 C 0.50269 0.1408 0.72825 0.0
C3683 C 0.5278 0.16716 0.72531 0.0
C3684 C 0.52147 0.18836 0.72205 0.0
H3685 H 0.72758 0.2372 0.71938 0.0
H3686 H 0.67309 0.2254 0.71863 0.0
C3687 C 0.49144 0.1846 0.72211 0.0
C3688 C 0.56063 0.17296 0.72569 0.0
H3689 H 0.63543 0.22833 0.7298 0.0
C3690 C 0.56713 0.1498 0.72353 0.0
C3691 C 0.58569 0.20146 0.72809 0.0
C3692 C 0.58043 0.22655 0.73096 0.0
C3693 C 0.59783 0.15467 0.72354 0.0
C3694 C 0.62284 0.18342 0.72579 0.0
C3695 C 0.61637 0.20645 0.728 0.0
C3696 C 0.65576 0.18977 0.72606 0.0
C3697 C 0.60349 0.12924 0.72105 0.0
C3698 C 0.6643 0.17384 0.73051 0.0
C3699 C 0.69543 0.18073 0.73099 0.0
C3700 C 0.71889 0.20364 0.72701 0.0
C3701 C 0.71018 0.2193 0.72249 0.0
C3702 C 0.67904 0.21264 0.72207 0.0
H3703 H 0.58294 0.11086 0.7184 0.0
H3704 H 0.62411 0.1392 0.71779 0.0
H3705 H 0.60847 0.11809 0.7252 0.0
H3706 H 0.64692 0.15633 0.73369 0.0
H3707 H 0.70112 0.16794 0.73447 0.0
H3708 H 0.19175 0.1739 0.14027 0.0
H3709 H 0.14935 0.18605 0.1406 0.0
H3710 H 0.21638 0.28419 0.13869 0.0
H3711 H 0.25878 0.27226 0.13823 0.0
H3712 H 0.13992 0.22495 0.14943 0.0
H3713 H 0.15311 0.26944 0.12425 0.0
H3714 H 0.17051 0.24682 0.12696 0.0
H3715 H 0.1881 0.28745 0.12905 0.0
C3716 C 0.19752 0.19806 0.13987 0.0
C3717 C 0.22887 0.22204 0.13922 0.0
C3718 C 0.1732 0.20501 0.14009 0.0
C3719 C 0.1795 0.23603 0.13959 0.0
C3720 C 0.21075 0.26002 0.13899 0.0
H3721 H 0.05075 0.31208 0.13782 0.0
H3722 H 0.09833 0.30791 0.13837 0.0
C3723 C 0.23507 0.25314 0.13881 0.0
C3724 C 0.15347 0.24328 0.13978 0.0
H3725 H 0.1162 0.27337 0.13085 0.0
C3726 C 0.13477 0.23554 0.14536 0.0
C3727 C 0.14682 0.25745 0.13452 0.0
C3728 C 0.16547 0.2656 0.12833 0.0
C3729 C 0.10975 0.24148 0.14581 0.0
C3730 C 0.10251 0.25486 0.14048 0.0
C3731 C 0.12162 0.2632 0.13495 0.0
C3732 C 0.07397 0.25821 0.14037 0.0
C3733 C 0.09153 0.23365 0.15206 0.0
C3734 C 0.04435 0.2318 0.14126 0.0
C3735 C 1.01732 0.23414 0.14098 0.0
C3736 C 1.01886 0.26297 0.13972 0.0
C3737 C 0.04856 0.28956 0.13884 0.0
C3738 C 0.0758 0.28716 0.13913 0.0
H3739 H 0.10589 0.23399 0.15623 0.0
H3740 H 0.08307 0.25026 0.15304 0.0
H3741 H 0.071 0.20973 0.15171 0.0
H3742 H 0.042 0.20904 0.14205 0.0
H3743 H 0.99505 0.21297 0.14165 0.0
H3744 H 0.84218 0.02546 0.13059 0.0
H3745 H 0.82942 0.97105 0.13163 0.0
H3746 H 0.90111 0.99799 0.14614 0.0
H3747 H 0.91343 0.05249 0.14523 0.0
H3748 H 0.86202 0.94386 0.12918 0.0
H3749 H 0.83129 0.92544 0.15518 0.0
H3750 H 0.83678 0.95961 0.15087 0.0
H3751 H 0.86997 0.95759 0.15386 0.0
C3752 C 0.85524 0.01984 0.13402 0.0
C3753 C 0.87888 0.04348 0.13783 0.0
C3754 C 0.84783 0.9886 0.13463 0.0
C3755 C 0.86385 0.98 0.13904 0.0
C3756 C 0.88765 1.00361 0.14283 0.0
H3757 H 0.87882 0.81487 0.14491 0.0
H3758 H 0.88329 0.86641 0.14498 0.0
C3759 C 0.89484 0.03489 0.14228 0.0
C3760 C 0.85644 0.94663 0.13946 0.0
H3761 H 0.83859 0.88628 0.14999 0.0
C3762 C 0.85656 0.93125 0.13373 0.0
C3763 C 0.84915 0.92982 0.14538 0.0
C3764 C 0.84645 0.94384 0.15166 0.0
C3765 C 0.85049 0.90017 0.13379 0.0
C3766 C 0.84398 0.88374 0.13972 0.0
C3767 C 0.84355 0.89886 0.14544 0.0
C3768 C 0.83942 0.85151 0.1401 0.0
C3769 C 0.85194 0.88531 0.12752 0.0
C3770 C 0.81279 0.82559 0.13747 0.0
C3771 C 0.80994 0.79577 0.13748 0.0
C3772 C 0.83386 0.7914 0.14005 0.0
C3773 C 0.85998 0.81729 0.14285 0.0
C3774 C 0.86261 0.84687 0.14291 0.0
H3775 H 0.86145 0.90247 0.12349 0.0
H3776 H 0.86668 0.87434 0.1281 0.0
H3777 H 0.82808 0.86662 0.12618 0.0
H3778 H 0.79446 0.82855 0.13531 0.0
H3779 H 0.78961 0.77646 0.13526 0.0
H3780 H 0.31983 0.05171 0.13473 0.0
H3781 H 0.26679 1.00597 0.13473 0.0
H3782 H 0.23426 0.05714 0.14611 0.0
H3783 H 0.28654 0.10287 0.14595 0.0
H3784 H 0.22557 0.96839 0.14371 0.0
H3785 H 0.17447 0.03176 0.13134 0.0
H3786 H 0.21606 0.04809 0.13218 0.0
H3787 H 0.19339 0.05045 0.13876 0.0
C3788 C 0.30142 0.05308 0.13729 0.0
C3789 C 0.30749 0.08117 0.14028 0.0
C3790 C 0.27101 0.02691 0.13726 0.0
C3791 C 0.24604 0.02821 0.14025 0.0
C3792 C 0.25262 0.05568 0.14356 0.0
H3793 H 0.04597 0.89797 0.146 0.0
H3794 H 0.10039 0.9408 0.14681 0.0
C3795 C 0.28275 0.08184 0.14351 0.0
C3796 C 0.21314 1.00125 0.13987 0.0
H3797 H 0.13834 0.9821 0.13583 0.0
C3798 C 0.2066 0.97142 0.14195 0.0
C3799 C 0.18808 1.00486 0.13753 0.0
C3800 C 0.19336 0.03543 0.13476 0.0
C3801 C 0.17589 0.94559 0.14189 0.0
C3802 C 0.15089 0.94947 0.1397 0.0
C3803 C 0.15738 0.97915 0.13759 0.0
C3804 C 0.11797 0.92286 0.13937 0.0
C3805 C 0.17023 0.91433 0.14429 0.0
C3806 C 0.10956 0.89855 0.1349 0.0
C3807 C 0.07847 0.87423 0.13439 0.0
C3808 C 0.05489 0.87343 0.13836 0.0
C3809 C 0.06345 0.89765 0.1429 0.0
C3810 C 0.09457 0.92223 0.14335 0.0
H3811 H 0.19068 0.91639 0.14697 0.0
H3812 H 0.14944 0.90328 0.1475 0.0
H3813 H 0.16557 0.89858 0.1401 0.0
H3814 H 0.12703 0.8986 0.13173 0.0
H3815 H 0.07291 0.85587 0.13089 0.0
H3816 H 0.92764 0.90875 0.6399 0.0
H3817 H 0.91573 0.95128 0.64023 0.0
H3818 H 0.81727 0.88409 0.63939 0.0
H3819 H 0.82894 0.84154 0.63909 0.0
H3820 H 0.88657 0.96851 0.6315 0.0
H3821 H 0.81866 0.93691 0.65434 0.0
H3822 H 0.84148 0.91931 0.65194 0.0
H3823 H 0.80344 0.90594 0.64849 0.0
C3824 C 0.90342 0.90296 0.6398 0.0
C3825 C 0.8793 0.87151 0.63953 0.0
C3826 C 0.89661 0.92737 0.64001 0.0
C3827 C 0.86552 0.92108 0.63996 0.0
C3828 C 0.84141 0.88973 0.63963 0.0
H3829 H 0.78804 0.04852 0.63784 0.0
H3830 H 0.79332 1.00147 0.63801 0.0
C3831 C 0.84818 0.86531 0.63945 0.0
C3832 C 0.85848 0.94732 0.63997 0.0
H3833 H 0.81886 0.97742 0.64808 0.0
C3834 C 0.87181 0.9704 0.63514 0.0
C3835 C 0.83904 0.94994 0.6447 0.0
C3836 C 0.82505 0.92689 0.65019 0.0
C3837 C 0.8663 0.99575 0.63489 0.0
C3838 C 0.84716 0.99852 0.63964 0.0
C3839 C 0.83338 0.97526 0.64442 0.0
C3840 C 0.843 0.02651 0.63993 0.0
C3841 C 0.88092 0.01936 0.62951 0.0
C3842 C 0.86887 0.0561 0.64114 0.0
C3843 C 0.86593 0.08284 0.64108 0.0
C3844 C 0.83694 0.08088 0.63982 0.0
C3845 C 0.8107 0.05103 0.63883 0.0
C3846 C 0.8137 0.02409 0.63891 0.0
H3847 H 0.88796 1.00986 0.62537 0.0
H3848 H 0.86458 0.02697 0.62772 0.0
H3849 H 0.90216 0.04026 0.63136 0.0
H3850 H 0.89159 0.05861 0.64206 0.0
H3851 H 0.88673 0.10521 0.64193 0.0
H3852 H 0.25042 0.02821 0.64487 0.0
H3853 H 0.20882 0.97352 0.64552 0.0
H3854 H 0.14848 0.99504 0.6343 0.0
H3855 H 0.18962 0.04988 0.63373 0.0
H3856 H 0.14753 0.946 0.65047 0.0
H3857 H 0.14623 0.92206 0.62423 0.0
H3858 H 0.17774 0.9562 0.62803 0.0
H3859 H 0.14183 0.9552 0.62606 0.0
C3860 C 0.2282 0.02155 0.64261 0.0
C3861 C 0.22368 0.04379 0.63922 0.0
C3862 C 0.20444 0.99008 0.64294 0.0
C3863 C 0.17561 0.97989 0.63985 0.0
C3864 C 0.17072 1.00207 0.63659 0.0
H3865 H 0.99584 0.81424 0.64492 0.0
H3866 H 0.04258 0.86575 0.64523 0.0
C3867 C 0.19439 0.03354 0.63627 0.0
C3868 C 0.15058 0.9462 0.64008 0.0
H3869 H 0.10449 0.88307 0.63051 0.0
C3870 C 0.13828 0.93222 0.64611 0.0
C3871 C 0.13872 0.92789 0.63441 0.0
C3872 C 0.15196 0.94093 0.62781 0.0
C3873 C 0.11382 0.90094 0.64659 0.0
C3874 C 0.10103 0.88306 0.64089 0.0
C3875 C 0.11408 0.8967 0.63488 0.0
C3876 C 0.07308 0.85086 0.64104 0.0
C3877 C 0.10188 0.88728 0.65321 0.0
C3878 C 0.07433 0.825 0.63854 0.0
C3879 C 0.0474 0.79516 0.63836 0.0
C3880 C 1.01852 0.79067 0.6406 0.0
C3881 C 1.01758 0.81661 0.64317 0.0
C3882 C 0.04443 0.84622 0.64339 0.0
H3883 H 0.11949 0.9003 0.65703 0.0
H3884 H 0.0807 0.88877 0.65431 0.0
H3885 H 0.0955 0.86231 0.65341 0.0
H3886 H 0.09611 0.82797 0.63666 0.0
H3887 H 0.049 0.77587 0.63629 0.0
H3888 H 0.32181 0.30857 0.63606 0.0
H3889 H 0.26945 0.30289 0.63605 0.0
H3890 H 0.23168 0.21179 0.6448 0.0
H3891 H 0.28332 0.21704 0.64475 0.0
H3892 H 0.19799 0.20959 0.63444 0.0
H3893 H 0.21505 0.30769 0.65022 0.0
H3894 H 0.2418 0.31909 0.64354 0.0
H3895 H 0.24304 0.29442 0.6498 0.0
C3896 C 0.30244 0.28761 0.6381 0.0
C3897 C 0.30694 0.26328 0.64039 0.0
C3898 C 0.27244 0.28438 0.6381 0.0
C3899 C 0.2464 0.25692 0.64046 0.0
C3900 C 0.25118 0.23316 0.64293 0.0
H3901 H 0.05657 0.21784 0.64875 0.0
H3902 H 0.11094 0.22961 0.64927 0.0
C3903 C 0.28092 0.23628 0.64291 0.0
C3904 C 0.21381 0.25165 0.64002 0.0
H3905 H 0.16622 0.27983 0.64483 0.0
C3906 C 0.19113 0.22502 0.63672 0.0
C3907 C 0.20453 0.27147 0.64304 0.0
C3908 C 0.22726 0.29962 0.64691 0.0
C3909 C 0.15973 0.2177 0.63634 0.0
C3910 C 0.15055 0.23787 0.63923 0.0
C3911 C 0.17316 0.26444 0.64257 0.0
C3912 C 0.11757 0.23148 0.6389 0.0
C3913 C 0.13651 0.18788 0.63299 0.0
C3914 C 0.10306 0.22898 0.6329 0.0
C3915 C 0.07193 0.22219 0.63259 0.0
C3916 C 0.05441 0.21796 0.63826 0.0
C3917 C 0.06921 0.22105 0.64427 0.0
C3918 C 0.10037 0.22776 0.64458 0.0
H3919 H 0.14515 0.17104 0.63265 0.0
H3920 H 0.11373 0.17639 0.63556 0.0
H3921 H 0.13258 0.19343 0.62799 0.0
H3922 H 0.11591 0.23249 0.62844 0.0
H3923 H 0.06177 0.22082 0.62787 0.0
H3924 H 0.5713 0.23832 0.21974 0.0
H3925 H 0.61426 0.22699 0.21887 0.0
H3926 H 0.56988 0.15423 0.23318 0.0
H3927 H 0.52696 0.16528 0.23406 0.0
H3928 H 0.65417 0.22807 0.22964 0.0
H3929 H 0.58977 0.11174 0.21779 0.0
H3930 H 0.57613 0.13954 0.21758 0.0
H3931 H 0.57149 0.11732 0.22479 0.0
C3932 C 0.57053 0.21971 0.22266 0.0
C3933 C 0.54561 0.20282 0.22699 0.0
C3934 C 0.59518 0.21332 0.22217 0.0
C3935 C 0.59524 0.18952 0.22591 0.0
C3936 C 0.57028 0.17245 0.23018 0.0
H3937 H 0.72499 0.1173 0.23019 0.0
H3938 H 0.67893 0.12406 0.23025 0.0
C3939 C 0.54585 0.17903 0.23072 0.0
C3940 C 0.62192 0.18333 0.22554 0.0
H3941 H 0.6414 0.12828 0.22122 0.0
C3942 C 0.65141 0.20633 0.22776 0.0
C3943 C 0.61831 0.15478 0.22319 0.0
C3944 C 0.58731 0.12941 0.22065 0.0
C3945 C 0.6772 0.20147 0.22777 0.0
C3946 C 0.67384 0.17314 0.22529 0.0
C3947 C 0.64421 0.15003 0.22311 0.0
C3948 C 0.70093 0.16745 0.22484 0.0
C3949 C 0.70758 0.22652 0.23064 0.0
C3950 C 0.72834 0.18874 0.22156 0.0
C3951 C 0.75465 0.18505 0.22157 0.0
C3952 C 0.75421 0.15956 0.22474 0.0
C3953 C 0.72617 0.13714 0.22769 0.0
C3954 C 0.69983 0.14108 0.22775 0.0
H3955 H 0.70369 0.24135 0.23412 0.0
H3956 H 0.72015 0.21623 0.23317 0.0
H3957 H 0.72276 0.24195 0.22671 0.0
H3958 H 0.72963 0.20867 0.21908 0.0
H3959 H 0.77563 0.2026 0.21917 0.0
H3960 H 0.98517 0.64771 0.22726 0.0
H3961 H 0.98053 0.59577 0.22671 0.0
H3962 H 0.88279 0.55465 0.22207 0.0
H3963 H 0.88724 0.60583 0.22246 0.0
H3964 H 0.94417 0.54337 0.234 0.0
H3965 H 0.91001 0.51575 0.20834 0.0
H3966 H 0.92585 0.55473 0.21155 0.0
H3967 H 0.88505 0.52642 0.21256 0.0
C3968 C 0.96283 0.62767 0.22602 0.0
C3969 C 0.93669 0.63124 0.22487 0.0
C3970 C 0.96015 0.59792 0.22573 0.0
C3971 C 0.93139 0.57115 0.22423 0.0
C3972 C 0.90543 0.57482 0.22306 0.0
H3973 H 0.84608 0.36891 0.22437 0.0
H3974 H 0.85848 0.42358 0.22393 0.0
C3975 C 0.90805 0.60433 0.22334 0.0
C3976 C 0.9277 0.53913 0.2242 0.0
H3977 H 0.89932 0.47222 0.21518 0.0
C3978 C 0.93478 0.52799 0.22985 0.0
C3979 C 0.91534 0.51882 0.21881 0.0
C3980 C 0.90893 0.52964 0.21245 0.0
C3981 C 0.92878 0.49697 0.23032 0.0
C3982 C 0.91563 0.47646 0.22499 0.0
C3983 C 0.90913 0.48776 0.2193 0.0
C3984 C 0.90824 0.44317 0.22522 0.0
C3985 C 0.93558 0.48605 0.23662 0.0
C3986 C 0.93206 0.4358 0.22601 0.0
C3987 C 0.92505 0.40456 0.22626 0.0
C3988 C 0.89399 0.37977 0.22572 0.0
C3989 C 0.8702 0.38726 0.22487 0.0
C3990 C 0.87728 0.41856 0.22458 0.0
H3991 H 0.93886 0.50216 0.24068 0.0
H3992 H 0.91637 0.46227 0.23789 0.0
H3993 H 0.95736 0.48496 0.2361 0.0
H3994 H 0.95618 0.45427 0.22642 0.0
H3995 H 0.944 0.39985 0.22699 0.0
H3996 H 0.44915 0.37422 0.22724 0.0
H3997 H 0.50102 0.42168 0.22673 0.0
H3998 H 0.54322 0.36491 0.2233 0.0
H3999 H 0.4922 0.31805 0.22366 0.0
H4000 H 0.55303 0.43954 0.23435 0.0
H4001 H 0.58294 0.42855 0.20909 0.0
H4002 H 0.54373 0.40585 0.21222 0.0
H4003 H 0.57205 0.39373 0.21367 0.0
C4004 C 0.46943 0.3719 0.22628 0.0
C4005 C 0.46618 0.3421 0.22545 0.0
C4006 C 0.49915 0.39908 0.22602 0.0
C4007 C 0.5262 0.39709 0.22486 0.0
C4008 C 0.52287 0.36737 0.22403 0.0
H4009 H 0.7283 0.51487 0.22523 0.0
H4010 H 0.67377 0.47243 0.22486 0.0
C4011 C 0.49342 0.3404 0.22429 0.0
C4012 C 0.55815 0.42558 0.22478 0.0
H4013 H 0.62577 0.46276 0.21593 0.0
C4014 C 0.56876 0.44485 0.23028 0.0
C4015 C 0.57894 0.43268 0.21948 0.0
C4016 C 0.56874 0.41429 0.21326 0.0
C4017 C 0.5997 0.47007 0.23073 0.0
C4018 C 0.62068 0.47657 0.22551 0.0
C4019 C 0.6099 0.45771 0.21996 0.0
C4020 C 0.65395 0.50263 0.22573 0.0
C4021 C 0.61 0.48889 0.2369 0.0
C4022 C 0.6612 0.53391 0.22626 0.0
C4023 C 0.6924 0.55826 0.22646 0.0
C4024 C 0.71729 0.55204 0.22614 0.0
C4025 C 0.70991 0.52065 0.22556 0.0
C4026 C 0.67866 0.49631 0.22532 0.0
H4027 H 0.59367 0.47663 0.24096 0.0
H4028 H 0.63376 0.49397 0.23832 0.0
H4029 H 0.61082 0.51152 0.23611 0.0
H4030 H 0.64269 0.53956 0.22648 0.0
H4031 H 0.69698 0.582 0.22699 0.0
H4032 H 0.64077 0.51524 0.05906 0.0
H4033 H 0.63236 0.46167 0.05878 0.0
H4034 H 0.53462 0.42474 0.06285 0.0
H4035 H 0.54252 0.47745 0.0631 0.0
H4036 H 0.56986 0.40087 0.07087 0.0
H4037 H 0.57859 0.39328 0.04411 0.0
H4038 H 0.60784 0.42752 0.04828 0.0
H4039 H 0.5686 0.42033 0.04777 0.0
C4040 C 0.61752 0.4957 0.0599 0.0
C4041 C 0.59233 0.50079 0.06107 0.0
C4042 C 0.61274 0.46512 0.05972 0.0
C4043 C 0.5828 0.43922 0.06076 0.0
C4044 C 0.55787 0.44433 0.06202 0.0
H4045 H 0.48023 0.23992 0.05606 0.0
H4046 H 0.50117 0.29663 0.05607 0.0
C4047 C 0.56251 0.47463 0.06214 0.0
C4048 C 0.57682 0.40656 0.06057 0.0
H4049 H 0.56421 0.34759 0.05015 0.0
C4050 C 0.5691 0.38932 0.06635 0.0
C4051 C 0.57542 0.39146 0.05466 0.0
C4052 C 0.58291 0.40887 0.04832 0.0
C4053 C 0.55962 0.3573 0.06637 0.0
C4054 C 0.55768 0.34205 0.06046 0.0
C4055 C 0.56582 0.35936 0.05468 0.0
C4056 C 0.5458 0.30782 0.06019 0.0
C4057 C 0.55067 0.3396 0.07269 0.0
C4058 C 0.56406 0.29531 0.06243 0.0
C4059 C 0.55221 0.26291 0.06241 0.0
C4060 C 0.52171 0.24231 0.06018 0.0
C4061 C 0.50365 0.25504 0.05787 0.0
C4062 C 0.51564 0.28745 0.05783 0.0
H4063 H 0.55021 0.35402 0.07677 0.0
H4064 H 0.5273 0.3183 0.07227 0.0
H4065 H 0.56774 0.33194 0.07386 0.0
H4066 H 0.58741 0.31061 0.06426 0.0
H4067 H 0.56666 0.25394 0.06429 0.0
H4068 H 0.84812 0.34862 0.0546 0.0
H4069 H 0.79149 0.31311 0.05424 0.0
H4070 H 0.80192 0.24522 0.06542 0.0
H4071 H 0.85844 0.27988 0.06563 0.0
H4072 H 0.75695 0.24881 0.04949 0.0
H4073 H 0.73605 0.25829 0.07556 0.0
H4074 H 0.77114 0.28662 0.07143 0.0
H4075 H 0.76675 0.24978 0.07393 0.0
C4076 C 0.83851 0.32599 0.05691 0.0
C4077 C 0.85812 0.31738 0.06019 0.0
C4078 C 0.80603 0.30581 0.05674 0.0
C4079 C 0.79239 0.27673 0.0599 0.0
C4080 C 0.81183 0.26782 0.06307 0.0
H4081 H 0.62095 0.1048 0.05695 0.0
H4082 H 0.67369 0.14944 0.05647 0.0
C4083 C 0.84425 0.2878 0.0632 0.0
C4084 C 0.75791 0.25529 0.05981 0.0
H4085 H 0.69425 0.21692 0.0697 0.0
C4086 C 0.74317 0.24211 0.0539 0.0
C4087 C 0.73981 0.24683 0.06554 0.0
C4088 C 0.7541 0.26128 0.07198 0.0
C4089 C 0.71117 0.21963 0.05363 0.0
C4090 C 0.69343 0.20992 0.05941 0.0
C4091 C 0.70784 0.22421 0.06527 0.0
C4092 C 0.66071 0.18324 0.05953 0.0
C4093 C 0.69665 0.20607 0.04715 0.0
C4094 C 0.63566 0.18719 0.06151 0.0
C4095 C 0.6051 0.16148 0.06179 0.0
C4096 C 0.59918 0.13128 0.06019 0.0
C4097 C 0.62445 0.1276 0.05823 0.0
C4098 C 0.65474 0.1532 0.05791 0.0
H4099 H 0.71049 0.22173 0.0431 0.0
H4100 H 0.69582 0.18337 0.04649 0.0
H4101 H 0.67239 0.20182 0.04687 0.0
H4102 H 0.63976 0.21016 0.06284 0.0
H4103 H 0.58627 0.16518 0.06334 0.0
H4104 H 0.99822 0.55945 0.06236 0.0
H4105 H 0.95431 0.56853 0.06187 0.0
H4106 H 0.89198 0.47068 0.05802 0.0
H4107 H 0.93621 0.46111 0.05864 0.0
H4108 H 0.91575 0.5605 0.05188 0.0
H4109 H 0.84707 0.48674 0.0727 0.0
H4110 H 0.88699 0.4967 0.07123 0.0
H4111 H 0.85589 0.46685 0.0665 0.0
C4112 C 0.97523 0.53966 0.06142 0.0
C4113 C 0.97088 0.50946 0.06054 0.0
C4114 C 0.95005 0.54498 0.06114 0.0
C4115 C 0.91969 0.52034 0.05996 0.0
C4116 C 0.91507 0.49005 0.05906 0.0
H4117 H 0.77101 0.56393 0.0506 0.0
H4118 H 0.8079 0.54456 0.04992 0.0
C4119 C 0.94041 0.48461 0.05939 0.0
C4120 C 0.89348 0.52712 0.05957 0.0
H4121 H 0.8258 0.51313 0.06699 0.0
C4122 C 0.89594 0.54992 0.05515 0.0
C4123 C 0.86773 0.51357 0.06388 0.0
C4124 C 0.86423 0.48979 0.06889 0.0
C4125 C 0.8739 0.56002 0.05501 0.0
C4126 C 0.84823 0.54657 0.05933 0.0
C4127 C 0.84538 0.52332 0.06366 0.0
C4128 C 0.82525 0.55773 0.0597 0.0
C4129 C 0.87903 0.58597 0.05042 0.0
C4130 C 0.82231 0.57121 0.06544 0.0
C4131 C 0.80136 0.58243 0.06584 0.0
C4132 C 0.78254 0.58024 0.06051 0.0
C4133 C 0.7854 0.56651 0.05477 0.0
C4134 C 0.80646 0.55531 0.05437 0.0
H4135 H 0.90322 0.59842 0.04847 0.0
H4136 H 0.86268 0.57595 0.04628 0.0
H4137 H 0.87437 0.60325 0.05287 0.0
H4138 H 0.83661 0.57346 0.0696 0.0
H4139 H 0.80027 0.59323 0.07031 0.0
H4140 H 0.52232 0.63055 0.47343 0.0
H4141 H 0.46836 0.62056 0.47413 0.0
H4142 H 0.43355 0.52293 0.4702 0.0
H4143 H 0.48663 0.53243 0.46957 0.0
H4144 H 0.41904 0.59522 0.46515 0.0
H4145 H 0.38749 0.51908 0.48674 0.0
H4146 H 0.42746 0.54372 0.48418 0.0
H4147 H 0.40328 0.50634 0.4804 0.0
C4148 C 0.50316 0.607 0.4727 0.0
C4149 C 0.50898 0.58231 0.47151 0.0
C4150 C 0.47232 0.6013 0.47312 0.0
C4151 C 0.44683 0.57082 0.47237 0.0
C4152 C 0.45271 0.54646 0.47098 0.0
H4153 H 0.24724 0.46891 0.46882 0.0
H4154 H 0.3034 0.48831 0.46934 0.0
C4155 C 0.48327 0.55205 0.47059 0.0
C4156 C 0.41391 0.56398 0.47293 0.0
H4157 H 0.34473 0.51537 0.48053 0.0
C4158 C 0.40289 0.57815 0.46858 0.0
C4159 C 0.39278 0.54173 0.47742 0.0
C4160 C 0.40341 0.52709 0.4825 0.0
C4161 C 0.37107 0.56954 0.4684 0.0
C4162 C 0.34979 0.54633 0.4727 0.0
C4163 C 0.361 0.53293 0.47719 0.0
C4164 C 0.31561 0.53479 0.47249 0.0
C4165 C 0.36018 0.58438 0.46343 0.0
C4166 C 0.30368 0.5543 0.47419 0.0
C4167 C 0.27145 0.54314 0.47399 0.0
C4168 C 0.25036 0.51219 0.47206 0.0
C4169 C 0.26252 0.49267 0.47042 0.0
C4170 C 0.29472 0.50381 0.47067 0.0
H4171 H 0.37843 0.59785 0.45974 0.0
H4172 H 0.33888 0.56627 0.46093 0.0
H4173 H 0.3541 0.6006 0.46589 0.0
H4174 H 0.3193 0.57812 0.47573 0.0
H4175 H 0.26306 0.55875 0.47541 0.0
H4176 H 0.54315 0.7428 0.47726 0.0
H4177 H 0.52273 0.77879 0.47679 0.0
H4178 H 0.60803 0.8483 0.46773 0.0
H4179 H 0.62797 0.81204 0.46787 0.0
H4180 H 0.54264 0.83576 0.482 0.0
H4181 H 0.54424 0.84605 0.45533 0.0
H4182 H 0.54969 0.81674 0.45938 0.0
H4183 H 0.5819 0.85603 0.45848 0.0
C4184 C 0.55747 0.76559 0.47509 0.0
C4185 C 0.58719 0.77426 0.47255 0.0
C4186 C 0.5458 0.78626 0.47487 0.0
C4187 C 0.56349 0.81607 0.47209 0.0
C4188 C 0.59353 0.82516 0.46974 0.0
H4189 H 0.56577 0.9883 0.46934 0.0
H4190 H 0.57379 0.94357 0.46966 0.0
C4191 C 0.60514 0.80448 0.46992 0.0
C4192 C 0.55087 0.83789 0.47173 0.0
H4193 H 0.53923 0.88498 0.4613 0.0
C4194 C 0.54144 0.84614 0.47746 0.0
C4195 C 0.54892 0.85126 0.46579 0.0
C4196 C 0.55641 0.84182 0.45939 0.0
C4197 C 0.53169 0.86851 0.47745 0.0
C4198 C 0.53128 0.88292 0.47157 0.0
C4199 C 0.53964 0.87393 0.46581 0.0
C4200 C 0.52529 0.90956 0.47137 0.0
C4201 C 0.52316 0.87767 0.48376 0.0
C4202 C 0.49514 0.90526 0.47217 0.0
C4203 C 0.4903 0.931 0.47195 0.0
C4204 C 0.51562 0.96142 0.47098 0.0
C4205 C 0.54567 0.96535 0.47015 0.0
C4206 C 0.55038 0.93975 0.47031 0.0
H4207 H 0.52664 0.86577 0.48798 0.0
H4208 H 0.53748 0.90335 0.48446 0.0
H4209 H 0.49829 0.87153 0.48362 0.0
H4210 H 0.4754 0.88205 0.47296 0.0
H4211 H 0.46688 0.92711 0.47261 0.0
H4212 H 0.28358 0.85375 0.47243 0.0
H4213 H 0.24776 0.79731 0.47231 0.0
H4214 H 0.32563 0.78164 0.47028 0.0
H4215 H 0.36172 0.83817 0.47031 0.0
H4216 H 0.24023 0.75549 0.46233 0.0
H4217 H 0.27574 0.7227 0.48524 0.0
H4218 H 0.28625 0.76252 0.48338 0.0
H4219 H 0.3067 0.74525 0.4796 0.0
C4220 C 0.2932 0.8384 0.47194 0.0
C4221 C 0.32567 0.85073 0.47137 0.0
C4222 C 0.27263 0.80605 0.47191 0.0
C4223 C 0.28394 0.78511 0.47135 0.0
C4224 C 0.31633 0.79723 0.47084 0.0
H4225 H 0.17333 0.57787 0.46984 0.0
H4226 H 0.21766 0.63182 0.46966 0.0
C4227 C 0.33696 0.82965 0.47087 0.0
C4228 C 0.26156 0.75077 0.47102 0.0
H4229 H 0.23696 0.6815 0.479 0.0
C4230 C 0.23963 0.73934 0.46597 0.0
C4231 C 0.26094 0.72953 0.47572 0.0
C4232 C 0.28347 0.74051 0.48133 0.0
C4233 C 0.21687 0.70751 0.46554 0.0
C4234 C 0.21546 0.68644 0.47036 0.0
C4235 C 0.23802 0.69761 0.4753 0.0
C4236 C 0.18914 0.65349 0.47063 0.0
C4237 C 0.1944 0.69673 0.45991 0.0
C4238 C 0.1585 0.64768 0.47137 0.0
C4239 C 0.13332 0.61712 0.47147 0.0
C4240 C 0.13796 0.5913 0.47087 0.0
C4241 C 0.16879 0.59708 0.47027 0.0
C4242 C 0.19417 0.62792 0.47018 0.0
H4243 H 0.20423 0.71289 0.45572 0.0
H4244 H 0.18836 0.67287 0.45833 0.0
H4245 H 0.17257 0.69617 0.46141 0.0
H4246 H 0.15401 0.66691 0.47188 0.0
H4247 H 0.11008 0.61388 0.472 0.0
H4248 H 0.46647 0.57598 0.97305 0.0
H4249 H 0.47557 0.62982 0.97324 0.0
H4250 H 0.57335 0.66556 0.96943 0.0
H4251 H 0.56478 0.6126 0.96927 0.0
H4252 H 0.52521 0.68392 0.98172 0.0
H4253 H 0.54007 0.70435 0.95519 0.0
H4254 H 0.51838 0.66567 0.95868 0.0
H4255 H 0.56032 0.6862 0.95874 0.0
C4256 C 0.48987 0.59533 0.97223 0.0
C4257 C 0.51485 0.58984 0.97115 0.0
C4258 C 0.49503 0.62604 0.97236 0.0
C4259 C 0.52512 0.65165 0.97131 0.0
C4260 C 0.54993 0.64617 0.97021 0.0
H4261 H 0.62712 0.85156 0.96762 0.0
H4262 H 0.60736 0.79532 0.96782 0.0
C4263 C 0.54491 0.61574 0.97014 0.0
C4264 C 0.53134 0.68438 0.97141 0.0
H4265 H 0.55686 0.74909 0.96184 0.0
C4266 C 0.53166 0.69814 0.97737 0.0
C4267 C 0.54006 0.70289 0.96574 0.0
C4268 C 0.53953 0.68909 0.9592 0.0
C4269 C 0.54173 0.73027 0.97785 0.0
C4270 C 0.55108 0.749 0.97218 0.0
C4271 C 0.54985 0.7349 0.96619 0.0
C4272 C 0.56328 0.78343 0.97234 0.0
C4273 C 0.54366 0.74409 0.98445 0.0
C4274 C 0.54517 0.79572 0.9748 0.0
C4275 C 0.55665 0.82806 0.97479 0.0
C4276 C 0.5864 0.84893 0.97223 0.0
C4277 C 0.6044 0.83645 0.96975 0.0
C4278 C 0.59298 0.80416 0.9698 0.0
H4279 H 0.54378 0.72873 0.98837 0.0
H4280 H 0.56499 0.76741 0.98491 0.0
H4281 H 0.523 0.74696 0.98519 0.0
H4282 H 0.52194 0.78029 0.97667 0.0
H4283 H 0.54214 0.83666 0.97679 0.0
H4284 H 0.24605 0.81373 0.96931 0.0
H4285 H 0.30224 0.85037 0.96978 0.0
H4286 H 0.31822 0.77564 0.97553 0.0
H4287 H 0.26194 0.73886 0.97526 0.0
H4288 H 0.34426 0.86334 0.98082 0.0
H4289 H 0.37641 0.81673 0.95946 0.0
H4290 H 0.33699 0.80875 0.96083 0.0
H4291 H 0.35239 0.78902 0.96555 0.0
C4292 C 0.26134 0.80502 0.97076 0.0
C4293 C 0.24919 0.77314 0.97223 0.0
C4294 C 0.29357 0.82603 0.97098 0.0
C4295 C 0.3145 0.81569 0.9726 0.0
C4296 C 0.30257 0.78405 0.97415 0.0
H4297 H 0.52137 0.92683 0.97291 0.0
H4298 H 0.46751 0.88268 0.97368 0.0
C4299 C 0.27031 0.76302 0.97397 0.0
C4300 C 0.34871 0.83827 0.97277 0.0
H4301 H 0.41741 0.85945 0.9649 0.0
C4302 C 0.36027 0.86239 0.97736 0.0
C4303 C 0.36968 0.83681 0.96831 0.0
C4304 C 0.3584 0.8116 0.96322 0.0
C4305 C 0.39209 0.88535 0.97755 0.0
C4306 C 0.41288 0.88474 0.97291 0.0
C4307 C 0.40152 0.86 0.96845 0.0
C4308 C 0.44574 0.91094 0.97231 0.0
C4309 C 0.40311 0.91008 0.98275 0.0
C4310 C 0.45146 0.9413 0.97111 0.0
C4311 C 0.48196 0.96637 0.97068 0.0
C4312 C 0.50779 0.96184 0.97136 0.0
C4313 C 0.50212 0.93123 0.97237 0.0
C4314 C 0.47133 0.90598 0.97282 0.0
H4315 H 0.38753 0.90167 0.98705 0.0
H4316 H 0.42729 0.91736 0.98432 0.0
H4317 H 0.40279 0.9309 0.98082 0.0
H4318 H 0.4322 0.94567 0.97051 0.0
H4319 H 0.48519 0.98942 0.9698 0.0
H4320 H 0.1718 0.63027 0.96856 0.0
H4321 H 0.21655 0.62141 0.96889 0.0
H4322 H 0.15612 0.52728 0.97562 0.0
H4323 H 0.1117 0.53579 0.97533 0.0
H4324 H 0.21469 0.56116 0.9825 0.0
H4325 H 0.22917 0.56407 0.95573 0.0
H4326 H 0.22844 0.59667 0.95943 0.0
H4327 H 0.19387 0.55885 0.95948 0.0
C4328 C 0.1681 0.60778 0.97015 0.0
C4329 C 0.13801 0.58371 0.97187 0.0
C4330 C 0.19368 0.60269 0.9703 0.0
C4331 C 0.18964 0.57353 0.97222 0.0
C4332 C 0.15984 0.54991 0.97411 0.0
H4333 H 0.28364 0.46877 0.96764 0.0
H4334 H 0.24865 0.49029 0.96795 0.0
C4335 C 0.13438 0.55485 0.97391 0.0
C4336 C 0.21592 0.56688 0.97215 0.0
H4337 H 0.26185 0.55243 0.96198 0.0
C4338 C 0.22533 0.55969 0.97802 0.0
C4339 C 0.22952 0.56457 0.9663 0.0
C4340 C 0.21974 0.57123 0.95985 0.0
C4341 C 0.24761 0.54985 0.97818 0.0
C4342 C 0.2608 0.54706 0.97232 0.0
C4343 C 0.25179 0.55471 0.96647 0.0
C4344 C 0.28258 0.53446 0.97215 0.0
C4345 C 0.25613 0.54139 0.98458 0.0
C4346 C 0.3134 0.55217 0.9744 0.0
C4347 C 0.33376 0.5401 0.97415 0.0
C4348 C 0.3237 0.50994 0.97166 0.0
C4349 C 0.29259 0.49225 0.96948 0.0
C4350 C 0.2724 0.50444 0.96968 0.0
H4351 H 0.24132 0.54155 0.98861 0.0
H4352 H 0.25373 0.51783 0.98429 0.0
H4353 H 0.2809 0.55838 0.98571 0.0
H4354 H 0.32182 0.5755 0.97629 0.0
H4355 H 0.35758 0.55472 0.97579 0.0
H4356 H 0.62151 0.55535 0.56323 0.0
H4357 H 0.67416 0.5633 0.563 0.0
H4358 H 0.6374 0.46559 0.55884 0.0
H4359 H 0.5839 0.45719 0.55906 0.0
H4360 H 0.69806 0.52979 0.57099 0.0
H4361 H 0.70582 0.51654 0.54439 0.0
H4362 H 0.67792 0.52588 0.54785 0.0
H4363 H 0.67207 0.48719 0.54867 0.0
C4364 C 0.62435 0.53538 0.56225 0.0
C4365 C 0.59826 0.50556 0.56114 0.0
C4366 C 0.65462 0.54005 0.56213 0.0
C4367 C 0.65979 0.51516 0.56086 0.0
C4368 C 0.63394 0.48522 0.55978 0.0
H4369 H 0.84473 0.5328 0.55571 0.0
H4370 H 0.7883 0.51229 0.55604 0.0
C4371 C 0.60338 0.48042 0.55994 0.0
C4372 C 0.69245 0.52115 0.56074 0.0
H4373 H 0.75133 0.53186 0.5505 0.0
C4374 C 0.70965 0.52993 0.56653 0.0
C4375 C 0.70749 0.52122 0.55492 0.0
C4376 C 0.6901 0.51236 0.54858 0.0
C4377 C 0.74159 0.53928 0.56663 0.0
C4378 C 0.75711 0.54083 0.56075 0.0
C4379 C 0.7396 0.53097 0.555 0.0
C4380 C 0.79157 0.5535 0.56047 0.0
C4381 C 0.75833 0.54727 0.57306 0.0
C4382 C 0.81242 0.58379 0.56271 0.0
C4383 C 0.84472 0.59548 0.5626 0.0
C4384 C 0.85713 0.57733 0.56017 0.0
C4385 C 0.83617 0.54731 0.55774 0.0
C4386 C 0.80381 0.53557 0.55788 0.0
H4387 H 0.74183 0.53546 0.57712 0.0
H4388 H 0.77664 0.54052 0.57318 0.0
H4389 H 0.76964 0.57286 0.57386 0.0
H4390 H 0.80369 0.59845 0.56458 0.0
H4391 H 0.85991 0.61855 0.56457 0.0
H4392 H 0.54038 0.1002 0.56334 0.0
H4393 H 0.53159 0.14448 0.5632 0.0
H4394 H 0.62907 0.20673 0.5591 0.0
H4395 H 0.63829 0.16213 0.55922 0.0
H4396 H 0.56404 0.20167 0.57124 0.0
H4397 H 0.57804 0.22387 0.54468 0.0
H4398 H 0.56929 0.1867 0.54811 0.0
H4399 H 0.60769 0.21995 0.54895 0.0
C4400 C 0.5601 0.12323 0.56239 0.0
C4401 C 0.59011 0.12748 0.56127 0.0
C4402 C 0.55497 0.14858 0.56233 0.0
C4403 C 0.57956 0.17887 0.56109 0.0
C4404 C 0.60967 0.18346 0.56001 0.0
H4405 H 0.56305 0.3469 0.55613 0.0
H4406 H 0.5829 0.3104 0.55644 0.0
C4407 C 0.61494 0.15798 0.56012 0.0
C4408 C 0.57314 0.20528 0.56101 0.0
H4409 H 0.56304 0.25419 0.55084 0.0
C4410 C 0.56409 0.21338 0.56679 0.0
C4411 C 0.57332 0.2206 0.55521 0.0
C4412 C 0.58244 0.21241 0.54885 0.0
C4413 C 0.55484 0.23607 0.56693 0.0
C4414 C 0.55366 0.25047 0.56108 0.0
C4415 C 0.56367 0.24304 0.55532 0.0
C4416 C 0.54139 0.27262 0.56082 0.0
C4417 C 0.54666 0.24452 0.57337 0.0
C4418 C 0.51115 0.26348 0.56306 0.0
C4419 C 0.49985 0.28444 0.56297 0.0
C4420 C 0.51833 0.31504 0.56056 0.0
C4421 C 0.5483 0.32381 0.55814 0.0
C4422 C 0.55965 0.30285 0.55827 0.0
H4423 H 0.55818 0.23945 0.57743 0.0
H4424 H 0.55358 0.26964 0.57355 0.0
H4425 H 0.52104 0.23035 0.57412 0.0
H4426 H 0.49623 0.24006 0.5649 0.0
H4427 H 0.4768 0.27677 0.56492 0.0
H4428 H 0.99637 0.47676 0.56373 0.0
H4429 H 0.95201 0.42373 0.56362 0.0
H4430 H 0.89036 0.45916 0.55903 0.0
H4431 H 0.93504 0.51291 0.55913 0.0
H4432 H 0.89401 0.39923 0.57143 0.0
H4433 H 0.87467 0.39081 0.54477 0.0
H4434 H 0.91147 0.41921 0.54832 0.0
H4435 H 0.87821 0.42447 0.54893 0.0
C4436 C 0.97345 0.47349 0.56269 0.0
C4437 C 0.96938 0.49927 0.56142 0.0
C4438 C 0.94806 0.44304 0.56265 0.0
C4439 C 0.91793 0.43742 0.56127 0.0
C4440 C 0.91351 0.46297 0.56005 0.0
H4441 H 0.75069 0.25291 0.5559 0.0
H4442 H 0.78703 0.30927 0.55627 0.0
C4443 C 0.93902 0.49368 0.56015 0.0
C4444 C 0.89151 0.40463 0.56116 0.0
H4445 H 0.84372 0.34555 0.55092 0.0
C4446 C 0.88278 0.38754 0.56696 0.0
C4447 C 0.87682 0.38945 0.55532 0.0
C4448 C 0.8857 0.40671 0.54895 0.0
C4449 C 0.86007 0.3556 0.56708 0.0
C4450 C 0.84632 0.33998 0.5612 0.0
C4451 C 0.85437 0.35736 0.55542 0.0
C4452 C 0.82423 0.30555 0.56093 0.0
C4453 C 0.85091 0.33902 0.57352 0.0
C4454 C 0.83312 0.28447 0.56331 0.0
C4455 C 0.81223 0.25219 0.56319 0.0
C4456 C 0.78199 0.24006 0.5606 0.0
C4457 C 0.77349 0.26125 0.55805 0.0
C4458 C 0.79436 0.29357 0.55821 0.0
H4459 H 0.85549 0.35566 0.57755 0.0
H4460 H 0.82581 0.3208 0.57361 0.0
H4461 H 0.86501 0.3276 0.57442 0.0
H4462 H 0.85628 0.29297 0.56528 0.0
H4463 H 0.81967 0.23682 0.56525 0.0
H4464 H 0.14706 0.57154 0.39816 0.0
H4465 H 0.16685 0.6278 0.39799 0.0
H4466 H 0.25225 0.6429 0.38913 0.0
H4467 H 0.23202 0.58653 0.38896 0.0
H4468 H 0.21747 0.67393 0.40399 0.0
H4469 H 0.23036 0.69454 0.37747 0.0
H4470 H 0.20914 0.65583 0.38091 0.0
H4471 H 0.25113 0.67625 0.38062 0.0
C4472 C 0.16978 0.58667 0.39604 0.0
C4473 C 0.18778 0.57423 0.39354 0.0
C4474 C 0.18122 0.61896 0.39601 0.0
C4475 C 0.21092 0.63971 0.39347 0.0
C4476 C 0.22902 0.62745 0.39099 0.0
H4477 H 0.30763 0.84701 0.39252 0.0
H4478 H 0.29857 0.79319 0.3924 0.0
C4479 C 0.21753 0.59512 0.39098 0.0
C4480 C 0.22314 0.67412 0.39365 0.0
H4481 H 0.24905 0.73929 0.38414 0.0
C4482 C 0.22446 0.68817 0.39965 0.0
C4483 C 0.23248 0.6929 0.38799 0.0
C4484 C 0.23049 0.67913 0.38137 0.0
C4485 C 0.23431 0.72018 0.40012 0.0
C4486 C 0.243 0.73873 0.39445 0.0
C4487 C 0.24262 0.72503 0.38848 0.0
C4488 C 0.24924 0.77146 0.39457 0.0
C4489 C 0.23498 0.73393 0.40667 0.0
C4490 C 0.22455 0.777 0.39578 0.0
C4491 C 0.22954 0.80741 0.3958 0.0
C4492 C 0.25946 0.83323 0.39464 0.0
C4493 C 0.28435 0.82772 0.39346 0.0
C4494 C 0.27921 0.79701 0.39338 0.0
H4495 H 0.23478 0.71874 0.41066 0.0
H4496 H 0.256 0.75746 0.40717 0.0
H4497 H 0.21405 0.73654 0.40719 0.0
H4498 H 0.20121 0.75764 0.39666 0.0
H4499 H 0.20977 0.81061 0.39675 0.0
H4500 H 0.52958 0.60811 0.39202 0.0
H4501 H 0.4732 0.57214 0.3922 0.0
H4502 H 0.45744 0.64958 0.39507 0.0
H4503 H 0.5139 0.68579 0.39499 0.0
H4504 H 0.43204 0.56351 0.40247 0.0
H4505 H 0.39776 0.60124 0.38006 0.0
H4506 H 0.43764 0.61146 0.3817 0.0
H4507 H 0.42078 0.63163 0.38576 0.0
C4508 C 0.51421 0.61759 0.3927 0.0
C4509 C 0.52649 0.64998 0.3935 0.0
C4510 C 0.48191 0.59695 0.39277 0.0
C4511 C 0.46098 0.60812 0.39358 0.0
C4512 C 0.47303 0.64042 0.39431 0.0
H4513 H 0.25422 0.49737 0.3957 0.0
H4514 H 0.30813 0.54165 0.3958 0.0
C4515 C 0.5054 0.66113 0.39425 0.0
C4516 C 0.42673 0.58563 0.39397 0.0
H4517 H 0.35703 0.5617 0.38628 0.0
C4518 C 0.41566 0.56322 0.39894 0.0
C4519 C 0.40522 0.58544 0.38941 0.0
C4520 C 0.41583 0.60854 0.3839 0.0
C4521 C 0.3839 0.54039 0.39942 0.0
C4522 C 0.36254 0.53941 0.39472 0.0
C4523 C 0.37337 0.56243 0.38987 0.0
C4524 C 0.32961 0.51312 0.3945 0.0
C4525 C 0.3735 0.5174 0.40496 0.0
C4526 C 0.3237 0.48251 0.3936 0.0
C4527 C 0.29315 0.45735 0.39355 0.0
C4528 C 0.26744 0.46199 0.39436 0.0
C4529 C 0.27332 0.49282 0.3951 0.0
C4530 C 0.30414 0.51817 0.39515 0.0
H4531 H 0.38992 0.52687 0.40911 0.0
H4532 H 0.34977 0.5112 0.40665 0.0
H4533 H 0.37285 0.4957 0.40332 0.0
H4534 H 0.34286 0.47803 0.39294 0.0
H4535 H 0.28983 0.43413 0.39289 0.0
H4536 H 0.48671 0.94937 0.39997 0.0
H4537 H 0.5219 0.92811 0.3996 0.0
H4538 H 0.45671 0.85278 0.38744 0.0
H4539 H 0.42072 0.87329 0.38794 0.0
H4540 H 0.50829 0.86503 0.40337 0.0
H4541 H 0.54245 0.89361 0.37752 0.0
H4542 H 0.52525 0.91233 0.3821 0.0
H4543 H 0.50131 0.87292 0.37932 0.0
C4544 C 0.47953 0.92807 0.39727 0.0
C4545 C 0.45063 0.9131 0.394 0.0
C4546 C 0.49985 0.91603 0.39704 0.0
C4547 C 0.49205 0.88894 0.39347 0.0
C4548 C 0.46339 0.87393 0.39017 0.0
H4549 H 0.6029 0.79261 0.39603 0.0
H4550 H 0.55806 0.80136 0.39571 0.0
C4551 C 0.44289 0.88583 0.39043 0.0
C4552 C 0.51409 0.87662 0.39324 0.0
H4553 H 0.56512 0.8689 0.3833 0.0
C4554 C 0.52049 0.86554 0.39897 0.0
C4555 C 0.53011 0.87747 0.3875 0.0
C4556 C 0.52473 0.88988 0.38125 0.0
C4557 C 0.54284 0.85579 0.39915 0.0
C4558 C 0.55918 0.85705 0.39343 0.0
C4559 C 0.55238 0.86764 0.38767 0.0
C4560 C 0.58567 0.85069 0.39346 0.0
C4561 C 0.54976 0.84544 0.4055 0.0
C4562 C 0.61595 0.87525 0.39219 0.0
C4563 C 0.64144 0.87038 0.39239 0.0
C4564 C 0.63742 0.84067 0.39381 0.0
C4565 C 0.60693 0.8158 0.39495 0.0
C4566 C 0.58129 0.82079 0.39479 0.0
H4567 H 0.53855 0.85029 0.40965 0.0
H4568 H 0.5409 0.8199 0.40534 0.0
H4569 H 0.57535 0.85737 0.40635 0.0
H4570 H 0.61996 0.89848 0.39114 0.0
H4571 H 0.66443 0.89014 0.39143 0.0
H4572 H 0.15278 0.86551 0.80685 0.0
H4573 H 0.09998 0.85701 0.80738 0.0
H4574 H 0.13522 0.95538 0.8043 0.0
H4575 H 0.18872 0.96426 0.80371 0.0
H4576 H 0.07486 0.88266 0.81595 0.0
H4577 H 0.06647 0.91349 0.7904 0.0
H4578 H 0.0967 0.90578 0.7931 0.0
H4579 H 0.09898 0.9423 0.79502 0.0
C4580 C 0.14957 0.88552 0.80626 0.0
C4581 C 0.17528 0.91566 0.80519 0.0
C4582 C 0.11918 0.88053 0.80658 0.0
C4583 C 0.11345 0.90542 0.80581 0.0
C4584 C 0.13896 0.93568 0.80481 0.0
H4585 H 0.92906 0.89213 0.80397 0.0
H4586 H 0.98552 0.9125 0.80442 0.0
C4587 C 0.1696 0.94076 0.8045 0.0
C4588 C 0.08064 0.89913 0.80612 0.0
H4589 H 1.02194 0.89693 0.79694 0.0
C4590 C 0.06337 0.886 0.8118 0.0
C4591 C 0.0656 0.90358 0.80072 0.0
C4592 C 0.08269 0.91685 0.79444 0.0
C4593 C 0.03149 0.87679 0.81221 0.0
C4594 C 1.01612 0.88012 0.80674 0.0
C4595 C 0.03362 0.89422 0.80112 0.0
C4596 C 0.98171 0.86794 0.80667 0.0
C4597 C 1.01461 0.86362 0.81853 0.0
C4598 C 0.96062 0.83603 0.80773 0.0
C4599 C 0.92831 0.82434 0.80753 0.0
C4600 C 0.9162 0.8442 0.8062 0.0
C4601 C 0.93742 0.87618 0.80511 0.0
C4602 C 0.96978 0.88786 0.80532 0.0
H4603 H 0.03108 0.87152 0.82268 0.0
H4604 H 0.99675 0.87057 0.81941 0.0
H4605 H 1.00266 0.83772 0.81835 0.0
H4606 H 0.96914 0.82001 0.80865 0.0
H4607 H 0.91281 0.79967 0.80843 0.0
H4608 H 0.29507 0.14503 0.80127 0.0
H4609 H 0.27496 0.18123 0.80142 0.0
H4610 H 0.18778 0.10891 0.80931 0.0
H4611 H 0.20821 0.07293 0.80946 0.0
H4612 H 0.22517 0.17702 0.79496 0.0
H4613 H 0.20676 0.18054 0.82139 0.0
H4614 H 0.22911 0.16405 0.81806 0.0
H4615 H 0.18713 0.14201 0.81795 0.0
C4616 C 0.27186 0.13692 0.80317 0.0
C4617 C 0.25341 0.10595 0.80538 0.0
C4618 C 0.26025 0.15762 0.8032 0.0
C4619 C 0.22994 0.14801 0.80545 0.0
C4620 C 0.21143 0.11716 0.80767 0.0
H4621 H 0.13314 0.25866 0.80617 0.0
H4622 H 0.14203 0.21378 0.80634 0.0
C4623 C 0.22307 0.09645 0.80767 0.0
C4624 C 0.21755 0.17005 0.80523 0.0
H4625 H 0.18963 0.20775 0.81464 0.0
C4626 C 0.2173 0.1836 0.79927 0.0
C4627 C 0.20702 0.17857 0.81084 0.0
C4628 C 0.20772 0.16579 0.81744 0.0
C4629 C 0.2074 0.20571 0.79877 0.0
C4630 C 0.19764 0.21478 0.80439 0.0
C4631 C 0.19691 0.20059 0.81033 0.0
C4632 C 0.19149 0.24134 0.80428 0.0
C4633 C 0.20783 0.21957 0.79224 0.0
C4634 C 0.21631 0.27161 0.80314 0.0
C4635 C 0.21141 0.29708 0.80308 0.0
C4636 C 0.18146 0.29305 0.80416 0.0
C4637 C 0.15645 0.26262 0.8053 0.0
C4638 C 0.1615 0.23698 0.80541 0.0
H4639 H 0.20819 0.20478 0.78823 0.0
H4640 H 0.18718 0.22262 0.79163 0.0
H4641 H 0.22913 0.24294 0.79184 0.0
H4642 H 0.23968 0.27559 0.80233 0.0
H4643 H 0.23131 0.32005 0.80217 0.0
H4644 H 0.95351 0.18281 0.79925 0.0
H4645 H 0.91837 0.12633 0.79965 0.0
H4646 H 0.98449 0.11612 0.81148 0.0
H4647 H 1.02047 0.17265 0.81095 0.0
H4648 H 0.93285 0.07706 0.79569 0.0
H4649 H 0.8985 0.07073 0.82155 0.0
H4650 H 0.91497 0.10666 0.81696 0.0
H4651 H 0.93959 0.09189 0.81969 0.0
C4652 C 0.9609 0.16867 0.80189 0.0
C4653 C 0.99009 0.18258 0.80505 0.0
C4654 C 0.94061 0.1363 0.80214 0.0
C4655 C 0.94872 0.11698 0.80561 0.0
C4656 C 0.97761 0.13061 0.80882 0.0
H4657 H 0.83883 0.90981 0.80304 0.0
H4658 H 0.88344 0.96354 0.80341 0.0
C4659 C 0.99809 0.16304 0.80854 0.0
C4660 C 0.9268 0.0826 0.80582 0.0
H4661 H 0.87566 0.02355 0.81571 0.0
C4662 C 0.92057 0.06525 0.80008 0.0
C4663 C 0.9107 0.06728 0.81154 0.0
C4664 C 0.91598 0.08496 0.8178 0.0
C4665 C 0.8983 0.03312 0.79989 0.0
C4666 C 0.88185 0.01788 0.80559 0.0
C4667 C 0.88848 0.03516 0.81136 0.0
C4668 C 0.85548 0.98497 0.80553 0.0
C4669 C 0.89158 1.01595 0.79353 0.0
C4670 C 0.82509 0.97907 0.80672 0.0
C4671 C 0.79971 0.94861 0.8065 0.0
C4672 C 0.804 0.92305 0.80514 0.0
C4673 C 0.83461 0.92888 0.80408 0.0
C4674 C 0.86012 0.95959 0.80426 0.0
H4675 H 0.90294 0.03209 0.78939 0.0
H4676 H 0.9004 0.99925 0.79372 0.0
H4677 H 0.86602 1.00231 0.79265 0.0
H4678 H 0.8209 0.99819 0.80772 0.0
H4679 H 0.77663 0.94521 0.80739 0.0
H4680 H 0.13229 0.90973 0.30605 0.0
H4681 H 0.1414 0.96358 0.30618 0.0
H4682 H 0.23892 0.99911 0.3021 0.0
H4683 H 0.2303 0.94612 0.30199 0.0
H4684 H 0.19001 1.0172 0.3145 0.0
H4685 H 0.20665 0.03855 0.28803 0.0
H4686 H 0.18539 0.99972 0.29147 0.0
H4687 H 0.22734 0.02092 0.29159 0.0
C4688 C 0.15561 0.92903 0.30515 0.0
C4689 C 0.18052 0.92348 0.30402 0.0
C4690 C 0.16079 0.95976 0.30525 0.0
C4691 C 0.19082 0.98532 0.3041 0.0
C4692 C 0.21553 0.97976 0.30294 0.0
H4693 H 0.29304 0.18545 0.30076 0.0
H4694 H 0.27333 0.12922 0.30089 0.0
C4695 C 0.2105 0.94932 0.3029 0.0
C4696 C 0.19708 0.01808 0.30422 0.0
H4697 H 0.22342 0.08319 0.29474 0.0
C4698 C 0.19685 0.03159 0.31018 0.0
C4699 C 0.20629 0.03683 0.29858 0.0
C4700 C 0.20626 0.02331 0.29204 0.0
C4701 C 0.20687 0.0637 0.31069 0.0
C4702 C 0.21673 0.08267 0.30505 0.0
C4703 C 0.21604 0.06882 0.29907 0.0
C4704 C 0.22887 0.11709 0.30525 0.0
C4705 C 0.20818 0.07724 0.3173 0.0
C4706 C 0.21054 0.12925 0.30765 0.0
C4707 C 0.22198 0.16158 0.30768 0.0
C4708 C 0.25193 0.18259 0.30522 0.0
C4709 C 0.27015 0.17024 0.3028 0.0
C4710 C 0.25876 0.13795 0.30282 0.0
H4711 H 0.208 0.06173 0.32122 0.0
H4712 H 0.22943 0.10056 0.31784 0.0
H4713 H 0.18742 0.08001 0.31796 0.0
H4714 H 0.18716 0.11373 0.30944 0.0
H4715 H 0.20729 0.17007 0.30964 0.0
H4716 H 0.18664 0.26005 0.30673 0.0
H4717 H 0.13298 0.21512 0.30701 0.0
H4718 H 0.09742 0.27497 0.30097 0.0
H4719 H 0.15026 0.31953 0.3007 0.0
H4720 H 0.07902 0.21279 0.31463 0.0
H4721 H 0.05886 0.19834 0.28812 0.0
H4722 H 0.09751 0.21739 0.29164 0.0
H4723 H 0.07614 0.23788 0.291 0.0
C4724 C 0.16739 0.26352 0.30541 0.0
C4725 C 0.17284 0.29344 0.3037 0.0
C4726 C 0.13677 0.23789 0.30559 0.0
C4727 C 0.11125 0.2417 0.30396 0.0
C4728 C 0.11674 0.27142 0.30219 0.0
H4729 H 0.91174 0.14368 0.30028 0.0
H4730 H 0.96799 0.17985 0.30032 0.0
C4731 C 0.14708 0.29694 0.30207 0.0
C4732 C 0.07856 0.21522 0.30425 0.0
H4733 H 1.01387 0.17322 0.29485 0.0
C4734 C 0.06481 0.20369 0.31031 0.0
C4735 C 0.06007 0.20367 0.29861 0.0
C4736 C 0.07386 0.21471 0.29196 0.0
C4737 C 0.03268 0.18192 0.31091 0.0
C4738 C 1.01396 0.17085 0.30526 0.0
C4739 C 0.02807 0.18174 0.29918 0.0
C4740 C 0.97953 0.14891 0.30552 0.0
C4741 C 1.01887 0.17216 0.31759 0.0
C4742 C 0.96705 0.11935 0.30844 0.0
C4743 C 0.9347 0.09872 0.30852 0.0
C4744 C 0.91402 0.10696 0.30561 0.0
C4745 C 0.92669 0.13661 0.30268 0.0
C4746 C 0.95899 0.15727 0.30264 0.0
H4747 H 0.0343 0.18879 0.32136 0.0
H4748 H 0.99564 0.17046 0.31789 0.0
H4749 H 1.01587 0.14885 0.31873 0.0
H4750 H 0.98233 0.112 0.31058 0.0
H4751 H 0.92595 0.07626 0.31087 0.0
H4752 H 1.01168 0.87471 0.31243 0.0
H4753 H 0.97488 0.89421 0.31297 0.0
H4754 H 0.92185 0.83326 0.29729 0.0
H4755 H 0.95783 0.81298 0.29681 0.0
H4756 H 0.9358 0.89754 0.29598 0.0
H4757 H 0.8831 0.8449 0.31979 0.0
H4758 H 0.92505 0.86764 0.31949 0.0
H4759 H 0.90495 0.83167 0.31505 0.0
C4760 C 0.99197 0.86507 0.30915 0.0
C4761 C 0.98791 0.84217 0.30458 0.0
C4762 C 0.971 0.8764 0.30945 0.0
C4763 C 0.94551 0.86514 0.30519 0.0
C4764 C 0.94141 0.84242 0.30061 0.0
H4765 H 0.77212 0.86362 0.30551 0.0
H4766 H 0.81591 0.85426 0.30584 0.0
C4767 C 0.96219 0.83095 0.30033 0.0
C4768 C 0.92295 0.87682 0.30546 0.0
H4769 H 0.86482 0.87532 0.31469 0.0
C4770 C 0.92044 0.89294 0.30009 0.0
C4771 C 0.90279 0.87062 0.3108 0.0
C4772 C 0.90378 0.85258 0.31661 0.0
C4773 C 0.89804 0.90262 0.29989 0.0
C4774 C 0.8777 0.8962 0.30522 0.0
C4775 C 0.88056 0.88048 0.31062 0.0
C4776 C 0.85146 0.90297 0.30506 0.0
C4777 C 0.89551 0.91854 0.29387 0.0
C4778 C 0.85669 0.93364 0.30455 0.0
C4779 C 0.83143 0.9392 0.30434 0.0
C4780 C 0.80045 0.91419 0.30466 0.0
C4781 C 0.79551 0.8836 0.30523 0.0
C4782 C 0.82062 0.87811 0.30544 0.0
H4783 H 0.90881 0.91647 0.28976 0.0
H4784 H 0.8707 0.90848 0.2924 0.0
H4785 H 0.90502 0.94376 0.29489 0.0
H4786 H 0.88029 0.95329 0.30435 0.0
H4787 H 0.83622 0.96302 0.30393 0.0
H4788 H 0.25404 0.79249 0.89656 0.0
H4789 H 0.30762 0.80118 0.89633 0.0
H4790 H 0.3421 0.89613 0.89005 0.0
H4791 H 0.28927 0.88784 0.89025 0.0
H4792 H 0.36695 0.86309 0.88303 0.0
H4793 H 0.37694 0.85657 0.90976 0.0
H4794 H 0.34383 0.82449 0.90588 0.0
H4795 H 0.34711 0.86233 0.90605 0.0
C4796 C 0.27303 0.81516 0.8951 0.0
C4797 C 0.26725 0.83951 0.89348 0.0
C4798 C 0.30366 0.82013 0.895 0.0
C4799 C 0.32897 0.84945 0.89324 0.0
C4800 C 0.32304 0.87337 0.89145 0.0
H4801 H 0.52702 0.95193 0.89905 0.0
H4802 H 0.47054 0.93036 0.89864 0.0
C4803 C 0.29269 0.86855 0.89159 0.0
C4804 C 0.36186 0.85595 0.89333 0.0
H4805 H 0.4216 0.86898 0.90357 0.0
C4806 C 0.37881 0.86394 0.88751 0.0
C4807 C 0.37742 0.85748 0.89919 0.0
C4808 C 0.36061 0.84998 0.9056 0.0
C4809 C 0.41093 0.87386 0.88739 0.0
C4810 C 0.42658 0.87581 0.89326 0.0
C4811 C 0.40954 0.86734 0.89907 0.0
C4812 C 0.46097 0.8884 0.8935 0.0
C4813 C 0.42823 0.88336 0.88104 0.0
C4814 C 0.47449 0.87194 0.89077 0.0
C4815 C 0.50691 0.88404 0.89106 0.0
C4816 C 0.5266 0.91297 0.89408 0.0
C4817 C 0.5128 0.92939 0.89678 0.0
C4818 C 0.48042 0.91717 0.89653 0.0
H4819 H 0.41385 0.88503 0.87709 0.0
H4820 H 0.45005 0.90627 0.88152 0.0
H4821 H 0.43487 0.86579 0.87962 0.0
H4822 H 0.45991 0.84952 0.88847 0.0
H4823 H 0.51644 0.87039 0.88902 0.0
H4824 H 0.14357 0.60883 0.89133 0.0
H4825 H 0.16418 0.57297 0.89116 0.0
H4826 H 0.25671 0.64979 0.89495 0.0
H4827 H 0.23614 0.68573 0.89532 0.0
H4828 H 0.20978 0.5729 0.88319 0.0
H4829 H 0.2464 0.58679 0.90898 0.0
H4830 H 0.22083 0.60006 0.90591 0.0
H4831 H 0.26212 0.62241 0.90439 0.0
C4832 C 0.16826 0.61813 0.89219 0.0
C4833 C 0.18809 0.65025 0.89338 0.0
C4834 C 0.18007 0.59758 0.89205 0.0
C4835 C 0.21195 0.60853 0.89314 0.0
C4836 C 0.23195 0.64063 0.89421 0.0
H4837 H 0.30724 0.49705 0.89545 0.0
H4838 H 0.29829 0.54175 0.8949 0.0
C4839 C 0.22017 0.66124 0.89435 0.0
C4840 C 0.22405 0.58623 0.89307 0.0
H4841 H 0.25722 0.55381 0.90257 0.0
C4842 C 0.22028 0.56886 0.88742 0.0
C4843 C 0.23802 0.58107 0.89857 0.0
C4844 C 0.24193 0.59834 0.90483 0.0
C4845 C 0.22961 0.54624 0.88716 0.0
C4846 C 0.24259 0.54032 0.89272 0.0
C4847 C 0.24733 0.55837 0.8983 0.0
C4848 C 0.24871 0.51366 0.893 0.0
C4849 C 0.22536 0.52877 0.88091 0.0
C4850 C 0.22385 0.48304 0.89222 0.0
C4851 C 0.22883 0.45762 0.89255 0.0
C4852 C 0.25887 0.462 0.89371 0.0
C4853 C 0.28385 0.49274 0.89453 0.0
C4854 C 0.27876 0.51833 0.89422 0.0
H4855 H 0.22453 0.54225 0.87668 0.0
H4856 H 0.24451 0.52351 0.88016 0.0
H4857 H 0.20291 0.50631 0.88108 0.0
H4858 H 0.20036 0.47872 0.89141 0.0
H4859 H 0.20889 0.43443 0.89191 0.0
H4860 H 0.48887 0.57228 0.89553 0.0
H4861 H 0.5248 0.62866 0.89498 0.0
H4862 H 0.44814 0.64355 0.89045 0.0
H4863 H 0.41201 0.58709 0.89079 0.0
H4864 H 0.53346 0.67094 0.8839 0.0
H4865 H 0.49361 0.70126 0.90657 0.0
H4866 H 0.48645 0.66223 0.90499 0.0
H4867 H 0.46431 0.6765 0.9008 0.0
C4868 C 0.47957 0.58738 0.89433 0.0
C4869 C 0.44736 0.57488 0.89322 0.0
C4870 C 0.50018 0.6197 0.89406 0.0
C4871 C 0.4891 0.64034 0.89275 0.0
C4872 C 0.45712 0.62809 0.89158 0.0
H4873 H 0.60143 0.84762 0.8933 0.0
H4874 H 0.55643 0.79417 0.89245 0.0
C4875 C 0.43648 0.59574 0.8918 0.0
C4876 C 0.51126 0.67462 0.89254 0.0
H4877 H 0.53503 0.74259 0.90091 0.0
C4878 C 0.53367 0.68665 0.88759 0.0
C4879 C 0.51124 0.69516 0.89731 0.0
C4880 C 0.48778 0.68332 0.90275 0.0
C4881 C 0.55647 0.71851 0.88735 0.0
C4882 C 0.55749 0.73884 0.89231 0.0
C4883 C 0.53432 0.72705 0.89712 0.0
C4884 C 0.58416 0.77144 0.89289 0.0
C4885 C 0.5794 0.73005 0.88181 0.0
C4886 C 0.61452 0.77641 0.89357 0.0
C4887 C 0.64002 0.80661 0.89404 0.0
C4888 C 0.63599 0.8329 0.89391 0.0
C4889 C 0.60544 0.82798 0.89339 0.0
C4890 C 0.57971 0.79746 0.8929 0.0
H4891 H 0.56944 0.71503 0.87746 0.0
H4892 H 0.58643 0.7545 0.88048 0.0
H4893 H 0.60063 0.72926 0.88324 0.0
H4894 H 0.61854 0.75678 0.89376 0.0
H4895 H 0.66302 0.8092 0.89451 0.0
H4896 H 0.89257 0.91611 0.72131 0.0
H4897 H 0.91353 0.97275 0.72094 0.0
H4898 H 0.83797 0.96258 0.73302 0.0
H4899 H 0.81627 0.90604 0.73327 0.0
H4900 H 0.88268 1.00674 0.71667 0.0
H4901 H 0.91888 0.02932 0.74243 0.0
H4902 H 0.91121 0.99396 0.73829 0.0
H4903 H 0.87936 0.99845 0.74116 0.0
C4904 C 0.88013 0.92579 0.72383 0.0
C4905 C 0.85273 0.90625 0.72736 0.0
C4906 C 0.89233 0.95826 0.72365 0.0
C4907 C 0.87764 0.97198 0.72705 0.0
C4908 C 0.8501 0.95261 0.73048 0.0
H4909 H 0.87563 0.14275 0.72457 0.0
H4910 H 0.86754 0.08999 0.72417 0.0
C4911 C 0.83776 0.92019 0.73063 0.0
C4912 C 0.89052 1.00644 0.72691 0.0
H4913 H 0.91775 0.0707 0.73668 0.0
C4914 C 0.89069 0.0208 0.72103 0.0
C4915 C 0.90137 0.02489 0.73258 0.0
C4916 C 0.90303 1.01101 0.73897 0.0
C4917 C 0.90001 0.05276 0.72073 0.0
C4918 C 0.90927 0.07084 0.72647 0.0
C4919 C 0.91051 0.05683 0.73229 0.0
C4920 C 0.91518 0.10351 0.7266 0.0
C4921 C 0.89942 0.06687 0.71429 0.0
C4922 C 0.94468 0.12886 0.72821 0.0
C4923 C 0.94953 0.15944 0.72844 0.0
C4924 C 0.92479 0.16508 0.72716 0.0
C4925 C 0.8953 0.13948 0.72559 0.0
C4926 C 0.8906 0.10917 0.72532 0.0
H4927 H 0.90013 0.05272 0.71019 0.0
H4928 H 0.8775 0.06779 0.7139 0.0
H4929 H 0.9194 0.09109 0.71385 0.0
H4930 H 0.96395 0.12498 0.72927 0.0
H4931 H 0.9725 0.17853 0.72967 0.0
H4932 H 0.95555 0.76684 0.72609 0.0
H4933 H 1.00838 0.81118 0.72573 0.0
H4934 H 0.97278 0.8743 0.72828 0.0
H4935 H 0.91917 0.82957 0.72871 0.0
H4936 H 0.034 0.86148 0.71704 0.0
H4937 H 0.04066 0.90207 0.74241 0.0
H4938 H 1.01063 0.86394 0.73975 0.0
H4939 H 1.00845 0.89805 0.73763 0.0
C4940 C 0.95868 0.79006 0.7266 0.0
C4941 C 0.93285 0.79446 0.72746 0.0
C4942 C 0.98909 0.81549 0.72638 0.0
C4943 C 0.99473 0.84612 0.72705 0.0
C4944 C 0.9691 0.85084 0.72786 0.0
H4945 H 0.17916 0.01754 0.72879 0.0
H4946 H 0.12269 0.98137 0.72831 0.0
C4947 C 0.93843 0.82524 0.72807 0.0
C4948 C 0.02756 0.87268 0.72678 0.0
H4949 H 0.08567 0.92969 0.73598 0.0
C4950 C 0.04521 0.87654 0.72117 0.0
C4951 C 0.04224 0.89246 0.73215 0.0
C4952 C 1.02472 0.88895 0.73836 0.0
C4953 C 0.07713 0.89916 0.72082 0.0
C4954 C 0.09213 0.91816 0.72627 0.0
C4955 C 0.07426 0.91506 0.73181 0.0
C4956 C 0.12654 0.94037 0.72641 0.0
C4957 C 0.09445 0.90253 0.71459 0.0
C4958 C 0.14766 0.92945 0.72556 0.0
C4959 C 0.17996 0.95009 0.72579 0.0
C4960 C 0.19205 0.98222 0.72692 0.0
C4961 C 0.17081 0.99309 0.7278 0.0
C4962 C 0.13845 0.97238 0.72758 0.0
H4963 H 0.07827 0.89362 0.71039 0.0
H4964 H 0.11231 0.92731 0.71366 0.0
H4965 H 0.10647 0.88869 0.71492 0.0
H4966 H 0.13914 0.90481 0.72478 0.0
H4967 H 0.19548 0.94082 0.72505 0.0
H4968 H 0.32923 0.2222 0.72556 0.0
H4969 H 0.28451 0.23 0.72507 0.0
H4970 H 0.22244 0.13147 0.7282 0.0
H4971 H 0.26758 0.12326 0.72876 0.0
H4972 H 0.23364 0.20329 0.71645 0.0
H4973 H 0.19505 0.17341 0.74206 0.0
H4974 H 0.2332 0.1817 0.73938 0.0
H4975 H 0.19937 0.14485 0.73748 0.0
C4976 C 0.30617 0.20201 0.72617 0.0
C4977 C 0.30218 0.17204 0.72723 0.0
C4978 C 0.28052 0.2066 0.72587 0.0
C4979 C 0.25008 0.18145 0.72666 0.0
C4980 C 0.24576 0.15135 0.72767 0.0
H4981 H 0.07917 0.19531 0.72843 0.0
H4982 H 0.11494 0.17452 0.72803 0.0
C4983 C 0.27158 0.14667 0.72796 0.0
C4984 C 0.22332 0.18737 0.72632 0.0
H4985 H 0.16721 0.19013 0.73552 0.0
C4986 C 0.21894 0.20015 0.72061 0.0
C4987 C 0.20403 0.18319 0.73173 0.0
C4988 C 0.2081 0.17024 0.73804 0.0
C4989 C 0.1963 0.20939 0.72019 0.0
C4990 C 0.17787 0.20643 0.72568 0.0
C4991 C 0.18143 0.19258 0.73132 0.0
C4992 C 0.15585 0.21886 0.72575 0.0
C4993 C 0.19237 0.22226 0.71386 0.0
C4994 C 0.16687 0.25078 0.72464 0.0
C4995 C 0.14646 0.26272 0.72483 0.0
C4996 C 0.11447 0.24307 0.72616 0.0
C4997 C 0.1035 0.21108 0.72728 0.0
C4998 C 0.12399 0.19916 0.72711 0.0
H4999 H 0.20076 0.21411 0.70971 0.0
H5000 H 0.16756 0.21534 0.713 0.0
H5001 H 0.20637 0.24817 0.71398 0.0
H5002 H 0.19143 0.26662 0.72371 0.0
H5003 H 0.15578 0.28739 0.72389 0.0
H5004 H 0.85415 0.29762 0.13705 0.0
H5005 H 0.8005 0.28848 0.13763 0.0
H5006 H 0.76522 0.18949 0.13955 0.0
H5007 H 0.81804 0.1982 0.13902 0.0
H5008 H 0.74809 0.25037 0.12951 0.0
H5009 H 0.72444 0.20816 0.15483 0.0
H5010 H 0.76348 0.22934 0.15153 0.0
H5011 H 0.73912 0.18817 0.14999 0.0
C5012 C 0.835 0.27395 0.13763 0.0
C5013 C 0.84069 0.24874 0.13801 0.0
C5014 C 0.80431 0.26875 0.13795 0.0
C5015 C 0.77879 0.23831 0.13875 0.0
C5016 C 0.78447 0.21324 0.13908 0.0
H5017 H 0.57844 0.13262 0.13949 0.0
H5018 H 0.63487 0.15321 0.13972 0.0
C5019 C 0.81489 0.21834 0.13873 0.0
C5020 C 0.746 0.2321 0.13907 0.0
H5021 H 0.67971 0.19577 0.14829 0.0
C5022 C 0.73323 0.2389 0.13365 0.0
C5023 C 0.72655 0.21706 0.14447 0.0
C5024 C 0.73914 0.21052 0.15056 0.0
C5025 C 0.70127 0.2297 0.13337 0.0
C5026 C 0.6816 0.21369 0.13869 0.0
C5027 C 0.69464 0.20783 0.14419 0.0
C5028 C 0.64722 0.20159 0.13857 0.0
C5029 C 0.68854 0.23596 0.12727 0.0
C5030 C 0.63518 0.22191 0.13793 0.0
C5031 C 0.60281 0.21015 0.13777 0.0
C5032 C 0.58167 0.17778 0.13826 0.0
C5033 C 0.59388 0.15759 0.139 0.0
C5034 C 0.62621 0.16937 0.13917 0.0
H5035 H 0.70498 0.24205 0.12314 0.0
H5036 H 0.66585 0.21528 0.12591 0.0
H5037 H 0.68455 0.25588 0.1281 0.0
H5038 H 0.65083 0.2469 0.13757 0.0
H5039 H 0.59436 0.22643 0.13715 0.0
H5040 H 0.87548 0.40866 0.14312 0.0
H5041 H 0.85558 0.4451 0.14272 0.0
H5042 H 0.94287 0.51579 0.13454 0.0
H5043 H 0.96237 0.47914 0.13461 0.0
H5044 H 0.87489 0.5013 0.14832 0.0
H5045 H 0.8817 0.51605 0.12172 0.0
H5046 H 0.88607 0.4859 0.12568 0.0
H5047 H 0.91861 0.52521 0.12517 0.0
C5048 C 0.89037 0.43183 0.14116 0.0
C5049 C 0.92052 0.44071 0.13884 0.0
C5050 C 0.87899 0.45275 0.14098 0.0
C5051 C 0.89741 0.48303 0.13846 0.0
C5052 C 0.92784 0.49232 0.13635 0.0
H5053 H 0.89924 0.65545 0.1359 0.0
H5054 H 0.90767 0.61098 0.13616 0.0
C5055 C 0.93918 0.4714 0.13649 0.0
C5056 C 0.88504 0.50507 0.13811 0.0
H5057 H 0.87534 0.5538 0.1278 0.0
C5058 C 0.87456 0.51243 0.14381 0.0
C5059 C 0.88425 0.51942 0.13223 0.0
C5060 C 0.89294 0.511 0.12584 0.0
C5061 C 0.86484 0.53482 0.14384 0.0
C5062 C 0.86547 0.55014 0.13801 0.0
C5063 C 0.87495 0.54207 0.13228 0.0
C5064 C 0.85925 0.57664 0.13785 0.0
C5065 C 0.85518 0.54297 0.15013 0.0
C5066 C 0.82901 0.57212 0.13866 0.0
C5067 C 0.82394 0.59771 0.13848 0.0
C5068 C 0.84911 0.62824 0.13753 0.0
C5069 C 0.87925 0.63241 0.13669 0.0
C5070 C 0.88419 0.60695 0.13682 0.0
H5071 H 0.85868 0.53103 0.15434 0.0
H5072 H 0.86873 0.56863 0.15093 0.0
H5073 H 0.8301 0.53603 0.14988 0.0
H5074 H 0.80937 0.54882 0.13942 0.0
H5075 H 0.80045 0.59364 0.13914 0.0
H5076 H 0.69019 0.50646 0.14298 0.0
H5077 H 0.65469 0.44982 0.14337 0.0
H5078 H 0.58578 0.46053 0.13267 0.0
H5079 H 0.6205 0.51709 0.13242 0.0
H5080 H 0.59151 0.41555 0.14847 0.0
H5081 H 0.59665 0.3942 0.12226 0.0
H5082 H 0.62556 0.42944 0.12625 0.0
H5083 H 0.58833 0.4249 0.12406 0.0
C5084 C 0.66736 0.49691 0.14077 0.0
C5085 C 0.65846 0.51663 0.13763 0.0
C5086 C 0.64717 0.46443 0.14096 0.0
C5087 C 0.61778 0.45085 0.13795 0.0
C5088 C 0.60861 0.47039 0.1349 0.0
H5089 H 0.44624 0.2796 0.14172 0.0
H5090 H 0.49099 0.33233 0.142 0.0
C5091 C 0.62862 0.50282 0.13475 0.0
C5092 C 0.59626 0.41636 0.13811 0.0
H5093 H 0.55619 0.35249 0.12834 0.0
C5094 C 0.58407 0.4017 0.14408 0.0
C5095 C 0.58682 0.39815 0.13239 0.0
C5096 C 0.60018 0.41233 0.12587 0.0
C5097 C 0.56162 0.36968 0.14444 0.0
C5098 C 0.55096 0.35184 0.13869 0.0
C5099 C 0.56424 0.36616 0.13275 0.0
C5100 C 0.52426 0.31912 0.13869 0.0
C5101 C 0.54912 0.35526 0.15098 0.0
C5102 C 0.52789 0.29393 0.13666 0.0
C5103 C 0.50211 0.26337 0.13651 0.0
C5104 C 0.47216 0.2576 0.13827 0.0
C5105 C 0.46882 0.283 0.1403 0.0
C5106 C 0.4945 0.31328 0.14051 0.0
H5107 H 0.56532 0.36925 0.15494 0.0
H5108 H 0.52647 0.35425 0.15183 0.0
H5109 H 0.54508 0.33104 0.15122 0.0
H5110 H 0.55064 0.29793 0.1352 0.0
H5111 H 0.50553 0.24442 0.1349 0.0
H5112 H 0.89613 0.27954 0.64108 0.0
H5113 H 0.90398 0.33221 0.64142 0.0
H5114 H 0.8094 0.2976 0.63496 0.0
H5115 H 0.80116 0.24417 0.63458 0.0
H5116 H 0.85702 0.35207 0.62805 0.0
H5117 H 0.86813 0.36907 0.65463 0.0
H5118 H 0.892 0.35448 0.65134 0.0
H5119 H 0.85016 0.33084 0.65092 0.0
C5120 C 0.87679 0.28287 0.63975 0.0
C5121 C 0.84793 0.25741 0.6378 0.0
C5122 C 0.88134 0.31312 0.63999 0.0
C5123 C 0.85721 0.31888 0.6383 0.0
C5124 C 0.8283 0.29366 0.63633 0.0
H5125 H 0.87969 0.50644 0.64313 0.0
H5126 H 0.85839 0.44977 0.64346 0.0
C5127 C 0.8236 0.26312 0.63613 0.0
C5128 C 0.86312 0.35157 0.63836 0.0
H5129 H 0.88769 0.41541 0.64816 0.0
C5130 C 0.86328 0.3658 0.63246 0.0
C5131 C 0.87111 0.36948 0.64411 0.0
C5132 C 0.87009 0.35516 0.65062 0.0
C5133 C 0.87262 0.39778 0.63213 0.0
C5134 C 0.88226 0.41607 0.63784 0.0
C5135 C 0.88064 0.40149 0.64378 0.0
C5136 C 0.89528 0.45056 0.6377 0.0
C5137 C 0.87245 0.41186 0.62566 0.0
C5138 C 0.92347 0.46998 0.63447 0.0
C5139 C 0.936 0.50243 0.63435 0.0
C5140 C 0.92059 0.51637 0.63744 0.0
C5141 C 0.89249 0.49678 0.64075 0.0
C5142 C 0.8801 0.46427 0.64091 0.0
H5143 H 0.85721 0.39368 0.62212 0.0
H5144 H 0.86437 0.42908 0.62616 0.0
H5145 H 0.89655 0.42427 0.62368 0.0
H5146 H 0.93598 0.46002 0.63208 0.0
H5147 H 0.95799 0.51661 0.63187 0.0
H5148 H 0.85514 0.59261 0.63917 0.0
H5149 H 0.8014 0.54775 0.63928 0.0
H5150 H 0.76561 0.60971 0.63534 0.0
H5151 H 0.81848 0.6542 0.63526 0.0
H5152 H 0.74755 0.54252 0.64765 0.0
H5153 H 0.72665 0.53825 0.62117 0.0
H5154 H 0.76539 0.55564 0.62462 0.0
H5155 H 0.7443 0.57651 0.62475 0.0
C5156 C 0.83581 0.5966 0.6383 0.0
C5157 C 0.84124 0.62708 0.63721 0.0
C5158 C 0.80514 0.57099 0.63838 0.0
C5159 C 0.77954 0.57541 0.63726 0.0
C5160 C 0.78499 0.60571 0.63615 0.0
H5161 H 0.57966 0.47738 0.63383 0.0
H5162 H 0.63584 0.5139 0.63398 0.0
C5163 C 0.81537 0.63118 0.63613 0.0
C5164 C 0.74684 0.54884 0.63737 0.0
H5165 H 0.68198 0.51012 0.62785 0.0
C5166 C 0.73325 0.535 0.64332 0.0
C5167 C 0.72821 0.53935 0.63172 0.0
C5168 C 0.74183 0.55297 0.62518 0.0
C5169 C 0.70116 0.51287 0.64381 0.0
C5170 C 0.68231 0.50381 0.63817 0.0
C5171 C 0.69626 0.51707 0.63219 0.0
C5172 C 0.64792 0.48152 0.63835 0.0
C5173 C 0.68753 0.50056 0.65042 0.0
C5174 C 0.63575 0.45099 0.64076 0.0
C5175 C 0.60344 0.43011 0.64078 0.0
C5176 C 0.58247 0.43908 0.63831 0.0
C5177 C 0.59483 0.46968 0.63589 0.0
C5178 C 0.6271 0.49057 0.6359 0.0
H5179 H 0.70294 0.51584 0.65435 0.0
H5180 H 0.6642 0.49846 0.65094 0.0
H5181 H 0.68478 0.47702 0.65108 0.0
H5182 H 0.65124 0.44312 0.64255 0.0
H5183 H 0.59494 0.4069 0.64274 0.0
H5184 H 0.61808 0.13414 0.63534 0.0
H5185 H 0.58128 0.15353 0.63579 0.0
H5186 H 0.65545 0.24405 0.64175 0.0
H5187 H 0.69237 0.22473 0.64149 0.0
H5188 H 0.56775 0.18185 0.64688 0.0
H5189 H 0.61487 0.2619 0.62569 0.0
H5190 H 0.62295 0.23046 0.627 0.0
H5191 H 0.64238 0.26534 0.63179 0.0
C5192 C 0.62662 0.15807 0.63683 0.0
C5193 C 0.65838 0.1778 0.63837 0.0
C5194 C 0.60553 0.16919 0.63704 0.0
C5195 C 0.61567 0.20036 0.63872 0.0
C5196 C 0.6472 0.22008 0.64032 0.0
H5197 H 0.50446 0.29598 0.63933 0.0
H5198 H 0.54858 0.28619 0.63999 0.0
C5199 C 0.6683 0.20894 0.64016 0.0
C5200 C 0.59301 0.21188 0.63889 0.0
H5201 H 0.57198 0.25983 0.63113 0.0
C5202 C 0.56876 0.19901 0.64346 0.0
C5203 C 0.59457 0.23457 0.63448 0.0
C5204 C 0.61993 0.24885 0.62942 0.0
C5205 C 0.54578 0.20782 0.64367 0.0
C5206 C 0.5465 0.22951 0.63908 0.0
C5207 C 0.57135 0.24318 0.63464 0.0
C5208 C 0.52035 0.23624 0.6385 0.0
C5209 C 0.52091 0.19377 0.64884 0.0
C5210 C 0.49003 0.21168 0.63727 0.0
C5211 C 0.46498 0.21715 0.6369 0.0
C5212 C 0.4695 0.24747 0.63768 0.0
C5213 C 0.50008 0.27236 0.63871 0.0
C5214 C 0.52531 0.26678 0.6391 0.0
H5215 H 0.52919 0.18631 0.65311 0.0
H5216 H 0.51359 0.21058 0.65045 0.0
H5217 H 0.50017 0.17275 0.64686 0.0
H5218 H 0.48567 0.18808 0.63659 0.0
H5219 H 0.44194 0.19738 0.636 0.0
H5220 H 0.95357 0.22365 0.22398 0.0
H5221 H 1.00667 0.23268 0.22366 0.0
H5222 H 0.97339 0.13735 0.2295 0.0
H5223 H 0.91962 0.12796 0.22985 0.0
H5224 H 0.02677 0.18372 0.23664 0.0
H5225 H 0.04571 0.20066 0.21016 0.0
H5226 H 0.03075 0.22368 0.21373 0.0
H5227 H 1.00724 0.18175 0.21376 0.0
C5228 C 0.9573 0.2044 0.22518 0.0
C5229 C 0.93208 0.17497 0.22694 0.0
C5230 C 0.98781 0.20963 0.22494 0.0
C5231 C 0.99408 0.18564 0.22647 0.0
C5232 C 0.9691 0.15619 0.22826 0.0
H5233 H 0.18108 0.20755 0.22134 0.0
H5234 H 0.12466 0.18745 0.22092 0.0
C5235 C 0.93834 0.15082 0.22844 0.0
C5236 C 0.02697 0.19207 0.22641 0.0
H5237 H 0.09144 0.21848 0.21671 0.0
C5238 C 0.0408 0.19095 0.23227 0.0
C5239 C 0.04531 0.2013 0.2207 0.0
C5240 C 0.03147 0.20167 0.21422 0.0
C5241 C 0.0727 0.20004 0.23261 0.0
C5242 C 0.09139 0.21077 0.22696 0.0
C5243 C 0.07725 0.2106 0.22105 0.0
C5244 C 0.1258 0.2232 0.22714 0.0
C5245 C 0.08624 0.19829 0.23904 0.0
C5246 C 0.14538 0.25039 0.23065 0.0
C5247 C 0.17772 0.26224 0.23083 0.0
C5248 C 0.1914 0.24715 0.22751 0.0
C5249 C 0.17165 0.2201 0.22391 0.0
C5250 C 0.13928 0.20839 0.2237 0.0
H5251 H 0.06777 0.1824 0.24247 0.0
H5252 H 0.10328 0.19006 0.23841 0.0
H5253 H 0.09871 0.22194 0.24123 0.0
H5254 H 0.13566 0.26265 0.23323 0.0
H5255 H 0.19202 0.28348 0.23354 0.0
H5256 H 0.81161 0.94394 0.22925 0.0
H5257 H 0.83148 0.90752 0.22885 0.0
H5258 H 0.92073 0.98151 0.22223 0.0
H5259 H 0.90087 0.01804 0.2224 0.0
H5260 H 0.86028 0.89418 0.21743 0.0
H5261 H 0.93934 0.94235 0.23874 0.0
H5262 H 0.90689 0.94893 0.23749 0.0
H5263 H 0.9414 0.96937 0.23263 0.0
C5264 C 0.83533 0.95251 0.22761 0.0
C5265 C 0.85456 0.98412 0.22587 0.0
C5266 C 0.84673 0.93165 0.22744 0.0
C5267 C 0.87769 0.94189 0.22559 0.0
C5268 C 0.89691 0.97323 0.22378 0.0
H5269 H 0.97284 0.83002 0.22594 0.0
H5270 H 0.96371 0.87455 0.22498 0.0
C5271 C 0.88548 0.9941 0.2239 0.0
C5272 C 0.88953 0.91951 0.22549 0.0
H5273 H 0.93681 0.89867 0.23357 0.0
C5274 C 0.87716 0.89527 0.22093 0.0
C5275 C 0.91188 0.92122 0.23001 0.0
C5276 C 0.92567 0.94672 0.23503 0.0
C5277 C 0.88605 0.87233 0.22083 0.0
C5278 C 0.90726 0.87309 0.22555 0.0
C5279 C 0.92052 0.89802 0.22997 0.0
C5280 C 0.91363 0.84677 0.22629 0.0
C5281 C 0.87253 0.84741 0.21568 0.0
C5282 C 0.88875 0.81661 0.22753 0.0
C5283 C 0.89383 0.79135 0.22806 0.0
C5284 C 0.92406 0.7955 0.22744 0.0
C5285 C 0.94927 0.82594 0.22642 0.0
C5286 C 0.94407 0.85139 0.22586 0.0
H5287 H 0.86565 0.85572 0.21132 0.0
H5288 H 0.88943 0.83995 0.21421 0.0
H5289 H 0.85124 0.82673 0.21759 0.0
H5290 H 0.8652 0.81253 0.22808 0.0
H5291 H 0.87382 0.76843 0.22894 0.0
H5292 H 0.10675 0.91265 0.23836 0.0
H5293 H 0.14212 0.9692 0.23826 0.0
H5294 H 0.15647 0.96584 0.21775 0.0
H5295 H 0.12064 0.90923 0.21781 0.0
H5296 H 0.20215 1.00048 0.23557 0.0
H5297 H 0.14208 0.03895 0.21842 0.0
H5298 H 0.12337 1.00001 0.22179 0.0
H5299 H 0.14934 1.00986 0.21498 0.0
C5300 C 0.11734 0.92394 0.23382 0.0
C5301 C 0.11088 0.90632 0.22809 0.0
C5302 C 0.13749 0.95636 0.23376 0.0
C5303 C 0.15175 0.97208 0.22798 0.0
C5304 C 0.14518 0.95457 0.22225 0.0
H5305 H 0.32675 0.14233 0.22449 0.0
H5306 H 0.28241 0.08949 0.22474 0.0
C5307 C 0.12478 0.92211 0.22229 0.0
C5308 C 0.1751 1.00628 0.22808 0.0
H5309 H 0.19558 0.07637 0.22083 0.0
C5310 C 0.20044 1.01703 0.23238 0.0
C5311 C 0.17284 0.02821 0.22401 0.0
C5312 C 0.14526 0.01875 0.21959 0.0
C5313 C 0.22397 0.04864 0.23257 0.0
C5314 C 0.22267 0.07021 0.22824 0.0
C5315 C 0.19679 0.05981 0.2241 0.0
C5316 C 0.24895 0.10307 0.22772 0.0
C5317 C 0.25011 0.05862 0.23741 0.0
C5318 C 0.24482 0.12871 0.22905 0.0
C5319 C 0.27041 0.15942 0.22888 0.0
C5320 C 0.30052 0.16495 0.22736 0.0
C5321 C 0.30412 0.13916 0.22579 0.0
C5322 C 0.27872 0.10874 0.22595 0.0
H5323 H 0.24299 0.04216 0.24157 0.0
H5324 H 0.27036 0.0589 0.23503 0.0
H5325 H 0.25779 0.08245 0.23929 0.0
H5326 H 0.22198 0.12492 0.23038 0.0
H5327 H 0.26672 0.17868 0.23008 0.0
loop_
_geom_bond_atom_site_label_1
_geom_bond_atom_site_label_2
_geom_bond_distance
_geom_bond_site_symmetry_2
_ccdc_geom_bond_type
La0 C2 2.928 . S
La0 O20 2.521 . S
La0 O21 2.628 . S
La0 O22 2.554 . S
La0 O23 2.757 . S
La0 O24 2.470 . S
La0 O29 2.482 . S
La0 O31 2.503 . S
La1 C11 2.928 1_545 S
La1 O23 2.482 . S
La1 O25 2.503 . S
La1 O26 2.521 1_545 S
La1 O27 2.628 1_545 S
La1 O28 2.554 . S
La1 O29 2.757 . S
La1 O30 2.470 1_545 S
C2 La0 2.928 . S
C2 C3 1.503 . S
C2 O20 1.261 . S
C2 O21 1.243 . S
C3 C2 1.503 . S
C3 C4 1.394 . S
C3 C8 1.373 . S
C4 C3 1.394 . S
C4 C5 1.380 . S
C4 H32 0.930 . S
C5 C4 1.380 . S
C5 C6 1.376 . S
C5 H33 0.930 . S
C6 C5 1.376 . S
C6 C7 1.370 . S
C7 C6 1.370 . S
C7 C8 1.396 . S
C7 H34 0.929 . S
C8 C3 1.373 . S
C8 C7 1.396 . S
C8 H35 0.929 . S
C9 O22 1.240 . S
C9 O23 1.289 . S
C10 O24 1.258 . S
C10 O25 1.256 . S
C11 La1 2.928 1_565 S
C11 C12 1.503 . S
C11 O26 1.261 . S
C11 O27 1.243 . S
C12 C11 1.503 . S
C12 C13 1.394 . S
C12 C17 1.373 . S
C13 C12 1.394 . S
C13 C14 1.380 . S
C13 H36 0.930 . S
C14 C13 1.380 . S
C14 C15 1.376 . S
C14 H37 0.930 . S
C15 C14 1.376 . S
C15 C16 1.370 . S
C16 C15 1.370 . S
C16 C17 1.396 . S
C16 H38 0.929 . S
C17 C12 1.373 . S
C17 C16 1.396 . S
C17 H39 0.929 . S
C18 O28 1.240 . S
C18 O29 1.289 . S
C19 O30 1.258 . S
C19 O31 1.256 1_565 S
O20 La0 2.521 . S
O20 C2 1.261 . S
O21 La0 2.628 . S
O21 C2 1.243 . S
O22 La0 2.554 . S
O22 C9 1.240 . S
O23 La0 2.757 . S
O23 La1 2.482 . S
O23 C9 1.289 . S
O24 La0 2.470 . S
O24 C10 1.258 . S
O25 La1 2.503 . S
O25 C10 1.256 . S
O26 La1 2.521 1_565 S
O26 C11 1.261 . S
O27 La1 2.628 1_565 S
O27 C11 1.243 . S
O28 La1 2.554 . S
O28 C18 1.240 . S
O29 La0 2.482 . S
O29 La1 2.757 . S
O29 C18 1.289 . S
O30 La1 2.470 1_565 S
O30 C19 1.258 . S
O31 La0 2.503 . S
O31 C19 1.256 1_545 S
H32 C4 0.930 . S
H33 C5 0.930 . S
H34 C7 0.929 . S
H35 C8 0.929 . S
H36 C13 0.930 . S
H37 C14 0.930 . S
H38 C16 0.929 . S
H39 C17 0.929 . S
La40 C42 2.928 . S
La40 O60 2.521 . S
La40 O61 2.628 . S
La40 O62 2.554 1_655 S
La40 O63 2.757 1_655 S
La40 O64 2.470 . S
La40 O69 2.482 1_655 S
La40 O71 2.503 1_655 S
La41 C51 2.928 . S
La41 O63 2.482 . S
La41 O65 2.503 1_455 S
La41 O66 2.521 . S
La41 O67 2.628 . S
La41 O68 2.554 . S
La41 O69 2.757 . S
La41 O70 2.470 . S
C42 La40 2.928 . S
C42 C43 1.503 . S
C42 O60 1.261 . S
C42 O61 1.243 . S
C43 C42 1.503 . S
C43 C44 1.394 . S
C43 C48 1.373 . S
C44 C43 1.394 . S
C44 C45 1.380 . S
C44 H72 0.930 . S
C45 C44 1.380 . S
C45 C46 1.376 . S
C45 H73 0.930 . S
C46 C45 1.376 . S
C46 C47 1.370 . S
C47 C46 1.370 . S
C47 C48 1.396 . S
C47 H74 0.929 . S
C48 C43 1.373 . S
C48 C47 1.396 . S
C48 H75 0.929 . S
C49 O62 1.240 . S
C49 O63 1.289 . S
C50 O64 1.258 . S
C50 O65 1.256 . S
C51 La41 2.928 . S
C51 C52 1.503 . S
C51 O66 1.261 . S
C51 O67 1.243 . S
C52 C51 1.503 . S
C52 C53 1.394 . S
C52 C57 1.373 . S
C53 C52 1.394 . S
C53 C54 1.380 . S
C53 H76 0.930 . S
C54 C53 1.380 . S
C54 C55 1.376 . S
C54 H77 0.930 . S
C55 C54 1.376 . S
C55 C56 1.370 . S
C56 C55 1.370 . S
C56 C57 1.396 . S
C56 H78 0.929 . S
C57 C52 1.373 . S
C57 C56 1.396 . S
C57 H79 0.929 . S
C58 O68 1.240 . S
C58 O69 1.289 . S
C59 O70 1.258 . S
C59 O71 1.256 . S
O60 La40 2.521 . S
O60 C42 1.261 . S
O61 La40 2.628 . S
O61 C42 1.243 . S
O62 La40 2.554 1_455 S
O62 C49 1.240 . S
O63 La40 2.757 1_455 S
O63 La41 2.482 . S
O63 C49 1.289 . S
O64 La40 2.470 . S
O64 C50 1.258 . S
O65 La41 2.503 1_655 S
O65 C50 1.256 . S
O66 La41 2.521 . S
O66 C51 1.261 . S
O67 La41 2.628 . S
O67 C51 1.243 . S
O68 La41 2.554 . S
O68 C58 1.240 . S
O69 La40 2.482 1_455 S
O69 La41 2.757 . S
O69 C58 1.289 . S
O70 La41 2.470 . S
O70 C59 1.258 . S
O71 La40 2.503 1_455 S
O71 C59 1.256 . S
H72 C44 0.930 . S
H73 C45 0.930 . S
H74 C47 0.929 . S
H75 C48 0.929 . S
H76 C53 0.930 . S
H77 C54 0.930 . S
H78 C56 0.929 . S
H79 C57 0.929 . S
La80 C82 2.928 . S
La80 O100 2.521 . S
La80 O101 2.628 . S
La80 O102 2.554 . S
La80 O103 2.757 . S
La80 O104 2.470 . S
La80 O109 2.482 . S
La80 O111 2.503 . S
La81 C91 2.928 . S
La81 O103 2.482 . S
La81 O105 2.503 . S
La81 O106 2.521 . S
La81 O107 2.628 . S
La81 O108 2.554 . S
La81 O109 2.757 . S
La81 O110 2.470 . S
C82 La80 2.928 . S
C82 C83 1.503 . S
C82 O100 1.261 . S
C82 O101 1.243 . S
C83 C82 1.503 . S
C83 C84 1.394 . S
C83 C88 1.373 . S
C84 C83 1.394 . S
C84 C85 1.380 . S
C84 H112 0.930 . S
C85 C84 1.380 . S
C85 C86 1.376 . S
C85 H113 0.930 . S
C86 C85 1.376 . S
C86 C87 1.370 . S
C87 C86 1.370 . S
C87 C88 1.396 . S
C87 H114 0.929 . S
C88 C83 1.373 . S
C88 C87 1.396 . S
C88 H115 0.929 . S
C89 O102 1.240 . S
C89 O103 1.289 . S
C90 O104 1.258 . S
C90 O105 1.256 . S
C91 La81 2.928 . S
C91 C92 1.503 . S
C91 O106 1.261 . S
C91 O107 1.243 . S
C92 C91 1.503 . S
C92 C93 1.394 . S
C92 C97 1.373 . S
C93 C92 1.394 . S
C93 C94 1.380 . S
C93 H116 0.930 . S
C94 C93 1.380 . S
C94 C95 1.376 . S
C94 H117 0.930 . S
C95 C94 1.376 . S
C95 C96 1.370 . S
C96 C95 1.370 . S
C96 C97 1.396 . S
C96 H118 0.929 . S
C97 C92 1.373 . S
C97 C96 1.396 . S
C97 H119 0.929 . S
C98 O108 1.240 . S
C98 O109 1.289 . S
C99 O110 1.258 . S
C99 O111 1.256 . S
O100 La80 2.521 . S
O100 C82 1.261 . S
O101 La80 2.628 . S
O101 C82 1.243 . S
O102 La80 2.554 . S
O102 C89 1.240 . S
O103 La80 2.757 . S
O103 La81 2.482 . S
O103 C89 1.289 . S
O104 La80 2.470 . S
O104 C90 1.258 . S
O105 La81 2.503 . S
O105 C90 1.256 . S
O106 La81 2.521 . S
O106 C91 1.261 . S
O107 La81 2.628 . S
O107 C91 1.243 . S
O108 La81 2.554 . S
O108 C98 1.240 . S
O109 La80 2.482 . S
O109 La81 2.757 . S
O109 C98 1.289 . S
O110 La81 2.470 . S
O110 C99 1.258 . S
O111 La80 2.503 . S
O111 C99 1.256 . S
H112 C84 0.930 . S
H113 C85 0.930 . S
H114 C87 0.929 . S
H115 C88 0.929 . S
H116 C93 0.930 . S
H117 C94 0.930 . S
H118 C96 0.929 . S
H119 C97 0.929 . S
La120 C122 2.928 . S
La120 O140 2.521 . S
La120 O141 2.628 . S
La120 O142 2.554 . S
La120 O143 2.757 . S
La120 O144 2.470 . S
La120 O149 2.482 . S
La120 O151 2.503 . S
La121 C131 2.928 1_455 S
La121 O143 2.482 . S
La121 O145 2.503 . S
La121 O146 2.521 1_455 S
La121 O147 2.628 1_455 S
La121 O148 2.554 . S
La121 O149 2.757 . S
La121 O150 2.470 1_455 S
C122 La120 2.928 . S
C122 C123 1.503 . S
C122 O140 1.261 . S
C122 O141 1.243 . S
C123 C122 1.503 . S
C123 C124 1.394 . S
C123 C128 1.373 . S
C124 C123 1.394 . S
C124 C125 1.380 . S
C124 H152 0.930 . S
C125 C124 1.380 . S
C125 C126 1.376 . S
C125 H153 0.930 . S
C126 C125 1.376 . S
C126 C127 1.370 . S
C127 C126 1.370 . S
C127 C128 1.396 . S
C127 H154 0.929 . S
C128 C123 1.373 . S
C128 C127 1.396 . S
C128 H155 0.929 . S
C129 O142 1.240 . S
C129 O143 1.289 . S
C130 O144 1.258 . S
C130 O145 1.256 . S
C131 La121 2.928 1_655 S
C131 C132 1.503 . S
C131 O146 1.261 . S
C131 O147 1.243 . S
C132 C131 1.503 . S
C132 C133 1.394 . S
C132 C137 1.373 . S
C133 C132 1.394 . S
C133 C134 1.380 . S
C133 H156 0.930 . S
C134 C133 1.380 . S
C134 C135 1.376 . S
C134 H157 0.930 . S
C135 C134 1.376 . S
C135 C136 1.370 . S
C136 C135 1.370 . S
C136 C137 1.396 . S
C136 H158 0.929 . S
C137 C132 1.373 . S
C137 C136 1.396 . S
C137 H159 0.929 . S
C138 O148 1.240 . S
C138 O149 1.289 . S
C139 O150 1.258 . S
C139 O151 1.256 1_655 S
O140 La120 2.521 . S
O140 C122 1.261 . S
O141 La120 2.628 . S
O141 C122 1.243 . S
O142 La120 2.554 . S
O142 C129 1.240 . S
O143 La120 2.757 . S
O143 La121 2.482 . S
O143 C129 1.289 . S
O144 La120 2.470 . S
O144 C130 1.258 . S
O145 La121 2.503 . S
O145 C130 1.256 . S
O146 La121 2.521 1_655 S
O146 C131 1.261 . S
O147 La121 2.628 1_655 S
O147 C131 1.243 . S
O148 La121 2.554 . S
O148 C138 1.240 . S
O149 La120 2.482 . S
O149 La121 2.757 . S
O149 C138 1.289 . S
O150 La121 2.470 1_655 S
O150 C139 1.258 . S
O151 La120 2.503 . S
O151 C139 1.256 1_455 S
H152 C124 0.930 . S
H153 C125 0.930 . S
H154 C127 0.929 . S
H155 C128 0.929 . S
H156 C133 0.930 . S
H157 C134 0.930 . S
H158 C136 0.929 . S
H159 C137 0.929 . S
La160 C162 2.928 . S
La160 O180 2.521 . S
La160 O181 2.628 . S
La160 O182 2.554 . S
La160 O183 2.757 . S
La160 O184 2.470 . S
La160 O189 2.482 . S
La160 O191 2.503 . S
La161 C171 2.928 . S
La161 O183 2.482 . S
La161 O185 2.503 . S
La161 O186 2.521 . S
La161 O187 2.628 . S
La161 O188 2.554 . S
La161 O189 2.757 . S
La161 O190 2.470 . S
C162 La160 2.928 . S
C162 C163 1.503 . S
C162 O180 1.261 . S
C162 O181 1.243 . S
C163 C162 1.503 . S
C163 C164 1.394 . S
C163 C168 1.373 . S
C164 C163 1.394 . S
C164 C165 1.380 . S
C164 H192 0.930 . S
C165 C164 1.380 . S
C165 C166 1.376 . S
C165 H193 0.930 . S
C166 C165 1.376 . S
C166 C167 1.370 . S
C167 C166 1.370 . S
C167 C168 1.396 . S
C167 H194 0.929 . S
C168 C163 1.373 . S
C168 C167 1.396 . S
C168 H195 0.929 . S
C169 O182 1.240 . S
C169 O183 1.289 . S
C170 O184 1.258 . S
C170 O185 1.256 . S
C171 La161 2.928 . S
C171 C172 1.503 . S
C171 O186 1.261 . S
C171 O187 1.243 . S
C172 C171 1.503 . S
C172 C173 1.394 . S
C172 C177 1.373 . S
C173 C172 1.394 . S
C173 C174 1.380 . S
C173 H196 0.930 . S
C174 C173 1.380 . S
C174 C175 1.376 . S
C174 H197 0.930 . S
C175 C174 1.376 . S
C175 C176 1.370 . S
C176 C175 1.370 . S
C176 C177 1.396 . S
C176 H198 0.929 . S
C177 C172 1.373 . S
C177 C176 1.396 . S
C177 H199 0.929 . S
C178 O188 1.240 . S
C178 O189 1.289 . S
C179 O190 1.258 . S
C179 O191 1.256 . S
O180 La160 2.521 . S
O180 C162 1.261 . S
O181 La160 2.628 . S
O181 C162 1.243 . S
O182 La160 2.554 . S
O182 C169 1.240 . S
O183 La160 2.757 . S
O183 La161 2.482 . S
O183 C169 1.289 . S
O184 La160 2.470 . S
O184 C170 1.258 . S
O185 La161 2.503 . S
O185 C170 1.256 . S
O186 La161 2.521 . S
O186 C171 1.261 . S
O187 La161 2.628 . S
O187 C171 1.243 . S
O188 La161 2.554 . S
O188 C178 1.240 . S
O189 La160 2.482 . S
O189 La161 2.757 . S
O189 C178 1.289 . S
O190 La161 2.470 . S
O190 C179 1.258 . S
O191 La160 2.503 . S
O191 C179 1.256 . S
H192 C164 0.930 . S
H193 C165 0.930 . S
H194 C167 0.929 . S
H195 C168 0.929 . S
H196 C173 0.930 . S
H197 C174 0.930 . S
H198 C176 0.929 . S
H199 C177 0.929 . S
La200 C202 2.928 . S
La200 O220 2.521 . S
La200 O221 2.628 . S
La200 O222 2.554 1_565 S
La200 O223 2.757 1_565 S
La200 O224 2.470 . S
La200 O229 2.482 1_565 S
La200 O231 2.503 1_565 S
La201 C211 2.928 . S
La201 O223 2.482 . S
La201 O225 2.503 1_545 S
La201 O226 2.521 . S
La201 O227 2.628 . S
La201 O228 2.554 . S
La201 O229 2.757 . S
La201 O230 2.470 . S
C202 La200 2.928 . S
C202 C203 1.503 . S
C202 O220 1.261 . S
C202 O221 1.243 . S
C203 C202 1.503 . S
C203 C204 1.394 . S
C203 C208 1.373 . S
C204 C203 1.394 . S
C204 C205 1.380 . S
C204 H232 0.930 . S
C205 C204 1.380 . S
C205 C206 1.376 . S
C205 H233 0.930 . S
C206 C205 1.376 . S
C206 C207 1.370 . S
C207 C206 1.370 . S
C207 C208 1.396 . S
C207 H234 0.929 . S
C208 C203 1.373 . S
C208 C207 1.396 . S
C208 H235 0.929 . S
C209 O222 1.240 . S
C209 O223 1.289 . S
C210 O224 1.258 . S
C210 O225 1.256 . S
C211 La201 2.928 . S
C211 C212 1.503 . S
C211 O226 1.261 . S
C211 O227 1.243 . S
C212 C211 1.503 . S
C212 C213 1.394 . S
C212 C217 1.373 . S
C213 C212 1.394 . S
C213 C214 1.380 . S
C213 H236 0.930 . S
C214 C213 1.380 . S
C214 C215 1.376 . S
C214 H237 0.930 . S
C215 C214 1.376 . S
C215 C216 1.370 . S
C216 C215 1.370 . S
C216 C217 1.396 . S
C216 H238 0.929 . S
C217 C212 1.373 . S
C217 C216 1.396 . S
C217 H239 0.929 . S
C218 O228 1.240 . S
C218 O229 1.289 . S
C219 O230 1.258 . S
C219 O231 1.256 . S
O220 La200 2.521 . S
O220 C202 1.261 . S
O221 La200 2.628 . S
O221 C202 1.243 . S
O222 La200 2.554 1_545 S
O222 C209 1.240 . S
O223 La200 2.757 1_545 S
O223 La201 2.482 . S
O223 C209 1.289 . S
O224 La200 2.470 . S
O224 C210 1.258 . S
O225 La201 2.503 1_565 S
O225 C210 1.256 . S
O226 La201 2.521 . S
O226 C211 1.261 . S
O227 La201 2.628 . S
O227 C211 1.243 . S
O228 La201 2.554 . S
O228 C218 1.240 . S
O229 La200 2.482 1_545 S
O229 La201 2.757 . S
O229 C218 1.289 . S
O230 La201 2.470 . S
O230 C219 1.258 . S
O231 La200 2.503 1_545 S
O231 C219 1.256 . S
H232 C204 0.930 . S
H233 C205 0.930 . S
H234 C207 0.929 . S
H235 C208 0.929 . S
H236 C213 0.930 . S
H237 C214 0.930 . S
H238 C216 0.929 . S
H239 C217 0.929 . S
La240 C242 2.928 . S
La240 O260 2.521 . S
La240 O261 2.628 . S
La240 O262 2.554 . S
La240 O263 2.757 . S
La240 O264 2.470 . S
La240 O269 2.482 . S
La240 O271 2.503 1_545 S
La241 C251 2.928 . S
La241 O263 2.482 1_565 S
La241 O265 2.503 1_565 S
La241 O266 2.521 . S
La241 O267 2.628 . S
La241 O268 2.554 1_565 S
La241 O269 2.757 1_565 S
La241 O270 2.470 . S
C242 La240 2.928 . S
C242 C243 1.503 . S
C242 O260 1.261 . S
C242 O261 1.243 . S
C243 C242 1.503 . S
C243 C244 1.394 . S
C243 C248 1.373 . S
C244 C243 1.394 . S
C244 C245 1.380 . S
C244 H272 0.930 . S
C245 C244 1.380 . S
C245 C246 1.376 . S
C245 H273 0.930 . S
C246 C245 1.376 . S
C246 C247 1.370 . S
C247 C246 1.370 . S
C247 C248 1.396 . S
C247 H274 0.929 . S
C248 C243 1.373 . S
C248 C247 1.396 . S
C248 H275 0.929 . S
C249 O262 1.240 . S
C249 O263 1.289 . S
C250 O264 1.258 . S
C250 O265 1.256 . S
C251 La241 2.928 . S
C251 C252 1.503 . S
C251 O266 1.261 . S
C251 O267 1.243 . S
C252 C251 1.503 . S
C252 C253 1.394 . S
C252 C257 1.373 . S
C253 C252 1.394 . S
C253 C254 1.380 . S
C253 H276 0.930 . S
C254 C253 1.380 . S
C254 C255 1.376 . S
C254 H277 0.930 . S
C255 C254 1.376 . S
C255 C256 1.370 . S
C256 C255 1.370 . S
C256 C257 1.396 . S
C256 H278 0.929 . S
C257 C252 1.373 . S
C257 C256 1.396 . S
C257 H279 0.929 . S
C258 O268 1.240 . S
C258 O269 1.289 . S
C259 O270 1.258 . S
C259 O271 1.256 . S
O260 La240 2.521 . S
O260 C242 1.261 . S
O261 La240 2.628 . S
O261 C242 1.243 . S
O262 La240 2.554 . S
O262 C249 1.240 . S
O263 La240 2.757 . S
O263 La241 2.482 1_545 S
O263 C249 1.289 . S
O264 La240 2.470 . S
O264 C250 1.258 . S
O265 La241 2.503 1_545 S
O265 C250 1.256 . S
O266 La241 2.521 . S
O266 C251 1.261 . S
O267 La241 2.628 . S
O267 C251 1.243 . S
O268 La241 2.554 1_545 S
O268 C258 1.240 . S
O269 La240 2.482 . S
O269 La241 2.757 1_545 S
O269 C258 1.289 . S
O270 La241 2.470 . S
O270 C259 1.258 . S
O271 La240 2.503 1_565 S
O271 C259 1.256 . S
H272 C244 0.930 . S
H273 C245 0.930 . S
H274 C247 0.929 . S
H275 C248 0.929 . S
H276 C253 0.930 . S
H277 C254 0.930 . S
H278 C256 0.929 . S
H279 C257 0.929 . S
La280 C282 2.928 1_455 S
La280 O300 2.521 1_455 S
La280 O301 2.628 1_455 S
La280 O302 2.554 . S
La280 O303 2.757 . S
La280 O304 2.470 1_455 S
La280 O309 2.482 . S
La280 O311 2.503 . S
La281 C291 2.928 . S
La281 O303 2.482 . S
La281 O305 2.503 . S
La281 O306 2.521 . S
La281 O307 2.628 . S
La281 O308 2.554 . S
La281 O309 2.757 . S
La281 O310 2.470 . S
C282 La280 2.928 1_655 S
C282 C283 1.503 . S
C282 O300 1.261 . S
C282 O301 1.243 . S
C283 C282 1.503 . S
C283 C284 1.394 . S
C283 C288 1.373 . S
C284 C283 1.394 . S
C284 C285 1.380 . S
C284 H312 0.930 . S
C285 C284 1.380 . S
C285 C286 1.376 . S
C285 H313 0.930 . S
C286 C285 1.376 . S
C286 C287 1.370 . S
C287 C286 1.370 . S
C287 C288 1.396 . S
C287 H314 0.929 . S
C288 C283 1.373 . S
C288 C287 1.396 . S
C288 H315 0.929 . S
C289 O302 1.240 . S
C289 O303 1.289 . S
C290 O304 1.258 . S
C290 O305 1.256 1_655 S
C291 La281 2.928 . S
C291 C292 1.503 . S
C291 O306 1.261 . S
C291 O307 1.243 . S
C292 C291 1.503 . S
C292 C293 1.394 . S
C292 C297 1.373 . S
C293 C292 1.394 . S
C293 C294 1.380 . S
C293 H316 0.930 . S
C294 C293 1.380 . S
C294 C295 1.376 . S
C294 H317 0.930 . S
C295 C294 1.376 . S
C295 C296 1.370 . S
C296 C295 1.370 . S
C296 C297 1.396 . S
C296 H318 0.929 . S
C297 C292 1.373 . S
C297 C296 1.396 . S
C297 H319 0.929 . S
C298 O308 1.240 . S
C298 O309 1.289 . S
C299 O310 1.258 . S
C299 O311 1.256 . S
O300 La280 2.521 1_655 S
O300 C282 1.261 . S
O301 La280 2.628 1_655 S
O301 C282 1.243 . S
O302 La280 2.554 . S
O302 C289 1.240 . S
O303 La280 2.757 . S
O303 La281 2.482 . S
O303 C289 1.289 . S
O304 La280 2.470 1_655 S
O304 C290 1.258 . S
O305 La281 2.503 . S
O305 C290 1.256 1_455 S
O306 La281 2.521 . S
O306 C291 1.261 . S
O307 La281 2.628 . S
O307 C291 1.243 . S
O308 La281 2.554 . S
O308 C298 1.240 . S
O309 La280 2.482 . S
O309 La281 2.757 . S
O309 C298 1.289 . S
O310 La281 2.470 . S
O310 C299 1.258 . S
O311 La280 2.503 . S
O311 C299 1.256 . S
H312 C284 0.930 . S
H313 C285 0.930 . S
H314 C287 0.929 . S
H315 C288 0.929 . S
H316 C293 0.930 . S
H317 C294 0.930 . S
H318 C296 0.929 . S
H319 C297 0.929 . S
La320 C322 2.928 . S
La320 O340 2.521 . S
La320 O341 2.628 . S
La320 O342 2.554 . S
La320 O343 2.757 . S
La320 O344 2.470 . S
La320 O349 2.482 . S
La320 O351 2.503 . S
La321 C331 2.928 . S
La321 O343 2.482 . S
La321 O345 2.503 . S
La321 O346 2.521 . S
La321 O347 2.628 . S
La321 O348 2.554 . S
La321 O349 2.757 . S
La321 O350 2.470 . S
C322 La320 2.928 . S
C322 C323 1.503 . S
C322 O340 1.261 . S
C322 O341 1.243 . S
C323 C322 1.503 . S
C323 C324 1.394 . S
C323 C328 1.373 . S
C324 C323 1.394 . S
C324 C325 1.380 . S
C324 H352 0.930 . S
C325 C324 1.380 . S
C325 C326 1.376 . S
C325 H353 0.930 . S
C326 C325 1.376 . S
C326 C327 1.370 . S
C327 C326 1.370 . S
C327 C328 1.396 . S
C327 H354 0.929 . S
C328 C323 1.373 . S
C328 C327 1.396 . S
C328 H355 0.929 . S
C329 O342 1.240 . S
C329 O343 1.289 . S
C330 O344 1.258 . S
C330 O345 1.256 . S
C331 La321 2.928 . S
C331 C332 1.503 . S
C331 O346 1.261 . S
C331 O347 1.243 . S
C332 C331 1.503 . S
C332 C333 1.394 . S
C332 C337 1.373 . S
C333 C332 1.394 . S
C333 C334 1.380 . S
C333 H356 0.930 . S
C334 C333 1.380 . S
C334 C335 1.376 . S
C334 H357 0.930 . S
C335 C334 1.376 . S
C335 C336 1.370 . S
C336 C335 1.370 . S
C336 C337 1.396 . S
C336 H358 0.929 . S
C337 C332 1.373 . S
C337 C336 1.396 . S
C337 H359 0.929 . S
C338 O348 1.240 . S
C338 O349 1.289 . S
C339 O350 1.258 . S
C339 O351 1.256 . S
O340 La320 2.521 . S
O340 C322 1.261 . S
O341 La320 2.628 . S
O341 C322 1.243 . S
O342 La320 2.554 . S
O342 C329 1.240 . S
O343 La320 2.757 . S
O343 La321 2.482 . S
O343 C329 1.289 . S
O344 La320 2.470 . S
O344 C330 1.258 . S
O345 La321 2.503 . S
O345 C330 1.256 . S
O346 La321 2.521 . S
O346 C331 1.261 . S
O347 La321 2.628 . S
O347 C331 1.243 . S
O348 La321 2.554 . S
O348 C338 1.240 . S
O349 La320 2.482 . S
O349 La321 2.757 . S
O349 C338 1.289 . S
O350 La321 2.470 . S
O350 C339 1.258 . S
O351 La320 2.503 . S
O351 C339 1.256 . S
H352 C324 0.930 . S
H353 C325 0.930 . S
H354 C327 0.929 . S
H355 C328 0.929 . S
H356 C333 0.930 . S
H357 C334 0.930 . S
H358 C336 0.929 . S
H359 C337 0.929 . S
La360 C362 2.928 . S
La360 O380 2.521 . S
La360 O381 2.628 . S
La360 O382 2.554 . S
La360 O383 2.757 . S
La360 O384 2.470 . S
La360 O389 2.482 . S
La360 O391 2.503 1_455 S
La361 C371 2.928 . S
La361 O383 2.482 1_655 S
La361 O385 2.503 1_655 S
La361 O386 2.521 . S
La361 O387 2.628 . S
La361 O388 2.554 1_655 S
La361 O389 2.757 1_655 S
La361 O390 2.470 . S
C362 La360 2.928 . S
C362 C363 1.503 . S
C362 O380 1.261 . S
C362 O381 1.243 . S
C363 C362 1.503 . S
C363 C364 1.394 . S
C363 C368 1.373 . S
C364 C363 1.394 . S
C364 C365 1.380 . S
C364 H392 0.930 . S
C365 C364 1.380 . S
C365 C366 1.376 . S
C365 H393 0.930 . S
C366 C365 1.376 . S
C366 C367 1.370 . S
C367 C366 1.370 . S
C367 C368 1.396 . S
C367 H394 0.929 . S
C368 C363 1.373 . S
C368 C367 1.396 . S
C368 H395 0.929 . S
C369 O382 1.240 . S
C369 O383 1.289 . S
C370 O384 1.258 . S
C370 O385 1.256 . S
C371 La361 2.928 . S
C371 C372 1.503 . S
C371 O386 1.261 . S
C371 O387 1.243 . S
C372 C371 1.503 . S
C372 C373 1.394 . S
C372 C377 1.373 . S
C373 C372 1.394 . S
C373 C374 1.380 . S
C373 H396 0.930 . S
C374 C373 1.380 . S
C374 C375 1.376 . S
C374 H397 0.930 . S
C375 C374 1.376 . S
C375 C376 1.370 . S
C376 C375 1.370 . S
C376 C377 1.396 . S
C376 H398 0.929 . S
C377 C372 1.373 . S
C377 C376 1.396 . S
C377 H399 0.929 . S
C378 O388 1.240 . S
C378 O389 1.289 . S
C379 O390 1.258 . S
C379 O391 1.256 . S
O380 La360 2.521 . S
O380 C362 1.261 . S
O381 La360 2.628 . S
O381 C362 1.243 . S
O382 La360 2.554 . S
O382 C369 1.240 . S
O383 La360 2.757 . S
O383 La361 2.482 1_455 S
O383 C369 1.289 . S
O384 La360 2.470 . S
O384 C370 1.258 . S
O385 La361 2.503 1_455 S
O385 C370 1.256 . S
O386 La361 2.521 . S
O386 C371 1.261 . S
O387 La361 2.628 . S
O387 C371 1.243 . S
O388 La361 2.554 1_455 S
O388 C378 1.240 . S
O389 La360 2.482 . S
O389 La361 2.757 1_455 S
O389 C378 1.289 . S
O390 La361 2.470 . S
O390 C379 1.258 . S
O391 La360 2.503 1_655 S
O391 C379 1.256 . S
H392 C364 0.930 . S
H393 C365 0.930 . S
H394 C367 0.929 . S
H395 C368 0.929 . S
H396 C373 0.930 . S
H397 C374 0.930 . S
H398 C376 0.929 . S
H399 C377 0.929 . S
La400 C402 2.928 . S
La400 O420 2.521 . S
La400 O421 2.628 . S
La400 O422 2.554 . S
La400 O423 2.757 . S
La400 O424 2.470 . S
La400 O429 2.482 . S
La400 O431 2.503 . S
La401 C411 2.928 . S
La401 O423 2.482 . S
La401 O425 2.503 . S
La401 O426 2.521 . S
La401 O427 2.628 . S
La401 O428 2.554 . S
La401 O429 2.757 . S
La401 O430 2.470 . S
C402 La400 2.928 . S
C402 C403 1.503 . S
C402 O420 1.261 . S
C402 O421 1.243 . S
C403 C402 1.503 . S
C403 C404 1.394 . S
C403 C408 1.373 . S
C404 C403 1.394 . S
C404 C405 1.380 . S
C404 H432 0.930 . S
C405 C404 1.380 . S
C405 C406 1.376 . S
C405 H433 0.930 . S
C406 C405 1.376 . S
C406 C407 1.370 . S
C407 C406 1.370 . S
C407 C408 1.396 . S
C407 H434 0.929 . S
C408 C403 1.373 . S
C408 C407 1.396 . S
C408 H435 0.929 . S
C409 O422 1.240 . S
C409 O423 1.289 . S
C410 O424 1.258 . S
C410 O425 1.256 . S
C411 La401 2.928 . S
C411 C412 1.503 . S
C411 O426 1.261 . S
C411 O427 1.243 . S
C412 C411 1.503 . S
C412 C413 1.394 . S
C412 C417 1.373 . S
C413 C412 1.394 . S
C413 C414 1.380 . S
C413 H436 0.930 . S
C414 C413 1.380 . S
C414 C415 1.376 . S
C414 H437 0.930 . S
C415 C414 1.376 . S
C415 C416 1.370 . S
C416 C415 1.370 . S
C416 C417 1.396 . S
C416 H438 0.929 . S
C417 C412 1.373 . S
C417 C416 1.396 . S
C417 H439 0.929 . S
C418 O428 1.240 . S
C418 O429 1.289 . S
C419 O430 1.258 . S
C419 O431 1.256 . S
O420 La400 2.521 . S
O420 C402 1.261 . S
O421 La400 2.628 . S
O421 C402 1.243 . S
O422 La400 2.554 . S
O422 C409 1.240 . S
O423 La400 2.757 . S
O423 La401 2.482 . S
O423 C409 1.289 . S
O424 La400 2.470 . S
O424 C410 1.258 . S
O425 La401 2.503 . S
O425 C410 1.256 . S
O426 La401 2.521 . S
O426 C411 1.261 . S
O427 La401 2.628 . S
O427 C411 1.243 . S
O428 La401 2.554 . S
O428 C418 1.240 . S
O429 La400 2.482 . S
O429 La401 2.757 . S
O429 C418 1.289 . S
O430 La401 2.470 . S
O430 C419 1.258 . S
O431 La400 2.503 . S
O431 C419 1.256 . S
H432 C404 0.930 . S
H433 C405 0.930 . S
H434 C407 0.929 . S
H435 C408 0.929 . S
H436 C413 0.930 . S
H437 C414 0.930 . S
H438 C416 0.929 . S
H439 C417 0.929 . S
La440 C442 2.928 1_545 S
La440 O460 2.521 1_545 S
La440 O461 2.628 1_545 S
La440 O462 2.554 . S
La440 O463 2.757 . S
La440 O464 2.470 1_545 S
La440 O469 2.482 . S
La440 O471 2.503 . S
La441 C451 2.928 . S
La441 O463 2.482 . S
La441 O465 2.503 . S
La441 O466 2.521 . S
La441 O467 2.628 . S
La441 O468 2.554 . S
La441 O469 2.757 . S
La441 O470 2.470 . S
C442 La440 2.928 1_565 S
C442 C443 1.503 . S
C442 O460 1.261 . S
C442 O461 1.243 . S
C443 C442 1.503 . S
C443 C444 1.394 . S
C443 C448 1.373 . S
C444 C443 1.394 . S
C444 C445 1.380 . S
C444 H472 0.930 . S
C445 C444 1.380 . S
C445 C446 1.376 . S
C445 H473 0.930 . S
C446 C445 1.376 . S
C446 C447 1.370 . S
C447 C446 1.370 . S
C447 C448 1.396 . S
C447 H474 0.929 . S
C448 C443 1.373 . S
C448 C447 1.396 . S
C448 H475 0.929 . S
C449 O462 1.240 . S
C449 O463 1.289 . S
C450 O464 1.258 . S
C450 O465 1.256 1_565 S
C451 La441 2.928 . S
C451 C452 1.503 . S
C451 O466 1.261 . S
C451 O467 1.243 . S
C452 C451 1.503 . S
C452 C453 1.394 . S
C452 C457 1.373 . S
C453 C452 1.394 . S
C453 C454 1.380 . S
C453 H476 0.930 . S
C454 C453 1.380 . S
C454 C455 1.376 . S
C454 H477 0.930 . S
C455 C454 1.376 . S
C455 C456 1.370 . S
C456 C455 1.370 . S
C456 C457 1.396 . S
C456 H478 0.929 . S
C457 C452 1.373 . S
C457 C456 1.396 . S
C457 H479 0.929 . S
C458 O468 1.240 . S
C458 O469 1.289 . S
C459 O470 1.258 . S
C459 O471 1.256 . S
O460 La440 2.521 1_565 S
O460 C442 1.261 . S
O461 La440 2.628 1_565 S
O461 C442 1.243 . S
O462 La440 2.554 . S
O462 C449 1.240 . S
O463 La440 2.757 . S
O463 La441 2.482 . S
O463 C449 1.289 . S
O464 La440 2.470 1_565 S
O464 C450 1.258 . S
O465 La441 2.503 . S
O465 C450 1.256 1_545 S
O466 La441 2.521 . S
O466 C451 1.261 . S
O467 La441 2.628 . S
O467 C451 1.243 . S
O468 La441 2.554 . S
O468 C458 1.240 . S
O469 La440 2.482 . S
O469 La441 2.757 . S
O469 C458 1.289 . S
O470 La441 2.470 . S
O470 C459 1.258 . S
O471 La440 2.503 . S
O471 C459 1.256 . S
H472 C444 0.930 . S
H473 C445 0.930 . S
H474 C447 0.929 . S
H475 C448 0.929 . S
H476 C453 0.930 . S
H477 C454 0.930 . S
H478 C456 0.929 . S
H479 C457 0.929 . S
La480 C482 2.928 . S
La480 O500 2.521 . S
La480 O501 2.628 . S
La480 O502 2.554 . S
La480 O503 2.757 . S
La480 O504 2.470 . S
La480 O509 2.482 . S
La480 O511 2.503 . S
La481 C491 2.928 . S
La481 O503 2.482 . S
La481 O505 2.503 . S
La481 O506 2.521 . S
La481 O507 2.628 . S
La481 O508 2.554 . S
La481 O509 2.757 . S
La481 O510 2.470 . S
C482 La480 2.928 . S
C482 C483 1.503 . S
C482 O500 1.261 . S
C482 O501 1.243 . S
C483 C482 1.503 . S
C483 C484 1.394 . S
C483 C488 1.373 . S
C484 C483 1.394 . S
C484 C485 1.380 . S
C484 H512 0.930 . S
C485 C484 1.380 . S
C485 C486 1.376 . S
C485 H513 0.930 . S
C486 C485 1.376 . S
C486 C487 1.370 . S
C487 C486 1.370 . S
C487 C488 1.396 . S
C487 H514 0.929 . S
C488 C483 1.373 . S
C488 C487 1.396 . S
C488 H515 0.929 . S
C489 O502 1.240 . S
C489 O503 1.289 . S
C490 O504 1.258 . S
C490 O505 1.256 . S
C491 La481 2.928 . S
C491 C492 1.503 . S
C491 O506 1.261 . S
C491 O507 1.243 . S
C492 C491 1.503 . S
C492 C493 1.394 . S
C492 C497 1.373 . S
C493 C492 1.394 . S
C493 C494 1.380 . S
C493 H516 0.930 . S
C494 C493 1.380 . S
C494 C495 1.376 . S
C494 H517 0.930 . S
C495 C494 1.376 . S
C495 C496 1.370 . S
C496 C495 1.370 . S
C496 C497 1.396 . S
C496 H518 0.929 . S
C497 C492 1.373 . S
C497 C496 1.396 . S
C497 H519 0.929 . S
C498 O508 1.240 . S
C498 O509 1.289 . S
C499 O510 1.258 . S
C499 O511 1.256 . S
O500 La480 2.521 . S
O500 C482 1.261 . S
O501 La480 2.628 . S
O501 C482 1.243 . S
O502 La480 2.554 . S
O502 C489 1.240 . S
O503 La480 2.757 . S
O503 La481 2.482 . S
O503 C489 1.289 . S
O504 La480 2.470 . S
O504 C490 1.258 . S
O505 La481 2.503 . S
O505 C490 1.256 . S
O506 La481 2.521 . S
O506 C491 1.261 . S
O507 La481 2.628 . S
O507 C491 1.243 . S
O508 La481 2.554 . S
O508 C498 1.240 . S
O509 La480 2.482 . S
O509 La481 2.757 . S
O509 C498 1.289 . S
O510 La481 2.470 . S
O510 C499 1.258 . S
O511 La480 2.503 . S
O511 C499 1.256 . S
H512 C484 0.930 . S
H513 C485 0.930 . S
H514 C487 0.929 . S
H515 C488 0.929 . S
H516 C493 0.930 . S
H517 C494 0.930 . S
H518 C496 0.929 . S
H519 C497 0.929 . S
La520 C522 2.928 . S
La520 O540 2.521 . S
La520 O541 2.628 . S
La520 O542 2.554 . S
La520 O543 2.757 . S
La520 O544 2.470 . S
La520 O549 2.482 . S
La520 O551 2.503 . S
La521 C531 2.928 . S
La521 O543 2.482 . S
La521 O545 2.503 . S
La521 O546 2.521 . S
La521 O547 2.628 . S
La521 O548 2.554 . S
La521 O549 2.757 . S
La521 O550 2.470 . S
C522 La520 2.928 . S
C522 C523 1.503 . S
C522 O540 1.261 . S
C522 O541 1.243 . S
C523 C522 1.503 . S
C523 C524 1.394 . S
C523 C528 1.373 . S
C524 C523 1.394 . S
C524 C525 1.380 . S
C524 H552 0.930 . S
C525 C524 1.380 . S
C525 C526 1.376 . S
C525 H553 0.930 . S
C526 C525 1.376 . S
C526 C527 1.370 . S
C527 C526 1.370 . S
C527 C528 1.396 . S
C527 H554 0.929 . S
C528 C523 1.373 . S
C528 C527 1.396 . S
C528 H555 0.929 . S
C529 O542 1.240 . S
C529 O543 1.289 . S
C530 O544 1.258 . S
C530 O545 1.256 . S
C531 La521 2.928 . S
C531 C532 1.503 . S
C531 O546 1.261 . S
C531 O547 1.243 . S
C532 C531 1.503 . S
C532 C533 1.394 . S
C532 C537 1.373 . S
C533 C532 1.394 . S
C533 C534 1.380 . S
C533 H556 0.930 . S
C534 C533 1.380 . S
C534 C535 1.376 . S
C534 H557 0.930 . S
C535 C534 1.376 . S
C535 C536 1.370 . S
C536 C535 1.370 . S
C536 C537 1.396 . S
C536 H558 0.929 . S
C537 C532 1.373 . S
C537 C536 1.396 . S
C537 H559 0.929 . S
C538 O548 1.240 . S
C538 O549 1.289 . S
C539 O550 1.258 . S
C539 O551 1.256 . S
O540 La520 2.521 . S
O540 C522 1.261 . S
O541 La520 2.628 . S
O541 C522 1.243 . S
O542 La520 2.554 . S
O542 C529 1.240 . S
O543 La520 2.757 . S
O543 La521 2.482 . S
O543 C529 1.289 . S
O544 La520 2.470 . S
O544 C530 1.258 . S
O545 La521 2.503 . S
O545 C530 1.256 . S
O546 La521 2.521 . S
O546 C531 1.261 . S
O547 La521 2.628 . S
O547 C531 1.243 . S
O548 La521 2.554 . S
O548 C538 1.240 . S
O549 La520 2.482 . S
O549 La521 2.757 . S
O549 C538 1.289 . S
O550 La521 2.470 . S
O550 C539 1.258 . S
O551 La520 2.503 . S
O551 C539 1.256 . S
H552 C524 0.930 . S
H553 C525 0.930 . S
H554 C527 0.929 . S
H555 C528 0.929 . S
H556 C533 0.930 . S
H557 C534 0.930 . S
H558 C536 0.929 . S
H559 C537 0.929 . S
La560 C562 2.928 . S
La560 O580 2.521 . S
La560 O581 2.628 . S
La560 O582 2.554 . S
La560 O583 2.757 . S
La560 O584 2.470 . S
La560 O589 2.482 . S
La560 O591 2.503 . S
La561 C571 2.928 . S
La561 O583 2.482 . S
La561 O585 2.503 . S
La561 O586 2.521 . S
La561 O587 2.628 . S
La561 O588 2.554 . S
La561 O589 2.757 . S
La561 O590 2.470 . S
C562 La560 2.928 . S
C562 C563 1.503 . S
C562 O580 1.261 . S
C562 O581 1.243 . S
C563 C562 1.503 . S
C563 C564 1.394 . S
C563 C568 1.373 . S
C564 C563 1.394 . S
C564 C565 1.380 . S
C564 H592 0.930 . S
C565 C564 1.380 . S
C565 C566 1.376 . S
C565 H593 0.930 . S
C566 C565 1.376 . S
C566 C567 1.370 . S
C567 C566 1.370 . S
C567 C568 1.396 . S
C567 H594 0.929 . S
C568 C563 1.373 . S
C568 C567 1.396 . S
C568 H595 0.929 . S
C569 O582 1.240 . S
C569 O583 1.289 . S
C570 O584 1.258 . S
C570 O585 1.256 . S
C571 La561 2.928 . S
C571 C572 1.503 . S
C571 O586 1.261 . S
C571 O587 1.243 . S
C572 C571 1.503 . S
C572 C573 1.394 . S
C572 C577 1.373 . S
C573 C572 1.394 . S
C573 C574 1.380 . S
C573 H596 0.930 . S
C574 C573 1.380 . S
C574 C575 1.376 . S
C574 H597 0.930 . S
C575 C574 1.376 . S
C575 C576 1.370 . S
C576 C575 1.370 . S
C576 C577 1.396 . S
C576 H598 0.929 . S
C577 C572 1.373 . S
C577 C576 1.396 . S
C577 H599 0.929 . S
C578 O588 1.240 . S
C578 O589 1.289 . S
C579 O590 1.258 . S
C579 O591 1.256 . S
O580 La560 2.521 . S
O580 C562 1.261 . S
O581 La560 2.628 . S
O581 C562 1.243 . S
O582 La560 2.554 . S
O582 C569 1.240 . S
O583 La560 2.757 . S
O583 La561 2.482 . S
O583 C569 1.289 . S
O584 La560 2.470 . S
O584 C570 1.258 . S
O585 La561 2.503 . S
O585 C570 1.256 . S
O586 La561 2.521 . S
O586 C571 1.261 . S
O587 La561 2.628 . S
O587 C571 1.243 . S
O588 La561 2.554 . S
O588 C578 1.240 . S
O589 La560 2.482 . S
O589 La561 2.757 . S
O589 C578 1.289 . S
O590 La561 2.470 . S
O590 C579 1.258 . S
O591 La560 2.503 . S
O591 C579 1.256 . S
H592 C564 0.930 . S
H593 C565 0.930 . S
H594 C567 0.929 . S
H595 C568 0.929 . S
H596 C573 0.930 . S
H597 C574 0.930 . S
H598 C576 0.929 . S
H599 C577 0.929 . S
La600 C602 2.928 . S
La600 O620 2.521 . S
La600 O621 2.628 . S
La600 O622 2.554 . S
La600 O623 2.757 . S
La600 O624 2.470 . S
La600 O629 2.482 . S
La600 O631 2.503 . S
La601 C611 2.928 . S
La601 O623 2.482 . S
La601 O625 2.503 . S
La601 O626 2.521 . S
La601 O627 2.628 . S
La601 O628 2.554 . S
La601 O629 2.757 . S
La601 O630 2.470 . S
C602 La600 2.928 . S
C602 C603 1.503 . S
C602 O620 1.261 . S
C602 O621 1.243 . S
C603 C602 1.503 . S
C603 C604 1.394 . S
C603 C608 1.373 . S
C604 C603 1.394 . S
C604 C605 1.380 . S
C604 H632 0.930 . S
C605 C604 1.380 . S
C605 C606 1.376 . S
C605 H633 0.930 . S
C606 C605 1.376 . S
C606 C607 1.370 . S
C607 C606 1.370 . S
C607 C608 1.396 . S
C607 H634 0.929 . S
C608 C603 1.373 . S
C608 C607 1.396 . S
C608 H635 0.929 . S
C609 O622 1.240 . S
C609 O623 1.289 . S
C610 O624 1.258 . S
C610 O625 1.256 . S
C611 La601 2.928 . S
C611 C612 1.503 . S
C611 O626 1.261 . S
C611 O627 1.243 . S
C612 C611 1.503 . S
C612 C613 1.394 . S
C612 C617 1.373 . S
C613 C612 1.394 . S
C613 C614 1.380 . S
C613 H636 0.930 . S
C614 C613 1.380 . S
C614 C615 1.376 . S
C614 H637 0.930 . S
C615 C614 1.376 . S
C615 C616 1.370 . S
C616 C615 1.370 . S
C616 C617 1.396 . S
C616 H638 0.929 . S
C617 C612 1.373 . S
C617 C616 1.396 . S
C617 H639 0.929 . S
C618 O628 1.240 . S
C618 O629 1.289 . S
C619 O630 1.258 . S
C619 O631 1.256 . S
O620 La600 2.521 . S
O620 C602 1.261 . S
O621 La600 2.628 . S
O621 C602 1.243 . S
O622 La600 2.554 . S
O622 C609 1.240 . S
O623 La600 2.757 . S
O623 La601 2.482 . S
O623 C609 1.289 . S
O624 La600 2.470 . S
O624 C610 1.258 . S
O625 La601 2.503 . S
O625 C610 1.256 . S
O626 La601 2.521 . S
O626 C611 1.261 . S
O627 La601 2.628 . S
O627 C611 1.243 . S
O628 La601 2.554 . S
O628 C618 1.240 . S
O629 La600 2.482 . S
O629 La601 2.757 . S
O629 C618 1.289 . S
O630 La601 2.470 . S
O630 C619 1.258 . S
O631 La600 2.503 . S
O631 C619 1.256 . S
H632 C604 0.930 . S
H633 C605 0.930 . S
H634 C607 0.929 . S
H635 C608 0.929 . S
H636 C613 0.930 . S
H637 C614 0.930 . S
H638 C616 0.929 . S
H639 C617 0.929 . S
La640 C642 2.928 . S
La640 O660 2.521 . S
La640 O661 2.628 . S
La640 O662 2.554 . S
La640 O663 2.757 . S
La640 O664 2.470 . S
La640 O669 2.482 . S
La640 O671 2.503 . S
La641 C651 2.928 . S
La641 O663 2.482 . S
La641 O665 2.503 . S
La641 O666 2.521 . S
La641 O667 2.628 . S
La641 O668 2.554 . S
La641 O669 2.757 . S
La641 O670 2.470 . S
C642 La640 2.928 . S
C642 C643 1.503 1_565 S
C642 O660 1.261 . S
C642 O661 1.243 . S
C643 C642 1.503 1_545 S
C643 C644 1.394 . S
C643 C648 1.373 . S
C644 C643 1.394 . S
C644 C645 1.380 . S
C644 H672 0.930 . S
C645 C644 1.380 . S
C645 C646 1.376 . S
C645 H673 0.930 . S
C646 C645 1.376 . S
C646 C647 1.370 . S
C647 C646 1.370 . S
C647 C648 1.396 . S
C647 H674 0.929 . S
C648 C643 1.373 . S
C648 C647 1.396 . S
C648 H675 0.929 . S
C649 O662 1.240 . S
C649 O663 1.289 . S
C650 O664 1.258 . S
C650 O665 1.256 . S
C651 La641 2.928 . S
C651 C652 1.503 . S
C651 O666 1.261 . S
C651 O667 1.243 . S
C652 C651 1.503 . S
C652 C653 1.394 . S
C652 C657 1.373 . S
C653 C652 1.394 . S
C653 C654 1.380 . S
C653 H676 0.930 . S
C654 C653 1.380 . S
C654 C655 1.376 . S
C654 H677 0.930 . S
C655 C654 1.376 . S
C655 C656 1.370 . S
C656 C655 1.370 . S
C656 C657 1.396 . S
C656 H678 0.929 . S
C657 C652 1.373 . S
C657 C656 1.396 . S
C657 H679 0.929 . S
C658 O668 1.240 . S
C658 O669 1.289 . S
C659 O670 1.258 . S
C659 O671 1.256 . S
O660 La640 2.521 . S
O660 C642 1.261 . S
O661 La640 2.628 . S
O661 C642 1.243 . S
O662 La640 2.554 . S
O662 C649 1.240 . S
O663 La640 2.757 . S
O663 La641 2.482 . S
O663 C649 1.289 . S
O664 La640 2.470 . S
O664 C650 1.258 . S
O665 La641 2.503 . S
O665 C650 1.256 . S
O666 La641 2.521 . S
O666 C651 1.261 . S
O667 La641 2.628 . S
O667 C651 1.243 . S
O668 La641 2.554 . S
O668 C658 1.240 . S
O669 La640 2.482 . S
O669 La641 2.757 . S
O669 C658 1.289 . S
O670 La641 2.470 . S
O670 C659 1.258 . S
O671 La640 2.503 . S
O671 C659 1.256 . S
H672 C644 0.930 . S
H673 C645 0.930 . S
H674 C647 0.929 . S
H675 C648 0.929 . S
H676 C653 0.930 . S
H677 C654 0.930 . S
H678 C656 0.929 . S
H679 C657 0.929 . S
La680 C682 2.928 . S
La680 O700 2.521 . S
La680 O701 2.628 . S
La680 O702 2.554 . S
La680 O703 2.757 . S
La680 O704 2.470 . S
La680 O709 2.482 . S
La680 O711 2.503 . S
La681 C691 2.928 . S
La681 O703 2.482 . S
La681 O705 2.503 . S
La681 O706 2.521 . S
La681 O707 2.628 . S
La681 O708 2.554 . S
La681 O709 2.757 . S
La681 O710 2.470 . S
C682 La680 2.928 . S
C682 C683 1.503 . S
C682 O700 1.261 . S
C682 O701 1.243 . S
C683 C682 1.503 . S
C683 C684 1.394 . S
C683 C688 1.373 . S
C684 C683 1.394 . S
C684 C685 1.380 . S
C684 H712 0.930 . S
C685 C684 1.380 . S
C685 C686 1.376 . S
C685 H713 0.939 . S
C686 C685 1.376 . S
C686 C687 1.377 . S
C687 C686 1.377 . S
C687 C688 1.396 . S
C687 H714 0.929 . S
C688 C683 1.373 . S
C688 C687 1.396 . S
C688 H715 0.929 . S
C689 O702 1.240 . S
C689 O703 1.289 . S
C690 O704 1.258 . S
C690 O705 1.256 . S
C691 La681 2.928 . S
C691 C692 1.503 . S
C691 O706 1.261 . S
C691 O707 1.243 . S
C692 C691 1.503 . S
C692 C693 1.394 . S
C692 C697 1.373 . S
C693 C692 1.394 . S
C693 C694 1.380 . S
C693 H716 0.930 . S
C694 C693 1.380 . S
C694 C695 1.376 . S
C694 H717 0.930 . S
C695 C694 1.376 . S
C695 C696 1.370 . S
C696 C695 1.370 . S
C696 C697 1.396 . S
C696 H718 0.929 . S
C697 C692 1.373 . S
C697 C696 1.396 . S
C697 H719 0.929 . S
C698 O708 1.240 . S
C698 O709 1.289 . S
C699 O710 1.258 . S
C699 O711 1.256 . S
O700 La680 2.521 . S
O700 C682 1.261 . S
O701 La680 2.628 . S
O701 C682 1.243 . S
O702 La680 2.554 . S
O702 C689 1.240 . S
O703 La680 2.757 . S
O703 La681 2.482 . S
O703 C689 1.289 . S
O704 La680 2.470 . S
O704 C690 1.258 . S
O705 La681 2.503 . S
O705 C690 1.256 . S
O706 La681 2.521 . S
O706 C691 1.261 . S
O707 La681 2.628 . S
O707 C691 1.243 . S
O708 La681 2.554 . S
O708 C698 1.240 . S
O709 La680 2.482 . S
O709 La681 2.757 . S
O709 C698 1.289 . S
O710 La681 2.470 . S
O710 C699 1.258 . S
O711 La680 2.503 . S
O711 C699 1.256 . S
H712 C684 0.930 . S
H713 C685 0.939 . S
H714 C687 0.929 . S
H715 C688 0.929 . S
H716 C693 0.930 . S
H717 C694 0.930 . S
H718 C696 0.929 . S
H719 C697 0.929 . S
La720 C722 2.928 . S
La720 O740 2.521 . S
La720 O741 2.628 . S
La720 O742 2.554 . S
La720 O743 2.757 . S
La720 O744 2.470 . S
La720 O749 2.482 . S
La720 O751 2.503 . S
La721 C731 2.928 . S
La721 O743 2.482 . S
La721 O745 2.503 . S
La721 O746 2.521 . S
La721 O747 2.628 . S
La721 O748 2.554 . S
La721 O749 2.757 . S
La721 O750 2.470 . S
C722 La720 2.928 . S
C722 C723 1.503 . S
C722 O740 1.261 . S
C722 O741 1.243 . S
C723 C722 1.503 . S
C723 C724 1.394 . S
C723 C728 1.373 . S
C724 C723 1.394 . S
C724 C725 1.380 . S
C724 H752 0.930 . S
C725 C724 1.380 . S
C725 C726 1.376 . S
C725 H753 0.930 . S
C726 C725 1.376 . S
C726 C727 1.370 . S
C727 C726 1.370 . S
C727 C728 1.396 . S
C727 H754 0.929 . S
C728 C723 1.373 . S
C728 C727 1.396 . S
C728 H755 0.929 . S
C729 O742 1.240 . S
C729 O743 1.289 . S
C730 O744 1.258 . S
C730 O745 1.256 . S
C731 La721 2.928 . S
C731 C732 1.503 . S
C731 O746 1.261 . S
C731 O747 1.243 . S
C732 C731 1.503 . S
C732 C733 1.394 . S
C732 C737 1.373 . S
C733 C732 1.394 . S
C733 C734 1.380 . S
C733 H756 0.930 . S
C734 C733 1.380 . S
C734 C735 1.376 . S
C734 H757 0.930 . S
C735 C734 1.376 . S
C735 C736 1.370 . S
C736 C735 1.370 . S
C736 C737 1.396 . S
C736 H758 0.929 . S
C737 C732 1.373 . S
C737 C736 1.396 . S
C737 H759 0.929 . S
C738 O748 1.240 . S
C738 O749 1.289 . S
C739 O750 1.258 . S
C739 O751 1.256 . S
O740 La720 2.521 . S
O740 C722 1.261 . S
O741 La720 2.628 . S
O741 C722 1.243 . S
O742 La720 2.554 . S
O742 C729 1.240 . S
O743 La720 2.757 . S
O743 La721 2.482 . S
O743 C729 1.289 . S
O744 La720 2.470 . S
O744 C730 1.258 . S
O745 La721 2.503 . S
O745 C730 1.256 . S
O746 La721 2.521 . S
O746 C731 1.261 . S
O747 La721 2.628 . S
O747 C731 1.243 . S
O748 La721 2.554 . S
O748 C738 1.240 . S
O749 La720 2.482 . S
O749 La721 2.757 . S
O749 C738 1.289 . S
O750 La721 2.470 . S
O750 C739 1.258 . S
O751 La720 2.503 . S
O751 C739 1.256 . S
H752 C724 0.930 . S
H753 C725 0.930 . S
H754 C727 0.929 . S
H755 C728 0.929 . S
H756 C733 0.930 . S
H757 C734 0.930 . S
H758 C736 0.929 . S
H759 C737 0.929 . S
La760 C762 2.928 . S
La760 O780 2.521 . S
La760 O781 2.628 . S
La760 O782 2.554 . S
La760 O783 2.757 . S
La760 O784 2.470 . S
La760 O789 2.482 . S
La760 O791 2.503 . S
La761 C771 2.928 . S
La761 O783 2.482 . S
La761 O785 2.503 . S
La761 O786 2.521 . S
La761 O787 2.628 . S
La761 O788 2.554 . S
La761 O789 2.757 . S
La761 O790 2.470 . S
C762 La760 2.928 . S
C762 C763 1.503 . S
C762 O780 1.261 . S
C762 O781 1.243 . S
C763 C762 1.503 . S
C763 C764 1.394 . S
C763 C768 1.373 . S
C764 C763 1.394 . S
C764 C765 1.380 . S
C764 H792 0.930 . S
C765 C764 1.380 . S
C765 C766 1.376 . S
C765 H793 0.930 . S
C766 C765 1.376 . S
C766 C767 1.370 . S
C767 C766 1.370 . S
C767 C768 1.396 . S
C767 H794 0.929 . S
C768 C763 1.373 . S
C768 C767 1.396 . S
C768 H795 0.929 . S
C769 O782 1.240 . S
C769 O783 1.289 . S
C770 O784 1.258 . S
C770 O785 1.256 . S
C771 La761 2.928 . S
C771 C772 1.503 1_565 S
C771 O786 1.261 . S
C771 O787 1.243 . S
C772 C771 1.503 1_545 S
C772 C773 1.394 . S
C772 C777 1.373 . S
C773 C772 1.394 . S
C773 C774 1.380 . S
C773 H796 0.930 . S
C774 C773 1.380 . S
C774 C775 1.376 . S
C774 H797 0.930 . S
C775 C774 1.376 . S
C775 C776 1.370 . S
C776 C775 1.370 . S
C776 C777 1.396 . S
C776 H798 0.929 . S
C777 C772 1.373 . S
C777 C776 1.396 . S
C777 H799 0.929 . S
C778 O788 1.240 . S
C778 O789 1.289 . S
C779 O790 1.258 . S
C779 O791 1.256 . S
O780 La760 2.521 . S
O780 C762 1.261 . S
O781 La760 2.628 . S
O781 C762 1.243 . S
O782 La760 2.554 . S
O782 C769 1.240 . S
O783 La760 2.757 . S
O783 La761 2.482 . S
O783 C769 1.289 . S
O784 La760 2.470 . S
O784 C770 1.258 . S
O785 La761 2.503 . S
O785 C770 1.256 . S
O786 La761 2.521 . S
O786 C771 1.261 . S
O787 La761 2.628 . S
O787 C771 1.243 . S
O788 La761 2.554 . S
O788 C778 1.240 . S
O789 La760 2.482 . S
O789 La761 2.757 . S
O789 C778 1.289 . S
O790 La761 2.470 . S
O790 C779 1.258 . S
O791 La760 2.503 . S
O791 C779 1.256 . S
H792 C764 0.930 . S
H793 C765 0.930 . S
H794 C767 0.929 . S
H795 C768 0.929 . S
H796 C773 0.930 . S
H797 C774 0.930 . S
H798 C776 0.929 . S
H799 C777 0.929 . S
La800 C802 2.928 . S
La800 O820 2.521 . S
La800 O821 2.628 . S
La800 O822 2.554 . S
La800 O823 2.757 . S
La800 O824 2.470 . S
La800 O829 2.482 . S
La800 O831 2.503 . S
La801 C811 2.928 . S
La801 O823 2.482 . S
La801 O825 2.503 . S
La801 O826 2.521 . S
La801 O827 2.628 . S
La801 O828 2.554 . S
La801 O829 2.757 . S
La801 O830 2.470 . S
C802 La800 2.928 . S
C802 C803 1.503 . S
C802 O820 1.261 . S
C802 O821 1.243 . S
C803 C802 1.503 . S
C803 C804 1.394 . S
C803 C808 1.373 . S
C804 C803 1.394 . S
C804 C805 1.380 . S
C804 H832 0.930 . S
C805 C804 1.380 . S
C805 C806 1.376 . S
C805 H833 0.930 . S
C806 C805 1.376 . S
C806 C807 1.370 . S
C807 C806 1.370 . S
C807 C808 1.396 . S
C807 H834 0.929 . S
C808 C803 1.373 . S
C808 C807 1.396 . S
C808 H835 0.929 . S
C809 O822 1.240 . S
C809 O823 1.289 . S
C810 O824 1.258 . S
C810 O825 1.256 . S
C811 La801 2.928 . S
C811 C812 1.503 . S
C811 O826 1.261 . S
C811 O827 1.243 . S
C812 C811 1.503 . S
C812 C813 1.394 . S
C812 C817 1.373 . S
C813 C812 1.394 . S
C813 C814 1.380 . S
C813 H836 0.930 . S
C814 C813 1.380 . S
C814 C815 1.386 . S
C814 H837 0.942 . S
C815 C814 1.386 . S
C815 C816 1.378 . S
C816 C815 1.378 . S
C816 C817 1.396 . S
C816 H838 0.929 . S
C817 C812 1.373 . S
C817 C816 1.396 . S
C817 H839 0.929 . S
C818 O828 1.240 . S
C818 O829 1.289 . S
C819 O830 1.258 . S
C819 O831 1.256 . S
O820 La800 2.521 . S
O820 C802 1.261 . S
O821 La800 2.628 . S
O821 C802 1.243 . S
O822 La800 2.554 . S
O822 C809 1.240 . S
O823 La800 2.757 . S
O823 La801 2.482 . S
O823 C809 1.289 . S
O824 La800 2.470 . S
O824 C810 1.258 . S
O825 La801 2.503 . S
O825 C810 1.256 . S
O826 La801 2.521 . S
O826 C811 1.261 . S
O827 La801 2.628 . S
O827 C811 1.243 . S
O828 La801 2.554 . S
O828 C818 1.240 . S
O829 La800 2.482 . S
O829 La801 2.757 . S
O829 C818 1.289 . S
O830 La801 2.470 . S
O830 C819 1.258 . S
O831 La800 2.503 . S
O831 C819 1.256 . S
H832 C804 0.930 . S
H833 C805 0.930 . S
H834 C807 0.929 . S
H835 C808 0.929 . S
H836 C813 0.930 . S
H837 C814 0.942 . S
H838 C816 0.929 . S
H839 C817 0.929 . S
La840 C842 2.928 . S
La840 O860 2.521 . S
La840 O861 2.628 . S
La840 O862 2.554 . S
La840 O863 2.757 . S
La840 O864 2.470 . S
La840 O869 2.482 . S
La840 O871 2.503 . S
La841 C851 2.928 . S
La841 O863 2.482 . S
La841 O865 2.503 . S
La841 O866 2.521 . S
La841 O867 2.628 . S
La841 O868 2.554 . S
La841 O869 2.757 . S
La841 O870 2.470 . S
C842 La840 2.928 . S
C842 C843 1.503 . S
C842 O860 1.261 . S
C842 O861 1.243 . S
C843 C842 1.503 . S
C843 C844 1.394 . S
C843 C848 1.373 . S
C844 C843 1.394 . S
C844 C845 1.380 . S
C844 H872 0.930 . S
C845 C844 1.380 . S
C845 C846 1.376 . S
C845 H873 0.930 . S
C846 C845 1.376 . S
C846 C847 1.370 . S
C847 C846 1.370 . S
C847 C848 1.396 . S
C847 H874 0.929 . S
C848 C843 1.373 . S
C848 C847 1.396 . S
C848 H875 0.929 . S
C849 O862 1.240 . S
C849 O863 1.289 . S
C850 O864 1.258 . S
C850 O865 1.256 . S
C851 La841 2.928 . S
C851 C852 1.503 . S
C851 O866 1.261 . S
C851 O867 1.243 . S
C852 C851 1.503 . S
C852 C853 1.394 . S
C852 C857 1.373 . S
C853 C852 1.394 . S
C853 C854 1.380 . S
C853 H876 0.930 . S
C854 C853 1.380 . S
C854 C855 1.376 . S
C854 H877 0.930 . S
C855 C854 1.376 . S
C855 C856 1.370 . S
C856 C855 1.370 . S
C856 C857 1.396 . S
C856 H878 0.929 . S
C857 C852 1.373 . S
C857 C856 1.396 . S
C857 H879 0.929 . S
C858 O868 1.240 . S
C858 O869 1.289 . S
C859 O870 1.258 . S
C859 O871 1.256 . S
O860 La840 2.521 . S
O860 C842 1.261 . S
O861 La840 2.628 . S
O861 C842 1.243 . S
O862 La840 2.554 . S
O862 C849 1.240 . S
O863 La840 2.757 . S
O863 La841 2.482 . S
O863 C849 1.289 . S
O864 La840 2.470 . S
O864 C850 1.258 . S
O865 La841 2.503 . S
O865 C850 1.256 . S
O866 La841 2.521 . S
O866 C851 1.261 . S
O867 La841 2.628 . S
O867 C851 1.243 . S
O868 La841 2.554 . S
O868 C858 1.240 . S
O869 La840 2.482 . S
O869 La841 2.757 . S
O869 C858 1.289 . S
O870 La841 2.470 . S
O870 C859 1.258 . S
O871 La840 2.503 . S
O871 C859 1.256 . S
H872 C844 0.930 . S
H873 C845 0.930 . S
H874 C847 0.929 . S
H875 C848 0.929 . S
H876 C853 0.930 . S
H877 C854 0.930 . S
H878 C856 0.929 . S
H879 C857 0.929 . S
La880 C882 2.928 . S
La880 O900 2.521 . S
La880 O901 2.628 . S
La880 O902 2.554 . S
La880 O903 2.757 . S
La880 O904 2.470 . S
La880 O909 2.482 . S
La880 O911 2.503 . S
La881 C891 2.928 . S
La881 O903 2.482 . S
La881 O905 2.503 . S
La881 O906 2.521 . S
La881 O907 2.628 . S
La881 O908 2.554 . S
La881 O909 2.757 . S
La881 O910 2.470 . S
C882 La880 2.928 . S
C882 C883 1.503 . S
C882 O900 1.261 . S
C882 O901 1.243 . S
C883 C882 1.503 . S
C883 C884 1.394 . S
C883 C888 1.373 . S
C884 C883 1.394 . S
C884 C885 1.380 . S
C884 H912 0.930 . S
C885 C884 1.380 . S
C885 C886 1.376 . S
C885 H913 0.930 . S
C886 C885 1.376 . S
C886 C887 1.370 . S
C887 C886 1.370 . S
C887 C888 1.396 . S
C887 H914 0.929 . S
C888 C883 1.373 . S
C888 C887 1.396 . S
C888 H915 0.929 . S
C889 O902 1.240 . S
C889 O903 1.289 . S
C890 O904 1.258 . S
C890 O905 1.256 . S
C891 La881 2.928 . S
C891 C892 1.503 . S
C891 O906 1.261 . S
C891 O907 1.243 . S
C892 C891 1.503 . S
C892 C893 1.394 . S
C892 C897 1.373 . S
C893 C892 1.394 . S
C893 C894 1.380 . S
C893 H916 0.930 . S
C894 C893 1.380 . S
C894 C895 1.376 . S
C894 H917 0.930 . S
C895 C894 1.376 . S
C895 C896 1.370 . S
C896 C895 1.370 . S
C896 C897 1.396 . S
C896 H918 0.929 . S
C897 C892 1.373 . S
C897 C896 1.396 . S
C897 H919 0.929 . S
C898 O908 1.240 . S
C898 O909 1.289 . S
C899 O910 1.258 . S
C899 O911 1.256 . S
O900 La880 2.521 . S
O900 C882 1.261 . S
O901 La880 2.628 . S
O901 C882 1.243 . S
O902 La880 2.554 . S
O902 C889 1.240 . S
O903 La880 2.757 . S
O903 La881 2.482 . S
O903 C889 1.289 . S
O904 La880 2.470 . S
O904 C890 1.258 . S
O905 La881 2.503 . S
O905 C890 1.256 . S
O906 La881 2.521 . S
O906 C891 1.261 . S
O907 La881 2.628 . S
O907 C891 1.243 . S
O908 La881 2.554 . S
O908 C898 1.240 . S
O909 La880 2.482 . S
O909 La881 2.757 . S
O909 C898 1.289 . S
O910 La881 2.470 . S
O910 C899 1.258 . S
O911 La880 2.503 . S
O911 C899 1.256 . S
H912 C884 0.930 . S
H913 C885 0.930 . S
H914 C887 0.929 . S
H915 C888 0.929 . S
H916 C893 0.930 . S
H917 C894 0.930 . S
H918 C896 0.929 . S
H919 C897 0.929 . S
La920 C922 2.928 . S
La920 O940 2.521 . S
La920 O941 2.628 . S
La920 O942 2.554 . S
La920 O943 2.757 . S
La920 O944 2.470 . S
La920 O949 2.482 . S
La920 O951 2.503 . S
La921 C931 2.928 . S
La921 O943 2.482 . S
La921 O945 2.503 . S
La921 O946 2.521 . S
La921 O947 2.628 . S
La921 O948 2.554 . S
La921 O949 2.757 . S
La921 O950 2.470 . S
C922 La920 2.928 . S
C922 C923 1.503 . S
C922 O940 1.261 . S
C922 O941 1.243 . S
C923 C922 1.503 . S
C923 C924 1.394 . S
C923 C928 1.373 . S
C924 C923 1.394 . S
C924 C925 1.380 . S
C924 H952 0.930 . S
C925 C924 1.380 . S
C925 C926 1.376 . S
C925 H953 0.930 . S
C926 C925 1.376 . S
C926 C927 1.370 . S
C927 C926 1.370 . S
C927 C928 1.396 . S
C927 H954 0.929 . S
C928 C923 1.373 . S
C928 C927 1.396 . S
C928 H955 0.929 . S
C929 O942 1.240 . S
C929 O943 1.289 . S
C930 O944 1.258 . S
C930 O945 1.256 . S
C931 La921 2.928 . S
C931 C932 1.503 . S
C931 O946 1.261 . S
C931 O947 1.243 . S
C932 C931 1.503 . S
C932 C933 1.394 . S
C932 C937 1.373 . S
C933 C932 1.394 . S
C933 C934 1.380 . S
C933 H956 0.930 . S
C934 C933 1.380 . S
C934 C935 1.376 . S
C934 H957 0.930 . S
C935 C934 1.376 . S
C935 C936 1.370 . S
C936 C935 1.370 . S
C936 C937 1.396 . S
C936 H958 0.929 . S
C937 C932 1.373 . S
C937 C936 1.396 . S
C937 H959 0.929 . S
C938 O948 1.240 . S
C938 O949 1.289 . S
C939 O950 1.258 . S
C939 O951 1.256 . S
O940 La920 2.521 . S
O940 C922 1.261 . S
O941 La920 2.628 . S
O941 C922 1.243 . S
O942 La920 2.554 . S
O942 C929 1.240 . S
O943 La920 2.757 . S
O943 La921 2.482 . S
O943 C929 1.289 . S
O944 La920 2.470 . S
O944 C930 1.258 . S
O945 La921 2.503 . S
O945 C930 1.256 . S
O946 La921 2.521 . S
O946 C931 1.261 . S
O947 La921 2.628 . S
O947 C931 1.243 . S
O948 La921 2.554 . S
O948 C938 1.240 . S
O949 La920 2.482 . S
O949 La921 2.757 . S
O949 C938 1.289 . S
O950 La921 2.470 . S
O950 C939 1.258 . S
O951 La920 2.503 . S
O951 C939 1.256 . S
H952 C924 0.930 . S
H953 C925 0.930 . S
H954 C927 0.929 . S
H955 C928 0.929 . S
H956 C933 0.930 . S
H957 C934 0.930 . S
H958 C936 0.929 . S
H959 C937 0.929 . S
La960 C962 2.928 . S
La960 O980 2.521 . S
La960 O981 2.628 . S
La960 O982 2.554 . S
La960 O983 2.757 . S
La960 O984 2.470 . S
La960 O989 2.482 . S
La960 O991 2.503 . S
La961 C971 2.928 . S
La961 O983 2.482 . S
La961 O985 2.503 . S
La961 O986 2.521 . S
La961 O987 2.628 . S
La961 O988 2.554 . S
La961 O989 2.757 . S
La961 O990 2.470 . S
C962 La960 2.928 . S
C962 C963 1.503 . S
C962 O980 1.261 . S
C962 O981 1.243 . S
C963 C962 1.503 . S
C963 C964 1.394 . S
C963 C968 1.373 . S
C964 C963 1.394 . S
C964 C965 1.380 . S
C964 H992 0.930 . S
C965 C964 1.380 . S
C965 C966 1.376 . S
C965 H993 0.930 . S
C966 C965 1.376 . S
C966 C967 1.370 . S
C967 C966 1.370 . S
C967 C968 1.396 . S
C967 H994 0.929 . S
C968 C963 1.373 . S
C968 C967 1.396 . S
C968 H995 0.929 . S
C969 O982 1.240 . S
C969 O983 1.289 . S
C970 O984 1.258 . S
C970 O985 1.256 . S
C971 La961 2.928 . S
C971 C972 1.503 . S
C971 O986 1.261 . S
C971 O987 1.243 . S
C972 C971 1.503 . S
C972 C973 1.394 . S
C972 C977 1.373 . S
C973 C972 1.394 . S
C973 C974 1.380 . S
C973 H996 0.930 . S
C974 C973 1.380 . S
C974 C975 1.376 . S
C974 H997 0.930 . S
C975 C974 1.376 . S
C975 C976 1.370 . S
C976 C975 1.370 . S
C976 C977 1.396 . S
C976 H998 0.929 . S
C977 C972 1.373 . S
C977 C976 1.396 . S
C977 H999 0.929 . S
C978 O988 1.240 . S
C978 O989 1.289 . S
C979 O990 1.258 . S
C979 O991 1.256 . S
O980 La960 2.521 . S
O980 C962 1.261 . S
O981 La960 2.628 . S
O981 C962 1.243 . S
O982 La960 2.554 . S
O982 C969 1.240 . S
O983 La960 2.757 . S
O983 La961 2.482 . S
O983 C969 1.289 . S
O984 La960 2.470 . S
O984 C970 1.258 . S
O985 La961 2.503 . S
O985 C970 1.256 . S
O986 La961 2.521 . S
O986 C971 1.261 . S
O987 La961 2.628 . S
O987 C971 1.243 . S
O988 La961 2.554 . S
O988 C978 1.240 . S
O989 La960 2.482 . S
O989 La961 2.757 . S
O989 C978 1.289 . S
O990 La961 2.470 . S
O990 C979 1.258 . S
O991 La960 2.503 . S
O991 C979 1.256 . S
H992 C964 0.930 . S
H993 C965 0.930 . S
H994 C967 0.929 . S
H995 C968 0.929 . S
H996 C973 0.930 . S
H997 C974 0.930 . S
H998 C976 0.929 . S
H999 C977 0.929 . S
La1000 C1002 2.928 . S
La1000 O1020 2.521 . S
La1000 O1021 2.628 . S
La1000 O1022 2.554 . S
La1000 O1023 2.757 . S
La1000 O1024 2.470 . S
La1000 O1029 2.482 . S
La1000 O1031 2.503 . S
La1001 C1011 2.928 . S
La1001 O1023 2.482 . S
La1001 O1025 2.503 . S
La1001 O1026 2.521 . S
La1001 O1027 2.628 . S
La1001 O1028 2.554 . S
La1001 O1029 2.757 . S
La1001 O1030 2.470 . S
C1002 La1000 2.928 . S
C1002 C1003 1.503 . S
C1002 O1020 1.261 . S
C1002 O1021 1.243 . S
C1003 C1002 1.503 . S
C1003 C1004 1.394 . S
C1003 C1008 1.373 . S
C1004 C1003 1.394 . S
C1004 C1005 1.380 . S
C1004 H1032 0.930 . S
C1005 C1004 1.380 . S
C1005 C1006 1.376 . S
C1005 H1033 0.939 . S
C1006 C1005 1.376 . S
C1006 C1007 1.377 . S
C1007 C1006 1.377 . S
C1007 C1008 1.396 . S
C1007 H1034 0.929 . S
C1008 C1003 1.373 . S
C1008 C1007 1.396 . S
C1008 H1035 0.929 . S
C1009 O1022 1.240 . S
C1009 O1023 1.289 . S
C1010 O1024 1.258 . S
C1010 O1025 1.256 . S
C1011 La1001 2.928 . S
C1011 C1012 1.503 . S
C1011 O1026 1.261 . S
C1011 O1027 1.243 . S
C1012 C1011 1.503 . S
C1012 C1013 1.394 . S
C1012 C1017 1.373 . S
C1013 C1012 1.394 . S
C1013 C1014 1.380 . S
C1013 H1036 0.930 . S
C1014 C1013 1.380 . S
C1014 C1015 1.376 . S
C1014 H1037 0.930 . S
C1015 C1014 1.376 . S
C1015 C1016 1.370 . S
C1016 C1015 1.370 . S
C1016 C1017 1.396 . S
C1016 H1038 0.929 . S
C1017 C1012 1.373 . S
C1017 C1016 1.396 . S
C1017 H1039 0.929 . S
C1018 O1028 1.240 . S
C1018 O1029 1.289 . S
C1019 O1030 1.258 . S
C1019 O1031 1.256 . S
O1020 La1000 2.521 . S
O1020 C1002 1.261 . S
O1021 La1000 2.628 . S
O1021 C1002 1.243 . S
O1022 La1000 2.554 . S
O1022 C1009 1.240 . S
O1023 La1000 2.757 . S
O1023 La1001 2.482 . S
O1023 C1009 1.289 . S
O1024 La1000 2.470 . S
O1024 C1010 1.258 . S
O1025 La1001 2.503 . S
O1025 C1010 1.256 . S
O1026 La1001 2.521 . S
O1026 C1011 1.261 . S
O1027 La1001 2.628 . S
O1027 C1011 1.243 . S
O1028 La1001 2.554 . S
O1028 C1018 1.240 . S
O1029 La1000 2.482 . S
O1029 La1001 2.757 . S
O1029 C1018 1.289 . S
O1030 La1001 2.470 . S
O1030 C1019 1.258 . S
O1031 La1000 2.503 . S
O1031 C1019 1.256 . S
H1032 C1004 0.930 . S
H1033 C1005 0.939 . S
H1034 C1007 0.929 . S
H1035 C1008 0.929 . S
H1036 C1013 0.930 . S
H1037 C1014 0.930 . S
H1038 C1016 0.929 . S
H1039 C1017 0.929 . S
La1040 C1042 2.928 . S
La1040 O1060 2.521 . S
La1040 O1061 2.628 . S
La1040 O1062 2.554 . S
La1040 O1063 2.757 . S
La1040 O1064 2.470 . S
La1040 O1069 2.482 . S
La1040 O1071 2.503 . S
La1041 C1051 2.928 . S
La1041 O1063 2.482 . S
La1041 O1065 2.503 . S
La1041 O1066 2.521 . S
La1041 O1067 2.628 . S
La1041 O1068 2.554 . S
La1041 O1069 2.757 . S
La1041 O1070 2.470 . S
C1042 La1040 2.928 . S
C1042 C1043 1.503 1_655 S
C1042 O1060 1.261 . S
C1042 O1061 1.243 . S
C1043 C1042 1.503 1_455 S
C1043 C1044 1.394 . S
C1043 C1048 1.373 . S
C1044 C1043 1.394 . S
C1044 C1045 1.380 . S
C1044 H1072 0.930 . S
C1045 C1044 1.380 . S
C1045 C1046 1.376 . S
C1045 H1073 0.930 . S
C1046 C1045 1.376 . S
C1046 C1047 1.370 . S
C1047 C1046 1.370 . S
C1047 C1048 1.396 . S
C1047 H1074 0.929 . S
C1048 C1043 1.373 . S
C1048 C1047 1.396 . S
C1048 H1075 0.929 . S
C1049 O1062 1.240 . S
C1049 O1063 1.289 . S
C1050 O1064 1.258 . S
C1050 O1065 1.256 . S
C1051 La1041 2.928 . S
C1051 C1052 1.503 . S
C1051 O1066 1.261 . S
C1051 O1067 1.243 . S
C1052 C1051 1.503 . S
C1052 C1053 1.394 . S
C1052 C1057 1.373 . S
C1053 C1052 1.394 . S
C1053 C1054 1.380 . S
C1053 H1076 0.930 . S
C1054 C1053 1.380 . S
C1054 C1055 1.376 . S
C1054 H1077 0.930 . S
C1055 C1054 1.376 . S
C1055 C1056 1.370 . S
C1056 C1055 1.370 . S
C1056 C1057 1.396 . S
C1056 H1078 0.929 . S
C1057 C1052 1.373 . S
C1057 C1056 1.396 . S
C1057 H1079 0.929 . S
C1058 O1068 1.240 . S
C1058 O1069 1.289 . S
C1059 O1070 1.258 . S
C1059 O1071 1.256 . S
O1060 La1040 2.521 . S
O1060 C1042 1.261 . S
O1061 La1040 2.628 . S
O1061 C1042 1.243 . S
O1062 La1040 2.554 . S
O1062 C1049 1.240 . S
O1063 La1040 2.757 . S
O1063 La1041 2.482 . S
O1063 C1049 1.289 . S
O1064 La1040 2.470 . S
O1064 C1050 1.258 . S
O1065 La1041 2.503 . S
O1065 C1050 1.256 . S
O1066 La1041 2.521 . S
O1066 C1051 1.261 . S
O1067 La1041 2.628 . S
O1067 C1051 1.243 . S
O1068 La1041 2.554 . S
O1068 C1058 1.240 . S
O1069 La1040 2.482 . S
O1069 La1041 2.757 . S
O1069 C1058 1.289 . S
O1070 La1041 2.470 . S
O1070 C1059 1.258 . S
O1071 La1040 2.503 . S
O1071 C1059 1.256 . S
H1072 C1044 0.930 . S
H1073 C1045 0.930 . S
H1074 C1047 0.929 . S
H1075 C1048 0.929 . S
H1076 C1053 0.930 . S
H1077 C1054 0.930 . S
H1078 C1056 0.929 . S
H1079 C1057 0.929 . S
La1080 C1082 2.928 . S
La1080 O1100 2.521 . S
La1080 O1101 2.628 . S
La1080 O1102 2.554 . S
La1080 O1103 2.757 . S
La1080 O1104 2.470 . S
La1080 O1109 2.482 . S
La1080 O1111 2.503 . S
La1081 C1091 2.928 . S
La1081 O1103 2.482 . S
La1081 O1105 2.503 . S
La1081 O1106 2.521 . S
La1081 O1107 2.628 . S
La1081 O1108 2.554 . S
La1081 O1109 2.757 . S
La1081 O1110 2.470 . S
C1082 La1080 2.928 . S
C1082 C1083 1.503 . S
C1082 O1100 1.261 . S
C1082 O1101 1.243 . S
C1083 C1082 1.503 . S
C1083 C1084 1.394 . S
C1083 C1088 1.373 . S
C1084 C1083 1.394 . S
C1084 C1085 1.380 . S
C1084 H1112 0.930 . S
C1085 C1084 1.380 . S
C1085 C1086 1.376 . S
C1085 H1113 0.930 . S
C1086 C1085 1.376 . S
C1086 C1087 1.370 . S
C1087 C1086 1.370 . S
C1087 C1088 1.396 . S
C1087 H1114 0.929 . S
C1088 C1083 1.373 . S
C1088 C1087 1.396 . S
C1088 H1115 0.929 . S
C1089 O1102 1.240 . S
C1089 O1103 1.289 . S
C1090 O1104 1.258 . S
C1090 O1105 1.256 . S
C1091 La1081 2.928 . S
C1091 C1092 1.503 . S
C1091 O1106 1.261 . S
C1091 O1107 1.243 . S
C1092 C1091 1.503 . S
C1092 C1093 1.394 . S
C1092 C1097 1.373 . S
C1093 C1092 1.394 . S
C1093 C1094 1.380 . S
C1093 H1116 0.930 . S
C1094 C1093 1.380 . S
C1094 C1095 1.376 . S
C1094 H1117 0.930 . S
C1095 C1094 1.376 . S
C1095 C1096 1.370 . S
C1096 C1095 1.370 . S
C1096 C1097 1.396 . S
C1096 H1118 0.929 . S
C1097 C1092 1.373 . S
C1097 C1096 1.396 . S
C1097 H1119 0.929 . S
C1098 O1108 1.240 . S
C1098 O1109 1.289 . S
C1099 O1110 1.258 . S
C1099 O1111 1.256 . S
O1100 La1080 2.521 . S
O1100 C1082 1.261 . S
O1101 La1080 2.628 . S
O1101 C1082 1.243 . S
O1102 La1080 2.554 . S
O1102 C1089 1.240 . S
O1103 La1080 2.757 . S
O1103 La1081 2.482 . S
O1103 C1089 1.289 . S
O1104 La1080 2.470 . S
O1104 C1090 1.258 . S
O1105 La1081 2.503 . S
O1105 C1090 1.256 . S
O1106 La1081 2.521 . S
O1106 C1091 1.261 . S
O1107 La1081 2.628 . S
O1107 C1091 1.243 . S
O1108 La1081 2.554 . S
O1108 C1098 1.240 . S
O1109 La1080 2.482 . S
O1109 La1081 2.757 . S
O1109 C1098 1.289 . S
O1110 La1081 2.470 . S
O1110 C1099 1.258 . S
O1111 La1080 2.503 . S
O1111 C1099 1.256 . S
H1112 C1084 0.930 . S
H1113 C1085 0.930 . S
H1114 C1087 0.929 . S
H1115 C1088 0.929 . S
H1116 C1093 0.930 . S
H1117 C1094 0.930 . S
H1118 C1096 0.929 . S
H1119 C1097 0.929 . S
La1120 C1122 2.928 . S
La1120 O1140 2.521 . S
La1120 O1141 2.628 . S
La1120 O1142 2.554 . S
La1120 O1143 2.757 . S
La1120 O1144 2.470 . S
La1120 O1149 2.482 . S
La1120 O1151 2.503 . S
La1121 C1131 2.928 . S
La1121 O1143 2.482 . S
La1121 O1145 2.503 . S
La1121 O1146 2.521 . S
La1121 O1147 2.628 . S
La1121 O1148 2.554 . S
La1121 O1149 2.757 . S
La1121 O1150 2.470 . S
C1122 La1120 2.928 . S
C1122 C1123 1.503 . S
C1122 O1140 1.261 . S
C1122 O1141 1.243 . S
C1123 C1122 1.503 . S
C1123 C1124 1.394 . S
C1123 C1128 1.373 . S
C1124 C1123 1.394 . S
C1124 C1125 1.380 . S
C1124 H1152 0.930 . S
C1125 C1124 1.380 . S
C1125 C1126 1.376 . S
C1125 H1153 0.930 . S
C1126 C1125 1.376 . S
C1126 C1127 1.370 . S
C1127 C1126 1.370 . S
C1127 C1128 1.396 . S
C1127 H1154 0.929 . S
C1128 C1123 1.373 . S
C1128 C1127 1.396 . S
C1128 H1155 0.929 . S
C1129 O1142 1.240 . S
C1129 O1143 1.289 . S
C1130 O1144 1.258 . S
C1130 O1145 1.256 . S
C1131 La1121 2.928 . S
C1131 C1132 1.503 . S
C1131 O1146 1.261 . S
C1131 O1147 1.243 . S
C1132 C1131 1.503 . S
C1132 C1133 1.394 . S
C1132 C1137 1.373 . S
C1133 C1132 1.394 . S
C1133 C1134 1.380 . S
C1133 H1156 0.930 . S
C1134 C1133 1.380 . S
C1134 C1135 1.376 . S
C1134 H1157 0.930 . S
C1135 C1134 1.376 . S
C1135 C1136 1.370 . S
C1136 C1135 1.370 . S
C1136 C1137 1.396 . S
C1136 H1158 0.929 . S
C1137 C1132 1.373 . S
C1137 C1136 1.396 . S
C1137 H1159 0.929 . S
C1138 O1148 1.240 . S
C1138 O1149 1.289 . S
C1139 O1150 1.258 . S
C1139 O1151 1.256 . S
O1140 La1120 2.521 . S
O1140 C1122 1.261 . S
O1141 La1120 2.628 . S
O1141 C1122 1.243 . S
O1142 La1120 2.554 . S
O1142 C1129 1.240 . S
O1143 La1120 2.757 . S
O1143 La1121 2.482 . S
O1143 C1129 1.289 . S
O1144 La1120 2.470 . S
O1144 C1130 1.258 . S
O1145 La1121 2.503 . S
O1145 C1130 1.256 . S
O1146 La1121 2.521 . S
O1146 C1131 1.261 . S
O1147 La1121 2.628 . S
O1147 C1131 1.243 . S
O1148 La1121 2.554 . S
O1148 C1138 1.240 . S
O1149 La1120 2.482 . S
O1149 La1121 2.757 . S
O1149 C1138 1.289 . S
O1150 La1121 2.470 . S
O1150 C1139 1.258 . S
O1151 La1120 2.503 . S
O1151 C1139 1.256 . S
H1152 C1124 0.930 . S
H1153 C1125 0.930 . S
H1154 C1127 0.929 . S
H1155 C1128 0.929 . S
H1156 C1133 0.930 . S
H1157 C1134 0.930 . S
H1158 C1136 0.929 . S
H1159 C1137 0.929 . S
La1160 C1162 2.928 . S
La1160 O1180 2.521 . S
La1160 O1181 2.628 . S
La1160 O1182 2.554 . S
La1160 O1183 2.757 . S
La1160 O1184 2.470 . S
La1160 O1189 2.482 . S
La1160 O1191 2.503 . S
La1161 C1171 2.928 . S
La1161 O1183 2.482 . S
La1161 O1185 2.503 . S
La1161 O1186 2.521 . S
La1161 O1187 2.628 . S
La1161 O1188 2.554 . S
La1161 O1189 2.757 . S
La1161 O1190 2.470 . S
C1162 La1160 2.928 . S
C1162 C1163 1.503 . S
C1162 O1180 1.261 . S
C1162 O1181 1.243 . S
C1163 C1162 1.503 . S
C1163 C1164 1.394 . S
C1163 C1168 1.373 . S
C1164 C1163 1.394 . S
C1164 C1165 1.380 . S
C1164 H1192 0.930 . S
C1165 C1164 1.380 . S
C1165 C1166 1.376 . S
C1165 H1193 0.930 . S
C1166 C1165 1.376 . S
C1166 C1167 1.370 . S
C1167 C1166 1.370 . S
C1167 C1168 1.396 . S
C1167 H1194 0.929 . S
C1168 C1163 1.373 . S
C1168 C1167 1.396 . S
C1168 H1195 0.929 . S
C1169 O1182 1.240 . S
C1169 O1183 1.289 . S
C1170 O1184 1.258 . S
C1170 O1185 1.256 . S
C1171 La1161 2.928 . S
C1171 C1172 1.503 . S
C1171 O1186 1.261 . S
C1171 O1187 1.243 . S
C1172 C1171 1.503 . S
C1172 C1173 1.394 . S
C1172 C1177 1.373 . S
C1173 C1172 1.394 . S
C1173 C1174 1.380 . S
C1173 H1196 0.930 . S
C1174 C1173 1.380 . S
C1174 C1175 1.376 . S
C1174 H1197 0.930 . S
C1175 C1174 1.376 . S
C1175 C1176 1.370 . S
C1176 C1175 1.370 . S
C1176 C1177 1.396 . S
C1176 H1198 0.929 . S
C1177 C1172 1.373 . S
C1177 C1176 1.396 . S
C1177 H1199 0.929 . S
C1178 O1188 1.240 . S
C1178 O1189 1.289 . S
C1179 O1190 1.258 . S
C1179 O1191 1.256 . S
O1180 La1160 2.521 . S
O1180 C1162 1.261 . S
O1181 La1160 2.628 . S
O1181 C1162 1.243 . S
O1182 La1160 2.554 . S
O1182 C1169 1.240 . S
O1183 La1160 2.757 . S
O1183 La1161 2.482 . S
O1183 C1169 1.289 . S
O1184 La1160 2.470 . S
O1184 C1170 1.258 . S
O1185 La1161 2.503 . S
O1185 C1170 1.256 . S
O1186 La1161 2.521 . S
O1186 C1171 1.261 . S
O1187 La1161 2.628 . S
O1187 C1171 1.243 . S
O1188 La1161 2.554 . S
O1188 C1178 1.240 . S
O1189 La1160 2.482 . S
O1189 La1161 2.757 . S
O1189 C1178 1.289 . S
O1190 La1161 2.470 . S
O1190 C1179 1.258 . S
O1191 La1160 2.503 . S
O1191 C1179 1.256 . S
H1192 C1164 0.930 . S
H1193 C1165 0.930 . S
H1194 C1167 0.929 . S
H1195 C1168 0.929 . S
H1196 C1173 0.930 . S
H1197 C1174 0.930 . S
H1198 C1176 0.929 . S
H1199 C1177 0.929 . S
La1200 C1202 2.928 . S
La1200 O1220 2.521 . S
La1200 O1221 2.628 . S
La1200 O1222 2.554 . S
La1200 O1223 2.757 . S
La1200 O1224 2.470 . S
La1200 O1229 2.482 . S
La1200 O1231 2.503 . S
La1201 C1211 2.928 . S
La1201 O1223 2.482 . S
La1201 O1225 2.503 . S
La1201 O1226 2.521 . S
La1201 O1227 2.628 . S
La1201 O1228 2.554 . S
La1201 O1229 2.757 . S
La1201 O1230 2.470 . S
C1202 La1200 2.928 . S
C1202 C1203 1.503 . S
C1202 O1220 1.261 . S
C1202 O1221 1.243 . S
C1203 C1202 1.503 . S
C1203 C1204 1.394 . S
C1203 C1208 1.373 . S
C1204 C1203 1.394 . S
C1204 C1205 1.380 . S
C1204 H1232 0.930 . S
C1205 C1204 1.380 . S
C1205 C1206 1.376 . S
C1205 H1233 0.930 . S
C1206 C1205 1.376 . S
C1206 C1207 1.370 . S
C1207 C1206 1.370 . S
C1207 C1208 1.396 . S
C1207 H1234 0.929 . S
C1208 C1203 1.373 . S
C1208 C1207 1.396 . S
C1208 H1235 0.929 . S
C1209 O1222 1.240 . S
C1209 O1223 1.289 . S
C1210 O1224 1.258 . S
C1210 O1225 1.256 . S
C1211 La1201 2.928 . S
C1211 C1212 1.503 . S
C1211 O1226 1.261 . S
C1211 O1227 1.243 . S
C1212 C1211 1.503 . S
C1212 C1213 1.394 . S
C1212 C1217 1.373 . S
C1213 C1212 1.394 . S
C1213 C1214 1.380 . S
C1213 H1236 0.930 . S
C1214 C1213 1.380 . S
C1214 C1215 1.376 . S
C1214 H1237 0.930 . S
C1215 C1214 1.376 . S
C1215 C1216 1.370 . S
C1216 C1215 1.370 . S
C1216 C1217 1.396 . S
C1216 H1238 0.929 . S
C1217 C1212 1.373 . S
C1217 C1216 1.396 . S
C1217 H1239 0.929 . S
C1218 O1228 1.240 . S
C1218 O1229 1.289 . S
C1219 O1230 1.258 . S
C1219 O1231 1.256 . S
O1220 La1200 2.521 . S
O1220 C1202 1.261 . S
O1221 La1200 2.628 . S
O1221 C1202 1.243 . S
O1222 La1200 2.554 . S
O1222 C1209 1.240 . S
O1223 La1200 2.757 . S
O1223 La1201 2.482 . S
O1223 C1209 1.289 . S
O1224 La1200 2.470 . S
O1224 C1210 1.258 . S
O1225 La1201 2.503 . S
O1225 C1210 1.256 . S
O1226 La1201 2.521 . S
O1226 C1211 1.261 . S
O1227 La1201 2.628 . S
O1227 C1211 1.243 . S
O1228 La1201 2.554 . S
O1228 C1218 1.240 . S
O1229 La1200 2.482 . S
O1229 La1201 2.757 . S
O1229 C1218 1.289 . S
O1230 La1201 2.470 . S
O1230 C1219 1.258 . S
O1231 La1200 2.503 . S
O1231 C1219 1.256 . S
H1232 C1204 0.930 . S
H1233 C1205 0.930 . S
H1234 C1207 0.929 . S
H1235 C1208 0.929 . S
H1236 C1213 0.930 . S
H1237 C1214 0.930 . S
H1238 C1216 0.929 . S
H1239 C1217 0.929 . S
La1240 C1242 2.928 . S
La1240 O1260 2.521 . S
La1240 O1261 2.628 . S
La1240 O1262 2.554 . S
La1240 O1263 2.757 . S
La1240 O1264 2.470 . S
La1240 O1269 2.482 . S
La1240 O1271 2.503 . S
La1241 C1251 2.928 . S
La1241 O1263 2.482 . S
La1241 O1265 2.503 . S
La1241 O1266 2.521 . S
La1241 O1267 2.628 . S
La1241 O1268 2.554 . S
La1241 O1269 2.757 . S
La1241 O1270 2.470 . S
C1242 La1240 2.928 . S
C1242 C1243 1.503 . S
C1242 O1260 1.261 . S
C1242 O1261 1.243 . S
C1243 C1242 1.503 . S
C1243 C1244 1.394 . S
C1243 C1248 1.373 . S
C1244 C1243 1.394 . S
C1244 C1245 1.380 . S
C1244 H1272 0.930 . S
C1245 C1244 1.380 . S
C1245 C1246 1.376 . S
C1245 H1273 0.930 . S
C1246 C1245 1.376 . S
C1246 C1247 1.370 . S
C1247 C1246 1.370 . S
C1247 C1248 1.396 . S
C1247 H1274 0.929 . S
C1248 C1243 1.373 . S
C1248 C1247 1.396 . S
C1248 H1275 0.929 . S
C1249 O1262 1.240 . S
C1249 O1263 1.289 . S
C1250 O1264 1.258 . S
C1250 O1265 1.256 . S
C1251 La1241 2.928 . S
C1251 C1252 1.503 . S
C1251 O1266 1.261 . S
C1251 O1267 1.243 . S
C1252 C1251 1.503 . S
C1252 C1253 1.394 . S
C1252 C1257 1.373 . S
C1253 C1252 1.394 . S
C1253 C1254 1.380 . S
C1253 H1276 0.930 . S
C1254 C1253 1.380 . S
C1254 C1255 1.376 . S
C1254 H1277 0.930 . S
C1255 C1254 1.376 . S
C1255 C1256 1.370 . S
C1256 C1255 1.370 . S
C1256 C1257 1.396 . S
C1256 H1278 0.929 . S
C1257 C1252 1.373 . S
C1257 C1256 1.396 . S
C1257 H1279 0.929 . S
C1258 O1268 1.240 . S
C1258 O1269 1.289 . S
C1259 O1270 1.258 . S
C1259 O1271 1.256 . S
O1260 La1240 2.521 . S
O1260 C1242 1.261 . S
O1261 La1240 2.628 . S
O1261 C1242 1.243 . S
O1262 La1240 2.554 . S
O1262 C1249 1.240 . S
O1263 La1240 2.757 . S
O1263 La1241 2.482 . S
O1263 C1249 1.289 . S
O1264 La1240 2.470 . S
O1264 C1250 1.258 . S
O1265 La1241 2.503 . S
O1265 C1250 1.256 . S
O1266 La1241 2.521 . S
O1266 C1251 1.261 . S
O1267 La1241 2.628 . S
O1267 C1251 1.243 . S
O1268 La1241 2.554 . S
O1268 C1258 1.240 . S
O1269 La1240 2.482 . S
O1269 La1241 2.757 . S
O1269 C1258 1.289 . S
O1270 La1241 2.470 . S
O1270 C1259 1.258 . S
O1271 La1240 2.503 . S
O1271 C1259 1.256 . S
H1272 C1244 0.930 . S
H1273 C1245 0.930 . S
H1274 C1247 0.929 . S
H1275 C1248 0.929 . S
H1276 C1253 0.930 . S
H1277 C1254 0.930 . S
H1278 C1256 0.929 . S
H1279 C1257 0.929 . S
La1280 C1282 2.928 . S
La1280 O1300 2.521 . S
La1280 O1301 2.628 . S
La1280 O1302 2.554 . S
La1280 O1303 2.757 . S
La1280 O1304 2.470 . S
La1280 O1309 2.482 . S
La1280 O1311 2.503 . S
La1281 C1291 2.928 . S
La1281 O1303 2.482 . S
La1281 O1305 2.503 . S
La1281 O1306 2.521 . S
La1281 O1307 2.628 . S
La1281 O1308 2.554 . S
La1281 O1309 2.757 . S
La1281 O1310 2.470 . S
C1282 La1280 2.928 . S
C1282 C1283 1.503 . S
C1282 O1300 1.261 . S
C1282 O1301 1.243 . S
C1283 C1282 1.503 . S
C1283 C1284 1.394 . S
C1283 C1288 1.373 . S
C1284 C1283 1.394 . S
C1284 C1285 1.380 . S
C1284 H1312 0.930 . S
C1285 C1284 1.380 . S
C1285 C1286 1.376 . S
C1285 H1313 0.930 . S
C1286 C1285 1.376 . S
C1286 C1287 1.370 . S
C1287 C1286 1.370 . S
C1287 C1288 1.396 . S
C1287 H1314 0.929 . S
C1288 C1283 1.373 . S
C1288 C1287 1.396 . S
C1288 H1315 0.929 . S
C1289 O1302 1.240 . S
C1289 O1303 1.289 . S
C1290 O1304 1.258 . S
C1290 O1305 1.256 . S
C1291 La1281 2.928 . S
C1291 C1292 1.503 . S
C1291 O1306 1.261 . S
C1291 O1307 1.243 . S
C1292 C1291 1.503 . S
C1292 C1293 1.394 . S
C1292 C1297 1.373 . S
C1293 C1292 1.394 . S
C1293 C1294 1.380 . S
C1293 H1316 0.930 . S
C1294 C1293 1.380 . S
C1294 C1295 1.376 . S
C1294 H1317 0.930 . S
C1295 C1294 1.376 . S
C1295 C1296 1.370 . S
C1296 C1295 1.370 . S
C1296 C1297 1.396 . S
C1296 H1318 0.929 . S
C1297 C1292 1.373 . S
C1297 C1296 1.396 . S
C1297 H1319 0.929 . S
C1298 O1308 1.240 . S
C1298 O1309 1.289 . S
C1299 O1310 1.258 . S
C1299 O1311 1.256 . S
O1300 La1280 2.521 . S
O1300 C1282 1.261 . S
O1301 La1280 2.628 . S
O1301 C1282 1.243 . S
O1302 La1280 2.554 . S
O1302 C1289 1.240 . S
O1303 La1280 2.757 . S
O1303 La1281 2.482 . S
O1303 C1289 1.289 . S
O1304 La1280 2.470 . S
O1304 C1290 1.258 . S
O1305 La1281 2.503 . S
O1305 C1290 1.256 . S
O1306 La1281 2.521 . S
O1306 C1291 1.261 . S
O1307 La1281 2.628 . S
O1307 C1291 1.243 . S
O1308 La1281 2.554 . S
O1308 C1298 1.240 . S
O1309 La1280 2.482 . S
O1309 La1281 2.757 . S
O1309 C1298 1.289 . S
O1310 La1281 2.470 . S
O1310 C1299 1.258 . S
O1311 La1280 2.503 . S
O1311 C1299 1.256 . S
H1312 C1284 0.930 . S
H1313 C1285 0.930 . S
H1314 C1287 0.929 . S
H1315 C1288 0.929 . S
H1316 C1293 0.930 . S
H1317 C1294 0.930 . S
H1318 C1296 0.929 . S
H1319 C1297 0.929 . S
La1320 C1322 2.928 . S
La1320 O1340 2.521 . S
La1320 O1341 2.628 . S
La1320 O1342 2.554 . S
La1320 O1343 2.757 . S
La1320 O1344 2.470 . S
La1320 O1349 2.482 . S
La1320 O1351 2.503 . S
La1321 C1331 2.928 . S
La1321 O1343 2.482 . S
La1321 O1345 2.503 . S
La1321 O1346 2.521 . S
La1321 O1347 2.628 . S
La1321 O1348 2.554 . S
La1321 O1349 2.757 . S
La1321 O1350 2.470 . S
C1322 La1320 2.928 . S
C1322 C1323 1.503 . S
C1322 O1340 1.261 . S
C1322 O1341 1.243 . S
C1323 C1322 1.503 . S
C1323 C1324 1.394 . S
C1323 C1328 1.373 . S
C1324 C1323 1.394 . S
C1324 C1325 1.380 . S
C1324 H1352 0.930 . S
C1325 C1324 1.380 . S
C1325 C1326 1.376 . S
C1325 H1353 0.930 . S
C1326 C1325 1.376 . S
C1326 C1327 1.370 . S
C1327 C1326 1.370 . S
C1327 C1328 1.396 . S
C1327 H1354 0.929 . S
C1328 C1323 1.373 . S
C1328 C1327 1.396 . S
C1328 H1355 0.929 . S
C1329 O1342 1.240 . S
C1329 O1343 1.289 . S
C1330 O1344 1.258 . S
C1330 O1345 1.256 . S
C1331 La1321 2.928 . S
C1331 C1332 1.503 . S
C1331 O1346 1.261 . S
C1331 O1347 1.243 . S
C1332 C1331 1.503 . S
C1332 C1333 1.394 . S
C1332 C1337 1.373 . S
C1333 C1332 1.394 . S
C1333 C1334 1.380 . S
C1333 H1356 0.930 . S
C1334 C1333 1.380 . S
C1334 C1335 1.376 . S
C1334 H1357 0.930 . S
C1335 C1334 1.376 . S
C1335 C1336 1.370 . S
C1336 C1335 1.370 . S
C1336 C1337 1.396 . S
C1336 H1358 0.929 . S
C1337 C1332 1.373 . S
C1337 C1336 1.396 . S
C1337 H1359 0.929 . S
C1338 O1348 1.240 . S
C1338 O1349 1.289 . S
C1339 O1350 1.258 . S
C1339 O1351 1.256 . S
O1340 La1320 2.521 . S
O1340 C1322 1.261 . S
O1341 La1320 2.628 . S
O1341 C1322 1.243 . S
O1342 La1320 2.554 . S
O1342 C1329 1.240 . S
O1343 La1320 2.757 . S
O1343 La1321 2.482 . S
O1343 C1329 1.289 . S
O1344 La1320 2.470 . S
O1344 C1330 1.258 . S
O1345 La1321 2.503 . S
O1345 C1330 1.256 . S
O1346 La1321 2.521 . S
O1346 C1331 1.261 . S
O1347 La1321 2.628 . S
O1347 C1331 1.243 . S
O1348 La1321 2.554 . S
O1348 C1338 1.240 . S
O1349 La1320 2.482 . S
O1349 La1321 2.757 . S
O1349 C1338 1.289 . S
O1350 La1321 2.470 . S
O1350 C1339 1.258 . S
O1351 La1320 2.503 . S
O1351 C1339 1.256 . S
H1352 C1324 0.930 . S
H1353 C1325 0.930 . S
H1354 C1327 0.929 . S
H1355 C1328 0.929 . S
H1356 C1333 0.930 . S
H1357 C1334 0.930 . S
H1358 C1336 0.929 . S
H1359 C1337 0.929 . S
La1360 C1362 2.928 . S
La1360 O1380 2.521 . S
La1360 O1381 2.628 . S
La1360 O1382 2.554 . S
La1360 O1383 2.757 . S
La1360 O1384 2.470 . S
La1360 O1389 2.482 . S
La1360 O1391 2.503 . S
La1361 C1371 2.928 . S
La1361 O1383 2.482 . S
La1361 O1385 2.503 . S
La1361 O1386 2.521 . S
La1361 O1387 2.628 . S
La1361 O1388 2.554 . S
La1361 O1389 2.757 . S
La1361 O1390 2.470 . S
C1362 La1360 2.928 . S
C1362 C1363 1.503 . S
C1362 O1380 1.261 . S
C1362 O1381 1.243 . S
C1363 C1362 1.503 . S
C1363 C1364 1.394 . S
C1363 C1368 1.373 . S
C1364 C1363 1.394 . S
C1364 C1365 1.380 . S
C1364 H1392 0.930 . S
C1365 C1364 1.380 . S
C1365 C1366 1.376 . S
C1365 H1393 0.930 . S
C1366 C1365 1.376 . S
C1366 C1367 1.370 . S
C1367 C1366 1.370 . S
C1367 C1368 1.396 . S
C1367 H1394 0.929 . S
C1368 C1363 1.373 . S
C1368 C1367 1.396 . S
C1368 H1395 0.929 . S
C1369 O1382 1.240 . S
C1369 O1383 1.289 . S
C1370 O1384 1.258 . S
C1370 O1385 1.256 . S
C1371 La1361 2.928 . S
C1371 C1372 1.503 . S
C1371 O1386 1.261 . S
C1371 O1387 1.243 . S
C1372 C1371 1.503 . S
C1372 C1373 1.394 . S
C1372 C1377 1.373 . S
C1373 C1372 1.394 . S
C1373 C1374 1.380 . S
C1373 H1396 0.930 . S
C1374 C1373 1.380 . S
C1374 C1375 1.386 . S
C1374 H1397 0.942 . S
C1375 C1374 1.386 . S
C1375 C1376 1.378 . S
C1376 C1375 1.378 . S
C1376 C1377 1.396 . S
C1376 H1398 0.929 . S
C1377 C1372 1.373 . S
C1377 C1376 1.396 . S
C1377 H1399 0.929 . S
C1378 O1388 1.240 . S
C1378 O1389 1.289 . S
C1379 O1390 1.258 . S
C1379 O1391 1.256 . S
O1380 La1360 2.521 . S
O1380 C1362 1.261 . S
O1381 La1360 2.628 . S
O1381 C1362 1.243 . S
O1382 La1360 2.554 . S
O1382 C1369 1.240 . S
O1383 La1360 2.757 . S
O1383 La1361 2.482 . S
O1383 C1369 1.289 . S
O1384 La1360 2.470 . S
O1384 C1370 1.258 . S
O1385 La1361 2.503 . S
O1385 C1370 1.256 . S
O1386 La1361 2.521 . S
O1386 C1371 1.261 . S
O1387 La1361 2.628 . S
O1387 C1371 1.243 . S
O1388 La1361 2.554 . S
O1388 C1378 1.240 . S
O1389 La1360 2.482 . S
O1389 La1361 2.757 . S
O1389 C1378 1.289 . S
O1390 La1361 2.470 . S
O1390 C1379 1.258 . S
O1391 La1360 2.503 . S
O1391 C1379 1.256 . S
H1392 C1364 0.930 . S
H1393 C1365 0.930 . S
H1394 C1367 0.929 . S
H1395 C1368 0.929 . S
H1396 C1373 0.930 . S
H1397 C1374 0.942 . S
H1398 C1376 0.929 . S
H1399 C1377 0.929 . S
La1400 C1402 2.928 . S
La1400 O1420 2.521 . S
La1400 O1421 2.628 . S
La1400 O1422 2.554 . S
La1400 O1423 2.757 . S
La1400 O1424 2.470 . S
La1400 O1429 2.482 . S
La1400 O1431 2.503 . S
La1401 C1411 2.928 . S
La1401 O1423 2.482 . S
La1401 O1425 2.503 . S
La1401 O1426 2.521 . S
La1401 O1427 2.628 . S
La1401 O1428 2.554 . S
La1401 O1429 2.757 . S
La1401 O1430 2.470 . S
C1402 La1400 2.928 . S
C1402 C1403 1.503 . S
C1402 O1420 1.261 . S
C1402 O1421 1.243 . S
C1403 C1402 1.503 . S
C1403 C1404 1.394 . S
C1403 C1408 1.373 . S
C1404 C1403 1.394 . S
C1404 C1405 1.380 . S
C1404 H1432 0.930 . S
C1405 C1404 1.380 . S
C1405 C1406 1.376 . S
C1405 H1433 0.930 . S
C1406 C1405 1.376 . S
C1406 C1407 1.370 . S
C1407 C1406 1.370 . S
C1407 C1408 1.396 . S
C1407 H1434 0.929 . S
C1408 C1403 1.373 . S
C1408 C1407 1.396 . S
C1408 H1435 0.929 . S
C1409 O1422 1.240 . S
C1409 O1423 1.289 . S
C1410 O1424 1.258 . S
C1410 O1425 1.256 . S
C1411 La1401 2.928 . S
C1411 C1412 1.503 1_655 S
C1411 O1426 1.261 . S
C1411 O1427 1.243 . S
C1412 C1411 1.503 1_455 S
C1412 C1413 1.394 . S
C1412 C1417 1.373 . S
C1413 C1412 1.394 . S
C1413 C1414 1.380 . S
C1413 H1436 0.930 . S
C1414 C1413 1.380 . S
C1414 C1415 1.376 . S
C1414 H1437 0.930 . S
C1415 C1414 1.376 . S
C1415 C1416 1.370 . S
C1416 C1415 1.370 . S
C1416 C1417 1.396 . S
C1416 H1438 0.929 . S
C1417 C1412 1.373 . S
C1417 C1416 1.396 . S
C1417 H1439 0.929 . S
C1418 O1428 1.240 . S
C1418 O1429 1.289 . S
C1419 O1430 1.258 . S
C1419 O1431 1.256 . S
O1420 La1400 2.521 . S
O1420 C1402 1.261 . S
O1421 La1400 2.628 . S
O1421 C1402 1.243 . S
O1422 La1400 2.554 . S
O1422 C1409 1.240 . S
O1423 La1400 2.757 . S
O1423 La1401 2.482 . S
O1423 C1409 1.289 . S
O1424 La1400 2.470 . S
O1424 C1410 1.258 . S
O1425 La1401 2.503 . S
O1425 C1410 1.256 . S
O1426 La1401 2.521 . S
O1426 C1411 1.261 . S
O1427 La1401 2.628 . S
O1427 C1411 1.243 . S
O1428 La1401 2.554 . S
O1428 C1418 1.240 . S
O1429 La1400 2.482 . S
O1429 La1401 2.757 . S
O1429 C1418 1.289 . S
O1430 La1401 2.470 . S
O1430 C1419 1.258 . S
O1431 La1400 2.503 . S
O1431 C1419 1.256 . S
H1432 C1404 0.930 . S
H1433 C1405 0.930 . S
H1434 C1407 0.929 . S
H1435 C1408 0.929 . S
H1436 C1413 0.930 . S
H1437 C1414 0.930 . S
H1438 C1416 0.929 . S
H1439 C1417 0.929 . S
H1440 C1448 0.929 . S
H1441 C1450 0.930 . S
H1442 C1452 0.930 . S
H1443 C1455 0.929 . S
H1444 C1458 0.930 . S
H1445 C1460 0.960 . S
H1446 C1460 0.960 . S
H1447 C1460 0.960 . S
C1448 H1440 0.929 . S
C1448 C1449 1.377 . S
C1448 C1450 1.384 . S
C1449 C1448 1.377 . S
C1449 C1455 1.390 . S
C1450 H1441 0.930 . S
C1450 C1448 1.384 . S
C1450 C1451 1.372 . S
C1451 C1450 1.372 . S
C1451 C1452 1.400 . S
C1451 C1456 1.490 . S
C1452 H1442 0.930 . S
C1452 C1451 1.400 . S
C1452 C1455 1.386 . S
H1453 C1469 0.930 . S
H1454 C1470 0.931 . S
C1455 H1443 0.929 . S
C1455 C1449 1.390 . S
C1455 C1452 1.386 . S
C1456 C1451 1.490 . S
C1456 C1458 1.395 . S
C1456 C1459 1.403 . S
H1457 C1463 0.930 . S
C1458 H1444 0.930 . S
C1458 C1456 1.395 . S
C1458 C1461 1.403 . S
C1459 C1456 1.403 . S
C1459 C1460 1.524 . S
C1459 C1463 1.400 . S
C1460 H1445 0.960 . S
C1460 H1446 0.960 . S
C1460 H1447 0.960 . S
C1460 C1459 1.524 . S
C1461 C1458 1.403 . S
C1461 C1462 1.392 . S
C1461 C1465 1.495 . S
C1462 C1461 1.392 . S
C1462 C1463 1.385 . S
C1462 C1464 1.478 . S
C1463 H1457 0.930 . S
C1463 C1459 1.400 . S
C1463 C1462 1.385 . S
C1464 C1462 1.478 . S
C1464 C1466 1.381 . S
C1464 C1470 1.383 . S
C1465 C1461 1.495 . S
C1465 H1471 0.959 . S
C1465 H1472 0.961 . S
C1465 H1473 0.960 . S
C1466 C1464 1.381 . S
C1466 C1467 1.394 . S
C1466 H1474 0.930 . S
C1467 C1466 1.394 . S
C1467 C1468 1.383 . S
C1467 H1475 0.929 . S
C1468 C1467 1.383 . S
C1468 C1469 1.377 . S
C1469 H1453 0.930 . S
C1469 C1468 1.377 . S
C1469 C1470 1.379 . S
C1470 H1454 0.931 . S
C1470 C1464 1.383 . S
C1470 C1469 1.379 . S
H1471 C1465 0.959 . S
H1472 C1465 0.961 . S
H1473 C1465 0.960 . S
H1474 C1466 0.930 . S
H1475 C1467 0.929 . S
H1476 C1484 0.929 . S
H1477 C1486 0.930 . S
H1478 C1488 0.930 . S
H1479 C1491 0.929 . S
H1480 C1494 0.930 . S
H1481 C1496 0.960 . S
H1482 C1496 0.960 . S
H1483 C1496 0.960 . S
C1484 H1476 0.929 . S
C1484 C1485 1.377 . S
C1484 C1486 1.384 . S
C1485 C1484 1.377 . S
C1485 C1491 1.390 . S
C1486 H1477 0.930 . S
C1486 C1484 1.384 . S
C1486 C1487 1.372 . S
C1487 C1486 1.372 . S
C1487 C1488 1.400 . S
C1487 C1492 1.490 . S
C1488 H1478 0.930 . S
C1488 C1487 1.400 . S
C1488 C1491 1.386 . S
H1489 C1505 0.930 . S
H1490 C1506 0.931 . S
C1491 H1479 0.929 . S
C1491 C1485 1.390 . S
C1491 C1488 1.386 . S
C1492 C1487 1.490 . S
C1492 C1494 1.395 . S
C1492 C1495 1.403 . S
H1493 C1499 0.930 . S
C1494 H1480 0.930 . S
C1494 C1492 1.395 . S
C1494 C1497 1.403 . S
C1495 C1492 1.403 . S
C1495 C1496 1.524 . S
C1495 C1499 1.400 . S
C1496 H1481 0.960 . S
C1496 H1482 0.960 . S
C1496 H1483 0.960 . S
C1496 C1495 1.524 . S
C1497 C1494 1.403 . S
C1497 C1498 1.392 . S
C1497 C1501 1.495 1_655 S
C1498 C1497 1.392 . S
C1498 C1499 1.385 . S
C1498 C1500 1.478 . S
C1499 H1493 0.930 . S
C1499 C1495 1.400 . S
C1499 C1498 1.385 . S
C1500 C1498 1.478 . S
C1500 C1502 1.381 1_655 S
C1500 C1506 1.383 . S
C1501 C1497 1.495 1_455 S
C1501 H1507 0.959 . S
C1501 H1508 0.961 . S
C1501 H1509 0.960 . S
C1502 C1500 1.381 1_455 S
C1502 C1503 1.394 . S
C1502 H1510 0.930 . S
C1503 C1502 1.394 . S
C1503 C1504 1.385 1_455 S
C1503 H1511 0.929 . S
C1504 C1503 1.385 1_655 S
C1504 C1505 1.375 . S
C1505 H1489 0.930 . S
C1505 C1504 1.375 . S
C1505 C1506 1.379 . S
C1506 H1490 0.931 . S
C1506 C1500 1.383 . S
C1506 C1505 1.379 . S
H1507 C1501 0.959 . S
H1508 C1501 0.961 . S
H1509 C1501 0.960 . S
H1510 C1502 0.930 . S
H1511 C1503 0.929 . S
H1512 C1520 0.929 . S
H1513 C1522 0.930 . S
H1514 C1524 0.930 . S
H1515 C1527 0.929 . S
H1516 C1530 0.930 . S
H1517 C1532 0.960 . S
H1518 C1532 0.960 . S
H1519 C1532 0.960 . S
C1520 H1512 0.929 . S
C1520 C1521 1.377 . S
C1520 C1522 1.384 . S
C1521 C1520 1.377 . S
C1521 C1527 1.390 . S
C1522 H1513 0.930 . S
C1522 C1520 1.384 . S
C1522 C1523 1.372 . S
C1523 C1522 1.372 . S
C1523 C1524 1.400 . S
C1523 C1528 1.490 . S
C1524 H1514 0.930 . S
C1524 C1523 1.400 . S
C1524 C1527 1.386 . S
H1525 C1541 0.930 . S
H1526 C1542 0.931 . S
C1527 H1515 0.929 . S
C1527 C1521 1.390 . S
C1527 C1524 1.386 . S
C1528 C1523 1.490 . S
C1528 C1530 1.395 . S
C1528 C1531 1.403 . S
H1529 C1535 0.930 . S
C1530 H1516 0.930 . S
C1530 C1528 1.395 . S
C1530 C1533 1.403 . S
C1531 C1528 1.403 . S
C1531 C1532 1.524 . S
C1531 C1535 1.400 . S
C1532 H1517 0.960 . S
C1532 H1518 0.960 . S
C1532 H1519 0.960 . S
C1532 C1531 1.524 . S
C1533 C1530 1.403 . S
C1533 C1534 1.392 . S
C1533 C1537 1.495 . S
C1534 C1533 1.392 . S
C1534 C1535 1.385 . S
C1534 C1536 1.478 . S
C1535 H1529 0.930 . S
C1535 C1531 1.400 . S
C1535 C1534 1.385 . S
C1536 C1534 1.478 . S
C1536 C1538 1.381 . S
C1536 C1542 1.383 . S
C1537 C1533 1.495 . S
C1537 H1543 0.959 . S
C1537 H1544 0.961 . S
C1537 H1545 0.960 . S
C1538 C1536 1.381 . S
C1538 C1539 1.394 . S
C1538 H1546 0.930 . S
C1539 C1538 1.394 . S
C1539 C1540 1.383 . S
C1539 H1547 0.929 . S
C1540 C1539 1.383 . S
C1540 C1541 1.377 . S
C1541 H1525 0.930 . S
C1541 C1540 1.377 . S
C1541 C1542 1.379 . S
C1542 H1526 0.931 . S
C1542 C1536 1.383 . S
C1542 C1541 1.379 . S
H1543 C1537 0.959 . S
H1544 C1537 0.961 . S
H1545 C1537 0.960 . S
H1546 C1538 0.930 . S
H1547 C1539 0.929 . S
H1548 C1556 0.929 . S
H1549 C1558 0.930 . S
H1550 C1560 0.930 . S
H1551 C1563 0.929 . S
H1552 C1566 0.930 . S
H1553 C1568 0.960 . S
H1554 C1568 0.960 . S
H1555 C1568 0.960 . S
C1556 H1548 0.929 . S
C1556 C1557 1.377 . S
C1556 C1558 1.384 . S
C1557 C1556 1.377 . S
C1557 C1563 1.390 . S
C1558 H1549 0.930 . S
C1558 C1556 1.384 . S
C1558 C1559 1.372 . S
C1559 C1558 1.372 . S
C1559 C1560 1.400 . S
C1559 C1564 1.490 . S
C1560 H1550 0.930 . S
C1560 C1559 1.400 . S
C1560 C1563 1.386 . S
H1561 C1577 0.930 . S
H1562 C1578 0.931 . S
C1563 H1551 0.929 . S
C1563 C1557 1.390 . S
C1563 C1560 1.386 . S
C1564 C1559 1.490 . S
C1564 C1566 1.395 . S
C1564 C1567 1.403 . S
H1565 C1571 0.930 . S
C1566 H1552 0.930 . S
C1566 C1564 1.395 . S
C1566 C1569 1.403 . S
C1567 C1564 1.403 . S
C1567 C1568 1.524 . S
C1567 C1571 1.400 . S
C1568 H1553 0.960 . S
C1568 H1554 0.960 . S
C1568 H1555 0.960 . S
C1568 C1567 1.524 . S
C1569 C1566 1.403 . S
C1569 C1570 1.392 . S
C1569 C1573 1.495 . S
C1570 C1569 1.392 . S
C1570 C1571 1.385 . S
C1570 C1572 1.478 . S
C1571 H1565 0.930 . S
C1571 C1567 1.400 . S
C1571 C1570 1.385 . S
C1572 C1570 1.478 . S
C1572 C1574 1.381 . S
C1572 C1578 1.383 . S
C1573 C1569 1.495 . S
C1573 H1579 0.959 . S
C1573 H1580 0.961 . S
C1573 H1581 0.960 . S
C1574 C1572 1.381 . S
C1574 C1575 1.394 . S
C1574 H1582 0.930 . S
C1575 C1574 1.394 . S
C1575 C1576 1.383 . S
C1575 H1583 0.929 . S
C1576 C1575 1.383 . S
C1576 C1577 1.377 . S
C1577 H1561 0.930 . S
C1577 C1576 1.377 . S
C1577 C1578 1.379 . S
C1578 H1562 0.931 . S
C1578 C1572 1.383 . S
C1578 C1577 1.379 . S
H1579 C1573 0.959 . S
H1580 C1573 0.961 . S
H1581 C1573 0.960 . S
H1582 C1574 0.930 . S
H1583 C1575 0.929 . S
H1584 C1592 0.929 . S
H1585 C1594 0.930 . S
H1586 C1596 0.930 . S
H1587 C1599 0.929 . S
H1588 C1602 0.930 . S
H1589 C1604 0.960 . S
H1590 C1604 0.960 . S
H1591 C1604 0.960 . S
C1592 H1584 0.929 . S
C1592 C1593 1.377 . S
C1592 C1594 1.384 . S
C1593 C1592 1.377 . S
C1593 C1599 1.390 . S
C1594 H1585 0.930 . S
C1594 C1592 1.384 . S
C1594 C1595 1.372 . S
C1595 C1594 1.372 . S
C1595 C1596 1.400 . S
C1595 C1600 1.490 . S
C1596 H1586 0.930 . S
C1596 C1595 1.400 . S
C1596 C1599 1.386 . S
H1597 C1613 0.930 . S
H1598 C1614 0.931 . S
C1599 H1587 0.929 . S
C1599 C1593 1.390 . S
C1599 C1596 1.386 . S
C1600 C1595 1.490 . S
C1600 C1602 1.395 . S
C1600 C1603 1.403 . S
H1601 C1607 0.930 . S
C1602 H1588 0.930 . S
C1602 C1600 1.395 . S
C1602 C1605 1.403 . S
C1603 C1600 1.403 . S
C1603 C1604 1.524 . S
C1603 C1607 1.400 . S
C1604 H1589 0.960 . S
C1604 H1590 0.960 . S
C1604 H1591 0.960 . S
C1604 C1603 1.524 . S
C1605 C1602 1.403 . S
C1605 C1606 1.392 . S
C1605 C1609 1.495 . S
C1606 C1605 1.392 . S
C1606 C1607 1.385 . S
C1606 C1608 1.478 . S
C1607 H1601 0.930 . S
C1607 C1603 1.400 . S
C1607 C1606 1.385 . S
C1608 C1606 1.478 . S
C1608 C1610 1.381 . S
C1608 C1614 1.383 . S
C1609 C1605 1.495 . S
C1609 H1615 0.959 . S
C1609 H1616 0.961 . S
C1609 H1617 0.960 . S
C1610 C1608 1.381 . S
C1610 C1611 1.394 . S
C1610 H1618 0.930 . S
C1611 C1610 1.394 . S
C1611 C1612 1.383 . S
C1611 H1619 0.929 . S
C1612 C1611 1.383 . S
C1612 C1613 1.377 . S
C1613 H1597 0.930 . S
C1613 C1612 1.377 . S
C1613 C1614 1.379 . S
C1614 H1598 0.931 . S
C1614 C1608 1.383 . S
C1614 C1613 1.379 . S
H1615 C1609 0.959 . S
H1616 C1609 0.961 . S
H1617 C1609 0.960 . S
H1618 C1610 0.930 . S
H1619 C1611 0.929 . S
H1620 C1628 0.929 . S
H1621 C1630 0.930 . S
H1622 C1632 0.930 . S
H1623 C1635 0.929 . S
H1624 C1638 0.930 . S
H1625 C1640 0.960 . S
H1626 C1640 0.960 . S
H1627 C1640 0.960 . S
C1628 H1620 0.929 . S
C1628 C1629 1.377 . S
C1628 C1630 1.384 . S
C1629 C1628 1.377 . S
C1629 C1635 1.390 . S
C1630 H1621 0.930 . S
C1630 C1628 1.384 . S
C1630 C1631 1.372 . S
C1631 C1630 1.372 . S
C1631 C1632 1.400 . S
C1631 C1636 1.490 . S
C1632 H1622 0.930 . S
C1632 C1631 1.400 . S
C1632 C1635 1.386 . S
H1633 C1649 0.930 . S
H1634 C1650 0.931 . S
C1635 H1623 0.929 . S
C1635 C1629 1.390 . S
C1635 C1632 1.386 . S
C1636 C1631 1.490 . S
C1636 C1638 1.395 . S
C1636 C1639 1.403 . S
H1637 C1643 0.930 . S
C1638 H1624 0.930 . S
C1638 C1636 1.395 . S
C1638 C1641 1.403 . S
C1639 C1636 1.403 . S
C1639 C1640 1.524 . S
C1639 C1643 1.400 . S
C1640 H1625 0.960 . S
C1640 H1626 0.960 . S
C1640 H1627 0.960 . S
C1640 C1639 1.524 . S
C1641 C1638 1.403 . S
C1641 C1642 1.392 . S
C1641 C1645 1.495 . S
C1642 C1641 1.392 . S
C1642 C1643 1.385 . S
C1642 C1644 1.478 . S
C1643 H1637 0.930 . S
C1643 C1639 1.400 . S
C1643 C1642 1.385 . S
C1644 C1642 1.478 . S
C1644 C1646 1.381 . S
C1644 C1650 1.383 1_565 S
C1645 C1641 1.495 . S
C1645 H1651 0.959 . S
C1645 H1652 0.961 . S
C1645 H1653 0.960 . S
C1646 C1644 1.381 . S
C1646 C1647 1.394 . S
C1646 H1654 0.930 . S
C1647 C1646 1.394 . S
C1647 C1648 1.383 . S
C1647 H1655 0.929 . S
C1648 C1647 1.383 . S
C1648 C1649 1.377 1_565 S
C1649 H1633 0.930 . S
C1649 C1648 1.377 1_545 S
C1649 C1650 1.379 . S
C1650 H1634 0.931 . S
C1650 C1644 1.383 1_545 S
C1650 C1649 1.379 . S
H1651 C1645 0.959 . S
H1652 C1645 0.961 . S
H1653 C1645 0.960 . S
H1654 C1646 0.930 . S
H1655 C1647 0.929 . S
H1656 C1664 0.929 . S
H1657 C1666 0.930 . S
H1658 C1668 0.930 . S
H1659 C1671 0.929 . S
H1660 C1674 0.930 . S
H1661 C1676 0.960 . S
H1662 C1676 0.960 . S
H1663 C1676 0.960 . S
C1664 H1656 0.929 . S
C1664 C1665 1.377 1_545 S
C1664 C1666 1.384 . S
C1665 C1664 1.377 1_565 S
C1665 C1671 1.390 . S
C1666 H1657 0.930 . S
C1666 C1664 1.384 . S
C1666 C1667 1.372 1_545 S
C1667 C1666 1.372 1_565 S
C1667 C1668 1.400 . S
C1667 C1672 1.490 . S
C1668 H1658 0.930 . S
C1668 C1667 1.400 . S
C1668 C1671 1.386 . S
H1669 C1685 0.930 . S
H1670 C1686 0.931 . S
C1671 H1659 0.929 . S
C1671 C1665 1.390 . S
C1671 C1668 1.386 . S
C1672 C1667 1.490 . S
C1672 C1674 1.395 . S
C1672 C1675 1.403 . S
H1673 C1679 0.930 . S
C1674 H1660 0.930 . S
C1674 C1672 1.395 . S
C1674 C1677 1.403 . S
C1675 C1672 1.403 . S
C1675 C1676 1.524 . S
C1675 C1679 1.400 . S
C1676 H1661 0.960 . S
C1676 H1662 0.960 . S
C1676 H1663 0.960 . S
C1676 C1675 1.524 . S
C1677 C1674 1.403 . S
C1677 C1678 1.392 . S
C1677 C1681 1.495 . S
C1678 C1677 1.392 . S
C1678 C1679 1.385 . S
C1678 C1680 1.478 . S
C1679 H1673 0.930 . S
C1679 C1675 1.400 . S
C1679 C1678 1.385 . S
C1680 C1678 1.478 . S
C1680 C1682 1.381 . S
C1680 C1686 1.383 . S
C1681 C1677 1.495 . S
C1681 H1687 0.959 . S
C1681 H1688 0.961 . S
C1681 H1689 0.960 . S
C1682 C1680 1.381 . S
C1682 C1683 1.394 . S
C1682 H1690 0.930 . S
C1683 C1682 1.394 . S
C1683 C1684 1.383 . S
C1683 H1691 0.929 . S
C1684 C1683 1.383 . S
C1684 C1685 1.377 . S
C1685 H1669 0.930 . S
C1685 C1684 1.377 . S
C1685 C1686 1.379 . S
C1686 H1670 0.931 . S
C1686 C1680 1.383 . S
C1686 C1685 1.379 . S
H1687 C1681 0.959 . S
H1688 C1681 0.961 . S
H1689 C1681 0.960 . S
H1690 C1682 0.930 . S
H1691 C1683 0.929 . S
H1692 C1700 0.929 . S
H1693 C1702 0.930 . S
H1694 C1704 0.930 . S
H1695 C1707 0.929 . S
H1696 C1710 0.930 . S
H1697 C1712 0.960 . S
H1698 C1712 0.960 . S
H1699 C1712 0.960 . S
C1700 H1692 0.929 . S
C1700 C1701 1.377 . S
C1700 C1702 1.384 . S
C1701 C1700 1.377 . S
C1701 C1707 1.390 . S
C1702 H1693 0.930 . S
C1702 C1700 1.384 . S
C1702 C1703 1.372 . S
C1703 C1702 1.372 . S
C1703 C1704 1.400 . S
C1703 C1708 1.490 . S
C1704 H1694 0.930 . S
C1704 C1703 1.400 . S
C1704 C1707 1.386 . S
H1705 C1721 0.930 . S
H1706 C1722 0.931 . S
C1707 H1695 0.929 . S
C1707 C1701 1.390 . S
C1707 C1704 1.386 . S
C1708 C1703 1.490 . S
C1708 C1710 1.395 . S
C1708 C1711 1.403 . S
H1709 C1715 0.930 . S
C1710 H1696 0.930 . S
C1710 C1708 1.395 . S
C1710 C1713 1.403 . S
C1711 C1708 1.403 . S
C1711 C1712 1.524 . S
C1711 C1715 1.400 . S
C1712 H1697 0.960 . S
C1712 H1698 0.960 . S
C1712 H1699 0.960 . S
C1712 C1711 1.524 . S
C1713 C1710 1.403 . S
C1713 C1714 1.392 . S
C1713 C1717 1.495 . S
C1714 C1713 1.392 . S
C1714 C1715 1.385 . S
C1714 C1716 1.478 . S
C1715 H1709 0.930 . S
C1715 C1711 1.400 . S
C1715 C1714 1.385 . S
C1716 C1714 1.478 . S
C1716 C1718 1.381 . S
C1716 C1722 1.383 . S
C1717 C1713 1.495 . S
C1717 H1723 0.959 . S
C1717 H1724 0.961 . S
C1717 H1725 0.960 . S
C1718 C1716 1.381 . S
C1718 C1719 1.394 . S
C1718 H1726 0.930 . S
C1719 C1718 1.394 . S
C1719 C1720 1.383 . S
C1719 H1727 0.929 . S
C1720 C1719 1.383 . S
C1720 C1721 1.377 . S
C1721 H1705 0.930 . S
C1721 C1720 1.377 . S
C1721 C1722 1.379 . S
C1722 H1706 0.931 . S
C1722 C1716 1.383 . S
C1722 C1721 1.379 . S
H1723 C1717 0.959 . S
H1724 C1717 0.961 . S
H1725 C1717 0.960 . S
H1726 C1718 0.930 . S
H1727 C1719 0.929 . S
H1728 C1736 0.929 . S
H1729 C1738 0.930 . S
H1730 C1740 0.930 . S
H1731 C1743 0.929 . S
H1732 C1746 0.930 . S
H1733 C1748 0.960 . S
H1734 C1748 0.960 . S
H1735 C1748 0.960 . S
C1736 H1728 0.929 . S
C1736 C1737 1.377 . S
C1736 C1738 1.384 . S
C1737 C1736 1.377 . S
C1737 C1743 1.390 . S
C1738 H1729 0.930 . S
C1738 C1736 1.384 . S
C1738 C1739 1.372 . S
C1739 C1738 1.372 . S
C1739 C1740 1.400 . S
C1739 C1744 1.490 . S
C1740 H1730 0.930 . S
C1740 C1739 1.400 . S
C1740 C1743 1.386 . S
H1741 C1757 0.930 . S
H1742 C1758 0.931 . S
C1743 H1731 0.929 . S
C1743 C1737 1.390 . S
C1743 C1740 1.386 . S
C1744 C1739 1.490 . S
C1744 C1746 1.395 . S
C1744 C1747 1.403 . S
H1745 C1751 0.930 . S
C1746 H1732 0.930 . S
C1746 C1744 1.395 . S
C1746 C1749 1.403 . S
C1747 C1744 1.403 . S
C1747 C1748 1.524 . S
C1747 C1751 1.400 . S
C1748 H1733 0.960 . S
C1748 H1734 0.960 . S
C1748 H1735 0.960 . S
C1748 C1747 1.524 . S
C1749 C1746 1.403 . S
C1749 C1750 1.392 . S
C1749 C1753 1.495 . S
C1750 C1749 1.392 . S
C1750 C1751 1.385 . S
C1750 C1752 1.478 . S
C1751 H1745 0.930 . S
C1751 C1747 1.400 . S
C1751 C1750 1.385 . S
C1752 C1750 1.478 . S
C1752 C1754 1.381 . S
C1752 C1758 1.383 . S
C1753 C1749 1.495 . S
C1753 H1759 0.959 . S
C1753 H1760 0.961 . S
C1753 H1761 0.960 . S
C1754 C1752 1.381 . S
C1754 C1755 1.394 . S
C1754 H1762 0.930 . S
C1755 C1754 1.394 . S
C1755 C1756 1.383 . S
C1755 H1763 0.929 . S
C1756 C1755 1.383 . S
C1756 C1757 1.377 . S
C1757 H1741 0.930 . S
C1757 C1756 1.377 . S
C1757 C1758 1.379 . S
C1758 H1742 0.931 . S
C1758 C1752 1.383 . S
C1758 C1757 1.379 . S
H1759 C1753 0.959 . S
H1760 C1753 0.961 . S
H1761 C1753 0.960 . S
H1762 C1754 0.930 . S
H1763 C1755 0.929 . S
H1764 C1772 0.929 . S
H1765 C1774 0.930 . S
H1766 C1776 0.930 . S
H1767 C1779 0.929 . S
H1768 C1782 0.930 . S
H1769 C1784 0.960 . S
H1770 C1784 0.960 . S
H1771 C1784 0.960 . S
C1772 H1764 0.929 . S
C1772 C1773 1.377 . S
C1772 C1774 1.384 . S
C1773 C1772 1.377 . S
C1773 C1779 1.390 . S
C1774 H1765 0.930 . S
C1774 C1772 1.384 . S
C1774 C1775 1.372 . S
C1775 C1774 1.372 . S
C1775 C1776 1.400 . S
C1775 C1780 1.490 . S
C1776 H1766 0.930 . S
C1776 C1775 1.400 . S
C1776 C1779 1.386 . S
H1777 C1793 0.930 . S
H1778 C1794 0.931 . S
C1779 H1767 0.929 . S
C1779 C1773 1.390 . S
C1779 C1776 1.386 . S
C1780 C1775 1.490 . S
C1780 C1782 1.395 . S
C1780 C1783 1.403 . S
H1781 C1787 0.930 . S
C1782 H1768 0.930 . S
C1782 C1780 1.395 . S
C1782 C1785 1.403 . S
C1783 C1780 1.403 . S
C1783 C1784 1.524 . S
C1783 C1787 1.400 . S
C1784 H1769 0.960 . S
C1784 H1770 0.960 . S
C1784 H1771 0.960 . S
C1784 C1783 1.524 . S
C1785 C1782 1.403 . S
C1785 C1786 1.392 . S
C1785 C1789 1.495 . S
C1786 C1785 1.392 . S
C1786 C1787 1.385 . S
C1786 C1788 1.478 . S
C1787 H1781 0.930 . S
C1787 C1783 1.400 . S
C1787 C1786 1.385 . S
C1788 C1786 1.478 . S
C1788 C1790 1.381 1_655 S
C1788 C1794 1.383 . S
C1789 C1785 1.495 . S
C1789 H1795 0.960 . S
C1789 H1796 0.961 . S
C1789 H1797 0.960 1_655 S
C1790 C1788 1.381 1_455 S
C1790 C1791 1.394 . S
C1790 H1798 0.930 . S
C1791 C1790 1.394 . S
C1791 C1792 1.377 1_455 S
C1791 H1799 0.929 . S
C1792 C1791 1.377 1_655 S
C1792 C1793 1.402 . S
C1793 H1777 0.930 . S
C1793 C1792 1.402 . S
C1793 C1794 1.379 . S
C1794 H1778 0.931 . S
C1794 C1788 1.383 . S
C1794 C1793 1.379 . S
H1795 C1789 0.960 . S
H1796 C1789 0.961 . S
H1797 C1789 0.960 1_455 S
H1798 C1790 0.930 . S
H1799 C1791 0.929 . S
H1800 C1808 0.929 . S
H1801 C1810 0.930 . S
H1802 C1812 0.930 . S
H1803 C1815 0.929 . S
H1804 C1818 0.930 . S
H1805 C1820 0.960 . S
H1806 C1820 0.960 . S
H1807 C1820 0.960 . S
C1808 H1800 0.929 . S
C1808 C1809 1.377 . S
C1808 C1810 1.384 . S
C1809 C1808 1.377 . S
C1809 C1815 1.390 . S
C1810 H1801 0.930 . S
C1810 C1808 1.384 . S
C1810 C1811 1.372 . S
C1811 C1810 1.372 . S
C1811 C1812 1.400 . S
C1811 C1816 1.490 . S
C1812 H1802 0.930 . S
C1812 C1811 1.400 . S
C1812 C1815 1.386 . S
H1813 C1829 0.930 . S
H1814 C1830 0.931 . S
C1815 H1803 0.929 . S
C1815 C1809 1.390 . S
C1815 C1812 1.386 . S
C1816 C1811 1.490 . S
C1816 C1818 1.395 . S
C1816 C1819 1.403 . S
H1817 C1823 0.930 . S
C1818 H1804 0.930 . S
C1818 C1816 1.395 . S
C1818 C1821 1.403 . S
C1819 C1816 1.403 . S
C1819 C1820 1.524 . S
C1819 C1823 1.400 . S
C1820 H1805 0.960 . S
C1820 H1806 0.960 . S
C1820 H1807 0.960 . S
C1820 C1819 1.524 . S
C1821 C1818 1.403 . S
C1821 C1822 1.392 . S
C1821 C1825 1.495 . S
C1822 C1821 1.392 . S
C1822 C1823 1.385 . S
C1822 C1824 1.478 . S
C1823 H1817 0.930 . S
C1823 C1819 1.400 . S
C1823 C1822 1.385 . S
C1824 C1822 1.478 . S
C1824 C1826 1.381 . S
C1824 C1830 1.383 . S
C1825 C1821 1.495 . S
C1825 H1831 0.959 . S
C1825 H1832 0.961 . S
C1825 H1833 0.960 . S
C1826 C1824 1.381 . S
C1826 C1827 1.394 . S
C1826 H1834 0.930 . S
C1827 C1826 1.394 . S
C1827 C1828 1.383 . S
C1827 H1835 0.929 . S
C1828 C1827 1.383 . S
C1828 C1829 1.377 . S
C1829 H1813 0.930 . S
C1829 C1828 1.377 . S
C1829 C1830 1.379 . S
C1830 H1814 0.931 . S
C1830 C1824 1.383 . S
C1830 C1829 1.379 . S
H1831 C1825 0.959 . S
H1832 C1825 0.961 . S
H1833 C1825 0.960 . S
H1834 C1826 0.930 . S
H1835 C1827 0.929 . S
H1836 C1844 0.929 . S
H1837 C1846 0.930 . S
H1838 C1848 0.930 . S
H1839 C1851 0.929 . S
H1840 C1854 0.930 . S
H1841 C1856 0.960 . S
H1842 C1856 0.960 . S
H1843 C1856 0.960 . S
C1844 H1836 0.929 . S
C1844 C1845 1.377 . S
C1844 C1846 1.384 . S
C1845 C1844 1.377 . S
C1845 C1851 1.390 . S
C1846 H1837 0.930 . S
C1846 C1844 1.384 . S
C1846 C1847 1.372 . S
C1847 C1846 1.372 . S
C1847 C1848 1.400 . S
C1847 C1852 1.490 . S
C1848 H1838 0.930 . S
C1848 C1847 1.400 . S
C1848 C1851 1.386 . S
H1849 C1865 0.930 . S
H1850 C1866 0.931 . S
C1851 H1839 0.929 . S
C1851 C1845 1.390 . S
C1851 C1848 1.386 . S
C1852 C1847 1.490 . S
C1852 C1854 1.395 . S
C1852 C1855 1.403 . S
H1853 C1859 0.930 . S
C1854 H1840 0.930 . S
C1854 C1852 1.395 . S
C1854 C1857 1.403 . S
C1855 C1852 1.403 . S
C1855 C1856 1.524 . S
C1855 C1859 1.400 . S
C1856 H1841 0.960 . S
C1856 H1842 0.960 . S
C1856 H1843 0.960 . S
C1856 C1855 1.524 . S
C1857 C1854 1.403 . S
C1857 C1858 1.392 . S
C1857 C1861 1.495 . S
C1858 C1857 1.392 . S
C1858 C1859 1.385 . S
C1858 C1860 1.478 . S
C1859 H1853 0.930 . S
C1859 C1855 1.400 . S
C1859 C1858 1.385 . S
C1860 C1858 1.478 . S
C1860 C1862 1.381 . S
C1860 C1866 1.383 . S
C1861 C1857 1.495 . S
C1861 H1867 0.959 . S
C1861 H1868 0.961 . S
C1861 H1869 0.960 . S
C1862 C1860 1.381 . S
C1862 C1863 1.394 . S
C1862 H1870 0.930 . S
C1863 C1862 1.394 . S
C1863 C1864 1.383 . S
C1863 H1871 0.929 . S
C1864 C1863 1.383 . S
C1864 C1865 1.377 . S
C1865 H1849 0.930 . S
C1865 C1864 1.377 . S
C1865 C1866 1.379 . S
C1866 H1850 0.931 . S
C1866 C1860 1.383 . S
C1866 C1865 1.379 . S
H1867 C1861 0.959 . S
H1868 C1861 0.961 . S
H1869 C1861 0.960 . S
H1870 C1862 0.930 . S
H1871 C1863 0.929 . S
H1872 C1880 0.929 . S
H1873 C1882 0.930 . S
H1874 C1884 0.930 . S
H1875 C1887 0.929 . S
H1876 C1890 0.930 . S
H1877 C1892 0.960 . S
H1878 C1892 0.960 . S
H1879 C1892 0.960 . S
C1880 H1872 0.929 . S
C1880 C1881 1.377 . S
C1880 C1882 1.384 . S
C1881 C1880 1.377 . S
C1881 C1887 1.390 . S
C1882 H1873 0.930 . S
C1882 C1880 1.384 . S
C1882 C1883 1.372 . S
C1883 C1882 1.372 . S
C1883 C1884 1.400 . S
C1883 C1888 1.490 . S
C1884 H1874 0.930 . S
C1884 C1883 1.400 . S
C1884 C1887 1.386 . S
H1885 C1901 0.930 . S
H1886 C1902 0.931 . S
C1887 H1875 0.929 . S
C1887 C1881 1.390 . S
C1887 C1884 1.386 . S
C1888 C1883 1.490 . S
C1888 C1890 1.395 . S
C1888 C1891 1.403 . S
H1889 C1895 0.930 . S
C1890 H1876 0.930 . S
C1890 C1888 1.395 . S
C1890 C1893 1.403 . S
C1891 C1888 1.403 . S
C1891 C1892 1.524 . S
C1891 C1895 1.400 . S
C1892 H1877 0.960 . S
C1892 H1878 0.960 . S
C1892 H1879 0.960 . S
C1892 C1891 1.524 . S
C1893 C1890 1.403 . S
C1893 C1894 1.392 . S
C1893 C1897 1.495 . S
C1894 C1893 1.392 . S
C1894 C1895 1.385 . S
C1894 C1896 1.478 . S
C1895 H1889 0.930 . S
C1895 C1891 1.400 . S
C1895 C1894 1.385 . S
C1896 C1894 1.478 . S
C1896 C1898 1.381 . S
C1896 C1902 1.383 . S
C1897 C1893 1.495 . S
C1897 H1903 0.959 . S
C1897 H1904 0.961 . S
C1897 H1905 0.960 . S
C1898 C1896 1.381 . S
C1898 C1899 1.394 . S
C1898 H1906 0.930 . S
C1899 C1898 1.394 . S
C1899 C1900 1.383 . S
C1899 H1907 0.929 . S
C1900 C1899 1.383 . S
C1900 C1901 1.377 . S
C1901 H1885 0.930 . S
C1901 C1900 1.377 . S
C1901 C1902 1.379 . S
C1902 H1886 0.931 . S
C1902 C1896 1.383 . S
C1902 C1901 1.379 . S
H1903 C1897 0.959 . S
H1904 C1897 0.961 . S
H1905 C1897 0.960 . S
H1906 C1898 0.930 . S
H1907 C1899 0.929 . S
H1908 C1916 0.929 . S
H1909 C1918 0.930 . S
H1910 C1920 0.930 . S
H1911 C1923 0.929 . S
H1912 C1926 0.930 . S
H1913 C1928 0.960 . S
H1914 C1928 0.960 . S
H1915 C1928 0.960 . S
C1916 H1908 0.929 . S
C1916 C1917 1.377 . S
C1916 C1918 1.384 . S
C1917 C1916 1.377 . S
C1917 C1923 1.390 . S
C1918 H1909 0.930 . S
C1918 C1916 1.384 . S
C1918 C1919 1.372 . S
C1919 C1918 1.372 . S
C1919 C1920 1.400 . S
C1919 C1924 1.490 1_565 S
C1920 H1910 0.930 . S
C1920 C1919 1.400 . S
C1920 C1923 1.386 . S
H1921 C1937 0.930 . S
H1922 C1938 0.931 . S
C1923 H1911 0.929 . S
C1923 C1917 1.390 . S
C1923 C1920 1.386 . S
C1924 C1919 1.490 1_545 S
C1924 C1926 1.395 . S
C1924 C1927 1.403 . S
H1925 C1931 0.930 . S
C1926 H1912 0.930 . S
C1926 C1924 1.395 . S
C1926 C1929 1.403 . S
C1927 C1924 1.403 . S
C1927 C1928 1.524 1_545 S
C1927 C1931 1.400 . S
C1928 H1913 0.960 . S
C1928 H1914 0.960 . S
C1928 H1915 0.960 . S
C1928 C1927 1.524 1_565 S
C1929 C1926 1.403 . S
C1929 C1930 1.392 . S
C1929 C1933 1.495 . S
C1930 C1929 1.392 . S
C1930 C1931 1.385 . S
C1930 C1932 1.478 . S
C1931 H1925 0.930 . S
C1931 C1927 1.400 . S
C1931 C1930 1.385 . S
C1932 C1930 1.478 . S
C1932 C1934 1.381 . S
C1932 C1938 1.383 . S
C1933 C1929 1.495 . S
C1933 H1939 0.959 . S
C1933 H1940 0.961 . S
C1933 H1941 0.960 . S
C1934 C1932 1.381 . S
C1934 C1935 1.394 . S
C1934 H1942 0.930 . S
C1935 C1934 1.394 . S
C1935 C1936 1.383 . S
C1935 H1943 0.929 . S
C1936 C1935 1.383 . S
C1936 C1937 1.377 . S
C1937 H1921 0.930 . S
C1937 C1936 1.377 . S
C1937 C1938 1.379 . S
C1938 H1922 0.931 . S
C1938 C1932 1.383 . S
C1938 C1937 1.379 . S
H1939 C1933 0.959 . S
H1940 C1933 0.961 . S
H1941 C1933 0.960 . S
H1942 C1934 0.930 . S
H1943 C1935 0.929 . S
H1944 C1952 0.929 . S
H1945 C1954 0.930 1_455 S
H1946 C1956 0.930 . S
H1947 C1959 0.929 . S
H1948 C1962 0.930 . S
H1949 C1964 0.960 . S
H1950 C1964 0.960 . S
H1951 C1964 0.960 1_655 S
C1952 H1944 0.929 . S
C1952 C1953 1.377 . S
C1952 C1954 1.384 . S
C1953 C1952 1.377 . S
C1953 C1959 1.390 . S
C1954 H1945 0.930 1_655 S
C1954 C1952 1.384 . S
C1954 C1955 1.372 . S
C1955 C1954 1.372 . S
C1955 C1956 1.400 . S
C1955 C1960 1.490 1_655 S
C1956 H1946 0.930 . S
C1956 C1955 1.400 . S
C1956 C1959 1.386 . S
H1957 C1973 0.930 . S
H1958 C1974 0.931 . S
C1959 H1947 0.929 . S
C1959 C1953 1.390 . S
C1959 C1956 1.386 . S
C1960 C1955 1.490 1_455 S
C1960 C1962 1.395 . S
C1960 C1963 1.403 . S
H1961 C1967 0.930 . S
C1962 H1948 0.930 . S
C1962 C1960 1.395 . S
C1962 C1965 1.403 . S
C1963 C1960 1.403 . S
C1963 C1964 1.524 . S
C1963 C1967 1.400 . S
C1964 H1949 0.960 . S
C1964 H1950 0.960 . S
C1964 H1951 0.960 1_455 S
C1964 C1963 1.524 . S
C1965 C1962 1.403 . S
C1965 C1966 1.392 . S
C1965 C1969 1.495 . S
C1966 C1965 1.392 . S
C1966 C1967 1.385 . S
C1966 C1968 1.478 . S
C1967 H1961 0.930 . S
C1967 C1963 1.400 . S
C1967 C1966 1.385 . S
C1968 C1966 1.478 . S
C1968 C1970 1.381 . S
C1968 C1974 1.383 . S
C1969 C1965 1.495 . S
C1969 H1975 0.959 . S
C1969 H1976 0.961 . S
C1969 H1977 0.960 . S
C1970 C1968 1.381 . S
C1970 C1971 1.394 . S
C1970 H1978 0.930 . S
C1971 C1970 1.394 . S
C1971 C1972 1.383 . S
C1971 H1979 0.929 . S
C1972 C1971 1.383 . S
C1972 C1973 1.377 . S
C1973 H1957 0.930 . S
C1973 C1972 1.377 . S
C1973 C1974 1.379 . S
C1974 H1958 0.931 . S
C1974 C1968 1.383 . S
C1974 C1973 1.379 . S
H1975 C1969 0.959 . S
H1976 C1969 0.961 . S
H1977 C1969 0.960 . S
H1978 C1970 0.930 . S
H1979 C1971 0.929 . S
H1980 C1988 0.929 . S
H1981 C1990 0.930 . S
H1982 C1992 0.930 . S
H1983 C1995 0.929 . S
H1984 C1998 0.930 . S
H1985 C2000 0.960 . S
H1986 C2000 0.960 . S
H1987 C2000 0.960 . S
C1988 H1980 0.929 . S
C1988 C1989 1.377 . S
C1988 C1990 1.384 . S
C1989 C1988 1.377 . S
C1989 C1995 1.390 . S
C1990 H1981 0.930 . S
C1990 C1988 1.384 . S
C1990 C1991 1.372 . S
C1991 C1990 1.372 . S
C1991 C1992 1.400 . S
C1991 C1996 1.490 . S
C1992 H1982 0.930 . S
C1992 C1991 1.400 . S
C1992 C1995 1.386 . S
H1993 C2009 0.930 . S
H1994 C2010 0.931 . S
C1995 H1983 0.929 . S
C1995 C1989 1.390 . S
C1995 C1992 1.386 . S
C1996 C1991 1.490 . S
C1996 C1998 1.395 . S
C1996 C1999 1.403 . S
H1997 C2003 0.930 . S
C1998 H1984 0.930 . S
C1998 C1996 1.395 . S
C1998 C2001 1.403 . S
C1999 C1996 1.403 . S
C1999 C2000 1.524 . S
C1999 C2003 1.400 . S
C2000 H1985 0.960 . S
C2000 H1986 0.960 . S
C2000 H1987 0.960 . S
C2000 C1999 1.524 . S
C2001 C1998 1.403 . S
C2001 C2002 1.392 . S
C2001 C2005 1.495 . S
C2002 C2001 1.392 . S
C2002 C2003 1.385 . S
C2002 C2004 1.478 . S
C2003 H1997 0.930 . S
C2003 C1999 1.400 . S
C2003 C2002 1.385 . S
C2004 C2002 1.478 . S
C2004 C2006 1.381 . S
C2004 C2010 1.383 . S
C2005 C2001 1.495 . S
C2005 H2011 0.959 . S
C2005 H2012 0.961 . S
C2005 H2013 0.960 . S
C2006 C2004 1.381 . S
C2006 C2007 1.394 . S
C2006 H2014 0.930 . S
C2007 C2006 1.394 . S
C2007 C2008 1.383 . S
C2007 H2015 0.929 . S
C2008 C2007 1.383 . S
C2008 C2009 1.377 . S
C2009 H1993 0.930 . S
C2009 C2008 1.377 . S
C2009 C2010 1.379 . S
C2010 H1994 0.931 . S
C2010 C2004 1.383 . S
C2010 C2009 1.379 . S
H2011 C2005 0.959 . S
H2012 C2005 0.961 . S
H2013 C2005 0.960 . S
H2014 C2006 0.930 . S
H2015 C2007 0.929 . S
H2016 C2024 0.929 . S
H2017 C2026 0.930 . S
H2018 C2028 0.930 1_545 S
H2019 C2031 0.929 . S
H2020 C2034 0.928 1_565 S
H2021 C2036 0.960 . S
H2022 C2036 0.960 . S
H2023 C2036 0.960 . S
C2024 H2016 0.929 . S
C2024 C2025 1.377 . S
C2024 C2026 1.384 . S
C2025 C2024 1.377 . S
C2025 C2031 1.390 . S
C2026 H2017 0.930 . S
C2026 C2024 1.384 . S
C2026 C2027 1.372 . S
C2027 C2026 1.372 . S
C2027 C2028 1.400 . S
C2027 C2032 1.490 1_565 S
C2028 H2018 0.930 1_565 S
C2028 C2027 1.400 . S
C2028 C2031 1.386 . S
H2029 C2045 0.930 . S
H2030 C2046 0.931 . S
C2031 H2019 0.929 . S
C2031 C2025 1.390 . S
C2031 C2028 1.386 . S
C2032 C2027 1.490 1_545 S
C2032 C2034 1.393 . S
C2032 C2035 1.403 . S
H2033 C2039 0.930 . S
C2034 H2020 0.928 1_545 S
C2034 C2032 1.393 . S
C2034 C2037 1.407 . S
C2035 C2032 1.403 . S
C2035 C2036 1.524 . S
C2035 C2039 1.400 . S
C2036 H2021 0.960 . S
C2036 H2022 0.960 . S
C2036 H2023 0.960 . S
C2036 C2035 1.524 . S
C2037 C2034 1.407 . S
C2037 C2038 1.392 . S
C2037 C2041 1.495 . S
C2038 C2037 1.392 . S
C2038 C2039 1.385 . S
C2038 C2040 1.478 . S
C2039 H2033 0.930 . S
C2039 C2035 1.400 . S
C2039 C2038 1.385 . S
C2040 C2038 1.478 . S
C2040 C2042 1.381 . S
C2040 C2046 1.383 . S
C2041 C2037 1.495 . S
C2041 H2047 0.945 1_545 S
C2041 H2048 0.961 . S
C2041 H2049 0.960 . S
C2042 C2040 1.381 . S
C2042 C2043 1.394 . S
C2042 H2050 0.930 . S
C2043 C2042 1.394 . S
C2043 C2044 1.383 . S
C2043 H2051 0.929 . S
C2044 C2043 1.383 . S
C2044 C2045 1.377 . S
C2045 H2029 0.930 . S
C2045 C2044 1.377 . S
C2045 C2046 1.379 . S
C2046 H2030 0.931 . S
C2046 C2040 1.383 . S
C2046 C2045 1.379 . S
H2047 C2041 0.945 1_565 S
H2048 C2041 0.961 . S
H2049 C2041 0.960 . S
H2050 C2042 0.930 . S
H2051 C2043 0.929 . S
H2052 C2060 0.929 . S
H2053 C2062 0.930 . S
H2054 C2064 0.930 . S
H2055 C2067 0.929 . S
H2056 C2070 0.930 . S
H2057 C2072 0.960 . S
H2058 C2072 0.960 . S
H2059 C2072 0.960 . S
C2060 H2052 0.929 . S
C2060 C2061 1.377 . S
C2060 C2062 1.384 . S
C2061 C2060 1.377 . S
C2061 C2067 1.390 . S
C2062 H2053 0.930 . S
C2062 C2060 1.384 . S
C2062 C2063 1.372 . S
C2063 C2062 1.372 . S
C2063 C2064 1.400 . S
C2063 C2068 1.490 1_655 S
C2064 H2054 0.930 . S
C2064 C2063 1.400 . S
C2064 C2067 1.386 . S
H2065 C2081 0.930 . S
H2066 C2082 0.931 . S
C2067 H2055 0.929 . S
C2067 C2061 1.390 . S
C2067 C2064 1.386 . S
C2068 C2063 1.490 1_455 S
C2068 C2070 1.395 . S
C2068 C2071 1.403 . S
H2069 C2075 0.930 . S
C2070 H2056 0.930 . S
C2070 C2068 1.395 . S
C2070 C2073 1.403 . S
C2071 C2068 1.403 . S
C2071 C2072 1.524 1_455 S
C2071 C2075 1.400 . S
C2072 H2057 0.960 . S
C2072 H2058 0.960 . S
C2072 H2059 0.960 . S
C2072 C2071 1.524 1_655 S
C2073 C2070 1.403 . S
C2073 C2074 1.392 . S
C2073 C2077 1.495 . S
C2074 C2073 1.392 . S
C2074 C2075 1.385 . S
C2074 C2076 1.478 . S
C2075 H2069 0.930 . S
C2075 C2071 1.400 . S
C2075 C2074 1.385 . S
C2076 C2074 1.478 . S
C2076 C2078 1.381 . S
C2076 C2082 1.383 . S
C2077 C2073 1.495 . S
C2077 H2083 0.959 . S
C2077 H2084 0.961 . S
C2077 H2085 0.960 . S
C2078 C2076 1.381 . S
C2078 C2079 1.394 . S
C2078 H2086 0.930 . S
C2079 C2078 1.394 . S
C2079 C2080 1.383 . S
C2079 H2087 0.929 . S
C2080 C2079 1.383 . S
C2080 C2081 1.377 . S
C2081 H2065 0.930 . S
C2081 C2080 1.377 . S
C2081 C2082 1.379 . S
C2082 H2066 0.931 . S
C2082 C2076 1.383 . S
C2082 C2081 1.379 . S
H2083 C2077 0.959 . S
H2084 C2077 0.961 . S
H2085 C2077 0.960 . S
H2086 C2078 0.930 . S
H2087 C2079 0.929 . S
H2088 C2096 0.929 . S
H2089 C2098 0.930 . S
H2090 C2100 0.930 . S
H2091 C2103 0.929 . S
H2092 C2106 0.961 . S
H2093 C2108 0.960 . S
H2094 C2108 0.960 . S
H2095 C2108 0.960 . S
C2096 H2088 0.929 . S
C2096 C2097 1.377 . S
C2096 C2098 1.384 . S
C2097 C2096 1.377 . S
C2097 C2103 1.390 . S
C2098 H2089 0.930 . S
C2098 C2096 1.384 . S
C2098 C2099 1.372 . S
C2099 C2098 1.372 . S
C2099 C2100 1.400 . S
C2099 C2104 1.490 . S
C2100 H2090 0.930 . S
C2100 C2099 1.400 . S
C2100 C2103 1.386 . S
H2101 C2117 0.930 . S
H2102 C2118 0.931 . S
C2103 H2091 0.929 . S
C2103 C2097 1.390 . S
C2103 C2100 1.386 . S
C2104 C2099 1.490 . S
C2104 C2106 1.361 1_545 S
C2104 C2107 1.403 . S
H2105 C2111 0.930 . S
C2106 H2092 0.961 . S
C2106 C2104 1.361 1_565 S
C2106 C2109 1.408 1_554 S
C2107 C2104 1.403 . S
C2107 C2108 1.524 . S
C2107 C2111 1.400 1_554 S
C2108 H2093 0.960 . S
C2108 H2094 0.960 . S
C2108 H2095 0.960 . S
C2108 C2107 1.524 . S
C2109 C2106 1.408 1_556 S
C2109 C2110 1.392 1_565 S
C2109 C2113 1.495 . S
C2110 C2109 1.392 1_545 S
C2110 C2111 1.385 . S
C2110 C2112 1.478 . S
C2111 H2105 0.930 . S
C2111 C2107 1.400 1_556 S
C2111 C2110 1.385 . S
C2112 C2110 1.478 . S
C2112 C2114 1.381 . S
C2112 C2118 1.383 . S
C2113 C2109 1.495 . S
C2113 H2119 0.959 . S
C2113 H2120 0.961 . S
C2113 H2121 0.960 . S
C2114 C2112 1.381 . S
C2114 C2115 1.394 . S
C2114 H2122 0.930 . S
C2115 C2114 1.394 . S
C2115 C2116 1.383 . S
C2115 H2123 0.929 . S
C2116 C2115 1.383 . S
C2116 C2117 1.377 . S
C2117 H2101 0.930 . S
C2117 C2116 1.377 . S
C2117 C2118 1.379 . S
C2118 H2102 0.931 . S
C2118 C2112 1.383 . S
C2118 C2117 1.379 . S
H2119 C2113 0.959 . S
H2120 C2113 0.961 . S
H2121 C2113 0.960 . S
H2122 C2114 0.930 . S
H2123 C2115 0.929 . S
H2124 C2132 0.929 . S
H2125 C2134 0.930 . S
H2126 C2136 0.923 1_655 S
H2127 C2139 0.914 1_655 S
H2128 C2142 0.930 . S
H2129 C2144 0.960 . S
H2130 C2144 0.960 . S
H2131 C2144 0.960 . S
C2132 H2124 0.929 . S
C2132 C2133 1.377 . S
C2132 C2134 1.384 . S
C2133 C2132 1.377 . S
C2133 C2139 1.390 . S
C2134 H2125 0.930 . S
C2134 C2132 1.384 . S
C2134 C2135 1.372 . S
C2135 C2134 1.372 . S
C2135 C2136 1.400 . S
C2135 C2140 1.490 . S
C2136 H2126 0.923 1_455 S
C2136 C2135 1.400 . S
C2136 C2139 1.386 . S
H2137 C2153 0.930 . S
H2138 C2154 0.931 . S
C2139 H2127 0.914 1_455 S
C2139 C2133 1.390 . S
C2139 C2136 1.386 . S
C2140 C2135 1.490 . S
C2140 C2142 1.395 . S
C2140 C2143 1.403 . S
H2141 C2147 0.930 1_655 S
C2142 H2128 0.930 . S
C2142 C2140 1.395 . S
C2142 C2145 1.403 1_556 S
C2143 C2140 1.403 . S
C2143 C2144 1.524 1_455 S
C2143 C2147 1.400 1_556 S
C2144 H2129 0.960 . S
C2144 H2130 0.960 . S
C2144 H2131 0.960 . S
C2144 C2143 1.524 1_655 S
C2145 C2142 1.403 1_554 S
C2145 C2146 1.392 . S
C2145 C2149 1.495 . S
C2146 C2145 1.392 . S
C2146 C2147 1.385 . S
C2146 C2148 1.478 . S
C2147 H2141 0.930 1_455 S
C2147 C2143 1.400 1_554 S
C2147 C2146 1.385 . S
C2148 C2146 1.478 . S
C2148 C2150 1.381 . S
C2148 C2154 1.383 . S
C2149 C2145 1.495 . S
C2149 H2155 0.959 . S
C2149 H2156 0.961 . S
C2149 H2157 0.960 . S
C2150 C2148 1.381 . S
C2150 C2151 1.394 . S
C2150 H2158 0.930 . S
C2151 C2150 1.394 . S
C2151 C2152 1.383 . S
C2151 H2159 0.929 . S
C2152 C2151 1.383 . S
C2152 C2153 1.377 . S
C2153 H2137 0.930 . S
C2153 C2152 1.377 . S
C2153 C2154 1.379 . S
C2154 H2138 0.931 . S
C2154 C2148 1.383 . S
C2154 C2153 1.379 . S
H2155 C2149 0.959 . S
H2156 C2149 0.961 . S
H2157 C2149 0.960 . S
H2158 C2150 0.930 . S
H2159 C2151 0.929 . S
H2160 C2168 0.929 . S
H2161 C2170 0.930 . S
H2162 C2172 0.930 . S
H2163 C2175 0.929 . S
H2164 C2178 0.930 . S
H2165 C2180 0.960 . S
H2166 C2180 0.960 . S
H2167 C2180 0.960 . S
C2168 H2160 0.929 . S
C2168 C2169 1.377 . S
C2168 C2170 1.384 . S
C2169 C2168 1.377 . S
C2169 C2175 1.390 . S
C2170 H2161 0.930 . S
C2170 C2168 1.384 . S
C2170 C2171 1.372 . S
C2171 C2170 1.372 . S
C2171 C2172 1.400 . S
C2171 C2176 1.490 . S
C2172 H2162 0.930 . S
C2172 C2171 1.400 . S
C2172 C2175 1.386 . S
H2173 C2189 0.930 . S
H2174 C2190 0.931 . S
C2175 H2163 0.929 . S
C2175 C2169 1.390 . S
C2175 C2172 1.386 . S
C2176 C2171 1.490 . S
C2176 C2178 1.395 . S
C2176 C2179 1.403 . S
H2177 C2183 0.930 . S
C2178 H2164 0.930 . S
C2178 C2176 1.395 . S
C2178 C2181 1.403 1_554 S
C2179 C2176 1.403 . S
C2179 C2180 1.524 . S
C2179 C2183 1.400 1_554 S
C2180 H2165 0.960 . S
C2180 H2166 0.960 . S
C2180 H2167 0.960 . S
C2180 C2179 1.524 . S
C2181 C2178 1.403 1_556 S
C2181 C2182 1.392 . S
C2181 C2185 1.495 . S
C2182 C2181 1.392 . S
C2182 C2183 1.385 . S
C2182 C2184 1.478 . S
C2183 H2177 0.930 . S
C2183 C2179 1.400 1_556 S
C2183 C2182 1.385 . S
C2184 C2182 1.478 . S
C2184 C2186 1.381 . S
C2184 C2190 1.383 . S
C2185 C2181 1.495 . S
C2185 H2191 0.959 . S
C2185 H2192 0.961 . S
C2185 H2193 0.960 . S
C2186 C2184 1.381 . S
C2186 C2187 1.394 . S
C2186 H2194 0.930 . S
C2187 C2186 1.394 . S
C2187 C2188 1.383 . S
C2187 H2195 0.929 . S
C2188 C2187 1.383 . S
C2188 C2189 1.377 . S
C2189 H2173 0.930 . S
C2189 C2188 1.377 . S
C2189 C2190 1.379 . S
C2190 H2174 0.931 . S
C2190 C2184 1.383 . S
C2190 C2189 1.379 . S
H2191 C2185 0.959 . S
H2192 C2185 0.961 . S
H2193 C2185 0.960 . S
H2194 C2186 0.930 . S
H2195 C2187 0.929 . S
H2196 C2204 0.929 . S
H2197 C2206 0.930 . S
H2198 C2208 0.930 1_655 S
H2199 C2211 0.929 1_655 S
H2200 C2214 0.930 . S
H2201 C2216 0.960 . S
H2202 C2216 0.960 1_455 S
H2203 C2216 0.960 . S
C2204 H2196 0.929 . S
C2204 C2205 1.377 . S
C2204 C2206 1.384 . S
C2205 C2204 1.377 . S
C2205 C2211 1.390 . S
C2206 H2197 0.930 . S
C2206 C2204 1.384 . S
C2206 C2207 1.372 . S
C2207 C2206 1.372 . S
C2207 C2208 1.400 . S
C2207 C2212 1.490 . S
C2208 H2198 0.930 1_455 S
C2208 C2207 1.400 . S
C2208 C2211 1.386 . S
H2209 C2225 0.930 1_655 S
H2210 C2226 0.931 1_655 S
C2211 H2199 0.929 1_455 S
C2211 C2205 1.390 . S
C2211 C2208 1.386 . S
C2212 C2207 1.490 . S
C2212 C2214 1.395 . S
C2212 C2215 1.403 . S
H2213 C2219 0.930 . S
C2214 H2200 0.930 . S
C2214 C2212 1.395 . S
C2214 C2217 1.403 . S
C2215 C2212 1.403 . S
C2215 C2216 1.524 1_455 S
C2215 C2219 1.400 . S
C2216 H2201 0.960 . S
C2216 H2202 0.960 1_655 S
C2216 H2203 0.960 . S
C2216 C2215 1.524 1_655 S
C2217 C2214 1.403 . S
C2217 C2218 1.392 . S
C2217 C2221 1.495 . S
C2218 C2217 1.392 . S
C2218 C2219 1.385 . S
C2218 C2220 1.478 . S
C2219 H2213 0.930 . S
C2219 C2215 1.400 . S
C2219 C2218 1.385 . S
C2220 C2218 1.478 . S
C2220 C2222 1.381 . S
C2220 C2226 1.383 . S
C2221 C2217 1.495 . S
C2221 H2227 0.959 . S
C2221 H2228 0.961 . S
C2221 H2229 0.960 . S
C2222 C2220 1.381 . S
C2222 C2223 1.394 . S
C2222 H2230 0.930 . S
C2223 C2222 1.394 . S
C2223 C2224 1.383 . S
C2223 H2231 0.929 . S
C2224 C2223 1.383 . S
C2224 C2225 1.377 . S
C2225 H2209 0.930 1_455 S
C2225 C2224 1.377 . S
C2225 C2226 1.379 . S
C2226 H2210 0.931 1_455 S
C2226 C2220 1.383 . S
C2226 C2225 1.379 . S
H2227 C2221 0.959 . S
H2228 C2221 0.961 . S
H2229 C2221 0.960 . S
H2230 C2222 0.930 . S
H2231 C2223 0.929 . S
H2232 C2240 0.929 . S
H2233 C2242 0.930 . S
H2234 C2244 0.930 . S
H2235 C2247 0.929 . S
H2236 C2250 0.930 . S
H2237 C2252 0.960 . S
H2238 C2252 0.960 . S
H2239 C2252 0.960 . S
C2240 H2232 0.929 . S
C2240 C2241 1.377 . S
C2240 C2242 1.384 . S
C2241 C2240 1.377 . S
C2241 C2247 1.390 . S
C2242 H2233 0.930 . S
C2242 C2240 1.384 . S
C2242 C2243 1.372 . S
C2243 C2242 1.372 . S
C2243 C2244 1.400 . S
C2243 C2248 1.490 . S
C2244 H2234 0.930 . S
C2244 C2243 1.400 . S
C2244 C2247 1.386 . S
H2245 C2261 0.930 . S
H2246 C2262 0.931 . S
C2247 H2235 0.929 . S
C2247 C2241 1.390 . S
C2247 C2244 1.386 . S
C2248 C2243 1.490 . S
C2248 C2250 1.395 . S
C2248 C2251 1.403 . S
H2249 C2255 0.930 . S
C2250 H2236 0.930 . S
C2250 C2248 1.395 . S
C2250 C2253 1.403 . S
C2251 C2248 1.403 . S
C2251 C2252 1.524 . S
C2251 C2255 1.400 . S
C2252 H2237 0.960 . S
C2252 H2238 0.960 . S
C2252 H2239 0.960 . S
C2252 C2251 1.524 . S
C2253 C2250 1.403 . S
C2253 C2254 1.392 . S
C2253 C2257 1.495 . S
C2254 C2253 1.392 . S
C2254 C2255 1.385 . S
C2254 C2256 1.478 . S
C2255 H2249 0.930 . S
C2255 C2251 1.400 . S
C2255 C2254 1.385 . S
C2256 C2254 1.478 . S
C2256 C2258 1.381 . S
C2256 C2262 1.383 . S
C2257 C2253 1.495 . S
C2257 H2263 0.959 . S
C2257 H2264 0.961 . S
C2257 H2265 0.960 . S
C2258 C2256 1.381 . S
C2258 C2259 1.394 . S
C2258 H2266 0.930 . S
C2259 C2258 1.394 . S
C2259 C2260 1.383 . S
C2259 H2267 0.929 . S
C2260 C2259 1.383 . S
C2260 C2261 1.377 . S
C2261 H2245 0.930 . S
C2261 C2260 1.377 . S
C2261 C2262 1.379 . S
C2262 H2246 0.931 . S
C2262 C2256 1.383 . S
C2262 C2261 1.379 . S
H2263 C2257 0.959 . S
H2264 C2257 0.961 . S
H2265 C2257 0.960 . S
H2266 C2258 0.930 . S
H2267 C2259 0.929 . S
H2268 C2276 0.929 . S
H2269 C2278 0.930 . S
H2270 C2280 0.930 . S
H2271 C2283 0.929 . S
H2272 C2286 0.930 1_565 S
H2273 C2288 0.960 . S
H2274 C2288 0.960 . S
H2275 C2288 0.960 . S
C2276 H2268 0.929 . S
C2276 C2277 1.377 . S
C2276 C2278 1.384 . S
C2277 C2276 1.377 . S
C2277 C2283 1.390 . S
C2278 H2269 0.930 . S
C2278 C2276 1.384 . S
C2278 C2279 1.372 . S
C2279 C2278 1.372 . S
C2279 C2280 1.400 . S
C2279 C2284 1.490 . S
C2280 H2270 0.930 . S
C2280 C2279 1.400 . S
C2280 C2283 1.386 . S
H2281 C2297 0.930 . S
H2282 C2298 0.931 . S
C2283 H2271 0.929 . S
C2283 C2277 1.390 . S
C2283 C2280 1.386 . S
C2284 C2279 1.490 . S
C2284 C2286 1.395 . S
C2284 C2287 1.403 . S
H2285 C2291 0.930 . S
C2286 H2272 0.930 1_545 S
C2286 C2284 1.395 . S
C2286 C2289 1.403 . S
C2287 C2284 1.403 . S
C2287 C2288 1.524 . S
C2287 C2291 1.400 . S
C2288 H2273 0.960 . S
C2288 H2274 0.960 . S
C2288 H2275 0.960 . S
C2288 C2287 1.524 . S
C2289 C2286 1.403 . S
C2289 C2290 1.392 . S
C2289 C2293 1.495 1_545 S
C2290 C2289 1.392 . S
C2290 C2291 1.385 . S
C2290 C2292 1.478 . S
C2291 H2285 0.930 . S
C2291 C2287 1.400 . S
C2291 C2290 1.385 . S
C2292 C2290 1.478 . S
C2292 C2294 1.381 . S
C2292 C2298 1.383 . S
C2293 C2289 1.495 1_565 S
C2293 H2299 0.959 . S
C2293 H2300 0.961 . S
C2293 H2301 0.960 . S
C2294 C2292 1.381 . S
C2294 C2295 1.394 . S
C2294 H2302 0.930 . S
C2295 C2294 1.394 . S
C2295 C2296 1.383 . S
C2295 H2303 0.929 . S
C2296 C2295 1.383 . S
C2296 C2297 1.377 . S
C2297 H2281 0.930 . S
C2297 C2296 1.377 . S
C2297 C2298 1.379 . S
C2298 H2282 0.931 . S
C2298 C2292 1.383 . S
C2298 C2297 1.379 . S
H2299 C2293 0.959 . S
H2300 C2293 0.961 . S
H2301 C2293 0.960 . S
H2302 C2294 0.930 . S
H2303 C2295 0.929 . S
H2304 C2312 0.929 . S
H2305 C2314 0.930 . S
H2306 C2316 0.930 . S
H2307 C2319 0.929 . S
H2308 C2322 0.930 . S
H2309 C2324 0.960 . S
H2310 C2324 0.960 . S
H2311 C2324 0.960 . S
C2312 H2304 0.929 . S
C2312 C2313 1.377 . S
C2312 C2314 1.384 . S
C2313 C2312 1.377 . S
C2313 C2319 1.390 . S
C2314 H2305 0.930 . S
C2314 C2312 1.384 . S
C2314 C2315 1.372 . S
C2315 C2314 1.372 . S
C2315 C2316 1.400 . S
C2315 C2320 1.490 . S
C2316 H2306 0.930 . S
C2316 C2315 1.400 . S
C2316 C2319 1.386 . S
H2317 C2333 0.930 . S
H2318 C2334 0.931 . S
C2319 H2307 0.929 . S
C2319 C2313 1.390 . S
C2319 C2316 1.386 . S
C2320 C2315 1.490 . S
C2320 C2322 1.395 . S
C2320 C2323 1.403 . S
H2321 C2327 0.930 . S
C2322 H2308 0.930 . S
C2322 C2320 1.395 . S
C2322 C2325 1.403 . S
C2323 C2320 1.403 . S
C2323 C2324 1.524 . S
C2323 C2327 1.400 . S
C2324 H2309 0.960 . S
C2324 H2310 0.960 . S
C2324 H2311 0.960 . S
C2324 C2323 1.524 . S
C2325 C2322 1.403 . S
C2325 C2326 1.392 . S
C2325 C2329 1.495 . S
C2326 C2325 1.392 . S
C2326 C2327 1.385 . S
C2326 C2328 1.478 . S
C2327 H2321 0.930 . S
C2327 C2323 1.400 . S
C2327 C2326 1.385 . S
C2328 C2326 1.478 . S
C2328 C2330 1.381 . S
C2328 C2334 1.383 . S
C2329 C2325 1.495 . S
C2329 H2335 0.959 . S
C2329 H2336 0.961 . S
C2329 H2337 0.960 . S
C2330 C2328 1.381 . S
C2330 C2331 1.394 . S
C2330 H2338 0.930 . S
C2331 C2330 1.394 . S
C2331 C2332 1.383 . S
C2331 H2339 0.929 . S
C2332 C2331 1.383 . S
C2332 C2333 1.377 . S
C2333 H2317 0.930 . S
C2333 C2332 1.377 . S
C2333 C2334 1.379 . S
C2334 H2318 0.931 . S
C2334 C2328 1.383 . S
C2334 C2333 1.379 . S
H2335 C2329 0.959 . S
H2336 C2329 0.961 . S
H2337 C2329 0.960 . S
H2338 C2330 0.930 . S
H2339 C2331 0.929 . S
H2340 C2348 0.929 . S
H2341 C2350 0.930 . S
H2342 C2352 0.930 . S
H2343 C2355 0.929 . S
H2344 C2358 0.930 . S
H2345 C2360 0.960 . S
H2346 C2360 0.960 . S
H2347 C2360 0.960 . S
C2348 H2340 0.929 . S
C2348 C2349 1.377 . S
C2348 C2350 1.384 . S
C2349 C2348 1.377 . S
C2349 C2355 1.390 . S
C2350 H2341 0.930 . S
C2350 C2348 1.384 . S
C2350 C2351 1.372 . S
C2351 C2350 1.372 . S
C2351 C2352 1.400 . S
C2351 C2356 1.490 . S
C2352 H2342 0.930 . S
C2352 C2351 1.400 . S
C2352 C2355 1.386 . S
H2353 C2369 0.930 . S
H2354 C2370 0.931 . S
C2355 H2343 0.929 . S
C2355 C2349 1.390 . S
C2355 C2352 1.386 . S
C2356 C2351 1.490 . S
C2356 C2358 1.395 . S
C2356 C2359 1.403 . S
H2357 C2363 0.930 . S
C2358 H2344 0.930 . S
C2358 C2356 1.395 . S
C2358 C2361 1.403 . S
C2359 C2356 1.403 . S
C2359 C2360 1.524 . S
C2359 C2363 1.400 . S
C2360 H2345 0.960 . S
C2360 H2346 0.960 . S
C2360 H2347 0.960 . S
C2360 C2359 1.524 . S
C2361 C2358 1.403 . S
C2361 C2362 1.392 . S
C2361 C2365 1.495 . S
C2362 C2361 1.392 . S
C2362 C2363 1.385 . S
C2362 C2364 1.478 . S
C2363 H2357 0.930 . S
C2363 C2359 1.400 . S
C2363 C2362 1.385 . S
C2364 C2362 1.478 . S
C2364 C2366 1.381 . S
C2364 C2370 1.383 . S
C2365 C2361 1.495 . S
C2365 H2371 0.959 . S
C2365 H2372 0.961 . S
C2365 H2373 0.960 . S
C2366 C2364 1.381 . S
C2366 C2367 1.394 . S
C2366 H2374 0.930 . S
C2367 C2366 1.394 . S
C2367 C2368 1.383 . S
C2367 H2375 0.929 . S
C2368 C2367 1.383 . S
C2368 C2369 1.377 . S
C2369 H2353 0.930 . S
C2369 C2368 1.377 . S
C2369 C2370 1.379 . S
C2370 H2354 0.931 . S
C2370 C2364 1.383 . S
C2370 C2369 1.379 . S
H2371 C2365 0.959 . S
H2372 C2365 0.961 . S
H2373 C2365 0.960 . S
H2374 C2366 0.930 . S
H2375 C2367 0.929 . S
H2376 C2384 0.929 . S
H2377 C2386 0.930 . S
H2378 C2388 0.930 . S
H2379 C2391 0.929 . S
H2380 C2394 0.930 . S
H2381 C2396 0.960 . S
H2382 C2396 0.960 . S
H2383 C2396 0.960 . S
C2384 H2376 0.929 . S
C2384 C2385 1.377 . S
C2384 C2386 1.384 . S
C2385 C2384 1.377 . S
C2385 C2391 1.390 . S
C2386 H2377 0.930 . S
C2386 C2384 1.384 . S
C2386 C2387 1.372 . S
C2387 C2386 1.372 . S
C2387 C2388 1.400 . S
C2387 C2392 1.490 . S
C2388 H2378 0.930 . S
C2388 C2387 1.400 . S
C2388 C2391 1.386 . S
H2389 C2405 0.930 . S
H2390 C2406 0.931 . S
C2391 H2379 0.929 . S
C2391 C2385 1.390 . S
C2391 C2388 1.386 . S
C2392 C2387 1.490 . S
C2392 C2394 1.395 . S
C2392 C2395 1.403 . S
H2393 C2399 0.930 . S
C2394 H2380 0.930 . S
C2394 C2392 1.395 . S
C2394 C2397 1.403 . S
C2395 C2392 1.403 . S
C2395 C2396 1.524 . S
C2395 C2399 1.400 . S
C2396 H2381 0.960 . S
C2396 H2382 0.960 . S
C2396 H2383 0.960 . S
C2396 C2395 1.524 . S
C2397 C2394 1.403 . S
C2397 C2398 1.392 . S
C2397 C2401 1.495 . S
C2398 C2397 1.392 . S
C2398 C2399 1.385 . S
C2398 C2400 1.478 . S
C2399 H2393 0.930 . S
C2399 C2395 1.400 . S
C2399 C2398 1.385 . S
C2400 C2398 1.478 . S
C2400 C2402 1.381 . S
C2400 C2406 1.383 . S
C2401 C2397 1.495 . S
C2401 H2407 0.959 . S
C2401 H2408 0.961 . S
C2401 H2409 0.960 . S
C2402 C2400 1.381 . S
C2402 C2403 1.394 . S
C2402 H2410 0.930 . S
C2403 C2402 1.394 . S
C2403 C2404 1.383 . S
C2403 H2411 0.929 . S
C2404 C2403 1.383 . S
C2404 C2405 1.377 . S
C2405 H2389 0.930 . S
C2405 C2404 1.377 . S
C2405 C2406 1.379 . S
C2406 H2390 0.931 . S
C2406 C2400 1.383 . S
C2406 C2405 1.379 . S
H2407 C2401 0.959 . S
H2408 C2401 0.961 . S
H2409 C2401 0.960 . S
H2410 C2402 0.930 . S
H2411 C2403 0.929 . S
H2412 C2420 0.929 . S
H2413 C2422 0.930 . S
H2414 C2424 0.930 . S
H2415 C2427 0.929 . S
H2416 C2430 0.930 . S
H2417 C2432 0.960 . S
H2418 C2432 0.960 . S
H2419 C2432 0.960 . S
C2420 H2412 0.929 . S
C2420 C2421 1.377 . S
C2420 C2422 1.384 . S
C2421 C2420 1.377 . S
C2421 C2427 1.390 . S
C2422 H2413 0.930 . S
C2422 C2420 1.384 . S
C2422 C2423 1.372 . S
C2423 C2422 1.372 . S
C2423 C2424 1.400 . S
C2423 C2428 1.490 . S
C2424 H2414 0.930 . S
C2424 C2423 1.400 . S
C2424 C2427 1.386 . S
H2425 C2441 0.930 . S
H2426 C2442 0.931 . S
C2427 H2415 0.929 . S
C2427 C2421 1.390 . S
C2427 C2424 1.386 . S
C2428 C2423 1.490 . S
C2428 C2430 1.395 . S
C2428 C2431 1.403 . S
H2429 C2435 0.930 . S
C2430 H2416 0.930 . S
C2430 C2428 1.395 . S
C2430 C2433 1.403 . S
C2431 C2428 1.403 . S
C2431 C2432 1.524 . S
C2431 C2435 1.400 . S
C2432 H2417 0.960 . S
C2432 H2418 0.960 . S
C2432 H2419 0.960 . S
C2432 C2431 1.524 . S
C2433 C2430 1.403 . S
C2433 C2434 1.392 . S
C2433 C2437 1.495 . S
C2434 C2433 1.392 . S
C2434 C2435 1.385 . S
C2434 C2436 1.478 . S
C2435 H2429 0.930 . S
C2435 C2431 1.400 . S
C2435 C2434 1.385 . S
C2436 C2434 1.478 . S
C2436 C2438 1.381 . S
C2436 C2442 1.383 . S
C2437 C2433 1.495 . S
C2437 H2443 0.959 . S
C2437 H2444 0.961 . S
C2437 H2445 0.960 . S
C2438 C2436 1.381 . S
C2438 C2439 1.394 . S
C2438 H2446 0.930 . S
C2439 C2438 1.394 . S
C2439 C2440 1.383 . S
C2439 H2447 0.929 . S
C2440 C2439 1.383 . S
C2440 C2441 1.377 . S
C2441 H2425 0.930 . S
C2441 C2440 1.377 . S
C2441 C2442 1.379 . S
C2442 H2426 0.931 . S
C2442 C2436 1.383 . S
C2442 C2441 1.379 . S
H2443 C2437 0.959 . S
H2444 C2437 0.961 . S
H2445 C2437 0.960 . S
H2446 C2438 0.930 . S
H2447 C2439 0.929 . S
H2448 C2456 0.929 . S
H2449 C2458 0.930 . S
H2450 C2460 0.930 . S
H2451 C2463 0.929 . S
H2452 C2466 0.930 . S
H2453 C2468 0.960 . S
H2454 C2468 0.960 . S
H2455 C2468 0.960 . S
C2456 H2448 0.929 . S
C2456 C2457 1.377 . S
C2456 C2458 1.384 . S
C2457 C2456 1.377 . S
C2457 C2463 1.390 . S
C2458 H2449 0.930 . S
C2458 C2456 1.384 . S
C2458 C2459 1.372 . S
C2459 C2458 1.372 . S
C2459 C2460 1.400 . S
C2459 C2464 1.490 . S
C2460 H2450 0.930 . S
C2460 C2459 1.400 . S
C2460 C2463 1.386 . S
H2461 C2477 0.930 . S
H2462 C2478 0.931 . S
C2463 H2451 0.929 . S
C2463 C2457 1.390 . S
C2463 C2460 1.386 . S
C2464 C2459 1.490 . S
C2464 C2466 1.395 . S
C2464 C2467 1.403 . S
H2465 C2471 0.930 . S
C2466 H2452 0.930 . S
C2466 C2464 1.395 . S
C2466 C2469 1.403 . S
C2467 C2464 1.403 . S
C2467 C2468 1.524 . S
C2467 C2471 1.400 . S
C2468 H2453 0.960 . S
C2468 H2454 0.960 . S
C2468 H2455 0.960 . S
C2468 C2467 1.524 . S
C2469 C2466 1.403 . S
C2469 C2470 1.392 . S
C2469 C2473 1.495 . S
C2470 C2469 1.392 . S
C2470 C2471 1.385 . S
C2470 C2472 1.478 . S
C2471 H2465 0.930 . S
C2471 C2467 1.400 . S
C2471 C2470 1.385 . S
C2472 C2470 1.478 . S
C2472 C2474 1.381 . S
C2472 C2478 1.383 . S
C2473 C2469 1.495 . S
C2473 H2479 0.959 . S
C2473 H2480 0.961 . S
C2473 H2481 0.960 . S
C2474 C2472 1.381 . S
C2474 C2475 1.394 . S
C2474 H2482 0.930 . S
C2475 C2474 1.394 . S
C2475 C2476 1.383 . S
C2475 H2483 0.929 . S
C2476 C2475 1.383 . S
C2476 C2477 1.377 . S
C2477 H2461 0.930 . S
C2477 C2476 1.377 . S
C2477 C2478 1.379 . S
C2478 H2462 0.931 . S
C2478 C2472 1.383 . S
C2478 C2477 1.379 . S
H2479 C2473 0.959 . S
H2480 C2473 0.961 . S
H2481 C2473 0.960 . S
H2482 C2474 0.930 . S
H2483 C2475 0.929 . S
H2484 C2492 0.929 . S
H2485 C2494 0.930 . S
H2486 C2496 0.930 . S
H2487 C2499 0.929 . S
H2488 C2502 0.930 . S
H2489 C2504 0.960 . S
H2490 C2504 0.960 . S
H2491 C2504 0.960 . S
C2492 H2484 0.929 . S
C2492 C2493 1.377 . S
C2492 C2494 1.384 . S
C2493 C2492 1.377 . S
C2493 C2499 1.390 . S
C2494 H2485 0.930 . S
C2494 C2492 1.384 . S
C2494 C2495 1.372 . S
C2495 C2494 1.372 . S
C2495 C2496 1.400 . S
C2495 C2500 1.490 . S
C2496 H2486 0.930 . S
C2496 C2495 1.400 . S
C2496 C2499 1.386 . S
H2497 C2513 0.930 . S
H2498 C2514 0.931 . S
C2499 H2487 0.929 . S
C2499 C2493 1.390 . S
C2499 C2496 1.386 . S
C2500 C2495 1.490 . S
C2500 C2502 1.395 . S
C2500 C2503 1.403 . S
H2501 C2507 0.930 . S
C2502 H2488 0.930 . S
C2502 C2500 1.395 . S
C2502 C2505 1.403 . S
C2503 C2500 1.403 . S
C2503 C2504 1.524 . S
C2503 C2507 1.400 . S
C2504 H2489 0.960 . S
C2504 H2490 0.960 . S
C2504 H2491 0.960 . S
C2504 C2503 1.524 . S
C2505 C2502 1.403 . S
C2505 C2506 1.392 . S
C2505 C2509 1.495 . S
C2506 C2505 1.392 . S
C2506 C2507 1.385 . S
C2506 C2508 1.478 . S
C2507 H2501 0.930 . S
C2507 C2503 1.400 . S
C2507 C2506 1.385 . S
C2508 C2506 1.478 . S
C2508 C2510 1.381 . S
C2508 C2514 1.383 . S
C2509 C2505 1.495 . S
C2509 H2515 0.959 . S
C2509 H2516 0.961 . S
C2509 H2517 0.960 . S
C2510 C2508 1.381 . S
C2510 C2511 1.394 . S
C2510 H2518 0.930 . S
C2511 C2510 1.394 . S
C2511 C2512 1.383 . S
C2511 H2519 0.929 . S
C2512 C2511 1.383 . S
C2512 C2513 1.377 . S
C2513 H2497 0.930 . S
C2513 C2512 1.377 . S
C2513 C2514 1.379 . S
C2514 H2498 0.931 . S
C2514 C2508 1.383 . S
C2514 C2513 1.379 . S
H2515 C2509 0.959 . S
H2516 C2509 0.961 . S
H2517 C2509 0.960 . S
H2518 C2510 0.930 . S
H2519 C2511 0.929 . S
H2520 C2528 0.929 . S
H2521 C2530 0.930 . S
H2522 C2532 0.930 . S
H2523 C2535 0.929 . S
H2524 C2538 0.930 . S
H2525 C2540 0.960 . S
H2526 C2540 0.960 . S
H2527 C2540 0.960 . S
C2528 H2520 0.929 . S
C2528 C2529 1.377 . S
C2528 C2530 1.384 . S
C2529 C2528 1.377 . S
C2529 C2535 1.390 . S
C2530 H2521 0.930 . S
C2530 C2528 1.384 . S
C2530 C2531 1.372 . S
C2531 C2530 1.372 . S
C2531 C2532 1.400 . S
C2531 C2536 1.490 . S
C2532 H2522 0.930 . S
C2532 C2531 1.400 . S
C2532 C2535 1.386 . S
H2533 C2549 0.930 . S
H2534 C2550 0.931 . S
C2535 H2523 0.929 . S
C2535 C2529 1.390 . S
C2535 C2532 1.386 . S
C2536 C2531 1.490 . S
C2536 C2538 1.395 . S
C2536 C2539 1.403 . S
H2537 C2543 0.930 . S
C2538 H2524 0.930 . S
C2538 C2536 1.395 . S
C2538 C2541 1.403 . S
C2539 C2536 1.403 . S
C2539 C2540 1.524 . S
C2539 C2543 1.400 . S
C2540 H2525 0.960 . S
C2540 H2526 0.960 . S
C2540 H2527 0.960 . S
C2540 C2539 1.524 . S
C2541 C2538 1.403 . S
C2541 C2542 1.392 . S
C2541 C2545 1.495 . S
C2542 C2541 1.392 . S
C2542 C2543 1.385 . S
C2542 C2544 1.478 . S
C2543 H2537 0.930 . S
C2543 C2539 1.400 . S
C2543 C2542 1.385 . S
C2544 C2542 1.478 . S
C2544 C2546 1.381 . S
C2544 C2550 1.383 . S
C2545 C2541 1.495 . S
C2545 H2551 0.959 . S
C2545 H2552 0.961 . S
C2545 H2553 0.960 . S
C2546 C2544 1.381 . S
C2546 C2547 1.394 . S
C2546 H2554 0.930 . S
C2547 C2546 1.394 . S
C2547 C2548 1.383 . S
C2547 H2555 0.929 . S
C2548 C2547 1.383 . S
C2548 C2549 1.377 . S
C2549 H2533 0.930 . S
C2549 C2548 1.377 . S
C2549 C2550 1.379 . S
C2550 H2534 0.931 . S
C2550 C2544 1.383 . S
C2550 C2549 1.379 . S
H2551 C2545 0.959 . S
H2552 C2545 0.961 . S
H2553 C2545 0.960 . S
H2554 C2546 0.930 . S
H2555 C2547 0.929 . S
H2556 C2564 0.929 . S
H2557 C2566 0.930 . S
H2558 C2568 0.930 . S
H2559 C2571 0.929 . S
H2560 C2574 0.930 . S
H2561 C2576 0.960 . S
H2562 C2576 0.960 . S
H2563 C2576 0.960 . S
C2564 H2556 0.929 . S
C2564 C2565 1.377 . S
C2564 C2566 1.384 . S
C2565 C2564 1.377 . S
C2565 C2571 1.390 . S
C2566 H2557 0.930 . S
C2566 C2564 1.384 . S
C2566 C2567 1.372 . S
C2567 C2566 1.372 . S
C2567 C2568 1.400 . S
C2567 C2572 1.490 . S
C2568 H2558 0.930 . S
C2568 C2567 1.400 . S
C2568 C2571 1.386 . S
H2569 C2585 0.930 . S
H2570 C2586 0.931 . S
C2571 H2559 0.929 . S
C2571 C2565 1.390 . S
C2571 C2568 1.386 . S
C2572 C2567 1.490 . S
C2572 C2574 1.395 . S
C2572 C2575 1.403 . S
H2573 C2579 0.930 . S
C2574 H2560 0.930 . S
C2574 C2572 1.395 . S
C2574 C2577 1.403 . S
C2575 C2572 1.403 . S
C2575 C2576 1.524 . S
C2575 C2579 1.400 . S
C2576 H2561 0.960 . S
C2576 H2562 0.960 . S
C2576 H2563 0.960 . S
C2576 C2575 1.524 . S
C2577 C2574 1.403 . S
C2577 C2578 1.392 . S
C2577 C2581 1.495 . S
C2578 C2577 1.392 . S
C2578 C2579 1.385 . S
C2578 C2580 1.478 . S
C2579 H2573 0.930 . S
C2579 C2575 1.400 . S
C2579 C2578 1.385 . S
C2580 C2578 1.478 . S
C2580 C2582 1.381 . S
C2580 C2586 1.383 . S
C2581 C2577 1.495 . S
C2581 H2587 0.959 . S
C2581 H2588 0.961 . S
C2581 H2589 0.960 . S
C2582 C2580 1.381 . S
C2582 C2583 1.394 . S
C2582 H2590 0.930 . S
C2583 C2582 1.394 . S
C2583 C2584 1.383 . S
C2583 H2591 0.929 . S
C2584 C2583 1.383 . S
C2584 C2585 1.377 . S
C2585 H2569 0.930 . S
C2585 C2584 1.377 . S
C2585 C2586 1.379 . S
C2586 H2570 0.931 . S
C2586 C2580 1.383 . S
C2586 C2585 1.379 . S
H2587 C2581 0.959 . S
H2588 C2581 0.961 . S
H2589 C2581 0.960 . S
H2590 C2582 0.930 . S
H2591 C2583 0.929 . S
H2592 C2600 0.929 . S
H2593 C2602 0.930 . S
H2594 C2604 0.930 . S
H2595 C2607 0.929 . S
H2596 C2610 0.930 . S
H2597 C2612 0.960 . S
H2598 C2612 0.960 . S
H2599 C2612 0.960 . S
C2600 H2592 0.929 . S
C2600 C2601 1.377 . S
C2600 C2602 1.384 . S
C2601 C2600 1.377 . S
C2601 C2607 1.390 . S
C2602 H2593 0.930 . S
C2602 C2600 1.384 . S
C2602 C2603 1.372 . S
C2603 C2602 1.372 . S
C2603 C2604 1.400 . S
C2603 C2608 1.490 . S
C2604 H2594 0.930 . S
C2604 C2603 1.400 . S
C2604 C2607 1.386 . S
H2605 C2621 0.930 . S
H2606 C2622 0.931 . S
C2607 H2595 0.929 . S
C2607 C2601 1.390 . S
C2607 C2604 1.386 . S
C2608 C2603 1.490 . S
C2608 C2610 1.395 . S
C2608 C2611 1.403 . S
H2609 C2615 0.930 . S
C2610 H2596 0.930 . S
C2610 C2608 1.395 . S
C2610 C2613 1.403 . S
C2611 C2608 1.403 . S
C2611 C2612 1.524 . S
C2611 C2615 1.400 . S
C2612 H2597 0.960 . S
C2612 H2598 0.960 . S
C2612 H2599 0.960 . S
C2612 C2611 1.524 . S
C2613 C2610 1.403 . S
C2613 C2614 1.392 . S
C2613 C2617 1.495 . S
C2614 C2613 1.392 . S
C2614 C2615 1.385 . S
C2614 C2616 1.478 . S
C2615 H2609 0.930 . S
C2615 C2611 1.400 . S
C2615 C2614 1.385 . S
C2616 C2614 1.478 . S
C2616 C2618 1.381 . S
C2616 C2622 1.383 . S
C2617 C2613 1.495 . S
C2617 H2623 0.959 . S
C2617 H2624 0.961 . S
C2617 H2625 0.960 . S
C2618 C2616 1.381 . S
C2618 C2619 1.394 . S
C2618 H2626 0.930 . S
C2619 C2618 1.394 . S
C2619 C2620 1.383 . S
C2619 H2627 0.929 . S
C2620 C2619 1.383 . S
C2620 C2621 1.377 . S
C2621 H2605 0.930 . S
C2621 C2620 1.377 . S
C2621 C2622 1.379 . S
C2622 H2606 0.931 . S
C2622 C2616 1.383 . S
C2622 C2621 1.379 . S
H2623 C2617 0.959 . S
H2624 C2617 0.961 . S
H2625 C2617 0.960 . S
H2626 C2618 0.930 . S
H2627 C2619 0.929 . S
H2628 C2636 0.929 . S
H2629 C2638 0.930 . S
H2630 C2640 0.930 . S
H2631 C2643 0.929 . S
H2632 C2646 0.930 . S
H2633 C2648 0.960 . S
H2634 C2648 0.960 . S
H2635 C2648 0.960 . S
C2636 H2628 0.929 . S
C2636 C2637 1.377 . S
C2636 C2638 1.384 . S
C2637 C2636 1.377 . S
C2637 C2643 1.390 . S
C2638 H2629 0.930 . S
C2638 C2636 1.384 . S
C2638 C2639 1.372 . S
C2639 C2638 1.372 . S
C2639 C2640 1.400 . S
C2639 C2644 1.490 . S
C2640 H2630 0.930 . S
C2640 C2639 1.400 . S
C2640 C2643 1.386 . S
H2641 C2657 0.930 . S
H2642 C2658 0.931 . S
C2643 H2631 0.929 . S
C2643 C2637 1.390 . S
C2643 C2640 1.386 . S
C2644 C2639 1.490 . S
C2644 C2646 1.395 . S
C2644 C2647 1.403 . S
H2645 C2651 0.930 . S
C2646 H2632 0.930 . S
C2646 C2644 1.395 . S
C2646 C2649 1.403 . S
C2647 C2644 1.403 . S
C2647 C2648 1.524 . S
C2647 C2651 1.400 . S
C2648 H2633 0.960 . S
C2648 H2634 0.960 . S
C2648 H2635 0.960 . S
C2648 C2647 1.524 . S
C2649 C2646 1.403 . S
C2649 C2650 1.392 . S
C2649 C2653 1.495 . S
C2650 C2649 1.392 . S
C2650 C2651 1.385 . S
C2650 C2652 1.478 . S
C2651 H2645 0.930 . S
C2651 C2647 1.400 . S
C2651 C2650 1.385 . S
C2652 C2650 1.478 . S
C2652 C2654 1.381 . S
C2652 C2658 1.383 . S
C2653 C2649 1.495 . S
C2653 H2659 0.959 . S
C2653 H2660 0.961 . S
C2653 H2661 0.960 . S
C2654 C2652 1.381 . S
C2654 C2655 1.394 . S
C2654 H2662 0.930 . S
C2655 C2654 1.394 . S
C2655 C2656 1.383 . S
C2655 H2663 0.929 . S
C2656 C2655 1.383 . S
C2656 C2657 1.377 . S
C2657 H2641 0.930 . S
C2657 C2656 1.377 . S
C2657 C2658 1.379 . S
C2658 H2642 0.931 . S
C2658 C2652 1.383 . S
C2658 C2657 1.379 . S
H2659 C2653 0.959 . S
H2660 C2653 0.961 . S
H2661 C2653 0.960 . S
H2662 C2654 0.930 . S
H2663 C2655 0.929 . S
H2664 C2672 0.929 . S
H2665 C2674 0.930 . S
H2666 C2676 0.930 . S
H2667 C2679 0.929 . S
H2668 C2682 0.930 . S
H2669 C2684 0.960 . S
H2670 C2684 0.960 . S
H2671 C2684 0.960 . S
C2672 H2664 0.929 . S
C2672 C2673 1.377 . S
C2672 C2674 1.384 . S
C2673 C2672 1.377 . S
C2673 C2679 1.390 . S
C2674 H2665 0.930 . S
C2674 C2672 1.384 . S
C2674 C2675 1.372 . S
C2675 C2674 1.372 . S
C2675 C2676 1.400 . S
C2675 C2680 1.490 . S
C2676 H2666 0.930 . S
C2676 C2675 1.400 . S
C2676 C2679 1.386 . S
H2677 C2693 0.930 . S
H2678 C2694 0.931 . S
C2679 H2667 0.929 . S
C2679 C2673 1.390 . S
C2679 C2676 1.386 . S
C2680 C2675 1.490 . S
C2680 C2682 1.395 . S
C2680 C2683 1.403 . S
H2681 C2687 0.930 . S
C2682 H2668 0.930 . S
C2682 C2680 1.395 . S
C2682 C2685 1.403 . S
C2683 C2680 1.403 . S
C2683 C2684 1.524 . S
C2683 C2687 1.400 . S
C2684 H2669 0.960 . S
C2684 H2670 0.960 . S
C2684 H2671 0.960 . S
C2684 C2683 1.524 . S
C2685 C2682 1.403 . S
C2685 C2686 1.392 . S
C2685 C2689 1.495 . S
C2686 C2685 1.392 . S
C2686 C2687 1.385 . S
C2686 C2688 1.478 . S
C2687 H2681 0.930 . S
C2687 C2683 1.400 . S
C2687 C2686 1.385 . S
C2688 C2686 1.478 . S
C2688 C2690 1.381 . S
C2688 C2694 1.383 . S
C2689 C2685 1.495 . S
C2689 H2695 0.959 . S
C2689 H2696 0.961 . S
C2689 H2697 0.960 . S
C2690 C2688 1.381 . S
C2690 C2691 1.394 . S
C2690 H2698 0.930 . S
C2691 C2690 1.394 . S
C2691 C2692 1.383 . S
C2691 H2699 0.929 . S
C2692 C2691 1.383 . S
C2692 C2693 1.377 . S
C2693 H2677 0.930 . S
C2693 C2692 1.377 . S
C2693 C2694 1.379 . S
C2694 H2678 0.931 . S
C2694 C2688 1.383 . S
C2694 C2693 1.379 . S
H2695 C2689 0.959 . S
H2696 C2689 0.961 . S
H2697 C2689 0.960 . S
H2698 C2690 0.930 . S
H2699 C2691 0.929 . S
H2700 C2708 0.929 . S
H2701 C2710 0.930 . S
H2702 C2712 0.930 . S
H2703 C2715 0.929 . S
H2704 C2718 0.930 . S
H2705 C2720 0.960 . S
H2706 C2720 0.960 . S
H2707 C2720 0.960 . S
C2708 H2700 0.929 . S
C2708 C2709 1.377 . S
C2708 C2710 1.384 . S
C2709 C2708 1.377 . S
C2709 C2715 1.390 . S
C2710 H2701 0.930 . S
C2710 C2708 1.384 . S
C2710 C2711 1.372 . S
C2711 C2710 1.372 . S
C2711 C2712 1.400 . S
C2711 C2716 1.490 . S
C2712 H2702 0.930 . S
C2712 C2711 1.400 . S
C2712 C2715 1.386 . S
H2713 C2729 0.930 . S
H2714 C2730 0.931 . S
C2715 H2703 0.929 . S
C2715 C2709 1.390 . S
C2715 C2712 1.386 . S
C2716 C2711 1.490 . S
C2716 C2718 1.395 . S
C2716 C2719 1.403 . S
H2717 C2723 0.930 . S
C2718 H2704 0.930 . S
C2718 C2716 1.395 . S
C2718 C2721 1.403 . S
C2719 C2716 1.403 . S
C2719 C2720 1.524 . S
C2719 C2723 1.400 . S
C2720 H2705 0.960 . S
C2720 H2706 0.960 . S
C2720 H2707 0.960 . S
C2720 C2719 1.524 . S
C2721 C2718 1.403 . S
C2721 C2722 1.392 . S
C2721 C2725 1.495 . S
C2722 C2721 1.392 . S
C2722 C2723 1.385 . S
C2722 C2724 1.478 . S
C2723 H2717 0.930 . S
C2723 C2719 1.400 . S
C2723 C2722 1.385 . S
C2724 C2722 1.478 . S
C2724 C2726 1.381 . S
C2724 C2730 1.383 . S
C2725 C2721 1.495 . S
C2725 H2731 0.959 . S
C2725 H2732 0.961 . S
C2725 H2733 0.960 . S
C2726 C2724 1.381 . S
C2726 C2727 1.394 . S
C2726 H2734 0.930 . S
C2727 C2726 1.394 . S
C2727 C2728 1.383 . S
C2727 H2735 0.929 . S
C2728 C2727 1.383 . S
C2728 C2729 1.377 . S
C2729 H2713 0.930 . S
C2729 C2728 1.377 . S
C2729 C2730 1.379 . S
C2730 H2714 0.931 . S
C2730 C2724 1.383 . S
C2730 C2729 1.379 . S
H2731 C2725 0.959 . S
H2732 C2725 0.961 . S
H2733 C2725 0.960 . S
H2734 C2726 0.930 . S
H2735 C2727 0.929 . S
H2736 C2744 0.929 . S
H2737 C2746 0.930 . S
H2738 C2748 0.930 . S
H2739 C2751 0.929 . S
H2740 C2754 0.930 . S
H2741 C2756 0.960 . S
H2742 C2756 0.960 . S
H2743 C2756 0.960 . S
C2744 H2736 0.929 . S
C2744 C2745 1.377 . S
C2744 C2746 1.384 . S
C2745 C2744 1.377 . S
C2745 C2751 1.390 . S
C2746 H2737 0.930 . S
C2746 C2744 1.384 . S
C2746 C2747 1.372 . S
C2747 C2746 1.372 . S
C2747 C2748 1.400 . S
C2747 C2752 1.490 . S
C2748 H2738 0.930 . S
C2748 C2747 1.400 . S
C2748 C2751 1.386 . S
H2749 C2765 0.930 . S
H2750 C2766 0.931 . S
C2751 H2739 0.929 . S
C2751 C2745 1.390 . S
C2751 C2748 1.386 . S
C2752 C2747 1.490 . S
C2752 C2754 1.395 . S
C2752 C2755 1.403 . S
H2753 C2759 0.930 . S
C2754 H2740 0.930 . S
C2754 C2752 1.395 . S
C2754 C2757 1.403 . S
C2755 C2752 1.403 . S
C2755 C2756 1.524 . S
C2755 C2759 1.400 . S
C2756 H2741 0.960 . S
C2756 H2742 0.960 . S
C2756 H2743 0.960 . S
C2756 C2755 1.524 . S
C2757 C2754 1.403 . S
C2757 C2758 1.392 . S
C2757 C2761 1.495 . S
C2758 C2757 1.392 . S
C2758 C2759 1.385 . S
C2758 C2760 1.478 . S
C2759 H2753 0.930 . S
C2759 C2755 1.400 . S
C2759 C2758 1.385 . S
C2760 C2758 1.478 . S
C2760 C2762 1.381 . S
C2760 C2766 1.383 . S
C2761 C2757 1.495 . S
C2761 H2767 0.959 . S
C2761 H2768 0.961 . S
C2761 H2769 0.960 . S
C2762 C2760 1.381 . S
C2762 C2763 1.394 . S
C2762 H2770 0.930 . S
C2763 C2762 1.394 . S
C2763 C2764 1.383 . S
C2763 H2771 0.929 . S
C2764 C2763 1.383 . S
C2764 C2765 1.377 . S
C2765 H2749 0.930 . S
C2765 C2764 1.377 . S
C2765 C2766 1.379 . S
C2766 H2750 0.931 . S
C2766 C2760 1.383 . S
C2766 C2765 1.379 . S
H2767 C2761 0.959 . S
H2768 C2761 0.961 . S
H2769 C2761 0.960 . S
H2770 C2762 0.930 . S
H2771 C2763 0.929 . S
H2772 C2780 0.929 . S
H2773 C2782 0.930 . S
H2774 C2784 0.930 . S
H2775 C2787 0.929 . S
H2776 C2790 0.930 . S
H2777 C2792 0.960 . S
H2778 C2792 0.960 . S
H2779 C2792 0.960 . S
C2780 H2772 0.929 . S
C2780 C2781 1.377 . S
C2780 C2782 1.384 . S
C2781 C2780 1.377 . S
C2781 C2787 1.390 . S
C2782 H2773 0.930 . S
C2782 C2780 1.384 . S
C2782 C2783 1.372 . S
C2783 C2782 1.372 . S
C2783 C2784 1.400 . S
C2783 C2788 1.490 . S
C2784 H2774 0.930 . S
C2784 C2783 1.400 . S
C2784 C2787 1.386 . S
H2785 C2801 0.930 . S
H2786 C2802 0.931 . S
C2787 H2775 0.929 . S
C2787 C2781 1.390 . S
C2787 C2784 1.386 . S
C2788 C2783 1.490 . S
C2788 C2790 1.395 . S
C2788 C2791 1.403 . S
H2789 C2795 0.930 . S
C2790 H2776 0.930 . S
C2790 C2788 1.395 . S
C2790 C2793 1.403 . S
C2791 C2788 1.403 . S
C2791 C2792 1.524 . S
C2791 C2795 1.400 . S
C2792 H2777 0.960 . S
C2792 H2778 0.960 . S
C2792 H2779 0.960 . S
C2792 C2791 1.524 . S
C2793 C2790 1.403 . S
C2793 C2794 1.392 . S
C2793 C2797 1.495 . S
C2794 C2793 1.392 . S
C2794 C2795 1.385 . S
C2794 C2796 1.478 . S
C2795 H2789 0.930 . S
C2795 C2791 1.400 . S
C2795 C2794 1.385 . S
C2796 C2794 1.478 . S
C2796 C2798 1.381 . S
C2796 C2802 1.383 . S
C2797 C2793 1.495 . S
C2797 H2803 0.959 . S
C2797 H2804 0.961 . S
C2797 H2805 0.960 . S
C2798 C2796 1.381 . S
C2798 C2799 1.394 . S
C2798 H2806 0.930 . S
C2799 C2798 1.394 . S
C2799 C2800 1.383 . S
C2799 H2807 0.929 . S
C2800 C2799 1.383 . S
C2800 C2801 1.377 . S
C2801 H2785 0.930 . S
C2801 C2800 1.377 . S
C2801 C2802 1.379 . S
C2802 H2786 0.931 . S
C2802 C2796 1.383 . S
C2802 C2801 1.379 . S
H2803 C2797 0.959 . S
H2804 C2797 0.961 . S
H2805 C2797 0.960 . S
H2806 C2798 0.930 . S
H2807 C2799 0.929 . S
H2808 C2816 0.929 . S
H2809 C2818 0.930 . S
H2810 C2820 0.930 . S
H2811 C2823 0.929 . S
H2812 C2826 0.930 . S
H2813 C2828 0.960 . S
H2814 C2828 0.960 . S
H2815 C2828 0.960 . S
C2816 H2808 0.929 . S
C2816 C2817 1.377 . S
C2816 C2818 1.384 . S
C2817 C2816 1.377 . S
C2817 C2823 1.390 . S
C2818 H2809 0.930 . S
C2818 C2816 1.384 . S
C2818 C2819 1.372 . S
C2819 C2818 1.372 . S
C2819 C2820 1.400 . S
C2819 C2824 1.490 . S
C2820 H2810 0.930 . S
C2820 C2819 1.400 . S
C2820 C2823 1.386 . S
H2821 C2837 0.930 . S
H2822 C2838 0.931 . S
C2823 H2811 0.929 . S
C2823 C2817 1.390 . S
C2823 C2820 1.386 . S
C2824 C2819 1.490 . S
C2824 C2826 1.395 . S
C2824 C2827 1.403 . S
H2825 C2831 0.930 . S
C2826 H2812 0.930 . S
C2826 C2824 1.395 . S
C2826 C2829 1.403 . S
C2827 C2824 1.403 . S
C2827 C2828 1.524 . S
C2827 C2831 1.400 . S
C2828 H2813 0.960 . S
C2828 H2814 0.960 . S
C2828 H2815 0.960 . S
C2828 C2827 1.524 . S
C2829 C2826 1.403 . S
C2829 C2830 1.392 . S
C2829 C2833 1.495 . S
C2830 C2829 1.392 . S
C2830 C2831 1.385 . S
C2830 C2832 1.478 . S
C2831 H2825 0.930 . S
C2831 C2827 1.400 . S
C2831 C2830 1.385 . S
C2832 C2830 1.478 . S
C2832 C2834 1.381 . S
C2832 C2838 1.383 . S
C2833 C2829 1.495 . S
C2833 H2839 0.959 . S
C2833 H2840 0.961 . S
C2833 H2841 0.960 . S
C2834 C2832 1.381 . S
C2834 C2835 1.394 . S
C2834 H2842 0.930 . S
C2835 C2834 1.394 . S
C2835 C2836 1.383 . S
C2835 H2843 0.929 . S
C2836 C2835 1.383 . S
C2836 C2837 1.377 . S
C2837 H2821 0.930 . S
C2837 C2836 1.377 . S
C2837 C2838 1.379 . S
C2838 H2822 0.931 . S
C2838 C2832 1.383 . S
C2838 C2837 1.379 . S
H2839 C2833 0.959 . S
H2840 C2833 0.961 . S
H2841 C2833 0.960 . S
H2842 C2834 0.930 . S
H2843 C2835 0.929 . S
H2844 C2852 0.929 . S
H2845 C2854 0.930 . S
H2846 C2856 0.930 . S
H2847 C2859 0.929 . S
H2848 C2862 0.930 . S
H2849 C2864 0.960 . S
H2850 C2864 0.960 . S
H2851 C2864 0.960 . S
C2852 H2844 0.929 . S
C2852 C2853 1.377 . S
C2852 C2854 1.384 . S
C2853 C2852 1.377 . S
C2853 C2859 1.390 . S
C2854 H2845 0.930 . S
C2854 C2852 1.384 . S
C2854 C2855 1.372 . S
C2855 C2854 1.372 . S
C2855 C2856 1.400 . S
C2855 C2860 1.490 . S
C2856 H2846 0.930 . S
C2856 C2855 1.400 . S
C2856 C2859 1.386 . S
H2857 C2873 0.930 . S
H2858 C2874 0.931 . S
C2859 H2847 0.929 . S
C2859 C2853 1.390 . S
C2859 C2856 1.386 . S
C2860 C2855 1.490 . S
C2860 C2862 1.395 . S
C2860 C2863 1.403 . S
H2861 C2867 0.930 . S
C2862 H2848 0.930 . S
C2862 C2860 1.395 . S
C2862 C2865 1.403 . S
C2863 C2860 1.403 . S
C2863 C2864 1.524 . S
C2863 C2867 1.400 . S
C2864 H2849 0.960 . S
C2864 H2850 0.960 . S
C2864 H2851 0.960 . S
C2864 C2863 1.524 . S
C2865 C2862 1.403 . S
C2865 C2866 1.392 . S
C2865 C2869 1.495 . S
C2866 C2865 1.392 . S
C2866 C2867 1.385 . S
C2866 C2868 1.478 . S
C2867 H2861 0.930 . S
C2867 C2863 1.400 . S
C2867 C2866 1.385 . S
C2868 C2866 1.478 . S
C2868 C2870 1.381 . S
C2868 C2874 1.383 . S
C2869 C2865 1.495 . S
C2869 H2875 0.959 . S
C2869 H2876 0.961 . S
C2869 H2877 0.960 . S
C2870 C2868 1.381 . S
C2870 C2871 1.394 . S
C2870 H2878 0.930 . S
C2871 C2870 1.394 . S
C2871 C2872 1.383 . S
C2871 H2879 0.929 . S
C2872 C2871 1.383 . S
C2872 C2873 1.377 . S
C2873 H2857 0.930 . S
C2873 C2872 1.377 . S
C2873 C2874 1.379 . S
C2874 H2858 0.931 . S
C2874 C2868 1.383 . S
C2874 C2873 1.379 . S
H2875 C2869 0.959 . S
H2876 C2869 0.961 . S
H2877 C2869 0.960 . S
H2878 C2870 0.930 . S
H2879 C2871 0.929 . S
H2880 C2888 0.929 . S
H2881 C2890 0.930 . S
H2882 C2892 0.930 . S
H2883 C2895 0.929 . S
H2884 C2898 0.930 . S
H2885 C2900 0.960 . S
H2886 C2900 0.960 . S
H2887 C2900 0.960 . S
C2888 H2880 0.929 . S
C2888 C2889 1.377 . S
C2888 C2890 1.384 . S
C2889 C2888 1.377 . S
C2889 C2895 1.390 . S
C2890 H2881 0.930 . S
C2890 C2888 1.384 . S
C2890 C2891 1.372 . S
C2891 C2890 1.372 . S
C2891 C2892 1.400 . S
C2891 C2896 1.490 . S
C2892 H2882 0.930 . S
C2892 C2891 1.400 . S
C2892 C2895 1.386 . S
H2893 C2909 0.930 . S
H2894 C2910 0.931 . S
C2895 H2883 0.929 . S
C2895 C2889 1.390 . S
C2895 C2892 1.386 . S
C2896 C2891 1.490 . S
C2896 C2898 1.395 . S
C2896 C2899 1.403 . S
H2897 C2903 0.930 . S
C2898 H2884 0.930 . S
C2898 C2896 1.395 . S
C2898 C2901 1.403 . S
C2899 C2896 1.403 . S
C2899 C2900 1.524 . S
C2899 C2903 1.400 . S
C2900 H2885 0.960 . S
C2900 H2886 0.960 . S
C2900 H2887 0.960 . S
C2900 C2899 1.524 . S
C2901 C2898 1.403 . S
C2901 C2902 1.392 . S
C2901 C2905 1.495 . S
C2902 C2901 1.392 . S
C2902 C2903 1.385 . S
C2902 C2904 1.478 . S
C2903 H2897 0.930 . S
C2903 C2899 1.400 . S
C2903 C2902 1.385 . S
C2904 C2902 1.478 . S
C2904 C2906 1.381 . S
C2904 C2910 1.383 . S
C2905 C2901 1.495 . S
C2905 H2911 0.959 . S
C2905 H2912 0.961 . S
C2905 H2913 0.960 . S
C2906 C2904 1.381 . S
C2906 C2907 1.394 . S
C2906 H2914 0.930 . S
C2907 C2906 1.394 . S
C2907 C2908 1.383 . S
C2907 H2915 0.929 . S
C2908 C2907 1.383 . S
C2908 C2909 1.377 . S
C2909 H2893 0.930 . S
C2909 C2908 1.377 . S
C2909 C2910 1.379 . S
C2910 H2894 0.931 . S
C2910 C2904 1.383 . S
C2910 C2909 1.379 . S
H2911 C2905 0.959 . S
H2912 C2905 0.961 . S
H2913 C2905 0.960 . S
H2914 C2906 0.930 . S
H2915 C2907 0.929 . S
H2916 C2924 0.929 . S
H2917 C2926 0.930 . S
H2918 C2928 0.930 . S
H2919 C2931 0.929 . S
H2920 C2934 0.930 . S
H2921 C2936 0.960 . S
H2922 C2936 0.960 . S
H2923 C2936 0.960 . S
C2924 H2916 0.929 . S
C2924 C2925 1.377 . S
C2924 C2926 1.384 . S
C2925 C2924 1.377 . S
C2925 C2931 1.390 . S
C2926 H2917 0.930 . S
C2926 C2924 1.384 . S
C2926 C2927 1.372 . S
C2927 C2926 1.372 . S
C2927 C2928 1.400 . S
C2927 C2932 1.490 . S
C2928 H2918 0.930 . S
C2928 C2927 1.400 . S
C2928 C2931 1.386 . S
H2929 C2945 0.930 . S
H2930 C2946 0.931 . S
C2931 H2919 0.929 . S
C2931 C2925 1.390 . S
C2931 C2928 1.386 . S
C2932 C2927 1.490 . S
C2932 C2934 1.395 . S
C2932 C2935 1.403 . S
H2933 C2939 0.930 . S
C2934 H2920 0.930 . S
C2934 C2932 1.395 . S
C2934 C2937 1.403 . S
C2935 C2932 1.403 . S
C2935 C2936 1.524 . S
C2935 C2939 1.400 . S
C2936 H2921 0.960 . S
C2936 H2922 0.960 . S
C2936 H2923 0.960 . S
C2936 C2935 1.524 . S
C2937 C2934 1.403 . S
C2937 C2938 1.392 . S
C2937 C2941 1.495 . S
C2938 C2937 1.392 . S
C2938 C2939 1.385 . S
C2938 C2940 1.478 . S
C2939 H2933 0.930 . S
C2939 C2935 1.400 . S
C2939 C2938 1.385 . S
C2940 C2938 1.478 . S
C2940 C2942 1.381 . S
C2940 C2946 1.383 . S
C2941 C2937 1.495 . S
C2941 H2947 0.959 . S
C2941 H2948 0.961 . S
C2941 H2949 0.960 . S
C2942 C2940 1.381 . S
C2942 C2943 1.394 . S
C2942 H2950 0.930 . S
C2943 C2942 1.394 . S
C2943 C2944 1.383 . S
C2943 H2951 0.929 . S
C2944 C2943 1.383 . S
C2944 C2945 1.377 . S
C2945 H2929 0.930 . S
C2945 C2944 1.377 . S
C2945 C2946 1.379 . S
C2946 H2930 0.931 . S
C2946 C2940 1.383 . S
C2946 C2945 1.379 . S
H2947 C2941 0.959 . S
H2948 C2941 0.961 . S
H2949 C2941 0.960 . S
H2950 C2942 0.930 . S
H2951 C2943 0.929 . S
H2952 C2960 0.929 . S
H2953 C2962 0.930 . S
H2954 C2964 0.930 . S
H2955 C2967 0.929 . S
H2956 C2970 0.930 . S
H2957 C2972 0.960 . S
H2958 C2972 0.960 . S
H2959 C2972 0.960 . S
C2960 H2952 0.929 . S
C2960 C2961 1.377 . S
C2960 C2962 1.384 . S
C2961 C2960 1.377 . S
C2961 C2967 1.390 . S
C2962 H2953 0.930 . S
C2962 C2960 1.384 . S
C2962 C2963 1.372 . S
C2963 C2962 1.372 . S
C2963 C2964 1.400 . S
C2963 C2968 1.490 . S
C2964 H2954 0.930 . S
C2964 C2963 1.400 . S
C2964 C2967 1.386 . S
H2965 C2981 0.930 . S
H2966 C2982 0.931 . S
C2967 H2955 0.929 . S
C2967 C2961 1.390 . S
C2967 C2964 1.386 . S
C2968 C2963 1.490 . S
C2968 C2970 1.395 . S
C2968 C2971 1.403 . S
H2969 C2975 0.930 . S
C2970 H2956 0.930 . S
C2970 C2968 1.395 . S
C2970 C2973 1.403 . S
C2971 C2968 1.403 . S
C2971 C2972 1.524 . S
C2971 C2975 1.400 . S
C2972 H2957 0.960 . S
C2972 H2958 0.960 . S
C2972 H2959 0.960 . S
C2972 C2971 1.524 . S
C2973 C2970 1.403 . S
C2973 C2974 1.392 . S
C2973 C2977 1.495 . S
C2974 C2973 1.392 . S
C2974 C2975 1.385 . S
C2974 C2976 1.478 . S
C2975 H2969 0.930 . S
C2975 C2971 1.400 . S
C2975 C2974 1.385 . S
C2976 C2974 1.478 . S
C2976 C2978 1.381 . S
C2976 C2982 1.383 . S
C2977 C2973 1.495 . S
C2977 H2983 0.959 . S
C2977 H2984 0.961 . S
C2977 H2985 0.960 . S
C2978 C2976 1.381 . S
C2978 C2979 1.394 . S
C2978 H2986 0.930 . S
C2979 C2978 1.394 . S
C2979 C2980 1.383 . S
C2979 H2987 0.929 . S
C2980 C2979 1.383 . S
C2980 C2981 1.377 . S
C2981 H2965 0.930 . S
C2981 C2980 1.377 . S
C2981 C2982 1.379 . S
C2982 H2966 0.931 . S
C2982 C2976 1.383 . S
C2982 C2981 1.379 . S
H2983 C2977 0.959 . S
H2984 C2977 0.961 . S
H2985 C2977 0.960 . S
H2986 C2978 0.930 . S
H2987 C2979 0.929 . S
H2988 C2996 0.929 . S
H2989 C2998 0.930 . S
H2990 C3000 0.930 . S
H2991 C3003 0.929 . S
H2992 C3006 0.930 . S
H2993 C3008 0.960 . S
H2994 C3008 0.960 . S
H2995 C3008 0.960 . S
C2996 H2988 0.929 . S
C2996 C2997 1.377 . S
C2996 C2998 1.384 . S
C2997 C2996 1.377 . S
C2997 C3003 1.390 . S
C2998 H2989 0.930 . S
C2998 C2996 1.384 . S
C2998 C2999 1.372 . S
C2999 C2998 1.372 . S
C2999 C3000 1.400 . S
C2999 C3004 1.490 . S
C3000 H2990 0.930 . S
C3000 C2999 1.400 . S
C3000 C3003 1.386 . S
H3001 C3017 0.930 . S
H3002 C3018 0.931 . S
C3003 H2991 0.929 . S
C3003 C2997 1.390 . S
C3003 C3000 1.386 . S
C3004 C2999 1.490 . S
C3004 C3006 1.395 . S
C3004 C3007 1.403 . S
H3005 C3011 0.930 . S
C3006 H2992 0.930 . S
C3006 C3004 1.395 . S
C3006 C3009 1.403 . S
C3007 C3004 1.403 . S
C3007 C3008 1.524 . S
C3007 C3011 1.400 . S
C3008 H2993 0.960 . S
C3008 H2994 0.960 . S
C3008 H2995 0.960 . S
C3008 C3007 1.524 . S
C3009 C3006 1.403 . S
C3009 C3010 1.392 . S
C3009 C3013 1.495 . S
C3010 C3009 1.392 . S
C3010 C3011 1.385 . S
C3010 C3012 1.478 . S
C3011 H3005 0.930 . S
C3011 C3007 1.400 . S
C3011 C3010 1.385 . S
C3012 C3010 1.478 . S
C3012 C3014 1.381 . S
C3012 C3018 1.383 . S
C3013 C3009 1.495 . S
C3013 H3019 0.959 . S
C3013 H3020 0.961 . S
C3013 H3021 0.960 . S
C3014 C3012 1.381 . S
C3014 C3015 1.394 . S
C3014 H3022 0.930 . S
C3015 C3014 1.394 . S
C3015 C3016 1.383 . S
C3015 H3023 0.929 . S
C3016 C3015 1.383 . S
C3016 C3017 1.377 . S
C3017 H3001 0.930 . S
C3017 C3016 1.377 . S
C3017 C3018 1.379 . S
C3018 H3002 0.931 . S
C3018 C3012 1.383 . S
C3018 C3017 1.379 . S
H3019 C3013 0.959 . S
H3020 C3013 0.961 . S
H3021 C3013 0.960 . S
H3022 C3014 0.930 . S
H3023 C3015 0.929 . S
H3024 C3032 0.929 . S
H3025 C3034 0.930 . S
H3026 C3036 0.930 . S
H3027 C3039 0.929 . S
H3028 C3042 0.930 . S
H3029 C3044 0.960 . S
H3030 C3044 0.960 . S
H3031 C3044 0.960 . S
C3032 H3024 0.929 . S
C3032 C3033 1.377 . S
C3032 C3034 1.384 . S
C3033 C3032 1.377 . S
C3033 C3039 1.390 . S
C3034 H3025 0.930 . S
C3034 C3032 1.384 . S
C3034 C3035 1.372 . S
C3035 C3034 1.372 . S
C3035 C3036 1.400 . S
C3035 C3040 1.490 . S
C3036 H3026 0.930 . S
C3036 C3035 1.400 . S
C3036 C3039 1.386 . S
H3037 C3053 0.930 . S
H3038 C3054 0.931 . S
C3039 H3027 0.929 . S
C3039 C3033 1.390 . S
C3039 C3036 1.386 . S
C3040 C3035 1.490 . S
C3040 C3042 1.395 . S
C3040 C3043 1.403 . S
H3041 C3047 0.930 . S
C3042 H3028 0.930 . S
C3042 C3040 1.395 . S
C3042 C3045 1.403 . S
C3043 C3040 1.403 . S
C3043 C3044 1.524 . S
C3043 C3047 1.400 . S
C3044 H3029 0.960 . S
C3044 H3030 0.960 . S
C3044 H3031 0.960 . S
C3044 C3043 1.524 . S
C3045 C3042 1.403 . S
C3045 C3046 1.392 . S
C3045 C3049 1.495 . S
C3046 C3045 1.392 . S
C3046 C3047 1.385 . S
C3046 C3048 1.478 . S
C3047 H3041 0.930 . S
C3047 C3043 1.400 . S
C3047 C3046 1.385 . S
C3048 C3046 1.478 . S
C3048 C3050 1.381 . S
C3048 C3054 1.383 . S
C3049 C3045 1.495 . S
C3049 H3055 0.959 . S
C3049 H3056 0.961 . S
C3049 H3057 0.960 . S
C3050 C3048 1.381 . S
C3050 C3051 1.394 . S
C3050 H3058 0.930 . S
C3051 C3050 1.394 . S
C3051 C3052 1.383 . S
C3051 H3059 0.929 . S
C3052 C3051 1.383 . S
C3052 C3053 1.377 . S
C3053 H3037 0.930 . S
C3053 C3052 1.377 . S
C3053 C3054 1.379 . S
C3054 H3038 0.931 . S
C3054 C3048 1.383 . S
C3054 C3053 1.379 . S
H3055 C3049 0.959 . S
H3056 C3049 0.961 . S
H3057 C3049 0.960 . S
H3058 C3050 0.930 . S
H3059 C3051 0.929 . S
H3060 C3068 0.929 . S
H3061 C3070 0.930 . S
H3062 C3072 0.930 . S
H3063 C3075 0.929 . S
H3064 C3078 0.930 . S
H3065 C3080 0.960 . S
H3066 C3080 0.960 . S
H3067 C3080 0.960 . S
C3068 H3060 0.929 . S
C3068 C3069 1.377 . S
C3068 C3070 1.384 . S
C3069 C3068 1.377 . S
C3069 C3075 1.390 . S
C3070 H3061 0.930 . S
C3070 C3068 1.384 . S
C3070 C3071 1.372 . S
C3071 C3070 1.372 . S
C3071 C3072 1.400 . S
C3071 C3076 1.490 . S
C3072 H3062 0.930 . S
C3072 C3071 1.400 . S
C3072 C3075 1.386 . S
H3073 C3089 0.930 . S
H3074 C3090 0.931 . S
C3075 H3063 0.929 . S
C3075 C3069 1.390 . S
C3075 C3072 1.386 . S
C3076 C3071 1.490 . S
C3076 C3078 1.395 . S
C3076 C3079 1.403 . S
H3077 C3083 0.930 . S
C3078 H3064 0.930 . S
C3078 C3076 1.395 . S
C3078 C3081 1.403 . S
C3079 C3076 1.403 . S
C3079 C3080 1.524 . S
C3079 C3083 1.400 . S
C3080 H3065 0.960 . S
C3080 H3066 0.960 . S
C3080 H3067 0.960 . S
C3080 C3079 1.524 . S
C3081 C3078 1.403 . S
C3081 C3082 1.392 . S
C3081 C3085 1.495 . S
C3082 C3081 1.392 . S
C3082 C3083 1.385 . S
C3082 C3084 1.478 . S
C3083 H3077 0.930 . S
C3083 C3079 1.400 . S
C3083 C3082 1.385 . S
C3084 C3082 1.478 . S
C3084 C3086 1.381 . S
C3084 C3090 1.383 . S
C3085 C3081 1.495 . S
C3085 H3091 0.959 . S
C3085 H3092 0.961 . S
C3085 H3093 0.960 . S
C3086 C3084 1.381 . S
C3086 C3087 1.394 . S
C3086 H3094 0.930 . S
C3087 C3086 1.394 . S
C3087 C3088 1.383 . S
C3087 H3095 0.929 . S
C3088 C3087 1.383 . S
C3088 C3089 1.377 . S
C3089 H3073 0.930 . S
C3089 C3088 1.377 . S
C3089 C3090 1.379 . S
C3090 H3074 0.931 . S
C3090 C3084 1.383 . S
C3090 C3089 1.379 . S
H3091 C3085 0.959 . S
H3092 C3085 0.961 . S
H3093 C3085 0.960 . S
H3094 C3086 0.930 . S
H3095 C3087 0.929 . S
H3096 C3104 0.929 . S
H3097 C3106 0.930 . S
H3098 C3108 0.930 . S
H3099 C3111 0.929 . S
H3100 C3114 0.930 . S
H3101 C3116 0.960 . S
H3102 C3116 0.960 . S
H3103 C3116 0.960 . S
C3104 H3096 0.929 . S
C3104 C3105 1.377 . S
C3104 C3106 1.384 . S
C3105 C3104 1.377 . S
C3105 C3111 1.390 . S
C3106 H3097 0.930 . S
C3106 C3104 1.384 . S
C3106 C3107 1.372 . S
C3107 C3106 1.372 . S
C3107 C3108 1.400 . S
C3107 C3112 1.490 . S
C3108 H3098 0.930 . S
C3108 C3107 1.400 . S
C3108 C3111 1.386 . S
H3109 C3125 0.930 . S
H3110 C3126 0.931 . S
C3111 H3099 0.929 . S
C3111 C3105 1.390 . S
C3111 C3108 1.386 . S
C3112 C3107 1.490 . S
C3112 C3114 1.395 . S
C3112 C3115 1.403 . S
H3113 C3119 0.930 . S
C3114 H3100 0.930 . S
C3114 C3112 1.395 . S
C3114 C3117 1.403 . S
C3115 C3112 1.403 . S
C3115 C3116 1.524 . S
C3115 C3119 1.400 . S
C3116 H3101 0.960 . S
C3116 H3102 0.960 . S
C3116 H3103 0.960 . S
C3116 C3115 1.524 . S
C3117 C3114 1.403 . S
C3117 C3118 1.392 . S
C3117 C3121 1.495 . S
C3118 C3117 1.392 . S
C3118 C3119 1.385 . S
C3118 C3120 1.478 . S
C3119 H3113 0.930 . S
C3119 C3115 1.400 . S
C3119 C3118 1.385 . S
C3120 C3118 1.478 . S
C3120 C3122 1.381 . S
C3120 C3126 1.383 . S
C3121 C3117 1.495 . S
C3121 H3127 0.959 . S
C3121 H3128 0.961 . S
C3121 H3129 0.960 . S
C3122 C3120 1.381 . S
C3122 C3123 1.394 . S
C3122 H3130 0.930 . S
C3123 C3122 1.394 . S
C3123 C3124 1.383 . S
C3123 H3131 0.929 . S
C3124 C3123 1.383 . S
C3124 C3125 1.377 . S
C3125 H3109 0.930 . S
C3125 C3124 1.377 . S
C3125 C3126 1.379 . S
C3126 H3110 0.931 . S
C3126 C3120 1.383 . S
C3126 C3125 1.379 . S
H3127 C3121 0.959 . S
H3128 C3121 0.961 . S
H3129 C3121 0.960 . S
H3130 C3122 0.930 . S
H3131 C3123 0.929 . S
H3132 C3140 0.929 . S
H3133 C3142 0.930 . S
H3134 C3144 0.930 . S
H3135 C3147 0.929 . S
H3136 C3150 0.930 . S
H3137 C3152 0.960 . S
H3138 C3152 0.960 . S
H3139 C3152 0.960 . S
C3140 H3132 0.929 . S
C3140 C3141 1.377 . S
C3140 C3142 1.384 . S
C3141 C3140 1.377 . S
C3141 C3147 1.390 . S
C3142 H3133 0.930 . S
C3142 C3140 1.384 . S
C3142 C3143 1.372 . S
C3143 C3142 1.372 . S
C3143 C3144 1.400 . S
C3143 C3148 1.490 . S
C3144 H3134 0.930 . S
C3144 C3143 1.400 . S
C3144 C3147 1.386 . S
H3145 C3161 0.930 . S
H3146 C3162 0.931 . S
C3147 H3135 0.929 . S
C3147 C3141 1.390 . S
C3147 C3144 1.386 . S
C3148 C3143 1.490 . S
C3148 C3150 1.395 . S
C3148 C3151 1.403 . S
H3149 C3155 0.930 . S
C3150 H3136 0.930 . S
C3150 C3148 1.395 . S
C3150 C3153 1.403 . S
C3151 C3148 1.403 . S
C3151 C3152 1.524 . S
C3151 C3155 1.400 . S
C3152 H3137 0.960 . S
C3152 H3138 0.960 . S
C3152 H3139 0.960 . S
C3152 C3151 1.524 . S
C3153 C3150 1.403 . S
C3153 C3154 1.392 . S
C3153 C3157 1.495 . S
C3154 C3153 1.392 . S
C3154 C3155 1.385 . S
C3154 C3156 1.478 . S
C3155 H3149 0.930 . S
C3155 C3151 1.400 . S
C3155 C3154 1.385 . S
C3156 C3154 1.478 . S
C3156 C3158 1.381 . S
C3156 C3162 1.383 . S
C3157 C3153 1.495 . S
C3157 H3163 0.959 . S
C3157 H3164 0.961 . S
C3157 H3165 0.960 . S
C3158 C3156 1.381 . S
C3158 C3159 1.394 . S
C3158 H3166 0.930 . S
C3159 C3158 1.394 . S
C3159 C3160 1.383 . S
C3159 H3167 0.929 . S
C3160 C3159 1.383 . S
C3160 C3161 1.377 . S
C3161 H3145 0.930 . S
C3161 C3160 1.377 . S
C3161 C3162 1.379 . S
C3162 H3146 0.931 . S
C3162 C3156 1.383 . S
C3162 C3161 1.379 . S
H3163 C3157 0.959 . S
H3164 C3157 0.961 . S
H3165 C3157 0.960 . S
H3166 C3158 0.930 . S
H3167 C3159 0.929 . S
H3168 C3176 0.929 . S
H3169 C3178 0.930 . S
H3170 C3180 0.930 . S
H3171 C3183 0.929 . S
H3172 C3186 0.930 . S
H3173 C3188 0.960 . S
H3174 C3188 0.960 . S
H3175 C3188 0.960 . S
C3176 H3168 0.929 . S
C3176 C3177 1.377 . S
C3176 C3178 1.384 . S
C3177 C3176 1.377 . S
C3177 C3183 1.390 . S
C3178 H3169 0.930 . S
C3178 C3176 1.384 . S
C3178 C3179 1.372 1_565 S
C3179 C3178 1.372 1_545 S
C3179 C3180 1.400 . S
C3179 C3184 1.490 . S
C3180 H3170 0.930 . S
C3180 C3179 1.400 . S
C3180 C3183 1.386 1_545 S
H3181 C3197 0.930 . S
H3182 C3198 0.931 . S
C3183 H3171 0.929 . S
C3183 C3177 1.390 . S
C3183 C3180 1.386 1_565 S
C3184 C3179 1.490 . S
C3184 C3186 1.395 . S
C3184 C3187 1.403 . S
H3185 C3191 0.930 . S
C3186 H3172 0.930 . S
C3186 C3184 1.395 . S
C3186 C3189 1.403 . S
C3187 C3184 1.403 . S
C3187 C3188 1.524 . S
C3187 C3191 1.400 . S
C3188 H3173 0.960 . S
C3188 H3174 0.960 . S
C3188 H3175 0.960 . S
C3188 C3187 1.524 . S
C3189 C3186 1.403 . S
C3189 C3190 1.392 . S
C3189 C3193 1.495 . S
C3190 C3189 1.392 . S
C3190 C3191 1.385 . S
C3190 C3192 1.478 . S
C3191 H3185 0.930 . S
C3191 C3187 1.400 . S
C3191 C3190 1.385 . S
C3192 C3190 1.478 . S
C3192 C3194 1.381 . S
C3192 C3198 1.383 . S
C3193 C3189 1.495 . S
C3193 H3199 0.959 . S
C3193 H3200 0.961 . S
C3193 H3201 0.960 . S
C3194 C3192 1.381 . S
C3194 C3195 1.394 . S
C3194 H3202 0.930 . S
C3195 C3194 1.394 . S
C3195 C3196 1.383 . S
C3195 H3203 0.929 . S
C3196 C3195 1.383 . S
C3196 C3197 1.377 . S
C3197 H3181 0.930 . S
C3197 C3196 1.377 . S
C3197 C3198 1.379 . S
C3198 H3182 0.931 . S
C3198 C3192 1.383 . S
C3198 C3197 1.379 . S
H3199 C3193 0.959 . S
H3200 C3193 0.961 . S
H3201 C3193 0.960 . S
H3202 C3194 0.930 . S
H3203 C3195 0.929 . S
H3204 C3212 0.929 . S
H3205 C3214 0.930 . S
H3206 C3216 0.930 . S
H3207 C3219 0.929 . S
H3208 C3222 0.930 . S
H3209 C3224 0.962 . S
H3210 C3224 0.956 1_455 S
H3211 C3224 0.963 . S
C3212 H3204 0.929 . S
C3212 C3213 1.377 . S
C3212 C3214 1.384 . S
C3213 C3212 1.377 . S
C3213 C3219 1.390 . S
C3214 H3205 0.930 . S
C3214 C3212 1.384 . S
C3214 C3215 1.372 . S
C3215 C3214 1.372 . S
C3215 C3216 1.400 . S
C3215 C3220 1.490 . S
C3216 H3206 0.930 . S
C3216 C3215 1.400 . S
C3216 C3219 1.386 . S
H3217 C3233 0.930 . S
H3218 C3234 0.931 . S
C3219 H3207 0.929 . S
C3219 C3213 1.390 . S
C3219 C3216 1.386 . S
C3220 C3215 1.490 . S
C3220 C3222 1.395 . S
C3220 C3223 1.403 1_455 S
H3221 C3227 0.930 . S
C3222 H3208 0.930 . S
C3222 C3220 1.395 . S
C3222 C3225 1.403 1_455 S
C3223 C3220 1.403 1_655 S
C3223 C3224 1.523 . S
C3223 C3227 1.400 . S
C3224 H3209 0.962 . S
C3224 H3210 0.956 1_655 S
C3224 H3211 0.963 . S
C3224 C3223 1.523 . S
C3225 C3222 1.403 1_655 S
C3225 C3226 1.392 . S
C3225 C3229 1.495 . S
C3226 C3225 1.392 . S
C3226 C3227 1.385 . S
C3226 C3228 1.478 . S
C3227 H3221 0.930 . S
C3227 C3223 1.400 . S
C3227 C3226 1.385 . S
C3228 C3226 1.478 . S
C3228 C3230 1.381 . S
C3228 C3234 1.383 . S
C3229 C3225 1.495 . S
C3229 H3235 0.959 1_655 S
C3229 H3236 0.961 . S
C3229 H3237 0.960 . S
C3230 C3228 1.381 . S
C3230 C3231 1.394 . S
C3230 H3238 0.930 . S
C3231 C3230 1.394 . S
C3231 C3232 1.383 . S
C3231 H3239 0.929 . S
C3232 C3231 1.383 . S
C3232 C3233 1.377 . S
C3233 H3217 0.930 . S
C3233 C3232 1.377 . S
C3233 C3234 1.379 . S
C3234 H3218 0.931 . S
C3234 C3228 1.383 . S
C3234 C3233 1.379 . S
H3235 C3229 0.959 1_455 S
H3236 C3229 0.961 . S
H3237 C3229 0.960 . S
H3238 C3230 0.930 . S
H3239 C3231 0.929 . S
H3240 C3248 0.929 . S
H3241 C3250 0.930 . S
H3242 C3252 0.930 . S
H3243 C3255 0.929 . S
H3244 C3258 0.930 . S
H3245 C3260 0.960 . S
H3246 C3260 0.960 . S
H3247 C3260 0.960 . S
C3248 H3240 0.929 . S
C3248 C3249 1.377 . S
C3248 C3250 1.384 . S
C3249 C3248 1.377 . S
C3249 C3255 1.390 . S
C3250 H3241 0.930 . S
C3250 C3248 1.384 . S
C3250 C3251 1.372 . S
C3251 C3250 1.372 . S
C3251 C3252 1.400 . S
C3251 C3256 1.490 . S
C3252 H3242 0.930 . S
C3252 C3251 1.400 . S
C3252 C3255 1.386 . S
H3253 C3269 0.930 . S
H3254 C3270 0.931 . S
C3255 H3243 0.929 . S
C3255 C3249 1.390 . S
C3255 C3252 1.386 . S
C3256 C3251 1.490 . S
C3256 C3258 1.395 . S
C3256 C3259 1.403 . S
H3257 C3263 0.930 . S
C3258 H3244 0.930 . S
C3258 C3256 1.395 . S
C3258 C3261 1.403 . S
C3259 C3256 1.403 . S
C3259 C3260 1.524 . S
C3259 C3263 1.400 . S
C3260 H3245 0.960 . S
C3260 H3246 0.960 . S
C3260 H3247 0.960 . S
C3260 C3259 1.524 . S
C3261 C3258 1.403 . S
C3261 C3262 1.392 . S
C3261 C3265 1.495 . S
C3262 C3261 1.392 . S
C3262 C3263 1.385 . S
C3262 C3264 1.478 . S
C3263 H3257 0.930 . S
C3263 C3259 1.400 . S
C3263 C3262 1.385 . S
C3264 C3262 1.478 . S
C3264 C3266 1.381 . S
C3264 C3270 1.383 . S
C3265 C3261 1.495 . S
C3265 H3271 0.959 . S
C3265 H3272 0.961 . S
C3265 H3273 0.960 . S
C3266 C3264 1.381 . S
C3266 C3267 1.394 . S
C3266 H3274 0.930 . S
C3267 C3266 1.394 . S
C3267 C3268 1.383 1_655 S
C3267 H3275 0.929 1_655 S
C3268 C3267 1.383 1_455 S
C3268 C3269 1.377 . S
C3269 H3253 0.930 . S
C3269 C3268 1.377 . S
C3269 C3270 1.379 1_455 S
C3270 H3254 0.931 . S
C3270 C3264 1.383 . S
C3270 C3269 1.379 1_655 S
H3271 C3265 0.959 . S
H3272 C3265 0.961 . S
H3273 C3265 0.960 . S
H3274 C3266 0.930 . S
H3275 C3267 0.929 1_455 S
H3276 C3284 0.929 . S
H3277 C3286 0.930 . S
H3278 C3288 0.930 . S
H3279 C3291 0.929 . S
H3280 C3294 0.930 . S
H3281 C3296 0.960 . S
H3282 C3296 0.960 . S
H3283 C3296 0.960 . S
C3284 H3276 0.929 . S
C3284 C3285 1.377 . S
C3284 C3286 1.384 . S
C3285 C3284 1.377 . S
C3285 C3291 1.390 . S
C3286 H3277 0.930 . S
C3286 C3284 1.384 . S
C3286 C3287 1.372 . S
C3287 C3286 1.372 . S
C3287 C3288 1.400 . S
C3287 C3292 1.490 . S
C3288 H3278 0.930 . S
C3288 C3287 1.400 . S
C3288 C3291 1.386 . S
H3289 C3305 0.930 . S
H3290 C3306 0.931 . S
C3291 H3279 0.929 . S
C3291 C3285 1.390 . S
C3291 C3288 1.386 . S
C3292 C3287 1.490 . S
C3292 C3294 1.395 . S
C3292 C3295 1.403 . S
H3293 C3299 0.930 . S
C3294 H3280 0.930 . S
C3294 C3292 1.395 . S
C3294 C3297 1.403 . S
C3295 C3292 1.403 . S
C3295 C3296 1.524 . S
C3295 C3299 1.400 . S
C3296 H3281 0.960 . S
C3296 H3282 0.960 . S
C3296 H3283 0.960 . S
C3296 C3295 1.524 . S
C3297 C3294 1.403 . S
C3297 C3298 1.392 . S
C3297 C3301 1.495 . S
C3298 C3297 1.392 . S
C3298 C3299 1.385 . S
C3298 C3300 1.478 . S
C3299 H3293 0.930 . S
C3299 C3295 1.400 . S
C3299 C3298 1.385 . S
C3300 C3298 1.478 . S
C3300 C3302 1.381 . S
C3300 C3306 1.383 . S
C3301 C3297 1.495 . S
C3301 H3307 0.959 . S
C3301 H3308 0.961 . S
C3301 H3309 0.960 . S
C3302 C3300 1.381 . S
C3302 C3303 1.394 . S
C3302 H3310 0.930 . S
C3303 C3302 1.394 . S
C3303 C3304 1.383 . S
C3303 H3311 0.929 . S
C3304 C3303 1.383 . S
C3304 C3305 1.377 . S
C3305 H3289 0.930 . S
C3305 C3304 1.377 . S
C3305 C3306 1.379 . S
C3306 H3290 0.931 . S
C3306 C3300 1.383 . S
C3306 C3305 1.379 . S
H3307 C3301 0.959 . S
H3308 C3301 0.961 . S
H3309 C3301 0.960 . S
H3310 C3302 0.930 . S
H3311 C3303 0.929 . S
H3312 C3320 0.929 . S
H3313 C3322 0.930 . S
H3314 C3324 0.930 . S
H3315 C3327 0.929 . S
H3316 C3330 0.930 . S
H3317 C3332 0.960 . S
H3318 C3332 0.960 . S
H3319 C3332 0.960 . S
C3320 H3312 0.929 . S
C3320 C3321 1.377 . S
C3320 C3322 1.384 . S
C3321 C3320 1.377 . S
C3321 C3327 1.390 . S
C3322 H3313 0.930 . S
C3322 C3320 1.384 . S
C3322 C3323 1.372 . S
C3323 C3322 1.372 . S
C3323 C3324 1.400 . S
C3323 C3328 1.490 . S
C3324 H3314 0.930 . S
C3324 C3323 1.400 . S
C3324 C3327 1.386 . S
H3325 C3341 0.930 . S
H3326 C3342 0.931 . S
C3327 H3315 0.929 . S
C3327 C3321 1.390 . S
C3327 C3324 1.386 . S
C3328 C3323 1.490 . S
C3328 C3330 1.395 . S
C3328 C3331 1.403 . S
H3329 C3335 0.930 . S
C3330 H3316 0.930 . S
C3330 C3328 1.395 . S
C3330 C3333 1.403 . S
C3331 C3328 1.403 . S
C3331 C3332 1.524 . S
C3331 C3335 1.400 . S
C3332 H3317 0.960 . S
C3332 H3318 0.960 . S
C3332 H3319 0.960 . S
C3332 C3331 1.524 . S
C3333 C3330 1.403 . S
C3333 C3334 1.392 . S
C3333 C3337 1.495 . S
C3334 C3333 1.392 . S
C3334 C3335 1.385 . S
C3334 C3336 1.478 . S
C3335 H3329 0.930 . S
C3335 C3331 1.400 . S
C3335 C3334 1.385 . S
C3336 C3334 1.478 . S
C3336 C3338 1.381 . S
C3336 C3342 1.383 . S
C3337 C3333 1.495 . S
C3337 H3343 0.959 . S
C3337 H3344 0.961 . S
C3337 H3345 0.960 . S
C3338 C3336 1.381 . S
C3338 C3339 1.394 . S
C3338 H3346 0.930 . S
C3339 C3338 1.394 . S
C3339 C3340 1.383 . S
C3339 H3347 0.929 . S
C3340 C3339 1.383 . S
C3340 C3341 1.377 . S
C3341 H3325 0.930 . S
C3341 C3340 1.377 . S
C3341 C3342 1.379 . S
C3342 H3326 0.931 . S
C3342 C3336 1.383 . S
C3342 C3341 1.379 . S
H3343 C3337 0.959 . S
H3344 C3337 0.961 . S
H3345 C3337 0.960 . S
H3346 C3338 0.930 . S
H3347 C3339 0.929 . S
H3348 C3356 0.929 . S
H3349 C3358 0.930 . S
H3350 C3360 0.930 . S
H3351 C3363 0.929 . S
H3352 C3366 0.930 . S
H3353 C3368 0.960 . S
H3354 C3368 0.960 . S
H3355 C3368 0.960 . S
C3356 H3348 0.929 . S
C3356 C3357 1.377 . S
C3356 C3358 1.384 . S
C3357 C3356 1.377 . S
C3357 C3363 1.390 . S
C3358 H3349 0.930 . S
C3358 C3356 1.384 . S
C3358 C3359 1.372 . S
C3359 C3358 1.372 . S
C3359 C3360 1.400 . S
C3359 C3364 1.490 . S
C3360 H3350 0.930 . S
C3360 C3359 1.400 . S
C3360 C3363 1.386 . S
H3361 C3377 0.930 . S
H3362 C3378 0.931 . S
C3363 H3351 0.929 . S
C3363 C3357 1.390 . S
C3363 C3360 1.386 . S
C3364 C3359 1.490 . S
C3364 C3366 1.395 . S
C3364 C3367 1.403 . S
H3365 C3371 0.930 . S
C3366 H3352 0.930 . S
C3366 C3364 1.395 . S
C3366 C3369 1.403 . S
C3367 C3364 1.403 . S
C3367 C3368 1.524 . S
C3367 C3371 1.400 . S
C3368 H3353 0.960 . S
C3368 H3354 0.960 . S
C3368 H3355 0.960 . S
C3368 C3367 1.524 . S
C3369 C3366 1.403 . S
C3369 C3370 1.392 . S
C3369 C3373 1.495 . S
C3370 C3369 1.392 . S
C3370 C3371 1.385 . S
C3370 C3372 1.478 . S
C3371 H3365 0.930 . S
C3371 C3367 1.400 . S
C3371 C3370 1.385 . S
C3372 C3370 1.478 . S
C3372 C3374 1.381 . S
C3372 C3378 1.383 . S
C3373 C3369 1.495 . S
C3373 H3379 0.959 . S
C3373 H3380 0.961 . S
C3373 H3381 0.960 . S
C3374 C3372 1.381 . S
C3374 C3375 1.394 . S
C3374 H3382 0.930 . S
C3375 C3374 1.394 . S
C3375 C3376 1.383 . S
C3375 H3383 0.929 . S
C3376 C3375 1.383 . S
C3376 C3377 1.377 . S
C3377 H3361 0.930 . S
C3377 C3376 1.377 . S
C3377 C3378 1.379 . S
C3378 H3362 0.931 . S
C3378 C3372 1.383 . S
C3378 C3377 1.379 . S
H3379 C3373 0.959 . S
H3380 C3373 0.961 . S
H3381 C3373 0.960 . S
H3382 C3374 0.930 . S
H3383 C3375 0.929 . S
H3384 C3392 0.929 . S
H3385 C3394 0.930 . S
H3386 C3396 0.930 . S
H3387 C3399 0.929 . S
H3388 C3402 0.930 . S
H3389 C3404 0.960 . S
H3390 C3404 0.960 . S
H3391 C3404 0.960 . S
C3392 H3384 0.929 . S
C3392 C3393 1.377 . S
C3392 C3394 1.384 . S
C3393 C3392 1.377 . S
C3393 C3399 1.390 . S
C3394 H3385 0.930 . S
C3394 C3392 1.384 . S
C3394 C3395 1.372 . S
C3395 C3394 1.372 . S
C3395 C3396 1.400 . S
C3395 C3400 1.490 . S
C3396 H3386 0.930 . S
C3396 C3395 1.400 . S
C3396 C3399 1.386 . S
H3397 C3413 0.930 . S
H3398 C3414 0.931 . S
C3399 H3387 0.929 . S
C3399 C3393 1.390 . S
C3399 C3396 1.386 . S
C3400 C3395 1.490 . S
C3400 C3402 1.395 . S
C3400 C3403 1.403 . S
H3401 C3407 0.930 . S
C3402 H3388 0.930 . S
C3402 C3400 1.395 . S
C3402 C3405 1.403 . S
C3403 C3400 1.403 . S
C3403 C3404 1.524 . S
C3403 C3407 1.400 . S
C3404 H3389 0.960 . S
C3404 H3390 0.960 . S
C3404 H3391 0.960 . S
C3404 C3403 1.524 . S
C3405 C3402 1.403 . S
C3405 C3406 1.392 . S
C3405 C3409 1.495 . S
C3406 C3405 1.392 . S
C3406 C3407 1.385 . S
C3406 C3408 1.478 . S
C3407 H3401 0.930 . S
C3407 C3403 1.400 . S
C3407 C3406 1.385 . S
C3408 C3406 1.478 . S
C3408 C3410 1.381 . S
C3408 C3414 1.383 . S
C3409 C3405 1.495 . S
C3409 H3415 0.959 . S
C3409 H3416 0.961 . S
C3409 H3417 0.960 . S
C3410 C3408 1.381 . S
C3410 C3411 1.394 . S
C3410 H3418 0.930 . S
C3411 C3410 1.394 . S
C3411 C3412 1.383 . S
C3411 H3419 0.929 . S
C3412 C3411 1.383 . S
C3412 C3413 1.377 . S
C3413 H3397 0.930 . S
C3413 C3412 1.377 . S
C3413 C3414 1.379 . S
C3414 H3398 0.931 . S
C3414 C3408 1.383 . S
C3414 C3413 1.379 . S
H3415 C3409 0.959 . S
H3416 C3409 0.961 . S
H3417 C3409 0.960 . S
H3418 C3410 0.930 . S
H3419 C3411 0.929 . S
H3420 C3428 0.929 . S
H3421 C3430 0.930 . S
H3422 C3432 0.930 . S
H3423 C3435 0.929 . S
H3424 C3438 0.930 . S
H3425 C3440 0.960 . S
H3426 C3440 0.960 . S
H3427 C3440 0.960 . S
C3428 H3420 0.929 . S
C3428 C3429 1.377 . S
C3428 C3430 1.384 . S
C3429 C3428 1.377 . S
C3429 C3435 1.390 . S
C3430 H3421 0.930 . S
C3430 C3428 1.384 . S
C3430 C3431 1.372 . S
C3431 C3430 1.372 . S
C3431 C3432 1.400 . S
C3431 C3436 1.490 . S
C3432 H3422 0.930 . S
C3432 C3431 1.400 . S
C3432 C3435 1.386 . S
H3433 C3449 0.930 . S
H3434 C3450 0.931 . S
C3435 H3423 0.929 . S
C3435 C3429 1.390 . S
C3435 C3432 1.386 . S
C3436 C3431 1.490 . S
C3436 C3438 1.395 . S
C3436 C3439 1.403 . S
H3437 C3443 0.930 . S
C3438 H3424 0.930 . S
C3438 C3436 1.395 . S
C3438 C3441 1.403 . S
C3439 C3436 1.403 . S
C3439 C3440 1.524 . S
C3439 C3443 1.400 . S
C3440 H3425 0.960 . S
C3440 H3426 0.960 . S
C3440 H3427 0.960 . S
C3440 C3439 1.524 . S
C3441 C3438 1.403 . S
C3441 C3442 1.392 . S
C3441 C3445 1.495 . S
C3442 C3441 1.392 . S
C3442 C3443 1.385 . S
C3442 C3444 1.478 . S
C3443 H3437 0.930 . S
C3443 C3439 1.400 . S
C3443 C3442 1.385 . S
C3444 C3442 1.478 . S
C3444 C3446 1.381 . S
C3444 C3450 1.383 . S
C3445 C3441 1.495 . S
C3445 H3451 0.959 . S
C3445 H3452 0.961 . S
C3445 H3453 0.960 . S
C3446 C3444 1.381 . S
C3446 C3447 1.394 . S
C3446 H3454 0.930 . S
C3447 C3446 1.394 . S
C3447 C3448 1.383 . S
C3447 H3455 0.929 . S
C3448 C3447 1.383 . S
C3448 C3449 1.377 . S
C3449 H3433 0.930 . S
C3449 C3448 1.377 . S
C3449 C3450 1.379 . S
C3450 H3434 0.931 . S
C3450 C3444 1.383 . S
C3450 C3449 1.379 . S
H3451 C3445 0.959 . S
H3452 C3445 0.961 . S
H3453 C3445 0.960 . S
H3454 C3446 0.930 . S
H3455 C3447 0.929 . S
H3456 C3464 0.929 . S
H3457 C3466 0.930 . S
H3458 C3468 0.930 . S
H3459 C3471 0.929 . S
H3460 C3474 0.930 . S
H3461 C3476 0.960 . S
H3462 C3476 0.960 . S
H3463 C3476 0.960 . S
C3464 H3456 0.929 . S
C3464 C3465 1.377 . S
C3464 C3466 1.384 . S
C3465 C3464 1.377 . S
C3465 C3471 1.390 . S
C3466 H3457 0.930 . S
C3466 C3464 1.384 . S
C3466 C3467 1.372 . S
C3467 C3466 1.372 . S
C3467 C3468 1.400 . S
C3467 C3472 1.490 . S
C3468 H3458 0.930 . S
C3468 C3467 1.400 . S
C3468 C3471 1.386 . S
H3469 C3485 0.930 . S
H3470 C3486 0.931 . S
C3471 H3459 0.929 . S
C3471 C3465 1.390 . S
C3471 C3468 1.386 . S
C3472 C3467 1.490 . S
C3472 C3474 1.395 . S
C3472 C3475 1.403 . S
H3473 C3479 0.930 . S
C3474 H3460 0.930 . S
C3474 C3472 1.395 . S
C3474 C3477 1.403 . S
C3475 C3472 1.403 . S
C3475 C3476 1.524 . S
C3475 C3479 1.400 . S
C3476 H3461 0.960 . S
C3476 H3462 0.960 . S
C3476 H3463 0.960 . S
C3476 C3475 1.524 . S
C3477 C3474 1.403 . S
C3477 C3478 1.392 . S
C3477 C3481 1.495 . S
C3478 C3477 1.392 . S
C3478 C3479 1.385 . S
C3478 C3480 1.478 . S
C3479 H3473 0.930 . S
C3479 C3475 1.400 . S
C3479 C3478 1.385 . S
C3480 C3478 1.478 . S
C3480 C3482 1.381 . S
C3480 C3486 1.383 . S
C3481 C3477 1.495 . S
C3481 H3487 0.959 . S
C3481 H3488 0.961 . S
C3481 H3489 0.960 . S
C3482 C3480 1.381 . S
C3482 C3483 1.394 . S
C3482 H3490 0.930 . S
C3483 C3482 1.394 . S
C3483 C3484 1.383 . S
C3483 H3491 0.929 . S
C3484 C3483 1.383 . S
C3484 C3485 1.377 . S
C3485 H3469 0.930 . S
C3485 C3484 1.377 . S
C3485 C3486 1.379 . S
C3486 H3470 0.931 . S
C3486 C3480 1.383 . S
C3486 C3485 1.379 . S
H3487 C3481 0.959 . S
H3488 C3481 0.961 . S
H3489 C3481 0.960 . S
H3490 C3482 0.930 . S
H3491 C3483 0.929 . S
H3492 C3500 0.929 . S
H3493 C3502 0.930 . S
H3494 C3504 0.930 . S
H3495 C3507 0.929 . S
H3496 C3510 0.930 . S
H3497 C3512 0.960 . S
H3498 C3512 0.960 . S
H3499 C3512 0.960 . S
C3500 H3492 0.929 . S
C3500 C3501 1.377 . S
C3500 C3502 1.384 . S
C3501 C3500 1.377 . S
C3501 C3507 1.390 . S
C3502 H3493 0.930 . S
C3502 C3500 1.384 . S
C3502 C3503 1.372 . S
C3503 C3502 1.372 . S
C3503 C3504 1.400 . S
C3503 C3508 1.490 . S
C3504 H3494 0.930 . S
C3504 C3503 1.400 . S
C3504 C3507 1.386 . S
H3505 C3521 0.930 . S
H3506 C3522 0.931 . S
C3507 H3495 0.929 . S
C3507 C3501 1.390 . S
C3507 C3504 1.386 . S
C3508 C3503 1.490 . S
C3508 C3510 1.395 1_455 S
C3508 C3511 1.403 . S
H3509 C3515 0.930 . S
C3510 H3496 0.930 . S
C3510 C3508 1.395 1_655 S
C3510 C3513 1.403 . S
C3511 C3508 1.403 . S
C3511 C3512 1.524 . S
C3511 C3515 1.400 1_455 S
C3512 H3497 0.960 . S
C3512 H3498 0.960 . S
C3512 H3499 0.960 . S
C3512 C3511 1.524 . S
C3513 C3510 1.403 . S
C3513 C3514 1.392 . S
C3513 C3517 1.495 . S
C3514 C3513 1.392 . S
C3514 C3515 1.385 . S
C3514 C3516 1.478 . S
C3515 H3509 0.930 . S
C3515 C3511 1.400 1_655 S
C3515 C3514 1.385 . S
C3516 C3514 1.478 . S
C3516 C3518 1.381 . S
C3516 C3522 1.383 . S
C3517 C3513 1.495 . S
C3517 H3523 0.959 . S
C3517 H3524 0.961 . S
C3517 H3525 0.960 . S
C3518 C3516 1.381 . S
C3518 C3519 1.394 . S
C3518 H3526 0.930 . S
C3519 C3518 1.394 . S
C3519 C3520 1.383 . S
C3519 H3527 0.929 . S
C3520 C3519 1.383 . S
C3520 C3521 1.377 . S
C3521 H3505 0.930 . S
C3521 C3520 1.377 . S
C3521 C3522 1.379 . S
C3522 H3506 0.931 . S
C3522 C3516 1.383 . S
C3522 C3521 1.379 . S
H3523 C3517 0.959 . S
H3524 C3517 0.961 . S
H3525 C3517 0.960 . S
H3526 C3518 0.930 . S
H3527 C3519 0.929 . S
H3528 C3536 0.929 . S
H3529 C3538 0.930 . S
H3530 C3540 0.930 . S
H3531 C3543 0.929 . S
H3532 C3546 0.930 . S
H3533 C3548 0.960 . S
H3534 C3548 0.960 . S
H3535 C3548 0.960 . S
C3536 H3528 0.929 . S
C3536 C3537 1.377 . S
C3536 C3538 1.384 . S
C3537 C3536 1.377 . S
C3537 C3543 1.390 . S
C3538 H3529 0.930 . S
C3538 C3536 1.384 . S
C3538 C3539 1.372 . S
C3539 C3538 1.372 . S
C3539 C3540 1.400 . S
C3539 C3544 1.490 . S
C3540 H3530 0.930 . S
C3540 C3539 1.400 . S
C3540 C3543 1.386 . S
H3541 C3557 0.930 . S
H3542 C3558 0.931 . S
C3543 H3531 0.929 . S
C3543 C3537 1.390 . S
C3543 C3540 1.386 . S
C3544 C3539 1.490 . S
C3544 C3546 1.395 . S
C3544 C3547 1.403 . S
H3545 C3551 0.930 . S
C3546 H3532 0.930 . S
C3546 C3544 1.395 . S
C3546 C3549 1.403 . S
C3547 C3544 1.403 . S
C3547 C3548 1.524 . S
C3547 C3551 1.400 . S
C3548 H3533 0.960 . S
C3548 H3534 0.960 . S
C3548 H3535 0.960 . S
C3548 C3547 1.524 . S
C3549 C3546 1.403 . S
C3549 C3550 1.392 . S
C3549 C3553 1.495 . S
C3550 C3549 1.392 . S
C3550 C3551 1.385 . S
C3550 C3552 1.478 . S
C3551 H3545 0.930 . S
C3551 C3547 1.400 . S
C3551 C3550 1.385 . S
C3552 C3550 1.478 . S
C3552 C3554 1.381 . S
C3552 C3558 1.383 . S
C3553 C3549 1.495 . S
C3553 H3559 0.959 . S
C3553 H3560 0.961 . S
C3553 H3561 0.960 . S
C3554 C3552 1.381 . S
C3554 C3555 1.394 . S
C3554 H3562 0.930 . S
C3555 C3554 1.394 . S
C3555 C3556 1.383 . S
C3555 H3563 0.929 . S
C3556 C3555 1.383 . S
C3556 C3557 1.377 . S
C3557 H3541 0.930 . S
C3557 C3556 1.377 . S
C3557 C3558 1.379 . S
C3558 H3542 0.931 . S
C3558 C3552 1.383 . S
C3558 C3557 1.379 . S
H3559 C3553 0.959 . S
H3560 C3553 0.961 . S
H3561 C3553 0.960 . S
H3562 C3554 0.930 . S
H3563 C3555 0.929 . S
H3564 C3572 0.929 . S
H3565 C3574 0.930 . S
H3566 C3576 0.930 . S
H3567 C3579 0.929 1_545 S
H3568 C3582 0.930 . S
H3569 C3584 0.960 . S
H3570 C3584 0.960 . S
H3571 C3584 0.960 . S
C3572 H3564 0.929 . S
C3572 C3573 1.377 . S
C3572 C3574 1.384 . S
C3573 C3572 1.377 . S
C3573 C3579 1.390 . S
C3574 H3565 0.930 . S
C3574 C3572 1.384 . S
C3574 C3575 1.372 1_565 S
C3575 C3574 1.372 1_545 S
C3575 C3576 1.400 . S
C3575 C3580 1.490 . S
C3576 H3566 0.930 . S
C3576 C3575 1.400 . S
C3576 C3579 1.386 1_545 S
H3577 C3593 0.930 1_455 S
H3578 C3594 0.931 . S
C3579 H3567 0.929 1_565 S
C3579 C3573 1.390 . S
C3579 C3576 1.386 1_565 S
C3580 C3575 1.490 . S
C3580 C3582 1.395 . S
C3580 C3583 1.403 . S
H3581 C3587 0.930 . S
C3582 H3568 0.930 . S
C3582 C3580 1.395 . S
C3582 C3585 1.403 . S
C3583 C3580 1.403 . S
C3583 C3584 1.524 . S
C3583 C3587 1.400 . S
C3584 H3569 0.960 . S
C3584 H3570 0.960 . S
C3584 H3571 0.960 . S
C3584 C3583 1.524 . S
C3585 C3582 1.403 . S
C3585 C3586 1.392 . S
C3585 C3589 1.495 . S
C3586 C3585 1.392 . S
C3586 C3587 1.385 . S
C3586 C3588 1.478 . S
C3587 H3581 0.930 . S
C3587 C3583 1.400 . S
C3587 C3586 1.385 . S
C3588 C3586 1.478 . S
C3588 C3590 1.381 . S
C3588 C3594 1.383 . S
C3589 C3585 1.495 . S
C3589 H3595 0.959 . S
C3589 H3596 0.961 . S
C3589 H3597 0.960 . S
C3590 C3588 1.381 . S
C3590 C3591 1.394 1_655 S
C3590 H3598 0.930 . S
C3591 C3590 1.394 1_455 S
C3591 C3592 1.383 . S
C3591 H3599 0.929 . S
C3592 C3591 1.383 . S
C3592 C3593 1.377 1_455 S
C3593 H3577 0.930 1_655 S
C3593 C3592 1.377 1_655 S
C3593 C3594 1.379 . S
C3594 H3578 0.931 . S
C3594 C3588 1.383 . S
C3594 C3593 1.379 . S
H3595 C3589 0.959 . S
H3596 C3589 0.961 . S
H3597 C3589 0.960 . S
H3598 C3590 0.930 . S
H3599 C3591 0.929 . S
H3600 C3608 0.929 . S
H3601 C3610 0.930 . S
H3602 C3612 0.930 . S
H3603 C3615 0.929 . S
H3604 C3618 0.930 . S
H3605 C3620 0.960 . S
H3606 C3620 0.960 . S
H3607 C3620 0.960 . S
C3608 H3600 0.929 . S
C3608 C3609 1.377 . S
C3608 C3610 1.384 . S
C3609 C3608 1.377 . S
C3609 C3615 1.390 . S
C3610 H3601 0.930 . S
C3610 C3608 1.384 . S
C3610 C3611 1.372 . S
C3611 C3610 1.372 . S
C3611 C3612 1.400 . S
C3611 C3616 1.490 . S
C3612 H3602 0.930 . S
C3612 C3611 1.400 . S
C3612 C3615 1.386 . S
H3613 C3629 0.930 . S
H3614 C3630 0.931 . S
C3615 H3603 0.929 . S
C3615 C3609 1.390 . S
C3615 C3612 1.386 . S
C3616 C3611 1.490 . S
C3616 C3618 1.395 . S
C3616 C3619 1.403 . S
H3617 C3623 0.930 . S
C3618 H3604 0.930 . S
C3618 C3616 1.395 . S
C3618 C3621 1.403 . S
C3619 C3616 1.403 . S
C3619 C3620 1.524 . S
C3619 C3623 1.400 . S
C3620 H3605 0.960 . S
C3620 H3606 0.960 . S
C3620 H3607 0.960 . S
C3620 C3619 1.524 . S
C3621 C3618 1.403 . S
C3621 C3622 1.392 . S
C3621 C3625 1.495 . S
C3622 C3621 1.392 . S
C3622 C3623 1.385 . S
C3622 C3624 1.478 . S
C3623 H3617 0.930 . S
C3623 C3619 1.400 . S
C3623 C3622 1.385 . S
C3624 C3622 1.478 . S
C3624 C3626 1.381 . S
C3624 C3630 1.383 . S
C3625 C3621 1.495 . S
C3625 H3631 0.959 . S
C3625 H3632 0.961 . S
C3625 H3633 0.960 . S
C3626 C3624 1.381 . S
C3626 C3627 1.394 . S
C3626 H3634 0.930 . S
C3627 C3626 1.394 . S
C3627 C3628 1.383 . S
C3627 H3635 0.929 . S
C3628 C3627 1.383 . S
C3628 C3629 1.377 . S
C3629 H3613 0.930 . S
C3629 C3628 1.377 . S
C3629 C3630 1.379 . S
C3630 H3614 0.931 . S
C3630 C3624 1.383 . S
C3630 C3629 1.379 . S
H3631 C3625 0.959 . S
H3632 C3625 0.961 . S
H3633 C3625 0.960 . S
H3634 C3626 0.930 . S
H3635 C3627 0.929 . S
H3636 C3644 0.929 . S
H3637 C3646 0.930 . S
H3638 C3648 0.930 . S
H3639 C3651 0.929 . S
H3640 C3654 0.930 . S
H3641 C3656 0.960 . S
H3642 C3656 0.960 . S
H3643 C3656 0.960 . S
C3644 H3636 0.929 . S
C3644 C3645 1.377 . S
C3644 C3646 1.384 . S
C3645 C3644 1.377 . S
C3645 C3651 1.390 . S
C3646 H3637 0.930 . S
C3646 C3644 1.384 . S
C3646 C3647 1.372 . S
C3647 C3646 1.372 . S
C3647 C3648 1.400 . S
C3647 C3652 1.490 . S
C3648 H3638 0.930 . S
C3648 C3647 1.400 . S
C3648 C3651 1.386 . S
H3649 C3665 0.930 . S
H3650 C3666 0.931 . S
C3651 H3639 0.929 . S
C3651 C3645 1.390 . S
C3651 C3648 1.386 . S
C3652 C3647 1.490 . S
C3652 C3654 1.395 . S
C3652 C3655 1.403 . S
H3653 C3659 0.930 . S
C3654 H3640 0.930 . S
C3654 C3652 1.395 . S
C3654 C3657 1.403 . S
C3655 C3652 1.403 . S
C3655 C3656 1.524 . S
C3655 C3659 1.400 . S
C3656 H3641 0.960 . S
C3656 H3642 0.960 . S
C3656 H3643 0.960 . S
C3656 C3655 1.524 . S
C3657 C3654 1.403 . S
C3657 C3658 1.392 . S
C3657 C3661 1.495 . S
C3658 C3657 1.392 . S
C3658 C3659 1.385 . S
C3658 C3660 1.478 . S
C3659 H3653 0.930 . S
C3659 C3655 1.400 . S
C3659 C3658 1.385 . S
C3660 C3658 1.478 . S
C3660 C3662 1.381 . S
C3660 C3666 1.383 . S
C3661 C3657 1.495 . S
C3661 H3667 0.959 . S
C3661 H3668 0.961 . S
C3661 H3669 0.960 . S
C3662 C3660 1.381 . S
C3662 C3663 1.394 . S
C3662 H3670 0.930 . S
C3663 C3662 1.394 . S
C3663 C3664 1.383 . S
C3663 H3671 0.929 . S
C3664 C3663 1.383 . S
C3664 C3665 1.377 . S
C3665 H3649 0.930 . S
C3665 C3664 1.377 . S
C3665 C3666 1.379 . S
C3666 H3650 0.931 . S
C3666 C3660 1.383 . S
C3666 C3665 1.379 . S
H3667 C3661 0.959 . S
H3668 C3661 0.961 . S
H3669 C3661 0.960 . S
H3670 C3662 0.930 . S
H3671 C3663 0.929 . S
H3672 C3680 0.929 . S
H3673 C3682 0.930 . S
H3674 C3684 0.930 . S
H3675 C3687 0.929 . S
H3676 C3690 0.930 . S
H3677 C3692 0.960 . S
H3678 C3692 0.960 . S
H3679 C3692 0.960 . S
C3680 H3672 0.929 . S
C3680 C3681 1.377 . S
C3680 C3682 1.384 . S
C3681 C3680 1.377 . S
C3681 C3687 1.390 . S
C3682 H3673 0.930 . S
C3682 C3680 1.384 . S
C3682 C3683 1.372 . S
C3683 C3682 1.372 . S
C3683 C3684 1.400 . S
C3683 C3688 1.490 . S
C3684 H3674 0.930 . S
C3684 C3683 1.400 . S
C3684 C3687 1.386 . S
H3685 C3701 0.930 . S
H3686 C3702 0.931 . S
C3687 H3675 0.929 . S
C3687 C3681 1.390 . S
C3687 C3684 1.386 . S
C3688 C3683 1.490 . S
C3688 C3690 1.395 . S
C3688 C3691 1.403 . S
H3689 C3695 0.930 . S
C3690 H3676 0.930 . S
C3690 C3688 1.395 . S
C3690 C3693 1.403 . S
C3691 C3688 1.403 . S
C3691 C3692 1.524 . S
C3691 C3695 1.400 . S
C3692 H3677 0.960 . S
C3692 H3678 0.960 . S
C3692 H3679 0.960 . S
C3692 C3691 1.524 . S
C3693 C3690 1.403 . S
C3693 C3694 1.392 . S
C3693 C3697 1.495 . S
C3694 C3693 1.392 . S
C3694 C3695 1.385 . S
C3694 C3696 1.478 . S
C3695 H3689 0.930 . S
C3695 C3691 1.400 . S
C3695 C3694 1.385 . S
C3696 C3694 1.478 . S
C3696 C3698 1.381 . S
C3696 C3702 1.383 . S
C3697 C3693 1.495 . S
C3697 H3703 0.959 . S
C3697 H3704 0.961 . S
C3697 H3705 0.960 . S
C3698 C3696 1.381 . S
C3698 C3699 1.394 . S
C3698 H3706 0.930 . S
C3699 C3698 1.394 . S
C3699 C3700 1.383 . S
C3699 H3707 0.929 . S
C3700 C3699 1.383 . S
C3700 C3701 1.377 . S
C3701 H3685 0.930 . S
C3701 C3700 1.377 . S
C3701 C3702 1.379 . S
C3702 H3686 0.931 . S
C3702 C3696 1.383 . S
C3702 C3701 1.379 . S
H3703 C3697 0.959 . S
H3704 C3697 0.961 . S
H3705 C3697 0.960 . S
H3706 C3698 0.930 . S
H3707 C3699 0.929 . S
H3708 C3716 0.929 . S
H3709 C3718 0.930 . S
H3710 C3720 0.930 . S
H3711 C3723 0.929 . S
H3712 C3726 0.930 . S
H3713 C3728 0.960 . S
H3714 C3728 0.960 . S
H3715 C3728 0.960 . S
C3716 H3708 0.929 . S
C3716 C3717 1.377 . S
C3716 C3718 1.384 . S
C3717 C3716 1.377 . S
C3717 C3723 1.390 . S
C3718 H3709 0.930 . S
C3718 C3716 1.384 . S
C3718 C3719 1.372 . S
C3719 C3718 1.372 . S
C3719 C3720 1.400 . S
C3719 C3724 1.490 . S
C3720 H3710 0.930 . S
C3720 C3719 1.400 . S
C3720 C3723 1.386 . S
H3721 C3737 0.930 . S
H3722 C3738 0.931 . S
C3723 H3711 0.929 . S
C3723 C3717 1.390 . S
C3723 C3720 1.386 . S
C3724 C3719 1.490 . S
C3724 C3726 1.395 . S
C3724 C3727 1.403 . S
H3725 C3731 0.930 . S
C3726 H3712 0.930 . S
C3726 C3724 1.395 . S
C3726 C3729 1.403 . S
C3727 C3724 1.403 . S
C3727 C3728 1.524 . S
C3727 C3731 1.400 . S
C3728 H3713 0.960 . S
C3728 H3714 0.960 . S
C3728 H3715 0.960 . S
C3728 C3727 1.524 . S
C3729 C3726 1.403 . S
C3729 C3730 1.392 . S
C3729 C3733 1.495 . S
C3730 C3729 1.392 . S
C3730 C3731 1.385 . S
C3730 C3732 1.478 . S
C3731 H3725 0.930 . S
C3731 C3727 1.400 . S
C3731 C3730 1.385 . S
C3732 C3730 1.478 . S
C3732 C3734 1.381 1_455 S
C3732 C3738 1.383 . S
C3733 C3729 1.495 . S
C3733 H3739 0.959 . S
C3733 H3740 0.961 . S
C3733 H3741 0.960 1_455 S
C3734 C3732 1.381 1_655 S
C3734 C3735 1.394 . S
C3734 H3742 0.930 . S
C3735 C3734 1.394 . S
C3735 C3736 1.383 . S
C3735 H3743 0.929 . S
C3736 C3735 1.383 . S
C3736 C3737 1.377 . S
C3737 H3721 0.930 . S
C3737 C3736 1.377 . S
C3737 C3738 1.379 1_655 S
C3738 H3722 0.931 . S
C3738 C3732 1.383 . S
C3738 C3737 1.379 1_455 S
H3739 C3733 0.959 . S
H3740 C3733 0.961 . S
H3741 C3733 0.960 1_655 S
H3742 C3734 0.930 . S
H3743 C3735 0.929 . S
H3744 C3752 0.912 1_545 S
H3745 C3754 0.930 . S
H3746 C3756 0.930 . S
H3747 C3759 0.929 . S
H3748 C3762 0.930 . S
H3749 C3764 0.960 . S
H3750 C3764 0.960 . S
H3751 C3764 0.960 . S
C3752 H3744 0.912 1_565 S
C3752 C3753 1.377 1_565 S
C3752 C3754 1.384 . S
C3753 C3752 1.377 1_545 S
C3753 C3759 1.390 . S
C3754 H3745 0.930 . S
C3754 C3752 1.384 . S
C3754 C3755 1.372 . S
C3755 C3754 1.372 . S
C3755 C3756 1.400 . S
C3755 C3760 1.490 . S
C3756 H3746 0.930 . S
C3756 C3755 1.400 . S
C3756 C3759 1.386 1_565 S
H3757 C3773 0.930 . S
H3758 C3774 0.931 . S
C3759 H3747 0.929 . S
C3759 C3753 1.390 . S
C3759 C3756 1.386 1_545 S
C3760 C3755 1.490 . S
C3760 C3762 1.395 . S
C3760 C3763 1.403 . S
H3761 C3767 0.930 . S
C3762 H3748 0.930 . S
C3762 C3760 1.395 . S
C3762 C3765 1.403 . S
C3763 C3760 1.403 . S
C3763 C3764 1.524 . S
C3763 C3767 1.400 . S
C3764 H3749 0.960 . S
C3764 H3750 0.960 . S
C3764 H3751 0.960 . S
C3764 C3763 1.524 . S
C3765 C3762 1.403 . S
C3765 C3766 1.392 . S
C3765 C3769 1.495 . S
C3766 C3765 1.392 . S
C3766 C3767 1.385 . S
C3766 C3768 1.478 . S
C3767 H3761 0.930 . S
C3767 C3763 1.400 . S
C3767 C3766 1.385 . S
C3768 C3766 1.478 . S
C3768 C3770 1.381 . S
C3768 C3774 1.383 . S
C3769 C3765 1.495 . S
C3769 H3775 0.959 . S
C3769 H3776 0.961 . S
C3769 H3777 0.960 . S
C3770 C3768 1.381 . S
C3770 C3771 1.394 . S
C3770 H3778 0.930 . S
C3771 C3770 1.394 . S
C3771 C3772 1.383 . S
C3771 H3779 0.929 . S
C3772 C3771 1.383 . S
C3772 C3773 1.377 . S
C3773 H3757 0.930 . S
C3773 C3772 1.377 . S
C3773 C3774 1.379 . S
C3774 H3758 0.931 . S
C3774 C3768 1.383 . S
C3774 C3773 1.379 . S
H3775 C3769 0.959 . S
H3776 C3769 0.961 . S
H3777 C3769 0.960 . S
H3778 C3770 0.930 . S
H3779 C3771 0.929 . S
H3780 C3788 0.929 . S
H3781 C3790 0.930 . S
H3782 C3792 0.930 . S
H3783 C3795 0.929 . S
H3784 C3798 0.930 . S
H3785 C3800 0.960 . S
H3786 C3800 0.960 . S
H3787 C3800 0.960 . S
C3788 H3780 0.929 . S
C3788 C3789 1.377 . S
C3788 C3790 1.384 . S
C3789 C3788 1.377 . S
C3789 C3795 1.390 . S
C3790 H3781 0.930 . S
C3790 C3788 1.384 . S
C3790 C3791 1.372 . S
C3791 C3790 1.372 . S
C3791 C3792 1.400 . S
C3791 C3796 1.490 . S
C3792 H3782 0.930 . S
C3792 C3791 1.400 . S
C3792 C3795 1.386 . S
H3793 C3809 0.930 . S
H3794 C3810 0.931 . S
C3795 H3783 0.929 . S
C3795 C3789 1.390 . S
C3795 C3792 1.386 . S
C3796 C3791 1.490 . S
C3796 C3798 1.395 1_545 S
C3796 C3799 1.403 . S
H3797 C3803 0.930 . S
C3798 H3784 0.930 . S
C3798 C3796 1.395 1_565 S
C3798 C3801 1.403 . S
C3799 C3796 1.403 . S
C3799 C3800 1.524 . S
C3799 C3803 1.400 1_545 S
C3800 H3785 0.960 . S
C3800 H3786 0.960 . S
C3800 H3787 0.960 . S
C3800 C3799 1.524 . S
C3801 C3798 1.403 . S
C3801 C3802 1.392 . S
C3801 C3805 1.495 . S
C3802 C3801 1.392 . S
C3802 C3803 1.385 . S
C3802 C3804 1.478 . S
C3803 H3797 0.930 . S
C3803 C3799 1.400 1_565 S
C3803 C3802 1.385 . S
C3804 C3802 1.478 . S
C3804 C3806 1.381 . S
C3804 C3810 1.383 . S
C3805 C3801 1.495 . S
C3805 H3811 0.959 . S
C3805 H3812 0.961 . S
C3805 H3813 0.960 . S
C3806 C3804 1.381 . S
C3806 C3807 1.394 . S
C3806 H3814 0.930 . S
C3807 C3806 1.394 . S
C3807 C3808 1.383 . S
C3807 H3815 0.929 . S
C3808 C3807 1.383 . S
C3808 C3809 1.377 . S
C3809 H3793 0.930 . S
C3809 C3808 1.377 . S
C3809 C3810 1.379 . S
C3810 H3794 0.931 . S
C3810 C3804 1.383 . S
C3810 C3809 1.379 . S
H3811 C3805 0.959 . S
H3812 C3805 0.961 . S
H3813 C3805 0.960 . S
H3814 C3806 0.930 . S
H3815 C3807 0.929 . S
H3816 C3824 0.929 . S
H3817 C3826 0.930 . S
H3818 C3828 0.930 . S
H3819 C3831 0.929 . S
H3820 C3834 0.930 . S
H3821 C3836 0.960 . S
H3822 C3836 0.960 . S
H3823 C3836 0.960 . S
C3824 H3816 0.929 . S
C3824 C3825 1.377 . S
C3824 C3826 1.384 . S
C3825 C3824 1.377 . S
C3825 C3831 1.390 . S
C3826 H3817 0.930 . S
C3826 C3824 1.384 . S
C3826 C3827 1.372 . S
C3827 C3826 1.372 . S
C3827 C3828 1.400 . S
C3827 C3832 1.490 . S
C3828 H3818 0.930 . S
C3828 C3827 1.400 . S
C3828 C3831 1.386 . S
H3829 C3845 0.930 . S
H3830 C3846 0.931 . S
C3831 H3819 0.929 . S
C3831 C3825 1.390 . S
C3831 C3828 1.386 . S
C3832 C3827 1.490 . S
C3832 C3834 1.395 . S
C3832 C3835 1.403 . S
H3833 C3839 0.930 . S
C3834 H3820 0.930 . S
C3834 C3832 1.395 . S
C3834 C3837 1.403 1_565 S
C3835 C3832 1.403 . S
C3835 C3836 1.524 . S
C3835 C3839 1.400 1_565 S
C3836 H3821 0.960 . S
C3836 H3822 0.960 . S
C3836 H3823 0.960 . S
C3836 C3835 1.524 . S
C3837 C3834 1.403 1_545 S
C3837 C3838 1.392 . S
C3837 C3841 1.495 . S
C3838 C3837 1.392 . S
C3838 C3839 1.385 . S
C3838 C3840 1.478 . S
C3839 H3833 0.930 . S
C3839 C3835 1.400 1_545 S
C3839 C3838 1.385 . S
C3840 C3838 1.478 . S
C3840 C3842 1.381 . S
C3840 C3846 1.383 . S
C3841 C3837 1.495 . S
C3841 H3847 0.959 . S
C3841 H3848 0.961 . S
C3841 H3849 0.960 . S
C3842 C3840 1.381 . S
C3842 C3843 1.394 . S
C3842 H3850 0.930 . S
C3843 C3842 1.394 . S
C3843 C3844 1.383 . S
C3843 H3851 0.929 . S
C3844 C3843 1.383 . S
C3844 C3845 1.377 . S
C3845 H3829 0.930 . S
C3845 C3844 1.377 . S
C3845 C3846 1.379 . S
C3846 H3830 0.931 . S
C3846 C3840 1.383 . S
C3846 C3845 1.379 . S
H3847 C3841 0.959 . S
H3848 C3841 0.961 . S
H3849 C3841 0.960 . S
H3850 C3842 0.930 . S
H3851 C3843 0.929 . S
H3852 C3860 0.929 . S
H3853 C3862 0.930 . S
H3854 C3864 0.930 . S
H3855 C3867 0.929 . S
H3856 C3870 0.930 . S
H3857 C3872 0.960 . S
H3858 C3872 0.960 . S
H3859 C3872 0.960 . S
C3860 H3852 0.929 . S
C3860 C3861 1.377 . S
C3860 C3862 1.384 1_545 S
C3861 C3860 1.377 . S
C3861 C3867 1.390 . S
C3862 H3853 0.930 . S
C3862 C3860 1.384 1_565 S
C3862 C3863 1.372 . S
C3863 C3862 1.372 . S
C3863 C3864 1.400 . S
C3863 C3868 1.490 . S
C3864 H3854 0.930 . S
C3864 C3863 1.400 . S
C3864 C3867 1.386 1_565 S
H3865 C3881 0.930 . S
H3866 C3882 0.931 . S
C3867 H3855 0.929 . S
C3867 C3861 1.390 . S
C3867 C3864 1.386 1_545 S
C3868 C3863 1.490 . S
C3868 C3870 1.395 . S
C3868 C3871 1.403 . S
H3869 C3875 0.930 . S
C3870 H3856 0.930 . S
C3870 C3868 1.395 . S
C3870 C3873 1.403 . S
C3871 C3868 1.403 . S
C3871 C3872 1.524 . S
C3871 C3875 1.400 . S
C3872 H3857 0.960 . S
C3872 H3858 0.960 . S
C3872 H3859 0.960 . S
C3872 C3871 1.524 . S
C3873 C3870 1.403 . S
C3873 C3874 1.392 . S
C3873 C3877 1.495 . S
C3874 C3873 1.392 . S
C3874 C3875 1.385 . S
C3874 C3876 1.478 . S
C3875 H3869 0.930 . S
C3875 C3871 1.400 . S
C3875 C3874 1.385 . S
C3876 C3874 1.478 . S
C3876 C3878 1.381 . S
C3876 C3882 1.383 1_455 S
C3877 C3873 1.495 . S
C3877 H3883 0.959 . S
C3877 H3884 0.961 1_455 S
C3877 H3885 0.960 . S
C3878 C3876 1.381 . S
C3878 C3879 1.394 1_455 S
C3878 H3886 0.930 . S
C3879 C3878 1.394 1_655 S
C3879 C3880 1.383 . S
C3879 H3887 0.929 . S
C3880 C3879 1.383 . S
C3880 C3881 1.377 . S
C3881 H3865 0.930 . S
C3881 C3880 1.377 . S
C3881 C3882 1.379 . S
C3882 H3866 0.931 . S
C3882 C3876 1.383 1_655 S
C3882 C3881 1.379 . S
H3883 C3877 0.959 . S
H3884 C3877 0.961 1_655 S
H3885 C3877 0.960 . S
H3886 C3878 0.930 . S
H3887 C3879 0.929 . S
H3888 C3896 0.929 . S
H3889 C3898 0.930 . S
H3890 C3900 0.930 . S
H3891 C3903 0.929 . S
H3892 C3906 0.930 . S
H3893 C3908 0.960 . S
H3894 C3908 0.960 . S
H3895 C3908 0.960 . S
C3896 H3888 0.929 . S
C3896 C3897 1.377 . S
C3896 C3898 1.384 . S
C3897 C3896 1.377 . S
C3897 C3903 1.390 . S
C3898 H3889 0.930 . S
C3898 C3896 1.384 . S
C3898 C3899 1.372 . S
C3899 C3898 1.372 . S
C3899 C3900 1.400 . S
C3899 C3904 1.490 . S
C3900 H3890 0.930 . S
C3900 C3899 1.400 . S
C3900 C3903 1.386 . S
H3901 C3917 0.930 . S
H3902 C3918 0.931 . S
C3903 H3891 0.929 . S
C3903 C3897 1.390 . S
C3903 C3900 1.386 . S
C3904 C3899 1.490 . S
C3904 C3906 1.395 . S
C3904 C3907 1.403 . S
H3905 C3911 0.930 . S
C3906 H3892 0.930 . S
C3906 C3904 1.395 . S
C3906 C3909 1.403 . S
C3907 C3904 1.403 . S
C3907 C3908 1.524 . S
C3907 C3911 1.400 . S
C3908 H3893 0.960 . S
C3908 H3894 0.960 . S
C3908 H3895 0.960 . S
C3908 C3907 1.524 . S
C3909 C3906 1.403 . S
C3909 C3910 1.392 . S
C3909 C3913 1.495 . S
C3910 C3909 1.392 . S
C3910 C3911 1.385 . S
C3910 C3912 1.478 . S
C3911 H3905 0.930 . S
C3911 C3907 1.400 . S
C3911 C3910 1.385 . S
C3912 C3910 1.478 . S
C3912 C3914 1.381 . S
C3912 C3918 1.383 . S
C3913 C3909 1.495 . S
C3913 H3919 0.959 . S
C3913 H3920 0.961 . S
C3913 H3921 0.960 . S
C3914 C3912 1.381 . S
C3914 C3915 1.394 . S
C3914 H3922 0.930 . S
C3915 C3914 1.394 . S
C3915 C3916 1.383 . S
C3915 H3923 0.929 . S
C3916 C3915 1.383 . S
C3916 C3917 1.377 . S
C3917 H3901 0.930 . S
C3917 C3916 1.377 . S
C3917 C3918 1.379 . S
C3918 H3902 0.931 . S
C3918 C3912 1.383 . S
C3918 C3917 1.379 . S
H3919 C3913 0.959 . S
H3920 C3913 0.961 . S
H3921 C3913 0.960 . S
H3922 C3914 0.930 . S
H3923 C3915 0.929 . S
H3924 C3932 0.929 . S
H3925 C3934 0.930 . S
H3926 C3936 0.930 . S
H3927 C3939 0.929 . S
H3928 C3942 0.930 . S
H3929 C3944 0.960 . S
H3930 C3944 0.960 . S
H3931 C3944 0.960 . S
C3932 H3924 0.929 . S
C3932 C3933 1.377 . S
C3932 C3934 1.384 . S
C3933 C3932 1.377 . S
C3933 C3939 1.390 . S
C3934 H3925 0.930 . S
C3934 C3932 1.384 . S
C3934 C3935 1.372 . S
C3935 C3934 1.372 . S
C3935 C3936 1.400 . S
C3935 C3940 1.490 . S
C3936 H3926 0.930 . S
C3936 C3935 1.400 . S
C3936 C3939 1.386 . S
H3937 C3953 0.930 . S
H3938 C3954 0.931 . S
C3939 H3927 0.929 . S
C3939 C3933 1.390 . S
C3939 C3936 1.386 . S
C3940 C3935 1.490 . S
C3940 C3942 1.395 . S
C3940 C3943 1.403 . S
H3941 C3947 0.930 . S
C3942 H3928 0.930 . S
C3942 C3940 1.395 . S
C3942 C3945 1.403 . S
C3943 C3940 1.403 . S
C3943 C3944 1.524 . S
C3943 C3947 1.400 . S
C3944 H3929 0.960 . S
C3944 H3930 0.960 . S
C3944 H3931 0.960 . S
C3944 C3943 1.524 . S
C3945 C3942 1.403 . S
C3945 C3946 1.392 . S
C3945 C3949 1.495 . S
C3946 C3945 1.392 . S
C3946 C3947 1.385 . S
C3946 C3948 1.478 . S
C3947 H3941 0.930 . S
C3947 C3943 1.400 . S
C3947 C3946 1.385 . S
C3948 C3946 1.478 . S
C3948 C3950 1.381 . S
C3948 C3954 1.383 . S
C3949 C3945 1.495 . S
C3949 H3955 0.959 . S
C3949 H3956 0.961 . S
C3949 H3957 0.960 . S
C3950 C3948 1.381 . S
C3950 C3951 1.394 . S
C3950 H3958 0.930 . S
C3951 C3950 1.394 . S
C3951 C3952 1.383 . S
C3951 H3959 0.929 . S
C3952 C3951 1.383 . S
C3952 C3953 1.377 . S
C3953 H3937 0.930 . S
C3953 C3952 1.377 . S
C3953 C3954 1.379 . S
C3954 H3938 0.931 . S
C3954 C3948 1.383 . S
C3954 C3953 1.379 . S
H3955 C3949 0.959 . S
H3956 C3949 0.961 . S
H3957 C3949 0.960 . S
H3958 C3950 0.930 . S
H3959 C3951 0.929 . S
H3960 C3968 0.929 . S
H3961 C3970 0.930 . S
H3962 C3972 0.930 . S
H3963 C3975 0.929 . S
H3964 C3978 0.930 . S
H3965 C3980 0.960 . S
H3966 C3980 0.960 . S
H3967 C3980 0.960 . S
C3968 H3960 0.929 . S
C3968 C3969 1.377 . S
C3968 C3970 1.384 . S
C3969 C3968 1.377 . S
C3969 C3975 1.390 . S
C3970 H3961 0.930 . S
C3970 C3968 1.384 . S
C3970 C3971 1.372 . S
C3971 C3970 1.372 . S
C3971 C3972 1.400 . S
C3971 C3976 1.490 . S
C3972 H3962 0.930 . S
C3972 C3971 1.400 . S
C3972 C3975 1.386 . S
H3973 C3989 0.930 . S
H3974 C3990 0.931 . S
C3975 H3963 0.929 . S
C3975 C3969 1.390 . S
C3975 C3972 1.386 . S
C3976 C3971 1.490 . S
C3976 C3978 1.395 . S
C3976 C3979 1.403 . S
H3977 C3983 0.930 . S
C3978 H3964 0.930 . S
C3978 C3976 1.395 . S
C3978 C3981 1.403 . S
C3979 C3976 1.403 . S
C3979 C3980 1.524 . S
C3979 C3983 1.400 . S
C3980 H3965 0.960 . S
C3980 H3966 0.960 . S
C3980 H3967 0.960 . S
C3980 C3979 1.524 . S
C3981 C3978 1.403 . S
C3981 C3982 1.392 . S
C3981 C3985 1.495 . S
C3982 C3981 1.392 . S
C3982 C3983 1.385 . S
C3982 C3984 1.478 . S
C3983 H3977 0.930 . S
C3983 C3979 1.400 . S
C3983 C3982 1.385 . S
C3984 C3982 1.478 . S
C3984 C3986 1.381 . S
C3984 C3990 1.383 . S
C3985 C3981 1.495 . S
C3985 H3991 0.959 . S
C3985 H3992 0.961 . S
C3985 H3993 0.960 . S
C3986 C3984 1.381 . S
C3986 C3987 1.394 . S
C3986 H3994 0.930 . S
C3987 C3986 1.394 . S
C3987 C3988 1.383 . S
C3987 H3995 0.929 . S
C3988 C3987 1.383 . S
C3988 C3989 1.377 . S
C3989 H3973 0.930 . S
C3989 C3988 1.377 . S
C3989 C3990 1.379 . S
C3990 H3974 0.931 . S
C3990 C3984 1.383 . S
C3990 C3989 1.379 . S
H3991 C3985 0.959 . S
H3992 C3985 0.961 . S
H3993 C3985 0.960 . S
H3994 C3986 0.930 . S
H3995 C3987 0.929 . S
H3996 C4004 0.929 . S
H3997 C4006 0.930 . S
H3998 C4008 0.930 . S
H3999 C4011 0.929 . S
H4000 C4014 0.930 . S
H4001 C4016 0.960 . S
H4002 C4016 0.960 . S
H4003 C4016 0.960 . S
C4004 H3996 0.929 . S
C4004 C4005 1.377 . S
C4004 C4006 1.384 . S
C4005 C4004 1.377 . S
C4005 C4011 1.390 . S
C4006 H3997 0.930 . S
C4006 C4004 1.384 . S
C4006 C4007 1.372 . S
C4007 C4006 1.372 . S
C4007 C4008 1.400 . S
C4007 C4012 1.490 . S
C4008 H3998 0.930 . S
C4008 C4007 1.400 . S
C4008 C4011 1.386 . S
H4009 C4025 0.930 . S
H4010 C4026 0.931 . S
C4011 H3999 0.929 . S
C4011 C4005 1.390 . S
C4011 C4008 1.386 . S
C4012 C4007 1.490 . S
C4012 C4014 1.395 . S
C4012 C4015 1.403 . S
H4013 C4019 0.930 . S
C4014 H4000 0.930 . S
C4014 C4012 1.395 . S
C4014 C4017 1.403 . S
C4015 C4012 1.403 . S
C4015 C4016 1.524 . S
C4015 C4019 1.400 . S
C4016 H4001 0.960 . S
C4016 H4002 0.960 . S
C4016 H4003 0.960 . S
C4016 C4015 1.524 . S
C4017 C4014 1.403 . S
C4017 C4018 1.392 . S
C4017 C4021 1.495 . S
C4018 C4017 1.392 . S
C4018 C4019 1.385 . S
C4018 C4020 1.478 . S
C4019 H4013 0.930 . S
C4019 C4015 1.400 . S
C4019 C4018 1.385 . S
C4020 C4018 1.478 . S
C4020 C4022 1.381 . S
C4020 C4026 1.383 . S
C4021 C4017 1.495 . S
C4021 H4027 0.959 . S
C4021 H4028 0.961 . S
C4021 H4029 0.960 . S
C4022 C4020 1.381 . S
C4022 C4023 1.394 . S
C4022 H4030 0.930 . S
C4023 C4022 1.394 . S
C4023 C4024 1.383 . S
C4023 H4031 0.929 . S
C4024 C4023 1.383 . S
C4024 C4025 1.377 . S
C4025 H4009 0.930 . S
C4025 C4024 1.377 . S
C4025 C4026 1.379 . S
C4026 H4010 0.931 . S
C4026 C4020 1.383 . S
C4026 C4025 1.379 . S
H4027 C4021 0.959 . S
H4028 C4021 0.961 . S
H4029 C4021 0.960 . S
H4030 C4022 0.930 . S
H4031 C4023 0.929 . S
H4032 C4040 0.929 . S
H4033 C4042 0.930 . S
H4034 C4044 0.930 . S
H4035 C4047 0.929 . S
H4036 C4050 0.930 . S
H4037 C4052 0.960 . S
H4038 C4052 0.960 . S
H4039 C4052 0.960 . S
C4040 H4032 0.929 . S
C4040 C4041 1.377 . S
C4040 C4042 1.384 . S
C4041 C4040 1.377 . S
C4041 C4047 1.390 . S
C4042 H4033 0.930 . S
C4042 C4040 1.384 . S
C4042 C4043 1.372 . S
C4043 C4042 1.372 . S
C4043 C4044 1.400 . S
C4043 C4048 1.490 . S
C4044 H4034 0.930 . S
C4044 C4043 1.400 . S
C4044 C4047 1.386 . S
H4045 C4061 0.930 . S
H4046 C4062 0.931 . S
C4047 H4035 0.929 . S
C4047 C4041 1.390 . S
C4047 C4044 1.386 . S
C4048 C4043 1.490 . S
C4048 C4050 1.395 . S
C4048 C4051 1.403 . S
H4049 C4055 0.930 . S
C4050 H4036 0.930 . S
C4050 C4048 1.395 . S
C4050 C4053 1.403 . S
C4051 C4048 1.403 . S
C4051 C4052 1.524 . S
C4051 C4055 1.400 . S
C4052 H4037 0.960 . S
C4052 H4038 0.960 . S
C4052 H4039 0.960 . S
C4052 C4051 1.524 . S
C4053 C4050 1.403 . S
C4053 C4054 1.392 . S
C4053 C4057 1.495 . S
C4054 C4053 1.392 . S
C4054 C4055 1.385 . S
C4054 C4056 1.478 . S
C4055 H4049 0.930 . S
C4055 C4051 1.400 . S
C4055 C4054 1.385 . S
C4056 C4054 1.478 . S
C4056 C4058 1.381 . S
C4056 C4062 1.383 . S
C4057 C4053 1.495 . S
C4057 H4063 0.959 . S
C4057 H4064 0.961 . S
C4057 H4065 0.960 . S
C4058 C4056 1.381 . S
C4058 C4059 1.394 . S
C4058 H4066 0.930 . S
C4059 C4058 1.394 . S
C4059 C4060 1.383 . S
C4059 H4067 0.929 . S
C4060 C4059 1.383 . S
C4060 C4061 1.377 . S
C4061 H4045 0.930 . S
C4061 C4060 1.377 . S
C4061 C4062 1.379 . S
C4062 H4046 0.931 . S
C4062 C4056 1.383 . S
C4062 C4061 1.379 . S
H4063 C4057 0.959 . S
H4064 C4057 0.961 . S
H4065 C4057 0.960 . S
H4066 C4058 0.930 . S
H4067 C4059 0.929 . S
H4068 C4076 0.929 . S
H4069 C4078 0.930 . S
H4070 C4080 0.930 . S
H4071 C4083 0.929 . S
H4072 C4086 0.930 . S
H4073 C4088 0.960 . S
H4074 C4088 0.960 . S
H4075 C4088 0.960 . S
C4076 H4068 0.929 . S
C4076 C4077 1.377 . S
C4076 C4078 1.384 . S
C4077 C4076 1.377 . S
C4077 C4083 1.390 . S
C4078 H4069 0.930 . S
C4078 C4076 1.384 . S
C4078 C4079 1.372 . S
C4079 C4078 1.372 . S
C4079 C4080 1.400 . S
C4079 C4084 1.490 . S
C4080 H4070 0.930 . S
C4080 C4079 1.400 . S
C4080 C4083 1.386 . S
H4081 C4097 0.930 . S
H4082 C4098 0.931 . S
C4083 H4071 0.929 . S
C4083 C4077 1.390 . S
C4083 C4080 1.386 . S
C4084 C4079 1.490 . S
C4084 C4086 1.395 . S
C4084 C4087 1.403 . S
H4085 C4091 0.930 . S
C4086 H4072 0.930 . S
C4086 C4084 1.395 . S
C4086 C4089 1.403 . S
C4087 C4084 1.403 . S
C4087 C4088 1.524 . S
C4087 C4091 1.400 . S
C4088 H4073 0.960 . S
C4088 H4074 0.960 . S
C4088 H4075 0.960 . S
C4088 C4087 1.524 . S
C4089 C4086 1.403 . S
C4089 C4090 1.392 . S
C4089 C4093 1.495 . S
C4090 C4089 1.392 . S
C4090 C4091 1.385 . S
C4090 C4092 1.478 . S
C4091 H4085 0.930 . S
C4091 C4087 1.400 . S
C4091 C4090 1.385 . S
C4092 C4090 1.478 . S
C4092 C4094 1.381 . S
C4092 C4098 1.383 . S
C4093 C4089 1.495 . S
C4093 H4099 0.959 . S
C4093 H4100 0.961 . S
C4093 H4101 0.960 . S
C4094 C4092 1.381 . S
C4094 C4095 1.394 . S
C4094 H4102 0.930 . S
C4095 C4094 1.394 . S
C4095 C4096 1.383 . S
C4095 H4103 0.929 . S
C4096 C4095 1.383 . S
C4096 C4097 1.377 . S
C4097 H4081 0.930 . S
C4097 C4096 1.377 . S
C4097 C4098 1.379 . S
C4098 H4082 0.931 . S
C4098 C4092 1.383 . S
C4098 C4097 1.379 . S
H4099 C4093 0.959 . S
H4100 C4093 0.961 . S
H4101 C4093 0.960 . S
H4102 C4094 0.930 . S
H4103 C4095 0.929 . S
H4104 C4112 0.929 . S
H4105 C4114 0.930 . S
H4106 C4116 0.930 . S
H4107 C4119 0.929 . S
H4108 C4122 0.930 . S
H4109 C4124 0.960 . S
H4110 C4124 0.960 . S
H4111 C4124 0.960 . S
C4112 H4104 0.929 . S
C4112 C4113 1.377 . S
C4112 C4114 1.384 . S
C4113 C4112 1.377 . S
C4113 C4119 1.390 . S
C4114 H4105 0.930 . S
C4114 C4112 1.384 . S
C4114 C4115 1.372 . S
C4115 C4114 1.372 . S
C4115 C4116 1.400 . S
C4115 C4120 1.490 . S
C4116 H4106 0.930 . S
C4116 C4115 1.400 . S
C4116 C4119 1.386 . S
H4117 C4133 0.930 . S
H4118 C4134 0.931 . S
C4119 H4107 0.929 . S
C4119 C4113 1.390 . S
C4119 C4116 1.386 . S
C4120 C4115 1.490 . S
C4120 C4122 1.395 . S
C4120 C4123 1.403 . S
H4121 C4127 0.930 . S
C4122 H4108 0.930 . S
C4122 C4120 1.395 . S
C4122 C4125 1.403 . S
C4123 C4120 1.403 . S
C4123 C4124 1.524 . S
C4123 C4127 1.400 . S
C4124 H4109 0.960 . S
C4124 H4110 0.960 . S
C4124 H4111 0.960 . S
C4124 C4123 1.524 . S
C4125 C4122 1.403 . S
C4125 C4126 1.392 . S
C4125 C4129 1.495 . S
C4126 C4125 1.392 . S
C4126 C4127 1.385 . S
C4126 C4128 1.478 . S
C4127 H4121 0.930 . S
C4127 C4123 1.400 . S
C4127 C4126 1.385 . S
C4128 C4126 1.478 . S
C4128 C4130 1.381 . S
C4128 C4134 1.383 . S
C4129 C4125 1.495 . S
C4129 H4135 0.959 . S
C4129 H4136 0.961 . S
C4129 H4137 0.960 . S
C4130 C4128 1.381 . S
C4130 C4131 1.394 . S
C4130 H4138 0.930 . S
C4131 C4130 1.394 . S
C4131 C4132 1.383 . S
C4131 H4139 0.929 . S
C4132 C4131 1.383 . S
C4132 C4133 1.377 . S
C4133 H4117 0.930 . S
C4133 C4132 1.377 . S
C4133 C4134 1.379 . S
C4134 H4118 0.931 . S
C4134 C4128 1.383 . S
C4134 C4133 1.379 . S
H4135 C4129 0.959 . S
H4136 C4129 0.961 . S
H4137 C4129 0.960 . S
H4138 C4130 0.930 . S
H4139 C4131 0.929 . S
H4140 C4148 0.929 . S
H4141 C4150 0.930 . S
H4142 C4152 0.930 . S
H4143 C4155 0.929 . S
H4144 C4158 0.930 . S
H4145 C4160 0.960 . S
H4146 C4160 0.960 . S
H4147 C4160 0.960 . S
C4148 H4140 0.929 . S
C4148 C4149 1.377 . S
C4148 C4150 1.384 . S
C4149 C4148 1.377 . S
C4149 C4155 1.390 . S
C4150 H4141 0.930 . S
C4150 C4148 1.384 . S
C4150 C4151 1.372 . S
C4151 C4150 1.372 . S
C4151 C4152 1.400 . S
C4151 C4156 1.490 . S
C4152 H4142 0.930 . S
C4152 C4151 1.400 . S
C4152 C4155 1.386 . S
H4153 C4169 0.930 . S
H4154 C4170 0.931 . S
C4155 H4143 0.929 . S
C4155 C4149 1.390 . S
C4155 C4152 1.386 . S
C4156 C4151 1.490 . S
C4156 C4158 1.395 . S
C4156 C4159 1.403 . S
H4157 C4163 0.930 . S
C4158 H4144 0.930 . S
C4158 C4156 1.395 . S
C4158 C4161 1.403 . S
C4159 C4156 1.403 . S
C4159 C4160 1.524 . S
C4159 C4163 1.400 . S
C4160 H4145 0.960 . S
C4160 H4146 0.960 . S
C4160 H4147 0.960 . S
C4160 C4159 1.524 . S
C4161 C4158 1.403 . S
C4161 C4162 1.392 . S
C4161 C4165 1.495 . S
C4162 C4161 1.392 . S
C4162 C4163 1.385 . S
C4162 C4164 1.478 . S
C4163 H4157 0.930 . S
C4163 C4159 1.400 . S
C4163 C4162 1.385 . S
C4164 C4162 1.478 . S
C4164 C4166 1.381 . S
C4164 C4170 1.383 . S
C4165 C4161 1.495 . S
C4165 H4171 0.959 . S
C4165 H4172 0.961 . S
C4165 H4173 0.960 . S
C4166 C4164 1.381 . S
C4166 C4167 1.394 . S
C4166 H4174 0.930 . S
C4167 C4166 1.394 . S
C4167 C4168 1.383 . S
C4167 H4175 0.929 . S
C4168 C4167 1.383 . S
C4168 C4169 1.377 . S
C4169 H4153 0.930 . S
C4169 C4168 1.377 . S
C4169 C4170 1.379 . S
C4170 H4154 0.931 . S
C4170 C4164 1.383 . S
C4170 C4169 1.379 . S
H4171 C4165 0.959 . S
H4172 C4165 0.961 . S
H4173 C4165 0.960 . S
H4174 C4166 0.930 . S
H4175 C4167 0.929 . S
H4176 C4184 0.929 . S
H4177 C4186 0.930 . S
H4178 C4188 0.930 . S
H4179 C4191 0.929 . S
H4180 C4194 0.930 . S
H4181 C4196 0.960 . S
H4182 C4196 0.960 . S
H4183 C4196 0.960 . S
C4184 H4176 0.929 . S
C4184 C4185 1.377 . S
C4184 C4186 1.384 . S
C4185 C4184 1.377 . S
C4185 C4191 1.390 . S
C4186 H4177 0.930 . S
C4186 C4184 1.384 . S
C4186 C4187 1.372 . S
C4187 C4186 1.372 . S
C4187 C4188 1.400 . S
C4187 C4192 1.490 . S
C4188 H4178 0.930 . S
C4188 C4187 1.400 . S
C4188 C4191 1.386 . S
H4189 C4205 0.930 . S
H4190 C4206 0.931 . S
C4191 H4179 0.929 . S
C4191 C4185 1.390 . S
C4191 C4188 1.386 . S
C4192 C4187 1.490 . S
C4192 C4194 1.395 . S
C4192 C4195 1.403 . S
H4193 C4199 0.930 . S
C4194 H4180 0.930 . S
C4194 C4192 1.395 . S
C4194 C4197 1.403 . S
C4195 C4192 1.403 . S
C4195 C4196 1.524 . S
C4195 C4199 1.400 . S
C4196 H4181 0.960 . S
C4196 H4182 0.960 . S
C4196 H4183 0.960 . S
C4196 C4195 1.524 . S
C4197 C4194 1.403 . S
C4197 C4198 1.392 . S
C4197 C4201 1.495 . S
C4198 C4197 1.392 . S
C4198 C4199 1.385 . S
C4198 C4200 1.478 . S
C4199 H4193 0.930 . S
C4199 C4195 1.400 . S
C4199 C4198 1.385 . S
C4200 C4198 1.478 . S
C4200 C4202 1.381 . S
C4200 C4206 1.383 . S
C4201 C4197 1.495 . S
C4201 H4207 0.959 . S
C4201 H4208 0.961 . S
C4201 H4209 0.960 . S
C4202 C4200 1.381 . S
C4202 C4203 1.394 . S
C4202 H4210 0.930 . S
C4203 C4202 1.394 . S
C4203 C4204 1.383 . S
C4203 H4211 0.929 . S
C4204 C4203 1.383 . S
C4204 C4205 1.377 . S
C4205 H4189 0.930 . S
C4205 C4204 1.377 . S
C4205 C4206 1.379 . S
C4206 H4190 0.931 . S
C4206 C4200 1.383 . S
C4206 C4205 1.379 . S
H4207 C4201 0.959 . S
H4208 C4201 0.961 . S
H4209 C4201 0.960 . S
H4210 C4202 0.930 . S
H4211 C4203 0.929 . S
H4212 C4220 0.929 . S
H4213 C4222 0.930 . S
H4214 C4224 0.930 . S
H4215 C4227 0.929 . S
H4216 C4230 0.930 . S
H4217 C4232 0.960 . S
H4218 C4232 0.960 . S
H4219 C4232 0.960 . S
C4220 H4212 0.929 . S
C4220 C4221 1.377 . S
C4220 C4222 1.384 . S
C4221 C4220 1.377 . S
C4221 C4227 1.390 . S
C4222 H4213 0.930 . S
C4222 C4220 1.384 . S
C4222 C4223 1.372 . S
C4223 C4222 1.372 . S
C4223 C4224 1.400 . S
C4223 C4228 1.490 . S
C4224 H4214 0.930 . S
C4224 C4223 1.400 . S
C4224 C4227 1.386 . S
H4225 C4241 0.930 . S
H4226 C4242 0.931 . S
C4227 H4215 0.929 . S
C4227 C4221 1.390 . S
C4227 C4224 1.386 . S
C4228 C4223 1.490 . S
C4228 C4230 1.395 . S
C4228 C4231 1.403 . S
H4229 C4235 0.930 . S
C4230 H4216 0.930 . S
C4230 C4228 1.395 . S
C4230 C4233 1.403 . S
C4231 C4228 1.403 . S
C4231 C4232 1.524 . S
C4231 C4235 1.400 . S
C4232 H4217 0.960 . S
C4232 H4218 0.960 . S
C4232 H4219 0.960 . S
C4232 C4231 1.524 . S
C4233 C4230 1.403 . S
C4233 C4234 1.392 . S
C4233 C4237 1.495 . S
C4234 C4233 1.392 . S
C4234 C4235 1.385 . S
C4234 C4236 1.478 . S
C4235 H4229 0.930 . S
C4235 C4231 1.400 . S
C4235 C4234 1.385 . S
C4236 C4234 1.478 . S
C4236 C4238 1.381 . S
C4236 C4242 1.383 . S
C4237 C4233 1.495 . S
C4237 H4243 0.959 . S
C4237 H4244 0.961 . S
C4237 H4245 0.960 . S
C4238 C4236 1.381 . S
C4238 C4239 1.394 . S
C4238 H4246 0.930 . S
C4239 C4238 1.394 . S
C4239 C4240 1.383 . S
C4239 H4247 0.929 . S
C4240 C4239 1.383 . S
C4240 C4241 1.377 . S
C4241 H4225 0.930 . S
C4241 C4240 1.377 . S
C4241 C4242 1.379 . S
C4242 H4226 0.931 . S
C4242 C4236 1.383 . S
C4242 C4241 1.379 . S
H4243 C4237 0.959 . S
H4244 C4237 0.961 . S
H4245 C4237 0.960 . S
H4246 C4238 0.930 . S
H4247 C4239 0.929 . S
H4248 C4256 0.929 . S
H4249 C4258 0.930 . S
H4250 C4260 0.930 . S
H4251 C4263 0.929 . S
H4252 C4266 0.930 . S
H4253 C4268 0.960 . S
H4254 C4268 0.960 . S
H4255 C4268 0.960 . S
C4256 H4248 0.929 . S
C4256 C4257 1.377 . S
C4256 C4258 1.384 . S
C4257 C4256 1.377 . S
C4257 C4263 1.390 . S
C4258 H4249 0.930 . S
C4258 C4256 1.384 . S
C4258 C4259 1.372 . S
C4259 C4258 1.372 . S
C4259 C4260 1.400 . S
C4259 C4264 1.490 . S
C4260 H4250 0.930 . S
C4260 C4259 1.400 . S
C4260 C4263 1.386 . S
H4261 C4277 0.930 . S
H4262 C4278 0.931 . S
C4263 H4251 0.929 . S
C4263 C4257 1.390 . S
C4263 C4260 1.386 . S
C4264 C4259 1.490 . S
C4264 C4266 1.395 . S
C4264 C4267 1.403 . S
H4265 C4271 0.930 . S
C4266 H4252 0.930 . S
C4266 C4264 1.395 . S
C4266 C4269 1.403 . S
C4267 C4264 1.403 . S
C4267 C4268 1.524 . S
C4267 C4271 1.400 . S
C4268 H4253 0.960 . S
C4268 H4254 0.960 . S
C4268 H4255 0.960 . S
C4268 C4267 1.524 . S
C4269 C4266 1.403 . S
C4269 C4270 1.392 . S
C4269 C4273 1.495 . S
C4270 C4269 1.392 . S
C4270 C4271 1.385 . S
C4270 C4272 1.478 . S
C4271 H4265 0.930 . S
C4271 C4267 1.400 . S
C4271 C4270 1.385 . S
C4272 C4270 1.478 . S
C4272 C4274 1.381 . S
C4272 C4278 1.383 . S
C4273 C4269 1.495 . S
C4273 H4279 0.959 . S
C4273 H4280 0.961 . S
C4273 H4281 0.960 . S
C4274 C4272 1.381 . S
C4274 C4275 1.394 . S
C4274 H4282 0.930 . S
C4275 C4274 1.394 . S
C4275 C4276 1.383 . S
C4275 H4283 0.929 . S
C4276 C4275 1.383 . S
C4276 C4277 1.377 . S
C4277 H4261 0.930 . S
C4277 C4276 1.377 . S
C4277 C4278 1.379 . S
C4278 H4262 0.931 . S
C4278 C4272 1.383 . S
C4278 C4277 1.379 . S
H4279 C4273 0.959 . S
H4280 C4273 0.961 . S
H4281 C4273 0.960 . S
H4282 C4274 0.930 . S
H4283 C4275 0.929 . S
H4284 C4292 0.929 . S
H4285 C4294 0.930 . S
H4286 C4296 0.930 . S
H4287 C4299 0.929 . S
H4288 C4302 0.930 . S
H4289 C4304 0.960 . S
H4290 C4304 0.960 . S
H4291 C4304 0.960 . S
C4292 H4284 0.929 . S
C4292 C4293 1.377 . S
C4292 C4294 1.384 . S
C4293 C4292 1.377 . S
C4293 C4299 1.390 . S
C4294 H4285 0.930 . S
C4294 C4292 1.384 . S
C4294 C4295 1.372 . S
C4295 C4294 1.372 . S
C4295 C4296 1.400 . S
C4295 C4300 1.490 . S
C4296 H4286 0.930 . S
C4296 C4295 1.400 . S
C4296 C4299 1.386 . S
H4297 C4313 0.930 . S
H4298 C4314 0.931 . S
C4299 H4287 0.929 . S
C4299 C4293 1.390 . S
C4299 C4296 1.386 . S
C4300 C4295 1.490 . S
C4300 C4302 1.395 . S
C4300 C4303 1.403 . S
H4301 C4307 0.930 . S
C4302 H4288 0.930 . S
C4302 C4300 1.395 . S
C4302 C4305 1.403 . S
C4303 C4300 1.403 . S
C4303 C4304 1.524 . S
C4303 C4307 1.400 . S
C4304 H4289 0.960 . S
C4304 H4290 0.960 . S
C4304 H4291 0.960 . S
C4304 C4303 1.524 . S
C4305 C4302 1.403 . S
C4305 C4306 1.392 . S
C4305 C4309 1.495 . S
C4306 C4305 1.392 . S
C4306 C4307 1.385 . S
C4306 C4308 1.478 . S
C4307 H4301 0.930 . S
C4307 C4303 1.400 . S
C4307 C4306 1.385 . S
C4308 C4306 1.478 . S
C4308 C4310 1.381 . S
C4308 C4314 1.383 . S
C4309 C4305 1.495 . S
C4309 H4315 0.959 . S
C4309 H4316 0.961 . S
C4309 H4317 0.960 . S
C4310 C4308 1.381 . S
C4310 C4311 1.394 . S
C4310 H4318 0.930 . S
C4311 C4310 1.394 . S
C4311 C4312 1.383 . S
C4311 H4319 0.929 . S
C4312 C4311 1.383 . S
C4312 C4313 1.377 . S
C4313 H4297 0.930 . S
C4313 C4312 1.377 . S
C4313 C4314 1.379 . S
C4314 H4298 0.931 . S
C4314 C4308 1.383 . S
C4314 C4313 1.379 . S
H4315 C4309 0.959 . S
H4316 C4309 0.961 . S
H4317 C4309 0.960 . S
H4318 C4310 0.930 . S
H4319 C4311 0.929 . S
H4320 C4328 0.929 . S
H4321 C4330 0.930 . S
H4322 C4332 0.930 . S
H4323 C4335 0.929 . S
H4324 C4338 0.930 . S
H4325 C4340 0.960 . S
H4326 C4340 0.960 . S
H4327 C4340 0.960 . S
C4328 H4320 0.929 . S
C4328 C4329 1.377 . S
C4328 C4330 1.384 . S
C4329 C4328 1.377 . S
C4329 C4335 1.390 . S
C4330 H4321 0.930 . S
C4330 C4328 1.384 . S
C4330 C4331 1.372 . S
C4331 C4330 1.372 . S
C4331 C4332 1.400 . S
C4331 C4336 1.490 . S
C4332 H4322 0.930 . S
C4332 C4331 1.400 . S
C4332 C4335 1.386 . S
H4333 C4349 0.930 . S
H4334 C4350 0.931 . S
C4335 H4323 0.929 . S
C4335 C4329 1.390 . S
C4335 C4332 1.386 . S
C4336 C4331 1.490 . S
C4336 C4338 1.395 . S
C4336 C4339 1.403 . S
H4337 C4343 0.930 . S
C4338 H4324 0.930 . S
C4338 C4336 1.395 . S
C4338 C4341 1.403 . S
C4339 C4336 1.403 . S
C4339 C4340 1.524 . S
C4339 C4343 1.400 . S
C4340 H4325 0.960 . S
C4340 H4326 0.960 . S
C4340 H4327 0.960 . S
C4340 C4339 1.524 . S
C4341 C4338 1.403 . S
C4341 C4342 1.392 . S
C4341 C4345 1.495 . S
C4342 C4341 1.392 . S
C4342 C4343 1.385 . S
C4342 C4344 1.478 . S
C4343 H4337 0.930 . S
C4343 C4339 1.400 . S
C4343 C4342 1.385 . S
C4344 C4342 1.478 . S
C4344 C4346 1.381 . S
C4344 C4350 1.383 . S
C4345 C4341 1.495 . S
C4345 H4351 0.959 . S
C4345 H4352 0.961 . S
C4345 H4353 0.960 . S
C4346 C4344 1.381 . S
C4346 C4347 1.394 . S
C4346 H4354 0.930 . S
C4347 C4346 1.394 . S
C4347 C4348 1.383 . S
C4347 H4355 0.929 . S
C4348 C4347 1.383 . S
C4348 C4349 1.377 . S
C4349 H4333 0.930 . S
C4349 C4348 1.377 . S
C4349 C4350 1.379 . S
C4350 H4334 0.931 . S
C4350 C4344 1.383 . S
C4350 C4349 1.379 . S
H4351 C4345 0.959 . S
H4352 C4345 0.961 . S
H4353 C4345 0.960 . S
H4354 C4346 0.930 . S
H4355 C4347 0.929 . S
H4356 C4364 0.929 . S
H4357 C4366 0.930 . S
H4358 C4368 0.930 . S
H4359 C4371 0.929 . S
H4360 C4374 0.930 . S
H4361 C4376 0.960 . S
H4362 C4376 0.960 . S
H4363 C4376 0.960 . S
C4364 H4356 0.929 . S
C4364 C4365 1.377 . S
C4364 C4366 1.384 . S
C4365 C4364 1.377 . S
C4365 C4371 1.390 . S
C4366 H4357 0.930 . S
C4366 C4364 1.384 . S
C4366 C4367 1.372 . S
C4367 C4366 1.372 . S
C4367 C4368 1.400 . S
C4367 C4372 1.490 . S
C4368 H4358 0.930 . S
C4368 C4367 1.400 . S
C4368 C4371 1.386 . S
H4369 C4385 0.930 . S
H4370 C4386 0.931 . S
C4371 H4359 0.929 . S
C4371 C4365 1.390 . S
C4371 C4368 1.386 . S
C4372 C4367 1.490 . S
C4372 C4374 1.395 . S
C4372 C4375 1.403 . S
H4373 C4379 0.930 . S
C4374 H4360 0.930 . S
C4374 C4372 1.395 . S
C4374 C4377 1.403 . S
C4375 C4372 1.403 . S
C4375 C4376 1.524 . S
C4375 C4379 1.400 . S
C4376 H4361 0.960 . S
C4376 H4362 0.960 . S
C4376 H4363 0.960 . S
C4376 C4375 1.524 . S
C4377 C4374 1.403 . S
C4377 C4378 1.392 . S
C4377 C4381 1.495 . S
C4378 C4377 1.392 . S
C4378 C4379 1.385 . S
C4378 C4380 1.478 . S
C4379 H4373 0.930 . S
C4379 C4375 1.400 . S
C4379 C4378 1.385 . S
C4380 C4378 1.478 . S
C4380 C4382 1.381 . S
C4380 C4386 1.383 . S
C4381 C4377 1.495 . S
C4381 H4387 0.959 . S
C4381 H4388 0.961 . S
C4381 H4389 0.960 . S
C4382 C4380 1.381 . S
C4382 C4383 1.394 . S
C4382 H4390 0.930 . S
C4383 C4382 1.394 . S
C4383 C4384 1.383 . S
C4383 H4391 0.929 . S
C4384 C4383 1.383 . S
C4384 C4385 1.377 . S
C4385 H4369 0.930 . S
C4385 C4384 1.377 . S
C4385 C4386 1.379 . S
C4386 H4370 0.931 . S
C4386 C4380 1.383 . S
C4386 C4385 1.379 . S
H4387 C4381 0.959 . S
H4388 C4381 0.961 . S
H4389 C4381 0.960 . S
H4390 C4382 0.930 . S
H4391 C4383 0.929 . S
H4392 C4400 0.929 . S
H4393 C4402 0.930 . S
H4394 C4404 0.930 . S
H4395 C4407 0.929 . S
H4396 C4410 0.930 . S
H4397 C4412 0.960 . S
H4398 C4412 0.960 . S
H4399 C4412 0.960 . S
C4400 H4392 0.929 . S
C4400 C4401 1.377 . S
C4400 C4402 1.384 . S
C4401 C4400 1.377 . S
C4401 C4407 1.390 . S
C4402 H4393 0.930 . S
C4402 C4400 1.384 . S
C4402 C4403 1.372 . S
C4403 C4402 1.372 . S
C4403 C4404 1.400 . S
C4403 C4408 1.490 . S
C4404 H4394 0.930 . S
C4404 C4403 1.400 . S
C4404 C4407 1.386 . S
H4405 C4421 0.930 . S
H4406 C4422 0.931 . S
C4407 H4395 0.929 . S
C4407 C4401 1.390 . S
C4407 C4404 1.386 . S
C4408 C4403 1.490 . S
C4408 C4410 1.395 . S
C4408 C4411 1.403 . S
H4409 C4415 0.930 . S
C4410 H4396 0.930 . S
C4410 C4408 1.395 . S
C4410 C4413 1.403 . S
C4411 C4408 1.403 . S
C4411 C4412 1.524 . S
C4411 C4415 1.400 . S
C4412 H4397 0.960 . S
C4412 H4398 0.960 . S
C4412 H4399 0.960 . S
C4412 C4411 1.524 . S
C4413 C4410 1.403 . S
C4413 C4414 1.392 . S
C4413 C4417 1.495 . S
C4414 C4413 1.392 . S
C4414 C4415 1.385 . S
C4414 C4416 1.478 . S
C4415 H4409 0.930 . S
C4415 C4411 1.400 . S
C4415 C4414 1.385 . S
C4416 C4414 1.478 . S
C4416 C4418 1.381 . S
C4416 C4422 1.383 . S
C4417 C4413 1.495 . S
C4417 H4423 0.959 . S
C4417 H4424 0.961 . S
C4417 H4425 0.960 . S
C4418 C4416 1.381 . S
C4418 C4419 1.394 . S
C4418 H4426 0.930 . S
C4419 C4418 1.394 . S
C4419 C4420 1.383 . S
C4419 H4427 0.929 . S
C4420 C4419 1.383 . S
C4420 C4421 1.377 . S
C4421 H4405 0.930 . S
C4421 C4420 1.377 . S
C4421 C4422 1.379 . S
C4422 H4406 0.931 . S
C4422 C4416 1.383 . S
C4422 C4421 1.379 . S
H4423 C4417 0.959 . S
H4424 C4417 0.961 . S
H4425 C4417 0.960 . S
H4426 C4418 0.930 . S
H4427 C4419 0.929 . S
H4428 C4436 0.929 . S
H4429 C4438 0.930 . S
H4430 C4440 0.930 . S
H4431 C4443 0.929 . S
H4432 C4446 0.930 . S
H4433 C4448 0.960 . S
H4434 C4448 0.960 . S
H4435 C4448 0.960 . S
C4436 H4428 0.929 . S
C4436 C4437 1.377 . S
C4436 C4438 1.384 . S
C4437 C4436 1.377 . S
C4437 C4443 1.390 . S
C4438 H4429 0.930 . S
C4438 C4436 1.384 . S
C4438 C4439 1.372 . S
C4439 C4438 1.372 . S
C4439 C4440 1.400 . S
C4439 C4444 1.490 . S
C4440 H4430 0.930 . S
C4440 C4439 1.400 . S
C4440 C4443 1.386 . S
H4441 C4457 0.930 . S
H4442 C4458 0.931 . S
C4443 H4431 0.929 . S
C4443 C4437 1.390 . S
C4443 C4440 1.386 . S
C4444 C4439 1.490 . S
C4444 C4446 1.395 . S
C4444 C4447 1.403 . S
H4445 C4451 0.930 . S
C4446 H4432 0.930 . S
C4446 C4444 1.395 . S
C4446 C4449 1.403 . S
C4447 C4444 1.403 . S
C4447 C4448 1.524 . S
C4447 C4451 1.400 . S
C4448 H4433 0.960 . S
C4448 H4434 0.960 . S
C4448 H4435 0.960 . S
C4448 C4447 1.524 . S
C4449 C4446 1.403 . S
C4449 C4450 1.392 . S
C4449 C4453 1.495 . S
C4450 C4449 1.392 . S
C4450 C4451 1.385 . S
C4450 C4452 1.478 . S
C4451 H4445 0.930 . S
C4451 C4447 1.400 . S
C4451 C4450 1.385 . S
C4452 C4450 1.478 . S
C4452 C4454 1.381 . S
C4452 C4458 1.383 . S
C4453 C4449 1.495 . S
C4453 H4459 0.959 . S
C4453 H4460 0.961 . S
C4453 H4461 0.960 . S
C4454 C4452 1.381 . S
C4454 C4455 1.394 . S
C4454 H4462 0.930 . S
C4455 C4454 1.394 . S
C4455 C4456 1.383 . S
C4455 H4463 0.929 . S
C4456 C4455 1.383 . S
C4456 C4457 1.377 . S
C4457 H4441 0.930 . S
C4457 C4456 1.377 . S
C4457 C4458 1.379 . S
C4458 H4442 0.931 . S
C4458 C4452 1.383 . S
C4458 C4457 1.379 . S
H4459 C4453 0.959 . S
H4460 C4453 0.961 . S
H4461 C4453 0.960 . S
H4462 C4454 0.930 . S
H4463 C4455 0.929 . S
H4464 C4472 0.929 . S
H4465 C4474 0.930 . S
H4466 C4476 0.930 . S
H4467 C4479 0.929 . S
H4468 C4482 0.930 . S
H4469 C4484 0.960 . S
H4470 C4484 0.960 . S
H4471 C4484 0.960 . S
C4472 H4464 0.929 . S
C4472 C4473 1.377 . S
C4472 C4474 1.384 . S
C4473 C4472 1.377 . S
C4473 C4479 1.390 . S
C4474 H4465 0.930 . S
C4474 C4472 1.384 . S
C4474 C4475 1.372 . S
C4475 C4474 1.372 . S
C4475 C4476 1.400 . S
C4475 C4480 1.490 . S
C4476 H4466 0.930 . S
C4476 C4475 1.400 . S
C4476 C4479 1.386 . S
H4477 C4493 0.930 . S
H4478 C4494 0.931 . S
C4479 H4467 0.929 . S
C4479 C4473 1.390 . S
C4479 C4476 1.386 . S
C4480 C4475 1.490 . S
C4480 C4482 1.395 . S
C4480 C4483 1.403 . S
H4481 C4487 0.930 . S
C4482 H4468 0.930 . S
C4482 C4480 1.395 . S
C4482 C4485 1.403 . S
C4483 C4480 1.403 . S
C4483 C4484 1.524 . S
C4483 C4487 1.400 . S
C4484 H4469 0.960 . S
C4484 H4470 0.960 . S
C4484 H4471 0.960 . S
C4484 C4483 1.524 . S
C4485 C4482 1.403 . S
C4485 C4486 1.392 . S
C4485 C4489 1.495 . S
C4486 C4485 1.392 . S
C4486 C4487 1.385 . S
C4486 C4488 1.478 . S
C4487 H4481 0.930 . S
C4487 C4483 1.400 . S
C4487 C4486 1.385 . S
C4488 C4486 1.478 . S
C4488 C4490 1.381 . S
C4488 C4494 1.383 . S
C4489 C4485 1.495 . S
C4489 H4495 0.959 . S
C4489 H4496 0.961 . S
C4489 H4497 0.960 . S
C4490 C4488 1.381 . S
C4490 C4491 1.394 . S
C4490 H4498 0.930 . S
C4491 C4490 1.394 . S
C4491 C4492 1.383 . S
C4491 H4499 0.929 . S
C4492 C4491 1.383 . S
C4492 C4493 1.377 . S
C4493 H4477 0.930 . S
C4493 C4492 1.377 . S
C4493 C4494 1.379 . S
C4494 H4478 0.931 . S
C4494 C4488 1.383 . S
C4494 C4493 1.379 . S
H4495 C4489 0.959 . S
H4496 C4489 0.961 . S
H4497 C4489 0.960 . S
H4498 C4490 0.930 . S
H4499 C4491 0.929 . S
H4500 C4508 0.929 . S
H4501 C4510 0.930 . S
H4502 C4512 0.930 . S
H4503 C4515 0.929 . S
H4504 C4518 0.930 . S
H4505 C4520 0.960 . S
H4506 C4520 0.960 . S
H4507 C4520 0.960 . S
C4508 H4500 0.929 . S
C4508 C4509 1.377 . S
C4508 C4510 1.384 . S
C4509 C4508 1.377 . S
C4509 C4515 1.390 . S
C4510 H4501 0.930 . S
C4510 C4508 1.384 . S
C4510 C4511 1.372 . S
C4511 C4510 1.372 . S
C4511 C4512 1.400 . S
C4511 C4516 1.490 . S
C4512 H4502 0.930 . S
C4512 C4511 1.400 . S
C4512 C4515 1.386 . S
H4513 C4529 0.930 . S
H4514 C4530 0.931 . S
C4515 H4503 0.929 . S
C4515 C4509 1.390 . S
C4515 C4512 1.386 . S
C4516 C4511 1.490 . S
C4516 C4518 1.395 . S
C4516 C4519 1.403 . S
H4517 C4523 0.930 . S
C4518 H4504 0.930 . S
C4518 C4516 1.395 . S
C4518 C4521 1.403 . S
C4519 C4516 1.403 . S
C4519 C4520 1.524 . S
C4519 C4523 1.400 . S
C4520 H4505 0.960 . S
C4520 H4506 0.960 . S
C4520 H4507 0.960 . S
C4520 C4519 1.524 . S
C4521 C4518 1.403 . S
C4521 C4522 1.392 . S
C4521 C4525 1.495 . S
C4522 C4521 1.392 . S
C4522 C4523 1.385 . S
C4522 C4524 1.478 . S
C4523 H4517 0.930 . S
C4523 C4519 1.400 . S
C4523 C4522 1.385 . S
C4524 C4522 1.478 . S
C4524 C4526 1.381 . S
C4524 C4530 1.383 . S
C4525 C4521 1.495 . S
C4525 H4531 0.959 . S
C4525 H4532 0.961 . S
C4525 H4533 0.960 . S
C4526 C4524 1.381 . S
C4526 C4527 1.394 . S
C4526 H4534 0.930 . S
C4527 C4526 1.394 . S
C4527 C4528 1.383 . S
C4527 H4535 0.929 . S
C4528 C4527 1.383 . S
C4528 C4529 1.377 . S
C4529 H4513 0.930 . S
C4529 C4528 1.377 . S
C4529 C4530 1.379 . S
C4530 H4514 0.931 . S
C4530 C4524 1.383 . S
C4530 C4529 1.379 . S
H4531 C4525 0.959 . S
H4532 C4525 0.961 . S
H4533 C4525 0.960 . S
H4534 C4526 0.930 . S
H4535 C4527 0.929 . S
H4536 C4544 0.929 . S
H4537 C4546 0.930 . S
H4538 C4548 0.930 . S
H4539 C4551 0.929 . S
H4540 C4554 0.930 . S
H4541 C4556 0.960 . S
H4542 C4556 0.960 . S
H4543 C4556 0.960 . S
C4544 H4536 0.929 . S
C4544 C4545 1.377 . S
C4544 C4546 1.384 . S
C4545 C4544 1.377 . S
C4545 C4551 1.390 . S
C4546 H4537 0.930 . S
C4546 C4544 1.384 . S
C4546 C4547 1.372 . S
C4547 C4546 1.372 . S
C4547 C4548 1.400 . S
C4547 C4552 1.490 . S
C4548 H4538 0.930 . S
C4548 C4547 1.400 . S
C4548 C4551 1.386 . S
H4549 C4565 0.930 . S
H4550 C4566 0.931 . S
C4551 H4539 0.929 . S
C4551 C4545 1.390 . S
C4551 C4548 1.386 . S
C4552 C4547 1.490 . S
C4552 C4554 1.395 . S
C4552 C4555 1.403 . S
H4553 C4559 0.930 . S
C4554 H4540 0.930 . S
C4554 C4552 1.395 . S
C4554 C4557 1.403 . S
C4555 C4552 1.403 . S
C4555 C4556 1.524 . S
C4555 C4559 1.400 . S
C4556 H4541 0.960 . S
C4556 H4542 0.960 . S
C4556 H4543 0.960 . S
C4556 C4555 1.524 . S
C4557 C4554 1.403 . S
C4557 C4558 1.392 . S
C4557 C4561 1.495 . S
C4558 C4557 1.392 . S
C4558 C4559 1.385 . S
C4558 C4560 1.478 . S
C4559 H4553 0.930 . S
C4559 C4555 1.400 . S
C4559 C4558 1.385 . S
C4560 C4558 1.478 . S
C4560 C4562 1.381 . S
C4560 C4566 1.383 . S
C4561 C4557 1.495 . S
C4561 H4567 0.959 . S
C4561 H4568 0.961 . S
C4561 H4569 0.960 . S
C4562 C4560 1.381 . S
C4562 C4563 1.394 . S
C4562 H4570 0.930 . S
C4563 C4562 1.394 . S
C4563 C4564 1.383 . S
C4563 H4571 0.929 . S
C4564 C4563 1.383 . S
C4564 C4565 1.377 . S
C4565 H4549 0.930 . S
C4565 C4564 1.377 . S
C4565 C4566 1.379 . S
C4566 H4550 0.931 . S
C4566 C4560 1.383 . S
C4566 C4565 1.379 . S
H4567 C4561 0.959 . S
H4568 C4561 0.961 . S
H4569 C4561 0.960 . S
H4570 C4562 0.930 . S
H4571 C4563 0.929 . S
H4572 C4580 0.929 . S
H4573 C4582 0.930 . S
H4574 C4584 0.930 . S
H4575 C4587 0.929 . S
H4576 C4590 0.930 . S
H4577 C4592 0.960 . S
H4578 C4592 0.960 . S
H4579 C4592 0.960 . S
C4580 H4572 0.929 . S
C4580 C4581 1.377 . S
C4580 C4582 1.384 . S
C4581 C4580 1.377 . S
C4581 C4587 1.390 . S
C4582 H4573 0.930 . S
C4582 C4580 1.384 . S
C4582 C4583 1.372 . S
C4583 C4582 1.372 . S
C4583 C4584 1.400 . S
C4583 C4588 1.490 . S
C4584 H4574 0.930 . S
C4584 C4583 1.400 . S
C4584 C4587 1.386 . S
H4585 C4601 0.930 . S
H4586 C4602 0.931 . S
C4587 H4575 0.929 . S
C4587 C4581 1.390 . S
C4587 C4584 1.386 . S
C4588 C4583 1.490 . S
C4588 C4590 1.395 . S
C4588 C4591 1.403 . S
H4589 C4595 0.930 . S
C4590 H4576 0.930 . S
C4590 C4588 1.395 . S
C4590 C4593 1.403 1_455 S
C4591 C4588 1.403 . S
C4591 C4592 1.524 . S
C4591 C4595 1.400 . S
C4592 H4577 0.960 . S
C4592 H4578 0.960 . S
C4592 H4579 0.960 . S
C4592 C4591 1.524 . S
C4593 C4590 1.403 1_655 S
C4593 C4594 1.392 . S
C4593 C4597 1.495 . S
C4594 C4593 1.392 . S
C4594 C4595 1.385 1_655 S
C4594 C4596 1.478 . S
C4595 H4589 0.930 . S
C4595 C4591 1.400 . S
C4595 C4594 1.385 1_455 S
C4596 C4594 1.478 . S
C4596 C4598 1.381 . S
C4596 C4602 1.383 . S
C4597 C4593 1.495 . S
C4597 H4603 0.959 . S
C4597 H4604 0.961 . S
C4597 H4605 0.960 . S
C4598 C4596 1.381 . S
C4598 C4599 1.394 . S
C4598 H4606 0.930 . S
C4599 C4598 1.394 . S
C4599 C4600 1.383 . S
C4599 H4607 0.929 . S
C4600 C4599 1.383 . S
C4600 C4601 1.377 . S
C4601 H4585 0.930 . S
C4601 C4600 1.377 . S
C4601 C4602 1.379 . S
C4602 H4586 0.931 . S
C4602 C4596 1.383 . S
C4602 C4601 1.379 . S
H4603 C4597 0.959 . S
H4604 C4597 0.961 . S
H4605 C4597 0.960 . S
H4606 C4598 0.930 . S
H4607 C4599 0.929 . S
H4608 C4616 0.929 . S
H4609 C4618 0.930 . S
H4610 C4620 0.930 . S
H4611 C4623 0.929 . S
H4612 C4626 0.930 . S
H4613 C4628 0.960 . S
H4614 C4628 0.960 . S
H4615 C4628 0.960 . S
C4616 H4608 0.929 . S
C4616 C4617 1.377 . S
C4616 C4618 1.384 . S
C4617 C4616 1.377 . S
C4617 C4623 1.390 . S
C4618 H4609 0.930 . S
C4618 C4616 1.384 . S
C4618 C4619 1.372 . S
C4619 C4618 1.372 . S
C4619 C4620 1.400 . S
C4619 C4624 1.490 . S
C4620 H4610 0.930 . S
C4620 C4619 1.400 . S
C4620 C4623 1.386 . S
H4621 C4637 0.930 . S
H4622 C4638 0.931 . S
C4623 H4611 0.929 . S
C4623 C4617 1.390 . S
C4623 C4620 1.386 . S
C4624 C4619 1.490 . S
C4624 C4626 1.395 . S
C4624 C4627 1.403 . S
H4625 C4631 0.930 . S
C4626 H4612 0.930 . S
C4626 C4624 1.395 . S
C4626 C4629 1.403 . S
C4627 C4624 1.403 . S
C4627 C4628 1.524 . S
C4627 C4631 1.400 . S
C4628 H4613 0.960 . S
C4628 H4614 0.960 . S
C4628 H4615 0.960 . S
C4628 C4627 1.524 . S
C4629 C4626 1.403 . S
C4629 C4630 1.392 . S
C4629 C4633 1.495 . S
C4630 C4629 1.392 . S
C4630 C4631 1.385 . S
C4630 C4632 1.478 . S
C4631 H4625 0.930 . S
C4631 C4627 1.400 . S
C4631 C4630 1.385 . S
C4632 C4630 1.478 . S
C4632 C4634 1.381 . S
C4632 C4638 1.383 . S
C4633 C4629 1.495 . S
C4633 H4639 0.959 . S
C4633 H4640 0.961 . S
C4633 H4641 0.960 . S
C4634 C4632 1.381 . S
C4634 C4635 1.394 . S
C4634 H4642 0.930 . S
C4635 C4634 1.394 . S
C4635 C4636 1.383 . S
C4635 H4643 0.929 . S
C4636 C4635 1.383 . S
C4636 C4637 1.377 . S
C4637 H4621 0.930 . S
C4637 C4636 1.377 . S
C4637 C4638 1.379 . S
C4638 H4622 0.931 . S
C4638 C4632 1.383 . S
C4638 C4637 1.379 . S
H4639 C4633 0.959 . S
H4640 C4633 0.961 . S
H4641 C4633 0.960 . S
H4642 C4634 0.930 . S
H4643 C4635 0.929 . S
H4644 C4652 0.929 . S
H4645 C4654 0.930 . S
H4646 C4656 0.930 . S
H4647 C4659 0.929 . S
H4648 C4662 0.930 . S
H4649 C4664 0.960 . S
H4650 C4664 0.960 . S
H4651 C4664 0.960 . S
C4652 H4644 0.929 . S
C4652 C4653 1.377 . S
C4652 C4654 1.384 . S
C4653 C4652 1.377 . S
C4653 C4659 1.390 . S
C4654 H4645 0.930 . S
C4654 C4652 1.384 . S
C4654 C4655 1.372 . S
C4655 C4654 1.372 . S
C4655 C4656 1.400 . S
C4655 C4660 1.490 . S
C4656 H4646 0.930 . S
C4656 C4655 1.400 . S
C4656 C4659 1.386 . S
H4657 C4673 0.930 . S
H4658 C4674 0.931 . S
C4659 H4647 0.929 . S
C4659 C4653 1.390 . S
C4659 C4656 1.386 . S
C4660 C4655 1.490 . S
C4660 C4662 1.395 . S
C4660 C4663 1.403 . S
H4661 C4667 0.930 . S
C4662 H4648 0.930 . S
C4662 C4660 1.395 . S
C4662 C4665 1.403 . S
C4663 C4660 1.403 . S
C4663 C4664 1.524 . S
C4663 C4667 1.400 . S
C4664 H4649 0.960 . S
C4664 H4650 0.960 . S
C4664 H4651 0.960 . S
C4664 C4663 1.524 . S
C4665 C4662 1.403 . S
C4665 C4666 1.392 . S
C4665 C4669 1.495 1_545 S
C4666 C4665 1.392 . S
C4666 C4667 1.385 . S
C4666 C4668 1.478 1_545 S
C4667 H4661 0.930 . S
C4667 C4663 1.400 . S
C4667 C4666 1.385 . S
C4668 C4666 1.478 1_565 S
C4668 C4670 1.381 . S
C4668 C4674 1.383 . S
C4669 C4665 1.495 1_565 S
C4669 H4675 0.959 1_565 S
C4669 H4676 0.961 . S
C4669 H4677 0.960 . S
C4670 C4668 1.381 . S
C4670 C4671 1.394 . S
C4670 H4678 0.930 . S
C4671 C4670 1.394 . S
C4671 C4672 1.383 . S
C4671 H4679 0.929 . S
C4672 C4671 1.383 . S
C4672 C4673 1.377 . S
C4673 H4657 0.930 . S
C4673 C4672 1.377 . S
C4673 C4674 1.379 . S
C4674 H4658 0.931 . S
C4674 C4668 1.383 . S
C4674 C4673 1.379 . S
H4675 C4669 0.959 1_545 S
H4676 C4669 0.961 . S
H4677 C4669 0.960 . S
H4678 C4670 0.930 . S
H4679 C4671 0.929 . S
H4680 C4688 0.929 . S
H4681 C4690 0.930 . S
H4682 C4692 0.930 . S
H4683 C4695 0.929 . S
H4684 C4698 0.930 1_565 S
H4685 C4700 0.960 . S
H4686 C4700 0.960 . S
H4687 C4700 0.960 . S
C4688 H4680 0.929 . S
C4688 C4689 1.377 . S
C4688 C4690 1.384 . S
C4689 C4688 1.377 . S
C4689 C4695 1.390 . S
C4690 H4681 0.930 . S
C4690 C4688 1.384 . S
C4690 C4691 1.372 . S
C4691 C4690 1.372 . S
C4691 C4692 1.400 . S
C4691 C4696 1.490 1_565 S
C4692 H4682 0.930 . S
C4692 C4691 1.400 . S
C4692 C4695 1.386 . S
H4693 C4709 0.930 . S
H4694 C4710 0.931 . S
C4695 H4683 0.929 . S
C4695 C4689 1.390 . S
C4695 C4692 1.386 . S
C4696 C4691 1.490 1_545 S
C4696 C4698 1.395 . S
C4696 C4699 1.403 . S
H4697 C4703 0.930 . S
C4698 H4684 0.930 1_545 S
C4698 C4696 1.395 . S
C4698 C4701 1.403 . S
C4699 C4696 1.403 . S
C4699 C4700 1.524 . S
C4699 C4703 1.400 . S
C4700 H4685 0.960 . S
C4700 H4686 0.960 . S
C4700 H4687 0.960 . S
C4700 C4699 1.524 . S
C4701 C4698 1.403 . S
C4701 C4702 1.392 . S
C4701 C4705 1.495 . S
C4702 C4701 1.392 . S
C4702 C4703 1.385 . S
C4702 C4704 1.478 . S
C4703 H4697 0.930 . S
C4703 C4699 1.400 . S
C4703 C4702 1.385 . S
C4704 C4702 1.478 . S
C4704 C4706 1.381 . S
C4704 C4710 1.383 . S
C4705 C4701 1.495 . S
C4705 H4711 0.959 . S
C4705 H4712 0.961 . S
C4705 H4713 0.960 . S
C4706 C4704 1.381 . S
C4706 C4707 1.394 . S
C4706 H4714 0.930 . S
C4707 C4706 1.394 . S
C4707 C4708 1.383 . S
C4707 H4715 0.929 . S
C4708 C4707 1.383 . S
C4708 C4709 1.377 . S
C4709 H4693 0.930 . S
C4709 C4708 1.377 . S
C4709 C4710 1.379 . S
C4710 H4694 0.931 . S
C4710 C4704 1.383 . S
C4710 C4709 1.379 . S
H4711 C4705 0.959 . S
H4712 C4705 0.961 . S
H4713 C4705 0.960 . S
H4714 C4706 0.930 . S
H4715 C4707 0.929 . S
H4716 C4724 0.929 . S
H4717 C4726 0.930 . S
H4718 C4728 0.930 . S
H4719 C4731 0.929 . S
H4720 C4734 0.930 . S
H4721 C4736 0.960 . S
H4722 C4736 0.960 . S
H4723 C4736 0.960 . S
C4724 H4716 0.929 . S
C4724 C4725 1.377 . S
C4724 C4726 1.384 . S
C4725 C4724 1.377 . S
C4725 C4731 1.390 . S
C4726 H4717 0.930 . S
C4726 C4724 1.384 . S
C4726 C4727 1.372 . S
C4727 C4726 1.372 . S
C4727 C4728 1.400 . S
C4727 C4732 1.490 . S
C4728 H4718 0.930 . S
C4728 C4727 1.400 . S
C4728 C4731 1.386 . S
H4729 C4745 0.930 . S
H4730 C4746 0.931 . S
C4731 H4719 0.929 . S
C4731 C4725 1.390 . S
C4731 C4728 1.386 . S
C4732 C4727 1.490 . S
C4732 C4734 1.395 . S
C4732 C4735 1.403 . S
H4733 C4739 0.954 . S
C4734 H4720 0.930 . S
C4734 C4732 1.395 . S
C4734 C4737 1.403 . S
C4735 C4732 1.403 . S
C4735 C4736 1.524 . S
C4735 C4739 1.381 1_455 S
C4736 H4721 0.960 . S
C4736 H4722 0.960 . S
C4736 H4723 0.960 . S
C4736 C4735 1.524 . S
C4737 C4734 1.403 . S
C4737 C4738 1.392 1_455 S
C4737 C4741 1.495 . S
C4738 C4737 1.392 1_655 S
C4738 C4739 1.382 . S
C4738 C4740 1.478 . S
C4739 H4733 0.954 . S
C4739 C4735 1.381 1_655 S
C4739 C4738 1.382 . S
C4740 C4738 1.478 . S
C4740 C4742 1.381 . S
C4740 C4746 1.383 . S
C4741 C4737 1.495 . S
C4741 H4747 0.959 . S
C4741 H4748 0.961 1_455 S
C4741 H4749 0.960 . S
C4742 C4740 1.381 . S
C4742 C4743 1.394 . S
C4742 H4750 0.930 . S
C4743 C4742 1.394 . S
C4743 C4744 1.383 . S
C4743 H4751 0.929 . S
C4744 C4743 1.383 . S
C4744 C4745 1.377 . S
C4745 H4729 0.930 . S
C4745 C4744 1.377 . S
C4745 C4746 1.379 . S
C4746 H4730 0.931 . S
C4746 C4740 1.383 . S
C4746 C4745 1.379 . S
H4747 C4741 0.959 . S
H4748 C4741 0.961 1_655 S
H4749 C4741 0.960 . S
H4750 C4742 0.930 . S
H4751 C4743 0.929 . S
H4752 C4760 0.929 . S
H4753 C4762 0.930 . S
H4754 C4764 0.930 . S
H4755 C4767 0.929 . S
H4756 C4770 0.930 . S
H4757 C4772 0.960 . S
H4758 C4772 0.960 . S
H4759 C4772 0.960 . S
C4760 H4752 0.929 . S
C4760 C4761 1.377 . S
C4760 C4762 1.384 . S
C4761 C4760 1.377 . S
C4761 C4767 1.390 . S
C4762 H4753 0.930 . S
C4762 C4760 1.384 . S
C4762 C4763 1.372 . S
C4763 C4762 1.372 . S
C4763 C4764 1.400 . S
C4763 C4768 1.490 . S
C4764 H4754 0.930 . S
C4764 C4763 1.400 . S
C4764 C4767 1.386 . S
H4765 C4781 0.930 . S
H4766 C4782 0.931 . S
C4767 H4755 0.929 . S
C4767 C4761 1.390 . S
C4767 C4764 1.386 . S
C4768 C4763 1.490 . S
C4768 C4770 1.395 . S
C4768 C4771 1.403 . S
H4769 C4775 0.930 . S
C4770 H4756 0.930 . S
C4770 C4768 1.395 . S
C4770 C4773 1.403 . S
C4771 C4768 1.403 . S
C4771 C4772 1.524 . S
C4771 C4775 1.400 . S
C4772 H4757 0.960 . S
C4772 H4758 0.960 . S
C4772 H4759 0.960 . S
C4772 C4771 1.524 . S
C4773 C4770 1.403 . S
C4773 C4774 1.392 . S
C4773 C4777 1.495 . S
C4774 C4773 1.392 . S
C4774 C4775 1.385 . S
C4774 C4776 1.478 . S
C4775 H4769 0.930 . S
C4775 C4771 1.400 . S
C4775 C4774 1.385 . S
C4776 C4774 1.478 . S
C4776 C4778 1.381 . S
C4776 C4782 1.383 . S
C4777 C4773 1.495 . S
C4777 H4783 0.959 . S
C4777 H4784 0.961 . S
C4777 H4785 0.960 . S
C4778 C4776 1.381 . S
C4778 C4779 1.394 . S
C4778 H4786 0.930 . S
C4779 C4778 1.394 . S
C4779 C4780 1.383 . S
C4779 H4787 0.929 . S
C4780 C4779 1.383 . S
C4780 C4781 1.377 . S
C4781 H4765 0.930 . S
C4781 C4780 1.377 . S
C4781 C4782 1.379 . S
C4782 H4766 0.931 . S
C4782 C4776 1.383 . S
C4782 C4781 1.379 . S
H4783 C4777 0.959 . S
H4784 C4777 0.961 . S
H4785 C4777 0.960 . S
H4786 C4778 0.930 . S
H4787 C4779 0.929 . S
H4788 C4796 0.929 . S
H4789 C4798 0.930 . S
H4790 C4800 0.930 . S
H4791 C4803 0.929 . S
H4792 C4806 0.930 . S
H4793 C4808 0.960 . S
H4794 C4808 0.960 . S
H4795 C4808 0.960 . S
C4796 H4788 0.929 . S
C4796 C4797 1.377 . S
C4796 C4798 1.384 . S
C4797 C4796 1.377 . S
C4797 C4803 1.390 . S
C4798 H4789 0.930 . S
C4798 C4796 1.384 . S
C4798 C4799 1.372 . S
C4799 C4798 1.372 . S
C4799 C4800 1.400 . S
C4799 C4804 1.490 . S
C4800 H4790 0.930 . S
C4800 C4799 1.400 . S
C4800 C4803 1.386 . S
H4801 C4817 0.930 . S
H4802 C4818 0.931 . S
C4803 H4791 0.929 . S
C4803 C4797 1.390 . S
C4803 C4800 1.386 . S
C4804 C4799 1.490 . S
C4804 C4806 1.395 . S
C4804 C4807 1.403 . S
H4805 C4811 0.930 . S
C4806 H4792 0.930 . S
C4806 C4804 1.395 . S
C4806 C4809 1.403 . S
C4807 C4804 1.403 . S
C4807 C4808 1.524 . S
C4807 C4811 1.400 . S
C4808 H4793 0.960 . S
C4808 H4794 0.960 . S
C4808 H4795 0.960 . S
C4808 C4807 1.524 . S
C4809 C4806 1.403 . S
C4809 C4810 1.392 . S
C4809 C4813 1.495 . S
C4810 C4809 1.392 . S
C4810 C4811 1.385 . S
C4810 C4812 1.478 . S
C4811 H4805 0.930 . S
C4811 C4807 1.400 . S
C4811 C4810 1.385 . S
C4812 C4810 1.478 . S
C4812 C4814 1.381 . S
C4812 C4818 1.383 . S
C4813 C4809 1.495 . S
C4813 H4819 0.959 . S
C4813 H4820 0.961 . S
C4813 H4821 0.960 . S
C4814 C4812 1.381 . S
C4814 C4815 1.394 . S
C4814 H4822 0.930 . S
C4815 C4814 1.394 . S
C4815 C4816 1.383 . S
C4815 H4823 0.929 . S
C4816 C4815 1.383 . S
C4816 C4817 1.377 . S
C4817 H4801 0.930 . S
C4817 C4816 1.377 . S
C4817 C4818 1.379 . S
C4818 H4802 0.931 . S
C4818 C4812 1.383 . S
C4818 C4817 1.379 . S
H4819 C4813 0.959 . S
H4820 C4813 0.961 . S
H4821 C4813 0.960 . S
H4822 C4814 0.930 . S
H4823 C4815 0.929 . S
H4824 C4832 0.929 . S
H4825 C4834 0.930 . S
H4826 C4836 0.930 . S
H4827 C4839 0.929 . S
H4828 C4842 0.930 . S
H4829 C4844 0.960 . S
H4830 C4844 0.960 . S
H4831 C4844 0.960 . S
C4832 H4824 0.929 . S
C4832 C4833 1.377 . S
C4832 C4834 1.384 . S
C4833 C4832 1.377 . S
C4833 C4839 1.390 . S
C4834 H4825 0.930 . S
C4834 C4832 1.384 . S
C4834 C4835 1.372 . S
C4835 C4834 1.372 . S
C4835 C4836 1.400 . S
C4835 C4840 1.490 . S
C4836 H4826 0.930 . S
C4836 C4835 1.400 . S
C4836 C4839 1.386 . S
H4837 C4853 0.930 . S
H4838 C4854 0.931 . S
C4839 H4827 0.929 . S
C4839 C4833 1.390 . S
C4839 C4836 1.386 . S
C4840 C4835 1.490 . S
C4840 C4842 1.395 . S
C4840 C4843 1.403 . S
H4841 C4847 0.930 . S
C4842 H4828 0.930 . S
C4842 C4840 1.395 . S
C4842 C4845 1.403 . S
C4843 C4840 1.403 . S
C4843 C4844 1.524 . S
C4843 C4847 1.400 . S
C4844 H4829 0.960 . S
C4844 H4830 0.960 . S
C4844 H4831 0.960 . S
C4844 C4843 1.524 . S
C4845 C4842 1.403 . S
C4845 C4846 1.392 . S
C4845 C4849 1.495 . S
C4846 C4845 1.392 . S
C4846 C4847 1.385 . S
C4846 C4848 1.478 . S
C4847 H4841 0.930 . S
C4847 C4843 1.400 . S
C4847 C4846 1.385 . S
C4848 C4846 1.478 . S
C4848 C4850 1.381 . S
C4848 C4854 1.383 . S
C4849 C4845 1.495 . S
C4849 H4855 0.959 . S
C4849 H4856 0.961 . S
C4849 H4857 0.960 . S
C4850 C4848 1.381 . S
C4850 C4851 1.394 . S
C4850 H4858 0.930 . S
C4851 C4850 1.394 . S
C4851 C4852 1.383 . S
C4851 H4859 0.929 . S
C4852 C4851 1.383 . S
C4852 C4853 1.377 . S
C4853 H4837 0.930 . S
C4853 C4852 1.377 . S
C4853 C4854 1.379 . S
C4854 H4838 0.931 . S
C4854 C4848 1.383 . S
C4854 C4853 1.379 . S
H4855 C4849 0.959 . S
H4856 C4849 0.961 . S
H4857 C4849 0.960 . S
H4858 C4850 0.930 . S
H4859 C4851 0.929 . S
H4860 C4868 0.929 . S
H4861 C4870 0.930 . S
H4862 C4872 0.930 . S
H4863 C4875 0.929 . S
H4864 C4878 0.930 . S
H4865 C4880 0.960 . S
H4866 C4880 0.960 . S
H4867 C4880 0.960 . S
C4868 H4860 0.929 . S
C4868 C4869 1.377 . S
C4868 C4870 1.384 . S
C4869 C4868 1.377 . S
C4869 C4875 1.390 . S
C4870 H4861 0.930 . S
C4870 C4868 1.384 . S
C4870 C4871 1.372 . S
C4871 C4870 1.372 . S
C4871 C4872 1.400 . S
C4871 C4876 1.490 . S
C4872 H4862 0.930 . S
C4872 C4871 1.400 . S
C4872 C4875 1.386 . S
H4873 C4889 0.930 . S
H4874 C4890 0.931 . S
C4875 H4863 0.929 . S
C4875 C4869 1.390 . S
C4875 C4872 1.386 . S
C4876 C4871 1.490 . S
C4876 C4878 1.395 . S
C4876 C4879 1.403 . S
H4877 C4883 0.930 . S
C4878 H4864 0.930 . S
C4878 C4876 1.395 . S
C4878 C4881 1.403 . S
C4879 C4876 1.403 . S
C4879 C4880 1.524 . S
C4879 C4883 1.400 . S
C4880 H4865 0.960 . S
C4880 H4866 0.960 . S
C4880 H4867 0.960 . S
C4880 C4879 1.524 . S
C4881 C4878 1.403 . S
C4881 C4882 1.392 . S
C4881 C4885 1.495 . S
C4882 C4881 1.392 . S
C4882 C4883 1.385 . S
C4882 C4884 1.478 . S
C4883 H4877 0.930 . S
C4883 C4879 1.400 . S
C4883 C4882 1.385 . S
C4884 C4882 1.478 . S
C4884 C4886 1.381 . S
C4884 C4890 1.383 . S
C4885 C4881 1.495 . S
C4885 H4891 0.959 . S
C4885 H4892 0.961 . S
C4885 H4893 0.960 . S
C4886 C4884 1.381 . S
C4886 C4887 1.394 . S
C4886 H4894 0.930 . S
C4887 C4886 1.394 . S
C4887 C4888 1.383 . S
C4887 H4895 0.929 . S
C4888 C4887 1.383 . S
C4888 C4889 1.377 . S
C4889 H4873 0.930 . S
C4889 C4888 1.377 . S
C4889 C4890 1.379 . S
C4890 H4874 0.931 . S
C4890 C4884 1.383 . S
C4890 C4889 1.379 . S
H4891 C4885 0.959 . S
H4892 C4885 0.961 . S
H4893 C4885 0.960 . S
H4894 C4886 0.930 . S
H4895 C4887 0.929 . S
H4896 C4904 0.929 . S
H4897 C4906 0.930 . S
H4898 C4908 0.930 . S
H4899 C4911 0.929 . S
H4900 C4914 0.930 1_565 S
H4901 C4916 0.960 . S
H4902 C4916 0.960 . S
H4903 C4916 0.960 1_565 S
C4904 H4896 0.929 . S
C4904 C4905 1.377 . S
C4904 C4906 1.384 . S
C4905 C4904 1.377 . S
C4905 C4911 1.390 . S
C4906 H4897 0.930 . S
C4906 C4904 1.384 . S
C4906 C4907 1.372 . S
C4907 C4906 1.372 . S
C4907 C4908 1.400 . S
C4907 C4912 1.490 . S
C4908 H4898 0.930 . S
C4908 C4907 1.400 . S
C4908 C4911 1.386 . S
H4909 C4925 0.930 . S
H4910 C4926 0.931 . S
C4911 H4899 0.929 . S
C4911 C4905 1.390 . S
C4911 C4908 1.386 . S
C4912 C4907 1.490 . S
C4912 C4914 1.395 1_565 S
C4912 C4915 1.403 1_565 S
H4913 C4919 0.930 . S
C4914 H4900 0.930 1_545 S
C4914 C4912 1.395 1_545 S
C4914 C4917 1.403 . S
C4915 C4912 1.403 1_545 S
C4915 C4916 1.524 . S
C4915 C4919 1.400 . S
C4916 H4901 0.960 . S
C4916 H4902 0.960 . S
C4916 H4903 0.960 1_545 S
C4916 C4915 1.524 . S
C4917 C4914 1.403 . S
C4917 C4918 1.392 . S
C4917 C4921 1.495 . S
C4918 C4917 1.392 . S
C4918 C4919 1.385 . S
C4918 C4920 1.478 . S
C4919 H4913 0.930 . S
C4919 C4915 1.400 . S
C4919 C4918 1.385 . S
C4920 C4918 1.478 . S
C4920 C4922 1.381 . S
C4920 C4926 1.383 . S
C4921 C4917 1.495 . S
C4921 H4927 0.959 . S
C4921 H4928 0.961 . S
C4921 H4929 0.960 . S
C4922 C4920 1.381 . S
C4922 C4923 1.394 . S
C4922 H4930 0.930 . S
C4923 C4922 1.394 . S
C4923 C4924 1.383 . S
C4923 H4931 0.929 . S
C4924 C4923 1.383 . S
C4924 C4925 1.377 . S
C4925 H4909 0.930 . S
C4925 C4924 1.377 . S
C4925 C4926 1.379 . S
C4926 H4910 0.931 . S
C4926 C4920 1.383 . S
C4926 C4925 1.379 . S
H4927 C4921 0.959 . S
H4928 C4921 0.961 . S
H4929 C4921 0.960 . S
H4930 C4922 0.930 . S
H4931 C4923 0.929 . S
H4932 C4940 0.929 . S
H4933 C4942 0.930 . S
H4934 C4944 0.930 . S
H4935 C4947 0.929 . S
H4936 C4950 0.930 . S
H4937 C4952 0.960 1_455 S
H4938 C4952 0.960 . S
H4939 C4952 0.960 . S
C4940 H4932 0.929 . S
C4940 C4941 1.377 . S
C4940 C4942 1.384 . S
C4941 C4940 1.377 . S
C4941 C4947 1.390 . S
C4942 H4933 0.930 . S
C4942 C4940 1.384 . S
C4942 C4943 1.372 . S
C4943 C4942 1.372 . S
C4943 C4944 1.400 . S
C4943 C4948 1.490 1_655 S
C4944 H4934 0.930 . S
C4944 C4943 1.400 . S
C4944 C4947 1.386 . S
H4945 C4961 0.930 . S
H4946 C4962 0.931 . S
C4947 H4935 0.929 . S
C4947 C4941 1.390 . S
C4947 C4944 1.386 . S
C4948 C4943 1.490 1_455 S
C4948 C4950 1.395 . S
C4948 C4951 1.403 . S
H4949 C4955 0.930 . S
C4950 H4936 0.930 . S
C4950 C4948 1.395 . S
C4950 C4953 1.403 . S
C4951 C4948 1.403 . S
C4951 C4952 1.524 1_455 S
C4951 C4955 1.400 . S
C4952 H4937 0.960 1_655 S
C4952 H4938 0.960 . S
C4952 H4939 0.960 . S
C4952 C4951 1.524 1_655 S
C4953 C4950 1.403 . S
C4953 C4954 1.392 . S
C4953 C4957 1.495 . S
C4954 C4953 1.392 . S
C4954 C4955 1.385 . S
C4954 C4956 1.478 . S
C4955 H4949 0.930 . S
C4955 C4951 1.400 . S
C4955 C4954 1.385 . S
C4956 C4954 1.478 . S
C4956 C4958 1.381 . S
C4956 C4962 1.383 . S
C4957 C4953 1.495 . S
C4957 H4963 0.959 . S
C4957 H4964 0.961 . S
C4957 H4965 0.960 . S
C4958 C4956 1.381 . S
C4958 C4959 1.394 . S
C4958 H4966 0.930 . S
C4959 C4958 1.394 . S
C4959 C4960 1.383 . S
C4959 H4967 0.929 . S
C4960 C4959 1.383 . S
C4960 C4961 1.377 . S
C4961 H4945 0.930 . S
C4961 C4960 1.377 . S
C4961 C4962 1.379 . S
C4962 H4946 0.931 . S
C4962 C4956 1.383 . S
C4962 C4961 1.379 . S
H4963 C4957 0.959 . S
H4964 C4957 0.961 . S
H4965 C4957 0.960 . S
H4966 C4958 0.930 . S
H4967 C4959 0.929 . S
H4968 C4976 0.929 . S
H4969 C4978 0.930 . S
H4970 C4980 0.930 . S
H4971 C4983 0.929 . S
H4972 C4986 0.930 . S
H4973 C4988 0.960 . S
H4974 C4988 0.960 . S
H4975 C4988 0.960 . S
C4976 H4968 0.929 . S
C4976 C4977 1.377 . S
C4976 C4978 1.384 . S
C4977 C4976 1.377 . S
C4977 C4983 1.390 . S
C4978 H4969 0.930 . S
C4978 C4976 1.384 . S
C4978 C4979 1.372 . S
C4979 C4978 1.372 . S
C4979 C4980 1.400 . S
C4979 C4984 1.490 . S
C4980 H4970 0.930 . S
C4980 C4979 1.400 . S
C4980 C4983 1.386 . S
H4981 C4997 0.930 . S
H4982 C4998 0.931 . S
C4983 H4971 0.929 . S
C4983 C4977 1.390 . S
C4983 C4980 1.386 . S
C4984 C4979 1.490 . S
C4984 C4986 1.395 . S
C4984 C4987 1.403 . S
H4985 C4991 0.930 . S
C4986 H4972 0.930 . S
C4986 C4984 1.395 . S
C4986 C4989 1.403 . S
C4987 C4984 1.403 . S
C4987 C4988 1.524 . S
C4987 C4991 1.400 . S
C4988 H4973 0.960 . S
C4988 H4974 0.960 . S
C4988 H4975 0.960 . S
C4988 C4987 1.524 . S
C4989 C4986 1.403 . S
C4989 C4990 1.392 . S
C4989 C4993 1.495 . S
C4990 C4989 1.392 . S
C4990 C4991 1.385 . S
C4990 C4992 1.478 . S
C4991 H4985 0.930 . S
C4991 C4987 1.400 . S
C4991 C4990 1.385 . S
C4992 C4990 1.478 . S
C4992 C4994 1.381 . S
C4992 C4998 1.383 . S
C4993 C4989 1.495 . S
C4993 H4999 0.959 . S
C4993 H5000 0.961 . S
C4993 H5001 0.960 . S
C4994 C4992 1.381 . S
C4994 C4995 1.394 . S
C4994 H5002 0.930 . S
C4995 C4994 1.394 . S
C4995 C4996 1.383 . S
C4995 H5003 0.929 . S
C4996 C4995 1.383 . S
C4996 C4997 1.377 . S
C4997 H4981 0.930 . S
C4997 C4996 1.377 . S
C4997 C4998 1.379 . S
C4998 H4982 0.931 . S
C4998 C4992 1.383 . S
C4998 C4997 1.379 . S
H4999 C4993 0.959 . S
H5000 C4993 0.961 . S
H5001 C4993 0.960 . S
H5002 C4994 0.930 . S
H5003 C4995 0.929 . S
H5004 C5012 0.929 . S
H5005 C5014 0.930 . S
H5006 C5016 0.930 . S
H5007 C5019 0.929 . S
H5008 C5022 0.930 . S
H5009 C5024 0.960 . S
H5010 C5024 0.960 . S
H5011 C5024 0.960 . S
C5012 H5004 0.929 . S
C5012 C5013 1.377 . S
C5012 C5014 1.384 . S
C5013 C5012 1.377 . S
C5013 C5019 1.390 . S
C5014 H5005 0.930 . S
C5014 C5012 1.384 . S
C5014 C5015 1.372 . S
C5015 C5014 1.372 . S
C5015 C5016 1.400 . S
C5015 C5020 1.490 . S
C5016 H5006 0.930 . S
C5016 C5015 1.400 . S
C5016 C5019 1.386 . S
H5017 C5033 0.930 . S
H5018 C5034 0.931 . S
C5019 H5007 0.929 . S
C5019 C5013 1.390 . S
C5019 C5016 1.386 . S
C5020 C5015 1.490 . S
C5020 C5022 1.395 . S
C5020 C5023 1.403 . S
H5021 C5027 0.930 . S
C5022 H5008 0.930 . S
C5022 C5020 1.395 . S
C5022 C5025 1.403 . S
C5023 C5020 1.403 . S
C5023 C5024 1.524 . S
C5023 C5027 1.400 . S
C5024 H5009 0.960 . S
C5024 H5010 0.960 . S
C5024 H5011 0.960 . S
C5024 C5023 1.524 . S
C5025 C5022 1.403 . S
C5025 C5026 1.392 . S
C5025 C5029 1.495 . S
C5026 C5025 1.392 . S
C5026 C5027 1.385 . S
C5026 C5028 1.478 . S
C5027 H5021 0.930 . S
C5027 C5023 1.400 . S
C5027 C5026 1.385 . S
C5028 C5026 1.478 . S
C5028 C5030 1.381 . S
C5028 C5034 1.383 . S
C5029 C5025 1.495 . S
C5029 H5035 0.959 . S
C5029 H5036 0.961 . S
C5029 H5037 0.960 . S
C5030 C5028 1.381 . S
C5030 C5031 1.394 . S
C5030 H5038 0.930 . S
C5031 C5030 1.394 . S
C5031 C5032 1.383 . S
C5031 H5039 0.929 . S
C5032 C5031 1.383 . S
C5032 C5033 1.377 . S
C5033 H5017 0.930 . S
C5033 C5032 1.377 . S
C5033 C5034 1.379 . S
C5034 H5018 0.931 . S
C5034 C5028 1.383 . S
C5034 C5033 1.379 . S
H5035 C5029 0.959 . S
H5036 C5029 0.961 . S
H5037 C5029 0.960 . S
H5038 C5030 0.930 . S
H5039 C5031 0.929 . S
H5040 C5048 0.929 . S
H5041 C5050 0.930 . S
H5042 C5052 0.930 . S
H5043 C5055 0.929 . S
H5044 C5058 0.930 . S
H5045 C5060 0.960 . S
H5046 C5060 0.960 . S
H5047 C5060 0.960 . S
C5048 H5040 0.929 . S
C5048 C5049 1.377 . S
C5048 C5050 1.384 . S
C5049 C5048 1.377 . S
C5049 C5055 1.390 . S
C5050 H5041 0.930 . S
C5050 C5048 1.384 . S
C5050 C5051 1.372 . S
C5051 C5050 1.372 . S
C5051 C5052 1.400 . S
C5051 C5056 1.490 . S
C5052 H5042 0.930 . S
C5052 C5051 1.400 . S
C5052 C5055 1.386 . S
H5053 C5069 0.930 . S
H5054 C5070 0.931 . S
C5055 H5043 0.929 . S
C5055 C5049 1.390 . S
C5055 C5052 1.386 . S
C5056 C5051 1.490 . S
C5056 C5058 1.395 . S
C5056 C5059 1.403 . S
H5057 C5063 0.930 . S
C5058 H5044 0.930 . S
C5058 C5056 1.395 . S
C5058 C5061 1.403 . S
C5059 C5056 1.403 . S
C5059 C5060 1.524 . S
C5059 C5063 1.400 . S
C5060 H5045 0.960 . S
C5060 H5046 0.960 . S
C5060 H5047 0.960 . S
C5060 C5059 1.524 . S
C5061 C5058 1.403 . S
C5061 C5062 1.392 . S
C5061 C5065 1.495 . S
C5062 C5061 1.392 . S
C5062 C5063 1.385 . S
C5062 C5064 1.478 . S
C5063 H5057 0.930 . S
C5063 C5059 1.400 . S
C5063 C5062 1.385 . S
C5064 C5062 1.478 . S
C5064 C5066 1.381 . S
C5064 C5070 1.383 . S
C5065 C5061 1.495 . S
C5065 H5071 0.959 . S
C5065 H5072 0.961 . S
C5065 H5073 0.960 . S
C5066 C5064 1.381 . S
C5066 C5067 1.394 . S
C5066 H5074 0.930 . S
C5067 C5066 1.394 . S
C5067 C5068 1.383 . S
C5067 H5075 0.929 . S
C5068 C5067 1.383 . S
C5068 C5069 1.377 . S
C5069 H5053 0.930 . S
C5069 C5068 1.377 . S
C5069 C5070 1.379 . S
C5070 H5054 0.931 . S
C5070 C5064 1.383 . S
C5070 C5069 1.379 . S
H5071 C5065 0.959 . S
H5072 C5065 0.961 . S
H5073 C5065 0.960 . S
H5074 C5066 0.930 . S
H5075 C5067 0.929 . S
H5076 C5084 0.929 . S
H5077 C5086 0.930 . S
H5078 C5088 0.930 . S
H5079 C5091 0.929 . S
H5080 C5094 0.930 . S
H5081 C5096 0.960 . S
H5082 C5096 0.960 . S
H5083 C5096 0.960 . S
C5084 H5076 0.929 . S
C5084 C5085 1.377 . S
C5084 C5086 1.384 . S
C5085 C5084 1.377 . S
C5085 C5091 1.390 . S
C5086 H5077 0.930 . S
C5086 C5084 1.384 . S
C5086 C5087 1.372 . S
C5087 C5086 1.372 . S
C5087 C5088 1.400 . S
C5087 C5092 1.490 . S
C5088 H5078 0.930 . S
C5088 C5087 1.400 . S
C5088 C5091 1.386 . S
H5089 C5105 0.930 . S
H5090 C5106 0.931 . S
C5091 H5079 0.929 . S
C5091 C5085 1.390 . S
C5091 C5088 1.386 . S
C5092 C5087 1.490 . S
C5092 C5094 1.395 . S
C5092 C5095 1.403 . S
H5093 C5099 0.930 . S
C5094 H5080 0.930 . S
C5094 C5092 1.395 . S
C5094 C5097 1.403 . S
C5095 C5092 1.403 . S
C5095 C5096 1.524 . S
C5095 C5099 1.400 . S
C5096 H5081 0.960 . S
C5096 H5082 0.960 . S
C5096 H5083 0.960 . S
C5096 C5095 1.524 . S
C5097 C5094 1.403 . S
C5097 C5098 1.392 . S
C5097 C5101 1.495 . S
C5098 C5097 1.392 . S
C5098 C5099 1.385 . S
C5098 C5100 1.478 . S
C5099 H5093 0.930 . S
C5099 C5095 1.400 . S
C5099 C5098 1.385 . S
C5100 C5098 1.478 . S
C5100 C5102 1.381 . S
C5100 C5106 1.383 . S
C5101 C5097 1.495 . S
C5101 H5107 0.959 . S
C5101 H5108 0.961 . S
C5101 H5109 0.960 . S
C5102 C5100 1.381 . S
C5102 C5103 1.394 . S
C5102 H5110 0.930 . S
C5103 C5102 1.394 . S
C5103 C5104 1.383 . S
C5103 H5111 0.929 . S
C5104 C5103 1.383 . S
C5104 C5105 1.377 . S
C5105 H5089 0.930 . S
C5105 C5104 1.377 . S
C5105 C5106 1.379 . S
C5106 H5090 0.931 . S
C5106 C5100 1.383 . S
C5106 C5105 1.379 . S
H5107 C5101 0.959 . S
H5108 C5101 0.961 . S
H5109 C5101 0.960 . S
H5110 C5102 0.930 . S
H5111 C5103 0.929 . S
H5112 C5120 0.929 . S
H5113 C5122 0.930 . S
H5114 C5124 0.930 . S
H5115 C5127 0.929 . S
H5116 C5130 0.930 . S
H5117 C5132 0.960 . S
H5118 C5132 0.960 . S
H5119 C5132 0.960 . S
C5120 H5112 0.929 . S
C5120 C5121 1.377 . S
C5120 C5122 1.384 . S
C5121 C5120 1.377 . S
C5121 C5127 1.390 . S
C5122 H5113 0.930 . S
C5122 C5120 1.384 . S
C5122 C5123 1.372 . S
C5123 C5122 1.372 . S
C5123 C5124 1.400 . S
C5123 C5128 1.490 . S
C5124 H5114 0.930 . S
C5124 C5123 1.400 . S
C5124 C5127 1.386 . S
H5125 C5141 0.930 . S
H5126 C5142 0.931 . S
C5127 H5115 0.929 . S
C5127 C5121 1.390 . S
C5127 C5124 1.386 . S
C5128 C5123 1.490 . S
C5128 C5130 1.395 . S
C5128 C5131 1.403 . S
H5129 C5135 0.930 . S
C5130 H5116 0.930 . S
C5130 C5128 1.395 . S
C5130 C5133 1.403 . S
C5131 C5128 1.403 . S
C5131 C5132 1.524 . S
C5131 C5135 1.400 . S
C5132 H5117 0.960 . S
C5132 H5118 0.960 . S
C5132 H5119 0.960 . S
C5132 C5131 1.524 . S
C5133 C5130 1.403 . S
C5133 C5134 1.392 . S
C5133 C5137 1.495 . S
C5134 C5133 1.392 . S
C5134 C5135 1.385 . S
C5134 C5136 1.478 . S
C5135 H5129 0.930 . S
C5135 C5131 1.400 . S
C5135 C5134 1.385 . S
C5136 C5134 1.478 . S
C5136 C5138 1.381 . S
C5136 C5142 1.383 . S
C5137 C5133 1.495 . S
C5137 H5143 0.959 . S
C5137 H5144 0.961 . S
C5137 H5145 0.960 . S
C5138 C5136 1.381 . S
C5138 C5139 1.394 . S
C5138 H5146 0.930 . S
C5139 C5138 1.394 . S
C5139 C5140 1.383 . S
C5139 H5147 0.929 . S
C5140 C5139 1.383 . S
C5140 C5141 1.377 . S
C5141 H5125 0.930 . S
C5141 C5140 1.377 . S
C5141 C5142 1.379 . S
C5142 H5126 0.931 . S
C5142 C5136 1.383 . S
C5142 C5141 1.379 . S
H5143 C5137 0.959 . S
H5144 C5137 0.961 . S
H5145 C5137 0.960 . S
H5146 C5138 0.930 . S
H5147 C5139 0.929 . S
H5148 C5156 0.929 . S
H5149 C5158 0.930 . S
H5150 C5160 0.930 . S
H5151 C5163 0.929 . S
H5152 C5166 0.930 . S
H5153 C5168 0.960 . S
H5154 C5168 0.960 . S
H5155 C5168 0.960 . S
C5156 H5148 0.929 . S
C5156 C5157 1.377 . S
C5156 C5158 1.384 . S
C5157 C5156 1.377 . S
C5157 C5163 1.390 . S
C5158 H5149 0.930 . S
C5158 C5156 1.384 . S
C5158 C5159 1.372 . S
C5159 C5158 1.372 . S
C5159 C5160 1.400 . S
C5159 C5164 1.490 . S
C5160 H5150 0.930 . S
C5160 C5159 1.400 . S
C5160 C5163 1.386 . S
H5161 C5177 0.930 . S
H5162 C5178 0.931 . S
C5163 H5151 0.929 . S
C5163 C5157 1.390 . S
C5163 C5160 1.386 . S
C5164 C5159 1.490 . S
C5164 C5166 1.395 . S
C5164 C5167 1.403 . S
H5165 C5171 0.930 . S
C5166 H5152 0.930 . S
C5166 C5164 1.395 . S
C5166 C5169 1.403 . S
C5167 C5164 1.403 . S
C5167 C5168 1.524 . S
C5167 C5171 1.400 . S
C5168 H5153 0.960 . S
C5168 H5154 0.960 . S
C5168 H5155 0.960 . S
C5168 C5167 1.524 . S
C5169 C5166 1.403 . S
C5169 C5170 1.392 . S
C5169 C5173 1.495 . S
C5170 C5169 1.392 . S
C5170 C5171 1.385 . S
C5170 C5172 1.478 . S
C5171 H5165 0.930 . S
C5171 C5167 1.400 . S
C5171 C5170 1.385 . S
C5172 C5170 1.478 . S
C5172 C5174 1.381 . S
C5172 C5178 1.383 . S
C5173 C5169 1.495 . S
C5173 H5179 0.959 . S
C5173 H5180 0.961 . S
C5173 H5181 0.960 . S
C5174 C5172 1.381 . S
C5174 C5175 1.394 . S
C5174 H5182 0.930 . S
C5175 C5174 1.394 . S
C5175 C5176 1.383 . S
C5175 H5183 0.929 . S
C5176 C5175 1.383 . S
C5176 C5177 1.377 . S
C5177 H5161 0.930 . S
C5177 C5176 1.377 . S
C5177 C5178 1.379 . S
C5178 H5162 0.931 . S
C5178 C5172 1.383 . S
C5178 C5177 1.379 . S
H5179 C5173 0.959 . S
H5180 C5173 0.961 . S
H5181 C5173 0.960 . S
H5182 C5174 0.930 . S
H5183 C5175 0.929 . S
H5184 C5192 0.929 . S
H5185 C5194 0.930 . S
H5186 C5196 0.930 . S
H5187 C5199 0.929 . S
H5188 C5202 0.930 . S
H5189 C5204 0.960 . S
H5190 C5204 0.960 . S
H5191 C5204 0.960 . S
C5192 H5184 0.929 . S
C5192 C5193 1.377 . S
C5192 C5194 1.384 . S
C5193 C5192 1.377 . S
C5193 C5199 1.390 . S
C5194 H5185 0.930 . S
C5194 C5192 1.384 . S
C5194 C5195 1.372 . S
C5195 C5194 1.372 . S
C5195 C5196 1.400 . S
C5195 C5200 1.490 . S
C5196 H5186 0.930 . S
C5196 C5195 1.400 . S
C5196 C5199 1.386 . S
H5197 C5213 0.930 . S
H5198 C5214 0.931 . S
C5199 H5187 0.929 . S
C5199 C5193 1.390 . S
C5199 C5196 1.386 . S
C5200 C5195 1.490 . S
C5200 C5202 1.395 . S
C5200 C5203 1.403 . S
H5201 C5207 0.930 . S
C5202 H5188 0.930 . S
C5202 C5200 1.395 . S
C5202 C5205 1.403 . S
C5203 C5200 1.403 . S
C5203 C5204 1.524 . S
C5203 C5207 1.400 . S
C5204 H5189 0.960 . S
C5204 H5190 0.960 . S
C5204 H5191 0.960 . S
C5204 C5203 1.524 . S
C5205 C5202 1.403 . S
C5205 C5206 1.392 . S
C5205 C5209 1.495 . S
C5206 C5205 1.392 . S
C5206 C5207 1.385 . S
C5206 C5208 1.478 . S
C5207 H5201 0.930 . S
C5207 C5203 1.400 . S
C5207 C5206 1.385 . S
C5208 C5206 1.478 . S
C5208 C5210 1.381 . S
C5208 C5214 1.383 . S
C5209 C5205 1.495 . S
C5209 H5215 0.959 . S
C5209 H5216 0.961 . S
C5209 H5217 0.960 . S
C5210 C5208 1.381 . S
C5210 C5211 1.394 . S
C5210 H5218 0.930 . S
C5211 C5210 1.394 . S
C5211 C5212 1.383 . S
C5211 H5219 0.929 . S
C5212 C5211 1.383 . S
C5212 C5213 1.377 . S
C5213 H5197 0.930 . S
C5213 C5212 1.377 . S
C5213 C5214 1.379 . S
C5214 H5198 0.931 . S
C5214 C5208 1.383 . S
C5214 C5213 1.379 . S
H5215 C5209 0.959 . S
H5216 C5209 0.961 . S
H5217 C5209 0.960 . S
H5218 C5210 0.930 . S
H5219 C5211 0.929 . S
H5220 C5228 0.929 . S
H5221 C5230 0.930 . S
H5222 C5232 0.930 . S
H5223 C5235 0.929 . S
H5224 C5238 0.930 . S
H5225 C5240 0.960 . S
H5226 C5240 0.960 . S
H5227 C5240 0.951 1_655 S
C5228 H5220 0.929 . S
C5228 C5229 1.377 . S
C5228 C5230 1.384 . S
C5229 C5228 1.377 . S
C5229 C5235 1.390 . S
C5230 H5221 0.930 . S
C5230 C5228 1.384 . S
C5230 C5231 1.372 . S
C5231 C5230 1.372 . S
C5231 C5232 1.400 . S
C5231 C5236 1.490 1_655 S
C5232 H5222 0.930 . S
C5232 C5231 1.400 . S
C5232 C5235 1.386 . S
H5233 C5249 0.930 . S
H5234 C5250 0.931 . S
C5235 H5223 0.929 . S
C5235 C5229 1.390 . S
C5235 C5232 1.386 . S
C5236 C5231 1.490 1_455 S
C5236 C5238 1.395 . S
C5236 C5239 1.403 . S
H5237 C5243 0.930 . S
C5238 H5224 0.930 . S
C5238 C5236 1.395 . S
C5238 C5241 1.403 . S
C5239 C5236 1.403 . S
C5239 C5240 1.524 . S
C5239 C5243 1.400 . S
C5240 H5225 0.960 . S
C5240 H5226 0.960 . S
C5240 H5227 0.951 1_455 S
C5240 C5239 1.524 . S
C5241 C5238 1.403 . S
C5241 C5242 1.392 . S
C5241 C5245 1.495 . S
C5242 C5241 1.392 . S
C5242 C5243 1.385 . S
C5242 C5244 1.478 . S
C5243 H5237 0.930 . S
C5243 C5239 1.400 . S
C5243 C5242 1.385 . S
C5244 C5242 1.478 . S
C5244 C5246 1.381 . S
C5244 C5250 1.383 . S
C5245 C5241 1.495 . S
C5245 H5251 0.959 . S
C5245 H5252 0.961 . S
C5245 H5253 0.960 . S
C5246 C5244 1.381 . S
C5246 C5247 1.394 . S
C5246 H5254 0.930 . S
C5247 C5246 1.394 . S
C5247 C5248 1.383 . S
C5247 H5255 0.929 . S
C5248 C5247 1.383 . S
C5248 C5249 1.377 . S
C5249 H5233 0.930 . S
C5249 C5248 1.377 . S
C5249 C5250 1.379 . S
C5250 H5234 0.931 . S
C5250 C5244 1.383 . S
C5250 C5249 1.379 . S
H5251 C5245 0.959 . S
H5252 C5245 0.961 . S
H5253 C5245 0.960 . S
H5254 C5246 0.930 . S
H5255 C5247 0.929 . S
H5256 C5264 0.929 . S
H5257 C5266 0.930 . S
H5258 C5268 0.930 . S
H5259 C5271 0.912 1_545 S
H5260 C5274 0.930 . S
H5261 C5276 0.960 . S
H5262 C5276 0.960 . S
H5263 C5276 0.960 . S
C5264 H5256 0.929 . S
C5264 C5265 1.377 . S
C5264 C5266 1.384 . S
C5265 C5264 1.377 . S
C5265 C5271 1.390 . S
C5266 H5257 0.930 . S
C5266 C5264 1.384 . S
C5266 C5267 1.372 . S
C5267 C5266 1.372 . S
C5267 C5268 1.400 . S
C5267 C5272 1.490 . S
C5268 H5258 0.930 . S
C5268 C5267 1.400 . S
C5268 C5271 1.386 . S
H5269 C5285 0.930 . S
H5270 C5286 0.931 . S
C5271 H5259 0.912 1_565 S
C5271 C5265 1.390 . S
C5271 C5268 1.386 . S
C5272 C5267 1.490 . S
C5272 C5274 1.395 . S
C5272 C5275 1.403 . S
H5273 C5279 0.930 . S
C5274 H5260 0.930 . S
C5274 C5272 1.395 . S
C5274 C5277 1.403 . S
C5275 C5272 1.403 . S
C5275 C5276 1.524 . S
C5275 C5279 1.400 . S
C5276 H5261 0.960 . S
C5276 H5262 0.960 . S
C5276 H5263 0.960 . S
C5276 C5275 1.524 . S
C5277 C5274 1.403 . S
C5277 C5278 1.392 . S
C5277 C5281 1.495 . S
C5278 C5277 1.392 . S
C5278 C5279 1.385 . S
C5278 C5280 1.478 . S
C5279 H5273 0.930 . S
C5279 C5275 1.400 . S
C5279 C5278 1.385 . S
C5280 C5278 1.478 . S
C5280 C5282 1.381 . S
C5280 C5286 1.383 . S
C5281 C5277 1.495 . S
C5281 H5287 0.959 . S
C5281 H5288 0.961 . S
C5281 H5289 0.960 . S
C5282 C5280 1.381 . S
C5282 C5283 1.394 . S
C5282 H5290 0.930 . S
C5283 C5282 1.394 . S
C5283 C5284 1.383 . S
C5283 H5291 0.929 . S
C5284 C5283 1.383 . S
C5284 C5285 1.377 . S
C5285 H5269 0.930 . S
C5285 C5284 1.377 . S
C5285 C5286 1.379 . S
C5286 H5270 0.931 . S
C5286 C5280 1.383 . S
C5286 C5285 1.379 . S
H5287 C5281 0.959 . S
H5288 C5281 0.961 . S
H5289 C5281 0.960 . S
H5290 C5282 0.930 . S
H5291 C5283 0.929 . S
H5292 C5300 0.929 . S
H5293 C5302 0.930 . S
H5294 C5304 0.930 . S
H5295 C5307 0.929 . S
H5296 C5310 0.930 . S
H5297 C5312 0.960 . S
H5298 C5312 0.960 . S
H5299 C5312 0.960 1_565 S
C5300 H5292 0.929 . S
C5300 C5301 1.377 . S
C5300 C5302 1.384 . S
C5301 C5300 1.377 . S
C5301 C5307 1.390 . S
C5302 H5293 0.930 . S
C5302 C5300 1.384 . S
C5302 C5303 1.372 . S
C5303 C5302 1.372 . S
C5303 C5304 1.400 . S
C5303 C5308 1.490 . S
C5304 H5294 0.930 . S
C5304 C5303 1.400 . S
C5304 C5307 1.386 . S
H5305 C5321 0.930 . S
H5306 C5322 0.931 . S
C5307 H5295 0.929 . S
C5307 C5301 1.390 . S
C5307 C5304 1.386 . S
C5308 C5303 1.490 . S
C5308 C5310 1.395 . S
C5308 C5311 1.403 1_565 S
H5309 C5315 0.930 . S
C5310 H5296 0.930 . S
C5310 C5308 1.395 . S
C5310 C5313 1.403 1_565 S
C5311 C5308 1.403 1_545 S
C5311 C5312 1.524 . S
C5311 C5315 1.400 . S
C5312 H5297 0.960 . S
C5312 H5298 0.960 . S
C5312 H5299 0.960 1_545 S
C5312 C5311 1.524 . S
C5313 C5310 1.403 1_545 S
C5313 C5314 1.392 . S
C5313 C5317 1.495 . S
C5314 C5313 1.392 . S
C5314 C5315 1.385 . S
C5314 C5316 1.478 . S
C5315 H5309 0.930 . S
C5315 C5311 1.400 . S
C5315 C5314 1.385 . S
C5316 C5314 1.478 . S
C5316 C5318 1.381 . S
C5316 C5322 1.383 . S
C5317 C5313 1.495 . S
C5317 H5323 0.959 . S
C5317 H5324 0.961 . S
C5317 H5325 0.960 . S
C5318 C5316 1.381 . S
C5318 C5319 1.394 . S
C5318 H5326 0.930 . S
C5319 C5318 1.394 . S
C5319 C5320 1.383 . S
C5319 H5327 0.929 . S
C5320 C5319 1.383 . S
C5320 C5321 1.377 . S
C5321 H5305 0.930 . S
C5321 C5320 1.377 . S
C5321 C5322 1.379 . S
C5322 H5306 0.931 . S
C5322 C5316 1.383 . S
C5322 C5321 1.379 . S
H5323 C5317 0.959 . S
H5324 C5317 0.961 . S
H5325 C5317 0.960 . S
H5326 C5318 0.930 . S
H5327 C5319 0.929 . S
C1449 C1098 2.126 . S
C1468 C18 2.120 . S
C1485 C1138 2.126 . S
C1504 C58 2.123 1_655 S
C1521 C98 2.126 . S
C1540 C1178 2.122 . S
C1557 C138 2.126 . S
C1576 C498 2.121 . S
C1593 C178 2.125 . S
C1612 C538 2.122 . S
C1629 C578 2.126 . S
C1648 C218 2.123 1_565 S
C1665 C249 2.127 1_565 S
C1684 C849 2.124 . S
C1701 C889 2.126 . S
C1720 C289 2.123 . S
C1737 C329 2.125 . S
C1756 C929 2.120 . S
C1773 C1209 2.127 . S
C1792 C369 2.106 1_655 S
C1809 C409 2.125 . S
C1828 C1249 2.120 . S
C1845 C1289 2.126 . S
C1864 C449 2.121 . S
C1881 C978 2.126 . S
C1900 C618 2.124 . S
C1917 C658 2.126 . S
C1936 C1018 2.122 . S
C1953 C1058 2.125 . S
C1972 C698 2.122 . S
C1989 C729 2.126 . S
C2008 C1329 2.123 . S
C2025 C769 2.126 . S
C2044 C1369 2.122 . S
C2061 C1409 2.127 . S
C2080 C809 2.124 . S
C2097 C9 1.624 . S
C2116 C258 1.599 . S
C2133 C298 1.627 . S
C2152 C49 1.640 . S
C2169 C89 1.616 . S
C2188 C338 1.588 . S
C2205 C378 1.618 . S
C2224 C129 1.586 . S
C2241 C169 1.618 . S
C2260 C418 1.636 . S
C2277 C458 1.616 . S
C2296 C209 1.621 . S
C2313 C738 1.620 . S
C2332 C489 1.643 . S
C2349 C529 1.621 . S
C2368 C778 1.644 . S
C2385 C818 1.621 . S
C2404 C569 1.644 . S
C2421 C609 1.622 . S
C2440 C858 1.647 . S
C2457 C898 1.627 . S
C2476 C649 1.624 . S
C2493 C689 1.617 . S
C2512 C938 1.586 . S
C2529 C969 1.622 . S
C2548 C1218 1.593 . S
C2565 C1258 1.620 . S
C2584 C1009 1.588 . S
C2601 C1298 1.622 . S
C2620 C1049 1.647 . S
C2637 C1338 1.620 . S
C2656 C1089 1.641 . S
C2673 C1129 1.624 . S
C2692 C1378 1.649 . S
C2709 C1169 1.620 . S
C2728 C1418 1.588 . S
C2745 C15 1.842 . S
C2764 C99 1.840 . S
C2781 C55 1.842 . S
C2800 C19 1.845 . S
C2817 C59 1.835 . S
C2836 C95 1.841 . S
C2853 C135 1.838 . S
C2872 C179 1.818 . S
C2889 C219 1.836 . S
C2908 C175 1.850 . S
C2925 C139 1.830 . S
C2944 C215 1.822 . S
C2961 C330 1.835 . S
C2980 C246 1.844 . S
C2997 C286 1.840 . S
C3016 C250 1.843 . S
C3033 C326 1.843 . S
C3052 C290 1.821 . S
C3069 C410 1.837 . S
C3088 C366 1.828 . S
C3105 C406 1.841 . S
C3124 C450 1.837 . S
C3141 C446 1.843 . S
C3160 C370 1.821 . S
C3177 C579 1.837 . S
C3196 C495 1.851 . S
C3213 C499 1.836 . S
C3232 C535 1.847 1_545 S
C3249 C539 1.831 . S
C3268 C575 1.825 . S
C3285 C659 1.837 . S
C3304 C615 1.849 . S
C3321 C655 1.841 . S
C3340 C699 1.835 . S
C3357 C619 1.835 . S
C3376 C695 1.845 . S
C3393 C726 1.842 . S
C3412 C810 1.834 . S
C3429 C730 1.831 . S
C3448 C766 1.848 . S
C3465 C806 1.840 . S
C3484 C770 1.843 . S
C3501 C890 1.836 . S
C3520 C846 1.822 . S
C3537 C930 1.835 . S
C3556 C886 1.846 1_545 S
C3573 C850 1.831 . S
C3592 C926 1.835 . S
C3609 C1059 1.836 . S
C3628 C975 1.848 . S
C3645 C1015 1.837 . S
C3664 C979 1.814 . S
C3681 C1019 1.831 . S
C3700 C1055 1.823 . S
C3717 C1095 1.842 . S
C3736 C1139 1.842 . S
C3753 C1135 1.837 . S
C3772 C1179 1.814 . S
C3789 C1099 1.831 . S
C3808 C1175 1.824 1_455 S
C3825 C1206 1.841 . S
C3844 C1290 1.814 . S
C3861 C1246 1.837 . S
C3880 C1210 1.840 . S
C3897 C1250 1.832 . S
C3916 C1286 1.851 1_455 S
C3933 C1326 1.839 . S
C3952 C1370 1.821 . S
C3969 C1410 1.837 . S
C3988 C1366 1.824 . S
C4005 C1330 1.837 . S
C4024 C1406 1.823 . S
C4041 C90 1.098 . S
C4060 C6 1.116 . S
C4077 C46 1.125 . S
C4096 C10 1.052 . S
C4113 C50 1.099 . S
C4132 C86 1.119 . S
C4149 C170 1.090 . S
C4168 C126 1.107 . S
C4185 C166 1.121 . S
C4204 C210 1.103 . S
C4221 C206 1.126 . S
C4240 C130 1.058 . S
C4257 C339 1.098 . S
C4276 C255 1.131 . S
C4293 C295 1.123 . S
C4312 C259 1.063 . S
C4329 C299 1.097 . S
C4348 C335 1.137 . S
C4365 C419 1.087 . S
C4384 C375 1.121 . S
C4401 C459 1.083 . S
C4420 C415 1.109 . S
C4437 C379 1.087 . S
C4456 C455 1.120 . S
C4473 C486 1.127 . S
C4492 C570 1.108 . S
C4509 C526 1.126 . S
C4528 C490 1.058 . S
C4545 C566 1.123 . S
C4564 C530 1.123 . S
C4581 C650 1.098 . S
C4600 C606 1.127 . S
C4617 C646 1.126 . S
C4636 C690 1.065 . S
C4653 C686 1.114 1_655 S
C4672 C610 1.125 . S
C4689 C819 1.095 . S
C4708 C735 1.122 . S
C4725 C739 1.098 . S
C4744 C775 1.134 . S
C4761 C815 1.108 1_655 S
C4780 C779 1.104 . S
C4797 C899 1.094 . S
C4816 C855 1.134 . S
C4833 C895 1.121 . S
C4852 C939 1.054 . S
C4869 C935 1.124 . S
C4888 C859 1.071 . S
C4905 C966 1.125 . S
C4924 C1050 1.052 . S
C4941 C970 1.095 . S
C4960 C1006 1.124 1_565 S
C4977 C1010 1.094 . S
C4996 C1046 1.134 . S
C5013 C1130 1.084 . S
C5032 C1086 1.115 . S
C5049 C1126 1.121 . S
C5068 C1170 1.096 . S
C5085 C1166 1.123 . S
C5104 C1090 1.055 . S
C5121 C1299 1.088 . S
C5140 C1215 1.111 . S
C5157 C1219 1.097 . S
C5176 C1255 1.128 . S
C5193 C1295 1.123 . S
C5212 C1259 1.063 . S
C5229 C1379 1.087 . S
C5248 C1335 1.109 . S
C5265 C1375 1.105 1_565 S
C5284 C1419 1.067 . S
C5301 C1415 1.123 . S
C5320 C1339 1.097 . S
