# Generated by pormake.
# Topology ske, (6)-cn, num edge types: 1
# Building blocks:
#     Node 0, Type 0, BuildingBlock: MIDCAF_clean_sbu_0, # of connection points: 6
#     Node 1, Type 0, BuildingBlock: MIDCAF_clean_sbu_0, # of connection points: 6
#     Node 2, Type 0, BuildingBlock: MIDCAF_clean_sbu_0, # of connection points: 6
#     Node 3, Type 0, BuildingBlock: MIDCAF_clean_sbu_0, # of connection points: 6
#     Node 4, Type 0, BuildingBlock: MIDCAF_clean_sbu_0, # of connection points: 6
#     Node 5, Type 0, BuildingBlock: MIDCAF_clean_sbu_0, # of connection points: 6
#     Node 6, Type 0, BuildingBlock: MIDCAF_clean_sbu_0, # of connection points: 6
#     Node 7, Type 0, BuildingBlock: MIDCAF_clean_sbu_0, # of connection points: 6
#     Edge 8, Type (0, 0), BuildingBlock: EYOCIG_clean_linker_4, # of connection points: 2
#     Edge 9, Type (0, 0), BuildingBlock: EYOCIG_clean_linker_4, # of connection points: 2
#     Edge 10, Type (0, 0), BuildingBlock: EYOCIG_clean_linker_4, # of connection points: 2
#     Edge 11, Type (0, 0), BuildingBlock: EYOCIG_clean_linker_4, # of connection points: 2
#     Edge 12, Type (0, 0), BuildingBlock: EYOCIG_clean_linker_4, # of connection points: 2
#     Edge 13, Type (0, 0), BuildingBlock: EYOCIG_clean_linker_4, # of connection points: 2
#     Edge 14, Type (0, 0), BuildingBlock: EYOCIG_clean_linker_4, # of connection points: 2
#     Edge 15, Type (0, 0), BuildingBlock: EYOCIG_clean_linker_4, # of connection points: 2
#     Edge 16, Type (0, 0), BuildingBlock: EYOCIG_clean_linker_4, # of connection points: 2
#     Edge 17, Type (0, 0), BuildingBlock: EYOCIG_clean_linker_4, # of connection points: 2
#     Edge 18, Type (0, 0), BuildingBlock: EYOCIG_clean_linker_4, # of connection points: 2
#     Edge 19, Type (0, 0), BuildingBlock: EYOCIG_clean_linker_4, # of connection points: 2
#     Edge 20, Type (0, 0), BuildingBlock: EYOCIG_clean_linker_4, # of connection points: 2
#     Edge 21, Type (0, 0), BuildingBlock: EYOCIG_clean_linker_4, # of connection points: 2
#     Edge 22, Type (0, 0), BuildingBlock: EYOCIG_clean_linker_4, # of connection points: 2
#     Edge 23, Type (0, 0), BuildingBlock: EYOCIG_clean_linker_4, # of connection points: 2
#     Edge 24, Type (0, 0), BuildingBlock: EYOCIG_clean_linker_4, # of connection points: 2
#     Edge 25, Type (0, 0), BuildingBlock: EYOCIG_clean_linker_4, # of connection points: 2
#     Edge 26, Type (0, 0), BuildingBlock: EYOCIG_clean_linker_4, # of connection points: 2
#     Edge 27, Type (0, 0), BuildingBlock: EYOCIG_clean_linker_4, # of connection points: 2
#     Edge 28, Type (0, 0), BuildingBlock: EYOCIG_clean_linker_4, # of connection points: 2
#     Edge 29, Type (0, 0), BuildingBlock: EYOCIG_clean_linker_4, # of connection points: 2
#     Edge 30, Type (0, 0), BuildingBlock: EYOCIG_clean_linker_4, # of connection points: 2
#     Edge 31, Type (0, 0), BuildingBlock: EYOCIG_clean_linker_4, # of connection points: 2
# Relax obj value: 0.101
# Max RMSD: 0.160
# Mean RMSD: 0.160
data_MOF--net-ske--node1-MIDCAF_clean_sbu_0--edge1-EYOCIG_clean_linker_4
_symmetry_space_group_name_H-M    P1
_symmetry_Int_Tables_number       1
_symmetry_cell_setting            triclinic
loop_
_symmetry_equiv_pos_as_xyz
'x, y, z'
_cell_length_a     48.605549
_cell_length_b     23.64911
_cell_length_c     12.52194
_cell_angle_alpha  90.001134
_cell_angle_beta   89.997196
_cell_angle_gamma 89.998279
loop_
_atom_site_label
_atom_site_type_symbol
_atom_site_fract_x
_atom_site_fract_y
_atom_site_fract_z
_atom_type_partial_charge
Zn0 Zn 0.15294 0.1818 0.44913 0.0
Zn1 Zn 0.10329 0.32768 0.63458 0.0
Zn2 Zn 0.12833 0.25995 0.53536 0.0
C3 C 0.06309 0.27444 0.53336 0.0
C4 C 0.13891 0.38688 0.50457 0.0
O5 O 0.16306 0.23747 0.6403 0.0
O6 O 0.18806 0.18826 0.52556 0.0
C7 C 0.10328 0.13577 0.49674 0.0
O8 O 0.08341 0.2395 0.52586 0.0
O9 O 0.06676 0.32312 0.57105 0.0
O10 O 0.12652 0.39129 0.59229 0.0
O11 O 0.13883 0.33965 0.4533 0.0
O12 O 0.12765 0.11936 0.48216 0.0
O13 O 0.09805 0.18894 0.50905 0.0
O14 O 0.143 0.29476 0.38068 0.0
O15 O 0.15169 0.21256 0.30333 0.0
C16 C 0.14898 0.2654 0.29709 0.0
O17 O 0.14453 0.26835 0.70326 0.0
O18 O 0.10828 0.30532 0.78397 0.0
C19 C 0.18584 0.21351 0.61356 0.0
C20 C 0.13215 0.28481 0.78909 0.0
Zn21 Zn 0.84037 0.34875 0.44764 0.0
Zn22 Zn 0.88999 0.20275 0.63294 0.0
Zn23 Zn 0.86499 0.27055 0.53382 0.0
C24 C 0.93023 0.25609 0.53218 0.0
C25 C 0.85442 0.14362 0.50272 0.0
O26 O 0.83022 0.29293 0.63867 0.0
O27 O 0.80523 0.34224 0.52403 0.0
C28 C 0.89003 0.39475 0.49537 0.0
O29 O 0.90991 0.29103 0.52466 0.0
O30 O 0.92654 0.20736 0.56962 0.0
O31 O 0.86678 0.13915 0.59048 0.0
O32 O 0.85451 0.19089 0.45157 0.0
O33 O 0.86567 0.41117 0.48077 0.0
O34 O 0.89526 0.34158 0.50765 0.0
O35 O 0.85033 0.23581 0.37906 0.0
O36 O 0.84162 0.31803 0.30181 0.0
C37 C 0.84434 0.26519 0.29551 0.0
O38 O 0.84876 0.26213 0.70167 0.0
O39 O 0.88497 0.22504 0.78235 0.0
C40 C 0.80744 0.31689 0.61194 0.0
C41 C 0.86112 0.24561 0.78748 0.0
Zn42 Zn 0.10335 0.70266 0.32908 0.0
Zn43 Zn 0.15297 0.84866 0.51443 0.0
Zn44 Zn 0.12836 0.77047 0.42821 0.0
C45 C 0.149 0.76509 0.66652 0.0
C46 C 0.1033 0.89466 0.46669 0.0
O47 O 0.14459 0.76204 0.26036 0.0
O48 O 0.10838 0.72494 0.17967 0.0
C49 C 0.13892 0.64353 0.45931 0.0
O50 O 0.14301 0.73572 0.58297 0.0
O51 O 0.15172 0.81793 0.66025 0.0
O52 O 0.12767 0.91108 0.48133 0.0
O53 O 0.09808 0.84149 0.45438 0.0
O54 O 0.12655 0.63905 0.37156 0.0
O55 O 0.13883 0.69079 0.51044 0.0
O56 O 0.08343 0.79095 0.43735 0.0
O57 O 0.06679 0.70729 0.39237 0.0
C58 C 0.06311 0.75602 0.42981 0.0
O59 O 0.16312 0.79286 0.32336 0.0
O60 O 0.1881 0.84216 0.43802 0.0
C61 C 0.13223 0.74551 0.17455 0.0
C62 C 0.18589 0.81682 0.3501 0.0
Zn63 Zn 0.89005 0.82776 0.32737 0.0
Zn64 Zn 0.8404 0.6819 0.51284 0.0
Zn65 Zn 0.86501 0.76003 0.42659 0.0
C66 C 0.84435 0.7655 0.66486 0.0
C67 C 0.89006 0.63585 0.46525 0.0
O68 O 0.84881 0.76843 0.25868 0.0
O69 O 0.88504 0.80542 0.17798 0.0
C70 C 0.85443 0.88697 0.4574 0.0
O71 O 0.85033 0.79485 0.58127 0.0
O72 O 0.84164 0.71266 0.65863 0.0
O73 O 0.86569 0.61945 0.47985 0.0
O74 O 0.89528 0.68902 0.45291 0.0
O75 O 0.86683 0.89138 0.36969 0.0
O76 O 0.8545 0.83973 0.50864 0.0
O77 O 0.90993 0.73957 0.43609 0.0
O78 O 0.92658 0.82318 0.39086 0.0
C79 C 0.93025 0.7745 0.42857 0.0
O80 O 0.83028 0.73754 0.32164 0.0
O81 O 0.80527 0.68833 0.43639 0.0
C82 C 0.86118 0.78491 0.17286 0.0
C83 C 0.8075 0.71358 0.34838 0.0
Zn84 Zn 0.60334 0.82717 0.13309 0.0
Zn85 Zn 0.65296 0.68118 0.94775 0.0
Zn86 Zn 0.62834 0.75938 0.03394 0.0
C87 C 0.64898 0.76474 0.79563 0.0
C88 C 0.60329 0.63518 -0.00449 0.0
O89 O 0.64457 0.7678 0.20178 0.0
O90 O 0.60835 0.80487 0.28249 0.0
C91 C 0.63892 0.88631 0.00287 0.0
O92 O 0.643 0.79412 0.87918 0.0
O93 O 0.6517 0.7119 0.80192 0.0
O94 O 0.62766 0.61876 0.9809 0.0
O95 O 0.59807 0.68835 0.00778 0.0
O96 O 0.62655 0.89077 0.09064 0.0
O97 O 0.63882 0.83905 0.95171 0.0
O98 O 0.58342 0.7389 0.02477 0.0
O99 O 0.56679 0.82257 0.06974 0.0
C100 C 0.5631 0.77385 0.0323 0.0
O101 O 0.66311 0.737 0.13877 0.0
O102 O 0.68809 0.68771 0.0241 0.0
C103 C 0.63221 0.78431 0.2876 0.0
C104 C 0.68589 0.71305 0.11201 0.0
Zn105 Zn 0.34039 0.8482 0.94913 0.0
Zn106 Zn 0.39004 0.70231 0.13455 0.0
Zn107 Zn 0.365 0.77005 0.03534 0.0
C108 C 0.43024 0.75555 0.03335 0.0
C109 C 0.35442 0.64312 0.00452 0.0
O110 O 0.33027 0.79253 0.1403 0.0
O111 O 0.30527 0.84175 0.02559 0.0
C112 C 0.39006 0.89422 -0.00329 0.0
O113 O 0.40992 0.7905 0.02584 0.0
O114 O 0.42657 0.70687 0.07103 0.0
O115 O 0.36681 0.6387 0.09225 0.0
O116 O 0.3545 0.69035 0.95327 0.0
O117 O 0.36569 0.91063 -0.01787 0.0
O118 O 0.39528 0.84106 0.00902 0.0
O119 O 0.35033 0.73524 0.88066 0.0
O120 O 0.34163 0.81744 0.80333 0.0
C121 C 0.34434 0.7646 0.79708 0.0
O122 O 0.3488 0.76165 0.20325 0.0
O123 O 0.38504 0.72466 0.28394 0.0
C124 C 0.3075 0.81649 0.11358 0.0
C125 C 0.36118 0.74518 0.28907 0.0
Zn126 Zn 0.60329 0.20216 0.8275 0.0
Zn127 Zn 0.65295 0.34804 0.01295 0.0
Zn128 Zn 0.62834 0.2699 0.9267 0.0
C129 C 0.649 0.26444 0.16497 0.0
C130 C 0.60329 0.39408 0.96539 0.0
O131 O 0.64454 0.26149 0.7588 0.0
O132 O 0.60831 0.22449 0.67811 0.0
C133 C 0.63891 0.14296 0.95754 0.0
O134 O 0.64301 0.23508 0.08139 0.0
O135 O 0.65171 0.31728 0.15874 0.0
O136 O 0.62765 0.41049 0.98 0.0
O137 O 0.59806 0.34091 0.95304 0.0
O138 O 0.62651 0.13853 0.86984 0.0
O139 O 0.63884 0.1902 0.00877 0.0
O140 O 0.58342 0.29036 0.93618 0.0
O141 O 0.56676 0.20675 0.89097 0.0
C142 C 0.56309 0.25543 0.92865 0.0
O143 O 0.66307 0.29239 0.82175 0.0
O144 O 0.68807 0.34162 0.93647 0.0
C145 C 0.63217 0.24501 0.67298 0.0
C146 C 0.68584 0.31637 0.84847 0.0
Zn147 Zn 0.39 0.32733 0.82895 0.0
Zn148 Zn 0.34037 0.18134 0.0143 0.0
Zn149 Zn 0.36498 0.25953 0.92808 0.0
C150 C 0.34434 0.26491 0.1664 0.0
C151 C 0.39003 0.13533 0.96657 0.0
O152 O 0.34875 0.26796 0.76024 0.0
O153 O 0.38497 0.30505 0.67954 0.0
C154 C 0.35442 0.38647 0.95919 0.0
O155 O 0.35033 0.29428 0.08285 0.0
O156 O 0.34162 0.21207 0.16012 0.0
O157 O 0.36566 0.11891 -0.0188 0.0
O158 O 0.39525 0.1885 0.95426 0.0
O159 O 0.3668 0.39094 0.87144 0.0
O160 O 0.35451 0.3392 0.01032 0.0
O161 O 0.40991 0.23903 0.93724 0.0
O162 O 0.42655 0.32269 0.89225 0.0
C163 C 0.43023 0.27396 0.92969 0.0
O164 O 0.33022 0.23714 0.82324 0.0
O165 O 0.30524 0.18784 0.93791 0.0
C166 C 0.36111 0.28448 0.67443 0.0
C167 C 0.30744 0.21318 0.84999 0.0
C168 C 0.2329 0.22089 0.71409 0.0
C169 C 0.21019 0.22021 0.67609 0.0
C170 C 0.26036 0.22081 0.74966 0.0
C171 C 0.28307 0.22 0.78761 0.0
C172 C 0.7329 0.30907 0.74786 0.0
C173 C 0.71019 0.30971 0.78589 0.0
C174 C 0.76036 0.3092 0.71226 0.0
C175 C 0.78307 0.31003 0.67429 0.0
C176 C 0.26044 0.80913 0.21415 0.0
C177 C 0.28315 0.8098 0.17612 0.0
C178 C 0.23298 0.80921 0.24975 0.0
C179 C 0.21027 0.81001 0.28772 0.0
C180 C 0.73298 0.72075 0.21227 0.0
C181 C 0.71026 0.71991 0.17434 0.0
C182 C 0.76044 0.72088 0.24783 0.0
C183 C 0.78315 0.72023 0.28583 0.0
C184 C 0.07336 0.98534 0.47584 0.0
C185 C 0.08232 0.93775 0.46828 0.0
C186 C 0.07335 0.04508 0.48751 0.0
C187 C 0.0823 0.09268 0.49509 0.0
C188 C 0.91998 0.48543 0.48619 0.0
C189 C 0.91102 0.43783 0.49376 0.0
C190 C 0.91999 0.54516 0.4745 0.0
C191 C 0.91103 0.59276 0.4669 0.0
C192 C 0.83413 0.98591 0.48982 0.0
C193 C 0.84081 0.93689 0.4941 0.0
C194 C 0.83413 0.0447 0.47004 0.0
C195 C 0.8408 0.09373 0.46584 0.0
C196 C 0.15921 0.5446 0.49196 0.0
C197 C 0.15254 0.59363 0.49617 0.0
C198 C 0.15921 0.48582 0.47216 0.0
C199 C 0.15253 0.4368 0.46787 0.0
C200 C 0.57335 0.5445 -0.01366 0.0
C201 C 0.58231 0.59209 -0.00609 0.0
C202 C 0.57335 0.48477 0.97465 0.0
C203 C 0.58231 0.43717 0.96705 0.0
C204 C 0.41999 0.98491 -0.01257 0.0
C205 C 0.41103 0.93731 -0.00496 0.0
C206 C 0.41998 0.04465 0.97574 0.0
C207 C 0.41101 0.09224 0.96817 0.0
C208 C 0.33413 0.48539 -0.00815 0.0
C209 C 0.3408 0.43636 -0.00396 0.0
C210 C 0.33413 0.54418 0.97207 0.0
C211 C 0.3408 0.5932 0.9678 0.0
C212 C 0.6592 0.04401 -0.01001 0.0
C213 C 0.65253 0.09304 -0.00574 0.0
C214 C 0.6592 0.98523 0.97021 0.0
C215 C 0.65253 0.9362 0.96601 0.0
C216 C 0.15267 0.29471 0.09698 0.0
C217 C 0.1507 0.2897 0.1925 0.0
C218 C 0.15114 0.28986 -0.01534 0.0
C219 C 0.14541 0.28472 0.89144 0.0
C220 C 0.84063 0.23587 0.0954 0.0
C221 C 0.84261 0.2409 0.19091 0.0
C222 C 0.84214 0.24066 -0.01693 0.0
C223 C 0.84786 0.24577 0.88984 0.0
C224 C 0.15121 0.74056 0.97896 0.0
C225 C 0.14549 0.74567 0.07219 0.0
C226 C 0.15271 0.73576 0.86663 0.0
C227 C 0.15073 0.7408 0.77112 0.0
C228 C 0.84066 0.79482 0.86498 0.0
C229 C 0.84263 0.78981 0.76945 0.0
C230 C 0.84219 0.78996 0.9773 0.0
C231 C 0.84792 0.78481 0.07051 0.0
C232 C 0.65119 0.78926 0.48319 0.0
C233 C 0.64546 0.78415 0.38996 0.0
C234 C 0.65269 0.79406 0.59552 0.0
C235 C 0.65071 0.78903 0.69103 0.0
C236 C 0.34066 0.73529 0.59696 0.0
C237 C 0.34262 0.7403 0.69249 0.0
C238 C 0.34218 0.74014 0.48464 0.0
C239 C 0.34792 0.74528 0.39143 0.0
C240 C 0.65269 0.23512 0.36508 0.0
C241 C 0.65072 0.24013 0.26956 0.0
C242 C 0.65116 0.23996 0.47741 0.0
C243 C 0.64543 0.24511 0.57063 0.0
C244 C 0.34063 0.29424 0.36651 0.0
C245 C 0.34261 0.2892 0.271 0.0
C246 C 0.34214 0.28944 0.47884 0.0
C247 C 0.34786 0.28432 0.57207 0.0
C248 C 0.01109 0.26155 0.48815 0.0
C249 C 0.03555 0.25993 0.50344 0.0
C250 C 0.98227 0.26908 0.48788 0.0
C251 C 0.95779 0.27067 0.50275 0.0
C252 C 0.98225 0.76157 0.47378 0.0
C253 C 0.95778 0.75998 0.45849 0.0
C254 C 0.01106 0.76906 0.47406 0.0
C255 C 0.03555 0.77063 0.45921 0.0
C256 C 0.51106 0.76089 -0.01206 0.0
C257 C 0.53554 0.75928 0.00283 0.0
C258 C 0.48225 0.76842 -0.01182 0.0
C259 C 0.45778 0.77005 0.00344 0.0
C260 C 0.48227 0.26091 0.97402 0.0
C261 C 0.45779 0.25935 0.95913 0.0
C262 C 0.51109 0.26839 0.97378 0.0
C263 C 0.53556 0.26997 0.95853 0.0
loop_
_geom_bond_atom_site_label_1
_geom_bond_atom_site_label_2
_geom_bond_distance
_geom_bond_site_symmetry_2
_ccdc_geom_bond_type
Zn0 O6 1.920 . S
Zn0 O12 1.898 . S
Zn0 O15 1.905 . S
Zn1 O9 1.905 . S
Zn1 O10 1.898 . S
Zn1 O18 1.920 . S
Zn2 O5 2.080 . S
Zn2 O8 2.114 . S
Zn2 O11 2.120 . S
Zn2 O13 2.120 . S
Zn2 O14 2.114 . S
Zn2 O17 2.080 . S
C3 O8 1.166 . S
C3 O9 1.182 . S
C4 O10 1.167 . S
C4 O11 1.299 . S
O5 Zn2 2.080 . S
O5 C19 1.305 . S
O6 Zn0 1.920 . S
O6 C19 1.234 . S
C7 O12 1.167 . S
C7 O13 1.299 . S
O8 Zn2 2.114 . S
O8 C3 1.166 . S
O9 Zn1 1.905 . S
O9 C3 1.182 . S
O10 Zn1 1.898 . S
O10 C4 1.167 . S
O11 Zn2 2.120 . S
O11 C4 1.299 . S
O12 Zn0 1.898 . S
O12 C7 1.167 . S
O13 Zn2 2.120 . S
O13 C7 1.299 . S
O14 Zn2 2.114 . S
O14 C16 1.166 . S
O15 Zn0 1.905 . S
O15 C16 1.182 . S
C16 O14 1.166 . S
C16 O15 1.182 . S
O17 Zn2 2.080 . S
O17 C20 1.305 . S
O18 Zn1 1.920 . S
O18 C20 1.234 . S
C19 O5 1.305 . S
C19 O6 1.234 . S
C20 O17 1.305 . S
C20 O18 1.234 . S
Zn21 O27 1.920 . S
Zn21 O33 1.898 . S
Zn21 O36 1.905 . S
Zn22 O30 1.905 . S
Zn22 O31 1.898 . S
Zn22 O39 1.920 . S
Zn23 O26 2.080 . S
Zn23 O29 2.114 . S
Zn23 O32 2.120 . S
Zn23 O34 2.120 . S
Zn23 O35 2.114 . S
Zn23 O38 2.080 . S
C24 O29 1.166 . S
C24 O30 1.182 . S
C25 O31 1.167 . S
C25 O32 1.299 . S
O26 Zn23 2.080 . S
O26 C40 1.305 . S
O27 Zn21 1.920 . S
O27 C40 1.234 . S
C28 O33 1.167 . S
C28 O34 1.299 . S
O29 Zn23 2.114 . S
O29 C24 1.166 . S
O30 Zn22 1.905 . S
O30 C24 1.182 . S
O31 Zn22 1.898 . S
O31 C25 1.167 . S
O32 Zn23 2.120 . S
O32 C25 1.299 . S
O33 Zn21 1.898 . S
O33 C28 1.167 . S
O34 Zn23 2.120 . S
O34 C28 1.299 . S
O35 Zn23 2.114 . S
O35 C37 1.166 . S
O36 Zn21 1.905 . S
O36 C37 1.182 . S
C37 O35 1.166 . S
C37 O36 1.182 . S
O38 Zn23 2.080 . S
O38 C41 1.305 . S
O39 Zn22 1.920 . S
O39 C41 1.234 . S
C40 O26 1.305 . S
C40 O27 1.234 . S
C41 O38 1.305 . S
C41 O39 1.234 . S
Zn42 O48 1.920 . S
Zn42 O54 1.898 . S
Zn42 O57 1.905 . S
Zn43 O51 1.905 . S
Zn43 O52 1.898 . S
Zn43 O60 1.920 . S
Zn44 O47 2.080 . S
Zn44 O50 2.114 . S
Zn44 O53 2.120 . S
Zn44 O55 2.120 . S
Zn44 O56 2.114 . S
Zn44 O59 2.080 . S
C45 O50 1.166 . S
C45 O51 1.182 . S
C46 O52 1.167 . S
C46 O53 1.299 . S
O47 Zn44 2.080 . S
O47 C61 1.305 . S
O48 Zn42 1.920 . S
O48 C61 1.234 . S
C49 O54 1.167 . S
C49 O55 1.299 . S
O50 Zn44 2.114 . S
O50 C45 1.166 . S
O51 Zn43 1.905 . S
O51 C45 1.182 . S
O52 Zn43 1.898 . S
O52 C46 1.167 . S
O53 Zn44 2.120 . S
O53 C46 1.299 . S
O54 Zn42 1.898 . S
O54 C49 1.167 . S
O55 Zn44 2.120 . S
O55 C49 1.299 . S
O56 Zn44 2.114 . S
O56 C58 1.166 . S
O57 Zn42 1.905 . S
O57 C58 1.182 . S
C58 O56 1.166 . S
C58 O57 1.182 . S
O59 Zn44 2.080 . S
O59 C62 1.305 . S
O60 Zn43 1.920 . S
O60 C62 1.234 . S
C61 O47 1.305 . S
C61 O48 1.234 . S
C62 O59 1.305 . S
C62 O60 1.234 . S
Zn63 O69 1.920 . S
Zn63 O75 1.898 . S
Zn63 O78 1.905 . S
Zn64 O72 1.905 . S
Zn64 O73 1.898 . S
Zn64 O81 1.920 . S
Zn65 O68 2.080 . S
Zn65 O71 2.114 . S
Zn65 O74 2.120 . S
Zn65 O76 2.120 . S
Zn65 O77 2.114 . S
Zn65 O80 2.080 . S
C66 O71 1.166 . S
C66 O72 1.182 . S
C67 O73 1.167 . S
C67 O74 1.299 . S
O68 Zn65 2.080 . S
O68 C82 1.305 . S
O69 Zn63 1.920 . S
O69 C82 1.234 . S
C70 O75 1.167 . S
C70 O76 1.299 . S
O71 Zn65 2.114 . S
O71 C66 1.166 . S
O72 Zn64 1.905 . S
O72 C66 1.182 . S
O73 Zn64 1.898 . S
O73 C67 1.167 . S
O74 Zn65 2.120 . S
O74 C67 1.299 . S
O75 Zn63 1.898 . S
O75 C70 1.167 . S
O76 Zn65 2.120 . S
O76 C70 1.299 . S
O77 Zn65 2.114 . S
O77 C79 1.166 . S
O78 Zn63 1.905 . S
O78 C79 1.182 . S
C79 O77 1.166 . S
C79 O78 1.182 . S
O80 Zn65 2.080 . S
O80 C83 1.305 . S
O81 Zn64 1.920 . S
O81 C83 1.234 . S
C82 O68 1.305 . S
C82 O69 1.234 . S
C83 O80 1.305 . S
C83 O81 1.234 . S
Zn84 O90 1.920 . S
Zn84 O96 1.898 . S
Zn84 O99 1.905 . S
Zn85 O93 1.905 . S
Zn85 O94 1.898 . S
Zn85 O102 1.920 1_556 S
Zn86 O89 2.080 . S
Zn86 O92 2.114 1_554 S
Zn86 O95 2.120 . S
Zn86 O97 2.120 . S
Zn86 O98 2.114 . S
Zn86 O101 2.080 . S
C87 O92 1.166 . S
C87 O93 1.182 . S
C88 O94 1.167 1_554 S
C88 O95 1.299 . S
O89 Zn86 2.080 . S
O89 C103 1.305 . S
O90 Zn84 1.920 . S
O90 C103 1.234 . S
C91 O96 1.167 . S
C91 O97 1.299 . S
O92 Zn86 2.114 1_556 S
O92 C87 1.166 . S
O93 Zn85 1.905 . S
O93 C87 1.182 . S
O94 Zn85 1.898 . S
O94 C88 1.167 1_556 S
O95 Zn86 2.120 . S
O95 C88 1.299 . S
O96 Zn84 1.898 . S
O96 C91 1.167 . S
O97 Zn86 2.120 . S
O97 C91 1.299 . S
O98 Zn86 2.114 . S
O98 C100 1.166 . S
O99 Zn84 1.905 . S
O99 C100 1.182 . S
C100 O98 1.166 . S
C100 O99 1.182 . S
O101 Zn86 2.080 . S
O101 C104 1.305 . S
O102 Zn85 1.920 1_554 S
O102 C104 1.234 . S
C103 O89 1.305 . S
C103 O90 1.234 . S
C104 O101 1.305 . S
C104 O102 1.234 . S
Zn105 O111 1.920 1_556 S
Zn105 O117 1.898 . S
Zn105 O120 1.905 . S
Zn106 O114 1.905 . S
Zn106 O115 1.898 . S
Zn106 O123 1.920 . S
Zn107 O110 2.080 . S
Zn107 O113 2.114 . S
Zn107 O116 2.120 . S
Zn107 O118 2.120 . S
Zn107 O119 2.114 1_554 S
Zn107 O122 2.080 . S
C108 O113 1.166 . S
C108 O114 1.182 . S
C109 O115 1.167 . S
C109 O116 1.299 . S
O110 Zn107 2.080 . S
O110 C124 1.305 . S
O111 Zn105 1.920 1_554 S
O111 C124 1.234 . S
C112 O117 1.167 1_554 S
C112 O118 1.299 . S
O113 Zn107 2.114 . S
O113 C108 1.166 . S
O114 Zn106 1.905 . S
O114 C108 1.182 . S
O115 Zn106 1.898 . S
O115 C109 1.167 . S
O116 Zn107 2.120 . S
O116 C109 1.299 . S
O117 Zn105 1.898 . S
O117 C112 1.167 1_556 S
O118 Zn107 2.120 . S
O118 C112 1.299 . S
O119 Zn107 2.114 1_556 S
O119 C121 1.166 . S
O120 Zn105 1.905 . S
O120 C121 1.182 . S
C121 O119 1.166 . S
C121 O120 1.182 . S
O122 Zn107 2.080 . S
O122 C125 1.305 . S
O123 Zn106 1.920 . S
O123 C125 1.234 . S
C124 O110 1.305 . S
C124 O111 1.234 . S
C125 O122 1.305 . S
C125 O123 1.234 . S
Zn126 O132 1.920 . S
Zn126 O138 1.898 . S
Zn126 O141 1.905 . S
Zn127 O135 1.905 . S
Zn127 O136 1.898 . S
Zn127 O144 1.920 1_554 S
Zn128 O131 2.080 . S
Zn128 O134 2.114 1_556 S
Zn128 O137 2.120 . S
Zn128 O139 2.120 . S
Zn128 O140 2.114 . S
Zn128 O143 2.080 . S
C129 O134 1.166 . S
C129 O135 1.182 . S
C130 O136 1.167 1_556 S
C130 O137 1.299 . S
O131 Zn128 2.080 . S
O131 C145 1.305 . S
O132 Zn126 1.920 . S
O132 C145 1.234 . S
C133 O138 1.167 . S
C133 O139 1.299 . S
O134 Zn128 2.114 1_554 S
O134 C129 1.166 . S
O135 Zn127 1.905 . S
O135 C129 1.182 . S
O136 Zn127 1.898 . S
O136 C130 1.167 1_554 S
O137 Zn128 2.120 . S
O137 C130 1.299 . S
O138 Zn126 1.898 . S
O138 C133 1.167 . S
O139 Zn128 2.120 . S
O139 C133 1.299 . S
O140 Zn128 2.114 . S
O140 C142 1.166 . S
O141 Zn126 1.905 . S
O141 C142 1.182 . S
C142 O140 1.166 . S
C142 O141 1.182 . S
O143 Zn128 2.080 . S
O143 C146 1.305 . S
O144 Zn127 1.920 1_556 S
O144 C146 1.234 . S
C145 O131 1.305 . S
C145 O132 1.234 . S
C146 O143 1.305 . S
C146 O144 1.234 . S
Zn147 O153 1.920 . S
Zn147 O159 1.898 . S
Zn147 O162 1.905 . S
Zn148 O156 1.905 . S
Zn148 O157 1.898 . S
Zn148 O165 1.920 1_554 S
Zn149 O152 2.080 . S
Zn149 O155 2.114 1_556 S
Zn149 O158 2.120 . S
Zn149 O160 2.120 . S
Zn149 O161 2.114 . S
Zn149 O164 2.080 . S
C150 O155 1.166 . S
C150 O156 1.182 . S
C151 O157 1.167 1_556 S
C151 O158 1.299 . S
O152 Zn149 2.080 . S
O152 C166 1.305 . S
O153 Zn147 1.920 . S
O153 C166 1.234 . S
C154 O159 1.167 . S
C154 O160 1.299 . S
O155 Zn149 2.114 1_554 S
O155 C150 1.166 . S
O156 Zn148 1.905 . S
O156 C150 1.182 . S
O157 Zn148 1.898 . S
O157 C151 1.167 1_554 S
O158 Zn149 2.120 . S
O158 C151 1.299 . S
O159 Zn147 1.898 . S
O159 C154 1.167 . S
O160 Zn149 2.120 . S
O160 C154 1.299 . S
O161 Zn149 2.114 . S
O161 C163 1.166 . S
O162 Zn147 1.905 . S
O162 C163 1.182 . S
C163 O161 1.166 . S
C163 O162 1.182 . S
O164 Zn149 2.080 . S
O164 C167 1.305 . S
O165 Zn148 1.920 1_556 S
O165 C167 1.234 . S
C166 O152 1.305 . S
C166 O153 1.234 . S
C167 O164 1.305 . S
C167 O165 1.234 . S
C168 C169 1.170 . S
C168 C170 1.380 . S
C169 C168 1.170 . S
C170 C168 1.380 . S
C170 C171 1.170 . S
C171 C170 1.170 . S
C172 C173 1.170 . S
C172 C174 1.380 . S
C173 C172 1.170 . S
C174 C172 1.380 . S
C174 C175 1.170 . S
C175 C174 1.170 . S
C176 C177 1.170 . S
C176 C178 1.380 . S
C177 C176 1.170 . S
C178 C176 1.380 . S
C178 C179 1.170 . S
C179 C178 1.170 . S
C180 C181 1.170 . S
C180 C182 1.380 . S
C181 C180 1.170 . S
C182 C180 1.380 . S
C182 C183 1.170 . S
C183 C182 1.170 . S
C184 C185 1.170 . S
C184 C186 1.380 1_565 S
C185 C184 1.170 . S
C186 C184 1.380 1_545 S
C186 C187 1.170 . S
C187 C186 1.170 . S
C188 C189 1.170 . S
C188 C190 1.380 . S
C189 C188 1.170 . S
C190 C188 1.380 . S
C190 C191 1.170 . S
C191 C190 1.170 . S
C192 C193 1.170 . S
C192 C194 1.380 1_565 S
C193 C192 1.170 . S
C194 C192 1.380 1_545 S
C194 C195 1.170 . S
C195 C194 1.170 . S
C196 C197 1.170 . S
C196 C198 1.380 . S
C197 C196 1.170 . S
C198 C196 1.380 . S
C198 C199 1.170 . S
C199 C198 1.170 . S
C200 C201 1.170 . S
C200 C202 1.380 1_554 S
C201 C200 1.170 . S
C202 C200 1.380 1_556 S
C202 C203 1.170 . S
C203 C202 1.170 . S
C204 C205 1.170 . S
C204 C206 1.380 1_564 S
C205 C204 1.170 . S
C206 C204 1.380 1_546 S
C206 C207 1.170 . S
C207 C206 1.170 . S
C208 C209 1.170 . S
C208 C210 1.380 1_556 S
C209 C208 1.170 . S
C210 C208 1.380 1_554 S
C210 C211 1.170 . S
C211 C210 1.170 . S
C212 C213 1.170 . S
C212 C214 1.380 1_546 S
C213 C212 1.170 . S
C214 C212 1.380 1_564 S
C214 C215 1.170 . S
C215 C214 1.170 . S
C216 C217 1.170 . S
C216 C218 1.380 . S
C217 C216 1.170 . S
C218 C216 1.380 . S
C218 C219 1.170 1_554 S
C219 C218 1.170 1_556 S
C220 C221 1.170 . S
C220 C222 1.380 . S
C221 C220 1.170 . S
C222 C220 1.380 . S
C222 C223 1.170 1_554 S
C223 C222 1.170 1_556 S
C224 C225 1.170 1_556 S
C224 C226 1.380 . S
C225 C224 1.170 1_554 S
C226 C224 1.380 . S
C226 C227 1.170 . S
C227 C226 1.170 . S
C228 C229 1.170 . S
C228 C230 1.380 . S
C229 C228 1.170 . S
C230 C228 1.380 . S
C230 C231 1.170 1_556 S
C231 C230 1.170 1_554 S
C232 C233 1.170 . S
C232 C234 1.380 . S
C233 C232 1.170 . S
C234 C232 1.380 . S
C234 C235 1.170 . S
C235 C234 1.170 . S
C236 C237 1.170 . S
C236 C238 1.380 . S
C237 C236 1.170 . S
C238 C236 1.380 . S
C238 C239 1.170 . S
C239 C238 1.170 . S
C240 C241 1.170 . S
C240 C242 1.380 . S
C241 C240 1.170 . S
C242 C240 1.380 . S
C242 C243 1.170 . S
C243 C242 1.170 . S
C244 C245 1.170 . S
C244 C246 1.380 . S
C245 C244 1.170 . S
C246 C244 1.380 . S
C246 C247 1.170 . S
C247 C246 1.170 . S
C248 C249 1.170 . S
C248 C250 1.380 1_455 S
C249 C248 1.170 . S
C250 C248 1.380 1_655 S
C250 C251 1.170 . S
C251 C250 1.170 . S
C252 C253 1.170 . S
C252 C254 1.380 1_655 S
C253 C252 1.170 . S
C254 C252 1.380 1_455 S
C254 C255 1.170 . S
C255 C254 1.170 . S
C256 C257 1.170 . S
C256 C258 1.380 . S
C257 C256 1.170 . S
C258 C256 1.380 . S
C258 C259 1.170 . S
C259 C258 1.170 . S
C260 C261 1.170 . S
C260 C262 1.380 . S
C261 C260 1.170 . S
C262 C260 1.380 . S
C262 C263 1.170 . S
C263 C262 1.170 . S
C169 C19 1.428 . S
C171 C167 1.414 . S
C173 C146 1.414 . S
C175 C40 1.383 . S
C177 C124 1.416 . S
C179 C62 1.384 . S
C181 C104 1.423 . S
C183 C83 1.423 . S
C185 C46 1.542 . S
C187 C7 1.496 . S
C189 C28 1.505 . S
C191 C67 1.494 . S
C193 C70 1.216 . S
C195 C25 1.247 . S
C197 C49 1.259 . S
C199 C4 1.223 . S
C201 C88 1.511 . S
C203 C130 1.491 . S
C205 C112 1.500 . S
C207 C151 1.498 . S
C209 C154 1.273 . S
C211 C109 1.254 . S
C213 C133 1.218 . S
C215 C91 1.251 . S
C217 C16 1.328 . S
C219 C20 1.293 . S
C221 C37 1.328 . S
C223 C41 1.290 . S
C225 C61 1.322 . S
C227 C45 1.300 . S
C229 C66 1.328 . S
C231 C82 1.290 . S
C233 C103 1.337 . S
C235 C87 1.273 . S
C237 C121 1.329 . S
C239 C125 1.290 . S
C241 C129 1.279 . S
C243 C145 1.340 . S
C245 C150 1.329 . S
C247 C166 1.290 . S
C249 C3 1.341 . S
C251 C24 1.346 . S
C253 C79 1.298 . S
C255 C58 1.291 . S
C257 C100 1.351 . S
C259 C108 1.296 . S
C261 C163 1.355 . S
C263 C142 1.308 . S
