# Generated by pormake.
# Topology upd, (4)-cn, num edge types: 1
# Building blocks:
#     Node 0, Type 0, BuildingBlock: KOZSID_clean_sbu_0, # of connection points: 4
#     Node 1, Type 0, BuildingBlock: KOZSID_clean_sbu_0, # of connection points: 4
#     Node 2, Type 0, BuildingBlock: KOZSID_clean_sbu_0, # of connection points: 4
#     Node 3, Type 0, BuildingBlock: KOZSID_clean_sbu_0, # of connection points: 4
#     Node 4, Type 0, BuildingBlock: KOZSID_clean_sbu_0, # of connection points: 4
#     Node 5, Type 0, BuildingBlock: KOZSID_clean_sbu_0, # of connection points: 4
#     Node 6, Type 0, BuildingBlock: KOZSID_clean_sbu_0, # of connection points: 4
#     Node 7, Type 0, BuildingBlock: KOZSID_clean_sbu_0, # of connection points: 4
#     Node 8, Type 0, BuildingBlock: KOZSID_clean_sbu_0, # of connection points: 4
#     Node 9, Type 0, BuildingBlock: KOZSID_clean_sbu_0, # of connection points: 4
#     Node 10, Type 0, BuildingBlock: KOZSID_clean_sbu_0, # of connection points: 4
#     Node 11, Type 0, BuildingBlock: KOZSID_clean_sbu_0, # of connection points: 4
#     Node 12, Type 0, BuildingBlock: KOZSID_clean_sbu_0, # of connection points: 4
#     Node 13, Type 0, BuildingBlock: KOZSID_clean_sbu_0, # of connection points: 4
#     Node 14, Type 0, BuildingBlock: KOZSID_clean_sbu_0, # of connection points: 4
#     Node 15, Type 0, BuildingBlock: KOZSID_clean_sbu_0, # of connection points: 4
#     Node 16, Type 0, BuildingBlock: KOZSID_clean_sbu_0, # of connection points: 4
#     Node 17, Type 0, BuildingBlock: KOZSID_clean_sbu_0, # of connection points: 4
#     Node 18, Type 0, BuildingBlock: KOZSID_clean_sbu_0, # of connection points: 4
#     Node 19, Type 0, BuildingBlock: KOZSID_clean_sbu_0, # of connection points: 4
#     Node 20, Type 0, BuildingBlock: KOZSID_clean_sbu_0, # of connection points: 4
#     Node 21, Type 0, BuildingBlock: KOZSID_clean_sbu_0, # of connection points: 4
#     Node 22, Type 0, BuildingBlock: KOZSID_clean_sbu_0, # of connection points: 4
#     Node 23, Type 0, BuildingBlock: KOZSID_clean_sbu_0, # of connection points: 4
#     Node 24, Type 0, BuildingBlock: KOZSID_clean_sbu_0, # of connection points: 4
#     Node 25, Type 0, BuildingBlock: KOZSID_clean_sbu_0, # of connection points: 4
#     Node 26, Type 0, BuildingBlock: KOZSID_clean_sbu_0, # of connection points: 4
#     Node 27, Type 0, BuildingBlock: KOZSID_clean_sbu_0, # of connection points: 4
#     Node 28, Type 0, BuildingBlock: KOZSID_clean_sbu_0, # of connection points: 4
#     Node 29, Type 0, BuildingBlock: KOZSID_clean_sbu_0, # of connection points: 4
#     Node 30, Type 0, BuildingBlock: KOZSID_clean_sbu_0, # of connection points: 4
#     Node 31, Type 0, BuildingBlock: KOZSID_clean_sbu_0, # of connection points: 4
#     Edge 32, Type (0, 0), BuildingBlock: UVAHIK_clean_linker_0, # of connection points: 2
#     Edge 33, Type (0, 0), BuildingBlock: UVAHIK_clean_linker_0, # of connection points: 2
#     Edge 34, Type (0, 0), BuildingBlock: UVAHIK_clean_linker_0, # of connection points: 2
#     Edge 35, Type (0, 0), BuildingBlock: UVAHIK_clean_linker_0, # of connection points: 2
#     Edge 36, Type (0, 0), BuildingBlock: UVAHIK_clean_linker_0, # of connection points: 2
#     Edge 37, Type (0, 0), BuildingBlock: UVAHIK_clean_linker_0, # of connection points: 2
#     Edge 38, Type (0, 0), BuildingBlock: UVAHIK_clean_linker_0, # of connection points: 2
#     Edge 39, Type (0, 0), BuildingBlock: UVAHIK_clean_linker_0, # of connection points: 2
#     Edge 40, Type (0, 0), BuildingBlock: UVAHIK_clean_linker_0, # of connection points: 2
#     Edge 41, Type (0, 0), BuildingBlock: UVAHIK_clean_linker_0, # of connection points: 2
#     Edge 42, Type (0, 0), BuildingBlock: UVAHIK_clean_linker_0, # of connection points: 2
#     Edge 43, Type (0, 0), BuildingBlock: UVAHIK_clean_linker_0, # of connection points: 2
#     Edge 44, Type (0, 0), BuildingBlock: UVAHIK_clean_linker_0, # of connection points: 2
#     Edge 45, Type (0, 0), BuildingBlock: UVAHIK_clean_linker_0, # of connection points: 2
#     Edge 46, Type (0, 0), BuildingBlock: UVAHIK_clean_linker_0, # of connection points: 2
#     Edge 47, Type (0, 0), BuildingBlock: UVAHIK_clean_linker_0, # of connection points: 2
#     Edge 48, Type (0, 0), BuildingBlock: UVAHIK_clean_linker_0, # of connection points: 2
#     Edge 49, Type (0, 0), BuildingBlock: UVAHIK_clean_linker_0, # of connection points: 2
#     Edge 50, Type (0, 0), BuildingBlock: UVAHIK_clean_linker_0, # of connection points: 2
#     Edge 51, Type (0, 0), BuildingBlock: UVAHIK_clean_linker_0, # of connection points: 2
#     Edge 52, Type (0, 0), BuildingBlock: UVAHIK_clean_linker_0, # of connection points: 2
#     Edge 53, Type (0, 0), BuildingBlock: UVAHIK_clean_linker_0, # of connection points: 2
#     Edge 54, Type (0, 0), BuildingBlock: UVAHIK_clean_linker_0, # of connection points: 2
#     Edge 55, Type (0, 0), BuildingBlock: UVAHIK_clean_linker_0, # of connection points: 2
#     Edge 56, Type (0, 0), BuildingBlock: UVAHIK_clean_linker_0, # of connection points: 2
#     Edge 57, Type (0, 0), BuildingBlock: UVAHIK_clean_linker_0, # of connection points: 2
#     Edge 58, Type (0, 0), BuildingBlock: UVAHIK_clean_linker_0, # of connection points: 2
#     Edge 59, Type (0, 0), BuildingBlock: UVAHIK_clean_linker_0, # of connection points: 2
#     Edge 60, Type (0, 0), BuildingBlock: UVAHIK_clean_linker_0, # of connection points: 2
#     Edge 61, Type (0, 0), BuildingBlock: UVAHIK_clean_linker_0, # of connection points: 2
#     Edge 62, Type (0, 0), BuildingBlock: UVAHIK_clean_linker_0, # of connection points: 2
#     Edge 63, Type (0, 0), BuildingBlock: UVAHIK_clean_linker_0, # of connection points: 2
#     Edge 64, Type (0, 0), BuildingBlock: UVAHIK_clean_linker_0, # of connection points: 2
#     Edge 65, Type (0, 0), BuildingBlock: UVAHIK_clean_linker_0, # of connection points: 2
#     Edge 66, Type (0, 0), BuildingBlock: UVAHIK_clean_linker_0, # of connection points: 2
#     Edge 67, Type (0, 0), BuildingBlock: UVAHIK_clean_linker_0, # of connection points: 2
#     Edge 68, Type (0, 0), BuildingBlock: UVAHIK_clean_linker_0, # of connection points: 2
#     Edge 69, Type (0, 0), BuildingBlock: UVAHIK_clean_linker_0, # of connection points: 2
#     Edge 70, Type (0, 0), BuildingBlock: UVAHIK_clean_linker_0, # of connection points: 2
#     Edge 71, Type (0, 0), BuildingBlock: UVAHIK_clean_linker_0, # of connection points: 2
#     Edge 72, Type (0, 0), BuildingBlock: UVAHIK_clean_linker_0, # of connection points: 2
#     Edge 73, Type (0, 0), BuildingBlock: UVAHIK_clean_linker_0, # of connection points: 2
#     Edge 74, Type (0, 0), BuildingBlock: UVAHIK_clean_linker_0, # of connection points: 2
#     Edge 75, Type (0, 0), BuildingBlock: UVAHIK_clean_linker_0, # of connection points: 2
#     Edge 76, Type (0, 0), BuildingBlock: UVAHIK_clean_linker_0, # of connection points: 2
#     Edge 77, Type (0, 0), BuildingBlock: UVAHIK_clean_linker_0, # of connection points: 2
#     Edge 78, Type (0, 0), BuildingBlock: UVAHIK_clean_linker_0, # of connection points: 2
#     Edge 79, Type (0, 0), BuildingBlock: UVAHIK_clean_linker_0, # of connection points: 2
#     Edge 80, Type (0, 0), BuildingBlock: UVAHIK_clean_linker_0, # of connection points: 2
#     Edge 81, Type (0, 0), BuildingBlock: UVAHIK_clean_linker_0, # of connection points: 2
#     Edge 82, Type (0, 0), BuildingBlock: UVAHIK_clean_linker_0, # of connection points: 2
#     Edge 83, Type (0, 0), BuildingBlock: UVAHIK_clean_linker_0, # of connection points: 2
#     Edge 84, Type (0, 0), BuildingBlock: UVAHIK_clean_linker_0, # of connection points: 2
#     Edge 85, Type (0, 0), BuildingBlock: UVAHIK_clean_linker_0, # of connection points: 2
#     Edge 86, Type (0, 0), BuildingBlock: UVAHIK_clean_linker_0, # of connection points: 2
#     Edge 87, Type (0, 0), BuildingBlock: UVAHIK_clean_linker_0, # of connection points: 2
#     Edge 88, Type (0, 0), BuildingBlock: UVAHIK_clean_linker_0, # of connection points: 2
#     Edge 89, Type (0, 0), BuildingBlock: UVAHIK_clean_linker_0, # of connection points: 2
#     Edge 90, Type (0, 0), BuildingBlock: UVAHIK_clean_linker_0, # of connection points: 2
#     Edge 91, Type (0, 0), BuildingBlock: UVAHIK_clean_linker_0, # of connection points: 2
#     Edge 92, Type (0, 0), BuildingBlock: UVAHIK_clean_linker_0, # of connection points: 2
#     Edge 93, Type (0, 0), BuildingBlock: UVAHIK_clean_linker_0, # of connection points: 2
#     Edge 94, Type (0, 0), BuildingBlock: UVAHIK_clean_linker_0, # of connection points: 2
#     Edge 95, Type (0, 0), BuildingBlock: UVAHIK_clean_linker_0, # of connection points: 2
# Relax obj value: 0.022
# Max RMSD: 0.113
# Mean RMSD: 0.086
data_MOF--net-upd--node1-KOZSID_clean_sbu_0--edge1-UVAHIK_clean_linker_0
_symmetry_space_group_name_H-M    P1
_symmetry_Int_Tables_number       1
_symmetry_cell_setting            triclinic
loop_
_symmetry_equiv_pos_as_xyz
'x, y, z'
_cell_length_a     59.144179
_cell_length_b     51.485152
_cell_length_c     130.85225
_cell_angle_alpha  89.991363
_cell_angle_beta   90.001075
_cell_angle_gamma 90.000632
loop_
_atom_site_label
_atom_site_type_symbol
_atom_site_fract_x
_atom_site_fract_y
_atom_site_fract_z
_atom_type_partial_charge
C0 C 0.10656 0.12345 0.32884 0.0
C1 C 0.0831 0.12227 0.3286 0.0
C2 C 0.07624 0.13802 0.32082 0.0
C3 C 0.09577 0.14798 0.31678 0.0
N4 N 0.11475 0.13912 0.32139 0.0
Co5 Co 0.14675 0.14952 0.31835 0.0
N6 N 0.13642 0.17609 0.30815 0.0
C7 C 0.11484 0.18215 0.30565 0.0
C8 C 0.11307 0.20152 0.29852 0.0
C9 C 0.13482 0.20806 0.29623 0.0
C10 C 0.14864 0.19206 0.30206 0.0
N11 N 0.17876 0.15963 0.3152 0.0
C12 C 0.18696 0.1766 0.30819 0.0
C13 C 0.21044 0.17678 0.3081 0.0
C14 C 0.21732 0.15928 0.31527 0.0
C15 C 0.19778 0.14933 0.31929 0.0
N16 N 0.15695 0.12333 0.32871 0.0
C17 C 0.17846 0.11713 0.33124 0.0
C18 C 0.18004 0.09941 0.33903 0.0
C19 C 0.15823 0.09445 0.34182 0.0
C20 C 0.14464 0.10954 0.33554 0.0
N21 N 0.14819 0.12289 0.30734 0.0
C22 C 0.15132 0.08725 0.29097 0.0
C23 C 0.16753 0.08763 0.29875 0.0
C24 C 0.16568 0.10547 0.30676 0.0
C25 C 0.13335 0.10478 0.29165 0.0
C26 C 0.13204 0.12205 0.29983 0.0
N27 N 0.14534 0.17612 0.32928 0.0
C28 C 0.1617 0.19751 0.344 0.0
C29 C 0.14255 0.21319 0.3451 0.0
C30 C 0.12498 0.21013 0.33806 0.0
C31 C 0.12666 0.1916 0.33034 0.0
C32 C 0.16275 0.17928 0.33608 0.0
H33 H 0.11255 0.19009 0.32534 0.0
H34 H 0.17771 0.16777 0.33567 0.0
H35 H 0.17874 0.10487 0.31233 0.0
H36 H 0.11793 0.13478 0.29981 0.0
C37 C 0.09664 0.16824 0.3097 0.0
C38 C 0.12026 0.11145 0.33682 0.0
C39 C 0.17319 0.19188 0.30116 0.0
C40 C 0.19675 0.12976 0.32668 0.0
H41 H 0.07194 0.11204 0.33375 0.0
H42 H 0.05903 0.14281 0.31874 0.0
H43 H 0.0978 0.20952 0.29522 0.0
H44 H 0.13995 0.22258 0.29071 0.0
H45 H 0.2215 0.18798 0.30321 0.0
H46 H 0.23454 0.15403 0.31718 0.0
H47 H 0.19524 0.09179 0.34253 0.0
H48 H 0.15288 0.08183 0.34798 0.0
H49 H 0.18161 0.07418 0.2987 0.0
H50 H 0.12047 0.10566 0.28578 0.0
H51 H 0.17568 0.19889 0.34931 0.0
H52 H 0.10994 0.22209 0.33844 0.0
C53 C 0.11976 0.83846 0.57793 0.0
C54 C 0.11761 0.81162 0.57823 0.0
C55 C 0.10501 0.80475 0.56993 0.0
C56 C 0.1003 0.82766 0.56504 0.0
N57 N 0.10935 0.84876 0.56965 0.0
Co58 Co 0.10677 0.88586 0.56512 0.0
N59 N 0.08519 0.87623 0.55391 0.0
C60 C 0.0774 0.85217 0.55167 0.0
C61 C 0.0625 0.85161 0.54366 0.0
C62 C 0.06051 0.87683 0.54062 0.0
C63 C 0.07435 0.89141 0.54701 0.0
N64 N 0.10481 0.92286 0.56037 0.0
C65 C 0.0927 0.93351 0.55263 0.0
C66 C 0.09655 0.96004 0.55182 0.0
C67 C 0.11173 0.96634 0.55927 0.0
C68 C 0.11626 0.94344 0.5642 0.0
N69 N 0.12758 0.89553 0.57665 0.0
C70 C 0.13526 0.91957 0.57897 0.0
C71 C 0.14803 0.92044 0.58771 0.0
C72 C 0.1482 0.89555 0.5913 0.0
C73 C 0.13556 0.88088 0.58448 0.0
N74 N 0.13289 0.88071 0.55576 0.0
C75 C 0.16708 0.87783 0.54079 0.0
C76 C 0.16823 0.89605 0.54867 0.0
C77 C 0.15117 0.89706 0.55602 0.0
C78 C 0.14924 0.86009 0.54087 0.0
C79 C 0.13257 0.86176 0.5484 0.0
N80 N 0.08073 0.89118 0.57436 0.0
C81 C 0.06011 0.91808 0.58627 0.0
C82 C 0.04442 0.89829 0.5879 0.0
C83 C 0.04692 0.87507 0.58252 0.0
C84 C 0.06498 0.87201 0.57577 0.0
C85 C 0.0781 0.91409 0.57957 0.0
H86 H 0.06599 0.85391 0.57183 0.0
H87 H 0.08982 0.92968 0.57881 0.0
H88 H 0.15303 0.91161 0.56171 0.0
H89 H 0.11936 0.84785 0.54791 0.0
C90 C 0.08523 0.83033 0.55691 0.0
C91 C 0.13087 0.85335 0.58596 0.0
C92 C 0.07703 0.91947 0.54603 0.0
C93 C 0.1298 0.94097 0.57289 0.0
H94 H 0.12397 0.79846 0.584 0.0
H95 H 0.09918 0.78547 0.56793 0.0
H96 H 0.05431 0.83481 0.54034 0.0
H97 H 0.05021 0.88365 0.53434 0.0
H98 H 0.08895 0.97352 0.54649 0.0
H99 H 0.11831 0.98544 0.56103 0.0
H100 H 0.15588 0.93727 0.59117 0.0
H101 H 0.15637 0.88901 0.59823 0.0
H102 H 0.1821 0.90975 0.54911 0.0
H103 H 0.1476 0.84551 0.53495 0.0
H104 H 0.05892 0.93628 0.59039 0.0
H105 H 0.03498 0.8593 0.58351 0.0
C106 C 0.38787 0.87207 0.8293 0.0
C107 C 0.41136 0.87155 0.82926 0.0
C108 C 0.41769 0.85667 0.82114 0.0
C109 C 0.39782 0.84875 0.81676 0.0
N110 N 0.37913 0.85807 0.82147 0.0
Co111 Co 0.34686 0.84896 0.81831 0.0
N112 N 0.35627 0.82531 0.8069 0.0
C113 C 0.37749 0.82177 0.8033 0.0
C114 C 0.37863 0.80588 0.79493 0.0
C115 C 0.3568 0.79906 0.79296 0.0
C116 C 0.34355 0.81106 0.80035 0.0
N117 N 0.3147 0.83875 0.81558 0.0
C118 C 0.30602 0.82207 0.80861 0.0
C119 C 0.28273 0.81972 0.8096 0.0
C120 C 0.27642 0.8359 0.81734 0.0
C121 C 0.29615 0.84696 0.82069 0.0
N122 N 0.33743 0.87355 0.82939 0.0
C123 C 0.31607 0.88024 0.83195 0.0
C124 C 0.31491 0.89774 0.83983 0.0
C125 C 0.33684 0.9023 0.84253 0.0
C126 C 0.35012 0.88711 0.83615 0.0
N127 N 0.34464 0.87775 0.8082 0.0
C128 C 0.34047 0.9139 0.79207 0.0
C129 C 0.32191 0.90748 0.79818 0.0
C130 C 0.3244 0.88974 0.8062 0.0
C131 C 0.36138 0.90299 0.79456 0.0
C132 C 0.36306 0.88513 0.80254 0.0
N133 N 0.34907 0.82019 0.82831 0.0
C134 C 0.33617 0.79871 0.84367 0.0
C135 C 0.35349 0.78032 0.84292 0.0
C136 C 0.36824 0.78199 0.83461 0.0
C137 C 0.36578 0.8019 0.82747 0.0
C138 C 0.33425 0.8183 0.83633 0.0
H139 H 0.3777 0.80221 0.82137 0.0
H140 H 0.32081 0.83189 0.83735 0.0
H141 H 0.30955 0.88569 0.81052 0.0
H142 H 0.37945 0.87731 0.80382 0.0
C143 C 0.39611 0.83263 0.80824 0.0
C144 C 0.37458 0.88519 0.83716 0.0
C145 C 0.31895 0.80897 0.80064 0.0
C146 C 0.29761 0.86684 0.82792 0.0
H147 H 0.42284 0.88055 0.83463 0.0
H148 H 0.43473 0.85179 0.81881 0.0
H149 H 0.39357 0.79997 0.79075 0.0
H150 H 0.35131 0.78681 0.78672 0.0
H151 H 0.27141 0.80794 0.80504 0.0
H152 H 0.25942 0.83969 0.82002 0.0
H153 H 0.29989 0.9053 0.8435 0.0
H154 H 0.34244 0.91473 0.8487 0.0
H155 H 0.30531 0.91542 0.79663 0.0
H156 H 0.37649 0.90797 0.79031 0.0
H157 H 0.32441 0.79839 0.85002 0.0
H158 H 0.38169 0.76794 0.83358 0.0
C159 C 0.37455 0.15943 0.07777 0.0
C160 C 0.37511 0.18637 0.07819 0.0
C161 C 0.3869 0.1945 0.06982 0.0
C162 C 0.39264 0.17218 0.06474 0.0
N163 N 0.38493 0.15032 0.06928 0.0
Co164 Co 0.38875 0.11379 0.06432 0.0
N165 N 0.40989 0.12524 0.0532 0.0
C166 C 0.41681 0.1498 0.05124 0.0
C167 C 0.43185 0.15161 0.04331 0.0
C168 C 0.43489 0.1267 0.04005 0.0
C169 C 0.42145 0.11105 0.04622 0.0
N170 N 0.3918 0.07735 0.05909 0.0
C171 C 0.40428 0.06783 0.05125 0.0
C172 C 0.40109 0.04128 0.05005 0.0
C173 C 0.38596 0.03381 0.05735 0.0
C174 C 0.38081 0.05609 0.06258 0.0
N175 N 0.36863 0.10229 0.07584 0.0
C176 C 0.36183 0.07774 0.07787 0.0
C177 C 0.35015 0.07534 0.08686 0.0
C178 C 0.34983 0.09972 0.09094 0.0
C179 C 0.36117 0.11574 0.08411 0.0
N180 N 0.36223 0.11855 0.05511 0.0
C181 C 0.3266 0.12229 0.04083 0.0
C182 C 0.32609 0.10379 0.04863 0.0
C183 C 0.34387 0.10232 0.05563 0.0
C184 C 0.34478 0.13955 0.04056 0.0
C185 C 0.36214 0.13745 0.04773 0.0
N186 N 0.41509 0.10894 0.07341 0.0
C187 C 0.43659 0.08228 0.08508 0.0
C188 C 0.45127 0.10287 0.08711 0.0
C189 C 0.44792 0.12633 0.08196 0.0
C190 C 0.42993 0.12888 0.07514 0.0
C191 C 0.41867 0.08574 0.07828 0.0
H192 H 0.42816 0.14724 0.07143 0.0
H193 H 0.4077 0.06953 0.0772 0.0
H194 H 0.3424 0.08762 0.06129 0.0
H195 H 0.37546 0.15111 0.04696 0.0
C196 C 0.40787 0.17088 0.05661 0.0
C197 C 0.36532 0.14333 0.08594 0.0
C198 C 0.41975 0.08298 0.04493 0.0
C199 C 0.36751 0.05723 0.07139 0.0
H200 H 0.36837 0.1988 0.08413 0.0
H201 H 0.39166 0.21423 0.06794 0.0
H202 H 0.43945 0.169 0.04018 0.0
H203 H 0.44558 0.12078 0.03376 0.0
H204 H 0.40913 0.02853 0.04457 0.0
H205 H 0.37992 0.01433 0.05885 0.0
H206 H 0.34331 0.05779 0.09021 0.0
H207 H 0.34253 0.10486 0.09824 0.0
H208 H 0.3121 0.09033 0.04932 0.0
H209 H 0.34607 0.15419 0.03464 0.0
H210 H 0.43845 0.06383 0.08897 0.0
H211 H 0.45908 0.1427 0.08322 0.0
C212 C 0.11028 0.87098 0.16754 0.0
C213 C 0.08688 0.87274 0.16764 0.0
C214 C 0.07963 0.85847 0.17579 0.0
C215 C 0.09897 0.84897 0.18019 0.0
N216 N 0.11816 0.85677 0.17547 0.0
Co217 Co 0.15001 0.84715 0.17905 0.0
N218 N 0.13933 0.82281 0.19003 0.0
C219 C 0.11765 0.81779 0.19272 0.0
C220 C 0.11562 0.80058 0.20065 0.0
C221 C 0.13726 0.79431 0.20323 0.0
C222 C 0.15134 0.80806 0.19666 0.0
N223 N 0.1819 0.83767 0.18266 0.0
C224 C 0.18984 0.82164 0.19004 0.0
C225 C 0.2133 0.82059 0.19003 0.0
C226 C 0.22045 0.8369 0.18247 0.0
C227 C 0.20105 0.84685 0.1783 0.0
N228 N 0.16056 0.87124 0.16795 0.0
C229 C 0.18216 0.87697 0.1654 0.0
C230 C 0.18401 0.89281 0.15703 0.0
C231 C 0.16231 0.89703 0.15389 0.0
C232 C 0.14847 0.88353 0.1606 0.0
N233 N 0.15118 0.876 0.18917 0.0
C234 C 0.15379 0.91503 0.2043 0.0
C235 C 0.17069 0.9124 0.19691 0.0
C236 C 0.16907 0.89293 0.1895 0.0
C237 C 0.13544 0.898 0.20388 0.0
C238 C 0.13442 0.87899 0.1963 0.0
N239 N 0.1489 0.81834 0.16901 0.0
C240 C 0.16577 0.79406 0.15515 0.0
C241 C 0.14719 0.77736 0.15478 0.0
C242 C 0.12944 0.78158 0.16162 0.0
C243 C 0.13057 0.8021 0.16856 0.0
C244 C 0.16633 0.8142 0.1623 0.0
H245 H 0.11635 0.80456 0.17346 0.0
H246 H 0.181 0.8262 0.16226 0.0
H247 H 0.18261 0.89189 0.18418 0.0
H248 H 0.12 0.86677 0.19651 0.0
C249 C 0.09958 0.83057 0.18803 0.0
C250 C 0.12413 0.88119 0.15928 0.0
C251 C 0.17594 0.80753 0.19739 0.0
C252 C 0.2003 0.86505 0.17039 0.0
H253 H 0.07617 0.88249 0.16213 0.0
H254 H 0.06232 0.85451 0.17796 0.0
H255 H 0.10024 0.79387 0.20427 0.0
H256 H 0.14207 0.78149 0.2094 0.0
H257 H 0.22412 0.80938 0.19503 0.0
H258 H 0.23774 0.84118 0.18034 0.0
H259 H 0.19934 0.8995 0.15335 0.0
H260 H 0.15733 0.90804 0.14722 0.0
H261 H 0.18512 0.92535 0.1968 0.0
H262 H 0.12201 0.89887 0.2095 0.0
H263 H 0.17997 0.79143 0.15002 0.0
H264 H 0.11453 0.76936 0.1615 0.0
C265 C 0.37653 0.84174 0.42203 0.0
C266 C 0.37696 0.81476 0.42194 0.0
C267 C 0.38811 0.80722 0.43057 0.0
C268 C 0.39361 0.82988 0.43546 0.0
N269 N 0.38636 0.85145 0.43055 0.0
Co270 Co 0.38984 0.88833 0.43516 0.0
N271 N 0.40957 0.87754 0.4469 0.0
C272 C 0.41608 0.85309 0.44932 0.0
C273 C 0.43017 0.85178 0.4576 0.0
C274 C 0.43305 0.87691 0.46062 0.0
C275 C 0.42049 0.89217 0.45395 0.0
N276 N 0.3926 0.92514 0.44003 0.0
C277 C 0.40439 0.93517 0.44799 0.0
C278 C 0.40139 0.96184 0.44878 0.0
C279 C 0.38713 0.96889 0.44106 0.0
C280 C 0.38226 0.94625 0.43602 0.0
N281 N 0.37105 0.89912 0.42309 0.0
C282 C 0.36468 0.92356 0.42062 0.0
C283 C 0.35375 0.92531 0.41141 0.0
C284 C 0.35345 0.90057 0.40768 0.0
C285 C 0.36406 0.88504 0.41491 0.0
N286 N 0.36229 0.88444 0.44378 0.0
C287 C 0.32504 0.88162 0.4572 0.0
C288 C 0.32582 0.90023 0.44945 0.0
C289 C 0.34438 0.90121 0.44286 0.0
C290 C 0.34279 0.86385 0.45787 0.0
C291 C 0.36099 0.86554 0.45113 0.0
N292 N 0.41723 0.89231 0.42666 0.0
C293 C 0.44037 0.91807 0.41532 0.0
C294 C 0.4553 0.89736 0.41398 0.0
C295 C 0.45116 0.87428 0.41926 0.0
C296 C 0.43223 0.87223 0.42557 0.0
C297 C 0.42151 0.91511 0.42161 0.0
H298 H 0.42991 0.85416 0.42943 0.0
H299 H 0.41043 0.93139 0.42216 0.0
H300 H 0.34389 0.91596 0.43719 0.0
H301 H 0.37394 0.85155 0.45221 0.0
C302 C 0.40784 0.83168 0.44393 0.0
C303 C 0.36791 0.85723 0.41354 0.0
C304 C 0.41916 0.92038 0.45476 0.0
C305 C 0.36992 0.94456 0.42694 0.0
H306 H 0.37051 0.8019 0.41609 0.0
H307 H 0.3925 0.7876 0.43279 0.0
H308 H 0.43733 0.83458 0.4611 0.0
H309 H 0.44313 0.88324 0.46705 0.0
H310 H 0.40903 0.97493 0.45425 0.0
H311 H 0.3815 0.98832 0.43918 0.0
H312 H 0.34733 0.94262 0.40773 0.0
H313 H 0.34661 0.89483 0.40036 0.0
H314 H 0.31223 0.91412 0.44848 0.0
H315 H 0.34308 0.84915 0.46379 0.0
H316 H 0.44281 0.93622 0.41127 0.0
H317 H 0.46244 0.85781 0.4185 0.0
C318 C 0.38603 0.13155 0.66937 0.0
C319 C 0.40946 0.13325 0.66991 0.0
C320 C 0.41439 0.14754 0.67839 0.0
C321 C 0.39383 0.15401 0.68246 0.0
N322 N 0.37601 0.14431 0.67722 0.0
Co323 Co 0.34316 0.15177 0.67977 0.0
N324 N 0.35053 0.17516 0.69155 0.0
C325 C 0.37115 0.17901 0.69574 0.0
C326 C 0.37088 0.19465 0.7042 0.0
C327 C 0.34873 0.20105 0.70556 0.0
C328 C 0.33671 0.18908 0.69774 0.0
N329 N 0.31042 0.16049 0.68186 0.0
C330 C 0.30051 0.17708 0.68853 0.0
C331 C 0.2773 0.17849 0.68701 0.0
C332 C 0.27232 0.16183 0.67922 0.0
C333 C 0.2927 0.15148 0.67636 0.0
N334 N 0.33576 0.1274 0.66833 0.0
C335 C 0.31495 0.11958 0.66537 0.0
C336 C 0.31523 0.10242 0.65736 0.0
C337 C 0.33754 0.09932 0.65499 0.0
C338 C 0.34959 0.11498 0.66168 0.0
N339 N 0.34088 0.12226 0.68959 0.0
C340 C 0.33675 0.08373 0.70481 0.0
C341 C 0.31823 0.09086 0.69884 0.0
C342 C 0.32071 0.10975 0.69125 0.0
C343 C 0.35753 0.09548 0.70282 0.0
C344 C 0.35919 0.11456 0.69528 0.0
N345 N 0.34539 0.18114 0.67008 0.0
C346 C 0.33285 0.20316 0.65479 0.0
C347 C 0.34934 0.22235 0.65604 0.0
C348 C 0.36365 0.22065 0.66452 0.0
C349 C 0.3614 0.20006 0.67138 0.0
C350 C 0.33116 0.18289 0.66184 0.0
H351 H 0.37286 0.19976 0.67768 0.0
H352 H 0.31836 0.1687 0.66045 0.0
H353 H 0.30592 0.11398 0.68694 0.0
H354 H 0.37547 0.12298 0.69436 0.0
C355 C 0.39062 0.16924 0.69114 0.0
C356 C 0.37401 0.11846 0.66109 0.0
C357 C 0.31221 0.19118 0.69663 0.0
C358 C 0.29562 0.13185 0.66912 0.0
H359 H 0.42181 0.12545 0.66465 0.0
H360 H 0.43098 0.15303 0.68114 0.0
H361 H 0.38513 0.20085 0.70879 0.0
H362 H 0.34222 0.21312 0.71165 0.0
H363 H 0.26516 0.19005 0.6912 0.0
H364 H 0.25578 0.15744 0.67613 0.0
H365 H 0.30088 0.09419 0.65337 0.0
H366 H 0.34419 0.08753 0.64883 0.0
H367 H 0.30187 0.08187 0.70001 0.0
H368 H 0.37236 0.09055 0.70728 0.0
H369 H 0.32153 0.20345 0.64828 0.0
H370 H 0.37648 0.23524 0.66592 0.0
C371 C 0.12467 0.15633 0.91838 0.0
C372 C 0.12176 0.18298 0.91729 0.0
C373 C 0.10875 0.19099 0.92527 0.0
C374 C 0.10427 0.16892 0.93074 0.0
N375 N 0.11368 0.1472 0.92675 0.0
Co376 Co 0.11047 0.11077 0.93206 0.0
N377 N 0.08917 0.12234 0.94311 0.0
C378 C 0.08186 0.14683 0.9449 0.0
C379 C 0.06728 0.14885 0.95299 0.0
C380 C 0.06499 0.12414 0.95658 0.0
C381 C 0.07833 0.1084 0.95041 0.0
N382 N 0.1077 0.07444 0.93752 0.0
C383 C 0.09545 0.06509 0.94548 0.0
C384 C 0.09851 0.03854 0.94671 0.0
C385 C 0.11334 0.03085 0.93933 0.0
C386 C 0.11843 0.05301 0.93401 0.0
N387 N 0.13121 0.09912 0.92079 0.0
C388 C 0.13845 0.07462 0.91898 0.0
C389 C 0.15209 0.07243 0.91056 0.0
C390 C 0.15344 0.09693 0.90666 0.0
C391 C 0.1404 0.11272 0.91293 0.0
N392 N 0.13667 0.11652 0.94131 0.0
C393 C 0.17092 0.12106 0.95619 0.0
C394 C 0.1713 0.101 0.94901 0.0
C395 C 0.15421 0.09916 0.94169 0.0
C396 C 0.15382 0.13966 0.95541 0.0
C397 C 0.13712 0.13714 0.94793 0.0
N398 N 0.08429 0.10487 0.92291 0.0
C399 C 0.06351 0.07736 0.91125 0.0
C400 C 0.04783 0.09708 0.90948 0.0
C401 C 0.05037 0.12053 0.91469 0.0
C402 C 0.06849 0.12392 0.92138 0.0
C403 C 0.08156 0.08168 0.91791 0.0
H404 H 0.06945 0.1422 0.92516 0.0
H405 H 0.09324 0.06611 0.91878 0.0
H406 H 0.15541 0.08323 0.93656 0.0
H407 H 0.1245 0.15182 0.94784 0.0
C408 C 0.08952 0.16765 0.93903 0.0
C409 C 0.13726 0.14045 0.91106 0.0
C410 C 0.08038 0.08042 0.95192 0.0
C411 C 0.13223 0.05408 0.92536 0.0
H412 H 0.12786 0.19541 0.91122 0.0
H413 H 0.1026 0.21045 0.92672 0.0
H414 H 0.0594 0.16624 0.95597 0.0
H415 H 0.05477 0.11843 0.96306 0.0
H416 H 0.09067 0.02595 0.9523 0.0
H417 H 0.11941 0.01135 0.9379 0.0
H418 H 0.16003 0.05505 0.90759 0.0
H419 H 0.16289 0.10253 0.89993 0.0
H420 H 0.18458 0.08652 0.94909 0.0
H421 H 0.15276 0.15564 0.96077 0.0
H422 H 0.06226 0.05894 0.90728 0.0
H423 H 0.03842 0.13625 0.91361 0.0
C424 C 0.84422 0.80567 0.68075 0.0
C425 C 0.86162 0.78758 0.68125 0.0
C426 C 0.87452 0.79405 0.6895 0.0
C427 C 0.86447 0.81575 0.69349 0.0
N428 N 0.84572 0.8234 0.68838 0.0
Co429 Co 0.82743 0.85558 0.69099 0.0
N430 N 0.84631 0.86484 0.70321 0.0
C431 C 0.86335 0.85067 0.70728 0.0
C432 C 0.87233 0.86116 0.716 0.0
C433 C 0.86013 0.88322 0.7177 0.0
C434 C 0.84444 0.88496 0.70983 0.0
N435 N 0.81004 0.88854 0.69321 0.0
C436 C 0.81236 0.90711 0.70047 0.0
C437 C 0.79717 0.92735 0.69904 0.0
C438 C 0.78465 0.92121 0.69062 0.0
C439 C 0.79296 0.89777 0.68738 0.0
N440 N 0.80769 0.84548 0.67919 0.0
C441 C 0.78907 0.85813 0.67585 0.0
C442 C 0.77848 0.84613 0.66783 0.0
C443 C 0.79114 0.82455 0.66588 0.0
C444 C 0.80892 0.82479 0.67281 0.0
N445 N 0.80685 0.83639 0.70026 0.0
C446 C 0.77877 0.81088 0.71439 0.0
C447 C 0.77034 0.83093 0.7083 0.0
C448 C 0.78452 0.84316 0.70124 0.0
C449 C 0.80125 0.80342 0.71313 0.0
C450 C 0.81489 0.81636 0.70612 0.0
N451 N 0.84813 0.87461 0.68172 0.0
C452 C 0.85555 0.89455 0.66532 0.0
C453 C 0.87883 0.89318 0.66706 0.0
C454 C 0.88631 0.88459 0.67659 0.0
C455 C 0.87084 0.8755 0.68374 0.0
C456 C 0.84055 0.88542 0.67277 0.0
H457 H 0.87784 0.86848 0.6907 0.0
H458 H 0.82297 0.88648 0.67098 0.0
H459 H 0.77711 0.85821 0.69674 0.0
H460 H 0.83198 0.81005 0.70575 0.0
C461 C 0.87152 0.82861 0.70232 0.0
C462 C 0.827 0.80553 0.67276 0.0
C463 C 0.82807 0.906 0.70903 0.0
C464 C 0.78347 0.88259 0.67967 0.0
H465 H 0.8648 0.77145 0.67615 0.0
H466 H 0.88945 0.78412 0.69226 0.0
H467 H 0.88624 0.85378 0.72053 0.0
H468 H 0.86253 0.89655 0.724 0.0
H469 H 0.79506 0.94449 0.70373 0.0
H470 H 0.77068 0.93212 0.68745 0.0
H471 H 0.76372 0.85272 0.66367 0.0
H472 H 0.78795 0.81052 0.6599 0.0
H473 H 0.7529 0.83714 0.70899 0.0
H474 H 0.80855 0.78814 0.71778 0.0
H475 H 0.84896 0.90143 0.65809 0.0
H476 H 0.90417 0.88406 0.67841 0.0
C477 C 0.8881 0.07352 0.42682 0.0
C478 C 0.879 0.05836 0.41907 0.0
C479 C 0.88262 0.03309 0.42176 0.0
C480 C 0.89384 0.03426 0.43091 0.0
N481 N 0.89719 0.05873 0.43435 0.0
Co482 Co 0.91513 0.06943 0.44669 0.0
N483 N 0.92275 0.03243 0.45002 0.0
C484 C 0.91502 0.01094 0.44521 0.0
C485 C 0.92264 0.98817 0.4494 0.0
C486 C 0.93595 0.99553 0.45741 0.0
C487 C 0.93568 0.02248 0.45763 0.0
N488 N 0.93403 0.08038 0.45867 0.0
C489 C 0.94678 0.06598 0.46515 0.0
C490 C 0.95794 0.08143 0.47224 0.0
C491 C 0.95206 0.10649 0.47016 0.0
C492 C 0.93776 0.10494 0.46195 0.0
N493 N 0.90671 0.1063 0.44363 0.0
C494 C 0.91143 0.1275 0.44935 0.0
C495 C 0.90314 0.15017 0.44533 0.0
C496 C 0.89279 0.14307 0.43644 0.0
C497 C 0.89555 0.1164 0.43553 0.0
N498 N 0.88789 0.06645 0.45557 0.0
C499 C 0.84962 0.06181 0.46833 0.0
C500 C 0.8659 0.0809 0.4701 0.0
C501 C 0.88467 0.08289 0.46368 0.0
C502 C 0.85275 0.04513 0.46004 0.0
C503 C 0.87183 0.04772 0.45384 0.0
N504 N 0.94215 0.07239 0.43786 0.0
C505 C 0.972 0.09836 0.4305 0.0
C506 C 0.97865 0.07771 0.42427 0.0
C507 C 0.96717 0.05414 0.42516 0.0
C508 C 0.94902 0.05194 0.43192 0.0
C509 C 0.95398 0.09523 0.43727 0.0
H510 H 0.94054 0.03368 0.43207 0.0
H511 H 0.94968 0.11163 0.44186 0.0
H512 H 0.89627 0.09795 0.46549 0.0
H513 H 0.87318 0.03421 0.44774 0.0
C514 C 0.90208 0.01285 0.43631 0.0
C515 C 0.88871 0.10183 0.4265 0.0
C516 C 0.94824 0.03772 0.46511 0.0
C517 C 0.92642 0.12597 0.45756 0.0
H518 H 0.87101 0.06484 0.41208 0.0
H519 H 0.87818 0.01594 0.41742 0.0
H520 H 0.91928 0.96858 0.44682 0.0
H521 H 0.94501 0.98254 0.46247 0.0
H522 H 0.96896 0.0752 0.47837 0.0
H523 H 0.95728 0.12374 0.47425 0.0
H524 H 0.90535 0.16968 0.44825 0.0
H525 H 0.88484 0.15614 0.43104 0.0
H526 H 0.86406 0.09455 0.47634 0.0
H527 H 0.84068 0.02984 0.45842 0.0
H528 H 0.98065 0.11689 0.43013 0.0
H529 H 0.97168 0.03769 0.42041 0.0
C530 C 0.65152 0.19631 0.1814 0.0
C531 C 0.63522 0.2155 0.18258 0.0
C532 C 0.62266 0.20884 0.19091 0.0
C533 C 0.63202 0.18615 0.19436 0.0
N534 N 0.6501 0.17811 0.18886 0.0
Co535 Co 0.66815 0.14552 0.19103 0.0
N536 N 0.64961 0.13577 0.2033 0.0
C537 C 0.63245 0.14957 0.20747 0.0
C538 C 0.62319 0.1383 0.21597 0.0
C539 C 0.6354 0.11617 0.21746 0.0
C540 C 0.65158 0.11531 0.20976 0.0
N541 N 0.68547 0.11233 0.19291 0.0
C542 C 0.68386 0.09384 0.20026 0.0
C543 C 0.69961 0.07416 0.19879 0.0
C544 C 0.71145 0.08035 0.19019 0.0
C545 C 0.70243 0.10339 0.18693 0.0
N546 N 0.68736 0.15596 0.17906 0.0
C547 C 0.70548 0.14303 0.17534 0.0
C548 C 0.71508 0.15452 0.16697 0.0
C549 C 0.7023 0.17607 0.16518 0.0
C550 C 0.68559 0.17656 0.17264 0.0
N551 N 0.68932 0.16405 0.20025 0.0
C552 C 0.71857 0.18923 0.21399 0.0
C553 C 0.72667 0.16998 0.20744 0.0
C554 C 0.71188 0.15791 0.20058 0.0
C555 C 0.69577 0.19589 0.21348 0.0
C556 C 0.68156 0.18309 0.20667 0.0
N557 N 0.6469 0.12719 0.18178 0.0
C558 C 0.63908 0.1069 0.16548 0.0
C559 C 0.61584 0.10961 0.16705 0.0
C560 C 0.60847 0.1191 0.17647 0.0
C561 C 0.62412 0.12767 0.18365 0.0
C562 C 0.65424 0.11556 0.17295 0.0
H563 H 0.61725 0.13541 0.19051 0.0
H564 H 0.67178 0.11346 0.17126 0.0
H565 H 0.71906 0.14356 0.19569 0.0
H566 H 0.66429 0.18875 0.20686 0.0
C567 C 0.62476 0.17246 0.20295 0.0
C568 C 0.66764 0.19604 0.17295 0.0
C569 C 0.6686 0.09484 0.20904 0.0
C570 C 0.71133 0.1186 0.1791 0.0
H571 H 0.63257 0.23251 0.17786 0.0
H572 H 0.60841 0.21929 0.19407 0.0
H573 H 0.60916 0.14527 0.22052 0.0
H574 H 0.6327 0.10228 0.22354 0.0
H575 H 0.70278 0.05743 0.20358 0.0
H576 H 0.72561 0.06987 0.18696 0.0
H577 H 0.7291 0.14747 0.16243 0.0
H578 H 0.70467 0.18937 0.15887 0.0
H579 H 0.74432 0.16437 0.20757 0.0
H580 H 0.68873 0.21049 0.21853 0.0
H581 H 0.6456 0.09931 0.15834 0.0
H582 H 0.59061 0.12069 0.17819 0.0
C583 C 0.61109 0.93194 0.92582 0.0
C584 C 0.62116 0.9471 0.91832 0.0
C585 C 0.61837 0.97235 0.92123 0.0
C586 C 0.60664 0.97117 0.93025 0.0
N587 N 0.60215 0.94668 0.9334 0.0
Co588 Co 0.58323 0.93616 0.94546 0.0
N589 N 0.57743 0.97331 0.94926 0.0
C590 C 0.58646 0.99463 0.9448 0.0
C591 C 0.57991 0.0175 0.94927 0.0
C592 C 0.56594 0.01039 0.95708 0.0
C593 C 0.56477 0.98346 0.95692 0.0
N594 N 0.56328 0.92551 0.95713 0.0
C595 C 0.551 0.94018 0.96369 0.0
C596 C 0.53875 0.9249 0.97047 0.0
C597 C 0.5434 0.89968 0.96808 0.0
C598 C 0.55811 0.90097 0.96001 0.0
N599 N 0.58995 0.89907 0.94199 0.0
C600 C 0.5839 0.87777 0.94739 0.0
C601 C 0.59148 0.85494 0.94324 0.0
C602 C 0.60282 0.86205 0.93461 0.0
C603 C 0.60132 0.88891 0.93396 0.0
N604 N 0.61021 0.93652 0.95456 0.0
C605 C 0.6485 0.93727 0.96744 0.0
C606 C 0.63107 0.9194 0.96899 0.0
C607 C 0.61228 0.91935 0.96252 0.0
C608 C 0.64641 0.95477 0.95935 0.0
C609 C 0.62733 0.95409 0.95309 0.0
N610 N 0.55647 0.93581 0.93638 0.0
C611 C 0.52621 0.91242 0.92805 0.0
C612 C 0.52079 0.93416 0.92212 0.0
C613 C 0.53301 0.95703 0.92379 0.0
C614 C 0.55068 0.95738 0.93084 0.0
C615 C 0.54383 0.91374 0.93515 0.0
H616 H 0.55965 0.97524 0.93156 0.0
H617 H 0.54723 0.8965 0.93943 0.0
H618 H 0.59967 0.90524 0.96417 0.0
H619 H 0.62695 0.96801 0.9471 0.0
C620 C 0.59941 0.99262 0.93591 0.0
C621 C 0.6096 0.9037 0.92524 0.0
C622 C 0.55099 0.96848 0.96404 0.0
C623 C 0.56859 0.87962 0.95546 0.0
H624 H 0.62933 0.94065 0.91137 0.0
H625 H 0.62383 0.98954 0.91716 0.0
H626 H 0.58435 0.03705 0.94697 0.0
H627 H 0.55734 0.02354 0.96223 0.0
H628 H 0.52784 0.93131 0.97661 0.0
H629 H 0.53713 0.88246 0.97189 0.0
H630 H 0.58825 0.83539 0.94591 0.0
H631 H 0.61066 0.84891 0.92921 0.0
H632 H 0.63173 0.90563 0.97524 0.0
H633 H 0.6596 0.96878 0.95773 0.0
H634 H 0.51741 0.89416 0.92705 0.0
H635 H 0.52914 0.97463 0.91961 0.0
C636 C 0.84349 0.19462 0.81868 0.0
C637 C 0.86077 0.21286 0.81821 0.0
C638 C 0.87378 0.20651 0.80998 0.0
C639 C 0.8639 0.18473 0.80596 0.0
N640 N 0.84517 0.17691 0.81104 0.0
Co641 Co 0.82706 0.14463 0.80836 0.0
N642 N 0.84595 0.13571 0.79611 0.0
C643 C 0.86292 0.15006 0.79208 0.0
C644 C 0.87191 0.13981 0.78331 0.0
C645 C 0.85979 0.11772 0.78155 0.0
C646 C 0.84415 0.11571 0.78943 0.0
N647 N 0.80985 0.11158 0.80608 0.0
C648 C 0.81222 0.09317 0.79876 0.0
C649 C 0.79718 0.07278 0.80016 0.0
C650 C 0.78469 0.07866 0.80861 0.0
C651 C 0.79288 0.10211 0.81191 0.0
N652 N 0.80728 0.15441 0.8202 0.0
C653 C 0.78878 0.14152 0.82353 0.0
C654 C 0.7781 0.15335 0.83158 0.0
C655 C 0.79056 0.17509 0.83352 0.0
C656 C 0.80832 0.17511 0.82658 0.0
N657 N 0.80636 0.16381 0.79915 0.0
C658 C 0.77818 0.18912 0.785 0.0
C659 C 0.76984 0.169 0.79108 0.0
C660 C 0.78407 0.15687 0.79816 0.0
C661 C 0.80061 0.19678 0.78629 0.0
C662 C 0.81429 0.18393 0.79331 0.0
N663 N 0.8479 0.12561 0.81758 0.0
C664 C 0.85554 0.10522 0.83388 0.0
C665 C 0.87879 0.10649 0.83207 0.0
C666 C 0.88614 0.11537 0.82256 0.0
C667 C 0.87058 0.12475 0.8155 0.0
C668 C 0.84044 0.11464 0.82653 0.0
H669 H 0.87751 0.13194 0.80856 0.0
H670 H 0.82289 0.11359 0.82838 0.0
H671 H 0.77674 0.14176 0.80264 0.0
H672 H 0.83135 0.19039 0.79371 0.0
C673 C 0.871 0.17207 0.7971 0.0
C674 C 0.82616 0.19466 0.82662 0.0
C675 C 0.82788 0.09455 0.79018 0.0
C676 C 0.78334 0.11707 0.81967 0.0
H677 H 0.86379 0.22903 0.82331 0.0
H678 H 0.88864 0.21661 0.80723 0.0
H679 H 0.88575 0.14737 0.77879 0.0
H680 H 0.86222 0.10456 0.7752 0.0
H681 H 0.79514 0.05569 0.79543 0.0
H682 H 0.77081 0.06757 0.81178 0.0
H683 H 0.7634 0.14657 0.83572 0.0
H684 H 0.78723 0.18906 0.83952 0.0
H685 H 0.75244 0.16266 0.79038 0.0
H686 H 0.80784 0.21212 0.78166 0.0
H687 H 0.84905 0.09814 0.84111 0.0
H688 H 0.90397 0.11585 0.82067 0.0
C689 C 0.61184 0.07318 0.57296 0.0
C690 C 0.6213 0.05851 0.58076 0.0
C691 C 0.61806 0.03307 0.57821 0.0
C692 C 0.6067 0.03369 0.56908 0.0
N693 N 0.60295 0.05797 0.56551 0.0
Co694 Co 0.5846 0.06797 0.55321 0.0
N695 N 0.57733 0.03075 0.55013 0.0
C696 C 0.58552 0.00955 0.55499 0.0
C697 C 0.57804 0.98653 0.55096 0.0
C698 C 0.56434 0.99341 0.54302 0.0
C699 C 0.56425 0.02036 0.54267 0.0
N700 N 0.56521 0.07824 0.54131 0.0
C701 C 0.55234 0.06345 0.53503 0.0
C702 C 0.54079 0.07851 0.52793 0.0
C703 C 0.54651 0.10372 0.52982 0.0
C704 C 0.56112 0.10264 0.53793 0.0
N705 N 0.59274 0.10503 0.55599 0.0
C706 C 0.58777 0.12594 0.55016 0.0
C707 C 0.59597 0.14885 0.55401 0.0
C708 C 0.60649 0.1422 0.56291 0.0
C709 C 0.60393 0.11554 0.564 0.0
N710 N 0.61164 0.06511 0.54421 0.0
C711 C 0.65044 0.0618 0.5317 0.0
C712 C 0.63354 0.08004 0.52972 0.0
C713 C 0.61448 0.08132 0.53599 0.0
C714 C 0.64745 0.04499 0.53996 0.0
C715 C 0.62812 0.04694 0.54604 0.0
N716 N 0.55781 0.07086 0.56221 0.0
C717 C 0.52851 0.09697 0.56995 0.0
C718 C 0.52223 0.07636 0.57627 0.0
C719 C 0.53349 0.0527 0.57521 0.0
C720 C 0.55121 0.05042 0.56822 0.0
C721 C 0.54605 0.09373 0.56292 0.0
H722 H 0.55965 0.03213 0.56797 0.0
H723 H 0.55009 0.1101 0.55825 0.0
H724 H 0.60236 0.09566 0.53399 0.0
H725 H 0.62706 0.03357 0.5522 0.0
C726 C 0.59864 0.01196 0.56382 0.0
C727 C 0.61065 0.10144 0.57315 0.0
C728 C 0.55115 0.03518 0.53524 0.0
C729 C 0.57248 0.12396 0.54208 0.0
H730 H 0.62927 0.06544 0.58768 0.0
H731 H 0.62282 0.01615 0.58262 0.0
H732 H 0.58171 0.96708 0.55362 0.0
H733 H 0.55522 0.98012 0.53811 0.0
H734 H 0.52962 0.07194 0.52191 0.0
H735 H 0.541 0.12075 0.52566 0.0
H736 H 0.5935 0.16823 0.551 0.0
H737 H 0.61434 0.15555 0.56823 0.0
H738 H 0.63486 0.09322 0.52329 0.0
H739 H 0.66016 0.03064 0.54187 0.0
H740 H 0.51999 0.11555 0.57045 0.0
H741 H 0.52921 0.03627 0.58001 0.0
C742 C 0.65109 0.80732 0.31855 0.0
C743 C 0.63316 0.78996 0.318 0.0
C744 C 0.61997 0.79776 0.31003 0.0
C745 C 0.63044 0.81943 0.30623 0.0
N746 N 0.64978 0.82575 0.31116 0.0
Co747 Co 0.669 0.85735 0.30877 0.0
N748 N 0.64948 0.86886 0.29707 0.0
C749 C 0.63131 0.85623 0.29321 0.0
C750 C 0.62164 0.86841 0.285 0.0
C751 C 0.63464 0.88987 0.28337 0.0
C752 C 0.65165 0.88948 0.2907 0.0
N753 N 0.68744 0.88966 0.30678 0.0
C754 C 0.68572 0.90872 0.29966 0.0
C755 C 0.70236 0.92748 0.30095 0.0
C756 C 0.71493 0.92008 0.30919 0.0
C757 C 0.70541 0.89728 0.31243 0.0
N758 N 0.68926 0.84502 0.32007 0.0
C759 C 0.70857 0.85637 0.32331 0.0
C760 C 0.71907 0.84326 0.33109 0.0
C761 C 0.70555 0.82234 0.33299 0.0
C762 C 0.68745 0.82406 0.32628 0.0
N763 N 0.68805 0.83825 0.29884 0.0
C764 C 0.71408 0.81285 0.2839 0.0
C765 C 0.72381 0.83148 0.29027 0.0
C766 C 0.71063 0.84368 0.29773 0.0
C767 C 0.69131 0.80677 0.28524 0.0
C768 C 0.6787 0.81967 0.29265 0.0
N769 N 0.64981 0.87623 0.31874 0.0
C770 C 0.64451 0.89381 0.33572 0.0
C771 C 0.62106 0.89293 0.3345 0.0
C772 C 0.61242 0.88611 0.32496 0.0
C773 C 0.62695 0.87799 0.31725 0.0
C774 C 0.65854 0.88563 0.32773 0.0
H775 H 0.61908 0.8723 0.3103 0.0
H776 H 0.67632 0.88615 0.32913 0.0
H777 H 0.71902 0.85758 0.30243 0.0
H778 H 0.66132 0.81451 0.29308 0.0
C779 C 0.62292 0.83385 0.29787 0.0
C780 C 0.66843 0.8061 0.32646 0.0
C781 C 0.66952 0.90901 0.29122 0.0
C782 C 0.71483 0.88086 0.31976 0.0
H783 H 0.62976 0.77355 0.32293 0.0
H784 H 0.60447 0.78884 0.30737 0.0
H785 H 0.60679 0.86251 0.28076 0.0
H786 H 0.63187 0.90421 0.27745 0.0
H787 H 0.70565 0.94434 0.29626 0.0
H788 H 0.7299 0.92955 0.31215 0.0
H789 H 0.73426 0.84879 0.33516 0.0
H790 H 0.70834 0.80784 0.33885 0.0
H791 H 0.74151 0.83657 0.28953 0.0
H792 H 0.68303 0.79262 0.28038 0.0
H793 H 0.65196 0.89946 0.34295 0.0
H794 H 0.59436 0.88609 0.32355 0.0
C795 C 0.88972 0.92185 0.07 0.0
C796 C 0.8797 0.93569 0.0779 0.0
C797 C 0.88243 0.96138 0.07566 0.0
C798 C 0.89405 0.96179 0.0666 0.0
N799 N 0.8986 0.93789 0.06281 0.0
Co800 Co 0.91687 0.92947 0.05029 0.0
N801 N 0.92341 0.96716 0.04772 0.0
C802 C 0.91562 0.98768 0.05313 0.0
C803 C 0.92291 0.01122 0.04951 0.0
C804 C 0.93617 0.00543 0.04129 0.0
C805 C 0.93617 0.97857 0.04037 0.0
N806 N 0.93549 0.9209 0.03791 0.0
C807 C 0.94745 0.93666 0.03162 0.0
C808 C 0.95834 0.92271 0.02398 0.0
C809 C 0.95317 0.89721 0.02552 0.0
C810 C 0.93948 0.89702 0.03396 0.0
N811 N 0.91015 0.89183 0.05279 0.0
C812 C 0.91607 0.87145 0.04683 0.0
C813 C 0.90905 0.84792 0.05055 0.0
C814 C 0.89829 0.85353 0.0595 0.0
C815 C 0.89954 0.88027 0.06075 0.0
N816 N 0.88925 0.93221 0.04163 0.0
C817 C 0.85 0.93582 0.02945 0.0
C818 C 0.86593 0.91631 0.02777 0.0
C819 C 0.8852 0.91484 0.0339 0.0
C820 C 0.85404 0.95357 0.03729 0.0
C821 C 0.87363 0.95149 0.0432 0.0
N822 N 0.94424 0.92671 0.05892 0.0
C823 C 0.97677 0.9024 0.06466 0.0
C824 C 0.98106 0.92061 0.07235 0.0
C825 C 0.96706 0.94245 0.07292 0.0
C826 C 0.949 0.94517 0.06614 0.0
C827 C 0.9584 0.90577 0.0581 0.0
H828 H 0.93882 0.96208 0.06702 0.0
H829 H 0.95574 0.89098 0.05253 0.0
H830 H 0.89645 0.8994 0.03221 0.0
H831 H 0.87568 0.96579 0.04897 0.0
C832 C 0.90224 0.98417 0.06183 0.0
C833 C 0.89145 0.89357 0.06989 0.0
C834 C 0.94878 0.96484 0.03246 0.0
C835 C 0.92995 0.87479 0.03831 0.0
H836 H 0.87174 0.9281 0.08471 0.0
H837 H 0.87726 0.9778 0.08026 0.0
H838 H 0.91926 0.0303 0.05257 0.0
H839 H 0.94497 0.01936 0.03654 0.0
H840 H 0.96888 0.9302 0.0179 0.0
H841 H 0.95869 0.88076 0.02101 0.0
H842 H 0.91206 0.82888 0.04732 0.0
H843 H 0.89089 0.83948 0.06466 0.0
H844 H 0.86341 0.90189 0.02185 0.0
H845 H 0.84229 0.96925 0.0388 0.0
H846 H 0.9874 0.88543 0.06375 0.0
H847 H 0.96949 0.95704 0.07877 0.0
C848 C 0.60932 0.62673 0.83061 0.0
C849 C 0.58584 0.62597 0.83045 0.0
C850 C 0.57908 0.64146 0.82257 0.0
C851 C 0.59868 0.65088 0.81842 0.0
N852 N 0.61763 0.64201 0.82305 0.0
Co853 Co 0.64969 0.65186 0.81986 0.0
N854 N 0.63954 0.67749 0.80923 0.0
C855 C 0.618 0.68311 0.80651 0.0
C856 C 0.61633 0.70105 0.79883 0.0
C857 C 0.6381 0.70716 0.79641 0.0
C858 C 0.65186 0.69256 0.80283 0.0
N859 N 0.68174 0.66152 0.81663 0.0
C860 C 0.69002 0.67798 0.80947 0.0
C861 C 0.71348 0.67888 0.80966 0.0
C862 C 0.7203 0.66201 0.81708 0.0
C863 C 0.70071 0.65189 0.82101 0.0
N864 N 0.65977 0.62647 0.83057 0.0
C865 C 0.68127 0.62041 0.83319 0.0
C866 C 0.68279 0.60293 0.84106 0.0
C867 C 0.66096 0.59791 0.84379 0.0
C868 C 0.64739 0.61276 0.8374 0.0
N869 N 0.65109 0.62425 0.80923 0.0
C870 C 0.6552 0.58871 0.79296 0.0
C871 C 0.67122 0.58935 0.80078 0.0
C872 C 0.66893 0.60725 0.80875 0.0
C873 C 0.63669 0.60538 0.7936 0.0
C874 C 0.63484 0.62259 0.80179 0.0
N875 N 0.6484 0.67956 0.83038 0.0
C876 C 0.66519 0.70271 0.84457 0.0
C877 C 0.64695 0.7199 0.84491 0.0
C878 C 0.6293 0.71631 0.83797 0.0
C879 C 0.63028 0.69609 0.83089 0.0
C880 C 0.66562 0.68289 0.83727 0.0
H881 H 0.61615 0.69421 0.82592 0.0
H882 H 0.68008 0.67056 0.83732 0.0
H883 H 0.68203 0.60724 0.81431 0.0
H884 H 0.62025 0.6346 0.80182 0.0
C885 C 0.59972 0.67008 0.81091 0.0
C886 C 0.62295 0.6143 0.83852 0.0
C887 C 0.67646 0.69253 0.80215 0.0
C888 C 0.69962 0.63283 0.82858 0.0
H889 H 0.57462 0.61605 0.83567 0.0
H890 H 0.5619 0.64624 0.82044 0.0
H891 H 0.60111 0.70829 0.79522 0.0
H892 H 0.64319 0.72039 0.79042 0.0
H893 H 0.7245 0.6903 0.80482 0.0
H894 H 0.7375 0.65737 0.81924 0.0
H895 H 0.69796 0.59542 0.84462 0.0
H896 H 0.65559 0.58533 0.84996 0.0
H897 H 0.68584 0.57667 0.80058 0.0
H898 H 0.62363 0.60514 0.78779 0.0
H899 H 0.67928 0.70479 0.8498 0.0
H900 H 0.61459 0.72886 0.83809 0.0
C901 C 0.62423 0.34206 0.07625 0.0
C902 C 0.6242 0.31508 0.07628 0.0
C903 C 0.61348 0.30744 0.06756 0.0
C904 C 0.60779 0.33006 0.06267 0.0
N905 N 0.61453 0.35171 0.06768 0.0
Co906 Co 0.61036 0.3886 0.06319 0.0
N907 N 0.59119 0.37756 0.05131 0.0
C908 C 0.58548 0.35298 0.04868 0.0
C909 C 0.57164 0.3515 0.04031 0.0
C910 C 0.56807 0.37664 0.03746 0.0
C911 C 0.57999 0.39207 0.0443 0.0
N912 N 0.60675 0.42547 0.05852 0.0
C913 C 0.5947 0.43539 0.05062 0.0
C914 C 0.59696 0.46219 0.05 0.0
C915 C 0.61098 0.46944 0.05777 0.0
C916 C 0.61644 0.44679 0.06268 0.0
N917 N 0.62873 0.39959 0.07537 0.0
C918 C 0.63465 0.42413 0.07794 0.0
C919 C 0.64543 0.42594 0.08717 0.0
C920 C 0.64613 0.40114 0.09083 0.0
C921 C 0.63589 0.3855 0.08352 0.0
N922 N 0.63818 0.38583 0.05467 0.0
C923 C 0.67571 0.38456 0.04135 0.0
C924 C 0.67427 0.40303 0.04914 0.0
C925 C 0.65557 0.40328 0.05566 0.0
C926 C 0.6585 0.36612 0.04062 0.0
C927 C 0.64018 0.36701 0.04732 0.0
N928 N 0.58275 0.39146 0.07161 0.0
C929 C 0.55947 0.41542 0.08349 0.0
C930 C 0.54449 0.39454 0.0843 0.0
C931 C 0.54866 0.3724 0.07842 0.0
C932 C 0.56773 0.37127 0.07217 0.0
C933 C 0.57835 0.41348 0.07714 0.0
H934 H 0.57017 0.35378 0.06795 0.0
H935 H 0.58936 0.42987 0.07693 0.0
H936 H 0.65554 0.41802 0.06133 0.0
H937 H 0.62773 0.35248 0.04621 0.0
C938 C 0.59394 0.33166 0.05406 0.0
C939 C 0.63249 0.35759 0.0848 0.0
C940 C 0.58039 0.42035 0.04373 0.0
C941 C 0.62887 0.44518 0.07173 0.0
H942 H 0.63067 0.30227 0.08215 0.0
H943 H 0.6095 0.28777 0.06525 0.0
H944 H 0.56501 0.3342 0.03669 0.0
H945 H 0.55791 0.38289 0.03104 0.0
H946 H 0.589 0.47521 0.04459 0.0
H947 H 0.61607 0.48898 0.05977 0.0
H948 H 0.65143 0.44333 0.09095 0.0
H949 H 0.65295 0.39544 0.09816 0.0
H950 H 0.68744 0.41742 0.05018 0.0
H951 H 0.65868 0.35147 0.03468 0.0
H952 H 0.55707 0.43289 0.08797 0.0
H953 H 0.53733 0.35588 0.07868 0.0
C954 C 0.88835 0.37462 0.33051 0.0
C955 C 0.91172 0.37711 0.3305 0.0
C956 C 0.91949 0.36257 0.32253 0.0
C957 C 0.9005 0.35221 0.31812 0.0
N958 N 0.88102 0.35969 0.32268 0.0
Co959 Co 0.84951 0.34908 0.31894 0.0
N960 N 0.86104 0.32443 0.30825 0.0
C961 C 0.88291 0.31962 0.30583 0.0
C962 C 0.88557 0.30208 0.29806 0.0
C963 C 0.86414 0.29538 0.29527 0.0
C964 C 0.84956 0.30924 0.30157 0.0
N965 N 0.81795 0.33873 0.31511 0.0
C966 C 0.81059 0.32243 0.3077 0.0
C967 C 0.78716 0.32093 0.30749 0.0
C968 C 0.77941 0.33727 0.3149 0.0
C969 C 0.79846 0.34768 0.31923 0.0
N970 N 0.83809 0.37338 0.32979 0.0
C971 C 0.81628 0.37849 0.33217 0.0
C972 C 0.81376 0.39454 0.34044 0.0
C973 C 0.83523 0.39957 0.34369 0.0
C974 C 0.84965 0.38635 0.33714 0.0
N975 N 0.84824 0.37744 0.30858 0.0
C976 C 0.84555 0.41585 0.29317 0.0
C977 C 0.82869 0.41352 0.30061 0.0
C978 C 0.83034 0.39434 0.30815 0.0
C979 C 0.86388 0.39878 0.29369 0.0
C980 C 0.86494 0.3801 0.3014 0.0
N981 N 0.85074 0.32077 0.32921 0.0
C982 C 0.83374 0.29669 0.34311 0.0
C983 C 0.85286 0.2809 0.34393 0.0
C984 C 0.87088 0.28541 0.33727 0.0
C985 C 0.86953 0.30536 0.33007 0.0
C986 C 0.833 0.31628 0.33572 0.0
H987 H 0.88397 0.30808 0.32534 0.0
H988 H 0.81793 0.32759 0.33542 0.0
H989 H 0.81681 0.3935 0.31349 0.0
H990 H 0.87937 0.36786 0.30127 0.0
C991 C 0.90054 0.33324 0.3105 0.0
C992 C 0.87404 0.38506 0.33858 0.0
C993 C 0.82503 0.30854 0.3005 0.0
C994 C 0.79858 0.36607 0.32707 0.0
H995 H 0.92207 0.38758 0.33594 0.0
H996 H 0.93695 0.35901 0.32048 0.0
H997 H 0.90121 0.29553 0.29462 0.0
H998 H 0.85982 0.28227 0.28912 0.0
H999 H 0.77674 0.30943 0.30241 0.0
H1000 H 0.76196 0.34129 0.31684 0.0
H1001 H 0.79815 0.40088 0.34397 0.0
H1002 H 0.83967 0.41096 0.35034 0.0
H1003 H 0.81428 0.42649 0.30067 0.0
H1004 H 0.87727 0.39937 0.28805 0.0
H1005 H 0.8193 0.29378 0.34807 0.0
H1006 H 0.88619 0.27391 0.33773 0.0
C1007 C 0.87897 0.65835 0.57852 0.0
C1008 C 0.88058 0.68519 0.57925 0.0
C1009 C 0.89337 0.69323 0.57118 0.0
C1010 C 0.89873 0.67096 0.56598 0.0
N1011 N 0.88997 0.64917 0.57019 0.0
Co1012 Co 0.89337 0.61265 0.56508 0.0
N1013 N 0.91464 0.62411 0.55401 0.0
C1014 C 0.92212 0.64854 0.55224 0.0
C1015 C 0.93716 0.65032 0.54431 0.0
C1016 C 0.93952 0.62552 0.54081 0.0
C1017 C 0.92561 0.61003 0.54681 0.0
N1018 N 0.89619 0.57624 0.55976 0.0
C1019 C 0.90839 0.56682 0.55182 0.0
C1020 C 0.905 0.54035 0.5505 0.0
C1021 C 0.89015 0.53274 0.5579 0.0
C1022 C 0.88528 0.55491 0.56326 0.0
N1023 N 0.87281 0.60112 0.57643 0.0
C1024 C 0.86576 0.57662 0.5784 0.0
C1025 C 0.85279 0.57452 0.58704 0.0
C1026 C 0.85176 0.59908 0.59093 0.0
C1027 C 0.86415 0.61478 0.58438 0.0
N1028 N 0.8671 0.61803 0.55583 0.0
C1029 C 0.83221 0.62226 0.54124 0.0
C1030 C 0.83175 0.60288 0.5487 0.0
C1031 C 0.84915 0.60118 0.55587 0.0
C1032 C 0.84985 0.64027 0.54153 0.0
C1033 C 0.86688 0.6379 0.54886 0.0
N1034 N 0.9196 0.60714 0.57423 0.0
C1035 C 0.94109 0.57941 0.58553 0.0
C1036 C 0.95671 0.59921 0.58731 0.0
C1037 C 0.95354 0.62302 0.5824 0.0
C1038 C 0.93507 0.6265 0.57589 0.0
C1039 C 0.92274 0.5838 0.57906 0.0
H1040 H 0.9336 0.64502 0.57231 0.0
H1041 H 0.91122 0.56808 0.57815 0.0
H1042 H 0.84782 0.58577 0.56123 0.0
H1043 H 0.87991 0.6521 0.54856 0.0
C1044 C 0.91391 0.66959 0.55784 0.0
C1045 C 0.86774 0.64239 0.58618 0.0
C1046 C 0.92333 0.58211 0.54531 0.0
C1047 C 0.87171 0.55602 0.57199 0.0
H1048 H 0.87369 0.69759 0.58516 0.0
H1049 H 0.89881 0.71285 0.56951 0.0
H1050 H 0.94528 0.66761 0.54136 0.0
H1051 H 0.9502 0.61955 0.53452 0.0
H1052 H 0.91256 0.52783 0.5448 0.0
H1053 H 0.88389 0.51331 0.55929 0.0
H1054 H 0.84524 0.55714 0.59021 0.0
H1055 H 0.84311 0.60476 0.59787 0.0
H1056 H 0.81811 0.58886 0.54897 0.0
H1057 H 0.85101 0.65568 0.53591 0.0
H1058 H 0.94272 0.56076 0.58929 0.0
H1059 H 0.96534 0.63886 0.58351 0.0
C1060 C 0.60871 0.37809 0.67038 0.0
C1061 C 0.58531 0.38 0.67092 0.0
C1062 C 0.57861 0.36469 0.67886 0.0
C1063 C 0.59816 0.35426 0.68268 0.0
N1064 N 0.61703 0.36235 0.67778 0.0
Co1065 Co 0.64895 0.35105 0.68045 0.0
N1066 N 0.63869 0.32512 0.69094 0.0
C1067 C 0.61715 0.32005 0.69383 0.0
C1068 C 0.61541 0.30155 0.7013 0.0
C1069 C 0.63713 0.29448 0.70339 0.0
C1070 C 0.65094 0.30913 0.69702 0.0
N1071 N 0.68089 0.34009 0.68322 0.0
C1072 C 0.68911 0.32299 0.69016 0.0
C1073 C 0.71252 0.32145 0.68976 0.0
C1074 C 0.71939 0.33856 0.68243 0.0
C1075 C 0.69987 0.34947 0.67877 0.0
N1076 N 0.65909 0.37652 0.66979 0.0
C1077 C 0.68056 0.38187 0.66692 0.0
C1078 C 0.68206 0.39936 0.65905 0.0
C1079 C 0.66021 0.40507 0.65657 0.0
C1080 C 0.64667 0.39062 0.6631 0.0
N1081 N 0.65176 0.37803 0.69128 0.0
C1082 C 0.65707 0.41395 0.70736 0.0
C1083 C 0.67245 0.41319 0.69929 0.0
C1084 C 0.66959 0.39509 0.69142 0.0
C1085 C 0.63876 0.39692 0.70716 0.0
C1086 C 0.63633 0.37949 0.69908 0.0
N1087 N 0.64618 0.32407 0.66971 0.0
C1088 C 0.66129 0.30127 0.65506 0.0
C1089 C 0.64185 0.28592 0.65437 0.0
C1090 C 0.62469 0.29 0.66154 0.0
C1091 C 0.62714 0.30904 0.66903 0.0
C1092 C 0.6631 0.32005 0.66273 0.0
H1093 H 0.61335 0.31129 0.67418 0.0
H1094 H 0.67827 0.33121 0.66283 0.0
H1095 H 0.68221 0.3951 0.68564 0.0
H1096 H 0.62188 0.36729 0.69939 0.0
C1097 C 0.59905 0.33435 0.68992 0.0
C1098 C 0.62216 0.38966 0.66222 0.0
C1099 C 0.67555 0.30844 0.69749 0.0
C1100 C 0.69885 0.36879 0.6713 0.0
H1101 H 0.57407 0.39048 0.66588 0.0
H1102 H 0.56144 0.36055 0.68121 0.0
H1103 H 0.60021 0.29461 0.70501 0.0
H1104 H 0.64218 0.28062 0.70917 0.0
H1105 H 0.7235 0.30943 0.69439 0.0
H1106 H 0.73659 0.3428 0.68014 0.0
H1107 H 0.6972 0.40638 0.65531 0.0
H1108 H 0.65478 0.41779 0.65046 0.0
H1109 H 0.68692 0.42609 0.69916 0.0
H1110 H 0.62622 0.39716 0.7132 0.0
H1111 H 0.67495 0.29915 0.64961 0.0
H1112 H 0.60941 0.27839 0.66145 0.0
C1113 C 0.87709 0.34855 0.91965 0.0
C1114 C 0.87972 0.32177 0.91929 0.0
C1115 C 0.89324 0.31518 0.92732 0.0
C1116 C 0.89801 0.33818 0.93212 0.0
N1117 N 0.88813 0.3591 0.92772 0.0
Co1118 Co 0.89084 0.39635 0.93206 0.0
N1119 N 0.91263 0.38692 0.94324 0.0
C1120 C 0.92038 0.36291 0.9456 0.0
C1121 C 0.93534 0.36255 0.95358 0.0
C1122 C 0.93723 0.38782 0.95655 0.0
C1123 C 0.92316 0.40218 0.95019 0.0
N1124 N 0.89347 0.43359 0.93645 0.0
C1125 C 0.90572 0.44438 0.94412 0.0
C1126 C 0.90242 0.47104 0.94468 0.0
C1127 C 0.88756 0.47734 0.9371 0.0
C1128 C 0.88261 0.45428 0.93237 0.0
N1129 N 0.86922 0.40571 0.92081 0.0
C1130 C 0.86119 0.42962 0.91852 0.0
C1131 C 0.8473 0.43007 0.91013 0.0
C1132 C 0.84664 0.405 0.90676 0.0
C1133 C 0.86019 0.39068 0.91333 0.0
N1134 N 0.86521 0.39168 0.94172 0.0
C1135 C 0.83184 0.38848 0.95705 0.0
C1136 C 0.83131 0.40823 0.94974 0.0
C1137 C 0.84797 0.40942 0.9422 0.0
C1138 C 0.84869 0.3696 0.95623 0.0
C1139 C 0.86494 0.37146 0.94853 0.0
N1140 N 0.91649 0.4012 0.92251 0.0
C1141 C 0.93609 0.42664 0.90974 0.0
C1142 C 0.95355 0.4084 0.90929 0.0
C1143 C 0.95206 0.38649 0.91557 0.0
C1144 C 0.93351 0.38324 0.922 0.0
C1145 C 0.91787 0.42269 0.91636 0.0
H1146 H 0.93336 0.36607 0.92653 0.0
H1147 H 0.90509 0.43725 0.91635 0.0
H1148 H 0.84673 0.42515 0.93698 0.0
H1149 H 0.87738 0.3566 0.94843 0.0
C1150 C 0.91298 0.34097 0.94029 0.0
C1151 C 0.86476 0.36313 0.91192 0.0
C1152 C 0.92026 0.43018 0.95116 0.0
C1153 C 0.86791 0.45145 0.92409 0.0
H1154 H 0.87295 0.30846 0.91367 0.0
H1155 H 0.89939 0.29599 0.92926 0.0
H1156 H 0.94376 0.34588 0.95689 0.0
H1157 H 0.94772 0.39486 0.96274 0.0
H1158 H 0.90988 0.4845 0.95006 0.0
H1159 H 0.88107 0.49644 0.93528 0.0
H1160 H 0.8391 0.44675 0.90672 0.0
H1161 H 0.83759 0.39811 0.90011 0.0
H1162 H 0.81821 0.42293 0.94986 0.0
H1163 H 0.8499 0.35388 0.9617 0.0
H1164 H 0.93629 0.44376 0.90493 0.0
H1165 H 0.96528 0.37195 0.91563 0.0
C1166 C 0.88918 0.62937 0.16967 0.0
C1167 C 0.91265 0.63021 0.16996 0.0
C1168 C 0.91837 0.64714 0.17753 0.0
C1169 C 0.8982 0.65574 0.18139 0.0
N1170 N 0.87987 0.64501 0.17686 0.0
Co1171 Co 0.84727 0.65321 0.17964 0.0
N1172 N 0.85577 0.68013 0.19007 0.0
C1173 C 0.87691 0.68691 0.19302 0.0
C1174 C 0.87743 0.70519 0.20061 0.0
C1175 C 0.85532 0.71027 0.20273 0.0
C1176 C 0.84251 0.69481 0.19622 0.0
N1177 N 0.81469 0.66154 0.18234 0.0
C1178 C 0.80536 0.67823 0.18914 0.0
C1179 C 0.78192 0.67822 0.18855 0.0
C1180 C 0.77621 0.66051 0.18124 0.0
C1181 C 0.79639 0.65087 0.17777 0.0
N1182 N 0.8388 0.62621 0.16926 0.0
C1183 C 0.81771 0.61859 0.16659 0.0
C1184 C 0.81731 0.60008 0.15907 0.0
C1185 C 0.83946 0.59592 0.15665 0.0
C1186 C 0.85207 0.61228 0.16286 0.0
N1187 N 0.84647 0.62646 0.19062 0.0
C1188 C 0.84443 0.59035 0.20687 0.0
C1189 C 0.82744 0.59135 0.19945 0.0
C1190 C 0.82875 0.60943 0.19149 0.0
C1191 C 0.86259 0.60755 0.2059 0.0
C1192 C 0.86334 0.62507 0.19777 0.0
N1193 N 0.84804 0.67999 0.16871 0.0
C1194 C 0.83257 0.69889 0.15328 0.0
C1195 C 0.84989 0.71731 0.15297 0.0
C1196 C 0.86616 0.71683 0.16069 0.0
C1197 C 0.86501 0.69809 0.16837 0.0
C1198 C 0.83188 0.68067 0.1612 0.0
H1199 H 0.87818 0.6985 0.1739 0.0
H1200 H 0.81818 0.66725 0.16106 0.0
H1201 H 0.81513 0.60934 0.18618 0.0
H1202 H 0.87765 0.6375 0.19754 0.0
C1203 C 0.89595 0.67508 0.18878 0.0
C1204 C 0.87649 0.61486 0.162 0.0
C1205 C 0.81787 0.69378 0.19653 0.0
C1206 C 0.79865 0.63086 0.17064 0.0
H1207 H 0.92448 0.62027 0.16502 0.0
H1208 H 0.93522 0.65315 0.17972 0.0
H1209 H 0.89213 0.71341 0.20432 0.0
H1210 H 0.8494 0.72347 0.20857 0.0
H1211 H 0.77017 0.68955 0.19306 0.0
H1212 H 0.75935 0.65494 0.17889 0.0
H1213 H 0.80265 0.59137 0.1555 0.0
H1214 H 0.84564 0.58287 0.1508 0.0
H1215 H 0.81317 0.5782 0.19972 0.0
H1216 H 0.87607 0.60798 0.21149 0.0
H1217 H 0.81948 0.69866 0.14749 0.0
H1218 H 0.88009 0.73051 0.16068 0.0
C1219 C 0.62139 0.65951 0.42263 0.0
C1220 C 0.61958 0.68638 0.42239 0.0
C1221 C 0.60735 0.69337 0.43079 0.0
C1222 C 0.60253 0.67048 0.43568 0.0
N1223 N 0.61121 0.64931 0.43098 0.0
Co1224 Co 0.60839 0.61221 0.43545 0.0
N1225 N 0.58702 0.62197 0.44672 0.0
C1226 C 0.57953 0.64611 0.44905 0.0
C1227 C 0.56462 0.64671 0.45705 0.0
C1228 C 0.56225 0.62144 0.45997 0.0
C1229 C 0.57593 0.6068 0.45353 0.0
N1230 N 0.60616 0.57519 0.44013 0.0
C1231 C 0.59385 0.56455 0.4478 0.0
C1232 C 0.59746 0.53797 0.44856 0.0
C1233 C 0.61268 0.53162 0.44113 0.0
C1234 C 0.61746 0.55454 0.43627 0.0
N1235 N 0.62898 0.60242 0.42386 0.0
C1236 C 0.63655 0.57836 0.42151 0.0
C1237 C 0.64903 0.5774 0.41269 0.0
C1238 C 0.6491 0.60227 0.40907 0.0
C1239 C 0.6367 0.617 0.41596 0.0
N1240 N 0.63472 0.61705 0.44475 0.0
C1241 C 0.67034 0.62119 0.45901 0.0
C1242 C 0.67083 0.60246 0.4513 0.0
C1243 C 0.65306 0.60079 0.44431 0.0
C1244 C 0.65213 0.63842 0.45923 0.0
C1245 C 0.63475 0.6361 0.45207 0.0
N1246 N 0.58223 0.6073 0.42624 0.0
C1247 C 0.56171 0.58127 0.414 0.0
C1248 C 0.54625 0.60134 0.41242 0.0
C1249 C 0.54872 0.62418 0.41806 0.0
C1250 C 0.56662 0.62667 0.42494 0.0
C1251 C 0.57951 0.58467 0.42087 0.0
H1252 H 0.56767 0.64454 0.42904 0.0
H1253 H 0.59108 0.5689 0.42159 0.0
H1254 H 0.65452 0.58594 0.43872 0.0
H1255 H 0.62139 0.64973 0.45278 0.0
C1256 C 0.58755 0.66794 0.44386 0.0
C1257 C 0.6318 0.64447 0.41446 0.0
C1258 C 0.57815 0.57866 0.45436 0.0
C1259 C 0.63099 0.55695 0.42757 0.0
H1260 H 0.62585 0.69948 0.41657 0.0
H1261 H 0.60176 0.71271 0.43284 0.0
H1262 H 0.55659 0.66355 0.46042 0.0
H1263 H 0.55179 0.61461 0.4662 0.0
H1264 H 0.58967 0.5245 0.45383 0.0
H1265 H 0.61908 0.51246 0.43933 0.0
H1266 H 0.65668 0.56052 0.40917 0.0
H1267 H 0.65697 0.60871 0.40205 0.0
H1268 H 0.68484 0.58901 0.45066 0.0
H1269 H 0.65087 0.65323 0.46508 0.0
H1270 H 0.56053 0.56332 0.40971 0.0
H1271 H 0.53694 0.64012 0.41715 0.0
C1272 C 0.34308 0.2996 0.18406 0.0
C1273 C 0.35754 0.27916 0.18632 0.0
C1274 C 0.37065 0.28709 0.19432 0.0
C1275 C 0.36336 0.31173 0.19653 0.0
N1276 N 0.34612 0.31986 0.19053 0.0
Co1277 Co 0.33026 0.35425 0.19113 0.0
N1278 N 0.35174 0.36735 0.20182 0.0
C1279 C 0.37005 0.35486 0.20563 0.0
C1280 C 0.38175 0.36897 0.21275 0.0
C1281 C 0.37004 0.39167 0.21369 0.0
C1282 C 0.35164 0.38993 0.20713 0.0
N1283 N 0.31396 0.38837 0.19202 0.0
C1284 C 0.31664 0.4083 0.19871 0.0
C1285 C 0.30024 0.4273 0.19732 0.0
C1286 C 0.28675 0.4191 0.18951 0.0
C1287 C 0.29546 0.39556 0.18665 0.0
N1288 N 0.30934 0.34137 0.18015 0.0
C1289 C 0.29192 0.35451 0.17589 0.0
C1290 C 0.2819 0.34179 0.1679 0.0
C1291 C 0.29391 0.31937 0.16682 0.0
C1292 C 0.31052 0.31958 0.17434 0.0
N1293 N 0.31001 0.34035 0.20193 0.0
C1294 C 0.28168 0.32143 0.21752 0.0
C1295 C 0.27255 0.33151 0.20852 0.0
C1296 C 0.28693 0.34102 0.2009 0.0
C1297 C 0.30511 0.3208 0.21857 0.0
C1298 C 0.31882 0.33009 0.21073 0.0
N1299 N 0.35049 0.36796 0.18034 0.0
C1300 C 0.35597 0.3893 0.16404 0.0
C1301 C 0.37837 0.38077 0.16369 0.0
C1302 C 0.38693 0.3673 0.17209 0.0
C1303 C 0.37287 0.36122 0.18025 0.0
C1304 C 0.3424 0.38277 0.17242 0.0
H1305 H 0.38039 0.35038 0.18626 0.0
H1306 H 0.32528 0.38927 0.17221 0.0
H1307 H 0.27897 0.34891 0.1943 0.0
H1308 H 0.3365 0.32873 0.21202 0.0
C1309 C 0.37427 0.32885 0.2032 0.0
C1310 C 0.32787 0.2995 0.17529 0.0
C1311 C 0.33364 0.4093 0.2068 0.0
C1312 C 0.28609 0.37932 0.17925 0.0
H1313 H 0.35898 0.26079 0.18236 0.0
H1314 H 0.38455 0.27662 0.19778 0.0
H1315 H 0.39649 0.36304 0.21706 0.0
H1316 H 0.37409 0.40734 0.21889 0.0
H1317 H 0.2978 0.44496 0.20164 0.0
H1318 H 0.27193 0.42877 0.1865 0.0
H1319 H 0.26803 0.34846 0.16318 0.0
H1320 H 0.29107 0.30499 0.16095 0.0
H1321 H 0.2544 0.33241 0.20743 0.0
H1322 H 0.31291 0.31276 0.22536 0.0
H1323 H 0.34871 0.40005 0.15772 0.0
H1324 H 0.40441 0.36098 0.17229 0.0
C1325 C 0.38691 0.57111 0.92544 0.0
C1326 C 0.37718 0.55615 0.9178 0.0
C1327 C 0.3795 0.53084 0.92074 0.0
C1328 C 0.3906 0.53182 0.92993 0.0
N1329 N 0.3951 0.55623 0.93315 0.0
Co1330 Co 0.41304 0.56655 0.94554 0.0
N1331 N 0.4185 0.52933 0.94933 0.0
C1332 C 0.40974 0.50809 0.9447 0.0
C1333 C 0.41619 0.48513 0.94913 0.0
C1334 C 0.42985 0.4921 0.95708 0.0
C1335 C 0.43095 0.51903 0.95703 0.0
N1336 N 0.43197 0.57699 0.95758 0.0
C1337 C 0.44399 0.5622 0.9642 0.0
C1338 C 0.45556 0.57734 0.97126 0.0
C1339 C 0.45083 0.6026 0.96897 0.0
C1340 C 0.43673 0.60147 0.96068 0.0
N1341 N 0.40675 0.60371 0.94203 0.0
C1342 C 0.41237 0.62494 0.94756 0.0
C1343 C 0.40544 0.64785 0.94325 0.0
C1344 C 0.395 0.64087 0.93437 0.0
C1345 C 0.39633 0.61399 0.93376 0.0
N1346 N 0.38528 0.56616 0.95416 0.0
C1347 C 0.34583 0.56568 0.9663 0.0
C1348 C 0.36311 0.58356 0.96813 0.0
C1349 C 0.38247 0.58346 0.96203 0.0
C1350 C 0.34865 0.548 0.95832 0.0
C1351 C 0.36831 0.54855 0.95242 0.0
N1352 N 0.44054 0.56694 0.93695 0.0
C1353 C 0.47212 0.59012 0.92962 0.0
C1354 C 0.4779 0.56862 0.92362 0.0
C1355 C 0.46503 0.546 0.9247 0.0
C1356 C 0.44653 0.54562 0.93131 0.0
C1357 C 0.45365 0.58879 0.93624 0.0
H1358 H 0.43712 0.52797 0.93163 0.0
H1359 H 0.45001 0.60584 0.94059 0.0
H1360 H 0.39489 0.59757 0.96389 0.0
H1361 H 0.36924 0.53451 0.9465 0.0
C1362 C 0.39736 0.51025 0.93565 0.0
C1363 C 0.38881 0.59928 0.92489 0.0
C1364 C 0.44457 0.53389 0.96425 0.0
C1365 C 0.42679 0.62294 0.95596 0.0
H1366 H 0.36954 0.56281 0.91076 0.0
H1367 H 0.37418 0.51375 0.91657 0.0
H1368 H 0.41198 0.46563 0.9467 0.0
H1369 H 0.43836 0.47883 0.96222 0.0
H1370 H 0.46617 0.57081 0.97749 0.0
H1371 H 0.45677 0.61973 0.97294 0.0
H1372 H 0.40854 0.66737 0.94599 0.0
H1373 H 0.38789 0.65408 0.92879 0.0
H1374 H 0.36189 0.59742 0.97433 0.0
H1375 H 0.33563 0.53394 0.95652 0.0
H1376 H 0.48136 0.60821 0.92903 0.0
H1377 H 0.46907 0.52861 0.92042 0.0
C1378 C 0.1497 0.68561 0.68014 0.0
C1379 C 0.13133 0.70241 0.68037 0.0
C1380 C 0.11765 0.69425 0.68811 0.0
C1381 C 0.12828 0.67292 0.69211 0.0
N1382 N 0.14812 0.6671 0.68749 0.0
Co1383 Co 0.16797 0.63625 0.69034 0.0
N1384 N 0.14752 0.62399 0.7016 0.0
C1385 C 0.12849 0.63578 0.70499 0.0
C1386 C 0.11832 0.62324 0.71299 0.0
C1387 C 0.13184 0.60239 0.71497 0.0
C1388 C 0.14961 0.60349 0.70804 0.0
N1389 N 0.1873 0.60484 0.69288 0.0
C1390 C 0.18533 0.58575 0.69998 0.0
C1391 C 0.20269 0.56771 0.69914 0.0
C1392 C 0.21605 0.57563 0.69124 0.0
C1393 C 0.20622 0.59799 0.68773 0.0
N1394 N 0.1889 0.64911 0.67938 0.0
C1395 C 0.2088 0.63841 0.67653 0.0
C1396 C 0.21965 0.65179 0.66892 0.0
C1397 C 0.20578 0.67219 0.66671 0.0
C1398 C 0.18711 0.66993 0.67308 0.0
N1399 N 0.18539 0.65633 0.70061 0.0
C1400 C 0.20945 0.68292 0.71594 0.0
C1401 C 0.22042 0.66553 0.70943 0.0
C1402 C 0.2082 0.65269 0.70182 0.0
C1403 C 0.18637 0.68717 0.71453 0.0
C1404 C 0.17476 0.67374 0.70691 0.0
N1405 N 0.15051 0.61623 0.68006 0.0
C1406 C 0.14852 0.59364 0.66387 0.0
C1407 C 0.12494 0.59303 0.66438 0.0
C1408 C 0.11449 0.60309 0.67308 0.0
C1409 C 0.12746 0.61445 0.68076 0.0
C1410 C 0.16091 0.60502 0.6718 0.0
H1411 H 0.11832 0.6223 0.68702 0.0
H1412 H 0.17884 0.60503 0.67096 0.0
H1413 H 0.21755 0.63976 0.69708 0.0
H1414 H 0.15713 0.67754 0.70637 0.0
C1415 C 0.12016 0.65809 0.70025 0.0
C1416 C 0.16779 0.68749 0.67258 0.0
C1417 C 0.16814 0.58475 0.70798 0.0
C1418 C 0.21571 0.61447 0.68043 0.0
H1419 H 0.12793 0.71868 0.67536 0.0
H1420 H 0.10171 0.70267 0.69046 0.0
H1421 H 0.1029 0.62859 0.71691 0.0
H1422 H 0.12897 0.58803 0.72087 0.0
H1423 H 0.20583 0.55094 0.70391 0.0
H1424 H 0.23159 0.56671 0.68864 0.0
H1425 H 0.23543 0.64685 0.6652 0.0
H1426 H 0.20882 0.68679 0.66092 0.0
H1427 H 0.23839 0.66191 0.71017 0.0
H1428 H 0.17712 0.70032 0.71945 0.0
H1429 H 0.15737 0.58572 0.65733 0.0
H1430 H 0.09625 0.60331 0.6738 0.0
C1431 C 0.1127 0.42521 0.42661 0.0
C1432 C 0.1236 0.43903 0.41895 0.0
C1433 C 0.12156 0.46469 0.42139 0.0
C1434 C 0.10946 0.46509 0.43032 0.0
N1435 N 0.10397 0.4412 0.43385 0.0
Co1436 Co 0.08463 0.43281 0.44604 0.0
N1437 N 0.07938 0.4706 0.44897 0.0
C1438 C 0.08845 0.49108 0.44394 0.0
C1439 C 0.08226 0.51469 0.44788 0.0
C1440 C 0.06849 0.509 0.45594 0.0
C1441 C 0.067 0.48212 0.45642 0.0
N1442 N 0.06476 0.42428 0.45801 0.0
C1443 C 0.05321 0.44016 0.4644 0.0
C1444 C 0.04059 0.42617 0.47147 0.0
C1445 C 0.04454 0.40055 0.46957 0.0
C1446 C 0.05913 0.40032 0.46145 0.0
N1447 N 0.09028 0.3951 0.44328 0.0
C1448 C 0.08336 0.37463 0.44896 0.0
C1449 C 0.09015 0.35106 0.44518 0.0
C1450 C 0.10181 0.35677 0.43648 0.0
C1451 C 0.10129 0.3836 0.43542 0.0
N1452 N 0.11164 0.43359 0.45512 0.0
C1453 C 0.15009 0.43454 0.46789 0.0
C1454 C 0.13299 0.41622 0.46934 0.0
C1455 C 0.11411 0.41609 0.46293 0.0
C1456 C 0.14755 0.45247 0.45997 0.0
C1457 C 0.12838 0.45168 0.45375 0.0
N1458 N 0.05782 0.43202 0.43699 0.0
C1459 C 0.02506 0.40975 0.43025 0.0
C1460 C 0.0215 0.42957 0.42314 0.0
C1461 C 0.03599 0.45096 0.42328 0.0
C1462 C 0.05381 0.45185 0.43025 0.0
C1463 C 0.04324 0.41132 0.43704 0.0
H1464 H 0.06432 0.46862 0.42994 0.0
H1465 H 0.04544 0.39538 0.44215 0.0
H1466 H 0.10177 0.40165 0.46451 0.0
H1467 H 0.12762 0.46592 0.4479 0.0
C1468 C 0.10204 0.48752 0.43531 0.0
C1469 C 0.1101 0.39706 0.42647 0.0
C1470 C 0.05393 0.46847 0.4642 0.0
C1471 C 0.06853 0.378 0.45714 0.0
H1472 H 0.13174 0.43143 0.41218 0.0
H1473 H 0.12759 0.48114 0.41701 0.0
H1474 H 0.08709 0.53377 0.44518 0.0
H1475 H 0.06048 0.52305 0.46091 0.0
H1476 H 0.02975 0.43369 0.47744 0.0
H1477 H 0.03775 0.38405 0.47368 0.0
H1478 H 0.0863 0.33197 0.44818 0.0
H1479 H 0.10923 0.34275 0.43131 0.0
H1480 H 0.13398 0.40214 0.47548 0.0
H1481 H 0.16046 0.46689 0.45844 0.0
H1482 H 0.0143 0.39273 0.43038 0.0
H1483 H 0.03364 0.46696 0.41801 0.0
C1484 C 0.34756 0.69557 0.31713 0.0
C1485 C 0.36374 0.71493 0.31602 0.0
C1486 C 0.37647 0.70844 0.30772 0.0
C1487 C 0.36733 0.68569 0.30422 0.0
N1488 N 0.34921 0.67745 0.30965 0.0
Co1489 Co 0.33143 0.6447 0.30742 0.0
N1490 N 0.35047 0.63495 0.2953 0.0
C1491 C 0.36767 0.64886 0.29122 0.0
C1492 C 0.37734 0.63752 0.28283 0.0
C1493 C 0.36537 0.61524 0.28132 0.0
C1494 C 0.34891 0.61434 0.28889 0.0
N1495 N 0.31435 0.61137 0.30547 0.0
C1496 C 0.31637 0.59277 0.29818 0.0
C1497 C 0.30064 0.57303 0.29956 0.0
C1498 C 0.28836 0.57929 0.30802 0.0
C1499 C 0.29714 0.60244 0.3113 0.0
N1500 N 0.31178 0.6551 0.31924 0.0
C1501 C 0.29355 0.64213 0.32283 0.0
C1502 C 0.2837 0.65357 0.33116 0.0
C1503 C 0.29645 0.67508 0.33307 0.0
C1504 C 0.3134 0.6756 0.32572 0.0
N1505 N 0.31047 0.66299 0.29801 0.0
C1506 C 0.28153 0.68795 0.28407 0.0
C1507 C 0.2733 0.66874 0.29061 0.0
C1508 C 0.28793 0.65677 0.29756 0.0
C1509 C 0.30431 0.69465 0.28469 0.0
C1510 C 0.31836 0.68195 0.2916 0.0
N1511 N 0.35245 0.62663 0.31685 0.0
C1512 C 0.35972 0.60626 0.33318 0.0
C1513 C 0.38298 0.60953 0.33187 0.0
C1514 C 0.39069 0.61936 0.32256 0.0
C1515 C 0.3753 0.62766 0.31522 0.0
C1516 C 0.34482 0.61472 0.32557 0.0
H1517 H 0.38239 0.63565 0.30846 0.0
H1518 H 0.32722 0.61227 0.32706 0.0
H1519 H 0.28064 0.64245 0.30243 0.0
H1520 H 0.33561 0.68767 0.29147 0.0
C1521 C 0.375 0.67195 0.29571 0.0
C1522 C 0.33147 0.69495 0.32558 0.0
C1523 C 0.33204 0.59369 0.28955 0.0
C1524 C 0.28789 0.61767 0.31905 0.0
H1525 H 0.36623 0.73186 0.32079 0.0
H1526 H 0.39076 0.719 0.30464 0.0
H1527 H 0.39147 0.64457 0.27836 0.0
H1528 H 0.3684 0.60126 0.2753 0.0
H1529 H 0.29778 0.55619 0.29479 0.0
H1530 H 0.27412 0.56877 0.31115 0.0
H1531 H 0.26955 0.64647 0.33561 0.0
H1532 H 0.29391 0.68831 0.33938 0.0
H1533 H 0.25566 0.66308 0.29039 0.0
H1534 H 0.31146 0.70921 0.27965 0.0
H1535 H 0.35297 0.59839 0.34023 0.0
H1536 H 0.40862 0.62141 0.32106 0.0
C1537 C 0.11125 0.56858 0.07247 0.0
C1538 C 0.12111 0.55239 0.07969 0.0
C1539 C 0.11789 0.52755 0.07635 0.0
C1540 C 0.10615 0.52997 0.06737 0.0
N1541 N 0.10206 0.55488 0.06465 0.0
Co1542 Co 0.08322 0.56717 0.05282 0.0
N1543 N 0.07655 0.53061 0.04846 0.0
C1544 C 0.08526 0.50861 0.05252 0.0
C1545 C 0.07836 0.48642 0.04766 0.0
C1546 C 0.06451 0.49472 0.03998 0.0
C1547 C 0.06366 0.52161 0.04065 0.0
N1548 N 0.06338 0.57958 0.04139 0.0
C1549 C 0.05084 0.56596 0.03459 0.0
C1550 C 0.03839 0.58228 0.02827 0.0
C1551 C 0.04349 0.60708 0.03109 0.0
C1552 C 0.05851 0.60453 0.03899 0.0
N1553 N 0.09077 0.60366 0.05686 0.0
C1554 C 0.0851 0.62567 0.05183 0.0
C1555 C 0.09319 0.64783 0.05633 0.0
C1556 C 0.10445 0.6395 0.06482 0.0
C1557 C 0.10237 0.61264 0.06503 0.0
N1558 N 0.11004 0.56702 0.04364 0.0
C1559 C 0.14804 0.56662 0.03062 0.0
C1560 C 0.1309 0.58498 0.02937 0.0
C1561 C 0.11226 0.58488 0.03592 0.0
C1562 C 0.14584 0.54844 0.03847 0.0
C1563 C 0.12687 0.54894 0.0448 0.0
N1564 N 0.05662 0.56729 0.06199 0.0
C1565 C 0.02698 0.59056 0.07079 0.0
C1566 C 0.02133 0.5684 0.07642 0.0
C1567 C 0.03308 0.54543 0.07437 0.0
C1568 C 0.05056 0.54533 0.06723 0.0
C1569 C 0.04442 0.58953 0.0636 0.0
H1570 H 0.05918 0.52735 0.0662 0.0
H1571 H 0.04808 0.60709 0.05959 0.0
H1572 H 0.09993 0.59951 0.03456 0.0
H1573 H 0.12628 0.53439 0.05054 0.0
C1574 C 0.09842 0.50934 0.06138 0.0
C1575 C 0.11018 0.59674 0.07354 0.0
C1576 C 0.0505 0.53773 0.03368 0.0
C1577 C 0.06953 0.6251 0.04383 0.0
H1578 H 0.1294 0.55789 0.08673 0.0
H1579 H 0.12305 0.50981 0.08013 0.0
H1580 H 0.08261 0.46655 0.04956 0.0
H1581 H 0.05595 0.48236 0.03452 0.0
H1582 H 0.02697 0.57684 0.02217 0.0
H1583 H 0.03725 0.62486 0.02769 0.0
H1584 H 0.0903 0.66773 0.05401 0.0
H1585 H 0.11255 0.65183 0.07043 0.0
H1586 H 0.13199 0.59964 0.02345 0.0
H1587 H 0.15856 0.5336 0.03965 0.0
H1588 H 0.01851 0.6089 0.07211 0.0
H1589 H 0.029 0.52755 0.07832 0.0
C1590 C 0.16377 0.305 0.81916 0.0
C1591 C 0.14485 0.28917 0.82029 0.0
C1592 C 0.12684 0.30246 0.81635 0.0
C1593 C 0.13558 0.3256 0.81304 0.0
N1594 N 0.15812 0.32758 0.81444 0.0
Co1595 Co 0.17661 0.35897 0.81142 0.0
N1596 N 0.15246 0.3739 0.80267 0.0
C1597 C 0.13052 0.36714 0.80267 0.0
C1598 C 0.11795 0.38089 0.79569 0.0
C1599 C 0.133 0.39732 0.79101 0.0
C1600 C 0.15394 0.39253 0.79541 0.0
N1601 N 0.19467 0.39064 0.80851 0.0
C1602 C 0.19251 0.40797 0.80078 0.0
C1603 C 0.20944 0.42663 0.80123 0.0
C1604 C 0.22239 0.42085 0.80961 0.0
C1605 C 0.21285 0.39895 0.81375 0.0
N1606 N 0.20105 0.34394 0.82002 0.0
C1607 C 0.21926 0.35678 0.82361 0.0
C1608 C 0.23373 0.34124 0.82905 0.0
C1609 C 0.2238 0.31723 0.8291 0.0
C1610 C 0.20358 0.31953 0.82376 0.0
N1611 N 0.18946 0.34193 0.79943 0.0
C1612 C 0.20739 0.31893 0.78187 0.0
C1613 C 0.22128 0.33286 0.78857 0.0
C1614 C 0.21202 0.34406 0.79733 0.0
C1615 C 0.18438 0.31658 0.78417 0.0
C1616 C 0.17574 0.32831 0.79295 0.0
N1617 N 0.16348 0.37601 0.82339 0.0
C1618 C 0.14934 0.372 0.84051 0.0
C1619 C 0.13702 0.39504 0.83942 0.0
C1620 C 0.14006 0.40975 0.83051 0.0
C1621 C 0.15361 0.39998 0.82261 0.0
C1622 C 0.16223 0.36278 0.83242 0.0
H1623 H 0.1551 0.41118 0.81568 0.0
H1624 H 0.17014 0.34421 0.83336 0.0
H1625 H 0.22312 0.35458 0.80237 0.0
H1626 H 0.1579 0.32658 0.79443 0.0
C1627 C 0.12349 0.34487 0.80785 0.0
C1628 C 0.18567 0.29968 0.82411 0.0
C1629 C 0.17451 0.40715 0.79307 0.0
C1630 C 0.22337 0.38256 0.82081 0.0
H1631 H 0.14378 0.27039 0.82394 0.0
H1632 H 0.10944 0.29601 0.81598 0.0
H1633 H 0.10021 0.37847 0.79389 0.0
H1634 H 0.12904 0.41122 0.78507 0.0
H1635 H 0.21254 0.44239 0.79595 0.0
H1636 H 0.23784 0.43041 0.81196 0.0
H1637 H 0.24967 0.34665 0.83251 0.0
H1638 H 0.23017 0.30023 0.83302 0.0
H1639 H 0.23922 0.33488 0.78711 0.0
H1640 H 0.17303 0.30615 0.77913 0.0
H1641 H 0.14817 0.36042 0.8474 0.0
H1642 H 0.13108 0.42786 0.8294 0.0
C1643 C 0.38649 0.43018 0.57361 0.0
C1644 C 0.37664 0.44582 0.58101 0.0
C1645 C 0.37968 0.47089 0.5779 0.0
C1646 C 0.39129 0.46912 0.56887 0.0
N1647 N 0.39547 0.44442 0.56589 0.0
Co1648 Co 0.41386 0.43299 0.55379 0.0
N1649 N 0.42015 0.46986 0.54973 0.0
C1650 C 0.41163 0.49156 0.55411 0.0
C1651 C 0.41853 0.5141 0.5495 0.0
C1652 C 0.43219 0.50637 0.54167 0.0
C1653 C 0.43285 0.47943 0.54197 0.0
N1654 N 0.43322 0.42144 0.54205 0.0
C1655 C 0.44556 0.43558 0.53533 0.0
C1656 C 0.45728 0.41979 0.52855 0.0
C1657 C 0.45224 0.39477 0.5311 0.0
C1658 C 0.43784 0.39669 0.53926 0.0
N1659 N 0.40676 0.39618 0.55757 0.0
C1660 C 0.41239 0.37451 0.55231 0.0
C1661 C 0.40486 0.352 0.55675 0.0
C1662 C 0.394 0.35973 0.56543 0.0
C1663 C 0.39568 0.38661 0.5658 0.0
N1664 N 0.38659 0.43351 0.54487 0.0
C1665 C 0.3481 0.43457 0.53215 0.0
C1666 C 0.36508 0.41613 0.53069 0.0
C1667 C 0.38396 0.41589 0.5371 0.0
C1668 C 0.35067 0.45246 0.54007 0.0
C1669 C 0.36988 0.45164 0.54625 0.0
N1670 N 0.44092 0.4325 0.56268 0.0
C1671 C 0.47177 0.40908 0.57053 0.0
C1672 C 0.4777 0.43084 0.57635 0.0
C1673 C 0.46526 0.45365 0.57494 0.0
C1674 C 0.44703 0.45402 0.56817 0.0
C1675 C 0.4536 0.4104 0.56373 0.0
H1676 H 0.43797 0.47185 0.56761 0.0
H1677 H 0.44985 0.39316 0.55953 0.0
H1678 H 0.39612 0.40122 0.53557 0.0
H1679 H 0.37077 0.466 0.55206 0.0
C1680 C 0.39878 0.49019 0.56305 0.0
C1681 C 0.38775 0.402 0.57442 0.0
C1682 C 0.44618 0.46386 0.53488 0.0
C1683 C 0.42732 0.37572 0.54407 0.0
H1684 H 0.36845 0.43976 0.588 0.0
H1685 H 0.37446 0.48834 0.58187 0.0
H1686 H 0.4145 0.53383 0.55171 0.0
H1687 H 0.44093 0.51913 0.53641 0.0
H1688 H 0.46814 0.42574 0.52232 0.0
H1689 H 0.45811 0.37728 0.52736 0.0
H1690 H 0.40782 0.33227 0.55423 0.0
H1691 H 0.38634 0.347 0.57103 0.0
H1692 H 0.3637 0.40165 0.52472 0.0
H1693 H 0.33806 0.46733 0.54142 0.0
H1694 H 0.48067 0.39083 0.57137 0.0
H1695 H 0.46943 0.47123 0.57908 0.0
C1696 C 0.09648 0.36979 0.41202 0.0
C1697 C 0.11456 0.38189 0.41705 0.0
C1698 C 0.10054 0.35263 0.40398 0.0
C1699 C 0.14178 0.33218 0.38468 0.0
H1700 H 0.11094 0.26591 0.38676 0.0
C1701 C 0.15941 0.24709 0.35673 0.0
C1702 C 0.14062 0.2324 0.35355 0.0
C1703 C 0.15729 0.26549 0.36454 0.0
C1704 C 0.11947 0.28441 0.38597 0.0
H1705 H 0.15091 0.38624 0.41763 0.0
H1706 H 0.15812 0.35644 0.40332 0.0
H1707 H 0.10491 0.29883 0.39981 0.0
H1708 H 0.10498 0.22522 0.35631 0.0
H1709 H 0.10109 0.25778 0.36958 0.0
H1710 H 0.15598 0.31797 0.37071 0.0
C1711 C 0.14083 0.3603 0.40559 0.0
C1712 C 0.11604 0.30325 0.39347 0.0
C1713 C 0.13675 0.37731 0.41372 0.0
C1714 C 0.11974 0.23643 0.35843 0.0
C1715 C 0.11759 0.25489 0.36617 0.0
C1716 C 0.14505 0.31339 0.37709 0.0
C1717 C 0.12277 0.34736 0.40079 0.0
C1718 C 0.12699 0.32739 0.39287 0.0
C1719 C 0.13631 0.26966 0.36934 0.0
C1720 C 0.13376 0.28934 0.3776 0.0
H1721 H 0.07925 0.37304 0.41453 0.0
H1722 H 0.08631 0.34316 0.40034 0.0
H1723 H 0.15037 0.35069 0.38403 0.0
H1724 H 0.17571 0.24467 0.35308 0.0
H1725 H 0.17212 0.27631 0.36686 0.0
C1726 C 0.01303 0.924 0.59593 0.0
C1727 C 0.0263 0.90135 0.59559 0.0
C1728 C 0.99659 0.92713 0.60351 0.0
C1729 C 0.98358 0.90648 0.62945 0.0
H1730 H 0.9207 0.92097 0.62323 0.0
C1731 C 0.91372 0.88142 0.65749 0.0
C1732 C 0.8954 0.89843 0.65882 0.0
C1733 C 0.92956 0.88575 0.64982 0.0
C1734 C 0.93827 0.91744 0.6251 0.0
H1735 H 0.0329 0.86432 0.60288 0.0
H1736 H 0.00439 0.86988 0.61617 0.0
H1737 H 0.94886 0.92125 0.60947 0.0
H1738 H 0.87907 0.93312 0.65302 0.0
H1739 H 0.90707 0.9408 0.6395 0.0
H1740 H 0.97323 0.9024 0.64499 0.0
C1741 C 0.00663 0.88514 0.61056 0.0
C1742 C 0.95432 0.91752 0.61724 0.0
C1743 C 0.02278 0.88186 0.60291 0.0
C1744 C 0.89304 0.91971 0.65217 0.0
C1745 C 0.90903 0.92408 0.64444 0.0
C1746 C 0.96766 0.90662 0.63728 0.0
C1747 C 0.99352 0.90785 0.61098 0.0
C1748 C 0.97697 0.91123 0.61933 0.0
C1749 C 0.92756 0.90721 0.64327 0.0
C1750 C 0.94471 0.91121 0.63515 0.0
H1751 H 0.01539 0.93925 0.59032 0.0
H1752 H 0.98666 0.9448 0.6037 0.0
H1753 H 0.00104 0.90209 0.63127 0.0
H1754 H 0.91567 0.86442 0.66229 0.0
H1755 H 0.94325 0.87194 0.64894 0.0
C1756 C 0.40299 0.6238 0.90981 0.0
C1757 C 0.38467 0.61325 0.91518 0.0
C1758 C 0.39927 0.63993 0.90141 0.0
C1759 C 0.35665 0.66101 0.88247 0.0
H1760 H 0.39256 0.72403 0.88204 0.0
C1761 C 0.33783 0.74734 0.85525 0.0
C1762 C 0.35656 0.75994 0.85085 0.0
C1763 C 0.34089 0.72843 0.86281 0.0
C1764 C 0.38259 0.70639 0.88195 0.0
H1765 H 0.34824 0.61056 0.91603 0.0
H1766 H 0.34157 0.63889 0.90125 0.0
H1767 H 0.39872 0.69208 0.89544 0.0
H1768 H 0.39317 0.7626 0.85102 0.0
H1769 H 0.3985 0.7293 0.86396 0.0
H1770 H 0.34048 0.67545 0.86895 0.0
C1771 C 0.35881 0.63449 0.90344 0.0
C1772 C 0.38613 0.68806 0.88964 0.0
C1773 C 0.36256 0.61834 0.91187 0.0
C1774 C 0.37838 0.75309 0.85415 0.0
C1775 C 0.38143 0.7342 0.86167 0.0
C1776 C 0.35313 0.67937 0.87474 0.0
C1777 C 0.37714 0.6459 0.89825 0.0
C1778 C 0.37328 0.66511 0.88997 0.0
C1779 C 0.36274 0.72175 0.86614 0.0
C1780 C 0.36614 0.70223 0.87438 0.0
H1781 H 0.42016 0.62011 0.91231 0.0
H1782 H 0.41374 0.6481 0.89748 0.0
H1783 H 0.34659 0.64343 0.88249 0.0
H1784 H 0.3208 0.75198 0.85282 0.0
H1785 H 0.32612 0.71936 0.86616 0.0
C1786 C 0.47193 0.11987 0.10233 0.0
C1787 C 0.46917 0.10034 0.09495 0.0
C1788 C 0.48793 0.11714 0.11007 0.0
C1789 C 0.54075 0.08539 0.11705 0.0
H1790 H 0.52167 0.10239 0.1446 0.0
C1791 C 0.60121 0.08299 0.15226 0.0
C1792 C 0.59928 0.10463 0.15876 0.0
C1793 C 0.58531 0.07886 0.14448 0.0
C1794 C 0.52729 0.09766 0.13695 0.0
H1795 H 0.48132 0.0629 0.08973 0.0
H1796 H 0.50965 0.05823 0.1033 0.0
H1797 H 0.49402 0.10222 0.13081 0.0
H1798 H 0.57983 0.13947 0.1619 0.0
H1799 H 0.55234 0.1323 0.14847 0.0
H1800 H 0.57424 0.08168 0.12317 0.0
C1801 C 0.49928 0.07556 0.10307 0.0
C1802 C 0.51146 0.09755 0.12907 0.0
C1803 C 0.48304 0.07817 0.09537 0.0
C1804 C 0.58144 0.1222 0.15723 0.0
C1805 C 0.56566 0.1181 0.14951 0.0
C1806 C 0.5567 0.08565 0.12496 0.0
C1807 C 0.50164 0.09489 0.11057 0.0
C1808 C 0.51813 0.09208 0.119 0.0
C1809 C 0.56727 0.09631 0.1431 0.0
C1810 C 0.55019 0.0925 0.13494 0.0
H1811 H 0.46134 0.13704 0.10225 0.0
H1812 H 0.4896 0.13248 0.11569 0.0
H1813 H 0.5463 0.08112 0.10934 0.0
H1814 H 0.61479 0.06911 0.15328 0.0
H1815 H 0.58695 0.06188 0.13966 0.0
C1816 C 0.15182 0.76021 0.13698 0.0
C1817 C 0.1461 0.75588 0.14725 0.0
C1818 C 0.14983 0.74027 0.12979 0.0
C1819 C 0.12033 0.67779 0.12554 0.0
H1820 H 0.16154 0.67296 0.10259 0.0
C1821 C 0.09813 0.6218 0.08887 0.0
C1822 C 0.11546 0.60953 0.0834 0.0
C1823 C 0.10313 0.63671 0.09749 0.0
C1824 C 0.15006 0.67371 0.10902 0.0
H1825 H 0.13462 0.72705 0.15814 0.0
H1826 H 0.13155 0.69205 0.14565 0.0
H1827 H 0.16882 0.70437 0.11608 0.0
H1828 H 0.15147 0.60259 0.0826 0.0
H1829 H 0.16035 0.62808 0.0979 0.0
H1830 H 0.10177 0.64686 0.11857 0.0
C1831 C 0.13703 0.71102 0.14307 0.0
C1832 C 0.15405 0.69203 0.1167 0.0
C1833 C 0.13883 0.73104 0.15024 0.0
C1834 C 0.13785 0.61174 0.08681 0.0
C1835 C 0.14289 0.62655 0.09548 0.0
C1836 C 0.11643 0.65936 0.11791 0.0
C1837 C 0.14226 0.71545 0.13273 0.0
C1838 C 0.13902 0.69462 0.12497 0.0
C1839 C 0.12562 0.6396 0.10082 0.0
C1840 C 0.131 0.6574 0.10946 0.0
H1841 H 0.15723 0.77925 0.13443 0.0
H1842 H 0.15363 0.74456 0.12187 0.0
H1843 H 0.10827 0.67933 0.13174 0.0
H1844 H 0.08077 0.62051 0.08627 0.0
H1845 H 0.08943 0.64679 0.10128 0.0
C1846 C 0.47772 0.87944 0.39946 0.0
C1847 C 0.47422 0.89932 0.40662 0.0
C1848 C 0.49444 0.88187 0.39202 0.0
C1849 C 0.54757 0.91313 0.38544 0.0
H1850 H 0.52871 0.89817 0.35767 0.0
C1851 C 0.60803 0.91743 0.35013 0.0
C1852 C 0.60546 0.89673 0.34322 0.0
C1853 C 0.59253 0.92082 0.35813 0.0
C1854 C 0.5343 0.90228 0.36539 0.0
H1855 H 0.48591 0.93695 0.41186 0.0
H1856 H 0.51554 0.94105 0.39882 0.0
H1857 H 0.50088 0.89788 0.37136 0.0
H1858 H 0.5856 0.86252 0.33962 0.0
H1859 H 0.5589 0.86825 0.35349 0.0
H1860 H 0.58122 0.91665 0.37946 0.0
C1861 C 0.50518 0.9237 0.39898 0.0
C1862 C 0.51835 0.90215 0.37321 0.0
C1863 C 0.4882 0.92142 0.40637 0.0
C1864 C 0.58763 0.87909 0.34464 0.0
C1865 C 0.57231 0.8824 0.35259 0.0
C1866 C 0.56366 0.91305 0.37758 0.0
C1867 C 0.50814 0.90413 0.39163 0.0
C1868 C 0.52491 0.90695 0.38333 0.0
C1869 C 0.57432 0.90349 0.35933 0.0
C1870 C 0.55724 0.90693 0.36752 0.0
H1871 H 0.46708 0.86231 0.39942 0.0
H1872 H 0.49656 0.86638 0.3865 0.0
H1873 H 0.55299 0.91692 0.3932 0.0
H1874 H 0.62169 0.93125 0.34921 0.0
H1875 H 0.5945 0.93724 0.36322 0.0
C1876 C 0.33281 0.25572 0.64415 0.0
C1877 C 0.35189 0.24373 0.64849 0.0
C1878 C 0.3353 0.27552 0.63692 0.0
C1879 C 0.37659 0.32327 0.62692 0.0
H1880 H 0.3396 0.32099 0.60248 0.0
C1881 C 0.3998 0.37806 0.59003 0.0
C1882 C 0.38232 0.38872 0.58415 0.0
C1883 C 0.39484 0.36313 0.59865 0.0
C1884 C 0.3498 0.3222 0.60933 0.0
H1885 H 0.38857 0.24299 0.64854 0.0
H1886 H 0.3929 0.27747 0.63596 0.0
H1887 H 0.3332 0.28948 0.61607 0.0
H1888 H 0.34611 0.39274 0.58257 0.0
H1889 H 0.33725 0.36681 0.59779 0.0
H1890 H 0.39345 0.35572 0.6201 0.0
C1891 C 0.376 0.2719 0.63827 0.0
C1892 C 0.34615 0.30411 0.61712 0.0
C1893 C 0.37351 0.25211 0.64548 0.0
C1894 C 0.35979 0.38477 0.58709 0.0
C1895 C 0.35479 0.3698 0.59572 0.0
C1896 C 0.38023 0.34137 0.61914 0.0
C1897 C 0.35694 0.28378 0.63388 0.0
C1898 C 0.35973 0.30418 0.62594 0.0
C1899 C 0.37227 0.35851 0.60152 0.0
C1900 C 0.36711 0.34081 0.61019 0.0
H1901 H 0.31592 0.24998 0.64641 0.0
H1902 H 0.32028 0.28449 0.63376 0.0
H1903 H 0.38708 0.32413 0.6337 0.0
H1904 H 0.41728 0.38073 0.58778 0.0
H1905 H 0.40869 0.35443 0.60285 0.0
C1906 C 0.02609 0.11308 0.89443 0.0
C1907 C 0.02966 0.09377 0.90182 0.0
C1908 C 0.00964 0.10982 0.88692 0.0
C1909 C 0.95653 0.07844 0.88094 0.0
H1910 H 0.97389 0.09363 0.85298 0.0
C1911 C 0.89313 0.07906 0.8467 0.0
C1912 C 0.89553 0.10063 0.84019 0.0
C1913 C 0.90941 0.07394 0.85423 0.0
C1914 C 0.96875 0.08936 0.86075 0.0
H1915 H 0.01859 0.05615 0.90733 0.0
H1916 H 0.98929 0.05064 0.89418 0.0
H1917 H 0.00261 0.0928 0.86632 0.0
H1918 H 0.91615 0.13442 0.83682 0.0
H1919 H 0.94426 0.12557 0.84982 0.0
H1920 H 0.92244 0.07611 0.87539 0.0
C1921 C -0.00056 0.06815 0.89421 0.0
C1922 C 0.98519 0.08884 0.86836 0.0
C1923 C 0.0162 0.07125 0.90167 0.0
C1924 C 0.91415 0.11721 0.8415 0.0
C1925 C 0.93029 0.11213 0.84896 0.0
C1926 C 0.93996 0.07914 0.8733 0.0
C1927 C 0.99625 0.0873 0.88671 0.0
C1928 C 0.97915 0.08415 0.87856 0.0
C1929 C 0.92828 0.09033 0.85534 0.0
C1930 C 0.94586 0.08545 0.86318 0.0
H1931 H 0.03635 0.13051 0.89433 0.0
H1932 H 0.00732 0.125 0.88128 0.0
H1933 H 0.95149 0.07477 0.88877 0.0
H1934 H 0.87893 0.06596 0.84586 0.0
H1935 H 0.90743 0.05701 0.85906 0.0
C1936 C 0.83862 0.6635 0.59726 0.0
C1937 C 0.86076 0.65441 0.59596 0.0
C1938 C 0.83277 0.67742 0.60604 0.0
C1939 C 0.85136 0.69284 0.6324 0.0
H1940 H 0.81802 0.75679 0.6281 0.0
C1941 C 0.82476 0.76032 0.66571 0.0
C1942 C 0.82872 0.78687 0.66415 0.0
C1943 C 0.82688 0.74278 0.65761 0.0
C1944 C 0.82736 0.73901 0.62942 0.0
H1945 H 0.89408 0.65202 0.60266 0.0
H1946 H 0.88397 0.67633 0.61808 0.0
H1947 H 0.82504 0.72777 0.61372 0.0
H1948 H 0.83765 0.81623 0.65304 0.0
H1949 H 0.84136 0.78565 0.63882 0.0
H1950 H 0.8542 0.70447 0.64806 0.0
C1951 C 0.87101 0.67254 0.61243 0.0
C1952 C 0.83116 0.72223 0.62121 0.0
C1953 C 0.87685 0.65873 0.60362 0.0
C1954 C 0.83449 0.79577 0.65437 0.0
C1955 C 0.83648 0.7783 0.64625 0.0
C1956 C 0.84745 0.70956 0.64063 0.0
C1957 C 0.849 0.68242 0.61366 0.0
C1958 C 0.84346 0.69912 0.62257 0.0
C1959 C 0.83281 0.75158 0.64779 0.0
C1960 C 0.83568 0.73301 0.6392 0.0
H1961 H 0.82606 0.66041 0.59135 0.0
H1962 H 0.81563 0.68456 0.60682 0.0
H1963 H 0.86073 0.67507 0.63371 0.0
H1964 H 0.82015 0.75318 0.67322 0.0
H1965 H 0.82373 0.72236 0.65901 0.0
C1966 C 0.11522 0.12054 0.35539 0.0
C1967 C 0.11003 0.1052 0.34686 0.0
C1968 C 0.10445 0.11609 0.36472 0.0
C1969 C 0.06759 0.06886 0.37863 0.0
H1970 H 0.0493 0.13057 0.39345 0.0
C1971 C 0.0138 0.06236 0.41541 0.0
C1972 C 0.9967 0.08107 0.41654 0.0
C1973 C 0.03018 0.06506 0.40778 0.0
C1974 C 0.05412 0.11311 0.38938 0.0
H1975 H 0.09078 0.07234 0.34139 0.0
H1976 H 0.07107 0.06514 0.35754 0.0
H1977 H 0.07299 0.13482 0.37843 0.0
H1978 H 0.98317 0.1171 0.41059 0.0
H1979 H 0.01123 0.12152 0.39711 0.0
H1980 H 0.0475 0.04731 0.38924 0.0
C1981 C 0.08367 0.08036 0.35716 0.0
C1982 C 0.06807 0.11552 0.38083 0.0
C1983 C 0.09471 0.08461 0.34787 0.0
C1984 C 0.99638 0.10261 0.40998 0.0
C1985 C 0.01255 0.10515 0.40228 0.0
C1986 C 0.05338 0.06649 0.38712 0.0
C1987 C 0.0881 0.09635 0.36567 0.0
C1988 C 0.07476 0.09346 0.37526 0.0
C1989 C 0.02962 0.08637 0.40104 0.0
C1990 C 0.04618 0.08863 0.39251 0.0
H1991 H 0.12725 0.13634 0.35475 0.0
H1992 H 0.10873 0.12838 0.37115 0.0
H1993 H 0.07269 0.05139 0.37465 0.0
H1994 H 0.01452 0.04568 0.42045 0.0
H1995 H 0.04328 0.05045 0.40717 0.0
C1996 C 0.65851 0.34285 0.09883 0.0
C1997 C 0.6366 0.34475 0.0948 0.0
C1998 C 0.66238 0.32919 0.1079 0.0
C1999 C 0.63231 0.29876 0.13011 0.0
H2000 H 0.6878 0.25905 0.13239 0.0
C2001 C 0.64529 0.21331 0.15821 0.0
C2002 C 0.66472 0.21458 0.16434 0.0
C2003 C 0.6422 0.2309 0.1502 0.0
C2004 C 0.67232 0.27023 0.13188 0.0
H2005 H 0.60163 0.33381 0.0969 0.0
H2006 H 0.60834 0.30894 0.11245 0.0
H2007 H 0.68171 0.28662 0.1175 0.0
H2008 H 0.69603 0.23518 0.16708 0.0
H2009 H 0.69106 0.2655 0.15274 0.0
H2010 H 0.6226 0.28112 0.1443 0.0
C2011 C 0.62252 0.31874 0.10892 0.0
C2012 C 0.66884 0.2862 0.12338 0.0
C2013 C 0.61863 0.33279 0.09996 0.0
C2014 C 0.68105 0.23372 0.16235 0.0
C2015 C 0.67819 0.25099 0.1542 0.0
C2016 C 0.63563 0.2824 0.1385 0.0
C2017 C 0.64448 0.31661 0.11301 0.0
C2018 C 0.64871 0.30059 0.12233 0.0
C2019 C 0.6587 0.24978 0.14809 0.0
C2020 C 0.65561 0.26791 0.13942 0.0
H2021 H 0.67266 0.35167 0.09488 0.0
H2022 H 0.67945 0.3284 0.11087 0.0
H2023 H 0.61683 0.30994 0.12973 0.0
H2024 H 0.63249 0.19868 0.15964 0.0
H2025 H 0.6271 0.2295 0.14554 0.0
C2026 C 0.48381 0.91735 0.91514 0.0
C2027 C 0.50329 0.93275 0.91395 0.0
C2028 C 0.46812 0.91499 0.9072 0.0
C2029 C 0.46387 0.92297 0.87912 0.0
H2030 H 0.39957 0.91519 0.88405 0.0
C2031 C 0.40034 0.91645 0.84604 0.0
C2032 C 0.38586 0.89494 0.84651 0.0
C2033 C 0.41285 0.9238 0.85462 0.0
C2034 C 0.4175 0.91732 0.88258 0.0
H2035 H 0.52124 0.958 0.9034 0.0
H2036 H 0.4935 0.95487 0.88983 0.0
H2037 H 0.42509 0.92308 0.89842 0.0
H2038 H 0.37182 0.86515 0.85628 0.0
H2039 H 0.39355 0.87816 0.87141 0.0
H2040 H 0.45626 0.91733 0.8633 0.0
C2041 C 0.49056 0.94409 0.89682 0.0
C2042 C 0.43214 0.92171 0.8908 0.0
C2043 C 0.50634 0.94623 0.9047 0.0
C2044 C 0.38302 0.88176 0.8558 0.0
C2045 C 0.39536 0.88926 0.86442 0.0
C2046 C 0.44924 0.91888 0.87092 0.0
C2047 C 0.47143 0.92812 0.89789 0.0
C2048 C 0.45556 0.92442 0.88918 0.0
C2049 C 0.41081 0.90995 0.86384 0.0
C2050 C 0.42594 0.91583 0.87256 0.0
H2051 H 0.4807 0.90699 0.9222 0.0
H2052 H 0.4537 0.90232 0.90828 0.0
H2053 H 0.48182 0.92435 0.87757 0.0
H2054 H 0.40252 0.92698 0.83894 0.0
H2055 H 0.42444 0.94003 0.854 0.0
C2056 C 0.87403 0.34559 0.89467 0.0
C2057 C 0.85797 0.3499 0.90235 0.0
C2058 C 0.86839 0.331 0.88604 0.0
C2059 C 0.82945 0.27973 0.87776 0.0
H2060 H 0.85165 0.29706 0.85071 0.0
C2061 C 0.83345 0.20511 0.84496 0.0
C2062 C 0.82752 0.21358 0.83514 0.0
C2063 C 0.8352 0.22288 0.85299 0.0
C2064 C 0.84513 0.29208 0.85819 0.0
H2065 H 0.82353 0.34301 0.90716 0.0
H2066 H 0.81345 0.31748 0.89199 0.0
H2067 H 0.85785 0.32716 0.86486 0.0
H2068 H 0.81842 0.2468 0.82591 0.0
H2069 H 0.82152 0.27813 0.83997 0.0
H2070 H 0.81683 0.24461 0.87111 0.0
C2071 C 0.83041 0.32523 0.89263 0.0
C2072 C 0.84886 0.3092 0.86631 0.0
C2073 C 0.83606 0.33992 0.90125 0.0
C2074 C 0.82314 0.24 0.83345 0.0
C2075 C 0.825 0.25783 0.84147 0.0
C2076 C 0.82581 0.26257 0.86965 0.0
C2077 C 0.84661 0.32034 0.88499 0.0
C2078 C 0.84127 0.3031 0.87621 0.0
C2079 C 0.83113 0.24947 0.85132 0.0
C2080 C 0.83382 0.26841 0.8598 0.0
H2081 H 0.89108 0.35299 0.89548 0.0
H2082 H 0.88133 0.32731 0.88037 0.0
H2083 H 0.82357 0.27434 0.8853 0.0
H2084 H 0.83694 0.18477 0.84638 0.0
H2085 H 0.84024 0.21587 0.86046 0.0
C2086 C 0.38272 0.12304 0.64249 0.0
C2087 C 0.3864 0.11014 0.65179 0.0
C2088 C 0.39563 0.11676 0.6339 0.0
C2089 C 0.45144 0.09343 0.62729 0.0
H2090 H 0.42726 0.08379 0.59999 0.0
C2091 C 0.50627 0.10089 0.59107 0.0
C2092 C 0.50484 0.07983 0.58429 0.0
C2093 C 0.49082 0.10338 0.59908 0.0
C2094 C 0.43418 0.08637 0.60759 0.0
H2095 H 0.40524 0.07971 0.65936 0.0
H2096 H 0.42834 0.06908 0.64436 0.0
H2097 H 0.40135 0.08914 0.61449 0.0
H2098 H 0.48587 0.04525 0.58034 0.0
H2099 H 0.45842 0.04995 0.59429 0.0
H2100 H 0.48423 0.09132 0.62039 0.0
C2101 C 0.41558 0.08409 0.64373 0.0
C2102 C 0.41941 0.08951 0.61585 0.0
C2103 C 0.40243 0.09011 0.65228 0.0
C2104 C 0.48734 0.06162 0.58551 0.0
C2105 C 0.47163 0.06436 0.59342 0.0
C2106 C 0.46617 0.09074 0.61903 0.0
C2107 C 0.41254 0.09765 0.63451 0.0
C2108 C 0.42794 0.09311 0.62577 0.0
C2109 C 0.47345 0.08506 0.60036 0.0
C2110 C 0.45769 0.0873 0.6091 0.0
H2111 H 0.37031 0.13847 0.64198 0.0
H2112 H 0.39303 0.12757 0.62689 0.0
H2113 H 0.45844 0.09642 0.63485 0.0
H2114 H 0.51972 0.11506 0.59035 0.0
H2115 H 0.49247 0.11961 0.6043 0.0
C2116 C 0.65902 0.79805 0.34477 0.0
C2117 C 0.66562 0.78821 0.33525 0.0
C2118 C 0.65587 0.78131 0.35305 0.0
C2119 C 0.67017 0.71588 0.36273 0.0
H2120 H 0.61846 0.72749 0.38036 0.0
C2121 C 0.61825 0.6639 0.39813 0.0
C2122 C 0.63634 0.65721 0.40452 0.0
C2123 C 0.62204 0.67823 0.38923 0.0
C2124 C 0.63286 0.7238 0.37546 0.0
H2125 H 0.6745 0.75363 0.32678 0.0
H2126 H 0.66879 0.72406 0.34126 0.0
H2127 H 0.62463 0.7558 0.36573 0.0
H2128 H 0.67248 0.65975 0.40675 0.0
H2129 H 0.67929 0.685 0.39115 0.0
H2130 H 0.67821 0.68364 0.37243 0.0
C2131 C 0.66622 0.74468 0.34239 0.0
C2132 C 0.63656 0.74025 0.36715 0.0
C2133 C 0.66936 0.76148 0.3341 0.0
C2134 C 0.65837 0.66453 0.40181 0.0
C2135 C 0.66221 0.67889 0.3929 0.0
C2136 C 0.66648 0.69943 0.37108 0.0
C2137 C 0.65928 0.7544 0.35194 0.0
C2138 C 0.6553 0.73657 0.3607 0.0
C2139 C 0.64403 0.68625 0.38659 0.0
C2140 C 0.64779 0.70323 0.37755 0.0
H2141 H 0.65619 0.81869 0.34577 0.0
H2142 H 0.65087 0.78946 0.36033 0.0
H2143 H 0.68486 0.71264 0.35795 0.0
H2144 H 0.60112 0.65845 0.40014 0.0
H2145 H 0.60772 0.68325 0.38446 0.0
C2146 C 0.10563 0.86397 0.14363 0.0
C2147 C 0.11363 0.8854 0.14915 0.0
C2148 C 0.0936 0.86763 0.13458 0.0
C2149 C 0.08088 0.91432 0.11408 0.0
H2150 H 0.02462 0.87595 0.11217 0.0
C2151 C 0.01172 0.93714 0.08402 0.0
C2152 C 0.99918 0.91624 0.08005 0.0
C2153 C 0.02744 0.93316 0.09185 0.0
C2154 C 0.04045 0.88649 0.11247 0.0
H2155 H 0.11584 0.9273 0.14966 0.0
H2156 H 0.09485 0.93387 0.13367 0.0
H2157 H 0.04924 0.86937 0.12681 0.0
H2158 H 0.99382 0.8746 0.08108 0.0
H2159 H 0.02176 0.86755 0.09437 0.0
H2160 H 0.07208 0.9314 0.09969 0.0
C2161 C 0.09805 0.91425 0.13629 0.0
C2162 C 0.05453 0.88276 0.12089 0.0
C2163 C 0.10999 0.91056 0.1454 0.0
C2164 C 0.0033 0.89114 0.08386 0.0
C2165 C 0.01911 0.88714 0.09161 0.0
C2166 C 0.06684 0.91793 0.10559 0.0
C2167 C 0.08939 0.89282 0.13089 0.0
C2168 C 0.07486 0.89663 0.12179 0.0
C2169 C 0.03106 0.90815 0.09585 0.0
C2170 C 0.04643 0.90406 0.1047 0.0
H2171 H 0.10827 0.84442 0.14647 0.0
H2172 H 0.08734 0.85077 0.13052 0.0
H2173 H 0.09655 0.92514 0.11457 0.0
H2174 H 0.00924 0.95668 0.08117 0.0
H2175 H 0.03623 0.94981 0.09497 0.0
C2176 C 0.63942 0.76638 0.84944 0.0
C2177 C 0.64612 0.74135 0.85246 0.0
C2178 C 0.63767 0.78638 0.85661 0.0
C2179 C 0.65371 0.80499 0.88314 0.0
H2180 H 0.60209 0.851 0.88075 0.0
C2181 C 0.63755 0.88686 0.91243 0.0
C2182 C 0.61507 0.88974 0.91564 0.0
C2183 C 0.64268 0.87135 0.90396 0.0
C2184 C 0.61655 0.83827 0.88156 0.0
H2185 H 0.65642 0.71766 0.86532 0.0
H2186 H 0.6529 0.75238 0.8779 0.0
H2187 H 0.60872 0.81829 0.8677 0.0
H2188 H 0.58033 0.87914 0.91265 0.0
H2189 H 0.58916 0.85167 0.89799 0.0
H2190 H 0.66088 0.82415 0.89727 0.0
C2191 C 0.64948 0.75679 0.86996 0.0
C2192 C 0.62054 0.81969 0.87399 0.0
C2193 C 0.65142 0.73684 0.86277 0.0
C2194 C 0.59776 0.87733 0.9102 0.0
C2195 C 0.60286 0.86174 0.90178 0.0
C2196 C 0.64964 0.82347 0.89075 0.0
C2197 C 0.64238 0.78177 0.86699 0.0
C2198 C 0.63902 0.80259 0.87474 0.0
C2199 C 0.62541 0.85829 0.89862 0.0
C2200 C 0.63083 0.84011 0.89012 0.0
H2201 H 0.63558 0.77051 0.84151 0.0
H2202 H 0.6326 0.80548 0.854 0.0
H2203 H 0.6683 0.79242 0.88389 0.0
H2204 H 0.65113 0.89613 0.91662 0.0
H2205 H 0.66019 0.86938 0.90167 0.0
C2206 C 0.51252 0.41793 0.09306 0.0
C2207 C 0.52544 0.39525 0.09167 0.0
C2208 C 0.49545 0.41877 0.10046 0.0
C2209 C 0.47919 0.38704 0.1245 0.0
H2210 H 0.41941 0.41541 0.11954 0.0
C2211 C 0.40605 0.36385 0.151 0.0
C2212 C 0.39273 0.38456 0.15454 0.0
C2213 C 0.42118 0.36743 0.14299 0.0
C2214 C 0.43613 0.40774 0.12104 0.0
H2215 H 0.53045 0.35568 0.0969 0.0
H2216 H 0.50055 0.357 0.10961 0.0
H2217 H 0.44822 0.41746 0.10605 0.0
H2218 H 0.3839 0.42494 0.1521 0.0
H2219 H 0.41058 0.43124 0.13791 0.0
H2220 H 0.46721 0.37695 0.13937 0.0
C2221 C 0.50372 0.37421 0.10507 0.0
C2222 C 0.45258 0.4089 0.11335 0.0
C2223 C 0.52067 0.37335 0.09769 0.0
C2224 C 0.39402 0.40868 0.14953 0.0
C2225 C 0.40924 0.41227 0.14144 0.0
C2226 C 0.46283 0.38584 0.13213 0.0
C2227 C 0.49115 0.39702 0.10665 0.0
C2228 C 0.47411 0.398 0.11495 0.0
C2229 C 0.42334 0.3918 0.13828 0.0
C2230 C 0.441 0.39561 0.13041 0.0
H2231 H 0.51566 0.43504 0.08846 0.0
H2232 H 0.48604 0.43662 0.10153 0.0
H2233 H 0.4958 0.37911 0.12605 0.0
H2234 H 0.40497 0.34484 0.15453 0.0
H2235 H 0.43142 0.35113 0.14054 0.0
C2236 C 0.86185 0.11797 0.41307 0.0
C2237 C 0.88394 0.11611 0.41688 0.0
C2238 C 0.85729 0.13331 0.40449 0.0
C2239 C 0.88519 0.16734 0.38274 0.0
H2240 H 0.83106 0.20978 0.38318 0.0
C2241 C 0.8628 0.23548 0.34924 0.0
C2242 C 0.85422 0.26011 0.35177 0.0
C2243 C 0.86488 0.21619 0.3567 0.0
C2244 C 0.84633 0.19818 0.38296 0.0
H2245 H 0.91858 0.12854 0.41489 0.0
H2246 H 0.91071 0.15575 0.40003 0.0
H2247 H 0.8381 0.17926 0.39703 0.0
H2248 H 0.84106 0.28382 0.36408 0.0
H2249 H 0.84508 0.2504 0.37715 0.0
H2250 H 0.89396 0.18709 0.36894 0.0
C2251 C 0.89692 0.14498 0.40344 0.0
C2252 C 0.85021 0.18038 0.39084 0.0
C2253 C 0.90145 0.12955 0.41197 0.0
C2254 C 0.84748 0.26493 0.36188 0.0
C2255 C 0.84973 0.24571 0.36936 0.0
C2256 C 0.88138 0.18525 0.3749 0.0
C2257 C 0.87474 0.14725 0.39963 0.0
C2258 C 0.86983 0.16493 0.39089 0.0
C2259 C 0.85861 0.22114 0.36689 0.0
C2260 C 0.86201 0.2011 0.37496 0.0
H2261 H 0.8481 0.10792 0.41685 0.0
H2262 H 0.84008 0.13436 0.4017 0.0
H2263 H 0.90032 0.15551 0.38245 0.0
H2264 H 0.86782 0.23109 0.34147 0.0
H2265 H 0.87137 0.19737 0.35446 0.0
C2266 C 0.11614 0.59244 0.64565 0.0
C2267 C 0.11101 0.58417 0.65563 0.0
C2268 C 0.10076 0.58844 0.6377 0.0
C2269 C 0.03992 0.58419 0.63448 0.0
H2270 H 0.05392 0.56996 0.60607 0.0
C2271 C 0.98061 0.61415 0.60193 0.0
C2272 C 0.97572 0.59527 0.59451 0.0
C2273 C 0.99774 0.60997 0.60907 0.0
C2274 C 0.04978 0.57377 0.61399 0.0
H2275 H 0.0868 0.56304 0.66488 0.0
H2276 H 0.05991 0.55614 0.651 0.0
H2277 H 0.0834 0.565 0.61911 0.0
H2278 H 0.98532 0.55759 0.58853 0.0
H2279 H 0.01552 0.55035 0.60103 0.0
H2280 H 0.00652 0.59346 0.6294 0.0
C2281 C 0.07562 0.56614 0.64938 0.0
C2282 C 0.06662 0.57105 0.62143 0.0
C2283 C 0.091 0.5701 0.65732 0.0
C2284 C 0.98864 0.57236 0.59423 0.0
C2285 C 0.00598 0.5683 0.60131 0.0
C2286 C 0.02321 0.58714 0.62706 0.0
C2287 C 0.07996 0.57613 0.63958 0.0
C2288 C 0.06189 0.57647 0.63174 0.0
C2289 C 0.01048 0.58693 0.60888 0.0
C2290 C 0.02803 0.5823 0.61674 0.0
H2291 H 0.13134 0.60351 0.64412 0.0
H2292 H 0.10451 0.59649 0.63024 0.0
H2293 H 0.03582 0.58885 0.64234 0.0
H2294 H 0.97081 0.63189 0.60237 0.0
H2295 H 0.00103 0.62478 0.61476 0.0
C2296 C 0.63592 0.11988 0.58672 0.0
C2297 C 0.61414 0.11614 0.58275 0.0
C2298 C 0.63929 0.13662 0.595 0.0
C2299 C 0.61386 0.1941 0.60673 0.0
H2300 H 0.65277 0.17895 0.62982 0.0
C2301 C 0.6182 0.26197 0.64152 0.0
C2302 C 0.63929 0.26598 0.64623 0.0
C2303 C 0.6156 0.24306 0.63398 0.0
C2304 C 0.64208 0.18361 0.62336 0.0
H2305 H 0.57879 0.12613 0.58429 0.0
H2306 H 0.58457 0.15538 0.59879 0.0
H2307 H 0.64731 0.14623 0.6165 0.0
H2308 H 0.67419 0.25303 0.64666 0.0
H2309 H 0.6698 0.22056 0.63324 0.0
H2310 H 0.60887 0.23152 0.61339 0.0
C2311 C 0.59906 0.14555 0.59552 0.0
C2312 C 0.63891 0.16483 0.61576 0.0
C2313 C 0.59571 0.12874 0.5873 0.0
C2314 C 0.65776 0.25066 0.64313 0.0
C2315 C 0.65517 0.23179 0.63553 0.0
C2316 C 0.61715 0.21289 0.61426 0.0
C2317 C 0.62094 0.15007 0.59933 0.0
C2318 C 0.62461 0.16983 0.60741 0.0
C2319 C 0.63404 0.22776 0.63086 0.0
C2320 C 0.63115 0.20785 0.62272 0.0
H2321 H 0.65036 0.11056 0.58318 0.0
H2322 H 0.65634 0.13989 0.59774 0.0
H2323 H 0.60312 0.19871 0.60028 0.0
H2324 H 0.60367 0.27362 0.6436 0.0
H2325 H 0.599 0.24028 0.63065 0.0
C2326 C 0.11599 0.42755 0.85038 0.0
C2327 C 0.1196 0.40182 0.84714 0.0
C2328 C 0.0996 0.43306 0.85784 0.0
C2329 C 0.06873 0.40105 0.87871 0.0
H2330 H 0.02106 0.45158 0.87435 0.0
C2331 C 0.98261 0.39035 0.89733 0.0
C2332 C 0.97317 0.41193 0.90233 0.0
C2333 C 0.00179 0.39311 0.89126 0.0
C2334 C 0.0345 0.43773 0.87574 0.0
H2335 H 0.10785 0.36204 0.8487 0.0
H2336 H 0.07991 0.37154 0.86167 0.0
H2337 H 0.05322 0.44973 0.86248 0.0
H2338 H 0.97622 0.45356 0.90461 0.0
H2339 H 0.00966 0.45841 0.8937 0.0
H2340 H 0.04973 0.38826 0.89166 0.0
C2341 C 0.09002 0.38738 0.8587 0.0
C2342 C 0.05287 0.43671 0.86898 0.0
C2343 C 0.10612 0.38194 0.85127 0.0
C2344 C 0.98297 0.43656 0.90081 0.0
C2345 C 0.00213 0.43937 0.89461 0.0
C2346 C 0.05045 0.402 0.8854 0.0
C2347 C 0.08676 0.41287 0.86216 0.0
C2348 C 0.06969 0.41769 0.87022 0.0
C2349 C 0.01191 0.41755 0.88994 0.0
C2350 C 0.03277 0.4197 0.88377 0.0
H2351 H 0.12605 0.44328 0.8473 0.0
H2352 H 0.09728 0.45291 0.86036 0.0
H2353 H 0.08172 0.38655 0.87996 0.0
H2354 H 0.97517 0.37123 0.8981 0.0
H2355 H 0.00871 0.37606 0.88755 0.0
C2356 C 0.90351 0.86448 0.08414 0.0
C2357 C 0.88616 0.87807 0.07915 0.0
C2358 C 0.89854 0.84801 0.09232 0.0
C2359 C 0.85644 0.83348 0.11211 0.0
H2360 H 0.88314 0.76466 0.11156 0.0
C2361 C 0.85629 0.7627 0.14661 0.0
C2362 C 0.85141 0.7365 0.14454 0.0
C2363 C 0.85891 0.78052 0.13863 0.0
C2364 C 0.87545 0.78375 0.11179 0.0
H2365 H 0.85017 0.88541 0.07872 0.0
H2366 H 0.84141 0.85687 0.09323 0.0
H2367 H 0.89121 0.79522 0.09777 0.0
H2368 H 0.84521 0.70848 0.1325 0.0
H2369 H 0.84993 0.73961 0.11854 0.0
H2370 H 0.8408 0.82198 0.12619 0.0
C2371 C 0.85884 0.85906 0.09084 0.0
C2372 C 0.88024 0.80132 0.10395 0.0
C2373 C 0.8638 0.87534 0.08257 0.0
C2374 C 0.84883 0.72857 0.13433 0.0
C2375 C 0.85171 0.74633 0.12635 0.0
C2376 C 0.85185 0.81598 0.12003 0.0
C2377 C 0.87614 0.84494 0.09569 0.0
C2378 C 0.87083 0.82638 0.10403 0.0
C2379 C 0.85696 0.77243 0.12841 0.0
C2380 C 0.86131 0.79093 0.11994 0.0
H2381 H 0.92085 0.86629 0.08157 0.0
H2382 H 0.91223 0.83758 0.09598 0.0
H2383 H 0.84903 0.85271 0.11238 0.0
H2384 H 0.85819 0.76939 0.15441 0.0
H2385 H 0.86308 0.80048 0.14045 0.0
C2386 C 0.51531 0.57638 0.40366 0.0
C2387 C 0.52844 0.59905 0.40452 0.0
C2388 C 0.49913 0.57408 0.39591 0.0
C2389 C 0.4864 0.59859 0.37036 0.0
H2390 H 0.42404 0.5798 0.37582 0.0
C2391 C 0.41641 0.62293 0.34218 0.0
C2392 C 0.39918 0.60477 0.34031 0.0
C2393 C 0.432 0.61892 0.34997 0.0
C2394 C 0.44148 0.58461 0.37415 0.0
H2395 H 0.53505 0.63697 0.39797 0.0
H2396 H 0.50693 0.63293 0.38445 0.0
H2397 H 0.45184 0.57879 0.38971 0.0
H2398 H 0.38448 0.56837 0.34532 0.0
H2399 H 0.41204 0.56123 0.35906 0.0
H2400 H 0.47625 0.60464 0.35488 0.0
C2401 C 0.5091 0.61697 0.38976 0.0
C2402 C 0.45734 0.58409 0.38209 0.0
C2403 C 0.52502 0.61938 0.39755 0.0
C2404 C 0.3976 0.58268 0.34659 0.0
C2405 C 0.41334 0.57861 0.35444 0.0
C2406 C 0.47066 0.59894 0.36244 0.0
C2407 C 0.49613 0.59425 0.38881 0.0
C2408 C 0.47979 0.59179 0.3803 0.0
C2409 C 0.43084 0.59661 0.35613 0.0
C2410 C 0.44789 0.59273 0.3643 0.0
H2411 H 0.51755 0.56047 0.40899 0.0
H2412 H 0.48933 0.55637 0.39533 0.0
H2413 H 0.50372 0.60408 0.36874 0.0
H2414 H 0.41769 0.64053 0.33767 0.0
H2415 H 0.44487 0.63354 0.35126 0.0
C2416 C 0.37904 0.166 0.10164 0.0
C2417 C 0.36104 0.1552 0.09612 0.0
C2418 C 0.37507 0.17922 0.11079 0.0
C2419 C 0.32881 0.21175 0.12531 0.0
H2420 H 0.37409 0.21344 0.14674 0.0
C2421 C 0.31508 0.26175 0.16455 0.0
C2422 C 0.33154 0.28044 0.16691 0.0
C2423 C 0.31834 0.24462 0.15639 0.0
C2424 C 0.36133 0.21311 0.1408 0.0
H2425 H 0.32482 0.14954 0.09575 0.0
H2426 H 0.31784 0.17128 0.11204 0.0
H2427 H 0.37999 0.18595 0.13179 0.0
H2428 H 0.36467 0.29527 0.16302 0.0
H2429 H 0.37075 0.2647 0.1489 0.0
H2430 H 0.30998 0.23852 0.13454 0.0
C2431 C 0.33503 0.17024 0.10923 0.0
C2432 C 0.36473 0.1975 0.13219 0.0
C2433 C 0.339 0.15743 0.09997 0.0
C2434 C 0.35172 0.28106 0.16127 0.0
C2435 C 0.35519 0.2636 0.15325 0.0
C2436 C 0.32524 0.22695 0.13401 0.0
C2437 C 0.35298 0.18166 0.11471 0.0
C2438 C 0.34868 0.1969 0.12423 0.0
C2439 C 0.33841 0.24546 0.15065 0.0
C2440 C 0.3416 0.22804 0.14176 0.0
H2441 H 0.39616 0.16473 0.09873 0.0
H2442 H 0.38932 0.18814 0.11461 0.0
H2443 H 0.31623 0.2123 0.1193 0.0
H2444 H 0.29957 0.26068 0.16894 0.0
H2445 H 0.30525 0.23064 0.15458 0.0
C2446 C 0.51612 0.58484 0.91799 0.0
C2447 C 0.49656 0.5701 0.91601 0.0
C2448 C 0.53291 0.58751 0.91054 0.0
C2449 C 0.55566 0.55864 0.887 0.0
H2450 H 0.57263 0.62919 0.88005 0.0
C2451 C 0.59756 0.58498 0.84862 0.0
C2452 C 0.61233 0.60624 0.84827 0.0
C2453 C 0.58628 0.57881 0.85768 0.0
C2454 C 0.56853 0.60931 0.882 0.0
H2455 H 0.47958 0.54641 0.90461 0.0
H2456 H 0.50913 0.55056 0.89178 0.0
H2457 H 0.54807 0.62134 0.89464 0.0
H2458 H 0.62824 0.6367 0.85708 0.0
H2459 H 0.6092 0.62546 0.87306 0.0
H2460 H 0.57608 0.54652 0.87438 0.0
C2461 C 0.51146 0.55992 0.89913 0.0
C2462 C 0.55437 0.60485 0.89036 0.0
C2463 C 0.49456 0.55751 0.90651 0.0
C2464 C 0.61665 0.6204 0.85721 0.0
C2465 C 0.60561 0.61406 0.8663 0.0
C2466 C 0.57006 0.56305 0.87871 0.0
C2467 C 0.53064 0.57523 0.90102 0.0
C2468 C 0.54747 0.57954 0.89282 0.0
C2469 C 0.58988 0.59355 0.86661 0.0
C2470 C 0.57634 0.58849 0.87598 0.0
H2471 H 0.51847 0.59442 0.92528 0.0
H2472 H 0.54765 0.59925 0.91221 0.0
H2473 H 0.55076 0.5389 0.88882 0.0
H2474 H 0.59427 0.57366 0.8418 0.0
H2475 H 0.57415 0.56307 0.85757 0.0
C2476 C 0.16195 0.69714 0.65404 0.0
C2477 C 0.16589 0.70621 0.66398 0.0
C2478 C 0.15987 0.71462 0.64592 0.0
C2479 C 0.14571 0.78269 0.64018 0.0
H2480 H 0.17259 0.76703 0.61385 0.0
C2481 C 0.11971 0.83451 0.60279 0.0
C2482 C 0.13675 0.8403 0.59571 0.0
C2483 C 0.12469 0.82012 0.61156 0.0
C2484 C 0.16517 0.77185 0.62118 0.0
H2485 H 0.1712 0.74031 0.67332 0.0
H2486 H 0.16749 0.77111 0.65911 0.0
H2487 H 0.17904 0.73791 0.62827 0.0
H2488 H 0.17223 0.83612 0.59211 0.0
H2489 H 0.18113 0.81096 0.60753 0.0
H2490 H 0.13179 0.81659 0.63306 0.0
C2491 C 0.16578 0.75053 0.65759 0.0
C2492 C 0.16866 0.755 0.62941 0.0
C2493 C 0.16798 0.733 0.6657 0.0
C2494 C 0.15892 0.83192 0.59756 0.0
C2495 C 0.16391 0.81741 0.60631 0.0
C2496 C 0.14212 0.79947 0.63192 0.0
C2497 C 0.16166 0.74154 0.6476 0.0
C2498 C 0.15881 0.7601 0.63898 0.0
C2499 C 0.14679 0.81108 0.61336 0.0
C2500 C 0.15166 0.79413 0.62231 0.0
H2501 H 0.16027 0.6765 0.65259 0.0
H2502 H 0.15643 0.70707 0.63835 0.0
H2503 H 0.13776 0.78708 0.64743 0.0
H2504 H 0.10245 0.84065 0.6014 0.0
H2505 H 0.11106 0.81531 0.61676 0.0
C2506 C 0.00811 0.43347 0.40509 0.0
C2507 C 0.0034 0.42755 0.41535 0.0
C2508 C 0.99139 0.431 0.39763 0.0
C2509 C 0.93717 0.39795 0.39244 0.0
H2510 H 0.9364 0.44487 0.36927 0.0
C2511 C 0.89399 0.37172 0.35448 0.0
C2512 C 0.88435 0.39153 0.34858 0.0
C2513 C 0.9056 0.37767 0.36347 0.0
C2514 C 0.93605 0.43181 0.37575 0.0
H2515 H 0.9774 0.41488 0.42589 0.0
H2516 H 0.94795 0.41097 0.41287 0.0
H2517 H 0.96179 0.45334 0.38347 0.0
H2518 H 0.87884 0.43292 0.34732 0.0
H2519 H 0.89855 0.44347 0.36326 0.0
H2520 H 0.91116 0.37665 0.38479 0.0
C2521 C 0.96471 0.41706 0.41056 0.0
C2522 C 0.9509 0.43646 0.38385 0.0
C2523 C 0.98154 0.41933 0.41802 0.0
C2524 C 0.88602 0.41736 0.35186 0.0
C2525 C 0.89748 0.42335 0.36091 0.0
C2526 C 0.92218 0.39342 0.38439 0.0
C2527 C 0.96947 0.42275 0.40026 0.0
C2528 C 0.95203 0.41926 0.39218 0.0
C2529 C 0.90773 0.40359 0.36674 0.0
C2530 C 0.92179 0.40996 0.37583 0.0
H2531 H 0.02491 0.43943 0.40278 0.0
H2532 H 0.99585 0.43497 0.38976 0.0
H2533 H 0.93764 0.3842 0.3987 0.0
H2534 H 0.89302 0.35167 0.35199 0.0
H2535 H 0.9136 0.36199 0.36763 0.0
C2536 C 0.31874 0.73206 0.33665 0.0
C2537 C 0.33471 0.71276 0.3344 0.0
C2538 C 0.32198 0.7487 0.34497 0.0
C2539 C 0.35633 0.75543 0.36881 0.0
H2540 H 0.33485 0.82658 0.36784 0.0
C2541 C 0.38219 0.83272 0.39839 0.0
C2542 C 0.364 0.84443 0.40351 0.0
C2543 C 0.37845 0.81796 0.38961 0.0
C2544 C 0.34085 0.80672 0.36819 0.0
H2545 H 0.36685 0.69608 0.33875 0.0
H2546 H 0.37322 0.72584 0.35294 0.0
H2547 H 0.32902 0.79812 0.35313 0.0
H2548 H 0.32777 0.85033 0.40348 0.0
H2549 H 0.32127 0.82523 0.38778 0.0
H2550 H 0.36885 0.76452 0.38375 0.0
C2551 C 0.3577 0.72763 0.34862 0.0
C2552 C 0.3374 0.7903 0.35981 0.0
C2553 C 0.35421 0.71071 0.34043 0.0
C2554 C 0.34207 0.84183 0.39954 0.0
C2555 C 0.33837 0.82746 0.39061 0.0
C2556 C 0.36015 0.77198 0.37708 0.0
C2557 C 0.34153 0.74675 0.35108 0.0
C2558 C 0.34509 0.76439 0.36 0.0
C2559 C 0.35649 0.81498 0.3857 0.0
C2560 C 0.35243 0.79774 0.37685 0.0
H2561 H 0.30368 0.73409 0.33201 0.0
H2562 H 0.30898 0.76286 0.34667 0.0
H2563 H 0.362 0.7355 0.36941 0.0
H2564 H 0.39922 0.83441 0.40138 0.0
H2565 H 0.39268 0.8086 0.38592 0.0
C2566 C 0.00734 0.55538 0.09379 0.0
C2567 C 0.00409 0.56944 0.08469 0.0
C2568 C 0.9918 0.55716 0.10178 0.0
C2569 C 0.93365 0.57918 0.10828 0.0
H2570 H 0.95856 0.58325 0.13565 0.0
C2571 C 0.88502 0.61845 0.1434 0.0
C2572 C 0.88812 0.60541 0.1527 0.0
C2573 C 0.89736 0.61108 0.13478 0.0
C2574 C 0.95131 0.58176 0.12807 0.0
H2575 H 0.98146 0.59587 0.0768 0.0
H2576 H 0.95481 0.59981 0.0909 0.0
H2577 H 0.98372 0.5765 0.12121 0.0
H2578 H 0.90534 0.57383 0.16032 0.0
H2579 H 0.92724 0.56096 0.14522 0.0
H2580 H 0.90126 0.5854 0.11523 0.0
C2581 C 0.96921 0.58701 0.09179 0.0
C2582 C 0.96572 0.57784 0.11977 0.0
C2583 C 0.98468 0.58504 0.08374 0.0
C2584 C 0.90296 0.58424 0.1532 0.0
C2585 C 0.91546 0.57699 0.14461 0.0
C2586 C 0.91924 0.58334 0.11659 0.0
C2587 C 0.97272 0.5733 0.10095 0.0
C2588 C 0.95711 0.57659 0.10977 0.0
C2589 C 0.91306 0.59064 0.13536 0.0
C2590 C 0.92796 0.58477 0.12656 0.0
H2591 H 0.02221 0.54343 0.09488 0.0
H2592 H 0.99487 0.546 0.10866 0.0
H2593 H 0.92641 0.57793 0.10069 0.0
H2594 H 0.87354 0.63481 0.14291 0.0
H2595 H 0.89529 0.62205 0.12778 0.0
C2596 C 0.18659 0.28979 0.84282 0.0
C2597 C 0.18592 0.28065 0.83272 0.0
C2598 C 0.18436 0.27271 0.85102 0.0
C2599 C 0.18225 0.20213 0.85817 0.0
H2600 H 0.15048 0.23001 0.88168 0.0
C2601 C 0.1377 0.1461 0.892 0.0
C2602 C 0.14657 0.1526 0.90163 0.0
C2603 C 0.14494 0.15931 0.88324 0.0
C2604 C 0.15946 0.22205 0.87517 0.0
H2605 H 0.18296 0.24641 0.82326 0.0
H2606 H 0.17771 0.21643 0.83759 0.0
H2607 H 0.15783 0.25783 0.86706 0.0
H2608 H 0.1706 0.17684 0.90966 0.0
H2609 H 0.1826 0.20074 0.89434 0.0
H2610 H 0.18252 0.16581 0.86632 0.0
C2611 C 0.1807 0.23675 0.83923 0.0
C2612 C 0.16392 0.23802 0.8668 0.0
C2613 C 0.18356 0.25388 0.83099 0.0
C2614 C 0.16342 0.17172 0.90231 0.0
C2615 C 0.17029 0.18528 0.89359 0.0
C2616 C 0.17729 0.18596 0.86651 0.0
C2617 C 0.18061 0.24603 0.84938 0.0
C2618 C 0.17565 0.22846 0.85821 0.0
C2619 C 0.16087 0.17941 0.88402 0.0
C2620 C 0.16607 0.19594 0.8751 0.0
H2621 H 0.18836 0.31035 0.84439 0.0
H2622 H 0.1852 0.28063 0.85867 0.0
H2623 H 0.19148 0.19403 0.85178 0.0
H2624 H 0.12471 0.13137 0.89133 0.0
H2625 H 0.13738 0.15463 0.87592 0.0
C2626 C 0.49406 0.44279 0.59344 0.0
C2627 C 0.4961 0.42946 0.58409 0.0
C2628 C 0.51075 0.44057 0.60093 0.0
C2629 C 0.55281 0.39555 0.61045 0.0
H2630 H 0.57547 0.4548 0.62561 0.0
C2631 C 0.61519 0.38176 0.64369 0.0
C2632 C 0.61132 0.3969 0.65241 0.0
C2633 C 0.60403 0.38741 0.63456 0.0
C2634 C 0.56916 0.43802 0.62152 0.0
H2635 H 0.51784 0.404 0.57523 0.0
H2636 H 0.54661 0.39952 0.5885 0.0
H2637 H 0.55028 0.46167 0.61107 0.0
H2638 H 0.59394 0.43049 0.65845 0.0
H2639 H 0.57358 0.43989 0.64263 0.0
H2640 H 0.57066 0.37176 0.62109 0.0
C2641 C 0.53202 0.41168 0.58995 0.0
C2642 C 0.55484 0.44199 0.61317 0.0
C2643 C 0.51546 0.41415 0.58239 0.0
C2644 C 0.59686 0.4184 0.65181 0.0
C2645 C 0.58545 0.42389 0.64271 0.0
C2646 C 0.56688 0.39154 0.61887 0.0
C2647 C 0.52972 0.42473 0.59932 0.0
C2648 C 0.54635 0.42077 0.60763 0.0
C2649 C 0.58862 0.40822 0.634 0.0
C2650 C 0.57504 0.41271 0.62459 0.0
H2651 H 0.47923 0.45434 0.59513 0.0
H2652 H 0.50841 0.45054 0.60815 0.0
H2653 H 0.54626 0.37883 0.60638 0.0
H2654 H 0.62654 0.36525 0.64401 0.0
H2655 H 0.60731 0.37529 0.62796 0.0
C2656 C 0.27124 0.318 0.23596 0.0
C2657 C 0.26711 0.31109 0.22575 0.0
C2658 C 0.25895 0.30649 0.24385 0.0
C2659 C 0.22967 0.24651 0.25002 0.0
H2660 H 0.20625 0.28518 0.27315 0.0
C2661 C 0.18001 0.19671 0.28245 0.0
C2662 C 0.18387 0.2055 0.29243 0.0
C2663 C 0.18906 0.21011 0.27414 0.0
C2664 C 0.21295 0.27406 0.26681 0.0
H2665 H 0.2466 0.28731 0.21572 0.0
H2666 H 0.22513 0.26693 0.22958 0.0
H2667 H 0.22323 0.30842 0.25881 0.0
H2668 H 0.19998 0.2349 0.30171 0.0
H2669 H 0.2166 0.25804 0.28719 0.0
H2670 H 0.22011 0.21214 0.25809 0.0
C2671 C 0.23789 0.28127 0.23145 0.0
C2672 C 0.22253 0.2874 0.25858 0.0
C2673 C 0.25001 0.29303 0.22354 0.0
C2674 C 0.19698 0.22779 0.29403 0.0
C2675 C 0.20623 0.24111 0.28572 0.0
C2676 C 0.22029 0.23316 0.25828 0.0
C2677 C 0.24247 0.28765 0.24169 0.0
C2678 C 0.23106 0.27373 0.25013 0.0
C2679 C 0.20228 0.2325 0.27566 0.0
C2680 C 0.21191 0.24676 0.2668 0.0
H2681 H 0.28425 0.33202 0.23785 0.0
H2682 H 0.26293 0.31164 0.25168 0.0
H2683 H 0.23646 0.23549 0.24367 0.0
H2684 H 0.16974 0.17961 0.2811 0.0
H2685 H 0.18537 0.20316 0.26651 0.0
C2686 C 0.04076 0.93684 0.53899 0.0
C2687 C 0.06418 0.93352 0.53801 0.0
C2688 C 0.02836 0.94847 0.53113 0.0
C2689 C 0.0338 0.99046 0.5084 0.0
H2690 H 0.97704 0.9586 0.50046 0.0
C2691 C 0.9851 0.02254 0.47228 0.0
C2692 C 0.96156 0.02444 0.47315 0.0
C2693 C 0.99777 0.01114 0.48011 0.0
C2694 C 0.99272 0.96792 0.50265 0.0
H2695 H 0.09323 0.93973 0.52828 0.0
H2696 H 0.0716 0.96024 0.51449 0.0
H2697 H 0.99887 0.94009 0.51448 0.0
H2698 H 0.93255 0.0162 0.48265 0.0
H2699 H 0.95461 0.99643 0.49644 0.0
H2700 H 0.02761 0.01839 0.49661 0.0
C2701 C 0.06279 0.95409 0.52133 0.0
C2702 C 0.00523 0.95731 0.51069 0.0
C2703 C 0.07516 0.94235 0.52918 0.0
C2704 C 0.95074 0.01466 0.48186 0.0
C2705 C 0.96337 0.0033 0.4897 0.0
C2706 C 0.02126 0.00113 0.50037 0.0
C2707 C 0.03921 0.95703 0.52218 0.0
C2708 C 0.0259 0.96847 0.51366 0.0
C2709 C 0.98707 0.00152 0.48894 0.0
C2710 C 0.00055 0.98999 0.4974 0.0
H2711 H 0.03206 0.93009 0.54577 0.0
H2712 H 0.01028 0.95076 0.53207 0.0
H2713 H 0.04953 0.99969 0.51059 0.0
H2714 H 0.99366 0.03006 0.46559 0.0
H2715 H 0.01594 0.00976 0.47922 0.0
C2716 C 0.23639 0.68197 0.7307 0.0
C2717 C 0.22175 0.69608 0.72433 0.0
C2718 C 0.24702 0.69405 0.73896 0.0
C2719 C 0.24214 0.75165 0.75577 0.0
H2720 H 0.30375 0.73404 0.76317 0.0
C2721 C 0.29431 0.80995 0.78516 0.0
C2722 C 0.3069 0.79552 0.79224 0.0
C2723 C 0.28353 0.79752 0.77703 0.0
C2724 C 0.28646 0.73895 0.76125 0.0
H2725 H 0.20733 0.73404 0.72137 0.0
H2726 H 0.22623 0.75531 0.73566 0.0
H2727 H 0.28627 0.7133 0.74839 0.0
H2728 H 0.31798 0.75709 0.79663 0.0
H2729 H 0.29922 0.73515 0.78231 0.0
H2730 H 0.24253 0.77762 0.76855 0.0
C2731 C 0.22907 0.73475 0.73446 0.0
C2732 C 0.27643 0.72706 0.75279 0.0
C2733 C 0.21831 0.72262 0.72625 0.0
C2734 C 0.30839 0.76848 0.79119 0.0
C2735 C 0.29778 0.75605 0.783 0.0
C2736 C 0.25224 0.76367 0.76417 0.0
C2737 C 0.24337 0.72056 0.74098 0.0
C2738 C 0.25414 0.73327 0.74994 0.0
C2739 C 0.28532 0.77047 0.77582 0.0
C2740 C 0.27449 0.75743 0.76699 0.0
H2741 H 0.23912 0.6614 0.72947 0.0
H2742 H 0.25767 0.68244 0.74391 0.0
H2743 H 0.22481 0.75653 0.75392 0.0
H2744 H 0.29307 0.83088 0.78587 0.0
H2745 H 0.2742 0.80914 0.77156 0.0
C2746 C 0.45652 0.0672 0.03785 0.0
C2747 C 0.43308 0.07007 0.03679 0.0
C2748 C 0.46928 0.05621 0.02997 0.0
C2749 C 0.46465 0.01496 0.00699 0.0
H2750 H 0.52162 0.04713 -0.00044 0.0
C2751 C 0.51414 0.98425 0.97099 0.0
C2752 C 0.53762 0.98193 0.97201 0.0
C2753 C 0.50134 0.99556 0.97878 0.0
C2754 C 0.50587 0.03775 0.00161 0.0
H2755 H 0.40437 0.06391 0.02686 0.0
H2756 H 0.42661 0.0446 0.013 0.0
H2757 H 0.49935 0.06515 0.01355 0.0
H2758 H 0.56641 0.98943 0.98174 0.0
H2759 H 0.5441 0.00911 0.99548 0.0
H2760 H 0.47119 0.98748 0.99509 0.0
C2761 C 0.43517 0.05055 0.01993 0.0
C2762 C 0.49312 0.04807 0.00963 0.0
C2763 C 0.42246 0.06162 0.02781 0.0
C2764 C 0.54827 0.99129 0.98083 0.0
C2765 C 0.5355 0.00259 0.98864 0.0
C2766 C 0.47742 0.0046 0.99898 0.0
C2767 C 0.45876 0.04788 0.0209 0.0
C2768 C 0.47236 0.03679 0.01241 0.0
C2769 C 0.51185 0.00468 0.98774 0.0
C2770 C 0.49818 0.01588 0.99619 0.0
H2771 H 0.46495 0.07367 0.04475 0.0
H2772 H 0.48736 0.05413 0.03099 0.0
H2773 H 0.44888 0.00561 0.00904 0.0
H2774 H 0.50571 0.97705 0.9642 0.0
H2775 H 0.48322 0.9972 0.97778 0.0
C2776 C 0.26752 0.7275 0.27504 0.0
C2777 C 0.26695 0.70045 0.27633 0.0
C2778 C 0.25606 0.73916 0.26694 0.0
C2779 C 0.2129 0.72782 0.24682 0.0
H2780 H 0.24597 0.78232 0.23281 0.0
C2781 C 0.18694 0.76775 0.2072 0.0
C2782 C 0.18677 0.79488 0.20629 0.0
C2783 C 0.19625 0.75602 0.21585 0.0
C2784 C 0.23646 0.76728 0.23669 0.0
H2785 H 0.25338 0.66439 0.27041 0.0
H2786 H 0.2336 0.68467 0.25609 0.0
H2787 H 0.26207 0.76239 0.24802 0.0
H2788 H 0.19633 0.83115 0.21341 0.0
H2789 H 0.21294 0.81069 0.22855 0.0
H2790 H 0.18748 0.73252 0.23529 0.0
C2791 C 0.2426 0.69697 0.26143 0.0
C2792 C 0.24561 0.75593 0.24544 0.0
C2793 C 0.25392 0.68533 0.26962 0.0
C2794 C 0.19641 0.81016 0.214 0.0
C2795 C 0.20589 0.79846 0.22261 0.0
C2796 C 0.20382 0.73908 0.23801 0.0
C2797 C 0.24397 0.72397 0.25987 0.0
C2798 C 0.23391 0.73614 0.25064 0.0
C2799 C 0.20576 0.77128 0.22366 0.0
C2800 C 0.21549 0.75898 0.23289 0.0
H2801 H 0.27722 0.7396 0.28021 0.0
H2802 H 0.25699 0.76006 0.26611 0.0
H2803 H 0.20335 0.71282 0.25069 0.0
H2804 H 0.17962 0.75573 0.20126 0.0
H2805 H 0.19618 0.73503 0.21641 0.0
C2806 C 0.45597 0.93581 0.46187 0.0
C2807 C 0.43243 0.93383 0.46278 0.0
C2808 C 0.46872 0.94689 0.46973 0.0
C2809 C 0.46457 0.98956 0.49231 0.0
H2810 H 0.52001 0.95511 0.50049 0.0
C2811 C 0.51398 0.0203 0.52833 0.0
C2812 C 0.53755 0.0215 0.52742 0.0
C2813 C 0.50101 0.00898 0.5206 0.0
C2814 C 0.5047 0.96512 0.49823 0.0
H2815 H 0.40352 0.94176 0.47239 0.0
H2816 H 0.42576 0.96127 0.48621 0.0
H2817 H 0.49766 0.93738 0.48648 0.0
H2818 H 0.56631 0.01199 0.51795 0.0
H2819 H 0.54371 0.99227 0.50432 0.0
H2820 H 0.47166 0.01738 0.50402 0.0
C2821 C 0.43441 0.95454 0.47941 0.0
C2822 C 0.49191 0.95497 0.4902 0.0
C2823 C 0.42169 0.94338 0.47155 0.0
C2824 C 0.5481 0.01097 0.51878 0.0
C2825 C 0.53516 0.99967 0.51103 0.0
C2826 C 0.4774 0.99974 0.50033 0.0
C2827 C 0.45809 0.95619 0.47862 0.0
C2828 C 0.47171 0.96709 0.48714 0.0
C2829 C 0.51144 0.99874 0.51181 0.0
C2830 C 0.49762 0.98765 0.50339 0.0
H2831 H 0.46448 0.92847 0.45513 0.0
H2832 H 0.48689 0.94818 0.46884 0.0
H2833 H 0.44925 0.99953 0.49004 0.0
H2834 H 0.50563 0.02842 0.53497 0.0
H2835 H 0.48282 0.00825 0.5215 0.0
C2836 C 0.21131 0.2813 0.76987 0.0
C2837 C 0.21684 0.30696 0.77251 0.0
C2838 C 0.2205 0.26987 0.76113 0.0
C2839 C 0.26802 0.27668 0.74287 0.0
H2840 H 0.23264 0.22834 0.7267 0.0
C2841 C 0.30099 0.23279 0.70512 0.0
C2842 C 0.299 0.20572 0.70438 0.0
C2843 C 0.28976 0.24622 0.71289 0.0
C2844 C 0.24272 0.24175 0.73117 0.0
H2845 H 0.23579 0.34105 0.76794 0.0
H2846 H 0.25149 0.32134 0.75254 0.0
H2847 H 0.21529 0.25008 0.7413 0.0
H2848 H 0.28356 0.17136 0.71084 0.0
H2849 H 0.26357 0.19487 0.72439 0.0
H2850 H 0.29538 0.2684 0.73267 0.0
C2851 C 0.24053 0.30976 0.75736 0.0
C2852 C 0.23283 0.25413 0.73956 0.0
C2853 C 0.23151 0.3211 0.76616 0.0
C2854 C 0.28516 0.1923 0.71129 0.0
C2855 C 0.27374 0.20573 0.71899 0.0
C2856 C 0.27781 0.26449 0.73443 0.0
C2857 C 0.23525 0.28394 0.75476 0.0
C2858 C 0.24543 0.27156 0.74558 0.0
C2859 C 0.27618 0.23278 0.71995 0.0
C2860 C 0.26533 0.24673 0.72855 0.0
H2861 H 0.20023 0.26987 0.7747 0.0
H2862 H 0.21637 0.24981 0.75948 0.0
H2863 H 0.27836 0.28962 0.74741 0.0
H2864 H 0.31157 0.24342 0.69982 0.0
H2865 H 0.29176 0.26709 0.71341 0.0
C2866 C 0.04371 0.06523 0.95932 0.0
C2867 C 0.06723 0.06772 0.96019 0.0
C2868 C 0.03111 0.05463 0.96734 0.0
C2869 C 0.03585 0.01344 0.9903 0.0
H2870 H 0.97957 0.04673 0.99805 0.0
C2871 C 0.98583 0.9813 0.02598 0.0
C2872 C 0.96232 0.97954 0.02489 0.0
C2873 C 0.99885 0.99321 0.01839 0.0
C2874 C 0.99513 0.03704 0.99592 0.0
H2875 H 0.09623 0.06114 0.96991 0.0
H2876 H 0.07425 0.0424 0.98398 0.0
H2877 H 0.00188 0.06452 0.98402 0.0
H2878 H 0.93372 0.98871 0.01528 0.0
H2879 H 0.9564 0.0094 0.0019 0.0
H2880 H 0.02901 0.9858 0.00211 0.0
C2881 C 0.06551 0.04844 0.97711 0.0
C2882 C 0.00791 0.04724 0.98788 0.0
C2883 C 0.07808 0.05916 0.9691 0.0
C2884 C 0.95187 0.99017 0.01625 0.0
C2885 C 0.96486 0.00204 0.00864 0.0
C2886 C 0.02303 0.00319 0.99832 0.0
C2887 C 0.04185 0.04625 0.97635 0.0
C2888 C 0.02838 0.03551 0.98496 0.0
C2889 C 0.98855 0.00345 0.00957 0.0
C2890 C 0.00248 0.01482 0.00122 0.0
H2891 H 0.03509 0.07176 0.95248 0.0
H2892 H 0.01296 0.05288 0.96647 0.0
H2893 H 0.0514 0.00377 0.98815 0.0
H2894 H 0.99411 0.97307 0.03262 0.0
H2895 H 0.01699 0.99429 0.01942 0.0
C2896 C 0.75272 0.81373 0.7294 0.0
C2897 C 0.76479 0.79848 0.72238 0.0
C2898 C 0.74195 0.80217 0.73775 0.0
C2899 C 0.745 0.7428 0.75348 0.0
H2900 H 0.68814 0.76756 0.76455 0.0
C2901 C 0.6966 0.68951 0.78547 0.0
C2902 C 0.68756 0.70497 0.79328 0.0
C2903 C 0.70604 0.70104 0.77682 0.0
C2904 C 0.70414 0.76063 0.76158 0.0
H2905 H 0.77394 0.75917 0.71817 0.0
H2906 H 0.75469 0.73886 0.73258 0.0
H2907 H 0.70324 0.78707 0.74896 0.0
H2908 H 0.68158 0.74424 0.79846 0.0
H2909 H 0.69808 0.76465 0.78324 0.0
H2910 H 0.74576 0.71621 0.76605 0.0
C2911 C 0.75409 0.7598 0.73185 0.0
C2912 C 0.71278 0.77177 0.75266 0.0
C2913 C 0.76499 0.77138 0.72356 0.0
C2914 C 0.68842 0.73209 0.79245 0.0
C2915 C 0.6977 0.74366 0.78376 0.0
C2916 C 0.73628 0.73156 0.76234 0.0
C2917 C 0.74292 0.77511 0.73918 0.0
C2918 C 0.73332 0.76298 0.74851 0.0
C2919 C 0.70647 0.72823 0.77583 0.0
C2920 C 0.71579 0.74038 0.76649 0.0
H2921 H 0.75251 0.8347 0.72871 0.0
H2922 H 0.73368 0.81455 0.74329 0.0
H2923 H 0.76111 0.73594 0.75062 0.0
H2924 H 0.69599 0.66851 0.78601 0.0
H2925 H 0.71253 0.68869 0.77079 0.0
C2926 C 0.73281 0.22887 0.2229 0.0
C2927 C 0.73335 0.20181 0.22164 0.0
C2928 C 0.74456 0.2406 0.2309 0.0
C2929 C 0.78836 0.22933 0.25078 0.0
H2930 H 0.75586 0.28407 0.2649 0.0
C2931 C 0.8147 0.26892 0.29044 0.0
C2932 C 0.81481 0.29604 0.29142 0.0
C2933 C 0.80554 0.25734 0.28171 0.0
C2934 C 0.76522 0.26898 0.26098 0.0
H2935 H 0.74712 0.16581 0.22752 0.0
H2936 H 0.76738 0.18621 0.24167 0.0
H2937 H 0.73931 0.26416 0.24978 0.0
H2938 H 0.80541 0.33243 0.28435 0.0
H2939 H 0.78909 0.31222 0.26909 0.0
H2940 H 0.81407 0.23393 0.26219 0.0
C2941 C 0.7582 0.19847 0.23637 0.0
C2942 C 0.75581 0.25763 0.25228 0.0
C2943 C 0.7466 0.18675 0.22828 0.0
C2944 C 0.80539 0.31145 0.28369 0.0
C2945 C 0.79606 0.29989 0.27502 0.0
C2946 C 0.79771 0.24059 0.25954 0.0
C2947 C 0.7569 0.22548 0.23791 0.0
C2948 C 0.76729 0.23773 0.24705 0.0
C2949 C 0.79613 0.27273 0.27392 0.0
C2950 C 0.78624 0.26056 0.2647 0.0
H2951 H 0.72295 0.24093 0.21778 0.0
H2952 H 0.74366 0.26151 0.2317 0.0
H2953 H 0.79776 0.21426 0.24687 0.0
H2954 H 0.82181 0.25679 0.29639 0.0
H2955 H 0.80556 0.23635 0.28111 0.0
C2956 C 0.75219 0.18609 0.76996 0.0
C2957 C 0.76419 0.20143 0.77699 0.0
C2958 C 0.74146 0.19757 0.76159 0.0
C2959 C 0.74459 0.2568 0.74579 0.0
H2960 H 0.68756 0.23236 0.73478 0.0
C2961 C 0.69613 0.31087 0.71406 0.0
C2962 C 0.68674 0.29567 0.70626 0.0
C2963 C 0.70567 0.29906 0.72263 0.0
C2964 C 0.70362 0.23919 0.73772 0.0
H2965 H 0.77321 0.2408 0.78117 0.0
H2966 H 0.75405 0.26094 0.7667 0.0
H2967 H 0.70272 0.21269 0.75033 0.0
H2968 H 0.68022 0.25657 0.701 0.0
H2969 H 0.69692 0.23567 0.71609 0.0
H2970 H 0.74538 0.28343 0.73324 0.0
C2971 C 0.75347 0.24 0.76746 0.0
C2972 C 0.71229 0.22795 0.74662 0.0
C2973 C 0.76433 0.22852 0.77577 0.0
C2974 C 0.68734 0.26852 0.70701 0.0
C2975 C 0.69673 0.25667 0.71563 0.0
C2976 C 0.73587 0.2681 0.73694 0.0
C2977 C 0.7424 0.22462 0.76013 0.0
C2978 C 0.73286 0.23668 0.75077 0.0
C2979 C 0.70586 0.27185 0.72355 0.0
C2980 C 0.71529 0.25944 0.73283 0.0
H2981 H 0.75202 0.16513 0.77068 0.0
H2982 H 0.73324 0.18514 0.75604 0.0
H2983 H 0.76074 0.26359 0.74864 0.0
H2984 H 0.69572 0.33187 0.71358 0.0
H2985 H 0.71241 0.31123 0.72866 0.0
C2986 C 0.73969 0.81558 0.26873 0.0
C2987 C 0.72712 0.80041 0.2756 0.0
C2988 C 0.74996 0.80413 0.26023 0.0
C2989 C 0.74576 0.74552 0.24398 0.0
H2990 H 0.80361 0.76898 0.23353 0.0
C2991 C 0.79602 0.69118 0.21279 0.0
C2992 C 0.80568 0.70642 0.20506 0.0
C2993 C 0.78579 0.70295 0.22121 0.0
C2994 C 0.78733 0.76243 0.23632 0.0
H2995 H 0.71635 0.76133 0.27933 0.0
H2996 H 0.73481 0.74116 0.26468 0.0
H2997 H 0.78824 0.7885 0.24904 0.0
H2998 H 0.81177 0.74557 0.19974 0.0
H2999 H 0.79402 0.76638 0.21459 0.0
H3000 H 0.74513 0.7191 0.23134 0.0
C3001 C 0.73618 0.76199 0.26564 0.0
C3002 C 0.77851 0.7736 0.24519 0.0
C3003 C 0.72573 0.77348 0.27406 0.0
C3004 C 0.8045 0.73357 0.2057 0.0
C3005 C 0.79449 0.74538 0.21417 0.0
C3006 C 0.75468 0.7342 0.23517 0.0
C3007 C 0.74802 0.77725 0.2585 0.0
C3008 C 0.75762 0.76525 0.24913 0.0
C3009 C 0.78523 0.73016 0.22205 0.0
C3010 C 0.77554 0.74255 0.23126 0.0
H3011 H 0.74079 0.83644 0.2697 0.0
H3012 H 0.75873 0.81651 0.25484 0.0
H3013 H 0.7294 0.739 0.24667 0.0
H3014 H 0.79683 0.67017 0.21239 0.0
H3015 H 0.77891 0.69078 0.2272 0.0
C3016 C 0.54307 0.43481 0.03685 0.0
C3017 C 0.56664 0.43365 0.03585 0.0
C3018 C 0.5299 0.44578 0.02911 0.0
C3019 C 0.53267 0.48933 0.00672 0.0
H3020 H 0.47761 0.45385 0.99869 0.0
C3021 C 0.48204 0.51948 0.97097 0.0
C3022 C 0.45848 0.52032 0.972 0.0
C3023 C 0.49533 0.50832 0.97863 0.0
C3024 C 0.49281 0.46414 0.00091 0.0
H3025 H 0.59514 0.44286 0.02617 0.0
H3026 H 0.57216 0.46213 0.01255 0.0
H3027 H 0.50063 0.43627 0.01252 0.0
H3028 H 0.43007 0.51032 0.98161 0.0
H3029 H 0.45323 0.49082 0.9951 0.0
H3030 H 0.52483 0.51725 0.99513 0.0
C3031 C 0.56381 0.45489 0.01934 0.0
C3032 C 0.50599 0.45408 0.00884 0.0
C3033 C 0.57696 0.44386 0.02708 0.0
C3034 C 0.44826 0.50958 0.98068 0.0
C3035 C 0.46152 0.4984 0.98835 0.0
C3036 C 0.51948 0.49941 0.99879 0.0
C3037 C 0.54011 0.45575 0.02023 0.0
C3038 C 0.52606 0.46657 0.01184 0.0
C3039 C 0.48523 0.49786 0.98746 0.0
C3040 C 0.49939 0.48693 0.9958 0.0
H3041 H 0.53488 0.42694 0.04358 0.0
H3042 H 0.51173 0.44647 0.03009 0.0
H3043 H 0.54788 0.4996 0.00894 0.0
H3044 H 0.49014 0.52778 0.9643 0.0
H3045 H 0.5135 0.50789 0.97764 0.0
C3046 C 0.02145 0.49581 0.47005 0.0
C3047 C 0.04188 0.48322 0.47226 0.0
C3048 C 0.00897 0.50747 0.47787 0.0
C3049 C 0.00025 0.50347 0.50566 0.0
H3050 H 0.97035 0.56993 0.50228 0.0
C3051 C 0.9564 0.55645 0.53912 0.0
C3052 C 0.93612 0.56938 0.53698 0.0
C3053 C 0.96922 0.54583 0.53118 0.0
C3054 C 0.97836 0.55119 0.5033 0.0
H3055 H 0.06578 0.47328 0.48413 0.0
H3056 H 0.04411 0.49386 0.49787 0.0
H3057 H 0.99344 0.55254 0.48843 0.0
H3058 H 0.91288 0.58127 0.52512 0.0
H3059 H 0.93503 0.56229 0.51117 0.0
H3060 H 0.98509 0.50197 0.52049 0.0
C3061 C 0.03754 0.49453 0.49015 0.0
C3062 C 0.99163 0.54128 0.49537 0.0
C3063 C 0.05002 0.48296 0.48231 0.0
C3064 C 0.92855 0.57129 0.52687 0.0
C3065 C 0.94132 0.56065 0.51892 0.0
C3066 C 0.98695 0.51334 0.51358 0.0
C3067 C 0.01671 0.50657 0.48804 0.0
C3068 C 0.00276 0.51733 0.49647 0.0
C3069 C 0.96191 0.54797 0.52097 0.0
C3070 C 0.97586 0.53733 0.5125 0.0
H3071 H 0.01489 0.49598 0.46232 0.0
H3072 H 0.9929 0.5164 0.47602 0.0
H3073 H 0.00828 0.48474 0.50667 0.0
H3074 H 0.9625 0.55501 0.5469 0.0
H3075 H 0.98511 0.53649 0.53302 0.0
C3076 C 0.01696 0.51279 0.02742 0.0
C3077 C 0.03735 0.52556 0.02531 0.0
C3078 C 0.0039 0.5027 0.01945 0.0
C3079 C 0.99401 0.51009 0.99176 0.0
H3080 H 0.9651 0.44279 0.99421 0.0
C3081 C 0.9519 0.4578 0.95762 0.0
C3082 C 0.93194 0.44402 0.95956 0.0
C3083 C 0.96406 0.46879 0.96569 0.0
C3084 C 0.97281 0.46178 0.99346 0.0
H3085 H 0.06051 0.53762 0.01345 0.0
H3086 H 0.03784 0.51977 -0.00056 0.0
H3087 H 0.98812 0.45921 0.00825 0.0
H3088 H 0.90855 0.43114 0.97119 0.0
H3089 H 0.92958 0.45069 0.98537 0.0
H3090 H 0.97874 0.51264 0.97697 0.0
C3091 C 0.03171 0.5178 0.0072 0.0
C3092 C 0.98603 0.47116 0.0015 0.0
C3093 C 0.04476 0.52782 0.01518 0.0
C3094 C 0.92394 0.4418 0.9696 0.0
C3095 C 0.93608 0.45278 0.97768 0.0
C3096 C 0.98077 0.50072 0.98373 0.0
C3097 C 0.01104 0.50532 0.00924 0.0
C3098 C 0.99685 0.49538 0.00073 0.0
C3099 C 0.95644 0.46611 0.97583 0.0
C3100 C 0.97006 0.47643 0.98447 0.0
H3101 H 0.01098 0.51104 0.03522 0.0
H3102 H 0.98797 0.49342 0.02126 0.0
H3103 H 0.00181 0.52903 0.99101 0.0
H3104 H 0.95835 0.45945 0.9499 0.0
H3105 H 0.9798 0.47867 0.96402 0.0
C3106 C 0.5415 0.56158 0.46106 0.0
C3107 C 0.5649 0.56463 0.46223 0.0
C3108 C 0.5287 0.55009 0.46881 0.0
C3109 C 0.53291 0.50836 0.49169 0.0
H3110 H 0.47625 0.54119 0.49916 0.0
C3111 C 0.48323 0.47856 0.52778 0.0
C3112 C 0.4597 0.47672 0.52681 0.0
C3113 C 0.49612 0.48946 0.51993 0.0
C3114 C 0.4919 0.53161 0.49709 0.0
H3115 H 0.59351 0.55809 0.47218 0.0
H3116 H 0.57117 0.53787 0.48581 0.0
H3117 H 0.49865 0.55901 0.48518 0.0
H3118 H 0.43095 0.48457 0.5171 0.0
H3119 H 0.45342 0.50352 0.50326 0.0
H3120 H 0.52614 0.4809 0.50358 0.0
C3121 C 0.56269 0.54408 0.47889 0.0
C3122 C 0.50473 0.54181 0.48908 0.0
C3123 C 0.57546 0.55566 0.47115 0.0
C3124 C 0.44912 0.48607 0.51797 0.0
C3125 C 0.46198 0.49696 0.51011 0.0
C3126 C 0.52005 0.49811 0.49969 0.0
C3127 C 0.53912 0.54144 0.47786 0.0
C3128 C 0.52538 0.53031 0.48629 0.0
C3129 C 0.48566 0.49864 0.51096 0.0
C3130 C 0.4994 0.50963 0.50249 0.0
H3131 H 0.53312 0.56846 0.45421 0.0
H3132 H 0.51063 0.54802 0.46773 0.0
H3133 H 0.54861 0.49887 0.48963 0.0
H3134 H 0.4916 0.47136 0.53458 0.0
H3135 H 0.51427 0.4908 0.52089 0.0
C3136 C 0.17438 0.06308 0.27786 0.0
C3137 C 0.15318 0.06915 0.28213 0.0
C3138 C 0.17593 0.04703 0.26926 0.0
C3139 C 0.14356 0.02624 0.24697 0.0
H3140 H 0.18394 0.96697 0.24614 0.0
C3141 C 0.13572 0.94757 0.21605 0.0
C3142 C 0.1553 0.93498 0.21251 0.0
C3143 C 0.1368 0.9651 0.22416 0.0
C3144 C 0.17287 0.98371 0.24615 0.0
H3145 H 0.11708 0.06209 0.2809 0.0
H3146 H 0.11982 0.0348 0.26576 0.0
H3147 H 0.18357 0.9951 0.26116 0.0
H3148 H 0.19156 0.93147 0.21468 0.0
H3149 H 0.19359 0.96287 0.22858 0.0
H3150 H 0.13303 0.01533 0.23196 0.0
C3151 C 0.13519 0.04268 0.26903 0.0
C3152 C 0.17261 0.99973 0.25478 0.0
C3153 C 0.13364 0.0584 0.27769 0.0
C3154 C 0.17614 0.94096 0.21713 0.0
C3155 C 0.17727 0.95871 0.22521 0.0
C3156 C 0.14402 0.01048 0.2383 0.0
C3157 C 0.15631 0.03699 0.26469 0.0
C3158 C 0.15768 0.02087 0.25533 0.0
C3159 C 0.15756 0.9708 0.22891 0.0
C3160 C 0.15839 0.98872 0.23783 0.0
H3161 H 0.18978 0.07125 0.28097 0.0
H3162 H 0.19242 0.04303 0.26601 0.0
H3163 H 0.13216 0.04271 0.24714 0.0
H3164 H 0.11942 0.94381 0.21257 0.0
H3165 H 0.12121 0.97372 0.22686 0.0
C3166 C 0.19108 0.90182 0.52814 0.0
C3167 C 0.18375 0.87809 0.53231 0.0
C3168 C 0.20593 0.90224 0.51985 0.0
C3169 C 0.22574 0.86252 0.49831 0.0
H3170 H 0.27577 0.91118 0.49787 0.0
C3171 C 0.29767 0.85784 0.46849 0.0
C3172 C 0.30652 0.88143 0.46485 0.0
C3173 C 0.28166 0.85764 0.47634 0.0
C3174 C 0.26169 0.89773 0.4978 0.0
H3175 H 0.18669 0.8362 0.53117 0.0
H3176 H 0.21261 0.83696 0.51664 0.0
H3177 H 0.25045 0.9102 0.51255 0.0
H3178 H 0.30505 0.92335 0.46642 0.0
H3179 H 0.27671 0.92301 0.47993 0.0
H3180 H 0.23697 0.85007 0.48355 0.0
C3181 C 0.2066 0.85521 0.51973 0.0
C3182 C 0.24723 0.89713 0.50623 0.0
C3183 C 0.19178 0.85479 0.52805 0.0
C3184 C 0.29845 0.90484 0.469 0.0
C3185 C 0.28243 0.90464 0.47683 0.0
C3186 C 0.24018 0.86316 0.48986 0.0
C3187 C 0.21374 0.87895 0.51552 0.0
C3188 C 0.22913 0.87948 0.50658 0.0
C3189 C 0.27413 0.88103 0.48071 0.0
C3190 C 0.25834 0.88076 0.48952 0.0
H3191 H 0.18489 0.92012 0.53111 0.0
H3192 H 0.21089 0.92083 0.51669 0.0
H3193 H 0.21172 0.84898 0.4983 0.0
H3194 H 0.30333 0.83948 0.46537 0.0
H3195 H 0.27571 0.83911 0.47919 0.0
C3196 C 0.31683 0.06734 0.72042 0.0
C3197 C 0.33439 0.06477 0.71325 0.0
C3198 C 0.31544 0.05048 0.72877 0.0
C3199 C 0.33275 0.98623 0.73793 0.0
H3200 H 0.32812 0.01637 0.76501 0.0
C3201 C 0.35058 0.92616 0.77406 0.0
C3202 C 0.33804 0.93113 0.78299 0.0
C3203 C 0.34848 0.94215 0.76551 0.0
C3204 C 0.329 0.00754 0.75751 0.0
H3205 H 0.36381 0.04215 0.709 0.0
H3206 H 0.36119 0.0124 0.72353 0.0
H3207 H 0.32685 0.04448 0.75002 0.0
H3208 H 0.31332 0.95699 0.78982 0.0
H3209 H 0.30899 0.9843 0.77474 0.0
H3210 H 0.33463 0.9493 0.74533 0.0
C3211 C 0.3486 0.02754 0.72271 0.0
C3212 C 0.32834 0.02369 0.74893 0.0
C3213 C 0.35018 0.04463 0.71445 0.0
C3214 C 0.32311 0.95241 0.78307 0.0
C3215 C 0.32084 0.96829 0.77445 0.0
C3216 C 0.33313 0.97005 0.7465 0.0
C3217 C 0.33137 0.03049 0.73002 0.0
C3218 C 0.33054 0.01321 0.73907 0.0
C3219 C 0.33355 0.9634 0.76556 0.0
C3220 C 0.33162 0.98052 0.75642 0.0
H3221 H 0.30454 0.08284 0.71972 0.0
H3222 H 0.30193 0.05307 0.73427 0.0
H3223 H 0.33417 0.97763 0.73041 0.0
H3224 H 0.36194 0.90971 0.77362 0.0
H3225 H 0.35883 0.93796 0.75888 0.0
C3226 C 0.30023 0.09971 0.02871 0.0
C3227 C 0.30886 0.12295 0.03279 0.0
C3228 C 0.28458 0.10022 0.02072 0.0
C3229 C 0.26547 0.14103 -0.00054 0.0
H3230 H 0.2138 0.09469 0.99918 0.0
C3231 C 0.19632 0.14562 0.96822 0.0
C3232 C 0.18754 0.12187 0.9647 0.0
C3233 C 0.21101 0.1463 0.97659 0.0
C3234 C 0.2283 0.10754 0.99908 0.0
H3235 H 0.30717 0.165 0.03187 0.0
H3236 H 0.28 0.16583 0.01784 0.0
H3237 H 0.23909 0.09495 0.01389 0.0
H3238 H 0.18744 0.08019 0.96722 0.0
H3239 H 0.21354 0.08133 0.98156 0.0
H3240 H 0.2549 0.15337 0.98459 0.0
C3241 C 0.28559 0.14723 0.02077 0.0
C3242 C 0.24274 0.10773 0.00752 0.0
C3243 C 0.30116 0.14673 0.0288 0.0
C3244 C 0.19408 0.0988 0.96964 0.0
C3245 C 0.2088 0.09948 0.97797 0.0
C3246 C 0.25109 0.14077 0.99099 0.0
C3247 C 0.27729 0.12397 0.01659 0.0
C3248 C 0.26152 0.1244 0.00778 0.0
C3249 C 0.21727 0.12325 0.98161 0.0
C3250 C 0.23239 0.12392 0.99068 0.0
H3251 H 0.30607 0.08105 0.03148 0.0
H3252 H 0.2787 0.08197 0.01758 0.0
H3253 H 0.28 0.15384 -0.00062 0.0
H3254 H 0.19181 0.16371 0.96453 0.0
H3255 H 0.2171 0.16496 0.97924 0.0
C3256 C 0.84263 0.05423 0.78194 0.0
C3257 C 0.82697 0.07462 0.78205 0.0
C3258 C 0.84221 0.03586 0.77409 0.0
C3259 C 0.80561 0.00899 0.75369 0.0
H3260 H 0.8626 0.98527 0.7424 0.0
C3261 C 0.81138 0.92371 0.72509 0.0
C3262 C 0.82706 0.92603 0.71712 0.0
C3263 C 0.81091 0.9421 0.73294 0.0
C3264 C 0.84652 0.99186 0.7454 0.0
H3265 H 0.79859 0.09215 0.77427 0.0
H3266 H 0.7979 0.06024 0.76038 0.0
H3267 H 0.86259 0.01694 0.75622 0.0
H3268 H 0.85429 0.94901 0.71085 0.0
H3269 H 0.85337 0.98158 0.7245 0.0
H3270 H 0.78954 0.98434 0.74271 0.0
C3271 C 0.81032 0.05809 0.76641 0.0
C3272 C 0.84652 0.00976 0.75342 0.0
C3273 C 0.81073 0.0764 0.77429 0.0
C3274 C 0.84212 0.94701 0.71699 0.0
C3275 C 0.84165 0.96544 0.72482 0.0
C3276 C 0.80561 0.9911 0.74566 0.0
C3277 C 0.82613 0.03766 0.76618 0.0
C3278 C 0.82607 0.01853 0.75767 0.0
C3279 C 0.82614 0.96312 0.73293 0.0
C3280 C 0.82607 0.98231 0.74142 0.0
H3281 H 0.85523 0.05262 0.78792 0.0
H3282 H 0.8544 0.02017 0.77423 0.0
H3283 H 0.78956 0.01515 0.75686 0.0
H3284 H 0.79971 0.9075 0.72529 0.0
H3285 H 0.79896 0.93954 0.73913 0.0
C3286 C 0.68057 0.03655 0.52247 0.0
C3287 C 0.67112 0.06058 0.52527 0.0
C3288 C 0.70011 0.03552 0.51647 0.0
C3289 C 0.7493 0.07499 0.50864 0.0
H3290 H 0.75405 0.02489 0.48661 0.0
C3291 C 0.83164 0.06205 0.48569 0.0
C3292 C 0.82949 0.05951 0.47504 0.0
C3293 C 0.81262 0.06074 0.49199 0.0
C3294 C 0.75293 0.03908 0.4927 0.0
H3295 H 0.67498 0.10237 0.52406 0.0
H3296 H 0.70874 0.10057 0.51344 0.0
H3297 H 0.72006 0.02589 0.49718 0.0
H3298 H 0.8057 0.0535 0.46266 0.0
H3299 H 0.77245 0.05138 0.47365 0.0
H3300 H 0.78187 0.08866 0.50402 0.0
C3301 C 0.70118 0.08251 0.51596 0.0
C3302 C 0.73357 0.03946 0.49883 0.0
C3303 C 0.68166 0.08354 0.52194 0.0
C3304 C 0.80793 0.05523 0.47084 0.0
C3305 C 0.78889 0.05398 0.47715 0.0
C3306 C 0.76865 0.07461 0.50252 0.0
C3307 C 0.71066 0.0585 0.51317 0.0
C3308 C 0.73148 0.05754 0.50682 0.0
C3309 C 0.79099 0.05693 0.48779 0.0
C3310 C 0.77066 0.05674 0.49445 0.0
H3311 H 0.67274 0.01851 0.52484 0.0
H3312 H 0.7071 0.01672 0.51453 0.0
H3313 H 0.74835 0.08895 0.51481 0.0
H3314 H 0.84807 0.06491 0.48916 0.0
H3315 H 0.81487 0.06261 0.50017 0.0
C3316 C 0.67674 0.08388 0.22731 0.0
C3317 C 0.67076 0.0756 0.21745 0.0
C3318 C 0.67767 0.06612 0.23537 0.0
C3319 C 0.68761 0.99915 0.24183 0.0
H3320 H 0.64814 0.01019 0.26508 0.0
C3321 C 0.67609 0.92076 0.2729 0.0
C3322 C 0.6715 0.92866 0.28294 0.0
C3323 C 0.67683 0.93896 0.26499 0.0
C3324 C 0.65965 0.00699 0.25877 0.0
H3325 H 0.66118 0.04254 0.2082 0.0
H3326 H 0.66376 0.0111 0.22228 0.0
H3327 H 0.64863 0.04166 0.25117 0.0
H3328 H 0.66434 0.96153 0.2927 0.0
H3329 H 0.66701 0.99367 0.27904 0.0
H3330 H 0.69938 0.96509 0.24947 0.0
C3331 C 0.66752 0.03136 0.22375 0.0
C3332 C 0.65975 0.02497 0.25078 0.0
C3333 C 0.66607 0.04923 0.21573 0.0
C3334 C 0.66803 0.95508 0.285 0.0
C3335 C 0.66927 0.97339 0.27713 0.0
C3336 C 0.68791 0.98143 0.24992 0.0
C3337 C 0.6731 0.03973 0.23365 0.0
C3338 C 0.67358 0.02107 0.24221 0.0
C3339 C 0.67343 0.96557 0.26698 0.0
C3340 C 0.67377 0.98495 0.25848 0.0
H3341 H 0.68038 0.10416 0.22878 0.0
H3342 H 0.68205 0.07294 0.24295 0.0
H3343 H 0.69855 0.99591 0.23531 0.0
H3344 H 0.67868 0.9004 0.27116 0.0
H3345 H 0.67961 0.93198 0.25729 0.0
C3346 C 0.67865 0.9612 0.97716 0.0
C3347 C 0.66878 0.93756 0.97415 0.0
C3348 C 0.69802 0.96146 0.98327 0.0
C3349 C 0.74624 0.92034 0.99099 0.0
H3350 H 0.753 0.97131 0.01259 0.0
C3351 C 0.8304 0.93372 0.01248 0.0
C3352 C 0.82926 0.93745 0.02311 0.0
C3353 C 0.8108 0.93448 0.00653 0.0
C3354 C 0.75131 0.95683 0.00664 0.0
H3355 H 0.67158 0.89563 0.97522 0.0
H3356 H 0.70502 0.89609 0.98609 0.0
H3357 H 0.71844 0.97056 0.00243 0.0
H3358 H 0.80669 0.94489 0.03583 0.0
H3359 H 0.77243 0.94599 0.02546 0.0
H3360 H 0.77883 0.90619 0.99534 0.0
C3361 C 0.69796 0.91445 0.9836 0.0
C3362 C 0.7316 0.95659 0.00074 0.0
C3363 C 0.67861 0.91418 0.97748 0.0
C3364 C 0.80813 0.94225 0.02764 0.0
C3365 C 0.78851 0.94291 0.0217 0.0
C3366 C 0.7659 0.92055 0.99689 0.0
C3367 C 0.70796 0.93808 0.98653 0.0
C3368 C 0.72884 0.93833 0.99284 0.0
C3369 C 0.7896 0.93887 0.01108 0.0
C3370 C 0.76869 0.93881 0.00478 0.0
H3371 H 0.67135 0.97956 0.97483 0.0
H3372 H 0.7054 0.98 0.9853 0.0
H3373 H 0.74478 0.90621 0.98489 0.0
H3374 H 0.84648 0.9304 0.00875 0.0
H3375 H 0.8123 0.93179 0.99835 0.0
C3376 C 0.65854 0.42334 0.7261 0.0
C3377 C 0.65999 0.43227 0.71598 0.0
C3378 C 0.6604 0.4407 0.73426 0.0
C3379 C 0.64972 0.50783 0.741 0.0
H3380 H 0.68838 0.49449 0.76436 0.0
C3381 C 0.65594 0.58107 0.77411 0.0
C3382 C 0.6579 0.57121 0.78407 0.0
C3383 C 0.65804 0.56464 0.76568 0.0
C3384 C 0.67724 0.49836 0.75797 0.0
H3385 H 0.6647 0.46619 0.70641 0.0
H3386 H 0.6675 0.49673 0.72073 0.0
H3387 H 0.68872 0.46463 0.74986 0.0
H3388 H 0.66363 0.53657 0.79307 0.0
H3389 H 0.66643 0.50755 0.77837 0.0
H3390 H 0.63744 0.54083 0.74916 0.0
C3391 C 0.66509 0.47627 0.72232 0.0
C3392 C 0.67758 0.48132 0.74965 0.0
C3393 C 0.66361 0.45883 0.71415 0.0
C3394 C 0.6622 0.54464 0.78545 0.0
C3395 C 0.66392 0.52809 0.77701 0.0
C3396 C 0.64911 0.52464 0.74938 0.0
C3397 C 0.66339 0.46736 0.73245 0.0
C3398 C 0.66379 0.48589 0.7411 0.0
C3399 C 0.66176 0.53785 0.767 0.0
C3400 C 0.66284 0.52014 0.75799 0.0
H3401 H 0.65591 0.40292 0.7277 0.0
H3402 H 0.65889 0.43336 0.74199 0.0
H3403 H 0.63868 0.51158 0.73456 0.0
H3404 H 0.65298 0.60159 0.77285 0.0
H3405 H 0.65682 0.57304 0.75811 0.0
C3406 C 0.80923 0.41147 0.97052 0.0
C3407 C 0.81557 0.38815 0.96571 0.0
C3408 C 0.7947 0.41122 0.97892 0.0
C3409 C 0.77463 0.3695 -0.00027 0.0
H3410 H 0.72499 0.41855 0.00121 0.0
C3411 C 0.7035 0.36204 0.02984 0.0
C3412 C 0.69431 0.38521 0.03373 0.0
C3413 C 0.71946 0.36265 0.02198 0.0
C3414 C 0.73899 0.405 0.00101 0.0
H3415 H 0.81118 0.3463 0.96586 0.0
H3416 H 0.78599 0.3459 0.98064 0.0
H3417 H 0.75009 0.41904 0.98645 0.0
H3418 H 0.69525 0.42725 0.03257 0.0
H3419 H 0.72361 0.42833 0.01912 0.0
H3420 H 0.76367 0.35556 0.01432 0.0
C3421 C 0.79249 0.36433 0.97793 0.0
C3422 C 0.75329 0.40522 0.99253 0.0
C3423 C 0.80691 0.36458 0.96947 0.0
C3424 C 0.70209 0.40903 0.02983 0.0
C3425 C 0.71812 0.40964 0.022 0.0
C3426 C 0.7604 0.36938 0.00826 0.0
C3427 C 0.7863 0.38764 0.98275 0.0
C3428 C 0.7712 0.38742 0.99178 0.0
C3429 C 0.72669 0.38646 0.01785 0.0
C3430 C 0.74236 0.38707 0.00898 0.0
H3431 H 0.81592 0.42994 0.96795 0.0
H3432 H 0.79043 0.42946 0.98257 0.0
H3433 H 0.78851 0.35579 -0.00058 0.0
H3434 H 0.69814 0.34336 0.03278 0.0
H3435 H 0.72558 0.34441 0.01892 0.0
C3436 C 0.82313 0.4418 0.28034 0.0
C3437 C 0.84403 0.43556 0.28485 0.0
C3438 C 0.82194 0.45949 0.27224 0.0
C3439 C 0.85539 0.51078 0.25889 0.0
H3440 H 0.8139 0.49712 0.23658 0.0
C3441 C 0.86303 0.56073 0.21967 0.0
C3442 C 0.84321 0.57189 0.21564 0.0
C3443 C 0.8621 0.54456 0.22823 0.0
C3444 C 0.82543 0.50126 0.2428 0.0
H3445 H 0.88002 0.44383 0.2845 0.0
H3446 H 0.87811 0.47356 0.27016 0.0
H3447 H 0.8142 0.46843 0.25144 0.0
H3448 H 0.80676 0.57428 0.21749 0.0
H3449 H 0.80519 0.54531 0.23225 0.0
H3450 H 0.86708 0.54312 0.25005 0.0
C3451 C 0.8625 0.46522 0.27298 0.0
C3452 C 0.82555 0.48492 0.25135 0.0
C3453 C 0.86365 0.44777 0.28113 0.0
C3454 C 0.82235 0.56581 0.22026 0.0
C3455 C 0.82142 0.54931 0.22875 0.0
C3456 C 0.85546 0.52687 0.2503 0.0
C3457 C 0.84165 0.47126 0.26838 0.0
C3458 C 0.84068 0.48934 0.25948 0.0
C3459 C 0.84133 0.53882 0.2329 0.0
C3460 C 0.8406 0.52217 0.24214 0.0
H3461 H 0.80767 0.43262 0.28292 0.0
H3462 H 0.80554 0.46391 0.269 0.0
H3463 H 0.8669 0.51522 0.26509 0.0
H3464 H 0.87934 0.5644 0.2162 0.0
H3465 H 0.87768 0.53637 0.23117 0.0
C3466 C 0.69615 0.6461 0.47072 0.0
C3467 C 0.68822 0.62218 0.46697 0.0
C3468 C 0.71222 0.64689 0.47855 0.0
C3469 C 0.75596 0.60759 0.49131 0.0
H3470 H 0.74643 0.65468 0.51405 0.0
C3471 C 0.80761 0.59978 0.52839 0.0
C3472 C 0.81503 0.62297 0.53297 0.0
C3473 C 0.79222 0.60032 0.52032 0.0
C3474 C 0.74949 0.64166 0.50769 0.0
H3475 H 0.69094 0.58033 0.46855 0.0
H3476 H 0.7191 0.58174 0.48211 0.0
H3477 H 0.71995 0.65468 0.49974 0.0
H3478 H 0.81166 0.66493 0.53276 0.0
H3479 H 0.78511 0.66589 0.51849 0.0
H3480 H 0.78549 0.59457 0.49922 0.0
C3481 C 0.71307 0.59988 0.47892 0.0
C3482 C 0.73433 0.64166 0.49951 0.0
C3483 C 0.69697 0.59908 0.47113 0.0
C3484 C 0.80647 0.64673 0.52934 0.0
C3485 C 0.79107 0.64726 0.52123 0.0
C3486 C 0.77115 0.60765 0.49947 0.0
C3487 C 0.72076 0.62378 0.48276 0.0
C3488 C 0.73732 0.6245 0.49126 0.0
C3489 C 0.78391 0.62406 0.51658 0.0
C3490 C 0.76801 0.62453 0.5078 0.0
H3491 H 0.69002 0.66424 0.46758 0.0
H3492 H 0.71806 0.66559 0.48126 0.0
H3493 H 0.75889 0.59443 0.48499 0.0
H3494 H 0.81406 0.58116 0.53091 0.0
H3495 H 0.78681 0.58207 0.517 0.0
C3496 C 0.33533 0.54797 0.28308 0.0
C3497 C 0.33043 0.57418 0.28121 0.0
C3498 C 0.33439 0.52983 0.27514 0.0
C3499 C 0.31385 0.52123 0.24826 0.0
H3500 H 0.35618 0.4637 0.24853 0.0
C3501 C 0.3343 0.45513 0.21341 0.0
C3502 C 0.33171 0.42844 0.21526 0.0
C3503 C 0.33304 0.47287 0.22149 0.0
C3504 C 0.34421 0.47963 0.24841 0.0
H3505 H 0.32098 0.60225 0.26969 0.0
H3506 H 0.32048 0.57102 0.25568 0.0
H3507 H 0.35641 0.49491 0.26253 0.0
H3508 H 0.32624 0.39916 0.22687 0.0
H3509 H 0.32486 0.4302 0.24109 0.0
H3510 H 0.30249 0.50627 0.23384 0.0
C3511 C 0.32421 0.56405 0.2633 0.0
C3512 C 0.34417 0.49745 0.25646 0.0
C3513 C 0.3247 0.58204 0.27128 0.0
C3514 C 0.32818 0.41971 0.2253 0.0
C3515 C 0.32743 0.43737 0.23339 0.0
C3516 C 0.31424 0.50368 0.24011 0.0
C3517 C 0.32905 0.53764 0.2651 0.0
C3518 C 0.32894 0.51849 0.25653 0.0
C3519 C 0.3298 0.46409 0.23154 0.0
C3520 C 0.32937 0.48271 0.24014 0.0
H3521 H 0.3399 0.54156 0.29069 0.0
H3522 H 0.33779 0.50968 0.27692 0.0
H3523 H 0.30154 0.53677 0.2481 0.0
H3524 H 0.33741 0.46219 0.20574 0.0
H3525 H 0.33512 0.4934 0.21991 0.0
C3526 C 0.31517 0.54186 0.97571 0.0
C3527 C 0.32506 0.56547 0.97268 0.0
C3528 C 0.2957 0.54169 0.98175 0.0
C3529 C 0.24757 0.58278 0.98973 0.0
H3530 H 0.24288 0.5331 0.01191 0.0
C3531 C 0.16567 0.56991 0.01323 0.0
C3532 C 0.1681 0.56641 0.02383 0.0
C3533 C 0.18458 0.56946 0.00684 0.0
C3534 C 0.24399 0.54722 0.00579 0.0
H3535 H 0.32202 0.60741 0.9735 0.0
H3536 H 0.28838 0.6071 0.98424 0.0
H3537 H 0.27646 0.53329 0.00113 0.0
H3538 H 0.19227 0.56021 0.03604 0.0
H3539 H 0.22529 0.55967 0.0249 0.0
H3540 H 0.21536 0.59717 0.99456 0.0
C3541 C 0.29553 0.58871 0.98185 0.0
C3542 C 0.26311 0.54711 -0.00047 0.0
C3543 C 0.31498 0.58889 0.9758 0.0
C3544 C 0.18983 0.56257 0.02789 0.0
C3545 C 0.20874 0.56222 0.02151 0.0
C3546 C 0.22845 0.58291 0.996 0.0
C3547 C 0.28568 0.56511 0.98491 0.0
C3548 C 0.26516 0.56494 0.99145 0.0
C3549 C 0.20633 0.5656 0.0109 0.0
C3550 C 0.22648 0.56519 0.00412 0.0
H3551 H 0.32263 0.52348 0.97352 0.0
H3552 H 0.2884 0.52317 0.98388 0.0
H3553 H 0.2485 0.59658 0.9835 0.0
H3554 H 0.1491 0.57255 0.00987 0.0
H3555 H 0.18211 0.57175 0.99868 0.0
C3556 C 0.1738 0.45178 0.78541 0.0
C3557 C 0.17485 0.42476 0.78409 0.0
C3558 C 0.17389 0.46828 0.77693 0.0
C3559 C 0.15969 0.47151 0.7498 0.0
H3560 H 0.20042 0.53051 0.74944 0.0
C3561 C 0.16691 0.53897 0.71458 0.0
C3562 C 0.17003 0.56555 0.71643 0.0
C3563 C 0.16829 0.52107 0.7226 0.0
C3564 C 0.1887 0.51436 0.74946 0.0
H3565 H 0.17562 0.39359 0.77302 0.0
H3566 H 0.1754 0.42254 0.75809 0.0
H3567 H 0.20088 0.50074 0.76392 0.0
H3568 H 0.17669 0.59454 0.72799 0.0
H3569 H 0.17834 0.56357 0.7421 0.0
H3570 H 0.14696 0.48543 0.73552 0.0
C3571 C 0.17493 0.43094 0.76568 0.0
C3572 C 0.18906 0.49724 0.75774 0.0
C3573 C 0.17516 0.41443 0.77418 0.0
C3574 C 0.17439 0.57405 0.72641 0.0
C3575 C 0.17551 0.55625 0.73445 0.0
C3576 C 0.15911 0.48881 0.74156 0.0
C3577 C 0.17449 0.45805 0.76698 0.0
C3578 C 0.1745 0.47571 0.75802 0.0
C3579 C 0.17252 0.52948 0.73267 0.0
C3580 C 0.17354 0.51057 0.74129 0.0
H3581 H 0.17285 0.46009 0.793 0.0
H3582 H 0.17311 0.48907 0.77816 0.0
H3583 H 0.14812 0.45519 0.74987 0.0
H3584 H 0.16342 0.53208 0.70691 0.0
H3585 H 0.1662 0.50064 0.72089 0.0
C3586 C 0.18069 0.41154 0.47763 0.0
C3587 C 0.17045 0.43489 0.47453 0.0
C3588 C 0.19994 0.41185 0.48381 0.0
C3589 C 0.23192 0.45353 0.50169 0.0
H3590 H 0.28023 0.4044 0.49643 0.0
C3591 C 0.30622 0.43884 0.52967 0.0
C3592 C 0.32785 0.43513 0.52547 0.0
C3593 C 0.28713 0.43918 0.52339 0.0
C3594 C 0.26699 0.4184 0.49795 0.0
H3595 H 0.1723 0.47689 0.47561 0.0
H3596 H 0.2062 0.47743 0.48619 0.0
H3597 H 0.24694 0.40462 0.48547 0.0
H3598 H 0.34647 0.4294 0.51138 0.0
H3599 H 0.31316 0.43022 0.50039 0.0
H3600 H 0.2522 0.46769 0.51403 0.0
C3601 C 0.19918 0.45887 0.48394 0.0
C3602 C 0.24777 0.41831 0.49174 0.0
C3603 C 0.17991 0.45856 0.47777 0.0
C3604 C 0.32999 0.43191 0.51485 0.0
C3605 C 0.3109 0.43235 0.50856 0.0
C3606 C 0.25116 0.45365 0.50788 0.0
C3607 C 0.20944 0.43552 0.48702 0.0
C3608 C 0.22998 0.43581 0.49356 0.0
C3609 C 0.28924 0.43592 0.51276 0.0
C3610 C 0.2689 0.43604 0.5061 0.0
H3611 H 0.174 0.39298 0.47519 0.0
H3612 H 0.20727 0.39351 0.48615 0.0
H3613 H 0.21843 0.46711 0.50336 0.0
H3614 H 0.30401 0.44102 0.53784 0.0
H3615 H 0.27066 0.44155 0.52689 0.0
loop_
_geom_bond_atom_site_label_1
_geom_bond_atom_site_label_2
_geom_bond_distance
_geom_bond_site_symmetry_2
_ccdc_geom_bond_type
C0 C1 1.443 . S
C0 N4 1.376 . S
C0 C38 1.389 . S
C1 C0 1.443 . S
C1 C2 1.340 . S
C1 H41 0.951 . S
C2 C1 1.340 . S
C2 C3 1.439 . S
C2 H42 0.950 . S
C3 C2 1.439 . S
C3 N4 1.374 . S
C3 C37 1.395 . S
N4 C0 1.376 . S
N4 C3 1.374 . S
N4 Co5 2.008 . S
Co5 N4 2.008 . S
Co5 N6 1.995 . S
Co5 N11 2.008 . S
Co5 N16 1.995 . S
Co5 N21 2.282 . S
Co5 N27 2.282 . S
N6 Co5 1.995 . S
N6 C7 1.376 . S
N6 C10 1.383 . S
C7 N6 1.376 . S
C7 C8 1.446 . S
C7 C37 1.391 . S
C8 C7 1.446 . S
C8 C9 1.339 . S
C8 H43 0.949 . S
C9 C8 1.339 . S
C9 C10 1.439 . S
C9 H44 0.950 . S
C10 N6 1.383 . S
C10 C9 1.439 . S
C10 C39 1.392 . S
N11 Co5 2.008 . S
N11 C12 1.376 . S
N11 C15 1.374 . S
C12 N11 1.376 . S
C12 C13 1.443 . S
C12 C39 1.389 . S
C13 C12 1.443 . S
C13 C14 1.340 . S
C13 H45 0.951 . S
C14 C13 1.340 . S
C14 C15 1.439 . S
C14 H46 0.950 . S
C15 N11 1.374 . S
C15 C14 1.439 . S
C15 C40 1.395 . S
N16 Co5 1.995 . S
N16 C17 1.376 . S
N16 C20 1.383 . S
C17 N16 1.376 . S
C17 C18 1.446 . S
C17 C40 1.391 . S
C18 C17 1.446 . S
C18 C19 1.339 . S
C18 H47 0.949 . S
C19 C18 1.339 . S
C19 C20 1.439 . S
C19 H48 0.950 . S
C20 N16 1.383 . S
C20 C19 1.439 . S
C20 C38 1.392 . S
N21 Co5 2.282 . S
N21 C24 1.332 . S
N21 C26 1.332 . S
C22 C23 1.386 . S
C22 C25 1.388 . S
C23 C22 1.386 . S
C23 C24 1.382 . S
C23 H49 0.950 . S
C24 N21 1.332 . S
C24 C23 1.382 . S
C24 H35 0.952 . S
C25 C22 1.388 . S
C25 C26 1.382 . S
C25 H50 0.950 . S
C26 N21 1.332 . S
C26 C25 1.382 . S
C26 H36 0.948 . S
N27 Co5 2.282 . S
N27 C31 1.332 . S
N27 C32 1.332 . S
C28 C29 1.388 . S
C28 C32 1.382 . S
C28 H51 0.950 . S
C29 C28 1.388 . S
C29 C30 1.386 . S
C30 C29 1.386 . S
C30 C31 1.382 . S
C30 H52 0.950 . S
C31 N27 1.332 . S
C31 C30 1.382 . S
C31 H33 0.952 . S
C32 N27 1.332 . S
C32 C28 1.382 . S
C32 H34 0.948 . S
H33 C31 0.952 . S
H34 C32 0.948 . S
H35 C24 0.952 . S
H36 C26 0.948 . S
C37 C3 1.395 . S
C37 C7 1.391 . S
C38 C0 1.389 . S
C38 C20 1.392 . S
C39 C10 1.392 . S
C39 C12 1.389 . S
C40 C15 1.395 . S
C40 C17 1.391 . S
H41 C1 0.951 . S
H42 C2 0.950 . S
H43 C8 0.949 . S
H44 C9 0.950 . S
H45 C13 0.951 . S
H46 C14 0.950 . S
H47 C18 0.949 . S
H48 C19 0.950 . S
H49 C23 0.950 . S
H50 C25 0.950 . S
H51 C28 0.950 . S
H52 C30 0.950 . S
C53 C54 1.443 . S
C53 N57 1.376 . S
C53 C91 1.389 . S
C54 C53 1.443 . S
C54 C55 1.340 . S
C54 H94 0.951 . S
C55 C54 1.340 . S
C55 C56 1.439 . S
C55 H95 0.950 . S
C56 C55 1.439 . S
C56 N57 1.374 . S
C56 C90 1.395 . S
N57 C53 1.376 . S
N57 C56 1.374 . S
N57 Co58 2.008 . S
Co58 N57 2.008 . S
Co58 N59 1.995 . S
Co58 N64 2.008 . S
Co58 N69 1.995 . S
Co58 N74 2.282 . S
Co58 N80 2.282 . S
N59 Co58 1.995 . S
N59 C60 1.376 . S
N59 C63 1.383 . S
C60 N59 1.376 . S
C60 C61 1.446 . S
C60 C90 1.391 . S
C61 C60 1.446 . S
C61 C62 1.339 . S
C61 H96 0.949 . S
C62 C61 1.339 . S
C62 C63 1.439 . S
C62 H97 0.950 . S
C63 N59 1.383 . S
C63 C62 1.439 . S
C63 C92 1.392 . S
N64 Co58 2.008 . S
N64 C65 1.376 . S
N64 C68 1.374 . S
C65 N64 1.376 . S
C65 C66 1.443 1_565 S
C65 C92 1.389 . S
C66 C65 1.443 1_545 S
C66 C67 1.340 . S
C66 H98 0.951 . S
C67 C66 1.340 . S
C67 C68 1.439 1_545 S
C67 H99 0.950 . S
C68 N64 1.374 . S
C68 C67 1.439 1_565 S
C68 C93 1.395 . S
N69 Co58 1.995 . S
N69 C70 1.376 . S
N69 C73 1.383 . S
C70 N69 1.376 . S
C70 C71 1.446 . S
C70 C93 1.391 . S
C71 C70 1.446 . S
C71 C72 1.339 . S
C71 H100 0.949 . S
C72 C71 1.339 . S
C72 C73 1.439 . S
C72 H101 0.950 . S
C73 N69 1.383 . S
C73 C72 1.439 . S
C73 C91 1.392 . S
N74 Co58 2.282 . S
N74 C77 1.332 . S
N74 C79 1.332 . S
C75 C76 1.386 . S
C75 C78 1.388 . S
C76 C75 1.386 . S
C76 C77 1.382 . S
C76 H102 0.950 . S
C77 N74 1.332 . S
C77 C76 1.382 . S
C77 H88 0.952 . S
C78 C75 1.388 . S
C78 C79 1.382 . S
C78 H103 0.950 . S
C79 N74 1.332 . S
C79 C78 1.382 . S
C79 H89 0.948 . S
N80 Co58 2.282 . S
N80 C84 1.332 . S
N80 C85 1.332 . S
C81 C82 1.388 . S
C81 C85 1.382 . S
C81 H104 0.950 . S
C82 C81 1.388 . S
C82 C83 1.386 . S
C83 C82 1.386 . S
C83 C84 1.382 . S
C83 H105 0.950 . S
C84 N80 1.332 . S
C84 C83 1.382 . S
C84 H86 0.952 . S
C85 N80 1.332 . S
C85 C81 1.382 . S
C85 H87 0.948 . S
H86 C84 0.952 . S
H87 C85 0.948 . S
H88 C77 0.952 . S
H89 C79 0.948 . S
C90 C56 1.395 . S
C90 C60 1.391 . S
C91 C53 1.389 . S
C91 C73 1.392 . S
C92 C63 1.392 . S
C92 C65 1.389 . S
C93 C68 1.395 . S
C93 C70 1.391 . S
H94 C54 0.951 . S
H95 C55 0.950 . S
H96 C61 0.949 . S
H97 C62 0.950 . S
H98 C66 0.951 . S
H99 C67 0.950 . S
H100 C71 0.949 . S
H101 C72 0.950 . S
H102 C76 0.950 . S
H103 C78 0.950 . S
H104 C81 0.950 . S
H105 C83 0.950 . S
C106 C107 1.443 . S
C106 N110 1.376 . S
C106 C144 1.389 . S
C107 C106 1.443 . S
C107 C108 1.340 . S
C107 H147 0.951 . S
C108 C107 1.340 . S
C108 C109 1.439 . S
C108 H148 0.950 . S
C109 C108 1.439 . S
C109 N110 1.374 . S
C109 C143 1.395 . S
N110 C106 1.376 . S
N110 C109 1.374 . S
N110 Co111 2.008 . S
Co111 N110 2.008 . S
Co111 N112 1.995 . S
Co111 N117 2.008 . S
Co111 N122 1.995 . S
Co111 N127 2.282 . S
Co111 N133 2.282 . S
N112 Co111 1.995 . S
N112 C113 1.376 . S
N112 C116 1.383 . S
C113 N112 1.376 . S
C113 C114 1.446 . S
C113 C143 1.391 . S
C114 C113 1.446 . S
C114 C115 1.339 . S
C114 H149 0.949 . S
C115 C114 1.339 . S
C115 C116 1.439 . S
C115 H150 0.950 . S
C116 N112 1.383 . S
C116 C115 1.439 . S
C116 C145 1.392 . S
N117 Co111 2.008 . S
N117 C118 1.376 . S
N117 C121 1.374 . S
C118 N117 1.376 . S
C118 C119 1.443 . S
C118 C145 1.389 . S
C119 C118 1.443 . S
C119 C120 1.340 . S
C119 H151 0.951 . S
C120 C119 1.340 . S
C120 C121 1.439 . S
C120 H152 0.950 . S
C121 N117 1.374 . S
C121 C120 1.439 . S
C121 C146 1.395 . S
N122 Co111 1.995 . S
N122 C123 1.376 . S
N122 C126 1.383 . S
C123 N122 1.376 . S
C123 C124 1.446 . S
C123 C146 1.391 . S
C124 C123 1.446 . S
C124 C125 1.339 . S
C124 H153 0.949 . S
C125 C124 1.339 . S
C125 C126 1.439 . S
C125 H154 0.950 . S
C126 N122 1.383 . S
C126 C125 1.439 . S
C126 C144 1.392 . S
N127 Co111 2.282 . S
N127 C130 1.332 . S
N127 C132 1.332 . S
C128 C129 1.386 . S
C128 C131 1.388 . S
C129 C128 1.386 . S
C129 C130 1.382 . S
C129 H155 0.950 . S
C130 N127 1.332 . S
C130 C129 1.382 . S
C130 H141 0.952 . S
C131 C128 1.388 . S
C131 C132 1.382 . S
C131 H156 0.950 . S
C132 N127 1.332 . S
C132 C131 1.382 . S
C132 H142 0.948 . S
N133 Co111 2.282 . S
N133 C137 1.332 . S
N133 C138 1.332 . S
C134 C135 1.388 . S
C134 C138 1.382 . S
C134 H157 0.950 . S
C135 C134 1.388 . S
C135 C136 1.386 . S
C136 C135 1.386 . S
C136 C137 1.382 . S
C136 H158 0.950 . S
C137 N133 1.332 . S
C137 C136 1.382 . S
C137 H139 0.952 . S
C138 N133 1.332 . S
C138 C134 1.382 . S
C138 H140 0.948 . S
H139 C137 0.952 . S
H140 C138 0.948 . S
H141 C130 0.952 . S
H142 C132 0.948 . S
C143 C109 1.395 . S
C143 C113 1.391 . S
C144 C106 1.389 . S
C144 C126 1.392 . S
C145 C116 1.392 . S
C145 C118 1.389 . S
C146 C121 1.395 . S
C146 C123 1.391 . S
H147 C107 0.951 . S
H148 C108 0.950 . S
H149 C114 0.949 . S
H150 C115 0.950 . S
H151 C119 0.951 . S
H152 C120 0.950 . S
H153 C124 0.949 . S
H154 C125 0.950 . S
H155 C129 0.950 . S
H156 C131 0.950 . S
H157 C134 0.950 . S
H158 C136 0.950 . S
C159 C160 1.443 . S
C159 N163 1.376 . S
C159 C197 1.389 . S
C160 C159 1.443 . S
C160 C161 1.340 . S
C160 H200 0.951 . S
C161 C160 1.340 . S
C161 C162 1.439 . S
C161 H201 0.950 . S
C162 C161 1.439 . S
C162 N163 1.374 . S
C162 C196 1.395 . S
N163 C159 1.376 . S
N163 C162 1.374 . S
N163 Co164 2.008 . S
Co164 N163 2.008 . S
Co164 N165 1.995 . S
Co164 N170 2.008 . S
Co164 N175 1.995 . S
Co164 N180 2.282 . S
Co164 N186 2.282 . S
N165 Co164 1.995 . S
N165 C166 1.376 . S
N165 C169 1.383 . S
C166 N165 1.376 . S
C166 C167 1.446 . S
C166 C196 1.391 . S
C167 C166 1.446 . S
C167 C168 1.339 . S
C167 H202 0.949 . S
C168 C167 1.339 . S
C168 C169 1.439 . S
C168 H203 0.950 . S
C169 N165 1.383 . S
C169 C168 1.439 . S
C169 C198 1.392 . S
N170 Co164 2.008 . S
N170 C171 1.376 . S
N170 C174 1.374 . S
C171 N170 1.376 . S
C171 C172 1.443 1_545 S
C171 C198 1.389 . S
C172 C171 1.443 1_565 S
C172 C173 1.340 . S
C172 H204 0.951 . S
C173 C172 1.340 . S
C173 C174 1.439 1_565 S
C173 H205 0.950 . S
C174 N170 1.374 . S
C174 C173 1.439 1_545 S
C174 C199 1.395 . S
N175 Co164 1.995 . S
N175 C176 1.376 . S
N175 C179 1.383 . S
C176 N175 1.376 . S
C176 C177 1.446 . S
C176 C199 1.391 . S
C177 C176 1.446 . S
C177 C178 1.339 . S
C177 H206 0.949 . S
C178 C177 1.339 . S
C178 C179 1.439 . S
C178 H207 0.950 . S
C179 N175 1.383 . S
C179 C178 1.439 . S
C179 C197 1.392 . S
N180 Co164 2.282 . S
N180 C183 1.332 . S
N180 C185 1.332 . S
C181 C182 1.386 . S
C181 C184 1.388 . S
C182 C181 1.386 . S
C182 C183 1.382 . S
C182 H208 0.950 . S
C183 N180 1.332 . S
C183 C182 1.382 . S
C183 H194 0.952 . S
C184 C181 1.388 . S
C184 C185 1.382 . S
C184 H209 0.950 . S
C185 N180 1.332 . S
C185 C184 1.382 . S
C185 H195 0.948 . S
N186 Co164 2.282 . S
N186 C190 1.332 . S
N186 C191 1.332 . S
C187 C188 1.388 . S
C187 C191 1.382 . S
C187 H210 0.950 . S
C188 C187 1.388 . S
C188 C189 1.386 . S
C189 C188 1.386 . S
C189 C190 1.382 . S
C189 H211 0.950 . S
C190 N186 1.332 . S
C190 C189 1.382 . S
C190 H192 0.952 . S
C191 N186 1.332 . S
C191 C187 1.382 . S
C191 H193 0.948 . S
H192 C190 0.952 . S
H193 C191 0.948 . S
H194 C183 0.952 . S
H195 C185 0.948 . S
C196 C162 1.395 . S
C196 C166 1.391 . S
C197 C159 1.389 . S
C197 C179 1.392 . S
C198 C169 1.392 . S
C198 C171 1.389 . S
C199 C174 1.395 . S
C199 C176 1.391 . S
H200 C160 0.951 . S
H201 C161 0.950 . S
H202 C167 0.949 . S
H203 C168 0.950 . S
H204 C172 0.951 . S
H205 C173 0.950 . S
H206 C177 0.949 . S
H207 C178 0.950 . S
H208 C182 0.950 . S
H209 C184 0.950 . S
H210 C187 0.950 . S
H211 C189 0.950 . S
C212 C213 1.443 . S
C212 N216 1.376 . S
C212 C250 1.389 . S
C213 C212 1.443 . S
C213 C214 1.340 . S
C213 H253 0.951 . S
C214 C213 1.340 . S
C214 C215 1.439 . S
C214 H254 0.950 . S
C215 C214 1.439 . S
C215 N216 1.374 . S
C215 C249 1.395 . S
N216 C212 1.376 . S
N216 C215 1.374 . S
N216 Co217 2.008 . S
Co217 N216 2.008 . S
Co217 N218 1.995 . S
Co217 N223 2.008 . S
Co217 N228 1.995 . S
Co217 N233 2.282 . S
Co217 N239 2.282 . S
N218 Co217 1.995 . S
N218 C219 1.376 . S
N218 C222 1.383 . S
C219 N218 1.376 . S
C219 C220 1.446 . S
C219 C249 1.391 . S
C220 C219 1.446 . S
C220 C221 1.339 . S
C220 H255 0.949 . S
C221 C220 1.339 . S
C221 C222 1.439 . S
C221 H256 0.950 . S
C222 N218 1.383 . S
C222 C221 1.439 . S
C222 C251 1.392 . S
N223 Co217 2.008 . S
N223 C224 1.376 . S
N223 C227 1.374 . S
C224 N223 1.376 . S
C224 C225 1.443 . S
C224 C251 1.389 . S
C225 C224 1.443 . S
C225 C226 1.340 . S
C225 H257 0.951 . S
C226 C225 1.340 . S
C226 C227 1.439 . S
C226 H258 0.950 . S
C227 N223 1.374 . S
C227 C226 1.439 . S
C227 C252 1.395 . S
N228 Co217 1.995 . S
N228 C229 1.376 . S
N228 C232 1.383 . S
C229 N228 1.376 . S
C229 C230 1.446 . S
C229 C252 1.391 . S
C230 C229 1.446 . S
C230 C231 1.339 . S
C230 H259 0.949 . S
C231 C230 1.339 . S
C231 C232 1.439 . S
C231 H260 0.950 . S
C232 N228 1.383 . S
C232 C231 1.439 . S
C232 C250 1.392 . S
N233 Co217 2.282 . S
N233 C236 1.332 . S
N233 C238 1.332 . S
C234 C235 1.386 . S
C234 C237 1.388 . S
C235 C234 1.386 . S
C235 C236 1.382 . S
C235 H261 0.950 . S
C236 N233 1.332 . S
C236 C235 1.382 . S
C236 H247 0.952 . S
C237 C234 1.388 . S
C237 C238 1.382 . S
C237 H262 0.950 . S
C238 N233 1.332 . S
C238 C237 1.382 . S
C238 H248 0.948 . S
N239 Co217 2.282 . S
N239 C243 1.332 . S
N239 C244 1.332 . S
C240 C241 1.388 . S
C240 C244 1.382 . S
C240 H263 0.950 . S
C241 C240 1.388 . S
C241 C242 1.386 . S
C242 C241 1.386 . S
C242 C243 1.382 . S
C242 H264 0.950 . S
C243 N239 1.332 . S
C243 C242 1.382 . S
C243 H245 0.952 . S
C244 N239 1.332 . S
C244 C240 1.382 . S
C244 H246 0.948 . S
H245 C243 0.952 . S
H246 C244 0.948 . S
H247 C236 0.952 . S
H248 C238 0.948 . S
C249 C215 1.395 . S
C249 C219 1.391 . S
C250 C212 1.389 . S
C250 C232 1.392 . S
C251 C222 1.392 . S
C251 C224 1.389 . S
C252 C227 1.395 . S
C252 C229 1.391 . S
H253 C213 0.951 . S
H254 C214 0.950 . S
H255 C220 0.949 . S
H256 C221 0.950 . S
H257 C225 0.951 . S
H258 C226 0.950 . S
H259 C230 0.949 . S
H260 C231 0.950 . S
H261 C235 0.950 . S
H262 C237 0.950 . S
H263 C240 0.950 . S
H264 C242 0.950 . S
C265 C266 1.443 . S
C265 N269 1.376 . S
C265 C303 1.389 . S
C266 C265 1.443 . S
C266 C267 1.340 . S
C266 H306 0.951 . S
C267 C266 1.340 . S
C267 C268 1.439 . S
C267 H307 0.950 . S
C268 C267 1.439 . S
C268 N269 1.374 . S
C268 C302 1.395 . S
N269 C265 1.376 . S
N269 C268 1.374 . S
N269 Co270 2.008 . S
Co270 N269 2.008 . S
Co270 N271 1.995 . S
Co270 N276 2.008 . S
Co270 N281 1.995 . S
Co270 N286 2.282 . S
Co270 N292 2.282 . S
N271 Co270 1.995 . S
N271 C272 1.376 . S
N271 C275 1.383 . S
C272 N271 1.376 . S
C272 C273 1.446 . S
C272 C302 1.391 . S
C273 C272 1.446 . S
C273 C274 1.339 . S
C273 H308 0.949 . S
C274 C273 1.339 . S
C274 C275 1.439 . S
C274 H309 0.950 . S
C275 N271 1.383 . S
C275 C274 1.439 . S
C275 C304 1.392 . S
N276 Co270 2.008 . S
N276 C277 1.376 . S
N276 C280 1.374 . S
C277 N276 1.376 . S
C277 C278 1.443 1_565 S
C277 C304 1.389 . S
C278 C277 1.443 1_545 S
C278 C279 1.340 . S
C278 H310 0.951 . S
C279 C278 1.340 . S
C279 C280 1.439 1_545 S
C279 H311 0.950 . S
C280 N276 1.374 . S
C280 C279 1.439 1_565 S
C280 C305 1.395 . S
N281 Co270 1.995 . S
N281 C282 1.376 . S
N281 C285 1.383 . S
C282 N281 1.376 . S
C282 C283 1.446 . S
C282 C305 1.391 . S
C283 C282 1.446 . S
C283 C284 1.339 . S
C283 H312 0.949 . S
C284 C283 1.339 . S
C284 C285 1.439 . S
C284 H313 0.950 . S
C285 N281 1.383 . S
C285 C284 1.439 . S
C285 C303 1.392 . S
N286 Co270 2.282 . S
N286 C289 1.332 . S
N286 C291 1.332 . S
C287 C288 1.386 . S
C287 C290 1.388 . S
C288 C287 1.386 . S
C288 C289 1.382 . S
C288 H314 0.950 . S
C289 N286 1.332 . S
C289 C288 1.382 . S
C289 H300 0.952 . S
C290 C287 1.388 . S
C290 C291 1.382 . S
C290 H315 0.950 . S
C291 N286 1.332 . S
C291 C290 1.382 . S
C291 H301 0.948 . S
N292 Co270 2.282 . S
N292 C296 1.332 . S
N292 C297 1.332 . S
C293 C294 1.388 . S
C293 C297 1.382 . S
C293 H316 0.950 . S
C294 C293 1.388 . S
C294 C295 1.386 . S
C295 C294 1.386 . S
C295 C296 1.382 . S
C295 H317 0.950 . S
C296 N292 1.332 . S
C296 C295 1.382 . S
C296 H298 0.952 . S
C297 N292 1.332 . S
C297 C293 1.382 . S
C297 H299 0.948 . S
H298 C296 0.952 . S
H299 C297 0.948 . S
H300 C289 0.952 . S
H301 C291 0.948 . S
C302 C268 1.395 . S
C302 C272 1.391 . S
C303 C265 1.389 . S
C303 C285 1.392 . S
C304 C275 1.392 . S
C304 C277 1.389 . S
C305 C280 1.395 . S
C305 C282 1.391 . S
H306 C266 0.951 . S
H307 C267 0.950 . S
H308 C273 0.949 . S
H309 C274 0.950 . S
H310 C278 0.951 . S
H311 C279 0.950 . S
H312 C283 0.949 . S
H313 C284 0.950 . S
H314 C288 0.950 . S
H315 C290 0.950 . S
H316 C293 0.950 . S
H317 C295 0.950 . S
C318 C319 1.443 . S
C318 N322 1.376 . S
C318 C356 1.389 . S
C319 C318 1.443 . S
C319 C320 1.340 . S
C319 H359 0.951 . S
C320 C319 1.340 . S
C320 C321 1.439 . S
C320 H360 0.950 . S
C321 C320 1.439 . S
C321 N322 1.374 . S
C321 C355 1.395 . S
N322 C318 1.376 . S
N322 C321 1.374 . S
N322 Co323 2.008 . S
Co323 N322 2.008 . S
Co323 N324 1.995 . S
Co323 N329 2.008 . S
Co323 N334 1.995 . S
Co323 N339 2.282 . S
Co323 N345 2.282 . S
N324 Co323 1.995 . S
N324 C325 1.376 . S
N324 C328 1.383 . S
C325 N324 1.376 . S
C325 C326 1.446 . S
C325 C355 1.391 . S
C326 C325 1.446 . S
C326 C327 1.339 . S
C326 H361 0.949 . S
C327 C326 1.339 . S
C327 C328 1.439 . S
C327 H362 0.950 . S
C328 N324 1.383 . S
C328 C327 1.439 . S
C328 C357 1.392 . S
N329 Co323 2.008 . S
N329 C330 1.376 . S
N329 C333 1.374 . S
C330 N329 1.376 . S
C330 C331 1.443 . S
C330 C357 1.389 . S
C331 C330 1.443 . S
C331 C332 1.340 . S
C331 H363 0.951 . S
C332 C331 1.340 . S
C332 C333 1.439 . S
C332 H364 0.950 . S
C333 N329 1.374 . S
C333 C332 1.439 . S
C333 C358 1.395 . S
N334 Co323 1.995 . S
N334 C335 1.376 . S
N334 C338 1.383 . S
C335 N334 1.376 . S
C335 C336 1.446 . S
C335 C358 1.391 . S
C336 C335 1.446 . S
C336 C337 1.339 . S
C336 H365 0.949 . S
C337 C336 1.339 . S
C337 C338 1.439 . S
C337 H366 0.950 . S
C338 N334 1.383 . S
C338 C337 1.439 . S
C338 C356 1.392 . S
N339 Co323 2.282 . S
N339 C342 1.332 . S
N339 C344 1.332 . S
C340 C341 1.386 . S
C340 C343 1.388 . S
C341 C340 1.386 . S
C341 C342 1.382 . S
C341 H367 0.950 . S
C342 N339 1.332 . S
C342 C341 1.382 . S
C342 H353 0.952 . S
C343 C340 1.388 . S
C343 C344 1.382 . S
C343 H368 0.950 . S
C344 N339 1.332 . S
C344 C343 1.382 . S
C344 H354 0.948 . S
N345 Co323 2.282 . S
N345 C349 1.332 . S
N345 C350 1.332 . S
C346 C347 1.388 . S
C346 C350 1.382 . S
C346 H369 0.950 . S
C347 C346 1.388 . S
C347 C348 1.386 . S
C348 C347 1.386 . S
C348 C349 1.382 . S
C348 H370 0.950 . S
C349 N345 1.332 . S
C349 C348 1.382 . S
C349 H351 0.952 . S
C350 N345 1.332 . S
C350 C346 1.382 . S
C350 H352 0.948 . S
H351 C349 0.952 . S
H352 C350 0.948 . S
H353 C342 0.952 . S
H354 C344 0.948 . S
C355 C321 1.395 . S
C355 C325 1.391 . S
C356 C318 1.389 . S
C356 C338 1.392 . S
C357 C328 1.392 . S
C357 C330 1.389 . S
C358 C333 1.395 . S
C358 C335 1.391 . S
H359 C319 0.951 . S
H360 C320 0.950 . S
H361 C326 0.949 . S
H362 C327 0.950 . S
H363 C331 0.951 . S
H364 C332 0.950 . S
H365 C336 0.949 . S
H366 C337 0.950 . S
H367 C341 0.950 . S
H368 C343 0.950 . S
H369 C346 0.950 . S
H370 C348 0.950 . S
C371 C372 1.443 . S
C371 N375 1.376 . S
C371 C409 1.389 . S
C372 C371 1.443 . S
C372 C373 1.340 . S
C372 H412 0.951 . S
C373 C372 1.340 . S
C373 C374 1.439 . S
C373 H413 0.950 . S
C374 C373 1.439 . S
C374 N375 1.374 . S
C374 C408 1.395 . S
N375 C371 1.376 . S
N375 C374 1.374 . S
N375 Co376 2.008 . S
Co376 N375 2.008 . S
Co376 N377 1.995 . S
Co376 N382 2.008 . S
Co376 N387 1.995 . S
Co376 N392 2.282 . S
Co376 N398 2.282 . S
N377 Co376 1.995 . S
N377 C378 1.376 . S
N377 C381 1.383 . S
C378 N377 1.376 . S
C378 C379 1.446 . S
C378 C408 1.391 . S
C379 C378 1.446 . S
C379 C380 1.339 . S
C379 H414 0.949 . S
C380 C379 1.339 . S
C380 C381 1.439 . S
C380 H415 0.950 . S
C381 N377 1.383 . S
C381 C380 1.439 . S
C381 C410 1.392 . S
N382 Co376 2.008 . S
N382 C383 1.376 . S
N382 C386 1.374 . S
C383 N382 1.376 . S
C383 C384 1.443 1_545 S
C383 C410 1.389 . S
C384 C383 1.443 1_565 S
C384 C385 1.340 . S
C384 H416 0.951 . S
C385 C384 1.340 . S
C385 C386 1.439 1_565 S
C385 H417 0.950 . S
C386 N382 1.374 . S
C386 C385 1.439 1_545 S
C386 C411 1.395 . S
N387 Co376 1.995 . S
N387 C388 1.376 . S
N387 C391 1.383 . S
C388 N387 1.376 . S
C388 C389 1.446 . S
C388 C411 1.391 . S
C389 C388 1.446 . S
C389 C390 1.339 . S
C389 H418 0.949 . S
C390 C389 1.339 . S
C390 C391 1.439 . S
C390 H419 0.950 . S
C391 N387 1.383 . S
C391 C390 1.439 . S
C391 C409 1.392 . S
N392 Co376 2.282 . S
N392 C395 1.332 . S
N392 C397 1.332 . S
C393 C394 1.386 . S
C393 C396 1.388 . S
C394 C393 1.386 . S
C394 C395 1.382 . S
C394 H420 0.950 . S
C395 N392 1.332 . S
C395 C394 1.382 . S
C395 H406 0.952 . S
C396 C393 1.388 . S
C396 C397 1.382 . S
C396 H421 0.950 . S
C397 N392 1.332 . S
C397 C396 1.382 . S
C397 H407 0.948 . S
N398 Co376 2.282 . S
N398 C402 1.332 . S
N398 C403 1.332 . S
C399 C400 1.388 . S
C399 C403 1.382 . S
C399 H422 0.950 . S
C400 C399 1.388 . S
C400 C401 1.386 . S
C401 C400 1.386 . S
C401 C402 1.382 . S
C401 H423 0.950 . S
C402 N398 1.332 . S
C402 C401 1.382 . S
C402 H404 0.952 . S
C403 N398 1.332 . S
C403 C399 1.382 . S
C403 H405 0.948 . S
H404 C402 0.952 . S
H405 C403 0.948 . S
H406 C395 0.952 . S
H407 C397 0.948 . S
C408 C374 1.395 . S
C408 C378 1.391 . S
C409 C371 1.389 . S
C409 C391 1.392 . S
C410 C381 1.392 . S
C410 C383 1.389 . S
C411 C386 1.395 . S
C411 C388 1.391 . S
H412 C372 0.951 . S
H413 C373 0.950 . S
H414 C379 0.949 . S
H415 C380 0.950 . S
H416 C384 0.951 . S
H417 C385 0.950 . S
H418 C389 0.949 . S
H419 C390 0.950 . S
H420 C394 0.950 . S
H421 C396 0.950 . S
H422 C399 0.950 . S
H423 C401 0.950 . S
C424 C425 1.443 . S
C424 N428 1.376 . S
C424 C462 1.389 . S
C425 C424 1.443 . S
C425 C426 1.340 . S
C425 H465 0.951 . S
C426 C425 1.340 . S
C426 C427 1.439 . S
C426 H466 0.950 . S
C427 C426 1.439 . S
C427 N428 1.374 . S
C427 C461 1.395 . S
N428 C424 1.376 . S
N428 C427 1.374 . S
N428 Co429 2.008 . S
Co429 N428 2.008 . S
Co429 N430 1.995 . S
Co429 N435 2.008 . S
Co429 N440 1.995 . S
Co429 N445 2.282 . S
Co429 N451 2.282 . S
N430 Co429 1.995 . S
N430 C431 1.376 . S
N430 C434 1.383 . S
C431 N430 1.376 . S
C431 C432 1.446 . S
C431 C461 1.391 . S
C432 C431 1.446 . S
C432 C433 1.339 . S
C432 H467 0.949 . S
C433 C432 1.339 . S
C433 C434 1.439 . S
C433 H468 0.950 . S
C434 N430 1.383 . S
C434 C433 1.439 . S
C434 C463 1.392 . S
N435 Co429 2.008 . S
N435 C436 1.376 . S
N435 C439 1.374 . S
C436 N435 1.376 . S
C436 C437 1.443 . S
C436 C463 1.389 . S
C437 C436 1.443 . S
C437 C438 1.340 . S
C437 H469 0.951 . S
C438 C437 1.340 . S
C438 C439 1.439 . S
C438 H470 0.950 . S
C439 N435 1.374 . S
C439 C438 1.439 . S
C439 C464 1.395 . S
N440 Co429 1.995 . S
N440 C441 1.376 . S
N440 C444 1.383 . S
C441 N440 1.376 . S
C441 C442 1.446 . S
C441 C464 1.391 . S
C442 C441 1.446 . S
C442 C443 1.339 . S
C442 H471 0.949 . S
C443 C442 1.339 . S
C443 C444 1.439 . S
C443 H472 0.950 . S
C444 N440 1.383 . S
C444 C443 1.439 . S
C444 C462 1.392 . S
N445 Co429 2.282 . S
N445 C448 1.332 . S
N445 C450 1.332 . S
C446 C447 1.386 . S
C446 C449 1.388 . S
C447 C446 1.386 . S
C447 C448 1.382 . S
C447 H473 0.950 . S
C448 N445 1.332 . S
C448 C447 1.382 . S
C448 H459 0.952 . S
C449 C446 1.388 . S
C449 C450 1.382 . S
C449 H474 0.950 . S
C450 N445 1.332 . S
C450 C449 1.382 . S
C450 H460 0.948 . S
N451 Co429 2.282 . S
N451 C455 1.332 . S
N451 C456 1.332 . S
C452 C453 1.388 . S
C452 C456 1.382 . S
C452 H475 0.950 . S
C453 C452 1.388 . S
C453 C454 1.386 . S
C454 C453 1.386 . S
C454 C455 1.382 . S
C454 H476 0.950 . S
C455 N451 1.332 . S
C455 C454 1.382 . S
C455 H457 0.952 . S
C456 N451 1.332 . S
C456 C452 1.382 . S
C456 H458 0.948 . S
H457 C455 0.952 . S
H458 C456 0.948 . S
H459 C448 0.952 . S
H460 C450 0.948 . S
C461 C427 1.395 . S
C461 C431 1.391 . S
C462 C424 1.389 . S
C462 C444 1.392 . S
C463 C434 1.392 . S
C463 C436 1.389 . S
C464 C439 1.395 . S
C464 C441 1.391 . S
H465 C425 0.951 . S
H466 C426 0.950 . S
H467 C432 0.949 . S
H468 C433 0.950 . S
H469 C437 0.951 . S
H470 C438 0.950 . S
H471 C442 0.949 . S
H472 C443 0.950 . S
H473 C447 0.950 . S
H474 C449 0.950 . S
H475 C452 0.950 . S
H476 C454 0.950 . S
C477 C478 1.443 . S
C477 N481 1.376 . S
C477 C515 1.389 . S
C478 C477 1.443 . S
C478 C479 1.340 1_545 S
C478 H518 0.951 . S
C479 C478 1.340 1_565 S
C479 C480 1.439 . S
C479 H519 0.950 . S
C480 C479 1.439 . S
C480 N481 1.374 1_565 S
C480 C514 1.395 . S
N481 C477 1.376 . S
N481 C480 1.374 1_545 S
N481 Co482 2.008 . S
Co482 N481 2.008 . S
Co482 N483 1.995 1_545 S
Co482 N488 2.008 . S
Co482 N493 1.995 . S
Co482 N498 2.282 . S
Co482 N504 2.282 . S
N483 Co482 1.995 1_565 S
N483 C484 1.376 . S
N483 C487 1.383 . S
C484 N483 1.376 . S
C484 C485 1.446 . S
C484 C514 1.391 . S
C485 C484 1.446 . S
C485 C486 1.339 . S
C485 H520 0.949 . S
C486 C485 1.339 . S
C486 C487 1.439 . S
C486 H521 0.950 . S
C487 N483 1.383 . S
C487 C486 1.439 . S
C487 C516 1.392 . S
N488 Co482 2.008 . S
N488 C489 1.376 . S
N488 C492 1.374 . S
C489 N488 1.376 . S
C489 C490 1.443 . S
C489 C516 1.389 1_545 S
C490 C489 1.443 . S
C490 C491 1.340 . S
C490 H522 0.951 . S
C491 C490 1.340 . S
C491 C492 1.439 . S
C491 H523 0.950 . S
C492 N488 1.374 . S
C492 C491 1.439 . S
C492 C517 1.395 . S
N493 Co482 1.995 . S
N493 C494 1.376 . S
N493 C497 1.383 . S
C494 N493 1.376 . S
C494 C495 1.446 . S
C494 C517 1.391 . S
C495 C494 1.446 . S
C495 C496 1.339 . S
C495 H524 0.949 . S
C496 C495 1.339 . S
C496 C497 1.439 . S
C496 H525 0.950 . S
C497 N493 1.383 . S
C497 C496 1.439 . S
C497 C515 1.392 . S
N498 Co482 2.282 . S
N498 C501 1.332 . S
N498 C503 1.332 . S
C499 C500 1.386 . S
C499 C502 1.373 1_545 S
C500 C499 1.386 . S
C500 C501 1.382 . S
C500 H526 0.950 . S
C501 N498 1.332 . S
C501 C500 1.382 . S
C501 H512 0.952 . S
C502 C499 1.373 1_565 S
C502 C503 1.379 1_565 S
C502 H527 0.968 . S
C503 N498 1.332 . S
C503 C502 1.379 1_545 S
C503 H513 0.948 1_545 S
N504 Co482 2.282 . S
N504 C508 1.332 . S
N504 C509 1.332 . S
C505 C506 1.388 . S
C505 C509 1.382 . S
C505 H528 0.950 . S
C506 C505 1.388 . S
C506 C507 1.386 . S
C507 C506 1.386 . S
C507 C508 1.382 . S
C507 H529 0.950 . S
C508 N504 1.332 . S
C508 C507 1.382 . S
C508 H510 0.989 . S
C509 N504 1.332 . S
C509 C505 1.382 . S
C509 H511 0.948 . S
H510 C508 0.989 . S
H511 C509 0.948 . S
H512 C501 0.952 . S
H513 C503 0.948 1_565 S
C514 C480 1.395 . S
C514 C484 1.391 . S
C515 C477 1.389 . S
C515 C497 1.392 . S
C516 C487 1.392 . S
C516 C489 1.389 1_565 S
C517 C492 1.395 . S
C517 C494 1.391 . S
H518 C478 0.951 . S
H519 C479 0.950 . S
H520 C485 0.949 . S
H521 C486 0.950 . S
H522 C490 0.951 . S
H523 C491 0.950 . S
H524 C495 0.949 . S
H525 C496 0.950 . S
H526 C500 0.950 . S
H527 C502 0.968 . S
H528 C505 0.950 . S
H529 C507 0.950 . S
C530 C531 1.443 . S
C530 N534 1.376 . S
C530 C568 1.389 . S
C531 C530 1.443 . S
C531 C532 1.340 . S
C531 H571 0.951 . S
C532 C531 1.340 . S
C532 C533 1.439 . S
C532 H572 0.950 . S
C533 C532 1.439 . S
C533 N534 1.374 . S
C533 C567 1.395 . S
N534 C530 1.376 . S
N534 C533 1.374 . S
N534 Co535 2.008 . S
Co535 N534 2.008 . S
Co535 N536 1.995 . S
Co535 N541 2.008 . S
Co535 N546 1.995 . S
Co535 N551 2.282 . S
Co535 N557 2.282 . S
N536 Co535 1.995 . S
N536 C537 1.376 . S
N536 C540 1.383 . S
C537 N536 1.376 . S
C537 C538 1.446 . S
C537 C567 1.391 . S
C538 C537 1.446 . S
C538 C539 1.339 . S
C538 H573 0.949 . S
C539 C538 1.339 . S
C539 C540 1.439 . S
C539 H574 0.950 . S
C540 N536 1.383 . S
C540 C539 1.439 . S
C540 C569 1.392 . S
N541 Co535 2.008 . S
N541 C542 1.376 . S
N541 C545 1.374 . S
C542 N541 1.376 . S
C542 C543 1.443 . S
C542 C569 1.389 . S
C543 C542 1.443 . S
C543 C544 1.340 . S
C543 H575 0.951 . S
C544 C543 1.340 . S
C544 C545 1.439 . S
C544 H576 0.950 . S
C545 N541 1.374 . S
C545 C544 1.439 . S
C545 C570 1.395 . S
N546 Co535 1.995 . S
N546 C547 1.376 . S
N546 C550 1.383 . S
C547 N546 1.376 . S
C547 C548 1.446 . S
C547 C570 1.391 . S
C548 C547 1.446 . S
C548 C549 1.339 . S
C548 H577 0.949 . S
C549 C548 1.339 . S
C549 C550 1.439 . S
C549 H578 0.950 . S
C550 N546 1.383 . S
C550 C549 1.439 . S
C550 C568 1.392 . S
N551 Co535 2.282 . S
N551 C554 1.332 . S
N551 C556 1.332 . S
C552 C553 1.386 . S
C552 C555 1.388 . S
C553 C552 1.386 . S
C553 C554 1.382 . S
C553 H579 0.950 . S
C554 N551 1.332 . S
C554 C553 1.382 . S
C554 H565 0.952 . S
C555 C552 1.388 . S
C555 C556 1.382 . S
C555 H580 0.950 . S
C556 N551 1.332 . S
C556 C555 1.382 . S
C556 H566 0.948 . S
N557 Co535 2.282 . S
N557 C561 1.332 . S
N557 C562 1.332 . S
C558 C559 1.388 . S
C558 C562 1.382 . S
C558 H581 0.950 . S
C559 C558 1.388 . S
C559 C560 1.386 . S
C560 C559 1.386 . S
C560 C561 1.382 . S
C560 H582 0.950 . S
C561 N557 1.332 . S
C561 C560 1.382 . S
C561 H563 0.952 . S
C562 N557 1.332 . S
C562 C558 1.382 . S
C562 H564 0.948 . S
H563 C561 0.952 . S
H564 C562 0.948 . S
H565 C554 0.952 . S
H566 C556 0.948 . S
C567 C533 1.395 . S
C567 C537 1.391 . S
C568 C530 1.389 . S
C568 C550 1.392 . S
C569 C540 1.392 . S
C569 C542 1.389 . S
C570 C545 1.395 . S
C570 C547 1.391 . S
H571 C531 0.951 . S
H572 C532 0.950 . S
H573 C538 0.949 . S
H574 C539 0.950 . S
H575 C543 0.951 . S
H576 C544 0.950 . S
H577 C548 0.949 . S
H578 C549 0.950 . S
H579 C553 0.950 . S
H580 C555 0.950 . S
H581 C558 0.950 . S
H582 C560 0.950 . S
C583 C584 1.443 . S
C583 N587 1.376 . S
C583 C621 1.389 . S
C584 C583 1.443 . S
C584 C585 1.340 1_565 S
C584 H624 0.951 . S
C585 C584 1.340 1_545 S
C585 C586 1.439 . S
C585 H625 0.950 . S
C586 C585 1.439 . S
C586 N587 1.374 1_545 S
C586 C620 1.395 . S
N587 C583 1.376 . S
N587 C586 1.374 1_565 S
N587 Co588 2.008 . S
Co588 N587 2.008 . S
Co588 N589 1.995 1_565 S
Co588 N594 2.008 . S
Co588 N599 1.995 . S
Co588 N604 2.282 . S
Co588 N610 2.282 . S
N589 Co588 1.995 1_545 S
N589 C590 1.376 . S
N589 C593 1.383 . S
C590 N589 1.376 . S
C590 C591 1.446 . S
C590 C620 1.391 . S
C591 C590 1.446 . S
C591 C592 1.339 . S
C591 H626 0.949 . S
C592 C591 1.339 . S
C592 C593 1.439 . S
C592 H627 0.950 . S
C593 N589 1.383 . S
C593 C592 1.439 . S
C593 C622 1.392 . S
N594 Co588 2.008 . S
N594 C595 1.376 . S
N594 C598 1.374 . S
C595 N594 1.376 . S
C595 C596 1.443 . S
C595 C622 1.389 1_565 S
C596 C595 1.443 . S
C596 C597 1.340 . S
C596 H628 0.951 . S
C597 C596 1.340 . S
C597 C598 1.439 . S
C597 H629 0.950 . S
C598 N594 1.374 . S
C598 C597 1.439 . S
C598 C623 1.395 . S
N599 Co588 1.995 . S
N599 C600 1.376 . S
N599 C603 1.383 . S
C600 N599 1.376 . S
C600 C601 1.446 . S
C600 C623 1.391 . S
C601 C600 1.446 . S
C601 C602 1.339 . S
C601 H630 0.949 . S
C602 C601 1.339 . S
C602 C603 1.439 . S
C602 H631 0.950 . S
C603 N599 1.383 . S
C603 C602 1.439 . S
C603 C621 1.392 . S
N604 Co588 2.282 . S
N604 C607 1.332 . S
N604 C609 1.332 . S
C605 C606 1.386 . S
C605 C608 1.373 1_565 S
C606 C605 1.386 . S
C606 C607 1.382 . S
C606 H632 0.950 . S
C607 N604 1.332 . S
C607 C606 1.382 . S
C607 H618 0.952 . S
C608 C605 1.373 1_545 S
C608 C609 1.379 1_545 S
C608 H633 0.968 . S
C609 N604 1.332 . S
C609 C608 1.379 1_565 S
C609 H619 0.948 1_565 S
N610 Co588 2.282 . S
N610 C614 1.332 . S
N610 C615 1.332 . S
C611 C612 1.388 . S
C611 C615 1.382 . S
C611 H634 0.950 . S
C612 C611 1.388 . S
C612 C613 1.386 . S
C613 C612 1.386 . S
C613 C614 1.382 . S
C613 H635 0.950 . S
C614 N610 1.332 . S
C614 C613 1.382 . S
C614 H616 0.989 . S
C615 N610 1.332 . S
C615 C611 1.382 . S
C615 H617 0.948 . S
H616 C614 0.989 . S
H617 C615 0.948 . S
H618 C607 0.952 . S
H619 C609 0.948 1_545 S
C620 C586 1.395 . S
C620 C590 1.391 . S
C621 C583 1.389 . S
C621 C603 1.392 . S
C622 C593 1.392 . S
C622 C595 1.389 1_545 S
C623 C598 1.395 . S
C623 C600 1.391 . S
H624 C584 0.951 . S
H625 C585 0.950 . S
H626 C591 0.949 . S
H627 C592 0.950 . S
H628 C596 0.951 . S
H629 C597 0.950 . S
H630 C601 0.949 . S
H631 C602 0.950 . S
H632 C606 0.950 . S
H633 C608 0.968 . S
H634 C611 0.950 . S
H635 C613 0.950 . S
C636 C637 1.443 . S
C636 N640 1.376 . S
C636 C674 1.389 . S
C637 C636 1.443 . S
C637 C638 1.340 . S
C637 H677 0.951 . S
C638 C637 1.340 . S
C638 C639 1.439 . S
C638 H678 0.950 . S
C639 C638 1.439 . S
C639 N640 1.374 . S
C639 C673 1.395 . S
N640 C636 1.376 . S
N640 C639 1.374 . S
N640 Co641 2.008 . S
Co641 N640 2.008 . S
Co641 N642 1.995 . S
Co641 N647 2.008 . S
Co641 N652 1.995 . S
Co641 N657 2.282 . S
Co641 N663 2.282 . S
N642 Co641 1.995 . S
N642 C643 1.376 . S
N642 C646 1.383 . S
C643 N642 1.376 . S
C643 C644 1.446 . S
C643 C673 1.391 . S
C644 C643 1.446 . S
C644 C645 1.339 . S
C644 H679 0.949 . S
C645 C644 1.339 . S
C645 C646 1.439 . S
C645 H680 0.950 . S
C646 N642 1.383 . S
C646 C645 1.439 . S
C646 C675 1.392 . S
N647 Co641 2.008 . S
N647 C648 1.376 . S
N647 C651 1.374 . S
C648 N647 1.376 . S
C648 C649 1.443 . S
C648 C675 1.389 . S
C649 C648 1.443 . S
C649 C650 1.340 . S
C649 H681 0.951 . S
C650 C649 1.340 . S
C650 C651 1.439 . S
C650 H682 0.950 . S
C651 N647 1.374 . S
C651 C650 1.439 . S
C651 C676 1.395 . S
N652 Co641 1.995 . S
N652 C653 1.376 . S
N652 C656 1.383 . S
C653 N652 1.376 . S
C653 C654 1.446 . S
C653 C676 1.391 . S
C654 C653 1.446 . S
C654 C655 1.339 . S
C654 H683 0.949 . S
C655 C654 1.339 . S
C655 C656 1.439 . S
C655 H684 0.950 . S
C656 N652 1.383 . S
C656 C655 1.439 . S
C656 C674 1.392 . S
N657 Co641 2.282 . S
N657 C660 1.332 . S
N657 C662 1.332 . S
C658 C659 1.386 . S
C658 C661 1.388 . S
C659 C658 1.386 . S
C659 C660 1.382 . S
C659 H685 0.950 . S
C660 N657 1.332 . S
C660 C659 1.382 . S
C660 H671 0.952 . S
C661 C658 1.388 . S
C661 C662 1.382 . S
C661 H686 0.950 . S
C662 N657 1.332 . S
C662 C661 1.382 . S
C662 H672 0.948 . S
N663 Co641 2.282 . S
N663 C667 1.332 . S
N663 C668 1.332 . S
C664 C665 1.388 . S
C664 C668 1.382 . S
C664 H687 0.950 . S
C665 C664 1.388 . S
C665 C666 1.386 . S
C666 C665 1.386 . S
C666 C667 1.382 . S
C666 H688 0.950 . S
C667 N663 1.332 . S
C667 C666 1.382 . S
C667 H669 0.952 . S
C668 N663 1.332 . S
C668 C664 1.382 . S
C668 H670 0.948 . S
H669 C667 0.952 . S
H670 C668 0.948 . S
H671 C660 0.952 . S
H672 C662 0.948 . S
C673 C639 1.395 . S
C673 C643 1.391 . S
C674 C636 1.389 . S
C674 C656 1.392 . S
C675 C646 1.392 . S
C675 C648 1.389 . S
C676 C651 1.395 . S
C676 C653 1.391 . S
H677 C637 0.951 . S
H678 C638 0.950 . S
H679 C644 0.949 . S
H680 C645 0.950 . S
H681 C649 0.951 . S
H682 C650 0.950 . S
H683 C654 0.949 . S
H684 C655 0.950 . S
H685 C659 0.950 . S
H686 C661 0.950 . S
H687 C664 0.950 . S
H688 C666 0.950 . S
C689 C690 1.443 . S
C689 N693 1.376 . S
C689 C727 1.389 . S
C690 C689 1.443 . S
C690 C691 1.340 1_545 S
C690 H730 0.951 . S
C691 C690 1.340 1_565 S
C691 C692 1.439 . S
C691 H731 0.950 . S
C692 C691 1.439 . S
C692 N693 1.374 1_565 S
C692 C726 1.395 . S
N693 C689 1.376 . S
N693 C692 1.374 1_545 S
N693 Co694 2.008 . S
Co694 N693 2.008 . S
Co694 N695 1.995 1_545 S
Co694 N700 2.008 . S
Co694 N705 1.995 . S
Co694 N710 2.282 . S
Co694 N716 2.282 . S
N695 Co694 1.995 1_565 S
N695 C696 1.376 . S
N695 C699 1.383 . S
C696 N695 1.376 . S
C696 C697 1.446 . S
C696 C726 1.391 . S
C697 C696 1.446 . S
C697 C698 1.339 . S
C697 H732 0.949 . S
C698 C697 1.339 . S
C698 C699 1.439 . S
C698 H733 0.950 . S
C699 N695 1.383 . S
C699 C698 1.439 . S
C699 C728 1.392 . S
N700 Co694 2.008 . S
N700 C701 1.376 . S
N700 C704 1.374 . S
C701 N700 1.376 . S
C701 C702 1.443 . S
C701 C728 1.389 1_545 S
C702 C701 1.443 . S
C702 C703 1.340 . S
C702 H734 0.951 . S
C703 C702 1.340 . S
C703 C704 1.439 . S
C703 H735 0.950 . S
C704 N700 1.374 . S
C704 C703 1.439 . S
C704 C729 1.395 . S
N705 Co694 1.995 . S
N705 C706 1.376 . S
N705 C709 1.383 . S
C706 N705 1.376 . S
C706 C707 1.446 . S
C706 C729 1.391 . S
C707 C706 1.446 . S
C707 C708 1.339 . S
C707 H736 0.949 . S
C708 C707 1.339 . S
C708 C709 1.439 . S
C708 H737 0.950 . S
C709 N705 1.383 . S
C709 C708 1.439 . S
C709 C727 1.392 . S
N710 Co694 2.282 . S
N710 C713 1.332 . S
N710 C715 1.332 . S
C711 C712 1.386 . S
C711 C714 1.373 1_545 S
C712 C711 1.386 . S
C712 C713 1.382 . S
C712 H738 0.950 . S
C713 N710 1.332 . S
C713 C712 1.382 . S
C713 H724 0.952 . S
C714 C711 1.373 1_565 S
C714 C715 1.379 1_565 S
C714 H739 0.968 . S
C715 N710 1.332 . S
C715 C714 1.379 1_545 S
C715 H725 0.948 1_545 S
N716 Co694 2.282 . S
N716 C720 1.332 . S
N716 C721 1.332 . S
C717 C718 1.388 . S
C717 C721 1.382 . S
C717 H740 0.950 . S
C718 C717 1.388 . S
C718 C719 1.386 . S
C719 C718 1.386 . S
C719 C720 1.382 . S
C719 H741 0.950 . S
C720 N716 1.332 . S
C720 C719 1.382 . S
C720 H722 0.989 . S
C721 N716 1.332 . S
C721 C717 1.382 . S
C721 H723 0.948 . S
H722 C720 0.989 . S
H723 C721 0.948 . S
H724 C713 0.952 . S
H725 C715 0.948 1_565 S
C726 C692 1.395 . S
C726 C696 1.391 . S
C727 C689 1.389 . S
C727 C709 1.392 . S
C728 C699 1.392 . S
C728 C701 1.389 1_565 S
C729 C704 1.395 . S
C729 C706 1.391 . S
H730 C690 0.951 . S
H731 C691 0.950 . S
H732 C697 0.949 . S
H733 C698 0.950 . S
H734 C702 0.951 . S
H735 C703 0.950 . S
H736 C707 0.949 . S
H737 C708 0.950 . S
H738 C712 0.950 . S
H739 C714 0.968 . S
H740 C717 0.950 . S
H741 C719 0.950 . S
C742 C743 1.443 . S
C742 N746 1.376 . S
C742 C780 1.389 . S
C743 C742 1.443 . S
C743 C744 1.340 . S
C743 H783 0.951 . S
C744 C743 1.340 . S
C744 C745 1.439 . S
C744 H784 0.950 . S
C745 C744 1.439 . S
C745 N746 1.374 . S
C745 C779 1.395 . S
N746 C742 1.376 . S
N746 C745 1.374 . S
N746 Co747 2.008 . S
Co747 N746 2.008 . S
Co747 N748 1.995 . S
Co747 N753 2.008 . S
Co747 N758 1.995 . S
Co747 N763 2.282 . S
Co747 N769 2.282 . S
N748 Co747 1.995 . S
N748 C749 1.376 . S
N748 C752 1.383 . S
C749 N748 1.376 . S
C749 C750 1.446 . S
C749 C779 1.391 . S
C750 C749 1.446 . S
C750 C751 1.339 . S
C750 H785 0.949 . S
C751 C750 1.339 . S
C751 C752 1.439 . S
C751 H786 0.950 . S
C752 N748 1.383 . S
C752 C751 1.439 . S
C752 C781 1.392 . S
N753 Co747 2.008 . S
N753 C754 1.376 . S
N753 C757 1.374 . S
C754 N753 1.376 . S
C754 C755 1.443 . S
C754 C781 1.389 . S
C755 C754 1.443 . S
C755 C756 1.340 . S
C755 H787 0.951 . S
C756 C755 1.340 . S
C756 C757 1.439 . S
C756 H788 0.950 . S
C757 N753 1.374 . S
C757 C756 1.439 . S
C757 C782 1.395 . S
N758 Co747 1.995 . S
N758 C759 1.376 . S
N758 C762 1.383 . S
C759 N758 1.376 . S
C759 C760 1.446 . S
C759 C782 1.391 . S
C760 C759 1.446 . S
C760 C761 1.339 . S
C760 H789 0.949 . S
C761 C760 1.339 . S
C761 C762 1.439 . S
C761 H790 0.950 . S
C762 N758 1.383 . S
C762 C761 1.439 . S
C762 C780 1.392 . S
N763 Co747 2.282 . S
N763 C766 1.332 . S
N763 C768 1.332 . S
C764 C765 1.386 . S
C764 C767 1.388 . S
C765 C764 1.386 . S
C765 C766 1.382 . S
C765 H791 0.950 . S
C766 N763 1.332 . S
C766 C765 1.382 . S
C766 H777 0.952 . S
C767 C764 1.388 . S
C767 C768 1.382 . S
C767 H792 0.950 . S
C768 N763 1.332 . S
C768 C767 1.382 . S
C768 H778 0.948 . S
N769 Co747 2.282 . S
N769 C773 1.332 . S
N769 C774 1.332 . S
C770 C771 1.388 . S
C770 C774 1.382 . S
C770 H793 0.950 . S
C771 C770 1.388 . S
C771 C772 1.386 . S
C772 C771 1.386 . S
C772 C773 1.382 . S
C772 H794 0.950 . S
C773 N769 1.332 . S
C773 C772 1.382 . S
C773 H775 0.952 . S
C774 N769 1.332 . S
C774 C770 1.382 . S
C774 H776 0.948 . S
H775 C773 0.952 . S
H776 C774 0.948 . S
H777 C766 0.952 . S
H778 C768 0.948 . S
C779 C745 1.395 . S
C779 C749 1.391 . S
C780 C742 1.389 . S
C780 C762 1.392 . S
C781 C752 1.392 . S
C781 C754 1.389 . S
C782 C757 1.395 . S
C782 C759 1.391 . S
H783 C743 0.951 . S
H784 C744 0.950 . S
H785 C750 0.949 . S
H786 C751 0.950 . S
H787 C755 0.951 . S
H788 C756 0.950 . S
H789 C760 0.949 . S
H790 C761 0.950 . S
H791 C765 0.950 . S
H792 C767 0.950 . S
H793 C770 0.950 . S
H794 C772 0.950 . S
C795 C796 1.443 . S
C795 N799 1.376 . S
C795 C833 1.389 . S
C796 C795 1.443 . S
C796 C797 1.340 1_565 S
C796 H836 0.951 . S
C797 C796 1.340 1_545 S
C797 C798 1.439 . S
C797 H837 0.950 . S
C798 C797 1.439 . S
C798 N799 1.374 1_545 S
C798 C832 1.395 . S
N799 C795 1.376 . S
N799 C798 1.374 1_565 S
N799 Co800 2.008 . S
Co800 N799 2.008 . S
Co800 N801 1.995 1_565 S
Co800 N806 2.008 . S
Co800 N811 1.995 . S
Co800 N816 2.282 . S
Co800 N822 2.282 . S
N801 Co800 1.995 1_545 S
N801 C802 1.376 . S
N801 C805 1.383 . S
C802 N801 1.376 . S
C802 C803 1.446 . S
C802 C832 1.391 . S
C803 C802 1.446 . S
C803 C804 1.339 . S
C803 H838 0.949 . S
C804 C803 1.339 . S
C804 C805 1.439 . S
C804 H839 0.950 . S
C805 N801 1.383 . S
C805 C804 1.439 . S
C805 C834 1.392 . S
N806 Co800 2.008 . S
N806 C807 1.376 . S
N806 C810 1.374 . S
C807 N806 1.376 . S
C807 C808 1.443 . S
C807 C834 1.389 1_565 S
C808 C807 1.443 . S
C808 C809 1.340 . S
C808 H840 0.951 . S
C809 C808 1.340 . S
C809 C810 1.439 . S
C809 H841 0.950 . S
C810 N806 1.374 . S
C810 C809 1.439 . S
C810 C835 1.395 . S
N811 Co800 1.995 . S
N811 C812 1.376 . S
N811 C815 1.383 . S
C812 N811 1.376 . S
C812 C813 1.446 . S
C812 C835 1.391 . S
C813 C812 1.446 . S
C813 C814 1.339 . S
C813 H842 0.949 . S
C814 C813 1.339 . S
C814 C815 1.439 . S
C814 H843 0.950 . S
C815 N811 1.383 . S
C815 C814 1.439 . S
C815 C833 1.392 . S
N816 Co800 2.282 . S
N816 C819 1.332 . S
N816 C821 1.332 . S
C817 C818 1.386 . S
C817 C820 1.373 1_565 S
C818 C817 1.386 . S
C818 C819 1.382 . S
C818 H844 0.950 . S
C819 N816 1.332 . S
C819 C818 1.382 . S
C819 H830 0.952 . S
C820 C817 1.373 1_545 S
C820 C821 1.379 1_545 S
C820 H845 0.968 . S
C821 N816 1.332 . S
C821 C820 1.379 1_565 S
C821 H831 0.948 1_565 S
N822 Co800 2.282 . S
N822 C826 1.332 . S
N822 C827 1.332 . S
C823 C824 1.388 . S
C823 C827 1.382 . S
C823 H846 0.950 . S
C824 C823 1.388 . S
C824 C825 1.386 . S
C825 C824 1.386 . S
C825 C826 1.382 . S
C825 H847 0.950 . S
C826 N822 1.332 . S
C826 C825 1.382 . S
C826 H828 0.989 . S
C827 N822 1.332 . S
C827 C823 1.382 . S
C827 H829 0.948 . S
H828 C826 0.989 . S
H829 C827 0.948 . S
H830 C819 0.952 . S
H831 C821 0.948 1_545 S
C832 C798 1.395 . S
C832 C802 1.391 . S
C833 C795 1.389 . S
C833 C815 1.392 . S
C834 C805 1.392 . S
C834 C807 1.389 1_545 S
C835 C810 1.395 . S
C835 C812 1.391 . S
H836 C796 0.951 . S
H837 C797 0.950 . S
H838 C803 0.949 . S
H839 C804 0.950 . S
H840 C808 0.951 . S
H841 C809 0.950 . S
H842 C813 0.949 . S
H843 C814 0.950 . S
H844 C818 0.950 . S
H845 C820 0.968 . S
H846 C823 0.950 . S
H847 C825 0.950 . S
C848 C849 1.443 . S
C848 N852 1.376 . S
C848 C886 1.389 . S
C849 C848 1.443 . S
C849 C850 1.340 . S
C849 H889 0.951 . S
C850 C849 1.340 . S
C850 C851 1.439 . S
C850 H890 0.950 . S
C851 C850 1.439 . S
C851 N852 1.374 . S
C851 C885 1.395 . S
N852 C848 1.376 . S
N852 C851 1.374 . S
N852 Co853 2.008 . S
Co853 N852 2.008 . S
Co853 N854 1.995 . S
Co853 N859 2.008 . S
Co853 N864 1.995 . S
Co853 N869 2.282 . S
Co853 N875 2.282 . S
N854 Co853 1.995 . S
N854 C855 1.376 . S
N854 C858 1.383 . S
C855 N854 1.376 . S
C855 C856 1.446 . S
C855 C885 1.391 . S
C856 C855 1.446 . S
C856 C857 1.339 . S
C856 H891 0.949 . S
C857 C856 1.339 . S
C857 C858 1.439 . S
C857 H892 0.950 . S
C858 N854 1.383 . S
C858 C857 1.439 . S
C858 C887 1.392 . S
N859 Co853 2.008 . S
N859 C860 1.376 . S
N859 C863 1.374 . S
C860 N859 1.376 . S
C860 C861 1.443 . S
C860 C887 1.389 . S
C861 C860 1.443 . S
C861 C862 1.340 . S
C861 H893 0.951 . S
C862 C861 1.340 . S
C862 C863 1.439 . S
C862 H894 0.950 . S
C863 N859 1.374 . S
C863 C862 1.439 . S
C863 C888 1.395 . S
N864 Co853 1.995 . S
N864 C865 1.376 . S
N864 C868 1.383 . S
C865 N864 1.376 . S
C865 C866 1.446 . S
C865 C888 1.391 . S
C866 C865 1.446 . S
C866 C867 1.339 . S
C866 H895 0.949 . S
C867 C866 1.339 . S
C867 C868 1.439 . S
C867 H896 0.950 . S
C868 N864 1.383 . S
C868 C867 1.439 . S
C868 C886 1.392 . S
N869 Co853 2.282 . S
N869 C872 1.332 . S
N869 C874 1.332 . S
C870 C871 1.386 . S
C870 C873 1.388 . S
C871 C870 1.386 . S
C871 C872 1.382 . S
C871 H897 0.950 . S
C872 N869 1.332 . S
C872 C871 1.382 . S
C872 H883 0.952 . S
C873 C870 1.388 . S
C873 C874 1.382 . S
C873 H898 0.950 . S
C874 N869 1.332 . S
C874 C873 1.382 . S
C874 H884 0.948 . S
N875 Co853 2.282 . S
N875 C879 1.332 . S
N875 C880 1.332 . S
C876 C877 1.388 . S
C876 C880 1.382 . S
C876 H899 0.950 . S
C877 C876 1.388 . S
C877 C878 1.386 . S
C878 C877 1.386 . S
C878 C879 1.382 . S
C878 H900 0.950 . S
C879 N875 1.332 . S
C879 C878 1.382 . S
C879 H881 0.952 . S
C880 N875 1.332 . S
C880 C876 1.382 . S
C880 H882 0.948 . S
H881 C879 0.952 . S
H882 C880 0.948 . S
H883 C872 0.952 . S
H884 C874 0.948 . S
C885 C851 1.395 . S
C885 C855 1.391 . S
C886 C848 1.389 . S
C886 C868 1.392 . S
C887 C858 1.392 . S
C887 C860 1.389 . S
C888 C863 1.395 . S
C888 C865 1.391 . S
H889 C849 0.951 . S
H890 C850 0.950 . S
H891 C856 0.949 . S
H892 C857 0.950 . S
H893 C861 0.951 . S
H894 C862 0.950 . S
H895 C866 0.949 . S
H896 C867 0.950 . S
H897 C871 0.950 . S
H898 C873 0.950 . S
H899 C876 0.950 . S
H900 C878 0.950 . S
C901 C902 1.443 . S
C901 N905 1.376 . S
C901 C939 1.389 . S
C902 C901 1.443 . S
C902 C903 1.340 . S
C902 H942 0.951 . S
C903 C902 1.340 . S
C903 C904 1.439 . S
C903 H943 0.950 . S
C904 C903 1.439 . S
C904 N905 1.374 . S
C904 C938 1.395 . S
N905 C901 1.376 . S
N905 C904 1.374 . S
N905 Co906 2.008 . S
Co906 N905 2.008 . S
Co906 N907 1.995 . S
Co906 N912 2.008 . S
Co906 N917 1.995 . S
Co906 N922 2.282 . S
Co906 N928 2.282 . S
N907 Co906 1.995 . S
N907 C908 1.376 . S
N907 C911 1.383 . S
C908 N907 1.376 . S
C908 C909 1.446 . S
C908 C938 1.391 . S
C909 C908 1.446 . S
C909 C910 1.339 . S
C909 H944 0.949 . S
C910 C909 1.339 . S
C910 C911 1.439 . S
C910 H945 0.950 . S
C911 N907 1.383 . S
C911 C910 1.439 . S
C911 C940 1.392 . S
N912 Co906 2.008 . S
N912 C913 1.376 . S
N912 C916 1.374 . S
C913 N912 1.376 . S
C913 C914 1.443 . S
C913 C940 1.389 . S
C914 C913 1.443 . S
C914 C915 1.340 . S
C914 H946 0.951 . S
C915 C914 1.340 . S
C915 C916 1.439 . S
C915 H947 0.950 . S
C916 N912 1.374 . S
C916 C915 1.439 . S
C916 C941 1.395 . S
N917 Co906 1.995 . S
N917 C918 1.376 . S
N917 C921 1.383 . S
C918 N917 1.376 . S
C918 C919 1.446 . S
C918 C941 1.391 . S
C919 C918 1.446 . S
C919 C920 1.339 . S
C919 H948 0.949 . S
C920 C919 1.339 . S
C920 C921 1.439 . S
C920 H949 0.950 . S
C921 N917 1.383 . S
C921 C920 1.439 . S
C921 C939 1.392 . S
N922 Co906 2.282 . S
N922 C925 1.332 . S
N922 C927 1.332 . S
C923 C924 1.386 . S
C923 C926 1.388 . S
C924 C923 1.386 . S
C924 C925 1.382 . S
C924 H950 0.950 . S
C925 N922 1.332 . S
C925 C924 1.382 . S
C925 H936 0.952 . S
C926 C923 1.388 . S
C926 C927 1.382 . S
C926 H951 0.950 . S
C927 N922 1.332 . S
C927 C926 1.382 . S
C927 H937 0.948 . S
N928 Co906 2.282 . S
N928 C932 1.332 . S
N928 C933 1.332 . S
C929 C930 1.388 . S
C929 C933 1.382 . S
C929 H952 0.950 . S
C930 C929 1.388 . S
C930 C931 1.386 . S
C931 C930 1.386 . S
C931 C932 1.382 . S
C931 H953 0.950 . S
C932 N928 1.332 . S
C932 C931 1.382 . S
C932 H934 0.952 . S
C933 N928 1.332 . S
C933 C929 1.382 . S
C933 H935 0.948 . S
H934 C932 0.952 . S
H935 C933 0.948 . S
H936 C925 0.952 . S
H937 C927 0.948 . S
C938 C904 1.395 . S
C938 C908 1.391 . S
C939 C901 1.389 . S
C939 C921 1.392 . S
C940 C911 1.392 . S
C940 C913 1.389 . S
C941 C916 1.395 . S
C941 C918 1.391 . S
H942 C902 0.951 . S
H943 C903 0.950 . S
H944 C909 0.949 . S
H945 C910 0.950 . S
H946 C914 0.951 . S
H947 C915 0.950 . S
H948 C919 0.949 . S
H949 C920 0.950 . S
H950 C924 0.950 . S
H951 C926 0.950 . S
H952 C929 0.950 . S
H953 C931 0.950 . S
C954 C955 1.443 . S
C954 N958 1.376 . S
C954 C992 1.389 . S
C955 C954 1.443 . S
C955 C956 1.340 . S
C955 H995 0.951 . S
C956 C955 1.340 . S
C956 C957 1.439 . S
C956 H996 0.950 . S
C957 C956 1.439 . S
C957 N958 1.374 . S
C957 C991 1.395 . S
N958 C954 1.376 . S
N958 C957 1.374 . S
N958 Co959 2.008 . S
Co959 N958 2.008 . S
Co959 N960 1.995 . S
Co959 N965 2.008 . S
Co959 N970 1.995 . S
Co959 N975 2.282 . S
Co959 N981 2.282 . S
N960 Co959 1.995 . S
N960 C961 1.376 . S
N960 C964 1.383 . S
C961 N960 1.376 . S
C961 C962 1.446 . S
C961 C991 1.391 . S
C962 C961 1.446 . S
C962 C963 1.339 . S
C962 H997 0.949 . S
C963 C962 1.339 . S
C963 C964 1.439 . S
C963 H998 0.950 . S
C964 N960 1.383 . S
C964 C963 1.439 . S
C964 C993 1.392 . S
N965 Co959 2.008 . S
N965 C966 1.376 . S
N965 C969 1.374 . S
C966 N965 1.376 . S
C966 C967 1.443 . S
C966 C993 1.389 . S
C967 C966 1.443 . S
C967 C968 1.340 . S
C967 H999 0.951 . S
C968 C967 1.340 . S
C968 C969 1.439 . S
C968 H1000 0.950 . S
C969 N965 1.374 . S
C969 C968 1.439 . S
C969 C994 1.395 . S
N970 Co959 1.995 . S
N970 C971 1.376 . S
N970 C974 1.383 . S
C971 N970 1.376 . S
C971 C972 1.446 . S
C971 C994 1.391 . S
C972 C971 1.446 . S
C972 C973 1.339 . S
C972 H1001 0.949 . S
C973 C972 1.339 . S
C973 C974 1.439 . S
C973 H1002 0.950 . S
C974 N970 1.383 . S
C974 C973 1.439 . S
C974 C992 1.392 . S
N975 Co959 2.282 . S
N975 C978 1.332 . S
N975 C980 1.332 . S
C976 C977 1.386 . S
C976 C979 1.388 . S
C977 C976 1.386 . S
C977 C978 1.382 . S
C977 H1003 0.950 . S
C978 N975 1.332 . S
C978 C977 1.382 . S
C978 H989 0.952 . S
C979 C976 1.388 . S
C979 C980 1.382 . S
C979 H1004 0.950 . S
C980 N975 1.332 . S
C980 C979 1.382 . S
C980 H990 0.948 . S
N981 Co959 2.282 . S
N981 C985 1.332 . S
N981 C986 1.332 . S
C982 C983 1.388 . S
C982 C986 1.382 . S
C982 H1005 0.950 . S
C983 C982 1.388 . S
C983 C984 1.386 . S
C984 C983 1.386 . S
C984 C985 1.382 . S
C984 H1006 0.950 . S
C985 N981 1.332 . S
C985 C984 1.382 . S
C985 H987 0.952 . S
C986 N981 1.332 . S
C986 C982 1.382 . S
C986 H988 0.948 . S
H987 C985 0.952 . S
H988 C986 0.948 . S
H989 C978 0.952 . S
H990 C980 0.948 . S
C991 C957 1.395 . S
C991 C961 1.391 . S
C992 C954 1.389 . S
C992 C974 1.392 . S
C993 C964 1.392 . S
C993 C966 1.389 . S
C994 C969 1.395 . S
C994 C971 1.391 . S
H995 C955 0.951 . S
H996 C956 0.950 . S
H997 C962 0.949 . S
H998 C963 0.950 . S
H999 C967 0.951 . S
H1000 C968 0.950 . S
H1001 C972 0.949 . S
H1002 C973 0.950 . S
H1003 C977 0.950 . S
H1004 C979 0.950 . S
H1005 C982 0.950 . S
H1006 C984 0.950 . S
C1007 C1008 1.443 . S
C1007 N1011 1.376 . S
C1007 C1045 1.389 . S
C1008 C1007 1.443 . S
C1008 C1009 1.340 . S
C1008 H1048 0.951 . S
C1009 C1008 1.340 . S
C1009 C1010 1.439 . S
C1009 H1049 0.950 . S
C1010 C1009 1.439 . S
C1010 N1011 1.374 . S
C1010 C1044 1.395 . S
N1011 C1007 1.376 . S
N1011 C1010 1.374 . S
N1011 Co1012 2.008 . S
Co1012 N1011 2.008 . S
Co1012 N1013 1.995 . S
Co1012 N1018 2.008 . S
Co1012 N1023 1.995 . S
Co1012 N1028 2.282 . S
Co1012 N1034 2.282 . S
N1013 Co1012 1.995 . S
N1013 C1014 1.376 . S
N1013 C1017 1.383 . S
C1014 N1013 1.376 . S
C1014 C1015 1.446 . S
C1014 C1044 1.391 . S
C1015 C1014 1.446 . S
C1015 C1016 1.339 . S
C1015 H1050 0.949 . S
C1016 C1015 1.339 . S
C1016 C1017 1.439 . S
C1016 H1051 0.950 . S
C1017 N1013 1.383 . S
C1017 C1016 1.439 . S
C1017 C1046 1.392 . S
N1018 Co1012 2.008 . S
N1018 C1019 1.376 . S
N1018 C1022 1.374 . S
C1019 N1018 1.376 . S
C1019 C1020 1.443 . S
C1019 C1046 1.389 . S
C1020 C1019 1.443 . S
C1020 C1021 1.340 . S
C1020 H1052 0.951 . S
C1021 C1020 1.340 . S
C1021 C1022 1.439 . S
C1021 H1053 0.950 . S
C1022 N1018 1.374 . S
C1022 C1021 1.439 . S
C1022 C1047 1.395 . S
N1023 Co1012 1.995 . S
N1023 C1024 1.376 . S
N1023 C1027 1.383 . S
C1024 N1023 1.376 . S
C1024 C1025 1.446 . S
C1024 C1047 1.391 . S
C1025 C1024 1.446 . S
C1025 C1026 1.339 . S
C1025 H1054 0.949 . S
C1026 C1025 1.339 . S
C1026 C1027 1.439 . S
C1026 H1055 0.950 . S
C1027 N1023 1.383 . S
C1027 C1026 1.439 . S
C1027 C1045 1.392 . S
N1028 Co1012 2.282 . S
N1028 C1031 1.332 . S
N1028 C1033 1.332 . S
C1029 C1030 1.386 . S
C1029 C1032 1.388 . S
C1030 C1029 1.386 . S
C1030 C1031 1.382 . S
C1030 H1056 0.950 . S
C1031 N1028 1.332 . S
C1031 C1030 1.382 . S
C1031 H1042 0.952 . S
C1032 C1029 1.388 . S
C1032 C1033 1.382 . S
C1032 H1057 0.950 . S
C1033 N1028 1.332 . S
C1033 C1032 1.382 . S
C1033 H1043 0.948 . S
N1034 Co1012 2.282 . S
N1034 C1038 1.332 . S
N1034 C1039 1.332 . S
C1035 C1036 1.388 . S
C1035 C1039 1.382 . S
C1035 H1058 0.950 . S
C1036 C1035 1.388 . S
C1036 C1037 1.386 . S
C1037 C1036 1.386 . S
C1037 C1038 1.382 . S
C1037 H1059 0.950 . S
C1038 N1034 1.332 . S
C1038 C1037 1.382 . S
C1038 H1040 0.952 . S
C1039 N1034 1.332 . S
C1039 C1035 1.382 . S
C1039 H1041 0.948 . S
H1040 C1038 0.952 . S
H1041 C1039 0.948 . S
H1042 C1031 0.952 . S
H1043 C1033 0.948 . S
C1044 C1010 1.395 . S
C1044 C1014 1.391 . S
C1045 C1007 1.389 . S
C1045 C1027 1.392 . S
C1046 C1017 1.392 . S
C1046 C1019 1.389 . S
C1047 C1022 1.395 . S
C1047 C1024 1.391 . S
H1048 C1008 0.951 . S
H1049 C1009 0.950 . S
H1050 C1015 0.949 . S
H1051 C1016 0.950 . S
H1052 C1020 0.951 . S
H1053 C1021 0.950 . S
H1054 C1025 0.949 . S
H1055 C1026 0.950 . S
H1056 C1030 0.950 . S
H1057 C1032 0.950 . S
H1058 C1035 0.950 . S
H1059 C1037 0.950 . S
C1060 C1061 1.443 . S
C1060 N1064 1.376 . S
C1060 C1098 1.389 . S
C1061 C1060 1.443 . S
C1061 C1062 1.340 . S
C1061 H1101 0.951 . S
C1062 C1061 1.340 . S
C1062 C1063 1.439 . S
C1062 H1102 0.950 . S
C1063 C1062 1.439 . S
C1063 N1064 1.374 . S
C1063 C1097 1.395 . S
N1064 C1060 1.376 . S
N1064 C1063 1.374 . S
N1064 Co1065 2.008 . S
Co1065 N1064 2.008 . S
Co1065 N1066 1.995 . S
Co1065 N1071 2.008 . S
Co1065 N1076 1.995 . S
Co1065 N1081 2.282 . S
Co1065 N1087 2.282 . S
N1066 Co1065 1.995 . S
N1066 C1067 1.376 . S
N1066 C1070 1.383 . S
C1067 N1066 1.376 . S
C1067 C1068 1.446 . S
C1067 C1097 1.391 . S
C1068 C1067 1.446 . S
C1068 C1069 1.339 . S
C1068 H1103 0.949 . S
C1069 C1068 1.339 . S
C1069 C1070 1.439 . S
C1069 H1104 0.950 . S
C1070 N1066 1.383 . S
C1070 C1069 1.439 . S
C1070 C1099 1.392 . S
N1071 Co1065 2.008 . S
N1071 C1072 1.376 . S
N1071 C1075 1.374 . S
C1072 N1071 1.376 . S
C1072 C1073 1.443 . S
C1072 C1099 1.389 . S
C1073 C1072 1.443 . S
C1073 C1074 1.340 . S
C1073 H1105 0.951 . S
C1074 C1073 1.340 . S
C1074 C1075 1.439 . S
C1074 H1106 0.950 . S
C1075 N1071 1.374 . S
C1075 C1074 1.439 . S
C1075 C1100 1.395 . S
N1076 Co1065 1.995 . S
N1076 C1077 1.376 . S
N1076 C1080 1.383 . S
C1077 N1076 1.376 . S
C1077 C1078 1.446 . S
C1077 C1100 1.391 . S
C1078 C1077 1.446 . S
C1078 C1079 1.339 . S
C1078 H1107 0.949 . S
C1079 C1078 1.339 . S
C1079 C1080 1.439 . S
C1079 H1108 0.950 . S
C1080 N1076 1.383 . S
C1080 C1079 1.439 . S
C1080 C1098 1.392 . S
N1081 Co1065 2.282 . S
N1081 C1084 1.332 . S
N1081 C1086 1.332 . S
C1082 C1083 1.386 . S
C1082 C1085 1.388 . S
C1083 C1082 1.386 . S
C1083 C1084 1.382 . S
C1083 H1109 0.950 . S
C1084 N1081 1.332 . S
C1084 C1083 1.382 . S
C1084 H1095 0.952 . S
C1085 C1082 1.388 . S
C1085 C1086 1.382 . S
C1085 H1110 0.950 . S
C1086 N1081 1.332 . S
C1086 C1085 1.382 . S
C1086 H1096 0.948 . S
N1087 Co1065 2.282 . S
N1087 C1091 1.332 . S
N1087 C1092 1.332 . S
C1088 C1089 1.388 . S
C1088 C1092 1.382 . S
C1088 H1111 0.950 . S
C1089 C1088 1.388 . S
C1089 C1090 1.386 . S
C1090 C1089 1.386 . S
C1090 C1091 1.382 . S
C1090 H1112 0.950 . S
C1091 N1087 1.332 . S
C1091 C1090 1.382 . S
C1091 H1093 0.952 . S
C1092 N1087 1.332 . S
C1092 C1088 1.382 . S
C1092 H1094 0.948 . S
H1093 C1091 0.952 . S
H1094 C1092 0.948 . S
H1095 C1084 0.952 . S
H1096 C1086 0.948 . S
C1097 C1063 1.395 . S
C1097 C1067 1.391 . S
C1098 C1060 1.389 . S
C1098 C1080 1.392 . S
C1099 C1070 1.392 . S
C1099 C1072 1.389 . S
C1100 C1075 1.395 . S
C1100 C1077 1.391 . S
H1101 C1061 0.951 . S
H1102 C1062 0.950 . S
H1103 C1068 0.949 . S
H1104 C1069 0.950 . S
H1105 C1073 0.951 . S
H1106 C1074 0.950 . S
H1107 C1078 0.949 . S
H1108 C1079 0.950 . S
H1109 C1083 0.950 . S
H1110 C1085 0.950 . S
H1111 C1088 0.950 . S
H1112 C1090 0.950 . S
C1113 C1114 1.443 . S
C1113 N1117 1.376 . S
C1113 C1151 1.389 . S
C1114 C1113 1.443 . S
C1114 C1115 1.340 . S
C1114 H1154 0.951 . S
C1115 C1114 1.340 . S
C1115 C1116 1.439 . S
C1115 H1155 0.950 . S
C1116 C1115 1.439 . S
C1116 N1117 1.374 . S
C1116 C1150 1.395 . S
N1117 C1113 1.376 . S
N1117 C1116 1.374 . S
N1117 Co1118 2.008 . S
Co1118 N1117 2.008 . S
Co1118 N1119 1.995 . S
Co1118 N1124 2.008 . S
Co1118 N1129 1.995 . S
Co1118 N1134 2.282 . S
Co1118 N1140 2.282 . S
N1119 Co1118 1.995 . S
N1119 C1120 1.376 . S
N1119 C1123 1.383 . S
C1120 N1119 1.376 . S
C1120 C1121 1.446 . S
C1120 C1150 1.391 . S
C1121 C1120 1.446 . S
C1121 C1122 1.339 . S
C1121 H1156 0.949 . S
C1122 C1121 1.339 . S
C1122 C1123 1.439 . S
C1122 H1157 0.950 . S
C1123 N1119 1.383 . S
C1123 C1122 1.439 . S
C1123 C1152 1.392 . S
N1124 Co1118 2.008 . S
N1124 C1125 1.376 . S
N1124 C1128 1.374 . S
C1125 N1124 1.376 . S
C1125 C1126 1.443 . S
C1125 C1152 1.389 . S
C1126 C1125 1.443 . S
C1126 C1127 1.340 . S
C1126 H1158 0.951 . S
C1127 C1126 1.340 . S
C1127 C1128 1.439 . S
C1127 H1159 0.950 . S
C1128 N1124 1.374 . S
C1128 C1127 1.439 . S
C1128 C1153 1.395 . S
N1129 Co1118 1.995 . S
N1129 C1130 1.376 . S
N1129 C1133 1.383 . S
C1130 N1129 1.376 . S
C1130 C1131 1.446 . S
C1130 C1153 1.391 . S
C1131 C1130 1.446 . S
C1131 C1132 1.339 . S
C1131 H1160 0.949 . S
C1132 C1131 1.339 . S
C1132 C1133 1.439 . S
C1132 H1161 0.950 . S
C1133 N1129 1.383 . S
C1133 C1132 1.439 . S
C1133 C1151 1.392 . S
N1134 Co1118 2.282 . S
N1134 C1137 1.332 . S
N1134 C1139 1.332 . S
C1135 C1136 1.386 . S
C1135 C1138 1.388 . S
C1136 C1135 1.386 . S
C1136 C1137 1.382 . S
C1136 H1162 0.950 . S
C1137 N1134 1.332 . S
C1137 C1136 1.382 . S
C1137 H1148 0.952 . S
C1138 C1135 1.388 . S
C1138 C1139 1.382 . S
C1138 H1163 0.950 . S
C1139 N1134 1.332 . S
C1139 C1138 1.382 . S
C1139 H1149 0.948 . S
N1140 Co1118 2.282 . S
N1140 C1144 1.332 . S
N1140 C1145 1.332 . S
C1141 C1142 1.388 . S
C1141 C1145 1.382 . S
C1141 H1164 0.950 . S
C1142 C1141 1.388 . S
C1142 C1143 1.386 . S
C1143 C1142 1.386 . S
C1143 C1144 1.382 . S
C1143 H1165 0.950 . S
C1144 N1140 1.332 . S
C1144 C1143 1.382 . S
C1144 H1146 0.952 . S
C1145 N1140 1.332 . S
C1145 C1141 1.382 . S
C1145 H1147 0.948 . S
H1146 C1144 0.952 . S
H1147 C1145 0.948 . S
H1148 C1137 0.952 . S
H1149 C1139 0.948 . S
C1150 C1116 1.395 . S
C1150 C1120 1.391 . S
C1151 C1113 1.389 . S
C1151 C1133 1.392 . S
C1152 C1123 1.392 . S
C1152 C1125 1.389 . S
C1153 C1128 1.395 . S
C1153 C1130 1.391 . S
H1154 C1114 0.951 . S
H1155 C1115 0.950 . S
H1156 C1121 0.949 . S
H1157 C1122 0.950 . S
H1158 C1126 0.951 . S
H1159 C1127 0.950 . S
H1160 C1131 0.949 . S
H1161 C1132 0.950 . S
H1162 C1136 0.950 . S
H1163 C1138 0.950 . S
H1164 C1141 0.950 . S
H1165 C1143 0.950 . S
C1166 C1167 1.443 . S
C1166 N1170 1.376 . S
C1166 C1204 1.389 . S
C1167 C1166 1.443 . S
C1167 C1168 1.340 . S
C1167 H1207 0.951 . S
C1168 C1167 1.340 . S
C1168 C1169 1.439 . S
C1168 H1208 0.950 . S
C1169 C1168 1.439 . S
C1169 N1170 1.374 . S
C1169 C1203 1.395 . S
N1170 C1166 1.376 . S
N1170 C1169 1.374 . S
N1170 Co1171 2.008 . S
Co1171 N1170 2.008 . S
Co1171 N1172 1.995 . S
Co1171 N1177 2.008 . S
Co1171 N1182 1.995 . S
Co1171 N1187 2.282 . S
Co1171 N1193 2.282 . S
N1172 Co1171 1.995 . S
N1172 C1173 1.376 . S
N1172 C1176 1.383 . S
C1173 N1172 1.376 . S
C1173 C1174 1.446 . S
C1173 C1203 1.391 . S
C1174 C1173 1.446 . S
C1174 C1175 1.339 . S
C1174 H1209 0.949 . S
C1175 C1174 1.339 . S
C1175 C1176 1.439 . S
C1175 H1210 0.950 . S
C1176 N1172 1.383 . S
C1176 C1175 1.439 . S
C1176 C1205 1.392 . S
N1177 Co1171 2.008 . S
N1177 C1178 1.376 . S
N1177 C1181 1.374 . S
C1178 N1177 1.376 . S
C1178 C1179 1.443 . S
C1178 C1205 1.389 . S
C1179 C1178 1.443 . S
C1179 C1180 1.340 . S
C1179 H1211 0.951 . S
C1180 C1179 1.340 . S
C1180 C1181 1.439 . S
C1180 H1212 0.950 . S
C1181 N1177 1.374 . S
C1181 C1180 1.439 . S
C1181 C1206 1.395 . S
N1182 Co1171 1.995 . S
N1182 C1183 1.376 . S
N1182 C1186 1.383 . S
C1183 N1182 1.376 . S
C1183 C1184 1.446 . S
C1183 C1206 1.391 . S
C1184 C1183 1.446 . S
C1184 C1185 1.339 . S
C1184 H1213 0.949 . S
C1185 C1184 1.339 . S
C1185 C1186 1.439 . S
C1185 H1214 0.950 . S
C1186 N1182 1.383 . S
C1186 C1185 1.439 . S
C1186 C1204 1.392 . S
N1187 Co1171 2.282 . S
N1187 C1190 1.332 . S
N1187 C1192 1.332 . S
C1188 C1189 1.386 . S
C1188 C1191 1.388 . S
C1189 C1188 1.386 . S
C1189 C1190 1.382 . S
C1189 H1215 0.950 . S
C1190 N1187 1.332 . S
C1190 C1189 1.382 . S
C1190 H1201 0.952 . S
C1191 C1188 1.388 . S
C1191 C1192 1.382 . S
C1191 H1216 0.950 . S
C1192 N1187 1.332 . S
C1192 C1191 1.382 . S
C1192 H1202 0.948 . S
N1193 Co1171 2.282 . S
N1193 C1197 1.332 . S
N1193 C1198 1.332 . S
C1194 C1195 1.388 . S
C1194 C1198 1.382 . S
C1194 H1217 0.950 . S
C1195 C1194 1.388 . S
C1195 C1196 1.386 . S
C1196 C1195 1.386 . S
C1196 C1197 1.382 . S
C1196 H1218 0.950 . S
C1197 N1193 1.332 . S
C1197 C1196 1.382 . S
C1197 H1199 0.952 . S
C1198 N1193 1.332 . S
C1198 C1194 1.382 . S
C1198 H1200 0.948 . S
H1199 C1197 0.952 . S
H1200 C1198 0.948 . S
H1201 C1190 0.952 . S
H1202 C1192 0.948 . S
C1203 C1169 1.395 . S
C1203 C1173 1.391 . S
C1204 C1166 1.389 . S
C1204 C1186 1.392 . S
C1205 C1176 1.392 . S
C1205 C1178 1.389 . S
C1206 C1181 1.395 . S
C1206 C1183 1.391 . S
H1207 C1167 0.951 . S
H1208 C1168 0.950 . S
H1209 C1174 0.949 . S
H1210 C1175 0.950 . S
H1211 C1179 0.951 . S
H1212 C1180 0.950 . S
H1213 C1184 0.949 . S
H1214 C1185 0.950 . S
H1215 C1189 0.950 . S
H1216 C1191 0.950 . S
H1217 C1194 0.950 . S
H1218 C1196 0.950 . S
C1219 C1220 1.443 . S
C1219 N1223 1.376 . S
C1219 C1257 1.389 . S
C1220 C1219 1.443 . S
C1220 C1221 1.340 . S
C1220 H1260 0.951 . S
C1221 C1220 1.340 . S
C1221 C1222 1.439 . S
C1221 H1261 0.950 . S
C1222 C1221 1.439 . S
C1222 N1223 1.374 . S
C1222 C1256 1.395 . S
N1223 C1219 1.376 . S
N1223 C1222 1.374 . S
N1223 Co1224 2.008 . S
Co1224 N1223 2.008 . S
Co1224 N1225 1.995 . S
Co1224 N1230 2.008 . S
Co1224 N1235 1.995 . S
Co1224 N1240 2.282 . S
Co1224 N1246 2.282 . S
N1225 Co1224 1.995 . S
N1225 C1226 1.376 . S
N1225 C1229 1.383 . S
C1226 N1225 1.376 . S
C1226 C1227 1.446 . S
C1226 C1256 1.391 . S
C1227 C1226 1.446 . S
C1227 C1228 1.339 . S
C1227 H1262 0.949 . S
C1228 C1227 1.339 . S
C1228 C1229 1.439 . S
C1228 H1263 0.950 . S
C1229 N1225 1.383 . S
C1229 C1228 1.439 . S
C1229 C1258 1.392 . S
N1230 Co1224 2.008 . S
N1230 C1231 1.376 . S
N1230 C1234 1.374 . S
C1231 N1230 1.376 . S
C1231 C1232 1.443 . S
C1231 C1258 1.389 . S
C1232 C1231 1.443 . S
C1232 C1233 1.340 . S
C1232 H1264 0.951 . S
C1233 C1232 1.340 . S
C1233 C1234 1.439 . S
C1233 H1265 0.950 . S
C1234 N1230 1.374 . S
C1234 C1233 1.439 . S
C1234 C1259 1.395 . S
N1235 Co1224 1.995 . S
N1235 C1236 1.376 . S
N1235 C1239 1.383 . S
C1236 N1235 1.376 . S
C1236 C1237 1.446 . S
C1236 C1259 1.391 . S
C1237 C1236 1.446 . S
C1237 C1238 1.339 . S
C1237 H1266 0.949 . S
C1238 C1237 1.339 . S
C1238 C1239 1.439 . S
C1238 H1267 0.950 . S
C1239 N1235 1.383 . S
C1239 C1238 1.439 . S
C1239 C1257 1.392 . S
N1240 Co1224 2.282 . S
N1240 C1243 1.332 . S
N1240 C1245 1.332 . S
C1241 C1242 1.386 . S
C1241 C1244 1.388 . S
C1242 C1241 1.386 . S
C1242 C1243 1.382 . S
C1242 H1268 0.950 . S
C1243 N1240 1.332 . S
C1243 C1242 1.382 . S
C1243 H1254 0.952 . S
C1244 C1241 1.388 . S
C1244 C1245 1.382 . S
C1244 H1269 0.950 . S
C1245 N1240 1.332 . S
C1245 C1244 1.382 . S
C1245 H1255 0.948 . S
N1246 Co1224 2.282 . S
N1246 C1250 1.332 . S
N1246 C1251 1.332 . S
C1247 C1248 1.388 . S
C1247 C1251 1.382 . S
C1247 H1270 0.950 . S
C1248 C1247 1.388 . S
C1248 C1249 1.386 . S
C1249 C1248 1.386 . S
C1249 C1250 1.382 . S
C1249 H1271 0.950 . S
C1250 N1246 1.332 . S
C1250 C1249 1.382 . S
C1250 H1252 0.952 . S
C1251 N1246 1.332 . S
C1251 C1247 1.382 . S
C1251 H1253 0.948 . S
H1252 C1250 0.952 . S
H1253 C1251 0.948 . S
H1254 C1243 0.952 . S
H1255 C1245 0.948 . S
C1256 C1222 1.395 . S
C1256 C1226 1.391 . S
C1257 C1219 1.389 . S
C1257 C1239 1.392 . S
C1258 C1229 1.392 . S
C1258 C1231 1.389 . S
C1259 C1234 1.395 . S
C1259 C1236 1.391 . S
H1260 C1220 0.951 . S
H1261 C1221 0.950 . S
H1262 C1227 0.949 . S
H1263 C1228 0.950 . S
H1264 C1232 0.951 . S
H1265 C1233 0.950 . S
H1266 C1237 0.949 . S
H1267 C1238 0.950 . S
H1268 C1242 0.950 . S
H1269 C1244 0.950 . S
H1270 C1247 0.950 . S
H1271 C1249 0.950 . S
C1272 C1273 1.443 . S
C1272 N1276 1.376 . S
C1272 C1310 1.389 . S
C1273 C1272 1.443 . S
C1273 C1274 1.340 . S
C1273 H1313 0.951 . S
C1274 C1273 1.340 . S
C1274 C1275 1.439 . S
C1274 H1314 0.950 . S
C1275 C1274 1.439 . S
C1275 N1276 1.374 . S
C1275 C1309 1.395 . S
N1276 C1272 1.376 . S
N1276 C1275 1.374 . S
N1276 Co1277 2.008 . S
Co1277 N1276 2.008 . S
Co1277 N1278 1.995 . S
Co1277 N1283 2.008 . S
Co1277 N1288 1.995 . S
Co1277 N1293 2.282 . S
Co1277 N1299 2.282 . S
N1278 Co1277 1.995 . S
N1278 C1279 1.376 . S
N1278 C1282 1.383 . S
C1279 N1278 1.376 . S
C1279 C1280 1.446 . S
C1279 C1309 1.391 . S
C1280 C1279 1.446 . S
C1280 C1281 1.339 . S
C1280 H1315 0.949 . S
C1281 C1280 1.339 . S
C1281 C1282 1.439 . S
C1281 H1316 0.950 . S
C1282 N1278 1.383 . S
C1282 C1281 1.439 . S
C1282 C1311 1.392 . S
N1283 Co1277 2.008 . S
N1283 C1284 1.376 . S
N1283 C1287 1.374 . S
C1284 N1283 1.376 . S
C1284 C1285 1.443 . S
C1284 C1311 1.389 . S
C1285 C1284 1.443 . S
C1285 C1286 1.340 . S
C1285 H1317 0.951 . S
C1286 C1285 1.340 . S
C1286 C1287 1.439 . S
C1286 H1318 0.950 . S
C1287 N1283 1.374 . S
C1287 C1286 1.439 . S
C1287 C1312 1.395 . S
N1288 Co1277 1.995 . S
N1288 C1289 1.376 . S
N1288 C1292 1.383 . S
C1289 N1288 1.376 . S
C1289 C1290 1.446 . S
C1289 C1312 1.391 . S
C1290 C1289 1.446 . S
C1290 C1291 1.339 . S
C1290 H1319 0.949 . S
C1291 C1290 1.339 . S
C1291 C1292 1.439 . S
C1291 H1320 0.950 . S
C1292 N1288 1.383 . S
C1292 C1291 1.439 . S
C1292 C1310 1.392 . S
N1293 Co1277 2.282 . S
N1293 C1296 1.332 . S
N1293 C1298 1.332 . S
C1294 C1295 1.386 . S
C1294 C1297 1.388 . S
C1295 C1294 1.386 . S
C1295 C1296 1.382 . S
C1295 H1321 0.950 . S
C1296 N1293 1.332 . S
C1296 C1295 1.382 . S
C1296 H1307 0.952 . S
C1297 C1294 1.388 . S
C1297 C1298 1.382 . S
C1297 H1322 0.950 . S
C1298 N1293 1.332 . S
C1298 C1297 1.382 . S
C1298 H1308 0.948 . S
N1299 Co1277 2.282 . S
N1299 C1303 1.332 . S
N1299 C1304 1.332 . S
C1300 C1301 1.388 . S
C1300 C1304 1.382 . S
C1300 H1323 0.950 . S
C1301 C1300 1.388 . S
C1301 C1302 1.386 . S
C1302 C1301 1.386 . S
C1302 C1303 1.382 . S
C1302 H1324 0.950 . S
C1303 N1299 1.332 . S
C1303 C1302 1.382 . S
C1303 H1305 0.952 . S
C1304 N1299 1.332 . S
C1304 C1300 1.382 . S
C1304 H1306 0.948 . S
H1305 C1303 0.952 . S
H1306 C1304 0.948 . S
H1307 C1296 0.952 . S
H1308 C1298 0.948 . S
C1309 C1275 1.395 . S
C1309 C1279 1.391 . S
C1310 C1272 1.389 . S
C1310 C1292 1.392 . S
C1311 C1282 1.392 . S
C1311 C1284 1.389 . S
C1312 C1287 1.395 . S
C1312 C1289 1.391 . S
H1313 C1273 0.951 . S
H1314 C1274 0.950 . S
H1315 C1280 0.949 . S
H1316 C1281 0.950 . S
H1317 C1285 0.951 . S
H1318 C1286 0.950 . S
H1319 C1290 0.949 . S
H1320 C1291 0.950 . S
H1321 C1295 0.950 . S
H1322 C1297 0.950 . S
H1323 C1300 0.950 . S
H1324 C1302 0.950 . S
C1325 C1326 1.443 . S
C1325 N1329 1.376 . S
C1325 C1363 1.389 . S
C1326 C1325 1.443 . S
C1326 C1327 1.340 . S
C1326 H1366 0.951 . S
C1327 C1326 1.340 . S
C1327 C1328 1.439 . S
C1327 H1367 0.950 . S
C1328 C1327 1.439 . S
C1328 N1329 1.374 . S
C1328 C1362 1.395 . S
N1329 C1325 1.376 . S
N1329 C1328 1.374 . S
N1329 Co1330 2.008 . S
Co1330 N1329 2.008 . S
Co1330 N1331 1.995 . S
Co1330 N1336 2.008 . S
Co1330 N1341 1.995 . S
Co1330 N1346 2.282 . S
Co1330 N1352 2.282 . S
N1331 Co1330 1.995 . S
N1331 C1332 1.376 . S
N1331 C1335 1.383 . S
C1332 N1331 1.376 . S
C1332 C1333 1.446 . S
C1332 C1362 1.391 . S
C1333 C1332 1.446 . S
C1333 C1334 1.339 . S
C1333 H1368 0.949 . S
C1334 C1333 1.339 . S
C1334 C1335 1.439 . S
C1334 H1369 0.950 . S
C1335 N1331 1.383 . S
C1335 C1334 1.439 . S
C1335 C1364 1.392 . S
N1336 Co1330 2.008 . S
N1336 C1337 1.376 . S
N1336 C1340 1.374 . S
C1337 N1336 1.376 . S
C1337 C1338 1.443 . S
C1337 C1364 1.389 . S
C1338 C1337 1.443 . S
C1338 C1339 1.340 . S
C1338 H1370 0.951 . S
C1339 C1338 1.340 . S
C1339 C1340 1.439 . S
C1339 H1371 0.950 . S
C1340 N1336 1.374 . S
C1340 C1339 1.439 . S
C1340 C1365 1.395 . S
N1341 Co1330 1.995 . S
N1341 C1342 1.376 . S
N1341 C1345 1.383 . S
C1342 N1341 1.376 . S
C1342 C1343 1.446 . S
C1342 C1365 1.391 . S
C1343 C1342 1.446 . S
C1343 C1344 1.339 . S
C1343 H1372 0.949 . S
C1344 C1343 1.339 . S
C1344 C1345 1.439 . S
C1344 H1373 0.950 . S
C1345 N1341 1.383 . S
C1345 C1344 1.439 . S
C1345 C1363 1.392 . S
N1346 Co1330 2.282 . S
N1346 C1349 1.332 . S
N1346 C1351 1.332 . S
C1347 C1348 1.386 . S
C1347 C1350 1.388 . S
C1348 C1347 1.386 . S
C1348 C1349 1.382 . S
C1348 H1374 0.950 . S
C1349 N1346 1.332 . S
C1349 C1348 1.382 . S
C1349 H1360 0.952 . S
C1350 C1347 1.388 . S
C1350 C1351 1.382 . S
C1350 H1375 0.950 . S
C1351 N1346 1.332 . S
C1351 C1350 1.382 . S
C1351 H1361 0.948 . S
N1352 Co1330 2.282 . S
N1352 C1356 1.332 . S
N1352 C1357 1.332 . S
C1353 C1354 1.388 . S
C1353 C1357 1.382 . S
C1353 H1376 0.950 . S
C1354 C1353 1.388 . S
C1354 C1355 1.386 . S
C1355 C1354 1.386 . S
C1355 C1356 1.382 . S
C1355 H1377 0.950 . S
C1356 N1352 1.332 . S
C1356 C1355 1.382 . S
C1356 H1358 0.952 . S
C1357 N1352 1.332 . S
C1357 C1353 1.382 . S
C1357 H1359 0.948 . S
H1358 C1356 0.952 . S
H1359 C1357 0.948 . S
H1360 C1349 0.952 . S
H1361 C1351 0.948 . S
C1362 C1328 1.395 . S
C1362 C1332 1.391 . S
C1363 C1325 1.389 . S
C1363 C1345 1.392 . S
C1364 C1335 1.392 . S
C1364 C1337 1.389 . S
C1365 C1340 1.395 . S
C1365 C1342 1.391 . S
H1366 C1326 0.951 . S
H1367 C1327 0.950 . S
H1368 C1333 0.949 . S
H1369 C1334 0.950 . S
H1370 C1338 0.951 . S
H1371 C1339 0.950 . S
H1372 C1343 0.949 . S
H1373 C1344 0.950 . S
H1374 C1348 0.950 . S
H1375 C1350 0.950 . S
H1376 C1353 0.950 . S
H1377 C1355 0.950 . S
C1378 C1379 1.443 . S
C1378 N1382 1.376 . S
C1378 C1416 1.389 . S
C1379 C1378 1.443 . S
C1379 C1380 1.340 . S
C1379 H1419 0.951 . S
C1380 C1379 1.340 . S
C1380 C1381 1.439 . S
C1380 H1420 0.950 . S
C1381 C1380 1.439 . S
C1381 N1382 1.374 . S
C1381 C1415 1.395 . S
N1382 C1378 1.376 . S
N1382 C1381 1.374 . S
N1382 Co1383 2.008 . S
Co1383 N1382 2.008 . S
Co1383 N1384 1.995 . S
Co1383 N1389 2.008 . S
Co1383 N1394 1.995 . S
Co1383 N1399 2.282 . S
Co1383 N1405 2.282 . S
N1384 Co1383 1.995 . S
N1384 C1385 1.376 . S
N1384 C1388 1.383 . S
C1385 N1384 1.376 . S
C1385 C1386 1.446 . S
C1385 C1415 1.391 . S
C1386 C1385 1.446 . S
C1386 C1387 1.339 . S
C1386 H1421 0.949 . S
C1387 C1386 1.339 . S
C1387 C1388 1.439 . S
C1387 H1422 0.950 . S
C1388 N1384 1.383 . S
C1388 C1387 1.439 . S
C1388 C1417 1.392 . S
N1389 Co1383 2.008 . S
N1389 C1390 1.376 . S
N1389 C1393 1.374 . S
C1390 N1389 1.376 . S
C1390 C1391 1.443 . S
C1390 C1417 1.389 . S
C1391 C1390 1.443 . S
C1391 C1392 1.340 . S
C1391 H1423 0.951 . S
C1392 C1391 1.340 . S
C1392 C1393 1.439 . S
C1392 H1424 0.950 . S
C1393 N1389 1.374 . S
C1393 C1392 1.439 . S
C1393 C1418 1.395 . S
N1394 Co1383 1.995 . S
N1394 C1395 1.376 . S
N1394 C1398 1.383 . S
C1395 N1394 1.376 . S
C1395 C1396 1.446 . S
C1395 C1418 1.391 . S
C1396 C1395 1.446 . S
C1396 C1397 1.339 . S
C1396 H1425 0.949 . S
C1397 C1396 1.339 . S
C1397 C1398 1.439 . S
C1397 H1426 0.950 . S
C1398 N1394 1.383 . S
C1398 C1397 1.439 . S
C1398 C1416 1.392 . S
N1399 Co1383 2.282 . S
N1399 C1402 1.332 . S
N1399 C1404 1.332 . S
C1400 C1401 1.386 . S
C1400 C1403 1.388 . S
C1401 C1400 1.386 . S
C1401 C1402 1.382 . S
C1401 H1427 0.950 . S
C1402 N1399 1.332 . S
C1402 C1401 1.382 . S
C1402 H1413 0.952 . S
C1403 C1400 1.388 . S
C1403 C1404 1.382 . S
C1403 H1428 0.950 . S
C1404 N1399 1.332 . S
C1404 C1403 1.382 . S
C1404 H1414 0.948 . S
N1405 Co1383 2.282 . S
N1405 C1409 1.332 . S
N1405 C1410 1.332 . S
C1406 C1407 1.388 . S
C1406 C1410 1.382 . S
C1406 H1429 0.950 . S
C1407 C1406 1.388 . S
C1407 C1408 1.386 . S
C1408 C1407 1.386 . S
C1408 C1409 1.382 . S
C1408 H1430 0.950 . S
C1409 N1405 1.332 . S
C1409 C1408 1.382 . S
C1409 H1411 0.952 . S
C1410 N1405 1.332 . S
C1410 C1406 1.382 . S
C1410 H1412 0.948 . S
H1411 C1409 0.952 . S
H1412 C1410 0.948 . S
H1413 C1402 0.952 . S
H1414 C1404 0.948 . S
C1415 C1381 1.395 . S
C1415 C1385 1.391 . S
C1416 C1378 1.389 . S
C1416 C1398 1.392 . S
C1417 C1388 1.392 . S
C1417 C1390 1.389 . S
C1418 C1393 1.395 . S
C1418 C1395 1.391 . S
H1419 C1379 0.951 . S
H1420 C1380 0.950 . S
H1421 C1386 0.949 . S
H1422 C1387 0.950 . S
H1423 C1391 0.951 . S
H1424 C1392 0.950 . S
H1425 C1396 0.949 . S
H1426 C1397 0.950 . S
H1427 C1401 0.950 . S
H1428 C1403 0.950 . S
H1429 C1406 0.950 . S
H1430 C1408 0.950 . S
C1431 C1432 1.443 . S
C1431 N1435 1.376 . S
C1431 C1469 1.389 . S
C1432 C1431 1.443 . S
C1432 C1433 1.340 . S
C1432 H1472 0.951 . S
C1433 C1432 1.340 . S
C1433 C1434 1.439 . S
C1433 H1473 0.950 . S
C1434 C1433 1.439 . S
C1434 N1435 1.374 . S
C1434 C1468 1.395 . S
N1435 C1431 1.376 . S
N1435 C1434 1.374 . S
N1435 Co1436 2.008 . S
Co1436 N1435 2.008 . S
Co1436 N1437 1.995 . S
Co1436 N1442 2.008 . S
Co1436 N1447 1.995 . S
Co1436 N1452 2.282 . S
Co1436 N1458 2.282 . S
N1437 Co1436 1.995 . S
N1437 C1438 1.376 . S
N1437 C1441 1.383 . S
C1438 N1437 1.376 . S
C1438 C1439 1.446 . S
C1438 C1468 1.391 . S
C1439 C1438 1.446 . S
C1439 C1440 1.339 . S
C1439 H1474 0.949 . S
C1440 C1439 1.339 . S
C1440 C1441 1.439 . S
C1440 H1475 0.950 . S
C1441 N1437 1.383 . S
C1441 C1440 1.439 . S
C1441 C1470 1.392 . S
N1442 Co1436 2.008 . S
N1442 C1443 1.376 . S
N1442 C1446 1.374 . S
C1443 N1442 1.376 . S
C1443 C1444 1.443 . S
C1443 C1470 1.389 . S
C1444 C1443 1.443 . S
C1444 C1445 1.340 . S
C1444 H1476 0.951 . S
C1445 C1444 1.340 . S
C1445 C1446 1.439 . S
C1445 H1477 0.950 . S
C1446 N1442 1.374 . S
C1446 C1445 1.439 . S
C1446 C1471 1.395 . S
N1447 Co1436 1.995 . S
N1447 C1448 1.376 . S
N1447 C1451 1.383 . S
C1448 N1447 1.376 . S
C1448 C1449 1.446 . S
C1448 C1471 1.391 . S
C1449 C1448 1.446 . S
C1449 C1450 1.339 . S
C1449 H1478 0.949 . S
C1450 C1449 1.339 . S
C1450 C1451 1.439 . S
C1450 H1479 0.950 . S
C1451 N1447 1.383 . S
C1451 C1450 1.439 . S
C1451 C1469 1.392 . S
N1452 Co1436 2.282 . S
N1452 C1455 1.332 . S
N1452 C1457 1.332 . S
C1453 C1454 1.386 . S
C1453 C1456 1.388 . S
C1454 C1453 1.386 . S
C1454 C1455 1.382 . S
C1454 H1480 0.950 . S
C1455 N1452 1.332 . S
C1455 C1454 1.382 . S
C1455 H1466 0.952 . S
C1456 C1453 1.388 . S
C1456 C1457 1.382 . S
C1456 H1481 0.950 . S
C1457 N1452 1.332 . S
C1457 C1456 1.382 . S
C1457 H1467 0.948 . S
N1458 Co1436 2.282 . S
N1458 C1462 1.332 . S
N1458 C1463 1.332 . S
C1459 C1460 1.388 . S
C1459 C1463 1.382 . S
C1459 H1482 0.950 . S
C1460 C1459 1.388 . S
C1460 C1461 1.386 . S
C1461 C1460 1.386 . S
C1461 C1462 1.382 . S
C1461 H1483 0.950 . S
C1462 N1458 1.332 . S
C1462 C1461 1.382 . S
C1462 H1464 0.952 . S
C1463 N1458 1.332 . S
C1463 C1459 1.382 . S
C1463 H1465 0.948 . S
H1464 C1462 0.952 . S
H1465 C1463 0.948 . S
H1466 C1455 0.952 . S
H1467 C1457 0.948 . S
C1468 C1434 1.395 . S
C1468 C1438 1.391 . S
C1469 C1431 1.389 . S
C1469 C1451 1.392 . S
C1470 C1441 1.392 . S
C1470 C1443 1.389 . S
C1471 C1446 1.395 . S
C1471 C1448 1.391 . S
H1472 C1432 0.951 . S
H1473 C1433 0.950 . S
H1474 C1439 0.949 . S
H1475 C1440 0.950 . S
H1476 C1444 0.951 . S
H1477 C1445 0.950 . S
H1478 C1449 0.949 . S
H1479 C1450 0.950 . S
H1480 C1454 0.950 . S
H1481 C1456 0.950 . S
H1482 C1459 0.950 . S
H1483 C1461 0.950 . S
C1484 C1485 1.443 . S
C1484 N1488 1.376 . S
C1484 C1522 1.389 . S
C1485 C1484 1.443 . S
C1485 C1486 1.340 . S
C1485 H1525 0.951 . S
C1486 C1485 1.340 . S
C1486 C1487 1.439 . S
C1486 H1526 0.950 . S
C1487 C1486 1.439 . S
C1487 N1488 1.374 . S
C1487 C1521 1.395 . S
N1488 C1484 1.376 . S
N1488 C1487 1.374 . S
N1488 Co1489 2.008 . S
Co1489 N1488 2.008 . S
Co1489 N1490 1.995 . S
Co1489 N1495 2.008 . S
Co1489 N1500 1.995 . S
Co1489 N1505 2.282 . S
Co1489 N1511 2.282 . S
N1490 Co1489 1.995 . S
N1490 C1491 1.376 . S
N1490 C1494 1.383 . S
C1491 N1490 1.376 . S
C1491 C1492 1.446 . S
C1491 C1521 1.391 . S
C1492 C1491 1.446 . S
C1492 C1493 1.339 . S
C1492 H1527 0.949 . S
C1493 C1492 1.339 . S
C1493 C1494 1.439 . S
C1493 H1528 0.950 . S
C1494 N1490 1.383 . S
C1494 C1493 1.439 . S
C1494 C1523 1.392 . S
N1495 Co1489 2.008 . S
N1495 C1496 1.376 . S
N1495 C1499 1.374 . S
C1496 N1495 1.376 . S
C1496 C1497 1.443 . S
C1496 C1523 1.389 . S
C1497 C1496 1.443 . S
C1497 C1498 1.340 . S
C1497 H1529 0.951 . S
C1498 C1497 1.340 . S
C1498 C1499 1.439 . S
C1498 H1530 0.950 . S
C1499 N1495 1.374 . S
C1499 C1498 1.439 . S
C1499 C1524 1.395 . S
N1500 Co1489 1.995 . S
N1500 C1501 1.376 . S
N1500 C1504 1.383 . S
C1501 N1500 1.376 . S
C1501 C1502 1.446 . S
C1501 C1524 1.391 . S
C1502 C1501 1.446 . S
C1502 C1503 1.339 . S
C1502 H1531 0.949 . S
C1503 C1502 1.339 . S
C1503 C1504 1.439 . S
C1503 H1532 0.950 . S
C1504 N1500 1.383 . S
C1504 C1503 1.439 . S
C1504 C1522 1.392 . S
N1505 Co1489 2.282 . S
N1505 C1508 1.332 . S
N1505 C1510 1.332 . S
C1506 C1507 1.386 . S
C1506 C1509 1.388 . S
C1507 C1506 1.386 . S
C1507 C1508 1.382 . S
C1507 H1533 0.950 . S
C1508 N1505 1.332 . S
C1508 C1507 1.382 . S
C1508 H1519 0.952 . S
C1509 C1506 1.388 . S
C1509 C1510 1.382 . S
C1509 H1534 0.950 . S
C1510 N1505 1.332 . S
C1510 C1509 1.382 . S
C1510 H1520 0.948 . S
N1511 Co1489 2.282 . S
N1511 C1515 1.332 . S
N1511 C1516 1.332 . S
C1512 C1513 1.388 . S
C1512 C1516 1.382 . S
C1512 H1535 0.950 . S
C1513 C1512 1.388 . S
C1513 C1514 1.386 . S
C1514 C1513 1.386 . S
C1514 C1515 1.382 . S
C1514 H1536 0.950 . S
C1515 N1511 1.332 . S
C1515 C1514 1.382 . S
C1515 H1517 0.952 . S
C1516 N1511 1.332 . S
C1516 C1512 1.382 . S
C1516 H1518 0.948 . S
H1517 C1515 0.952 . S
H1518 C1516 0.948 . S
H1519 C1508 0.952 . S
H1520 C1510 0.948 . S
C1521 C1487 1.395 . S
C1521 C1491 1.391 . S
C1522 C1484 1.389 . S
C1522 C1504 1.392 . S
C1523 C1494 1.392 . S
C1523 C1496 1.389 . S
C1524 C1499 1.395 . S
C1524 C1501 1.391 . S
H1525 C1485 0.951 . S
H1526 C1486 0.950 . S
H1527 C1492 0.949 . S
H1528 C1493 0.950 . S
H1529 C1497 0.951 . S
H1530 C1498 0.950 . S
H1531 C1502 0.949 . S
H1532 C1503 0.950 . S
H1533 C1507 0.950 . S
H1534 C1509 0.950 . S
H1535 C1512 0.950 . S
H1536 C1514 0.950 . S
C1537 C1538 1.443 . S
C1537 N1541 1.376 . S
C1537 C1575 1.389 . S
C1538 C1537 1.443 . S
C1538 C1539 1.340 . S
C1538 H1578 0.951 . S
C1539 C1538 1.340 . S
C1539 C1540 1.439 . S
C1539 H1579 0.950 . S
C1540 C1539 1.439 . S
C1540 N1541 1.374 . S
C1540 C1574 1.395 . S
N1541 C1537 1.376 . S
N1541 C1540 1.374 . S
N1541 Co1542 2.008 . S
Co1542 N1541 2.008 . S
Co1542 N1543 1.995 . S
Co1542 N1548 2.008 . S
Co1542 N1553 1.995 . S
Co1542 N1558 2.282 . S
Co1542 N1564 2.282 . S
N1543 Co1542 1.995 . S
N1543 C1544 1.376 . S
N1543 C1547 1.383 . S
C1544 N1543 1.376 . S
C1544 C1545 1.446 . S
C1544 C1574 1.391 . S
C1545 C1544 1.446 . S
C1545 C1546 1.339 . S
C1545 H1580 0.949 . S
C1546 C1545 1.339 . S
C1546 C1547 1.439 . S
C1546 H1581 0.950 . S
C1547 N1543 1.383 . S
C1547 C1546 1.439 . S
C1547 C1576 1.392 . S
N1548 Co1542 2.008 . S
N1548 C1549 1.376 . S
N1548 C1552 1.374 . S
C1549 N1548 1.376 . S
C1549 C1550 1.443 . S
C1549 C1576 1.389 . S
C1550 C1549 1.443 . S
C1550 C1551 1.340 . S
C1550 H1582 0.951 . S
C1551 C1550 1.340 . S
C1551 C1552 1.439 . S
C1551 H1583 0.950 . S
C1552 N1548 1.374 . S
C1552 C1551 1.439 . S
C1552 C1577 1.395 . S
N1553 Co1542 1.995 . S
N1553 C1554 1.376 . S
N1553 C1557 1.383 . S
C1554 N1553 1.376 . S
C1554 C1555 1.446 . S
C1554 C1577 1.391 . S
C1555 C1554 1.446 . S
C1555 C1556 1.339 . S
C1555 H1584 0.949 . S
C1556 C1555 1.339 . S
C1556 C1557 1.439 . S
C1556 H1585 0.950 . S
C1557 N1553 1.383 . S
C1557 C1556 1.439 . S
C1557 C1575 1.392 . S
N1558 Co1542 2.282 . S
N1558 C1561 1.332 . S
N1558 C1563 1.332 . S
C1559 C1560 1.386 . S
C1559 C1562 1.388 . S
C1560 C1559 1.386 . S
C1560 C1561 1.382 . S
C1560 H1586 0.950 . S
C1561 N1558 1.332 . S
C1561 C1560 1.382 . S
C1561 H1572 0.952 . S
C1562 C1559 1.388 . S
C1562 C1563 1.382 . S
C1562 H1587 0.950 . S
C1563 N1558 1.332 . S
C1563 C1562 1.382 . S
C1563 H1573 0.948 . S
N1564 Co1542 2.282 . S
N1564 C1568 1.332 . S
N1564 C1569 1.332 . S
C1565 C1566 1.388 . S
C1565 C1569 1.382 . S
C1565 H1588 0.950 . S
C1566 C1565 1.388 . S
C1566 C1567 1.386 . S
C1567 C1566 1.386 . S
C1567 C1568 1.382 . S
C1567 H1589 0.950 . S
C1568 N1564 1.332 . S
C1568 C1567 1.382 . S
C1568 H1570 0.952 . S
C1569 N1564 1.332 . S
C1569 C1565 1.382 . S
C1569 H1571 0.948 . S
H1570 C1568 0.952 . S
H1571 C1569 0.948 . S
H1572 C1561 0.952 . S
H1573 C1563 0.948 . S
C1574 C1540 1.395 . S
C1574 C1544 1.391 . S
C1575 C1537 1.389 . S
C1575 C1557 1.392 . S
C1576 C1547 1.392 . S
C1576 C1549 1.389 . S
C1577 C1552 1.395 . S
C1577 C1554 1.391 . S
H1578 C1538 0.951 . S
H1579 C1539 0.950 . S
H1580 C1545 0.949 . S
H1581 C1546 0.950 . S
H1582 C1550 0.951 . S
H1583 C1551 0.950 . S
H1584 C1555 0.949 . S
H1585 C1556 0.950 . S
H1586 C1560 0.950 . S
H1587 C1562 0.950 . S
H1588 C1565 0.950 . S
H1589 C1567 0.950 . S
C1590 C1591 1.443 . S
C1590 N1594 1.376 . S
C1590 C1628 1.389 . S
C1591 C1590 1.443 . S
C1591 C1592 1.340 . S
C1591 H1631 0.951 . S
C1592 C1591 1.340 . S
C1592 C1593 1.439 . S
C1592 H1632 0.950 . S
C1593 C1592 1.439 . S
C1593 N1594 1.374 . S
C1593 C1627 1.395 . S
N1594 C1590 1.376 . S
N1594 C1593 1.374 . S
N1594 Co1595 2.008 . S
Co1595 N1594 2.008 . S
Co1595 N1596 1.995 . S
Co1595 N1601 2.008 . S
Co1595 N1606 1.995 . S
Co1595 N1611 2.282 . S
Co1595 N1617 2.282 . S
N1596 Co1595 1.995 . S
N1596 C1597 1.376 . S
N1596 C1600 1.383 . S
C1597 N1596 1.376 . S
C1597 C1598 1.446 . S
C1597 C1627 1.391 . S
C1598 C1597 1.446 . S
C1598 C1599 1.339 . S
C1598 H1633 0.949 . S
C1599 C1598 1.339 . S
C1599 C1600 1.439 . S
C1599 H1634 0.950 . S
C1600 N1596 1.383 . S
C1600 C1599 1.439 . S
C1600 C1629 1.392 . S
N1601 Co1595 2.008 . S
N1601 C1602 1.376 . S
N1601 C1605 1.374 . S
C1602 N1601 1.376 . S
C1602 C1603 1.443 . S
C1602 C1629 1.389 . S
C1603 C1602 1.443 . S
C1603 C1604 1.340 . S
C1603 H1635 0.951 . S
C1604 C1603 1.340 . S
C1604 C1605 1.439 . S
C1604 H1636 0.950 . S
C1605 N1601 1.374 . S
C1605 C1604 1.439 . S
C1605 C1630 1.395 . S
N1606 Co1595 1.995 . S
N1606 C1607 1.376 . S
N1606 C1610 1.383 . S
C1607 N1606 1.376 . S
C1607 C1608 1.446 . S
C1607 C1630 1.391 . S
C1608 C1607 1.446 . S
C1608 C1609 1.339 . S
C1608 H1637 0.949 . S
C1609 C1608 1.339 . S
C1609 C1610 1.439 . S
C1609 H1638 0.950 . S
C1610 N1606 1.383 . S
C1610 C1609 1.439 . S
C1610 C1628 1.392 . S
N1611 Co1595 2.282 . S
N1611 C1614 1.332 . S
N1611 C1616 1.332 . S
C1612 C1613 1.386 . S
C1612 C1615 1.388 . S
C1613 C1612 1.386 . S
C1613 C1614 1.382 . S
C1613 H1639 0.950 . S
C1614 N1611 1.332 . S
C1614 C1613 1.382 . S
C1614 H1625 0.952 . S
C1615 C1612 1.388 . S
C1615 C1616 1.382 . S
C1615 H1640 0.950 . S
C1616 N1611 1.332 . S
C1616 C1615 1.382 . S
C1616 H1626 0.948 . S
N1617 Co1595 2.282 . S
N1617 C1621 1.332 . S
N1617 C1622 1.332 . S
C1618 C1619 1.388 . S
C1618 C1622 1.382 . S
C1618 H1641 0.950 . S
C1619 C1618 1.388 . S
C1619 C1620 1.386 . S
C1620 C1619 1.386 . S
C1620 C1621 1.382 . S
C1620 H1642 0.950 . S
C1621 N1617 1.332 . S
C1621 C1620 1.382 . S
C1621 H1623 0.952 . S
C1622 N1617 1.332 . S
C1622 C1618 1.382 . S
C1622 H1624 0.948 . S
H1623 C1621 0.952 . S
H1624 C1622 0.948 . S
H1625 C1614 0.952 . S
H1626 C1616 0.948 . S
C1627 C1593 1.395 . S
C1627 C1597 1.391 . S
C1628 C1590 1.389 . S
C1628 C1610 1.392 . S
C1629 C1600 1.392 . S
C1629 C1602 1.389 . S
C1630 C1605 1.395 . S
C1630 C1607 1.391 . S
H1631 C1591 0.951 . S
H1632 C1592 0.950 . S
H1633 C1598 0.949 . S
H1634 C1599 0.950 . S
H1635 C1603 0.951 . S
H1636 C1604 0.950 . S
H1637 C1608 0.949 . S
H1638 C1609 0.950 . S
H1639 C1613 0.950 . S
H1640 C1615 0.950 . S
H1641 C1618 0.950 . S
H1642 C1620 0.950 . S
C1643 C1644 1.443 . S
C1643 N1647 1.376 . S
C1643 C1681 1.389 . S
C1644 C1643 1.443 . S
C1644 C1645 1.340 . S
C1644 H1684 0.951 . S
C1645 C1644 1.340 . S
C1645 C1646 1.439 . S
C1645 H1685 0.950 . S
C1646 C1645 1.439 . S
C1646 N1647 1.374 . S
C1646 C1680 1.395 . S
N1647 C1643 1.376 . S
N1647 C1646 1.374 . S
N1647 Co1648 2.008 . S
Co1648 N1647 2.008 . S
Co1648 N1649 1.995 . S
Co1648 N1654 2.008 . S
Co1648 N1659 1.995 . S
Co1648 N1664 2.282 . S
Co1648 N1670 2.282 . S
N1649 Co1648 1.995 . S
N1649 C1650 1.376 . S
N1649 C1653 1.383 . S
C1650 N1649 1.376 . S
C1650 C1651 1.446 . S
C1650 C1680 1.391 . S
C1651 C1650 1.446 . S
C1651 C1652 1.339 . S
C1651 H1686 0.949 . S
C1652 C1651 1.339 . S
C1652 C1653 1.439 . S
C1652 H1687 0.950 . S
C1653 N1649 1.383 . S
C1653 C1652 1.439 . S
C1653 C1682 1.392 . S
N1654 Co1648 2.008 . S
N1654 C1655 1.376 . S
N1654 C1658 1.374 . S
C1655 N1654 1.376 . S
C1655 C1656 1.443 . S
C1655 C1682 1.389 . S
C1656 C1655 1.443 . S
C1656 C1657 1.340 . S
C1656 H1688 0.951 . S
C1657 C1656 1.340 . S
C1657 C1658 1.439 . S
C1657 H1689 0.950 . S
C1658 N1654 1.374 . S
C1658 C1657 1.439 . S
C1658 C1683 1.395 . S
N1659 Co1648 1.995 . S
N1659 C1660 1.376 . S
N1659 C1663 1.383 . S
C1660 N1659 1.376 . S
C1660 C1661 1.446 . S
C1660 C1683 1.391 . S
C1661 C1660 1.446 . S
C1661 C1662 1.339 . S
C1661 H1690 0.949 . S
C1662 C1661 1.339 . S
C1662 C1663 1.439 . S
C1662 H1691 0.950 . S
C1663 N1659 1.383 . S
C1663 C1662 1.439 . S
C1663 C1681 1.392 . S
N1664 Co1648 2.282 . S
N1664 C1667 1.332 . S
N1664 C1669 1.332 . S
C1665 C1666 1.386 . S
C1665 C1668 1.388 . S
C1666 C1665 1.386 . S
C1666 C1667 1.382 . S
C1666 H1692 0.950 . S
C1667 N1664 1.332 . S
C1667 C1666 1.382 . S
C1667 H1678 0.952 . S
C1668 C1665 1.388 . S
C1668 C1669 1.382 . S
C1668 H1693 0.950 . S
C1669 N1664 1.332 . S
C1669 C1668 1.382 . S
C1669 H1679 0.948 . S
N1670 Co1648 2.282 . S
N1670 C1674 1.332 . S
N1670 C1675 1.332 . S
C1671 C1672 1.388 . S
C1671 C1675 1.382 . S
C1671 H1694 0.950 . S
C1672 C1671 1.388 . S
C1672 C1673 1.386 . S
C1673 C1672 1.386 . S
C1673 C1674 1.382 . S
C1673 H1695 0.950 . S
C1674 N1670 1.332 . S
C1674 C1673 1.382 . S
C1674 H1676 0.952 . S
C1675 N1670 1.332 . S
C1675 C1671 1.382 . S
C1675 H1677 0.948 . S
H1676 C1674 0.952 . S
H1677 C1675 0.948 . S
H1678 C1667 0.952 . S
H1679 C1669 0.948 . S
C1680 C1646 1.395 . S
C1680 C1650 1.391 . S
C1681 C1643 1.389 . S
C1681 C1663 1.392 . S
C1682 C1653 1.392 . S
C1682 C1655 1.389 . S
C1683 C1658 1.395 . S
C1683 C1660 1.391 . S
H1684 C1644 0.951 . S
H1685 C1645 0.950 . S
H1686 C1651 0.949 . S
H1687 C1652 0.950 . S
H1688 C1656 0.951 . S
H1689 C1657 0.950 . S
H1690 C1661 0.949 . S
H1691 C1662 0.950 . S
H1692 C1666 0.950 . S
H1693 C1668 0.950 . S
H1694 C1671 0.950 . S
H1695 C1673 0.950 . S
C1696 C1697 1.349 . S
C1696 C1698 1.327 . S
C1696 H1721 0.950 . S
C1697 C1696 1.349 . S
C1697 C1713 1.349 . S
C1698 C1696 1.327 . S
C1698 C1717 1.429 . S
C1698 H1722 0.950 . S
C1699 C1716 1.574 . S
C1699 C1718 1.368 . S
C1699 H1723 0.949 . S
H1700 C1704 0.949 . S
C1701 C1702 1.349 . S
C1701 C1703 1.327 . S
C1701 H1724 0.950 . S
C1702 C1701 1.349 . S
C1702 C1714 1.349 . S
C1703 C1701 1.327 . S
C1703 C1719 1.429 . S
C1703 H1725 0.950 . S
C1704 H1700 0.949 . S
C1704 C1712 1.574 . S
C1704 C1720 1.368 . S
H1705 C1713 0.950 . S
H1706 C1711 0.950 . S
H1707 C1712 0.949 . S
H1708 C1714 0.950 . S
H1709 C1715 0.950 . S
H1710 C1716 0.949 . S
C1711 H1706 0.950 . S
C1711 C1713 1.327 . S
C1711 C1717 1.429 . S
C1712 C1704 1.574 . S
C1712 H1707 0.949 . S
C1712 C1718 1.368 . S
C1713 C1697 1.349 . S
C1713 H1705 0.950 . S
C1713 C1711 1.327 . S
C1714 C1702 1.349 . S
C1714 H1708 0.950 . S
C1714 C1715 1.327 . S
C1715 H1709 0.950 . S
C1715 C1714 1.327 . S
C1715 C1719 1.429 . S
C1716 C1699 1.574 . S
C1716 H1710 0.949 . S
C1716 C1720 1.368 . S
C1717 C1698 1.429 . S
C1717 C1711 1.429 . S
C1717 C1718 1.523 . S
C1718 C1699 1.368 . S
C1718 C1712 1.368 . S
C1718 C1717 1.523 . S
C1719 C1703 1.429 . S
C1719 C1715 1.429 . S
C1719 C1720 1.523 . S
C1720 C1704 1.368 . S
C1720 C1716 1.368 . S
C1720 C1719 1.523 . S
H1721 C1696 0.950 . S
H1722 C1698 0.950 . S
H1723 C1699 0.949 . S
H1724 C1701 0.950 . S
H1725 C1703 0.950 . S
C1726 C1727 1.349 . S
C1726 C1728 1.327 1_455 S
C1726 H1751 0.950 . S
C1727 C1726 1.349 . S
C1727 C1743 1.349 . S
C1728 C1726 1.327 1_655 S
C1728 C1747 1.429 . S
C1728 H1752 0.950 . S
C1729 C1746 1.574 . S
C1729 C1748 1.368 . S
C1729 H1753 0.949 . S
H1730 C1734 0.949 . S
C1731 C1732 1.349 . S
C1731 C1733 1.327 . S
C1731 H1754 0.950 . S
C1732 C1731 1.349 . S
C1732 C1744 1.349 . S
C1733 C1731 1.327 . S
C1733 C1749 1.429 . S
C1733 H1755 0.950 . S
C1734 H1730 0.949 . S
C1734 C1742 1.574 . S
C1734 C1750 1.368 . S
H1735 C1743 0.950 . S
H1736 C1741 0.950 . S
H1737 C1742 0.949 . S
H1738 C1744 0.950 . S
H1739 C1745 0.950 . S
H1740 C1746 0.949 . S
C1741 H1736 0.950 . S
C1741 C1743 1.327 . S
C1741 C1747 1.429 1_455 S
C1742 C1734 1.574 . S
C1742 H1737 0.949 . S
C1742 C1748 1.368 . S
C1743 C1727 1.349 . S
C1743 H1735 0.950 . S
C1743 C1741 1.327 . S
C1744 C1732 1.349 . S
C1744 H1738 0.950 . S
C1744 C1745 1.327 . S
C1745 H1739 0.950 . S
C1745 C1744 1.327 . S
C1745 C1749 1.429 . S
C1746 C1729 1.574 . S
C1746 H1740 0.949 . S
C1746 C1750 1.368 . S
C1747 C1728 1.429 . S
C1747 C1741 1.429 1_655 S
C1747 C1748 1.523 . S
C1748 C1729 1.368 . S
C1748 C1742 1.368 . S
C1748 C1747 1.523 . S
C1749 C1733 1.429 . S
C1749 C1745 1.429 . S
C1749 C1750 1.523 . S
C1750 C1734 1.368 . S
C1750 C1746 1.368 . S
C1750 C1749 1.523 . S
H1751 C1726 0.950 . S
H1752 C1728 0.950 . S
H1753 C1729 0.949 . S
H1754 C1731 0.950 . S
H1755 C1733 0.950 . S
C1756 C1757 1.349 . S
C1756 C1758 1.327 . S
C1756 H1781 0.950 . S
C1757 C1756 1.349 . S
C1757 C1773 1.349 . S
C1758 C1756 1.327 . S
C1758 C1777 1.429 . S
C1758 H1782 0.950 . S
C1759 C1776 1.574 . S
C1759 C1778 1.368 . S
C1759 H1783 0.949 . S
H1760 C1764 0.949 . S
C1761 C1762 1.349 . S
C1761 C1763 1.327 . S
C1761 H1784 0.950 . S
C1762 C1761 1.349 . S
C1762 C1774 1.349 . S
C1763 C1761 1.327 . S
C1763 C1779 1.429 . S
C1763 H1785 0.950 . S
C1764 H1760 0.949 . S
C1764 C1772 1.574 . S
C1764 C1780 1.368 . S
H1765 C1773 0.950 . S
H1766 C1771 0.950 . S
H1767 C1772 0.949 . S
H1768 C1774 0.950 . S
H1769 C1775 0.950 . S
H1770 C1776 0.949 . S
C1771 H1766 0.950 . S
C1771 C1773 1.327 . S
C1771 C1777 1.429 . S
C1772 C1764 1.574 . S
C1772 H1767 0.949 . S
C1772 C1778 1.368 . S
C1773 C1757 1.349 . S
C1773 H1765 0.950 . S
C1773 C1771 1.327 . S
C1774 C1762 1.349 . S
C1774 H1768 0.950 . S
C1774 C1775 1.327 . S
C1775 H1769 0.950 . S
C1775 C1774 1.327 . S
C1775 C1779 1.429 . S
C1776 C1759 1.574 . S
C1776 H1770 0.949 . S
C1776 C1780 1.368 . S
C1777 C1758 1.429 . S
C1777 C1771 1.429 . S
C1777 C1778 1.523 . S
C1778 C1759 1.368 . S
C1778 C1772 1.368 . S
C1778 C1777 1.523 . S
C1779 C1763 1.429 . S
C1779 C1775 1.429 . S
C1779 C1780 1.523 . S
C1780 C1764 1.368 . S
C1780 C1776 1.368 . S
C1780 C1779 1.523 . S
H1781 C1756 0.950 . S
H1782 C1758 0.950 . S
H1783 C1759 0.949 . S
H1784 C1761 0.950 . S
H1785 C1763 0.950 . S
C1786 C1787 1.349 . S
C1786 C1788 1.327 . S
C1786 H1811 0.950 . S
C1787 C1786 1.349 . S
C1787 C1803 1.349 . S
C1788 C1786 1.327 . S
C1788 C1807 1.429 . S
C1788 H1812 0.950 . S
C1789 C1806 1.574 . S
C1789 C1808 1.368 . S
C1789 H1813 0.949 . S
H1790 C1794 0.949 . S
C1791 C1792 1.349 . S
C1791 C1793 1.327 . S
C1791 H1814 0.950 . S
C1792 C1791 1.349 . S
C1792 C1804 1.349 . S
C1793 C1791 1.327 . S
C1793 C1809 1.429 . S
C1793 H1815 0.950 . S
C1794 H1790 0.949 . S
C1794 C1802 1.574 . S
C1794 C1810 1.368 . S
H1795 C1803 0.950 . S
H1796 C1801 0.950 . S
H1797 C1802 0.949 . S
H1798 C1804 0.950 . S
H1799 C1805 0.950 . S
H1800 C1806 0.949 . S
C1801 H1796 0.950 . S
C1801 C1803 1.327 . S
C1801 C1807 1.429 . S
C1802 C1794 1.574 . S
C1802 H1797 0.949 . S
C1802 C1808 1.368 . S
C1803 C1787 1.349 . S
C1803 H1795 0.950 . S
C1803 C1801 1.327 . S
C1804 C1792 1.349 . S
C1804 H1798 0.950 . S
C1804 C1805 1.327 . S
C1805 H1799 0.950 . S
C1805 C1804 1.327 . S
C1805 C1809 1.429 . S
C1806 C1789 1.574 . S
C1806 H1800 0.949 . S
C1806 C1810 1.368 . S
C1807 C1788 1.429 . S
C1807 C1801 1.429 . S
C1807 C1808 1.523 . S
C1808 C1789 1.368 . S
C1808 C1802 1.368 . S
C1808 C1807 1.523 . S
C1809 C1793 1.429 . S
C1809 C1805 1.429 . S
C1809 C1810 1.523 . S
C1810 C1794 1.368 . S
C1810 C1806 1.368 . S
C1810 C1809 1.523 . S
H1811 C1786 0.950 . S
H1812 C1788 0.950 . S
H1813 C1789 0.949 . S
H1814 C1791 0.950 . S
H1815 C1793 0.950 . S
C1816 C1817 1.349 . S
C1816 C1818 1.327 . S
C1816 H1841 0.950 . S
C1817 C1816 1.349 . S
C1817 C1833 1.349 . S
C1818 C1816 1.327 . S
C1818 C1837 1.429 . S
C1818 H1842 0.950 . S
C1819 C1836 1.574 . S
C1819 C1838 1.368 . S
C1819 H1843 0.949 . S
H1820 C1824 0.949 . S
C1821 C1822 1.349 . S
C1821 C1823 1.327 . S
C1821 H1844 0.950 . S
C1822 C1821 1.349 . S
C1822 C1834 1.349 . S
C1823 C1821 1.327 . S
C1823 C1839 1.429 . S
C1823 H1845 0.950 . S
C1824 H1820 0.949 . S
C1824 C1832 1.574 . S
C1824 C1840 1.368 . S
H1825 C1833 0.950 . S
H1826 C1831 0.950 . S
H1827 C1832 0.949 . S
H1828 C1834 0.950 . S
H1829 C1835 0.950 . S
H1830 C1836 0.949 . S
C1831 H1826 0.950 . S
C1831 C1833 1.327 . S
C1831 C1837 1.429 . S
C1832 C1824 1.574 . S
C1832 H1827 0.949 . S
C1832 C1838 1.368 . S
C1833 C1817 1.349 . S
C1833 H1825 0.950 . S
C1833 C1831 1.327 . S
C1834 C1822 1.349 . S
C1834 H1828 0.950 . S
C1834 C1835 1.327 . S
C1835 H1829 0.950 . S
C1835 C1834 1.327 . S
C1835 C1839 1.429 . S
C1836 C1819 1.574 . S
C1836 H1830 0.949 . S
C1836 C1840 1.368 . S
C1837 C1818 1.429 . S
C1837 C1831 1.429 . S
C1837 C1838 1.523 . S
C1838 C1819 1.368 . S
C1838 C1832 1.368 . S
C1838 C1837 1.523 . S
C1839 C1823 1.429 . S
C1839 C1835 1.429 . S
C1839 C1840 1.523 . S
C1840 C1824 1.368 . S
C1840 C1836 1.368 . S
C1840 C1839 1.523 . S
H1841 C1816 0.950 . S
H1842 C1818 0.950 . S
H1843 C1819 0.949 . S
H1844 C1821 0.950 . S
H1845 C1823 0.950 . S
C1846 C1847 1.349 . S
C1846 C1848 1.327 . S
C1846 H1871 0.950 . S
C1847 C1846 1.349 . S
C1847 C1863 1.349 . S
C1848 C1846 1.327 . S
C1848 C1867 1.429 . S
C1848 H1872 0.950 . S
C1849 C1866 1.574 . S
C1849 C1868 1.368 . S
C1849 H1873 0.949 . S
H1850 C1854 0.949 . S
C1851 C1852 1.349 . S
C1851 C1853 1.327 . S
C1851 H1874 0.950 . S
C1852 C1851 1.349 . S
C1852 C1864 1.349 . S
C1853 C1851 1.327 . S
C1853 C1869 1.429 . S
C1853 H1875 0.950 . S
C1854 H1850 0.949 . S
C1854 C1862 1.574 . S
C1854 C1870 1.368 . S
H1855 C1863 0.950 . S
H1856 C1861 0.950 . S
H1857 C1862 0.949 . S
H1858 C1864 0.950 . S
H1859 C1865 0.950 . S
H1860 C1866 0.949 . S
C1861 H1856 0.950 . S
C1861 C1863 1.327 . S
C1861 C1867 1.429 . S
C1862 C1854 1.574 . S
C1862 H1857 0.949 . S
C1862 C1868 1.368 . S
C1863 C1847 1.349 . S
C1863 H1855 0.950 . S
C1863 C1861 1.327 . S
C1864 C1852 1.349 . S
C1864 H1858 0.950 . S
C1864 C1865 1.327 . S
C1865 H1859 0.950 . S
C1865 C1864 1.327 . S
C1865 C1869 1.429 . S
C1866 C1849 1.574 . S
C1866 H1860 0.949 . S
C1866 C1870 1.368 . S
C1867 C1848 1.429 . S
C1867 C1861 1.429 . S
C1867 C1868 1.523 . S
C1868 C1849 1.368 . S
C1868 C1862 1.368 . S
C1868 C1867 1.523 . S
C1869 C1853 1.429 . S
C1869 C1865 1.429 . S
C1869 C1870 1.523 . S
C1870 C1854 1.368 . S
C1870 C1866 1.368 . S
C1870 C1869 1.523 . S
H1871 C1846 0.950 . S
H1872 C1848 0.950 . S
H1873 C1849 0.949 . S
H1874 C1851 0.950 . S
H1875 C1853 0.950 . S
C1876 C1877 1.349 . S
C1876 C1878 1.327 . S
C1876 H1901 0.950 . S
C1877 C1876 1.349 . S
C1877 C1893 1.349 . S
C1878 C1876 1.327 . S
C1878 C1897 1.429 . S
C1878 H1902 0.950 . S
C1879 C1896 1.574 . S
C1879 C1898 1.368 . S
C1879 H1903 0.949 . S
H1880 C1884 0.949 . S
C1881 C1882 1.349 . S
C1881 C1883 1.327 . S
C1881 H1904 0.950 . S
C1882 C1881 1.349 . S
C1882 C1894 1.349 . S
C1883 C1881 1.327 . S
C1883 C1899 1.429 . S
C1883 H1905 0.950 . S
C1884 H1880 0.949 . S
C1884 C1892 1.574 . S
C1884 C1900 1.368 . S
H1885 C1893 0.950 . S
H1886 C1891 0.950 . S
H1887 C1892 0.949 . S
H1888 C1894 0.950 . S
H1889 C1895 0.950 . S
H1890 C1896 0.949 . S
C1891 H1886 0.950 . S
C1891 C1893 1.327 . S
C1891 C1897 1.429 . S
C1892 C1884 1.574 . S
C1892 H1887 0.949 . S
C1892 C1898 1.368 . S
C1893 C1877 1.349 . S
C1893 H1885 0.950 . S
C1893 C1891 1.327 . S
C1894 C1882 1.349 . S
C1894 H1888 0.950 . S
C1894 C1895 1.327 . S
C1895 H1889 0.950 . S
C1895 C1894 1.327 . S
C1895 C1899 1.429 . S
C1896 C1879 1.574 . S
C1896 H1890 0.949 . S
C1896 C1900 1.368 . S
C1897 C1878 1.429 . S
C1897 C1891 1.429 . S
C1897 C1898 1.523 . S
C1898 C1879 1.368 . S
C1898 C1892 1.368 . S
C1898 C1897 1.523 . S
C1899 C1883 1.429 . S
C1899 C1895 1.429 . S
C1899 C1900 1.523 . S
C1900 C1884 1.368 . S
C1900 C1896 1.368 . S
C1900 C1899 1.523 . S
H1901 C1876 0.950 . S
H1902 C1878 0.950 . S
H1903 C1879 0.949 . S
H1904 C1881 0.950 . S
H1905 C1883 0.950 . S
C1906 C1907 1.349 . S
C1906 C1908 1.327 . S
C1906 H1931 0.950 . S
C1907 C1906 1.349 . S
C1907 C1923 1.349 . S
C1908 C1906 1.327 . S
C1908 C1927 1.429 1_455 S
C1908 H1932 0.950 . S
C1909 C1926 1.574 . S
C1909 C1928 1.368 . S
C1909 H1933 0.949 . S
H1910 C1914 0.949 . S
C1911 C1912 1.349 . S
C1911 C1913 1.327 . S
C1911 H1934 0.950 . S
C1912 C1911 1.349 . S
C1912 C1924 1.349 . S
C1913 C1911 1.327 . S
C1913 C1929 1.429 . S
C1913 H1935 0.950 . S
C1914 H1910 0.949 . S
C1914 C1922 1.574 . S
C1914 C1930 1.368 . S
H1915 C1923 0.950 . S
H1916 C1921 0.950 . S
H1917 C1922 0.949 . S
H1918 C1924 0.950 . S
H1919 C1925 0.950 . S
H1920 C1926 0.949 . S
C1921 H1916 0.950 . S
C1921 C1923 1.327 1_655 S
C1921 C1927 1.429 . S
C1922 C1914 1.574 . S
C1922 H1917 0.949 . S
C1922 C1928 1.368 . S
C1923 C1907 1.349 . S
C1923 H1915 0.950 . S
C1923 C1921 1.327 1_455 S
C1924 C1912 1.349 . S
C1924 H1918 0.950 . S
C1924 C1925 1.327 . S
C1925 H1919 0.950 . S
C1925 C1924 1.327 . S
C1925 C1929 1.429 . S
C1926 C1909 1.574 . S
C1926 H1920 0.949 . S
C1926 C1930 1.368 . S
C1927 C1908 1.429 1_655 S
C1927 C1921 1.429 . S
C1927 C1928 1.523 . S
C1928 C1909 1.368 . S
C1928 C1922 1.368 . S
C1928 C1927 1.523 . S
C1929 C1913 1.429 . S
C1929 C1925 1.429 . S
C1929 C1930 1.523 . S
C1930 C1914 1.368 . S
C1930 C1926 1.368 . S
C1930 C1929 1.523 . S
H1931 C1906 0.950 . S
H1932 C1908 0.950 . S
H1933 C1909 0.949 . S
H1934 C1911 0.950 . S
H1935 C1913 0.950 . S
C1936 C1937 1.349 . S
C1936 C1938 1.327 . S
C1936 H1961 0.950 . S
C1937 C1936 1.349 . S
C1937 C1953 1.349 . S
C1938 C1936 1.327 . S
C1938 C1957 1.429 . S
C1938 H1962 0.950 . S
C1939 C1956 1.574 . S
C1939 C1958 1.368 . S
C1939 H1963 0.949 . S
H1940 C1944 0.949 . S
C1941 C1942 1.349 . S
C1941 C1943 1.327 . S
C1941 H1964 0.950 . S
C1942 C1941 1.349 . S
C1942 C1954 1.349 . S
C1943 C1941 1.327 . S
C1943 C1959 1.429 . S
C1943 H1965 0.950 . S
C1944 H1940 0.949 . S
C1944 C1952 1.574 . S
C1944 C1960 1.368 . S
H1945 C1953 0.950 . S
H1946 C1951 0.950 . S
H1947 C1952 0.949 . S
H1948 C1954 0.950 . S
H1949 C1955 0.950 . S
H1950 C1956 0.949 . S
C1951 H1946 0.950 . S
C1951 C1953 1.327 . S
C1951 C1957 1.429 . S
C1952 C1944 1.574 . S
C1952 H1947 0.949 . S
C1952 C1958 1.368 . S
C1953 C1937 1.349 . S
C1953 H1945 0.950 . S
C1953 C1951 1.327 . S
C1954 C1942 1.349 . S
C1954 H1948 0.950 . S
C1954 C1955 1.327 . S
C1955 H1949 0.950 . S
C1955 C1954 1.327 . S
C1955 C1959 1.429 . S
C1956 C1939 1.574 . S
C1956 H1950 0.949 . S
C1956 C1960 1.368 . S
C1957 C1938 1.429 . S
C1957 C1951 1.429 . S
C1957 C1958 1.523 . S
C1958 C1939 1.368 . S
C1958 C1952 1.368 . S
C1958 C1957 1.523 . S
C1959 C1943 1.429 . S
C1959 C1955 1.429 . S
C1959 C1960 1.523 . S
C1960 C1944 1.368 . S
C1960 C1956 1.368 . S
C1960 C1959 1.523 . S
H1961 C1936 0.950 . S
H1962 C1938 0.950 . S
H1963 C1939 0.949 . S
H1964 C1941 0.950 . S
H1965 C1943 0.950 . S
C1966 C1967 1.349 . S
C1966 C1968 1.327 . S
C1966 H1991 0.950 . S
C1967 C1966 1.349 . S
C1967 C1983 1.349 . S
C1968 C1966 1.327 . S
C1968 C1987 1.429 . S
C1968 H1992 0.950 . S
C1969 C1986 1.574 . S
C1969 C1988 1.368 . S
C1969 H1993 0.949 . S
H1970 C1974 0.949 . S
C1971 C1972 1.358 . S
C1971 C1973 1.313 1_655 S
C1971 H1994 0.954 . S
C1972 C1971 1.358 . S
C1972 C1984 1.349 . S
C1973 C1971 1.313 1_455 S
C1973 C1989 1.429 . S
C1973 H1995 0.950 . S
C1974 H1970 0.949 . S
C1974 C1982 1.574 . S
C1974 C1990 1.368 . S
H1975 C1983 0.950 . S
H1976 C1981 0.950 . S
H1977 C1982 0.949 . S
H1978 C1984 0.950 . S
H1979 C1985 0.950 . S
H1980 C1986 0.949 . S
C1981 H1976 0.950 . S
C1981 C1983 1.327 . S
C1981 C1987 1.429 . S
C1982 C1974 1.574 . S
C1982 H1977 0.949 . S
C1982 C1988 1.368 . S
C1983 C1967 1.349 . S
C1983 H1975 0.950 . S
C1983 C1981 1.327 . S
C1984 C1972 1.349 . S
C1984 H1978 0.950 . S
C1984 C1985 1.327 1_655 S
C1985 H1979 0.950 . S
C1985 C1984 1.327 1_455 S
C1985 C1989 1.429 . S
C1986 C1969 1.574 . S
C1986 H1980 0.949 . S
C1986 C1990 1.368 . S
C1987 C1968 1.429 . S
C1987 C1981 1.429 . S
C1987 C1988 1.523 . S
C1988 C1969 1.368 . S
C1988 C1982 1.368 . S
C1988 C1987 1.523 . S
C1989 C1973 1.429 . S
C1989 C1985 1.429 . S
C1989 C1990 1.523 . S
C1990 C1974 1.368 . S
C1990 C1986 1.368 . S
C1990 C1989 1.523 . S
H1991 C1966 0.950 . S
H1992 C1968 0.950 . S
H1993 C1969 0.949 . S
H1994 C1971 0.954 . S
H1995 C1973 0.950 . S
C1996 C1997 1.349 . S
C1996 C1998 1.327 . S
C1996 H2021 0.950 . S
C1997 C1996 1.349 . S
C1997 C2013 1.349 . S
C1998 C1996 1.327 . S
C1998 C2017 1.429 . S
C1998 H2022 0.950 . S
C1999 C2016 1.574 . S
C1999 C2018 1.368 . S
C1999 H2023 0.949 . S
H2000 C2004 0.949 . S
C2001 C2002 1.349 . S
C2001 C2003 1.327 . S
C2001 H2024 0.950 . S
C2002 C2001 1.349 . S
C2002 C2014 1.349 . S
C2003 C2001 1.327 . S
C2003 C2019 1.429 . S
C2003 H2025 0.950 . S
C2004 H2000 0.949 . S
C2004 C2012 1.574 . S
C2004 C2020 1.368 . S
H2005 C2013 0.950 . S
H2006 C2011 0.950 . S
H2007 C2012 0.949 . S
H2008 C2014 0.950 . S
H2009 C2015 0.950 . S
H2010 C2016 0.949 . S
C2011 H2006 0.950 . S
C2011 C2013 1.327 . S
C2011 C2017 1.429 . S
C2012 C2004 1.574 . S
C2012 H2007 0.949 . S
C2012 C2018 1.368 . S
C2013 C1997 1.349 . S
C2013 H2005 0.950 . S
C2013 C2011 1.327 . S
C2014 C2002 1.349 . S
C2014 H2008 0.950 . S
C2014 C2015 1.327 . S
C2015 H2009 0.950 . S
C2015 C2014 1.327 . S
C2015 C2019 1.429 . S
C2016 C1999 1.574 . S
C2016 H2010 0.949 . S
C2016 C2020 1.368 . S
C2017 C1998 1.429 . S
C2017 C2011 1.429 . S
C2017 C2018 1.523 . S
C2018 C1999 1.368 . S
C2018 C2012 1.368 . S
C2018 C2017 1.523 . S
C2019 C2003 1.429 . S
C2019 C2015 1.429 . S
C2019 C2020 1.523 . S
C2020 C2004 1.368 . S
C2020 C2016 1.368 . S
C2020 C2019 1.523 . S
H2021 C1996 0.950 . S
H2022 C1998 0.950 . S
H2023 C1999 0.949 . S
H2024 C2001 0.950 . S
H2025 C2003 0.950 . S
C2026 C2027 1.349 . S
C2026 C2028 1.327 . S
C2026 H2051 0.950 . S
C2027 C2026 1.349 . S
C2027 C2043 1.349 . S
C2028 C2026 1.327 . S
C2028 C2047 1.429 . S
C2028 H2052 0.950 . S
C2029 C2046 1.574 . S
C2029 C2048 1.368 . S
C2029 H2053 0.949 . S
H2030 C2034 0.949 . S
C2031 C2032 1.349 . S
C2031 C2033 1.327 . S
C2031 H2054 0.950 . S
C2032 C2031 1.349 . S
C2032 C2044 1.349 . S
C2033 C2031 1.327 . S
C2033 C2049 1.429 . S
C2033 H2055 0.950 . S
C2034 H2030 0.949 . S
C2034 C2042 1.574 . S
C2034 C2050 1.368 . S
H2035 C2043 0.950 . S
H2036 C2041 0.950 . S
H2037 C2042 0.949 . S
H2038 C2044 0.950 . S
H2039 C2045 0.950 . S
H2040 C2046 0.949 . S
C2041 H2036 0.950 . S
C2041 C2043 1.327 . S
C2041 C2047 1.429 . S
C2042 C2034 1.574 . S
C2042 H2037 0.949 . S
C2042 C2048 1.368 . S
C2043 C2027 1.349 . S
C2043 H2035 0.950 . S
C2043 C2041 1.327 . S
C2044 C2032 1.349 . S
C2044 H2038 0.950 . S
C2044 C2045 1.327 . S
C2045 H2039 0.950 . S
C2045 C2044 1.327 . S
C2045 C2049 1.429 . S
C2046 C2029 1.574 . S
C2046 H2040 0.949 . S
C2046 C2050 1.368 . S
C2047 C2028 1.429 . S
C2047 C2041 1.429 . S
C2047 C2048 1.523 . S
C2048 C2029 1.368 . S
C2048 C2042 1.368 . S
C2048 C2047 1.523 . S
C2049 C2033 1.429 . S
C2049 C2045 1.429 . S
C2049 C2050 1.523 . S
C2050 C2034 1.368 . S
C2050 C2046 1.368 . S
C2050 C2049 1.523 . S
H2051 C2026 0.950 . S
H2052 C2028 0.950 . S
H2053 C2029 0.949 . S
H2054 C2031 0.950 . S
H2055 C2033 0.950 . S
C2056 C2057 1.349 . S
C2056 C2058 1.327 . S
C2056 H2081 0.950 . S
C2057 C2056 1.349 . S
C2057 C2073 1.349 . S
C2058 C2056 1.327 . S
C2058 C2077 1.429 . S
C2058 H2082 0.950 . S
C2059 C2076 1.574 . S
C2059 C2078 1.368 . S
C2059 H2083 0.949 . S
H2060 C2064 0.949 . S
C2061 C2062 1.349 . S
C2061 C2063 1.327 . S
C2061 H2084 0.950 . S
C2062 C2061 1.349 . S
C2062 C2074 1.349 . S
C2063 C2061 1.327 . S
C2063 C2079 1.429 . S
C2063 H2085 0.950 . S
C2064 H2060 0.949 . S
C2064 C2072 1.574 . S
C2064 C2080 1.368 . S
H2065 C2073 0.950 . S
H2066 C2071 0.950 . S
H2067 C2072 0.949 . S
H2068 C2074 0.950 . S
H2069 C2075 0.950 . S
H2070 C2076 0.949 . S
C2071 H2066 0.950 . S
C2071 C2073 1.327 . S
C2071 C2077 1.429 . S
C2072 C2064 1.574 . S
C2072 H2067 0.949 . S
C2072 C2078 1.368 . S
C2073 C2057 1.349 . S
C2073 H2065 0.950 . S
C2073 C2071 1.327 . S
C2074 C2062 1.349 . S
C2074 H2068 0.950 . S
C2074 C2075 1.327 . S
C2075 H2069 0.950 . S
C2075 C2074 1.327 . S
C2075 C2079 1.429 . S
C2076 C2059 1.574 . S
C2076 H2070 0.949 . S
C2076 C2080 1.368 . S
C2077 C2058 1.429 . S
C2077 C2071 1.429 . S
C2077 C2078 1.523 . S
C2078 C2059 1.368 . S
C2078 C2072 1.368 . S
C2078 C2077 1.523 . S
C2079 C2063 1.429 . S
C2079 C2075 1.429 . S
C2079 C2080 1.523 . S
C2080 C2064 1.368 . S
C2080 C2076 1.368 . S
C2080 C2079 1.523 . S
H2081 C2056 0.950 . S
H2082 C2058 0.950 . S
H2083 C2059 0.949 . S
H2084 C2061 0.950 . S
H2085 C2063 0.950 . S
C2086 C2087 1.349 . S
C2086 C2088 1.327 . S
C2086 H2111 0.950 . S
C2087 C2086 1.349 . S
C2087 C2103 1.349 . S
C2088 C2086 1.327 . S
C2088 C2107 1.429 . S
C2088 H2112 0.950 . S
C2089 C2106 1.574 . S
C2089 C2108 1.368 . S
C2089 H2113 0.949 . S
H2090 C2094 0.949 . S
C2091 C2092 1.349 . S
C2091 C2093 1.327 . S
C2091 H2114 0.950 . S
C2092 C2091 1.349 . S
C2092 C2104 1.349 . S
C2093 C2091 1.327 . S
C2093 C2109 1.429 . S
C2093 H2115 0.950 . S
C2094 H2090 0.949 . S
C2094 C2102 1.574 . S
C2094 C2110 1.368 . S
H2095 C2103 0.950 . S
H2096 C2101 0.950 . S
H2097 C2102 0.949 . S
H2098 C2104 0.950 . S
H2099 C2105 0.950 . S
H2100 C2106 0.949 . S
C2101 H2096 0.950 . S
C2101 C2103 1.327 . S
C2101 C2107 1.429 . S
C2102 C2094 1.574 . S
C2102 H2097 0.949 . S
C2102 C2108 1.368 . S
C2103 C2087 1.349 . S
C2103 H2095 0.950 . S
C2103 C2101 1.327 . S
C2104 C2092 1.349 . S
C2104 H2098 0.950 . S
C2104 C2105 1.327 . S
C2105 H2099 0.950 . S
C2105 C2104 1.327 . S
C2105 C2109 1.429 . S
C2106 C2089 1.574 . S
C2106 H2100 0.949 . S
C2106 C2110 1.368 . S
C2107 C2088 1.429 . S
C2107 C2101 1.429 . S
C2107 C2108 1.523 . S
C2108 C2089 1.368 . S
C2108 C2102 1.368 . S
C2108 C2107 1.523 . S
C2109 C2093 1.429 . S
C2109 C2105 1.429 . S
C2109 C2110 1.523 . S
C2110 C2094 1.368 . S
C2110 C2106 1.368 . S
C2110 C2109 1.523 . S
H2111 C2086 0.950 . S
H2112 C2088 0.950 . S
H2113 C2089 0.949 . S
H2114 C2091 0.950 . S
H2115 C2093 0.950 . S
C2116 C2117 1.349 . S
C2116 C2118 1.327 . S
C2116 H2141 0.950 . S
C2117 C2116 1.349 . S
C2117 C2133 1.349 . S
C2118 C2116 1.327 . S
C2118 C2137 1.429 . S
C2118 H2142 0.950 . S
C2119 C2136 1.574 . S
C2119 C2138 1.368 . S
C2119 H2143 0.949 . S
H2120 C2124 0.949 . S
C2121 C2122 1.349 . S
C2121 C2123 1.327 . S
C2121 H2144 0.950 . S
C2122 C2121 1.349 . S
C2122 C2134 1.349 . S
C2123 C2121 1.327 . S
C2123 C2139 1.429 . S
C2123 H2145 0.950 . S
C2124 H2120 0.949 . S
C2124 C2132 1.574 . S
C2124 C2140 1.368 . S
H2125 C2133 0.950 . S
H2126 C2131 0.950 . S
H2127 C2132 0.949 . S
H2128 C2134 0.950 . S
H2129 C2135 0.950 . S
H2130 C2136 0.949 . S
C2131 H2126 0.950 . S
C2131 C2133 1.327 . S
C2131 C2137 1.429 . S
C2132 C2124 1.574 . S
C2132 H2127 0.949 . S
C2132 C2138 1.368 . S
C2133 C2117 1.349 . S
C2133 H2125 0.950 . S
C2133 C2131 1.327 . S
C2134 C2122 1.349 . S
C2134 H2128 0.950 . S
C2134 C2135 1.327 . S
C2135 H2129 0.950 . S
C2135 C2134 1.327 . S
C2135 C2139 1.429 . S
C2136 C2119 1.574 . S
C2136 H2130 0.949 . S
C2136 C2140 1.368 . S
C2137 C2118 1.429 . S
C2137 C2131 1.429 . S
C2137 C2138 1.523 . S
C2138 C2119 1.368 . S
C2138 C2132 1.368 . S
C2138 C2137 1.523 . S
C2139 C2123 1.429 . S
C2139 C2135 1.429 . S
C2139 C2140 1.523 . S
C2140 C2124 1.368 . S
C2140 C2136 1.368 . S
C2140 C2139 1.523 . S
H2141 C2116 0.950 . S
H2142 C2118 0.950 . S
H2143 C2119 0.949 . S
H2144 C2121 0.950 . S
H2145 C2123 0.950 . S
C2146 C2147 1.349 . S
C2146 C2148 1.327 . S
C2146 H2171 0.950 . S
C2147 C2146 1.349 . S
C2147 C2163 1.349 . S
C2148 C2146 1.327 . S
C2148 C2167 1.429 . S
C2148 H2172 0.950 . S
C2149 C2166 1.574 . S
C2149 C2168 1.368 . S
C2149 H2173 0.949 . S
H2150 C2154 0.949 . S
C2151 C2152 1.349 1_455 S
C2151 C2153 1.327 . S
C2151 H2174 0.950 . S
C2152 C2151 1.349 1_655 S
C2152 C2164 1.349 . S
C2153 C2151 1.327 . S
C2153 C2169 1.429 . S
C2153 H2175 0.950 . S
C2154 H2150 0.949 . S
C2154 C2162 1.574 . S
C2154 C2170 1.368 . S
H2155 C2163 0.950 . S
H2156 C2161 0.950 . S
H2157 C2162 0.949 . S
H2158 C2164 0.950 . S
H2159 C2165 0.950 1_655 S
H2160 C2166 0.949 . S
C2161 H2156 0.950 . S
C2161 C2163 1.327 . S
C2161 C2167 1.429 . S
C2162 C2154 1.574 . S
C2162 H2157 0.949 . S
C2162 C2168 1.368 . S
C2163 C2147 1.349 . S
C2163 H2155 0.950 . S
C2163 C2161 1.327 . S
C2164 C2152 1.349 . S
C2164 H2158 0.950 . S
C2164 C2165 1.327 1_655 S
C2165 H2159 0.950 1_455 S
C2165 C2164 1.327 1_455 S
C2165 C2169 1.429 . S
C2166 C2149 1.574 . S
C2166 H2160 0.949 . S
C2166 C2170 1.368 . S
C2167 C2148 1.429 . S
C2167 C2161 1.429 . S
C2167 C2168 1.523 . S
C2168 C2149 1.368 . S
C2168 C2162 1.368 . S
C2168 C2167 1.523 . S
C2169 C2153 1.429 . S
C2169 C2165 1.429 . S
C2169 C2170 1.523 . S
C2170 C2154 1.368 . S
C2170 C2166 1.368 . S
C2170 C2169 1.523 . S
H2171 C2146 0.950 . S
H2172 C2148 0.950 . S
H2173 C2149 0.949 . S
H2174 C2151 0.950 . S
H2175 C2153 0.950 . S
C2176 C2177 1.349 . S
C2176 C2178 1.327 . S
C2176 H2201 0.950 . S
C2177 C2176 1.349 . S
C2177 C2193 1.349 . S
C2178 C2176 1.327 . S
C2178 C2197 1.429 . S
C2178 H2202 0.950 . S
C2179 C2196 1.574 . S
C2179 C2198 1.368 . S
C2179 H2203 0.949 . S
H2180 C2184 0.949 . S
C2181 C2182 1.349 . S
C2181 C2183 1.327 . S
C2181 H2204 0.950 . S
C2182 C2181 1.349 . S
C2182 C2194 1.349 . S
C2183 C2181 1.327 . S
C2183 C2199 1.429 . S
C2183 H2205 0.950 . S
C2184 H2180 0.949 . S
C2184 C2192 1.574 . S
C2184 C2200 1.368 . S
H2185 C2193 0.950 . S
H2186 C2191 0.950 . S
H2187 C2192 0.949 . S
H2188 C2194 0.950 . S
H2189 C2195 0.950 . S
H2190 C2196 0.949 . S
C2191 H2186 0.950 . S
C2191 C2193 1.327 . S
C2191 C2197 1.429 . S
C2192 C2184 1.574 . S
C2192 H2187 0.949 . S
C2192 C2198 1.368 . S
C2193 C2177 1.349 . S
C2193 H2185 0.950 . S
C2193 C2191 1.327 . S
C2194 C2182 1.349 . S
C2194 H2188 0.950 . S
C2194 C2195 1.327 . S
C2195 H2189 0.950 . S
C2195 C2194 1.327 . S
C2195 C2199 1.429 . S
C2196 C2179 1.574 . S
C2196 H2190 0.949 . S
C2196 C2200 1.368 . S
C2197 C2178 1.429 . S
C2197 C2191 1.429 . S
C2197 C2198 1.523 . S
C2198 C2179 1.368 . S
C2198 C2192 1.368 . S
C2198 C2197 1.523 . S
C2199 C2183 1.429 . S
C2199 C2195 1.429 . S
C2199 C2200 1.523 . S
C2200 C2184 1.368 . S
C2200 C2196 1.368 . S
C2200 C2199 1.523 . S
H2201 C2176 0.950 . S
H2202 C2178 0.950 . S
H2203 C2179 0.949 . S
H2204 C2181 0.950 . S
H2205 C2183 0.950 . S
C2206 C2207 1.349 . S
C2206 C2208 1.327 . S
C2206 H2231 0.950 . S
C2207 C2206 1.349 . S
C2207 C2223 1.349 . S
C2208 C2206 1.327 . S
C2208 C2227 1.429 . S
C2208 H2232 0.950 . S
C2209 C2226 1.574 . S
C2209 C2228 1.368 . S
C2209 H2233 0.949 . S
H2210 C2214 0.949 . S
C2211 C2212 1.349 . S
C2211 C2213 1.327 . S
C2211 H2234 0.950 . S
C2212 C2211 1.349 . S
C2212 C2224 1.349 . S
C2213 C2211 1.327 . S
C2213 C2229 1.429 . S
C2213 H2235 0.950 . S
C2214 H2210 0.949 . S
C2214 C2222 1.574 . S
C2214 C2230 1.368 . S
H2215 C2223 0.950 . S
H2216 C2221 0.950 . S
H2217 C2222 0.949 . S
H2218 C2224 0.950 . S
H2219 C2225 0.950 . S
H2220 C2226 0.949 . S
C2221 H2216 0.950 . S
C2221 C2223 1.327 . S
C2221 C2227 1.429 . S
C2222 C2214 1.574 . S
C2222 H2217 0.949 . S
C2222 C2228 1.368 . S
C2223 C2207 1.349 . S
C2223 H2215 0.950 . S
C2223 C2221 1.327 . S
C2224 C2212 1.349 . S
C2224 H2218 0.950 . S
C2224 C2225 1.327 . S
C2225 H2219 0.950 . S
C2225 C2224 1.327 . S
C2225 C2229 1.429 . S
C2226 C2209 1.574 . S
C2226 H2220 0.949 . S
C2226 C2230 1.368 . S
C2227 C2208 1.429 . S
C2227 C2221 1.429 . S
C2227 C2228 1.523 . S
C2228 C2209 1.368 . S
C2228 C2222 1.368 . S
C2228 C2227 1.523 . S
C2229 C2213 1.429 . S
C2229 C2225 1.429 . S
C2229 C2230 1.523 . S
C2230 C2214 1.368 . S
C2230 C2226 1.368 . S
C2230 C2229 1.523 . S
H2231 C2206 0.950 . S
H2232 C2208 0.950 . S
H2233 C2209 0.949 . S
H2234 C2211 0.950 . S
H2235 C2213 0.950 . S
C2236 C2237 1.349 . S
C2236 C2238 1.327 . S
C2236 H2261 0.950 . S
C2237 C2236 1.349 . S
C2237 C2253 1.349 . S
C2238 C2236 1.327 . S
C2238 C2257 1.429 . S
C2238 H2262 0.950 . S
C2239 C2256 1.574 . S
C2239 C2258 1.368 . S
C2239 H2263 0.949 . S
H2240 C2244 0.949 . S
C2241 C2242 1.349 . S
C2241 C2243 1.327 . S
C2241 H2264 0.950 . S
C2242 C2241 1.349 . S
C2242 C2254 1.349 . S
C2243 C2241 1.327 . S
C2243 C2259 1.429 . S
C2243 H2265 0.950 . S
C2244 H2240 0.949 . S
C2244 C2252 1.574 . S
C2244 C2260 1.368 . S
H2245 C2253 0.950 . S
H2246 C2251 0.950 . S
H2247 C2252 0.949 . S
H2248 C2254 0.950 . S
H2249 C2255 0.950 . S
H2250 C2256 0.949 . S
C2251 H2246 0.950 . S
C2251 C2253 1.327 . S
C2251 C2257 1.429 . S
C2252 C2244 1.574 . S
C2252 H2247 0.949 . S
C2252 C2258 1.368 . S
C2253 C2237 1.349 . S
C2253 H2245 0.950 . S
C2253 C2251 1.327 . S
C2254 C2242 1.349 . S
C2254 H2248 0.950 . S
C2254 C2255 1.327 . S
C2255 H2249 0.950 . S
C2255 C2254 1.327 . S
C2255 C2259 1.429 . S
C2256 C2239 1.574 . S
C2256 H2250 0.949 . S
C2256 C2260 1.368 . S
C2257 C2238 1.429 . S
C2257 C2251 1.429 . S
C2257 C2258 1.523 . S
C2258 C2239 1.368 . S
C2258 C2252 1.368 . S
C2258 C2257 1.523 . S
C2259 C2243 1.429 . S
C2259 C2255 1.429 . S
C2259 C2260 1.523 . S
C2260 C2244 1.368 . S
C2260 C2256 1.368 . S
C2260 C2259 1.523 . S
H2261 C2236 0.950 . S
H2262 C2238 0.950 . S
H2263 C2239 0.949 . S
H2264 C2241 0.950 . S
H2265 C2243 0.950 . S
C2266 C2267 1.349 . S
C2266 C2268 1.327 . S
C2266 H2291 0.950 . S
C2267 C2266 1.349 . S
C2267 C2283 1.349 . S
C2268 C2266 1.327 . S
C2268 C2287 1.429 . S
C2268 H2292 0.950 . S
C2269 C2286 1.574 . S
C2269 C2288 1.368 . S
C2269 H2293 0.949 . S
H2270 C2274 0.949 . S
C2271 C2272 1.349 . S
C2271 C2273 1.327 . S
C2271 H2294 0.950 . S
C2272 C2271 1.349 . S
C2272 C2284 1.349 . S
C2273 C2271 1.327 . S
C2273 C2289 1.429 1_655 S
C2273 H2295 0.950 . S
C2274 H2270 0.949 . S
C2274 C2282 1.574 . S
C2274 C2290 1.368 . S
H2275 C2283 0.950 . S
H2276 C2281 0.950 . S
H2277 C2282 0.949 . S
H2278 C2284 0.950 . S
H2279 C2285 0.950 . S
H2280 C2286 0.949 . S
C2281 H2276 0.950 . S
C2281 C2283 1.327 . S
C2281 C2287 1.429 . S
C2282 C2274 1.574 . S
C2282 H2277 0.949 . S
C2282 C2288 1.368 . S
C2283 C2267 1.349 . S
C2283 H2275 0.950 . S
C2283 C2281 1.327 . S
C2284 C2272 1.349 . S
C2284 H2278 0.950 . S
C2284 C2285 1.327 1_655 S
C2285 H2279 0.950 . S
C2285 C2284 1.327 1_455 S
C2285 C2289 1.429 . S
C2286 C2269 1.574 . S
C2286 H2280 0.949 . S
C2286 C2290 1.368 . S
C2287 C2268 1.429 . S
C2287 C2281 1.429 . S
C2287 C2288 1.523 . S
C2288 C2269 1.368 . S
C2288 C2282 1.368 . S
C2288 C2287 1.523 . S
C2289 C2273 1.429 1_455 S
C2289 C2285 1.429 . S
C2289 C2290 1.523 . S
C2290 C2274 1.368 . S
C2290 C2286 1.368 . S
C2290 C2289 1.523 . S
H2291 C2266 0.950 . S
H2292 C2268 0.950 . S
H2293 C2269 0.949 . S
H2294 C2271 0.950 . S
H2295 C2273 0.950 . S
C2296 C2297 1.349 . S
C2296 C2298 1.327 . S
C2296 H2321 0.950 . S
C2297 C2296 1.349 . S
C2297 C2313 1.349 . S
C2298 C2296 1.327 . S
C2298 C2317 1.429 . S
C2298 H2322 0.950 . S
C2299 C2316 1.574 . S
C2299 C2318 1.368 . S
C2299 H2323 0.949 . S
H2300 C2304 0.949 . S
C2301 C2302 1.349 . S
C2301 C2303 1.327 . S
C2301 H2324 0.950 . S
C2302 C2301 1.349 . S
C2302 C2314 1.349 . S
C2303 C2301 1.327 . S
C2303 C2319 1.429 . S
C2303 H2325 0.950 . S
C2304 H2300 0.949 . S
C2304 C2312 1.574 . S
C2304 C2320 1.368 . S
H2305 C2313 0.950 . S
H2306 C2311 0.950 . S
H2307 C2312 0.949 . S
H2308 C2314 0.950 . S
H2309 C2315 0.950 . S
H2310 C2316 0.949 . S
C2311 H2306 0.950 . S
C2311 C2313 1.327 . S
C2311 C2317 1.429 . S
C2312 C2304 1.574 . S
C2312 H2307 0.949 . S
C2312 C2318 1.368 . S
C2313 C2297 1.349 . S
C2313 H2305 0.950 . S
C2313 C2311 1.327 . S
C2314 C2302 1.349 . S
C2314 H2308 0.950 . S
C2314 C2315 1.327 . S
C2315 H2309 0.950 . S
C2315 C2314 1.327 . S
C2315 C2319 1.429 . S
C2316 C2299 1.574 . S
C2316 H2310 0.949 . S
C2316 C2320 1.368 . S
C2317 C2298 1.429 . S
C2317 C2311 1.429 . S
C2317 C2318 1.523 . S
C2318 C2299 1.368 . S
C2318 C2312 1.368 . S
C2318 C2317 1.523 . S
C2319 C2303 1.429 . S
C2319 C2315 1.429 . S
C2319 C2320 1.523 . S
C2320 C2304 1.368 . S
C2320 C2316 1.368 . S
C2320 C2319 1.523 . S
H2321 C2296 0.950 . S
H2322 C2298 0.950 . S
H2323 C2299 0.949 . S
H2324 C2301 0.950 . S
H2325 C2303 0.950 . S
C2326 C2327 1.349 . S
C2326 C2328 1.327 . S
C2326 H2351 0.950 . S
C2327 C2326 1.349 . S
C2327 C2343 1.349 . S
C2328 C2326 1.327 . S
C2328 C2347 1.429 . S
C2328 H2352 0.950 . S
C2329 C2346 1.574 . S
C2329 C2348 1.368 . S
C2329 H2353 0.949 . S
H2330 C2334 0.949 . S
C2331 C2332 1.349 . S
C2331 C2333 1.327 1_655 S
C2331 H2354 0.950 . S
C2332 C2331 1.349 . S
C2332 C2344 1.349 . S
C2333 C2331 1.327 1_455 S
C2333 C2349 1.429 . S
C2333 H2355 0.950 . S
C2334 H2330 0.949 . S
C2334 C2342 1.574 . S
C2334 C2350 1.368 . S
H2335 C2343 0.950 . S
H2336 C2341 0.950 . S
H2337 C2342 0.949 . S
H2338 C2344 0.950 . S
H2339 C2345 0.950 . S
H2340 C2346 0.949 . S
C2341 H2336 0.950 . S
C2341 C2343 1.327 . S
C2341 C2347 1.429 . S
C2342 C2334 1.574 . S
C2342 H2337 0.949 . S
C2342 C2348 1.368 . S
C2343 C2327 1.349 . S
C2343 H2335 0.950 . S
C2343 C2341 1.327 . S
C2344 C2332 1.349 . S
C2344 H2338 0.950 . S
C2344 C2345 1.327 . S
C2345 H2339 0.950 . S
C2345 C2344 1.327 . S
C2345 C2349 1.429 1_655 S
C2346 C2329 1.574 . S
C2346 H2340 0.949 . S
C2346 C2350 1.368 . S
C2347 C2328 1.429 . S
C2347 C2341 1.429 . S
C2347 C2348 1.523 . S
C2348 C2329 1.368 . S
C2348 C2342 1.368 . S
C2348 C2347 1.523 . S
C2349 C2333 1.429 . S
C2349 C2345 1.429 1_455 S
C2349 C2350 1.523 . S
C2350 C2334 1.368 . S
C2350 C2346 1.368 . S
C2350 C2349 1.523 . S
H2351 C2326 0.950 . S
H2352 C2328 0.950 . S
H2353 C2329 0.949 . S
H2354 C2331 0.950 . S
H2355 C2333 0.950 . S
C2356 C2357 1.349 . S
C2356 C2358 1.327 . S
C2356 H2381 0.950 . S
C2357 C2356 1.349 . S
C2357 C2373 1.349 . S
C2358 C2356 1.327 . S
C2358 C2377 1.429 . S
C2358 H2382 0.950 . S
C2359 C2376 1.574 . S
C2359 C2378 1.368 . S
C2359 H2383 0.949 . S
H2360 C2364 0.949 . S
C2361 C2362 1.349 . S
C2361 C2363 1.327 . S
C2361 H2384 0.950 . S
C2362 C2361 1.349 . S
C2362 C2374 1.349 . S
C2363 C2361 1.327 . S
C2363 C2379 1.429 . S
C2363 H2385 0.950 . S
C2364 H2360 0.949 . S
C2364 C2372 1.574 . S
C2364 C2380 1.368 . S
H2365 C2373 0.950 . S
H2366 C2371 0.950 . S
H2367 C2372 0.949 . S
H2368 C2374 0.950 . S
H2369 C2375 0.950 . S
H2370 C2376 0.949 . S
C2371 H2366 0.950 . S
C2371 C2373 1.327 . S
C2371 C2377 1.429 . S
C2372 C2364 1.574 . S
C2372 H2367 0.949 . S
C2372 C2378 1.368 . S
C2373 C2357 1.349 . S
C2373 H2365 0.950 . S
C2373 C2371 1.327 . S
C2374 C2362 1.349 . S
C2374 H2368 0.950 . S
C2374 C2375 1.327 . S
C2375 H2369 0.950 . S
C2375 C2374 1.327 . S
C2375 C2379 1.429 . S
C2376 C2359 1.574 . S
C2376 H2370 0.949 . S
C2376 C2380 1.368 . S
C2377 C2358 1.429 . S
C2377 C2371 1.429 . S
C2377 C2378 1.523 . S
C2378 C2359 1.368 . S
C2378 C2372 1.368 . S
C2378 C2377 1.523 . S
C2379 C2363 1.429 . S
C2379 C2375 1.429 . S
C2379 C2380 1.523 . S
C2380 C2364 1.368 . S
C2380 C2376 1.368 . S
C2380 C2379 1.523 . S
H2381 C2356 0.950 . S
H2382 C2358 0.950 . S
H2383 C2359 0.949 . S
H2384 C2361 0.950 . S
H2385 C2363 0.950 . S
C2386 C2387 1.349 . S
C2386 C2388 1.327 . S
C2386 H2411 0.950 . S
C2387 C2386 1.349 . S
C2387 C2403 1.349 . S
C2388 C2386 1.327 . S
C2388 C2407 1.429 . S
C2388 H2412 0.950 . S
C2389 C2406 1.574 . S
C2389 C2408 1.368 . S
C2389 H2413 0.949 . S
H2390 C2394 0.949 . S
C2391 C2392 1.349 . S
C2391 C2393 1.327 . S
C2391 H2414 0.950 . S
C2392 C2391 1.349 . S
C2392 C2404 1.349 . S
C2393 C2391 1.327 . S
C2393 C2409 1.429 . S
C2393 H2415 0.950 . S
C2394 H2390 0.949 . S
C2394 C2402 1.574 . S
C2394 C2410 1.368 . S
H2395 C2403 0.950 . S
H2396 C2401 0.950 . S
H2397 C2402 0.949 . S
H2398 C2404 0.950 . S
H2399 C2405 0.950 . S
H2400 C2406 0.949 . S
C2401 H2396 0.950 . S
C2401 C2403 1.327 . S
C2401 C2407 1.429 . S
C2402 C2394 1.574 . S
C2402 H2397 0.949 . S
C2402 C2408 1.368 . S
C2403 C2387 1.349 . S
C2403 H2395 0.950 . S
C2403 C2401 1.327 . S
C2404 C2392 1.349 . S
C2404 H2398 0.950 . S
C2404 C2405 1.327 . S
C2405 H2399 0.950 . S
C2405 C2404 1.327 . S
C2405 C2409 1.429 . S
C2406 C2389 1.574 . S
C2406 H2400 0.949 . S
C2406 C2410 1.368 . S
C2407 C2388 1.429 . S
C2407 C2401 1.429 . S
C2407 C2408 1.523 . S
C2408 C2389 1.368 . S
C2408 C2402 1.368 . S
C2408 C2407 1.523 . S
C2409 C2393 1.429 . S
C2409 C2405 1.429 . S
C2409 C2410 1.523 . S
C2410 C2394 1.368 . S
C2410 C2406 1.368 . S
C2410 C2409 1.523 . S
H2411 C2386 0.950 . S
H2412 C2388 0.950 . S
H2413 C2389 0.949 . S
H2414 C2391 0.950 . S
H2415 C2393 0.950 . S
C2416 C2417 1.349 . S
C2416 C2418 1.327 . S
C2416 H2441 0.950 . S
C2417 C2416 1.349 . S
C2417 C2433 1.349 . S
C2418 C2416 1.327 . S
C2418 C2437 1.429 . S
C2418 H2442 0.950 . S
C2419 C2436 1.574 . S
C2419 C2438 1.368 . S
C2419 H2443 0.949 . S
H2420 C2424 0.949 . S
C2421 C2422 1.349 . S
C2421 C2423 1.327 . S
C2421 H2444 0.950 . S
C2422 C2421 1.349 . S
C2422 C2434 1.349 . S
C2423 C2421 1.327 . S
C2423 C2439 1.429 . S
C2423 H2445 0.950 . S
C2424 H2420 0.949 . S
C2424 C2432 1.574 . S
C2424 C2440 1.368 . S
H2425 C2433 0.950 . S
H2426 C2431 0.950 . S
H2427 C2432 0.949 . S
H2428 C2434 0.950 . S
H2429 C2435 0.950 . S
H2430 C2436 0.949 . S
C2431 H2426 0.950 . S
C2431 C2433 1.327 . S
C2431 C2437 1.429 . S
C2432 C2424 1.574 . S
C2432 H2427 0.949 . S
C2432 C2438 1.368 . S
C2433 C2417 1.349 . S
C2433 H2425 0.950 . S
C2433 C2431 1.327 . S
C2434 C2422 1.349 . S
C2434 H2428 0.950 . S
C2434 C2435 1.327 . S
C2435 H2429 0.950 . S
C2435 C2434 1.327 . S
C2435 C2439 1.429 . S
C2436 C2419 1.574 . S
C2436 H2430 0.949 . S
C2436 C2440 1.368 . S
C2437 C2418 1.429 . S
C2437 C2431 1.429 . S
C2437 C2438 1.523 . S
C2438 C2419 1.368 . S
C2438 C2432 1.368 . S
C2438 C2437 1.523 . S
C2439 C2423 1.429 . S
C2439 C2435 1.429 . S
C2439 C2440 1.523 . S
C2440 C2424 1.368 . S
C2440 C2436 1.368 . S
C2440 C2439 1.523 . S
H2441 C2416 0.950 . S
H2442 C2418 0.950 . S
H2443 C2419 0.949 . S
H2444 C2421 0.950 . S
H2445 C2423 0.950 . S
C2446 C2447 1.349 . S
C2446 C2448 1.327 . S
C2446 H2471 0.950 . S
C2447 C2446 1.349 . S
C2447 C2463 1.349 . S
C2448 C2446 1.327 . S
C2448 C2467 1.429 . S
C2448 H2472 0.950 . S
C2449 C2466 1.574 . S
C2449 C2468 1.368 . S
C2449 H2473 0.949 . S
H2450 C2454 0.949 . S
C2451 C2452 1.349 . S
C2451 C2453 1.327 . S
C2451 H2474 0.950 . S
C2452 C2451 1.349 . S
C2452 C2464 1.349 . S
C2453 C2451 1.327 . S
C2453 C2469 1.429 . S
C2453 H2475 0.950 . S
C2454 H2450 0.949 . S
C2454 C2462 1.574 . S
C2454 C2470 1.368 . S
H2455 C2463 0.950 . S
H2456 C2461 0.950 . S
H2457 C2462 0.949 . S
H2458 C2464 0.950 . S
H2459 C2465 0.950 . S
H2460 C2466 0.949 . S
C2461 H2456 0.950 . S
C2461 C2463 1.327 . S
C2461 C2467 1.429 . S
C2462 C2454 1.574 . S
C2462 H2457 0.949 . S
C2462 C2468 1.368 . S
C2463 C2447 1.349 . S
C2463 H2455 0.950 . S
C2463 C2461 1.327 . S
C2464 C2452 1.349 . S
C2464 H2458 0.950 . S
C2464 C2465 1.327 . S
C2465 H2459 0.950 . S
C2465 C2464 1.327 . S
C2465 C2469 1.429 . S
C2466 C2449 1.574 . S
C2466 H2460 0.949 . S
C2466 C2470 1.368 . S
C2467 C2448 1.429 . S
C2467 C2461 1.429 . S
C2467 C2468 1.523 . S
C2468 C2449 1.368 . S
C2468 C2462 1.368 . S
C2468 C2467 1.523 . S
C2469 C2453 1.429 . S
C2469 C2465 1.429 . S
C2469 C2470 1.523 . S
C2470 C2454 1.368 . S
C2470 C2466 1.368 . S
C2470 C2469 1.523 . S
H2471 C2446 0.950 . S
H2472 C2448 0.950 . S
H2473 C2449 0.949 . S
H2474 C2451 0.950 . S
H2475 C2453 0.950 . S
C2476 C2477 1.349 . S
C2476 C2478 1.327 . S
C2476 H2501 0.950 . S
C2477 C2476 1.349 . S
C2477 C2493 1.349 . S
C2478 C2476 1.327 . S
C2478 C2497 1.429 . S
C2478 H2502 0.950 . S
C2479 C2496 1.574 . S
C2479 C2498 1.368 . S
C2479 H2503 0.949 . S
H2480 C2484 0.949 . S
C2481 C2482 1.349 . S
C2481 C2483 1.327 . S
C2481 H2504 0.950 . S
C2482 C2481 1.349 . S
C2482 C2494 1.349 . S
C2483 C2481 1.327 . S
C2483 C2499 1.429 . S
C2483 H2505 0.950 . S
C2484 H2480 0.949 . S
C2484 C2492 1.574 . S
C2484 C2500 1.368 . S
H2485 C2493 0.950 . S
H2486 C2491 0.950 . S
H2487 C2492 0.949 . S
H2488 C2494 0.950 . S
H2489 C2495 0.950 . S
H2490 C2496 0.949 . S
C2491 H2486 0.950 . S
C2491 C2493 1.327 . S
C2491 C2497 1.429 . S
C2492 C2484 1.574 . S
C2492 H2487 0.949 . S
C2492 C2498 1.368 . S
C2493 C2477 1.349 . S
C2493 H2485 0.950 . S
C2493 C2491 1.327 . S
C2494 C2482 1.349 . S
C2494 H2488 0.950 . S
C2494 C2495 1.327 . S
C2495 H2489 0.950 . S
C2495 C2494 1.327 . S
C2495 C2499 1.429 . S
C2496 C2479 1.574 . S
C2496 H2490 0.949 . S
C2496 C2500 1.368 . S
C2497 C2478 1.429 . S
C2497 C2491 1.429 . S
C2497 C2498 1.523 . S
C2498 C2479 1.368 . S
C2498 C2492 1.368 . S
C2498 C2497 1.523 . S
C2499 C2483 1.429 . S
C2499 C2495 1.429 . S
C2499 C2500 1.523 . S
C2500 C2484 1.368 . S
C2500 C2496 1.368 . S
C2500 C2499 1.523 . S
H2501 C2476 0.950 . S
H2502 C2478 0.950 . S
H2503 C2479 0.949 . S
H2504 C2481 0.950 . S
H2505 C2483 0.950 . S
C2506 C2507 1.349 . S
C2506 C2508 1.327 1_455 S
C2506 H2531 0.950 . S
C2507 C2506 1.349 . S
C2507 C2523 1.349 1_455 S
C2508 C2506 1.327 1_655 S
C2508 C2527 1.429 . S
C2508 H2532 0.950 . S
C2509 C2526 1.574 . S
C2509 C2528 1.368 . S
C2509 H2533 0.949 . S
H2510 C2514 0.949 . S
C2511 C2512 1.349 . S
C2511 C2513 1.327 . S
C2511 H2534 0.950 . S
C2512 C2511 1.349 . S
C2512 C2524 1.349 . S
C2513 C2511 1.327 . S
C2513 C2529 1.429 . S
C2513 H2535 0.950 . S
C2514 H2510 0.949 . S
C2514 C2522 1.574 . S
C2514 C2530 1.368 . S
H2515 C2523 0.950 . S
H2516 C2521 0.950 . S
H2517 C2522 0.949 . S
H2518 C2524 0.950 . S
H2519 C2525 0.950 . S
H2520 C2526 0.949 . S
C2521 H2516 0.950 . S
C2521 C2523 1.327 . S
C2521 C2527 1.429 . S
C2522 C2514 1.574 . S
C2522 H2517 0.949 . S
C2522 C2528 1.368 . S
C2523 C2507 1.349 1_655 S
C2523 H2515 0.950 . S
C2523 C2521 1.327 . S
C2524 C2512 1.349 . S
C2524 H2518 0.950 . S
C2524 C2525 1.327 . S
C2525 H2519 0.950 . S
C2525 C2524 1.327 . S
C2525 C2529 1.429 . S
C2526 C2509 1.574 . S
C2526 H2520 0.949 . S
C2526 C2530 1.368 . S
C2527 C2508 1.429 . S
C2527 C2521 1.429 . S
C2527 C2528 1.523 . S
C2528 C2509 1.368 . S
C2528 C2522 1.368 . S
C2528 C2527 1.523 . S
C2529 C2513 1.429 . S
C2529 C2525 1.429 . S
C2529 C2530 1.523 . S
C2530 C2514 1.368 . S
C2530 C2526 1.368 . S
C2530 C2529 1.523 . S
H2531 C2506 0.950 . S
H2532 C2508 0.950 . S
H2533 C2509 0.949 . S
H2534 C2511 0.950 . S
H2535 C2513 0.950 . S
C2536 C2537 1.349 . S
C2536 C2538 1.327 . S
C2536 H2561 0.950 . S
C2537 C2536 1.349 . S
C2537 C2553 1.349 . S
C2538 C2536 1.327 . S
C2538 C2557 1.429 . S
C2538 H2562 0.950 . S
C2539 C2556 1.574 . S
C2539 C2558 1.368 . S
C2539 H2563 0.949 . S
H2540 C2544 0.949 . S
C2541 C2542 1.349 . S
C2541 C2543 1.327 . S
C2541 H2564 0.950 . S
C2542 C2541 1.349 . S
C2542 C2554 1.349 . S
C2543 C2541 1.327 . S
C2543 C2559 1.429 . S
C2543 H2565 0.950 . S
C2544 H2540 0.949 . S
C2544 C2552 1.574 . S
C2544 C2560 1.368 . S
H2545 C2553 0.950 . S
H2546 C2551 0.950 . S
H2547 C2552 0.949 . S
H2548 C2554 0.950 . S
H2549 C2555 0.950 . S
H2550 C2556 0.949 . S
C2551 H2546 0.950 . S
C2551 C2553 1.327 . S
C2551 C2557 1.429 . S
C2552 C2544 1.574 . S
C2552 H2547 0.949 . S
C2552 C2558 1.368 . S
C2553 C2537 1.349 . S
C2553 H2545 0.950 . S
C2553 C2551 1.327 . S
C2554 C2542 1.349 . S
C2554 H2548 0.950 . S
C2554 C2555 1.327 . S
C2555 H2549 0.950 . S
C2555 C2554 1.327 . S
C2555 C2559 1.429 . S
C2556 C2539 1.574 . S
C2556 H2550 0.949 . S
C2556 C2560 1.368 . S
C2557 C2538 1.429 . S
C2557 C2551 1.429 . S
C2557 C2558 1.523 . S
C2558 C2539 1.368 . S
C2558 C2552 1.368 . S
C2558 C2557 1.523 . S
C2559 C2543 1.429 . S
C2559 C2555 1.429 . S
C2559 C2560 1.523 . S
C2560 C2544 1.368 . S
C2560 C2556 1.368 . S
C2560 C2559 1.523 . S
H2561 C2536 0.950 . S
H2562 C2538 0.950 . S
H2563 C2539 0.949 . S
H2564 C2541 0.950 . S
H2565 C2543 0.950 . S
C2566 C2567 1.349 . S
C2566 C2568 1.339 . S
C2566 H2591 0.950 . S
C2567 C2566 1.349 . S
C2567 C2583 1.349 1_455 S
C2568 C2566 1.339 . S
C2568 C2587 1.412 1_455 S
C2568 H2592 0.954 . S
C2569 C2586 1.574 . S
C2569 C2588 1.368 . S
C2569 H2593 0.949 . S
H2570 C2574 0.949 . S
C2571 C2572 1.349 . S
C2571 C2573 1.327 . S
C2571 H2594 0.950 . S
C2572 C2571 1.349 . S
C2572 C2584 1.349 . S
C2573 C2571 1.327 . S
C2573 C2589 1.429 . S
C2573 H2595 0.950 . S
C2574 H2570 0.949 . S
C2574 C2582 1.574 . S
C2574 C2590 1.368 . S
H2575 C2583 0.950 . S
H2576 C2581 0.950 . S
H2577 C2582 0.949 . S
H2578 C2584 0.950 . S
H2579 C2585 0.950 . S
H2580 C2586 0.949 . S
C2581 H2576 0.950 . S
C2581 C2583 1.327 . S
C2581 C2587 1.429 . S
C2582 C2574 1.574 . S
C2582 H2577 0.949 . S
C2582 C2588 1.368 . S
C2583 C2567 1.349 1_655 S
C2583 H2575 0.950 . S
C2583 C2581 1.327 . S
C2584 C2572 1.349 . S
C2584 H2578 0.950 . S
C2584 C2585 1.327 . S
C2585 H2579 0.950 . S
C2585 C2584 1.327 . S
C2585 C2589 1.429 . S
C2586 C2569 1.574 . S
C2586 H2580 0.949 . S
C2586 C2590 1.368 . S
C2587 C2568 1.412 1_655 S
C2587 C2581 1.429 . S
C2587 C2588 1.523 . S
C2588 C2569 1.368 . S
C2588 C2582 1.368 . S
C2588 C2587 1.523 . S
C2589 C2573 1.429 . S
C2589 C2585 1.429 . S
C2589 C2590 1.523 . S
C2590 C2574 1.368 . S
C2590 C2586 1.368 . S
C2590 C2589 1.523 . S
H2591 C2566 0.950 . S
H2592 C2568 0.954 . S
H2593 C2569 0.949 . S
H2594 C2571 0.950 . S
H2595 C2573 0.950 . S
C2596 C2597 1.349 . S
C2596 C2598 1.327 . S
C2596 H2621 0.950 . S
C2597 C2596 1.349 . S
C2597 C2613 1.349 . S
C2598 C2596 1.327 . S
C2598 C2617 1.429 . S
C2598 H2622 0.950 . S
C2599 C2616 1.574 . S
C2599 C2618 1.368 . S
C2599 H2623 0.949 . S
H2600 C2604 0.949 . S
C2601 C2602 1.349 . S
C2601 C2603 1.327 . S
C2601 H2624 0.950 . S
C2602 C2601 1.349 . S
C2602 C2614 1.349 . S
C2603 C2601 1.327 . S
C2603 C2619 1.429 . S
C2603 H2625 0.950 . S
C2604 H2600 0.949 . S
C2604 C2612 1.574 . S
C2604 C2620 1.368 . S
H2605 C2613 0.950 . S
H2606 C2611 0.950 . S
H2607 C2612 0.949 . S
H2608 C2614 0.950 . S
H2609 C2615 0.950 . S
H2610 C2616 0.949 . S
C2611 H2606 0.950 . S
C2611 C2613 1.327 . S
C2611 C2617 1.429 . S
C2612 C2604 1.574 . S
C2612 H2607 0.949 . S
C2612 C2618 1.368 . S
C2613 C2597 1.349 . S
C2613 H2605 0.950 . S
C2613 C2611 1.327 . S
C2614 C2602 1.349 . S
C2614 H2608 0.950 . S
C2614 C2615 1.327 . S
C2615 H2609 0.950 . S
C2615 C2614 1.327 . S
C2615 C2619 1.429 . S
C2616 C2599 1.574 . S
C2616 H2610 0.949 . S
C2616 C2620 1.368 . S
C2617 C2598 1.429 . S
C2617 C2611 1.429 . S
C2617 C2618 1.523 . S
C2618 C2599 1.368 . S
C2618 C2612 1.368 . S
C2618 C2617 1.523 . S
C2619 C2603 1.429 . S
C2619 C2615 1.429 . S
C2619 C2620 1.523 . S
C2620 C2604 1.368 . S
C2620 C2616 1.368 . S
C2620 C2619 1.523 . S
H2621 C2596 0.950 . S
H2622 C2598 0.950 . S
H2623 C2599 0.949 . S
H2624 C2601 0.950 . S
H2625 C2603 0.950 . S
C2626 C2627 1.349 . S
C2626 C2628 1.327 . S
C2626 H2651 0.950 . S
C2627 C2626 1.349 . S
C2627 C2643 1.349 . S
C2628 C2626 1.327 . S
C2628 C2647 1.429 . S
C2628 H2652 0.950 . S
C2629 C2646 1.574 . S
C2629 C2648 1.368 . S
C2629 H2653 0.949 . S
H2630 C2634 0.949 . S
C2631 C2632 1.349 . S
C2631 C2633 1.327 . S
C2631 H2654 0.950 . S
C2632 C2631 1.349 . S
C2632 C2644 1.349 . S
C2633 C2631 1.327 . S
C2633 C2649 1.429 . S
C2633 H2655 0.950 . S
C2634 H2630 0.949 . S
C2634 C2642 1.574 . S
C2634 C2650 1.368 . S
H2635 C2643 0.950 . S
H2636 C2641 0.950 . S
H2637 C2642 0.949 . S
H2638 C2644 0.950 . S
H2639 C2645 0.950 . S
H2640 C2646 0.949 . S
C2641 H2636 0.950 . S
C2641 C2643 1.327 . S
C2641 C2647 1.429 . S
C2642 C2634 1.574 . S
C2642 H2637 0.949 . S
C2642 C2648 1.368 . S
C2643 C2627 1.349 . S
C2643 H2635 0.950 . S
C2643 C2641 1.327 . S
C2644 C2632 1.349 . S
C2644 H2638 0.950 . S
C2644 C2645 1.327 . S
C2645 H2639 0.950 . S
C2645 C2644 1.327 . S
C2645 C2649 1.429 . S
C2646 C2629 1.574 . S
C2646 H2640 0.949 . S
C2646 C2650 1.368 . S
C2647 C2628 1.429 . S
C2647 C2641 1.429 . S
C2647 C2648 1.523 . S
C2648 C2629 1.368 . S
C2648 C2642 1.368 . S
C2648 C2647 1.523 . S
C2649 C2633 1.429 . S
C2649 C2645 1.429 . S
C2649 C2650 1.523 . S
C2650 C2634 1.368 . S
C2650 C2646 1.368 . S
C2650 C2649 1.523 . S
H2651 C2626 0.950 . S
H2652 C2628 0.950 . S
H2653 C2629 0.949 . S
H2654 C2631 0.950 . S
H2655 C2633 0.950 . S
C2656 C2657 1.349 . S
C2656 C2658 1.327 . S
C2656 H2681 0.950 . S
C2657 C2656 1.349 . S
C2657 C2673 1.349 . S
C2658 C2656 1.327 . S
C2658 C2677 1.429 . S
C2658 H2682 0.950 . S
C2659 C2676 1.574 . S
C2659 C2678 1.368 . S
C2659 H2683 0.949 . S
H2660 C2664 0.949 . S
C2661 C2662 1.349 . S
C2661 C2663 1.327 . S
C2661 H2684 0.950 . S
C2662 C2661 1.349 . S
C2662 C2674 1.349 . S
C2663 C2661 1.327 . S
C2663 C2679 1.429 . S
C2663 H2685 0.950 . S
C2664 H2660 0.949 . S
C2664 C2672 1.574 . S
C2664 C2680 1.368 . S
H2665 C2673 0.950 . S
H2666 C2671 0.950 . S
H2667 C2672 0.949 . S
H2668 C2674 0.950 . S
H2669 C2675 0.950 . S
H2670 C2676 0.949 . S
C2671 H2666 0.950 . S
C2671 C2673 1.327 . S
C2671 C2677 1.429 . S
C2672 C2664 1.574 . S
C2672 H2667 0.949 . S
C2672 C2678 1.368 . S
C2673 C2657 1.349 . S
C2673 H2665 0.950 . S
C2673 C2671 1.327 . S
C2674 C2662 1.349 . S
C2674 H2668 0.950 . S
C2674 C2675 1.327 . S
C2675 H2669 0.950 . S
C2675 C2674 1.327 . S
C2675 C2679 1.429 . S
C2676 C2659 1.574 . S
C2676 H2670 0.949 . S
C2676 C2680 1.368 . S
C2677 C2658 1.429 . S
C2677 C2671 1.429 . S
C2677 C2678 1.523 . S
C2678 C2659 1.368 . S
C2678 C2672 1.368 . S
C2678 C2677 1.523 . S
C2679 C2663 1.429 . S
C2679 C2675 1.429 . S
C2679 C2680 1.523 . S
C2680 C2664 1.368 . S
C2680 C2676 1.368 . S
C2680 C2679 1.523 . S
H2681 C2656 0.950 . S
H2682 C2658 0.950 . S
H2683 C2659 0.949 . S
H2684 C2661 0.950 . S
H2685 C2663 0.950 . S
C2686 C2687 1.349 . S
C2686 C2688 1.327 . S
C2686 H2711 0.950 . S
C2687 C2686 1.349 . S
C2687 C2703 1.349 . S
C2688 C2686 1.327 . S
C2688 C2707 1.429 . S
C2688 H2712 0.950 . S
C2689 C2706 1.574 . S
C2689 C2708 1.368 1_545 S
C2689 H2713 0.949 . S
H2690 C2694 0.949 . S
C2691 C2692 1.349 1_545 S
C2691 C2693 1.327 . S
C2691 H2714 0.950 . S
C2692 C2691 1.349 1_565 S
C2692 C2704 1.349 . S
C2693 C2691 1.327 . S
C2693 C2709 1.429 1_545 S
C2693 H2715 0.950 . S
C2694 H2690 0.949 . S
C2694 C2702 1.574 1_655 S
C2694 C2710 1.368 . S
H2695 C2703 0.950 1_545 S
H2696 C2701 0.950 1_545 S
H2697 C2702 0.949 . S
H2698 C2704 0.950 . S
H2699 C2705 0.950 . S
H2700 C2706 0.949 . S
C2701 H2696 0.950 1_565 S
C2701 C2703 1.327 . S
C2701 C2707 1.429 . S
C2702 C2694 1.574 1_455 S
C2702 H2697 0.949 . S
C2702 C2708 1.368 . S
C2703 C2687 1.349 . S
C2703 H2695 0.950 1_565 S
C2703 C2701 1.327 . S
C2704 C2692 1.349 . S
C2704 H2698 0.950 . S
C2704 C2705 1.327 . S
C2705 H2699 0.950 . S
C2705 C2704 1.327 . S
C2705 C2709 1.429 . S
C2706 C2689 1.574 . S
C2706 H2700 0.949 . S
C2706 C2710 1.368 1_445 S
C2707 C2688 1.429 . S
C2707 C2701 1.429 . S
C2707 C2708 1.523 . S
C2708 C2689 1.368 1_565 S
C2708 C2702 1.368 . S
C2708 C2707 1.523 . S
C2709 C2693 1.429 1_565 S
C2709 C2705 1.429 . S
C2709 C2710 1.523 . S
C2710 C2694 1.368 . S
C2710 C2706 1.368 1_665 S
C2710 C2709 1.523 . S
H2711 C2686 0.950 . S
H2712 C2688 0.950 . S
H2713 C2689 0.949 . S
H2714 C2691 0.950 . S
H2715 C2693 0.950 . S
C2716 C2717 1.349 . S
C2716 C2718 1.327 . S
C2716 H2741 0.950 . S
C2717 C2716 1.349 . S
C2717 C2733 1.349 . S
C2718 C2716 1.327 . S
C2718 C2737 1.429 . S
C2718 H2742 0.950 . S
C2719 C2736 1.574 . S
C2719 C2738 1.368 . S
C2719 H2743 0.949 . S
H2720 C2724 0.949 . S
C2721 C2722 1.349 . S
C2721 C2723 1.327 . S
C2721 H2744 0.950 . S
C2722 C2721 1.349 . S
C2722 C2734 1.349 . S
C2723 C2721 1.327 . S
C2723 C2739 1.429 . S
C2723 H2745 0.950 . S
C2724 H2720 0.949 . S
C2724 C2732 1.574 . S
C2724 C2740 1.368 . S
H2725 C2733 0.950 . S
H2726 C2731 0.950 . S
H2727 C2732 0.949 . S
H2728 C2734 0.950 . S
H2729 C2735 0.950 . S
H2730 C2736 0.949 . S
C2731 H2726 0.950 . S
C2731 C2733 1.327 . S
C2731 C2737 1.429 . S
C2732 C2724 1.574 . S
C2732 H2727 0.949 . S
C2732 C2738 1.368 . S
C2733 C2717 1.349 . S
C2733 H2725 0.950 . S
C2733 C2731 1.327 . S
C2734 C2722 1.349 . S
C2734 H2728 0.950 . S
C2734 C2735 1.327 . S
C2735 H2729 0.950 . S
C2735 C2734 1.327 . S
C2735 C2739 1.429 . S
C2736 C2719 1.574 . S
C2736 H2730 0.949 . S
C2736 C2740 1.368 . S
C2737 C2718 1.429 . S
C2737 C2731 1.429 . S
C2737 C2738 1.523 . S
C2738 C2719 1.368 . S
C2738 C2732 1.368 . S
C2738 C2737 1.523 . S
C2739 C2723 1.429 . S
C2739 C2735 1.429 . S
C2739 C2740 1.523 . S
C2740 C2724 1.368 . S
C2740 C2736 1.368 . S
C2740 C2739 1.523 . S
H2741 C2716 0.950 . S
H2742 C2718 0.950 . S
H2743 C2719 0.949 . S
H2744 C2721 0.950 . S
H2745 C2723 0.950 . S
C2746 C2747 1.349 . S
C2746 C2748 1.327 . S
C2746 H2771 0.950 . S
C2747 C2746 1.349 . S
C2747 C2763 1.349 . S
C2748 C2746 1.327 . S
C2748 C2767 1.429 . S
C2748 H2772 0.950 . S
C2749 C2766 1.577 1_554 S
C2749 C2768 1.339 1_565 S
C2749 H2773 0.974 . S
H2750 C2754 0.951 1_556 S
C2751 C2752 1.349 1_565 S
C2751 C2753 1.327 . S
C2751 H2774 0.950 . S
C2752 C2751 1.349 1_545 S
C2752 C2764 1.349 . S
C2753 C2751 1.327 . S
C2753 C2769 1.429 1_565 S
C2753 H2775 0.950 . S
C2754 H2750 0.951 1_554 S
C2754 C2762 1.574 . S
C2754 C2770 1.368 1_554 S
H2755 C2763 0.950 1_565 S
H2756 C2761 0.950 1_565 S
H2757 C2762 0.949 . S
H2758 C2764 0.950 . S
H2759 C2765 0.950 . S
H2760 C2766 0.949 . S
C2761 H2756 0.950 1_545 S
C2761 C2763 1.327 . S
C2761 C2767 1.429 . S
C2762 C2754 1.574 . S
C2762 H2757 0.949 . S
C2762 C2768 1.368 . S
C2763 C2747 1.349 . S
C2763 H2755 0.950 1_545 S
C2763 C2761 1.327 . S
C2764 C2752 1.349 . S
C2764 H2758 0.950 . S
C2764 C2765 1.327 . S
C2765 H2759 0.950 . S
C2765 C2764 1.327 . S
C2765 C2769 1.429 . S
C2766 C2749 1.577 1_556 S
C2766 H2760 0.949 . S
C2766 C2770 1.368 1_565 S
C2767 C2748 1.429 . S
C2767 C2761 1.429 . S
C2767 C2768 1.523 . S
C2768 C2749 1.339 1_545 S
C2768 C2762 1.368 . S
C2768 C2767 1.523 . S
C2769 C2753 1.429 1_545 S
C2769 C2765 1.429 . S
C2769 C2770 1.523 . S
C2770 C2754 1.368 1_556 S
C2770 C2766 1.368 1_545 S
C2770 C2769 1.523 . S
H2771 C2746 0.950 . S
H2772 C2748 0.950 . S
H2773 C2749 0.974 . S
H2774 C2751 0.950 . S
H2775 C2753 0.950 . S
C2776 C2777 1.349 . S
C2776 C2778 1.327 . S
C2776 H2801 0.950 . S
C2777 C2776 1.349 . S
C2777 C2793 1.349 . S
C2778 C2776 1.327 . S
C2778 C2797 1.429 . S
C2778 H2802 0.950 . S
C2779 C2796 1.574 . S
C2779 C2798 1.368 . S
C2779 H2803 0.949 . S
H2780 C2784 0.949 . S
C2781 C2782 1.349 . S
C2781 C2783 1.327 . S
C2781 H2804 0.950 . S
C2782 C2781 1.349 . S
C2782 C2794 1.349 . S
C2783 C2781 1.327 . S
C2783 C2799 1.429 . S
C2783 H2805 0.950 . S
C2784 H2780 0.949 . S
C2784 C2792 1.574 . S
C2784 C2800 1.368 . S
H2785 C2793 0.950 . S
H2786 C2791 0.950 . S
H2787 C2792 0.949 . S
H2788 C2794 0.950 . S
H2789 C2795 0.950 . S
H2790 C2796 0.949 . S
C2791 H2786 0.950 . S
C2791 C2793 1.327 . S
C2791 C2797 1.429 . S
C2792 C2784 1.574 . S
C2792 H2787 0.949 . S
C2792 C2798 1.368 . S
C2793 C2777 1.349 . S
C2793 H2785 0.950 . S
C2793 C2791 1.327 . S
C2794 C2782 1.349 . S
C2794 H2788 0.950 . S
C2794 C2795 1.327 . S
C2795 H2789 0.950 . S
C2795 C2794 1.327 . S
C2795 C2799 1.429 . S
C2796 C2779 1.574 . S
C2796 H2790 0.949 . S
C2796 C2800 1.368 . S
C2797 C2778 1.429 . S
C2797 C2791 1.429 . S
C2797 C2798 1.523 . S
C2798 C2779 1.368 . S
C2798 C2792 1.368 . S
C2798 C2797 1.523 . S
C2799 C2783 1.429 . S
C2799 C2795 1.429 . S
C2799 C2800 1.523 . S
C2800 C2784 1.368 . S
C2800 C2796 1.368 . S
C2800 C2799 1.523 . S
H2801 C2776 0.950 . S
H2802 C2778 0.950 . S
H2803 C2779 0.949 . S
H2804 C2781 0.950 . S
H2805 C2783 0.950 . S
C2806 C2807 1.349 . S
C2806 C2808 1.327 . S
C2806 H2831 0.950 . S
C2807 C2806 1.349 . S
C2807 C2823 1.349 . S
C2808 C2806 1.327 . S
C2808 C2827 1.429 . S
C2808 H2832 0.950 . S
C2809 C2826 1.573 1_565 S
C2809 C2828 1.381 . S
C2809 H2833 0.938 1_565 S
H2810 C2814 0.949 . S
C2811 C2812 1.349 1_545 S
C2811 C2813 1.327 . S
C2811 H2834 0.950 . S
C2812 C2811 1.349 1_565 S
C2812 C2824 1.349 . S
C2813 C2811 1.327 . S
C2813 C2829 1.429 1_545 S
C2813 H2835 0.950 . S
C2814 H2810 0.949 . S
C2814 C2822 1.574 . S
C2814 C2830 1.368 . S
H2815 C2823 0.950 1_545 S
H2816 C2821 0.950 1_545 S
H2817 C2822 0.949 . S
H2818 C2824 0.950 . S
H2819 C2825 0.950 . S
H2820 C2826 0.949 . S
C2821 H2816 0.950 1_565 S
C2821 C2823 1.327 . S
C2821 C2827 1.429 . S
C2822 C2814 1.574 . S
C2822 H2817 0.949 . S
C2822 C2828 1.368 . S
C2823 C2807 1.349 . S
C2823 H2815 0.950 1_565 S
C2823 C2821 1.327 . S
C2824 C2812 1.349 . S
C2824 H2818 0.950 . S
C2824 C2825 1.327 . S
C2825 H2819 0.950 . S
C2825 C2824 1.327 . S
C2825 C2829 1.429 . S
C2826 C2809 1.573 1_545 S
C2826 H2820 0.949 . S
C2826 C2830 1.368 1_545 S
C2827 C2808 1.429 . S
C2827 C2821 1.429 . S
C2827 C2828 1.523 . S
C2828 C2809 1.381 . S
C2828 C2822 1.368 . S
C2828 C2827 1.523 . S
C2829 C2813 1.429 1_565 S
C2829 C2825 1.429 . S
C2829 C2830 1.523 . S
C2830 C2814 1.368 . S
C2830 C2826 1.368 1_565 S
C2830 C2829 1.523 . S
H2831 C2806 0.950 . S
H2832 C2808 0.950 . S
H2833 C2809 0.938 1_545 S
H2834 C2811 0.950 . S
H2835 C2813 0.950 . S
C2836 C2837 1.349 . S
C2836 C2838 1.327 . S
C2836 H2861 0.950 . S
C2837 C2836 1.349 . S
C2837 C2853 1.349 . S
C2838 C2836 1.327 . S
C2838 C2857 1.429 . S
C2838 H2862 0.950 . S
C2839 C2856 1.574 . S
C2839 C2858 1.368 . S
C2839 H2863 0.949 . S
H2840 C2844 0.949 . S
C2841 C2842 1.349 . S
C2841 C2843 1.327 . S
C2841 H2864 0.950 . S
C2842 C2841 1.349 . S
C2842 C2854 1.349 . S
C2843 C2841 1.327 . S
C2843 C2859 1.429 . S
C2843 H2865 0.950 . S
C2844 H2840 0.949 . S
C2844 C2852 1.574 . S
C2844 C2860 1.368 . S
H2845 C2853 0.950 . S
H2846 C2851 0.950 . S
H2847 C2852 0.949 . S
H2848 C2854 0.950 . S
H2849 C2855 0.950 . S
H2850 C2856 0.949 . S
C2851 H2846 0.950 . S
C2851 C2853 1.327 . S
C2851 C2857 1.429 . S
C2852 C2844 1.574 . S
C2852 H2847 0.949 . S
C2852 C2858 1.368 . S
C2853 C2837 1.349 . S
C2853 H2845 0.950 . S
C2853 C2851 1.327 . S
C2854 C2842 1.349 . S
C2854 H2848 0.950 . S
C2854 C2855 1.327 . S
C2855 H2849 0.950 . S
C2855 C2854 1.327 . S
C2855 C2859 1.429 . S
C2856 C2839 1.574 . S
C2856 H2850 0.949 . S
C2856 C2860 1.368 . S
C2857 C2838 1.429 . S
C2857 C2851 1.429 . S
C2857 C2858 1.523 . S
C2858 C2839 1.368 . S
C2858 C2852 1.368 . S
C2858 C2857 1.523 . S
C2859 C2843 1.429 . S
C2859 C2855 1.429 . S
C2859 C2860 1.523 . S
C2860 C2844 1.368 . S
C2860 C2856 1.368 . S
C2860 C2859 1.523 . S
H2861 C2836 0.950 . S
H2862 C2838 0.950 . S
H2863 C2839 0.949 . S
H2864 C2841 0.950 . S
H2865 C2843 0.950 . S
C2866 C2867 1.349 . S
C2866 C2868 1.327 . S
C2866 H2891 0.950 . S
C2867 C2866 1.349 . S
C2867 C2883 1.349 . S
C2868 C2866 1.327 . S
C2868 C2887 1.429 . S
C2868 H2892 0.950 . S
C2869 C2886 1.576 1_556 S
C2869 C2888 1.343 1_565 S
C2869 H2893 0.971 . S
H2870 C2874 0.947 . S
C2871 C2872 1.349 1_565 S
C2871 C2873 1.327 . S
C2871 H2894 0.950 . S
C2872 C2871 1.349 1_545 S
C2872 C2884 1.349 . S
C2873 C2871 1.327 . S
C2873 C2889 1.429 1_565 S
C2873 H2895 0.950 . S
C2874 H2870 0.947 . S
C2874 C2882 1.574 1_655 S
C2874 C2890 1.368 1_556 S
H2875 C2883 0.950 1_565 S
H2876 C2881 0.950 1_565 S
H2877 C2882 0.949 . S
H2878 C2884 0.950 . S
H2879 C2885 0.950 . S
H2880 C2886 0.949 . S
C2881 H2876 0.950 1_545 S
C2881 C2883 1.327 . S
C2881 C2887 1.429 . S
C2882 C2874 1.574 1_455 S
C2882 H2877 0.949 . S
C2882 C2888 1.368 . S
C2883 C2867 1.349 . S
C2883 H2875 0.950 1_545 S
C2883 C2881 1.327 . S
C2884 C2872 1.349 . S
C2884 H2878 0.950 . S
C2884 C2885 1.327 . S
C2885 H2879 0.950 . S
C2885 C2884 1.327 . S
C2885 C2889 1.429 . S
C2886 C2869 1.576 1_554 S
C2886 H2880 0.949 . S
C2886 C2890 1.368 1_465 S
C2887 C2868 1.429 . S
C2887 C2881 1.429 . S
C2887 C2888 1.523 . S
C2888 C2869 1.343 1_545 S
C2888 C2882 1.368 . S
C2888 C2887 1.523 . S
C2889 C2873 1.429 1_545 S
C2889 C2885 1.429 . S
C2889 C2890 1.523 . S
C2890 C2874 1.368 1_554 S
C2890 C2886 1.368 1_645 S
C2890 C2889 1.523 . S
H2891 C2866 0.950 . S
H2892 C2868 0.950 . S
H2893 C2869 0.971 . S
H2894 C2871 0.950 . S
H2895 C2873 0.950 . S
C2896 C2897 1.349 . S
C2896 C2898 1.327 . S
C2896 H2921 0.950 . S
C2897 C2896 1.349 . S
C2897 C2913 1.349 . S
C2898 C2896 1.327 . S
C2898 C2917 1.429 . S
C2898 H2922 0.950 . S
C2899 C2916 1.574 . S
C2899 C2918 1.368 . S
C2899 H2923 0.949 . S
H2900 C2904 0.949 . S
C2901 C2902 1.349 . S
C2901 C2903 1.327 . S
C2901 H2924 0.950 . S
C2902 C2901 1.349 . S
C2902 C2914 1.349 . S
C2903 C2901 1.327 . S
C2903 C2919 1.429 . S
C2903 H2925 0.950 . S
C2904 H2900 0.949 . S
C2904 C2912 1.574 . S
C2904 C2920 1.368 . S
H2905 C2913 0.950 . S
H2906 C2911 0.950 . S
H2907 C2912 0.949 . S
H2908 C2914 0.950 . S
H2909 C2915 0.950 . S
H2910 C2916 0.949 . S
C2911 H2906 0.950 . S
C2911 C2913 1.327 . S
C2911 C2917 1.429 . S
C2912 C2904 1.574 . S
C2912 H2907 0.949 . S
C2912 C2918 1.368 . S
C2913 C2897 1.349 . S
C2913 H2905 0.950 . S
C2913 C2911 1.327 . S
C2914 C2902 1.349 . S
C2914 H2908 0.950 . S
C2914 C2915 1.327 . S
C2915 H2909 0.950 . S
C2915 C2914 1.327 . S
C2915 C2919 1.429 . S
C2916 C2899 1.574 . S
C2916 H2910 0.949 . S
C2916 C2920 1.368 . S
C2917 C2898 1.429 . S
C2917 C2911 1.429 . S
C2917 C2918 1.523 . S
C2918 C2899 1.368 . S
C2918 C2912 1.368 . S
C2918 C2917 1.523 . S
C2919 C2903 1.429 . S
C2919 C2915 1.429 . S
C2919 C2920 1.523 . S
C2920 C2904 1.368 . S
C2920 C2916 1.368 . S
C2920 C2919 1.523 . S
H2921 C2896 0.950 . S
H2922 C2898 0.950 . S
H2923 C2899 0.949 . S
H2924 C2901 0.950 . S
H2925 C2903 0.950 . S
C2926 C2927 1.349 . S
C2926 C2928 1.327 . S
C2926 H2951 0.950 . S
C2927 C2926 1.349 . S
C2927 C2943 1.349 . S
C2928 C2926 1.327 . S
C2928 C2947 1.429 . S
C2928 H2952 0.950 . S
C2929 C2946 1.574 . S
C2929 C2948 1.368 . S
C2929 H2953 0.949 . S
H2930 C2934 0.949 . S
C2931 C2932 1.349 . S
C2931 C2933 1.327 . S
C2931 H2954 0.950 . S
C2932 C2931 1.349 . S
C2932 C2944 1.349 . S
C2933 C2931 1.327 . S
C2933 C2949 1.429 . S
C2933 H2955 0.950 . S
C2934 H2930 0.949 . S
C2934 C2942 1.574 . S
C2934 C2950 1.368 . S
H2935 C2943 0.950 . S
H2936 C2941 0.950 . S
H2937 C2942 0.949 . S
H2938 C2944 0.950 . S
H2939 C2945 0.950 . S
H2940 C2946 0.949 . S
C2941 H2936 0.950 . S
C2941 C2943 1.327 . S
C2941 C2947 1.429 . S
C2942 C2934 1.574 . S
C2942 H2937 0.949 . S
C2942 C2948 1.368 . S
C2943 C2927 1.349 . S
C2943 H2935 0.950 . S
C2943 C2941 1.327 . S
C2944 C2932 1.349 . S
C2944 H2938 0.950 . S
C2944 C2945 1.327 . S
C2945 H2939 0.950 . S
C2945 C2944 1.327 . S
C2945 C2949 1.429 . S
C2946 C2929 1.574 . S
C2946 H2940 0.949 . S
C2946 C2950 1.368 . S
C2947 C2928 1.429 . S
C2947 C2941 1.429 . S
C2947 C2948 1.523 . S
C2948 C2929 1.368 . S
C2948 C2942 1.368 . S
C2948 C2947 1.523 . S
C2949 C2933 1.429 . S
C2949 C2945 1.429 . S
C2949 C2950 1.523 . S
C2950 C2934 1.368 . S
C2950 C2946 1.368 . S
C2950 C2949 1.523 . S
H2951 C2926 0.950 . S
H2952 C2928 0.950 . S
H2953 C2929 0.949 . S
H2954 C2931 0.950 . S
H2955 C2933 0.950 . S
C2956 C2957 1.349 . S
C2956 C2958 1.327 . S
C2956 H2981 0.950 . S
C2957 C2956 1.349 . S
C2957 C2973 1.349 . S
C2958 C2956 1.327 . S
C2958 C2977 1.429 . S
C2958 H2982 0.950 . S
C2959 C2976 1.574 . S
C2959 C2978 1.368 . S
C2959 H2983 0.949 . S
H2960 C2964 0.949 . S
C2961 C2962 1.349 . S
C2961 C2963 1.327 . S
C2961 H2984 0.950 . S
C2962 C2961 1.349 . S
C2962 C2974 1.349 . S
C2963 C2961 1.327 . S
C2963 C2979 1.429 . S
C2963 H2985 0.950 . S
C2964 H2960 0.949 . S
C2964 C2972 1.574 . S
C2964 C2980 1.368 . S
H2965 C2973 0.950 . S
H2966 C2971 0.950 . S
H2967 C2972 0.949 . S
H2968 C2974 0.950 . S
H2969 C2975 0.950 . S
H2970 C2976 0.949 . S
C2971 H2966 0.950 . S
C2971 C2973 1.327 . S
C2971 C2977 1.429 . S
C2972 C2964 1.574 . S
C2972 H2967 0.949 . S
C2972 C2978 1.368 . S
C2973 C2957 1.349 . S
C2973 H2965 0.950 . S
C2973 C2971 1.327 . S
C2974 C2962 1.349 . S
C2974 H2968 0.950 . S
C2974 C2975 1.327 . S
C2975 H2969 0.950 . S
C2975 C2974 1.327 . S
C2975 C2979 1.429 . S
C2976 C2959 1.574 . S
C2976 H2970 0.949 . S
C2976 C2980 1.368 . S
C2977 C2958 1.429 . S
C2977 C2971 1.429 . S
C2977 C2978 1.523 . S
C2978 C2959 1.368 . S
C2978 C2972 1.368 . S
C2978 C2977 1.523 . S
C2979 C2963 1.429 . S
C2979 C2975 1.429 . S
C2979 C2980 1.523 . S
C2980 C2964 1.368 . S
C2980 C2976 1.368 . S
C2980 C2979 1.523 . S
H2981 C2956 0.950 . S
H2982 C2958 0.950 . S
H2983 C2959 0.949 . S
H2984 C2961 0.950 . S
H2985 C2963 0.950 . S
C2986 C2987 1.349 . S
C2986 C2988 1.327 . S
C2986 H3011 0.950 . S
C2987 C2986 1.349 . S
C2987 C3003 1.349 . S
C2988 C2986 1.327 . S
C2988 C3007 1.429 . S
C2988 H3012 0.950 . S
C2989 C3006 1.574 . S
C2989 C3008 1.368 . S
C2989 H3013 0.949 . S
H2990 C2994 0.949 . S
C2991 C2992 1.349 . S
C2991 C2993 1.327 . S
C2991 H3014 0.950 . S
C2992 C2991 1.349 . S
C2992 C3004 1.349 . S
C2993 C2991 1.327 . S
C2993 C3009 1.429 . S
C2993 H3015 0.950 . S
C2994 H2990 0.949 . S
C2994 C3002 1.574 . S
C2994 C3010 1.368 . S
H2995 C3003 0.950 . S
H2996 C3001 0.950 . S
H2997 C3002 0.949 . S
H2998 C3004 0.950 . S
H2999 C3005 0.950 . S
H3000 C3006 0.949 . S
C3001 H2996 0.950 . S
C3001 C3003 1.327 . S
C3001 C3007 1.429 . S
C3002 C2994 1.574 . S
C3002 H2997 0.949 . S
C3002 C3008 1.368 . S
C3003 C2987 1.349 . S
C3003 H2995 0.950 . S
C3003 C3001 1.327 . S
C3004 C2992 1.349 . S
C3004 H2998 0.950 . S
C3004 C3005 1.327 . S
C3005 H2999 0.950 . S
C3005 C3004 1.327 . S
C3005 C3009 1.429 . S
C3006 C2989 1.574 . S
C3006 H3000 0.949 . S
C3006 C3010 1.368 . S
C3007 C2988 1.429 . S
C3007 C3001 1.429 . S
C3007 C3008 1.523 . S
C3008 C2989 1.368 . S
C3008 C3002 1.368 . S
C3008 C3007 1.523 . S
C3009 C2993 1.429 . S
C3009 C3005 1.429 . S
C3009 C3010 1.523 . S
C3010 C2994 1.368 . S
C3010 C3006 1.368 . S
C3010 C3009 1.523 . S
H3011 C2986 0.950 . S
H3012 C2988 0.950 . S
H3013 C2989 0.949 . S
H3014 C2991 0.950 . S
H3015 C2993 0.950 . S
C3016 C3017 1.349 . S
C3016 C3018 1.327 . S
C3016 H3041 0.950 . S
C3017 C3016 1.349 . S
C3017 C3033 1.349 . S
C3018 C3016 1.327 . S
C3018 C3037 1.429 . S
C3018 H3042 0.950 . S
C3019 C3036 1.574 1_554 S
C3019 C3038 1.368 . S
C3019 H3043 0.949 . S
H3020 C3024 0.941 1_556 S
C3021 C3022 1.349 . S
C3021 C3023 1.327 . S
C3021 H3044 0.950 . S
C3022 C3021 1.349 . S
C3022 C3034 1.349 . S
C3023 C3021 1.327 . S
C3023 C3039 1.429 . S
C3023 H3045 0.950 . S
C3024 H3020 0.941 1_554 S
C3024 C3032 1.574 . S
C3024 C3040 1.368 1_554 S
H3025 C3033 0.950 . S
H3026 C3031 0.950 . S
H3027 C3032 0.949 . S
H3028 C3034 0.950 . S
H3029 C3035 0.950 . S
H3030 C3036 0.949 . S
C3031 H3026 0.950 . S
C3031 C3033 1.327 . S
C3031 C3037 1.429 . S
C3032 C3024 1.574 . S
C3032 H3027 0.949 . S
C3032 C3038 1.368 . S
C3033 C3017 1.349 . S
C3033 H3025 0.950 . S
C3033 C3031 1.327 . S
C3034 C3022 1.349 . S
C3034 H3028 0.950 . S
C3034 C3035 1.327 . S
C3035 H3029 0.950 . S
C3035 C3034 1.327 . S
C3035 C3039 1.429 . S
C3036 C3019 1.574 1_556 S
C3036 H3030 0.949 . S
C3036 C3040 1.368 . S
C3037 C3018 1.429 . S
C3037 C3031 1.429 . S
C3037 C3038 1.523 . S
C3038 C3019 1.368 . S
C3038 C3032 1.368 . S
C3038 C3037 1.523 . S
C3039 C3023 1.429 . S
C3039 C3035 1.429 . S
C3039 C3040 1.523 . S
C3040 C3024 1.368 1_556 S
C3040 C3036 1.368 . S
C3040 C3039 1.523 . S
H3041 C3016 0.950 . S
H3042 C3018 0.950 . S
H3043 C3019 0.949 . S
H3044 C3021 0.950 . S
H3045 C3023 0.950 . S
C3046 C3047 1.349 . S
C3046 C3048 1.327 . S
C3046 H3071 0.950 . S
C3047 C3046 1.349 . S
C3047 C3063 1.349 . S
C3048 C3046 1.327 . S
C3048 C3067 1.429 . S
C3048 H3072 0.950 . S
C3049 C3066 1.574 1_455 S
C3049 C3068 1.368 . S
C3049 H3073 0.949 . S
H3050 C3054 0.949 . S
C3051 C3052 1.349 . S
C3051 C3053 1.327 . S
C3051 H3074 0.950 . S
C3052 C3051 1.349 . S
C3052 C3064 1.349 . S
C3053 C3051 1.327 . S
C3053 C3069 1.429 . S
C3053 H3075 0.950 . S
C3054 H3050 0.949 . S
C3054 C3062 1.574 . S
C3054 C3070 1.368 . S
H3055 C3063 0.950 . S
H3056 C3061 0.950 . S
H3057 C3062 0.949 . S
H3058 C3064 0.950 . S
H3059 C3065 0.950 . S
H3060 C3066 0.949 . S
C3061 H3056 0.950 . S
C3061 C3063 1.327 . S
C3061 C3067 1.429 . S
C3062 C3054 1.574 . S
C3062 H3057 0.949 . S
C3062 C3068 1.368 1_655 S
C3063 C3047 1.349 . S
C3063 H3055 0.950 . S
C3063 C3061 1.327 . S
C3064 C3052 1.349 . S
C3064 H3058 0.950 . S
C3064 C3065 1.327 . S
C3065 H3059 0.950 . S
C3065 C3064 1.327 . S
C3065 C3069 1.429 . S
C3066 C3049 1.574 1_655 S
C3066 H3060 0.949 . S
C3066 C3070 1.368 . S
C3067 C3048 1.429 . S
C3067 C3061 1.429 . S
C3067 C3068 1.523 . S
C3068 C3049 1.368 . S
C3068 C3062 1.368 1_455 S
C3068 C3067 1.523 . S
C3069 C3053 1.429 . S
C3069 C3065 1.429 . S
C3069 C3070 1.523 . S
C3070 C3054 1.368 . S
C3070 C3066 1.368 . S
C3070 C3069 1.523 . S
H3071 C3046 0.950 . S
H3072 C3048 0.950 . S
H3073 C3049 0.949 . S
H3074 C3051 0.950 . S
H3075 C3053 0.950 . S
C3076 C3077 1.349 . S
C3076 C3078 1.327 . S
C3076 H3101 0.950 . S
C3077 C3076 1.349 . S
C3077 C3093 1.349 . S
C3078 C3076 1.327 . S
C3078 C3097 1.429 . S
C3078 H3102 0.950 . S
C3079 C3096 1.574 1_455 S
C3079 C3098 1.368 1_556 S
C3079 H3103 0.949 . S
H3080 C3084 0.949 . S
C3081 C3082 1.349 . S
C3081 C3083 1.327 . S
C3081 H3104 0.950 . S
C3082 C3081 1.349 . S
C3082 C3094 1.349 . S
C3083 C3081 1.327 . S
C3083 C3099 1.429 . S
C3083 H3105 0.950 . S
C3084 H3080 0.949 . S
C3084 C3092 1.574 1_556 S
C3084 C3100 1.368 . S
H3085 C3093 0.950 . S
H3086 C3091 0.950 . S
H3087 C3092 0.949 . S
H3088 C3094 0.950 . S
H3089 C3095 0.950 . S
H3090 C3096 0.949 . S
C3091 H3086 0.950 . S
C3091 C3093 1.327 . S
C3091 C3097 1.429 . S
C3092 C3084 1.574 1_554 S
C3092 H3087 0.949 . S
C3092 C3098 1.368 1_655 S
C3093 C3077 1.349 . S
C3093 H3085 0.950 . S
C3093 C3091 1.327 . S
C3094 C3082 1.349 . S
C3094 H3088 0.950 . S
C3094 C3095 1.327 . S
C3095 H3089 0.950 . S
C3095 C3094 1.327 . S
C3095 C3099 1.429 . S
C3096 C3079 1.574 1_655 S
C3096 H3090 0.949 . S
C3096 C3100 1.368 . S
C3097 C3078 1.429 . S
C3097 C3091 1.429 . S
C3097 C3098 1.523 . S
C3098 C3079 1.368 1_554 S
C3098 C3092 1.368 1_455 S
C3098 C3097 1.523 . S
C3099 C3083 1.429 . S
C3099 C3095 1.429 . S
C3099 C3100 1.523 . S
C3100 C3084 1.368 . S
C3100 C3096 1.368 . S
C3100 C3099 1.523 . S
H3101 C3076 0.950 . S
H3102 C3078 0.950 . S
H3103 C3079 0.949 . S
H3104 C3081 0.950 . S
H3105 C3083 0.950 . S
C3106 C3107 1.349 . S
C3106 C3108 1.327 . S
C3106 H3131 0.950 . S
C3107 C3106 1.349 . S
C3107 C3123 1.349 . S
C3108 C3106 1.327 . S
C3108 C3127 1.429 . S
C3108 H3132 0.950 . S
C3109 C3126 1.574 . S
C3109 C3128 1.368 . S
C3109 H3133 0.949 . S
H3110 C3114 0.949 . S
C3111 C3112 1.349 . S
C3111 C3113 1.327 . S
C3111 H3134 0.950 . S
C3112 C3111 1.349 . S
C3112 C3124 1.349 . S
C3113 C3111 1.327 . S
C3113 C3129 1.429 . S
C3113 H3135 0.950 . S
C3114 H3110 0.949 . S
C3114 C3122 1.574 . S
C3114 C3130 1.368 . S
H3115 C3123 0.950 . S
H3116 C3121 0.950 . S
H3117 C3122 0.949 . S
H3118 C3124 0.950 . S
H3119 C3125 0.950 . S
H3120 C3126 0.949 . S
C3121 H3116 0.950 . S
C3121 C3123 1.327 . S
C3121 C3127 1.429 . S
C3122 C3114 1.574 . S
C3122 H3117 0.949 . S
C3122 C3128 1.368 . S
C3123 C3107 1.349 . S
C3123 H3115 0.950 . S
C3123 C3121 1.327 . S
C3124 C3112 1.349 . S
C3124 H3118 0.950 . S
C3124 C3125 1.327 . S
C3125 H3119 0.950 . S
C3125 C3124 1.327 . S
C3125 C3129 1.429 . S
C3126 C3109 1.574 . S
C3126 H3120 0.949 . S
C3126 C3130 1.368 . S
C3127 C3108 1.429 . S
C3127 C3121 1.429 . S
C3127 C3128 1.523 . S
C3128 C3109 1.368 . S
C3128 C3122 1.368 . S
C3128 C3127 1.523 . S
C3129 C3113 1.429 . S
C3129 C3125 1.429 . S
C3129 C3130 1.523 . S
C3130 C3114 1.368 . S
C3130 C3126 1.368 . S
C3130 C3129 1.523 . S
H3131 C3106 0.950 . S
H3132 C3108 0.950 . S
H3133 C3109 0.949 . S
H3134 C3111 0.950 . S
H3135 C3113 0.950 . S
C3136 C3137 1.349 . S
C3136 C3138 1.327 . S
C3136 H3161 0.950 . S
C3137 C3136 1.349 . S
C3137 C3153 1.349 . S
C3138 C3136 1.327 . S
C3138 C3157 1.429 . S
C3138 H3162 0.950 . S
C3139 C3156 1.574 1_545 S
C3139 C3158 1.368 . S
C3139 H3163 0.949 . S
H3140 C3144 0.949 . S
C3141 C3142 1.349 . S
C3141 C3143 1.327 . S
C3141 H3164 0.950 . S
C3142 C3141 1.349 . S
C3142 C3154 1.349 . S
C3143 C3141 1.327 . S
C3143 C3159 1.429 . S
C3143 H3165 0.950 . S
C3144 H3140 0.949 . S
C3144 C3152 1.574 1_565 S
C3144 C3160 1.368 . S
H3145 C3153 0.950 . S
H3146 C3151 0.950 . S
H3147 C3152 0.949 . S
H3148 C3154 0.950 . S
H3149 C3155 0.950 . S
H3150 C3156 0.949 . S
C3151 H3146 0.950 . S
C3151 C3153 1.327 . S
C3151 C3157 1.429 . S
C3152 C3144 1.574 1_545 S
C3152 H3147 0.949 . S
C3152 C3158 1.368 . S
C3153 C3137 1.349 . S
C3153 H3145 0.950 . S
C3153 C3151 1.327 . S
C3154 C3142 1.349 . S
C3154 H3148 0.950 . S
C3154 C3155 1.327 . S
C3155 H3149 0.950 . S
C3155 C3154 1.327 . S
C3155 C3159 1.429 . S
C3156 C3139 1.574 1_565 S
C3156 H3150 0.949 . S
C3156 C3160 1.368 . S
C3157 C3138 1.429 . S
C3157 C3151 1.429 . S
C3157 C3158 1.523 . S
C3158 C3139 1.368 . S
C3158 C3152 1.368 . S
C3158 C3157 1.523 . S
C3159 C3143 1.429 . S
C3159 C3155 1.429 . S
C3159 C3160 1.523 . S
C3160 C3144 1.368 . S
C3160 C3156 1.368 . S
C3160 C3159 1.523 . S
H3161 C3136 0.950 . S
H3162 C3138 0.950 . S
H3163 C3139 0.949 . S
H3164 C3141 0.950 . S
H3165 C3143 0.950 . S
C3166 C3167 1.349 . S
C3166 C3168 1.327 . S
C3166 H3191 0.950 . S
C3167 C3166 1.349 . S
C3167 C3183 1.349 . S
C3168 C3166 1.327 . S
C3168 C3187 1.429 . S
C3168 H3192 0.950 . S
C3169 C3186 1.574 . S
C3169 C3188 1.368 . S
C3169 H3193 0.949 . S
H3170 C3174 0.949 . S
C3171 C3172 1.349 . S
C3171 C3173 1.327 . S
C3171 H3194 0.950 . S
C3172 C3171 1.349 . S
C3172 C3184 1.349 . S
C3173 C3171 1.327 . S
C3173 C3189 1.429 . S
C3173 H3195 0.950 . S
C3174 H3170 0.949 . S
C3174 C3182 1.574 . S
C3174 C3190 1.368 . S
H3175 C3183 0.950 . S
H3176 C3181 0.950 . S
H3177 C3182 0.949 . S
H3178 C3184 0.950 . S
H3179 C3185 0.950 . S
H3180 C3186 0.949 . S
C3181 H3176 0.950 . S
C3181 C3183 1.327 . S
C3181 C3187 1.429 . S
C3182 C3174 1.574 . S
C3182 H3177 0.949 . S
C3182 C3188 1.368 . S
C3183 C3167 1.349 . S
C3183 H3175 0.950 . S
C3183 C3181 1.327 . S
C3184 C3172 1.349 . S
C3184 H3178 0.950 . S
C3184 C3185 1.327 . S
C3185 H3179 0.950 . S
C3185 C3184 1.327 . S
C3185 C3189 1.429 . S
C3186 C3169 1.574 . S
C3186 H3180 0.949 . S
C3186 C3190 1.368 . S
C3187 C3168 1.429 . S
C3187 C3181 1.429 . S
C3187 C3188 1.523 . S
C3188 C3169 1.368 . S
C3188 C3182 1.368 . S
C3188 C3187 1.523 . S
C3189 C3173 1.429 . S
C3189 C3185 1.429 . S
C3189 C3190 1.523 . S
C3190 C3174 1.368 . S
C3190 C3186 1.368 . S
C3190 C3189 1.523 . S
H3191 C3166 0.950 . S
H3192 C3168 0.950 . S
H3193 C3169 0.949 . S
H3194 C3171 0.950 . S
H3195 C3173 0.950 . S
C3196 C3197 1.349 . S
C3196 C3198 1.327 . S
C3196 H3221 0.950 . S
C3197 C3196 1.349 . S
C3197 C3213 1.349 . S
C3198 C3196 1.327 . S
C3198 C3217 1.429 . S
C3198 H3222 0.950 . S
C3199 C3216 1.574 . S
C3199 C3218 1.368 1_565 S
C3199 H3223 0.949 . S
H3200 C3204 0.949 . S
C3201 C3202 1.349 . S
C3201 C3203 1.327 . S
C3201 H3224 0.950 . S
C3202 C3201 1.349 . S
C3202 C3214 1.349 . S
C3203 C3201 1.327 . S
C3203 C3219 1.429 . S
C3203 H3225 0.950 . S
C3204 H3200 0.949 . S
C3204 C3212 1.574 . S
C3204 C3220 1.368 1_545 S
H3205 C3213 0.950 . S
H3206 C3211 0.950 . S
H3207 C3212 0.949 . S
H3208 C3214 0.950 . S
H3209 C3215 0.950 . S
H3210 C3216 0.949 . S
C3211 H3206 0.950 . S
C3211 C3213 1.327 . S
C3211 C3217 1.429 . S
C3212 C3204 1.574 . S
C3212 H3207 0.949 . S
C3212 C3218 1.368 . S
C3213 C3197 1.349 . S
C3213 H3205 0.950 . S
C3213 C3211 1.327 . S
C3214 C3202 1.349 . S
C3214 H3208 0.950 . S
C3214 C3215 1.327 . S
C3215 H3209 0.950 . S
C3215 C3214 1.327 . S
C3215 C3219 1.429 . S
C3216 C3199 1.574 . S
C3216 H3210 0.949 . S
C3216 C3220 1.368 . S
C3217 C3198 1.429 . S
C3217 C3211 1.429 . S
C3217 C3218 1.523 . S
C3218 C3199 1.368 1_545 S
C3218 C3212 1.368 . S
C3218 C3217 1.523 . S
C3219 C3203 1.429 . S
C3219 C3215 1.429 . S
C3219 C3220 1.523 . S
C3220 C3204 1.368 1_565 S
C3220 C3216 1.368 . S
C3220 C3219 1.523 . S
H3221 C3196 0.950 . S
H3222 C3198 0.950 . S
H3223 C3199 0.949 . S
H3224 C3201 0.950 . S
H3225 C3203 0.950 . S
C3226 C3227 1.349 . S
C3226 C3228 1.327 . S
C3226 H3251 0.950 . S
C3227 C3226 1.349 . S
C3227 C3243 1.349 . S
C3228 C3226 1.327 . S
C3228 C3247 1.429 . S
C3228 H3252 0.950 . S
C3229 C3246 1.574 1_554 S
C3229 C3248 1.368 . S
C3229 H3253 0.949 . S
H3230 C3234 0.949 . S
C3231 C3232 1.349 . S
C3231 C3233 1.327 . S
C3231 H3254 0.950 . S
C3232 C3231 1.349 . S
C3232 C3244 1.349 . S
C3233 C3231 1.327 . S
C3233 C3249 1.429 . S
C3233 H3255 0.950 . S
C3234 H3230 0.949 . S
C3234 C3242 1.574 1_556 S
C3234 C3250 1.368 . S
H3235 C3243 0.950 . S
H3236 C3241 0.950 . S
H3237 C3242 0.949 . S
H3238 C3244 0.950 . S
H3239 C3245 0.950 . S
H3240 C3246 0.949 . S
C3241 H3236 0.950 . S
C3241 C3243 1.327 . S
C3241 C3247 1.429 . S
C3242 C3234 1.574 1_554 S
C3242 H3237 0.949 . S
C3242 C3248 1.368 . S
C3243 C3227 1.349 . S
C3243 H3235 0.950 . S
C3243 C3241 1.327 . S
C3244 C3232 1.349 . S
C3244 H3238 0.950 . S
C3244 C3245 1.327 . S
C3245 H3239 0.950 . S
C3245 C3244 1.327 . S
C3245 C3249 1.429 . S
C3246 C3229 1.574 1_556 S
C3246 H3240 0.949 . S
C3246 C3250 1.368 . S
C3247 C3228 1.429 . S
C3247 C3241 1.429 . S
C3247 C3248 1.523 . S
C3248 C3229 1.368 . S
C3248 C3242 1.368 . S
C3248 C3247 1.523 . S
C3249 C3233 1.429 . S
C3249 C3245 1.429 . S
C3249 C3250 1.523 . S
C3250 C3234 1.368 . S
C3250 C3246 1.368 . S
C3250 C3249 1.523 . S
H3251 C3226 0.950 . S
H3252 C3228 0.950 . S
H3253 C3229 0.949 . S
H3254 C3231 0.950 . S
H3255 C3233 0.950 . S
C3256 C3257 1.349 . S
C3256 C3258 1.327 . S
C3256 H3281 0.950 . S
C3257 C3256 1.349 . S
C3257 C3273 1.349 . S
C3258 C3256 1.327 . S
C3258 C3277 1.429 . S
C3258 H3282 0.950 . S
C3259 C3276 1.574 1_545 S
C3259 C3278 1.368 . S
C3259 H3283 0.949 . S
H3260 C3264 0.949 . S
C3261 C3262 1.349 . S
C3261 C3263 1.327 . S
C3261 H3284 0.950 . S
C3262 C3261 1.349 . S
C3262 C3274 1.349 . S
C3263 C3261 1.327 . S
C3263 C3279 1.429 . S
C3263 H3285 0.950 . S
C3264 H3260 0.949 . S
C3264 C3272 1.574 1_565 S
C3264 C3280 1.368 . S
H3265 C3273 0.950 . S
H3266 C3271 0.950 . S
H3267 C3272 0.949 . S
H3268 C3274 0.950 . S
H3269 C3275 0.950 . S
H3270 C3276 0.949 . S
C3271 H3266 0.950 . S
C3271 C3273 1.327 . S
C3271 C3277 1.429 . S
C3272 C3264 1.574 1_545 S
C3272 H3267 0.949 . S
C3272 C3278 1.368 . S
C3273 C3257 1.349 . S
C3273 H3265 0.950 . S
C3273 C3271 1.327 . S
C3274 C3262 1.349 . S
C3274 H3268 0.950 . S
C3274 C3275 1.327 . S
C3275 H3269 0.950 . S
C3275 C3274 1.327 . S
C3275 C3279 1.429 . S
C3276 C3259 1.574 1_565 S
C3276 H3270 0.949 . S
C3276 C3280 1.368 . S
C3277 C3258 1.429 . S
C3277 C3271 1.429 . S
C3277 C3278 1.523 . S
C3278 C3259 1.368 . S
C3278 C3272 1.368 . S
C3278 C3277 1.523 . S
C3279 C3263 1.429 . S
C3279 C3275 1.429 . S
C3279 C3280 1.523 . S
C3280 C3264 1.368 . S
C3280 C3276 1.368 . S
C3280 C3279 1.523 . S
H3281 C3256 0.950 . S
H3282 C3258 0.950 . S
H3283 C3259 0.949 . S
H3284 C3261 0.950 . S
H3285 C3263 0.950 . S
C3286 C3287 1.330 1_565 S
C3286 C3288 1.328 . S
C3286 H3311 0.968 . S
C3287 C3286 1.330 1_545 S
C3287 C3303 1.349 . S
C3288 C3286 1.328 . S
C3288 C3307 1.429 1_565 S
C3288 H3312 0.950 . S
C3289 C3306 1.574 . S
C3289 C3308 1.368 . S
C3289 H3313 0.949 . S
H3290 C3294 0.949 . S
C3291 C3292 1.349 . S
C3291 C3293 1.327 . S
C3291 H3314 0.950 . S
C3292 C3291 1.349 . S
C3292 C3304 1.330 1_545 S
C3293 C3291 1.327 . S
C3293 C3309 1.429 . S
C3293 H3315 0.950 . S
C3294 H3290 0.949 . S
C3294 C3302 1.574 . S
C3294 C3310 1.368 1_565 S
H3295 C3303 0.950 . S
H3296 C3301 0.950 . S
H3297 C3302 0.949 . S
H3298 C3304 0.968 . S
H3299 C3305 0.950 . S
H3300 C3306 0.949 . S
C3301 H3296 0.950 . S
C3301 C3303 1.327 . S
C3301 C3307 1.429 . S
C3302 C3294 1.574 . S
C3302 H3297 0.949 . S
C3302 C3308 1.368 1_565 S
C3303 C3287 1.349 . S
C3303 H3295 0.950 . S
C3303 C3301 1.327 . S
C3304 C3292 1.330 1_565 S
C3304 H3298 0.968 . S
C3304 C3305 1.328 . S
C3305 H3299 0.950 . S
C3305 C3304 1.328 . S
C3305 C3309 1.429 1_565 S
C3306 C3289 1.574 . S
C3306 H3300 0.949 . S
C3306 C3310 1.368 . S
C3307 C3288 1.429 1_545 S
C3307 C3301 1.429 . S
C3307 C3308 1.523 . S
C3308 C3289 1.368 . S
C3308 C3302 1.368 1_545 S
C3308 C3307 1.523 . S
C3309 C3293 1.429 . S
C3309 C3305 1.429 1_545 S
C3309 C3310 1.523 . S
C3310 C3294 1.368 1_545 S
C3310 C3306 1.368 . S
C3310 C3309 1.523 . S
H3311 C3286 0.968 . S
H3312 C3288 0.950 . S
H3313 C3289 0.949 . S
H3314 C3291 0.950 . S
H3315 C3293 0.950 . S
C3316 C3317 1.349 . S
C3316 C3318 1.327 . S
C3316 H3341 0.950 . S
C3317 C3316 1.349 . S
C3317 C3333 1.349 . S
C3318 C3316 1.327 . S
C3318 C3337 1.429 . S
C3318 H3342 0.950 . S
C3319 C3336 1.574 . S
C3319 C3338 1.368 1_565 S
C3319 H3343 0.949 . S
H3320 C3324 0.949 . S
C3321 C3322 1.349 . S
C3321 C3323 1.327 . S
C3321 H3344 0.950 . S
C3322 C3321 1.349 . S
C3322 C3334 1.349 . S
C3323 C3321 1.327 . S
C3323 C3339 1.429 . S
C3323 H3345 0.950 . S
C3324 H3320 0.949 . S
C3324 C3332 1.574 . S
C3324 C3340 1.368 1_545 S
H3325 C3333 0.950 . S
H3326 C3331 0.950 . S
H3327 C3332 0.949 . S
H3328 C3334 0.950 . S
H3329 C3335 0.950 . S
H3330 C3336 0.949 . S
C3331 H3326 0.950 . S
C3331 C3333 1.327 . S
C3331 C3337 1.429 . S
C3332 C3324 1.574 . S
C3332 H3327 0.949 . S
C3332 C3338 1.368 . S
C3333 C3317 1.349 . S
C3333 H3325 0.950 . S
C3333 C3331 1.327 . S
C3334 C3322 1.349 . S
C3334 H3328 0.950 . S
C3334 C3335 1.327 . S
C3335 H3329 0.950 . S
C3335 C3334 1.327 . S
C3335 C3339 1.429 . S
C3336 C3319 1.574 . S
C3336 H3330 0.949 . S
C3336 C3340 1.368 . S
C3337 C3318 1.429 . S
C3337 C3331 1.429 . S
C3337 C3338 1.523 . S
C3338 C3319 1.368 1_545 S
C3338 C3332 1.368 . S
C3338 C3337 1.523 . S
C3339 C3323 1.429 . S
C3339 C3335 1.429 . S
C3339 C3340 1.523 . S
C3340 C3324 1.368 1_565 S
C3340 C3336 1.368 . S
C3340 C3339 1.523 . S
H3341 C3316 0.950 . S
H3342 C3318 0.950 . S
H3343 C3319 0.949 . S
H3344 C3321 0.950 . S
H3345 C3323 0.950 . S
C3346 C3347 1.330 1_545 S
C3346 C3348 1.328 . S
C3346 H3371 0.968 . S
C3347 C3346 1.330 1_565 S
C3347 C3363 1.349 . S
C3348 C3346 1.328 . S
C3348 C3367 1.429 1_545 S
C3348 H3372 0.950 . S
C3349 C3366 1.581 . S
C3349 C3368 1.368 . S
C3349 H3373 0.949 . S
H3350 C3354 0.949 . S
C3351 C3352 1.349 . S
C3351 C3353 1.327 . S
C3351 H3374 0.950 . S
C3352 C3351 1.349 . S
C3352 C3364 1.330 1_565 S
C3353 C3351 1.327 . S
C3353 C3369 1.429 . S
C3353 H3375 0.950 . S
C3354 H3350 0.949 . S
C3354 C3362 1.581 . S
C3354 C3370 1.368 1_545 S
H3355 C3363 0.950 . S
H3356 C3361 0.950 . S
H3357 C3362 0.949 . S
H3358 C3364 0.968 . S
H3359 C3365 0.950 . S
H3360 C3366 0.949 . S
C3361 H3356 0.950 . S
C3361 C3363 1.327 . S
C3361 C3367 1.429 . S
C3362 C3354 1.581 . S
C3362 H3357 0.949 . S
C3362 C3368 1.361 1_544 S
C3363 C3347 1.349 . S
C3363 H3355 0.950 . S
C3363 C3361 1.327 . S
C3364 C3352 1.330 1_545 S
C3364 H3358 0.968 . S
C3364 C3365 1.328 . S
C3365 H3359 0.950 . S
C3365 C3364 1.328 . S
C3365 C3369 1.429 1_545 S
C3366 C3349 1.581 . S
C3366 H3360 0.949 . S
C3366 C3370 1.361 1_556 S
C3367 C3348 1.429 1_565 S
C3367 C3361 1.429 . S
C3367 C3368 1.523 . S
C3368 C3349 1.368 . S
C3368 C3362 1.361 1_566 S
C3368 C3367 1.523 . S
C3369 C3353 1.429 . S
C3369 C3365 1.429 1_565 S
C3369 C3370 1.523 . S
C3370 C3354 1.368 1_565 S
C3370 C3366 1.361 1_554 S
C3370 C3369 1.523 . S
H3371 C3346 0.968 . S
H3372 C3348 0.950 . S
H3373 C3349 0.949 . S
H3374 C3351 0.950 . S
H3375 C3353 0.950 . S
C3376 C3377 1.349 . S
C3376 C3378 1.327 . S
C3376 H3401 0.950 . S
C3377 C3376 1.349 . S
C3377 C3393 1.349 . S
C3378 C3376 1.327 . S
C3378 C3397 1.429 . S
C3378 H3402 0.950 . S
C3379 C3396 1.574 . S
C3379 C3398 1.368 . S
C3379 H3403 0.949 . S
H3380 C3384 0.949 . S
C3381 C3382 1.349 . S
C3381 C3383 1.327 . S
C3381 H3404 0.950 . S
C3382 C3381 1.349 . S
C3382 C3394 1.349 . S
C3383 C3381 1.327 . S
C3383 C3399 1.429 . S
C3383 H3405 0.950 . S
C3384 H3380 0.949 . S
C3384 C3392 1.574 . S
C3384 C3400 1.368 . S
H3385 C3393 0.950 . S
H3386 C3391 0.950 . S
H3387 C3392 0.949 . S
H3388 C3394 0.950 . S
H3389 C3395 0.950 . S
H3390 C3396 0.949 . S
C3391 H3386 0.950 . S
C3391 C3393 1.327 . S
C3391 C3397 1.429 . S
C3392 C3384 1.574 . S
C3392 H3387 0.949 . S
C3392 C3398 1.368 . S
C3393 C3377 1.349 . S
C3393 H3385 0.950 . S
C3393 C3391 1.327 . S
C3394 C3382 1.349 . S
C3394 H3388 0.950 . S
C3394 C3395 1.327 . S
C3395 H3389 0.950 . S
C3395 C3394 1.327 . S
C3395 C3399 1.429 . S
C3396 C3379 1.574 . S
C3396 H3390 0.949 . S
C3396 C3400 1.368 . S
C3397 C3378 1.429 . S
C3397 C3391 1.429 . S
C3397 C3398 1.523 . S
C3398 C3379 1.368 . S
C3398 C3392 1.368 . S
C3398 C3397 1.523 . S
C3399 C3383 1.429 . S
C3399 C3395 1.429 . S
C3399 C3400 1.523 . S
C3400 C3384 1.368 . S
C3400 C3396 1.368 . S
C3400 C3399 1.523 . S
H3401 C3376 0.950 . S
H3402 C3378 0.950 . S
H3403 C3379 0.949 . S
H3404 C3381 0.950 . S
H3405 C3383 0.950 . S
C3406 C3407 1.349 . S
C3406 C3408 1.327 . S
C3406 H3431 0.950 . S
C3407 C3406 1.349 . S
C3407 C3423 1.349 . S
C3408 C3406 1.327 . S
C3408 C3427 1.429 . S
C3408 H3432 0.950 . S
C3409 C3426 1.574 1_556 S
C3409 C3428 1.368 . S
C3409 H3433 0.949 . S
H3410 C3414 0.949 . S
C3411 C3412 1.349 . S
C3411 C3413 1.327 . S
C3411 H3434 0.950 . S
C3412 C3411 1.349 . S
C3412 C3424 1.349 . S
C3413 C3411 1.327 . S
C3413 C3429 1.429 . S
C3413 H3435 0.950 . S
C3414 H3410 0.949 . S
C3414 C3422 1.574 1_554 S
C3414 C3430 1.368 . S
H3415 C3423 0.950 . S
H3416 C3421 0.950 . S
H3417 C3422 0.949 . S
H3418 C3424 0.950 . S
H3419 C3425 0.950 . S
H3420 C3426 0.949 . S
C3421 H3416 0.950 . S
C3421 C3423 1.327 . S
C3421 C3427 1.429 . S
C3422 C3414 1.574 1_556 S
C3422 H3417 0.949 . S
C3422 C3428 1.368 . S
C3423 C3407 1.349 . S
C3423 H3415 0.950 . S
C3423 C3421 1.327 . S
C3424 C3412 1.349 . S
C3424 H3418 0.950 . S
C3424 C3425 1.327 . S
C3425 H3419 0.950 . S
C3425 C3424 1.327 . S
C3425 C3429 1.429 . S
C3426 C3409 1.574 1_554 S
C3426 H3420 0.949 . S
C3426 C3430 1.368 . S
C3427 C3408 1.429 . S
C3427 C3421 1.429 . S
C3427 C3428 1.523 . S
C3428 C3409 1.368 . S
C3428 C3422 1.368 . S
C3428 C3427 1.523 . S
C3429 C3413 1.429 . S
C3429 C3425 1.429 . S
C3429 C3430 1.523 . S
C3430 C3414 1.368 . S
C3430 C3426 1.368 . S
C3430 C3429 1.523 . S
H3431 C3406 0.950 . S
H3432 C3408 0.950 . S
H3433 C3409 0.949 . S
H3434 C3411 0.950 . S
H3435 C3413 0.950 . S
C3436 C3437 1.349 . S
C3436 C3438 1.327 . S
C3436 H3461 0.950 . S
C3437 C3436 1.349 . S
C3437 C3453 1.349 . S
C3438 C3436 1.327 . S
C3438 C3457 1.429 . S
C3438 H3462 0.950 . S
C3439 C3456 1.574 . S
C3439 C3458 1.368 . S
C3439 H3463 0.949 . S
H3440 C3444 0.949 . S
C3441 C3442 1.349 . S
C3441 C3443 1.327 . S
C3441 H3464 0.950 . S
C3442 C3441 1.349 . S
C3442 C3454 1.349 . S
C3443 C3441 1.327 . S
C3443 C3459 1.429 . S
C3443 H3465 0.950 . S
C3444 H3440 0.949 . S
C3444 C3452 1.574 . S
C3444 C3460 1.368 . S
H3445 C3453 0.950 . S
H3446 C3451 0.950 . S
H3447 C3452 0.949 . S
H3448 C3454 0.950 . S
H3449 C3455 0.950 . S
H3450 C3456 0.949 . S
C3451 H3446 0.950 . S
C3451 C3453 1.327 . S
C3451 C3457 1.429 . S
C3452 C3444 1.574 . S
C3452 H3447 0.949 . S
C3452 C3458 1.368 . S
C3453 C3437 1.349 . S
C3453 H3445 0.950 . S
C3453 C3451 1.327 . S
C3454 C3442 1.349 . S
C3454 H3448 0.950 . S
C3454 C3455 1.327 . S
C3455 H3449 0.950 . S
C3455 C3454 1.327 . S
C3455 C3459 1.429 . S
C3456 C3439 1.574 . S
C3456 H3450 0.949 . S
C3456 C3460 1.368 . S
C3457 C3438 1.429 . S
C3457 C3451 1.429 . S
C3457 C3458 1.523 . S
C3458 C3439 1.368 . S
C3458 C3452 1.368 . S
C3458 C3457 1.523 . S
C3459 C3443 1.429 . S
C3459 C3455 1.429 . S
C3459 C3460 1.523 . S
C3460 C3444 1.368 . S
C3460 C3456 1.368 . S
C3460 C3459 1.523 . S
H3461 C3436 0.950 . S
H3462 C3438 0.950 . S
H3463 C3439 0.949 . S
H3464 C3441 0.950 . S
H3465 C3443 0.950 . S
C3466 C3467 1.349 . S
C3466 C3468 1.327 . S
C3466 H3491 0.950 . S
C3467 C3466 1.349 . S
C3467 C3483 1.349 . S
C3468 C3466 1.327 . S
C3468 C3487 1.429 . S
C3468 H3492 0.950 . S
C3469 C3486 1.574 . S
C3469 C3488 1.368 . S
C3469 H3493 0.949 . S
H3470 C3474 0.949 . S
C3471 C3472 1.349 . S
C3471 C3473 1.327 . S
C3471 H3494 0.950 . S
C3472 C3471 1.349 . S
C3472 C3484 1.349 . S
C3473 C3471 1.327 . S
C3473 C3489 1.429 . S
C3473 H3495 0.950 . S
C3474 H3470 0.949 . S
C3474 C3482 1.574 . S
C3474 C3490 1.368 . S
H3475 C3483 0.950 . S
H3476 C3481 0.950 . S
H3477 C3482 0.949 . S
H3478 C3484 0.950 . S
H3479 C3485 0.950 . S
H3480 C3486 0.949 . S
C3481 H3476 0.950 . S
C3481 C3483 1.327 . S
C3481 C3487 1.429 . S
C3482 C3474 1.574 . S
C3482 H3477 0.949 . S
C3482 C3488 1.368 . S
C3483 C3467 1.349 . S
C3483 H3475 0.950 . S
C3483 C3481 1.327 . S
C3484 C3472 1.349 . S
C3484 H3478 0.950 . S
C3484 C3485 1.327 . S
C3485 H3479 0.950 . S
C3485 C3484 1.327 . S
C3485 C3489 1.429 . S
C3486 C3469 1.574 . S
C3486 H3480 0.949 . S
C3486 C3490 1.368 . S
C3487 C3468 1.429 . S
C3487 C3481 1.429 . S
C3487 C3488 1.523 . S
C3488 C3469 1.368 . S
C3488 C3482 1.368 . S
C3488 C3487 1.523 . S
C3489 C3473 1.429 . S
C3489 C3485 1.429 . S
C3489 C3490 1.523 . S
C3490 C3474 1.368 . S
C3490 C3486 1.368 . S
C3490 C3489 1.523 . S
H3491 C3466 0.950 . S
H3492 C3468 0.950 . S
H3493 C3469 0.949 . S
H3494 C3471 0.950 . S
H3495 C3473 0.950 . S
C3496 C3497 1.349 . S
C3496 C3498 1.327 . S
C3496 H3521 0.950 . S
C3497 C3496 1.349 . S
C3497 C3513 1.349 . S
C3498 C3496 1.327 . S
C3498 C3517 1.429 . S
C3498 H3522 0.950 . S
C3499 C3516 1.574 . S
C3499 C3518 1.368 . S
C3499 H3523 0.949 . S
H3500 C3504 0.949 . S
C3501 C3502 1.349 . S
C3501 C3503 1.327 . S
C3501 H3524 0.950 . S
C3502 C3501 1.349 . S
C3502 C3514 1.349 . S
C3503 C3501 1.327 . S
C3503 C3519 1.429 . S
C3503 H3525 0.950 . S
C3504 H3500 0.949 . S
C3504 C3512 1.574 . S
C3504 C3520 1.368 . S
H3505 C3513 0.950 . S
H3506 C3511 0.950 . S
H3507 C3512 0.949 . S
H3508 C3514 0.950 . S
H3509 C3515 0.950 . S
H3510 C3516 0.949 . S
C3511 H3506 0.950 . S
C3511 C3513 1.327 . S
C3511 C3517 1.429 . S
C3512 C3504 1.574 . S
C3512 H3507 0.949 . S
C3512 C3518 1.368 . S
C3513 C3497 1.349 . S
C3513 H3505 0.950 . S
C3513 C3511 1.327 . S
C3514 C3502 1.349 . S
C3514 H3508 0.950 . S
C3514 C3515 1.327 . S
C3515 H3509 0.950 . S
C3515 C3514 1.327 . S
C3515 C3519 1.429 . S
C3516 C3499 1.574 . S
C3516 H3510 0.949 . S
C3516 C3520 1.368 . S
C3517 C3498 1.429 . S
C3517 C3511 1.429 . S
C3517 C3518 1.523 . S
C3518 C3499 1.368 . S
C3518 C3512 1.368 . S
C3518 C3517 1.523 . S
C3519 C3503 1.429 . S
C3519 C3515 1.429 . S
C3519 C3520 1.523 . S
C3520 C3504 1.368 . S
C3520 C3516 1.368 . S
C3520 C3519 1.523 . S
H3521 C3496 0.950 . S
H3522 C3498 0.950 . S
H3523 C3499 0.949 . S
H3524 C3501 0.950 . S
H3525 C3503 0.950 . S
C3526 C3527 1.349 . S
C3526 C3528 1.327 . S
C3526 H3551 0.950 . S
C3527 C3526 1.349 . S
C3527 C3543 1.349 . S
C3528 C3526 1.327 . S
C3528 C3547 1.429 . S
C3528 H3552 0.950 . S
C3529 C3546 1.581 . S
C3529 C3548 1.368 . S
C3529 H3553 0.949 . S
H3530 C3534 0.949 . S
C3531 C3532 1.349 . S
C3531 C3533 1.327 . S
C3531 H3554 0.950 . S
C3532 C3531 1.349 . S
C3532 C3544 1.349 . S
C3533 C3531 1.327 . S
C3533 C3549 1.429 . S
C3533 H3555 0.950 . S
C3534 H3530 0.949 . S
C3534 C3542 1.581 . S
C3534 C3550 1.368 . S
H3535 C3543 0.950 . S
H3536 C3541 0.950 . S
H3537 C3542 0.949 . S
H3538 C3544 0.950 . S
H3539 C3545 0.950 . S
H3540 C3546 0.949 . S
C3541 H3536 0.950 . S
C3541 C3543 1.327 . S
C3541 C3547 1.429 . S
C3542 C3534 1.581 . S
C3542 H3537 0.949 . S
C3542 C3548 1.361 1_554 S
C3543 C3527 1.349 . S
C3543 H3535 0.950 . S
C3543 C3541 1.327 . S
C3544 C3532 1.349 . S
C3544 H3538 0.950 . S
C3544 C3545 1.327 . S
C3545 H3539 0.950 . S
C3545 C3544 1.327 . S
C3545 C3549 1.429 . S
C3546 C3529 1.581 . S
C3546 H3540 0.949 . S
C3546 C3550 1.361 1_556 S
C3547 C3528 1.429 . S
C3547 C3541 1.429 . S
C3547 C3548 1.523 . S
C3548 C3529 1.368 . S
C3548 C3542 1.361 1_556 S
C3548 C3547 1.523 . S
C3549 C3533 1.429 . S
C3549 C3545 1.429 . S
C3549 C3550 1.523 . S
C3550 C3534 1.368 . S
C3550 C3546 1.361 1_554 S
C3550 C3549 1.523 . S
H3551 C3526 0.950 . S
H3552 C3528 0.950 . S
H3553 C3529 0.949 . S
H3554 C3531 0.950 . S
H3555 C3533 0.950 . S
C3556 C3557 1.349 . S
C3556 C3558 1.327 . S
C3556 H3581 0.950 . S
C3557 C3556 1.349 . S
C3557 C3573 1.349 . S
C3558 C3556 1.327 . S
C3558 C3577 1.429 . S
C3558 H3582 0.950 . S
C3559 C3576 1.574 . S
C3559 C3578 1.368 . S
C3559 H3583 0.949 . S
H3560 C3564 0.949 . S
C3561 C3562 1.349 . S
C3561 C3563 1.327 . S
C3561 H3584 0.950 . S
C3562 C3561 1.349 . S
C3562 C3574 1.349 . S
C3563 C3561 1.327 . S
C3563 C3579 1.429 . S
C3563 H3585 0.950 . S
C3564 H3560 0.949 . S
C3564 C3572 1.574 . S
C3564 C3580 1.368 . S
H3565 C3573 0.950 . S
H3566 C3571 0.950 . S
H3567 C3572 0.949 . S
H3568 C3574 0.950 . S
H3569 C3575 0.950 . S
H3570 C3576 0.949 . S
C3571 H3566 0.950 . S
C3571 C3573 1.327 . S
C3571 C3577 1.429 . S
C3572 C3564 1.574 . S
C3572 H3567 0.949 . S
C3572 C3578 1.368 . S
C3573 C3557 1.349 . S
C3573 H3565 0.950 . S
C3573 C3571 1.327 . S
C3574 C3562 1.349 . S
C3574 H3568 0.950 . S
C3574 C3575 1.327 . S
C3575 H3569 0.950 . S
C3575 C3574 1.327 . S
C3575 C3579 1.429 . S
C3576 C3559 1.574 . S
C3576 H3570 0.949 . S
C3576 C3580 1.368 . S
C3577 C3558 1.429 . S
C3577 C3571 1.429 . S
C3577 C3578 1.523 . S
C3578 C3559 1.368 . S
C3578 C3572 1.368 . S
C3578 C3577 1.523 . S
C3579 C3563 1.429 . S
C3579 C3575 1.429 . S
C3579 C3580 1.523 . S
C3580 C3564 1.368 . S
C3580 C3576 1.368 . S
C3580 C3579 1.523 . S
H3581 C3556 0.950 . S
H3582 C3558 0.950 . S
H3583 C3559 0.949 . S
H3584 C3561 0.950 . S
H3585 C3563 0.950 . S
C3586 C3587 1.349 . S
C3586 C3588 1.327 . S
C3586 H3611 0.950 . S
C3587 C3586 1.349 . S
C3587 C3603 1.349 . S
C3588 C3586 1.327 . S
C3588 C3607 1.429 . S
C3588 H3612 0.950 . S
C3589 C3606 1.574 . S
C3589 C3608 1.368 . S
C3589 H3613 0.949 . S
H3590 C3594 0.949 . S
C3591 C3592 1.349 . S
C3591 C3593 1.327 . S
C3591 H3614 0.950 . S
C3592 C3591 1.349 . S
C3592 C3604 1.349 . S
C3593 C3591 1.327 . S
C3593 C3609 1.429 . S
C3593 H3615 0.950 . S
C3594 H3590 0.949 . S
C3594 C3602 1.574 . S
C3594 C3610 1.368 . S
H3595 C3603 0.950 . S
H3596 C3601 0.950 . S
H3597 C3602 0.949 . S
H3598 C3604 0.950 . S
H3599 C3605 0.950 . S
H3600 C3606 0.949 . S
C3601 H3596 0.950 . S
C3601 C3603 1.327 . S
C3601 C3607 1.429 . S
C3602 C3594 1.574 . S
C3602 H3597 0.949 . S
C3602 C3608 1.368 . S
C3603 C3587 1.349 . S
C3603 H3595 0.950 . S
C3603 C3601 1.327 . S
C3604 C3592 1.349 . S
C3604 H3598 0.950 . S
C3604 C3605 1.327 . S
C3605 H3599 0.950 . S
C3605 C3604 1.327 . S
C3605 C3609 1.429 . S
C3606 C3589 1.574 . S
C3606 H3600 0.949 . S
C3606 C3610 1.368 . S
C3607 C3588 1.429 . S
C3607 C3601 1.429 . S
C3607 C3608 1.523 . S
C3608 C3589 1.368 . S
C3608 C3602 1.368 . S
C3608 C3607 1.523 . S
C3609 C3593 1.429 . S
C3609 C3605 1.429 . S
C3609 C3610 1.523 . S
C3610 C3594 1.368 . S
C3610 C3606 1.368 . S
C3610 C3609 1.523 . S
H3611 C3586 0.950 . S
H3612 C3588 0.950 . S
H3613 C3589 0.949 . S
H3614 C3591 0.950 . S
H3615 C3593 0.950 . S
C1697 C1469 1.580 . S
C1702 C29 1.598 . S
C1727 C82 1.204 . S
C1732 C453 1.192 . S
C1757 C1363 1.580 . S
C1762 C135 1.598 . S
C1787 C188 1.204 . S
C1792 C559 1.192 . S
C1817 C241 1.598 . S
C1822 C1575 1.580 . S
C1847 C294 1.204 . S
C1852 C771 1.192 . S
C1877 C347 1.598 . S
C1882 C1681 1.580 . S
C1907 C400 1.204 . S
C1912 C665 1.192 . S
C1937 C1045 1.935 . S
C1942 C462 1.961 . S
C1967 C38 1.378 . S
C1972 C506 1.385 . S
C1997 C939 1.935 . S
C2002 C568 1.961 . S
C2027 C612 1.385 . S
C2032 C144 1.378 . S
C2057 C1151 1.935 . S
C2062 C674 1.961 . S
C2087 C356 1.378 . S
C2092 C718 1.385 . S
C2117 C780 1.961 . S
C2122 C1257 1.935 . S
C2147 C250 1.378 . S
C2152 C824 1.385 . S
C2177 C877 1.597 . S
C2182 C621 1.579 . S
C2207 C930 1.204 . S
C2212 C1301 1.192 . S
C2237 C515 1.579 . S
C2242 C983 1.597 . S
C2267 C1407 1.192 . S
C2272 C1036 1.204 . S
C2297 C727 1.579 . S
C2302 C1089 1.597 . S
C2327 C1619 1.192 . S
C2332 C1142 1.204 . S
C2357 C833 1.579 . S
C2362 C1195 1.597 . S
C2387 C1248 1.204 . S
C2392 C1513 1.192 . S
C2417 C197 1.935 . S
C2422 C1310 1.961 . S
C2447 C1354 1.386 . S
C2452 C886 1.378 . S
C2477 C1416 1.961 . S
C2482 C91 1.935 . S
C2507 C1460 1.386 . S
C2512 C992 1.378 . S
C2537 C1522 1.961 . S
C2542 C303 1.935 . S
C2567 C1566 1.386 . S
C2572 C1204 1.378 . S
C2597 C1628 1.961 . S
C2602 C409 1.935 . S
C2627 C1672 1.386 . S
C2632 C1098 1.378 . S
C2657 C1294 1.550 . S
C2662 C39 1.564 . S
C2687 C92 2.238 . S
C2692 C516 2.219 . S
C2717 C1400 1.550 . S
C2722 C145 1.564 . S
C2747 C198 2.238 . S
C2752 C622 2.219 . S
C2777 C1506 1.550 . S
C2782 C251 1.564 . S
C2807 C304 2.238 . S
C2812 C728 2.219 . S
C2837 C1612 1.550 . S
C2842 C357 1.564 . S
C2867 C410 2.238 . S
C2872 C834 2.219 . S
C2897 C446 1.550 . S
C2902 C887 1.564 . S
C2927 C552 1.550 . S
C2932 C993 1.564 . S
C2957 C658 1.550 . S
C2962 C1099 1.564 . S
C2987 C764 1.550 . S
C2992 C1205 1.564 . S
C3017 C940 2.238 . S
C3022 C1364 2.219 . S
C3047 C1470 2.219 . S
C3052 C1046 2.238 . S
C3077 C1576 2.219 . S
C3082 C1152 2.238 . S
C3107 C1258 2.238 . S
C3112 C1682 2.219 . S
C3137 C22 1.688 . S
C3142 C234 1.688 . S
C3167 C75 1.922 . S
C3172 C287 1.922 . S
C3197 C340 1.688 . S
C3202 C128 1.688 . S
C3227 C181 1.922 . S
C3232 C393 1.922 . S
C3257 C675 2.119 . S
C3262 C463 2.119 . S
C3287 C711 1.999 . S
C3292 C499 1.999 . S
C3317 C569 2.119 . S
C3322 C781 2.119 . S
C3347 C605 1.999 . S
C3352 C817 1.999 . S
C3377 C1082 1.688 . S
C3382 C870 1.688 . S
C3407 C1135 1.922 . S
C3412 C923 1.922 . S
C3437 C976 1.688 . S
C3442 C1188 1.688 . S
C3467 C1241 1.922 . S
C3472 C1029 1.922 . S
C3497 C1523 2.119 . S
C3502 C1311 2.119 . S
C3527 C1347 1.999 . S
C3532 C1559 1.999 . S
C3557 C1629 2.119 . S
C3562 C1417 2.119 . S
C3587 C1453 1.999 . S
C3592 C1665 1.999 . S
