# Generated by pormake.
# Topology wmc, (6)-cn, num edge types: 1
# Building blocks:
#     Node 0, Type 0, BuildingBlock: FUNLAD_clean_sbu_0, # of connection points: 6
#     Node 1, Type 0, BuildingBlock: FUNLAD_clean_sbu_0, # of connection points: 6
#     Node 2, Type 0, BuildingBlock: FUNLAD_clean_sbu_0, # of connection points: 6
#     Node 3, Type 0, BuildingBlock: FUNLAD_clean_sbu_0, # of connection points: 6
#     Node 4, Type 0, BuildingBlock: FUNLAD_clean_sbu_0, # of connection points: 6
#     Node 5, Type 0, BuildingBlock: FUNLAD_clean_sbu_0, # of connection points: 6
#     Node 6, Type 0, BuildingBlock: FUNLAD_clean_sbu_0, # of connection points: 6
#     Node 7, Type 0, BuildingBlock: FUNLAD_clean_sbu_0, # of connection points: 6
#     Node 8, Type 0, BuildingBlock: FUNLAD_clean_sbu_0, # of connection points: 6
#     Node 9, Type 0, BuildingBlock: FUNLAD_clean_sbu_0, # of connection points: 6
#     Node 10, Type 0, BuildingBlock: FUNLAD_clean_sbu_0, # of connection points: 6
#     Node 11, Type 0, BuildingBlock: FUNLAD_clean_sbu_0, # of connection points: 6
#     Node 12, Type 0, BuildingBlock: FUNLAD_clean_sbu_0, # of connection points: 6
#     Node 13, Type 0, BuildingBlock: FUNLAD_clean_sbu_0, # of connection points: 6
#     Node 14, Type 0, BuildingBlock: FUNLAD_clean_sbu_0, # of connection points: 6
#     Node 15, Type 0, BuildingBlock: FUNLAD_clean_sbu_0, # of connection points: 6
#     Node 16, Type 0, BuildingBlock: FUNLAD_clean_sbu_0, # of connection points: 6
#     Node 17, Type 0, BuildingBlock: FUNLAD_clean_sbu_0, # of connection points: 6
#     Edge 18, Type (0, 0), BuildingBlock: OJICUG_clean_linker_0, # of connection points: 2
#     Edge 19, Type (0, 0), BuildingBlock: OJICUG_clean_linker_0, # of connection points: 2
#     Edge 20, Type (0, 0), BuildingBlock: OJICUG_clean_linker_0, # of connection points: 2
#     Edge 21, Type (0, 0), BuildingBlock: OJICUG_clean_linker_0, # of connection points: 2
#     Edge 22, Type (0, 0), BuildingBlock: OJICUG_clean_linker_0, # of connection points: 2
#     Edge 23, Type (0, 0), BuildingBlock: OJICUG_clean_linker_0, # of connection points: 2
#     Edge 24, Type (0, 0), BuildingBlock: OJICUG_clean_linker_0, # of connection points: 2
#     Edge 25, Type (0, 0), BuildingBlock: OJICUG_clean_linker_0, # of connection points: 2
#     Edge 26, Type (0, 0), BuildingBlock: OJICUG_clean_linker_0, # of connection points: 2
#     Edge 27, Type (0, 0), BuildingBlock: OJICUG_clean_linker_0, # of connection points: 2
#     Edge 28, Type (0, 0), BuildingBlock: OJICUG_clean_linker_0, # of connection points: 2
#     Edge 29, Type (0, 0), BuildingBlock: OJICUG_clean_linker_0, # of connection points: 2
#     Edge 30, Type (0, 0), BuildingBlock: OJICUG_clean_linker_0, # of connection points: 2
#     Edge 31, Type (0, 0), BuildingBlock: OJICUG_clean_linker_0, # of connection points: 2
#     Edge 32, Type (0, 0), BuildingBlock: OJICUG_clean_linker_0, # of connection points: 2
#     Edge 33, Type (0, 0), BuildingBlock: OJICUG_clean_linker_0, # of connection points: 2
#     Edge 34, Type (0, 0), BuildingBlock: OJICUG_clean_linker_0, # of connection points: 2
#     Edge 35, Type (0, 0), BuildingBlock: OJICUG_clean_linker_0, # of connection points: 2
#     Edge 36, Type (0, 0), BuildingBlock: OJICUG_clean_linker_0, # of connection points: 2
#     Edge 37, Type (0, 0), BuildingBlock: OJICUG_clean_linker_0, # of connection points: 2
#     Edge 38, Type (0, 0), BuildingBlock: OJICUG_clean_linker_0, # of connection points: 2
#     Edge 39, Type (0, 0), BuildingBlock: OJICUG_clean_linker_0, # of connection points: 2
#     Edge 40, Type (0, 0), BuildingBlock: OJICUG_clean_linker_0, # of connection points: 2
#     Edge 41, Type (0, 0), BuildingBlock: OJICUG_clean_linker_0, # of connection points: 2
#     Edge 42, Type (0, 0), BuildingBlock: OJICUG_clean_linker_0, # of connection points: 2
#     Edge 43, Type (0, 0), BuildingBlock: OJICUG_clean_linker_0, # of connection points: 2
#     Edge 44, Type (0, 0), BuildingBlock: OJICUG_clean_linker_0, # of connection points: 2
#     Edge 45, Type (0, 0), BuildingBlock: OJICUG_clean_linker_0, # of connection points: 2
#     Edge 46, Type (0, 0), BuildingBlock: OJICUG_clean_linker_0, # of connection points: 2
#     Edge 47, Type (0, 0), BuildingBlock: OJICUG_clean_linker_0, # of connection points: 2
#     Edge 48, Type (0, 0), BuildingBlock: OJICUG_clean_linker_0, # of connection points: 2
#     Edge 49, Type (0, 0), BuildingBlock: OJICUG_clean_linker_0, # of connection points: 2
#     Edge 50, Type (0, 0), BuildingBlock: OJICUG_clean_linker_0, # of connection points: 2
#     Edge 51, Type (0, 0), BuildingBlock: OJICUG_clean_linker_0, # of connection points: 2
#     Edge 52, Type (0, 0), BuildingBlock: OJICUG_clean_linker_0, # of connection points: 2
#     Edge 53, Type (0, 0), BuildingBlock: OJICUG_clean_linker_0, # of connection points: 2
#     Edge 54, Type (0, 0), BuildingBlock: OJICUG_clean_linker_0, # of connection points: 2
#     Edge 55, Type (0, 0), BuildingBlock: OJICUG_clean_linker_0, # of connection points: 2
#     Edge 56, Type (0, 0), BuildingBlock: OJICUG_clean_linker_0, # of connection points: 2
#     Edge 57, Type (0, 0), BuildingBlock: OJICUG_clean_linker_0, # of connection points: 2
#     Edge 58, Type (0, 0), BuildingBlock: OJICUG_clean_linker_0, # of connection points: 2
#     Edge 59, Type (0, 0), BuildingBlock: OJICUG_clean_linker_0, # of connection points: 2
#     Edge 60, Type (0, 0), BuildingBlock: OJICUG_clean_linker_0, # of connection points: 2
#     Edge 61, Type (0, 0), BuildingBlock: OJICUG_clean_linker_0, # of connection points: 2
#     Edge 62, Type (0, 0), BuildingBlock: OJICUG_clean_linker_0, # of connection points: 2
#     Edge 63, Type (0, 0), BuildingBlock: OJICUG_clean_linker_0, # of connection points: 2
#     Edge 64, Type (0, 0), BuildingBlock: OJICUG_clean_linker_0, # of connection points: 2
#     Edge 65, Type (0, 0), BuildingBlock: OJICUG_clean_linker_0, # of connection points: 2
#     Edge 66, Type (0, 0), BuildingBlock: OJICUG_clean_linker_0, # of connection points: 2
#     Edge 67, Type (0, 0), BuildingBlock: OJICUG_clean_linker_0, # of connection points: 2
#     Edge 68, Type (0, 0), BuildingBlock: OJICUG_clean_linker_0, # of connection points: 2
#     Edge 69, Type (0, 0), BuildingBlock: OJICUG_clean_linker_0, # of connection points: 2
#     Edge 70, Type (0, 0), BuildingBlock: OJICUG_clean_linker_0, # of connection points: 2
#     Edge 71, Type (0, 0), BuildingBlock: OJICUG_clean_linker_0, # of connection points: 2
# Relax obj value: 0.591
# Max RMSD: 0.260
# Mean RMSD: 0.260
data_MOF--net-wmc--node1-FUNLAD_clean_sbu_0--edge1-OJICUG_clean_linker_0
_symmetry_space_group_name_H-M    P1
_symmetry_Int_Tables_number       1
_symmetry_cell_setting            triclinic
loop_
_symmetry_equiv_pos_as_xyz
'x, y, z'
_cell_length_a     41.702358
_cell_length_b     41.649418
_cell_length_c     21.320314
_cell_angle_alpha  90.025703
_cell_angle_beta   89.969552
_cell_angle_gamma 120.05838
loop_
_atom_site_label
_atom_site_type_symbol
_atom_site_fract_x
_atom_site_fract_y
_atom_site_fract_z
_atom_type_partial_charge
C0 C 0.59057 0.12822 0.12203 0.0
N1 N 0.67794 0.20526 0.00575 0.0
C2 C 0.70523 0.20862 0.04494 0.0
C3 C 0.74111 0.2389 0.03959 0.0
C4 C 0.74887 0.26613 -0.00616 0.0
C5 C 0.71969 0.26266 0.95604 0.0
C6 C 0.68444 0.23183 0.96251 0.0
Zn7 Zn 0.62871 0.1566 0.00085 0.0
C8 C 0.64581 0.09487 0.01823 0.0
N9 N 0.52556 0.05169 -0.01733 0.0
C10 C 0.49674 0.05097 0.0144 0.0
C11 C 0.51861 0.02817 0.93343 0.0
C12 C 0.48211 1.0047 0.9124 0.0
C13 C 0.45203 1.00515 0.94192 0.0
C14 C 0.45991 0.0279 -0.00495 0.0
Zn15 Zn 0.57818 0.09969 -0.00512 0.0
O16 O 0.61949 0.1557 0.09883 0.0
C17 C 0.56629 0.16621 -0.01759 0.0
O18 O 0.56967 0.10055 0.08815 0.0
H19 H 0.54144 0.02916 0.90769 0.0
H20 H 0.69955 0.18708 0.07881 0.0
H21 H 0.50225 0.07041 0.05213 0.0
O22 O 0.60088 0.18461 -0.00946 0.0
O23 O 0.54962 0.13094 -0.01957 0.0
H24 H 0.66252 0.22856 0.93142 0.0
O25 O 0.58726 0.10022 0.90048 0.0
O26 O 0.63475 0.1569 0.90311 0.0
O27 O 0.61092 0.07169 0.01358 0.0
O28 O 0.65753 0.12912 0.01219 0.0
C29 C 0.6121 0.12849 0.87225 0.0
H30 H 0.76268 0.24043 0.06984 0.0
H31 H 0.72396 0.28349 0.92151 0.0
H32 H 0.47768 0.98707 0.8722 0.0
H33 H 0.43804 0.02957 0.01951 0.0
C34 C 0.90915 0.47193 0.11615 0.0
N35 N 0.83425 0.48493 -0.00215 0.0
C36 C 0.8052 0.46295 0.03577 0.0
C37 C 0.77344 0.46627 0.03558 0.0
C38 C 0.77168 0.49225 -0.00433 0.0
C39 C 0.8022 0.51481 0.95786 0.0
C40 C 0.83337 0.51083 0.95996 0.0
Zn41 Zn 0.88166 0.48203 -0.00575 0.0
C42 C 0.9442 0.56086 0.01351 0.0
N43 N 0.98584 0.48268 -0.02173 0.0
C44 C 0.98573 0.45403 0.00966 0.0
C45 C 1.01004 0.49954 0.93002 0.0
C46 C 0.03343 0.48632 0.90958 0.0
C47 C 0.03221 0.45531 0.93872 0.0
C48 C 1.00874 0.44009 -0.00908 0.0
Zn49 Zn 0.93841 0.48824 -0.01073 0.0
O50 O 0.8817 0.47327 0.09274 0.0
C51 C 0.87079 0.40987 0.97519 0.0
O52 O 0.93685 0.47878 0.0824 0.0
H53 H 1.00971 0.52183 0.90458 0.0
H54 H 0.80653 0.44266 0.06564 0.0
H55 H 0.96578 0.43993 0.04663 0.0
O56 O 0.8525 0.42628 -0.01741 0.0
O57 O 0.90608 0.42827 0.97463 0.0
H58 H 0.85692 0.52852 0.93083 0.0
O59 O 0.93886 0.49685 0.89474 0.0
O60 O 0.88223 0.48746 0.89601 0.0
O61 O 0.9673 0.54912 0.00831 0.0
O62 O 0.91002 0.53832 0.00737 0.0
C63 C 0.91072 0.49303 0.86574 0.0
H64 H 0.75014 0.44805 0.06495 0.0
H65 H 0.80195 0.53529 0.92689 0.0
H66 H 0.05163 0.49977 0.87011 0.0
H67 H 1.00651 0.41619 0.01505 0.0
C68 C 0.56371 0.44552 0.11797 0.0
N69 N 0.54899 0.35616 0.00125 0.0
C70 C 0.57017 0.34845 0.03991 0.0
C71 C 0.56603 0.31298 0.04 0.0
C72 C 0.54007 0.28554 -0.00039 0.0
C73 C 0.51824 0.29413 0.96123 0.0
C74 C 0.52301 0.32964 0.96305 0.0
Zn75 Zn 0.55337 0.40715 -0.00342 0.0
C76 C 0.47521 0.39272 0.01415 0.0
N77 N 0.55532 0.51203 -0.02184 0.0
C78 C 0.58422 0.54065 0.009 0.0
C79 C 0.53838 0.51933 0.93003 0.0
C80 C 0.55167 0.55595 0.9093 0.0
C81 C 0.58284 0.58583 0.93801 0.0
C82 C 0.59823 0.57762 -0.01003 0.0
Zn83 Zn 0.54861 0.45854 -0.00953 0.0
O84 O 0.56151 0.41617 0.09506 0.0
C85 C 0.62617 0.46715 -0.02136 0.0
O86 O 0.55784 0.46686 0.08372 0.0
H87 H 0.51587 0.49664 0.90504 0.0
H88 H 0.59053 0.36988 0.07001 0.0
H89 H 0.59833 0.5348 0.04592 0.0
O90 O 0.60896 0.43244 -0.01354 0.0
O91 O 0.60856 0.48484 -0.02338 0.0
H92 H 0.50596 0.33602 0.93332 0.0
O93 O 0.54023 0.44996 0.89589 0.0
O94 O 0.54864 0.40206 0.89822 0.0
O95 O 0.48766 0.42774 0.00891 0.0
O96 O 0.49718 0.3804 0.00844 0.0
C97 C 0.54363 0.42519 0.86741 0.0
H98 H 0.5837 0.3074 0.06981 0.0
H99 H 0.49783 0.27363 0.92982 0.0
H100 H 0.53809 0.56065 0.87002 0.0
H101 H 0.62226 0.59936 0.01377 0.0
C102 C 0.91021 0.42519 0.36589 0.0
N103 N 0.98544 0.51176 0.47702 0.0
C104 C 1.00962 0.51921 0.42872 0.0
C105 C 0.03295 0.5559 0.40828 0.0
C106 C 0.03171 0.58568 0.43748 0.0
C107 C 1.00815 0.5773 0.4896 0.0
C108 C 0.98519 0.54026 0.50832 0.0
Zn109 Zn 0.93865 0.45822 0.48908 0.0
C110 C 0.86969 0.46686 0.47804 0.0
N111 N 0.83587 0.35584 0.4996 0.0
C112 C 0.8352 0.32937 0.46111 0.0
C113 C 0.80708 0.34809 0.53859 0.0
C114 C 0.77573 0.31263 0.53876 0.0
C115 C 0.77412 0.28525 0.4981 0.0
C116 C 0.80443 0.29387 0.45935 0.0
Zn117 Zn 0.88249 0.40681 0.49501 0.0
O118 O 0.93838 0.44989 0.39445 0.0
C119 C 0.94621 0.39234 0.51187 0.0
O120 O 0.88206 0.40196 0.39661 0.0
H121 H 0.80825 0.36949 0.56892 0.0
H122 H 1.00942 0.49661 0.40337 0.0
H123 H 0.85856 0.33578 0.43113 0.0
O124 O 0.96879 0.42738 0.50688 0.0
O125 O 0.91192 0.38003 0.50627 0.0
H126 H 0.96528 0.5343 0.54539 0.0
O127 O 0.88343 0.41558 0.59356 0.0
O128 O 0.93783 0.46628 0.58235 0.0
O129 O 0.85218 0.43212 0.48551 0.0
O130 O 0.90499 0.48456 0.47593 0.0
C131 C 0.91062 0.44485 0.61658 0.0
H132 H 0.0512 0.56074 0.36886 0.0
H133 H 1.0059 0.59895 0.51377 0.0
H134 H 0.75255 0.30703 0.56885 0.0
H135 H 0.80424 0.27341 0.42772 0.0
C136 C 0.61162 0.49359 0.36724 0.0
N137 N 0.52584 0.48292 0.47952 0.0
C138 C 0.51864 0.4999 0.43133 0.0
C139 C 0.48207 0.48672 0.41069 0.0
C140 C 0.45218 0.45564 0.43958 0.0
C141 C 0.46029 0.44032 0.49175 0.0
C142 C 0.4972 0.45422 0.51069 0.0
Zn143 Zn 0.57884 0.4885 0.4907 0.0
C144 C 0.56811 0.41015 0.47614 0.0
N145 N 0.67969 0.48517 0.49949 0.0
C146 C 0.70657 0.51122 0.46188 0.0
C147 C 0.68662 0.46295 0.53699 0.0
C148 C 0.72167 0.46616 0.53659 0.0
C149 C 0.74949 0.49227 0.49692 0.0
C150 C 0.74167 0.5151 0.45961 0.0
Zn151 Zn 0.62937 0.48228 0.49583 0.0
O152 O 0.58722 0.49732 0.39618 0.0
C153 C 0.64567 0.56109 0.51562 0.0
O154 O 0.63448 0.48798 0.39759 0.0
H155 H 0.66492 0.44253 0.56662 0.0
H156 H 0.54133 0.52225 0.40607 0.0
H157 H 0.70081 0.52907 0.43306 0.0
O158 O 0.61084 0.54938 0.51013 0.0
O159 O 0.6573 0.53855 0.50944 0.0
H160 H 0.50295 0.44003 0.54762 0.0
O161 O 0.62032 0.47324 0.59424 0.0
O162 O 0.57072 0.4788 0.58382 0.0
O163 O 0.60279 0.42656 0.48371 0.0
O164 O 0.55122 0.42854 0.47568 0.0
C165 C 0.59146 0.47184 0.61758 0.0
H166 H 0.47743 0.50026 0.37126 0.0
H167 H 0.43855 0.41636 0.51569 0.0
H168 H 0.72663 0.44774 0.56559 0.0
H169 H 0.76248 0.5357 0.42884 0.0
C170 C 0.5447 0.12828 0.37228 0.0
N171 N 0.55461 0.05164 0.48271 0.0
C172 C 0.53799 0.02809 0.43354 0.0
C173 C 0.55104 1.00466 0.41239 0.0
C174 C 0.58164 1.00518 0.44171 0.0
C175 C 0.59655 0.02794 0.49481 0.0
C176 C 0.58277 0.05098 0.51429 0.0
Zn177 Zn 0.54999 0.09963 0.49489 0.0
C178 C 0.6284 0.16612 0.48183 0.0
N179 N 0.55588 0.20524 0.50564 0.0
C180 C 0.57597 0.2318 0.46237 0.0
C181 C 0.53198 0.20865 0.5449 0.0
C182 C 0.52648 0.239 0.53964 0.0
C183 C 0.54603 0.26624 0.49393 0.0
C184 C 0.57165 0.26269 0.45601 0.0
Zn185 Zn 0.5564 0.15655 0.5008 0.0
O186 O 0.54126 0.10003 0.40054 0.0
C187 C 0.47759 0.09481 0.51875 0.0
O188 O 0.55052 0.15672 0.40311 0.0
H189 H 0.5161 0.18713 0.5788 0.0
H190 H 0.5161 0.02903 0.40793 0.0
H191 H 0.59458 0.22849 0.43121 0.0
O192 O 0.4893 0.07164 0.51406 0.0
O193 O 0.50009 0.12906 0.5125 0.0
H194 H 0.59674 0.07044 0.55196 0.0
O195 O 0.56486 0.15579 0.59874 0.0
O196 O 0.55956 0.10066 0.5881 0.0
O197 O 0.61225 0.18455 0.49013 0.0
O198 O 0.60976 0.13085 0.47997 0.0
C199 C 0.56636 0.12836 0.62194 0.0
H200 H 0.5378 0.987 0.37223 0.0
H201 H 0.62014 0.02967 0.51913 0.0
H202 H 0.50648 0.24056 0.56997 0.0
H203 H 0.58826 0.28352 0.42148 0.0
C204 C 0.25962 0.46119 0.45244 0.0
N205 N 0.34782 0.53624 0.3342 0.0
C206 C 0.35543 0.56528 0.3726 0.0
C207 C 0.39067 0.59695 0.37194 0.0
C208 C 0.41797 0.59862 0.33106 0.0
C209 C 0.40949 0.56805 0.29296 0.0
C210 C 0.37423 0.53699 0.29553 0.0
Zn211 Zn 0.29711 0.48916 0.33045 0.0
C212 C 0.31236 0.42587 0.34776 0.0
N213 N 0.1929 0.3854 0.31376 0.0
C214 C 0.16432 0.38551 0.34491 0.0
C215 C 0.18564 0.36112 0.26564 0.0
C216 C 0.14906 0.33762 0.2451 0.0
C217 C 0.1192 0.33877 0.27402 0.0
C218 C 0.12737 0.36235 0.32608 0.0
Zn219 Zn 0.24613 0.43261 0.32521 0.0
O220 O 0.28865 0.48854 0.42914 0.0
C221 C 0.23653 0.50104 0.31352 0.0
O222 O 0.23834 0.43375 0.41846 0.0
H223 H 0.20831 0.36144 0.24043 0.0
H224 H 0.3341 0.56406 0.40307 0.0
H225 H 0.17014 0.40549 0.38184 0.0
O226 O 0.27125 0.51898 0.32074 0.0
O227 O 0.21924 0.46569 0.31185 0.0
H228 H 0.36793 0.51345 0.26601 0.0
O229 O 0.25415 0.43257 0.2306 0.0
O230 O 0.3016 0.48921 0.23198 0.0
O231 O 0.27741 0.40302 0.34311 0.0
O232 O 0.32438 0.46016 0.34186 0.0
C233 C 0.27848 0.4608 0.20163 0.0
H234 H 0.39616 0.62029 0.40157 0.0
H235 H 0.42989 0.56826 0.26121 0.0
H236 H 0.14437 0.31934 0.20575 0.0
H237 H 0.10564 0.36452 0.35005 0.0
C238 C 0.57669 0.80693 0.45107 0.0
N239 N 0.5018 0.82027 0.33323 0.0
C240 C 0.47281 0.79845 0.3714 0.0
C241 C 0.44111 0.80187 0.37125 0.0
C242 C 0.43935 0.82776 0.33114 0.0
C243 C 0.46984 0.8502 0.29318 0.0
C244 C 0.50094 0.84613 0.29521 0.0
Zn245 Zn 0.54897 0.81698 0.32919 0.0
C246 C 0.61185 0.89564 0.34773 0.0
N247 N 0.65288 0.81719 0.31248 0.0
C248 C 0.65282 0.78833 0.34299 0.0
C249 C 0.67739 0.83479 0.26492 0.0
C250 C 0.70123 0.82218 0.2443 0.0
C251 C 0.70016 0.791 0.27251 0.0
C252 C 0.67627 0.77495 0.32401 0.0
Zn253 Zn 0.60552 0.82279 0.32405 0.0
O254 O 0.54937 0.80856 0.42774 0.0
C255 C 0.53742 0.74459 0.31117 0.0
O256 O 0.60427 0.81348 0.41722 0.0
H257 H 0.67703 0.85728 0.24022 0.0
H258 H 0.47413 0.77818 0.40134 0.0
H259 H 0.63268 0.77373 0.37949 0.0
O260 O 0.51942 0.76128 0.3184 0.0
O261 O 0.57273 0.76274 0.31001 0.0
H262 H 0.52444 0.86366 0.26586 0.0
O263 O 0.60567 0.83119 0.22943 0.0
O264 O 0.54913 0.82201 0.23086 0.0
O265 O 0.63478 0.88368 0.34273 0.0
O266 O 0.57765 0.87326 0.34161 0.0
C267 C 0.57753 0.8274 0.20049 0.0
H268 H 0.41783 0.78373 0.40073 0.0
H269 H 0.46957 0.87061 0.26203 0.0
H270 H 0.71973 0.83626 0.20543 0.0
H271 H 0.67412 0.75088 0.34742 0.0
C272 C 0.23074 0.77903 0.45206 0.0
N273 N 0.21725 0.69037 0.33484 0.0
C274 C 0.23891 0.68311 0.37316 0.0
C275 C 0.23545 0.64793 0.37295 0.0
C276 C 0.20969 0.62029 0.33262 0.0
C277 C 0.18735 0.6284 0.29461 0.0
C278 C 0.19146 0.66364 0.29671 0.0
Zn279 Zn 0.22097 0.74108 0.33039 0.0
C280 C 0.14255 0.72597 0.34752 0.0
N281 N 0.22219 0.84567 0.31266 0.0
C282 C 0.2508 0.87421 0.34417 0.0
C283 C 0.20566 0.8531 0.26405 0.0
C284 C 0.21913 0.88978 0.24346 0.0
C285 C 0.25005 0.91959 0.27284 0.0
C286 C 0.26497 0.91124 0.32531 0.0
Zn287 Zn 0.21576 0.79225 0.32466 0.0
O288 O 0.22895 0.74993 0.42889 0.0
C289 C 0.2936 0.80162 0.31309 0.0
O290 O 0.22461 0.80028 0.41799 0.0
H291 H 0.1834 0.83049 0.23852 0.0
H292 H 0.25914 0.70471 0.40317 0.0
H293 H 0.26462 0.86828 0.38146 0.0
O294 O 0.27663 0.76687 0.3204 0.0
O295 O 0.27574 0.81905 0.3114 0.0
H296 H 0.17407 0.66968 0.2672 0.0
O297 O 0.20777 0.78393 0.23008 0.0
O298 O 0.21636 0.73613 0.23202 0.0
O299 O 0.15478 0.76096 0.34239 0.0
O300 O 0.16472 0.71387 0.34204 0.0
C301 C 0.21132 0.7593 0.20142 0.0
H302 H 0.25351 0.64275 0.40247 0.0
H303 H 0.16704 0.60773 0.26329 0.0
H304 H 0.2059 0.89459 0.20377 0.0
H305 H 0.28879 0.9329 0.34963 0.0
C306 C 0.57698 0.75928 0.70046 0.0
N307 N 0.65248 0.84551 0.81177 0.0
C308 C 0.67655 0.85276 0.76336 0.0
C309 C 0.69991 0.88937 0.74261 0.0
C310 C 0.69882 0.91928 0.77162 0.0
C311 C 0.67543 0.91111 0.82391 0.0
C312 C 0.65243 0.87414 0.84295 0.0
Zn313 Zn 0.6054 0.7922 0.82379 0.0
C314 C 0.53701 0.80171 0.81206 0.0
N315 N 0.50195 0.69046 0.83396 0.0
C316 C 0.50103 0.66371 0.79588 0.0
C317 C 0.47305 0.68323 0.87234 0.0
C318 C 0.44134 0.64803 0.87228 0.0
C319 C 0.43947 0.62035 0.83204 0.0
C320 C 0.46991 0.62845 0.79394 0.0
Zn321 Zn 0.54897 0.74112 0.82946 0.0
O322 O 0.60515 0.78385 0.72917 0.0
C323 C 0.61219 0.72588 0.84682 0.0
O324 O 0.5487 0.73614 0.73105 0.0
H325 H 0.47442 0.70484 0.90231 0.0
H326 H 0.67619 0.83005 0.73811 0.0
H327 H 0.52445 0.66974 0.76632 0.0
O328 O 0.63501 0.76086 0.84168 0.0
O329 O 0.57793 0.71384 0.84124 0.0
H330 H 0.6326 0.86834 0.8801 0.0
O331 O 0.54978 0.75004 0.92801 0.0
O332 O 0.60455 0.80031 0.91709 0.0
O333 O 0.51916 0.76696 0.81936 0.0
O334 O 0.57231 0.81909 0.81044 0.0
C335 C 0.57713 0.77912 0.95117 0.0
H336 H 0.71804 0.89404 0.70308 0.0
H337 H 0.67329 0.93287 0.84795 0.0
H338 H 0.4181 0.64285 0.90186 0.0
H339 H 0.46956 0.60776 0.76268 0.0
C340 C 0.27853 0.8271 0.70136 0.0
N341 N 0.1927 0.81614 0.81379 0.0
C342 C 0.18525 0.83286 0.76547 0.0
C343 C 0.1486 0.81951 0.74516 0.0
C344 C 0.11886 0.78854 0.77456 0.0
C345 C 0.12721 0.77346 0.82679 0.0
C346 C 0.16422 0.78751 0.84536 0.0
Zn347 Zn 0.24596 0.82231 0.82498 0.0
C348 C 0.23619 0.74429 0.81203 0.0
N349 N 0.34747 0.8203 0.83372 0.0
C350 C 0.37412 0.84619 0.79559 0.0
C351 C 0.35475 0.79854 0.87176 0.0
C352 C 0.3899 0.80202 0.87135 0.0
C353 C 0.41748 0.82792 0.83108 0.0
C354 C 0.40932 0.85032 0.79327 0.0
Zn355 Zn 0.29689 0.81678 0.82994 0.0
O356 O 0.25407 0.83069 0.73039 0.0
C357 C 0.31229 0.89531 0.84849 0.0
O358 O 0.30166 0.82185 0.73161 0.0
H359 H 0.33322 0.77824 0.90179 0.0
H360 H 0.20782 0.85516 0.73992 0.0
H361 H 0.36807 0.86368 0.76633 0.0
O362 O 0.27737 0.88322 0.84354 0.0
O363 O 0.32425 0.87305 0.84238 0.0
H364 H 0.17015 0.77354 0.88241 0.0
O365 O 0.28818 0.80834 0.92852 0.0
O366 O 0.23811 0.8131 0.91812 0.0
O367 O 0.27091 0.76107 0.81912 0.0
O368 O 0.21895 0.76234 0.81104 0.0
C369 C 0.25921 0.80666 0.95193 0.0
H370 H 0.14376 0.83284 0.70564 0.0
H371 H 0.10557 0.74961 0.85111 0.0
H372 H 0.39513 0.78392 0.90072 0.0
H373 H 0.42994 0.87073 0.762 0.0
C374 C 0.21132 0.46068 0.70174 0.0
N375 N 0.2216 0.38541 0.81382 0.0
C376 C 0.20473 0.36116 0.76562 0.0
C377 C 0.21802 0.33785 0.74502 0.0
C378 C 0.2491 0.33919 0.77397 0.0
C379 C 0.26434 0.36272 0.82613 0.0
C380 C 0.25032 0.38565 0.84503 0.0
Zn381 Zn 0.21541 0.43247 0.82527 0.0
C382 C 0.29341 0.50097 0.81365 0.0
N383 N 0.21723 0.53594 0.8345 0.0
C384 C 0.19157 0.53669 0.79591 0.0
C385 C 0.23865 0.56494 0.87296 0.0
C386 C 0.23508 0.59659 0.87243 0.0
C387 C 0.20946 0.59828 0.83162 0.0
C388 C 0.18737 0.56774 0.79347 0.0
Zn389 Zn 0.22093 0.48895 0.83061 0.0
O390 O 0.20743 0.43246 0.73064 0.0
C391 C 0.14239 0.42554 0.84775 0.0
O392 O 0.21654 0.48905 0.73215 0.0
H393 H 0.25876 0.5637 0.90336 0.0
H394 H 0.18235 0.36137 0.74038 0.0
H395 H 0.17434 0.51317 0.76634 0.0
O396 O 0.15453 0.40273 0.84304 0.0
O397 O 0.16464 0.45984 0.84198 0.0
H398 H 0.26436 0.40561 0.88204 0.0
O399 O 0.22872 0.48832 0.92926 0.0
O400 O 0.22426 0.43356 0.91856 0.0
O401 O 0.27661 0.51887 0.82092 0.0
O402 O 0.27539 0.46563 0.81195 0.0
C403 C 0.23042 0.461 0.95255 0.0
H404 H 0.20455 0.31959 0.7056 0.0
H405 H 0.28828 0.36502 0.85012 0.0
H406 H 0.25294 0.61992 0.90209 0.0
H407 H 0.16719 0.56798 0.76176 0.0
C408 C 0.92593 0.79502 0.78623 0.0
N409 N 1.01468 0.86917 0.66836 0.0
C410 C 1.02189 0.89834 0.70615 0.0
C411 C 0.05707 0.93007 0.70589 0.0
C412 C 0.08474 0.93169 0.66603 0.0
C413 C 0.07667 0.90102 0.62848 0.0
C414 C 0.04143 0.86987 0.63066 0.0
Zn415 Zn 0.96401 0.82208 0.6644 0.0
C416 C 0.9789 0.75878 0.68378 0.0
N417 N 0.85944 0.71842 0.64803 0.0
C418 C 0.8308 0.71867 0.67874 0.0
C419 C 0.85222 0.69399 0.60017 0.0
C420 C 0.81568 0.67046 0.57947 0.0
C421 C 0.78577 0.67173 0.60795 0.0
C422 C 0.79388 0.69549 0.65975 0.0
Zn423 Zn 0.91277 0.76563 0.65956 0.0
O424 O 0.95504 0.82211 0.76264 0.0
C425 C 0.90355 0.83413 0.64572 0.0
O426 O 0.90473 0.76726 0.75276 0.0
H427 H 0.87492 0.69418 0.57528 0.0
H428 H 1.00028 0.89716 0.73583 0.0
H429 H 0.83656 0.73876 0.71544 0.0
O430 O 0.93828 0.85196 0.65272 0.0
O431 O 0.88607 0.79878 0.64512 0.0
H432 H 0.03543 0.84623 0.60162 0.0
O433 O 0.92109 0.76521 0.56502 0.0
O434 O 0.96913 0.8215 0.56634 0.0
O435 O 0.94396 0.73599 0.67855 0.0
O436 O 0.99108 0.79307 0.67766 0.0
C437 C 0.94589 0.79312 0.53606 0.0
H438 H 0.06224 0.95349 0.73505 0.0
H439 H 0.09736 0.90119 0.59752 0.0
H440 H 0.81105 0.65206 0.54034 0.0
H441 H 0.77212 0.69777 0.68338 0.0
C442 C 0.24348 0.14065 0.78667 0.0
N443 N 0.16868 0.15374 0.66829 0.0
C444 C 0.13963 0.13206 0.70643 0.0
C445 C 0.10793 0.13549 0.70581 0.0
C446 C 0.10625 0.16124 0.66523 0.0
C447 C 0.13682 0.18357 0.62736 0.0
C448 C 0.16791 0.1795 0.62988 0.0
Zn449 Zn 0.21576 0.15031 0.66467 0.0
C450 C 0.27885 0.229 0.68239 0.0
N451 N 0.31949 0.1503 0.64851 0.0
C452 C 0.31938 0.12157 0.6796 0.0
C453 C 0.34397 0.1676 0.60079 0.0
C454 C 0.36771 0.15477 0.58056 0.0
C455 C 0.36656 0.12373 0.60941 0.0
C456 C 0.34275 0.10802 0.66108 0.0
Zn457 Zn 0.27226 0.15605 0.65952 0.0
O458 O 0.21614 0.14223 0.76334 0.0
C459 C 0.20407 0.07783 0.64733 0.0
O460 O 0.27098 0.14706 0.75275 0.0
H461 H 0.34366 0.18999 0.57566 0.0
H462 H 0.14087 0.11187 0.73669 0.0
H463 H 0.29926 0.10721 0.71623 0.0
O464 O 0.1861 0.09456 0.6545 0.0
O465 O 0.23937 0.09596 0.64594 0.0
H466 H 0.19146 0.19693 0.60054 0.0
O467 O 0.27249 0.16417 0.56486 0.0
O468 O 0.21593 0.15496 0.56618 0.0
O469 O 0.3017 0.21695 0.67757 0.0
O470 O 0.24461 0.20667 0.6765 0.0
C471 C 0.24433 0.16027 0.53586 0.0
H472 H 0.08458 0.11744 0.73524 0.0
H473 H 0.1366 0.20387 0.59586 0.0
H474 H 0.38616 0.16857 0.54152 0.0
H475 H 0.34059 0.08407 0.68494 0.0
C476 C 0.89771 0.11253 0.78436 0.0
N477 N 0.88415 0.02351 0.66774 0.0
C478 C 0.90586 0.01629 0.70598 0.0
C479 C 0.90251 0.98114 0.70564 0.0
C480 C 0.87682 0.95353 0.66519 0.0
C481 C 0.85439 0.96158 0.62732 0.0
C482 C 0.85836 0.99677 0.6296 0.0
Zn483 Zn 0.88785 0.07423 0.66296 0.0
C484 C 0.80946 0.05919 0.68014 0.0
N485 N 0.88901 0.17876 0.64436 0.0
C486 C 0.91767 0.20741 0.67558 0.0
C487 C 0.87236 0.18602 0.59573 0.0
C488 C 0.88575 0.22263 0.57484 0.0
C489 C 0.91672 0.25254 0.60391 0.0
C490 C 0.93178 0.24437 0.65639 0.0
Zn491 Zn 0.88262 0.12539 0.65682 0.0
O492 O 0.89596 0.08339 0.76141 0.0
C493 C 0.96045 0.13476 0.64529 0.0
O494 O 0.89154 0.13368 0.75012 0.0
H495 H 0.85004 0.16331 0.57043 0.0
H496 H 0.92608 0.0379 0.736 0.0
H497 H 0.93158 0.20161 0.71289 0.0
O498 O 0.94351 0.10002 0.65276 0.0
O499 O 0.94257 0.15216 0.64351 0.0
H500 H 0.84092 1.00276 0.60016 0.0
O501 O 0.87454 0.1168 0.56225 0.0
O502 O 0.88309 0.06899 0.56466 0.0
O503 O 0.82168 0.09417 0.6747 0.0
O504 O 0.83161 0.04707 0.67482 0.0
C505 C 0.87797 0.09204 0.53384 0.0
H506 H 0.9206 0.97598 0.73509 0.0
H507 H 0.83414 0.94092 0.59591 0.0
H508 H 0.87241 0.2273 0.53515 0.0
H509 H 0.95564 0.26612 0.6805 0.0
C510 C 0.24409 0.09271 0.03572 0.0
N511 N 0.31914 0.17912 0.14689 0.0
C512 C 0.34328 0.18651 0.09854 0.0
C513 C 0.36642 0.22314 0.07768 0.0
C514 C 0.36505 0.25294 0.10654 0.0
C515 C 0.34162 0.24467 0.15879 0.0
C516 C 0.31882 0.20767 0.17792 0.0
Zn517 Zn 0.27237 0.12555 0.15899 0.0
C518 C 0.20341 0.1342 0.1476 0.0
N519 N 0.16957 0.02311 0.16904 0.0
C520 C 0.16916 0.99677 0.13054 0.0
C521 C 0.1406 1.01515 0.20774 0.0
C522 C 0.10935 0.97961 0.20758 0.0
C523 C 0.10803 0.95234 0.16692 0.0
C524 C 0.13852 0.96119 0.1285 0.0
Zn525 Zn 0.21616 0.07417 0.1648 0.0
O526 O 0.27228 0.11723 0.06445 0.0
C527 C 0.27991 0.0597 0.18181 0.0
O528 O 0.21585 0.06951 0.0663 0.0
H529 H 0.14156 0.03644 0.23809 0.0
H530 H 0.34315 0.16388 0.07342 0.0
H531 H 0.19264 1.00334 0.10076 0.0
O532 O 0.30252 0.09475 0.17705 0.0
O533 O 0.24563 0.04742 0.17602 0.0
H534 H 0.29894 0.20175 0.21503 0.0
O535 O 0.217 0.08281 0.26344 0.0
O536 O 0.27135 0.13361 0.25228 0.0
O537 O 0.18585 0.09947 0.15534 0.0
O538 O 0.23871 0.15184 0.14543 0.0
C539 C 0.24413 0.11212 0.28649 0.0
H540 H 0.3846 0.22791 0.03818 0.0
H541 H 0.33929 0.26634 0.18272 0.0
H542 H 0.08603 0.97385 0.23741 0.0
H543 H 0.13859 0.94084 0.0969 0.0
C544 C 0.9452 0.16082 0.03372 0.0
N545 N 0.85959 0.15013 0.14664 0.0
C546 C 0.85245 0.1675 0.09904 0.0
C547 C 0.81587 0.15478 0.079 0.0
C548 C 0.78593 0.12376 0.10791 0.0
C549 C 0.79402 0.10799 0.15946 0.0
C550 C 0.83094 0.12144 0.1778 0.0
Zn551 Zn 0.91248 0.15553 0.15732 0.0
C552 C 0.90187 0.07727 0.14231 0.0
N553 N 1.01338 0.1524 0.16576 0.0
C554 C 0.04034 0.17847 0.12829 0.0
C555 C 1.02024 0.1302 0.20344 0.0
C556 C 0.0553 0.13348 0.20345 0.0
C557 C 0.08323 0.15964 0.16401 0.0
C558 C 0.07548 0.18241 0.12641 0.0
Zn559 Zn 0.96309 0.14949 0.16212 0.0
O560 O 0.9207 0.16435 0.06274 0.0
C561 C 0.9792 0.22816 0.18219 0.0
O562 O 0.96821 0.15539 0.06398 0.0
H563 H 0.99847 0.10977 0.23295 0.0
H564 H 0.87517 0.18985 0.07383 0.0
H565 H 0.03462 0.19631 0.09935 0.0
O566 O 0.94436 0.21635 0.17672 0.0
O567 O 0.99094 0.20571 0.17598 0.0
H568 H 0.83665 0.10698 0.21428 0.0
O569 O 0.95409 0.14027 0.26046 0.0
O570 O 0.90447 0.14582 0.25042 0.0
O571 O 0.93658 0.09379 0.14967 0.0
O572 O 0.88486 0.09555 0.14222 0.0
C573 C 0.92526 0.13881 0.28398 0.0
H574 H 0.81123 0.16862 0.04004 0.0
H575 H 0.77221 0.08406 0.18335 0.0
H576 H 0.06021 0.11509 0.23263 0.0
H577 H 0.09638 0.20304 0.09579 0.0
C578 C 0.88006 0.7963 0.03628 0.0
N579 N 0.88814 0.71848 0.14637 0.0
C580 C 0.87161 0.69513 0.09693 0.0
C581 C 0.88435 0.67138 0.07605 0.0
C582 C 0.91457 0.67139 0.10588 0.0
C583 C 0.92943 0.69404 0.15913 0.0
C584 C 0.91596 0.71738 0.17835 0.0
Zn585 Zn 0.88386 0.76666 0.15899 0.0
C586 C 0.96262 0.83298 0.14829 0.0
N587 N 0.89037 0.87254 0.17076 0.0
C588 C 0.9108 0.89937 0.12811 0.0
C589 C 0.86621 0.87573 0.2097 0.0
C590 C 0.86074 0.90611 0.20462 0.0
C591 C 0.88059 0.93361 0.15945 0.0
C592 C 0.90653 0.9303 0.12196 0.0
Zn593 Zn 0.89065 0.82373 0.16531 0.0
O594 O 0.87602 0.7678 0.06448 0.0
C595 C 0.81145 0.76227 0.1812 0.0
O596 O 0.88589 0.82472 0.06724 0.0
H597 H 0.85006 0.854 0.2431 0.0
H598 H 0.85001 0.69642 0.07098 0.0
H599 H 0.92963 0.89624 0.09723 0.0
O600 O 0.82298 0.73894 0.17681 0.0
O601 O 0.83419 0.79649 0.17536 0.0
H602 H 0.92987 0.73668 0.21625 0.0
O603 O 0.89811 0.82208 0.26363 0.0
O604 O 0.89252 0.76686 0.25231 0.0
O605 O 0.94654 0.8515 0.15636 0.0
O606 O 0.94384 0.79773 0.1456 0.0
C607 C 0.89916 0.79434 0.28658 0.0
H608 H 0.87114 0.65385 0.03574 0.0
H609 H 0.95276 0.69542 0.18384 0.0
H610 H 0.8405 0.90747 0.23461 0.0
H611 H 0.92337 0.95134 0.08787 0.0
C612 C 0.54107 0.19831 0.04325 0.0
C613 C 0.54648 0.18673 -0.01562 0.0
H614 H 0.53485 0.23918 0.09435 0.0
C615 C 0.54461 0.2046 0.93009 0.0
H616 H 0.5435 0.18539 0.08574 0.0
C617 C 0.53984 0.2354 0.93494 0.0
C618 C 0.5377 0.24904 -0.00576 0.0
H619 H 0.54997 0.19674 0.8845 0.0
H620 H 0.54081 0.25024 0.89261 0.0
C621 C 0.53682 0.22937 0.04822 0.0
C622 C 0.80797 0.31689 0.04019 0.0
C623 C 0.78655 0.29897 -0.01309 0.0
H624 H 0.85345 0.36679 0.0771 0.0
C625 C 0.79965 0.31506 0.92749 0.0
H626 H 0.79872 0.30549 0.08665 0.0
C627 C 0.83093 0.3503 0.9223 0.0
C628 C 0.85005 0.36945 -0.02378 0.0
H629 H 0.78439 0.30152 0.88531 0.0
H630 H 0.83826 0.36381 0.8769 0.0
C631 C 0.83953 0.35189 0.03478 0.0
C632 C 0.68642 0.48846 0.92677 0.0
C633 C 0.66649 0.48597 -0.01885 0.0
H634 H 0.73595 0.49265 0.88895 0.0
C635 C 0.68309 0.49024 0.04009 0.0
H636 H 0.67349 0.48398 0.88106 0.0
C637 C 0.71828 0.49427 0.04488 0.0
C638 C 0.73735 0.49423 -0.00932 0.0
H639 H 0.66758 0.48733 0.08261 0.0
H640 H 0.72981 0.49558 0.09097 0.0
C641 C 0.72187 0.49297 0.93146 0.0
C642 C 0.80475 0.49373 0.54559 0.0
C643 C 0.78573 0.49412 0.4916 0.0
H644 H 0.84837 0.4864 0.5827 0.0
C645 C 0.79997 0.49315 0.4322 0.0
H646 H 0.79453 0.49481 0.59181 0.0
C647 C 0.83085 0.48857 0.42707 0.0
C648 C 0.8482 0.48567 0.48121 0.0
H649 H 0.78565 0.49316 0.38983 0.0
H650 H 0.83931 0.48434 0.38117 0.0
C651 C 0.83585 0.48962 0.54037 0.0
C652 C 0.53777 0.31701 0.54056 0.0
C653 C 0.54132 0.29917 0.48718 0.0
H654 H 0.54218 0.36684 0.57777 0.0
C655 C 0.54447 0.31542 0.42787 0.0
H656 H 0.53551 0.3055 0.58696 0.0
C657 C 0.5485 0.35069 0.42289 0.0
C658 C 0.54843 0.36972 0.47692 0.0
H659 H 0.54623 0.30195 0.3856 0.0
H660 H 0.55477 0.36429 0.37757 0.0
C661 C 0.54127 0.35203 0.53536 0.0
C662 C 0.68592 0.19804 0.54212 0.0
C663 C 0.66873 0.18659 0.48339 0.0
H664 H 0.73323 0.23876 0.59293 0.0
C665 C 0.68833 0.20452 0.429 0.0
H666 H 0.67068 0.18507 0.5847 0.0
C667 C 0.72396 0.23525 0.43363 0.0
C668 C 0.73995 0.24878 0.49284 0.0
H669 H 0.67496 0.19675 0.38353 0.0
H670 H 0.73772 0.25015 0.39126 0.0
C671 C 0.7213 0.22904 0.54688 0.0
C672 C 0.20789 0.5647 0.38085 0.0
C673 C 0.20797 0.58409 0.32701 0.0
H674 H 0.21531 0.52104 0.41781 0.0
C675 C 0.20978 0.5704 0.26754 0.0
H676 H 0.20619 0.57452 0.42712 0.0
C677 C 0.21481 0.53977 0.2623 0.0
C678 C 0.21728 0.5221 0.31637 0.0
H679 H 0.21016 0.58503 0.2253 0.0
H680 H 0.21971 0.53178 0.21647 0.0
C681 C 0.21243 0.53382 0.37551 0.0
C682 C 0.50513 0.68753 0.37294 0.0
C683 C 0.51642 0.7042 0.31378 0.0
H684 H 0.46463 0.64061 0.42491 0.0
C685 C 0.49819 0.68417 0.25989 0.0
H686 H 0.51832 0.70312 0.41514 0.0
C687 C 0.46746 0.64856 0.2654 0.0
C688 C 0.45421 0.63301 0.32499 0.0
H689 H 0.50582 0.69714 0.21409 0.0
H690 H 0.45242 0.63441 0.22337 0.0
C691 C 0.47413 0.65218 0.37858 0.0
C692 C 0.38578 0.82967 0.37988 0.0
C693 C 0.40498 0.82961 0.32585 0.0
H694 H 0.33489 0.82243 0.41723 0.0
C695 C 0.3895 0.82806 0.26651 0.0
H696 H 0.3973 0.8312 0.42606 0.0
C697 C 0.35395 0.82326 0.26155 0.0
C698 C 0.33391 0.82075 0.31578 0.0
H699 H 0.40367 0.82771 0.22413 0.0
H700 H 0.34105 0.81854 0.21578 0.0
C701 C 0.35049 0.82536 0.37482 0.0
C702 C 0.50409 0.82566 0.87397 0.0
C703 C 0.51588 0.82089 0.81484 0.0
H704 H 0.46327 0.83162 0.92557 0.0
C705 C 0.49816 0.82325 0.76077 0.0
H706 H 0.51691 0.82285 0.91628 0.0
C707 C 0.46744 0.82808 0.76599 0.0
C708 C 0.45371 0.82979 0.82546 0.0
H709 H 0.50618 0.81839 0.71494 0.0
H710 H 0.45279 0.82762 0.72375 0.0
C711 C 0.47313 0.82999 0.87931 0.0
C712 C 0.2069 0.65181 0.87926 0.0
C713 C 0.20767 0.63268 0.82563 0.0
H714 H 0.21372 0.70275 0.91594 0.0
C715 C 0.2101 0.6483 0.76607 0.0
H716 H 0.20473 0.64018 0.92556 0.0
C717 C 0.21509 0.68393 0.76065 0.0
C718 C 0.21687 0.70392 0.81459 0.0
H719 H 0.21101 0.63416 0.72402 0.0
H720 H 0.22051 0.69695 0.71488 0.0
C721 C 0.21135 0.68719 0.87371 0.0
C722 C 0.35384 0.53963 0.76219 0.0
C723 C 0.33373 0.52206 0.81638 0.0
H724 H 0.40371 0.58486 0.72492 0.0
C725 C 0.35033 0.5339 0.87544 0.0
H726 H 0.34092 0.53154 0.71642 0.0
C727 C 0.38575 0.56481 0.8806 0.0
C728 C 0.40501 0.58411 0.82664 0.0
H729 H 0.33469 0.52119 0.91781 0.0
H730 H 0.39729 0.57473 0.92681 0.0
C731 C 0.38949 0.5703 0.76725 0.0
C732 C 0.87759 0.90413 0.59976 0.0
C733 C 0.87526 0.91742 0.65929 0.0
H734 H 0.88787 0.86579 0.54857 0.0
C735 C 0.87471 0.89768 0.71297 0.0
H736 H 0.87833 0.91905 0.55766 0.0
C737 C 0.87917 0.86676 0.70746 0.0
C738 C 0.88448 0.85538 0.64832 0.0
H739 H 0.87264 0.90723 0.75927 0.0
H740 H 0.88162 0.85367 0.7497 0.0
C741 C 0.8826 0.87349 0.59436 0.0
C742 C 0.16547 0.01728 0.59596 0.0
C743 C 0.18307 0.03745 0.65009 0.0
H744 H 0.12022 0.96733 0.55881 0.0
C745 C 0.17124 0.02085 0.70919 0.0
H746 H 0.17354 0.03018 0.55015 0.0
C747 C 0.14032 0.98543 0.71443 0.0
C748 C 0.121 0.96612 0.66052 0.0
H749 H 0.18396 0.03654 0.75153 0.0
H750 H 0.13039 0.97393 0.76066 0.0
C751 C 0.1348 0.9816 0.60109 0.0
C752 C 1.02091 0.15615 0.59427 0.0
C753 C 1.00076 0.15394 0.64821 0.0
H754 H 0.07073 0.1605 0.55763 0.0
C755 C 1.01724 0.15892 0.70742 0.0
H756 H 1.00807 0.15114 0.5484 0.0
C757 C 0.05256 0.16333 0.713 0.0
C758 C 0.07186 0.163 0.65931 0.0
H759 H 1.00156 0.15623 0.74962 0.0
H760 H 0.064 0.16513 0.75933 0.0
C761 C 0.05647 0.16106 0.59974 0.0
C762 C 0.16939 0.15707 0.20905 0.0
C763 C 0.18199 0.15307 0.15016 0.0
H764 H 0.12787 0.16232 0.25967 0.0
C765 C 0.16493 0.15601 0.09566 0.0
H766 H 0.1817 0.15384 0.25163 0.0
C767 C 0.13406 0.16063 0.10017 0.0
C768 C 0.11954 0.1616 0.1593 0.0
H769 H 0.1736 0.15176 0.04997 0.0
H770 H 0.11993 0.16063 0.05755 0.0
C771 C 0.13831 0.16124 0.21365 0.0
C772 C 0.87168 0.984 0.20604 0.0
C773 C 0.87577 0.96648 0.15272 0.0
H774 H 0.87541 0.03351 0.24342 0.0
C775 C 0.87923 0.98293 0.0935 0.0
H776 H 0.86915 0.97233 0.25237 0.0
C777 C 0.883 0.0181 0.08865 0.0
C778 C 0.88236 0.03683 0.14269 0.0
H779 H 0.8814 0.96971 0.05124 0.0
H780 H 0.88951 0.03187 0.04348 0.0
C781 C 0.87492 0.01893 0.20096 0.0
C782 C 0.05496 0.89602 0.21509 0.0
C783 C 0.07398 0.91576 0.16127 0.0
H784 H 1.00413 0.85199 0.25215 0.0
C785 C 0.05847 0.90209 0.10183 0.0
H786 H 0.06651 0.90582 0.26133 0.0
C787 C 0.02295 0.87124 0.09665 0.0
C788 C 1.00295 0.85334 0.15075 0.0
H789 H 0.07251 0.91697 0.0596 0.0
H790 H 1.00994 0.86339 0.05091 0.0
C791 C 1.01968 0.86492 0.2098 0.0
C792 C 0.53556 0.09718 0.27074 0.0
C793 C 0.55079 0.1303 0.30486 0.0
H794 H 0.53722 0.07045 0.18693 0.0
C795 C 0.57849 0.16342 0.27788 0.0
H796 H 0.51444 0.07128 0.29108 0.0
C797 C 0.59228 0.16289 0.21853 0.0
C798 C 0.57815 0.12932 0.18568 0.0
H799 H 0.59111 0.18917 0.30412 0.0
H800 H 0.61406 0.18856 0.19869 0.0
C801 C 0.5491 0.09668 0.21167 0.0
C802 C 0.87467 0.42407 0.27201 0.0
C803 C 0.90799 0.42992 0.29865 0.0
H804 H 0.849 0.43413 0.19314 0.0
C805 C 0.941 0.44863 0.26453 0.0
H806 H 0.84898 0.41033 0.29828 0.0
C807 C 0.94116 0.46285 0.2058 0.0
C808 C 0.90826 0.45858 0.17993 0.0
H809 H 0.96705 0.4538 0.28457 0.0
H810 H 0.96732 0.47774 0.18109 0.0
C811 C 0.87483 0.43851 0.21285 0.0
C812 C 0.58796 0.5011 0.26619 0.0
C813 C 0.6066 0.48662 0.29999 0.0
H814 H 0.55861 0.49835 0.18307 0.0
C815 C 0.61199 0.45885 0.27318 0.0
H816 H 0.58311 0.52219 0.28638 0.0
C817 C 0.59717 0.44446 0.21428 0.0
C818 C 0.5772 0.45801 0.18167 0.0
H819 H 0.62564 0.44674 0.29918 0.0
H820 H 0.60122 0.42279 0.19446 0.0
C821 C 0.5734 0.48694 0.20761 0.0
C822 C 0.87565 0.45826 0.77173 0.0
C823 C 0.90884 0.48597 0.79854 0.0
H824 H 0.85033 0.42222 0.693 0.0
C825 C 0.942 0.50031 0.76483 0.0
H826 H 0.84985 0.44626 0.79767 0.0
C827 C 0.94241 0.48608 0.70633 0.0
C828 C 0.90963 0.45724 0.68035 0.0
H829 H 0.96796 0.52136 0.78503 0.0
H830 H 0.96864 0.4974 0.68184 0.0
C831 C 0.87608 0.44381 0.71287 0.0
C832 C 0.55014 0.46251 0.70712 0.0
C833 C 0.57888 0.45839 0.68131 0.0
H834 H 0.51516 0.45344 0.78593 0.0
C835 C 0.59232 0.43843 0.7143 0.0
H836 H 0.5388 0.47731 0.68236 0.0
C837 C 0.57805 0.42402 0.77349 0.0
C838 C 0.55051 0.42979 0.80012 0.0
H839 H 0.61386 0.43416 0.69465 0.0
H840 H 0.59009 0.41041 0.79983 0.0
C841 C 0.53609 0.44833 0.7659 0.0
C842 C 0.59033 0.09742 0.77067 0.0
C843 C 0.6081 0.13052 0.80483 0.0
H844 H 0.5621 0.07067 0.68679 0.0
C845 C 0.61348 0.16362 0.77786 0.0
H846 H 0.58559 0.07154 0.791 0.0
C847 C 0.59923 0.16307 0.71846 0.0
C848 C 0.57989 0.1295 0.68557 0.0
H849 H 0.62652 0.18935 0.80413 0.0
H850 H 0.60307 0.18871 0.69863 0.0
C851 C 0.57636 0.09689 0.71156 0.0
C852 C 0.21859 0.42925 0.54227 0.0
C853 C 0.24729 0.46214 0.51629 0.0
H854 H 0.18337 0.40351 0.6209 0.0
C855 C 0.26061 0.4957 0.54891 0.0
H856 H 0.20735 0.403 0.51776 0.0
C857 C 0.24617 0.49601 0.60784 0.0
C858 C 0.21856 0.46271 0.63458 0.0
H859 H 0.2821 0.52152 0.52906 0.0
H860 H 0.25807 0.52181 0.63386 0.0
C861 C 0.20435 0.42956 0.60078 0.0
C862 C 0.54212 0.7734 0.54751 0.0
C863 C 0.57564 0.79341 0.51478 0.0
H864 H 0.51599 0.74503 0.63265 0.0
C865 C 0.60838 0.79732 0.54068 0.0
H866 H 0.51639 0.76928 0.52775 0.0
C867 C 0.60799 0.78282 0.59928 0.0
C868 C 0.5749 0.76419 0.63323 0.0
H869 H 0.63459 0.81214 0.51611 0.0
H870 H 0.63395 0.78774 0.61938 0.0
C871 C 0.54172 0.75869 0.60652 0.0
C872 C 0.27909 0.79252 0.60721 0.0
C873 C 0.27344 0.82009 0.63414 0.0
H874 H 0.2686 0.75662 0.52834 0.0
C875 C 0.25455 0.83434 0.60048 0.0
H876 H 0.29295 0.78059 0.63311 0.0
C877 C 0.24001 0.82016 0.54192 0.0
C878 C 0.24411 0.79145 0.51582 0.0
H879 H 0.24951 0.85529 0.62076 0.0
H880 H 0.22504 0.83141 0.51749 0.0
C881 C 0.26432 0.77811 0.54829 0.0
C882 C 0.54266 0.77826 0.04752 0.0
C883 C 0.57619 0.79159 0.01493 0.0
H884 H 0.51654 0.78078 0.13241 0.0
C885 C 0.60903 0.82033 0.04094 0.0
H886 H 0.51687 0.75675 0.02765 0.0
C887 C 0.6087 0.83455 0.0995 0.0
C888 C 0.57557 0.82031 0.13327 0.0
H889 H 0.63525 0.83157 0.01644 0.0
H890 H 0.63471 0.85552 0.11968 0.0
C891 C 0.54233 0.7927 0.10644 0.0
C892 C 0.2603 0.77327 0.04845 0.0
C893 C 0.2468 0.79325 0.01569 0.0
H894 H 0.25804 0.74497 0.13365 0.0
C895 C 0.21799 0.79721 0.04161 0.0
H896 H 0.28189 0.76911 0.02867 0.0
C897 C 0.20387 0.78276 0.10022 0.0
C898 C 0.21831 0.76415 0.13419 0.0
H899 H 0.2066 0.81201 0.01701 0.0
H900 H 0.18284 0.78771 0.12032 0.0
C901 C 0.24598 0.75861 0.10749 0.0
C902 C 0.26397 0.4956 0.04888 0.0
C903 C 0.24377 0.46201 0.01633 0.0
H904 H 0.29268 0.52182 0.1337 0.0
C905 C 0.2397 0.42918 0.04231 0.0
H906 H 0.26823 0.52139 0.02902 0.0
C907 C 0.25433 0.42958 0.10076 0.0
C908 C 0.27325 0.46277 0.13449 0.0
H909 H 0.22471 0.40291 0.01785 0.0
H910 H 0.24935 0.40357 0.1209 0.0
C911 C 0.27881 0.49601 0.10773 0.0
C912 C 0.92853 0.83022 0.8828 0.0
C913 C 0.91366 0.7966 0.84986 0.0
H914 H 0.92798 0.85682 0.96848 0.0
C915 C 0.884 0.76435 0.87575 0.0
H916 H 0.95081 0.8556 0.86308 0.0
C917 C 0.87052 0.76524 0.93467 0.0
C918 C 0.88643 0.79834 0.9689 0.0
H919 H 0.87154 0.7381 0.85102 0.0
H920 H 0.84887 0.73959 0.95485 0.0
C921 C 0.91483 0.83112 0.94212 0.0
C922 C 0.20902 0.10706 0.88315 0.0
C923 C 0.24252 0.12722 0.85041 0.0
H924 H 0.18299 0.07843 0.96817 0.0
C925 C 0.27533 0.13123 0.87619 0.0
H926 H 0.18325 0.10285 0.86347 0.0
C927 C 0.27502 0.11661 0.93462 0.0
C928 C 0.24195 0.09777 0.96856 0.0
H929 H 0.30152 0.14618 0.8516 0.0
H930 H 0.30102 0.12157 0.95459 0.0
C931 C 0.20872 0.09224 0.94202 0.0
C932 C 0.90668 0.15363 0.87414 0.0
C933 C 0.91103 0.12506 0.84811 0.0
H934 H 0.91586 0.18868 0.95299 0.0
C935 C 0.9314 0.11194 0.88065 0.0
H936 H 0.89157 0.16471 0.84964 0.0
C937 C 0.94609 0.12642 0.93957 0.0
C938 C 0.94018 0.15383 0.96647 0.0
H939 H 0.93588 0.09057 0.86075 0.0
H940 H 0.96009 0.11464 0.96549 0.0
C941 C 0.92112 0.16787 0.93275 0.0
C942 C 0.20961 0.11095 0.38296 0.0
C943 C 0.24315 0.12444 0.35034 0.0
H944 H 0.18342 0.11333 0.46788 0.0
C945 C 0.27593 0.15326 0.37635 0.0
H946 H 0.18386 0.08936 0.36309 0.0
C947 C 0.27553 0.16744 0.43491 0.0
C948 C 0.24239 0.15308 0.46868 0.0
H949 H 0.30215 0.16462 0.35182 0.0
H950 H 0.3015 0.1885 0.45508 0.0
C951 C 0.2092 0.12535 0.4419 0.0
C952 C 0.92653 0.10555 0.38059 0.0
C953 C 0.91275 0.12523 0.34766 0.0
H954 H 0.92472 0.07774 0.46614 0.0
C955 C 0.8838 0.12898 0.37353 0.0
H956 H 0.94824 0.10157 0.36089 0.0
C957 C 0.8699 0.11475 0.43235 0.0
C958 C 0.88469 0.09653 0.46652 0.0
H959 H 0.87219 0.14354 0.34881 0.0
H960 H 0.84881 0.11959 0.45244 0.0
C961 C 0.91241 0.09109 0.43982 0.0
C962 C 0.93305 0.82849 0.38281 0.0
C963 C 0.91232 0.79496 0.35033 0.0
H964 H 0.96183 0.8544 0.46766 0.0
C965 C 0.90743 0.76185 0.37643 0.0
H966 H 0.93794 0.85448 0.36285 0.0
C967 C 0.92168 0.76192 0.43512 0.0
C968 C 0.94108 0.79509 0.4688 0.0
H969 H 0.89205 0.73563 0.35194 0.0
H970 H 0.91602 0.73574 0.45546 0.0
C971 C 0.94756 0.82858 0.44178 0.0
C972 C 0.37108 0.95316 0.82788 0.0
C973 C 0.34076 0.93317 0.86835 0.0
H974 H 0.42933 0.9912 0.8186 0.0
C975 C 0.34647 0.94079 0.93298 0.0
H976 H 0.36806 0.94709 0.77809 0.0
C977 C 0.38208 0.96534 0.95679 0.0
C978 C 0.41309 0.98281 0.91656 0.0
H979 H 0.32422 0.92479 0.96579 0.0
H980 H 0.38565 0.96844 0.00713 0.0
C981 C 0.4066 0.97762 0.85148 0.0
C982 C 0.07159 0.42484 0.95449 0.0
C983 C 0.05455 0.43861 0.91388 0.0
H984 H 0.11198 0.40745 0.96438 0.0
C985 C 0.06025 0.43756 0.84893 0.0
H986 H 0.06805 0.42511 0.00476 0.0
C987 C 0.08481 0.42653 0.82586 0.0
C988 C 0.10442 0.41602 0.86677 0.0
H989 H 0.047 0.44692 0.81579 0.0
H990 H 0.09127 0.42978 0.77621 0.0
C991 C 0.09628 0.41383 0.93123 0.0
C992 C 0.61105 0.66712 0.82496 0.0
C993 C 0.62169 0.69737 0.86578 0.0
H994 H 0.59071 0.60883 0.81502 0.0
C995 C 0.62412 0.69153 0.9302 0.0
H996 H 0.60761 0.67023 0.77536 0.0
C997 C 0.61329 0.65583 0.95353 0.0
C998 C 0.59942 0.62489 0.91304 0.0
H999 H 0.63061 0.7137 0.96332 0.0
H1000 H 0.61323 0.65212 0.00379 0.0
C1001 C 0.60017 0.63152 0.8481 0.0
C1002 C 0.06005 0.63171 0.34799 0.0
C1003 C 0.0542 0.62483 0.41289 0.0
H1004 H 0.09135 0.67068 0.27556 0.0
C1005 C 0.07131 0.65562 0.4537 0.0
H1006 H 0.04679 0.60914 0.31469 0.0
C1007 C 0.0962 0.69139 0.43069 0.0
C1008 C 0.10447 0.69748 0.36627 0.0
H1009 H 0.06767 0.65172 0.50394 0.0
H1010 H 0.11193 0.71343 0.46401 0.0
C1011 C 0.0848 0.66739 0.32517 0.0
C1012 C 0.38226 0.42511 0.4549 0.0
C1013 C 0.4132 0.43899 0.41449 0.0
H1014 H 0.32442 0.40764 0.46444 0.0
C1015 C 0.40664 0.43809 0.34951 0.0
H1016 H 0.38592 0.42527 0.50518 0.0
C1017 C 0.3711 0.42708 0.32622 0.0
C1018 C 0.34084 0.41644 0.36694 0.0
H1019 H 0.42934 0.44754 0.31651 0.0
H1020 H 0.36802 0.43042 0.27657 0.0
C1021 C 0.34662 0.41412 0.43142 0.0
C1022 C 0.61062 0.95334 0.32733 0.0
C1023 C 0.6211 0.93344 0.36767 0.0
H1024 H 0.59025 0.99123 0.3183 0.0
C1025 C 0.62307 0.94106 0.43231 0.0
H1026 H 0.60753 0.94726 0.27754 0.0
C1027 C 0.61194 0.96552 0.45626 0.0
C1028 C 0.59828 0.98291 0.41618 0.0
H1029 H 0.62942 0.92511 0.46502 0.0
H1030 H 0.61153 0.96863 0.50662 0.0
C1031 C 0.5995 0.97772 0.35108 0.0
C1032 C 0.07359 0.31056 0.1841 0.0
C1033 C 0.08021 0.31622 0.24908 0.0
H1034 H 0.03494 0.27948 0.1112 0.0
C1035 C 0.04933 0.29892 0.28958 0.0
H1036 H 0.09625 0.32397 0.15105 0.0
C1037 C 1.01369 0.27406 0.26616 0.0
C1038 C 1.00786 0.26605 0.20165 0.0
H1039 H 0.05305 0.30243 0.33986 0.0
H1040 H 0.99154 0.25821 0.29921 0.0
C1041 C 0.03805 0.28585 0.16088 0.0
C1042 C 0.72942 0.77489 0.18249 0.0
C1043 C 0.72307 0.77501 0.2474 0.0
H1044 H 0.76116 0.76816 0.1098 0.0
C1045 C 0.73997 0.76095 0.28774 0.0
H1046 H 0.71634 0.78452 0.14952 0.0
C1047 C 0.765 0.75041 0.26435 0.0
C1048 C 0.7736 0.75334 0.20002 0.0
H1049 H 0.73598 0.76055 0.33797 0.0
H1050 H 0.78044 0.74363 0.2974 0.0
C1051 C 0.75433 0.76435 0.1593 0.0
C1052 C 0.2682 0.96552 0.1831 0.0
C1053 C 0.26689 0.95872 0.24805 0.0
H1054 H 0.27622 1.00441 0.11033 0.0
C1055 C 0.28046 0.98957 0.28871 0.0
H1056 H 0.25898 0.94291 0.14991 0.0
C1057 C 0.29151 0.02532 0.26546 0.0
C1058 C 0.28957 0.03133 0.20094 0.0
H1059 H 0.27999 0.98573 0.33899 0.0
H1060 H 0.29772 0.04741 0.29863 0.0
C1061 C 0.2793 1.00119 0.16003 0.0
C1062 C 0.76331 0.02494 0.7637 0.0
C1063 C 0.77142 0.03079 0.69922 0.0
H1064 H 0.73498 0.98554 0.83739 0.0
C1065 C 0.75164 1.00057 0.65843 0.0
H1066 H 0.77913 0.04711 0.79677 0.0
C1067 C 0.72694 0.96497 0.68164 0.0
C1068 C 0.72126 0.95833 0.74661 0.0
H1069 H 0.75807 1.00368 0.60877 0.0
H1070 H 0.71359 0.94229 0.64858 0.0
C1071 C 0.73848 0.98926 0.7871 0.0
C1072 C 1.01333 0.74741 0.76759 0.0
C1073 C 1.00727 0.74921 0.70307 0.0
H1074 H 0.05295 0.75895 0.84101 0.0
C1075 C 0.0373 0.75932 0.66205 0.0
H1076 H 0.99133 0.74134 0.8008 0.0
C1077 C 0.07291 0.77037 0.68501 0.0
C1078 C 0.07977 0.77179 0.74995 0.0
H1079 H 0.03401 0.76227 0.61233 0.0
H1080 H 0.09545 0.77946 0.65176 0.0
C1081 C 0.04904 0.75839 0.79074 0.0
C1082 C 0.27775 0.28663 0.66078 0.0
C1083 C 0.28827 0.26697 0.70157 0.0
H1084 H 0.25739 0.32449 0.65096 0.0
C1085 C 0.29053 0.27508 0.76604 0.0
H1086 H 0.27446 0.28018 0.61113 0.0
C1087 C 0.27959 0.2998 0.78946 0.0
C1088 C 0.2658 0.31689 0.74898 0.0
H1089 H 0.29696 0.25935 0.79909 0.0
H1090 H 0.27937 0.30332 0.83974 0.0
C1091 C 0.26677 0.31122 0.684 0.0
C1092 C 0.7048 0.61855 0.49446 0.0
C1093 C 0.67446 0.59897 0.53507 0.0
H1094 H 0.76306 0.65649 0.48487 0.0
C1095 C 0.68018 0.60716 0.59954 0.0
H1096 H 0.70178 0.61204 0.44483 0.0
C1097 C 0.7158 0.63203 0.62309 0.0
C1098 C 0.7468 0.64914 0.58279 0.0
H1099 H 0.65793 0.59148 0.63251 0.0
H1100 H 0.7194 0.63569 0.67337 0.0
C1101 C 0.74031 0.64325 0.51782 0.0
C1102 C 0.40654 0.09398 0.62545 0.0
C1103 C 0.38931 0.10749 0.58473 0.0
H1104 H 0.44728 0.07707 0.63551 0.0
C1105 C 0.39522 0.10666 0.51982 0.0
H1106 H 0.40285 0.09413 0.67569 0.0
C1107 C 0.42007 0.09599 0.49687 0.0
C1108 C 0.43974 0.08563 0.53788 0.0
H1109 H 0.38186 0.11586 0.48662 0.0
H1110 H 0.42659 0.09929 0.44724 0.0
C1111 C 0.43153 0.08335 0.60231 0.0
C1112 C 0.94555 0.33378 0.49046 0.0
C1113 C 0.95595 0.36405 0.53114 0.0
H1114 H 0.92525 0.27548 0.48079 0.0
C1115 C 0.95811 0.35824 0.59567 0.0
H1116 H 0.94232 0.33686 0.44076 0.0
C1117 C 0.94716 0.32256 0.61919 0.0
C1118 C 0.93346 0.29159 0.57879 0.0
H1119 H 0.96442 0.38043 0.62866 0.0
H1120 H 0.94685 0.31889 0.66949 0.0
C1121 C 0.93456 0.29819 0.51379 0.0
C1122 C 0.40453 0.32298 0.12172 0.0
C1123 C 0.38728 0.29199 0.08138 0.0
H1124 H 0.44513 0.38087 0.13107 0.0
C1125 C 0.39276 0.29855 0.01636 0.0
H1126 H 0.40116 0.31931 0.17203 0.0
C1127 C 0.4173 0.33413 -0.00706 0.0
C1128 C 0.43719 0.36443 0.03356 0.0
H1129 H 0.37936 0.2758 -0.01659 0.0
H1130 H 0.42359 0.33718 0.94323 0.0
C1131 C 0.42924 0.35866 0.09811 0.0
C1132 C 0.7162 0.09403 0.12432 0.0
C1133 C 0.74691 0.1076 0.08344 0.0
H1134 H 0.65854 0.07705 0.13476 0.0
C1135 C 0.74009 0.10683 0.01858 0.0
H1136 H 0.7201 0.09413 0.17453 0.0
C1137 C 0.70452 0.09615 -0.00414 0.0
C1138 C 0.67452 0.08571 0.03705 0.0
H1139 H 0.76261 0.11608 -0.01474 0.0
H1140 H 0.70123 0.09949 0.94628 0.0
C1141 C 0.68054 0.08338 0.10141 0.0
C1142 C 0.94299 0.61856 -0.0075 0.0
C1143 C 0.95327 0.59867 0.03321 0.0
H1144 H 0.92308 0.6568 -0.0173 0.0
C1145 C 0.95513 0.60643 0.09778 0.0
H1146 H 0.93996 0.61237 0.94275 0.0
C1147 C 0.94421 0.63116 0.12127 0.0
C1148 C 0.93086 0.64868 0.0808 0.0
H1149 H 0.9613 0.59048 0.13077 0.0
H1150 H 0.94374 0.6344 0.17158 0.0
C1151 C 0.9321 0.64323 0.01579 0.0
loop_
_geom_bond_atom_site_label_1
_geom_bond_atom_site_label_2
_geom_bond_distance
_geom_bond_site_symmetry_2
_ccdc_geom_bond_type
C0 O16 1.251 . S
C0 O18 1.254 . S
N1 C2 1.333 . S
N1 C6 1.307 1_554 S
N1 Zn7 2.020 . S
C2 N1 1.333 . S
C2 C3 1.379 . S
C2 H20 0.952 . S
C3 C2 1.379 . S
C3 C4 1.390 . S
C3 H30 0.949 . S
C4 C3 1.390 . S
C4 C5 1.357 1_554 S
C5 C4 1.357 1_556 S
C5 C6 1.370 . S
C5 H31 0.950 . S
C6 N1 1.307 1_556 S
C6 C5 1.370 . S
C6 H24 0.948 . S
Zn7 N1 2.020 . S
Zn7 O16 2.039 . S
Zn7 O22 2.034 . S
Zn7 O26 2.025 1_554 S
Zn7 O28 2.024 . S
C8 O27 1.246 . S
C8 O28 1.249 . S
N9 C10 1.307 . S
N9 C11 1.333 1_554 S
N9 Zn15 2.020 . S
C10 N9 1.307 . S
C10 C14 1.370 . S
C10 H21 0.948 . S
C11 N9 1.333 1_556 S
C11 C12 1.379 . S
C11 H19 0.952 . S
C12 C11 1.379 . S
C12 C13 1.390 1_545 S
C12 H32 0.949 1_545 S
C13 C12 1.390 1_565 S
C13 C14 1.357 1_566 S
C14 C10 1.370 . S
C14 C13 1.357 1_544 S
C14 H33 0.950 . S
Zn15 N9 2.020 . S
Zn15 O18 2.025 . S
Zn15 O23 2.024 . S
Zn15 O25 2.039 1_554 S
Zn15 O27 2.034 . S
O16 C0 1.251 . S
O16 Zn7 2.039 . S
C17 O22 1.246 . S
C17 O23 1.250 . S
O18 C0 1.254 . S
O18 Zn15 2.025 . S
H19 C11 0.952 . S
H20 C2 0.952 . S
H21 C10 0.948 . S
O22 Zn7 2.034 . S
O22 C17 1.246 . S
O23 Zn15 2.024 . S
O23 C17 1.250 . S
H24 C6 0.948 . S
O25 Zn15 2.039 1_556 S
O25 C29 1.251 . S
O26 Zn7 2.025 1_556 S
O26 C29 1.254 . S
O27 C8 1.246 . S
O27 Zn15 2.034 . S
O28 Zn7 2.024 . S
O28 C8 1.249 . S
C29 O25 1.251 . S
C29 O26 1.254 . S
H30 C3 0.949 . S
H31 C5 0.950 . S
H32 C12 0.949 1_565 S
H33 C14 0.950 . S
C34 O50 1.251 . S
C34 O52 1.254 . S
N35 C36 1.333 . S
N35 C40 1.307 1_554 S
N35 Zn41 2.020 . S
C36 N35 1.333 . S
C36 C37 1.379 . S
C36 H54 0.952 . S
C37 C36 1.379 . S
C37 C38 1.390 . S
C37 H64 0.949 . S
C38 C37 1.390 . S
C38 C39 1.357 1_554 S
C39 C38 1.357 1_556 S
C39 C40 1.370 . S
C39 H65 0.950 . S
C40 N35 1.307 1_556 S
C40 C39 1.370 . S
C40 H58 0.948 . S
Zn41 N35 2.020 . S
Zn41 O50 2.039 . S
Zn41 O56 2.034 . S
Zn41 O60 2.025 1_554 S
Zn41 O62 2.024 . S
C42 O61 1.246 . S
C42 O62 1.249 . S
N43 C44 1.307 . S
N43 C45 1.333 1_554 S
N43 Zn49 2.020 . S
C44 N43 1.307 . S
C44 C48 1.370 . S
C44 H55 0.948 . S
C45 N43 1.333 1_556 S
C45 C46 1.379 . S
C45 H53 0.952 . S
C46 C45 1.379 . S
C46 C47 1.390 1_655 S
C46 H66 0.949 1_655 S
C47 C46 1.390 1_455 S
C47 C48 1.357 1_456 S
C48 C44 1.370 . S
C48 C47 1.357 1_654 S
C48 H67 0.950 . S
Zn49 N43 2.020 . S
Zn49 O52 2.025 . S
Zn49 O57 2.024 . S
Zn49 O59 2.039 1_554 S
Zn49 O61 2.034 . S
O50 C34 1.251 . S
O50 Zn41 2.039 . S
C51 O56 1.246 . S
C51 O57 1.250 . S
O52 C34 1.254 . S
O52 Zn49 2.025 . S
H53 C45 0.952 . S
H54 C36 0.952 . S
H55 C44 0.948 . S
O56 Zn41 2.034 . S
O56 C51 1.246 . S
O57 Zn49 2.024 . S
O57 C51 1.250 . S
H58 C40 0.948 . S
O59 Zn49 2.039 1_556 S
O59 C63 1.251 . S
O60 Zn41 2.025 1_556 S
O60 C63 1.254 . S
O61 C42 1.246 . S
O61 Zn49 2.034 . S
O62 Zn41 2.024 . S
O62 C42 1.249 . S
C63 O59 1.251 . S
C63 O60 1.254 . S
H64 C37 0.949 . S
H65 C39 0.950 . S
H66 C46 0.949 1_455 S
H67 C48 0.950 . S
C68 O84 1.251 . S
C68 O86 1.254 . S
N69 C70 1.333 . S
N69 C74 1.307 1_554 S
N69 Zn75 2.020 . S
C70 N69 1.333 . S
C70 C71 1.379 . S
C70 H88 0.952 . S
C71 C70 1.379 . S
C71 C72 1.390 . S
C71 H98 0.949 . S
C72 C71 1.390 . S
C72 C73 1.357 1_554 S
C73 C72 1.357 1_556 S
C73 C74 1.370 . S
C73 H99 0.950 . S
C74 N69 1.307 1_556 S
C74 C73 1.370 . S
C74 H92 0.948 . S
Zn75 N69 2.020 . S
Zn75 O84 2.039 . S
Zn75 O90 2.034 . S
Zn75 O94 2.025 1_554 S
Zn75 O96 2.024 . S
C76 O95 1.246 . S
C76 O96 1.249 . S
N77 C78 1.307 . S
N77 C79 1.333 1_554 S
N77 Zn83 2.020 . S
C78 N77 1.307 . S
C78 C82 1.370 . S
C78 H89 0.948 . S
C79 N77 1.333 1_556 S
C79 C80 1.379 . S
C79 H87 0.952 . S
C80 C79 1.379 . S
C80 C81 1.390 . S
C80 H100 0.949 . S
C81 C80 1.390 . S
C81 C82 1.357 1_556 S
C82 C78 1.370 . S
C82 C81 1.357 1_554 S
C82 H101 0.950 . S
Zn83 N77 2.020 . S
Zn83 O86 2.025 . S
Zn83 O91 2.024 . S
Zn83 O93 2.039 1_554 S
Zn83 O95 2.034 . S
O84 C68 1.251 . S
O84 Zn75 2.039 . S
C85 O90 1.246 . S
C85 O91 1.250 . S
O86 C68 1.254 . S
O86 Zn83 2.025 . S
H87 C79 0.952 . S
H88 C70 0.952 . S
H89 C78 0.948 . S
O90 Zn75 2.034 . S
O90 C85 1.246 . S
O91 Zn83 2.024 . S
O91 C85 1.250 . S
H92 C74 0.948 . S
O93 Zn83 2.039 1_556 S
O93 C97 1.251 . S
O94 Zn75 2.025 1_556 S
O94 C97 1.254 . S
O95 C76 1.246 . S
O95 Zn83 2.034 . S
O96 Zn75 2.024 . S
O96 C76 1.249 . S
C97 O93 1.251 . S
C97 O94 1.254 . S
H98 C71 0.949 . S
H99 C73 0.950 . S
H100 C80 0.949 . S
H101 C82 0.950 . S
C102 O118 1.251 . S
C102 O120 1.254 . S
N103 C104 1.333 . S
N103 C108 1.307 . S
N103 Zn109 2.020 . S
C104 N103 1.333 . S
C104 C105 1.379 . S
C104 H122 0.952 . S
C105 C104 1.379 . S
C105 C106 1.390 1_655 S
C105 H132 0.949 1_655 S
C106 C105 1.390 1_455 S
C106 C107 1.357 1_455 S
C107 C106 1.357 1_655 S
C107 C108 1.370 . S
C107 H133 0.950 . S
C108 N103 1.307 . S
C108 C107 1.370 . S
C108 H126 0.948 . S
Zn109 N103 2.020 . S
Zn109 O118 2.039 . S
Zn109 O124 2.034 . S
Zn109 O128 2.025 . S
Zn109 O130 2.024 . S
C110 O129 1.246 . S
C110 O130 1.249 . S
N111 C112 1.307 . S
N111 C113 1.333 . S
N111 Zn117 2.020 . S
C112 N111 1.307 . S
C112 C116 1.370 . S
C112 H123 0.948 . S
C113 N111 1.333 . S
C113 C114 1.379 . S
C113 H121 0.952 . S
C114 C113 1.379 . S
C114 C115 1.390 . S
C114 H134 0.949 . S
C115 C114 1.390 . S
C115 C116 1.357 . S
C116 C112 1.370 . S
C116 C115 1.357 . S
C116 H135 0.950 . S
Zn117 N111 2.020 . S
Zn117 O120 2.025 . S
Zn117 O125 2.024 . S
Zn117 O127 2.039 . S
Zn117 O129 2.034 . S
O118 C102 1.251 . S
O118 Zn109 2.039 . S
C119 O124 1.246 . S
C119 O125 1.249 . S
O120 C102 1.254 . S
O120 Zn117 2.025 . S
H121 C113 0.952 . S
H122 C104 0.952 . S
H123 C112 0.948 . S
O124 Zn109 2.034 . S
O124 C119 1.246 . S
O125 Zn117 2.024 . S
O125 C119 1.249 . S
H126 C108 0.948 . S
O127 Zn117 2.039 . S
O127 C131 1.251 . S
O128 Zn109 2.025 . S
O128 C131 1.254 . S
O129 C110 1.246 . S
O129 Zn117 2.034 . S
O130 Zn109 2.024 . S
O130 C110 1.249 . S
C131 O127 1.251 . S
C131 O128 1.254 . S
H132 C105 0.949 1_455 S
H133 C107 0.950 . S
H134 C114 0.949 . S
H135 C116 0.950 . S
C136 O152 1.251 . S
C136 O154 1.254 . S
N137 C138 1.333 . S
N137 C142 1.307 . S
N137 Zn143 2.020 . S
C138 N137 1.333 . S
C138 C139 1.379 . S
C138 H156 0.952 . S
C139 C138 1.379 . S
C139 C140 1.390 . S
C139 H166 0.949 . S
C140 C139 1.390 . S
C140 C141 1.357 . S
C141 C140 1.357 . S
C141 C142 1.370 . S
C141 H167 0.950 . S
C142 N137 1.307 . S
C142 C141 1.370 . S
C142 H160 0.948 . S
Zn143 N137 2.020 . S
Zn143 O152 2.039 . S
Zn143 O158 2.034 . S
Zn143 O162 2.025 . S
Zn143 O164 2.024 . S
C144 O163 1.246 . S
C144 O164 1.249 . S
N145 C146 1.307 . S
N145 C147 1.333 . S
N145 Zn151 2.020 . S
C146 N145 1.307 . S
C146 C150 1.370 . S
C146 H157 0.948 . S
C147 N145 1.333 . S
C147 C148 1.379 . S
C147 H155 0.952 . S
C148 C147 1.379 . S
C148 C149 1.390 . S
C148 H168 0.949 . S
C149 C148 1.390 . S
C149 C150 1.357 . S
C150 C146 1.370 . S
C150 C149 1.357 . S
C150 H169 0.950 . S
Zn151 N145 2.020 . S
Zn151 O154 2.025 . S
Zn151 O159 2.024 . S
Zn151 O161 2.039 . S
Zn151 O163 2.034 . S
O152 C136 1.251 . S
O152 Zn143 2.039 . S
C153 O158 1.246 . S
C153 O159 1.249 . S
O154 C136 1.254 . S
O154 Zn151 2.025 . S
H155 C147 0.952 . S
H156 C138 0.952 . S
H157 C146 0.948 . S
O158 Zn143 2.034 . S
O158 C153 1.246 . S
O159 Zn151 2.024 . S
O159 C153 1.249 . S
H160 C142 0.948 . S
O161 Zn151 2.039 . S
O161 C165 1.251 . S
O162 Zn143 2.025 . S
O162 C165 1.254 . S
O163 C144 1.246 . S
O163 Zn151 2.034 . S
O164 Zn143 2.024 . S
O164 C144 1.249 . S
C165 O161 1.251 . S
C165 O162 1.254 . S
H166 C139 0.949 . S
H167 C141 0.950 . S
H168 C148 0.949 . S
H169 C150 0.950 . S
C170 O186 1.251 . S
C170 O188 1.254 . S
N171 C172 1.333 . S
N171 C176 1.307 . S
N171 Zn177 2.020 . S
C172 N171 1.333 . S
C172 C173 1.379 . S
C172 H190 0.952 . S
C173 C172 1.379 . S
C173 C174 1.390 1_545 S
C173 H200 0.949 1_545 S
C174 C173 1.390 1_565 S
C174 C175 1.357 1_565 S
C175 C174 1.357 1_545 S
C175 C176 1.370 . S
C175 H201 0.950 . S
C176 N171 1.307 . S
C176 C175 1.370 . S
C176 H194 0.948 . S
Zn177 N171 2.020 . S
Zn177 O186 2.039 . S
Zn177 O192 2.034 . S
Zn177 O196 2.025 . S
Zn177 O198 2.024 . S
C178 O197 1.246 . S
C178 O198 1.249 . S
N179 C180 1.307 . S
N179 C181 1.333 . S
N179 Zn185 2.020 . S
C180 N179 1.307 . S
C180 C184 1.370 . S
C180 H191 0.948 . S
C181 N179 1.333 . S
C181 C182 1.379 . S
C181 H189 0.952 . S
C182 C181 1.379 . S
C182 C183 1.390 . S
C182 H202 0.949 . S
C183 C182 1.390 . S
C183 C184 1.357 . S
C184 C180 1.370 . S
C184 C183 1.357 . S
C184 H203 0.950 . S
Zn185 N179 2.020 . S
Zn185 O188 2.025 . S
Zn185 O193 2.024 . S
Zn185 O195 2.039 . S
Zn185 O197 2.034 . S
O186 C170 1.251 . S
O186 Zn177 2.039 . S
C187 O192 1.246 . S
C187 O193 1.249 . S
O188 C170 1.254 . S
O188 Zn185 2.025 . S
H189 C181 0.952 . S
H190 C172 0.952 . S
H191 C180 0.948 . S
O192 Zn177 2.034 . S
O192 C187 1.246 . S
O193 Zn185 2.024 . S
O193 C187 1.249 . S
H194 C176 0.948 . S
O195 Zn185 2.039 . S
O195 C199 1.251 . S
O196 Zn177 2.025 . S
O196 C199 1.254 . S
O197 C178 1.246 . S
O197 Zn185 2.034 . S
O198 Zn177 2.024 . S
O198 C178 1.249 . S
C199 O195 1.251 . S
C199 O196 1.254 . S
H200 C173 0.949 1_565 S
H201 C175 0.950 . S
H202 C182 0.949 . S
H203 C184 0.950 . S
C204 O220 1.251 . S
C204 O222 1.254 . S
N205 C206 1.333 . S
N205 C210 1.307 . S
N205 Zn211 2.020 . S
C206 N205 1.333 . S
C206 C207 1.379 . S
C206 H224 0.952 . S
C207 C206 1.379 . S
C207 C208 1.390 . S
C207 H234 0.949 . S
C208 C207 1.390 . S
C208 C209 1.357 . S
C209 C208 1.357 . S
C209 C210 1.370 . S
C209 H235 0.950 . S
C210 N205 1.307 . S
C210 C209 1.370 . S
C210 H228 0.948 . S
Zn211 N205 2.020 . S
Zn211 O220 2.039 . S
Zn211 O226 2.034 . S
Zn211 O230 2.025 . S
Zn211 O232 2.024 . S
C212 O231 1.246 . S
C212 O232 1.249 . S
N213 C214 1.307 . S
N213 C215 1.333 . S
N213 Zn219 2.020 . S
C214 N213 1.307 . S
C214 C218 1.370 . S
C214 H225 0.948 . S
C215 N213 1.333 . S
C215 C216 1.379 . S
C215 H223 0.952 . S
C216 C215 1.379 . S
C216 C217 1.390 . S
C216 H236 0.949 . S
C217 C216 1.390 . S
C217 C218 1.357 . S
C218 C214 1.370 . S
C218 C217 1.357 . S
C218 H237 0.950 . S
Zn219 N213 2.020 . S
Zn219 O222 2.025 . S
Zn219 O227 2.024 . S
Zn219 O229 2.039 . S
Zn219 O231 2.034 . S
O220 C204 1.251 . S
O220 Zn211 2.039 . S
C221 O226 1.246 . S
C221 O227 1.249 . S
O222 C204 1.254 . S
O222 Zn219 2.025 . S
H223 C215 0.952 . S
H224 C206 0.952 . S
H225 C214 0.948 . S
O226 Zn211 2.034 . S
O226 C221 1.246 . S
O227 Zn219 2.024 . S
O227 C221 1.249 . S
H228 C210 0.948 . S
O229 Zn219 2.039 . S
O229 C233 1.251 . S
O230 Zn211 2.025 . S
O230 C233 1.254 . S
O231 C212 1.246 . S
O231 Zn219 2.034 . S
O232 Zn211 2.024 . S
O232 C212 1.249 . S
C233 O229 1.251 . S
C233 O230 1.254 . S
H234 C207 0.949 . S
H235 C209 0.950 . S
H236 C216 0.949 . S
H237 C218 0.950 . S
C238 O254 1.251 . S
C238 O256 1.254 . S
N239 C240 1.333 . S
N239 C244 1.307 . S
N239 Zn245 2.020 . S
C240 N239 1.333 . S
C240 C241 1.379 . S
C240 H258 0.952 . S
C241 C240 1.379 . S
C241 C242 1.390 . S
C241 H268 0.949 . S
C242 C241 1.390 . S
C242 C243 1.357 . S
C243 C242 1.357 . S
C243 C244 1.370 . S
C243 H269 0.950 . S
C244 N239 1.307 . S
C244 C243 1.370 . S
C244 H262 0.948 . S
Zn245 N239 2.020 . S
Zn245 O254 2.039 . S
Zn245 O260 2.034 . S
Zn245 O264 2.025 . S
Zn245 O266 2.024 . S
C246 O265 1.246 . S
C246 O266 1.249 . S
N247 C248 1.307 . S
N247 C249 1.333 . S
N247 Zn253 2.020 . S
C248 N247 1.307 . S
C248 C252 1.370 . S
C248 H259 0.948 . S
C249 N247 1.333 . S
C249 C250 1.379 . S
C249 H257 0.952 . S
C250 C249 1.379 . S
C250 C251 1.390 . S
C250 H270 0.949 . S
C251 C250 1.390 . S
C251 C252 1.357 . S
C252 C248 1.370 . S
C252 C251 1.357 . S
C252 H271 0.950 . S
Zn253 N247 2.020 . S
Zn253 O256 2.025 . S
Zn253 O261 2.024 . S
Zn253 O263 2.039 . S
Zn253 O265 2.034 . S
O254 C238 1.251 . S
O254 Zn245 2.039 . S
C255 O260 1.246 . S
C255 O261 1.249 . S
O256 C238 1.254 . S
O256 Zn253 2.025 . S
H257 C249 0.952 . S
H258 C240 0.952 . S
H259 C248 0.948 . S
O260 Zn245 2.034 . S
O260 C255 1.246 . S
O261 Zn253 2.024 . S
O261 C255 1.249 . S
H262 C244 0.948 . S
O263 Zn253 2.039 . S
O263 C267 1.251 . S
O264 Zn245 2.025 . S
O264 C267 1.254 . S
O265 C246 1.246 . S
O265 Zn253 2.034 . S
O266 Zn245 2.024 . S
O266 C246 1.249 . S
C267 O263 1.251 . S
C267 O264 1.254 . S
H268 C241 0.949 . S
H269 C243 0.950 . S
H270 C250 0.949 . S
H271 C252 0.950 . S
C272 O288 1.251 . S
C272 O290 1.254 . S
N273 C274 1.333 . S
N273 C278 1.307 . S
N273 Zn279 2.020 . S
C274 N273 1.333 . S
C274 C275 1.379 . S
C274 H292 0.952 . S
C275 C274 1.379 . S
C275 C276 1.390 . S
C275 H302 0.949 . S
C276 C275 1.390 . S
C276 C277 1.357 . S
C277 C276 1.357 . S
C277 C278 1.370 . S
C277 H303 0.950 . S
C278 N273 1.307 . S
C278 C277 1.370 . S
C278 H296 0.948 . S
Zn279 N273 2.020 . S
Zn279 O288 2.039 . S
Zn279 O294 2.034 . S
Zn279 O298 2.025 . S
Zn279 O300 2.024 . S
C280 O299 1.246 . S
C280 O300 1.249 . S
N281 C282 1.307 . S
N281 C283 1.333 . S
N281 Zn287 2.020 . S
C282 N281 1.307 . S
C282 C286 1.370 . S
C282 H293 0.948 . S
C283 N281 1.333 . S
C283 C284 1.379 . S
C283 H291 0.952 . S
C284 C283 1.379 . S
C284 C285 1.390 . S
C284 H304 0.949 . S
C285 C284 1.390 . S
C285 C286 1.357 . S
C286 C282 1.370 . S
C286 C285 1.357 . S
C286 H305 0.950 . S
Zn287 N281 2.020 . S
Zn287 O290 2.025 . S
Zn287 O295 2.024 . S
Zn287 O297 2.039 . S
Zn287 O299 2.034 . S
O288 C272 1.251 . S
O288 Zn279 2.039 . S
C289 O294 1.246 . S
C289 O295 1.249 . S
O290 C272 1.254 . S
O290 Zn287 2.025 . S
H291 C283 0.952 . S
H292 C274 0.952 . S
H293 C282 0.948 . S
O294 Zn279 2.034 . S
O294 C289 1.246 . S
O295 Zn287 2.024 . S
O295 C289 1.249 . S
H296 C278 0.948 . S
O297 Zn287 2.039 . S
O297 C301 1.251 . S
O298 Zn279 2.025 . S
O298 C301 1.254 . S
O299 C280 1.246 . S
O299 Zn287 2.034 . S
O300 Zn279 2.024 . S
O300 C280 1.249 . S
C301 O297 1.251 . S
C301 O298 1.254 . S
H302 C275 0.949 . S
H303 C277 0.950 . S
H304 C284 0.949 . S
H305 C286 0.950 . S
C306 O322 1.251 . S
C306 O324 1.254 . S
N307 C308 1.333 . S
N307 C312 1.307 . S
N307 Zn313 2.020 . S
C308 N307 1.333 . S
C308 C309 1.379 . S
C308 H326 0.952 . S
C309 C308 1.379 . S
C309 C310 1.390 . S
C309 H336 0.949 . S
C310 C309 1.390 . S
C310 C311 1.357 . S
C311 C310 1.357 . S
C311 C312 1.370 . S
C311 H337 0.950 . S
C312 N307 1.307 . S
C312 C311 1.370 . S
C312 H330 0.948 . S
Zn313 N307 2.020 . S
Zn313 O322 2.039 . S
Zn313 O328 2.034 . S
Zn313 O332 2.025 . S
Zn313 O334 2.024 . S
C314 O333 1.246 . S
C314 O334 1.249 . S
N315 C316 1.307 . S
N315 C317 1.333 . S
N315 Zn321 2.020 . S
C316 N315 1.307 . S
C316 C320 1.370 . S
C316 H327 0.948 . S
C317 N315 1.333 . S
C317 C318 1.379 . S
C317 H325 0.952 . S
C318 C317 1.379 . S
C318 C319 1.390 . S
C318 H338 0.949 . S
C319 C318 1.390 . S
C319 C320 1.357 . S
C320 C316 1.370 . S
C320 C319 1.357 . S
C320 H339 0.950 . S
Zn321 N315 2.020 . S
Zn321 O324 2.025 . S
Zn321 O329 2.024 . S
Zn321 O331 2.039 . S
Zn321 O333 2.034 . S
O322 C306 1.251 . S
O322 Zn313 2.039 . S
C323 O328 1.246 . S
C323 O329 1.249 . S
O324 C306 1.254 . S
O324 Zn321 2.025 . S
H325 C317 0.952 . S
H326 C308 0.952 . S
H327 C316 0.948 . S
O328 Zn313 2.034 . S
O328 C323 1.246 . S
O329 Zn321 2.024 . S
O329 C323 1.249 . S
H330 C312 0.948 . S
O331 Zn321 2.039 . S
O331 C335 1.251 . S
O332 Zn313 2.025 . S
O332 C335 1.254 . S
O333 C314 1.246 . S
O333 Zn321 2.034 . S
O334 Zn313 2.024 . S
O334 C314 1.249 . S
C335 O331 1.251 . S
C335 O332 1.254 . S
H336 C309 0.949 . S
H337 C311 0.950 . S
H338 C318 0.949 . S
H339 C320 0.950 . S
C340 O356 1.251 . S
C340 O358 1.254 . S
N341 C342 1.333 . S
N341 C346 1.307 . S
N341 Zn347 2.020 . S
C342 N341 1.333 . S
C342 C343 1.379 . S
C342 H360 0.952 . S
C343 C342 1.379 . S
C343 C344 1.390 . S
C343 H370 0.949 . S
C344 C343 1.390 . S
C344 C345 1.357 . S
C345 C344 1.357 . S
C345 C346 1.370 . S
C345 H371 0.950 . S
C346 N341 1.307 . S
C346 C345 1.370 . S
C346 H364 0.948 . S
Zn347 N341 2.020 . S
Zn347 O356 2.039 . S
Zn347 O362 2.034 . S
Zn347 O366 2.025 . S
Zn347 O368 2.024 . S
C348 O367 1.246 . S
C348 O368 1.249 . S
N349 C350 1.307 . S
N349 C351 1.333 . S
N349 Zn355 2.020 . S
C350 N349 1.307 . S
C350 C354 1.370 . S
C350 H361 0.948 . S
C351 N349 1.333 . S
C351 C352 1.379 . S
C351 H359 0.952 . S
C352 C351 1.379 . S
C352 C353 1.390 . S
C352 H372 0.949 . S
C353 C352 1.390 . S
C353 C354 1.357 . S
C354 C350 1.370 . S
C354 C353 1.357 . S
C354 H373 0.950 . S
Zn355 N349 2.020 . S
Zn355 O358 2.025 . S
Zn355 O363 2.024 . S
Zn355 O365 2.039 . S
Zn355 O367 2.034 . S
O356 C340 1.251 . S
O356 Zn347 2.039 . S
C357 O362 1.246 . S
C357 O363 1.249 . S
O358 C340 1.254 . S
O358 Zn355 2.025 . S
H359 C351 0.952 . S
H360 C342 0.952 . S
H361 C350 0.948 . S
O362 Zn347 2.034 . S
O362 C357 1.246 . S
O363 Zn355 2.024 . S
O363 C357 1.249 . S
H364 C346 0.948 . S
O365 Zn355 2.039 . S
O365 C369 1.251 . S
O366 Zn347 2.025 . S
O366 C369 1.254 . S
O367 C348 1.246 . S
O367 Zn355 2.034 . S
O368 Zn347 2.024 . S
O368 C348 1.249 . S
C369 O365 1.251 . S
C369 O366 1.254 . S
H370 C343 0.949 . S
H371 C345 0.950 . S
H372 C352 0.949 . S
H373 C354 0.950 . S
C374 O390 1.251 . S
C374 O392 1.254 . S
N375 C376 1.333 . S
N375 C380 1.307 . S
N375 Zn381 2.020 . S
C376 N375 1.333 . S
C376 C377 1.379 . S
C376 H394 0.952 . S
C377 C376 1.379 . S
C377 C378 1.390 . S
C377 H404 0.949 . S
C378 C377 1.390 . S
C378 C379 1.357 . S
C379 C378 1.357 . S
C379 C380 1.370 . S
C379 H405 0.950 . S
C380 N375 1.307 . S
C380 C379 1.370 . S
C380 H398 0.948 . S
Zn381 N375 2.020 . S
Zn381 O390 2.039 . S
Zn381 O396 2.034 . S
Zn381 O400 2.025 . S
Zn381 O402 2.024 . S
C382 O401 1.246 . S
C382 O402 1.249 . S
N383 C384 1.307 . S
N383 C385 1.333 . S
N383 Zn389 2.020 . S
C384 N383 1.307 . S
C384 C388 1.370 . S
C384 H395 0.948 . S
C385 N383 1.333 . S
C385 C386 1.379 . S
C385 H393 0.952 . S
C386 C385 1.379 . S
C386 C387 1.390 . S
C386 H406 0.949 . S
C387 C386 1.390 . S
C387 C388 1.357 . S
C388 C384 1.370 . S
C388 C387 1.357 . S
C388 H407 0.950 . S
Zn389 N383 2.020 . S
Zn389 O392 2.025 . S
Zn389 O397 2.024 . S
Zn389 O399 2.039 . S
Zn389 O401 2.034 . S
O390 C374 1.251 . S
O390 Zn381 2.039 . S
C391 O396 1.246 . S
C391 O397 1.249 . S
O392 C374 1.254 . S
O392 Zn389 2.025 . S
H393 C385 0.952 . S
H394 C376 0.952 . S
H395 C384 0.948 . S
O396 Zn381 2.034 . S
O396 C391 1.246 . S
O397 Zn389 2.024 . S
O397 C391 1.249 . S
H398 C380 0.948 . S
O399 Zn389 2.039 . S
O399 C403 1.251 . S
O400 Zn381 2.025 . S
O400 C403 1.254 . S
O401 C382 1.246 . S
O401 Zn389 2.034 . S
O402 Zn381 2.024 . S
O402 C382 1.249 . S
C403 O399 1.251 . S
C403 O400 1.254 . S
H404 C377 0.949 . S
H405 C379 0.950 . S
H406 C386 0.949 . S
H407 C388 0.950 . S
C408 O424 1.251 . S
C408 O426 1.254 . S
N409 C410 1.333 . S
N409 C414 1.307 . S
N409 Zn415 2.020 1_455 S
C410 N409 1.333 . S
C410 C411 1.379 . S
C410 H428 0.952 1_455 S
C411 C410 1.379 . S
C411 C412 1.390 . S
C411 H438 0.949 . S
C412 C411 1.390 . S
C412 C413 1.357 . S
C413 C412 1.357 . S
C413 C414 1.370 . S
C413 H439 0.950 . S
C414 N409 1.307 . S
C414 C413 1.370 . S
C414 H432 0.948 . S
Zn415 N409 2.020 1_655 S
Zn415 O424 2.039 . S
Zn415 O430 2.034 . S
Zn415 O434 2.025 . S
Zn415 O436 2.024 . S
C416 O435 1.246 . S
C416 O436 1.249 . S
N417 C418 1.307 . S
N417 C419 1.333 . S
N417 Zn423 2.020 . S
C418 N417 1.307 . S
C418 C422 1.370 . S
C418 H429 0.948 . S
C419 N417 1.333 . S
C419 C420 1.379 . S
C419 H427 0.952 . S
C420 C419 1.379 . S
C420 C421 1.390 . S
C420 H440 0.949 . S
C421 C420 1.390 . S
C421 C422 1.357 . S
C422 C418 1.370 . S
C422 C421 1.357 . S
C422 H441 0.950 . S
Zn423 N417 2.020 . S
Zn423 O426 2.025 . S
Zn423 O431 2.024 . S
Zn423 O433 2.039 . S
Zn423 O435 2.034 . S
O424 C408 1.251 . S
O424 Zn415 2.039 . S
C425 O430 1.246 . S
C425 O431 1.249 . S
O426 C408 1.254 . S
O426 Zn423 2.025 . S
H427 C419 0.952 . S
H428 C410 0.952 1_655 S
H429 C418 0.948 . S
O430 Zn415 2.034 . S
O430 C425 1.246 . S
O431 Zn423 2.024 . S
O431 C425 1.249 . S
H432 C414 0.948 . S
O433 Zn423 2.039 . S
O433 C437 1.251 . S
O434 Zn415 2.025 . S
O434 C437 1.254 . S
O435 C416 1.246 . S
O435 Zn423 2.034 . S
O436 Zn415 2.024 . S
O436 C416 1.249 . S
C437 O433 1.251 . S
C437 O434 1.254 . S
H438 C411 0.949 . S
H439 C413 0.950 . S
H440 C420 0.949 . S
H441 C422 0.950 . S
C442 O458 1.251 . S
C442 O460 1.254 . S
N443 C444 1.333 . S
N443 C448 1.307 . S
N443 Zn449 2.020 . S
C444 N443 1.333 . S
C444 C445 1.379 . S
C444 H462 0.952 . S
C445 C444 1.379 . S
C445 C446 1.390 . S
C445 H472 0.949 . S
C446 C445 1.390 . S
C446 C447 1.357 . S
C447 C446 1.357 . S
C447 C448 1.370 . S
C447 H473 0.950 . S
C448 N443 1.307 . S
C448 C447 1.370 . S
C448 H466 0.948 . S
Zn449 N443 2.020 . S
Zn449 O458 2.039 . S
Zn449 O464 2.034 . S
Zn449 O468 2.025 . S
Zn449 O470 2.024 . S
C450 O469 1.246 . S
C450 O470 1.249 . S
N451 C452 1.307 . S
N451 C453 1.333 . S
N451 Zn457 2.020 . S
C452 N451 1.307 . S
C452 C456 1.370 . S
C452 H463 0.948 . S
C453 N451 1.333 . S
C453 C454 1.379 . S
C453 H461 0.952 . S
C454 C453 1.379 . S
C454 C455 1.390 . S
C454 H474 0.949 . S
C455 C454 1.390 . S
C455 C456 1.357 . S
C456 C452 1.370 . S
C456 C455 1.357 . S
C456 H475 0.950 . S
Zn457 N451 2.020 . S
Zn457 O460 2.025 . S
Zn457 O465 2.024 . S
Zn457 O467 2.039 . S
Zn457 O469 2.034 . S
O458 C442 1.251 . S
O458 Zn449 2.039 . S
C459 O464 1.246 . S
C459 O465 1.249 . S
O460 C442 1.254 . S
O460 Zn457 2.025 . S
H461 C453 0.952 . S
H462 C444 0.952 . S
H463 C452 0.948 . S
O464 Zn449 2.034 . S
O464 C459 1.246 . S
O465 Zn457 2.024 . S
O465 C459 1.249 . S
H466 C448 0.948 . S
O467 Zn457 2.039 . S
O467 C471 1.251 . S
O468 Zn449 2.025 . S
O468 C471 1.254 . S
O469 C450 1.246 . S
O469 Zn457 2.034 . S
O470 Zn449 2.024 . S
O470 C450 1.249 . S
C471 O467 1.251 . S
C471 O468 1.254 . S
H472 C445 0.949 . S
H473 C447 0.950 . S
H474 C454 0.949 . S
H475 C456 0.950 . S
C476 O492 1.251 . S
C476 O494 1.254 . S
N477 C478 1.333 . S
N477 C482 1.307 . S
N477 Zn483 2.020 1_565 S
C478 N477 1.333 . S
C478 C479 1.379 . S
C478 H496 0.952 1_565 S
C479 C478 1.379 . S
C479 C480 1.390 . S
C479 H506 0.949 . S
C480 C479 1.390 . S
C480 C481 1.357 . S
C481 C480 1.357 . S
C481 C482 1.370 . S
C481 H507 0.950 . S
C482 N477 1.307 . S
C482 C481 1.370 . S
C482 H500 0.948 . S
Zn483 N477 2.020 1_545 S
Zn483 O492 2.039 . S
Zn483 O498 2.034 . S
Zn483 O502 2.025 . S
Zn483 O504 2.024 . S
C484 O503 1.246 . S
C484 O504 1.249 . S
N485 C486 1.307 . S
N485 C487 1.333 . S
N485 Zn491 2.020 . S
C486 N485 1.307 . S
C486 C490 1.370 . S
C486 H497 0.948 . S
C487 N485 1.333 . S
C487 C488 1.379 . S
C487 H495 0.952 . S
C488 C487 1.379 . S
C488 C489 1.390 . S
C488 H508 0.949 . S
C489 C488 1.390 . S
C489 C490 1.357 . S
C490 C486 1.370 . S
C490 C489 1.357 . S
C490 H509 0.950 . S
Zn491 N485 2.020 . S
Zn491 O494 2.025 . S
Zn491 O499 2.024 . S
Zn491 O501 2.039 . S
Zn491 O503 2.034 . S
O492 C476 1.251 . S
O492 Zn483 2.039 . S
C493 O498 1.246 . S
C493 O499 1.249 . S
O494 C476 1.254 . S
O494 Zn491 2.025 . S
H495 C487 0.952 . S
H496 C478 0.952 1_545 S
H497 C486 0.948 . S
O498 Zn483 2.034 . S
O498 C493 1.246 . S
O499 Zn491 2.024 . S
O499 C493 1.249 . S
H500 C482 0.948 . S
O501 Zn491 2.039 . S
O501 C505 1.251 . S
O502 Zn483 2.025 . S
O502 C505 1.254 . S
O503 C484 1.246 . S
O503 Zn491 2.034 . S
O504 Zn483 2.024 . S
O504 C484 1.249 . S
C505 O501 1.251 . S
C505 O502 1.254 . S
H506 C479 0.949 . S
H507 C481 0.950 . S
H508 C488 0.949 . S
H509 C490 0.950 . S
C510 O526 1.251 . S
C510 O528 1.254 . S
N511 C512 1.333 . S
N511 C516 1.307 . S
N511 Zn517 2.020 . S
C512 N511 1.333 . S
C512 C513 1.379 . S
C512 H530 0.952 . S
C513 C512 1.379 . S
C513 C514 1.390 . S
C513 H540 0.949 . S
C514 C513 1.390 . S
C514 C515 1.357 . S
C515 C514 1.357 . S
C515 C516 1.370 . S
C515 H541 0.950 . S
C516 N511 1.307 . S
C516 C515 1.370 . S
C516 H534 0.948 . S
Zn517 N511 2.020 . S
Zn517 O526 2.039 . S
Zn517 O532 2.034 . S
Zn517 O536 2.025 . S
Zn517 O538 2.024 . S
C518 O537 1.246 . S
C518 O538 1.249 . S
N519 C520 1.307 . S
N519 C521 1.333 . S
N519 Zn525 2.020 1_565 S
C520 N519 1.307 . S
C520 C524 1.370 . S
C520 H531 0.948 . S
C521 N519 1.333 . S
C521 C522 1.379 . S
C521 H529 0.952 1_565 S
C522 C521 1.379 . S
C522 C523 1.390 . S
C522 H542 0.949 . S
C523 C522 1.390 . S
C523 C524 1.357 . S
C524 C520 1.370 . S
C524 C523 1.357 . S
C524 H543 0.950 . S
Zn525 N519 2.020 1_545 S
Zn525 O528 2.025 . S
Zn525 O533 2.024 . S
Zn525 O535 2.039 . S
Zn525 O537 2.034 . S
O526 C510 1.251 . S
O526 Zn517 2.039 . S
C527 O532 1.246 . S
C527 O533 1.249 . S
O528 C510 1.254 . S
O528 Zn525 2.025 . S
H529 C521 0.952 1_545 S
H530 C512 0.952 . S
H531 C520 0.948 . S
O532 Zn517 2.034 . S
O532 C527 1.246 . S
O533 Zn525 2.024 . S
O533 C527 1.249 . S
H534 C516 0.948 . S
O535 Zn525 2.039 . S
O535 C539 1.251 . S
O536 Zn517 2.025 . S
O536 C539 1.254 . S
O537 C518 1.246 . S
O537 Zn525 2.034 . S
O538 Zn517 2.024 . S
O538 C518 1.249 . S
C539 O535 1.251 . S
C539 O536 1.254 . S
H540 C513 0.949 . S
H541 C515 0.950 . S
H542 C522 0.949 . S
H543 C524 0.950 . S
C544 O560 1.251 . S
C544 O562 1.254 . S
N545 C546 1.333 . S
N545 C550 1.307 . S
N545 Zn551 2.020 . S
C546 N545 1.333 . S
C546 C547 1.379 . S
C546 H564 0.952 . S
C547 C546 1.379 . S
C547 C548 1.390 . S
C547 H574 0.949 . S
C548 C547 1.390 . S
C548 C549 1.357 . S
C549 C548 1.357 . S
C549 C550 1.370 . S
C549 H575 0.950 . S
C550 N545 1.307 . S
C550 C549 1.370 . S
C550 H568 0.948 . S
Zn551 N545 2.020 . S
Zn551 O560 2.039 . S
Zn551 O566 2.034 . S
Zn551 O570 2.025 . S
Zn551 O572 2.024 . S
C552 O571 1.246 . S
C552 O572 1.249 . S
N553 C554 1.307 . S
N553 C555 1.333 . S
N553 Zn559 2.020 1_455 S
C554 N553 1.307 . S
C554 C558 1.370 . S
C554 H565 0.948 . S
C555 N553 1.333 . S
C555 C556 1.379 . S
C555 H563 0.952 1_455 S
C556 C555 1.379 . S
C556 C557 1.390 . S
C556 H576 0.949 . S
C557 C556 1.390 . S
C557 C558 1.357 . S
C558 C554 1.370 . S
C558 C557 1.357 . S
C558 H577 0.950 . S
Zn559 N553 2.020 1_655 S
Zn559 O562 2.025 . S
Zn559 O567 2.024 . S
Zn559 O569 2.039 . S
Zn559 O571 2.034 . S
O560 C544 1.251 . S
O560 Zn551 2.039 . S
C561 O566 1.246 . S
C561 O567 1.249 . S
O562 C544 1.254 . S
O562 Zn559 2.025 . S
H563 C555 0.952 1_655 S
H564 C546 0.952 . S
H565 C554 0.948 . S
O566 Zn551 2.034 . S
O566 C561 1.246 . S
O567 Zn559 2.024 . S
O567 C561 1.249 . S
H568 C550 0.948 . S
O569 Zn559 2.039 . S
O569 C573 1.251 . S
O570 Zn551 2.025 . S
O570 C573 1.254 . S
O571 C552 1.246 . S
O571 Zn559 2.034 . S
O572 Zn551 2.024 . S
O572 C552 1.249 . S
C573 O569 1.251 . S
C573 O570 1.254 . S
H574 C547 0.949 . S
H575 C549 0.950 . S
H576 C556 0.949 . S
H577 C558 0.950 . S
C578 O594 1.251 . S
C578 O596 1.254 . S
N579 C580 1.333 . S
N579 C584 1.307 . S
N579 Zn585 2.020 . S
C580 N579 1.333 . S
C580 C581 1.379 . S
C580 H598 0.952 . S
C581 C580 1.379 . S
C581 C582 1.390 . S
C581 H608 0.949 . S
C582 C581 1.390 . S
C582 C583 1.357 . S
C583 C582 1.357 . S
C583 C584 1.370 . S
C583 H609 0.950 . S
C584 N579 1.307 . S
C584 C583 1.370 . S
C584 H602 0.948 . S
Zn585 N579 2.020 . S
Zn585 O594 2.039 . S
Zn585 O600 2.034 . S
Zn585 O604 2.025 . S
Zn585 O606 2.024 . S
C586 O605 1.246 . S
C586 O606 1.249 . S
N587 C588 1.307 . S
N587 C589 1.333 . S
N587 Zn593 2.020 . S
C588 N587 1.307 . S
C588 C592 1.370 . S
C588 H599 0.948 . S
C589 N587 1.333 . S
C589 C590 1.379 . S
C589 H597 0.952 . S
C590 C589 1.379 . S
C590 C591 1.390 . S
C590 H610 0.949 . S
C591 C590 1.390 . S
C591 C592 1.357 . S
C592 C588 1.370 . S
C592 C591 1.357 . S
C592 H611 0.950 . S
Zn593 N587 2.020 . S
Zn593 O596 2.025 . S
Zn593 O601 2.024 . S
Zn593 O603 2.039 . S
Zn593 O605 2.034 . S
O594 C578 1.251 . S
O594 Zn585 2.039 . S
C595 O600 1.246 . S
C595 O601 1.249 . S
O596 C578 1.254 . S
O596 Zn593 2.025 . S
H597 C589 0.952 . S
H598 C580 0.952 . S
H599 C588 0.948 . S
O600 Zn585 2.034 . S
O600 C595 1.246 . S
O601 Zn593 2.024 . S
O601 C595 1.249 . S
H602 C584 0.948 . S
O603 Zn593 2.039 . S
O603 C607 1.251 . S
O604 Zn585 2.025 . S
O604 C607 1.254 . S
O605 C586 1.246 . S
O605 Zn593 2.034 . S
O606 Zn585 2.024 . S
O606 C586 1.249 . S
C607 O603 1.251 . S
C607 O604 1.254 . S
H608 C581 0.949 . S
H609 C583 0.950 . S
H610 C590 0.949 . S
H611 C592 0.950 . S
C612 C613 1.387 1_554 S
C612 H616 0.950 . S
C612 C621 1.390 . S
C613 C612 1.387 1_556 S
C613 C615 1.387 . S
H614 C621 0.950 . S
C615 C613 1.387 . S
C615 C617 1.390 . S
C615 H619 0.950 . S
H616 C612 0.950 . S
C617 C615 1.390 . S
C617 C618 1.387 1_556 S
C617 H620 0.950 . S
C618 C617 1.387 1_554 S
C618 C621 1.387 . S
H619 C615 0.950 . S
H620 C617 0.950 . S
C621 C612 1.390 . S
C621 H614 0.950 . S
C621 C618 1.387 . S
C622 C623 1.387 . S
C622 H626 0.950 . S
C622 C631 1.390 . S
C623 C622 1.387 . S
C623 C625 1.387 . S
H624 C631 0.950 . S
C625 C623 1.387 . S
C625 C627 1.390 1_554 S
C625 H629 0.950 . S
H626 C622 0.950 . S
C627 C625 1.390 1_556 S
C627 C628 1.387 . S
C627 H630 0.950 . S
C628 C627 1.387 . S
C628 C631 1.387 1_556 S
H629 C625 0.950 . S
H630 C627 0.950 . S
C631 C622 1.390 . S
C631 H624 0.950 . S
C631 C628 1.387 1_554 S
C632 C633 1.387 . S
C632 H636 0.950 . S
C632 C641 1.390 1_556 S
C633 C632 1.387 . S
C633 C635 1.387 1_556 S
H634 C641 0.950 . S
C635 C633 1.387 1_554 S
C635 C637 1.390 . S
C635 H639 0.950 . S
H636 C632 0.950 . S
C637 C635 1.390 . S
C637 C638 1.387 . S
C637 H640 0.950 . S
C638 C637 1.387 . S
C638 C641 1.387 . S
H639 C635 0.950 . S
H640 C637 0.950 . S
C641 C632 1.390 1_554 S
C641 H634 0.950 . S
C641 C638 1.387 . S
C642 C643 1.387 . S
C642 H646 0.950 . S
C642 C651 1.390 . S
C643 C642 1.387 . S
C643 C645 1.387 . S
H644 C651 0.950 . S
C645 C643 1.387 . S
C645 C647 1.390 . S
C645 H649 0.950 . S
H646 C642 0.950 . S
C647 C645 1.390 . S
C647 C648 1.387 . S
C647 H650 0.950 . S
C648 C647 1.387 . S
C648 C651 1.387 . S
H649 C645 0.950 . S
H650 C647 0.950 . S
C651 C642 1.390 . S
C651 H644 0.950 . S
C651 C648 1.387 . S
C652 C653 1.387 . S
C652 H656 0.950 . S
C652 C661 1.390 . S
C653 C652 1.387 . S
C653 C655 1.387 . S
H654 C661 0.950 . S
C655 C653 1.387 . S
C655 C657 1.390 . S
C655 H659 0.950 . S
H656 C652 0.950 . S
C657 C655 1.390 . S
C657 C658 1.387 . S
C657 H660 0.950 . S
C658 C657 1.387 . S
C658 C661 1.387 . S
H659 C655 0.950 . S
H660 C657 0.950 . S
C661 C652 1.390 . S
C661 H654 0.950 . S
C661 C658 1.387 . S
C662 C663 1.387 . S
C662 H666 0.950 . S
C662 C671 1.390 . S
C663 C662 1.387 . S
C663 C665 1.387 . S
H664 C671 0.950 . S
C665 C663 1.387 . S
C665 C667 1.390 . S
C665 H669 0.950 . S
H666 C662 0.950 . S
C667 C665 1.390 . S
C667 C668 1.387 . S
C667 H670 0.950 . S
C668 C667 1.387 . S
C668 C671 1.387 . S
H669 C665 0.950 . S
H670 C667 0.950 . S
C671 C662 1.390 . S
C671 H664 0.950 . S
C671 C668 1.387 . S
C672 C673 1.387 . S
C672 H676 0.950 . S
C672 C681 1.390 . S
C673 C672 1.387 . S
C673 C675 1.387 . S
H674 C681 0.950 . S
C675 C673 1.387 . S
C675 C677 1.390 . S
C675 H679 0.950 . S
H676 C672 0.950 . S
C677 C675 1.390 . S
C677 C678 1.387 . S
C677 H680 0.950 . S
C678 C677 1.387 . S
C678 C681 1.387 . S
H679 C675 0.950 . S
H680 C677 0.950 . S
C681 C672 1.390 . S
C681 H674 0.950 . S
C681 C678 1.387 . S
C682 C683 1.387 . S
C682 H686 0.950 . S
C682 C691 1.390 . S
C683 C682 1.387 . S
C683 C685 1.387 . S
H684 C691 0.950 . S
C685 C683 1.387 . S
C685 C687 1.390 . S
C685 H689 0.950 . S
H686 C682 0.950 . S
C687 C685 1.390 . S
C687 C688 1.387 . S
C687 H690 0.950 . S
C688 C687 1.387 . S
C688 C691 1.387 . S
H689 C685 0.950 . S
H690 C687 0.950 . S
C691 C682 1.390 . S
C691 H684 0.950 . S
C691 C688 1.387 . S
C692 C693 1.387 . S
C692 H696 0.950 . S
C692 C701 1.390 . S
C693 C692 1.387 . S
C693 C695 1.387 . S
H694 C701 0.950 . S
C695 C693 1.387 . S
C695 C697 1.390 . S
C695 H699 0.950 . S
H696 C692 0.950 . S
C697 C695 1.390 . S
C697 C698 1.387 . S
C697 H700 0.950 . S
C698 C697 1.387 . S
C698 C701 1.387 . S
H699 C695 0.950 . S
H700 C697 0.950 . S
C701 C692 1.390 . S
C701 H694 0.950 . S
C701 C698 1.387 . S
C702 C703 1.387 . S
C702 H706 0.950 . S
C702 C711 1.390 . S
C703 C702 1.387 . S
C703 C705 1.387 . S
H704 C711 0.950 . S
C705 C703 1.387 . S
C705 C707 1.390 . S
C705 H709 0.950 . S
H706 C702 0.950 . S
C707 C705 1.390 . S
C707 C708 1.387 . S
C707 H710 0.950 . S
C708 C707 1.387 . S
C708 C711 1.387 . S
H709 C705 0.950 . S
H710 C707 0.950 . S
C711 C702 1.390 . S
C711 H704 0.950 . S
C711 C708 1.387 . S
C712 C713 1.387 . S
C712 H716 0.950 . S
C712 C721 1.390 . S
C713 C712 1.387 . S
C713 C715 1.387 . S
H714 C721 0.950 . S
C715 C713 1.387 . S
C715 C717 1.390 . S
C715 H719 0.950 . S
H716 C712 0.950 . S
C717 C715 1.390 . S
C717 C718 1.387 . S
C717 H720 0.950 . S
C718 C717 1.387 . S
C718 C721 1.387 . S
H719 C715 0.950 . S
H720 C717 0.950 . S
C721 C712 1.390 . S
C721 H714 0.950 . S
C721 C718 1.387 . S
C722 C723 1.387 . S
C722 H726 0.950 . S
C722 C731 1.390 . S
C723 C722 1.387 . S
C723 C725 1.387 . S
H724 C731 0.950 . S
C725 C723 1.387 . S
C725 C727 1.390 . S
C725 H729 0.950 . S
H726 C722 0.950 . S
C727 C725 1.390 . S
C727 C728 1.387 . S
C727 H730 0.950 . S
C728 C727 1.387 . S
C728 C731 1.387 . S
H729 C725 0.950 . S
H730 C727 0.950 . S
C731 C722 1.390 . S
C731 H724 0.950 . S
C731 C728 1.387 . S
C732 C733 1.387 . S
C732 H736 0.950 . S
C732 C741 1.390 . S
C733 C732 1.387 . S
C733 C735 1.387 . S
H734 C741 0.950 . S
C735 C733 1.387 . S
C735 C737 1.390 . S
C735 H739 0.950 . S
H736 C732 0.950 . S
C737 C735 1.390 . S
C737 C738 1.387 . S
C737 H740 0.950 . S
C738 C737 1.387 . S
C738 C741 1.387 . S
H739 C735 0.950 . S
H740 C737 0.950 . S
C741 C732 1.390 . S
C741 H734 0.950 . S
C741 C738 1.387 . S
C742 C743 1.387 . S
C742 H746 0.950 . S
C742 C751 1.390 1_545 S
C743 C742 1.387 . S
C743 C745 1.387 . S
H744 C751 0.950 . S
C745 C743 1.387 . S
C745 C747 1.390 . S
C745 H749 0.950 . S
H746 C742 0.950 . S
C747 C745 1.390 . S
C747 C748 1.387 1_545 S
C747 H750 0.950 . S
C748 C747 1.387 1_565 S
C748 C751 1.387 . S
H749 C745 0.950 . S
H750 C747 0.950 . S
C751 C742 1.390 1_565 S
C751 H744 0.950 . S
C751 C748 1.387 . S
C752 C753 1.387 . S
C752 H756 0.950 . S
C752 C761 1.390 . S
C753 C752 1.387 . S
C753 C755 1.391 . S
H754 C761 0.950 . S
C755 C753 1.391 . S
C755 C757 1.385 1_655 S
C755 H759 0.952 1_655 S
H756 C752 0.950 . S
C757 C755 1.385 1_455 S
C757 C758 1.387 . S
C757 H760 0.950 . S
C758 C757 1.387 . S
C758 C761 1.387 1_455 S
H759 C755 0.952 1_455 S
H760 C757 0.950 . S
C761 C752 1.390 . S
C761 H754 0.950 . S
C761 C758 1.387 1_655 S
C762 C763 1.387 . S
C762 H766 0.950 . S
C762 C771 1.390 . S
C763 C762 1.387 . S
C763 C765 1.387 . S
H764 C771 0.950 . S
C765 C763 1.387 . S
C765 C767 1.390 . S
C765 H769 0.950 . S
H766 C762 0.950 . S
C767 C765 1.390 . S
C767 C768 1.387 . S
C767 H770 0.950 . S
C768 C767 1.387 . S
C768 C771 1.387 . S
H769 C765 0.950 . S
H770 C767 0.950 . S
C771 C762 1.390 . S
C771 H764 0.950 . S
C771 C768 1.387 . S
C772 C773 1.387 1_545 S
C772 H776 0.950 . S
C772 C781 1.390 . S
C773 C772 1.387 1_565 S
C773 C775 1.387 . S
H774 C781 0.950 . S
C775 C773 1.387 . S
C775 C777 1.394 1_565 S
C775 H779 0.950 . S
H776 C772 0.950 . S
C777 C775 1.394 1_545 S
C777 C778 1.385 . S
C777 H780 0.949 1_545 S
C778 C777 1.385 . S
C778 C781 1.387 . S
H779 C775 0.950 . S
H780 C777 0.949 1_565 S
C781 C772 1.390 . S
C781 H774 0.950 . S
C781 C778 1.387 . S
C782 C783 1.387 1_655 S
C782 H786 0.950 . S
C782 C791 1.390 . S
C783 C782 1.387 1_455 S
C783 C785 1.387 . S
H784 C791 0.950 . S
C785 C783 1.387 . S
C785 C787 1.390 1_455 S
C785 H789 0.950 . S
H786 C782 0.950 . S
C787 C785 1.390 1_655 S
C787 C788 1.387 . S
C787 H790 0.950 . S
C788 C787 1.387 . S
C788 C791 1.387 . S
H789 C785 0.950 . S
H790 C787 0.950 . S
C791 C782 1.390 . S
C791 H784 0.950 . S
C791 C788 1.387 . S
C792 C793 1.387 . S
C792 H796 0.950 . S
C792 C801 1.390 . S
C793 C792 1.387 . S
C793 C795 1.387 . S
H794 C801 0.950 . S
C795 C793 1.387 . S
C795 C797 1.390 . S
C795 H799 0.950 . S
H796 C792 0.950 . S
C797 C795 1.390 . S
C797 C798 1.387 . S
C797 H800 0.950 . S
C798 C797 1.387 . S
C798 C801 1.387 . S
H799 C795 0.950 . S
H800 C797 0.950 . S
C801 C792 1.390 . S
C801 H794 0.950 . S
C801 C798 1.387 . S
C802 C803 1.387 . S
C802 H806 0.950 . S
C802 C811 1.390 . S
C803 C802 1.387 . S
C803 C805 1.387 . S
H804 C811 0.950 . S
C805 C803 1.387 . S
C805 C807 1.390 . S
C805 H809 0.950 . S
H806 C802 0.950 . S
C807 C805 1.390 . S
C807 C808 1.387 . S
C807 H810 0.950 . S
C808 C807 1.387 . S
C808 C811 1.387 . S
H809 C805 0.950 . S
H810 C807 0.950 . S
C811 C802 1.390 . S
C811 H804 0.950 . S
C811 C808 1.387 . S
C812 C813 1.387 . S
C812 H816 0.950 . S
C812 C821 1.390 . S
C813 C812 1.387 . S
C813 C815 1.387 . S
H814 C821 0.950 . S
C815 C813 1.387 . S
C815 C817 1.390 . S
C815 H819 0.950 . S
H816 C812 0.950 . S
C817 C815 1.390 . S
C817 C818 1.387 . S
C817 H820 0.950 . S
C818 C817 1.387 . S
C818 C821 1.387 . S
H819 C815 0.950 . S
H820 C817 0.950 . S
C821 C812 1.390 . S
C821 H814 0.950 . S
C821 C818 1.387 . S
C822 C823 1.387 . S
C822 H826 0.950 . S
C822 C831 1.390 . S
C823 C822 1.387 . S
C823 C825 1.387 . S
H824 C831 0.950 . S
C825 C823 1.387 . S
C825 C827 1.390 . S
C825 H829 0.950 . S
H826 C822 0.950 . S
C827 C825 1.390 . S
C827 C828 1.387 . S
C827 H830 0.950 . S
C828 C827 1.387 . S
C828 C831 1.387 . S
H829 C825 0.950 . S
H830 C827 0.950 . S
C831 C822 1.390 . S
C831 H824 0.950 . S
C831 C828 1.387 . S
C832 C833 1.387 . S
C832 H836 0.950 . S
C832 C841 1.390 . S
C833 C832 1.387 . S
C833 C835 1.387 . S
H834 C841 0.950 . S
C835 C833 1.387 . S
C835 C837 1.390 . S
C835 H839 0.950 . S
H836 C832 0.950 . S
C837 C835 1.390 . S
C837 C838 1.387 . S
C837 H840 0.950 . S
C838 C837 1.387 . S
C838 C841 1.387 . S
H839 C835 0.950 . S
H840 C837 0.950 . S
C841 C832 1.390 . S
C841 H834 0.950 . S
C841 C838 1.387 . S
C842 C843 1.387 . S
C842 H846 0.950 . S
C842 C851 1.390 . S
C843 C842 1.387 . S
C843 C845 1.387 . S
H844 C851 0.950 . S
C845 C843 1.387 . S
C845 C847 1.390 . S
C845 H849 0.950 . S
H846 C842 0.950 . S
C847 C845 1.390 . S
C847 C848 1.387 . S
C847 H850 0.950 . S
C848 C847 1.387 . S
C848 C851 1.387 . S
H849 C845 0.950 . S
H850 C847 0.950 . S
C851 C842 1.390 . S
C851 H844 0.950 . S
C851 C848 1.387 . S
C852 C853 1.387 . S
C852 H856 0.950 . S
C852 C861 1.390 . S
C853 C852 1.387 . S
C853 C855 1.387 . S
H854 C861 0.950 . S
C855 C853 1.387 . S
C855 C857 1.390 . S
C855 H859 0.950 . S
H856 C852 0.950 . S
C857 C855 1.390 . S
C857 C858 1.387 . S
C857 H860 0.950 . S
C858 C857 1.387 . S
C858 C861 1.387 . S
H859 C855 0.950 . S
H860 C857 0.950 . S
C861 C852 1.390 . S
C861 H854 0.950 . S
C861 C858 1.387 . S
C862 C863 1.387 . S
C862 H866 0.950 . S
C862 C871 1.390 . S
C863 C862 1.387 . S
C863 C865 1.387 . S
H864 C871 0.950 . S
C865 C863 1.387 . S
C865 C867 1.390 . S
C865 H869 0.950 . S
H866 C862 0.950 . S
C867 C865 1.390 . S
C867 C868 1.387 . S
C867 H870 0.950 . S
C868 C867 1.387 . S
C868 C871 1.387 . S
H869 C865 0.950 . S
H870 C867 0.950 . S
C871 C862 1.390 . S
C871 H864 0.950 . S
C871 C868 1.387 . S
C872 C873 1.387 . S
C872 H876 0.950 . S
C872 C881 1.390 . S
C873 C872 1.387 . S
C873 C875 1.387 . S
H874 C881 0.950 . S
C875 C873 1.387 . S
C875 C877 1.390 . S
C875 H879 0.950 . S
H876 C872 0.950 . S
C877 C875 1.390 . S
C877 C878 1.387 . S
C877 H880 0.950 . S
C878 C877 1.387 . S
C878 C881 1.387 . S
H879 C875 0.950 . S
H880 C877 0.950 . S
C881 C872 1.390 . S
C881 H874 0.950 . S
C881 C878 1.387 . S
C882 C883 1.387 . S
C882 H886 0.950 . S
C882 C891 1.390 . S
C883 C882 1.387 . S
C883 C885 1.387 . S
H884 C891 0.950 . S
C885 C883 1.387 . S
C885 C887 1.390 . S
C885 H889 0.950 . S
H886 C882 0.950 . S
C887 C885 1.390 . S
C887 C888 1.387 . S
C887 H890 0.950 . S
C888 C887 1.387 . S
C888 C891 1.387 . S
H889 C885 0.950 . S
H890 C887 0.950 . S
C891 C882 1.390 . S
C891 H884 0.950 . S
C891 C888 1.387 . S
C892 C893 1.387 . S
C892 H896 0.950 . S
C892 C901 1.390 . S
C893 C892 1.387 . S
C893 C895 1.387 . S
H894 C901 0.950 . S
C895 C893 1.387 . S
C895 C897 1.390 . S
C895 H899 0.950 . S
H896 C892 0.950 . S
C897 C895 1.390 . S
C897 C898 1.387 . S
C897 H900 0.950 . S
C898 C897 1.387 . S
C898 C901 1.387 . S
H899 C895 0.950 . S
H900 C897 0.950 . S
C901 C892 1.390 . S
C901 H894 0.950 . S
C901 C898 1.387 . S
C902 C903 1.387 . S
C902 H906 0.950 . S
C902 C911 1.390 . S
C903 C902 1.387 . S
C903 C905 1.387 . S
H904 C911 0.950 . S
C905 C903 1.387 . S
C905 C907 1.390 . S
C905 H909 0.950 . S
H906 C902 0.950 . S
C907 C905 1.390 . S
C907 C908 1.387 . S
C907 H910 0.950 . S
C908 C907 1.387 . S
C908 C911 1.387 . S
H909 C905 0.950 . S
H910 C907 0.950 . S
C911 C902 1.390 . S
C911 H904 0.950 . S
C911 C908 1.387 . S
C912 C913 1.387 . S
C912 H916 0.950 . S
C912 C921 1.390 . S
C913 C912 1.387 . S
C913 C915 1.387 . S
H914 C921 0.950 . S
C915 C913 1.387 . S
C915 C917 1.390 . S
C915 H919 0.950 . S
H916 C912 0.950 . S
C917 C915 1.390 . S
C917 C918 1.387 . S
C917 H920 0.950 . S
C918 C917 1.387 . S
C918 C921 1.387 . S
H919 C915 0.950 . S
H920 C917 0.950 . S
C921 C912 1.390 . S
C921 H914 0.950 . S
C921 C918 1.387 . S
C922 C923 1.387 . S
C922 H926 0.950 . S
C922 C931 1.390 . S
C923 C922 1.387 . S
C923 C925 1.387 . S
H924 C931 0.950 1_554 S
C925 C923 1.387 . S
C925 C927 1.390 . S
C925 H929 0.950 . S
H926 C922 0.950 . S
C927 C925 1.390 . S
C927 C928 1.387 . S
C927 H930 0.950 . S
C928 C927 1.387 . S
C928 C931 1.387 . S
H929 C925 0.950 . S
H930 C927 0.950 . S
C931 C922 1.390 . S
C931 H924 0.950 1_556 S
C931 C928 1.387 . S
C932 C933 1.387 . S
C932 H936 0.950 . S
C932 C941 1.390 . S
C933 C932 1.387 . S
C933 C935 1.387 . S
H934 C941 0.950 . S
C935 C933 1.387 . S
C935 C937 1.390 . S
C935 H939 0.950 . S
H936 C932 0.950 . S
C937 C935 1.390 . S
C937 C938 1.387 . S
C937 H940 0.950 1_556 S
C938 C937 1.387 . S
C938 C941 1.387 . S
H939 C935 0.950 . S
H940 C937 0.950 1_554 S
C941 C932 1.390 . S
C941 H934 0.950 . S
C941 C938 1.387 . S
C942 C943 1.387 . S
C942 H946 0.950 . S
C942 C951 1.390 . S
C943 C942 1.387 . S
C943 C945 1.387 . S
H944 C951 0.950 . S
C945 C943 1.387 . S
C945 C947 1.390 . S
C945 H949 0.950 . S
H946 C942 0.950 . S
C947 C945 1.390 . S
C947 C948 1.387 . S
C947 H950 0.950 . S
C948 C947 1.387 . S
C948 C951 1.387 . S
H949 C945 0.950 . S
H950 C947 0.950 . S
C951 C942 1.390 . S
C951 H944 0.950 . S
C951 C948 1.387 . S
C952 C953 1.387 . S
C952 H956 0.950 . S
C952 C961 1.390 . S
C953 C952 1.387 . S
C953 C955 1.387 . S
H954 C961 0.950 . S
C955 C953 1.387 . S
C955 C957 1.390 . S
C955 H959 0.950 . S
H956 C952 0.950 . S
C957 C955 1.390 . S
C957 C958 1.387 . S
C957 H960 0.950 . S
C958 C957 1.387 . S
C958 C961 1.387 . S
H959 C955 0.950 . S
H960 C957 0.950 . S
C961 C952 1.390 . S
C961 H954 0.950 . S
C961 C958 1.387 . S
C962 C963 1.387 . S
C962 H966 0.950 . S
C962 C971 1.390 . S
C963 C962 1.387 . S
C963 C965 1.387 . S
H964 C971 0.950 . S
C965 C963 1.387 . S
C965 C967 1.390 . S
C965 H969 0.950 . S
H966 C962 0.950 . S
C967 C965 1.390 . S
C967 C968 1.387 . S
C967 H970 0.950 . S
C968 C967 1.387 . S
C968 C971 1.387 . S
H969 C965 0.950 . S
H970 C967 0.950 . S
C971 C962 1.390 . S
C971 H964 0.950 . S
C971 C968 1.387 . S
C972 C973 1.387 . S
C972 H976 0.950 . S
C972 C981 1.390 . S
C973 C972 1.387 . S
C973 C975 1.387 . S
H974 C981 0.950 . S
C975 C973 1.387 . S
C975 C977 1.390 . S
C975 H979 0.950 . S
H976 C972 0.950 . S
C977 C975 1.390 . S
C977 C978 1.387 . S
C977 H980 0.950 1_556 S
C978 C977 1.387 . S
C978 C981 1.387 . S
H979 C975 0.950 . S
H980 C977 0.950 1_554 S
C981 C972 1.390 . S
C981 H974 0.950 . S
C981 C978 1.387 . S
C982 C983 1.387 . S
C982 H986 0.950 1_556 S
C982 C991 1.390 . S
C983 C982 1.387 . S
C983 C985 1.387 . S
H984 C991 0.950 . S
C985 C983 1.387 . S
C985 C987 1.390 . S
C985 H989 0.950 . S
H986 C982 0.950 1_554 S
C987 C985 1.390 . S
C987 C988 1.387 . S
C987 H990 0.950 . S
C988 C987 1.387 . S
C988 C991 1.387 . S
H989 C985 0.950 . S
H990 C987 0.950 . S
C991 C982 1.390 . S
C991 H984 0.950 . S
C991 C988 1.387 . S
C992 C993 1.387 . S
C992 H996 0.950 . S
C992 C1001 1.390 . S
C993 C992 1.387 . S
C993 C995 1.387 . S
H994 C1001 0.950 . S
C995 C993 1.387 . S
C995 C997 1.390 . S
C995 H999 0.950 . S
H996 C992 0.950 . S
C997 C995 1.390 . S
C997 C998 1.387 . S
C997 H1000 0.950 1_556 S
C998 C997 1.387 . S
C998 C1001 1.387 . S
H999 C995 0.950 . S
H1000 C997 0.950 1_554 S
C1001 C992 1.390 . S
C1001 H994 0.950 . S
C1001 C998 1.387 . S
C1002 C1003 1.387 . S
C1002 H1006 0.950 . S
C1002 C1011 1.390 . S
C1003 C1002 1.387 . S
C1003 C1005 1.387 . S
H1004 C1011 0.950 . S
C1005 C1003 1.387 . S
C1005 C1007 1.390 . S
C1005 H1009 0.950 . S
H1006 C1002 0.950 . S
C1007 C1005 1.390 . S
C1007 C1008 1.387 . S
C1007 H1010 0.950 . S
C1008 C1007 1.387 . S
C1008 C1011 1.387 . S
H1009 C1005 0.950 . S
H1010 C1007 0.950 . S
C1011 C1002 1.390 . S
C1011 H1004 0.950 . S
C1011 C1008 1.387 . S
C1012 C1013 1.387 . S
C1012 H1016 0.950 . S
C1012 C1021 1.390 . S
C1013 C1012 1.387 . S
C1013 C1015 1.387 . S
H1014 C1021 0.950 . S
C1015 C1013 1.387 . S
C1015 C1017 1.390 . S
C1015 H1019 0.950 . S
H1016 C1012 0.950 . S
C1017 C1015 1.390 . S
C1017 C1018 1.387 . S
C1017 H1020 0.950 . S
C1018 C1017 1.387 . S
C1018 C1021 1.387 . S
H1019 C1015 0.950 . S
H1020 C1017 0.950 . S
C1021 C1012 1.390 . S
C1021 H1014 0.950 . S
C1021 C1018 1.387 . S
C1022 C1023 1.387 . S
C1022 H1026 0.950 . S
C1022 C1031 1.390 . S
C1023 C1022 1.387 . S
C1023 C1025 1.387 . S
H1024 C1031 0.950 . S
C1025 C1023 1.387 . S
C1025 C1027 1.390 . S
C1025 H1029 0.950 . S
H1026 C1022 0.950 . S
C1027 C1025 1.390 . S
C1027 C1028 1.387 . S
C1027 H1030 0.950 . S
C1028 C1027 1.387 . S
C1028 C1031 1.387 . S
H1029 C1025 0.950 . S
H1030 C1027 0.950 . S
C1031 C1022 1.390 . S
C1031 H1024 0.950 . S
C1031 C1028 1.387 . S
C1032 C1033 1.387 . S
C1032 H1036 0.950 . S
C1032 C1041 1.390 . S
C1033 C1032 1.387 . S
C1033 C1035 1.387 . S
H1034 C1041 0.950 . S
C1035 C1033 1.387 . S
C1035 C1037 1.390 . S
C1035 H1039 0.950 . S
H1036 C1032 0.950 . S
C1037 C1035 1.390 . S
C1037 C1038 1.387 . S
C1037 H1040 0.950 1_455 S
C1038 C1037 1.387 . S
C1038 C1041 1.387 . S
H1039 C1035 0.950 . S
H1040 C1037 0.950 1_655 S
C1041 C1032 1.390 . S
C1041 H1034 0.950 . S
C1041 C1038 1.387 . S
C1042 C1043 1.387 . S
C1042 H1046 0.950 . S
C1042 C1051 1.390 . S
C1043 C1042 1.387 . S
C1043 C1045 1.387 . S
H1044 C1051 0.950 . S
C1045 C1043 1.387 . S
C1045 C1047 1.390 . S
C1045 H1049 0.950 . S
H1046 C1042 0.950 . S
C1047 C1045 1.390 . S
C1047 C1048 1.387 . S
C1047 H1050 0.950 . S
C1048 C1047 1.387 . S
C1048 C1051 1.387 . S
H1049 C1045 0.950 . S
H1050 C1047 0.950 . S
C1051 C1042 1.390 . S
C1051 H1044 0.950 . S
C1051 C1048 1.387 . S
C1052 C1053 1.387 . S
C1052 H1056 0.950 . S
C1052 C1061 1.390 . S
C1053 C1052 1.387 . S
C1053 C1055 1.387 . S
H1054 C1061 0.950 . S
C1055 C1053 1.387 . S
C1055 C1057 1.390 . S
C1055 H1059 0.950 . S
H1056 C1052 0.950 . S
C1057 C1055 1.390 . S
C1057 C1058 1.387 . S
C1057 H1060 0.950 . S
C1058 C1057 1.387 . S
C1058 C1061 1.387 . S
H1059 C1055 0.950 . S
H1060 C1057 0.950 . S
C1061 C1052 1.390 . S
C1061 H1054 0.950 . S
C1061 C1058 1.387 . S
C1062 C1063 1.387 . S
C1062 H1066 0.950 1_565 S
C1062 C1071 1.390 . S
C1063 C1062 1.387 . S
C1063 C1065 1.387 . S
H1064 C1071 0.950 . S
C1065 C1063 1.387 . S
C1065 C1067 1.390 . S
C1065 H1069 0.950 . S
H1066 C1062 0.950 1_545 S
C1067 C1065 1.390 . S
C1067 C1068 1.387 . S
C1067 H1070 0.950 . S
C1068 C1067 1.387 . S
C1068 C1071 1.387 . S
H1069 C1065 0.950 . S
H1070 C1067 0.950 . S
C1071 C1062 1.390 . S
C1071 H1064 0.950 . S
C1071 C1068 1.387 . S
C1072 C1073 1.387 . S
C1072 H1076 0.950 1_455 S
C1072 C1081 1.390 . S
C1073 C1072 1.387 . S
C1073 C1075 1.387 . S
H1074 C1081 0.950 . S
C1075 C1073 1.387 . S
C1075 C1077 1.390 . S
C1075 H1079 0.950 . S
H1076 C1072 0.950 1_655 S
C1077 C1075 1.390 . S
C1077 C1078 1.387 . S
C1077 H1080 0.950 . S
C1078 C1077 1.387 . S
C1078 C1081 1.387 . S
H1079 C1075 0.950 . S
H1080 C1077 0.950 . S
C1081 C1072 1.390 . S
C1081 H1074 0.950 . S
C1081 C1078 1.387 . S
C1082 C1083 1.387 . S
C1082 H1086 0.950 . S
C1082 C1091 1.390 . S
C1083 C1082 1.387 . S
C1083 C1085 1.387 . S
H1084 C1091 0.950 . S
C1085 C1083 1.387 . S
C1085 C1087 1.390 . S
C1085 H1089 0.950 . S
H1086 C1082 0.950 . S
C1087 C1085 1.390 . S
C1087 C1088 1.387 . S
C1087 H1090 0.950 . S
C1088 C1087 1.387 . S
C1088 C1091 1.387 . S
H1089 C1085 0.950 . S
H1090 C1087 0.950 . S
C1091 C1082 1.390 . S
C1091 H1084 0.950 . S
C1091 C1088 1.387 . S
C1092 C1093 1.387 . S
C1092 H1096 0.950 . S
C1092 C1101 1.390 . S
C1093 C1092 1.387 . S
C1093 C1095 1.387 . S
H1094 C1101 0.950 . S
C1095 C1093 1.387 . S
C1095 C1097 1.390 . S
C1095 H1099 0.950 . S
H1096 C1092 0.950 . S
C1097 C1095 1.390 . S
C1097 C1098 1.387 . S
C1097 H1100 0.950 . S
C1098 C1097 1.387 . S
C1098 C1101 1.387 . S
H1099 C1095 0.950 . S
H1100 C1097 0.950 . S
C1101 C1092 1.390 . S
C1101 H1094 0.950 . S
C1101 C1098 1.387 . S
C1102 C1103 1.387 . S
C1102 H1106 0.950 . S
C1102 C1111 1.390 . S
C1103 C1102 1.387 . S
C1103 C1105 1.387 . S
H1104 C1111 0.950 . S
C1105 C1103 1.387 . S
C1105 C1107 1.390 . S
C1105 H1109 0.950 . S
H1106 C1102 0.950 . S
C1107 C1105 1.390 . S
C1107 C1108 1.387 . S
C1107 H1110 0.950 . S
C1108 C1107 1.387 . S
C1108 C1111 1.387 . S
H1109 C1105 0.950 . S
H1110 C1107 0.950 . S
C1111 C1102 1.390 . S
C1111 H1104 0.950 . S
C1111 C1108 1.387 . S
C1112 C1113 1.387 . S
C1112 H1116 0.950 . S
C1112 C1121 1.390 . S
C1113 C1112 1.387 . S
C1113 C1115 1.387 . S
H1114 C1121 0.950 . S
C1115 C1113 1.387 . S
C1115 C1117 1.390 . S
C1115 H1119 0.950 . S
H1116 C1112 0.950 . S
C1117 C1115 1.390 . S
C1117 C1118 1.387 . S
C1117 H1120 0.950 . S
C1118 C1117 1.387 . S
C1118 C1121 1.387 . S
H1119 C1115 0.950 . S
H1120 C1117 0.950 . S
C1121 C1112 1.390 . S
C1121 H1114 0.950 . S
C1121 C1118 1.387 . S
C1122 C1123 1.387 . S
C1122 H1126 0.950 . S
C1122 C1131 1.390 . S
C1123 C1122 1.387 . S
C1123 C1125 1.387 . S
H1124 C1131 0.950 . S
C1125 C1123 1.387 . S
C1125 C1127 1.390 . S
C1125 H1129 0.950 . S
H1126 C1122 0.950 . S
C1127 C1125 1.390 . S
C1127 C1128 1.387 . S
C1127 H1130 0.950 . S
C1128 C1127 1.387 . S
C1128 C1131 1.387 . S
H1129 C1125 0.950 . S
H1130 C1127 0.950 . S
C1131 C1122 1.390 . S
C1131 H1124 0.950 . S
C1131 C1128 1.387 . S
C1132 C1133 1.387 . S
C1132 H1136 0.950 . S
C1132 C1141 1.390 . S
C1133 C1132 1.387 . S
C1133 C1135 1.387 . S
H1134 C1141 0.950 . S
C1135 C1133 1.387 . S
C1135 C1137 1.390 . S
C1135 H1139 0.950 . S
H1136 C1132 0.950 . S
C1137 C1135 1.390 . S
C1137 C1138 1.387 . S
C1137 H1140 0.950 . S
C1138 C1137 1.387 . S
C1138 C1141 1.387 . S
H1139 C1135 0.950 . S
H1140 C1137 0.950 . S
C1141 C1132 1.390 . S
C1141 H1134 0.950 . S
C1141 C1138 1.387 . S
C1142 C1143 1.387 . S
C1142 H1146 0.950 . S
C1142 C1151 1.390 . S
C1143 C1142 1.387 . S
C1143 C1145 1.387 . S
H1144 C1151 0.950 . S
C1145 C1143 1.387 . S
C1145 C1147 1.390 . S
C1145 H1149 0.950 . S
H1146 C1142 0.950 . S
C1147 C1145 1.390 . S
C1147 C1148 1.387 . S
C1147 H1150 0.950 . S
C1148 C1147 1.387 . S
C1148 C1151 1.387 . S
H1149 C1145 0.950 . S
H1150 C1147 0.950 . S
C1151 C1142 1.390 . S
C1151 H1144 0.950 . S
C1151 C1148 1.387 . S
C613 C17 0.756 1_556 S
C618 C72 0.757 . S
C623 C4 0.752 . S
C628 C51 0.750 1_556 S
C633 C85 0.749 1_556 S
C638 C38 0.751 . S
C643 C149 0.751 . S
C648 C110 0.750 . S
C653 C183 0.757 . S
C658 C144 0.755 . S
C663 C178 0.750 . S
C668 C115 0.754 . S
C673 C276 0.755 . S
C678 C221 0.757 . S
C683 C255 0.757 . S
C688 C208 0.756 . S
C693 C242 0.758 . S
C698 C289 0.757 . S
C703 C314 0.749 . S
C708 C353 0.751 . S
C713 C387 0.752 . S
C718 C348 0.751 . S
C723 C382 0.756 . S
C728 C319 0.755 . S
C733 C480 0.752 . S
C738 C425 0.749 . S
C743 C459 0.751 . S
C748 C412 0.754 . S
C753 C493 0.751 . S
C758 C446 0.752 . S
C763 C518 0.749 . S
C768 C557 0.751 . S
C773 C591 0.756 . S
C778 C552 0.753 . S
C783 C523 0.754 . S
C788 C586 0.750 . S
C793 C170 1.400 . S
C798 C0 1.397 . S
C803 C102 1.403 . S
C808 C34 1.400 . S
C813 C136 1.400 . S
C818 C68 1.397 . S
C823 C63 1.401 . S
C828 C131 1.398 . S
C833 C165 1.400 . S
C838 C97 1.403 . S
C843 C29 1.404 . S
C848 C199 1.401 . S
C853 C204 1.397 . S
C858 C374 1.400 . S
C863 C238 1.399 . S
C868 C306 1.402 . S
C873 C340 1.403 . S
C878 C272 1.400 . S
C883 C335 1.398 1_554 S
C888 C267 1.401 . S
C893 C369 1.397 1_554 S
C898 C301 1.400 . S
C903 C403 1.397 1_554 S
C908 C233 1.400 . S
C913 C408 1.401 . S
C918 C578 1.404 1_556 S
C923 C442 1.399 . S
C928 C510 1.402 1_556 S
C933 C476 1.398 . S
C938 C544 1.401 1_556 S
C943 C539 1.398 . S
C948 C471 1.401 . S
C953 C573 1.399 . S
C958 C505 1.402 . S
C963 C607 1.397 . S
C968 C437 1.400 . S
C973 C357 2.013 . S
C978 C13 2.113 . S
C983 C47 2.115 . S
C988 C391 2.015 . S
C993 C323 2.012 . S
C998 C81 2.113 . S
C1003 C106 2.114 . S
C1008 C280 2.015 . S
C1013 C140 2.113 . S
C1018 C212 2.012 . S
C1023 C246 2.015 . S
C1028 C174 2.114 . S
C1033 C217 2.113 . S
C1038 C561 2.012 1_455 S
C1043 C251 2.113 . S
C1048 C595 2.013 . S
C1053 C285 2.113 . S
C1058 C527 2.013 1_565 S
C1063 C484 2.012 1_565 S
C1068 C310 2.113 . S
C1073 C416 2.012 1_455 S
C1078 C344 2.113 . S
C1083 C450 2.014 . S
C1088 C378 2.114 . S
C1093 C153 2.012 . S
C1098 C421 2.113 . S
C1103 C455 2.114 . S
C1108 C187 2.015 . S
C1113 C119 2.012 . S
C1118 C489 2.113 . S
C1123 C514 2.114 . S
C1128 C76 2.013 . S
C1133 C548 2.113 . S
C1138 C8 2.012 . S
C1143 C42 2.014 . S
C1148 C582 2.113 . S
