# Generated by pormake.
# Topology unv, (4)-cn, num edge types: 1
# Building blocks:
#     Node 0, Type 0, BuildingBlock: ICAMEG_clean_sbu_1, # of connection points: 4
#     Node 1, Type 0, BuildingBlock: ICAMEG_clean_sbu_1, # of connection points: 4
#     Node 2, Type 0, BuildingBlock: ICAMEG_clean_sbu_1, # of connection points: 4
#     Node 3, Type 0, BuildingBlock: ICAMEG_clean_sbu_1, # of connection points: 4
#     Node 4, Type 0, BuildingBlock: ICAMEG_clean_sbu_1, # of connection points: 4
#     Node 5, Type 0, BuildingBlock: ICAMEG_clean_sbu_1, # of connection points: 4
#     Node 6, Type 0, BuildingBlock: ICAMEG_clean_sbu_1, # of connection points: 4
#     Node 7, Type 0, BuildingBlock: ICAMEG_clean_sbu_1, # of connection points: 4
#     Node 8, Type 0, BuildingBlock: ICAMEG_clean_sbu_1, # of connection points: 4
#     Node 9, Type 0, BuildingBlock: ICAMEG_clean_sbu_1, # of connection points: 4
#     Node 10, Type 0, BuildingBlock: ICAMEG_clean_sbu_1, # of connection points: 4
#     Node 11, Type 0, BuildingBlock: ICAMEG_clean_sbu_1, # of connection points: 4
#     Node 12, Type 0, BuildingBlock: ICAMEG_clean_sbu_1, # of connection points: 4
#     Node 13, Type 0, BuildingBlock: ICAMEG_clean_sbu_1, # of connection points: 4
#     Node 14, Type 0, BuildingBlock: ICAMEG_clean_sbu_1, # of connection points: 4
#     Node 15, Type 0, BuildingBlock: ICAMEG_clean_sbu_1, # of connection points: 4
#     Node 16, Type 0, BuildingBlock: ICAMEG_clean_sbu_1, # of connection points: 4
#     Node 17, Type 0, BuildingBlock: ICAMEG_clean_sbu_1, # of connection points: 4
#     Node 18, Type 0, BuildingBlock: ICAMEG_clean_sbu_1, # of connection points: 4
#     Node 19, Type 0, BuildingBlock: ICAMEG_clean_sbu_1, # of connection points: 4
#     Node 20, Type 0, BuildingBlock: ICAMEG_clean_sbu_1, # of connection points: 4
#     Node 21, Type 0, BuildingBlock: ICAMEG_clean_sbu_1, # of connection points: 4
#     Node 22, Type 0, BuildingBlock: ICAMEG_clean_sbu_1, # of connection points: 4
#     Node 23, Type 0, BuildingBlock: ICAMEG_clean_sbu_1, # of connection points: 4
#     Edge 24, Type (0, 0), BuildingBlock: TEMPAE_clean_linker_10, # of connection points: 2
#     Edge 25, Type (0, 0), BuildingBlock: TEMPAE_clean_linker_10, # of connection points: 2
#     Edge 26, Type (0, 0), BuildingBlock: TEMPAE_clean_linker_10, # of connection points: 2
#     Edge 27, Type (0, 0), BuildingBlock: TEMPAE_clean_linker_10, # of connection points: 2
#     Edge 28, Type (0, 0), BuildingBlock: TEMPAE_clean_linker_10, # of connection points: 2
#     Edge 29, Type (0, 0), BuildingBlock: TEMPAE_clean_linker_10, # of connection points: 2
#     Edge 30, Type (0, 0), BuildingBlock: TEMPAE_clean_linker_10, # of connection points: 2
#     Edge 31, Type (0, 0), BuildingBlock: TEMPAE_clean_linker_10, # of connection points: 2
#     Edge 32, Type (0, 0), BuildingBlock: TEMPAE_clean_linker_10, # of connection points: 2
#     Edge 33, Type (0, 0), BuildingBlock: TEMPAE_clean_linker_10, # of connection points: 2
#     Edge 34, Type (0, 0), BuildingBlock: TEMPAE_clean_linker_10, # of connection points: 2
#     Edge 35, Type (0, 0), BuildingBlock: TEMPAE_clean_linker_10, # of connection points: 2
#     Edge 36, Type (0, 0), BuildingBlock: TEMPAE_clean_linker_10, # of connection points: 2
#     Edge 37, Type (0, 0), BuildingBlock: TEMPAE_clean_linker_10, # of connection points: 2
#     Edge 38, Type (0, 0), BuildingBlock: TEMPAE_clean_linker_10, # of connection points: 2
#     Edge 39, Type (0, 0), BuildingBlock: TEMPAE_clean_linker_10, # of connection points: 2
#     Edge 40, Type (0, 0), BuildingBlock: TEMPAE_clean_linker_10, # of connection points: 2
#     Edge 41, Type (0, 0), BuildingBlock: TEMPAE_clean_linker_10, # of connection points: 2
#     Edge 42, Type (0, 0), BuildingBlock: TEMPAE_clean_linker_10, # of connection points: 2
#     Edge 43, Type (0, 0), BuildingBlock: TEMPAE_clean_linker_10, # of connection points: 2
#     Edge 44, Type (0, 0), BuildingBlock: TEMPAE_clean_linker_10, # of connection points: 2
#     Edge 45, Type (0, 0), BuildingBlock: TEMPAE_clean_linker_10, # of connection points: 2
#     Edge 46, Type (0, 0), BuildingBlock: TEMPAE_clean_linker_10, # of connection points: 2
#     Edge 47, Type (0, 0), BuildingBlock: TEMPAE_clean_linker_10, # of connection points: 2
#     Edge 48, Type (0, 0), BuildingBlock: TEMPAE_clean_linker_10, # of connection points: 2
#     Edge 49, Type (0, 0), BuildingBlock: TEMPAE_clean_linker_10, # of connection points: 2
#     Edge 50, Type (0, 0), BuildingBlock: TEMPAE_clean_linker_10, # of connection points: 2
#     Edge 51, Type (0, 0), BuildingBlock: TEMPAE_clean_linker_10, # of connection points: 2
#     Edge 52, Type (0, 0), BuildingBlock: TEMPAE_clean_linker_10, # of connection points: 2
#     Edge 53, Type (0, 0), BuildingBlock: TEMPAE_clean_linker_10, # of connection points: 2
#     Edge 54, Type (0, 0), BuildingBlock: TEMPAE_clean_linker_10, # of connection points: 2
#     Edge 55, Type (0, 0), BuildingBlock: TEMPAE_clean_linker_10, # of connection points: 2
#     Edge 56, Type (0, 0), BuildingBlock: TEMPAE_clean_linker_10, # of connection points: 2
#     Edge 57, Type (0, 0), BuildingBlock: TEMPAE_clean_linker_10, # of connection points: 2
#     Edge 58, Type (0, 0), BuildingBlock: TEMPAE_clean_linker_10, # of connection points: 2
#     Edge 59, Type (0, 0), BuildingBlock: TEMPAE_clean_linker_10, # of connection points: 2
#     Edge 60, Type (0, 0), BuildingBlock: TEMPAE_clean_linker_10, # of connection points: 2
#     Edge 61, Type (0, 0), BuildingBlock: TEMPAE_clean_linker_10, # of connection points: 2
#     Edge 62, Type (0, 0), BuildingBlock: TEMPAE_clean_linker_10, # of connection points: 2
#     Edge 63, Type (0, 0), BuildingBlock: TEMPAE_clean_linker_10, # of connection points: 2
#     Edge 64, Type (0, 0), BuildingBlock: TEMPAE_clean_linker_10, # of connection points: 2
#     Edge 65, Type (0, 0), BuildingBlock: TEMPAE_clean_linker_10, # of connection points: 2
#     Edge 66, Type (0, 0), BuildingBlock: TEMPAE_clean_linker_10, # of connection points: 2
#     Edge 67, Type (0, 0), BuildingBlock: TEMPAE_clean_linker_10, # of connection points: 2
#     Edge 68, Type (0, 0), BuildingBlock: TEMPAE_clean_linker_10, # of connection points: 2
#     Edge 69, Type (0, 0), BuildingBlock: TEMPAE_clean_linker_10, # of connection points: 2
#     Edge 70, Type (0, 0), BuildingBlock: TEMPAE_clean_linker_10, # of connection points: 2
#     Edge 71, Type (0, 0), BuildingBlock: TEMPAE_clean_linker_10, # of connection points: 2
# Relax obj value: 0.193
# Max RMSD: 0.147
# Mean RMSD: 0.124
data_MOF--net-unv--node1-ICAMEG_clean_sbu_1--edge1-TEMPAE_clean_linker_10
_symmetry_space_group_name_H-M    P1
_symmetry_Int_Tables_number       1
_symmetry_cell_setting            triclinic
loop_
_symmetry_equiv_pos_as_xyz
'x, y, z'
_cell_length_a     52.972864
_cell_length_b     52.98114
_cell_length_c     52.978384
_cell_angle_alpha  89.981316
_cell_angle_beta   89.988234
_cell_angle_gamma 89.979492
loop_
_atom_site_label
_atom_site_type_symbol
_atom_site_fract_x
_atom_site_fract_y
_atom_site_fract_z
_atom_type_partial_charge
Co0 Co 0.97835 0.06347 0.36532 0.0
Co1 Co 0.94728 0.10478 0.40471 0.0
O2 O 0.95805 0.09362 0.37123 0.0
C3 C 0.93517 0.05177 0.33156 0.0
O4 O 0.91987 0.05375 0.35097 0.0
C5 C 0.97381 0.14869 0.38353 0.0
O6 O 0.99125 0.13275 0.37609 0.0
O7 O 0.9822 0.10199 0.41814 0.0
O8 O 0.99859 0.06937 0.39661 0.0
H9 H 0.9431 0.10151 0.49941 0.0
H10 H 0.97289 0.10097 0.32416 0.0
O11 O 0.95864 0.05641 0.33394 0.0
H12 H 0.0642 0.09683 0.34184 0.0
H13 H 0.02599 0.0019 0.3108 0.0
H14 H 0.99668 0.02106 0.39703 0.0
H15 H 0.0343 0.07002 0.3654 0.0
H16 H 0.00166 0.04064 0.31945 0.0
O17 O 0.95428 0.1407 0.39506 0.0
H18 H 0.95619 0.08717 0.4571 0.0
H19 H 0.91583 0.14761 0.42325 0.0
H20 H 0.02123 0.98228 0.3893 0.0
H21 H 0.00216 0.12794 0.29996 0.0
H22 H 0.03604 0.97247 0.3459 0.0
H23 H 0.04816 0.12604 0.30884 0.0
O24 O 0.95451 0.0426 0.3853 0.0
H25 H 0.88134 0.13089 0.34177 0.0
H26 H 0.89687 0.08705 0.42242 0.0
H27 H 0.8535 0.08947 0.40563 0.0
H28 H 0.84552 0.11156 0.36505 0.0
H29 H 0.92445 0.12784 0.35916 0.0
H30 H 0.90249 0.16277 0.46522 0.0
H31 H 0.91605 0.13958 0.50366 0.0
O32 O 0.94041 0.06911 0.41535 0.0
C33 C 0.99919 0.08537 0.41457 0.0
C34 C 0.93695 0.1117 0.4828 0.0
C35 C 0.91419 0.1461 0.46361 0.0
N36 N 0.9365 0.11634 0.43773 0.0
C37 C 0.94422 0.1036 0.45879 0.0
C38 C 0.92183 0.13745 0.4399 0.0
C39 C 0.92181 0.13308 0.48517 0.0
C40 C 0.99292 0.09984 0.32792 0.0
N41 N 0.00188 0.0839 0.34611 0.0
C42 C 0.00938 0.11524 0.31425 0.0
C43 C 0.03519 0.11419 0.31927 0.0
C44 C 0.04419 0.09783 0.3378 0.0
C45 C 0.02717 0.08274 0.35113 0.0
C46 C 0.01977 0.00603 0.32981 0.0
C47 C 0.00335 0.01711 0.37817 0.0
C48 C 0.00598 0.02794 0.33483 0.0
N49 N 0.99812 0.03333 0.35881 0.0
C50 C 0.01712 0.99504 0.37387 0.0
C51 C 0.02539 0.98953 0.34951 0.0
C52 C 0.94269 0.0471 0.40577 0.0
C53 C 0.88457 0.12127 0.3595 0.0
C54 C 0.89355 0.09663 0.40471 0.0
C55 C 0.86895 0.09798 0.39533 0.0
C56 C 0.86448 0.1104 0.37256 0.0
N57 N 0.91313 0.10742 0.39183 0.0
C58 C 0.90892 0.11956 0.36947 0.0
Co59 Co 0.99457 0.41901 0.37387 0.0
Co60 Co 0.04036 0.37831 0.39687 0.0
O61 O 0.01947 0.3921 0.36949 0.0
C62 C 0.03027 0.44026 0.33608 0.0
O63 O 0.04897 0.42811 0.34688 0.0
C64 C 0.00943 0.33513 0.37975 0.0
O65 O 0.99077 0.35109 0.37651 0.0
O66 O 0.01175 0.37866 0.42145 0.0
O67 O 0.98076 0.40179 0.40406 0.0
H68 H 0.07516 0.37379 0.48501 0.0
H69 H 0.99904 0.39379 0.32425 0.0
O70 O 0.00768 0.43756 0.34379 0.0
H71 H 0.91171 0.37778 0.35225 0.0
H72 H 0.93006 0.48251 0.34467 0.0
H73 H 0.97486 0.44696 0.41813 0.0
H74 H 0.94068 0.40312 0.37842 0.0
H75 H 0.96135 0.44846 0.3391 0.0
O76 O 0.03096 0.34298 0.38706 0.0
H77 H 0.04875 0.391 0.45076 0.0
H78 H 0.07664 0.33541 0.40023 0.0
H79 H 0.94346 0.48071 0.42459 0.0
H80 H 0.97062 0.36851 0.29736 0.0
H81 H 0.92084 0.49876 0.38767 0.0
H82 H 0.92664 0.36029 0.31139 0.0
O83 O 0.01824 0.43883 0.39534 0.0
H84 H 0.0826 0.35952 0.31407 0.0
H85 H 0.0935 0.3967 0.3987 0.0
H86 H 0.12908 0.39728 0.36864 0.0
H87 H 0.12375 0.37856 0.326 0.0
H88 H 0.04746 0.35952 0.34465 0.0
H89 H 0.10316 0.31738 0.434 0.0
H90 H 0.10262 0.33668 0.47672 0.0
O91 O 0.04973 0.41309 0.40773 0.0
C92 C 0.98952 0.38785 0.42151 0.0
C93 C 0.07567 0.36529 0.46644 0.0
C94 C 0.09135 0.33361 0.43782 0.0
N95 N 0.06142 0.36447 0.42344 0.0
C96 C 0.06084 0.37504 0.44695 0.0
C97 C 0.07628 0.34389 0.41878 0.0
C98 C 0.09104 0.34445 0.46179 0.0
C99 C 0.97984 0.39049 0.33033 0.0
N100 N 0.97149 0.4 0.35279 0.0
C101 C 0.96388 0.37608 0.31509 0.0
C102 C 0.93921 0.37145 0.32299 0.0
C103 C 0.93082 0.38125 0.34592 0.0
C104 C 0.94733 0.39554 0.36068 0.0
C105 C 0.93976 0.47477 0.3609 0.0
C106 C 0.96495 0.45457 0.40199 0.0
C107 C 0.95754 0.45553 0.35786 0.0
N108 N 0.96977 0.4456 0.37829 0.0
C109 C 0.94725 0.47375 0.40576 0.0
C110 C 0.93459 0.48387 0.38504 0.0
C111 C 0.03905 0.43466 0.40675 0.0
C112 C 0.08518 0.36767 0.33262 0.0
C113 C 0.09103 0.38857 0.38015 0.0
C114 C 0.11125 0.38891 0.36323 0.0
C115 C 0.10825 0.37838 0.33931 0.0
N116 N 0.06849 0.37796 0.37346 0.0
C117 C 0.06539 0.36763 0.35005 0.0
Co118 Co 0.98435 0.93121 0.14924 0.0
Co119 Co 0.95204 0.89156 0.10912 0.0
O120 O 0.96317 0.9018 0.14277 0.0
C121 C 0.94092 0.94242 0.18256 0.0
O122 O 0.92597 0.93945 0.16302 0.0
C123 C 0.97723 0.84657 0.12976 0.0
O124 O 0.99515 0.86185 0.13741 0.0
O125 O 0.98697 0.8937 0.09562 0.0
O126 O 0.0046 0.92508 0.11795 0.0
H127 H 0.94775 0.89672 0.01452 0.0
H128 H 0.97743 0.89337 0.18985 0.0
O129 O 0.96456 0.93852 0.18053 0.0
H130 H 0.06893 0.89469 0.17271 0.0
H131 H 0.03381 0.99026 0.20484 0.0
H132 H 0.00422 0.97341 0.11823 0.0
H133 H 0.04006 0.92281 0.14936 0.0
H134 H 0.00809 0.95259 0.19555 0.0
O135 O 0.95806 0.8553 0.11815 0.0
H136 H 0.96124 0.90995 0.05706 0.0
H137 H 0.91948 0.84991 0.08989 0.0
H138 H 0.03015 0.01114 0.12661 0.0
H139 H 0.00566 0.8651 0.21381 0.0
H140 H 0.04512 0.01977 0.1702 0.0
H141 H 0.05174 0.86558 0.2052 0.0
O142 O 0.96123 0.95314 0.12952 0.0
H143 H 0.88561 0.86616 0.17186 0.0
H144 H 0.90206 0.91094 0.0919 0.0
H145 H 0.8587 0.90944 0.10883 0.0
H146 H 0.85025 0.88688 0.14906 0.0
H147 H 0.92872 0.86831 0.15435 0.0
H148 H 0.9057 0.83587 0.04768 0.0
H149 H 0.91978 0.85941 0.00964 0.0
O150 O 0.94606 0.92757 0.09918 0.0
C151 C 0.0046 0.90957 0.09954 0.0
C152 C 0.94139 0.88638 0.03096 0.0
C153 C 0.91782 0.85221 0.04957 0.0
N154 N 0.94089 0.88091 0.07593 0.0
C155 C 0.94888 0.89385 0.0551 0.0
C156 C 0.92569 0.86022 0.07341 0.0
C157 C 0.92572 0.86543 0.02823 0.0
C158 C 0.9975 0.89388 0.18621 0.0
N159 N 0.0071 0.90976 0.16829 0.0
C160 C 0.01337 0.87775 0.19975 0.0
C161 C 0.03923 0.878 0.19488 0.0
C162 C 0.04888 0.89431 0.17662 0.0
C163 C 0.03243 0.91013 0.16342 0.0
C164 C 0.02752 0.98664 0.18575 0.0
C165 C 0.01093 0.97687 0.13718 0.0
C166 C 0.01294 0.96534 0.18037 0.0
N167 N 0.00503 0.96059 0.15628 0.0
C168 C 0.02549 0.99834 0.14184 0.0
C169 C 0.03385 0.00319 0.1663 0.0
C170 C 0.94905 0.94932 0.10914 0.0
C171 C 0.88904 0.87599 0.15427 0.0
C172 C 0.89854 0.90114 0.10946 0.0
C173 C 0.87394 0.90031 0.11892 0.0
C174 C 0.86921 0.88764 0.14149 0.0
N175 N 0.91786 0.88959 0.12207 0.0
C176 C 0.91339 0.87718 0.14423 0.0
Co177 Co 0.9916 0.57427 0.14778 0.0
Co178 Co 0.03684 0.6149 0.12356 0.0
O179 O 0.01554 0.60223 0.15104 0.0
C180 C 0.0266 0.55641 0.1877 0.0
O181 O 0.04541 0.56711 0.17563 0.0
C182 C 0.00564 0.65892 0.13792 0.0
O183 O 0.98663 0.64334 0.14095 0.0
O184 O 0.00835 0.61365 0.09884 0.0
O185 O 0.97874 0.58826 0.11548 0.0
H186 H 0.07308 0.61504 0.03592 0.0
H187 H 0.9932 0.6034 0.19544 0.0
O188 O 0.00402 0.55879 0.17983 0.0
H189 H 0.90702 0.61517 0.16226 0.0
H190 H 0.92744 0.5122 0.18046 0.0
H191 H 0.9752 0.54091 0.10593 0.0
H192 H 0.93774 0.58855 0.13952 0.0
H193 H 0.95734 0.54772 0.18375 0.0
O194 O 0.02734 0.65055 0.1318 0.0
H195 H 0.04644 0.59926 0.0707 0.0
H196 H 0.0727 0.658 0.11849 0.0
H197 H 0.94532 0.5055 0.10169 0.0
H198 H 0.96302 0.63004 0.21891 0.0
H199 H 0.92118 0.49091 0.13916 0.0
H200 H 0.91961 0.63612 0.20226 0.0
O201 O 0.01646 0.55354 0.12872 0.0
H202 H 0.07776 0.63672 0.20624 0.0
H203 H 0.09029 0.59715 0.12293 0.0
H204 H 0.12542 0.5978 0.15348 0.0
H205 H 0.11927 0.61773 0.19547 0.0
H206 H 0.04307 0.63544 0.17519 0.0
H207 H 0.09945 0.67456 0.08416 0.0
H208 H 0.09983 0.65297 0.04254 0.0
O209 O 0.04665 0.57976 0.1144 0.0
C210 C 0.98699 0.60256 0.098 0.0
C211 C 0.07315 0.62456 0.05399 0.0
C212 C 0.08792 0.65799 0.08105 0.0
N213 N 0.05817 0.62758 0.09665 0.0
C214 C 0.05816 0.61567 0.07377 0.0
C215 C 0.0727 0.64856 0.10041 0.0
C216 C 0.08813 0.64586 0.05771 0.0
C217 C 0.97426 0.60577 0.18823 0.0
N218 N 0.96719 0.59435 0.16624 0.0
C219 C 0.95729 0.62095 0.20154 0.0
C220 C 0.93295 0.62438 0.19216 0.0
C221 C 0.92588 0.61265 0.16971 0.0
C222 C 0.94336 0.59764 0.1569 0.0
C223 C 0.93776 0.51845 0.16396 0.0
C224 C 0.96458 0.53484 0.12224 0.0
C225 C 0.95472 0.53855 0.16571 0.0
N226 N 0.96774 0.54663 0.14494 0.0
C227 C 0.94777 0.5147 0.11976 0.0
C228 C 0.93426 0.50651 0.14079 0.0
C229 C 0.03694 0.55789 0.11684 0.0
C230 C 0.08069 0.62803 0.18799 0.0
C231 C 0.08744 0.60577 0.1412 0.0
C232 C 0.10742 0.60614 0.15839 0.0
C233 C 0.10396 0.61734 0.18194 0.0
N234 N 0.06469 0.61631 0.14727 0.0
C235 C 0.06115 0.62733 0.1703 0.0
Co236 Co 0.37181 0.98677 0.06969 0.0
Co237 Co 0.4065 0.9469 0.10799 0.0
O238 O 0.37513 0.96326 0.09769 0.0
C239 C 0.33699 0.94599 0.05402 0.0
O240 O 0.35527 0.92973 0.05799 0.0
C241 C 0.39261 0.97678 0.15276 0.0
O242 O 0.39098 0.99631 0.13763 0.0
O243 O 0.42621 0.97889 0.10478 0.0
O244 O 0.40322 0.00458 0.07991 0.0
H245 H 0.4988 0.92538 0.10301 0.0
H246 H 0.32893 0.9789 0.10474 0.0
O247 O 0.34019 0.96935 0.05868 0.0
H248 H 0.34932 0.06953 0.1106 0.0
H249 H 0.32334 0.04329 0.01061 0.0
H250 H 0.40718 0.00925 0.03256 0.0
H251 H 0.37316 0.04171 0.08186 0.0
H252 H 0.32835 0.01403 0.04649 0.0
O253 O 0.39838 0.95507 0.14414 0.0
H254 H 0.45939 0.94615 0.08951 0.0
H255 H 0.41972 0.91242 0.1504 0.0
H256 H 0.40307 0.03867 0.9967 0.0
H257 H 0.30444 0.00608 0.13358 0.0
H258 H 0.3609 0.05588 0.98551 0.0
H259 H 0.31465 0.05173 0.13668 0.0
O260 O 0.39198 0.96441 0.0471 0.0
H261 H 0.33353 0.89259 0.13493 0.0
H262 H 0.41466 0.89451 0.08928 0.0
H263 H 0.39062 0.85471 0.09161 0.0
H264 H 0.34977 0.85357 0.11462 0.0
H265 H 0.35808 0.93204 0.13194 0.0
H266 H 0.45874 0.89142 0.16476 0.0
H267 H 0.49863 0.89777 0.14093 0.0
O268 O 0.41514 0.93896 0.07214 0.0
C269 C 0.42279 0.9996 0.09294 0.0
C270 C 0.48153 0.92237 0.1135 0.0
C271 C 0.45905 0.90335 0.14817 0.0
N272 N 0.43724 0.93029 0.11896 0.0
C273 C 0.45914 0.93402 0.10587 0.0
C274 C 0.43702 0.91532 0.13997 0.0
C275 C 0.48142 0.90691 0.13479 0.0
C276 C 0.33334 0.99879 0.10586 0.0
N277 N 0.35238 0.00873 0.09159 0.0
C278 C 0.31947 0.01406 0.12227 0.0
C279 C 0.32523 0.03967 0.12403 0.0
C280 C 0.34468 0.04967 0.10941 0.0
C281 C 0.35816 0.03382 0.09322 0.0
C282 C 0.34182 0.03597 0.01533 0.0
C283 C 0.3888 0.01681 0.02792 0.0
C284 C 0.34476 0.01935 0.03559 0.0
N285 N 0.36806 0.01011 0.04173 0.0
C286 C 0.38658 0.0334 0.00755 0.0
C287 C 0.36291 0.04303 0.00126 0.0
C288 C 0.40841 0.94709 0.05046 0.0
C289 C 0.35134 0.89283 0.12491 0.0
C290 C 0.39686 0.89418 0.09926 0.0
C291 C 0.38336 0.87157 0.10056 0.0
C292 C 0.36045 0.87095 0.11349 0.0
N293 N 0.38784 0.91552 0.1106 0.0
C294 C 0.36537 0.91508 0.12324 0.0
Co295 Co 0.6325 0.52977 0.06851 0.0
Co296 Co 0.59591 0.56592 0.1089 0.0
O297 O 0.62813 0.55153 0.09785 0.0
C298 C 0.66643 0.5721 0.0546 0.0
O299 O 0.64777 0.58782 0.05889 0.0
C300 C 0.613 0.53425 0.15122 0.0
O301 O 0.61912 0.51745 0.1341 0.0
O302 O 0.57752 0.53361 0.1034 0.0
O303 O 0.60137 0.51041 0.07708 0.0
H304 H 0.50312 0.58506 0.10325 0.0
H305 H 0.67487 0.53659 0.10432 0.0
O306 O 0.66384 0.54859 0.05889 0.0
H307 H 0.65655 0.44534 0.10497 0.0
H308 H 0.68316 0.47835 0.00667 0.0
H309 H 0.59824 0.50897 0.02946 0.0
H310 H 0.6325 0.47414 0.07739 0.0
H311 H 0.67694 0.505 0.04433 0.0
O312 O 0.60342 0.55531 0.14457 0.0
H313 H 0.54354 0.56694 0.08895 0.0
H314 H 0.58055 0.59623 0.15369 0.0
H315 H 0.60358 0.48215 0.99179 0.0
H316 H 0.69956 0.50844 0.13205 0.0
H317 H 0.6463 0.46668 0.98017 0.0
H318 H 0.69035 0.46248 0.13257 0.0
O319 O 0.61206 0.55303 0.0472 0.0
H320 H 0.66627 0.62076 0.14108 0.0
H321 H 0.58608 0.61919 0.09383 0.0
H322 H 0.6085 0.65959 0.09954 0.0
H323 H 0.64887 0.66054 0.12338 0.0
H324 H 0.64332 0.58074 0.13473 0.0
H325 H 0.54049 0.61454 0.16883 0.0
H326 H 0.50142 0.60907 0.1435 0.0
O327 O 0.58764 0.57605 0.07349 0.0
C328 C 0.58151 0.51388 0.09022 0.0
C329 C 0.52002 0.58764 0.11443 0.0
C330 C 0.54099 0.60415 0.15125 0.0
N331 N 0.56439 0.58061 0.12039 0.0
C332 C 0.54298 0.57747 0.10639 0.0
C333 C 0.5636 0.59368 0.14262 0.0
C334 C 0.51908 0.60108 0.13702 0.0
C335 C 0.67095 0.51657 0.10426 0.0
N336 N 0.65231 0.50701 0.08924 0.0
C337 C 0.68491 0.50074 0.12007 0.0
C338 C 0.67971 0.47496 0.12038 0.0
C339 C 0.66074 0.46533 0.10492 0.0
C340 C 0.64713 0.48174 0.08939 0.0
C341 C 0.66445 0.48492 0.01158 0.0
C342 C 0.61685 0.50213 0.02465 0.0
C343 C 0.66081 0.50005 0.03286 0.0
N344 N 0.63721 0.50834 0.03921 0.0
C345 C 0.61977 0.48703 0.00324 0.0
C346 C 0.64375 0.47838 0.99672 0.0
C347 C 0.59515 0.56965 0.0515 0.0
C348 C 0.64866 0.6206 0.13072 0.0
C349 C 0.60368 0.61945 0.10415 0.0
C350 C 0.61626 0.64239 0.10737 0.0
C351 C 0.6389 0.64291 0.12076 0.0
N352 N 0.61332 0.59767 0.11407 0.0
C353 C 0.63554 0.59801 0.12715 0.0
Co354 Co 0.3679 0.99599 0.42454 0.0
Co355 Co 0.39551 0.03815 0.383 0.0
O356 O 0.36705 0.01833 0.39532 0.0
C357 C 0.32974 0.03358 0.43989 0.0
O358 O 0.34584 0.05118 0.43326 0.0
C359 C 0.38488 0.00422 0.34021 0.0
O360 O 0.38567 0.98549 0.35639 0.0
O361 O 0.41942 0.00924 0.38706 0.0
O362 O 0.40083 0.98171 0.41367 0.0
H363 H 0.48395 0.07242 0.38452 0.0
H364 H 0.32244 0.99713 0.39195 0.0
O365 O 0.33504 0.01035 0.43657 0.0
H366 H 0.35373 0.90955 0.38786 0.0
H367 H 0.32869 0.9374 0.48825 0.0
H368 H 0.40729 0.97882 0.46061 0.0
H369 H 0.37555 0.94127 0.41403 0.0
H370 H 0.32886 0.96535 0.45102 0.0
O371 O 0.38785 0.02692 0.3476 0.0
H372 H 0.44798 0.04741 0.40028 0.0
H373 H 0.40321 0.0713 0.3382 0.0
H374 H 0.40803 0.9509 0.49782 0.0
H375 H 0.29992 0.96597 0.36568 0.0
H376 H 0.36849 0.92996 0.51189 0.0
H377 H 0.31559 0.92183 0.36349 0.0
O378 O 0.38663 0.02129 0.44507 0.0
H379 H 0.3151 0.0804 0.35566 0.0
H380 H 0.39702 0.09228 0.39821 0.0
H381 H 0.36772 0.12827 0.39445 0.0
H382 H 0.32644 0.12245 0.37298 0.0
H383 H 0.34489 0.04486 0.36006 0.0
H384 H 0.43878 0.09638 0.32163 0.0
H385 H 0.47947 0.09712 0.34491 0.0
O386 O 0.40375 0.04936 0.41807 0.0
C387 C 0.41913 0.98882 0.39982 0.0
C388 C 0.46629 0.07231 0.37425 0.0
C389 C 0.44095 0.08573 0.33894 0.0
N390 N 0.42347 0.05806 0.37028 0.0
C391 C 0.44583 0.05825 0.38312 0.0
C392 C 0.42089 0.07145 0.34837 0.0
C393 C 0.46377 0.08615 0.35201 0.0
C394 C 0.32924 0.97791 0.39124 0.0
N395 N 0.35017 0.97098 0.40461 0.0
C396 C 0.31647 0.96037 0.37627 0.0
C397 C 0.32529 0.93562 0.37503 0.0
C398 C 0.34669 0.92871 0.38869 0.0
C399 C 0.35899 0.94676 0.40343 0.0
C400 C 0.34604 0.94639 0.4823 0.0
C401 C 0.39006 0.96969 0.46652 0.0
C402 C 0.34624 0.96229 0.46126 0.0
N403 N 0.3681 0.97364 0.45358 0.0
C404 C 0.39057 0.95394 0.48765 0.0
C405 C 0.36838 0.94222 0.49555 0.0
C406 C 0.39992 0.04081 0.44027 0.0
C407 C 0.33305 0.08318 0.365 0.0
C408 C 0.37905 0.08958 0.38894 0.0
C409 C 0.36257 0.11004 0.38681 0.0
C410 C 0.33942 0.10677 0.37475 0.0
N411 N 0.3727 0.06653 0.37927 0.0
C412 C 0.35002 0.06315 0.36747 0.0
Co413 Co 0.63564 0.486 0.42009 0.0
Co414 Co 0.60246 0.45121 0.37601 0.0
O415 O 0.63362 0.46631 0.38898 0.0
C416 C 0.67334 0.44666 0.43301 0.0
O417 O 0.65608 0.42942 0.42875 0.0
C418 C 0.61963 0.4839 0.33447 0.0
O419 O 0.62452 0.50095 0.35175 0.0
O420 O 0.58342 0.48324 0.38055 0.0
O421 O 0.60254 0.50263 0.41303 0.0
H422 H 0.50965 0.43163 0.37592 0.0
H423 H 0.6789 0.48666 0.38468 0.0
O424 O 0.66881 0.46985 0.42852 0.0
H425 H 0.65037 0.57508 0.39044 0.0
H426 H 0.68072 0.53765 0.48589 0.0
H427 H 0.59987 0.49874 0.46126 0.0
H428 H 0.62927 0.54175 0.41518 0.0
H429 H 0.6771 0.51389 0.44603 0.0
O430 O 0.61144 0.46221 0.34091 0.0
H431 H 0.54893 0.45038 0.39242 0.0
H432 H 0.59024 0.42021 0.3307 0.0
H433 H 0.60255 0.52259 0.50112 0.0
H434 H 0.7007 0.51944 0.35978 0.0
H435 H 0.64323 0.54223 0.51369 0.0
H436 H 0.68636 0.564 0.3625 0.0
O437 O 0.61765 0.45927 0.43919 0.0
H438 H 0.67572 0.39822 0.34741 0.0
H439 H 0.59293 0.39752 0.39 0.0
H440 H 0.61659 0.35769 0.38523 0.0
H441 H 0.65827 0.35788 0.36374 0.0
H442 H 0.65149 0.43766 0.35278 0.0
H443 H 0.55136 0.40134 0.31337 0.0
H444 H 0.51072 0.40691 0.33609 0.0
O445 O 0.59234 0.44031 0.41079 0.0
C446 C 0.58466 0.50066 0.39705 0.0
C447 C 0.52726 0.42896 0.36591 0.0
C448 C 0.55067 0.41199 0.33078 0.0
N449 N 0.57189 0.4361 0.36273 0.0
C450 C 0.54958 0.43943 0.37523 0.0
C451 C 0.57261 0.42273 0.34067 0.0
C452 C 0.52787 0.41512 0.34355 0.0
C453 C 0.67275 0.50606 0.38616 0.0
N454 N 0.65292 0.51231 0.40142 0.0
C455 C 0.68508 0.52452 0.37193 0.0
C456 C 0.677 0.54951 0.37344 0.0
C457 C 0.65679 0.55574 0.3891 0.0
C458 C 0.64488 0.53677 0.40301 0.0
C459 C 0.66286 0.52931 0.48055 0.0
C460 C 0.61753 0.50753 0.46642 0.0
C461 C 0.66069 0.51583 0.458 0.0
N462 N 0.63816 0.50531 0.4511 0.0
C463 C 0.61898 0.52089 0.48909 0.0
C464 C 0.64182 0.53186 0.49614 0.0
C465 C 0.60017 0.44383 0.43331 0.0
C466 C 0.65755 0.39789 0.35675 0.0
C467 C 0.6111 0.39776 0.38071 0.0
C468 C 0.62438 0.37515 0.37801 0.0
C469 C 0.64776 0.37527 0.36594 0.0
N470 N 0.62079 0.41985 0.37156 0.0
C471 C 0.64372 0.42014 0.35977 0.0
Co472 Co 0.06819 0.37176 0.9874 0.0
Co473 Co 0.10765 0.40539 0.94778 0.0
O474 O 0.0965 0.37434 0.96417 0.0
C475 C 0.05233 0.33715 0.9465 0.0
O476 O 0.05681 0.3553 0.93024 0.0
C477 C 0.15141 0.39058 0.9786 0.0
O478 O 0.13573 0.38895 0.99768 0.0
O479 O 0.10436 0.42537 0.97957 0.0
O480 O 0.07899 0.40294 0.00524 0.0
H481 H 0.10484 0.49762 0.92564 0.0
H482 H 0.10229 0.32803 0.98001 0.0
O483 O 0.05666 0.34037 0.96993 0.0
H484 H 0.10766 0.3485 0.07065 0.0
H485 H 0.00736 0.32489 0.04341 0.0
H486 H 0.03169 0.40806 0.0094 0.0
H487 H 0.07981 0.37296 0.04246 0.0
H488 H 0.04365 0.32894 0.0145 0.0
O489 O 0.1435 0.39668 0.9567 0.0
H490 H 0.09024 0.45863 0.94645 0.0
H491 H 0.15085 0.41753 0.91391 0.0
H492 H 0.99545 0.40491 0.03846 0.0
H493 H 0.13024 0.30292 0.00756 0.0
H494 H 0.98306 0.36308 0.05565 0.0
H495 H 0.13309 0.31316 0.05322 0.0
O496 O 0.04633 0.3924 0.96475 0.0
H497 H 0.13414 0.33156 0.89443 0.0
H498 H 0.08993 0.4135 0.89505 0.0
H499 H 0.09246 0.38913 0.85545 0.0
H500 H 0.11475 0.34788 0.85498 0.0
H501 H 0.13097 0.35645 0.93365 0.0
H502 H 0.1663 0.45612 0.89289 0.0
H503 H 0.14316 0.49651 0.89861 0.0
O504 O 0.07209 0.41465 0.93921 0.0
C505 C 0.0924 0.42224 0.00024 0.0
C506 C 0.11503 0.48012 0.9229 0.0
C507 C 0.14953 0.45683 0.90455 0.0
N508 N 0.11948 0.43579 0.93116 0.0
C509 C 0.10678 0.45796 0.93456 0.0
C510 C 0.14072 0.43506 0.91652 0.0
C511 C 0.13654 0.47949 0.90777 0.0
C512 C 0.1033 0.33246 0.9999 0.0
N513 N 0.08938 0.35186 0.00964 0.0
C514 C 0.11921 0.31824 0.01539 0.0
C515 C 0.12082 0.32401 0.041 0.0
C516 C 0.10657 0.34384 0.05079 0.0
C517 C 0.09088 0.35766 0.03473 0.0
C518 C 0.01261 0.34323 0.03608 0.0
C519 C 0.02653 0.38982 0.01695 0.0
C520 C 0.0331 0.34563 0.01967 0.0
N521 N 0.0399 0.36875 0.01044 0.0
C522 C 0.00594 0.38814 0.03333 0.0
C523 C 0.99898 0.36467 0.04295 0.0
C524 C 0.05019 0.40855 0.94726 0.0
C525 C 0.12444 0.34955 0.89438 0.0
C526 C 0.09959 0.39552 0.895 0.0
C527 C 0.10101 0.38184 0.87251 0.0
C528 C 0.11353 0.3587 0.87226 0.0
N529 N 0.11043 0.38646 0.91659 0.0
C530 C 0.12267 0.36376 0.91651 0.0
Co531 Co 0.06606 0.62881 0.53699 0.0
Co532 Co 0.11315 0.5956 0.5668 0.0
O533 O 0.09899 0.62675 0.55312 0.0
C534 C 0.05939 0.6677 0.57652 0.0
O535 O 0.06537 0.65061 0.59346 0.0
C536 C 0.15269 0.61166 0.53106 0.0
O537 O 0.13513 0.61173 0.51359 0.0
O538 O 0.10647 0.57712 0.53478 0.0
O539 O 0.07067 0.59514 0.52073 0.0
H540 H 0.11617 0.50249 0.58478 0.0
H541 H 0.10232 0.67093 0.53104 0.0
O542 O 0.06025 0.66248 0.55306 0.0
H543 H 0.08523 0.6407 0.44468 0.0
H544 H 0.99515 0.67386 0.49252 0.0
H545 H 0.02354 0.59318 0.52928 0.0
H546 H 0.06418 0.62102 0.48127 0.0
H547 H 0.0375 0.67011 0.51151 0.0
O548 O 0.14726 0.60608 0.55384 0.0
H549 H 0.09767 0.54177 0.56796 0.0
H550 H 0.16079 0.58364 0.59416 0.0
H551 H 0.98113 0.59604 0.51036 0.0
H552 H 0.12364 0.6913 0.49497 0.0
H553 H 0.96667 0.63662 0.49179 0.0
H554 H 0.11517 0.67614 0.45143 0.0
O555 O 0.04986 0.61198 0.56617 0.0
H556 H 0.14366 0.66823 0.61958 0.0
H557 H 0.1029 0.58456 0.62101 0.0
H558 H 0.10976 0.60737 0.66101 0.0
H559 H 0.13033 0.64949 0.66045 0.0
H560 H 0.13623 0.64485 0.58 0.0
H561 H 0.1801 0.54477 0.61109 0.0
H562 H 0.15769 0.50384 0.60652 0.0
O563 O 0.07924 0.58438 0.57963 0.0
C564 C 0.08739 0.57785 0.52016 0.0
C565 C 0.12607 0.52023 0.58698 0.0
C566 C 0.16197 0.54395 0.60171 0.0
N567 N 0.128 0.565 0.58033 0.0
C568 C 0.11564 0.54254 0.57758 0.0
C569 C 0.15096 0.56588 0.59206 0.0
C570 C 0.14938 0.52099 0.59915 0.0
C571 C 0.09839 0.66439 0.51212 0.0
N572 N 0.08194 0.64493 0.50824 0.0
C573 C 0.11058 0.67593 0.49179 0.0
C574 C 0.10584 0.66739 0.46736 0.0
C575 C 0.08906 0.6475 0.46356 0.0
C576 C 0.07723 0.6364 0.48435 0.0
C577 C 0.00127 0.65605 0.50045 0.0
C578 C 0.01749 0.61083 0.52103 0.0
C579 C 0.02523 0.65382 0.51124 0.0
N580 N 0.0331 0.63137 0.52123 0.0
C581 C 0.99341 0.61237 0.51042 0.0
C582 C 0.9853 0.63515 0.50005 0.0
C583 C 0.05677 0.59315 0.57942 0.0
C584 C 0.13474 0.64986 0.62007 0.0
C585 C 0.11179 0.60292 0.62061 0.0
C586 C 0.11567 0.61572 0.64332 0.0
C587 C 0.12723 0.63935 0.643 0.0
N588 N 0.11928 0.61332 0.59822 0.0
C589 C 0.13056 0.6365 0.59774 0.0
Co590 Co 0.93199 0.84774 0.53433 0.0
Co591 Co 0.88749 0.88327 0.56609 0.0
O592 O 0.90085 0.85115 0.5537 0.0
C593 C 0.94433 0.81354 0.57695 0.0
O594 O 0.94026 0.83227 0.59265 0.0
C595 C 0.84688 0.8627 0.53446 0.0
O596 O 0.86464 0.85685 0.51821 0.0
O597 O 0.89223 0.89969 0.53272 0.0
O598 O 0.92473 0.87918 0.51481 0.0
H599 H 0.88627 0.97736 0.57801 0.0
H600 H 0.89693 0.80427 0.53729 0.0
O601 O 0.94044 0.81623 0.55338 0.0
H602 H 0.90306 0.82494 0.44673 0.0
H603 H 0.9986 0.7988 0.48737 0.0
H604 H 0.9728 0.88264 0.51848 0.0
H605 H 0.92739 0.84911 0.47821 0.0
H606 H 0.95853 0.80418 0.51049 0.0
O607 O 0.85263 0.873 0.55542 0.0
H608 H 0.90342 0.93684 0.56277 0.0
H609 H 0.84167 0.89753 0.59544 0.0
H610 H 0.01287 0.87819 0.4952 0.0
H611 H 0.87245 0.77946 0.50642 0.0
H612 H 0.02601 0.83601 0.47948 0.0
H613 H 0.87535 0.78984 0.46079 0.0
O614 O 0.95077 0.86812 0.55947 0.0
H615 H 0.85899 0.8143 0.62459 0.0
H616 H 0.90078 0.89728 0.61895 0.0
H617 H 0.89579 0.8769 0.66053 0.0
H618 H 0.8747 0.83514 0.66353 0.0
H619 H 0.86457 0.83528 0.58336 0.0
H620 H 0.8237 0.93765 0.61083 0.0
H621 H 0.84611 0.97792 0.60223 0.0
O622 O 0.9221 0.89458 0.57645 0.0
C623 C 0.90865 0.89709 0.51535 0.0
C624 C 0.8764 0.95992 0.582 0.0
C625 C 0.84126 0.93764 0.60039 0.0
N626 N 0.87375 0.91483 0.57852 0.0
C627 C 0.88608 0.93692 0.57352 0.0
C628 C 0.85151 0.91499 0.59161 0.0
C629 C 0.85385 0.96023 0.59556 0.0
C630 C 0.8985 0.8087 0.51743 0.0
N631 N 0.91363 0.82804 0.50955 0.0
C632 C 0.88451 0.79467 0.50006 0.0
C633 C 0.88611 0.80053 0.47446 0.0
C634 C 0.90164 0.82024 0.46656 0.0
C635 C 0.91532 0.8339 0.48448 0.0
C636 C 0.99301 0.8173 0.494 0.0
C637 C 0.97823 0.8643 0.51141 0.0
C638 C 0.97035 0.82046 0.5071 0.0
N639 N 0.96313 0.84379 0.51546 0.0
C640 C 0.001 0.86186 0.49836 0.0
C641 C 0.00839 0.83819 0.48959 0.0
C642 C 0.9447 0.88669 0.57352 0.0
C643 C 0.86815 0.83253 0.62353 0.0
C644 C 0.89166 0.87907 0.6201 0.0
C645 C 0.88884 0.86765 0.6437 0.0
C646 C 0.877 0.84422 0.64537 0.0
N647 N 0.88285 0.86752 0.59879 0.0
C648 C 0.87128 0.84453 0.60026 0.0
Co649 Co 0.42295 0.63597 0.48532 0.0
Co650 Co 0.37688 0.60708 0.44942 0.0
O651 O 0.39119 0.6363 0.46678 0.0
C652 C 0.43432 0.67581 0.44799 0.0
O653 O 0.42755 0.65995 0.4302 0.0
C654 C 0.33677 0.61982 0.48575 0.0
O655 O 0.35418 0.61874 0.50332 0.0
O656 O 0.3823 0.58488 0.4793 0.0
O657 O 0.41535 0.60201 0.49969 0.0
H658 H 0.37289 0.51658 0.42129 0.0
H659 H 0.38866 0.67983 0.49032 0.0
O660 O 0.43185 0.66988 0.47117 0.0
H661 H 0.3971 0.64511 0.5763 0.0
H662 H 0.49184 0.67514 0.53774 0.0
H663 H 0.46336 0.59816 0.49394 0.0
H664 H 0.41992 0.62577 0.54061 0.0
H665 H 0.45113 0.67448 0.51515 0.0
O666 O 0.34252 0.61641 0.46263 0.0
H667 H 0.39141 0.55336 0.44296 0.0
H668 H 0.33001 0.5992 0.41938 0.0
H669 H 0.50406 0.59789 0.51651 0.0
H670 H 0.36564 0.6999 0.52551 0.0
H671 H 0.51855 0.63661 0.53863 0.0
H672 H 0.36976 0.68248 0.56885 0.0
O673 O 0.44059 0.61946 0.45672 0.0
H674 H 0.34863 0.68569 0.40449 0.0
H675 H 0.38859 0.60219 0.3946 0.0
H676 H 0.38313 0.62954 0.35731 0.0
H677 H 0.36296 0.6716 0.36213 0.0
H678 H 0.35466 0.6578 0.44131 0.0
H679 H 0.31067 0.56285 0.39764 0.0
H680 H 0.33221 0.5212 0.39842 0.0
O681 O 0.41092 0.5969 0.43629 0.0
C682 C 0.39915 0.58451 0.49648 0.0
C683 C 0.36338 0.53465 0.4207 0.0
C684 C 0.32844 0.56062 0.40746 0.0
N685 N 0.36199 0.57847 0.43213 0.0
C686 C 0.37385 0.55558 0.43284 0.0
C687 C 0.33947 0.58112 0.41982 0.0
C688 C 0.34054 0.53725 0.4079 0.0
C689 C 0.39069 0.67229 0.50918 0.0
N690 N 0.4057 0.65177 0.51345 0.0
C691 C 0.37755 0.68367 0.529 0.0
C692 C 0.37985 0.67387 0.55331 0.0
C693 C 0.39517 0.65289 0.5575 0.0
C694 C 0.408 0.64199 0.53722 0.0
C695 C 0.48567 0.65812 0.52831 0.0
C696 C 0.46938 0.61496 0.5038 0.0
C697 C 0.46263 0.65763 0.51549 0.0
N698 N 0.45467 0.63615 0.50362 0.0
C699 C 0.49251 0.61475 0.51643 0.0
C700 C 0.50065 0.63649 0.52879 0.0
C701 C 0.43379 0.6036 0.43997 0.0
C702 C 0.35738 0.66738 0.40214 0.0
C703 C 0.37988 0.6205 0.39686 0.0
C704 C 0.37679 0.63588 0.37567 0.0
C705 C 0.36546 0.65947 0.37838 0.0
N706 N 0.37184 0.62836 0.42007 0.0
C707 C 0.36077 0.65148 0.4229 0.0
Co708 Co 0.48848 0.57571 0.84312 0.0
Co709 Co 0.44966 0.61934 0.87255 0.0
O710 O 0.46663 0.60544 0.84285 0.0
C711 C 0.4483 0.55876 0.80812 0.0
O712 O 0.43158 0.56559 0.82508 0.0
C713 C 0.48265 0.66063 0.85509 0.0
O714 O 0.49984 0.64339 0.85052 0.0
O715 O 0.48051 0.61564 0.89382 0.0
O716 O 0.50557 0.58738 0.87449 0.0
H717 H 0.42372 0.62148 0.96377 0.0
H718 H 0.48476 0.60654 0.79659 0.0
O719 O 0.47172 0.56281 0.81178 0.0
H720 H 0.57437 0.61015 0.82153 0.0
H721 H 0.54365 0.5099 0.80236 0.0
H722 H 0.50593 0.53948 0.88211 0.0
H723 H 0.54385 0.5853 0.84642 0.0
H724 H 0.51669 0.54786 0.80314 0.0
O725 O 0.46095 0.65422 0.86325 0.0
H726 H 0.44493 0.60398 0.92619 0.0
H727 H 0.41808 0.66503 0.88167 0.0
H728 H 0.53297 0.50159 0.88228 0.0
H729 H 0.51468 0.63145 0.77101 0.0
H730 H 0.55205 0.48656 0.84216 0.0
H731 H 0.55982 0.63344 0.78352 0.0
O732 O 0.46404 0.5565 0.86428 0.0
H733 H 0.40132 0.64504 0.79514 0.0
H734 H 0.39545 0.60575 0.87933 0.0
H735 H 0.35718 0.60947 0.85308 0.0
H736 H 0.35997 0.6293 0.81067 0.0
H737 H 0.43917 0.64071 0.82195 0.0
H738 H 0.39677 0.68332 0.91882 0.0
H739 H 0.39944 0.66144 0.96021 0.0
O740 O 0.43839 0.5849 0.88282 0.0
C741 C 0.50057 0.60237 0.89263 0.0
C742 C 0.42234 0.63114 0.94582 0.0
C743 C 0.40725 0.66587 0.9206 0.0
N744 N 0.43256 0.63336 0.90173 0.0
C745 C 0.43424 0.62128 0.92446 0.0
C746 C 0.41939 0.65545 0.89964 0.0
C747 C 0.40875 0.65358 0.94381 0.0
C748 C 0.50443 0.60711 0.80198 0.0
N749 N 0.51258 0.5944 0.82288 0.0
C750 C 0.52126 0.62133 0.7875 0.0
C751 C 0.54658 0.62247 0.79455 0.0
C752 C 0.55475 0.60942 0.81588 0.0
C753 C 0.53738 0.59542 0.82993 0.0
C754 C 0.53556 0.51634 0.81998 0.0
C755 C 0.5144 0.53323 0.86466 0.0
C756 C 0.52027 0.53781 0.82055 0.0
N757 N 0.51008 0.54612 0.84275 0.0
C758 C 0.52959 0.51169 0.86483 0.0
C759 C 0.54026 0.50325 0.84232 0.0
C760 C 0.44578 0.56232 0.87891 0.0
C761 C 0.39985 0.63641 0.8136 0.0
C762 C 0.39683 0.61428 0.86085 0.0
C763 C 0.37508 0.61641 0.8461 0.0
C764 C 0.37666 0.62755 0.82232 0.0
N765 N 0.41948 0.62307 0.85219 0.0
C766 C 0.42119 0.63398 0.82889 0.0
Co767 Co 0.53468 0.92945 0.84944 0.0
Co768 Co 0.56392 0.88419 0.88553 0.0
O769 O 0.55229 0.89733 0.85305 0.0
C770 C 0.57557 0.93906 0.81204 0.0
O771 O 0.59244 0.937 0.83007 0.0
C772 C 0.53301 0.8433 0.86436 0.0
O773 O 0.51642 0.86079 0.85867 0.0
O774 O 0.53002 0.88911 0.90081 0.0
O775 O 0.51652 0.92474 0.88225 0.0
H776 H 0.57328 0.88359 0.97992 0.0
H777 H 0.5328 0.89272 0.80728 0.0
O778 O 0.55225 0.93528 0.81652 0.0
H779 H 0.44417 0.90581 0.8326 0.0
H780 H 0.48983 0.99737 0.80033 0.0
H781 H 0.52323 0.97238 0.88354 0.0
H782 H 0.47854 0.92868 0.85411 0.0
H783 H 0.51033 0.95598 0.80613 0.0
O784 O 0.55371 0.84931 0.87502 0.0
H785 H 0.55926 0.90053 0.93888 0.0
H786 H 0.59272 0.83836 0.90091 0.0
H787 H 0.50261 0.01382 0.87865 0.0
H788 H 0.49899 0.86967 0.78507 0.0
H789 H 0.48576 0.02657 0.83678 0.0
H790 H 0.45431 0.87608 0.7978 0.0
O791 O 0.5621 0.94713 0.8677 0.0
H792 H 0.62441 0.8557 0.81829 0.0
H793 H 0.61638 0.89732 0.90116 0.0
H794 H 0.65854 0.89228 0.88202 0.0
H795 H 0.66275 0.87128 0.84031 0.0
H796 H 0.58259 0.86131 0.83804 0.0
H797 H 0.60692 0.82061 0.94156 0.0
H798 H 0.5973 0.84333 0.98143 0.0
O799 O 0.57404 0.91884 0.89706 0.0
C800 C 0.51498 0.9078 0.89929 0.0
C801 C 0.57769 0.87357 0.96267 0.0
C802 C 0.59654 0.8382 0.94114 0.0
N803 N 0.57542 0.8706 0.91752 0.0
C804 C 0.56989 0.88312 0.93937 0.0
C805 C 0.58843 0.84832 0.91819 0.0
C806 C 0.59114 0.85096 0.9635 0.0
C807 C 0.51338 0.89582 0.81272 0.0
N808 N 0.50765 0.91207 0.83191 0.0
C809 C 0.49433 0.88263 0.80016 0.0
C810 C 0.46927 0.8862 0.80734 0.0
C811 C 0.46357 0.90286 0.82689 0.0
C812 C 0.48312 0.91569 0.83905 0.0
C813 C 0.49697 0.99198 0.81869 0.0
C814 C 0.51566 0.97765 0.86534 0.0
C815 C 0.50861 0.96857 0.8221 0.0
N816 N 0.51766 0.96161 0.84525 0.0
C817 C 0.50412 0.0012 0.86266 0.0
C818 C 0.4947 0.00835 0.83915 0.0
C819 C 0.57399 0.94106 0.8877 0.0
C820 C 0.62283 0.86482 0.8365 0.0
C821 C 0.61806 0.88823 0.88297 0.0
C822 C 0.64198 0.88538 0.87225 0.0
C823 C 0.64433 0.87359 0.84886 0.0
N824 N 0.59708 0.87949 0.87077 0.0
C825 C 0.59921 0.86797 0.8478 0.0
Co826 Co 0.48069 0.4194 0.63478 0.0
Co827 Co 0.44804 0.37472 0.60023 0.0
O828 O 0.46199 0.38778 0.63187 0.0
C829 C 0.44002 0.43146 0.67141 0.0
O830 O 0.42326 0.42742 0.65363 0.0
C831 C 0.48211 0.33436 0.61741 0.0
O832 O 0.49836 0.35227 0.62274 0.0
O833 O 0.4802 0.38083 0.58186 0.0
O834 O 0.49854 0.41316 0.6022 0.0
H835 H 0.4303 0.37521 0.50706 0.0
H836 H 0.48103 0.38351 0.67765 0.0
O837 O 0.46333 0.42701 0.66749 0.0
H838 H 0.57012 0.39223 0.65208 0.0
H839 H 0.5287 0.48633 0.68216 0.0
H840 H 0.49327 0.46132 0.59983 0.0
H841 H 0.53675 0.41625 0.6302 0.0
H842 H 0.50647 0.44572 0.67734 0.0
O843 O 0.4603 0.33998 0.60894 0.0
H844 H 0.44764 0.39185 0.54693 0.0
H845 H 0.41909 0.32842 0.58677 0.0
H846 H 0.51566 0.50193 0.60369 0.0
H847 H 0.51383 0.3593 0.7002 0.0
H848 H 0.53353 0.51469 0.64512 0.0
H849 H 0.55873 0.36351 0.68735 0.0
O850 O 0.45401 0.43788 0.61606 0.0
H851 H 0.39485 0.3428 0.67195 0.0
H852 H 0.39402 0.38674 0.58988 0.0
H853 H 0.35396 0.37997 0.61265 0.0
H854 H 0.35422 0.35779 0.65397 0.0
H855 H 0.4345 0.35016 0.64862 0.0
H856 H 0.40167 0.31093 0.54729 0.0
H857 H 0.40713 0.33445 0.50708 0.0
O858 O 0.43596 0.40919 0.59042 0.0
C859 C 0.49729 0.39759 0.58391 0.0
C860 C 0.42767 0.36485 0.52447 0.0
C861 C 0.41163 0.32876 0.54705 0.0
N862 N 0.43405 0.36131 0.56919 0.0
C863 C 0.43734 0.37425 0.54712 0.0
C864 C 0.42156 0.33874 0.56934 0.0
C865 C 0.4147 0.34197 0.5245 0.0
C866 C 0.50057 0.38563 0.67215 0.0
N867 N 0.50699 0.40133 0.65272 0.0
C868 C 0.51904 0.3718 0.6849 0.0
C869 C 0.54422 0.37415 0.67766 0.0
C870 C 0.55063 0.39024 0.65785 0.0
C871 C 0.53164 0.40375 0.6455 0.0
C872 C 0.52114 0.48091 0.66397 0.0
C873 C 0.50133 0.46656 0.61781 0.0
C874 C 0.50854 0.45794 0.66113 0.0
N875 N 0.49898 0.45094 0.6382 0.0
C876 C 0.51385 0.48965 0.61993 0.0
C877 C 0.52383 0.49682 0.64319 0.0
C878 C 0.4389 0.43176 0.59836 0.0
C879 C 0.39449 0.35243 0.65394 0.0
C880 C 0.39429 0.37716 0.60789 0.0
C881 C 0.37155 0.37333 0.62067 0.0
C882 C 0.3717 0.36087 0.64385 0.0
N883 N 0.41654 0.36873 0.61788 0.0
C884 C 0.41686 0.35657 0.64061 0.0
Co885 Co 0.52155 0.07054 0.63014 0.0
Co886 Co 0.5647 0.10791 0.5987 0.0
O887 O 0.54696 0.09714 0.62923 0.0
C888 C 0.56212 0.05026 0.66303 0.0
O889 O 0.57863 0.05691 0.64581 0.0
C890 C 0.53403 0.15158 0.61463 0.0
O891 O 0.51662 0.13516 0.62089 0.0
O892 O 0.53402 0.10404 0.57713 0.0
O893 O 0.50399 0.08535 0.6005 0.0
H894 H 0.59239 0.1014 0.50819 0.0
H895 H 0.53254 0.09978 0.67654 0.0
O896 O 0.53871 0.0549 0.65999 0.0
H897 H 0.4424 0.11473 0.65871 0.0
H898 H 0.46171 0.01052 0.67317 0.0
H899 H 0.49579 0.03932 0.59147 0.0
H900 H 0.46764 0.08677 0.63133 0.0
H901 H 0.49347 0.04452 0.67145 0.0
O902 O 0.55499 0.14407 0.60542 0.0
H903 H 0.5698 0.08793 0.54661 0.0
H904 H 0.59827 0.15133 0.58651 0.0
H905 H 0.46389 0.00547 0.5923 0.0
H906 H 0.50796 0.12773 0.70453 0.0
H907 H 0.44664 0.99083 0.63339 0.0
H908 H 0.46258 0.13545 0.6956 0.0
O909 O 0.54191 0.0488 0.607 0.0
H910 H 0.61398 0.1371 0.67428 0.0
H911 H 0.61793 0.09052 0.5938 0.0
H912 H 0.65623 0.09421 0.62003 0.0
H913 H 0.65441 0.1177 0.66056 0.0
H914 H 0.57608 0.13275 0.64757 0.0
H915 H 0.62103 0.16561 0.54846 0.0
H916 H 0.61822 0.14051 0.50896 0.0
O917 O 0.57393 0.07212 0.59137 0.0
C918 C 0.51157 0.09599 0.58035 0.0
C919 C 0.5938 0.11246 0.5253 0.0
C920 C 0.60985 0.14852 0.54789 0.0
N921 N 0.58281 0.11877 0.5688 0.0
C922 C 0.5811 0.1049 0.54713 0.0
C923 C 0.59687 0.14038 0.56936 0.0
C924 C 0.60828 0.13442 0.52574 0.0
C925 C 0.51273 0.10283 0.67271 0.0
N926 N 0.5015 0.09155 0.65243 0.0
C927 C 0.49894 0.11876 0.68855 0.0
C928 C 0.47348 0.12311 0.68351 0.0
C929 C 0.46215 0.1115 0.66281 0.0
C930 C 0.47654 0.0957 0.64736 0.0
C931 C 0.46906 0.01676 0.65516 0.0
C932 C 0.48826 0.03318 0.60941 0.0
C933 C 0.48708 0.03597 0.65407 0.0
N934 N 0.49635 0.04402 0.63137 0.0
C935 C 0.47025 0.01394 0.60977 0.0
C936 C 0.4606 0.00573 0.63282 0.0
C937 C 0.56207 0.0513 0.59398 0.0
C938 C 0.61503 0.12689 0.65662 0.0
C939 C 0.61699 0.10072 0.61145 0.0
C940 C 0.63874 0.10278 0.62619 0.0
C941 C 0.63771 0.11597 0.64893 0.0
N942 N 0.59486 0.11157 0.61909 0.0
C943 C 0.59366 0.12445 0.64138 0.0
Co944 Co 0.84986 0.48769 0.5776 0.0
Co945 Co 0.87568 0.44628 0.62116 0.0
O946 O 0.84739 0.46513 0.60668 0.0
C947 C 0.81349 0.44981 0.55816 0.0
O948 O 0.82947 0.43203 0.56468 0.0
C949 C 0.85855 0.47959 0.66234 0.0
O950 O 0.85529 0.49707 0.64511 0.0
O951 O 0.89879 0.47589 0.61867 0.0
O952 O 0.88154 0.50292 0.59092 0.0
H953 H 0.96516 0.41507 0.62547 0.0
H954 H 0.80206 0.48549 0.60658 0.0
O955 O 0.8182 0.47286 0.56311 0.0
H956 H 0.83108 0.57365 0.61349 0.0
H957 H 0.81447 0.54639 0.51172 0.0
H958 H 0.89115 0.50437 0.54362 0.0
H959 H 0.85543 0.54259 0.58876 0.0
H960 H 0.81241 0.5184 0.54889 0.0
O961 O 0.86599 0.4576 0.65601 0.0
H962 H 0.92938 0.43867 0.60725 0.0
H963 H 0.88162 0.41356 0.66657 0.0
H964 H 0.89415 0.53237 0.50656 0.0
H965 H 0.77701 0.51599 0.63132 0.0
H966 H 0.85559 0.55362 0.49036 0.0
H967 H 0.79157 0.5604 0.63498 0.0
O968 O 0.87055 0.46272 0.55857 0.0
H969 H 0.79496 0.40202 0.64384 0.0
H970 H 0.87975 0.39205 0.60672 0.0
H971 H 0.85129 0.35528 0.60902 0.0
H972 H 0.80857 0.36013 0.62775 0.0
H973 H 0.82397 0.43834 0.64094 0.0
H974 H 0.91694 0.38987 0.68556 0.0
H975 H 0.95905 0.39046 0.66492 0.0
O976 O 0.88628 0.43502 0.58677 0.0
C977 C 0.89901 0.49644 0.60614 0.0
C978 C 0.94688 0.4146 0.63459 0.0
C979 C 0.91983 0.40048 0.66834 0.0
N980 N 0.9034 0.42732 0.63572 0.0
C981 C 0.92653 0.42785 0.62432 0.0
C982 C 0.89991 0.41397 0.65753 0.0
C983 C 0.94345 0.40082 0.65674 0.0
C984 C 0.80835 0.50486 0.60786 0.0
N985 N 0.83009 0.51229 0.59615 0.0
C986 C 0.79416 0.52201 0.62199 0.0
C987 C 0.80236 0.54692 0.62406 0.0
C988 C 0.82454 0.55436 0.61202 0.0
C989 C 0.83827 0.53668 0.59809 0.0
C990 C 0.83142 0.53732 0.51866 0.0
C991 C 0.87436 0.51374 0.53684 0.0
C992 C 0.83037 0.52145 0.53969 0.0
N993 N 0.85172 0.51004 0.54863 0.0
C994 C 0.87614 0.52949 0.51578 0.0
C995 C 0.8545 0.54137 0.50668 0.0
C996 C 0.88373 0.44337 0.56432 0.0
C997 C 0.81354 0.39965 0.63569 0.0
C998 C 0.86115 0.39433 0.61478 0.0
C999 C 0.84515 0.37343 0.6161 0.0
C1000 C 0.82119 0.37616 0.62663 0.0
N1001 N 0.85353 0.41728 0.62376 0.0
C1002 C 0.83007 0.42013 0.63407 0.0
Co1003 Co 0.14755 0.00404 0.57587 0.0
Co1004 Co 0.11622 0.04277 0.61787 0.0
O1005 O 0.14679 0.02645 0.60509 0.0
C1006 C 0.18491 0.04209 0.55911 0.0
O1007 O 0.16771 0.05962 0.56248 0.0
C1008 C 0.1354 0.01427 0.66151 0.0
O1009 O 0.13929 0.99553 0.64579 0.0
O1010 O 0.09711 0.01047 0.61724 0.0
O1011 O 0.11472 0.98835 0.58565 0.0
H1012 H 0.02342 0.06233 0.62028 0.0
H1013 H 0.19213 0.00626 0.60958 0.0
O1014 O 0.18038 0.01921 0.56495 0.0
H1015 H 0.16314 0.91788 0.61286 0.0
H1016 H 0.19002 0.94616 0.51358 0.0
H1017 H 0.11024 0.98776 0.53744 0.0
H1018 H 0.14122 0.94901 0.58604 0.0
H1019 H 0.18799 0.97372 0.55105 0.0
O1020 O 0.12683 0.03524 0.65339 0.0
H1021 H 0.062 0.04203 0.60392 0.0
H1022 H 0.1059 0.07806 0.66044 0.0
H1023 H 0.11134 0.96013 0.50001 0.0
H1024 H 0.21477 0.97568 0.63647 0.0
H1025 H 0.15147 0.9391 0.48785 0.0
H1026 H 0.2002 0.93116 0.6383 0.0
O1027 O 0.12891 0.02908 0.55509 0.0
H1028 H 0.19058 0.09811 0.63773 0.0
H1029 H 0.10588 0.09489 0.59923 0.0
H1030 H 0.12966 0.13491 0.59894 0.0
H1031 H 0.1723 0.1367 0.61834 0.0
H1032 H 0.16621 0.05841 0.63741 0.0
H1033 H 0.06776 0.09856 0.6776 0.0
H1034 H 0.02616 0.09083 0.6574 0.0
O1035 O 0.10454 0.05028 0.58272 0.0
C1036 C 0.09758 0.99172 0.60221 0.0
C1037 C 0.04145 0.06596 0.62916 0.0
C1038 C 0.06633 0.08626 0.66136 0.0
N1039 N 0.08621 0.05914 0.63099 0.0
C1040 C 0.06337 0.05461 0.6199 0.0
C1041 C 0.08786 0.07459 0.65158 0.0
C1042 C 0.043 0.08192 0.65001 0.0
C1043 C 0.18587 0.98685 0.61007 0.0
N1044 N 0.16545 0.9794 0.5962 0.0
C1045 C 0.19868 0.96965 0.62542 0.0
C1046 C 0.19047 0.94468 0.62647 0.0
C1047 C 0.16966 0.93722 0.61221 0.0
C1048 C 0.15729 0.95495 0.59711 0.0
C1049 C 0.17239 0.9551 0.51876 0.0
C1050 C 0.12768 0.97843 0.53246 0.0
C1051 C 0.17112 0.97073 0.53995 0.0
N1052 N 0.14889 0.98199 0.54667 0.0
C1053 C 0.12823 0.96291 0.51116 0.0
C1054 C 0.15076 0.95115 0.50433 0.0
C1055 C 0.11149 0.04485 0.56029 0.0
C1056 C 0.17198 0.09758 0.62928 0.0
C1057 C 0.12446 0.0955 0.60764 0.0
C1058 C 0.13781 0.11823 0.60747 0.0
C1059 C 0.16173 0.11922 0.61837 0.0
N1060 N 0.13462 0.07439 0.61845 0.0
C1061 C 0.15807 0.07519 0.62912 0.0
Co1062 Co 0.85134 0.53784 0.93098 0.0
Co1063 Co 0.88611 0.5659 0.88391 0.0
O1064 O 0.85398 0.55454 0.89824 0.0
C1065 C 0.81411 0.57885 0.94103 0.0
O1066 O 0.83195 0.59572 0.93774 0.0
C1067 C 0.86433 0.53376 0.84416 0.0
O1068 O 0.85869 0.51768 0.86215 0.0
O1069 O 0.90163 0.53219 0.88935 0.0
O1070 O 0.88404 0.51962 0.92578 0.0
H1071 H 0.98043 0.57547 0.88063 0.0
H1072 H 0.80812 0.53487 0.8956 0.0
O1073 O 0.8185 0.55548 0.93744 0.0
H1074 H 0.83405 0.44669 0.91037 0.0
H1075 H 0.80463 0.49457 0.00158 0.0
H1076 H 0.88679 0.52783 0.97317 0.0
H1077 H 0.85615 0.48171 0.93162 0.0
H1078 H 0.80901 0.51397 0.95948 0.0
O1079 O 0.87487 0.55469 0.84955 0.0
H1080 H 0.93989 0.56184 0.89901 0.0
H1081 H 0.90022 0.5935 0.83695 0.0
H1082 H 0.88331 0.50839 0.0153 0.0
H1083 H 0.78532 0.5004 0.87417 0.0
H1084 H 0.84198 0.49159 0.02977 0.0
H1085 H 0.79834 0.45595 0.88143 0.0
O1086 O 0.87001 0.56579 0.94734 0.0
H1087 H 0.81794 0.62532 0.8554 0.0
H1088 H 0.90183 0.61876 0.89522 0.0
H1089 H 0.88238 0.66068 0.88949 0.0
H1090 H 0.84016 0.66415 0.8694 0.0
H1091 H 0.83801 0.58375 0.86168 0.0
H1092 H 0.94035 0.60729 0.81777 0.0
H1093 H 0.98083 0.59837 0.8397 0.0
O1094 O 0.89854 0.577 0.91795 0.0
C1095 C 0.90063 0.51764 0.90844 0.0
C1096 C 0.96292 0.57957 0.87094 0.0
C1097 C 0.94042 0.5974 0.83564 0.0
N1098 N 0.91771 0.57712 0.8692 0.0
C1099 C 0.93989 0.57198 0.88131 0.0
C1100 C 0.91776 0.58952 0.84658 0.0
C1101 C 0.96313 0.59239 0.84796 0.0
C1102 C 0.81371 0.51555 0.89907 0.0
N1103 N 0.83339 0.5103 0.91489 0.0
C1104 C 0.80081 0.49612 0.88679 0.0
C1105 C 0.80815 0.47119 0.89084 0.0
C1106 C 0.82821 0.46599 0.90706 0.0
C1107 C 0.8407 0.4859 0.91897 0.0
C1108 C 0.82276 0.50169 0.99544 0.0
C1109 C 0.86881 0.5203 0.97919 0.0
C1110 C 0.82536 0.51271 0.97162 0.0
N1111 N 0.84822 0.52171 0.96372 0.0
C1112 C 0.86693 0.50942 0.00313 0.0
C1113 C 0.84373 0.50004 0.01125 0.0
C1114 C 0.88978 0.57755 0.94039 0.0
C1115 C 0.83637 0.62406 0.86412 0.0
C1116 C 0.88341 0.62011 0.88653 0.0
C1117 C 0.87252 0.6439 0.88329 0.0
C1118 C 0.84884 0.64584 0.872 0.0
N1119 N 0.8711 0.59886 0.87867 0.0
C1120 C 0.84786 0.60059 0.86765 0.0
Co1121 Co 0.15243 0.98689 0.9333 0.0
Co1122 Co 0.11351 0.95435 0.89266 0.0
O1123 O 0.14678 0.96597 0.90353 0.0
C1124 C 0.1867 0.94418 0.94496 0.0
O1125 O 0.16747 0.92872 0.94271 0.0
C1126 C 0.13396 0.98083 0.84835 0.0
O1127 O 0.14121 0.99854 0.86407 0.0
O1128 O 0.09932 0.98895 0.89511 0.0
O1129 O 0.12086 0.00662 0.92703 0.0
H1130 H 0.01894 0.94822 0.89644 0.0
H1131 H 0.19362 0.98131 0.89584 0.0
O1132 O 0.18406 0.96769 0.94066 0.0
H1133 H 0.17471 0.07241 0.89833 0.0
H1134 H 0.20632 0.03644 0.99384 0.0
H1135 H 0.12047 0.00568 0.9753 0.0
H1136 H 0.15158 0.0427 0.92572 0.0
H1137 H 0.19801 0.01115 0.95567 0.0
O1138 O 0.12282 0.96118 0.85661 0.0
H1139 H 0.06104 0.96229 0.91046 0.0
H1140 H 0.09545 0.92207 0.85027 0.0
H1141 H 0.12786 0.03118 0.01352 0.0
H1142 H 0.21738 0.01039 0.86831 0.0
H1143 H 0.17107 0.04674 0.02301 0.0
H1144 H 0.20788 0.05629 0.86937 0.0
O1145 O 0.13284 0.96311 0.95468 0.0
H1146 H 0.17784 0.88957 0.86699 0.0
H1147 H 0.09705 0.90375 0.91104 0.0
H1148 H 0.11482 0.86076 0.90905 0.0
H1149 H 0.15548 0.85346 0.88685 0.0
H1150 H 0.15946 0.9323 0.86962 0.0
H1151 H 0.0537 0.90773 0.83543 0.0
H1152 H 0.01508 0.92074 0.85865 0.0
O1153 O 0.10322 0.94763 0.92845 0.0
C1154 C 0.10274 0.00648 0.91118 0.0
C1155 C 0.03563 0.94232 0.88624 0.0
C1156 C 0.05514 0.91962 0.85198 0.0
N1157 N 0.08068 0.94273 0.8814 0.0
C1158 C 0.05952 0.95013 0.89416 0.0
C1159 C 0.07872 0.92781 0.86045 0.0
C1160 C 0.03348 0.92693 0.86502 0.0
C1161 C 0.18959 0.00129 0.89661 0.0
N1162 N 0.1713 0.0103 0.91241 0.0
C1163 C 0.20302 0.01765 0.88089 0.0
C1164 C 0.19765 0.0434 0.88147 0.0
C1165 C 0.17902 0.05245 0.89769 0.0
C1166 C 0.16593 0.03553 0.91311 0.0
C1167 C 0.18739 0.02989 0.98985 0.0
C1168 C 0.13925 0.01265 0.97913 0.0
C1169 C 0.18257 0.01555 0.96827 0.0
N1170 N 0.15868 0.00729 0.96305 0.0
C1171 C 0.14335 0.02697 0.00087 0.0
C1172 C 0.1676 0.03565 0.00621 0.0
C1173 C 0.11276 0.95057 0.95039 0.0
C1174 C 0.16007 0.8925 0.87666 0.0
C1175 C 0.11478 0.90073 0.90141 0.0
C1176 C 0.12473 0.87634 0.9003 0.0
C1177 C 0.14754 0.87225 0.88783 0.0
N1178 N 0.12716 0.92047 0.89033 0.0
C1179 C 0.14955 0.91663 0.87813 0.0
Co1180 Co 0.58213 0.84834 0.48488 0.0
Co1181 Co 0.62479 0.876 0.44378 0.0
O1182 O 0.61117 0.84702 0.46229 0.0
C1183 C 0.56314 0.81226 0.44648 0.0
O1184 O 0.56937 0.8285 0.42884 0.0
C1185 C 0.66571 0.86011 0.47791 0.0
O1186 O 0.64812 0.8564 0.49493 0.0
O1187 O 0.62064 0.89913 0.47316 0.0
O1188 O 0.59487 0.8799 0.5008 0.0
H1189 H 0.62648 0.96556 0.41245 0.0
H1190 H 0.61244 0.80147 0.48178 0.0
O1191 O 0.56829 0.81666 0.46955 0.0
H1192 H 0.61794 0.82855 0.57067 0.0
H1193 H 0.51631 0.81091 0.54236 0.0
H1194 H 0.54799 0.88896 0.50273 0.0
H1195 H 0.59265 0.85285 0.54003 0.0
H1196 H 0.55363 0.80984 0.51454 0.0
O1197 O 0.65976 0.86758 0.45581 0.0
H1198 H 0.60921 0.92924 0.43589 0.0
H1199 H 0.67046 0.8835 0.41183 0.0
H1200 H 0.51076 0.89091 0.53062 0.0
H1201 H 0.63778 0.77646 0.51184 0.0
H1202 H 0.49467 0.85168 0.55064 0.0
H1203 H 0.64074 0.79006 0.55661 0.0
O1204 O 0.56264 0.86887 0.46007 0.0
H1205 H 0.65188 0.79651 0.39972 0.0
H1206 H 0.61063 0.87935 0.38946 0.0
H1207 H 0.61481 0.85112 0.35266 0.0
H1208 H 0.63563 0.8094 0.35766 0.0
H1209 H 0.6471 0.82525 0.43605 0.0
H1210 H 0.68858 0.91937 0.3883 0.0
H1211 H 0.66648 0.96074 0.38843 0.0
O1212 O 0.59018 0.88537 0.43212 0.0
C1213 C 0.60871 0.89834 0.49404 0.0
C1214 C 0.63624 0.94761 0.41216 0.0
C1215 C 0.67111 0.92169 0.39863 0.0
N1216 N 0.63866 0.90423 0.42503 0.0
C1217 C 0.62649 0.92696 0.42533 0.0
C1218 C 0.66078 0.90146 0.41203 0.0
C1219 C 0.6587 0.9449 0.39871 0.0
C1220 C 0.61344 0.80733 0.5013 0.0
N1221 N 0.60103 0.82853 0.50917 0.0
C1222 C 0.62789 0.79317 0.5182 0.0
C1223 C 0.62957 0.80083 0.54331 0.0
C1224 C 0.6168 0.82243 0.55121 0.0
C1225 C 0.60255 0.83615 0.53377 0.0
C1226 C 0.52318 0.82814 0.5338 0.0
C1227 C 0.54122 0.87184 0.51153 0.0
C1228 C 0.54428 0.82765 0.518 0.0
N1229 N 0.55311 0.84936 0.5072 0.0
C1230 C 0.52008 0.87305 0.52724 0.0
C1231 C 0.51105 0.85102 0.53844 0.0
C1232 C 0.56784 0.88208 0.44056 0.0
C1233 C 0.64284 0.81468 0.39728 0.0
C1234 C 0.61963 0.86118 0.39179 0.0
C1235 C 0.62199 0.84531 0.37088 0.0
C1236 C 0.63369 0.82191 0.3737 0.0
N1237 N 0.62875 0.85399 0.41483 0.0
C1238 C 0.64016 0.83105 0.41776 0.0
Co1239 Co 0.57766 0.14838 0.99468 0.0
Co1240 Co 0.61714 0.1194 0.03797 0.0
O1241 O 0.60564 0.14864 0.01866 0.0
C1242 C 0.55973 0.18642 0.0315 0.0
O1243 O 0.56346 0.16985 0.04954 0.0
C1244 C 0.66136 0.13435 0.00776 0.0
O1245 O 0.6457 0.13808 0.98894 0.0
O1246 O 0.61526 0.09687 0.00784 0.0
O1247 O 0.58908 0.11565 0.98023 0.0
H1248 H 0.61412 0.02949 0.068 0.0
H1249 H 0.61041 0.19362 0.99823 0.0
O1250 O 0.56528 0.18117 0.00872 0.0
H1251 H 0.61931 0.16353 0.9106 0.0
H1252 H 0.51809 0.18893 0.93269 0.0
H1253 H 0.54124 0.11004 0.97626 0.0
H1254 H 0.59109 0.14156 0.94043 0.0
H1255 H 0.55378 0.18797 0.96257 0.0
O1256 O 0.65306 0.12728 0.0292 0.0
H1257 H 0.59966 0.06656 0.04379 0.0
H1258 H 0.65987 0.11036 0.07347 0.0
H1259 H 0.50559 0.11003 0.94636 0.0
H1260 H 0.63868 0.21628 0.96897 0.0
H1261 H 0.49379 0.14972 0.92432 0.0
H1262 H 0.64334 0.20117 0.92483 0.0
O1263 O 0.55569 0.1294 0.01868 0.0
H1264 H 0.64105 0.19824 0.08486 0.0
H1265 H 0.59912 0.1154 0.09114 0.0
H1266 H 0.60046 0.14325 0.12842 0.0
H1267 H 0.6216 0.18499 0.12542 0.0
H1268 H 0.63905 0.16987 0.04798 0.0
H1269 H 0.67513 0.0737 0.09782 0.0
H1270 H 0.65212 0.03293 0.09524 0.0
O1271 O 0.5816 0.11075 0.04683 0.0
C1272 C 0.60325 0.09742 0.98698 0.0
C1273 C 0.62425 0.04717 0.06935 0.0
C1274 C 0.65852 0.07198 0.08605 0.0
N1275 N 0.62879 0.09063 0.05738 0.0
C1276 C 0.61611 0.06824 0.05575 0.0
C1277 C 0.64982 0.09265 0.07219 0.0
C1278 C 0.64559 0.04911 0.08461 0.0
C1279 C 0.61214 0.18711 0.97898 0.0
N1280 N 0.59903 0.16638 0.97101 0.0
C1281 C 0.62825 0.19994 0.96253 0.0
C1282 C 0.63089 0.19143 0.93777 0.0
C1283 C 0.61743 0.1703 0.92978 0.0
C1284 C 0.60151 0.15791 0.94677 0.0
C1285 C 0.52311 0.17149 0.94209 0.0
C1286 C 0.53639 0.12729 0.96657 0.0
C1287 C 0.54329 0.17084 0.95905 0.0
N1288 N 0.54981 0.14885 0.97089 0.0
C1289 C 0.5161 0.12721 0.94973 0.0
C1290 C 0.50948 0.14949 0.9374 0.0
C1291 C 0.55974 0.11535 0.03785 0.0
C1292 C 0.63183 0.18008 0.08641 0.0
C1293 C 0.60824 0.13358 0.08967 0.0
C1294 C 0.60901 0.14924 0.11085 0.0
C1295 C 0.62089 0.17265 0.10916 0.0
N1296 N 0.61905 0.14099 0.06745 0.0
C1297 C 0.63071 0.16391 0.06563 0.0
Co1298 Co 0.42047 0.37061 0.99041 0.0
Co1299 Co 0.38349 0.3948 0.03827 0.0
O1300 O 0.39452 0.36734 0.01627 0.0
C1301 C 0.443 0.33403 0.02612 0.0
O1302 O 0.43619 0.34903 0.0446 0.0
C1303 C 0.33875 0.38375 0.00708 0.0
O1304 O 0.35406 0.38303 0.98767 0.0
O1305 O 0.38537 0.42035 0.01043 0.0
O1306 O 0.40412 0.40157 0.97727 0.0
H1307 H 0.38746 0.48131 0.07698 0.0
H1308 H 0.39321 0.3221 0.99619 0.0
O1309 O 0.43763 0.33946 0.00332 0.0
H1310 H 0.37525 0.35042 0.90934 0.0
H1311 H 0.48002 0.3378 0.92396 0.0
H1312 H 0.44928 0.41344 0.96865 0.0
H1313 H 0.4026 0.37568 0.93729 0.0
H1314 H 0.44717 0.33416 0.9568 0.0
O1315 O 0.34728 0.38762 0.02925 0.0
H1316 H 0.40138 0.44679 0.04903 0.0
H1317 H 0.34126 0.40053 0.07497 0.0
H1318 H 0.48188 0.41796 0.93577 0.0
H1319 H 0.36593 0.29614 0.96881 0.0
H1320 H 0.4975 0.37995 0.91318 0.0
H1321 H 0.35675 0.31031 0.92506 0.0
O1322 O 0.44209 0.39192 0.01283 0.0
H1323 H 0.3593 0.3123 0.07833 0.0
H1324 H 0.40296 0.39351 0.091 0.0
H1325 H 0.40194 0.36239 0.12563 0.0
H1326 H 0.37993 0.32147 0.11942 0.0
H1327 H 0.36099 0.34388 0.04413 0.0
H1328 H 0.32656 0.43463 0.10307 0.0
H1329 H 0.34978 0.47534 0.10425 0.0
O1330 O 0.41924 0.40257 0.04709 0.0
C1331 C 0.39295 0.42017 0.98756 0.0
C1332 C 0.37722 0.46364 0.07668 0.0
C1333 C 0.34302 0.43745 0.0913 0.0
N1334 N 0.37224 0.42162 0.06049 0.0
C1335 C 0.38505 0.444 0.06094 0.0
C1336 C 0.35139 0.41823 0.07531 0.0
C1337 C 0.35606 0.46028 0.09196 0.0
C1338 C 0.38946 0.32827 0.9771 0.0
N1339 N 0.3996 0.35027 0.96829 0.0
C1340 C 0.37394 0.31354 0.96172 0.0
C1341 C 0.36877 0.32152 0.93718 0.0
C1342 C 0.37914 0.34403 0.92835 0.0
C1343 C 0.39457 0.35827 0.94428 0.0
C1344 C 0.47335 0.3545 0.93366 0.0
C1345 C 0.45586 0.39681 0.95882 0.0
C1346 C 0.45481 0.35255 0.95232 0.0
N1347 N 0.44622 0.37358 0.96454 0.0
C1348 C 0.47439 0.39949 0.94026 0.0
C1349 C 0.48315 0.37816 0.92761 0.0
C1350 C 0.43972 0.40239 0.03443 0.0
C1351 C 0.36889 0.3301 0.08129 0.0
C1352 C 0.39342 0.37572 0.08814 0.0
C1353 C 0.39285 0.35819 0.10783 0.0
C1354 C 0.38049 0.33524 0.10433 0.0
N1355 N 0.38192 0.37056 0.06563 0.0
C1356 C 0.36982 0.34808 0.06203 0.0
Co1357 Co 0.93282 0.15134 0.98501 0.0
Co1358 Co 0.89363 0.11223 0.95096 0.0
O1359 O 0.90365 0.14546 0.96336 0.0
C1360 C 0.94443 0.18616 0.94284 0.0
O1361 O 0.94243 0.16704 0.9272 0.0
C1362 C 0.84863 0.1315 0.97698 0.0
O1363 O 0.86396 0.13851 0.99512 0.0
O1364 O 0.89573 0.09744 0.98535 0.0
O1365 O 0.92663 0.11944 0.00422 0.0
H1366 H 0.89922 0.01788 0.94323 0.0
H1367 H 0.8948 0.19197 0.97902 0.0
O1368 O 0.94008 0.18328 0.96631 0.0
H1369 H 0.89547 0.17201 0.06994 0.0
H1370 H 0.99127 0.20566 0.03658 0.0
H1371 H 0.97494 0.11989 0.0044 0.0
H1372 H 0.92396 0.14973 0.04062 0.0
H1373 H 0.95383 0.197 0.0103 0.0
O1374 O 0.85734 0.12081 0.95728 0.0
H1375 H 0.9122 0.05994 0.95833 0.0
H1376 H 0.85218 0.09403 0.91756 0.0
H1377 H 0.01243 0.12763 0.03087 0.0
H1378 H 0.86616 0.21489 0.00772 0.0
H1379 H 0.02081 0.1708 0.04714 0.0
H1380 H 0.86631 0.20486 0.05352 0.0
O1381 O 0.95507 0.13241 0.96152 0.0
H1382 H 0.86799 0.17722 0.88684 0.0
H1383 H 0.91327 0.09702 0.90045 0.0
H1384 H 0.91176 0.11553 0.85774 0.0
H1385 H 0.88894 0.15589 0.85073 0.0
H1386 H 0.87015 0.15814 0.92929 0.0
H1387 H 0.83838 0.0523 0.90218 0.0
H1388 H 0.86204 0.01387 0.91493 0.0
O1389 O 0.9297 0.10272 0.94477 0.0
C1390 C 0.91126 0.10094 0.00336 0.0
C1391 C 0.88884 0.03449 0.93742 0.0
C1392 C 0.85467 0.05381 0.91442 0.0
N1393 N 0.88318 0.07943 0.93855 0.0
C1394 C 0.89617 0.05837 0.94582 0.0
C1395 C 0.86255 0.07738 0.9232 0.0
C1396 C 0.86795 0.03225 0.92158 0.0
C1397 C 0.89517 0.18771 0.99897 0.0
N1398 N 0.91108 0.16959 0.00814 0.0
C1399 C 0.87883 0.20066 0.01511 0.0
C1400 C 0.87889 0.195 0.0408 0.0
C1401 C 0.89523 0.17655 0.05002 0.0
C1402 C 0.91127 0.16394 0.03332 0.0
C1403 C 0.98776 0.18675 0.02972 0.0
C1404 C 0.97828 0.13864 0.01167 0.0
C1405 C 0.96659 0.18173 0.01482 0.0
N1406 N 0.96198 0.15786 0.00617 0.0
C1407 C 0.99962 0.14295 0.02654 0.0
C1408 C 0.00432 0.16718 0.03563 0.0
C1409 C 0.9514 0.11253 0.94848 0.0
C1410 C 0.87792 0.15959 0.88965 0.0
C1411 C 0.90336 0.11462 0.89755 0.0
C1412 C 0.90253 0.12499 0.87332 0.0
C1413 C 0.88971 0.14763 0.8694 0.0
N1414 N 0.89168 0.12644 0.91729 0.0
C1415 C 0.87913 0.14866 0.91361 0.0
C1416 C 0.07139 0.06033 0.54141 0.0
C1417 C 0.09739 0.05608 0.53908 0.0
C1418 C 0.05692 0.06769 0.52053 0.0
C1419 C 0.06891 0.07164 0.49696 0.0
C1420 C 0.09543 0.06896 0.49492 0.0
C1421 C 0.10933 0.06075 0.51594 0.0
C1422 C 0.0286 0.06964 0.52335 0.0
C1423 C 0.10898 0.07381 0.47033 0.0
C1424 C 0.0286 0.05861 0.43945 0.0
C1425 C 0.01924 0.08269 0.43373 0.0
C1426 C 0.0452 0.05489 0.45967 0.0
C1427 C 0.05329 0.07589 0.47405 0.0
C1428 C 0.04498 0.10046 0.46753 0.0
C1429 C 0.02764 0.10353 0.44768 0.0
C1430 C 0.05302 0.02829 0.4664 0.0
C1431 C 0.05388 0.12337 0.48191 0.0
H1432 H 0.0621 0.05654 0.55923 0.0
H1433 H 0.1295 0.05768 0.5142 0.0
H1434 H 0.02182 0.08818 0.51641 0.0
H1435 H 0.01938 0.05488 0.51171 0.0
H1436 H 0.0224 0.06726 0.54325 0.0
H1437 H 0.12979 0.07459 0.47284 0.0
H1438 H 0.10455 0.05853 0.45673 0.0
H1439 H 0.1025 0.09184 0.46184 0.0
H1440 H 0.02194 0.04241 0.42892 0.0
H1441 H 0.02051 0.12219 0.4432 0.0
H1442 H 0.0462 0.02359 0.48565 0.0
H1443 H 0.07389 0.02669 0.46663 0.0
H1444 H 0.04541 0.01409 0.45299 0.0
H1445 H 0.04578 0.12317 0.50121 0.0
H1446 H 0.04822 0.14126 0.47253 0.0
H1447 H 0.07473 0.12306 0.48388 0.0
C1448 C 0.94768 0.38339 0.44219 0.0
C1449 C 0.97395 0.38547 0.44436 0.0
C1450 C 0.93197 0.38787 0.463 0.0
C1451 C 0.94285 0.39545 0.48619 0.0
C1452 C 0.96946 0.39568 0.48894 0.0
C1453 C 0.98473 0.39031 0.46798 0.0
C1454 C 0.90372 0.3866 0.45953 0.0
C1455 C 0.98184 0.40419 0.51315 0.0
C1456 C 0.90612 0.44443 0.52306 0.0
C1457 C 0.89761 0.4305 0.54386 0.0
C1458 C 0.92091 0.43318 0.50427 0.0
C1459 C 0.92671 0.40713 0.50593 0.0
C1460 C 0.9175 0.39273 0.52647 0.0
C1461 C 0.90335 0.4047 0.54545 0.0
C1462 C 0.93078 0.44936 0.48292 0.0
C1463 C 0.92265 0.36478 0.5284 0.0
H1464 H 0.93938 0.37955 0.42387 0.0
H1465 H 0.00504 0.39222 0.46957 0.0
H1466 H 0.89458 0.37775 0.47618 0.0
H1467 H 0.89604 0.40599 0.45764 0.0
H1468 H 0.89848 0.37577 0.44236 0.0
H1469 H 0.00238 0.39993 0.51339 0.0
H1470 H 0.97935 0.42489 0.51524 0.0
H1471 H 0.97288 0.39508 0.52972 0.0
H1472 H 0.90191 0.4644 0.52185 0.0
H1473 H 0.89664 0.39384 0.56143 0.0
H1474 H 0.92363 0.44222 0.46459 0.0
H1475 H 0.9517 0.44836 0.48228 0.0
H1476 H 0.92513 0.46946 0.48486 0.0
H1477 H 0.91635 0.35512 0.51092 0.0
H1478 H 0.91296 0.35604 0.54482 0.0
H1479 H 0.94324 0.36142 0.53024 0.0
C1480 C 0.02992 0.89224 0.06349 0.0
C1481 C 0.02463 0.91206 0.08023 0.0
C1482 C 0.04656 0.89569 0.04312 0.0
C1483 C 0.0575 0.91973 0.039 0.0
C1484 C 0.05291 0.93952 0.05635 0.0
C1485 C 0.03685 0.93532 0.07694 0.0
C1486 C 0.05165 0.87392 0.02548 0.0
C1487 C 0.0637 0.96562 0.05235 0.0
C1488 C 0.1118 0.932 0.99377 0.0
C1489 C 0.09887 0.94028 0.97223 0.0
C1490 C 0.09856 0.9239 0.01528 0.0
C1491 C 0.07185 0.92502 0.01546 0.0
C1492 C 0.05875 0.93301 0.99356 0.0
C1493 C 0.07243 0.94016 0.97208 0.0
C1494 C 0.11315 0.91475 0.03798 0.0
C1495 C 0.03031 0.93515 0.99318 0.0
H1496 H 0.02068 0.87416 0.06604 0.0
H1497 H 0.03281 0.95077 0.08969 0.0
H1498 H 0.04218 0.87739 0.00713 0.0
H1499 H 0.07219 0.87221 0.02171 0.0
H1500 H 0.04465 0.85572 0.03321 0.0
H1501 H 0.05924 0.9786 0.0682 0.0
H1502 H 0.08449 0.96467 0.05014 0.0
H1503 H 0.05592 0.97379 0.03469 0.0
H1504 H 0.13228 0.93191 0.99382 0.0
H1505 H 0.06241 0.9468 0.95552 0.0
H1506 H 0.10532 0.89655 0.04479 0.0
H1507 H 0.11129 0.92856 0.0536 0.0
H1508 H 0.13354 0.9122 0.03376 0.0
H1509 H 0.02158 0.9168 0.99817 0.0
H1510 H 0.02301 0.94116 0.97446 0.0
H1511 H 0.02409 0.9491 0.00752 0.0
C1512 C 0.97529 0.62423 0.05736 0.0
C1513 C 0.97163 0.60456 0.07472 0.0
C1514 C 0.96186 0.62484 0.03445 0.0
C1515 C 0.9452 0.60481 0.02845 0.0
C1516 C 0.94123 0.58513 0.04607 0.0
C1517 C 0.95404 0.58557 0.06913 0.0
C1518 C 0.96576 0.64664 0.01654 0.0
C1519 C 0.92413 0.56302 0.04023 0.0
C1520 C 0.89338 0.60333 0.97952 0.0
C1521 C 0.90501 0.58952 0.96024 0.0
C1522 C 0.90708 0.61087 0.00089 0.0
C1523 C 0.93262 0.60335 0.00343 0.0
C1524 C 0.94474 0.59055 0.98331 0.0
C1525 C 0.93084 0.58416 0.96172 0.0
C1526 C 0.89374 0.62535 0.02148 0.0
C1527 C 0.97165 0.58138 0.98554 0.0
H1528 H 0.98866 0.63911 0.06166 0.0
H1529 H 0.95091 0.57037 0.08239 0.0
H1530 H 0.97586 0.64002 0.99944 0.0
H1531 H 0.94728 0.6543 0.0103 0.0
H1532 H 0.97691 0.66211 0.02526 0.0
H1533 H 0.92377 0.54886 0.05571 0.0
H1534 H 0.90457 0.5697 0.03695 0.0
H1535 H 0.93051 0.55349 0.0227 0.0
H1536 H 0.87338 0.60754 0.97824 0.0
H1537 H 0.93971 0.57318 0.94689 0.0
H1538 H 0.90615 0.64035 0.02921 0.0
H1539 H 0.88895 0.61237 0.03719 0.0
H1540 H 0.87598 0.63412 0.01457 0.0
H1541 H 0.98416 0.59668 0.99238 0.0
H1542 H 0.97911 0.57424 0.96728 0.0
H1543 H 0.97251 0.56583 0.99957 0.0
C1544 C 0.43787 0.04409 0.09266 0.0
C1545 C 0.44337 0.01822 0.09229 0.0
C1546 C 0.45665 0.06201 0.08744 0.0
C1547 C 0.48117 0.05372 0.0808 0.0
C1548 C 0.48705 0.02763 0.08153 0.0
C1549 C 0.46811 0.0102 0.08768 0.0
C1550 C 0.44989 0.08968 0.08776 0.0
C1551 C 0.51278 0.01796 0.07394 0.0
C1552 C 0.51868 0.09293 0.03422 0.0
C1553 C 0.5381 0.1023 0.04949 0.0
C1554 C 0.49978 0.07742 0.0443 0.0
C1555 C 0.49986 0.07188 0.07047 0.0
C1556 C 0.51862 0.0825 0.08624 0.0
C1557 C 0.53782 0.09724 0.07546 0.0
C1558 C 0.48045 0.06599 0.02672 0.0
C1559 C 0.51879 0.07776 0.11433 0.0
H1560 H 0.41871 0.05025 0.09637 0.0
H1561 H 0.47226 0.99019 0.08709 0.0
H1562 H 0.46471 0.10075 0.09757 0.0
H1563 H 0.44867 0.09684 0.06812 0.0
H1564 H 0.43148 0.09315 0.09719 0.0
H1565 H 0.51476 0.99732 0.07711 0.0
H1566 H 0.516 0.02191 0.05361 0.0
H1567 H 0.52779 0.02784 0.08465 0.0
H1568 H 0.51898 0.09663 0.01411 0.0
H1569 H 0.55274 0.10467 0.08732 0.0
H1570 H 0.46111 0.07094 0.03301 0.0
H1571 H 0.482 0.0451 0.02716 0.0
H1572 H 0.48288 0.07244 0.00691 0.0
H1573 H 0.49981 0.08143 0.12242 0.0
H1574 H 0.53282 0.08975 0.12427 0.0
H1575 H 0.52339 0.05768 0.11809 0.0
C1576 C 0.53577 0.50293 0.0888 0.0
C1577 C 0.56103 0.49508 0.08786 0.0
C1578 C 0.51614 0.48648 0.08211 0.0
C1579 C 0.52188 0.46133 0.07508 0.0
C1580 C 0.54721 0.45281 0.07582 0.0
C1581 C 0.56654 0.46991 0.08181 0.0
C1582 C 0.48948 0.49652 0.08096 0.0
C1583 C 0.55401 0.42594 0.06922 0.0
C1584 C 0.46612 0.41632 0.07097 0.0
C1585 C 0.46169 0.41586 0.0449 0.0
C1586 C 0.48628 0.43028 0.08107 0.0
C1587 C 0.5017 0.44478 0.06474 0.0
C1588 C 0.49728 0.44429 0.03837 0.0
C1589 C 0.47757 0.4295 0.02875 0.0
C1590 C 0.49091 0.42973 0.10917 0.0
C1591 C 0.51283 0.46003 0.02036 0.0
H1592 H 0.53139 0.52238 0.09329 0.0
H1593 H 0.58603 0.46371 0.08124 0.0
H1594 H 0.48287 0.49653 0.06107 0.0
H1595 H 0.47652 0.48417 0.09181 0.0
H1596 H 0.48799 0.51604 0.08846 0.0
H1597 H 0.57391 0.42142 0.07408 0.0
H1598 H 0.5414 0.41254 0.07923 0.0
H1599 H 0.55138 0.42289 0.04867 0.0
H1600 H 0.45389 0.40565 0.08344 0.0
H1601 H 0.47395 0.42941 0.0086 0.0
H1602 H 0.48753 0.44872 0.1173 0.0
H1603 H 0.51089 0.42476 0.11307 0.0
H1604 H 0.47849 0.41598 0.11899 0.0
H1605 H 0.51118 0.48029 0.02542 0.0
H1606 H 0.50681 0.45762 0.00042 0.0
H1607 H 0.53305 0.45485 0.02188 0.0
C1608 C 0.55111 0.91767 0.41449 0.0
C1609 C 0.54677 0.89519 0.4278 0.0
C1610 C 0.53092 0.93254 0.40598 0.0
C1611 C 0.50585 0.92439 0.41036 0.0
C1612 C 0.50144 0.90067 0.42186 0.0
C1613 C 0.52195 0.88648 0.43072 0.0
C1614 C 0.53643 0.95786 0.39412 0.0
C1615 C 0.475 0.89101 0.42632 0.0
C1616 C 0.45542 0.97302 0.42394 0.0
C1617 C 0.44223 0.97374 0.40113 0.0
C1618 C 0.4766 0.95754 0.42685 0.0
C1619 C 0.48446 0.94209 0.40649 0.0
C1620 C 0.47136 0.94311 0.38316 0.0
C1621 C 0.45036 0.95918 0.38068 0.0
C1622 C 0.49024 0.95738 0.4519 0.0
C1623 C 0.479 0.92665 0.36122 0.0
H1624 H 0.57023 0.92444 0.412 0.0
H1625 H 0.5185 0.86888 0.44059 0.0
H1626 H 0.5248 0.96071 0.37695 0.0
H1627 H 0.53143 0.97306 0.40764 0.0
H1628 H 0.55666 0.95994 0.389 0.0
H1629 H 0.47485 0.87075 0.43175 0.0
H1630 H 0.46605 0.90203 0.44172 0.0
H1631 H 0.46326 0.89349 0.40916 0.0
H1632 H 0.44903 0.98455 0.43961 0.0
H1633 H 0.43987 0.95981 0.36312 0.0
H1634 H 0.51063 0.96124 0.44904 0.0
H1635 H 0.48863 0.93846 0.46074 0.0
H1636 H 0.48254 0.9716 0.46526 0.0
H1637 H 0.49934 0.92919 0.35693 0.0
H1638 H 0.46788 0.93084 0.34394 0.0
H1639 H 0.47622 0.90652 0.36627 0.0
C1640 C 0.47631 0.60338 0.41983 0.0
C1641 C 0.45397 0.59059 0.42593 0.0
C1642 C 0.49741 0.59024 0.41068 0.0
C1643 C 0.49635 0.56362 0.4085 0.0
C1644 C 0.47336 0.55083 0.41332 0.0
C1645 C 0.4523 0.56457 0.42163 0.0
C1646 C 0.52128 0.60467 0.40491 0.0
C1647 C 0.47157 0.52242 0.41187 0.0
C1648 C 0.54862 0.52481 0.37809 0.0
C1649 C 0.56322 0.51836 0.39921 0.0
C1650 C 0.52727 0.5404 0.38057 0.0
C1651 C 0.51996 0.5489 0.40484 0.0
C1652 C 0.53478 0.54253 0.42616 0.0
C1653 C 0.55642 0.52769 0.423 0.0
C1654 C 0.5124 0.54751 0.35734 0.0
C1655 C 0.52733 0.55065 0.45248 0.0
H1656 H 0.47753 0.62357 0.42298 0.0
H1657 H 0.43512 0.55464 0.42656 0.0
H1658 H 0.53514 0.6017 0.42033 0.0
H1659 H 0.53001 0.59773 0.38718 0.0
H1660 H 0.51773 0.62526 0.40312 0.0
H1661 H 0.4518 0.51564 0.41362 0.0
H1662 H 0.4795 0.51542 0.39382 0.0
H1663 H 0.48287 0.51396 0.42736 0.0
H1664 H 0.55393 0.5177 0.35964 0.0
H1665 H 0.56746 0.52254 0.43941 0.0
H1666 H 0.50968 0.56827 0.3566 0.0
H1667 H 0.49338 0.5388 0.35815 0.0
H1668 H 0.52185 0.54129 0.33969 0.0
H1669 H 0.54075 0.54377 0.46706 0.0
H1670 H 0.50823 0.54336 0.45705 0.0
H1671 H 0.52646 0.57153 0.4536 0.0
C1672 C 0.09275 0.43731 0.04469 0.0
C1673 C 0.09223 0.44281 0.01884 0.0
C1674 C 0.08787 0.45614 0.06264 0.0
C1675 C 0.08141 0.48072 0.05438 0.0
C1676 C 0.08216 0.48663 0.02831 0.0
C1677 C 0.08797 0.46762 0.01084 0.0
C1678 C 0.08815 0.44933 0.0903 0.0
C1679 C 0.07476 0.51242 0.01867 0.0
C1680 C 0.03407 0.51734 0.0934 0.0
C1681 C 0.04902 0.53675 0.10331 0.0
C1682 C 0.04451 0.49881 0.07772 0.0
C1683 C 0.07073 0.49923 0.0725 0.0
C1684 C 0.08618 0.518 0.08355 0.0
C1685 C 0.07505 0.53684 0.09851 0.0
C1686 C 0.02724 0.47944 0.06585 0.0
C1687 C 0.11432 0.5185 0.07911 0.0
H1688 H 0.09623 0.4181 0.05083 0.0
H1689 H 0.0873 0.47177 0.99082 0.0
H1690 H 0.0978 0.4642 0.10145 0.0
H1691 H 0.06849 0.44792 0.09737 0.0
H1692 H 0.09773 0.43099 0.09375 0.0
H1693 H 0.07841 0.51456 0.99812 0.0
H1694 H 0.05434 0.51555 0.02214 0.0
H1695 H 0.08519 0.52738 0.02891 0.0
H1696 H 0.01392 0.51728 0.0969 0.0
H1697 H 0.08669 0.55174 0.10632 0.0
H1698 H 0.0335 0.46012 0.0709 0.0
H1699 H 0.02811 0.48103 0.04498 0.0
H1700 H 0.00729 0.48176 0.07188 0.0
H1701 H 0.12258 0.49959 0.08275 0.0
H1702 H 0.12399 0.53256 0.0913 0.0
H1703 H 0.11825 0.52327 0.05911 0.0
C1704 C 0.04582 0.4808 0.41383 0.0
C1705 C 0.05058 0.45575 0.4209 0.0
C1706 C 0.05455 0.50098 0.42859 0.0
C1707 C 0.06765 0.49592 0.45134 0.0
C1708 C 0.07321 0.47069 0.45813 0.0
C1709 C 0.06497 0.45092 0.44259 0.0
C1710 C 0.0489 0.52767 0.42034 0.0
C1711 C 0.08651 0.46446 0.48258 0.0
C1712 C 0.10188 0.5486 0.48618 0.0
C1713 C 0.08307 0.55668 0.50286 0.0
C1714 C 0.09709 0.52901 0.46894 0.0
C1715 C 0.07328 0.5168 0.4692 0.0
C1716 C 0.05453 0.52457 0.48661 0.0
C1717 C 0.05954 0.54471 0.50294 0.0
C1718 C 0.11724 0.5217 0.45017 0.0
C1719 C 0.02918 0.51157 0.48808 0.0
H1720 H 0.03497 0.48464 0.3969 0.0
H1721 H 0.06876 0.43163 0.44815 0.0
H1722 H 0.03458 0.53609 0.4331 0.0
H1723 H 0.06614 0.53949 0.42159 0.0
H1724 H 0.04156 0.52848 0.40071 0.0
H1725 H 0.09089 0.44402 0.48427 0.0
H1726 H 0.10433 0.4753 0.4842 0.0
H1727 H 0.07436 0.47001 0.49872 0.0
H1728 H 0.12002 0.55808 0.48616 0.0
H1729 H 0.04515 0.55089 0.51614 0.0
H1730 H 0.10995 0.52412 0.43069 0.0
H1731 H 0.12223 0.5015 0.45245 0.0
H1732 H 0.13465 0.5332 0.45232 0.0
H1733 H 0.01885 0.51404 0.47004 0.0
H1734 H 0.01727 0.51904 0.50364 0.0
H1735 H 0.03183 0.49099 0.49099 0.0
C1736 C 0.93379 0.92207 0.48442 0.0
C1737 C 0.91049 0.91704 0.49592 0.0
C1738 C 0.93686 0.94289 0.4684 0.0
C1739 C 0.91592 0.95866 0.46316 0.0
C1740 C 0.892 0.95288 0.4736 0.0
C1741 C 0.88964 0.93233 0.49019 0.0
C1742 C 0.96283 0.94871 0.45812 0.0
C1743 C 0.8691 0.96883 0.46784 0.0
C1744 C 0.93207 0.02632 0.44658 0.0
C1745 C 0.93283 0.02536 0.42016 0.0
C1746 C 0.92591 0.00487 0.4608 0.0
C1747 C 0.91967 0.98212 0.44825 0.0
C1748 C 0.91902 0.98144 0.42154 0.0
C1749 C 0.92599 0.003 0.40778 0.0
C1750 C 0.92742 0.00624 0.48925 0.0
C1751 C 0.91175 0.95774 0.40751 0.0
H1752 H 0.95001 0.91044 0.48886 0.0
H1753 H 0.87154 0.92839 0.49889 0.0
H1754 H 0.96222 0.95016 0.43725 0.0
H1755 H 0.96931 0.96723 0.46546 0.0
H1756 H 0.97696 0.93414 0.4634 0.0
H1757 H 0.85141 0.96013 0.47501 0.0
H1758 H 0.87124 0.98769 0.47666 0.0
H1759 H 0.8673 0.97177 0.44718 0.0
H1760 H 0.93754 0.0435 0.45623 0.0
H1761 H 0.92637 0.00227 0.38733 0.0
H1762 H 0.94249 0.99339 0.4961 0.0
H1763 H 0.90943 0.99985 0.49781 0.0
H1764 H 0.93157 0.02562 0.49608 0.0
H1765 H 0.9267 0.94327 0.40991 0.0
H1766 H 0.90912 0.96121 0.38699 0.0
H1767 H 0.89403 0.94979 0.41535 0.0
C1768 C 0.37954 0.54804 0.51941 0.0
C1769 C 0.40101 0.56208 0.51289 0.0
C1770 C 0.38163 0.52638 0.53462 0.0
C1771 C 0.4058 0.51827 0.5427 0.0
C1772 C 0.42748 0.53237 0.536 0.0
C1773 C 0.42475 0.55428 0.52151 0.0
C1774 C 0.35806 0.5122 0.54203 0.0
C1775 C 0.45369 0.52408 0.54369 0.0
C1776 C 0.4202 0.47499 0.59758 0.0
C1777 C 0.42572 0.45236 0.58503 0.0
C1778 C 0.41145 0.49613 0.58424 0.0
C1779 C 0.40894 0.49476 0.55767 0.0
C1780 C 0.41309 0.47152 0.54513 0.0
C1781 C 0.42111 0.45048 0.55906 0.0
C1782 C 0.40648 0.52035 0.5984 0.0
C1783 C 0.41118 0.46937 0.51677 0.0
H1784 H 0.36114 0.55417 0.51286 0.0
H1785 H 0.44141 0.56491 0.51628 0.0
H1786 H 0.35851 0.49291 0.53391 0.0
H1787 H 0.3572 0.51013 0.56286 0.0
H1788 H 0.34062 0.52183 0.53547 0.0
H1789 H 0.4686 0.53688 0.53638 0.0
H1790 H 0.45517 0.52342 0.56456 0.0
H1791 H 0.45745 0.50474 0.53655 0.0
H1792 H 0.42345 0.4764 0.61774 0.0
H1793 H 0.42541 0.43304 0.54927 0.0
H1794 H 0.38885 0.52939 0.5916 0.0
H1795 H 0.42219 0.53377 0.59498 0.0
H1796 H 0.40493 0.51715 0.61907 0.0
H1797 H 0.39333 0.47785 0.50988 0.0
H1798 H 0.41214 0.44946 0.51028 0.0
H1799 H 0.42696 0.47997 0.50795 0.0
C1800 C 0.5965 0.59111 0.00971 0.0
C1801 C 0.58244 0.58084 0.02957 0.0
C1802 C 0.58457 0.59917 0.98746 0.0
C1803 C 0.55819 0.59569 0.98472 0.0
C1804 C 0.54389 0.58596 0.00513 0.0
C1805 C 0.55619 0.57905 0.02751 0.0
C1806 C 0.60032 0.61039 0.96653 0.0
C1807 C 0.51589 0.5811 0.00272 0.0
C1808 C 0.51834 0.6228 0.93153 0.0
C1809 C 0.51787 0.60247 0.91457 0.0
C1810 C 0.5327 0.62156 0.95382 0.0
C1811 C 0.54599 0.59911 0.95968 0.0
C1812 C 0.5461 0.57885 0.94228 0.0
C1813 C 0.53251 0.58103 0.91973 0.0
C1814 C 0.53303 0.64395 0.97142 0.0
C1815 C 0.5594 0.55426 0.94805 0.0
H1816 H 0.61685 0.59252 0.01147 0.0
H1817 H 0.54545 0.57075 0.04282 0.0
H1818 H 0.60247 0.59643 0.95108 0.0
H1819 H 0.59088 0.62728 0.95849 0.0
H1820 H 0.61945 0.61582 0.97319 0.0
H1821 H 0.50734 0.57471 0.02078 0.0
H1822 H 0.50597 0.5984 0.99639 0.0
H1823 H 0.51259 0.56635 0.98822 0.0
H1824 H 0.50727 0.63955 0.92752 0.0
H1825 H 0.53238 0.56529 0.90674 0.0
H1826 H 0.5526 0.648 0.9777 0.0
H1827 H 0.52172 0.63965 0.98851 0.0
H1828 H 0.52509 0.66114 0.9624 0.0
H1829 H 0.57972 0.55767 0.95165 0.0
H1830 H 0.55766 0.54037 0.93244 0.0
H1831 H 0.55132 0.54577 0.96542 0.0
C1832 C 0.44666 0.92908 0.02976 0.0
C1833 C 0.42145 0.93692 0.02798 0.0
C1834 C 0.46046 0.9225 0.00817 0.0
C1835 C 0.4485 0.92297 0.98428 0.0
C1836 C 0.4226 0.9294 0.98253 0.0
C1837 C 0.40947 0.93672 0.00437 0.0
C1838 C 0.4882 0.91643 0.0108 0.0
C1839 C 0.409 0.92935 0.9575 0.0
C1840 C 0.49077 0.93586 0.92802 0.0
C1841 C 0.49626 0.9114 0.91958 0.0
C1842 C 0.47496 0.93985 0.94884 0.0
C1843 C 0.46374 0.9189 0.96105 0.0
C1844 C 0.46836 0.89418 0.95194 0.0
C1845 C 0.48498 0.89069 0.93155 0.0
C1846 C 0.47115 0.96646 0.95839 0.0
C1847 C 0.45613 0.87146 0.964 0.0
H1848 H 0.45604 0.92928 0.04791 0.0
H1849 H 0.38989 0.94254 0.00295 0.0
H1850 H 0.4925 0.89794 0.00201 0.0
H1851 H 0.49953 0.93089 0.00072 0.0
H1852 H 0.49438 0.91591 0.03084 0.0
H1853 H 0.38826 0.9315 0.9598 0.0
H1854 H 0.41601 0.9451 0.94563 0.0
H1855 H 0.41284 0.91154 0.94716 0.0
H1856 H 0.49974 0.95189 0.91902 0.0
H1857 H 0.48915 0.87177 0.92494 0.0
H1858 H 0.47831 0.968 0.97802 0.0
H1859 H 0.45075 0.97115 0.95881 0.0
H1860 H 0.48102 0.98068 0.94655 0.0
H1861 H 0.46361 0.86883 0.98337 0.0
H1862 H 0.4596 0.85389 0.95309 0.0
H1863 H 0.43545 0.87442 0.96566 0.0
C1864 C 0.52178 0.3802 0.54733 0.0
C1865 C 0.51544 0.40061 0.56295 0.0
C1866 C 0.53749 0.38362 0.52622 0.0
C1867 C 0.54625 0.40814 0.52021 0.0
C1868 C 0.54017 0.4287 0.53615 0.0
C1869 C 0.5252 0.42458 0.55753 0.0
C1870 C 0.54429 0.36114 0.51011 0.0
C1871 C 0.54858 0.45528 0.5301 0.0
C1872 C 0.60016 0.42397 0.47601 0.0
C1873 C 0.58704 0.43079 0.45407 0.0
C1874 C 0.58726 0.41459 0.49716 0.0
C1875 C 0.56058 0.41292 0.49658 0.0
C1876 C 0.54739 0.41881 0.47408 0.0
C1877 C 0.56086 0.42731 0.45294 0.0
C1878 C 0.60206 0.40768 0.5205 0.0
C1879 C 0.51892 0.41794 0.47286 0.0
H1880 H 0.51438 0.36159 0.55158 0.0
H1881 H 0.52022 0.44046 0.56939 0.0
H1882 H 0.53506 0.3628 0.49139 0.0
H1883 H 0.56497 0.36056 0.50683 0.0
H1884 H 0.53832 0.34304 0.51888 0.0
H1885 H 0.54222 0.46915 0.54449 0.0
H1886 H 0.56946 0.45614 0.52881 0.0
H1887 H 0.54094 0.46107 0.51146 0.0
H1888 H 0.62047 0.42644 0.47679 0.0
H1889 H 0.55068 0.43275 0.43605 0.0
H1890 H 0.59523 0.38953 0.52843 0.0
H1891 H 0.5993 0.42237 0.53515 0.0
H1892 H 0.6226 0.40605 0.51657 0.0
H1893 H 0.51169 0.42124 0.45345 0.0
H1894 H 0.51094 0.43263 0.48549 0.0
H1895 H 0.51183 0.39943 0.47958 0.0
C1896 C 0.46806 0.09823 0.56251 0.0
C1897 C 0.49414 0.09604 0.55868 0.0
C1898 C 0.45103 0.0935 0.54279 0.0
C1899 C 0.46035 0.08549 0.51906 0.0
C1900 C 0.48673 0.08452 0.51479 0.0
C1901 C 0.50333 0.09021 0.53459 0.0
C1902 C 0.42306 0.0956 0.54782 0.0
C1903 C 0.49747 0.0754 0.49 0.0
C1904 C 0.42103 0.03863 0.48213 0.0
C1905 C 0.41307 0.05316 0.46151 0.0
C1906 C 0.43614 0.04907 0.50113 0.0
C1907 C 0.4428 0.07493 0.4999 0.0
C1908 C 0.4338 0.09003 0.47976 0.0
C1909 C 0.41937 0.07885 0.46053 0.0
C1910 C 0.44585 0.03212 0.52194 0.0
C1911 C 0.43985 0.11783 0.47828 0.0
H1912 H 0.46097 0.10285 0.58115 0.0
H1913 H 0.52349 0.08821 0.53169 0.0
H1914 H 0.41339 0.10509 0.53185 0.0
H1915 H 0.41483 0.07644 0.54969 0.0
H1916 H 0.41906 0.10622 0.56545 0.0
H1917 H 0.51828 0.07786 0.48898 0.0
H1918 H 0.49308 0.05505 0.4876 0.0
H1919 H 0.48873 0.08561 0.47397 0.0
H1920 H 0.41642 0.01873 0.48287 0.0
H1921 H 0.41311 0.09017 0.44467 0.0
H1922 H 0.43999 0.03953 0.54062 0.0
H1923 H 0.4668 0.03181 0.52164 0.0
H1924 H 0.43888 0.01243 0.52012 0.0
H1925 H 0.43547 0.12717 0.49651 0.0
H1926 H 0.42915 0.12744 0.46301 0.0
H1927 H 0.46031 0.12043 0.4747 0.0
C1928 C 0.01694 0.59128 0.60429 0.0
C1929 C 0.03669 0.57872 0.59201 0.0
C1930 C 0.9951 0.57823 0.61168 0.0
C1931 C 0.99264 0.55231 0.6056 0.0
C1932 C 0.01316 0.53932 0.59438 0.0
C1933 C 0.03515 0.55265 0.58809 0.0
C1934 C 0.97403 0.59256 0.62442 0.0
C1935 C 0.01108 0.51191 0.58682 0.0
C1936 C 0.93847 0.51087 0.62812 0.0
C1937 C 0.92169 0.51272 0.6077 0.0
C1938 C 0.96118 0.52461 0.62837 0.0
C1939 C 0.96758 0.53981 0.60732 0.0
C1940 C 0.95045 0.54213 0.58694 0.0
C1941 C 0.92755 0.52897 0.58764 0.0
C1942 C 0.97856 0.52243 0.65083 0.0
C1943 C 0.95675 0.55766 0.56383 0.0
H1944 H 0.01821 0.6115 0.60729 0.0
H1945 H 0.05028 0.54306 0.57818 0.0
H1946 H 0.95879 0.59638 0.61059 0.0
H1947 H 0.96576 0.58125 0.64 0.0
H1948 H 0.98064 0.61091 0.63213 0.0
H1949 H 0.0295 0.50397 0.58069 0.0
H1950 H 0.00375 0.50039 0.60268 0.0
H1951 H 0.99749 0.51013 0.57097 0.0
H1952 H 0.93396 0.49853 0.64382 0.0
H1953 H 0.91473 0.53063 0.57183 0.0
H1954 H 0.9845 0.54146 0.65726 0.0
H1955 H 0.99588 0.512 0.64538 0.0
H1956 H 0.96951 0.51238 0.66686 0.0
H1957 H 0.96017 0.57759 0.56922 0.0
H1958 H 0.94146 0.55722 0.54947 0.0
H1959 H 0.97435 0.55048 0.555 0.0
C1960 C 0.96444 0.92747 0.5857 0.0
C1961 C 0.96543 0.90107 0.5852 0.0
C1962 C 0.98582 0.94169 0.5921 0.0
C1963 C 0.00843 0.92911 0.5989 0.0
C1964 C 0.00881 0.90243 0.60049 0.0
C1965 C 0.98741 0.88868 0.59316 0.0
C1966 C 0.98478 0.97006 0.58952 0.0
C1967 C 0.03227 0.88835 0.60846 0.0
C1968 C 0.06928 0.96147 0.58014 0.0
C1969 C 0.07603 0.974 0.60243 0.0
C1970 C 0.04746 0.94664 0.5789 0.0
C1971 C 0.03236 0.9436 0.60074 0.0
C1972 C 0.03964 0.95527 0.62366 0.0
C1973 C 0.06121 0.97072 0.62413 0.0
C1974 C 0.04008 0.93501 0.55391 0.0
C1975 C 0.02445 0.95177 0.6475 0.0
H1976 H 0.94751 0.93705 0.57936 0.0
H1977 H 0.98808 0.86822 0.59298 0.0
H1978 H 0.99258 0.97931 0.60658 0.0
H1979 H 0.99657 0.97599 0.57324 0.0
H1980 H 0.96523 0.97703 0.58644 0.0
H1981 H 0.02818 0.86829 0.61303 0.0
H1982 H 0.04633 0.88883 0.59295 0.0
H1983 H 0.041 0.89745 0.62518 0.0
H1984 H 0.0805 0.96405 0.56325 0.0
H1985 H 0.06646 0.98027 0.64145 0.0
H1986 H 0.02122 0.94205 0.54809 0.0
H1987 H 0.03869 0.91421 0.55577 0.0
H1988 H 0.05382 0.9394 0.53867 0.0
H1989 H 0.00573 0.96091 0.64538 0.0
H1990 H 0.03401 0.95998 0.66425 0.0
H1991 H 0.02106 0.93139 0.65098 0.0
C1992 C 0.00415 0.41066 0.93692 0.0
C1993 C 0.02806 0.42201 0.93687 0.0
C1994 C 0.9826 0.42429 0.92961 0.0
C1995 C 0.98498 0.45006 0.92291 0.0
C1996 C 0.00919 0.46136 0.9221 0.0
C1997 C 0.03047 0.44706 0.92869 0.0
C1998 C 0.95722 0.41137 0.92994 0.0
C1999 C 0.0125 0.48895 0.91573 0.0
C2000 C 0.93243 0.48727 0.89109 0.0
C2001 C 0.92093 0.49888 0.91189 0.0
C2002 C 0.95267 0.47043 0.89442 0.0
C2003 C 0.9621 0.46588 0.91902 0.0
C2004 C 0.95042 0.47751 0.94006 0.0
C2005 C 0.92975 0.49356 0.93625 0.0
C2006 C 0.96418 0.45779 0.87162 0.0
C2007 C 0.96031 0.47375 0.96655 0.0
H2008 H 0.00224 0.39121 0.94298 0.0
H2009 H 0.04886 0.45596 0.92868 0.0
H2010 H 0.94574 0.4188 0.94579 0.0
H2011 H 0.94677 0.41537 0.91223 0.0
H2012 H 0.95898 0.39059 0.93221 0.0
H2013 H 0.03269 0.49453 0.91476 0.0
H2014 H 0.00347 0.49336 0.89737 0.0
H2015 H 0.00304 0.50069 0.93029 0.0
H2016 H 0.92553 0.4913 0.87225 0.0
H2017 H 0.92111 0.50278 0.95235 0.0
H2018 H 0.96525 0.43709 0.87464 0.0
H2019 H 0.98375 0.46468 0.8688 0.0
H2020 H 0.95322 0.46152 0.85413 0.0
H2021 H 0.96022 0.45341 0.97149 0.0
H2022 H 0.94899 0.48413 0.98085 0.0
H2023 H 0.98016 0.48035 0.96769 0.0
C2024 C 0.07886 0.03792 0.9367 0.0
C2025 C 0.08322 0.02631 0.91332 0.0
C2026 C 0.05805 0.05384 0.94034 0.0
C2027 C 0.04162 0.05886 0.91988 0.0
C2028 C 0.04687 0.04855 0.89579 0.0
C2029 C 0.06742 0.03205 0.89288 0.0
C2030 C 0.05281 0.06396 0.96649 0.0
C2031 C 0.03022 0.05414 0.87336 0.0
C2032 C 0.97379 0.07271 0.93773 0.0
C2033 C 0.97371 0.09913 0.93859 0.0
C2034 C 0.99566 0.0594 0.93112 0.0
C2035 C 0.01776 0.07289 0.92445 0.0
C2036 C 0.0174 0.09961 0.92403 0.0
C2037 C 0.99545 0.11245 0.93155 0.0
C2038 C 0.99544 0.03091 0.93248 0.0
C2039 C 0.04034 0.1146 0.91627 0.0
H2040 H 0.09089 0.03349 0.95262 0.0
H2041 H 0.07084 0.02328 0.87471 0.0
H2042 H 0.05047 0.08475 0.96594 0.0
H2043 H 0.03488 0.05586 0.97368 0.0
H2044 H 0.06812 0.05931 0.98005 0.0
H2045 H 0.03884 0.04768 0.85536 0.0
H2046 H 0.01179 0.04448 0.87571 0.0
H2047 H 0.02639 0.07469 0.87202 0.0
H2048 H 0.95707 0.06238 0.9434 0.0
H2049 H 0.99533 0.13292 0.93203 0.0
H2050 H 0.00919 0.02443 0.9469 0.0
H2051 H 0.00133 0.02272 0.91414 0.0
H2052 H 0.97653 0.02331 0.93742 0.0
H2053 H 0.05532 0.11259 0.93076 0.0
H2054 H 0.03603 0.135 0.91397 0.0
H2055 H 0.04808 0.10726 0.89824 0.0
C2056 C 0.55496 0.01161 0.5701 0.0
C2057 C 0.57187 0.02883 0.58084 0.0
C2058 C 0.56369 0.99066 0.55652 0.0
C2059 C 0.59 0.98641 0.55434 0.0
C2060 C 0.60719 0.00344 0.56569 0.0
C2061 C 0.5979 0.02476 0.57847 0.0
C2062 C 0.54472 0.97336 0.54411 0.0
C2063 C 0.63532 0.9991 0.5644 0.0
C2064 C 0.60498 0.91883 0.53633 0.0
C2065 C 0.60863 0.92103 0.51021 0.0
C2066 C 0.60071 0.94026 0.5513 0.0
C2067 C 0.59925 0.96431 0.53972 0.0
C2068 C 0.60405 0.96673 0.51353 0.0
C2069 C 0.60907 0.94506 0.49916 0.0
C2070 C 0.59648 0.93699 0.57929 0.0
C2071 C 0.60204 0.99191 0.50032 0.0
H2072 H 0.53482 0.01493 0.5717 0.0
H2073 H 0.61097 0.03804 0.58694 0.0
H2074 H 0.54842 0.97235 0.52351 0.0
H2075 H 0.54664 0.95396 0.55174 0.0
H2076 H 0.52496 0.97975 0.54705 0.0
H2077 H 0.64609 0.01351 0.57517 0.0
H2078 H 0.63997 0.98014 0.57202 0.0
H2079 H 0.64173 0.9995 0.54447 0.0
H2080 H 0.60481 0.90027 0.54495 0.0
H2081 H 0.61167 0.94684 0.47896 0.0
H2082 H 0.57622 0.93995 0.58372 0.0
H2083 H 0.60741 0.95123 0.59007 0.0
H2084 H 0.60195 0.91785 0.58589 0.0
H2085 H 0.5821 0.99835 0.50063 0.0
H2086 H 0.6084 0.99093 0.48035 0.0
H2087 H 0.61341 0.00638 0.51026 0.0
C2088 C 0.58372 0.0698 0.95438 0.0
C2089 C 0.60407 0.07487 0.97051 0.0
C2090 C 0.58236 0.04723 0.94076 0.0
C2091 C 0.60238 0.02962 0.94249 0.0
C2092 C 0.62369 0.03517 0.95764 0.0
C2093 C 0.62409 0.05757 0.97189 0.0
C2094 C 0.55895 0.04181 0.92535 0.0
C2095 C 0.6458 0.01727 0.95917 0.0
C2096 C 0.5819 0.96271 0.92843 0.0
C2097 C 0.58569 0.96156 0.9023 0.0
C2098 C 0.58852 0.98435 0.94211 0.0
C2099 C 0.59997 0.00492 0.92943 0.0
C2100 C 0.60573 0.00293 0.90339 0.0
C2101 C 0.59801 0.98144 0.88999 0.0
C2102 C 0.58128 0.98599 0.96964 0.0
C2103 C 0.61873 0.02407 0.8894 0.0
H2104 H 0.5682 0.08301 0.95314 0.0
H2105 H 0.63999 0.06149 0.98415 0.0
H2106 H 0.56406 0.03876 0.90529 0.0
H2107 H 0.54984 0.02424 0.93222 0.0
H2108 H 0.54494 0.05738 0.92633 0.0
H2109 H 0.6621 0.0257 0.96932 0.0
H2110 H 0.64007 0.9998 0.96919 0.0
H2111 H 0.65195 0.0117 0.93994 0.0
H2112 H 0.57208 0.94743 0.93786 0.0
H2113 H 0.60104 0.98042 0.86977 0.0
H2114 H 0.56595 0.0001 0.97196 0.0
H2115 H 0.5975 0.99243 0.98117 0.0
H2116 H 0.57456 0.96761 0.97719 0.0
H2117 H 0.6052 0.03974 0.88625 0.0
H2118 H 0.62597 0.01779 0.87074 0.0
H2119 H 0.63468 0.03165 0.90065 0.0
C2120 C 0.44677 0.51987 0.89907 0.0
C2121 C 0.43329 0.54184 0.89311 0.0
C2122 C 0.43626 0.50125 0.91459 0.0
C2123 C 0.41134 0.50431 0.92378 0.0
C2124 C 0.39722 0.52596 0.91704 0.0
C2125 C 0.40852 0.54469 0.90206 0.0
C2126 C 0.45214 0.47862 0.92173 0.0
C2127 C 0.37035 0.52945 0.92587 0.0
C2128 C 0.38579 0.44192 0.94669 0.0
C2129 C 0.39115 0.44339 0.97253 0.0
C2130 C 0.38998 0.46266 0.93081 0.0
C2131 C 0.40063 0.48494 0.94097 0.0
C2132 C 0.40443 0.48704 0.96737 0.0
C2133 C 0.39928 0.46625 0.98293 0.0
C2134 C 0.38488 0.45998 0.90291 0.0
C2135 C 0.41628 0.51025 0.97889 0.0
H2136 H 0.46595 0.51762 0.89236 0.0
H2137 H 0.39795 0.56157 0.89735 0.0
H2138 H 0.45399 0.47749 0.94257 0.0
H2139 H 0.44284 0.461 0.91534 0.0
H2140 H 0.47136 0.47938 0.91336 0.0
H2141 H 0.36136 0.5464 0.9174 0.0
H2142 H 0.35893 0.51259 0.92097 0.0
H2143 H 0.36991 0.53138 0.9467 0.0
H2144 H 0.37942 0.42417 0.93873 0.0
H2145 H 0.40372 0.4672 0.00289 0.0
H2146 H 0.40297 0.4571 0.89276 0.0
H2147 H 0.37603 0.47737 0.89528 0.0
H2148 H 0.37237 0.44366 0.89881 0.0
H2149 H 0.4365 0.5111 0.97345 0.0
H2150 H 0.41505 0.51015 0.99982 0.0
H2151 H 0.40711 0.52763 0.97168 0.0
C2152 C 0.89327 0.0646 0.02769 0.0
C2153 C 0.91338 0.08113 0.02291 0.0
C2154 C 0.89629 0.04386 0.04394 0.0
C2155 C 0.92018 0.03919 0.05499 0.0
C2156 C 0.94027 0.0563 0.05088 0.0
C2157 C 0.93651 0.07726 0.0352 0.0
C2158 C 0.87421 0.02646 0.04853 0.0
C2159 C 0.96622 0.0517 0.06182 0.0
C2160 C 0.93112 0.99294 0.10865 0.0
C2161 C 0.93924 0.97149 0.09547 0.0
C2162 C 0.92353 0.01478 0.09568 0.0
C2163 C 0.92496 0.01536 0.06899 0.0
C2164 C 0.93274 0.99355 0.05563 0.0
C2165 C 0.93942 0.97175 0.06904 0.0
C2166 C 0.9146 0.03739 0.11053 0.0
C2167 C 0.93518 0.99359 0.02721 0.0
H2168 H 0.87529 0.06762 0.01839 0.0
H2169 H 0.95218 0.08985 0.0315 0.0
H2170 H 0.87754 0.00819 0.03886 0.0
H2171 H 0.87221 0.02243 0.06899 0.0
H2172 H 0.8562 0.03454 0.04143 0.0
H2173 H 0.97949 0.06742 0.05773 0.0
H2174 H 0.96505 0.04917 0.08256 0.0
H2175 H 0.97418 0.03405 0.05382 0.0
H2176 H 0.9308 0.99266 0.12912 0.0
H2177 H 0.94592 0.95526 0.05883 0.0
H2178 H 0.89658 0.04461 0.10264 0.0
H2179 H 0.92867 0.05281 0.10904 0.0
H2180 H 0.91177 0.0329 0.13082 0.0
H2181 H 0.917 0.99904 0.01838 0.0
H2182 H 0.94094 0.97489 0.01967 0.0
H2183 H 0.94944 0.00779 0.02137 0.0
C2184 C 0.9943 0.18514 0.36162 0.0
C2185 C 0.97771 0.17611 0.38016 0.0
C2186 C 0.99914 0.21109 0.35917 0.0
C2187 C 0.98759 0.22829 0.37607 0.0
C2188 C 0.97057 0.21925 0.3946 0.0
C2189 C 0.9656 0.1933 0.39622 0.0
C2190 C 0.01691 0.22006 0.33878 0.0
C2191 C 0.95826 0.2369 0.41331 0.0
C2192 C 0.02036 0.29046 0.3899 0.0
C2193 C 0.00491 0.30773 0.3771 0.0
C2194 C 0.0151 0.26452 0.38943 0.0
C2195 C 0.99424 0.25557 0.37532 0.0
C2196 C 0.97915 0.27282 0.36156 0.0
C2197 C 0.98448 0.29877 0.36287 0.0
C2198 C 0.03136 0.24681 0.40477 0.0
C2199 C 0.95714 0.26393 0.34582 0.0
H2200 H 0.00353 0.1719 0.34903 0.0
H2201 H 0.95287 0.18638 0.41069 0.0
H2202 H 0.00785 0.23517 0.32745 0.0
H2203 H 0.0341 0.22826 0.34747 0.0
H2204 H 0.02272 0.20455 0.32592 0.0
H2205 H 0.94512 0.22692 0.42625 0.0
H2206 H 0.97299 0.2464 0.42479 0.0
H2207 H 0.94763 0.25186 0.40323 0.0
H2208 H 0.03608 0.2973 0.40107 0.0
H2209 H 0.9726 0.31206 0.3528 0.0
H2210 H 0.03936 0.23186 0.39248 0.0
H2211 H 0.01966 0.2373 0.41932 0.0
H2212 H 0.04715 0.25674 0.41434 0.0
H2213 H 0.96331 0.24882 0.33269 0.0
H2214 H 0.94856 0.27948 0.33465 0.0
H2215 H 0.9424 0.25575 0.35824 0.0
C2216 C 0.01785 0.70294 0.12664 0.0
C2217 C 0.00156 0.68648 0.13947 0.0
C2218 C 0.01344 0.72903 0.12636 0.0
C2219 C 0.99256 0.73899 0.13974 0.0
C2220 C 0.97649 0.72256 0.1534 0.0
C2221 C 0.98099 0.69641 0.15284 0.0
C2222 C 0.03072 0.74583 0.11112 0.0
C2223 C 0.9544 0.73256 0.16838 0.0
C2224 C 0.99557 0.80951 0.1525 0.0
C2225 C 0.9799 0.81906 0.13343 0.0
C2226 C 0.99907 0.7834 0.15545 0.0
C2227 C 0.98712 0.76653 0.13852 0.0
C2228 C 0.97103 0.7761 0.11942 0.0
C2229 C 0.96738 0.80224 0.11731 0.0
C2230 C 0.01587 0.77389 0.17641 0.0
C2231 C 0.95838 0.75878 0.10064 0.0
H2232 H 0.03367 0.69534 0.1161 0.0
H2233 H 0.96846 0.68375 0.16291 0.0
H2234 H 0.01971 0.75572 0.09629 0.0
H2235 H 0.03918 0.7605 0.12341 0.0
H2236 H 0.04621 0.7351 0.1019 0.0
H2237 H 0.94476 0.7175 0.17933 0.0
H2238 H 0.96086 0.74744 0.18162 0.0
H2239 H 0.94047 0.74137 0.15546 0.0
H2240 H 0.0051 0.82247 0.16515 0.0
H2241 H 0.95535 0.80956 0.10246 0.0
H2242 H 0.03289 0.7648 0.16828 0.0
H2243 H 0.00584 0.75935 0.18768 0.0
H2244 H 0.02204 0.78928 0.18924 0.0
H2245 H 0.97294 0.74853 0.0896 0.0
H2246 H 0.94598 0.76919 0.08731 0.0
H2247 H 0.9469 0.74442 0.11064 0.0
C2248 C 0.40245 0.0002 0.19206 0.0
C2249 C 0.38968 0.98044 0.1801 0.0
C2250 C 0.4009 0.00344 0.21829 0.0
C2251 C 0.38528 0.98718 0.23267 0.0
C2252 C 0.3717 0.96763 0.22046 0.0
C2253 C 0.37455 0.96412 0.19432 0.0
C2254 C 0.41646 0.02387 0.23066 0.0
C2255 C 0.35409 0.95056 0.23497 0.0
C2256 C 0.39931 0.98031 0.30263 0.0
C2257 C 0.38355 0.99878 0.31304 0.0
C2258 C 0.40001 0.97628 0.27647 0.0
C2259 C 0.38375 0.99033 0.26054 0.0
C2260 C 0.36699 0.00826 0.27119 0.0
C2261 C 0.36753 0.01272 0.29733 0.0
C2262 C 0.41888 0.95774 0.26581 0.0
C2263 C 0.34868 0.02289 0.25498 0.0
H2264 H 0.41433 0.01265 0.18095 0.0
H2265 H 0.36456 0.94894 0.18489 0.0
H2266 H 0.40396 0.03758 0.24033 0.0
H2267 H 0.42893 0.01544 0.24525 0.0
H2268 H 0.42836 0.03427 0.21688 0.0
H2269 H 0.3436 0.93747 0.2224 0.0
H2270 H 0.36492 0.93923 0.24884 0.0
H2271 H 0.34028 0.96205 0.24576 0.0
H2272 H 0.41189 0.96978 0.31488 0.0
H2273 H 0.35529 0.02692 0.30554 0.0
H2274 H 0.43193 0.96767 0.25276 0.0
H2275 H 0.40906 0.94298 0.25471 0.0
H2276 H 0.43022 0.94841 0.28079 0.0
H2277 H 0.35917 0.03594 0.24242 0.0
H2278 H 0.33518 0.03412 0.26644 0.0
H2279 H 0.33786 0.0098 0.24272 0.0
C2280 C 0.63386 0.50982 0.18572 0.0
C2281 C 0.6163 0.52817 0.17825 0.0
C2282 C 0.6364 0.50295 0.2112 0.0
C2283 C 0.62056 0.51425 0.22952 0.0
C2284 C 0.60299 0.53301 0.22209 0.0
C2285 C 0.6013 0.53997 0.19657 0.0
C2286 C 0.65578 0.48333 0.21843 0.0
C2287 C 0.58542 0.54515 0.24097 0.0
C2288 C 0.60684 0.47753 0.28957 0.0
C2289 C 0.6213 0.49065 0.30743 0.0
C2290 C 0.60653 0.48497 0.26415 0.0
C2291 C 0.62151 0.50566 0.25627 0.0
C2292 C 0.6368 0.51845 0.27408 0.0
C2293 C 0.63628 0.51098 0.29953 0.0
C2294 C 0.5896 0.47112 0.24587 0.0
C2295 C 0.6535 0.54019 0.26629 0.0
H2296 H 0.64567 0.50082 0.17163 0.0
H2297 H 0.5876 0.55407 0.19083 0.0
H2298 H 0.66802 0.49061 0.23378 0.0
H2299 H 0.64616 0.46623 0.22574 0.0
H2300 H 0.66788 0.47776 0.20223 0.0
H2301 H 0.57316 0.55974 0.23222 0.0
H2302 H 0.57322 0.53052 0.24968 0.0
H2303 H 0.59642 0.55403 0.2564 0.0
H2304 H 0.59505 0.46193 0.29561 0.0
H2305 H 0.6476 0.52108 0.31326 0.0
H2306 H 0.60091 0.46336 0.23005 0.0
H2307 H 0.57569 0.48444 0.23762 0.0
H2308 H 0.57919 0.45537 0.255 0.0
H2309 H 0.66598 0.53438 0.25051 0.0
H2310 H 0.66541 0.54711 0.2821 0.0
H2311 H 0.64172 0.55606 0.25937 0.0
C2312 C 0.2957 0.3683 0.01832 0.0
C2313 C 0.31136 0.38281 0.00276 0.0
C2314 C 0.2695 0.36758 0.01421 0.0
C2315 C 0.25878 0.38265 0.99486 0.0
C2316 C 0.27463 0.39754 0.97932 0.0
C2317 C 0.30081 0.397 0.98313 0.0
C2318 C 0.25332 0.35072 0.03051 0.0
C2319 C 0.26391 0.41464 0.95917 0.0
C2320 C 0.19299 0.37105 0.96862 0.0
C2321 C 0.17859 0.38776 0.98312 0.0
C2322 C 0.21902 0.36838 0.97295 0.0
C2323 C 0.23093 0.38367 0.9914 0.0
C2324 C 0.21634 0.40078 0.00587 0.0
C2325 C 0.1902 0.40219 0.00192 0.0
C2326 C 0.23376 0.34924 0.95784 0.0
C2327 C 0.22842 0.41815 0.02497 0.0
H2328 H 0.30402 0.35722 0.03339 0.0
H2329 H 0.31303 0.4084 0.97129 0.0
H2330 H 0.24039 0.36233 0.04218 0.0
H2331 H 0.24142 0.33838 0.01846 0.0
H2332 H 0.26479 0.33866 0.04327 0.0
H2333 H 0.27881 0.42546 0.94913 0.0
H2334 H 0.25323 0.40342 0.94511 0.0
H2335 H 0.25046 0.42821 0.9678 0.0
H2336 H 0.18379 0.3598 0.95421 0.0
H2337 H 0.17892 0.41524 0.01295 0.0
H2338 H 0.24465 0.33678 0.97069 0.0
H2339 H 0.24755 0.35899 0.94548 0.0
H2340 H 0.22133 0.33736 0.94584 0.0
H2341 H 0.23821 0.40697 0.03972 0.0
H2342 H 0.21444 0.4307 0.03429 0.0
H2343 H 0.24288 0.43005 0.01557 0.0
C2344 C 0.18892 0.60346 0.50243 0.0
C2345 C 0.17925 0.61554 0.52384 0.0
C2346 C 0.21463 0.60524 0.49626 0.0
C2347 C 0.23077 0.62036 0.51128 0.0
C2348 C 0.22078 0.63345 0.53237 0.0
C2349 C 0.19521 0.63039 0.53876 0.0
C2350 C 0.22467 0.59016 0.47424 0.0
C2351 C 0.23712 0.65053 0.54827 0.0
C2352 C 0.30083 0.60508 0.51186 0.0
C2353 C 0.31003 0.62125 0.49311 0.0
C2354 C 0.27505 0.60455 0.5179 0.0
C2355 C 0.25829 0.6214 0.50561 0.0
C2356 C 0.26775 0.63847 0.48729 0.0
C2357 C 0.29348 0.63776 0.4808 0.0
C2358 C 0.26564 0.58536 0.53677 0.0
C2359 C 0.25069 0.65739 0.47451 0.0
H2360 H 0.17655 0.59174 0.49109 0.0
H2361 H 0.18759 0.63982 0.55526 0.0
H2362 H 0.23357 0.60288 0.46022 0.0
H2363 H 0.23948 0.57692 0.48091 0.0
H2364 H 0.20965 0.57912 0.46464 0.0
H2365 H 0.22596 0.66124 0.56242 0.0
H2366 H 0.25153 0.6392 0.55838 0.0
H2367 H 0.24735 0.66413 0.53604 0.0
H2368 H 0.3137 0.5921 0.5211 0.0
H2369 H 0.30074 0.65029 0.46633 0.0
H2370 H 0.25124 0.57308 0.52779 0.0
H2371 H 0.2564 0.595 0.55288 0.0
H2372 H 0.28107 0.57325 0.5442 0.0
H2373 H 0.2367 0.64744 0.46256 0.0
H2374 H 0.26139 0.67082 0.46246 0.0
H2375 H 0.23999 0.66826 0.48887 0.0
C2376 C 0.69937 0.84219 0.50561 0.0
C2377 C 0.69252 0.8574 0.48506 0.0
C2378 C 0.72457 0.84076 0.5137 0.0
C2379 C 0.74319 0.85541 0.50133 0.0
C2380 C 0.73642 0.87048 0.4803 0.0
C2381 C 0.71119 0.87105 0.47222 0.0
C2382 C 0.73117 0.82396 0.53576 0.0
C2383 C 0.75563 0.88674 0.46691 0.0
C2384 C 0.80151 0.87481 0.53819 0.0
C2385 C 0.82012 0.8594 0.5274 0.0
C2386 C 0.77635 0.87352 0.53002 0.0
C2387 C 0.76954 0.85596 0.51106 0.0
C2388 C 0.78809 0.83966 0.5008 0.0
C2389 C 0.81325 0.84181 0.50887 0.0
C2390 C 0.75724 0.89156 0.54109 0.0
C2391 C 0.78143 0.82025 0.48104 0.0
H2392 H 0.68499 0.83144 0.51544 0.0
H2393 H 0.70593 0.88296 0.45642 0.0
H2394 H 0.74705 0.81128 0.53068 0.0
H2395 H 0.73748 0.83566 0.55193 0.0
H2396 H 0.71491 0.81226 0.54196 0.0
H2397 H 0.74739 0.89699 0.45057 0.0
H2398 H 0.76354 0.90077 0.48029 0.0
H2399 H 0.77155 0.87499 0.46009 0.0
H2400 H 0.80679 0.88857 0.55239 0.0
H2401 H 0.82758 0.82974 0.50062 0.0
H2402 H 0.74126 0.88092 0.54944 0.0
H2403 H 0.74938 0.9037 0.52593 0.0
H2404 H 0.76554 0.90387 0.55589 0.0
H2405 H 0.76551 0.80838 0.48768 0.0
H2406 H 0.79765 0.80778 0.47638 0.0
H2407 H 0.77515 0.82984 0.46352 0.0
C2408 C 0.50884 0.80956 0.84197 0.0
C2409 C 0.5269 0.81645 0.86003 0.0
C2410 C 0.50192 0.78419 0.83866 0.0
C2411 C 0.51286 0.76542 0.85424 0.0
C2412 C 0.53139 0.77228 0.87225 0.0
C2413 C 0.53841 0.79768 0.87471 0.0
C2414 C 0.48257 0.77753 0.81883 0.0
C2415 C 0.54313 0.75291 0.88958 0.0
C2416 C 0.47585 0.70555 0.86737 0.0
C2417 C 0.48922 0.68766 0.85316 0.0
C2418 C 0.48316 0.73098 0.8676 0.0
C2419 C 0.50399 0.73882 0.85279 0.0
C2420 C 0.51695 0.72102 0.83763 0.0
C2421 C 0.5096 0.69555 0.83824 0.0
C2422 C 0.46915 0.74926 0.8844 0.0
C2423 C 0.53885 0.7288 0.82113 0.0
H2424 H 0.50007 0.82402 0.83043 0.0
H2425 H 0.55228 0.80296 0.88879 0.0
H2426 H 0.48984 0.76223 0.80652 0.0
H2427 H 0.46517 0.77039 0.82804 0.0
H2428 H 0.47749 0.79399 0.80686 0.0
H2429 H 0.55766 0.76125 0.90218 0.0
H2430 H 0.52826 0.74413 0.90144 0.0
H2431 H 0.552 0.73761 0.87838 0.0
H2432 H 0.46018 0.69952 0.87908 0.0
H2433 H 0.51987 0.68179 0.8271 0.0
H2434 H 0.46181 0.76529 0.87311 0.0
H2435 H 0.48227 0.75719 0.89868 0.0
H2436 H 0.45308 0.74022 0.8944 0.0
H2437 H 0.53333 0.74491 0.80894 0.0
H2438 H 0.54557 0.71311 0.80895 0.0
H2439 H 0.55479 0.73522 0.83309 0.0
C2440 C 0.51037 0.30049 0.63432 0.0
C2441 C 0.48987 0.3076 0.61917 0.0
C2442 C 0.51856 0.27528 0.63521 0.0
C2443 C 0.50631 0.25692 0.62015 0.0
C2444 C 0.48557 0.26404 0.60484 0.0
C2445 C 0.47743 0.28923 0.60476 0.0
C2446 C 0.54035 0.26829 0.65221 0.0
C2447 C 0.47225 0.24512 0.58819 0.0
C2448 C 0.54076 0.19659 0.60207 0.0
C2449 C 0.52864 0.17879 0.61743 0.0
C2450 C 0.53399 0.22222 0.60306 0.0
C2451 C 0.51509 0.23023 0.62022 0.0
C2452 C 0.50361 0.21245 0.63653 0.0
C2453 C 0.51031 0.18689 0.63472 0.0
C2454 C 0.54634 0.24053 0.58505 0.0
C2455 C 0.48382 0.22031 0.65549 0.0
H2456 H 0.51996 0.31463 0.64559 0.0
H2457 H 0.46171 0.29467 0.59283 0.0
H2458 H 0.53455 0.25306 0.66537 0.0
H2459 H 0.55624 0.26088 0.64077 0.0
H2460 H 0.54723 0.28461 0.66343 0.0
H2461 H 0.45671 0.2538 0.5771 0.0
H2462 H 0.48594 0.23647 0.57489 0.0
H2463 H 0.46429 0.22966 0.59985 0.0
H2464 H 0.55485 0.19035 0.5886 0.0
H2465 H 0.50108 0.17319 0.64682 0.0
H2466 H 0.55475 0.25652 0.59562 0.0
H2467 H 0.5319 0.24853 0.57215 0.0
H2468 H 0.56134 0.23147 0.57352 0.0
H2469 H 0.4909 0.23618 0.66716 0.0
H2470 H 0.47828 0.20455 0.66818 0.0
H2471 H 0.46672 0.22708 0.64547 0.0
C2472 C 0.84263 0.50831 0.81083 0.0
C2473 C 0.86049 0.52667 0.81746 0.0
C2474 C 0.83984 0.50051 0.78563 0.0
C2475 C 0.85577 0.51083 0.7668 0.0
C2476 C 0.87367 0.52956 0.7734 0.0
C2477 C 0.87558 0.53748 0.79859 0.0
C2478 C 0.8201 0.48099 0.77922 0.0
C2479 C 0.89138 0.54066 0.754 0.0
C2480 C 0.86964 0.47284 0.70763 0.0
C2481 C 0.85593 0.48616 0.68933 0.0
C2482 C 0.8694 0.48041 0.73301 0.0
C2483 C 0.85457 0.50142 0.74035 0.0
C2484 C 0.83979 0.51423 0.72212 0.0
C2485 C 0.84092 0.50665 0.69674 0.0
C2486 C 0.88584 0.46657 0.75175 0.0
C2487 C 0.82324 0.53628 0.72932 0.0
H2488 H 0.83082 0.50004 0.82536 0.0
H2489 H 0.88955 0.55154 0.80366 0.0
H2490 H 0.80791 0.48794 0.76367 0.0
H2491 H 0.82938 0.46347 0.77249 0.0
H2492 H 0.808 0.47624 0.79567 0.0
H2493 H 0.9041 0.55518 0.76219 0.0
H2494 H 0.90312 0.52547 0.74562 0.0
H2495 H 0.88045 0.5494 0.73843 0.0
H2496 H 0.88142 0.45709 0.70194 0.0
H2497 H 0.83014 0.51687 0.68264 0.0
H2498 H 0.87433 0.45975 0.76784 0.0
H2499 H 0.90023 0.47968 0.7595 0.0
H2500 H 0.89569 0.45018 0.74314 0.0
H2501 H 0.81092 0.53111 0.74547 0.0
H2502 H 0.81117 0.54267 0.71341 0.0
H2503 H 0.83515 0.55234 0.73548 0.0
C2504 C 0.12599 0.02596 0.70617 0.0
C2505 C 0.13861 0.01031 0.68896 0.0
C2506 C 0.12688 0.02111 0.73219 0.0
C2507 C 0.14117 0.00041 0.74125 0.0
C2508 C 0.1548 0.98515 0.72404 0.0
C2509 C 0.15313 0.99012 0.69804 0.0
C2510 C 0.11174 0.03757 0.74987 0.0
C2511 C 0.17069 0.96327 0.73303 0.0
C2512 C 0.1555 0.00107 0.81156 0.0
C2513 C 0.13707 0.98453 0.82089 0.0
C2514 C 0.15772 0.0057 0.78554 0.0
C2515 C 0.14067 0.99402 0.7686 0.0
C2516 C 0.12223 0.97706 0.77794 0.0
C2517 C 0.12086 0.97229 0.80395 0.0
C2518 C 0.17802 0.0234 0.77623 0.0
C2519 C 0.10337 0.96462 0.76057 0.0
H2520 H 0.11462 0.04151 0.69926 0.0
H2521 H 0.16307 0.97808 0.6848 0.0
H2522 H 0.09724 0.02601 0.7596 0.0
H2523 H 0.12417 0.04566 0.76463 0.0
H2524 H 0.10213 0.0533 0.73986 0.0
H2525 H 0.18179 0.95461 0.71749 0.0
H2526 H 0.18388 0.9696 0.74802 0.0
H2527 H 0.15837 0.94856 0.74141 0.0
H2528 H 0.1682 0.0104 0.82461 0.0
H2529 H 0.10648 0.95961 0.81111 0.0
H2530 H 0.16925 0.04049 0.7679 0.0
H2531 H 0.18925 0.01419 0.76114 0.0
H2532 H 0.19099 0.02937 0.79159 0.0
H2533 H 0.09182 0.97926 0.75101 0.0
H2534 H 0.0905 0.95159 0.77079 0.0
H2535 H 0.11333 0.95383 0.74564 0.0
C2536 C 0.80445 0.11863 0.96713 0.0
C2537 C 0.82111 0.13452 0.98014 0.0
C2538 C 0.77834 0.11996 0.97131 0.0
C2539 C 0.76865 0.13803 0.98846 0.0
C2540 C 0.78534 0.15477 0.00093 0.0
C2541 C 0.81144 0.1526 0.99686 0.0
C2542 C 0.76122 0.10143 0.95805 0.0
C2543 C 0.77565 0.17468 0.01887 0.0
C2544 C 0.69829 0.15122 0.98371 0.0
C2545 C 0.68883 0.13662 0.00365 0.0
C2546 C 0.72435 0.15256 0.97903 0.0
C2547 C 0.7412 0.13846 0.99427 0.0
C2548 C 0.73171 0.12388 0.01457 0.0
C2549 C 0.70566 0.12338 0.0192 0.0
C2550 C 0.73383 0.16878 0.9576 0.0
C2551 C 0.74901 0.10819 0.03094 0.0
H2552 H 0.81189 0.10452 0.9543 0.0
H2553 H 0.82429 0.16506 0.00677 0.0
H2554 H 0.75137 0.08953 0.97221 0.0
H2555 H 0.74651 0.11165 0.94721 0.0
H2556 H 0.77171 0.08888 0.94492 0.0
H2557 H 0.79089 0.18748 0.02548 0.0
H2558 H 0.76078 0.18614 0.00959 0.0
H2559 H 0.76694 0.16554 0.03557 0.0
H2560 H 0.68531 0.16163 0.97179 0.0
H2561 H 0.6984 0.11194 0.03454 0.0
H2562 H 0.74269 0.15673 0.94295 0.0
H2563 H 0.74855 0.18196 0.96453 0.0
H2564 H 0.71846 0.17993 0.94868 0.0
H2565 H 0.75902 0.09406 0.01915 0.0
H2566 H 0.73863 0.09809 0.04612 0.0
H2567 H 0.76357 0.12035 0.03977 0.0
C2568 C 0.91148 0.97199 0.2046 0.0
C2569 C 0.93166 0.95488 0.20569 0.0
C2570 C 0.90627 0.98812 0.22502 0.0
C2571 C 0.92143 0.98678 0.24698 0.0
C2572 C 0.94039 0.96802 0.2489 0.0
C2573 C 0.94538 0.95242 0.22816 0.0
C2574 C 0.88594 0.00788 0.22223 0.0
C2575 C 0.95672 0.96563 0.27216 0.0
C2576 C 0.94016 0.04343 0.28575 0.0
C2577 C 0.92684 0.03919 0.30818 0.0
C2578 C 0.93689 0.02765 0.26482 0.0
C2579 C 0.92017 0.00686 0.26654 0.0
C2580 C 0.90518 0.00368 0.28845 0.0
C2581 C 0.90858 0.02005 0.30904 0.0
C2582 C 0.9529 0.03204 0.24163 0.0
C2583 C 0.8872 0.98175 0.29103 0.0
H2584 H 0.90088 0.97403 0.18722 0.0
H2585 H 0.96085 0.93903 0.22912 0.0
H2586 H 0.87472 0.0096 0.23982 0.0
H2587 H 0.89486 0.02648 0.2186 0.0
H2588 H 0.87299 0.00357 0.20631 0.0
H2589 H 0.96844 0.94824 0.27185 0.0
H2590 H 0.9695 0.98217 0.27346 0.0
H2591 H 0.94488 0.96542 0.28944 0.0
H2592 H 0.95416 0.05836 0.28501 0.0
H2593 H 0.89835 0.01663 0.32643 0.0
H2594 H 0.94123 0.03079 0.22429 0.0
H2595 H 0.96764 0.0172 0.24041 0.0
H2596 H 0.96238 0.05073 0.24201 0.0
H2597 H 0.87638 0.97882 0.27334 0.0
H2598 H 0.87372 0.98454 0.30685 0.0
H2599 H 0.89814 0.96426 0.2947 0.0
C2600 C 0.05243 0.45342 0.29647 0.0
C2601 C 0.03506 0.45855 0.31571 0.0
C2602 C 0.05462 0.46971 0.27559 0.0
C2603 C 0.03961 0.49185 0.2745 0.0
C2604 C 0.02332 0.49782 0.29482 0.0
C2605 C 0.02097 0.4809 0.31497 0.0
C2606 C 0.07177 0.46242 0.25405 0.0
C2607 C 0.00742 0.5215 0.29474 0.0
C2608 C 0.05116 0.54384 0.22618 0.0
C2609 C 0.03141 0.53937 0.20918 0.0
C2610 C 0.05461 0.52815 0.24735 0.0
C2611 C 0.03835 0.50722 0.25103 0.0
C2612 C 0.01915 0.50206 0.23318 0.0
C2613 C 0.01571 0.51839 0.21271 0.0
C2614 C 0.07486 0.53458 0.2663 0.0
C2615 C 0.00174 0.47965 0.23604 0.0
H2616 H 0.06329 0.43608 0.2971 0.0
H2617 H 0.00779 0.48502 0.3301 0.0
H2618 H 0.06016 0.45696 0.2375 0.0
H2619 H 0.08363 0.47866 0.24823 0.0
H2620 H 0.08428 0.44633 0.25902 0.0
H2621 H 0.99832 0.52497 0.31332 0.0
H2622 H 0.01912 0.53815 0.28977 0.0
H2623 H 0.99239 0.51983 0.28026 0.0
H2624 H 0.0633 0.56008 0.22341 0.0
H2625 H 0.00067 0.51466 0.19932 0.0
H2626 H 0.08671 0.5178 0.27035 0.0
H2627 H 0.06593 0.54036 0.28434 0.0
H2628 H 0.08724 0.55016 0.25967 0.0
H2629 H 0.01286 0.46217 0.23915 0.0
H2630 H 0.9895 0.47691 0.21924 0.0
H2631 H 0.98945 0.48234 0.25279 0.0
C2632 C 0.20957 0.91759 0.97638 0.0
C2633 C 0.21022 0.93583 0.95723 0.0
C2634 C 0.23043 0.91402 0.99239 0.0
C2635 C 0.25242 0.92879 0.98876 0.0
C2636 C 0.25387 0.94552 0.96796 0.0
C2637 C 0.23265 0.94902 0.9526 0.0
C2638 C 0.22809 0.89611 0.01441 0.0
C2639 C 0.27715 0.96124 0.96307 0.0
C2640 C 0.29192 0.95281 0.043 0.0
C2641 C 0.31386 0.93826 0.0406 0.0
C2642 C 0.27107 0.94864 0.02732 0.0
C2643 C 0.27238 0.92975 0.00844 0.0
C2644 C 0.29394 0.91402 0.00688 0.0
C2645 C 0.31443 0.91835 0.02317 0.0
C2646 C 0.24823 0.96554 0.02995 0.0
C2647 C 0.29614 0.89386 0.98689 0.0
H2648 H 0.19217 0.90748 0.98011 0.0
H2649 H 0.2332 0.96302 0.93766 0.0
H2650 H 0.2456 0.88489 0.01682 0.0
H2651 H 0.22522 0.90714 0.03199 0.0
H2652 H 0.21188 0.883 0.01213 0.0
H2653 H 0.27654 0.97061 0.94432 0.0
H2654 H 0.27878 0.97605 0.97779 0.0
H2655 H 0.29439 0.94938 0.9641 0.0
H2656 H 0.29138 0.96808 0.05662 0.0
H2657 H 0.33145 0.90716 0.02117 0.0
H2658 H 0.23069 0.9541 0.03043 0.0
H2659 H 0.24698 0.97829 0.01337 0.0
H2660 H 0.24904 0.9773 0.04729 0.0
H2661 H 0.27843 0.8828 0.9855 0.0
H2662 H 0.31206 0.88075 0.99069 0.0
H2663 H 0.29935 0.90292 0.96827 0.0
C2664 C 0.71161 0.56705 0.04295 0.0
C2665 C 0.68896 0.58046 0.04051 0.0
C2666 C 0.7319 0.57154 0.02657 0.0
C2667 C 0.72923 0.58946 0.0069 0.0
C2668 C 0.70685 0.604 0.00516 0.0
C2669 C 0.68701 0.59948 0.0222 0.0
C2670 C 0.75564 0.55599 0.02943 0.0
C2671 C 0.70313 0.62299 0.98426 0.0
C2672 C 0.7903 0.60456 0.97254 0.0
C2673 C 0.79041 0.58569 0.95399 0.0
C2674 C 0.76977 0.60712 0.98917 0.0
C2675 C 0.7488 0.59072 0.98677 0.0
C2676 C 0.74799 0.57313 0.96666 0.0
C2677 C 0.76893 0.57064 0.95069 0.0
C2678 C 0.77149 0.62591 0.0105 0.0
C2679 C 0.72574 0.55568 0.96306 0.0
H2680 H 0.71316 0.55241 0.05718 0.0
H2681 H 0.66939 0.60969 0.0201 0.0
H2682 H 0.75721 0.54254 0.01346 0.0
H2683 H 0.77256 0.56833 0.02894 0.0
H2684 H 0.75583 0.54505 0.04733 0.0
H2685 H 0.68637 0.63516 0.98759 0.0
H2686 H 0.72003 0.63517 0.98219 0.0
H2687 H 0.70047 0.61288 0.96612 0.0
H2688 H 0.80699 0.61607 0.9753 0.0
H2689 H 0.76896 0.55611 0.93627 0.0
H2690 H 0.77512 0.61568 0.02842 0.0
H2691 H 0.75344 0.63629 0.01276 0.0
H2692 H 0.78695 0.63975 0.00752 0.0
H2693 H 0.72544 0.54146 0.97844 0.0
H2694 H 0.72657 0.54555 0.94472 0.0
H2695 H 0.70777 0.56639 0.96402 0.0
C2696 C 0.28603 0.02436 0.45448 0.0
C2697 C 0.3072 0.04016 0.45484 0.0
C2698 C 0.26581 0.02835 0.47109 0.0
C2699 C 0.2672 0.04816 0.489 0.0
C2700 C 0.28817 0.06472 0.48885 0.0
C2701 C 0.30782 0.06071 0.4715 0.0
C2702 C 0.24345 0.01069 0.47017 0.0
C2703 C 0.29061 0.08567 0.508 0.0
C2704 C 0.2062 0.06386 0.52328 0.0
C2705 C 0.20761 0.04742 0.54396 0.0
C2706 C 0.22591 0.06509 0.50558 0.0
C2707 C 0.2477 0.05 0.50911 0.0
C2708 C 0.24988 0.03475 0.53098 0.0
C2709 C 0.22962 0.03335 0.54794 0.0
C2710 C 0.22262 0.08114 0.48226 0.0
C2711 C 0.27308 0.01889 0.5358 0.0
H2712 H 0.28551 0.00853 0.4415 0.0
H2713 H 0.32432 0.07279 0.47199 0.0
H2714 H 0.2432 0.99873 0.48736 0.0
H2715 H 0.22556 0.0216 0.46985 0.0
H2716 H 0.24398 0.99814 0.45338 0.0
H2717 H 0.30677 0.09836 0.50382 0.0
H2718 H 0.27308 0.09709 0.50872 0.0
H2719 H 0.29341 0.07737 0.52703 0.0
H2720 H 0.189 0.07447 0.52 0.0
H2721 H 0.23068 0.02064 0.56396 0.0
H2722 H 0.22012 0.06869 0.4656 0.0
H2723 H 0.23968 0.09277 0.47882 0.0
H2724 H 0.20596 0.0938 0.48367 0.0
H2725 H 0.27396 0.0033 0.52185 0.0
H2726 H 0.27309 0.01056 0.55505 0.0
H2727 H 0.29042 0.0304 0.53344 0.0
C2728 C 0.77048 0.45951 0.54183 0.0
C2729 C 0.79181 0.44388 0.54169 0.0
C2730 C 0.75113 0.45631 0.52405 0.0
C2731 C 0.75355 0.43749 0.5052 0.0
C2732 C 0.77469 0.42112 0.50546 0.0
C2733 C 0.79345 0.42432 0.52395 0.0
C2734 C 0.72857 0.47374 0.52485 0.0
C2735 C 0.77822 0.40123 0.48538 0.0
C2736 C 0.69392 0.423 0.46807 0.0
C2737 C 0.69577 0.44053 0.44833 0.0
C2738 C 0.71309 0.42099 0.4863 0.0
C2739 C 0.73483 0.43641 0.48427 0.0
C2740 C 0.73754 0.45276 0.46327 0.0
C2741 C 0.71779 0.45491 0.44577 0.0
C2742 C 0.70919 0.40376 0.50866 0.0
C2743 C 0.76071 0.46904 0.46002 0.0
H2744 H 0.76915 0.47459 0.55561 0.0
H2745 H 0.81008 0.41239 0.52362 0.0
H2746 H 0.72886 0.48643 0.50819 0.0
H2747 H 0.71081 0.46268 0.524 0.0
H2748 H 0.7283 0.48556 0.54217 0.0
H2749 H 0.79445 0.38859 0.48952 0.0
H2750 H 0.76094 0.38959 0.48345 0.0
H2751 H 0.78156 0.41052 0.46691 0.0
H2752 H 0.67672 0.41214 0.47031 0.0
H2753 H 0.71921 0.46848 0.4305 0.0
H2754 H 0.70596 0.41532 0.52582 0.0
H2755 H 0.72625 0.39213 0.5121 0.0
H2756 H 0.69274 0.39102 0.50605 0.0
H2757 H 0.76087 0.48401 0.47465 0.0
H2758 H 0.76134 0.47821 0.44117 0.0
H2759 H 0.77809 0.45761 0.46253 0.0
C2760 C 0.02176 0.31467 0.9185 0.0
C2761 C 0.03897 0.31407 0.93859 0.0
C2762 C 0.0056 0.29415 0.91389 0.0
C2763 C 0.0071 0.27251 0.92952 0.0
C2764 C 0.02576 0.27119 0.94862 0.0
C2765 C 0.04129 0.29208 0.95308 0.0
C2766 C 0.98581 0.29636 0.89352 0.0
C2767 C 0.02834 0.24826 0.96541 0.0
C2768 C 0.95146 0.23216 0.94797 0.0
C2769 C 0.95648 0.20986 0.93472 0.0
C2770 C 0.96661 0.25357 0.9447 0.0
C2771 C 0.98759 0.25241 0.92817 0.0
C2772 C 0.9916 0.23055 0.91332 0.0
C2773 C 0.97579 0.20951 0.91663 0.0
C2774 C 0.96132 0.27671 0.96049 0.0
C2775 C 0.01383 0.22853 0.89563 0.0
H2776 H 0.01982 0.33174 0.90737 0.0
H2777 H 0.05476 0.29153 0.96849 0.0
H2778 H 0.98466 0.27872 0.88232 0.0
H2779 H 0.96708 0.29939 0.90239 0.0
H2780 H 0.98966 0.31239 0.88055 0.0
H2781 H 0.04552 0.24912 0.97741 0.0
H2782 H 0.0116 0.24682 0.97793 0.0
H2783 H 0.0291 0.23081 0.95387 0.0
H2784 H 0.93639 0.23247 0.96184 0.0
H2785 H 0.97981 0.1922 0.90648 0.0
H2786 H 0.96237 0.29402 0.94875 0.0
H2787 H 0.97582 0.27836 0.97551 0.0
H2788 H 0.94244 0.27589 0.9696 0.0
H2789 H 0.0162 0.24614 0.88456 0.0
H2790 H 0.01183 0.2124 0.88238 0.0
H2791 H 0.03131 0.22573 0.90682 0.0
C2792 C 0.02985 0.69107 0.60472 0.0
C2793 C 0.0465 0.69114 0.58414 0.0
C2794 C 0.01303 0.71122 0.6086 0.0
C2795 C 0.01336 0.732 0.59179 0.0
C2796 C 0.03166 0.73302 0.57231 0.0
C2797 C 0.04779 0.71241 0.56852 0.0
C2798 C 0.9936 0.70925 0.62934 0.0
C2799 C 0.03308 0.75513 0.55435 0.0
C2800 C 0.95497 0.76813 0.57257 0.0
C2801 C 0.95844 0.79106 0.58522 0.0
C2802 C 0.97172 0.74798 0.57616 0.0
C2803 C 0.99282 0.75113 0.59228 0.0
C2804 C 0.99555 0.77373 0.60628 0.0
C2805 C 0.9781 0.7934 0.60277 0.0
C2806 C 0.96775 0.72395 0.56134 0.0
C2807 C 0.01797 0.77796 0.62334 0.0
H2808 H 0.02864 0.67449 0.61666 0.0
H2809 H 0.06074 0.71247 0.55266 0.0
H2810 H 0.99178 0.72739 0.63961 0.0
H2811 H 0.97492 0.70493 0.6209 0.0
H2812 H 0.99832 0.69411 0.64308 0.0
H2813 H 0.05036 0.75455 0.54248 0.0
H2814 H 0.01638 0.75497 0.5417 0.0
H2815 H 0.03279 0.7732 0.56493 0.0
H2816 H 0.93971 0.76634 0.55904 0.0
H2817 H 0.98098 0.81126 0.61234 0.0
H2818 H 0.96986 0.70724 0.57378 0.0
H2819 H 0.98228 0.7225 0.54631 0.0
H2820 H 0.94883 0.72329 0.55232 0.0
H2821 H 0.02156 0.76113 0.63526 0.0
H2822 H 0.01531 0.79463 0.63577 0.0
H2823 H 0.03505 0.7811 0.61162 0.0
C2824 C 0.54729 0.76891 0.45499 0.0
C2825 C 0.54612 0.79107 0.44064 0.0
C2826 C 0.52882 0.75013 0.45249 0.0
C2827 C 0.50825 0.75401 0.43584 0.0
C2828 C 0.50745 0.776 0.42066 0.0
C2829 C 0.52663 0.79416 0.42301 0.0
C2830 C 0.53076 0.72662 0.46852 0.0
C2831 C 0.48554 0.78113 0.40318 0.0
C2832 C 0.46775 0.69646 0.42219 0.0
C2833 C 0.44996 0.69795 0.44173 0.0
C2834 C 0.48638 0.71511 0.41935 0.0
C2835 C 0.48672 0.73597 0.43604 0.0
C2836 C 0.46765 0.7384 0.45464 0.0
C2837 C 0.44973 0.71912 0.45753 0.0
C2838 C 0.50671 0.71151 0.3997 0.0
C2839 C 0.46692 0.7607 0.47237 0.0
H2840 H 0.56238 0.76655 0.46862 0.0
H2841 H 0.52551 0.8115 0.41218 0.0
H2842 H 0.51563 0.72669 0.483 0.0
H2843 H 0.52808 0.70952 0.45672 0.0
H2844 H 0.54926 0.7252 0.47829 0.0
H2845 H 0.48892 0.79783 0.39095 0.0
H2846 H 0.48178 0.76452 0.39102 0.0
H2847 H 0.46827 0.78458 0.41452 0.0
H2848 H 0.46819 0.67988 0.41021 0.0
H2849 H 0.43597 0.72024 0.47264 0.0
H2850 H 0.52487 0.70723 0.40923 0.0
H2851 H 0.50948 0.72905 0.38863 0.0
H2852 H 0.50227 0.69583 0.38652 0.0
H2853 H 0.48307 0.75962 0.48566 0.0
H2854 H 0.44918 0.76133 0.48354 0.0
H2855 H 0.46877 0.7786 0.46165 0.0
C2856 C 0.45605 0.54144 0.76512 0.0
C2857 C 0.44084 0.54253 0.78673 0.0
C2858 C 0.45168 0.52336 0.74631 0.0
C2859 C 0.43201 0.50553 0.74949 0.0
C2860 C 0.41591 0.50722 0.77076 0.0
C2861 C 0.42036 0.52592 0.78904 0.0
C2862 C 0.46893 0.5226 0.7236 0.0
C2863 C 0.39504 0.48831 0.77505 0.0
C2864 C 0.41653 0.46716 0.691 0.0
C2865 C 0.43347 0.44698 0.69355 0.0
C2866 C 0.41481 0.48588 0.7097 0.0
C2867 C 0.42997 0.48395 0.73163 0.0
C2868 C 0.44552 0.46247 0.73516 0.0
C2869 C 0.44736 0.44443 0.71589 0.0
C2870 C 0.39838 0.50868 0.70499 0.0
C2871 C 0.46151 0.45936 0.75854 0.0
H2872 H 0.47182 0.55435 0.76325 0.0
H2873 H 0.40872 0.52654 0.80586 0.0
H2874 H 0.4809 0.50543 0.72441 0.0
H2875 H 0.45769 0.5216 0.70595 0.0
H2876 H 0.48148 0.53937 0.72262 0.0
H2877 H 0.38247 0.49387 0.79089 0.0
H2878 H 0.38348 0.48602 0.75775 0.0
H2879 H 0.40343 0.46962 0.77947 0.0
H2880 H 0.40606 0.46937 0.67355 0.0
H2881 H 0.46048 0.42882 0.71784 0.0
H2882 H 0.41054 0.52518 0.70071 0.0
H2883 H 0.38718 0.51342 0.72203 0.0
H2884 H 0.38528 0.50575 0.68888 0.0
H2885 H 0.47713 0.47331 0.75825 0.0
H2886 H 0.46983 0.44016 0.75991 0.0
H2887 H 0.45013 0.46301 0.77574 0.0
C2888 C 0.56819 0.94534 0.76623 0.0
C2889 C 0.58212 0.9512 0.78791 0.0
C2890 C 0.56953 0.96063 0.7447 0.0
C2891 C 0.58464 0.98267 0.74517 0.0
C2892 C 0.60014 0.98765 0.76638 0.0
C2893 C 0.59889 0.97163 0.78748 0.0
C2894 C 0.55321 0.95426 0.72222 0.0
C2895 C 0.61624 0.01111 0.76776 0.0
C2896 C 0.59085 0.01891 0.68351 0.0
C2897 C 0.57007 0.03523 0.68508 0.0
C2898 C 0.59645 0.0021 0.70327 0.0
C2899 C 0.58118 0.0021 0.72521 0.0
C2900 C 0.56104 0.01957 0.72738 0.0
C2901 C 0.55555 0.0357 0.70717 0.0
C2902 C 0.61776 0.98346 0.70008 0.0
C2903 C 0.54462 0.02057 0.7507 0.0
H2904 H 0.55526 0.92947 0.76658 0.0
H2905 H 0.60947 0.97633 0.80435 0.0
H2906 H 0.53699 0.96749 0.7214 0.0
H2907 H 0.56403 0.9564 0.70441 0.0
H2908 H 0.54572 0.9347 0.72326 0.0
H2909 H 0.63008 0.01018 0.78349 0.0
H2910 H 0.62659 0.01415 0.74982 0.0
H2911 H 0.6039 0.02776 0.77079 0.0
H2912 H 0.60199 0.01838 0.66634 0.0
H2913 H 0.5396 0.04847 0.70848 0.0
H2914 H 0.60985 0.96419 0.69787 0.0
H2915 H 0.62999 0.98324 0.71706 0.0
H2916 H 0.62957 0.98777 0.68329 0.0
H2917 H 0.53346 0.00291 0.75224 0.0
H2918 H 0.53132 0.03678 0.75035 0.0
H2919 H 0.55649 0.022 0.76789 0.0
C2920 C 0.45775 0.29075 0.01547 0.0
C2921 C 0.45896 0.31185 0.03131 0.0
C2922 C 0.47429 0.27036 0.01875 0.0
C2923 C 0.493 0.2715 0.03782 0.0
C2924 C 0.494 0.2926 0.05418 0.0
C2925 C 0.47668 0.31242 0.05095 0.0
C2926 C 0.47217 0.24789 0.00132 0.0
C2927 C 0.51409 0.2948 0.07427 0.0
C2928 C 0.52524 0.20947 0.05364 0.0
C2929 C 0.54539 0.20969 0.03651 0.0
C2930 C 0.50842 0.22993 0.05502 0.0
C2931 C 0.51238 0.25126 0.0394 0.0
C2932 C 0.53378 0.25223 0.02341 0.0
C2933 C 0.54981 0.23123 0.02185 0.0
C2934 C 0.48552 0.22794 0.07186 0.0
C2935 C 0.53908 0.27492 0.00699 0.0
H2936 H 0.44393 0.29027 0.00037 0.0
H2937 H 0.47777 0.32889 0.06304 0.0
H2938 H 0.48909 0.24686 0.98902 0.0
H2939 H 0.47143 0.23015 0.01244 0.0
H2940 H 0.45515 0.2489 0.98912 0.0
H2941 H 0.51124 0.31158 0.08651 0.0
H2942 H 0.51435 0.27766 0.08629 0.0
H2943 H 0.5329 0.29628 0.06517 0.0
H2944 H 0.52166 0.19266 0.06476 0.0
H2945 H 0.56548 0.23139 0.00866 0.0
H2946 H 0.46833 0.2262 0.06 0.0
H2947 H 0.48334 0.24523 0.08345 0.0
H2948 H 0.48651 0.21133 0.08463 0.0
H2949 H 0.52477 0.27608 0.99175 0.0
H2950 H 0.55809 0.27401 0.99816 0.0
H2951 H 0.53772 0.29254 0.01823 0.0
loop_
_geom_bond_atom_site_label_1
_geom_bond_atom_site_label_2
_geom_bond_distance
_geom_bond_site_symmetry_2
_ccdc_geom_bond_type
Co0 O2 2.162 . S
Co0 O8 2.074 . S
Co0 O11 2.093 . S
Co0 O24 2.097 1_455 S
Co0 N41 2.151 . S
Co0 N49 2.214 . S
Co1 O2 2.141 1_655 S
Co1 O7 2.058 1_655 S
Co1 O17 2.057 . S
Co1 O32 2.037 . S
Co1 N36 2.145 . S
Co1 N57 2.257 . S
O2 Co0 2.162 . S
O2 Co1 2.141 1_455 S
C3 O4 1.278 . S
C3 O11 1.224 1_655 S
O4 C3 1.278 . S
C5 O6 1.237 1_655 S
C5 O17 1.238 . S
O6 C5 1.237 1_455 S
O7 Co1 2.058 1_455 S
O7 C33 1.269 . S
O8 Co0 2.074 . S
O8 C33 1.257 . S
H9 C34 0.930 . S
H10 C40 0.930 . S
O11 Co0 2.093 . S
O11 C3 1.224 1_455 S
H12 C44 0.929 . S
H13 C46 0.930 . S
H14 C47 0.919 1_545 S
H15 C45 0.929 . S
H16 C48 0.928 1_545 S
O17 Co1 2.057 . S
O17 C5 1.238 . S
H18 C37 0.929 . S
H19 C38 0.929 . S
H20 C50 0.931 . S
H21 C42 0.929 . S
H22 C51 0.930 . S
H23 C43 0.931 . S
O24 Co0 2.097 1_655 S
O24 C52 1.214 . S
H25 C53 0.929 . S
H26 C54 0.929 . S
H27 C55 0.930 . S
H28 C56 0.929 . S
H29 C58 0.930 . S
H30 C35 0.930 . S
H31 C39 0.930 . S
O32 Co1 2.037 . S
O32 C52 1.234 . S
C33 O7 1.269 . S
C33 O8 1.257 . S
C34 H9 0.930 . S
C34 C37 1.388 . S
C34 C39 1.418 . S
C35 H30 0.930 . S
C35 C38 1.404 . S
C35 C39 1.353 . S
N36 Co1 2.145 . S
N36 C37 1.397 . S
N36 C38 1.334 . S
C37 H18 0.929 . S
C37 C34 1.388 . S
C37 N36 1.397 . S
C38 H19 0.929 . S
C38 C35 1.404 . S
C38 N36 1.334 . S
C39 H31 0.930 . S
C39 C34 1.418 . S
C39 C35 1.353 . S
C40 H10 0.930 . S
C40 N41 1.330 . S
C40 C42 1.446 . S
N41 Co0 2.151 . S
N41 C40 1.330 . S
N41 C45 1.418 . S
C42 H21 0.929 . S
C42 C40 1.446 . S
C42 C43 1.332 . S
C43 H23 0.931 . S
C43 C42 1.332 . S
C43 C44 1.267 . S
C44 H12 0.929 . S
C44 C43 1.267 . S
C44 C45 1.251 . S
C45 H15 0.929 . S
C45 N41 1.418 . S
C45 C44 1.251 . S
C46 H13 0.930 . S
C46 C48 1.406 . S
C46 C51 1.261 . S
C47 H14 0.919 1_565 S
C47 N49 1.313 1_565 S
C47 C50 1.380 . S
C48 H16 0.928 1_565 S
C48 C46 1.406 . S
C48 N49 1.261 1_565 S
N49 Co0 2.214 . S
N49 C47 1.313 1_545 S
N49 C48 1.261 1_545 S
C50 H20 0.931 . S
C50 C47 1.380 . S
C50 C51 1.312 . S
C51 H22 0.930 . S
C51 C46 1.261 . S
C51 C50 1.312 . S
C52 O24 1.214 . S
C52 O32 1.234 . S
C53 H25 0.929 . S
C53 C56 1.391 . S
C53 C58 1.391 . S
C54 H26 0.929 . S
C54 C55 1.390 . S
C54 N57 1.391 . S
C55 H27 0.930 . S
C55 C54 1.390 . S
C55 C56 1.392 . S
C56 H28 0.929 . S
C56 C53 1.391 . S
C56 C55 1.392 . S
N57 Co1 2.257 . S
N57 C54 1.391 . S
N57 C58 1.388 . S
C58 H29 0.930 . S
C58 C53 1.391 . S
C58 N57 1.388 . S
Co59 O61 2.162 . S
Co59 O67 2.074 . S
Co59 O70 2.093 . S
Co59 O83 2.097 1_655 S
Co59 N100 2.151 . S
Co59 N108 2.214 . S
Co60 O61 2.141 1_455 S
Co60 O66 2.058 1_455 S
Co60 O76 2.057 . S
Co60 O91 2.037 . S
Co60 N95 2.145 . S
Co60 N116 2.257 . S
O61 Co59 2.162 . S
O61 Co60 2.141 1_655 S
C62 O63 1.278 . S
C62 O70 1.224 1_455 S
O63 C62 1.278 . S
C64 O65 1.245 1_455 S
C64 O76 1.232 . S
O65 C64 1.245 1_655 S
O66 Co60 2.058 1_655 S
O66 C92 1.269 . S
O67 Co59 2.074 . S
O67 C92 1.257 . S
H68 C93 0.930 . S
H69 C99 0.930 . S
O70 Co59 2.093 . S
O70 C62 1.224 1_655 S
H71 C103 0.929 . S
H72 C105 0.930 . S
H73 C106 0.930 . S
H74 C104 0.929 . S
H75 C107 0.928 . S
O76 Co60 2.057 . S
O76 C64 1.232 . S
H77 C96 0.929 . S
H78 C97 0.929 . S
H79 C109 0.931 . S
H80 C101 0.929 . S
H81 C110 0.930 . S
H82 C102 0.931 . S
O83 Co59 2.097 1_455 S
O83 C111 1.214 . S
H84 C112 0.929 . S
H85 C113 0.929 . S
H86 C114 0.930 . S
H87 C115 0.929 . S
H88 C117 0.930 . S
H89 C94 0.930 . S
H90 C98 0.930 . S
O91 Co60 2.037 . S
O91 C111 1.234 . S
C92 O66 1.269 . S
C92 O67 1.257 . S
C93 H68 0.930 . S
C93 C96 1.388 . S
C93 C98 1.418 . S
C94 H89 0.930 . S
C94 C97 1.404 . S
C94 C98 1.353 . S
N95 Co60 2.145 . S
N95 C96 1.397 . S
N95 C97 1.334 . S
C96 H77 0.929 . S
C96 C93 1.388 . S
C96 N95 1.397 . S
C97 H78 0.929 . S
C97 C94 1.404 . S
C97 N95 1.334 . S
C98 H90 0.930 . S
C98 C93 1.418 . S
C98 C94 1.353 . S
C99 H69 0.930 . S
C99 N100 1.330 . S
C99 C101 1.446 . S
N100 Co59 2.151 . S
N100 C99 1.330 . S
N100 C104 1.418 . S
C101 H80 0.929 . S
C101 C99 1.446 . S
C101 C102 1.332 . S
C102 H82 0.931 . S
C102 C101 1.332 . S
C102 C103 1.267 . S
C103 H71 0.929 . S
C103 C102 1.267 . S
C103 C104 1.251 . S
C104 H74 0.929 . S
C104 N100 1.418 . S
C104 C103 1.251 . S
C105 H72 0.930 . S
C105 C107 1.406 . S
C105 C110 1.261 . S
C106 H73 0.930 . S
C106 N108 1.325 . S
C106 C109 1.357 . S
C107 H75 0.928 . S
C107 C105 1.406 . S
C107 N108 1.261 . S
N108 Co59 2.214 . S
N108 C106 1.325 . S
N108 C107 1.261 . S
C109 H79 0.931 . S
C109 C106 1.357 . S
C109 C110 1.312 . S
C110 H81 0.930 . S
C110 C105 1.261 . S
C110 C109 1.312 . S
C111 O83 1.214 . S
C111 O91 1.234 . S
C112 H84 0.929 . S
C112 C115 1.391 . S
C112 C117 1.391 . S
C113 H85 0.929 . S
C113 C114 1.390 . S
C113 N116 1.391 . S
C114 H86 0.930 . S
C114 C113 1.390 . S
C114 C115 1.392 . S
C115 H87 0.929 . S
C115 C112 1.391 . S
C115 C114 1.392 . S
N116 Co60 2.257 . S
N116 C113 1.391 . S
N116 C117 1.388 . S
C117 H88 0.930 . S
C117 C112 1.391 . S
C117 N116 1.388 . S
Co118 O120 2.143 . S
Co118 O126 2.074 . S
Co118 O129 2.093 . S
Co118 O142 2.097 1_455 S
Co118 N159 2.151 . S
Co118 N167 2.214 . S
Co119 O120 2.160 1_655 S
Co119 O125 2.058 1_655 S
Co119 O135 2.057 . S
Co119 O150 2.037 . S
Co119 N154 2.145 . S
Co119 N175 2.257 . S
O120 Co118 2.143 . S
O120 Co119 2.160 1_455 S
C121 O122 1.278 . S
C121 O129 1.224 1_655 S
O122 C121 1.278 . S
C123 O124 1.245 1_655 S
C123 O135 1.232 . S
O124 C123 1.245 1_455 S
O125 Co119 2.058 1_455 S
O125 C151 1.269 . S
O126 Co118 2.074 . S
O126 C151 1.257 . S
H127 C152 0.930 . S
H128 C158 0.930 . S
O129 Co118 2.093 . S
O129 C121 1.224 1_455 S
H130 C162 0.929 . S
H131 C164 0.930 . S
H132 C165 0.930 . S
H133 C163 0.929 . S
H134 C166 0.928 . S
O135 Co119 2.057 . S
O135 C123 1.232 . S
H136 C155 0.929 . S
H137 C156 0.929 . S
H138 C168 0.931 . S
H139 C160 0.929 . S
H140 C169 0.930 . S
H141 C161 0.931 . S
O142 Co118 2.097 1_655 S
O142 C170 1.214 . S
H143 C171 0.929 . S
H144 C172 0.929 . S
H145 C173 0.930 . S
H146 C174 0.929 . S
H147 C176 0.930 . S
H148 C153 0.930 . S
H149 C157 0.930 . S
O150 Co119 2.037 . S
O150 C170 1.234 . S
C151 O125 1.269 . S
C151 O126 1.257 . S
C152 H127 0.930 . S
C152 C155 1.388 . S
C152 C157 1.418 . S
C153 H148 0.930 . S
C153 C156 1.404 . S
C153 C157 1.353 . S
N154 Co119 2.145 . S
N154 C155 1.397 . S
N154 C156 1.334 . S
C155 H136 0.929 . S
C155 C152 1.388 . S
C155 N154 1.397 . S
C156 H137 0.929 . S
C156 C153 1.404 . S
C156 N154 1.334 . S
C157 H149 0.930 . S
C157 C152 1.418 . S
C157 C153 1.353 . S
C158 H128 0.930 . S
C158 N159 1.330 . S
C158 C160 1.446 . S
N159 Co118 2.151 . S
N159 C158 1.330 . S
N159 C163 1.418 . S
C160 H139 0.929 . S
C160 C158 1.446 . S
C160 C161 1.332 . S
C161 H141 0.931 . S
C161 C160 1.332 . S
C161 C162 1.267 . S
C162 H130 0.929 . S
C162 C161 1.267 . S
C162 C163 1.251 . S
C163 H133 0.929 . S
C163 N159 1.418 . S
C163 C162 1.251 . S
C164 H131 0.930 . S
C164 C166 1.406 1_545 S
C164 C169 1.261 . S
C165 H132 0.930 . S
C165 N167 1.325 . S
C165 C168 1.357 1_565 S
C166 H134 0.928 . S
C166 C164 1.406 1_565 S
C166 N167 1.261 . S
N167 Co118 2.214 . S
N167 C165 1.325 . S
N167 C166 1.261 . S
C168 H138 0.931 . S
C168 C165 1.357 1_545 S
C168 C169 1.312 . S
C169 H140 0.930 . S
C169 C164 1.261 . S
C169 C168 1.312 . S
C170 O142 1.214 . S
C170 O150 1.234 . S
C171 H143 0.929 . S
C171 C174 1.391 . S
C171 C176 1.391 . S
C172 H144 0.929 . S
C172 C173 1.390 . S
C172 N175 1.391 . S
C173 H145 0.930 . S
C173 C172 1.390 . S
C173 C174 1.392 . S
C174 H146 0.929 . S
C174 C171 1.391 . S
C174 C173 1.392 . S
N175 Co119 2.257 . S
N175 C172 1.391 . S
N175 C176 1.388 . S
C176 H147 0.930 . S
C176 C171 1.391 . S
C176 N175 1.388 . S
Co177 O179 2.143 . S
Co177 O185 2.074 . S
Co177 O188 2.093 . S
Co177 O201 2.097 1_655 S
Co177 N218 2.151 . S
Co177 N226 2.214 . S
Co178 O179 2.160 1_455 S
Co178 O184 2.058 1_455 S
Co178 O194 2.057 . S
Co178 O209 2.037 . S
Co178 N213 2.145 . S
Co178 N234 2.257 . S
O179 Co177 2.143 . S
O179 Co178 2.160 1_655 S
C180 O181 1.278 . S
C180 O188 1.224 1_455 S
O181 C180 1.278 . S
C182 O183 1.245 1_455 S
C182 O194 1.232 . S
O183 C182 1.245 1_655 S
O184 Co178 2.058 1_655 S
O184 C210 1.269 . S
O185 Co177 2.074 . S
O185 C210 1.257 . S
H186 C211 0.930 . S
H187 C217 0.930 . S
O188 Co177 2.093 . S
O188 C180 1.224 1_655 S
H189 C221 0.929 . S
H190 C223 0.930 . S
H191 C224 0.930 . S
H192 C222 0.929 . S
H193 C225 0.928 . S
O194 Co178 2.057 . S
O194 C182 1.232 . S
H195 C214 0.929 . S
H196 C215 0.929 . S
H197 C227 0.931 . S
H198 C219 0.929 . S
H199 C228 0.930 . S
H200 C220 0.931 . S
O201 Co177 2.097 1_455 S
O201 C229 1.214 . S
H202 C230 0.929 . S
H203 C231 0.929 . S
H204 C232 0.930 . S
H205 C233 0.929 . S
H206 C235 0.930 . S
H207 C212 0.930 . S
H208 C216 0.930 . S
O209 Co178 2.037 . S
O209 C229 1.234 . S
C210 O184 1.269 . S
C210 O185 1.257 . S
C211 H186 0.930 . S
C211 C214 1.388 . S
C211 C216 1.418 . S
C212 H207 0.930 . S
C212 C215 1.404 . S
C212 C216 1.353 . S
N213 Co178 2.145 . S
N213 C214 1.397 . S
N213 C215 1.334 . S
C214 H195 0.929 . S
C214 C211 1.388 . S
C214 N213 1.397 . S
C215 H196 0.929 . S
C215 C212 1.404 . S
C215 N213 1.334 . S
C216 H208 0.930 . S
C216 C211 1.418 . S
C216 C212 1.353 . S
C217 H187 0.930 . S
C217 N218 1.330 . S
C217 C219 1.446 . S
N218 Co177 2.151 . S
N218 C217 1.330 . S
N218 C222 1.418 . S
C219 H198 0.929 . S
C219 C217 1.446 . S
C219 C220 1.332 . S
C220 H200 0.931 . S
C220 C219 1.332 . S
C220 C221 1.267 . S
C221 H189 0.929 . S
C221 C220 1.267 . S
C221 C222 1.251 . S
C222 H192 0.929 . S
C222 N218 1.418 . S
C222 C221 1.251 . S
C223 H190 0.930 . S
C223 C225 1.406 . S
C223 C228 1.261 . S
C224 H191 0.930 . S
C224 N226 1.325 . S
C224 C227 1.357 . S
C225 H193 0.928 . S
C225 C223 1.406 . S
C225 N226 1.261 . S
N226 Co177 2.214 . S
N226 C224 1.325 . S
N226 C225 1.261 . S
C227 H197 0.931 . S
C227 C224 1.357 . S
C227 C228 1.312 . S
C228 H199 0.930 . S
C228 C223 1.261 . S
C228 C227 1.312 . S
C229 O201 1.214 . S
C229 O209 1.234 . S
C230 H202 0.929 . S
C230 C233 1.391 . S
C230 C235 1.391 . S
C231 H203 0.929 . S
C231 C232 1.390 . S
C231 N234 1.391 . S
C232 H204 0.930 . S
C232 C231 1.390 . S
C232 C233 1.392 . S
C233 H205 0.929 . S
C233 C230 1.391 . S
C233 C232 1.392 . S
N234 Co178 2.257 . S
N234 C231 1.391 . S
N234 C235 1.388 . S
C235 H206 0.930 . S
C235 C230 1.391 . S
C235 N234 1.388 . S
Co236 O238 2.162 . S
Co236 O244 2.074 . S
Co236 O247 2.093 . S
Co236 O260 2.097 1_545 S
Co236 N277 2.151 . S
Co236 N285 2.214 . S
Co237 O238 2.141 1_565 S
Co237 O243 2.058 1_565 S
Co237 O253 2.057 . S
Co237 O268 2.037 . S
Co237 N272 2.145 . S
Co237 N293 2.257 . S
O238 Co236 2.162 . S
O238 Co237 2.141 1_545 S
C239 O240 1.278 . S
C239 O247 1.224 1_565 S
O240 C239 1.278 . S
C241 O242 1.237 1_565 S
C241 O253 1.238 . S
O242 C241 1.237 1_545 S
O243 Co237 2.058 1_545 S
O243 C269 1.269 . S
O244 Co236 2.074 . S
O244 C269 1.257 . S
H245 C270 0.930 . S
H246 C276 0.930 . S
O247 Co236 2.093 . S
O247 C239 1.224 1_545 S
H248 C280 0.929 . S
H249 C282 0.930 . S
H250 C283 0.919 1_554 S
H251 C281 0.929 . S
H252 C284 0.928 1_554 S
O253 Co237 2.057 . S
O253 C241 1.238 . S
H254 C273 0.929 . S
H255 C274 0.929 . S
H256 C286 0.931 . S
H257 C278 0.929 . S
H258 C287 0.930 . S
H259 C279 0.931 . S
O260 Co236 2.097 1_565 S
O260 C288 1.214 . S
H261 C289 0.929 . S
H262 C290 0.929 . S
H263 C291 0.930 . S
H264 C292 0.929 . S
H265 C294 0.930 . S
H266 C271 0.930 . S
H267 C275 0.930 . S
O268 Co237 2.037 . S
O268 C288 1.234 . S
C269 O243 1.269 . S
C269 O244 1.257 . S
C270 H245 0.930 . S
C270 C273 1.388 . S
C270 C275 1.418 . S
C271 H266 0.930 . S
C271 C274 1.404 . S
C271 C275 1.353 . S
N272 Co237 2.145 . S
N272 C273 1.397 . S
N272 C274 1.334 . S
C273 H254 0.929 . S
C273 C270 1.388 . S
C273 N272 1.397 . S
C274 H255 0.929 . S
C274 C271 1.404 . S
C274 N272 1.334 . S
C275 H267 0.930 . S
C275 C270 1.418 . S
C275 C271 1.353 . S
C276 H246 0.930 . S
C276 N277 1.330 . S
C276 C278 1.446 . S
N277 Co236 2.151 . S
N277 C276 1.330 . S
N277 C281 1.418 . S
C278 H257 0.929 . S
C278 C276 1.446 . S
C278 C279 1.332 . S
C279 H259 0.931 . S
C279 C278 1.332 . S
C279 C280 1.267 . S
C280 H248 0.929 . S
C280 C279 1.267 . S
C280 C281 1.251 . S
C281 H251 0.929 . S
C281 N277 1.418 . S
C281 C280 1.251 . S
C282 H249 0.930 . S
C282 C284 1.406 . S
C282 C287 1.261 . S
C283 H250 0.919 1_556 S
C283 N285 1.313 1_556 S
C283 C286 1.380 . S
C284 H252 0.928 1_556 S
C284 C282 1.406 . S
C284 N285 1.261 1_556 S
N285 Co236 2.214 . S
N285 C283 1.313 1_554 S
N285 C284 1.261 1_554 S
C286 H256 0.931 . S
C286 C283 1.380 . S
C286 C287 1.312 . S
C287 H258 0.930 . S
C287 C282 1.261 . S
C287 C286 1.312 . S
C288 O260 1.214 . S
C288 O268 1.234 . S
C289 H261 0.929 . S
C289 C292 1.391 . S
C289 C294 1.391 . S
C290 H262 0.929 . S
C290 C291 1.390 . S
C290 N293 1.391 . S
C291 H263 0.930 . S
C291 C290 1.390 . S
C291 C292 1.392 . S
C292 H264 0.929 . S
C292 C289 1.391 . S
C292 C291 1.392 . S
N293 Co237 2.257 . S
N293 C290 1.391 . S
N293 C294 1.388 . S
C294 H265 0.930 . S
C294 C289 1.391 . S
C294 N293 1.388 . S
Co295 O297 2.143 . S
Co295 O303 2.074 . S
Co295 O306 2.093 . S
Co295 O319 2.097 . S
Co295 N336 2.151 . S
Co295 N344 2.214 . S
Co296 O297 2.160 . S
Co296 O302 2.058 . S
Co296 O312 2.057 . S
Co296 O327 2.037 . S
Co296 N331 2.145 . S
Co296 N352 2.257 . S
O297 Co295 2.143 . S
O297 Co296 2.160 . S
C298 O299 1.278 . S
C298 O306 1.224 . S
O299 C298 1.278 . S
C300 O301 1.245 . S
C300 O312 1.232 . S
O301 C300 1.245 . S
O302 Co296 2.058 . S
O302 C328 1.269 . S
O303 Co295 2.074 . S
O303 C328 1.257 . S
H304 C329 0.930 . S
H305 C335 0.930 . S
O306 Co295 2.093 . S
O306 C298 1.224 . S
H307 C339 0.929 . S
H308 C341 0.930 . S
H309 C342 0.930 . S
H310 C340 0.929 . S
H311 C343 0.929 1_554 S
O312 Co296 2.057 . S
O312 C300 1.232 . S
H313 C332 0.929 . S
H314 C333 0.929 . S
H315 C345 0.931 . S
H316 C337 0.929 . S
H317 C346 0.930 . S
H318 C338 0.931 . S
O319 Co295 2.097 . S
O319 C347 1.214 . S
H320 C348 0.929 . S
H321 C349 0.929 . S
H322 C350 0.930 . S
H323 C351 0.929 . S
H324 C353 0.930 . S
H325 C330 0.930 . S
H326 C334 0.930 . S
O327 Co296 2.037 . S
O327 C347 1.234 . S
C328 O302 1.269 . S
C328 O303 1.257 . S
C329 H304 0.930 . S
C329 C332 1.388 . S
C329 C334 1.418 . S
C330 H325 0.930 . S
C330 C333 1.404 . S
C330 C334 1.353 . S
N331 Co296 2.145 . S
N331 C332 1.397 . S
N331 C333 1.334 . S
C332 H313 0.929 . S
C332 C329 1.388 . S
C332 N331 1.397 . S
C333 H314 0.929 . S
C333 C330 1.404 . S
C333 N331 1.334 . S
C334 H326 0.930 . S
C334 C329 1.418 . S
C334 C330 1.353 . S
C335 H305 0.930 . S
C335 N336 1.330 . S
C335 C337 1.446 . S
N336 Co295 2.151 . S
N336 C335 1.330 . S
N336 C340 1.418 . S
C337 H316 0.929 . S
C337 C335 1.446 . S
C337 C338 1.332 . S
C338 H318 0.931 . S
C338 C337 1.332 . S
C338 C339 1.267 . S
C339 H307 0.929 . S
C339 C338 1.267 . S
C339 C340 1.251 . S
C340 H310 0.929 . S
C340 N336 1.418 . S
C340 C339 1.251 . S
C341 H308 0.930 . S
C341 C343 1.403 . S
C341 C346 1.261 . S
C342 H309 0.930 . S
C342 N344 1.325 . S
C342 C345 1.357 1_554 S
C343 H311 0.929 1_556 S
C343 C341 1.403 . S
C343 N344 1.263 1_556 S
N344 Co295 2.214 . S
N344 C342 1.325 . S
N344 C343 1.263 1_554 S
C345 H315 0.931 . S
C345 C342 1.357 1_556 S
C345 C346 1.312 . S
C346 H317 0.930 . S
C346 C341 1.261 . S
C346 C345 1.312 . S
C347 O319 1.214 . S
C347 O327 1.234 . S
C348 H320 0.929 . S
C348 C351 1.391 . S
C348 C353 1.391 . S
C349 H321 0.929 . S
C349 C350 1.390 . S
C349 N352 1.391 . S
C350 H322 0.930 . S
C350 C349 1.390 . S
C350 C351 1.392 . S
C351 H323 0.929 . S
C351 C348 1.391 . S
C351 C350 1.392 . S
N352 Co296 2.257 . S
N352 C349 1.391 . S
N352 C353 1.388 . S
C353 H324 0.930 . S
C353 C348 1.391 . S
C353 N352 1.388 . S
Co354 O356 2.162 . S
Co354 O362 2.074 . S
Co354 O365 2.093 . S
Co354 O378 2.097 1_565 S
Co354 N395 2.151 . S
Co354 N403 2.214 . S
Co355 O356 2.141 1_545 S
Co355 O361 2.058 1_545 S
Co355 O371 2.057 . S
Co355 O386 2.037 . S
Co355 N390 2.145 . S
Co355 N411 2.257 . S
O356 Co354 2.162 . S
O356 Co355 2.141 1_565 S
C357 O358 1.278 . S
C357 O365 1.224 1_545 S
O358 C357 1.278 . S
C359 O360 1.245 1_545 S
C359 O371 1.232 . S
O360 C359 1.245 1_565 S
O361 Co355 2.058 1_565 S
O361 C387 1.269 . S
O362 Co354 2.074 . S
O362 C387 1.257 . S
H363 C388 0.930 . S
H364 C394 0.930 . S
O365 Co354 2.093 . S
O365 C357 1.224 1_565 S
H366 C398 0.929 . S
H367 C400 0.930 . S
H368 C401 0.930 . S
H369 C399 0.929 . S
H370 C402 0.928 . S
O371 Co355 2.057 . S
O371 C359 1.232 . S
H372 C391 0.929 . S
H373 C392 0.929 . S
H374 C404 0.931 . S
H375 C396 0.929 . S
H376 C405 0.930 . S
H377 C397 0.931 . S
O378 Co354 2.097 1_545 S
O378 C406 1.214 . S
H379 C407 0.929 . S
H380 C408 0.929 . S
H381 C409 0.930 . S
H382 C410 0.929 . S
H383 C412 0.930 . S
H384 C389 0.930 . S
H385 C393 0.930 . S
O386 Co355 2.037 . S
O386 C406 1.234 . S
C387 O361 1.269 . S
C387 O362 1.257 . S
C388 H363 0.930 . S
C388 C391 1.388 . S
C388 C393 1.418 . S
C389 H384 0.930 . S
C389 C392 1.404 . S
C389 C393 1.353 . S
N390 Co355 2.145 . S
N390 C391 1.397 . S
N390 C392 1.334 . S
C391 H372 0.929 . S
C391 C388 1.388 . S
C391 N390 1.397 . S
C392 H373 0.929 . S
C392 C389 1.404 . S
C392 N390 1.334 . S
C393 H385 0.930 . S
C393 C388 1.418 . S
C393 C389 1.353 . S
C394 H364 0.930 . S
C394 N395 1.330 . S
C394 C396 1.446 . S
N395 Co354 2.151 . S
N395 C394 1.330 . S
N395 C399 1.418 . S
C396 H375 0.929 . S
C396 C394 1.446 . S
C396 C397 1.332 . S
C397 H377 0.931 . S
C397 C396 1.332 . S
C397 C398 1.267 . S
C398 H366 0.929 . S
C398 C397 1.267 . S
C398 C399 1.251 . S
C399 H369 0.929 . S
C399 N395 1.418 . S
C399 C398 1.251 . S
C400 H367 0.930 . S
C400 C402 1.406 . S
C400 C405 1.261 . S
C401 H368 0.930 . S
C401 N403 1.325 . S
C401 C404 1.357 . S
C402 H370 0.928 . S
C402 C400 1.406 . S
C402 N403 1.261 . S
N403 Co354 2.214 . S
N403 C401 1.325 . S
N403 C402 1.261 . S
C404 H374 0.931 . S
C404 C401 1.357 . S
C404 C405 1.312 . S
C405 H376 0.930 . S
C405 C400 1.261 . S
C405 C404 1.312 . S
C406 O378 1.214 . S
C406 O386 1.234 . S
C407 H379 0.929 . S
C407 C410 1.391 . S
C407 C412 1.391 . S
C408 H380 0.929 . S
C408 C409 1.390 . S
C408 N411 1.391 . S
C409 H381 0.930 . S
C409 C408 1.390 . S
C409 C410 1.392 . S
C410 H382 0.929 . S
C410 C407 1.391 . S
C410 C409 1.392 . S
N411 Co355 2.257 . S
N411 C408 1.391 . S
N411 C412 1.388 . S
C412 H383 0.930 . S
C412 C407 1.391 . S
C412 N411 1.388 . S
Co413 O415 2.143 . S
Co413 O421 2.074 . S
Co413 O424 2.093 . S
Co413 O437 2.097 . S
Co413 N454 2.151 . S
Co413 N462 2.214 . S
Co414 O415 2.160 . S
Co414 O420 2.058 . S
Co414 O430 2.057 . S
Co414 O445 2.037 . S
Co414 N449 2.145 . S
Co414 N470 2.257 . S
O415 Co413 2.143 . S
O415 Co414 2.160 . S
C416 O417 1.278 . S
C416 O424 1.224 . S
O417 C416 1.278 . S
C418 O419 1.245 . S
C418 O430 1.232 . S
O419 C418 1.245 . S
O420 Co414 2.058 . S
O420 C446 1.269 . S
O421 Co413 2.074 . S
O421 C446 1.257 . S
H422 C447 0.930 . S
H423 C453 0.930 . S
O424 Co413 2.093 . S
O424 C416 1.224 . S
H425 C457 0.929 . S
H426 C459 0.930 . S
H427 C460 0.930 . S
H428 C458 0.929 . S
H429 C461 0.928 . S
O430 Co414 2.057 . S
O430 C418 1.232 . S
H431 C450 0.929 . S
H432 C451 0.929 . S
H433 C463 0.931 . S
H434 C455 0.929 . S
H435 C464 0.930 . S
H436 C456 0.931 . S
O437 Co413 2.097 . S
O437 C465 1.214 . S
H438 C466 0.929 . S
H439 C467 0.929 . S
H440 C468 0.930 . S
H441 C469 0.929 . S
H442 C471 0.930 . S
H443 C448 0.930 . S
H444 C452 0.930 . S
O445 Co414 2.037 . S
O445 C465 1.234 . S
C446 O420 1.269 . S
C446 O421 1.257 . S
C447 H422 0.930 . S
C447 C450 1.388 . S
C447 C452 1.418 . S
C448 H443 0.930 . S
C448 C451 1.404 . S
C448 C452 1.353 . S
N449 Co414 2.145 . S
N449 C450 1.397 . S
N449 C451 1.334 . S
C450 H431 0.929 . S
C450 C447 1.388 . S
C450 N449 1.397 . S
C451 H432 0.929 . S
C451 C448 1.404 . S
C451 N449 1.334 . S
C452 H444 0.930 . S
C452 C447 1.418 . S
C452 C448 1.353 . S
C453 H423 0.930 . S
C453 N454 1.330 . S
C453 C455 1.446 . S
N454 Co413 2.151 . S
N454 C453 1.330 . S
N454 C458 1.418 . S
C455 H434 0.929 . S
C455 C453 1.446 . S
C455 C456 1.332 . S
C456 H436 0.931 . S
C456 C455 1.332 . S
C456 C457 1.267 . S
C457 H425 0.929 . S
C457 C456 1.267 . S
C457 C458 1.251 . S
C458 H428 0.929 . S
C458 N454 1.418 . S
C458 C457 1.251 . S
C459 H426 0.930 . S
C459 C461 1.406 . S
C459 C464 1.261 . S
C460 H427 0.930 . S
C460 N462 1.325 . S
C460 C463 1.357 . S
C461 H429 0.928 . S
C461 C459 1.406 . S
C461 N462 1.261 . S
N462 Co413 2.214 . S
N462 C460 1.325 . S
N462 C461 1.261 . S
C463 H433 0.931 . S
C463 C460 1.357 . S
C463 C464 1.312 . S
C464 H435 0.930 . S
C464 C459 1.261 . S
C464 C463 1.312 . S
C465 O437 1.214 . S
C465 O445 1.234 . S
C466 H438 0.929 . S
C466 C469 1.391 . S
C466 C471 1.391 . S
C467 H439 0.929 . S
C467 C468 1.390 . S
C467 N470 1.391 . S
C468 H440 0.930 . S
C468 C467 1.390 . S
C468 C469 1.392 . S
C469 H441 0.929 . S
C469 C466 1.391 . S
C469 C468 1.392 . S
N470 Co414 2.257 . S
N470 C467 1.391 . S
N470 C471 1.388 . S
C471 H442 0.930 . S
C471 C466 1.391 . S
C471 N470 1.388 . S
Co472 O474 2.162 . S
Co472 O480 2.074 . S
Co472 O483 2.093 . S
Co472 O496 2.097 1_554 S
Co472 N513 2.151 . S
Co472 N521 2.214 . S
Co473 O474 2.141 1_556 S
Co473 O479 2.058 1_556 S
Co473 O489 2.057 . S
Co473 O504 2.037 . S
Co473 N508 2.145 . S
Co473 N529 2.257 . S
O474 Co472 2.162 . S
O474 Co473 2.141 1_554 S
C475 O476 1.278 . S
C475 O483 1.224 1_556 S
O476 C475 1.278 . S
C477 O478 1.237 1_556 S
C477 O489 1.238 . S
O478 C477 1.237 1_554 S
O479 Co473 2.058 1_554 S
O479 C505 1.269 . S
O480 Co472 2.074 . S
O480 C505 1.257 . S
H481 C506 0.930 . S
H482 C512 0.930 . S
O483 Co472 2.093 . S
O483 C475 1.224 1_554 S
H484 C516 0.929 . S
H485 C518 0.930 . S
H486 C519 0.919 1_455 S
H487 C517 0.929 . S
H488 C520 0.928 1_455 S
O489 Co473 2.057 . S
O489 C477 1.238 . S
H490 C509 0.929 . S
H491 C510 0.929 . S
H492 C522 0.931 . S
H493 C514 0.929 . S
H494 C523 0.930 . S
H495 C515 0.931 . S
O496 Co472 2.097 1_556 S
O496 C524 1.214 . S
H497 C525 0.929 . S
H498 C526 0.929 . S
H499 C527 0.930 . S
H500 C528 0.929 . S
H501 C530 0.930 . S
H502 C507 0.930 . S
H503 C511 0.930 . S
O504 Co473 2.037 . S
O504 C524 1.234 . S
C505 O479 1.269 . S
C505 O480 1.257 . S
C506 H481 0.930 . S
C506 C509 1.388 . S
C506 C511 1.418 . S
C507 H502 0.930 . S
C507 C510 1.404 . S
C507 C511 1.353 . S
N508 Co473 2.145 . S
N508 C509 1.397 . S
N508 C510 1.334 . S
C509 H490 0.929 . S
C509 C506 1.388 . S
C509 N508 1.397 . S
C510 H491 0.929 . S
C510 C507 1.404 . S
C510 N508 1.334 . S
C511 H503 0.930 . S
C511 C506 1.418 . S
C511 C507 1.353 . S
C512 H482 0.930 . S
C512 N513 1.330 . S
C512 C514 1.446 . S
N513 Co472 2.151 . S
N513 C512 1.330 . S
N513 C517 1.418 . S
C514 H493 0.929 . S
C514 C512 1.446 . S
C514 C515 1.332 . S
C515 H495 0.931 . S
C515 C514 1.332 . S
C515 C516 1.267 . S
C516 H484 0.929 . S
C516 C515 1.267 . S
C516 C517 1.251 . S
C517 H487 0.929 . S
C517 N513 1.418 . S
C517 C516 1.251 . S
C518 H485 0.930 . S
C518 C520 1.406 . S
C518 C523 1.261 . S
C519 H486 0.919 1_655 S
C519 N521 1.313 1_655 S
C519 C522 1.380 . S
C520 H488 0.928 1_655 S
C520 C518 1.406 . S
C520 N521 1.261 1_655 S
N521 Co472 2.214 . S
N521 C519 1.313 1_455 S
N521 C520 1.261 1_455 S
C522 H492 0.931 . S
C522 C519 1.380 . S
C522 C523 1.312 . S
C523 H494 0.930 . S
C523 C518 1.261 . S
C523 C522 1.312 . S
C524 O496 1.214 . S
C524 O504 1.234 . S
C525 H497 0.929 . S
C525 C528 1.391 . S
C525 C530 1.391 . S
C526 H498 0.929 . S
C526 C527 1.390 . S
C526 N529 1.391 . S
C527 H499 0.930 . S
C527 C526 1.390 . S
C527 C528 1.392 . S
C528 H500 0.929 . S
C528 C525 1.391 . S
C528 C527 1.392 . S
N529 Co473 2.257 . S
N529 C526 1.391 . S
N529 C530 1.388 . S
C530 H501 0.930 . S
C530 C525 1.391 . S
C530 N529 1.388 . S
Co531 O533 2.143 . S
Co531 O539 2.074 . S
Co531 O542 2.093 . S
Co531 O555 2.097 . S
Co531 N572 2.151 . S
Co531 N580 2.214 . S
Co532 O533 2.160 . S
Co532 O538 2.058 . S
Co532 O548 2.057 . S
Co532 O563 2.037 . S
Co532 N567 2.145 . S
Co532 N588 2.257 . S
O533 Co531 2.143 . S
O533 Co532 2.160 . S
C534 O535 1.278 . S
C534 O542 1.224 . S
O535 C534 1.278 . S
C536 O537 1.245 . S
C536 O548 1.232 . S
O537 C536 1.245 . S
O538 Co532 2.058 . S
O538 C564 1.269 . S
O539 Co531 2.074 . S
O539 C564 1.257 . S
H540 C565 0.930 . S
H541 C571 0.930 . S
O542 Co531 2.093 . S
O542 C534 1.224 . S
H543 C575 0.929 . S
H544 C577 0.930 . S
H545 C578 0.930 . S
H546 C576 0.929 . S
H547 C579 0.929 1_455 S
O548 Co532 2.057 . S
O548 C536 1.232 . S
H549 C568 0.929 . S
H550 C569 0.929 . S
H551 C581 0.931 . S
H552 C573 0.929 . S
H553 C582 0.930 . S
H554 C574 0.931 . S
O555 Co531 2.097 . S
O555 C583 1.214 . S
H556 C584 0.929 . S
H557 C585 0.929 . S
H558 C586 0.930 . S
H559 C587 0.929 . S
H560 C589 0.930 . S
H561 C566 0.930 . S
H562 C570 0.930 . S
O563 Co532 2.037 . S
O563 C583 1.234 . S
C564 O538 1.269 . S
C564 O539 1.257 . S
C565 H540 0.930 . S
C565 C568 1.388 . S
C565 C570 1.418 . S
C566 H561 0.930 . S
C566 C569 1.404 . S
C566 C570 1.353 . S
N567 Co532 2.145 . S
N567 C568 1.397 . S
N567 C569 1.334 . S
C568 H549 0.929 . S
C568 C565 1.388 . S
C568 N567 1.397 . S
C569 H550 0.929 . S
C569 C566 1.404 . S
C569 N567 1.334 . S
C570 H562 0.930 . S
C570 C565 1.418 . S
C570 C566 1.353 . S
C571 H541 0.930 . S
C571 N572 1.330 . S
C571 C573 1.446 . S
N572 Co531 2.151 . S
N572 C571 1.330 . S
N572 C576 1.418 . S
C573 H552 0.929 . S
C573 C571 1.446 . S
C573 C574 1.332 . S
C574 H554 0.931 . S
C574 C573 1.332 . S
C574 C575 1.267 . S
C575 H543 0.929 . S
C575 C574 1.267 . S
C575 C576 1.251 . S
C576 H546 0.929 . S
C576 N572 1.418 . S
C576 C575 1.251 . S
C577 H544 0.930 . S
C577 C579 1.403 . S
C577 C582 1.261 . S
C578 H545 0.930 . S
C578 N580 1.325 . S
C578 C581 1.357 1_455 S
C579 H547 0.929 1_655 S
C579 C577 1.403 . S
C579 N580 1.263 1_655 S
N580 Co531 2.214 . S
N580 C578 1.325 . S
N580 C579 1.263 1_455 S
C581 H551 0.931 . S
C581 C578 1.357 1_655 S
C581 C582 1.312 . S
C582 H553 0.930 . S
C582 C577 1.261 . S
C582 C581 1.312 . S
C583 O555 1.214 . S
C583 O563 1.234 . S
C584 H556 0.929 . S
C584 C587 1.391 . S
C584 C589 1.391 . S
C585 H557 0.929 . S
C585 C586 1.390 . S
C585 N588 1.391 . S
C586 H558 0.930 . S
C586 C585 1.390 . S
C586 C587 1.392 . S
C587 H559 0.929 . S
C587 C584 1.391 . S
C587 C586 1.392 . S
N588 Co532 2.257 . S
N588 C585 1.391 . S
N588 C589 1.388 . S
C589 H560 0.930 . S
C589 C584 1.391 . S
C589 N588 1.388 . S
Co590 O592 2.143 . S
Co590 O598 2.074 . S
Co590 O601 2.093 . S
Co590 O614 2.097 . S
Co590 N631 2.151 . S
Co590 N639 2.214 . S
Co591 O592 2.160 . S
Co591 O597 2.058 . S
Co591 O607 2.057 . S
Co591 O622 2.037 . S
Co591 N626 2.145 . S
Co591 N647 2.257 . S
O592 Co590 2.143 . S
O592 Co591 2.160 . S
C593 O594 1.278 . S
C593 O601 1.224 . S
O594 C593 1.278 . S
C595 O596 1.245 . S
C595 O607 1.232 . S
O596 C595 1.245 . S
O597 Co591 2.058 . S
O597 C623 1.269 . S
O598 Co590 2.074 . S
O598 C623 1.257 . S
H599 C624 0.930 . S
H600 C630 0.930 . S
O601 Co590 2.093 . S
O601 C593 1.224 . S
H602 C634 0.929 . S
H603 C636 0.930 . S
H604 C637 0.930 . S
H605 C635 0.929 . S
H606 C638 0.928 . S
O607 Co591 2.057 . S
O607 C595 1.232 . S
H608 C627 0.929 . S
H609 C628 0.929 . S
H610 C640 0.931 . S
H611 C632 0.929 . S
H612 C641 0.930 . S
H613 C633 0.931 . S
O614 Co590 2.097 . S
O614 C642 1.214 . S
H615 C643 0.929 . S
H616 C644 0.929 . S
H617 C645 0.930 . S
H618 C646 0.929 . S
H619 C648 0.930 . S
H620 C625 0.930 . S
H621 C629 0.930 . S
O622 Co591 2.037 . S
O622 C642 1.234 . S
C623 O597 1.269 . S
C623 O598 1.257 . S
C624 H599 0.930 . S
C624 C627 1.388 . S
C624 C629 1.418 . S
C625 H620 0.930 . S
C625 C628 1.404 . S
C625 C629 1.353 . S
N626 Co591 2.145 . S
N626 C627 1.397 . S
N626 C628 1.334 . S
C627 H608 0.929 . S
C627 C624 1.388 . S
C627 N626 1.397 . S
C628 H609 0.929 . S
C628 C625 1.404 . S
C628 N626 1.334 . S
C629 H621 0.930 . S
C629 C624 1.418 . S
C629 C625 1.353 . S
C630 H600 0.930 . S
C630 N631 1.330 . S
C630 C632 1.446 . S
N631 Co590 2.151 . S
N631 C630 1.330 . S
N631 C635 1.418 . S
C632 H611 0.929 . S
C632 C630 1.446 . S
C632 C633 1.332 . S
C633 H613 0.931 . S
C633 C632 1.332 . S
C633 C634 1.267 . S
C634 H602 0.929 . S
C634 C633 1.267 . S
C634 C635 1.251 . S
C635 H605 0.929 . S
C635 N631 1.418 . S
C635 C634 1.251 . S
C636 H603 0.930 . S
C636 C638 1.406 1_455 S
C636 C641 1.261 . S
C637 H604 0.930 . S
C637 N639 1.325 . S
C637 C640 1.357 1_655 S
C638 H606 0.928 . S
C638 C636 1.406 1_655 S
C638 N639 1.261 . S
N639 Co590 2.214 . S
N639 C637 1.325 . S
N639 C638 1.261 . S
C640 H610 0.931 . S
C640 C637 1.357 1_455 S
C640 C641 1.312 . S
C641 H612 0.930 . S
C641 C636 1.261 . S
C641 C640 1.312 . S
C642 O614 1.214 . S
C642 O622 1.234 . S
C643 H615 0.929 . S
C643 C646 1.391 . S
C643 C648 1.391 . S
C644 H616 0.929 . S
C644 C645 1.390 . S
C644 N647 1.391 . S
C645 H617 0.930 . S
C645 C644 1.390 . S
C645 C646 1.392 . S
C646 H618 0.929 . S
C646 C643 1.391 . S
C646 C645 1.392 . S
N647 Co591 2.257 . S
N647 C644 1.391 . S
N647 C648 1.388 . S
C648 H619 0.930 . S
C648 C643 1.391 . S
C648 N647 1.388 . S
Co649 O651 2.143 . S
Co649 O657 2.074 . S
Co649 O660 2.093 . S
Co649 O673 2.097 . S
Co649 N690 2.151 . S
Co649 N698 2.214 . S
Co650 O651 2.160 . S
Co650 O656 2.058 . S
Co650 O666 2.057 . S
Co650 O681 2.037 . S
Co650 N685 2.145 . S
Co650 N706 2.257 . S
O651 Co649 2.143 . S
O651 Co650 2.160 . S
C652 O653 1.278 . S
C652 O660 1.224 . S
O653 C652 1.278 . S
C654 O655 1.245 . S
C654 O666 1.232 . S
O655 C654 1.245 . S
O656 Co650 2.058 . S
O656 C682 1.269 . S
O657 Co649 2.074 . S
O657 C682 1.257 . S
H658 C683 0.930 . S
H659 C689 0.930 . S
O660 Co649 2.093 . S
O660 C652 1.224 . S
H661 C693 0.929 . S
H662 C695 0.930 . S
H663 C696 0.930 . S
H664 C694 0.929 . S
H665 C697 0.928 . S
O666 Co650 2.057 . S
O666 C654 1.232 . S
H667 C686 0.929 . S
H668 C687 0.929 . S
H669 C699 0.931 . S
H670 C691 0.929 . S
H671 C700 0.930 . S
H672 C692 0.931 . S
O673 Co649 2.097 . S
O673 C701 1.214 . S
H674 C702 0.929 . S
H675 C703 0.929 . S
H676 C704 0.930 . S
H677 C705 0.929 . S
H678 C707 0.930 . S
H679 C684 0.930 . S
H680 C688 0.930 . S
O681 Co650 2.037 . S
O681 C701 1.234 . S
C682 O656 1.269 . S
C682 O657 1.257 . S
C683 H658 0.930 . S
C683 C686 1.388 . S
C683 C688 1.418 . S
C684 H679 0.930 . S
C684 C687 1.404 . S
C684 C688 1.353 . S
N685 Co650 2.145 . S
N685 C686 1.397 . S
N685 C687 1.334 . S
C686 H667 0.929 . S
C686 C683 1.388 . S
C686 N685 1.397 . S
C687 H668 0.929 . S
C687 C684 1.404 . S
C687 N685 1.334 . S
C688 H680 0.930 . S
C688 C683 1.418 . S
C688 C684 1.353 . S
C689 H659 0.930 . S
C689 N690 1.330 . S
C689 C691 1.446 . S
N690 Co649 2.151 . S
N690 C689 1.330 . S
N690 C694 1.418 . S
C691 H670 0.929 . S
C691 C689 1.446 . S
C691 C692 1.332 . S
C692 H672 0.931 . S
C692 C691 1.332 . S
C692 C693 1.267 . S
C693 H661 0.929 . S
C693 C692 1.267 . S
C693 C694 1.251 . S
C694 H664 0.929 . S
C694 N690 1.418 . S
C694 C693 1.251 . S
C695 H662 0.930 . S
C695 C697 1.406 . S
C695 C700 1.261 . S
C696 H663 0.930 . S
C696 N698 1.325 . S
C696 C699 1.357 . S
C697 H665 0.928 . S
C697 C695 1.406 . S
C697 N698 1.261 . S
N698 Co649 2.214 . S
N698 C696 1.325 . S
N698 C697 1.261 . S
C699 H669 0.931 . S
C699 C696 1.357 . S
C699 C700 1.312 . S
C700 H671 0.930 . S
C700 C695 1.261 . S
C700 C699 1.312 . S
C701 O673 1.214 . S
C701 O681 1.234 . S
C702 H674 0.929 . S
C702 C705 1.391 . S
C702 C707 1.391 . S
C703 H675 0.929 . S
C703 C704 1.390 . S
C703 N706 1.391 . S
C704 H676 0.930 . S
C704 C703 1.390 . S
C704 C705 1.392 . S
C705 H677 0.929 . S
C705 C702 1.391 . S
C705 C704 1.392 . S
N706 Co650 2.257 . S
N706 C703 1.391 . S
N706 C707 1.388 . S
C707 H678 0.930 . S
C707 C702 1.391 . S
C707 N706 1.388 . S
Co708 O710 2.143 . S
Co708 O716 2.074 . S
Co708 O719 2.093 . S
Co708 O732 2.097 . S
Co708 N749 2.151 . S
Co708 N757 2.214 . S
Co709 O710 2.160 . S
Co709 O715 2.058 . S
Co709 O725 2.057 . S
Co709 O740 2.037 . S
Co709 N744 2.145 . S
Co709 N765 2.257 . S
O710 Co708 2.143 . S
O710 Co709 2.160 . S
C711 O712 1.278 . S
C711 O719 1.224 . S
O712 C711 1.278 . S
C713 O714 1.245 . S
C713 O725 1.232 . S
O714 C713 1.245 . S
O715 Co709 2.058 . S
O715 C741 1.269 . S
O716 Co708 2.074 . S
O716 C741 1.257 . S
H717 C742 0.930 . S
H718 C748 0.930 . S
O719 Co708 2.093 . S
O719 C711 1.224 . S
H720 C752 0.929 . S
H721 C754 0.930 . S
H722 C755 0.930 . S
H723 C753 0.929 . S
H724 C756 0.928 . S
O725 Co709 2.057 . S
O725 C713 1.232 . S
H726 C745 0.929 . S
H727 C746 0.929 . S
H728 C758 0.931 . S
H729 C750 0.929 . S
H730 C759 0.930 . S
H731 C751 0.931 . S
O732 Co708 2.097 . S
O732 C760 1.214 . S
H733 C761 0.929 . S
H734 C762 0.929 . S
H735 C763 0.930 . S
H736 C764 0.929 . S
H737 C766 0.930 . S
H738 C743 0.930 . S
H739 C747 0.930 . S
O740 Co709 2.037 . S
O740 C760 1.234 . S
C741 O715 1.269 . S
C741 O716 1.257 . S
C742 H717 0.930 . S
C742 C745 1.388 . S
C742 C747 1.418 . S
C743 H738 0.930 . S
C743 C746 1.404 . S
C743 C747 1.353 . S
N744 Co709 2.145 . S
N744 C745 1.397 . S
N744 C746 1.334 . S
C745 H726 0.929 . S
C745 C742 1.388 . S
C745 N744 1.397 . S
C746 H727 0.929 . S
C746 C743 1.404 . S
C746 N744 1.334 . S
C747 H739 0.930 . S
C747 C742 1.418 . S
C747 C743 1.353 . S
C748 H718 0.930 . S
C748 N749 1.330 . S
C748 C750 1.446 . S
N749 Co708 2.151 . S
N749 C748 1.330 . S
N749 C753 1.418 . S
C750 H729 0.929 . S
C750 C748 1.446 . S
C750 C751 1.332 . S
C751 H731 0.931 . S
C751 C750 1.332 . S
C751 C752 1.267 . S
C752 H720 0.929 . S
C752 C751 1.267 . S
C752 C753 1.251 . S
C753 H723 0.929 . S
C753 N749 1.418 . S
C753 C752 1.251 . S
C754 H721 0.930 . S
C754 C756 1.406 . S
C754 C759 1.261 . S
C755 H722 0.930 . S
C755 N757 1.325 . S
C755 C758 1.357 . S
C756 H724 0.928 . S
C756 C754 1.406 . S
C756 N757 1.261 . S
N757 Co708 2.214 . S
N757 C755 1.325 . S
N757 C756 1.261 . S
C758 H728 0.931 . S
C758 C755 1.357 . S
C758 C759 1.312 . S
C759 H730 0.930 . S
C759 C754 1.261 . S
C759 C758 1.312 . S
C760 O732 1.214 . S
C760 O740 1.234 . S
C761 H733 0.929 . S
C761 C764 1.391 . S
C761 C766 1.391 . S
C762 H734 0.929 . S
C762 C763 1.390 . S
C762 N765 1.391 . S
C763 H735 0.930 . S
C763 C762 1.390 . S
C763 C764 1.392 . S
C764 H736 0.929 . S
C764 C761 1.391 . S
C764 C763 1.392 . S
N765 Co709 2.257 . S
N765 C762 1.391 . S
N765 C766 1.388 . S
C766 H737 0.930 . S
C766 C761 1.391 . S
C766 N765 1.388 . S
Co767 O769 2.143 . S
Co767 O775 2.074 . S
Co767 O778 2.093 . S
Co767 O791 2.097 . S
Co767 N808 2.151 . S
Co767 N816 2.214 . S
Co768 O769 2.160 . S
Co768 O774 2.058 . S
Co768 O784 2.057 . S
Co768 O799 2.037 . S
Co768 N803 2.145 . S
Co768 N824 2.257 . S
O769 Co767 2.143 . S
O769 Co768 2.160 . S
C770 O771 1.278 . S
C770 O778 1.224 . S
O771 C770 1.278 . S
C772 O773 1.245 . S
C772 O784 1.232 . S
O773 C772 1.245 . S
O774 Co768 2.058 . S
O774 C800 1.269 . S
O775 Co767 2.074 . S
O775 C800 1.257 . S
H776 C801 0.930 . S
H777 C807 0.930 . S
O778 Co767 2.093 . S
O778 C770 1.224 . S
H779 C811 0.929 . S
H780 C813 0.930 . S
H781 C814 0.930 . S
H782 C812 0.929 . S
H783 C815 0.928 . S
O784 Co768 2.057 . S
O784 C772 1.232 . S
H785 C804 0.929 . S
H786 C805 0.929 . S
H787 C817 0.931 . S
H788 C809 0.929 . S
H789 C818 0.930 . S
H790 C810 0.931 . S
O791 Co767 2.097 . S
O791 C819 1.214 . S
H792 C820 0.929 . S
H793 C821 0.929 . S
H794 C822 0.930 . S
H795 C823 0.929 . S
H796 C825 0.930 . S
H797 C802 0.930 . S
H798 C806 0.930 . S
O799 Co768 2.037 . S
O799 C819 1.234 . S
C800 O774 1.269 . S
C800 O775 1.257 . S
C801 H776 0.930 . S
C801 C804 1.388 . S
C801 C806 1.418 . S
C802 H797 0.930 . S
C802 C805 1.404 . S
C802 C806 1.353 . S
N803 Co768 2.145 . S
N803 C804 1.397 . S
N803 C805 1.334 . S
C804 H785 0.929 . S
C804 C801 1.388 . S
C804 N803 1.397 . S
C805 H786 0.929 . S
C805 C802 1.404 . S
C805 N803 1.334 . S
C806 H798 0.930 . S
C806 C801 1.418 . S
C806 C802 1.353 . S
C807 H777 0.930 . S
C807 N808 1.330 . S
C807 C809 1.446 . S
N808 Co767 2.151 . S
N808 C807 1.330 . S
N808 C812 1.418 . S
C809 H788 0.929 . S
C809 C807 1.446 . S
C809 C810 1.332 . S
C810 H790 0.931 . S
C810 C809 1.332 . S
C810 C811 1.267 . S
C811 H779 0.929 . S
C811 C810 1.267 . S
C811 C812 1.251 . S
C812 H782 0.929 . S
C812 N808 1.418 . S
C812 C811 1.251 . S
C813 H780 0.930 . S
C813 C815 1.406 1_545 S
C813 C818 1.261 . S
C814 H781 0.930 . S
C814 N816 1.325 . S
C814 C817 1.357 1_565 S
C815 H783 0.928 . S
C815 C813 1.406 1_565 S
C815 N816 1.261 . S
N816 Co767 2.214 . S
N816 C814 1.325 . S
N816 C815 1.261 . S
C817 H787 0.931 . S
C817 C814 1.357 1_545 S
C817 C818 1.312 . S
C818 H789 0.930 . S
C818 C813 1.261 . S
C818 C817 1.312 . S
C819 O791 1.214 . S
C819 O799 1.234 . S
C820 H792 0.929 . S
C820 C823 1.391 . S
C820 C825 1.391 . S
C821 H793 0.929 . S
C821 C822 1.390 . S
C821 N824 1.391 . S
C822 H794 0.930 . S
C822 C821 1.390 . S
C822 C823 1.392 . S
C823 H795 0.929 . S
C823 C820 1.391 . S
C823 C822 1.392 . S
N824 Co768 2.257 . S
N824 C821 1.391 . S
N824 C825 1.388 . S
C825 H796 0.930 . S
C825 C820 1.391 . S
C825 N824 1.388 . S
Co826 O828 2.143 . S
Co826 O834 2.074 . S
Co826 O837 2.093 . S
Co826 O850 2.097 . S
Co826 N867 2.151 . S
Co826 N875 2.214 . S
Co827 O828 2.160 . S
Co827 O833 2.058 . S
Co827 O843 2.057 . S
Co827 O858 2.037 . S
Co827 N862 2.145 . S
Co827 N883 2.257 . S
O828 Co826 2.143 . S
O828 Co827 2.160 . S
C829 O830 1.278 . S
C829 O837 1.224 . S
O830 C829 1.278 . S
C831 O832 1.245 . S
C831 O843 1.232 . S
O832 C831 1.245 . S
O833 Co827 2.058 . S
O833 C859 1.269 . S
O834 Co826 2.074 . S
O834 C859 1.257 . S
H835 C860 0.930 . S
H836 C866 0.930 . S
O837 Co826 2.093 . S
O837 C829 1.224 . S
H838 C870 0.929 . S
H839 C872 0.930 . S
H840 C873 0.930 . S
H841 C871 0.929 . S
H842 C874 0.928 . S
O843 Co827 2.057 . S
O843 C831 1.232 . S
H844 C863 0.929 . S
H845 C864 0.929 . S
H846 C876 0.931 . S
H847 C868 0.929 . S
H848 C877 0.930 . S
H849 C869 0.931 . S
O850 Co826 2.097 . S
O850 C878 1.214 . S
H851 C879 0.929 . S
H852 C880 0.929 . S
H853 C881 0.930 . S
H854 C882 0.929 . S
H855 C884 0.930 . S
H856 C861 0.930 . S
H857 C865 0.930 . S
O858 Co827 2.037 . S
O858 C878 1.234 . S
C859 O833 1.269 . S
C859 O834 1.257 . S
C860 H835 0.930 . S
C860 C863 1.388 . S
C860 C865 1.418 . S
C861 H856 0.930 . S
C861 C864 1.404 . S
C861 C865 1.353 . S
N862 Co827 2.145 . S
N862 C863 1.397 . S
N862 C864 1.334 . S
C863 H844 0.929 . S
C863 C860 1.388 . S
C863 N862 1.397 . S
C864 H845 0.929 . S
C864 C861 1.404 . S
C864 N862 1.334 . S
C865 H857 0.930 . S
C865 C860 1.418 . S
C865 C861 1.353 . S
C866 H836 0.930 . S
C866 N867 1.330 . S
C866 C868 1.446 . S
N867 Co826 2.151 . S
N867 C866 1.330 . S
N867 C871 1.418 . S
C868 H847 0.929 . S
C868 C866 1.446 . S
C868 C869 1.332 . S
C869 H849 0.931 . S
C869 C868 1.332 . S
C869 C870 1.267 . S
C870 H838 0.929 . S
C870 C869 1.267 . S
C870 C871 1.251 . S
C871 H841 0.929 . S
C871 N867 1.418 . S
C871 C870 1.251 . S
C872 H839 0.930 . S
C872 C874 1.406 . S
C872 C877 1.261 . S
C873 H840 0.930 . S
C873 N875 1.325 . S
C873 C876 1.357 . S
C874 H842 0.928 . S
C874 C872 1.406 . S
C874 N875 1.261 . S
N875 Co826 2.214 . S
N875 C873 1.325 . S
N875 C874 1.261 . S
C876 H846 0.931 . S
C876 C873 1.357 . S
C876 C877 1.312 . S
C877 H848 0.930 . S
C877 C872 1.261 . S
C877 C876 1.312 . S
C878 O850 1.214 . S
C878 O858 1.234 . S
C879 H851 0.929 . S
C879 C882 1.391 . S
C879 C884 1.391 . S
C880 H852 0.929 . S
C880 C881 1.390 . S
C880 N883 1.391 . S
C881 H853 0.930 . S
C881 C880 1.390 . S
C881 C882 1.392 . S
C882 H854 0.929 . S
C882 C879 1.391 . S
C882 C881 1.392 . S
N883 Co827 2.257 . S
N883 C880 1.391 . S
N883 C884 1.388 . S
C884 H855 0.930 . S
C884 C879 1.391 . S
C884 N883 1.388 . S
Co885 O887 2.143 . S
Co885 O893 2.074 . S
Co885 O896 2.093 . S
Co885 O909 2.097 . S
Co885 N926 2.151 . S
Co885 N934 2.214 . S
Co886 O887 2.160 . S
Co886 O892 2.058 . S
Co886 O902 2.057 . S
Co886 O917 2.037 . S
Co886 N921 2.145 . S
Co886 N942 2.257 . S
O887 Co885 2.143 . S
O887 Co886 2.160 . S
C888 O889 1.278 . S
C888 O896 1.224 . S
O889 C888 1.278 . S
C890 O891 1.245 . S
C890 O902 1.232 . S
O891 C890 1.245 . S
O892 Co886 2.058 . S
O892 C918 1.269 . S
O893 Co885 2.074 . S
O893 C918 1.257 . S
H894 C919 0.930 . S
H895 C925 0.930 . S
O896 Co885 2.093 . S
O896 C888 1.224 . S
H897 C929 0.929 . S
H898 C931 0.930 . S
H899 C932 0.930 . S
H900 C930 0.929 . S
H901 C933 0.929 1_545 S
O902 Co886 2.057 . S
O902 C890 1.232 . S
H903 C922 0.929 . S
H904 C923 0.929 . S
H905 C935 0.931 . S
H906 C927 0.929 . S
H907 C936 0.930 . S
H908 C928 0.931 . S
O909 Co885 2.097 . S
O909 C937 1.214 . S
H910 C938 0.929 . S
H911 C939 0.929 . S
H912 C940 0.930 . S
H913 C941 0.929 . S
H914 C943 0.930 . S
H915 C920 0.930 . S
H916 C924 0.930 . S
O917 Co886 2.037 . S
O917 C937 1.234 . S
C918 O892 1.269 . S
C918 O893 1.257 . S
C919 H894 0.930 . S
C919 C922 1.388 . S
C919 C924 1.418 . S
C920 H915 0.930 . S
C920 C923 1.404 . S
C920 C924 1.353 . S
N921 Co886 2.145 . S
N921 C922 1.397 . S
N921 C923 1.334 . S
C922 H903 0.929 . S
C922 C919 1.388 . S
C922 N921 1.397 . S
C923 H904 0.929 . S
C923 C920 1.404 . S
C923 N921 1.334 . S
C924 H916 0.930 . S
C924 C919 1.418 . S
C924 C920 1.353 . S
C925 H895 0.930 . S
C925 N926 1.330 . S
C925 C927 1.446 . S
N926 Co885 2.151 . S
N926 C925 1.330 . S
N926 C930 1.418 . S
C927 H906 0.929 . S
C927 C925 1.446 . S
C927 C928 1.332 . S
C928 H908 0.931 . S
C928 C927 1.332 . S
C928 C929 1.267 . S
C929 H897 0.929 . S
C929 C928 1.267 . S
C929 C930 1.251 . S
C930 H900 0.929 . S
C930 N926 1.418 . S
C930 C929 1.251 . S
C931 H898 0.930 . S
C931 C933 1.403 . S
C931 C936 1.261 . S
C932 H899 0.930 . S
C932 N934 1.325 . S
C932 C935 1.357 1_545 S
C933 H901 0.929 1_565 S
C933 C931 1.403 . S
C933 N934 1.263 1_565 S
N934 Co885 2.214 . S
N934 C932 1.325 . S
N934 C933 1.263 1_545 S
C935 H905 0.931 . S
C935 C932 1.357 1_565 S
C935 C936 1.312 . S
C936 H907 0.930 . S
C936 C931 1.261 . S
C936 C935 1.312 . S
C937 O909 1.214 . S
C937 O917 1.234 . S
C938 H910 0.929 . S
C938 C941 1.391 . S
C938 C943 1.391 . S
C939 H911 0.929 . S
C939 C940 1.390 . S
C939 N942 1.391 . S
C940 H912 0.930 . S
C940 C939 1.390 . S
C940 C941 1.392 . S
C941 H913 0.929 . S
C941 C938 1.391 . S
C941 C940 1.392 . S
N942 Co886 2.257 . S
N942 C939 1.391 . S
N942 C943 1.388 . S
C943 H914 0.930 . S
C943 C938 1.391 . S
C943 N942 1.388 . S
Co944 O946 2.143 . S
Co944 O952 2.074 . S
Co944 O955 2.093 . S
Co944 O968 2.097 . S
Co944 N985 2.151 . S
Co944 N993 2.214 . S
Co945 O946 2.160 . S
Co945 O951 2.058 . S
Co945 O961 2.057 . S
Co945 O976 2.037 . S
Co945 N980 2.145 . S
Co945 N1001 2.257 . S
O946 Co944 2.143 . S
O946 Co945 2.160 . S
C947 O948 1.278 . S
C947 O955 1.224 . S
O948 C947 1.278 . S
C949 O950 1.245 . S
C949 O961 1.232 . S
O950 C949 1.245 . S
O951 Co945 2.058 . S
O951 C977 1.269 . S
O952 Co944 2.074 . S
O952 C977 1.257 . S
H953 C978 0.930 . S
H954 C984 0.930 . S
O955 Co944 2.093 . S
O955 C947 1.224 . S
H956 C988 0.929 . S
H957 C990 0.930 . S
H958 C991 0.930 . S
H959 C989 0.929 . S
H960 C992 0.928 . S
O961 Co945 2.057 . S
O961 C949 1.232 . S
H962 C981 0.929 . S
H963 C982 0.929 . S
H964 C994 0.931 . S
H965 C986 0.929 . S
H966 C995 0.930 . S
H967 C987 0.931 . S
O968 Co944 2.097 . S
O968 C996 1.214 . S
H969 C997 0.929 . S
H970 C998 0.929 . S
H971 C999 0.930 . S
H972 C1000 0.929 . S
H973 C1002 0.930 . S
H974 C979 0.930 . S
H975 C983 0.930 . S
O976 Co945 2.037 . S
O976 C996 1.234 . S
C977 O951 1.269 . S
C977 O952 1.257 . S
C978 H953 0.930 . S
C978 C981 1.388 . S
C978 C983 1.418 . S
C979 H974 0.930 . S
C979 C982 1.404 . S
C979 C983 1.353 . S
N980 Co945 2.145 . S
N980 C981 1.397 . S
N980 C982 1.334 . S
C981 H962 0.929 . S
C981 C978 1.388 . S
C981 N980 1.397 . S
C982 H963 0.929 . S
C982 C979 1.404 . S
C982 N980 1.334 . S
C983 H975 0.930 . S
C983 C978 1.418 . S
C983 C979 1.353 . S
C984 H954 0.930 . S
C984 N985 1.330 . S
C984 C986 1.446 . S
N985 Co944 2.151 . S
N985 C984 1.330 . S
N985 C989 1.418 . S
C986 H965 0.929 . S
C986 C984 1.446 . S
C986 C987 1.332 . S
C987 H967 0.931 . S
C987 C986 1.332 . S
C987 C988 1.267 . S
C988 H956 0.929 . S
C988 C987 1.267 . S
C988 C989 1.251 . S
C989 H959 0.929 . S
C989 N985 1.418 . S
C989 C988 1.251 . S
C990 H957 0.930 . S
C990 C992 1.406 . S
C990 C995 1.261 . S
C991 H958 0.930 . S
C991 N993 1.325 . S
C991 C994 1.357 . S
C992 H960 0.928 . S
C992 C990 1.406 . S
C992 N993 1.261 . S
N993 Co944 2.214 . S
N993 C991 1.325 . S
N993 C992 1.261 . S
C994 H964 0.931 . S
C994 C991 1.357 . S
C994 C995 1.312 . S
C995 H966 0.930 . S
C995 C990 1.261 . S
C995 C994 1.312 . S
C996 O968 1.214 . S
C996 O976 1.234 . S
C997 H969 0.929 . S
C997 C1000 1.391 . S
C997 C1002 1.391 . S
C998 H970 0.929 . S
C998 C999 1.390 . S
C998 N1001 1.391 . S
C999 H971 0.930 . S
C999 C998 1.390 . S
C999 C1000 1.392 . S
C1000 H972 0.929 . S
C1000 C997 1.391 . S
C1000 C999 1.392 . S
N1001 Co945 2.257 . S
N1001 C998 1.391 . S
N1001 C1002 1.388 . S
C1002 H973 0.930 . S
C1002 C997 1.391 . S
C1002 N1001 1.388 . S
Co1003 O1005 2.143 . S
Co1003 O1011 2.074 . S
Co1003 O1014 2.093 . S
Co1003 O1027 2.097 1_565 S
Co1003 N1044 2.151 . S
Co1003 N1052 2.214 . S
Co1004 O1005 2.160 1_545 S
Co1004 O1010 2.058 1_545 S
Co1004 O1020 2.057 . S
Co1004 O1035 2.037 . S
Co1004 N1039 2.145 . S
Co1004 N1060 2.257 . S
O1005 Co1003 2.143 . S
O1005 Co1004 2.160 1_565 S
C1006 O1007 1.278 . S
C1006 O1014 1.224 1_545 S
O1007 C1006 1.278 . S
C1008 O1009 1.245 1_545 S
C1008 O1020 1.232 . S
O1009 C1008 1.245 1_565 S
O1010 Co1004 2.058 1_565 S
O1010 C1036 1.269 . S
O1011 Co1003 2.074 . S
O1011 C1036 1.257 . S
H1012 C1037 0.930 . S
H1013 C1043 0.930 . S
O1014 Co1003 2.093 . S
O1014 C1006 1.224 1_565 S
H1015 C1047 0.929 . S
H1016 C1049 0.930 . S
H1017 C1050 0.930 . S
H1018 C1048 0.929 . S
H1019 C1051 0.928 . S
O1020 Co1004 2.057 . S
O1020 C1008 1.232 . S
H1021 C1040 0.929 . S
H1022 C1041 0.929 . S
H1023 C1053 0.931 . S
H1024 C1045 0.929 . S
H1025 C1054 0.930 . S
H1026 C1046 0.931 . S
O1027 Co1003 2.097 1_545 S
O1027 C1055 1.214 . S
H1028 C1056 0.929 . S
H1029 C1057 0.929 . S
H1030 C1058 0.930 . S
H1031 C1059 0.929 . S
H1032 C1061 0.930 . S
H1033 C1038 0.930 . S
H1034 C1042 0.930 . S
O1035 Co1004 2.037 . S
O1035 C1055 1.234 . S
C1036 O1010 1.269 . S
C1036 O1011 1.257 . S
C1037 H1012 0.930 . S
C1037 C1040 1.388 . S
C1037 C1042 1.418 . S
C1038 H1033 0.930 . S
C1038 C1041 1.404 . S
C1038 C1042 1.353 . S
N1039 Co1004 2.145 . S
N1039 C1040 1.397 . S
N1039 C1041 1.334 . S
C1040 H1021 0.929 . S
C1040 C1037 1.388 . S
C1040 N1039 1.397 . S
C1041 H1022 0.929 . S
C1041 C1038 1.404 . S
C1041 N1039 1.334 . S
C1042 H1034 0.930 . S
C1042 C1037 1.418 . S
C1042 C1038 1.353 . S
C1043 H1013 0.930 . S
C1043 N1044 1.330 . S
C1043 C1045 1.446 . S
N1044 Co1003 2.151 . S
N1044 C1043 1.330 . S
N1044 C1048 1.418 . S
C1045 H1024 0.929 . S
C1045 C1043 1.446 . S
C1045 C1046 1.332 . S
C1046 H1026 0.931 . S
C1046 C1045 1.332 . S
C1046 C1047 1.267 . S
C1047 H1015 0.929 . S
C1047 C1046 1.267 . S
C1047 C1048 1.251 . S
C1048 H1018 0.929 . S
C1048 N1044 1.418 . S
C1048 C1047 1.251 . S
C1049 H1016 0.930 . S
C1049 C1051 1.406 . S
C1049 C1054 1.261 . S
C1050 H1017 0.930 . S
C1050 N1052 1.325 . S
C1050 C1053 1.357 . S
C1051 H1019 0.928 . S
C1051 C1049 1.406 . S
C1051 N1052 1.261 . S
N1052 Co1003 2.214 . S
N1052 C1050 1.325 . S
N1052 C1051 1.261 . S
C1053 H1023 0.931 . S
C1053 C1050 1.357 . S
C1053 C1054 1.312 . S
C1054 H1025 0.930 . S
C1054 C1049 1.261 . S
C1054 C1053 1.312 . S
C1055 O1027 1.214 . S
C1055 O1035 1.234 . S
C1056 H1028 0.929 . S
C1056 C1059 1.391 . S
C1056 C1061 1.391 . S
C1057 H1029 0.929 . S
C1057 C1058 1.390 . S
C1057 N1060 1.391 . S
C1058 H1030 0.930 . S
C1058 C1057 1.390 . S
C1058 C1059 1.392 . S
C1059 H1031 0.929 . S
C1059 C1056 1.391 . S
C1059 C1058 1.392 . S
N1060 Co1004 2.257 . S
N1060 C1057 1.391 . S
N1060 C1061 1.388 . S
C1061 H1032 0.930 . S
C1061 C1056 1.391 . S
C1061 N1060 1.388 . S
Co1062 O1064 2.143 . S
Co1062 O1070 2.074 . S
Co1062 O1073 2.093 . S
Co1062 O1086 2.097 . S
Co1062 N1103 2.151 . S
Co1062 N1111 2.214 . S
Co1063 O1064 2.160 . S
Co1063 O1069 2.058 . S
Co1063 O1079 2.057 . S
Co1063 O1094 2.037 . S
Co1063 N1098 2.145 . S
Co1063 N1119 2.257 . S
O1064 Co1062 2.143 . S
O1064 Co1063 2.160 . S
C1065 O1066 1.278 . S
C1065 O1073 1.224 . S
O1066 C1065 1.278 . S
C1067 O1068 1.245 . S
C1067 O1079 1.232 . S
O1068 C1067 1.245 . S
O1069 Co1063 2.058 . S
O1069 C1095 1.269 . S
O1070 Co1062 2.074 . S
O1070 C1095 1.257 . S
H1071 C1096 0.930 . S
H1072 C1102 0.930 . S
O1073 Co1062 2.093 . S
O1073 C1065 1.224 . S
H1074 C1106 0.929 . S
H1075 C1108 0.930 . S
H1076 C1109 0.930 . S
H1077 C1107 0.929 . S
H1078 C1110 0.928 . S
O1079 Co1063 2.057 . S
O1079 C1067 1.232 . S
H1080 C1099 0.929 . S
H1081 C1100 0.929 . S
H1082 C1112 0.931 . S
H1083 C1104 0.929 . S
H1084 C1113 0.930 . S
H1085 C1105 0.931 . S
O1086 Co1062 2.097 . S
O1086 C1114 1.214 . S
H1087 C1115 0.929 . S
H1088 C1116 0.929 . S
H1089 C1117 0.930 . S
H1090 C1118 0.929 . S
H1091 C1120 0.930 . S
H1092 C1097 0.930 . S
H1093 C1101 0.930 . S
O1094 Co1063 2.037 . S
O1094 C1114 1.234 . S
C1095 O1069 1.269 . S
C1095 O1070 1.257 . S
C1096 H1071 0.930 . S
C1096 C1099 1.388 . S
C1096 C1101 1.418 . S
C1097 H1092 0.930 . S
C1097 C1100 1.404 . S
C1097 C1101 1.353 . S
N1098 Co1063 2.145 . S
N1098 C1099 1.397 . S
N1098 C1100 1.334 . S
C1099 H1080 0.929 . S
C1099 C1096 1.388 . S
C1099 N1098 1.397 . S
C1100 H1081 0.929 . S
C1100 C1097 1.404 . S
C1100 N1098 1.334 . S
C1101 H1093 0.930 . S
C1101 C1096 1.418 . S
C1101 C1097 1.353 . S
C1102 H1072 0.930 . S
C1102 N1103 1.330 . S
C1102 C1104 1.446 . S
N1103 Co1062 2.151 . S
N1103 C1102 1.330 . S
N1103 C1107 1.418 . S
C1104 H1083 0.929 . S
C1104 C1102 1.446 . S
C1104 C1105 1.332 . S
C1105 H1085 0.931 . S
C1105 C1104 1.332 . S
C1105 C1106 1.267 . S
C1106 H1074 0.929 . S
C1106 C1105 1.267 . S
C1106 C1107 1.251 . S
C1107 H1077 0.929 . S
C1107 N1103 1.418 . S
C1107 C1106 1.251 . S
C1108 H1075 0.930 . S
C1108 C1110 1.406 1_554 S
C1108 C1113 1.261 . S
C1109 H1076 0.930 . S
C1109 N1111 1.325 . S
C1109 C1112 1.357 1_556 S
C1110 H1078 0.928 . S
C1110 C1108 1.406 1_556 S
C1110 N1111 1.261 . S
N1111 Co1062 2.214 . S
N1111 C1109 1.325 . S
N1111 C1110 1.261 . S
C1112 H1082 0.931 . S
C1112 C1109 1.357 1_554 S
C1112 C1113 1.312 . S
C1113 H1084 0.930 . S
C1113 C1108 1.261 . S
C1113 C1112 1.312 . S
C1114 O1086 1.214 . S
C1114 O1094 1.234 . S
C1115 H1087 0.929 . S
C1115 C1118 1.391 . S
C1115 C1120 1.391 . S
C1116 H1088 0.929 . S
C1116 C1117 1.390 . S
C1116 N1119 1.391 . S
C1117 H1089 0.930 . S
C1117 C1116 1.390 . S
C1117 C1118 1.392 . S
C1118 H1090 0.929 . S
C1118 C1115 1.391 . S
C1118 C1117 1.392 . S
N1119 Co1063 2.257 . S
N1119 C1116 1.391 . S
N1119 C1120 1.388 . S
C1120 H1091 0.930 . S
C1120 C1115 1.391 . S
C1120 N1119 1.388 . S
Co1121 O1123 2.143 . S
Co1121 O1129 2.074 . S
Co1121 O1132 2.093 . S
Co1121 O1145 2.097 1_545 S
Co1121 N1162 2.151 . S
Co1121 N1170 2.214 . S
Co1122 O1123 2.160 1_565 S
Co1122 O1128 2.058 1_565 S
Co1122 O1138 2.057 . S
Co1122 O1153 2.037 . S
Co1122 N1157 2.145 . S
Co1122 N1178 2.257 . S
O1123 Co1121 2.143 . S
O1123 Co1122 2.160 1_545 S
C1124 O1125 1.278 . S
C1124 O1132 1.224 1_565 S
O1125 C1124 1.278 . S
C1126 O1127 1.245 1_565 S
C1126 O1138 1.232 . S
O1127 C1126 1.245 1_545 S
O1128 Co1122 2.058 1_545 S
O1128 C1154 1.269 . S
O1129 Co1121 2.074 . S
O1129 C1154 1.257 . S
H1130 C1155 0.930 . S
H1131 C1161 0.930 . S
O1132 Co1121 2.093 . S
O1132 C1124 1.224 1_545 S
H1133 C1165 0.929 . S
H1134 C1167 0.930 . S
H1135 C1168 0.930 . S
H1136 C1166 0.929 . S
H1137 C1169 0.928 . S
O1138 Co1122 2.057 . S
O1138 C1126 1.232 . S
H1139 C1158 0.929 . S
H1140 C1159 0.929 . S
H1141 C1171 0.931 . S
H1142 C1163 0.929 . S
H1143 C1172 0.930 . S
H1144 C1164 0.931 . S
O1145 Co1121 2.097 1_565 S
O1145 C1173 1.214 . S
H1146 C1174 0.929 . S
H1147 C1175 0.929 . S
H1148 C1176 0.930 . S
H1149 C1177 0.929 . S
H1150 C1179 0.930 . S
H1151 C1156 0.930 . S
H1152 C1160 0.930 . S
O1153 Co1122 2.037 . S
O1153 C1173 1.234 . S
C1154 O1128 1.269 . S
C1154 O1129 1.257 . S
C1155 H1130 0.930 . S
C1155 C1158 1.388 . S
C1155 C1160 1.418 . S
C1156 H1151 0.930 . S
C1156 C1159 1.404 . S
C1156 C1160 1.353 . S
N1157 Co1122 2.145 . S
N1157 C1158 1.397 . S
N1157 C1159 1.334 . S
C1158 H1139 0.929 . S
C1158 C1155 1.388 . S
C1158 N1157 1.397 . S
C1159 H1140 0.929 . S
C1159 C1156 1.404 . S
C1159 N1157 1.334 . S
C1160 H1152 0.930 . S
C1160 C1155 1.418 . S
C1160 C1156 1.353 . S
C1161 H1131 0.930 . S
C1161 N1162 1.330 . S
C1161 C1163 1.446 . S
N1162 Co1121 2.151 . S
N1162 C1161 1.330 . S
N1162 C1166 1.418 . S
C1163 H1142 0.929 . S
C1163 C1161 1.446 . S
C1163 C1164 1.332 . S
C1164 H1144 0.931 . S
C1164 C1163 1.332 . S
C1164 C1165 1.267 . S
C1165 H1133 0.929 . S
C1165 C1164 1.267 . S
C1165 C1166 1.251 . S
C1166 H1136 0.929 . S
C1166 N1162 1.418 . S
C1166 C1165 1.251 . S
C1167 H1134 0.930 . S
C1167 C1169 1.406 1_554 S
C1167 C1172 1.261 . S
C1168 H1135 0.930 . S
C1168 N1170 1.325 . S
C1168 C1171 1.357 1_556 S
C1169 H1137 0.928 . S
C1169 C1167 1.406 1_556 S
C1169 N1170 1.261 . S
N1170 Co1121 2.214 . S
N1170 C1168 1.325 . S
N1170 C1169 1.261 . S
C1171 H1141 0.931 . S
C1171 C1168 1.357 1_554 S
C1171 C1172 1.312 . S
C1172 H1143 0.930 . S
C1172 C1167 1.261 . S
C1172 C1171 1.312 . S
C1173 O1145 1.214 . S
C1173 O1153 1.234 . S
C1174 H1146 0.929 . S
C1174 C1177 1.391 . S
C1174 C1179 1.391 . S
C1175 H1147 0.929 . S
C1175 C1176 1.390 . S
C1175 N1178 1.391 . S
C1176 H1148 0.930 . S
C1176 C1175 1.390 . S
C1176 C1177 1.392 . S
C1177 H1149 0.929 . S
C1177 C1174 1.391 . S
C1177 C1176 1.392 . S
N1178 Co1122 2.257 . S
N1178 C1175 1.391 . S
N1178 C1179 1.388 . S
C1179 H1150 0.930 . S
C1179 C1174 1.391 . S
C1179 N1178 1.388 . S
Co1180 O1182 2.143 . S
Co1180 O1188 2.074 . S
Co1180 O1191 2.093 . S
Co1180 O1204 2.097 . S
Co1180 N1221 2.151 . S
Co1180 N1229 2.214 . S
Co1181 O1182 2.160 . S
Co1181 O1187 2.058 . S
Co1181 O1197 2.057 . S
Co1181 O1212 2.037 . S
Co1181 N1216 2.145 . S
Co1181 N1237 2.257 . S
O1182 Co1180 2.143 . S
O1182 Co1181 2.160 . S
C1183 O1184 1.278 . S
C1183 O1191 1.224 . S
O1184 C1183 1.278 . S
C1185 O1186 1.245 . S
C1185 O1197 1.232 . S
O1186 C1185 1.245 . S
O1187 Co1181 2.058 . S
O1187 C1213 1.269 . S
O1188 Co1180 2.074 . S
O1188 C1213 1.257 . S
H1189 C1214 0.930 . S
H1190 C1220 0.930 . S
O1191 Co1180 2.093 . S
O1191 C1183 1.224 . S
H1192 C1224 0.929 . S
H1193 C1226 0.930 . S
H1194 C1227 0.930 . S
H1195 C1225 0.929 . S
H1196 C1228 0.928 . S
O1197 Co1181 2.057 . S
O1197 C1185 1.232 . S
H1198 C1217 0.929 . S
H1199 C1218 0.929 . S
H1200 C1230 0.931 . S
H1201 C1222 0.929 . S
H1202 C1231 0.930 . S
H1203 C1223 0.931 . S
O1204 Co1180 2.097 . S
O1204 C1232 1.214 . S
H1205 C1233 0.929 . S
H1206 C1234 0.929 . S
H1207 C1235 0.930 . S
H1208 C1236 0.929 . S
H1209 C1238 0.930 . S
H1210 C1215 0.930 . S
H1211 C1219 0.930 . S
O1212 Co1181 2.037 . S
O1212 C1232 1.234 . S
C1213 O1187 1.269 . S
C1213 O1188 1.257 . S
C1214 H1189 0.930 . S
C1214 C1217 1.388 . S
C1214 C1219 1.418 . S
C1215 H1210 0.930 . S
C1215 C1218 1.404 . S
C1215 C1219 1.353 . S
N1216 Co1181 2.145 . S
N1216 C1217 1.397 . S
N1216 C1218 1.334 . S
C1217 H1198 0.929 . S
C1217 C1214 1.388 . S
C1217 N1216 1.397 . S
C1218 H1199 0.929 . S
C1218 C1215 1.404 . S
C1218 N1216 1.334 . S
C1219 H1211 0.930 . S
C1219 C1214 1.418 . S
C1219 C1215 1.353 . S
C1220 H1190 0.930 . S
C1220 N1221 1.330 . S
C1220 C1222 1.446 . S
N1221 Co1180 2.151 . S
N1221 C1220 1.330 . S
N1221 C1225 1.418 . S
C1222 H1201 0.929 . S
C1222 C1220 1.446 . S
C1222 C1223 1.332 . S
C1223 H1203 0.931 . S
C1223 C1222 1.332 . S
C1223 C1224 1.267 . S
C1224 H1192 0.929 . S
C1224 C1223 1.267 . S
C1224 C1225 1.251 . S
C1225 H1195 0.929 . S
C1225 N1221 1.418 . S
C1225 C1224 1.251 . S
C1226 H1193 0.930 . S
C1226 C1228 1.406 . S
C1226 C1231 1.261 . S
C1227 H1194 0.930 . S
C1227 N1229 1.325 . S
C1227 C1230 1.357 . S
C1228 H1196 0.928 . S
C1228 C1226 1.406 . S
C1228 N1229 1.261 . S
N1229 Co1180 2.214 . S
N1229 C1227 1.325 . S
N1229 C1228 1.261 . S
C1230 H1200 0.931 . S
C1230 C1227 1.357 . S
C1230 C1231 1.312 . S
C1231 H1202 0.930 . S
C1231 C1226 1.261 . S
C1231 C1230 1.312 . S
C1232 O1204 1.214 . S
C1232 O1212 1.234 . S
C1233 H1205 0.929 . S
C1233 C1236 1.391 . S
C1233 C1238 1.391 . S
C1234 H1206 0.929 . S
C1234 C1235 1.390 . S
C1234 N1237 1.391 . S
C1235 H1207 0.930 . S
C1235 C1234 1.390 . S
C1235 C1236 1.392 . S
C1236 H1208 0.929 . S
C1236 C1233 1.391 . S
C1236 C1235 1.392 . S
N1237 Co1181 2.257 . S
N1237 C1234 1.391 . S
N1237 C1238 1.388 . S
C1238 H1209 0.930 . S
C1238 C1233 1.391 . S
C1238 N1237 1.388 . S
Co1239 O1241 2.143 . S
Co1239 O1247 2.074 . S
Co1239 O1250 2.093 . S
Co1239 O1263 2.097 1_556 S
Co1239 N1280 2.151 . S
Co1239 N1288 2.214 . S
Co1240 O1241 2.160 1_554 S
Co1240 O1246 2.058 1_554 S
Co1240 O1256 2.057 . S
Co1240 O1271 2.037 . S
Co1240 N1275 2.145 . S
Co1240 N1296 2.257 . S
O1241 Co1239 2.143 . S
O1241 Co1240 2.160 1_556 S
C1242 O1243 1.278 . S
C1242 O1250 1.224 1_554 S
O1243 C1242 1.278 . S
C1244 O1245 1.245 1_554 S
C1244 O1256 1.232 . S
O1245 C1244 1.245 1_556 S
O1246 Co1240 2.058 1_556 S
O1246 C1272 1.269 . S
O1247 Co1239 2.074 . S
O1247 C1272 1.257 . S
H1248 C1273 0.930 . S
H1249 C1279 0.930 . S
O1250 Co1239 2.093 . S
O1250 C1242 1.224 1_556 S
H1251 C1283 0.929 . S
H1252 C1285 0.930 . S
H1253 C1286 0.930 . S
H1254 C1284 0.929 . S
H1255 C1287 0.928 . S
O1256 Co1240 2.057 . S
O1256 C1244 1.232 . S
H1257 C1276 0.929 . S
H1258 C1277 0.929 . S
H1259 C1289 0.931 . S
H1260 C1281 0.929 . S
H1261 C1290 0.930 . S
H1262 C1282 0.931 . S
O1263 Co1239 2.097 1_554 S
O1263 C1291 1.214 . S
H1264 C1292 0.929 . S
H1265 C1293 0.929 . S
H1266 C1294 0.930 . S
H1267 C1295 0.929 . S
H1268 C1297 0.930 . S
H1269 C1274 0.930 . S
H1270 C1278 0.930 . S
O1271 Co1240 2.037 . S
O1271 C1291 1.234 . S
C1272 O1246 1.269 . S
C1272 O1247 1.257 . S
C1273 H1248 0.930 . S
C1273 C1276 1.388 . S
C1273 C1278 1.418 . S
C1274 H1269 0.930 . S
C1274 C1277 1.404 . S
C1274 C1278 1.353 . S
N1275 Co1240 2.145 . S
N1275 C1276 1.397 . S
N1275 C1277 1.334 . S
C1276 H1257 0.929 . S
C1276 C1273 1.388 . S
C1276 N1275 1.397 . S
C1277 H1258 0.929 . S
C1277 C1274 1.404 . S
C1277 N1275 1.334 . S
C1278 H1270 0.930 . S
C1278 C1273 1.418 . S
C1278 C1274 1.353 . S
C1279 H1249 0.930 . S
C1279 N1280 1.330 . S
C1279 C1281 1.446 . S
N1280 Co1239 2.151 . S
N1280 C1279 1.330 . S
N1280 C1284 1.418 . S
C1281 H1260 0.929 . S
C1281 C1279 1.446 . S
C1281 C1282 1.332 . S
C1282 H1262 0.931 . S
C1282 C1281 1.332 . S
C1282 C1283 1.267 . S
C1283 H1251 0.929 . S
C1283 C1282 1.267 . S
C1283 C1284 1.251 . S
C1284 H1254 0.929 . S
C1284 N1280 1.418 . S
C1284 C1283 1.251 . S
C1285 H1252 0.930 . S
C1285 C1287 1.406 . S
C1285 C1290 1.261 . S
C1286 H1253 0.930 . S
C1286 N1288 1.325 . S
C1286 C1289 1.357 . S
C1287 H1255 0.928 . S
C1287 C1285 1.406 . S
C1287 N1288 1.261 . S
N1288 Co1239 2.214 . S
N1288 C1286 1.325 . S
N1288 C1287 1.261 . S
C1289 H1259 0.931 . S
C1289 C1286 1.357 . S
C1289 C1290 1.312 . S
C1290 H1261 0.930 . S
C1290 C1285 1.261 . S
C1290 C1289 1.312 . S
C1291 O1263 1.214 . S
C1291 O1271 1.234 . S
C1292 H1264 0.929 . S
C1292 C1295 1.391 . S
C1292 C1297 1.391 . S
C1293 H1265 0.929 . S
C1293 C1294 1.390 . S
C1293 N1296 1.391 . S
C1294 H1266 0.930 . S
C1294 C1293 1.390 . S
C1294 C1295 1.392 . S
C1295 H1267 0.929 . S
C1295 C1292 1.391 . S
C1295 C1294 1.392 . S
N1296 Co1240 2.257 . S
N1296 C1293 1.391 . S
N1296 C1297 1.388 . S
C1297 H1268 0.930 . S
C1297 C1292 1.391 . S
C1297 N1296 1.388 . S
Co1298 O1300 2.162 . S
Co1298 O1306 2.074 . S
Co1298 O1309 2.093 . S
Co1298 O1322 2.097 1_556 S
Co1298 N1339 2.151 . S
Co1298 N1347 2.214 . S
Co1299 O1300 2.141 1_554 S
Co1299 O1305 2.058 1_554 S
Co1299 O1315 2.057 . S
Co1299 O1330 2.037 . S
Co1299 N1334 2.145 . S
Co1299 N1355 2.257 . S
O1300 Co1298 2.162 . S
O1300 Co1299 2.141 1_556 S
C1301 O1302 1.278 . S
C1301 O1309 1.224 1_554 S
O1302 C1301 1.278 . S
C1303 O1304 1.245 1_554 S
C1303 O1315 1.232 . S
O1304 C1303 1.245 1_556 S
O1305 Co1299 2.058 1_556 S
O1305 C1331 1.269 . S
O1306 Co1298 2.074 . S
O1306 C1331 1.257 . S
H1307 C1332 0.930 . S
H1308 C1338 0.930 . S
O1309 Co1298 2.093 . S
O1309 C1301 1.224 1_556 S
H1310 C1342 0.929 . S
H1311 C1344 0.930 . S
H1312 C1345 0.930 . S
H1313 C1343 0.929 . S
H1314 C1346 0.928 . S
O1315 Co1299 2.057 . S
O1315 C1303 1.232 . S
H1316 C1335 0.929 . S
H1317 C1336 0.929 . S
H1318 C1348 0.931 . S
H1319 C1340 0.929 . S
H1320 C1349 0.930 . S
H1321 C1341 0.931 . S
O1322 Co1298 2.097 1_554 S
O1322 C1350 1.214 . S
H1323 C1351 0.929 . S
H1324 C1352 0.929 . S
H1325 C1353 0.930 . S
H1326 C1354 0.929 . S
H1327 C1356 0.930 . S
H1328 C1333 0.930 . S
H1329 C1337 0.930 . S
O1330 Co1299 2.037 . S
O1330 C1350 1.234 . S
C1331 O1305 1.269 . S
C1331 O1306 1.257 . S
C1332 H1307 0.930 . S
C1332 C1335 1.388 . S
C1332 C1337 1.418 . S
C1333 H1328 0.930 . S
C1333 C1336 1.404 . S
C1333 C1337 1.353 . S
N1334 Co1299 2.145 . S
N1334 C1335 1.397 . S
N1334 C1336 1.334 . S
C1335 H1316 0.929 . S
C1335 C1332 1.388 . S
C1335 N1334 1.397 . S
C1336 H1317 0.929 . S
C1336 C1333 1.404 . S
C1336 N1334 1.334 . S
C1337 H1329 0.930 . S
C1337 C1332 1.418 . S
C1337 C1333 1.353 . S
C1338 H1308 0.930 . S
C1338 N1339 1.330 . S
C1338 C1340 1.446 . S
N1339 Co1298 2.151 . S
N1339 C1338 1.330 . S
N1339 C1343 1.418 . S
C1340 H1319 0.929 . S
C1340 C1338 1.446 . S
C1340 C1341 1.332 . S
C1341 H1321 0.931 . S
C1341 C1340 1.332 . S
C1341 C1342 1.267 . S
C1342 H1310 0.929 . S
C1342 C1341 1.267 . S
C1342 C1343 1.251 . S
C1343 H1313 0.929 . S
C1343 N1339 1.418 . S
C1343 C1342 1.251 . S
C1344 H1311 0.930 . S
C1344 C1346 1.406 . S
C1344 C1349 1.261 . S
C1345 H1312 0.930 . S
C1345 N1347 1.325 . S
C1345 C1348 1.357 . S
C1346 H1314 0.928 . S
C1346 C1344 1.406 . S
C1346 N1347 1.261 . S
N1347 Co1298 2.214 . S
N1347 C1345 1.325 . S
N1347 C1346 1.261 . S
C1348 H1318 0.931 . S
C1348 C1345 1.357 . S
C1348 C1349 1.312 . S
C1349 H1320 0.930 . S
C1349 C1344 1.261 . S
C1349 C1348 1.312 . S
C1350 O1322 1.214 . S
C1350 O1330 1.234 . S
C1351 H1323 0.929 . S
C1351 C1354 1.391 . S
C1351 C1356 1.391 . S
C1352 H1324 0.929 . S
C1352 C1353 1.390 . S
C1352 N1355 1.391 . S
C1353 H1325 0.930 . S
C1353 C1352 1.390 . S
C1353 C1354 1.392 . S
C1354 H1326 0.929 . S
C1354 C1351 1.391 . S
C1354 C1353 1.392 . S
N1355 Co1299 2.257 . S
N1355 C1352 1.391 . S
N1355 C1356 1.388 . S
C1356 H1327 0.930 . S
C1356 C1351 1.391 . S
C1356 N1355 1.388 . S
Co1357 O1359 2.143 . S
Co1357 O1365 2.074 . S
Co1357 O1368 2.093 . S
Co1357 O1381 2.097 1_554 S
Co1357 N1398 2.151 . S
Co1357 N1406 2.214 . S
Co1358 O1359 2.160 1_556 S
Co1358 O1364 2.058 1_556 S
Co1358 O1374 2.057 . S
Co1358 O1389 2.037 . S
Co1358 N1393 2.145 . S
Co1358 N1414 2.257 . S
O1359 Co1357 2.143 . S
O1359 Co1358 2.160 1_554 S
C1360 O1361 1.278 . S
C1360 O1368 1.224 1_556 S
O1361 C1360 1.278 . S
C1362 O1363 1.245 1_556 S
C1362 O1374 1.232 . S
O1363 C1362 1.245 1_554 S
O1364 Co1358 2.058 1_554 S
O1364 C1390 1.269 . S
O1365 Co1357 2.074 . S
O1365 C1390 1.257 . S
H1366 C1391 0.930 . S
H1367 C1397 0.930 . S
O1368 Co1357 2.093 . S
O1368 C1360 1.224 1_554 S
H1369 C1401 0.929 . S
H1370 C1403 0.930 . S
H1371 C1404 0.930 . S
H1372 C1402 0.929 . S
H1373 C1405 0.928 . S
O1374 Co1358 2.057 . S
O1374 C1362 1.232 . S
H1375 C1394 0.929 . S
H1376 C1395 0.929 . S
H1377 C1407 0.931 . S
H1378 C1399 0.929 . S
H1379 C1408 0.930 . S
H1380 C1400 0.931 . S
O1381 Co1357 2.097 1_556 S
O1381 C1409 1.214 . S
H1382 C1410 0.929 . S
H1383 C1411 0.929 . S
H1384 C1412 0.930 . S
H1385 C1413 0.929 . S
H1386 C1415 0.930 . S
H1387 C1392 0.930 . S
H1388 C1396 0.930 . S
O1389 Co1358 2.037 . S
O1389 C1409 1.234 . S
C1390 O1364 1.269 . S
C1390 O1365 1.257 . S
C1391 H1366 0.930 . S
C1391 C1394 1.388 . S
C1391 C1396 1.418 . S
C1392 H1387 0.930 . S
C1392 C1395 1.404 . S
C1392 C1396 1.353 . S
N1393 Co1358 2.145 . S
N1393 C1394 1.397 . S
N1393 C1395 1.334 . S
C1394 H1375 0.929 . S
C1394 C1391 1.388 . S
C1394 N1393 1.397 . S
C1395 H1376 0.929 . S
C1395 C1392 1.404 . S
C1395 N1393 1.334 . S
C1396 H1388 0.930 . S
C1396 C1391 1.418 . S
C1396 C1392 1.353 . S
C1397 H1367 0.930 . S
C1397 N1398 1.330 . S
C1397 C1399 1.446 . S
N1398 Co1357 2.151 . S
N1398 C1397 1.330 . S
N1398 C1402 1.418 . S
C1399 H1378 0.929 . S
C1399 C1397 1.446 . S
C1399 C1400 1.332 . S
C1400 H1380 0.931 . S
C1400 C1399 1.332 . S
C1400 C1401 1.267 . S
C1401 H1369 0.929 . S
C1401 C1400 1.267 . S
C1401 C1402 1.251 . S
C1402 H1372 0.929 . S
C1402 N1398 1.418 . S
C1402 C1401 1.251 . S
C1403 H1370 0.930 . S
C1403 C1405 1.406 1_455 S
C1403 C1408 1.261 . S
C1404 H1371 0.930 . S
C1404 N1406 1.325 . S
C1404 C1407 1.357 1_655 S
C1405 H1373 0.928 . S
C1405 C1403 1.406 1_655 S
C1405 N1406 1.261 . S
N1406 Co1357 2.214 . S
N1406 C1404 1.325 . S
N1406 C1405 1.261 . S
C1407 H1377 0.931 . S
C1407 C1404 1.357 1_455 S
C1407 C1408 1.312 . S
C1408 H1379 0.930 . S
C1408 C1403 1.261 . S
C1408 C1407 1.312 . S
C1409 O1381 1.214 . S
C1409 O1389 1.234 . S
C1410 H1382 0.929 . S
C1410 C1413 1.391 . S
C1410 C1415 1.391 . S
C1411 H1383 0.929 . S
C1411 C1412 1.390 . S
C1411 N1414 1.391 . S
C1412 H1384 0.930 . S
C1412 C1411 1.390 . S
C1412 C1413 1.392 . S
C1413 H1385 0.929 . S
C1413 C1410 1.391 . S
C1413 C1412 1.392 . S
N1414 Co1358 2.257 . S
N1414 C1411 1.391 . S
N1414 C1415 1.388 . S
C1415 H1386 0.930 . S
C1415 C1410 1.391 . S
C1415 N1414 1.388 . S
C1416 C1417 1.391 . S
C1416 C1418 1.394 . S
C1416 H1432 0.931 . S
C1417 C1416 1.391 . S
C1417 C1421 1.376 . S
C1418 C1416 1.394 . S
C1418 C1419 1.369 . S
C1418 C1422 1.531 . S
C1419 C1418 1.369 . S
C1419 C1420 1.410 . S
C1419 C1427 1.503 . S
C1420 C1419 1.410 . S
C1420 C1421 1.392 . S
C1420 C1423 1.511 . S
C1421 C1417 1.376 . S
C1421 C1420 1.392 . S
C1421 H1433 0.929 . S
C1422 C1418 1.531 . S
C1422 H1434 0.960 . S
C1422 H1435 0.962 . S
C1422 H1436 0.960 . S
C1423 C1420 1.511 . S
C1423 H1437 0.961 . S
C1423 H1438 0.961 . S
C1423 H1439 0.961 . S
C1424 C1425 1.370 . S
C1424 C1426 1.363 . S
C1424 H1440 0.931 . S
C1425 C1424 1.370 . S
C1425 C1429 1.408 . S
C1426 C1424 1.363 . S
C1426 C1427 1.370 . S
C1426 C1430 1.524 . S
C1427 C1419 1.503 . S
C1427 C1426 1.370 . S
C1427 C1428 1.403 . S
C1428 C1427 1.403 . S
C1428 C1429 1.404 . S
C1428 C1431 1.539 . S
C1429 C1425 1.408 . S
C1429 C1428 1.404 . S
C1429 H1441 0.930 . S
C1430 C1426 1.524 . S
C1430 H1442 0.956 . S
C1430 H1443 0.961 . S
C1430 H1444 0.961 . S
C1431 C1428 1.539 . S
C1431 H1445 0.958 . S
C1431 H1446 0.961 . S
C1431 H1447 0.960 . S
H1432 C1416 0.931 . S
H1433 C1421 0.929 . S
H1434 C1422 0.960 . S
H1435 C1422 0.962 . S
H1436 C1422 0.960 . S
H1437 C1423 0.961 . S
H1438 C1423 0.961 . S
H1439 C1423 0.961 . S
H1440 C1424 0.931 . S
H1441 C1429 0.930 . S
H1442 C1430 0.956 . S
H1443 C1430 0.961 . S
H1444 C1430 0.961 . S
H1445 C1431 0.958 . S
H1446 C1431 0.961 . S
H1447 C1431 0.960 . S
C1448 C1449 1.391 . S
C1448 C1450 1.394 . S
C1448 H1464 0.931 . S
C1449 C1448 1.391 . S
C1449 C1453 1.376 . S
C1450 C1448 1.394 . S
C1450 C1451 1.369 . S
C1450 C1454 1.531 . S
C1451 C1450 1.369 . S
C1451 C1452 1.410 . S
C1451 C1459 1.503 . S
C1452 C1451 1.410 . S
C1452 C1453 1.392 . S
C1452 C1455 1.511 . S
C1453 C1449 1.376 . S
C1453 C1452 1.392 . S
C1453 H1465 0.929 . S
C1454 C1450 1.531 . S
C1454 H1466 0.960 . S
C1454 H1467 0.962 . S
C1454 H1468 0.960 . S
C1455 C1452 1.511 . S
C1455 H1469 0.961 . S
C1455 H1470 0.961 . S
C1455 H1471 0.961 . S
C1456 C1457 1.370 . S
C1456 C1458 1.363 . S
C1456 H1472 0.931 . S
C1457 C1456 1.370 . S
C1457 C1461 1.408 . S
C1458 C1456 1.363 . S
C1458 C1459 1.370 . S
C1458 C1462 1.524 . S
C1459 C1451 1.503 . S
C1459 C1458 1.370 . S
C1459 C1460 1.403 . S
C1460 C1459 1.403 . S
C1460 C1461 1.404 . S
C1460 C1463 1.539 . S
C1461 C1457 1.408 . S
C1461 C1460 1.404 . S
C1461 H1473 0.930 . S
C1462 C1458 1.524 . S
C1462 H1474 0.956 . S
C1462 H1475 0.961 . S
C1462 H1476 0.961 . S
C1463 C1460 1.539 . S
C1463 H1477 0.958 . S
C1463 H1478 0.961 . S
C1463 H1479 0.960 . S
H1464 C1448 0.931 . S
H1465 C1453 0.929 . S
H1466 C1454 0.960 . S
H1467 C1454 0.962 . S
H1468 C1454 0.960 . S
H1469 C1455 0.961 . S
H1470 C1455 0.961 . S
H1471 C1455 0.961 . S
H1472 C1456 0.931 . S
H1473 C1461 0.930 . S
H1474 C1462 0.956 . S
H1475 C1462 0.961 . S
H1476 C1462 0.961 . S
H1477 C1463 0.958 . S
H1478 C1463 0.961 . S
H1479 C1463 0.960 . S
C1480 C1481 1.391 . S
C1480 C1482 1.394 . S
C1480 H1496 0.931 . S
C1481 C1480 1.391 . S
C1481 C1485 1.376 . S
C1482 C1480 1.394 . S
C1482 C1483 1.369 . S
C1482 C1486 1.531 . S
C1483 C1482 1.369 . S
C1483 C1484 1.410 . S
C1483 C1491 1.503 . S
C1484 C1483 1.410 . S
C1484 C1485 1.392 . S
C1484 C1487 1.511 . S
C1485 C1481 1.376 . S
C1485 C1484 1.392 . S
C1485 H1497 0.929 . S
C1486 C1482 1.531 . S
C1486 H1498 0.960 1_554 S
C1486 H1499 0.962 . S
C1486 H1500 0.960 . S
C1487 C1484 1.511 . S
C1487 H1501 0.961 . S
C1487 H1502 0.961 . S
C1487 H1503 0.961 . S
C1488 C1489 1.370 . S
C1488 C1490 1.363 1_556 S
C1488 H1504 0.931 . S
C1489 C1488 1.370 . S
C1489 C1493 1.408 . S
C1490 C1488 1.363 1_554 S
C1490 C1491 1.370 . S
C1490 C1494 1.524 . S
C1491 C1483 1.503 . S
C1491 C1490 1.370 . S
C1491 C1492 1.403 1_554 S
C1492 C1491 1.403 1_556 S
C1492 C1493 1.404 . S
C1492 C1495 1.539 . S
C1493 C1489 1.408 . S
C1493 C1492 1.404 . S
C1493 H1505 0.930 . S
C1494 C1490 1.524 . S
C1494 H1506 0.956 . S
C1494 H1507 0.961 . S
C1494 H1508 0.961 . S
C1495 C1492 1.539 . S
C1495 H1509 0.958 . S
C1495 H1510 0.961 . S
C1495 H1511 0.960 1_556 S
H1496 C1480 0.931 . S
H1497 C1485 0.929 . S
H1498 C1486 0.960 1_556 S
H1499 C1486 0.962 . S
H1500 C1486 0.960 . S
H1501 C1487 0.961 . S
H1502 C1487 0.961 . S
H1503 C1487 0.961 . S
H1504 C1488 0.931 . S
H1505 C1493 0.930 . S
H1506 C1494 0.956 . S
H1507 C1494 0.961 . S
H1508 C1494 0.961 . S
H1509 C1495 0.958 . S
H1510 C1495 0.961 . S
H1511 C1495 0.960 1_554 S
C1512 C1513 1.391 . S
C1512 C1514 1.394 . S
C1512 H1528 0.931 . S
C1513 C1512 1.391 . S
C1513 C1517 1.376 . S
C1514 C1512 1.394 . S
C1514 C1515 1.369 . S
C1514 C1518 1.531 . S
C1515 C1514 1.369 . S
C1515 C1516 1.410 . S
C1515 C1523 1.503 . S
C1516 C1515 1.410 . S
C1516 C1517 1.392 . S
C1516 C1519 1.511 . S
C1517 C1513 1.376 . S
C1517 C1516 1.392 . S
C1517 H1529 0.929 . S
C1518 C1514 1.531 . S
C1518 H1530 0.960 1_554 S
C1518 H1531 0.962 . S
C1518 H1532 0.960 . S
C1519 C1516 1.511 . S
C1519 H1533 0.961 . S
C1519 H1534 0.961 . S
C1519 H1535 0.961 . S
C1520 C1521 1.370 . S
C1520 C1522 1.363 1_556 S
C1520 H1536 0.931 . S
C1521 C1520 1.370 . S
C1521 C1525 1.408 . S
C1522 C1520 1.363 1_554 S
C1522 C1523 1.370 . S
C1522 C1526 1.524 . S
C1523 C1515 1.503 . S
C1523 C1522 1.370 . S
C1523 C1524 1.403 1_554 S
C1524 C1523 1.403 1_556 S
C1524 C1525 1.404 . S
C1524 C1527 1.544 . S
C1525 C1521 1.408 . S
C1525 C1524 1.404 . S
C1525 H1537 0.930 . S
C1526 C1522 1.524 . S
C1526 H1538 0.956 . S
C1526 H1539 0.961 . S
C1526 H1540 0.961 . S
C1527 C1524 1.544 . S
C1527 H1541 0.965 . S
C1527 H1542 0.969 . S
C1527 H1543 0.941 1_556 S
H1528 C1512 0.931 . S
H1529 C1517 0.929 . S
H1530 C1518 0.960 1_556 S
H1531 C1518 0.962 . S
H1532 C1518 0.960 . S
H1533 C1519 0.961 . S
H1534 C1519 0.961 . S
H1535 C1519 0.961 . S
H1536 C1520 0.931 . S
H1537 C1525 0.930 . S
H1538 C1526 0.956 . S
H1539 C1526 0.961 . S
H1540 C1526 0.961 . S
H1541 C1527 0.965 . S
H1542 C1527 0.969 . S
H1543 C1527 0.941 1_554 S
C1544 C1545 1.391 . S
C1544 C1546 1.394 . S
C1544 H1560 0.931 . S
C1545 C1544 1.391 . S
C1545 C1549 1.376 . S
C1546 C1544 1.394 . S
C1546 C1547 1.369 . S
C1546 C1550 1.531 . S
C1547 C1546 1.369 . S
C1547 C1548 1.410 . S
C1547 C1555 1.503 . S
C1548 C1547 1.410 . S
C1548 C1549 1.392 . S
C1548 C1551 1.511 . S
C1549 C1545 1.376 . S
C1549 C1548 1.392 . S
C1549 H1561 0.929 . S
C1550 C1546 1.531 . S
C1550 H1562 0.960 . S
C1550 H1563 0.962 . S
C1550 H1564 0.960 . S
C1551 C1548 1.511 . S
C1551 H1565 0.961 . S
C1551 H1566 0.961 . S
C1551 H1567 0.961 . S
C1552 C1553 1.370 . S
C1552 C1554 1.363 . S
C1552 H1568 0.931 . S
C1553 C1552 1.370 . S
C1553 C1557 1.408 . S
C1554 C1552 1.363 . S
C1554 C1555 1.370 . S
C1554 C1558 1.524 . S
C1555 C1547 1.503 . S
C1555 C1554 1.370 . S
C1555 C1556 1.403 . S
C1556 C1555 1.403 . S
C1556 C1557 1.404 . S
C1556 C1559 1.539 . S
C1557 C1553 1.408 . S
C1557 C1556 1.404 . S
C1557 H1569 0.930 . S
C1558 C1554 1.524 . S
C1558 H1570 0.956 . S
C1558 H1571 0.961 . S
C1558 H1572 0.961 . S
C1559 C1556 1.539 . S
C1559 H1573 0.958 . S
C1559 H1574 0.961 . S
C1559 H1575 0.960 . S
H1560 C1544 0.931 . S
H1561 C1549 0.929 . S
H1562 C1550 0.960 . S
H1563 C1550 0.962 . S
H1564 C1550 0.960 . S
H1565 C1551 0.961 . S
H1566 C1551 0.961 . S
H1567 C1551 0.961 . S
H1568 C1552 0.931 . S
H1569 C1557 0.930 . S
H1570 C1558 0.956 . S
H1571 C1558 0.961 . S
H1572 C1558 0.961 . S
H1573 C1559 0.958 . S
H1574 C1559 0.961 . S
H1575 C1559 0.960 . S
C1576 C1577 1.391 . S
C1576 C1578 1.394 . S
C1576 H1592 0.931 . S
C1577 C1576 1.391 . S
C1577 C1581 1.376 . S
C1578 C1576 1.394 . S
C1578 C1579 1.369 . S
C1578 C1582 1.531 . S
C1579 C1578 1.369 . S
C1579 C1580 1.410 . S
C1579 C1587 1.503 . S
C1580 C1579 1.410 . S
C1580 C1581 1.392 . S
C1580 C1583 1.511 . S
C1581 C1577 1.376 . S
C1581 C1580 1.392 . S
C1581 H1593 0.929 . S
C1582 C1578 1.531 . S
C1582 H1594 0.960 . S
C1582 H1595 0.962 . S
C1582 H1596 0.960 . S
C1583 C1580 1.511 . S
C1583 H1597 0.961 . S
C1583 H1598 0.961 . S
C1583 H1599 0.961 . S
C1584 C1585 1.370 . S
C1584 C1586 1.363 . S
C1584 H1600 0.931 . S
C1585 C1584 1.370 . S
C1585 C1589 1.408 . S
C1586 C1584 1.363 . S
C1586 C1587 1.370 . S
C1586 C1590 1.524 . S
C1587 C1579 1.503 . S
C1587 C1586 1.370 . S
C1587 C1588 1.403 . S
C1588 C1587 1.403 . S
C1588 C1589 1.404 . S
C1588 C1591 1.539 . S
C1589 C1585 1.408 . S
C1589 C1588 1.404 . S
C1589 H1601 0.930 . S
C1590 C1586 1.524 . S
C1590 H1602 0.956 . S
C1590 H1603 0.961 . S
C1590 H1604 0.961 . S
C1591 C1588 1.539 . S
C1591 H1605 0.958 . S
C1591 H1606 0.961 1_554 S
C1591 H1607 0.960 . S
H1592 C1576 0.931 . S
H1593 C1581 0.929 . S
H1594 C1582 0.960 . S
H1595 C1582 0.962 . S
H1596 C1582 0.960 . S
H1597 C1583 0.961 . S
H1598 C1583 0.961 . S
H1599 C1583 0.961 . S
H1600 C1584 0.931 . S
H1601 C1589 0.930 . S
H1602 C1590 0.956 . S
H1603 C1590 0.961 . S
H1604 C1590 0.961 . S
H1605 C1591 0.958 . S
H1606 C1591 0.961 1_556 S
H1607 C1591 0.960 . S
C1608 C1609 1.391 . S
C1608 C1610 1.394 . S
C1608 H1624 0.931 . S
C1609 C1608 1.391 . S
C1609 C1613 1.376 . S
C1610 C1608 1.394 . S
C1610 C1611 1.369 . S
C1610 C1614 1.531 . S
C1611 C1610 1.369 . S
C1611 C1612 1.410 . S
C1611 C1619 1.503 . S
C1612 C1611 1.410 . S
C1612 C1613 1.392 . S
C1612 C1615 1.511 . S
C1613 C1609 1.376 . S
C1613 C1612 1.392 . S
C1613 H1625 0.929 . S
C1614 C1610 1.531 . S
C1614 H1626 0.960 . S
C1614 H1627 0.962 . S
C1614 H1628 0.960 . S
C1615 C1612 1.511 . S
C1615 H1629 0.961 . S
C1615 H1630 0.961 . S
C1615 H1631 0.961 . S
C1616 C1617 1.370 . S
C1616 C1618 1.363 . S
C1616 H1632 0.931 . S
C1617 C1616 1.370 . S
C1617 C1621 1.408 . S
C1618 C1616 1.363 . S
C1618 C1619 1.370 . S
C1618 C1622 1.524 . S
C1619 C1611 1.503 . S
C1619 C1618 1.370 . S
C1619 C1620 1.403 . S
C1620 C1619 1.403 . S
C1620 C1621 1.404 . S
C1620 C1623 1.539 . S
C1621 C1617 1.408 . S
C1621 C1620 1.404 . S
C1621 H1633 0.930 . S
C1622 C1618 1.524 . S
C1622 H1634 0.956 . S
C1622 H1635 0.961 . S
C1622 H1636 0.961 . S
C1623 C1620 1.539 . S
C1623 H1637 0.958 . S
C1623 H1638 0.961 . S
C1623 H1639 0.960 . S
H1624 C1608 0.931 . S
H1625 C1613 0.929 . S
H1626 C1614 0.960 . S
H1627 C1614 0.962 . S
H1628 C1614 0.960 . S
H1629 C1615 0.961 . S
H1630 C1615 0.961 . S
H1631 C1615 0.961 . S
H1632 C1616 0.931 . S
H1633 C1621 0.930 . S
H1634 C1622 0.956 . S
H1635 C1622 0.961 . S
H1636 C1622 0.961 . S
H1637 C1623 0.958 . S
H1638 C1623 0.961 . S
H1639 C1623 0.960 . S
C1640 C1641 1.391 . S
C1640 C1642 1.394 . S
C1640 H1656 0.931 . S
C1641 C1640 1.391 . S
C1641 C1645 1.376 . S
C1642 C1640 1.394 . S
C1642 C1643 1.369 . S
C1642 C1646 1.531 . S
C1643 C1642 1.369 . S
C1643 C1644 1.410 . S
C1643 C1651 1.503 . S
C1644 C1643 1.410 . S
C1644 C1645 1.392 . S
C1644 C1647 1.511 . S
C1645 C1641 1.376 . S
C1645 C1644 1.392 . S
C1645 H1657 0.929 . S
C1646 C1642 1.531 . S
C1646 H1658 0.960 . S
C1646 H1659 0.962 . S
C1646 H1660 0.960 . S
C1647 C1644 1.511 . S
C1647 H1661 0.961 . S
C1647 H1662 0.961 . S
C1647 H1663 0.961 . S
C1648 C1649 1.370 . S
C1648 C1650 1.363 . S
C1648 H1664 0.931 . S
C1649 C1648 1.370 . S
C1649 C1653 1.408 . S
C1650 C1648 1.363 . S
C1650 C1651 1.370 . S
C1650 C1654 1.524 . S
C1651 C1643 1.503 . S
C1651 C1650 1.370 . S
C1651 C1652 1.403 . S
C1652 C1651 1.403 . S
C1652 C1653 1.404 . S
C1652 C1655 1.539 . S
C1653 C1649 1.408 . S
C1653 C1652 1.404 . S
C1653 H1665 0.930 . S
C1654 C1650 1.524 . S
C1654 H1666 0.956 . S
C1654 H1667 0.961 . S
C1654 H1668 0.961 . S
C1655 C1652 1.539 . S
C1655 H1669 0.958 . S
C1655 H1670 0.961 . S
C1655 H1671 0.960 . S
H1656 C1640 0.931 . S
H1657 C1645 0.929 . S
H1658 C1646 0.960 . S
H1659 C1646 0.962 . S
H1660 C1646 0.960 . S
H1661 C1647 0.961 . S
H1662 C1647 0.961 . S
H1663 C1647 0.961 . S
H1664 C1648 0.931 . S
H1665 C1653 0.930 . S
H1666 C1654 0.956 . S
H1667 C1654 0.961 . S
H1668 C1654 0.961 . S
H1669 C1655 0.958 . S
H1670 C1655 0.961 . S
H1671 C1655 0.960 . S
C1672 C1673 1.391 . S
C1672 C1674 1.394 . S
C1672 H1688 0.931 . S
C1673 C1672 1.391 . S
C1673 C1677 1.376 . S
C1674 C1672 1.394 . S
C1674 C1675 1.369 . S
C1674 C1678 1.531 . S
C1675 C1674 1.369 . S
C1675 C1676 1.410 . S
C1675 C1683 1.503 . S
C1676 C1675 1.410 . S
C1676 C1677 1.392 . S
C1676 C1679 1.511 . S
C1677 C1673 1.376 . S
C1677 C1676 1.392 . S
C1677 H1689 0.929 . S
C1678 C1674 1.531 . S
C1678 H1690 0.960 . S
C1678 H1691 0.962 . S
C1678 H1692 0.960 . S
C1679 C1676 1.511 . S
C1679 H1693 0.961 . S
C1679 H1694 0.961 . S
C1679 H1695 0.961 . S
C1680 C1681 1.370 . S
C1680 C1682 1.363 . S
C1680 H1696 0.931 . S
C1681 C1680 1.370 . S
C1681 C1685 1.408 . S
C1682 C1680 1.363 . S
C1682 C1683 1.370 . S
C1682 C1686 1.524 . S
C1683 C1675 1.503 . S
C1683 C1682 1.370 . S
C1683 C1684 1.403 . S
C1684 C1683 1.403 . S
C1684 C1685 1.404 . S
C1684 C1687 1.539 . S
C1685 C1681 1.408 . S
C1685 C1684 1.404 . S
C1685 H1697 0.930 . S
C1686 C1682 1.524 . S
C1686 H1698 0.956 . S
C1686 H1699 0.961 . S
C1686 H1700 0.961 . S
C1687 C1684 1.539 . S
C1687 H1701 0.958 . S
C1687 H1702 0.961 . S
C1687 H1703 0.960 . S
H1688 C1672 0.931 . S
H1689 C1677 0.929 . S
H1690 C1678 0.960 . S
H1691 C1678 0.962 . S
H1692 C1678 0.960 . S
H1693 C1679 0.961 . S
H1694 C1679 0.961 . S
H1695 C1679 0.961 . S
H1696 C1680 0.931 . S
H1697 C1685 0.930 . S
H1698 C1686 0.956 . S
H1699 C1686 0.961 . S
H1700 C1686 0.961 . S
H1701 C1687 0.958 . S
H1702 C1687 0.961 . S
H1703 C1687 0.960 . S
C1704 C1705 1.391 . S
C1704 C1706 1.394 . S
C1704 H1720 0.931 . S
C1705 C1704 1.391 . S
C1705 C1709 1.376 . S
C1706 C1704 1.394 . S
C1706 C1707 1.369 . S
C1706 C1710 1.531 . S
C1707 C1706 1.369 . S
C1707 C1708 1.410 . S
C1707 C1715 1.503 . S
C1708 C1707 1.410 . S
C1708 C1709 1.392 . S
C1708 C1711 1.511 . S
C1709 C1705 1.376 . S
C1709 C1708 1.392 . S
C1709 H1721 0.929 . S
C1710 C1706 1.531 . S
C1710 H1722 0.960 . S
C1710 H1723 0.962 . S
C1710 H1724 0.960 . S
C1711 C1708 1.511 . S
C1711 H1725 0.961 . S
C1711 H1726 0.961 . S
C1711 H1727 0.961 . S
C1712 C1713 1.370 . S
C1712 C1714 1.363 . S
C1712 H1728 0.931 . S
C1713 C1712 1.370 . S
C1713 C1717 1.408 . S
C1714 C1712 1.363 . S
C1714 C1715 1.370 . S
C1714 C1718 1.524 . S
C1715 C1707 1.503 . S
C1715 C1714 1.370 . S
C1715 C1716 1.403 . S
C1716 C1715 1.403 . S
C1716 C1717 1.404 . S
C1716 C1719 1.539 . S
C1717 C1713 1.408 . S
C1717 C1716 1.404 . S
C1717 H1729 0.930 . S
C1718 C1714 1.524 . S
C1718 H1730 0.956 . S
C1718 H1731 0.961 . S
C1718 H1732 0.961 . S
C1719 C1716 1.539 . S
C1719 H1733 0.958 . S
C1719 H1734 0.961 . S
C1719 H1735 0.960 . S
H1720 C1704 0.931 . S
H1721 C1709 0.929 . S
H1722 C1710 0.960 . S
H1723 C1710 0.962 . S
H1724 C1710 0.960 . S
H1725 C1711 0.961 . S
H1726 C1711 0.961 . S
H1727 C1711 0.961 . S
H1728 C1712 0.931 . S
H1729 C1717 0.930 . S
H1730 C1718 0.956 . S
H1731 C1718 0.961 . S
H1732 C1718 0.961 . S
H1733 C1719 0.958 . S
H1734 C1719 0.961 . S
H1735 C1719 0.960 . S
C1736 C1737 1.391 . S
C1736 C1738 1.394 . S
C1736 H1752 0.931 . S
C1737 C1736 1.391 . S
C1737 C1741 1.376 . S
C1738 C1736 1.394 . S
C1738 C1739 1.369 . S
C1738 C1742 1.531 . S
C1739 C1738 1.369 . S
C1739 C1740 1.410 . S
C1739 C1747 1.503 . S
C1740 C1739 1.410 . S
C1740 C1741 1.392 . S
C1740 C1743 1.511 . S
C1741 C1737 1.376 . S
C1741 C1740 1.392 . S
C1741 H1753 0.929 . S
C1742 C1738 1.531 . S
C1742 H1754 0.960 . S
C1742 H1755 0.962 . S
C1742 H1756 0.960 . S
C1743 C1740 1.511 . S
C1743 H1757 0.961 . S
C1743 H1758 0.961 . S
C1743 H1759 0.961 . S
C1744 C1745 1.370 . S
C1744 C1746 1.363 . S
C1744 H1760 0.931 . S
C1745 C1744 1.370 . S
C1745 C1749 1.411 . S
C1746 C1744 1.363 . S
C1746 C1747 1.370 1_545 S
C1746 C1750 1.524 . S
C1747 C1739 1.503 . S
C1747 C1746 1.370 1_565 S
C1747 C1748 1.403 . S
C1748 C1747 1.403 . S
C1748 C1749 1.401 1_565 S
C1748 C1751 1.539 . S
C1749 C1745 1.411 . S
C1749 C1748 1.401 1_545 S
C1749 H1761 0.930 1_545 S
C1750 C1746 1.524 . S
C1750 H1762 0.956 1_545 S
C1750 H1763 0.961 . S
C1750 H1764 0.961 . S
C1751 C1748 1.539 . S
C1751 H1765 0.958 . S
C1751 H1766 0.961 . S
C1751 H1767 0.960 . S
H1752 C1736 0.931 . S
H1753 C1741 0.929 . S
H1754 C1742 0.960 . S
H1755 C1742 0.962 . S
H1756 C1742 0.960 . S
H1757 C1743 0.961 . S
H1758 C1743 0.961 . S
H1759 C1743 0.961 . S
H1760 C1744 0.931 . S
H1761 C1749 0.930 1_565 S
H1762 C1750 0.956 1_565 S
H1763 C1750 0.961 . S
H1764 C1750 0.961 . S
H1765 C1751 0.958 . S
H1766 C1751 0.961 . S
H1767 C1751 0.960 . S
C1768 C1769 1.391 . S
C1768 C1770 1.394 . S
C1768 H1784 0.931 . S
C1769 C1768 1.391 . S
C1769 C1773 1.376 . S
C1770 C1768 1.394 . S
C1770 C1771 1.369 . S
C1770 C1774 1.531 . S
C1771 C1770 1.369 . S
C1771 C1772 1.410 . S
C1771 C1779 1.503 . S
C1772 C1771 1.410 . S
C1772 C1773 1.392 . S
C1772 C1775 1.511 . S
C1773 C1769 1.376 . S
C1773 C1772 1.392 . S
C1773 H1785 0.929 . S
C1774 C1770 1.531 . S
C1774 H1786 0.960 . S
C1774 H1787 0.962 . S
C1774 H1788 0.960 . S
C1775 C1772 1.511 . S
C1775 H1789 0.961 . S
C1775 H1790 0.961 . S
C1775 H1791 0.961 . S
C1776 C1777 1.370 . S
C1776 C1778 1.363 . S
C1776 H1792 0.931 . S
C1777 C1776 1.370 . S
C1777 C1781 1.408 . S
C1778 C1776 1.363 . S
C1778 C1779 1.370 . S
C1778 C1782 1.524 . S
C1779 C1771 1.503 . S
C1779 C1778 1.370 . S
C1779 C1780 1.403 . S
C1780 C1779 1.403 . S
C1780 C1781 1.404 . S
C1780 C1783 1.539 . S
C1781 C1777 1.408 . S
C1781 C1780 1.404 . S
C1781 H1793 0.930 . S
C1782 C1778 1.524 . S
C1782 H1794 0.956 . S
C1782 H1795 0.961 . S
C1782 H1796 0.961 . S
C1783 C1780 1.539 . S
C1783 H1797 0.958 . S
C1783 H1798 0.961 . S
C1783 H1799 0.960 . S
H1784 C1768 0.931 . S
H1785 C1773 0.929 . S
H1786 C1774 0.960 . S
H1787 C1774 0.962 . S
H1788 C1774 0.960 . S
H1789 C1775 0.961 . S
H1790 C1775 0.961 . S
H1791 C1775 0.961 . S
H1792 C1776 0.931 . S
H1793 C1781 0.930 . S
H1794 C1782 0.956 . S
H1795 C1782 0.961 . S
H1796 C1782 0.961 . S
H1797 C1783 0.958 . S
H1798 C1783 0.961 . S
H1799 C1783 0.960 . S
C1800 C1801 1.391 . S
C1800 C1802 1.394 1_554 S
C1800 H1816 0.931 . S
C1801 C1800 1.391 . S
C1801 C1805 1.376 . S
C1802 C1800 1.394 1_556 S
C1802 C1803 1.369 . S
C1802 C1806 1.531 . S
C1803 C1802 1.369 . S
C1803 C1804 1.410 1_556 S
C1803 C1811 1.503 . S
C1804 C1803 1.410 1_554 S
C1804 C1805 1.392 . S
C1804 C1807 1.511 . S
C1805 C1801 1.376 . S
C1805 C1804 1.392 . S
C1805 H1817 0.929 . S
C1806 C1802 1.531 . S
C1806 H1818 0.960 . S
C1806 H1819 0.962 . S
C1806 H1820 0.960 . S
C1807 C1804 1.511 . S
C1807 H1821 0.961 . S
C1807 H1822 0.961 . S
C1807 H1823 0.961 . S
C1808 C1809 1.370 . S
C1808 C1810 1.363 . S
C1808 H1824 0.931 . S
C1809 C1808 1.370 . S
C1809 C1813 1.408 . S
C1810 C1808 1.363 . S
C1810 C1811 1.370 . S
C1810 C1814 1.524 . S
C1811 C1803 1.503 . S
C1811 C1810 1.370 . S
C1811 C1812 1.403 . S
C1812 C1811 1.403 . S
C1812 C1813 1.404 . S
C1812 C1815 1.539 . S
C1813 C1809 1.408 . S
C1813 C1812 1.404 . S
C1813 H1825 0.930 . S
C1814 C1810 1.524 . S
C1814 H1826 0.956 . S
C1814 H1827 0.961 . S
C1814 H1828 0.961 . S
C1815 C1812 1.539 . S
C1815 H1829 0.958 . S
C1815 H1830 0.961 . S
C1815 H1831 0.960 . S
H1816 C1800 0.931 . S
H1817 C1805 0.929 . S
H1818 C1806 0.960 . S
H1819 C1806 0.962 . S
H1820 C1806 0.960 . S
H1821 C1807 0.961 . S
H1822 C1807 0.961 . S
H1823 C1807 0.961 . S
H1824 C1808 0.931 . S
H1825 C1813 0.930 . S
H1826 C1814 0.956 . S
H1827 C1814 0.961 . S
H1828 C1814 0.961 . S
H1829 C1815 0.958 . S
H1830 C1815 0.961 . S
H1831 C1815 0.960 . S
C1832 C1833 1.391 . S
C1832 C1834 1.394 . S
C1832 H1848 0.931 . S
C1833 C1832 1.391 . S
C1833 C1837 1.376 . S
C1834 C1832 1.394 . S
C1834 C1835 1.369 1_554 S
C1834 C1838 1.531 . S
C1835 C1834 1.369 1_556 S
C1835 C1836 1.410 . S
C1835 C1843 1.503 . S
C1836 C1835 1.410 . S
C1836 C1837 1.392 1_556 S
C1836 C1839 1.511 . S
C1837 C1833 1.376 . S
C1837 C1836 1.392 1_554 S
C1837 H1849 0.924 1_554 S
C1838 C1834 1.531 . S
C1838 H1850 0.960 . S
C1838 H1851 0.962 . S
C1838 H1852 0.960 . S
C1839 C1836 1.511 . S
C1839 H1853 0.961 . S
C1839 H1854 0.961 . S
C1839 H1855 0.961 . S
C1840 C1841 1.370 . S
C1840 C1842 1.363 . S
C1840 H1856 0.931 . S
C1841 C1840 1.370 . S
C1841 C1845 1.408 . S
C1842 C1840 1.363 . S
C1842 C1843 1.370 . S
C1842 C1846 1.524 . S
C1843 C1835 1.503 . S
C1843 C1842 1.370 . S
C1843 C1844 1.403 . S
C1844 C1843 1.403 . S
C1844 C1845 1.404 . S
C1844 C1847 1.539 . S
C1845 C1841 1.408 . S
C1845 C1844 1.404 . S
C1845 H1857 0.930 . S
C1846 C1842 1.524 . S
C1846 H1858 0.956 . S
C1846 H1859 0.961 . S
C1846 H1860 0.961 . S
C1847 C1844 1.539 . S
C1847 H1861 0.958 . S
C1847 H1862 0.961 . S
C1847 H1863 0.960 . S
H1848 C1832 0.931 . S
H1849 C1837 0.924 1_556 S
H1850 C1838 0.960 . S
H1851 C1838 0.962 . S
H1852 C1838 0.960 . S
H1853 C1839 0.961 . S
H1854 C1839 0.961 . S
H1855 C1839 0.961 . S
H1856 C1840 0.931 . S
H1857 C1845 0.930 . S
H1858 C1846 0.956 . S
H1859 C1846 0.961 . S
H1860 C1846 0.961 . S
H1861 C1847 0.958 . S
H1862 C1847 0.961 . S
H1863 C1847 0.960 . S
C1864 C1865 1.391 . S
C1864 C1866 1.394 . S
C1864 H1880 0.931 . S
C1865 C1864 1.391 . S
C1865 C1869 1.376 . S
C1866 C1864 1.394 . S
C1866 C1867 1.369 . S
C1866 C1870 1.531 . S
C1867 C1866 1.369 . S
C1867 C1868 1.410 . S
C1867 C1875 1.503 . S
C1868 C1867 1.410 . S
C1868 C1869 1.392 . S
C1868 C1871 1.511 . S
C1869 C1865 1.376 . S
C1869 C1868 1.392 . S
C1869 H1881 0.929 . S
C1870 C1866 1.531 . S
C1870 H1882 0.960 . S
C1870 H1883 0.962 . S
C1870 H1884 0.960 . S
C1871 C1868 1.511 . S
C1871 H1885 0.961 . S
C1871 H1886 0.961 . S
C1871 H1887 0.961 . S
C1872 C1873 1.370 . S
C1872 C1874 1.363 . S
C1872 H1888 0.931 . S
C1873 C1872 1.370 . S
C1873 C1877 1.408 . S
C1874 C1872 1.363 . S
C1874 C1875 1.370 . S
C1874 C1878 1.524 . S
C1875 C1867 1.503 . S
C1875 C1874 1.370 . S
C1875 C1876 1.403 . S
C1876 C1875 1.403 . S
C1876 C1877 1.404 . S
C1876 C1879 1.539 . S
C1877 C1873 1.408 . S
C1877 C1876 1.404 . S
C1877 H1889 0.930 . S
C1878 C1874 1.524 . S
C1878 H1890 0.956 . S
C1878 H1891 0.961 . S
C1878 H1892 0.961 . S
C1879 C1876 1.539 . S
C1879 H1893 0.958 . S
C1879 H1894 0.961 . S
C1879 H1895 0.960 . S
H1880 C1864 0.931 . S
H1881 C1869 0.929 . S
H1882 C1870 0.960 . S
H1883 C1870 0.962 . S
H1884 C1870 0.960 . S
H1885 C1871 0.961 . S
H1886 C1871 0.961 . S
H1887 C1871 0.961 . S
H1888 C1872 0.931 . S
H1889 C1877 0.930 . S
H1890 C1878 0.956 . S
H1891 C1878 0.961 . S
H1892 C1878 0.961 . S
H1893 C1879 0.958 . S
H1894 C1879 0.961 . S
H1895 C1879 0.960 . S
C1896 C1897 1.391 . S
C1896 C1898 1.394 . S
C1896 H1912 0.931 . S
C1897 C1896 1.391 . S
C1897 C1901 1.376 . S
C1898 C1896 1.394 . S
C1898 C1899 1.369 . S
C1898 C1902 1.531 . S
C1899 C1898 1.369 . S
C1899 C1900 1.410 . S
C1899 C1907 1.503 . S
C1900 C1899 1.410 . S
C1900 C1901 1.392 . S
C1900 C1903 1.511 . S
C1901 C1897 1.376 . S
C1901 C1900 1.392 . S
C1901 H1913 0.929 . S
C1902 C1898 1.531 . S
C1902 H1914 0.960 . S
C1902 H1915 0.962 . S
C1902 H1916 0.960 . S
C1903 C1900 1.511 . S
C1903 H1917 0.961 . S
C1903 H1918 0.961 . S
C1903 H1919 0.961 . S
C1904 C1905 1.370 . S
C1904 C1906 1.363 . S
C1904 H1920 0.931 . S
C1905 C1904 1.370 . S
C1905 C1909 1.408 . S
C1906 C1904 1.363 . S
C1906 C1907 1.370 . S
C1906 C1910 1.524 . S
C1907 C1899 1.503 . S
C1907 C1906 1.370 . S
C1907 C1908 1.403 . S
C1908 C1907 1.403 . S
C1908 C1909 1.404 . S
C1908 C1911 1.539 . S
C1909 C1905 1.408 . S
C1909 C1908 1.404 . S
C1909 H1921 0.930 . S
C1910 C1906 1.524 . S
C1910 H1922 0.956 . S
C1910 H1923 0.961 . S
C1910 H1924 0.961 . S
C1911 C1908 1.539 . S
C1911 H1925 0.958 . S
C1911 H1926 0.961 . S
C1911 H1927 0.960 . S
H1912 C1896 0.931 . S
H1913 C1901 0.929 . S
H1914 C1902 0.960 . S
H1915 C1902 0.962 . S
H1916 C1902 0.960 . S
H1917 C1903 0.961 . S
H1918 C1903 0.961 . S
H1919 C1903 0.961 . S
H1920 C1904 0.931 . S
H1921 C1909 0.930 . S
H1922 C1910 0.956 . S
H1923 C1910 0.961 . S
H1924 C1910 0.961 . S
H1925 C1911 0.958 . S
H1926 C1911 0.961 . S
H1927 C1911 0.960 . S
C1928 C1929 1.391 . S
C1928 C1930 1.394 1_455 S
C1928 H1944 0.931 . S
C1929 C1928 1.391 . S
C1929 C1933 1.376 . S
C1930 C1928 1.394 1_655 S
C1930 C1931 1.369 . S
C1930 C1934 1.531 . S
C1931 C1930 1.369 . S
C1931 C1932 1.410 1_655 S
C1931 C1939 1.503 . S
C1932 C1931 1.410 1_455 S
C1932 C1933 1.392 . S
C1932 C1935 1.511 . S
C1933 C1929 1.376 . S
C1933 C1932 1.392 . S
C1933 H1945 0.929 . S
C1934 C1930 1.531 . S
C1934 H1946 0.960 . S
C1934 H1947 0.962 . S
C1934 H1948 0.960 . S
C1935 C1932 1.511 . S
C1935 H1949 0.961 . S
C1935 H1950 1.001 . S
C1935 H1951 0.961 . S
C1936 C1937 1.370 . S
C1936 C1938 1.363 . S
C1936 H1952 0.931 . S
C1937 C1936 1.370 . S
C1937 C1941 1.408 . S
C1938 C1936 1.363 . S
C1938 C1939 1.370 . S
C1938 C1942 1.524 . S
C1939 C1931 1.503 . S
C1939 C1938 1.370 . S
C1939 C1940 1.403 . S
C1940 C1939 1.403 . S
C1940 C1941 1.404 . S
C1940 C1943 1.539 . S
C1941 C1937 1.408 . S
C1941 C1940 1.404 . S
C1941 H1953 0.930 . S
C1942 C1938 1.524 . S
C1942 H1954 0.956 . S
C1942 H1955 0.961 . S
C1942 H1956 0.961 . S
C1943 C1940 1.539 . S
C1943 H1957 0.958 . S
C1943 H1958 0.961 . S
C1943 H1959 0.960 . S
H1944 C1928 0.931 . S
H1945 C1933 0.929 . S
H1946 C1934 0.960 . S
H1947 C1934 0.962 . S
H1948 C1934 0.960 . S
H1949 C1935 0.961 . S
H1950 C1935 1.001 . S
H1951 C1935 0.961 . S
H1952 C1936 0.931 . S
H1953 C1941 0.930 . S
H1954 C1942 0.956 . S
H1955 C1942 0.961 . S
H1956 C1942 0.961 . S
H1957 C1943 0.958 . S
H1958 C1943 0.961 . S
H1959 C1943 0.960 . S
C1960 C1961 1.391 . S
C1960 C1962 1.394 . S
C1960 H1976 0.931 . S
C1961 C1960 1.391 . S
C1961 C1965 1.376 . S
C1962 C1960 1.394 . S
C1962 C1963 1.369 1_655 S
C1962 C1966 1.531 1_655 S
C1963 C1962 1.369 1_455 S
C1963 C1964 1.410 1_455 S
C1963 C1971 1.503 . S
C1964 C1963 1.410 1_655 S
C1964 C1965 1.392 . S
C1964 C1967 1.511 1_655 S
C1965 C1961 1.376 . S
C1965 C1964 1.392 . S
C1965 H1977 0.929 . S
C1966 C1962 1.531 1_455 S
C1966 H1978 0.960 . S
C1966 H1979 0.962 . S
C1966 H1980 0.960 1_455 S
C1967 C1964 1.511 1_455 S
C1967 H1981 0.961 1_455 S
C1967 H1982 0.961 . S
C1967 H1983 0.961 1_455 S
C1968 C1969 1.370 . S
C1968 C1970 1.363 . S
C1968 H1984 0.931 . S
C1969 C1968 1.370 . S
C1969 C1973 1.408 . S
C1970 C1968 1.363 . S
C1970 C1971 1.370 . S
C1970 C1974 1.524 . S
C1971 C1963 1.503 . S
C1971 C1970 1.370 . S
C1971 C1972 1.403 . S
C1972 C1971 1.403 . S
C1972 C1973 1.404 . S
C1972 C1975 1.539 . S
C1973 C1969 1.408 . S
C1973 C1972 1.404 . S
C1973 H1985 0.930 . S
C1974 C1970 1.524 . S
C1974 H1986 0.956 . S
C1974 H1987 0.961 . S
C1974 H1988 0.961 . S
C1975 C1972 1.539 . S
C1975 H1989 0.958 . S
C1975 H1990 0.961 . S
C1975 H1991 0.960 1_455 S
H1976 C1960 0.931 . S
H1977 C1965 0.929 . S
H1978 C1966 0.960 . S
H1979 C1966 0.962 . S
H1980 C1966 0.960 1_655 S
H1981 C1967 0.961 1_655 S
H1982 C1967 0.961 . S
H1983 C1967 0.961 1_655 S
H1984 C1968 0.931 . S
H1985 C1973 0.930 . S
H1986 C1974 0.956 . S
H1987 C1974 0.961 . S
H1988 C1974 0.961 . S
H1989 C1975 0.958 . S
H1990 C1975 0.961 . S
H1991 C1975 0.960 1_655 S
C1992 C1993 1.391 . S
C1992 C1994 1.394 1_455 S
C1992 H2008 0.931 . S
C1993 C1992 1.391 . S
C1993 C1997 1.376 . S
C1994 C1992 1.394 1_655 S
C1994 C1995 1.369 . S
C1994 C1998 1.531 . S
C1995 C1994 1.369 . S
C1995 C1996 1.385 1_655 S
C1995 C2003 1.503 . S
C1996 C1995 1.385 1_455 S
C1996 C1997 1.420 . S
C1996 C1999 1.510 1_455 S
C1997 C1993 1.376 . S
C1997 C1996 1.420 . S
C1997 H2009 0.929 . S
C1998 C1994 1.531 . S
C1998 H2010 0.960 . S
C1998 H2011 0.962 . S
C1998 H2012 0.960 . S
C1999 C1996 1.510 1_655 S
C1999 H2013 0.953 1_655 S
C1999 H2014 0.965 . S
C1999 H2015 0.965 . S
C2000 C2001 1.370 . S
C2000 C2002 1.363 . S
C2000 H2016 0.931 . S
C2001 C2000 1.370 . S
C2001 C2005 1.408 . S
C2002 C2000 1.363 . S
C2002 C2003 1.370 . S
C2002 C2006 1.524 . S
C2003 C1995 1.503 . S
C2003 C2002 1.370 . S
C2003 C2004 1.403 . S
C2004 C2003 1.403 . S
C2004 C2005 1.404 . S
C2004 C2007 1.539 . S
C2005 C2001 1.408 . S
C2005 C2004 1.404 . S
C2005 H2017 0.930 . S
C2006 C2002 1.524 . S
C2006 H2018 0.956 . S
C2006 H2019 0.961 1_655 S
C2006 H2020 0.961 . S
C2007 C2004 1.539 . S
C2007 H2021 0.958 . S
C2007 H2022 0.961 . S
C2007 H2023 0.960 . S
H2008 C1992 0.931 . S
H2009 C1997 0.929 . S
H2010 C1998 0.960 . S
H2011 C1998 0.962 . S
H2012 C1998 0.960 . S
H2013 C1999 0.953 1_455 S
H2014 C1999 0.965 . S
H2015 C1999 0.965 . S
H2016 C2000 0.931 . S
H2017 C2005 0.930 . S
H2018 C2006 0.956 . S
H2019 C2006 0.961 1_455 S
H2020 C2006 0.961 . S
H2021 C2007 0.958 . S
H2022 C2007 0.961 . S
H2023 C2007 0.960 . S
C2024 C2025 1.391 . S
C2024 C2026 1.394 . S
C2024 H2040 0.931 . S
C2025 C2024 1.391 . S
C2025 C2029 1.376 . S
C2026 C2024 1.394 . S
C2026 C2027 1.369 . S
C2026 C2030 1.531 . S
C2027 C2026 1.369 . S
C2027 C2028 1.410 . S
C2027 C2035 1.503 . S
C2028 C2027 1.410 . S
C2028 C2029 1.392 . S
C2028 C2031 1.511 . S
C2029 C2025 1.376 . S
C2029 C2028 1.392 . S
C2029 H2041 0.929 . S
C2030 C2026 1.531 . S
C2030 H2042 0.960 . S
C2030 H2043 0.962 . S
C2030 H2044 0.960 . S
C2031 C2028 1.511 . S
C2031 H2045 0.961 . S
C2031 H2046 0.961 . S
C2031 H2047 0.961 . S
C2032 C2033 1.370 . S
C2032 C2034 1.363 . S
C2032 H2048 0.931 . S
C2033 C2032 1.370 . S
C2033 C2037 1.408 . S
C2034 C2032 1.363 . S
C2034 C2035 1.370 1_655 S
C2034 C2038 1.524 . S
C2035 C2027 1.503 . S
C2035 C2034 1.370 1_455 S
C2035 C2036 1.403 . S
C2036 C2035 1.403 . S
C2036 C2037 1.404 1_455 S
C2036 C2039 1.539 . S
C2037 C2033 1.408 . S
C2037 C2036 1.404 1_655 S
C2037 H2049 0.930 . S
C2038 C2034 1.524 . S
C2038 H2050 0.956 1_655 S
C2038 H2051 0.961 1_655 S
C2038 H2052 0.961 . S
C2039 C2036 1.539 . S
C2039 H2053 0.958 . S
C2039 H2054 0.961 . S
C2039 H2055 0.960 . S
H2040 C2024 0.931 . S
H2041 C2029 0.929 . S
H2042 C2030 0.960 . S
H2043 C2030 0.962 . S
H2044 C2030 0.960 . S
H2045 C2031 0.961 . S
H2046 C2031 0.961 . S
H2047 C2031 0.961 . S
H2048 C2032 0.931 . S
H2049 C2037 0.930 . S
H2050 C2038 0.956 1_455 S
H2051 C2038 0.961 1_455 S
H2052 C2038 0.961 . S
H2053 C2039 0.958 . S
H2054 C2039 0.961 . S
H2055 C2039 0.960 . S
C2056 C2057 1.391 . S
C2056 C2058 1.394 1_545 S
C2056 H2072 0.931 . S
C2057 C2056 1.391 . S
C2057 C2061 1.376 . S
C2058 C2056 1.394 1_565 S
C2058 C2059 1.369 . S
C2058 C2062 1.531 . S
C2059 C2058 1.369 . S
C2059 C2060 1.410 1_565 S
C2059 C2067 1.503 . S
C2060 C2059 1.410 1_545 S
C2060 C2061 1.392 . S
C2060 C2063 1.511 . S
C2061 C2057 1.376 . S
C2061 C2060 1.392 . S
C2061 H2073 0.929 . S
C2062 C2058 1.531 . S
C2062 H2074 0.960 . S
C2062 H2075 0.962 . S
C2062 H2076 0.960 . S
C2063 C2060 1.511 . S
C2063 H2077 0.961 . S
C2063 H2078 0.961 1_545 S
C2063 H2079 0.961 . S
C2064 C2065 1.370 . S
C2064 C2066 1.363 . S
C2064 H2080 0.931 . S
C2065 C2064 1.370 . S
C2065 C2069 1.408 . S
C2066 C2064 1.363 . S
C2066 C2067 1.370 . S
C2066 C2070 1.524 . S
C2067 C2059 1.503 . S
C2067 C2066 1.370 . S
C2067 C2068 1.403 . S
C2068 C2067 1.403 . S
C2068 C2069 1.404 . S
C2068 C2071 1.539 . S
C2069 C2065 1.408 . S
C2069 C2068 1.404 . S
C2069 H2081 0.930 . S
C2070 C2066 1.524 . S
C2070 H2082 0.956 . S
C2070 H2083 0.961 . S
C2070 H2084 0.961 . S
C2071 C2068 1.539 . S
C2071 H2085 0.958 . S
C2071 H2086 0.961 . S
C2071 H2087 0.960 1_565 S
H2072 C2056 0.931 . S
H2073 C2061 0.929 . S
H2074 C2062 0.960 . S
H2075 C2062 0.962 . S
H2076 C2062 0.960 . S
H2077 C2063 0.961 . S
H2078 C2063 0.961 1_565 S
H2079 C2063 0.961 . S
H2080 C2064 0.931 . S
H2081 C2069 0.930 . S
H2082 C2070 0.956 . S
H2083 C2070 0.961 . S
H2084 C2070 0.961 . S
H2085 C2071 0.958 . S
H2086 C2071 0.961 . S
H2087 C2071 0.960 1_545 S
C2088 C2089 1.391 . S
C2088 C2090 1.394 . S
C2088 H2104 0.931 . S
C2089 C2088 1.391 . S
C2089 C2093 1.376 . S
C2090 C2088 1.394 . S
C2090 C2091 1.369 . S
C2090 C2094 1.531 . S
C2091 C2090 1.369 . S
C2091 C2092 1.410 . S
C2091 C2099 1.503 . S
C2092 C2091 1.410 . S
C2092 C2093 1.392 . S
C2092 C2095 1.511 . S
C2093 C2089 1.376 . S
C2093 C2092 1.392 . S
C2093 H2105 0.929 . S
C2094 C2090 1.531 . S
C2094 H2106 0.960 . S
C2094 H2107 0.962 . S
C2094 H2108 0.960 . S
C2095 C2092 1.511 . S
C2095 H2109 0.961 . S
C2095 H2110 0.961 . S
C2095 H2111 0.961 . S
C2096 C2097 1.370 . S
C2096 C2098 1.363 . S
C2096 H2112 0.931 . S
C2097 C2096 1.370 . S
C2097 C2101 1.408 . S
C2098 C2096 1.363 . S
C2098 C2099 1.370 1_565 S
C2098 C2102 1.524 . S
C2099 C2091 1.503 . S
C2099 C2098 1.370 1_545 S
C2099 C2100 1.403 . S
C2100 C2099 1.403 . S
C2100 C2101 1.404 1_545 S
C2100 C2103 1.539 . S
C2101 C2097 1.408 . S
C2101 C2100 1.404 1_565 S
C2101 H2113 0.930 . S
C2102 C2098 1.524 . S
C2102 H2114 0.956 1_565 S
C2102 H2115 0.961 1_565 S
C2102 H2116 0.961 . S
C2103 C2100 1.539 . S
C2103 H2117 0.958 . S
C2103 H2118 0.961 . S
C2103 H2119 0.960 . S
H2104 C2088 0.931 . S
H2105 C2093 0.929 . S
H2106 C2094 0.960 . S
H2107 C2094 0.962 . S
H2108 C2094 0.960 . S
H2109 C2095 0.961 . S
H2110 C2095 0.961 . S
H2111 C2095 0.961 . S
H2112 C2096 0.931 . S
H2113 C2101 0.930 . S
H2114 C2102 0.956 1_545 S
H2115 C2102 0.961 1_545 S
H2116 C2102 0.961 . S
H2117 C2103 0.958 . S
H2118 C2103 0.961 . S
H2119 C2103 0.960 . S
C2120 C2121 1.391 . S
C2120 C2122 1.394 . S
C2120 H2136 0.931 . S
C2121 C2120 1.391 . S
C2121 C2125 1.376 . S
C2122 C2120 1.394 . S
C2122 C2123 1.369 . S
C2122 C2126 1.531 . S
C2123 C2122 1.369 . S
C2123 C2124 1.410 . S
C2123 C2131 1.503 . S
C2124 C2123 1.410 . S
C2124 C2125 1.392 . S
C2124 C2127 1.511 . S
C2125 C2121 1.376 . S
C2125 C2124 1.392 . S
C2125 H2137 0.929 . S
C2126 C2122 1.531 . S
C2126 H2138 0.960 . S
C2126 H2139 0.962 . S
C2126 H2140 0.960 . S
C2127 C2124 1.511 . S
C2127 H2141 0.961 . S
C2127 H2142 0.961 . S
C2127 H2143 0.961 . S
C2128 C2129 1.370 . S
C2128 C2130 1.363 . S
C2128 H2144 0.931 . S
C2129 C2128 1.370 . S
C2129 C2133 1.408 . S
C2130 C2128 1.363 . S
C2130 C2131 1.370 . S
C2130 C2134 1.524 . S
C2131 C2123 1.503 . S
C2131 C2130 1.370 . S
C2131 C2132 1.403 . S
C2132 C2131 1.403 . S
C2132 C2133 1.404 . S
C2132 C2135 1.539 . S
C2133 C2129 1.408 . S
C2133 C2132 1.404 . S
C2133 H2145 0.930 . S
C2134 C2130 1.524 . S
C2134 H2146 0.956 . S
C2134 H2147 0.961 . S
C2134 H2148 0.961 . S
C2135 C2132 1.539 . S
C2135 H2149 0.958 . S
C2135 H2150 0.961 . S
C2135 H2151 0.960 . S
H2136 C2120 0.931 . S
H2137 C2125 0.929 . S
H2138 C2126 0.960 . S
H2139 C2126 0.962 . S
H2140 C2126 0.960 . S
H2141 C2127 0.961 . S
H2142 C2127 0.961 . S
H2143 C2127 0.961 . S
H2144 C2128 0.931 . S
H2145 C2133 0.930 . S
H2146 C2134 0.956 . S
H2147 C2134 0.961 . S
H2148 C2134 0.961 . S
H2149 C2135 0.958 . S
H2150 C2135 0.961 . S
H2151 C2135 0.960 . S
C2152 C2153 1.391 . S
C2152 C2154 1.394 . S
C2152 H2168 0.931 . S
C2153 C2152 1.391 . S
C2153 C2157 1.376 . S
C2154 C2152 1.394 . S
C2154 C2155 1.369 . S
C2154 C2158 1.531 . S
C2155 C2154 1.369 . S
C2155 C2156 1.410 . S
C2155 C2163 1.503 . S
C2156 C2155 1.410 . S
C2156 C2157 1.392 . S
C2156 C2159 1.511 . S
C2157 C2153 1.376 . S
C2157 C2156 1.392 . S
C2157 H2169 0.929 . S
C2158 C2154 1.531 . S
C2158 H2170 0.970 . S
C2158 H2171 0.962 . S
C2158 H2172 0.960 . S
C2159 C2156 1.511 . S
C2159 H2173 0.961 . S
C2159 H2174 0.961 . S
C2159 H2175 0.961 . S
C2160 C2161 1.370 . S
C2160 C2162 1.363 1_565 S
C2160 H2176 0.931 . S
C2161 C2160 1.370 . S
C2161 C2165 1.408 . S
C2162 C2160 1.363 1_545 S
C2162 C2163 1.370 . S
C2162 C2166 1.524 . S
C2163 C2155 1.503 . S
C2163 C2162 1.370 . S
C2163 C2164 1.403 1_545 S
C2164 C2163 1.403 1_565 S
C2164 C2165 1.404 . S
C2164 C2167 1.539 . S
C2165 C2161 1.408 . S
C2165 C2164 1.404 . S
C2165 H2177 0.930 . S
C2166 C2162 1.524 . S
C2166 H2178 0.956 . S
C2166 H2179 0.961 . S
C2166 H2180 0.961 . S
C2167 C2164 1.539 . S
C2167 H2181 0.958 . S
C2167 H2182 0.961 . S
C2167 H2183 0.960 1_565 S
H2168 C2152 0.931 . S
H2169 C2157 0.929 . S
H2170 C2158 0.970 . S
H2171 C2158 0.962 . S
H2172 C2158 0.960 . S
H2173 C2159 0.961 . S
H2174 C2159 0.961 . S
H2175 C2159 0.961 . S
H2176 C2160 0.931 . S
H2177 C2165 0.930 . S
H2178 C2166 0.956 . S
H2179 C2166 0.961 . S
H2180 C2166 0.961 . S
H2181 C2167 0.958 . S
H2182 C2167 0.961 . S
H2183 C2167 0.960 1_545 S
C2184 C2185 1.368 1_455 S
C2184 C2186 1.394 . S
C2184 H2200 0.931 . S
C2185 C2184 1.368 1_655 S
C2185 C2189 1.398 . S
C2186 C2184 1.394 . S
C2186 C2187 1.369 . S
C2186 C2190 1.531 . S
C2187 C2186 1.369 . S
C2187 C2188 1.410 1_455 S
C2187 C2195 1.503 . S
C2188 C2187 1.410 1_655 S
C2188 C2189 1.392 . S
C2188 C2191 1.511 . S
C2189 C2185 1.398 . S
C2189 C2188 1.392 . S
C2189 H2201 0.929 . S
C2190 C2186 1.531 . S
C2190 H2202 0.960 . S
C2190 H2203 0.962 . S
C2190 H2204 0.960 . S
C2191 C2188 1.511 . S
C2191 H2205 0.961 . S
C2191 H2206 0.961 . S
C2191 H2207 0.961 . S
C2192 C2193 1.369 1_655 S
C2192 C2194 1.363 . S
C2192 H2208 0.931 . S
C2193 C2192 1.369 1_455 S
C2193 C2197 1.408 . S
C2194 C2192 1.363 . S
C2194 C2195 1.370 1_655 S
C2194 C2198 1.524 . S
C2195 C2187 1.503 . S
C2195 C2194 1.370 1_455 S
C2195 C2196 1.403 . S
C2196 C2195 1.403 . S
C2196 C2197 1.404 . S
C2196 C2199 1.539 . S
C2197 C2193 1.408 . S
C2197 C2196 1.404 . S
C2197 H2209 0.930 . S
C2198 C2194 1.524 . S
C2198 H2210 0.956 1_655 S
C2198 H2211 0.961 . S
C2198 H2212 0.961 . S
C2199 C2196 1.539 . S
C2199 H2213 0.958 . S
C2199 H2214 0.961 . S
C2199 H2215 0.981 . S
H2200 C2184 0.931 . S
H2201 C2189 0.929 . S
H2202 C2190 0.960 . S
H2203 C2190 0.962 . S
H2204 C2190 0.960 . S
H2205 C2191 0.961 . S
H2206 C2191 0.961 . S
H2207 C2191 0.961 . S
H2208 C2192 0.931 . S
H2209 C2197 0.930 . S
H2210 C2198 0.956 1_455 S
H2211 C2198 0.961 . S
H2212 C2198 0.961 . S
H2213 C2199 0.958 . S
H2214 C2199 0.961 . S
H2215 C2199 0.981 . S
C2216 C2217 1.391 . S
C2216 C2218 1.394 . S
C2216 H2232 0.931 . S
C2217 C2216 1.391 . S
C2217 C2221 1.376 1_455 S
C2218 C2216 1.394 . S
C2218 C2219 1.368 . S
C2218 C2222 1.531 . S
C2219 C2218 1.368 . S
C2219 C2220 1.410 1_455 S
C2219 C2227 1.503 1_455 S
C2220 C2219 1.410 1_655 S
C2220 C2221 1.392 . S
C2220 C2223 1.511 . S
C2221 C2217 1.376 1_655 S
C2221 C2220 1.392 . S
C2221 H2233 0.929 . S
C2222 C2218 1.531 . S
C2222 H2234 0.960 . S
C2222 H2235 0.962 . S
C2222 H2236 0.960 . S
C2223 C2220 1.511 . S
C2223 H2237 0.961 . S
C2223 H2238 0.961 . S
C2223 H2239 0.961 . S
C2224 C2225 1.370 1_455 S
C2224 C2226 1.363 . S
C2224 H2240 0.931 . S
C2225 C2224 1.370 1_655 S
C2225 C2229 1.408 . S
C2226 C2224 1.363 . S
C2226 C2227 1.361 1_455 S
C2226 C2230 1.524 . S
C2227 C2219 1.503 1_655 S
C2227 C2226 1.361 1_655 S
C2227 C2228 1.414 . S
C2228 C2227 1.414 . S
C2228 C2229 1.404 . S
C2228 C2231 1.539 . S
C2229 C2225 1.408 . S
C2229 C2228 1.404 . S
C2229 H2241 0.930 . S
C2230 C2226 1.524 . S
C2230 H2242 0.956 . S
C2230 H2243 0.970 . S
C2230 H2244 0.961 . S
C2231 C2228 1.539 . S
C2231 H2245 0.958 . S
C2231 H2246 0.961 . S
C2231 H2247 0.960 . S
H2232 C2216 0.931 . S
H2233 C2221 0.929 . S
H2234 C2222 0.960 . S
H2235 C2222 0.962 . S
H2236 C2222 0.960 . S
H2237 C2223 0.961 . S
H2238 C2223 0.961 . S
H2239 C2223 0.961 . S
H2240 C2224 0.931 . S
H2241 C2229 0.930 . S
H2242 C2230 0.956 . S
H2243 C2230 0.970 . S
H2244 C2230 0.961 . S
H2245 C2231 0.958 . S
H2246 C2231 0.961 . S
H2247 C2231 0.960 . S
C2248 C2249 1.414 . S
C2248 C2250 1.394 . S
C2248 H2264 0.931 . S
C2249 C2248 1.414 . S
C2249 C2253 1.359 1_545 S
C2250 C2248 1.394 . S
C2250 C2251 1.369 . S
C2250 C2254 1.531 . S
C2251 C2250 1.369 . S
C2251 C2252 1.410 1_545 S
C2251 C2259 1.503 . S
C2252 C2251 1.410 1_565 S
C2252 C2253 1.392 . S
C2252 C2255 1.511 . S
C2253 C2249 1.359 1_565 S
C2253 C2252 1.392 . S
C2253 H2265 0.929 . S
C2254 C2250 1.531 . S
C2254 H2266 0.960 . S
C2254 H2267 0.962 . S
C2254 H2268 0.960 . S
C2255 C2252 1.511 . S
C2255 H2269 0.961 . S
C2255 H2270 0.961 . S
C2255 H2271 0.961 . S
C2256 C2257 1.370 1_565 S
C2256 C2258 1.363 . S
C2256 H2272 0.931 . S
C2257 C2256 1.370 1_545 S
C2257 C2261 1.408 . S
C2258 C2256 1.363 . S
C2258 C2259 1.370 1_565 S
C2258 C2262 1.524 . S
C2259 C2251 1.503 . S
C2259 C2258 1.370 1_545 S
C2259 C2260 1.403 . S
C2260 C2259 1.403 . S
C2260 C2261 1.404 . S
C2260 C2263 1.539 . S
C2261 C2257 1.408 . S
C2261 C2260 1.404 . S
C2261 H2273 0.930 . S
C2262 C2258 1.524 . S
C2262 H2274 0.956 . S
C2262 H2275 0.961 . S
C2262 H2276 0.961 . S
C2263 C2260 1.539 . S
C2263 H2277 0.958 . S
C2263 H2278 0.961 . S
C2263 H2279 0.960 . S
H2264 C2248 0.931 . S
H2265 C2253 0.929 . S
H2266 C2254 0.960 . S
H2267 C2254 0.962 . S
H2268 C2254 0.960 . S
H2269 C2255 0.961 . S
H2270 C2255 0.961 . S
H2271 C2255 0.961 . S
H2272 C2256 0.931 . S
H2273 C2261 0.930 . S
H2274 C2262 0.956 . S
H2275 C2262 0.961 . S
H2276 C2262 0.961 . S
H2277 C2263 0.958 . S
H2278 C2263 0.961 . S
H2279 C2263 0.960 . S
C2280 C2281 1.391 . S
C2280 C2282 1.394 . S
C2280 H2296 0.931 . S
C2281 C2280 1.391 . S
C2281 C2285 1.376 . S
C2282 C2280 1.394 . S
C2282 C2283 1.369 . S
C2282 C2286 1.531 . S
C2283 C2282 1.369 . S
C2283 C2284 1.410 . S
C2283 C2291 1.503 . S
C2284 C2283 1.410 . S
C2284 C2285 1.392 . S
C2284 C2287 1.511 . S
C2285 C2281 1.376 . S
C2285 C2284 1.392 . S
C2285 H2297 0.929 . S
C2286 C2282 1.531 . S
C2286 H2298 0.960 . S
C2286 H2299 0.962 . S
C2286 H2300 0.960 . S
C2287 C2284 1.511 . S
C2287 H2301 0.961 . S
C2287 H2302 0.961 . S
C2287 H2303 0.961 . S
C2288 C2289 1.370 . S
C2288 C2290 1.363 . S
C2288 H2304 0.931 . S
C2289 C2288 1.370 . S
C2289 C2293 1.408 . S
C2290 C2288 1.363 . S
C2290 C2291 1.370 . S
C2290 C2294 1.524 . S
C2291 C2283 1.503 . S
C2291 C2290 1.370 . S
C2291 C2292 1.403 . S
C2292 C2291 1.403 . S
C2292 C2293 1.404 . S
C2292 C2295 1.539 . S
C2293 C2289 1.408 . S
C2293 C2292 1.404 . S
C2293 H2305 0.930 . S
C2294 C2290 1.524 . S
C2294 H2306 0.956 . S
C2294 H2307 0.961 . S
C2294 H2308 0.961 . S
C2295 C2292 1.539 . S
C2295 H2309 0.958 . S
C2295 H2310 0.961 . S
C2295 H2311 0.960 . S
H2296 C2280 0.931 . S
H2297 C2285 0.929 . S
H2298 C2286 0.960 . S
H2299 C2286 0.962 . S
H2300 C2286 0.960 . S
H2301 C2287 0.961 . S
H2302 C2287 0.961 . S
H2303 C2287 0.961 . S
H2304 C2288 0.931 . S
H2305 C2293 0.930 . S
H2306 C2294 0.956 . S
H2307 C2294 0.961 . S
H2308 C2294 0.961 . S
H2309 C2295 0.958 . S
H2310 C2295 0.961 . S
H2311 C2295 0.960 . S
C2312 C2313 1.391 . S
C2312 C2314 1.394 . S
C2312 H2328 0.931 . S
C2313 C2312 1.391 . S
C2313 C2317 1.376 1_554 S
C2314 C2312 1.394 . S
C2314 C2315 1.369 . S
C2314 C2318 1.531 . S
C2315 C2314 1.369 . S
C2315 C2316 1.410 1_554 S
C2315 C2323 1.503 . S
C2316 C2315 1.410 1_556 S
C2316 C2317 1.392 . S
C2316 C2319 1.511 . S
C2317 C2313 1.376 1_556 S
C2317 C2316 1.392 . S
C2317 H2329 0.929 . S
C2318 C2314 1.531 . S
C2318 H2330 0.960 . S
C2318 H2331 0.962 . S
C2318 H2332 0.960 . S
C2319 C2316 1.511 . S
C2319 H2333 0.961 . S
C2319 H2334 0.961 . S
C2319 H2335 0.961 . S
C2320 C2321 1.386 . S
C2320 C2322 1.363 . S
C2320 H2336 0.931 . S
C2321 C2320 1.386 . S
C2321 C2325 1.390 1_556 S
C2322 C2320 1.363 . S
C2322 C2323 1.370 1_556 S
C2322 C2326 1.524 . S
C2323 C2315 1.503 . S
C2323 C2322 1.370 1_554 S
C2323 C2324 1.403 . S
C2324 C2323 1.403 . S
C2324 C2325 1.404 . S
C2324 C2327 1.539 . S
C2325 C2321 1.390 1_554 S
C2325 C2324 1.404 . S
C2325 H2337 0.930 . S
C2326 C2322 1.524 . S
C2326 H2338 0.956 . S
C2326 H2339 0.961 . S
C2326 H2340 0.961 . S
C2327 C2324 1.539 . S
C2327 H2341 0.958 . S
C2327 H2342 0.961 . S
C2327 H2343 0.960 . S
H2328 C2312 0.931 . S
H2329 C2317 0.929 . S
H2330 C2318 0.960 . S
H2331 C2318 0.962 . S
H2332 C2318 0.960 . S
H2333 C2319 0.961 . S
H2334 C2319 0.961 . S
H2335 C2319 0.961 . S
H2336 C2320 0.931 . S
H2337 C2325 0.930 . S
H2338 C2326 0.956 . S
H2339 C2326 0.961 . S
H2340 C2326 0.961 . S
H2341 C2327 0.958 . S
H2342 C2327 0.961 . S
H2343 C2327 0.960 . S
C2344 C2345 1.391 . S
C2344 C2346 1.394 . S
C2344 H2360 0.931 . S
C2345 C2344 1.391 . S
C2345 C2349 1.376 . S
C2346 C2344 1.394 . S
C2346 C2347 1.369 . S
C2346 C2350 1.531 . S
C2347 C2346 1.369 . S
C2347 C2348 1.410 . S
C2347 C2355 1.503 . S
C2348 C2347 1.410 . S
C2348 C2349 1.392 . S
C2348 C2351 1.511 . S
C2349 C2345 1.376 . S
C2349 C2348 1.392 . S
C2349 H2361 0.929 . S
C2350 C2346 1.531 . S
C2350 H2362 0.960 . S
C2350 H2363 0.962 . S
C2350 H2364 0.960 . S
C2351 C2348 1.511 . S
C2351 H2365 0.961 . S
C2351 H2366 0.961 . S
C2351 H2367 0.961 . S
C2352 C2353 1.370 . S
C2352 C2354 1.363 . S
C2352 H2368 0.931 . S
C2353 C2352 1.370 . S
C2353 C2357 1.408 . S
C2354 C2352 1.363 . S
C2354 C2355 1.370 . S
C2354 C2358 1.524 . S
C2355 C2347 1.503 . S
C2355 C2354 1.370 . S
C2355 C2356 1.403 . S
C2356 C2355 1.403 . S
C2356 C2357 1.404 . S
C2356 C2359 1.539 . S
C2357 C2353 1.408 . S
C2357 C2356 1.404 . S
C2357 H2369 0.930 . S
C2358 C2354 1.524 . S
C2358 H2370 0.956 . S
C2358 H2371 0.961 . S
C2358 H2372 0.961 . S
C2359 C2356 1.539 . S
C2359 H2373 0.958 . S
C2359 H2374 0.961 . S
C2359 H2375 0.960 . S
H2360 C2344 0.931 . S
H2361 C2349 0.929 . S
H2362 C2350 0.960 . S
H2363 C2350 0.962 . S
H2364 C2350 0.960 . S
H2365 C2351 0.961 . S
H2366 C2351 0.961 . S
H2367 C2351 0.961 . S
H2368 C2352 0.931 . S
H2369 C2357 0.930 . S
H2370 C2358 0.956 . S
H2371 C2358 0.961 . S
H2372 C2358 0.961 . S
H2373 C2359 0.958 . S
H2374 C2359 0.961 . S
H2375 C2359 0.960 . S
C2376 C2377 1.391 . S
C2376 C2378 1.394 . S
C2376 H2392 0.931 . S
C2377 C2376 1.391 . S
C2377 C2381 1.376 . S
C2378 C2376 1.394 . S
C2378 C2379 1.369 . S
C2378 C2382 1.531 . S
C2379 C2378 1.369 . S
C2379 C2380 1.410 . S
C2379 C2387 1.503 . S
C2380 C2379 1.410 . S
C2380 C2381 1.392 . S
C2380 C2383 1.511 . S
C2381 C2377 1.376 . S
C2381 C2380 1.392 . S
C2381 H2393 0.929 . S
C2382 C2378 1.531 . S
C2382 H2394 0.960 . S
C2382 H2395 0.962 . S
C2382 H2396 0.960 . S
C2383 C2380 1.511 . S
C2383 H2397 0.961 . S
C2383 H2398 0.961 . S
C2383 H2399 0.961 . S
C2384 C2385 1.370 . S
C2384 C2386 1.363 . S
C2384 H2400 0.931 . S
C2385 C2384 1.370 . S
C2385 C2389 1.408 . S
C2386 C2384 1.363 . S
C2386 C2387 1.370 . S
C2386 C2390 1.524 . S
C2387 C2379 1.503 . S
C2387 C2386 1.370 . S
C2387 C2388 1.403 . S
C2388 C2387 1.403 . S
C2388 C2389 1.404 . S
C2388 C2391 1.539 . S
C2389 C2385 1.408 . S
C2389 C2388 1.404 . S
C2389 H2401 0.930 . S
C2390 C2386 1.524 . S
C2390 H2402 0.956 . S
C2390 H2403 0.961 . S
C2390 H2404 0.961 . S
C2391 C2388 1.539 . S
C2391 H2405 0.958 . S
C2391 H2406 0.961 . S
C2391 H2407 0.960 . S
H2392 C2376 0.931 . S
H2393 C2381 0.929 . S
H2394 C2382 0.960 . S
H2395 C2382 0.962 . S
H2396 C2382 0.960 . S
H2397 C2383 0.961 . S
H2398 C2383 0.961 . S
H2399 C2383 0.961 . S
H2400 C2384 0.931 . S
H2401 C2389 0.930 . S
H2402 C2390 0.956 . S
H2403 C2390 0.961 . S
H2404 C2390 0.961 . S
H2405 C2391 0.958 . S
H2406 C2391 0.961 . S
H2407 C2391 0.960 . S
C2408 C2409 1.391 . S
C2408 C2410 1.394 . S
C2408 H2424 0.931 . S
C2409 C2408 1.391 . S
C2409 C2413 1.376 . S
C2410 C2408 1.394 . S
C2410 C2411 1.369 . S
C2410 C2414 1.531 . S
C2411 C2410 1.369 . S
C2411 C2412 1.410 . S
C2411 C2419 1.503 . S
C2412 C2411 1.410 . S
C2412 C2413 1.392 . S
C2412 C2415 1.511 . S
C2413 C2409 1.376 . S
C2413 C2412 1.392 . S
C2413 H2425 0.929 . S
C2414 C2410 1.531 . S
C2414 H2426 0.960 . S
C2414 H2427 0.962 . S
C2414 H2428 0.960 . S
C2415 C2412 1.511 . S
C2415 H2429 0.961 . S
C2415 H2430 0.961 . S
C2415 H2431 0.961 . S
C2416 C2417 1.370 . S
C2416 C2418 1.363 . S
C2416 H2432 0.931 . S
C2417 C2416 1.370 . S
C2417 C2421 1.408 . S
C2418 C2416 1.363 . S
C2418 C2419 1.370 . S
C2418 C2422 1.524 . S
C2419 C2411 1.503 . S
C2419 C2418 1.370 . S
C2419 C2420 1.403 . S
C2420 C2419 1.403 . S
C2420 C2421 1.404 . S
C2420 C2423 1.539 . S
C2421 C2417 1.408 . S
C2421 C2420 1.404 . S
C2421 H2433 0.930 . S
C2422 C2418 1.524 . S
C2422 H2434 0.956 . S
C2422 H2435 0.961 . S
C2422 H2436 0.961 . S
C2423 C2420 1.539 . S
C2423 H2437 0.958 . S
C2423 H2438 0.961 . S
C2423 H2439 0.960 . S
H2424 C2408 0.931 . S
H2425 C2413 0.929 . S
H2426 C2414 0.960 . S
H2427 C2414 0.962 . S
H2428 C2414 0.960 . S
H2429 C2415 0.961 . S
H2430 C2415 0.961 . S
H2431 C2415 0.961 . S
H2432 C2416 0.931 . S
H2433 C2421 0.930 . S
H2434 C2422 0.956 . S
H2435 C2422 0.961 . S
H2436 C2422 0.961 . S
H2437 C2423 0.958 . S
H2438 C2423 0.961 . S
H2439 C2423 0.960 . S
C2440 C2441 1.391 . S
C2440 C2442 1.394 . S
C2440 H2456 0.931 . S
C2441 C2440 1.391 . S
C2441 C2445 1.376 . S
C2442 C2440 1.394 . S
C2442 C2443 1.369 . S
C2442 C2446 1.531 . S
C2443 C2442 1.369 . S
C2443 C2444 1.410 . S
C2443 C2451 1.503 . S
C2444 C2443 1.410 . S
C2444 C2445 1.392 . S
C2444 C2447 1.511 . S
C2445 C2441 1.376 . S
C2445 C2444 1.392 . S
C2445 H2457 0.929 . S
C2446 C2442 1.531 . S
C2446 H2458 0.960 . S
C2446 H2459 0.962 . S
C2446 H2460 0.960 . S
C2447 C2444 1.511 . S
C2447 H2461 0.961 . S
C2447 H2462 0.961 . S
C2447 H2463 0.961 . S
C2448 C2449 1.370 . S
C2448 C2450 1.363 . S
C2448 H2464 0.931 . S
C2449 C2448 1.370 . S
C2449 C2453 1.408 . S
C2450 C2448 1.363 . S
C2450 C2451 1.370 . S
C2450 C2454 1.524 . S
C2451 C2443 1.503 . S
C2451 C2450 1.370 . S
C2451 C2452 1.403 . S
C2452 C2451 1.403 . S
C2452 C2453 1.404 . S
C2452 C2455 1.539 . S
C2453 C2449 1.408 . S
C2453 C2452 1.404 . S
C2453 H2465 0.930 . S
C2454 C2450 1.524 . S
C2454 H2466 0.956 . S
C2454 H2467 0.961 . S
C2454 H2468 0.961 . S
C2455 C2452 1.539 . S
C2455 H2469 0.958 . S
C2455 H2470 0.961 . S
C2455 H2471 0.960 . S
H2456 C2440 0.931 . S
H2457 C2445 0.929 . S
H2458 C2446 0.960 . S
H2459 C2446 0.962 . S
H2460 C2446 0.960 . S
H2461 C2447 0.961 . S
H2462 C2447 0.961 . S
H2463 C2447 0.961 . S
H2464 C2448 0.931 . S
H2465 C2453 0.930 . S
H2466 C2454 0.956 . S
H2467 C2454 0.961 . S
H2468 C2454 0.961 . S
H2469 C2455 0.958 . S
H2470 C2455 0.961 . S
H2471 C2455 0.960 . S
C2472 C2473 1.391 . S
C2472 C2474 1.394 . S
C2472 H2488 0.931 . S
C2473 C2472 1.391 . S
C2473 C2477 1.376 . S
C2474 C2472 1.394 . S
C2474 C2475 1.369 . S
C2474 C2478 1.531 . S
C2475 C2474 1.369 . S
C2475 C2476 1.410 . S
C2475 C2483 1.503 . S
C2476 C2475 1.410 . S
C2476 C2477 1.392 . S
C2476 C2479 1.511 . S
C2477 C2473 1.376 . S
C2477 C2476 1.392 . S
C2477 H2489 0.929 . S
C2478 C2474 1.531 . S
C2478 H2490 0.960 . S
C2478 H2491 0.962 . S
C2478 H2492 0.960 . S
C2479 C2476 1.511 . S
C2479 H2493 0.961 . S
C2479 H2494 0.961 . S
C2479 H2495 0.961 . S
C2480 C2481 1.370 . S
C2480 C2482 1.363 . S
C2480 H2496 0.931 . S
C2481 C2480 1.370 . S
C2481 C2485 1.408 . S
C2482 C2480 1.363 . S
C2482 C2483 1.370 . S
C2482 C2486 1.524 . S
C2483 C2475 1.503 . S
C2483 C2482 1.370 . S
C2483 C2484 1.403 . S
C2484 C2483 1.403 . S
C2484 C2485 1.404 . S
C2484 C2487 1.539 . S
C2485 C2481 1.408 . S
C2485 C2484 1.404 . S
C2485 H2497 0.930 . S
C2486 C2482 1.524 . S
C2486 H2498 0.956 . S
C2486 H2499 0.961 . S
C2486 H2500 0.961 . S
C2487 C2484 1.539 . S
C2487 H2501 0.958 . S
C2487 H2502 0.961 . S
C2487 H2503 0.960 . S
H2488 C2472 0.931 . S
H2489 C2477 0.929 . S
H2490 C2478 0.960 . S
H2491 C2478 0.962 . S
H2492 C2478 0.960 . S
H2493 C2479 0.961 . S
H2494 C2479 0.961 . S
H2495 C2479 0.961 . S
H2496 C2480 0.931 . S
H2497 C2485 0.930 . S
H2498 C2486 0.956 . S
H2499 C2486 0.961 . S
H2500 C2486 0.961 . S
H2501 C2487 0.958 . S
H2502 C2487 0.961 . S
H2503 C2487 0.960 . S
C2504 C2505 1.391 . S
C2504 C2506 1.394 . S
C2504 H2520 0.931 . S
C2505 C2504 1.391 . S
C2505 C2509 1.376 1_545 S
C2506 C2504 1.394 . S
C2506 C2507 1.369 . S
C2506 C2510 1.531 . S
C2507 C2506 1.369 . S
C2507 C2508 1.410 1_545 S
C2507 C2515 1.503 . S
C2508 C2507 1.410 1_565 S
C2508 C2509 1.392 . S
C2508 C2511 1.511 . S
C2509 C2505 1.376 1_565 S
C2509 C2508 1.392 . S
C2509 H2521 0.929 . S
C2510 C2506 1.531 . S
C2510 H2522 0.960 . S
C2510 H2523 0.962 . S
C2510 H2524 0.960 . S
C2511 C2508 1.511 . S
C2511 H2525 0.961 . S
C2511 H2526 0.961 . S
C2511 H2527 0.961 . S
C2512 C2513 1.370 . S
C2512 C2514 1.363 . S
C2512 H2528 0.931 . S
C2513 C2512 1.370 . S
C2513 C2517 1.408 1_565 S
C2514 C2512 1.363 . S
C2514 C2515 1.370 1_565 S
C2514 C2518 1.524 . S
C2515 C2507 1.503 . S
C2515 C2514 1.370 1_545 S
C2515 C2516 1.403 . S
C2516 C2515 1.403 . S
C2516 C2517 1.404 . S
C2516 C2519 1.539 . S
C2517 C2513 1.408 1_545 S
C2517 C2516 1.404 . S
C2517 H2529 0.930 . S
C2518 C2514 1.524 . S
C2518 H2530 0.956 . S
C2518 H2531 0.961 . S
C2518 H2532 0.961 . S
C2519 C2516 1.539 . S
C2519 H2533 0.958 . S
C2519 H2534 0.961 . S
C2519 H2535 0.960 . S
H2520 C2504 0.931 . S
H2521 C2509 0.929 . S
H2522 C2510 0.960 . S
H2523 C2510 0.962 . S
H2524 C2510 0.960 . S
H2525 C2511 0.961 . S
H2526 C2511 0.961 . S
H2527 C2511 0.961 . S
H2528 C2512 0.931 . S
H2529 C2517 0.930 . S
H2530 C2518 0.956 . S
H2531 C2518 0.961 . S
H2532 C2518 0.961 . S
H2533 C2519 0.958 . S
H2534 C2519 0.961 . S
H2535 C2519 0.960 . S
C2536 C2537 1.402 . S
C2536 C2538 1.394 . S
C2536 H2552 0.931 . S
C2537 C2536 1.402 . S
C2537 C2541 1.363 1_556 S
C2538 C2536 1.394 . S
C2538 C2539 1.369 1_556 S
C2538 C2542 1.531 . S
C2539 C2538 1.369 1_554 S
C2539 C2540 1.410 . S
C2539 C2547 1.503 . S
C2540 C2539 1.410 . S
C2540 C2541 1.392 . S
C2540 C2543 1.511 . S
C2541 C2537 1.363 1_554 S
C2541 C2540 1.392 . S
C2541 H2553 0.929 . S
C2542 C2538 1.531 . S
C2542 H2554 0.960 . S
C2542 H2555 0.962 . S
C2542 H2556 0.960 . S
C2543 C2540 1.511 . S
C2543 H2557 0.961 . S
C2543 H2558 0.961 . S
C2543 H2559 0.961 . S
C2544 C2545 1.370 1_556 S
C2544 C2546 1.363 . S
C2544 H2560 0.931 . S
C2545 C2544 1.370 1_554 S
C2545 C2549 1.408 . S
C2546 C2544 1.363 . S
C2546 C2547 1.370 1_556 S
C2546 C2550 1.524 . S
C2547 C2539 1.503 . S
C2547 C2546 1.370 1_554 S
C2547 C2548 1.403 . S
C2548 C2547 1.403 . S
C2548 C2549 1.404 . S
C2548 C2551 1.539 . S
C2549 C2545 1.408 . S
C2549 C2548 1.404 . S
C2549 H2561 0.930 . S
C2550 C2546 1.524 . S
C2550 H2562 0.956 . S
C2550 H2563 0.961 . S
C2550 H2564 0.961 . S
C2551 C2548 1.539 . S
C2551 H2565 0.958 . S
C2551 H2566 0.961 . S
C2551 H2567 0.960 . S
H2552 C2536 0.931 . S
H2553 C2541 0.929 . S
H2554 C2542 0.960 . S
H2555 C2542 0.962 . S
H2556 C2542 0.960 . S
H2557 C2543 0.961 . S
H2558 C2543 0.961 . S
H2559 C2543 0.961 . S
H2560 C2544 0.931 . S
H2561 C2549 0.930 . S
H2562 C2550 0.956 . S
H2563 C2550 0.961 . S
H2564 C2550 0.961 . S
H2565 C2551 0.958 . S
H2566 C2551 0.961 . S
H2567 C2551 0.960 . S
C2568 C2569 1.391 . S
C2568 C2570 1.394 . S
C2568 H2584 0.931 . S
C2569 C2568 1.391 . S
C2569 C2573 1.376 1_655 S
C2570 C2568 1.394 . S
C2570 C2571 1.369 . S
C2570 C2574 1.531 . S
C2571 C2570 1.369 . S
C2571 C2572 1.410 1_655 S
C2571 C2579 1.503 1_565 S
C2572 C2571 1.410 1_455 S
C2572 C2573 1.392 . S
C2572 C2575 1.511 1_565 S
C2573 C2569 1.376 1_455 S
C2573 C2572 1.392 . S
C2573 H2585 0.929 . S
C2574 C2570 1.531 . S
C2574 H2586 0.960 . S
C2574 H2587 0.962 . S
C2574 H2588 0.960 . S
C2575 C2572 1.511 1_545 S
C2575 H2589 0.961 . S
C2575 H2590 0.961 . S
C2575 H2591 0.961 1_545 S
C2576 C2577 1.370 . S
C2576 C2578 1.363 . S
C2576 H2592 0.931 . S
C2577 C2576 1.370 . S
C2577 C2581 1.408 1_655 S
C2578 C2576 1.363 . S
C2578 C2579 1.370 . S
C2578 C2582 1.524 . S
C2579 C2571 1.503 1_545 S
C2579 C2578 1.370 . S
C2579 C2580 1.403 1_655 S
C2580 C2579 1.403 1_455 S
C2580 C2581 1.404 . S
C2580 C2583 1.539 1_545 S
C2581 C2577 1.408 1_455 S
C2581 C2580 1.404 . S
C2581 H2593 0.930 . S
C2582 C2578 1.524 . S
C2582 H2594 0.956 . S
C2582 H2595 0.961 . S
C2582 H2596 0.961 . S
C2583 C2580 1.539 1_565 S
C2583 H2597 0.958 . S
C2583 H2598 0.961 . S
C2583 H2599 0.960 . S
H2584 C2568 0.931 . S
H2585 C2573 0.929 . S
H2586 C2574 0.960 . S
H2587 C2574 0.962 . S
H2588 C2574 0.960 . S
H2589 C2575 0.961 . S
H2590 C2575 0.961 . S
H2591 C2575 0.961 1_565 S
H2592 C2576 0.931 . S
H2593 C2581 0.930 . S
H2594 C2582 0.956 . S
H2595 C2582 0.961 . S
H2596 C2582 0.961 . S
H2597 C2583 0.958 . S
H2598 C2583 0.961 . S
H2599 C2583 0.960 . S
C2600 C2601 1.391 . S
C2600 C2602 1.394 . S
C2600 H2616 0.931 . S
C2601 C2600 1.391 . S
C2601 C2605 1.376 1_455 S
C2602 C2600 1.394 . S
C2602 C2603 1.374 . S
C2602 C2606 1.531 . S
C2603 C2602 1.374 . S
C2603 C2604 1.404 1_455 S
C2603 C2611 1.503 . S
C2604 C2603 1.404 1_655 S
C2604 C2605 1.392 . S
C2604 C2607 1.511 . S
C2605 C2601 1.376 1_655 S
C2605 C2604 1.392 . S
C2605 H2617 0.929 . S
C2606 C2602 1.531 . S
C2606 H2618 0.960 . S
C2606 H2619 0.962 . S
C2606 H2620 0.960 . S
C2607 C2604 1.511 . S
C2607 H2621 0.961 . S
C2607 H2622 0.961 . S
C2607 H2623 0.961 . S
C2608 C2609 1.370 . S
C2608 C2610 1.363 . S
C2608 H2624 0.931 . S
C2609 C2608 1.370 . S
C2609 C2613 1.408 1_455 S
C2610 C2608 1.363 . S
C2610 C2611 1.380 . S
C2610 C2614 1.524 . S
C2611 C2603 1.503 . S
C2611 C2610 1.380 . S
C2611 C2612 1.394 1_455 S
C2612 C2611 1.394 1_655 S
C2612 C2613 1.404 . S
C2612 C2615 1.539 . S
C2613 C2609 1.408 1_655 S
C2613 C2612 1.404 . S
C2613 H2625 0.930 . S
C2614 C2610 1.524 . S
C2614 H2626 0.956 . S
C2614 H2627 0.961 . S
C2614 H2628 0.961 . S
C2615 C2612 1.539 . S
C2615 H2629 0.958 . S
C2615 H2630 0.961 . S
C2615 H2631 0.960 . S
H2616 C2600 0.931 . S
H2617 C2605 0.929 . S
H2618 C2606 0.960 . S
H2619 C2606 0.962 . S
H2620 C2606 0.960 . S
H2621 C2607 0.961 . S
H2622 C2607 0.961 . S
H2623 C2607 0.961 . S
H2624 C2608 0.931 . S
H2625 C2613 0.930 . S
H2626 C2614 0.956 . S
H2627 C2614 0.961 . S
H2628 C2614 0.961 . S
H2629 C2615 0.958 . S
H2630 C2615 0.961 . S
H2631 C2615 0.960 . S
C2632 C2633 1.391 . S
C2632 C2634 1.394 . S
C2632 H2648 0.931 . S
C2633 C2632 1.391 . S
C2633 C2637 1.376 1_565 S
C2634 C2632 1.394 . S
C2634 C2635 1.369 . S
C2634 C2638 1.531 1_556 S
C2635 C2634 1.369 . S
C2635 C2636 1.424 . S
C2635 C2643 1.503 1_556 S
C2636 C2635 1.424 . S
C2636 C2637 1.389 1_565 S
C2636 C2639 1.501 1_565 S
C2637 C2633 1.376 1_545 S
C2637 C2636 1.389 1_545 S
C2637 H2649 0.929 . S
C2638 C2634 1.531 1_554 S
C2638 H2650 0.960 . S
C2638 H2651 0.962 . S
C2638 H2652 0.960 . S
C2639 C2636 1.501 1_545 S
C2639 H2653 0.961 . S
C2639 H2654 0.961 . S
C2639 H2655 0.961 1_545 S
C2640 C2641 1.370 1_545 S
C2640 C2642 1.363 . S
C2640 H2656 0.931 . S
C2641 C2640 1.370 1_565 S
C2641 C2645 1.408 . S
C2642 C2640 1.363 . S
C2642 C2643 1.370 1_545 S
C2642 C2646 1.524 . S
C2643 C2635 1.503 1_554 S
C2643 C2642 1.370 1_565 S
C2643 C2644 1.403 . S
C2644 C2643 1.403 . S
C2644 C2645 1.404 . S
C2644 C2647 1.539 1_554 S
C2645 C2641 1.408 . S
C2645 C2644 1.404 . S
C2645 H2657 0.930 . S
C2646 C2642 1.524 . S
C2646 H2658 0.956 . S
C2646 H2659 0.934 1_554 S
C2646 H2660 0.961 . S
C2647 C2644 1.539 1_556 S
C2647 H2661 0.958 1_556 S
C2647 H2662 0.961 . S
C2647 H2663 0.960 . S
H2648 C2632 0.931 . S
H2649 C2637 0.929 . S
H2650 C2638 0.960 . S
H2651 C2638 0.962 . S
H2652 C2638 0.960 . S
H2653 C2639 0.961 . S
H2654 C2639 0.961 . S
H2655 C2639 0.961 1_565 S
H2656 C2640 0.931 . S
H2657 C2645 0.930 . S
H2658 C2646 0.956 . S
H2659 C2646 0.934 1_556 S
H2660 C2646 0.961 . S
H2661 C2647 0.958 1_554 S
H2662 C2647 0.961 . S
H2663 C2647 0.960 . S
C2664 C2665 1.391 . S
C2664 C2666 1.394 . S
C2664 H2680 0.931 . S
C2665 C2664 1.391 . S
C2665 C2669 1.376 . S
C2666 C2664 1.394 . S
C2666 C2667 1.369 . S
C2666 C2670 1.531 . S
C2667 C2666 1.369 . S
C2667 C2668 1.410 . S
C2667 C2675 1.503 1_554 S
C2668 C2667 1.410 . S
C2668 C2669 1.392 . S
C2668 C2671 1.511 1_554 S
C2669 C2665 1.376 . S
C2669 C2668 1.392 . S
C2669 H2681 0.929 . S
C2670 C2666 1.531 . S
C2670 H2682 0.960 . S
C2670 H2683 0.962 . S
C2670 H2684 0.960 . S
C2671 C2668 1.511 1_556 S
C2671 H2685 0.961 . S
C2671 H2686 0.961 . S
C2671 H2687 0.961 . S
C2672 C2673 1.370 . S
C2672 C2674 1.363 . S
C2672 H2688 0.931 . S
C2673 C2672 1.370 . S
C2673 C2677 1.408 . S
C2674 C2672 1.363 . S
C2674 C2675 1.370 . S
C2674 C2678 1.524 1_556 S
C2675 C2667 1.503 1_556 S
C2675 C2674 1.370 . S
C2675 C2676 1.403 . S
C2676 C2675 1.403 . S
C2676 C2677 1.404 . S
C2676 C2679 1.539 . S
C2677 C2673 1.408 . S
C2677 C2676 1.404 . S
C2677 H2689 0.930 . S
C2678 C2674 1.524 1_554 S
C2678 H2690 0.956 . S
C2678 H2691 0.961 . S
C2678 H2692 0.961 . S
C2679 C2676 1.539 . S
C2679 H2693 0.958 . S
C2679 H2694 0.961 . S
C2679 H2695 0.960 . S
H2680 C2664 0.931 . S
H2681 C2669 0.929 . S
H2682 C2670 0.960 . S
H2683 C2670 0.962 . S
H2684 C2670 0.960 . S
H2685 C2671 0.961 . S
H2686 C2671 0.961 . S
H2687 C2671 0.961 . S
H2688 C2672 0.931 . S
H2689 C2677 0.930 . S
H2690 C2678 0.956 . S
H2691 C2678 0.961 . S
H2692 C2678 0.961 . S
H2693 C2679 0.958 . S
H2694 C2679 0.961 . S
H2695 C2679 0.960 . S
C2696 C2697 1.391 1_565 S
C2696 C2698 1.394 . S
C2696 H2712 0.931 . S
C2697 C2696 1.391 1_545 S
C2697 C2701 1.376 . S
C2698 C2696 1.394 . S
C2698 C2699 1.369 . S
C2698 C2702 1.531 . S
C2699 C2698 1.369 . S
C2699 C2700 1.410 1_565 S
C2699 C2707 1.504 . S
C2700 C2699 1.410 1_545 S
C2700 C2701 1.392 . S
C2700 C2703 1.511 . S
C2701 C2697 1.376 . S
C2701 C2700 1.392 . S
C2701 H2713 0.929 . S
C2702 C2698 1.531 . S
C2702 H2714 0.960 . S
C2702 H2715 0.962 . S
C2702 H2716 0.960 . S
C2703 C2700 1.511 . S
C2703 H2717 0.961 . S
C2703 H2718 0.961 . S
C2703 H2719 0.961 . S
C2704 C2705 1.370 . S
C2704 C2706 1.363 . S
C2704 H2720 0.931 . S
C2705 C2704 1.370 . S
C2705 C2709 1.408 1_545 S
C2706 C2704 1.363 . S
C2706 C2707 1.359 1_545 S
C2706 C2710 1.524 . S
C2707 C2699 1.504 . S
C2707 C2706 1.359 1_565 S
C2707 C2708 1.414 . S
C2708 C2707 1.414 . S
C2708 C2709 1.404 . S
C2708 C2711 1.539 . S
C2709 C2705 1.408 1_565 S
C2709 C2708 1.404 . S
C2709 H2721 0.930 . S
C2710 C2706 1.524 . S
C2710 H2722 0.956 . S
C2710 H2723 0.961 . S
C2710 H2724 0.961 . S
C2711 C2708 1.539 . S
C2711 H2725 0.958 . S
C2711 H2726 0.961 . S
C2711 H2727 0.960 . S
H2712 C2696 0.931 . S
H2713 C2701 0.929 . S
H2714 C2702 0.960 . S
H2715 C2702 0.962 . S
H2716 C2702 0.960 . S
H2717 C2703 0.961 . S
H2718 C2703 0.961 . S
H2719 C2703 0.961 . S
H2720 C2704 0.931 . S
H2721 C2709 0.930 . S
H2722 C2710 0.956 . S
H2723 C2710 0.961 . S
H2724 C2710 0.961 . S
H2725 C2711 0.958 . S
H2726 C2711 0.961 . S
H2727 C2711 0.960 . S
C2728 C2729 1.391 . S
C2728 C2730 1.394 . S
C2728 H2744 0.931 . S
C2729 C2728 1.391 . S
C2729 C2733 1.376 . S
C2730 C2728 1.394 . S
C2730 C2731 1.369 . S
C2730 C2734 1.531 . S
C2731 C2730 1.369 . S
C2731 C2732 1.410 . S
C2731 C2739 1.503 . S
C2732 C2731 1.410 . S
C2732 C2733 1.392 . S
C2732 C2735 1.511 . S
C2733 C2729 1.376 . S
C2733 C2732 1.392 . S
C2733 H2745 0.929 . S
C2734 C2730 1.531 . S
C2734 H2746 0.960 . S
C2734 H2747 0.962 . S
C2734 H2748 0.960 . S
C2735 C2732 1.511 . S
C2735 H2749 0.961 . S
C2735 H2750 0.961 . S
C2735 H2751 0.961 . S
C2736 C2737 1.370 . S
C2736 C2738 1.363 . S
C2736 H2752 0.931 . S
C2737 C2736 1.370 . S
C2737 C2741 1.408 . S
C2738 C2736 1.363 . S
C2738 C2739 1.370 . S
C2738 C2742 1.524 . S
C2739 C2731 1.503 . S
C2739 C2738 1.370 . S
C2739 C2740 1.403 . S
C2740 C2739 1.403 . S
C2740 C2741 1.404 . S
C2740 C2743 1.539 . S
C2741 C2737 1.408 . S
C2741 C2740 1.404 . S
C2741 H2753 0.930 . S
C2742 C2738 1.524 . S
C2742 H2754 0.956 . S
C2742 H2755 0.961 . S
C2742 H2756 0.961 . S
C2743 C2740 1.539 . S
C2743 H2757 0.958 . S
C2743 H2758 0.961 . S
C2743 H2759 0.960 . S
H2744 C2728 0.931 . S
H2745 C2733 0.929 . S
H2746 C2734 0.960 . S
H2747 C2734 0.962 . S
H2748 C2734 0.960 . S
H2749 C2735 0.961 . S
H2750 C2735 0.961 . S
H2751 C2735 0.961 . S
H2752 C2736 0.931 . S
H2753 C2741 0.930 . S
H2754 C2742 0.956 . S
H2755 C2742 0.961 . S
H2756 C2742 0.961 . S
H2757 C2743 0.958 . S
H2758 C2743 0.961 . S
H2759 C2743 0.960 . S
C2760 C2761 1.391 . S
C2760 C2762 1.394 . S
C2760 H2776 0.931 . S
C2761 C2760 1.391 . S
C2761 C2765 1.376 . S
C2762 C2760 1.394 . S
C2762 C2763 1.369 . S
C2762 C2766 1.531 1_455 S
C2763 C2762 1.369 . S
C2763 C2764 1.410 . S
C2763 C2771 1.503 1_455 S
C2764 C2763 1.410 . S
C2764 C2765 1.392 . S
C2764 C2767 1.511 . S
C2765 C2761 1.376 . S
C2765 C2764 1.392 . S
C2765 H2777 0.929 . S
C2766 C2762 1.531 1_655 S
C2766 H2778 0.960 . S
C2766 H2779 0.962 1_556 S
C2766 H2780 0.960 . S
C2767 C2764 1.511 . S
C2767 H2781 0.961 . S
C2767 H2782 0.961 . S
C2767 H2783 0.961 . S
C2768 C2769 1.370 1_554 S
C2768 C2770 1.363 . S
C2768 H2784 0.931 . S
C2769 C2768 1.370 1_556 S
C2769 C2773 1.408 . S
C2770 C2768 1.363 . S
C2770 C2771 1.370 1_554 S
C2770 C2774 1.524 . S
C2771 C2763 1.503 1_655 S
C2771 C2770 1.370 1_556 S
C2771 C2772 1.403 . S
C2772 C2771 1.403 . S
C2772 C2773 1.404 . S
C2772 C2775 1.539 . S
C2773 C2769 1.408 . S
C2773 C2772 1.404 . S
C2773 H2785 0.930 . S
C2774 C2770 1.524 . S
C2774 H2786 0.956 . S
C2774 H2787 0.961 1_655 S
C2774 H2788 0.961 . S
C2775 C2772 1.539 . S
C2775 H2789 0.958 . S
C2775 H2790 0.961 . S
C2775 H2791 0.960 1_655 S
H2776 C2760 0.931 . S
H2777 C2765 0.929 . S
H2778 C2766 0.960 . S
H2779 C2766 0.962 1_554 S
H2780 C2766 0.960 . S
H2781 C2767 0.961 . S
H2782 C2767 0.961 . S
H2783 C2767 0.961 . S
H2784 C2768 0.931 . S
H2785 C2773 0.930 . S
H2786 C2774 0.956 . S
H2787 C2774 0.961 1_455 S
H2788 C2774 0.961 . S
H2789 C2775 0.958 . S
H2790 C2775 0.961 . S
H2791 C2775 0.960 1_455 S
C2792 C2793 1.391 . S
C2792 C2794 1.394 . S
C2792 H2808 0.931 . S
C2793 C2792 1.391 . S
C2793 C2797 1.376 . S
C2794 C2792 1.394 . S
C2794 C2795 1.369 . S
C2794 C2798 1.531 1_455 S
C2795 C2794 1.369 . S
C2795 C2796 1.410 . S
C2795 C2803 1.503 1_455 S
C2796 C2795 1.410 . S
C2796 C2797 1.392 . S
C2796 C2799 1.511 . S
C2797 C2793 1.376 . S
C2797 C2796 1.392 . S
C2797 H2809 0.929 . S
C2798 C2794 1.531 1_655 S
C2798 H2810 0.960 . S
C2798 H2811 0.962 . S
C2798 H2812 0.960 . S
C2799 C2796 1.511 . S
C2799 H2813 0.961 . S
C2799 H2814 0.961 . S
C2799 H2815 0.961 . S
C2800 C2801 1.370 . S
C2800 C2802 1.363 . S
C2800 H2816 0.931 . S
C2801 C2800 1.370 . S
C2801 C2805 1.408 . S
C2802 C2800 1.363 . S
C2802 C2803 1.370 . S
C2802 C2806 1.524 . S
C2803 C2795 1.503 1_655 S
C2803 C2802 1.370 . S
C2803 C2804 1.403 . S
C2804 C2803 1.403 . S
C2804 C2805 1.404 . S
C2804 C2807 1.539 . S
C2805 C2801 1.408 . S
C2805 C2804 1.404 . S
C2805 H2817 0.930 . S
C2806 C2802 1.524 . S
C2806 H2818 0.956 . S
C2806 H2819 0.961 1_655 S
C2806 H2820 0.961 . S
C2807 C2804 1.539 . S
C2807 H2821 0.958 . S
C2807 H2822 0.961 . S
C2807 H2823 0.960 1_655 S
H2808 C2792 0.931 . S
H2809 C2797 0.929 . S
H2810 C2798 0.960 . S
H2811 C2798 0.962 . S
H2812 C2798 0.960 . S
H2813 C2799 0.961 . S
H2814 C2799 0.961 . S
H2815 C2799 0.961 . S
H2816 C2800 0.931 . S
H2817 C2805 0.930 . S
H2818 C2806 0.956 . S
H2819 C2806 0.961 1_455 S
H2820 C2806 0.961 . S
H2821 C2807 0.958 . S
H2822 C2807 0.961 . S
H2823 C2807 0.960 1_455 S
C2824 C2825 1.391 . S
C2824 C2826 1.394 . S
C2824 H2840 0.931 . S
C2825 C2824 1.391 . S
C2825 C2829 1.376 . S
C2826 C2824 1.394 . S
C2826 C2827 1.369 . S
C2826 C2830 1.531 . S
C2827 C2826 1.369 . S
C2827 C2828 1.410 . S
C2827 C2835 1.503 . S
C2828 C2827 1.410 . S
C2828 C2829 1.392 . S
C2828 C2831 1.511 . S
C2829 C2825 1.376 . S
C2829 C2828 1.392 . S
C2829 H2841 0.929 . S
C2830 C2826 1.531 . S
C2830 H2842 0.960 . S
C2830 H2843 0.962 . S
C2830 H2844 0.960 . S
C2831 C2828 1.511 . S
C2831 H2845 0.961 . S
C2831 H2846 0.961 . S
C2831 H2847 0.961 . S
C2832 C2833 1.370 . S
C2832 C2834 1.363 . S
C2832 H2848 0.931 . S
C2833 C2832 1.370 . S
C2833 C2837 1.408 . S
C2834 C2832 1.363 . S
C2834 C2835 1.370 . S
C2834 C2838 1.524 . S
C2835 C2827 1.503 . S
C2835 C2834 1.370 . S
C2835 C2836 1.403 . S
C2836 C2835 1.403 . S
C2836 C2837 1.404 . S
C2836 C2839 1.539 . S
C2837 C2833 1.408 . S
C2837 C2836 1.404 . S
C2837 H2849 0.930 . S
C2838 C2834 1.524 . S
C2838 H2850 0.956 . S
C2838 H2851 0.961 . S
C2838 H2852 0.961 . S
C2839 C2836 1.539 . S
C2839 H2853 0.958 . S
C2839 H2854 0.961 . S
C2839 H2855 0.960 . S
H2840 C2824 0.931 . S
H2841 C2829 0.929 . S
H2842 C2830 0.960 . S
H2843 C2830 0.962 . S
H2844 C2830 0.960 . S
H2845 C2831 0.961 . S
H2846 C2831 0.961 . S
H2847 C2831 0.961 . S
H2848 C2832 0.931 . S
H2849 C2837 0.930 . S
H2850 C2838 0.956 . S
H2851 C2838 0.961 . S
H2852 C2838 0.961 . S
H2853 C2839 0.958 . S
H2854 C2839 0.961 . S
H2855 C2839 0.960 . S
C2856 C2857 1.391 . S
C2856 C2858 1.394 . S
C2856 H2872 0.931 . S
C2857 C2856 1.391 . S
C2857 C2861 1.376 . S
C2858 C2856 1.394 . S
C2858 C2859 1.369 . S
C2858 C2862 1.531 . S
C2859 C2858 1.369 . S
C2859 C2860 1.410 . S
C2859 C2867 1.503 . S
C2860 C2859 1.410 . S
C2860 C2861 1.392 . S
C2860 C2863 1.511 . S
C2861 C2857 1.376 . S
C2861 C2860 1.392 . S
C2861 H2873 0.929 . S
C2862 C2858 1.531 . S
C2862 H2874 0.960 . S
C2862 H2875 0.962 . S
C2862 H2876 0.960 . S
C2863 C2860 1.511 . S
C2863 H2877 0.961 . S
C2863 H2878 0.961 . S
C2863 H2879 0.961 . S
C2864 C2865 1.370 . S
C2864 C2866 1.363 . S
C2864 H2880 0.931 . S
C2865 C2864 1.370 . S
C2865 C2869 1.408 . S
C2866 C2864 1.363 . S
C2866 C2867 1.370 . S
C2866 C2870 1.524 . S
C2867 C2859 1.503 . S
C2867 C2866 1.370 . S
C2867 C2868 1.403 . S
C2868 C2867 1.403 . S
C2868 C2869 1.404 . S
C2868 C2871 1.539 . S
C2869 C2865 1.408 . S
C2869 C2868 1.404 . S
C2869 H2881 0.930 . S
C2870 C2866 1.524 . S
C2870 H2882 0.956 . S
C2870 H2883 0.961 . S
C2870 H2884 0.961 . S
C2871 C2868 1.539 . S
C2871 H2885 0.958 . S
C2871 H2886 0.961 . S
C2871 H2887 0.960 . S
H2872 C2856 0.931 . S
H2873 C2861 0.929 . S
H2874 C2862 0.960 . S
H2875 C2862 0.962 . S
H2876 C2862 0.960 . S
H2877 C2863 0.961 . S
H2878 C2863 0.961 . S
H2879 C2863 0.961 . S
H2880 C2864 0.931 . S
H2881 C2869 0.930 . S
H2882 C2870 0.956 . S
H2883 C2870 0.961 . S
H2884 C2870 0.961 . S
H2885 C2871 0.958 . S
H2886 C2871 0.961 . S
H2887 C2871 0.960 . S
C2888 C2889 1.391 . S
C2888 C2890 1.394 . S
C2888 H2904 0.931 . S
C2889 C2888 1.391 . S
C2889 C2893 1.376 . S
C2890 C2888 1.394 . S
C2890 C2891 1.369 . S
C2890 C2894 1.531 . S
C2891 C2890 1.369 . S
C2891 C2892 1.410 . S
C2891 C2899 1.503 1_565 S
C2892 C2891 1.410 . S
C2892 C2893 1.392 . S
C2892 C2895 1.511 . S
C2893 C2889 1.376 . S
C2893 C2892 1.392 . S
C2893 H2905 0.929 . S
C2894 C2890 1.531 . S
C2894 H2906 0.960 1_565 S
C2894 H2907 0.962 . S
C2894 H2908 0.960 . S
C2895 C2892 1.511 . S
C2895 H2909 0.961 . S
C2895 H2910 0.961 1_565 S
C2895 H2911 0.961 1_565 S
C2896 C2897 1.370 . S
C2896 C2898 1.363 . S
C2896 H2912 0.931 . S
C2897 C2896 1.370 . S
C2897 C2901 1.408 . S
C2898 C2896 1.363 . S
C2898 C2899 1.370 . S
C2898 C2902 1.524 1_545 S
C2899 C2891 1.503 1_545 S
C2899 C2898 1.370 . S
C2899 C2900 1.403 . S
C2900 C2899 1.403 . S
C2900 C2901 1.404 . S
C2900 C2903 1.539 . S
C2901 C2897 1.408 . S
C2901 C2900 1.404 . S
C2901 H2913 0.930 . S
C2902 C2898 1.524 1_565 S
C2902 H2914 0.956 . S
C2902 H2915 0.961 . S
C2902 H2916 0.961 . S
C2903 C2900 1.539 . S
C2903 H2917 0.958 . S
C2903 H2918 0.961 . S
C2903 H2919 0.960 . S
H2904 C2888 0.931 . S
H2905 C2893 0.929 . S
H2906 C2894 0.960 1_545 S
H2907 C2894 0.962 . S
H2908 C2894 0.960 . S
H2909 C2895 0.961 . S
H2910 C2895 0.961 1_545 S
H2911 C2895 0.961 1_545 S
H2912 C2896 0.931 . S
H2913 C2901 0.930 . S
H2914 C2902 0.956 . S
H2915 C2902 0.961 . S
H2916 C2902 0.961 . S
H2917 C2903 0.958 . S
H2918 C2903 0.961 . S
H2919 C2903 0.960 . S
C2920 C2921 1.391 1_556 S
C2920 C2922 1.394 . S
C2920 H2936 0.931 . S
C2921 C2920 1.391 1_554 S
C2921 C2925 1.376 . S
C2922 C2920 1.394 . S
C2922 C2923 1.369 . S
C2922 C2926 1.531 . S
C2923 C2922 1.369 . S
C2923 C2924 1.410 1_556 S
C2923 C2931 1.504 . S
C2924 C2923 1.410 1_554 S
C2924 C2925 1.392 . S
C2924 C2927 1.511 . S
C2925 C2921 1.376 . S
C2925 C2924 1.392 . S
C2925 H2937 0.929 . S
C2926 C2922 1.531 . S
C2926 H2938 0.960 . S
C2926 H2939 0.962 . S
C2926 H2940 0.960 . S
C2927 C2924 1.511 . S
C2927 H2941 0.961 . S
C2927 H2942 0.961 . S
C2927 H2943 0.961 . S
C2928 C2929 1.370 . S
C2928 C2930 1.363 . S
C2928 H2944 0.931 . S
C2929 C2928 1.370 . S
C2929 C2933 1.408 1_554 S
C2930 C2928 1.363 . S
C2930 C2931 1.365 1_554 S
C2930 C2934 1.524 . S
C2931 C2923 1.504 . S
C2931 C2930 1.365 1_556 S
C2931 C2932 1.408 . S
C2932 C2931 1.408 . S
C2932 C2933 1.404 . S
C2932 C2935 1.539 . S
C2933 C2929 1.408 1_556 S
C2933 C2932 1.404 . S
C2933 H2945 0.930 . S
C2934 C2930 1.524 . S
C2934 H2946 0.956 . S
C2934 H2947 0.961 . S
C2934 H2948 0.961 . S
C2935 C2932 1.539 . S
C2935 H2949 0.958 . S
C2935 H2950 0.961 . S
C2935 H2951 0.960 . S
H2936 C2920 0.931 . S
H2937 C2925 0.929 . S
H2938 C2926 0.960 . S
H2939 C2926 0.962 . S
H2940 C2926 0.960 . S
H2941 C2927 0.961 . S
H2942 C2927 0.961 . S
H2943 C2927 0.961 . S
H2944 C2928 0.931 . S
H2945 C2933 0.930 . S
H2946 C2934 0.956 . S
H2947 C2934 0.961 . S
H2948 C2934 0.961 . S
H2949 C2935 0.958 . S
H2950 C2935 0.961 . S
H2951 C2935 0.960 . S
C1417 C1055 0.690 . S
C1425 C33 0.687 . S
C1449 C92 0.726 . S
C1457 C996 0.733 . S
C1481 C151 0.879 . S
C1489 C1173 0.907 . S
C1513 C210 0.929 . S
C1521 C1114 0.908 . S
C1545 C269 0.689 . S
C1553 C1291 0.676 . S
C1577 C328 0.913 . S
C1585 C1350 0.930 . S
C1609 C1232 0.772 . S
C1617 C387 0.704 . S
C1641 C701 0.885 . S
C1649 C446 0.940 . S
C1673 C505 0.684 . S
C1681 C229 0.675 . S
C1705 C111 0.917 . S
C1713 C564 0.926 . S
C1737 C623 1.165 . S
C1745 C52 1.169 . S
C1769 C682 0.933 . S
C1777 C878 0.916 . S
C1801 C347 1.106 . S
C1809 C741 1.177 . S
C1833 C288 1.175 . S
C1841 C800 1.170 . S
C1865 C859 0.934 . S
C1873 C465 0.909 . S
C1897 C918 0.931 . S
C1905 C406 0.935 . S
C1929 C583 1.111 . S
C1937 C977 1.176 . S
C1961 C642 0.937 . S
C1969 C1036 0.935 . S
C1993 C524 1.151 . S
C2001 C1095 1.159 . S
C2025 C1154 0.927 . S
C2033 C1409 0.912 . S
C2057 C937 1.139 . S
C2065 C1213 1.176 . S
C2089 C1272 0.964 . S
C2097 C819 0.937 . S
C2121 C760 0.709 . S
C2129 C1331 0.692 . S
C2153 C1390 0.883 . S
C2161 C170 0.908 . S
C2185 C5 1.789 . S
C2193 C64 1.781 . S
C2217 C182 1.633 . S
C2225 C123 1.665 . S
C2249 C241 1.782 1_545 S
C2257 C359 1.782 . S
C2281 C300 2.088 . S
C2289 C418 2.048 . S
C2313 C1303 1.765 . S
C2321 C477 1.785 . S
C2345 C536 2.061 . S
C2353 C654 2.062 . S
C2377 C1185 1.954 . S
C2385 C595 1.992 . S
C2409 C772 2.001 . S
C2417 C713 1.960 . S
C2441 C831 2.070 . S
C2449 C890 2.069 . S
C2473 C1067 2.002 . S
C2481 C949 1.956 . S
C2505 C1008 1.641 . S
C2513 C1126 1.662 . S
C2537 C1362 1.652 . S
C2545 C1244 1.653 . S
C2569 C121 1.269 . S
C2577 C3 1.222 . S
C2601 C62 1.572 . S
C2609 C180 1.526 . S
C2633 C1124 1.241 . S
C2641 C239 1.226 . S
C2665 C298 1.454 . S
C2673 C1065 1.487 . S
C2697 C357 1.513 . S
C2705 C1006 1.551 . S
C2729 C947 1.756 . S
C2737 C416 1.798 . S
C2761 C475 1.233 . S
C2769 C1360 1.226 . S
C2793 C534 1.476 . S
C2801 C593 1.474 . S
C2825 C1183 1.754 . S
C2833 C652 1.798 . S
C2857 C711 1.745 . S
C2865 C829 1.798 . S
C2889 C770 1.434 . S
C2897 C888 1.495 . S
C2921 C1301 1.511 . S
C2929 C1242 1.551 . S
