# Generated by pormake.
# Topology umw, (4)-cn, num edge types: 1
# Building blocks:
#     Node 0, Type 0, BuildingBlock: ICAMEG_clean_sbu_1, # of connection points: 4
#     Node 1, Type 0, BuildingBlock: ICAMEG_clean_sbu_1, # of connection points: 4
#     Node 2, Type 0, BuildingBlock: ICAMEG_clean_sbu_1, # of connection points: 4
#     Node 3, Type 0, BuildingBlock: ICAMEG_clean_sbu_1, # of connection points: 4
#     Node 4, Type 0, BuildingBlock: ICAMEG_clean_sbu_1, # of connection points: 4
#     Node 5, Type 0, BuildingBlock: ICAMEG_clean_sbu_1, # of connection points: 4
#     Node 6, Type 0, BuildingBlock: ICAMEG_clean_sbu_1, # of connection points: 4
#     Node 7, Type 0, BuildingBlock: ICAMEG_clean_sbu_1, # of connection points: 4
#     Edge 8, Type (0, 0), BuildingBlock: MIFKUJ_clean_linker_0, # of connection points: 2
#     Edge 9, Type (0, 0), BuildingBlock: MIFKUJ_clean_linker_0, # of connection points: 2
#     Edge 10, Type (0, 0), BuildingBlock: MIFKUJ_clean_linker_0, # of connection points: 2
#     Edge 11, Type (0, 0), BuildingBlock: MIFKUJ_clean_linker_0, # of connection points: 2
#     Edge 12, Type (0, 0), BuildingBlock: MIFKUJ_clean_linker_0, # of connection points: 2
#     Edge 13, Type (0, 0), BuildingBlock: MIFKUJ_clean_linker_0, # of connection points: 2
#     Edge 14, Type (0, 0), BuildingBlock: MIFKUJ_clean_linker_0, # of connection points: 2
#     Edge 15, Type (0, 0), BuildingBlock: MIFKUJ_clean_linker_0, # of connection points: 2
#     Edge 16, Type (0, 0), BuildingBlock: MIFKUJ_clean_linker_0, # of connection points: 2
#     Edge 17, Type (0, 0), BuildingBlock: MIFKUJ_clean_linker_0, # of connection points: 2
#     Edge 18, Type (0, 0), BuildingBlock: MIFKUJ_clean_linker_0, # of connection points: 2
#     Edge 19, Type (0, 0), BuildingBlock: MIFKUJ_clean_linker_0, # of connection points: 2
#     Edge 20, Type (0, 0), BuildingBlock: MIFKUJ_clean_linker_0, # of connection points: 2
#     Edge 21, Type (0, 0), BuildingBlock: MIFKUJ_clean_linker_0, # of connection points: 2
#     Edge 22, Type (0, 0), BuildingBlock: MIFKUJ_clean_linker_0, # of connection points: 2
#     Edge 23, Type (0, 0), BuildingBlock: MIFKUJ_clean_linker_0, # of connection points: 2
# Relax obj value: 0.123
# Max RMSD: 0.129
# Mean RMSD: 0.129
data_MOF--net-umw--node1-ICAMEG_clean_sbu_1--edge1-MIFKUJ_clean_linker_0
_symmetry_space_group_name_H-M    P1
_symmetry_Int_Tables_number       1
_symmetry_cell_setting            triclinic
loop_
_symmetry_equiv_pos_as_xyz
'x, y, z'
_cell_length_a     54.887669
_cell_length_b     54.882007
_cell_length_c     36.875299
_cell_angle_alpha  89.947037
_cell_angle_beta   90.1068
_cell_angle_gamma 90.041058
loop_
_atom_site_label
_atom_site_type_symbol
_atom_site_fract_x
_atom_site_fract_y
_atom_site_fract_z
_atom_type_partial_charge
Co0 Co 0.45809 0.18365 0.3036 0.0
Co1 Co 0.39999 0.173 0.33647 0.0
O2 O 0.42296 0.18984 0.30447 0.0
C3 C 0.44221 0.17178 0.22867 0.0
O4 O 0.42128 0.16375 0.24101 0.0
C5 C 0.39523 0.22519 0.35705 0.0
O6 O 0.41881 0.22782 0.35266 0.0
O7 O 0.4227 0.17515 0.37886 0.0
O8 O 0.45943 0.1857 0.35701 0.0
H9 H 0.37493 0.11026 0.42847 0.0
H10 H 0.43723 0.22298 0.25814 0.0
O11 O 0.45794 0.18116 0.24981 0.0
H12 H 0.49537 0.26387 0.3401 0.0
H13 H 0.54322 0.19343 0.25508 0.0
H14 H 0.49181 0.15266 0.34643 0.0
H15 H 0.4897 0.21931 0.34272 0.0
H16 H 0.49911 0.20172 0.25794 0.0
O17 O 0.38505 0.2047 0.35117 0.0
H18 H 0.40362 0.13173 0.38811 0.0
H19 H 0.34699 0.17869 0.35227 0.0
H20 H 0.53576 0.1434 0.34382 0.0
H21 H 0.44251 0.26755 0.25429 0.0
H22 H 0.56182 0.1641 0.29834 0.0
H23 H 0.47169 0.28829 0.29558 0.0
O24 O 0.45316 0.14757 0.30637 0.0
H25 H 0.35388 0.20603 0.22937 0.0
H26 H 0.37042 0.13306 0.30353 0.0
H27 H 0.3427 0.12996 0.25101 0.0
H28 H 0.33422 0.16665 0.21358 0.0
H29 H 0.38172 0.20822 0.28186 0.0
H30 H 0.31774 0.15788 0.39248 0.0
H31 H 0.33165 0.12334 0.43085 0.0
O32 O 0.41424 0.14111 0.32265 0.0
C33 C 0.44503 0.18099 0.38305 0.0
C34 C 0.36864 0.12525 0.41182 0.0
C35 C 0.33654 0.152 0.39166 0.0
N36 N 0.37696 0.15634 0.36772 0.0
C37 C 0.38478 0.13743 0.38884 0.0
C38 C 0.35321 0.16375 0.36901 0.0
C39 C 0.34436 0.13261 0.41316 0.0
C40 C 0.4501 0.23186 0.27599 0.0
N41 N 0.46316 0.21857 0.3006 0.0
C42 C 0.45295 0.25711 0.27378 0.0
C43 C 0.46931 0.26873 0.29698 0.0
C44 C 0.48258 0.25504 0.32199 0.0
C45 C 0.47923 0.22983 0.32344 0.0
C46 C 0.53208 0.18444 0.27526 0.0
C47 C 0.50304 0.16174 0.3265 0.0
C48 C 0.5071 0.18907 0.27704 0.0
N49 N 0.49294 0.17784 0.30255 0.0
C50 C 0.52791 0.15647 0.32524 0.0
C51 C 0.54251 0.168 0.29954 0.0
C52 C 0.43515 0.13353 0.31291 0.0
C53 C 0.35741 0.18992 0.24549 0.0
C54 C 0.36696 0.14905 0.28721 0.0
C55 C 0.35118 0.14721 0.25759 0.0
C56 C 0.34641 0.16781 0.23663 0.0
N57 N 0.37767 0.1708 0.29575 0.0
C58 C 0.37309 0.19107 0.27532 0.0
Co59 Co 0.82285 0.45825 0.56315 0.0
Co60 Co 0.8287 0.3968 0.58162 0.0
O61 O 0.81235 0.42437 0.55838 0.0
C62 C 0.82346 0.4515 0.484 0.0
O63 O 0.83523 0.431 0.4895 0.0
C64 C 0.77845 0.3928 0.6096 0.0
O65 O 0.7797 0.41615 0.61716 0.0
O66 O 0.82929 0.41368 0.62952 0.0
O67 O 0.83012 0.45348 0.61523 0.0
H68 H 0.89201 0.35629 0.65964 0.0
H69 H 0.77469 0.44718 0.53061 0.0
O70 O 0.8161 0.46407 0.51077 0.0
H71 H 0.75717 0.49754 0.63813 0.0
H72 H 0.81656 0.54847 0.54005 0.0
H73 H 0.86427 0.4834 0.59895 0.0
H74 H 0.79952 0.48736 0.62188 0.0
H75 H 0.80353 0.50556 0.53556 0.0
O76 O 0.7963 0.38221 0.59418 0.0
H77 H 0.87146 0.39106 0.63021 0.0
H78 H 0.81977 0.34322 0.58233 0.0
H79 H 0.87785 0.52608 0.60443 0.0
H80 H 0.73203 0.45691 0.54592 0.0
H81 H 0.85391 0.55897 0.57483 0.0
H82 H 0.72308 0.4822 0.60009 0.0
O83 O 0.85714 0.4496 0.55145 0.0
H84 H 0.78991 0.36772 0.466 0.0
H85 H 0.86587 0.37055 0.5375 0.0
H86 H 0.8658 0.35047 0.4777 0.0
H87 H 0.8276 0.34893 0.44154 0.0
H88 H 0.79085 0.38781 0.52582 0.0
H89 H 0.8396 0.30796 0.61153 0.0
H90 H 0.87606 0.31438 0.65039 0.0
O91 O 0.86138 0.41081 0.57002 0.0
C92 C 0.83144 0.4361 0.63799 0.0
C93 C 0.87618 0.35325 0.64269 0.0
C94 C 0.84674 0.32613 0.61573 0.0
N95 N 0.84456 0.36915 0.60437 0.0
C96 C 0.86451 0.37286 0.62587 0.0
C97 C 0.83556 0.34617 0.59933 0.0
C98 C 0.8672 0.32974 0.63751 0.0
C99 C 0.77091 0.45834 0.55407 0.0
N100 N 0.78955 0.4668 0.57519 0.0
C101 C 0.74674 0.46372 0.56268 0.0
C102 C 0.74172 0.47788 0.59311 0.0
C103 C 0.76084 0.48646 0.61451 0.0
C104 C 0.78478 0.48063 0.60517 0.0
C105 C 0.82709 0.53432 0.55319 0.0
C106 C 0.85364 0.49763 0.5863 0.0
C107 C 0.81982 0.50998 0.5507 0.0
N108 N 0.83297 0.49202 0.56737 0.0
C109 C 0.86147 0.52175 0.58936 0.0
C110 C 0.84805 0.5402 0.5727 0.0
C111 C 0.87008 0.43079 0.55792 0.0
C112 C 0.80665 0.36822 0.48154 0.0
C113 C 0.8492 0.37003 0.52188 0.0
C114 C 0.84926 0.35858 0.48807 0.0
C115 C 0.82781 0.35771 0.46781 0.0
N116 N 0.82836 0.38027 0.53517 0.0
C117 C 0.80727 0.3795 0.51547 0.0
Co118 Co 0.54596 0.81828 0.80094 0.0
Co119 Co 0.60625 0.8285 0.82455 0.0
O120 O 0.58085 0.81134 0.79719 0.0
C121 C 0.55592 0.82703 0.72294 0.0
O122 O 0.57614 0.83839 0.73176 0.0
C123 C 0.61124 0.7774 0.84924 0.0
O124 O 0.58736 0.77615 0.84976 0.0
O125 O 0.58694 0.82747 0.87049 0.0
O126 O 0.5484 0.81876 0.85431 0.0
H127 H 0.63875 0.89297 0.90837 0.0
H128 H 0.56333 0.77621 0.75786 0.0
O129 O 0.54246 0.81768 0.74728 0.0
H130 H 0.50968 0.74109 0.85147 0.0
H131 H 0.45745 0.80816 0.76776 0.0
H132 H 0.51615 0.85155 0.8459 0.0
H133 H 0.51608 0.78551 0.84781 0.0
H134 H 0.50143 0.79939 0.7637 0.0
O135 O 0.6218 0.79678 0.83847 0.0
H136 H 0.60694 0.87089 0.87437 0.0
H137 H 0.66004 0.82244 0.83198 0.0
H138 H 0.47231 0.86071 0.85111 0.0
H139 H 0.55721 0.73169 0.76022 0.0
H140 H 0.44263 0.83895 0.81183 0.0
H141 H 0.53031 0.71385 0.8074 0.0
O142 O 0.55169 0.85432 0.79907 0.0
H143 H 0.64324 0.79291 0.71196 0.0
H144 H 0.63329 0.86746 0.78495 0.0
H145 H 0.65656 0.86926 0.72785 0.0
H146 H 0.66168 0.83177 0.69096 0.0
H147 H 0.61993 0.79201 0.7691 0.0
H148 H 0.6924 0.84385 0.86584 0.0
H149 H 0.68184 0.87947 0.90423 0.0
O150 O 0.5913 0.86032 0.81181 0.0
C151 C 0.56473 0.82294 0.87797 0.0
C152 C 0.64359 0.87752 0.89166 0.0
C153 C 0.6737 0.84993 0.86783 0.0
N154 N 0.63165 0.84549 0.85105 0.0
C155 C 0.62567 0.86498 0.87227 0.0
C156 C 0.65529 0.83783 0.84881 0.0
C157 C 0.66776 0.86992 0.88935 0.0
C158 C 0.55146 0.76858 0.7783 0.0
N159 N 0.54012 0.78342 0.80274 0.0
C160 C 0.54812 0.74336 0.77957 0.0
C161 C 0.53305 0.73337 0.80608 0.0
C162 C 0.52149 0.74863 0.83083 0.0
C163 C 0.52526 0.77376 0.82875 0.0
C164 C 0.47021 0.81775 0.78503 0.0
C165 C 0.50333 0.84192 0.82884 0.0
C166 C 0.49514 0.81293 0.78276 0.0
N167 N 0.51133 0.82489 0.80462 0.0
C168 C 0.47854 0.84722 0.83186 0.0
C169 C 0.4619 0.83502 0.80978 0.0
C170 C 0.57017 0.86816 0.80351 0.0
C171 C 0.64117 0.80936 0.72783 0.0
C172 C 0.63535 0.85111 0.76896 0.0
C173 C 0.6486 0.85222 0.73671 0.0
C174 C 0.65149 0.83118 0.71604 0.0
N175 N 0.6253 0.82965 0.78035 0.0
C176 C 0.62806 0.80894 0.76025 0.0
Co177 Co 0.17996 0.54655 0.03824 0.0
Co178 Co 0.16814 0.60425 0.07099 0.0
O179 O 0.18758 0.58126 0.04272 0.0
C180 C 0.18238 0.56192 0.96167 0.0
O181 O 0.16804 0.58025 0.9698 0.0
C182 C 0.21799 0.61037 0.10078 0.0
O183 O 0.22016 0.58655 0.10057 0.0
O184 O 0.16849 0.58221 0.11401 0.0
O185 O 0.17005 0.5447 0.08979 0.0
H186 H 0.09956 0.62883 0.15322 0.0
H187 H 0.22824 0.56456 0.01417 0.0
O188 O 0.18952 0.54731 0.98625 0.0
H189 H 0.24563 0.50501 0.11103 0.0
H190 H 0.19524 0.46094 0.99489 0.0
H191 H 0.13963 0.51456 0.06283 0.0
H192 H 0.20331 0.51335 0.09219 0.0
H193 H 0.2045 0.50466 0.00204 0.0
O194 O 0.19851 0.62038 0.08929 0.0
H195 H 0.12415 0.60015 0.11713 0.0
H196 H 0.17139 0.65765 0.08537 0.0
H197 H 0.12976 0.47092 0.05664 0.0
H198 H 0.27086 0.55659 0.03192 0.0
H199 H 0.15769 0.44378 0.02245 0.0
H200 H 0.27976 0.52669 0.08078 0.0
O201 O 0.14557 0.55374 0.02466 0.0
H202 H 0.20611 0.64902 0.96654 0.0
H203 H 0.12958 0.63214 0.03168 0.0
H204 H 0.12886 0.65863 0.97762 0.0
H205 H 0.16736 0.66726 0.9447 0.0
H206 H 0.20592 0.62244 0.02053 0.0
H207 H 0.14745 0.68691 0.12142 0.0
H208 H 0.11118 0.67256 0.15554 0.0
O209 O 0.13726 0.5888 0.05355 0.0
C210 C 0.16735 0.55906 0.1165 0.0
C211 C 0.11528 0.63532 0.13839 0.0
C212 C 0.14218 0.66791 0.12058 0.0
N213 N 0.14907 0.62725 0.09897 0.0
C214 C 0.12923 0.61918 0.11782 0.0
C215 C 0.1557 0.65125 0.10029 0.0
C216 C 0.12183 0.65985 0.1397 0.0
C217 C 0.23199 0.55133 0.03518 0.0
N218 N 0.21332 0.53936 0.052 0.0
C219 C 0.25615 0.54697 0.04523 0.0
C220 C 0.26113 0.53022 0.07269 0.0
C221 C 0.24199 0.51807 0.08969 0.0
C222 C 0.21806 0.52291 0.07897 0.0
C223 C 0.18297 0.47256 0.00995 0.0
C224 C 0.15197 0.50283 0.0482 0.0
C225 C 0.1881 0.49734 0.01405 0.0
N226 N 0.17275 0.5121 0.03319 0.0
C227 C 0.14624 0.47815 0.04465 0.0
C228 C 0.1619 0.46294 0.02542 0.0
C229 C 0.13079 0.57023 0.03506 0.0
C230 C 0.18923 0.64543 0.98068 0.0
C231 C 0.14635 0.63569 0.01737 0.0
C232 C 0.14586 0.65078 0.98685 0.0
C233 C 0.16747 0.65563 0.96841 0.0
N234 N 0.16776 0.62577 0.02924 0.0
C235 C 0.18902 0.63045 0.01132 0.0
Co236 Co 0.45826 0.82512 0.2906 0.0
Co237 Co 0.39841 0.83272 0.26502 0.0
O238 O 0.42394 0.81566 0.29197 0.0
C239 C 0.44912 0.82534 0.36936 0.0
O240 O 0.43015 0.83935 0.3633 0.0
C241 C 0.39207 0.78164 0.24094 0.0
O242 O 0.41568 0.78088 0.23546 0.0
O243 O 0.41733 0.83035 0.21907 0.0
O244 O 0.45605 0.83347 0.23839 0.0
H245 H 0.36541 0.89497 0.17787 0.0
H246 H 0.44461 0.7768 0.32025 0.0
O247 O 0.4616 0.81719 0.34304 0.0
H248 H 0.49838 0.7595 0.21642 0.0
H249 H 0.54704 0.81597 0.32242 0.0
H250 H 0.48612 0.86612 0.25835 0.0
H251 H 0.489 0.80187 0.23365 0.0
H252 H 0.50369 0.80411 0.32223 0.0
O253 O 0.38227 0.80086 0.25365 0.0
H254 H 0.39745 0.87372 0.2126 0.0
H255 H 0.34448 0.82706 0.25977 0.0
H256 H 0.52929 0.87852 0.25758 0.0
H257 H 0.45372 0.73413 0.30417 0.0
H258 H 0.5601 0.85337 0.28981 0.0
H259 H 0.48072 0.72528 0.25184 0.0
O260 O 0.45006 0.85941 0.30281 0.0
H261 H 0.36238 0.80028 0.38051 0.0
H262 H 0.37257 0.87299 0.30335 0.0
H263 H 0.35006 0.87641 0.36093 0.0
H264 H 0.3448 0.83985 0.39992 0.0
H265 H 0.38496 0.79773 0.32283 0.0
H266 H 0.31189 0.84762 0.22525 0.0
H267 H 0.32227 0.88191 0.18406 0.0
O268 O 0.41384 0.86502 0.2756 0.0
C269 C 0.44003 0.83338 0.21346 0.0
C270 C 0.36065 0.8801 0.19581 0.0
C271 C 0.33061 0.8535 0.22237 0.0
N272 N 0.37282 0.84929 0.23836 0.0
C273 C 0.3787 0.86805 0.21562 0.0
C274 C 0.34915 0.84189 0.24177 0.0
C275 C 0.33645 0.87275 0.19927 0.0
C276 C 0.45657 0.77307 0.29767 0.0
N277 N 0.46635 0.79179 0.27803 0.0
C278 C 0.46158 0.74889 0.2886 0.0
C279 C 0.4767 0.74393 0.2592 0.0
C280 C 0.48661 0.76312 0.2393 0.0
C281 C 0.48118 0.78708 0.24914 0.0
C282 C 0.5338 0.82704 0.30819 0.0
C283 C 0.49943 0.85496 0.27217 0.0
C284 C 0.50922 0.82043 0.30802 0.0
N285 N 0.49241 0.83428 0.28997 0.0
C286 C 0.52385 0.86213 0.27176 0.0
C287 C 0.54112 0.84802 0.28988 0.0
C288 C 0.43274 0.87307 0.2919 0.0
C289 C 0.3645 0.81632 0.36371 0.0
C290 C 0.37044 0.85703 0.32022 0.0
C291 C 0.35762 0.85906 0.35276 0.0
C292 C 0.35466 0.83854 0.37461 0.0
N293 N 0.37999 0.83516 0.3097 0.0
C294 C 0.37719 0.81497 0.33098 0.0
Co295 Co 0.17756 0.4625 0.53292 0.0
Co296 Co 0.17031 0.40141 0.51335 0.0
O297 O 0.18811 0.42854 0.5352 0.0
C298 C 0.18253 0.45436 0.61161 0.0
O299 O 0.16983 0.43424 0.60768 0.0
C300 C 0.21918 0.39752 0.48031 0.0
O301 O 0.21818 0.42106 0.4741 0.0
O302 O 0.16729 0.41902 0.4662 0.0
O303 O 0.16702 0.4586 0.48187 0.0
H304 H 0.10254 0.36249 0.44215 0.0
H305 H 0.22749 0.45042 0.55784 0.0
O306 O 0.18779 0.46735 0.58418 0.0
H307 H 0.23848 0.50422 0.45196 0.0
H308 H 0.18551 0.55226 0.55867 0.0
H309 H 0.13441 0.48834 0.50336 0.0
H310 H 0.19727 0.49303 0.47273 0.0
H311 H 0.19858 0.50928 0.55982 0.0
O312 O 0.2017 0.38683 0.49651 0.0
H313 H 0.12499 0.39668 0.46998 0.0
H314 H 0.17862 0.34777 0.51006 0.0
H315 H 0.12075 0.53111 0.50126 0.0
H316 H 0.26903 0.46078 0.53753 0.0
H317 H 0.14638 0.56343 0.52908 0.0
H318 H 0.27471 0.48785 0.48419 0.0
O319 O 0.14409 0.45374 0.54913 0.0
H320 H 0.21511 0.37071 0.62315 0.0
H321 H 0.13562 0.37435 0.5609 0.0
H322 H 0.13884 0.35343 0.61993 0.0
H323 H 0.17883 0.35148 0.65143 0.0
H324 H 0.21099 0.39167 0.56423 0.0
H325 H 0.15689 0.31309 0.48237 0.0
H326 H 0.1185 0.32034 0.44826 0.0
O327 O 0.13855 0.41537 0.52944 0.0
C328 C 0.16457 0.44156 0.45877 0.0
C329 C 0.11922 0.35909 0.45703 0.0
C330 C 0.14973 0.33137 0.47956 0.0
N331 N 0.15299 0.3742 0.49182 0.0
C332 C 0.13197 0.37836 0.47293 0.0
C333 C 0.16199 0.35108 0.4951 0.0
C334 C 0.12819 0.33545 0.46044 0.0
C335 C 0.22983 0.46224 0.53464 0.0
N336 N 0.20999 0.47121 0.51661 0.0
C337 C 0.25339 0.468 0.52322 0.0
C338 C 0.25656 0.48315 0.49325 0.0
C339 C 0.23624 0.49226 0.47506 0.0
C340 C 0.21295 0.48591 0.487 0.0
C341 C 0.17422 0.53836 0.54635 0.0
C342 C 0.14577 0.50232 0.5152 0.0
C343 C 0.1815 0.51398 0.54697 0.0
N344 N 0.1674 0.49634 0.53129 0.0
C345 C 0.13789 0.5265 0.51407 0.0
C346 C 0.15227 0.54461 0.52973 0.0
C347 C 0.13073 0.43507 0.5436 0.0
C348 C 0.1976 0.3714 0.60966 0.0
C349 C 0.15304 0.37369 0.57453 0.0
C350 C 0.15478 0.36175 0.60789 0.0
C351 C 0.17723 0.36064 0.62554 0.0
N352 N 0.1731 0.38419 0.55913 0.0
C353 C 0.19517 0.38317 0.57625 0.0
Co354 Co 0.5419 0.17654 0.79567 0.0
Co355 Co 0.60392 0.17074 0.78219 0.0
O356 O 0.57558 0.18692 0.80347 0.0
C357 C 0.54596 0.17577 0.87514 0.0
O358 O 0.56694 0.16462 0.8711 0.0
C359 C 0.60856 0.2213 0.75568 0.0
O360 O 0.58539 0.22 0.74695 0.0
O361 O 0.58877 0.17053 0.73289 0.0
O362 O 0.54855 0.16946 0.74413 0.0
H363 H 0.64695 0.10774 0.70714 0.0
H364 H 0.55122 0.22428 0.83045 0.0
O365 O 0.53406 0.18291 0.84751 0.0
H366 H 0.50786 0.24331 0.71669 0.0
H367 H 0.45089 0.18324 0.80951 0.0
H368 H 0.51815 0.1356 0.75673 0.0
H369 H 0.51625 0.20062 0.73393 0.0
H370 H 0.49359 0.19586 0.81885 0.0
O371 O 0.61893 0.20326 0.77109 0.0
H372 H 0.61125 0.12818 0.73393 0.0
H373 H 0.65745 0.17969 0.78565 0.0
H374 H 0.47574 0.1225 0.74634 0.0
H375 H 0.54281 0.26715 0.81464 0.0
H376 H 0.44175 0.14635 0.77294 0.0
H377 H 0.52107 0.27686 0.7573 0.0
O378 O 0.55004 0.14219 0.80792 0.0
H379 H 0.62917 0.20879 0.90028 0.0
H380 H 0.62861 0.13326 0.82795 0.0
H381 H 0.64668 0.13293 0.88923 0.0
H382 H 0.64707 0.17091 0.92581 0.0
H383 H 0.61107 0.20824 0.83898 0.0
H384 H 0.69363 0.15996 0.75912 0.0
H385 H 0.6885 0.12364 0.71968 0.0
O386 O 0.58945 0.13796 0.79254 0.0
C387 C 0.56666 0.16833 0.72283 0.0
C388 C 0.64943 0.12351 0.72436 0.0
C389 C 0.67562 0.15284 0.7535 0.0
N390 N 0.63229 0.155 0.76152 0.0
C391 C 0.62929 0.13512 0.73969 0.0
C392 C 0.65507 0.16397 0.76837 0.0
C393 C 0.67273 0.13245 0.73138 0.0
C394 C 0.54141 0.22836 0.80574 0.0
N395 N 0.53401 0.20998 0.78329 0.0
C396 C 0.53683 0.25266 0.79682 0.0
C397 C 0.52467 0.2581 0.76462 0.0
C398 C 0.51723 0.23926 0.74183 0.0
C399 C 0.52207 0.21516 0.75167 0.0
C400 C 0.46554 0.1727 0.79778 0.0
C401 C 0.50347 0.14619 0.76814 0.0
C402 C 0.48975 0.17974 0.80302 0.0
N403 N 0.50834 0.16659 0.78812 0.0
C404 C 0.47949 0.13862 0.7623 0.0
C405 C 0.46043 0.15199 0.77728 0.0
C406 C 0.56908 0.12926 0.80318 0.0
C407 C 0.62916 0.19214 0.88457 0.0
C408 C 0.62862 0.14983 0.84375 0.0
C409 C 0.63894 0.14955 0.8784 0.0
C410 C 0.63917 0.17087 0.8989 0.0
N411 N 0.61887 0.17077 0.82988 0.0
C412 C 0.61902 0.19174 0.84981 0.0
Co413 Co 0.82174 0.54364 0.05764 0.0
Co414 Co 0.83124 0.60133 0.02192 0.0
O415 O 0.81584 0.57892 0.05654 0.0
C416 C 0.83449 0.55999 0.13275 0.0
O417 O 0.83949 0.58214 0.12163 0.0
C418 C 0.77854 0.60708 0.00491 0.0
O419 O 0.77587 0.58341 0.00822 0.0
O420 O 0.82617 0.57835 0.98039 0.0
O421 O 0.8171 0.54201 0.00478 0.0
H422 H 0.88912 0.62382 0.92196 0.0
H423 H 0.7847 0.56573 0.10578 0.0
O424 O 0.82671 0.54379 0.11103 0.0
H425 H 0.73969 0.50665 0.03047 0.0
H426 H 0.81345 0.45851 0.10744 0.0
H427 H 0.84949 0.50948 0.01124 0.0
H428 H 0.78407 0.51172 0.02345 0.0
H429 H 0.80609 0.50283 0.10601 0.0
O430 O 0.79919 0.61696 0.01065 0.0
H431 H 0.86923 0.59611 0.96545 0.0
H432 H 0.82618 0.65441 0.00559 0.0
H433 H 0.85711 0.4652 0.01144 0.0
H434 H 0.74035 0.56108 0.114 0.0
H435 H 0.83904 0.4394 0.05982 0.0
H436 H 0.71753 0.53142 0.07608 0.0
O437 O 0.8577 0.54808 0.05126 0.0
H438 H 0.80521 0.64936 0.13105 0.0
H439 H 0.87355 0.63022 0.04931 0.0
H440 H 0.88012 0.6584 0.10048 0.0
H441 H 0.84576 0.66819 0.14171 0.0
H442 H 0.79956 0.62102 0.07981 0.0
H443 H 0.84551 0.68273 0.96233 0.0
H444 H 0.87732 0.66749 0.92023 0.0
O445 O 0.86348 0.58652 0.03215 0.0
C446 C 0.82011 0.55598 0.97772 0.0
C447 C 0.87537 0.6307 0.94025 0.0
C448 C 0.85084 0.66375 0.96286 0.0
N449 N 0.84664 0.62365 0.98815 0.0
C450 C 0.86406 0.61511 0.96499 0.0
C451 C 0.8399 0.64762 0.98721 0.0
C452 C 0.8687 0.65519 0.93926 0.0
C453 C 0.77493 0.55266 0.08938 0.0
N454 N 0.78697 0.53899 0.06419 0.0
C455 C 0.74981 0.55016 0.09407 0.0
C456 C 0.73701 0.53353 0.07276 0.0
C457 C 0.74942 0.51965 0.04714 0.0
C458 C 0.77455 0.52266 0.04318 0.0
C459 C 0.82139 0.46955 0.08618 0.0
C460 C 0.84142 0.49835 0.03224 0.0
C461 C 0.81734 0.49467 0.08528 0.0
N462 N 0.82722 0.50871 0.05842 0.0
C463 C 0.84586 0.4733 0.03228 0.0
C464 C 0.83574 0.45884 0.05945 0.0
C465 C 0.87147 0.5658 0.04215 0.0
C466 C 0.82032 0.64525 0.11326 0.0
C467 C 0.85859 0.63421 0.06733 0.0
C468 C 0.86238 0.65027 0.09615 0.0
C469 C 0.84309 0.65578 0.11925 0.0
N470 N 0.83622 0.62395 0.06164 0.0
C471 C 0.81721 0.62929 0.08414 0.0
H472 H 0.48243 0.20893 0.40732 0.0
H473 H 0.50424 0.2051 0.46462 0.0
H474 H 0.45449 0.14853 0.49835 0.0
H475 H 0.43203 0.15287 0.44115 0.0
H476 H 0.46519 0.17646 0.55352 0.0
H477 H 0.51203 0.13439 0.46479 0.0
H478 H 0.53381 0.12818 0.40719 0.0
H479 H 0.58237 0.18708 0.43305 0.0
H480 H 0.56081 0.19366 0.49089 0.0
H481 H 0.53764 0.13366 0.69492 0.0
H482 H 0.51871 0.13384 0.63496 0.0
H483 H 0.5618 0.19655 0.60522 0.0
H484 H 0.58122 0.19607 0.66542 0.0
H485 H 0.5547 0.16386 0.54804 0.0
H486 H 0.50382 0.20641 0.63661 0.0
H487 H 0.48099 0.21013 0.69399 0.0
H488 H 0.44037 0.14558 0.66838 0.0
H489 H 0.46252 0.14177 0.61043 0.0
C490 C 0.47597 0.19586 0.4271 0.0
C491 C 0.45569 0.18102 0.41971 0.0
C492 C 0.48855 0.19356 0.45972 0.0
C493 C 0.48144 0.17602 0.48528 0.0
C494 C 0.46042 0.16203 0.47881 0.0
C495 C 0.44755 0.16458 0.44626 0.0
C496 C 0.49623 0.17216 0.51842 0.0
C497 C 0.48469 0.17336 0.55223 0.0
C498 C 0.52175 0.16838 0.51683 0.0
C499 C 0.53468 0.16465 0.482 0.0
C500 C 0.52724 0.14614 0.45806 0.0
C501 C 0.53958 0.14252 0.4254 0.0
C502 C 0.55942 0.1573 0.41637 0.0
C503 C 0.56699 0.17567 0.44007 0.0
C504 C 0.55476 0.1793 0.47284 0.0
C505 C 0.54354 0.14704 0.67517 0.0
C506 C 0.56072 0.16491 0.6845 0.0
C507 C 0.53262 0.14724 0.64112 0.0
C508 C 0.53839 0.16561 0.61616 0.0
C509 C 0.55701 0.18234 0.62434 0.0
C510 C 0.56819 0.18198 0.65848 0.0
C511 C 0.52364 0.16837 0.58288 0.0
C512 C 0.53519 0.16695 0.54914 0.0
C513 C 0.49807 0.17155 0.58447 0.0
C514 C 0.4849 0.17374 0.61936 0.0
C515 C 0.49009 0.19297 0.64331 0.0
C516 C 0.47726 0.19511 0.67587 0.0
C517 C 0.45941 0.17802 0.68493 0.0
C518 C 0.45421 0.1588 0.66133 0.0
C519 C 0.46678 0.15672 0.62853 0.0
H520 H 0.44949 0.17977 0.71013 0.0
H521 H 0.56897 0.15447 0.39108 0.0
H522 H 0.8169 0.41137 0.69908 0.0
H523 H 0.81689 0.42732 0.76138 0.0
H524 H 0.85312 0.49256 0.7244 0.0
H525 H 0.85353 0.47679 0.663 0.0
H526 H 0.86919 0.47873 0.79114 0.0
H527 H 0.79136 0.48843 0.7268 0.0
H528 H 0.75548 0.47131 0.69547 0.0
H529 H 0.73663 0.43084 0.79106 0.0
H530 H 0.77275 0.44723 0.82269 0.0
H531 H 0.83884 0.57193 0.91288 0.0
H532 H 0.84069 0.54873 0.85614 0.0
H533 H 0.79894 0.49082 0.90519 0.0
H534 H 0.7965 0.51389 0.96117 0.0
H535 H 0.78598 0.49629 0.83665 0.0
H536 H 0.85996 0.48759 0.90343 0.0
H537 H 0.89646 0.50151 0.93655 0.0
H538 H 0.92294 0.53663 0.84027 0.0
H539 H 0.88636 0.52325 0.80668 0.0
C540 C 0.82537 0.42882 0.70455 0.0
C541 C 0.8348 0.44306 0.67619 0.0
C542 C 0.8253 0.43792 0.74001 0.0
C543 C 0.83467 0.46127 0.74724 0.0
C544 C 0.84574 0.47456 0.71937 0.0
C545 C 0.84575 0.46558 0.68419 0.0
C546 C 0.83073 0.47344 0.78241 0.0
C547 C 0.85102 0.48262 0.80113 0.0
C548 C 0.80701 0.47803 0.7957 0.0
C549 C 0.78488 0.46886 0.77698 0.0
C550 C 0.77963 0.47579 0.74107 0.0
C551 C 0.75928 0.46618 0.72323 0.0
C552 C 0.74385 0.44991 0.7412 0.0
C553 C 0.74866 0.44333 0.77711 0.0
C554 C 0.76908 0.45276 0.795 0.0
C555 C 0.82958 0.55453 0.91123 0.0
C556 C 0.81783 0.5446 0.94165 0.0
C557 C 0.83081 0.54122 0.87897 0.0
C558 C 0.82038 0.51785 0.87685 0.0
C559 C 0.80723 0.50873 0.90634 0.0
C560 C 0.80598 0.52195 0.93842 0.0
C561 C 0.82444 0.50212 0.84493 0.0
C562 C 0.80417 0.49224 0.82692 0.0
C563 C 0.8482 0.4966 0.8326 0.0
C564 C 0.87032 0.50457 0.85261 0.0
C565 C 0.87348 0.49842 0.88937 0.0
C566 C 0.89419 0.5062 0.90822 0.0
C567 C 0.912 0.51993 0.89051 0.0
C568 C 0.90912 0.52597 0.85393 0.0
C569 C 0.88841 0.51829 0.83496 0.0
H570 H 0.92807 0.52583 0.9051 0.0
H571 H 0.72813 0.44246 0.72732 0.0
H572 H 0.47472 0.86469 0.19113 0.0
H573 H 0.4959 0.86454 0.13299 0.0
H574 H 0.4481 0.80765 0.09461 0.0
H575 H 0.42653 0.80793 0.15308 0.0
H576 H 0.49898 0.79704 0.09084 0.0
H577 H 0.44337 0.8605 0.05679 0.0
H578 H 0.42157 0.89943 0.06407 0.0
H579 H 0.48963 0.93805 0.06456 0.0
H580 H 0.51189 0.89928 0.05784 0.0
H581 H 0.53211 0.79212 0.90768 0.0
H582 H 0.51309 0.7952 0.96698 0.0
H583 H 0.55985 0.85591 0.99355 0.0
H584 H 0.57893 0.85302 0.93331 0.0
H585 H 0.51141 0.86573 0.00523 0.0
H586 H 0.56727 0.80338 0.03747 0.0
H587 H 0.58989 0.76486 0.03103 0.0
H588 H 0.52287 0.7246 0.03565 0.0
H589 H 0.49977 0.76292 0.04155 0.0
C590 C 0.46838 0.85255 0.16996 0.0
C591 C 0.4491 0.83628 0.17635 0.0
C592 C 0.48044 0.85253 0.13683 0.0
C593 C 0.47355 0.83607 0.1097 0.0
C594 C 0.45358 0.82049 0.11537 0.0
C595 C 0.4412 0.82079 0.14849 0.0
C596 C 0.48872 0.83374 0.07694 0.0
C597 C 0.50141 0.81187 0.07171 0.0
C598 C 0.49266 0.85358 0.05319 0.0
C599 C 0.47932 0.87694 0.05718 0.0
C600 C 0.45371 0.87726 0.0588 0.0
C601 C 0.44127 0.89931 0.06275 0.0
C602 C 0.45421 0.92119 0.06487 0.0
C603 C 0.47963 0.92108 0.06296 0.0
C604 C 0.49217 0.89907 0.05904 0.0
C605 C 0.53857 0.80593 0.9263 0.0
C606 C 0.55679 0.82247 0.91595 0.0
C607 C 0.52782 0.80756 0.96027 0.0
C608 C 0.53512 0.82572 0.98464 0.0
C609 C 0.55404 0.84174 0.97502 0.0
C610 C 0.56501 0.83997 0.94088 0.0
C611 C 0.52145 0.82886 0.01877 0.0
C612 C 0.50908 0.8509 0.0244 0.0
C613 C 0.51795 0.80924 0.0431 0.0
C614 C 0.53176 0.78608 0.03969 0.0
C615 C 0.55732 0.78634 0.03682 0.0
C616 C 0.57024 0.76453 0.03332 0.0
C617 C 0.55782 0.7423 0.03286 0.0
C618 C 0.53246 0.74184 0.03599 0.0
C619 C 0.51945 0.7636 0.03946 0.0
H620 H 0.56786 0.72543 0.03015 0.0
H621 H 0.44454 0.93825 0.06792 0.0
H622 H 0.17652 0.41837 0.39532 0.0
H623 H 0.17232 0.43508 0.33371 0.0
H624 H 0.13602 0.49835 0.37707 0.0
H625 H 0.13996 0.48189 0.43795 0.0
H626 H 0.11619 0.48392 0.31227 0.0
H627 H 0.19646 0.49862 0.36618 0.0
H628 H 0.23529 0.48461 0.39272 0.0
H629 H 0.25127 0.44469 0.29562 0.0
H630 H 0.21233 0.45815 0.26866 0.0
H631 H 0.1809 0.57561 0.1836 0.0
H632 H 0.17652 0.55381 0.24153 0.0
H633 H 0.13927 0.49521 0.18664 0.0
H634 H 0.14372 0.51659 0.12909 0.0
H635 H 0.19523 0.50565 0.25553 0.0
H636 H 0.09489 0.47463 0.24799 0.0
H637 H 0.05575 0.48844 0.22222 0.0
H638 H 0.08004 0.56274 0.22725 0.0
H639 H 0.11913 0.54943 0.25369 0.0
C640 C 0.16717 0.43555 0.39146 0.0
C641 C 0.15892 0.44904 0.42137 0.0
C642 C 0.16484 0.44508 0.3564 0.0
C643 C 0.15412 0.46806 0.35106 0.0
C644 C 0.14436 0.48062 0.38066 0.0
C645 C 0.14682 0.47126 0.41548 0.0
C646 C 0.15524 0.48057 0.31566 0.0
C647 C 0.13343 0.48845 0.29958 0.0
C648 C 0.17779 0.48678 0.29961 0.0
C649 C 0.2014 0.47919 0.31556 0.0
C650 C 0.2082 0.48676 0.35057 0.0
C651 C 0.23022 0.47892 0.36569 0.0
C652 C 0.2457 0.46373 0.34593 0.0
C653 C 0.23924 0.45642 0.31092 0.0
C654 C 0.21721 0.46415 0.2957 0.0
C655 C 0.17152 0.55824 0.1841 0.0
C656 C 0.1628 0.54768 0.15195 0.0
C657 C 0.16917 0.54578 0.21701 0.0
C658 C 0.1576 0.52296 0.21812 0.0
C659 C 0.14817 0.51283 0.18624 0.0
C660 C 0.15082 0.52504 0.15342 0.0
C661 C 0.15619 0.50909 0.25226 0.0
C662 C 0.17797 0.50091 0.26799 0.0
C663 C 0.13361 0.50267 0.26799 0.0
C664 C 0.11005 0.51097 0.25249 0.0
C665 C 0.09184 0.49392 0.24376 0.0
C666 C 0.06965 0.50167 0.22908 0.0
C667 C 0.06542 0.52645 0.2231 0.0
C668 C 0.08336 0.54354 0.23184 0.0
C669 C 0.10555 0.5359 0.24663 0.0
H670 H 0.04826 0.5324 0.21164 0.0
H671 H 0.26273 0.45767 0.35773 0.0
H672 H 0.34986 0.22293 0.386 0.0
H673 H 0.32357 0.2565 0.40354 0.0
H674 H 0.37909 0.30801 0.37204 0.0
H675 H 0.40607 0.27411 0.35526 0.0
H676 H 0.35718 0.32227 0.43367 0.0
H677 H 0.33011 0.29782 0.31691 0.0
H678 H 0.3177 0.26897 0.2691 0.0
H679 H 0.25637 0.24661 0.33316 0.0
H680 H 0.26862 0.27505 0.38163 0.0
H681 H 0.26145 0.41366 0.44835 0.0
H682 H 0.29469 0.38864 0.42395 0.0
H683 H 0.25673 0.32352 0.45712 0.0
H684 H 0.22372 0.34812 0.4815 0.0
H685 H 0.27268 0.32206 0.38557 0.0
H686 H 0.30399 0.34346 0.50507 0.0
H687 H 0.31696 0.3726 0.55218 0.0
H688 H 0.37062 0.40223 0.47987 0.0
H689 H 0.35771 0.37345 0.43213 0.0
C690 C 0.35657 0.24137 0.38275 0.0
C691 C 0.37995 0.24588 0.36883 0.0
C692 C 0.34145 0.26059 0.39272 0.0
C693 C 0.3491 0.28481 0.38827 0.0
C694 C 0.37274 0.28945 0.37542 0.0
C695 C 0.3881 0.2701 0.36582 0.0
C696 C 0.33202 0.30496 0.39685 0.0
C697 C 0.33887 0.32255 0.42257 0.0
C698 C 0.30809 0.30536 0.3824 0.0
C699 C 0.30036 0.28852 0.353 0.0
C700 C 0.31404 0.28668 0.32088 0.0
C701 C 0.30703 0.27039 0.29366 0.0
C702 C 0.28628 0.25595 0.29811 0.0
C703 C 0.27244 0.25782 0.32975 0.0
C704 C 0.27939 0.27405 0.35709 0.0
C705 C 0.26027 0.39401 0.45058 0.0
C706 C 0.23992 0.38289 0.46683 0.0
C707 C 0.27928 0.37978 0.43669 0.0
C708 C 0.27812 0.35425 0.43873 0.0
C709 C 0.25792 0.34319 0.45515 0.0
C710 C 0.23909 0.35732 0.46921 0.0
C711 C 0.29756 0.33868 0.42334 0.0
C712 C 0.29114 0.32203 0.39614 0.0
C713 C 0.32186 0.33937 0.43614 0.0
C714 C 0.32969 0.35652 0.46491 0.0
C715 C 0.31841 0.35633 0.49911 0.0
C716 C 0.32578 0.37275 0.52595 0.0
C717 C 0.34455 0.38931 0.51898 0.0
C718 C 0.35605 0.38943 0.4852 0.0
C719 C 0.34872 0.37306 0.45826 0.0
H720 H 0.35023 0.40201 0.53979 0.0
H721 H 0.2809 0.24333 0.27701 0.0
H722 H 0.73946 0.40768 0.65046 0.0
H723 H 0.70676 0.38223 0.67511 0.0
H724 H 0.73726 0.31937 0.62176 0.0
H725 H 0.76971 0.34461 0.59669 0.0
H726 H 0.68834 0.31895 0.6173 0.0
H727 H 0.74945 0.33098 0.71044 0.0
H728 H 0.7754 0.35636 0.74996 0.0
H729 H 0.71175 0.38839 0.79775 0.0
H730 H 0.68542 0.36344 0.75809 0.0
H731 H 0.65667 0.23009 0.77004 0.0
H732 H 0.68191 0.26317 0.74653 0.0
H733 H 0.61922 0.29418 0.69307 0.0
H734 H 0.5938 0.26102 0.71627 0.0
H735 H 0.68187 0.31296 0.75127 0.0
H736 H 0.63829 0.31432 0.60938 0.0
H737 H 0.61456 0.28728 0.56915 0.0
H738 H 0.64742 0.22456 0.61883 0.0
H739 H 0.67158 0.25124 0.65894 0.0
C740 C 0.73903 0.3885 0.6436 0.0
C741 C 0.75732 0.37814 0.62182 0.0
C742 C 0.72037 0.37397 0.65781 0.0
C743 C 0.71972 0.34884 0.65062 0.0
C744 C 0.73738 0.3387 0.62768 0.0
C745 C 0.756 0.35317 0.61349 0.0
C746 C 0.70157 0.33269 0.66839 0.0
C747 C 0.68676 0.31783 0.64658 0.0
C748 C 0.6997 0.33098 0.70661 0.0
C749 C 0.71549 0.34552 0.73109 0.0
C750 C 0.741 0.34352 0.72926 0.0
C751 C 0.75577 0.35783 0.75168 0.0
C752 C 0.74523 0.37402 0.77629 0.0
C753 C 0.71989 0.37586 0.77863 0.0
C754 C 0.70503 0.36164 0.75621 0.0
C755 C 0.64815 0.24407 0.75361 0.0
C756 C 0.62324 0.24274 0.74471 0.0
C757 C 0.66261 0.26305 0.74033 0.0
C758 C 0.65252 0.281 0.71774 0.0
C759 C 0.62744 0.28036 0.71015 0.0
C760 C 0.61293 0.2614 0.72348 0.0
C761 C 0.66864 0.29926 0.70016 0.0
C762 C 0.68312 0.31443 0.72199 0.0
C763 C 0.6705 0.301 0.66195 0.0
C764 C 0.6565 0.28478 0.63741 0.0
C765 C 0.6405 0.29477 0.61159 0.0
C766 C 0.62698 0.2795 0.58883 0.0
C767 C 0.62941 0.25422 0.59153 0.0
C768 C 0.64548 0.24415 0.61686 0.0
C769 C 0.65908 0.25933 0.63962 0.0
H770 H 0.61889 0.24243 0.57394 0.0
H771 H 0.7567 0.3851 0.79358 0.0
H772 H 0.7802 0.65527 0.98752 0.0
H773 H 0.7476 0.68074 0.96425 0.0
H774 H 0.69768 0.62011 0.97038 0.0
H775 H 0.73073 0.59401 0.99303 0.0
H776 H 0.69182 0.64403 0.90796 0.0
H777 H 0.6944 0.66714 0.03179 0.0
H778 H 0.71309 0.67952 0.08977 0.0
H779 H 0.73943 0.74537 0.04055 0.0
H780 H 0.72121 0.73323 0.98211 0.0
H781 H 0.5959 0.73192 0.87038 0.0
H782 H 0.62037 0.69986 0.89919 0.0
H783 H 0.68422 0.74538 0.89143 0.0
H784 H 0.66013 0.77731 0.86263 0.0
H785 H 0.67687 0.72582 0.96062 0.0
H786 H 0.6776 0.69911 0.83507 0.0
H787 H 0.65821 0.68625 0.77783 0.0
H788 H 0.62366 0.62652 0.83278 0.0
H789 H 0.6426 0.63925 0.89049 0.0
C790 C 0.76229 0.64726 0.98424 0.0
C791 C 0.75808 0.62257 0.99237 0.0
C792 C 0.74358 0.66195 0.97102 0.0
C793 C 0.72004 0.6525 0.96616 0.0
C794 C 0.71568 0.62783 0.97411 0.0
C795 C 0.73455 0.61297 0.98715 0.0
C796 C 0.70042 0.66853 0.95183 0.0
C797 C 0.68815 0.66169 0.91994 0.0
C798 C 0.69571 0.69167 0.96727 0.0
C799 C 0.70653 0.69919 0.00248 0.0
C800 C 0.7043 0.6842 0.03326 0.0
C801 C 0.7148 0.69118 0.06622 0.0
C802 C 0.72747 0.7132 0.06883 0.0
C803 C 0.72961 0.72831 0.03849 0.0
C804 C 0.71917 0.72141 0.00545 0.0
C805 C 0.61519 0.73501 0.87456 0.0
C806 C 0.62605 0.7572 0.86424 0.0
C807 C 0.62913 0.71667 0.89098 0.0
C808 C 0.65408 0.7203 0.89748 0.0
C809 C 0.66497 0.74227 0.88678 0.0
C810 C 0.65116 0.76047 0.87014 0.0
C811 C 0.66898 0.70161 0.91625 0.0
C812 C 0.68027 0.70797 0.94905 0.0
C813 C 0.67255 0.678 0.90186 0.0
C814 C 0.66127 0.67031 0.86716 0.0
C815 C 0.66569 0.68337 0.83501 0.0
C816 C 0.65482 0.67607 0.80247 0.0
C817 C 0.63964 0.65563 0.80169 0.0
C818 C 0.63537 0.64238 0.83344 0.0
C819 C 0.64618 0.64962 0.86606 0.0
H820 H 0.63124 0.65 0.77647 0.0
H821 H 0.7356 0.71856 0.09437 0.0
H822 H 0.26633 0.59894 0.10924 0.0
H823 H 0.29886 0.62543 0.13223 0.0
H824 H 0.24643 0.68286 0.14945 0.0
H825 H 0.2143 0.65697 0.12508 0.0
H826 H 0.28412 0.70166 0.12115 0.0
H827 H 0.27182 0.64528 0.22008 0.0
H828 H 0.26963 0.60477 0.24892 0.0
H829 H 0.34421 0.59114 0.22049 0.0
H830 H 0.34675 0.63148 0.19108 0.0
H831 H 0.34246 0.77909 0.24411 0.0
H832 H 0.31608 0.7471 0.22039 0.0
H833 H 0.37902 0.70555 0.18808 0.0
H834 H 0.4058 0.73765 0.21185 0.0
H835 H 0.34033 0.67705 0.22013 0.0
H836 H 0.35224 0.73625 0.12546 0.0
H837 H 0.35339 0.77792 0.10045 0.0
H838 H 0.27746 0.78703 0.12473 0.0
H839 H 0.27595 0.74553 0.15041 0.0
C840 C 0.26181 0.61722 0.118 0.0
C841 C 0.23778 0.62589 0.1153 0.0
C842 C 0.28039 0.63232 0.13132 0.0
C843 C 0.27513 0.65613 0.14304 0.0
C844 C 0.25106 0.66465 0.14047 0.0
C845 C 0.23266 0.64979 0.12657 0.0
C846 C 0.29451 0.67257 0.15737 0.0
C847 C 0.29621 0.69624 0.14302 0.0
C848 C 0.31087 0.66547 0.18527 0.0
C849 C 0.30939 0.64127 0.20304 0.0
C850 C 0.2877 0.63357 0.21976 0.0
C851 C 0.2864 0.61066 0.23624 0.0
C852 C 0.30674 0.59536 0.23644 0.0
C853 C 0.32845 0.60299 0.22026 0.0
C854 C 0.32984 0.62588 0.2037 0.0
C855 C 0.35081 0.76309 0.23229 0.0
C856 C 0.37629 0.76107 0.22956 0.0
C857 C 0.33566 0.74482 0.2187 0.0
C858 C 0.3456 0.72412 0.20209 0.0
C859 C 0.37101 0.72144 0.20073 0.0
C860 C 0.38626 0.73983 0.21421 0.0
C861 C 0.32925 0.7061 0.18452 0.0
C862 C 0.32827 0.68223 0.19809 0.0
C863 C 0.31329 0.71306 0.15622 0.0
C864 C 0.31403 0.73784 0.14007 0.0
C865 C 0.33582 0.74719 0.12565 0.0
C866 C 0.33654 0.77078 0.11134 0.0
C867 C 0.31552 0.78513 0.11106 0.0
C868 C 0.29373 0.7759 0.12498 0.0
C869 C 0.29292 0.75233 0.13937 0.0
H870 H 0.31612 0.8034 0.10001 0.0
H871 H 0.3057 0.57763 0.24921 0.0
H872 H 0.4717 0.8988 0.31903 0.0
H873 H 0.47615 0.94308 0.32274 0.0
H874 H 0.40363 0.95208 0.27947 0.0
H875 H 0.39912 0.90806 0.2751 0.0
H876 H 0.43439 0.98141 0.24577 0.0
H877 H 0.41631 0.96062 0.36896 0.0
H878 H 0.42152 0.93961 0.42756 0.0
H879 H 0.4926 0.97132 0.43958 0.0
H880 H 0.48803 0.99215 0.38061 0.0
H881 H 0.40003 0.09964 0.29984 0.0
H882 H 0.4047 0.05556 0.29574 0.0
H883 H 0.48194 0.06265 0.31438 0.0
H884 H 0.47752 0.10718 0.31797 0.0
H885 H 0.45469 0.02575 0.35909 0.0
H886 H 0.46927 0.04977 0.2358 0.0
H887 H 0.4604 0.07213 0.17929 0.0
H888 H 0.39177 0.03507 0.16984 0.0
H889 H 0.40003 0.01278 0.22666 0.0
C890 C 0.45661 0.91018 0.31056 0.0
C891 C 0.43504 0.8998 0.29676 0.0
C892 C 0.45919 0.93551 0.31275 0.0
C893 C 0.4402 0.9509 0.30144 0.0
C894 C 0.41857 0.94057 0.28816 0.0
C895 C 0.41599 0.91533 0.28587 0.0
C896 C 0.44284 0.97781 0.30264 0.0
C897 C 0.43872 0.99107 0.27062 0.0
C898 C 0.44903 0.99042 0.33487 0.0
C899 C 0.45196 0.97768 0.37012 0.0
C900 C 0.43318 0.96288 0.38387 0.0
C901 C 0.436 0.95104 0.41718 0.0
C902 C 0.45741 0.95406 0.43721 0.0
C903 C 0.47605 0.96894 0.42397 0.0
C904 C 0.47337 0.98075 0.39059 0.0
C905 C 0.41805 0.09192 0.30299 0.0
C906 C 0.43841 0.10691 0.30921 0.0
C907 C 0.42067 0.06672 0.30057 0.0
C908 C 0.44364 0.05595 0.30472 0.0
C909 C 0.46407 0.07073 0.31111 0.0
C910 C 0.46152 0.0961 0.31293 0.0
C911 C 0.44589 0.02915 0.30242 0.0
C912 C 0.45084 0.01596 0.33418 0.0
C913 C 0.44012 0.01658 0.27011 0.0
C914 C 0.43521 0.02973 0.23566 0.0
C915 C 0.4522 0.04652 0.22183 0.0
C916 C 0.44729 0.05916 0.18971 0.0
C917 C 0.42552 0.05505 0.17102 0.0
C918 C 0.40862 0.03824 0.18436 0.0
C919 C 0.41342 0.02558 0.21651 0.0
H920 H 0.42175 0.06486 0.14616 0.0
H921 H 0.45949 0.94495 0.46306 0.0
H922 H 0.89743 0.47184 0.54569 0.0
H923 H 0.94178 0.47522 0.54558 0.0
H924 H 0.94783 0.39745 0.56037 0.0
H925 H 0.90358 0.39396 0.56154 0.0
H926 H 0.97696 0.42008 0.60585 0.0
H927 H 0.96 0.42596 0.47806 0.0
H928 H 0.94043 0.44271 0.42321 0.0
H929 H 0.9722 0.51275 0.44478 0.0
H930 H 0.9917 0.49648 0.50008 0.0
H931 H 0.09815 0.39762 0.54928 0.0
H932 H 0.05404 0.40037 0.55555 0.0
H933 H 0.05895 0.4787 0.56054 0.0
H934 H 0.10336 0.47619 0.55493 0.0
H935 H 0.02472 0.45991 0.50826 0.0
H936 H 0.04437 0.45227 0.63398 0.0
H937 H 0.06465 0.43434 0.6874 0.0
H938 H 0.0283 0.36626 0.66804 0.0
H939 H 0.00807 0.38368 0.61415 0.0
C940 C 0.90816 0.4554 0.54849 0.0
C941 C 0.89687 0.43262 0.55364 0.0
C942 C 0.93356 0.45737 0.54838 0.0
C943 C 0.94816 0.43657 0.55283 0.0
C944 C 0.93694 0.41377 0.55707 0.0
C945 C 0.91159 0.4118 0.55751 0.0
C946 C 0.97513 0.43854 0.55427 0.0
C947 C 0.98739 0.42858 0.5843 0.0
C948 C 0.98874 0.45028 0.52672 0.0
C949 C 0.97709 0.46007 0.49343 0.0
C950 C 0.96265 0.44498 0.47127 0.0
C951 C 0.9516 0.45438 0.44007 0.0
C952 C 0.95501 0.4788 0.43057 0.0
C953 C 0.96954 0.49385 0.45221 0.0
C954 C 0.98061 0.48455 0.48347 0.0
C955 C 0.08998 0.41545 0.55228 0.0
C956 C 0.10435 0.43669 0.55158 0.0
C957 C 0.06474 0.41697 0.55586 0.0
C958 C 0.05331 0.43972 0.55848 0.0
C959 C 0.06752 0.46097 0.55852 0.0
C960 C 0.09288 0.45947 0.55549 0.0
C961 C 0.0264 0.44109 0.55944 0.0
C962 C 0.0142 0.45165 0.52991 0.0
C963 C 0.01284 0.42976 0.58729 0.0
C964 C 0.02485 0.41923 0.61983 0.0
C965 C 0.04085 0.43341 0.64093 0.0
C966 C 0.05231 0.42335 0.67133 0.0
C967 C 0.04781 0.39916 0.68107 0.0
C968 C 0.03178 0.38499 0.66046 0.0
C969 C 0.02029 0.39496 0.63 0.0
H970 H 0.05669 0.3914 0.70461 0.0
H971 H 0.94644 0.48604 0.40641 0.0
H972 H 0.60585 0.90238 0.79614 0.0
H973 H 0.6017 0.94643 0.79789 0.0
H974 H 0.5237 0.93923 0.80713 0.0
H975 H 0.52764 0.89471 0.8046 0.0
H976 H 0.53635 0.97736 0.76304 0.0
H977 H 0.55717 0.94977 0.88168 0.0
H978 H 0.5806 0.92648 0.92707 0.0
H979 H 0.64522 0.96651 0.8996 0.0
H980 H 0.62229 0.98975 0.85355 0.0
H981 H 0.52805 0.10211 0.81681 0.0
H982 H 0.52483 0.05772 0.82028 0.0
H983 H 0.60242 0.05142 0.80474 0.0
H984 H 0.60592 0.09566 0.80134 0.0
H985 H 0.58517 0.0199 0.85718 0.0
H986 H 0.56469 0.0444 0.73463 0.0
H987 H 0.5411 0.06789 0.68962 0.0
H988 H 0.47508 0.03376 0.72596 0.0
H989 H 0.49825 0.01037 0.77165 0.0
C990 C 0.58774 0.91004 0.79819 0.0
C991 C 0.56709 0.89493 0.8006 0.0
C992 C 0.58542 0.9353 0.79932 0.0
C993 C 0.56245 0.94612 0.8035 0.0
C994 C 0.54162 0.93124 0.80416 0.0
C995 C 0.54391 0.90581 0.8027 0.0
C996 C 0.56062 0.9729 0.80854 0.0
C997 C 0.54665 0.98664 0.78404 0.0
C998 C 0.57423 0.98503 0.83579 0.0
C999 C 0.58801 0.97142 0.86399 0.0
C1000 C 0.5764 0.95352 0.88517 0.0
C1001 C 0.5896 0.94033 0.91102 0.0
C1002 C 0.61438 0.94501 0.9162 0.0
C1003 C 0.62602 0.96292 0.89556 0.0
C1004 C 0.61292 0.97612 0.8696 0.0
C1005 C 0.5445 0.09133 0.81453 0.0
C1006 C 0.56724 0.10253 0.80858 0.0
C1007 C 0.54258 0.06595 0.8164 0.0
C1008 C 0.56335 0.05129 0.81238 0.0
C1009 C 0.58616 0.06241 0.80788 0.0
C1010 C 0.5881 0.08774 0.80584 0.0
C1011 C 0.56136 0.02435 0.81121 0.0
C1012 C 0.57461 0.01059 0.83651 0.0
C1013 C 0.54701 0.01223 0.78483 0.0
C1014 C 0.53316 0.02583 0.7568 0.0
C1015 C 0.54512 0.04202 0.73317 0.0
C1016 C 0.53183 0.05531 0.70753 0.0
C1017 C 0.5066 0.05237 0.705 0.0
C1018 C 0.49462 0.03605 0.728 0.0
C1019 C 0.50782 0.02277 0.75376 0.0
H1020 H 0.49633 0.06269 0.68516 0.0
H1021 H 0.62456 0.9348 0.93626 0.0
H1022 H 0.90631 0.60101 0.04456 0.0
H1023 H 0.95009 0.5963 0.03861 0.0
H1024 H 0.94162 0.51829 0.03206 0.0
H1025 H 0.89731 0.52284 0.0389 0.0
H1026 H 0.98154 0.53117 0.07283 0.0
H1027 H 0.95014 0.55062 0.95608 0.0
H1028 H 0.92547 0.57337 0.91148 0.0
H1029 H 0.96654 0.63827 0.93364 0.0
H1030 H 0.99111 0.6161 0.97894 0.0
H1031 H 0.10659 0.52853 0.01498 0.0
H1032 H 0.06242 0.52279 0.01003 0.0
H1033 H 0.05132 0.59901 0.03281 0.0
H1034 H 0.09516 0.60486 0.03854 0.0
H1035 H 0.02115 0.57998 0.97599 0.0
H1036 H 0.04752 0.56163 0.09894 0.0
H1037 H 0.07294 0.53919 0.14284 0.0
H1038 H 0.0414 0.47161 0.1075 0.0
H1039 H 0.01622 0.49365 0.06266 0.0
C1040 C 0.91364 0.58279 0.04208 0.0
C1041 C 0.89823 0.56232 0.04183 0.0
C1042 C 0.93874 0.58014 0.03856 0.0
C1043 C 0.94909 0.55699 0.034 0.0
C1044 C 0.93397 0.53634 0.03527 0.0
C1045 C 0.90869 0.53897 0.0392 0.0
C1046 C 0.97564 0.55488 0.02702 0.0
C1047 C 0.99015 0.54139 0.05115 0.0
C1048 C 0.98692 0.56834 -0.00118 0.0
C1049 C 0.97244 0.58167 0.97105 0.0
C1050 C 0.95384 0.56977 0.95159 0.0
C1051 C 0.93987 0.58256 0.92619 0.0
C1052 C 0.94447 0.60722 0.91971 0.0
C1053 C 0.96303 0.61915 0.93865 0.0
C1054 C 0.977 0.60648 0.96418 0.0
C1055 C 0.09478 0.54415 0.01843 0.0
C1056 C 0.10446 0.56715 0.02736 0.0
C1057 C 0.06956 0.54081 0.01564 0.0
C1058 C 0.05367 0.56046 0.02123 0.0
C1059 C 0.06331 0.58363 0.02832 0.0
C1060 C 0.08841 0.58691 0.03167 0.0
C1061 C 0.02693 0.55687 0.02233 0.0
C1062 C 0.01244 0.56933 -0.0029 0.0
C1063 C 0.0157 0.54241 0.04936 0.0
C1064 C 0.03022 0.52925 0.07713 0.0
C1065 C 0.04613 0.54197 0.10034 0.0
C1066 C 0.06049 0.52933 0.1254 0.0
C1067 C 0.05883 0.50398 0.1279 0.0
C1068 C 0.04271 0.49124 0.10547 0.0
C1069 C 0.02841 0.5038 0.08019 0.0
H1070 H 0.07002 0.4942 0.14723 0.0
H1071 H 0.93367 0.61708 0.89999 0.0
H1072 H 0.56465 0.16132 0.94064 0.0
H1073 H 0.54327 0.15968 -0.00128 0.0
H1074 H 0.47937 0.19098 0.94878 0.0
H1075 H 0.50071 0.19328 0.89101 0.0
H1076 H 0.48574 0.20972 0.01371 0.0
H1077 H 0.48314 0.1298 0.96394 0.0
H1078 H 0.49958 0.09234 0.93645 0.0
H1079 H 0.54276 0.07922 0.03169 0.0
H1080 H 0.52688 0.11683 0.05955 0.0
H1081 H 0.4129 0.17513 0.16853 0.0
H1082 H 0.42634 0.17395 0.10475 0.0
H1083 H 0.49996 0.15968 0.13996 0.0
H1084 H 0.48691 0.16146 0.20306 0.0
H1085 H 0.48279 0.13055 0.07879 0.0
H1086 H 0.48803 0.21419 0.12365 0.0
H1087 H 0.47024 0.25127 0.15044 0.0
H1088 H 0.41933 0.25611 0.06214 0.0
H1089 H 0.43659 0.21877 0.03516 0.0
C1090 C 0.54615 0.16811 0.94213 0.0
C1091 C 0.53432 0.17721 0.91115 0.0
C1092 C 0.53389 0.16701 0.97525 0.0
C1093 C 0.50954 0.1747 0.97783 0.0
C1094 C 0.49809 0.18479 0.94734 0.0
C1095 C 0.51035 0.18606 0.91431 0.0
C1096 C 0.49586 0.17176 0.01212 0.0
C1097 C 0.48475 0.19231 0.02758 0.0
C1098 C 0.49449 0.14903 0.03022 0.0
C1099 C 0.50396 0.12626 0.01372 0.0
C1100 C 0.49627 0.11902 0.97893 0.0
C1101 C 0.50548 0.09775 0.96329 0.0
C1102 C 0.52224 0.08344 0.98228 0.0
C1103 C 0.52979 0.09034 0.017 0.0
C1104 C 0.52067 0.11163 0.03274 0.0
C1105 C 0.43184 0.17144 0.16243 0.0
C1106 C 0.44895 0.16863 0.19045 0.0
C1107 C 0.43947 0.17079 0.1262 0.0
C1108 C 0.46412 0.16677 0.11791 0.0
C1109 C 0.48087 0.16273 0.14592 0.0
C1110 C 0.47342 0.16392 0.18187 0.0
C1111 C 0.47323 0.16855 0.08042 0.0
C1112 C 0.48348 0.14781 0.06443 0.0
C1113 C 0.47355 0.19099 0.06164 0.0
C1114 C 0.46337 0.21354 0.07766 0.0
C1115 C 0.47289 0.22303 0.11014 0.0
C1116 C 0.46293 0.24412 0.12532 0.0
C1117 C 0.44361 0.256 0.10807 0.0
C1118 C 0.43426 0.24685 0.07552 0.0
C1119 C 0.44412 0.22573 0.06028 0.0
H1120 H 0.43593 0.27232 0.11985 0.0
H1121 H 0.52935 0.06697 0.97013 0.0
H1122 H 0.82196 0.58543 0.19384 0.0
H1123 H 0.81996 0.56888 0.25578 0.0
H1124 H 0.85219 0.50172 0.21828 0.0
H1125 H 0.85322 0.51778 0.15671 0.0
H1126 H 0.81286 0.49208 0.25378 0.0
H1127 H 0.88277 0.54362 0.27442 0.0
H1128 H 0.90551 0.58239 0.27532 0.0
H1129 H 0.85308 0.61285 0.34868 0.0
H1130 H 0.82984 0.57434 0.34784 0.0
H1131 H 0.84134 0.43297 0.42041 0.0
H1132 H 0.84234 0.45323 0.36128 0.0
H1133 H 0.80284 0.51424 0.40553 0.0
H1134 H 0.8018 0.49428 0.46459 0.0
H1135 H 0.84322 0.5287 0.36813 0.0
H1136 H 0.77464 0.47595 0.34927 0.0
H1137 H 0.75258 0.4368 0.34859 0.0
H1138 H 0.80364 0.40816 0.27156 0.0
H1139 H 0.82622 0.44704 0.27216 0.0
C1140 C 0.82911 0.56739 0.19923 0.0
C1141 C 0.83764 0.55278 0.17078 0.0
C1142 C 0.82795 0.55792 0.2345 0.0
C1143 C 0.83584 0.53398 0.24163 0.0
C1144 C 0.84576 0.5201 0.21339 0.0
C1145 C 0.84647 0.52933 0.1783 0.0
C1146 C 0.83215 0.52241 0.27754 0.0
C1147 C 0.81981 0.49997 0.27871 0.0
C1148 C 0.84046 0.53306 0.31021 0.0
C1149 C 0.85443 0.55619 0.31075 0.0
C1150 C 0.87598 0.55866 0.2905 0.0
C1151 C 0.88898 0.58057 0.29105 0.0
C1152 C 0.8807 0.60009 0.31195 0.0
C1153 C 0.85944 0.59772 0.33244 0.0
C1154 C 0.84636 0.57585 0.33197 0.0
C1155 C 0.83257 0.45053 0.41743 0.0
C1156 C 0.82158 0.46204 0.44723 0.0
C1157 C 0.83316 0.46209 0.38366 0.0
C1158 C 0.82268 0.48524 0.37914 0.0
C1159 C 0.81113 0.49644 0.40856 0.0
C1160 C 0.81048 0.48492 0.44224 0.0
C1161 C 0.82452 0.49817 0.34405 0.0
C1162 C 0.83631 0.52089 0.34312 0.0
C1163 C 0.81585 0.48773 0.31151 0.0
C1164 C 0.80225 0.46435 0.31102 0.0
C1165 C 0.78129 0.46124 0.33241 0.0
C1166 C 0.76866 0.43911 0.33199 0.0
C1167 C 0.77674 0.41999 0.31011 0.0
C1168 C 0.79742 0.42298 0.28852 0.0
C1169 C 0.81012 0.44507 0.28886 0.0
H1170 H 0.76694 0.40287 0.30983 0.0
H1171 H 0.8908 0.61704 0.31234 0.0
H1172 H 0.51246 0.80989 0.69858 0.0
H1173 H 0.49772 0.80801 0.6367 0.0
H1174 H 0.56533 0.83874 0.59841 0.0
H1175 H 0.58027 0.84126 0.6612 0.0
H1176 H 0.52722 0.85938 0.56512 0.0
H1177 H 0.55369 0.77851 0.58651 0.0
H1178 H 0.55805 0.7398 0.61987 0.0
H1179 H 0.48087 0.72787 0.61278 0.0
H1180 H 0.47598 0.7667 0.57985 0.0
H1181 H 0.48408 0.79338 0.39113 0.0
H1182 H 0.50473 0.79206 0.44968 0.0
H1183 H 0.45696 0.84821 0.48997 0.0
H1184 H 0.43626 0.84987 0.43111 0.0
H1185 H 0.49152 0.78261 0.5176 0.0
H1186 H 0.49187 0.88766 0.54152 0.0
H1187 H 0.49199 0.92545 0.50522 0.0
H1188 H 0.52336 0.88695 0.41542 0.0
H1189 H 0.52398 0.8491 0.45142 0.0
C1190 C 0.52438 0.81618 0.67715 0.0
C1191 C 0.54765 0.82561 0.68485 0.0
C1192 C 0.51589 0.81499 0.64168 0.0
C1193 C 0.53058 0.82281 0.61291 0.0
C1194 C 0.55378 0.83247 0.62031 0.0
C1195 C 0.56229 0.83384 0.65609 0.0
C1196 C 0.52111 0.82122 0.57537 0.0
C1197 C 0.51953 0.84259 0.55462 0.0
C1198 C 0.51161 0.79914 0.56137 0.0
C1199 C 0.51446 0.77561 0.58087 0.0
C1200 C 0.53762 0.76771 0.59225 0.0
C1201 C 0.54019 0.74574 0.61107 0.0
C1202 C 0.51975 0.73141 0.61848 0.0
C1203 C 0.49669 0.739 0.60702 0.0
C1204 C 0.49401 0.76097 0.58822 0.0
C1205 C 0.47772 0.80526 0.41257 0.0
C1206 C 0.45867 0.82191 0.40643 0.0
C1207 C 0.48955 0.80444 0.44602 0.0
C1208 C 0.48264 0.82033 0.47387 0.0
C1209 C 0.46279 0.83608 0.46853 0.0
C1210 C 0.45086 0.83687 0.43502 0.0
C1211 C 0.4968 0.82096 0.50802 0.0
C1212 C 0.49931 0.79938 0.52804 0.0
C1213 C 0.50777 0.84267 0.52081 0.0
C1214 C 0.50769 0.86546 0.49908 0.0
C1215 C 0.49888 0.88728 0.51408 0.0
C1216 C 0.49883 0.90872 0.49355 0.0
C1217 C 0.50757 0.90857 0.45799 0.0
C1218 C 0.5165 0.88702 0.44292 0.0
C1219 C 0.5167 0.86557 0.46338 0.0
H1220 H 0.50755 0.92516 0.44213 0.0
H1221 H 0.52177 0.7144 0.63307 0.0
H1222 H 0.21238 0.52614 0.93717 0.0
H1223 H 0.21624 0.51128 0.87546 0.0
H1224 H 0.16861 0.56848 0.83765 0.0
H1225 H 0.16405 0.58321 0.90001 0.0
H1226 H 0.15407 0.52591 0.81265 0.0
H1227 H 0.22975 0.56814 0.81611 0.0
H1228 H 0.26954 0.58074 0.84094 0.0
H1229 H 0.29492 0.50685 0.83555 0.0
H1230 H 0.25516 0.49373 0.81116 0.0
H1231 H 0.21011 0.49412 0.62788 0.0
H1232 H 0.21384 0.51433 0.68633 0.0
H1233 H 0.17168 0.45712 0.73639 0.0
H1234 H 0.16733 0.43691 0.67754 0.0
H1235 H 0.23153 0.50407 0.75158 0.0
H1236 H 0.13288 0.48291 0.79663 0.0
H1237 H 0.09324 0.47287 0.76868 0.0
H1238 H 0.11385 0.51111 0.67182 0.0
H1239 H 0.15344 0.52166 0.69938 0.0
C1240 C 0.20296 0.53585 0.91575 0.0
C1241 C 0.18771 0.55575 0.92354 0.0
C1242 C 0.20534 0.52739 0.88037 0.0
C1243 C 0.19282 0.53883 0.85191 0.0
C1244 C 0.17841 0.55938 0.85929 0.0
C1245 C 0.17592 0.56785 0.89486 0.0
C1246 C 0.19327 0.52795 0.8152 0.0
C1247 C 0.17101 0.52131 0.7992 0.0
C1248 C 0.21537 0.52211 0.7975 0.0
C1249 C 0.23939 0.52993 0.81201 0.0
C1250 C 0.24375 0.55454 0.82045 0.0
C1251 C 0.26632 0.56178 0.83441 0.0
C1252 C 0.28473 0.5446 0.83988 0.0
C1253 C 0.28064 0.52014 0.83131 0.0
C1254 C 0.2581 0.5128 0.81736 0.0
C1255 C 0.20183 0.48562 0.65135 0.0
C1256 C 0.18805 0.4641 0.64799 0.0
C1257 C 0.2041 0.49719 0.68479 0.0
C1258 C 0.19266 0.48747 0.71549 0.0
C1259 C 0.18027 0.46513 0.71279 0.0
C1260 C 0.17791 0.45354 0.67922 0.0
C1261 C 0.19239 0.50162 0.7496 0.0
C1262 C 0.21463 0.50882 0.76504 0.0
C1263 C 0.17028 0.50848 0.76639 0.0
C1264 C 0.14621 0.50286 0.74997 0.0
C1265 C 0.12889 0.48929 0.76946 0.0
C1266 C 0.10644 0.48349 0.75366 0.0
C1267 C 0.10106 0.49127 0.71845 0.0
C1268 C 0.11806 0.50501 0.69904 0.0
C1269 C 0.14051 0.5109 0.71473 0.0
H1270 H 0.0837 0.48669 0.70624 0.0
H1271 H 0.30219 0.55024 0.8507 0.0
loop_
_geom_bond_atom_site_label_1
_geom_bond_atom_site_label_2
_geom_bond_distance
_geom_bond_site_symmetry_2
_ccdc_geom_bond_type
Co0 O2 2.143 . S
Co0 O8 2.074 . S
Co0 O11 2.093 . S
Co0 O24 2.097 . S
Co0 N41 2.151 . S
Co0 N49 2.214 . S
Co1 O2 2.160 . S
Co1 O7 2.058 . S
Co1 O17 2.057 . S
Co1 O32 2.037 . S
Co1 N36 2.145 . S
Co1 N57 2.257 . S
O2 Co0 2.143 . S
O2 Co1 2.160 . S
C3 O4 1.278 . S
C3 O11 1.224 . S
O4 C3 1.278 . S
C5 O6 1.245 . S
C5 O17 1.232 . S
O6 C5 1.245 . S
O7 Co1 2.058 . S
O7 C33 1.269 . S
O8 Co0 2.074 . S
O8 C33 1.257 . S
H9 C34 0.930 . S
H10 C40 0.930 . S
O11 Co0 2.093 . S
O11 C3 1.224 . S
H12 C44 0.929 . S
H13 C46 0.930 . S
H14 C47 0.930 . S
H15 C45 0.929 . S
H16 C48 0.928 . S
O17 Co1 2.057 . S
O17 C5 1.232 . S
H18 C37 0.929 . S
H19 C38 0.929 . S
H20 C50 0.931 . S
H21 C42 0.929 . S
H22 C51 0.930 . S
H23 C43 0.931 . S
O24 Co0 2.097 . S
O24 C52 1.214 . S
H25 C53 0.929 . S
H26 C54 0.929 . S
H27 C55 0.930 . S
H28 C56 0.929 . S
H29 C58 0.930 . S
H30 C35 0.930 . S
H31 C39 0.930 . S
O32 Co1 2.037 . S
O32 C52 1.234 . S
C33 O7 1.269 . S
C33 O8 1.257 . S
C34 H9 0.930 . S
C34 C37 1.388 . S
C34 C39 1.418 . S
C35 H30 0.930 . S
C35 C38 1.404 . S
C35 C39 1.353 . S
N36 Co1 2.145 . S
N36 C37 1.397 . S
N36 C38 1.334 . S
C37 H18 0.929 . S
C37 C34 1.388 . S
C37 N36 1.397 . S
C38 H19 0.929 . S
C38 C35 1.404 . S
C38 N36 1.334 . S
C39 H31 0.930 . S
C39 C34 1.418 . S
C39 C35 1.353 . S
C40 H10 0.930 . S
C40 N41 1.330 . S
C40 C42 1.446 . S
N41 Co0 2.151 . S
N41 C40 1.330 . S
N41 C45 1.418 . S
C42 H21 0.929 . S
C42 C40 1.446 . S
C42 C43 1.332 . S
C43 H23 0.931 . S
C43 C42 1.332 . S
C43 C44 1.267 . S
C44 H12 0.929 . S
C44 C43 1.267 . S
C44 C45 1.251 . S
C45 H15 0.929 . S
C45 N41 1.418 . S
C45 C44 1.251 . S
C46 H13 0.930 . S
C46 C48 1.406 . S
C46 C51 1.261 . S
C47 H14 0.930 . S
C47 N49 1.325 . S
C47 C50 1.357 . S
C48 H16 0.928 . S
C48 C46 1.406 . S
C48 N49 1.261 . S
N49 Co0 2.214 . S
N49 C47 1.325 . S
N49 C48 1.261 . S
C50 H20 0.931 . S
C50 C47 1.357 . S
C50 C51 1.312 . S
C51 H22 0.930 . S
C51 C46 1.261 . S
C51 C50 1.312 . S
C52 O24 1.214 . S
C52 O32 1.234 . S
C53 H25 0.929 . S
C53 C56 1.391 . S
C53 C58 1.391 . S
C54 H26 0.929 . S
C54 C55 1.390 . S
C54 N57 1.391 . S
C55 H27 0.930 . S
C55 C54 1.390 . S
C55 C56 1.392 . S
C56 H28 0.929 . S
C56 C53 1.391 . S
C56 C55 1.392 . S
N57 Co1 2.257 . S
N57 C54 1.391 . S
N57 C58 1.388 . S
C58 H29 0.930 . S
C58 C53 1.391 . S
C58 N57 1.388 . S
Co59 O61 2.143 . S
Co59 O67 2.074 . S
Co59 O70 2.093 . S
Co59 O83 2.097 . S
Co59 N100 2.151 . S
Co59 N108 2.214 . S
Co60 O61 2.160 . S
Co60 O66 2.058 . S
Co60 O76 2.057 . S
Co60 O91 2.037 . S
Co60 N95 2.145 . S
Co60 N116 2.257 . S
O61 Co59 2.143 . S
O61 Co60 2.160 . S
C62 O63 1.278 . S
C62 O70 1.224 . S
O63 C62 1.278 . S
C64 O65 1.245 . S
C64 O76 1.232 . S
O65 C64 1.245 . S
O66 Co60 2.058 . S
O66 C92 1.269 . S
O67 Co59 2.074 . S
O67 C92 1.257 . S
H68 C93 0.930 . S
H69 C99 0.930 . S
O70 Co59 2.093 . S
O70 C62 1.224 . S
H71 C103 0.929 . S
H72 C105 0.930 . S
H73 C106 0.930 . S
H74 C104 0.929 . S
H75 C107 0.928 . S
O76 Co60 2.057 . S
O76 C64 1.232 . S
H77 C96 0.929 . S
H78 C97 0.929 . S
H79 C109 0.931 . S
H80 C101 0.929 . S
H81 C110 0.930 . S
H82 C102 0.931 . S
O83 Co59 2.097 . S
O83 C111 1.214 . S
H84 C112 0.929 . S
H85 C113 0.929 . S
H86 C114 0.930 . S
H87 C115 0.929 . S
H88 C117 0.930 . S
H89 C94 0.930 . S
H90 C98 0.930 . S
O91 Co60 2.037 . S
O91 C111 1.234 . S
C92 O66 1.269 . S
C92 O67 1.257 . S
C93 H68 0.930 . S
C93 C96 1.388 . S
C93 C98 1.418 . S
C94 H89 0.930 . S
C94 C97 1.404 . S
C94 C98 1.353 . S
N95 Co60 2.145 . S
N95 C96 1.397 . S
N95 C97 1.334 . S
C96 H77 0.929 . S
C96 C93 1.388 . S
C96 N95 1.397 . S
C97 H78 0.929 . S
C97 C94 1.404 . S
C97 N95 1.334 . S
C98 H90 0.930 . S
C98 C93 1.418 . S
C98 C94 1.353 . S
C99 H69 0.930 . S
C99 N100 1.330 . S
C99 C101 1.446 . S
N100 Co59 2.151 . S
N100 C99 1.330 . S
N100 C104 1.418 . S
C101 H80 0.929 . S
C101 C99 1.446 . S
C101 C102 1.332 . S
C102 H82 0.931 . S
C102 C101 1.332 . S
C102 C103 1.267 . S
C103 H71 0.929 . S
C103 C102 1.267 . S
C103 C104 1.251 . S
C104 H74 0.929 . S
C104 N100 1.418 . S
C104 C103 1.251 . S
C105 H72 0.930 . S
C105 C107 1.406 . S
C105 C110 1.261 . S
C106 H73 0.930 . S
C106 N108 1.325 . S
C106 C109 1.357 . S
C107 H75 0.928 . S
C107 C105 1.406 . S
C107 N108 1.261 . S
N108 Co59 2.214 . S
N108 C106 1.325 . S
N108 C107 1.261 . S
C109 H79 0.931 . S
C109 C106 1.357 . S
C109 C110 1.312 . S
C110 H81 0.930 . S
C110 C105 1.261 . S
C110 C109 1.312 . S
C111 O83 1.214 . S
C111 O91 1.234 . S
C112 H84 0.929 . S
C112 C115 1.391 . S
C112 C117 1.391 . S
C113 H85 0.929 . S
C113 C114 1.390 . S
C113 N116 1.391 . S
C114 H86 0.930 . S
C114 C113 1.390 . S
C114 C115 1.392 . S
C115 H87 0.929 . S
C115 C112 1.391 . S
C115 C114 1.392 . S
N116 Co60 2.257 . S
N116 C113 1.391 . S
N116 C117 1.388 . S
C117 H88 0.930 . S
C117 C112 1.391 . S
C117 N116 1.388 . S
Co118 O120 2.143 . S
Co118 O126 2.074 . S
Co118 O129 2.093 . S
Co118 O142 2.097 . S
Co118 N159 2.151 . S
Co118 N167 2.214 . S
Co119 O120 2.160 . S
Co119 O125 2.058 . S
Co119 O135 2.057 . S
Co119 O150 2.037 . S
Co119 N154 2.145 . S
Co119 N175 2.257 . S
O120 Co118 2.143 . S
O120 Co119 2.160 . S
C121 O122 1.278 . S
C121 O129 1.224 . S
O122 C121 1.278 . S
C123 O124 1.245 . S
C123 O135 1.232 . S
O124 C123 1.245 . S
O125 Co119 2.058 . S
O125 C151 1.269 . S
O126 Co118 2.074 . S
O126 C151 1.257 . S
H127 C152 0.930 . S
H128 C158 0.930 . S
O129 Co118 2.093 . S
O129 C121 1.224 . S
H130 C162 0.929 . S
H131 C164 0.930 . S
H132 C165 0.930 . S
H133 C163 0.929 . S
H134 C166 0.928 . S
O135 Co119 2.057 . S
O135 C123 1.232 . S
H136 C155 0.929 . S
H137 C156 0.929 . S
H138 C168 0.931 . S
H139 C160 0.929 . S
H140 C169 0.930 . S
H141 C161 0.931 . S
O142 Co118 2.097 . S
O142 C170 1.214 . S
H143 C171 0.929 . S
H144 C172 0.929 . S
H145 C173 0.930 . S
H146 C174 0.929 . S
H147 C176 0.930 . S
H148 C153 0.930 . S
H149 C157 0.930 . S
O150 Co119 2.037 . S
O150 C170 1.234 . S
C151 O125 1.269 . S
C151 O126 1.257 . S
C152 H127 0.930 . S
C152 C155 1.388 . S
C152 C157 1.418 . S
C153 H148 0.930 . S
C153 C156 1.404 . S
C153 C157 1.353 . S
N154 Co119 2.145 . S
N154 C155 1.397 . S
N154 C156 1.334 . S
C155 H136 0.929 . S
C155 C152 1.388 . S
C155 N154 1.397 . S
C156 H137 0.929 . S
C156 C153 1.404 . S
C156 N154 1.334 . S
C157 H149 0.930 . S
C157 C152 1.418 . S
C157 C153 1.353 . S
C158 H128 0.930 . S
C158 N159 1.330 . S
C158 C160 1.446 . S
N159 Co118 2.151 . S
N159 C158 1.330 . S
N159 C163 1.418 . S
C160 H139 0.929 . S
C160 C158 1.446 . S
C160 C161 1.332 . S
C161 H141 0.931 . S
C161 C160 1.332 . S
C161 C162 1.267 . S
C162 H130 0.929 . S
C162 C161 1.267 . S
C162 C163 1.251 . S
C163 H133 0.929 . S
C163 N159 1.418 . S
C163 C162 1.251 . S
C164 H131 0.930 . S
C164 C166 1.406 . S
C164 C169 1.261 . S
C165 H132 0.930 . S
C165 N167 1.325 . S
C165 C168 1.357 . S
C166 H134 0.928 . S
C166 C164 1.406 . S
C166 N167 1.261 . S
N167 Co118 2.214 . S
N167 C165 1.325 . S
N167 C166 1.261 . S
C168 H138 0.931 . S
C168 C165 1.357 . S
C168 C169 1.312 . S
C169 H140 0.930 . S
C169 C164 1.261 . S
C169 C168 1.312 . S
C170 O142 1.214 . S
C170 O150 1.234 . S
C171 H143 0.929 . S
C171 C174 1.391 . S
C171 C176 1.391 . S
C172 H144 0.929 . S
C172 C173 1.390 . S
C172 N175 1.391 . S
C173 H145 0.930 . S
C173 C172 1.390 . S
C173 C174 1.392 . S
C174 H146 0.929 . S
C174 C171 1.391 . S
C174 C173 1.392 . S
N175 Co119 2.257 . S
N175 C172 1.391 . S
N175 C176 1.388 . S
C176 H147 0.930 . S
C176 C171 1.391 . S
C176 N175 1.388 . S
Co177 O179 2.143 . S
Co177 O185 2.074 . S
Co177 O188 2.116 . S
Co177 O201 2.097 . S
Co177 N218 2.151 . S
Co177 N226 2.214 . S
Co178 O179 2.160 . S
Co178 O184 2.058 . S
Co178 O194 2.057 . S
Co178 O209 2.037 . S
Co178 N213 2.145 . S
Co178 N234 2.257 . S
O179 Co177 2.143 . S
O179 Co178 2.160 . S
C180 O181 1.278 . S
C180 O188 1.211 1_556 S
O181 C180 1.278 . S
C182 O183 1.245 . S
C182 O194 1.232 . S
O183 C182 1.245 . S
O184 Co178 2.058 . S
O184 C210 1.269 . S
O185 Co177 2.074 . S
O185 C210 1.257 . S
H186 C211 0.930 . S
H187 C217 0.930 . S
O188 Co177 2.116 . S
O188 C180 1.211 1_554 S
H189 C221 0.929 . S
H190 C223 0.930 . S
H191 C224 0.930 . S
H192 C222 0.929 . S
H193 C225 0.928 . S
O194 Co178 2.057 . S
O194 C182 1.232 . S
H195 C214 0.929 . S
H196 C215 0.929 . S
H197 C227 0.931 . S
H198 C219 0.929 . S
H199 C228 0.930 . S
H200 C220 0.931 . S
O201 Co177 2.097 . S
O201 C229 1.214 . S
H202 C230 0.929 . S
H203 C231 0.929 . S
H204 C232 0.930 . S
H205 C233 0.929 . S
H206 C235 0.930 . S
H207 C212 0.930 . S
H208 C216 0.930 . S
O209 Co178 2.037 . S
O209 C229 1.234 . S
C210 O184 1.269 . S
C210 O185 1.257 . S
C211 H186 0.930 . S
C211 C214 1.388 . S
C211 C216 1.418 . S
C212 H207 0.930 . S
C212 C215 1.404 . S
C212 C216 1.353 . S
N213 Co178 2.145 . S
N213 C214 1.397 . S
N213 C215 1.334 . S
C214 H195 0.929 . S
C214 C211 1.388 . S
C214 N213 1.397 . S
C215 H196 0.929 . S
C215 C212 1.404 . S
C215 N213 1.334 . S
C216 H208 0.930 . S
C216 C211 1.418 . S
C216 C212 1.353 . S
C217 H187 0.930 . S
C217 N218 1.330 . S
C217 C219 1.446 . S
N218 Co177 2.151 . S
N218 C217 1.330 . S
N218 C222 1.418 . S
C219 H198 0.929 . S
C219 C217 1.446 . S
C219 C220 1.332 . S
C220 H200 0.931 . S
C220 C219 1.332 . S
C220 C221 1.267 . S
C221 H189 0.929 . S
C221 C220 1.267 . S
C221 C222 1.251 . S
C222 H192 0.929 . S
C222 N218 1.418 . S
C222 C221 1.251 . S
C223 H190 0.930 . S
C223 C225 1.406 . S
C223 C228 1.261 . S
C224 H191 0.930 . S
C224 N226 1.325 . S
C224 C227 1.357 . S
C225 H193 0.928 . S
C225 C223 1.406 . S
C225 N226 1.261 . S
N226 Co177 2.214 . S
N226 C224 1.325 . S
N226 C225 1.261 . S
C227 H197 0.931 . S
C227 C224 1.357 . S
C227 C228 1.312 . S
C228 H199 0.930 . S
C228 C223 1.261 . S
C228 C227 1.312 . S
C229 O201 1.214 . S
C229 O209 1.234 . S
C230 H202 0.929 . S
C230 C233 1.391 . S
C230 C235 1.391 1_556 S
C231 H203 0.929 . S
C231 C232 1.390 . S
C231 N234 1.391 . S
C232 H204 0.930 . S
C232 C231 1.390 . S
C232 C233 1.392 1_554 S
C233 H205 0.929 . S
C233 C230 1.391 . S
C233 C232 1.392 1_556 S
N234 Co178 2.257 . S
N234 C231 1.391 . S
N234 C235 1.388 . S
C235 H206 0.930 . S
C235 C230 1.391 1_554 S
C235 N234 1.388 . S
Co236 O238 2.143 . S
Co236 O244 2.074 . S
Co236 O247 2.093 . S
Co236 O260 2.097 . S
Co236 N277 2.151 . S
Co236 N285 2.214 . S
Co237 O238 2.160 . S
Co237 O243 2.058 . S
Co237 O253 2.057 . S
Co237 O268 2.037 . S
Co237 N272 2.145 . S
Co237 N293 2.257 . S
O238 Co236 2.143 . S
O238 Co237 2.160 . S
C239 O240 1.278 . S
C239 O247 1.224 . S
O240 C239 1.278 . S
C241 O242 1.245 . S
C241 O253 1.232 . S
O242 C241 1.245 . S
O243 Co237 2.058 . S
O243 C269 1.269 . S
O244 Co236 2.074 . S
O244 C269 1.257 . S
H245 C270 0.930 . S
H246 C276 0.930 . S
O247 Co236 2.093 . S
O247 C239 1.224 . S
H248 C280 0.929 . S
H249 C282 0.930 . S
H250 C283 0.930 . S
H251 C281 0.929 . S
H252 C284 0.928 . S
O253 Co237 2.057 . S
O253 C241 1.232 . S
H254 C273 0.929 . S
H255 C274 0.929 . S
H256 C286 0.931 . S
H257 C278 0.929 . S
H258 C287 0.930 . S
H259 C279 0.931 . S
O260 Co236 2.097 . S
O260 C288 1.214 . S
H261 C289 0.929 . S
H262 C290 0.929 . S
H263 C291 0.930 . S
H264 C292 0.929 . S
H265 C294 0.930 . S
H266 C271 0.930 . S
H267 C275 0.930 . S
O268 Co237 2.037 . S
O268 C288 1.234 . S
C269 O243 1.269 . S
C269 O244 1.257 . S
C270 H245 0.930 . S
C270 C273 1.388 . S
C270 C275 1.418 . S
C271 H266 0.930 . S
C271 C274 1.404 . S
C271 C275 1.353 . S
N272 Co237 2.145 . S
N272 C273 1.397 . S
N272 C274 1.334 . S
C273 H254 0.929 . S
C273 C270 1.388 . S
C273 N272 1.397 . S
C274 H255 0.929 . S
C274 C271 1.404 . S
C274 N272 1.334 . S
C275 H267 0.930 . S
C275 C270 1.418 . S
C275 C271 1.353 . S
C276 H246 0.930 . S
C276 N277 1.330 . S
C276 C278 1.446 . S
N277 Co236 2.151 . S
N277 C276 1.330 . S
N277 C281 1.418 . S
C278 H257 0.929 . S
C278 C276 1.446 . S
C278 C279 1.332 . S
C279 H259 0.931 . S
C279 C278 1.332 . S
C279 C280 1.267 . S
C280 H248 0.929 . S
C280 C279 1.267 . S
C280 C281 1.251 . S
C281 H251 0.929 . S
C281 N277 1.418 . S
C281 C280 1.251 . S
C282 H249 0.930 . S
C282 C284 1.406 . S
C282 C287 1.261 . S
C283 H250 0.930 . S
C283 N285 1.325 . S
C283 C286 1.357 . S
C284 H252 0.928 . S
C284 C282 1.406 . S
C284 N285 1.261 . S
N285 Co236 2.214 . S
N285 C283 1.325 . S
N285 C284 1.261 . S
C286 H256 0.931 . S
C286 C283 1.357 . S
C286 C287 1.312 . S
C287 H258 0.930 . S
C287 C282 1.261 . S
C287 C286 1.312 . S
C288 O260 1.214 . S
C288 O268 1.234 . S
C289 H261 0.929 . S
C289 C292 1.391 . S
C289 C294 1.391 . S
C290 H262 0.929 . S
C290 C291 1.390 . S
C290 N293 1.391 . S
C291 H263 0.930 . S
C291 C290 1.390 . S
C291 C292 1.392 . S
C292 H264 0.929 . S
C292 C289 1.391 . S
C292 C291 1.392 . S
N293 Co237 2.257 . S
N293 C290 1.391 . S
N293 C294 1.388 . S
C294 H265 0.930 . S
C294 C289 1.391 . S
C294 N293 1.388 . S
Co295 O297 2.143 . S
Co295 O303 2.074 . S
Co295 O306 2.093 . S
Co295 O319 2.097 . S
Co295 N336 2.151 . S
Co295 N344 2.214 . S
Co296 O297 2.160 . S
Co296 O302 2.058 . S
Co296 O312 2.057 . S
Co296 O327 2.037 . S
Co296 N331 2.145 . S
Co296 N352 2.257 . S
O297 Co295 2.143 . S
O297 Co296 2.160 . S
C298 O299 1.278 . S
C298 O306 1.224 . S
O299 C298 1.278 . S
C300 O301 1.245 . S
C300 O312 1.232 . S
O301 C300 1.245 . S
O302 Co296 2.058 . S
O302 C328 1.269 . S
O303 Co295 2.074 . S
O303 C328 1.257 . S
H304 C329 0.930 . S
H305 C335 0.930 . S
O306 Co295 2.093 . S
O306 C298 1.224 . S
H307 C339 0.929 . S
H308 C341 0.930 . S
H309 C342 0.930 . S
H310 C340 0.929 . S
H311 C343 0.928 . S
O312 Co296 2.057 . S
O312 C300 1.232 . S
H313 C332 0.929 . S
H314 C333 0.929 . S
H315 C345 0.931 . S
H316 C337 0.929 . S
H317 C346 0.930 . S
H318 C338 0.931 . S
O319 Co295 2.097 . S
O319 C347 1.214 . S
H320 C348 0.929 . S
H321 C349 0.929 . S
H322 C350 0.930 . S
H323 C351 0.929 . S
H324 C353 0.930 . S
H325 C330 0.930 . S
H326 C334 0.930 . S
O327 Co296 2.037 . S
O327 C347 1.234 . S
C328 O302 1.269 . S
C328 O303 1.257 . S
C329 H304 0.930 . S
C329 C332 1.388 . S
C329 C334 1.418 . S
C330 H325 0.930 . S
C330 C333 1.404 . S
C330 C334 1.353 . S
N331 Co296 2.145 . S
N331 C332 1.397 . S
N331 C333 1.334 . S
C332 H313 0.929 . S
C332 C329 1.388 . S
C332 N331 1.397 . S
C333 H314 0.929 . S
C333 C330 1.404 . S
C333 N331 1.334 . S
C334 H326 0.930 . S
C334 C329 1.418 . S
C334 C330 1.353 . S
C335 H305 0.930 . S
C335 N336 1.330 . S
C335 C337 1.446 . S
N336 Co295 2.151 . S
N336 C335 1.330 . S
N336 C340 1.418 . S
C337 H316 0.929 . S
C337 C335 1.446 . S
C337 C338 1.332 . S
C338 H318 0.931 . S
C338 C337 1.332 . S
C338 C339 1.267 . S
C339 H307 0.929 . S
C339 C338 1.267 . S
C339 C340 1.251 . S
C340 H310 0.929 . S
C340 N336 1.418 . S
C340 C339 1.251 . S
C341 H308 0.930 . S
C341 C343 1.406 . S
C341 C346 1.261 . S
C342 H309 0.930 . S
C342 N344 1.325 . S
C342 C345 1.357 . S
C343 H311 0.928 . S
C343 C341 1.406 . S
C343 N344 1.261 . S
N344 Co295 2.214 . S
N344 C342 1.325 . S
N344 C343 1.261 . S
C345 H315 0.931 . S
C345 C342 1.357 . S
C345 C346 1.312 . S
C346 H317 0.930 . S
C346 C341 1.261 . S
C346 C345 1.312 . S
C347 O319 1.214 . S
C347 O327 1.234 . S
C348 H320 0.929 . S
C348 C351 1.391 . S
C348 C353 1.391 . S
C349 H321 0.929 . S
C349 C350 1.390 . S
C349 N352 1.391 . S
C350 H322 0.930 . S
C350 C349 1.390 . S
C350 C351 1.392 . S
C351 H323 0.929 . S
C351 C348 1.391 . S
C351 C350 1.392 . S
N352 Co296 2.257 . S
N352 C349 1.391 . S
N352 C353 1.388 . S
C353 H324 0.930 . S
C353 C348 1.391 . S
C353 N352 1.388 . S
Co354 O356 2.143 . S
Co354 O362 2.074 . S
Co354 O365 2.093 . S
Co354 O378 2.097 . S
Co354 N395 2.151 . S
Co354 N403 2.214 . S
Co355 O356 2.160 . S
Co355 O361 2.058 . S
Co355 O371 2.057 . S
Co355 O386 2.037 . S
Co355 N390 2.145 . S
Co355 N411 2.257 . S
O356 Co354 2.143 . S
O356 Co355 2.160 . S
C357 O358 1.278 . S
C357 O365 1.224 . S
O358 C357 1.278 . S
C359 O360 1.245 . S
C359 O371 1.232 . S
O360 C359 1.245 . S
O361 Co355 2.058 . S
O361 C387 1.269 . S
O362 Co354 2.074 . S
O362 C387 1.257 . S
H363 C388 0.930 . S
H364 C394 0.930 . S
O365 Co354 2.093 . S
O365 C357 1.224 . S
H366 C398 0.929 . S
H367 C400 0.930 . S
H368 C401 0.930 . S
H369 C399 0.929 . S
H370 C402 0.928 . S
O371 Co355 2.057 . S
O371 C359 1.232 . S
H372 C391 0.929 . S
H373 C392 0.929 . S
H374 C404 0.931 . S
H375 C396 0.929 . S
H376 C405 0.930 . S
H377 C397 0.931 . S
O378 Co354 2.097 . S
O378 C406 1.214 . S
H379 C407 0.929 . S
H380 C408 0.929 . S
H381 C409 0.930 . S
H382 C410 0.929 . S
H383 C412 0.930 . S
H384 C389 0.930 . S
H385 C393 0.930 . S
O386 Co355 2.037 . S
O386 C406 1.234 . S
C387 O361 1.269 . S
C387 O362 1.257 . S
C388 H363 0.930 . S
C388 C391 1.388 . S
C388 C393 1.418 . S
C389 H384 0.930 . S
C389 C392 1.404 . S
C389 C393 1.353 . S
N390 Co355 2.145 . S
N390 C391 1.397 . S
N390 C392 1.334 . S
C391 H372 0.929 . S
C391 C388 1.388 . S
C391 N390 1.397 . S
C392 H373 0.929 . S
C392 C389 1.404 . S
C392 N390 1.334 . S
C393 H385 0.930 . S
C393 C388 1.418 . S
C393 C389 1.353 . S
C394 H364 0.930 . S
C394 N395 1.330 . S
C394 C396 1.446 . S
N395 Co354 2.151 . S
N395 C394 1.330 . S
N395 C399 1.418 . S
C396 H375 0.929 . S
C396 C394 1.446 . S
C396 C397 1.332 . S
C397 H377 0.931 . S
C397 C396 1.332 . S
C397 C398 1.267 . S
C398 H366 0.929 . S
C398 C397 1.267 . S
C398 C399 1.251 . S
C399 H369 0.929 . S
C399 N395 1.418 . S
C399 C398 1.251 . S
C400 H367 0.930 . S
C400 C402 1.406 . S
C400 C405 1.261 . S
C401 H368 0.930 . S
C401 N403 1.325 . S
C401 C404 1.357 . S
C402 H370 0.928 . S
C402 C400 1.406 . S
C402 N403 1.261 . S
N403 Co354 2.214 . S
N403 C401 1.325 . S
N403 C402 1.261 . S
C404 H374 0.931 . S
C404 C401 1.357 . S
C404 C405 1.312 . S
C405 H376 0.930 . S
C405 C400 1.261 . S
C405 C404 1.312 . S
C406 O378 1.214 . S
C406 O386 1.234 . S
C407 H379 0.929 . S
C407 C410 1.391 . S
C407 C412 1.391 . S
C408 H380 0.929 . S
C408 C409 1.390 . S
C408 N411 1.391 . S
C409 H381 0.930 . S
C409 C408 1.390 . S
C409 C410 1.392 . S
C410 H382 0.929 . S
C410 C407 1.391 . S
C410 C409 1.392 . S
N411 Co355 2.257 . S
N411 C408 1.391 . S
N411 C412 1.388 . S
C412 H383 0.930 . S
C412 C407 1.391 . S
C412 N411 1.388 . S
Co413 O415 2.143 . S
Co413 O421 2.074 1_554 S
Co413 O424 2.093 . S
Co413 O437 2.097 . S
Co413 N454 2.151 . S
Co413 N462 2.214 . S
Co414 O415 2.160 . S
Co414 O420 2.058 1_554 S
Co414 O430 2.057 . S
Co414 O445 2.037 . S
Co414 N449 2.145 1_554 S
Co414 N470 2.257 . S
O415 Co413 2.143 . S
O415 Co414 2.160 . S
C416 O417 1.278 . S
C416 O424 1.224 . S
O417 C416 1.278 . S
C418 O419 1.245 . S
C418 O430 1.232 . S
O419 C418 1.245 . S
O420 Co414 2.058 1_556 S
O420 C446 1.269 . S
O421 Co413 2.074 1_556 S
O421 C446 1.257 . S
H422 C447 0.930 . S
H423 C453 0.930 . S
O424 Co413 2.093 . S
O424 C416 1.224 . S
H425 C457 0.929 . S
H426 C459 0.930 . S
H427 C460 0.930 . S
H428 C458 0.929 . S
H429 C461 0.928 . S
O430 Co414 2.057 . S
O430 C418 1.232 . S
H431 C450 0.929 . S
H432 C451 0.929 . S
H433 C463 0.931 . S
H434 C455 0.929 . S
H435 C464 0.930 . S
H436 C456 0.931 . S
O437 Co413 2.097 . S
O437 C465 1.214 . S
H438 C466 0.929 . S
H439 C467 0.929 . S
H440 C468 0.930 . S
H441 C469 0.929 . S
H442 C471 0.930 . S
H443 C448 0.930 . S
H444 C452 0.930 . S
O445 Co414 2.037 . S
O445 C465 1.234 . S
C446 O420 1.269 . S
C446 O421 1.257 . S
C447 H422 0.930 . S
C447 C450 1.388 . S
C447 C452 1.418 . S
C448 H443 0.930 . S
C448 C451 1.404 . S
C448 C452 1.353 . S
N449 Co414 2.145 1_556 S
N449 C450 1.397 . S
N449 C451 1.334 . S
C450 H431 0.929 . S
C450 C447 1.388 . S
C450 N449 1.397 . S
C451 H432 0.929 . S
C451 C448 1.404 . S
C451 N449 1.334 . S
C452 H444 0.930 . S
C452 C447 1.418 . S
C452 C448 1.353 . S
C453 H423 0.930 . S
C453 N454 1.330 . S
C453 C455 1.446 . S
N454 Co413 2.151 . S
N454 C453 1.330 . S
N454 C458 1.418 . S
C455 H434 0.929 . S
C455 C453 1.446 . S
C455 C456 1.332 . S
C456 H436 0.931 . S
C456 C455 1.332 . S
C456 C457 1.267 . S
C457 H425 0.929 . S
C457 C456 1.267 . S
C457 C458 1.251 . S
C458 H428 0.929 . S
C458 N454 1.418 . S
C458 C457 1.251 . S
C459 H426 0.930 . S
C459 C461 1.406 . S
C459 C464 1.261 . S
C460 H427 0.930 . S
C460 N462 1.325 . S
C460 C463 1.357 . S
C461 H429 0.928 . S
C461 C459 1.406 . S
C461 N462 1.261 . S
N462 Co413 2.214 . S
N462 C460 1.325 . S
N462 C461 1.261 . S
C463 H433 0.931 . S
C463 C460 1.357 . S
C463 C464 1.312 . S
C464 H435 0.930 . S
C464 C459 1.261 . S
C464 C463 1.312 . S
C465 O437 1.214 . S
C465 O445 1.234 . S
C466 H438 0.929 . S
C466 C469 1.391 . S
C466 C471 1.391 . S
C467 H439 0.929 . S
C467 C468 1.390 . S
C467 N470 1.391 . S
C468 H440 0.930 . S
C468 C467 1.390 . S
C468 C469 1.392 . S
C469 H441 0.929 . S
C469 C466 1.391 . S
C469 C468 1.392 . S
N470 Co414 2.257 . S
N470 C467 1.391 . S
N470 C471 1.388 . S
C471 H442 0.930 . S
C471 C466 1.391 . S
C471 N470 1.388 . S
H472 C490 0.951 . S
H473 C492 0.951 . S
H474 C494 0.950 . S
H475 C495 0.950 . S
H476 C497 0.950 . S
H477 C500 0.950 . S
H478 C501 0.950 . S
H479 C503 0.950 . S
H480 C504 0.950 . S
H481 C505 0.951 . S
H482 C507 0.951 . S
H483 C509 0.950 . S
H484 C510 0.950 . S
H485 C512 0.950 . S
H486 C515 0.950 . S
H487 C516 0.950 . S
H488 C518 0.950 . S
H489 C519 0.950 . S
C490 H472 0.951 . S
C490 C491 1.366 . S
C490 C492 1.388 . S
C491 C490 1.366 . S
C491 C495 1.385 . S
C492 H473 0.951 . S
C492 C490 1.388 . S
C492 C493 1.366 . S
C493 C492 1.366 . S
C493 C494 1.414 . S
C493 C496 1.499 . S
C494 H474 0.950 . S
C494 C493 1.414 . S
C494 C495 1.374 . S
C495 H475 0.950 . S
C495 C491 1.385 . S
C495 C494 1.374 . S
C496 C493 1.499 . S
C496 C497 1.373 . S
C496 C498 1.389 . S
C497 H476 0.950 . S
C497 C496 1.373 . S
C497 C513 1.377 . S
C498 C496 1.389 . S
C498 C499 1.524 . S
C498 C512 1.377 . S
C499 C498 1.524 . S
C499 C500 1.397 . S
C499 C504 1.363 . S
C500 H477 0.950 . S
C500 C499 1.397 . S
C500 C501 1.334 . S
C501 H478 0.950 . S
C501 C500 1.334 . S
C501 C502 1.287 . S
C502 C501 1.287 . S
C502 C503 1.524 . S
C502 H521 0.913 . S
C503 H479 0.950 . S
C503 C502 1.524 . S
C503 C504 1.415 . S
C504 H480 0.950 . S
C504 C499 1.363 . S
C504 C503 1.415 . S
C505 H481 0.951 . S
C505 C506 1.366 . S
C505 C507 1.388 . S
C506 C505 1.366 . S
C506 C510 1.385 . S
C507 H482 0.951 . S
C507 C505 1.388 . S
C507 C508 1.366 . S
C508 C507 1.366 . S
C508 C509 1.414 . S
C508 C511 1.499 . S
C509 H483 0.950 . S
C509 C508 1.414 . S
C509 C510 1.374 . S
C510 H484 0.950 . S
C510 C506 1.385 . S
C510 C509 1.374 . S
C511 C508 1.499 . S
C511 C512 1.373 . S
C511 C513 1.389 . S
C512 H485 0.950 . S
C512 C498 1.377 . S
C512 C511 1.373 . S
C513 C497 1.377 . S
C513 C511 1.389 . S
C513 C514 1.524 . S
C514 C513 1.524 . S
C514 C515 1.397 . S
C514 C519 1.363 . S
C515 H486 0.950 . S
C515 C514 1.397 . S
C515 C516 1.334 . S
C516 H487 0.950 . S
C516 C515 1.334 . S
C516 C517 1.287 . S
C517 C516 1.287 . S
C517 C518 1.524 . S
C517 H520 0.999 . S
C518 H488 0.950 . S
C518 C517 1.524 . S
C518 C519 1.415 . S
C519 H489 0.950 . S
C519 C514 1.363 . S
C519 C518 1.415 . S
H520 C517 0.999 . S
H521 C502 0.913 . S
H522 C540 0.951 . S
H523 C542 0.951 . S
H524 C544 0.950 . S
H525 C545 0.950 . S
H526 C547 0.950 . S
H527 C550 0.950 . S
H528 C551 0.950 . S
H529 C553 0.950 . S
H530 C554 0.950 . S
H531 C555 0.951 . S
H532 C557 0.951 . S
H533 C559 0.950 . S
H534 C560 0.950 . S
H535 C562 0.950 . S
H536 C565 0.950 . S
H537 C566 0.950 . S
H538 C568 0.950 . S
H539 C569 0.950 . S
C540 H522 0.951 . S
C540 C541 1.366 . S
C540 C542 1.388 . S
C541 C540 1.366 . S
C541 C545 1.385 . S
C542 H523 0.951 . S
C542 C540 1.388 . S
C542 C543 1.366 . S
C543 C542 1.366 . S
C543 C544 1.414 . S
C543 C546 1.499 . S
C544 H524 0.950 . S
C544 C543 1.414 . S
C544 C545 1.374 . S
C545 H525 0.950 . S
C545 C541 1.385 . S
C545 C544 1.374 . S
C546 C543 1.499 . S
C546 C547 1.373 . S
C546 C548 1.389 . S
C547 H526 0.950 . S
C547 C546 1.373 . S
C547 C563 1.377 . S
C548 C546 1.389 . S
C548 C549 1.524 . S
C548 C562 1.377 . S
C549 C548 1.524 . S
C549 C550 1.397 . S
C549 C554 1.363 . S
C550 H527 0.950 . S
C550 C549 1.397 . S
C550 C551 1.334 . S
C551 H528 0.950 . S
C551 C550 1.334 . S
C551 C552 1.287 . S
C552 C551 1.287 . S
C552 C553 1.524 . S
C552 H571 0.913 . S
C553 H529 0.950 . S
C553 C552 1.524 . S
C553 C554 1.415 . S
C554 H530 0.950 . S
C554 C549 1.363 . S
C554 C553 1.415 . S
C555 H531 0.951 . S
C555 C556 1.366 . S
C555 C557 1.388 . S
C556 C555 1.366 . S
C556 C560 1.385 . S
C557 H532 0.951 . S
C557 C555 1.388 . S
C557 C558 1.366 . S
C558 C557 1.366 . S
C558 C559 1.414 . S
C558 C561 1.499 . S
C559 H533 0.950 . S
C559 C558 1.414 . S
C559 C560 1.374 . S
C560 H534 0.950 . S
C560 C556 1.385 . S
C560 C559 1.374 . S
C561 C558 1.499 . S
C561 C562 1.373 . S
C561 C563 1.389 . S
C562 H535 0.950 . S
C562 C548 1.377 . S
C562 C561 1.373 . S
C563 C547 1.377 . S
C563 C561 1.389 . S
C563 C564 1.524 . S
C564 C563 1.524 . S
C564 C565 1.397 . S
C564 C569 1.363 . S
C565 H536 0.950 . S
C565 C564 1.397 . S
C565 C566 1.334 . S
C566 H537 0.950 . S
C566 C565 1.334 . S
C566 C567 1.287 . S
C567 C566 1.287 . S
C567 C568 1.524 . S
C567 H570 0.999 . S
C568 H538 0.950 . S
C568 C567 1.524 . S
C568 C569 1.415 . S
C569 H539 0.950 . S
C569 C564 1.363 . S
C569 C568 1.415 . S
H570 C567 0.999 . S
H571 C552 0.913 . S
H572 C590 0.951 . S
H573 C592 0.951 . S
H574 C594 0.950 . S
H575 C595 0.950 . S
H576 C597 0.950 . S
H577 C600 0.950 . S
H578 C601 0.950 . S
H579 C603 0.950 . S
H580 C604 0.950 . S
H581 C605 0.951 . S
H582 C607 0.951 . S
H583 C609 0.950 . S
H584 C610 0.950 . S
H585 C612 0.950 . S
H586 C615 0.950 . S
H587 C616 0.950 . S
H588 C618 0.950 . S
H589 C619 0.950 . S
C590 H572 0.951 . S
C590 C591 1.366 . S
C590 C592 1.388 . S
C591 C590 1.366 . S
C591 C595 1.385 . S
C592 H573 0.951 . S
C592 C590 1.388 . S
C592 C593 1.366 . S
C593 C592 1.366 . S
C593 C594 1.414 . S
C593 C596 1.499 . S
C594 H574 0.950 . S
C594 C593 1.414 . S
C594 C595 1.374 . S
C595 H575 0.950 . S
C595 C591 1.385 . S
C595 C594 1.374 . S
C596 C593 1.499 . S
C596 C597 1.373 . S
C596 C598 1.389 . S
C597 H576 0.950 . S
C597 C596 1.373 . S
C597 C613 1.377 . S
C598 C596 1.389 . S
C598 C599 1.524 . S
C598 C612 1.377 . S
C599 C598 1.524 . S
C599 C600 1.397 . S
C599 C604 1.363 . S
C600 H577 0.950 . S
C600 C599 1.397 . S
C600 C601 1.334 . S
C601 H578 0.950 . S
C601 C600 1.334 . S
C601 C602 1.287 . S
C602 C601 1.287 . S
C602 C603 1.524 . S
C602 H621 0.913 . S
C603 H579 0.950 . S
C603 C602 1.524 . S
C603 C604 1.415 . S
C604 H580 0.950 . S
C604 C599 1.363 . S
C604 C603 1.415 . S
C605 H581 0.951 . S
C605 C606 1.366 . S
C605 C607 1.388 . S
C606 C605 1.366 . S
C606 C610 1.385 . S
C607 H582 0.951 . S
C607 C605 1.388 . S
C607 C608 1.366 . S
C608 C607 1.366 . S
C608 C609 1.414 . S
C608 C611 1.499 1_556 S
C609 H583 0.950 . S
C609 C608 1.414 . S
C609 C610 1.374 . S
C610 H584 0.950 . S
C610 C606 1.385 . S
C610 C609 1.374 . S
C611 C608 1.499 1_554 S
C611 C612 1.373 . S
C611 C613 1.389 . S
C612 H585 0.950 . S
C612 C598 1.377 . S
C612 C611 1.373 . S
C613 C597 1.377 . S
C613 C611 1.389 . S
C613 C614 1.524 . S
C614 C613 1.524 . S
C614 C615 1.397 . S
C614 C619 1.363 . S
C615 H586 0.950 . S
C615 C614 1.397 . S
C615 C616 1.334 . S
C616 H587 0.950 . S
C616 C615 1.334 . S
C616 C617 1.287 . S
C617 C616 1.287 . S
C617 C618 1.524 . S
C617 H620 0.999 . S
C618 H588 0.950 . S
C618 C617 1.524 . S
C618 C619 1.415 . S
C619 H589 0.950 . S
C619 C614 1.363 . S
C619 C618 1.415 . S
H620 C617 0.999 . S
H621 C602 0.913 . S
H622 C640 0.951 . S
H623 C642 0.951 . S
H624 C644 0.950 . S
H625 C645 0.950 . S
H626 C647 0.950 . S
H627 C650 0.950 . S
H628 C651 0.950 . S
H629 C653 0.950 . S
H630 C654 0.950 . S
H631 C655 0.951 . S
H632 C657 0.951 . S
H633 C659 0.950 . S
H634 C660 0.950 . S
H635 C662 0.950 . S
H636 C665 0.950 . S
H637 C666 0.950 . S
H638 C668 0.950 . S
H639 C669 0.950 . S
C640 H622 0.951 . S
C640 C641 1.366 . S
C640 C642 1.388 . S
C641 C640 1.366 . S
C641 C645 1.385 . S
C642 H623 0.951 . S
C642 C640 1.388 . S
C642 C643 1.366 . S
C643 C642 1.366 . S
C643 C644 1.414 . S
C643 C646 1.499 . S
C644 H624 0.950 . S
C644 C643 1.414 . S
C644 C645 1.374 . S
C645 H625 0.950 . S
C645 C641 1.385 . S
C645 C644 1.374 . S
C646 C643 1.499 . S
C646 C647 1.373 . S
C646 C648 1.389 . S
C647 H626 0.950 . S
C647 C646 1.373 . S
C647 C663 1.377 . S
C648 C646 1.389 . S
C648 C649 1.524 . S
C648 C662 1.377 . S
C649 C648 1.524 . S
C649 C650 1.397 . S
C649 C654 1.363 . S
C650 H627 0.950 . S
C650 C649 1.397 . S
C650 C651 1.334 . S
C651 H628 0.950 . S
C651 C650 1.334 . S
C651 C652 1.287 . S
C652 C651 1.287 . S
C652 C653 1.524 . S
C652 H671 0.913 . S
C653 H629 0.950 . S
C653 C652 1.524 . S
C653 C654 1.415 . S
C654 H630 0.950 . S
C654 C649 1.363 . S
C654 C653 1.415 . S
C655 H631 0.951 . S
C655 C656 1.366 . S
C655 C657 1.388 . S
C656 C655 1.366 . S
C656 C660 1.385 . S
C657 H632 0.951 . S
C657 C655 1.388 . S
C657 C658 1.366 . S
C658 C657 1.366 . S
C658 C659 1.414 . S
C658 C661 1.499 . S
C659 H633 0.950 . S
C659 C658 1.414 . S
C659 C660 1.374 . S
C660 H634 0.950 . S
C660 C656 1.385 . S
C660 C659 1.374 . S
C661 C658 1.499 . S
C661 C662 1.373 . S
C661 C663 1.389 . S
C662 H635 0.950 . S
C662 C648 1.377 . S
C662 C661 1.373 . S
C663 C647 1.377 . S
C663 C661 1.389 . S
C663 C664 1.524 . S
C664 C663 1.524 . S
C664 C665 1.397 . S
C664 C669 1.363 . S
C665 H636 0.950 . S
C665 C664 1.397 . S
C665 C666 1.334 . S
C666 H637 0.950 . S
C666 C665 1.334 . S
C666 C667 1.287 . S
C667 C666 1.287 . S
C667 C668 1.524 . S
C667 H670 0.999 . S
C668 H638 0.950 . S
C668 C667 1.524 . S
C668 C669 1.415 . S
C669 H639 0.950 . S
C669 C664 1.363 . S
C669 C668 1.415 . S
H670 C667 0.999 . S
H671 C652 0.913 . S
H672 C690 0.951 . S
H673 C692 0.951 . S
H674 C694 0.950 . S
H675 C695 0.950 . S
H676 C697 0.950 . S
H677 C700 0.950 . S
H678 C701 0.950 . S
H679 C703 0.950 . S
H680 C704 0.950 . S
H681 C705 0.951 . S
H682 C707 0.951 . S
H683 C709 0.950 . S
H684 C710 0.950 . S
H685 C712 0.950 . S
H686 C715 0.950 . S
H687 C716 0.950 . S
H688 C718 0.950 . S
H689 C719 0.950 . S
C690 H672 0.951 . S
C690 C691 1.366 . S
C690 C692 1.388 . S
C691 C690 1.366 . S
C691 C695 1.385 . S
C692 H673 0.951 . S
C692 C690 1.388 . S
C692 C693 1.366 . S
C693 C692 1.366 . S
C693 C694 1.414 . S
C693 C696 1.499 . S
C694 H674 0.950 . S
C694 C693 1.414 . S
C694 C695 1.374 . S
C695 H675 0.950 . S
C695 C691 1.385 . S
C695 C694 1.374 . S
C696 C693 1.499 . S
C696 C697 1.373 . S
C696 C698 1.389 . S
C697 H676 0.950 . S
C697 C696 1.373 . S
C697 C713 1.377 . S
C698 C696 1.389 . S
C698 C699 1.524 . S
C698 C712 1.377 . S
C699 C698 1.524 . S
C699 C700 1.397 . S
C699 C704 1.363 . S
C700 H677 0.950 . S
C700 C699 1.397 . S
C700 C701 1.334 . S
C701 H678 0.950 . S
C701 C700 1.334 . S
C701 C702 1.287 . S
C702 C701 1.287 . S
C702 C703 1.524 . S
C702 H721 0.913 . S
C703 H679 0.950 . S
C703 C702 1.524 . S
C703 C704 1.415 . S
C704 H680 0.950 . S
C704 C699 1.363 . S
C704 C703 1.415 . S
C705 H681 0.951 . S
C705 C706 1.366 . S
C705 C707 1.388 . S
C706 C705 1.366 . S
C706 C710 1.385 . S
C707 H682 0.951 . S
C707 C705 1.388 . S
C707 C708 1.366 . S
C708 C707 1.366 . S
C708 C709 1.414 . S
C708 C711 1.499 . S
C709 H683 0.950 . S
C709 C708 1.414 . S
C709 C710 1.374 . S
C710 H684 0.950 . S
C710 C706 1.385 . S
C710 C709 1.374 . S
C711 C708 1.499 . S
C711 C712 1.373 . S
C711 C713 1.389 . S
C712 H685 0.950 . S
C712 C698 1.377 . S
C712 C711 1.373 . S
C713 C697 1.377 . S
C713 C711 1.389 . S
C713 C714 1.524 . S
C714 C713 1.524 . S
C714 C715 1.397 . S
C714 C719 1.363 . S
C715 H686 0.950 . S
C715 C714 1.397 . S
C715 C716 1.334 . S
C716 H687 0.950 . S
C716 C715 1.334 . S
C716 C717 1.287 . S
C717 C716 1.287 . S
C717 C718 1.524 . S
C717 H720 0.999 . S
C718 H688 0.950 . S
C718 C717 1.524 . S
C718 C719 1.415 . S
C719 H689 0.950 . S
C719 C714 1.363 . S
C719 C718 1.415 . S
H720 C717 0.999 . S
H721 C702 0.913 . S
H722 C740 0.951 . S
H723 C742 0.951 . S
H724 C744 0.950 . S
H725 C745 0.950 . S
H726 C747 0.950 . S
H727 C750 0.950 . S
H728 C751 0.950 . S
H729 C753 0.950 . S
H730 C754 0.950 . S
H731 C755 0.951 . S
H732 C757 0.951 . S
H733 C759 0.950 . S
H734 C760 0.950 . S
H735 C762 0.950 . S
H736 C765 0.950 . S
H737 C766 0.950 . S
H738 C768 0.950 . S
H739 C769 0.950 . S
C740 H722 0.951 . S
C740 C741 1.366 . S
C740 C742 1.388 . S
C741 C740 1.366 . S
C741 C745 1.385 . S
C742 H723 0.951 . S
C742 C740 1.388 . S
C742 C743 1.366 . S
C743 C742 1.366 . S
C743 C744 1.414 . S
C743 C746 1.499 . S
C744 H724 0.950 . S
C744 C743 1.414 . S
C744 C745 1.374 . S
C745 H725 0.950 . S
C745 C741 1.385 . S
C745 C744 1.374 . S
C746 C743 1.499 . S
C746 C747 1.373 . S
C746 C748 1.389 . S
C747 H726 0.950 . S
C747 C746 1.373 . S
C747 C763 1.377 . S
C748 C746 1.389 . S
C748 C749 1.524 . S
C748 C762 1.377 . S
C749 C748 1.524 . S
C749 C750 1.397 . S
C749 C754 1.363 . S
C750 H727 0.950 . S
C750 C749 1.397 . S
C750 C751 1.334 . S
C751 H728 0.950 . S
C751 C750 1.334 . S
C751 C752 1.287 . S
C752 C751 1.287 . S
C752 C753 1.524 . S
C752 H771 0.913 . S
C753 H729 0.950 . S
C753 C752 1.524 . S
C753 C754 1.415 . S
C754 H730 0.950 . S
C754 C749 1.363 . S
C754 C753 1.415 . S
C755 H731 0.951 . S
C755 C756 1.366 . S
C755 C757 1.388 . S
C756 C755 1.366 . S
C756 C760 1.385 . S
C757 H732 0.951 . S
C757 C755 1.388 . S
C757 C758 1.366 . S
C758 C757 1.366 . S
C758 C759 1.414 . S
C758 C761 1.499 . S
C759 H733 0.950 . S
C759 C758 1.414 . S
C759 C760 1.374 . S
C760 H734 0.950 . S
C760 C756 1.385 . S
C760 C759 1.374 . S
C761 C758 1.499 . S
C761 C762 1.373 . S
C761 C763 1.389 . S
C762 H735 0.950 . S
C762 C748 1.377 . S
C762 C761 1.373 . S
C763 C747 1.377 . S
C763 C761 1.389 . S
C763 C764 1.524 . S
C764 C763 1.524 . S
C764 C765 1.397 . S
C764 C769 1.363 . S
C765 H736 0.950 . S
C765 C764 1.397 . S
C765 C766 1.334 . S
C766 H737 0.950 . S
C766 C765 1.334 . S
C766 C767 1.287 . S
C767 C766 1.287 . S
C767 C768 1.524 . S
C767 H770 0.999 . S
C768 H738 0.950 . S
C768 C767 1.524 . S
C768 C769 1.415 . S
C769 H739 0.950 . S
C769 C764 1.363 . S
C769 C768 1.415 . S
H770 C767 0.999 . S
H771 C752 0.913 . S
H772 C790 0.951 . S
H773 C792 0.951 . S
H774 C794 0.950 . S
H775 C795 0.950 . S
H776 C797 0.950 . S
H777 C800 0.950 . S
H778 C801 0.950 . S
H779 C803 0.950 . S
H780 C804 0.950 . S
H781 C805 0.951 . S
H782 C807 0.951 . S
H783 C809 0.950 . S
H784 C810 0.950 . S
H785 C812 0.950 . S
H786 C815 0.950 . S
H787 C816 0.950 . S
H788 C818 0.950 . S
H789 C819 0.950 . S
C790 H772 0.951 . S
C790 C791 1.361 1_556 S
C790 C792 1.388 . S
C791 C790 1.361 1_554 S
C791 C795 1.385 . S
C792 H773 0.951 . S
C792 C790 1.388 . S
C792 C793 1.366 . S
C793 C792 1.366 . S
C793 C794 1.414 . S
C793 C796 1.499 . S
C794 H774 0.950 . S
C794 C793 1.414 . S
C794 C795 1.374 1_556 S
C795 H775 0.950 . S
C795 C791 1.385 . S
C795 C794 1.374 1_554 S
C796 C793 1.499 . S
C796 C797 1.373 . S
C796 C798 1.389 . S
C797 H776 0.950 . S
C797 C796 1.373 . S
C797 C813 1.377 . S
C798 C796 1.389 . S
C798 C799 1.524 . S
C798 C812 1.377 . S
C799 C798 1.524 . S
C799 C800 1.397 1_556 S
C799 C804 1.363 . S
C800 H777 0.950 . S
C800 C799 1.397 1_554 S
C800 C801 1.334 . S
C801 H778 0.950 . S
C801 C800 1.334 . S
C801 C802 1.287 . S
C802 C801 1.287 . S
C802 C803 1.524 1_554 S
C802 H821 0.913 . S
C803 H779 0.950 . S
C803 C802 1.524 1_556 S
C803 C804 1.415 . S
C804 H780 0.950 . S
C804 C799 1.363 . S
C804 C803 1.415 . S
C805 H781 0.951 . S
C805 C806 1.366 . S
C805 C807 1.388 . S
C806 C805 1.366 . S
C806 C810 1.385 . S
C807 H782 0.951 . S
C807 C805 1.388 . S
C807 C808 1.366 . S
C808 C807 1.366 . S
C808 C809 1.414 . S
C808 C811 1.499 . S
C809 H783 0.950 . S
C809 C808 1.414 . S
C809 C810 1.374 . S
C810 H784 0.950 . S
C810 C806 1.385 . S
C810 C809 1.374 . S
C811 C808 1.499 . S
C811 C812 1.373 . S
C811 C813 1.389 . S
C812 H785 0.950 . S
C812 C798 1.377 . S
C812 C811 1.373 . S
C813 C797 1.377 . S
C813 C811 1.389 . S
C813 C814 1.524 . S
C814 C813 1.524 . S
C814 C815 1.397 . S
C814 C819 1.363 . S
C815 H786 0.950 . S
C815 C814 1.397 . S
C815 C816 1.334 . S
C816 H787 0.950 . S
C816 C815 1.334 . S
C816 C817 1.287 . S
C817 C816 1.287 . S
C817 C818 1.524 . S
C817 H820 0.999 . S
C818 H788 0.950 . S
C818 C817 1.524 . S
C818 C819 1.415 . S
C819 H789 0.950 . S
C819 C814 1.363 . S
C819 C818 1.415 . S
H820 C817 0.999 . S
H821 C802 0.913 . S
H822 C840 0.951 . S
H823 C842 0.951 . S
H824 C844 0.950 . S
H825 C845 0.950 . S
H826 C847 0.950 . S
H827 C850 0.950 . S
H828 C851 0.950 . S
H829 C853 0.950 . S
H830 C854 0.950 . S
H831 C855 0.951 . S
H832 C857 0.951 . S
H833 C859 0.950 . S
H834 C860 0.950 . S
H835 C862 0.950 . S
H836 C865 0.950 . S
H837 C866 0.950 . S
H838 C868 0.950 . S
H839 C869 0.950 . S
C840 H822 0.951 . S
C840 C841 1.366 . S
C840 C842 1.388 . S
C841 C840 1.366 . S
C841 C845 1.385 . S
C842 H823 0.951 . S
C842 C840 1.388 . S
C842 C843 1.366 . S
C843 C842 1.366 . S
C843 C844 1.414 . S
C843 C846 1.499 . S
C844 H824 0.950 . S
C844 C843 1.414 . S
C844 C845 1.374 . S
C845 H825 0.950 . S
C845 C841 1.385 . S
C845 C844 1.374 . S
C846 C843 1.499 . S
C846 C847 1.373 . S
C846 C848 1.389 . S
C847 H826 0.950 . S
C847 C846 1.373 . S
C847 C863 1.377 . S
C848 C846 1.389 . S
C848 C849 1.524 . S
C848 C862 1.377 . S
C849 C848 1.524 . S
C849 C850 1.397 . S
C849 C854 1.363 . S
C850 H827 0.950 . S
C850 C849 1.397 . S
C850 C851 1.334 . S
C851 H828 0.950 . S
C851 C850 1.334 . S
C851 C852 1.287 . S
C852 C851 1.287 . S
C852 C853 1.524 . S
C852 H871 0.913 . S
C853 H829 0.950 . S
C853 C852 1.524 . S
C853 C854 1.415 . S
C854 H830 0.950 . S
C854 C849 1.363 . S
C854 C853 1.415 . S
C855 H831 0.951 . S
C855 C856 1.366 . S
C855 C857 1.388 . S
C856 C855 1.366 . S
C856 C860 1.385 . S
C857 H832 0.951 . S
C857 C855 1.388 . S
C857 C858 1.366 . S
C858 C857 1.366 . S
C858 C859 1.414 . S
C858 C861 1.499 . S
C859 H833 0.950 . S
C859 C858 1.414 . S
C859 C860 1.374 . S
C860 H834 0.950 . S
C860 C856 1.385 . S
C860 C859 1.374 . S
C861 C858 1.499 . S
C861 C862 1.373 . S
C861 C863 1.389 . S
C862 H835 0.950 . S
C862 C848 1.377 . S
C862 C861 1.373 . S
C863 C847 1.377 . S
C863 C861 1.389 . S
C863 C864 1.524 . S
C864 C863 1.524 . S
C864 C865 1.397 . S
C864 C869 1.363 . S
C865 H836 0.950 . S
C865 C864 1.397 . S
C865 C866 1.334 . S
C866 H837 0.950 . S
C866 C865 1.334 . S
C866 C867 1.287 . S
C867 C866 1.287 . S
C867 C868 1.524 . S
C867 H870 0.999 . S
C868 H838 0.950 . S
C868 C867 1.524 . S
C868 C869 1.415 . S
C869 H839 0.950 . S
C869 C864 1.363 . S
C869 C868 1.415 . S
H870 C867 0.999 . S
H871 C852 0.913 . S
H872 C890 0.951 . S
H873 C892 0.951 . S
H874 C894 0.950 . S
H875 C895 0.950 . S
H876 C897 0.950 . S
H877 C900 0.950 . S
H878 C901 0.950 . S
H879 C903 0.950 . S
H880 C904 0.950 . S
H881 C905 0.951 . S
H882 C907 0.951 . S
H883 C909 0.950 . S
H884 C910 0.950 . S
H885 C912 0.950 . S
H886 C915 0.950 . S
H887 C916 0.950 . S
H888 C918 0.950 . S
H889 C919 0.950 . S
C890 H872 0.951 . S
C890 C891 1.366 . S
C890 C892 1.388 . S
C891 C890 1.366 . S
C891 C895 1.385 . S
C892 H873 0.951 . S
C892 C890 1.388 . S
C892 C893 1.366 . S
C893 C892 1.366 . S
C893 C894 1.414 . S
C893 C896 1.499 . S
C894 H874 0.950 . S
C894 C893 1.414 . S
C894 C895 1.374 . S
C895 H875 0.950 . S
C895 C891 1.385 . S
C895 C894 1.374 . S
C896 C893 1.499 . S
C896 C897 1.373 . S
C896 C898 1.389 . S
C897 H876 0.950 . S
C897 C896 1.373 . S
C897 C913 1.377 1_565 S
C898 C896 1.389 . S
C898 C899 1.524 . S
C898 C912 1.377 1_565 S
C899 C898 1.524 . S
C899 C900 1.397 . S
C899 C904 1.363 . S
C900 H877 0.950 . S
C900 C899 1.397 . S
C900 C901 1.334 . S
C901 H878 0.950 . S
C901 C900 1.334 . S
C901 C902 1.287 . S
C902 C901 1.287 . S
C902 C903 1.524 . S
C902 H921 0.913 . S
C903 H879 0.950 . S
C903 C902 1.524 . S
C903 C904 1.415 . S
C904 H880 0.950 . S
C904 C899 1.363 . S
C904 C903 1.415 . S
C905 H881 0.951 . S
C905 C906 1.366 . S
C905 C907 1.388 . S
C906 C905 1.366 . S
C906 C910 1.385 . S
C907 H882 0.951 . S
C907 C905 1.388 . S
C907 C908 1.366 . S
C908 C907 1.366 . S
C908 C909 1.414 . S
C908 C911 1.499 . S
C909 H883 0.950 . S
C909 C908 1.414 . S
C909 C910 1.374 . S
C910 H884 0.950 . S
C910 C906 1.385 . S
C910 C909 1.374 . S
C911 C908 1.499 . S
C911 C912 1.373 . S
C911 C913 1.389 . S
C912 H885 0.950 . S
C912 C898 1.377 1_545 S
C912 C911 1.373 . S
C913 C897 1.377 1_545 S
C913 C911 1.389 . S
C913 C914 1.524 . S
C914 C913 1.524 . S
C914 C915 1.397 . S
C914 C919 1.363 . S
C915 H886 0.950 . S
C915 C914 1.397 . S
C915 C916 1.334 . S
C916 H887 0.950 . S
C916 C915 1.334 . S
C916 C917 1.287 . S
C917 C916 1.287 . S
C917 C918 1.524 . S
C917 H920 0.999 . S
C918 H888 0.950 . S
C918 C917 1.524 . S
C918 C919 1.415 . S
C919 H889 0.950 . S
C919 C914 1.363 . S
C919 C918 1.415 . S
H920 C917 0.999 . S
H921 C902 0.913 . S
H922 C940 0.951 . S
H923 C942 0.951 . S
H924 C944 0.950 . S
H925 C945 0.950 . S
H926 C947 0.950 . S
H927 C950 0.950 . S
H928 C951 0.950 . S
H929 C953 0.950 . S
H930 C954 0.950 . S
H931 C955 0.951 . S
H932 C957 0.951 . S
H933 C959 0.950 . S
H934 C960 0.950 . S
H935 C962 0.950 . S
H936 C965 0.950 . S
H937 C966 0.950 . S
H938 C968 0.950 . S
H939 C969 0.950 . S
C940 H922 0.951 . S
C940 C941 1.366 . S
C940 C942 1.388 . S
C941 C940 1.366 . S
C941 C945 1.385 . S
C942 H923 0.951 . S
C942 C940 1.388 . S
C942 C943 1.366 . S
C943 C942 1.366 . S
C943 C944 1.414 . S
C943 C946 1.499 . S
C944 H924 0.950 . S
C944 C943 1.414 . S
C944 C945 1.374 . S
C945 H925 0.950 . S
C945 C941 1.385 . S
C945 C944 1.374 . S
C946 C943 1.499 . S
C946 C947 1.373 . S
C946 C948 1.389 . S
C947 H926 0.950 . S
C947 C946 1.373 . S
C947 C963 1.377 1_655 S
C948 C946 1.389 . S
C948 C949 1.524 . S
C948 C962 1.377 1_655 S
C949 C948 1.524 . S
C949 C950 1.397 . S
C949 C954 1.363 . S
C950 H927 0.950 . S
C950 C949 1.397 . S
C950 C951 1.334 . S
C951 H928 0.950 . S
C951 C950 1.334 . S
C951 C952 1.287 . S
C952 C951 1.287 . S
C952 C953 1.524 . S
C952 H971 0.913 . S
C953 H929 0.950 . S
C953 C952 1.524 . S
C953 C954 1.415 . S
C954 H930 0.950 . S
C954 C949 1.363 . S
C954 C953 1.415 . S
C955 H931 0.951 . S
C955 C956 1.366 . S
C955 C957 1.388 . S
C956 C955 1.366 . S
C956 C960 1.385 . S
C957 H932 0.951 . S
C957 C955 1.388 . S
C957 C958 1.366 . S
C958 C957 1.366 . S
C958 C959 1.414 . S
C958 C961 1.499 . S
C959 H933 0.950 . S
C959 C958 1.414 . S
C959 C960 1.374 . S
C960 H934 0.950 . S
C960 C956 1.385 . S
C960 C959 1.374 . S
C961 C958 1.499 . S
C961 C962 1.373 . S
C961 C963 1.389 . S
C962 H935 0.950 . S
C962 C948 1.377 1_455 S
C962 C961 1.373 . S
C963 C947 1.377 1_455 S
C963 C961 1.389 . S
C963 C964 1.524 . S
C964 C963 1.524 . S
C964 C965 1.397 . S
C964 C969 1.363 . S
C965 H936 0.950 . S
C965 C964 1.397 . S
C965 C966 1.334 . S
C966 H937 0.950 . S
C966 C965 1.334 . S
C966 C967 1.287 . S
C967 C966 1.287 . S
C967 C968 1.524 . S
C967 H970 0.999 . S
C968 H938 0.950 . S
C968 C967 1.524 . S
C968 C969 1.415 . S
C969 H939 0.950 . S
C969 C964 1.363 . S
C969 C968 1.415 . S
H970 C967 0.999 . S
H971 C952 0.913 . S
H972 C990 0.951 . S
H973 C992 0.951 . S
H974 C994 0.950 . S
H975 C995 0.950 . S
H976 C997 0.950 . S
H977 C1000 0.950 . S
H978 C1001 0.950 . S
H979 C1003 0.950 . S
H980 C1004 0.950 . S
H981 C1005 0.951 . S
H982 C1007 0.951 . S
H983 C1009 0.950 . S
H984 C1010 0.950 . S
H985 C1012 0.950 . S
H986 C1015 0.950 . S
H987 C1016 0.950 . S
H988 C1018 0.950 . S
H989 C1019 0.950 . S
C990 H972 0.951 . S
C990 C991 1.366 . S
C990 C992 1.388 . S
C991 C990 1.366 . S
C991 C995 1.385 . S
C992 H973 0.951 . S
C992 C990 1.388 . S
C992 C993 1.366 . S
C993 C992 1.366 . S
C993 C994 1.414 . S
C993 C996 1.499 . S
C994 H974 0.950 . S
C994 C993 1.414 . S
C994 C995 1.374 . S
C995 H975 0.950 . S
C995 C991 1.385 . S
C995 C994 1.374 . S
C996 C993 1.499 . S
C996 C997 1.373 . S
C996 C998 1.389 . S
C997 H976 0.950 . S
C997 C996 1.373 . S
C997 C1013 1.377 1_565 S
C998 C996 1.389 . S
C998 C999 1.524 . S
C998 C1012 1.377 1_565 S
C999 C998 1.524 . S
C999 C1000 1.397 . S
C999 C1004 1.363 . S
C1000 H977 0.950 . S
C1000 C999 1.397 . S
C1000 C1001 1.334 . S
C1001 H978 0.950 . S
C1001 C1000 1.334 . S
C1001 C1002 1.287 . S
C1002 C1001 1.287 . S
C1002 C1003 1.524 . S
C1002 H1021 0.913 . S
C1003 H979 0.950 . S
C1003 C1002 1.524 . S
C1003 C1004 1.415 . S
C1004 H980 0.950 . S
C1004 C999 1.363 . S
C1004 C1003 1.415 . S
C1005 H981 0.951 . S
C1005 C1006 1.366 . S
C1005 C1007 1.388 . S
C1006 C1005 1.366 . S
C1006 C1010 1.385 . S
C1007 H982 0.951 . S
C1007 C1005 1.388 . S
C1007 C1008 1.366 . S
C1008 C1007 1.366 . S
C1008 C1009 1.414 . S
C1008 C1011 1.499 . S
C1009 H983 0.950 . S
C1009 C1008 1.414 . S
C1009 C1010 1.374 . S
C1010 H984 0.950 . S
C1010 C1006 1.385 . S
C1010 C1009 1.374 . S
C1011 C1008 1.499 . S
C1011 C1012 1.373 . S
C1011 C1013 1.389 . S
C1012 H985 0.950 . S
C1012 C998 1.377 1_545 S
C1012 C1011 1.373 . S
C1013 C997 1.377 1_545 S
C1013 C1011 1.389 . S
C1013 C1014 1.524 . S
C1014 C1013 1.524 . S
C1014 C1015 1.397 . S
C1014 C1019 1.363 . S
C1015 H986 0.950 . S
C1015 C1014 1.397 . S
C1015 C1016 1.334 . S
C1016 H987 0.950 . S
C1016 C1015 1.334 . S
C1016 C1017 1.287 . S
C1017 C1016 1.287 . S
C1017 C1018 1.524 . S
C1017 H1020 0.999 . S
C1018 H988 0.950 . S
C1018 C1017 1.524 . S
C1018 C1019 1.415 . S
C1019 H989 0.950 . S
C1019 C1014 1.363 . S
C1019 C1018 1.415 . S
H1020 C1017 0.999 . S
H1021 C1002 0.913 . S
H1022 C1040 0.951 . S
H1023 C1042 0.951 . S
H1024 C1044 0.950 . S
H1025 C1045 0.950 1_556 S
H1026 C1047 0.950 . S
H1027 C1050 0.950 1_556 S
H1028 C1051 0.950 . S
H1029 C1053 0.950 . S
H1030 C1054 0.950 . S
H1031 C1055 0.951 . S
H1032 C1057 0.951 . S
H1033 C1059 0.950 . S
H1034 C1060 0.950 . S
H1035 C1062 0.950 . S
H1036 C1065 0.950 . S
H1037 C1066 0.950 . S
H1038 C1068 0.950 . S
H1039 C1069 0.950 . S
C1040 H1022 0.951 . S
C1040 C1041 1.366 . S
C1040 C1042 1.388 . S
C1041 C1040 1.366 . S
C1041 C1045 1.385 . S
C1042 H1023 0.951 . S
C1042 C1040 1.388 . S
C1042 C1043 1.366 . S
C1043 C1042 1.366 . S
C1043 C1044 1.414 . S
C1043 C1046 1.499 . S
C1044 H1024 0.950 . S
C1044 C1043 1.414 . S
C1044 C1045 1.374 . S
C1045 H1025 0.950 1_554 S
C1045 C1041 1.385 . S
C1045 C1044 1.374 . S
C1046 C1043 1.499 . S
C1046 C1047 1.373 . S
C1046 C1048 1.389 . S
C1047 H1026 0.950 . S
C1047 C1046 1.373 . S
C1047 C1063 1.377 1_655 S
C1048 C1046 1.389 . S
C1048 C1049 1.524 . S
C1048 C1062 1.377 1_655 S
C1049 C1048 1.524 . S
C1049 C1050 1.397 . S
C1049 C1054 1.363 . S
C1050 H1027 0.950 1_554 S
C1050 C1049 1.397 . S
C1050 C1051 1.334 1_554 S
C1051 H1028 0.950 . S
C1051 C1050 1.334 1_556 S
C1051 C1052 1.287 1_556 S
C1052 C1051 1.287 1_554 S
C1052 C1053 1.524 . S
C1052 H1071 0.913 . S
C1053 H1029 0.950 . S
C1053 C1052 1.524 . S
C1053 C1054 1.415 . S
C1054 H1030 0.950 . S
C1054 C1049 1.363 . S
C1054 C1053 1.415 . S
C1055 H1031 0.951 . S
C1055 C1056 1.366 . S
C1055 C1057 1.388 . S
C1056 C1055 1.366 . S
C1056 C1060 1.385 . S
C1057 H1032 0.951 . S
C1057 C1055 1.388 . S
C1057 C1058 1.366 . S
C1058 C1057 1.366 . S
C1058 C1059 1.414 . S
C1058 C1061 1.499 . S
C1059 H1033 0.950 . S
C1059 C1058 1.414 . S
C1059 C1060 1.374 . S
C1060 H1034 0.950 . S
C1060 C1056 1.385 . S
C1060 C1059 1.374 . S
C1061 C1058 1.499 . S
C1061 C1062 1.373 . S
C1061 C1063 1.389 . S
C1062 H1035 0.950 . S
C1062 C1048 1.377 1_455 S
C1062 C1061 1.373 . S
C1063 C1047 1.377 1_455 S
C1063 C1061 1.389 . S
C1063 C1064 1.524 . S
C1064 C1063 1.524 . S
C1064 C1065 1.397 . S
C1064 C1069 1.363 . S
C1065 H1036 0.950 . S
C1065 C1064 1.397 . S
C1065 C1066 1.334 . S
C1066 H1037 0.950 . S
C1066 C1065 1.334 . S
C1066 C1067 1.287 . S
C1067 C1066 1.287 . S
C1067 C1068 1.524 . S
C1067 H1070 0.999 . S
C1068 H1038 0.950 . S
C1068 C1067 1.524 . S
C1068 C1069 1.415 . S
C1069 H1039 0.950 . S
C1069 C1064 1.363 . S
C1069 C1068 1.415 . S
H1070 C1067 0.999 . S
H1071 C1052 0.913 . S
H1072 C1090 0.951 . S
H1073 C1092 0.951 . S
H1074 C1094 0.950 . S
H1075 C1095 0.950 . S
H1076 C1097 0.950 . S
H1077 C1100 0.950 . S
H1078 C1101 0.950 . S
H1079 C1103 0.950 . S
H1080 C1104 0.950 . S
H1081 C1105 0.951 . S
H1082 C1107 0.951 . S
H1083 C1109 0.950 . S
H1084 C1110 0.950 . S
H1085 C1112 0.950 . S
H1086 C1115 0.950 . S
H1087 C1116 0.950 . S
H1088 C1118 0.950 . S
H1089 C1119 0.950 . S
C1090 H1072 0.951 . S
C1090 C1091 1.366 . S
C1090 C1092 1.388 . S
C1091 C1090 1.366 . S
C1091 C1095 1.385 . S
C1092 H1073 0.951 . S
C1092 C1090 1.388 . S
C1092 C1093 1.366 . S
C1093 C1092 1.366 . S
C1093 C1094 1.414 . S
C1093 C1096 1.499 1_556 S
C1094 H1074 0.950 . S
C1094 C1093 1.414 . S
C1094 C1095 1.374 . S
C1095 H1075 0.950 . S
C1095 C1091 1.385 . S
C1095 C1094 1.374 . S
C1096 C1093 1.499 1_554 S
C1096 C1097 1.373 . S
C1096 C1098 1.389 . S
C1097 H1076 0.950 . S
C1097 C1096 1.373 . S
C1097 C1113 1.377 . S
C1098 C1096 1.389 . S
C1098 C1099 1.524 . S
C1098 C1112 1.377 . S
C1099 C1098 1.524 . S
C1099 C1100 1.397 1_554 S
C1099 C1104 1.363 . S
C1100 H1077 0.950 . S
C1100 C1099 1.397 1_556 S
C1100 C1101 1.334 . S
C1101 H1078 0.950 . S
C1101 C1100 1.334 . S
C1101 C1102 1.287 1_556 S
C1102 C1101 1.287 1_554 S
C1102 C1103 1.524 . S
C1102 H1121 0.913 1_554 S
C1103 H1079 0.950 . S
C1103 C1102 1.524 . S
C1103 C1104 1.415 . S
C1104 H1080 0.950 . S
C1104 C1099 1.363 . S
C1104 C1103 1.415 . S
C1105 H1081 0.951 . S
C1105 C1106 1.366 . S
C1105 C1107 1.388 . S
C1106 C1105 1.366 . S
C1106 C1110 1.385 . S
C1107 H1082 0.951 . S
C1107 C1105 1.388 . S
C1107 C1108 1.366 . S
C1108 C1107 1.366 . S
C1108 C1109 1.414 . S
C1108 C1111 1.499 . S
C1109 H1083 0.950 . S
C1109 C1108 1.414 . S
C1109 C1110 1.374 . S
C1110 H1084 0.950 . S
C1110 C1106 1.385 . S
C1110 C1109 1.374 . S
C1111 C1108 1.499 . S
C1111 C1112 1.373 . S
C1111 C1113 1.389 . S
C1112 H1085 0.950 . S
C1112 C1098 1.377 . S
C1112 C1111 1.373 . S
C1113 C1097 1.377 . S
C1113 C1111 1.389 . S
C1113 C1114 1.524 . S
C1114 C1113 1.524 . S
C1114 C1115 1.397 . S
C1114 C1119 1.363 . S
C1115 H1086 0.950 . S
C1115 C1114 1.397 . S
C1115 C1116 1.334 . S
C1116 H1087 0.950 . S
C1116 C1115 1.334 . S
C1116 C1117 1.287 . S
C1117 C1116 1.287 . S
C1117 C1118 1.524 . S
C1117 H1120 0.999 . S
C1118 H1088 0.950 . S
C1118 C1117 1.524 . S
C1118 C1119 1.415 . S
C1119 H1089 0.950 . S
C1119 C1114 1.363 . S
C1119 C1118 1.415 . S
H1120 C1117 0.999 . S
H1121 C1102 0.913 1_556 S
H1122 C1140 0.951 . S
H1123 C1142 0.951 . S
H1124 C1144 0.950 . S
H1125 C1145 0.950 . S
H1126 C1147 0.950 . S
H1127 C1150 0.950 . S
H1128 C1151 0.950 . S
H1129 C1153 0.950 . S
H1130 C1154 0.950 . S
H1131 C1155 0.951 . S
H1132 C1157 0.951 . S
H1133 C1159 0.950 . S
H1134 C1160 0.950 . S
H1135 C1162 0.950 . S
H1136 C1165 0.950 . S
H1137 C1166 0.950 . S
H1138 C1168 0.950 . S
H1139 C1169 0.950 . S
C1140 H1122 0.951 . S
C1140 C1141 1.366 . S
C1140 C1142 1.388 . S
C1141 C1140 1.366 . S
C1141 C1145 1.385 . S
C1142 H1123 0.951 . S
C1142 C1140 1.388 . S
C1142 C1143 1.366 . S
C1143 C1142 1.366 . S
C1143 C1144 1.414 . S
C1143 C1146 1.499 . S
C1144 H1124 0.950 . S
C1144 C1143 1.414 . S
C1144 C1145 1.374 . S
C1145 H1125 0.950 . S
C1145 C1141 1.385 . S
C1145 C1144 1.374 . S
C1146 C1143 1.499 . S
C1146 C1147 1.373 . S
C1146 C1148 1.389 . S
C1147 H1126 0.950 . S
C1147 C1146 1.373 . S
C1147 C1163 1.377 . S
C1148 C1146 1.389 . S
C1148 C1149 1.524 . S
C1148 C1162 1.377 . S
C1149 C1148 1.524 . S
C1149 C1150 1.397 . S
C1149 C1154 1.363 . S
C1150 H1127 0.950 . S
C1150 C1149 1.397 . S
C1150 C1151 1.334 . S
C1151 H1128 0.950 . S
C1151 C1150 1.334 . S
C1151 C1152 1.287 . S
C1152 C1151 1.287 . S
C1152 C1153 1.524 . S
C1152 H1171 0.913 . S
C1153 H1129 0.950 . S
C1153 C1152 1.524 . S
C1153 C1154 1.415 . S
C1154 H1130 0.950 . S
C1154 C1149 1.363 . S
C1154 C1153 1.415 . S
C1155 H1131 0.951 . S
C1155 C1156 1.366 . S
C1155 C1157 1.388 . S
C1156 C1155 1.366 . S
C1156 C1160 1.385 . S
C1157 H1132 0.951 . S
C1157 C1155 1.388 . S
C1157 C1158 1.366 . S
C1158 C1157 1.366 . S
C1158 C1159 1.414 . S
C1158 C1161 1.499 . S
C1159 H1133 0.950 . S
C1159 C1158 1.414 . S
C1159 C1160 1.374 . S
C1160 H1134 0.950 . S
C1160 C1156 1.385 . S
C1160 C1159 1.374 . S
C1161 C1158 1.499 . S
C1161 C1162 1.373 . S
C1161 C1163 1.389 . S
C1162 H1135 0.950 . S
C1162 C1148 1.377 . S
C1162 C1161 1.373 . S
C1163 C1147 1.377 . S
C1163 C1161 1.389 . S
C1163 C1164 1.524 . S
C1164 C1163 1.524 . S
C1164 C1165 1.397 . S
C1164 C1169 1.363 . S
C1165 H1136 0.950 . S
C1165 C1164 1.397 . S
C1165 C1166 1.334 . S
C1166 H1137 0.950 . S
C1166 C1165 1.334 . S
C1166 C1167 1.287 . S
C1167 C1166 1.287 . S
C1167 C1168 1.524 . S
C1167 H1170 0.999 . S
C1168 H1138 0.950 . S
C1168 C1167 1.524 . S
C1168 C1169 1.415 . S
C1169 H1139 0.950 . S
C1169 C1164 1.363 . S
C1169 C1168 1.415 . S
H1170 C1167 0.999 . S
H1171 C1152 0.913 . S
H1172 C1190 0.951 . S
H1173 C1192 0.951 . S
H1174 C1194 0.950 . S
H1175 C1195 0.950 . S
H1176 C1197 0.950 . S
H1177 C1200 0.950 . S
H1178 C1201 0.950 . S
H1179 C1203 0.950 . S
H1180 C1204 0.950 . S
H1181 C1205 0.951 . S
H1182 C1207 0.951 . S
H1183 C1209 0.950 . S
H1184 C1210 0.950 . S
H1185 C1212 0.950 . S
H1186 C1215 0.950 . S
H1187 C1216 0.950 . S
H1188 C1218 0.950 . S
H1189 C1219 0.950 . S
C1190 H1172 0.951 . S
C1190 C1191 1.366 . S
C1190 C1192 1.388 . S
C1191 C1190 1.366 . S
C1191 C1195 1.385 . S
C1192 H1173 0.951 . S
C1192 C1190 1.388 . S
C1192 C1193 1.366 . S
C1193 C1192 1.366 . S
C1193 C1194 1.414 . S
C1193 C1196 1.499 . S
C1194 H1174 0.950 . S
C1194 C1193 1.414 . S
C1194 C1195 1.374 . S
C1195 H1175 0.950 . S
C1195 C1191 1.385 . S
C1195 C1194 1.374 . S
C1196 C1193 1.499 . S
C1196 C1197 1.373 . S
C1196 C1198 1.389 . S
C1197 H1176 0.950 . S
C1197 C1196 1.373 . S
C1197 C1213 1.377 . S
C1198 C1196 1.389 . S
C1198 C1199 1.524 . S
C1198 C1212 1.377 . S
C1199 C1198 1.524 . S
C1199 C1200 1.397 . S
C1199 C1204 1.363 . S
C1200 H1177 0.950 . S
C1200 C1199 1.397 . S
C1200 C1201 1.334 . S
C1201 H1178 0.950 . S
C1201 C1200 1.334 . S
C1201 C1202 1.287 . S
C1202 C1201 1.287 . S
C1202 C1203 1.524 . S
C1202 H1221 0.913 . S
C1203 H1179 0.950 . S
C1203 C1202 1.524 . S
C1203 C1204 1.415 . S
C1204 H1180 0.950 . S
C1204 C1199 1.363 . S
C1204 C1203 1.415 . S
C1205 H1181 0.951 . S
C1205 C1206 1.366 . S
C1205 C1207 1.388 . S
C1206 C1205 1.366 . S
C1206 C1210 1.385 . S
C1207 H1182 0.951 . S
C1207 C1205 1.388 . S
C1207 C1208 1.366 . S
C1208 C1207 1.366 . S
C1208 C1209 1.414 . S
C1208 C1211 1.499 . S
C1209 H1183 0.950 . S
C1209 C1208 1.414 . S
C1209 C1210 1.374 . S
C1210 H1184 0.950 . S
C1210 C1206 1.385 . S
C1210 C1209 1.374 . S
C1211 C1208 1.499 . S
C1211 C1212 1.373 . S
C1211 C1213 1.389 . S
C1212 H1185 0.950 . S
C1212 C1198 1.377 . S
C1212 C1211 1.373 . S
C1213 C1197 1.377 . S
C1213 C1211 1.389 . S
C1213 C1214 1.524 . S
C1214 C1213 1.524 . S
C1214 C1215 1.397 . S
C1214 C1219 1.363 . S
C1215 H1186 0.950 . S
C1215 C1214 1.397 . S
C1215 C1216 1.334 . S
C1216 H1187 0.950 . S
C1216 C1215 1.334 . S
C1216 C1217 1.287 . S
C1217 C1216 1.287 . S
C1217 C1218 1.524 . S
C1217 H1220 0.999 . S
C1218 H1188 0.950 . S
C1218 C1217 1.524 . S
C1218 C1219 1.415 . S
C1219 H1189 0.950 . S
C1219 C1214 1.363 . S
C1219 C1218 1.415 . S
H1220 C1217 0.999 . S
H1221 C1202 0.913 . S
H1222 C1240 0.951 . S
H1223 C1242 0.951 . S
H1224 C1244 0.950 . S
H1225 C1245 0.950 . S
H1226 C1247 0.950 . S
H1227 C1250 0.950 . S
H1228 C1251 0.950 . S
H1229 C1253 0.950 . S
H1230 C1254 0.950 . S
H1231 C1255 0.951 . S
H1232 C1257 0.951 . S
H1233 C1259 0.950 . S
H1234 C1260 0.950 . S
H1235 C1262 0.950 . S
H1236 C1265 0.950 . S
H1237 C1266 0.950 . S
H1238 C1268 0.950 . S
H1239 C1269 0.950 . S
C1240 H1222 0.951 . S
C1240 C1241 1.366 . S
C1240 C1242 1.388 . S
C1241 C1240 1.366 . S
C1241 C1245 1.385 . S
C1242 H1223 0.951 . S
C1242 C1240 1.388 . S
C1242 C1243 1.366 . S
C1243 C1242 1.366 . S
C1243 C1244 1.414 . S
C1243 C1246 1.499 . S
C1244 H1224 0.950 . S
C1244 C1243 1.414 . S
C1244 C1245 1.374 . S
C1245 H1225 0.950 . S
C1245 C1241 1.385 . S
C1245 C1244 1.374 . S
C1246 C1243 1.499 . S
C1246 C1247 1.373 . S
C1246 C1248 1.389 . S
C1247 H1226 0.950 . S
C1247 C1246 1.373 . S
C1247 C1263 1.377 . S
C1248 C1246 1.389 . S
C1248 C1249 1.524 . S
C1248 C1262 1.377 . S
C1249 C1248 1.524 . S
C1249 C1250 1.397 . S
C1249 C1254 1.363 . S
C1250 H1227 0.950 . S
C1250 C1249 1.397 . S
C1250 C1251 1.334 . S
C1251 H1228 0.950 . S
C1251 C1250 1.334 . S
C1251 C1252 1.287 . S
C1252 C1251 1.287 . S
C1252 C1253 1.524 . S
C1252 H1271 0.913 . S
C1253 H1229 0.950 . S
C1253 C1252 1.524 . S
C1253 C1254 1.415 . S
C1254 H1230 0.950 . S
C1254 C1249 1.363 . S
C1254 C1253 1.415 . S
C1255 H1231 0.951 . S
C1255 C1256 1.366 . S
C1255 C1257 1.388 . S
C1256 C1255 1.366 . S
C1256 C1260 1.385 . S
C1257 H1232 0.951 . S
C1257 C1255 1.388 . S
C1257 C1258 1.366 . S
C1258 C1257 1.366 . S
C1258 C1259 1.414 . S
C1258 C1261 1.499 . S
C1259 H1233 0.950 . S
C1259 C1258 1.414 . S
C1259 C1260 1.374 . S
C1260 H1234 0.950 . S
C1260 C1256 1.385 . S
C1260 C1259 1.374 . S
C1261 C1258 1.499 . S
C1261 C1262 1.373 . S
C1261 C1263 1.389 . S
C1262 H1235 0.950 . S
C1262 C1248 1.377 . S
C1262 C1261 1.373 . S
C1263 C1247 1.377 . S
C1263 C1261 1.389 . S
C1263 C1264 1.524 . S
C1264 C1263 1.524 . S
C1264 C1265 1.397 . S
C1264 C1269 1.363 . S
C1265 H1236 0.950 . S
C1265 C1264 1.397 . S
C1265 C1266 1.334 . S
C1266 H1237 0.950 . S
C1266 C1265 1.334 . S
C1266 C1267 1.287 . S
C1267 C1266 1.287 . S
C1267 C1268 1.524 . S
C1267 H1270 0.999 . S
C1268 H1238 0.950 . S
C1268 C1267 1.524 . S
C1268 C1269 1.415 . S
C1269 H1239 0.950 . S
C1269 C1264 1.363 . S
C1269 C1268 1.415 . S
H1270 C1267 0.999 . S
H1271 C1252 0.913 . S
C491 C33 0.661 . S
C506 C387 0.661 . S
C541 C92 0.661 . S
C556 C446 0.661 . S
C591 C269 0.661 . S
C606 C151 0.661 . S
C641 C328 0.661 . S
C656 C210 0.661 . S
C691 C5 1.655 . S
C706 C300 1.655 . S
C741 C64 1.655 . S
C756 C359 1.655 . S
C791 C418 1.658 . S
C806 C123 1.655 . S
C841 C182 1.655 . S
C856 C241 1.655 . S
C891 C288 1.648 . S
C906 C52 1.648 . S
C941 C111 1.648 . S
C956 C347 1.648 . S
C991 C170 1.648 . S
C1006 C406 1.648 . S
C1041 C465 1.648 . S
C1056 C229 1.648 . S
C1091 C357 1.320 . S
C1106 C3 1.319 . S
C1141 C416 1.320 . S
C1156 C62 1.319 . S
C1191 C121 1.319 . S
C1206 C239 1.320 . S
C1241 C180 1.319 . S
C1256 C298 1.320 . S
