# Generated by pormake.
# Topology kag, (6)-cn, num edge types: 1
# Building blocks:
#     Node 0, Type 0, BuildingBlock: BETDIP_clean_sbu_0, # of connection points: 6
#     Node 1, Type 0, BuildingBlock: BETDIP_clean_sbu_0, # of connection points: 6
#     Node 2, Type 0, BuildingBlock: BETDIP_clean_sbu_0, # of connection points: 6
#     Edge 3, Type (0, 0), BuildingBlock: CIFDUS_clean_linker_0, # of connection points: 2
#     Edge 4, Type (0, 0), BuildingBlock: CIFDUS_clean_linker_0, # of connection points: 2
#     Edge 5, Type (0, 0), BuildingBlock: CIFDUS_clean_linker_0, # of connection points: 2
#     Edge 6, Type (0, 0), BuildingBlock: CIFDUS_clean_linker_0, # of connection points: 2
#     Edge 7, Type (0, 0), BuildingBlock: CIFDUS_clean_linker_0, # of connection points: 2
#     Edge 8, Type (0, 0), BuildingBlock: CIFDUS_clean_linker_0, # of connection points: 2
#     Edge 9, Type (0, 0), BuildingBlock: CIFDUS_clean_linker_0, # of connection points: 2
#     Edge 10, Type (0, 0), BuildingBlock: CIFDUS_clean_linker_0, # of connection points: 2
#     Edge 11, Type (0, 0), BuildingBlock: CIFDUS_clean_linker_0, # of connection points: 2
# Relax obj value: 0.013
# Max RMSD: 0.069
# Mean RMSD: 0.060
data_MOF--net-kag--node1-BETDIP_clean_sbu_0--edge1-CIFDUS_clean_linker_0
_symmetry_space_group_name_H-M    P1
_symmetry_Int_Tables_number       1
_symmetry_cell_setting            triclinic
loop_
_symmetry_equiv_pos_as_xyz
'x, y, z'
_cell_length_a     37.281336
_cell_length_b     37.082191
_cell_length_c     12.562306
_cell_angle_alpha  92.989824
_cell_angle_beta   91.656628
_cell_angle_gamma 119.85864
loop_
_atom_site_label
_atom_site_type_symbol
_atom_site_fract_x
_atom_site_fract_y
_atom_site_fract_z
_atom_type_partial_charge
Tb0 Tb 1.01024 0.48186 1.00434 0.0
Tb1 Tb 0.06537 0.57509 0.99643 0.0
C2 C 0.95969 0.41033 0.05865 0.0
C3 C 0.91481 0.38033 0.05488 0.0
C4 C 0.89886 0.35514 0.14014 0.0
C5 C 0.8574 0.32352 0.13535 0.0
C6 C 0.83092 0.31622 0.04473 0.0
C7 C 0.84652 0.34276 0.96111 0.0
C8 C 0.88816 0.37457 0.96609 0.0
C9 C 1.02666 0.50817 0.81073 0.0
C10 C 0.96951 0.53986 0.99949 0.0
C11 C 0.11351 0.64686 0.93906 0.0
C12 C 0.15691 0.68117 0.94271 0.0
C13 C 0.17151 0.70266 0.8508 0.0
C14 C 0.2103 0.73885 0.85415 0.0
C15 C 0.23541 0.75442 0.94979 0.0
C16 C 0.22143 0.73186 0.04101 0.0
C17 C 0.18246 0.69559 0.03761 0.0
C18 C 0.04905 0.54887 0.19038 0.0
C19 C 0.10606 0.5166 1.00359 0.0
O20 O 0.97334 0.44441 0.12161 0.0
O21 O 0.97753 0.41724 0.96783 0.0
O22 O 1.02026 0.52607 0.88952 0.0
O23 O 1.02004 0.47205 0.83623 0.0
O24 O 0.96552 0.50369 0.02313 0.0
O25 O 1.00515 0.57048 0.97078 0.0
O26 O 0.10372 0.6125 0.88081 0.0
O27 O 0.09452 0.63977 0.02816 0.0
O28 O 0.05525 0.53098 0.1113 0.0
O29 O 0.05631 0.58524 0.16517 0.0
O30 O 0.1106 0.55327 0.98149 0.0
O31 O 0.07 0.48574 0.02956 0.0
H32 H 0.91881 0.35925 0.20966 0.0
H33 H 0.84623 0.30428 0.20214 0.0
H34 H 0.82701 0.33793 0.89009 0.0
H35 H 0.89977 0.39384 0.89949 0.0
H36 H 0.15229 0.69214 0.77682 0.0
H37 H 0.22041 0.75498 0.782 0.0
H38 H 0.23991 0.7431 0.11606 0.0
H39 H 0.17183 0.67961 0.1098 0.0
Tb40 Tb 0.56309 1.00076 0.03723 0.0
Tb41 Tb 0.51994 0.05037 0.01375 0.0
C42 C 0.587 0.9517 0.0949 0.0
C43 C 0.57312 0.90653 0.081 0.0
C44 C 0.54574 0.87834 0.15046 0.0
C45 C 0.53543 0.8364 0.1418 0.0
C46 C 0.55243 0.82172 0.06389 0.0
C47 C 0.57907 0.84977 0.99307 0.0
C48 C 0.58945 0.89164 1.00188 0.0
C49 C 0.55034 1.01419 0.83865 0.0
C50 C 0.46424 0.95388 0.02002 0.0
C51 C 0.49364 0.09669 0.94831 0.0
C52 C 0.50435 0.14071 0.95285 0.0
C53 C 0.47624 0.15064 0.90535 0.0
C54 C 0.48443 0.19179 0.91087 0.0
C55 C 0.52099 0.22405 0.96433 0.0
C56 C 0.54957 0.21407 1.01057 0.0
C57 C 0.54125 0.17266 1.00511 0.0
C58 C 0.53193 0.03644 0.21232 0.0
C59 C 0.61942 0.09701 0.03913 0.0
O60 O 0.56509 0.9629 0.15316 0.0
O61 O 0.59926 0.97281 1.0102 0.0
O62 O 0.52601 1.00631 0.91239 0.0
O63 O 0.58175 1.01116 0.87254 0.0
O64 O 0.49818 0.95361 0.05233 0.0
O65 O 0.46612 0.98773 0.98417 0.0
O66 O 0.51717 0.08652 0.89396 0.0
O67 O 0.4837 0.07848 0.03775 0.0
O68 O 0.55641 0.04438 0.13889 0.0
O69 O 0.50095 0.04027 0.17842 0.0
O70 O 0.58603 0.09845 1.00569 0.0
O71 O 0.61632 0.06239 0.07262 0.0
H72 H 0.5329 0.8888 0.21307 0.0
H73 H 0.51517 0.81581 0.19842 0.0
H74 H 0.59224 0.83946 0.93099 0.0
H75 H 0.61085 0.91251 0.94752 0.0
H76 H 0.44768 0.1264 0.8643 0.0
H77 H 0.46212 0.19836 0.87262 0.0
H78 H 0.57791 0.23808 0.05285 0.0
H79 H 0.56332 0.16553 0.04243 0.0
Tb80 Tb 0.48757 0.50345 0.01953 0.0
Tb81 Tb 0.57999 0.53981 1.00971 0.0
C82 C 0.4162 0.48391 0.07575 0.0
C83 C 0.38561 0.49792 0.06726 0.0
C84 C 0.35422 0.48428 0.13913 0.0
C85 C 0.32254 0.49382 0.12804 0.0
C86 C 0.32148 0.51716 0.04439 0.0
C87 C 0.35393 0.53214 0.97455 0.0
C88 C 0.38575 0.52254 0.98582 0.0
C89 C 0.51429 0.51168 0.82508 0.0
C90 C 0.54672 0.60235 0.02347 0.0
C91 C 0.652 0.5605 0.95726 0.0
C92 C 0.68494 0.54983 0.97449 0.0
C93 C 0.6802 0.51122 0.93673 0.0
C94 C 0.71346 0.50375 0.94702 0.0
C95 C 0.75204 0.53476 0.99493 0.0
C96 C 0.75612 0.57281 0.03521 0.0
C97 C 0.72307 0.58029 0.02459 0.0
C98 C 0.55303 0.53117 0.20423 0.0
C99 C 0.52113 0.44084 1.00415 0.0
O100 O 0.45014 0.50777 0.13587 0.0
O101 O 0.42333 0.46911 0.98703 0.0
O102 O 0.53218 0.5363 0.9062 0.0
O103 O 0.47785 0.48326 0.84874 0.0
O104 O 0.51049 0.57093 0.04688 0.0
O105 O 0.57638 0.59579 0.98913 0.0
O106 O 0.61833 0.53387 0.89924 0.0
O107 O 0.64411 0.57768 0.04016 0.0
O108 O 0.53539 0.50682 0.12266 0.0
O109 O 0.5895 0.55956 0.18094 0.0
O110 O 0.55746 0.47251 0.98224 0.0
O111 O 0.49088 0.44692 0.03649 0.0
H112 H 0.35372 0.46545 0.20282 0.0
H113 H 0.29858 0.48253 0.18458 0.0
H114 H 0.354 0.55006 0.90913 0.0
H115 H 0.40984 0.53346 0.92961 0.0
H116 H 0.65118 0.48712 0.89746 0.0
H117 H 0.70931 0.4742 0.91452 0.0
H118 H 0.78506 0.59708 0.07445 0.0
H119 H 0.72759 0.61033 0.0542 0.0
H120 H 1.03336 0.46842 0.63093 0.0
H121 H 1.03027 0.57861 0.74394 0.0
H122 H 0.03662 0.60081 0.5622 0.0
H123 H 0.04255 0.58867 0.37027 0.0
H124 H 0.04578 0.47857 0.25726 0.0
H125 H 0.03946 0.45637 0.43902 0.0
C126 C 1.03415 0.49731 0.61565 0.0
C127 C 1.03147 0.52189 0.7008 0.0
C128 C 0.03756 0.50977 0.51067 0.0
C129 C 1.03248 0.55923 0.67987 0.0
C130 C 1.03599 0.57189 0.57586 0.0
C131 C 0.0418 0.5598 0.38555 0.0
C132 C 0.04443 0.5352 0.30036 0.0
C133 C 0.03845 0.54737 0.49054 0.0
C134 C 0.04352 0.49791 0.32132 0.0
C135 C 0.04005 0.48527 0.42535 0.0
H136 H 0.484 1.02577 0.37977 0.0
H137 H 0.60082 0.03793 0.29729 0.0
H138 H 0.61694 0.0324 0.4838 0.0
H139 H 0.59805 1.02459 0.671 0.0
H140 H 0.48112 1.01212 0.75355 0.0
H141 H 0.46495 1.01763 0.56699 0.0
C142 C 0.51296 0.02716 0.40276 0.0
C143 C 0.54117 0.03223 0.3249 0.0
C144 C 0.52207 1.02411 0.51032 0.0
C145 C 0.57855 0.03395 0.35569 0.0
C146 C 0.58782 0.03088 0.46238 0.0
C147 C 0.56905 1.02312 0.64804 0.0
C148 C 0.54087 1.0181 0.72597 0.0
C149 C 0.55988 0.02606 0.54046 0.0
C150 C 0.5034 1.01617 0.69514 0.0
C151 C 0.4941 1.01921 0.58841 0.0
H152 H 0.47261 0.46726 0.6404 0.0
H153 H 0.58646 0.57579 0.76467 0.0
H154 H 0.60825 0.59184 0.58322 0.0
H155 H 0.59466 0.57532 0.38892 0.0
H156 H 0.48102 0.4666 0.26445 0.0
H157 H 0.45917 0.45053 0.44593 0.0
C158 C 0.50222 0.49434 0.62757 0.0
C159 C 0.5279 0.52031 0.71553 0.0
C160 C 0.51443 0.50348 0.52299 0.0
C161 C 0.56618 0.55532 0.69808 0.0
C162 C 0.57861 0.56456 0.59438 0.0
C163 C 0.56509 0.54817 0.40169 0.0
C164 C 0.53942 0.52224 0.31368 0.0
C165 C 0.55292 0.53896 0.50623 0.0
C166 C 0.50123 0.48712 0.33108 0.0
C167 C 0.48878 0.47785 0.43479 0.0
H168 H 0.18761 0.57353 0.9755 0.0
H169 H 0.10677 0.4456 0.04433 0.0
H170 H 0.16572 0.43478 0.06089 0.0
H171 H 0.24004 0.46114 0.05865 0.0
H172 H 0.32229 0.58877 0.99257 0.0
H173 H 0.26304 0.59987 0.97051 0.0
C174 C 0.18288 0.54326 0.99374 0.0
C175 C 0.14261 0.51055 1.00904 0.0
C176 C 0.2172 0.53707 1.00356 0.0
C177 C 0.13723 0.47151 0.03246 0.0
C178 C 0.171 0.46518 0.04202 0.0
C179 C 0.24515 0.49156 0.04045 0.0
C180 C 0.28567 0.52416 0.02841 0.0
C181 C 0.2111 0.49774 0.02854 0.0
C182 C 0.29145 0.56304 1.00194 0.0
C183 C 0.25758 0.56946 0.98981 0.0
H184 H 0.6411 0.17559 0.9808 0.0
H185 H 0.69201 0.10411 0.11341 0.0
H186 H 0.76081 0.16505 0.12619 0.0
H187 H 0.80717 0.23812 0.09905 0.0
H188 H 0.75853 0.31144 0.96811 0.0
H189 H 0.68857 0.25031 0.95407 0.0
C190 C 0.66724 0.17339 0.01259 0.0
C191 C 0.66107 0.1351 0.04618 0.0
C192 C 0.7073 0.20887 0.01974 0.0
C193 C 0.69548 0.13295 0.08692 0.0
C194 C 0.73505 0.16788 0.09435 0.0
C195 C 0.78125 0.24099 0.06867 0.0
C196 C 0.78812 0.27947 0.03569 0.0
C197 C 0.74133 0.20593 0.06116 0.0
C198 C 0.7542 0.28217 0.99375 0.0
C199 C 0.71415 0.24725 0.98612 0.0
H200 H 0.607 0.79451 0.02972 0.0
H201 H 0.47872 0.75013 0.08836 0.0
H202 H 0.46552 0.67845 0.08294 0.0
H203 H 0.49055 0.6282 0.06023 0.0
H204 H 0.61886 0.6738 0.99751 0.0
H205 H 0.63155 0.74489 1.00428 0.0
C206 C 0.57597 0.76917 0.03992 0.0
C207 C 0.54391 0.77784 0.059 0.0
C208 C 0.56855 0.7281 0.03593 0.0
C209 C 0.50413 0.74452 0.07453 0.0
C210 C 0.4965 0.70346 0.07092 0.0
C211 C 0.52129 0.65369 0.04817 0.0
C212 C 0.55365 0.64546 0.02832 0.0
C213 C 0.52851 0.69484 0.05177 0.0
C214 C 0.59326 0.67898 0.01259 0.0
C215 C 0.60064 0.7198 0.01655 0.0
H216 H 0.8895 0.48226 0.03531 0.0
H217 H 0.96637 0.60952 0.95582 0.0
H218 H 0.90611 0.61868 0.94677 0.0
H219 H 0.83175 0.59078 0.95887 0.0
H220 H 0.75424 0.4642 0.04097 0.0
H221 H 0.8145 0.45442 0.04953 0.0
C222 C 0.89313 0.51204 0.01626 0.0
C223 C 0.93257 0.54513 0.99629 0.0
C224 C 0.85818 0.51719 1.01091 0.0
C225 C 0.93652 0.58345 0.97149 0.0
C226 C 0.90202 0.58877 0.96621 0.0
C227 C 0.82801 0.56116 0.98001 0.0
C228 C 0.78847 0.52838 0.99989 0.0
C229 C 0.86275 0.55589 0.98564 0.0
C230 C 0.7842 0.4899 0.02445 0.0
C231 C 0.8187 0.48436 0.02998 0.0
H232 H 0.30973 0.77364 0.04823 0.0
H233 H 0.25039 0.8263 0.86278 0.0
H234 H 0.31536 0.89261 0.86883 0.0
H235 H 0.3894 0.93585 0.92614 0.0
H236 H 0.44858 0.88269 0.11082 0.0
H237 H 0.38345 0.81693 0.10668 0.0
C238 C 0.31094 0.79972 1.00986 0.0
C239 C 0.2752 0.79482 0.95478 0.0
C240 C 0.34847 0.83787 0.01361 0.0
C241 C 0.27753 0.8289 0.90441 0.0
C242 C 0.31465 0.86698 0.90836 0.0
C243 C 0.38802 0.90995 0.96583 0.0
C244 C 0.42397 0.91439 0.01857 0.0
C245 C 0.35038 0.87185 0.96252 0.0
C246 C 0.42154 0.88029 0.06915 0.0
C247 C 0.38423 0.84254 0.06698 0.0
H248 H 0.5786 0.4166 0.96934 0.0
H249 H 0.44983 0.36841 0.0313 0.0
H250 H 0.43898 0.29792 0.02667 0.0
H251 H 0.46552 0.24965 1.00499 0.0
H252 H 0.59383 0.29669 0.94186 0.0
H253 H 0.60545 0.36785 0.94898 0.0
C254 C 0.54813 0.3907 0.98166 0.0
C255 C 0.51508 0.39801 1.00042 0.0
C256 C 0.54201 0.34996 0.97935 0.0
C257 C 0.4759 0.36393 0.01675 0.0
C258 C 0.4696 0.32348 0.01413 0.0
C259 C 0.49599 0.27538 0.99185 0.0
C260 C 0.52866 0.26766 0.9722 0.0
C261 C 0.50236 0.31611 0.99533 0.0
C262 C 0.56816 0.30165 0.95791 0.0
C263 C 0.57476 0.34236 0.96129 0.0
loop_
_geom_bond_atom_site_label_1
_geom_bond_atom_site_label_2
_geom_bond_distance
_geom_bond_site_symmetry_2
_ccdc_geom_bond_type
Tb0 C2 2.809 . S
Tb0 O20 2.484 1_556 S
Tb0 O21 2.440 . S
Tb0 O22 2.658 1_655 S
Tb0 O23 2.409 . S
Tb0 O24 2.378 . S
Tb0 O28 2.325 1_556 S
Tb0 O31 2.341 1_655 S
Tb1 C11 2.809 . S
Tb1 O22 2.325 1_554 S
Tb1 O25 2.341 1_455 S
Tb1 O26 2.484 1_554 S
Tb1 O27 2.440 . S
Tb1 O28 2.658 1_455 S
Tb1 O29 2.409 . S
Tb1 O30 2.378 . S
C2 Tb0 2.809 . S
C2 C3 1.514 1_556 S
C2 O20 1.248 1_556 S
C2 O21 1.266 . S
C3 C2 1.514 1_554 S
C3 C4 1.359 . S
C3 C8 1.348 1_554 S
C4 C3 1.359 . S
C4 C5 1.380 . S
C4 H32 0.929 . S
C5 C4 1.380 . S
C5 C6 1.347 . S
C5 H33 0.931 . S
C6 C5 1.347 . S
C6 C7 1.369 1_554 S
C7 C6 1.369 1_556 S
C7 C8 1.408 . S
C7 H34 0.930 . S
C8 C3 1.348 1_556 S
C8 C7 1.408 . S
C8 H35 0.930 . S
C9 O22 1.281 1_655 S
C9 O23 1.254 . S
C10 O24 1.236 . S
C10 O25 1.266 1_556 S
C11 Tb1 2.809 . S
C11 C12 1.514 1_554 S
C11 O26 1.248 1_554 S
C11 O27 1.266 . S
C12 C11 1.514 1_556 S
C12 C13 1.359 . S
C12 C17 1.348 1_556 S
C13 C12 1.359 . S
C13 C14 1.380 . S
C13 H36 0.929 . S
C14 C13 1.380 . S
C14 C15 1.347 . S
C14 H37 0.931 . S
C15 C14 1.347 . S
C15 C16 1.369 1_556 S
C16 C15 1.369 1_554 S
C16 C17 1.408 . S
C16 H38 0.930 . S
C17 C12 1.348 1_554 S
C17 C16 1.408 . S
C17 H39 0.930 . S
C18 O28 1.281 1_455 S
C18 O29 1.254 . S
C19 O30 1.236 . S
C19 O31 1.266 1_554 S
O20 Tb0 2.484 1_554 S
O20 C2 1.248 1_554 S
O21 Tb0 2.440 . S
O21 C2 1.266 . S
O22 Tb0 2.658 1_455 S
O22 Tb1 2.325 1_556 S
O22 C9 1.281 1_455 S
O23 Tb0 2.409 . S
O23 C9 1.254 . S
O24 Tb0 2.378 . S
O24 C10 1.236 . S
O25 Tb1 2.341 1_655 S
O25 C10 1.266 1_554 S
O26 Tb1 2.484 1_556 S
O26 C11 1.248 1_556 S
O27 Tb1 2.440 . S
O27 C11 1.266 . S
O28 Tb0 2.325 1_554 S
O28 Tb1 2.658 1_655 S
O28 C18 1.281 1_655 S
O29 Tb1 2.409 . S
O29 C18 1.254 . S
O30 Tb1 2.378 . S
O30 C19 1.236 . S
O31 Tb0 2.341 1_455 S
O31 C19 1.266 1_556 S
H32 C4 0.929 . S
H33 C5 0.931 . S
H34 C7 0.930 . S
H35 C8 0.930 . S
H36 C13 0.929 . S
H37 C14 0.931 . S
H38 C16 0.930 . S
H39 C17 0.930 . S
Tb40 C42 2.809 1_556 S
Tb40 O60 2.484 1_556 S
Tb40 O61 2.440 . S
Tb40 O62 2.658 1_565 S
Tb40 O63 2.409 . S
Tb40 O64 2.378 . S
Tb40 O68 2.325 1_556 S
Tb40 O71 2.341 1_566 S
Tb41 C51 2.809 1_554 S
Tb41 O62 2.325 1_554 S
Tb41 O65 2.341 1_544 S
Tb41 O66 2.484 1_554 S
Tb41 O67 2.440 . S
Tb41 O68 2.658 1_545 S
Tb41 O69 2.409 . S
Tb41 O70 2.378 . S
C42 Tb40 2.809 1_554 S
C42 C43 1.514 . S
C42 O60 1.248 . S
C42 O61 1.266 1_554 S
C43 C42 1.514 . S
C43 C44 1.359 . S
C43 C48 1.348 1_554 S
C44 C43 1.359 . S
C44 C45 1.380 . S
C44 H72 0.929 . S
C45 C44 1.380 . S
C45 C46 1.347 . S
C45 H73 0.931 . S
C46 C45 1.347 . S
C46 C47 1.369 1_554 S
C47 C46 1.369 1_556 S
C47 C48 1.408 . S
C47 H74 0.930 . S
C48 C43 1.348 1_556 S
C48 C47 1.408 . S
C48 H75 0.930 . S
C49 O62 1.281 1_565 S
C49 O63 1.254 . S
C50 O64 1.236 . S
C50 O65 1.266 . S
C51 Tb41 2.809 1_556 S
C51 C52 1.514 . S
C51 O66 1.248 . S
C51 O67 1.266 1_556 S
C52 C51 1.514 . S
C52 C53 1.359 . S
C52 C57 1.348 1_556 S
C53 C52 1.359 . S
C53 C54 1.380 . S
C53 H76 0.929 . S
C54 C53 1.380 . S
C54 C55 1.347 . S
C54 H77 0.931 . S
C55 C54 1.347 . S
C55 C56 1.369 1_556 S
C56 C55 1.369 1_554 S
C56 C57 1.408 . S
C56 H78 0.930 . S
C57 C52 1.348 1_554 S
C57 C56 1.408 . S
C57 H79 0.930 . S
C58 O68 1.281 1_545 S
C58 O69 1.254 . S
C59 O70 1.236 . S
C59 O71 1.266 . S
O60 Tb40 2.484 1_554 S
O60 C42 1.248 . S
O61 Tb40 2.440 . S
O61 C42 1.266 1_556 S
O62 Tb40 2.658 1_545 S
O62 Tb41 2.325 1_556 S
O62 C49 1.281 1_545 S
O63 Tb40 2.409 . S
O63 C49 1.254 . S
O64 Tb40 2.378 . S
O64 C50 1.236 . S
O65 Tb41 2.341 1_566 S
O65 C50 1.266 . S
O66 Tb41 2.484 1_556 S
O66 C51 1.248 . S
O67 Tb41 2.440 . S
O67 C51 1.266 1_554 S
O68 Tb40 2.325 1_554 S
O68 Tb41 2.658 1_565 S
O68 C58 1.281 1_565 S
O69 Tb41 2.409 . S
O69 C58 1.254 . S
O70 Tb41 2.378 . S
O70 C59 1.236 . S
O71 Tb40 2.341 1_544 S
O71 C59 1.266 . S
H72 C44 0.929 . S
H73 C45 0.931 . S
H74 C47 0.930 . S
H75 C48 0.930 . S
H76 C53 0.929 . S
H77 C54 0.931 . S
H78 C56 0.930 . S
H79 C57 0.930 . S
Tb80 C82 2.809 . S
Tb80 O100 2.484 1_556 S
Tb80 O101 2.440 . S
Tb80 O102 2.658 . S
Tb80 O103 2.409 . S
Tb80 O104 2.378 . S
Tb80 O108 2.325 1_556 S
Tb80 O111 2.341 . S
Tb81 C91 2.809 . S
Tb81 O102 2.325 1_554 S
Tb81 O105 2.341 . S
Tb81 O106 2.484 1_554 S
Tb81 O107 2.440 . S
Tb81 O108 2.658 . S
Tb81 O109 2.409 . S
Tb81 O110 2.378 . S
C82 Tb80 2.809 . S
C82 C83 1.514 1_556 S
C82 O100 1.248 1_556 S
C82 O101 1.266 . S
C83 C82 1.514 1_554 S
C83 C84 1.359 . S
C83 C88 1.348 1_554 S
C84 C83 1.359 . S
C84 C85 1.380 . S
C84 H112 0.929 . S
C85 C84 1.380 . S
C85 C86 1.347 . S
C85 H113 0.931 . S
C86 C85 1.347 . S
C86 C87 1.369 1_554 S
C87 C86 1.369 1_556 S
C87 C88 1.408 . S
C87 H114 0.930 . S
C88 C83 1.348 1_556 S
C88 C87 1.408 . S
C88 H115 0.930 . S
C89 O102 1.281 . S
C89 O103 1.254 . S
C90 O104 1.236 . S
C90 O105 1.266 1_556 S
C91 Tb81 2.809 . S
C91 C92 1.514 1_554 S
C91 O106 1.248 1_554 S
C91 O107 1.266 . S
C92 C91 1.514 1_556 S
C92 C93 1.359 . S
C92 C97 1.348 1_556 S
C93 C92 1.359 . S
C93 C94 1.380 . S
C93 H116 0.929 . S
C94 C93 1.380 . S
C94 C95 1.347 . S
C94 H117 0.931 . S
C95 C94 1.347 . S
C95 C96 1.369 1_556 S
C96 C95 1.369 1_554 S
C96 C97 1.408 . S
C96 H118 0.930 . S
C97 C92 1.348 1_554 S
C97 C96 1.408 . S
C97 H119 0.930 . S
C98 O108 1.281 . S
C98 O109 1.254 . S
C99 O110 1.236 . S
C99 O111 1.266 1_554 S
O100 Tb80 2.484 1_554 S
O100 C82 1.248 1_554 S
O101 Tb80 2.440 . S
O101 C82 1.266 . S
O102 Tb80 2.658 . S
O102 Tb81 2.325 1_556 S
O102 C89 1.281 . S
O103 Tb80 2.409 . S
O103 C89 1.254 . S
O104 Tb80 2.378 . S
O104 C90 1.236 . S
O105 Tb81 2.341 . S
O105 C90 1.266 1_554 S
O106 Tb81 2.484 1_556 S
O106 C91 1.248 1_556 S
O107 Tb81 2.440 . S
O107 C91 1.266 . S
O108 Tb80 2.325 1_554 S
O108 Tb81 2.658 . S
O108 C98 1.281 . S
O109 Tb81 2.409 . S
O109 C98 1.254 . S
O110 Tb81 2.378 . S
O110 C99 1.236 . S
O111 Tb80 2.341 . S
O111 C99 1.266 1_556 S
H112 C84 0.929 . S
H113 C85 0.931 . S
H114 C87 0.930 . S
H115 C88 0.930 . S
H116 C93 0.929 . S
H117 C94 0.931 . S
H118 C96 0.930 . S
H119 C97 0.930 . S
H120 C126 0.930 . S
H121 C129 0.930 . S
H122 C130 0.930 . S
H123 C131 0.930 . S
H124 C134 0.930 . S
H125 C135 0.930 . S
C126 H120 0.930 . S
C126 C127 1.355 1_655 S
C126 C128 1.415 . S
C127 C126 1.355 1_455 S
C127 C129 1.419 . S
C128 C126 1.415 . S
C128 C133 1.425 1_655 S
C128 C135 1.409 . S
C129 H121 0.930 . S
C129 C127 1.419 . S
C129 C130 1.362 . S
C130 H122 0.930 . S
C130 C129 1.362 . S
C130 C133 1.409 . S
C131 H123 0.930 . S
C131 C132 1.355 1_455 S
C131 C133 1.415 . S
C132 C131 1.355 1_655 S
C132 C134 1.419 . S
C133 C128 1.425 1_455 S
C133 C130 1.409 . S
C133 C131 1.415 . S
C134 H124 0.930 . S
C134 C132 1.419 . S
C134 C135 1.362 . S
C135 H125 0.930 . S
C135 C128 1.409 . S
C135 C134 1.362 . S
H136 C142 0.930 . S
H137 C145 0.930 . S
H138 C146 0.930 . S
H139 C147 0.930 . S
H140 C150 0.930 . S
H141 C151 0.930 . S
C142 H136 0.930 . S
C142 C143 1.355 1_565 S
C142 C144 1.415 . S
C143 C142 1.355 1_545 S
C143 C145 1.419 . S
C144 C142 1.415 . S
C144 C149 1.425 1_565 S
C144 C151 1.409 . S
C145 H137 0.930 . S
C145 C143 1.419 . S
C145 C146 1.362 . S
C146 H138 0.930 . S
C146 C145 1.362 . S
C146 C149 1.409 . S
C147 H139 0.930 . S
C147 C148 1.355 1_545 S
C147 C149 1.415 . S
C148 C147 1.355 1_565 S
C148 C150 1.419 . S
C149 C144 1.425 1_545 S
C149 C146 1.409 . S
C149 C147 1.415 . S
C150 H140 0.930 . S
C150 C148 1.419 . S
C150 C151 1.362 . S
C151 H141 0.930 . S
C151 C144 1.409 . S
C151 C150 1.362 . S
H152 C158 0.930 . S
H153 C161 0.930 . S
H154 C162 0.930 . S
H155 C163 0.930 . S
H156 C166 0.930 . S
H157 C167 0.930 . S
C158 H152 0.930 . S
C158 C159 1.355 . S
C158 C160 1.415 . S
C159 C158 1.355 . S
C159 C161 1.419 . S
C160 C158 1.415 . S
C160 C165 1.425 . S
C160 C167 1.409 . S
C161 H153 0.930 . S
C161 C159 1.419 . S
C161 C162 1.362 . S
C162 H154 0.930 . S
C162 C161 1.362 . S
C162 C165 1.409 . S
C163 H155 0.930 . S
C163 C164 1.355 . S
C163 C165 1.415 . S
C164 C163 1.355 . S
C164 C166 1.419 . S
C165 C160 1.425 . S
C165 C162 1.409 . S
C165 C163 1.415 . S
C166 H156 0.930 . S
C166 C164 1.419 . S
C166 C167 1.362 . S
C167 H157 0.930 . S
C167 C160 1.409 . S
C167 C166 1.362 . S
H168 C174 0.930 . S
H169 C177 0.930 . S
H170 C178 0.930 . S
H171 C179 0.930 . S
H172 C182 0.930 . S
H173 C183 0.930 . S
C174 H168 0.930 . S
C174 C175 1.355 1_556 S
C174 C176 1.415 . S
C175 C174 1.355 1_554 S
C175 C177 1.419 . S
C176 C174 1.415 . S
C176 C181 1.425 1_556 S
C176 C183 1.409 . S
C177 H169 0.930 . S
C177 C175 1.419 . S
C177 C178 1.362 . S
C178 H170 0.930 . S
C178 C177 1.362 . S
C178 C181 1.409 . S
C179 H171 0.930 . S
C179 C180 1.355 . S
C179 C181 1.415 . S
C180 C179 1.355 . S
C180 C182 1.419 1_554 S
C181 C176 1.425 1_554 S
C181 C178 1.409 . S
C181 C179 1.415 . S
C182 H172 0.930 . S
C182 C180 1.419 1_556 S
C182 C183 1.362 . S
C183 H173 0.930 . S
C183 C176 1.409 . S
C183 C182 1.362 . S
H184 C190 0.930 . S
H185 C193 0.930 . S
H186 C194 0.930 . S
H187 C195 0.930 . S
H188 C198 0.930 . S
H189 C199 0.930 . S
C190 H184 0.930 . S
C190 C191 1.355 1_556 S
C190 C192 1.415 . S
C191 C190 1.355 1_554 S
C191 C193 1.419 . S
C192 C190 1.415 . S
C192 C197 1.425 1_556 S
C192 C199 1.409 . S
C193 H185 0.930 . S
C193 C191 1.419 . S
C193 C194 1.362 . S
C194 H186 0.930 . S
C194 C193 1.362 . S
C194 C197 1.409 . S
C195 H187 0.930 . S
C195 C196 1.355 . S
C195 C197 1.415 . S
C196 C195 1.355 . S
C196 C198 1.419 1_554 S
C197 C192 1.425 1_554 S
C197 C194 1.409 . S
C197 C195 1.415 . S
C198 H188 0.930 . S
C198 C196 1.419 1_556 S
C198 C199 1.362 . S
C199 H189 0.930 . S
C199 C192 1.409 . S
C199 C198 1.362 . S
H200 C206 0.930 1_556 S
H201 C209 0.930 . S
H202 C210 0.930 . S
H203 C211 0.930 . S
H204 C214 0.930 . S
H205 C215 0.930 . S
C206 H200 0.930 1_554 S
C206 C207 1.355 . S
C206 C208 1.415 . S
C207 C206 1.355 . S
C207 C209 1.419 . S
C208 C206 1.415 . S
C208 C213 1.425 . S
C208 C215 1.409 1_554 S
C209 H201 0.930 . S
C209 C207 1.419 . S
C209 C210 1.362 . S
C210 H202 0.930 . S
C210 C209 1.362 . S
C210 C213 1.409 . S
C211 H203 0.930 . S
C211 C212 1.355 . S
C211 C213 1.415 . S
C212 C211 1.355 . S
C212 C214 1.419 1_554 S
C213 C208 1.425 . S
C213 C210 1.409 . S
C213 C211 1.415 . S
C214 H204 0.930 . S
C214 C212 1.419 1_556 S
C214 C215 1.362 . S
C215 H205 0.930 . S
C215 C208 1.409 1_556 S
C215 C214 1.362 . S
H216 C222 0.929 1_554 S
H217 C225 0.930 . S
H218 C226 0.930 . S
H219 C227 0.930 . S
H220 C230 0.930 1_554 S
H221 C231 0.930 . S
C222 H216 0.929 1_556 S
C222 C223 1.355 . S
C222 C224 1.415 . S
C223 C222 1.355 . S
C223 C225 1.419 . S
C224 C222 1.415 . S
C224 C229 1.425 . S
C224 C231 1.409 1_556 S
C225 H217 0.930 . S
C225 C223 1.419 . S
C225 C226 1.362 . S
C226 H218 0.930 . S
C226 C225 1.362 . S
C226 C229 1.409 . S
C227 H219 0.930 . S
C227 C228 1.355 . S
C227 C229 1.415 . S
C228 C227 1.355 . S
C228 C230 1.419 . S
C229 C224 1.425 . S
C229 C226 1.409 . S
C229 C227 1.415 . S
C230 H220 0.930 1_556 S
C230 C228 1.419 . S
C230 C231 1.362 1_556 S
C231 H221 0.930 . S
C231 C224 1.409 1_554 S
C231 C230 1.362 1_554 S
H232 C238 0.930 . S
H233 C241 0.930 . S
H234 C242 0.930 . S
H235 C243 0.930 . S
H236 C246 0.930 . S
H237 C247 0.930 . S
C238 H232 0.930 . S
C238 C239 1.355 1_554 S
C238 C240 1.415 . S
C239 C238 1.355 1_556 S
C239 C241 1.419 . S
C240 C238 1.415 . S
C240 C245 1.425 1_554 S
C240 C247 1.409 . S
C241 H233 0.930 . S
C241 C239 1.419 . S
C241 C242 1.362 . S
C242 H234 0.930 . S
C242 C241 1.362 . S
C242 C245 1.409 . S
C243 H235 0.930 . S
C243 C244 1.355 . S
C243 C245 1.415 . S
C244 C243 1.355 . S
C244 C246 1.419 1_556 S
C245 C240 1.425 1_556 S
C245 C242 1.409 . S
C245 C243 1.415 . S
C246 H236 0.930 . S
C246 C244 1.419 1_554 S
C246 C247 1.362 . S
C247 H237 0.930 . S
C247 C240 1.409 . S
C247 C246 1.362 . S
H248 C254 0.930 . S
H249 C257 0.930 . S
H250 C258 0.930 . S
H251 C259 0.930 . S
H252 C262 0.930 . S
H253 C263 0.930 . S
C254 H248 0.930 . S
C254 C255 1.355 1_554 S
C254 C256 1.415 . S
C255 C254 1.355 1_556 S
C255 C257 1.419 . S
C256 C254 1.415 . S
C256 C261 1.425 1_554 S
C256 C263 1.409 . S
C257 H249 0.930 . S
C257 C255 1.419 . S
C257 C258 1.362 . S
C258 H250 0.930 . S
C258 C257 1.362 . S
C258 C261 1.409 . S
C259 H251 0.930 . S
C259 C260 1.355 . S
C259 C261 1.415 . S
C260 C259 1.355 . S
C260 C262 1.419 1_556 S
C261 C256 1.425 1_556 S
C261 C258 1.409 . S
C261 C259 1.415 . S
C262 H252 0.930 . S
C262 C260 1.419 1_554 S
C262 C263 1.362 . S
C263 H253 0.930 . S
C263 C256 1.409 . S
C263 C262 1.362 . S
C127 C9 1.428 1_455 S
C132 C18 1.428 1_655 S
C143 C58 1.398 . S
C148 C49 1.398 . S
C159 C89 1.464 . S
C164 C98 1.464 . S
C175 C19 1.625 . S
C180 C86 1.646 . S
C191 C59 1.626 . S
C196 C6 1.645 . S
C207 C46 1.653 . S
C212 C90 1.641 1_554 S
C223 C10 1.620 . S
C228 C95 1.643 . S
C239 C15 1.633 . S
C244 C50 1.647 . S
C255 C99 1.651 1_556 S
C260 C55 1.642 . S
