# Generated by pormake.
# Topology uoy, (4)-cn, num edge types: 1
# Building blocks:
#     Node 0, Type 0, BuildingBlock: UXUYUI_clean_sbu_0, # of connection points: 4
#     Node 1, Type 0, BuildingBlock: UXUYUI_clean_sbu_0, # of connection points: 4
#     Node 2, Type 0, BuildingBlock: UXUYUI_clean_sbu_0, # of connection points: 4
#     Node 3, Type 0, BuildingBlock: UXUYUI_clean_sbu_0, # of connection points: 4
#     Node 4, Type 0, BuildingBlock: UXUYUI_clean_sbu_0, # of connection points: 4
#     Node 5, Type 0, BuildingBlock: UXUYUI_clean_sbu_0, # of connection points: 4
#     Node 6, Type 0, BuildingBlock: UXUYUI_clean_sbu_0, # of connection points: 4
#     Node 7, Type 0, BuildingBlock: UXUYUI_clean_sbu_0, # of connection points: 4
#     Node 8, Type 0, BuildingBlock: UXUYUI_clean_sbu_0, # of connection points: 4
#     Node 9, Type 0, BuildingBlock: UXUYUI_clean_sbu_0, # of connection points: 4
#     Node 10, Type 0, BuildingBlock: UXUYUI_clean_sbu_0, # of connection points: 4
#     Node 11, Type 0, BuildingBlock: UXUYUI_clean_sbu_0, # of connection points: 4
#     Node 12, Type 0, BuildingBlock: UXUYUI_clean_sbu_0, # of connection points: 4
#     Node 13, Type 0, BuildingBlock: UXUYUI_clean_sbu_0, # of connection points: 4
#     Node 14, Type 0, BuildingBlock: UXUYUI_clean_sbu_0, # of connection points: 4
#     Node 15, Type 0, BuildingBlock: UXUYUI_clean_sbu_0, # of connection points: 4
#     Edge 16, Type (0, 0), BuildingBlock: UVAHIK_clean_linker_0, # of connection points: 2
#     Edge 17, Type (0, 0), BuildingBlock: UVAHIK_clean_linker_0, # of connection points: 2
#     Edge 18, Type (0, 0), BuildingBlock: UVAHIK_clean_linker_0, # of connection points: 2
#     Edge 19, Type (0, 0), BuildingBlock: UVAHIK_clean_linker_0, # of connection points: 2
#     Edge 20, Type (0, 0), BuildingBlock: UVAHIK_clean_linker_0, # of connection points: 2
#     Edge 21, Type (0, 0), BuildingBlock: UVAHIK_clean_linker_0, # of connection points: 2
#     Edge 22, Type (0, 0), BuildingBlock: UVAHIK_clean_linker_0, # of connection points: 2
#     Edge 23, Type (0, 0), BuildingBlock: UVAHIK_clean_linker_0, # of connection points: 2
#     Edge 24, Type (0, 0), BuildingBlock: UVAHIK_clean_linker_0, # of connection points: 2
#     Edge 25, Type (0, 0), BuildingBlock: UVAHIK_clean_linker_0, # of connection points: 2
#     Edge 26, Type (0, 0), BuildingBlock: UVAHIK_clean_linker_0, # of connection points: 2
#     Edge 27, Type (0, 0), BuildingBlock: UVAHIK_clean_linker_0, # of connection points: 2
#     Edge 28, Type (0, 0), BuildingBlock: UVAHIK_clean_linker_0, # of connection points: 2
#     Edge 29, Type (0, 0), BuildingBlock: UVAHIK_clean_linker_0, # of connection points: 2
#     Edge 30, Type (0, 0), BuildingBlock: UVAHIK_clean_linker_0, # of connection points: 2
#     Edge 31, Type (0, 0), BuildingBlock: UVAHIK_clean_linker_0, # of connection points: 2
#     Edge 32, Type (0, 0), BuildingBlock: UVAHIK_clean_linker_0, # of connection points: 2
#     Edge 33, Type (0, 0), BuildingBlock: UVAHIK_clean_linker_0, # of connection points: 2
#     Edge 34, Type (0, 0), BuildingBlock: UVAHIK_clean_linker_0, # of connection points: 2
#     Edge 35, Type (0, 0), BuildingBlock: UVAHIK_clean_linker_0, # of connection points: 2
#     Edge 36, Type (0, 0), BuildingBlock: UVAHIK_clean_linker_0, # of connection points: 2
#     Edge 37, Type (0, 0), BuildingBlock: UVAHIK_clean_linker_0, # of connection points: 2
#     Edge 38, Type (0, 0), BuildingBlock: UVAHIK_clean_linker_0, # of connection points: 2
#     Edge 39, Type (0, 0), BuildingBlock: UVAHIK_clean_linker_0, # of connection points: 2
#     Edge 40, Type (0, 0), BuildingBlock: UVAHIK_clean_linker_0, # of connection points: 2
#     Edge 41, Type (0, 0), BuildingBlock: UVAHIK_clean_linker_0, # of connection points: 2
#     Edge 42, Type (0, 0), BuildingBlock: UVAHIK_clean_linker_0, # of connection points: 2
#     Edge 43, Type (0, 0), BuildingBlock: UVAHIK_clean_linker_0, # of connection points: 2
#     Edge 44, Type (0, 0), BuildingBlock: UVAHIK_clean_linker_0, # of connection points: 2
#     Edge 45, Type (0, 0), BuildingBlock: UVAHIK_clean_linker_0, # of connection points: 2
#     Edge 46, Type (0, 0), BuildingBlock: UVAHIK_clean_linker_0, # of connection points: 2
#     Edge 47, Type (0, 0), BuildingBlock: UVAHIK_clean_linker_0, # of connection points: 2
# Relax obj value: 0.195
# Max RMSD: 0.201
# Mean RMSD: 0.200
data_MOF--net-uoy--node1-UXUYUI_clean_sbu_0--edge1-UVAHIK_clean_linker_0
_symmetry_space_group_name_H-M    P1
_symmetry_Int_Tables_number       1
_symmetry_cell_setting            triclinic
loop_
_symmetry_equiv_pos_as_xyz
'x, y, z'
_cell_length_a     47.623433
_cell_length_b     47.628431
_cell_length_c     186.22291
_cell_angle_alpha  90.015715
_cell_angle_beta   89.996298
_cell_angle_gamma 89.988406
loop_
_atom_site_label
_atom_site_type_symbol
_atom_site_fract_x
_atom_site_fract_y
_atom_site_fract_z
_atom_type_partial_charge
Li0 Li 0.26829 0.10689 0.18568 0.0
Li1 Li 0.23952 0.14383 0.19095 0.0
Li2 Li 0.21817 0.10446 0.18464 0.0
Li3 Li 0.24366 0.14079 0.17818 0.0
C4 C 0.255 0.08773 0.19832 0.0
N5 N 0.28716 0.05621 0.20767 0.0
C6 C 0.26858 0.10065 0.2041 0.0
C7 C 0.25768 0.05877 0.19731 0.0
C8 C 0.28474 0.08434 0.20876 0.0
C9 C 0.27408 0.04321 0.20209 0.0
C10 C 0.29101 0.16508 0.18134 0.0
C11 C 0.30102 0.21003 0.17595 0.0
N12 N 0.32416 0.19887 0.17276 0.0
C13 C 0.31491 0.15406 0.17801 0.0
C14 C 0.28402 0.19331 0.18031 0.0
C15 C 0.33141 0.17149 0.1737 0.0
C16 C 0.30824 0.06406 0.18264 0.0
N17 N 0.3025 0.08683 0.18679 0.0
C18 C 0.34753 0.08394 0.19238 0.0
C19 C 0.32145 0.0969 0.19159 0.0
C20 C 0.35427 0.06052 0.18812 0.0
C21 C 0.33412 0.05046 0.18324 0.0
H22 H 0.29298 0.05682 0.17877 0.0
H23 H 0.31639 0.11529 0.19475 0.0
C24 C 0.21706 0.15937 0.20422 0.0
N25 N 0.23539 0.16757 0.19904 0.0
C26 C 0.21414 0.17511 0.21049 0.0
C27 C 0.24867 0.20775 0.20591 0.0
C28 C 0.25097 0.19131 0.19973 0.0
C29 C 0.23035 0.19948 0.21144 0.0
H30 H 0.2052 0.14019 0.20354 0.0
H31 H 0.26556 0.19718 0.19556 0.0
C32 C 0.2333 0.08042 0.17268 0.0
N33 N 0.20424 0.04193 0.16444 0.0
C34 C 0.21955 0.08905 0.16643 0.0
C35 C 0.23238 0.05219 0.17472 0.0
C36 C 0.20496 0.06927 0.16233 0.0
C37 C 0.21753 0.03307 0.17049 0.0
C38 C 0.19036 0.16206 0.18716 0.0
C39 C 0.16742 0.15067 0.19082 0.0
C40 C 0.19488 0.19106 0.18731 0.0
C41 C 0.14938 0.16851 0.19459 0.0
C42 C 0.17639 0.20818 0.19116 0.0
N43 N 0.15422 0.19665 0.19469 0.0
C44 C 0.18085 0.06156 0.18936 0.0
C45 C 0.1665 0.08725 0.17909 0.0
C46 C 0.15557 0.04669 0.18938 0.0
N47 N 0.18569 0.08146 0.18429 0.0
C48 C 0.14105 0.07284 0.17889 0.0
C49 C 0.13516 0.05249 0.18414 0.0
H50 H 0.19629 0.05775 0.1935 0.0
H51 H 0.17069 0.10369 0.17523 0.0
C52 C 0.26523 0.15295 0.16453 0.0
N53 N 0.24573 0.16097 0.16944 0.0
C54 C 0.26762 0.16727 0.15802 0.0
C55 C 0.22962 0.19766 0.16175 0.0
C56 C 0.22795 0.18271 0.16818 0.0
C57 C 0.24964 0.18995 0.15657 0.0
H58 H 0.27885 0.13532 0.16566 0.0
H59 H 0.21245 0.18842 0.17215 0.0
O60 O 0.23957 0.10341 0.1936 0.0
O61 O 0.27422 0.1482 0.18545 0.0
O62 O 0.24725 0.09955 0.17684 0.0
O63 O 0.20863 0.14489 0.18356 0.0
H64 H 0.26696 0.12307 0.20492 0.0
H65 H 0.2475 0.04848 0.19284 0.0
H66 H 0.29547 0.09408 0.21324 0.0
H67 H 0.27649 0.02081 0.20135 0.0
H68 H 0.29573 0.23185 0.17506 0.0
H69 H 0.32052 0.13222 0.17867 0.0
H70 H 0.26537 0.2021 0.18275 0.0
H71 H 0.3499 0.16321 0.17107 0.0
H72 H 0.36228 0.09224 0.19626 0.0
H73 H 0.33858 0.03276 0.17977 0.0
H74 H 0.20015 0.16764 0.21466 0.0
H75 H 0.26141 0.22648 0.2064 0.0
H76 H 0.21984 0.11083 0.16479 0.0
H77 H 0.2427 0.04519 0.17958 0.0
H78 H 0.19412 0.07567 0.1575 0.0
H79 H 0.21649 0.01119 0.17203 0.0
H80 H 0.16371 0.12828 0.19084 0.0
H81 H 0.21277 0.20022 0.18461 0.0
H82 H 0.13161 0.15996 0.19747 0.0
H83 H 0.17977 0.23063 0.19136 0.0
H84 H 0.15191 0.03106 0.1935 0.0
H85 H 0.12572 0.07835 0.17483 0.0
H86 H 0.28303 0.16032 0.15414 0.0
H87 H 0.21552 0.21516 0.16088 0.0
Li88 Li 0.88971 0.77349 0.43637 0.0
Li89 Li 0.85358 0.74468 0.44134 0.0
Li90 Li 0.89043 0.72389 0.4343 0.0
Li91 Li 0.85247 0.75198 0.42842 0.0
C92 C 0.91171 0.75591 0.44832 0.0
N93 N 0.94746 0.78282 0.45776 0.0
C94 C 0.90119 0.76782 0.45463 0.0
C95 C 0.94043 0.75757 0.44682 0.0
C96 C 0.91961 0.78133 0.45934 0.0
C97 C 0.95815 0.77132 0.45166 0.0
C98 C 0.82622 0.79454 0.439 0.0
C99 C 0.77834 0.81085 0.43829 0.0
N100 N 0.78115 0.82302 0.44486 0.0
C101 C 0.82865 0.80724 0.44574 0.0
C102 C 0.80087 0.79635 0.43524 0.0
C103 C 0.80561 0.82151 0.44861 0.0
C104 C 0.9297 0.81351 0.4319 0.0
N105 N 0.91177 0.80678 0.43731 0.0
C106 C 0.92273 0.84946 0.44346 0.0
C107 C 0.90816 0.82411 0.44304 0.0
C108 C 0.94097 0.85724 0.43788 0.0
C109 C 0.94461 0.83874 0.43208 0.0
H110 H 0.93198 0.79957 0.42736 0.0
H111 H 0.8936 0.81856 0.44724 0.0
C112 C 0.84351 0.71939 0.45447 0.0
N113 N 0.83088 0.73635 0.44958 0.0
C114 C 0.82968 0.712 0.46079 0.0
C115 C 0.78959 0.73895 0.45685 0.0
C116 C 0.80399 0.74524 0.45052 0.0
C117 C 0.80262 0.7225 0.46217 0.0
H118 H 0.8645 0.71166 0.45347 0.0
H119 H 0.79364 0.75732 0.44641 0.0
C120 C 0.91211 0.74177 0.42222 0.0
N121 N 0.94817 0.71506 0.41282 0.0
C122 C 0.90194 0.73077 0.41577 0.0
C123 C 0.94065 0.73941 0.42387 0.0
C124 C 0.92051 0.7173 0.41109 0.0
C125 C 0.95853 0.72576 0.41905 0.0
C126 C 0.83048 0.69845 0.43641 0.0
C127 C 0.8393 0.67479 0.44023 0.0
C128 C 0.80184 0.70432 0.43578 0.0
C129 C 0.8192 0.65742 0.44341 0.0
C130 C 0.78241 0.68643 0.43904 0.0
N131 N 0.79142 0.66356 0.44276 0.0
C132 C 0.93115 0.68373 0.43831 0.0
C133 C 0.90602 0.67337 0.42765 0.0
C134 C 0.94497 0.65793 0.43797 0.0
N135 N 0.91203 0.6908 0.43321 0.0
C136 C 0.91948 0.64745 0.42706 0.0
C137 C 0.93894 0.63922 0.43233 0.0
H138 H 0.93496 0.69769 0.44278 0.0
H139 H 0.89025 0.67933 0.42376 0.0
C140 C 0.83081 0.78135 0.41659 0.0
N141 N 0.83084 0.75623 0.42004 0.0
C142 C 0.81609 0.78451 0.41016 0.0
C143 C 0.80167 0.73591 0.41102 0.0
C144 C 0.81671 0.73369 0.41741 0.0
C145 C 0.80139 0.76153 0.40728 0.0
H146 H 0.84244 0.79882 0.41881 0.0
H147 H 0.8176 0.71384 0.42022 0.0
O148 O 0.894 0.7428 0.4436 0.0
O149 O 0.8486 0.78079 0.43603 0.0
O150 O 0.89419 0.7546 0.42693 0.0
O151 O 0.84985 0.71611 0.43343 0.0
H152 H 0.879 0.76701 0.45584 0.0
H153 H 0.94891 0.74855 0.44196 0.0
H154 H 0.91174 0.79076 0.46422 0.0
H155 H 0.98039 0.77289 0.45055 0.0
H156 H 0.7586 0.81239 0.43545 0.0
H157 H 0.84786 0.8056 0.44878 0.0
H158 H 0.79856 0.78659 0.43003 0.0
H159 H 0.80714 0.83128 0.45384 0.0
H160 H 0.91899 0.86326 0.44798 0.0
H161 H 0.95865 0.84382 0.42769 0.0
H162 H 0.8403 0.6984 0.46457 0.0
H163 H 0.76879 0.7476 0.45762 0.0
H164 H 0.87993 0.73241 0.41441 0.0
H165 H 0.94884 0.74783 0.42884 0.0
H166 H 0.91292 0.70856 0.40609 0.0
H167 H 0.98063 0.72362 0.42028 0.0
H168 H 0.86142 0.67007 0.4408 0.0
H169 H 0.79473 0.72273 0.4329 0.0
H170 H 0.8257 0.63911 0.44642 0.0
H171 H 0.76017 0.6908 0.43865 0.0
H172 H 0.95938 0.65229 0.44223 0.0
H173 H 0.91437 0.63386 0.42259 0.0
H174 H 0.81623 0.80466 0.40747 0.0
H175 H 0.79104 0.71756 0.40892 0.0
Li176 Li 0.22118 0.39238 0.68545 0.0
Li177 Li 0.24932 0.3562 0.69114 0.0
Li178 Li 0.27393 0.39294 0.68422 0.0
Li179 Li 0.24657 0.35706 0.67852 0.0
C180 C 0.25227 0.42418 0.69556 0.0
N181 N 0.25731 0.47866 0.70049 0.0
C182 C 0.25658 0.42937 0.70286 0.0
C183 C 0.25069 0.4467 0.69075 0.0
C184 C 0.25901 0.45707 0.70525 0.0
C185 C 0.25325 0.47408 0.69336 0.0
C186 C 0.20069 0.33341 0.68945 0.0
C187 C 0.19051 0.28629 0.6934 0.0
N188 N 0.17289 0.29678 0.69848 0.0
C189 C 0.18236 0.34373 0.69469 0.0
C190 C 0.20471 0.30447 0.68877 0.0
C191 C 0.16854 0.32486 0.69921 0.0
C192 C 0.16695 0.40514 0.68123 0.0
N193 N 0.18667 0.41249 0.68615 0.0
C194 C 0.15412 0.44324 0.69197 0.0
C195 C 0.1807 0.43094 0.69152 0.0
C196 C 0.13337 0.43609 0.68693 0.0
C197 C 0.14012 0.41683 0.68149 0.0
H198 H 0.17189 0.3896 0.67719 0.0
H199 H 0.19615 0.4356 0.69558 0.0
C200 C 0.26665 0.31047 0.70002 0.0
N201 N 0.25191 0.33488 0.6997 0.0
C202 C 0.26955 0.29632 0.70655 0.0
C203 C 0.24194 0.33269 0.71223 0.0
C204 C 0.2395 0.34604 0.70561 0.0
C205 C 0.2574 0.30766 0.71277 0.0
H206 H 0.27663 0.30226 0.69526 0.0
H207 H 0.22795 0.36552 0.70518 0.0
C208 C 0.24694 0.40047 0.66944 0.0
N209 N 0.25071 0.4028 0.65463 0.0
C210 C 0.27321 0.40098 0.66609 0.0
C211 C 0.22259 0.40128 0.66525 0.0
C212 C 0.27468 0.40216 0.6586 0.0
C213 C 0.22494 0.40238 0.65778 0.0
C214 C 0.29708 0.33317 0.68084 0.0
C215 C 0.32225 0.34165 0.67763 0.0
C216 C 0.28859 0.30515 0.68031 0.0
C217 C 0.33843 0.32194 0.67392 0.0
C218 C 0.30533 0.28609 0.67654 0.0
N219 N 0.3297 0.29481 0.67345 0.0
C220 C 0.32761 0.40575 0.68861 0.0
C221 C 0.31074 0.4374 0.67978 0.0
C222 C 0.35392 0.41848 0.68851 0.0
N223 N 0.30698 0.41488 0.68415 0.0
C224 C 0.33685 0.45075 0.67948 0.0
C225 C 0.35904 0.44087 0.68378 0.0
H226 H 0.32379 0.38796 0.69209 0.0
H227 H 0.29377 0.44446 0.67637 0.0
C228 C 0.21853 0.32209 0.6686 0.0
N229 N 0.24345 0.33493 0.66998 0.0
C230 C 0.21496 0.30651 0.6623 0.0
C231 C 0.26277 0.31765 0.65901 0.0
C232 C 0.26531 0.33314 0.66531 0.0
C233 C 0.23736 0.3041 0.65744 0.0
H234 H 0.20134 0.32416 0.67235 0.0
H235 H 0.28469 0.34401 0.6664 0.0
O236 O 0.25034 0.39714 0.69314 0.0
O237 O 0.21501 0.35156 0.68511 0.0
O238 O 0.24508 0.39905 0.67676 0.0
O239 O 0.28101 0.35219 0.68451 0.0
H240 H 0.25807 0.41216 0.70664 0.0
H241 H 0.24741 0.44313 0.68508 0.0
H242 H 0.2623 0.4614 0.71089 0.0
H243 H 0.252 0.4917 0.68971 0.0
H244 H 0.19352 0.26385 0.69295 0.0
H245 H 0.17914 0.36608 0.69532 0.0
H246 H 0.21875 0.29617 0.68472 0.0
H247 H 0.15444 0.33255 0.70332 0.0
H248 H 0.14961 0.45752 0.69635 0.0
H249 H 0.12479 0.41075 0.67748 0.0
H250 H 0.28182 0.27719 0.70676 0.0
H251 H 0.23188 0.3419 0.71689 0.0
H252 H 0.29228 0.39974 0.66922 0.0
H253 H 0.2021 0.40097 0.66773 0.0
H254 H 0.29487 0.40233 0.65594 0.0
H255 H 0.20626 0.4029 0.65448 0.0
H256 H 0.3291 0.36325 0.67794 0.0
H257 H 0.26904 0.29828 0.68268 0.0
H258 H 0.35788 0.32823 0.67139 0.0
H259 H 0.2989 0.2644 0.67605 0.0
H260 H 0.37021 0.41061 0.69203 0.0
H261 H 0.33988 0.4679 0.67575 0.0
H262 H 0.19503 0.29635 0.66127 0.0
H263 H 0.28036 0.31678 0.65532 0.0
Li264 Li 0.64783 0.75112 0.94001 0.0
Li265 Li 0.60915 0.72274 0.93553 0.0
Li266 Li 0.64096 0.74661 0.92733 0.0
Li267 Li 0.60701 0.7728 0.93439 0.0
C268 C 0.66628 0.69959 0.93014 0.0
N269 N 0.69838 0.66663 0.92109 0.0
C270 C 0.65476 0.67553 0.927 0.0
C271 C 0.69415 0.70685 0.92868 0.0
C272 C 0.67134 0.65913 0.92245 0.0
C273 C 0.71001 0.68994 0.92408 0.0
C274 C 0.59395 0.73637 0.94841 0.0
C275 C 0.55047 0.71846 0.9532 0.0
N276 N 0.56514 0.70396 0.95826 0.0
C277 C 0.60861 0.72134 0.95365 0.0
C278 C 0.56465 0.73501 0.94818 0.0
C279 C 0.59365 0.70507 0.95858 0.0
C280 C 0.66708 0.77394 0.95288 0.0
N281 N 0.67377 0.75523 0.94765 0.0
C282 C 0.71504 0.7413 0.95399 0.0
C283 C 0.69728 0.73915 0.94805 0.0
C284 C 0.70833 0.76003 0.95957 0.0
C285 C 0.68419 0.77679 0.95891 0.0
H286 H 0.64799 0.78613 0.95245 0.0
H287 H 0.7019 0.7242 0.94386 0.0
C288 C 0.56374 0.68411 0.93406 0.0
N289 N 0.58922 0.68876 0.93712 0.0
C290 C 0.55044 0.65818 0.9349 0.0
C291 C 0.58985 0.64245 0.94204 0.0
C292 C 0.60224 0.66873 0.94112 0.0
C293 C 0.56375 0.63683 0.93884 0.0
H294 H 0.55404 0.70028 0.93084 0.0
H295 H 0.62259 0.67302 0.94345 0.0
C296 C 0.66549 0.79993 0.93573 0.0
N297 N 0.70261 0.83609 0.94241 0.0
C298 C 0.65545 0.823 0.9396 0.0
C299 C 0.69442 0.7953 0.93525 0.0
C300 C 0.67456 0.84104 0.94293 0.0
C301 C 0.71284 0.81379 0.93867 0.0
C302 C 0.57916 0.75734 0.92298 0.0
C303 C 0.58567 0.76967 0.91638 0.0
C304 C 0.55191 0.75955 0.92572 0.0
C305 C 0.56479 0.78416 0.91263 0.0
C306 C 0.53164 0.77426 0.92182 0.0
N307 N 0.53844 0.78616 0.91541 0.0
C308 C 0.64965 0.72445 0.91352 0.0
C309 C 0.67822 0.76366 0.91639 0.0
C310 C 0.66137 0.72291 0.90667 0.0
N311 N 0.65831 0.74454 0.91821 0.0
C312 C 0.69044 0.76296 0.90959 0.0
C313 C 0.68193 0.74246 0.90462 0.0
H314 H 0.63336 0.70987 0.91509 0.0
H315 H 0.68436 0.77966 0.92019 0.0
C316 C 0.56673 0.81236 0.93963 0.0
N317 N 0.58486 0.80584 0.93425 0.0
C318 C 0.55295 0.83827 0.93964 0.0
C319 C 0.57647 0.84984 0.92852 0.0
C320 C 0.58984 0.82386 0.92874 0.0
C321 C 0.5581 0.85758 0.93408 0.0
H322 H 0.56364 0.79782 0.94402 0.0
H323 H 0.60477 0.81824 0.92461 0.0
O324 O 0.65023 0.71623 0.93451 0.0
O325 O 0.60823 0.75182 0.94341 0.0
O326 O 0.64712 0.78164 0.93256 0.0
O327 O 0.59943 0.74347 0.9268 0.0
H328 H 0.63315 0.66976 0.92799 0.0
H329 H 0.7033 0.72559 0.93097 0.0
H330 H 0.66266 0.64053 0.91996 0.0
H331 H 0.73154 0.69542 0.92287 0.0
H332 H 0.5278 0.71708 0.95307 0.0
H333 H 0.6313 0.72194 0.95386 0.0
H334 H 0.553 0.74633 0.94413 0.0
H335 H 0.60472 0.69323 0.96265 0.0
H336 H 0.73351 0.72809 0.95428 0.0
H337 H 0.67789 0.79108 0.96314 0.0
H338 H 0.53044 0.65455 0.93229 0.0
H339 H 0.60066 0.62661 0.94516 0.0
H340 H 0.63316 0.82681 0.9401 0.0
H341 H 0.70257 0.77737 0.93235 0.0
H342 H 0.66707 0.85891 0.94597 0.0
H343 H 0.73526 0.81035 0.93838 0.0
H344 H 0.60667 0.76835 0.9142 0.0
H345 H 0.54658 0.75043 0.93086 0.0
H346 H 0.56956 0.79391 0.90753 0.0
H347 H 0.51053 0.77631 0.92389 0.0
H348 H 0.65393 0.70705 0.90296 0.0
H349 H 0.7064 0.77828 0.90824 0.0
H350 H 0.53926 0.84353 0.94409 0.0
H351 H 0.58077 0.86387 0.92408 0.0
Li352 Li 0.24886 0.35995 0.06407 0.0
Li353 Li 0.22298 0.39484 0.05704 0.0
Li354 Li 0.24338 0.35307 0.05147 0.0
Li355 Li 0.27365 0.39125 0.05579 0.0
C356 C 0.1942 0.33719 0.0559 0.0
N357 N 0.15682 0.30113 0.04928 0.0
C358 C 0.17152 0.34789 0.052 0.0
C359 C 0.19778 0.30813 0.05646 0.0
C360 C 0.15286 0.32932 0.04869 0.0
C361 C 0.17869 0.29026 0.05307 0.0
C362 C 0.24277 0.42304 0.06848 0.0
C363 C 0.23399 0.47253 0.07004 0.0
N364 N 0.222 0.46713 0.07653 0.0
C365 C 0.23055 0.41798 0.07518 0.0
C366 C 0.2447 0.45052 0.06591 0.0
C367 C 0.2201 0.44056 0.07916 0.0
C368 C 0.27165 0.35141 0.07781 0.0
N369 N 0.25102 0.34305 0.07324 0.0
C370 C 0.23269 0.31144 0.082 0.0
C371 C 0.23167 0.32356 0.07519 0.0
C372 C 0.25372 0.31967 0.08686 0.0
C373 C 0.27346 0.33986 0.08468 0.0
H374 H 0.2865 0.36728 0.07613 0.0
H375 H 0.2153 0.3176 0.07148 0.0
C376 C 0.18307 0.4316 0.05085 0.0
N377 N 0.19105 0.41859 0.05701 0.0
C378 C 0.1576 0.44611 0.05055 0.0
C379 C 0.14957 0.43421 0.06301 0.0
C380 C 0.17487 0.41949 0.06302 0.0
C381 C 0.1405 0.44733 0.05668 0.0
H382 H 0.19592 0.42981 0.04609 0.0
H383 H 0.18111 0.4079 0.06774 0.0
C384 C 0.29584 0.33416 0.06115 0.0
N385 N 0.32965 0.3028 0.07016 0.0
C386 C 0.32106 0.34532 0.06371 0.0
C387 C 0.28792 0.30697 0.06312 0.0
C388 C 0.33785 0.32914 0.06827 0.0
C389 C 0.30525 0.29149 0.0677 0.0
C390 C 0.25581 0.40857 0.04277 0.0
C391 C 0.26694 0.39586 0.03663 0.0
C392 C 0.25664 0.43777 0.04346 0.0
C393 C 0.279 0.41263 0.0313 0.0
C394 C 0.26891 0.45381 0.03802 0.0
N395 N 0.27975 0.44101 0.03211 0.0
C396 C 0.22062 0.33485 0.03847 0.0
C397 C 0.25036 0.30136 0.04402 0.0
C398 C 0.21632 0.31704 0.03264 0.0
N399 N 0.23769 0.32691 0.04395 0.0
C400 C 0.24641 0.28272 0.03833 0.0
C401 C 0.22956 0.29066 0.03246 0.0
H402 H 0.21082 0.35534 0.03858 0.0
H403 H 0.26375 0.29557 0.04846 0.0
C404 C 0.31675 0.42803 0.05987 0.0
N405 N 0.30776 0.41136 0.05442 0.0
C406 C 0.34274 0.44145 0.05945 0.0
C407 C 0.3495 0.42081 0.04772 0.0
C408 C 0.32362 0.40732 0.04845 0.0
C409 C 0.35964 0.43794 0.05331 0.0
H410 H 0.30413 0.43021 0.06467 0.0
H411 H 0.31648 0.39318 0.0443 0.0
O412 O 0.21312 0.35503 0.05902 0.0
O413 O 0.25293 0.40121 0.06448 0.0
O414 O 0.27885 0.34987 0.05679 0.0
O415 O 0.24401 0.39251 0.04805 0.0
H416 H 0.16847 0.37028 0.05147 0.0
H417 H 0.21542 0.29946 0.05937 0.0
H418 H 0.13529 0.33732 0.04563 0.0
H419 H 0.18134 0.26774 0.05341 0.0
H420 H 0.23523 0.4939 0.0681 0.0
H421 H 0.22885 0.39684 0.07725 0.0
H422 H 0.25436 0.45481 0.06077 0.0
H423 H 0.21043 0.43695 0.08433 0.0
H424 H 0.21723 0.29575 0.08343 0.0
H425 H 0.28975 0.3471 0.08829 0.0
H426 H 0.15111 0.45587 0.04556 0.0
H427 H 0.13662 0.43425 0.06779 0.0
H428 H 0.32756 0.36629 0.06225 0.0
H429 H 0.26831 0.29812 0.06126 0.0
H430 H 0.35737 0.33755 0.07031 0.0
H431 H 0.29924 0.27053 0.06932 0.0
H432 H 0.2666 0.37328 0.03602 0.0
H433 H 0.24792 0.44793 0.04815 0.0
H434 H 0.28784 0.40308 0.02654 0.0
H435 H 0.26979 0.47642 0.0385 0.0
H436 H 0.20357 0.32436 0.0282 0.0
H437 H 0.25673 0.26247 0.03848 0.0
H438 H 0.34979 0.45371 0.064 0.0
H439 H 0.36146 0.4176 0.04285 0.0
Li440 Li 0.63885 0.74725 0.31386 0.0
Li441 Li 0.60655 0.72201 0.30638 0.0
Li442 Li 0.64725 0.74779 0.30137 0.0
Li443 Li 0.60801 0.77504 0.30615 0.0
C444 C 0.66278 0.69669 0.31167 0.0
N445 N 0.69485 0.66066 0.31991 0.0
C446 C 0.65092 0.67215 0.31446 0.0
C447 C 0.69101 0.70275 0.31301 0.0
C448 C 0.66748 0.65423 0.31863 0.0
C449 C 0.70684 0.68433 0.31721 0.0
C450 C 0.59114 0.74639 0.32122 0.0
C451 C 0.584 0.76732 0.33287 0.0
N452 N 0.58151 0.74127 0.33579 0.0
C453 C 0.58844 0.71983 0.32433 0.0
C454 C 0.58879 0.77034 0.32551 0.0
C455 C 0.58357 0.71768 0.33171 0.0
C456 C 0.66767 0.77325 0.32519 0.0
N457 N 0.65602 0.74845 0.32314 0.0
C458 C 0.66636 0.72823 0.33458 0.0
C459 C 0.6552 0.72612 0.32769 0.0
C460 C 0.67838 0.75364 0.33685 0.0
C461 C 0.67913 0.77631 0.33204 0.0
H462 H 0.66759 0.79089 0.32154 0.0
H463 H 0.64539 0.70678 0.32604 0.0
C464 C 0.59521 0.66959 0.30063 0.0
N465 N 0.5845 0.68933 0.30512 0.0
C466 C 0.58194 0.64366 0.29989 0.0
C467 C 0.54621 0.65932 0.30821 0.0
C468 C 0.56013 0.68504 0.30875 0.0
C469 C 0.55742 0.638 0.30383 0.0
H470 H 0.61454 0.67377 0.29777 0.0
H471 H 0.55192 0.70128 0.31223 0.0
C472 C 0.66939 0.79614 0.3053 0.0
N473 N 0.71232 0.82788 0.29951 0.0
C474 C 0.66323 0.81924 0.30094 0.0
C475 C 0.69735 0.78936 0.30677 0.0
C476 C 0.68525 0.83499 0.29805 0.0
C477 C 0.71876 0.80561 0.30377 0.0
C478 C 0.58282 0.74761 0.29425 0.0
C479 C 0.58245 0.74793 0.28675 0.0
C480 C 0.55754 0.7461 0.29805 0.0
C481 C 0.5567 0.74692 0.28316 0.0
C482 C 0.53224 0.74508 0.29427 0.0
N483 N 0.53234 0.74552 0.28696 0.0
C484 C 0.69296 0.7258 0.29339 0.0
C485 C 0.67197 0.76697 0.28864 0.0
C486 C 0.71113 0.7241 0.28752 0.0
N487 N 0.67386 0.74697 0.29382 0.0
C488 C 0.69001 0.76636 0.28275 0.0
C489 C 0.70966 0.74453 0.2821 0.0
H490 H 0.69358 0.70984 0.29751 0.0
H491 H 0.65598 0.78302 0.28901 0.0
C492 C 0.59548 0.82876 0.3107 0.0
N493 N 0.5886 0.81001 0.30549 0.0
C494 C 0.58382 0.85562 0.31071 0.0
C495 C 0.55834 0.84366 0.29992 0.0
C496 C 0.57065 0.81703 0.30009 0.0
C497 C 0.56489 0.8634 0.30528 0.0
H498 H 0.6106 0.82299 0.31477 0.0
H499 H 0.56609 0.80231 0.29586 0.0
O500 O 0.64695 0.7144 0.30754 0.0
O501 O 0.59628 0.7489 0.31401 0.0
O502 O 0.64816 0.78024 0.30811 0.0
O503 O 0.60791 0.74807 0.29782 0.0
H504 H 0.62911 0.66712 0.31349 0.0
H505 H 0.70055 0.72154 0.31085 0.0
H506 H 0.65855 0.63526 0.32086 0.0
H507 H 0.72868 0.68884 0.31833 0.0
H508 H 0.58227 0.78569 0.33626 0.0
H509 H 0.59078 0.70103 0.32113 0.0
H510 H 0.59076 0.79104 0.3232 0.0
H511 H 0.58167 0.69725 0.3342 0.0
H512 H 0.66556 0.71014 0.3381 0.0
H513 H 0.68783 0.7964 0.33361 0.0
H514 H 0.59101 0.6281 0.29634 0.0
H515 H 0.52747 0.65586 0.31138 0.0
H516 H 0.64171 0.82476 0.29973 0.0
H517 H 0.70243 0.77172 0.31018 0.0
H518 H 0.68081 0.85281 0.29464 0.0
H519 H 0.74051 0.80052 0.30484 0.0
H520 H 0.60187 0.74894 0.28374 0.0
H521 H 0.55741 0.74593 0.30386 0.0
H522 H 0.55608 0.7472 0.27736 0.0
H523 H 0.51252 0.74397 0.29713 0.0
H524 H 0.72591 0.70687 0.28717 0.0
H525 H 0.68783 0.78213 0.2786 0.0
H526 H 0.59008 0.87031 0.31485 0.0
H527 H 0.54381 0.84867 0.29563 0.0
Li528 Li 0.2442 0.13906 0.5646 0.0
Li529 Li 0.27159 0.10389 0.55799 0.0
Li530 Li 0.25156 0.14406 0.55163 0.0
Li531 Li 0.22246 0.10631 0.55593 0.0
C532 C 0.30279 0.15937 0.55733 0.0
N533 N 0.34887 0.18991 0.55279 0.0
C534 C 0.32326 0.14682 0.55301 0.0
C535 C 0.30596 0.18741 0.55941 0.0
C536 C 0.34634 0.16261 0.55075 0.0
C537 C 0.32935 0.20251 0.55704 0.0
C538 C 0.25329 0.07752 0.56936 0.0
C539 C 0.26949 0.03007 0.57118 0.0
N540 N 0.27969 0.03755 0.57772 0.0
C541 C 0.26379 0.08471 0.57612 0.0
C542 C 0.25599 0.04995 0.56687 0.0
C543 C 0.27711 0.0642 0.58026 0.0
C544 C 0.21478 0.15845 0.57674 0.0
N545 N 0.24031 0.15738 0.5735 0.0
C546 C 0.26201 0.17989 0.58349 0.0
C547 C 0.26369 0.16791 0.57668 0.0
C548 C 0.23604 0.18084 0.58707 0.0
C549 C 0.21213 0.17023 0.58358 0.0
H550 H 0.19664 0.14963 0.57407 0.0
H551 H 0.28373 0.16645 0.57398 0.0
C552 C 0.31104 0.06275 0.5535 0.0
N553 N 0.30422 0.0813 0.55876 0.0
C554 C 0.33669 0.04858 0.55372 0.0
C555 C 0.3474 0.07247 0.56485 0.0
C556 C 0.32163 0.08623 0.5644 0.0
C557 C 0.35546 0.05372 0.5594 0.0
H558 H 0.29702 0.05972 0.549 0.0
H559 H 0.31578 0.10147 0.56844 0.0
C560 C 0.20466 0.1737 0.5575 0.0
N561 N 0.18208 0.22695 0.55864 0.0
C562 C 0.17675 0.17857 0.55554 0.0
C563 C 0.22101 0.19585 0.56008 0.0
C564 C 0.16574 0.20566 0.55614 0.0
C565 C 0.20924 0.22263 0.56061 0.0
C566 C 0.23891 0.0894 0.54345 0.0
C567 C 0.22641 0.10337 0.53768 0.0
C568 C 0.23641 0.06024 0.54402 0.0
C569 C 0.21147 0.0879 0.53258 0.0
C570 C 0.22124 0.04554 0.53882 0.0
N571 N 0.20919 0.05956 0.53325 0.0
C572 C 0.28022 0.16022 0.53943 0.0
C573 C 0.24321 0.19173 0.54211 0.0
C574 C 0.28677 0.17511 0.53321 0.0
N575 N 0.25884 0.1687 0.54375 0.0
C576 C 0.24883 0.2071 0.53589 0.0
C577 C 0.27066 0.19862 0.53129 0.0
H578 H 0.29169 0.1413 0.5407 0.0
H579 H 0.22574 0.19774 0.54545 0.0
C580 C 0.18244 0.06287 0.55783 0.0
N581 N 0.18867 0.08652 0.55408 0.0
C582 C 0.15656 0.04963 0.55688 0.0
C583 C 0.14424 0.08516 0.54815 0.0
C584 C 0.17033 0.09771 0.54928 0.0
C585 C 0.13691 0.06098 0.55205 0.0
H586 H 0.19723 0.05471 0.5617 0.0
H587 H 0.17584 0.11668 0.54642 0.0
O588 O 0.27997 0.14425 0.5596 0.0
O589 O 0.24061 0.09741 0.56517 0.0
O590 O 0.21557 0.1472 0.55703 0.0
O591 O 0.25313 0.10422 0.54858 0.0
H592 H 0.32118 0.12525 0.5513 0.0
H593 H 0.29066 0.19747 0.56284 0.0
H594 H 0.36219 0.15319 0.54736 0.0
H595 H 0.332 0.22424 0.55859 0.0
H596 H 0.27192 0.00871 0.5693 0.0
H597 H 0.26184 0.10591 0.57814 0.0
H598 H 0.24811 0.04406 0.56164 0.0
H599 H 0.28544 0.0695 0.5855 0.0
H600 H 0.28089 0.18819 0.58594 0.0
H601 H 0.19179 0.17027 0.58617 0.0
H602 H 0.34222 0.03465 0.54935 0.0
H603 H 0.36105 0.07682 0.56937 0.0
H604 H 0.16372 0.16159 0.55359 0.0
H605 H 0.24257 0.19239 0.56162 0.0
H606 H 0.14419 0.20976 0.55463 0.0
H607 H 0.2217 0.23997 0.56259 0.0
H608 H 0.22794 0.12594 0.53718 0.0
H609 H 0.24579 0.04912 0.54848 0.0
H610 H 0.20158 0.09845 0.5281 0.0
H611 H 0.21899 0.02299 0.53921 0.0
H612 H 0.30391 0.16784 0.52987 0.0
H613 H 0.2354 0.22468 0.53455 0.0
H614 H 0.15163 0.03129 0.56007 0.0
H615 H 0.12987 0.09444 0.54432 0.0
Li616 Li 0.89646 0.77315 0.80722 0.0
Li617 Li 0.85935 0.74675 0.81317 0.0
Li618 Li 0.89523 0.72163 0.80574 0.0
Li619 Li 0.85798 0.7499 0.80037 0.0
C620 C 0.9244 0.74336 0.81878 0.0
N621 N 0.97259 0.74198 0.82705 0.0
C622 C 0.92358 0.75176 0.82597 0.0
C623 C 0.94966 0.73376 0.81584 0.0
C624 C 0.94819 0.75107 0.83005 0.0
C625 C 0.97381 0.73335 0.8201 0.0
C626 C 0.83804 0.79757 0.81127 0.0
C627 C 0.792 0.8076 0.81602 0.0
N628 N 0.80279 0.82979 0.8197 0.0
C629 C 0.84864 0.82059 0.81505 0.0
C630 C 0.80946 0.79112 0.81171 0.0
C631 C 0.83049 0.83659 0.8193 0.0
C632 C 0.91642 0.82295 0.80166 0.0
N633 N 0.91829 0.80633 0.80756 0.0
C634 C 0.94614 0.84062 0.81362 0.0
C635 C 0.93291 0.81447 0.81347 0.0
C636 C 0.94403 0.85858 0.80765 0.0
C637 C 0.92922 0.84927 0.80158 0.0
H638 H 0.90425 0.81602 0.79708 0.0
H639 H 0.93371 0.80113 0.81814 0.0
C640 C 0.81823 0.72488 0.82265 0.0
N641 N 0.83806 0.74507 0.82173 0.0
C642 C 0.80271 0.72377 0.82901 0.0
C643 C 0.82843 0.76421 0.83331 0.0
C644 C 0.84347 0.76445 0.8269 0.0
C645 C 0.80775 0.74367 0.83443 0.0
H646 H 0.81453 0.70961 0.81847 0.0
H647 H 0.85951 0.78013 0.82603 0.0
C648 C 0.92259 0.75083 0.79405 0.0
N649 N 0.97054 0.7511 0.78568 0.0
C650 C 0.92109 0.74388 0.78676 0.0
C651 C 0.94845 0.75833 0.79704 0.0
C652 C 0.94557 0.74401 0.78263 0.0
C653 C 0.97245 0.75823 0.79273 0.0
C654 C 0.83528 0.70021 0.80236 0.0
C655 C 0.84469 0.67797 0.79809 0.0
C656 C 0.80673 0.70701 0.80246 0.0
C657 C 0.82537 0.66308 0.79393 0.0
C658 C 0.78808 0.69165 0.79821 0.0
N659 N 0.79771 0.67019 0.79406 0.0
C660 C 0.91061 0.66911 0.81053 0.0
C661 C 0.93297 0.68078 0.79956 0.0
C662 C 0.92286 0.64252 0.81047 0.0
N663 N 0.91567 0.68749 0.80511 0.0
C664 C 0.94587 0.65446 0.79931 0.0
C665 C 0.9406 0.63486 0.80478 0.0
H666 H 0.89664 0.67505 0.81486 0.0
H667 H 0.93642 0.69551 0.79525 0.0
C668 C 0.81525 0.77342 0.79153 0.0
N669 N 0.83515 0.75306 0.79209 0.0
C670 C 0.79984 0.77635 0.78519 0.0
C671 C 0.82567 0.73721 0.7802 0.0
C672 C 0.84041 0.73497 0.78662 0.0
C673 C 0.80535 0.75834 0.77939 0.0
H674 H 0.81174 0.78773 0.79595 0.0
H675 H 0.85634 0.71899 0.78723 0.0
O676 O 0.90038 0.74371 0.81473 0.0
O677 O 0.85557 0.7814 0.80717 0.0
O678 O 0.89873 0.7509 0.79816 0.0
O679 O 0.85393 0.71531 0.80639 0.0
H680 H 0.90421 0.75888 0.82838 0.0
H681 H 0.95066 0.72643 0.81037 0.0
H682 H 0.94787 0.75771 0.83561 0.0
H683 H 0.99349 0.72605 0.81788 0.0
H684 H 0.76989 0.80271 0.81646 0.0
H685 H 0.87068 0.82594 0.81477 0.0
H686 H 0.80091 0.77339 0.80882 0.0
H687 H 0.83843 0.85437 0.82229 0.0
H688 H 0.95758 0.84684 0.81838 0.0
H689 H 0.92663 0.86255 0.7969 0.0
H690 H 0.78683 0.7077 0.82965 0.0
H691 H 0.83331 0.77965 0.83739 0.0
H692 H 0.90127 0.73837 0.78432 0.0
H693 H 0.95002 0.76444 0.8026 0.0
H694 H 0.94471 0.73852 0.777 0.0
H695 H 0.99259 0.76394 0.79499 0.0
H696 H 0.86671 0.67243 0.79794 0.0
H697 H 0.7991 0.72413 0.80574 0.0
H698 H 0.83237 0.64592 0.79057 0.0
H699 H 0.76596 0.6968 0.7982 0.0
H700 H 0.91849 0.62811 0.81483 0.0
H701 H 0.95919 0.64922 0.79479 0.0
H702 H 0.78445 0.793 0.78475 0.0
H703 H 0.83022 0.72262 0.77589 0.0
Li704 Li 0.74187 0.64223 0.68959 0.0
Li705 Li 0.7718 0.60587 0.68445 0.0
Li706 Li 0.75022 0.64165 0.67693 0.0
Li707 Li 0.72221 0.60463 0.68234 0.0
C708 C 0.79659 0.6645 0.68138 0.0
N709 N 0.83274 0.69945 0.67398 0.0
C710 C 0.82132 0.65378 0.67841 0.0
C711 C 0.79029 0.69301 0.68061 0.0
C712 C 0.83933 0.6718 0.67469 0.0
C713 C 0.80881 0.71032 0.67684 0.0
C714 C 0.75429 0.58469 0.69654 0.0
C715 C 0.77194 0.53939 0.70016 0.0
N716 N 0.78292 0.5512 0.70619 0.0
C717 C 0.76569 0.59638 0.70277 0.0
C718 C 0.75734 0.55595 0.69522 0.0
C719 C 0.78009 0.57909 0.70759 0.0
C720 C 0.71435 0.65584 0.70236 0.0
N721 N 0.73504 0.66443 0.69784 0.0
C722 C 0.74614 0.70295 0.70552 0.0
C723 C 0.75078 0.68755 0.69926 0.0
C724 C 0.72524 0.69429 0.71037 0.0
C725 C 0.70898 0.6706 0.70867 0.0
H726 H 0.70232 0.63723 0.70109 0.0
H727 H 0.76733 0.69365 0.69561 0.0
C728 C 0.81203 0.56351 0.68141 0.0
N729 N 0.80525 0.58491 0.68591 0.0
C730 C 0.83756 0.54942 0.68219 0.0
C731 C 0.84851 0.57955 0.69226 0.0
C732 C 0.8228 0.59307 0.69127 0.0
C733 C 0.85633 0.55759 0.68763 0.0
H734 H 0.79794 0.55784 0.6771 0.0
H735 H 0.81701 0.61047 0.6947 0.0
C736 C 0.69457 0.6625 0.68489 0.0
N737 N 0.65665 0.69705 0.69183 0.0
C738 C 0.67011 0.65126 0.68788 0.0
C739 C 0.6997 0.69133 0.68542 0.0
C740 C 0.6512 0.66908 0.69137 0.0
C741 C 0.6803 0.70843 0.68896 0.0
C742 C 0.74045 0.58267 0.67048 0.0
C743 C 0.72835 0.59285 0.66415 0.0
C744 C 0.73867 0.55407 0.6721 0.0
C745 C 0.71457 0.57419 0.65956 0.0
C746 C 0.72466 0.53611 0.66737 0.0
N747 N 0.713 0.54646 0.66125 0.0
C748 C 0.77592 0.65527 0.66387 0.0
C749 C 0.73765 0.68477 0.66696 0.0
C750 C 0.77949 0.66942 0.65738 0.0
N751 N 0.75521 0.6631 0.66848 0.0
C752 C 0.74053 0.69959 0.66054 0.0
C753 C 0.7615 0.69175 0.65563 0.0
H754 H 0.78934 0.63771 0.6652 0.0
H755 H 0.72103 0.69016 0.67065 0.0
C756 C 0.6833 0.56123 0.68558 0.0
N757 N 0.68958 0.58255 0.68101 0.0
C758 C 0.65759 0.54731 0.68502 0.0
C759 C 0.64567 0.57729 0.67499 0.0
C760 C 0.67159 0.59055 0.67574 0.0
C761 C 0.63819 0.5557 0.67975 0.0
H762 H 0.6978 0.55569 0.68981 0.0
H763 H 0.67704 0.6079 0.67226 0.0
O764 O 0.77839 0.64709 0.68492 0.0
O765 O 0.74058 0.60134 0.69169 0.0
O766 O 0.71365 0.64532 0.68158 0.0
O767 O 0.75354 0.60067 0.67512 0.0
H768 H 0.82644 0.63175 0.67889 0.0
H769 H 0.77109 0.7016 0.6828 0.0
H770 H 0.85849 0.66376 0.67234 0.0
H771 H 0.8041 0.73238 0.67616 0.0
H772 H 0.77462 0.51716 0.69918 0.0
H773 H 0.76374 0.6186 0.70385 0.0
H774 H 0.74886 0.54661 0.69039 0.0
H775 H 0.78913 0.58787 0.71242 0.0
H776 H 0.7595 0.72078 0.70669 0.0
H777 H 0.69257 0.66332 0.71224 0.0
H778 H 0.84291 0.53294 0.67843 0.0
H779 H 0.86219 0.58637 0.69656 0.0
H780 H 0.6659 0.62899 0.68761 0.0
H781 H 0.71871 0.70035 0.68324 0.0
H782 H 0.63224 0.66064 0.69373 0.0
H783 H 0.68412 0.73074 0.68945 0.0
H784 H 0.7293 0.61494 0.66284 0.0
H785 H 0.74766 0.54589 0.677 0.0
H786 H 0.70502 0.58179 0.65466 0.0
H787 H 0.72297 0.51396 0.66858 0.0
H788 H 0.79602 0.66285 0.65376 0.0
H789 H 0.72594 0.71638 0.65934 0.0
H790 H 0.65248 0.53102 0.68886 0.0
H791 H 0.63142 0.58422 0.67082 0.0
Li792 Li 0.35674 0.2466 0.94312 0.0
Li793 Li 0.39258 0.27402 0.93787 0.0
Li794 Li 0.35954 0.25003 0.93038 0.0
Li795 Li 0.39694 0.22307 0.93687 0.0
C796 C 0.33182 0.29268 0.94145 0.0
N797 N 0.2918 0.31504 0.95056 0.0
C798 C 0.3399 0.30997 0.94715 0.0
C799 C 0.30337 0.28682 0.94037 0.0
C800 C 0.31936 0.32106 0.9517 0.0
C801 C 0.28347 0.29831 0.94503 0.0
C802 C 0.42036 0.25549 0.94949 0.0
C803 C 0.46928 0.25129 0.9527 0.0
N804 N 0.46667 0.27391 0.95711 0.0
C805 C 0.41818 0.27868 0.95407 0.0
C806 C 0.44614 0.24167 0.9488 0.0
C807 C 0.44183 0.28768 0.95786 0.0
C808 C 0.30735 0.22865 0.95064 0.0
N809 N 0.33282 0.24137 0.95122 0.0
C810 C 0.32757 0.24515 0.96392 0.0
C811 C 0.34302 0.24966 0.95769 0.0
C812 C 0.30136 0.23177 0.96352 0.0
C813 C 0.29105 0.22377 0.95676 0.0
H814 H 0.29981 0.222 0.94545 0.0
H815 H 0.36333 0.25951 0.95802 0.0
C816 C 0.39821 0.3321 0.93653 0.0
N817 N 0.41321 0.30876 0.93824 0.0
C818 C 0.41077 0.35851 0.93667 0.0
C819 C 0.45447 0.33652 0.94009 0.0
C820 C 0.44107 0.31045 0.93981 0.0
C821 C 0.43919 0.36109 0.93858 0.0
H822 H 0.3764 0.33022 0.93502 0.0
H823 H 0.45298 0.29162 0.94086 0.0
C824 C 0.33996 0.19858 0.93178 0.0
N825 N 0.30861 0.16604 0.92246 0.0
C826 C 0.35205 0.17528 0.92842 0.0
C827 C 0.31184 0.2052 0.93043 0.0
C828 C 0.33586 0.15911 0.92373 0.0
C829 C 0.29637 0.18855 0.92569 0.0
C830 C 0.4204 0.26677 0.92578 0.0
C831 C 0.41192 0.28881 0.92133 0.0
C832 C 0.44897 0.26187 0.92693 0.0
C833 C 0.43229 0.30584 0.91814 0.0
C834 C 0.46869 0.27934 0.92363 0.0
N835 N 0.46001 0.30079 0.91935 0.0
C836 C 0.31984 0.2704 0.92026 0.0
C837 C 0.34893 0.2331 0.91628 0.0
C838 C 0.30605 0.27106 0.91365 0.0
N839 N 0.34057 0.25138 0.92146 0.0
C840 C 0.33565 0.23291 0.90961 0.0
C841 C 0.31384 0.25202 0.90824 0.0
H842 H 0.31409 0.28513 0.92442 0.0
H843 H 0.36592 0.21861 0.91735 0.0
C844 C 0.41544 0.17267 0.94245 0.0
N845 N 0.4187 0.19005 0.93674 0.0
C846 C 0.42795 0.14623 0.94246 0.0
C847 C 0.44746 0.15633 0.93075 0.0
C848 C 0.43448 0.18264 0.93096 0.0
C849 C 0.44383 0.13758 0.9365 0.0
H850 H 0.40247 0.17916 0.94693 0.0
H851 H 0.43615 0.19673 0.92643 0.0
O852 O 0.35173 0.28094 0.93708 0.0
O853 O 0.39736 0.24608 0.94579 0.0
O854 O 0.35562 0.21497 0.93631 0.0
O855 O 0.40078 0.25036 0.92909 0.0
H856 H 0.3618 0.31457 0.94811 0.0
H857 H 0.29671 0.27318 0.93605 0.0
H858 H 0.32534 0.33437 0.95615 0.0
H859 H 0.2614 0.2938 0.94429 0.0
H860 H 0.48935 0.24082 0.95221 0.0
H861 H 0.39861 0.28996 0.9546 0.0
H862 H 0.44838 0.2238 0.94528 0.0
H863 H 0.44045 0.30569 0.96139 0.0
H864 H 0.33608 0.2521 0.96902 0.0
H865 H 0.27098 0.21329 0.95623 0.0
H866 H 0.39834 0.3767 0.93524 0.0
H867 H 0.47643 0.3374 0.94157 0.0
H868 H 0.37372 0.16975 0.92939 0.0
H869 H 0.30222 0.22337 0.93289 0.0
H870 H 0.345 0.14108 0.92108 0.0
H871 H 0.27469 0.19362 0.92455 0.0
H872 H 0.38984 0.29289 0.92042 0.0
H873 H 0.45582 0.24502 0.93042 0.0
H874 H 0.42607 0.3231 0.91472 0.0
H875 H 0.49089 0.27593 0.9245 0.0
H876 H 0.28929 0.28608 0.91281 0.0
H877 H 0.34266 0.21825 0.90554 0.0
H878 H 0.42492 0.13255 0.94704 0.0
H879 H 0.45926 0.15033 0.92602 0.0
Li880 Li 0.74607 0.85282 0.1911 0.0
Li881 Li 0.71619 0.8893 0.18647 0.0
Li882 Li 0.74404 0.85872 0.17848 0.0
Li883 Li 0.76864 0.89358 0.18565 0.0
C884 C 0.69719 0.82662 0.18743 0.0
N885 N 0.66609 0.78219 0.19269 0.0
C886 C 0.67135 0.83149 0.19077 0.0
C887 C 0.70713 0.79913 0.18673 0.0
C888 C 0.65596 0.80875 0.1934 0.0
C889 C 0.69112 0.77696 0.18944 0.0
C890 C 0.739 0.88956 0.20152 0.0
C891 C 0.75607 0.88578 0.21368 0.0
N892 N 0.72958 0.87993 0.21596 0.0
C893 C 0.71194 0.88354 0.20399 0.0
C894 C 0.76125 0.8908 0.2064 0.0
C895 C 0.7076 0.87877 0.2113 0.0
C896 C 0.77936 0.82223 0.20061 0.0
N897 N 0.75206 0.82712 0.19885 0.0
C898 C 0.73643 0.80033 0.20893 0.0
C899 C 0.73071 0.81662 0.20289 0.0
C900 C 0.76436 0.79559 0.21095 0.0
C901 C 0.78604 0.80662 0.20672 0.0
H902 H 0.79595 0.83141 0.19742 0.0
H903 H 0.70924 0.82183 0.20166 0.0
C904 C 0.66133 0.90105 0.18246 0.0
N905 N 0.68179 0.90908 0.1871 0.0
C906 C 0.63493 0.91365 0.18272 0.0
C907 C 0.65145 0.9433 0.19238 0.0
C908 C 0.67756 0.93001 0.19195 0.0
C909 C 0.62961 0.93488 0.18777 0.0
H910 H 0.66548 0.88452 0.17862 0.0
H911 H 0.69436 0.93611 0.19553 0.0
C912 C 0.79493 0.8382 0.18017 0.0
N913 N 0.82845 0.80672 0.17113 0.0
C914 C 0.81485 0.85139 0.17582 0.0
C915 C 0.79228 0.809 0.18 0.0
C916 C 0.83155 0.8351 0.17127 0.0
C917 C 0.80935 0.79345 0.17538 0.0
C918 C 0.73607 0.92799 0.1765 0.0
C919 C 0.73018 0.93663 0.1695 0.0
C920 C 0.73741 0.94787 0.18202 0.0
C921 C 0.72581 0.96512 0.16811 0.0
C922 C 0.73289 0.97616 0.18041 0.0
N923 N 0.72724 0.98413 0.17355 0.0
C924 C 0.72714 0.81924 0.16798 0.0
C925 C 0.76081 0.85263 0.16411 0.0
C926 C 0.72669 0.80691 0.16119 0.0
N927 N 0.74415 0.84153 0.16931 0.0
C928 C 0.76116 0.84086 0.15725 0.0
C929 C 0.74385 0.81774 0.15572 0.0
H930 H 0.71367 0.8112 0.17216 0.0
H931 H 0.77367 0.87077 0.16529 0.0
C932 C 0.81993 0.91057 0.19121 0.0
N933 N 0.80137 0.91633 0.18587 0.0
C934 C 0.84609 0.92371 0.19137 0.0
C935 C 0.83366 0.94848 0.1805 0.0
C936 C 0.80772 0.93481 0.18055 0.0
C937 C 0.85338 0.94274 0.18592 0.0
H938 H 0.81482 0.89486 0.19518 0.0
H939 H 0.79313 0.93828 0.1762 0.0
O940 O 0.71242 0.84862 0.18476 0.0
O941 O 0.74376 0.89342 0.19434 0.0
O942 O 0.77803 0.8538 0.18456 0.0
O943 O 0.74004 0.90011 0.17794 0.0
H944 H 0.66334 0.8526 0.19138 0.0
H945 H 0.72708 0.79497 0.18417 0.0
H946 H 0.63599 0.81222 0.19603 0.0
H947 H 0.69862 0.7556 0.18897 0.0
H948 H 0.77313 0.88649 0.21751 0.0
H949 H 0.69455 0.88199 0.20028 0.0
H950 H 0.78233 0.89535 0.20461 0.0
H951 H 0.6868 0.87391 0.21327 0.0
H952 H 0.71921 0.79273 0.2122 0.0
H953 H 0.80783 0.80363 0.20821 0.0
H954 H 0.61887 0.90688 0.17898 0.0
H955 H 0.64819 0.9595 0.19637 0.0
H956 H 0.81717 0.87399 0.17589 0.0
H957 H 0.77718 0.79848 0.1834 0.0
H958 H 0.84692 0.84504 0.16783 0.0
H959 H 0.80744 0.77084 0.17516 0.0
H960 H 0.72899 0.92144 0.16518 0.0
H961 H 0.74194 0.9416 0.18747 0.0
H962 H 0.72126 0.97212 0.16271 0.0
H963 H 0.73388 0.99178 0.18462 0.0
H964 H 0.71316 0.78902 0.16024 0.0
H965 H 0.77438 0.8501 0.15315 0.0
H966 H 0.86087 0.91811 0.19555 0.0
H967 H 0.83839 0.96303 0.1762 0.0
Li968 Li 0.1034 0.22301 0.43736 0.0
Li969 Li 0.14226 0.25068 0.44228 0.0
Li970 Li 0.10186 0.2746 0.43606 0.0
Li971 Li 0.13721 0.24805 0.4295 0.0
C972 C 0.08229 0.24972 0.45035 0.0
N973 N 0.04277 0.2456 0.46118 0.0
C974 C 0.08923 0.23696 0.45688 0.0
C975 C 0.05534 0.26076 0.44939 0.0
C976 C 0.06893 0.23497 0.46227 0.0
C977 C 0.03564 0.25836 0.45491 0.0
C978 C 0.16375 0.19985 0.43942 0.0
C979 C 0.21173 0.18982 0.44268 0.0
N980 N 0.20299 0.16652 0.44626 0.0
C981 C 0.15525 0.17572 0.44309 0.0
C982 C 0.19223 0.20689 0.43917 0.0
C983 C 0.17541 0.15917 0.44653 0.0
C984 C 0.0854 0.17184 0.43229 0.0
N985 N 0.08254 0.18907 0.43806 0.0
C986 C 0.05388 0.15517 0.44404 0.0
C987 C 0.06699 0.1814 0.44386 0.0
C988 C 0.05685 0.13671 0.43819 0.0
C989 C 0.0727 0.14547 0.43224 0.0
H990 H 0.09808 0.17847 0.42778 0.0
H991 H 0.06493 0.19535 0.44838 0.0
C992 C 0.18395 0.2773 0.45071 0.0
N993 N 0.16784 0.25386 0.45007 0.0
C994 C 0.20243 0.28019 0.45649 0.0
C995 C 0.18743 0.23469 0.46079 0.0
C996 C 0.16915 0.23282 0.45497 0.0
C997 C 0.20432 0.25864 0.46161 0.0
H998 H 0.18227 0.29387 0.44677 0.0
H999 H 0.15584 0.21461 0.45441 0.0
C1000 C 0.06941 0.24461 0.42569 0.0
N1001 N 0.01603 0.24237 0.41991 0.0
C1002 C 0.06541 0.24862 0.41833 0.0
C1003 C 0.04631 0.23914 0.43009 0.0
C1004 C 0.03824 0.24752 0.41551 0.0
C1005 C 0.01948 0.23816 0.42708 0.0
C1006 C 0.15972 0.29785 0.43103 0.0
C1007 C 0.14834 0.31944 0.42686 0.0
C1008 C 0.18839 0.29185 0.43057 0.0
C1009 C 0.16583 0.33447 0.42223 0.0
C1010 C 0.20517 0.30733 0.42587 0.0
N1011 N 0.19364 0.32813 0.42182 0.0
C1012 C 0.08161 0.32431 0.44192 0.0
C1013 C 0.06538 0.31591 0.43007 0.0
C1014 C 0.06855 0.35053 0.44201 0.0
N1015 N 0.07993 0.30774 0.43599 0.0
C1016 C 0.05186 0.3419 0.42995 0.0
C1017 C 0.05373 0.35975 0.43593 0.0
H1018 H 0.09368 0.31736 0.44651 0.0
H1019 H 0.06508 0.30276 0.42535 0.0
C1020 C 0.17795 0.22871 0.41956 0.0
N1021 N 0.15616 0.24667 0.42059 0.0
C1022 C 0.19188 0.22799 0.41297 0.0
C1023 C 0.16049 0.26414 0.40863 0.0
C1024 C 0.14713 0.26407 0.41529 0.0
C1025 C 0.18319 0.24593 0.40741 0.0
H1026 H 0.1845 0.21493 0.42385 0.0
H1027 H 0.12955 0.27794 0.41626 0.0
O1028 O 0.10202 0.25212 0.44504 0.0
O1029 O 0.1443 0.21642 0.43606 0.0
O1030 O 0.09591 0.24565 0.42851 0.0
O1031 O 0.14282 0.28249 0.43548 0.0
H1032 H 0.10996 0.22846 0.45776 0.0
H1033 H 0.04964 0.27121 0.44445 0.0
H1034 H 0.07399 0.22498 0.46733 0.0
H1035 H 0.01469 0.26672 0.45422 0.0
H1036 H 0.23381 0.19513 0.44257 0.0
H1037 H 0.13332 0.16992 0.44335 0.0
H1038 H 0.19918 0.22551 0.43636 0.0
H1039 H 0.16912 0.14051 0.44942 0.0
H1040 H 0.04157 0.14941 0.4487 0.0
H1041 H 0.0759 0.13182 0.42766 0.0
H1042 H 0.2151 0.29898 0.45695 0.0
H1043 H 0.18781 0.21786 0.46469 0.0
H1044 H 0.08309 0.25265 0.41482 0.0
H1045 H 0.04907 0.2354 0.43576 0.0
H1046 H 0.03482 0.25072 0.40982 0.0
H1047 H 0.00142 0.23396 0.43043 0.0
H1048 H 0.1262 0.32437 0.42715 0.0
H1049 H 0.19753 0.27527 0.43378 0.0
H1050 H 0.15729 0.35112 0.41894 0.0
H1051 H 0.22736 0.30279 0.42542 0.0
H1052 H 0.07032 0.36359 0.44675 0.0
H1053 H 0.04103 0.34843 0.42511 0.0
H1054 H 0.20941 0.21378 0.41226 0.0
H1055 H 0.15286 0.278 0.40445 0.0
Li1056 Li 0.72195 0.89386 0.55608 0.0
Li1057 Li 0.74879 0.8601 0.56296 0.0
Li1058 Li 0.77443 0.89326 0.55523 0.0
Li1059 Li 0.74725 0.85502 0.55035 0.0
C1060 C 0.75194 0.92962 0.56535 0.0
N1061 N 0.75627 0.9861 0.56855 0.0
C1062 C 0.75705 0.93827 0.5724 0.0
C1063 C 0.74909 0.94968 0.55992 0.0
C1064 C 0.75914 0.96693 0.57391 0.0
C1065 C 0.75134 0.97813 0.56165 0.0
C1066 C 0.69955 0.83706 0.56148 0.0
C1067 C 0.68867 0.79203 0.56671 0.0
N1068 N 0.66913 0.80449 0.57098 0.0
C1069 C 0.67922 0.84939 0.56588 0.0
C1070 C 0.7042 0.80812 0.56185 0.0
C1071 C 0.6641 0.83257 0.57066 0.0
C1072 C 0.67054 0.91045 0.55037 0.0
N1073 N 0.68814 0.91496 0.556 0.0
C1074 C 0.65408 0.94414 0.56175 0.0
C1075 C 0.68045 0.93134 0.56165 0.0
C1076 C 0.63534 0.93967 0.55604 0.0
C1077 C 0.64398 0.92278 0.55026 0.0
H1078 H 0.67681 0.89649 0.54609 0.0
H1079 H 0.69429 0.93368 0.5662 0.0
C1080 C 0.76743 0.82026 0.57321 0.0
N1081 N 0.75005 0.84241 0.57205 0.0
C1082 C 0.76897 0.80794 0.57999 0.0
C1083 C 0.73477 0.84157 0.58426 0.0
C1084 C 0.73399 0.8533 0.5774 0.0
C1085 C 0.75255 0.81864 0.58563 0.0
H1086 H 0.78045 0.81244 0.56891 0.0
H1087 H 0.72065 0.8712 0.57633 0.0
C1088 C 0.75264 0.89649 0.5402 0.0
N1089 N 0.76497 0.89815 0.5257 0.0
C1090 C 0.78041 0.89399 0.53785 0.0
C1091 C 0.73116 0.89993 0.53517 0.0
C1092 C 0.78621 0.89485 0.53051 0.0
C1093 C 0.73781 0.90069 0.52786 0.0
C1094 C 0.79696 0.83197 0.5536 0.0
C1095 C 0.82204 0.83864 0.55009 0.0
C1096 C 0.78831 0.80396 0.554 0.0
C1097 C 0.8379 0.81718 0.54697 0.0
C1098 C 0.80473 0.78312 0.5508 0.0
N1099 N 0.82898 0.79011 0.54738 0.0
C1100 C 0.82881 0.90636 0.55911 0.0
C1101 C 0.81083 0.93733 0.55027 0.0
C1102 C 0.85501 0.91929 0.55879 0.0
N1103 N 0.80765 0.91508 0.55477 0.0
C1104 C 0.83676 0.95096 0.54978 0.0
C1105 C 0.85942 0.94154 0.55398 0.0
H1106 H 0.82547 0.88882 0.5627 0.0
H1107 H 0.79349 0.944 0.54693 0.0
C1108 C 0.7201 0.81435 0.54173 0.0
N1109 N 0.74443 0.82893 0.54257 0.0
C1110 C 0.71705 0.79539 0.53605 0.0
C1111 C 0.7641 0.80696 0.5322 0.0
C1112 C 0.76619 0.82562 0.53793 0.0
C1113 C 0.73932 0.79149 0.5312 0.0
H1114 H 0.70296 0.81754 0.54545 0.0
H1115 H 0.78524 0.8375 0.53863 0.0
O1116 O 0.75006 0.90161 0.56381 0.0
O1117 O 0.71499 0.85325 0.55688 0.0
O1118 O 0.74654 0.89583 0.54739 0.0
O1119 O 0.78112 0.85271 0.55669 0.0
H1120 H 0.75935 0.92297 0.57666 0.0
H1121 H 0.74509 0.94341 0.55443 0.0
H1122 H 0.76307 0.97394 0.57934 0.0
H1123 H 0.74915 0.99388 0.5575 0.0
H1124 H 0.69216 0.76963 0.56708 0.0
H1125 H 0.67536 0.87174 0.56567 0.0
H1126 H 0.71967 0.79821 0.55844 0.0
H1127 H 0.64844 0.84186 0.57413 0.0
H1128 H 0.64804 0.95649 0.56638 0.0
H1129 H 0.63023 0.91884 0.54574 0.0
H1130 H 0.78336 0.79065 0.58084 0.0
H1131 H 0.72154 0.85032 0.58842 0.0
H1132 H 0.79727 0.89079 0.54165 0.0
H1133 H 0.70958 0.90206 0.53687 0.0
H1134 H 0.8076 0.89274 0.52862 0.0
H1135 H 0.72137 0.90333 0.52391 0.0
H1136 H 0.82908 0.86016 0.5497 0.0
H1137 H 0.76896 0.7984 0.55667 0.0
H1138 H 0.85727 0.82207 0.5442 0.0
H1139 H 0.79817 0.7614 0.55102 0.0
H1140 H 0.87172 0.91176 0.56223 0.0
H1141 H 0.83929 0.96802 0.54599 0.0
H1142 H 0.69759 0.78386 0.53547 0.0
H1143 H 0.78158 0.80514 0.52851 0.0
Li1144 Li 0.1409 0.247 0.81595 0.0
Li1145 Li 0.10564 0.22233 0.80893 0.0
Li1146 Li 0.14674 0.24308 0.80325 0.0
Li1147 Li 0.10916 0.2724 0.80801 0.0
C1148 C 0.163 0.19352 0.80715 0.0
N1149 N 0.19822 0.15703 0.79994 0.0
C1150 C 0.15181 0.17145 0.80311 0.0
C1151 C 0.19212 0.197 0.80753 0.0
C1152 C 0.16997 0.15322 0.79951 0.0
C1153 C 0.20956 0.17835 0.80383 0.0
C1154 C 0.07912 0.23802 0.82057 0.0
C1155 C 0.03092 0.22365 0.82207 0.0
N1156 N 0.038 0.21035 0.82827 0.0
C1157 C 0.08591 0.2243 0.82697 0.0
C1158 C 0.05139 0.23782 0.81811 0.0
C1159 C 0.06482 0.21041 0.83079 0.0
C1160 C 0.15078 0.26813 0.82979 0.0
N1161 N 0.15891 0.24819 0.825 0.0
C1162 C 0.19207 0.22956 0.83334 0.0
C1163 C 0.179 0.22899 0.82664 0.0
C1164 C 0.1842 0.24997 0.8384 0.0
C1165 C 0.16329 0.26948 0.83655 0.0
H1166 H 0.13441 0.28284 0.82836 0.0
H1167 H 0.18476 0.21315 0.82276 0.0
C1168 C 0.06357 0.18548 0.80352 0.0
N1169 N 0.08202 0.19038 0.80894 0.0
C1170 C 0.04816 0.16053 0.80337 0.0
C1171 C 0.07081 0.14654 0.81443 0.0
C1172 C 0.08591 0.17158 0.81434 0.0
C1173 C 0.05189 0.14062 0.80886 0.0
H1174 H 0.06134 0.20057 0.79923 0.0
H1175 H 0.10132 0.17576 0.81846 0.0
C1176 C 0.16652 0.29414 0.81326 0.0
N1177 N 0.19858 0.32683 0.82237 0.0
C1178 C 0.15526 0.31858 0.81626 0.0
C1179 C 0.19413 0.2864 0.81487 0.0
C1180 C 0.17181 0.33482 0.82085 0.0
C1181 C 0.20997 0.30317 0.8195 0.0
C1182 C 0.09215 0.25916 0.79508 0.0
C1183 C 0.10605 0.27244 0.78941 0.0
C1184 C 0.06304 0.26188 0.79575 0.0
C1185 C 0.09056 0.28836 0.78451 0.0
C1186 C 0.04831 0.27803 0.79075 0.0
N1187 N 0.06226 0.29083 0.78528 0.0
C1188 C 0.16419 0.22189 0.79 0.0
C1189 C 0.19701 0.2528 0.7954 0.0
C1190 C 0.18106 0.21936 0.78392 0.0
N1191 N 0.17222 0.23872 0.79552 0.0
C1192 C 0.21465 0.25072 0.78944 0.0
C1193 C 0.20648 0.23427 0.78352 0.0
H1194 H 0.14423 0.2111 0.79025 0.0
H1195 H 0.2028 0.26611 0.79985 0.0
C1196 C 0.06708 0.31296 0.81088 0.0
N1197 N 0.08962 0.30674 0.8067 0.0
C1198 C 0.05357 0.33883 0.81018 0.0
C1199 C 0.08664 0.35125 0.80085 0.0
C1200 C 0.09961 0.32524 0.80177 0.0
C1201 C 0.06342 0.35847 0.80513 0.0
H1202 H 0.05995 0.29809 0.81486 0.0
H1203 H 0.11791 0.31988 0.79862 0.0
O1204 O 0.14556 0.21202 0.81058 0.0
O1205 O 0.09956 0.25131 0.81668 0.0
O1206 O 0.15047 0.27765 0.80886 0.0
O1207 O 0.10698 0.24387 0.80001 0.0
H1208 H 0.12935 0.16857 0.80269 0.0
H1209 H 0.20115 0.21422 0.81053 0.0
H1210 H 0.16159 0.13611 0.79635 0.0
H1211 H 0.23212 0.18092 0.80404 0.0
H1212 H 0.00941 0.22317 0.82021 0.0
H1213 H 0.10728 0.22407 0.82893 0.0
H1214 H 0.0458 0.24821 0.81315 0.0
H1215 H 0.0698 0.19958 0.83573 0.0
H1216 H 0.20826 0.21428 0.83452 0.0
H1217 H 0.15628 0.28528 0.84033 0.0
H1218 H 0.03374 0.15672 0.79898 0.0
H1219 H 0.0747 0.13151 0.81868 0.0
H1220 H 0.13389 0.32482 0.81512 0.0
H1221 H 0.20305 0.26734 0.81268 0.0
H1222 H 0.16333 0.35373 0.82324 0.0
H1223 H 0.23128 0.29729 0.82084 0.0
H1224 H 0.12859 0.27081 0.78885 0.0
H1225 H 0.05197 0.25188 0.80013 0.0
H1226 H 0.10105 0.29886 0.78012 0.0
H1227 H 0.02581 0.28045 0.79123 0.0
H1228 H 0.1736 0.20683 0.77946 0.0
H1229 H 0.2342 0.26233 0.7894 0.0
H1230 H 0.03611 0.34366 0.81369 0.0
H1231 H 0.0948 0.36555 0.79684 0.0
Li1232 Li 0.7465 0.64037 0.06404 0.0
Li1233 Li 0.77333 0.60406 0.05777 0.0
Li1234 Li 0.75147 0.64318 0.05133 0.0
Li1235 Li 0.72258 0.60562 0.0565 0.0
C1236 C 0.80034 0.66211 0.05536 0.0
N1237 N 0.83685 0.69713 0.0481 0.0
C1238 C 0.82423 0.65109 0.05203 0.0
C1239 C 0.79512 0.69097 0.05504 0.0
C1240 C 0.84242 0.66914 0.04838 0.0
C1241 C 0.81379 0.70831 0.05132 0.0
C1242 C 0.75413 0.57868 0.06973 0.0
C1243 C 0.76396 0.52989 0.07209 0.0
N1244 N 0.77554 0.53713 0.0785 0.0
C1245 C 0.76594 0.58564 0.07636 0.0
C1246 C 0.75294 0.55059 0.06758 0.0
C1247 C 0.77672 0.56432 0.08072 0.0
C1248 C 0.72476 0.65269 0.07774 0.0
N1249 N 0.74423 0.66046 0.07279 0.0
C1250 C 0.76186 0.69612 0.08058 0.0
C1251 C 0.76262 0.68166 0.07407 0.0
C1252 C 0.74213 0.68847 0.08584 0.0
C1253 C 0.72328 0.66653 0.08433 0.0
H1254 H 0.71066 0.63547 0.07659 0.0
H1255 H 0.77807 0.68717 0.07007 0.0
C1256 C 0.81471 0.56737 0.05226 0.0
N1257 N 0.80603 0.58148 0.0582 0.0
C1258 C 0.84084 0.55406 0.05219 0.0
C1259 C 0.84803 0.56918 0.06444 0.0
C1260 C 0.82206 0.58263 0.06422 0.0
C1261 C 0.85813 0.55519 0.05831 0.0
H1262 H 0.80192 0.56755 0.04747 0.0
H1263 H 0.81512 0.59485 0.06878 0.0
C1264 C 0.69881 0.66353 0.06072 0.0
N1265 N 0.6646 0.69664 0.0692 0.0
C1266 C 0.67458 0.65222 0.06382 0.0
C1267 C 0.70553 0.69173 0.0619 0.0
C1268 C 0.65757 0.6693 0.06809 0.0
C1269 C 0.68801 0.7081 0.06622 0.0
C1270 C 0.74088 0.58516 0.04377 0.0
C1271 C 0.72953 0.59605 0.03744 0.0
C1272 C 0.74082 0.55617 0.04492 0.0
C1273 C 0.71796 0.57771 0.03238 0.0
C1274 C 0.72901 0.53853 0.03975 0.0
N1275 N 0.71791 0.54957 0.03364 0.0
C1276 C 0.775 0.65934 0.03821 0.0
C1277 C 0.73973 0.69024 0.04249 0.0
C1278 C 0.77839 0.67547 0.03202 0.0
N1279 N 0.7558 0.66686 0.04325 0.0
C1280 C 0.74245 0.70704 0.03639 0.0
C1281 C 0.76175 0.69952 0.03101 0.0
H1282 H 0.78732 0.64047 0.03895 0.0
H1283 H 0.72456 0.69563 0.04658 0.0
C1284 C 0.68018 0.56868 0.06117 0.0
N1285 N 0.68903 0.58433 0.0555 0.0
C1286 C 0.65431 0.55493 0.06091 0.0
C1287 C 0.64752 0.57299 0.0489 0.0
C1288 C 0.67322 0.58691 0.04946 0.0
C1289 C 0.63769 0.5571 0.05471 0.0
H1290 H 0.6928 0.56759 0.06599 0.0
H1291 H 0.68016 0.60041 0.04515 0.0
O1292 O 0.78194 0.6447 0.05883 0.0
O1293 O 0.74362 0.59926 0.06537 0.0
O1294 O 0.71607 0.64699 0.05665 0.0
O1295 O 0.75219 0.60277 0.0488 0.0
H1296 H 0.82861 0.62884 0.05221 0.0
H1297 H 0.77657 0.69984 0.05751 0.0
H1298 H 0.86093 0.66088 0.04576 0.0
H1299 H 0.80988 0.73065 0.05098 0.0
H1300 H 0.76328 0.50807 0.07048 0.0
H1301 H 0.76706 0.60729 0.0781 0.0
H1302 H 0.74361 0.54486 0.0625 0.0
H1303 H 0.78608 0.5694 0.08585 0.0
H1304 H 0.77656 0.7131 0.08148 0.0
H1305 H 0.70802 0.65967 0.08827 0.0
H1306 H 0.84784 0.54409 0.04728 0.0
H1307 H 0.86029 0.57031 0.06933 0.0
H1308 H 0.66906 0.63045 0.06298 0.0
H1309 H 0.72434 0.70076 0.0596 0.0
H1310 H 0.63882 0.6608 0.07055 0.0
H1311 H 0.69308 0.72989 0.06723 0.0
H1312 H 0.72936 0.61844 0.03646 0.0
H1313 H 0.74977 0.5474 0.04976 0.0
H1314 H 0.70894 0.58584 0.02748 0.0
H1315 H 0.72871 0.51605 0.04058 0.0
H1316 H 0.79316 0.6686 0.02796 0.0
H1317 H 0.72938 0.72553 0.03586 0.0
H1318 H 0.64723 0.54295 0.06551 0.0
H1319 H 0.63496 0.57549 0.04409 0.0
Li1320 Li 0.35805 0.24779 0.31536 0.0
Li1321 Li 0.39193 0.27429 0.30833 0.0
Li1322 Li 0.35315 0.24969 0.30259 0.0
Li1323 Li 0.39243 0.22403 0.30782 0.0
C1324 C 0.33214 0.29814 0.30617 0.0
N1325 N 0.29374 0.33085 0.29884 0.0
C1326 C 0.34123 0.32118 0.30214 0.0
C1327 C 0.3035 0.29178 0.30648 0.0
C1328 C 0.32148 0.33747 0.29848 0.0
C1329 C 0.28443 0.30855 0.30272 0.0
C1330 C 0.41815 0.26288 0.32019 0.0
C1331 C 0.46469 0.2817 0.32187 0.0
N1332 N 0.45544 0.29619 0.32771 0.0
C1333 C 0.4091 0.2779 0.32621 0.0
C1334 C 0.44618 0.26469 0.31801 0.0
C1335 C 0.42829 0.29463 0.32994 0.0
C1336 C 0.34841 0.22764 0.32931 0.0
N1337 N 0.3393 0.24634 0.32432 0.0
C1338 C 0.30446 0.26386 0.33236 0.0
C1339 C 0.31789 0.26437 0.32571 0.0
C1340 C 0.31334 0.24474 0.33763 0.0
C1341 C 0.33556 0.22637 0.33603 0.0
H1342 H 0.36585 0.21391 0.32808 0.0
H1343 H 0.31142 0.27933 0.32168 0.0
C1344 C 0.4333 0.31282 0.30328 0.0
N1345 N 0.4128 0.30817 0.30821 0.0
C1346 C 0.44654 0.33896 0.30293 0.0
C1347 C 0.41743 0.35476 0.31278 0.0
C1348 C 0.40489 0.32835 0.31296 0.0
C1349 C 0.43828 0.36045 0.30765 0.0
H1350 H 0.43883 0.29653 0.2995 0.0
H1351 H 0.38827 0.32408 0.31676 0.0
C1352 C 0.33621 0.19859 0.31287 0.0
N1353 N 0.30545 0.16475 0.322 0.0
C1354 C 0.34894 0.17568 0.31625 0.0
C1355 C 0.30781 0.20421 0.31411 0.0
C1356 C 0.33303 0.15882 0.32084 0.0
C1357 C 0.29264 0.18689 0.31875 0.0
C1358 C 0.40915 0.23656 0.29485 0.0
C1359 C 0.39641 0.22219 0.28917 0.0
C1360 C 0.43826 0.23511 0.29573 0.0
C1361 C 0.41306 0.20647 0.28448 0.0
C1362 C 0.45416 0.21911 0.29093 0.0
N1363 N 0.44134 0.20524 0.28545 0.0
C1364 C 0.33421 0.27005 0.28942 0.0
C1365 C 0.30509 0.23455 0.29434 0.0
C1366 C 0.317 0.27215 0.2834 0.0
N1367 N 0.32802 0.25145 0.29472 0.0
C1368 C 0.28729 0.2359 0.2884 0.0
C1369 C 0.29329 0.25476 0.2828 0.0
H1370 H 0.35281 0.28297 0.28985 0.0
H1371 H 0.30082 0.21981 0.29861 0.0
C1372 C 0.43708 0.18674 0.31123 0.0
N1373 N 0.41445 0.19096 0.30692 0.0
C1374 C 0.45212 0.16161 0.31083 0.0
C1375 C 0.42044 0.14586 0.30152 0.0
C1376 C 0.40591 0.17117 0.30213 0.0
C1377 C 0.44373 0.14072 0.30595 0.0
H1378 H 0.44313 0.20265 0.31506 0.0
H1379 H 0.38744 0.17489 0.29889 0.0
O1380 O 0.3512 0.28155 0.30968 0.0
O1381 O 0.39956 0.24689 0.31637 0.0
O1382 O 0.35157 0.21569 0.30846 0.0
O1383 O 0.39317 0.25164 0.29958 0.0
H1384 H 0.3633 0.32625 0.30176 0.0
H1385 H 0.29611 0.27379 0.30947 0.0
H1386 H 0.32824 0.35528 0.29532 0.0
H1387 H 0.26224 0.30374 0.30287 0.0
H1388 H 0.4864 0.28344 0.32022 0.0
H1389 H 0.38745 0.27692 0.32794 0.0
H1390 H 0.45346 0.25339 0.31333 0.0
H1391 H 0.42156 0.30647 0.33459 0.0
H1392 H 0.28726 0.27823 0.33335 0.0
H1393 H 0.34336 0.21163 0.33998 0.0
H1394 H 0.46232 0.34262 0.29884 0.0
H1395 H 0.41068 0.37066 0.31656 0.0
H1396 H 0.37093 0.1711 0.3154 0.0
H1397 H 0.29769 0.22203 0.31161 0.0
H1398 H 0.34263 0.14109 0.32351 0.0
H1399 H 0.2707 0.19113 0.31981 0.0
H1400 H 0.3739 0.22289 0.28844 0.0
H1401 H 0.44843 0.24588 0.30013 0.0
H1402 H 0.40348 0.19515 0.28008 0.0
H1403 H 0.47669 0.21764 0.29158 0.0
H1404 H 0.32274 0.28657 0.27915 0.0
H1405 H 0.26917 0.22219 0.28815 0.0
H1406 H 0.47004 0.1585 0.31432 0.0
H1407 H 0.41299 0.13013 0.29777 0.0
C1408 C 0.22969 0.30339 0.09808 0.0
C1409 C 0.25464 0.30767 0.0942 0.0
C1410 C 0.23042 0.29204 0.10498 0.0
C1411 C 0.27467 0.24977 0.11707 0.0
H1412 H 0.22429 0.27841 0.13171 0.0
C1413 C 0.27755 0.21106 0.14648 0.0
C1414 C 0.25137 0.20512 0.14962 0.0
C1415 C 0.27907 0.22484 0.13987 0.0
C1416 C 0.23835 0.27008 0.12766 0.0
H1417 H 0.29996 0.3033 0.09453 0.0
H1418 H 0.30129 0.28398 0.10667 0.0
H1419 H 0.22508 0.30029 0.11988 0.0
H1420 H 0.20627 0.20878 0.14825 0.0
H1421 H 0.20896 0.23299 0.13675 0.0
H1422 H 0.28784 0.21947 0.12487 0.0
C1423 C 0.28113 0.28914 0.10432 0.0
C1424 C 0.23878 0.28258 0.12089 0.0
C1425 C 0.28039 0.30048 0.09741 0.0
C1426 C 0.22677 0.21346 0.14604 0.0
C1427 C 0.22831 0.22731 0.13945 0.0
C1428 C 0.2743 0.23731 0.12386 0.0
C1429 C 0.25614 0.28478 0.10818 0.0
C1430 C 0.25672 0.27237 0.11549 0.0
C1431 C 0.25446 0.23306 0.13628 0.0
C1432 C 0.25591 0.24716 0.1292 0.0
H1433 H 0.20954 0.30904 0.0958 0.0
H1434 H 0.21077 0.28863 0.10777 0.0
H1435 H 0.28848 0.24118 0.113 0.0
H1436 H 0.29689 0.20529 0.14916 0.0
H1437 H 0.29953 0.2293 0.1376 0.0
C1438 C 0.79934 0.77775 0.39448 0.0
C1439 C 0.78663 0.76386 0.40029 0.0
C1440 C 0.78622 0.77846 0.38778 0.0
C1441 C 0.73434 0.73985 0.377 0.0
H1442 H 0.7364 0.80597 0.36486 0.0
C1443 C 0.6751 0.74492 0.35009 0.0
C1444 C 0.68964 0.75652 0.34424 0.0
C1445 C 0.6859 0.74712 0.35704 0.0
C1446 C 0.73587 0.78728 0.36817 0.0
H1447 H 0.74972 0.74081 0.40371 0.0
H1448 H 0.72675 0.74215 0.39201 0.0
H1449 H 0.75679 0.80785 0.37688 0.0
H1450 H 0.72688 0.77962 0.34107 0.0
H1451 H 0.74579 0.78344 0.35322 0.0
H1452 H 0.71362 0.7192 0.36829 0.0
C1453 C 0.7471 0.75203 0.39261 0.0
C1454 C 0.74753 0.78836 0.37505 0.0
C1455 C 0.76023 0.75128 0.3993 0.0
C1456 C 0.71504 0.77072 0.34549 0.0
C1457 C 0.72585 0.77293 0.35244 0.0
C1458 C 0.72267 0.73878 0.37013 0.0
C1459 C 0.76011 0.76533 0.38675 0.0
C1460 C 0.74697 0.76461 0.37953 0.0
C1461 C 0.71147 0.76099 0.35828 0.0
C1462 C 0.72339 0.76245 0.36563 0.0
H1463 H 0.81985 0.78732 0.39505 0.0
H1464 H 0.79696 0.78856 0.38335 0.0
H1465 H 0.73402 0.72104 0.38026 0.0
H1466 H 0.6552 0.73432 0.34932 0.0
H1467 H 0.6741 0.73811 0.36144 0.0
C1468 C 0.21148 0.209 0.59661 0.0
C1469 C 0.23421 0.19208 0.59449 0.0
C1470 C 0.21023 0.21989 0.60358 0.0
C1471 C 0.25584 0.23796 0.61877 0.0
H1472 H 0.18702 0.23797 0.62991 0.0
C1473 C 0.25595 0.27021 0.64837 0.0
C1474 C 0.23435 0.28815 0.65066 0.0
C1475 C 0.25443 0.25703 0.6417 0.0
C1476 C 0.20632 0.23834 0.62684 0.0
H1477 H 0.27283 0.17242 0.59809 0.0
H1478 H 0.27076 0.19162 0.61019 0.0
H1479 H 0.18715 0.21812 0.61779 0.0
H1480 H 0.19384 0.3058 0.64788 0.0
H1481 H 0.19126 0.28293 0.63614 0.0
H1482 H 0.27502 0.25839 0.62772 0.0
C1483 C 0.25416 0.19685 0.60644 0.0
C1484 C 0.20639 0.227 0.61991 0.0
C1485 C 0.25538 0.18592 0.5995 0.0
C1486 C 0.21069 0.29189 0.64626 0.0
C1487 C 0.20922 0.27879 0.63955 0.0
C1488 C 0.25576 0.24935 0.62567 0.0
C1489 C 0.23171 0.21413 0.60854 0.0
C1490 C 0.23122 0.22655 0.61583 0.0
C1491 C 0.23134 0.26163 0.63714 0.0
C1492 C 0.23107 0.24951 0.6298 0.0
H1493 H 0.19497 0.21431 0.59285 0.0
H1494 H 0.1928 0.23337 0.60503 0.0
H1495 H 0.27517 0.23842 0.61571 0.0
H1496 H 0.2742 0.26658 0.65172 0.0
H1497 H 0.27152 0.24342 0.64007 0.0
C1498 C 0.78274 0.76783 0.84452 0.0
C1499 C 0.79204 0.74282 0.8413 0.0
C1500 C 0.76954 0.7673 0.8512 0.0
C1501 C 0.73285 0.72109 0.86403 0.0
H1502 H 0.75652 0.77691 0.87794 0.0
C1503 C 0.70127 0.71643 0.894 0.0
C1504 C 0.69394 0.74197 0.89728 0.0
C1505 C 0.71263 0.7161 0.88708 0.0
C1506 C 0.74944 0.76138 0.87409 0.0
H1507 H 0.79435 0.69759 0.8425 0.0
H1508 H 0.77122 0.69666 0.8542 0.0
H1509 H 0.77679 0.77716 0.86594 0.0
H1510 H 0.69207 0.78711 0.89583 0.0
H1511 H 0.71185 0.78655 0.88377 0.0
H1512 H 0.7055 0.7053 0.87222 0.0
C1513 C 0.77393 0.71665 0.85151 0.0
C1514 C 0.76104 0.76154 0.86722 0.0
C1515 C 0.78716 0.71718 0.84482 0.0
C1516 C 0.69801 0.76714 0.89349 0.0
C1517 C 0.70932 0.76682 0.88658 0.0
C1518 C 0.7212 0.72095 0.87092 0.0
C1519 C 0.76534 0.74175 0.85482 0.0
C1520 C 0.75282 0.74146 0.8621 0.0
C1521 C 0.71686 0.74132 0.88331 0.0
C1522 C 0.72933 0.74116 0.87602 0.0
H1523 H 0.78574 0.78787 0.84188 0.0
H1524 H 0.76265 0.78694 0.85355 0.0
H1525 H 0.72591 0.70552 0.86018 0.0
H1526 H 0.69865 0.69672 0.89682 0.0
H1527 H 0.71857 0.69615 0.88474 0.0
C1528 C 0.75423 0.82367 0.59904 0.0
C1529 C 0.75441 0.8063 0.59293 0.0
C1530 C 0.75632 0.81209 0.60591 0.0
C1531 C 0.78037 0.74912 0.61551 0.0
H1532 H 0.73044 0.77504 0.63057 0.0
C1533 C 0.76725 0.69005 0.64228 0.0
C1534 C 0.76365 0.70593 0.64857 0.0
C1535 C 0.76776 0.70315 0.63558 0.0
C1536 C 0.74484 0.76786 0.62646 0.0
H1537 H 0.75649 0.7631 0.58927 0.0
H1538 H 0.76037 0.74294 0.60126 0.0
H1539 H 0.72793 0.7963 0.61869 0.0
H1540 H 0.75866 0.74802 0.65281 0.0
H1541 H 0.75986 0.77101 0.6411 0.0
H1542 H 0.79731 0.72069 0.62328 0.0
C1543 C 0.75895 0.76554 0.60072 0.0
C1544 C 0.74334 0.78001 0.61965 0.0
C1545 C 0.75673 0.7771 0.59385 0.0
C1546 C 0.7611 0.73524 0.64804 0.0
C1547 C 0.76174 0.74837 0.64134 0.0
C1548 C 0.78196 0.73706 0.62233 0.0
C1549 C 0.75877 0.78292 0.60681 0.0
C1550 C 0.76094 0.7706 0.61409 0.0
C1551 C 0.7648 0.73244 0.63503 0.0
C1552 C 0.76406 0.74614 0.62787 0.0
H1553 H 0.75296 0.84628 0.59852 0.0
H1554 H 0.75647 0.82602 0.61051 0.0
H1555 H 0.7945 0.74176 0.61136 0.0
H1556 H 0.76882 0.66738 0.64252 0.0
H1557 H 0.76969 0.69022 0.63082 0.0
C1558 C 0.29241 0.22683 0.89778 0.0
C1559 C 0.29955 0.2522 0.90117 0.0
C1560 C 0.27955 0.22691 0.89105 0.0
C1561 C 0.2394 0.2718 0.87857 0.0
H1562 H 0.26422 0.21765 0.86436 0.0
C1563 C 0.20455 0.27625 0.84886 0.0
C1564 C 0.19739 0.25059 0.84562 0.0
C1565 C 0.2169 0.27676 0.85567 0.0
C1566 C 0.25687 0.23272 0.86829 0.0
H1567 H 0.29887 0.29755 0.90015 0.0
H1568 H 0.27649 0.2977 0.88837 0.0
H1569 H 0.28579 0.21797 0.87622 0.0
H1570 H 0.19708 0.20537 0.84702 0.0
H1571 H 0.21874 0.20627 0.85887 0.0
H1572 H 0.21053 0.28658 0.87061 0.0
C1573 C 0.28048 0.27775 0.89097 0.0
C1574 C 0.2692 0.23289 0.87509 0.0
C1575 C 0.2933 0.27767 0.89771 0.0
C1576 C 0.2028 0.22546 0.84932 0.0
C1577 C 0.21518 0.22597 0.85611 0.0
C1578 C 0.22709 0.27166 0.87176 0.0
C1579 C 0.2736 0.25236 0.88754 0.0
C1580 C 0.26055 0.25237 0.88031 0.0
C1581 C 0.22239 0.25161 0.85935 0.0
C1582 C 0.23564 0.25205 0.86656 0.0
H1583 H 0.29654 0.20688 0.90036 0.0
H1584 H 0.27406 0.20701 0.88861 0.0
H1585 H 0.23202 0.28683 0.8825 0.0
H1586 H 0.201 0.29595 0.8461 0.0
H1587 H 0.22256 0.29682 0.85799 0.0
C1588 C 0.7162 0.7092 0.09632 0.0
C1589 C 0.74175 0.7028 0.09291 0.0
C1590 C 0.71597 0.72232 0.10303 0.0
C1591 C 0.75947 0.76535 0.11512 0.0
H1592 H 0.70956 0.7375 0.12995 0.0
C1593 C 0.76846 0.80066 0.14465 0.0
C1594 C 0.74336 0.80522 0.14844 0.0
C1595 C 0.76795 0.78865 0.13781 0.0
C1596 C 0.72337 0.74577 0.12584 0.0
H1597 H 0.78711 0.7048 0.09394 0.0
H1598 H 0.78667 0.72789 0.10561 0.0
H1599 H 0.70896 0.71592 0.11807 0.0
H1600 H 0.69803 0.80137 0.14798 0.0
H1601 H 0.6971 0.78061 0.13602 0.0
H1602 H 0.77384 0.79525 0.12286 0.0
C1603 C 0.76682 0.7231 0.10305 0.0
C1604 C 0.72302 0.73339 0.11904 0.0
C1605 C 0.76705 0.70991 0.09635 0.0
C1606 C 0.71774 0.79769 0.14523 0.0
C1607 C 0.71722 0.78578 0.13838 0.0
C1608 C 0.75975 0.7778 0.12191 0.0
C1609 C 0.74129 0.72938 0.10646 0.0
C1610 C 0.74116 0.74298 0.11362 0.0
C1611 C 0.74232 0.78105 0.1346 0.0
C1612 C 0.74177 0.76808 0.12735 0.0
H1613 H 0.69635 0.70436 0.09377 0.0
H1614 H 0.69597 0.72722 0.1055 0.0
H1615 H 0.77341 0.77343 0.11101 0.0
H1616 H 0.78853 0.80594 0.14703 0.0
H1617 H 0.78769 0.78489 0.13508 0.0
C1618 C 0.20336 0.27068 0.39672 0.0
C1619 C 0.19748 0.24548 0.40034 0.0
C1620 C 0.21618 0.27028 0.38998 0.0
C1621 C 0.25855 0.22572 0.37791 0.0
H1622 H 0.23097 0.27634 0.3632 0.0
C1623 C 0.29414 0.21886 0.3483 0.0
C1624 C 0.2999 0.2444 0.34482 0.0
C1625 C 0.28164 0.21865 0.35509 0.0
C1626 C 0.23909 0.26228 0.36728 0.0
H1627 H 0.20035 0.2001 0.39973 0.0
H1628 H 0.22271 0.19939 0.38794 0.0
H1629 H 0.20942 0.27666 0.37507 0.0
H1630 H 0.29755 0.28973 0.34578 0.0
H1631 H 0.27566 0.28935 0.35761 0.0
H1632 H 0.28821 0.21132 0.37009 0.0
C1633 C 0.21775 0.21947 0.39036 0.0
C1634 C 0.22677 0.26248 0.37407 0.0
C1635 C 0.20495 0.21988 0.39711 0.0
C1636 C 0.29292 0.2697 0.34827 0.0
C1637 C 0.28041 0.26949 0.35504 0.0
C1638 C 0.27087 0.2255 0.3711 0.0
C1639 C 0.22337 0.24467 0.38671 0.0
C1640 C 0.23642 0.24427 0.37948 0.0
C1641 C 0.27462 0.24397 0.35852 0.0
C1642 C 0.26131 0.24385 0.36572 0.0
H1643 H 0.19826 0.29076 0.39912 0.0
H1644 H 0.22069 0.29007 0.38736 0.0
H1645 H 0.2667 0.2117 0.38199 0.0
H1646 H 0.29894 0.19902 0.34574 0.0
H1647 H 0.27709 0.19865 0.3576 0.0
C1648 C 0.25504 0.22392 0.22152 0.0
C1649 C 0.22983 0.21469 0.21839 0.0
C1650 C 0.25524 0.23517 0.22843 0.0
C1651 C 0.24979 0.2667 0.24241 0.0
H1652 H 0.21033 0.22104 0.25639 0.0
C1653 C 0.27023 0.2803 0.27258 0.0
C1654 C 0.27631 0.25495 0.27612 0.0
C1655 C 0.25748 0.28013 0.26582 0.0
C1656 C 0.22133 0.23412 0.25255 0.0
H1657 H 0.18477 0.21164 0.21992 0.0
H1658 H 0.18516 0.23119 0.23206 0.0
H1659 H 0.20216 0.21343 0.24362 0.0
H1660 H 0.27274 0.20963 0.27548 0.0
H1661 H 0.25071 0.20929 0.26372 0.0
H1662 H 0.27035 0.28612 0.25132 0.0
C1663 C 0.20481 0.22937 0.22916 0.0
C1664 C 0.21642 0.22998 0.24523 0.0
C1665 C 0.20461 0.21815 0.22223 0.0
C1666 C 0.26805 0.22953 0.27294 0.0
C1667 C 0.25534 0.22936 0.26619 0.0
C1668 C 0.25473 0.27081 0.24973 0.0
C1669 C 0.23022 0.23744 0.23239 0.0
C1670 C 0.23136 0.24555 0.24008 0.0
C1671 C 0.25057 0.25461 0.26247 0.0
C1672 C 0.24129 0.25388 0.25487 0.0
H1673 H 0.27491 0.22117 0.21877 0.0
H1674 H 0.27525 0.24071 0.2308 0.0
H1675 H 0.2613 0.27931 0.23857 0.0
H1676 H 0.27593 0.30026 0.27496 0.0
H1677 H 0.2537 0.29995 0.26314 0.0
C1678 C 0.80533 0.71658 0.47555 0.0
C1679 C 0.78892 0.71782 0.46927 0.0
C1680 C 0.79271 0.71475 0.48228 0.0
C1681 C 0.7324 0.73975 0.49159 0.0
H1682 H 0.76119 0.69413 0.50719 0.0
C1683 C 0.71216 0.77195 0.52076 0.0
C1684 C 0.73671 0.77235 0.52495 0.0
C1685 C 0.71142 0.75706 0.51429 0.0
C1686 C 0.75284 0.70701 0.5029 0.0
H1687 H 0.74611 0.71662 0.46522 0.0
H1688 H 0.72412 0.71493 0.47708 0.0
H1689 H 0.77375 0.68272 0.49481 0.0
H1690 H 0.7788 0.75546 0.52597 0.0
H1691 H 0.77798 0.73051 0.51463 0.0
H1692 H 0.71345 0.7655 0.49962 0.0
C1693 C 0.74682 0.71506 0.4767 0.0
C1694 C 0.7599 0.70034 0.49582 0.0
C1695 C 0.75947 0.71632 0.46993 0.0
C1696 C 0.75977 0.75603 0.52278 0.0
C1697 C 0.7591 0.74132 0.51632 0.0
C1698 C 0.72565 0.74667 0.49867 0.0
C1699 C 0.76338 0.71461 0.48293 0.0
C1700 C 0.75063 0.71732 0.49014 0.0
C1701 C 0.73524 0.74234 0.51187 0.0
C1702 C 0.73681 0.7311 0.50443 0.0
H1703 H 0.82797 0.71832 0.47533 0.0
H1704 H 0.80595 0.71499 0.48701 0.0
H1705 H 0.72515 0.7533 0.4873 0.0
H1706 H 0.69402 0.78431 0.52229 0.0
H1707 H 0.69254 0.75793 0.51105 0.0
C1708 C 0.26724 0.31027 0.72594 0.0
C1709 C 0.26124 0.29395 0.71985 0.0
C1710 C 0.26925 0.29785 0.73269 0.0
C1711 C 0.24246 0.23781 0.74267 0.0
H1712 H 0.29204 0.26662 0.75747 0.0
C1713 C 0.22483 0.21064 0.77238 0.0
C1714 C 0.22285 0.23471 0.77673 0.0
C1715 C 0.23669 0.21229 0.76552 0.0
C1716 C 0.27819 0.25823 0.75338 0.0
H1717 H 0.25358 0.25166 0.71601 0.0
H1718 H 0.25721 0.22982 0.72787 0.0
H1719 H 0.29983 0.27973 0.74495 0.0
H1720 H 0.23297 0.27908 0.77739 0.0
H1721 H 0.25383 0.28182 0.76554 0.0
H1722 H 0.22007 0.21731 0.75113 0.0
C1723 C 0.26018 0.25229 0.7274 0.0
C1724 C 0.2826 0.26576 0.74623 0.0
C1725 C 0.25826 0.26475 0.72062 0.0
C1726 C 0.23449 0.26002 0.77424 0.0
C1727 C 0.24648 0.2616 0.76743 0.0
C1728 C 0.23808 0.23023 0.74983 0.0
C1729 C 0.26531 0.26879 0.73352 0.0
C1730 C 0.26413 0.2565 0.74083 0.0
C1731 C 0.247 0.23797 0.76291 0.0
C1732 C 0.25526 0.24122 0.75528 0.0
H1733 H 0.27007 0.33278 0.72549 0.0
H1734 H 0.27285 0.31124 0.7373 0.0
H1735 H 0.22771 0.2305 0.73866 0.0
H1736 H 0.21654 0.19069 0.77419 0.0
H1737 H 0.23711 0.19366 0.76218 0.0
C1738 C 0.78884 0.71977 0.02064 0.0
C1739 C 0.76308 0.71532 0.02415 0.0
C1740 C 0.78957 0.73179 0.01379 0.0
C1741 C 0.74596 0.76961 0.00032 0.0
H1742 H 0.78913 0.72673 0.98648 0.0
C1743 C 0.73344 0.73489 0.96947 0.0
C1744 C 0.72475 0.7603 0.96635 0.0
C1745 C 0.74531 0.73455 0.97631 0.0
C1746 C 0.77711 0.73906 0.99029 0.0
H1747 H 0.71797 0.7208 0.02331 0.0
H1748 H 0.71922 0.74168 0.01143 0.0
H1749 H 0.79531 0.71786 -0.00073 0.0
H1750 H 0.72358 0.80549 0.96775 0.0
H1751 H 0.74432 0.80488 0.97975 0.0
H1752 H 0.72636 0.78946 0.99134 0.0
C1753 C 0.73894 0.73633 0.01399 0.0
C1754 C 0.78087 0.7342 -0.00238 0.0
C1755 C 0.73821 0.7243 0.02081 0.0
C1756 C 0.72963 0.78553 0.97007 0.0
C1757 C 0.74152 0.78519 0.97693 0.0
C1758 C 0.74216 0.77444 0.99299 0.0
C1759 C 0.76455 0.73966 0.01033 0.0
C1760 C 0.76456 0.7487 0.00271 0.0
C1761 C 0.74879 0.75961 0.9802 0.0
C1762 C 0.75695 0.75847 0.98789 0.0
H1763 H 0.80841 0.71348 0.02313 0.0
H1764 H 0.80966 0.73441 0.01115 0.0
H1765 H 0.73342 0.78144 0.00412 0.0
H1766 H 0.72963 0.71504 0.9668 0.0
H1767 H 0.75023 0.71443 0.97871 0.0
C1768 C 0.20292 0.27186 0.02181 0.0
C1769 C 0.22767 0.27274 0.02594 0.0
C1770 C 0.20262 0.25846 0.01513 0.0
C1771 C 0.21961 0.2535 -0.00062 0.0
H1772 H 0.26204 0.18626 0.99491 0.0
C1773 C 0.29919 0.21656 0.97634 0.0
C1774 C 0.28524 0.22621 0.97017 0.0
C1775 C 0.28505 0.21441 0.98286 0.0
C1776 C 0.24999 0.20501 0.99606 0.0
H1777 H 0.27107 0.25882 0.0264 0.0
H1778 H 0.27032 0.23516 0.01488 0.0
H1779 H 0.24973 0.19656 0.00736 0.0
H1780 H 0.24505 0.23949 0.96589 0.0
H1781 H 0.22008 0.23542 0.97733 0.0
H1782 H 0.2215 0.2631 0.9882 0.0
C1783 C 0.2511 0.24469 0.01681 0.0
C1784 C 0.24289 0.21083 0.00319 0.0
C1785 C 0.2515 0.2583 0.02344 0.0
C1786 C 0.25635 0.23204 0.97057 0.0
C1787 C 0.24213 0.22989 0.97712 0.0
C1788 C 0.22688 0.24779 0.99227 0.0
C1789 C 0.22694 0.24537 0.01249 0.0
C1790 C 0.22864 0.23572 0.00494 0.0
C1791 C 0.25653 0.22175 0.98338 0.0
C1792 C 0.24323 0.22412 0.99057 0.0
H1793 H 0.18399 0.28223 0.02364 0.0
H1794 H 0.18363 0.25907 0.01193 0.0
H1795 H 0.2088 0.27297 0.00058 0.0
H1796 H 0.32135 0.21142 0.97617 0.0
H1797 H 0.29695 0.20841 0.98757 0.0
C1798 C 0.74055 0.76566 0.27269 0.0
C1799 C 0.72675 0.74206 0.27551 0.0
C1800 C 0.75311 0.76445 0.26592 0.0
C1801 C 0.7405 0.7315 0.24894 0.0
H1802 H 0.81017 0.76694 0.24313 0.0
C1803 C 0.75955 0.75488 0.21929 0.0
C1804 C 0.77039 0.78164 0.21784 0.0
C1805 C 0.76141 0.74359 0.22619 0.0
C1806 C 0.79058 0.75706 0.24465 0.0
H1807 H 0.71638 0.69835 0.27365 0.0
H1808 H 0.73798 0.69639 0.26174 0.0
H1809 H 0.80056 0.75935 0.25588 0.0
H1810 H 0.79251 0.81728 0.22229 0.0
H1811 H 0.79467 0.79838 0.23441 0.0
H1812 H 0.72924 0.73105 0.23788 0.0
C1813 C 0.73924 0.7157 0.2648 0.0
C1814 C 0.78522 0.75256 0.25195 0.0
C1815 C 0.72702 0.7168 0.27161 0.0
C1816 C 0.78427 0.79643 0.22329 0.0
C1817 C 0.7856 0.78545 0.23023 0.0
C1818 C 0.7456 0.73641 0.24167 0.0
C1819 C 0.75174 0.73973 0.26182 0.0
C1820 C 0.75984 0.74033 0.25415 0.0
C1821 C 0.77344 0.75923 0.23183 0.0
C1822 C 0.77038 0.74994 0.23943 0.0
H1823 H 0.74075 0.78532 0.27561 0.0
H1824 H 0.76238 0.78335 0.26372 0.0
H1825 H 0.72057 0.72239 0.2505 0.0
H1826 H 0.7489 0.74308 0.21512 0.0
H1827 H 0.75246 0.72304 0.22716 0.0
C1828 C 0.23825 0.23817 0.47041 0.0
C1829 C 0.2227 0.26135 0.46799 0.0
C1830 C 0.25227 0.23918 0.47698 0.0
C1831 C 0.24457 0.27273 0.4944 0.0
H1832 H 0.31089 0.22874 0.4988 0.0
C1833 C 0.2712 0.24178 0.52346 0.0
C1834 C 0.27496 0.21263 0.52424 0.0
C1835 C 0.27229 0.25423 0.51666 0.0
C1836 C 0.29246 0.24131 0.49765 0.0
H1837 H 0.21107 0.30441 0.47032 0.0
H1838 H 0.23586 0.30629 0.48181 0.0
H1839 H 0.29974 0.23977 0.48631 0.0
H1840 H 0.28356 0.17393 0.51847 0.0
H1841 H 0.28577 0.19559 0.50672 0.0
H1842 H 0.2365 0.27309 0.50569 0.0
C1843 C 0.23694 0.28723 0.47865 0.0
C1844 C 0.28607 0.24759 0.49051 0.0
C1845 C 0.22293 0.28622 0.47205 0.0
C1846 C 0.28109 0.19649 0.51812 0.0
C1847 C 0.28237 0.20893 0.51135 0.0
C1848 C 0.251 0.2665 0.50154 0.0
C1849 C 0.25106 0.26343 0.48128 0.0
C1850 C 0.2614 0.26234 0.48879 0.0
C1851 C 0.27738 0.23781 0.51053 0.0
C1852 C 0.27435 0.24971 0.50321 0.0
H1853 H 0.23875 0.21885 0.46734 0.0
H1854 H 0.26269 0.22036 0.47886 0.0
H1855 H 0.22527 0.28392 0.49327 0.0
H1856 H 0.26689 0.2549 0.52808 0.0
H1857 H 0.26857 0.27658 0.51618 0.0
C1858 C 0.71937 0.69228 0.7237 0.0
C1859 C 0.72216 0.70841 0.71743 0.0
C1860 C 0.72007 0.70503 0.73043 0.0
C1861 C 0.75103 0.76647 0.73902 0.0
H1862 H 0.71584 0.73405 0.75587 0.0
C1863 C 0.76149 0.76554 0.77211 0.0
C1864 C 0.79074 0.76183 0.77243 0.0
C1865 C 0.74776 0.76654 0.76547 0.0
C1866 C 0.72543 0.74385 0.75123 0.0
H1867 H 0.72588 0.75076 0.71327 0.0
H1868 H 0.72702 0.77316 0.72508 0.0
H1869 H 0.69848 0.72183 0.74396 0.0
H1870 H 0.82873 0.75798 0.7661 0.0
H1871 H 0.80493 0.75922 0.75457 0.0
H1872 H 0.77837 0.78799 0.74628 0.0
C1873 C 0.72476 0.75057 0.72478 0.0
C1874 C 0.71569 0.73659 0.7444 0.0
C1875 C 0.72415 0.73776 0.71802 0.0
C1876 C 0.80611 0.76042 0.76601 0.0
C1877 C 0.79248 0.76156 0.75941 0.0
C1878 C 0.76065 0.77383 0.74584 0.0
C1879 C 0.72351 0.73425 0.73106 0.0
C1880 C 0.72923 0.74681 0.73822 0.0
C1881 C 0.76311 0.76414 0.75905 0.0
C1882 C 0.74882 0.76158 0.752 0.0
H1883 H 0.7182 0.66959 0.72343 0.0
H1884 H 0.71958 0.69172 0.73514 0.0
H1885 H 0.76202 0.77472 0.73439 0.0
H1886 H 0.74915 0.76666 0.77699 0.0
H1887 H 0.72512 0.76869 0.76536 0.0
C1888 C 0.09298 0.0353 0.19089 0.0
C1889 C 0.10725 0.03866 0.18434 0.0
C1890 C 0.06586 0.02415 0.19105 0.0
C1891 C 0.00368 0.01417 0.17953 0.0
H1892 H 0.98008 0.96321 0.1946 0.0
C1893 C 0.89652 0.95743 0.17915 0.0
C1894 C 0.88195 0.95523 0.18569 0.0
C1895 C 0.92395 0.96778 0.17897 0.0
C1896 C 0.98627 0.97768 0.19041 0.0
H1897 H 0.10465 0.03198 0.17284 0.0
H1898 H 0.05735 0.01233 0.17311 0.0
H1899 H 0.02852 0.97978 0.19429 0.0
H1900 H 0.88455 0.96292 0.19715 0.0
H1901 H 0.93246 0.981 0.19684 0.0
H1902 H 0.96143 0.01204 0.17565 0.0
C1903 C 0.06694 0.01883 0.17812 0.0
C1904 C 0.01403 0.98714 0.19022 0.0
C1905 C 0.09404 0.03002 0.17796 0.0
C1906 C 0.89533 0.96398 0.19204 0.0
C1907 C 0.92278 0.9743 0.19186 0.0
C1908 C 0.97594 0.00467 0.17971 0.0
C1909 C 0.0524 0.01608 0.18465 0.0
C1910 C 0.02305 0.00552 0.18478 0.0
C1911 C 0.93747 0.97613 0.18533 0.0
C1912 C 0.96691 0.98635 0.18516 0.0
H1913 H 0.1024 0.04216 0.19589 0.0
H1914 H 0.05512 0.02266 0.19616 0.0
H1915 H 0.00981 0.0287 0.17534 0.0
H1916 H 0.88703 0.95041 0.17418 0.0
H1917 H 0.93483 0.96858 0.17387 0.0
C1918 C 0.05706 0.41145 0.4382 0.0
C1919 C 0.04152 0.38836 0.4357 0.0
C1920 C 0.04612 0.43859 0.43774 0.0
C1921 C 0.99254 0.48054 0.42815 0.0
H1922 H 0.00542 0.53364 0.4436 0.0
C1923 C 0.93552 0.5873 0.43017 0.0
C1924 C 0.95168 0.61073 0.43219 0.0
C1925 C 0.94698 0.56033 0.43037 0.0
C1926 C 0.00192 0.51913 0.43921 0.0
H1927 H 0.00214 0.3755 0.43089 0.0
H1928 H 0.98277 0.42288 0.43019 0.0
H1929 H 0.02376 0.48602 0.44458 0.0
H1930 H 0.99285 0.62415 0.43581 0.0
H1931 H 0.01272 0.57693 0.43624 0.0
H1932 H 0.97032 0.51365 0.42284 0.0
C1933 C 0.00367 0.42009 0.43237 0.0
C1934 C 0.01243 0.49184 0.43976 0.0
C1935 C 0.0147 0.39294 0.43279 0.0
C1936 C 0.97969 0.60654 0.43433 0.0
C1937 C 0.99109 0.57952 0.43457 0.0
C1938 C 0.98188 0.50779 0.42762 0.0
C1939 C 0.01932 0.44326 0.43481 0.0
C1940 C 0.0079 0.47222 0.43424 0.0
C1941 C 0.97478 0.55613 0.43263 0.0
C1942 C 0.98648 0.52736 0.43314 0.0
H1943 H 0.07799 0.40863 0.44035 0.0
H1944 H 0.05896 0.45597 0.43955 0.0
H1945 H 0.98907 0.46613 0.42374 0.0
H1946 H 0.91373 0.58966 0.42863 0.0
H1947 H 0.9338 0.54266 0.42894 0.0
C1948 C 0.41129 0.43517 0.68328 0.0
C1949 C 0.38768 0.45291 0.68313 0.0
C1950 C 0.43831 0.4462 0.68268 0.0
C1951 C 0.47755 0.50765 0.67624 0.0
H1952 H 0.53568 0.48001 0.689 0.0
C1953 C 0.58604 0.56062 0.67866 0.0
C1954 C 0.60967 0.54327 0.67952 0.0
C1955 C 0.55903 0.54929 0.6788 0.0
C1956 C 0.51981 0.48767 0.68533 0.0
H1957 H 0.37402 0.49621 0.68224 0.0
H1958 H 0.42137 0.51551 0.68115 0.0
H1959 H 0.48826 0.46116 0.6899 0.0
H1960 H 0.62357 0.50034 0.68103 0.0
H1961 H 0.57633 0.48043 0.68121 0.0
H1962 H 0.50911 0.5341 0.67165 0.0
C1963 C 0.41883 0.49301 0.68168 0.0
C1964 C 0.49262 0.47693 0.68586 0.0
C1965 C 0.39174 0.48196 0.6823 0.0
C1966 C 0.60573 0.51426 0.68043 0.0
C1967 C 0.57869 0.50289 0.68055 0.0
C1968 C 0.50478 0.51834 0.6757 0.0
C1969 C 0.44239 0.47523 0.68189 0.0
C1970 C 0.4712 0.48682 0.68133 0.0
C1971 C 0.55501 0.52032 0.6798 0.0
C1972 C 0.52622 0.5085 0.68024 0.0
H1973 H 0.4089 0.41263 0.68374 0.0
H1974 H 0.45602 0.43193 0.68273 0.0
H1975 H 0.46155 0.5154 0.67262 0.0
H1976 H 0.58837 0.58313 0.67808 0.0
H1977 H 0.54126 0.56337 0.67833 0.0
C1978 C 0.48268 0.10377 0.93358 0.0
C1979 C 0.45544 0.1087 0.93619 0.0
C1980 C 0.49341 0.07647 0.93329 0.0
C1981 C 0.48307 0.00542 0.94087 0.0
H1982 H 0.52751 0.98202 0.92448 0.0
C1983 C 0.51758 0.89023 0.93643 0.0
C1984 C 0.5455 0.8861 0.93422 0.0
C1985 C 0.50603 0.91722 0.93659 0.0
C1986 C 0.51533 0.98832 0.92912 0.0
H1987 H 0.41781 0.08883 0.94034 0.0
H1988 H 0.43643 0.04128 0.93979 0.0
H1989 H 0.50865 0.02959 0.92492 0.0
H1990 H 0.58337 0.90722 0.93062 0.0
H1991 H 0.56315 0.95411 0.93085 0.0
H1992 H 0.48972 0.96408 0.94506 0.0
C1993 C 0.44976 0.05851 0.93813 0.0
C1994 C 0.50457 0.01559 0.92938 0.0
C1995 C 0.43909 0.08577 0.93844 0.0
C1996 C 0.5616 0.90956 0.9322 0.0
C1997 C 0.55005 0.93646 0.93234 0.0
C1998 C 0.49376 0.97812 0.9406 0.0
C1999 C 0.47707 0.05352 0.93556 0.0
C2000 C 0.4884 0.02449 0.93527 0.0
C2001 C 0.52215 0.94061 0.93454 0.0
C2002 C 0.5101 0.96932 0.93474 0.0
H2003 H 0.49586 0.12105 0.93188 0.0
H2004 H 0.51467 0.07338 0.93138 0.0
H2005 H 0.47104 0.01172 0.94553 0.0
H2006 H 0.50454 0.87257 0.93794 0.0
H2007 H 0.48436 0.91974 0.93824 0.0
C2008 C 0.09319 0.45253 0.05105 0.0
C2009 C 0.11243 0.46049 0.05638 0.0
C2010 C 0.06581 0.46304 0.05112 0.0
C2011 C 0.01437 0.49717 0.06338 0.0
H2012 H 0.97332 0.51014 0.0457 0.0
C2013 C 0.909 0.55683 0.06191 0.0
C2014 C 0.88709 0.54334 0.05818 0.0
C2015 C 0.9363 0.54622 0.06169 0.0
C2016 C 0.98454 0.50639 0.05067 0.0
H2017 H 0.11871 0.48637 0.0658 0.0
H2018 H 0.07132 0.50581 0.06577 0.0
H2019 H 0.02198 0.49419 0.04517 0.0
H2020 H 0.87703 0.50781 0.05133 0.0
H2021 H 0.92509 0.48999 0.05074 0.0
H2022 H 0.97704 0.51039 0.06885 0.0
C2023 C 0.0769 0.49069 0.06167 0.0
C2024 C 0.01237 0.49716 0.05039 0.0
C2025 C 0.10413 0.47978 0.06166 0.0
C2026 C 0.89335 0.51903 0.05418 0.0
C2027 C 0.92081 0.50872 0.05386 0.0
C2028 C 0.98673 0.50685 0.06366 0.0
C2029 C 0.0572 0.48209 0.05647 0.0
C2030 C 0.02767 0.49238 0.05674 0.0
C2031 C 0.94247 0.52221 0.05763 0.0
C2032 C 0.97157 0.51148 0.05731 0.0
H2033 H 0.09904 0.43737 0.04698 0.0
H2034 H 0.0512 0.45553 0.04711 0.0
H2035 H 0.02515 0.49311 0.06839 0.0
H2036 H 0.9053 0.57598 0.06489 0.0
H2037 H 0.95276 0.55718 0.06457 0.0
C2038 C 0.51514 0.60629 0.3038 0.0
C2039 C 0.54448 0.60961 0.30365 0.0
C2040 C 0.50319 0.57949 0.30392 0.0
C2041 C 0.51807 0.50519 0.29988 0.0
H2042 H 0.45828 0.49038 0.31349 0.0
C2043 C 0.4794 0.39283 0.30605 0.0
C2044 C 0.45042 0.38901 0.30705 0.0
C2045 C 0.49066 0.41985 0.30547 0.0
C2046 C 0.47469 0.49423 0.30959 0.0
H2047 H 0.58421 0.58724 0.30358 0.0
H2048 H 0.56333 0.54062 0.3037 0.0
H2049 H 0.47784 0.53751 0.31258 0.0
H2050 H 0.41042 0.41042 0.30803 0.0
H2051 H 0.42995 0.45746 0.30695 0.0
H2052 H 0.51488 0.46196 0.29686 0.0
C2053 C 0.54959 0.55875 0.30363 0.0
C2054 C 0.4859 0.52124 0.30907 0.0
C2055 C 0.56154 0.5855 0.30355 0.0
C2056 C 0.43291 0.41272 0.3074 0.0
C2057 C 0.44412 0.43968 0.30678 0.0
C2058 C 0.50677 0.47819 0.30037 0.0
C2059 C 0.52031 0.55545 0.30387 0.0
C2060 C 0.50778 0.52698 0.30423 0.0
C2061 C 0.47313 0.4436 0.30583 0.0
C2062 C 0.48502 0.47236 0.30525 0.0
H2063 H 0.50138 0.6244 0.30378 0.0
H2064 H 0.48053 0.57757 0.30401 0.0
H2065 H 0.5347 0.50908 0.29604 0.0
H2066 H 0.49343 0.37495 0.30582 0.0
H2067 H 0.51315 0.42212 0.30484 0.0
C2068 C 0.60169 0.97883 0.55877 0.0
C2069 C 0.60649 0.95142 0.55627 0.0
C2070 C 0.57441 0.98953 0.55917 0.0
C2071 C 0.50264 0.97886 0.55213 0.0
H2072 H 0.48087 0.02289 0.56874 0.0
C2073 C 0.38792 0.01295 0.55722 0.0
C2074 C 0.38388 0.04089 0.55943 0.0
C2075 C 0.41489 0.00139 0.55699 0.0
C2076 C 0.48671 0.01082 0.56404 0.0
H2077 H 0.58637 0.91359 0.55231 0.0
H2078 H 0.53883 0.93223 0.553 0.0
H2079 H 0.52848 0.0043 0.56793 0.0
H2080 H 0.4051 0.07866 0.56305 0.0
H2081 H 0.45199 0.05843 0.5627 0.0
H2082 H 0.46084 0.9854 0.54825 0.0
C2083 C 0.55617 0.94565 0.55454 0.0
C2084 C 0.51399 0.00022 0.56357 0.0
C2085 C 0.58343 0.93498 0.55414 0.0
C2086 C 0.40738 0.0569 0.56146 0.0
C2087 C 0.43429 0.04534 0.56125 0.0
C2088 C 0.47534 0.98942 0.55261 0.0
C2089 C 0.55133 0.97302 0.55708 0.0
C2090 C 0.5223 0.9842 0.55759 0.0
C2091 C 0.43837 0.01751 0.55897 0.0
C2092 C 0.46711 0.0056 0.55856 0.0
H2093 H 0.61905 0.99213 0.56037 0.0
H2094 H 0.57142 0.01085 0.56104 0.0
H2095 H 0.50849 0.96692 0.54741 0.0
H2096 H 0.37023 -4e-05 0.5557 0.0
H2097 H 0.41735 0.97976 0.5553 0.0
C2098 C 0.02598 0.10129 0.81484 0.0
C2099 C 0.03748 0.11308 0.80859 0.0
C2100 C 0.01451 0.07432 0.81472 0.0
C2101 C 0.98853 0.01865 0.80248 0.0
H2102 H 0.0062 0.96973 0.8185 0.0
C2103 C 0.96846 0.89922 0.80174 0.0
C2104 C 0.95593 0.88738 0.80787 0.0
C2105 C 0.97821 0.92687 0.80184 0.0
C2106 C 0.00088 0.98322 0.81402 0.0
H2107 H 0.04569 0.10606 0.79728 0.0
H2108 H 0.02593 0.05888 0.79706 0.0
H2109 H 0.02245 0.01823 0.81861 0.0
H2110 H 0.94383 0.89543 0.81892 0.0
H2111 H 0.96123 0.94352 0.81912 0.0
H2112 H 0.96728 0.9834 0.79785 0.0
C2113 C 0.02531 0.07062 0.80204 0.0
C2114 C 0.0101 0.01104 0.81409 0.0
C2115 C 0.03664 0.09766 0.80216 0.0
C2116 C 0.95382 0.9037 0.81414 0.0
C2117 C 0.96369 0.93129 0.81425 0.0
C2118 C 0.97944 0.99077 0.80239 0.0
C2119 C 0.01446 0.05848 0.80834 0.0
C2120 C 0.00404 0.02909 0.80832 0.0
C2121 C 0.97577 0.94324 0.80809 0.0
C2122 C 0.98554 0.97278 0.80816 0.0
H2123 H 0.02602 0.11287 0.81985 0.0
H2124 H 0.00581 0.06581 0.81963 0.0
H2125 H 0.98317 0.0321 0.79799 0.0
H2126 H 0.9708 0.88709 0.79685 0.0
H2127 H 0.98783 0.9354 0.79705 0.0
C2128 C 0.59818 0.97693 0.18918 0.0
C2129 C 0.60131 0.9478 0.18828 0.0
C2130 C 0.57143 0.98901 0.18947 0.0
C2131 C 0.49778 0.97531 0.1843 0.0
H2132 H 0.48123 0.03572 0.19761 0.0
C2133 C 0.38546 0.01795 0.18824 0.0
C2134 C 0.38246 0.04728 0.1886 0.0
C2135 C 0.41208 0.00562 0.18847 0.0
C2136 C 0.48561 0.01902 0.19382 0.0
H2137 H 0.57885 0.90841 0.18723 0.0
H2138 H 0.53227 0.92941 0.18776 0.0
H2139 H 0.52797 0.01467 0.19751 0.0
H2140 H 0.40516 0.08664 0.18946 0.0
H2141 H 0.45153 0.06511 0.1899 0.0
H2142 H 0.45548 0.97967 0.1806 0.0
C2143 C 0.55044 0.94302 0.18809 0.0
C2144 C 0.51239 0.00699 0.19376 0.0
C2145 C 0.57714 0.93098 0.18778 0.0
C2146 C 0.40668 0.06396 0.18928 0.0
C2147 C 0.43328 0.05163 0.18953 0.0
C2148 C 0.47103 0.9873 0.18437 0.0
C2149 C 0.54725 0.9722 0.18888 0.0
C2150 C 0.51879 0.985 0.18899 0.0
C2151 C 0.43629 0.02233 0.18909 0.0
C2152 C 0.46463 0.00931 0.18912 0.0
H2153 H 0.6164 0.99047 0.1895 0.0
H2154 H 0.56971 0.01159 0.18999 0.0
H2155 H 0.50215 0.95874 0.18047 0.0
H2156 H 0.36721 0.00448 0.18782 0.0
H2157 H 0.41368 0.98296 0.18823 0.0
C2158 C 0.95608 0.90145 0.43169 0.0
C2159 C 0.95498 0.88508 0.43796 0.0
C2160 C 0.96793 0.92826 0.43182 0.0
C2161 C 0.98535 0.98616 0.44422 0.0
H2162 H 0.03003 0.01279 0.42821 0.0
C2163 C 0.045 0.092 0.44467 0.0
C2164 C 0.04422 0.1082 0.43836 0.0
C2165 C 0.03422 0.06471 0.44474 0.0
C2166 C 0.01736 0.00575 0.43269 0.0
H2167 H 0.96615 0.8837 0.44924 0.0
H2168 H 0.98707 0.93048 0.44946 0.0
H2169 H 0.012 0.9649 0.42811 0.0
H2170 H 0.03071 0.1087 0.42724 0.0
H2171 H 0.01199 0.06107 0.42736 0.0
H2172 H 0.99078 0.02705 0.4488 0.0
C2173 C 0.9783 0.92277 0.44447 0.0
C2174 C 0.00703 0.97831 0.43264 0.0
C2175 C 0.96638 0.89596 0.44434 0.0
C2176 C 0.03207 0.09662 0.43215 0.0
C2177 C 0.02135 0.06932 0.43222 0.0
C2178 C 0.99575 0.01359 0.44428 0.0
C2179 C 0.97902 0.93932 0.43822 0.0
C2180 C 0.99078 0.96822 0.43839 0.0
C2181 C 0.02249 0.05299 0.4385 0.0
C2182 C 0.01173 0.02374 0.4385 0.0
H2183 H 0.94706 0.89387 0.42672 0.0
H2184 H 0.96773 0.94061 0.42694 0.0
H2185 H 0.97254 0.9792 0.44869 0.0
H2186 H 0.0546 0.10012 0.44952 0.0
H2187 H 0.03569 0.05254 0.44964 0.0
C2188 C 0.081 0.43094 0.68629 0.0
C2189 C 0.10463 0.44804 0.68745 0.0
C2190 C 0.05395 0.44214 0.6867 0.0
C2191 C 0.01369 0.50253 0.69379 0.0
H2192 H 0.95894 0.48 0.67949 0.0
C2193 C 0.90834 0.56044 0.68969 0.0
C2194 C 0.88437 0.54412 0.68827 0.0
C2195 C 0.9349 0.54805 0.68998 0.0
C2196 C 0.97386 0.48623 0.68358 0.0
H2197 H 0.11837 0.49035 0.68992 0.0
H2198 H 0.07111 0.50999 0.69059 0.0
H2199 H 0.00593 0.45984 0.67922 0.0
H2200 H 0.86947 0.50183 0.68624 0.0
H2201 H 0.9159 0.48021 0.68672 0.0
H2202 H 0.98162 0.52916 0.69811 0.0
C2203 C 0.0735 0.4878 0.68947 0.0
C2204 C 0.00081 0.47468 0.68343 0.0
C2205 C 0.10058 0.47656 0.68908 0.0
C2206 C 0.88755 0.51505 0.68724 0.0
C2207 C 0.91414 0.50267 0.68751 0.0
C2208 C 0.98673 0.51412 0.69394 0.0
C2209 C 0.04987 0.47073 0.68826 0.0
C2210 C 0.02108 0.48275 0.68851 0.0
C2211 C 0.93814 0.51907 0.68883 0.0
C2212 C 0.96654 0.50616 0.68883 0.0
H2213 H 0.08339 0.40876 0.68516 0.0
H2214 H 0.0362 0.42831 0.68586 0.0
H2215 H 0.02867 0.50888 0.69785 0.0
H2216 H 0.90671 0.58295 0.69039 0.0
H2217 H 0.953 0.56133 0.6909 0.0
C2218 C 0.4374 0.41249 0.94158 0.0
C2219 C 0.45261 0.38926 0.93899 0.0
C2220 C 0.44959 0.43912 0.94181 0.0
C2221 C 0.51715 0.47573 0.94243 0.0
H2222 H 0.47512 0.53873 0.93477 0.0
C2223 C 0.56767 0.58451 0.93812 0.0
C2224 C 0.55112 0.60846 0.93933 0.0
C2225 C 0.55571 0.55775 0.93832 0.0
C2226 C 0.487 0.52149 0.93704 0.0
H2227 H 0.49277 0.37601 0.93463 0.0
H2228 H 0.51424 0.42251 0.93519 0.0
H2229 H 0.45428 0.49202 0.93473 0.0
H2230 H 0.50926 0.62322 0.94187 0.0
H2231 H 0.4884 0.57646 0.94238 0.0
H2232 H 0.54972 0.50515 0.94485 0.0
C2233 C 0.49284 0.41994 0.93705 0.0
C2234 C 0.47507 0.49471 0.93699 0.0
C2235 C 0.48055 0.3933 0.93675 0.0
C2236 C 0.52243 0.60512 0.94084 0.0
C2237 C 0.5105 0.57832 0.9411 0.0
C2238 C 0.52899 0.50258 0.94255 0.0
C2239 C 0.47739 0.44314 0.93953 0.0
C2240 C 0.49006 0.47155 0.93965 0.0
C2241 C 0.52695 0.5543 0.93979 0.0
C2242 C 0.51411 0.5258 0.93983 0.0
H2243 H 0.41607 0.4101 0.9435 0.0
H2244 H 0.43735 0.45656 0.94384 0.0
H2245 H 0.52903 0.45829 0.9446 0.0
H2246 H 0.58977 0.58649 0.93684 0.0
H2247 H 0.56893 0.53983 0.93715 0.0
C2248 C 0.58968 0.55052 0.05978 0.0
C2249 C 0.60953 0.54415 0.05447 0.0
C2250 C 0.56267 0.53918 0.05946 0.0
C2251 C 0.5131 0.50303 0.04693 0.0
H2252 H 0.47311 0.48736 0.06462 0.0
C2253 C 0.41032 0.43742 0.04935 0.0
C2254 C 0.38803 0.45111 0.0529 0.0
C2255 C 0.43718 0.44922 0.04923 0.0
C2256 C 0.48406 0.49178 0.05965 0.0
H2257 H 0.61718 0.52069 0.04472 0.0
H2258 H 0.5705 0.49958 0.0443 0.0
H2259 H 0.52081 0.50569 0.06514 0.0
H2260 H 0.37678 0.48865 0.05889 0.0
H2261 H 0.42404 0.50834 0.05897 0.0
H2262 H 0.4764 0.48777 0.04149 0.0
C2263 C 0.57525 0.51411 0.0486 0.0
C2264 C 0.51134 0.50247 0.05992 0.0
C2265 C 0.60209 0.52598 0.04886 0.0
C2266 C 0.3934 0.47707 0.05626 0.0
C2267 C 0.42041 0.48853 0.05626 0.0
C2268 C 0.48602 0.49174 0.04666 0.0
C2269 C 0.55506 0.52069 0.05388 0.0
C2270 C 0.5262 0.50851 0.05357 0.0
C2271 C 0.4425 0.47464 0.05278 0.0
C2272 C 0.47123 0.48627 0.05302 0.0
H2273 H 0.59487 0.56482 0.06411 0.0
H2274 H 0.54767 0.54536 0.06353 0.0
H2275 H 0.52352 0.50785 0.04191 0.0
H2276 H 0.40731 0.41718 0.04683 0.0
H2277 H 0.45403 0.43805 0.04656 0.0
C2278 C 0.46563 0.09927 0.31207 0.0
C2279 C 0.45838 0.11324 0.30569 0.0
C2280 C 0.47815 0.07277 0.31184 0.0
C2281 C 0.48719 0.01115 0.29996 0.0
H2282 H 0.54447 0.9907 0.3138 0.0
C2283 C 0.54888 0.90651 0.29862 0.0
C2284 C 0.55255 0.89209 0.30515 0.0
C2285 C 0.53782 0.9337 0.29854 0.0
C2286 C 0.52833 0.99605 0.30994 0.0
H2287 H 0.4593 0.11075 0.29407 0.0
H2288 H 0.48157 0.06462 0.29366 0.0
H2289 H 0.52522 0.03813 0.31387 0.0
H2290 H 0.54678 0.89483 0.31669 0.0
H2291 H 0.52783 0.94235 0.31653 0.0
H2292 H 0.4905 0.96903 0.29601 0.0
C2293 C 0.47702 0.07387 0.29885 0.0
C2294 C 0.51727 0.02321 0.30998 0.0
C2295 C 0.46434 0.10033 0.29907 0.0
C2296 C 0.54473 0.90548 0.31158 0.0
C2297 C 0.53384 0.93271 0.31149 0.0
C2298 C 0.49839 0.98403 0.29989 0.0
C2299 C 0.48388 0.05966 0.30523 0.0
C2300 C 0.49641 0.03105 0.30502 0.0
C2301 C 0.53033 0.94714 0.30498 0.0
C2302 C 0.51893 0.97613 0.30492 0.0
H2303 H 0.46089 0.10849 0.31725 0.0
H2304 H 0.4827 0.06226 0.31687 0.0
H2305 H 0.47084 0.01631 0.29614 0.0
H2306 H 0.55508 0.89703 0.29358 0.0
H2307 H 0.53564 0.94442 0.29344 0.0
C2308 C 0.91165 0.93673 0.55311 0.0
C2309 C 0.88778 0.95409 0.55321 0.0
C2310 C 0.93846 0.94828 0.55254 0.0
C2311 C 0.97679 0.01216 0.54706 0.0
H2312 H 0.03542 0.98152 0.55921 0.0
C2313 C 0.08462 0.06582 0.55097 0.0
C2314 C 0.10847 0.04848 0.55136 0.0
C2315 C 0.05772 0.05416 0.55074 0.0
C2316 C 0.01939 0.99007 0.55571 0.0
H2317 H 0.87333 0.99721 0.5527 0.0
H2318 H 0.92033 0.01748 0.55173 0.0
H2319 H 0.98833 0.96177 0.55974 0.0
H2320 H 0.1228 0.00527 0.55155 0.0
H2321 H 0.07582 0.9849 0.55116 0.0
H2322 H 0.00793 0.04063 0.54308 0.0
C2323 C 0.91821 0.99487 0.55203 0.0
C2324 C 0.99239 0.97877 0.55602 0.0
C2325 C 0.89131 0.98328 0.55259 0.0
C2326 C 0.10483 0.0192 0.55137 0.0
C2327 C 0.07793 0.00754 0.55115 0.0
C2328 C 0.00384 0.0235 0.54676 0.0
C2329 C 0.9421 0.97748 0.55205 0.0
C2330 C 0.97077 0.98966 0.5517 0.0
C2331 C 0.05406 0.0249 0.55091 0.0
C2332 C 0.02544 0.01257 0.55108 0.0
H2333 H 0.9096 0.91411 0.55342 0.0
H2334 H 0.95637 0.93427 0.55243 0.0
H2335 H 0.96068 0.02078 0.5436 0.0
H2336 H 0.08665 0.08847 0.55107 0.0
H2337 H 0.03976 0.06811 0.55066 0.0
C2338 C 0.93633 0.58269 0.80599 0.0
C2339 C 0.95295 0.60632 0.80447 0.0
C2340 C 0.94785 0.55576 0.80573 0.0
C2341 C 0.00859 0.51558 0.79866 0.0
H2342 H 0.98619 0.46143 0.81312 0.0
C2343 C 0.06675 0.41068 0.80341 0.0
C2344 C 0.05016 0.38663 0.80452 0.0
C2345 C 0.05445 0.43726 0.80306 0.0
C2346 C 0.99241 0.47623 0.809 0.0
H2347 H 0.99468 0.62033 0.80154 0.0
H2348 H 0.01503 0.5733 0.80122 0.0
H2349 H 0.96589 0.50837 0.81326 0.0
H2350 H 0.00745 0.37172 0.80594 0.0
H2351 H 0.98607 0.41824 0.80545 0.0
H2352 H 0.03556 0.48343 0.79451 0.0
C2353 C 0.99292 0.57551 0.80246 0.0
C2354 C 0.98076 0.50313 0.80907 0.0
C2355 C 0.98132 0.60246 0.80266 0.0
C2356 C 0.02092 0.38982 0.8052 0.0
C2357 C 0.00864 0.41644 0.80491 0.0
C2358 C 0.0204 0.48871 0.79863 0.0
C2359 C 0.97633 0.55182 0.80401 0.0
C2360 C 0.98869 0.52315 0.8039 0.0
C2361 C 0.0253 0.44044 0.80387 0.0
C2362 C 0.01242 0.46878 0.8038 0.0
H2363 H 0.91427 0.585 0.80728 0.0
H2364 H 0.93432 0.53799 0.80682 0.0
H2365 H 0.01484 0.5303 0.79453 0.0
H2366 H 0.08937 0.4091 0.80299 0.0
H2367 H 0.06785 0.45543 0.80235 0.0
loop_
_geom_bond_atom_site_label_1
_geom_bond_atom_site_label_2
_geom_bond_distance
_geom_bond_site_symmetry_2
_ccdc_geom_bond_type
Li0 N17 1.990 . S
Li0 O60 1.956 . S
Li0 O61 1.970 . S
Li0 O62 1.961 . S
Li1 N25 1.990 . S
Li1 O60 1.970 . S
Li1 O61 1.956 . S
Li1 O63 1.961 . S
Li2 N47 1.990 . S
Li2 O60 1.961 . S
Li2 O62 1.956 . S
Li2 O63 1.970 . S
Li3 N53 1.990 . S
Li3 O61 1.961 . S
Li3 O62 1.970 . S
Li3 O63 1.956 . S
C4 C6 1.348 . S
C4 C7 1.356 . S
C4 O60 1.325 . S
N5 C8 1.314 . S
N5 C9 1.279 . S
C6 C4 1.348 . S
C6 C8 1.353 . S
C6 H64 0.929 . S
C7 C4 1.356 . S
C7 C9 1.358 . S
C7 H65 0.930 . S
C8 N5 1.314 . S
C8 C6 1.353 . S
C8 H66 0.930 . S
C9 N5 1.279 . S
C9 C7 1.358 . S
C9 H67 0.930 . S
C10 C13 1.348 . S
C10 C14 1.356 . S
C10 O61 1.325 . S
C11 N12 1.279 . S
C11 C14 1.358 . S
C11 H68 0.930 . S
N12 C11 1.279 . S
N12 C15 1.314 . S
C13 C10 1.348 . S
C13 C15 1.353 . S
C13 H69 0.929 . S
C14 C10 1.356 . S
C14 C11 1.358 . S
C14 H70 0.930 . S
C15 N12 1.314 . S
C15 C13 1.353 . S
C15 H71 0.930 . S
C16 N17 1.314 . S
C16 C21 1.353 . S
C16 H22 0.930 . S
N17 Li0 1.990 . S
N17 C16 1.314 . S
N17 C19 1.279 . S
C18 C19 1.358 . S
C18 C20 1.356 . S
C18 H72 0.930 . S
C19 N17 1.279 . S
C19 C18 1.358 . S
C19 H23 0.930 . S
C20 C18 1.356 . S
C20 C21 1.348 . S
C21 C16 1.353 . S
C21 C20 1.348 . S
C21 H73 0.929 . S
H22 C16 0.930 . S
H23 C19 0.930 . S
C24 N25 1.314 . S
C24 C26 1.353 . S
C24 H30 0.930 . S
N25 Li1 1.990 . S
N25 C24 1.314 . S
N25 C28 1.279 . S
C26 C24 1.353 . S
C26 C29 1.348 . S
C26 H74 0.929 . S
C27 C28 1.358 . S
C27 C29 1.356 . S
C27 H75 0.930 . S
C28 N25 1.279 . S
C28 C27 1.358 . S
C28 H31 0.930 . S
C29 C26 1.348 . S
C29 C27 1.356 . S
H30 C24 0.930 . S
H31 C28 0.930 . S
C32 C34 1.348 . S
C32 C35 1.356 . S
C32 O62 1.325 . S
N33 C36 1.314 . S
N33 C37 1.279 . S
C34 C32 1.348 . S
C34 C36 1.353 . S
C34 H76 0.929 . S
C35 C32 1.356 . S
C35 C37 1.358 . S
C35 H77 0.930 . S
C36 N33 1.314 . S
C36 C34 1.353 . S
C36 H78 0.930 . S
C37 N33 1.279 . S
C37 C35 1.358 . S
C37 H79 0.930 . S
C38 C39 1.348 . S
C38 C40 1.356 . S
C38 O63 1.325 . S
C39 C38 1.348 . S
C39 C41 1.353 . S
C39 H80 0.929 . S
C40 C38 1.356 . S
C40 C42 1.358 . S
C40 H81 0.930 . S
C41 C39 1.353 . S
C41 N43 1.314 . S
C41 H82 0.930 . S
C42 C40 1.358 . S
C42 N43 1.279 . S
C42 H83 0.930 . S
N43 C41 1.314 . S
N43 C42 1.279 . S
C44 C46 1.353 . S
C44 N47 1.314 . S
C44 H50 0.930 . S
C45 N47 1.279 . S
C45 C48 1.358 . S
C45 H51 0.930 . S
C46 C44 1.353 . S
C46 C49 1.348 . S
C46 H84 0.929 . S
N47 Li2 1.990 . S
N47 C44 1.314 . S
N47 C45 1.279 . S
C48 C45 1.358 . S
C48 C49 1.356 . S
C48 H85 0.930 . S
C49 C46 1.348 . S
C49 C48 1.356 . S
H50 C44 0.930 . S
H51 C45 0.930 . S
C52 N53 1.314 . S
C52 C54 1.353 . S
C52 H58 0.930 . S
N53 Li3 1.990 . S
N53 C52 1.314 . S
N53 C56 1.279 . S
C54 C52 1.353 . S
C54 C57 1.348 . S
C54 H86 0.929 . S
C55 C56 1.358 . S
C55 C57 1.356 . S
C55 H87 0.930 . S
C56 N53 1.279 . S
C56 C55 1.358 . S
C56 H59 0.930 . S
C57 C54 1.348 . S
C57 C55 1.356 . S
H58 C52 0.930 . S
H59 C56 0.930 . S
O60 Li0 1.956 . S
O60 Li1 1.970 . S
O60 Li2 1.961 . S
O60 C4 1.325 . S
O61 Li0 1.970 . S
O61 Li1 1.956 . S
O61 Li3 1.961 . S
O61 C10 1.325 . S
O62 Li0 1.961 . S
O62 Li2 1.956 . S
O62 Li3 1.970 . S
O62 C32 1.325 . S
O63 Li1 1.961 . S
O63 Li2 1.970 . S
O63 Li3 1.956 . S
O63 C38 1.325 . S
H64 C6 0.929 . S
H65 C7 0.930 . S
H66 C8 0.930 . S
H67 C9 0.930 . S
H68 C11 0.930 . S
H69 C13 0.929 . S
H70 C14 0.930 . S
H71 C15 0.930 . S
H72 C18 0.930 . S
H73 C21 0.929 . S
H74 C26 0.929 . S
H75 C27 0.930 . S
H76 C34 0.929 . S
H77 C35 0.930 . S
H78 C36 0.930 . S
H79 C37 0.930 . S
H80 C39 0.929 . S
H81 C40 0.930 . S
H82 C41 0.930 . S
H83 C42 0.930 . S
H84 C46 0.929 . S
H85 C48 0.930 . S
H86 C54 0.929 . S
H87 C55 0.930 . S
Li88 N105 1.990 . S
Li88 O148 1.956 . S
Li88 O149 1.970 . S
Li88 O150 1.961 . S
Li89 N113 1.990 . S
Li89 O148 1.970 . S
Li89 O149 1.956 . S
Li89 O151 1.961 . S
Li90 N135 1.990 . S
Li90 O148 1.961 . S
Li90 O150 1.956 . S
Li90 O151 1.970 . S
Li91 N141 1.990 . S
Li91 O149 1.961 . S
Li91 O150 1.970 . S
Li91 O151 1.956 . S
C92 C94 1.348 . S
C92 C95 1.356 . S
C92 O148 1.325 . S
N93 C96 1.314 . S
N93 C97 1.279 . S
C94 C92 1.348 . S
C94 C96 1.353 . S
C94 H152 0.929 . S
C95 C92 1.356 . S
C95 C97 1.358 . S
C95 H153 0.930 . S
C96 N93 1.314 . S
C96 C94 1.353 . S
C96 H154 0.930 . S
C97 N93 1.279 . S
C97 C95 1.358 . S
C97 H155 0.930 . S
C98 C101 1.348 . S
C98 C102 1.356 . S
C98 O149 1.325 . S
C99 N100 1.279 . S
C99 C102 1.358 . S
C99 H156 0.930 . S
N100 C99 1.279 . S
N100 C103 1.314 . S
C101 C98 1.348 . S
C101 C103 1.353 . S
C101 H157 0.929 . S
C102 C98 1.356 . S
C102 C99 1.358 . S
C102 H158 0.930 . S
C103 N100 1.314 . S
C103 C101 1.353 . S
C103 H159 0.930 . S
C104 N105 1.314 . S
C104 C109 1.353 . S
C104 H110 0.930 . S
N105 Li88 1.990 . S
N105 C104 1.314 . S
N105 C107 1.279 . S
C106 C107 1.358 . S
C106 C108 1.356 . S
C106 H160 0.930 . S
C107 N105 1.279 . S
C107 C106 1.358 . S
C107 H111 0.930 . S
C108 C106 1.356 . S
C108 C109 1.348 . S
C109 C104 1.353 . S
C109 C108 1.348 . S
C109 H161 0.929 . S
H110 C104 0.930 . S
H111 C107 0.930 . S
C112 N113 1.314 . S
C112 C114 1.353 . S
C112 H118 0.930 . S
N113 Li89 1.990 . S
N113 C112 1.314 . S
N113 C116 1.279 . S
C114 C112 1.353 . S
C114 C117 1.348 . S
C114 H162 0.929 . S
C115 C116 1.358 . S
C115 C117 1.356 . S
C115 H163 0.930 . S
C116 N113 1.279 . S
C116 C115 1.358 . S
C116 H119 0.930 . S
C117 C114 1.348 . S
C117 C115 1.356 . S
H118 C112 0.930 . S
H119 C116 0.930 . S
C120 C122 1.348 . S
C120 C123 1.356 . S
C120 O150 1.325 . S
N121 C124 1.314 . S
N121 C125 1.279 . S
C122 C120 1.348 . S
C122 C124 1.353 . S
C122 H164 0.929 . S
C123 C120 1.356 . S
C123 C125 1.358 . S
C123 H165 0.930 . S
C124 N121 1.314 . S
C124 C122 1.353 . S
C124 H166 0.930 . S
C125 N121 1.279 . S
C125 C123 1.358 . S
C125 H167 0.930 . S
C126 C127 1.348 . S
C126 C128 1.356 . S
C126 O151 1.325 . S
C127 C126 1.348 . S
C127 C129 1.353 . S
C127 H168 0.929 . S
C128 C126 1.356 . S
C128 C130 1.358 . S
C128 H169 0.930 . S
C129 C127 1.353 . S
C129 N131 1.314 . S
C129 H170 0.930 . S
C130 C128 1.358 . S
C130 N131 1.279 . S
C130 H171 0.930 . S
N131 C129 1.314 . S
N131 C130 1.279 . S
C132 C134 1.353 . S
C132 N135 1.314 . S
C132 H138 0.930 . S
C133 N135 1.279 . S
C133 C136 1.358 . S
C133 H139 0.930 . S
C134 C132 1.353 . S
C134 C137 1.348 . S
C134 H172 0.929 . S
N135 Li90 1.990 . S
N135 C132 1.314 . S
N135 C133 1.279 . S
C136 C133 1.358 . S
C136 C137 1.356 . S
C136 H173 0.930 . S
C137 C134 1.348 . S
C137 C136 1.356 . S
H138 C132 0.930 . S
H139 C133 0.930 . S
C140 N141 1.314 . S
C140 C142 1.353 . S
C140 H146 0.930 . S
N141 Li91 1.990 . S
N141 C140 1.314 . S
N141 C144 1.279 . S
C142 C140 1.353 . S
C142 C145 1.348 . S
C142 H174 0.929 . S
C143 C144 1.358 . S
C143 C145 1.356 . S
C143 H175 0.930 . S
C144 N141 1.279 . S
C144 C143 1.358 . S
C144 H147 0.930 . S
C145 C142 1.348 . S
C145 C143 1.356 . S
H146 C140 0.930 . S
H147 C144 0.930 . S
O148 Li88 1.956 . S
O148 Li89 1.970 . S
O148 Li90 1.961 . S
O148 C92 1.325 . S
O149 Li88 1.970 . S
O149 Li89 1.956 . S
O149 Li91 1.961 . S
O149 C98 1.325 . S
O150 Li88 1.961 . S
O150 Li90 1.956 . S
O150 Li91 1.970 . S
O150 C120 1.325 . S
O151 Li89 1.961 . S
O151 Li90 1.970 . S
O151 Li91 1.956 . S
O151 C126 1.325 . S
H152 C94 0.929 . S
H153 C95 0.930 . S
H154 C96 0.930 . S
H155 C97 0.930 . S
H156 C99 0.930 . S
H157 C101 0.929 . S
H158 C102 0.930 . S
H159 C103 0.930 . S
H160 C106 0.930 . S
H161 C109 0.929 . S
H162 C114 0.929 . S
H163 C115 0.930 . S
H164 C122 0.929 . S
H165 C123 0.930 . S
H166 C124 0.930 . S
H167 C125 0.930 . S
H168 C127 0.929 . S
H169 C128 0.930 . S
H170 C129 0.930 . S
H171 C130 0.930 . S
H172 C134 0.929 . S
H173 C136 0.930 . S
H174 C142 0.929 . S
H175 C143 0.930 . S
Li176 N193 1.990 . S
Li176 O236 1.956 . S
Li176 O237 1.970 . S
Li176 O238 1.961 . S
Li177 N201 1.990 . S
Li177 O236 1.970 . S
Li177 O237 1.956 . S
Li177 O239 1.961 . S
Li178 N223 1.990 . S
Li178 O236 1.961 . S
Li178 O238 1.956 . S
Li178 O239 1.970 . S
Li179 N229 1.990 . S
Li179 O237 1.961 . S
Li179 O238 1.970 . S
Li179 O239 1.956 . S
C180 C182 1.348 . S
C180 C183 1.356 . S
C180 O236 1.325 . S
N181 C184 1.314 . S
N181 C185 1.279 . S
C182 C180 1.348 . S
C182 C184 1.353 . S
C182 H240 0.929 . S
C183 C180 1.356 . S
C183 C185 1.358 . S
C183 H241 0.930 . S
C184 N181 1.314 . S
C184 C182 1.353 . S
C184 H242 0.930 . S
C185 N181 1.279 . S
C185 C183 1.358 . S
C185 H243 0.930 . S
C186 C189 1.348 . S
C186 C190 1.356 . S
C186 O237 1.325 . S
C187 N188 1.279 . S
C187 C190 1.358 . S
C187 H244 0.930 . S
N188 C187 1.279 . S
N188 C191 1.314 . S
C189 C186 1.348 . S
C189 C191 1.353 . S
C189 H245 0.929 . S
C190 C186 1.356 . S
C190 C187 1.358 . S
C190 H246 0.930 . S
C191 N188 1.314 . S
C191 C189 1.353 . S
C191 H247 0.930 . S
C192 N193 1.314 . S
C192 C197 1.353 . S
C192 H198 0.930 . S
N193 Li176 1.990 . S
N193 C192 1.314 . S
N193 C195 1.279 . S
C194 C195 1.358 . S
C194 C196 1.356 . S
C194 H248 0.930 . S
C195 N193 1.279 . S
C195 C194 1.358 . S
C195 H199 0.930 . S
C196 C194 1.356 . S
C196 C197 1.348 . S
C197 C192 1.353 . S
C197 C196 1.348 . S
C197 H249 0.929 . S
H198 C192 0.930 . S
H199 C195 0.930 . S
C200 N201 1.314 . S
C200 C202 1.353 . S
C200 H206 0.930 . S
N201 Li177 1.990 . S
N201 C200 1.314 . S
N201 C204 1.279 . S
C202 C200 1.353 . S
C202 C205 1.348 . S
C202 H250 0.929 . S
C203 C204 1.358 . S
C203 C205 1.356 . S
C203 H251 0.930 . S
C204 N201 1.279 . S
C204 C203 1.358 . S
C204 H207 0.930 . S
C205 C202 1.348 . S
C205 C203 1.356 . S
H206 C200 0.930 . S
H207 C204 0.930 . S
C208 C210 1.348 . S
C208 C211 1.356 . S
C208 O238 1.325 . S
N209 C212 1.314 . S
N209 C213 1.279 . S
C210 C208 1.348 . S
C210 C212 1.353 . S
C210 H252 0.929 . S
C211 C208 1.356 . S
C211 C213 1.358 . S
C211 H253 0.930 . S
C212 N209 1.314 . S
C212 C210 1.353 . S
C212 H254 0.930 . S
C213 N209 1.279 . S
C213 C211 1.358 . S
C213 H255 0.930 . S
C214 C215 1.348 . S
C214 C216 1.356 . S
C214 O239 1.325 . S
C215 C214 1.348 . S
C215 C217 1.353 . S
C215 H256 0.929 . S
C216 C214 1.356 . S
C216 C218 1.358 . S
C216 H257 0.930 . S
C217 C215 1.353 . S
C217 N219 1.314 . S
C217 H258 0.930 . S
C218 C216 1.358 . S
C218 N219 1.279 . S
C218 H259 0.930 . S
N219 C217 1.314 . S
N219 C218 1.279 . S
C220 C222 1.353 . S
C220 N223 1.314 . S
C220 H226 0.930 . S
C221 N223 1.279 . S
C221 C224 1.358 . S
C221 H227 0.930 . S
C222 C220 1.353 . S
C222 C225 1.348 . S
C222 H260 0.929 . S
N223 Li178 1.990 . S
N223 C220 1.314 . S
N223 C221 1.279 . S
C224 C221 1.358 . S
C224 C225 1.356 . S
C224 H261 0.930 . S
C225 C222 1.348 . S
C225 C224 1.356 . S
H226 C220 0.930 . S
H227 C221 0.930 . S
C228 N229 1.314 . S
C228 C230 1.353 . S
C228 H234 0.930 . S
N229 Li179 1.990 . S
N229 C228 1.314 . S
N229 C232 1.279 . S
C230 C228 1.353 . S
C230 C233 1.348 . S
C230 H262 0.929 . S
C231 C232 1.358 . S
C231 C233 1.356 . S
C231 H263 0.930 . S
C232 N229 1.279 . S
C232 C231 1.358 . S
C232 H235 0.930 . S
C233 C230 1.348 . S
C233 C231 1.356 . S
H234 C228 0.930 . S
H235 C232 0.930 . S
O236 Li176 1.956 . S
O236 Li177 1.970 . S
O236 Li178 1.961 . S
O236 C180 1.325 . S
O237 Li176 1.970 . S
O237 Li177 1.956 . S
O237 Li179 1.961 . S
O237 C186 1.325 . S
O238 Li176 1.961 . S
O238 Li178 1.956 . S
O238 Li179 1.970 . S
O238 C208 1.325 . S
O239 Li177 1.961 . S
O239 Li178 1.970 . S
O239 Li179 1.956 . S
O239 C214 1.325 . S
H240 C182 0.929 . S
H241 C183 0.930 . S
H242 C184 0.930 . S
H243 C185 0.930 . S
H244 C187 0.930 . S
H245 C189 0.929 . S
H246 C190 0.930 . S
H247 C191 0.930 . S
H248 C194 0.930 . S
H249 C197 0.929 . S
H250 C202 0.929 . S
H251 C203 0.930 . S
H252 C210 0.929 . S
H253 C211 0.930 . S
H254 C212 0.930 . S
H255 C213 0.930 . S
H256 C215 0.929 . S
H257 C216 0.930 . S
H258 C217 0.930 . S
H259 C218 0.930 . S
H260 C222 0.929 . S
H261 C224 0.930 . S
H262 C230 0.929 . S
H263 C231 0.930 . S
Li264 N281 1.990 . S
Li264 O324 1.956 . S
Li264 O325 1.970 . S
Li264 O326 1.961 . S
Li265 N289 1.990 . S
Li265 O324 1.970 . S
Li265 O325 1.956 . S
Li265 O327 1.961 . S
Li266 N311 1.990 . S
Li266 O324 1.961 . S
Li266 O326 1.956 . S
Li266 O327 1.970 . S
Li267 N317 1.990 . S
Li267 O325 1.961 . S
Li267 O326 1.970 . S
Li267 O327 1.956 . S
C268 C270 1.348 . S
C268 C271 1.356 . S
C268 O324 1.325 . S
N269 C272 1.314 . S
N269 C273 1.279 . S
C270 C268 1.348 . S
C270 C272 1.353 . S
C270 H328 0.929 . S
C271 C268 1.356 . S
C271 C273 1.358 . S
C271 H329 0.930 . S
C272 N269 1.314 . S
C272 C270 1.353 . S
C272 H330 0.930 . S
C273 N269 1.279 . S
C273 C271 1.358 . S
C273 H331 0.930 . S
C274 C277 1.348 . S
C274 C278 1.356 . S
C274 O325 1.325 . S
C275 N276 1.279 . S
C275 C278 1.358 . S
C275 H332 0.930 . S
N276 C275 1.279 . S
N276 C279 1.314 . S
C277 C274 1.348 . S
C277 C279 1.353 . S
C277 H333 0.929 . S
C278 C274 1.356 . S
C278 C275 1.358 . S
C278 H334 0.930 . S
C279 N276 1.314 . S
C279 C277 1.353 . S
C279 H335 0.930 . S
C280 N281 1.314 . S
C280 C285 1.353 . S
C280 H286 0.930 . S
N281 Li264 1.990 . S
N281 C280 1.314 . S
N281 C283 1.279 . S
C282 C283 1.358 . S
C282 C284 1.356 . S
C282 H336 0.930 . S
C283 N281 1.279 . S
C283 C282 1.358 . S
C283 H287 0.930 . S
C284 C282 1.356 . S
C284 C285 1.348 . S
C285 C280 1.353 . S
C285 C284 1.348 . S
C285 H337 0.929 . S
H286 C280 0.930 . S
H287 C283 0.930 . S
C288 N289 1.314 . S
C288 C290 1.353 . S
C288 H294 0.930 . S
N289 Li265 1.990 . S
N289 C288 1.314 . S
N289 C292 1.279 . S
C290 C288 1.353 . S
C290 C293 1.348 . S
C290 H338 0.929 . S
C291 C292 1.358 . S
C291 C293 1.356 . S
C291 H339 0.930 . S
C292 N289 1.279 . S
C292 C291 1.358 . S
C292 H295 0.930 . S
C293 C290 1.348 . S
C293 C291 1.356 . S
H294 C288 0.930 . S
H295 C292 0.930 . S
C296 C298 1.348 . S
C296 C299 1.356 . S
C296 O326 1.325 . S
N297 C300 1.314 . S
N297 C301 1.279 . S
C298 C296 1.348 . S
C298 C300 1.353 . S
C298 H340 0.929 . S
C299 C296 1.356 . S
C299 C301 1.358 . S
C299 H341 0.930 . S
C300 N297 1.314 . S
C300 C298 1.353 . S
C300 H342 0.930 . S
C301 N297 1.279 . S
C301 C299 1.358 . S
C301 H343 0.930 . S
C302 C303 1.348 . S
C302 C304 1.356 . S
C302 O327 1.325 . S
C303 C302 1.348 . S
C303 C305 1.353 . S
C303 H344 0.929 . S
C304 C302 1.356 . S
C304 C306 1.358 . S
C304 H345 0.930 . S
C305 C303 1.353 . S
C305 N307 1.314 . S
C305 H346 0.930 . S
C306 C304 1.358 . S
C306 N307 1.279 . S
C306 H347 0.930 . S
N307 C305 1.314 . S
N307 C306 1.279 . S
C308 C310 1.353 . S
C308 N311 1.314 . S
C308 H314 0.930 . S
C309 N311 1.279 . S
C309 C312 1.358 . S
C309 H315 0.930 . S
C310 C308 1.353 . S
C310 C313 1.348 . S
C310 H348 0.929 . S
N311 Li266 1.990 . S
N311 C308 1.314 . S
N311 C309 1.279 . S
C312 C309 1.358 . S
C312 C313 1.356 . S
C312 H349 0.930 . S
C313 C310 1.348 . S
C313 C312 1.356 . S
H314 C308 0.930 . S
H315 C309 0.930 . S
C316 N317 1.314 . S
C316 C318 1.353 . S
C316 H322 0.930 . S
N317 Li267 1.990 . S
N317 C316 1.314 . S
N317 C320 1.279 . S
C318 C316 1.353 . S
C318 C321 1.348 . S
C318 H350 0.929 . S
C319 C320 1.358 . S
C319 C321 1.356 . S
C319 H351 0.930 . S
C320 N317 1.279 . S
C320 C319 1.358 . S
C320 H323 0.930 . S
C321 C318 1.348 . S
C321 C319 1.356 . S
H322 C316 0.930 . S
H323 C320 0.930 . S
O324 Li264 1.956 . S
O324 Li265 1.970 . S
O324 Li266 1.961 . S
O324 C268 1.325 . S
O325 Li264 1.970 . S
O325 Li265 1.956 . S
O325 Li267 1.961 . S
O325 C274 1.325 . S
O326 Li264 1.961 . S
O326 Li266 1.956 . S
O326 Li267 1.970 . S
O326 C296 1.325 . S
O327 Li265 1.961 . S
O327 Li266 1.970 . S
O327 Li267 1.956 . S
O327 C302 1.325 . S
H328 C270 0.929 . S
H329 C271 0.930 . S
H330 C272 0.930 . S
H331 C273 0.930 . S
H332 C275 0.930 . S
H333 C277 0.929 . S
H334 C278 0.930 . S
H335 C279 0.930 . S
H336 C282 0.930 . S
H337 C285 0.929 . S
H338 C290 0.929 . S
H339 C291 0.930 . S
H340 C298 0.929 . S
H341 C299 0.930 . S
H342 C300 0.930 . S
H343 C301 0.930 . S
H344 C303 0.929 . S
H345 C304 0.930 . S
H346 C305 0.930 . S
H347 C306 0.930 . S
H348 C310 0.929 . S
H349 C312 0.930 . S
H350 C318 0.929 . S
H351 C319 0.930 . S
Li352 N369 1.990 . S
Li352 O412 1.956 . S
Li352 O413 1.970 . S
Li352 O414 1.961 . S
Li353 N377 1.990 . S
Li353 O412 1.970 . S
Li353 O413 1.956 . S
Li353 O415 1.961 . S
Li354 N399 1.990 . S
Li354 O412 1.961 . S
Li354 O414 1.956 . S
Li354 O415 1.970 . S
Li355 N405 1.990 . S
Li355 O413 1.961 . S
Li355 O414 1.970 . S
Li355 O415 1.956 . S
C356 C358 1.348 . S
C356 C359 1.356 . S
C356 O412 1.325 . S
N357 C360 1.314 . S
N357 C361 1.279 . S
C358 C356 1.348 . S
C358 C360 1.353 . S
C358 H416 0.929 . S
C359 C356 1.356 . S
C359 C361 1.358 . S
C359 H417 0.930 . S
C360 N357 1.314 . S
C360 C358 1.353 . S
C360 H418 0.930 . S
C361 N357 1.279 . S
C361 C359 1.358 . S
C361 H419 0.930 . S
C362 C365 1.348 . S
C362 C366 1.356 . S
C362 O413 1.325 . S
C363 N364 1.279 . S
C363 C366 1.358 . S
C363 H420 0.930 . S
N364 C363 1.279 . S
N364 C367 1.314 . S
C365 C362 1.348 . S
C365 C367 1.353 . S
C365 H421 0.929 . S
C366 C362 1.356 . S
C366 C363 1.358 . S
C366 H422 0.930 . S
C367 N364 1.314 . S
C367 C365 1.353 . S
C367 H423 0.930 . S
C368 N369 1.314 . S
C368 C373 1.353 . S
C368 H374 0.930 . S
N369 Li352 1.990 . S
N369 C368 1.314 . S
N369 C371 1.279 . S
C370 C371 1.358 . S
C370 C372 1.356 . S
C370 H424 0.930 . S
C371 N369 1.279 . S
C371 C370 1.358 . S
C371 H375 0.930 . S
C372 C370 1.356 . S
C372 C373 1.348 . S
C373 C368 1.353 . S
C373 C372 1.348 . S
C373 H425 0.929 . S
H374 C368 0.930 . S
H375 C371 0.930 . S
C376 N377 1.314 . S
C376 C378 1.353 . S
C376 H382 0.930 . S
N377 Li353 1.990 . S
N377 C376 1.314 . S
N377 C380 1.279 . S
C378 C376 1.353 . S
C378 C381 1.348 . S
C378 H426 0.929 . S
C379 C380 1.358 . S
C379 C381 1.356 . S
C379 H427 0.930 . S
C380 N377 1.279 . S
C380 C379 1.358 . S
C380 H383 0.930 . S
C381 C378 1.348 . S
C381 C379 1.356 . S
H382 C376 0.930 . S
H383 C380 0.930 . S
C384 C386 1.348 . S
C384 C387 1.356 . S
C384 O414 1.325 . S
N385 C388 1.314 . S
N385 C389 1.279 . S
C386 C384 1.348 . S
C386 C388 1.353 . S
C386 H428 0.929 . S
C387 C384 1.356 . S
C387 C389 1.358 . S
C387 H429 0.930 . S
C388 N385 1.314 . S
C388 C386 1.353 . S
C388 H430 0.930 . S
C389 N385 1.279 . S
C389 C387 1.358 . S
C389 H431 0.930 . S
C390 C391 1.348 . S
C390 C392 1.356 . S
C390 O415 1.325 . S
C391 C390 1.348 . S
C391 C393 1.353 . S
C391 H432 0.929 . S
C392 C390 1.356 . S
C392 C394 1.358 . S
C392 H433 0.930 . S
C393 C391 1.353 . S
C393 N395 1.314 . S
C393 H434 0.930 . S
C394 C392 1.358 . S
C394 N395 1.279 . S
C394 H435 0.930 . S
N395 C393 1.314 . S
N395 C394 1.279 . S
C396 C398 1.353 . S
C396 N399 1.314 . S
C396 H402 0.930 . S
C397 N399 1.279 . S
C397 C400 1.358 . S
C397 H403 0.930 . S
C398 C396 1.353 . S
C398 C401 1.348 . S
C398 H436 0.929 . S
N399 Li354 1.990 . S
N399 C396 1.314 . S
N399 C397 1.279 . S
C400 C397 1.358 . S
C400 C401 1.356 . S
C400 H437 0.930 . S
C401 C398 1.348 . S
C401 C400 1.356 . S
H402 C396 0.930 . S
H403 C397 0.930 . S
C404 N405 1.314 . S
C404 C406 1.353 . S
C404 H410 0.930 . S
N405 Li355 1.990 . S
N405 C404 1.314 . S
N405 C408 1.279 . S
C406 C404 1.353 . S
C406 C409 1.348 . S
C406 H438 0.929 . S
C407 C408 1.358 . S
C407 C409 1.356 . S
C407 H439 0.930 . S
C408 N405 1.279 . S
C408 C407 1.358 . S
C408 H411 0.930 . S
C409 C406 1.348 . S
C409 C407 1.356 . S
H410 C404 0.930 . S
H411 C408 0.930 . S
O412 Li352 1.956 . S
O412 Li353 1.970 . S
O412 Li354 1.961 . S
O412 C356 1.325 . S
O413 Li352 1.970 . S
O413 Li353 1.956 . S
O413 Li355 1.961 . S
O413 C362 1.325 . S
O414 Li352 1.961 . S
O414 Li354 1.956 . S
O414 Li355 1.970 . S
O414 C384 1.325 . S
O415 Li353 1.961 . S
O415 Li354 1.970 . S
O415 Li355 1.956 . S
O415 C390 1.325 . S
H416 C358 0.929 . S
H417 C359 0.930 . S
H418 C360 0.930 . S
H419 C361 0.930 . S
H420 C363 0.930 . S
H421 C365 0.929 . S
H422 C366 0.930 . S
H423 C367 0.930 . S
H424 C370 0.930 . S
H425 C373 0.929 . S
H426 C378 0.929 . S
H427 C379 0.930 . S
H428 C386 0.929 . S
H429 C387 0.930 . S
H430 C388 0.930 . S
H431 C389 0.930 . S
H432 C391 0.929 . S
H433 C392 0.930 . S
H434 C393 0.930 . S
H435 C394 0.930 . S
H436 C398 0.929 . S
H437 C400 0.930 . S
H438 C406 0.929 . S
H439 C407 0.930 . S
Li440 N457 1.990 . S
Li440 O500 1.956 . S
Li440 O501 1.970 . S
Li440 O502 1.961 . S
Li441 N465 1.990 . S
Li441 O500 1.970 . S
Li441 O501 1.956 . S
Li441 O503 1.961 . S
Li442 N487 1.990 . S
Li442 O500 1.961 . S
Li442 O502 1.956 . S
Li442 O503 1.970 . S
Li443 N493 1.990 . S
Li443 O501 1.961 . S
Li443 O502 1.970 . S
Li443 O503 1.956 . S
C444 C446 1.348 . S
C444 C447 1.356 . S
C444 O500 1.325 . S
N445 C448 1.314 . S
N445 C449 1.279 . S
C446 C444 1.348 . S
C446 C448 1.353 . S
C446 H504 0.929 . S
C447 C444 1.356 . S
C447 C449 1.358 . S
C447 H505 0.930 . S
C448 N445 1.314 . S
C448 C446 1.353 . S
C448 H506 0.930 . S
C449 N445 1.279 . S
C449 C447 1.358 . S
C449 H507 0.930 . S
C450 C453 1.348 . S
C450 C454 1.356 . S
C450 O501 1.325 . S
C451 N452 1.279 . S
C451 C454 1.358 . S
C451 H508 0.930 . S
N452 C451 1.279 . S
N452 C455 1.314 . S
C453 C450 1.348 . S
C453 C455 1.353 . S
C453 H509 0.929 . S
C454 C450 1.356 . S
C454 C451 1.358 . S
C454 H510 0.930 . S
C455 N452 1.314 . S
C455 C453 1.353 . S
C455 H511 0.930 . S
C456 N457 1.314 . S
C456 C461 1.353 . S
C456 H462 0.930 . S
N457 Li440 1.990 . S
N457 C456 1.314 . S
N457 C459 1.279 . S
C458 C459 1.358 . S
C458 C460 1.356 . S
C458 H512 0.930 . S
C459 N457 1.279 . S
C459 C458 1.358 . S
C459 H463 0.930 . S
C460 C458 1.356 . S
C460 C461 1.348 . S
C461 C456 1.353 . S
C461 C460 1.348 . S
C461 H513 0.929 . S
H462 C456 0.930 . S
H463 C459 0.930 . S
C464 N465 1.314 . S
C464 C466 1.353 . S
C464 H470 0.930 . S
N465 Li441 1.990 . S
N465 C464 1.314 . S
N465 C468 1.279 . S
C466 C464 1.353 . S
C466 C469 1.348 . S
C466 H514 0.929 . S
C467 C468 1.358 . S
C467 C469 1.356 . S
C467 H515 0.930 . S
C468 N465 1.279 . S
C468 C467 1.358 . S
C468 H471 0.930 . S
C469 C466 1.348 . S
C469 C467 1.356 . S
H470 C464 0.930 . S
H471 C468 0.930 . S
C472 C474 1.348 . S
C472 C475 1.356 . S
C472 O502 1.325 . S
N473 C476 1.314 . S
N473 C477 1.279 . S
C474 C472 1.348 . S
C474 C476 1.353 . S
C474 H516 0.929 . S
C475 C472 1.356 . S
C475 C477 1.358 . S
C475 H517 0.930 . S
C476 N473 1.314 . S
C476 C474 1.353 . S
C476 H518 0.930 . S
C477 N473 1.279 . S
C477 C475 1.358 . S
C477 H519 0.930 . S
C478 C479 1.348 . S
C478 C480 1.356 . S
C478 O503 1.325 . S
C479 C478 1.348 . S
C479 C481 1.353 . S
C479 H520 0.929 . S
C480 C478 1.356 . S
C480 C482 1.358 . S
C480 H521 0.930 . S
C481 C479 1.353 . S
C481 N483 1.314 . S
C481 H522 0.930 . S
C482 C480 1.358 . S
C482 N483 1.279 . S
C482 H523 0.930 . S
N483 C481 1.314 . S
N483 C482 1.279 . S
C484 C486 1.353 . S
C484 N487 1.314 . S
C484 H490 0.930 . S
C485 N487 1.279 . S
C485 C488 1.358 . S
C485 H491 0.930 . S
C486 C484 1.353 . S
C486 C489 1.348 . S
C486 H524 0.929 . S
N487 Li442 1.990 . S
N487 C484 1.314 . S
N487 C485 1.279 . S
C488 C485 1.358 . S
C488 C489 1.356 . S
C488 H525 0.930 . S
C489 C486 1.348 . S
C489 C488 1.356 . S
H490 C484 0.930 . S
H491 C485 0.930 . S
C492 N493 1.314 . S
C492 C494 1.353 . S
C492 H498 0.930 . S
N493 Li443 1.990 . S
N493 C492 1.314 . S
N493 C496 1.279 . S
C494 C492 1.353 . S
C494 C497 1.348 . S
C494 H526 0.929 . S
C495 C496 1.358 . S
C495 C497 1.356 . S
C495 H527 0.930 . S
C496 N493 1.279 . S
C496 C495 1.358 . S
C496 H499 0.930 . S
C497 C494 1.348 . S
C497 C495 1.356 . S
H498 C492 0.930 . S
H499 C496 0.930 . S
O500 Li440 1.956 . S
O500 Li441 1.970 . S
O500 Li442 1.961 . S
O500 C444 1.325 . S
O501 Li440 1.970 . S
O501 Li441 1.956 . S
O501 Li443 1.961 . S
O501 C450 1.325 . S
O502 Li440 1.961 . S
O502 Li442 1.956 . S
O502 Li443 1.970 . S
O502 C472 1.325 . S
O503 Li441 1.961 . S
O503 Li442 1.970 . S
O503 Li443 1.956 . S
O503 C478 1.325 . S
H504 C446 0.929 . S
H505 C447 0.930 . S
H506 C448 0.930 . S
H507 C449 0.930 . S
H508 C451 0.930 . S
H509 C453 0.929 . S
H510 C454 0.930 . S
H511 C455 0.930 . S
H512 C458 0.930 . S
H513 C461 0.929 . S
H514 C466 0.929 . S
H515 C467 0.930 . S
H516 C474 0.929 . S
H517 C475 0.930 . S
H518 C476 0.930 . S
H519 C477 0.930 . S
H520 C479 0.929 . S
H521 C480 0.930 . S
H522 C481 0.930 . S
H523 C482 0.930 . S
H524 C486 0.929 . S
H525 C488 0.930 . S
H526 C494 0.929 . S
H527 C495 0.930 . S
Li528 N545 1.990 . S
Li528 O588 1.956 . S
Li528 O589 1.970 . S
Li528 O590 1.961 . S
Li529 N553 1.990 . S
Li529 O588 1.970 . S
Li529 O589 1.956 . S
Li529 O591 1.961 . S
Li530 N575 1.990 . S
Li530 O588 1.961 . S
Li530 O590 1.956 . S
Li530 O591 1.970 . S
Li531 N581 1.990 . S
Li531 O589 1.961 . S
Li531 O590 1.970 . S
Li531 O591 1.956 . S
C532 C534 1.348 . S
C532 C535 1.356 . S
C532 O588 1.325 . S
N533 C536 1.314 . S
N533 C537 1.279 . S
C534 C532 1.348 . S
C534 C536 1.353 . S
C534 H592 0.929 . S
C535 C532 1.356 . S
C535 C537 1.358 . S
C535 H593 0.930 . S
C536 N533 1.314 . S
C536 C534 1.353 . S
C536 H594 0.930 . S
C537 N533 1.279 . S
C537 C535 1.358 . S
C537 H595 0.930 . S
C538 C541 1.348 . S
C538 C542 1.356 . S
C538 O589 1.325 . S
C539 N540 1.279 . S
C539 C542 1.358 . S
C539 H596 0.930 . S
N540 C539 1.279 . S
N540 C543 1.314 . S
C541 C538 1.348 . S
C541 C543 1.353 . S
C541 H597 0.929 . S
C542 C538 1.356 . S
C542 C539 1.358 . S
C542 H598 0.930 . S
C543 N540 1.314 . S
C543 C541 1.353 . S
C543 H599 0.930 . S
C544 N545 1.314 . S
C544 C549 1.353 . S
C544 H550 0.930 . S
N545 Li528 1.990 . S
N545 C544 1.314 . S
N545 C547 1.279 . S
C546 C547 1.358 . S
C546 C548 1.356 . S
C546 H600 0.930 . S
C547 N545 1.279 . S
C547 C546 1.358 . S
C547 H551 0.930 . S
C548 C546 1.356 . S
C548 C549 1.348 . S
C549 C544 1.353 . S
C549 C548 1.348 . S
C549 H601 0.929 . S
H550 C544 0.930 . S
H551 C547 0.930 . S
C552 N553 1.314 . S
C552 C554 1.353 . S
C552 H558 0.930 . S
N553 Li529 1.990 . S
N553 C552 1.314 . S
N553 C556 1.279 . S
C554 C552 1.353 . S
C554 C557 1.348 . S
C554 H602 0.929 . S
C555 C556 1.358 . S
C555 C557 1.356 . S
C555 H603 0.930 . S
C556 N553 1.279 . S
C556 C555 1.358 . S
C556 H559 0.930 . S
C557 C554 1.348 . S
C557 C555 1.356 . S
H558 C552 0.930 . S
H559 C556 0.930 . S
C560 C562 1.348 . S
C560 C563 1.356 . S
C560 O590 1.325 . S
N561 C564 1.314 . S
N561 C565 1.279 . S
C562 C560 1.348 . S
C562 C564 1.353 . S
C562 H604 0.929 . S
C563 C560 1.356 . S
C563 C565 1.358 . S
C563 H605 0.930 . S
C564 N561 1.314 . S
C564 C562 1.353 . S
C564 H606 0.930 . S
C565 N561 1.279 . S
C565 C563 1.358 . S
C565 H607 0.930 . S
C566 C567 1.348 . S
C566 C568 1.356 . S
C566 O591 1.325 . S
C567 C566 1.348 . S
C567 C569 1.353 . S
C567 H608 0.929 . S
C568 C566 1.356 . S
C568 C570 1.358 . S
C568 H609 0.930 . S
C569 C567 1.353 . S
C569 N571 1.314 . S
C569 H610 0.930 . S
C570 C568 1.358 . S
C570 N571 1.279 . S
C570 H611 0.930 . S
N571 C569 1.314 . S
N571 C570 1.279 . S
C572 C574 1.353 . S
C572 N575 1.314 . S
C572 H578 0.930 . S
C573 N575 1.279 . S
C573 C576 1.358 . S
C573 H579 0.930 . S
C574 C572 1.353 . S
C574 C577 1.348 . S
C574 H612 0.929 . S
N575 Li530 1.990 . S
N575 C572 1.314 . S
N575 C573 1.279 . S
C576 C573 1.358 . S
C576 C577 1.356 . S
C576 H613 0.930 . S
C577 C574 1.348 . S
C577 C576 1.356 . S
H578 C572 0.930 . S
H579 C573 0.930 . S
C580 N581 1.314 . S
C580 C582 1.353 . S
C580 H586 0.930 . S
N581 Li531 1.990 . S
N581 C580 1.314 . S
N581 C584 1.279 . S
C582 C580 1.353 . S
C582 C585 1.348 . S
C582 H614 0.929 . S
C583 C584 1.358 . S
C583 C585 1.356 . S
C583 H615 0.930 . S
C584 N581 1.279 . S
C584 C583 1.358 . S
C584 H587 0.930 . S
C585 C582 1.348 . S
C585 C583 1.356 . S
H586 C580 0.930 . S
H587 C584 0.930 . S
O588 Li528 1.956 . S
O588 Li529 1.970 . S
O588 Li530 1.961 . S
O588 C532 1.325 . S
O589 Li528 1.970 . S
O589 Li529 1.956 . S
O589 Li531 1.961 . S
O589 C538 1.325 . S
O590 Li528 1.961 . S
O590 Li530 1.956 . S
O590 Li531 1.970 . S
O590 C560 1.325 . S
O591 Li529 1.961 . S
O591 Li530 1.970 . S
O591 Li531 1.956 . S
O591 C566 1.325 . S
H592 C534 0.929 . S
H593 C535 0.930 . S
H594 C536 0.930 . S
H595 C537 0.930 . S
H596 C539 0.930 . S
H597 C541 0.929 . S
H598 C542 0.930 . S
H599 C543 0.930 . S
H600 C546 0.930 . S
H601 C549 0.929 . S
H602 C554 0.929 . S
H603 C555 0.930 . S
H604 C562 0.929 . S
H605 C563 0.930 . S
H606 C564 0.930 . S
H607 C565 0.930 . S
H608 C567 0.929 . S
H609 C568 0.930 . S
H610 C569 0.930 . S
H611 C570 0.930 . S
H612 C574 0.929 . S
H613 C576 0.930 . S
H614 C582 0.929 . S
H615 C583 0.930 . S
Li616 N633 1.990 . S
Li616 O676 1.956 . S
Li616 O677 1.970 . S
Li616 O678 1.961 . S
Li617 N641 1.990 . S
Li617 O676 1.970 . S
Li617 O677 1.956 . S
Li617 O679 1.961 . S
Li618 N663 1.990 . S
Li618 O676 1.961 . S
Li618 O678 1.956 . S
Li618 O679 1.970 . S
Li619 N669 1.990 . S
Li619 O677 1.961 . S
Li619 O678 1.970 . S
Li619 O679 1.956 . S
C620 C622 1.348 . S
C620 C623 1.356 . S
C620 O676 1.325 . S
N621 C624 1.314 . S
N621 C625 1.279 . S
C622 C620 1.348 . S
C622 C624 1.353 . S
C622 H680 0.929 . S
C623 C620 1.356 . S
C623 C625 1.358 . S
C623 H681 0.930 . S
C624 N621 1.314 . S
C624 C622 1.353 . S
C624 H682 0.930 . S
C625 N621 1.279 . S
C625 C623 1.358 . S
C625 H683 0.930 . S
C626 C629 1.348 . S
C626 C630 1.356 . S
C626 O677 1.325 . S
C627 N628 1.279 . S
C627 C630 1.358 . S
C627 H684 0.930 . S
N628 C627 1.279 . S
N628 C631 1.314 . S
C629 C626 1.348 . S
C629 C631 1.353 . S
C629 H685 0.929 . S
C630 C626 1.356 . S
C630 C627 1.358 . S
C630 H686 0.930 . S
C631 N628 1.314 . S
C631 C629 1.353 . S
C631 H687 0.930 . S
C632 N633 1.314 . S
C632 C637 1.353 . S
C632 H638 0.930 . S
N633 Li616 1.990 . S
N633 C632 1.314 . S
N633 C635 1.279 . S
C634 C635 1.358 . S
C634 C636 1.356 . S
C634 H688 0.930 . S
C635 N633 1.279 . S
C635 C634 1.358 . S
C635 H639 0.930 . S
C636 C634 1.356 . S
C636 C637 1.348 . S
C637 C632 1.353 . S
C637 C636 1.348 . S
C637 H689 0.929 . S
H638 C632 0.930 . S
H639 C635 0.930 . S
C640 N641 1.314 . S
C640 C642 1.353 . S
C640 H646 0.930 . S
N641 Li617 1.990 . S
N641 C640 1.314 . S
N641 C644 1.279 . S
C642 C640 1.353 . S
C642 C645 1.348 . S
C642 H690 0.929 . S
C643 C644 1.358 . S
C643 C645 1.356 . S
C643 H691 0.930 . S
C644 N641 1.279 . S
C644 C643 1.358 . S
C644 H647 0.930 . S
C645 C642 1.348 . S
C645 C643 1.356 . S
H646 C640 0.930 . S
H647 C644 0.930 . S
C648 C650 1.348 . S
C648 C651 1.356 . S
C648 O678 1.325 . S
N649 C652 1.314 . S
N649 C653 1.279 . S
C650 C648 1.348 . S
C650 C652 1.353 . S
C650 H692 0.929 . S
C651 C648 1.356 . S
C651 C653 1.358 . S
C651 H693 0.930 . S
C652 N649 1.314 . S
C652 C650 1.353 . S
C652 H694 0.930 . S
C653 N649 1.279 . S
C653 C651 1.358 . S
C653 H695 0.930 . S
C654 C655 1.348 . S
C654 C656 1.356 . S
C654 O679 1.325 . S
C655 C654 1.348 . S
C655 C657 1.353 . S
C655 H696 0.929 . S
C656 C654 1.356 . S
C656 C658 1.358 . S
C656 H697 0.930 . S
C657 C655 1.353 . S
C657 N659 1.314 . S
C657 H698 0.930 . S
C658 C656 1.358 . S
C658 N659 1.279 . S
C658 H699 0.930 . S
N659 C657 1.314 . S
N659 C658 1.279 . S
C660 C662 1.353 . S
C660 N663 1.314 . S
C660 H666 0.930 . S
C661 N663 1.279 . S
C661 C664 1.358 . S
C661 H667 0.930 . S
C662 C660 1.353 . S
C662 C665 1.348 . S
C662 H700 0.929 . S
N663 Li618 1.990 . S
N663 C660 1.314 . S
N663 C661 1.279 . S
C664 C661 1.358 . S
C664 C665 1.356 . S
C664 H701 0.930 . S
C665 C662 1.348 . S
C665 C664 1.356 . S
H666 C660 0.930 . S
H667 C661 0.930 . S
C668 N669 1.314 . S
C668 C670 1.353 . S
C668 H674 0.930 . S
N669 Li619 1.990 . S
N669 C668 1.314 . S
N669 C672 1.279 . S
C670 C668 1.353 . S
C670 C673 1.348 . S
C670 H702 0.929 . S
C671 C672 1.358 . S
C671 C673 1.356 . S
C671 H703 0.930 . S
C672 N669 1.279 . S
C672 C671 1.358 . S
C672 H675 0.930 . S
C673 C670 1.348 . S
C673 C671 1.356 . S
H674 C668 0.930 . S
H675 C672 0.930 . S
O676 Li616 1.956 . S
O676 Li617 1.970 . S
O676 Li618 1.961 . S
O676 C620 1.325 . S
O677 Li616 1.970 . S
O677 Li617 1.956 . S
O677 Li619 1.961 . S
O677 C626 1.325 . S
O678 Li616 1.961 . S
O678 Li618 1.956 . S
O678 Li619 1.970 . S
O678 C648 1.325 . S
O679 Li617 1.961 . S
O679 Li618 1.970 . S
O679 Li619 1.956 . S
O679 C654 1.325 . S
H680 C622 0.929 . S
H681 C623 0.930 . S
H682 C624 0.930 . S
H683 C625 0.930 . S
H684 C627 0.930 . S
H685 C629 0.929 . S
H686 C630 0.930 . S
H687 C631 0.930 . S
H688 C634 0.930 . S
H689 C637 0.929 . S
H690 C642 0.929 . S
H691 C643 0.930 . S
H692 C650 0.929 . S
H693 C651 0.930 . S
H694 C652 0.930 . S
H695 C653 0.930 . S
H696 C655 0.929 . S
H697 C656 0.930 . S
H698 C657 0.930 . S
H699 C658 0.930 . S
H700 C662 0.929 . S
H701 C664 0.930 . S
H702 C670 0.929 . S
H703 C671 0.930 . S
Li704 N721 1.990 . S
Li704 O764 1.956 . S
Li704 O765 1.970 . S
Li704 O766 1.961 . S
Li705 N729 1.990 . S
Li705 O764 1.970 . S
Li705 O765 1.956 . S
Li705 O767 1.961 . S
Li706 N751 1.990 . S
Li706 O764 1.961 . S
Li706 O766 1.956 . S
Li706 O767 1.970 . S
Li707 N757 1.990 . S
Li707 O765 1.961 . S
Li707 O766 1.970 . S
Li707 O767 1.956 . S
C708 C710 1.348 . S
C708 C711 1.356 . S
C708 O764 1.325 . S
N709 C712 1.314 . S
N709 C713 1.279 . S
C710 C708 1.348 . S
C710 C712 1.353 . S
C710 H768 0.929 . S
C711 C708 1.356 . S
C711 C713 1.358 . S
C711 H769 0.930 . S
C712 N709 1.314 . S
C712 C710 1.353 . S
C712 H770 0.930 . S
C713 N709 1.279 . S
C713 C711 1.358 . S
C713 H771 0.930 . S
C714 C717 1.348 . S
C714 C718 1.356 . S
C714 O765 1.325 . S
C715 N716 1.279 . S
C715 C718 1.358 . S
C715 H772 0.930 . S
N716 C715 1.279 . S
N716 C719 1.314 . S
C717 C714 1.348 . S
C717 C719 1.353 . S
C717 H773 0.929 . S
C718 C714 1.356 . S
C718 C715 1.358 . S
C718 H774 0.930 . S
C719 N716 1.314 . S
C719 C717 1.353 . S
C719 H775 0.930 . S
C720 N721 1.314 . S
C720 C725 1.353 . S
C720 H726 0.930 . S
N721 Li704 1.990 . S
N721 C720 1.314 . S
N721 C723 1.279 . S
C722 C723 1.358 . S
C722 C724 1.356 . S
C722 H776 0.930 . S
C723 N721 1.279 . S
C723 C722 1.358 . S
C723 H727 0.930 . S
C724 C722 1.356 . S
C724 C725 1.348 . S
C725 C720 1.353 . S
C725 C724 1.348 . S
C725 H777 0.929 . S
H726 C720 0.930 . S
H727 C723 0.930 . S
C728 N729 1.314 . S
C728 C730 1.353 . S
C728 H734 0.930 . S
N729 Li705 1.990 . S
N729 C728 1.314 . S
N729 C732 1.279 . S
C730 C728 1.353 . S
C730 C733 1.348 . S
C730 H778 0.929 . S
C731 C732 1.358 . S
C731 C733 1.356 . S
C731 H779 0.930 . S
C732 N729 1.279 . S
C732 C731 1.358 . S
C732 H735 0.930 . S
C733 C730 1.348 . S
C733 C731 1.356 . S
H734 C728 0.930 . S
H735 C732 0.930 . S
C736 C738 1.348 . S
C736 C739 1.356 . S
C736 O766 1.325 . S
N737 C740 1.314 . S
N737 C741 1.279 . S
C738 C736 1.348 . S
C738 C740 1.353 . S
C738 H780 0.929 . S
C739 C736 1.356 . S
C739 C741 1.358 . S
C739 H781 0.930 . S
C740 N737 1.314 . S
C740 C738 1.353 . S
C740 H782 0.930 . S
C741 N737 1.279 . S
C741 C739 1.358 . S
C741 H783 0.930 . S
C742 C743 1.348 . S
C742 C744 1.356 . S
C742 O767 1.325 . S
C743 C742 1.348 . S
C743 C745 1.353 . S
C743 H784 0.929 . S
C744 C742 1.356 . S
C744 C746 1.358 . S
C744 H785 0.930 . S
C745 C743 1.353 . S
C745 N747 1.314 . S
C745 H786 0.930 . S
C746 C744 1.358 . S
C746 N747 1.279 . S
C746 H787 0.930 . S
N747 C745 1.314 . S
N747 C746 1.279 . S
C748 C750 1.353 . S
C748 N751 1.314 . S
C748 H754 0.930 . S
C749 N751 1.279 . S
C749 C752 1.358 . S
C749 H755 0.930 . S
C750 C748 1.353 . S
C750 C753 1.348 . S
C750 H788 0.929 . S
N751 Li706 1.990 . S
N751 C748 1.314 . S
N751 C749 1.279 . S
C752 C749 1.358 . S
C752 C753 1.356 . S
C752 H789 0.930 . S
C753 C750 1.348 . S
C753 C752 1.356 . S
H754 C748 0.930 . S
H755 C749 0.930 . S
C756 N757 1.314 . S
C756 C758 1.353 . S
C756 H762 0.930 . S
N757 Li707 1.990 . S
N757 C756 1.314 . S
N757 C760 1.279 . S
C758 C756 1.353 . S
C758 C761 1.348 . S
C758 H790 0.929 . S
C759 C760 1.358 . S
C759 C761 1.356 . S
C759 H791 0.930 . S
C760 N757 1.279 . S
C760 C759 1.358 . S
C760 H763 0.930 . S
C761 C758 1.348 . S
C761 C759 1.356 . S
H762 C756 0.930 . S
H763 C760 0.930 . S
O764 Li704 1.956 . S
O764 Li705 1.970 . S
O764 Li706 1.961 . S
O764 C708 1.325 . S
O765 Li704 1.970 . S
O765 Li705 1.956 . S
O765 Li707 1.961 . S
O765 C714 1.325 . S
O766 Li704 1.961 . S
O766 Li706 1.956 . S
O766 Li707 1.970 . S
O766 C736 1.325 . S
O767 Li705 1.961 . S
O767 Li706 1.970 . S
O767 Li707 1.956 . S
O767 C742 1.325 . S
H768 C710 0.929 . S
H769 C711 0.930 . S
H770 C712 0.930 . S
H771 C713 0.930 . S
H772 C715 0.930 . S
H773 C717 0.929 . S
H774 C718 0.930 . S
H775 C719 0.930 . S
H776 C722 0.930 . S
H777 C725 0.929 . S
H778 C730 0.929 . S
H779 C731 0.930 . S
H780 C738 0.929 . S
H781 C739 0.930 . S
H782 C740 0.930 . S
H783 C741 0.930 . S
H784 C743 0.929 . S
H785 C744 0.930 . S
H786 C745 0.930 . S
H787 C746 0.930 . S
H788 C750 0.929 . S
H789 C752 0.930 . S
H790 C758 0.929 . S
H791 C759 0.930 . S
Li792 N809 1.990 . S
Li792 O852 1.956 . S
Li792 O853 1.970 . S
Li792 O854 1.961 . S
Li793 N817 1.990 . S
Li793 O852 1.970 . S
Li793 O853 1.956 . S
Li793 O855 1.961 . S
Li794 N839 1.990 . S
Li794 O852 1.961 . S
Li794 O854 1.956 . S
Li794 O855 1.970 . S
Li795 N845 1.990 . S
Li795 O853 1.961 . S
Li795 O854 1.970 . S
Li795 O855 1.956 . S
C796 C798 1.348 . S
C796 C799 1.356 . S
C796 O852 1.325 . S
N797 C800 1.314 . S
N797 C801 1.279 . S
C798 C796 1.348 . S
C798 C800 1.353 . S
C798 H856 0.929 . S
C799 C796 1.356 . S
C799 C801 1.358 . S
C799 H857 0.930 . S
C800 N797 1.314 . S
C800 C798 1.353 . S
C800 H858 0.930 . S
C801 N797 1.279 . S
C801 C799 1.358 . S
C801 H859 0.930 . S
C802 C805 1.348 . S
C802 C806 1.356 . S
C802 O853 1.325 . S
C803 N804 1.279 . S
C803 C806 1.358 . S
C803 H860 0.930 . S
N804 C803 1.279 . S
N804 C807 1.314 . S
C805 C802 1.348 . S
C805 C807 1.353 . S
C805 H861 0.929 . S
C806 C802 1.356 . S
C806 C803 1.358 . S
C806 H862 0.930 . S
C807 N804 1.314 . S
C807 C805 1.353 . S
C807 H863 0.930 . S
C808 N809 1.314 . S
C808 C813 1.353 . S
C808 H814 0.930 . S
N809 Li792 1.990 . S
N809 C808 1.314 . S
N809 C811 1.279 . S
C810 C811 1.358 . S
C810 C812 1.356 . S
C810 H864 0.930 . S
C811 N809 1.279 . S
C811 C810 1.358 . S
C811 H815 0.930 . S
C812 C810 1.356 . S
C812 C813 1.348 . S
C813 C808 1.353 . S
C813 C812 1.348 . S
C813 H865 0.929 . S
H814 C808 0.930 . S
H815 C811 0.930 . S
C816 N817 1.314 . S
C816 C818 1.353 . S
C816 H822 0.930 . S
N817 Li793 1.990 . S
N817 C816 1.314 . S
N817 C820 1.279 . S
C818 C816 1.353 . S
C818 C821 1.348 . S
C818 H866 0.929 . S
C819 C820 1.358 . S
C819 C821 1.356 . S
C819 H867 0.930 . S
C820 N817 1.279 . S
C820 C819 1.358 . S
C820 H823 0.930 . S
C821 C818 1.348 . S
C821 C819 1.356 . S
H822 C816 0.930 . S
H823 C820 0.930 . S
C824 C826 1.348 . S
C824 C827 1.356 . S
C824 O854 1.325 . S
N825 C828 1.314 . S
N825 C829 1.279 . S
C826 C824 1.348 . S
C826 C828 1.353 . S
C826 H868 0.929 . S
C827 C824 1.356 . S
C827 C829 1.358 . S
C827 H869 0.930 . S
C828 N825 1.314 . S
C828 C826 1.353 . S
C828 H870 0.930 . S
C829 N825 1.279 . S
C829 C827 1.358 . S
C829 H871 0.930 . S
C830 C831 1.348 . S
C830 C832 1.356 . S
C830 O855 1.325 . S
C831 C830 1.348 . S
C831 C833 1.353 . S
C831 H872 0.929 . S
C832 C830 1.356 . S
C832 C834 1.358 . S
C832 H873 0.930 . S
C833 C831 1.353 . S
C833 N835 1.314 . S
C833 H874 0.930 . S
C834 C832 1.358 . S
C834 N835 1.279 . S
C834 H875 0.930 . S
N835 C833 1.314 . S
N835 C834 1.279 . S
C836 C838 1.353 . S
C836 N839 1.314 . S
C836 H842 0.930 . S
C837 N839 1.279 . S
C837 C840 1.358 . S
C837 H843 0.930 . S
C838 C836 1.353 . S
C838 C841 1.348 . S
C838 H876 0.929 . S
N839 Li794 1.990 . S
N839 C836 1.314 . S
N839 C837 1.279 . S
C840 C837 1.358 . S
C840 C841 1.356 . S
C840 H877 0.930 . S
C841 C838 1.348 . S
C841 C840 1.356 . S
H842 C836 0.930 . S
H843 C837 0.930 . S
C844 N845 1.314 . S
C844 C846 1.353 . S
C844 H850 0.930 . S
N845 Li795 1.990 . S
N845 C844 1.314 . S
N845 C848 1.279 . S
C846 C844 1.353 . S
C846 C849 1.348 . S
C846 H878 0.929 . S
C847 C848 1.358 . S
C847 C849 1.356 . S
C847 H879 0.930 . S
C848 N845 1.279 . S
C848 C847 1.358 . S
C848 H851 0.930 . S
C849 C846 1.348 . S
C849 C847 1.356 . S
H850 C844 0.930 . S
H851 C848 0.930 . S
O852 Li792 1.956 . S
O852 Li793 1.970 . S
O852 Li794 1.961 . S
O852 C796 1.325 . S
O853 Li792 1.970 . S
O853 Li793 1.956 . S
O853 Li795 1.961 . S
O853 C802 1.325 . S
O854 Li792 1.961 . S
O854 Li794 1.956 . S
O854 Li795 1.970 . S
O854 C824 1.325 . S
O855 Li793 1.961 . S
O855 Li794 1.970 . S
O855 Li795 1.956 . S
O855 C830 1.325 . S
H856 C798 0.929 . S
H857 C799 0.930 . S
H858 C800 0.930 . S
H859 C801 0.930 . S
H860 C803 0.930 . S
H861 C805 0.929 . S
H862 C806 0.930 . S
H863 C807 0.930 . S
H864 C810 0.930 . S
H865 C813 0.929 . S
H866 C818 0.929 . S
H867 C819 0.930 . S
H868 C826 0.929 . S
H869 C827 0.930 . S
H870 C828 0.930 . S
H871 C829 0.930 . S
H872 C831 0.929 . S
H873 C832 0.930 . S
H874 C833 0.930 . S
H875 C834 0.930 . S
H876 C838 0.929 . S
H877 C840 0.930 . S
H878 C846 0.929 . S
H879 C847 0.930 . S
Li880 N897 1.990 . S
Li880 O940 1.956 . S
Li880 O941 1.970 . S
Li880 O942 1.961 . S
Li881 N905 1.990 . S
Li881 O940 1.970 . S
Li881 O941 1.956 . S
Li881 O943 1.961 . S
Li882 N927 1.990 . S
Li882 O940 1.961 . S
Li882 O942 1.956 . S
Li882 O943 1.970 . S
Li883 N933 1.990 . S
Li883 O941 1.961 . S
Li883 O942 1.970 . S
Li883 O943 1.956 . S
C884 C886 1.348 . S
C884 C887 1.356 . S
C884 O940 1.325 . S
N885 C888 1.314 . S
N885 C889 1.279 . S
C886 C884 1.348 . S
C886 C888 1.353 . S
C886 H944 0.929 . S
C887 C884 1.356 . S
C887 C889 1.358 . S
C887 H945 0.930 . S
C888 N885 1.314 . S
C888 C886 1.353 . S
C888 H946 0.930 . S
C889 N885 1.279 . S
C889 C887 1.358 . S
C889 H947 0.930 . S
C890 C893 1.348 . S
C890 C894 1.356 . S
C890 O941 1.325 . S
C891 N892 1.279 . S
C891 C894 1.358 . S
C891 H948 0.930 . S
N892 C891 1.279 . S
N892 C895 1.314 . S
C893 C890 1.348 . S
C893 C895 1.353 . S
C893 H949 0.929 . S
C894 C890 1.356 . S
C894 C891 1.358 . S
C894 H950 0.930 . S
C895 N892 1.314 . S
C895 C893 1.353 . S
C895 H951 0.930 . S
C896 N897 1.314 . S
C896 C901 1.353 . S
C896 H902 0.930 . S
N897 Li880 1.990 . S
N897 C896 1.314 . S
N897 C899 1.279 . S
C898 C899 1.358 . S
C898 C900 1.356 . S
C898 H952 0.930 . S
C899 N897 1.279 . S
C899 C898 1.358 . S
C899 H903 0.930 . S
C900 C898 1.356 . S
C900 C901 1.348 . S
C901 C896 1.353 . S
C901 C900 1.348 . S
C901 H953 0.929 . S
H902 C896 0.930 . S
H903 C899 0.930 . S
C904 N905 1.314 . S
C904 C906 1.353 . S
C904 H910 0.930 . S
N905 Li881 1.990 . S
N905 C904 1.314 . S
N905 C908 1.279 . S
C906 C904 1.353 . S
C906 C909 1.348 . S
C906 H954 0.929 . S
C907 C908 1.358 . S
C907 C909 1.356 . S
C907 H955 0.930 . S
C908 N905 1.279 . S
C908 C907 1.358 . S
C908 H911 0.930 . S
C909 C906 1.348 . S
C909 C907 1.356 . S
H910 C904 0.930 . S
H911 C908 0.930 . S
C912 C914 1.348 . S
C912 C915 1.356 . S
C912 O942 1.325 . S
N913 C916 1.314 . S
N913 C917 1.279 . S
C914 C912 1.348 . S
C914 C916 1.353 . S
C914 H956 0.929 . S
C915 C912 1.356 . S
C915 C917 1.358 . S
C915 H957 0.930 . S
C916 N913 1.314 . S
C916 C914 1.353 . S
C916 H958 0.930 . S
C917 N913 1.279 . S
C917 C915 1.358 . S
C917 H959 0.930 . S
C918 C919 1.348 . S
C918 C920 1.356 . S
C918 O943 1.325 . S
C919 C918 1.348 . S
C919 C921 1.353 . S
C919 H960 0.929 . S
C920 C918 1.356 . S
C920 C922 1.358 . S
C920 H961 0.930 . S
C921 C919 1.353 . S
C921 N923 1.314 . S
C921 H962 0.930 . S
C922 C920 1.358 . S
C922 N923 1.279 . S
C922 H963 0.930 . S
N923 C921 1.314 . S
N923 C922 1.279 . S
C924 C926 1.353 . S
C924 N927 1.314 . S
C924 H930 0.930 . S
C925 N927 1.279 . S
C925 C928 1.358 . S
C925 H931 0.930 . S
C926 C924 1.353 . S
C926 C929 1.348 . S
C926 H964 0.929 . S
N927 Li882 1.990 . S
N927 C924 1.314 . S
N927 C925 1.279 . S
C928 C925 1.358 . S
C928 C929 1.356 . S
C928 H965 0.930 . S
C929 C926 1.348 . S
C929 C928 1.356 . S
H930 C924 0.930 . S
H931 C925 0.930 . S
C932 N933 1.314 . S
C932 C934 1.353 . S
C932 H938 0.930 . S
N933 Li883 1.990 . S
N933 C932 1.314 . S
N933 C936 1.279 . S
C934 C932 1.353 . S
C934 C937 1.348 . S
C934 H966 0.929 . S
C935 C936 1.358 . S
C935 C937 1.356 . S
C935 H967 0.930 . S
C936 N933 1.279 . S
C936 C935 1.358 . S
C936 H939 0.930 . S
C937 C934 1.348 . S
C937 C935 1.356 . S
H938 C932 0.930 . S
H939 C936 0.930 . S
O940 Li880 1.956 . S
O940 Li881 1.970 . S
O940 Li882 1.961 . S
O940 C884 1.325 . S
O941 Li880 1.970 . S
O941 Li881 1.956 . S
O941 Li883 1.961 . S
O941 C890 1.325 . S
O942 Li880 1.961 . S
O942 Li882 1.956 . S
O942 Li883 1.970 . S
O942 C912 1.325 . S
O943 Li881 1.961 . S
O943 Li882 1.970 . S
O943 Li883 1.956 . S
O943 C918 1.325 . S
H944 C886 0.929 . S
H945 C887 0.930 . S
H946 C888 0.930 . S
H947 C889 0.930 . S
H948 C891 0.930 . S
H949 C893 0.929 . S
H950 C894 0.930 . S
H951 C895 0.930 . S
H952 C898 0.930 . S
H953 C901 0.929 . S
H954 C906 0.929 . S
H955 C907 0.930 . S
H956 C914 0.929 . S
H957 C915 0.930 . S
H958 C916 0.930 . S
H959 C917 0.930 . S
H960 C919 0.929 . S
H961 C920 0.930 . S
H962 C921 0.930 . S
H963 C922 0.930 . S
H964 C926 0.929 . S
H965 C928 0.930 . S
H966 C934 0.929 . S
H967 C935 0.930 . S
Li968 N985 1.990 . S
Li968 O1028 1.956 . S
Li968 O1029 1.970 . S
Li968 O1030 1.961 . S
Li969 N993 1.990 . S
Li969 O1028 1.970 . S
Li969 O1029 1.956 . S
Li969 O1031 1.961 . S
Li970 N1015 1.990 . S
Li970 O1028 1.961 . S
Li970 O1030 1.956 . S
Li970 O1031 1.970 . S
Li971 N1021 1.990 . S
Li971 O1029 1.961 . S
Li971 O1030 1.970 . S
Li971 O1031 1.956 . S
C972 C974 1.348 . S
C972 C975 1.356 . S
C972 O1028 1.325 . S
N973 C976 1.314 . S
N973 C977 1.279 . S
C974 C972 1.348 . S
C974 C976 1.353 . S
C974 H1032 0.929 . S
C975 C972 1.356 . S
C975 C977 1.358 . S
C975 H1033 0.930 . S
C976 N973 1.314 . S
C976 C974 1.353 . S
C976 H1034 0.930 . S
C977 N973 1.279 . S
C977 C975 1.358 . S
C977 H1035 0.930 . S
C978 C981 1.348 . S
C978 C982 1.356 . S
C978 O1029 1.325 . S
C979 N980 1.279 . S
C979 C982 1.358 . S
C979 H1036 0.930 . S
N980 C979 1.279 . S
N980 C983 1.314 . S
C981 C978 1.348 . S
C981 C983 1.353 . S
C981 H1037 0.929 . S
C982 C978 1.356 . S
C982 C979 1.358 . S
C982 H1038 0.930 . S
C983 N980 1.314 . S
C983 C981 1.353 . S
C983 H1039 0.930 . S
C984 N985 1.314 . S
C984 C989 1.353 . S
C984 H990 0.930 . S
N985 Li968 1.990 . S
N985 C984 1.314 . S
N985 C987 1.279 . S
C986 C987 1.358 . S
C986 C988 1.356 . S
C986 H1040 0.930 . S
C987 N985 1.279 . S
C987 C986 1.358 . S
C987 H991 0.930 . S
C988 C986 1.356 . S
C988 C989 1.348 . S
C989 C984 1.353 . S
C989 C988 1.348 . S
C989 H1041 0.929 . S
H990 C984 0.930 . S
H991 C987 0.930 . S
C992 N993 1.314 . S
C992 C994 1.353 . S
C992 H998 0.930 . S
N993 Li969 1.990 . S
N993 C992 1.314 . S
N993 C996 1.279 . S
C994 C992 1.353 . S
C994 C997 1.348 . S
C994 H1042 0.929 . S
C995 C996 1.358 . S
C995 C997 1.356 . S
C995 H1043 0.930 . S
C996 N993 1.279 . S
C996 C995 1.358 . S
C996 H999 0.930 . S
C997 C994 1.348 . S
C997 C995 1.356 . S
H998 C992 0.930 . S
H999 C996 0.930 . S
C1000 C1002 1.348 . S
C1000 C1003 1.356 . S
C1000 O1030 1.325 . S
N1001 C1004 1.314 . S
N1001 C1005 1.279 . S
C1002 C1000 1.348 . S
C1002 C1004 1.353 . S
C1002 H1044 0.929 . S
C1003 C1000 1.356 . S
C1003 C1005 1.358 . S
C1003 H1045 0.930 . S
C1004 N1001 1.314 . S
C1004 C1002 1.353 . S
C1004 H1046 0.930 . S
C1005 N1001 1.279 . S
C1005 C1003 1.358 . S
C1005 H1047 0.930 . S
C1006 C1007 1.348 . S
C1006 C1008 1.356 . S
C1006 O1031 1.325 . S
C1007 C1006 1.348 . S
C1007 C1009 1.353 . S
C1007 H1048 0.929 . S
C1008 C1006 1.356 . S
C1008 C1010 1.358 . S
C1008 H1049 0.930 . S
C1009 C1007 1.353 . S
C1009 N1011 1.314 . S
C1009 H1050 0.930 . S
C1010 C1008 1.358 . S
C1010 N1011 1.279 . S
C1010 H1051 0.930 . S
N1011 C1009 1.314 . S
N1011 C1010 1.279 . S
C1012 C1014 1.353 . S
C1012 N1015 1.314 . S
C1012 H1018 0.930 . S
C1013 N1015 1.279 . S
C1013 C1016 1.358 . S
C1013 H1019 0.930 . S
C1014 C1012 1.353 . S
C1014 C1017 1.348 . S
C1014 H1052 0.929 . S
N1015 Li970 1.990 . S
N1015 C1012 1.314 . S
N1015 C1013 1.279 . S
C1016 C1013 1.358 . S
C1016 C1017 1.356 . S
C1016 H1053 0.930 . S
C1017 C1014 1.348 . S
C1017 C1016 1.356 . S
H1018 C1012 0.930 . S
H1019 C1013 0.930 . S
C1020 N1021 1.314 . S
C1020 C1022 1.353 . S
C1020 H1026 0.930 . S
N1021 Li971 1.990 . S
N1021 C1020 1.314 . S
N1021 C1024 1.279 . S
C1022 C1020 1.353 . S
C1022 C1025 1.348 . S
C1022 H1054 0.929 . S
C1023 C1024 1.358 . S
C1023 C1025 1.356 . S
C1023 H1055 0.930 . S
C1024 N1021 1.279 . S
C1024 C1023 1.358 . S
C1024 H1027 0.930 . S
C1025 C1022 1.348 . S
C1025 C1023 1.356 . S
H1026 C1020 0.930 . S
H1027 C1024 0.930 . S
O1028 Li968 1.956 . S
O1028 Li969 1.970 . S
O1028 Li970 1.961 . S
O1028 C972 1.325 . S
O1029 Li968 1.970 . S
O1029 Li969 1.956 . S
O1029 Li971 1.961 . S
O1029 C978 1.325 . S
O1030 Li968 1.961 . S
O1030 Li970 1.956 . S
O1030 Li971 1.970 . S
O1030 C1000 1.325 . S
O1031 Li969 1.961 . S
O1031 Li970 1.970 . S
O1031 Li971 1.956 . S
O1031 C1006 1.325 . S
H1032 C974 0.929 . S
H1033 C975 0.930 . S
H1034 C976 0.930 . S
H1035 C977 0.930 . S
H1036 C979 0.930 . S
H1037 C981 0.929 . S
H1038 C982 0.930 . S
H1039 C983 0.930 . S
H1040 C986 0.930 . S
H1041 C989 0.929 . S
H1042 C994 0.929 . S
H1043 C995 0.930 . S
H1044 C1002 0.929 . S
H1045 C1003 0.930 . S
H1046 C1004 0.930 . S
H1047 C1005 0.930 . S
H1048 C1007 0.929 . S
H1049 C1008 0.930 . S
H1050 C1009 0.930 . S
H1051 C1010 0.930 . S
H1052 C1014 0.929 . S
H1053 C1016 0.930 . S
H1054 C1022 0.929 . S
H1055 C1023 0.930 . S
Li1056 N1073 1.990 . S
Li1056 O1116 1.956 . S
Li1056 O1117 1.970 . S
Li1056 O1118 1.961 . S
Li1057 N1081 1.990 . S
Li1057 O1116 1.970 . S
Li1057 O1117 1.956 . S
Li1057 O1119 1.961 . S
Li1058 N1103 1.990 . S
Li1058 O1116 1.961 . S
Li1058 O1118 1.956 . S
Li1058 O1119 1.970 . S
Li1059 N1109 1.990 . S
Li1059 O1117 1.961 . S
Li1059 O1118 1.970 . S
Li1059 O1119 1.956 . S
C1060 C1062 1.348 . S
C1060 C1063 1.356 . S
C1060 O1116 1.325 . S
N1061 C1064 1.314 . S
N1061 C1065 1.279 . S
C1062 C1060 1.348 . S
C1062 C1064 1.353 . S
C1062 H1120 0.929 . S
C1063 C1060 1.356 . S
C1063 C1065 1.358 . S
C1063 H1121 0.930 . S
C1064 N1061 1.314 . S
C1064 C1062 1.353 . S
C1064 H1122 0.930 . S
C1065 N1061 1.279 . S
C1065 C1063 1.358 . S
C1065 H1123 0.930 . S
C1066 C1069 1.348 . S
C1066 C1070 1.356 . S
C1066 O1117 1.325 . S
C1067 N1068 1.279 . S
C1067 C1070 1.358 . S
C1067 H1124 0.930 . S
N1068 C1067 1.279 . S
N1068 C1071 1.314 . S
C1069 C1066 1.348 . S
C1069 C1071 1.353 . S
C1069 H1125 0.929 . S
C1070 C1066 1.356 . S
C1070 C1067 1.358 . S
C1070 H1126 0.930 . S
C1071 N1068 1.314 . S
C1071 C1069 1.353 . S
C1071 H1127 0.930 . S
C1072 N1073 1.314 . S
C1072 C1077 1.353 . S
C1072 H1078 0.930 . S
N1073 Li1056 1.990 . S
N1073 C1072 1.314 . S
N1073 C1075 1.279 . S
C1074 C1075 1.358 . S
C1074 C1076 1.356 . S
C1074 H1128 0.930 . S
C1075 N1073 1.279 . S
C1075 C1074 1.358 . S
C1075 H1079 0.930 . S
C1076 C1074 1.356 . S
C1076 C1077 1.348 . S
C1077 C1072 1.353 . S
C1077 C1076 1.348 . S
C1077 H1129 0.929 . S
H1078 C1072 0.930 . S
H1079 C1075 0.930 . S
C1080 N1081 1.314 . S
C1080 C1082 1.353 . S
C1080 H1086 0.930 . S
N1081 Li1057 1.990 . S
N1081 C1080 1.314 . S
N1081 C1084 1.279 . S
C1082 C1080 1.353 . S
C1082 C1085 1.348 . S
C1082 H1130 0.929 . S
C1083 C1084 1.358 . S
C1083 C1085 1.356 . S
C1083 H1131 0.930 . S
C1084 N1081 1.279 . S
C1084 C1083 1.358 . S
C1084 H1087 0.930 . S
C1085 C1082 1.348 . S
C1085 C1083 1.356 . S
H1086 C1080 0.930 . S
H1087 C1084 0.930 . S
C1088 C1090 1.348 . S
C1088 C1091 1.356 . S
C1088 O1118 1.325 . S
N1089 C1092 1.314 . S
N1089 C1093 1.279 . S
C1090 C1088 1.348 . S
C1090 C1092 1.353 . S
C1090 H1132 0.929 . S
C1091 C1088 1.356 . S
C1091 C1093 1.358 . S
C1091 H1133 0.930 . S
C1092 N1089 1.314 . S
C1092 C1090 1.353 . S
C1092 H1134 0.930 . S
C1093 N1089 1.279 . S
C1093 C1091 1.358 . S
C1093 H1135 0.930 . S
C1094 C1095 1.348 . S
C1094 C1096 1.356 . S
C1094 O1119 1.325 . S
C1095 C1094 1.348 . S
C1095 C1097 1.353 . S
C1095 H1136 0.929 . S
C1096 C1094 1.356 . S
C1096 C1098 1.358 . S
C1096 H1137 0.930 . S
C1097 C1095 1.353 . S
C1097 N1099 1.314 . S
C1097 H1138 0.930 . S
C1098 C1096 1.358 . S
C1098 N1099 1.279 . S
C1098 H1139 0.930 . S
N1099 C1097 1.314 . S
N1099 C1098 1.279 . S
C1100 C1102 1.353 . S
C1100 N1103 1.314 . S
C1100 H1106 0.930 . S
C1101 N1103 1.279 . S
C1101 C1104 1.358 . S
C1101 H1107 0.930 . S
C1102 C1100 1.353 . S
C1102 C1105 1.348 . S
C1102 H1140 0.929 . S
N1103 Li1058 1.990 . S
N1103 C1100 1.314 . S
N1103 C1101 1.279 . S
C1104 C1101 1.358 . S
C1104 C1105 1.356 . S
C1104 H1141 0.930 . S
C1105 C1102 1.348 . S
C1105 C1104 1.356 . S
H1106 C1100 0.930 . S
H1107 C1101 0.930 . S
C1108 N1109 1.314 . S
C1108 C1110 1.353 . S
C1108 H1114 0.930 . S
N1109 Li1059 1.990 . S
N1109 C1108 1.314 . S
N1109 C1112 1.279 . S
C1110 C1108 1.353 . S
C1110 C1113 1.348 . S
C1110 H1142 0.929 . S
C1111 C1112 1.358 . S
C1111 C1113 1.356 . S
C1111 H1143 0.930 . S
C1112 N1109 1.279 . S
C1112 C1111 1.358 . S
C1112 H1115 0.930 . S
C1113 C1110 1.348 . S
C1113 C1111 1.356 . S
H1114 C1108 0.930 . S
H1115 C1112 0.930 . S
O1116 Li1056 1.956 . S
O1116 Li1057 1.970 . S
O1116 Li1058 1.961 . S
O1116 C1060 1.325 . S
O1117 Li1056 1.970 . S
O1117 Li1057 1.956 . S
O1117 Li1059 1.961 . S
O1117 C1066 1.325 . S
O1118 Li1056 1.961 . S
O1118 Li1058 1.956 . S
O1118 Li1059 1.970 . S
O1118 C1088 1.325 . S
O1119 Li1057 1.961 . S
O1119 Li1058 1.970 . S
O1119 Li1059 1.956 . S
O1119 C1094 1.325 . S
H1120 C1062 0.929 . S
H1121 C1063 0.930 . S
H1122 C1064 0.930 . S
H1123 C1065 0.930 . S
H1124 C1067 0.930 . S
H1125 C1069 0.929 . S
H1126 C1070 0.930 . S
H1127 C1071 0.930 . S
H1128 C1074 0.930 . S
H1129 C1077 0.929 . S
H1130 C1082 0.929 . S
H1131 C1083 0.930 . S
H1132 C1090 0.929 . S
H1133 C1091 0.930 . S
H1134 C1092 0.930 . S
H1135 C1093 0.930 . S
H1136 C1095 0.929 . S
H1137 C1096 0.930 . S
H1138 C1097 0.930 . S
H1139 C1098 0.930 . S
H1140 C1102 0.929 . S
H1141 C1104 0.930 . S
H1142 C1110 0.929 . S
H1143 C1111 0.930 . S
Li1144 N1161 1.990 . S
Li1144 O1204 1.956 . S
Li1144 O1205 1.970 . S
Li1144 O1206 1.961 . S
Li1145 N1169 1.990 . S
Li1145 O1204 1.970 . S
Li1145 O1205 1.956 . S
Li1145 O1207 1.961 . S
Li1146 N1191 1.990 . S
Li1146 O1204 1.961 . S
Li1146 O1206 1.956 . S
Li1146 O1207 1.970 . S
Li1147 N1197 1.990 . S
Li1147 O1205 1.961 . S
Li1147 O1206 1.970 . S
Li1147 O1207 1.956 . S
C1148 C1150 1.348 . S
C1148 C1151 1.356 . S
C1148 O1204 1.325 . S
N1149 C1152 1.314 . S
N1149 C1153 1.279 . S
C1150 C1148 1.348 . S
C1150 C1152 1.353 . S
C1150 H1208 0.929 . S
C1151 C1148 1.356 . S
C1151 C1153 1.358 . S
C1151 H1209 0.930 . S
C1152 N1149 1.314 . S
C1152 C1150 1.353 . S
C1152 H1210 0.930 . S
C1153 N1149 1.279 . S
C1153 C1151 1.358 . S
C1153 H1211 0.930 . S
C1154 C1157 1.348 . S
C1154 C1158 1.356 . S
C1154 O1205 1.325 . S
C1155 N1156 1.279 . S
C1155 C1158 1.358 . S
C1155 H1212 0.930 . S
N1156 C1155 1.279 . S
N1156 C1159 1.314 . S
C1157 C1154 1.348 . S
C1157 C1159 1.353 . S
C1157 H1213 0.929 . S
C1158 C1154 1.356 . S
C1158 C1155 1.358 . S
C1158 H1214 0.930 . S
C1159 N1156 1.314 . S
C1159 C1157 1.353 . S
C1159 H1215 0.930 . S
C1160 N1161 1.314 . S
C1160 C1165 1.353 . S
C1160 H1166 0.930 . S
N1161 Li1144 1.990 . S
N1161 C1160 1.314 . S
N1161 C1163 1.279 . S
C1162 C1163 1.358 . S
C1162 C1164 1.356 . S
C1162 H1216 0.930 . S
C1163 N1161 1.279 . S
C1163 C1162 1.358 . S
C1163 H1167 0.930 . S
C1164 C1162 1.356 . S
C1164 C1165 1.348 . S
C1165 C1160 1.353 . S
C1165 C1164 1.348 . S
C1165 H1217 0.929 . S
H1166 C1160 0.930 . S
H1167 C1163 0.930 . S
C1168 N1169 1.314 . S
C1168 C1170 1.353 . S
C1168 H1174 0.930 . S
N1169 Li1145 1.990 . S
N1169 C1168 1.314 . S
N1169 C1172 1.279 . S
C1170 C1168 1.353 . S
C1170 C1173 1.348 . S
C1170 H1218 0.929 . S
C1171 C1172 1.358 . S
C1171 C1173 1.356 . S
C1171 H1219 0.930 . S
C1172 N1169 1.279 . S
C1172 C1171 1.358 . S
C1172 H1175 0.930 . S
C1173 C1170 1.348 . S
C1173 C1171 1.356 . S
H1174 C1168 0.930 . S
H1175 C1172 0.930 . S
C1176 C1178 1.348 . S
C1176 C1179 1.356 . S
C1176 O1206 1.325 . S
N1177 C1180 1.314 . S
N1177 C1181 1.279 . S
C1178 C1176 1.348 . S
C1178 C1180 1.353 . S
C1178 H1220 0.929 . S
C1179 C1176 1.356 . S
C1179 C1181 1.358 . S
C1179 H1221 0.930 . S
C1180 N1177 1.314 . S
C1180 C1178 1.353 . S
C1180 H1222 0.930 . S
C1181 N1177 1.279 . S
C1181 C1179 1.358 . S
C1181 H1223 0.930 . S
C1182 C1183 1.348 . S
C1182 C1184 1.356 . S
C1182 O1207 1.325 . S
C1183 C1182 1.348 . S
C1183 C1185 1.353 . S
C1183 H1224 0.929 . S
C1184 C1182 1.356 . S
C1184 C1186 1.358 . S
C1184 H1225 0.930 . S
C1185 C1183 1.353 . S
C1185 N1187 1.314 . S
C1185 H1226 0.930 . S
C1186 C1184 1.358 . S
C1186 N1187 1.279 . S
C1186 H1227 0.930 . S
N1187 C1185 1.314 . S
N1187 C1186 1.279 . S
C1188 C1190 1.353 . S
C1188 N1191 1.314 . S
C1188 H1194 0.930 . S
C1189 N1191 1.279 . S
C1189 C1192 1.358 . S
C1189 H1195 0.930 . S
C1190 C1188 1.353 . S
C1190 C1193 1.348 . S
C1190 H1228 0.929 . S
N1191 Li1146 1.990 . S
N1191 C1188 1.314 . S
N1191 C1189 1.279 . S
C1192 C1189 1.358 . S
C1192 C1193 1.356 . S
C1192 H1229 0.930 . S
C1193 C1190 1.348 . S
C1193 C1192 1.356 . S
H1194 C1188 0.930 . S
H1195 C1189 0.930 . S
C1196 N1197 1.314 . S
C1196 C1198 1.353 . S
C1196 H1202 0.930 . S
N1197 Li1147 1.990 . S
N1197 C1196 1.314 . S
N1197 C1200 1.279 . S
C1198 C1196 1.353 . S
C1198 C1201 1.348 . S
C1198 H1230 0.929 . S
C1199 C1200 1.358 . S
C1199 C1201 1.356 . S
C1199 H1231 0.930 . S
C1200 N1197 1.279 . S
C1200 C1199 1.358 . S
C1200 H1203 0.930 . S
C1201 C1198 1.348 . S
C1201 C1199 1.356 . S
H1202 C1196 0.930 . S
H1203 C1200 0.930 . S
O1204 Li1144 1.956 . S
O1204 Li1145 1.970 . S
O1204 Li1146 1.961 . S
O1204 C1148 1.325 . S
O1205 Li1144 1.970 . S
O1205 Li1145 1.956 . S
O1205 Li1147 1.961 . S
O1205 C1154 1.325 . S
O1206 Li1144 1.961 . S
O1206 Li1146 1.956 . S
O1206 Li1147 1.970 . S
O1206 C1176 1.325 . S
O1207 Li1145 1.961 . S
O1207 Li1146 1.970 . S
O1207 Li1147 1.956 . S
O1207 C1182 1.325 . S
H1208 C1150 0.929 . S
H1209 C1151 0.930 . S
H1210 C1152 0.930 . S
H1211 C1153 0.930 . S
H1212 C1155 0.930 . S
H1213 C1157 0.929 . S
H1214 C1158 0.930 . S
H1215 C1159 0.930 . S
H1216 C1162 0.930 . S
H1217 C1165 0.929 . S
H1218 C1170 0.929 . S
H1219 C1171 0.930 . S
H1220 C1178 0.929 . S
H1221 C1179 0.930 . S
H1222 C1180 0.930 . S
H1223 C1181 0.930 . S
H1224 C1183 0.929 . S
H1225 C1184 0.930 . S
H1226 C1185 0.930 . S
H1227 C1186 0.930 . S
H1228 C1190 0.929 . S
H1229 C1192 0.930 . S
H1230 C1198 0.929 . S
H1231 C1199 0.930 . S
Li1232 N1249 1.990 . S
Li1232 O1292 1.956 . S
Li1232 O1293 1.970 . S
Li1232 O1294 1.961 . S
Li1233 N1257 1.990 . S
Li1233 O1292 1.970 . S
Li1233 O1293 1.956 . S
Li1233 O1295 1.961 . S
Li1234 N1279 1.990 . S
Li1234 O1292 1.961 . S
Li1234 O1294 1.956 . S
Li1234 O1295 1.970 . S
Li1235 N1285 1.990 . S
Li1235 O1293 1.961 . S
Li1235 O1294 1.970 . S
Li1235 O1295 1.956 . S
C1236 C1238 1.348 . S
C1236 C1239 1.356 . S
C1236 O1292 1.325 . S
N1237 C1240 1.314 . S
N1237 C1241 1.279 . S
C1238 C1236 1.348 . S
C1238 C1240 1.353 . S
C1238 H1296 0.929 . S
C1239 C1236 1.356 . S
C1239 C1241 1.358 . S
C1239 H1297 0.930 . S
C1240 N1237 1.314 . S
C1240 C1238 1.353 . S
C1240 H1298 0.930 . S
C1241 N1237 1.279 . S
C1241 C1239 1.358 . S
C1241 H1299 0.930 . S
C1242 C1245 1.348 . S
C1242 C1246 1.356 . S
C1242 O1293 1.325 . S
C1243 N1244 1.279 . S
C1243 C1246 1.358 . S
C1243 H1300 0.930 . S
N1244 C1243 1.279 . S
N1244 C1247 1.314 . S
C1245 C1242 1.348 . S
C1245 C1247 1.353 . S
C1245 H1301 0.929 . S
C1246 C1242 1.356 . S
C1246 C1243 1.358 . S
C1246 H1302 0.930 . S
C1247 N1244 1.314 . S
C1247 C1245 1.353 . S
C1247 H1303 0.930 . S
C1248 N1249 1.314 . S
C1248 C1253 1.353 . S
C1248 H1254 0.930 . S
N1249 Li1232 1.990 . S
N1249 C1248 1.314 . S
N1249 C1251 1.279 . S
C1250 C1251 1.358 . S
C1250 C1252 1.356 . S
C1250 H1304 0.930 . S
C1251 N1249 1.279 . S
C1251 C1250 1.358 . S
C1251 H1255 0.930 . S
C1252 C1250 1.356 . S
C1252 C1253 1.348 . S
C1253 C1248 1.353 . S
C1253 C1252 1.348 . S
C1253 H1305 0.929 . S
H1254 C1248 0.930 . S
H1255 C1251 0.930 . S
C1256 N1257 1.314 . S
C1256 C1258 1.353 . S
C1256 H1262 0.930 . S
N1257 Li1233 1.990 . S
N1257 C1256 1.314 . S
N1257 C1260 1.279 . S
C1258 C1256 1.353 . S
C1258 C1261 1.348 . S
C1258 H1306 0.929 . S
C1259 C1260 1.358 . S
C1259 C1261 1.356 . S
C1259 H1307 0.930 . S
C1260 N1257 1.279 . S
C1260 C1259 1.358 . S
C1260 H1263 0.930 . S
C1261 C1258 1.348 . S
C1261 C1259 1.356 . S
H1262 C1256 0.930 . S
H1263 C1260 0.930 . S
C1264 C1266 1.348 . S
C1264 C1267 1.356 . S
C1264 O1294 1.325 . S
N1265 C1268 1.314 . S
N1265 C1269 1.279 . S
C1266 C1264 1.348 . S
C1266 C1268 1.353 . S
C1266 H1308 0.929 . S
C1267 C1264 1.356 . S
C1267 C1269 1.358 . S
C1267 H1309 0.930 . S
C1268 N1265 1.314 . S
C1268 C1266 1.353 . S
C1268 H1310 0.930 . S
C1269 N1265 1.279 . S
C1269 C1267 1.358 . S
C1269 H1311 0.930 . S
C1270 C1271 1.348 . S
C1270 C1272 1.356 . S
C1270 O1295 1.325 . S
C1271 C1270 1.348 . S
C1271 C1273 1.353 . S
C1271 H1312 0.929 . S
C1272 C1270 1.356 . S
C1272 C1274 1.358 . S
C1272 H1313 0.930 . S
C1273 C1271 1.353 . S
C1273 N1275 1.314 . S
C1273 H1314 0.930 . S
C1274 C1272 1.358 . S
C1274 N1275 1.279 . S
C1274 H1315 0.930 . S
N1275 C1273 1.314 . S
N1275 C1274 1.279 . S
C1276 C1278 1.353 . S
C1276 N1279 1.314 . S
C1276 H1282 0.930 . S
C1277 N1279 1.279 . S
C1277 C1280 1.358 . S
C1277 H1283 0.930 . S
C1278 C1276 1.353 . S
C1278 C1281 1.348 . S
C1278 H1316 0.929 . S
N1279 Li1234 1.990 . S
N1279 C1276 1.314 . S
N1279 C1277 1.279 . S
C1280 C1277 1.358 . S
C1280 C1281 1.356 . S
C1280 H1317 0.930 . S
C1281 C1278 1.348 . S
C1281 C1280 1.356 . S
H1282 C1276 0.930 . S
H1283 C1277 0.930 . S
C1284 N1285 1.314 . S
C1284 C1286 1.353 . S
C1284 H1290 0.930 . S
N1285 Li1235 1.990 . S
N1285 C1284 1.314 . S
N1285 C1288 1.279 . S
C1286 C1284 1.353 . S
C1286 C1289 1.348 . S
C1286 H1318 0.929 . S
C1287 C1288 1.358 . S
C1287 C1289 1.356 . S
C1287 H1319 0.930 . S
C1288 N1285 1.279 . S
C1288 C1287 1.358 . S
C1288 H1291 0.930 . S
C1289 C1286 1.348 . S
C1289 C1287 1.356 . S
H1290 C1284 0.930 . S
H1291 C1288 0.930 . S
O1292 Li1232 1.956 . S
O1292 Li1233 1.970 . S
O1292 Li1234 1.961 . S
O1292 C1236 1.325 . S
O1293 Li1232 1.970 . S
O1293 Li1233 1.956 . S
O1293 Li1235 1.961 . S
O1293 C1242 1.325 . S
O1294 Li1232 1.961 . S
O1294 Li1234 1.956 . S
O1294 Li1235 1.970 . S
O1294 C1264 1.325 . S
O1295 Li1233 1.961 . S
O1295 Li1234 1.970 . S
O1295 Li1235 1.956 . S
O1295 C1270 1.325 . S
H1296 C1238 0.929 . S
H1297 C1239 0.930 . S
H1298 C1240 0.930 . S
H1299 C1241 0.930 . S
H1300 C1243 0.930 . S
H1301 C1245 0.929 . S
H1302 C1246 0.930 . S
H1303 C1247 0.930 . S
H1304 C1250 0.930 . S
H1305 C1253 0.929 . S
H1306 C1258 0.929 . S
H1307 C1259 0.930 . S
H1308 C1266 0.929 . S
H1309 C1267 0.930 . S
H1310 C1268 0.930 . S
H1311 C1269 0.930 . S
H1312 C1271 0.929 . S
H1313 C1272 0.930 . S
H1314 C1273 0.930 . S
H1315 C1274 0.930 . S
H1316 C1278 0.929 . S
H1317 C1280 0.930 . S
H1318 C1286 0.929 . S
H1319 C1287 0.930 . S
Li1320 N1337 1.990 . S
Li1320 O1380 1.956 . S
Li1320 O1381 1.970 . S
Li1320 O1382 1.961 . S
Li1321 N1345 1.990 . S
Li1321 O1380 1.970 . S
Li1321 O1381 1.956 . S
Li1321 O1383 1.961 . S
Li1322 N1367 1.990 . S
Li1322 O1380 1.961 . S
Li1322 O1382 1.956 . S
Li1322 O1383 1.970 . S
Li1323 N1373 1.990 . S
Li1323 O1381 1.961 . S
Li1323 O1382 1.970 . S
Li1323 O1383 1.956 . S
C1324 C1326 1.348 . S
C1324 C1327 1.356 . S
C1324 O1380 1.325 . S
N1325 C1328 1.314 . S
N1325 C1329 1.279 . S
C1326 C1324 1.348 . S
C1326 C1328 1.353 . S
C1326 H1384 0.929 . S
C1327 C1324 1.356 . S
C1327 C1329 1.358 . S
C1327 H1385 0.930 . S
C1328 N1325 1.314 . S
C1328 C1326 1.353 . S
C1328 H1386 0.930 . S
C1329 N1325 1.279 . S
C1329 C1327 1.358 . S
C1329 H1387 0.930 . S
C1330 C1333 1.348 . S
C1330 C1334 1.356 . S
C1330 O1381 1.325 . S
C1331 N1332 1.279 . S
C1331 C1334 1.358 . S
C1331 H1388 0.930 . S
N1332 C1331 1.279 . S
N1332 C1335 1.314 . S
C1333 C1330 1.348 . S
C1333 C1335 1.353 . S
C1333 H1389 0.929 . S
C1334 C1330 1.356 . S
C1334 C1331 1.358 . S
C1334 H1390 0.930 . S
C1335 N1332 1.314 . S
C1335 C1333 1.353 . S
C1335 H1391 0.930 . S
C1336 N1337 1.314 . S
C1336 C1341 1.353 . S
C1336 H1342 0.930 . S
N1337 Li1320 1.990 . S
N1337 C1336 1.314 . S
N1337 C1339 1.279 . S
C1338 C1339 1.358 . S
C1338 C1340 1.356 . S
C1338 H1392 0.930 . S
C1339 N1337 1.279 . S
C1339 C1338 1.358 . S
C1339 H1343 0.930 . S
C1340 C1338 1.356 . S
C1340 C1341 1.348 . S
C1341 C1336 1.353 . S
C1341 C1340 1.348 . S
C1341 H1393 0.929 . S
H1342 C1336 0.930 . S
H1343 C1339 0.930 . S
C1344 N1345 1.314 . S
C1344 C1346 1.353 . S
C1344 H1350 0.930 . S
N1345 Li1321 1.990 . S
N1345 C1344 1.314 . S
N1345 C1348 1.279 . S
C1346 C1344 1.353 . S
C1346 C1349 1.348 . S
C1346 H1394 0.929 . S
C1347 C1348 1.358 . S
C1347 C1349 1.356 . S
C1347 H1395 0.930 . S
C1348 N1345 1.279 . S
C1348 C1347 1.358 . S
C1348 H1351 0.930 . S
C1349 C1346 1.348 . S
C1349 C1347 1.356 . S
H1350 C1344 0.930 . S
H1351 C1348 0.930 . S
C1352 C1354 1.348 . S
C1352 C1355 1.356 . S
C1352 O1382 1.325 . S
N1353 C1356 1.314 . S
N1353 C1357 1.279 . S
C1354 C1352 1.348 . S
C1354 C1356 1.353 . S
C1354 H1396 0.929 . S
C1355 C1352 1.356 . S
C1355 C1357 1.358 . S
C1355 H1397 0.930 . S
C1356 N1353 1.314 . S
C1356 C1354 1.353 . S
C1356 H1398 0.930 . S
C1357 N1353 1.279 . S
C1357 C1355 1.358 . S
C1357 H1399 0.930 . S
C1358 C1359 1.348 . S
C1358 C1360 1.356 . S
C1358 O1383 1.325 . S
C1359 C1358 1.348 . S
C1359 C1361 1.353 . S
C1359 H1400 0.929 . S
C1360 C1358 1.356 . S
C1360 C1362 1.358 . S
C1360 H1401 0.930 . S
C1361 C1359 1.353 . S
C1361 N1363 1.314 . S
C1361 H1402 0.930 . S
C1362 C1360 1.358 . S
C1362 N1363 1.279 . S
C1362 H1403 0.930 . S
N1363 C1361 1.314 . S
N1363 C1362 1.279 . S
C1364 C1366 1.353 . S
C1364 N1367 1.314 . S
C1364 H1370 0.930 . S
C1365 N1367 1.279 . S
C1365 C1368 1.358 . S
C1365 H1371 0.930 . S
C1366 C1364 1.353 . S
C1366 C1369 1.348 . S
C1366 H1404 0.929 . S
N1367 Li1322 1.990 . S
N1367 C1364 1.314 . S
N1367 C1365 1.279 . S
C1368 C1365 1.358 . S
C1368 C1369 1.356 . S
C1368 H1405 0.930 . S
C1369 C1366 1.348 . S
C1369 C1368 1.356 . S
H1370 C1364 0.930 . S
H1371 C1365 0.930 . S
C1372 N1373 1.314 . S
C1372 C1374 1.353 . S
C1372 H1378 0.930 . S
N1373 Li1323 1.990 . S
N1373 C1372 1.314 . S
N1373 C1376 1.279 . S
C1374 C1372 1.353 . S
C1374 C1377 1.348 . S
C1374 H1406 0.929 . S
C1375 C1376 1.358 . S
C1375 C1377 1.356 . S
C1375 H1407 0.930 . S
C1376 N1373 1.279 . S
C1376 C1375 1.358 . S
C1376 H1379 0.930 . S
C1377 C1374 1.348 . S
C1377 C1375 1.356 . S
H1378 C1372 0.930 . S
H1379 C1376 0.930 . S
O1380 Li1320 1.956 . S
O1380 Li1321 1.970 . S
O1380 Li1322 1.961 . S
O1380 C1324 1.325 . S
O1381 Li1320 1.970 . S
O1381 Li1321 1.956 . S
O1381 Li1323 1.961 . S
O1381 C1330 1.325 . S
O1382 Li1320 1.961 . S
O1382 Li1322 1.956 . S
O1382 Li1323 1.970 . S
O1382 C1352 1.325 . S
O1383 Li1321 1.961 . S
O1383 Li1322 1.970 . S
O1383 Li1323 1.956 . S
O1383 C1358 1.325 . S
H1384 C1326 0.929 . S
H1385 C1327 0.930 . S
H1386 C1328 0.930 . S
H1387 C1329 0.930 . S
H1388 C1331 0.930 . S
H1389 C1333 0.929 . S
H1390 C1334 0.930 . S
H1391 C1335 0.930 . S
H1392 C1338 0.930 . S
H1393 C1341 0.929 . S
H1394 C1346 0.929 . S
H1395 C1347 0.930 . S
H1396 C1354 0.929 . S
H1397 C1355 0.930 . S
H1398 C1356 0.930 . S
H1399 C1357 0.930 . S
H1400 C1359 0.929 . S
H1401 C1360 0.930 . S
H1402 C1361 0.930 . S
H1403 C1362 0.930 . S
H1404 C1366 0.929 . S
H1405 C1368 0.930 . S
H1406 C1374 0.929 . S
H1407 C1375 0.930 . S
C1408 C1409 1.349 . S
C1408 C1410 1.327 . S
C1408 H1433 0.950 . S
C1409 C1408 1.349 . S
C1409 C1425 1.349 . S
C1410 C1408 1.327 . S
C1410 C1429 1.429 . S
C1410 H1434 0.950 . S
C1411 C1428 1.574 . S
C1411 C1430 1.368 . S
C1411 H1435 0.949 . S
H1412 C1416 0.949 . S
C1413 C1414 1.349 . S
C1413 C1415 1.327 . S
C1413 H1436 0.950 . S
C1414 C1413 1.349 . S
C1414 C1426 1.349 . S
C1415 C1413 1.327 . S
C1415 C1431 1.429 . S
C1415 H1437 0.950 . S
C1416 H1412 0.949 . S
C1416 C1424 1.574 . S
C1416 C1432 1.368 . S
H1417 C1425 0.950 . S
H1418 C1423 0.950 . S
H1419 C1424 0.949 . S
H1420 C1426 0.950 . S
H1421 C1427 0.950 . S
H1422 C1428 0.949 . S
C1423 H1418 0.950 . S
C1423 C1425 1.327 . S
C1423 C1429 1.429 . S
C1424 C1416 1.574 . S
C1424 H1419 0.949 . S
C1424 C1430 1.368 . S
C1425 C1409 1.349 . S
C1425 H1417 0.950 . S
C1425 C1423 1.327 . S
C1426 C1414 1.349 . S
C1426 H1420 0.950 . S
C1426 C1427 1.327 . S
C1427 H1421 0.950 . S
C1427 C1426 1.327 . S
C1427 C1431 1.429 . S
C1428 C1411 1.574 . S
C1428 H1422 0.949 . S
C1428 C1432 1.368 . S
C1429 C1410 1.429 . S
C1429 C1423 1.429 . S
C1429 C1430 1.523 . S
C1430 C1411 1.368 . S
C1430 C1424 1.368 . S
C1430 C1429 1.523 . S
C1431 C1415 1.429 . S
C1431 C1427 1.429 . S
C1431 C1432 1.523 . S
C1432 C1416 1.368 . S
C1432 C1428 1.368 . S
C1432 C1431 1.523 . S
H1433 C1408 0.950 . S
H1434 C1410 0.950 . S
H1435 C1411 0.949 . S
H1436 C1413 0.950 . S
H1437 C1415 0.950 . S
C1438 C1439 1.349 . S
C1438 C1440 1.327 . S
C1438 H1463 0.950 . S
C1439 C1438 1.349 . S
C1439 C1455 1.349 . S
C1440 C1438 1.327 . S
C1440 C1459 1.429 . S
C1440 H1464 0.950 . S
C1441 C1458 1.574 . S
C1441 C1460 1.368 . S
C1441 H1465 0.949 . S
H1442 C1446 0.949 . S
C1443 C1444 1.349 . S
C1443 C1445 1.327 . S
C1443 H1466 0.950 . S
C1444 C1443 1.349 . S
C1444 C1456 1.349 . S
C1445 C1443 1.327 . S
C1445 C1461 1.429 . S
C1445 H1467 0.950 . S
C1446 H1442 0.949 . S
C1446 C1454 1.574 . S
C1446 C1462 1.368 . S
H1447 C1455 0.950 . S
H1448 C1453 0.950 . S
H1449 C1454 0.949 . S
H1450 C1456 0.950 . S
H1451 C1457 0.950 . S
H1452 C1458 0.949 . S
C1453 H1448 0.950 . S
C1453 C1455 1.327 . S
C1453 C1459 1.429 . S
C1454 C1446 1.574 . S
C1454 H1449 0.949 . S
C1454 C1460 1.368 . S
C1455 C1439 1.349 . S
C1455 H1447 0.950 . S
C1455 C1453 1.327 . S
C1456 C1444 1.349 . S
C1456 H1450 0.950 . S
C1456 C1457 1.327 . S
C1457 H1451 0.950 . S
C1457 C1456 1.327 . S
C1457 C1461 1.429 . S
C1458 C1441 1.574 . S
C1458 H1452 0.949 . S
C1458 C1462 1.368 . S
C1459 C1440 1.429 . S
C1459 C1453 1.429 . S
C1459 C1460 1.523 . S
C1460 C1441 1.368 . S
C1460 C1454 1.368 . S
C1460 C1459 1.523 . S
C1461 C1445 1.429 . S
C1461 C1457 1.429 . S
C1461 C1462 1.523 . S
C1462 C1446 1.368 . S
C1462 C1458 1.368 . S
C1462 C1461 1.523 . S
H1463 C1438 0.950 . S
H1464 C1440 0.950 . S
H1465 C1441 0.949 . S
H1466 C1443 0.950 . S
H1467 C1445 0.950 . S
C1468 C1469 1.349 . S
C1468 C1470 1.327 . S
C1468 H1493 0.950 . S
C1469 C1468 1.349 . S
C1469 C1485 1.349 . S
C1470 C1468 1.327 . S
C1470 C1489 1.429 . S
C1470 H1494 0.950 . S
C1471 C1488 1.574 . S
C1471 C1490 1.368 . S
C1471 H1495 0.949 . S
H1472 C1476 0.949 . S
C1473 C1474 1.349 . S
C1473 C1475 1.327 . S
C1473 H1496 0.950 . S
C1474 C1473 1.349 . S
C1474 C1486 1.349 . S
C1475 C1473 1.327 . S
C1475 C1491 1.429 . S
C1475 H1497 0.950 . S
C1476 H1472 0.949 . S
C1476 C1484 1.574 . S
C1476 C1492 1.368 . S
H1477 C1485 0.950 . S
H1478 C1483 0.950 . S
H1479 C1484 0.949 . S
H1480 C1486 0.950 . S
H1481 C1487 0.950 . S
H1482 C1488 0.949 . S
C1483 H1478 0.950 . S
C1483 C1485 1.327 . S
C1483 C1489 1.429 . S
C1484 C1476 1.574 . S
C1484 H1479 0.949 . S
C1484 C1490 1.368 . S
C1485 C1469 1.349 . S
C1485 H1477 0.950 . S
C1485 C1483 1.327 . S
C1486 C1474 1.349 . S
C1486 H1480 0.950 . S
C1486 C1487 1.327 . S
C1487 H1481 0.950 . S
C1487 C1486 1.327 . S
C1487 C1491 1.429 . S
C1488 C1471 1.574 . S
C1488 H1482 0.949 . S
C1488 C1492 1.368 . S
C1489 C1470 1.429 . S
C1489 C1483 1.429 . S
C1489 C1490 1.523 . S
C1490 C1471 1.368 . S
C1490 C1484 1.368 . S
C1490 C1489 1.523 . S
C1491 C1475 1.429 . S
C1491 C1487 1.429 . S
C1491 C1492 1.523 . S
C1492 C1476 1.368 . S
C1492 C1488 1.368 . S
C1492 C1491 1.523 . S
H1493 C1468 0.950 . S
H1494 C1470 0.950 . S
H1495 C1471 0.949 . S
H1496 C1473 0.950 . S
H1497 C1475 0.950 . S
C1498 C1499 1.349 . S
C1498 C1500 1.327 . S
C1498 H1523 0.950 . S
C1499 C1498 1.349 . S
C1499 C1515 1.349 . S
C1500 C1498 1.327 . S
C1500 C1519 1.429 . S
C1500 H1524 0.950 . S
C1501 C1518 1.574 . S
C1501 C1520 1.368 . S
C1501 H1525 0.949 . S
H1502 C1506 0.949 . S
C1503 C1504 1.349 . S
C1503 C1505 1.327 . S
C1503 H1526 0.950 . S
C1504 C1503 1.349 . S
C1504 C1516 1.349 . S
C1505 C1503 1.327 . S
C1505 C1521 1.429 . S
C1505 H1527 0.950 . S
C1506 H1502 0.949 . S
C1506 C1514 1.574 . S
C1506 C1522 1.368 . S
H1507 C1515 0.950 . S
H1508 C1513 0.950 . S
H1509 C1514 0.949 . S
H1510 C1516 0.950 . S
H1511 C1517 0.950 . S
H1512 C1518 0.949 . S
C1513 H1508 0.950 . S
C1513 C1515 1.327 . S
C1513 C1519 1.429 . S
C1514 C1506 1.574 . S
C1514 H1509 0.949 . S
C1514 C1520 1.368 . S
C1515 C1499 1.349 . S
C1515 H1507 0.950 . S
C1515 C1513 1.327 . S
C1516 C1504 1.349 . S
C1516 H1510 0.950 . S
C1516 C1517 1.327 . S
C1517 H1511 0.950 . S
C1517 C1516 1.327 . S
C1517 C1521 1.429 . S
C1518 C1501 1.574 . S
C1518 H1512 0.949 . S
C1518 C1522 1.368 . S
C1519 C1500 1.429 . S
C1519 C1513 1.429 . S
C1519 C1520 1.523 . S
C1520 C1501 1.368 . S
C1520 C1514 1.368 . S
C1520 C1519 1.523 . S
C1521 C1505 1.429 . S
C1521 C1517 1.429 . S
C1521 C1522 1.523 . S
C1522 C1506 1.368 . S
C1522 C1518 1.368 . S
C1522 C1521 1.523 . S
H1523 C1498 0.950 . S
H1524 C1500 0.950 . S
H1525 C1501 0.949 . S
H1526 C1503 0.950 . S
H1527 C1505 0.950 . S
C1528 C1529 1.349 . S
C1528 C1530 1.327 . S
C1528 H1553 0.950 . S
C1529 C1528 1.349 . S
C1529 C1545 1.349 . S
C1530 C1528 1.327 . S
C1530 C1549 1.429 . S
C1530 H1554 0.950 . S
C1531 C1548 1.574 . S
C1531 C1550 1.368 . S
C1531 H1555 0.949 . S
H1532 C1536 0.949 . S
C1533 C1534 1.349 . S
C1533 C1535 1.327 . S
C1533 H1556 0.950 . S
C1534 C1533 1.349 . S
C1534 C1546 1.349 . S
C1535 C1533 1.327 . S
C1535 C1551 1.429 . S
C1535 H1557 0.950 . S
C1536 H1532 0.949 . S
C1536 C1544 1.574 . S
C1536 C1552 1.368 . S
H1537 C1545 0.950 . S
H1538 C1543 0.950 . S
H1539 C1544 0.949 . S
H1540 C1546 0.950 . S
H1541 C1547 0.950 . S
H1542 C1548 0.949 . S
C1543 H1538 0.950 . S
C1543 C1545 1.327 . S
C1543 C1549 1.429 . S
C1544 C1536 1.574 . S
C1544 H1539 0.949 . S
C1544 C1550 1.368 . S
C1545 C1529 1.349 . S
C1545 H1537 0.950 . S
C1545 C1543 1.327 . S
C1546 C1534 1.349 . S
C1546 H1540 0.950 . S
C1546 C1547 1.327 . S
C1547 H1541 0.950 . S
C1547 C1546 1.327 . S
C1547 C1551 1.429 . S
C1548 C1531 1.574 . S
C1548 H1542 0.949 . S
C1548 C1552 1.368 . S
C1549 C1530 1.429 . S
C1549 C1543 1.429 . S
C1549 C1550 1.523 . S
C1550 C1531 1.368 . S
C1550 C1544 1.368 . S
C1550 C1549 1.523 . S
C1551 C1535 1.429 . S
C1551 C1547 1.429 . S
C1551 C1552 1.523 . S
C1552 C1536 1.368 . S
C1552 C1548 1.368 . S
C1552 C1551 1.523 . S
H1553 C1528 0.950 . S
H1554 C1530 0.950 . S
H1555 C1531 0.949 . S
H1556 C1533 0.950 . S
H1557 C1535 0.950 . S
C1558 C1559 1.349 . S
C1558 C1560 1.327 . S
C1558 H1583 0.950 . S
C1559 C1558 1.349 . S
C1559 C1575 1.349 . S
C1560 C1558 1.327 . S
C1560 C1579 1.429 . S
C1560 H1584 0.950 . S
C1561 C1578 1.574 . S
C1561 C1580 1.368 . S
C1561 H1585 0.949 . S
H1562 C1566 0.949 . S
C1563 C1564 1.349 . S
C1563 C1565 1.327 . S
C1563 H1586 0.950 . S
C1564 C1563 1.349 . S
C1564 C1576 1.349 . S
C1565 C1563 1.327 . S
C1565 C1581 1.429 . S
C1565 H1587 0.950 . S
C1566 H1562 0.949 . S
C1566 C1574 1.574 . S
C1566 C1582 1.368 . S
H1567 C1575 0.950 . S
H1568 C1573 0.950 . S
H1569 C1574 0.949 . S
H1570 C1576 0.950 . S
H1571 C1577 0.950 . S
H1572 C1578 0.949 . S
C1573 H1568 0.950 . S
C1573 C1575 1.327 . S
C1573 C1579 1.429 . S
C1574 C1566 1.574 . S
C1574 H1569 0.949 . S
C1574 C1580 1.368 . S
C1575 C1559 1.349 . S
C1575 H1567 0.950 . S
C1575 C1573 1.327 . S
C1576 C1564 1.349 . S
C1576 H1570 0.950 . S
C1576 C1577 1.327 . S
C1577 H1571 0.950 . S
C1577 C1576 1.327 . S
C1577 C1581 1.429 . S
C1578 C1561 1.574 . S
C1578 H1572 0.949 . S
C1578 C1582 1.368 . S
C1579 C1560 1.429 . S
C1579 C1573 1.429 . S
C1579 C1580 1.523 . S
C1580 C1561 1.368 . S
C1580 C1574 1.368 . S
C1580 C1579 1.523 . S
C1581 C1565 1.429 . S
C1581 C1577 1.429 . S
C1581 C1582 1.523 . S
C1582 C1566 1.368 . S
C1582 C1578 1.368 . S
C1582 C1581 1.523 . S
H1583 C1558 0.950 . S
H1584 C1560 0.950 . S
H1585 C1561 0.949 . S
H1586 C1563 0.950 . S
H1587 C1565 0.950 . S
C1588 C1589 1.349 . S
C1588 C1590 1.327 . S
C1588 H1613 0.950 . S
C1589 C1588 1.349 . S
C1589 C1605 1.349 . S
C1590 C1588 1.327 . S
C1590 C1609 1.429 . S
C1590 H1614 0.950 . S
C1591 C1608 1.574 . S
C1591 C1610 1.368 . S
C1591 H1615 0.949 . S
H1592 C1596 0.949 . S
C1593 C1594 1.349 . S
C1593 C1595 1.327 . S
C1593 H1616 0.950 . S
C1594 C1593 1.349 . S
C1594 C1606 1.349 . S
C1595 C1593 1.327 . S
C1595 C1611 1.429 . S
C1595 H1617 0.950 . S
C1596 H1592 0.949 . S
C1596 C1604 1.574 . S
C1596 C1612 1.368 . S
H1597 C1605 0.950 . S
H1598 C1603 0.950 . S
H1599 C1604 0.949 . S
H1600 C1606 0.950 . S
H1601 C1607 0.950 . S
H1602 C1608 0.949 . S
C1603 H1598 0.950 . S
C1603 C1605 1.327 . S
C1603 C1609 1.429 . S
C1604 C1596 1.574 . S
C1604 H1599 0.949 . S
C1604 C1610 1.368 . S
C1605 C1589 1.349 . S
C1605 H1597 0.950 . S
C1605 C1603 1.327 . S
C1606 C1594 1.349 . S
C1606 H1600 0.950 . S
C1606 C1607 1.327 . S
C1607 H1601 0.950 . S
C1607 C1606 1.327 . S
C1607 C1611 1.429 . S
C1608 C1591 1.574 . S
C1608 H1602 0.949 . S
C1608 C1612 1.368 . S
C1609 C1590 1.429 . S
C1609 C1603 1.429 . S
C1609 C1610 1.523 . S
C1610 C1591 1.368 . S
C1610 C1604 1.368 . S
C1610 C1609 1.523 . S
C1611 C1595 1.429 . S
C1611 C1607 1.429 . S
C1611 C1612 1.523 . S
C1612 C1596 1.368 . S
C1612 C1608 1.368 . S
C1612 C1611 1.523 . S
H1613 C1588 0.950 . S
H1614 C1590 0.950 . S
H1615 C1591 0.949 . S
H1616 C1593 0.950 . S
H1617 C1595 0.950 . S
C1618 C1619 1.349 . S
C1618 C1620 1.327 . S
C1618 H1643 0.950 . S
C1619 C1618 1.349 . S
C1619 C1635 1.349 . S
C1620 C1618 1.327 . S
C1620 C1639 1.429 . S
C1620 H1644 0.950 . S
C1621 C1638 1.574 . S
C1621 C1640 1.368 . S
C1621 H1645 0.949 . S
H1622 C1626 0.949 . S
C1623 C1624 1.349 . S
C1623 C1625 1.327 . S
C1623 H1646 0.950 . S
C1624 C1623 1.349 . S
C1624 C1636 1.349 . S
C1625 C1623 1.327 . S
C1625 C1641 1.429 . S
C1625 H1647 0.950 . S
C1626 H1622 0.949 . S
C1626 C1634 1.574 . S
C1626 C1642 1.368 . S
H1627 C1635 0.950 . S
H1628 C1633 0.950 . S
H1629 C1634 0.949 . S
H1630 C1636 0.950 . S
H1631 C1637 0.950 . S
H1632 C1638 0.949 . S
C1633 H1628 0.950 . S
C1633 C1635 1.327 . S
C1633 C1639 1.429 . S
C1634 C1626 1.574 . S
C1634 H1629 0.949 . S
C1634 C1640 1.368 . S
C1635 C1619 1.349 . S
C1635 H1627 0.950 . S
C1635 C1633 1.327 . S
C1636 C1624 1.349 . S
C1636 H1630 0.950 . S
C1636 C1637 1.327 . S
C1637 H1631 0.950 . S
C1637 C1636 1.327 . S
C1637 C1641 1.429 . S
C1638 C1621 1.574 . S
C1638 H1632 0.949 . S
C1638 C1642 1.368 . S
C1639 C1620 1.429 . S
C1639 C1633 1.429 . S
C1639 C1640 1.523 . S
C1640 C1621 1.368 . S
C1640 C1634 1.368 . S
C1640 C1639 1.523 . S
C1641 C1625 1.429 . S
C1641 C1637 1.429 . S
C1641 C1642 1.523 . S
C1642 C1626 1.368 . S
C1642 C1638 1.368 . S
C1642 C1641 1.523 . S
H1643 C1618 0.950 . S
H1644 C1620 0.950 . S
H1645 C1621 0.949 . S
H1646 C1623 0.950 . S
H1647 C1625 0.950 . S
C1648 C1649 1.349 . S
C1648 C1650 1.327 . S
C1648 H1673 0.950 . S
C1649 C1648 1.349 . S
C1649 C1665 1.349 . S
C1650 C1648 1.327 . S
C1650 C1669 1.429 . S
C1650 H1674 0.950 . S
C1651 C1668 1.574 . S
C1651 C1670 1.368 . S
C1651 H1675 0.949 . S
H1652 C1656 0.949 . S
C1653 C1654 1.349 . S
C1653 C1655 1.327 . S
C1653 H1676 0.950 . S
C1654 C1653 1.349 . S
C1654 C1666 1.349 . S
C1655 C1653 1.327 . S
C1655 C1671 1.429 . S
C1655 H1677 0.950 . S
C1656 H1652 0.949 . S
C1656 C1664 1.574 . S
C1656 C1672 1.368 . S
H1657 C1665 0.950 . S
H1658 C1663 0.950 . S
H1659 C1664 0.949 . S
H1660 C1666 0.950 . S
H1661 C1667 0.950 . S
H1662 C1668 0.949 . S
C1663 H1658 0.950 . S
C1663 C1665 1.327 . S
C1663 C1669 1.429 . S
C1664 C1656 1.574 . S
C1664 H1659 0.949 . S
C1664 C1670 1.368 . S
C1665 C1649 1.349 . S
C1665 H1657 0.950 . S
C1665 C1663 1.327 . S
C1666 C1654 1.349 . S
C1666 H1660 0.950 . S
C1666 C1667 1.327 . S
C1667 H1661 0.950 . S
C1667 C1666 1.327 . S
C1667 C1671 1.429 . S
C1668 C1651 1.574 . S
C1668 H1662 0.949 . S
C1668 C1672 1.368 . S
C1669 C1650 1.429 . S
C1669 C1663 1.429 . S
C1669 C1670 1.523 . S
C1670 C1651 1.368 . S
C1670 C1664 1.368 . S
C1670 C1669 1.523 . S
C1671 C1655 1.429 . S
C1671 C1667 1.429 . S
C1671 C1672 1.523 . S
C1672 C1656 1.368 . S
C1672 C1668 1.368 . S
C1672 C1671 1.523 . S
H1673 C1648 0.950 . S
H1674 C1650 0.950 . S
H1675 C1651 0.949 . S
H1676 C1653 0.950 . S
H1677 C1655 0.950 . S
C1678 C1679 1.349 . S
C1678 C1680 1.327 . S
C1678 H1703 0.950 . S
C1679 C1678 1.349 . S
C1679 C1695 1.349 . S
C1680 C1678 1.327 . S
C1680 C1699 1.429 . S
C1680 H1704 0.950 . S
C1681 C1698 1.574 . S
C1681 C1700 1.368 . S
C1681 H1705 0.949 . S
H1682 C1686 0.949 . S
C1683 C1684 1.349 . S
C1683 C1685 1.327 . S
C1683 H1706 0.950 . S
C1684 C1683 1.349 . S
C1684 C1696 1.349 . S
C1685 C1683 1.327 . S
C1685 C1701 1.429 . S
C1685 H1707 0.950 . S
C1686 H1682 0.949 . S
C1686 C1694 1.574 . S
C1686 C1702 1.368 . S
H1687 C1695 0.950 . S
H1688 C1693 0.950 . S
H1689 C1694 0.949 . S
H1690 C1696 0.950 . S
H1691 C1697 0.950 . S
H1692 C1698 0.949 . S
C1693 H1688 0.950 . S
C1693 C1695 1.327 . S
C1693 C1699 1.429 . S
C1694 C1686 1.574 . S
C1694 H1689 0.949 . S
C1694 C1700 1.368 . S
C1695 C1679 1.349 . S
C1695 H1687 0.950 . S
C1695 C1693 1.327 . S
C1696 C1684 1.349 . S
C1696 H1690 0.950 . S
C1696 C1697 1.327 . S
C1697 H1691 0.950 . S
C1697 C1696 1.327 . S
C1697 C1701 1.429 . S
C1698 C1681 1.574 . S
C1698 H1692 0.949 . S
C1698 C1702 1.368 . S
C1699 C1680 1.429 . S
C1699 C1693 1.429 . S
C1699 C1700 1.523 . S
C1700 C1681 1.368 . S
C1700 C1694 1.368 . S
C1700 C1699 1.523 . S
C1701 C1685 1.429 . S
C1701 C1697 1.429 . S
C1701 C1702 1.523 . S
C1702 C1686 1.368 . S
C1702 C1698 1.368 . S
C1702 C1701 1.523 . S
H1703 C1678 0.950 . S
H1704 C1680 0.950 . S
H1705 C1681 0.949 . S
H1706 C1683 0.950 . S
H1707 C1685 0.950 . S
C1708 C1709 1.349 . S
C1708 C1710 1.327 . S
C1708 H1733 0.950 . S
C1709 C1708 1.349 . S
C1709 C1725 1.349 . S
C1710 C1708 1.327 . S
C1710 C1729 1.429 . S
C1710 H1734 0.950 . S
C1711 C1728 1.574 . S
C1711 C1730 1.368 . S
C1711 H1735 0.949 . S
H1712 C1716 0.949 . S
C1713 C1714 1.349 . S
C1713 C1715 1.327 . S
C1713 H1736 0.950 . S
C1714 C1713 1.349 . S
C1714 C1726 1.349 . S
C1715 C1713 1.327 . S
C1715 C1731 1.429 . S
C1715 H1737 0.950 . S
C1716 H1712 0.949 . S
C1716 C1724 1.574 . S
C1716 C1732 1.368 . S
H1717 C1725 0.950 . S
H1718 C1723 0.950 . S
H1719 C1724 0.949 . S
H1720 C1726 0.950 . S
H1721 C1727 0.950 . S
H1722 C1728 0.949 . S
C1723 H1718 0.950 . S
C1723 C1725 1.327 . S
C1723 C1729 1.429 . S
C1724 C1716 1.574 . S
C1724 H1719 0.949 . S
C1724 C1730 1.368 . S
C1725 C1709 1.349 . S
C1725 H1717 0.950 . S
C1725 C1723 1.327 . S
C1726 C1714 1.349 . S
C1726 H1720 0.950 . S
C1726 C1727 1.327 . S
C1727 H1721 0.950 . S
C1727 C1726 1.327 . S
C1727 C1731 1.429 . S
C1728 C1711 1.574 . S
C1728 H1722 0.949 . S
C1728 C1732 1.368 . S
C1729 C1710 1.429 . S
C1729 C1723 1.429 . S
C1729 C1730 1.523 . S
C1730 C1711 1.368 . S
C1730 C1724 1.368 . S
C1730 C1729 1.523 . S
C1731 C1715 1.429 . S
C1731 C1727 1.429 . S
C1731 C1732 1.523 . S
C1732 C1716 1.368 . S
C1732 C1728 1.368 . S
C1732 C1731 1.523 . S
H1733 C1708 0.950 . S
H1734 C1710 0.950 . S
H1735 C1711 0.949 . S
H1736 C1713 0.950 . S
H1737 C1715 0.950 . S
C1738 C1739 1.349 . S
C1738 C1740 1.327 . S
C1738 H1763 0.950 . S
C1739 C1738 1.349 . S
C1739 C1755 1.349 . S
C1740 C1738 1.327 . S
C1740 C1759 1.429 . S
C1740 H1764 0.950 . S
C1741 C1758 1.574 1_554 S
C1741 C1760 1.368 . S
C1741 H1765 0.949 . S
H1742 C1746 0.949 . S
C1743 C1744 1.349 . S
C1743 C1745 1.327 . S
C1743 H1766 0.950 . S
C1744 C1743 1.349 . S
C1744 C1756 1.349 . S
C1745 C1743 1.327 . S
C1745 C1761 1.429 . S
C1745 H1767 0.950 . S
C1746 H1742 0.949 . S
C1746 C1754 1.574 1_556 S
C1746 C1762 1.368 . S
H1747 C1755 0.950 . S
H1748 C1753 0.950 . S
H1749 C1754 0.949 . S
H1750 C1756 0.950 . S
H1751 C1757 0.950 . S
H1752 C1758 0.949 . S
C1753 H1748 0.950 . S
C1753 C1755 1.327 . S
C1753 C1759 1.429 . S
C1754 C1746 1.574 1_554 S
C1754 H1749 0.949 . S
C1754 C1760 1.368 . S
C1755 C1739 1.349 . S
C1755 H1747 0.950 . S
C1755 C1753 1.327 . S
C1756 C1744 1.349 . S
C1756 H1750 0.950 . S
C1756 C1757 1.327 . S
C1757 H1751 0.950 . S
C1757 C1756 1.327 . S
C1757 C1761 1.429 . S
C1758 C1741 1.574 1_556 S
C1758 H1752 0.949 . S
C1758 C1762 1.368 . S
C1759 C1740 1.429 . S
C1759 C1753 1.429 . S
C1759 C1760 1.523 . S
C1760 C1741 1.368 . S
C1760 C1754 1.368 . S
C1760 C1759 1.523 . S
C1761 C1745 1.429 . S
C1761 C1757 1.429 . S
C1761 C1762 1.523 . S
C1762 C1746 1.368 . S
C1762 C1758 1.368 . S
C1762 C1761 1.523 . S
H1763 C1738 0.950 . S
H1764 C1740 0.950 . S
H1765 C1741 0.949 . S
H1766 C1743 0.950 . S
H1767 C1745 0.950 . S
C1768 C1769 1.349 . S
C1768 C1770 1.327 . S
C1768 H1793 0.950 . S
C1769 C1768 1.349 . S
C1769 C1785 1.349 . S
C1770 C1768 1.327 . S
C1770 C1789 1.429 . S
C1770 H1794 0.950 . S
C1771 C1788 1.574 1_554 S
C1771 C1790 1.368 . S
C1771 H1795 0.949 . S
H1772 C1776 0.949 . S
C1773 C1774 1.349 . S
C1773 C1775 1.327 . S
C1773 H1796 0.950 . S
C1774 C1773 1.349 . S
C1774 C1786 1.349 . S
C1775 C1773 1.327 . S
C1775 C1791 1.429 . S
C1775 H1797 0.950 . S
C1776 H1772 0.949 . S
C1776 C1784 1.574 1_556 S
C1776 C1792 1.368 . S
H1777 C1785 0.950 . S
H1778 C1783 0.950 . S
H1779 C1784 0.949 . S
H1780 C1786 0.950 . S
H1781 C1787 0.950 . S
H1782 C1788 0.949 . S
C1783 H1778 0.950 . S
C1783 C1785 1.327 . S
C1783 C1789 1.429 . S
C1784 C1776 1.574 1_554 S
C1784 H1779 0.949 . S
C1784 C1790 1.368 . S
C1785 C1769 1.349 . S
C1785 H1777 0.950 . S
C1785 C1783 1.327 . S
C1786 C1774 1.349 . S
C1786 H1780 0.950 . S
C1786 C1787 1.327 . S
C1787 H1781 0.950 . S
C1787 C1786 1.327 . S
C1787 C1791 1.429 . S
C1788 C1771 1.574 1_556 S
C1788 H1782 0.949 . S
C1788 C1792 1.368 . S
C1789 C1770 1.429 . S
C1789 C1783 1.429 . S
C1789 C1790 1.523 . S
C1790 C1771 1.368 . S
C1790 C1784 1.368 . S
C1790 C1789 1.523 . S
C1791 C1775 1.429 . S
C1791 C1787 1.429 . S
C1791 C1792 1.523 . S
C1792 C1776 1.368 . S
C1792 C1788 1.368 . S
C1792 C1791 1.523 . S
H1793 C1768 0.950 . S
H1794 C1770 0.950 . S
H1795 C1771 0.949 . S
H1796 C1773 0.950 . S
H1797 C1775 0.950 . S
C1798 C1799 1.349 . S
C1798 C1800 1.327 . S
C1798 H1823 0.950 . S
C1799 C1798 1.349 . S
C1799 C1815 1.349 . S
C1800 C1798 1.327 . S
C1800 C1819 1.429 . S
C1800 H1824 0.950 . S
C1801 C1818 1.574 . S
C1801 C1820 1.368 . S
C1801 H1825 0.949 . S
H1802 C1806 0.949 . S
C1803 C1804 1.349 . S
C1803 C1805 1.327 . S
C1803 H1826 0.950 . S
C1804 C1803 1.349 . S
C1804 C1816 1.349 . S
C1805 C1803 1.327 . S
C1805 C1821 1.429 . S
C1805 H1827 0.950 . S
C1806 H1802 0.949 . S
C1806 C1814 1.574 . S
C1806 C1822 1.368 . S
H1807 C1815 0.950 . S
H1808 C1813 0.950 . S
H1809 C1814 0.949 . S
H1810 C1816 0.950 . S
H1811 C1817 0.950 . S
H1812 C1818 0.949 . S
C1813 H1808 0.950 . S
C1813 C1815 1.327 . S
C1813 C1819 1.429 . S
C1814 C1806 1.574 . S
C1814 H1809 0.949 . S
C1814 C1820 1.368 . S
C1815 C1799 1.349 . S
C1815 H1807 0.950 . S
C1815 C1813 1.327 . S
C1816 C1804 1.349 . S
C1816 H1810 0.950 . S
C1816 C1817 1.327 . S
C1817 H1811 0.950 . S
C1817 C1816 1.327 . S
C1817 C1821 1.429 . S
C1818 C1801 1.574 . S
C1818 H1812 0.949 . S
C1818 C1822 1.368 . S
C1819 C1800 1.429 . S
C1819 C1813 1.429 . S
C1819 C1820 1.523 . S
C1820 C1801 1.368 . S
C1820 C1814 1.368 . S
C1820 C1819 1.523 . S
C1821 C1805 1.429 . S
C1821 C1817 1.429 . S
C1821 C1822 1.523 . S
C1822 C1806 1.368 . S
C1822 C1818 1.368 . S
C1822 C1821 1.523 . S
H1823 C1798 0.950 . S
H1824 C1800 0.950 . S
H1825 C1801 0.949 . S
H1826 C1803 0.950 . S
H1827 C1805 0.950 . S
C1828 C1829 1.349 . S
C1828 C1830 1.327 . S
C1828 H1853 0.950 . S
C1829 C1828 1.349 . S
C1829 C1845 1.349 . S
C1830 C1828 1.327 . S
C1830 C1849 1.429 . S
C1830 H1854 0.950 . S
C1831 C1848 1.574 . S
C1831 C1850 1.368 . S
C1831 H1855 0.949 . S
H1832 C1836 0.949 . S
C1833 C1834 1.349 . S
C1833 C1835 1.327 . S
C1833 H1856 0.950 . S
C1834 C1833 1.349 . S
C1834 C1846 1.349 . S
C1835 C1833 1.327 . S
C1835 C1851 1.429 . S
C1835 H1857 0.950 . S
C1836 H1832 0.949 . S
C1836 C1844 1.574 . S
C1836 C1852 1.368 . S
H1837 C1845 0.950 . S
H1838 C1843 0.950 . S
H1839 C1844 0.949 . S
H1840 C1846 0.950 . S
H1841 C1847 0.950 . S
H1842 C1848 0.949 . S
C1843 H1838 0.950 . S
C1843 C1845 1.327 . S
C1843 C1849 1.429 . S
C1844 C1836 1.574 . S
C1844 H1839 0.949 . S
C1844 C1850 1.368 . S
C1845 C1829 1.349 . S
C1845 H1837 0.950 . S
C1845 C1843 1.327 . S
C1846 C1834 1.349 . S
C1846 H1840 0.950 . S
C1846 C1847 1.327 . S
C1847 H1841 0.950 . S
C1847 C1846 1.327 . S
C1847 C1851 1.429 . S
C1848 C1831 1.574 . S
C1848 H1842 0.949 . S
C1848 C1852 1.368 . S
C1849 C1830 1.429 . S
C1849 C1843 1.429 . S
C1849 C1850 1.523 . S
C1850 C1831 1.368 . S
C1850 C1844 1.368 . S
C1850 C1849 1.523 . S
C1851 C1835 1.429 . S
C1851 C1847 1.429 . S
C1851 C1852 1.523 . S
C1852 C1836 1.368 . S
C1852 C1848 1.368 . S
C1852 C1851 1.523 . S
H1853 C1828 0.950 . S
H1854 C1830 0.950 . S
H1855 C1831 0.949 . S
H1856 C1833 0.950 . S
H1857 C1835 0.950 . S
C1858 C1859 1.349 . S
C1858 C1860 1.327 . S
C1858 H1883 0.950 . S
C1859 C1858 1.349 . S
C1859 C1875 1.349 . S
C1860 C1858 1.327 . S
C1860 C1879 1.429 . S
C1860 H1884 0.950 . S
C1861 C1878 1.574 . S
C1861 C1880 1.368 . S
C1861 H1885 0.949 . S
H1862 C1866 0.949 . S
C1863 C1864 1.349 . S
C1863 C1865 1.327 . S
C1863 H1886 0.950 . S
C1864 C1863 1.349 . S
C1864 C1876 1.349 . S
C1865 C1863 1.327 . S
C1865 C1881 1.429 . S
C1865 H1887 0.950 . S
C1866 H1862 0.949 . S
C1866 C1874 1.574 . S
C1866 C1882 1.368 . S
H1867 C1875 0.950 . S
H1868 C1873 0.950 . S
H1869 C1874 0.949 . S
H1870 C1876 0.950 . S
H1871 C1877 0.950 . S
H1872 C1878 0.949 . S
C1873 H1868 0.950 . S
C1873 C1875 1.327 . S
C1873 C1879 1.429 . S
C1874 C1866 1.574 . S
C1874 H1869 0.949 . S
C1874 C1880 1.368 . S
C1875 C1859 1.349 . S
C1875 H1867 0.950 . S
C1875 C1873 1.327 . S
C1876 C1864 1.349 . S
C1876 H1870 0.950 . S
C1876 C1877 1.327 . S
C1877 H1871 0.950 . S
C1877 C1876 1.327 . S
C1877 C1881 1.429 . S
C1878 C1861 1.574 . S
C1878 H1872 0.949 . S
C1878 C1882 1.368 . S
C1879 C1860 1.429 . S
C1879 C1873 1.429 . S
C1879 C1880 1.523 . S
C1880 C1861 1.368 . S
C1880 C1874 1.368 . S
C1880 C1879 1.523 . S
C1881 C1865 1.429 . S
C1881 C1877 1.429 . S
C1881 C1882 1.523 . S
C1882 C1866 1.368 . S
C1882 C1878 1.368 . S
C1882 C1881 1.523 . S
H1883 C1858 0.950 . S
H1884 C1860 0.950 . S
H1885 C1861 0.949 . S
H1886 C1863 0.950 . S
H1887 C1865 0.950 . S
C1888 C1889 1.349 . S
C1888 C1890 1.327 . S
C1888 H1913 0.950 . S
C1889 C1888 1.349 . S
C1889 C1905 1.349 . S
C1890 C1888 1.327 . S
C1890 C1909 1.429 . S
C1890 H1914 0.950 . S
C1891 C1908 1.574 1_455 S
C1891 C1910 1.368 1_565 S
C1891 H1915 0.949 . S
H1892 C1896 0.949 . S
C1893 C1894 1.349 . S
C1893 C1895 1.327 . S
C1893 H1916 0.950 . S
C1894 C1893 1.349 . S
C1894 C1906 1.349 . S
C1895 C1893 1.327 . S
C1895 C1911 1.429 . S
C1895 H1917 0.950 . S
C1896 H1892 0.949 . S
C1896 C1904 1.574 1_655 S
C1896 C1912 1.368 1_545 S
H1897 C1905 0.950 . S
H1898 C1903 0.950 . S
H1899 C1904 0.949 . S
H1900 C1906 0.950 . S
H1901 C1907 0.950 . S
H1902 C1908 0.949 . S
C1903 H1898 0.950 . S
C1903 C1905 1.327 . S
C1903 C1909 1.429 . S
C1904 C1896 1.574 1_455 S
C1904 H1899 0.949 . S
C1904 C1910 1.368 . S
C1905 C1889 1.349 . S
C1905 H1897 0.950 . S
C1905 C1903 1.327 . S
C1906 C1894 1.349 . S
C1906 H1900 0.950 . S
C1906 C1907 1.327 . S
C1907 H1901 0.950 . S
C1907 C1906 1.327 . S
C1907 C1911 1.429 . S
C1908 C1891 1.574 1_655 S
C1908 H1902 0.949 . S
C1908 C1912 1.368 . S
C1909 C1890 1.429 . S
C1909 C1903 1.429 . S
C1909 C1910 1.523 . S
C1910 C1891 1.368 1_545 S
C1910 C1904 1.368 . S
C1910 C1909 1.523 . S
C1911 C1895 1.429 . S
C1911 C1907 1.429 . S
C1911 C1912 1.523 . S
C1912 C1896 1.368 1_565 S
C1912 C1908 1.368 . S
C1912 C1911 1.523 . S
H1913 C1888 0.950 . S
H1914 C1890 0.950 . S
H1915 C1891 0.949 . S
H1916 C1893 0.950 . S
H1917 C1895 0.950 . S
C1918 C1919 1.349 . S
C1918 C1920 1.327 . S
C1918 H1943 0.950 . S
C1919 C1918 1.349 . S
C1919 C1935 1.349 . S
C1920 C1918 1.327 . S
C1920 C1939 1.429 . S
C1920 H1944 0.950 . S
C1921 C1938 1.574 . S
C1921 C1940 1.368 1_655 S
C1921 H1945 0.949 . S
H1922 C1926 0.949 . S
C1923 C1924 1.349 . S
C1923 C1925 1.327 . S
C1923 H1946 0.950 . S
C1924 C1923 1.349 . S
C1924 C1936 1.349 . S
C1925 C1923 1.327 . S
C1925 C1941 1.429 . S
C1925 H1947 0.950 . S
C1926 H1922 0.949 . S
C1926 C1934 1.574 . S
C1926 C1942 1.368 1_455 S
H1927 C1935 0.950 . S
H1928 C1933 0.950 . S
H1929 C1934 0.949 . S
H1930 C1936 0.950 . S
H1931 C1937 0.950 . S
H1932 C1938 0.949 . S
C1933 H1928 0.950 . S
C1933 C1935 1.327 . S
C1933 C1939 1.429 . S
C1934 C1926 1.574 . S
C1934 H1929 0.949 . S
C1934 C1940 1.368 . S
C1935 C1919 1.349 . S
C1935 H1927 0.950 . S
C1935 C1933 1.327 . S
C1936 C1924 1.349 . S
C1936 H1930 0.950 . S
C1936 C1937 1.327 . S
C1937 H1931 0.950 . S
C1937 C1936 1.327 . S
C1937 C1941 1.429 . S
C1938 C1921 1.574 . S
C1938 H1932 0.949 . S
C1938 C1942 1.368 . S
C1939 C1920 1.429 . S
C1939 C1933 1.429 . S
C1939 C1940 1.523 . S
C1940 C1921 1.368 1_455 S
C1940 C1934 1.368 . S
C1940 C1939 1.523 . S
C1941 C1925 1.429 . S
C1941 C1937 1.429 . S
C1941 C1942 1.523 . S
C1942 C1926 1.368 1_655 S
C1942 C1938 1.368 . S
C1942 C1941 1.523 . S
H1943 C1918 0.950 . S
H1944 C1920 0.950 . S
H1945 C1921 0.949 . S
H1946 C1923 0.950 . S
H1947 C1925 0.950 . S
C1948 C1949 1.349 . S
C1948 C1950 1.327 . S
C1948 H1973 0.950 . S
C1949 C1948 1.349 . S
C1949 C1965 1.349 . S
C1950 C1948 1.327 . S
C1950 C1969 1.429 . S
C1950 H1974 0.950 . S
C1951 C1968 1.574 . S
C1951 C1970 1.368 . S
C1951 H1975 0.949 . S
H1952 C1956 0.949 . S
C1953 C1954 1.349 . S
C1953 C1955 1.327 . S
C1953 H1976 0.950 . S
C1954 C1953 1.349 . S
C1954 C1966 1.349 . S
C1955 C1953 1.327 . S
C1955 C1971 1.429 . S
C1955 H1977 0.950 . S
C1956 H1952 0.949 . S
C1956 C1964 1.574 . S
C1956 C1972 1.368 . S
H1957 C1965 0.950 . S
H1958 C1963 0.950 . S
H1959 C1964 0.949 . S
H1960 C1966 0.950 . S
H1961 C1967 0.950 . S
H1962 C1968 0.949 . S
C1963 H1958 0.950 . S
C1963 C1965 1.327 . S
C1963 C1969 1.429 . S
C1964 C1956 1.574 . S
C1964 H1959 0.949 . S
C1964 C1970 1.368 . S
C1965 C1949 1.349 . S
C1965 H1957 0.950 . S
C1965 C1963 1.327 . S
C1966 C1954 1.349 . S
C1966 H1960 0.950 . S
C1966 C1967 1.327 . S
C1967 H1961 0.950 . S
C1967 C1966 1.327 . S
C1967 C1971 1.429 . S
C1968 C1951 1.574 . S
C1968 H1962 0.949 . S
C1968 C1972 1.368 . S
C1969 C1950 1.429 . S
C1969 C1963 1.429 . S
C1969 C1970 1.523 . S
C1970 C1951 1.368 . S
C1970 C1964 1.368 . S
C1970 C1969 1.523 . S
C1971 C1955 1.429 . S
C1971 C1967 1.429 . S
C1971 C1972 1.523 . S
C1972 C1956 1.368 . S
C1972 C1968 1.368 . S
C1972 C1971 1.523 . S
H1973 C1948 0.950 . S
H1974 C1950 0.950 . S
H1975 C1951 0.949 . S
H1976 C1953 0.950 . S
H1977 C1955 0.950 . S
C1978 C1979 1.349 . S
C1978 C1980 1.327 . S
C1978 H2003 0.950 . S
C1979 C1978 1.349 . S
C1979 C1995 1.349 . S
C1980 C1978 1.327 . S
C1980 C1999 1.429 . S
C1980 H2004 0.950 . S
C1981 C1998 1.574 1_545 S
C1981 C2000 1.368 . S
C1981 H2005 0.949 . S
H1982 C1986 0.949 . S
C1983 C1984 1.349 . S
C1983 C1985 1.327 . S
C1983 H2006 0.950 . S
C1984 C1983 1.349 . S
C1984 C1996 1.349 . S
C1985 C1983 1.327 . S
C1985 C2001 1.429 . S
C1985 H2007 0.950 . S
C1986 H1982 0.949 . S
C1986 C1994 1.574 1_565 S
C1986 C2002 1.368 . S
H1987 C1995 0.950 . S
H1988 C1993 0.950 . S
H1989 C1994 0.949 . S
H1990 C1996 0.950 . S
H1991 C1997 0.950 . S
H1992 C1998 0.949 . S
C1993 H1988 0.950 . S
C1993 C1995 1.327 . S
C1993 C1999 1.429 . S
C1994 C1986 1.574 1_545 S
C1994 H1989 0.949 . S
C1994 C2000 1.368 . S
C1995 C1979 1.349 . S
C1995 H1987 0.950 . S
C1995 C1993 1.327 . S
C1996 C1984 1.349 . S
C1996 H1990 0.950 . S
C1996 C1997 1.327 . S
C1997 H1991 0.950 . S
C1997 C1996 1.327 . S
C1997 C2001 1.429 . S
C1998 C1981 1.574 1_565 S
C1998 H1992 0.949 . S
C1998 C2002 1.368 . S
C1999 C1980 1.429 . S
C1999 C1993 1.429 . S
C1999 C2000 1.523 . S
C2000 C1981 1.368 . S
C2000 C1994 1.368 . S
C2000 C1999 1.523 . S
C2001 C1985 1.429 . S
C2001 C1997 1.429 . S
C2001 C2002 1.523 . S
C2002 C1986 1.368 . S
C2002 C1998 1.368 . S
C2002 C2001 1.523 . S
H2003 C1978 0.950 . S
H2004 C1980 0.950 . S
H2005 C1981 0.949 . S
H2006 C1983 0.950 . S
H2007 C1985 0.950 . S
C2008 C2009 1.349 . S
C2008 C2010 1.327 . S
C2008 H2033 0.950 . S
C2009 C2008 1.349 . S
C2009 C2025 1.349 . S
C2010 C2008 1.327 . S
C2010 C2029 1.429 . S
C2010 H2034 0.950 . S
C2011 C2028 1.574 1_455 S
C2011 C2030 1.368 . S
C2011 H2035 0.949 . S
H2012 C2016 0.949 . S
C2013 C2014 1.349 . S
C2013 C2015 1.327 . S
C2013 H2036 0.950 . S
C2014 C2013 1.349 . S
C2014 C2026 1.349 . S
C2015 C2013 1.327 . S
C2015 C2031 1.429 . S
C2015 H2037 0.950 . S
C2016 H2012 0.949 . S
C2016 C2024 1.574 1_655 S
C2016 C2032 1.368 . S
H2017 C2025 0.950 . S
H2018 C2023 0.950 . S
H2019 C2024 0.949 . S
H2020 C2026 0.950 . S
H2021 C2027 0.950 . S
H2022 C2028 0.949 . S
C2023 H2018 0.950 . S
C2023 C2025 1.327 . S
C2023 C2029 1.429 . S
C2024 C2016 1.574 1_455 S
C2024 H2019 0.949 . S
C2024 C2030 1.368 . S
C2025 C2009 1.349 . S
C2025 H2017 0.950 . S
C2025 C2023 1.327 . S
C2026 C2014 1.349 . S
C2026 H2020 0.950 . S
C2026 C2027 1.327 . S
C2027 H2021 0.950 . S
C2027 C2026 1.327 . S
C2027 C2031 1.429 . S
C2028 C2011 1.574 1_655 S
C2028 H2022 0.949 . S
C2028 C2032 1.368 . S
C2029 C2010 1.429 . S
C2029 C2023 1.429 . S
C2029 C2030 1.523 . S
C2030 C2011 1.368 . S
C2030 C2024 1.368 . S
C2030 C2029 1.523 . S
C2031 C2015 1.429 . S
C2031 C2027 1.429 . S
C2031 C2032 1.523 . S
C2032 C2016 1.368 . S
C2032 C2028 1.368 . S
C2032 C2031 1.523 . S
H2033 C2008 0.950 . S
H2034 C2010 0.950 . S
H2035 C2011 0.949 . S
H2036 C2013 0.950 . S
H2037 C2015 0.950 . S
C2038 C2039 1.349 . S
C2038 C2040 1.327 . S
C2038 H2063 0.950 . S
C2039 C2038 1.349 . S
C2039 C2055 1.349 . S
C2040 C2038 1.327 . S
C2040 C2059 1.429 . S
C2040 H2064 0.950 . S
C2041 C2058 1.574 . S
C2041 C2060 1.368 . S
C2041 H2065 0.949 . S
H2042 C2046 0.949 . S
C2043 C2044 1.349 . S
C2043 C2045 1.327 . S
C2043 H2066 0.950 . S
C2044 C2043 1.349 . S
C2044 C2056 1.349 . S
C2045 C2043 1.327 . S
C2045 C2061 1.429 . S
C2045 H2067 0.950 . S
C2046 H2042 0.949 . S
C2046 C2054 1.574 . S
C2046 C2062 1.368 . S
H2047 C2055 0.950 . S
H2048 C2053 0.950 . S
H2049 C2054 0.949 . S
H2050 C2056 0.950 . S
H2051 C2057 0.950 . S
H2052 C2058 0.949 . S
C2053 H2048 0.950 . S
C2053 C2055 1.327 . S
C2053 C2059 1.429 . S
C2054 C2046 1.574 . S
C2054 H2049 0.949 . S
C2054 C2060 1.368 . S
C2055 C2039 1.349 . S
C2055 H2047 0.950 . S
C2055 C2053 1.327 . S
C2056 C2044 1.349 . S
C2056 H2050 0.950 . S
C2056 C2057 1.327 . S
C2057 H2051 0.950 . S
C2057 C2056 1.327 . S
C2057 C2061 1.429 . S
C2058 C2041 1.574 . S
C2058 H2052 0.949 . S
C2058 C2062 1.368 . S
C2059 C2040 1.429 . S
C2059 C2053 1.429 . S
C2059 C2060 1.523 . S
C2060 C2041 1.368 . S
C2060 C2054 1.368 . S
C2060 C2059 1.523 . S
C2061 C2045 1.429 . S
C2061 C2057 1.429 . S
C2061 C2062 1.523 . S
C2062 C2046 1.368 . S
C2062 C2058 1.368 . S
C2062 C2061 1.523 . S
H2063 C2038 0.950 . S
H2064 C2040 0.950 . S
H2065 C2041 0.949 . S
H2066 C2043 0.950 . S
H2067 C2045 0.950 . S
C2068 C2069 1.349 . S
C2068 C2070 1.327 . S
C2068 H2093 0.950 . S
C2069 C2068 1.349 . S
C2069 C2085 1.349 . S
C2070 C2068 1.327 . S
C2070 C2089 1.429 . S
C2070 H2094 0.950 . S
C2071 C2088 1.574 . S
C2071 C2090 1.368 . S
C2071 H2095 0.949 . S
H2072 C2076 0.949 . S
C2073 C2074 1.349 . S
C2073 C2075 1.327 . S
C2073 H2096 0.950 . S
C2074 C2073 1.349 . S
C2074 C2086 1.349 . S
C2075 C2073 1.327 . S
C2075 C2091 1.429 . S
C2075 H2097 0.950 . S
C2076 H2072 0.949 . S
C2076 C2084 1.574 . S
C2076 C2092 1.368 . S
H2077 C2085 0.950 . S
H2078 C2083 0.950 . S
H2079 C2084 0.949 . S
H2080 C2086 0.950 . S
H2081 C2087 0.950 . S
H2082 C2088 0.949 . S
C2083 H2078 0.950 . S
C2083 C2085 1.327 . S
C2083 C2089 1.429 . S
C2084 C2076 1.574 . S
C2084 H2079 0.949 . S
C2084 C2090 1.368 1_545 S
C2085 C2069 1.349 . S
C2085 H2077 0.950 . S
C2085 C2083 1.327 . S
C2086 C2074 1.349 . S
C2086 H2080 0.950 . S
C2086 C2087 1.327 . S
C2087 H2081 0.950 . S
C2087 C2086 1.327 . S
C2087 C2091 1.429 . S
C2088 C2071 1.574 . S
C2088 H2082 0.949 . S
C2088 C2092 1.368 1_565 S
C2089 C2070 1.429 . S
C2089 C2083 1.429 . S
C2089 C2090 1.523 . S
C2090 C2071 1.368 . S
C2090 C2084 1.368 1_565 S
C2090 C2089 1.523 . S
C2091 C2075 1.429 . S
C2091 C2087 1.429 . S
C2091 C2092 1.523 . S
C2092 C2076 1.368 . S
C2092 C2088 1.368 1_545 S
C2092 C2091 1.523 . S
H2093 C2068 0.950 . S
H2094 C2070 0.950 . S
H2095 C2071 0.949 . S
H2096 C2073 0.950 . S
H2097 C2075 0.950 . S
C2098 C2099 1.349 . S
C2098 C2100 1.327 . S
C2098 H2123 0.950 . S
C2099 C2098 1.349 . S
C2099 C2115 1.349 . S
C2100 C2098 1.327 . S
C2100 C2119 1.429 . S
C2100 H2124 0.950 . S
C2101 C2118 1.574 1_545 S
C2101 C2120 1.368 . S
C2101 H2125 0.949 . S
H2102 C2106 0.949 . S
C2103 C2104 1.349 . S
C2103 C2105 1.327 . S
C2103 H2126 0.950 . S
C2104 C2103 1.349 . S
C2104 C2116 1.349 . S
C2105 C2103 1.327 . S
C2105 C2121 1.429 . S
C2105 H2127 0.950 . S
C2106 H2102 0.949 . S
C2106 C2114 1.574 1_565 S
C2106 C2122 1.368 . S
H2107 C2115 0.950 . S
H2108 C2113 0.950 . S
H2109 C2114 0.949 . S
H2110 C2116 0.950 . S
H2111 C2117 0.950 . S
H2112 C2118 0.949 . S
C2113 H2108 0.950 . S
C2113 C2115 1.327 . S
C2113 C2119 1.429 . S
C2114 C2106 1.574 1_545 S
C2114 H2109 0.949 . S
C2114 C2120 1.368 1_655 S
C2115 C2099 1.349 . S
C2115 H2107 0.950 . S
C2115 C2113 1.327 . S
C2116 C2104 1.349 . S
C2116 H2110 0.950 . S
C2116 C2117 1.327 . S
C2117 H2111 0.950 . S
C2117 C2116 1.327 . S
C2117 C2121 1.429 . S
C2118 C2101 1.574 1_565 S
C2118 H2112 0.949 . S
C2118 C2122 1.368 1_455 S
C2119 C2100 1.429 . S
C2119 C2113 1.429 . S
C2119 C2120 1.523 . S
C2120 C2101 1.368 . S
C2120 C2114 1.368 1_455 S
C2120 C2119 1.523 . S
C2121 C2105 1.429 . S
C2121 C2117 1.429 . S
C2121 C2122 1.523 . S
C2122 C2106 1.368 . S
C2122 C2118 1.368 1_655 S
C2122 C2121 1.523 . S
H2123 C2098 0.950 . S
H2124 C2100 0.950 . S
H2125 C2101 0.949 . S
H2126 C2103 0.950 . S
H2127 C2105 0.950 . S
C2128 C2129 1.349 . S
C2128 C2130 1.327 . S
C2128 H2153 0.950 . S
C2129 C2128 1.349 . S
C2129 C2145 1.349 . S
C2130 C2128 1.327 . S
C2130 C2149 1.429 . S
C2130 H2154 0.950 1_565 S
C2131 C2148 1.574 . S
C2131 C2150 1.368 . S
C2131 H2155 0.949 . S
H2132 C2136 0.949 . S
C2133 C2134 1.349 . S
C2133 C2135 1.327 . S
C2133 H2156 0.950 . S
C2134 C2133 1.349 . S
C2134 C2146 1.349 . S
C2135 C2133 1.327 . S
C2135 C2151 1.429 . S
C2135 H2157 0.950 1_545 S
C2136 H2132 0.949 . S
C2136 C2144 1.574 . S
C2136 C2152 1.368 . S
H2137 C2145 0.950 . S
H2138 C2143 0.950 . S
H2139 C2144 0.949 . S
H2140 C2146 0.950 . S
H2141 C2147 0.950 . S
H2142 C2148 0.949 . S
C2143 H2138 0.950 . S
C2143 C2145 1.327 . S
C2143 C2149 1.429 . S
C2144 C2136 1.574 . S
C2144 H2139 0.949 . S
C2144 C2150 1.368 1_545 S
C2145 C2129 1.349 . S
C2145 H2137 0.950 . S
C2145 C2143 1.327 . S
C2146 C2134 1.349 . S
C2146 H2140 0.950 . S
C2146 C2147 1.327 . S
C2147 H2141 0.950 . S
C2147 C2146 1.327 . S
C2147 C2151 1.429 . S
C2148 C2131 1.574 . S
C2148 H2142 0.949 . S
C2148 C2152 1.368 1_565 S
C2149 C2130 1.429 . S
C2149 C2143 1.429 . S
C2149 C2150 1.523 . S
C2150 C2131 1.368 . S
C2150 C2144 1.368 1_565 S
C2150 C2149 1.523 . S
C2151 C2135 1.429 . S
C2151 C2147 1.429 . S
C2151 C2152 1.523 . S
C2152 C2136 1.368 . S
C2152 C2148 1.368 1_545 S
C2152 C2151 1.523 . S
H2153 C2128 0.950 . S
H2154 C2130 0.950 1_545 S
H2155 C2131 0.949 . S
H2156 C2133 0.950 . S
H2157 C2135 0.950 1_565 S
C2158 C2159 1.349 . S
C2158 C2160 1.327 . S
C2158 H2183 0.950 . S
C2159 C2158 1.349 . S
C2159 C2175 1.349 . S
C2160 C2158 1.327 . S
C2160 C2179 1.429 . S
C2160 H2184 0.950 . S
C2161 C2178 1.574 1_565 S
C2161 C2180 1.368 1_455 S
C2161 H2185 0.949 . S
H2162 C2166 0.949 . S
C2163 C2164 1.349 . S
C2163 C2165 1.327 . S
C2163 H2186 0.950 . S
C2164 C2163 1.349 . S
C2164 C2176 1.349 . S
C2165 C2163 1.327 . S
C2165 C2181 1.429 . S
C2165 H2187 0.950 . S
C2166 H2162 0.949 . S
C2166 C2174 1.574 1_545 S
C2166 C2182 1.368 1_655 S
H2167 C2175 0.950 . S
H2168 C2173 0.950 1_455 S
H2169 C2174 0.949 . S
H2170 C2176 0.950 . S
H2171 C2177 0.950 1_655 S
H2172 C2178 0.949 . S
C2173 H2168 0.950 1_655 S
C2173 C2175 1.327 . S
C2173 C2179 1.429 . S
C2174 C2166 1.574 1_565 S
C2174 H2169 0.949 . S
C2174 C2180 1.368 . S
C2175 C2159 1.349 . S
C2175 H2167 0.950 . S
C2175 C2173 1.327 . S
C2176 C2164 1.349 . S
C2176 H2170 0.950 . S
C2176 C2177 1.327 . S
C2177 H2171 0.950 1_455 S
C2177 C2176 1.327 . S
C2177 C2181 1.429 . S
C2178 C2161 1.574 1_545 S
C2178 H2172 0.949 . S
C2178 C2182 1.368 . S
C2179 C2160 1.429 . S
C2179 C2173 1.429 . S
C2179 C2180 1.523 . S
C2180 C2161 1.368 1_655 S
C2180 C2174 1.368 . S
C2180 C2179 1.523 . S
C2181 C2165 1.429 . S
C2181 C2177 1.429 . S
C2181 C2182 1.523 . S
C2182 C2166 1.368 1_455 S
C2182 C2178 1.368 . S
C2182 C2181 1.523 . S
H2183 C2158 0.950 . S
H2184 C2160 0.950 . S
H2185 C2161 0.949 . S
H2186 C2163 0.950 . S
H2187 C2165 0.950 . S
C2188 C2189 1.349 . S
C2188 C2190 1.327 . S
C2188 H2213 0.950 . S
C2189 C2188 1.349 . S
C2189 C2205 1.349 . S
C2190 C2188 1.327 . S
C2190 C2209 1.429 . S
C2190 H2214 0.950 . S
C2191 C2208 1.574 1_455 S
C2191 C2210 1.368 . S
C2191 H2215 0.949 . S
H2192 C2196 0.949 . S
C2193 C2194 1.349 . S
C2193 C2195 1.327 . S
C2193 H2216 0.950 . S
C2194 C2193 1.349 . S
C2194 C2206 1.349 . S
C2195 C2193 1.327 . S
C2195 C2211 1.429 . S
C2195 H2217 0.950 . S
C2196 H2192 0.949 . S
C2196 C2204 1.574 1_655 S
C2196 C2212 1.368 . S
H2197 C2205 0.950 . S
H2198 C2203 0.950 . S
H2199 C2204 0.949 . S
H2200 C2206 0.950 . S
H2201 C2207 0.950 . S
H2202 C2208 0.949 . S
C2203 H2198 0.950 . S
C2203 C2205 1.327 . S
C2203 C2209 1.429 . S
C2204 C2196 1.574 1_455 S
C2204 H2199 0.949 . S
C2204 C2210 1.368 . S
C2205 C2189 1.349 . S
C2205 H2197 0.950 . S
C2205 C2203 1.327 . S
C2206 C2194 1.349 . S
C2206 H2200 0.950 . S
C2206 C2207 1.327 . S
C2207 H2201 0.950 . S
C2207 C2206 1.327 . S
C2207 C2211 1.429 . S
C2208 C2191 1.574 1_655 S
C2208 H2202 0.949 . S
C2208 C2212 1.368 . S
C2209 C2190 1.429 . S
C2209 C2203 1.429 . S
C2209 C2210 1.523 . S
C2210 C2191 1.368 . S
C2210 C2204 1.368 . S
C2210 C2209 1.523 . S
C2211 C2195 1.429 . S
C2211 C2207 1.429 . S
C2211 C2212 1.523 . S
C2212 C2196 1.368 . S
C2212 C2208 1.368 . S
C2212 C2211 1.523 . S
H2213 C2188 0.950 . S
H2214 C2190 0.950 . S
H2215 C2191 0.949 . S
H2216 C2193 0.950 . S
H2217 C2195 0.950 . S
C2218 C2219 1.349 . S
C2218 C2220 1.327 . S
C2218 H2243 0.950 . S
C2219 C2218 1.349 . S
C2219 C2235 1.349 . S
C2220 C2218 1.327 . S
C2220 C2239 1.429 . S
C2220 H2244 0.950 . S
C2221 C2238 1.574 . S
C2221 C2240 1.368 . S
C2221 H2245 0.949 . S
H2222 C2226 0.949 . S
C2223 C2224 1.349 . S
C2223 C2225 1.327 . S
C2223 H2246 0.950 . S
C2224 C2223 1.349 . S
C2224 C2236 1.349 . S
C2225 C2223 1.327 . S
C2225 C2241 1.429 . S
C2225 H2247 0.950 . S
C2226 H2222 0.949 . S
C2226 C2234 1.574 . S
C2226 C2242 1.368 . S
H2227 C2235 0.950 . S
H2228 C2233 0.950 . S
H2229 C2234 0.949 . S
H2230 C2236 0.950 . S
H2231 C2237 0.950 . S
H2232 C2238 0.949 . S
C2233 H2228 0.950 . S
C2233 C2235 1.327 . S
C2233 C2239 1.429 . S
C2234 C2226 1.574 . S
C2234 H2229 0.949 . S
C2234 C2240 1.368 . S
C2235 C2219 1.349 . S
C2235 H2227 0.950 . S
C2235 C2233 1.327 . S
C2236 C2224 1.349 . S
C2236 H2230 0.950 . S
C2236 C2237 1.327 . S
C2237 H2231 0.950 . S
C2237 C2236 1.327 . S
C2237 C2241 1.429 . S
C2238 C2221 1.574 . S
C2238 H2232 0.949 . S
C2238 C2242 1.368 . S
C2239 C2220 1.429 . S
C2239 C2233 1.429 . S
C2239 C2240 1.523 . S
C2240 C2221 1.368 . S
C2240 C2234 1.368 . S
C2240 C2239 1.523 . S
C2241 C2225 1.429 . S
C2241 C2237 1.429 . S
C2241 C2242 1.523 . S
C2242 C2226 1.368 . S
C2242 C2238 1.368 . S
C2242 C2241 1.523 . S
H2243 C2218 0.950 . S
H2244 C2220 0.950 . S
H2245 C2221 0.949 . S
H2246 C2223 0.950 . S
H2247 C2225 0.950 . S
C2248 C2249 1.349 . S
C2248 C2250 1.327 . S
C2248 H2273 0.950 . S
C2249 C2248 1.349 . S
C2249 C2265 1.349 . S
C2250 C2248 1.327 . S
C2250 C2269 1.429 . S
C2250 H2274 0.950 . S
C2251 C2268 1.574 . S
C2251 C2270 1.368 . S
C2251 H2275 0.949 . S
H2252 C2256 0.949 . S
C2253 C2254 1.349 . S
C2253 C2255 1.327 . S
C2253 H2276 0.950 . S
C2254 C2253 1.349 . S
C2254 C2266 1.349 . S
C2255 C2253 1.327 . S
C2255 C2271 1.429 . S
C2255 H2277 0.950 . S
C2256 H2252 0.949 . S
C2256 C2264 1.574 . S
C2256 C2272 1.368 . S
H2257 C2265 0.950 . S
H2258 C2263 0.950 . S
H2259 C2264 0.949 . S
H2260 C2266 0.950 . S
H2261 C2267 0.950 . S
H2262 C2268 0.949 . S
C2263 H2258 0.950 . S
C2263 C2265 1.327 . S
C2263 C2269 1.429 . S
C2264 C2256 1.574 . S
C2264 H2259 0.949 . S
C2264 C2270 1.368 . S
C2265 C2249 1.349 . S
C2265 H2257 0.950 . S
C2265 C2263 1.327 . S
C2266 C2254 1.349 . S
C2266 H2260 0.950 . S
C2266 C2267 1.327 . S
C2267 H2261 0.950 . S
C2267 C2266 1.327 . S
C2267 C2271 1.429 . S
C2268 C2251 1.574 . S
C2268 H2262 0.949 . S
C2268 C2272 1.368 . S
C2269 C2250 1.429 . S
C2269 C2263 1.429 . S
C2269 C2270 1.523 . S
C2270 C2251 1.368 . S
C2270 C2264 1.368 . S
C2270 C2269 1.523 . S
C2271 C2255 1.429 . S
C2271 C2267 1.429 . S
C2271 C2272 1.523 . S
C2272 C2256 1.368 . S
C2272 C2268 1.368 . S
C2272 C2271 1.523 . S
H2273 C2248 0.950 . S
H2274 C2250 0.950 . S
H2275 C2251 0.949 . S
H2276 C2253 0.950 . S
H2277 C2255 0.950 . S
C2278 C2279 1.349 . S
C2278 C2280 1.327 . S
C2278 H2303 0.950 . S
C2279 C2278 1.349 . S
C2279 C2295 1.349 . S
C2280 C2278 1.327 . S
C2280 C2299 1.429 . S
C2280 H2304 0.950 . S
C2281 C2298 1.574 1_545 S
C2281 C2300 1.368 . S
C2281 H2305 0.949 . S
H2282 C2286 0.949 . S
C2283 C2284 1.349 . S
C2283 C2285 1.327 . S
C2283 H2306 0.950 . S
C2284 C2283 1.349 . S
C2284 C2296 1.349 . S
C2285 C2283 1.327 . S
C2285 C2301 1.429 . S
C2285 H2307 0.950 . S
C2286 H2282 0.949 . S
C2286 C2294 1.574 1_565 S
C2286 C2302 1.368 . S
H2287 C2295 0.950 . S
H2288 C2293 0.950 . S
H2289 C2294 0.949 . S
H2290 C2296 0.950 . S
H2291 C2297 0.950 . S
H2292 C2298 0.949 . S
C2293 H2288 0.950 . S
C2293 C2295 1.327 . S
C2293 C2299 1.429 . S
C2294 C2286 1.574 1_545 S
C2294 H2289 0.949 . S
C2294 C2300 1.368 . S
C2295 C2279 1.349 . S
C2295 H2287 0.950 . S
C2295 C2293 1.327 . S
C2296 C2284 1.349 . S
C2296 H2290 0.950 . S
C2296 C2297 1.327 . S
C2297 H2291 0.950 . S
C2297 C2296 1.327 . S
C2297 C2301 1.429 . S
C2298 C2281 1.574 1_565 S
C2298 H2292 0.949 . S
C2298 C2302 1.368 . S
C2299 C2280 1.429 . S
C2299 C2293 1.429 . S
C2299 C2300 1.523 . S
C2300 C2281 1.368 . S
C2300 C2294 1.368 . S
C2300 C2299 1.523 . S
C2301 C2285 1.429 . S
C2301 C2297 1.429 . S
C2301 C2302 1.523 . S
C2302 C2286 1.368 . S
C2302 C2298 1.368 . S
C2302 C2301 1.523 . S
H2303 C2278 0.950 . S
H2304 C2280 0.950 . S
H2305 C2281 0.949 . S
H2306 C2283 0.950 . S
H2307 C2285 0.950 . S
C2308 C2309 1.349 . S
C2308 C2310 1.327 . S
C2308 H2333 0.950 . S
C2309 C2308 1.349 . S
C2309 C2325 1.349 . S
C2310 C2308 1.327 . S
C2310 C2329 1.429 . S
C2310 H2334 0.950 . S
C2311 C2328 1.574 1_655 S
C2311 C2330 1.368 1_545 S
C2311 H2335 0.949 . S
H2312 C2316 0.949 . S
C2313 C2314 1.349 . S
C2313 C2315 1.327 . S
C2313 H2336 0.950 . S
C2314 C2313 1.349 . S
C2314 C2326 1.349 . S
C2315 C2313 1.327 . S
C2315 C2331 1.429 . S
C2315 H2337 0.950 . S
C2316 H2312 0.949 . S
C2316 C2324 1.574 1_455 S
C2316 C2332 1.368 1_565 S
H2317 C2325 0.950 . S
H2318 C2323 0.950 1_545 S
H2319 C2324 0.949 . S
H2320 C2326 0.950 . S
H2321 C2327 0.950 1_565 S
H2322 C2328 0.949 . S
C2323 H2318 0.950 1_565 S
C2323 C2325 1.327 . S
C2323 C2329 1.429 . S
C2324 C2316 1.574 1_655 S
C2324 H2319 0.949 . S
C2324 C2330 1.368 . S
C2325 C2309 1.349 . S
C2325 H2317 0.950 . S
C2325 C2323 1.327 . S
C2326 C2314 1.349 . S
C2326 H2320 0.950 . S
C2326 C2327 1.327 . S
C2327 H2321 0.950 1_545 S
C2327 C2326 1.327 . S
C2327 C2331 1.429 . S
C2328 C2311 1.574 1_455 S
C2328 H2322 0.949 . S
C2328 C2332 1.368 . S
C2329 C2310 1.429 . S
C2329 C2323 1.429 . S
C2329 C2330 1.523 . S
C2330 C2311 1.368 1_565 S
C2330 C2324 1.368 . S
C2330 C2329 1.523 . S
C2331 C2315 1.429 . S
C2331 C2327 1.429 . S
C2331 C2332 1.523 . S
C2332 C2316 1.368 1_545 S
C2332 C2328 1.368 . S
C2332 C2331 1.523 . S
H2333 C2308 0.950 . S
H2334 C2310 0.950 . S
H2335 C2311 0.949 . S
H2336 C2313 0.950 . S
H2337 C2315 0.950 . S
C2338 C2339 1.349 . S
C2338 C2340 1.327 . S
C2338 H2363 0.950 . S
C2339 C2338 1.349 . S
C2339 C2355 1.349 . S
C2340 C2338 1.327 . S
C2340 C2359 1.429 . S
C2340 H2364 0.950 . S
C2341 C2358 1.574 . S
C2341 C2360 1.368 1_455 S
C2341 H2365 0.949 . S
H2342 C2346 0.949 . S
C2343 C2344 1.349 . S
C2343 C2345 1.327 . S
C2343 H2366 0.950 . S
C2344 C2343 1.349 . S
C2344 C2356 1.349 . S
C2345 C2343 1.327 . S
C2345 C2361 1.429 . S
C2345 H2367 0.950 . S
C2346 H2342 0.949 . S
C2346 C2354 1.574 . S
C2346 C2362 1.368 1_655 S
H2347 C2355 0.950 . S
H2348 C2353 0.950 1_455 S
H2349 C2354 0.949 . S
H2350 C2356 0.950 . S
H2351 C2357 0.950 1_655 S
H2352 C2358 0.949 . S
C2353 H2348 0.950 1_655 S
C2353 C2355 1.327 . S
C2353 C2359 1.429 . S
C2354 C2346 1.574 . S
C2354 H2349 0.949 . S
C2354 C2360 1.368 . S
C2355 C2339 1.349 . S
C2355 H2347 0.950 . S
C2355 C2353 1.327 . S
C2356 C2344 1.349 . S
C2356 H2350 0.950 . S
C2356 C2357 1.327 . S
C2357 H2351 0.950 1_455 S
C2357 C2356 1.327 . S
C2357 C2361 1.429 . S
C2358 C2341 1.574 . S
C2358 H2352 0.949 . S
C2358 C2362 1.368 . S
C2359 C2340 1.429 . S
C2359 C2353 1.429 . S
C2359 C2360 1.523 . S
C2360 C2341 1.368 1_655 S
C2360 C2354 1.368 . S
C2360 C2359 1.523 . S
C2361 C2345 1.429 . S
C2361 C2357 1.429 . S
C2361 C2362 1.523 . S
C2362 C2346 1.368 1_455 S
C2362 C2358 1.368 . S
C2362 C2361 1.523 . S
H2363 C2338 0.950 . S
H2364 C2340 0.950 . S
H2365 C2341 0.949 . S
H2366 C2343 0.950 . S
H2367 C2345 0.950 . S
C1409 C372 0.836 . S
C1414 C57 0.836 . S
C1439 C145 0.836 . S
C1444 C460 0.836 . S
C1469 C548 0.836 . S
C1474 C233 0.836 . S
C1499 C645 0.836 . S
C1504 C313 0.836 . S
C1529 C1085 0.836 . S
C1534 C753 0.836 . S
C1559 C841 0.836 . S
C1564 C1164 0.836 . S
C1589 C1252 0.836 . S
C1594 C929 0.836 . S
C1619 C1025 0.836 . S
C1624 C1340 0.836 . S
C1649 C29 0.942 . S
C1654 C1369 0.942 . S
C1679 C117 0.942 . S
C1684 C1113 0.942 . S
C1709 C205 0.941 . S
C1714 C1193 0.941 . S
C1739 C1281 0.942 . S
C1744 C284 0.942 . S
C1769 C401 0.942 . S
C1774 C812 0.942 . S
C1799 C489 0.941 . S
C1804 C900 0.941 . S
C1829 C997 0.942 . S
C1834 C577 0.942 . S
C1859 C724 0.942 . S
C1864 C673 0.942 . S
C1889 C49 1.540 . S
C1894 C937 1.540 . S
C1919 C1017 1.540 . S
C1924 C137 1.540 . S
C1949 C225 1.540 . S
C1954 C761 1.540 . S
C1979 C849 1.540 . S
C1984 C321 1.540 . S
C2009 C381 1.540 . S
C2014 C1261 1.540 . S
C2039 C469 1.540 . S
C2044 C1349 1.540 . S
C2069 C1076 1.540 . S
C2074 C557 1.540 . S
C2099 C1173 1.540 . S
C2104 C636 1.540 . S
C2129 C909 1.625 . S
C2134 C20 1.625 . S
C2159 C108 1.626 . S
C2164 C988 1.626 . S
C2189 C196 1.625 . S
C2194 C733 1.625 . S
C2219 C821 1.626 . S
C2224 C293 1.626 . S
C2249 C1289 1.626 . S
C2254 C409 1.626 . S
C2279 C1377 1.625 . S
C2284 C497 1.625 . S
C2309 C1105 1.626 . S
C2314 C585 1.626 . S
C2339 C665 1.625 . S
C2344 C1201 1.625 . S
