# Generated by pormake.
# Topology ecf, (8)-cn, num edge types: 1
# Building blocks:
#     Node 0, Type 0, BuildingBlock: AJUNOK_clean_sbu_0, # of connection points: 8
#     Node 1, Type 0, BuildingBlock: AJUNOK_clean_sbu_0, # of connection points: 8
#     Node 2, Type 0, BuildingBlock: AJUNOK_clean_sbu_0, # of connection points: 8
#     Node 3, Type 0, BuildingBlock: AJUNOK_clean_sbu_0, # of connection points: 8
#     Node 4, Type 0, BuildingBlock: AJUNOK_clean_sbu_0, # of connection points: 8
#     Node 5, Type 0, BuildingBlock: AJUNOK_clean_sbu_0, # of connection points: 8
#     Edge 6, Type (0, 0), BuildingBlock: KIFKEQ_clean_linker_1, # of connection points: 2
#     Edge 7, Type (0, 0), BuildingBlock: KIFKEQ_clean_linker_1, # of connection points: 2
#     Edge 8, Type (0, 0), BuildingBlock: KIFKEQ_clean_linker_1, # of connection points: 2
#     Edge 9, Type (0, 0), BuildingBlock: KIFKEQ_clean_linker_1, # of connection points: 2
#     Edge 10, Type (0, 0), BuildingBlock: KIFKEQ_clean_linker_1, # of connection points: 2
#     Edge 11, Type (0, 0), BuildingBlock: KIFKEQ_clean_linker_1, # of connection points: 2
#     Edge 12, Type (0, 0), BuildingBlock: KIFKEQ_clean_linker_1, # of connection points: 2
#     Edge 13, Type (0, 0), BuildingBlock: KIFKEQ_clean_linker_1, # of connection points: 2
#     Edge 14, Type (0, 0), BuildingBlock: KIFKEQ_clean_linker_1, # of connection points: 2
#     Edge 15, Type (0, 0), BuildingBlock: KIFKEQ_clean_linker_1, # of connection points: 2
#     Edge 16, Type (0, 0), BuildingBlock: KIFKEQ_clean_linker_1, # of connection points: 2
#     Edge 17, Type (0, 0), BuildingBlock: KIFKEQ_clean_linker_1, # of connection points: 2
#     Edge 18, Type (0, 0), BuildingBlock: KIFKEQ_clean_linker_1, # of connection points: 2
#     Edge 19, Type (0, 0), BuildingBlock: KIFKEQ_clean_linker_1, # of connection points: 2
#     Edge 20, Type (0, 0), BuildingBlock: KIFKEQ_clean_linker_1, # of connection points: 2
#     Edge 21, Type (0, 0), BuildingBlock: KIFKEQ_clean_linker_1, # of connection points: 2
#     Edge 22, Type (0, 0), BuildingBlock: KIFKEQ_clean_linker_1, # of connection points: 2
#     Edge 23, Type (0, 0), BuildingBlock: KIFKEQ_clean_linker_1, # of connection points: 2
#     Edge 24, Type (0, 0), BuildingBlock: KIFKEQ_clean_linker_1, # of connection points: 2
#     Edge 25, Type (0, 0), BuildingBlock: KIFKEQ_clean_linker_1, # of connection points: 2
#     Edge 26, Type (0, 0), BuildingBlock: KIFKEQ_clean_linker_1, # of connection points: 2
#     Edge 27, Type (0, 0), BuildingBlock: KIFKEQ_clean_linker_1, # of connection points: 2
#     Edge 28, Type (0, 0), BuildingBlock: KIFKEQ_clean_linker_1, # of connection points: 2
#     Edge 29, Type (0, 0), BuildingBlock: KIFKEQ_clean_linker_1, # of connection points: 2
# Relax obj value: 0.406
# Max RMSD: 0.282
# Mean RMSD: 0.282
data_MOF--net-ecf--node1-AJUNOK_clean_sbu_0--edge1-KIFKEQ_clean_linker_1
_symmetry_space_group_name_H-M    P1
_symmetry_Int_Tables_number       1
_symmetry_cell_setting            triclinic
loop_
_symmetry_equiv_pos_as_xyz
'x, y, z'
_cell_length_a     40.467339
_cell_length_b     40.333483
_cell_length_c     23.277757
_cell_angle_alpha  89.95474
_cell_angle_beta   90.19079
_cell_angle_gamma 119.97505
loop_
_atom_site_label
_atom_site_type_symbol
_atom_site_fract_x
_atom_site_fract_y
_atom_site_fract_z
_atom_type_partial_charge
Cd0 Cd 0.13263 0.33023 0.24989 0.0
Cd1 Cd 0.20205 0.3256 0.36106 0.0
C2 C 0.04816 0.26001 0.25555 0.0
N3 N 0.0816 0.27033 0.22862 0.0
C4 C 0.05655 0.20768 0.18907 0.0
C5 C 0.02282 0.19544 0.22038 0.0
C6 C 0.0183 0.22246 0.2523 0.0
C7 C 0.08587 0.24562 0.19391 0.0
H8 H 0.04534 0.28055 0.2818 0.0
H9 H 0.11263 0.25477 0.17227 0.0
C10 C 0.20441 0.30435 0.21265 0.0
C11 C 0.25129 0.40258 0.28742 0.0
C12 C 0.27672 0.44172 0.28047 0.0
C13 C 0.28027 0.46745 0.32396 0.0
C14 C 0.25701 0.45316 0.37271 0.0
C15 C 0.23177 0.41385 0.3777 0.0
N16 N 0.2291 0.38952 0.33514 0.0
H17 H 0.2506 0.38258 0.25597 0.0
H18 H 0.21551 0.40245 0.41671 0.0
C19 C 0.17269 0.23799 0.39018 0.0
N20 N 0.16214 0.26029 0.3607 0.0
C21 C 0.10988 0.20555 0.31765 0.0
C22 C 0.12163 0.18192 0.34418 0.0
C23 C 0.15267 0.1984 0.38256 0.0
C24 C 0.13095 0.24499 0.32618 0.0
H25 H 0.19789 0.25114 0.4171 0.0
H26 H 0.12383 0.26376 0.30335 0.0
C27 C 0.11049 0.30741 0.40409 0.0
C28 C 0.10234 0.36324 0.17451 0.0
N29 N 0.16844 0.39461 0.27617 0.0
C30 C 0.15868 0.40735 0.32372 0.0
C31 C 0.17217 0.44646 0.33127 0.0
C32 C 0.19474 0.4725 0.28848 0.0
C33 C 0.20453 0.45855 0.24008 0.0
C34 C 0.1908 0.41932 0.23459 0.0
C35 C 0.26679 0.34006 0.42568 0.0
O36 O 0.17815 0.31197 0.19981 0.0
O37 O 0.21546 0.30745 0.26464 0.0
O38 O 0.1437 0.31385 0.41865 0.0
O39 O 0.10371 0.31092 0.35134 0.0
O40 O 0.12617 0.35384 0.15678 0.0
O41 O 0.09121 0.35504 0.22602 0.0
O42 O 0.24261 0.34798 0.44631 0.0
O43 O 0.25849 0.32201 0.37866 0.0
H44 H 0.13906 0.38708 0.35452 0.0
H45 H 0.19663 0.40831 0.19591 0.0
H46 H 0.06093 0.18775 0.16358 0.0
H47 H 0.99292 0.21425 0.27751 0.0
H48 H 0.29491 0.45149 0.24297 0.0
H49 H 0.2592 0.47203 0.40742 0.0
H50 H 0.08585 0.19379 0.28855 0.0
H51 H 0.16304 0.1813 0.40332 0.0
H52 H 0.1632 0.45595 0.36854 0.0
H53 H 0.22166 0.47766 0.20599 0.0
Cd54 Cd 0.87491 0.20881 0.86138 0.0
Cd55 Cd 0.80686 0.1287 0.75807 0.0
C56 C 0.95033 0.20797 0.8351 0.0
N57 N 0.91539 0.18374 0.8573 0.0
C58 C 0.93017 0.13342 0.86272 0.0
C59 C 0.96447 0.15669 0.83391 0.0
C60 C 0.97512 0.19474 0.82179 0.0
C61 C 0.90534 0.14738 0.87297 0.0
H62 H 0.95819 0.23717 0.82506 0.0
H63 H 0.87779 0.1288 0.89166 0.0
C64 C 0.80514 0.11676 0.91348 0.0
C65 C 0.75658 0.15908 0.82304 0.0
C66 C 0.73175 0.17361 0.82678 0.0
C67 C 0.72854 0.19421 0.78051 0.0
C68 C 0.7512 0.20032 0.73174 0.0
C69 C 0.77596 0.18555 0.73003 0.0
N70 N 0.77859 0.16582 0.7756 0.0
H71 H 0.75708 0.14122 0.85714 0.0
H72 H 0.79211 0.18861 0.6915 0.0
C73 C 0.82813 0.06598 0.79308 0.0
N74 N 0.84344 0.09807 0.76016 0.0
C75 C 0.89683 0.09014 0.73765 0.0
C76 C 0.88296 0.05872 0.77495 0.0
C77 C 0.84759 0.04611 0.8016 0.0
C78 C 0.87674 0.10978 0.73128 0.0
H79 H 0.80068 0.05567 0.81306 0.0
H80 H 0.88813 0.13425 0.70332 0.0
C81 C 0.89363 0.20559 0.70675 0.0
C82 C 0.92014 0.27569 0.92711 0.0
N83 N 0.8359 0.23409 0.83843 0.0
C84 C 0.84279 0.25511 0.78965 0.0
C85 C 0.82743 0.27914 0.78257 0.0
C86 C 0.806 0.28271 0.82702 0.0
C87 C 0.79948 0.26077 0.87701 0.0
C88 C 0.81503 0.23676 0.88201 0.0
C89 C 0.73973 0.07577 0.70048 0.0
O90 O 0.83084 0.15108 0.92545 0.0
O91 O 0.79606 0.10753 0.86114 0.0
O92 O 0.86154 0.17601 0.69525 0.0
O93 O 0.90063 0.21825 0.75826 0.0
O94 O 0.89675 0.24442 0.95108 0.0
O95 O 0.92405 0.2749 0.8734 0.0
O96 O 0.76411 0.10619 0.67569 0.0
O97 O 0.74871 0.0683 0.74882 0.0
H98 H 0.86147 0.25445 0.75719 0.0
H99 H 0.81192 0.22151 0.92169 0.0
H100 H 0.92179 0.10427 0.87413 0.0
H101 H 1.002 0.21379 0.80106 0.0
H102 H 0.71393 0.16726 0.86444 0.0
H103 H 0.74924 0.21568 0.6949 0.0
H104 H 0.92332 0.10004 0.71478 0.0
H105 H 0.83481 0.02087 0.82857 0.0
H106 H 0.83408 0.29636 0.74405 0.0
H107 H 0.78351 0.26303 0.91254 0.0
Cd108 Cd 0.66726 0.80188 0.2507 0.0
Cd109 Cd 0.66744 0.87053 0.3626 0.0
C110 C 0.74431 0.79956 0.26595 0.0
N111 N 0.73184 0.82218 0.24244 0.0
C112 C 0.7958 0.87104 0.22256 0.0
C113 C 0.80937 0.85001 0.25227 0.0
C114 C 0.78319 0.8132 0.27209 0.0
C115 C 0.75657 0.85666 0.21868 0.0
H116 H 0.72406 0.77154 0.28222 0.0
H117 H 0.74623 0.87384 0.19867 0.0
C118 C 0.69042 0.89915 0.21641 0.0
C119 C 0.59237 0.84428 0.28466 0.0
C120 C 0.55343 0.83116 0.27737 0.0
C121 C 0.5274 0.80781 0.31962 0.0
C122 C 0.54121 0.7966 0.36684 0.0
C123 C 0.5803 0.81041 0.37245 0.0
N124 N 0.60494 0.83355 0.3315 0.0
H125 H 0.6126 0.86483 0.2548 0.0
H126 H 0.5913 0.80427 0.41096 0.0
C127 C 0.74776 0.94453 0.37735 0.0
N128 N 0.7332 0.90677 0.36589 0.0
C129 C 0.79554 0.91622 0.34944 0.0
C130 C 0.81108 0.95568 0.35773 0.0
C131 C 0.78678 0.96965 0.37341 0.0
C132 C 0.75614 0.89209 0.35338 0.0
H133 H 0.72886 0.95545 0.38701 0.0
H134 H 0.74385 0.862 0.3444 0.0
C135 C 0.68883 0.79799 0.40254 0.0
C136 C 0.64102 0.74266 0.16876 0.0
N137 N 0.60304 0.76915 0.27731 0.0
C138 C 0.59142 0.74586 0.32416 0.0
C139 C 0.55277 0.71927 0.33201 0.0
C140 C 0.52604 0.71559 0.29016 0.0
C141 C 0.53886 0.73977 0.24208 0.0
C142 C 0.57769 0.76622 0.23626 0.0
C143 C 0.64212 0.90879 0.43624 0.0
O144 O 0.68185 0.86513 0.20234 0.0
O145 O 0.68819 0.90666 0.26895 0.0
O146 O 0.68195 0.82444 0.41731 0.0
O147 O 0.68549 0.78816 0.34977 0.0
O148 O 0.64783 0.77585 0.15463 0.0
O149 O 0.64984 0.73839 0.21935 0.0
O150 O 0.64457 0.8804 0.45405 0.0
O151 O 0.6547 0.92111 0.3865 0.0
H152 H 0.61216 0.7469 0.35448 0.0
H153 H 0.58787 0.78361 0.19795 0.0
H154 H 0.81515 0.89911 0.20537 0.0
H155 H 0.79269 0.79551 0.29338 0.0
H156 H 0.5442 0.84142 0.24116 0.0
H157 H 0.52221 0.77875 0.40048 0.0
H158 H 0.81352 0.90448 0.33808 0.0
H159 H 0.79745 0.99998 0.3792 0.0
H160 H 0.54415 0.70045 0.36893 0.0
H161 H 0.51919 0.7376 0.20866 0.0
Cd162 Cd 0.80586 0.68058 0.85717 0.0
Cd163 Cd 0.87429 0.67189 0.75198 0.0
C164 C 0.82316 0.76385 0.8203 0.0
N165 N 0.83929 0.74761 0.85271 0.0
C166 C 0.89214 0.80937 0.87504 0.0
C167 C 0.87783 0.8265 0.83763 0.0
C168 C 0.84221 0.80322 0.81145 0.0
C169 C 0.87268 0.76966 0.88129 0.0
H170 H 0.79546 0.74627 0.80094 0.0
H171 H 0.88451 0.75685 0.90905 0.0
C172 C 0.89386 0.6918 0.90592 0.0
C173 C 0.84518 0.59359 0.82336 0.0
C174 C 0.82989 0.55421 0.83067 0.0
C175 C 0.80654 0.5288 0.78766 0.0
C176 C 0.79825 0.54382 0.7388 0.0
C177 C 0.81383 0.58342 0.73354 0.0
N178 N 0.83642 0.60737 0.77586 0.0
H179 H 0.86514 0.61312 0.85466 0.0
H180 H 0.80916 0.59523 0.69466 0.0
C181 C 0.94668 0.75153 0.77898 0.0
N182 N 0.9118 0.73866 0.75455 0.0
C183 C 0.92471 0.80297 0.74211 0.0
C184 C 0.95939 0.81634 0.77124 0.0
C185 C 0.97068 0.79033 0.78884 0.0
C186 C 0.90077 0.76354 0.735 0.0
H187 H 0.95559 0.73153 0.79224 0.0
H188 H 0.87339 0.75315 0.71476 0.0
C189 C 0.80258 0.69127 0.7014 0.0
C190 C 0.73985 0.66382 0.91962 0.0
N191 N 0.7793 0.61534 0.84225 0.0
C192 C 0.75535 0.59911 0.79679 0.0
C193 C 0.73043 0.55963 0.79509 0.0
C194 C 0.72928 0.53674 0.84144 0.0
C195 C 0.75432 0.55432 0.88789 0.0
C196 C 0.77889 0.59394 0.88772 0.0
C197 C 0.92128 0.65157 0.68959 0.0
O198 O 0.86183 0.68882 0.91868 0.0
O199 O 0.90024 0.6868 0.85396 0.0
O200 O 0.82886 0.68374 0.68867 0.0
O201 O 0.79378 0.69092 0.75398 0.0
O202 O 0.76972 0.66878 0.94514 0.0
O203 O 0.7423 0.67052 0.86633 0.0
O204 O 0.89262 0.65064 0.66577 0.0
O205 O 0.92944 0.66484 0.73997 0.0
H206 H 0.75425 0.61692 0.76305 0.0
H207 H 0.79652 0.60789 0.9249 0.0
H208 H 0.91835 0.82622 0.89852 0.0
H209 H 0.8289 0.81526 0.78469 0.0
H210 H 0.83791 0.54391 0.86819 0.0
H211 H 0.78077 0.52523 0.70436 0.0
H212 H 0.91566 0.82258 0.72709 0.0
H213 H 0.99778 0.79996 0.81034 0.0
H214 H 0.71079 0.54749 0.7593 0.0
H215 H 0.75407 0.53779 0.92474 0.0
Cd216 Cd 0.20388 0.87834 0.25114 0.0
Cd217 Cd 0.13615 0.80343 0.35523 0.0
C218 C 0.19488 0.95192 0.25208 0.0
N219 N 0.17224 0.91342 0.24636 0.0
C220 C 0.11696 0.92005 0.23631 0.0
C221 C 0.13972 0.95977 0.24271 0.0
C222 C 0.17918 0.97572 0.25035 0.0
C223 C 0.13389 0.89722 0.23846 0.0
H224 H 0.22519 0.96419 0.25889 0.0
H225 H 0.11614 0.86663 0.235 0.0
C226 C 0.11519 0.80239 0.20205 0.0
C227 C 0.16356 0.75305 0.28083 0.0
C228 C 0.17671 0.72715 0.27374 0.0
C229 C 0.19685 0.72162 0.3185 0.0
C230 C 0.20481 0.74385 0.36849 0.0
C231 C 0.19131 0.76953 0.37364 0.0
N232 N 0.17131 0.77388 0.33006 0.0
H233 H 0.14582 0.75518 0.24802 0.0
H234 H 0.19548 0.78499 0.41344 0.0
C235 C 0.06053 0.80574 0.33164 0.0
N236 N 0.09588 0.82936 0.35349 0.0
C237 C 0.08175 0.88004 0.36278 0.0
C238 C 0.04636 0.85704 0.33615 0.0
C239 C 0.03541 0.81917 0.32189 0.0
C240 C 0.10646 0.86562 0.37057 0.0
H241 H 0.0522 0.77668 0.31993 0.0
H242 H 0.13429 0.88394 0.38858 0.0
C243 C 0.20585 0.89787 0.40259 0.0
C244 C 0.27148 0.92412 0.18894 0.0
N245 N 0.23174 0.84234 0.27957 0.0
C246 C 0.25108 0.85034 0.33022 0.0
C247 C 0.27742 0.83823 0.34013 0.0
C248 C 0.28544 0.81914 0.2966 0.0
C249 C 0.26462 0.81075 0.24496 0.0
C250 C 0.23813 0.82305 0.23713 0.0
C251 C 0.09235 0.73806 0.42366 0.0
O252 O 0.14747 0.83122 0.18921 0.0
O253 O 0.10863 0.79122 0.25414 0.0
O254 O 0.18169 0.86309 0.41515 0.0
O255 O 0.21455 0.90703 0.35012 0.0
O256 O 0.24388 0.89504 0.16559 0.0
O257 O 0.2659 0.93353 0.23811 0.0
O258 O 0.12117 0.76713 0.44473 0.0
O259 O 0.08251 0.74101 0.37325 0.0
H260 H 0.24746 0.86747 0.36223 0.0
H261 H 0.2241 0.819 0.19598 0.0
H262 H 0.08643 0.90684 0.23027 0.0
H263 H 0.19762 0.00624 0.25644 0.0
H264 H 0.16914 0.70997 0.23504 0.0
H265 H 0.22018 0.74048 0.40408 0.0
H266 H 0.09094 0.90931 0.37486 0.0
H267 H 0.00783 0.80025 0.3027 0.0
H268 H 0.29227 0.84498 0.38096 0.0
H269 H 0.27029 0.79692 0.2096 0.0
Cd270 Cd 0.34428 0.13355 0.86053 0.0
Cd271 Cd 0.34251 0.20546 0.75876 0.0
C272 C 0.26477 0.05637 0.86145 0.0
N273 N 0.27865 0.09472 0.8584 0.0
C274 C 0.21571 0.08522 0.8492 0.0
C275 C 0.20073 0.04554 0.85158 0.0
C276 C 0.22571 0.03112 0.85801 0.0
C277 C 0.25508 0.10946 0.85263 0.0
H278 H 0.28408 0.04532 0.86558 0.0
H279 H 0.26672 0.13991 0.84974 0.0
C280 C 0.31836 0.20168 0.90941 0.0
C281 C 0.41449 0.25505 0.84441 0.0
C282 C 0.45229 0.28171 0.85806 0.0
C283 C 0.4812 0.2912 0.81723 0.0
C284 C 0.47116 0.272 0.76415 0.0
C285 C 0.43302 0.24526 0.75249 0.0
N286 N 0.40556 0.23702 0.79256 0.0
H287 H 0.39236 0.24984 0.87469 0.0
H288 H 0.42506 0.23207 0.7105 0.0
C289 C 0.26621 0.20941 0.76498 0.0
N290 N 0.27763 0.18417 0.74973 0.0
C291 C 0.21329 0.13614 0.72915 0.0
C292 C 0.20088 0.1615 0.74555 0.0
C293 C 0.22779 0.19864 0.76312 0.0
C294 C 0.25214 0.14824 0.73121 0.0
H295 H 0.2869 0.23775 0.7797 0.0
H296 H 0.26157 0.12847 0.71953 0.0
C297 C 0.32128 0.11144 0.7118 0.0
C298 C 0.36871 0.0911 0.92711 0.0
N299 N 0.4072 0.17094 0.83066 0.0
C300 C 0.41938 0.16391 0.78011 0.0
C301 C 0.45828 0.17778 0.77094 0.0
C302 C 0.48472 0.19802 0.81488 0.0
C303 C 0.47127 0.20523 0.86622 0.0
C304 C 0.43222 0.19082 0.87357 0.0
C305 C 0.36874 0.2712 0.68909 0.0
O306 O 0.32742 0.17631 0.92179 0.0
O307 O 0.3211 0.2129 0.85751 0.0
O308 O 0.32871 0.14554 0.70061 0.0
O309 O 0.32446 0.10267 0.76329 0.0
O310 O 0.36635 0.11851 0.94936 0.0
O311 O 0.35676 0.08185 0.87621 0.0
O312 O 0.36733 0.24118 0.6695 0.0
O313 O 0.35535 0.26923 0.73873 0.0
H314 H 0.39894 0.14594 0.74805 0.0
H315 H 0.42161 0.19412 0.91449 0.0
H316 H 0.19726 0.09734 0.84483 0.0
H317 H 0.21522 1.00061 0.85922 0.0
H318 H 0.45857 0.29552 0.8997 0.0
H319 H 0.49217 0.27888 0.73076 0.0
H320 H 0.19318 0.10731 0.71518 0.0
H321 H 0.21908 0.21883 0.77661 0.0
H322 H 0.46724 0.17066 0.73129 0.0
H323 H 0.49057 0.22068 0.90123 0.0
H324 H 0.22388 0.52178 0.37984 0.0
H325 H 0.18659 0.51465 0.20414 0.0
H326 H 0.23275 0.58621 0.38735 0.0
H327 H 0.19417 0.57816 0.21176 0.0
H328 H 0.22578 0.70088 0.22766 0.0
H329 H 0.23381 0.6449 0.22038 0.0
H330 H 0.19352 0.61378 0.39472 0.0
H331 H 0.18678 0.67013 0.40229 0.0
C332 C 0.21778 0.53413 0.34278 0.0
C333 C 0.2044 0.51316 0.29152 0.0
C334 C 0.22269 0.57097 0.34705 0.0
C335 C 0.21385 0.58748 0.30034 0.0
C336 C 0.20188 0.56688 0.24842 0.0
C337 C 0.19739 0.53029 0.24402 0.0
C338 C 0.21914 0.68227 0.26458 0.0
C339 C 0.20567 0.68999 0.31552 0.0
C340 C 0.22356 0.65006 0.2604 0.0
C341 C 0.21405 0.62444 0.30681 0.0
C342 C 0.2018 0.63301 0.35835 0.0
C343 C 0.19782 0.6654 0.3627 0.0
H344 H 0.53218 0.22682 0.72139 0.0
H345 H 0.52855 0.18988 0.89659 0.0
H346 H 0.59616 0.23543 0.71091 0.0
H347 H 0.59172 0.19801 0.88617 0.0
H348 H 0.71271 0.22965 0.86755 0.0
H349 H 0.65844 0.24016 0.87446 0.0
H350 H 0.62287 0.19421 0.70332 0.0
H351 H 0.6776 0.18474 0.69614 0.0
C352 C 0.54513 0.22079 0.75773 0.0
C353 C 0.52519 0.20758 0.80976 0.0
C354 C 0.58176 0.2257 0.75177 0.0
C355 C 0.59918 0.21732 0.79762 0.0
C356 C 0.57969 0.20548 0.85021 0.0
C357 C 0.54327 0.20074 0.8562 0.0
C358 C 0.69356 0.22237 0.83117 0.0
C359 C 0.69917 0.20602 0.78156 0.0
C360 C 0.66239 0.22825 0.83513 0.0
C361 C 0.63584 0.21749 0.7898 0.0
C362 C 0.64281 0.20321 0.7389 0.0
C363 C 0.67419 0.19767 0.73478 0.0
H364 H 0.29866 0.51716 0.23368 0.0
H365 H 0.33154 0.50921 0.40739 0.0
H366 H 0.35388 0.58155 0.22568 0.0
H367 H 0.38724 0.57265 0.39917 0.0
H368 H 0.47831 0.69511 0.38282 0.0
H369 H 0.4144 0.63939 0.39162 0.0
H370 H 0.42027 0.60881 0.21544 0.0
H371 H 0.48326 0.665 0.20652 0.0
C372 C 0.31762 0.52934 0.27023 0.0
C373 C 0.31091 0.50815 0.32103 0.0
C374 C 0.34938 0.56615 0.26565 0.0
C375 C 0.37545 0.58237 0.31155 0.0
C376 C 0.36768 0.56158 0.36315 0.0
C377 C 0.33572 0.52504 0.36789 0.0
C378 C 0.46559 0.67661 0.34592 0.0
C379 C 0.48578 0.68427 0.2941 0.0
C380 C 0.42905 0.64459 0.35093 0.0
C381 C 0.41208 0.6192 0.30441 0.0
C382 C 0.43192 0.62785 0.25197 0.0
C383 C 0.4682 0.66007 0.24683 0.0
H384 H 0.7724 0.29846 0.73664 0.0
H385 H 0.81419 0.33429 0.90929 0.0
H386 H 0.76218 0.35306 0.72671 0.0
H387 H 0.80495 0.38906 0.89928 0.0
H388 H 0.77511 0.48055 0.87942 0.0
H389 H 0.76461 0.41563 0.88955 0.0
H390 H 0.80229 0.42001 0.71471 0.0
H391 H 0.8117 0.48414 0.70451 0.0
C392 C 0.77908 0.31786 0.7726 0.0
C393 C 0.79439 0.31228 0.82354 0.0
C394 C 0.77335 0.34921 0.76693 0.0
C395 C 0.78313 0.37589 0.81193 0.0
C396 C 0.79655 0.36901 0.86391 0.0
C397 C 0.80197 0.33755 0.86968 0.0
C398 C 0.78057 0.46727 0.84302 0.0
C399 C 0.79454 0.48752 0.79137 0.0
C400 C 0.7747 0.43014 0.8488 0.0
C401 C 0.78306 0.41257 0.80322 0.0
C402 C 0.79505 0.43221 0.75058 0.0
C403 C 0.80056 0.46914 0.74469 0.0
H404 H 0.35364 0.86378 0.35095 0.0
H405 H 0.29152 0.75816 0.25531 0.0
H406 H 0.40763 0.8537 0.35891 0.0
H407 H 0.34678 0.74882 0.26193 0.0
H408 H 0.47821 0.78683 0.22745 0.0
H409 H 0.41619 0.78386 0.22405 0.0
H410 H 0.42443 0.80795 0.40581 0.0
H411 H 0.48629 0.81175 0.4091 0.0
C412 C 0.35105 0.83794 0.33255 0.0
C413 C 0.31775 0.81152 0.30312 0.0
C414 C 0.38225 0.8323 0.3369 0.0
C415 C 0.38135 0.80033 0.31142 0.0
C416 C 0.34827 0.7738 0.28183 0.0
C417 C 0.31669 0.77922 0.278 0.0
C418 C 0.46648 0.79102 0.26673 0.0
C419 C 0.48731 0.79978 0.31843 0.0
C420 C 0.43089 0.789 0.26488 0.0
C421 C 0.41571 0.79607 0.31458 0.0
C422 C 0.43562 0.80278 0.36672 0.0
C423 C 0.47093 0.80456 0.36866 0.0
H424 H 0.54943 0.29723 0.78428 0.0
H425 H 0.50263 0.35857 0.87301 0.0
H426 H 0.61351 0.35282 0.79474 0.0
H427 H 0.56616 0.41313 0.88446 0.0
H428 H 0.68446 0.49808 0.93278 0.0
H429 H 0.62795 0.43463 0.93277 0.0
H430 H 0.64785 0.41978 0.75495 0.0
H431 H 0.7052 0.4831 0.75539 0.0
C432 C 0.55274 0.32234 0.80632 0.0
C433 C 0.52072 0.32326 0.82788 0.0
C434 C 0.58945 0.35411 0.81242 0.0
C435 C 0.59493 0.38729 0.84071 0.0
C436 C 0.56307 0.38776 0.8635 0.0
C437 C 0.52651 0.35629 0.85701 0.0
C438 C 0.67748 0.48089 0.89414 0.0
C439 C 0.69906 0.4958 0.84386 0.0
C440 C 0.64485 0.44467 0.89398 0.0
C441 C 0.63308 0.42245 0.84361 0.0
C442 C 0.65616 0.43619 0.79445 0.0
C443 C 0.68879 0.47257 0.79454 0.0
H444 H 0.10655 0.15489 0.23463 0.0
H445 H 0.10299 0.11883 0.41039 0.0
H446 H 0.09544 0.0931 0.20095 0.0
H447 H 0.09373 0.05755 0.37658 0.0
H448 H 0.16292 0.02659 0.18567 0.0
H449 H 0.14363 0.07378 0.20424 0.0
H450 H 0.05858 0.99634 0.32412 0.0
H451 H 0.07893 0.94952 0.30626 0.0
C452 C 0.10213 0.13331 0.26617 0.0
C453 C 0.10601 0.1418 0.32521 0.0
C454 C 0.09612 0.09802 0.24679 0.0
C455 C 0.09446 0.07078 0.28602 0.0
C456 C 0.09477 0.07789 0.34522 0.0
C457 C 0.10051 0.11314 0.36464 0.0
C458 C 0.13959 0.01941 0.21506 0.0
C459 C 0.12266 0.98466 0.2451 0.0
C460 C 0.12818 0.04623 0.22529 0.0
C461 C 0.09968 0.03886 0.26596 0.0
C462 C 0.08081 1.00291 0.29289 0.0
C463 C 0.0922 0.97599 0.28238 0.0
H464 H 0.99661 0.12281 0.89654 0.0
H465 H 0.98669 0.15718 0.72477 0.0
H466 H 0.04824 0.11234 0.86492 0.0
H467 H 0.03618 0.1443 0.69197 0.0
H468 H 0.16715 0.19804 0.69687 0.0
H469 H 0.10211 0.18432 0.71028 0.0
H470 H 0.07709 0.08342 0.80881 0.0
H471 H 0.1433 0.09884 0.79763 0.0
C472 C 0.0046 0.12669 0.85162 0.0
C473 C 0.98862 0.14159 0.81325 0.0
C474 C 0.03389 0.12043 0.83328 0.0
C475 C 0.04695 0.12847 0.77616 0.0
C476 C 0.02757 0.139 0.73659 0.0
C477 C 0.99915 0.14617 0.75521 0.0
C478 C 0.14752 0.17264 0.7206 0.0
C479 C 0.16003 0.14941 0.74616 0.0
C480 C 0.11007 0.1644 0.72776 0.0
C481 C 0.08426 0.1326 0.76052 0.0
C482 C 0.09632 0.10818 0.78358 0.0
C483 C 0.134 0.11664 0.77657 0.0
H484 H 0.03657 0.13623 0.23573 0.0
H485 H 0.94524 0.16188 0.22044 0.0
H486 H 0.99108 0.07177 0.2697 0.0
H487 H 0.90015 0.09774 0.25502 0.0
H488 H 0.86177 0.02015 0.41565 0.0
H489 H 0.9183 0.07454 0.37434 0.0
H490 H 0.90695 0.00813 0.22289 0.0
H491 H 0.84995 0.95378 0.26347 0.0
C492 C 0.00674 0.1278 0.23807 0.0
C493 C 0.99455 0.15431 0.22656 0.0
C494 C 0.98088 0.09107 0.2577 0.0
C495 C 0.94263 0.08057 0.26557 0.0
C496 C 0.92982 0.10578 0.24967 0.0
C497 C 0.95555 0.14233 0.23002 0.0
C498 C 0.87198 0.01675 0.37433 0.0
C499 C 0.85101 0.98308 0.34216 0.0
C500 C 0.90427 0.04772 0.35093 0.0
C501 C 0.91622 0.0452 0.29548 0.0
C502 C 0.898 0.01036 0.26585 0.0
C503 C 0.86553 0.97932 0.28922 0.0
H504 H 0.92361 0.04102 0.69856 0.0
H505 H 0.89181 0.03137 0.8773 0.0
H506 H 0.94518 0.99502 0.71367 0.0
H507 H 0.91059 0.98388 0.89161 0.0
H508 H 0.92185 0.8856 0.91214 0.0
H509 H 0.94649 0.95357 0.89587 0.0
H510 H 0.90531 0.92912 0.72057 0.0
H511 H 0.88357 0.86224 0.73563 0.0
C512 C 0.92196 0.02973 0.74133 0.0
C513 C 0.90437 0.0384 0.78615 0.0
C514 C 0.93409 1.00314 0.74997 0.0
C515 C 0.92824 0.98444 0.80325 0.0
C516 C 0.91538 0.99717 0.84974 0.0
C517 C 0.90379 0.02399 0.84129 0.0
C518 C 0.91923 0.89492 0.86961 0.0
C519 C 0.89921 0.86826 0.82586 0.0
C520 C 0.93318 0.93395 0.86034 0.0
C521 C 0.92675 0.94689 0.80754 0.0
C522 C 0.91077 0.9206 0.76201 0.0
C523 C 0.8974 0.88184 0.77103 0.0
H524 H 0.8407 0.84911 0.35482 0.0
H525 H 0.87027 0.88955 0.1804 0.0
H526 H 0.90642 0.86686 0.37422 0.0
H527 H 0.93691 0.90876 0.20035 0.0
H528 H 0.01231 0.85136 0.23359 0.0
H529 H 0.96199 0.86568 0.21267 0.0
H530 H 0.97398 0.91291 0.38322 0.0
H531 H 0.02395 0.8973 0.40464 0.0
C532 C 0.86153 0.8624 0.32088 0.0
C533 C 0.85032 0.86673 0.26556 0.0
C534 C 0.89937 0.87329 0.33229 0.0
C535 C 0.92681 0.88882 0.28858 0.0
C536 C 0.91621 0.89634 0.23461 0.0
C537 C 0.87818 0.8854 0.22318 0.0
C538 C 0.00448 0.86526 0.26631 0.0
C539 C 0.02101 0.8722 0.32123 0.0
C540 C 0.97612 0.87411 0.25404 0.0
C541 C 0.96367 0.89001 0.29657 0.0
C542 C 0.98267 0.90014 0.34993 0.0
C543 C 0.01118 0.89125 0.36221 0.0
H544 H 0.15734 0.98314 0.91703 0.0
H545 H 0.15141 0.04735 0.77305 0.0
H546 H 0.09208 0.93409 0.90044 0.0
H547 H 0.08413 1.00004 0.7595 0.0
H548 H 0.99634 0.87594 0.69718 0.0
H549 H 0.04981 0.93889 0.72135 0.0
H550 H 0.02835 0.91139 0.90217 0.0
H551 H 0.97932 0.84716 0.87703 0.0
C552 C 0.14155 0.98719 0.8827 0.0
C553 C 0.15934 0.01895 0.84628 0.0
C554 C 0.10371 0.95938 0.87368 0.0
C555 C 0.08235 0.96296 0.82861 0.0
C556 C 0.09967 0.99602 0.79419 0.0
C557 C 0.13799 0.02352 0.80254 0.0
C558 C 1.00282 0.88395 0.74196 0.0
C559 C 0.98391 0.857 0.78534 0.0
C560 C 0.03323 0.92013 0.75605 0.0
C561 C 0.04428 0.92998 0.8139 0.0
C562 C 0.02176 0.90438 0.85716 0.0
C563 C 0.99288 0.86779 0.84295 0.0
H564 H 0.26037 0.28477 0.22611 0.0
H565 H 0.18769 0.29107 0.09595 0.0
H566 H 0.28761 0.26096 0.15515 0.0
H567 H 0.21446 0.2665 1.02477 0.0
H568 H 0.29344 0.2537 0.89584 0.0
H569 H 0.26692 0.27826 0.96679 0.0
H570 H 0.27948 0.20934 0.09745 0.0
H571 H 0.30676 0.18529 1.02627 0.0
C572 C 0.25004 0.28111 0.1823 0.0
C573 C 0.22165 0.29029 0.16746 0.0
C574 C 0.26561 0.26699 0.14123 0.0
C575 C 0.25361 0.26137 0.08322 0.0
C576 C 0.22524 0.27069 0.06834 0.0
C577 C 0.20958 0.28477 0.10955 0.0
C578 C 0.2908 0.24377 0.93972 0.0
C579 C 0.30273 0.21738 0.95464 0.0
C580 C 0.27509 0.25776 0.98078 0.0
C581 C 0.27058 0.24611 1.03886 0.0
C582 C 0.28268 0.21977 1.05382 0.0
C583 C 0.29833 0.20568 1.01261 0.0
H584 H 0.89001 0.18698 0.59117 0.0
H585 H 0.96914 0.26299 0.71846 0.0
H586 H 0.94114 0.21154 0.52002 0.0
H587 H 0.02022 0.28786 0.64734 0.0
H588 H 0.11388 0.29876 0.52203 0.0
H589 H 0.06259 0.27562 0.59281 0.0
H590 H 0.98298 0.26257 0.45893 0.0
H591 H 0.0342 0.28531 0.38824 0.0
C592 C 0.91818 0.20927 0.6041 0.0
C593 C 0.92478 0.22289 0.66127 0.0
C594 C 0.94783 0.22359 0.56285 0.0
C595 C 0.9856 0.25202 0.5769 0.0
C596 C 0.99206 0.26576 0.6341 0.0
C597 C 0.96237 0.25162 0.67522 0.0
C598 C 0.08551 0.29114 0.50745 0.0
C599 C 0.07881 0.29426 0.44861 0.0
C600 C 0.05579 0.2779 0.5485 0.0
C601 C 0.01787 0.26688 0.53263 0.0
C602 C 0.01127 0.27008 0.47369 0.0
C603 C 0.04103 0.28354 0.43273 0.0
H604 H 0.7142 0.97605 0.23143 0.0
H605 H 0.70236 0.89573 0.09973 0.0
H606 H 0.74061 0.02785 0.16105 0.0
H607 H 0.72951 0.94755 1.02948 0.0
H608 H 0.74916 0.04124 0.90071 0.0
H609 H 0.7214 0.99044 0.97192 0.0
H610 H 0.79264 0.06993 0.10303 0.0
H611 H 0.81994 0.12122 1.03133 0.0
C612 C 0.71708 0.96922 0.1874 0.0
C613 C 0.70555 0.93107 0.17191 0.0
C614 C 0.73273 0.99932 0.14669 0.0
C615 C 0.73759 0.99271 0.08849 0.0
C616 C 0.72594 0.95443 0.07311 0.0
C617 C 0.71033 0.92436 0.11385 0.0
C618 C 0.75895 0.04822 0.94474 0.0
C619 C 0.78703 0.08598 0.95951 0.0
C620 C 0.74308 0.01861 0.98601 0.0
C621 C 0.75449 0.02519 1.04427 0.0
C622 C 0.78235 0.06314 0.05924 0.0
C623 C 0.7983 0.09287 1.01775 0.0
H624 H 0.7464 0.71035 0.71526 0.0
H625 H 0.81689 0.70239 0.5838 0.0
H626 H 0.71871 0.73419 0.64489 0.0
H627 H 0.78957 0.72699 0.51303 0.0
H628 H 0.71111 0.74387 0.38583 0.0
H629 H 0.7371 0.71736 0.45526 0.0
H630 H 0.72782 0.78641 0.58875 0.0
H631 H 0.70126 0.81232 0.51944 0.0
C632 C 0.7561 0.71356 0.67124 0.0
C633 C 0.78412 0.70404 0.65597 0.0
C634 C 0.74028 0.72774 0.63048 0.0
C635 C 0.75164 0.73313 0.57228 0.0
C636 C 0.77935 0.7231 0.55679 0.0
C637 C 0.79529 0.70895 0.59775 0.0
C638 C 0.71434 0.75333 0.43005 0.0
C639 C 0.70357 0.78036 0.44634 0.0
C640 C 0.72971 0.73822 0.47022 0.0
C641 C 0.73495 0.74933 0.52867 0.0
C642 C 0.72396 0.77626 0.54487 0.0
C643 C 0.7087 0.79144 0.50467 0.0
H644 H 0.96872 0.7096 0.89058 0.0
H645 H 0.89235 0.70556 1.02263 0.0
H646 H 0.02113 0.73477 0.95988 0.0
H647 H 0.9449 0.73095 0.09214 0.0
H648 H 0.11697 0.81697 0.08496 0.0
H649 H 0.0644 0.78979 1.01542 0.0
H650 H 0.98759 0.71896 0.14856 0.0
H651 H 0.03998 0.74622 0.21784 0.0
C652 C 0.96285 0.71381 0.93449 0.0
C653 C 0.92567 0.70507 0.95034 0.0
C654 C 0.9933 0.72872 0.97452 0.0
C655 C 0.98798 0.73532 1.03247 0.0
C656 C 0.95062 0.72607 1.04851 0.0
C657 C 0.9202 0.71145 1.00828 0.0
C658 C 0.08898 0.79538 0.0995 0.0
C659 C 0.08334 0.78396 0.15767 0.0
C660 C 0.05855 0.77955 0.05927 0.0
C661 C 0.02103 0.75187 0.07553 0.0
C662 C 0.01554 0.7404 0.13372 0.0
C663 C 0.04599 0.75596 0.17376 0.0
H664 H 0.30124 0.03534 0.72144 0.0
H665 H 0.30573 0.11656 0.59676 0.0
H666 H 0.27458 0.98488 0.64904 0.0
H667 H 0.27819 0.06588 0.52438 0.0
H668 H 0.25812 0.97466 0.38957 0.0
H669 H 0.28621 0.02494 0.4619 0.0
H670 H 0.22137 0.94261 0.59352 0.0
H671 H 0.19389 0.89201 0.52083 0.0
C672 C 0.29668 0.04265 0.6785 0.0
C673 C 0.30619 0.08064 0.66558 0.0
C674 C 0.28086 0.0133 0.63665 0.0
C675 C 0.27374 0.0205 0.57981 0.0
C676 C 0.28349 0.05864 0.56688 0.0
C677 C 0.29932 0.08802 0.60882 0.0
C678 C 0.24981 0.96702 0.43394 0.0
C679 C 0.22354 0.92868 0.44863 0.0
C680 C 0.26586 0.99626 0.47586 0.0
C681 C 0.25641 0.98866 0.53462 0.0
C682 C 0.23017 0.95019 0.54935 0.0
C683 C 0.21408 0.92087 0.50728 0.0
H684 H 0.67239 0.65261 0.8757 0.0
H685 H 0.72576 0.64482 1.03226 0.0
H686 H 0.61787 0.64506 0.93069 0.0
H687 H 0.6723 0.63806 0.08697 0.0
H688 H 0.61446 0.66711 0.1908 0.0
H689 H 0.60948 0.62003 0.12066 0.0
H690 H 0.62821 0.70029 0.98409 0.0
H691 H 0.63193 0.74638 1.05361 0.0
C692 C 0.67208 0.64849 0.92173 0.0
C693 C 0.70405 0.65147 0.95044 0.0
C694 C 0.64065 0.64361 0.95302 0.0
C695 C 0.64128 0.64238 1.01329 0.0
C696 C 0.67077 0.63933 1.04064 0.0
C697 C 0.70203 0.64409 1.00943 0.0
C698 C 0.61617 0.67403 0.14553 0.0
C699 C 0.62614 0.71107 0.12738 0.0
C700 C 0.61275 0.64689 0.10539 0.0
C701 C 0.62078 0.65731 1.04734 0.0
C702 C 0.62291 0.69154 1.02867 0.0
C703 C 0.62581 0.71845 0.06868 0.0
H704 H 0.11567 0.71227 0.5149 0.0
H705 H 0.01905 0.6837 0.40484 0.0
H706 H 0.07433 0.66176 0.58128 0.0
H707 H 0.97747 0.63605 0.47188 0.0
H708 H 0.99557 0.67593 0.71079 0.0
H709 H 0.03942 0.67153 0.64653 0.0
H710 H 0.94492 0.59217 0.53947 0.0
H711 H 0.90114 0.59971 0.60257 0.0
C712 C 0.08557 0.69493 0.50491 0.0
C713 C 0.06988 0.70312 0.45697 0.0
C714 C 0.06185 0.66592 0.54267 0.0
C715 C 0.022 0.64656 0.53456 0.0
C716 C 0.00767 0.65072 0.48136 0.0
C717 C 0.03151 0.67876 0.44286 0.0
C718 C 0.98416 0.65708 0.67394 0.0
C719 C 0.94556 0.64018 0.65917 0.0
C720 C 0.00935 0.65387 0.63711 0.0
C721 C 0.99609 0.63345 0.58505 0.0
C722 C 0.95641 0.61027 0.57701 0.0
C723 C 0.9313 0.61459 0.61289 0.0
H724 H 0.41688 0.1143 1.01952 0.0
H725 H 0.35188 0.01835 0.90658 0.0
H726 H 0.42376 0.07218 0.08757 0.0
H727 H 0.35547 0.97597 0.97524 0.0
H728 H 0.32372 0.99806 0.20942 0.0
H729 H 0.37618 0.03934 0.14906 0.0
H730 H 0.35835 0.94147 1.04782 0.0
H731 H 0.30313 0.90048 0.10689 0.0
C732 C 0.40439 0.0842 1.0092 0.0
C733 C 0.38163 0.06882 0.96013 0.0
C734 C 0.40832 0.06 1.04796 0.0
C735 C 0.38708 0.02005 1.03986 0.0
C736 C 0.37091 0.00619 0.98518 0.0
C737 C 0.3682 0.03052 0.94559 0.0
C738 C 0.33131 0.98536 0.17455 0.0
C739 C 0.30808 0.94681 0.16001 0.0
C740 C 0.36214 0.00901 0.14005 0.0
C741 C 0.37022 0.99433 0.09037 0.0
C742 C 0.35135 0.95429 0.08312 0.0
C743 C 0.31963 0.93077 0.11665 0.0
H744 H 0.41359 0.29184 0.59328 0.0
H745 H 0.35536 0.32967 0.70783 0.0
H746 H 0.41816 0.33809 0.52172 0.0
H747 H 0.35697 0.37312 0.63611 0.0
H748 H 0.3121 0.30953 0.4092 0.0
H749 H 0.36514 0.31905 0.4674 0.0
H750 H 0.36014 0.40954 0.56043 0.0
H751 H 0.30452 0.39755 0.50351 0.0
C752 C 0.40232 0.31051 0.60337 0.0
C753 C 0.38178 0.30562 0.65403 0.0
C754 C 0.40501 0.3371 0.56262 0.0
C755 C 0.38492 0.35689 0.57088 0.0
C756 C 0.37146 0.3574 0.62646 0.0
C757 C 0.36989 0.33181 0.66779 0.0
C758 C 0.32259 0.33171 0.44176 0.0
C759 C 0.30299 0.35114 0.45456 0.0
C760 C 0.35381 0.33793 0.47476 0.0
C761 C 0.36609 0.36391 0.52117 0.0
C762 C 0.35022 0.38785 0.52723 0.0
C763 C 0.31821 0.38084 0.49507 0.0
H764 H 0.11221 0.37372 0.05905 0.0
H765 H 0.05554 0.39117 0.20306 0.0
H766 H 0.06886 0.37948 0.99379 0.0
H767 H 0.01235 0.39796 0.13728 0.0
H768 H 0.91607 0.28629 1.04148 0.0
H769 H 0.96497 0.33651 0.0994 0.0
H770 H 0.02579 0.3957 0.94578 0.0
H771 H 0.97658 0.34457 0.88746 0.0
C772 C 0.0914 0.38033 0.07659 0.0
C773 C 0.08554 0.37964 0.13592 0.0
C774 C 0.06679 0.38432 1.03906 0.0
C775 C 0.03593 0.38732 0.06071 0.0
C776 C 0.03508 0.39431 0.11964 0.0
C777 C 0.05951 0.38997 0.15726 0.0
C778 C 0.93929 0.31055 1.02 0.0
C779 C 0.94374 0.31065 0.96039 0.0
C780 C 0.96715 0.33991 1.05318 0.0
C781 C 1.00007 0.36954 1.02712 0.0
C782 C 1.0012 0.37271 0.96698 0.0
C783 C 0.97325 0.34324 0.9337 0.0
H784 H 0.69563 0.9998 0.71894 0.0
H785 H 0.69913 0.09442 0.62713 0.0
H786 H 0.64218 0.95535 0.66181 0.0
H787 H 0.64301 0.04994 0.57185 0.0
H788 H 0.59771 0.88128 0.53202 0.0
H789 H 0.59052 0.92014 0.60563 0.0
H790 H 0.64849 0.01924 0.49494 0.0
H791 H 0.65283 0.98006 0.42137 0.0
C792 C 0.68404 0.011 0.68734 0.0
C793 C 0.70272 0.05004 0.67438 0.0
C794 C 0.65264 0.9855 0.65496 0.0
C795 C 0.63941 0.99882 0.6092 0.0
C796 C 0.65389 0.03852 0.60419 0.0
C797 C 0.68615 0.06401 0.63539 0.0
C798 C 0.60781 0.91122 0.52329 0.0
C799 C 0.62821 0.92854 0.47309 0.0
C800 C 0.60356 0.93348 0.5652 0.0
C801 C 0.6219 0.9735 0.55849 0.0
C802 C 0.63529 0.9889 0.50344 0.0
C803 C 0.63848 0.96648 0.46102 0.0
loop_
_geom_bond_atom_site_label_1
_geom_bond_atom_site_label_2
_geom_bond_distance
_geom_bond_site_symmetry_2
_ccdc_geom_bond_type
Cd0 N3 2.334 . S
Cd0 N29 2.304 . S
Cd0 O36 2.268 . S
Cd0 O39 2.273 . S
Cd0 O40 2.417 . S
Cd0 O41 2.330 . S
Cd1 N16 2.304 . S
Cd1 N20 2.334 . S
Cd1 O37 2.273 . S
Cd1 O38 2.268 . S
Cd1 O42 2.417 . S
Cd1 O43 2.330 . S
C2 N3 1.332 . S
C2 C6 1.381 . S
C2 H8 0.931 . S
N3 Cd0 2.334 . S
N3 C2 1.332 . S
N3 C7 1.328 . S
C4 C5 1.396 . S
C4 C7 1.378 . S
C4 H46 0.931 . S
C5 C4 1.396 . S
C5 C6 1.382 . S
C6 C2 1.381 . S
C6 C5 1.382 . S
C6 H47 0.930 . S
C7 N3 1.328 . S
C7 C4 1.378 . S
C7 H9 0.930 . S
H8 C2 0.931 . S
H9 C7 0.930 . S
C10 O36 1.238 . S
C10 O37 1.253 . S
C11 C12 1.379 . S
C11 N16 1.337 . S
C11 H17 0.929 . S
C12 C11 1.379 . S
C12 C13 1.380 . S
C12 H48 0.929 . S
C13 C12 1.380 . S
C13 C14 1.399 . S
C14 C13 1.399 . S
C14 C15 1.376 . S
C14 H49 0.931 . S
C15 C14 1.376 . S
C15 N16 1.338 . S
C15 H18 0.930 . S
N16 Cd1 2.304 . S
N16 C11 1.337 . S
N16 C15 1.338 . S
H17 C11 0.929 . S
H18 C15 0.930 . S
C19 N20 1.332 . S
C19 C23 1.381 . S
C19 H25 0.931 . S
N20 Cd1 2.334 . S
N20 C19 1.332 . S
N20 C24 1.328 . S
C21 C22 1.396 . S
C21 C24 1.378 . S
C21 H50 0.931 . S
C22 C21 1.396 . S
C22 C23 1.382 . S
C23 C19 1.381 . S
C23 C22 1.382 . S
C23 H51 0.930 . S
C24 N20 1.328 . S
C24 C21 1.378 . S
C24 H26 0.930 . S
H25 C19 0.931 . S
H26 C24 0.930 . S
C27 O38 1.238 . S
C27 O39 1.253 . S
C28 O40 1.239 . S
C28 O41 1.230 . S
N29 Cd0 2.304 . S
N29 C30 1.337 . S
N29 C34 1.338 . S
C30 N29 1.337 . S
C30 C31 1.379 . S
C30 H44 0.929 . S
C31 C30 1.379 . S
C31 C32 1.380 . S
C31 H52 0.929 . S
C32 C31 1.380 . S
C32 C33 1.399 . S
C33 C32 1.399 . S
C33 C34 1.376 . S
C33 H53 0.931 . S
C34 N29 1.338 . S
C34 C33 1.376 . S
C34 H45 0.930 . S
C35 O42 1.239 . S
C35 O43 1.230 . S
O36 Cd0 2.268 . S
O36 C10 1.238 . S
O37 Cd1 2.273 . S
O37 C10 1.253 . S
O38 Cd1 2.268 . S
O38 C27 1.238 . S
O39 Cd0 2.273 . S
O39 C27 1.253 . S
O40 Cd0 2.417 . S
O40 C28 1.239 . S
O41 Cd0 2.330 . S
O41 C28 1.230 . S
O42 Cd1 2.417 . S
O42 C35 1.239 . S
O43 Cd1 2.330 . S
O43 C35 1.230 . S
H44 C30 0.929 . S
H45 C34 0.930 . S
H46 C4 0.931 . S
H47 C6 0.930 . S
H48 C12 0.929 . S
H49 C14 0.931 . S
H50 C21 0.931 . S
H51 C23 0.930 . S
H52 C31 0.929 . S
H53 C33 0.931 . S
Cd54 N57 2.334 . S
Cd54 N83 2.304 . S
Cd54 O90 2.268 . S
Cd54 O93 2.273 . S
Cd54 O94 2.417 . S
Cd54 O95 2.330 . S
Cd55 N70 2.304 . S
Cd55 N74 2.334 . S
Cd55 O91 2.273 . S
Cd55 O92 2.268 . S
Cd55 O96 2.417 . S
Cd55 O97 2.330 . S
C56 N57 1.332 . S
C56 C60 1.381 . S
C56 H62 0.931 . S
N57 Cd54 2.334 . S
N57 C56 1.332 . S
N57 C61 1.328 . S
C58 C59 1.396 . S
C58 C61 1.378 . S
C58 H100 0.931 . S
C59 C58 1.396 . S
C59 C60 1.382 . S
C60 C56 1.381 . S
C60 C59 1.382 . S
C60 H101 0.930 . S
C61 N57 1.328 . S
C61 C58 1.378 . S
C61 H63 0.930 . S
H62 C56 0.931 . S
H63 C61 0.930 . S
C64 O90 1.238 . S
C64 O91 1.253 . S
C65 C66 1.379 . S
C65 N70 1.337 . S
C65 H71 0.929 . S
C66 C65 1.379 . S
C66 C67 1.380 . S
C66 H102 0.929 . S
C67 C66 1.380 . S
C67 C68 1.399 . S
C68 C67 1.399 . S
C68 C69 1.376 . S
C68 H103 0.931 . S
C69 C68 1.376 . S
C69 N70 1.338 . S
C69 H72 0.930 . S
N70 Cd55 2.304 . S
N70 C65 1.337 . S
N70 C69 1.338 . S
H71 C65 0.929 . S
H72 C69 0.930 . S
C73 N74 1.332 . S
C73 C77 1.381 . S
C73 H79 0.931 . S
N74 Cd55 2.334 . S
N74 C73 1.332 . S
N74 C78 1.328 . S
C75 C76 1.396 . S
C75 C78 1.378 . S
C75 H104 0.931 . S
C76 C75 1.396 . S
C76 C77 1.382 . S
C77 C73 1.381 . S
C77 C76 1.382 . S
C77 H105 0.930 . S
C78 N74 1.328 . S
C78 C75 1.378 . S
C78 H80 0.930 . S
H79 C73 0.931 . S
H80 C78 0.930 . S
C81 O92 1.238 . S
C81 O93 1.253 . S
C82 O94 1.239 . S
C82 O95 1.230 . S
N83 Cd54 2.304 . S
N83 C84 1.337 . S
N83 C88 1.338 . S
C84 N83 1.337 . S
C84 C85 1.379 . S
C84 H98 0.929 . S
C85 C84 1.379 . S
C85 C86 1.380 . S
C85 H106 0.929 . S
C86 C85 1.380 . S
C86 C87 1.399 . S
C87 C86 1.399 . S
C87 C88 1.376 . S
C87 H107 0.931 . S
C88 N83 1.338 . S
C88 C87 1.376 . S
C88 H99 0.930 . S
C89 O96 1.239 . S
C89 O97 1.230 . S
O90 Cd54 2.268 . S
O90 C64 1.238 . S
O91 Cd55 2.273 . S
O91 C64 1.253 . S
O92 Cd55 2.268 . S
O92 C81 1.238 . S
O93 Cd54 2.273 . S
O93 C81 1.253 . S
O94 Cd54 2.417 . S
O94 C82 1.239 . S
O95 Cd54 2.330 . S
O95 C82 1.230 . S
O96 Cd55 2.417 . S
O96 C89 1.239 . S
O97 Cd55 2.330 . S
O97 C89 1.230 . S
H98 C84 0.929 . S
H99 C88 0.930 . S
H100 C58 0.931 . S
H101 C60 0.930 . S
H102 C66 0.929 . S
H103 C68 0.931 . S
H104 C75 0.931 . S
H105 C77 0.930 . S
H106 C85 0.929 . S
H107 C87 0.931 . S
Cd108 N111 2.334 . S
Cd108 N137 2.304 . S
Cd108 O144 2.268 . S
Cd108 O147 2.273 . S
Cd108 O148 2.417 . S
Cd108 O149 2.330 . S
Cd109 N124 2.304 . S
Cd109 N128 2.334 . S
Cd109 O145 2.273 . S
Cd109 O146 2.268 . S
Cd109 O150 2.417 . S
Cd109 O151 2.330 . S
C110 N111 1.332 . S
C110 C114 1.381 . S
C110 H116 0.931 . S
N111 Cd108 2.334 . S
N111 C110 1.332 . S
N111 C115 1.328 . S
C112 C113 1.396 . S
C112 C115 1.378 . S
C112 H154 0.931 . S
C113 C112 1.396 . S
C113 C114 1.382 . S
C114 C110 1.381 . S
C114 C113 1.382 . S
C114 H155 0.930 . S
C115 N111 1.328 . S
C115 C112 1.378 . S
C115 H117 0.930 . S
H116 C110 0.931 . S
H117 C115 0.930 . S
C118 O144 1.238 . S
C118 O145 1.253 . S
C119 C120 1.379 . S
C119 N124 1.337 . S
C119 H125 0.929 . S
C120 C119 1.379 . S
C120 C121 1.380 . S
C120 H156 0.929 . S
C121 C120 1.380 . S
C121 C122 1.399 . S
C122 C121 1.399 . S
C122 C123 1.376 . S
C122 H157 0.931 . S
C123 C122 1.376 . S
C123 N124 1.338 . S
C123 H126 0.930 . S
N124 Cd109 2.304 . S
N124 C119 1.337 . S
N124 C123 1.338 . S
H125 C119 0.929 . S
H126 C123 0.930 . S
C127 N128 1.332 . S
C127 C131 1.381 . S
C127 H133 0.931 . S
N128 Cd109 2.334 . S
N128 C127 1.332 . S
N128 C132 1.328 . S
C129 C130 1.396 . S
C129 C132 1.378 . S
C129 H158 0.931 . S
C130 C129 1.396 . S
C130 C131 1.382 . S
C131 C127 1.381 . S
C131 C130 1.382 . S
C131 H159 0.930 . S
C132 N128 1.328 . S
C132 C129 1.378 . S
C132 H134 0.930 . S
H133 C127 0.931 . S
H134 C132 0.930 . S
C135 O146 1.238 . S
C135 O147 1.253 . S
C136 O148 1.239 . S
C136 O149 1.230 . S
N137 Cd108 2.304 . S
N137 C138 1.337 . S
N137 C142 1.338 . S
C138 N137 1.337 . S
C138 C139 1.379 . S
C138 H152 0.929 . S
C139 C138 1.379 . S
C139 C140 1.380 . S
C139 H160 0.929 . S
C140 C139 1.380 . S
C140 C141 1.399 . S
C141 C140 1.399 . S
C141 C142 1.376 . S
C141 H161 0.931 . S
C142 N137 1.338 . S
C142 C141 1.376 . S
C142 H153 0.930 . S
C143 O150 1.239 . S
C143 O151 1.230 . S
O144 Cd108 2.268 . S
O144 C118 1.238 . S
O145 Cd109 2.273 . S
O145 C118 1.253 . S
O146 Cd109 2.268 . S
O146 C135 1.238 . S
O147 Cd108 2.273 . S
O147 C135 1.253 . S
O148 Cd108 2.417 . S
O148 C136 1.239 . S
O149 Cd108 2.330 . S
O149 C136 1.230 . S
O150 Cd109 2.417 . S
O150 C143 1.239 . S
O151 Cd109 2.330 . S
O151 C143 1.230 . S
H152 C138 0.929 . S
H153 C142 0.930 . S
H154 C112 0.931 . S
H155 C114 0.930 . S
H156 C120 0.929 . S
H157 C122 0.931 . S
H158 C129 0.931 . S
H159 C131 0.930 . S
H160 C139 0.929 . S
H161 C141 0.931 . S
Cd162 N165 2.334 . S
Cd162 N191 2.304 . S
Cd162 O198 2.268 . S
Cd162 O201 2.273 . S
Cd162 O202 2.417 . S
Cd162 O203 2.330 . S
Cd163 N178 2.304 . S
Cd163 N182 2.334 . S
Cd163 O199 2.273 . S
Cd163 O200 2.268 . S
Cd163 O204 2.417 . S
Cd163 O205 2.330 . S
C164 N165 1.332 . S
C164 C168 1.381 . S
C164 H170 0.931 . S
N165 Cd162 2.334 . S
N165 C164 1.332 . S
N165 C169 1.328 . S
C166 C167 1.396 . S
C166 C169 1.378 . S
C166 H208 0.931 . S
C167 C166 1.396 . S
C167 C168 1.382 . S
C168 C164 1.381 . S
C168 C167 1.382 . S
C168 H209 0.930 . S
C169 N165 1.328 . S
C169 C166 1.378 . S
C169 H171 0.930 . S
H170 C164 0.931 . S
H171 C169 0.930 . S
C172 O198 1.238 . S
C172 O199 1.253 . S
C173 C174 1.379 . S
C173 N178 1.337 . S
C173 H179 0.929 . S
C174 C173 1.379 . S
C174 C175 1.380 . S
C174 H210 0.929 . S
C175 C174 1.380 . S
C175 C176 1.399 . S
C176 C175 1.399 . S
C176 C177 1.376 . S
C176 H211 0.931 . S
C177 C176 1.376 . S
C177 N178 1.338 . S
C177 H180 0.930 . S
N178 Cd163 2.304 . S
N178 C173 1.337 . S
N178 C177 1.338 . S
H179 C173 0.929 . S
H180 C177 0.930 . S
C181 N182 1.332 . S
C181 C185 1.381 . S
C181 H187 0.931 . S
N182 Cd163 2.334 . S
N182 C181 1.332 . S
N182 C186 1.328 . S
C183 C184 1.396 . S
C183 C186 1.378 . S
C183 H212 0.931 . S
C184 C183 1.396 . S
C184 C185 1.382 . S
C185 C181 1.381 . S
C185 C184 1.382 . S
C185 H213 0.930 . S
C186 N182 1.328 . S
C186 C183 1.378 . S
C186 H188 0.930 . S
H187 C181 0.931 . S
H188 C186 0.930 . S
C189 O200 1.238 . S
C189 O201 1.253 . S
C190 O202 1.239 . S
C190 O203 1.230 . S
N191 Cd162 2.304 . S
N191 C192 1.337 . S
N191 C196 1.338 . S
C192 N191 1.337 . S
C192 C193 1.379 . S
C192 H206 0.929 . S
C193 C192 1.379 . S
C193 C194 1.380 . S
C193 H214 0.929 . S
C194 C193 1.380 . S
C194 C195 1.399 . S
C195 C194 1.399 . S
C195 C196 1.376 . S
C195 H215 0.931 . S
C196 N191 1.338 . S
C196 C195 1.376 . S
C196 H207 0.930 . S
C197 O204 1.239 . S
C197 O205 1.230 . S
O198 Cd162 2.268 . S
O198 C172 1.238 . S
O199 Cd163 2.273 . S
O199 C172 1.253 . S
O200 Cd163 2.268 . S
O200 C189 1.238 . S
O201 Cd162 2.273 . S
O201 C189 1.253 . S
O202 Cd162 2.417 . S
O202 C190 1.239 . S
O203 Cd162 2.330 . S
O203 C190 1.230 . S
O204 Cd163 2.417 . S
O204 C197 1.239 . S
O205 Cd163 2.330 . S
O205 C197 1.230 . S
H206 C192 0.929 . S
H207 C196 0.930 . S
H208 C166 0.931 . S
H209 C168 0.930 . S
H210 C174 0.929 . S
H211 C176 0.931 . S
H212 C183 0.931 . S
H213 C185 0.930 . S
H214 C193 0.929 . S
H215 C195 0.931 . S
Cd216 N219 2.334 . S
Cd216 N245 2.304 . S
Cd216 O252 2.268 . S
Cd216 O255 2.273 . S
Cd216 O256 2.417 . S
Cd216 O257 2.330 . S
Cd217 N232 2.304 . S
Cd217 N236 2.334 . S
Cd217 O253 2.273 . S
Cd217 O254 2.268 . S
Cd217 O258 2.417 . S
Cd217 O259 2.330 . S
C218 N219 1.332 . S
C218 C222 1.381 . S
C218 H224 0.931 . S
N219 Cd216 2.334 . S
N219 C218 1.332 . S
N219 C223 1.328 . S
C220 C221 1.396 . S
C220 C223 1.378 . S
C220 H262 0.931 . S
C221 C220 1.396 . S
C221 C222 1.382 . S
C222 C218 1.381 . S
C222 C221 1.382 . S
C222 H263 0.930 . S
C223 N219 1.328 . S
C223 C220 1.378 . S
C223 H225 0.930 . S
H224 C218 0.931 . S
H225 C223 0.930 . S
C226 O252 1.238 . S
C226 O253 1.253 . S
C227 C228 1.379 . S
C227 N232 1.337 . S
C227 H233 0.929 . S
C228 C227 1.379 . S
C228 C229 1.380 . S
C228 H264 0.929 . S
C229 C228 1.380 . S
C229 C230 1.399 . S
C230 C229 1.399 . S
C230 C231 1.376 . S
C230 H265 0.931 . S
C231 C230 1.376 . S
C231 N232 1.338 . S
C231 H234 0.930 . S
N232 Cd217 2.304 . S
N232 C227 1.337 . S
N232 C231 1.338 . S
H233 C227 0.929 . S
H234 C231 0.930 . S
C235 N236 1.332 . S
C235 C239 1.381 . S
C235 H241 0.931 . S
N236 Cd217 2.334 . S
N236 C235 1.332 . S
N236 C240 1.328 . S
C237 C238 1.396 . S
C237 C240 1.378 . S
C237 H266 0.931 . S
C238 C237 1.396 . S
C238 C239 1.382 . S
C239 C235 1.381 . S
C239 C238 1.382 . S
C239 H267 0.930 . S
C240 N236 1.328 . S
C240 C237 1.378 . S
C240 H242 0.930 . S
H241 C235 0.931 . S
H242 C240 0.930 . S
C243 O254 1.238 . S
C243 O255 1.253 . S
C244 O256 1.239 . S
C244 O257 1.230 . S
N245 Cd216 2.304 . S
N245 C246 1.337 . S
N245 C250 1.338 . S
C246 N245 1.337 . S
C246 C247 1.379 . S
C246 H260 0.929 . S
C247 C246 1.379 . S
C247 C248 1.380 . S
C247 H268 0.929 . S
C248 C247 1.380 . S
C248 C249 1.399 . S
C249 C248 1.399 . S
C249 C250 1.376 . S
C249 H269 0.931 . S
C250 N245 1.338 . S
C250 C249 1.376 . S
C250 H261 0.930 . S
C251 O258 1.239 . S
C251 O259 1.230 . S
O252 Cd216 2.268 . S
O252 C226 1.238 . S
O253 Cd217 2.273 . S
O253 C226 1.253 . S
O254 Cd217 2.268 . S
O254 C243 1.238 . S
O255 Cd216 2.273 . S
O255 C243 1.253 . S
O256 Cd216 2.417 . S
O256 C244 1.239 . S
O257 Cd216 2.330 . S
O257 C244 1.230 . S
O258 Cd217 2.417 . S
O258 C251 1.239 . S
O259 Cd217 2.330 . S
O259 C251 1.230 . S
H260 C246 0.929 . S
H261 C250 0.930 . S
H262 C220 0.931 . S
H263 C222 0.930 . S
H264 C228 0.929 . S
H265 C230 0.931 . S
H266 C237 0.931 . S
H267 C239 0.930 . S
H268 C247 0.929 . S
H269 C249 0.931 . S
Cd270 N273 2.334 . S
Cd270 N299 2.304 . S
Cd270 O306 2.268 . S
Cd270 O309 2.273 . S
Cd270 O310 2.417 . S
Cd270 O311 2.330 . S
Cd271 N286 2.304 . S
Cd271 N290 2.334 . S
Cd271 O307 2.273 . S
Cd271 O308 2.268 . S
Cd271 O312 2.417 . S
Cd271 O313 2.330 . S
C272 N273 1.332 . S
C272 C276 1.381 . S
C272 H278 0.931 . S
N273 Cd270 2.334 . S
N273 C272 1.332 . S
N273 C277 1.328 . S
C274 C275 1.396 . S
C274 C277 1.378 . S
C274 H316 0.931 . S
C275 C274 1.396 . S
C275 C276 1.382 . S
C276 C272 1.381 . S
C276 C275 1.382 . S
C276 H317 0.930 . S
C277 N273 1.328 . S
C277 C274 1.378 . S
C277 H279 0.930 . S
H278 C272 0.931 . S
H279 C277 0.930 . S
C280 O306 1.238 . S
C280 O307 1.253 . S
C281 C282 1.379 . S
C281 N286 1.337 . S
C281 H287 0.929 . S
C282 C281 1.379 . S
C282 C283 1.380 . S
C282 H318 0.929 . S
C283 C282 1.380 . S
C283 C284 1.399 . S
C284 C283 1.399 . S
C284 C285 1.376 . S
C284 H319 0.931 . S
C285 C284 1.376 . S
C285 N286 1.338 . S
C285 H288 0.930 . S
N286 Cd271 2.304 . S
N286 C281 1.337 . S
N286 C285 1.338 . S
H287 C281 0.929 . S
H288 C285 0.930 . S
C289 N290 1.332 . S
C289 C293 1.381 . S
C289 H295 0.931 . S
N290 Cd271 2.334 . S
N290 C289 1.332 . S
N290 C294 1.328 . S
C291 C292 1.396 . S
C291 C294 1.378 . S
C291 H320 0.931 . S
C292 C291 1.396 . S
C292 C293 1.382 . S
C293 C289 1.381 . S
C293 C292 1.382 . S
C293 H321 0.930 . S
C294 N290 1.328 . S
C294 C291 1.378 . S
C294 H296 0.930 . S
H295 C289 0.931 . S
H296 C294 0.930 . S
C297 O308 1.238 . S
C297 O309 1.253 . S
C298 O310 1.239 . S
C298 O311 1.230 . S
N299 Cd270 2.304 . S
N299 C300 1.337 . S
N299 C304 1.338 . S
C300 N299 1.337 . S
C300 C301 1.379 . S
C300 H314 0.929 . S
C301 C300 1.379 . S
C301 C302 1.380 . S
C301 H322 0.929 . S
C302 C301 1.380 . S
C302 C303 1.399 . S
C303 C302 1.399 . S
C303 C304 1.376 . S
C303 H323 0.931 . S
C304 N299 1.338 . S
C304 C303 1.376 . S
C304 H315 0.930 . S
C305 O312 1.239 . S
C305 O313 1.230 . S
O306 Cd270 2.268 . S
O306 C280 1.238 . S
O307 Cd271 2.273 . S
O307 C280 1.253 . S
O308 Cd271 2.268 . S
O308 C297 1.238 . S
O309 Cd270 2.273 . S
O309 C297 1.253 . S
O310 Cd270 2.417 . S
O310 C298 1.239 . S
O311 Cd270 2.330 . S
O311 C298 1.230 . S
O312 Cd271 2.417 . S
O312 C305 1.239 . S
O313 Cd271 2.330 . S
O313 C305 1.230 . S
H314 C300 0.929 . S
H315 C304 0.930 . S
H316 C274 0.931 . S
H317 C276 0.930 . S
H318 C282 0.929 . S
H319 C284 0.931 . S
H320 C291 0.931 . S
H321 C293 0.930 . S
H322 C301 0.929 . S
H323 C303 0.931 . S
H324 C332 0.950 . S
H325 C337 0.950 . S
H326 C334 0.950 . S
H327 C336 0.950 . S
H328 C338 0.950 . S
H329 C340 0.950 . S
H330 C342 0.950 . S
H331 C343 0.950 . S
C332 H324 0.950 . S
C332 C333 1.386 . S
C332 C334 1.391 . S
C333 C332 1.386 . S
C333 C337 1.393 . S
C334 H326 0.950 . S
C334 C332 1.391 . S
C334 C335 1.400 . S
C335 C334 1.400 . S
C335 C336 1.398 . S
C335 C341 1.491 . S
C336 H327 0.950 . S
C336 C335 1.398 . S
C336 C337 1.391 . S
C337 H325 0.950 . S
C337 C333 1.393 . S
C337 C336 1.391 . S
C338 H328 0.950 . S
C338 C339 1.386 . S
C338 C340 1.391 . S
C339 C338 1.386 . S
C339 C343 1.393 . S
C340 H329 0.950 . S
C340 C338 1.391 . S
C340 C341 1.400 . S
C341 C335 1.491 . S
C341 C340 1.400 . S
C341 C342 1.398 . S
C342 H330 0.950 . S
C342 C341 1.398 . S
C342 C343 1.391 . S
C343 H331 0.950 . S
C343 C339 1.393 . S
C343 C342 1.391 . S
H344 C352 0.950 . S
H345 C357 0.950 . S
H346 C354 0.950 . S
H347 C356 0.950 . S
H348 C358 0.950 . S
H349 C360 0.950 . S
H350 C362 0.950 . S
H351 C363 0.950 . S
C352 H344 0.950 . S
C352 C353 1.386 . S
C352 C354 1.391 . S
C353 C352 1.386 . S
C353 C357 1.393 . S
C354 H346 0.950 . S
C354 C352 1.391 . S
C354 C355 1.400 . S
C355 C354 1.400 . S
C355 C356 1.398 . S
C355 C361 1.491 . S
C356 H347 0.950 . S
C356 C355 1.398 . S
C356 C357 1.391 . S
C357 H345 0.950 . S
C357 C353 1.393 . S
C357 C356 1.391 . S
C358 H348 0.950 . S
C358 C359 1.386 . S
C358 C360 1.391 . S
C359 C358 1.386 . S
C359 C363 1.393 . S
C360 H349 0.950 . S
C360 C358 1.391 . S
C360 C361 1.400 . S
C361 C355 1.491 . S
C361 C360 1.400 . S
C361 C362 1.398 . S
C362 H350 0.950 . S
C362 C361 1.398 . S
C362 C363 1.391 . S
C363 H351 0.950 . S
C363 C359 1.393 . S
C363 C362 1.391 . S
H364 C372 0.950 . S
H365 C377 0.950 . S
H366 C374 0.950 . S
H367 C376 0.950 . S
H368 C378 0.950 . S
H369 C380 0.950 . S
H370 C382 0.950 . S
H371 C383 0.950 . S
C372 H364 0.950 . S
C372 C373 1.386 . S
C372 C374 1.391 . S
C373 C372 1.386 . S
C373 C377 1.393 . S
C374 H366 0.950 . S
C374 C372 1.391 . S
C374 C375 1.400 . S
C375 C374 1.400 . S
C375 C376 1.398 . S
C375 C381 1.491 . S
C376 H367 0.950 . S
C376 C375 1.398 . S
C376 C377 1.391 . S
C377 H365 0.950 . S
C377 C373 1.393 . S
C377 C376 1.391 . S
C378 H368 0.950 . S
C378 C379 1.386 . S
C378 C380 1.391 . S
C379 C378 1.386 . S
C379 C383 1.393 . S
C380 H369 0.950 . S
C380 C378 1.391 . S
C380 C381 1.400 . S
C381 C375 1.491 . S
C381 C380 1.400 . S
C381 C382 1.398 . S
C382 H370 0.950 . S
C382 C381 1.398 . S
C382 C383 1.391 . S
C383 H371 0.950 . S
C383 C379 1.393 . S
C383 C382 1.391 . S
H384 C392 0.950 . S
H385 C397 0.950 . S
H386 C394 0.950 . S
H387 C396 0.950 . S
H388 C398 0.950 . S
H389 C400 0.950 . S
H390 C402 0.950 . S
H391 C403 0.950 . S
C392 H384 0.950 . S
C392 C393 1.386 . S
C392 C394 1.391 . S
C393 C392 1.386 . S
C393 C397 1.393 . S
C394 H386 0.950 . S
C394 C392 1.391 . S
C394 C395 1.400 . S
C395 C394 1.400 . S
C395 C396 1.398 . S
C395 C401 1.491 . S
C396 H387 0.950 . S
C396 C395 1.398 . S
C396 C397 1.391 . S
C397 H385 0.950 . S
C397 C393 1.393 . S
C397 C396 1.391 . S
C398 H388 0.950 . S
C398 C399 1.386 . S
C398 C400 1.391 . S
C399 C398 1.386 . S
C399 C403 1.393 . S
C400 H389 0.950 . S
C400 C398 1.391 . S
C400 C401 1.400 . S
C401 C395 1.491 . S
C401 C400 1.400 . S
C401 C402 1.398 . S
C402 H390 0.950 . S
C402 C401 1.398 . S
C402 C403 1.391 . S
C403 H391 0.950 . S
C403 C399 1.393 . S
C403 C402 1.391 . S
H404 C412 0.950 . S
H405 C417 0.950 . S
H406 C414 0.950 . S
H407 C416 0.950 . S
H408 C418 0.950 . S
H409 C420 0.950 . S
H410 C422 0.950 . S
H411 C423 0.950 . S
C412 H404 0.950 . S
C412 C413 1.386 . S
C412 C414 1.391 . S
C413 C412 1.386 . S
C413 C417 1.393 . S
C414 H406 0.950 . S
C414 C412 1.391 . S
C414 C415 1.400 . S
C415 C414 1.400 . S
C415 C416 1.398 . S
C415 C421 1.491 . S
C416 H407 0.950 . S
C416 C415 1.398 . S
C416 C417 1.391 . S
C417 H405 0.950 . S
C417 C413 1.393 . S
C417 C416 1.391 . S
C418 H408 0.950 . S
C418 C419 1.386 . S
C418 C420 1.391 . S
C419 C418 1.386 . S
C419 C423 1.393 . S
C420 H409 0.950 . S
C420 C418 1.391 . S
C420 C421 1.400 . S
C421 C415 1.491 . S
C421 C420 1.400 . S
C421 C422 1.398 . S
C422 H410 0.950 . S
C422 C421 1.398 . S
C422 C423 1.391 . S
C423 H411 0.950 . S
C423 C419 1.393 . S
C423 C422 1.391 . S
H424 C432 0.950 . S
H425 C437 0.950 . S
H426 C434 0.950 . S
H427 C436 0.950 . S
H428 C438 0.950 . S
H429 C440 0.950 . S
H430 C442 0.950 . S
H431 C443 0.950 . S
C432 H424 0.950 . S
C432 C433 1.386 . S
C432 C434 1.391 . S
C433 C432 1.386 . S
C433 C437 1.393 . S
C434 H426 0.950 . S
C434 C432 1.391 . S
C434 C435 1.400 . S
C435 C434 1.400 . S
C435 C436 1.398 . S
C435 C441 1.491 . S
C436 H427 0.950 . S
C436 C435 1.398 . S
C436 C437 1.391 . S
C437 H425 0.950 . S
C437 C433 1.393 . S
C437 C436 1.391 . S
C438 H428 0.950 . S
C438 C439 1.386 . S
C438 C440 1.391 . S
C439 C438 1.386 . S
C439 C443 1.393 . S
C440 H429 0.950 . S
C440 C438 1.391 . S
C440 C441 1.400 . S
C441 C435 1.491 . S
C441 C440 1.400 . S
C441 C442 1.398 . S
C442 H430 0.950 . S
C442 C441 1.398 . S
C442 C443 1.391 . S
C443 H431 0.950 . S
C443 C439 1.393 . S
C443 C442 1.391 . S
H444 C452 0.950 . S
H445 C457 0.950 . S
H446 C454 0.950 . S
H447 C456 0.950 . S
H448 C458 0.950 . S
H449 C460 0.950 . S
H450 C462 0.950 . S
H451 C463 0.950 . S
C452 H444 0.950 . S
C452 C453 1.386 . S
C452 C454 1.391 . S
C453 C452 1.386 . S
C453 C457 1.393 . S
C454 H446 0.950 . S
C454 C452 1.391 . S
C454 C455 1.400 . S
C455 C454 1.400 . S
C455 C456 1.398 . S
C455 C461 1.491 . S
C456 H447 0.950 . S
C456 C455 1.398 . S
C456 C457 1.391 . S
C457 H445 0.950 . S
C457 C453 1.393 . S
C457 C456 1.391 . S
C458 H448 0.950 . S
C458 C459 1.386 1_545 S
C458 C460 1.391 . S
C459 C458 1.386 1_565 S
C459 C463 1.393 . S
C460 H449 0.950 . S
C460 C458 1.391 . S
C460 C461 1.400 . S
C461 C455 1.491 . S
C461 C460 1.400 . S
C461 C462 1.398 . S
C462 H450 0.950 . S
C462 C461 1.398 . S
C462 C463 1.391 1_545 S
C463 H451 0.950 . S
C463 C459 1.393 . S
C463 C462 1.391 1_565 S
H464 C472 0.950 . S
H465 C477 0.950 . S
H466 C474 0.950 . S
H467 C476 0.950 . S
H468 C478 0.950 . S
H469 C480 0.950 . S
H470 C482 0.950 . S
H471 C483 0.950 . S
C472 H464 0.950 . S
C472 C473 1.386 . S
C472 C474 1.391 1_655 S
C473 C472 1.386 . S
C473 C477 1.393 . S
C474 H466 0.950 . S
C474 C472 1.391 1_455 S
C474 C475 1.400 . S
C475 C474 1.400 . S
C475 C476 1.398 . S
C475 C481 1.491 . S
C476 H467 0.950 . S
C476 C475 1.398 . S
C476 C477 1.391 1_455 S
C477 H465 0.950 . S
C477 C473 1.393 . S
C477 C476 1.391 1_655 S
C478 H468 0.950 . S
C478 C479 1.386 . S
C478 C480 1.391 . S
C479 C478 1.386 . S
C479 C483 1.393 . S
C480 H469 0.950 . S
C480 C478 1.391 . S
C480 C481 1.400 . S
C481 C475 1.491 . S
C481 C480 1.400 . S
C481 C482 1.398 . S
C482 H470 0.950 . S
C482 C481 1.398 . S
C482 C483 1.391 . S
C483 H471 0.950 . S
C483 C479 1.393 . S
C483 C482 1.391 . S
H484 C492 0.950 . S
H485 C497 0.941 . S
H486 C494 0.950 . S
H487 C496 0.950 . S
H488 C498 0.950 . S
H489 C500 0.950 . S
H490 C502 0.950 . S
H491 C503 0.950 . S
C492 H484 0.950 . S
C492 C493 1.386 . S
C492 C494 1.391 1_455 S
C493 C492 1.386 . S
C493 C497 1.413 . S
C494 H486 0.950 . S
C494 C492 1.391 1_655 S
C494 C495 1.400 . S
C495 C494 1.400 . S
C495 C496 1.398 . S
C495 C501 1.491 . S
C496 H487 0.950 . S
C496 C495 1.398 . S
C496 C497 1.379 1_655 S
C497 H485 0.941 . S
C497 C493 1.413 . S
C497 C496 1.379 1_455 S
C498 H488 0.950 . S
C498 C499 1.386 1_545 S
C498 C500 1.391 . S
C499 C498 1.386 1_565 S
C499 C503 1.393 . S
C500 H489 0.950 . S
C500 C498 1.391 . S
C500 C501 1.400 . S
C501 C495 1.491 . S
C501 C500 1.400 . S
C501 C502 1.398 . S
C502 H490 0.950 . S
C502 C501 1.398 . S
C502 C503 1.391 1_545 S
C503 H491 0.950 . S
C503 C499 1.393 . S
C503 C502 1.391 1_565 S
H504 C512 0.950 . S
H505 C517 0.950 . S
H506 C514 0.950 . S
H507 C516 0.950 . S
H508 C518 0.950 . S
H509 C520 0.950 . S
H510 C522 0.950 . S
H511 C523 0.950 . S
C512 H504 0.950 . S
C512 C513 1.386 1_565 S
C512 C514 1.391 . S
C513 C512 1.386 1_545 S
C513 C517 1.393 . S
C514 H506 0.950 . S
C514 C512 1.391 . S
C514 C515 1.400 . S
C515 C514 1.400 . S
C515 C516 1.398 . S
C515 C521 1.491 . S
C516 H507 0.950 . S
C516 C515 1.398 . S
C516 C517 1.391 1_565 S
C517 H505 0.950 . S
C517 C513 1.393 . S
C517 C516 1.391 1_545 S
C518 H508 0.950 . S
C518 C519 1.386 . S
C518 C520 1.391 . S
C519 C518 1.386 . S
C519 C523 1.393 . S
C520 H509 0.950 . S
C520 C518 1.391 . S
C520 C521 1.400 . S
C521 C515 1.491 . S
C521 C520 1.400 . S
C521 C522 1.398 . S
C522 H510 0.950 . S
C522 C521 1.398 . S
C522 C523 1.391 . S
C523 H511 0.950 . S
C523 C519 1.393 . S
C523 C522 1.391 . S
H524 C532 0.950 . S
H525 C537 0.950 . S
H526 C534 0.950 . S
H527 C536 0.950 . S
H528 C538 0.950 . S
H529 C540 0.950 . S
H530 C542 0.950 . S
H531 C543 0.950 . S
C532 H524 0.950 . S
C532 C533 1.386 . S
C532 C534 1.391 . S
C533 C532 1.386 . S
C533 C537 1.393 . S
C534 H526 0.950 . S
C534 C532 1.391 . S
C534 C535 1.400 . S
C535 C534 1.400 . S
C535 C536 1.398 . S
C535 C541 1.491 . S
C536 H527 0.950 . S
C536 C535 1.398 . S
C536 C537 1.391 . S
C537 H525 0.950 . S
C537 C533 1.393 . S
C537 C536 1.391 . S
C538 H528 0.950 . S
C538 C539 1.386 . S
C538 C540 1.391 1_455 S
C539 C538 1.386 . S
C539 C543 1.393 1_455 S
C540 H529 0.950 . S
C540 C538 1.391 1_655 S
C540 C541 1.400 . S
C541 C535 1.491 . S
C541 C540 1.400 . S
C541 C542 1.398 . S
C542 H530 0.950 . S
C542 C541 1.398 . S
C542 C543 1.391 . S
C543 H531 0.950 . S
C543 C539 1.393 1_655 S
C543 C542 1.391 . S
H544 C552 0.950 . S
H545 C557 0.950 . S
H546 C554 0.950 . S
H547 C556 0.950 . S
H548 C558 0.950 . S
H549 C560 0.950 . S
H550 C562 0.950 . S
H551 C563 0.950 . S
C552 H544 0.950 . S
C552 C553 1.386 1_565 S
C552 C554 1.391 . S
C553 C552 1.386 1_545 S
C553 C557 1.393 . S
C554 H546 0.950 . S
C554 C552 1.391 . S
C554 C555 1.400 . S
C555 C554 1.400 . S
C555 C556 1.398 . S
C555 C561 1.491 . S
C556 H547 0.950 . S
C556 C555 1.398 . S
C556 C557 1.391 1_565 S
C557 H545 0.950 . S
C557 C553 1.393 . S
C557 C556 1.391 1_545 S
C558 H548 0.950 . S
C558 C559 1.386 . S
C558 C560 1.391 1_655 S
C559 C558 1.386 . S
C559 C563 1.393 . S
C560 H549 0.950 . S
C560 C558 1.391 1_455 S
C560 C561 1.400 . S
C561 C555 1.491 . S
C561 C560 1.400 . S
C561 C562 1.398 . S
C562 H550 0.950 . S
C562 C561 1.398 . S
C562 C563 1.391 1_455 S
C563 H551 0.950 . S
C563 C559 1.393 . S
C563 C562 1.391 1_655 S
H564 C572 0.950 . S
H565 C577 0.950 . S
H566 C574 0.950 . S
H567 C576 0.950 . S
H568 C578 0.950 . S
H569 C580 0.950 . S
H570 C582 0.950 . S
H571 C583 0.950 . S
C572 H564 0.950 . S
C572 C573 1.386 . S
C572 C574 1.391 . S
C573 C572 1.386 . S
C573 C577 1.393 . S
C574 H566 0.950 . S
C574 C572 1.391 . S
C574 C575 1.400 . S
C575 C574 1.400 . S
C575 C576 1.398 . S
C575 C581 1.491 1_554 S
C576 H567 0.950 . S
C576 C575 1.398 . S
C576 C577 1.391 . S
C577 H565 0.950 . S
C577 C573 1.393 . S
C577 C576 1.391 . S
C578 H568 0.950 . S
C578 C579 1.386 . S
C578 C580 1.391 . S
C579 C578 1.386 . S
C579 C583 1.393 . S
C580 H569 0.950 . S
C580 C578 1.391 . S
C580 C581 1.400 . S
C581 C575 1.491 1_556 S
C581 C580 1.400 . S
C581 C582 1.398 . S
C582 H570 0.950 . S
C582 C581 1.398 . S
C582 C583 1.391 . S
C583 H571 0.950 . S
C583 C579 1.393 . S
C583 C582 1.391 . S
H584 C592 0.950 . S
H585 C597 0.950 . S
H586 C594 0.950 . S
H587 C596 0.950 . S
H588 C598 0.950 . S
H589 C600 0.950 . S
H590 C602 0.950 . S
H591 C603 0.950 . S
C592 H584 0.950 . S
C592 C593 1.386 . S
C592 C594 1.391 . S
C593 C592 1.386 . S
C593 C597 1.393 . S
C594 H586 0.950 . S
C594 C592 1.391 . S
C594 C595 1.400 . S
C595 C594 1.400 . S
C595 C596 1.398 . S
C595 C601 1.491 1_655 S
C596 H587 0.950 . S
C596 C595 1.398 . S
C596 C597 1.391 . S
C597 H585 0.950 . S
C597 C593 1.393 . S
C597 C596 1.391 . S
C598 H588 0.950 . S
C598 C599 1.386 . S
C598 C600 1.391 . S
C599 C598 1.386 . S
C599 C603 1.393 . S
C600 H589 0.950 . S
C600 C598 1.391 . S
C600 C601 1.400 . S
C601 C595 1.491 1_455 S
C601 C600 1.400 . S
C601 C602 1.398 . S
C602 H590 0.950 . S
C602 C601 1.398 . S
C602 C603 1.391 . S
C603 H591 0.950 . S
C603 C599 1.393 . S
C603 C602 1.391 . S
H604 C612 0.950 . S
H605 C617 0.950 . S
H606 C614 0.950 1_545 S
H607 C616 0.950 1_556 S
H608 C618 0.950 . S
H609 C620 0.950 1_565 S
H610 C622 0.950 1_554 S
H611 C623 0.950 . S
C612 H604 0.950 . S
C612 C613 1.386 . S
C612 C614 1.391 . S
C613 C612 1.386 . S
C613 C617 1.393 . S
C614 H606 0.950 1_565 S
C614 C612 1.391 . S
C614 C615 1.400 . S
C615 C614 1.400 . S
C615 C616 1.398 . S
C615 C621 1.491 1_564 S
C616 H607 0.950 1_554 S
C616 C615 1.398 . S
C616 C617 1.391 . S
C617 H605 0.950 . S
C617 C613 1.393 . S
C617 C616 1.391 . S
C618 H608 0.950 . S
C618 C619 1.386 . S
C618 C620 1.391 . S
C619 C618 1.386 . S
C619 C623 1.393 . S
C620 H609 0.950 1_545 S
C620 C618 1.391 . S
C620 C621 1.400 . S
C621 C615 1.491 1_546 S
C621 C620 1.400 . S
C621 C622 1.398 . S
C622 H610 0.950 1_556 S
C622 C621 1.398 . S
C622 C623 1.391 . S
C623 H611 0.950 . S
C623 C619 1.393 . S
C623 C622 1.391 . S
H624 C632 0.950 . S
H625 C637 0.950 . S
H626 C634 0.950 . S
H627 C636 0.950 . S
H628 C638 0.950 . S
H629 C640 0.950 . S
H630 C642 0.950 . S
H631 C643 0.950 . S
C632 H624 0.950 . S
C632 C633 1.386 . S
C632 C634 1.391 . S
C633 C632 1.386 . S
C633 C637 1.393 . S
C634 H626 0.950 . S
C634 C632 1.391 . S
C634 C635 1.400 . S
C635 C634 1.400 . S
C635 C636 1.398 . S
C635 C641 1.491 . S
C636 H627 0.950 . S
C636 C635 1.398 . S
C636 C637 1.391 . S
C637 H625 0.950 . S
C637 C633 1.393 . S
C637 C636 1.391 . S
C638 H628 0.950 . S
C638 C639 1.386 . S
C638 C640 1.391 . S
C639 C638 1.386 . S
C639 C643 1.393 . S
C640 H629 0.950 . S
C640 C638 1.391 . S
C640 C641 1.400 . S
C641 C635 1.491 . S
C641 C640 1.400 . S
C641 C642 1.398 . S
C642 H630 0.950 . S
C642 C641 1.398 . S
C642 C643 1.391 . S
C643 H631 0.950 . S
C643 C639 1.393 . S
C643 C642 1.391 . S
H644 C652 0.950 . S
H645 C657 0.950 . S
H646 C654 0.950 . S
H647 C656 0.950 . S
H648 C658 0.950 . S
H649 C660 0.950 . S
H650 C662 0.950 . S
H651 C663 0.950 . S
C652 H644 0.950 . S
C652 C653 1.386 . S
C652 C654 1.391 . S
C653 C652 1.386 . S
C653 C657 1.393 . S
C654 H646 0.950 . S
C654 C652 1.391 . S
C654 C655 1.400 . S
C655 C654 1.400 . S
C655 C656 1.398 . S
C655 C661 1.491 1_656 S
C656 H647 0.950 . S
C656 C655 1.398 . S
C656 C657 1.391 . S
C657 H645 0.950 . S
C657 C653 1.393 . S
C657 C656 1.391 . S
C658 H648 0.950 . S
C658 C659 1.386 . S
C658 C660 1.391 . S
C659 C658 1.386 . S
C659 C663 1.393 . S
C660 H649 0.950 . S
C660 C658 1.391 . S
C660 C661 1.400 . S
C661 C655 1.491 1_454 S
C661 C660 1.400 . S
C661 C662 1.398 . S
C662 H650 0.950 . S
C662 C661 1.398 . S
C662 C663 1.391 . S
C663 H651 0.950 . S
C663 C659 1.393 . S
C663 C662 1.391 . S
H664 C672 0.950 . S
H665 C677 0.950 . S
H666 C674 0.950 1_565 S
H667 C676 0.950 . S
H668 C678 0.950 . S
H669 C680 0.950 1_545 S
H670 C682 0.950 . S
H671 C683 0.950 . S
C672 H664 0.950 . S
C672 C673 1.386 . S
C672 C674 1.391 . S
C673 C672 1.386 . S
C673 C677 1.393 . S
C674 H666 0.950 1_545 S
C674 C672 1.391 . S
C674 C675 1.400 . S
C675 C674 1.400 . S
C675 C676 1.398 . S
C675 C681 1.491 1_545 S
C676 H667 0.950 . S
C676 C675 1.398 . S
C676 C677 1.391 . S
C677 H665 0.950 . S
C677 C673 1.393 . S
C677 C676 1.391 . S
C678 H668 0.950 . S
C678 C679 1.386 . S
C678 C680 1.391 . S
C679 C678 1.386 . S
C679 C683 1.393 . S
C680 H669 0.950 1_565 S
C680 C678 1.391 . S
C680 C681 1.400 . S
C681 C675 1.491 1_565 S
C681 C680 1.400 . S
C681 C682 1.398 . S
C682 H670 0.950 . S
C682 C681 1.398 . S
C682 C683 1.391 . S
C683 H671 0.950 . S
C683 C679 1.393 . S
C683 C682 1.391 . S
H684 C692 0.950 . S
H685 C697 0.950 . S
H686 C694 0.950 . S
H687 C696 0.950 . S
H688 C698 0.950 . S
H689 C700 0.950 . S
H690 C702 0.950 . S
H691 C703 0.950 . S
C692 H684 0.950 . S
C692 C693 1.386 . S
C692 C694 1.391 . S
C693 C692 1.386 . S
C693 C697 1.393 . S
C694 H686 0.950 . S
C694 C692 1.391 . S
C694 C695 1.400 . S
C695 C694 1.400 . S
C695 C696 1.398 . S
C695 C701 1.491 1_556 S
C696 H687 0.950 . S
C696 C695 1.398 . S
C696 C697 1.391 . S
C697 H685 0.950 . S
C697 C693 1.393 . S
C697 C696 1.391 . S
C698 H688 0.950 . S
C698 C699 1.386 . S
C698 C700 1.391 . S
C699 C698 1.386 . S
C699 C703 1.393 . S
C700 H689 0.950 . S
C700 C698 1.391 . S
C700 C701 1.400 . S
C701 C695 1.491 1_554 S
C701 C700 1.400 . S
C701 C702 1.398 . S
C702 H690 0.950 . S
C702 C701 1.398 . S
C702 C703 1.391 . S
C703 H691 0.950 . S
C703 C699 1.393 . S
C703 C702 1.391 . S
H704 C712 0.950 . S
H705 C717 0.950 . S
H706 C714 0.950 . S
H707 C716 0.950 . S
H708 C718 0.950 . S
H709 C720 0.950 . S
H710 C722 0.950 . S
H711 C723 0.950 . S
C712 H704 0.950 . S
C712 C713 1.386 . S
C712 C714 1.391 . S
C713 C712 1.386 . S
C713 C717 1.393 . S
C714 H706 0.950 . S
C714 C712 1.391 . S
C714 C715 1.400 . S
C715 C714 1.400 . S
C715 C716 1.398 . S
C715 C721 1.491 1_455 S
C716 H707 0.950 . S
C716 C715 1.398 . S
C716 C717 1.391 . S
C717 H705 0.950 . S
C717 C713 1.393 . S
C717 C716 1.391 . S
C718 H708 0.950 . S
C718 C719 1.386 . S
C718 C720 1.391 . S
C719 C718 1.386 . S
C719 C723 1.393 . S
C720 H709 0.950 . S
C720 C718 1.391 . S
C720 C721 1.400 . S
C721 C715 1.491 1_655 S
C721 C720 1.400 . S
C721 C722 1.398 . S
C722 H710 0.950 . S
C722 C721 1.398 . S
C722 C723 1.391 . S
C723 H711 0.950 . S
C723 C719 1.393 . S
C723 C722 1.391 . S
H724 C732 0.950 . S
H725 C737 0.950 . S
H726 C734 0.950 . S
H727 C736 0.950 . S
H728 C738 0.950 . S
H729 C740 0.950 . S
H730 C742 0.950 . S
H731 C743 0.950 . S
C732 H724 0.950 . S
C732 C733 1.386 . S
C732 C734 1.391 . S
C733 C732 1.386 . S
C733 C737 1.393 . S
C734 H726 0.950 . S
C734 C732 1.391 . S
C734 C735 1.400 . S
C735 C734 1.400 . S
C735 C736 1.398 . S
C735 C741 1.491 1_546 S
C736 H727 0.950 . S
C736 C735 1.398 . S
C736 C737 1.391 . S
C737 H725 0.950 . S
C737 C733 1.393 . S
C737 C736 1.391 . S
C738 H728 0.950 . S
C738 C739 1.386 . S
C738 C740 1.391 . S
C739 C738 1.386 . S
C739 C743 1.393 . S
C740 H729 0.950 . S
C740 C738 1.391 . S
C740 C741 1.400 . S
C741 C735 1.491 1_564 S
C741 C740 1.400 . S
C741 C742 1.398 . S
C742 H730 0.950 . S
C742 C741 1.398 . S
C742 C743 1.391 . S
C743 H731 0.950 . S
C743 C739 1.393 . S
C743 C742 1.391 . S
H744 C752 0.950 . S
H745 C757 0.950 . S
H746 C754 0.950 . S
H747 C756 0.950 . S
H748 C758 0.950 . S
H749 C760 0.950 . S
H750 C762 0.950 . S
H751 C763 0.950 . S
C752 H744 0.950 . S
C752 C753 1.386 . S
C752 C754 1.391 . S
C753 C752 1.386 . S
C753 C757 1.393 . S
C754 H746 0.950 . S
C754 C752 1.391 . S
C754 C755 1.400 . S
C755 C754 1.400 . S
C755 C756 1.398 . S
C755 C761 1.491 . S
C756 H747 0.950 . S
C756 C755 1.398 . S
C756 C757 1.391 . S
C757 H745 0.950 . S
C757 C753 1.393 . S
C757 C756 1.391 . S
C758 H748 0.950 . S
C758 C759 1.386 . S
C758 C760 1.391 . S
C759 C758 1.386 . S
C759 C763 1.393 . S
C760 H749 0.950 . S
C760 C758 1.391 . S
C760 C761 1.400 . S
C761 C755 1.491 . S
C761 C760 1.400 . S
C761 C762 1.398 . S
C762 H750 0.950 . S
C762 C761 1.398 . S
C762 C763 1.391 . S
C763 H751 0.950 . S
C763 C759 1.393 . S
C763 C762 1.391 . S
H764 C772 0.950 . S
H765 C777 0.950 . S
H766 C774 0.950 1_556 S
H767 C776 0.950 1_655 S
H768 C778 0.950 . S
H769 C780 0.950 1_554 S
H770 C782 0.950 1_455 S
H771 C783 0.950 . S
C772 H764 0.950 . S
C772 C773 1.386 . S
C772 C774 1.391 . S
C773 C772 1.386 . S
C773 C777 1.393 . S
C774 H766 0.950 1_554 S
C774 C772 1.391 . S
C774 C775 1.400 . S
C775 C774 1.400 . S
C775 C776 1.398 . S
C775 C781 1.491 1_454 S
C776 H767 0.950 1_455 S
C776 C775 1.398 . S
C776 C777 1.391 . S
C777 H765 0.950 . S
C777 C773 1.393 . S
C777 C776 1.391 . S
C778 H768 0.950 . S
C778 C779 1.386 . S
C778 C780 1.391 . S
C779 C778 1.386 . S
C779 C783 1.393 . S
C780 H769 0.950 1_556 S
C780 C778 1.391 . S
C780 C781 1.400 . S
C781 C775 1.491 1_656 S
C781 C780 1.400 . S
C781 C782 1.398 . S
C782 H770 0.950 1_655 S
C782 C781 1.398 . S
C782 C783 1.391 . S
C783 H771 0.950 . S
C783 C779 1.393 . S
C783 C782 1.391 . S
H784 C792 0.950 . S
H785 C797 0.950 . S
H786 C794 0.950 . S
H787 C796 0.950 . S
H788 C798 0.950 . S
H789 C800 0.950 . S
H790 C802 0.950 . S
H791 C803 0.950 . S
C792 H784 0.950 . S
C792 C793 1.386 . S
C792 C794 1.391 . S
C793 C792 1.386 . S
C793 C797 1.393 . S
C794 H786 0.950 . S
C794 C792 1.391 . S
C794 C795 1.400 . S
C795 C794 1.400 . S
C795 C796 1.398 . S
C795 C801 1.491 1_545 S
C796 H787 0.950 . S
C796 C795 1.398 . S
C796 C797 1.391 . S
C797 H785 0.950 . S
C797 C793 1.393 . S
C797 C796 1.391 . S
C798 H788 0.950 . S
C798 C799 1.386 . S
C798 C800 1.391 . S
C799 C798 1.386 . S
C799 C803 1.393 . S
C800 H789 0.950 . S
C800 C798 1.391 . S
C800 C801 1.400 . S
C801 C795 1.491 1_565 S
C801 C800 1.400 . S
C801 C802 1.398 . S
C802 H790 0.950 . S
C802 C801 1.398 . S
C802 C803 1.391 . S
C803 H791 0.950 . S
C803 C799 1.393 . S
C803 C802 1.391 . S
C333 C32 2.015 . S
C339 C229 2.004 . S
C353 C302 2.017 . S
C359 C67 1.999 . S
C373 C13 2.013 . S
C379 C140 1.999 . S
C393 C86 2.013 . S
C399 C175 1.999 . S
C413 C248 2.010 . S
C419 C121 2.000 . S
C433 C283 2.006 . S
C439 C194 2.014 . S
C453 C22 1.103 . S
C459 C221 1.097 . S
C473 C59 1.114 . S
C479 C292 1.090 . S
C493 C5 1.107 . S
C499 C130 1.094 . S
C513 C76 1.122 . S
C519 C167 1.100 . S
C533 C113 1.097 . S
C539 C238 1.123 . S
C553 C275 1.124 . S
C559 C184 1.095 . S
C573 C10 2.580 . S
C579 C280 2.582 . S
C593 C81 2.581 . S
C599 C27 2.580 . S
C613 C118 2.590 . S
C619 C64 2.593 . S
C633 C189 2.593 . S
C639 C135 2.593 . S
C653 C172 2.580 . S
C659 C226 2.580 . S
C673 C297 2.584 . S
C679 C243 2.589 . S
C693 C190 0.693 . S
C699 C136 0.680 . S
C713 C251 0.681 . S
C719 C197 0.682 . S
C733 C298 0.676 . S
C739 C244 0.687 . S
C753 C305 0.682 . S
C759 C35 0.681 . S
C773 C28 0.673 . S
C779 C82 0.700 . S
C793 C89 0.692 . S
C799 C143 0.682 . S
