# Generated by pormake.
# Topology umm, (4)-cn, num edge types: 1
# Building blocks:
#     Node 0, Type 0, BuildingBlock: ICAMEG_clean_sbu_1, # of connection points: 4
#     Node 1, Type 0, BuildingBlock: ICAMEG_clean_sbu_1, # of connection points: 4
#     Node 2, Type 0, BuildingBlock: ICAMEG_clean_sbu_1, # of connection points: 4
#     Node 3, Type 0, BuildingBlock: ICAMEG_clean_sbu_1, # of connection points: 4
#     Node 4, Type 0, BuildingBlock: ICAMEG_clean_sbu_1, # of connection points: 4
#     Node 5, Type 0, BuildingBlock: ICAMEG_clean_sbu_1, # of connection points: 4
#     Node 6, Type 0, BuildingBlock: ICAMEG_clean_sbu_1, # of connection points: 4
#     Node 7, Type 0, BuildingBlock: ICAMEG_clean_sbu_1, # of connection points: 4
#     Node 8, Type 0, BuildingBlock: ICAMEG_clean_sbu_1, # of connection points: 4
#     Node 9, Type 0, BuildingBlock: ICAMEG_clean_sbu_1, # of connection points: 4
#     Node 10, Type 0, BuildingBlock: ICAMEG_clean_sbu_1, # of connection points: 4
#     Node 11, Type 0, BuildingBlock: ICAMEG_clean_sbu_1, # of connection points: 4
#     Edge 12, Type (0, 0), BuildingBlock: XIVTED_clean_linker_0, # of connection points: 2
#     Edge 13, Type (0, 0), BuildingBlock: XIVTED_clean_linker_0, # of connection points: 2
#     Edge 14, Type (0, 0), BuildingBlock: XIVTED_clean_linker_0, # of connection points: 2
#     Edge 15, Type (0, 0), BuildingBlock: XIVTED_clean_linker_0, # of connection points: 2
#     Edge 16, Type (0, 0), BuildingBlock: XIVTED_clean_linker_0, # of connection points: 2
#     Edge 17, Type (0, 0), BuildingBlock: XIVTED_clean_linker_0, # of connection points: 2
#     Edge 18, Type (0, 0), BuildingBlock: XIVTED_clean_linker_0, # of connection points: 2
#     Edge 19, Type (0, 0), BuildingBlock: XIVTED_clean_linker_0, # of connection points: 2
#     Edge 20, Type (0, 0), BuildingBlock: XIVTED_clean_linker_0, # of connection points: 2
#     Edge 21, Type (0, 0), BuildingBlock: XIVTED_clean_linker_0, # of connection points: 2
#     Edge 22, Type (0, 0), BuildingBlock: XIVTED_clean_linker_0, # of connection points: 2
#     Edge 23, Type (0, 0), BuildingBlock: XIVTED_clean_linker_0, # of connection points: 2
#     Edge 24, Type (0, 0), BuildingBlock: XIVTED_clean_linker_0, # of connection points: 2
#     Edge 25, Type (0, 0), BuildingBlock: XIVTED_clean_linker_0, # of connection points: 2
#     Edge 26, Type (0, 0), BuildingBlock: XIVTED_clean_linker_0, # of connection points: 2
#     Edge 27, Type (0, 0), BuildingBlock: XIVTED_clean_linker_0, # of connection points: 2
#     Edge 28, Type (0, 0), BuildingBlock: XIVTED_clean_linker_0, # of connection points: 2
#     Edge 29, Type (0, 0), BuildingBlock: XIVTED_clean_linker_0, # of connection points: 2
#     Edge 30, Type (0, 0), BuildingBlock: XIVTED_clean_linker_0, # of connection points: 2
#     Edge 31, Type (0, 0), BuildingBlock: XIVTED_clean_linker_0, # of connection points: 2
#     Edge 32, Type (0, 0), BuildingBlock: XIVTED_clean_linker_0, # of connection points: 2
#     Edge 33, Type (0, 0), BuildingBlock: XIVTED_clean_linker_0, # of connection points: 2
#     Edge 34, Type (0, 0), BuildingBlock: XIVTED_clean_linker_0, # of connection points: 2
#     Edge 35, Type (0, 0), BuildingBlock: XIVTED_clean_linker_0, # of connection points: 2
# Relax obj value: 0.064
# Max RMSD: 0.165
# Mean RMSD: 0.165
data_MOF--net-umm--node1-ICAMEG_clean_sbu_1--edge1-XIVTED_clean_linker_0
_symmetry_space_group_name_H-M    P1
_symmetry_Int_Tables_number       1
_symmetry_cell_setting            triclinic
loop_
_symmetry_equiv_pos_as_xyz
'x, y, z'
_cell_length_a     60.715982
_cell_length_b     60.716141
_cell_length_c     30.647395
_cell_angle_alpha  90.016349
_cell_angle_beta   89.995875
_cell_angle_gamma 119.82632
loop_
_atom_site_label
_atom_site_type_symbol
_atom_site_fract_x
_atom_site_fract_y
_atom_site_fract_z
_atom_type_partial_charge
Co0 Co 0.379 0.50757 0.04294 0.0
Co1 Co 0.42512 0.56908 0.06795 0.0
O2 O 0.39067 0.54032 0.07117 0.0
C3 C 0.3479 0.52744 0.0063 0.0
O4 O 0.36945 0.54861 0.00077 0.0
C5 C 0.41506 0.55714 0.16068 0.0
O6 O 0.40467 0.53321 0.14919 0.0
O7 O 0.43996 0.54697 0.07945 0.0
O8 O 0.41019 0.50701 0.06224 0.0
H9 H 0.51632 0.61547 0.01985 0.0
H10 H 0.34489 0.51406 0.10439 0.0
O11 O 0.3478 0.50812 0.02281 0.0
H12 H 0.35702 0.44615 0.16759 0.0
H13 H 0.31272 0.41907 -0.00045 0.0
H14 H 0.40314 0.48455 -0.01032 0.0
H15 H 0.37732 0.46624 0.09781 0.0
H16 H 0.32857 0.46064 0.03547 0.0
O17 O 0.42442 0.57458 0.13199 0.0
H18 H 0.47262 0.57921 0.02333 0.0
H19 H 0.45107 0.62063 0.108 0.0
H20 H 0.38816 0.44318 0.95358 0.0
H21 H 0.32406 0.49436 0.17406 0.0
H22 H 0.34265 0.4101 0.9584 0.0
H23 H 0.33015 0.46021 0.20618 0.0
O24 O 0.3963 0.52405 0.98744 0.0
H25 H 0.36464 0.60173 0.0931 0.0
H26 H 0.43479 0.60889 0.00176 0.0
H27 H 0.41553 0.63535 0.98492 0.0
H28 H 0.38017 0.63183 0.03075 0.0
H29 H 0.38436 0.57552 0.10862 0.0
H30 H 0.49459 0.65727 0.10572 0.0
H31 H 0.52753 0.65485 0.06125 0.0
O32 O 0.42656 0.56384 0.00427 0.0
C33 C 0.43244 0.52338 0.07514 0.0
C34 C 0.50211 0.61679 0.03921 0.0
C35 C 0.48992 0.64024 0.08745 0.0
N36 N 0.45928 0.59791 0.06551 0.0
C37 C 0.47732 0.59636 0.04119 0.0
C38 C 0.46533 0.61942 0.08868 0.0
C39 C 0.50839 0.63887 0.06249 0.0
C40 C 0.3474 0.49902 0.11793 0.0
N41 N 0.36218 0.49121 0.09696 0.0
C42 C 0.33566 0.48802 0.15748 0.0
C43 C 0.33912 0.46889 0.17552 0.0
C44 C 0.3542 0.461 0.1539 0.0
C45 C 0.36569 0.47247 0.11445 0.0
C46 C 0.33261 0.43331 -0.00271 0.0
C47 C 0.38334 0.47018 -0.00785 0.0
C48 C 0.34167 0.45689 0.01748 0.0
N49 N 0.36678 0.47489 0.01495 0.0
C50 C 0.37495 0.44683 0.97154 0.0
C51 C 0.34941 0.42829 0.97422 0.0
C52 C 0.41475 0.5458 0.97713 0.0
C53 C 0.38009 0.6035 0.07299 0.0
C54 C 0.41944 0.60729 0.02189 0.0
C55 C 0.40862 0.62233 0.01222 0.0
C56 C 0.38879 0.62036 0.03796 0.0
N57 N 0.41081 0.5908 0.05632 0.0
C58 C 0.3914 0.58879 0.08175 0.0
Co59 Co 0.86977 0.3753 0.37992 0.0
Co60 Co 0.85557 0.42148 0.4123 0.0
O61 O 0.8517 0.38765 0.41616 0.0
C62 C 0.81593 0.34152 0.3618 0.0
O63 O 0.81477 0.36247 0.35912 0.0
C64 C 0.86857 0.41681 0.50245 0.0
O65 O 0.88124 0.40631 0.48658 0.0
O66 O 0.89307 0.43746 0.41193 0.0
O67 O 0.90251 0.40797 0.38794 0.0
H68 H 0.89152 0.50996 0.35318 0.0
H69 H 0.83826 0.34383 0.45372 0.0
O70 O 0.83701 0.34265 0.37047 0.0
H71 H 0.92522 0.36181 0.48605 0.0
H72 H 0.88948 0.30867 0.32618 0.0
H73 H 0.90887 0.39738 0.31044 0.0
H74 H 0.91607 0.37795 0.41858 0.0
H75 H 0.86773 0.32544 0.37203 0.0
O76 O 0.85658 0.42383 0.4772 0.0
H77 H 0.88617 0.46699 0.35758 0.0
H78 H 0.83347 0.44828 0.4614 0.0
H79 H 0.93121 0.38147 0.26415 0.0
H80 H 0.84652 0.32716 0.52141 0.0
H81 H 0.92154 0.33681 0.27189 0.0
H82 H 0.89029 0.3362 0.53799 0.0
O83 O 0.86302 0.3892 0.32631 0.0
H84 H 0.76784 0.3612 0.46747 0.0
H85 H 0.81774 0.42693 0.35808 0.0
H86 H 0.771 0.40616 0.35701 0.0
H87 H 0.74573 0.37303 0.41199 0.0
H88 H 0.81462 0.38233 0.46716 0.0
H89 H 0.83841 0.49112 0.4584 0.0
H90 H 0.86753 0.52225 0.40386 0.0
O91 O 0.85504 0.42002 0.34737 0.0
C92 C 0.90879 0.43035 0.40085 0.0
C93 C 0.8787 0.49653 0.37698 0.0
C94 C 0.84892 0.48596 0.43607 0.0
N95 N 0.85934 0.45508 0.4094 0.0
C96 C 0.87553 0.47215 0.37952 0.0
C97 C 0.84623 0.46176 0.43766 0.0
C98 C 0.86526 0.50342 0.40545 0.0
C99 C 0.8573 0.34761 0.4605 0.0
N100 N 0.87663 0.36171 0.43215 0.0
C101 C 0.86188 0.33822 0.49897 0.0
C102 C 0.88645 0.34334 0.50828 0.0
C103 C 0.90607 0.35772 0.47917 0.0
C104 C 0.90078 0.36684 0.44106 0.0
C105 C 0.8939 0.32819 0.32259 0.0
C106 C 0.90472 0.37799 0.31423 0.0
C107 C 0.88163 0.33777 0.34842 0.0
N108 N 0.88724 0.36243 0.34421 0.0
C109 C 0.91736 0.36906 0.28782 0.0
C110 C 0.9119 0.34399 0.29214 0.0
C111 C 0.85802 0.40682 0.31809 0.0
C112 C 0.77864 0.37566 0.44343 0.0
C113 C 0.80687 0.41253 0.38211 0.0
C114 C 0.78041 0.40086 0.38138 0.0
C115 C 0.76625 0.38228 0.41225 0.0
N116 N 0.81888 0.40593 0.41281 0.0
C117 C 0.80513 0.38777 0.44322 0.0
Co118 Co 0.49623 0.87043 0.71095 0.0
Co119 Co 0.43478 0.85474 0.73788 0.0
O120 O 0.46486 0.85129 0.74402 0.0
C121 C 0.47675 0.81705 0.68914 0.0
O122 O 0.4549 0.81626 0.68449 0.0
C123 C 0.45062 0.86698 0.8288 0.0
O124 O 0.47392 0.88009 0.81401 0.0
O125 O 0.45561 0.89229 0.73789 0.0
O126 O 0.49584 0.90286 0.72146 0.0
H127 H 0.38233 0.88988 0.67429 0.0
H128 H 0.49381 0.83649 0.7827 0.0
O129 O 0.49647 0.83788 0.69951 0.0
H130 H 0.5615 0.92212 0.82469 0.0
H131 H 0.58394 0.89152 0.66362 0.0
H132 H 0.51546 0.91214 0.646 0.0
H133 H 0.5385 0.91524 0.75515 0.0
H134 H 0.54408 0.86827 0.7054 0.0
O135 O 0.43209 0.85527 0.80262 0.0
H136 H 0.42023 0.88514 0.68144 0.0
H137 H 0.38499 0.83177 0.78386 0.0
H138 H 0.55507 0.936 0.60383 0.0
H139 H 0.51643 0.84247 0.8524 0.0
H140 H 0.58964 0.92572 0.61253 0.0
H141 H 0.55048 0.88555 0.87385 0.0
O142 O 0.47737 0.86563 0.65552 0.0
H143 H 0.40799 0.7669 0.7923 0.0
H144 H 0.39319 0.8169 0.68129 0.0
H145 H 0.36813 0.77013 0.67898 0.0
H146 H 0.37549 0.74481 0.73477 0.0
H147 H 0.43273 0.8137 0.79323 0.0
H148 H 0.34677 0.83607 0.77807 0.0
H149 H 0.34525 0.86523 0.72284 0.0
O150 O 0.43728 0.85476 0.67333 0.0
C151 C 0.47881 0.90865 0.73078 0.0
C152 C 0.38272 0.87704 0.69837 0.0
C153 C 0.36278 0.84687 0.75665 0.0
N154 N 0.40471 0.858 0.73272 0.0
C155 C 0.4041 0.87421 0.70247 0.0
C156 C 0.38448 0.84453 0.75982 0.0
C157 C 0.36194 0.86322 0.72565 0.0
C158 C 0.50879 0.85524 0.7916 0.0
N159 N 0.51494 0.87546 0.76479 0.0
C160 C 0.52145 0.85853 0.83119 0.0
C161 C 0.54053 0.88272 0.84324 0.0
C162 C 0.54671 0.90325 0.81568 0.0
C163 C 0.53361 0.89925 0.77638 0.0
C164 C 0.56903 0.89621 0.65962 0.0
C165 C 0.5305 0.90769 0.65017 0.0
C166 C 0.54642 0.88308 0.68312 0.0
N167 N 0.52758 0.88901 0.67838 0.0
C168 C 0.55285 0.9212 0.62611 0.0
C169 C 0.57223 0.9154 0.63097 0.0
C170 C 0.45471 0.85976 0.64545 0.0
C171 C 0.40455 0.77772 0.76791 0.0
C172 C 0.39647 0.80601 0.7057 0.0
C173 C 0.38221 0.77953 0.70426 0.0
C174 C 0.38634 0.76534 0.73558 0.0
N175 N 0.41428 0.818 0.73754 0.0
C176 C 0.41841 0.80422 0.7684 0.0
Co177 Co 0.62074 0.49317 0.04333 0.0
Co178 Co 0.577 0.43091 0.06886 0.0
O179 O 0.6107 0.46079 0.07176 0.0
C180 C 0.65317 0.47502 0.00628 0.0
O181 O 0.63196 0.45348 0.00105 0.0
C182 C 0.58689 0.44366 0.16152 0.0
O183 O 0.59639 0.4674 0.14944 0.0
O184 O 0.56062 0.45159 0.08009 0.0
O185 O 0.58877 0.49215 0.06309 0.0
H186 H 0.48585 0.38058 0.02153 0.0
H187 H 0.65645 0.4889 0.10421 0.0
O188 O 0.65265 0.49407 0.02272 0.0
H189 H 0.64068 0.55445 0.16761 0.0
H190 H 0.68392 0.58253 -0.00124 0.0
H191 H 0.59458 0.51415 -0.00969 0.0
H192 H 0.62054 0.5336 0.09816 0.0
H193 H 0.66997 0.54138 0.03502 0.0
O194 O 0.57812 0.42597 0.13318 0.0
H195 H 0.52871 0.41821 0.02442 0.0
H196 H 0.55334 0.37962 0.10963 0.0
H197 H 0.60765 0.55506 0.95386 0.0
H198 H 0.67714 0.50941 0.17353 0.0
H199 H 0.65261 0.58959 0.95797 0.0
H200 H 0.66922 0.54237 0.20575 0.0
O201 O 0.60355 0.47606 0.98814 0.0
H202 H 0.64099 0.40278 0.09465 0.0
H203 H 0.5692 0.39138 0.00328 0.0
H204 H 0.59045 0.3667 0.9869 0.0
H205 H 0.62664 0.37235 0.03275 0.0
H206 H 0.61929 0.42718 0.10972 0.0
H207 H 0.51068 0.34161 0.10793 0.0
H208 H 0.47662 0.34192 0.0635 0.0
O209 O 0.57509 0.43561 0.00489 0.0
C210 C 0.5669 0.47489 0.07605 0.0
C211 C 0.50056 0.38017 0.04087 0.0
C212 C 0.51449 0.35832 0.08941 0.0
N213 N 0.54355 0.401 0.06681 0.0
C214 C 0.52488 0.40139 0.04252 0.0
C215 C 0.53858 0.37989 0.0903 0.0
C216 C 0.49539 0.3585 0.06446 0.0
C217 C 0.65314 0.50343 0.11778 0.0
N218 N 0.63743 0.51015 0.09705 0.0
C219 C 0.66481 0.51489 0.15714 0.0
C220 C 0.66032 0.53335 0.17524 0.0
C221 C 0.6443 0.54013 0.15387 0.0
C222 C 0.63292 0.52823 0.1146 0.0
C223 C 0.66426 0.56765 -0.00318 0.0
C224 C 0.61414 0.52916 -0.00751 0.0
C225 C 0.65627 0.54431 0.01721 0.0
N226 N 0.63145 0.5255 0.01509 0.0
C227 C 0.62144 0.55224 0.97167 0.0
C228 C 0.64668 0.5716 0.97395 0.0
C229 C 0.58599 0.45385 0.97776 0.0
C230 C 0.62519 0.40008 0.07454 0.0
C231 C 0.58491 0.39391 0.02342 0.0
C232 C 0.59685 0.37987 0.01401 0.0
C233 C 0.61715 0.38304 0.03976 0.0
N234 N 0.5929 0.41057 0.05761 0.0
C235 C 0.61276 0.41376 0.08304 0.0
Co236 Co 0.12941 0.62303 0.38068 0.0
Co237 Co 0.1427 0.57618 0.41273 0.0
O238 O 0.14695 0.61015 0.41704 0.0
C239 C 0.18347 0.65648 0.36387 0.0
O240 O 0.18439 0.6354 0.36098 0.0
C241 C 0.12923 0.58057 0.5027 0.0
O242 O 0.11678 0.59127 0.48669 0.0
O243 O 0.10524 0.56058 0.41157 0.0
O244 O 0.09641 0.59051 0.38775 0.0
H245 H 0.10629 0.48797 0.35206 0.0
H246 H 0.16055 0.6538 0.45539 0.0
O247 O 0.16243 0.65553 0.37218 0.0
H248 H 0.07367 0.63656 0.48611 0.0
H249 H 0.111 0.69064 0.32758 0.0
H250 H 0.09088 0.6018 0.3102 0.0
H251 H 0.08308 0.62068 0.41857 0.0
H252 H 0.13207 0.67321 0.37354 0.0
O253 O 0.14122 0.57348 0.47759 0.0
H254 H 0.11213 0.53112 0.357 0.0
H255 H 0.16394 0.54864 0.46191 0.0
H256 H 0.06921 0.61837 0.26378 0.0
H257 H 0.15203 0.6702 0.52318 0.0
H258 H 0.07924 0.66311 0.27234 0.0
H259 H 0.1083 0.66152 0.53895 0.0
O260 O 0.13636 0.60932 0.32702 0.0
H261 H 0.23024 0.63536 0.46996 0.0
H262 H 0.18059 0.57053 0.35906 0.0
H263 H 0.2273 0.59081 0.35898 0.0
H264 H 0.25244 0.62348 0.41472 0.0
H265 H 0.1835 0.61473 0.46866 0.0
H266 H 0.1585 0.50561 0.45839 0.0
H267 H 0.12958 0.47498 0.40302 0.0
O268 O 0.14371 0.57805 0.34783 0.0
C269 C 0.08977 0.56799 0.4003 0.0
C270 C 0.11902 0.50118 0.37622 0.0
C271 C 0.1483 0.51106 0.43593 0.0
N272 N 0.13855 0.54244 0.40941 0.0
C273 C 0.12246 0.52565 0.37907 0.0
C274 C 0.15127 0.53538 0.43782 0.0
C275 C 0.13207 0.49389 0.40485 0.0
C276 C 0.14154 0.65018 0.46182 0.0
N277 N 0.12237 0.63643 0.43298 0.0
C278 C 0.1368 0.65942 0.50035 0.0
C279 C 0.11225 0.65451 0.5092 0.0
C280 C 0.0928 0.64049 0.47959 0.0
C281 C 0.09823 0.63151 0.44144 0.0
C282 C 0.10641 0.6711 0.32363 0.0
C283 C 0.09518 0.62121 0.31435 0.0
C284 C 0.1183 0.66114 0.34952 0.0
N285 N 0.11248 0.63644 0.34486 0.0
C286 C 0.08292 0.63053 0.28786 0.0
C287 C 0.08859 0.65564 0.29265 0.0
C288 C 0.14115 0.59157 0.31867 0.0
C289 C 0.21949 0.62109 0.44559 0.0
C290 C 0.19141 0.58474 0.38341 0.0
C291 C 0.21784 0.59613 0.38324 0.0
C292 C 0.23194 0.61444 0.41455 0.0
N293 N 0.17934 0.59136 0.41399 0.0
C294 C 0.19302 0.60927 0.44482 0.0
Co295 Co 0.50508 0.12911 0.70618 0.0
Co296 Co 0.56673 0.14544 0.73288 0.0
O297 O 0.5366 0.14884 0.73858 0.0
C298 C 0.52412 0.18212 0.68213 0.0
O299 O 0.54599 0.18299 0.67719 0.0
C300 C 0.55131 0.1344 0.82412 0.0
O301 O 0.52797 0.1211 0.8096 0.0
O302 O 0.54604 0.10787 0.73442 0.0
O303 O 0.50571 0.09695 0.71803 0.0
H304 H 0.61918 0.10974 0.67137 0.0
H305 H 0.50768 0.16395 0.77648 0.0
O306 O 0.50457 0.16139 0.69344 0.0
H307 H 0.4405 0.07878 0.82168 0.0
H308 H 0.41699 0.10693 0.65927 0.0
H309 H 0.4857 0.08654 0.64288 0.0
H310 H 0.46318 0.0848 0.75202 0.0
H311 H 0.45705 0.13091 0.70027 0.0
O312 O 0.56975 0.14583 0.79768 0.0
H313 H 0.58119 0.11437 0.67799 0.0
H314 H 0.61676 0.16927 0.77818 0.0
H315 H 0.44589 0.06195 0.60152 0.0
H316 H 0.48536 0.15882 0.84625 0.0
H317 H 0.4112 0.07211 0.6096 0.0
H318 H 0.45157 0.11597 0.86931 0.0
O319 O 0.52369 0.13324 0.65068 0.0
H320 H 0.59335 0.23397 0.78332 0.0
H321 H 0.60794 0.18255 0.67488 0.0
H322 H 0.63275 0.22928 0.67052 0.0
H323 H 0.62549 0.2553 0.725 0.0
H324 H 0.56885 0.18718 0.78632 0.0
H325 H 0.65507 0.1651 0.77289 0.0
H326 H 0.65647 0.13523 0.71905 0.0
O327 O 0.56389 0.14446 0.66833 0.0
C328 C 0.52284 0.09136 0.72776 0.0
C329 C 0.61884 0.12289 0.69484 0.0
C330 C 0.63897 0.15394 0.75186 0.0
N331 N 0.59687 0.14226 0.72812 0.0
C332 C 0.59742 0.12566 0.69863 0.0
C333 C 0.61722 0.15619 0.75475 0.0
C334 C 0.63974 0.13718 0.72164 0.0
C335 C 0.49281 0.14529 0.78607 0.0
N336 N 0.48663 0.12473 0.7601 0.0
C337 C 0.48032 0.14248 0.82571 0.0
C338 C 0.46138 0.11843 0.83866 0.0
C339 C 0.45517 0.09755 0.81196 0.0
C340 C 0.4681 0.10107 0.77259 0.0
C341 C 0.43195 0.10229 0.65554 0.0
C342 C 0.47062 0.09095 0.64678 0.0
C343 C 0.45468 0.11583 0.67861 0.0
N344 N 0.47358 0.10997 0.67422 0.0
C345 C 0.44816 0.07702 0.62318 0.0
C346 C 0.42871 0.08275 0.62769 0.0
C347 C 0.54631 0.13901 0.64055 0.0
C348 C 0.59675 0.22283 0.7595 0.0
C349 C 0.60471 0.19375 0.69874 0.0
C350 C 0.61883 0.2202 0.69613 0.0
C351 C 0.61475 0.23479 0.72672 0.0
N352 N 0.58709 0.18217 0.73101 0.0
C353 C 0.58302 0.19634 0.76115 0.0
Co354 Co 0.4948 0.62184 0.59596 0.0
Co355 Co 0.43237 0.57826 0.57109 0.0
O356 O 0.46239 0.61187 0.56773 0.0
C357 C 0.47724 0.65485 0.63268 0.0
O358 O 0.45557 0.6338 0.63818 0.0
C359 C 0.44472 0.58762 0.47839 0.0
O360 O 0.4685 0.59689 0.49009 0.0
O361 O 0.45278 0.56153 0.56004 0.0
O362 O 0.49344 0.58966 0.57656 0.0
H363 H 0.38159 0.48739 0.61974 0.0
H364 H 0.4906 0.6574 0.53466 0.0
O365 O 0.49609 0.65399 0.61621 0.0
H366 H 0.55561 0.64083 0.47126 0.0
H367 H 0.58448 0.68471 0.63949 0.0
H368 H 0.51568 0.59561 0.64906 0.0
H369 H 0.53491 0.6211 0.54101 0.0
H370 H 0.54326 0.6709 0.60357 0.0
O371 O 0.42719 0.57916 0.50696 0.0
H372 H 0.41944 0.53007 0.61615 0.0
H373 H 0.38094 0.55475 0.53082 0.0
H374 H 0.55666 0.60854 0.68517 0.0
H375 H 0.51096 0.67769 0.46504 0.0
H376 H 0.5914 0.65338 0.68049 0.0
H377 H 0.54365 0.66937 0.43282 0.0
O378 O 0.4778 0.60494 0.65142 0.0
H379 H 0.40475 0.64262 0.54484 0.0
H380 H 0.39321 0.57106 0.63699 0.0
H381 H 0.36884 0.59266 0.65331 0.0
H382 H 0.37457 0.62873 0.60706 0.0
H383 H 0.42884 0.62058 0.52984 0.0
H384 H 0.34272 0.51228 0.5332 0.0
H385 H 0.34287 0.47827 0.57805 0.0
O386 O 0.43728 0.57659 0.63483 0.0
C387 C 0.47607 0.56772 0.56411 0.0
C388 C 0.38125 0.50207 0.60021 0.0
C389 C 0.35945 0.51603 0.5516 0.0
N390 N 0.4023 0.54493 0.57365 0.0
C391 C 0.4026 0.52629 0.59817 0.0
C392 C 0.38115 0.54003 0.55032 0.0
C393 C 0.35955 0.49696 0.57677 0.0
C394 C 0.50501 0.65391 0.52108 0.0
N395 N 0.51167 0.63821 0.54198 0.0
C396 C 0.51638 0.66536 0.48155 0.0
C397 C 0.5347 0.66065 0.46346 0.0
C398 C 0.54141 0.64462 0.485 0.0
C399 C 0.5296 0.63347 0.52443 0.0
C400 C 0.5695 0.66511 0.64168 0.0
C401 C 0.53077 0.61512 0.64665 0.0
C402 C 0.54612 0.6572 0.62149 0.0
N403 N 0.52719 0.63244 0.62394 0.0
C404 C 0.5539 0.62234 0.66727 0.0
C405 C 0.57338 0.64752 0.66467 0.0
C406 C 0.45556 0.58743 0.66184 0.0
C407 C 0.40203 0.62687 0.56513 0.0
C408 C 0.39577 0.58672 0.61668 0.0
C409 C 0.38191 0.59886 0.62606 0.0
C410 C 0.38512 0.61909 0.60009 0.0
N411 N 0.41229 0.59445 0.58231 0.0
C412 C 0.41552 0.61424 0.55667 0.0
Co413 Co 0.86823 0.49141 0.93866 0.0
Co414 Co 0.85419 0.43032 0.91244 0.0
O415 O 0.8506 0.46024 0.90443 0.0
C416 C 0.81409 0.47157 0.95419 0.0
O417 O 0.81294 0.44955 0.95883 0.0
C418 C 0.86991 0.44674 0.82251 0.0
O419 O 0.88222 0.46999 0.83776 0.0
O420 O 0.89167 0.45148 0.91665 0.0
O421 O 0.90108 0.49146 0.93235 0.0
H422 H 0.88748 0.37813 0.98355 0.0
H423 H 0.83687 0.48914 0.86275 0.0
O424 O 0.83529 0.49135 0.94594 0.0
H425 H 0.92357 0.55779 0.82916 0.0
H426 H 0.88689 0.57855 0.98496 0.0
H427 H 0.90742 0.51038 0.00816 0.0
H428 H 0.91437 0.53432 0.89863 0.0
H429 H 0.8655 0.53902 0.94185 0.0
O430 O 0.85731 0.42807 0.84802 0.0
H431 H 0.88258 0.4158 0.97381 0.0
H432 H 0.83356 0.38089 0.86577 0.0
H433 H 0.92941 0.54966 0.05176 0.0
H434 H 0.84518 0.51224 0.79301 0.0
H435 H 0.91917 0.58408 0.04026 0.0
H436 H 0.88881 0.54678 0.7758 0.0
O437 O 0.8615 0.47216 -0.0058 0.0
H438 H 0.76854 0.403 0.84695 0.0
H439 H 0.81445 0.38807 0.96554 0.0
H440 H 0.76773 0.36256 0.96238 0.0
H441 H 0.74447 0.36998 0.90276 0.0
H442 H 0.81524 0.42819 0.85151 0.0
H443 H 0.83809 0.34292 0.8741 0.0
H444 H 0.86513 0.34134 0.93345 0.0
O445 O 0.85158 0.4323 0.97669 0.0
C446 C 0.9075 0.47472 0.92466 0.0
C447 C 0.87557 0.37855 0.95766 0.0
C448 C 0.84787 0.3588 0.8962 0.0
N449 N 0.85761 0.40043 0.91954 0.0
C450 C 0.87266 0.39979 0.95208 0.0
C451 C 0.84542 0.38036 0.8916 0.0
C452 C 0.86305 0.35793 0.92951 0.0
C453 C 0.85584 0.50433 0.85567 0.0
N454 N 0.87508 0.51048 0.88481 0.0
C455 C 0.86046 0.51726 0.81606 0.0
C456 C 0.88496 0.53662 0.80639 0.0
C457 C 0.90447 0.54279 0.83631 0.0
C458 C 0.89916 0.52942 0.87556 0.0
C459 C 0.89155 0.56371 -0.0098 0.0
C460 C 0.90299 0.52535 0.00278 0.0
C461 C 0.87948 0.54128 0.96596 0.0
N462 N 0.88538 0.52253 0.97226 0.0
C463 C 0.91544 0.54751 0.02765 0.0
C464 C 0.90967 0.56681 0.02122 0.0
C465 C 0.85532 0.44945 0.00445 0.0
C466 C 0.77846 0.39954 0.873 0.0
C467 C 0.80446 0.39139 0.93948 0.0
C468 C 0.77801 0.37687 0.93784 0.0
C469 C 0.76497 0.38104 0.90436 0.0
N470 N 0.81756 0.40949 0.90858 0.0
C471 C 0.80491 0.41366 0.87563 0.0
Co472 Co 0.37803 0.8688 0.26718 0.0
Co473 Co 0.42355 0.85297 0.23858 0.0
O474 O 0.38971 0.84899 0.23443 0.0
C475 C 0.34555 0.81611 0.29468 0.0
O476 O 0.36674 0.8154 0.29713 0.0
C477 C 0.41766 0.86362 0.14772 0.0
O478 O 0.40697 0.87626 0.16286 0.0
O479 O 0.43978 0.89052 0.23691 0.0
O480 O 0.41 0.90107 0.25276 0.0
H481 H 0.51238 0.8899 0.29669 0.0
H482 H 0.34468 0.83251 0.19966 0.0
O483 O 0.34606 0.83649 0.28273 0.0
H484 H 0.35961 0.91637 0.15173 0.0
H485 H 0.31214 0.89038 0.31766 0.0
H486 H 0.40186 0.9124 0.32831 0.0
H487 H 0.37826 0.91194 0.22039 0.0
H488 H 0.32796 0.86624 0.27612 0.0
O489 O 0.42545 0.85259 0.17366 0.0
H490 H 0.46943 0.88457 0.29202 0.0
H491 H 0.44992 0.82975 0.19154 0.0
H492 H 0.38691 0.93717 0.37015 0.0
H493 H 0.32551 0.83604 0.13093 0.0
H494 H 0.34175 0.92619 0.36495 0.0
H495 H 0.33301 0.87823 0.1065 0.0
O496 O 0.39399 0.86584 0.3218 0.0
H497 H 0.3626 0.76411 0.18903 0.0
H498 H 0.4292 0.81633 0.29565 0.0
H499 H 0.40826 0.76963 0.29996 0.0
H500 H 0.3747 0.74321 0.24639 0.0
H501 H 0.38391 0.81086 0.1861 0.0
H502 H 0.49273 0.83463 0.19487 0.0
H503 H 0.52426 0.86482 0.24786 0.0
O504 O 0.42243 0.85398 0.30325 0.0
C505 C 0.43271 0.90686 0.24281 0.0
C506 C 0.49878 0.87662 0.27358 0.0
C507 C 0.48776 0.84562 0.21639 0.0
N508 N 0.45713 0.85668 0.24185 0.0
C509 C 0.4744 0.87345 0.27089 0.0
C510 C 0.46357 0.84296 0.21461 0.0
C511 C 0.50544 0.86256 0.24614 0.0
C512 C 0.34781 0.85088 0.18946 0.0
N513 N 0.36244 0.87196 0.2141 0.0
C514 C 0.337 0.85279 0.15043 0.0
C515 C 0.34125 0.87647 0.1367 0.0
C516 C 0.35618 0.89788 0.16205 0.0
C517 C 0.36672 0.89526 0.20086 0.0
C518 C 0.33188 0.89538 0.32012 0.0
C519 C 0.38223 0.90763 0.32567 0.0
C520 C 0.34092 0.88175 0.29675 0.0
N521 N 0.36585 0.88806 0.29953 0.0
C522 C 0.37385 0.92167 0.34953 0.0
C523 C 0.3485 0.91548 0.34664 0.0
C524 C 0.41082 0.8599 0.3314 0.0
C525 C 0.37726 0.77542 0.21247 0.0
C526 C 0.41463 0.80495 0.2722 0.0
C527 C 0.40285 0.77852 0.27478 0.0
C528 C 0.38403 0.7637 0.2447 0.0
N529 N 0.40789 0.81629 0.24047 0.0
C530 C 0.38947 0.8019 0.21084 0.0
Co531 Co 0.50377 0.37692 0.59618 0.0
Co532 Co 0.56614 0.42098 0.57196 0.0
O533 O 0.53625 0.38734 0.56786 0.0
C534 C 0.52167 0.34384 0.63119 0.0
O535 O 0.54321 0.36494 0.63724 0.0
C536 C 0.55381 0.41226 0.47903 0.0
O537 O 0.53004 0.40287 0.49087 0.0
O538 O 0.54556 0.43758 0.56168 0.0
O539 O 0.50494 0.4092 0.57792 0.0
H540 H 0.61642 0.51146 0.6229 0.0
H541 H 0.50831 0.34214 0.53344 0.0
O542 O 0.5027 0.34468 0.6152 0.0
H543 H 0.44307 0.35889 0.47166 0.0
H544 H 0.41419 0.31324 0.63872 0.0
H545 H 0.4826 0.4024 0.65056 0.0
H546 H 0.46357 0.37793 0.54189 0.0
H547 H 0.45549 0.32763 0.6027 0.0
O548 O 0.57137 0.42064 0.50759 0.0
H549 H 0.57874 0.46869 0.61844 0.0
H550 H 0.6176 0.44511 0.53174 0.0
H551 H 0.44154 0.38889 0.68682 0.0
H552 H 0.48815 0.32255 0.4633 0.0
H553 H 0.40699 0.34401 0.681 0.0
H554 H 0.45535 0.33097 0.43189 0.0
O555 O 0.52066 0.3933 0.65204 0.0
H556 H 0.5943 0.35726 0.54322 0.0
H557 H 0.60534 0.42787 0.63754 0.0
H558 H 0.62992 0.40639 0.65281 0.0
H559 H 0.62445 0.37079 0.60547 0.0
H560 H 0.57 0.37919 0.52928 0.0
H561 H 0.65565 0.48769 0.53499 0.0
H562 H 0.65523 0.52118 0.58097 0.0
O563 O 0.56113 0.42206 0.63598 0.0
C564 C 0.52225 0.43126 0.56581 0.0
C565 C 0.61687 0.497 0.60289 0.0
C566 C 0.63888 0.48367 0.5535 0.0
N567 N 0.59608 0.45438 0.5752 0.0
C568 C 0.59563 0.47273 0.60035 0.0
C569 C 0.61727 0.45962 0.55173 0.0
C570 C 0.63863 0.50245 0.57931 0.0
C571 C 0.49385 0.34566 0.52022 0.0
N572 N 0.48702 0.36104 0.54184 0.0
C573 C 0.48259 0.33462 0.48039 0.0
C574 C 0.46421 0.33938 0.46275 0.0
C575 C 0.45732 0.35506 0.48504 0.0
C576 C 0.46902 0.36582 0.52475 0.0
C577 C 0.42907 0.33285 0.64142 0.0
C578 C 0.46759 0.38288 0.64766 0.0
C579 C 0.4525 0.34109 0.62117 0.0
N580 N 0.47132 0.36587 0.62425 0.0
C581 C 0.44441 0.37532 0.66836 0.0
C582 C 0.42505 0.35013 0.66513 0.0
C583 C 0.54283 0.41078 0.66287 0.0
C584 C 0.59692 0.37281 0.56398 0.0
C585 C 0.60289 0.41243 0.61676 0.0
C586 C 0.61687 0.40035 0.62554 0.0
C587 C 0.6138 0.38038 0.59896 0.0
N588 N 0.58638 0.40489 0.58237 0.0
C589 C 0.5833 0.38537 0.55612 0.0
Co590 Co 0.13119 0.50778 0.93884 0.0
Co591 Co 0.14501 0.56881 0.91276 0.0
O592 O 0.14869 0.53895 0.90463 0.0
C593 C 0.1854 0.5278 0.95415 0.0
O594 O 0.18655 0.54981 0.95878 0.0
C595 C 0.12893 0.55213 0.82307 0.0
O596 O 0.11674 0.52894 0.83857 0.0
O597 O 0.10755 0.54757 0.91738 0.0
O598 O 0.09825 0.50758 0.93269 0.0
H599 H 0.11175 0.62089 0.98444 0.0
H600 H 0.16251 0.51015 0.86278 0.0
O601 O 0.1642 0.50799 0.94597 0.0
H602 H 0.07588 0.44125 0.82947 0.0
H603 H 0.11294 0.42077 0.98503 0.0
H604 H 0.09209 0.48871 0.00849 0.0
H605 H 0.08509 0.46474 0.89894 0.0
H606 H 0.13414 0.46029 0.94191 0.0
O607 O 0.14162 0.57091 0.84837 0.0
H608 H 0.11677 0.5833 0.97456 0.0
H609 H 0.16527 0.61812 0.86592 0.0
H610 H 0.07029 0.44943 0.05211 0.0
H611 H 0.15418 0.48704 0.79303 0.0
H612 H 0.08069 0.41513 0.04048 0.0
H613 H 0.11058 0.45237 0.77596 0.0
O614 O 0.13793 0.52705 -0.00563 0.0
H615 H 0.23046 0.59635 0.84624 0.0
H616 H 0.18485 0.61119 0.9655 0.0
H617 H 0.23155 0.63687 0.96179 0.0
H618 H 0.25466 0.6295 0.90183 0.0
H619 H 0.18379 0.57099 0.85136 0.0
H620 H 0.16061 0.65602 0.87439 0.0
H621 H 0.13377 0.6576 0.93411 0.0
O622 O 0.14787 0.56692 0.977 0.0
C623 C 0.09177 0.5243 0.92527 0.0
C624 C 0.12357 0.62047 0.95839 0.0
C625 C 0.15097 0.64017 0.89659 0.0
N626 N 0.14149 0.59864 0.91998 0.0
C627 C 0.12655 0.59928 0.95273 0.0
C628 C 0.15351 0.61866 0.89191 0.0
C629 C 0.13591 0.64105 0.93011 0.0
C630 C 0.14355 0.49492 0.85576 0.0
N631 N 0.12434 0.4887 0.88498 0.0
C632 C 0.13892 0.48197 0.81614 0.0
C633 C 0.11444 0.46254 0.80656 0.0
C634 C 0.09496 0.45631 0.83655 0.0
C635 C 0.10028 0.4697 0.8758 0.0
C636 C 0.1082 0.43556 -0.00967 0.0
C637 C 0.09658 0.47379 0.00305 0.0
C638 C 0.12017 0.45798 0.96608 0.0
N639 N 0.11419 0.47667 0.97245 0.0
C640 C 0.08424 0.45163 0.02794 0.0
C641 C 0.0901 0.4324 0.02143 0.0
C642 C 0.14416 0.54976 0.00469 0.0
C643 C 0.2206 0.59979 0.87244 0.0
C644 C 0.19478 0.60789 0.9393 0.0
C645 C 0.22121 0.6225 0.93734 0.0
C646 C 0.23417 0.61836 0.90368 0.0
N647 N 0.18161 0.58973 0.90851 0.0
C648 C 0.19417 0.58558 0.87538 0.0
Co649 Co 0.62285 0.12854 0.26234 0.0
Co650 Co 0.57697 0.14393 0.23405 0.0
O651 O 0.61093 0.14824 0.22985 0.0
C652 C 0.65499 0.18119 0.29022 0.0
O653 O 0.63366 0.18161 0.293 0.0
C654 C 0.58325 0.13424 0.14276 0.0
O655 O 0.59392 0.12147 0.15731 0.0
O656 O 0.56105 0.10643 0.23146 0.0
O657 O 0.59097 0.09617 0.24795 0.0
H658 H 0.48788 0.10578 0.29141 0.0
H659 H 0.65598 0.16506 0.19493 0.0
O660 O 0.6547 0.16097 0.27793 0.0
H661 H 0.64149 0.08147 0.1462 0.0
H662 H 0.68924 0.10749 0.3119 0.0
H663 H 0.59937 0.08482 0.32324 0.0
H664 H 0.62283 0.08563 0.21507 0.0
H665 H 0.6731 0.13149 0.27083 0.0
O666 O 0.57528 0.14489 0.16919 0.0
H667 H 0.53101 0.11158 0.28675 0.0
H668 H 0.5504 0.1672 0.18781 0.0
H669 H 0.61464 0.06017 0.3646 0.0
H670 H 0.67516 0.1618 0.126 0.0
H671 H 0.65988 0.07148 0.35905 0.0
H672 H 0.66788 0.11974 0.10117 0.0
O673 O 0.60686 0.13126 0.31714 0.0
H674 H 0.63757 0.23337 0.18685 0.0
H675 H 0.57073 0.17986 0.29213 0.0
H676 H 0.59133 0.22648 0.29772 0.0
H677 H 0.62502 0.25356 0.24484 0.0
H678 H 0.61659 0.18667 0.18263 0.0
H679 H 0.50741 0.16188 0.19115 0.0
H680 H 0.47584 0.13105 0.24337 0.0
O681 O 0.57789 0.14241 0.29865 0.0
C682 C 0.56827 0.09022 0.23764 0.0
C683 C 0.50149 0.11935 0.26865 0.0
C684 C 0.51244 0.15081 0.21233 0.0
N685 N 0.54326 0.13988 0.23735 0.0
C686 C 0.52596 0.12277 0.26596 0.0
C687 C 0.53674 0.15371 0.21054 0.0
C688 C 0.49475 0.13351 0.24164 0.0
C689 C 0.65296 0.14675 0.18455 0.0
N690 N 0.63844 0.12559 0.20909 0.0
C691 C 0.66377 0.14499 0.1454 0.0
C692 C 0.65964 0.12139 0.13146 0.0
C693 C 0.64482 0.0999 0.1567 0.0
C694 C 0.63428 0.10237 0.19562 0.0
C695 C 0.66948 0.10235 0.31451 0.0
C696 C 0.61904 0.08974 0.32045 0.0
C697 C 0.66025 0.11589 0.29141 0.0
N698 N 0.63528 0.10941 0.29438 0.0
C699 C 0.6276 0.07577 0.34404 0.0
C700 C 0.65299 0.08214 0.34095 0.0
C701 C 0.5897 0.13673 0.32676 0.0
C702 C 0.62285 0.22177 0.21 0.0
C703 C 0.58536 0.19152 0.26897 0.0
C704 C 0.59694 0.21791 0.27228 0.0
C705 C 0.61583 0.23309 0.24258 0.0
N706 N 0.59235 0.18057 0.2369 0.0
C707 C 0.61083 0.19532 0.20764 0.0
H708 H 0.44743 0.60276 0.19822 0.0
H709 H 0.39879 0.55657 0.44055 0.0
H710 H 0.38745 0.52691 0.22846 0.0
H711 H 0.4758 0.61408 0.41072 0.0
H712 H 0.38934 0.55108 0.36235 0.0
H713 H 0.45282 0.61256 0.27628 0.0
C714 C 0.43523 0.58827 0.22127 0.0
C715 C 0.41716 0.56391 0.20709 0.0
C716 C 0.40822 0.56501 0.37308 0.0
C717 C 0.42308 0.57506 0.29583 0.0
C718 C 0.41361 0.56823 0.41755 0.0
C719 C 0.43819 0.58561 0.43189 0.0
C720 C 0.42744 0.57957 0.34301 0.0
C721 C 0.4567 0.60025 0.40086 0.0
C722 C 0.43838 0.59386 0.26567 0.0
C723 C 0.40182 0.54583 0.2382 0.0
N724 N 0.45095 0.59688 0.35773 0.0
N725 N 0.40515 0.55177 0.28127 0.0
H726 H 0.85924 0.45111 0.5434 0.0
H727 H 0.86058 0.4028 0.78263 0.0
H728 H 0.8784 0.39265 0.56832 0.0
H729 H 0.87989 0.4802 0.75597 0.0
H730 H 0.86065 0.39539 0.70409 0.0
H731 H 0.86015 0.45868 0.62191 0.0
C732 C 0.86354 0.43981 0.56545 0.0
C733 C 0.86878 0.42124 0.54956 0.0
C734 C 0.86496 0.41399 0.71557 0.0
C735 C 0.86965 0.42968 0.63893 0.0
C736 C 0.86481 0.4182 0.7602 0.0
C737 C 0.87027 0.44215 0.77558 0.0
C738 C 0.87009 0.43371 0.68631 0.0
C739 C 0.87573 0.4615 0.74532 0.0
C740 C 0.8642 0.44425 0.61009 0.0
C741 C 0.87438 0.40723 0.57939 0.0
N742 N 0.87529 0.4568 0.70196 0.0
N743 N 0.87449 0.41161 0.62285 0.0
H744 H 0.48401 0.87574 0.89495 0.0
H745 H 0.3922 0.87168 0.08212 0.0
H746 H 0.40628 0.85563 0.86927 0.0
H747 H 0.45189 0.8542 0.10655 0.0
H748 H 0.39988 0.87176 0.00366 0.0
H749 H 0.47545 0.87395 0.97335 0.0
C750 C 0.46519 0.87101 0.90587 0.0
C751 C 0.4458 0.86584 0.87584 0.0
C752 C 0.41117 0.8678 0.0263 0.0
C753 C 0.43604 0.86397 0.9648 0.0
C754 C 0.40689 0.86786 0.07091 0.0
C755 C 0.42147 0.86294 0.10061 0.0
C756 C 0.43046 0.86329 0.01159 0.0
C757 C 0.44019 0.85797 0.08457 0.0
C758 C 0.4603 0.86986 0.95044 0.0
C759 C 0.42169 0.85964 0.8915 0.0
N760 N 0.44433 0.85849 0.04101 0.0
N761 N 0.41752 0.85908 0.93505 0.0
H762 H 0.61417 0.47491 0.22849 0.0
H763 H 0.52266 0.38523 0.4118 0.0
H764 H 0.55493 0.39835 0.20055 0.0
H765 H 0.59942 0.44374 0.44046 0.0
H766 H 0.53282 0.39088 0.33392 0.0
H767 H 0.60806 0.46521 0.30653 0.0
C768 C 0.59999 0.45602 0.23883 0.0
C769 C 0.58489 0.43743 0.20821 0.0
C770 C 0.54749 0.40227 0.35732 0.0
C771 C 0.57767 0.42638 0.29702 0.0
C772 C 0.54168 0.39917 0.40166 0.0
C773 C 0.5602 0.41419 0.43242 0.0
C774 C 0.57181 0.42086 0.34377 0.0
C775 C 0.5846 0.43182 0.41769 0.0
C776 C 0.59662 0.45048 0.28325 0.0
C777 C 0.56694 0.41321 0.22319 0.0
N778 N 0.58963 0.43493 0.37426 0.0
N779 N 0.56356 0.40847 0.26668 0.0
H780 H 0.13825 0.54616 0.54398 0.0
H781 H 0.13819 0.59591 0.78263 0.0
H782 H 0.11966 0.60509 0.56831 0.0
H783 H 0.11857 0.51832 0.75698 0.0
H784 H 0.13774 0.60289 0.70401 0.0
H785 H 0.13754 0.53894 0.62258 0.0
C786 C 0.1341 0.55762 0.56592 0.0
C787 C 0.12898 0.57622 0.54984 0.0
C788 C 0.13344 0.58434 0.71574 0.0
C789 C 0.12835 0.56821 0.63931 0.0
C790 C 0.13381 0.58038 0.76041 0.0
C791 C 0.12838 0.5565 0.7761 0.0
C792 C 0.12812 0.56444 0.68674 0.0
C793 C 0.12272 0.53697 0.74611 0.0
C794 C 0.13356 0.55339 0.61062 0.0
C795 C 0.12357 0.59047 0.57953 0.0
N796 N 0.12295 0.54143 0.70269 0.0
N797 N 0.12359 0.58629 0.62304 0.0
H798 H 0.60901 0.12705 0.07651 0.0
H799 H 0.51811 0.12586 0.89043 0.0
H800 H 0.54946 0.14456 0.10234 0.0
H801 H 0.59575 0.14576 0.86436 0.0
H802 H 0.52663 0.12711 0.96874 0.0
H803 H 0.60187 0.12837 -0.00189 0.0
C804 C 0.59446 0.13117 0.06563 0.0
C805 C 0.57975 0.13566 0.0957 0.0
C806 C 0.54178 0.13131 0.94578 0.0
C807 C 0.5714 0.13694 0.00677 0.0
C808 C 0.53693 0.13047 0.90125 0.0
C809 C 0.55628 0.13568 0.87113 0.0
C810 C 0.56598 0.1369 0.96002 0.0
C811 C 0.58036 0.14172 0.88667 0.0
C812 C 0.5905 0.13204 0.02106 0.0
C813 C 0.56124 0.14107 0.08009 0.0
N814 N 0.5845 0.14194 0.93019 0.0
N815 N 0.55741 0.14132 0.03656 0.0
H816 H 0.34176 0.56665 0.97848 0.0
H817 H 0.19029 0.4853 0.96197 0.0
H818 H 0.29935 0.48666 0.0091 0.0
H819 H 0.23395 0.56715 0.95633 0.0
H820 H 0.22987 0.48424 0.97201 0.0
H821 H 0.30216 0.56591 0.96269 0.0
C822 C 0.3241 0.54886 0.9817 0.0
C823 C 0.32387 0.52668 -0.00475 0.0
C824 C 0.2307 0.50238 0.9685 0.0
C825 C 0.27829 0.52574 0.9773 0.0
C826 C 0.20817 0.503 0.96266 0.0
C827 C 0.20884 0.52635 0.95861 0.0
C828 C 0.25396 0.52526 0.96987 0.0
C829 C 0.23249 0.54872 0.95971 0.0
C830 C 0.30145 0.54847 0.97278 0.0
C831 C 0.30037 0.50421 -0.00112 0.0
N832 N 0.25406 0.5476 0.96524 0.0
N833 N 0.27846 0.50431 -0.01 0.0
H834 H 0.8113 0.29432 0.35121 0.0
H835 H 0.66144 0.2276 0.3106 0.0
H836 H 0.76768 0.33284 0.35373 0.0
H837 H 0.70321 0.18763 0.29542 0.0
H838 H 0.70054 0.26574 0.32981 0.0
H839 H 0.77225 0.25443 0.33447 0.0
C840 C 0.79354 0.29437 0.34844 0.0
C841 C 0.79275 0.31695 0.35364 0.0
C842 C 0.70128 0.24869 0.32231 0.0
C843 C 0.74824 0.27161 0.33456 0.0
C844 C 0.67887 0.22681 0.31134 0.0
C845 C 0.67902 0.20434 0.3014 0.0
C846 C 0.72418 0.24827 0.32347 0.0
C847 C 0.70227 0.20459 0.3028 0.0
C848 C 0.77131 0.27165 0.33877 0.0
C849 C 0.76927 0.31596 0.34968 0.0
N850 N 0.72398 0.22626 0.31369 0.0
N851 N 0.74803 0.29373 0.34037 0.0
H852 H 0.43691 0.769 0.68463 0.0
H853 H 0.51907 0.7029 0.62941 0.0
H854 H 0.51883 0.81134 0.68019 0.0
H855 H 0.43908 0.66257 0.66046 0.0
H856 H 0.52013 0.74309 0.64539 0.0
H857 H 0.43802 0.73006 0.673 0.0
C858 C 0.4552 0.77012 0.68116 0.0
C859 C 0.47782 0.79349 0.68316 0.0
C860 C 0.50244 0.72538 0.6489 0.0
C861 C 0.47924 0.74869 0.66975 0.0
C862 C 0.5018 0.70248 0.63974 0.0
C863 C 0.47895 0.67935 0.64355 0.0
C864 C 0.48002 0.72504 0.66158 0.0
C865 C 0.45715 0.67989 0.65707 0.0
C866 C 0.45582 0.74779 0.67466 0.0
C867 C 0.50094 0.79368 0.67883 0.0
N868 N 0.45823 0.70232 0.66537 0.0
N869 N 0.50107 0.77157 0.67204 0.0
H870 H 0.70156 0.51621 0.01067 0.0
H871 H 0.7656 0.43224 0.95447 0.0
H872 H 0.66007 0.43656 0.97726 0.0
H873 H 0.80915 0.51398 0.9638 0.0
H874 H 0.72686 0.43408 0.96439 0.0
H875 H 0.74139 0.5165 -0.00494 0.0
C876 C 0.70081 0.49886 -0.00014 0.0
C877 C 0.67747 0.47632 -0.00465 0.0
C878 C 0.74483 0.45168 0.96414 0.0
C879 C 0.72274 0.47651 0.97774 0.0
C880 C 0.76702 0.45063 0.95861 0.0
C881 C 0.79065 0.47299 0.95857 0.0
C882 C 0.74618 0.47525 0.97005 0.0
C883 C 0.79127 0.49628 0.96366 0.0
C884 C 0.72351 0.49905 -0.00907 0.0
C885 C 0.67758 0.45439 0.98124 0.0
N886 N 0.76932 0.49682 0.96952 0.0
N887 N 0.69983 0.45504 0.97317 0.0
H888 H 0.18866 0.70392 0.35374 0.0
H889 H 0.3386 0.76948 0.31488 0.0
H890 H 0.2316 0.66471 0.35665 0.0
H891 H 0.29754 0.81017 0.29981 0.0
H892 H 0.29923 0.73151 0.3337 0.0
H893 H 0.22802 0.74366 0.33779 0.0
C894 C 0.20634 0.70369 0.35123 0.0
C895 C 0.20684 0.68096 0.35629 0.0
C896 C 0.29871 0.74869 0.32632 0.0
C897 C 0.25171 0.72613 0.3381 0.0
C898 C 0.32126 0.77047 0.31557 0.0
C899 C 0.32139 0.79309 0.30576 0.0
C900 C 0.27594 0.74936 0.32737 0.0
C901 C 0.29827 0.7931 0.30709 0.0
C902 C 0.22874 0.72632 0.34201 0.0
C903 C 0.23023 0.68171 0.35269 0.0
N904 N 0.2764 0.77152 0.31774 0.0
N905 N 0.25165 0.70387 0.34379 0.0
H906 H 0.56375 0.23013 0.67405 0.0
H907 H 0.48004 0.29565 0.6279 0.0
H908 H 0.48179 0.18761 0.67606 0.0
H909 H 0.56043 0.33629 0.65573 0.0
H910 H 0.47953 0.25552 0.64169 0.0
H911 H 0.56221 0.2689 0.66303 0.0
C912 C 0.54536 0.22893 0.67208 0.0
C913 C 0.52284 0.20556 0.67583 0.0
C914 C 0.4972 0.27328 0.64496 0.0
C915 C 0.52094 0.25016 0.6632 0.0
C916 C 0.49751 0.29615 0.63704 0.0
C917 C 0.5203 0.31935 0.64067 0.0
C918 C 0.51987 0.27374 0.65612 0.0
C919 C 0.54239 0.31891 0.6526 0.0
C920 C 0.5445 0.25115 0.66595 0.0
C921 C 0.4996 0.20526 0.67334 0.0
N922 N 0.54161 0.29652 0.65968 0.0
N923 N 0.49922 0.22728 0.66696 0.0
H924 H 0.42438 0.47472 0.07436 0.0
H925 H 0.51883 0.44422 0.10729 0.0
H926 H 0.48315 0.55264 0.09378 0.0
H927 H 0.56961 0.52117 0.06514 0.0
H928 H 0.48507 0.45444 0.11483 0.0
H929 H 0.45616 0.46165 0.08089 0.0
C930 C 0.44389 0.48905 0.08078 0.0
C931 C 0.45103 0.51483 0.08351 0.0
C932 C 0.50347 0.46904 0.10343 0.0
C933 C 0.48764 0.49992 0.09182 0.0
C934 C 0.52293 0.4633 0.09955 0.0
C935 C 0.54708 0.48176 0.08483 0.0
C936 C 0.50807 0.49337 0.0922 0.0
C937 C 0.55126 0.50625 0.07612 0.0
C938 C 0.46207 0.48153 0.08492 0.0
C939 C 0.47669 0.53254 0.09152 0.0
N940 N 0.53188 0.51129 0.07972 0.0
N941 N 0.49409 0.52477 0.0949 0.0
H942 H 0.93423 0.46123 0.46883 0.0
H943 H 0.05427 0.55807 0.33746 0.0
H944 H 0.94412 0.44338 0.33666 0.0
H945 H 0.06412 0.53453 0.46526 0.0
H946 H 0.00981 0.52334 0.33763 0.0
H947 H 0.97882 0.49551 0.46963 0.0
C948 C 0.9459 0.46452 0.44014 0.0
C949 C 0.93582 0.4495 0.40276 0.0
C950 C 0.02178 0.52599 0.36562 0.0
C951 C 0.98596 0.48888 0.40294 0.0
C952 C 0.04691 0.54582 0.36573 0.0
C953 C 0.06264 0.54901 0.40144 0.0
C954 C 0.01233 0.50994 0.40201 0.0
C955 C 0.05246 0.53253 0.43715 0.0
C956 C 0.97116 0.48396 0.44063 0.0
C957 C 0.95146 0.45446 0.36621 0.0
N958 N 0.02778 0.51378 0.43677 0.0
N959 N 0.97579 0.47405 0.36694 0.0
H960 H 0.47518 0.0492 0.72424 0.0
H961 H 0.52651 0.95073 0.72597 0.0
H962 H 0.55448 0.07168 0.73767 0.0
H963 H 0.4473 0.92853 0.73976 0.0
H964 H 0.53721 0.99525 0.72707 0.0
H965 H 0.46456 0.00474 0.72676 0.0
C966 C 0.49035 0.04484 0.72787 0.0
C967 C 0.51576 0.06428 0.73078 0.0
C968 C 0.5175 0.98059 0.73005 0.0
C969 C 0.50374 0.01342 0.73336 0.0
C970 C 0.51138 0.95516 0.72938 0.0
C971 C 0.48597 0.93578 0.73281 0.0
C972 C 0.49807 0.98669 0.73378 0.0
C973 C 0.46717 0.94275 0.73711 0.0
C974 C 0.48427 0.01944 0.72935 0.0
C975 C 0.5346 0.0574 0.73541 0.0
N976 N 0.4736 0.96759 0.73728 0.0
N977 N 0.52822 0.03258 0.73635 0.0
H978 H 0.44401 0.51724 0.5474 0.0
H979 H 0.55414 0.48163 0.54833 0.0
H980 H 0.52352 0.57243 0.56337 0.0
H981 H 0.47473 0.42647 0.56559 0.0
H982 H 0.54302 0.51487 0.54147 0.0
H983 H 0.45503 0.48385 0.54161 0.0
C984 C 0.46383 0.52244 0.54926 0.0
C985 C 0.48286 0.54776 0.55623 0.0
C986 C 0.52802 0.49548 0.54651 0.0
C987 C 0.49551 0.50943 0.54964 0.0
C988 C 0.53431 0.4764 0.55031 0.0
C989 C 0.51534 0.45113 0.55789 0.0
C990 C 0.50257 0.48933 0.55004 0.0
C991 C 0.49001 0.44566 0.56004 0.0
C992 C 0.47006 0.50329 0.5461 0.0
C993 C 0.50818 0.55321 0.55828 0.0
N994 N 0.48438 0.46463 0.55629 0.0
N995 N 0.51375 0.53417 0.55517 0.0
H996 H 0.05072 0.47606 0.9313 0.0
H997 H 0.94856 0.52288 0.93137 0.0
H998 H 0.07046 0.55474 0.92012 0.0
H999 H 0.92877 0.44425 0.91892 0.0
H1000 H 0.99341 0.5349 0.93201 0.0
H1001 H 0.00584 0.46399 0.93156 0.0
C1002 C 0.04567 0.4908 0.92888 0.0
C1003 C 0.06446 0.51646 0.9255 0.0
C1004 C 0.97922 0.51503 0.92905 0.0
C1005 C 0.01312 0.50276 0.92599 0.0
C1006 C 0.9536 0.50814 0.92873 0.0
C1007 C 0.9348 0.48252 0.92491 0.0
C1008 C 0.98612 0.49616 0.92585 0.0
C1009 C 0.94254 0.46426 0.92171 0.0
C1010 C 0.02003 0.48389 0.92897 0.0
C1011 C 0.0567 0.53471 0.92256 0.0
N1012 N 0.96758 0.47144 0.92233 0.0
N1013 N 0.03166 0.5275 0.92295 0.0
H1014 H 0.42618 0.94857 0.24414 0.0
H1015 H 0.57491 0.04862 0.24176 0.0
H1016 H 0.48394 0.92712 0.23197 0.0
H1017 H 0.51705 0.06967 0.22597 0.0
H1018 H 0.54183 0.00393 0.24013 0.0
H1019 H 0.45927 0.99319 0.23966 0.0
C1020 C 0.44576 0.95319 0.24037 0.0
C1021 C 0.45222 0.93399 0.23848 0.0
C1022 C 0.53643 0.01836 0.23676 0.0
C1023 C 0.4902 0.98504 0.2336 0.0
C1024 C 0.55532 0.0439 0.2377 0.0
C1025 C 0.54882 0.06301 0.23407 0.0
C1026 C 0.51085 0.01188 0.23258 0.0
C1027 C 0.52305 0.05567 0.22888 0.0
C1028 C 0.46465 0.97867 0.23774 0.0
C1029 C 0.47797 0.9412 0.23354 0.0
N1030 N 0.50503 0.03072 0.22858 0.0
N1031 N 0.49599 0.96611 0.23152 0.0
H1032 H 0.41283 0.54748 0.69651 0.0
H1033 H 0.45634 0.58708 0.9426 0.0
H1034 H 0.48632 0.61 0.73252 0.0
H1035 H 0.39028 0.51618 0.90618 0.0
H1036 H 0.46735 0.59613 0.86577 0.0
H1037 H 0.40392 0.53608 0.77324 0.0
C1038 C 0.42714 0.5588 0.7205 0.0
C1039 C 0.45033 0.57984 0.70804 0.0
C1040 C 0.45053 0.57853 0.87462 0.0
C1041 C 0.44015 0.56686 0.79595 0.0
C1042 C 0.44417 0.57336 0.9185 0.0
C1043 C 0.42224 0.55089 0.93087 0.0
C1044 C 0.43476 0.56123 0.84284 0.0
C1045 C 0.40732 0.53377 0.89815 0.0
C1046 C 0.42204 0.55221 0.76431 0.0
C1047 C 0.46817 0.59368 0.7406 0.0
N1048 N 0.41378 0.53939 0.85557 0.0
N1049 N 0.46263 0.58703 0.78314 0.0
H1050 H 0.85556 0.37876 0.24662 0.0
H1051 H 0.85922 0.47899 0.07508 0.0
H1052 H 0.85409 0.44659 0.28458 0.0
H1053 H 0.84559 0.40423 0.04018 0.0
H1054 H 0.85755 0.46782 0.15203 0.0
H1055 H 0.85232 0.38825 0.17056 0.0
C1056 C 0.85452 0.39564 0.239 0.0
C1057 C 0.85525 0.41199 0.27205 0.0
C1058 C 0.85474 0.45384 0.12745 0.0
C1059 C 0.85156 0.42295 0.18491 0.0
C1060 C 0.85573 0.4602 0.08352 0.0
C1061 C 0.85272 0.44259 0.05106 0.0
C1062 C 0.85092 0.4298 0.13892 0.0
C1063 C 0.84814 0.41849 0.06398 0.0
C1064 C 0.85257 0.40099 0.19553 0.0
C1065 C 0.85365 0.43348 0.26017 0.0
N1066 N 0.84757 0.41289 0.1069 0.0
N1067 N 0.85205 0.43844 0.21747 0.0
H1068 H 0.48389 0.86335 0.57463 0.0
H1069 H 0.38567 0.86365 0.40257 0.0
H1070 H 0.41064 0.85358 0.61017 0.0
H1071 H 0.44945 0.85454 0.36596 0.0
H1072 H 0.39604 0.86271 0.47912 0.0
H1073 H 0.47294 0.86267 0.49783 0.0
C1074 C 0.4655 0.861 0.56634 0.0
C1075 C 0.44818 0.85857 0.59891 0.0
C1076 C 0.4077 0.86084 0.4543 0.0
C1077 C 0.43565 0.85792 0.51125 0.0
C1078 C 0.40185 0.86146 0.41058 0.0
C1079 C 0.41673 0.8592 0.37779 0.0
C1080 C 0.42868 0.85816 0.46527 0.0
C1081 C 0.43743 0.85632 0.39014 0.0
C1082 C 0.45926 0.86057 0.52251 0.0
C1083 C 0.42461 0.85553 0.58622 0.0
N1084 N 0.44285 0.85598 0.43297 0.0
N1085 N 0.41909 0.85542 0.54335 0.0
H1086 H 0.51221 0.38663 0.73301 0.0
H1087 H 0.60916 0.48465 0.90748 0.0
H1088 H 0.58503 0.45079 0.69893 0.0
H1089 H 0.5462 0.41117 0.94215 0.0
H1090 H 0.5977 0.47498 0.83079 0.0
H1091 H 0.52168 0.3979 0.80992 0.0
C1092 C 0.53014 0.40313 0.74162 0.0
C1093 C 0.54791 0.41772 0.70943 0.0
C1094 C 0.58639 0.46101 0.85522 0.0
C1095 C 0.55876 0.4307 0.79732 0.0
C1096 C 0.59287 0.46652 0.89905 0.0
C1097 C 0.5787 0.44863 0.93135 0.0
C1098 C 0.56551 0.43752 0.84359 0.0
C1099 C 0.55776 0.42548 0.91838 0.0
C1100 C 0.53554 0.4095 0.78554 0.0
C1101 C 0.57082 0.4389 0.72259 0.0
N1102 N 0.55181 0.42059 0.87546 0.0
N1103 N 0.57558 0.44474 0.76554 0.0
H1104 H 0.14038 0.52014 0.07508 0.0
H1105 H 0.14425 0.62012 0.24753 0.0
H1106 H 0.15398 0.59496 0.04074 0.0
H1107 H 0.14495 0.5518 0.28475 0.0
H1108 H 0.14771 0.61091 0.17139 0.0
H1109 H 0.14213 0.53119 0.15209 0.0
C1110 C 0.14388 0.53893 0.08366 0.0
C1111 C 0.14685 0.55658 0.05134 0.0
C1112 C 0.14725 0.598 0.19622 0.0
C1113 C 0.14874 0.56923 0.13929 0.0
C1114 C 0.14518 0.60319 0.23974 0.0
C1115 C 0.14415 0.58662 0.2726 0.0
C1116 C 0.14808 0.57597 0.18536 0.0
C1117 C 0.14561 0.56507 0.26049 0.0
C1118 C 0.14491 0.54521 0.12764 0.0
C1119 C 0.15145 0.58066 0.06444 0.0
N1120 N 0.14733 0.56027 0.21775 0.0
N1121 N 0.15206 0.5862 0.10741 0.0
H1122 H 0.51672 0.13422 0.56966 0.0
H1123 H 0.61492 0.13321 0.39809 0.0
H1124 H 0.59024 0.14473 0.60538 0.0
H1125 H 0.55065 0.14141 0.36112 0.0
H1126 H 0.60448 0.13425 0.47461 0.0
H1127 H 0.52735 0.13389 0.49296 0.0
C1128 C 0.5351 0.13651 0.56143 0.0
C1129 C 0.55261 0.13949 0.59403 0.0
C1130 C 0.59273 0.13589 0.4497 0.0
C1131 C 0.56476 0.13898 0.50648 0.0
C1132 C 0.59861 0.13521 0.40601 0.0
C1133 C 0.58365 0.13724 0.37314 0.0
C1134 C 0.57163 0.1384 0.46055 0.0
C1135 C 0.56277 0.13984 0.38537 0.0
C1136 C 0.54115 0.13636 0.51765 0.0
C1137 C 0.57615 0.1424 0.58141 0.0
N1138 N 0.55733 0.14027 0.42815 0.0
N1139 N 0.58149 0.14197 0.53859 0.0
loop_
_geom_bond_atom_site_label_1
_geom_bond_atom_site_label_2
_geom_bond_distance
_geom_bond_site_symmetry_2
_ccdc_geom_bond_type
Co0 O2 2.143 . S
Co0 O8 2.074 . S
Co0 O11 2.093 . S
Co0 O24 2.097 1_554 S
Co0 N41 2.151 . S
Co0 N49 2.214 1_554 S
Co1 O2 2.160 . S
Co1 O7 2.058 . S
Co1 O17 2.057 . S
Co1 O32 2.037 . S
Co1 N36 2.145 . S
Co1 N57 2.257 . S
O2 Co0 2.143 . S
O2 Co1 2.160 . S
C3 O4 1.278 . S
C3 O11 1.224 . S
O4 C3 1.278 . S
C5 O6 1.245 . S
C5 O17 1.232 . S
O6 C5 1.245 . S
O7 Co1 2.058 . S
O7 C33 1.269 . S
O8 Co0 2.074 . S
O8 C33 1.257 . S
H9 C34 0.930 . S
H10 C40 0.930 . S
O11 Co0 2.093 . S
O11 C3 1.224 . S
H12 C44 0.929 . S
H13 C46 0.930 . S
H14 C47 0.930 . S
H15 C45 0.929 . S
H16 C48 0.928 . S
O17 Co1 2.057 . S
O17 C5 1.232 . S
H18 C37 0.929 . S
H19 C38 0.929 . S
H20 C50 0.931 . S
H21 C42 0.929 . S
H22 C51 0.930 . S
H23 C43 0.931 . S
O24 Co0 2.097 1_556 S
O24 C52 1.214 . S
H25 C53 0.929 . S
H26 C54 0.929 . S
H27 C55 0.930 . S
H28 C56 0.929 . S
H29 C58 0.930 . S
H30 C35 0.930 . S
H31 C39 0.930 . S
O32 Co1 2.037 . S
O32 C52 1.234 1_554 S
C33 O7 1.269 . S
C33 O8 1.257 . S
C34 H9 0.930 . S
C34 C37 1.388 . S
C34 C39 1.418 . S
C35 H30 0.930 . S
C35 C38 1.404 . S
C35 C39 1.353 . S
N36 Co1 2.145 . S
N36 C37 1.397 . S
N36 C38 1.334 . S
C37 H18 0.929 . S
C37 C34 1.388 . S
C37 N36 1.397 . S
C38 H19 0.929 . S
C38 C35 1.404 . S
C38 N36 1.334 . S
C39 H31 0.930 . S
C39 C34 1.418 . S
C39 C35 1.353 . S
C40 H10 0.930 . S
C40 N41 1.330 . S
C40 C42 1.446 . S
N41 Co0 2.151 . S
N41 C40 1.330 . S
N41 C45 1.418 . S
C42 H21 0.929 . S
C42 C40 1.446 . S
C42 C43 1.332 . S
C43 H23 0.931 . S
C43 C42 1.332 . S
C43 C44 1.267 . S
C44 H12 0.929 . S
C44 C43 1.267 . S
C44 C45 1.251 . S
C45 H15 0.929 . S
C45 N41 1.418 . S
C45 C44 1.251 . S
C46 H13 0.930 . S
C46 C48 1.406 . S
C46 C51 1.261 . S
C47 H14 0.930 . S
C47 N49 1.325 . S
C47 C50 1.357 . S
C48 H16 0.928 . S
C48 C46 1.406 . S
C48 N49 1.261 . S
N49 Co0 2.214 1_556 S
N49 C47 1.325 . S
N49 C48 1.261 . S
C50 H20 0.931 . S
C50 C47 1.357 . S
C50 C51 1.312 . S
C51 H22 0.930 . S
C51 C46 1.261 . S
C51 C50 1.312 . S
C52 O24 1.214 . S
C52 O32 1.234 1_556 S
C53 H25 0.929 . S
C53 C56 1.391 . S
C53 C58 1.391 . S
C54 H26 0.929 . S
C54 C55 1.390 . S
C54 N57 1.391 . S
C55 H27 0.930 . S
C55 C54 1.390 . S
C55 C56 1.392 . S
C56 H28 0.929 . S
C56 C53 1.391 . S
C56 C55 1.392 . S
N57 Co1 2.257 . S
N57 C54 1.391 . S
N57 C58 1.388 . S
C58 H29 0.930 . S
C58 C53 1.391 . S
C58 N57 1.388 . S
Co59 O61 2.143 . S
Co59 O67 2.074 . S
Co59 O70 2.093 . S
Co59 O83 2.097 . S
Co59 N100 2.151 . S
Co59 N108 2.214 . S
Co60 O61 2.160 . S
Co60 O66 2.058 . S
Co60 O76 2.057 . S
Co60 O91 2.037 . S
Co60 N95 2.145 . S
Co60 N116 2.257 . S
O61 Co59 2.143 . S
O61 Co60 2.160 . S
C62 O63 1.278 . S
C62 O70 1.224 . S
O63 C62 1.278 . S
C64 O65 1.245 . S
C64 O76 1.232 . S
O65 C64 1.245 . S
O66 Co60 2.058 . S
O66 C92 1.269 . S
O67 Co59 2.074 . S
O67 C92 1.257 . S
H68 C93 0.930 . S
H69 C99 0.930 . S
O70 Co59 2.093 . S
O70 C62 1.224 . S
H71 C103 0.929 . S
H72 C105 0.930 . S
H73 C106 0.930 . S
H74 C104 0.929 . S
H75 C107 0.928 . S
O76 Co60 2.057 . S
O76 C64 1.232 . S
H77 C96 0.929 . S
H78 C97 0.929 . S
H79 C109 0.931 . S
H80 C101 0.929 . S
H81 C110 0.930 . S
H82 C102 0.931 . S
O83 Co59 2.097 . S
O83 C111 1.214 . S
H84 C112 0.929 . S
H85 C113 0.929 . S
H86 C114 0.930 . S
H87 C115 0.929 . S
H88 C117 0.930 . S
H89 C94 0.930 . S
H90 C98 0.930 . S
O91 Co60 2.037 . S
O91 C111 1.234 . S
C92 O66 1.269 . S
C92 O67 1.257 . S
C93 H68 0.930 . S
C93 C96 1.388 . S
C93 C98 1.418 . S
C94 H89 0.930 . S
C94 C97 1.404 . S
C94 C98 1.353 . S
N95 Co60 2.145 . S
N95 C96 1.397 . S
N95 C97 1.334 . S
C96 H77 0.929 . S
C96 C93 1.388 . S
C96 N95 1.397 . S
C97 H78 0.929 . S
C97 C94 1.404 . S
C97 N95 1.334 . S
C98 H90 0.930 . S
C98 C93 1.418 . S
C98 C94 1.353 . S
C99 H69 0.930 . S
C99 N100 1.330 . S
C99 C101 1.446 . S
N100 Co59 2.151 . S
N100 C99 1.330 . S
N100 C104 1.418 . S
C101 H80 0.929 . S
C101 C99 1.446 . S
C101 C102 1.332 . S
C102 H82 0.931 . S
C102 C101 1.332 . S
C102 C103 1.267 . S
C103 H71 0.929 . S
C103 C102 1.267 . S
C103 C104 1.251 . S
C104 H74 0.929 . S
C104 N100 1.418 . S
C104 C103 1.251 . S
C105 H72 0.930 . S
C105 C107 1.406 . S
C105 C110 1.261 . S
C106 H73 0.930 . S
C106 N108 1.325 . S
C106 C109 1.357 . S
C107 H75 0.928 . S
C107 C105 1.406 . S
C107 N108 1.261 . S
N108 Co59 2.214 . S
N108 C106 1.325 . S
N108 C107 1.261 . S
C109 H79 0.931 . S
C109 C106 1.357 . S
C109 C110 1.312 . S
C110 H81 0.930 . S
C110 C105 1.261 . S
C110 C109 1.312 . S
C111 O83 1.214 . S
C111 O91 1.234 . S
C112 H84 0.929 . S
C112 C115 1.391 . S
C112 C117 1.391 . S
C113 H85 0.929 . S
C113 C114 1.390 . S
C113 N116 1.391 . S
C114 H86 0.930 . S
C114 C113 1.390 . S
C114 C115 1.392 . S
C115 H87 0.929 . S
C115 C112 1.391 . S
C115 C114 1.392 . S
N116 Co60 2.257 . S
N116 C113 1.391 . S
N116 C117 1.388 . S
C117 H88 0.930 . S
C117 C112 1.391 . S
C117 N116 1.388 . S
Co118 O120 2.143 . S
Co118 O126 2.074 . S
Co118 O129 2.093 . S
Co118 O142 2.097 . S
Co118 N159 2.151 . S
Co118 N167 2.214 . S
Co119 O120 2.160 . S
Co119 O125 2.058 . S
Co119 O135 2.057 . S
Co119 O150 2.037 . S
Co119 N154 2.145 . S
Co119 N175 2.257 . S
O120 Co118 2.143 . S
O120 Co119 2.160 . S
C121 O122 1.278 . S
C121 O129 1.224 . S
O122 C121 1.278 . S
C123 O124 1.245 . S
C123 O135 1.232 . S
O124 C123 1.245 . S
O125 Co119 2.058 . S
O125 C151 1.269 . S
O126 Co118 2.074 . S
O126 C151 1.257 . S
H127 C152 0.930 . S
H128 C158 0.930 . S
O129 Co118 2.093 . S
O129 C121 1.224 . S
H130 C162 0.929 . S
H131 C164 0.930 . S
H132 C165 0.930 . S
H133 C163 0.929 . S
H134 C166 0.928 . S
O135 Co119 2.057 . S
O135 C123 1.232 . S
H136 C155 0.929 . S
H137 C156 0.929 . S
H138 C168 0.931 . S
H139 C160 0.929 . S
H140 C169 0.930 . S
H141 C161 0.931 . S
O142 Co118 2.097 . S
O142 C170 1.214 . S
H143 C171 0.929 . S
H144 C172 0.929 . S
H145 C173 0.930 . S
H146 C174 0.929 . S
H147 C176 0.930 . S
H148 C153 0.930 . S
H149 C157 0.930 . S
O150 Co119 2.037 . S
O150 C170 1.234 . S
C151 O125 1.269 . S
C151 O126 1.257 . S
C152 H127 0.930 . S
C152 C155 1.388 . S
C152 C157 1.418 . S
C153 H148 0.930 . S
C153 C156 1.404 . S
C153 C157 1.353 . S
N154 Co119 2.145 . S
N154 C155 1.397 . S
N154 C156 1.334 . S
C155 H136 0.929 . S
C155 C152 1.388 . S
C155 N154 1.397 . S
C156 H137 0.929 . S
C156 C153 1.404 . S
C156 N154 1.334 . S
C157 H149 0.930 . S
C157 C152 1.418 . S
C157 C153 1.353 . S
C158 H128 0.930 . S
C158 N159 1.330 . S
C158 C160 1.446 . S
N159 Co118 2.151 . S
N159 C158 1.330 . S
N159 C163 1.418 . S
C160 H139 0.929 . S
C160 C158 1.446 . S
C160 C161 1.332 . S
C161 H141 0.931 . S
C161 C160 1.332 . S
C161 C162 1.267 . S
C162 H130 0.929 . S
C162 C161 1.267 . S
C162 C163 1.251 . S
C163 H133 0.929 . S
C163 N159 1.418 . S
C163 C162 1.251 . S
C164 H131 0.930 . S
C164 C166 1.406 . S
C164 C169 1.261 . S
C165 H132 0.930 . S
C165 N167 1.325 . S
C165 C168 1.357 . S
C166 H134 0.928 . S
C166 C164 1.406 . S
C166 N167 1.261 . S
N167 Co118 2.214 . S
N167 C165 1.325 . S
N167 C166 1.261 . S
C168 H138 0.931 . S
C168 C165 1.357 . S
C168 C169 1.312 . S
C169 H140 0.930 . S
C169 C164 1.261 . S
C169 C168 1.312 . S
C170 O142 1.214 . S
C170 O150 1.234 . S
C171 H143 0.929 . S
C171 C174 1.391 . S
C171 C176 1.391 . S
C172 H144 0.929 . S
C172 C173 1.390 . S
C172 N175 1.391 . S
C173 H145 0.930 . S
C173 C172 1.390 . S
C173 C174 1.392 . S
C174 H146 0.929 . S
C174 C171 1.391 . S
C174 C173 1.392 . S
N175 Co119 2.257 . S
N175 C172 1.391 . S
N175 C176 1.388 . S
C176 H147 0.930 . S
C176 C171 1.391 . S
C176 N175 1.388 . S
Co177 O179 2.143 . S
Co177 O185 2.074 . S
Co177 O188 2.093 . S
Co177 O201 2.097 1_554 S
Co177 N218 2.151 . S
Co177 N226 2.214 1_554 S
Co178 O179 2.160 . S
Co178 O184 2.058 . S
Co178 O194 2.057 . S
Co178 O209 2.037 . S
Co178 N213 2.145 . S
Co178 N234 2.257 . S
O179 Co177 2.143 . S
O179 Co178 2.160 . S
C180 O181 1.278 . S
C180 O188 1.224 . S
O181 C180 1.278 . S
C182 O183 1.245 . S
C182 O194 1.232 . S
O183 C182 1.245 . S
O184 Co178 2.058 . S
O184 C210 1.269 . S
O185 Co177 2.074 . S
O185 C210 1.257 . S
H186 C211 0.930 . S
H187 C217 0.930 . S
O188 Co177 2.093 . S
O188 C180 1.224 . S
H189 C221 0.929 . S
H190 C223 0.930 . S
H191 C224 0.930 . S
H192 C222 0.929 . S
H193 C225 0.928 . S
O194 Co178 2.057 . S
O194 C182 1.232 . S
H195 C214 0.929 . S
H196 C215 0.929 . S
H197 C227 0.931 . S
H198 C219 0.929 . S
H199 C228 0.930 . S
H200 C220 0.931 . S
O201 Co177 2.097 1_556 S
O201 C229 1.214 . S
H202 C230 0.929 . S
H203 C231 0.929 . S
H204 C232 0.930 . S
H205 C233 0.929 . S
H206 C235 0.930 . S
H207 C212 0.930 . S
H208 C216 0.930 . S
O209 Co178 2.037 . S
O209 C229 1.234 1_554 S
C210 O184 1.269 . S
C210 O185 1.257 . S
C211 H186 0.930 . S
C211 C214 1.388 . S
C211 C216 1.418 . S
C212 H207 0.930 . S
C212 C215 1.404 . S
C212 C216 1.353 . S
N213 Co178 2.145 . S
N213 C214 1.397 . S
N213 C215 1.334 . S
C214 H195 0.929 . S
C214 C211 1.388 . S
C214 N213 1.397 . S
C215 H196 0.929 . S
C215 C212 1.404 . S
C215 N213 1.334 . S
C216 H208 0.930 . S
C216 C211 1.418 . S
C216 C212 1.353 . S
C217 H187 0.930 . S
C217 N218 1.330 . S
C217 C219 1.446 . S
N218 Co177 2.151 . S
N218 C217 1.330 . S
N218 C222 1.418 . S
C219 H198 0.929 . S
C219 C217 1.446 . S
C219 C220 1.332 . S
C220 H200 0.931 . S
C220 C219 1.332 . S
C220 C221 1.267 . S
C221 H189 0.929 . S
C221 C220 1.267 . S
C221 C222 1.251 . S
C222 H192 0.929 . S
C222 N218 1.418 . S
C222 C221 1.251 . S
C223 H190 0.930 . S
C223 C225 1.406 . S
C223 C228 1.261 . S
C224 H191 0.930 . S
C224 N226 1.325 . S
C224 C227 1.357 . S
C225 H193 0.928 . S
C225 C223 1.406 . S
C225 N226 1.261 . S
N226 Co177 2.214 1_556 S
N226 C224 1.325 . S
N226 C225 1.261 . S
C227 H197 0.931 . S
C227 C224 1.357 . S
C227 C228 1.312 . S
C228 H199 0.930 . S
C228 C223 1.261 . S
C228 C227 1.312 . S
C229 O201 1.214 . S
C229 O209 1.234 1_556 S
C230 H202 0.929 . S
C230 C233 1.391 . S
C230 C235 1.391 . S
C231 H203 0.929 . S
C231 C232 1.390 . S
C231 N234 1.391 . S
C232 H204 0.930 . S
C232 C231 1.390 . S
C232 C233 1.392 . S
C233 H205 0.929 . S
C233 C230 1.391 . S
C233 C232 1.392 . S
N234 Co178 2.257 . S
N234 C231 1.391 . S
N234 C235 1.388 . S
C235 H206 0.930 . S
C235 C230 1.391 . S
C235 N234 1.388 . S
Co236 O238 2.143 . S
Co236 O244 2.074 . S
Co236 O247 2.093 . S
Co236 O260 2.097 . S
Co236 N277 2.151 . S
Co236 N285 2.214 . S
Co237 O238 2.160 . S
Co237 O243 2.058 . S
Co237 O253 2.057 . S
Co237 O268 2.037 . S
Co237 N272 2.145 . S
Co237 N293 2.257 . S
O238 Co236 2.143 . S
O238 Co237 2.160 . S
C239 O240 1.278 . S
C239 O247 1.224 . S
O240 C239 1.278 . S
C241 O242 1.245 . S
C241 O253 1.232 . S
O242 C241 1.245 . S
O243 Co237 2.058 . S
O243 C269 1.269 . S
O244 Co236 2.074 . S
O244 C269 1.257 . S
H245 C270 0.930 . S
H246 C276 0.930 . S
O247 Co236 2.093 . S
O247 C239 1.224 . S
H248 C280 0.929 . S
H249 C282 0.930 . S
H250 C283 0.930 . S
H251 C281 0.929 . S
H252 C284 0.928 . S
O253 Co237 2.057 . S
O253 C241 1.232 . S
H254 C273 0.929 . S
H255 C274 0.929 . S
H256 C286 0.931 . S
H257 C278 0.929 . S
H258 C287 0.930 . S
H259 C279 0.931 . S
O260 Co236 2.097 . S
O260 C288 1.214 . S
H261 C289 0.929 . S
H262 C290 0.929 . S
H263 C291 0.930 . S
H264 C292 0.929 . S
H265 C294 0.930 . S
H266 C271 0.930 . S
H267 C275 0.930 . S
O268 Co237 2.037 . S
O268 C288 1.234 . S
C269 O243 1.269 . S
C269 O244 1.257 . S
C270 H245 0.930 . S
C270 C273 1.388 . S
C270 C275 1.418 . S
C271 H266 0.930 . S
C271 C274 1.404 . S
C271 C275 1.353 . S
N272 Co237 2.145 . S
N272 C273 1.397 . S
N272 C274 1.334 . S
C273 H254 0.929 . S
C273 C270 1.388 . S
C273 N272 1.397 . S
C274 H255 0.929 . S
C274 C271 1.404 . S
C274 N272 1.334 . S
C275 H267 0.930 . S
C275 C270 1.418 . S
C275 C271 1.353 . S
C276 H246 0.930 . S
C276 N277 1.330 . S
C276 C278 1.446 . S
N277 Co236 2.151 . S
N277 C276 1.330 . S
N277 C281 1.418 . S
C278 H257 0.929 . S
C278 C276 1.446 . S
C278 C279 1.332 . S
C279 H259 0.931 . S
C279 C278 1.332 . S
C279 C280 1.267 . S
C280 H248 0.929 . S
C280 C279 1.267 . S
C280 C281 1.251 . S
C281 H251 0.929 . S
C281 N277 1.418 . S
C281 C280 1.251 . S
C282 H249 0.930 . S
C282 C284 1.406 . S
C282 C287 1.261 . S
C283 H250 0.930 . S
C283 N285 1.325 . S
C283 C286 1.357 . S
C284 H252 0.928 . S
C284 C282 1.406 . S
C284 N285 1.261 . S
N285 Co236 2.214 . S
N285 C283 1.325 . S
N285 C284 1.261 . S
C286 H256 0.931 . S
C286 C283 1.357 . S
C286 C287 1.312 . S
C287 H258 0.930 . S
C287 C282 1.261 . S
C287 C286 1.312 . S
C288 O260 1.214 . S
C288 O268 1.234 . S
C289 H261 0.929 . S
C289 C292 1.391 . S
C289 C294 1.391 . S
C290 H262 0.929 . S
C290 C291 1.390 . S
C290 N293 1.391 . S
C291 H263 0.930 . S
C291 C290 1.390 . S
C291 C292 1.392 . S
C292 H264 0.929 . S
C292 C289 1.391 . S
C292 C291 1.392 . S
N293 Co237 2.257 . S
N293 C290 1.391 . S
N293 C294 1.388 . S
C294 H265 0.930 . S
C294 C289 1.391 . S
C294 N293 1.388 . S
Co295 O297 2.143 . S
Co295 O303 2.074 . S
Co295 O306 2.093 . S
Co295 O319 2.097 . S
Co295 N336 2.151 . S
Co295 N344 2.214 . S
Co296 O297 2.160 . S
Co296 O302 2.058 . S
Co296 O312 2.057 . S
Co296 O327 2.037 . S
Co296 N331 2.145 . S
Co296 N352 2.257 . S
O297 Co295 2.143 . S
O297 Co296 2.160 . S
C298 O299 1.278 . S
C298 O306 1.224 . S
O299 C298 1.278 . S
C300 O301 1.245 . S
C300 O312 1.232 . S
O301 C300 1.245 . S
O302 Co296 2.058 . S
O302 C328 1.269 . S
O303 Co295 2.074 . S
O303 C328 1.257 . S
H304 C329 0.930 . S
H305 C335 0.930 . S
O306 Co295 2.093 . S
O306 C298 1.224 . S
H307 C339 0.929 . S
H308 C341 0.930 . S
H309 C342 0.930 . S
H310 C340 0.929 . S
H311 C343 0.928 . S
O312 Co296 2.057 . S
O312 C300 1.232 . S
H313 C332 0.929 . S
H314 C333 0.929 . S
H315 C345 0.931 . S
H316 C337 0.929 . S
H317 C346 0.930 . S
H318 C338 0.931 . S
O319 Co295 2.097 . S
O319 C347 1.214 . S
H320 C348 0.929 . S
H321 C349 0.929 . S
H322 C350 0.930 . S
H323 C351 0.929 . S
H324 C353 0.930 . S
H325 C330 0.930 . S
H326 C334 0.930 . S
O327 Co296 2.037 . S
O327 C347 1.234 . S
C328 O302 1.269 . S
C328 O303 1.257 . S
C329 H304 0.930 . S
C329 C332 1.388 . S
C329 C334 1.418 . S
C330 H325 0.930 . S
C330 C333 1.404 . S
C330 C334 1.353 . S
N331 Co296 2.145 . S
N331 C332 1.397 . S
N331 C333 1.334 . S
C332 H313 0.929 . S
C332 C329 1.388 . S
C332 N331 1.397 . S
C333 H314 0.929 . S
C333 C330 1.404 . S
C333 N331 1.334 . S
C334 H326 0.930 . S
C334 C329 1.418 . S
C334 C330 1.353 . S
C335 H305 0.930 . S
C335 N336 1.330 . S
C335 C337 1.446 . S
N336 Co295 2.151 . S
N336 C335 1.330 . S
N336 C340 1.418 . S
C337 H316 0.929 . S
C337 C335 1.446 . S
C337 C338 1.332 . S
C338 H318 0.931 . S
C338 C337 1.332 . S
C338 C339 1.267 . S
C339 H307 0.929 . S
C339 C338 1.267 . S
C339 C340 1.251 . S
C340 H310 0.929 . S
C340 N336 1.418 . S
C340 C339 1.251 . S
C341 H308 0.930 . S
C341 C343 1.406 . S
C341 C346 1.261 . S
C342 H309 0.930 . S
C342 N344 1.325 . S
C342 C345 1.357 . S
C343 H311 0.928 . S
C343 C341 1.406 . S
C343 N344 1.261 . S
N344 Co295 2.214 . S
N344 C342 1.325 . S
N344 C343 1.261 . S
C345 H315 0.931 . S
C345 C342 1.357 . S
C345 C346 1.312 . S
C346 H317 0.930 . S
C346 C341 1.261 . S
C346 C345 1.312 . S
C347 O319 1.214 . S
C347 O327 1.234 . S
C348 H320 0.929 . S
C348 C351 1.391 . S
C348 C353 1.391 . S
C349 H321 0.929 . S
C349 C350 1.390 . S
C349 N352 1.391 . S
C350 H322 0.930 . S
C350 C349 1.390 . S
C350 C351 1.392 . S
C351 H323 0.929 . S
C351 C348 1.391 . S
C351 C350 1.392 . S
N352 Co296 2.257 . S
N352 C349 1.391 . S
N352 C353 1.388 . S
C353 H324 0.930 . S
C353 C348 1.391 . S
C353 N352 1.388 . S
Co354 O356 2.143 . S
Co354 O362 2.074 . S
Co354 O365 2.093 . S
Co354 O378 2.097 . S
Co354 N395 2.151 . S
Co354 N403 2.214 . S
Co355 O356 2.160 . S
Co355 O361 2.058 . S
Co355 O371 2.057 . S
Co355 O386 2.037 . S
Co355 N390 2.145 . S
Co355 N411 2.257 . S
O356 Co354 2.143 . S
O356 Co355 2.160 . S
C357 O358 1.278 . S
C357 O365 1.224 . S
O358 C357 1.278 . S
C359 O360 1.245 . S
C359 O371 1.232 . S
O360 C359 1.245 . S
O361 Co355 2.058 . S
O361 C387 1.269 . S
O362 Co354 2.074 . S
O362 C387 1.257 . S
H363 C388 0.930 . S
H364 C394 0.930 . S
O365 Co354 2.093 . S
O365 C357 1.224 . S
H366 C398 0.929 . S
H367 C400 0.930 . S
H368 C401 0.930 . S
H369 C399 0.929 . S
H370 C402 0.928 . S
O371 Co355 2.057 . S
O371 C359 1.232 . S
H372 C391 0.929 . S
H373 C392 0.929 . S
H374 C404 0.931 . S
H375 C396 0.929 . S
H376 C405 0.930 . S
H377 C397 0.931 . S
O378 Co354 2.097 . S
O378 C406 1.214 . S
H379 C407 0.929 . S
H380 C408 0.929 . S
H381 C409 0.930 . S
H382 C410 0.929 . S
H383 C412 0.930 . S
H384 C389 0.930 . S
H385 C393 0.930 . S
O386 Co355 2.037 . S
O386 C406 1.234 . S
C387 O361 1.269 . S
C387 O362 1.257 . S
C388 H363 0.930 . S
C388 C391 1.388 . S
C388 C393 1.418 . S
C389 H384 0.930 . S
C389 C392 1.404 . S
C389 C393 1.353 . S
N390 Co355 2.145 . S
N390 C391 1.397 . S
N390 C392 1.334 . S
C391 H372 0.929 . S
C391 C388 1.388 . S
C391 N390 1.397 . S
C392 H373 0.929 . S
C392 C389 1.404 . S
C392 N390 1.334 . S
C393 H385 0.930 . S
C393 C388 1.418 . S
C393 C389 1.353 . S
C394 H364 0.930 . S
C394 N395 1.330 . S
C394 C396 1.446 . S
N395 Co354 2.151 . S
N395 C394 1.330 . S
N395 C399 1.418 . S
C396 H375 0.929 . S
C396 C394 1.446 . S
C396 C397 1.332 . S
C397 H377 0.931 . S
C397 C396 1.332 . S
C397 C398 1.267 . S
C398 H366 0.929 . S
C398 C397 1.267 . S
C398 C399 1.251 . S
C399 H369 0.929 . S
C399 N395 1.418 . S
C399 C398 1.251 . S
C400 H367 0.930 . S
C400 C402 1.406 . S
C400 C405 1.261 . S
C401 H368 0.930 . S
C401 N403 1.325 . S
C401 C404 1.357 . S
C402 H370 0.928 . S
C402 C400 1.406 . S
C402 N403 1.261 . S
N403 Co354 2.214 . S
N403 C401 1.325 . S
N403 C402 1.261 . S
C404 H374 0.931 . S
C404 C401 1.357 . S
C404 C405 1.312 . S
C405 H376 0.930 . S
C405 C400 1.261 . S
C405 C404 1.312 . S
C406 O378 1.214 . S
C406 O386 1.234 . S
C407 H379 0.929 . S
C407 C410 1.391 . S
C407 C412 1.391 . S
C408 H380 0.929 . S
C408 C409 1.390 . S
C408 N411 1.391 . S
C409 H381 0.930 . S
C409 C408 1.390 . S
C409 C410 1.392 . S
C410 H382 0.929 . S
C410 C407 1.391 . S
C410 C409 1.392 . S
N411 Co355 2.257 . S
N411 C408 1.391 . S
N411 C412 1.388 . S
C412 H383 0.930 . S
C412 C407 1.391 . S
C412 N411 1.388 . S
Co413 O415 2.143 . S
Co413 O421 2.074 . S
Co413 O424 2.093 . S
Co413 O437 2.097 1_556 S
Co413 N454 2.151 . S
Co413 N462 2.214 1_556 S
Co414 O415 2.160 . S
Co414 O420 2.058 . S
Co414 O430 2.057 . S
Co414 O445 2.037 . S
Co414 N449 2.145 . S
Co414 N470 2.257 . S
O415 Co413 2.143 . S
O415 Co414 2.160 . S
C416 O417 1.278 . S
C416 O424 1.224 . S
O417 C416 1.278 . S
C418 O419 1.245 . S
C418 O430 1.232 . S
O419 C418 1.245 . S
O420 Co414 2.058 . S
O420 C446 1.269 . S
O421 Co413 2.074 . S
O421 C446 1.257 . S
H422 C447 0.930 . S
H423 C453 0.930 . S
O424 Co413 2.093 . S
O424 C416 1.224 . S
H425 C457 0.929 . S
H426 C459 0.930 . S
H427 C460 0.930 . S
H428 C458 0.929 . S
H429 C461 0.928 . S
O430 Co414 2.057 . S
O430 C418 1.232 . S
H431 C450 0.929 . S
H432 C451 0.929 . S
H433 C463 0.931 . S
H434 C455 0.929 . S
H435 C464 0.930 . S
H436 C456 0.931 . S
O437 Co413 2.097 1_554 S
O437 C465 1.214 . S
H438 C466 0.929 . S
H439 C467 0.929 . S
H440 C468 0.930 . S
H441 C469 0.929 . S
H442 C471 0.930 . S
H443 C448 0.930 . S
H444 C452 0.930 . S
O445 Co414 2.037 . S
O445 C465 1.234 1_556 S
C446 O420 1.269 . S
C446 O421 1.257 . S
C447 H422 0.930 . S
C447 C450 1.388 . S
C447 C452 1.418 . S
C448 H443 0.930 . S
C448 C451 1.404 . S
C448 C452 1.353 . S
N449 Co414 2.145 . S
N449 C450 1.397 . S
N449 C451 1.334 . S
C450 H431 0.929 . S
C450 C447 1.388 . S
C450 N449 1.397 . S
C451 H432 0.929 . S
C451 C448 1.404 . S
C451 N449 1.334 . S
C452 H444 0.930 . S
C452 C447 1.418 . S
C452 C448 1.353 . S
C453 H423 0.930 . S
C453 N454 1.330 . S
C453 C455 1.446 . S
N454 Co413 2.151 . S
N454 C453 1.330 . S
N454 C458 1.418 . S
C455 H434 0.929 . S
C455 C453 1.446 . S
C455 C456 1.332 . S
C456 H436 0.931 . S
C456 C455 1.332 . S
C456 C457 1.267 . S
C457 H425 0.929 . S
C457 C456 1.267 . S
C457 C458 1.251 . S
C458 H428 0.929 . S
C458 N454 1.418 . S
C458 C457 1.251 . S
C459 H426 0.930 . S
C459 C461 1.406 . S
C459 C464 1.261 . S
C460 H427 0.930 . S
C460 N462 1.325 . S
C460 C463 1.357 . S
C461 H429 0.928 . S
C461 C459 1.406 . S
C461 N462 1.261 . S
N462 Co413 2.214 1_554 S
N462 C460 1.325 . S
N462 C461 1.261 . S
C463 H433 0.931 . S
C463 C460 1.357 . S
C463 C464 1.312 . S
C464 H435 0.930 . S
C464 C459 1.261 . S
C464 C463 1.312 . S
C465 O437 1.214 . S
C465 O445 1.234 1_554 S
C466 H438 0.929 . S
C466 C469 1.391 . S
C466 C471 1.391 . S
C467 H439 0.929 . S
C467 C468 1.390 . S
C467 N470 1.391 . S
C468 H440 0.930 . S
C468 C467 1.390 . S
C468 C469 1.392 . S
C469 H441 0.929 . S
C469 C466 1.391 . S
C469 C468 1.392 . S
N470 Co414 2.257 . S
N470 C467 1.391 . S
N470 C471 1.388 . S
C471 H442 0.930 . S
C471 C466 1.391 . S
C471 N470 1.388 . S
Co472 O474 2.143 . S
Co472 O480 2.074 . S
Co472 O483 2.093 . S
Co472 O496 2.097 . S
Co472 N513 2.151 . S
Co472 N521 2.214 . S
Co473 O474 2.160 . S
Co473 O479 2.058 . S
Co473 O489 2.057 . S
Co473 O504 2.037 . S
Co473 N508 2.145 . S
Co473 N529 2.257 . S
O474 Co472 2.143 . S
O474 Co473 2.160 . S
C475 O476 1.278 . S
C475 O483 1.224 . S
O476 C475 1.278 . S
C477 O478 1.245 . S
C477 O489 1.232 . S
O478 C477 1.245 . S
O479 Co473 2.058 . S
O479 C505 1.269 . S
O480 Co472 2.074 . S
O480 C505 1.257 . S
H481 C506 0.930 . S
H482 C512 0.930 . S
O483 Co472 2.093 . S
O483 C475 1.224 . S
H484 C516 0.929 . S
H485 C518 0.930 . S
H486 C519 0.930 . S
H487 C517 0.929 . S
H488 C520 0.928 . S
O489 Co473 2.057 . S
O489 C477 1.232 . S
H490 C509 0.929 . S
H491 C510 0.929 . S
H492 C522 0.931 . S
H493 C514 0.929 . S
H494 C523 0.930 . S
H495 C515 0.931 . S
O496 Co472 2.097 . S
O496 C524 1.214 . S
H497 C525 0.929 . S
H498 C526 0.929 . S
H499 C527 0.930 . S
H500 C528 0.929 . S
H501 C530 0.930 . S
H502 C507 0.930 . S
H503 C511 0.930 . S
O504 Co473 2.037 . S
O504 C524 1.234 . S
C505 O479 1.269 . S
C505 O480 1.257 . S
C506 H481 0.930 . S
C506 C509 1.388 . S
C506 C511 1.418 . S
C507 H502 0.930 . S
C507 C510 1.404 . S
C507 C511 1.353 . S
N508 Co473 2.145 . S
N508 C509 1.397 . S
N508 C510 1.334 . S
C509 H490 0.929 . S
C509 C506 1.388 . S
C509 N508 1.397 . S
C510 H491 0.929 . S
C510 C507 1.404 . S
C510 N508 1.334 . S
C511 H503 0.930 . S
C511 C506 1.418 . S
C511 C507 1.353 . S
C512 H482 0.930 . S
C512 N513 1.330 . S
C512 C514 1.446 . S
N513 Co472 2.151 . S
N513 C512 1.330 . S
N513 C517 1.418 . S
C514 H493 0.929 . S
C514 C512 1.446 . S
C514 C515 1.332 . S
C515 H495 0.931 . S
C515 C514 1.332 . S
C515 C516 1.267 . S
C516 H484 0.929 . S
C516 C515 1.267 . S
C516 C517 1.251 . S
C517 H487 0.929 . S
C517 N513 1.418 . S
C517 C516 1.251 . S
C518 H485 0.930 . S
C518 C520 1.406 . S
C518 C523 1.261 . S
C519 H486 0.930 . S
C519 N521 1.325 . S
C519 C522 1.357 . S
C520 H488 0.928 . S
C520 C518 1.406 . S
C520 N521 1.261 . S
N521 Co472 2.214 . S
N521 C519 1.325 . S
N521 C520 1.261 . S
C522 H492 0.931 . S
C522 C519 1.357 . S
C522 C523 1.312 . S
C523 H494 0.930 . S
C523 C518 1.261 . S
C523 C522 1.312 . S
C524 O496 1.214 . S
C524 O504 1.234 . S
C525 H497 0.929 . S
C525 C528 1.391 . S
C525 C530 1.391 . S
C526 H498 0.929 . S
C526 C527 1.390 . S
C526 N529 1.391 . S
C527 H499 0.930 . S
C527 C526 1.390 . S
C527 C528 1.392 . S
C528 H500 0.929 . S
C528 C525 1.391 . S
C528 C527 1.392 . S
N529 Co473 2.257 . S
N529 C526 1.391 . S
N529 C530 1.388 . S
C530 H501 0.930 . S
C530 C525 1.391 . S
C530 N529 1.388 . S
Co531 O533 2.143 . S
Co531 O539 2.074 . S
Co531 O542 2.093 . S
Co531 O555 2.097 . S
Co531 N572 2.151 . S
Co531 N580 2.214 . S
Co532 O533 2.160 . S
Co532 O538 2.058 . S
Co532 O548 2.057 . S
Co532 O563 2.037 . S
Co532 N567 2.145 . S
Co532 N588 2.257 . S
O533 Co531 2.143 . S
O533 Co532 2.160 . S
C534 O535 1.278 . S
C534 O542 1.224 . S
O535 C534 1.278 . S
C536 O537 1.245 . S
C536 O548 1.232 . S
O537 C536 1.245 . S
O538 Co532 2.058 . S
O538 C564 1.269 . S
O539 Co531 2.074 . S
O539 C564 1.257 . S
H540 C565 0.930 . S
H541 C571 0.930 . S
O542 Co531 2.093 . S
O542 C534 1.224 . S
H543 C575 0.929 . S
H544 C577 0.930 . S
H545 C578 0.930 . S
H546 C576 0.929 . S
H547 C579 0.928 . S
O548 Co532 2.057 . S
O548 C536 1.232 . S
H549 C568 0.929 . S
H550 C569 0.929 . S
H551 C581 0.931 . S
H552 C573 0.929 . S
H553 C582 0.930 . S
H554 C574 0.931 . S
O555 Co531 2.097 . S
O555 C583 1.214 . S
H556 C584 0.929 . S
H557 C585 0.929 . S
H558 C586 0.930 . S
H559 C587 0.929 . S
H560 C589 0.930 . S
H561 C566 0.930 . S
H562 C570 0.930 . S
O563 Co532 2.037 . S
O563 C583 1.234 . S
C564 O538 1.269 . S
C564 O539 1.257 . S
C565 H540 0.930 . S
C565 C568 1.388 . S
C565 C570 1.418 . S
C566 H561 0.930 . S
C566 C569 1.404 . S
C566 C570 1.353 . S
N567 Co532 2.145 . S
N567 C568 1.397 . S
N567 C569 1.334 . S
C568 H549 0.929 . S
C568 C565 1.388 . S
C568 N567 1.397 . S
C569 H550 0.929 . S
C569 C566 1.404 . S
C569 N567 1.334 . S
C570 H562 0.930 . S
C570 C565 1.418 . S
C570 C566 1.353 . S
C571 H541 0.930 . S
C571 N572 1.330 . S
C571 C573 1.446 . S
N572 Co531 2.151 . S
N572 C571 1.330 . S
N572 C576 1.418 . S
C573 H552 0.929 . S
C573 C571 1.446 . S
C573 C574 1.332 . S
C574 H554 0.931 . S
C574 C573 1.332 . S
C574 C575 1.267 . S
C575 H543 0.929 . S
C575 C574 1.267 . S
C575 C576 1.251 . S
C576 H546 0.929 . S
C576 N572 1.418 . S
C576 C575 1.251 . S
C577 H544 0.930 . S
C577 C579 1.406 . S
C577 C582 1.261 . S
C578 H545 0.930 . S
C578 N580 1.325 . S
C578 C581 1.357 . S
C579 H547 0.928 . S
C579 C577 1.406 . S
C579 N580 1.261 . S
N580 Co531 2.214 . S
N580 C578 1.325 . S
N580 C579 1.261 . S
C581 H551 0.931 . S
C581 C578 1.357 . S
C581 C582 1.312 . S
C582 H553 0.930 . S
C582 C577 1.261 . S
C582 C581 1.312 . S
C583 O555 1.214 . S
C583 O563 1.234 . S
C584 H556 0.929 . S
C584 C587 1.391 . S
C584 C589 1.391 . S
C585 H557 0.929 . S
C585 C586 1.390 . S
C585 N588 1.391 . S
C586 H558 0.930 . S
C586 C585 1.390 . S
C586 C587 1.392 . S
C587 H559 0.929 . S
C587 C584 1.391 . S
C587 C586 1.392 . S
N588 Co532 2.257 . S
N588 C585 1.391 . S
N588 C589 1.388 . S
C589 H560 0.930 . S
C589 C584 1.391 . S
C589 N588 1.388 . S
Co590 O592 2.143 . S
Co590 O598 2.074 . S
Co590 O601 2.093 . S
Co590 O614 2.097 1_556 S
Co590 N631 2.151 . S
Co590 N639 2.214 1_556 S
Co591 O592 2.160 . S
Co591 O597 2.058 . S
Co591 O607 2.057 . S
Co591 O622 2.037 . S
Co591 N626 2.145 . S
Co591 N647 2.257 . S
O592 Co590 2.143 . S
O592 Co591 2.160 . S
C593 O594 1.278 . S
C593 O601 1.224 . S
O594 C593 1.278 . S
C595 O596 1.245 . S
C595 O607 1.232 . S
O596 C595 1.245 . S
O597 Co591 2.058 . S
O597 C623 1.269 . S
O598 Co590 2.074 . S
O598 C623 1.257 . S
H599 C624 0.930 . S
H600 C630 0.930 . S
O601 Co590 2.093 . S
O601 C593 1.224 . S
H602 C634 0.929 . S
H603 C636 0.930 . S
H604 C637 0.930 . S
H605 C635 0.929 . S
H606 C638 0.928 . S
O607 Co591 2.057 . S
O607 C595 1.232 . S
H608 C627 0.929 . S
H609 C628 0.929 . S
H610 C640 0.931 . S
H611 C632 0.929 . S
H612 C641 0.930 . S
H613 C633 0.931 . S
O614 Co590 2.097 1_554 S
O614 C642 1.214 . S
H615 C643 0.929 . S
H616 C644 0.929 . S
H617 C645 0.930 . S
H618 C646 0.929 . S
H619 C648 0.930 . S
H620 C625 0.930 . S
H621 C629 0.930 . S
O622 Co591 2.037 . S
O622 C642 1.234 1_556 S
C623 O597 1.269 . S
C623 O598 1.257 . S
C624 H599 0.930 . S
C624 C627 1.388 . S
C624 C629 1.418 . S
C625 H620 0.930 . S
C625 C628 1.404 . S
C625 C629 1.353 . S
N626 Co591 2.145 . S
N626 C627 1.397 . S
N626 C628 1.334 . S
C627 H608 0.929 . S
C627 C624 1.388 . S
C627 N626 1.397 . S
C628 H609 0.929 . S
C628 C625 1.404 . S
C628 N626 1.334 . S
C629 H621 0.930 . S
C629 C624 1.418 . S
C629 C625 1.353 . S
C630 H600 0.930 . S
C630 N631 1.330 . S
C630 C632 1.446 . S
N631 Co590 2.151 . S
N631 C630 1.330 . S
N631 C635 1.418 . S
C632 H611 0.929 . S
C632 C630 1.446 . S
C632 C633 1.332 . S
C633 H613 0.931 . S
C633 C632 1.332 . S
C633 C634 1.267 . S
C634 H602 0.929 . S
C634 C633 1.267 . S
C634 C635 1.251 . S
C635 H605 0.929 . S
C635 N631 1.418 . S
C635 C634 1.251 . S
C636 H603 0.930 . S
C636 C638 1.406 . S
C636 C641 1.261 . S
C637 H604 0.930 . S
C637 N639 1.325 . S
C637 C640 1.357 . S
C638 H606 0.928 . S
C638 C636 1.406 . S
C638 N639 1.261 . S
N639 Co590 2.214 1_554 S
N639 C637 1.325 . S
N639 C638 1.261 . S
C640 H610 0.931 . S
C640 C637 1.357 . S
C640 C641 1.312 . S
C641 H612 0.930 . S
C641 C636 1.261 . S
C641 C640 1.312 . S
C642 O614 1.214 . S
C642 O622 1.234 1_554 S
C643 H615 0.929 . S
C643 C646 1.391 . S
C643 C648 1.391 . S
C644 H616 0.929 . S
C644 C645 1.390 . S
C644 N647 1.391 . S
C645 H617 0.930 . S
C645 C644 1.390 . S
C645 C646 1.392 . S
C646 H618 0.929 . S
C646 C643 1.391 . S
C646 C645 1.392 . S
N647 Co591 2.257 . S
N647 C644 1.391 . S
N647 C648 1.388 . S
C648 H619 0.930 . S
C648 C643 1.391 . S
C648 N647 1.388 . S
Co649 O651 2.143 . S
Co649 O657 2.074 . S
Co649 O660 2.093 . S
Co649 O673 2.097 . S
Co649 N690 2.151 . S
Co649 N698 2.214 . S
Co650 O651 2.160 . S
Co650 O656 2.058 . S
Co650 O666 2.057 . S
Co650 O681 2.037 . S
Co650 N685 2.145 . S
Co650 N706 2.257 . S
O651 Co649 2.143 . S
O651 Co650 2.160 . S
C652 O653 1.278 . S
C652 O660 1.224 . S
O653 C652 1.278 . S
C654 O655 1.245 . S
C654 O666 1.232 . S
O655 C654 1.245 . S
O656 Co650 2.058 . S
O656 C682 1.269 . S
O657 Co649 2.074 . S
O657 C682 1.257 . S
H658 C683 0.930 . S
H659 C689 0.930 . S
O660 Co649 2.093 . S
O660 C652 1.224 . S
H661 C693 0.929 . S
H662 C695 0.930 . S
H663 C696 0.930 . S
H664 C694 0.929 . S
H665 C697 0.928 . S
O666 Co650 2.057 . S
O666 C654 1.232 . S
H667 C686 0.929 . S
H668 C687 0.929 . S
H669 C699 0.931 . S
H670 C691 0.929 . S
H671 C700 0.930 . S
H672 C692 0.931 . S
O673 Co649 2.097 . S
O673 C701 1.214 . S
H674 C702 0.929 . S
H675 C703 0.929 . S
H676 C704 0.930 . S
H677 C705 0.929 . S
H678 C707 0.930 . S
H679 C684 0.930 . S
H680 C688 0.930 . S
O681 Co650 2.037 . S
O681 C701 1.234 . S
C682 O656 1.269 . S
C682 O657 1.257 . S
C683 H658 0.930 . S
C683 C686 1.388 . S
C683 C688 1.418 . S
C684 H679 0.930 . S
C684 C687 1.404 . S
C684 C688 1.353 . S
N685 Co650 2.145 . S
N685 C686 1.397 . S
N685 C687 1.334 . S
C686 H667 0.929 . S
C686 C683 1.388 . S
C686 N685 1.397 . S
C687 H668 0.929 . S
C687 C684 1.404 . S
C687 N685 1.334 . S
C688 H680 0.930 . S
C688 C683 1.418 . S
C688 C684 1.353 . S
C689 H659 0.930 . S
C689 N690 1.330 . S
C689 C691 1.446 . S
N690 Co649 2.151 . S
N690 C689 1.330 . S
N690 C694 1.418 . S
C691 H670 0.929 . S
C691 C689 1.446 . S
C691 C692 1.332 . S
C692 H672 0.931 . S
C692 C691 1.332 . S
C692 C693 1.267 . S
C693 H661 0.929 . S
C693 C692 1.267 . S
C693 C694 1.251 . S
C694 H664 0.929 . S
C694 N690 1.418 . S
C694 C693 1.251 . S
C695 H662 0.930 . S
C695 C697 1.406 . S
C695 C700 1.261 . S
C696 H663 0.930 . S
C696 N698 1.325 . S
C696 C699 1.357 . S
C697 H665 0.928 . S
C697 C695 1.406 . S
C697 N698 1.261 . S
N698 Co649 2.214 . S
N698 C696 1.325 . S
N698 C697 1.261 . S
C699 H669 0.931 . S
C699 C696 1.357 . S
C699 C700 1.312 . S
C700 H671 0.930 . S
C700 C695 1.261 . S
C700 C699 1.312 . S
C701 O673 1.214 . S
C701 O681 1.234 . S
C702 H674 0.929 . S
C702 C705 1.391 . S
C702 C707 1.391 . S
C703 H675 0.929 . S
C703 C704 1.390 . S
C703 N706 1.391 . S
C704 H676 0.930 . S
C704 C703 1.390 . S
C704 C705 1.392 . S
C705 H677 0.929 . S
C705 C702 1.391 . S
C705 C704 1.392 . S
N706 Co650 2.257 . S
N706 C703 1.391 . S
N706 C707 1.388 . S
C707 H678 0.930 . S
C707 C702 1.391 . S
C707 N706 1.388 . S
H708 C714 0.930 . S
H709 C718 0.930 . S
H710 C723 0.929 . S
H711 C721 0.929 . S
H712 C716 0.929 . S
H713 C722 0.929 . S
C714 H708 0.930 . S
C714 C715 1.367 . S
C714 C722 1.378 . S
C715 C714 1.367 . S
C715 C723 1.433 . S
C716 H712 0.929 . S
C716 C718 1.378 . S
C716 C720 1.350 . S
C717 C720 1.463 . S
C717 C722 1.350 . S
C717 N725 1.427 . S
C718 H709 0.930 . S
C718 C716 1.378 . S
C718 C719 1.367 . S
C719 C718 1.367 . S
C719 C721 1.433 . S
C720 C716 1.350 . S
C720 C717 1.463 . S
C720 N724 1.427 . S
C721 H711 0.929 . S
C721 C719 1.433 . S
C721 N724 1.384 . S
C722 H713 0.929 . S
C722 C714 1.378 . S
C722 C717 1.350 . S
C723 H710 0.929 . S
C723 C715 1.433 . S
C723 N725 1.384 . S
N724 C720 1.427 . S
N724 C721 1.384 . S
N725 C717 1.427 . S
N725 C723 1.384 . S
H726 C732 0.930 . S
H727 C736 0.930 . S
H728 C741 0.929 . S
H729 C739 0.929 . S
H730 C734 0.929 . S
H731 C740 0.929 . S
C732 H726 0.930 . S
C732 C733 1.367 . S
C732 C740 1.378 . S
C733 C732 1.367 . S
C733 C741 1.433 . S
C734 H730 0.929 . S
C734 C736 1.378 . S
C734 C738 1.350 . S
C735 C738 1.463 . S
C735 C740 1.350 . S
C735 N743 1.427 . S
C736 H727 0.930 . S
C736 C734 1.378 . S
C736 C737 1.367 . S
C737 C736 1.367 . S
C737 C739 1.433 . S
C738 C734 1.350 . S
C738 C735 1.463 . S
C738 N742 1.427 . S
C739 H729 0.929 . S
C739 C737 1.433 . S
C739 N742 1.384 . S
C740 H731 0.929 . S
C740 C732 1.378 . S
C740 C735 1.350 . S
C741 H728 0.929 . S
C741 C733 1.433 . S
C741 N743 1.384 . S
N742 C738 1.427 . S
N742 C739 1.384 . S
N743 C735 1.427 . S
N743 C741 1.384 . S
H744 C750 0.930 . S
H745 C754 0.930 . S
H746 C759 0.929 . S
H747 C757 0.929 . S
H748 C752 0.929 . S
H749 C758 0.929 . S
C750 H744 0.930 . S
C750 C751 1.367 . S
C750 C758 1.378 . S
C751 C750 1.367 . S
C751 C759 1.433 . S
C752 H748 0.929 . S
C752 C754 1.378 . S
C752 C756 1.350 . S
C753 C756 1.463 1_556 S
C753 C758 1.350 . S
C753 N761 1.427 . S
C754 H745 0.930 . S
C754 C752 1.378 . S
C754 C755 1.367 . S
C755 C754 1.367 . S
C755 C757 1.433 . S
C756 C752 1.350 . S
C756 C753 1.463 1_554 S
C756 N760 1.427 . S
C757 H747 0.929 . S
C757 C755 1.433 . S
C757 N760 1.384 . S
C758 H749 0.929 . S
C758 C750 1.378 . S
C758 C753 1.350 . S
C759 H746 0.929 . S
C759 C751 1.433 . S
C759 N761 1.384 . S
N760 C756 1.427 . S
N760 C757 1.384 . S
N761 C753 1.427 . S
N761 C759 1.384 . S
H762 C768 0.930 . S
H763 C772 0.930 . S
H764 C777 0.929 . S
H765 C775 0.929 . S
H766 C770 0.929 . S
H767 C776 0.929 . S
C768 H762 0.930 . S
C768 C769 1.367 . S
C768 C776 1.378 . S
C769 C768 1.367 . S
C769 C777 1.433 . S
C770 H766 0.929 . S
C770 C772 1.378 . S
C770 C774 1.350 . S
C771 C774 1.463 . S
C771 C776 1.350 . S
C771 N779 1.427 . S
C772 H763 0.930 . S
C772 C770 1.378 . S
C772 C773 1.367 . S
C773 C772 1.367 . S
C773 C775 1.433 . S
C774 C770 1.350 . S
C774 C771 1.463 . S
C774 N778 1.427 . S
C775 H765 0.929 . S
C775 C773 1.433 . S
C775 N778 1.384 . S
C776 H767 0.929 . S
C776 C768 1.378 . S
C776 C771 1.350 . S
C777 H764 0.929 . S
C777 C769 1.433 . S
C777 N779 1.384 . S
N778 C774 1.427 . S
N778 C775 1.384 . S
N779 C771 1.427 . S
N779 C777 1.384 . S
H780 C786 0.930 . S
H781 C790 0.930 . S
H782 C795 0.929 . S
H783 C793 0.929 . S
H784 C788 0.929 . S
H785 C794 0.929 . S
C786 H780 0.930 . S
C786 C787 1.367 . S
C786 C794 1.378 . S
C787 C786 1.367 . S
C787 C795 1.433 . S
C788 H784 0.929 . S
C788 C790 1.378 . S
C788 C792 1.350 . S
C789 C792 1.463 . S
C789 C794 1.350 . S
C789 N797 1.427 . S
C790 H781 0.930 . S
C790 C788 1.378 . S
C790 C791 1.367 . S
C791 C790 1.367 . S
C791 C793 1.433 . S
C792 C788 1.350 . S
C792 C789 1.463 . S
C792 N796 1.427 . S
C793 H783 0.929 . S
C793 C791 1.433 . S
C793 N796 1.384 . S
C794 H785 0.929 . S
C794 C786 1.378 . S
C794 C789 1.350 . S
C795 H782 0.929 . S
C795 C787 1.433 . S
C795 N797 1.384 . S
N796 C792 1.427 . S
N796 C793 1.384 . S
N797 C789 1.427 . S
N797 C795 1.384 . S
H798 C804 0.930 . S
H799 C808 0.930 . S
H800 C813 0.929 . S
H801 C811 0.929 . S
H802 C806 0.929 . S
H803 C812 0.929 . S
C804 H798 0.930 . S
C804 C805 1.367 . S
C804 C812 1.378 . S
C805 C804 1.367 . S
C805 C813 1.433 . S
C806 H802 0.929 . S
C806 C808 1.378 . S
C806 C810 1.350 . S
C807 C810 1.463 1_554 S
C807 C812 1.350 . S
C807 N815 1.427 . S
C808 H799 0.930 . S
C808 C806 1.378 . S
C808 C809 1.367 . S
C809 C808 1.367 . S
C809 C811 1.433 . S
C810 C806 1.350 . S
C810 C807 1.463 1_556 S
C810 N814 1.427 . S
C811 H801 0.929 . S
C811 C809 1.433 . S
C811 N814 1.384 . S
C812 H803 0.929 . S
C812 C804 1.378 . S
C812 C807 1.350 . S
C813 H800 0.929 . S
C813 C805 1.433 . S
C813 N815 1.384 . S
N814 C810 1.427 . S
N814 C811 1.384 . S
N815 C807 1.427 . S
N815 C813 1.384 . S
H816 C822 0.930 . S
H817 C826 0.930 . S
H818 C831 0.929 . S
H819 C829 0.929 . S
H820 C824 0.930 . S
H821 C830 0.930 . S
C822 H816 0.930 . S
C822 C823 1.367 . S
C822 C830 1.377 1_554 S
C823 C822 1.367 . S
C823 C831 1.433 . S
C824 H820 0.930 . S
C824 C826 1.377 1_554 S
C824 C828 1.349 1_554 S
C825 C828 1.463 1_554 S
C825 C830 1.349 1_554 S
C825 N833 1.427 . S
C826 H817 0.930 . S
C826 C824 1.377 1_556 S
C826 C827 1.367 . S
C827 C826 1.367 . S
C827 C829 1.433 . S
C828 C824 1.349 1_556 S
C828 C825 1.463 1_556 S
C828 N832 1.427 . S
C829 H819 0.929 . S
C829 C827 1.433 . S
C829 N832 1.384 . S
C830 H821 0.930 . S
C830 C822 1.377 1_556 S
C830 C825 1.349 1_556 S
C831 H818 0.929 . S
C831 C823 1.433 . S
C831 N833 1.384 . S
N832 C828 1.427 . S
N832 C829 1.384 . S
N833 C825 1.427 . S
N833 C831 1.384 . S
H834 C840 0.930 . S
H835 C844 0.930 . S
H836 C849 0.929 . S
H837 C847 0.929 . S
H838 C842 0.929 . S
H839 C848 0.929 . S
C840 H834 0.930 . S
C840 C841 1.367 . S
C840 C848 1.378 . S
C841 C840 1.367 . S
C841 C849 1.433 . S
C842 H838 0.929 . S
C842 C844 1.378 . S
C842 C846 1.350 . S
C843 C846 1.463 . S
C843 C848 1.350 . S
C843 N851 1.427 . S
C844 H835 0.930 . S
C844 C842 1.378 . S
C844 C845 1.367 . S
C845 C844 1.367 . S
C845 C847 1.433 . S
C846 C842 1.350 . S
C846 C843 1.463 . S
C846 N850 1.427 . S
C847 H837 0.929 . S
C847 C845 1.433 . S
C847 N850 1.384 . S
C848 H839 0.929 . S
C848 C840 1.378 . S
C848 C843 1.350 . S
C849 H836 0.929 . S
C849 C841 1.433 . S
C849 N851 1.384 . S
N850 C846 1.427 . S
N850 C847 1.384 . S
N851 C843 1.427 . S
N851 C849 1.384 . S
H852 C858 0.930 . S
H853 C862 0.930 . S
H854 C867 0.929 . S
H855 C865 0.929 . S
H856 C860 0.929 . S
H857 C866 0.929 . S
C858 H852 0.930 . S
C858 C859 1.367 . S
C858 C866 1.378 . S
C859 C858 1.367 . S
C859 C867 1.433 . S
C860 H856 0.929 . S
C860 C862 1.378 . S
C860 C864 1.350 . S
C861 C864 1.463 . S
C861 C866 1.350 . S
C861 N869 1.427 . S
C862 H853 0.930 . S
C862 C860 1.378 . S
C862 C863 1.367 . S
C863 C862 1.367 . S
C863 C865 1.433 . S
C864 C860 1.350 . S
C864 C861 1.463 . S
C864 N868 1.427 . S
C865 H855 0.929 . S
C865 C863 1.433 . S
C865 N868 1.384 . S
C866 H857 0.929 . S
C866 C858 1.378 . S
C866 C861 1.350 . S
C867 H854 0.929 . S
C867 C859 1.433 . S
C867 N869 1.384 . S
N868 C864 1.427 . S
N868 C865 1.384 . S
N869 C861 1.427 . S
N869 C867 1.384 . S
H870 C876 0.930 . S
H871 C880 0.930 . S
H872 C885 0.929 . S
H873 C883 0.929 . S
H874 C878 0.929 . S
H875 C884 0.929 . S
C876 H870 0.930 . S
C876 C877 1.367 . S
C876 C884 1.378 . S
C877 C876 1.367 . S
C877 C885 1.433 . S
C878 H874 0.929 . S
C878 C880 1.378 . S
C878 C882 1.350 . S
C879 C882 1.463 1_554 S
C879 C884 1.350 . S
C879 N887 1.427 1_554 S
C880 H871 0.930 . S
C880 C878 1.378 . S
C880 C881 1.367 . S
C881 C880 1.367 . S
C881 C883 1.433 . S
C882 C878 1.350 . S
C882 C879 1.463 1_556 S
C882 N886 1.427 1_556 S
C883 H873 0.929 . S
C883 C881 1.433 . S
C883 N886 1.384 1_556 S
C884 H875 0.929 . S
C884 C876 1.378 . S
C884 C879 1.350 . S
C885 H872 0.929 . S
C885 C877 1.433 . S
C885 N887 1.384 1_554 S
N886 C882 1.427 1_554 S
N886 C883 1.384 1_554 S
N887 C879 1.427 1_556 S
N887 C885 1.384 1_556 S
H888 C894 0.930 . S
H889 C898 0.930 . S
H890 C903 0.929 . S
H891 C901 0.929 . S
H892 C896 0.929 . S
H893 C902 0.929 . S
C894 H888 0.930 . S
C894 C895 1.367 . S
C894 C902 1.378 . S
C895 C894 1.367 . S
C895 C903 1.433 . S
C896 H892 0.929 . S
C896 C898 1.378 . S
C896 C900 1.350 . S
C897 C900 1.463 . S
C897 C902 1.350 . S
C897 N905 1.427 . S
C898 H889 0.930 . S
C898 C896 1.378 . S
C898 C899 1.367 . S
C899 C898 1.367 . S
C899 C901 1.433 . S
C900 C896 1.350 . S
C900 C897 1.463 . S
C900 N904 1.427 . S
C901 H891 0.929 . S
C901 C899 1.433 . S
C901 N904 1.384 . S
C902 H893 0.929 . S
C902 C894 1.378 . S
C902 C897 1.350 . S
C903 H890 0.929 . S
C903 C895 1.433 . S
C903 N905 1.384 . S
N904 C900 1.427 . S
N904 C901 1.384 . S
N905 C897 1.427 . S
N905 C903 1.384 . S
H906 C912 0.930 . S
H907 C916 0.930 . S
H908 C921 0.929 . S
H909 C919 0.929 . S
H910 C914 0.929 . S
H911 C920 0.929 . S
C912 H906 0.930 . S
C912 C913 1.367 . S
C912 C920 1.378 . S
C913 C912 1.367 . S
C913 C921 1.433 . S
C914 H910 0.929 . S
C914 C916 1.378 . S
C914 C918 1.350 . S
C915 C918 1.463 . S
C915 C920 1.350 . S
C915 N923 1.427 . S
C916 H907 0.930 . S
C916 C914 1.378 . S
C916 C917 1.367 . S
C917 C916 1.367 . S
C917 C919 1.433 . S
C918 C914 1.350 . S
C918 C915 1.463 . S
C918 N922 1.427 . S
C919 H909 0.929 . S
C919 C917 1.433 . S
C919 N922 1.384 . S
C920 H911 0.929 . S
C920 C912 1.378 . S
C920 C915 1.350 . S
C921 H908 0.929 . S
C921 C913 1.433 . S
C921 N923 1.384 . S
N922 C918 1.427 . S
N922 C919 1.384 . S
N923 C915 1.427 . S
N923 C921 1.384 . S
H924 C930 0.930 . S
H925 C934 0.930 . S
H926 C939 0.929 . S
H927 C937 0.923 1_556 S
H928 C932 0.929 . S
H929 C938 0.929 . S
C930 H924 0.930 . S
C930 C931 1.367 . S
C930 C938 1.378 . S
C931 C930 1.367 . S
C931 C939 1.433 . S
C932 H928 0.929 . S
C932 C934 1.378 . S
C932 C936 1.350 . S
C933 C936 1.463 . S
C933 C938 1.350 . S
C933 N941 1.427 . S
C934 H925 0.930 . S
C934 C932 1.378 . S
C934 C935 1.367 . S
C935 C934 1.367 . S
C935 C937 1.433 . S
C936 C932 1.350 . S
C936 C933 1.463 . S
C936 N940 1.427 . S
C937 H927 0.923 1_554 S
C937 C935 1.433 . S
C937 N940 1.384 . S
C938 H929 0.929 . S
C938 C930 1.378 . S
C938 C933 1.350 . S
C939 H926 0.929 . S
C939 C931 1.433 . S
C939 N941 1.384 . S
N940 C936 1.427 . S
N940 C937 1.384 . S
N941 C933 1.427 . S
N941 C939 1.384 . S
H942 C948 0.930 . S
H943 C952 0.930 . S
H944 C957 0.929 . S
H945 C955 0.929 . S
H946 C950 0.929 . S
H947 C956 0.929 . S
C948 H942 0.930 . S
C948 C949 1.367 . S
C948 C956 1.378 . S
C949 C948 1.367 . S
C949 C957 1.433 . S
C950 H946 0.929 . S
C950 C952 1.378 . S
C950 C954 1.350 . S
C951 C954 1.463 1_655 S
C951 C956 1.350 . S
C951 N959 1.427 . S
C952 H943 0.930 . S
C952 C950 1.378 . S
C952 C953 1.367 . S
C953 C952 1.367 . S
C953 C955 1.433 . S
C954 C950 1.350 . S
C954 C951 1.463 1_455 S
C954 N958 1.427 . S
C955 H945 0.929 . S
C955 C953 1.433 . S
C955 N958 1.384 . S
C956 H947 0.929 . S
C956 C948 1.378 . S
C956 C951 1.350 . S
C957 H944 0.929 . S
C957 C949 1.433 . S
C957 N959 1.384 . S
N958 C954 1.427 . S
N958 C955 1.384 . S
N959 C951 1.427 . S
N959 C957 1.384 . S
H960 C966 0.930 . S
H961 C970 0.930 . S
H962 C975 0.929 . S
H963 C973 0.929 . S
H964 C968 0.929 . S
H965 C974 0.929 . S
C966 H960 0.930 . S
C966 C967 1.367 . S
C966 C974 1.378 . S
C967 C966 1.367 . S
C967 C975 1.433 . S
C968 H964 0.929 . S
C968 C970 1.378 . S
C968 C972 1.350 . S
C969 C972 1.463 1_545 S
C969 C974 1.350 . S
C969 N977 1.427 . S
C970 H961 0.930 . S
C970 C968 1.378 . S
C970 C971 1.367 . S
C971 C970 1.367 . S
C971 C973 1.433 . S
C972 C968 1.350 . S
C972 C969 1.463 1_565 S
C972 N976 1.427 . S
C973 H963 0.929 . S
C973 C971 1.433 . S
C973 N976 1.384 . S
C974 H965 0.929 . S
C974 C966 1.378 . S
C974 C969 1.350 . S
C975 H962 0.929 . S
C975 C967 1.433 . S
C975 N977 1.384 . S
N976 C972 1.427 . S
N976 C973 1.384 . S
N977 C969 1.427 . S
N977 C975 1.384 . S
H978 C984 0.930 . S
H979 C988 0.930 . S
H980 C993 0.929 . S
H981 C991 0.929 . S
H982 C986 0.929 . S
H983 C992 0.929 . S
C984 H978 0.930 . S
C984 C985 1.367 . S
C984 C992 1.378 . S
C985 C984 1.367 . S
C985 C993 1.433 . S
C986 H982 0.929 . S
C986 C988 1.378 . S
C986 C990 1.350 . S
C987 C990 1.463 . S
C987 C992 1.350 . S
C987 N995 1.427 . S
C988 H979 0.930 . S
C988 C986 1.378 . S
C988 C989 1.367 . S
C989 C988 1.367 . S
C989 C991 1.433 . S
C990 C986 1.350 . S
C990 C987 1.463 . S
C990 N994 1.427 . S
C991 H981 0.929 . S
C991 C989 1.433 . S
C991 N994 1.384 . S
C992 H983 0.929 . S
C992 C984 1.378 . S
C992 C987 1.350 . S
C993 H980 0.929 . S
C993 C985 1.433 . S
C993 N995 1.384 . S
N994 C990 1.427 . S
N994 C991 1.384 . S
N995 C987 1.427 . S
N995 C993 1.384 . S
H996 C1002 0.930 . S
H997 C1006 0.930 . S
H998 C1011 0.929 . S
H999 C1009 0.929 . S
H1000 C1004 0.905 1_455 S
H1001 C1010 0.905 1_655 S
C1002 H996 0.930 . S
C1002 C1003 1.367 . S
C1002 C1010 1.378 . S
C1003 C1002 1.367 . S
C1003 C1011 1.433 . S
C1004 H1000 0.905 1_655 S
C1004 C1006 1.378 . S
C1004 C1008 1.350 . S
C1005 C1008 1.463 1_455 S
C1005 C1010 1.350 . S
C1005 N1013 1.427 . S
C1006 H997 0.930 . S
C1006 C1004 1.378 . S
C1006 C1007 1.367 . S
C1007 C1006 1.367 . S
C1007 C1009 1.433 . S
C1008 C1004 1.350 . S
C1008 C1005 1.463 1_655 S
C1008 N1012 1.427 . S
C1009 H999 0.929 . S
C1009 C1007 1.433 . S
C1009 N1012 1.384 . S
C1010 H1001 0.905 1_455 S
C1010 C1002 1.378 . S
C1010 C1005 1.350 . S
C1011 H998 0.929 . S
C1011 C1003 1.433 . S
C1011 N1013 1.384 . S
N1012 C1008 1.427 . S
N1012 C1009 1.384 . S
N1013 C1005 1.427 . S
N1013 C1011 1.384 . S
H1014 C1020 0.930 . S
H1015 C1024 0.930 . S
H1016 C1029 0.929 . S
H1017 C1027 0.929 . S
H1018 C1022 0.929 . S
H1019 C1028 0.929 . S
C1020 H1014 0.930 . S
C1020 C1021 1.367 . S
C1020 C1028 1.378 . S
C1021 C1020 1.367 . S
C1021 C1029 1.433 . S
C1022 H1018 0.929 . S
C1022 C1024 1.378 . S
C1022 C1026 1.350 . S
C1023 C1026 1.463 1_565 S
C1023 C1028 1.350 . S
C1023 N1031 1.427 . S
C1024 H1015 0.930 . S
C1024 C1022 1.378 . S
C1024 C1025 1.367 . S
C1025 C1024 1.367 . S
C1025 C1027 1.433 . S
C1026 C1022 1.350 . S
C1026 C1023 1.463 1_545 S
C1026 N1030 1.427 . S
C1027 H1017 0.929 . S
C1027 C1025 1.433 . S
C1027 N1030 1.384 . S
C1028 H1019 0.929 . S
C1028 C1020 1.378 . S
C1028 C1023 1.350 . S
C1029 H1016 0.929 . S
C1029 C1021 1.433 . S
C1029 N1031 1.384 . S
N1030 C1026 1.427 . S
N1030 C1027 1.384 . S
N1031 C1023 1.427 . S
N1031 C1029 1.384 . S
H1032 C1038 0.930 . S
H1033 C1042 0.930 . S
H1034 C1047 0.929 . S
H1035 C1045 0.929 . S
H1036 C1040 0.929 . S
H1037 C1046 0.929 . S
C1038 H1032 0.930 . S
C1038 C1039 1.367 . S
C1038 C1046 1.378 . S
C1039 C1038 1.367 . S
C1039 C1047 1.433 . S
C1040 H1036 0.929 . S
C1040 C1042 1.378 . S
C1040 C1044 1.350 . S
C1041 C1044 1.463 . S
C1041 C1046 1.350 . S
C1041 N1049 1.427 . S
C1042 H1033 0.930 . S
C1042 C1040 1.378 . S
C1042 C1043 1.367 . S
C1043 C1042 1.367 . S
C1043 C1045 1.433 . S
C1044 C1040 1.350 . S
C1044 C1041 1.463 . S
C1044 N1048 1.427 . S
C1045 H1035 0.929 . S
C1045 C1043 1.433 . S
C1045 N1048 1.384 . S
C1046 H1037 0.929 . S
C1046 C1038 1.378 . S
C1046 C1041 1.350 . S
C1047 H1034 0.929 . S
C1047 C1039 1.433 . S
C1047 N1049 1.384 . S
N1048 C1044 1.427 . S
N1048 C1045 1.384 . S
N1049 C1041 1.427 . S
N1049 C1047 1.384 . S
H1050 C1056 0.930 . S
H1051 C1060 0.930 . S
H1052 C1065 0.929 . S
H1053 C1063 0.929 . S
H1054 C1058 0.929 . S
H1055 C1064 0.929 . S
C1056 H1050 0.930 . S
C1056 C1057 1.367 . S
C1056 C1064 1.378 . S
C1057 C1056 1.367 . S
C1057 C1065 1.433 . S
C1058 H1054 0.929 . S
C1058 C1060 1.378 . S
C1058 C1062 1.350 . S
C1059 C1062 1.463 . S
C1059 C1064 1.350 . S
C1059 N1067 1.427 . S
C1060 H1051 0.930 . S
C1060 C1058 1.378 . S
C1060 C1061 1.367 . S
C1061 C1060 1.367 . S
C1061 C1063 1.433 . S
C1062 C1058 1.350 . S
C1062 C1059 1.463 . S
C1062 N1066 1.427 . S
C1063 H1053 0.929 . S
C1063 C1061 1.433 . S
C1063 N1066 1.384 . S
C1064 H1055 0.929 . S
C1064 C1056 1.378 . S
C1064 C1059 1.350 . S
C1065 H1052 0.929 . S
C1065 C1057 1.433 . S
C1065 N1067 1.384 . S
N1066 C1062 1.427 . S
N1066 C1063 1.384 . S
N1067 C1059 1.427 . S
N1067 C1065 1.384 . S
H1068 C1074 0.930 . S
H1069 C1078 0.930 . S
H1070 C1083 0.929 . S
H1071 C1081 0.929 . S
H1072 C1076 0.929 . S
H1073 C1082 0.929 . S
C1074 H1068 0.930 . S
C1074 C1075 1.367 . S
C1074 C1082 1.378 . S
C1075 C1074 1.367 . S
C1075 C1083 1.433 . S
C1076 H1072 0.929 . S
C1076 C1078 1.378 . S
C1076 C1080 1.350 . S
C1077 C1080 1.463 . S
C1077 C1082 1.350 . S
C1077 N1085 1.427 . S
C1078 H1069 0.930 . S
C1078 C1076 1.378 . S
C1078 C1079 1.367 . S
C1079 C1078 1.367 . S
C1079 C1081 1.433 . S
C1080 C1076 1.350 . S
C1080 C1077 1.463 . S
C1080 N1084 1.427 . S
C1081 H1071 0.929 . S
C1081 C1079 1.433 . S
C1081 N1084 1.384 . S
C1082 H1073 0.929 . S
C1082 C1074 1.378 . S
C1082 C1077 1.350 . S
C1083 H1070 0.929 . S
C1083 C1075 1.433 . S
C1083 N1085 1.384 . S
N1084 C1080 1.427 . S
N1084 C1081 1.384 . S
N1085 C1077 1.427 . S
N1085 C1083 1.384 . S
H1086 C1092 0.930 . S
H1087 C1096 0.930 . S
H1088 C1101 0.929 . S
H1089 C1099 0.929 . S
H1090 C1094 0.929 . S
H1091 C1100 0.929 . S
C1092 H1086 0.930 . S
C1092 C1093 1.367 . S
C1092 C1100 1.378 . S
C1093 C1092 1.367 . S
C1093 C1101 1.433 . S
C1094 H1090 0.929 . S
C1094 C1096 1.378 . S
C1094 C1098 1.350 . S
C1095 C1098 1.463 . S
C1095 C1100 1.350 . S
C1095 N1103 1.427 . S
C1096 H1087 0.930 . S
C1096 C1094 1.378 . S
C1096 C1097 1.367 . S
C1097 C1096 1.367 . S
C1097 C1099 1.433 . S
C1098 C1094 1.350 . S
C1098 C1095 1.463 . S
C1098 N1102 1.427 . S
C1099 H1089 0.929 . S
C1099 C1097 1.433 . S
C1099 N1102 1.384 . S
C1100 H1091 0.929 . S
C1100 C1092 1.378 . S
C1100 C1095 1.350 . S
C1101 H1088 0.929 . S
C1101 C1093 1.433 . S
C1101 N1103 1.384 . S
N1102 C1098 1.427 . S
N1102 C1099 1.384 . S
N1103 C1095 1.427 . S
N1103 C1101 1.384 . S
H1104 C1110 0.930 . S
H1105 C1114 0.930 . S
H1106 C1119 0.929 . S
H1107 C1117 0.929 . S
H1108 C1112 0.929 . S
H1109 C1118 0.929 . S
C1110 H1104 0.930 . S
C1110 C1111 1.367 . S
C1110 C1118 1.378 . S
C1111 C1110 1.367 . S
C1111 C1119 1.433 . S
C1112 H1108 0.929 . S
C1112 C1114 1.378 . S
C1112 C1116 1.350 . S
C1113 C1116 1.463 . S
C1113 C1118 1.350 . S
C1113 N1121 1.427 . S
C1114 H1105 0.930 . S
C1114 C1112 1.378 . S
C1114 C1115 1.367 . S
C1115 C1114 1.367 . S
C1115 C1117 1.433 . S
C1116 C1112 1.350 . S
C1116 C1113 1.463 . S
C1116 N1120 1.427 . S
C1117 H1107 0.929 . S
C1117 C1115 1.433 . S
C1117 N1120 1.384 . S
C1118 H1109 0.929 . S
C1118 C1110 1.378 . S
C1118 C1113 1.350 . S
C1119 H1106 0.929 . S
C1119 C1111 1.433 . S
C1119 N1121 1.384 . S
N1120 C1116 1.427 . S
N1120 C1117 1.384 . S
N1121 C1113 1.427 . S
N1121 C1119 1.384 . S
H1122 C1128 0.930 . S
H1123 C1132 0.930 . S
H1124 C1137 0.929 . S
H1125 C1135 0.929 . S
H1126 C1130 0.929 . S
H1127 C1136 0.929 . S
C1128 H1122 0.930 . S
C1128 C1129 1.367 . S
C1128 C1136 1.378 . S
C1129 C1128 1.367 . S
C1129 C1137 1.433 . S
C1130 H1126 0.929 . S
C1130 C1132 1.378 . S
C1130 C1134 1.350 . S
C1131 C1134 1.463 . S
C1131 C1136 1.350 . S
C1131 N1139 1.427 . S
C1132 H1123 0.930 . S
C1132 C1130 1.378 . S
C1132 C1133 1.367 . S
C1133 C1132 1.367 . S
C1133 C1135 1.433 . S
C1134 C1130 1.350 . S
C1134 C1131 1.463 . S
C1134 N1138 1.427 . S
C1135 H1125 0.929 . S
C1135 C1133 1.433 . S
C1135 N1138 1.384 . S
C1136 H1127 0.929 . S
C1136 C1128 1.378 . S
C1136 C1131 1.350 . S
C1137 H1124 0.929 . S
C1137 C1129 1.433 . S
C1137 N1139 1.384 . S
N1138 C1134 1.427 . S
N1138 C1135 1.384 . S
N1139 C1131 1.427 . S
N1139 C1137 1.384 . S
C715 C5 1.593 . S
C719 C359 1.590 . S
C733 C64 1.593 . S
C737 C418 1.591 . S
C751 C123 1.591 . S
C755 C477 1.588 . S
C769 C182 1.588 . S
C773 C536 1.592 . S
C787 C241 1.592 . S
C791 C595 1.591 . S
C805 C654 1.593 . S
C809 C300 1.588 . S
C823 C3 1.371 . S
C827 C593 1.378 . S
C841 C62 1.383 . S
C845 C652 1.383 . S
C859 C121 1.378 . S
C863 C357 1.384 . S
C877 C180 1.382 . S
C881 C416 1.376 . S
C895 C239 1.383 . S
C899 C475 1.377 . S
C913 C298 1.379 . S
C917 C534 1.384 . S
C931 C33 1.363 . S
C935 C210 1.363 . S
C949 C92 1.370 . S
C953 C269 1.371 . S
C967 C328 1.374 . S
C971 C151 1.373 . S
C985 C387 1.366 . S
C989 C564 1.365 . S
C1003 C623 1.375 . S
C1007 C446 1.375 . S
C1021 C505 1.374 . S
C1025 C682 1.374 . S
C1039 C406 0.922 . S
C1043 C52 0.920 . S
C1057 C111 0.914 . S
C1061 C465 0.916 . S
C1075 C170 0.919 . S
C1079 C524 0.916 . S
C1093 C583 0.913 . S
C1097 C229 0.915 . S
C1111 C642 0.912 . S
C1115 C288 0.912 . S
C1129 C347 0.918 . S
C1133 C701 0.916 . S
