# Generated by pormake.
# Topology ukh, (4)-cn, num edge types: 1
# Building blocks:
#     Node 0, Type 0, BuildingBlock: NAHDIM_clean_sbu_0, # of connection points: 4
#     Node 1, Type 0, BuildingBlock: NAHDIM_clean_sbu_0, # of connection points: 4
#     Node 2, Type 0, BuildingBlock: NAHDIM_clean_sbu_0, # of connection points: 4
#     Node 3, Type 0, BuildingBlock: NAHDIM_clean_sbu_0, # of connection points: 4
#     Node 4, Type 0, BuildingBlock: NAHDIM_clean_sbu_0, # of connection points: 4
#     Node 5, Type 0, BuildingBlock: NAHDIM_clean_sbu_0, # of connection points: 4
#     Node 6, Type 0, BuildingBlock: NAHDIM_clean_sbu_0, # of connection points: 4
#     Node 7, Type 0, BuildingBlock: NAHDIM_clean_sbu_0, # of connection points: 4
#     Node 8, Type 0, BuildingBlock: NAHDIM_clean_sbu_0, # of connection points: 4
#     Node 9, Type 0, BuildingBlock: NAHDIM_clean_sbu_0, # of connection points: 4
#     Node 10, Type 0, BuildingBlock: NAHDIM_clean_sbu_0, # of connection points: 4
#     Node 11, Type 0, BuildingBlock: NAHDIM_clean_sbu_0, # of connection points: 4
#     Edge 12, Type (0, 0), BuildingBlock: TEMPAE_clean_linker_10, # of connection points: 2
#     Edge 13, Type (0, 0), BuildingBlock: TEMPAE_clean_linker_10, # of connection points: 2
#     Edge 14, Type (0, 0), BuildingBlock: TEMPAE_clean_linker_10, # of connection points: 2
#     Edge 15, Type (0, 0), BuildingBlock: TEMPAE_clean_linker_10, # of connection points: 2
#     Edge 16, Type (0, 0), BuildingBlock: TEMPAE_clean_linker_10, # of connection points: 2
#     Edge 17, Type (0, 0), BuildingBlock: TEMPAE_clean_linker_10, # of connection points: 2
#     Edge 18, Type (0, 0), BuildingBlock: TEMPAE_clean_linker_10, # of connection points: 2
#     Edge 19, Type (0, 0), BuildingBlock: TEMPAE_clean_linker_10, # of connection points: 2
#     Edge 20, Type (0, 0), BuildingBlock: TEMPAE_clean_linker_10, # of connection points: 2
#     Edge 21, Type (0, 0), BuildingBlock: TEMPAE_clean_linker_10, # of connection points: 2
#     Edge 22, Type (0, 0), BuildingBlock: TEMPAE_clean_linker_10, # of connection points: 2
#     Edge 23, Type (0, 0), BuildingBlock: TEMPAE_clean_linker_10, # of connection points: 2
#     Edge 24, Type (0, 0), BuildingBlock: TEMPAE_clean_linker_10, # of connection points: 2
#     Edge 25, Type (0, 0), BuildingBlock: TEMPAE_clean_linker_10, # of connection points: 2
#     Edge 26, Type (0, 0), BuildingBlock: TEMPAE_clean_linker_10, # of connection points: 2
#     Edge 27, Type (0, 0), BuildingBlock: TEMPAE_clean_linker_10, # of connection points: 2
#     Edge 28, Type (0, 0), BuildingBlock: TEMPAE_clean_linker_10, # of connection points: 2
#     Edge 29, Type (0, 0), BuildingBlock: TEMPAE_clean_linker_10, # of connection points: 2
#     Edge 30, Type (0, 0), BuildingBlock: TEMPAE_clean_linker_10, # of connection points: 2
#     Edge 31, Type (0, 0), BuildingBlock: TEMPAE_clean_linker_10, # of connection points: 2
#     Edge 32, Type (0, 0), BuildingBlock: TEMPAE_clean_linker_10, # of connection points: 2
#     Edge 33, Type (0, 0), BuildingBlock: TEMPAE_clean_linker_10, # of connection points: 2
#     Edge 34, Type (0, 0), BuildingBlock: TEMPAE_clean_linker_10, # of connection points: 2
#     Edge 35, Type (0, 0), BuildingBlock: TEMPAE_clean_linker_10, # of connection points: 2
# Relax obj value: 0.181
# Max RMSD: 0.212
# Mean RMSD: 0.212
data_MOF--net-ukh--node1-NAHDIM_clean_sbu_0--edge1-TEMPAE_clean_linker_10
_symmetry_space_group_name_H-M    P1
_symmetry_Int_Tables_number       1
_symmetry_cell_setting            triclinic
loop_
_symmetry_equiv_pos_as_xyz
'x, y, z'
_cell_length_a     32.590686
_cell_length_b     32.563566
_cell_length_c     60.167573
_cell_angle_alpha  90.029488
_cell_angle_beta   89.93196
_cell_angle_gamma 119.92242
loop_
_atom_site_label
_atom_site_type_symbol
_atom_site_fract_x
_atom_site_fract_y
_atom_site_fract_z
_atom_type_partial_charge
C0 C 0.3672 0.32679 0.05278 0.0
O1 O 0.32809 0.31248 0.0643 0.0
O2 O 0.26312 0.22391 0.03407 0.0
Zn3 Zn 0.3218 0.22954 0.04799 0.0
O4 O 0.31236 0.21791 0.08077 0.0
C5 C 0.33043 0.17037 0.01474 0.0
O6 O 0.32002 0.19517 0.00098 0.0
O7 O 0.37425 0.29599 0.04329 0.0
C8 C 0.28831 0.1762 0.0885 0.0
O9 O 0.26798 0.1403 0.07466 0.0
C10 C 0.22774 0.18551 0.02742 0.0
O11 O 0.22762 0.14539 0.03 0.0
O12 O 0.33594 0.18117 0.03521 0.0
C13 C 0.05702 0.38045 0.34963 0.0
O14 O 0.04419 0.3442 0.33624 0.0
O15 O 0.05368 0.27491 0.36098 0.0
Zn16 Zn 0.10386 0.33811 0.3725 0.0
O17 O 0.10849 0.33335 0.40542 0.0
C18 C 0.16871 0.33788 0.34063 0.0
O19 O 0.13015 0.31693 0.32846 0.0
O20 O 0.08483 0.38651 0.36568 0.0
C21 C 0.11988 0.30394 0.41291 0.0
O22 O 0.12733 0.27746 0.39884 0.0
C23 C 0.01289 0.25471 0.36987 0.0
O24 O 0.00499 0.275 0.38694 0.0
O25 O 0.16663 0.35363 0.35963 0.0
C26 C 0.68193 0.10931 0.70255 0.0
O27 O 0.70251 0.13489 0.72029 0.0
O28 O 0.77531 0.05345 0.68594 0.0
Zn29 Zn 0.76867 0.10672 0.69879 0.0
O30 O 0.77475 0.10677 0.73193 0.0
C31 C 0.83955 0.17092 0.66871 0.0
O32 O 0.82015 0.13342 0.65576 0.0
O33 O 0.70457 0.09544 0.69045 0.0
C34 C 0.81405 0.11484 0.74004 0.0
O35 O 0.84844 0.12142 0.72647 0.0
C36 C 0.75184 0.01216 0.69417 0.0
O37 O 0.72464 0.00545 0.71152 0.0
O38 O 0.82122 0.16872 0.6876 0.0
C39 C 0.60966 0.67426 0.05113 0.0
O40 O 0.64883 0.6888 0.06258 0.0
O41 O 0.7147 0.77296 0.03155 0.0
Zn42 Zn 0.65687 0.77099 0.04452 0.0
O43 O 0.66693 0.78595 0.07705 0.0
C44 C 0.653 0.82898 0.00939 0.0
O45 O 0.66458 0.80318 0.99692 0.0
O46 O 0.60317 0.70476 0.04098 0.0
C47 C 0.68934 0.82845 0.08396 0.0
O48 O 0.70696 0.86324 0.06945 0.0
C49 C 0.75232 0.81034 0.02581 0.0
O50 O 0.75522 0.85176 0.02845 0.0
O51 O 0.64491 0.81927 0.0299 0.0
C52 C 0.89332 0.56944 0.36553 0.0
O53 O 0.86323 0.5584 0.38206 0.0
O54 O 0.96007 0.7234 0.36281 0.0
Zn55 Zn 0.90053 0.66149 0.36881 0.0
O56 O 0.88637 0.65252 0.40153 0.0
C57 C 0.8038 0.63804 0.36031 0.0
O58 O 0.79352 0.60776 0.37669 0.0
O59 O 0.9116 0.61048 0.357 0.0
C60 C 0.8994 0.68749 0.4146 0.0
O61 O 0.9244 0.73074 0.40675 0.0
C62 C 0.95949 0.75954 0.35524 0.0
O63 O 0.91865 0.75755 0.35209 0.0
O64 O 0.84637 0.66202 0.35363 0.0
C65 C 0.32835 0.95633 0.69411 0.0
O66 O 0.30598 0.97173 0.68149 0.0
O67 O 0.22974 0.96361 0.70541 0.0
Zn68 Zn 0.23899 0.91037 0.71643 0.0
O69 O 0.2284 0.90335 0.74932 0.0
C70 C 0.18281 0.84519 0.6817 0.0
O71 O 0.20923 0.88103 0.66855 0.0
O72 O 0.30595 0.92733 0.70971 0.0
C73 C 0.18694 0.88893 0.75678 0.0
O74 O 0.1527 0.88025 0.74274 0.0
C75 C 0.19193 0.95958 0.69728 0.0
O76 O 0.15343 0.91776 0.69667 0.0
O77 O 0.19143 0.8492 0.7024 0.0
C78 C 0.68404 0.56902 0.61591 0.0
O79 O 0.70167 0.56168 0.59768 0.0
O80 O 0.77895 0.7196 0.62672 0.0
Zn81 Zn 0.77321 0.6577 0.61755 0.0
O82 O 0.78166 0.65764 0.58435 0.0
C83 C 0.84161 0.67287 0.65106 0.0
O84 O 0.8192 0.69108 0.66171 0.0
O85 O 0.70909 0.6063 0.62717 0.0
C86 C 0.80577 0.64024 0.57629 0.0
O87 O 0.82289 0.62071 0.58973 0.0
C88 C 0.7464 0.72923 0.6228 0.0
O89 O 0.70888 0.69878 0.61157 0.0
O90 O 0.8259 0.65321 0.63237 0.0
C91 C 0.09608 0.6728 0.95561 0.0
O92 O 0.12436 0.69401 0.93869 0.0
O93 O 0.04679 0.77348 0.97065 0.0
Zn94 Zn 0.09863 0.76212 0.95965 0.0
O95 O 0.10581 0.77253 0.92672 0.0
C96 C 0.1589 0.8275 0.9924 0.0
O97 O 0.11943 0.80701 0.00397 0.0
O98 O 0.08194 0.69574 0.96736 0.0
C99 C 0.11984 0.81432 0.91978 0.0
O100 O 0.12779 0.84767 0.93429 0.0
C101 C 0.0134 0.76997 0.95845 0.0
O102 O 0.01148 0.75758 0.93752 0.0
O103 O 0.1596 0.81107 0.97336 0.0
C104 C 0.39215 0.06622 0.31221 0.0
O105 O 0.35578 0.05192 0.32568 0.0
O106 O 0.2875 0.06629 0.30407 0.0
Zn107 Zn 0.35023 0.11584 0.29171 0.0
O108 O 0.34264 0.1205 0.25897 0.0
C109 C 0.35331 0.18024 0.32455 0.0
O110 O 0.33584 0.14189 0.3369 0.0
O111 O 0.3986 0.09608 0.29708 0.0
C112 C 0.30948 0.12722 0.2523 0.0
O113 O 0.28154 0.13063 0.26704 0.0
C114 C 0.26327 0.0271 0.29404 0.0
O115 O 0.27952 0.01963 0.27538 0.0
O116 O 0.36669 0.17858 0.30492 0.0
C117 C 0.33163 0.37913 0.63579 0.0
O118 O 0.3099 0.34042 0.64784 0.0
O119 O 0.22145 0.27863 0.62886 0.0
Zn120 Zn 0.23904 0.34263 0.61642 0.0
O121 O 0.22723 0.33669 0.58365 0.0
C122 C 0.18204 0.35039 0.64993 0.0
O123 O 0.20368 0.33337 0.66205 0.0
O124 O 0.30785 0.38847 0.62202 0.0
C125 C 0.18608 0.30747 0.57656 0.0
O126 O 0.15274 0.28152 0.59096 0.0
C127 C 0.22911 0.2489 0.61872 0.0
O128 O 0.24923 0.25978 0.59902 0.0
O129 O 0.19527 0.36214 0.62996 0.0
C130 C 0.94259 0.3183 0.96525 0.0
O131 O 0.95964 0.29655 0.97724 0.0
O132 O 0.93783 0.21071 0.95694 0.0
Zn133 Zn 0.89012 0.22662 0.94458 0.0
O134 O 0.88447 0.21552 0.91172 0.0
C135 C 0.82652 0.16841 0.9781 0.0
O136 O 0.86529 0.19057 0.99006 0.0
O137 O 0.9109 0.29489 0.95083 0.0
C138 C 0.87057 0.17396 0.90449 0.0
O139 O 0.86124 0.13987 0.91877 0.0
C140 C 0.97417 0.21641 0.94649 0.0
O141 O 0.98176 0.23325 0.92613 0.0
O142 O 0.8274 0.18131 0.95812 0.0
C143 C 0.57093 0.89254 0.28998 0.0
O144 O 0.56133 0.86645 0.27198 0.0
O145 O 0.71878 0.9357 0.30283 0.0
Zn146 Zn 0.65606 0.88571 0.291 0.0
O147 O 0.65928 0.88444 0.25778 0.0
C148 C 0.64571 0.81752 0.32347 0.0
O149 O 0.65485 0.85284 0.33695 0.0
O150 O 0.60824 0.90314 0.30086 0.0
C151 C 0.69401 0.88314 0.24891 0.0
O152 O 0.72667 0.88339 0.26179 0.0
C153 C 0.73341 0.97839 0.29723 0.0
O154 O 0.70773 0.98762 0.28349 0.0
O155 O 0.64217 0.82275 0.30279 0.0
C156 C 0.53532 0.60648 0.03574 0.0
C157 C 0.5741 0.62329 0.05021 0.0
C158 C 0.50145 0.55808 0.03488 0.0
C159 C 0.50636 0.52601 0.04898 0.0
C160 C 0.54554 0.54276 0.06353 0.0
C161 C 0.57904 0.59118 0.06389 0.0
C162 C 0.46025 0.5413 0.01905 0.0
C163 C 0.55171 0.50964 0.07895 0.0
C164 C 0.39732 0.41038 0.06458 0.0
C165 C 0.40234 0.3778 0.05126 0.0
C166 C 0.43066 0.45882 0.06378 0.0
C167 C 0.46974 0.4751 0.04916 0.0
C168 C 0.47464 0.44256 0.03539 0.0
C169 C 0.44095 0.39416 0.03668 0.0
C170 C 0.42453 0.49246 0.07888 0.0
C171 C 0.51572 0.45881 0.01947 0.0
H172 H 0.53147 0.6311 0.02503 0.0
H173 H 0.60889 0.60393 0.07514 0.0
H174 H 0.45873 0.51327 0.00801 0.0
H175 H 0.42656 0.52544 0.02852 0.0
H176 H 0.46259 0.57049 0.00858 0.0
H177 H 0.58463 0.52826 0.08897 0.0
H178 H 0.52106 0.49233 0.09045 0.0
H179 H 0.5527 0.48117 0.06925 0.0
H180 H 0.3676 0.39799 0.07592 0.0
H181 H 0.44485 0.36916 0.02626 0.0
H182 H 0.42359 0.52065 0.06893 0.0
H183 H 0.45517 0.5101 0.09034 0.0
H184 H 0.3916 0.4742 0.08895 0.0
H185 H 0.51722 0.48654 0.00823 0.0
H186 H 0.51326 0.42929 0.00921 0.0
H187 H 0.54947 0.4749 0.02887 0.0
C188 C 0.04873 0.44902 0.36215 0.0
C189 C 0.03428 0.40988 0.34807 0.0
C190 C 0.02417 0.47411 0.36273 0.0
C191 C 0.98411 0.45962 0.34893 0.0
C192 C 0.97033 0.42124 0.33409 0.0
C193 C -0.00432 0.39683 0.3338 0.0
C194 C 0.04022 0.51521 0.37864 0.0
C195 C 0.92786 0.40494 0.3191 0.0
C196 C 0.89742 0.4954 0.37078 0.0
C197 C 0.91132 0.53748 0.35903 0.0
C198 C 0.91932 0.46834 0.36687 0.0
C199 C 0.95586 0.48378 0.35081 0.0
C200 C 0.96812 0.5247 0.338 0.0
C201 C 0.94566 0.55107 0.34225 0.0
C202 C 0.90508 0.42462 0.38075 0.0
C203 C 0.00672 0.54209 0.32064 0.0
H204 H 0.07867 0.45947 0.37314 0.0
H205 H 0.98425 0.36658 0.32288 0.0
H206 H 0.04632 0.54742 0.36955 0.0
H207 H 0.01214 0.50705 0.39116 0.0
H208 H 0.07329 0.52327 0.38751 0.0
H209 H 0.92386 0.37678 0.3074 0.0
H210 H 0.89526 0.39097 0.32933 0.0
H211 H 0.93073 0.43519 0.30937 0.0
H212 H 0.87073 0.4845 0.38368 0.0
H213 H 0.95635 0.58335 0.33294 0.0
H214 H 0.93465 0.43085 0.39197 0.0
H215 H 0.89779 0.39411 0.36995 0.0
H216 H 0.87321 0.415 0.39105 0.0
H217 H 0.04145 0.55505 0.3289 0.0
H218 H 0.00841 0.57138 0.31048 0.0
H219 H 0.00117 0.51275 0.3094 0.0
C220 C 0.4066 0.01744 0.67884 0.0
C221 C 0.38017 0.97718 0.69209 0.0
C222 C 0.45622 0.04072 0.67864 0.0
C223 C 0.47982 0.023 0.69184 0.0
C224 C 0.45331 0.98133 0.70457 0.0
C225 C 0.40377 0.959 0.7046 0.0
C226 C 0.48339 0.08514 0.66491 0.0
C227 C 0.4773 0.96106 0.71865 0.0
C228 C 0.60796 0.05895 0.681 0.0
C229 C 0.63111 0.09144 0.69826 0.0
C230 C 0.55881 0.03742 0.67827 0.0
C231 C 0.53228 0.04885 0.69308 0.0
C232 C 0.55564 0.08313 0.70992 0.0
C233 C 0.60483 0.10399 0.71233 0.0
C234 C 0.53508 0.00102 0.66012 0.0
C235 C 0.52846 0.09651 0.72589 0.0
H236 H 0.38862 0.03177 0.66915 0.0
H237 H 0.38355 0.92775 0.71478 0.0
H238 H 0.50421 0.11584 0.67603 0.0
H239 H 0.5089 0.08195 0.65384 0.0
H240 H 0.45972 0.09274 0.65458 0.0
H241 H 0.45155 0.92708 0.72666 0.0
H242 H 0.50203 0.95499 0.70834 0.0
H243 H 0.49856 0.98673 0.73184 0.0
H244 H 0.628 0.04912 0.67 0.0
H245 H 0.62248 0.12921 0.72563 0.0
H246 H 0.51207 0.00967 0.64992 0.0
H247 H 0.51207 0.96568 0.66765 0.0
H248 H 0.56108 -0.00134 0.64901 0.0
H249 H 0.50579 0.10708 0.71661 0.0
H250 H 0.5522 0.12606 0.73706 0.0
H251 H 0.50472 0.06541 0.73626 0.0
C252 C 0.61388 0.54862 0.64002 0.0
C253 C 0.63372 0.53755 0.62187 0.0
C254 C 0.56519 0.52231 0.64444 0.0
C255 C 0.53569 0.48397 0.6304 0.0
C256 C 0.55574 0.47132 0.61264 0.0
C257 C 0.60456 0.4983 0.60858 0.0
C258 C 0.54507 0.53677 0.66357 0.0
C259 C 0.52536 0.43041 0.5974 0.0
C260 C 0.41092 0.39342 0.64823 0.0
C261 C 0.38386 0.40838 0.6362 0.0
C262 C 0.46053 0.41825 0.64691 0.0
C263 C 0.4835 0.45904 0.63332 0.0
C264 C 0.45647 0.47528 0.62178 0.0
C265 C 0.40698 0.44972 0.62334 0.0
C266 C 0.48826 0.39999 0.65948 0.0
C267 C 0.47978 0.51892 0.60726 0.0
H268 H 0.63616 0.5788 0.65045 0.0
H269 H 0.61962 0.48938 0.59459 0.0
H270 H 0.52209 0.55014 0.65704 0.0
H271 H 0.52269 0.50576 0.67426 0.0
H272 H 0.57319 0.5649 0.67398 0.0
H273 H 0.54678 0.42311 0.58535 0.0
H274 H 0.50329 0.39785 0.60724 0.0
H275 H 0.50092 0.43839 0.58798 0.0
H276 H 0.39335 0.36151 0.65822 0.0
H277 H 0.38635 0.46164 0.61408 0.0
H278 H 0.51584 0.42857 0.66987 0.0
H279 H 0.50669 0.38867 0.64756 0.0
H280 H 0.46528 0.36948 0.67037 0.0
H281 H 0.50647 0.54965 0.61695 0.0
H282 H 0.45383 0.52803 0.60021 0.0
H283 H 0.49869 0.51314 0.59334 0.0
C284 C 0.94472 0.39342 0.95438 0.0
C285 C 0.96362 0.37031 0.96678 0.0
C286 C 0.96674 0.44299 0.9541 0.0
C287 C 0.00877 0.4701 0.96646 0.0
C288 C 0.02728 0.44702 0.97954 0.0
C289 C 0.00439 0.39735 0.97959 0.0
C290 C 0.94572 0.46638 0.9401 0.0
C291 C 0.07203 0.47481 0.99293 0.0
C292 C 0.08918 0.59509 0.94551 0.0
C293 C 0.07705 0.62162 0.95965 0.0
C294 C 0.06814 0.54583 0.94795 0.0
C295 C 0.03421 0.52261 0.96495 0.0
C296 C 0.02299 0.54934 0.97975 0.0
C297 C 0.04457 0.59856 0.97693 0.0
C298 C 0.08114 0.51846 0.9319 0.0
C299 C 0.98709 0.52579 -0.00188 0.0
H300 H 0.91311 0.37278 0.94452 0.0
H301 H 0.01925 0.37979 0.98923 0.0
H302 H 0.93959 0.49107 0.95042 0.0
H303 H 0.97093 0.48762 0.92675 0.0
H304 H 0.91167 0.44022 0.93232 0.0
H305 H 0.08031 0.45153 0.0032 0.0
H306 H 0.10228 0.49577 0.98159 0.0
H307 H 0.06881 0.50027 0.00403 0.0
H308 H 0.11433 0.61263 0.93216 0.0
H309 H 0.03511 0.61879 0.988 0.0
H310 H 0.04968 0.49412 0.9219 0.0
H311 H 0.0925 0.49636 0.94114 0.0
H312 H 0.11001 0.54207 0.92038 0.0
H313 H 0.9517 0.50215 0.99081 0.0
H314 H 0.98456 0.55191 0.00907 0.0
H315 H -0.00361 0.50339 0.00843 0.0
C316 C 0.46061 0.05895 0.29854 0.0
C317 C 0.42098 0.04274 0.31246 0.0
C318 C 0.48503 0.03385 0.29661 0.0
C319 C 0.46925 0.99142 0.3088 0.0
C320 C 0.43035 0.97576 0.32349 0.0
C321 C 0.40674 0.00174 0.32521 0.0
C322 C 0.52678 0.05195 0.28097 0.0
C323 C 0.4126 0.93066 0.33675 0.0
C324 C 0.50182 0.90463 0.28376 0.0
C325 C 0.54192 0.91407 0.2962 0.0
C326 C 0.47683 0.92848 0.2882 0.0
C327 C 0.49248 0.96262 0.30543 0.0
C328 C 0.53187 0.97107 0.31856 0.0
C329 C 0.55606 0.9466 0.31383 0.0
C330 C 0.43466 0.91829 0.27396 0.0
C331 C 0.54958 0.00725 0.33706 0.0
H332 H 0.47196 0.09075 0.28873 0.0
H333 H 0.3761 0.98894 0.33598 0.0
H334 H 0.55818 0.05543 0.28985 0.0
H335 H 0.51859 0.0262 0.26726 0.0
H336 H 0.53611 0.08685 0.27363 0.0
H337 H 0.38385 0.92496 0.34846 0.0
H338 H 0.39896 0.89992 0.32528 0.0
H339 H 0.44199 0.93137 0.34634 0.0
H340 H 0.49056 0.87942 0.27019 0.0
H341 H 0.58696 0.95405 0.32358 0.0
H342 H 0.44247 0.95035 0.26424 0.0
H343 H 0.40349 0.90947 0.28459 0.0
H344 H 0.4252 0.88857 0.2622 0.0
H345 H 0.56286 0.04316 0.32998 0.0
H346 H 0.5786 0.00721 0.34671 0.0
H347 H 0.52026 0.00037 0.3486 0.0
C348 C 0.26592 0.13867 0.22091 0.0
C349 C 0.30302 0.13204 0.22831 0.0
C350 C 0.26017 0.14452 0.19823 0.0
C351 C 0.29239 0.14386 0.18265 0.0
C352 C 0.32953 0.13659 0.18998 0.0
C353 C 0.33436 0.1307 0.21272 0.0
C354 C 0.22005 0.15203 0.19098 0.0
C355 C 0.36465 0.13579 0.17383 0.0
C356 C 0.26114 0.122 0.12142 0.0
C357 C 0.28637 0.16807 0.11276 0.0
C358 C 0.26176 0.11364 0.14426 0.0
C359 C 0.28834 0.15228 0.15872 0.0
C360 C 0.31286 0.19896 0.15016 0.0
C361 C 0.3115 0.2063 0.12729 0.0
C362 C 0.23495 0.06341 0.15285 0.0
C363 C 0.34163 0.24105 0.16508 0.0
H364 H 0.24146 0.13961 0.23284 0.0
H365 H 0.36307 0.12552 0.21829 0.0
H366 H 0.23448 0.18732 0.18304 0.0
H367 H 0.19798 0.12514 0.17839 0.0
H368 H 0.19704 0.14987 0.2051 0.0
H369 H 0.39081 0.12859 0.18217 0.0
H370 H 0.3458 0.10824 0.16098 0.0
H371 H 0.38407 0.17036 0.16513 0.0
H372 H 0.2415 0.09228 0.11031 0.0
H373 H 0.33101 0.24204 0.12075 0.0
H374 H 0.21081 0.06063 0.16651 0.0
H375 H 0.26018 0.05329 0.15981 0.0
H376 H 0.21382 0.03763 0.13965 0.0
H377 H 0.31929 0.24175 0.17883 0.0
H378 H 0.35696 0.27521 0.15595 0.0
H379 H 0.37097 0.23798 0.1727 0.0
C380 C 0.14206 0.27069 0.4452 0.0
C381 C 0.12666 0.30107 0.43704 0.0
C382 C 0.1506 0.26917 0.46795 0.0
C383 C 0.14354 0.29872 0.48285 0.0
C384 C 0.12716 0.3288 0.47479 0.0
C385 C 0.11891 0.32962 0.45197 0.0
C386 C 0.16801 0.23661 0.47598 0.0
C387 C 0.11918 0.36078 0.49021 0.0
C388 C 0.13021 0.27149 0.54462 0.0
C389 C 0.17556 0.30387 0.55251 0.0
C390 C 0.11942 0.26889 0.52191 0.0
C391 C 0.15481 0.29947 0.50679 0.0
C392 C 0.20081 0.33177 0.5146 0.0
C393 C 0.21065 0.33354 0.53736 0.0
C394 C 0.07002 0.23389 0.51414 0.0
C395 C 0.23946 0.36499 0.49895 0.0
H396 H 0.14807 0.24847 0.43378 0.0
H397 H 0.10688 0.35309 0.44582 0.0
H398 H 0.20374 0.2578 0.48341 0.0
H399 H 0.14424 0.21282 0.48917 0.0
H400 H 0.16996 0.21457 0.46238 0.0
H401 H 0.10488 0.38091 0.48139 0.0
H402 H 0.09412 0.33959 0.50362 0.0
H403 H 0.15303 0.3864 0.49827 0.0
H404 H 0.10294 0.24836 0.55621 0.0
H405 H 0.24581 0.35862 0.54331 0.0
H406 H 0.07145 0.2104 0.50117 0.0
H407 H 0.05347 0.25309 0.5065 0.0
H408 H 0.047 0.21156 0.52792 0.0
H409 H 0.2449 0.34449 0.48569 0.0
H410 H 0.27366 0.38718 0.50761 0.0
H411 H 0.22882 0.38872 0.49071 0.0
C412 C 0.78545 0.11366 0.77876 0.0
C413 C 0.82188 0.11959 0.76435 0.0
C414 C 0.79317 0.12065 0.80172 0.0
C415 C 0.83841 0.1339 0.81046 0.0
C416 C 0.87503 0.13892 0.79608 0.0
C417 C 0.86632 0.13168 0.77318 0.0
C418 C 0.75322 0.11487 0.81656 0.0
C419 C 0.92371 0.15296 0.80483 0.0
C420 C 0.87181 0.20004 0.86531 0.0
C421 C 0.86365 0.16389 0.88038 0.0
C422 C 0.86407 0.19078 0.84248 0.0
C423 C 0.84786 0.14427 0.83454 0.0
C424 C 0.84007 0.10772 0.84961 0.0
C425 C 0.84803 0.11796 0.87238 0.0
C426 C 0.87276 0.23068 0.82689 0.0
C427 C 0.82289 0.05773 0.8417 0.0
H428 H 0.75097 0.1042 0.77208 0.0
H429 H 0.89465 0.13626 0.76217 0.0
H430 H 0.74701 0.08904 0.82998 0.0
H431 H 0.76293 0.14916 0.82465 0.0
H432 H 0.71965 0.10259 0.80727 0.0
H433 H 0.94771 0.15339 0.79159 0.0
H434 H 0.93987 0.18877 0.81239 0.0
H435 H 0.92112 0.12807 0.81807 0.0
H436 H 0.88391 0.23563 0.87135 0.0
H437 H 0.8417 0.08984 0.88392 0.0
H438 H 0.83945 0.2222 0.81819 0.0
H439 H 0.89894 0.23487 0.814 0.0
H440 H 0.88606 0.265 0.8357 0.0
H441 H 0.7879 0.04356 0.83354 0.0
H442 H 0.81952 0.03358 0.85551 0.0
H443 H 0.84769 0.05749 0.82913 0.0
C444 C 0.67343 0.80113 0.12345 0.0
C445 C 0.69362 0.8385 0.10809 0.0
C446 C 0.67544 0.80997 0.14633 0.0
C447 C 0.69824 0.85732 0.15406 0.0
C448 C 0.7194 0.89522 0.1387 0.0
C449 C 0.71682 0.88536 0.11587 0.0
C450 C 0.6525 0.76861 0.16222 0.0
C451 C 0.74414 0.94616 0.14638 0.0
C452 C 0.66049 0.87684 0.21088 0.0
C453 C 0.69649 0.8792 0.22451 0.0
C454 C 0.66118 0.87074 0.18784 0.0
C455 C 0.6988 0.86695 0.17821 0.0
C456 C 0.73581 0.87039 0.19178 0.0
C457 C 0.73421 0.87646 0.21479 0.0
C458 C 0.62109 0.86726 0.17387 0.0
C459 C 0.77656 0.86663 0.18206 0.0
H460 H 0.65552 0.76482 0.11759 0.0
H461 H 0.73259 0.91443 0.10412 0.0
H462 H 0.67884 0.77077 0.17452 0.0
H463 H 0.62387 0.76994 0.17162 0.0
H464 H 0.63719 0.73393 0.15355 0.0
H465 H 0.76013 0.97151 0.13237 0.0
H466 H 0.71859 0.95369 0.15509 0.0
H467 H 0.77243 0.95249 0.15844 0.0
H468 H 0.63129 0.87907 0.21825 0.0
H469 H 0.76225 0.87841 0.22519 0.0
H470 H 0.60177 0.8318 0.16596 0.0
H471 H 0.63525 0.89389 0.16031 0.0
H472 H 0.59552 0.87286 0.18379 0.0
H473 H 0.76317 0.83104 0.1746 0.0
H474 H 0.80368 0.87234 0.19473 0.0
H475 H 0.79376 0.89302 0.16857 0.0
C476 C 0.85171 0.63468 0.54435 0.0
C477 C 0.81698 0.64444 0.55228 0.0
C478 C 0.8647 0.64085 0.52185 0.0
C479 C 0.842 0.65661 0.50689 0.0
C480 C 0.80619 0.66556 0.51469 0.0
C481 C 0.79429 0.65963 0.53734 0.0
C482 C 0.90334 0.63134 0.51418 0.0
C483 C 0.78082 0.68184 0.49913 0.0
C484 C 0.90627 0.71671 0.45359 0.0
C485 C 0.88502 0.67951 0.43823 0.0
C486 C 0.89263 0.70971 0.47602 0.0
C487 C 0.85645 0.66458 0.48315 0.0
C488 C 0.83462 0.62698 0.46769 0.0
C489 C 0.84939 0.63481 0.44543 0.0
C490 C 0.91713 0.7505 0.4921 0.0
C491 C 0.79554 0.57853 0.47466 0.0
H492 H 0.86955 0.62311 0.5558 0.0
H493 H 0.76727 0.66703 0.54335 0.0
H494 H 0.88988 0.60431 0.5008 0.0
H495 H 0.93318 0.66417 0.50712 0.0
H496 H 0.91709 0.61874 0.52789 0.0
H497 H 0.75258 0.68551 0.50767 0.0
H498 H 0.80648 0.71655 0.49176 0.0
H499 H 0.76469 0.65631 0.48523 0.0
H500 H 0.93391 0.7513 0.44813 0.0
H501 H 0.83257 0.60598 0.4336 0.0
H502 H 0.93392 0.74085 0.50561 0.0
H503 H 0.89087 0.75816 0.49996 0.0
H504 H 0.94477 0.78328 0.48391 0.0
H505 H 0.80878 0.56362 0.48751 0.0
H506 H 0.78154 0.55336 0.46049 0.0
H507 H 0.76595 0.58137 0.48219 0.0
C508 C 0.14341 0.87178 0.8883 0.0
C509 C 0.12805 0.82557 0.89582 0.0
C510 C 0.15251 0.8833 0.8657 0.0
C511 C 0.14615 0.84778 0.85028 0.0
C512 C 0.13024 0.80098 0.85772 0.0
C513 C 0.12133 0.79041 0.88041 0.0
C514 C 0.16933 0.93358 0.85834 0.0
C515 C 0.12311 0.76218 0.84173 0.0
C516 C 0.13142 0.86541 0.78909 0.0
C517 C 0.17692 0.88001 0.78081 0.0
C518 C 0.12101 0.85527 0.81173 0.0
C519 C 0.15692 0.8597 0.82639 0.0
C520 C 0.20302 0.87489 0.8182 0.0
C521 C 0.2125 0.88497 0.7955 0.0
C522 C 0.07149 0.83939 0.81993 0.0
C523 C 0.24219 0.87993 0.83335 0.0
H524 H 0.14863 0.89914 0.90009 0.0
H525 H 0.10945 0.75462 0.88609 0.0
H526 H 0.20483 0.94872 0.85055 0.0
H527 H 0.145 0.93405 0.84559 0.0
H528 H 0.17153 0.9568 0.87236 0.0
H529 H 0.10988 0.72747 0.85015 0.0
H530 H 0.09748 0.75825 0.82863 0.0
H531 H 0.15703 0.77171 0.83333 0.0
H532 H 0.10376 0.8616 0.77786 0.0
H533 H 0.24774 0.89621 0.78924 0.0
H534 H 0.07254 0.86336 0.83331 0.0
H535 H 0.05582 0.80333 0.82717 0.0
H536 H 0.04791 0.83881 0.80647 0.0
H537 H 0.24755 0.905 0.84702 0.0
H538 H 0.27629 0.89283 0.82441 0.0
H539 H 0.23217 0.84524 0.84108 0.0
C540 C 0.23974 0.89734 0.98641 0.0
C541 C 0.19726 0.87536 -0.00146 0.0
C542 C 0.27191 0.94597 0.98883 0.0
C543 C 0.2607 0.97315 0.00333 0.0
C544 C 0.21962 0.95042 0.01681 0.0
C545 C 0.18868 0.90167 0.01443 0.0
C546 C 0.3162 0.96863 0.97478 0.0
C547 C 0.20629 0.97816 0.03249 0.0
C548 C 0.33965 0.09985 0.0216 0.0
C549 C 0.32269 0.12336 0.00817 0.0
C550 C 0.32314 0.05129 0.01884 0.0
C551 C 0.28807 0.02571 0.00266 0.0
C552 C 0.27391 0.05014 0.98785 0.0
C553 C 0.29186 0.09888 0.99063 0.0
C554 C 0.34046 0.02685 0.03438 0.0
C555 C 0.23641 0.02412 0.9704 0.0
H556 H 0.24688 0.87705 0.97429 0.0
H557 H 0.15608 0.88493 0.02395 0.0
H558 H 0.311 0.98695 0.96045 0.0
H559 H 0.34684 0.99554 0.98445 0.0
H560 H 0.32488 0.94194 0.96824 0.0
H561 H 0.17477 0.9548 0.04275 0.0
H562 H 0.23618 0.00029 0.04377 0.0
H563 H 0.19843 0.00242 0.0228 0.0
H564 H 0.364 0.11885 0.03502 0.0
H565 H 0.27865 0.11687 0.9802 0.0
H566 H 0.34539 -0.00017 0.02541 0.0
H567 H 0.31375 0.00836 0.04762 0.0
H568 H 0.3744 0.05247 0.04243 0.0
H569 H 0.24487 0.00061 0.96047 0.0
H570 H 0.2326 0.04874 0.95893 0.0
H571 H 0.2018 0.00141 0.97865 0.0
C572 C 0.25129 0.35491 0.34795 0.0
C573 C 0.20983 0.33221 0.33514 0.0
C574 C 0.28598 0.34149 0.34639 0.0
C575 C 0.27835 0.3039 0.33205 0.0
C576 C 0.23858 0.2838 0.31772 0.0
C577 C 0.20505 0.29861 0.31928 0.0
C578 C 0.32887 0.36514 0.36127 0.0
C579 C 0.22914 0.24365 0.30211 0.0
C580 C 0.36239 0.25994 0.31718 0.0
C581 C 0.34455 0.21924 0.33054 0.0
C582 C 0.34445 0.29104 0.31897 0.0
C583 C 0.3073 0.28051 0.33413 0.0
C584 C 0.29261 0.24217 0.34914 0.0
C585 C 0.31184 0.21228 0.34732 0.0
C586 C 0.36251 0.33276 0.30335 0.0
C587 C 0.25318 0.22981 0.36567 0.0
H588 H 0.25558 0.38151 0.36002 0.0
H589 H 0.17333 0.28119 0.30919 0.0
H590 H 0.32303 0.3427 0.37612 0.0
H591 H 0.36091 0.36956 0.3526 0.0
H592 H 0.33559 0.40039 0.36702 0.0
H593 H 0.1986 0.23437 0.29095 0.0
H594 H 0.26076 0.25307 0.29174 0.0
H595 H 0.22154 0.21174 0.31192 0.0
H596 H 0.38835 0.26602 0.30443 0.0
H597 H 0.29824 0.18122 0.35787 0.0
H598 H 0.36435 0.36396 0.31177 0.0
H599 H 0.33788 0.32344 0.2891 0.0
H600 H 0.39812 0.34272 0.29673 0.0
H601 H 0.25986 0.26152 0.37535 0.0
H602 H 0.24896 0.20169 0.37745 0.0
H603 H 0.21929 0.21713 0.35663 0.0
C604 C 0.91546 0.20505 0.64777 0.0
C605 C 0.88741 0.21073 0.66376 0.0
C606 C 0.96396 0.23761 0.64612 0.0
C607 C 0.98466 0.27738 0.66049 0.0
C608 C 0.95569 0.28569 0.67519 0.0
C609 C 0.90737 0.2519 0.67686 0.0
C610 C 0.99363 0.22734 0.6302 0.0
C611 C 0.97609 0.32856 0.69017 0.0
C612 C 0.11028 0.31014 0.67383 0.0
C613 C 0.13501 0.3424 0.65675 0.0
C614 C 0.06142 0.29134 0.67641 0.0
C615 C 0.03706 0.30607 0.66189 0.0
C616 C 0.06283 0.34286 0.64644 0.0
C617 C 0.11158 0.36031 0.64386 0.0
C618 C 0.03528 0.2522 0.69317 0.0
C619 C 0.03841 0.36097 0.63133 0.0
H620 H 0.90026 0.17348 0.63751 0.0
H621 H 0.8857 0.25681 0.68906 0.0
H622 H 0.0154 0.25862 0.61956 0.0
H623 H 0.01827 0.21979 0.63973 0.0
H624 H 0.97171 0.1965 0.61929 0.0
H625 H 0.94821 0.33576 0.69644 0.0
H626 H 0.99322 0.32235 0.7047 0.0
H627 H 0.00347 0.36048 0.68137 0.0
H628 H 0.12819 0.29643 0.684 0.0
H629 H 0.1307 0.3859 0.63087 0.0
H630 H 0.01361 0.21814 0.6843 0.0
H631 H 0.01081 0.2591 0.70321 0.0
H632 H 0.05976 0.24813 0.70461 0.0
H633 H 0.02139 0.33571 0.61742 0.0
H634 H 0.06383 0.3961 0.62418 0.0
H635 H 0.01028 0.36388 0.64038 0.0
C636 C 0.64373 0.90024 0.01348 0.0
C637 C 0.6616 0.87555 0.00152 0.0
C638 C 0.66033 0.94844 0.0094 0.0
C639 C 0.69642 0.9725 0.99343 0.0
C640 C 0.71174 0.94679 0.9801 0.0
C641 C 0.69367 0.89841 0.98415 0.0
C642 C 0.64175 0.97419 0.02333 0.0
C643 C 0.75038 0.97117 0.96294 0.0
C644 C 0.74553 0.09831 0.97297 0.0
C645 C 0.78744 0.12189 0.98542 0.0
C646 C 0.71303 0.05018 0.97666 0.0
C647 C 0.72338 0.02508 0.99279 0.0
C648 C 0.76368 0.04967 0.00658 0.0
C649 C 0.79492 0.09796 0.00289 0.0
C650 C 0.66947 0.02561 0.96225 0.0
C651 C 0.77609 0.02419 0.02397 0.0
H652 H 0.61844 0.88248 0.02676 0.0
H653 H 0.70758 0.87951 0.97484 0.0
H654 H 0.66731 0.99384 0.03681 0.0
H655 H 0.63763 0.00036 0.01319 0.0
H656 H 0.60714 0.94926 0.03108 0.0
H657 H 0.75546 0.94557 0.95276 0.0
H658 H 0.74217 0.99303 0.95167 0.0
H659 H 0.78428 0.99532 0.9714 0.0
H660 H 0.73921 0.11683 0.95963 0.0
H661 H 0.82705 0.11596 0.01267 0.0
H662 H 0.63837 -0.00012 0.97208 0.0
H663 H 0.67547 0.0056 0.94893 0.0
H664 H 0.6611 0.05132 0.95427 0.0
H665 H 0.74545 0.00323 0.03508 0.0
H666 H 0.80678 0.049 0.03431 0.0
H667 H 0.7849 -0.00094 0.01573 0.0
C668 C 0.67238 0.77969 0.35157 0.0
C669 C 0.65021 0.77692 0.33125 0.0
C670 C 0.68775 0.74759 0.35672 0.0
C671 C 0.68001 0.71153 0.34131 0.0
C672 C 0.65277 0.70527 0.32201 0.0
C673 C 0.6385 0.73837 0.31708 0.0
C674 C 0.71655 0.75539 0.37755 0.0
C675 C 0.64233 0.66622 0.30558 0.0
C676 C 0.78327 0.68984 0.33822 0.0
C677 C 0.76874 0.65101 0.35252 0.0
C678 C 0.75369 0.70844 0.33369 0.0
C679 C 0.70798 0.68711 0.34333 0.0
C680 C 0.6916 0.64566 0.35636 0.0
C681 C 0.72242 0.62828 0.36099 0.0
C682 C 0.77263 0.75277 0.31968 0.0
C683 C 0.64259 0.62113 0.36635 0.0
H684 H 0.68107 0.80908 0.36272 0.0
H685 H 0.6205 0.7355 0.30152 0.0
H686 H 0.70451 0.72147 0.38646 0.0
H687 H 0.75425 0.76953 0.37298 0.0
H688 H 0.71431 0.78088 0.38907 0.0
H689 H 0.61272 0.65977 0.29431 0.0
H690 H 0.67424 0.67631 0.29528 0.0
H691 H 0.63335 0.63273 0.31429 0.0
H692 H 0.81882 0.70739 0.33142 0.0
H693 H 0.71075 0.59795 0.37188 0.0
H694 H 0.7751 0.78229 0.32992 0.0
H695 H 0.7482 0.74711 0.30572 0.0
H696 H 0.80825 0.76381 0.31272 0.0
H697 H 0.64201 0.64117 0.38115 0.0
H698 H 0.6317 0.58442 0.37167 0.0
H699 H 0.61616 0.61992 0.35437 0.0
C700 C 0.11077 0.76611 0.68724 0.0
C701 C 0.13647 0.80664 0.67406 0.0
C702 C 0.06258 0.7348 0.68325 0.0
C703 C 0.0396 0.74493 0.66597 0.0
C704 C 0.06633 0.78351 0.65145 0.0
C705 C 0.11466 0.8137 0.65556 0.0
C706 C 0.03561 0.69313 0.69861 0.0
C707 C 0.0431 0.79559 0.63284 0.0
C708 C 0.91335 0.66424 0.64696 0.0
C709 C 0.88969 0.68443 0.65799 0.0
C710 C 0.9618 0.68142 0.65047 0.0
C711 C 0.98712 0.72015 0.66501 0.0
C712 C 0.96274 0.73859 0.67724 0.0
C713 C 0.9142 0.72016 0.67373 0.0
C714 C 0.9863 0.65993 0.63765 0.0
C715 C 0.98851 0.78001 0.69292 0.0
H716 H 0.1277 0.7602 0.70141 0.0
H717 H 0.13433 0.8449 0.64529 0.0
H718 H 0.01508 0.7015 0.71069 0.0
H719 H 0.01007 0.66126 0.68918 0.0
H720 H 0.05971 0.68466 0.70807 0.0
H721 H 0.06945 0.82358 0.62172 0.0
H722 H 0.02035 0.76372 0.62273 0.0
H723 H 0.02003 0.80833 0.63998 0.0
H724 H 0.89446 0.63623 0.63493 0.0
H725 H 0.89616 0.73584 0.68238 0.0
H726 H 0.01133 0.65544 0.64847 0.0
H727 H 0.00714 0.68399 0.62387 0.0
H728 H 0.96062 0.62499 0.63041 0.0
H729 H 0.00919 0.77245 0.70522 0.0
H730 H 0.96397 0.78845 0.70203 0.0
H731 H 0.01392 0.81186 0.68339 0.0
C732 C 0.00159 0.19137 0.97995 0.0
C733 C 0.00873 0.20657 0.95773 0.0
C734 C 0.03531 0.18464 0.99132 0.0
C735 C 0.07713 0.19321 0.98021 0.0
C736 C 0.08391 0.20713 0.9576 0.0
C737 C 0.04963 0.21371 0.94663 0.0
C738 C 0.02685 0.16981 0.01544 0.0
C739 C 0.128 0.21637 0.94518 0.0
C740 C 0.18697 0.22908 0.01485 0.0
C741 C 0.18825 0.1867 0.01589 0.0
C742 C 0.15081 0.23149 0.0034 0.0
C743 C 0.11513 0.19058 0.99264 0.0
C744 C 0.11593 0.14756 0.99374 0.0
C745 C 0.15247 0.14609 0.00542 0.0
C746 C 0.15097 0.27795 0.00274 0.0
C747 C 0.07847 0.10326 0.98241 0.0
H748 H 0.97 0.18557 0.98866 0.0
H749 H 0.05531 0.22522 0.92944 0.0
H750 H 0.03047 0.13805 0.01803 0.0
H751 H 0.05391 0.19857 0.02594 0.0
H752 H 0.99122 0.16175 0.02125 0.0
H753 H 0.12649 0.22396 0.92729 0.0
H754 H 0.1594 0.24709 0.95269 0.0
H755 H 0.13329 0.18535 0.94658 0.0
H756 H 0.21438 0.2606 0.02295 0.0
H757 H 0.1533 0.11325 0.00609 0.0
H758 H 0.1174 0.27327 0.00975 0.0
H759 H 0.15326 0.28982 0.98527 0.0
H760 H 0.18099 0.30633 0.01221 0.0
H761 H 0.0429 0.09395 0.98879 0.0
H762 H 0.08393 0.07255 0.985 0.0
H763 H 0.07859 0.10964 0.96429 0.0
C764 C 0.80343 0.00771 0.32253 0.0
C765 C 0.77712 0.01738 0.30708 0.0
C766 C 0.84345 0.04457 0.3329 0.0
C767 C 0.85741 0.09214 0.32768 0.0
C768 C 0.83162 0.1021 0.31176 0.0
C769 C 0.7918 0.06459 0.30164 0.0
C770 C 0.87023 0.03264 0.34974 0.0
C771 C 0.84553 0.15243 0.30573 0.0
C772 C 0.92834 0.1899 0.3692 0.0
C773 C 0.97389 0.21106 0.35997 0.0
C774 C 0.89031 0.15042 0.35913 0.0
C775 C 0.89805 0.1317 0.33935 0.0
C776 C 0.94417 0.15207 0.33026 0.0
C777 C 0.98158 0.19153 0.34069 0.0
C778 C 0.8416 0.12951 0.36935 0.0
C779 C 0.95377 0.13298 0.30922 0.0
H780 H 0.79239 0.97131 0.3268 0.0
H781 H 0.77176 0.07238 0.28969 0.0
H782 H 0.90818 0.04976 0.34509 0.0
H783 H 0.86831 0.04669 0.36628 0.0
H784 H 0.85599 0.99385 0.35124 0.0
H785 H 0.82269 0.15412 0.29249 0.0
H786 H 0.84307 0.17119 0.32062 0.0
H787 H 0.88284 0.17185 0.29997 0.0
H788 H 0.92212 0.20466 0.38413 0.0
H789 H 0.0167 0.20761 0.33346 0.0
H790 H 0.82673 0.09106 0.37237 0.0
H791 H 0.81743 0.13339 0.35767 0.0
H792 H 0.84193 0.14684 0.38531 0.0
H793 H 0.94071 0.09449 0.31094 0.0
H794 H 0.99205 0.1512 0.30498 0.0
H795 H 0.93433 0.13742 0.29515 0.0
C796 C 0.71435 0.78441 0.62742 0.0
C797 C 0.74943 0.77273 0.63214 0.0
C798 C 0.71566 0.8243 0.63707 0.0
C799 C 0.75279 0.853 0.65188 0.0
C800 C 0.78866 0.84181 0.65647 0.0
C801 C 0.78663 0.80189 0.6465 0.0
C802 C 0.67696 0.83536 0.63167 0.0
C803 C 0.82871 0.87149 0.67224 0.0
C804 C 0.77733 0.97786 0.66351 0.0
C805 C 0.75339 0.97181 0.68371 0.0
C806 C 0.77754 0.93951 0.65298 0.0
C807 C 0.7535 0.89414 0.66296 0.0
C808 C 0.72984 0.88793 0.68349 0.0
C809 C 0.72995 0.92683 0.69359 0.0
C810 C 0.80301 0.94743 0.63105 0.0
C811 C 0.70415 0.84012 0.69473 0.0
H812 H 0.68557 0.76214 0.61631 0.0
H813 H 0.81386 0.79311 0.65028 0.0
H814 H 0.65721 0.83355 0.64701 0.0
H815 H 0.69259 0.87197 0.62509 0.0
H816 H 0.65149 0.81045 0.61925 0.0
H817 H 0.8544 0.85861 0.67364 0.0
H818 H 0.84791 0.90889 0.66657 0.0
H819 H 0.81431 0.87106 0.68901 0.0
H820 H 0.79547 0.0125 0.65574 0.0
H821 H 0.71149 0.92189 0.70923 0.0
H822 H 0.77762 0.92499 0.61802 0.0
H823 H 0.83034 0.93674 0.63236 0.0
H824 H 0.82037 0.98501 0.6256 0.0
H825 H 0.67557 0.81425 0.68376 0.0
H826 H 0.68827 0.84144 0.71087 0.0
H827 H 0.72893 0.82662 0.69768 0.0
C828 C 0.83206 0.84703 0.00755 0.0
C829 C 0.79188 0.8067 0.01578 0.0
C830 C 0.86942 0.84359 -0.0022 0.0
C831 C 0.86648 0.79881 0.99632 0.0
C832 C 0.82607 0.75803 0.00463 0.0
C833 C 0.78927 0.76246 0.01422 0.0
C834 C 0.91196 0.88781 0.98905 0.0
C835 C 0.82173 0.70967 0.00343 0.0
C836 C 0.94054 0.77673 0.95443 0.0
C837 C 0.97684 0.77926 0.96788 0.0
C838 C 0.90501 0.78423 0.96335 0.0
C839 C 0.90574 0.79432 0.98629 0.0
C840 C 0.94275 0.79779 -0.00013 0.0
C841 C 0.9779 0.79029 0.9905 0.0
C842 C 0.86617 0.78045 0.94834 0.0
C843 C 0.94466 0.80838 0.02441 0.0
H844 H 0.8343 0.88132 0.00864 0.0
H845 H 0.75839 0.73109 0.02054 0.0
H846 H 0.94442 0.89346 -0.0023 0.0
H847 H 0.91681 0.88362 0.9711 0.0
H848 H 0.90861 0.91987 0.9913 0.0
H849 H 0.78793 0.6815 0.01064 0.0
H850 H 0.82393 0.70047 0.98589 0.0
H851 H 0.85152 0.70998 0.0125 0.0
H852 H 0.93961 0.7685 0.93691 0.0
H853 H 0.00591 0.7925 0.00102 0.0
H854 H 0.86362 0.81311 0.94952 0.0
H855 H 0.83161 0.75046 0.95376 0.0
H856 H 0.87205 0.77482 0.93068 0.0
H857 H 0.94378 0.84165 0.02706 0.0
H858 H 0.97694 0.81195 0.03246 0.0
H859 H 0.91313 0.77955 0.03284 0.0
C860 C 0.00325 0.83898 0.33691 0.0
C861 C 0.00416 0.80195 0.34838 0.0
C862 C 0.04507 0.87756 0.32872 0.0
C863 C 0.08881 0.8792 0.33221 0.0
C864 C 0.09016 0.84275 0.34441 0.0
C865 C 0.0478 0.80451 0.35231 0.0
C866 C 0.04229 0.91581 0.31577 0.0
C867 C 0.13621 0.84351 0.34861 0.0
C868 C 0.18953 0.94813 0.2917 0.0
C869 C 0.21805 0.98989 0.30359 0.0
C870 C 0.14706 0.91209 0.30073 0.0
C871 C 0.13293 0.91788 0.32223 0.0
C872 C 0.16136 0.96008 0.33426 0.0
C873 C 0.20355 0.99568 0.32477 0.0
C874 C 0.11749 0.86764 0.28735 0.0
C875 C 0.1475 0.96737 0.35726 0.0
H876 H 0.96969 0.83732 0.33382 0.0
H877 H 0.04887 0.77618 0.36127 0.0
H878 H 0.06654 0.95109 0.32304 0.0
H879 H 0.0539 0.91623 0.29839 0.0
H880 H 0.00589 0.91054 0.31551 0.0
H881 H 0.13151 0.81384 0.35944 0.0
H882 H 0.15174 0.84108 0.33258 0.0
H883 H 0.16212 0.87744 0.35653 0.0
H884 H 0.2004 0.94346 0.2753 0.0
H885 H 0.22544 0.02784 0.33409 0.0
H886 H 0.08119 0.86189 0.28518 0.0
H887 H 0.11426 0.83646 0.29638 0.0
H888 H 0.13287 0.86918 0.27067 0.0
H889 H 0.11188 0.96391 0.35687 0.0
H890 H 0.17304 0.00264 0.36423 0.0
H891 H 0.14543 0.93959 0.36864 0.0
C892 C 0.23396 0.0458 0.68804 0.0
C893 C 0.19292 0.00116 0.68678 0.0
C894 C 0.23697 0.08505 0.67697 0.0
C895 C 0.19802 0.07958 0.66429 0.0
C896 C 0.15612 0.03488 0.66327 0.0
C897 C 0.15403 0.99614 0.67457 0.0
C898 C 0.2822 0.13223 0.67856 0.0
C899 C 0.11391 0.0278 0.64989 0.0
C900 C 0.19772 0.19323 0.65099 0.0
C901 C 0.21785 0.20376 0.62965 0.0
C902 C 0.18959 0.15207 0.66219 0.0
C903 C 0.20185 0.12069 0.65179 0.0
C904 C 0.22075 0.1303 0.62999 0.0
C905 C 0.22853 0.17176 0.61916 0.0
C906 C 0.16931 0.14298 0.68542 0.0
C907 C 0.23412 0.09754 0.61835 0.0
H908 H 0.26416 0.05005 0.69747 0.0
H909 H 0.12224 0.96175 0.67347 0.0
H910 H 0.298 0.14377 0.66178 0.0
H911 H 0.27452 0.15963 0.685 0.0
H912 H 0.30878 0.13079 0.68958 0.0
H913 H 0.08342 0.99121 0.65141 0.0
H914 H 0.10254 0.05311 0.6554 0.0
H915 H 0.12382 0.03517 0.63209 0.0
H916 H 0.1891 0.21763 0.65918 0.0
H917 H 0.24387 0.1795 0.60264 0.0
H918 H 0.19605 0.14483 0.69739 0.0
H919 H 0.13807 0.10685 0.68659 0.0
H920 H 0.15855 0.16905 0.69052 0.0
H921 H 0.26354 0.09712 0.62742 0.0
H922 H 0.24547 0.10843 0.60089 0.0
H923 H 0.20376 0.06077 0.61837 0.0
loop_
_geom_bond_atom_site_label_1
_geom_bond_atom_site_label_2
_geom_bond_distance
_geom_bond_site_symmetry_2
_ccdc_geom_bond_type
C0 O1 1.160 . S
C0 O7 1.185 . S
O1 C0 1.160 . S
O2 Zn3 1.899 . S
O2 C10 1.284 . S
Zn3 O2 1.899 . S
Zn3 O4 2.032 . S
Zn3 O7 2.086 . S
Zn3 O12 1.977 . S
O4 Zn3 2.032 . S
O4 C8 1.278 . S
C5 O6 1.203 . S
C5 O12 1.267 . S
O6 C5 1.203 . S
O7 C0 1.185 . S
O7 Zn3 2.086 . S
C8 O4 1.278 . S
C8 O9 1.211 . S
O9 C8 1.211 . S
C10 O2 1.284 . S
C10 O11 1.273 . S
O11 C10 1.273 . S
O12 Zn3 1.977 . S
O12 C5 1.267 . S
C13 O14 1.160 . S
C13 O20 1.185 . S
O14 C13 1.160 . S
O15 Zn16 1.899 . S
O15 C23 1.284 . S
Zn16 O15 1.899 . S
Zn16 O17 2.032 . S
Zn16 O20 2.086 . S
Zn16 O25 1.977 . S
O17 Zn16 2.032 . S
O17 C21 1.278 . S
C18 O19 1.203 . S
C18 O25 1.267 . S
O19 C18 1.203 . S
O20 C13 1.185 . S
O20 Zn16 2.086 . S
C21 O17 1.278 . S
C21 O22 1.211 . S
O22 C21 1.211 . S
C23 O15 1.284 . S
C23 O24 1.273 . S
O24 C23 1.273 . S
O25 Zn16 1.977 . S
O25 C18 1.267 . S
C26 O27 1.160 . S
C26 O33 1.185 . S
O27 C26 1.160 . S
O28 Zn29 1.899 . S
O28 C36 1.284 . S
Zn29 O28 1.899 . S
Zn29 O30 2.032 . S
Zn29 O33 2.086 . S
Zn29 O38 1.977 . S
O30 Zn29 2.032 . S
O30 C34 1.278 . S
C31 O32 1.203 . S
C31 O38 1.267 . S
O32 C31 1.203 . S
O33 C26 1.185 . S
O33 Zn29 2.086 . S
C34 O30 1.278 . S
C34 O35 1.211 . S
O35 C34 1.211 . S
C36 O28 1.284 . S
C36 O37 1.273 . S
O37 C36 1.273 . S
O38 Zn29 1.977 . S
O38 C31 1.267 . S
C39 O40 1.160 . S
C39 O46 1.185 . S
O40 C39 1.160 . S
O41 Zn42 1.899 . S
O41 C49 1.284 . S
Zn42 O41 1.899 . S
Zn42 O43 2.032 . S
Zn42 O46 2.086 . S
Zn42 O51 1.977 . S
O43 Zn42 2.032 . S
O43 C47 1.278 . S
C44 O45 1.203 . S
C44 O51 1.267 . S
O45 C44 1.203 . S
O46 C39 1.185 . S
O46 Zn42 2.086 . S
C47 O43 1.278 . S
C47 O48 1.211 . S
O48 C47 1.211 . S
C49 O41 1.284 . S
C49 O50 1.273 . S
O50 C49 1.273 . S
O51 Zn42 1.977 . S
O51 C44 1.267 . S
C52 O53 1.160 . S
C52 O59 1.185 . S
O53 C52 1.160 . S
O54 Zn55 1.899 . S
O54 C62 1.284 . S
Zn55 O54 1.899 . S
Zn55 O56 2.032 . S
Zn55 O59 2.086 . S
Zn55 O64 1.977 . S
O56 Zn55 2.032 . S
O56 C60 1.278 . S
C57 O58 1.203 . S
C57 O64 1.267 . S
O58 C57 1.203 . S
O59 C52 1.185 . S
O59 Zn55 2.086 . S
C60 O56 1.278 . S
C60 O61 1.211 . S
O61 C60 1.211 . S
C62 O54 1.284 . S
C62 O63 1.273 . S
O63 C62 1.273 . S
O64 Zn55 1.977 . S
O64 C57 1.267 . S
C65 O66 1.160 . S
C65 O72 1.185 . S
O66 C65 1.160 . S
O67 Zn68 1.899 . S
O67 C75 1.284 . S
Zn68 O67 1.899 . S
Zn68 O69 2.032 . S
Zn68 O72 2.086 . S
Zn68 O77 1.977 . S
O69 Zn68 2.032 . S
O69 C73 1.278 . S
C70 O71 1.203 . S
C70 O77 1.267 . S
O71 C70 1.203 . S
O72 C65 1.185 . S
O72 Zn68 2.086 . S
C73 O69 1.278 . S
C73 O74 1.211 . S
O74 C73 1.211 . S
C75 O67 1.284 . S
C75 O76 1.273 . S
O76 C75 1.273 . S
O77 Zn68 1.977 . S
O77 C70 1.267 . S
C78 O79 1.160 . S
C78 O85 1.185 . S
O79 C78 1.160 . S
O80 Zn81 1.899 . S
O80 C88 1.284 . S
Zn81 O80 1.899 . S
Zn81 O82 2.032 . S
Zn81 O85 2.086 . S
Zn81 O90 1.977 . S
O82 Zn81 2.032 . S
O82 C86 1.278 . S
C83 O84 1.203 . S
C83 O90 1.267 . S
O84 C83 1.203 . S
O85 C78 1.185 . S
O85 Zn81 2.086 . S
C86 O82 1.278 . S
C86 O87 1.211 . S
O87 C86 1.211 . S
C88 O80 1.284 . S
C88 O89 1.273 . S
O89 C88 1.273 . S
O90 Zn81 1.977 . S
O90 C83 1.267 . S
C91 O92 1.160 . S
C91 O98 1.185 . S
O92 C91 1.160 . S
O93 Zn94 1.899 . S
O93 C101 1.284 . S
Zn94 O93 1.899 . S
Zn94 O95 2.032 . S
Zn94 O98 2.086 . S
Zn94 O103 1.977 . S
O95 Zn94 2.032 . S
O95 C99 1.278 . S
C96 O97 1.203 . S
C96 O103 1.267 . S
O97 C96 1.203 . S
O98 C91 1.185 . S
O98 Zn94 2.086 . S
C99 O95 1.278 . S
C99 O100 1.211 . S
O100 C99 1.211 . S
C101 O93 1.284 . S
C101 O102 1.273 . S
O102 C101 1.273 . S
O103 Zn94 1.977 . S
O103 C96 1.267 . S
C104 O105 1.160 . S
C104 O111 1.185 . S
O105 C104 1.160 . S
O106 Zn107 1.899 . S
O106 C114 1.284 . S
Zn107 O106 1.899 . S
Zn107 O108 2.032 . S
Zn107 O111 2.086 . S
Zn107 O116 1.977 . S
O108 Zn107 2.032 . S
O108 C112 1.278 . S
C109 O110 1.203 . S
C109 O116 1.267 . S
O110 C109 1.203 . S
O111 C104 1.185 . S
O111 Zn107 2.086 . S
C112 O108 1.278 . S
C112 O113 1.211 . S
O113 C112 1.211 . S
C114 O106 1.284 . S
C114 O115 1.273 . S
O115 C114 1.273 . S
O116 Zn107 1.977 . S
O116 C109 1.267 . S
C117 O118 1.160 . S
C117 O124 1.185 . S
O118 C117 1.160 . S
O119 Zn120 1.899 . S
O119 C127 1.284 . S
Zn120 O119 1.899 . S
Zn120 O121 2.032 . S
Zn120 O124 2.086 . S
Zn120 O129 1.977 . S
O121 Zn120 2.032 . S
O121 C125 1.278 . S
C122 O123 1.203 . S
C122 O129 1.267 . S
O123 C122 1.203 . S
O124 C117 1.185 . S
O124 Zn120 2.086 . S
C125 O121 1.278 . S
C125 O126 1.211 . S
O126 C125 1.211 . S
C127 O119 1.284 . S
C127 O128 1.273 . S
O128 C127 1.273 . S
O129 Zn120 1.977 . S
O129 C122 1.267 . S
C130 O131 1.160 . S
C130 O137 1.185 . S
O131 C130 1.160 . S
O132 Zn133 1.899 . S
O132 C140 1.284 . S
Zn133 O132 1.899 . S
Zn133 O134 2.032 . S
Zn133 O137 2.086 . S
Zn133 O142 1.977 . S
O134 Zn133 2.032 . S
O134 C138 1.278 . S
C135 O136 1.203 . S
C135 O142 1.267 . S
O136 C135 1.203 . S
O137 C130 1.185 . S
O137 Zn133 2.086 . S
C138 O134 1.278 . S
C138 O139 1.211 . S
O139 C138 1.211 . S
C140 O132 1.284 . S
C140 O141 1.273 . S
O141 C140 1.273 . S
O142 Zn133 1.977 . S
O142 C135 1.267 . S
C143 O144 1.160 . S
C143 O150 1.185 . S
O144 C143 1.160 . S
O145 Zn146 1.899 . S
O145 C153 1.284 . S
Zn146 O145 1.899 . S
Zn146 O147 2.032 . S
Zn146 O150 2.086 . S
Zn146 O155 1.977 . S
O147 Zn146 2.032 . S
O147 C151 1.278 . S
C148 O149 1.203 . S
C148 O155 1.267 . S
O149 C148 1.203 . S
O150 C143 1.185 . S
O150 Zn146 2.086 . S
C151 O147 1.278 . S
C151 O152 1.211 . S
O152 C151 1.211 . S
C153 O145 1.284 . S
C153 O154 1.273 . S
O154 C153 1.273 . S
O155 Zn146 1.977 . S
O155 C148 1.267 . S
C156 C157 1.391 . S
C156 C158 1.394 . S
C156 H172 0.931 . S
C157 C156 1.391 . S
C157 C161 1.376 . S
C158 C156 1.394 . S
C158 C159 1.369 . S
C158 C162 1.531 . S
C159 C158 1.369 . S
C159 C160 1.410 . S
C159 C167 1.503 . S
C160 C159 1.410 . S
C160 C161 1.392 . S
C160 C163 1.511 . S
C161 C157 1.376 . S
C161 C160 1.392 . S
C161 H173 0.929 . S
C162 C158 1.531 . S
C162 H174 0.960 . S
C162 H175 0.962 . S
C162 H176 0.960 1_554 S
C163 C160 1.511 . S
C163 H177 0.961 . S
C163 H178 0.961 . S
C163 H179 0.961 . S
C164 C165 1.370 . S
C164 C166 1.363 . S
C164 H180 0.931 . S
C165 C164 1.370 . S
C165 C169 1.408 . S
C166 C164 1.363 . S
C166 C167 1.370 . S
C166 C170 1.524 . S
C167 C159 1.503 . S
C167 C166 1.370 . S
C167 C168 1.403 . S
C168 C167 1.403 . S
C168 C169 1.404 . S
C168 C171 1.506 1_554 S
C169 C165 1.408 . S
C169 C168 1.404 . S
C169 H181 0.930 . S
C170 C166 1.524 . S
C170 H182 0.956 . S
C170 H183 0.961 . S
C170 H184 0.961 . S
C171 C168 1.506 1_556 S
C171 H185 0.995 . S
C171 H186 0.973 . S
C171 H187 0.946 1_556 S
H172 C156 0.931 . S
H173 C161 0.929 . S
H174 C162 0.960 . S
H175 C162 0.962 . S
H176 C162 0.960 1_556 S
H177 C163 0.961 . S
H178 C163 0.961 . S
H179 C163 0.961 . S
H180 C164 0.931 . S
H181 C169 0.930 . S
H182 C170 0.956 . S
H183 C170 0.961 . S
H184 C170 0.961 . S
H185 C171 0.995 . S
H186 C171 0.973 . S
H187 C171 0.946 1_554 S
C188 C189 1.391 . S
C188 C190 1.394 . S
C188 H204 0.931 . S
C189 C188 1.391 . S
C189 C193 1.376 . S
C190 C188 1.394 . S
C190 C191 1.369 . S
C190 C194 1.531 . S
C191 C190 1.369 . S
C191 C192 1.410 1_455 S
C191 C199 1.503 1_455 S
C192 C191 1.410 1_655 S
C192 C193 1.392 1_655 S
C192 C195 1.511 . S
C193 C189 1.376 . S
C193 C192 1.392 1_455 S
C193 H205 0.929 . S
C194 C190 1.531 . S
C194 H206 0.960 . S
C194 H207 0.962 . S
C194 H208 0.960 . S
C195 C192 1.511 . S
C195 H209 0.961 . S
C195 H210 0.961 . S
C195 H211 0.961 . S
C196 C197 1.370 . S
C196 C198 1.363 . S
C196 H212 0.931 . S
C197 C196 1.370 . S
C197 C201 1.408 . S
C198 C196 1.363 . S
C198 C199 1.370 . S
C198 C202 1.524 . S
C199 C191 1.503 1_655 S
C199 C198 1.370 . S
C199 C200 1.403 . S
C200 C199 1.403 . S
C200 C201 1.404 . S
C200 C203 1.539 1_655 S
C201 C197 1.408 . S
C201 C200 1.404 . S
C201 H213 0.930 . S
C202 C198 1.524 . S
C202 H214 0.956 1_655 S
C202 H215 0.961 . S
C202 H216 0.961 . S
C203 C200 1.539 1_455 S
C203 H217 0.958 . S
C203 H218 0.961 1_455 S
C203 H219 0.960 . S
H204 C188 0.931 . S
H205 C193 0.929 . S
H206 C194 0.960 . S
H207 C194 0.962 . S
H208 C194 0.960 . S
H209 C195 0.961 . S
H210 C195 0.961 . S
H211 C195 0.961 . S
H212 C196 0.931 . S
H213 C201 0.930 . S
H214 C202 0.956 1_455 S
H215 C202 0.961 . S
H216 C202 0.961 . S
H217 C203 0.958 . S
H218 C203 0.961 1_655 S
H219 C203 0.960 . S
C220 C221 1.391 . S
C220 C222 1.394 1_565 S
C220 H236 0.931 . S
C221 C220 1.391 . S
C221 C225 1.376 . S
C222 C220 1.394 1_545 S
C222 C223 1.369 1_545 S
C222 C226 1.531 . S
C223 C222 1.369 1_565 S
C223 C224 1.410 . S
C223 C231 1.503 1_565 S
C224 C223 1.410 . S
C224 C225 1.392 . S
C224 C227 1.511 . S
C225 C221 1.376 . S
C225 C224 1.392 . S
C225 H237 0.929 . S
C226 C222 1.531 . S
C226 H238 0.960 . S
C226 H239 0.962 . S
C226 H240 0.960 . S
C227 C224 1.511 . S
C227 H241 0.961 . S
C227 H242 0.961 . S
C227 H243 0.961 . S
C228 C229 1.370 . S
C228 C230 1.363 . S
C228 H244 0.931 . S
C229 C228 1.370 . S
C229 C233 1.408 . S
C230 C228 1.363 . S
C230 C231 1.370 . S
C230 C234 1.524 . S
C231 C223 1.503 1_545 S
C231 C230 1.370 . S
C231 C232 1.403 . S
C232 C231 1.403 . S
C232 C233 1.404 . S
C232 C235 1.539 1_545 S
C233 C229 1.408 . S
C233 C232 1.404 . S
C233 H245 0.930 . S
C234 C230 1.524 . S
C234 H246 0.956 . S
C234 H247 0.961 . S
C234 H248 0.961 . S
C235 C232 1.539 1_565 S
C235 H249 0.958 1_565 S
C235 H250 0.961 . S
C235 H251 0.960 . S
H236 C220 0.931 . S
H237 C225 0.929 . S
H238 C226 0.960 . S
H239 C226 0.962 . S
H240 C226 0.960 . S
H241 C227 0.961 . S
H242 C227 0.961 . S
H243 C227 0.961 . S
H244 C228 0.931 . S
H245 C233 0.930 . S
H246 C234 0.956 . S
H247 C234 0.961 . S
H248 C234 0.961 . S
H249 C235 0.958 1_545 S
H250 C235 0.961 . S
H251 C235 0.960 . S
C252 C253 1.391 . S
C252 C254 1.394 . S
C252 H268 0.931 . S
C253 C252 1.391 . S
C253 C257 1.376 . S
C254 C252 1.394 . S
C254 C255 1.369 . S
C254 C258 1.531 . S
C255 C254 1.369 . S
C255 C256 1.410 . S
C255 C263 1.503 . S
C256 C255 1.410 . S
C256 C257 1.392 . S
C256 C259 1.511 . S
C257 C253 1.376 . S
C257 C256 1.392 . S
C257 H269 0.929 . S
C258 C254 1.531 . S
C258 H270 0.960 . S
C258 H271 0.962 . S
C258 H272 0.960 . S
C259 C256 1.511 . S
C259 H273 0.961 . S
C259 H274 0.961 . S
C259 H275 0.961 . S
C260 C261 1.370 . S
C260 C262 1.363 . S
C260 H276 0.931 . S
C261 C260 1.370 . S
C261 C265 1.408 . S
C262 C260 1.363 . S
C262 C263 1.370 . S
C262 C266 1.524 . S
C263 C255 1.503 . S
C263 C262 1.370 . S
C263 C264 1.403 . S
C264 C263 1.403 . S
C264 C265 1.404 . S
C264 C267 1.539 . S
C265 C261 1.408 . S
C265 C264 1.404 . S
C265 H277 0.930 . S
C266 C262 1.524 . S
C266 H278 0.956 . S
C266 H279 0.961 . S
C266 H280 0.961 . S
C267 C264 1.539 . S
C267 H281 0.958 . S
C267 H282 0.961 . S
C267 H283 0.960 . S
H268 C252 0.931 . S
H269 C257 0.929 . S
H270 C258 0.960 . S
H271 C258 0.962 . S
H272 C258 0.960 . S
H273 C259 0.961 . S
H274 C259 0.961 . S
H275 C259 0.961 . S
H276 C260 0.931 . S
H277 C265 0.930 . S
H278 C266 0.956 . S
H279 C266 0.961 . S
H280 C266 0.961 . S
H281 C267 0.958 . S
H282 C267 0.961 . S
H283 C267 0.960 . S
C284 C285 1.391 . S
C284 C286 1.394 . S
C284 H300 0.931 . S
C285 C284 1.391 . S
C285 C289 1.376 . S
C286 C284 1.394 . S
C286 C287 1.369 . S
C286 C290 1.531 . S
C287 C286 1.369 . S
C287 C288 1.410 1_655 S
C287 C295 1.503 1_655 S
C288 C287 1.410 1_455 S
C288 C289 1.392 1_455 S
C288 C291 1.511 . S
C289 C285 1.376 . S
C289 C288 1.392 1_655 S
C289 H301 0.929 . S
C290 C286 1.531 . S
C290 H302 0.960 . S
C290 H303 0.962 . S
C290 H304 0.960 . S
C291 C288 1.511 . S
C291 H305 0.961 . S
C291 H306 0.961 . S
C291 H307 0.961 . S
C292 C293 1.370 . S
C292 C294 1.363 . S
C292 H308 0.931 . S
C293 C292 1.370 . S
C293 C297 1.408 . S
C294 C292 1.363 . S
C294 C295 1.370 . S
C294 C298 1.524 . S
C295 C287 1.503 1_455 S
C295 C294 1.370 . S
C295 C296 1.403 . S
C296 C295 1.403 . S
C296 C297 1.404 . S
C296 C299 1.539 1_556 S
C297 C293 1.408 . S
C297 C296 1.404 . S
C297 H309 0.930 . S
C298 C294 1.524 . S
C298 H310 0.956 1_455 S
C298 H311 0.961 . S
C298 H312 0.961 . S
C299 C296 1.539 1_554 S
C299 H313 0.958 1_455 S
C299 H314 0.961 . S
C299 H315 0.960 . S
H300 C284 0.931 . S
H301 C289 0.929 . S
H302 C290 0.960 . S
H303 C290 0.962 . S
H304 C290 0.960 . S
H305 C291 0.961 . S
H306 C291 0.961 . S
H307 C291 0.961 . S
H308 C292 0.931 . S
H309 C297 0.930 . S
H310 C298 0.956 1_655 S
H311 C298 0.961 . S
H312 C298 0.961 . S
H313 C299 0.958 1_655 S
H314 C299 0.961 . S
H315 C299 0.960 . S
C316 C317 1.391 . S
C316 C318 1.394 . S
C316 H332 0.931 . S
C317 C316 1.391 . S
C317 C321 1.376 . S
C318 C316 1.394 . S
C318 C319 1.369 . S
C318 C322 1.531 . S
C319 C318 1.369 . S
C319 C320 1.410 . S
C319 C327 1.503 1_545 S
C320 C319 1.410 . S
C320 C321 1.392 . S
C320 C323 1.511 1_545 S
C321 C317 1.376 . S
C321 C320 1.392 . S
C321 H333 0.929 . S
C322 C318 1.531 . S
C322 H334 0.960 . S
C322 H335 0.962 . S
C322 H336 0.960 . S
C323 C320 1.511 1_565 S
C323 H337 0.961 . S
C323 H338 0.961 . S
C323 H339 0.961 . S
C324 C325 1.370 . S
C324 C326 1.363 . S
C324 H340 0.931 . S
C325 C324 1.370 . S
C325 C329 1.408 . S
C326 C324 1.363 . S
C326 C327 1.370 . S
C326 C330 1.524 . S
C327 C319 1.503 1_565 S
C327 C326 1.370 . S
C327 C328 1.403 . S
C328 C327 1.403 . S
C328 C329 1.404 . S
C328 C331 1.539 1_565 S
C329 C325 1.408 . S
C329 C328 1.404 . S
C329 H341 0.930 . S
C330 C326 1.524 . S
C330 H342 0.956 . S
C330 H343 0.961 . S
C330 H344 0.961 . S
C331 C328 1.539 1_545 S
C331 H345 0.958 . S
C331 H346 0.961 . S
C331 H347 0.960 . S
H332 C316 0.931 . S
H333 C321 0.929 . S
H334 C322 0.960 . S
H335 C322 0.962 . S
H336 C322 0.960 . S
H337 C323 0.961 . S
H338 C323 0.961 . S
H339 C323 0.961 . S
H340 C324 0.931 . S
H341 C329 0.930 . S
H342 C330 0.956 . S
H343 C330 0.961 . S
H344 C330 0.961 . S
H345 C331 0.958 . S
H346 C331 0.961 . S
H347 C331 0.960 . S
C348 C349 1.391 . S
C348 C350 1.394 . S
C348 H364 0.931 . S
C349 C348 1.391 . S
C349 C353 1.376 . S
C350 C348 1.394 . S
C350 C351 1.369 . S
C350 C354 1.531 . S
C351 C350 1.369 . S
C351 C352 1.410 . S
C351 C359 1.503 . S
C352 C351 1.410 . S
C352 C353 1.392 . S
C352 C355 1.511 . S
C353 C349 1.376 . S
C353 C352 1.392 . S
C353 H365 0.929 . S
C354 C350 1.531 . S
C354 H366 0.960 . S
C354 H367 0.962 . S
C354 H368 0.960 . S
C355 C352 1.511 . S
C355 H369 0.961 . S
C355 H370 0.961 . S
C355 H371 0.961 . S
C356 C357 1.370 . S
C356 C358 1.363 . S
C356 H372 0.931 . S
C357 C356 1.370 . S
C357 C361 1.408 . S
C358 C356 1.363 . S
C358 C359 1.370 . S
C358 C362 1.524 . S
C359 C351 1.503 . S
C359 C358 1.370 . S
C359 C360 1.403 . S
C360 C359 1.403 . S
C360 C361 1.404 . S
C360 C363 1.539 . S
C361 C357 1.408 . S
C361 C360 1.404 . S
C361 H373 0.930 . S
C362 C358 1.524 . S
C362 H374 0.956 . S
C362 H375 0.961 . S
C362 H376 0.961 . S
C363 C360 1.539 . S
C363 H377 0.958 . S
C363 H378 0.961 . S
C363 H379 0.960 . S
H364 C348 0.931 . S
H365 C353 0.929 . S
H366 C354 0.960 . S
H367 C354 0.962 . S
H368 C354 0.960 . S
H369 C355 0.961 . S
H370 C355 0.961 . S
H371 C355 0.961 . S
H372 C356 0.931 . S
H373 C361 0.930 . S
H374 C362 0.956 . S
H375 C362 0.961 . S
H376 C362 0.961 . S
H377 C363 0.958 . S
H378 C363 0.961 . S
H379 C363 0.960 . S
C380 C381 1.391 . S
C380 C382 1.394 . S
C380 H396 0.931 . S
C381 C380 1.391 . S
C381 C385 1.376 . S
C382 C380 1.394 . S
C382 C383 1.369 . S
C382 C386 1.531 . S
C383 C382 1.369 . S
C383 C384 1.410 . S
C383 C391 1.503 . S
C384 C383 1.410 . S
C384 C385 1.392 . S
C384 C387 1.511 . S
C385 C381 1.376 . S
C385 C384 1.392 . S
C385 H397 0.929 . S
C386 C382 1.531 . S
C386 H398 0.960 . S
C386 H399 0.962 . S
C386 H400 0.960 . S
C387 C384 1.511 . S
C387 H401 0.961 . S
C387 H402 0.961 . S
C387 H403 0.961 . S
C388 C389 1.370 . S
C388 C390 1.363 . S
C388 H404 0.931 . S
C389 C388 1.370 . S
C389 C393 1.408 . S
C390 C388 1.363 . S
C390 C391 1.370 . S
C390 C394 1.524 . S
C391 C383 1.503 . S
C391 C390 1.370 . S
C391 C392 1.403 . S
C392 C391 1.403 . S
C392 C393 1.404 . S
C392 C395 1.539 . S
C393 C389 1.408 . S
C393 C392 1.404 . S
C393 H405 0.930 . S
C394 C390 1.524 . S
C394 H406 0.956 . S
C394 H407 0.961 . S
C394 H408 0.961 . S
C395 C392 1.539 . S
C395 H409 0.958 . S
C395 H410 0.961 . S
C395 H411 0.960 . S
H396 C380 0.931 . S
H397 C385 0.929 . S
H398 C386 0.960 . S
H399 C386 0.962 . S
H400 C386 0.960 . S
H401 C387 0.961 . S
H402 C387 0.961 . S
H403 C387 0.961 . S
H404 C388 0.931 . S
H405 C393 0.930 . S
H406 C394 0.956 . S
H407 C394 0.961 . S
H408 C394 0.961 . S
H409 C395 0.958 . S
H410 C395 0.961 . S
H411 C395 0.960 . S
C412 C413 1.391 . S
C412 C414 1.394 . S
C412 H428 0.931 . S
C413 C412 1.391 . S
C413 C417 1.376 . S
C414 C412 1.394 . S
C414 C415 1.369 . S
C414 C418 1.531 . S
C415 C414 1.369 . S
C415 C416 1.410 . S
C415 C423 1.503 . S
C416 C415 1.410 . S
C416 C417 1.392 . S
C416 C419 1.511 . S
C417 C413 1.376 . S
C417 C416 1.392 . S
C417 H429 0.929 . S
C418 C414 1.531 . S
C418 H430 0.960 . S
C418 H431 0.962 . S
C418 H432 0.960 . S
C419 C416 1.511 . S
C419 H433 0.961 . S
C419 H434 0.961 . S
C419 H435 0.961 . S
C420 C421 1.370 . S
C420 C422 1.363 . S
C420 H436 0.931 . S
C421 C420 1.370 . S
C421 C425 1.408 . S
C422 C420 1.363 . S
C422 C423 1.370 . S
C422 C426 1.524 . S
C423 C415 1.503 . S
C423 C422 1.370 . S
C423 C424 1.403 . S
C424 C423 1.403 . S
C424 C425 1.404 . S
C424 C427 1.539 . S
C425 C421 1.408 . S
C425 C424 1.404 . S
C425 H437 0.930 . S
C426 C422 1.524 . S
C426 H438 0.956 . S
C426 H439 0.961 . S
C426 H440 0.961 . S
C427 C424 1.539 . S
C427 H441 0.958 . S
C427 H442 0.961 . S
C427 H443 0.960 . S
H428 C412 0.931 . S
H429 C417 0.929 . S
H430 C418 0.960 . S
H431 C418 0.962 . S
H432 C418 0.960 . S
H433 C419 0.961 . S
H434 C419 0.961 . S
H435 C419 0.961 . S
H436 C420 0.931 . S
H437 C425 0.930 . S
H438 C426 0.956 . S
H439 C426 0.961 . S
H440 C426 0.961 . S
H441 C427 0.958 . S
H442 C427 0.961 . S
H443 C427 0.960 . S
C444 C445 1.391 . S
C444 C446 1.394 . S
C444 H460 0.931 . S
C445 C444 1.391 . S
C445 C449 1.376 . S
C446 C444 1.394 . S
C446 C447 1.369 . S
C446 C450 1.531 . S
C447 C446 1.369 . S
C447 C448 1.410 . S
C447 C455 1.503 . S
C448 C447 1.410 . S
C448 C449 1.392 . S
C448 C451 1.511 . S
C449 C445 1.376 . S
C449 C448 1.392 . S
C449 H461 0.929 . S
C450 C446 1.531 . S
C450 H462 0.960 . S
C450 H463 0.962 . S
C450 H464 0.960 . S
C451 C448 1.511 . S
C451 H465 0.961 . S
C451 H466 0.961 . S
C451 H467 0.961 . S
C452 C453 1.370 . S
C452 C454 1.363 . S
C452 H468 0.931 . S
C453 C452 1.370 . S
C453 C457 1.408 . S
C454 C452 1.363 . S
C454 C455 1.370 . S
C454 C458 1.524 . S
C455 C447 1.503 . S
C455 C454 1.370 . S
C455 C456 1.403 . S
C456 C455 1.403 . S
C456 C457 1.404 . S
C456 C459 1.539 . S
C457 C453 1.408 . S
C457 C456 1.404 . S
C457 H469 0.930 . S
C458 C454 1.524 . S
C458 H470 0.956 . S
C458 H471 0.961 . S
C458 H472 0.961 . S
C459 C456 1.539 . S
C459 H473 0.958 . S
C459 H474 0.961 . S
C459 H475 0.960 . S
H460 C444 0.931 . S
H461 C449 0.929 . S
H462 C450 0.960 . S
H463 C450 0.962 . S
H464 C450 0.960 . S
H465 C451 0.961 . S
H466 C451 0.961 . S
H467 C451 0.961 . S
H468 C452 0.931 . S
H469 C457 0.930 . S
H470 C458 0.956 . S
H471 C458 0.961 . S
H472 C458 0.961 . S
H473 C459 0.958 . S
H474 C459 0.961 . S
H475 C459 0.960 . S
C476 C477 1.391 . S
C476 C478 1.394 . S
C476 H492 0.931 . S
C477 C476 1.391 . S
C477 C481 1.376 . S
C478 C476 1.394 . S
C478 C479 1.369 . S
C478 C482 1.531 . S
C479 C478 1.369 . S
C479 C480 1.410 . S
C479 C487 1.503 . S
C480 C479 1.410 . S
C480 C481 1.392 . S
C480 C483 1.511 . S
C481 C477 1.376 . S
C481 C480 1.392 . S
C481 H493 0.929 . S
C482 C478 1.531 . S
C482 H494 0.960 . S
C482 H495 0.962 . S
C482 H496 0.960 . S
C483 C480 1.511 . S
C483 H497 0.961 . S
C483 H498 0.961 . S
C483 H499 0.961 . S
C484 C485 1.370 . S
C484 C486 1.363 . S
C484 H500 0.931 . S
C485 C484 1.370 . S
C485 C489 1.408 . S
C486 C484 1.363 . S
C486 C487 1.370 . S
C486 C490 1.524 . S
C487 C479 1.503 . S
C487 C486 1.370 . S
C487 C488 1.403 . S
C488 C487 1.403 . S
C488 C489 1.404 . S
C488 C491 1.539 . S
C489 C485 1.408 . S
C489 C488 1.404 . S
C489 H501 0.930 . S
C490 C486 1.524 . S
C490 H502 0.956 . S
C490 H503 0.961 . S
C490 H504 0.961 . S
C491 C488 1.539 . S
C491 H505 0.958 . S
C491 H506 0.961 . S
C491 H507 0.960 . S
H492 C476 0.931 . S
H493 C481 0.929 . S
H494 C482 0.960 . S
H495 C482 0.962 . S
H496 C482 0.960 . S
H497 C483 0.961 . S
H498 C483 0.961 . S
H499 C483 0.961 . S
H500 C484 0.931 . S
H501 C489 0.930 . S
H502 C490 0.956 . S
H503 C490 0.961 . S
H504 C490 0.961 . S
H505 C491 0.958 . S
H506 C491 0.961 . S
H507 C491 0.960 . S
C508 C509 1.391 . S
C508 C510 1.394 . S
C508 H524 0.931 . S
C509 C508 1.391 . S
C509 C513 1.376 . S
C510 C508 1.394 . S
C510 C511 1.369 . S
C510 C514 1.531 . S
C511 C510 1.369 . S
C511 C512 1.410 . S
C511 C519 1.503 . S
C512 C511 1.410 . S
C512 C513 1.392 . S
C512 C515 1.511 . S
C513 C509 1.376 . S
C513 C512 1.392 . S
C513 H525 0.929 . S
C514 C510 1.531 . S
C514 H526 0.960 . S
C514 H527 0.962 . S
C514 H528 0.960 . S
C515 C512 1.511 . S
C515 H529 0.961 . S
C515 H530 0.961 . S
C515 H531 0.961 . S
C516 C517 1.370 . S
C516 C518 1.363 . S
C516 H532 0.931 . S
C517 C516 1.370 . S
C517 C521 1.408 . S
C518 C516 1.363 . S
C518 C519 1.370 . S
C518 C522 1.524 . S
C519 C511 1.503 . S
C519 C518 1.370 . S
C519 C520 1.403 . S
C520 C519 1.403 . S
C520 C521 1.404 . S
C520 C523 1.539 . S
C521 C517 1.408 . S
C521 C520 1.404 . S
C521 H533 0.930 . S
C522 C518 1.524 . S
C522 H534 0.956 . S
C522 H535 0.961 . S
C522 H536 0.961 . S
C523 C520 1.539 . S
C523 H537 0.958 . S
C523 H538 0.961 . S
C523 H539 0.960 . S
H524 C508 0.931 . S
H525 C513 0.929 . S
H526 C514 0.960 . S
H527 C514 0.962 . S
H528 C514 0.960 . S
H529 C515 0.961 . S
H530 C515 0.961 . S
H531 C515 0.961 . S
H532 C516 0.931 . S
H533 C521 0.930 . S
H534 C522 0.956 . S
H535 C522 0.961 . S
H536 C522 0.961 . S
H537 C523 0.958 . S
H538 C523 0.961 . S
H539 C523 0.960 . S
C540 C541 1.391 . S
C540 C542 1.394 . S
C540 H556 0.931 . S
C541 C540 1.391 . S
C541 C545 1.376 . S
C542 C540 1.394 . S
C542 C543 1.369 . S
C542 C546 1.531 . S
C543 C542 1.369 . S
C543 C544 1.410 1_556 S
C543 C551 1.504 1_566 S
C544 C543 1.410 1_554 S
C544 C545 1.392 1_554 S
C544 C547 1.511 . S
C545 C541 1.376 . S
C545 C544 1.392 1_556 S
C545 H557 0.929 1_556 S
C546 C542 1.531 . S
C546 H558 0.960 1_565 S
C546 H559 0.962 . S
C546 H560 0.960 . S
C547 C544 1.511 . S
C547 H561 0.961 . S
C547 H562 0.961 . S
C547 H563 0.961 . S
C548 C549 1.370 . S
C548 C550 1.363 . S
C548 H564 0.931 . S
C549 C548 1.370 . S
C549 C553 1.408 1_554 S
C550 C548 1.363 . S
C550 C551 1.370 . S
C550 C554 1.524 . S
C551 C543 1.504 1_544 S
C551 C550 1.370 . S
C551 C552 1.403 1_554 S
C552 C551 1.403 1_556 S
C552 C553 1.404 . S
C552 C555 1.539 . S
C553 C549 1.408 1_556 S
C553 C552 1.404 . S
C553 H565 0.930 . S
C554 C550 1.524 . S
C554 H566 0.956 1_545 S
C554 H567 0.961 1_545 S
C554 H568 0.961 . S
C555 C552 1.539 . S
C555 H569 0.958 . S
C555 H570 0.961 . S
C555 H571 0.960 . S
H556 C540 0.931 . S
H557 C545 0.929 1_554 S
H558 C546 0.960 1_545 S
H559 C546 0.962 . S
H560 C546 0.960 . S
H561 C547 0.961 . S
H562 C547 0.961 . S
H563 C547 0.961 . S
H564 C548 0.931 . S
H565 C553 0.930 . S
H566 C554 0.956 1_565 S
H567 C554 0.961 1_565 S
H568 C554 0.961 . S
H569 C555 0.958 . S
H570 C555 0.961 . S
H571 C555 0.960 . S
C572 C573 1.391 . S
C572 C574 1.394 . S
C572 H588 0.931 . S
C573 C572 1.391 . S
C573 C577 1.376 . S
C574 C572 1.394 . S
C574 C575 1.369 . S
C574 C578 1.531 . S
C575 C574 1.369 . S
C575 C576 1.410 . S
C575 C583 1.503 . S
C576 C575 1.410 . S
C576 C577 1.392 . S
C576 C579 1.511 . S
C577 C573 1.376 . S
C577 C576 1.392 . S
C577 H589 0.929 . S
C578 C574 1.531 . S
C578 H590 0.960 . S
C578 H591 0.962 . S
C578 H592 0.960 . S
C579 C576 1.511 . S
C579 H593 0.961 . S
C579 H594 0.961 . S
C579 H595 0.961 . S
C580 C581 1.370 . S
C580 C582 1.363 . S
C580 H596 0.931 . S
C581 C580 1.370 . S
C581 C585 1.408 . S
C582 C580 1.363 . S
C582 C583 1.370 . S
C582 C586 1.524 . S
C583 C575 1.503 . S
C583 C582 1.370 . S
C583 C584 1.403 . S
C584 C583 1.403 . S
C584 C585 1.404 . S
C584 C587 1.539 . S
C585 C581 1.408 . S
C585 C584 1.404 . S
C585 H597 0.930 . S
C586 C582 1.524 . S
C586 H598 0.956 . S
C586 H599 0.961 . S
C586 H600 0.961 . S
C587 C584 1.539 . S
C587 H601 0.958 . S
C587 H602 0.961 . S
C587 H603 0.960 . S
H588 C572 0.931 . S
H589 C577 0.929 . S
H590 C578 0.960 . S
H591 C578 0.962 . S
H592 C578 0.960 . S
H593 C579 0.961 . S
H594 C579 0.961 . S
H595 C579 0.961 . S
H596 C580 0.931 . S
H597 C585 0.930 . S
H598 C586 0.956 . S
H599 C586 0.961 . S
H600 C586 0.961 . S
H601 C587 0.958 . S
H602 C587 0.961 . S
H603 C587 0.960 . S
C604 C605 1.391 . S
C604 C606 1.394 . S
C604 H620 0.931 . S
C605 C604 1.391 . S
C605 C609 1.376 . S
C606 C604 1.394 . S
C606 C607 1.369 . S
C606 C610 1.531 . S
C607 C606 1.369 . S
C607 C608 1.410 . S
C607 C615 1.503 1_655 S
C608 C607 1.410 . S
C608 C609 1.392 . S
C608 C611 1.511 . S
C609 C605 1.376 . S
C609 C608 1.392 . S
C609 H621 0.929 . S
C610 C606 1.531 . S
C610 H622 0.960 . S
C610 H623 0.962 . S
C610 H624 0.960 . S
C611 C608 1.511 . S
C611 H625 0.961 . S
C611 H626 0.961 1_655 S
C611 H627 0.961 . S
C612 C613 1.370 . S
C612 C614 1.363 . S
C612 H628 0.931 . S
C613 C612 1.370 . S
C613 C617 1.408 . S
C614 C612 1.363 . S
C614 C615 1.370 . S
C614 C618 1.524 . S
C615 C607 1.503 1_455 S
C615 C614 1.370 . S
C615 C616 1.403 . S
C616 C615 1.403 . S
C616 C617 1.404 . S
C616 C619 1.539 . S
C617 C613 1.408 . S
C617 C616 1.404 . S
C617 H629 0.930 . S
C618 C614 1.524 . S
C618 H630 0.956 . S
C618 H631 0.961 . S
C618 H632 0.961 . S
C619 C616 1.539 . S
C619 H633 0.958 1_455 S
C619 H634 0.961 . S
C619 H635 0.960 1_455 S
H620 C604 0.931 . S
H621 C609 0.929 . S
H622 C610 0.960 . S
H623 C610 0.962 . S
H624 C610 0.960 . S
H625 C611 0.961 . S
H626 C611 0.961 1_455 S
H627 C611 0.961 . S
H628 C612 0.931 . S
H629 C617 0.930 . S
H630 C618 0.956 . S
H631 C618 0.961 . S
H632 C618 0.961 . S
H633 C619 0.958 1_655 S
H634 C619 0.961 . S
H635 C619 0.960 1_655 S
C636 C637 1.391 . S
C636 C638 1.394 . S
C636 H652 0.931 . S
C637 C636 1.391 . S
C637 C641 1.376 . S
C638 C636 1.394 . S
C638 C639 1.369 . S
C638 C642 1.531 . S
C639 C638 1.369 . S
C639 C640 1.410 . S
C639 C647 1.513 1_565 S
C640 C639 1.410 . S
C640 C641 1.392 . S
C640 C643 1.511 . S
C641 C637 1.376 . S
C641 C640 1.392 . S
C641 H653 0.929 . S
C642 C638 1.531 . S
C642 H654 0.960 1_565 S
C642 H655 0.962 1_554 S
C642 H656 0.960 . S
C643 C640 1.511 . S
C643 H657 0.961 . S
C643 H658 0.961 1_565 S
C643 H659 0.961 . S
C644 C645 1.370 . S
C644 C646 1.363 . S
C644 H660 0.931 . S
C645 C644 1.370 . S
C645 C649 1.408 1_556 S
C646 C644 1.363 . S
C646 C647 1.341 1_556 S
C646 C650 1.524 1_545 S
C647 C639 1.513 1_545 S
C647 C646 1.341 1_554 S
C647 C648 1.423 . S
C648 C647 1.423 . S
C648 C649 1.404 . S
C648 C651 1.539 . S
C649 C645 1.408 1_554 S
C649 C648 1.404 . S
C649 H661 0.930 . S
C650 C646 1.524 1_565 S
C650 H662 0.956 . S
C650 H663 0.961 . S
C650 H664 0.961 1_565 S
C651 C648 1.539 . S
C651 H665 0.958 . S
C651 H666 0.961 . S
C651 H667 0.960 . S
H652 C636 0.931 . S
H653 C641 0.929 . S
H654 C642 0.960 1_545 S
H655 C642 0.962 1_556 S
H656 C642 0.960 . S
H657 C643 0.961 . S
H658 C643 0.961 1_545 S
H659 C643 0.961 . S
H660 C644 0.931 . S
H661 C649 0.930 . S
H662 C650 0.956 . S
H663 C650 0.961 . S
H664 C650 0.961 1_545 S
H665 C651 0.958 . S
H666 C651 0.961 . S
H667 C651 0.960 . S
C668 C669 1.391 . S
C668 C670 1.394 . S
C668 H684 0.931 . S
C669 C668 1.391 . S
C669 C673 1.376 . S
C670 C668 1.394 . S
C670 C671 1.369 . S
C670 C674 1.531 . S
C671 C670 1.369 . S
C671 C672 1.410 . S
C671 C679 1.503 . S
C672 C671 1.410 . S
C672 C673 1.392 . S
C672 C675 1.511 . S
C673 C669 1.376 . S
C673 C672 1.392 . S
C673 H685 0.929 . S
C674 C670 1.531 . S
C674 H686 0.960 . S
C674 H687 0.962 . S
C674 H688 0.960 . S
C675 C672 1.511 . S
C675 H689 0.961 . S
C675 H690 0.961 . S
C675 H691 0.961 . S
C676 C677 1.370 . S
C676 C678 1.363 . S
C676 H692 0.931 . S
C677 C676 1.370 . S
C677 C681 1.408 . S
C678 C676 1.363 . S
C678 C679 1.370 . S
C678 C682 1.524 . S
C679 C671 1.503 . S
C679 C678 1.370 . S
C679 C680 1.403 . S
C680 C679 1.403 . S
C680 C681 1.404 . S
C680 C683 1.539 . S
C681 C677 1.408 . S
C681 C680 1.404 . S
C681 H693 0.930 . S
C682 C678 1.524 . S
C682 H694 0.956 . S
C682 H695 0.961 . S
C682 H696 0.961 . S
C683 C680 1.539 . S
C683 H697 0.958 . S
C683 H698 0.961 . S
C683 H699 0.960 . S
H684 C668 0.931 . S
H685 C673 0.929 . S
H686 C674 0.960 . S
H687 C674 0.962 . S
H688 C674 0.960 . S
H689 C675 0.961 . S
H690 C675 0.961 . S
H691 C675 0.961 . S
H692 C676 0.931 . S
H693 C681 0.930 . S
H694 C682 0.956 . S
H695 C682 0.961 . S
H696 C682 0.961 . S
H697 C683 0.958 . S
H698 C683 0.961 . S
H699 C683 0.960 . S
C700 C701 1.391 . S
C700 C702 1.394 . S
C700 H716 0.931 . S
C701 C700 1.391 . S
C701 C705 1.376 . S
C702 C700 1.394 . S
C702 C703 1.369 . S
C702 C706 1.531 . S
C703 C702 1.369 . S
C703 C704 1.410 . S
C703 C711 1.503 1_455 S
C704 C703 1.410 . S
C704 C705 1.392 . S
C704 C707 1.511 . S
C705 C701 1.376 . S
C705 C704 1.392 . S
C705 H717 0.929 . S
C706 C702 1.531 . S
C706 H718 0.960 1_455 S
C706 H719 0.962 1_455 S
C706 H720 0.960 . S
C707 C704 1.511 . S
C707 H721 0.961 . S
C707 H722 0.961 . S
C707 H723 0.961 . S
C708 C709 1.370 . S
C708 C710 1.363 . S
C708 H724 0.931 . S
C709 C708 1.370 . S
C709 C713 1.408 . S
C710 C708 1.363 . S
C710 C711 1.370 . S
C710 C714 1.524 . S
C711 C703 1.503 1_655 S
C711 C710 1.370 . S
C711 C712 1.403 . S
C712 C711 1.403 . S
C712 C713 1.404 . S
C712 C715 1.539 . S
C713 C709 1.408 . S
C713 C712 1.404 . S
C713 H725 0.930 . S
C714 C710 1.524 . S
C714 H726 0.949 1_655 S
C714 H727 0.961 1_655 S
C714 H728 0.961 . S
C715 C712 1.539 . S
C715 H729 0.958 . S
C715 H730 0.961 . S
C715 H731 0.960 . S
H716 C700 0.931 . S
H717 C705 0.929 . S
H718 C706 0.960 1_655 S
H719 C706 0.962 1_655 S
H720 C706 0.960 . S
H721 C707 0.961 . S
H722 C707 0.961 . S
H723 C707 0.961 . S
H724 C708 0.931 . S
H725 C713 0.930 . S
H726 C714 0.949 1_455 S
H727 C714 0.961 1_455 S
H728 C714 0.961 . S
H729 C715 0.958 . S
H730 C715 0.961 . S
H731 C715 0.960 . S
C732 C733 1.391 . S
C732 C734 1.394 1_556 S
C732 H748 0.931 1_456 S
C733 C732 1.391 . S
C733 C737 1.376 . S
C734 C732 1.394 1_554 S
C734 C735 1.369 1_554 S
C734 C738 1.531 . S
C735 C734 1.369 1_556 S
C735 C736 1.410 . S
C735 C743 1.503 1_556 S
C736 C735 1.410 . S
C736 C737 1.392 . S
C736 C739 1.511 . S
C737 C733 1.376 . S
C737 C736 1.392 . S
C737 H749 0.929 . S
C738 C734 1.531 . S
C738 H750 0.960 . S
C738 H751 0.962 . S
C738 H752 0.960 . S
C739 C736 1.511 . S
C739 H753 0.961 . S
C739 H754 0.961 . S
C739 H755 0.961 . S
C740 C741 1.370 . S
C740 C742 1.363 . S
C740 H756 0.931 . S
C741 C740 1.370 . S
C741 C745 1.408 . S
C742 C740 1.363 . S
C742 C743 1.370 . S
C742 C746 1.524 . S
C743 C735 1.503 1_554 S
C743 C742 1.370 . S
C743 C744 1.403 . S
C744 C743 1.403 . S
C744 C745 1.404 . S
C744 C747 1.539 1_554 S
C745 C741 1.408 . S
C745 C744 1.404 . S
C745 H757 0.930 . S
C746 C742 1.524 . S
C746 H758 0.956 . S
C746 H759 0.961 1_554 S
C746 H760 0.961 . S
C747 C744 1.539 1_556 S
C747 H761 0.958 1_556 S
C747 H762 0.961 . S
C747 H763 0.960 . S
H748 C732 0.931 1_654 S
H749 C737 0.929 . S
H750 C738 0.960 . S
H751 C738 0.962 . S
H752 C738 0.960 . S
H753 C739 0.961 . S
H754 C739 0.961 . S
H755 C739 0.961 . S
H756 C740 0.931 . S
H757 C745 0.930 . S
H758 C746 0.956 . S
H759 C746 0.961 1_556 S
H760 C746 0.961 . S
H761 C747 0.958 1_554 S
H762 C747 0.961 . S
H763 C747 0.960 . S
C764 C765 1.391 . S
C764 C766 1.394 . S
C764 H780 0.931 1_545 S
C765 C764 1.391 . S
C765 C769 1.376 . S
C766 C764 1.394 . S
C766 C767 1.369 . S
C766 C770 1.531 . S
C767 C766 1.369 . S
C767 C768 1.410 . S
C767 C775 1.503 . S
C768 C767 1.410 . S
C768 C769 1.392 . S
C768 C771 1.511 . S
C769 C765 1.376 . S
C769 C768 1.392 . S
C769 H781 0.929 . S
C770 C766 1.531 . S
C770 H782 0.960 . S
C770 H783 0.962 . S
C770 H784 0.960 . S
C771 C768 1.511 . S
C771 H785 0.961 . S
C771 H786 0.961 . S
C771 H787 0.961 . S
C772 C773 1.370 . S
C772 C774 1.363 . S
C772 H788 0.931 . S
C773 C772 1.370 . S
C773 C777 1.408 . S
C774 C772 1.363 . S
C774 C775 1.370 . S
C774 C778 1.524 . S
C775 C767 1.503 . S
C775 C774 1.370 . S
C775 C776 1.403 . S
C776 C775 1.403 . S
C776 C777 1.404 . S
C776 C779 1.539 . S
C777 C773 1.408 . S
C777 C776 1.404 . S
C777 H789 0.930 1_655 S
C778 C774 1.524 . S
C778 H790 0.956 . S
C778 H791 0.961 . S
C778 H792 0.961 . S
C779 C776 1.539 . S
C779 H793 0.958 . S
C779 H794 0.961 . S
C779 H795 0.960 . S
H780 C764 0.931 1_565 S
H781 C769 0.929 . S
H782 C770 0.960 . S
H783 C770 0.962 . S
H784 C770 0.960 . S
H785 C771 0.961 . S
H786 C771 0.961 . S
H787 C771 0.961 . S
H788 C772 0.931 . S
H789 C777 0.930 1_455 S
H790 C778 0.956 . S
H791 C778 0.961 . S
H792 C778 0.961 . S
H793 C779 0.958 . S
H794 C779 0.961 . S
H795 C779 0.960 . S
C796 C797 1.391 . S
C796 C798 1.394 . S
C796 H812 0.931 . S
C797 C796 1.391 . S
C797 C801 1.376 . S
C798 C796 1.394 . S
C798 C799 1.369 . S
C798 C802 1.531 . S
C799 C798 1.369 . S
C799 C800 1.410 . S
C799 C807 1.503 . S
C800 C799 1.410 . S
C800 C801 1.392 . S
C800 C803 1.511 . S
C801 C797 1.376 . S
C801 C800 1.392 . S
C801 H813 0.929 . S
C802 C798 1.531 . S
C802 H814 0.960 . S
C802 H815 0.962 . S
C802 H816 0.960 . S
C803 C800 1.511 . S
C803 H817 0.961 . S
C803 H818 0.961 . S
C803 H819 0.961 . S
C804 C805 1.370 . S
C804 C806 1.363 . S
C804 H820 0.931 1_565 S
C805 C804 1.370 . S
C805 C809 1.408 . S
C806 C804 1.363 . S
C806 C807 1.370 . S
C806 C810 1.524 . S
C807 C799 1.503 . S
C807 C806 1.370 . S
C807 C808 1.403 . S
C808 C807 1.403 . S
C808 C809 1.404 . S
C808 C811 1.539 . S
C809 C805 1.408 . S
C809 C808 1.404 . S
C809 H821 0.930 . S
C810 C806 1.524 . S
C810 H822 0.956 . S
C810 H823 0.961 . S
C810 H824 0.961 . S
C811 C808 1.539 . S
C811 H825 0.958 . S
C811 H826 0.961 . S
C811 H827 0.960 . S
H812 C796 0.931 . S
H813 C801 0.929 . S
H814 C802 0.960 . S
H815 C802 0.962 . S
H816 C802 0.960 . S
H817 C803 0.961 . S
H818 C803 0.961 . S
H819 C803 0.961 . S
H820 C804 0.931 1_545 S
H821 C809 0.930 . S
H822 C810 0.956 . S
H823 C810 0.961 . S
H824 C810 0.961 . S
H825 C811 0.958 . S
H826 C811 0.961 . S
H827 C811 0.960 . S
C828 C829 1.391 . S
C828 C830 1.394 . S
C828 H844 0.931 . S
C829 C828 1.391 . S
C829 C833 1.376 . S
C830 C828 1.394 . S
C830 C831 1.369 . S
C830 C834 1.531 . S
C831 C830 1.369 . S
C831 C832 1.410 . S
C831 C839 1.503 1_554 S
C832 C831 1.410 . S
C832 C833 1.392 . S
C832 C835 1.511 . S
C833 C829 1.376 . S
C833 C832 1.392 . S
C833 H845 0.929 . S
C834 C830 1.531 . S
C834 H846 0.960 . S
C834 H847 0.962 1_554 S
C834 H848 0.960 . S
C835 C832 1.511 . S
C835 H849 0.961 . S
C835 H850 0.961 1_554 S
C835 H851 0.961 . S
C836 C837 1.370 . S
C836 C838 1.363 . S
C836 H852 0.931 . S
C837 C836 1.370 . S
C837 C841 1.408 . S
C838 C836 1.363 . S
C838 C839 1.370 . S
C838 C842 1.524 . S
C839 C831 1.503 1_556 S
C839 C838 1.370 . S
C839 C840 1.403 1_556 S
C840 C839 1.403 1_554 S
C840 C841 1.404 1_554 S
C840 C843 1.539 . S
C841 C837 1.408 . S
C841 C840 1.404 1_556 S
C841 H853 0.930 1_656 S
C842 C838 1.524 . S
C842 H854 0.956 . S
C842 H855 0.961 . S
C842 H856 0.961 . S
C843 C840 1.539 . S
C843 H857 0.958 . S
C843 H858 0.961 . S
C843 H859 0.960 . S
H844 C828 0.931 . S
H845 C833 0.929 . S
H846 C834 0.960 . S
H847 C834 0.962 1_556 S
H848 C834 0.960 . S
H849 C835 0.961 . S
H850 C835 0.961 1_556 S
H851 C835 0.961 . S
H852 C836 0.931 . S
H853 C841 0.930 1_454 S
H854 C842 0.956 . S
H855 C842 0.961 . S
H856 C842 0.961 . S
H857 C843 0.958 . S
H858 C843 0.961 . S
H859 C843 0.960 . S
C860 C861 1.391 . S
C860 C862 1.394 . S
C860 H876 0.931 1_455 S
C861 C860 1.391 . S
C861 C865 1.376 . S
C862 C860 1.394 . S
C862 C863 1.369 . S
C862 C866 1.531 . S
C863 C862 1.369 . S
C863 C864 1.410 . S
C863 C871 1.503 . S
C864 C863 1.410 . S
C864 C865 1.392 . S
C864 C867 1.511 . S
C865 C861 1.376 . S
C865 C864 1.392 . S
C865 H877 0.929 . S
C866 C862 1.531 . S
C866 H878 0.960 . S
C866 H879 0.962 . S
C866 H880 0.960 . S
C867 C864 1.511 . S
C867 H881 0.961 . S
C867 H882 0.961 . S
C867 H883 0.961 . S
C868 C869 1.370 . S
C868 C870 1.363 . S
C868 H884 0.931 . S
C869 C868 1.370 . S
C869 C873 1.408 . S
C870 C868 1.363 . S
C870 C871 1.370 . S
C870 C874 1.524 . S
C871 C863 1.503 . S
C871 C870 1.370 . S
C871 C872 1.403 . S
C872 C871 1.403 . S
C872 C873 1.404 . S
C872 C875 1.539 . S
C873 C869 1.408 . S
C873 C872 1.404 . S
C873 H885 0.930 1_565 S
C874 C870 1.524 . S
C874 H886 0.956 . S
C874 H887 0.961 . S
C874 H888 0.961 . S
C875 C872 1.539 . S
C875 H889 0.958 . S
C875 H890 0.961 . S
C875 H891 0.960 . S
H876 C860 0.931 1_655 S
H877 C865 0.929 . S
H878 C866 0.960 . S
H879 C866 0.962 . S
H880 C866 0.960 . S
H881 C867 0.961 . S
H882 C867 0.961 . S
H883 C867 0.961 . S
H884 C868 0.931 . S
H885 C873 0.930 1_545 S
H886 C874 0.956 . S
H887 C874 0.961 . S
H888 C874 0.961 . S
H889 C875 0.958 . S
H890 C875 0.961 . S
H891 C875 0.960 . S
C892 C893 1.391 . S
C892 C894 1.394 . S
C892 H908 0.931 . S
C893 C892 1.391 . S
C893 C897 1.376 . S
C894 C892 1.394 . S
C894 C895 1.369 . S
C894 C898 1.531 . S
C895 C894 1.369 . S
C895 C896 1.410 . S
C895 C903 1.503 . S
C896 C895 1.410 . S
C896 C897 1.392 . S
C896 C899 1.511 . S
C897 C893 1.376 . S
C897 C896 1.392 . S
C897 H909 0.929 1_545 S
C898 C894 1.531 . S
C898 H910 0.960 . S
C898 H911 0.962 . S
C898 H912 0.960 . S
C899 C896 1.511 . S
C899 H913 0.961 . S
C899 H914 0.961 . S
C899 H915 0.961 . S
C900 C901 1.370 . S
C900 C902 1.363 . S
C900 H916 0.931 . S
C901 C900 1.370 . S
C901 C905 1.408 . S
C902 C900 1.363 . S
C902 C903 1.370 . S
C902 C906 1.524 . S
C903 C895 1.503 . S
C903 C902 1.370 . S
C903 C904 1.403 . S
C904 C903 1.403 . S
C904 C905 1.404 . S
C904 C907 1.539 . S
C905 C901 1.408 . S
C905 C904 1.404 . S
C905 H917 0.930 . S
C906 C902 1.524 . S
C906 H918 0.956 . S
C906 H919 0.961 . S
C906 H920 0.961 . S
C907 C904 1.539 . S
C907 H921 0.958 . S
C907 H922 0.961 . S
C907 H923 0.960 . S
H908 C892 0.931 . S
H909 C897 0.929 1_565 S
H910 C898 0.960 . S
H911 C898 0.962 . S
H912 C898 0.960 . S
H913 C899 0.961 . S
H914 C899 0.961 . S
H915 C899 0.961 . S
H916 C900 0.931 . S
H917 C905 0.930 . S
H918 C906 0.956 . S
H919 C906 0.961 . S
H920 C906 0.961 . S
H921 C907 0.958 . S
H922 C907 0.961 . S
H923 C907 0.960 . S
C157 C39 1.372 . S
C165 C0 1.416 . S
C189 C13 1.411 . S
C197 C52 1.401 . S
C221 C65 1.418 . S
C229 C26 1.392 . S
C253 C78 1.353 . S
C261 C117 1.420 . S
C285 C130 1.398 . S
C293 C91 1.406 . S
C317 C104 1.423 . S
C325 C143 1.395 . S
C349 C112 1.485 . S
C357 C8 1.513 . S
C381 C21 1.519 . S
C389 C125 1.500 . S
C413 C34 1.492 . S
C421 C138 1.506 . S
C445 C47 1.527 . S
C453 C151 1.494 . S
C477 C86 1.517 . S
C485 C60 1.501 . S
C509 C99 1.507 . S
C517 C73 1.505 . S
C541 C96 0.840 . S
C549 C5 0.897 . S
C573 C18 0.835 . S
C581 C109 0.884 . S
C605 C31 0.951 . S
C613 C122 0.904 . S
C637 C44 0.879 . S
C645 C135 0.920 . S
C669 C148 0.939 . S
C677 C57 0.937 . S
C701 C70 0.833 . S
C709 C83 0.886 . S
C733 C140 1.274 1_455 S
C741 C10 1.282 . S
C765 C153 1.276 1_545 S
C773 C23 1.284 1_655 S
C797 C88 1.285 . S
C805 C36 1.284 1_565 S
C829 C49 1.280 . S
C837 C101 1.286 1_655 S
C861 C62 1.279 1_455 S
C869 C114 1.285 1_565 S
C893 C75 1.284 1_545 S
C901 C127 1.284 . S
