# Generated by pormake.
# Topology fob, (5)-cn, num edge types: 1
# Building blocks:
#     Node 0, Type 0, BuildingBlock: XOMCOT_clean_sbu_1, # of connection points: 5
#     Node 1, Type 0, BuildingBlock: XOMCOT_clean_sbu_1, # of connection points: 5
#     Node 2, Type 0, BuildingBlock: XOMCOT_clean_sbu_1, # of connection points: 5
#     Node 3, Type 0, BuildingBlock: XOMCOT_clean_sbu_1, # of connection points: 5
#     Node 4, Type 0, BuildingBlock: XOMCOT_clean_sbu_1, # of connection points: 5
#     Node 5, Type 0, BuildingBlock: XOMCOT_clean_sbu_1, # of connection points: 5
#     Node 6, Type 0, BuildingBlock: XOMCOT_clean_sbu_1, # of connection points: 5
#     Node 7, Type 0, BuildingBlock: XOMCOT_clean_sbu_1, # of connection points: 5
#     Node 8, Type 0, BuildingBlock: XOMCOT_clean_sbu_1, # of connection points: 5
#     Node 9, Type 0, BuildingBlock: XOMCOT_clean_sbu_1, # of connection points: 5
#     Node 10, Type 0, BuildingBlock: XOMCOT_clean_sbu_1, # of connection points: 5
#     Node 11, Type 0, BuildingBlock: XOMCOT_clean_sbu_1, # of connection points: 5
#     Node 12, Type 0, BuildingBlock: XOMCOT_clean_sbu_1, # of connection points: 5
#     Node 13, Type 0, BuildingBlock: XOMCOT_clean_sbu_1, # of connection points: 5
#     Node 14, Type 0, BuildingBlock: XOMCOT_clean_sbu_1, # of connection points: 5
#     Node 15, Type 0, BuildingBlock: XOMCOT_clean_sbu_1, # of connection points: 5
#     Edge 16, Type (0, 0), BuildingBlock: OJICUG_clean_linker_0, # of connection points: 2
#     Edge 17, Type (0, 0), BuildingBlock: OJICUG_clean_linker_0, # of connection points: 2
#     Edge 18, Type (0, 0), BuildingBlock: OJICUG_clean_linker_0, # of connection points: 2
#     Edge 19, Type (0, 0), BuildingBlock: OJICUG_clean_linker_0, # of connection points: 2
#     Edge 20, Type (0, 0), BuildingBlock: OJICUG_clean_linker_0, # of connection points: 2
#     Edge 21, Type (0, 0), BuildingBlock: OJICUG_clean_linker_0, # of connection points: 2
#     Edge 22, Type (0, 0), BuildingBlock: OJICUG_clean_linker_0, # of connection points: 2
#     Edge 23, Type (0, 0), BuildingBlock: OJICUG_clean_linker_0, # of connection points: 2
#     Edge 24, Type (0, 0), BuildingBlock: OJICUG_clean_linker_0, # of connection points: 2
#     Edge 25, Type (0, 0), BuildingBlock: OJICUG_clean_linker_0, # of connection points: 2
#     Edge 26, Type (0, 0), BuildingBlock: OJICUG_clean_linker_0, # of connection points: 2
#     Edge 27, Type (0, 0), BuildingBlock: OJICUG_clean_linker_0, # of connection points: 2
#     Edge 28, Type (0, 0), BuildingBlock: OJICUG_clean_linker_0, # of connection points: 2
#     Edge 29, Type (0, 0), BuildingBlock: OJICUG_clean_linker_0, # of connection points: 2
#     Edge 30, Type (0, 0), BuildingBlock: OJICUG_clean_linker_0, # of connection points: 2
#     Edge 31, Type (0, 0), BuildingBlock: OJICUG_clean_linker_0, # of connection points: 2
#     Edge 32, Type (0, 0), BuildingBlock: OJICUG_clean_linker_0, # of connection points: 2
#     Edge 33, Type (0, 0), BuildingBlock: OJICUG_clean_linker_0, # of connection points: 2
#     Edge 34, Type (0, 0), BuildingBlock: OJICUG_clean_linker_0, # of connection points: 2
#     Edge 35, Type (0, 0), BuildingBlock: OJICUG_clean_linker_0, # of connection points: 2
#     Edge 36, Type (0, 0), BuildingBlock: OJICUG_clean_linker_0, # of connection points: 2
#     Edge 37, Type (0, 0), BuildingBlock: OJICUG_clean_linker_0, # of connection points: 2
#     Edge 38, Type (0, 0), BuildingBlock: OJICUG_clean_linker_0, # of connection points: 2
#     Edge 39, Type (0, 0), BuildingBlock: OJICUG_clean_linker_0, # of connection points: 2
#     Edge 40, Type (0, 0), BuildingBlock: OJICUG_clean_linker_0, # of connection points: 2
#     Edge 41, Type (0, 0), BuildingBlock: OJICUG_clean_linker_0, # of connection points: 2
#     Edge 42, Type (0, 0), BuildingBlock: OJICUG_clean_linker_0, # of connection points: 2
#     Edge 43, Type (0, 0), BuildingBlock: OJICUG_clean_linker_0, # of connection points: 2
#     Edge 44, Type (0, 0), BuildingBlock: OJICUG_clean_linker_0, # of connection points: 2
#     Edge 45, Type (0, 0), BuildingBlock: OJICUG_clean_linker_0, # of connection points: 2
#     Edge 46, Type (0, 0), BuildingBlock: OJICUG_clean_linker_0, # of connection points: 2
#     Edge 47, Type (0, 0), BuildingBlock: OJICUG_clean_linker_0, # of connection points: 2
#     Edge 48, Type (0, 0), BuildingBlock: OJICUG_clean_linker_0, # of connection points: 2
#     Edge 49, Type (0, 0), BuildingBlock: OJICUG_clean_linker_0, # of connection points: 2
#     Edge 50, Type (0, 0), BuildingBlock: OJICUG_clean_linker_0, # of connection points: 2
#     Edge 51, Type (0, 0), BuildingBlock: OJICUG_clean_linker_0, # of connection points: 2
#     Edge 52, Type (0, 0), BuildingBlock: OJICUG_clean_linker_0, # of connection points: 2
#     Edge 53, Type (0, 0), BuildingBlock: OJICUG_clean_linker_0, # of connection points: 2
#     Edge 54, Type (0, 0), BuildingBlock: OJICUG_clean_linker_0, # of connection points: 2
#     Edge 55, Type (0, 0), BuildingBlock: OJICUG_clean_linker_0, # of connection points: 2
# Relax obj value: 0.094
# Max RMSD: 0.143
# Mean RMSD: 0.143
data_MOF--net-fob--node1-XOMCOT_clean_sbu_1--edge1-OJICUG_clean_linker_0
_symmetry_space_group_name_H-M    P1
_symmetry_Int_Tables_number       1
_symmetry_cell_setting            triclinic
loop_
_symmetry_equiv_pos_as_xyz
'x, y, z'
_cell_length_a     18.975993
_cell_length_b     50.122702
_cell_length_c     38.681827
_cell_angle_alpha  98.909943
_cell_angle_beta   89.910493
_cell_angle_gamma 90.238992
loop_
_atom_site_label
_atom_site_type_symbol
_atom_site_fract_x
_atom_site_fract_y
_atom_site_fract_z
_atom_type_partial_charge
C0 C 0.06485 0.21309 0.4855 0.0
C1 C 0.09021 0.23916 0.48875 0.0
N2 N 0.16119 0.23823 0.48755 0.0
N3 N 0.11954 0.19583 0.48225 0.0
C4 C 0.17745 0.21174 0.48398 0.0
H5 H 0.01002 0.20705 0.48463 0.0
Co6 Co 0.1139 0.15828 0.47415 0.0
C7 C 0.2629 0.14527 0.45679 0.0
O8 O 0.26694 0.12917 0.48047 0.0
N9 N 0.10748 0.12059 0.46569 0.0
C10 C 0.11003 0.07785 0.43968 0.0
C11 C 0.13156 0.10377 0.43755 0.0
C12 C 0.07082 0.1045 0.48428 0.0
N13 N 0.07161 0.07834 0.4691 0.0
O14 O 0.15478 0.15692 0.5192 0.0
H15 H 0.16112 0.11003 0.41625 0.0
H16 H 0.04137 0.11198 0.50769 0.0
O17 O 0.20511 0.15701 0.45196 0.0
C18 C 0.10443 0.16003 0.54123 0.0
O19 O 0.04121 0.16496 0.52992 0.0
N20 N 0.06783 0.15966 0.43202 0.0
C21 C 0.97932 0.15989 0.37459 0.0
C22 C 0.05121 0.16647 0.3725 0.0
C23 C 0.09491 0.16628 0.40173 0.0
C24 C 0.99819 0.15383 0.43467 0.0
C25 C 0.95312 0.15377 0.40638 0.0
H26 H 0.14994 0.17154 0.39999 0.0
H27 H 0.97755 0.14923 0.45917 0.0
H28 H 0.2307 0.20406 0.48253 0.0
H29 H 0.0587 0.25727 0.49062 0.0
H30 H 0.12129 0.0601 0.42079 0.0
H31 H 0.07354 0.17145 0.34852 0.0
H32 H 0.89781 0.14936 0.40966 0.0
C33 C 0.06081 0.09838 0.74446 0.0
C34 C 0.08526 0.07228 0.74145 0.0
N35 N 0.15628 0.07303 0.74186 0.0
N36 N 0.11614 0.11551 0.74672 0.0
C37 C 0.17349 0.09945 0.7447 0.0
H38 H 0.00621 0.10456 0.74584 0.0
Co39 Co 0.11215 0.15317 0.75415 0.0
C40 C 0.26202 0.16557 0.77131 0.0
O41 O 0.26769 0.1815 0.74749 0.0
N42 N 0.10772 0.19091 0.76207 0.0
C43 C 0.11216 0.2336 0.78815 0.0
C44 C 0.13224 0.2076 0.79025 0.0
C45 C 0.07238 0.20718 0.74338 0.0
N46 N 0.07418 0.23334 0.75869 0.0
O47 O 0.15266 0.15382 0.70877 0.0
H48 H 0.16096 0.20118 0.81163 0.0
H49 H 0.04315 0.19979 0.71983 0.0
O50 O 0.20336 0.15423 0.7761 0.0
C51 C 0.10233 0.14871 0.68694 0.0
O52 O 0.03934 0.14444 0.69927 0.0
N53 N 0.0663 0.1523 0.79651 0.0
C54 C 0.97715 0.15035 0.85343 0.0
C55 C 0.04869 0.14339 0.85511 0.0
C56 C 0.09268 0.14443 0.82614 0.0
C57 C 0.99714 0.15881 0.79434 0.0
C58 C 0.95177 0.15803 0.8224 0.0
H59 H 0.14719 0.13851 0.82738 0.0
H60 H 0.9769 0.16424 0.77025 0.0
H61 H 0.22703 0.10698 0.74546 0.0
H62 H 0.05316 0.05427 0.7403 0.0
H63 H 0.12401 0.25126 0.80714 0.0
H64 H 0.07039 0.13722 0.8785 0.0
H65 H 0.89673 0.1628 0.81937 0.0
C66 C 0.94112 0.85432 0.49224 0.0
C67 C 0.91692 0.82808 0.48706 0.0
N68 N 0.84588 0.82846 0.48836 0.0
N69 N 0.88571 0.8712 0.49689 0.0
C70 C 0.82846 0.8549 0.49407 0.0
H71 H 0.99568 0.86072 0.49334 0.0
Co72 Co 0.89082 0.90867 0.50722 0.0
C73 C 0.74229 0.921 0.52588 0.0
O74 O 0.73768 0.93792 0.50323 0.0
N75 N 0.89702 0.94633 0.51778 0.0
C76 C 0.89447 0.98873 0.54511 0.0
C77 C 0.87341 0.9626 0.54651 0.0
C78 C 0.93299 0.96291 0.49965 0.0
N79 N 0.93204 0.98888 0.51554 0.0
O80 O 0.84884 0.91156 0.46303 0.0
H81 H 0.84427 0.95583 0.5676 0.0
H82 H 0.962 0.95592 0.47596 0.0
O83 O 0.8002 0.90903 0.52973 0.0
C84 C 0.89818 0.90967 0.44048 0.0
O85 O 0.96232 0.90471 0.45055 0.0
N86 N 0.9376 0.90581 0.54863 0.0
C87 C 0.0269 0.9026 0.60492 0.0
C88 C 0.95515 0.89576 0.60666 0.0
C89 C 0.91107 0.89744 0.578 0.0
C90 C 0.00707 0.91202 0.54631 0.0
C91 C 0.05256 0.91059 0.57406 0.0
H92 H 0.85624 0.89182 0.57938 0.0
H93 H 0.02729 0.91793 0.52244 0.0
H94 H 0.77494 0.86228 0.49619 0.0
H95 H 0.94938 0.81017 0.48368 0.0
H96 H 0.8833 1.00618 0.56451 0.0
H97 H 0.93327 0.88936 0.62992 0.0
H98 H 0.10778 0.91529 0.57104 0.0
C99 C 0.937 0.95878 0.22075 0.0
C100 C 0.9128 0.98467 0.22111 0.0
N101 N 0.84233 0.98456 0.2255 0.0
N102 N 0.88199 0.94241 0.22473 0.0
C103 C 0.82517 0.95873 0.22778 0.0
H104 H 0.99137 0.9524 0.21829 0.0
Co105 Co 0.88489 0.90582 0.22821 0.0
C106 C 0.76019 0.88203 0.18779 0.0
O107 O 0.79384 0.85932 0.17751 0.0
N108 N 0.88748 0.8689 0.23312 0.0
C109 C 0.85588 0.8306 0.2516 0.0
C110 C 0.83579 0.85644 0.24878 0.0
C111 C 0.93916 0.85017 0.22736 0.0
N112 N 0.92112 0.82668 0.2382 0.0
O113 O 0.8455 0.91334 0.27414 0.0
H114 H 0.78668 0.86578 0.2582 0.0
H115 H 0.98966 0.85357 0.21601 0.0
O116 O 0.79106 0.90142 0.20743 0.0
C117 C 0.89514 0.9207 0.29561 0.0
O118 O 0.95852 0.92368 0.28293 0.0
N119 N 0.93009 0.89941 0.18441 0.0
C120 C 0.01937 0.89851 0.12663 0.0
C121 C 0.94623 0.90144 0.12316 0.0
C122 C 0.90241 0.9022 0.15254 0.0
C123 C 1.00107 0.8974 0.18826 0.0
C124 C 0.04641 0.89644 0.1598 0.0
H125 H 0.84726 0.90646 0.14975 0.0
H126 H 0.02298 0.89772 0.21413 0.0
H127 H 0.77249 0.95196 0.23284 0.0
H128 H 0.94466 1.00218 0.21838 0.0
H129 H 0.82573 0.8162 0.26378 0.0
H130 H 0.92325 0.90374 0.09819 0.0
H131 H 0.10262 0.89534 0.16416 0.0
C132 C 0.07004 0.70372 0.98288 0.0
C133 C 0.0942 0.72997 -0.01184 0.0
N134 N 0.16522 0.72962 0.98666 0.0
N135 N 0.12546 0.68685 0.97798 0.0
C136 C 0.18268 0.70318 0.98074 0.0
H137 H 0.0155 0.69731 0.9819 0.0
Co138 Co 0.12031 0.64938 0.96742 0.0
C139 C 0.2688 0.63708 0.94887 0.0
O140 O 0.27321 0.62015 0.97152 0.0
N141 N 0.1141 0.61172 0.95659 0.0
C142 C 0.11655 0.56942 0.92886 0.0
C143 C 0.13779 0.59558 0.92776 0.0
C144 C 0.07792 0.59503 0.97447 0.0
N145 N 0.0788 0.56912 0.95833 0.0
O146 O 0.16219 0.64634 0.0116 0.0
H147 H 0.16705 0.60246 0.90678 0.0
H148 H 0.04879 0.60191 -0.00185 0.0
O149 O 0.21097 0.64908 0.94496 0.0
C150 C 0.11275 0.64812 0.03409 0.0
O151 O 0.04859 0.65298 0.02396 0.0
N152 N 0.07358 0.6524 0.92606 0.0
C153 C 0.98414 0.65556 0.86983 0.0
C154 C 0.05596 0.66226 0.86796 0.0
C155 C 0.10012 0.6606 0.8966 0.0
C156 C 1.00403 0.64636 0.92852 0.0
C157 C 0.95846 0.64777 0.90081 0.0
H158 H 0.15504 0.66607 0.8951 0.0
H159 H 0.98384 0.64056 0.95246 0.0
H160 H 0.2362 0.69581 0.97842 0.0
H161 H 0.06169 0.74787 -0.00827 0.0
H162 H 0.12772 0.55206 0.90931 0.0
H163 H 0.07784 0.66849 0.84459 0.0
H164 H 0.90321 0.64319 0.90393 0.0
C165 C 0.07367 0.60019 0.25425 0.0
C166 C 0.09787 0.5743 0.25389 0.0
N167 N 0.16832 0.57439 0.24942 0.0
N168 N 0.12867 0.61654 0.25017 0.0
C169 C 0.18546 0.60022 0.24707 0.0
H170 H 0.01932 0.60658 0.25678 0.0
Co171 Co 0.12586 0.65314 0.2467 0.0
C172 C 0.25069 0.67683 0.28711 0.0
O173 O 0.21718 0.69957 0.29741 0.0
N174 N 0.12339 0.69005 0.2418 0.0
C175 C 0.15507 0.72835 0.22334 0.0
C176 C 0.17511 0.7025 0.22615 0.0
C177 C 0.07174 0.7088 0.24758 0.0
N178 N 0.08982 0.73229 0.23675 0.0
O179 O 0.1652 0.64558 0.20075 0.0
H180 H 0.2242 0.69315 0.21672 0.0
H181 H 0.02124 0.70541 0.25892 0.0
O182 O 0.21972 0.65748 0.26746 0.0
C183 C 0.11556 0.63817 0.17929 0.0
O184 O 0.05216 0.63525 0.19199 0.0
N185 N 0.08072 0.65955 0.29051 0.0
C186 C 0.99147 0.6603 0.34829 0.0
C187 C 0.06461 0.65737 0.35173 0.0
C188 C 0.10841 0.65669 0.32236 0.0
C189 C 0.00974 0.66158 0.28668 0.0
C190 C 0.96442 0.66247 0.31515 0.0
H191 H 0.16356 0.65241 0.32512 0.0
H192 H 0.98781 0.66131 0.26084 0.0
H193 H 0.23812 0.60698 0.24194 0.0
H194 H 0.06603 0.5568 0.2567 0.0
H195 H 0.18524 0.74275 0.21117 0.0
H196 H 0.0876 0.655 0.37667 0.0
H197 H 0.9082 0.66357 0.3108 0.0
C198 C 0.94674 0.34531 -0.0057 0.0
C199 C 0.92152 0.31924 -0.00859 0.0
N200 N 0.85055 0.32001 -0.00953 0.0
N201 N 0.89193 0.36241 -0.00483 0.0
C202 C 0.83417 0.34639 -0.00756 0.0
H203 H 1.00145 0.35148 -0.00357 0.0
Co204 Co 0.89633 0.40003 0.0014 0.0
C205 C 0.74644 0.41252 0.01747 0.0
O206 O 0.74206 0.42796 -0.00694 0.0
N207 N 0.90117 0.43769 0.00809 0.0
C208 C 0.89747 0.48066 0.033 0.0
C209 C 0.87609 0.45484 0.03566 0.0
C210 C 0.93812 0.45348 -0.0108 0.0
N211 N 0.93685 0.47979 0.00383 0.0
O212 O 0.85653 0.39973 0.95575 0.0
H213 H 0.84632 0.44888 0.05709 0.0
H214 H 0.96829 0.44563 0.96613 0.0
O215 O 0.80464 0.40134 0.02306 0.0
C216 C 0.90644 0.39399 0.93382 0.0
O217 O 0.96932 0.38969 0.94606 0.0
N218 N 0.94151 0.40013 0.04409 0.0
C219 C 0.02951 0.40048 0.10183 0.0
C220 C 0.95784 0.39348 0.10368 0.0
C221 C 0.91441 0.39337 0.07431 0.0
C222 C 0.01083 0.40656 0.04174 0.0
C223 C 0.05563 0.40693 0.07019 0.0
H224 H 0.85972 0.38756 0.07576 0.0
H225 H 0.03159 0.41115 0.01726 0.0
H226 H 0.78093 0.35393 -0.00806 0.0
H227 H 0.95297 0.30125 -0.00884 0.0
H228 H 0.88578 0.4986 0.05148 0.0
H229 H 0.93559 0.38823 0.12754 0.0
H230 H 0.11079 0.41166 0.06707 0.0
C231 C 0.94842 0.45891 0.73555 0.0
C232 C 0.92384 0.48502 0.73897 0.0
N233 N 0.85301 0.48416 0.73623 0.0
N234 N 0.8934 0.44167 0.73067 0.0
C235 C 0.83603 0.45765 0.73161 0.0
H236 H 1.00304 0.45283 0.73555 0.0
Co237 Co 0.89874 0.40412 0.7212 0.0
C238 C 0.74997 0.39128 0.70257 0.0
O239 O 0.74459 0.3747 0.72564 0.0
N240 N 0.90483 0.36639 0.7113 0.0
C241 C 0.90176 0.32403 0.68379 0.0
C242 C 0.88133 0.35015 0.68247 0.0
C243 C 0.94011 0.34974 0.72946 0.0
N244 N 0.93892 0.32378 0.71339 0.0
O245 O 0.85666 0.4017 0.76575 0.0
H246 H 0.85274 0.35694 0.66131 0.0
H247 H 0.96871 0.35669 0.75331 0.0
O248 O 0.80823 0.40316 0.69859 0.0
C249 C 0.9065 0.40426 0.78803 0.0
O250 O 0.97035 0.40911 0.77722 0.0
N251 N 0.94581 0.40661 0.67959 0.0
C252 C 0.03567 0.40933 0.62315 0.0
C253 C 0.96389 0.41585 0.62117 0.0
C254 C 0.91954 0.41442 0.64989 0.0
C255 C 0.0153 0.40074 0.68215 0.0
C256 C 0.06105 0.40192 0.65434 0.0
H257 H 0.86469 0.41978 0.6483 0.0
H258 H 0.03532 0.39525 0.70625 0.0
H259 H 0.78267 0.45001 0.72871 0.0
H260 H 0.95592 0.50313 0.74192 0.0
H261 H 0.89044 0.30664 0.66427 0.0
H262 H 0.94218 0.42179 0.59764 0.0
H263 H 0.11624 0.39748 0.65756 0.0
C264 C 0.56247 0.20614 0.98384 0.0
C265 C 0.58818 0.23217 -0.01241 0.0
N266 N 0.6592 0.23117 -0.01254 0.0
N267 N 0.61698 0.18881 0.98128 0.0
C268 C 0.67509 0.20465 0.98399 0.0
H269 H 0.5076 0.20017 0.98214 0.0
Co270 Co 0.61122 0.15126 0.97285 0.0
C271 C 0.76069 0.13872 0.9552 0.0
O272 O 0.76583 0.12256 0.97876 0.0
N273 N 0.60458 0.1135 0.96405 0.0
C274 C 0.60669 0.07084 0.93764 0.0
C275 C 0.62982 0.09669 0.93619 0.0
C276 C 0.56562 0.09747 0.98178 0.0
N277 N 0.566 0.07134 0.96632 0.0
O278 O 0.65206 0.14975 0.01783 0.0
H279 H 0.66101 0.10292 0.9154 0.0
H280 H 0.53473 0.10504 0.00467 0.0
O281 O 0.70235 0.15017 0.95064 0.0
C282 C 0.60144 0.15291 0.03971 0.0
O283 O 0.53816 0.15739 0.02809 0.0
N284 N 0.5653 0.15292 0.93078 0.0
C285 C 0.47666 0.15501 0.87387 0.0
C286 C 0.5486 0.16156 0.87204 0.0
C287 C 0.59235 0.16045 0.901 0.0
C288 C 0.49569 0.14696 0.93316 0.0
C289 C 0.45055 0.14783 0.90512 0.0
H290 H 0.64729 0.1659 0.89955 0.0
H291 H 0.475 0.14175 0.95733 0.0
H292 H 0.7282 0.19686 0.98328 0.0
H293 H 0.55688 0.25031 -0.01093 0.0
H294 H 0.61832 0.05316 0.91871 0.0
H295 H 0.57086 0.16735 0.84848 0.0
H296 H 0.3952 0.14339 0.90824 0.0
C297 C 0.56076 0.10047 0.24845 0.0
C298 C 0.58479 0.07426 0.2434 0.0
N299 N 0.65539 0.07474 0.23941 0.0
N300 N 0.61596 0.11737 0.24777 0.0
C301 C 0.67265 0.10113 0.24187 0.0
H302 H 0.50668 0.10684 0.25292 0.0
Co303 Co 0.61423 0.15496 0.25476 0.0
C304 C 0.76498 0.16626 0.27043 0.0
O305 O 0.77023 0.18164 0.24596 0.0
N306 N 0.61208 0.19266 0.26217 0.0
C307 C 0.6184 0.23547 0.28764 0.0
C308 C 0.63889 0.20949 0.28966 0.0
C309 C 0.57501 0.20879 0.24403 0.0
N310 N 0.57786 0.23501 0.25899 0.0
O311 O 0.65346 0.15476 0.2089 0.0
H312 H 0.66906 0.2032 0.31065 0.0
H313 H 0.54347 0.20122 0.22133 0.0
O314 O 0.70614 0.15536 0.2761 0.0
C315 C 0.60204 0.14956 0.18773 0.0
O316 O 0.53931 0.14625 0.20098 0.0
N317 N 0.5693 0.15494 0.2975 0.0
C318 C 0.48061 0.15448 0.35492 0.0
C319 C 0.55184 0.14706 0.35655 0.0
C320 C 0.59564 0.14736 0.32733 0.0
C321 C 0.50045 0.1619 0.29542 0.0
C322 C 0.45533 0.16186 0.32371 0.0
H323 H 0.6499 0.14112 0.32852 0.0
H324 H 0.48022 0.16709 0.2712 0.0
H325 H 0.72566 0.10859 0.23933 0.0
H326 H 0.55285 0.05636 0.24363 0.0
H327 H 0.63141 0.25322 0.30625 0.0
H328 H 0.57343 0.14109 0.38008 0.0
H329 H 0.40049 0.16694 0.32072 0.0
C330 C 0.44129 0.8483 -0.00188 0.0
C331 C 0.41918 0.82178 -0.00545 0.0
N332 N 0.34816 0.82135 -0.00628 0.0
N333 N 0.38445 0.86447 -0.00051 0.0
C334 C 0.32864 0.84746 -0.00359 0.0
H335 H 0.49522 0.85542 0.00037 0.0
Co336 Co 0.38391 0.9022 0.00631 0.0
C337 C 0.23204 0.91052 0.02296 0.0
O338 O 0.22258 0.92475 -0.00245 0.0
N339 N 0.38354 0.94001 0.01323 0.0
C340 C 0.37514 0.98299 0.03781 0.0
C341 C 0.35546 0.9569 0.04026 0.0
C342 C 0.42015 0.95626 -0.00518 0.0
N343 N 0.41624 0.98256 0.00928 0.0
O344 O 0.34327 0.90138 0.96075 0.0
H345 H 0.32525 0.95059 0.06132 0.0
H346 H 0.45251 0.94873 0.97242 0.0
O347 O 0.293 0.90157 0.02859 0.0
C348 C 0.39431 0.8967 0.93924 0.0
O349 O 0.45763 0.894 0.95201 0.0
N350 N 0.42994 0.90277 0.049 0.0
C351 C 0.51956 0.89962 0.10506 0.0
C352 C 0.45238 0.88769 0.10387 0.0
C353 C 0.40778 0.88968 0.07554 0.0
C354 C 0.49499 0.91443 0.04992 0.0
C355 C 0.54009 0.91354 0.078 0.0
H356 H 0.35725 0.87956 0.07403 0.0
H357 H 0.51316 0.92363 0.02801 0.0
H358 H 0.27451 0.85408 -0.00384 0.0
H359 H 0.45271 0.80428 -0.00628 0.0
H360 H 0.36144 1.00078 0.05612 0.0
H361 H 0.43537 0.87641 0.12413 0.0
H362 H 0.59224 0.92237 0.07755 0.0
C363 C 0.43945 0.95867 0.73975 0.0
C364 C 0.41458 0.98474 0.74352 0.0
N365 N 0.34362 0.98382 0.74174 0.0
N366 N 0.38449 0.94137 0.73556 0.0
C367 C 0.32689 0.95728 0.7373 0.0
H368 H 0.49416 0.95264 0.73904 0.0
Co369 Co 0.38987 0.90385 0.7259 0.0
C370 C 0.24127 0.89103 0.70718 0.0
O371 O 0.23598 0.87432 0.7301 0.0
N372 N 0.3961 0.86614 0.71581 0.0
C373 C 0.39419 0.82397 0.68766 0.0
C374 C 0.37225 0.84999 0.68698 0.0
C375 C 0.43303 0.84953 0.73336 0.0
N376 N 0.43269 0.82369 0.71684 0.0
O377 O 0.34756 0.90132 0.7703 0.0
H378 H 0.34282 0.85682 0.66612 0.0
H379 H 0.46254 0.85647 0.75693 0.0
O380 O 0.29946 0.90297 0.70327 0.0
C381 C 0.39725 0.90379 0.79265 0.0
O382 O 0.46127 0.90849 0.78194 0.0
N383 N 0.437 0.90646 0.68438 0.0
C384 C 0.52666 0.90936 0.62795 0.0
C385 C 0.45502 0.91611 0.62615 0.0
C386 C 0.41075 0.91457 0.65486 0.0
C387 C 0.50639 0.90036 0.68676 0.0
C388 C 0.55203 0.9016 0.65893 0.0
H389 H 0.35601 0.92012 0.65343 0.0
H390 H 0.52643 0.89465 0.71073 0.0
H391 H 0.27357 0.94955 0.73511 0.0
H392 H 0.44654 1.00286 0.74607 0.0
H393 H 0.3833 0.80669 0.66789 0.0
H394 H 0.43337 0.92233 0.60278 0.0
H395 H 0.60716 0.89698 0.662 0.0
C396 C 0.56948 0.70991 0.47673 0.0
C397 C 0.59164 0.73643 0.48037 0.0
N398 N 0.66266 0.73683 0.48127 0.0
N399 N 0.6263 0.69372 0.47539 0.0
C400 C 0.68212 0.71072 0.47857 0.0
H401 H 0.51555 0.7028 0.47439 0.0
Co402 Co 0.62689 0.656 0.46843 0.0
C403 C 0.77877 0.64774 0.45172 0.0
O404 O 0.78827 0.63343 0.47704 0.0
N405 N 0.62733 0.61821 0.46137 0.0
C406 C 0.6357 0.57526 0.43671 0.0
C407 C 0.65526 0.60136 0.43427 0.0
C408 C 0.59097 0.60193 0.47983 0.0
N409 N 0.59487 0.57564 0.46533 0.0
O410 O 0.66758 0.65672 0.51396 0.0
H411 H 0.68529 0.6077 0.41317 0.0
H412 H 0.55878 0.60943 0.50231 0.0
O413 O 0.71779 0.65671 0.44616 0.0
C414 C 0.6166 0.66138 0.53552 0.0
O415 O 0.55327 0.66416 0.52281 0.0
N416 N 0.58085 0.65553 0.42576 0.0
C417 C 0.49118 0.65887 0.36977 0.0
C418 C 0.55837 0.67081 0.37102 0.0
C419 C 0.60299 0.66871 0.39931 0.0
C420 C 0.51582 0.64385 0.42477 0.0
C421 C 0.47069 0.64484 0.39673 0.0
H422 H 0.6535 0.67885 0.40087 0.0
H423 H 0.49768 0.63456 0.44661 0.0
H424 H 0.73624 0.70408 0.47887 0.0
H425 H 0.55815 0.75394 0.48117 0.0
H426 H 0.64932 0.55747 0.41835 0.0
H427 H 0.57536 0.68217 0.35084 0.0
H428 H 0.41854 0.636 0.39714 0.0
C429 C 0.57184 0.59872 0.73403 0.0
C430 C 0.59645 0.57263 0.73062 0.0
N431 N 0.66726 0.5735 0.73353 0.0
N432 N 0.62681 0.61598 0.73906 0.0
C433 C 0.68419 0.60002 0.73824 0.0
H434 H 0.51722 0.60479 0.73391 0.0
Co435 Co 0.62118 0.65351 0.74866 0.0
C436 C 0.76967 0.66655 0.76739 0.0
O437 O 0.77484 0.68319 0.7444 0.0
N438 N 0.61463 0.69122 0.75872 0.0
C439 C 0.61625 0.73339 0.78688 0.0
C440 C 0.63838 0.70739 0.78755 0.0
C441 C 0.57755 0.70779 0.74117 0.0
N442 N 0.57772 0.73363 0.7577 0.0
O443 O 0.66348 0.65606 0.70427 0.0
H444 H 0.66787 0.70059 0.80842 0.0
H445 H 0.54807 0.70083 0.7176 0.0
O446 O 0.71157 0.65454 0.77133 0.0
C447 C 0.61382 0.65362 0.68192 0.0
O448 O 0.5498 0.64888 0.69258 0.0
N449 N 0.57405 0.65088 0.79017 0.0
C450 C 0.48442 0.64816 0.84664 0.0
C451 C 0.55612 0.64153 0.84853 0.0
C452 C 0.60038 0.64297 0.81979 0.0
C453 C 0.50459 0.65682 0.78768 0.0
C454 C 0.45895 0.65567 0.81553 0.0
H455 H 0.6552 0.63755 0.82131 0.0
H456 H 0.48451 0.66238 0.76363 0.0
H457 H 0.73751 0.60768 0.74129 0.0
H458 H 0.56438 0.55451 0.72756 0.0
H459 H 0.62704 0.75067 0.80664 0.0
H460 H 0.57782 0.63549 0.872 0.0
H461 H 0.40377 0.6602 0.81241 0.0
C462 C 0.44803 0.3521 0.48962 0.0
C463 C 0.42245 0.32607 0.48618 0.0
N464 N 0.35149 0.32708 0.48767 0.0
N465 N 0.3935 0.36944 0.49329 0.0
C466 C 0.33545 0.35361 0.49161 0.0
H467 H 0.50291 0.35808 0.49036 0.0
Co468 Co 0.39975 0.40698 0.50188 0.0
C469 C 0.25072 0.41989 0.52019 0.0
O470 O 0.24539 0.43605 0.49664 0.0
N471 N 0.40695 0.44472 0.51083 0.0
C472 C 0.4056 0.48733 0.53745 0.0
C473 C 0.38234 0.4615 0.53888 0.0
C474 C 0.44569 0.46076 0.49301 0.0
N475 N 0.44575 0.48686 0.50859 0.0
O476 O 0.35836 0.40871 0.45708 0.0
H477 H 0.35149 0.45525 0.55977 0.0
H478 H 0.4761 0.45322 0.46995 0.0
O479 O 0.30894 0.40826 0.52444 0.0
C480 C 0.40872 0.40562 0.43504 0.0
O481 O 0.47213 0.40104 0.44641 0.0
N482 N 0.44615 0.40508 0.54372 0.0
C483 C 0.53526 0.40254 0.6003 0.0
C484 C 0.46333 0.39603 0.60224 0.0
C485 C 0.41935 0.39737 0.57344 0.0
C486 C 0.51577 0.41101 0.54124 0.0
C487 C 0.56115 0.40993 0.56913 0.0
H488 H 0.36441 0.39192 0.57495 0.0
H489 H 0.53626 0.41636 0.5171 0.0
H490 H 0.2823 0.36137 0.4934 0.0
H491 H 0.45384 0.30791 0.48399 0.0
H492 H 0.3944 0.50498 0.55651 0.0
H493 H 0.44127 0.39009 0.62575 0.0
H494 H 0.61648 0.41436 0.56596 0.0
C495 C 0.44978 0.45846 0.22619 0.0
C496 C 0.42581 0.48468 0.23124 0.0
N497 N 0.35525 0.48423 0.23543 0.0
N498 N 0.39458 0.44158 0.22708 0.0
C499 C 0.33798 0.45785 0.2331 0.0
H500 H 0.5038 0.45207 0.22157 0.0
Co501 Co 0.39606 0.404 0.22013 0.0
C502 C 0.24515 0.39291 0.20485 0.0
O503 O 0.24007 0.37748 0.22927 0.0
N504 N 0.39795 0.36632 0.21278 0.0
C505 C 0.39135 0.32349 0.1874 0.0
C506 C 0.3709 0.34946 0.18537 0.0
C507 C 0.43511 0.3502 0.23089 0.0
N508 N 0.43209 0.32397 0.216 0.0
O509 O 0.35701 0.40427 0.26603 0.0
H510 H 0.34057 0.35575 0.16442 0.0
H511 H 0.46682 0.35778 0.25353 0.0
O512 O 0.30401 0.40371 0.19899 0.0
C513 C 0.40823 0.40956 0.28729 0.0
O514 O 0.47104 0.41294 0.27417 0.0
N515 N 0.44073 0.40394 0.17731 0.0
C516 C 0.52902 0.40404 0.11967 0.0
C517 C 0.45774 0.41141 0.11806 0.0
C518 C 0.41415 0.41128 0.1474 0.0
C519 C 0.50963 0.39706 0.17938 0.0
C520 C 0.55457 0.39693 0.151 0.0
H521 H 0.35982 0.41744 0.1462 0.0
H522 H 0.53003 0.39203 0.20366 0.0
H523 H 0.28499 0.45042 0.23582 0.0
H524 H 0.45773 0.50257 0.23085 0.0
H525 H 0.37818 0.30572 0.16886 0.0
H526 H 0.43596 0.41716 0.09445 0.0
H527 H 0.60946 0.39191 0.15397 0.0
C528 C 0.27565 0.25686 0.47143 0.0
C529 C 0.20937 0.26063 0.48778 0.0
H530 H 0.3721 0.27502 0.45803 0.0
C531 C 0.19058 0.28672 0.50388 0.0
H532 H 0.29144 0.23718 0.4582 0.0
C533 C 0.2369 0.30847 0.50372 0.0
C534 C 0.3032 0.3047 0.48738 0.0
H535 H 0.14041 0.29029 0.51709 0.0
H536 H 0.22111 0.32814 0.51698 0.0
C537 C 0.32195 0.27861 0.47125 0.0
C538 C 0.98146 1.01133 0.4682 0.0
C539 C 0.96649 1.01164 0.50387 0.0
H540 H 0.02547 0.0323 0.42915 0.0
C541 C 0.98631 0.03445 0.52789 0.0
H542 H 0.96588 0.99437 0.44887 0.0
C543 C 0.02058 0.0563 0.51653 0.0
C544 C 0.03594 0.05587 0.48087 0.0
H545 H 0.97656 0.03526 0.55559 0.0
H546 H 0.03614 0.07331 0.53578 0.0
C547 C 0.01576 0.03314 0.45686 0.0
C548 C 0.27021 0.05425 0.75771 0.0
C549 C 0.20371 0.05055 0.74162 0.0
H550 H 0.36605 0.03596 0.771 0.0
C551 C 0.18391 1.02446 0.72579 0.0
H552 H 0.28674 0.07395 0.77072 0.0
C553 C 0.22949 1.00262 0.72595 0.0
C554 C 0.29604 1.0063 0.74206 0.0
H555 H 0.13351 1.02096 0.71279 0.0
H556 H 0.21289 0.98296 0.71285 0.0
C557 C 0.31574 0.03241 0.75795 0.0
C558 C 0.9875 0.30088 0.76039 0.0
C559 C 0.97267 0.30086 0.72479 0.0
H560 H 0.03006 0.27942 0.79911 0.0
C561 C 0.99154 0.27808 0.70054 0.0
H562 H 0.9727 0.31782 0.77988 0.0
C563 C 0.02456 0.25595 0.71161 0.0
C564 C 0.03965 0.25606 0.74719 0.0
H565 H 0.98197 0.27746 0.67287 0.0
H566 H 0.03933 0.23897 0.69219 0.0
C567 C 0.02053 0.27879 0.77143 0.0
C568 C 0.8205 0.77992 0.46914 0.0
C569 C 0.79891 0.80547 0.486 0.0
H570 H 0.79404 0.73824 0.45406 0.0
C571 C 0.73119 0.80803 0.50104 0.0
H572 H 0.87165 0.77722 0.45675 0.0
C573 C 0.68648 0.7856 0.49941 0.0
C574 C 0.70848 0.76004 0.48286 0.0
H575 H 0.71303 0.82724 0.51473 0.0
H576 H 0.63516 0.78817 0.51168 0.0
C577 C 0.77593 0.7575 0.46764 0.0
C578 C 0.81977 0.03345 0.24161 0.0
C579 C 0.79542 1.00736 0.22842 0.0
H580 H 0.79443 0.07514 0.25614 0.0
C581 C 0.72438 1.00384 0.21845 0.0
H582 H 0.87388 0.0368 0.25002 0.0
C583 C 0.67868 1.02591 0.22174 0.0
C584 C 0.70287 0.05201 0.2352 0.0
H585 H 0.70424 0.98407 0.20769 0.0
H586 H 0.62455 1.0225 0.21341 0.0
C587 C 0.77407 0.05549 0.24505 0.0
C588 C 0.03775 0.80466 0.23801 0.0
C589 C 0.96381 0.80284 0.23753 0.0
H590 H 0.13563 0.78379 0.23885 0.0
C591 C 0.93208 0.77737 0.23698 0.0
H592 H 0.064 0.82397 0.23909 0.0
C593 C 0.97321 0.7543 0.23693 0.0
C594 C 0.04715 0.75612 0.23741 0.0
H595 H 0.87533 0.77517 0.23608 0.0
H596 H 0.94696 0.73499 0.23584 0.0
C597 C 0.07888 0.78159 0.23796 0.0
C598 C 0.23501 0.80062 0.00743 0.0
C599 C 0.30241 0.79812 -0.00785 0.0
H600 H 0.13943 0.78084 0.0184 0.0
C601 C 0.32442 0.77259 0.97554 0.0
H602 H 0.2169 0.81986 0.02105 0.0
C603 C 0.27979 0.75013 0.9739 0.0
C604 C 0.21212 0.75263 -0.01098 0.0
H605 H 0.37569 0.77004 0.9632 0.0
H606 H 0.29797 0.73094 0.96016 0.0
C607 C 0.19053 0.77817 0.00594 0.0
C608 C 0.98972 0.50168 0.95668 0.0
C609 C 0.97359 0.50209 -0.00776 0.0
H610 H 0.03476 0.52277 0.91789 0.0
C611 C 0.99382 0.52473 0.01641 0.0
H612 H 0.97426 0.48469 0.93735 0.0
C613 C 0.02865 0.5465 0.00532 0.0
C614 C 0.04413 0.54628 0.96973 0.0
H615 H 0.98365 0.52553 0.04408 0.0
H616 H 0.04414 0.56339 0.02479 0.0
C617 C 0.02452 0.52353 0.94555 0.0
C618 C 0.19083 0.5255 0.23339 0.0
C619 C 0.21523 0.5516 0.24649 0.0
H620 H 0.21613 0.4838 0.21891 0.0
C621 C 0.28634 0.55513 0.25635 0.0
H622 H 0.13667 0.52215 0.22506 0.0
C623 C 0.33205 0.53307 0.25303 0.0
C624 C 0.3078 0.50695 0.23966 0.0
H625 H 0.30653 0.57492 0.26703 0.0
H626 H 0.38623 0.53648 0.26126 0.0
C627 C 0.23653 0.50347 0.22993 0.0
C628 C 0.77567 0.24966 0.97397 0.0
C629 C 0.70779 0.25355 -0.01145 0.0
H630 H 0.87375 0.26775 0.96269 0.0
C631 C 0.68782 0.27975 0.00369 0.0
H632 H 0.79256 0.22991 0.96149 0.0
C633 C 0.7344 0.3015 0.0042 0.0
C634 C 0.80222 0.2976 -0.0104 0.0
H635 H 0.63644 0.28346 0.01559 0.0
H636 H 0.71758 0.32129 0.01659 0.0
C637 C 0.82231 0.27141 0.97454 0.0
C638 C 0.69588 0.52501 0.71716 0.0
C639 C 0.71439 0.55099 0.73397 0.0
H640 H 0.72551 0.48356 0.70424 0.0
C641 C 0.77923 0.55452 0.75175 0.0
H642 H 0.64688 0.52161 0.70286 0.0
C643 C 0.82437 0.53264 0.75263 0.0
C644 C 0.80586 0.50667 0.73581 0.0
H645 H 0.79474 0.57409 0.76556 0.0
H646 H 0.87338 0.53604 0.76692 0.0
C647 C 0.74102 0.50314 0.71805 0.0
C648 C 0.50769 0.04965 0.01224 0.0
C649 C 0.52788 0.04898 0.97713 0.0
H650 H 0.45743 0.02907 0.05006 0.0
C651 C 0.51003 1.0261 0.95275 0.0
H652 H 0.52135 0.0667 0.03185 0.0
C653 C 0.47328 1.00444 0.96323 0.0
C654 C 0.45324 1.0051 -0.00166 0.0
H655 H 0.52351 1.025 0.92539 0.0
H656 H 0.45978 0.98732 0.94369 0.0
C657 C 0.47084 1.02801 0.0227 0.0
C658 C 0.48635 0.27867 0.20244 0.0
C659 C 0.46872 0.30149 0.22688 0.0
H660 H 0.53575 0.23991 0.19334 0.0
C661 C 0.48784 0.30203 0.26205 0.0
H662 H 0.47363 0.27772 0.17502 0.0
C663 C 0.52361 0.28031 0.27254 0.0
C664 C 0.54125 0.25749 0.2481 0.0
H665 H 0.47423 0.31908 0.28163 0.0
H666 H 0.53632 0.28127 0.29995 0.0
C667 C 0.52214 0.25695 0.21292 0.0
C668 C 0.48562 0.80044 0.76248 0.0
C669 C 0.46913 0.80093 0.72717 0.0
H670 H 0.53182 0.77863 0.79995 0.0
C671 C 0.48912 0.77883 0.70209 0.0
H672 H 0.47016 0.81688 0.78256 0.0
C673 C 0.52464 0.75685 0.71206 0.0
C674 C 0.54116 0.75637 0.74737 0.0
H675 H 0.47843 0.77866 0.6746 0.0
H676 H 0.54011 0.74041 0.69198 0.0
C677 C 0.52114 0.77846 0.77245 0.0
C678 C 0.53864 0.5537 0.51152 0.0
C679 C 0.5581 0.55309 0.47634 0.0
H680 H 0.48901 0.5331 0.54949 0.0
C681 C 0.54011 0.53022 0.45199 0.0
H682 H 0.55247 0.57079 0.53104 0.0
C683 C 0.50339 0.50859 0.46252 0.0
C684 C 0.48376 0.50921 0.49771 0.0
H685 H 0.55309 0.52921 0.42458 0.0
H686 H 0.48939 0.49158 0.44292 0.0
C687 C 0.50204 0.53204 0.52208 0.0
C688 C 0.37842 0.1299 0.42869 0.0
C689 C 0.32369 0.14892 0.434 0.0
H690 H 0.47098 0.11653 0.39916 0.0
C691 C 0.32538 0.1711 0.41585 0.0
H692 H 0.37853 0.11262 0.44238 0.0
C693 C 0.37868 0.1736 0.39173 0.0
C694 C 0.43112 0.15375 0.38464 0.0
H695 H 0.28468 0.18637 0.4198 0.0
H696 H 0.37772 0.19082 0.37791 0.0
C697 C 0.43157 0.13223 0.40408 0.0
C698 C 0.88066 0.18196 0.29828 0.0
C699 C 0.82512 0.16309 0.29373 0.0
H700 H 0.97295 0.19597 0.32775 0.0
C701 C 0.82498 0.14178 0.31338 0.0
H702 H 0.88217 0.19859 0.28345 0.0
C703 C 0.87716 0.14007 0.33827 0.0
C704 C 0.93043 0.15982 0.3445 0.0
H705 H 0.78366 0.12661 0.31001 0.0
H706 H 0.87477 0.12354 0.35326 0.0
C707 C 0.9328 0.18039 0.32355 0.0
C708 C 0.32143 0.13951 0.81268 0.0
C709 C 0.32197 0.16159 0.79433 0.0
H710 H 0.37114 0.11959 0.85098 0.0
C711 C 0.37797 0.18021 0.79974 0.0
H712 H 0.27972 0.12453 0.80868 0.0
C713 C 0.43025 0.17759 0.82458 0.0
C714 C 0.42759 0.15617 0.84418 0.0
H715 H 0.37979 0.19741 0.7859 0.0
H716 H 0.47081 0.19296 0.82951 0.0
C717 C 0.37379 0.13673 0.83706 0.0
C718 C 0.92922 0.12716 0.90202 0.0
C719 C 0.92759 0.1489 0.88296 0.0
H720 H 0.87755 0.10683 0.94005 0.0
C721 C 0.87427 0.16836 0.89038 0.0
H722 H 0.96933 0.11175 0.89684 0.0
C723 C 0.82141 0.1653 0.91453 0.0
C724 C 0.82097 0.14291 0.93233 0.0
H725 H 0.87238 0.18573 0.87689 0.0
H726 H 0.78012 0.18031 0.9188 0.0
C727 C 0.87647 0.12426 0.92663 0.0
C728 C 0.62901 0.89129 0.59072 0.0
C729 C 0.57615 0.91089 0.59846 0.0
H730 H 0.72246 0.87913 0.5618 0.0
C731 C 0.57467 0.93276 0.57964 0.0
H732 H 0.63071 0.87384 0.60407 0.0
C733 C 0.62718 0.93564 0.55493 0.0
C734 C 0.68221 0.9168 0.54884 0.0
H735 H 0.53485 0.94826 0.58508 0.0
H736 H 0.62627 0.95317 0.54171 0.0
C737 C 0.68156 0.89429 0.5664 0.0
C738 C 0.12628 0.87625 0.67794 0.0
C739 C 0.18156 0.89513 0.68411 0.0
H740 H 0.03404 0.86359 0.64766 0.0
C741 C 0.18155 0.91764 0.66656 0.0
H742 H 0.12491 0.85872 0.69115 0.0
C743 C 0.12929 0.92064 0.64222 0.0
C744 C 0.07615 0.90101 0.6344 0.0
H745 H 0.2227 0.93282 0.67118 0.0
H746 H 0.13144 0.93813 0.62893 0.0
C747 C 0.07409 0.87911 0.65317 0.0
C748 C 0.66927 0.91306 0.16955 0.0
C749 C 0.69154 0.88667 0.17177 0.0
H750 H 0.59655 0.93784 0.1466 0.0
C751 C 0.65079 0.86473 0.15569 0.0
H752 H 0.6996 0.93038 0.18153 0.0
C753 C 0.59114 0.86907 0.13614 0.0
C754 C 0.57192 0.89538 0.13194 0.0
H755 H 0.66647 0.84418 0.15713 0.0
H756 H 0.56273 0.85179 0.1225 0.0
C757 C 0.61036 0.91736 0.14955 0.0
C758 C 0.06031 0.91855 0.07408 0.0
C759 C 0.06866 0.89943 0.09685 0.0
H760 H 0.10553 0.93713 0.03275 0.0
C761 C 0.12814 0.88261 0.09289 0.0
H762 H 0.01536 0.93195 0.07659 0.0
C763 C 0.17987 0.88577 0.06817 0.0
C764 C 0.17337 0.90575 0.04658 0.0
H765 H 0.13551 0.86732 0.1095 0.0
H766 H 0.22563 0.87279 0.0664 0.0
C767 C 0.11214 0.92163 0.0491 0.0
C768 C 0.38393 0.62231 0.91995 0.0
C769 C 0.32893 0.64117 0.9259 0.0
H770 H 0.47625 0.60953 0.88988 0.0
C771 C 0.32963 0.66358 0.90815 0.0
H772 H 0.38481 0.60486 0.93333 0.0
C773 C 0.38217 0.66644 0.88377 0.0
C774 C 0.43498 0.6468 0.87618 0.0
H775 H 0.28876 0.67876 0.91263 0.0
H776 H 0.38049 0.6838 0.87025 0.0
C777 C 0.43644 0.62505 0.8952 0.0
C778 C 0.88471 0.68147 0.7965 0.0
C779 C 0.82938 0.66259 0.79054 0.0
H780 H 0.97703 0.69427 0.82664 0.0
C781 C 0.82936 0.64023 0.80836 0.0
H782 H 0.8861 0.6989 0.78308 0.0
C783 C 0.88165 0.63737 0.83274 0.0
C784 C 0.93485 0.657 0.84033 0.0
H785 H 0.78817 0.62506 0.80394 0.0
H786 H 0.87949 0.61999 0.84623 0.0
C787 C 0.93693 0.67875 0.82131 0.0
C788 C 0.34141 0.64569 0.30527 0.0
C789 C 0.31929 0.67211 0.30314 0.0
H790 H 0.41398 0.62079 0.32812 0.0
C791 C 0.36011 0.69399 0.31931 0.0
H792 H 0.31102 0.62841 0.29322 0.0
C793 C 0.41971 0.68957 0.33885 0.0
C794 C 0.4388 0.66322 0.34295 0.0
H795 H 0.34454 0.71457 0.31794 0.0
H796 H 0.44819 0.7068 0.35255 0.0
C797 C 0.40028 0.64129 0.32525 0.0
C798 C 0.83089 0.67273 0.40674 0.0
C799 C 0.83744 0.65265 0.42817 0.0
H800 H 0.87522 0.6914 0.36559 0.0
C801 C 0.89873 0.63681 0.42557 0.0
H802 H 0.78508 0.68569 0.40858 0.0
C803 C 0.95058 0.64002 0.40065 0.0
C804 C 0.94218 0.65924 0.37803 0.0
H805 H 0.90539 0.62123 0.44181 0.0
H806 H 0.99558 0.62664 0.39806 0.0
C807 C 0.88263 0.67602 0.38208 0.0
C808 C 0.63081 0.38467 0.08295 0.0
C809 C 0.5783 0.40451 0.0898 0.0
H810 H 0.72485 0.37177 0.055 0.0
C811 C 0.57761 0.4258 0.06997 0.0
H812 H 0.63193 0.36761 0.09705 0.0
C813 C 0.63067 0.42794 0.04524 0.0
C814 C 0.68553 0.40897 0.04022 0.0
H815 H 0.53813 0.44148 0.07469 0.0
H816 H 0.63045 0.44507 0.03126 0.0
C817 C 0.68402 0.387 0.05873 0.0
C818 C 0.07652 0.37944 0.15229 0.0
C819 C 0.07845 0.40034 0.13184 0.0
H820 H 0.12788 0.36067 0.19168 0.0
C821 C 0.13168 0.42009 0.13832 0.0
H822 H 0.03646 0.36384 0.14788 0.0
C823 C 0.18431 0.41805 0.16287 0.0
C824 C 0.1846 0.3964 0.18197 0.0
H825 H 0.13376 0.43685 0.12371 0.0
H826 H 0.22565 0.4332 0.1664 0.0
C827 C 0.12905 0.37755 0.17726 0.0
C828 C 0.63435 0.37669 0.6738 0.0
C829 C 0.69021 0.39536 0.67949 0.0
H830 H 0.54152 0.36412 0.64394 0.0
C831 C 0.69064 0.41763 0.66148 0.0
H832 H 0.63258 0.35936 0.68738 0.0
C833 C 0.63827 0.42057 0.63717 0.0
C834 C 0.58453 0.40113 0.62983 0.0
H835 H 0.73223 0.43265 0.6657 0.0
H836 H 0.64081 0.43785 0.6235 0.0
C837 C 0.58203 0.3795 0.64906 0.0
C838 C 0.13857 0.39116 0.58635 0.0
C839 C 0.08522 0.41062 0.59358 0.0
H840 H 0.23218 0.37887 0.55768 0.0
C841 C 0.08316 0.43209 0.57406 0.0
H842 H 0.14075 0.37399 0.6002 0.0
C843 C 0.13549 0.43471 0.54914 0.0
C844 C 0.19094 0.41602 0.54352 0.0
H845 H 0.04296 0.44748 0.57907 0.0
H846 H 0.13405 0.45192 0.53533 0.0
C847 C 0.19095 0.39392 0.56185 0.0
C848 C 0.0538 0.13939 0.62694 0.0
C849 C 0.11039 0.14883 0.64887 0.0
H850 H 0.00856 0.1354 0.57607 0.0
C851 C 0.16992 0.1597 0.63418 0.0
H852 H 0.00761 0.13043 0.63707 0.0
C853 C 0.17063 0.16233 0.59842 0.0
C854 C 0.11155 0.15436 0.57736 0.0
H855 H 0.21441 0.16706 0.65046 0.0
H856 H 0.21553 0.1717 0.58773 0.0
C857 C 0.05425 0.14223 0.59183 0.0
C858 C 0.94249 0.9303 0.39082 0.0
C859 C 0.88826 0.91634 0.40507 0.0
H860 H 0.98567 0.94335 0.34543 0.0
C861 C 0.83008 0.90702 0.38416 0.0
H862 H 0.98733 0.93813 0.4066 0.0
C863 C 0.82934 0.9098 0.34853 0.0
C864 C 0.88648 0.92216 0.33383 0.0
H865 H 0.78762 0.89622 0.39473 0.0
H866 H 0.78628 0.901 0.33221 0.0
C867 C 0.94142 0.93333 0.35574 0.0
C868 C 0.06853 0.62779 0.08401 0.0
C869 C 0.12271 0.64168 0.0696 0.0
H870 H 0.02529 0.61509 0.12962 0.0
C871 C 0.18078 0.6512 0.09049 0.0
H872 H 0.02378 0.61981 0.06827 0.0
C873 C 0.18143 0.64871 0.1262 0.0
C874 C 0.12431 0.63644 0.14104 0.0
H875 H 0.22318 0.66195 0.0798 0.0
H876 H 0.22438 0.65766 0.14248 0.0
C877 C 0.06951 0.62505 0.1192 0.0
C878 C 0.84012 0.40524 0.88106 0.0
C879 C 0.89805 0.3935 0.89568 0.0
H880 H 0.79656 0.41776 0.83462 0.0
C881 C 0.95313 0.38278 0.87358 0.0
H882 H 0.79683 0.4136 0.89748 0.0
C883 C 0.95314 0.38533 0.83836 0.0
C884 C 0.8978 0.39842 0.824 0.0
H885 H 0.99797 0.37314 0.88371 0.0
H886 H 0.99788 0.37764 0.82247 0.0
C887 C 0.83987 0.40759 0.84522 0.0
C888 C 0.66894 0.15699 0.13307 0.0
C889 C 0.60898 0.1478 0.1493 0.0
H890 H 0.71438 0.1657 0.08481 0.0
C891 C 0.55123 0.13794 0.12843 0.0
H892 H 0.71435 0.1646 0.14852 0.0
C893 C 0.55117 0.13871 0.09273 0.0
C894 C 0.60903 0.14916 0.07661 0.0
H895 H 0.50462 0.1302 0.13977 0.0
H896 H 0.50467 0.1316 0.07778 0.0
C897 C 0.66907 0.15757 0.09675 0.0
C898 C 0.44313 0.88613 0.84407 0.0
C899 C 0.3878 0.89861 0.82885 0.0
H900 H 0.48725 0.87521 0.89032 0.0
C901 C 0.32906 0.90786 0.84944 0.0
H902 H 0.48846 0.87836 0.82867 0.0
C903 C 0.32851 0.90626 0.88549 0.0
C904 C 0.3865 0.89523 0.90094 0.0
H905 H 0.28573 0.91756 0.83816 0.0
H906 H 0.28465 0.91473 0.90142 0.0
C907 C 0.44237 0.88435 0.87951 0.0
C908 C 0.68244 0.65153 0.58911 0.0
C909 C 0.62448 0.66268 0.57379 0.0
H910 H 0.72523 0.63998 0.63629 0.0
C911 C 0.56868 0.67351 0.59531 0.0
H912 H 0.72625 0.64311 0.57312 0.0
C913 C 0.56796 0.67157 0.6307 0.0
C914 C 0.62325 0.65896 0.64578 0.0
H915 H 0.52383 0.68275 0.5846 0.0
H916 H 0.52268 0.6793 0.64616 0.0
C917 C 0.68193 0.64977 0.62512 0.0
C918 C 0.45803 0.42163 0.34675 0.0
C919 C 0.40094 0.41133 0.3257 0.0
H920 H 0.50411 0.42813 0.39751 0.0
C921 C 0.34142 0.40159 0.34171 0.0
H922 H 0.50422 0.42979 0.33555 0.0
C923 C 0.34124 0.40087 0.37799 0.0
C924 C 0.40078 0.40968 0.39829 0.0
H925 H 0.29652 0.39363 0.32612 0.0
H926 H 0.29641 0.39227 0.38976 0.0
C927 C 0.45804 0.42072 0.38241 0.0
loop_
_geom_bond_atom_site_label_1
_geom_bond_atom_site_label_2
_geom_bond_distance
_geom_bond_site_symmetry_2
_ccdc_geom_bond_type
C0 C1 1.351 . S
C0 N3 1.368 . S
C0 H5 0.931 . S
C1 C0 1.351 . S
C1 N2 1.373 . S
C1 H29 0.930 . S
N2 C1 1.373 . S
N2 C4 1.340 . S
N3 C0 1.368 . S
N3 C4 1.321 . S
N3 Co6 2.135 . S
C4 N2 1.340 . S
C4 N3 1.321 . S
C4 H28 0.930 . S
H5 C0 0.931 . S
Co6 N3 2.135 . S
Co6 N9 2.121 . S
Co6 O14 2.055 . S
Co6 O17 2.039 . S
Co6 N20 2.140 . S
C7 O8 1.227 . S
C7 O17 1.265 . S
O8 C7 1.227 . S
N9 Co6 2.121 . S
N9 C11 1.375 . S
N9 C12 1.313 . S
C10 C11 1.338 . S
C10 N13 1.377 . S
C10 H30 0.930 . S
C11 N9 1.375 . S
C11 C10 1.338 . S
C11 H15 0.931 . S
C12 N9 1.313 . S
C12 N13 1.344 . S
C12 H16 0.930 . S
N13 C10 1.377 . S
N13 C12 1.344 . S
O14 Co6 2.055 . S
O14 C18 1.253 . S
H15 C11 0.931 . S
H16 C12 0.930 . S
O17 Co6 2.039 . S
O17 C7 1.265 . S
C18 O14 1.253 . S
C18 O19 1.227 . S
O19 C18 1.227 . S
N20 Co6 2.140 . S
N20 C23 1.346 . S
N20 C24 1.345 1_455 S
C21 C22 1.387 . S
C21 C25 1.391 . S
C22 C21 1.387 . S
C22 C23 1.369 1_655 S
C22 H31 0.929 . S
C23 N20 1.346 . S
C23 C22 1.369 1_455 S
C23 H26 0.928 . S
C24 N20 1.345 1_655 S
C24 C25 1.371 . S
C24 H27 0.931 . S
C25 C21 1.391 . S
C25 C24 1.371 . S
C25 H32 0.930 . S
H26 C23 0.928 . S
H27 C24 0.931 . S
H28 C4 0.930 . S
H29 C1 0.930 . S
H30 C10 0.930 . S
H31 C22 0.929 . S
H32 C25 0.930 . S
C33 C34 1.351 . S
C33 N36 1.368 . S
C33 H38 0.931 . S
C34 C33 1.351 . S
C34 N35 1.373 . S
C34 H62 0.930 . S
N35 C34 1.373 . S
N35 C37 1.340 . S
N36 C33 1.368 . S
N36 C37 1.321 . S
N36 Co39 2.135 . S
C37 N35 1.340 . S
C37 N36 1.321 . S
C37 H61 0.930 . S
H38 C33 0.931 . S
Co39 N36 2.135 . S
Co39 N42 2.121 . S
Co39 O47 2.055 . S
Co39 O50 2.039 . S
Co39 N53 2.140 . S
C40 O41 1.227 . S
C40 O50 1.265 . S
O41 C40 1.227 . S
N42 Co39 2.121 . S
N42 C44 1.375 . S
N42 C45 1.313 . S
C43 C44 1.338 . S
C43 N46 1.377 . S
C43 H63 0.930 . S
C44 N42 1.375 . S
C44 C43 1.338 . S
C44 H48 0.931 . S
C45 N42 1.313 . S
C45 N46 1.344 . S
C45 H49 0.930 . S
N46 C43 1.377 . S
N46 C45 1.344 . S
O47 Co39 2.055 . S
O47 C51 1.253 . S
H48 C44 0.931 . S
H49 C45 0.930 . S
O50 Co39 2.039 . S
O50 C40 1.265 . S
C51 O47 1.253 . S
C51 O52 1.227 . S
O52 C51 1.227 . S
N53 Co39 2.140 . S
N53 C56 1.346 . S
N53 C57 1.345 1_455 S
C54 C55 1.387 . S
C54 C58 1.391 . S
C55 C54 1.387 . S
C55 C56 1.369 1_655 S
C55 H64 0.929 . S
C56 N53 1.346 . S
C56 C55 1.369 1_455 S
C56 H59 0.928 . S
C57 N53 1.345 1_655 S
C57 C58 1.371 . S
C57 H60 0.931 . S
C58 C54 1.391 . S
C58 C57 1.371 . S
C58 H65 0.930 . S
H59 C56 0.928 . S
H60 C57 0.931 . S
H61 C37 0.930 . S
H62 C34 0.930 . S
H63 C43 0.930 . S
H64 C55 0.929 . S
H65 C58 0.930 . S
C66 C67 1.351 . S
C66 N69 1.368 . S
C66 H71 0.931 . S
C67 C66 1.351 . S
C67 N68 1.373 . S
C67 H95 0.930 . S
N68 C67 1.373 . S
N68 C70 1.340 . S
N69 C66 1.368 . S
N69 C70 1.321 . S
N69 Co72 2.135 . S
C70 N68 1.340 . S
C70 N69 1.321 . S
C70 H94 0.930 . S
H71 C66 0.931 . S
Co72 N69 2.135 . S
Co72 N75 2.121 . S
Co72 O80 2.055 . S
Co72 O83 2.039 . S
Co72 N86 2.140 . S
C73 O74 1.227 . S
C73 O83 1.265 . S
O74 C73 1.227 . S
N75 Co72 2.121 . S
N75 C77 1.375 . S
N75 C78 1.313 . S
C76 C77 1.338 . S
C76 N79 1.377 . S
C76 H96 0.930 . S
C77 N75 1.375 . S
C77 C76 1.338 . S
C77 H81 0.931 . S
C78 N75 1.313 . S
C78 N79 1.344 . S
C78 H82 0.930 . S
N79 C76 1.377 . S
N79 C78 1.344 . S
O80 Co72 2.055 . S
O80 C84 1.253 . S
H81 C77 0.931 . S
H82 C78 0.930 . S
O83 Co72 2.039 . S
O83 C73 1.265 . S
C84 O80 1.253 . S
C84 O85 1.227 . S
O85 C84 1.227 . S
N86 Co72 2.140 . S
N86 C89 1.346 . S
N86 C90 1.345 1_655 S
C87 C88 1.387 . S
C87 C91 1.391 . S
C88 C87 1.387 . S
C88 C89 1.369 1_455 S
C88 H97 0.929 . S
C89 N86 1.346 . S
C89 C88 1.369 1_655 S
C89 H92 0.928 . S
C90 N86 1.345 1_455 S
C90 C91 1.371 . S
C90 H93 0.931 . S
C91 C87 1.391 . S
C91 C90 1.371 . S
C91 H98 0.930 . S
H92 C89 0.928 . S
H93 C90 0.931 . S
H94 C70 0.930 . S
H95 C67 0.930 . S
H96 C76 0.930 . S
H97 C88 0.929 . S
H98 C91 0.930 . S
C99 C100 1.351 . S
C99 N102 1.368 . S
C99 H104 0.931 . S
C100 C99 1.351 . S
C100 N101 1.373 . S
C100 H128 0.930 . S
N101 C100 1.373 . S
N101 C103 1.340 . S
N102 C99 1.368 . S
N102 C103 1.321 . S
N102 Co105 2.135 . S
C103 N101 1.340 . S
C103 N102 1.321 . S
C103 H127 0.930 . S
H104 C99 0.931 . S
Co105 N102 2.135 . S
Co105 N108 2.121 . S
Co105 O113 2.055 . S
Co105 O116 2.039 . S
Co105 N119 2.140 . S
C106 O107 1.227 . S
C106 O116 1.265 . S
O107 C106 1.227 . S
N108 Co105 2.121 . S
N108 C110 1.375 . S
N108 C111 1.313 . S
C109 C110 1.338 . S
C109 N112 1.377 . S
C109 H129 0.930 . S
C110 N108 1.375 . S
C110 C109 1.338 . S
C110 H114 0.931 . S
C111 N108 1.313 . S
C111 N112 1.344 . S
C111 H115 0.930 . S
N112 C109 1.377 . S
N112 C111 1.344 . S
O113 Co105 2.055 . S
O113 C117 1.253 . S
H114 C110 0.931 . S
H115 C111 0.930 . S
O116 Co105 2.039 . S
O116 C106 1.265 . S
C117 O113 1.253 . S
C117 O118 1.227 . S
O118 C117 1.227 . S
N119 Co105 2.140 . S
N119 C122 1.346 . S
N119 C123 1.345 1_655 S
C120 C121 1.387 . S
C120 C124 1.391 . S
C121 C120 1.387 . S
C121 C122 1.369 1_455 S
C121 H130 0.929 . S
C122 N119 1.346 . S
C122 C121 1.369 1_655 S
C122 H125 0.928 . S
C123 N119 1.345 1_455 S
C123 C124 1.371 . S
C123 H126 0.931 . S
C124 C120 1.391 . S
C124 C123 1.371 . S
C124 H131 0.930 . S
H125 C122 0.928 . S
H126 C123 0.931 . S
H127 C103 0.930 . S
H128 C100 0.930 . S
H129 C109 0.930 . S
H130 C121 0.929 . S
H131 C124 0.930 . S
C132 C133 1.351 . S
C132 N135 1.368 . S
C132 H137 0.931 . S
C133 C132 1.351 . S
C133 N134 1.373 1_554 S
C133 H161 0.930 . S
N134 C133 1.373 1_556 S
N134 C136 1.340 . S
N135 C132 1.368 . S
N135 C136 1.321 1_554 S
N135 Co138 2.135 1_554 S
C136 N134 1.340 . S
C136 N135 1.321 1_556 S
C136 H160 0.930 . S
H137 C132 0.931 . S
Co138 N135 2.135 1_556 S
Co138 N141 2.121 . S
Co138 O146 2.055 1_556 S
Co138 O149 2.039 . S
Co138 N152 2.140 . S
C139 O140 1.227 . S
C139 O149 1.265 . S
O140 C139 1.227 . S
N141 Co138 2.121 . S
N141 C143 1.375 . S
N141 C144 1.313 . S
C142 C143 1.338 . S
C142 N145 1.377 . S
C142 H162 0.930 . S
C143 N141 1.375 . S
C143 C142 1.338 . S
C143 H147 0.931 . S
C144 N141 1.313 . S
C144 N145 1.344 . S
C144 H148 0.930 1_556 S
N145 C142 1.377 . S
N145 C144 1.344 . S
O146 Co138 2.055 1_554 S
O146 C150 1.253 . S
H147 C143 0.931 . S
H148 C144 0.930 1_554 S
O149 Co138 2.039 . S
O149 C139 1.265 . S
C150 O146 1.253 . S
C150 O151 1.227 . S
O151 C150 1.227 . S
N152 Co138 2.140 . S
N152 C155 1.346 . S
N152 C156 1.345 1_455 S
C153 C154 1.387 . S
C153 C157 1.391 . S
C154 C153 1.387 . S
C154 C155 1.369 1_655 S
C154 H163 0.929 . S
C155 N152 1.346 . S
C155 C154 1.369 1_455 S
C155 H158 0.928 . S
C156 N152 1.345 1_655 S
C156 C157 1.371 . S
C156 H159 0.931 . S
C157 C153 1.391 . S
C157 C156 1.371 . S
C157 H164 0.930 . S
H158 C155 0.928 . S
H159 C156 0.931 . S
H160 C136 0.930 . S
H161 C133 0.930 . S
H162 C142 0.930 . S
H163 C154 0.929 . S
H164 C157 0.930 . S
C165 C166 1.351 . S
C165 N168 1.368 . S
C165 H170 0.931 . S
C166 C165 1.351 . S
C166 N167 1.373 . S
C166 H194 0.930 . S
N167 C166 1.373 . S
N167 C169 1.340 . S
N168 C165 1.368 . S
N168 C169 1.321 . S
N168 Co171 2.135 . S
C169 N167 1.340 . S
C169 N168 1.321 . S
C169 H193 0.930 . S
H170 C165 0.931 . S
Co171 N168 2.135 . S
Co171 N174 2.121 . S
Co171 O179 2.055 . S
Co171 O182 2.039 . S
Co171 N185 2.140 . S
C172 O173 1.227 . S
C172 O182 1.265 . S
O173 C172 1.227 . S
N174 Co171 2.121 . S
N174 C176 1.375 . S
N174 C177 1.313 . S
C175 C176 1.338 . S
C175 N178 1.377 . S
C175 H195 0.930 . S
C176 N174 1.375 . S
C176 C175 1.338 . S
C176 H180 0.931 . S
C177 N174 1.313 . S
C177 N178 1.344 . S
C177 H181 0.930 . S
N178 C175 1.377 . S
N178 C177 1.344 . S
O179 Co171 2.055 . S
O179 C183 1.253 . S
H180 C176 0.931 . S
H181 C177 0.930 . S
O182 Co171 2.039 . S
O182 C172 1.265 . S
C183 O179 1.253 . S
C183 O184 1.227 . S
O184 C183 1.227 . S
N185 Co171 2.140 . S
N185 C188 1.346 . S
N185 C189 1.345 1_455 S
C186 C187 1.387 . S
C186 C190 1.391 . S
C187 C186 1.387 . S
C187 C188 1.369 1_655 S
C187 H196 0.929 . S
C188 N185 1.346 . S
C188 C187 1.369 1_455 S
C188 H191 0.928 . S
C189 N185 1.345 1_655 S
C189 C190 1.371 . S
C189 H192 0.931 . S
C190 C186 1.391 . S
C190 C189 1.371 . S
C190 H197 0.930 . S
H191 C188 0.928 . S
H192 C189 0.931 . S
H193 C169 0.930 . S
H194 C166 0.930 . S
H195 C175 0.930 . S
H196 C187 0.929 . S
H197 C190 0.930 . S
C198 C199 1.351 . S
C198 N201 1.368 . S
C198 H203 0.931 . S
C199 C198 1.351 . S
C199 N200 1.373 1_556 S
C199 H227 0.930 . S
N200 C199 1.373 1_554 S
N200 C202 1.340 . S
N201 C198 1.368 . S
N201 C202 1.321 1_556 S
N201 Co204 2.135 1_556 S
C202 N200 1.340 . S
C202 N201 1.321 1_554 S
C202 H226 0.930 . S
H203 C198 0.931 . S
Co204 N201 2.135 1_554 S
Co204 N207 2.121 . S
Co204 O212 2.055 1_554 S
Co204 O215 2.039 . S
Co204 N218 2.140 . S
C205 O206 1.227 . S
C205 O215 1.265 . S
O206 C205 1.227 . S
N207 Co204 2.121 . S
N207 C209 1.375 . S
N207 C210 1.313 . S
C208 C209 1.338 . S
C208 N211 1.377 . S
C208 H228 0.930 . S
C209 N207 1.375 . S
C209 C208 1.338 . S
C209 H213 0.931 . S
C210 N207 1.313 . S
C210 N211 1.344 . S
C210 H214 0.930 1_554 S
N211 C208 1.377 . S
N211 C210 1.344 . S
O212 Co204 2.055 1_556 S
O212 C216 1.253 . S
H213 C209 0.931 . S
H214 C210 0.930 1_556 S
O215 Co204 2.039 . S
O215 C205 1.265 . S
C216 O212 1.253 . S
C216 O217 1.227 . S
O217 C216 1.227 . S
N218 Co204 2.140 . S
N218 C221 1.346 . S
N218 C222 1.345 1_655 S
C219 C220 1.387 . S
C219 C223 1.391 . S
C220 C219 1.387 . S
C220 C221 1.369 1_455 S
C220 H229 0.929 . S
C221 N218 1.346 . S
C221 C220 1.369 1_655 S
C221 H224 0.928 . S
C222 N218 1.345 1_455 S
C222 C223 1.371 . S
C222 H225 0.931 . S
C223 C219 1.391 . S
C223 C222 1.371 . S
C223 H230 0.930 . S
H224 C221 0.928 . S
H225 C222 0.931 . S
H226 C202 0.930 . S
H227 C199 0.930 . S
H228 C208 0.930 . S
H229 C220 0.929 . S
H230 C223 0.930 . S
C231 C232 1.351 . S
C231 N234 1.368 . S
C231 H236 0.931 . S
C232 C231 1.351 . S
C232 N233 1.373 . S
C232 H260 0.930 . S
N233 C232 1.373 . S
N233 C235 1.340 . S
N234 C231 1.368 . S
N234 C235 1.321 . S
N234 Co237 2.135 . S
C235 N233 1.340 . S
C235 N234 1.321 . S
C235 H259 0.930 . S
H236 C231 0.931 . S
Co237 N234 2.135 . S
Co237 N240 2.121 . S
Co237 O245 2.055 . S
Co237 O248 2.039 . S
Co237 N251 2.140 . S
C238 O239 1.227 . S
C238 O248 1.265 . S
O239 C238 1.227 . S
N240 Co237 2.121 . S
N240 C242 1.375 . S
N240 C243 1.313 . S
C241 C242 1.338 . S
C241 N244 1.377 . S
C241 H261 0.930 . S
C242 N240 1.375 . S
C242 C241 1.338 . S
C242 H246 0.931 . S
C243 N240 1.313 . S
C243 N244 1.344 . S
C243 H247 0.930 . S
N244 C241 1.377 . S
N244 C243 1.344 . S
O245 Co237 2.055 . S
O245 C249 1.253 . S
H246 C242 0.931 . S
H247 C243 0.930 . S
O248 Co237 2.039 . S
O248 C238 1.265 . S
C249 O245 1.253 . S
C249 O250 1.227 . S
O250 C249 1.227 . S
N251 Co237 2.140 . S
N251 C254 1.346 . S
N251 C255 1.345 1_655 S
C252 C253 1.387 . S
C252 C256 1.391 . S
C253 C252 1.387 . S
C253 C254 1.369 1_455 S
C253 H262 0.929 . S
C254 N251 1.346 . S
C254 C253 1.369 1_655 S
C254 H257 0.928 . S
C255 N251 1.345 1_455 S
C255 C256 1.371 . S
C255 H258 0.931 . S
C256 C252 1.391 . S
C256 C255 1.371 . S
C256 H263 0.930 . S
H257 C254 0.928 . S
H258 C255 0.931 . S
H259 C235 0.930 . S
H260 C232 0.930 . S
H261 C241 0.930 . S
H262 C253 0.929 . S
H263 C256 0.930 . S
C264 C265 1.351 . S
C264 N267 1.368 . S
C264 H269 0.931 . S
C265 C264 1.351 . S
C265 N266 1.373 1_554 S
C265 H293 0.930 . S
N266 C265 1.373 1_556 S
N266 C268 1.340 . S
N267 C264 1.368 . S
N267 C268 1.321 1_554 S
N267 Co270 2.135 1_554 S
C268 N266 1.340 . S
C268 N267 1.321 1_556 S
C268 H292 0.930 . S
H269 C264 0.931 . S
Co270 N267 2.135 1_556 S
Co270 N273 2.121 . S
Co270 O278 2.055 1_556 S
Co270 O281 2.039 . S
Co270 N284 2.140 . S
C271 O272 1.227 . S
C271 O281 1.265 . S
O272 C271 1.227 . S
N273 Co270 2.121 . S
N273 C275 1.375 . S
N273 C276 1.313 . S
C274 C275 1.338 . S
C274 N277 1.377 . S
C274 H294 0.930 . S
C275 N273 1.375 . S
C275 C274 1.338 . S
C275 H279 0.931 . S
C276 N273 1.313 . S
C276 N277 1.344 . S
C276 H280 0.930 1_556 S
N277 C274 1.377 . S
N277 C276 1.344 . S
O278 Co270 2.055 1_554 S
O278 C282 1.253 . S
H279 C275 0.931 . S
H280 C276 0.930 1_554 S
O281 Co270 2.039 . S
O281 C271 1.265 . S
C282 O278 1.253 . S
C282 O283 1.227 . S
O283 C282 1.227 . S
N284 Co270 2.140 . S
N284 C287 1.346 . S
N284 C288 1.345 . S
C285 C286 1.387 . S
C285 C289 1.391 . S
C286 C285 1.387 . S
C286 C287 1.369 . S
C286 H295 0.929 . S
C287 N284 1.346 . S
C287 C286 1.369 . S
C287 H290 0.928 . S
C288 N284 1.345 . S
C288 C289 1.371 . S
C288 H291 0.931 . S
C289 C285 1.391 . S
C289 C288 1.371 . S
C289 H296 0.930 . S
H290 C287 0.928 . S
H291 C288 0.931 . S
H292 C268 0.930 . S
H293 C265 0.930 . S
H294 C274 0.930 . S
H295 C286 0.929 . S
H296 C289 0.930 . S
C297 C298 1.351 . S
C297 N300 1.368 . S
C297 H302 0.931 . S
C298 C297 1.351 . S
C298 N299 1.373 . S
C298 H326 0.930 . S
N299 C298 1.373 . S
N299 C301 1.340 . S
N300 C297 1.368 . S
N300 C301 1.321 . S
N300 Co303 2.135 . S
C301 N299 1.340 . S
C301 N300 1.321 . S
C301 H325 0.930 . S
H302 C297 0.931 . S
Co303 N300 2.135 . S
Co303 N306 2.121 . S
Co303 O311 2.055 . S
Co303 O314 2.039 . S
Co303 N317 2.140 . S
C304 O305 1.227 . S
C304 O314 1.265 . S
O305 C304 1.227 . S
N306 Co303 2.121 . S
N306 C308 1.375 . S
N306 C309 1.313 . S
C307 C308 1.338 . S
C307 N310 1.377 . S
C307 H327 0.930 . S
C308 N306 1.375 . S
C308 C307 1.338 . S
C308 H312 0.931 . S
C309 N306 1.313 . S
C309 N310 1.344 . S
C309 H313 0.930 . S
N310 C307 1.377 . S
N310 C309 1.344 . S
O311 Co303 2.055 . S
O311 C315 1.253 . S
H312 C308 0.931 . S
H313 C309 0.930 . S
O314 Co303 2.039 . S
O314 C304 1.265 . S
C315 O311 1.253 . S
C315 O316 1.227 . S
O316 C315 1.227 . S
N317 Co303 2.140 . S
N317 C320 1.346 . S
N317 C321 1.345 . S
C318 C319 1.387 . S
C318 C322 1.391 . S
C319 C318 1.387 . S
C319 C320 1.369 . S
C319 H328 0.929 . S
C320 N317 1.346 . S
C320 C319 1.369 . S
C320 H323 0.928 . S
C321 N317 1.345 . S
C321 C322 1.371 . S
C321 H324 0.931 . S
C322 C318 1.391 . S
C322 C321 1.371 . S
C322 H329 0.930 . S
H323 C320 0.928 . S
H324 C321 0.931 . S
H325 C301 0.930 . S
H326 C298 0.930 . S
H327 C307 0.930 . S
H328 C319 0.929 . S
H329 C322 0.930 . S
C330 C331 1.351 . S
C330 N333 1.368 . S
C330 H335 0.931 . S
C331 C330 1.351 . S
C331 N332 1.373 1_556 S
C331 H359 0.930 . S
N332 C331 1.373 1_554 S
N332 C334 1.340 . S
N333 C330 1.368 . S
N333 C334 1.321 1_556 S
N333 Co336 2.135 1_556 S
C334 N332 1.340 . S
C334 N333 1.321 1_554 S
C334 H358 0.930 . S
H335 C330 0.931 . S
Co336 N333 2.135 1_554 S
Co336 N339 2.121 . S
Co336 O344 2.055 1_554 S
Co336 O347 2.039 . S
Co336 N350 2.140 . S
C337 O338 1.227 . S
C337 O347 1.265 . S
O338 C337 1.227 . S
N339 Co336 2.121 . S
N339 C341 1.375 . S
N339 C342 1.313 . S
C340 C341 1.338 . S
C340 N343 1.377 . S
C340 H360 0.930 . S
C341 N339 1.375 . S
C341 C340 1.338 . S
C341 H345 0.931 . S
C342 N339 1.313 . S
C342 N343 1.344 . S
C342 H346 0.930 1_554 S
N343 C340 1.377 . S
N343 C342 1.344 . S
O344 Co336 2.055 1_556 S
O344 C348 1.253 . S
H345 C341 0.931 . S
H346 C342 0.930 1_556 S
O347 Co336 2.039 . S
O347 C337 1.265 . S
C348 O344 1.253 . S
C348 O349 1.227 . S
O349 C348 1.227 . S
N350 Co336 2.140 . S
N350 C353 1.346 . S
N350 C354 1.345 . S
C351 C352 1.387 . S
C351 C355 1.391 . S
C352 C351 1.387 . S
C352 C353 1.369 . S
C352 H361 0.929 . S
C353 N350 1.346 . S
C353 C352 1.369 . S
C353 H356 0.928 . S
C354 N350 1.345 . S
C354 C355 1.371 . S
C354 H357 0.931 . S
C355 C351 1.391 . S
C355 C354 1.371 . S
C355 H362 0.930 . S
H356 C353 0.928 . S
H357 C354 0.931 . S
H358 C334 0.930 . S
H359 C331 0.930 . S
H360 C340 0.930 . S
H361 C352 0.929 . S
H362 C355 0.930 . S
C363 C364 1.351 . S
C363 N366 1.368 . S
C363 H368 0.931 . S
C364 C363 1.351 . S
C364 N365 1.373 . S
C364 H392 0.930 . S
N365 C364 1.373 . S
N365 C367 1.340 . S
N366 C363 1.368 . S
N366 C367 1.321 . S
N366 Co369 2.135 . S
C367 N365 1.340 . S
C367 N366 1.321 . S
C367 H391 0.930 . S
H368 C363 0.931 . S
Co369 N366 2.135 . S
Co369 N372 2.121 . S
Co369 O377 2.055 . S
Co369 O380 2.039 . S
Co369 N383 2.140 . S
C370 O371 1.227 . S
C370 O380 1.265 . S
O371 C370 1.227 . S
N372 Co369 2.121 . S
N372 C374 1.375 . S
N372 C375 1.313 . S
C373 C374 1.338 . S
C373 N376 1.377 . S
C373 H393 0.930 . S
C374 N372 1.375 . S
C374 C373 1.338 . S
C374 H378 0.931 . S
C375 N372 1.313 . S
C375 N376 1.344 . S
C375 H379 0.930 . S
N376 C373 1.377 . S
N376 C375 1.344 . S
O377 Co369 2.055 . S
O377 C381 1.253 . S
H378 C374 0.931 . S
H379 C375 0.930 . S
O380 Co369 2.039 . S
O380 C370 1.265 . S
C381 O377 1.253 . S
C381 O382 1.227 . S
O382 C381 1.227 . S
N383 Co369 2.140 . S
N383 C386 1.346 . S
N383 C387 1.345 . S
C384 C385 1.387 . S
C384 C388 1.391 . S
C385 C384 1.387 . S
C385 C386 1.369 . S
C385 H394 0.929 . S
C386 N383 1.346 . S
C386 C385 1.369 . S
C386 H389 0.928 . S
C387 N383 1.345 . S
C387 C388 1.371 . S
C387 H390 0.931 . S
C388 C384 1.391 . S
C388 C387 1.371 . S
C388 H395 0.930 . S
H389 C386 0.928 . S
H390 C387 0.931 . S
H391 C367 0.930 . S
H392 C364 0.930 . S
H393 C373 0.930 . S
H394 C385 0.929 . S
H395 C388 0.930 . S
C396 C397 1.351 . S
C396 N399 1.368 . S
C396 H401 0.931 . S
C397 C396 1.351 . S
C397 N398 1.373 . S
C397 H425 0.930 . S
N398 C397 1.373 . S
N398 C400 1.340 . S
N399 C396 1.368 . S
N399 C400 1.321 . S
N399 Co402 2.135 . S
C400 N398 1.340 . S
C400 N399 1.321 . S
C400 H424 0.930 . S
H401 C396 0.931 . S
Co402 N399 2.135 . S
Co402 N405 2.121 . S
Co402 O410 2.055 . S
Co402 O413 2.039 . S
Co402 N416 2.140 . S
C403 O404 1.227 . S
C403 O413 1.265 . S
O404 C403 1.227 . S
N405 Co402 2.121 . S
N405 C407 1.375 . S
N405 C408 1.313 . S
C406 C407 1.338 . S
C406 N409 1.377 . S
C406 H426 0.930 . S
C407 N405 1.375 . S
C407 C406 1.338 . S
C407 H411 0.931 . S
C408 N405 1.313 . S
C408 N409 1.344 . S
C408 H412 0.930 . S
N409 C406 1.377 . S
N409 C408 1.344 . S
O410 Co402 2.055 . S
O410 C414 1.253 . S
H411 C407 0.931 . S
H412 C408 0.930 . S
O413 Co402 2.039 . S
O413 C403 1.265 . S
C414 O410 1.253 . S
C414 O415 1.227 . S
O415 C414 1.227 . S
N416 Co402 2.140 . S
N416 C419 1.346 . S
N416 C420 1.345 . S
C417 C418 1.387 . S
C417 C421 1.391 . S
C418 C417 1.387 . S
C418 C419 1.369 . S
C418 H427 0.929 . S
C419 N416 1.346 . S
C419 C418 1.369 . S
C419 H422 0.928 . S
C420 N416 1.345 . S
C420 C421 1.371 . S
C420 H423 0.931 . S
C421 C417 1.391 . S
C421 C420 1.371 . S
C421 H428 0.930 . S
H422 C419 0.928 . S
H423 C420 0.931 . S
H424 C400 0.930 . S
H425 C397 0.930 . S
H426 C406 0.930 . S
H427 C418 0.929 . S
H428 C421 0.930 . S
C429 C430 1.351 . S
C429 N432 1.368 . S
C429 H434 0.931 . S
C430 C429 1.351 . S
C430 N431 1.373 . S
C430 H458 0.930 . S
N431 C430 1.373 . S
N431 C433 1.340 . S
N432 C429 1.368 . S
N432 C433 1.321 . S
N432 Co435 2.135 . S
C433 N431 1.340 . S
C433 N432 1.321 . S
C433 H457 0.930 . S
H434 C429 0.931 . S
Co435 N432 2.135 . S
Co435 N438 2.121 . S
Co435 O443 2.055 . S
Co435 O446 2.039 . S
Co435 N449 2.140 . S
C436 O437 1.227 . S
C436 O446 1.265 . S
O437 C436 1.227 . S
N438 Co435 2.121 . S
N438 C440 1.375 . S
N438 C441 1.313 . S
C439 C440 1.338 . S
C439 N442 1.377 . S
C439 H459 0.930 . S
C440 N438 1.375 . S
C440 C439 1.338 . S
C440 H444 0.931 . S
C441 N438 1.313 . S
C441 N442 1.344 . S
C441 H445 0.930 . S
N442 C439 1.377 . S
N442 C441 1.344 . S
O443 Co435 2.055 . S
O443 C447 1.253 . S
H444 C440 0.931 . S
H445 C441 0.930 . S
O446 Co435 2.039 . S
O446 C436 1.265 . S
C447 O443 1.253 . S
C447 O448 1.227 . S
O448 C447 1.227 . S
N449 Co435 2.140 . S
N449 C452 1.346 . S
N449 C453 1.345 . S
C450 C451 1.387 . S
C450 C454 1.391 . S
C451 C450 1.387 . S
C451 C452 1.369 . S
C451 H460 0.929 . S
C452 N449 1.346 . S
C452 C451 1.369 . S
C452 H455 0.928 . S
C453 N449 1.345 . S
C453 C454 1.371 . S
C453 H456 0.931 . S
C454 C450 1.391 . S
C454 C453 1.371 . S
C454 H461 0.930 . S
H455 C452 0.928 . S
H456 C453 0.931 . S
H457 C433 0.930 . S
H458 C430 0.930 . S
H459 C439 0.930 . S
H460 C451 0.929 . S
H461 C454 0.930 . S
C462 C463 1.351 . S
C462 N465 1.368 . S
C462 H467 0.931 . S
C463 C462 1.351 . S
C463 N464 1.373 . S
C463 H491 0.930 . S
N464 C463 1.373 . S
N464 C466 1.340 . S
N465 C462 1.368 . S
N465 C466 1.321 . S
N465 Co468 2.135 . S
C466 N464 1.340 . S
C466 N465 1.321 . S
C466 H490 0.930 . S
H467 C462 0.931 . S
Co468 N465 2.135 . S
Co468 N471 2.121 . S
Co468 O476 2.055 . S
Co468 O479 2.039 . S
Co468 N482 2.140 . S
C469 O470 1.227 . S
C469 O479 1.265 . S
O470 C469 1.227 . S
N471 Co468 2.121 . S
N471 C473 1.375 . S
N471 C474 1.313 . S
C472 C473 1.338 . S
C472 N475 1.377 . S
C472 H492 0.930 . S
C473 N471 1.375 . S
C473 C472 1.338 . S
C473 H477 0.931 . S
C474 N471 1.313 . S
C474 N475 1.344 . S
C474 H478 0.930 . S
N475 C472 1.377 . S
N475 C474 1.344 . S
O476 Co468 2.055 . S
O476 C480 1.253 . S
H477 C473 0.931 . S
H478 C474 0.930 . S
O479 Co468 2.039 . S
O479 C469 1.265 . S
C480 O476 1.253 . S
C480 O481 1.227 . S
O481 C480 1.227 . S
N482 Co468 2.140 . S
N482 C485 1.346 . S
N482 C486 1.345 . S
C483 C484 1.387 . S
C483 C487 1.391 . S
C484 C483 1.387 . S
C484 C485 1.369 . S
C484 H493 0.929 . S
C485 N482 1.346 . S
C485 C484 1.369 . S
C485 H488 0.928 . S
C486 N482 1.345 . S
C486 C487 1.371 . S
C486 H489 0.931 . S
C487 C483 1.391 . S
C487 C486 1.371 . S
C487 H494 0.930 . S
H488 C485 0.928 . S
H489 C486 0.931 . S
H490 C466 0.930 . S
H491 C463 0.930 . S
H492 C472 0.930 . S
H493 C484 0.929 . S
H494 C487 0.930 . S
C495 C496 1.351 . S
C495 N498 1.368 . S
C495 H500 0.931 . S
C496 C495 1.351 . S
C496 N497 1.373 . S
C496 H524 0.930 . S
N497 C496 1.373 . S
N497 C499 1.340 . S
N498 C495 1.368 . S
N498 C499 1.321 . S
N498 Co501 2.135 . S
C499 N497 1.340 . S
C499 N498 1.321 . S
C499 H523 0.930 . S
H500 C495 0.931 . S
Co501 N498 2.135 . S
Co501 N504 2.121 . S
Co501 O509 2.055 . S
Co501 O512 2.039 . S
Co501 N515 2.140 . S
C502 O503 1.227 . S
C502 O512 1.265 . S
O503 C502 1.227 . S
N504 Co501 2.121 . S
N504 C506 1.375 . S
N504 C507 1.313 . S
C505 C506 1.338 . S
C505 N508 1.377 . S
C505 H525 0.930 . S
C506 N504 1.375 . S
C506 C505 1.338 . S
C506 H510 0.931 . S
C507 N504 1.313 . S
C507 N508 1.344 . S
C507 H511 0.930 . S
N508 C505 1.377 . S
N508 C507 1.344 . S
O509 Co501 2.055 . S
O509 C513 1.253 . S
H510 C506 0.931 . S
H511 C507 0.930 . S
O512 Co501 2.039 . S
O512 C502 1.265 . S
C513 O509 1.253 . S
C513 O514 1.227 . S
O514 C513 1.227 . S
N515 Co501 2.140 . S
N515 C518 1.346 . S
N515 C519 1.345 . S
C516 C517 1.387 . S
C516 C520 1.391 . S
C517 C516 1.387 . S
C517 C518 1.369 . S
C517 H526 0.929 . S
C518 N515 1.346 . S
C518 C517 1.369 . S
C518 H521 0.928 . S
C519 N515 1.345 . S
C519 C520 1.371 . S
C519 H522 0.931 . S
C520 C516 1.391 . S
C520 C519 1.371 . S
C520 H527 0.930 . S
H521 C518 0.928 . S
H522 C519 0.931 . S
H523 C499 0.930 . S
H524 C496 0.930 . S
H525 C505 0.930 . S
H526 C517 0.929 . S
H527 C520 0.930 . S
C528 C529 1.387 . S
C528 H532 0.950 . S
C528 C537 1.390 . S
C529 C528 1.387 . S
C529 C531 1.387 . S
H530 C537 0.950 . S
C531 C529 1.387 . S
C531 C533 1.390 . S
C531 H535 0.950 . S
H532 C528 0.950 . S
C533 C531 1.390 . S
C533 C534 1.387 . S
C533 H536 0.950 . S
C534 C533 1.387 . S
C534 C537 1.387 . S
H535 C531 0.950 . S
H536 C533 0.950 . S
C537 C528 1.390 . S
C537 H530 0.950 . S
C537 C534 1.387 . S
C538 C539 1.387 . S
C538 H542 0.950 . S
C538 C547 1.390 1_665 S
C539 C538 1.387 . S
C539 C541 1.387 . S
H540 C547 0.950 . S
C541 C539 1.387 . S
C541 C543 1.390 1_665 S
C541 H545 0.950 . S
H542 C538 0.950 . S
C543 C541 1.390 1_445 S
C543 C544 1.387 . S
C543 H546 0.950 . S
C544 C543 1.387 . S
C544 C547 1.387 . S
H545 C541 0.950 . S
H546 C543 0.950 . S
C547 C538 1.390 1_445 S
C547 H540 0.950 . S
C547 C544 1.387 . S
C548 C549 1.387 . S
C548 H552 0.950 . S
C548 C557 1.390 1_545 S
C549 C548 1.387 . S
C549 C551 1.387 . S
H550 C557 0.950 . S
C551 C549 1.387 . S
C551 C553 1.390 1_545 S
C551 H555 0.950 . S
H552 C548 0.950 . S
C553 C551 1.390 1_565 S
C553 C554 1.387 . S
C553 H556 0.950 . S
C554 C553 1.387 . S
C554 C557 1.387 . S
H555 C551 0.950 . S
H556 C553 0.950 . S
C557 C548 1.390 1_565 S
C557 H550 0.950 . S
C557 C554 1.387 . S
C558 C559 1.387 1_455 S
C558 H562 0.950 . S
C558 C567 1.390 . S
C559 C558 1.387 1_655 S
C559 C561 1.387 . S
H560 C567 0.950 . S
C561 C559 1.387 . S
C561 C563 1.390 . S
C561 H565 0.950 . S
H562 C558 0.950 . S
C563 C561 1.390 . S
C563 C564 1.387 1_655 S
C563 H566 0.950 . S
C564 C563 1.387 1_455 S
C564 C567 1.387 . S
H565 C561 0.950 . S
H566 C563 0.950 . S
C567 C558 1.390 . S
C567 H560 0.950 . S
C567 C564 1.387 . S
C568 C569 1.387 . S
C568 H572 0.950 . S
C568 C577 1.390 . S
C569 C568 1.387 . S
C569 C571 1.387 . S
H570 C577 0.950 . S
C571 C569 1.387 . S
C571 C573 1.390 . S
C571 H575 0.950 . S
H572 C568 0.950 . S
C573 C571 1.390 . S
C573 C574 1.387 . S
C573 H576 0.950 . S
C574 C573 1.387 . S
C574 C577 1.387 . S
H575 C571 0.950 . S
H576 C573 0.950 . S
C577 C568 1.390 . S
C577 H570 0.950 . S
C577 C574 1.387 . S
C578 C579 1.387 . S
C578 H582 0.950 . S
C578 C587 1.390 1_565 S
C579 C578 1.387 . S
C579 C581 1.387 . S
H580 C587 0.950 . S
C581 C579 1.387 . S
C581 C583 1.390 1_565 S
C581 H585 0.950 . S
H582 C578 0.950 . S
C583 C581 1.390 1_545 S
C583 C584 1.387 . S
C583 H586 0.950 . S
C584 C583 1.387 . S
C584 C587 1.387 . S
H585 C581 0.950 . S
H586 C583 0.950 . S
C587 C578 1.390 1_545 S
C587 H580 0.950 . S
C587 C584 1.387 . S
C588 C589 1.387 1_455 S
C588 H592 0.950 . S
C588 C597 1.390 . S
C589 C588 1.387 1_655 S
C589 C591 1.387 . S
H590 C597 0.950 . S
C591 C589 1.387 . S
C591 C593 1.390 . S
C591 H595 0.950 . S
H592 C588 0.950 . S
C593 C591 1.390 . S
C593 C594 1.387 1_655 S
C593 H596 0.950 . S
C594 C593 1.387 1_455 S
C594 C597 1.387 . S
H595 C591 0.950 . S
H596 C593 0.950 . S
C597 C588 1.390 . S
C597 H590 0.950 . S
C597 C594 1.387 . S
C598 C599 1.387 . S
C598 H602 0.950 . S
C598 C607 1.390 . S
C599 C598 1.387 . S
C599 C601 1.387 1_554 S
H600 C607 0.950 . S
C601 C599 1.387 1_556 S
C601 C603 1.390 . S
C601 H605 0.950 . S
H602 C598 0.950 . S
C603 C601 1.390 . S
C603 C604 1.387 . S
C603 H606 0.950 . S
C604 C603 1.387 . S
C604 C607 1.387 1_556 S
H605 C601 0.950 . S
H606 C603 0.950 . S
C607 C598 1.390 . S
C607 H600 0.950 . S
C607 C604 1.387 1_554 S
C608 C609 1.387 1_556 S
C608 H612 0.950 . S
C608 C617 1.390 . S
C609 C608 1.387 1_554 S
C609 C611 1.387 1_655 S
H610 C617 0.950 . S
C611 C609 1.387 1_455 S
C611 C613 1.390 . S
C611 H615 0.950 . S
H612 C608 0.950 . S
C613 C611 1.390 . S
C613 C614 1.387 1_554 S
C613 H616 0.950 . S
C614 C613 1.387 1_556 S
C614 C617 1.387 1_455 S
H615 C611 0.950 . S
H616 C613 0.950 . S
C617 C608 1.390 . S
C617 H610 0.950 . S
C617 C614 1.387 1_655 S
C618 C619 1.387 . S
C618 H622 0.950 . S
C618 C627 1.390 . S
C619 C618 1.387 . S
C619 C621 1.387 . S
H620 C627 0.950 . S
C621 C619 1.387 . S
C621 C623 1.390 . S
C621 H625 0.950 . S
H622 C618 0.950 . S
C623 C621 1.390 . S
C623 C624 1.387 . S
C623 H626 0.950 . S
C624 C623 1.387 . S
C624 C627 1.387 . S
H625 C621 0.950 . S
H626 C623 0.950 . S
C627 C618 1.390 . S
C627 H620 0.950 . S
C627 C624 1.387 . S
C628 C629 1.387 . S
C628 H632 0.950 . S
C628 C637 1.390 . S
C629 C628 1.387 . S
C629 C631 1.387 1_556 S
H630 C637 0.950 . S
C631 C629 1.387 1_554 S
C631 C633 1.390 . S
C631 H635 0.950 . S
H632 C628 0.950 . S
C633 C631 1.390 . S
C633 C634 1.387 . S
C633 H636 0.950 . S
C634 C633 1.387 . S
C634 C637 1.387 1_554 S
H635 C631 0.950 . S
H636 C633 0.950 . S
C637 C628 1.390 . S
C637 H630 0.950 . S
C637 C634 1.387 1_556 S
C638 C639 1.387 . S
C638 H642 0.950 . S
C638 C647 1.390 . S
C639 C638 1.387 . S
C639 C641 1.387 . S
H640 C647 0.950 . S
C641 C639 1.387 . S
C641 C643 1.390 . S
C641 H645 0.950 . S
H642 C638 0.950 . S
C643 C641 1.390 . S
C643 C644 1.387 . S
C643 H646 0.950 . S
C644 C643 1.387 . S
C644 C647 1.387 . S
H645 C641 0.950 . S
H646 C643 0.950 . S
C647 C638 1.390 . S
C647 H640 0.950 . S
C647 C644 1.387 . S
C648 C649 1.387 1_554 S
C648 H652 0.950 . S
C648 C657 1.390 . S
C649 C648 1.387 1_556 S
C649 C651 1.387 1_545 S
H650 C657 0.950 . S
C651 C649 1.387 1_565 S
C651 C653 1.390 . S
C651 H655 0.950 . S
H652 C648 0.950 . S
C653 C651 1.390 . S
C653 C654 1.387 1_556 S
C653 H656 0.950 . S
C654 C653 1.387 1_554 S
C654 C657 1.387 1_565 S
H655 C651 0.950 . S
H656 C653 0.950 . S
C657 C648 1.390 . S
C657 H650 0.950 . S
C657 C654 1.387 1_545 S
C658 C659 1.387 . S
C658 H662 0.950 . S
C658 C667 1.390 . S
C659 C658 1.387 . S
C659 C661 1.387 . S
H660 C667 0.950 . S
C661 C659 1.387 . S
C661 C663 1.390 . S
C661 H665 0.950 . S
H662 C658 0.950 . S
C663 C661 1.390 . S
C663 C664 1.387 . S
C663 H666 0.950 . S
C664 C663 1.387 . S
C664 C667 1.387 . S
H665 C661 0.950 . S
H666 C663 0.950 . S
C667 C658 1.390 . S
C667 H660 0.950 . S
C667 C664 1.387 . S
C668 C669 1.387 . S
C668 H672 0.950 . S
C668 C677 1.390 . S
C669 C668 1.387 . S
C669 C671 1.387 . S
H670 C677 0.950 . S
C671 C669 1.387 . S
C671 C673 1.390 . S
C671 H675 0.950 . S
H672 C668 0.950 . S
C673 C671 1.390 . S
C673 C674 1.387 . S
C673 H676 0.950 . S
C674 C673 1.387 . S
C674 C677 1.387 . S
H675 C671 0.950 . S
H676 C673 0.950 . S
C677 C668 1.390 . S
C677 H670 0.950 . S
C677 C674 1.387 . S
C678 C679 1.387 . S
C678 H682 0.950 . S
C678 C687 1.390 . S
C679 C678 1.387 . S
C679 C681 1.387 . S
H680 C687 0.950 . S
C681 C679 1.387 . S
C681 C683 1.390 . S
C681 H685 0.950 . S
H682 C678 0.950 . S
C683 C681 1.390 . S
C683 C684 1.387 . S
C683 H686 0.950 . S
C684 C683 1.387 . S
C684 C687 1.387 . S
H685 C681 0.950 . S
H686 C683 0.950 . S
C687 C678 1.390 . S
C687 H680 0.950 . S
C687 C684 1.387 . S
C688 C689 1.387 . S
C688 H692 0.950 . S
C688 C697 1.390 . S
C689 C688 1.387 . S
C689 C691 1.387 . S
H690 C697 0.950 . S
C691 C689 1.387 . S
C691 C693 1.390 . S
C691 H695 0.950 . S
H692 C688 0.950 . S
C693 C691 1.390 . S
C693 C694 1.387 . S
C693 H696 0.950 . S
C694 C693 1.387 . S
C694 C697 1.387 . S
H695 C691 0.950 . S
H696 C693 0.950 . S
C697 C688 1.390 . S
C697 H690 0.950 . S
C697 C694 1.387 . S
C698 C699 1.387 . S
C698 H702 0.950 . S
C698 C707 1.390 . S
C699 C698 1.387 . S
C699 C701 1.387 . S
H700 C707 0.950 . S
C701 C699 1.387 . S
C701 C703 1.390 . S
C701 H705 0.950 . S
H702 C698 0.950 . S
C703 C701 1.390 . S
C703 C704 1.387 . S
C703 H706 0.950 . S
C704 C703 1.387 . S
C704 C707 1.387 . S
H705 C701 0.950 . S
H706 C703 0.950 . S
C707 C698 1.390 . S
C707 H700 0.950 . S
C707 C704 1.387 . S
C708 C709 1.387 . S
C708 H712 0.950 . S
C708 C717 1.390 . S
C709 C708 1.387 . S
C709 C711 1.387 . S
H710 C717 0.950 . S
C711 C709 1.387 . S
C711 C713 1.390 . S
C711 H715 0.950 . S
H712 C708 0.950 . S
C713 C711 1.390 . S
C713 C714 1.387 . S
C713 H716 0.950 . S
C714 C713 1.387 . S
C714 C717 1.387 . S
H715 C711 0.950 . S
H716 C713 0.950 . S
C717 C708 1.390 . S
C717 H710 0.950 . S
C717 C714 1.387 . S
C718 C719 1.387 . S
C718 H722 0.950 . S
C718 C727 1.390 . S
C719 C718 1.387 . S
C719 C721 1.387 . S
H720 C727 0.950 . S
C721 C719 1.387 . S
C721 C723 1.390 . S
C721 H725 0.950 . S
H722 C718 0.950 . S
C723 C721 1.390 . S
C723 C724 1.387 . S
C723 H726 0.950 . S
C724 C723 1.387 . S
C724 C727 1.387 . S
H725 C721 0.950 . S
H726 C723 0.950 . S
C727 C718 1.390 . S
C727 H720 0.950 . S
C727 C724 1.387 . S
C728 C729 1.387 . S
C728 H732 0.950 . S
C728 C737 1.390 . S
C729 C728 1.387 . S
C729 C731 1.387 . S
H730 C737 0.950 . S
C731 C729 1.387 . S
C731 C733 1.390 . S
C731 H735 0.950 . S
H732 C728 0.950 . S
C733 C731 1.390 . S
C733 C734 1.387 . S
C733 H736 0.950 . S
C734 C733 1.387 . S
C734 C737 1.387 . S
H735 C731 0.950 . S
H736 C733 0.950 . S
C737 C728 1.390 . S
C737 H730 0.950 . S
C737 C734 1.387 . S
C738 C739 1.387 . S
C738 H742 0.950 . S
C738 C747 1.390 . S
C739 C738 1.387 . S
C739 C741 1.387 . S
H740 C747 0.950 . S
C741 C739 1.387 . S
C741 C743 1.390 . S
C741 H745 0.950 . S
H742 C738 0.950 . S
C743 C741 1.390 . S
C743 C744 1.387 . S
C743 H746 0.950 . S
C744 C743 1.387 . S
C744 C747 1.387 . S
H745 C741 0.950 . S
H746 C743 0.950 . S
C747 C738 1.390 . S
C747 H740 0.950 . S
C747 C744 1.387 . S
C748 C749 1.387 . S
C748 H752 0.950 . S
C748 C757 1.390 . S
C749 C748 1.387 . S
C749 C751 1.387 . S
H750 C757 0.950 . S
C751 C749 1.387 . S
C751 C753 1.390 . S
C751 H755 0.950 . S
H752 C748 0.950 . S
C753 C751 1.390 . S
C753 C754 1.387 . S
C753 H756 0.950 . S
C754 C753 1.387 . S
C754 C757 1.387 . S
H755 C751 0.950 . S
H756 C753 0.950 . S
C757 C748 1.390 . S
C757 H750 0.950 . S
C757 C754 1.387 . S
C758 C759 1.387 . S
C758 H762 0.950 . S
C758 C767 1.390 . S
C759 C758 1.387 . S
C759 C761 1.387 . S
H760 C767 0.950 . S
C761 C759 1.387 . S
C761 C763 1.390 . S
C761 H765 0.950 . S
H762 C758 0.950 . S
C763 C761 1.390 . S
C763 C764 1.387 . S
C763 H766 0.950 . S
C764 C763 1.387 . S
C764 C767 1.387 . S
H765 C761 0.950 . S
H766 C763 0.950 . S
C767 C758 1.390 . S
C767 H760 0.950 . S
C767 C764 1.387 . S
C768 C769 1.387 . S
C768 H772 0.950 . S
C768 C777 1.390 . S
C769 C768 1.387 . S
C769 C771 1.387 . S
H770 C777 0.950 . S
C771 C769 1.387 . S
C771 C773 1.390 . S
C771 H775 0.950 . S
H772 C768 0.950 . S
C773 C771 1.390 . S
C773 C774 1.387 . S
C773 H776 0.950 . S
C774 C773 1.387 . S
C774 C777 1.387 . S
H775 C771 0.950 . S
H776 C773 0.950 . S
C777 C768 1.390 . S
C777 H770 0.950 . S
C777 C774 1.387 . S
C778 C779 1.387 . S
C778 H782 0.950 . S
C778 C787 1.390 . S
C779 C778 1.387 . S
C779 C781 1.387 . S
H780 C787 0.950 . S
C781 C779 1.387 . S
C781 C783 1.390 . S
C781 H785 0.950 . S
H782 C778 0.950 . S
C783 C781 1.390 . S
C783 C784 1.387 . S
C783 H786 0.950 . S
C784 C783 1.387 . S
C784 C787 1.387 . S
H785 C781 0.950 . S
H786 C783 0.950 . S
C787 C778 1.390 . S
C787 H780 0.950 . S
C787 C784 1.387 . S
C788 C789 1.387 . S
C788 H792 0.950 . S
C788 C797 1.390 . S
C789 C788 1.387 . S
C789 C791 1.387 . S
H790 C797 0.950 . S
C791 C789 1.387 . S
C791 C793 1.390 . S
C791 H795 0.950 . S
H792 C788 0.950 . S
C793 C791 1.390 . S
C793 C794 1.387 . S
C793 H796 0.950 . S
C794 C793 1.387 . S
C794 C797 1.387 . S
H795 C791 0.950 . S
H796 C793 0.950 . S
C797 C788 1.390 . S
C797 H790 0.950 . S
C797 C794 1.387 . S
C798 C799 1.387 . S
C798 H802 0.950 . S
C798 C807 1.390 . S
C799 C798 1.387 . S
C799 C801 1.387 . S
H800 C807 0.950 . S
C801 C799 1.387 . S
C801 C803 1.390 . S
C801 H805 0.950 . S
H802 C798 0.950 . S
C803 C801 1.390 . S
C803 C804 1.387 . S
C803 H806 0.950 . S
C804 C803 1.387 . S
C804 C807 1.387 . S
H805 C801 0.950 . S
H806 C803 0.950 . S
C807 C798 1.390 . S
C807 H800 0.950 . S
C807 C804 1.387 . S
C808 C809 1.387 . S
C808 H812 0.950 . S
C808 C817 1.390 . S
C809 C808 1.387 . S
C809 C811 1.387 . S
H810 C817 0.950 . S
C811 C809 1.387 . S
C811 C813 1.390 . S
C811 H815 0.950 . S
H812 C808 0.950 . S
C813 C811 1.390 . S
C813 C814 1.387 . S
C813 H816 0.950 . S
C814 C813 1.387 . S
C814 C817 1.387 . S
H815 C811 0.950 . S
H816 C813 0.950 . S
C817 C808 1.390 . S
C817 H810 0.950 . S
C817 C814 1.387 . S
C818 C819 1.387 . S
C818 H822 0.950 . S
C818 C827 1.390 . S
C819 C818 1.387 . S
C819 C821 1.387 . S
H820 C827 0.950 . S
C821 C819 1.387 . S
C821 C823 1.390 . S
C821 H825 0.950 . S
H822 C818 0.950 . S
C823 C821 1.390 . S
C823 C824 1.387 . S
C823 H826 0.950 . S
C824 C823 1.387 . S
C824 C827 1.387 . S
H825 C821 0.950 . S
H826 C823 0.950 . S
C827 C818 1.390 . S
C827 H820 0.950 . S
C827 C824 1.387 . S
C828 C829 1.387 . S
C828 H832 0.950 . S
C828 C837 1.390 . S
C829 C828 1.387 . S
C829 C831 1.387 . S
H830 C837 0.950 . S
C831 C829 1.387 . S
C831 C833 1.390 . S
C831 H835 0.950 . S
H832 C828 0.950 . S
C833 C831 1.390 . S
C833 C834 1.387 . S
C833 H836 0.950 . S
C834 C833 1.387 . S
C834 C837 1.387 . S
H835 C831 0.950 . S
H836 C833 0.950 . S
C837 C828 1.390 . S
C837 H830 0.950 . S
C837 C834 1.387 . S
C838 C839 1.387 . S
C838 H842 0.950 . S
C838 C847 1.390 . S
C839 C838 1.387 . S
C839 C841 1.387 . S
H840 C847 0.950 . S
C841 C839 1.387 . S
C841 C843 1.390 . S
C841 H845 0.950 . S
H842 C838 0.950 . S
C843 C841 1.390 . S
C843 C844 1.387 . S
C843 H846 0.950 . S
C844 C843 1.387 . S
C844 C847 1.387 . S
H845 C841 0.950 . S
H846 C843 0.950 . S
C847 C838 1.390 . S
C847 H840 0.950 . S
C847 C844 1.387 . S
C848 C849 1.387 . S
C848 H852 0.950 1_455 S
C848 C857 1.390 . S
C849 C848 1.387 . S
C849 C851 1.387 . S
H850 C857 0.950 1_655 S
C851 C849 1.387 . S
C851 C853 1.390 . S
C851 H855 0.950 . S
H852 C848 0.950 1_655 S
C853 C851 1.390 . S
C853 C854 1.387 . S
C853 H856 0.950 . S
C854 C853 1.387 . S
C854 C857 1.387 . S
H855 C851 0.950 . S
H856 C853 0.950 . S
C857 C848 1.390 . S
C857 H850 0.950 1_455 S
C857 C854 1.387 . S
C858 C859 1.387 . S
C858 H862 0.950 1_655 S
C858 C867 1.390 . S
C859 C858 1.387 . S
C859 C861 1.387 . S
H860 C867 0.950 1_455 S
C861 C859 1.387 . S
C861 C863 1.390 . S
C861 H865 0.950 . S
H862 C858 0.950 1_455 S
C863 C861 1.390 . S
C863 C864 1.387 . S
C863 H866 0.950 . S
C864 C863 1.387 . S
C864 C867 1.387 . S
H865 C861 0.950 . S
H866 C863 0.950 . S
C867 C858 1.390 . S
C867 H860 0.950 1_655 S
C867 C864 1.387 . S
C868 C869 1.387 . S
C868 H872 0.950 1_455 S
C868 C877 1.390 . S
C869 C868 1.387 . S
C869 C871 1.387 . S
H870 C877 0.950 1_655 S
C871 C869 1.387 . S
C871 C873 1.390 . S
C871 H875 0.950 . S
H872 C868 0.950 1_655 S
C873 C871 1.390 . S
C873 C874 1.387 . S
C873 H876 0.950 . S
C874 C873 1.387 . S
C874 C877 1.387 . S
H875 C871 0.950 . S
H876 C873 0.950 . S
C877 C868 1.390 . S
C877 H870 0.950 1_455 S
C877 C874 1.387 . S
C878 C879 1.387 . S
C878 H882 0.950 . S
C878 C887 1.390 . S
C879 C878 1.387 . S
C879 C881 1.387 . S
H880 C887 0.950 . S
C881 C879 1.387 . S
C881 C883 1.390 . S
C881 H885 0.950 1_655 S
H882 C878 0.950 . S
C883 C881 1.390 . S
C883 C884 1.387 . S
C883 H886 0.950 1_655 S
C884 C883 1.387 . S
C884 C887 1.387 . S
H885 C881 0.950 1_455 S
H886 C883 0.950 1_455 S
C887 C878 1.390 . S
C887 H880 0.950 . S
C887 C884 1.387 . S
C888 C889 1.387 . S
C888 H892 0.950 . S
C888 C897 1.390 . S
C889 C888 1.387 . S
C889 C891 1.387 . S
H890 C897 0.950 . S
C891 C889 1.387 . S
C891 C893 1.390 . S
C891 H895 0.950 . S
H892 C888 0.950 . S
C893 C891 1.390 . S
C893 C894 1.387 . S
C893 H896 0.950 . S
C894 C893 1.387 . S
C894 C897 1.387 . S
H895 C891 0.950 . S
H896 C893 0.950 . S
C897 C888 1.390 . S
C897 H890 0.950 . S
C897 C894 1.387 . S
C898 C899 1.387 . S
C898 H902 0.950 . S
C898 C907 1.390 . S
C899 C898 1.387 . S
C899 C901 1.387 . S
H900 C907 0.950 . S
C901 C899 1.387 . S
C901 C903 1.390 . S
C901 H905 0.950 . S
H902 C898 0.950 . S
C903 C901 1.390 . S
C903 C904 1.387 . S
C903 H906 0.950 . S
C904 C903 1.387 . S
C904 C907 1.387 . S
H905 C901 0.950 . S
H906 C903 0.950 . S
C907 C898 1.390 . S
C907 H900 0.950 . S
C907 C904 1.387 . S
C908 C909 1.387 . S
C908 H912 0.950 . S
C908 C917 1.390 . S
C909 C908 1.387 . S
C909 C911 1.387 . S
H910 C917 0.950 . S
C911 C909 1.387 . S
C911 C913 1.390 . S
C911 H915 0.950 . S
H912 C908 0.950 . S
C913 C911 1.390 . S
C913 C914 1.387 . S
C913 H916 0.950 . S
C914 C913 1.387 . S
C914 C917 1.387 . S
H915 C911 0.950 . S
H916 C913 0.950 . S
C917 C908 1.390 . S
C917 H910 0.950 . S
C917 C914 1.387 . S
C918 C919 1.387 . S
C918 H922 0.950 . S
C918 C927 1.390 . S
C919 C918 1.387 . S
C919 C921 1.387 . S
H920 C927 0.950 . S
C921 C919 1.387 . S
C921 C923 1.390 . S
C921 H925 0.950 . S
H922 C918 0.950 . S
C923 C921 1.390 . S
C923 C924 1.387 . S
C923 H926 0.950 . S
C924 C923 1.387 . S
C924 C927 1.387 . S
H925 C921 0.950 . S
H926 C923 0.950 . S
C927 C918 1.390 . S
C927 H920 0.950 . S
C927 C924 1.387 . S
C529 N2 1.589 . S
C534 N464 1.589 . S
C539 N79 1.617 . S
C544 N13 1.617 . S
C549 N35 1.588 . S
C554 N365 1.588 . S
C559 N244 1.616 . S
C564 N46 1.616 . S
C569 N68 1.588 . S
C574 N398 1.588 . S
C579 N101 1.588 . S
C584 N299 1.588 . S
C589 N112 1.616 . S
C594 N178 1.616 . S
C599 N332 1.590 . S
C604 N134 1.590 . S
C609 N211 1.617 . S
C614 N145 1.617 . S
C619 N167 1.590 . S
C624 N497 1.590 . S
C629 N266 1.588 . S
C634 N200 1.588 . S
C639 N431 1.590 . S
C644 N233 1.590 . S
C649 N277 1.617 . S
C654 N343 1.617 . S
C659 N508 1.617 . S
C664 N310 1.617 . S
C669 N376 1.617 . S
C674 N442 1.617 . S
C679 N409 1.617 . S
C684 N475 1.617 . S
C689 C7 1.245 . S
C694 C318 1.253 . S
C699 C304 1.245 . S
C704 C21 1.253 . S
C709 C40 1.242 . S
C714 C285 1.251 . S
C719 C54 1.253 . S
C724 C271 1.245 . S
C729 C384 1.253 . S
C734 C73 1.245 . S
C739 C370 1.242 . S
C744 C87 1.251 . S
C749 C106 1.245 . S
C754 C351 1.253 . S
C759 C120 1.251 . S
C764 C337 1.242 . S
C769 C139 1.245 . S
C774 C450 1.253 . S
C779 C436 1.245 . S
C784 C153 1.253 . S
C789 C172 1.242 . S
C794 C417 1.251 . S
C799 C403 1.242 . S
C804 C186 1.251 . S
C809 C516 1.253 . S
C814 C205 1.245 . S
C819 C219 1.251 . S
C824 C502 1.242 . S
C829 C238 1.242 . S
C834 C483 1.251 . S
C839 C252 1.253 . S
C844 C469 1.245 . S
C849 C51 1.227 . S
C854 C18 1.227 . S
C859 C84 1.226 . S
C864 C117 1.226 . S
C869 C150 1.227 . S
C874 C183 1.227 . S
C879 C216 1.227 . S
C884 C249 1.227 . S
C889 C315 1.226 . S
C894 C282 1.226 . S
C899 C381 1.226 . S
C904 C348 1.226 . S
C909 C414 1.226 . S
C914 C447 1.226 . S
C919 C513 1.226 . S
C924 C480 1.226 . S
