# Generated by pormake.
# Topology unn, (4)-cn, num edge types: 1
# Building blocks:
#     Node 0, Type 0, BuildingBlock: QUQFOY_clean_sbu_1, # of connection points: 4
#     Node 1, Type 0, BuildingBlock: QUQFOY_clean_sbu_1, # of connection points: 4
#     Node 2, Type 0, BuildingBlock: QUQFOY_clean_sbu_1, # of connection points: 4
#     Node 3, Type 0, BuildingBlock: QUQFOY_clean_sbu_1, # of connection points: 4
#     Node 4, Type 0, BuildingBlock: QUQFOY_clean_sbu_1, # of connection points: 4
#     Node 5, Type 0, BuildingBlock: QUQFOY_clean_sbu_1, # of connection points: 4
#     Node 6, Type 0, BuildingBlock: QUQFOY_clean_sbu_1, # of connection points: 4
#     Node 7, Type 0, BuildingBlock: QUQFOY_clean_sbu_1, # of connection points: 4
#     Node 8, Type 0, BuildingBlock: QUQFOY_clean_sbu_1, # of connection points: 4
#     Node 9, Type 0, BuildingBlock: QUQFOY_clean_sbu_1, # of connection points: 4
#     Node 10, Type 0, BuildingBlock: QUQFOY_clean_sbu_1, # of connection points: 4
#     Node 11, Type 0, BuildingBlock: QUQFOY_clean_sbu_1, # of connection points: 4
#     Node 12, Type 0, BuildingBlock: QUQFOY_clean_sbu_1, # of connection points: 4
#     Node 13, Type 0, BuildingBlock: QUQFOY_clean_sbu_1, # of connection points: 4
#     Node 14, Type 0, BuildingBlock: QUQFOY_clean_sbu_1, # of connection points: 4
#     Node 15, Type 0, BuildingBlock: QUQFOY_clean_sbu_1, # of connection points: 4
#     Node 16, Type 0, BuildingBlock: QUQFOY_clean_sbu_1, # of connection points: 4
#     Node 17, Type 0, BuildingBlock: QUQFOY_clean_sbu_1, # of connection points: 4
#     Edge 18, Type (0, 0), BuildingBlock: KIFKEQ_clean_linker_1, # of connection points: 2
#     Edge 19, Type (0, 0), BuildingBlock: KIFKEQ_clean_linker_1, # of connection points: 2
#     Edge 20, Type (0, 0), BuildingBlock: KIFKEQ_clean_linker_1, # of connection points: 2
#     Edge 21, Type (0, 0), BuildingBlock: KIFKEQ_clean_linker_1, # of connection points: 2
#     Edge 22, Type (0, 0), BuildingBlock: KIFKEQ_clean_linker_1, # of connection points: 2
#     Edge 23, Type (0, 0), BuildingBlock: KIFKEQ_clean_linker_1, # of connection points: 2
#     Edge 24, Type (0, 0), BuildingBlock: KIFKEQ_clean_linker_1, # of connection points: 2
#     Edge 25, Type (0, 0), BuildingBlock: KIFKEQ_clean_linker_1, # of connection points: 2
#     Edge 26, Type (0, 0), BuildingBlock: KIFKEQ_clean_linker_1, # of connection points: 2
#     Edge 27, Type (0, 0), BuildingBlock: KIFKEQ_clean_linker_1, # of connection points: 2
#     Edge 28, Type (0, 0), BuildingBlock: KIFKEQ_clean_linker_1, # of connection points: 2
#     Edge 29, Type (0, 0), BuildingBlock: KIFKEQ_clean_linker_1, # of connection points: 2
#     Edge 30, Type (0, 0), BuildingBlock: KIFKEQ_clean_linker_1, # of connection points: 2
#     Edge 31, Type (0, 0), BuildingBlock: KIFKEQ_clean_linker_1, # of connection points: 2
#     Edge 32, Type (0, 0), BuildingBlock: KIFKEQ_clean_linker_1, # of connection points: 2
#     Edge 33, Type (0, 0), BuildingBlock: KIFKEQ_clean_linker_1, # of connection points: 2
#     Edge 34, Type (0, 0), BuildingBlock: KIFKEQ_clean_linker_1, # of connection points: 2
#     Edge 35, Type (0, 0), BuildingBlock: KIFKEQ_clean_linker_1, # of connection points: 2
#     Edge 36, Type (0, 0), BuildingBlock: KIFKEQ_clean_linker_1, # of connection points: 2
#     Edge 37, Type (0, 0), BuildingBlock: KIFKEQ_clean_linker_1, # of connection points: 2
#     Edge 38, Type (0, 0), BuildingBlock: KIFKEQ_clean_linker_1, # of connection points: 2
#     Edge 39, Type (0, 0), BuildingBlock: KIFKEQ_clean_linker_1, # of connection points: 2
#     Edge 40, Type (0, 0), BuildingBlock: KIFKEQ_clean_linker_1, # of connection points: 2
#     Edge 41, Type (0, 0), BuildingBlock: KIFKEQ_clean_linker_1, # of connection points: 2
#     Edge 42, Type (0, 0), BuildingBlock: KIFKEQ_clean_linker_1, # of connection points: 2
#     Edge 43, Type (0, 0), BuildingBlock: KIFKEQ_clean_linker_1, # of connection points: 2
#     Edge 44, Type (0, 0), BuildingBlock: KIFKEQ_clean_linker_1, # of connection points: 2
#     Edge 45, Type (0, 0), BuildingBlock: KIFKEQ_clean_linker_1, # of connection points: 2
#     Edge 46, Type (0, 0), BuildingBlock: KIFKEQ_clean_linker_1, # of connection points: 2
#     Edge 47, Type (0, 0), BuildingBlock: KIFKEQ_clean_linker_1, # of connection points: 2
#     Edge 48, Type (0, 0), BuildingBlock: KIFKEQ_clean_linker_1, # of connection points: 2
#     Edge 49, Type (0, 0), BuildingBlock: KIFKEQ_clean_linker_1, # of connection points: 2
#     Edge 50, Type (0, 0), BuildingBlock: KIFKEQ_clean_linker_1, # of connection points: 2
#     Edge 51, Type (0, 0), BuildingBlock: KIFKEQ_clean_linker_1, # of connection points: 2
#     Edge 52, Type (0, 0), BuildingBlock: KIFKEQ_clean_linker_1, # of connection points: 2
#     Edge 53, Type (0, 0), BuildingBlock: KIFKEQ_clean_linker_1, # of connection points: 2
# Relax obj value: 0.137
# Max RMSD: 0.240
# Mean RMSD: 0.197
data_MOF--net-unn--node1-QUQFOY_clean_sbu_1--edge1-KIFKEQ_clean_linker_1
_symmetry_space_group_name_H-M    P1
_symmetry_Int_Tables_number       1
_symmetry_cell_setting            triclinic
loop_
_symmetry_equiv_pos_as_xyz
'x, y, z'
_cell_length_a     46.124913
_cell_length_b     47.400694
_cell_length_c     41.139815
_cell_angle_alpha  90.595538
_cell_angle_beta   87.951759
_cell_angle_gamma 121.81573
loop_
_atom_site_label
_atom_site_type_symbol
_atom_site_fract_x
_atom_site_fract_y
_atom_site_fract_z
_atom_type_partial_charge
O0 O 0.08082 0.7525 0.26111 0.0
Cd1 Cd 0.03883 0.70991 0.24499 0.0
Cd2 Cd 1.0154 0.74794 0.24597 0.0
O3 O 0.05085 0.77189 0.28306 0.0
O4 O 0.04842 0.67537 0.25734 0.0
O5 O 1.00695 0.68005 0.28034 0.0
C6 C 1.02506 0.66654 0.28 0.0
C7 C 0.956 0.72237 0.24687 0.0
C8 C 0.07863 0.77207 0.28088 0.0
C9 C 1.03162 0.73115 0.18176 0.0
O10 O 1.03348 0.75498 0.19807 0.0
O11 O 1.02822 0.70614 0.19658 0.0
O12 O 0.97581 0.75437 0.24644 0.0
O13 O 0.96989 0.70506 0.25078 0.0
O14 O 0.45332 0.27163 0.21196 0.0
Cd15 Cd 0.44386 0.30934 0.21532 0.0
Cd16 Cd 0.39219 0.26538 0.24821 0.0
O17 O 0.39827 0.23444 0.21465 0.0
O18 O 0.46312 0.33728 0.17472 0.0
O19 O 0.40771 0.30344 0.18571 0.0
C20 C 0.43194 0.32366 0.16582 0.0
C21 C 0.34964 0.27775 0.25859 0.0
C22 C 0.42878 0.2422 0.20719 0.0
C23 C 0.44535 0.31681 0.28564 0.0
O24 O 0.42662 0.28534 0.28461 0.0
O25 O 0.45193 0.33378 0.25959 0.0
O26 O 0.34539 0.24992 0.26843 0.0
O27 O 0.37595 0.29643 0.2399 0.0
O28 O 0.82581 0.14082 0.22889 0.0
Cd29 Cd 0.78988 0.09229 0.23989 0.0
Cd30 Cd 0.83577 0.10383 0.28237 0.0
O31 O 0.8697 0.14148 0.2493 0.0
O32 O 0.76091 0.07467 0.20081 0.0
O33 O 0.79658 0.05949 0.21506 0.0
C34 C 0.77561 0.0583 0.19439 0.0
C35 C 0.82376 0.05128 0.29841 0.0
C36 C 0.85785 0.15505 0.23187 0.0
C37 C 0.77449 0.09964 0.30819 0.0
O38 O 0.80676 0.11623 0.31027 0.0
O39 O 0.76089 0.08255 0.28291 0.0
O40 O 0.84964 0.07777 0.31002 0.0
O41 O 0.8079 0.05495 0.27522 0.0
O42 O 0.07736 0.32815 0.77838 0.0
Cd43 Cd 0.04206 0.33052 0.75159 0.0
Cd44 Cd 1.01569 0.26581 0.74915 0.0
O45 O 0.04804 0.27416 0.78788 0.0
O46 O 0.0508 0.37503 0.76351 0.0
O47 O 1.00379 0.32789 0.77849 0.0
C48 C 1.02291 0.35974 0.78111 0.0
C49 C 0.95589 0.23411 0.74814 0.0
C50 C 0.07359 0.30311 0.79335 0.0
C51 C 0.04452 0.30363 0.68703 0.0
O52 O 1.03727 0.27754 0.70262 0.0
O53 O 0.04455 0.32741 0.70169 0.0
O54 O 0.9736 0.22015 0.7473 0.0
O55 O 0.97201 0.26577 0.75277 0.0
O56 O 0.83108 0.65878 0.71319 0.0
Cd57 Cd 0.79697 0.67425 0.7192 0.0
Cd58 Cd 0.84097 0.71138 0.76055 0.0
O59 O 0.87494 0.7054 0.7306 0.0
O60 O 0.77133 0.66398 0.67805 0.0
O61 O 0.80984 0.71495 0.69311 0.0
C62 C 0.78912 0.69545 0.67159 0.0
C63 C 0.836 0.75655 0.77548 0.0
C64 C 0.86314 0.67761 0.71622 0.0
C65 C 0.77806 0.65707 0.78777 0.0
O66 O 0.81015 0.67156 0.79003 0.0
O67 O 0.76572 0.65949 0.76148 0.0
O68 O 0.8587 0.75229 0.78824 0.0
O69 O 0.81903 0.73737 0.75191 0.0
O70 O 0.36125 0.03813 0.74693 0.0
Cd71 Cd 0.40343 0.08237 0.73292 0.0
Cd72 Cd 0.36122 0.10054 0.73869 0.0
O73 O 0.33978 0.06301 0.77492 0.0
O74 O 0.44188 0.07914 0.74872 0.0
O75 O 0.4251 0.11127 0.77102 0.0
C76 C 0.44292 0.09756 0.77264 0.0
C77 C 0.38405 0.15785 0.73992 0.0
C78 C 0.34116 0.03714 0.76941 0.0
C79 C 0.37888 0.09003 0.67253 0.0
O80 O 0.354 0.08486 0.69128 0.0
O81 O 0.40658 0.09607 0.68472 0.0
O82 O 0.35136 0.13706 0.7411 0.0
O83 O 0.4035 0.14597 0.74194 0.0
O84 O 0.73586 0.0931 0.60931 0.0
Cd85 Cd 0.69224 0.05031 0.59669 0.0
Cd86 Cd 0.67115 0.08909 0.59854 0.0
O87 O 0.70716 0.11164 0.63553 0.0
O88 O 0.70056 1.01541 0.61086 0.0
O89 O 0.66258 1.02462 0.63507 0.0
C90 C 0.67974 1.01013 0.6352 0.0
C91 C 0.61185 0.06262 0.59717 0.0
C92 C 0.73493 0.11212 0.63067 0.0
C93 C 0.68563 0.07185 0.53437 0.0
O94 O 0.69011 0.09645 0.55116 0.0
O95 O 0.67943 0.04552 0.54875 0.0
O96 O 0.63101 0.09469 0.59811 0.0
O97 O 0.62611 0.04574 0.60165 0.0
O98 O 1.03494 0.631 0.58094 0.0
Cd99 Cd 0.07799 0.63236 0.56547 0.0
Cd100 Cd 1.03613 0.57091 0.56341 0.0
O101 O 1.01222 0.58132 0.60268 0.0
O102 O 0.11516 0.67345 0.58587 0.0
O103 O 0.09876 0.62252 0.60205 0.0
C104 C 0.11583 0.65408 0.60738 0.0
C105 C 0.06378 0.54148 0.55606 0.0
C106 C 1.01354 0.60891 0.60078 0.0
C107 C 0.05423 0.60732 0.50181 0.0
O108 O 1.02931 0.58481 0.51883 0.0
O109 O 0.08198 0.6279 0.51546 0.0
O110 O 1.03076 0.52604 0.55779 0.0
O111 O 0.08068 0.57278 0.56261 0.0
O112 O 0.44686 0.36906 0.60508 0.0
Cd113 Cd 0.44528 0.40466 0.57858 0.0
Cd114 Cd 0.51146 0.42958 0.57539 0.0
O115 O 0.50158 0.39854 0.61584 0.0
O116 O 0.40104 0.39922 0.59411 0.0
O117 O 0.45165 0.44245 0.60583 0.0
C118 C 0.41897 0.42576 0.61091 0.0
C119 C 0.54412 0.48776 0.57013 0.0
C120 C 0.4718 0.37295 0.62096 0.0
C121 C 0.47415 0.40165 0.51455 0.0
O122 O 0.49934 0.40671 0.53087 0.0
O123 O 0.45031 0.40409 0.52817 0.0
O124 O 0.5586 0.47067 0.57055 0.0
O125 O 0.51153 0.47204 0.57566 0.0
O126 O 0.74827 0.66043 0.09855 0.0
Cd127 Cd 0.70853 0.66216 0.0802 0.0
Cd128 Cd 0.68072 0.59915 0.08404 0.0
O129 O 0.71517 0.61171 0.12204 0.0
O130 O 0.71668 0.70605 0.09441 0.0
O131 O 0.67463 0.65771 0.11422 0.0
C132 C 0.69213 0.68971 0.11575 0.0
C133 C 0.62101 0.56771 0.08301 0.0
C134 C 0.74406 0.63895 0.11948 0.0
C135 C 0.70094 0.62922 0.01861 0.0
O136 O 0.70023 0.60731 0.03682 0.0
O137 O 0.69936 0.65296 0.03135 0.0
O138 O 0.63835 0.55345 0.08451 0.0
O139 O 0.63734 0.59956 0.08615 0.0
O140 O 0.49907 0.9946 0.04173 0.0
Cd141 Cd 0.46522 1.01003 0.04598 0.0
Cd142 Cd 0.51159 0.05443 0.08008 0.0
O143 O 0.54217 0.04609 0.04644 0.0
O144 O 0.43855 0.99923 0.00528 0.0
O145 O 0.48005 0.04988 0.01802 0.0
C146 C 0.45804 0.03031 -0.00257 0.0
C147 C 0.50325 0.09838 0.09234 0.0
C148 C 0.53078 1.01597 0.03826 0.0
C149 C 0.45436 1.00204 0.11599 0.0
O150 O 0.48679 1.01821 0.1149 0.0
O151 O 0.43846 1.00029 0.09059 0.0
O152 O 0.53031 0.09932 0.10154 0.0
O153 O 0.48329 0.0746 0.07345 0.0
O154 O 1.01576 0.36778 0.08246 0.0
Cd155 Cd 0.06318 0.40682 0.0693 0.0
Cd156 Cd 1.03176 0.43564 0.07588 0.0
O157 O 1.00766 0.40048 0.11434 0.0
O158 O 0.09383 0.39246 0.08434 0.0
O159 O 0.08984 0.43299 0.10732 0.0
C160 C 0.10046 0.41263 0.10832 0.0
C161 C 0.06257 0.49359 0.07294 0.0
C162 C 1.00057 0.37132 0.10697 0.0
C163 C 0.04301 0.41952 0.00983 0.0
O164 O 1.01995 0.41774 0.02917 0.0
O165 O 0.06947 0.422 0.02144 0.0
O166 O 1.0296 0.47678 0.07634 0.0
O167 O 0.07813 0.47769 0.07576 0.0
O168 O 0.41977 0.44292 0.92078 0.0
Cd169 Cd 0.37964 0.3982 0.90644 0.0
Cd170 Cd 0.35134 0.43092 0.91114 0.0
O171 O 0.38531 0.45248 0.94982 0.0
O172 O 0.39503 0.36794 0.91849 0.0
O173 O 0.352 0.36843 0.94387 0.0
C174 C 0.37358 0.35882 0.943 0.0
C175 C 0.29165 0.40092 0.91143 0.0
C176 C 0.41501 0.45721 0.94475 0.0
C177 C 0.36901 0.41934 0.84546 0.0
O178 O 0.37051 0.44206 0.86344 0.0
O179 O 0.3663 0.39385 0.85863 0.0
O180 O 0.30906 0.433 0.91286 0.0
O181 O 0.30806 0.38579 0.91368 0.0
O182 O 0.77779 0.92638 0.89355 0.0
Cd183 Cd 0.76208 0.959 0.89958 0.0
Cd184 Cd 0.71222 0.91137 0.93199 0.0
O185 O 0.72424 0.88489 0.8974 0.0
O186 O 0.77504 0.98958 0.86073 0.0
O187 O 0.72338 0.94556 0.87026 0.0
C188 C 0.744 0.9703 0.8517 0.0
C189 C 0.66991 0.9248 0.93987 0.0
C190 C 0.75549 0.89601 0.88886 0.0
C191 C 0.76018 0.96202 0.97169 0.0
O192 O 0.74428 0.93058 0.96975 0.0
O193 O 0.76584 0.97933 0.94598 0.0
O194 O 0.66355 0.89571 0.94812 0.0
O195 O 0.69828 0.94425 0.92432 0.0
O196 O 0.16997 0.80062 0.88211 0.0
Cd197 Cd 0.13549 0.75051 0.88838 0.0
Cd198 Cd 0.17885 0.76097 0.93083 0.0
O199 O 0.21402 0.8005 0.9007 0.0
O200 O 0.1102 0.73626 0.84709 0.0
O201 O 0.14577 0.72096 0.8614 0.0
C202 C 0.12646 0.72156 0.83979 0.0
C203 C 0.17261 0.71147 0.94927 0.0
C204 C 0.20198 0.81529 0.8856 0.0
C205 C 0.11511 0.7537 0.95476 0.0
O206 O 0.14725 0.77106 0.95757 0.0
O207 O 0.10273 0.7366 0.92926 0.0
O208 O 0.19495 0.73965 0.96164 0.0
O209 O 0.15715 0.71209 0.92391 0.0
O210 O 0.4159 0.99794 0.4315 0.0
Cd211 Cd 0.37638 0.99809 0.41033 0.0
Cd212 Cd 0.35076 0.93557 0.41331 0.0
O213 O 0.38269 0.94856 0.45357 0.0
O214 O 0.38346 0.04187 0.42283 0.0
O215 O 0.34075 0.99367 0.44224 0.0
C216 C 0.35812 1.02572 0.44342 0.0
C217 C 0.29121 0.90216 0.41019 0.0
C218 C 0.41104 0.97641 0.45266 0.0
C219 C 0.37406 0.9672 0.34867 0.0
O220 O 0.37315 0.94524 0.36697 0.0
O221 O 0.37039 0.98981 0.36116 0.0
O222 O 0.30963 0.88913 0.41271 0.0
O223 O 0.30627 0.93398 0.41308 0.0
O224 O 0.18179 0.33786 0.38063 0.0
Cd225 Cd 0.14225 0.34582 0.38583 0.0
Cd226 Cd 0.18801 0.39591 0.41606 0.0
O227 O 0.22062 0.39127 0.38186 0.0
O228 O 0.11409 0.32681 0.34647 0.0
O229 O 0.14613 0.38082 0.35605 0.0
C230 C 0.12675 0.3571 0.33677 0.0
C231 C 0.17707 0.43759 0.43031 0.0
C232 C 0.21223 0.36161 0.37485 0.0
C233 C 0.13505 0.34167 0.45578 0.0
O234 O 0.16723 0.36094 0.45255 0.0
O235 O 0.11678 0.33478 0.43098 0.0
O236 O 0.20459 0.43932 0.43927 0.0
O237 O 0.15852 0.41483 0.40979 0.0
O238 O 0.68666 0.70441 0.4227 0.0
Cd239 Cd 0.73001 0.74789 0.40855 0.0
Cd240 Cd 0.68864 0.76665 0.41089 0.0
O241 O 0.66556 0.73058 0.44875 0.0
O242 O 0.76726 0.74329 0.42521 0.0
O243 O 0.75249 0.77742 0.44623 0.0
C244 C 0.76934 0.76277 0.44849 0.0
C245 C 0.71227 0.82408 0.40818 0.0
C246 C 0.66626 0.7042 0.44438 0.0
C247 C 0.7078 0.75364 0.34641 0.0
O248 O 0.6824 0.74877 0.36416 0.0
O249 O 0.73516 0.76031 0.35978 0.0
O250 O 0.67954 0.80355 0.40842 0.0
O251 O 0.73123 0.8122 0.41373 0.0
H252 H 1.02885 0.68468 0.14 0.0
H253 H 0.04097 0.78154 0.14214 0.0
H254 H 0.04001 0.69006 0.08146 0.0
H255 H 0.05157 0.78662 0.08334 0.0
H256 H 0.13003 0.80133 -0.0007 0.0
H257 H 0.10133 0.79495 0.05171 0.0
H258 H 1.02247 0.69519 0.02671 0.0
H259 H 0.05174 0.70164 0.97381 0.0
C260 C 1.03335 0.70691 0.12792 0.0
C261 C 1.03468 0.73297 0.14583 0.0
C262 C 0.03935 0.70981 0.09427 0.0
C263 C 0.04682 0.73884 0.07779 0.0
C264 C 0.04624 0.76411 0.09544 0.0
C265 C 0.04022 0.7612 0.12912 0.0
C266 C 0.10611 0.77829 0.00465 0.0
C267 C 0.09329 0.75182 0.98273 0.0
C268 C 0.08951 0.77472 0.03463 0.0
C269 C 0.05979 0.74446 0.04349 0.0
C270 C 0.04557 0.7187 0.02062 0.0
C271 C 0.0621 0.72243 0.9903 0.0
H272 H 0.4327 0.36538 0.96059 0.0
H273 H 0.32764 0.32308 0.9928 0.0
H274 H 0.44673 0.35654 0.01384 0.0
H275 H 0.34075 0.31104 0.04589 0.0
H276 H 0.37999 0.33092 0.14811 0.0
H277 H 0.36452 0.33526 0.09327 0.0
H278 H 0.44784 0.32629 0.05434 0.0
H279 H 0.46484 0.32536 0.10932 0.0
C280 C 0.4122 0.35279 0.97878 0.0
C281 C 0.37903 0.34491 0.97247 0.0
C282 C 0.42026 0.34761 0.00963 0.0
C283 C 0.39511 0.33337 0.0349 0.0
C284 C 0.36124 0.32313 0.02768 0.0
C285 C 0.35343 0.32938 -0.00301 0.0
C286 C 0.39522 0.33051 0.12764 0.0
C287 C 0.42394 0.32848 0.13278 0.0
C288 C 0.38605 0.33238 0.09606 0.0
C289 C 0.40465 0.33096 0.06877 0.0
C290 C 0.43321 0.3284 0.07431 0.0
C291 C 0.44306 0.32778 0.10591 0.0
H292 H 0.80129 1.02017 0.17523 0.0
H293 H 0.74116 0.05908 0.142 0.0
H294 H 0.80018 0.99797 0.12126 0.0
H295 H 0.73977 0.0365 0.08807 0.0
H296 H 0.77733 1.02517 0.98742 0.0
H297 H 0.78072 0.04754 0.04189 0.0
H298 H 0.76022 0.95538 0.08397 0.0
H299 H 0.75724 0.93318 0.02972 0.0
C300 C 0.78745 1.02361 0.15653 0.0
C301 C 0.7713 0.04138 0.16291 0.0
C302 C 0.78683 1.01088 0.12561 0.0
C303 C 0.77019 1.01578 0.10032 0.0
C304 C 0.75331 0.03283 0.10691 0.0
C305 C 0.75378 0.04542 0.13791 0.0
C306 C 0.77413 1.0099 0.00829 0.0
C307 C 0.76699 0.97739 0.00423 0.0
C308 C 0.77567 1.02257 0.03948 0.0
C309 C 0.77036 1.00307 0.06721 0.0
C310 C 0.76457 0.97107 0.0631 0.0
C311 C 0.76281 0.95834 0.03198 0.0
H312 H 0.68027 1.02517 0.49121 0.0
H313 H 0.69997 0.12494 0.49647 0.0
H314 H 0.69403 0.03258 0.43299 0.0
H315 H 0.71326 0.13208 0.43816 0.0
H316 H 0.70934 0.0499 0.32523 0.0
H317 H 0.6796 0.04265 0.37793 0.0
H318 H 0.76341 0.13763 0.40848 0.0
H319 H 0.79277 0.14487 0.3562 0.0
C320 C 0.68695 0.04846 0.47987 0.0
C321 C 0.68967 0.07469 0.49855 0.0
C322 C 0.69449 0.05258 0.44644 0.0
C323 C 0.70493 0.083 0.4311 0.0
C324 C 0.70566 0.10851 0.44945 0.0
C325 C 0.69808 0.10439 0.48284 0.0
C326 C 0.72087 0.06955 0.34295 0.0
C327 C 0.75346 0.09779 0.33684 0.0
C328 C 0.704 0.06531 0.37312 0.0
C329 C 0.7193 0.08947 0.39735 0.0
C330 C 0.75079 0.11871 0.39023 0.0
C331 C 0.76774 0.12276 0.36035 0.0
H332 H 0.99624 0.57016 0.46821 0.0
H333 H 0.10151 0.6506 0.45623 0.0
H334 H 0.98656 0.57693 0.41188 0.0
H335 H 0.09159 0.65727 0.39957 0.0
H336 H 0.97853 0.64251 0.33106 0.0
H337 H 0.98502 0.62278 0.38318 0.0
H338 H 0.07592 0.62734 0.34527 0.0
H339 H 0.06945 0.64693 0.29303 0.0
C340 C 1.01746 0.58912 0.4535 0.0
C341 C 0.04964 0.61009 0.46682 0.0
C342 C 1.0118 0.59296 0.42123 0.0
C343 C 1.03825 0.61762 0.40143 0.0
C344 C 0.07081 0.6378 0.41427 0.0
C345 C 0.07644 0.63415 0.44673 0.0
C346 C 0.99932 0.63837 0.33351 0.0
C347 C 1.02362 0.64657 0.30803 0.0
C348 C 1.00306 0.62711 0.36338 0.0
C349 C 1.03131 0.62408 0.36835 0.0
C350 C 0.05423 0.62997 0.34218 0.0
C351 C 0.05028 0.64087 0.3122 0.0
H352 H 0.43228 0.40055 0.46802 0.0
H353 H 0.51277 0.38142 0.48262 0.0
H354 H 0.42942 0.38339 0.41122 0.0
H355 H 0.5096 0.36413 0.42622 0.0
H356 H 0.45345 0.29112 0.34089 0.0
H357 H 0.46289 0.3144 0.39542 0.0
H358 H 0.46793 0.40161 0.35779 0.0
H359 H 0.45891 0.37845 0.30286 0.0
C360 C 0.44939 0.3928 0.45914 0.0
C361 C 0.47263 0.39221 0.4799 0.0
C362 C 0.44792 0.38323 0.4266 0.0
C363 C 0.4693 0.37244 0.41441 0.0
C364 C 0.49272 0.37218 0.43506 0.0
C365 C 0.49454 0.38216 0.46734 0.0
C366 C 0.45712 0.3155 0.34414 0.0
C367 C 0.45556 0.33302 0.31761 0.0
C368 C 0.46255 0.32882 0.37534 0.0
C369 C 0.46597 0.35972 0.3808 0.0
C370 C 0.46514 0.37763 0.35422 0.0
C371 C 0.46033 0.36454 0.32281 0.0
H372 H 0.06446 0.42424 0.79923 0.0
H373 H 0.97039 0.33344 0.82665 0.0
H374 H 0.06719 0.44535 0.85399 0.0
H375 H 0.97327 0.35463 0.88136 0.0
H376 H 0.98548 0.40454 0.97833 0.0
H377 H 0.97622 0.39748 0.91999 0.0
H378 H 0.08024 0.42287 0.90287 0.0
H379 H 0.08959 0.42996 0.96109 0.0
C380 C 0.04368 0.40926 0.81652 0.0
C381 C 1.01763 0.37681 0.80883 0.0
C382 C 0.04544 0.42129 0.84797 0.0
C383 C 1.02096 0.40126 0.8721 0.0
C384 C 0.9926 0.37058 0.86328 0.0
C385 C 0.99094 0.35843 0.83187 0.0
C386 C 1.00651 0.40898 0.96209 0.0
C387 C 1.03821 0.4175 0.97435 0.0
C388 C 1.00115 0.40495 0.92871 0.0
C389 C 1.02751 0.40977 0.90691 0.0
C390 C 0.05958 0.4195 0.91906 0.0
C391 C 0.06484 0.42322 0.95244 0.0
H392 H 0.70536 0.6725 0.97219 0.0
H393 H 0.70338 0.58097 0.98405 0.0
H394 H 0.7152 0.67107 0.9137 0.0
H395 H 0.7127 0.57938 0.92559 0.0
H396 H 0.78989 0.62706 0.83651 0.0
H397 H 0.76363 0.61433 0.89088 0.0
H398 H 0.69236 0.64134 0.86139 0.0
H399 H 0.71904 0.6543 0.80651 0.0
C400 C 0.70658 0.65187 0.9623 0.0
C401 C 0.70417 0.62716 0.98286 0.0
C402 C 0.71184 0.65086 0.92873 0.0
C403 C 0.71483 0.62516 0.91507 0.0
C404 C 0.71086 0.59968 0.93547 0.0
C405 C 0.70558 0.60066 0.96898 0.0
C406 C 0.76799 0.6294 0.84138 0.0
C407 C 0.75658 0.64182 0.81743 0.0
C408 C 0.75284 0.62198 0.87251 0.0
C409 C 0.72612 0.62712 0.88051 0.0
C410 C 0.71317 0.63747 0.85595 0.0
C411 C 0.72814 0.64453 0.82451 0.0
H412 H 0.49022 0.09496 0.97718 0.0
H413 H 0.42521 0.9944 0.94393 0.0
H414 H 0.49367 0.11587 0.92226 0.0
H415 H 0.42865 1.01538 0.88906 0.0
H416 H 0.46724 0.05834 0.7892 0.0
H417 H 0.47354 0.04426 0.84425 0.0
H418 H 0.45488 0.11857 0.88273 0.0
H419 H 0.44858 0.13277 0.82768 0.0
C420 C 0.47645 0.07732 0.95821 0.0
C421 C 0.45737 0.04299 0.96491 0.0
C422 C 0.47849 0.08934 0.92677 0.0
C423 C 0.46184 0.06726 0.90129 0.0
C424 C 0.44232 0.03297 0.9081 0.0
C425 C 0.43999 1.02096 0.9396 0.0
C426 C 0.46553 0.07244 0.80927 0.0
C427 C 0.45706 0.09647 0.80403 0.0
C428 C 0.4687 0.06403 0.84085 0.0
C429 C 0.46388 0.07976 0.8678 0.0
C430 C 0.45858 0.10591 0.86243 0.0
C431 C 0.45511 0.11413 0.83085 0.0
H432 H 0.32131 0.07273 0.63999 0.0
H433 H 0.42671 0.10161 0.62449 0.0
H434 H 0.31266 0.06411 0.58179 0.0
H435 H 0.41787 0.09278 0.56624 0.0
H436 H 0.40044 0.09017 0.46132 0.0
H437 H 0.40393 0.11211 0.51586 0.0
H438 H 0.31107 1.02119 0.54514 0.0
H439 H 0.30745 0.99923 0.4907 0.0
C440 C 0.34276 0.07758 0.62416 0.0
C441 C 0.37466 0.08752 0.63693 0.0
C442 C 0.33773 0.07262 0.59082 0.0
C443 C 0.36454 0.07777 0.56949 0.0
C444 C 0.39682 0.08905 0.58206 0.0
C445 C 0.40182 0.09381 0.61546 0.0
C446 C 0.38009 0.0753 0.47903 0.0
C447 C 0.35397 0.04271 0.47186 0.0
C448 C 0.38232 0.08778 0.51036 0.0
C449 C 0.35822 0.06808 0.53489 0.0
C450 C 0.33007 0.03696 0.52674 0.0
C451 C 0.32799 1.02436 0.4955 0.0
H452 H 0.07759 0.36029 0.65028 0.0
H453 H 1.03295 0.25417 0.64449 0.0
H454 H 0.09685 0.36624 0.59335 0.0
H455 H 0.05193 0.26032 0.58713 0.0
H456 H 0.06779 0.29713 0.47414 0.0
H457 H 0.04268 0.28535 0.52982 0.0
H458 H 0.14227 0.35214 0.56752 0.0
H459 H 0.16742 0.36344 0.51278 0.0
C460 C 0.07153 0.3382 0.63679 0.0
C461 C 0.05402 0.3068 0.65195 0.0
C462 C 0.0826 0.34164 0.60426 0.0
C463 C 0.07589 0.31372 0.58608 0.0
C464 C 0.05723 0.28214 0.60072 0.0
C465 C 0.04663 0.27872 0.63351 0.0
C466 C 0.08431 0.30888 0.49438 0.0
C467 C 0.11957 0.33126 0.48898 0.0
C468 C 0.06996 0.30215 0.52612 0.0
C469 C 0.09061 0.3182 0.55269 0.0
C470 C 0.12583 0.33978 0.54733 0.0
C471 C 0.14018 0.34605 0.51592 0.0
H472 H 0.77301 0.79667 0.50406 0.0
H473 H 0.797 0.72626 0.46434 0.0
H474 H 0.78082 0.78305 0.55884 0.0
H475 H 0.8048 0.7128 0.51906 0.0
H476 H 0.75754 0.6602 0.61753 0.0
H477 H 0.75992 0.68175 0.56332 0.0
H478 H 0.82115 0.78203 0.59834 0.0
H479 H 0.81883 0.76048 0.65279 0.0
C480 C 0.781 0.77908 0.50688 0.0
C481 C 0.78396 0.76226 0.4798 0.0
C482 C 0.78537 0.77121 0.53831 0.0
C483 C 0.79259 0.74628 0.54324 0.0
C484 C 0.79846 0.73159 0.516 0.0
C485 C 0.79436 0.73961 0.48461 0.0
C486 C 0.77131 0.68684 0.61379 0.0
C487 C 0.78797 0.70861 0.63949 0.0
C488 C 0.77301 0.69919 0.58263 0.0
C489 C 0.79117 0.73359 0.57649 0.0
C490 C 0.80705 0.75542 0.60235 0.0
C491 C 0.80566 0.74305 0.6335 0.0
H492 H 0.38625 0.47456 0.80917 0.0
H493 H 0.35555 0.37157 0.80055 0.0
H494 H 0.39166 0.48036 0.74985 0.0
H495 H 0.36096 0.37741 0.74159 0.0
H496 H 0.35424 0.38696 0.63695 0.0
H497 H 0.33645 0.38793 0.69325 0.0
H498 H 0.43228 0.47934 0.70823 0.0
H499 H 0.45008 0.47857 0.65194 0.0
C500 C 0.38036 0.4531 0.79465 0.0
C501 C 0.37074 0.42266 0.80958 0.0
C502 C 0.38346 0.45646 0.76071 0.0
C503 C 0.37652 0.42931 0.74106 0.0
C504 C 0.36593 0.39866 0.75603 0.0
C505 C 0.3632 0.3954 0.78986 0.0
C506 C 0.37103 0.40794 0.65185 0.0
C507 C 0.40386 0.43237 0.64013 0.0
C508 C 0.36094 0.4083 0.68421 0.0
C509 C 0.38332 0.43326 0.70533 0.0
C510 C 0.4145 0.45972 0.69258 0.0
C511 C 0.4247 0.45926 0.66026 0.0
H512 H 0.7214 0.98681 0.64645 0.0
H513 H 0.64281 0.99881 0.69234 0.0
H514 H 0.7352 0.97521 0.69934 0.0
H515 H 0.65672 0.98712 0.74526 0.0
H516 H 0.6785 0.94059 0.83232 0.0
H517 H 0.65884 0.94434 0.7792 0.0
H518 H 0.76306 1.01352 0.74685 0.0
H519 H 0.78286 1.00977 0.80008 0.0
C520 C 0.70642 0.98609 0.66767 0.0
C521 C 0.68121 0.99407 0.6652 0.0
C522 C 0.71465 0.97984 0.698 0.0
C523 C 0.69757 0.98103 0.72643 0.0
C524 C 0.6704 0.98618 0.72373 0.0
C525 C 0.66235 0.99274 0.69339 0.0
C526 C 0.69724 0.95675 0.81393 0.0
C527 C 0.73227 0.9749 0.82035 0.0
C528 C 0.68592 0.95888 0.78355 0.0
C529 C 0.70942 0.9789 0.75882 0.0
C530 C 0.74442 0.99743 0.76534 0.0
C531 C 0.75574 0.99558 0.79588 0.0
H532 H 0.15663 0.68817 0.81657 0.0
H533 H 0.09576 0.72765 0.78719 0.0
H534 H 0.1609 0.67367 0.75999 0.0
H535 H 0.10011 0.71326 0.73103 0.0
H536 H 0.11802 0.61926 0.659 0.0
H537 H 0.12314 0.63534 0.71607 0.0
H538 H 0.14644 0.73274 0.68764 0.0
H539 H 0.14125 0.71678 0.63065 0.0
C540 C 0.14387 0.69343 0.79815 0.0
C541 C 0.12583 0.70907 0.80643 0.0
C542 C 0.14642 0.68521 0.76576 0.0
C543 C 0.13137 0.69287 0.74098 0.0
C544 C 0.11264 0.70771 0.74945 0.0
C545 C 0.10981 0.7156 0.78175 0.0
C546 C 0.12527 0.64445 0.66482 0.0
C547 C 0.12886 0.66661 0.6402 0.0
C548 C 0.1281 0.65361 0.69758 0.0
C549 C 0.13437 0.68503 0.70637 0.0
C550 C 0.14081 0.70808 0.68162 0.0
C551 C 0.13824 0.69903 0.64891 0.0
H552 H 0.75696 0.76392 0.30037 0.0
H553 H 0.65153 0.73611 0.31155 0.0
H554 H 0.7502 0.75471 0.24194 0.0
H555 H 0.64497 0.72719 0.25316 0.0
H556 H 0.64099 0.66329 0.16246 0.0
H557 H 0.64385 0.68443 0.21717 0.0
H558 H 0.73892 0.77434 0.19042 0.0
H559 H 0.73619 0.75314 0.13558 0.0
C560 C 0.73249 0.75621 0.29035 0.0
C561 C 0.70472 0.7504 0.31068 0.0
C562 C 0.72869 0.75124 0.25683 0.0
C563 C 0.69702 0.74024 0.24298 0.0
C564 C 0.66958 0.73544 0.26318 0.0
C565 C 0.67341 0.74057 0.29663 0.0
C566 C 0.66195 0.68801 0.16791 0.0
C567 C 0.68857 0.70635 0.14482 0.0
C568 C 0.66359 0.70015 0.19929 0.0
C569 C 0.69196 0.73078 0.20823 0.0
C570 C 0.71707 0.75039 0.18433 0.0
C571 C 0.71528 0.73837 0.15283 0.0
H572 H 0.39133 0.98953 0.13621 0.0
H573 H 0.47712 0.98483 0.16743 0.0
H574 H 0.36632 0.97565 0.1917 0.0
H575 H 0.45233 0.97108 0.22243 0.0
H576 H 0.3899 0.92683 0.31484 0.0
H577 H 0.40318 0.9285 0.25669 0.0
H578 H 0.38503 1.00817 0.24392 0.0
H579 H 0.37155 1.00648 0.30201 0.0
C580 C 0.40442 0.98481 0.15472 0.0
C581 C 0.43623 0.98844 0.14761 0.0
C582 C 0.39027 0.97713 0.18646 0.0
C583 C 0.40748 0.97245 0.21139 0.0
C584 C 0.43832 0.97425 0.20372 0.0
C585 C 0.45261 0.98232 0.17224 0.0
C586 C 0.38843 0.94451 0.29961 0.0
C587 C 0.38006 0.9668 0.31313 0.0
C588 C 0.39605 0.94545 0.26632 0.0
C589 C 0.39519 0.96849 0.24581 0.0
C590 C 0.38553 0.98989 0.25908 0.0
C591 C 0.37815 0.98913 0.29242 0.0
H592 H 0.11934 0.40732 0.31585 0.0
H593 H 0.12683 0.32496 0.28209 0.0
H594 H 0.11651 0.42184 0.25993 0.0
H595 H 0.12754 0.34097 0.22615 0.0
H596 H 0.09243 0.35518 0.12993 0.0
H597 H 0.09837 0.34169 0.18463 0.0
H598 H 0.14279 0.44471 0.21156 0.0
H599 H 0.13353 0.45724 0.15696 0.0
C600 C 0.12047 0.39241 0.29629 0.0
C601 C 0.12261 0.36467 0.30319 0.0
C602 C 0.11947 0.40102 0.26407 0.0
C603 C 0.12194 0.38282 0.23787 0.0
C604 C 0.12457 0.35525 0.24519 0.0
C605 C 0.12428 0.34598 0.2774 0.0
C606 C 0.10417 0.37513 0.14734 0.0
C607 C 0.11263 0.40732 0.13907 0.0
C608 C 0.10768 0.36739 0.17904 0.0
C609 C 0.12082 0.3919 0.20327 0.0
C610 C 0.13151 0.42473 0.1942 0.0
C611 C 0.12688 0.43221 0.16265 0.0
H612 H 0.253 0.83508 0.40046 0.0
H613 H 0.24844 0.92355 0.39434 0.0
H614 H 0.19927 0.80392 0.3727 0.0
H615 H 0.19476 0.89234 0.36602 0.0
H616 H 0.0849 0.81551 0.33 0.0
H617 H 0.13295 0.8461 0.3664 0.0
H618 H 0.18642 0.80548 0.3161 0.0
H619 H 0.13926 0.77532 0.28039 0.0
C620 C 0.24026 0.8478 0.39374 0.0
C621 C 0.25533 0.88194 0.39944 0.0
C622 C 0.20952 0.82996 0.37754 0.0
C623 C 0.19295 0.84574 0.36648 0.0
C624 C 0.20674 0.87936 0.37417 0.0
C625 C 0.2376 0.89726 0.39042 0.0
C626 C 0.10701 0.8133 0.3267 0.0
C627 C 0.10798 0.79279 0.30222 0.0
C628 C 0.13453 0.8308 0.34756 0.0
C629 C 0.16338 0.82783 0.34459 0.0
C630 C 0.16438 0.80778 0.31974 0.0
C631 C 0.13726 0.79064 0.29896 0.0
H632 H 0.28605 0.24238 0.28875 0.0
H633 H 0.36492 0.34172 0.25939 0.0
H634 H 0.25407 0.26416 0.31567 0.0
H635 H 0.33434 0.36391 0.28798 0.0
H636 H 0.25839 0.39333 0.32382 0.0
H637 H 0.29004 0.37298 0.29301 0.0
H638 H 0.25237 0.29113 0.36127 0.0
H639 H 0.21937 0.31042 0.39025 0.0
C640 C 0.29651 0.26889 0.28796 0.0
C641 C 0.32797 0.2902 0.27178 0.0
C642 C 0.27841 0.28159 0.30386 0.0
C643 C 0.29168 0.31611 0.30478 0.0
C644 C 0.32282 0.33726 0.28774 0.0
C645 C 0.34052 0.32447 0.27128 0.0
C646 C 0.25743 0.37129 0.33235 0.0
C647 C 0.2365 0.35351 0.35944 0.0
C648 C 0.27552 0.35946 0.31467 0.0
C649 C 0.27356 0.32986 0.32407 0.0
C650 C 0.25383 0.31324 0.35229 0.0
C651 C 0.23525 0.32462 0.36937 0.0
H652 H 0.85645 1.02352 0.32731 0.0
H653 H 0.75689 1.00509 0.30723 0.0
H654 H 0.8299 0.9695 0.35475 0.0
H655 H 0.73022 0.95331 0.337 0.0
H656 H 0.68546 0.84717 0.36612 0.0
H657 H 0.71313 0.90049 0.33906 0.0
H658 H 0.80216 0.93424 0.39684 0.0
H659 H 0.77496 0.87905 0.42161 0.0
C660 C 0.82886 1.00791 0.3289 0.0
C661 C 0.8088 1.01824 0.31445 0.0
C662 C 0.81341 0.97696 0.34509 0.0
C663 C 0.77744 0.95606 0.34829 0.0
C664 C 0.75775 0.96732 0.33438 0.0
C665 C 0.77314 0.99746 0.3173 0.0
C666 C 0.71076 0.86615 0.37343 0.0
C667 C 0.72777 0.85888 0.39636 0.0
C668 C 0.72687 0.8972 0.35789 0.0
C669 C 0.76028 0.9227 0.36551 0.0
C670 C 0.77686 0.91557 0.38943 0.0
C671 C 0.76104 0.88395 0.4042 0.0
H672 H 0.84136 0.17838 0.18046 0.0
H673 H 0.92433 0.20519 0.24424 0.0
H674 H 0.87477 0.23169 0.15293 0.0
H675 H 0.95824 0.25943 0.21612 0.0
H676 H 0.98904 0.36579 0.17363 0.0
H677 H 0.95601 0.31388 0.20571 0.0
H678 H 0.9279 0.25772 0.11685 0.0
H679 H 0.96059 0.30885 0.08527 0.0
C680 C 0.86685 0.19566 0.18865 0.0
C681 C 0.88017 0.18734 0.21457 0.0
C682 C 0.88602 0.2263 0.17275 0.0
C683 C 0.91911 0.24983 0.18235 0.0
C684 C 0.93265 0.24185 0.20839 0.0
C685 C 0.91343 0.21072 0.22422 0.0
C686 C 0.97522 0.34233 0.1611 0.0
C687 C 0.97705 0.3414 0.12693 0.0
C688 C 0.9568 0.31265 0.17941 0.0
C689 C 0.93944 0.2817 0.16379 0.0
C690 C 0.94077 0.28109 0.12965 0.0
C691 C 0.95945 0.31045 0.11154 0.0
H692 H 0.80582 0.69661 0.11976 0.0
H693 H 0.74763 0.60161 0.1692 0.0
H694 H 0.8523 0.71357 0.15579 0.0
H695 H 0.79512 0.61906 0.20598 0.0
H696 H 0.9109 0.65684 0.2324 0.0
H697 H 0.85669 0.63392 0.20521 0.0
H698 H 0.86495 0.72877 0.21271 0.0
H699 H 0.91915 0.75176 0.23928 0.0
C700 C 0.8028 0.67918 0.13838 0.0
C701 C 0.77267 0.64763 0.14146 0.0
C702 C 0.82956 0.68915 0.15936 0.0
C703 C 0.82736 0.66798 0.18424 0.0
C704 C 0.79761 0.63605 0.18712 0.0
C705 C 0.77041 0.62604 0.16606 0.0
C706 C 0.90072 0.67258 0.229 0.0
C707 C 0.91968 0.70632 0.23773 0.0
C708 C 0.86958 0.65939 0.21338 0.0
C709 C 0.85676 0.67965 0.20612 0.0
C710 C 0.87444 0.71263 0.21721 0.0
C711 C 0.90547 0.72579 0.23272 0.0
H712 H 0.48217 0.23546 0.21929 0.0
H713 H 0.39419 0.19622 0.15988 0.0
H714 H 0.49955 0.20108 0.19137 0.0
H715 H 0.4127 0.16343 0.12978 0.0
H716 H 0.43906 0.08727 0.09733 0.0
H717 H 0.41972 0.11973 0.12583 0.0
H718 H 0.52443 0.19403 0.14635 0.0
H719 H 0.54321 0.15985 0.11982 0.0
C720 C 0.46653 0.21936 0.2001 0.0
C721 C 0.43667 0.21834 0.19196 0.0
C722 C 0.47679 0.19992 0.18357 0.0
C723 C 0.4581 0.1795 0.15758 0.0
C724 C 0.42778 0.17823 0.14981 0.0
C725 C 0.41702 0.19709 0.16705 0.0
C726 C 0.45802 0.11072 0.10769 0.0
C727 C 0.49276 0.12097 0.10621 0.0
C728 C 0.44688 0.12958 0.12407 0.0
C729 C 0.47022 0.15979 0.13894 0.0
C730 C 0.50525 0.17058 0.13626 0.0
C731 C 0.51627 0.15121 0.12057 0.0
H732 H 0.79566 0.11606 0.62345 0.0
H733 H 0.74431 0.15332 0.6832 0.0
H734 H 0.845 0.14437 0.65679 0.0
H735 H 0.79481 0.18224 0.71714 0.0
H736 H 0.91375 0.2579 0.73882 0.0
H737 H 0.85797 0.22881 0.71382 0.0
H738 H 0.85963 0.13863 0.71227 0.0
H739 H 0.9153 0.16759 0.73676 0.0
C740 C 0.7948 0.13037 0.64374 0.0
C741 C 0.76567 0.13216 0.6506 0.0
C742 C 0.82321 0.14645 0.66312 0.0
C743 C 0.82374 0.1651 0.69007 0.0
C744 C 0.79514 0.16792 0.6966 0.0
C745 C 0.76626 0.15142 0.67716 0.0
C746 C 0.90186 0.23166 0.73382 0.0
C747 C 0.91929 0.2152 0.73949 0.0
C748 C 0.86982 0.215 0.71951 0.0
C749 C 0.85458 0.18155 0.71045 0.0
C750 C 0.87096 0.16459 0.71829 0.0
C751 C 0.90285 0.18117 0.73256 0.0
H752 H 0.95647 0.56744 0.64019 0.0
H753 H 1.0219 0.66958 0.60868 0.0
H754 H 0.92091 0.583 0.67203 0.0
H755 H 0.98667 0.6847 0.6395 0.0
H756 H 0.93332 0.71036 0.71676 0.0
H757 H 0.97001 0.69192 0.69343 0.0
H758 H 0.88109 0.60116 0.66208 0.0
H759 H 0.84454 0.61918 0.68582 0.0
C760 C 0.96336 0.5931 0.64013 0.0
C761 C 0.99191 0.61709 0.62162 0.0
C762 C 0.94295 0.60204 0.65824 0.0
C763 C 0.95095 0.6352 0.65844 0.0
C764 C 0.97993 0.65909 0.64046 0.0
C765 C 1.0 0.65022 0.62239 0.0
C766 C 0.9216 0.68642 0.70505 0.0
C767 C 0.88596 0.66649 0.70297 0.0
C768 C 0.94262 0.67582 0.69159 0.0
C769 C 0.92854 0.64502 0.67571 0.0
C770 C 0.89287 0.62477 0.67442 0.0
C771 C 0.8719 0.63536 0.68782 0.0
H772 H 0.35025 0.18741 0.72045 0.0
H773 H 0.45144 0.20861 0.7384 0.0
H774 H 0.37446 0.24202 0.69629 0.0
H775 H 0.47598 0.26431 0.71553 0.0
H776 H 0.50667 0.34155 0.63156 0.0
H777 H 0.48719 0.29221 0.66561 0.0
H778 H 0.40142 0.29852 0.70123 0.0
H779 H 0.41986 0.34615 0.66575 0.0
C780 C 0.37771 0.20413 0.72016 0.0
C781 C 0.39881 0.19347 0.73141 0.0
C782 C 0.39177 0.23576 0.7063 0.0
C783 C 0.42744 0.25802 0.70364 0.0
C784 C 0.4485 0.24787 0.71645 0.0
C785 C 0.43438 0.21598 0.73 0.0
C786 C 0.48402 0.33258 0.64716 0.0
C787 C 0.46463 0.34747 0.64585 0.0
C788 C 0.47276 0.30427 0.6668 0.0
C789 C 0.44218 0.29064 0.68597 0.0
C790 C 0.42435 0.3073 0.68616 0.0
C791 C 0.43515 0.33494 0.66607 0.0
H792 H 0.2898 1.02046 0.8161 0.0
H793 H 0.34856 0.9839 0.76859 0.0
H794 H 0.25807 0.96876 0.84808 0.0
H795 H 0.31703 0.9328 0.80001 0.0
H796 H 0.2724 0.85348 0.87933 0.0
H797 H 0.30731 0.90914 0.85497 0.0
H798 H 0.21605 0.91 0.83738 0.0
H799 H 0.18149 0.85511 0.86172 0.0
C800 C 0.29598 1.00153 0.81249 0.0
C801 C 0.32152 1.00632 0.78952 0.0
C802 C 0.27782 0.97189 0.83075 0.0
C803 C 0.28508 0.94661 0.82668 0.0
C804 C 0.31106 0.95182 0.80418 0.0
C805 C 0.32891 0.98113 0.78584 0.0
C806 C 0.25988 0.86569 0.87046 0.0
C807 C 0.22412 0.84961 0.87227 0.0
C808 C 0.27983 0.89753 0.85642 0.0
C809 C 0.26446 0.91408 0.84417 0.0
C810 C 0.22881 0.89828 0.84687 0.0
C811 C 0.20895 0.86653 0.8606 0.0
H812 H 0.09081 0.34489 0.84388 0.0
H813 H 0.11409 0.27678 0.79779 0.0
H814 H 0.13897 0.36422 0.87899 0.0
H815 H 0.16395 0.29742 0.83164 0.0
H816 H 0.24781 0.33355 0.90424 0.0
H817 H 0.19105 0.30503 0.88147 0.0
H818 H 0.19738 0.39901 0.8734 0.0
H819 H 0.25295 0.42689 0.89723 0.0
C820 C 0.10612 0.33373 0.84165 0.0
C821 C 0.09868 0.30928 0.81823 0.0
C822 C 0.1341 0.34514 0.86148 0.0
C823 C 0.15619 0.33312 0.85786 0.0
C824 C 0.1476 0.30725 0.83547 0.0
C825 C 0.11899 0.29532 0.81599 0.0
C826 C 0.23666 0.34795 0.8983 0.0
C827 C 0.25504 0.38258 0.90271 0.0
C828 C 0.20419 0.33162 0.88484 0.0
C829 C 0.18929 0.34951 0.87526 0.0
C830 C 0.20733 0.384 0.88088 0.0
C831 C 0.23954 0.40019 0.89453 0.0
H832 H 0.78456 0.76542 0.75803 0.0
H833 H 0.86491 0.79908 0.82656 0.0
H834 H 0.76449 0.79815 0.78564 0.0
H835 H 0.84463 0.83156 0.85435 0.0
H836 H 0.82073 0.91222 0.87509 0.0
H837 H 0.84047 0.87991 0.84692 0.0
H838 H 0.73613 0.79922 0.83733 0.0
H839 H 0.71606 0.83206 0.86548 0.0
C840 C 0.79823 0.78009 0.77877 0.0
C841 C 0.82656 0.77973 0.7899 0.0
C842 C 0.7864 0.79856 0.79486 0.0
C843 C 0.8027 0.81735 0.82241 0.0
C844 C 0.83155 0.81761 0.83306 0.0
C845 C 0.84326 0.799 0.81708 0.0
C846 C 0.8018 0.88755 0.86712 0.0
C847 C 0.76667 0.87482 0.87265 0.0
C848 C 0.81325 0.8689 0.85105 0.0
C849 C 0.79 0.83688 0.83982 0.0
C850 C 0.75479 0.82395 0.84536 0.0
C851 C 0.74325 0.84265 0.86171 0.0
H852 H 0.61211 0.52689 0.5532 0.0
H853 H 0.51959 0.52882 0.56182 0.0
H854 H 0.64121 0.58114 0.52642 0.0
H855 H 0.54871 0.58305 0.53454 0.0
H856 H 0.62426 0.69351 0.49908 0.0
H857 H 0.59567 0.64385 0.53455 0.0
H858 H 0.63493 0.59701 0.47196 0.0
H859 H 0.66301 0.64562 0.43713 0.0
C860 C 0.59809 0.5391 0.54991 0.0
C861 C 0.56338 0.52323 0.55944 0.0
C862 C 0.61473 0.57016 0.53431 0.0
C863 C 0.59714 0.58626 0.52774 0.0
C864 C 0.56305 0.57144 0.5392 0.0
C865 C 0.54635 0.54026 0.5548 0.0
C866 C 0.62651 0.67247 0.49286 0.0
C867 C 0.64613 0.67381 0.46523 0.0
C868 C 0.61021 0.64406 0.5132 0.0
C869 C 0.61354 0.61662 0.50647 0.0
C870 C 0.63249 0.61789 0.47847 0.0
C871 C 0.64842 0.64587 0.45823 0.0
H872 H 0.57501 0.0912 0.58455 0.0
H873 H 0.56883 0.99709 0.58138 0.0
H874 H 0.52341 0.06773 0.55346 0.0
H875 H 0.51736 0.97374 0.5497 0.0
H876 H 0.41202 0.93928 0.50407 0.0
H877 H 0.4563 0.95753 0.54467 0.0
H878 H 0.51496 0.05295 0.49632 0.0
H879 H 0.4715 0.03518 0.4565 0.0
C880 C 0.56227 0.06529 0.57786 0.0
C881 C 0.57638 0.04621 0.58531 0.0
C882 C 0.53278 0.05187 0.55971 0.0
C883 C 0.51656 1.019 0.54838 0.0
C884 C 0.52911 0.99911 0.55797 0.0
C885 C 0.55869 1.01256 0.57619 0.0
C886 C 0.43444 0.96409 0.50214 0.0
C887 C 0.43798 0.98567 0.47691 0.0
C888 C 0.45982 0.97457 0.52541 0.0
C889 C 0.48902 1.00696 0.52415 0.0
C890 C 0.49254 0.02816 0.49867 0.0
C891 C 0.46756 1.01773 0.4755 0.0
H892 H 0.11928 0.43777 0.41775 0.0
H893 H 0.2046 0.48085 0.48128 0.0
H894 H 0.09309 0.46247 0.44998 0.0
H895 H 0.17806 0.50516 0.51395 0.0
H896 H 0.1327 0.56866 0.54667 0.0
H897 H 0.16165 0.54582 0.51575 0.0
H898 H 0.06477 0.45499 0.50237 0.0
H899 H 1.03576 0.47812 0.53278 0.0
C900 C 0.13273 0.45288 0.43836 0.0
C901 C 0.16418 0.45732 0.44676 0.0
C902 C 0.11743 0.46672 0.45718 0.0
C903 C 0.13306 0.48543 0.48504 0.0
C904 C 0.16522 0.49103 0.49267 0.0
C905 C 0.18054 0.47713 0.47383 0.0
C906 C 0.11757 0.54359 0.53762 0.0
C907 C 0.08179 0.52528 0.5423 0.0
C908 C 0.13425 0.53046 0.51979 0.0
C909 C 0.11563 0.49866 0.50603 0.0
C910 C 0.07998 0.47984 0.51191 0.0
C911 C 0.06331 0.49295 0.52978 0.0
H912 H 0.41685 0.49105 0.00104 0.0
H913 H 0.47708 0.46352 0.94155 0.0
H914 H 0.46272 0.51618 0.04049 0.0
H915 H 0.52181 0.48791 0.9805 0.0
H916 H 0.582 0.50204 0.0671 0.0
H917 H 0.52923 0.47516 0.03749 0.0
H918 H 0.52613 0.56447 0.04332 0.0
H919 H 0.57904 0.59152 0.07317 0.0
C920 C 0.43979 0.49051 -0.00377 0.0
C921 C 0.44311 0.47521 0.96801 0.0
C922 C 0.46599 0.5048 0.01884 0.0
C923 C 0.49567 0.5035 0.01392 0.0
C924 C 0.49904 0.48872 0.98548 0.0
C925 C 0.47334 0.47498 0.96289 0.0
C926 C 0.56971 0.51576 0.06287 0.0
C927 C 0.58509 0.54911 0.07228 0.0
C928 C 0.53953 0.5004 0.04566 0.0
C929 C 0.5238 0.51788 0.0375 0.0
C930 C 0.53758 0.55032 0.04919 0.0
C931 C 0.56796 0.56581 0.06631 0.0
H932 H 0.60217 0.88994 0.96072 0.0
H933 H 0.68905 0.98935 0.94593 0.0
H934 H 0.5689 0.91262 0.98288 0.0
H935 H 0.65719 1.01205 0.9701 0.0
H936 H 0.58531 0.0481 -0.0054 0.0
H937 H 0.61701 1.02564 0.96807 0.0
H938 H 0.55919 0.93622 0.02677 0.0
H939 H 0.52622 0.95789 0.05103 0.0
C940 C 0.61414 0.91663 0.96223 0.0
C941 C 0.64815 0.93775 0.95129 0.0
C942 C 0.59524 0.92981 0.97537 0.0
C943 C 0.61016 0.96447 0.97882 0.0
C944 C 0.6442 0.9854 0.96748 0.0
C945 C 0.66269 0.97227 0.95364 0.0
C946 C 0.57971 1.02378 0.00186 0.0
C947 C 0.55334 1.00479 0.02486 0.0
C948 C 0.59793 1.01075 0.98672 0.0
C949 C 0.59079 0.97869 -0.00517 0.0
C950 C 0.56504 0.96041 0.01882 0.0
C951 C 0.54634 0.97306 0.03321 0.0
H952 H 0.1185 0.64989 0.93533 0.0
H953 H 0.19986 0.70055 0.00278 0.0
H954 H 0.09384 0.5993 0.96803 0.0
H955 H 0.1751 0.64948 0.03548 0.0
H956 H 0.13189 0.53636 0.06333 0.0
H957 H 0.16111 0.58944 0.03368 0.0
H958 H 0.06473 0.58238 0.02356 0.0
H959 H 1.03559 0.52969 0.05325 0.0
C960 C 0.13153 0.65015 0.95682 0.0
C961 C 0.16125 0.67945 0.96633 0.0
C962 C 0.11712 0.62116 0.9758 0.0
C963 C 0.13216 0.62043 0.00469 0.0
C964 C 0.16283 0.6492 0.01341 0.0
C965 C 0.17707 0.67844 -0.00541 0.0
C966 C 0.11701 0.54648 0.05541 0.0
C967 C 0.0813 0.5286 0.06073 0.0
C968 C 0.13379 0.57689 0.03832 0.0
C969 C 0.1152 0.58991 0.02574 0.0
C970 C 0.07975 0.57278 0.03238 0.0
C971 C 0.06307 0.54268 0.04976 0.0
loop_
_geom_bond_atom_site_label_1
_geom_bond_atom_site_label_2
_geom_bond_distance
_geom_bond_site_symmetry_2
_ccdc_geom_bond_type
O0 Cd1 2.223 . S
O0 C8 1.315 . S
Cd1 O0 2.223 . S
Cd1 O4 2.297 . S
Cd1 O5 2.439 1_455 S
Cd1 O11 2.240 . S
Cd2 O3 2.240 . S
Cd2 O10 2.223 . S
Cd2 O12 2.297 1_455 S
Cd2 O13 2.439 1_455 S
O3 Cd2 2.240 . S
O3 C8 1.279 . S
O4 Cd1 2.297 . S
O4 C6 1.247 . S
O5 Cd1 2.439 1_655 S
O5 C6 1.208 1_655 S
C6 O4 1.247 . S
C6 O5 1.208 1_455 S
C7 O12 1.247 . S
C7 O13 1.208 . S
C8 O0 1.315 . S
C8 O3 1.279 . S
C9 O10 1.315 . S
C9 O11 1.279 . S
O10 Cd2 2.223 . S
O10 C9 1.315 . S
O11 Cd1 2.240 . S
O11 C9 1.279 . S
O12 Cd2 2.297 1_655 S
O12 C7 1.247 . S
O13 Cd2 2.439 1_655 S
O13 C7 1.208 . S
O14 Cd15 2.223 . S
O14 C22 1.315 . S
Cd15 O14 2.223 . S
Cd15 O18 2.297 . S
Cd15 O19 2.439 . S
Cd15 O25 2.240 . S
Cd16 O17 2.240 . S
Cd16 O24 2.223 . S
Cd16 O26 2.297 . S
Cd16 O27 2.439 . S
O17 Cd16 2.240 . S
O17 C22 1.279 . S
O18 Cd15 2.297 . S
O18 C20 1.247 . S
O19 Cd15 2.439 . S
O19 C20 1.208 . S
C20 O18 1.247 . S
C20 O19 1.208 . S
C21 O26 1.247 . S
C21 O27 1.208 . S
C22 O14 1.315 . S
C22 O17 1.279 . S
C23 O24 1.315 . S
C23 O25 1.279 . S
O24 Cd16 2.223 . S
O24 C23 1.315 . S
O25 Cd15 2.240 . S
O25 C23 1.279 . S
O26 Cd16 2.297 . S
O26 C21 1.247 . S
O27 Cd16 2.439 . S
O27 C21 1.208 . S
O28 Cd29 2.223 . S
O28 C36 1.315 . S
Cd29 O28 2.223 . S
Cd29 O32 2.297 . S
Cd29 O33 2.439 1_545 S
Cd29 O39 2.240 . S
Cd30 O31 2.240 . S
Cd30 O38 2.223 . S
Cd30 O40 2.297 1_545 S
Cd30 O41 2.439 1_545 S
O31 Cd30 2.240 . S
O31 C36 1.279 . S
O32 Cd29 2.297 . S
O32 C34 1.247 . S
O33 Cd29 2.439 1_565 S
O33 C34 1.208 1_565 S
C34 O32 1.247 . S
C34 O33 1.208 1_545 S
C35 O40 1.247 . S
C35 O41 1.208 . S
C36 O28 1.315 . S
C36 O31 1.279 . S
C37 O38 1.315 . S
C37 O39 1.279 . S
O38 Cd30 2.223 . S
O38 C37 1.315 . S
O39 Cd29 2.240 . S
O39 C37 1.279 . S
O40 Cd30 2.297 1_565 S
O40 C35 1.247 . S
O41 Cd30 2.439 1_565 S
O41 C35 1.208 . S
O42 Cd43 2.223 . S
O42 C50 1.315 . S
Cd43 O42 2.223 . S
Cd43 O46 2.297 . S
Cd43 O47 2.439 1_455 S
Cd43 O53 2.240 . S
Cd44 O45 2.240 . S
Cd44 O52 2.223 . S
Cd44 O54 2.297 1_455 S
Cd44 O55 2.439 1_455 S
O45 Cd44 2.240 . S
O45 C50 1.279 . S
O46 Cd43 2.297 . S
O46 C48 1.247 . S
O47 Cd43 2.439 1_655 S
O47 C48 1.208 1_655 S
C48 O46 1.247 . S
C48 O47 1.208 1_455 S
C49 O54 1.247 . S
C49 O55 1.208 . S
C50 O42 1.315 . S
C50 O45 1.279 . S
C51 O52 1.315 . S
C51 O53 1.279 . S
O52 Cd44 2.223 . S
O52 C51 1.315 . S
O53 Cd43 2.240 . S
O53 C51 1.279 . S
O54 Cd44 2.297 1_655 S
O54 C49 1.247 . S
O55 Cd44 2.439 1_655 S
O55 C49 1.208 . S
O56 Cd57 2.223 . S
O56 C64 1.315 . S
Cd57 O56 2.223 . S
Cd57 O60 2.297 . S
Cd57 O61 2.439 . S
Cd57 O67 2.240 . S
Cd58 O59 2.240 . S
Cd58 O66 2.223 . S
Cd58 O68 2.297 . S
Cd58 O69 2.439 . S
O59 Cd58 2.240 . S
O59 C64 1.279 . S
O60 Cd57 2.297 . S
O60 C62 1.247 . S
O61 Cd57 2.439 . S
O61 C62 1.208 . S
C62 O60 1.247 . S
C62 O61 1.208 . S
C63 O68 1.247 . S
C63 O69 1.208 . S
C64 O56 1.315 . S
C64 O59 1.279 . S
C65 O66 1.315 . S
C65 O67 1.279 . S
O66 Cd58 2.223 . S
O66 C65 1.315 . S
O67 Cd57 2.240 . S
O67 C65 1.279 . S
O68 Cd58 2.297 . S
O68 C63 1.247 . S
O69 Cd58 2.439 . S
O69 C63 1.208 . S
O70 Cd71 2.222 1_565 S
O70 C78 1.315 . S
Cd71 O70 2.222 1_545 S
Cd71 O74 2.297 . S
Cd71 O75 2.441 . S
Cd71 O81 2.241 . S
Cd72 O73 2.240 1_545 S
Cd72 O80 2.223 1_545 S
Cd72 O82 2.297 . S
Cd72 O83 2.439 . S
O73 Cd72 2.240 1_565 S
O73 C78 1.279 . S
O74 Cd71 2.297 . S
O74 C76 1.247 . S
O75 Cd71 2.441 . S
O75 C76 1.208 . S
C76 O74 1.247 . S
C76 O75 1.208 . S
C77 O82 1.247 . S
C77 O83 1.208 . S
C78 O70 1.315 . S
C78 O73 1.279 . S
C79 O80 1.315 . S
C79 O81 1.279 1_565 S
O80 Cd72 2.223 1_565 S
O80 C79 1.315 . S
O81 Cd71 2.241 . S
O81 C79 1.279 1_545 S
O82 Cd72 2.297 . S
O82 C77 1.247 . S
O83 Cd72 2.439 . S
O83 C77 1.208 . S
O84 Cd85 2.223 . S
O84 C92 1.315 . S
Cd85 O84 2.223 . S
Cd85 O88 2.297 . S
Cd85 O89 2.439 . S
Cd85 O95 2.240 . S
Cd86 O87 2.240 . S
Cd86 O94 2.223 . S
Cd86 O96 2.297 . S
Cd86 O97 2.439 . S
O87 Cd86 2.240 . S
O87 C92 1.279 . S
O88 Cd85 2.297 . S
O88 C90 1.247 . S
O89 Cd85 2.439 . S
O89 C90 1.208 . S
C90 O88 1.247 . S
C90 O89 1.208 . S
C91 O96 1.247 . S
C91 O97 1.208 . S
C92 O84 1.315 . S
C92 O87 1.279 . S
C93 O94 1.315 . S
C93 O95 1.279 . S
O94 Cd86 2.223 . S
O94 C93 1.315 . S
O95 Cd85 2.240 . S
O95 C93 1.279 . S
O96 Cd86 2.297 . S
O96 C91 1.247 . S
O97 Cd86 2.439 . S
O97 C91 1.208 . S
O98 Cd99 2.223 . S
O98 C106 1.315 . S
Cd99 O98 2.223 . S
Cd99 O102 2.297 . S
Cd99 O103 2.439 . S
Cd99 O109 2.240 . S
Cd100 O101 2.240 . S
Cd100 O108 2.223 . S
Cd100 O110 2.297 . S
Cd100 O111 2.439 . S
O101 Cd100 2.240 . S
O101 C106 1.279 . S
O102 Cd99 2.297 . S
O102 C104 1.247 . S
O103 Cd99 2.439 . S
O103 C104 1.208 . S
C104 O102 1.247 . S
C104 O103 1.208 . S
C105 O110 1.247 . S
C105 O111 1.208 . S
C106 O98 1.315 . S
C106 O101 1.279 . S
C107 O108 1.315 . S
C107 O109 1.279 . S
O108 Cd100 2.223 . S
O108 C107 1.315 . S
O109 Cd99 2.240 . S
O109 C107 1.279 . S
O110 Cd100 2.297 . S
O110 C105 1.247 . S
O111 Cd100 2.439 . S
O111 C105 1.208 . S
O112 Cd113 2.223 . S
O112 C120 1.315 . S
Cd113 O112 2.223 . S
Cd113 O116 2.297 . S
Cd113 O117 2.439 . S
Cd113 O123 2.240 . S
Cd114 O115 2.240 . S
Cd114 O122 2.223 . S
Cd114 O124 2.297 . S
Cd114 O125 2.439 . S
O115 Cd114 2.240 . S
O115 C120 1.279 . S
O116 Cd113 2.297 . S
O116 C118 1.247 . S
O117 Cd113 2.439 . S
O117 C118 1.208 . S
C118 O116 1.247 . S
C118 O117 1.208 . S
C119 O124 1.247 . S
C119 O125 1.208 . S
C120 O112 1.315 . S
C120 O115 1.279 . S
C121 O122 1.315 . S
C121 O123 1.279 . S
O122 Cd114 2.223 . S
O122 C121 1.315 . S
O123 Cd113 2.240 . S
O123 C121 1.279 . S
O124 Cd114 2.297 . S
O124 C119 1.247 . S
O125 Cd114 2.439 . S
O125 C119 1.208 . S
O126 Cd127 2.223 . S
O126 C134 1.315 . S
Cd127 O126 2.223 . S
Cd127 O130 2.297 . S
Cd127 O131 2.439 . S
Cd127 O137 2.240 . S
Cd128 O129 2.240 . S
Cd128 O136 2.223 . S
Cd128 O138 2.297 . S
Cd128 O139 2.439 . S
O129 Cd128 2.240 . S
O129 C134 1.279 . S
O130 Cd127 2.297 . S
O130 C132 1.247 . S
O131 Cd127 2.439 . S
O131 C132 1.208 . S
C132 O130 1.247 . S
C132 O131 1.208 . S
C133 O138 1.247 . S
C133 O139 1.208 . S
C134 O126 1.315 . S
C134 O129 1.279 . S
C135 O136 1.315 . S
C135 O137 1.279 . S
O136 Cd128 2.223 . S
O136 C135 1.315 . S
O137 Cd127 2.240 . S
O137 C135 1.279 . S
O138 Cd128 2.297 . S
O138 C133 1.247 . S
O139 Cd128 2.439 . S
O139 C133 1.208 . S
O140 Cd141 2.223 . S
O140 C148 1.315 . S
Cd141 O140 2.223 . S
Cd141 O144 2.297 . S
Cd141 O145 2.439 . S
Cd141 O151 2.240 . S
Cd142 O143 2.240 . S
Cd142 O150 2.223 . S
Cd142 O152 2.297 . S
Cd142 O153 2.439 . S
O143 Cd142 2.240 . S
O143 C148 1.279 . S
O144 Cd141 2.297 . S
O144 C146 1.247 . S
O145 Cd141 2.439 . S
O145 C146 1.208 . S
C146 O144 1.247 . S
C146 O145 1.208 . S
C147 O152 1.247 . S
C147 O153 1.208 . S
C148 O140 1.315 . S
C148 O143 1.279 . S
C149 O150 1.315 . S
C149 O151 1.279 . S
O150 Cd142 2.223 . S
O150 C149 1.315 . S
O151 Cd141 2.240 . S
O151 C149 1.279 . S
O152 Cd142 2.297 . S
O152 C147 1.247 . S
O153 Cd142 2.439 . S
O153 C147 1.208 . S
O154 Cd155 2.223 . S
O154 C162 1.315 . S
Cd155 O154 2.223 . S
Cd155 O158 2.297 1_655 S
Cd155 O159 2.439 . S
Cd155 O165 2.240 . S
Cd156 O157 2.240 . S
Cd156 O164 2.223 . S
Cd156 O166 2.297 . S
Cd156 O167 2.439 . S
O157 Cd156 2.240 . S
O157 C162 1.279 . S
O158 Cd155 2.297 1_455 S
O158 C160 1.247 . S
O159 Cd155 2.439 . S
O159 C160 1.208 1_655 S
C160 O158 1.247 . S
C160 O159 1.208 1_455 S
C161 O166 1.247 . S
C161 O167 1.208 . S
C162 O154 1.315 . S
C162 O157 1.279 . S
C163 O164 1.315 . S
C163 O165 1.279 . S
O164 Cd156 2.223 . S
O164 C163 1.315 . S
O165 Cd155 2.240 . S
O165 C163 1.279 . S
O166 Cd156 2.297 . S
O166 C161 1.247 . S
O167 Cd156 2.439 . S
O167 C161 1.208 . S
O168 Cd169 2.223 . S
O168 C176 1.315 . S
Cd169 O168 2.223 . S
Cd169 O172 2.297 . S
Cd169 O173 2.439 . S
Cd169 O179 2.240 . S
Cd170 O171 2.240 . S
Cd170 O178 2.223 . S
Cd170 O180 2.297 . S
Cd170 O181 2.439 . S
O171 Cd170 2.240 . S
O171 C176 1.279 . S
O172 Cd169 2.297 . S
O172 C174 1.247 . S
O173 Cd169 2.439 . S
O173 C174 1.208 . S
C174 O172 1.247 . S
C174 O173 1.208 . S
C175 O180 1.247 . S
C175 O181 1.208 . S
C176 O168 1.315 . S
C176 O171 1.279 . S
C177 O178 1.315 . S
C177 O179 1.279 . S
O178 Cd170 2.223 . S
O178 C177 1.315 . S
O179 Cd169 2.240 . S
O179 C177 1.279 . S
O180 Cd170 2.297 . S
O180 C175 1.247 . S
O181 Cd170 2.439 . S
O181 C175 1.208 . S
O182 Cd183 2.223 . S
O182 C190 1.315 . S
Cd183 O182 2.223 . S
Cd183 O186 2.297 . S
Cd183 O187 2.439 . S
Cd183 O193 2.240 . S
Cd184 O185 2.240 . S
Cd184 O192 2.223 . S
Cd184 O194 2.297 . S
Cd184 O195 2.439 . S
O185 Cd184 2.240 . S
O185 C190 1.279 . S
O186 Cd183 2.297 . S
O186 C188 1.247 . S
O187 Cd183 2.439 . S
O187 C188 1.208 . S
C188 O186 1.247 . S
C188 O187 1.208 . S
C189 O194 1.247 . S
C189 O195 1.208 . S
C190 O182 1.315 . S
C190 O185 1.279 . S
C191 O192 1.315 . S
C191 O193 1.279 . S
O192 Cd184 2.223 . S
O192 C191 1.315 . S
O193 Cd183 2.240 . S
O193 C191 1.279 . S
O194 Cd184 2.297 . S
O194 C189 1.247 . S
O195 Cd184 2.439 . S
O195 C189 1.208 . S
O196 Cd197 2.223 . S
O196 C204 1.315 . S
Cd197 O196 2.223 . S
Cd197 O200 2.297 . S
Cd197 O201 2.439 . S
Cd197 O207 2.240 . S
Cd198 O199 2.240 . S
Cd198 O206 2.223 . S
Cd198 O208 2.297 . S
Cd198 O209 2.439 . S
O199 Cd198 2.240 . S
O199 C204 1.279 . S
O200 Cd197 2.297 . S
O200 C202 1.247 . S
O201 Cd197 2.439 . S
O201 C202 1.208 . S
C202 O200 1.247 . S
C202 O201 1.208 . S
C203 O208 1.247 . S
C203 O209 1.208 . S
C204 O196 1.315 . S
C204 O199 1.279 . S
C205 O206 1.315 . S
C205 O207 1.279 . S
O206 Cd198 2.223 . S
O206 C205 1.315 . S
O207 Cd197 2.240 . S
O207 C205 1.279 . S
O208 Cd198 2.297 . S
O208 C203 1.247 . S
O209 Cd198 2.439 . S
O209 C203 1.208 . S
O210 Cd211 2.223 . S
O210 C218 1.315 . S
Cd211 O210 2.223 . S
Cd211 O214 2.297 . S
Cd211 O215 2.439 . S
Cd211 O221 2.240 . S
Cd212 O213 2.240 . S
Cd212 O220 2.223 . S
Cd212 O222 2.297 . S
Cd212 O223 2.439 . S
O213 Cd212 2.240 . S
O213 C218 1.279 . S
O214 Cd211 2.297 . S
O214 C216 1.247 . S
O215 Cd211 2.439 . S
O215 C216 1.208 . S
C216 O214 1.247 . S
C216 O215 1.208 . S
C217 O222 1.247 . S
C217 O223 1.208 . S
C218 O210 1.315 . S
C218 O213 1.279 . S
C219 O220 1.315 . S
C219 O221 1.279 . S
O220 Cd212 2.223 . S
O220 C219 1.315 . S
O221 Cd211 2.240 . S
O221 C219 1.279 . S
O222 Cd212 2.297 . S
O222 C217 1.247 . S
O223 Cd212 2.439 . S
O223 C217 1.208 . S
O224 Cd225 2.223 . S
O224 C232 1.315 . S
Cd225 O224 2.223 . S
Cd225 O228 2.297 . S
Cd225 O229 2.439 . S
Cd225 O235 2.240 . S
Cd226 O227 2.240 . S
Cd226 O234 2.223 . S
Cd226 O236 2.297 . S
Cd226 O237 2.439 . S
O227 Cd226 2.240 . S
O227 C232 1.279 . S
O228 Cd225 2.297 . S
O228 C230 1.247 . S
O229 Cd225 2.439 . S
O229 C230 1.208 . S
C230 O228 1.247 . S
C230 O229 1.208 . S
C231 O236 1.247 . S
C231 O237 1.208 . S
C232 O224 1.315 . S
C232 O227 1.279 . S
C233 O234 1.315 . S
C233 O235 1.279 . S
O234 Cd226 2.223 . S
O234 C233 1.315 . S
O235 Cd225 2.240 . S
O235 C233 1.279 . S
O236 Cd226 2.297 . S
O236 C231 1.247 . S
O237 Cd226 2.439 . S
O237 C231 1.208 . S
O238 Cd239 2.223 . S
O238 C246 1.315 . S
Cd239 O238 2.223 . S
Cd239 O242 2.297 . S
Cd239 O243 2.439 . S
Cd239 O249 2.240 . S
Cd240 O241 2.240 . S
Cd240 O248 2.223 . S
Cd240 O250 2.297 . S
Cd240 O251 2.439 . S
O241 Cd240 2.240 . S
O241 C246 1.279 . S
O242 Cd239 2.297 . S
O242 C244 1.247 . S
O243 Cd239 2.439 . S
O243 C244 1.208 . S
C244 O242 1.247 . S
C244 O243 1.208 . S
C245 O250 1.247 . S
C245 O251 1.208 . S
C246 O238 1.315 . S
C246 O241 1.279 . S
C247 O248 1.315 . S
C247 O249 1.279 . S
O248 Cd240 2.223 . S
O248 C247 1.315 . S
O249 Cd239 2.240 . S
O249 C247 1.279 . S
O250 Cd240 2.297 . S
O250 C245 1.247 . S
O251 Cd240 2.439 . S
O251 C245 1.208 . S
H252 C260 0.950 . S
H253 C265 0.950 . S
H254 C262 0.950 . S
H255 C264 0.950 . S
H256 C266 0.950 . S
H257 C268 0.950 . S
H258 C270 0.950 . S
H259 C271 0.950 . S
C260 H252 0.950 . S
C260 C261 1.386 . S
C260 C262 1.391 . S
C261 C260 1.386 . S
C261 C265 1.393 . S
C262 H254 0.950 . S
C262 C260 1.391 . S
C262 C263 1.400 . S
C263 C262 1.400 . S
C263 C264 1.398 . S
C263 C269 1.491 . S
C264 H255 0.950 . S
C264 C263 1.398 . S
C264 C265 1.391 . S
C265 H253 0.950 . S
C265 C261 1.393 . S
C265 C264 1.391 . S
C266 H256 0.950 . S
C266 C267 1.386 . S
C266 C268 1.391 . S
C267 C266 1.386 . S
C267 C271 1.393 . S
C268 H257 0.950 . S
C268 C266 1.391 . S
C268 C269 1.400 . S
C269 C263 1.491 . S
C269 C268 1.400 . S
C269 C270 1.398 . S
C270 H258 0.950 . S
C270 C269 1.398 . S
C270 C271 1.391 . S
C271 H259 0.950 . S
C271 C267 1.393 . S
C271 C270 1.391 . S
H272 C280 0.950 . S
H273 C285 0.950 . S
H274 C282 0.950 . S
H275 C284 0.950 . S
H276 C286 0.950 . S
H277 C288 0.950 . S
H278 C290 0.950 . S
H279 C291 0.950 . S
C280 H272 0.950 . S
C280 C281 1.386 . S
C280 C282 1.391 . S
C281 C280 1.386 . S
C281 C285 1.393 . S
C282 H274 0.950 . S
C282 C280 1.391 . S
C282 C283 1.400 . S
C283 C282 1.400 . S
C283 C284 1.398 . S
C283 C289 1.491 . S
C284 H275 0.950 . S
C284 C283 1.398 . S
C284 C285 1.391 . S
C285 H273 0.950 . S
C285 C281 1.393 . S
C285 C284 1.391 . S
C286 H276 0.950 . S
C286 C287 1.386 . S
C286 C288 1.391 . S
C287 C286 1.386 . S
C287 C291 1.393 . S
C288 H277 0.950 . S
C288 C286 1.391 . S
C288 C289 1.400 . S
C289 C283 1.491 . S
C289 C288 1.400 . S
C289 C290 1.398 . S
C290 H278 0.950 . S
C290 C289 1.398 . S
C290 C291 1.391 . S
C291 H279 0.950 . S
C291 C287 1.393 . S
C291 C290 1.391 . S
H292 C300 0.950 . S
H293 C305 0.950 . S
H294 C302 0.950 . S
H295 C304 0.950 . S
H296 C306 0.950 . S
H297 C308 0.950 1_545 S
H298 C310 0.950 . S
H299 C311 0.950 . S
C300 H292 0.950 . S
C300 C301 1.386 . S
C300 C302 1.391 . S
C301 C300 1.386 . S
C301 C305 1.393 1_565 S
C302 H294 0.950 . S
C302 C300 1.391 . S
C302 C303 1.400 . S
C303 C302 1.400 . S
C303 C304 1.398 1_565 S
C303 C309 1.491 . S
C304 H295 0.950 . S
C304 C303 1.398 1_545 S
C304 C305 1.391 . S
C305 H293 0.950 . S
C305 C301 1.393 1_545 S
C305 C304 1.391 . S
C306 H296 0.950 . S
C306 C307 1.386 . S
C306 C308 1.391 1_556 S
C307 C306 1.386 . S
C307 C311 1.393 1_556 S
C308 H297 0.950 1_565 S
C308 C306 1.391 1_554 S
C308 C309 1.400 . S
C309 C303 1.491 . S
C309 C308 1.400 . S
C309 C310 1.398 . S
C310 H298 0.950 . S
C310 C309 1.398 . S
C310 C311 1.391 . S
C311 H299 0.950 . S
C311 C307 1.393 1_554 S
C311 C310 1.391 . S
H312 C320 0.950 . S
H313 C325 0.950 . S
H314 C322 0.950 . S
H315 C324 0.950 . S
H316 C326 0.950 . S
H317 C328 0.950 . S
H318 C330 0.950 . S
H319 C331 0.950 . S
C320 H312 0.950 . S
C320 C321 1.386 . S
C320 C322 1.391 . S
C321 C320 1.386 . S
C321 C325 1.393 . S
C322 H314 0.950 . S
C322 C320 1.391 . S
C322 C323 1.400 . S
C323 C322 1.400 . S
C323 C324 1.398 . S
C323 C329 1.491 . S
C324 H315 0.950 . S
C324 C323 1.398 . S
C324 C325 1.391 . S
C325 H313 0.950 . S
C325 C321 1.393 . S
C325 C324 1.391 . S
C326 H316 0.950 . S
C326 C327 1.386 . S
C326 C328 1.391 . S
C327 C326 1.386 . S
C327 C331 1.393 . S
C328 H317 0.950 . S
C328 C326 1.391 . S
C328 C329 1.400 . S
C329 C323 1.491 . S
C329 C328 1.400 . S
C329 C330 1.398 . S
C330 H318 0.950 . S
C330 C329 1.398 . S
C330 C331 1.391 . S
C331 H319 0.950 . S
C331 C327 1.393 . S
C331 C330 1.391 . S
H332 C340 0.950 . S
H333 C345 0.950 1_455 S
H334 C342 0.950 . S
H335 C344 0.950 1_455 S
H336 C346 0.950 . S
H337 C348 0.950 . S
H338 C350 0.950 . S
H339 C351 0.950 . S
C340 H332 0.950 . S
C340 C341 1.386 . S
C340 C342 1.391 . S
C341 C340 1.386 . S
C341 C345 1.393 . S
C342 H334 0.950 . S
C342 C340 1.391 . S
C342 C343 1.400 . S
C343 C342 1.400 . S
C343 C344 1.398 . S
C343 C349 1.491 . S
C344 H335 0.950 1_655 S
C344 C343 1.398 . S
C344 C345 1.391 . S
C345 H333 0.950 1_655 S
C345 C341 1.393 . S
C345 C344 1.391 . S
C346 H336 0.950 . S
C346 C347 1.386 1_455 S
C346 C348 1.391 . S
C347 C346 1.386 1_655 S
C347 C351 1.393 . S
C348 H337 0.950 . S
C348 C346 1.391 . S
C348 C349 1.400 1_455 S
C349 C343 1.491 . S
C349 C348 1.400 1_655 S
C349 C350 1.398 . S
C350 H338 0.950 . S
C350 C349 1.398 . S
C350 C351 1.391 . S
C351 H339 0.950 . S
C351 C347 1.393 . S
C351 C350 1.391 . S
H352 C360 0.950 . S
H353 C365 0.950 . S
H354 C362 0.950 . S
H355 C364 0.950 . S
H356 C366 0.950 . S
H357 C368 0.950 . S
H358 C370 0.950 . S
H359 C371 0.950 . S
C360 H352 0.950 . S
C360 C361 1.386 . S
C360 C362 1.391 . S
C361 C360 1.386 . S
C361 C365 1.393 . S
C362 H354 0.950 . S
C362 C360 1.391 . S
C362 C363 1.400 . S
C363 C362 1.400 . S
C363 C364 1.398 . S
C363 C369 1.491 . S
C364 H355 0.950 . S
C364 C363 1.398 . S
C364 C365 1.391 . S
C365 H353 0.950 . S
C365 C361 1.393 . S
C365 C364 1.391 . S
C366 H356 0.950 . S
C366 C367 1.386 . S
C366 C368 1.391 . S
C367 C366 1.386 . S
C367 C371 1.393 . S
C368 H357 0.950 . S
C368 C366 1.391 . S
C368 C369 1.400 . S
C369 C363 1.491 . S
C369 C368 1.400 . S
C369 C370 1.398 . S
C370 H358 0.950 . S
C370 C369 1.398 . S
C370 C371 1.391 . S
C371 H359 0.950 . S
C371 C367 1.393 . S
C371 C370 1.391 . S
H372 C380 0.950 . S
H373 C385 0.950 . S
H374 C382 0.950 . S
H375 C384 0.950 . S
H376 C386 0.950 . S
H377 C388 0.950 . S
H378 C390 0.950 . S
H379 C391 0.950 . S
C380 H372 0.950 . S
C380 C381 1.386 . S
C380 C382 1.391 . S
C381 C380 1.386 . S
C381 C385 1.393 . S
C382 H374 0.950 . S
C382 C380 1.391 . S
C382 C383 1.400 . S
C383 C382 1.400 . S
C383 C384 1.398 . S
C383 C389 1.491 . S
C384 H375 0.950 . S
C384 C383 1.398 . S
C384 C385 1.391 . S
C385 H373 0.950 . S
C385 C381 1.393 . S
C385 C384 1.391 . S
C386 H376 0.950 . S
C386 C387 1.386 . S
C386 C388 1.391 1_554 S
C387 C386 1.386 . S
C387 C391 1.393 1_554 S
C388 H377 0.950 . S
C388 C386 1.391 1_556 S
C388 C389 1.400 . S
C389 C383 1.491 . S
C389 C388 1.400 . S
C389 C390 1.398 . S
C390 H378 0.950 . S
C390 C389 1.398 . S
C390 C391 1.391 . S
C391 H379 0.950 . S
C391 C387 1.393 1_556 S
C391 C390 1.391 . S
H392 C400 0.950 . S
H393 C405 0.950 . S
H394 C402 0.950 . S
H395 C404 0.950 . S
H396 C406 0.950 . S
H397 C408 0.950 . S
H398 C410 0.950 . S
H399 C411 0.950 . S
C400 H392 0.950 . S
C400 C401 1.386 . S
C400 C402 1.391 . S
C401 C400 1.386 . S
C401 C405 1.393 . S
C402 H394 0.950 . S
C402 C400 1.391 . S
C402 C403 1.400 . S
C403 C402 1.400 . S
C403 C404 1.398 . S
C403 C409 1.491 . S
C404 H395 0.950 . S
C404 C403 1.398 . S
C404 C405 1.391 . S
C405 H393 0.950 . S
C405 C401 1.393 . S
C405 C404 1.391 . S
C406 H396 0.950 . S
C406 C407 1.386 . S
C406 C408 1.391 . S
C407 C406 1.386 . S
C407 C411 1.393 . S
C408 H397 0.950 . S
C408 C406 1.391 . S
C408 C409 1.400 . S
C409 C403 1.491 . S
C409 C408 1.400 . S
C409 C410 1.398 . S
C410 H398 0.950 . S
C410 C409 1.398 . S
C410 C411 1.391 . S
C411 H399 0.950 . S
C411 C407 1.393 . S
C411 C410 1.391 . S
H412 C420 0.950 . S
H413 C425 0.950 . S
H414 C422 0.950 . S
H415 C424 0.950 . S
H416 C426 0.950 1_565 S
H417 C428 0.950 . S
H418 C430 0.950 . S
H419 C431 0.950 . S
C420 H412 0.950 . S
C420 C421 1.386 1_556 S
C420 C422 1.391 . S
C421 C420 1.386 1_554 S
C421 C425 1.393 . S
C422 H414 0.950 . S
C422 C420 1.391 . S
C422 C423 1.400 . S
C423 C422 1.400 . S
C423 C424 1.398 . S
C423 C429 1.491 . S
C424 H415 0.950 . S
C424 C423 1.398 . S
C424 C425 1.391 1_556 S
C425 H413 0.950 . S
C425 C421 1.393 . S
C425 C424 1.391 1_554 S
C426 H416 0.950 1_545 S
C426 C427 1.386 . S
C426 C428 1.391 . S
C427 C426 1.386 . S
C427 C431 1.393 . S
C428 H417 0.950 . S
C428 C426 1.391 . S
C428 C429 1.400 . S
C429 C423 1.491 . S
C429 C428 1.400 . S
C429 C430 1.398 . S
C430 H418 0.950 . S
C430 C429 1.398 . S
C430 C431 1.391 . S
C431 H419 0.950 . S
C431 C427 1.393 . S
C431 C430 1.391 . S
H432 C440 0.950 . S
H433 C445 0.950 1_545 S
H434 C442 0.950 . S
H435 C444 0.950 . S
H436 C446 0.950 . S
H437 C448 0.950 . S
H438 C450 0.950 . S
H439 C451 0.950 . S
C440 H432 0.950 . S
C440 C441 1.386 . S
C440 C442 1.391 . S
C441 C440 1.386 . S
C441 C445 1.393 . S
C442 H434 0.950 . S
C442 C440 1.391 . S
C442 C443 1.400 . S
C443 C442 1.400 . S
C443 C444 1.398 . S
C443 C449 1.491 . S
C444 H435 0.950 . S
C444 C443 1.398 . S
C444 C445 1.391 . S
C445 H433 0.950 1_565 S
C445 C441 1.393 . S
C445 C444 1.391 . S
C446 H436 0.950 . S
C446 C447 1.386 . S
C446 C448 1.391 . S
C447 C446 1.386 . S
C447 C451 1.393 . S
C448 H437 0.950 . S
C448 C446 1.391 . S
C448 C449 1.400 . S
C449 C443 1.491 . S
C449 C448 1.400 . S
C449 C450 1.398 . S
C450 H438 0.950 . S
C450 C449 1.398 . S
C450 C451 1.391 . S
C451 H439 0.950 . S
C451 C447 1.393 . S
C451 C450 1.391 . S
H452 C460 0.950 . S
H453 C465 0.950 . S
H454 C462 0.950 . S
H455 C464 0.950 . S
H456 C466 0.950 . S
H457 C468 0.950 . S
H458 C470 0.950 . S
H459 C471 0.950 . S
C460 H452 0.950 . S
C460 C461 1.386 . S
C460 C462 1.391 . S
C461 C460 1.386 . S
C461 C465 1.393 . S
C462 H454 0.950 . S
C462 C460 1.391 . S
C462 C463 1.400 . S
C463 C462 1.400 . S
C463 C464 1.398 . S
C463 C469 1.491 . S
C464 H455 0.950 . S
C464 C463 1.398 . S
C464 C465 1.391 . S
C465 H453 0.950 . S
C465 C461 1.393 . S
C465 C464 1.391 . S
C466 H456 0.950 . S
C466 C467 1.386 . S
C466 C468 1.391 . S
C467 C466 1.386 . S
C467 C471 1.393 . S
C468 H457 0.950 . S
C468 C466 1.391 . S
C468 C469 1.400 . S
C469 C463 1.491 . S
C469 C468 1.400 . S
C469 C470 1.398 . S
C470 H458 0.950 . S
C470 C469 1.398 . S
C470 C471 1.391 . S
C471 H459 0.950 . S
C471 C467 1.393 . S
C471 C470 1.391 . S
H472 C480 0.950 . S
H473 C485 0.950 . S
H474 C482 0.950 . S
H475 C484 0.950 . S
H476 C486 0.950 . S
H477 C488 0.950 . S
H478 C490 0.950 . S
H479 C491 0.950 . S
C480 H472 0.950 . S
C480 C481 1.386 . S
C480 C482 1.391 . S
C481 C480 1.386 . S
C481 C485 1.393 . S
C482 H474 0.950 . S
C482 C480 1.391 . S
C482 C483 1.400 . S
C483 C482 1.400 . S
C483 C484 1.398 . S
C483 C489 1.491 . S
C484 H475 0.950 . S
C484 C483 1.398 . S
C484 C485 1.391 . S
C485 H473 0.950 . S
C485 C481 1.393 . S
C485 C484 1.391 . S
C486 H476 0.950 . S
C486 C487 1.386 . S
C486 C488 1.391 . S
C487 C486 1.386 . S
C487 C491 1.393 . S
C488 H477 0.950 . S
C488 C486 1.391 . S
C488 C489 1.400 . S
C489 C483 1.491 . S
C489 C488 1.400 . S
C489 C490 1.398 . S
C490 H478 0.950 . S
C490 C489 1.398 . S
C490 C491 1.391 . S
C491 H479 0.950 . S
C491 C487 1.393 . S
C491 C490 1.391 . S
H492 C500 0.950 . S
H493 C505 0.950 . S
H494 C502 0.950 . S
H495 C504 0.950 . S
H496 C506 0.950 . S
H497 C508 0.950 . S
H498 C510 0.950 . S
H499 C511 0.950 . S
C500 H492 0.950 . S
C500 C501 1.386 . S
C500 C502 1.391 . S
C501 C500 1.386 . S
C501 C505 1.393 . S
C502 H494 0.950 . S
C502 C500 1.391 . S
C502 C503 1.400 . S
C503 C502 1.400 . S
C503 C504 1.398 . S
C503 C509 1.491 . S
C504 H495 0.950 . S
C504 C503 1.398 . S
C504 C505 1.391 . S
C505 H493 0.950 . S
C505 C501 1.393 . S
C505 C504 1.391 . S
C506 H496 0.950 . S
C506 C507 1.386 . S
C506 C508 1.391 . S
C507 C506 1.386 . S
C507 C511 1.393 . S
C508 H497 0.950 . S
C508 C506 1.391 . S
C508 C509 1.400 . S
C509 C503 1.491 . S
C509 C508 1.400 . S
C509 C510 1.398 . S
C510 H498 0.950 . S
C510 C509 1.398 . S
C510 C511 1.391 . S
C511 H499 0.950 . S
C511 C507 1.393 . S
C511 C510 1.391 . S
H512 C520 0.950 . S
H513 C525 0.950 . S
H514 C522 0.950 1_565 S
H515 C524 0.950 . S
H516 C526 0.950 . S
H517 C528 0.950 . S
H518 C530 0.950 . S
H519 C531 0.950 . S
C520 H512 0.950 . S
C520 C521 1.386 . S
C520 C522 1.391 . S
C521 C520 1.386 . S
C521 C525 1.393 . S
C522 H514 0.950 1_545 S
C522 C520 1.391 . S
C522 C523 1.400 . S
C523 C522 1.400 . S
C523 C524 1.398 . S
C523 C529 1.491 . S
C524 H515 0.950 . S
C524 C523 1.398 . S
C524 C525 1.391 . S
C525 H513 0.950 . S
C525 C521 1.393 . S
C525 C524 1.391 . S
C526 H516 0.950 . S
C526 C527 1.386 1_545 S
C526 C528 1.391 . S
C527 C526 1.386 1_565 S
C527 C531 1.393 . S
C528 H517 0.950 . S
C528 C526 1.391 . S
C528 C529 1.400 . S
C529 C523 1.491 . S
C529 C528 1.400 . S
C529 C530 1.398 1_545 S
C530 H518 0.950 . S
C530 C529 1.398 1_565 S
C530 C531 1.391 . S
C531 H519 0.950 . S
C531 C527 1.393 . S
C531 C530 1.391 . S
H532 C540 0.950 . S
H533 C545 0.950 . S
H534 C542 0.950 . S
H535 C544 0.950 . S
H536 C546 0.950 . S
H537 C548 0.950 . S
H538 C550 0.950 . S
H539 C551 0.950 . S
C540 H532 0.950 . S
C540 C541 1.386 . S
C540 C542 1.391 . S
C541 C540 1.386 . S
C541 C545 1.393 . S
C542 H534 0.950 . S
C542 C540 1.391 . S
C542 C543 1.400 . S
C543 C542 1.400 . S
C543 C544 1.398 . S
C543 C549 1.491 . S
C544 H535 0.950 . S
C544 C543 1.398 . S
C544 C545 1.391 . S
C545 H533 0.950 . S
C545 C541 1.393 . S
C545 C544 1.391 . S
C546 H536 0.950 . S
C546 C547 1.386 . S
C546 C548 1.391 1_655 S
C547 C546 1.386 . S
C547 C551 1.393 1_655 S
C548 H537 0.950 . S
C548 C546 1.391 1_455 S
C548 C549 1.400 . S
C549 C543 1.491 . S
C549 C548 1.400 . S
C549 C550 1.398 . S
C550 H538 0.950 . S
C550 C549 1.398 . S
C550 C551 1.391 . S
C551 H539 0.950 . S
C551 C547 1.393 1_455 S
C551 C550 1.391 . S
H552 C560 0.950 . S
H553 C565 0.950 . S
H554 C562 0.950 . S
H555 C564 0.950 . S
H556 C566 0.950 . S
H557 C568 0.950 . S
H558 C570 0.950 . S
H559 C571 0.950 . S
C560 H552 0.950 . S
C560 C561 1.386 . S
C560 C562 1.391 . S
C561 C560 1.386 . S
C561 C565 1.393 . S
C562 H554 0.950 . S
C562 C560 1.391 . S
C562 C563 1.400 . S
C563 C562 1.400 . S
C563 C564 1.398 . S
C563 C569 1.491 . S
C564 H555 0.950 . S
C564 C563 1.398 . S
C564 C565 1.391 . S
C565 H553 0.950 . S
C565 C561 1.393 . S
C565 C564 1.391 . S
C566 H556 0.950 . S
C566 C567 1.386 . S
C566 C568 1.391 . S
C567 C566 1.386 . S
C567 C571 1.393 . S
C568 H557 0.950 . S
C568 C566 1.391 . S
C568 C569 1.400 . S
C569 C563 1.491 . S
C569 C568 1.400 . S
C569 C570 1.398 . S
C570 H558 0.950 . S
C570 C569 1.398 . S
C570 C571 1.391 . S
C571 H559 0.950 . S
C571 C567 1.393 . S
C571 C570 1.391 . S
H572 C580 0.950 . S
H573 C585 0.950 . S
H574 C582 0.950 . S
H575 C584 0.950 1_565 S
H576 C586 0.950 . S
H577 C588 0.950 . S
H578 C590 0.945 1_545 S
H579 C591 0.950 . S
C580 H572 0.950 . S
C580 C581 1.386 . S
C580 C582 1.391 . S
C581 C580 1.386 . S
C581 C585 1.393 . S
C582 H574 0.950 . S
C582 C580 1.391 . S
C582 C583 1.400 . S
C583 C582 1.400 . S
C583 C584 1.398 . S
C583 C589 1.491 1_545 S
C584 H575 0.950 1_545 S
C584 C583 1.398 . S
C584 C585 1.391 . S
C585 H573 0.950 . S
C585 C581 1.393 . S
C585 C584 1.391 . S
C586 H576 0.950 . S
C586 C587 1.386 . S
C586 C588 1.391 . S
C587 C586 1.386 . S
C587 C591 1.393 . S
C588 H577 0.950 . S
C588 C586 1.391 . S
C588 C589 1.400 . S
C589 C583 1.491 1_565 S
C589 C588 1.400 . S
C589 C590 1.398 . S
C590 H578 0.945 1_565 S
C590 C589 1.398 . S
C590 C591 1.391 . S
C591 H579 0.950 . S
C591 C587 1.393 . S
C591 C590 1.391 . S
H592 C600 0.950 . S
H593 C605 0.950 . S
H594 C602 0.950 . S
H595 C604 0.950 . S
H596 C606 0.950 . S
H597 C608 0.950 . S
H598 C610 0.950 . S
H599 C611 0.950 . S
C600 H592 0.950 . S
C600 C601 1.386 . S
C600 C602 1.391 . S
C601 C600 1.386 . S
C601 C605 1.393 . S
C602 H594 0.950 . S
C602 C600 1.391 . S
C602 C603 1.400 . S
C603 C602 1.400 . S
C603 C604 1.398 . S
C603 C609 1.491 . S
C604 H595 0.950 . S
C604 C603 1.398 . S
C604 C605 1.391 . S
C605 H593 0.950 . S
C605 C601 1.393 . S
C605 C604 1.391 . S
C606 H596 0.950 . S
C606 C607 1.386 . S
C606 C608 1.391 . S
C607 C606 1.386 . S
C607 C611 1.393 . S
C608 H597 0.950 . S
C608 C606 1.391 . S
C608 C609 1.400 . S
C609 C603 1.491 . S
C609 C608 1.400 . S
C609 C610 1.398 . S
C610 H598 0.950 . S
C610 C609 1.398 . S
C610 C611 1.391 . S
C611 H599 0.950 . S
C611 C607 1.393 . S
C611 C610 1.391 . S
H612 C620 0.950 . S
H613 C625 0.950 . S
H614 C622 0.950 . S
H615 C624 0.950 . S
H616 C626 0.950 . S
H617 C628 0.950 . S
H618 C630 0.950 . S
H619 C631 0.950 . S
C620 H612 0.950 . S
C620 C621 1.386 . S
C620 C622 1.391 . S
C621 C620 1.386 . S
C621 C625 1.393 . S
C622 H614 0.950 . S
C622 C620 1.391 . S
C622 C623 1.400 . S
C623 C622 1.400 . S
C623 C624 1.398 . S
C623 C629 1.491 . S
C624 H615 0.950 . S
C624 C623 1.398 . S
C624 C625 1.391 . S
C625 H613 0.950 . S
C625 C621 1.393 . S
C625 C624 1.391 . S
C626 H616 0.950 . S
C626 C627 1.386 . S
C626 C628 1.391 . S
C627 C626 1.386 . S
C627 C631 1.393 . S
C628 H617 0.950 . S
C628 C626 1.391 . S
C628 C629 1.400 . S
C629 C623 1.491 . S
C629 C628 1.400 . S
C629 C630 1.398 . S
C630 H618 0.950 . S
C630 C629 1.398 . S
C630 C631 1.391 . S
C631 H619 0.950 . S
C631 C627 1.393 . S
C631 C630 1.391 . S
H632 C640 0.950 . S
H633 C645 0.950 . S
H634 C642 0.950 . S
H635 C644 0.950 . S
H636 C646 0.950 . S
H637 C648 0.950 . S
H638 C650 0.950 . S
H639 C651 0.950 . S
C640 H632 0.950 . S
C640 C641 1.386 . S
C640 C642 1.391 . S
C641 C640 1.386 . S
C641 C645 1.393 . S
C642 H634 0.950 . S
C642 C640 1.391 . S
C642 C643 1.400 . S
C643 C642 1.400 . S
C643 C644 1.398 . S
C643 C649 1.491 . S
C644 H635 0.950 . S
C644 C643 1.398 . S
C644 C645 1.391 . S
C645 H633 0.950 . S
C645 C641 1.393 . S
C645 C644 1.391 . S
C646 H636 0.950 . S
C646 C647 1.386 . S
C646 C648 1.391 . S
C647 C646 1.386 . S
C647 C651 1.393 . S
C648 H637 0.950 . S
C648 C646 1.391 . S
C648 C649 1.400 . S
C649 C643 1.491 . S
C649 C648 1.400 . S
C649 C650 1.398 . S
C650 H638 0.950 . S
C650 C649 1.398 . S
C650 C651 1.391 . S
C651 H639 0.950 . S
C651 C647 1.393 . S
C651 C650 1.391 . S
H652 C660 0.950 . S
H653 C665 0.950 . S
H654 C662 0.950 . S
H655 C664 0.950 . S
H656 C666 0.950 . S
H657 C668 0.950 . S
H658 C670 0.950 . S
H659 C671 0.950 . S
C660 H652 0.950 . S
C660 C661 1.386 . S
C660 C662 1.391 . S
C661 C660 1.386 . S
C661 C665 1.393 . S
C662 H654 0.950 . S
C662 C660 1.391 . S
C662 C663 1.400 . S
C663 C662 1.400 . S
C663 C664 1.398 . S
C663 C669 1.491 . S
C664 H655 0.950 . S
C664 C663 1.398 . S
C664 C665 1.391 . S
C665 H653 0.950 . S
C665 C661 1.393 . S
C665 C664 1.391 . S
C666 H656 0.950 . S
C666 C667 1.386 . S
C666 C668 1.391 . S
C667 C666 1.386 . S
C667 C671 1.393 . S
C668 H657 0.950 . S
C668 C666 1.391 . S
C668 C669 1.400 . S
C669 C663 1.491 . S
C669 C668 1.400 . S
C669 C670 1.398 . S
C670 H658 0.950 . S
C670 C669 1.398 . S
C670 C671 1.391 . S
C671 H659 0.950 . S
C671 C667 1.393 . S
C671 C670 1.391 . S
H672 C680 0.950 . S
H673 C685 0.950 . S
H674 C682 0.950 . S
H675 C684 0.950 . S
H676 C686 0.950 . S
H677 C688 0.950 . S
H678 C690 0.950 . S
H679 C691 0.950 . S
C680 H672 0.950 . S
C680 C681 1.386 . S
C680 C682 1.391 . S
C681 C680 1.386 . S
C681 C685 1.393 . S
C682 H674 0.950 . S
C682 C680 1.391 . S
C682 C683 1.400 . S
C683 C682 1.400 . S
C683 C684 1.398 . S
C683 C689 1.491 . S
C684 H675 0.950 . S
C684 C683 1.398 . S
C684 C685 1.391 . S
C685 H673 0.950 . S
C685 C681 1.393 . S
C685 C684 1.391 . S
C686 H676 0.950 . S
C686 C687 1.386 . S
C686 C688 1.391 . S
C687 C686 1.386 . S
C687 C691 1.393 . S
C688 H677 0.950 . S
C688 C686 1.391 . S
C688 C689 1.400 . S
C689 C683 1.491 . S
C689 C688 1.400 . S
C689 C690 1.398 . S
C690 H678 0.950 . S
C690 C689 1.398 . S
C690 C691 1.391 . S
C691 H679 0.950 . S
C691 C687 1.393 . S
C691 C690 1.391 . S
H692 C700 0.950 . S
H693 C705 0.950 . S
H694 C702 0.950 . S
H695 C704 0.950 . S
H696 C706 0.950 . S
H697 C708 0.950 . S
H698 C710 0.950 . S
H699 C711 0.950 . S
C700 H692 0.950 . S
C700 C701 1.386 . S
C700 C702 1.391 . S
C701 C700 1.386 . S
C701 C705 1.393 . S
C702 H694 0.950 . S
C702 C700 1.391 . S
C702 C703 1.400 . S
C703 C702 1.400 . S
C703 C704 1.398 . S
C703 C709 1.491 . S
C704 H695 0.950 . S
C704 C703 1.398 . S
C704 C705 1.391 . S
C705 H693 0.950 . S
C705 C701 1.393 . S
C705 C704 1.391 . S
C706 H696 0.950 . S
C706 C707 1.386 . S
C706 C708 1.391 . S
C707 C706 1.386 . S
C707 C711 1.393 . S
C708 H697 0.950 . S
C708 C706 1.391 . S
C708 C709 1.400 . S
C709 C703 1.491 . S
C709 C708 1.400 . S
C709 C710 1.398 . S
C710 H698 0.950 . S
C710 C709 1.398 . S
C710 C711 1.391 . S
C711 H699 0.950 . S
C711 C707 1.393 . S
C711 C710 1.391 . S
H712 C720 0.950 . S
H713 C725 0.950 . S
H714 C722 0.950 . S
H715 C724 0.950 . S
H716 C726 0.950 . S
H717 C728 0.950 . S
H718 C730 0.950 . S
H719 C731 0.950 . S
C720 H712 0.950 . S
C720 C721 1.386 . S
C720 C722 1.391 . S
C721 C720 1.386 . S
C721 C725 1.393 . S
C722 H714 0.950 . S
C722 C720 1.391 . S
C722 C723 1.400 . S
C723 C722 1.400 . S
C723 C724 1.398 . S
C723 C729 1.491 . S
C724 H715 0.950 . S
C724 C723 1.398 . S
C724 C725 1.391 . S
C725 H713 0.950 . S
C725 C721 1.393 . S
C725 C724 1.391 . S
C726 H716 0.950 . S
C726 C727 1.386 . S
C726 C728 1.391 . S
C727 C726 1.386 . S
C727 C731 1.393 . S
C728 H717 0.950 . S
C728 C726 1.391 . S
C728 C729 1.400 . S
C729 C723 1.491 . S
C729 C728 1.400 . S
C729 C730 1.398 . S
C730 H718 0.950 . S
C730 C729 1.398 . S
C730 C731 1.391 . S
C731 H719 0.950 . S
C731 C727 1.393 . S
C731 C730 1.391 . S
H732 C740 0.950 . S
H733 C745 0.950 . S
H734 C742 0.950 . S
H735 C744 0.950 . S
H736 C746 0.950 . S
H737 C748 0.950 . S
H738 C750 0.950 . S
H739 C751 0.950 . S
C740 H732 0.950 . S
C740 C741 1.386 . S
C740 C742 1.391 . S
C741 C740 1.386 . S
C741 C745 1.393 . S
C742 H734 0.950 . S
C742 C740 1.391 . S
C742 C743 1.400 . S
C743 C742 1.400 . S
C743 C744 1.398 . S
C743 C749 1.491 . S
C744 H735 0.950 . S
C744 C743 1.398 . S
C744 C745 1.391 . S
C745 H733 0.950 . S
C745 C741 1.393 . S
C745 C744 1.391 . S
C746 H736 0.950 . S
C746 C747 1.386 . S
C746 C748 1.391 . S
C747 C746 1.386 . S
C747 C751 1.393 . S
C748 H737 0.950 . S
C748 C746 1.391 . S
C748 C749 1.400 . S
C749 C743 1.491 . S
C749 C748 1.400 . S
C749 C750 1.398 . S
C750 H738 0.950 . S
C750 C749 1.398 . S
C750 C751 1.391 . S
C751 H739 0.950 . S
C751 C747 1.393 . S
C751 C750 1.391 . S
H752 C760 0.950 . S
H753 C765 0.950 . S
H754 C762 0.950 . S
H755 C764 0.950 . S
H756 C766 0.950 . S
H757 C768 0.950 . S
H758 C770 0.950 . S
H759 C771 0.950 . S
C760 H752 0.950 . S
C760 C761 1.386 . S
C760 C762 1.391 . S
C761 C760 1.386 . S
C761 C765 1.393 . S
C762 H754 0.950 . S
C762 C760 1.391 . S
C762 C763 1.400 . S
C763 C762 1.400 . S
C763 C764 1.398 . S
C763 C769 1.491 . S
C764 H755 0.950 . S
C764 C763 1.398 . S
C764 C765 1.391 . S
C765 H753 0.950 . S
C765 C761 1.393 . S
C765 C764 1.391 . S
C766 H756 0.950 . S
C766 C767 1.386 . S
C766 C768 1.391 . S
C767 C766 1.386 . S
C767 C771 1.393 . S
C768 H757 0.950 . S
C768 C766 1.391 . S
C768 C769 1.400 . S
C769 C763 1.491 . S
C769 C768 1.400 . S
C769 C770 1.398 . S
C770 H758 0.950 . S
C770 C769 1.398 . S
C770 C771 1.391 . S
C771 H759 0.950 . S
C771 C767 1.393 . S
C771 C770 1.391 . S
H772 C780 0.950 . S
H773 C785 0.950 . S
H774 C782 0.950 . S
H775 C784 0.950 . S
H776 C786 0.950 . S
H777 C788 0.950 . S
H778 C790 0.950 . S
H779 C791 0.950 . S
C780 H772 0.950 . S
C780 C781 1.386 . S
C780 C782 1.391 . S
C781 C780 1.386 . S
C781 C785 1.393 . S
C782 H774 0.950 . S
C782 C780 1.391 . S
C782 C783 1.400 . S
C783 C782 1.400 . S
C783 C784 1.398 . S
C783 C789 1.491 . S
C784 H775 0.950 . S
C784 C783 1.398 . S
C784 C785 1.391 . S
C785 H773 0.950 . S
C785 C781 1.393 . S
C785 C784 1.391 . S
C786 H776 0.950 . S
C786 C787 1.386 . S
C786 C788 1.391 . S
C787 C786 1.386 . S
C787 C791 1.393 . S
C788 H777 0.950 . S
C788 C786 1.391 . S
C788 C789 1.400 . S
C789 C783 1.491 . S
C789 C788 1.400 . S
C789 C790 1.398 . S
C790 H778 0.950 . S
C790 C789 1.398 . S
C790 C791 1.391 . S
C791 H779 0.950 . S
C791 C787 1.393 . S
C791 C790 1.391 . S
H792 C800 0.950 . S
H793 C805 0.950 . S
H794 C802 0.950 . S
H795 C804 0.950 . S
H796 C806 0.950 . S
H797 C808 0.950 . S
H798 C810 0.950 . S
H799 C811 0.950 . S
C800 H792 0.950 . S
C800 C801 1.386 . S
C800 C802 1.391 . S
C801 C800 1.386 . S
C801 C805 1.393 . S
C802 H794 0.950 . S
C802 C800 1.391 . S
C802 C803 1.400 . S
C803 C802 1.400 . S
C803 C804 1.398 . S
C803 C809 1.491 . S
C804 H795 0.950 . S
C804 C803 1.398 . S
C804 C805 1.391 . S
C805 H793 0.950 . S
C805 C801 1.393 . S
C805 C804 1.391 . S
C806 H796 0.950 . S
C806 C807 1.386 . S
C806 C808 1.391 . S
C807 C806 1.386 . S
C807 C811 1.393 . S
C808 H797 0.950 . S
C808 C806 1.391 . S
C808 C809 1.400 . S
C809 C803 1.491 . S
C809 C808 1.400 . S
C809 C810 1.398 . S
C810 H798 0.950 . S
C810 C809 1.398 . S
C810 C811 1.391 . S
C811 H799 0.950 . S
C811 C807 1.393 . S
C811 C810 1.391 . S
H812 C820 0.950 . S
H813 C825 0.950 . S
H814 C822 0.950 . S
H815 C824 0.950 . S
H816 C826 0.950 . S
H817 C828 0.950 . S
H818 C830 0.950 . S
H819 C831 0.950 . S
C820 H812 0.950 . S
C820 C821 1.386 . S
C820 C822 1.391 . S
C821 C820 1.386 . S
C821 C825 1.393 . S
C822 H814 0.950 . S
C822 C820 1.391 . S
C822 C823 1.400 . S
C823 C822 1.400 . S
C823 C824 1.398 . S
C823 C829 1.491 . S
C824 H815 0.950 . S
C824 C823 1.398 . S
C824 C825 1.391 . S
C825 H813 0.950 . S
C825 C821 1.393 . S
C825 C824 1.391 . S
C826 H816 0.950 . S
C826 C827 1.386 . S
C826 C828 1.391 . S
C827 C826 1.386 . S
C827 C831 1.393 . S
C828 H817 0.950 . S
C828 C826 1.391 . S
C828 C829 1.400 . S
C829 C823 1.491 . S
C829 C828 1.400 . S
C829 C830 1.398 . S
C830 H818 0.950 . S
C830 C829 1.398 . S
C830 C831 1.391 . S
C831 H819 0.950 . S
C831 C827 1.393 . S
C831 C830 1.391 . S
H832 C840 0.950 . S
H833 C845 0.950 . S
H834 C842 0.950 . S
H835 C844 0.950 . S
H836 C846 0.950 . S
H837 C848 0.950 . S
H838 C850 0.950 . S
H839 C851 0.950 . S
C840 H832 0.950 . S
C840 C841 1.386 . S
C840 C842 1.391 . S
C841 C840 1.386 . S
C841 C845 1.393 . S
C842 H834 0.950 . S
C842 C840 1.391 . S
C842 C843 1.400 . S
C843 C842 1.400 . S
C843 C844 1.398 . S
C843 C849 1.491 . S
C844 H835 0.950 . S
C844 C843 1.398 . S
C844 C845 1.391 . S
C845 H833 0.950 . S
C845 C841 1.393 . S
C845 C844 1.391 . S
C846 H836 0.950 . S
C846 C847 1.386 . S
C846 C848 1.391 . S
C847 C846 1.386 . S
C847 C851 1.393 . S
C848 H837 0.950 . S
C848 C846 1.391 . S
C848 C849 1.400 . S
C849 C843 1.491 . S
C849 C848 1.400 . S
C849 C850 1.398 . S
C850 H838 0.950 . S
C850 C849 1.398 . S
C850 C851 1.391 . S
C851 H839 0.950 . S
C851 C847 1.393 . S
C851 C850 1.391 . S
H852 C860 0.950 . S
H853 C865 0.950 . S
H854 C862 0.950 . S
H855 C864 0.950 . S
H856 C866 0.950 . S
H857 C868 0.950 . S
H858 C870 0.950 . S
H859 C871 0.950 . S
C860 H852 0.950 . S
C860 C861 1.386 . S
C860 C862 1.391 . S
C861 C860 1.386 . S
C861 C865 1.393 . S
C862 H854 0.950 . S
C862 C860 1.391 . S
C862 C863 1.400 . S
C863 C862 1.400 . S
C863 C864 1.398 . S
C863 C869 1.491 . S
C864 H855 0.950 . S
C864 C863 1.398 . S
C864 C865 1.391 . S
C865 H853 0.950 . S
C865 C861 1.393 . S
C865 C864 1.391 . S
C866 H856 0.950 . S
C866 C867 1.386 . S
C866 C868 1.391 . S
C867 C866 1.386 . S
C867 C871 1.393 . S
C868 H857 0.950 . S
C868 C866 1.391 . S
C868 C869 1.400 . S
C869 C863 1.491 . S
C869 C868 1.400 . S
C869 C870 1.398 . S
C870 H858 0.950 . S
C870 C869 1.398 . S
C870 C871 1.391 . S
C871 H859 0.950 . S
C871 C867 1.393 . S
C871 C870 1.391 . S
H872 C880 0.950 . S
H873 C885 0.950 . S
H874 C882 0.950 . S
H875 C884 0.950 1_565 S
H876 C886 0.950 . S
H877 C888 0.950 . S
H878 C890 0.950 1_545 S
H879 C891 0.950 . S
C880 H872 0.950 . S
C880 C881 1.386 . S
C880 C882 1.391 . S
C881 C880 1.386 . S
C881 C885 1.393 . S
C882 H874 0.950 . S
C882 C880 1.391 . S
C882 C883 1.400 . S
C883 C882 1.400 . S
C883 C884 1.398 . S
C883 C889 1.491 1_545 S
C884 H875 0.950 1_545 S
C884 C883 1.398 . S
C884 C885 1.391 . S
C885 H873 0.950 . S
C885 C881 1.393 . S
C885 C884 1.391 . S
C886 H876 0.950 . S
C886 C887 1.386 . S
C886 C888 1.391 . S
C887 C886 1.386 . S
C887 C891 1.393 . S
C888 H877 0.950 . S
C888 C886 1.391 . S
C888 C889 1.400 . S
C889 C883 1.491 1_565 S
C889 C888 1.400 . S
C889 C890 1.398 . S
C890 H878 0.950 1_565 S
C890 C889 1.398 . S
C890 C891 1.391 . S
C891 H879 0.950 . S
C891 C887 1.393 . S
C891 C890 1.391 . S
H892 C900 0.950 . S
H893 C905 0.950 . S
H894 C902 0.950 . S
H895 C904 0.950 . S
H896 C906 0.950 . S
H897 C908 0.950 . S
H898 C910 0.952 . S
H899 C911 0.950 . S
C900 H892 0.950 . S
C900 C901 1.386 . S
C900 C902 1.391 . S
C901 C900 1.386 . S
C901 C905 1.393 . S
C902 H894 0.950 . S
C902 C900 1.391 . S
C902 C903 1.400 . S
C903 C902 1.400 . S
C903 C904 1.398 . S
C903 C909 1.491 . S
C904 H895 0.950 . S
C904 C903 1.398 . S
C904 C905 1.391 . S
C905 H893 0.950 . S
C905 C901 1.393 . S
C905 C904 1.391 . S
C906 H896 0.950 . S
C906 C907 1.386 1_455 S
C906 C908 1.391 . S
C907 C906 1.386 1_655 S
C907 C911 1.393 . S
C908 H897 0.950 . S
C908 C906 1.391 . S
C908 C909 1.400 . S
C909 C903 1.491 . S
C909 C908 1.400 . S
C909 C910 1.401 1_455 S
C910 H898 0.952 . S
C910 C909 1.401 1_655 S
C910 C911 1.386 . S
C911 H899 0.950 . S
C911 C907 1.393 . S
C911 C910 1.386 . S
H912 C920 0.950 . S
H913 C925 0.950 . S
H914 C922 0.950 1_554 S
H915 C924 0.950 . S
H916 C926 0.950 . S
H917 C928 0.950 . S
H918 C930 0.950 . S
H919 C931 0.950 . S
C920 H912 0.950 . S
C920 C921 1.386 . S
C920 C922 1.391 . S
C921 C920 1.386 . S
C921 C925 1.393 . S
C922 H914 0.950 1_556 S
C922 C920 1.391 . S
C922 C923 1.400 . S
C923 C922 1.400 . S
C923 C924 1.398 . S
C923 C929 1.491 . S
C924 H915 0.950 . S
C924 C923 1.398 . S
C924 C925 1.391 . S
C925 H913 0.950 . S
C925 C921 1.393 . S
C925 C924 1.391 . S
C926 H916 0.950 . S
C926 C927 1.386 1_556 S
C926 C928 1.391 . S
C927 C926 1.386 1_554 S
C927 C931 1.393 . S
C928 H917 0.950 . S
C928 C926 1.391 . S
C928 C929 1.400 . S
C929 C923 1.491 . S
C929 C928 1.400 . S
C929 C930 1.398 1_556 S
C930 H918 0.950 . S
C930 C929 1.398 1_554 S
C930 C931 1.391 . S
C931 H919 0.950 . S
C931 C927 1.393 . S
C931 C930 1.391 . S
H932 C940 0.950 . S
H933 C945 0.950 . S
H934 C942 0.950 1_545 S
H935 C944 0.950 1_545 S
H936 C946 0.950 . S
H937 C948 0.950 . S
H938 C950 0.950 . S
H939 C951 0.950 . S
C940 H932 0.950 . S
C940 C941 1.386 1_554 S
C940 C942 1.391 . S
C941 C940 1.386 1_556 S
C941 C945 1.393 . S
C942 H934 0.950 1_565 S
C942 C940 1.391 . S
C942 C943 1.400 1_565 S
C943 C942 1.400 1_545 S
C943 C944 1.398 1_544 S
C943 C949 1.491 . S
C944 H935 0.950 1_565 S
C944 C943 1.398 1_566 S
C944 C945 1.391 . S
C945 H933 0.950 . S
C945 C941 1.393 . S
C945 C944 1.391 . S
C946 H936 0.950 . S
C946 C947 1.386 . S
C946 C948 1.391 . S
C947 C946 1.386 . S
C947 C951 1.393 . S
C948 H937 0.950 . S
C948 C946 1.391 . S
C948 C949 1.400 . S
C949 C943 1.491 . S
C949 C948 1.400 . S
C949 C950 1.398 . S
C950 H938 0.950 . S
C950 C949 1.398 . S
C950 C951 1.391 . S
C951 H939 0.950 . S
C951 C947 1.393 . S
C951 C950 1.391 . S
H952 C960 0.950 . S
H953 C965 0.950 . S
H954 C962 0.950 . S
H955 C964 0.950 . S
H956 C966 0.950 . S
H957 C968 0.950 . S
H958 C970 0.950 . S
H959 C971 0.950 1_556 S
C960 H952 0.950 . S
C960 C961 1.386 . S
C960 C962 1.391 . S
C961 C960 1.386 . S
C961 C965 1.393 1_556 S
C962 H954 0.950 . S
C962 C960 1.391 . S
C962 C963 1.400 1_556 S
C963 C962 1.400 1_554 S
C963 C964 1.398 . S
C963 C969 1.491 . S
C964 H955 0.950 . S
C964 C963 1.398 . S
C964 C965 1.391 . S
C965 H953 0.950 . S
C965 C961 1.393 1_554 S
C965 C964 1.391 . S
C966 H956 0.950 . S
C966 C967 1.386 1_455 S
C966 C968 1.391 . S
C967 C966 1.386 1_655 S
C967 C971 1.393 . S
C968 H957 0.950 . S
C968 C966 1.391 . S
C968 C969 1.400 . S
C969 C963 1.491 . S
C969 C968 1.400 . S
C969 C970 1.398 1_554 S
C970 H958 0.950 . S
C970 C969 1.398 1_556 S
C970 C971 1.391 1_456 S
C971 H959 0.950 1_554 S
C971 C967 1.393 . S
C971 C970 1.391 1_654 S
C261 C9 1.459 . S
C267 C205 1.458 1_554 S
C281 C174 1.241 1_554 S
C287 C20 1.230 . S
C301 C34 1.050 1_565 S
C307 C191 1.095 . S
C321 C93 1.601 . S
C327 C37 1.608 . S
C341 C107 1.520 . S
C347 C6 1.498 1_655 S
C361 C121 1.454 . S
C367 C23 1.447 . S
C381 C48 1.409 1_655 S
C387 C163 1.424 . S
C401 C135 1.547 1_556 S
C407 C65 1.548 . S
C421 C146 1.119 . S
C427 C76 1.142 . S
C441 C79 1.464 . S
C447 C216 1.465 . S
C461 C51 1.227 . S
C467 C233 1.227 . S
C481 C244 1.013 . S
C487 C62 1.019 . S
C501 C177 1.169 . S
C507 C118 1.169 . S
C521 C90 1.115 . S
C527 C188 1.133 . S
C541 C202 0.750 . S
C547 C104 0.726 . S
C561 C247 1.189 . S
C567 C132 1.161 . S
C581 C149 1.314 . S
C587 C219 1.318 . S
C601 C230 0.956 . S
C607 C160 0.962 . S
C621 C217 1.912 . S
C627 C8 1.655 . S
C641 C21 1.729 . S
C647 C232 1.525 . S
C661 C35 1.614 . S
C667 C245 1.622 . S
C681 C36 1.562 . S
C687 C162 1.558 . S
C701 C134 1.630 . S
C707 C7 1.872 . S
C721 C22 1.589 . S
C727 C147 1.808 . S
C741 C92 1.575 . S
C747 C49 1.804 . S
C761 C106 1.636 . S
C767 C64 1.616 . S
C781 C77 1.812 . S
C787 C120 1.579 . S
C801 C78 1.668 . S
C807 C204 1.686 . S
C821 C50 1.493 . S
C827 C175 1.681 . S
C841 C63 1.910 . S
C847 C190 1.725 . S
C861 C119 1.721 . S
C867 C246 1.520 . S
C881 C91 1.822 . S
C887 C218 1.576 . S
C901 C231 1.753 . S
C907 C105 1.758 . S
C921 C176 1.574 . S
C927 C133 1.763 . S
C941 C189 1.790 . S
C947 C148 1.567 . S
C961 C203 1.761 . S
C967 C161 1.760 . S
