# Generated by pormake.
# Topology wkj, (6)-cn, num edge types: 1
# Building blocks:
#     Node 0, Type 0, BuildingBlock: BETDAH_clean_sbu_0, # of connection points: 6
#     Node 1, Type 0, BuildingBlock: BETDAH_clean_sbu_0, # of connection points: 6
#     Node 2, Type 0, BuildingBlock: BETDAH_clean_sbu_0, # of connection points: 6
#     Node 3, Type 0, BuildingBlock: BETDAH_clean_sbu_0, # of connection points: 6
#     Node 4, Type 0, BuildingBlock: BETDAH_clean_sbu_0, # of connection points: 6
#     Node 5, Type 0, BuildingBlock: BETDAH_clean_sbu_0, # of connection points: 6
#     Node 6, Type 0, BuildingBlock: BETDAH_clean_sbu_0, # of connection points: 6
#     Node 7, Type 0, BuildingBlock: BETDAH_clean_sbu_0, # of connection points: 6
#     Node 8, Type 0, BuildingBlock: BETDAH_clean_sbu_0, # of connection points: 6
#     Node 9, Type 0, BuildingBlock: BETDAH_clean_sbu_0, # of connection points: 6
#     Node 10, Type 0, BuildingBlock: BETDAH_clean_sbu_0, # of connection points: 6
#     Node 11, Type 0, BuildingBlock: BETDAH_clean_sbu_0, # of connection points: 6
#     Edge 12, Type (0, 0), BuildingBlock: CIFDUS_clean_linker_0, # of connection points: 2
#     Edge 13, Type (0, 0), BuildingBlock: CIFDUS_clean_linker_0, # of connection points: 2
#     Edge 14, Type (0, 0), BuildingBlock: CIFDUS_clean_linker_0, # of connection points: 2
#     Edge 15, Type (0, 0), BuildingBlock: CIFDUS_clean_linker_0, # of connection points: 2
#     Edge 16, Type (0, 0), BuildingBlock: CIFDUS_clean_linker_0, # of connection points: 2
#     Edge 17, Type (0, 0), BuildingBlock: CIFDUS_clean_linker_0, # of connection points: 2
#     Edge 18, Type (0, 0), BuildingBlock: CIFDUS_clean_linker_0, # of connection points: 2
#     Edge 19, Type (0, 0), BuildingBlock: CIFDUS_clean_linker_0, # of connection points: 2
#     Edge 20, Type (0, 0), BuildingBlock: CIFDUS_clean_linker_0, # of connection points: 2
#     Edge 21, Type (0, 0), BuildingBlock: CIFDUS_clean_linker_0, # of connection points: 2
#     Edge 22, Type (0, 0), BuildingBlock: CIFDUS_clean_linker_0, # of connection points: 2
#     Edge 23, Type (0, 0), BuildingBlock: CIFDUS_clean_linker_0, # of connection points: 2
#     Edge 24, Type (0, 0), BuildingBlock: CIFDUS_clean_linker_0, # of connection points: 2
#     Edge 25, Type (0, 0), BuildingBlock: CIFDUS_clean_linker_0, # of connection points: 2
#     Edge 26, Type (0, 0), BuildingBlock: CIFDUS_clean_linker_0, # of connection points: 2
#     Edge 27, Type (0, 0), BuildingBlock: CIFDUS_clean_linker_0, # of connection points: 2
#     Edge 28, Type (0, 0), BuildingBlock: CIFDUS_clean_linker_0, # of connection points: 2
#     Edge 29, Type (0, 0), BuildingBlock: CIFDUS_clean_linker_0, # of connection points: 2
#     Edge 30, Type (0, 0), BuildingBlock: CIFDUS_clean_linker_0, # of connection points: 2
#     Edge 31, Type (0, 0), BuildingBlock: CIFDUS_clean_linker_0, # of connection points: 2
#     Edge 32, Type (0, 0), BuildingBlock: CIFDUS_clean_linker_0, # of connection points: 2
#     Edge 33, Type (0, 0), BuildingBlock: CIFDUS_clean_linker_0, # of connection points: 2
#     Edge 34, Type (0, 0), BuildingBlock: CIFDUS_clean_linker_0, # of connection points: 2
#     Edge 35, Type (0, 0), BuildingBlock: CIFDUS_clean_linker_0, # of connection points: 2
#     Edge 36, Type (0, 0), BuildingBlock: CIFDUS_clean_linker_0, # of connection points: 2
#     Edge 37, Type (0, 0), BuildingBlock: CIFDUS_clean_linker_0, # of connection points: 2
#     Edge 38, Type (0, 0), BuildingBlock: CIFDUS_clean_linker_0, # of connection points: 2
#     Edge 39, Type (0, 0), BuildingBlock: CIFDUS_clean_linker_0, # of connection points: 2
#     Edge 40, Type (0, 0), BuildingBlock: CIFDUS_clean_linker_0, # of connection points: 2
#     Edge 41, Type (0, 0), BuildingBlock: CIFDUS_clean_linker_0, # of connection points: 2
#     Edge 42, Type (0, 0), BuildingBlock: CIFDUS_clean_linker_0, # of connection points: 2
#     Edge 43, Type (0, 0), BuildingBlock: CIFDUS_clean_linker_0, # of connection points: 2
#     Edge 44, Type (0, 0), BuildingBlock: CIFDUS_clean_linker_0, # of connection points: 2
#     Edge 45, Type (0, 0), BuildingBlock: CIFDUS_clean_linker_0, # of connection points: 2
#     Edge 46, Type (0, 0), BuildingBlock: CIFDUS_clean_linker_0, # of connection points: 2
#     Edge 47, Type (0, 0), BuildingBlock: CIFDUS_clean_linker_0, # of connection points: 2
# Relax obj value: 0.883
# Max RMSD: 0.172
# Mean RMSD: 0.172
data_MOF--net-wkj--node1-BETDAH_clean_sbu_0--edge1-CIFDUS_clean_linker_0
_symmetry_space_group_name_H-M    P1
_symmetry_Int_Tables_number       1
_symmetry_cell_setting            triclinic
loop_
_symmetry_equiv_pos_as_xyz
'x, y, z'
_cell_length_a     43.055692
_cell_length_b     43.124585
_cell_length_c     26.780374
_cell_angle_alpha  90.351654
_cell_angle_beta   89.311981
_cell_angle_gamma 120.06607
loop_
_atom_site_label
_atom_site_type_symbol
_atom_site_fract_x
_atom_site_fract_y
_atom_site_fract_z
_atom_type_partial_charge
Ho0 Ho 0.45042 0.1001 0.37995 0.0
Ho1 Ho 0.50795 0.09418 0.37952 0.0
C2 C 0.4993 0.11305 0.4915 0.0
C3 C 0.39192 0.10228 0.39692 0.0
C4 C 0.36617 0.0918 0.43854 0.0
C5 C 0.37812 0.09899 0.48796 0.0
C6 C 0.35389 0.08298 0.52729 0.0
C7 C 0.31733 0.05921 0.51791 0.0
C8 C 0.30503 0.05429 0.46855 0.0
C9 C 0.32935 0.07057 0.42909 0.0
C10 C 0.50365 0.16092 0.33704 0.0
C11 C 0.45649 0.05173 0.28132 0.0
C12 C 0.57072 0.10419 0.35622 0.0
C13 C 0.60608 0.13671 0.35913 0.0
C14 C 0.61005 0.16611 0.38714 0.0
C15 C 0.63642 0.20088 0.37384 0.0
C16 C 0.65824 0.20654 0.33141 0.0
C17 C 0.65825 0.17663 0.30966 0.0
C18 C 0.63209 0.14193 0.32324 0.0
C19 C 0.44907 0.03868 0.42615 0.0
O20 O 0.46704 0.10456 0.47013 0.0
O21 O 0.52368 0.11597 0.45858 0.0
O22 O 0.42402 0.12915 0.40452 0.0
O23 O 0.39275 0.07586 0.37454 0.0
O24 O 0.47378 0.13882 0.31597 0.0
O25 O 0.50621 0.14574 0.37623 0.0
O26 O 0.4857 0.0588 0.30705 0.0
O27 O 0.43737 0.06576 0.30251 0.0
O28 O 0.54946 0.10696 0.3244 0.0
O29 O 0.55446 0.08968 0.39835 0.0
O30 O 0.48202 0.05365 0.4411 0.0
O31 O 0.45036 0.05156 0.38426 0.0
H32 H 0.40642 0.11516 0.49625 0.0
H33 H 0.36443 0.08689 0.56476 0.0
H34 H 0.27702 0.03619 0.46031 0.0
H35 H 0.3197 0.06482 0.39108 0.0
H36 H 0.59027 0.16263 0.41526 0.0
H37 H 0.63636 0.22325 0.39235 0.0
H38 H 0.67476 0.17961 0.27721 0.0
H39 H 0.6295 0.11954 0.30134 0.0
Ho40 Ho 0.35615 0.45984 0.71154 0.0
Ho41 Ho 0.40283 0.53389 0.69386 0.0
C42 C 0.38308 0.51532 0.81625 0.0
C43 C 0.31087 0.39598 0.74264 0.0
C44 C 0.29808 0.37897 0.79129 0.0
C45 C 0.31693 0.39628 0.83446 0.0
C46 C 0.30262 0.38218 0.8812 0.0
C47 C 0.26946 0.35027 0.88548 0.0
C48 C 0.25082 0.3326 0.84218 0.0
C49 C 0.26492 0.34717 0.79523 0.0
C50 C 0.3245 0.49058 0.65498 0.0
C51 C 0.40582 0.47579 0.60892 0.0
C52 C 0.42419 0.60103 0.67749 0.0
C53 C 0.40705 0.61908 0.65372 0.0
C54 C 0.37382 0.59862 0.63074 0.0
C55 C 0.35877 0.61525 0.60375 0.0
C56 C 0.3767 0.6529 0.59921 0.0
C57 C 0.40865 0.67337 0.62608 0.0
C58 C 0.42381 0.65653 0.65291 0.0
C59 C 0.43874 0.50632 0.73837 0.0
O60 O 0.36251 0.48202 0.7964 0.0
O61 O 0.40237 0.54119 0.78242 0.0
O62 O 0.30239 0.42038 0.73308 0.0
O63 O 0.34416 0.40608 0.73033 0.0
O64 O 0.32598 0.46217 0.64366 0.0
O65 O 0.34334 0.5028 0.69371 0.0
O66 O 0.40987 0.50883 0.61619 0.0
O67 O 0.38927 0.45266 0.64654 0.0
O68 O 0.43184 0.58148 0.64805 0.0
O69 O 0.40894 0.58443 0.7188 0.0
O70 O 0.4528 0.53098 0.7042 0.0
O71 O 0.40661 0.4971 0.74371 0.0
H72 H 0.34266 0.42066 0.83212 0.0
H73 H 0.31807 0.39569 0.91404 0.0
H74 H 0.22554 0.30763 0.84475 0.0
H75 H 0.2499 0.33378 0.76205 0.0
H76 H 0.36038 0.56967 0.63177 0.0
H77 H 0.33448 0.59822 0.58332 0.0
H78 H 0.42292 0.70235 0.62425 0.0
H79 H 0.44921 0.67271 0.67147 0.0
Ho80 Ho 0.89071 0.35237 1.04442 0.0
Ho81 Ho 0.88187 0.40966 1.04385 0.0
C82 C 0.87015 0.38135 0.15742 0.0
C83 C 0.90106 0.29872 1.05992 0.0
C84 C 0.90538 0.28076 1.10332 0.0
C85 C 0.89027 0.28147 0.14962 0.0
C86 C 0.89873 0.26891 0.19216 0.0
C87 C 0.92268 0.25566 0.18918 0.0
C88 C 0.93575 0.25271 1.14209 0.0
C89 C 0.92715 0.26523 1.09941 0.0
C90 C 0.82638 0.33417 1.00189 0.0
C91 C 0.93325 0.40952 0.94669 0.0
C92 C 0.85661 0.45041 1.01864 0.0
C93 C 0.81925 0.44245 1.01879 0.0
C94 C 0.79357 0.41445 1.04866 0.0
C95 C 0.75775 0.39525 1.03368 0.0
C96 C 0.74763 0.40292 0.98757 0.0
C97 C 0.77226 0.4352 0.96327 0.0
C98 C 0.80782 0.4547 0.97877 0.0
C99 C 0.94276 0.42194 1.09017 0.0
O100 O 0.88177 0.36062 1.13378 0.0
O101 O 0.86392 0.40175 1.12687 0.0
O102 O 0.8696 0.29552 1.05459 0.0
O103 O 0.92686 0.33143 1.05218 0.0
O104 O 0.85158 0.33062 0.98073 0.0
O105 O 0.83887 0.35199 1.04188 0.0
O106 O 0.92008 0.42771 0.97162 0.0
O107 O 0.92503 0.37794 0.96842 0.0
O108 O 0.86244 0.43066 0.98705 0.0
O109 O 0.87133 0.45276 1.06185 0.0
O110 O 0.92147 0.43354 1.10436 0.0
O111 O 0.93157 0.40675 1.04896 0.0
H112 H 0.87337 0.29336 0.15338 0.0
H113 H 0.88869 0.27225 0.22787 0.0
H114 H 0.95418 0.24258 1.13869 0.0
H115 H 0.93885 0.26434 1.06376 0.0
H116 H 0.8018 0.40472 1.08017 0.0
H117 H 0.73928 0.37177 1.05495 0.0
H118 H 0.76601 0.44301 0.92818 0.0
H119 H 0.82723 0.47639 0.95544 0.0
Ho120 Ho 0.52975 0.89383 0.38383 0.0
Ho121 Ho 0.4627 0.88214 0.37169 0.0
C122 C 0.47344 0.87425 0.48907 0.0
C123 C 0.59424 0.91118 0.41115 0.0
C124 C 0.62371 0.94138 0.4379 0.0
C125 C 0.63845 0.97693 0.42131 0.0
C126 C 0.66373 0.00529 0.45024 0.0
C127 C 0.6744 -0.00133 0.49656 0.0
C128 C 0.66099 0.96288 0.5115 0.0
C129 C 0.6361 0.93461 0.48233 0.0
C130 C 0.48846 0.8269 0.34286 0.0
C131 C 0.51813 0.93397 0.28006 0.0
C132 C 0.39755 0.85414 0.34056 0.0
C133 C 0.36704 0.81749 0.34389 0.0
C134 C 0.37041 0.79133 0.37037 0.0
C135 C 0.34945 0.75517 0.35738 0.0
C136 C 0.32614 0.74521 0.31639 0.0
C137 C 0.3181 0.77083 0.29726 0.0
C138 C 0.33881 0.80684 0.31052 0.0
C139 C 0.50756 0.94428 0.41892 0.0
O140 O 0.50777 0.88853 0.47093 0.0
O141 O 0.44879 0.86448 0.45381 0.0
O142 O 0.56552 0.89092 0.43752 0.0
O143 O 0.58648 0.91773 0.36711 0.0
O144 O 0.51958 0.85106 0.32706 0.0
O145 O 0.47949 0.84054 0.37841 0.0
O146 O 0.48466 0.91841 0.29885 0.0
O147 O 0.54106 0.92813 0.30754 0.0
O148 O 0.42413 0.85683 0.31313 0.0
O149 O 0.4084 0.87223 0.38213 0.0
O150 O 0.47363 0.92367 0.42893 0.0
O151 O 0.51441 0.93287 0.38003 0.0
H152 H 0.62964 0.98299 0.38688 0.0
H153 H 0.67384 0.03244 0.43722 0.0
H154 H 0.66792 0.95655 0.54725 0.0
H155 H 0.62528 0.9074 0.49568 0.0
H156 H 0.39193 0.79911 0.39683 0.0
H157 H 0.35537 0.736 0.37436 0.0
H158 H 0.29984 0.76449 0.26644 0.0
H159 H 0.33559 0.82668 0.29017 0.0
Ho160 Ho 0.60477 0.50551 0.70512 0.0
Ho161 Ho 0.54492 0.43565 0.69406 0.0
C162 C 0.57146 0.45263 0.81102 0.0
C163 C 0.65894 0.56869 0.72298 0.0
C164 C 0.67241 0.59592 0.76217 0.0
C165 C 0.66865 0.58609 0.81253 0.0
C166 C 0.68062 0.61227 0.84938 0.0
C167 C 0.69623 0.64871 0.83656 0.0
C168 C 0.7005 0.65856 0.78605 0.0
C169 C 0.68884 0.63225 0.74901 0.0
C170 C 0.6244 0.46057 0.65931 0.0
C171 C 0.55152 0.49538 0.60591 0.0
C172 C 0.51036 0.37067 0.6612 0.0
C173 C 0.52293 0.34476 0.65646 0.0
C174 C 0.55162 0.34881 0.68569 0.0
C175 C 0.57353 0.33546 0.66874 0.0
C176 C 0.56783 0.31914 0.62141 0.0
C177 C 0.53549 0.31007 0.59676 0.0
C178 C 0.51337 0.32294 0.61411 0.0
C179 C 0.52956 0.47826 0.74772 0.0
O180 O 0.59284 0.48616 0.79207 0.0
O181 O 0.55362 0.42683 0.77721 0.0
O182 O 0.65841 0.53886 0.73281 0.0
O183 O 0.63001 0.56335 0.7005 0.0
O184 O 0.63023 0.49084 0.64177 0.0
O185 O 0.60363 0.4535 0.69688 0.0
O186 O 0.53326 0.46138 0.62296 0.0
O187 O 0.58028 0.51808 0.63332 0.0
O188 O 0.52783 0.39859 0.63227 0.0
O189 O 0.5059 0.37947 0.70635 0.0
O190 O 0.5112 0.44357 0.7516 0.0
O191 O 0.54863 0.48689 0.70902 0.0
H192 H 0.65573 0.55817 0.82348 0.0
H193 H 0.67594 0.60377 0.88807 0.0
H194 H 0.71197 0.6864 0.77539 0.0
H195 H 0.69191 0.64016 0.71013 0.0
H196 H 0.55944 0.36551 0.7188 0.0
H197 H 0.59723 0.34173 0.68994 0.0
H198 H 0.52938 0.29725 0.56053 0.0
H199 H 0.4913 0.31946 0.59112 0.0
Ho200 Ho 0.09375 0.63238 1.03948 0.0
Ho201 Ho 0.08573 0.56827 1.04103 0.0
C202 C 0.10882 0.59836 0.15065 0.0
C203 C 0.09694 0.69327 1.05726 0.0
C204 C 0.09057 0.70869 1.10256 0.0
C205 C 0.1004 0.70209 0.14931 0.0
C206 C 0.08705 0.70911 0.19284 0.0
C207 C 0.06358 0.72289 0.19049 0.0
C208 C 0.05664 0.73271 1.14372 0.0
C209 C 0.06994 0.72548 1.1 0.0
C210 C 0.15381 0.63847 0.99639 0.0
C211 C 0.0438 0.57724 0.94323 0.0
C212 C 0.09274 0.5137 1.01867 0.0
C213 C 0.12412 0.50885 1.0195 0.0
C214 C 0.15332 0.53047 1.05032 0.0
C215 C 0.18783 0.53766 1.03704 0.0
C216 C 0.19367 0.52452 0.99168 0.0
C217 C 0.16334 0.49801 0.96608 0.0
C218 C 0.12889 0.49035 0.97991 0.0
C219 C 0.0324 0.57441 1.09018 0.0
O220 O 0.1007 0.62219 1.12908 0.0
O221 O 0.10959 0.57538 1.1186 0.0
O222 O 0.12473 0.68891 1.05747 0.0
O223 O 0.06868 0.66518 1.03998 0.0
O224 O 0.13223 0.64678 0.97498 0.0
O225 O 0.13826 0.62072 1.03578 0.0
O226 O 0.04924 0.55441 0.96984 0.0
O227 O 0.0602 0.61101 0.96237 0.0
O228 O 0.09593 0.53766 0.98621 0.0
O229 O 0.07987 0.51695 1.06156 0.0
O230 O 0.04747 0.55663 1.10524 0.0
O231 O 0.04418 0.58465 1.0471 0.0
H232 H 0.11639 0.68924 0.15232 0.0
H233 H 0.09269 0.70071 0.22796 0.0
H234 H 0.03905 0.74379 1.14072 0.0
H235 H 0.06222 0.73088 1.06416 0.0
H236 H 0.15017 0.54481 1.0815 0.0
H237 H 0.21021 0.55685 1.05912 0.0
H238 H 0.16598 0.48656 0.93134 0.0
H239 H 0.10663 0.47343 0.95583 0.0
Ho240 Ho 0.87705 0.49176 0.57094 0.0
Ho241 Ho 0.8545 0.41876 0.59274 0.0
C242 C 0.85993 0.43509 0.46957 0.0
C243 C 0.8956 0.55593 0.54103 0.0
C244 C 0.91918 0.58346 0.50508 0.0
C245 C 0.91929 0.57549 0.45424 0.0
C246 C 0.94109 0.60253 0.42073 0.0
C247 C 0.96328 0.63781 0.43755 0.0
C248 C 0.96366 0.64562 0.4885 0.0
C249 C 0.9415 0.61864 0.52198 0.0
C250 C 0.8094 0.45633 0.61603 0.0
C251 C 0.90861 0.48355 0.67976 0.0
C252 C 0.81426 0.35563 0.63047 0.0
C253 C 0.78418 0.34204 0.66707 0.0
C254 C 0.75149 0.3401 0.65485 0.0
C255 C 0.72575 0.33358 0.69179 0.0
C256 C 0.73212 0.32892 0.74173 0.0
C257 C 0.76335 0.32763 0.75301 0.0
C258 C 0.78907 0.33407 0.71602 0.0
C259 C 0.9175 0.4507 0.54658 0.0
O260 O 0.87141 0.46868 0.48723 0.0
O261 O 0.84941 0.40934 0.50465 0.0
O262 O 0.86848 0.52686 0.52322 0.0
O263 O 0.91123 0.5494 0.57754 0.0
O264 O 0.83605 0.48675 0.62923 0.0
O265 O 0.82169 0.44511 0.58151 0.0
O266 O 0.88452 0.44843 0.6698 0.0
O267 O 0.91275 0.50641 0.64312 0.0
O268 O 0.8463 0.37806 0.64722 0.0
O269 O 0.80836 0.36576 0.58756 0.0
O270 O 0.89601 0.41628 0.54395 0.0
O271 O 0.9069 0.46402 0.57978 0.0
H272 H 0.90261 0.54848 0.44036 0.0
H273 H 0.94094 0.59577 0.38166 0.0
H274 H 0.9807 0.67261 0.50222 0.0
H275 H 0.94173 0.62522 0.56114 0.0
H276 H 0.74645 0.34551 0.61728 0.0
H277 H 0.70183 0.33433 0.68175 0.0
H278 H 0.76945 0.32453 0.79114 0.0
H279 H 0.81376 0.33497 0.72638 0.0
Ho280 Ho 0.36685 0.88501 0.89733 0.0
Ho281 Ho 0.42269 0.87126 0.92598 0.0
C282 C 0.41091 0.86682 0.80215 0.0
C283 C 0.31757 0.89738 0.86494 0.0
C284 C 0.31057 0.91823 0.82845 0.0
C285 C 0.3212 0.92041 0.77832 0.0
C286 C 0.31275 0.9393 0.74424 0.0
C287 C 0.29382 0.95645 0.75987 0.0
C288 C 0.28361 0.95459 0.81014 0.0
C289 C 0.29176 0.93539 0.84414 0.0
C290 C 0.34039 0.82077 0.94841 0.0
C291 C 0.40698 0.9235 1.00686 0.0
C292 C 0.45064 0.83715 0.96753 0.0
C293 C 0.43587 0.81094 1.00828 0.0
C294 C 0.40494 0.80579 1.03347 0.0
C295 C 0.3883 0.77887 1.06912 0.0
C296 C 0.40211 0.75627 1.0804 0.0
C297 C 0.43302 0.76128 1.05466 0.0
C298 C 0.44966 0.78833 1.01858 0.0
C299 C 0.44642 0.93024 0.87068 0.0
O300 O 0.38634 0.87665 0.81512 0.0
O301 O 0.42705 0.86065 0.84048 0.0
O302 O 0.32255 0.87173 0.84805 0.0
O303 O 0.33926 0.91536 0.90106 0.0
O304 O 0.33273 0.8455 0.95769 0.0
O305 O 0.36426 0.83333 0.91447 0.0
O306 O 0.42081 0.90159 1.00082 0.0
O307 O 0.38723 0.92373 0.96815 0.0
O308 O 0.45998 0.87026 0.97895 0.0
O309 O 0.43148 0.82628 0.92713 0.0
O310 O 0.46327 0.91227 0.87321 0.0
O311 O 0.42322 0.92003 0.90466 0.0
H312 H 0.33599 0.90759 0.7655 0.0
H313 H 0.32161 0.94107 0.70578 0.0
H314 H 0.26917 0.96776 0.82299 0.0
H315 H 0.28328 0.93384 0.88276 0.0
H316 H 0.39355 0.82261 1.02537 0.0
H317 H 0.36519 0.77661 1.089 0.0
H318 H 0.44438 0.74443 1.0626 0.0
H319 H 0.47308 0.79146 0.99858 0.0
Ho320 Ho 0.47607 0.37647 0.23102 0.0
Ho321 Ho 0.54794 0.43015 0.25301 0.0
C322 C 0.53356 0.41311 1.13034 0.0
C323 C 0.41218 0.32642 0.20654 0.0
C324 C 0.38138 0.31567 0.17363 0.0
C325 C 0.34942 0.31225 0.19342 0.0
C326 C 0.31932 0.30053 0.16337 0.0
C327 C 0.32055 0.2914 1.11333 0.0
C328 C 0.35219 0.29378 1.09405 0.0
C329 C 0.38233 0.3058 1.12389 0.0
C330 C 0.51319 0.3491 0.28086 0.0
C331 C 0.48256 0.42063 0.33712 0.0
C332 C 0.61038 0.45423 0.29195 0.0
C333 C 0.619 0.43499 0.32938 0.0
C334 C 0.65347 0.43913 0.33223 0.0
C335 C 0.65915 0.41534 0.36114 0.0
C336 C 0.63013 0.38667 0.386 0.0
C337 C 0.59603 0.38334 0.38383 0.0
C338 C 0.59054 0.40718 0.35593 0.0
C339 C 0.51453 0.45656 0.20045 0.0
O340 O 0.49953 0.39078 1.14666 0.0
O341 O 0.55819 0.42998 0.16617 0.0
O342 O 0.44165 0.32972 0.18712 0.0
O343 O 0.41838 0.35088 0.23999 0.0
O344 O 0.48221 0.34445 0.29335 0.0
O345 O 0.52399 0.37107 0.24493 0.0
O346 O 0.51797 0.43239 0.32908 0.0
O347 O 0.46092 0.40095 0.29984 0.0
O348 O 0.58823 0.46517 0.30617 0.0
O349 O 0.60139 0.43761 0.2492 0.0
O350 O 0.5493 0.47102 0.19961 0.0
O351 O 0.50141 0.43418 0.2354 0.0
H352 H 0.34782 0.31894 0.23207 0.0
H353 H 0.29532 0.29917 0.17891 0.0
H354 H 0.35417 0.28775 1.0552 0.0
H355 H 0.40637 0.30757 1.10781 0.0
H356 H 0.67561 0.46002 0.3111 0.0
H357 H 0.68581 0.41882 0.36326 0.0
H358 H 0.57347 0.36224 0.40411 0.0
H359 H 0.56361 0.40306 0.35372 0.0
Ho360 Ho 0.07947 0.48924 0.55201 0.0
Ho361 Ho 0.12566 0.55818 0.59018 0.0
C362 C 0.11928 0.5516 0.46304 0.0
C363 C 0.03637 0.4286 0.51009 0.0
C364 C 0.03868 0.40223 0.4775 0.0
C365 C 0.05342 0.4113 0.42919 0.0
C366 C 0.05108 0.38477 0.39683 0.0
C367 C 0.03404 0.34869 0.41216 0.0
C368 C 0.0218 0.34021 0.4618 0.0
C369 C 0.02392 0.36674 0.49407 0.0
C370 C 0.14475 0.499 0.58566 0.0
C371 C 0.05859 0.49595 0.66874 0.0
C372 C 0.18208 0.60829 0.63374 0.0
C373 C 0.20691 0.60851 0.67168 0.0
C374 C 0.23136 0.59674 0.66 0.0
C375 C 0.25092 0.59212 0.69762 0.0
C376 C 0.24683 0.59973 0.74752 0.0
C377 C 0.22461 0.61431 0.75835 0.0
C378 C 0.20495 0.61869 0.72084 0.0
C379 C 0.07259 0.56045 0.54786 0.0
O380 O 0.09933 0.51659 0.47335 0.0
O381 O 0.13456 0.57343 0.50286 0.0
O382 O 0.04864 0.43142 0.55509 0.0
O383 O 0.04477 0.45961 0.49077 0.0
O384 O 0.11386 0.47148 0.59551 0.0
O385 O 0.13903 0.51938 0.55897 0.0
O386 O 0.09182 0.52587 0.66547 0.0
O387 O 0.04594 0.47985 0.62498 0.0
O388 O 0.1493 0.5984 0.64856 0.0
O389 O 0.18275 0.59439 0.59065 0.0
O390 O 0.10367 0.58875 0.55411 0.0
O391 O 0.06888 0.5332 0.57197 0.0
H392 H 0.06529 0.43854 0.41555 0.0
H393 H 0.06035 0.3923 0.35868 0.0
H394 H 0.00888 0.31278 0.47488 0.0
H395 H 0.0127 0.35924 0.53142 0.0
H396 H 0.23441 0.58971 0.62213 0.0
H397 H 0.268 0.58114 0.68798 0.0
H398 H 0.22031 0.62002 0.79642 0.0
H399 H 0.18684 0.62839 0.73079 0.0
Ho400 Ho 0.59409 0.08903 0.89398 0.0
Ho401 Ho 0.55606 0.12425 0.92963 0.0
C402 C 0.55835 0.11898 0.80407 0.0
C403 C 0.62454 0.0578 0.8484 0.0
C404 C 0.65964 0.06609 0.82798 0.0
C405 C 0.6658 0.03769 0.81857 0.0
C406 C 0.69219 0.04181 0.78418 0.0
C407 C 0.71244 0.07437 0.75829 0.0
C408 C 0.70969 0.10423 0.77339 0.0
C409 C 0.68334 0.1001 0.80805 0.0
C410 C 0.63911 0.15578 0.93572 0.0
C411 C 0.56054 0.06404 1.00984 0.0
C412 C 0.54747 0.17268 0.97471 0.0
C413 C 0.56733 0.1961 1.01651 0.0
C414 C 0.59368 0.19146 1.03963 0.0
C415 C 0.61358 0.21376 1.07865 0.0
C416 C 0.6076 0.24134 1.09556 0.0
C417 C 0.58172 0.24656 1.0713 0.0
C418 C 0.5618 0.22413 1.03182 0.0
C419 C 0.51253 0.06283 0.88504 0.0
O420 O 0.57687 0.1022 0.81499 0.0
O421 O 0.54896 0.13224 0.84361 0.0
O422 O 0.62057 0.05729 0.89675 0.0
O423 O 0.60925 0.0732 0.82569 0.0
O424 O 0.64185 0.12759 0.94052 0.0
O425 O 0.6131 0.14708 0.90661 0.0
O426 O 0.55606 0.09289 1.00399 0.0
O427 O 0.57208 0.05458 0.96857 0.0
O428 O 0.52811 0.13846 0.98495 0.0
O429 O 0.56682 0.17869 0.93423 0.0
O430 O 0.50572 0.08897 0.88835 0.0
O431 O 0.53816 0.06865 0.91328 0.0
H432 H 0.64785 0.01132 0.83383 0.0
H433 H 0.69346 0.0182 0.77352 0.0
H434 H 0.72527 0.12975 0.75459 0.0
H435 H 0.67922 0.12252 0.81542 0.0
H436 H 0.59852 0.17014 1.02787 0.0
H437 H 0.63247 0.20814 1.09709 0.0
H438 H 0.57638 0.26745 1.0835 0.0
H439 H 0.5419 0.22839 1.01367 0.0
Ho440 Ho 0.49118 0.59117 0.22866 0.0
Ho441 Ho 0.42072 0.55661 0.25266 0.0
C442 C 0.4377 0.56824 1.12756 0.0
C443 C 0.55779 0.62923 0.20227 0.0
C444 C 0.58522 0.64126 0.16327 0.0
C445 C 0.57634 0.63826 1.11274 0.0
C446 C 0.60354 0.65249 1.07664 0.0
C447 C 0.63988 0.66994 1.09071 0.0
C448 C 0.6485 0.67281 1.14149 0.0
C449 C 0.62128 0.65859 0.17752 0.0
C450 C 0.46991 0.63395 0.28086 0.0
C451 C 0.47883 0.55188 0.33556 0.0
C452 C 0.35727 0.54631 0.27493 0.0
C453 C 0.34272 0.56827 0.29516 0.0
C454 C 0.35931 0.6052 0.28562 0.0
C455 C 0.34835 0.62636 0.31176 0.0
C456 C 0.3213 0.61112 0.34893 0.0
C457 C 0.30288 0.5735 0.35475 0.0
C458 C 0.31348 0.55243 0.32812 0.0
C459 C 0.43053 0.50568 0.21544 0.0
O460 O 0.47161 0.58481 1.14469 0.0
O461 O 0.41202 0.55418 0.16362 0.0
O462 O 0.53459 0.64015 0.19895 0.0
O463 O 0.5436 0.59623 0.21819 0.0
O464 O 0.49488 0.62763 0.29429 0.0
O465 O 0.45585 0.61426 0.24371 0.0
O466 O 0.44799 0.55313 0.33087 0.0
O467 O 0.49824 0.56041 0.29386 0.0
O468 O 0.37664 0.53984 0.30552 0.0
O469 O 0.37147 0.55442 0.23044 0.0
O470 O 0.40986 0.50085 0.25349 0.0
O471 O 0.44825 0.53815 0.20241 0.0
H472 H 0.54853 0.62507 1.10133 0.0
H473 H 0.5961 0.64905 1.03765 0.0
H474 H 0.67621 0.68596 0.15324 0.0
H475 H 0.62838 0.6614 0.21665 0.0
H476 H 0.38184 0.61799 0.25985 0.0
H477 H 0.36275 0.65493 0.30503 0.0
H478 H 0.28225 0.56022 0.38302 0.0
H479 H 0.30022 0.52392 0.33569 0.0
H480 H 0.51511 0.20311 0.25438 0.0
H481 H 0.51482 0.20675 0.41517 0.0
H482 H 0.51863 0.26533 0.41262 0.0
H483 H 0.51655 0.31371 0.36449 0.0
H484 H 0.52218 0.31243 0.20386 0.0
H485 H 0.52174 0.2555 0.20656 0.0
C486 C 0.51689 0.21715 0.28891 0.0
C487 C 0.51489 0.20019 0.33496 0.0
C488 C 0.51974 0.25147 0.2872 0.0
C489 C 0.51688 0.21898 0.37916 0.0
C490 C 0.5187 0.25252 0.37771 0.0
C491 C 0.51868 0.30147 0.33012 0.0
C492 C 0.5196 0.31781 0.28396 0.0
C493 C 0.51945 0.26884 0.33198 0.0
C494 C 0.52193 0.30105 0.23992 0.0
C495 C 0.52153 0.26823 0.24145 0.0
H496 H 0.30623 0.52761 0.58728 0.0
H497 H 0.26304 0.45238 0.70896 0.0
H498 H 0.20447 0.44781 0.69893 0.0
H499 H 0.16411 0.46391 0.65422 0.0
H500 H 0.20803 0.54206 0.53601 0.0
H501 H 0.26682 0.5471 0.54637 0.0
C502 C 0.28417 0.51059 0.61204 0.0
C503 C 0.28947 0.49037 0.64905 0.0
C504 C 0.25019 0.50846 0.60648 0.0
C505 C 0.26008 0.46821 0.6802 0.0
C506 C 0.22637 0.46556 0.67442 0.0
C507 C 0.18652 0.48204 0.63068 0.0
C508 C 0.18107 0.50227 0.5939 0.0
C509 C 0.22084 0.48528 0.63743 0.0
C510 C 0.21092 0.52591 0.56438 0.0
C511 C 0.24479 0.52882 0.57031 0.0
H512 H 0.79355 0.29554 0.91733 0.0
H513 H 0.77164 0.30709 1.07167 0.0
H514 H 0.7118 0.25404 1.06488 0.0
H515 H 0.66685 0.20096 1.0167 0.0
H516 H 0.68704 0.19203 0.86096 0.0
H517 H 0.74571 0.2469 0.86654 0.0
C518 C 0.77549 0.28683 0.94934 0.0
C519 C 0.78759 0.30555 0.99513 0.0
C520 C 0.74064 0.25625 0.94501 0.0
C521 C 0.76342 0.29364 1.03593 0.0
C522 C 0.72908 0.26301 1.03213 0.0
C523 C 0.6837 0.21151 0.98371 0.0
C524 C 0.67211 0.19236 0.93821 0.0
C525 C 0.71751 0.24363 0.98713 0.0
C526 C 0.69486 0.20626 0.89619 0.0
C527 C 0.72866 0.23759 0.89953 0.0
H528 H 0.46053 0.66706 0.3645 0.0
H529 H 0.48597 0.68271 0.2073 0.0
H530 H 0.49231 0.74226 0.21174 0.0
H531 H 0.49254 0.79136 0.26053 0.0
H532 H 0.4635 0.77522 0.41652 0.0
H533 H 0.45726 0.71534 0.4124 0.0
C534 C 0.46752 0.68357 0.33129 0.0
C535 C 0.47322 0.67032 0.28565 0.0
C536 C 0.4703 0.71793 0.33382 0.0
C537 C 0.48165 0.69206 0.24293 0.0
C538 C 0.4853 0.72627 0.24545 0.0
C539 C 0.48407 0.77447 0.29348 0.0
C540 C 0.4782 0.788 0.3387 0.0
C541 C 0.47981 0.73964 0.29067 0.0
C542 C 0.46753 0.76557 0.38096 0.0
C543 C 0.46409 0.73126 0.37869 0.0
H544 H 0.67123 0.47175 0.58119 0.0
H545 H 0.64627 0.43046 0.73131 0.0
H546 H 0.70026 0.42523 0.73184 0.0
H547 H 0.75696 0.43432 0.69058 0.0
H548 H 0.77959 0.47244 0.53882 0.0
H549 H 0.72475 0.47628 0.53779 0.0
C550 C 0.67715 0.46086 0.61373 0.0
C551 C 0.65413 0.45145 0.65615 0.0
C552 C 0.70829 0.45724 0.61349 0.0
C553 C 0.6628 0.43757 0.69784 0.0
C554 C 0.69397 0.43458 0.69818 0.0
C555 C 0.74952 0.44279 0.65696 0.0
C556 C 0.77259 0.45272 0.61452 0.0
C557 C 0.71721 0.44451 0.65637 0.0
C558 C 0.76241 0.46409 0.5717 0.0
C559 C 0.73105 0.46663 0.57128 0.0
H560 H 0.30772 0.77568 1.02908 0.0
H561 H 0.30337 0.78013 0.86883 0.0
H562 H 0.24712 0.72271 0.86855 0.0
H563 H 0.19531 0.67404 0.91458 0.0
H564 H 0.20107 0.66709 1.07429 0.0
H565 H 0.26019 0.72149 1.07396 0.0
C566 C 0.29487 0.76365 0.99403 0.0
C567 C 0.31012 0.78246 0.94893 0.0
C568 C 0.26237 0.72995 0.99406 0.0
C569 C 0.29275 0.76633 0.90399 0.0
C570 C 0.26028 0.73346 0.90386 0.0
C571 C 0.2099 0.68384 0.9492 0.0
C572 C 0.19332 0.66605 0.9944 0.0
C573 C 0.24429 0.71535 0.94872 0.0
C574 C 0.21289 0.67962 1.03881 0.0
C575 C 0.24675 0.71116 1.0387 0.0
H576 H 0.67635 0.26644 1.12683 0.0
H577 H 0.57577 0.25744 0.1724 0.0
H578 H 0.59248 0.26136 0.25955 0.0
H579 H 0.62312 0.2434 0.31787 0.0
H580 H 0.71916 0.24263 0.27204 0.0
H581 H 0.71724 0.26698 0.1908 0.0
C582 C 0.65857 0.26638 0.15589 0.0
C583 C 0.6241 0.25976 1.14326 0.0
C584 C 0.66707 0.26567 0.20611 0.0
C585 C 0.60209 0.26164 0.18094 0.0
C586 C 0.61142 0.26335 0.23101 0.0
C587 C 0.64483 0.25019 0.29136 0.0
C588 C 0.66999 0.239 0.29989 0.0
C589 C 0.64208 0.26174 0.24372 0.0
C590 C 0.69851 0.24945 0.26553 0.0
C591 C 0.69719 0.26301 0.21879 0.0
H592 H 0.37324 0.67707 0.38296 0.0
H593 H 0.26175 0.59773 0.40676 0.0
H594 H 0.26709 0.61335 0.49504 0.0
H595 H 0.309 0.63359 0.566 0.0
H596 H 0.42107 0.70974 0.53879 0.0
H597 H 0.40839 0.71445 0.45237 0.0
C598 C 0.34938 0.66412 0.40634 0.0
C599 C 0.31806 0.6337 0.38909 0.0
C600 C 0.35281 0.6727 0.45731 0.0
C601 C 0.28717 0.61927 0.41997 0.0
C602 C 0.29013 0.62824 0.47062 0.0
C603 C 0.33059 0.65186 0.54139 0.0
C604 C 0.36633 0.66912 0.55825 0.0
C605 C 0.32387 0.6522 0.49027 0.0
C606 C 0.39343 0.69478 0.52692 0.0
C607 C 0.38642 0.69702 0.4768 0.0
H608 H 0.70699 0.40782 0.91216 0.0
H609 H 0.72081 0.32968 0.9942 0.0
H610 H 0.70374 0.29142 0.92161 0.0
H611 H 0.71044 0.29238 0.83028 0.0
H612 H 0.70674 0.37535 0.7462 0.0
H613 H 0.69547 0.39929 0.82237 0.0
C614 C 0.70578 0.38215 0.91453 0.0
C615 C 0.71847 0.37354 0.95755 0.0
C616 C 0.69968 0.36167 0.87099 0.0
C617 C 0.71322 0.33856 0.96124 0.0
C618 C 0.70414 0.31662 0.91913 0.0
C619 C 0.70595 0.31497 0.82849 0.0
C620 C 0.71096 0.33299 0.78293 0.0
C621 C 0.70147 0.32986 0.87283 0.0
C622 C 0.70367 0.36133 0.78086 0.0
C623 C 0.69757 0.37531 0.82462 0.0
H624 H 0.33142 0.71316 1.10581 0.0
H625 H 0.4385 0.74351 0.15297 0.0
H626 H 0.41651 0.72446 0.23765 0.0
H627 H 0.37425 0.72263 0.29929 0.0
H628 H 0.26939 0.701 0.25451 0.0
H629 H 0.28253 0.69155 0.1687 0.0
C630 C 0.34975 0.71459 1.13438 0.0
C631 C 0.38683 0.73143 1.12363 0.0
C632 C 0.33747 0.7059 0.1839 0.0
C633 C 0.40998 0.73147 0.16025 0.0
C634 C 0.3975 0.7209 0.20901 0.0
C635 C 0.35337 0.71417 0.2716 0.0
C636 C 0.32212 0.71589 0.28229 0.0
C637 C 0.36223 0.71154 0.22187 0.0
C638 C 0.29468 0.70218 0.2465 0.0
C639 C 0.3024 0.69729 0.19715 0.0
H640 H 0.6726 0.40347 0.46663 0.0
H641 H 0.596 0.31384 0.37985 0.0
H642 H 0.57758 0.27551 0.45381 0.0
H643 H 0.56777 0.27605 0.54434 0.0
H644 H 0.63993 0.36968 0.6295 0.0
H645 H 0.67732 0.39554 0.55637 0.0
C646 C 0.6534 0.37505 0.46339 0.0
C647 C 0.6345 0.36171 0.4188 0.0
C648 C 0.64139 0.3538 0.50661 0.0
C649 C 0.6101 0.32476 0.41452 0.0
C650 C 0.59925 0.30297 0.45692 0.0
C651 C 0.59223 0.30178 0.54732 0.0
C652 C 0.59881 0.32219 0.59131 0.0
C653 C 0.61207 0.3184 0.50382 0.0
C654 C 0.63243 0.35382 0.59571 0.0
C655 C 0.65383 0.36928 0.55342 0.0
H656 H 0.22408 0.5009 0.92058 0.0
H657 H 0.24288 0.59688 0.99806 0.0
H658 H 0.27503 0.63271 0.92651 0.0
H659 H 0.27616 0.63358 0.83515 0.0
H660 H 0.24581 0.53589 0.75411 0.0
H661 H 0.24057 0.50477 0.83194 0.0
C662 C 0.23593 0.52976 0.92228 0.0
C663 C 0.22833 0.54548 0.9635 0.0
C664 C 0.25147 0.55013 0.87894 0.0
C665 C 0.24659 0.58325 0.96651 0.0
C666 C 0.26473 0.60406 0.92492 0.0
C667 C 0.26957 0.60577 0.83452 0.0
C668 C 0.25972 0.5867 0.78926 0.0
C669 C 0.26386 0.5873 0.87963 0.0
C670 C 0.25279 0.55115 0.78853 0.0
C671 C 0.24934 0.53312 0.83325 0.0
H672 H 0.42626 0.92233 1.11415 0.0
H673 H 0.40617 0.98818 1.01465 0.0
H674 H 0.41779 0.03081 1.08265 0.0
H675 H 0.43476 0.05287 0.17418 0.0
H676 H 0.44987 0.98404 0.27427 0.0
H677 H 0.43904 0.94216 0.20625 0.0
C678 C 0.4242 0.94582 1.1063 0.0
C679 C 0.4149 0.95009 1.05529 0.0
C680 C 0.43025 0.97129 1.14803 0.0
C681 C 0.41284 0.98203 1.05072 0.0
C682 C 0.41969 0.00727 1.09091 0.0
C683 C 0.43557 0.02872 0.18224 0.0
C684 C 0.44449 0.02403 0.2334 0.0
C685 C 0.42851 0.00279 1.14056 0.0
C686 C 0.44452 -0.00892 0.23812 0.0
C687 C 0.43787 0.96609 0.19786 0.0
H688 H 0.48796 0.41829 0.44868 0.0
H689 H 0.43694 0.44926 0.33807 0.0
H690 H 0.41093 0.46878 0.40447 0.0
H691 H 0.40208 0.48003 0.49727 0.0
H692 H 0.44701 0.44225 0.60789 0.0
H693 H 0.47386 0.42368 0.54148 0.0
C694 C 0.47126 0.42931 0.43812 0.0
C695 C 0.46633 0.43232 0.38468 0.0
C696 C 0.4543 0.4399 0.47855 0.0
C697 C 0.4429 0.4462 0.37628 0.0
C698 C 0.42745 0.45763 0.41545 0.0
C699 C 0.41774 0.46786 0.50783 0.0
C700 C 0.42216 0.46427 0.56129 0.0
C701 C 0.4329 0.45525 0.4674 0.0
C702 C 0.44236 0.44678 0.56968 0.0
C703 C 0.45814 0.43572 0.5305 0.0
H704 H 0.06723 0.50889 0.78182 0.0
H705 H -0.01171 0.4395 0.67533 0.0
H706 H 0.94619 0.40792 0.74315 0.0
H707 H 0.92775 0.39692 0.83601 0.0
H708 H 0.00551 0.46601 0.9433 0.0
H709 H 0.04852 0.49758 0.87586 0.0
C710 C 0.04096 0.48693 0.77234 0.0
C711 C 0.03321 0.47817 0.7191 0.0
C712 C 0.01495 0.46723 0.81402 0.0
C713 C -0.00247 0.44865 0.71285 0.0
C714 C 0.97246 0.42975 0.75301 0.0
C715 C 0.9541 0.41861 0.84578 0.0
C716 C 0.96121 0.42752 0.89892 0.0
C717 C 0.98024 0.43817 0.80446 0.0
C718 C -0.00316 0.45682 0.90579 0.0
C719 C 0.0224 0.4756 0.86574 0.0
H720 H 0.51 -0.00596 0.24142 0.0
H721 H 0.55399 0.92848 0.19412 0.0
H722 H 0.56941 0.95866 1.11258 0.0
H723 H 0.57087 0.00464 1.04901 0.0
H724 H 0.52834 0.07144 1.09799 0.0
H725 H 0.5131 0.04122 0.17905 0.0
C726 C 0.52239 0.98548 0.21346 0.0
C727 C 0.5294 0.95675 0.22748 0.0
C728 C 0.53207 0.00413 0.16419 0.0
C729 C 0.54729 0.94924 0.18808 0.0
C730 C 0.55628 0.96698 1.13987 0.0
C731 C 0.55812 0.01303 1.07679 0.0
C732 C 0.55134 0.04207 1.06312 0.0
C733 C 0.54889 -0.00534 1.12638 0.0
C734 C 0.53471 0.05039 1.10343 0.0
C735 C 0.52555 0.03245 0.15136 0.0
H736 H 0.55764 0.4939 0.49538 0.0
H737 H 0.51027 0.52955 0.60763 0.0
H738 H 0.48433 0.54884 0.54186 0.0
H739 H 0.47157 0.555 0.44863 0.0
H740 H 0.52291 0.52243 0.33778 0.0
H741 H 0.54885 0.50408 0.40359 0.0
C742 C 0.54188 0.50604 0.50644 0.0
C743 C 0.53676 0.50914 0.55991 0.0
C744 C 0.52668 0.51823 0.46661 0.0
C745 C 0.51578 0.52582 0.5692 0.0
C746 C 0.50048 0.5372 0.5304 0.0
C747 C 0.48826 0.54383 0.43789 0.0
C748 C 0.49343 0.54026 0.38433 0.0
C749 C 0.50497 0.53337 0.47819 0.0
C750 C 0.51676 0.52606 0.37594 0.0
C751 C 0.53225 0.51528 0.41477 0.0
H752 H 0.97866 0.51036 0.91097 0.0
H753 H 0.05295 0.61475 0.85244 0.0
H754 H 0.02169 0.59752 0.77212 0.0
H755 H 0.97218 0.55214 0.71302 0.0
H756 H 0.8976 0.44794 0.77241 0.0
H757 H 0.92774 0.4661 0.85322 0.0
C758 C -0.01118 0.52974 0.88095 0.0
C759 C 0.02038 0.56479 0.89143 0.0
C760 C 0.96959 0.51932 0.83238 0.0
C761 C 0.03002 0.58801 0.84924 0.0
C762 C 0.01163 0.57778 0.80174 0.0
C763 C 0.9622 0.53266 0.74296 0.0
C764 C 0.9309 0.49733 0.73245 0.0
C765 C 0.98121 0.54333 0.79177 0.0
C766 C 0.9206 0.47466 0.77531 0.0
C767 C 0.93859 0.48526 0.82297 0.0
H768 H 0.42607 0.98291 0.36306 0.0
H769 H 0.41188 -0.00149 0.51593 0.0
H770 H 0.45857 0.98384 0.53982 0.0
H771 H 0.51573 0.98445 0.51012 0.0
H772 H 0.54624 0.0064 0.35875 0.0
H773 H 0.48902 0.00245 0.33684 0.0
C774 C 0.43323 0.98248 0.40169 0.0
C775 C 0.42437 0.00069 0.43699 0.0
C776 C 0.46612 0.985 0.41155 0.0
C777 C 0.42563 -0.00798 0.48723 0.0
C778 C 0.45299 0.98516 0.50079 0.0
C779 C 0.50878 0.98768 0.47249 0.0
C780 C 0.52583 0.98247 0.43116 0.0
C781 C 0.47587 0.98549 0.46268 0.0
C782 C 0.52615 0.00041 0.3876 0.0
C783 C 0.49307 -0.00357 0.37438 0.0
H784 H 0.49822 0.56609 0.77035 0.0
H785 H 0.41571 0.46224 0.81982 0.0
H786 H 0.45456 0.46338 0.88583 0.0
H787 H 0.50448 0.46049 0.84242 0.0
H788 H 0.57837 0.55112 0.75496 0.0
H789 H 0.56071 0.58866 0.80006 0.0
C790 C 0.489 0.54367 0.79598 0.0
C791 C 0.45728 0.51159 0.78557 0.0
C792 C 0.51326 0.54232 0.82916 0.0
C793 C 0.44248 0.48521 0.82303 0.0
C794 C 0.46449 0.48659 0.86167 0.0
C795 C 0.51733 0.48901 0.83465 0.0
C796 C 0.53819 0.50214 0.79108 0.0
C797 C 0.5013 0.50835 0.85253 0.0
C798 C 0.55916 0.53944 0.78513 0.0
C799 C 0.54864 0.56082 0.81117 0.0
H800 H -0.01418 0.45759 0.17856 0.0
H801 H 0.00405 0.44914 1.02621 0.0
H802 H -0.0071 0.49857 1.00403 0.0
H803 H 0.97356 0.54081 1.03225 0.0
H804 H -0.00494 0.5733 0.18295 0.0
H805 H 0.9828 0.5129 0.20841 0.0
C806 C -0.01353 0.46676 1.14078 0.0
C807 C 0.98132 0.44434 1.09982 0.0
C808 C 0.98145 0.49592 1.13134 0.0
C809 C -0.00281 0.46236 1.05515 0.0
C810 C -0.01046 0.48922 1.04213 0.0
C811 C 0.97483 0.53393 1.07084 0.0
C812 C -0.00528 0.56174 1.10404 0.0
C813 C 0.9782 0.50398 1.08036 0.0
C814 C -0.01223 0.55261 0.15499 0.0
C815 C 0.98207 0.51886 0.16935 0.0
H816 H 0.04922 0.51997 0.46462 0.0
H817 H 0.04157 0.60189 0.54588 0.0
H818 H 0.98129 0.57884 0.51469 0.0
H819 H 0.93333 0.51724 0.52497 0.0
H820 H 0.94481 0.43011 0.46802 0.0
H821 H -0.0012 0.47267 0.42251 0.0
C822 C 0.03564 0.53427 0.47302 0.0
C823 C 0.04781 0.55989 0.51108 0.0
C824 C 0.00037 0.51885 0.458 0.0
C825 C 0.03101 0.58003 0.51924 0.0
C826 C -0.00335 0.56701 0.50064 0.0
C827 C 0.94704 0.50769 0.50101 0.0
C828 C 0.93841 0.47177 0.5039 0.0
C829 C 0.97958 0.53243 0.47994 0.0
C830 C 0.9534 0.4584 0.46949 0.0
C831 C 0.98383 0.48279 0.44299 0.0
H832 H 0.48516 0.94179 0.78662 0.0
H833 H 0.39391 0.94611 0.84165 0.0
H834 H 0.40849 -0.00363 0.78715 0.0
H835 H 0.46226 0.05044 0.8169 0.0
H836 H 0.54952 0.03231 0.84737 0.0
H837 H 0.53757 -0.00202 0.77158 0.0
C838 C 0.46883 0.95453 0.78629 0.0
C839 C 0.44262 0.94497 0.82335 0.0
C840 C 0.48397 0.98985 0.76977 0.0
C841 C 0.41726 0.95608 0.81766 0.0
C842 C 0.42609 0.98513 0.78633 0.0
C843 C 0.47808 0.03803 0.80693 0.0
C844 C 0.50614 0.04322 0.83824 0.0
C845 C 0.463 0.00708 0.77732 0.0
C846 C 0.52824 0.02949 0.82373 0.0
C847 C 0.52044 0.00905 0.78065 0.0
H848 H 0.45082 0.51594 1.11842 0.0
H849 H 0.37882 0.43344 0.21972 0.0
H850 H 0.38696 0.3899 0.17212 0.0
H851 H 0.44889 0.40283 0.1795 0.0
H852 H 0.53501 0.49911 1.11559 0.0
H853 H 0.49172 0.50621 1.06626 0.0
C854 C 0.43585 0.48806 1.12907 0.0
C855 C 0.41837 0.47851 0.17592 0.0
C856 C 0.44638 0.46513 1.10791 0.0
C857 C 0.39565 0.44211 0.1865 0.0
C858 C 0.40029 0.41727 0.15868 0.0
C859 C 0.45804 0.42485 0.15352 0.0
C860 C 0.49377 0.45304 0.15577 0.0
C861 C 0.4327 0.43128 1.13164 0.0
C862 C 0.5068 0.47912 1.11826 0.0
C863 C 0.48187 0.48257 1.08953 0.0
H864 H 0.26419 0.93588 0.66871 0.0
H865 H 0.30829 0.02518 0.77082 0.0
H866 H 0.31028 0.06486 0.70453 0.0
H867 H 0.31198 0.07597 0.61451 0.0
H868 H 0.27298 0.98705 0.51179 0.0
H869 H 0.2549 0.94528 0.58125 0.0
C870 C 0.27348 0.96389 0.67651 0.0
C871 C 0.2869 0.97794 0.72388 0.0
C872 C 0.27547 0.98662 0.63801 0.0
C873 C 0.29811 0.01397 0.73432 0.0
C874 C 0.29943 0.03666 0.69641 0.0
C875 C 0.29855 0.04735 0.60753 0.0
C876 C 0.29471 0.03471 0.55822 0.0
C877 C 0.29003 0.02361 0.64757 0.0
C878 C 0.27643 -0.00244 0.54941 0.0
C879 C 0.26655 0.97362 0.58915 0.0
H880 H 0.28864 0.33103 1.10463 0.0
H881 H 0.28884 0.23845 1.04342 0.0
H882 H 0.2605 0.24299 0.96747 0.0
H883 H 0.2539 0.28392 0.91144 0.0
H884 H 0.26074 0.38035 0.97026 0.0
H885 H 0.26678 0.36318 1.05476 0.0
C886 C 0.2809 0.31086 1.07566 0.0
C887 C 0.29162 0.2851 1.07865 0.0
C888 C 0.26646 0.31484 1.03128 0.0
C889 C 0.28145 0.259 1.0411 0.0
C890 C 0.26546 0.26173 0.99765 0.0
C891 C 0.25493 0.30021 0.94313 0.0
C892 C 0.25778 0.33363 0.93505 0.0
C893 C 0.26053 0.29118 0.99097 0.0
C894 C 0.25909 0.35471 0.97602 0.0
C895 C 0.26285 0.34505 1.02415 0.0
H896 H -0.00678 0.28075 0.20516 0.0
H897 H 0.88953 0.22481 0.27799 0.0
H898 H 0.91811 0.24236 0.35945 0.0
H899 H 0.96979 0.28746 0.40551 0.0
H900 H 0.07313 0.34601 0.33211 0.0
H901 H 0.04747 0.31271 0.25516 0.0
C902 C 0.97691 0.2709 0.23882 0.0
C903 C 0.93926 0.25258 0.23565 0.0
C904 C -0.00656 0.28232 0.28531 0.0
C905 C 0.91856 0.23982 0.27962 0.0
C906 C 0.93489 0.25002 0.32616 0.0
C907 C -0.0128 0.29188 0.37351 0.0
C908 C 0.02303 0.32013 0.37393 0.0
C909 C 0.97201 0.27352 0.32906 0.0
C910 C 0.04515 0.3252 0.33213 0.0
C911 C 0.03047 0.30622 0.28811 0.0
H912 H 0.70284 0.10128 0.67311 0.0
H913 H 0.75268 0.04362 0.73025 0.0
H914 H 0.75302 0.02083 0.64649 0.0
H915 H 0.72512 0.00567 0.56362 0.0
H916 H 0.66841 0.05821 0.51197 0.0
H917 H 0.68631 0.09576 0.58583 0.0
C918 C 0.71536 0.0851 0.66705 0.0
C919 C 0.72695 0.07346 0.70808 0.0
C920 C 0.71357 0.07056 0.61957 0.0
C921 C 0.74301 0.05243 0.69935 0.0
C922 C 0.74289 0.03915 0.65154 0.0
C923 C 0.71721 0.02578 0.56812 0.0
C924 C 0.69449 0.02821 0.53284 0.0
C925 C 0.72585 0.04601 0.61229 0.0
C926 C 0.6857 0.0554 0.53834 0.0
C927 C 0.69561 0.07674 0.58105 0.0
H928 H 0.64615 0.70663 1.00589 0.0
H929 H 0.69683 0.65882 1.08869 0.0
H930 H 0.73073 0.66005 1.01457 0.0
H931 H 0.7311 0.65762 0.92335 0.0
H932 H 0.67321 0.69702 0.83945 0.0
H933 H 0.65837 0.71765 0.91619 0.0
C934 C 0.66538 0.69742 1.00785 0.0
C935 C 0.66814 0.68153 1.05191 0.0
C936 C 0.68329 0.69642 0.9645 0.0
C937 C 0.69391 0.67075 1.05488 0.0
C938 C 0.71311 0.67117 1.01238 0.0
C939 C 0.71648 0.67205 0.92194 0.0
C940 C 0.70214 0.67472 0.87647 0.0
C941 C 0.70588 0.6814 0.96638 0.0
C942 C 0.6841 0.69424 0.87431 0.0
C943 C 0.67513 0.70555 0.91828 0.0
H944 H 0.08438 0.73657 0.28791 0.0
H945 H -0.00791 0.70078 0.19318 0.0
H946 H 0.95236 0.67659 0.26518 0.0
H947 H 0.94356 0.65387 0.35075 0.0
H948 H 0.03519 0.68421 0.44426 0.0
H949 H 0.07538 0.72188 0.3773 0.0
C950 C 0.05559 0.72411 0.28322 0.0
C951 C 0.04132 0.71973 0.23501 0.0
C952 C 0.0327 0.70838 0.32446 0.0
C953 C 0.004 0.70457 0.22969 0.0
C954 C 0.98111 0.69016 0.27085 0.0
C955 C 0.97232 0.66929 0.35659 0.0
C956 C -0.01337 0.66586 0.4016 0.0
C957 C -0.00487 0.69003 0.31769 0.0
C958 C 0.02374 0.6864 0.40957 0.0
C959 C 0.04666 0.70776 0.37128 0.0
H960 H 0.4867 0.13908 0.59223 0.0
H961 H 0.53614 0.08191 0.52925 0.0
H962 H 0.55785 0.07842 0.61127 0.0
H963 H 0.56561 0.09139 0.70512 0.0
H964 H 0.51774 0.14933 0.76975 0.0
H965 H 0.49448 0.15203 0.68776 0.0
C966 C 0.5018 0.12532 0.5956 0.0
C967 C 0.50847 0.11044 0.55004 0.0
C968 C 0.51568 0.12359 0.64581 0.0
C969 C 0.52934 0.09385 0.56009 0.0
C970 C 0.54231 0.09177 0.60853 0.0
C971 C 0.55031 0.10498 0.70219 0.0
C972 C 0.5448 0.12048 0.74773 0.0
C973 C 0.53623 0.10665 0.65248 0.0
C974 C 0.52386 0.13712 0.73858 0.0
C975 C 0.51001 0.13865 0.6902 0.0
H976 H 0.4401 0.57112 0.87793 0.0
H977 H 0.33866 0.47378 0.89566 0.0
H978 H 0.34405 0.48053 0.9867 0.0
H979 H 0.3776 0.5138 1.06647 0.0
H980 H 0.48113 0.60861 1.0479 0.0
H981 H 0.47455 0.60288 0.95713 0.0
C982 C 0.41866 0.55121 0.90108 0.0
C983 C 0.38815 0.52182 0.87603 0.0
C984 C 0.42235 0.55487 0.956 0.0
C985 C 0.36226 0.49692 0.91038 0.0
C986 C 0.36544 0.50085 0.96393 0.0
C987 C 0.39891 0.53374 1.04318 0.0
C988 C 0.43011 0.56258 1.06802 0.0
C989 C 0.39532 0.52974 0.98817 0.0
C990 C 0.45663 0.58642 1.03343 0.0
C991 C 0.45283 0.58304 0.98001 0.0
H992 H 0.8677 0.43633 0.21915 0.0
H993 H 0.86772 0.33738 0.23881 0.0
H994 H 0.8636 0.34304 0.32989 0.0
H995 H 0.85986 0.37623 0.40929 0.0
H996 H 0.86415 0.47724 0.38781 0.0
H997 H 0.86658 0.47032 0.29734 0.0
C998 C 0.86672 0.41551 0.24264 0.0
C999 C 0.86778 0.38571 0.21783 0.0
C1000 C 0.86499 0.41939 0.29752 0.0
C1001 C 0.86689 0.36053 0.25294 0.0
C1002 C 0.86447 0.3639 0.3066 0.0
C1003 C 0.86109 0.39702 0.38547 0.0
C1004 C 0.86111 0.42764 0.40974 0.0
C1005 C 0.8634 0.39318 0.33038 0.0
C1006 C 0.8636 0.45328 0.37418 0.0
C1007 C 0.86508 0.44925 0.32082 0.0
H1008 H 0.49824 0.86719 0.59187 0.0
H1009 H 0.4165 0.88148 0.52252 0.0
H1010 H 0.39086 0.88104 0.60426 0.0
H1011 H 0.38886 0.87631 0.70005 0.0
H1012 H 0.46854 0.85905 0.76974 0.0
H1013 H 0.49529 0.86094 0.68809 0.0
C1014 C 0.47489 0.87041 0.5937 0.0
C1015 C 0.46049 0.87457 0.54664 0.0
C1016 C 0.45864 0.8694 0.64358 0.0
C1017 C 0.42951 0.8781 0.55469 0.0
C1018 C 0.41427 0.87787 0.60295 0.0
C1019 C 0.41196 0.87266 0.69831 0.0
C1020 C 0.42538 0.86716 0.74531 0.0
C1021 C 0.42806 0.87337 0.64856 0.0
C1022 C 0.456 0.86301 0.73751 0.0
C1023 C 0.47195 0.86423 0.68931 0.0
H1024 H 0.60574 0.48783 0.90852 0.0
H1025 H 0.51361 0.3926 0.85285 0.0
H1026 H 0.49346 0.37264 0.93807 0.0
H1027 H 0.49975 0.37999 1.03318 0.0
H1028 H 0.5937 0.47281 1.08973 0.0
H1029 H 0.61341 0.49388 1.00432 0.0
C1030 C 0.58122 0.46252 0.91415 0.0
C1031 C 0.562 0.44243 0.86989 0.0
C1032 C 0.56923 0.44985 0.96614 0.0
C1033 C 0.53026 0.40968 0.88267 0.0
C1034 C 0.51821 0.39783 0.93295 0.0
C1035 C 0.52475 0.40487 1.02771 0.0
C1036 C 0.54458 0.42398 1.07204 0.0
C1037 C 0.53713 0.4173 0.9759 0.0
C1038 C 0.57691 0.45625 1.05964 0.0
C1039 C 0.58855 0.46878 1.0093 0.0
H1040 H 0.08703 0.51595 0.36872 0.0
H1041 H 0.15571 0.62251 0.42453 0.0
H1042 H 0.15817 0.64689 0.34088 0.0
H1043 H 0.14151 0.63951 0.2466 0.0
H1044 H 0.07335 0.53178 0.19331 0.0
H1045 H 0.07058 0.50857 0.27679 0.0
C1046 C 0.10298 0.54466 0.36341 0.0
C1047 C 0.12157 0.56647 0.40666 0.0
C1048 C 0.10437 0.55928 0.31309 0.0
C1049 C 0.14114 0.60375 0.39494 0.0
C1050 C 0.14247 0.61813 0.34573 0.0
C1051 C 0.12552 0.61088 0.25256 0.0
C1052 C 0.10724 0.58823 0.20948 0.0
C1053 C 0.12421 0.59649 0.30351 0.0
C1054 C 0.08787 0.55114 0.22236 0.0
C1055 C 0.08623 0.53732 0.27154 0.0
loop_
_geom_bond_atom_site_label_1
_geom_bond_atom_site_label_2
_geom_bond_distance
_geom_bond_site_symmetry_2
_ccdc_geom_bond_type
Ho0 C3 2.811 . S
Ho0 O20 2.322 . S
Ho0 O22 2.378 . S
Ho0 O23 2.524 . S
Ho0 O24 2.381 . S
Ho0 O25 2.669 . S
Ho0 O27 2.346 . S
Ho0 O31 2.305 . S
Ho1 C12 2.811 . S
Ho1 O21 2.346 . S
Ho1 O25 2.305 . S
Ho1 O26 2.322 . S
Ho1 O28 2.378 . S
Ho1 O29 2.524 . S
Ho1 O30 2.381 . S
Ho1 O31 2.669 . S
C2 O20 1.259 . S
C2 O21 1.268 . S
C3 Ho0 2.811 . S
C3 C4 1.488 . S
C3 O22 1.215 . S
C3 O23 1.289 . S
C4 C3 1.488 . S
C4 C5 1.348 . S
C4 C9 1.413 . S
C5 C4 1.348 . S
C5 C6 1.442 . S
C5 H32 0.930 . S
C6 C5 1.442 . S
C6 C7 1.381 . S
C6 H33 0.931 . S
C7 C6 1.381 . S
C7 C8 1.321 . S
C8 C7 1.321 . S
C8 C9 1.403 . S
C8 H34 0.934 . S
C9 C4 1.413 . S
C9 C8 1.403 . S
C9 H35 0.930 . S
C10 O24 1.275 . S
C10 O25 1.256 . S
C11 O26 1.259 . S
C11 O27 1.268 . S
C12 Ho1 2.811 . S
C12 C13 1.488 . S
C12 O28 1.215 . S
C12 O29 1.289 . S
C13 C12 1.488 . S
C13 C14 1.348 . S
C13 C18 1.413 . S
C14 C13 1.348 . S
C14 C15 1.442 . S
C14 H36 0.930 . S
C15 C14 1.442 . S
C15 C16 1.381 . S
C15 H37 0.931 . S
C16 C15 1.381 . S
C16 C17 1.321 . S
C17 C16 1.321 . S
C17 C18 1.403 . S
C17 H38 0.934 . S
C18 C13 1.413 . S
C18 C17 1.403 . S
C18 H39 0.930 . S
C19 O30 1.275 . S
C19 O31 1.256 . S
O20 Ho0 2.322 . S
O20 C2 1.259 . S
O21 Ho1 2.346 . S
O21 C2 1.268 . S
O22 Ho0 2.378 . S
O22 C3 1.215 . S
O23 Ho0 2.524 . S
O23 C3 1.289 . S
O24 Ho0 2.381 . S
O24 C10 1.275 . S
O25 Ho0 2.669 . S
O25 Ho1 2.305 . S
O25 C10 1.256 . S
O26 Ho1 2.322 . S
O26 C11 1.259 . S
O27 Ho0 2.346 . S
O27 C11 1.268 . S
O28 Ho1 2.378 . S
O28 C12 1.215 . S
O29 Ho1 2.524 . S
O29 C12 1.289 . S
O30 Ho1 2.381 . S
O30 C19 1.275 . S
O31 Ho0 2.305 . S
O31 Ho1 2.669 . S
O31 C19 1.256 . S
H32 C5 0.930 . S
H33 C6 0.931 . S
H34 C8 0.934 . S
H35 C9 0.930 . S
H36 C14 0.930 . S
H37 C15 0.931 . S
H38 C17 0.934 . S
H39 C18 0.930 . S
Ho40 C43 2.811 . S
Ho40 O60 2.322 . S
Ho40 O62 2.378 . S
Ho40 O63 2.524 . S
Ho40 O64 2.381 . S
Ho40 O65 2.669 . S
Ho40 O67 2.346 . S
Ho40 O71 2.305 . S
Ho41 C52 2.811 . S
Ho41 O61 2.346 . S
Ho41 O65 2.305 . S
Ho41 O66 2.322 . S
Ho41 O68 2.378 . S
Ho41 O69 2.524 . S
Ho41 O70 2.381 . S
Ho41 O71 2.669 . S
C42 O60 1.259 . S
C42 O61 1.268 . S
C43 Ho40 2.811 . S
C43 C44 1.488 . S
C43 O62 1.215 . S
C43 O63 1.289 . S
C44 C43 1.488 . S
C44 C45 1.348 . S
C44 C49 1.413 . S
C45 C44 1.348 . S
C45 C46 1.442 . S
C45 H72 0.930 . S
C46 C45 1.442 . S
C46 C47 1.381 . S
C46 H73 0.931 . S
C47 C46 1.381 . S
C47 C48 1.321 . S
C48 C47 1.321 . S
C48 C49 1.403 . S
C48 H74 0.934 . S
C49 C44 1.413 . S
C49 C48 1.403 . S
C49 H75 0.930 . S
C50 O64 1.275 . S
C50 O65 1.256 . S
C51 O66 1.259 . S
C51 O67 1.268 . S
C52 Ho41 2.811 . S
C52 C53 1.488 . S
C52 O68 1.215 . S
C52 O69 1.289 . S
C53 C52 1.488 . S
C53 C54 1.348 . S
C53 C58 1.413 . S
C54 C53 1.348 . S
C54 C55 1.442 . S
C54 H76 0.930 . S
C55 C54 1.442 . S
C55 C56 1.381 . S
C55 H77 0.931 . S
C56 C55 1.381 . S
C56 C57 1.321 . S
C57 C56 1.321 . S
C57 C58 1.403 . S
C57 H78 0.934 . S
C58 C53 1.413 . S
C58 C57 1.403 . S
C58 H79 0.930 . S
C59 O70 1.275 . S
C59 O71 1.256 . S
O60 Ho40 2.322 . S
O60 C42 1.259 . S
O61 Ho41 2.346 . S
O61 C42 1.268 . S
O62 Ho40 2.378 . S
O62 C43 1.215 . S
O63 Ho40 2.524 . S
O63 C43 1.289 . S
O64 Ho40 2.381 . S
O64 C50 1.275 . S
O65 Ho40 2.669 . S
O65 Ho41 2.305 . S
O65 C50 1.256 . S
O66 Ho41 2.322 . S
O66 C51 1.259 . S
O67 Ho40 2.346 . S
O67 C51 1.268 . S
O68 Ho41 2.378 . S
O68 C52 1.215 . S
O69 Ho41 2.524 . S
O69 C52 1.289 . S
O70 Ho41 2.381 . S
O70 C59 1.275 . S
O71 Ho40 2.305 . S
O71 Ho41 2.669 . S
O71 C59 1.256 . S
H72 C45 0.930 . S
H73 C46 0.931 . S
H74 C48 0.934 . S
H75 C49 0.930 . S
H76 C54 0.930 . S
H77 C55 0.931 . S
H78 C57 0.934 . S
H79 C58 0.930 . S
Ho80 C83 2.811 1_556 S
Ho80 O100 2.322 . S
Ho80 O102 2.378 . S
Ho80 O103 2.505 1_556 S
Ho80 O104 2.381 . S
Ho80 O105 2.669 . S
Ho80 O107 2.346 . S
Ho80 O111 2.305 . S
Ho81 C92 2.811 . S
Ho81 O101 2.346 . S
Ho81 O105 2.305 . S
Ho81 O106 2.322 . S
Ho81 O108 2.378 . S
Ho81 O109 2.524 . S
Ho81 O110 2.381 . S
Ho81 O111 2.669 . S
C82 O100 1.259 . S
C82 O101 1.268 . S
C83 Ho80 2.811 1_554 S
C83 C84 1.488 . S
C83 O102 1.215 1_554 S
C83 O103 1.297 . S
C84 C83 1.488 . S
C84 C85 1.348 . S
C84 C89 1.413 . S
C85 C84 1.348 . S
C85 C86 1.442 . S
C85 H112 0.930 . S
C86 C85 1.442 . S
C86 C87 1.381 . S
C86 H113 0.931 . S
C87 C86 1.381 . S
C87 C88 1.321 . S
C88 C87 1.321 . S
C88 C89 1.403 . S
C88 H114 0.934 . S
C89 C84 1.413 . S
C89 C88 1.403 . S
C89 H115 0.930 . S
C90 O104 1.275 . S
C90 O105 1.256 . S
C91 O106 1.259 . S
C91 O107 1.268 . S
C92 Ho81 2.811 . S
C92 C93 1.488 . S
C92 O108 1.215 . S
C92 O109 1.289 . S
C93 C92 1.488 . S
C93 C94 1.348 . S
C93 C98 1.413 . S
C94 C93 1.348 . S
C94 C95 1.442 . S
C94 H116 0.930 . S
C95 C94 1.442 . S
C95 C96 1.381 . S
C95 H117 0.931 . S
C96 C95 1.381 . S
C96 C97 1.321 . S
C97 C96 1.321 . S
C97 C98 1.403 . S
C97 H118 0.934 . S
C98 C93 1.413 . S
C98 C97 1.403 . S
C98 H119 0.930 . S
C99 O110 1.275 . S
C99 O111 1.256 . S
O100 Ho80 2.322 . S
O100 C82 1.259 . S
O101 Ho81 2.346 . S
O101 C82 1.268 . S
O102 Ho80 2.378 . S
O102 C83 1.215 1_556 S
O103 Ho80 2.505 1_554 S
O103 C83 1.297 . S
O104 Ho80 2.381 . S
O104 C90 1.275 . S
O105 Ho80 2.669 . S
O105 Ho81 2.305 . S
O105 C90 1.256 . S
O106 Ho81 2.322 . S
O106 C91 1.259 . S
O107 Ho80 2.346 . S
O107 C91 1.268 . S
O108 Ho81 2.378 . S
O108 C92 1.215 . S
O109 Ho81 2.524 . S
O109 C92 1.289 . S
O110 Ho81 2.381 . S
O110 C99 1.275 . S
O111 Ho80 2.305 . S
O111 Ho81 2.669 . S
O111 C99 1.256 . S
H112 C85 0.930 . S
H113 C86 0.931 . S
H114 C88 0.934 . S
H115 C89 0.930 . S
H116 C94 0.930 . S
H117 C95 0.931 . S
H118 C97 0.934 . S
H119 C98 0.930 . S
Ho120 C123 2.811 . S
Ho120 O140 2.322 . S
Ho120 O142 2.378 . S
Ho120 O143 2.524 . S
Ho120 O144 2.381 . S
Ho120 O145 2.669 . S
Ho120 O147 2.346 . S
Ho120 O151 2.305 . S
Ho121 C132 2.811 . S
Ho121 O141 2.346 . S
Ho121 O145 2.305 . S
Ho121 O146 2.322 . S
Ho121 O148 2.378 . S
Ho121 O149 2.524 . S
Ho121 O150 2.381 . S
Ho121 O151 2.669 . S
C122 O140 1.259 . S
C122 O141 1.268 . S
C123 Ho120 2.811 . S
C123 C124 1.488 . S
C123 O142 1.215 . S
C123 O143 1.289 . S
C124 C123 1.488 . S
C124 C125 1.348 . S
C124 C129 1.413 . S
C125 C124 1.348 . S
C125 C126 1.442 . S
C125 H152 0.930 . S
C126 C125 1.442 . S
C126 C127 1.381 . S
C126 H153 0.931 . S
C127 C126 1.381 . S
C127 C128 1.321 . S
C128 C127 1.321 . S
C128 C129 1.403 . S
C128 H154 0.934 . S
C129 C124 1.413 . S
C129 C128 1.403 . S
C129 H155 0.930 . S
C130 O144 1.275 . S
C130 O145 1.256 . S
C131 O146 1.259 . S
C131 O147 1.268 . S
C132 Ho121 2.811 . S
C132 C133 1.488 . S
C132 O148 1.215 . S
C132 O149 1.289 . S
C133 C132 1.488 . S
C133 C134 1.348 . S
C133 C138 1.413 . S
C134 C133 1.348 . S
C134 C135 1.442 . S
C134 H156 0.930 . S
C135 C134 1.442 . S
C135 C136 1.381 . S
C135 H157 0.931 . S
C136 C135 1.381 . S
C136 C137 1.321 . S
C137 C136 1.321 . S
C137 C138 1.403 . S
C137 H158 0.934 . S
C138 C133 1.413 . S
C138 C137 1.403 . S
C138 H159 0.930 . S
C139 O150 1.275 . S
C139 O151 1.256 . S
O140 Ho120 2.322 . S
O140 C122 1.259 . S
O141 Ho121 2.346 . S
O141 C122 1.268 . S
O142 Ho120 2.378 . S
O142 C123 1.215 . S
O143 Ho120 2.524 . S
O143 C123 1.289 . S
O144 Ho120 2.381 . S
O144 C130 1.275 . S
O145 Ho120 2.669 . S
O145 Ho121 2.305 . S
O145 C130 1.256 . S
O146 Ho121 2.322 . S
O146 C131 1.259 . S
O147 Ho120 2.346 . S
O147 C131 1.268 . S
O148 Ho121 2.378 . S
O148 C132 1.215 . S
O149 Ho121 2.524 . S
O149 C132 1.289 . S
O150 Ho121 2.381 . S
O150 C139 1.275 . S
O151 Ho120 2.305 . S
O151 Ho121 2.669 . S
O151 C139 1.256 . S
H152 C125 0.930 . S
H153 C126 0.931 . S
H154 C128 0.934 . S
H155 C129 0.930 . S
H156 C134 0.930 . S
H157 C135 0.931 . S
H158 C137 0.934 . S
H159 C138 0.930 . S
Ho160 C163 2.811 . S
Ho160 O180 2.322 . S
Ho160 O182 2.378 . S
Ho160 O183 2.524 . S
Ho160 O184 2.381 . S
Ho160 O185 2.669 . S
Ho160 O187 2.346 . S
Ho160 O191 2.305 . S
Ho161 C172 2.811 . S
Ho161 O181 2.346 . S
Ho161 O185 2.305 . S
Ho161 O186 2.322 . S
Ho161 O188 2.378 . S
Ho161 O189 2.524 . S
Ho161 O190 2.381 . S
Ho161 O191 2.669 . S
C162 O180 1.259 . S
C162 O181 1.268 . S
C163 Ho160 2.811 . S
C163 C164 1.488 . S
C163 O182 1.215 . S
C163 O183 1.289 . S
C164 C163 1.488 . S
C164 C165 1.348 . S
C164 C169 1.413 . S
C165 C164 1.348 . S
C165 C166 1.442 . S
C165 H192 0.930 . S
C166 C165 1.442 . S
C166 C167 1.381 . S
C166 H193 0.931 . S
C167 C166 1.381 . S
C167 C168 1.321 . S
C168 C167 1.321 . S
C168 C169 1.403 . S
C168 H194 0.934 . S
C169 C164 1.413 . S
C169 C168 1.403 . S
C169 H195 0.930 . S
C170 O184 1.275 . S
C170 O185 1.256 . S
C171 O186 1.259 . S
C171 O187 1.268 . S
C172 Ho161 2.811 . S
C172 C173 1.488 . S
C172 O188 1.215 . S
C172 O189 1.289 . S
C173 C172 1.488 . S
C173 C174 1.348 . S
C173 C178 1.413 . S
C174 C173 1.348 . S
C174 C175 1.442 . S
C174 H196 0.930 . S
C175 C174 1.442 . S
C175 C176 1.381 . S
C175 H197 0.931 . S
C176 C175 1.381 . S
C176 C177 1.321 . S
C177 C176 1.321 . S
C177 C178 1.403 . S
C177 H198 0.934 . S
C178 C173 1.413 . S
C178 C177 1.403 . S
C178 H199 0.930 . S
C179 O190 1.275 . S
C179 O191 1.256 . S
O180 Ho160 2.322 . S
O180 C162 1.259 . S
O181 Ho161 2.346 . S
O181 C162 1.268 . S
O182 Ho160 2.378 . S
O182 C163 1.215 . S
O183 Ho160 2.524 . S
O183 C163 1.289 . S
O184 Ho160 2.381 . S
O184 C170 1.275 . S
O185 Ho160 2.669 . S
O185 Ho161 2.305 . S
O185 C170 1.256 . S
O186 Ho161 2.322 . S
O186 C171 1.259 . S
O187 Ho160 2.346 . S
O187 C171 1.268 . S
O188 Ho161 2.378 . S
O188 C172 1.215 . S
O189 Ho161 2.524 . S
O189 C172 1.289 . S
O190 Ho161 2.381 . S
O190 C179 1.275 . S
O191 Ho160 2.305 . S
O191 Ho161 2.669 . S
O191 C179 1.256 . S
H192 C165 0.930 . S
H193 C166 0.931 . S
H194 C168 0.934 . S
H195 C169 0.930 . S
H196 C174 0.930 . S
H197 C175 0.931 . S
H198 C177 0.934 . S
H199 C178 0.930 . S
Ho200 C203 2.811 1_556 S
Ho200 O220 2.322 . S
Ho200 O222 2.378 . S
Ho200 O223 2.505 1_556 S
Ho200 O224 2.381 . S
Ho200 O225 2.669 . S
Ho200 O227 2.346 . S
Ho200 O231 2.305 . S
Ho201 C212 2.811 . S
Ho201 O221 2.346 . S
Ho201 O225 2.305 . S
Ho201 O226 2.322 . S
Ho201 O228 2.378 . S
Ho201 O229 2.524 . S
Ho201 O230 2.381 . S
Ho201 O231 2.669 . S
C202 O220 1.259 . S
C202 O221 1.268 . S
C203 Ho200 2.811 1_554 S
C203 C204 1.488 . S
C203 O222 1.215 1_554 S
C203 O223 1.297 . S
C204 C203 1.488 . S
C204 C205 1.348 . S
C204 C209 1.413 . S
C205 C204 1.348 . S
C205 C206 1.442 . S
C205 H232 0.930 . S
C206 C205 1.442 . S
C206 C207 1.381 . S
C206 H233 0.931 . S
C207 C206 1.381 . S
C207 C208 1.321 . S
C208 C207 1.321 . S
C208 C209 1.403 . S
C208 H234 0.934 . S
C209 C204 1.413 . S
C209 C208 1.403 . S
C209 H235 0.930 . S
C210 O224 1.275 . S
C210 O225 1.256 . S
C211 O226 1.259 . S
C211 O227 1.268 . S
C212 Ho201 2.811 . S
C212 C213 1.488 . S
C212 O228 1.215 . S
C212 O229 1.289 . S
C213 C212 1.488 . S
C213 C214 1.348 . S
C213 C218 1.413 . S
C214 C213 1.348 . S
C214 C215 1.442 . S
C214 H236 0.930 . S
C215 C214 1.442 . S
C215 C216 1.381 . S
C215 H237 0.931 . S
C216 C215 1.381 . S
C216 C217 1.321 . S
C217 C216 1.321 . S
C217 C218 1.403 . S
C217 H238 0.934 . S
C218 C213 1.413 . S
C218 C217 1.403 . S
C218 H239 0.930 . S
C219 O230 1.275 . S
C219 O231 1.256 . S
O220 Ho200 2.322 . S
O220 C202 1.259 . S
O221 Ho201 2.346 . S
O221 C202 1.268 . S
O222 Ho200 2.378 . S
O222 C203 1.215 1_556 S
O223 Ho200 2.505 1_554 S
O223 C203 1.297 . S
O224 Ho200 2.381 . S
O224 C210 1.275 . S
O225 Ho200 2.669 . S
O225 Ho201 2.305 . S
O225 C210 1.256 . S
O226 Ho201 2.322 . S
O226 C211 1.259 . S
O227 Ho200 2.346 . S
O227 C211 1.268 . S
O228 Ho201 2.378 . S
O228 C212 1.215 . S
O229 Ho201 2.524 . S
O229 C212 1.289 . S
O230 Ho201 2.381 . S
O230 C219 1.275 . S
O231 Ho200 2.305 . S
O231 Ho201 2.669 . S
O231 C219 1.256 . S
H232 C205 0.930 . S
H233 C206 0.931 . S
H234 C208 0.934 . S
H235 C209 0.930 . S
H236 C214 0.930 . S
H237 C215 0.931 . S
H238 C217 0.934 . S
H239 C218 0.930 . S
Ho240 C243 2.811 . S
Ho240 O260 2.322 . S
Ho240 O262 2.378 . S
Ho240 O263 2.524 . S
Ho240 O264 2.381 . S
Ho240 O265 2.669 . S
Ho240 O267 2.346 . S
Ho240 O271 2.305 . S
Ho241 C252 2.811 . S
Ho241 O261 2.346 . S
Ho241 O265 2.305 . S
Ho241 O266 2.322 . S
Ho241 O268 2.378 . S
Ho241 O269 2.524 . S
Ho241 O270 2.381 . S
Ho241 O271 2.669 . S
C242 O260 1.259 . S
C242 O261 1.268 . S
C243 Ho240 2.811 . S
C243 C244 1.488 . S
C243 O262 1.215 . S
C243 O263 1.289 . S
C244 C243 1.488 . S
C244 C245 1.348 . S
C244 C249 1.413 . S
C245 C244 1.348 . S
C245 C246 1.442 . S
C245 H272 0.930 . S
C246 C245 1.442 . S
C246 C247 1.381 . S
C246 H273 0.931 . S
C247 C246 1.381 . S
C247 C248 1.321 . S
C248 C247 1.321 . S
C248 C249 1.403 . S
C248 H274 0.934 . S
C249 C244 1.413 . S
C249 C248 1.403 . S
C249 H275 0.930 . S
C250 O264 1.275 . S
C250 O265 1.256 . S
C251 O266 1.259 . S
C251 O267 1.268 . S
C252 Ho241 2.811 . S
C252 C253 1.488 . S
C252 O268 1.215 . S
C252 O269 1.289 . S
C253 C252 1.488 . S
C253 C254 1.348 . S
C253 C258 1.413 . S
C254 C253 1.348 . S
C254 C255 1.442 . S
C254 H276 0.930 . S
C255 C254 1.442 . S
C255 C256 1.381 . S
C255 H277 0.931 . S
C256 C255 1.381 . S
C256 C257 1.321 . S
C257 C256 1.321 . S
C257 C258 1.403 . S
C257 H278 0.934 . S
C258 C253 1.413 . S
C258 C257 1.403 . S
C258 H279 0.930 . S
C259 O270 1.275 . S
C259 O271 1.256 . S
O260 Ho240 2.322 . S
O260 C242 1.259 . S
O261 Ho241 2.346 . S
O261 C242 1.268 . S
O262 Ho240 2.378 . S
O262 C243 1.215 . S
O263 Ho240 2.524 . S
O263 C243 1.289 . S
O264 Ho240 2.381 . S
O264 C250 1.275 . S
O265 Ho240 2.669 . S
O265 Ho241 2.305 . S
O265 C250 1.256 . S
O266 Ho241 2.322 . S
O266 C251 1.259 . S
O267 Ho240 2.346 . S
O267 C251 1.268 . S
O268 Ho241 2.378 . S
O268 C252 1.215 . S
O269 Ho241 2.524 . S
O269 C252 1.289 . S
O270 Ho241 2.381 . S
O270 C259 1.275 . S
O271 Ho240 2.305 . S
O271 Ho241 2.669 . S
O271 C259 1.256 . S
H272 C245 0.930 . S
H273 C246 0.931 . S
H274 C248 0.934 . S
H275 C249 0.930 . S
H276 C254 0.930 . S
H277 C255 0.931 . S
H278 C257 0.934 . S
H279 C258 0.930 . S
Ho280 C283 2.811 . S
Ho280 O300 2.322 . S
Ho280 O302 2.378 . S
Ho280 O303 2.524 . S
Ho280 O304 2.381 . S
Ho280 O305 2.669 . S
Ho280 O307 2.346 . S
Ho280 O311 2.305 . S
Ho281 C292 2.811 . S
Ho281 O301 2.346 . S
Ho281 O305 2.305 . S
Ho281 O306 2.322 . S
Ho281 O308 2.378 . S
Ho281 O309 2.524 . S
Ho281 O310 2.381 . S
Ho281 O311 2.669 . S
C282 O300 1.259 . S
C282 O301 1.268 . S
C283 Ho280 2.811 . S
C283 C284 1.488 . S
C283 O302 1.215 . S
C283 O303 1.289 . S
C284 C283 1.488 . S
C284 C285 1.348 . S
C284 C289 1.413 . S
C285 C284 1.348 . S
C285 C286 1.442 . S
C285 H312 0.930 . S
C286 C285 1.442 . S
C286 C287 1.381 . S
C286 H313 0.931 . S
C287 C286 1.381 . S
C287 C288 1.321 . S
C288 C287 1.321 . S
C288 C289 1.403 . S
C288 H314 0.934 . S
C289 C284 1.413 . S
C289 C288 1.403 . S
C289 H315 0.930 . S
C290 O304 1.275 . S
C290 O305 1.256 . S
C291 O306 1.259 . S
C291 O307 1.268 . S
C292 Ho281 2.811 . S
C292 C293 1.488 . S
C292 O308 1.215 . S
C292 O309 1.289 . S
C293 C292 1.488 . S
C293 C294 1.348 . S
C293 C298 1.413 . S
C294 C293 1.348 . S
C294 C295 1.442 . S
C294 H316 0.930 . S
C295 C294 1.442 . S
C295 C296 1.381 . S
C295 H317 0.931 . S
C296 C295 1.381 . S
C296 C297 1.321 . S
C297 C296 1.321 . S
C297 C298 1.403 . S
C297 H318 0.934 . S
C298 C293 1.413 . S
C298 C297 1.403 . S
C298 H319 0.930 . S
C299 O310 1.275 . S
C299 O311 1.256 . S
O300 Ho280 2.322 . S
O300 C282 1.259 . S
O301 Ho281 2.346 . S
O301 C282 1.268 . S
O302 Ho280 2.378 . S
O302 C283 1.215 . S
O303 Ho280 2.524 . S
O303 C283 1.289 . S
O304 Ho280 2.381 . S
O304 C290 1.275 . S
O305 Ho280 2.669 . S
O305 Ho281 2.305 . S
O305 C290 1.256 . S
O306 Ho281 2.322 . S
O306 C291 1.259 . S
O307 Ho280 2.346 . S
O307 C291 1.268 . S
O308 Ho281 2.378 . S
O308 C292 1.215 . S
O309 Ho281 2.524 . S
O309 C292 1.289 . S
O310 Ho281 2.381 . S
O310 C299 1.275 . S
O311 Ho280 2.305 . S
O311 Ho281 2.669 . S
O311 C299 1.256 . S
H312 C285 0.930 . S
H313 C286 0.931 . S
H314 C288 0.934 . S
H315 C289 0.930 . S
H316 C294 0.930 . S
H317 C295 0.931 . S
H318 C297 0.934 . S
H319 C298 0.930 . S
Ho320 C323 2.811 1_554 S
Ho320 O340 2.322 . S
Ho320 O342 2.378 . S
Ho320 O343 2.505 1_554 S
Ho320 O344 2.381 . S
Ho320 O345 2.669 . S
Ho320 O347 2.346 . S
Ho320 O351 2.305 . S
Ho321 C332 2.811 . S
Ho321 O341 2.346 . S
Ho321 O345 2.305 . S
Ho321 O346 2.322 . S
Ho321 O348 2.378 . S
Ho321 O349 2.524 . S
Ho321 O350 2.381 . S
Ho321 O351 2.669 . S
C322 O340 1.259 . S
C322 O341 1.268 . S
C323 Ho320 2.811 1_556 S
C323 C324 1.488 . S
C323 O342 1.215 1_556 S
C323 O343 1.297 . S
C324 C323 1.488 . S
C324 C325 1.348 . S
C324 C329 1.413 . S
C325 C324 1.348 . S
C325 C326 1.442 . S
C325 H352 0.930 . S
C326 C325 1.442 . S
C326 C327 1.381 . S
C326 H353 0.931 . S
C327 C326 1.381 . S
C327 C328 1.321 . S
C328 C327 1.321 . S
C328 C329 1.403 . S
C328 H354 0.934 . S
C329 C324 1.413 . S
C329 C328 1.403 . S
C329 H355 0.930 . S
C330 O344 1.275 . S
C330 O345 1.256 . S
C331 O346 1.259 . S
C331 O347 1.268 . S
C332 Ho321 2.811 . S
C332 C333 1.488 . S
C332 O348 1.215 . S
C332 O349 1.289 . S
C333 C332 1.488 . S
C333 C334 1.348 . S
C333 C338 1.413 . S
C334 C333 1.348 . S
C334 C335 1.442 . S
C334 H356 0.930 . S
C335 C334 1.442 . S
C335 C336 1.381 . S
C335 H357 0.931 . S
C336 C335 1.381 . S
C336 C337 1.321 . S
C337 C336 1.321 . S
C337 C338 1.403 . S
C337 H358 0.934 . S
C338 C333 1.413 . S
C338 C337 1.403 . S
C338 H359 0.930 . S
C339 O350 1.275 . S
C339 O351 1.256 . S
O340 Ho320 2.322 . S
O340 C322 1.259 . S
O341 Ho321 2.346 . S
O341 C322 1.268 . S
O342 Ho320 2.378 . S
O342 C323 1.215 1_554 S
O343 Ho320 2.505 1_556 S
O343 C323 1.297 . S
O344 Ho320 2.381 . S
O344 C330 1.275 . S
O345 Ho320 2.669 . S
O345 Ho321 2.305 . S
O345 C330 1.256 . S
O346 Ho321 2.322 . S
O346 C331 1.259 . S
O347 Ho320 2.346 . S
O347 C331 1.268 . S
O348 Ho321 2.378 . S
O348 C332 1.215 . S
O349 Ho321 2.524 . S
O349 C332 1.289 . S
O350 Ho321 2.381 . S
O350 C339 1.275 . S
O351 Ho320 2.305 . S
O351 Ho321 2.669 . S
O351 C339 1.256 . S
H352 C325 0.930 . S
H353 C326 0.931 . S
H354 C328 0.934 . S
H355 C329 0.930 . S
H356 C334 0.930 . S
H357 C335 0.931 . S
H358 C337 0.934 . S
H359 C338 0.930 . S
Ho360 C363 2.811 . S
Ho360 O380 2.322 . S
Ho360 O382 2.378 . S
Ho360 O383 2.524 . S
Ho360 O384 2.381 . S
Ho360 O385 2.669 . S
Ho360 O387 2.346 . S
Ho360 O391 2.305 . S
Ho361 C372 2.811 . S
Ho361 O381 2.346 . S
Ho361 O385 2.305 . S
Ho361 O386 2.322 . S
Ho361 O388 2.378 . S
Ho361 O389 2.524 . S
Ho361 O390 2.381 . S
Ho361 O391 2.669 . S
C362 O380 1.259 . S
C362 O381 1.268 . S
C363 Ho360 2.811 . S
C363 C364 1.488 . S
C363 O382 1.215 . S
C363 O383 1.289 . S
C364 C363 1.488 . S
C364 C365 1.348 . S
C364 C369 1.413 . S
C365 C364 1.348 . S
C365 C366 1.442 . S
C365 H392 0.930 . S
C366 C365 1.442 . S
C366 C367 1.381 . S
C366 H393 0.931 . S
C367 C366 1.381 . S
C367 C368 1.321 . S
C368 C367 1.321 . S
C368 C369 1.403 . S
C368 H394 0.934 . S
C369 C364 1.413 . S
C369 C368 1.403 . S
C369 H395 0.930 . S
C370 O384 1.275 . S
C370 O385 1.256 . S
C371 O386 1.259 . S
C371 O387 1.268 . S
C372 Ho361 2.811 . S
C372 C373 1.488 . S
C372 O388 1.215 . S
C372 O389 1.289 . S
C373 C372 1.488 . S
C373 C374 1.348 . S
C373 C378 1.413 . S
C374 C373 1.348 . S
C374 C375 1.442 . S
C374 H396 0.930 . S
C375 C374 1.442 . S
C375 C376 1.381 . S
C375 H397 0.931 . S
C376 C375 1.381 . S
C376 C377 1.321 . S
C377 C376 1.321 . S
C377 C378 1.403 . S
C377 H398 0.934 . S
C378 C373 1.413 . S
C378 C377 1.403 . S
C378 H399 0.930 . S
C379 O390 1.275 . S
C379 O391 1.256 . S
O380 Ho360 2.322 . S
O380 C362 1.259 . S
O381 Ho361 2.346 . S
O381 C362 1.268 . S
O382 Ho360 2.378 . S
O382 C363 1.215 . S
O383 Ho360 2.524 . S
O383 C363 1.289 . S
O384 Ho360 2.381 . S
O384 C370 1.275 . S
O385 Ho360 2.669 . S
O385 Ho361 2.305 . S
O385 C370 1.256 . S
O386 Ho361 2.322 . S
O386 C371 1.259 . S
O387 Ho360 2.346 . S
O387 C371 1.268 . S
O388 Ho361 2.378 . S
O388 C372 1.215 . S
O389 Ho361 2.524 . S
O389 C372 1.289 . S
O390 Ho361 2.381 . S
O390 C379 1.275 . S
O391 Ho360 2.305 . S
O391 Ho361 2.669 . S
O391 C379 1.256 . S
H392 C365 0.930 . S
H393 C366 0.931 . S
H394 C368 0.934 . S
H395 C369 0.930 . S
H396 C374 0.930 . S
H397 C375 0.931 . S
H398 C377 0.934 . S
H399 C378 0.930 . S
Ho400 C403 2.811 . S
Ho400 O420 2.322 . S
Ho400 O422 2.378 . S
Ho400 O423 2.524 . S
Ho400 O424 2.381 . S
Ho400 O425 2.669 . S
Ho400 O427 2.346 . S
Ho400 O431 2.305 . S
Ho401 C412 2.811 . S
Ho401 O421 2.346 . S
Ho401 O425 2.305 . S
Ho401 O426 2.322 . S
Ho401 O428 2.378 . S
Ho401 O429 2.524 . S
Ho401 O430 2.381 . S
Ho401 O431 2.669 . S
C402 O420 1.259 . S
C402 O421 1.268 . S
C403 Ho400 2.811 . S
C403 C404 1.488 . S
C403 O422 1.215 . S
C403 O423 1.289 . S
C404 C403 1.488 . S
C404 C405 1.348 . S
C404 C409 1.413 . S
C405 C404 1.348 . S
C405 C406 1.442 . S
C405 H432 0.930 . S
C406 C405 1.442 . S
C406 C407 1.381 . S
C406 H433 0.931 . S
C407 C406 1.381 . S
C407 C408 1.321 . S
C408 C407 1.321 . S
C408 C409 1.403 . S
C408 H434 0.934 . S
C409 C404 1.413 . S
C409 C408 1.403 . S
C409 H435 0.930 . S
C410 O424 1.275 . S
C410 O425 1.256 . S
C411 O426 1.259 . S
C411 O427 1.268 . S
C412 Ho401 2.811 . S
C412 C413 1.488 . S
C412 O428 1.215 . S
C412 O429 1.289 . S
C413 C412 1.488 . S
C413 C414 1.348 . S
C413 C418 1.413 . S
C414 C413 1.348 . S
C414 C415 1.442 . S
C414 H436 0.930 . S
C415 C414 1.442 . S
C415 C416 1.381 . S
C415 H437 0.931 . S
C416 C415 1.381 . S
C416 C417 1.321 . S
C417 C416 1.321 . S
C417 C418 1.403 . S
C417 H438 0.934 . S
C418 C413 1.413 . S
C418 C417 1.403 . S
C418 H439 0.930 . S
C419 O430 1.275 . S
C419 O431 1.256 . S
O420 Ho400 2.322 . S
O420 C402 1.259 . S
O421 Ho401 2.346 . S
O421 C402 1.268 . S
O422 Ho400 2.378 . S
O422 C403 1.215 . S
O423 Ho400 2.524 . S
O423 C403 1.289 . S
O424 Ho400 2.381 . S
O424 C410 1.275 . S
O425 Ho400 2.669 . S
O425 Ho401 2.305 . S
O425 C410 1.256 . S
O426 Ho401 2.322 . S
O426 C411 1.259 . S
O427 Ho400 2.346 . S
O427 C411 1.268 . S
O428 Ho401 2.378 . S
O428 C412 1.215 . S
O429 Ho401 2.524 . S
O429 C412 1.289 . S
O430 Ho401 2.381 . S
O430 C419 1.275 . S
O431 Ho400 2.305 . S
O431 Ho401 2.669 . S
O431 C419 1.256 . S
H432 C405 0.930 . S
H433 C406 0.931 . S
H434 C408 0.934 . S
H435 C409 0.930 . S
H436 C414 0.930 . S
H437 C415 0.931 . S
H438 C417 0.934 . S
H439 C418 0.930 . S
Ho440 C443 2.811 1_554 S
Ho440 O460 2.322 . S
Ho440 O462 2.378 . S
Ho440 O463 2.505 1_554 S
Ho440 O464 2.381 . S
Ho440 O465 2.669 . S
Ho440 O467 2.346 . S
Ho440 O471 2.305 . S
Ho441 C452 2.811 . S
Ho441 O461 2.346 . S
Ho441 O465 2.305 . S
Ho441 O466 2.322 . S
Ho441 O468 2.378 . S
Ho441 O469 2.524 . S
Ho441 O470 2.381 . S
Ho441 O471 2.669 . S
C442 O460 1.259 . S
C442 O461 1.268 . S
C443 Ho440 2.811 1_556 S
C443 C444 1.488 . S
C443 O462 1.215 1_556 S
C443 O463 1.297 . S
C444 C443 1.488 . S
C444 C445 1.348 . S
C444 C449 1.413 . S
C445 C444 1.348 . S
C445 C446 1.442 . S
C445 H472 0.930 . S
C446 C445 1.442 . S
C446 C447 1.381 . S
C446 H473 0.931 . S
C447 C446 1.381 . S
C447 C448 1.321 . S
C448 C447 1.321 . S
C448 C449 1.403 . S
C448 H474 0.934 . S
C449 C444 1.413 . S
C449 C448 1.403 . S
C449 H475 0.930 . S
C450 O464 1.275 . S
C450 O465 1.256 . S
C451 O466 1.259 . S
C451 O467 1.268 . S
C452 Ho441 2.811 . S
C452 C453 1.488 . S
C452 O468 1.215 . S
C452 O469 1.289 . S
C453 C452 1.488 . S
C453 C454 1.348 . S
C453 C458 1.413 . S
C454 C453 1.348 . S
C454 C455 1.442 . S
C454 H476 0.930 . S
C455 C454 1.442 . S
C455 C456 1.381 . S
C455 H477 0.931 . S
C456 C455 1.381 . S
C456 C457 1.321 . S
C457 C456 1.321 . S
C457 C458 1.403 . S
C457 H478 0.934 . S
C458 C453 1.413 . S
C458 C457 1.403 . S
C458 H479 0.930 . S
C459 O470 1.275 . S
C459 O471 1.256 . S
O460 Ho440 2.322 . S
O460 C442 1.259 . S
O461 Ho441 2.346 . S
O461 C442 1.268 . S
O462 Ho440 2.378 . S
O462 C443 1.215 1_554 S
O463 Ho440 2.505 1_556 S
O463 C443 1.297 . S
O464 Ho440 2.381 . S
O464 C450 1.275 . S
O465 Ho440 2.669 . S
O465 Ho441 2.305 . S
O465 C450 1.256 . S
O466 Ho441 2.322 . S
O466 C451 1.259 . S
O467 Ho440 2.346 . S
O467 C451 1.268 . S
O468 Ho441 2.378 . S
O468 C452 1.215 . S
O469 Ho441 2.524 . S
O469 C452 1.289 . S
O470 Ho441 2.381 . S
O470 C459 1.275 . S
O471 Ho440 2.305 . S
O471 Ho441 2.669 . S
O471 C459 1.256 . S
H472 C445 0.930 . S
H473 C446 0.931 . S
H474 C448 0.934 . S
H475 C449 0.930 . S
H476 C454 0.930 . S
H477 C455 0.931 . S
H478 C457 0.934 . S
H479 C458 0.930 . S
H480 C486 0.930 . S
H481 C489 0.930 . S
H482 C490 0.930 . S
H483 C491 0.930 . S
H484 C494 0.930 . S
H485 C495 0.930 . S
C486 H480 0.930 . S
C486 C487 1.355 . S
C486 C488 1.415 . S
C487 C486 1.355 . S
C487 C489 1.419 . S
C488 C486 1.415 . S
C488 C493 1.425 . S
C488 C495 1.409 . S
C489 H481 0.930 . S
C489 C487 1.419 . S
C489 C490 1.362 . S
C490 H482 0.930 . S
C490 C489 1.362 . S
C490 C493 1.409 . S
C491 H483 0.930 . S
C491 C492 1.355 . S
C491 C493 1.415 . S
C492 C491 1.355 . S
C492 C494 1.419 . S
C493 C488 1.425 . S
C493 C490 1.409 . S
C493 C491 1.415 . S
C494 H484 0.930 . S
C494 C492 1.419 . S
C494 C495 1.362 . S
C495 H485 0.930 . S
C495 C488 1.409 . S
C495 C494 1.362 . S
H496 C502 0.930 . S
H497 C505 0.930 . S
H498 C506 0.930 . S
H499 C507 0.930 . S
H500 C510 0.930 . S
H501 C511 0.930 . S
C502 H496 0.930 . S
C502 C503 1.355 . S
C502 C504 1.415 . S
C503 C502 1.355 . S
C503 C505 1.419 . S
C504 C502 1.415 . S
C504 C509 1.425 . S
C504 C511 1.409 . S
C505 H497 0.930 . S
C505 C503 1.419 . S
C505 C506 1.362 . S
C506 H498 0.930 . S
C506 C505 1.362 . S
C506 C509 1.409 . S
C507 H499 0.930 . S
C507 C508 1.355 . S
C507 C509 1.415 . S
C508 C507 1.355 . S
C508 C510 1.419 . S
C509 C504 1.425 . S
C509 C506 1.409 . S
C509 C507 1.415 . S
C510 H500 0.930 . S
C510 C508 1.419 . S
C510 C511 1.362 . S
C511 H501 0.930 . S
C511 C504 1.409 . S
C511 C510 1.362 . S
H512 C518 0.930 . S
H513 C521 0.930 . S
H514 C522 0.930 . S
H515 C523 0.930 . S
H516 C526 0.930 . S
H517 C527 0.930 . S
C518 H512 0.930 . S
C518 C519 1.355 . S
C518 C520 1.415 . S
C519 C518 1.355 . S
C519 C521 1.419 . S
C520 C518 1.415 . S
C520 C525 1.425 . S
C520 C527 1.409 . S
C521 H513 0.930 . S
C521 C519 1.419 . S
C521 C522 1.362 . S
C522 H514 0.930 . S
C522 C521 1.362 . S
C522 C525 1.409 . S
C523 H515 0.930 . S
C523 C524 1.355 . S
C523 C525 1.415 . S
C524 C523 1.355 . S
C524 C526 1.419 . S
C525 C520 1.425 . S
C525 C522 1.409 . S
C525 C523 1.415 . S
C526 H516 0.930 . S
C526 C524 1.419 . S
C526 C527 1.362 . S
C527 H517 0.930 . S
C527 C520 1.409 . S
C527 C526 1.362 . S
H528 C534 0.930 . S
H529 C537 0.930 . S
H530 C538 0.930 . S
H531 C539 0.930 . S
H532 C542 0.930 . S
H533 C543 0.930 . S
C534 H528 0.930 . S
C534 C535 1.355 . S
C534 C536 1.415 . S
C535 C534 1.355 . S
C535 C537 1.419 . S
C536 C534 1.415 . S
C536 C541 1.425 . S
C536 C543 1.409 . S
C537 H529 0.930 . S
C537 C535 1.419 . S
C537 C538 1.362 . S
C538 H530 0.930 . S
C538 C537 1.362 . S
C538 C541 1.409 . S
C539 H531 0.930 . S
C539 C540 1.355 . S
C539 C541 1.415 . S
C540 C539 1.355 . S
C540 C542 1.419 . S
C541 C536 1.425 . S
C541 C538 1.409 . S
C541 C539 1.415 . S
C542 H532 0.930 . S
C542 C540 1.419 . S
C542 C543 1.362 . S
C543 H533 0.930 . S
C543 C536 1.409 . S
C543 C542 1.362 . S
H544 C550 0.930 . S
H545 C553 0.930 . S
H546 C554 0.930 . S
H547 C555 0.930 . S
H548 C558 0.930 . S
H549 C559 0.930 . S
C550 H544 0.930 . S
C550 C551 1.355 . S
C550 C552 1.415 . S
C551 C550 1.355 . S
C551 C553 1.419 . S
C552 C550 1.415 . S
C552 C557 1.425 . S
C552 C559 1.409 . S
C553 H545 0.930 . S
C553 C551 1.419 . S
C553 C554 1.362 . S
C554 H546 0.930 . S
C554 C553 1.362 . S
C554 C557 1.409 . S
C555 H547 0.930 . S
C555 C556 1.355 . S
C555 C557 1.415 . S
C556 C555 1.355 . S
C556 C558 1.419 . S
C557 C552 1.425 . S
C557 C554 1.409 . S
C557 C555 1.415 . S
C558 H548 0.930 . S
C558 C556 1.419 . S
C558 C559 1.362 . S
C559 H549 0.930 . S
C559 C552 1.409 . S
C559 C558 1.362 . S
H560 C566 0.930 . S
H561 C569 0.930 . S
H562 C570 0.930 . S
H563 C571 0.930 . S
H564 C574 0.930 . S
H565 C575 0.930 . S
C566 H560 0.930 . S
C566 C567 1.355 . S
C566 C568 1.415 . S
C567 C566 1.355 . S
C567 C569 1.419 . S
C568 C566 1.415 . S
C568 C573 1.425 . S
C568 C575 1.409 . S
C569 H561 0.930 . S
C569 C567 1.419 . S
C569 C570 1.362 . S
C570 H562 0.930 . S
C570 C569 1.362 . S
C570 C573 1.409 . S
C571 H563 0.930 . S
C571 C572 1.355 . S
C571 C573 1.415 . S
C572 C571 1.355 . S
C572 C574 1.419 . S
C573 C568 1.425 . S
C573 C570 1.409 . S
C573 C571 1.415 . S
C574 H564 0.930 . S
C574 C572 1.419 . S
C574 C575 1.362 . S
C575 H565 0.930 . S
C575 C568 1.409 . S
C575 C574 1.362 . S
H576 C582 0.930 . S
H577 C585 0.930 . S
H578 C586 0.930 . S
H579 C587 0.930 . S
H580 C590 0.930 . S
H581 C591 0.930 . S
C582 H576 0.930 . S
C582 C583 1.354 1_554 S
C582 C584 1.415 . S
C583 C582 1.354 1_556 S
C583 C585 1.419 . S
C584 C582 1.415 . S
C584 C589 1.425 1_554 S
C584 C591 1.409 . S
C585 H577 0.930 . S
C585 C583 1.419 . S
C585 C586 1.362 . S
C586 H578 0.930 . S
C586 C585 1.362 . S
C586 C589 1.409 . S
C587 H579 0.930 . S
C587 C588 1.354 1_556 S
C587 C589 1.415 . S
C588 C587 1.354 1_554 S
C588 C590 1.419 . S
C589 C584 1.425 1_556 S
C589 C586 1.409 . S
C589 C587 1.415 . S
C590 H580 0.930 . S
C590 C588 1.419 . S
C590 C591 1.362 . S
C591 H581 0.930 . S
C591 C584 1.409 . S
C591 C590 1.362 . S
H592 C598 0.930 . S
H593 C601 0.930 . S
H594 C602 0.930 . S
H595 C603 0.930 . S
H596 C606 0.930 . S
H597 C607 0.930 . S
C598 H592 0.930 . S
C598 C599 1.355 . S
C598 C600 1.415 . S
C599 C598 1.355 . S
C599 C601 1.419 . S
C600 C598 1.415 . S
C600 C605 1.425 . S
C600 C607 1.409 . S
C601 H593 0.930 . S
C601 C599 1.419 . S
C601 C602 1.362 . S
C602 H594 0.930 . S
C602 C601 1.362 . S
C602 C605 1.409 . S
C603 H595 0.930 . S
C603 C604 1.355 . S
C603 C605 1.415 . S
C604 C603 1.355 . S
C604 C606 1.419 . S
C605 C600 1.425 . S
C605 C602 1.409 . S
C605 C603 1.415 . S
C606 H596 0.930 . S
C606 C604 1.419 . S
C606 C607 1.362 . S
C607 H597 0.930 . S
C607 C600 1.409 . S
C607 C606 1.362 . S
H608 C614 0.930 . S
H609 C617 0.930 . S
H610 C618 0.930 . S
H611 C619 0.930 . S
H612 C622 0.930 . S
H613 C623 0.930 . S
C614 H608 0.930 . S
C614 C615 1.355 . S
C614 C616 1.415 . S
C615 C614 1.355 . S
C615 C617 1.419 . S
C616 C614 1.415 . S
C616 C621 1.425 . S
C616 C623 1.409 . S
C617 H609 0.930 . S
C617 C615 1.419 . S
C617 C618 1.362 . S
C618 H610 0.930 . S
C618 C617 1.362 . S
C618 C621 1.409 . S
C619 H611 0.930 . S
C619 C620 1.355 . S
C619 C621 1.415 . S
C620 C619 1.355 . S
C620 C622 1.419 . S
C621 C616 1.425 . S
C621 C618 1.409 . S
C621 C619 1.415 . S
C622 H612 0.930 . S
C622 C620 1.419 . S
C622 C623 1.362 . S
C623 H613 0.930 . S
C623 C616 1.409 . S
C623 C622 1.362 . S
H624 C630 0.930 . S
H625 C633 0.930 . S
H626 C634 0.930 . S
H627 C635 0.930 . S
H628 C638 0.930 . S
H629 C639 0.930 . S
C630 H624 0.930 . S
C630 C631 1.355 1_554 S
C630 C632 1.415 . S
C631 C630 1.355 1_556 S
C631 C633 1.419 . S
C632 C630 1.415 . S
C632 C637 1.425 1_554 S
C632 C639 1.409 . S
C633 H625 0.930 . S
C633 C631 1.419 . S
C633 C634 1.362 . S
C634 H626 0.930 . S
C634 C633 1.362 . S
C634 C637 1.409 . S
C635 H627 0.930 . S
C635 C636 1.355 1_556 S
C635 C637 1.415 . S
C636 C635 1.355 1_554 S
C636 C638 1.419 . S
C637 C632 1.425 1_556 S
C637 C634 1.409 . S
C637 C635 1.415 . S
C638 H628 0.930 . S
C638 C636 1.419 . S
C638 C639 1.362 . S
C639 H629 0.930 . S
C639 C632 1.409 . S
C639 C638 1.362 . S
H640 C646 0.930 . S
H641 C649 0.930 . S
H642 C650 0.930 . S
H643 C651 0.930 . S
H644 C654 0.930 . S
H645 C655 0.930 . S
C646 H640 0.930 . S
C646 C647 1.355 . S
C646 C648 1.415 . S
C647 C646 1.355 . S
C647 C649 1.419 . S
C648 C646 1.415 . S
C648 C653 1.425 . S
C648 C655 1.409 . S
C649 H641 0.930 . S
C649 C647 1.419 . S
C649 C650 1.362 . S
C650 H642 0.930 . S
C650 C649 1.362 . S
C650 C653 1.409 . S
C651 H643 0.930 . S
C651 C652 1.355 . S
C651 C653 1.415 . S
C652 C651 1.355 . S
C652 C654 1.419 . S
C653 C648 1.425 . S
C653 C650 1.409 . S
C653 C651 1.415 . S
C654 H644 0.930 . S
C654 C652 1.419 . S
C654 C655 1.362 . S
C655 H645 0.930 . S
C655 C648 1.409 . S
C655 C654 1.362 . S
H656 C662 0.930 . S
H657 C665 0.930 . S
H658 C666 0.930 . S
H659 C667 0.930 . S
H660 C670 0.930 . S
H661 C671 0.930 . S
C662 H656 0.930 . S
C662 C663 1.355 . S
C662 C664 1.415 . S
C663 C662 1.355 . S
C663 C665 1.419 . S
C664 C662 1.415 . S
C664 C669 1.425 . S
C664 C671 1.409 . S
C665 H657 0.930 . S
C665 C663 1.419 . S
C665 C666 1.362 . S
C666 H658 0.930 . S
C666 C665 1.362 . S
C666 C669 1.409 . S
C667 H659 0.930 . S
C667 C668 1.355 . S
C667 C669 1.415 . S
C668 C667 1.355 . S
C668 C670 1.419 . S
C669 C664 1.425 . S
C669 C666 1.409 . S
C669 C667 1.415 . S
C670 H660 0.930 . S
C670 C668 1.419 . S
C670 C671 1.362 . S
C671 H661 0.930 . S
C671 C664 1.409 . S
C671 C670 1.362 . S
H672 C678 0.930 . S
H673 C681 0.930 . S
H674 C682 0.930 . S
H675 C683 0.930 . S
H676 C686 0.930 . S
H677 C687 0.930 . S
C678 H672 0.930 . S
C678 C679 1.355 . S
C678 C680 1.417 . S
C679 C678 1.355 . S
C679 C681 1.419 . S
C680 C678 1.417 . S
C680 C685 1.425 1_566 S
C680 C687 1.407 1_556 S
C681 H673 0.930 . S
C681 C679 1.419 . S
C681 C682 1.362 1_565 S
C682 H674 0.930 . S
C682 C681 1.362 1_545 S
C682 C685 1.407 1_556 S
C683 H675 0.930 . S
C683 C684 1.355 . S
C683 C685 1.417 . S
C684 C683 1.355 . S
C684 C686 1.419 . S
C685 C680 1.425 1_544 S
C685 C682 1.407 1_554 S
C685 C683 1.417 . S
C686 H676 0.930 . S
C686 C684 1.419 . S
C686 C687 1.362 1_545 S
C687 H677 0.930 . S
C687 C680 1.407 1_554 S
C687 C686 1.362 1_565 S
H688 C694 0.930 . S
H689 C697 0.930 . S
H690 C698 0.930 . S
H691 C699 0.930 . S
H692 C702 0.930 . S
H693 C703 0.930 . S
C694 H688 0.930 . S
C694 C695 1.355 . S
C694 C696 1.415 . S
C695 C694 1.355 . S
C695 C697 1.419 . S
C696 C694 1.415 . S
C696 C701 1.425 . S
C696 C703 1.409 . S
C697 H689 0.930 . S
C697 C695 1.419 . S
C697 C698 1.362 . S
C698 H690 0.930 . S
C698 C697 1.362 . S
C698 C701 1.409 . S
C699 H691 0.930 . S
C699 C700 1.355 . S
C699 C701 1.415 . S
C700 C699 1.355 . S
C700 C702 1.419 . S
C701 C696 1.425 . S
C701 C698 1.409 . S
C701 C699 1.415 . S
C702 H692 0.930 . S
C702 C700 1.419 . S
C702 C703 1.362 . S
C703 H693 0.930 . S
C703 C696 1.409 . S
C703 C702 1.362 . S
H704 C710 0.930 . S
H705 C713 0.930 . S
H706 C714 0.930 . S
H707 C715 0.930 . S
H708 C718 0.930 . S
H709 C719 0.930 . S
C710 H704 0.930 . S
C710 C711 1.355 . S
C710 C712 1.415 . S
C711 C710 1.355 . S
C711 C713 1.419 1_455 S
C712 C710 1.415 . S
C712 C717 1.425 1_455 S
C712 C719 1.409 . S
C713 H705 0.930 . S
C713 C711 1.419 1_655 S
C713 C714 1.362 . S
C714 H706 0.930 . S
C714 C713 1.362 . S
C714 C717 1.409 . S
C715 H707 0.930 . S
C715 C716 1.355 . S
C715 C717 1.415 . S
C716 C715 1.355 . S
C716 C718 1.419 1_655 S
C717 C712 1.425 1_655 S
C717 C714 1.409 . S
C717 C715 1.415 . S
C718 H708 0.930 . S
C718 C716 1.419 1_455 S
C718 C719 1.362 . S
C719 H709 0.930 . S
C719 C712 1.409 . S
C719 C718 1.362 . S
H720 C726 0.930 1_545 S
H721 C729 0.930 . S
H722 C730 0.930 . S
H723 C731 0.930 1_565 S
H724 C734 0.930 . S
H725 C735 0.930 . S
C726 H720 0.930 1_565 S
C726 C727 1.355 . S
C726 C728 1.415 1_565 S
C727 C726 1.355 . S
C727 C729 1.419 . S
C728 C726 1.415 1_545 S
C728 C733 1.425 1_544 S
C728 C735 1.409 . S
C729 H721 0.930 . S
C729 C727 1.419 . S
C729 C730 1.362 1_554 S
C730 H722 0.930 . S
C730 C729 1.362 1_556 S
C730 C733 1.409 . S
C731 H723 0.930 1_545 S
C731 C732 1.355 . S
C731 C733 1.415 1_545 S
C732 C731 1.355 . S
C732 C734 1.419 . S
C733 C728 1.425 1_566 S
C733 C730 1.409 . S
C733 C731 1.415 1_565 S
C734 H724 0.930 . S
C734 C732 1.419 . S
C734 C735 1.362 1_556 S
C735 H725 0.930 . S
C735 C728 1.409 . S
C735 C734 1.362 1_554 S
H736 C742 0.930 . S
H737 C745 0.930 . S
H738 C746 0.930 . S
H739 C747 0.930 . S
H740 C750 0.930 . S
H741 C751 0.930 . S
C742 H736 0.930 . S
C742 C743 1.355 . S
C742 C744 1.415 . S
C743 C742 1.355 . S
C743 C745 1.419 . S
C744 C742 1.415 . S
C744 C749 1.425 . S
C744 C751 1.409 . S
C745 H737 0.930 . S
C745 C743 1.419 . S
C745 C746 1.362 . S
C746 H738 0.930 . S
C746 C745 1.362 . S
C746 C749 1.409 . S
C747 H739 0.930 . S
C747 C748 1.355 . S
C747 C749 1.415 . S
C748 C747 1.355 . S
C748 C750 1.419 . S
C749 C744 1.425 . S
C749 C746 1.409 . S
C749 C747 1.415 . S
C750 H740 0.930 . S
C750 C748 1.419 . S
C750 C751 1.362 . S
C751 H741 0.930 . S
C751 C744 1.409 . S
C751 C750 1.362 . S
H752 C758 0.930 1_655 S
H753 C761 0.930 . S
H754 C762 0.930 . S
H755 C763 0.930 1_455 S
H756 C766 0.930 . S
H757 C767 0.930 . S
C758 H752 0.930 1_455 S
C758 C759 1.355 . S
C758 C760 1.415 1_455 S
C759 C758 1.355 . S
C759 C761 1.419 . S
C760 C758 1.415 1_655 S
C760 C765 1.425 1_655 S
C760 C767 1.409 . S
C761 H753 0.930 . S
C761 C759 1.419 . S
C761 C762 1.362 . S
C762 H754 0.930 . S
C762 C761 1.362 . S
C762 C765 1.409 . S
C763 H755 0.930 1_655 S
C763 C764 1.355 . S
C763 C765 1.415 1_655 S
C764 C763 1.355 . S
C764 C766 1.419 . S
C765 C760 1.425 1_455 S
C765 C762 1.409 . S
C765 C763 1.415 1_455 S
C766 H756 0.930 . S
C766 C764 1.419 . S
C766 C767 1.362 . S
C767 H757 0.930 . S
C767 C760 1.409 . S
C767 C766 1.362 . S
H768 C774 0.930 . S
H769 C777 0.930 . S
H770 C778 0.930 . S
H771 C779 0.930 . S
H772 C782 0.930 . S
H773 C783 0.930 . S
C774 H768 0.930 . S
C774 C775 1.355 . S
C774 C776 1.415 . S
C775 C774 1.355 . S
C775 C777 1.419 . S
C776 C774 1.415 . S
C776 C781 1.425 1_545 S
C776 C783 1.409 . S
C777 H769 0.930 . S
C777 C775 1.419 . S
C777 C778 1.362 1_545 S
C778 H770 0.930 . S
C778 C777 1.362 1_565 S
C778 C781 1.409 . S
C779 H771 0.930 . S
C779 C780 1.355 . S
C779 C781 1.415 . S
C780 C779 1.355 . S
C780 C782 1.419 . S
C781 C776 1.425 1_565 S
C781 C778 1.409 . S
C781 C779 1.415 . S
C782 H772 0.930 . S
C782 C780 1.419 . S
C782 C783 1.362 1_565 S
C783 H773 0.930 . S
C783 C776 1.409 . S
C783 C782 1.362 1_545 S
H784 C790 0.930 . S
H785 C793 0.930 . S
H786 C794 0.930 . S
H787 C795 0.930 . S
H788 C798 0.930 . S
H789 C799 0.930 . S
C790 H784 0.930 . S
C790 C791 1.355 . S
C790 C792 1.415 . S
C791 C790 1.355 . S
C791 C793 1.419 . S
C792 C790 1.415 . S
C792 C797 1.425 . S
C792 C799 1.409 . S
C793 H785 0.930 . S
C793 C791 1.419 . S
C793 C794 1.362 . S
C794 H786 0.930 . S
C794 C793 1.362 . S
C794 C797 1.409 . S
C795 H787 0.930 . S
C795 C796 1.355 . S
C795 C797 1.415 . S
C796 C795 1.355 . S
C796 C798 1.419 . S
C797 C792 1.425 . S
C797 C794 1.409 . S
C797 C795 1.415 . S
C798 H788 0.930 . S
C798 C796 1.419 . S
C798 C799 1.362 . S
C799 H789 0.930 . S
C799 C792 1.409 . S
C799 C798 1.362 . S
H800 C806 0.930 . S
H801 C809 0.930 . S
H802 C810 0.930 . S
H803 C811 0.930 . S
H804 C814 0.930 . S
H805 C815 0.930 . S
C806 H800 0.930 . S
C806 C807 1.355 . S
C806 C808 1.415 . S
C807 C806 1.355 . S
C807 C809 1.419 . S
C808 C806 1.415 . S
C808 C813 1.425 1_655 S
C808 C815 1.409 1_655 S
C809 H801 0.930 . S
C809 C807 1.419 . S
C809 C810 1.362 . S
C810 H802 0.930 . S
C810 C809 1.362 . S
C810 C813 1.409 1_655 S
C811 H803 0.930 . S
C811 C812 1.355 . S
C811 C813 1.415 . S
C812 C811 1.355 . S
C812 C814 1.419 . S
C813 C808 1.425 1_455 S
C813 C810 1.409 1_455 S
C813 C811 1.415 . S
C814 H804 0.930 . S
C814 C812 1.419 . S
C814 C815 1.362 . S
C815 H805 0.930 . S
C815 C808 1.409 1_455 S
C815 C814 1.362 . S
H816 C822 0.930 . S
H817 C825 0.930 . S
H818 C826 0.930 . S
H819 C827 0.930 . S
H820 C830 0.930 . S
H821 C831 0.930 . S
C822 H816 0.930 . S
C822 C823 1.355 . S
C822 C824 1.415 . S
C823 C822 1.355 . S
C823 C825 1.419 . S
C824 C822 1.415 . S
C824 C829 1.425 1_455 S
C824 C831 1.409 . S
C825 H817 0.930 . S
C825 C823 1.419 . S
C825 C826 1.362 1_455 S
C826 H818 0.930 . S
C826 C825 1.362 1_655 S
C826 C829 1.409 . S
C827 H819 0.930 . S
C827 C828 1.355 . S
C827 C829 1.415 . S
C828 C827 1.355 . S
C828 C830 1.419 . S
C829 C824 1.425 1_655 S
C829 C826 1.409 . S
C829 C827 1.415 . S
C830 H820 0.930 . S
C830 C828 1.419 . S
C830 C831 1.362 1_655 S
C831 H821 0.930 . S
C831 C824 1.409 . S
C831 C830 1.362 1_455 S
H832 C838 0.930 . S
H833 C841 0.930 . S
H834 C842 0.930 . S
H835 C843 0.930 . S
H836 C846 0.930 . S
H837 C847 0.930 . S
C838 H832 0.930 . S
C838 C839 1.355 . S
C838 C840 1.415 . S
C839 C838 1.355 . S
C839 C841 1.419 . S
C840 C838 1.415 . S
C840 C845 1.425 1_565 S
C840 C847 1.409 . S
C841 H833 0.930 . S
C841 C839 1.419 . S
C841 C842 1.362 1_565 S
C842 H834 0.930 . S
C842 C841 1.362 1_545 S
C842 C845 1.409 . S
C843 H835 0.930 . S
C843 C844 1.355 . S
C843 C845 1.415 . S
C844 C843 1.355 . S
C844 C846 1.419 . S
C845 C840 1.425 1_545 S
C845 C842 1.409 . S
C845 C843 1.415 . S
C846 H836 0.930 . S
C846 C844 1.419 . S
C846 C847 1.362 1_545 S
C847 H837 0.930 . S
C847 C840 1.409 . S
C847 C846 1.362 1_565 S
H848 C854 0.930 . S
H849 C857 0.930 . S
H850 C858 0.930 . S
H851 C859 0.930 . S
H852 C862 0.930 . S
H853 C863 0.930 . S
C854 H848 0.930 . S
C854 C855 1.355 . S
C854 C856 1.415 . S
C855 C854 1.355 . S
C855 C857 1.419 . S
C856 C854 1.415 . S
C856 C861 1.425 . S
C856 C863 1.409 . S
C857 H849 0.930 . S
C857 C855 1.419 . S
C857 C858 1.362 . S
C858 H850 0.930 . S
C858 C857 1.362 . S
C858 C861 1.409 . S
C859 H851 0.930 . S
C859 C860 1.355 . S
C859 C861 1.415 . S
C860 C859 1.355 . S
C860 C862 1.419 . S
C861 C856 1.425 . S
C861 C858 1.409 . S
C861 C859 1.415 . S
C862 H852 0.930 . S
C862 C860 1.419 . S
C862 C863 1.362 . S
C863 H853 0.930 . S
C863 C856 1.409 . S
C863 C862 1.362 . S
H864 C870 0.930 . S
H865 C873 0.930 . S
H866 C874 0.930 1_545 S
H867 C875 0.930 . S
H868 C878 0.930 . S
H869 C879 0.930 1_565 S
C870 H864 0.930 . S
C870 C871 1.355 . S
C870 C872 1.415 . S
C871 C870 1.355 . S
C871 C873 1.419 . S
C872 C870 1.415 . S
C872 C877 1.425 1_565 S
C872 C879 1.409 1_565 S
C873 H865 0.930 . S
C873 C871 1.419 . S
C873 C874 1.362 . S
C874 H866 0.930 1_565 S
C874 C873 1.362 . S
C874 C877 1.409 1_565 S
C875 H867 0.930 . S
C875 C876 1.355 . S
C875 C877 1.415 . S
C876 C875 1.355 . S
C876 C878 1.419 . S
C877 C872 1.425 1_545 S
C877 C874 1.409 1_545 S
C877 C875 1.415 . S
C878 H868 0.930 . S
C878 C876 1.419 . S
C878 C879 1.362 . S
C879 H869 0.930 1_545 S
C879 C872 1.409 1_545 S
C879 C878 1.362 . S
H880 C886 0.930 . S
H881 C889 0.930 . S
H882 C890 0.930 . S
H883 C891 0.930 . S
H884 C894 0.930 . S
H885 C895 0.930 . S
C886 H880 0.930 . S
C886 C887 1.355 . S
C886 C888 1.415 . S
C887 C886 1.355 . S
C887 C889 1.419 . S
C888 C886 1.415 . S
C888 C893 1.425 . S
C888 C895 1.409 . S
C889 H881 0.930 . S
C889 C887 1.419 . S
C889 C890 1.362 . S
C890 H882 0.930 . S
C890 C889 1.362 . S
C890 C893 1.409 . S
C891 H883 0.930 . S
C891 C892 1.355 . S
C891 C893 1.415 . S
C892 C891 1.355 . S
C892 C894 1.419 . S
C893 C888 1.425 . S
C893 C890 1.409 . S
C893 C891 1.415 . S
C894 H884 0.930 . S
C894 C892 1.419 . S
C894 C895 1.362 . S
C895 H885 0.930 . S
C895 C888 1.409 . S
C895 C894 1.362 . S
H896 C902 0.930 . S
H897 C905 0.930 . S
H898 C906 0.930 . S
H899 C907 0.930 . S
H900 C910 0.930 . S
H901 C911 0.930 . S
C902 H896 0.930 . S
C902 C903 1.355 . S
C902 C904 1.415 . S
C903 C902 1.355 . S
C903 C905 1.419 . S
C904 C902 1.415 . S
C904 C909 1.425 1_655 S
C904 C911 1.409 1_655 S
C905 H897 0.930 . S
C905 C903 1.419 . S
C905 C906 1.362 . S
C906 H898 0.930 . S
C906 C905 1.362 . S
C906 C909 1.409 1_655 S
C907 H899 0.930 . S
C907 C908 1.355 . S
C907 C909 1.415 . S
C908 C907 1.355 . S
C908 C910 1.419 . S
C909 C904 1.425 1_455 S
C909 C906 1.409 1_455 S
C909 C907 1.415 . S
C910 H900 0.930 . S
C910 C908 1.419 . S
C910 C911 1.362 . S
C911 H901 0.930 . S
C911 C904 1.409 1_455 S
C911 C910 1.362 . S
H912 C918 0.930 . S
H913 C921 0.930 . S
H914 C922 0.930 1_565 S
H915 C923 0.930 . S
H916 C926 0.930 . S
H917 C927 0.930 1_545 S
C918 H912 0.930 . S
C918 C919 1.355 . S
C918 C920 1.415 . S
C919 C918 1.355 . S
C919 C921 1.419 . S
C920 C918 1.415 . S
C920 C925 1.425 1_545 S
C920 C927 1.409 1_545 S
C921 H913 0.930 . S
C921 C919 1.419 . S
C921 C922 1.362 . S
C922 H914 0.930 1_545 S
C922 C921 1.362 . S
C922 C925 1.409 1_545 S
C923 H915 0.930 . S
C923 C924 1.355 . S
C923 C925 1.415 . S
C924 C923 1.355 . S
C924 C926 1.419 . S
C925 C920 1.425 1_565 S
C925 C922 1.409 1_565 S
C925 C923 1.415 . S
C926 H916 0.930 . S
C926 C924 1.419 . S
C926 C927 1.362 . S
C927 H917 0.930 1_565 S
C927 C920 1.409 1_565 S
C927 C926 1.362 . S
H928 C934 0.930 . S
H929 C937 0.930 . S
H930 C938 0.930 . S
H931 C939 0.930 . S
H932 C942 0.930 . S
H933 C943 0.930 . S
C934 H928 0.930 . S
C934 C935 1.355 . S
C934 C936 1.415 . S
C935 C934 1.355 . S
C935 C937 1.419 . S
C936 C934 1.415 . S
C936 C941 1.425 . S
C936 C943 1.409 . S
C937 H929 0.930 . S
C937 C935 1.419 . S
C937 C938 1.362 . S
C938 H930 0.930 . S
C938 C937 1.362 . S
C938 C941 1.409 . S
C939 H931 0.930 . S
C939 C940 1.355 . S
C939 C941 1.415 . S
C940 C939 1.355 . S
C940 C942 1.419 . S
C941 C936 1.425 . S
C941 C938 1.409 . S
C941 C939 1.415 . S
C942 H932 0.930 . S
C942 C940 1.419 . S
C942 C943 1.362 . S
C943 H933 0.930 . S
C943 C936 1.409 . S
C943 C942 1.362 . S
H944 C950 0.930 . S
H945 C953 0.930 . S
H946 C954 0.930 1_655 S
H947 C955 0.930 . S
H948 C958 0.930 . S
H949 C959 0.930 1_455 S
C950 H944 0.930 . S
C950 C951 1.355 . S
C950 C952 1.415 . S
C951 C950 1.355 . S
C951 C953 1.419 . S
C952 C950 1.415 . S
C952 C957 1.425 1_455 S
C952 C959 1.409 1_455 S
C953 H945 0.930 . S
C953 C951 1.419 . S
C953 C954 1.362 . S
C954 H946 0.930 1_455 S
C954 C953 1.362 . S
C954 C957 1.409 1_455 S
C955 H947 0.930 . S
C955 C956 1.355 . S
C955 C957 1.415 . S
C956 C955 1.355 . S
C956 C958 1.419 . S
C957 C952 1.425 1_655 S
C957 C954 1.409 1_655 S
C957 C955 1.415 . S
C958 H948 0.930 . S
C958 C956 1.419 . S
C958 C959 1.362 . S
C959 H949 0.930 1_655 S
C959 C952 1.409 1_655 S
C959 C958 1.362 . S
H960 C966 0.930 . S
H961 C969 0.930 . S
H962 C970 0.930 . S
H963 C971 0.930 . S
H964 C974 0.930 . S
H965 C975 0.930 . S
C966 H960 0.930 . S
C966 C967 1.355 . S
C966 C968 1.415 . S
C967 C966 1.355 . S
C967 C969 1.419 . S
C968 C966 1.415 . S
C968 C973 1.425 . S
C968 C975 1.409 . S
C969 H961 0.930 . S
C969 C967 1.419 . S
C969 C970 1.362 . S
C970 H962 0.930 . S
C970 C969 1.362 . S
C970 C973 1.409 . S
C971 H963 0.930 . S
C971 C972 1.355 . S
C971 C973 1.415 . S
C972 C971 1.355 . S
C972 C974 1.419 . S
C973 C968 1.425 . S
C973 C970 1.409 . S
C973 C971 1.415 . S
C974 H964 0.930 . S
C974 C972 1.419 . S
C974 C975 1.362 . S
C975 H965 0.930 . S
C975 C968 1.409 . S
C975 C974 1.362 . S
H976 C982 0.930 . S
H977 C985 0.930 . S
H978 C986 0.930 . S
H979 C987 0.930 . S
H980 C990 0.930 . S
H981 C991 0.930 . S
C982 H976 0.930 . S
C982 C983 1.355 . S
C982 C984 1.415 . S
C983 C982 1.355 . S
C983 C985 1.419 . S
C984 C982 1.415 . S
C984 C989 1.425 . S
C984 C991 1.409 . S
C985 H977 0.930 . S
C985 C983 1.419 . S
C985 C986 1.362 . S
C986 H978 0.930 . S
C986 C985 1.362 . S
C986 C989 1.409 . S
C987 H979 0.930 . S
C987 C988 1.355 . S
C987 C989 1.415 . S
C988 C987 1.355 . S
C988 C990 1.419 . S
C989 C984 1.425 . S
C989 C986 1.409 . S
C989 C987 1.415 . S
C990 H980 0.930 . S
C990 C988 1.419 . S
C990 C991 1.362 . S
C991 H981 0.930 . S
C991 C984 1.409 . S
C991 C990 1.362 . S
H992 C998 0.930 . S
H993 C1001 0.930 . S
H994 C1002 0.930 . S
H995 C1003 0.930 . S
H996 C1006 0.930 . S
H997 C1007 0.930 . S
C998 H992 0.930 . S
C998 C999 1.355 . S
C998 C1000 1.415 . S
C999 C998 1.355 . S
C999 C1001 1.419 . S
C1000 C998 1.415 . S
C1000 C1005 1.425 . S
C1000 C1007 1.409 . S
C1001 H993 0.930 . S
C1001 C999 1.419 . S
C1001 C1002 1.362 . S
C1002 H994 0.930 . S
C1002 C1001 1.362 . S
C1002 C1005 1.409 . S
C1003 H995 0.930 . S
C1003 C1004 1.355 . S
C1003 C1005 1.415 . S
C1004 C1003 1.355 . S
C1004 C1006 1.419 . S
C1005 C1000 1.425 . S
C1005 C1002 1.409 . S
C1005 C1003 1.415 . S
C1006 H996 0.930 . S
C1006 C1004 1.419 . S
C1006 C1007 1.362 . S
C1007 H997 0.930 . S
C1007 C1000 1.409 . S
C1007 C1006 1.362 . S
H1008 C1014 0.930 . S
H1009 C1017 0.930 . S
H1010 C1018 0.930 . S
H1011 C1019 0.930 . S
H1012 C1022 0.930 . S
H1013 C1023 0.930 . S
C1014 H1008 0.930 . S
C1014 C1015 1.355 . S
C1014 C1016 1.415 . S
C1015 C1014 1.355 . S
C1015 C1017 1.419 . S
C1016 C1014 1.415 . S
C1016 C1021 1.425 . S
C1016 C1023 1.409 . S
C1017 H1009 0.930 . S
C1017 C1015 1.419 . S
C1017 C1018 1.362 . S
C1018 H1010 0.930 . S
C1018 C1017 1.362 . S
C1018 C1021 1.409 . S
C1019 H1011 0.930 . S
C1019 C1020 1.355 . S
C1019 C1021 1.415 . S
C1020 C1019 1.355 . S
C1020 C1022 1.419 . S
C1021 C1016 1.425 . S
C1021 C1018 1.409 . S
C1021 C1019 1.415 . S
C1022 H1012 0.930 . S
C1022 C1020 1.419 . S
C1022 C1023 1.362 . S
C1023 H1013 0.930 . S
C1023 C1016 1.409 . S
C1023 C1022 1.362 . S
H1024 C1030 0.930 . S
H1025 C1033 0.930 . S
H1026 C1034 0.930 . S
H1027 C1035 0.930 . S
H1028 C1038 0.930 . S
H1029 C1039 0.930 . S
C1030 H1024 0.930 . S
C1030 C1031 1.355 . S
C1030 C1032 1.415 . S
C1031 C1030 1.355 . S
C1031 C1033 1.419 . S
C1032 C1030 1.415 . S
C1032 C1037 1.425 . S
C1032 C1039 1.409 . S
C1033 H1025 0.930 . S
C1033 C1031 1.419 . S
C1033 C1034 1.362 . S
C1034 H1026 0.930 . S
C1034 C1033 1.362 . S
C1034 C1037 1.409 . S
C1035 H1027 0.930 . S
C1035 C1036 1.355 . S
C1035 C1037 1.415 . S
C1036 C1035 1.355 . S
C1036 C1038 1.419 . S
C1037 C1032 1.425 . S
C1037 C1034 1.409 . S
C1037 C1035 1.415 . S
C1038 H1028 0.930 . S
C1038 C1036 1.419 . S
C1038 C1039 1.362 . S
C1039 H1029 0.930 . S
C1039 C1032 1.409 . S
C1039 C1038 1.362 . S
H1040 C1046 0.930 . S
H1041 C1049 0.930 . S
H1042 C1050 0.930 . S
H1043 C1051 0.930 . S
H1044 C1054 0.930 . S
H1045 C1055 0.930 . S
C1046 H1040 0.930 . S
C1046 C1047 1.355 . S
C1046 C1048 1.415 . S
C1047 C1046 1.355 . S
C1047 C1049 1.419 . S
C1048 C1046 1.415 . S
C1048 C1053 1.425 . S
C1048 C1055 1.409 . S
C1049 H1041 0.930 . S
C1049 C1047 1.419 . S
C1049 C1050 1.362 . S
C1050 H1042 0.930 . S
C1050 C1049 1.362 . S
C1050 C1053 1.409 . S
C1051 H1043 0.930 . S
C1051 C1052 1.355 . S
C1051 C1053 1.415 . S
C1052 C1051 1.355 . S
C1052 C1054 1.419 . S
C1053 C1048 1.425 . S
C1053 C1050 1.409 . S
C1053 C1051 1.415 . S
C1054 H1044 0.930 . S
C1054 C1052 1.419 . S
C1054 C1055 1.362 . S
C1055 H1045 0.930 . S
C1055 C1048 1.409 . S
C1055 C1054 1.362 . S
C487 C10 1.205 . S
C492 C330 1.175 . S
C503 C50 1.119 . S
C508 C370 1.133 . S
C519 C90 1.206 . S
C524 C410 1.179 . S
C535 C450 1.207 . S
C540 C130 1.184 . S
C551 C170 1.206 . S
C556 C250 1.198 . S
C567 C290 1.178 . S
C572 C210 1.206 . S
C583 C416 1.672 . S
C588 C16 1.703 . S
C599 C456 1.700 . S
C604 C56 1.669 . S
C615 C96 1.737 . S
C620 C256 1.717 . S
C631 C296 1.662 . S
C636 C136 1.693 . S
C647 C336 1.735 . S
C652 C176 1.712 . S
C663 C216 1.739 . S
C668 C376 1.739 . S
C679 C291 4.329 . S
C684 C11 4.313 . S
C695 C331 4.316 . S
C700 C51 4.316 . S
C711 C371 4.321 . S
C716 C91 4.313 . S
C727 C131 4.332 . S
C732 C411 4.332 . S
C743 C171 4.322 . S
C748 C451 4.313 . S
C759 C211 4.334 . S
C764 C251 4.329 . S
C775 C19 0.843 . S
C780 C139 0.812 . S
C791 C59 0.831 . S
C796 C179 0.833 . S
C807 C99 0.686 . S
C812 C219 0.771 . S
C823 C379 0.765 . S
C828 C259 0.839 . S
C839 C299 0.737 . S
C844 C419 0.824 . S
C855 C459 0.726 . S
C860 C339 0.675 . S
C871 C287 0.674 . S
C876 C7 0.671 . S
C887 C327 0.703 . S
C892 C47 0.664 . S
C903 C87 0.857 . S
C908 C367 0.789 . S
C919 C407 0.698 . S
C924 C127 0.664 . S
C935 C447 0.675 . S
C940 C167 0.671 . S
C951 C207 0.672 . S
C956 C247 0.673 . S
C967 C2 4.757 . S
C972 C402 4.761 . S
C983 C42 4.763 . S
C988 C442 4.758 1_556 S
C999 C82 4.762 1_554 S
C1004 C242 4.762 . S
C1015 C122 4.758 . S
C1020 C282 4.759 . S
C1031 C162 4.757 . S
C1036 C322 4.760 1_556 S
C1047 C362 4.760 . S
C1052 C202 4.757 1_554 S
