# Generated by pormake.
# Topology mer, (4)-cn, num edge types: 1
# Building blocks:
#     Node 0, Type 0, BuildingBlock: KUFVIS_clean_sbu_0, # of connection points: 4
#     Node 1, Type 0, BuildingBlock: KUFVIS_clean_sbu_0, # of connection points: 4
#     Node 2, Type 0, BuildingBlock: KUFVIS_clean_sbu_0, # of connection points: 4
#     Node 3, Type 0, BuildingBlock: KUFVIS_clean_sbu_0, # of connection points: 4
#     Node 4, Type 0, BuildingBlock: KUFVIS_clean_sbu_0, # of connection points: 4
#     Node 5, Type 0, BuildingBlock: KUFVIS_clean_sbu_0, # of connection points: 4
#     Node 6, Type 0, BuildingBlock: KUFVIS_clean_sbu_0, # of connection points: 4
#     Node 7, Type 0, BuildingBlock: KUFVIS_clean_sbu_0, # of connection points: 4
#     Node 8, Type 0, BuildingBlock: KUFVIS_clean_sbu_0, # of connection points: 4
#     Node 9, Type 0, BuildingBlock: KUFVIS_clean_sbu_0, # of connection points: 4
#     Node 10, Type 0, BuildingBlock: KUFVIS_clean_sbu_0, # of connection points: 4
#     Node 11, Type 0, BuildingBlock: KUFVIS_clean_sbu_0, # of connection points: 4
#     Node 12, Type 0, BuildingBlock: KUFVIS_clean_sbu_0, # of connection points: 4
#     Node 13, Type 0, BuildingBlock: KUFVIS_clean_sbu_0, # of connection points: 4
#     Node 14, Type 0, BuildingBlock: KUFVIS_clean_sbu_0, # of connection points: 4
#     Node 15, Type 0, BuildingBlock: KUFVIS_clean_sbu_0, # of connection points: 4
#     Node 16, Type 0, BuildingBlock: KUFVIS_clean_sbu_0, # of connection points: 4
#     Node 17, Type 0, BuildingBlock: KUFVIS_clean_sbu_0, # of connection points: 4
#     Node 18, Type 0, BuildingBlock: KUFVIS_clean_sbu_0, # of connection points: 4
#     Node 19, Type 0, BuildingBlock: KUFVIS_clean_sbu_0, # of connection points: 4
#     Node 20, Type 0, BuildingBlock: KUFVIS_clean_sbu_0, # of connection points: 4
#     Node 21, Type 0, BuildingBlock: KUFVIS_clean_sbu_0, # of connection points: 4
#     Node 22, Type 0, BuildingBlock: KUFVIS_clean_sbu_0, # of connection points: 4
#     Node 23, Type 0, BuildingBlock: KUFVIS_clean_sbu_0, # of connection points: 4
#     Node 24, Type 0, BuildingBlock: KUFVIS_clean_sbu_0, # of connection points: 4
#     Node 25, Type 0, BuildingBlock: KUFVIS_clean_sbu_0, # of connection points: 4
#     Node 26, Type 0, BuildingBlock: KUFVIS_clean_sbu_0, # of connection points: 4
#     Node 27, Type 0, BuildingBlock: KUFVIS_clean_sbu_0, # of connection points: 4
#     Node 28, Type 0, BuildingBlock: KUFVIS_clean_sbu_0, # of connection points: 4
#     Node 29, Type 0, BuildingBlock: KUFVIS_clean_sbu_0, # of connection points: 4
#     Node 30, Type 0, BuildingBlock: KUFVIS_clean_sbu_0, # of connection points: 4
#     Node 31, Type 0, BuildingBlock: KUFVIS_clean_sbu_0, # of connection points: 4
#     Edge 32, Type (0, 0), BuildingBlock: XUDNAN_clean_linker_2, # of connection points: 2
#     Edge 33, Type (0, 0), BuildingBlock: XUDNAN_clean_linker_2, # of connection points: 2
#     Edge 34, Type (0, 0), BuildingBlock: XUDNAN_clean_linker_2, # of connection points: 2
#     Edge 35, Type (0, 0), BuildingBlock: XUDNAN_clean_linker_2, # of connection points: 2
#     Edge 36, Type (0, 0), BuildingBlock: XUDNAN_clean_linker_2, # of connection points: 2
#     Edge 37, Type (0, 0), BuildingBlock: XUDNAN_clean_linker_2, # of connection points: 2
#     Edge 38, Type (0, 0), BuildingBlock: XUDNAN_clean_linker_2, # of connection points: 2
#     Edge 39, Type (0, 0), BuildingBlock: XUDNAN_clean_linker_2, # of connection points: 2
#     Edge 40, Type (0, 0), BuildingBlock: XUDNAN_clean_linker_2, # of connection points: 2
#     Edge 41, Type (0, 0), BuildingBlock: XUDNAN_clean_linker_2, # of connection points: 2
#     Edge 42, Type (0, 0), BuildingBlock: XUDNAN_clean_linker_2, # of connection points: 2
#     Edge 43, Type (0, 0), BuildingBlock: XUDNAN_clean_linker_2, # of connection points: 2
#     Edge 44, Type (0, 0), BuildingBlock: XUDNAN_clean_linker_2, # of connection points: 2
#     Edge 45, Type (0, 0), BuildingBlock: XUDNAN_clean_linker_2, # of connection points: 2
#     Edge 46, Type (0, 0), BuildingBlock: XUDNAN_clean_linker_2, # of connection points: 2
#     Edge 47, Type (0, 0), BuildingBlock: XUDNAN_clean_linker_2, # of connection points: 2
#     Edge 48, Type (0, 0), BuildingBlock: XUDNAN_clean_linker_2, # of connection points: 2
#     Edge 49, Type (0, 0), BuildingBlock: XUDNAN_clean_linker_2, # of connection points: 2
#     Edge 50, Type (0, 0), BuildingBlock: XUDNAN_clean_linker_2, # of connection points: 2
#     Edge 51, Type (0, 0), BuildingBlock: XUDNAN_clean_linker_2, # of connection points: 2
#     Edge 52, Type (0, 0), BuildingBlock: XUDNAN_clean_linker_2, # of connection points: 2
#     Edge 53, Type (0, 0), BuildingBlock: XUDNAN_clean_linker_2, # of connection points: 2
#     Edge 54, Type (0, 0), BuildingBlock: XUDNAN_clean_linker_2, # of connection points: 2
#     Edge 55, Type (0, 0), BuildingBlock: XUDNAN_clean_linker_2, # of connection points: 2
#     Edge 56, Type (0, 0), BuildingBlock: XUDNAN_clean_linker_2, # of connection points: 2
#     Edge 57, Type (0, 0), BuildingBlock: XUDNAN_clean_linker_2, # of connection points: 2
#     Edge 58, Type (0, 0), BuildingBlock: XUDNAN_clean_linker_2, # of connection points: 2
#     Edge 59, Type (0, 0), BuildingBlock: XUDNAN_clean_linker_2, # of connection points: 2
#     Edge 60, Type (0, 0), BuildingBlock: XUDNAN_clean_linker_2, # of connection points: 2
#     Edge 61, Type (0, 0), BuildingBlock: XUDNAN_clean_linker_2, # of connection points: 2
#     Edge 62, Type (0, 0), BuildingBlock: XUDNAN_clean_linker_2, # of connection points: 2
#     Edge 63, Type (0, 0), BuildingBlock: XUDNAN_clean_linker_2, # of connection points: 2
#     Edge 64, Type (0, 0), BuildingBlock: XUDNAN_clean_linker_2, # of connection points: 2
#     Edge 65, Type (0, 0), BuildingBlock: XUDNAN_clean_linker_2, # of connection points: 2
#     Edge 66, Type (0, 0), BuildingBlock: XUDNAN_clean_linker_2, # of connection points: 2
#     Edge 67, Type (0, 0), BuildingBlock: XUDNAN_clean_linker_2, # of connection points: 2
#     Edge 68, Type (0, 0), BuildingBlock: XUDNAN_clean_linker_2, # of connection points: 2
#     Edge 69, Type (0, 0), BuildingBlock: XUDNAN_clean_linker_2, # of connection points: 2
#     Edge 70, Type (0, 0), BuildingBlock: XUDNAN_clean_linker_2, # of connection points: 2
#     Edge 71, Type (0, 0), BuildingBlock: XUDNAN_clean_linker_2, # of connection points: 2
#     Edge 72, Type (0, 0), BuildingBlock: XUDNAN_clean_linker_2, # of connection points: 2
#     Edge 73, Type (0, 0), BuildingBlock: XUDNAN_clean_linker_2, # of connection points: 2
#     Edge 74, Type (0, 0), BuildingBlock: XUDNAN_clean_linker_2, # of connection points: 2
#     Edge 75, Type (0, 0), BuildingBlock: XUDNAN_clean_linker_2, # of connection points: 2
#     Edge 76, Type (0, 0), BuildingBlock: XUDNAN_clean_linker_2, # of connection points: 2
#     Edge 77, Type (0, 0), BuildingBlock: XUDNAN_clean_linker_2, # of connection points: 2
#     Edge 78, Type (0, 0), BuildingBlock: XUDNAN_clean_linker_2, # of connection points: 2
#     Edge 79, Type (0, 0), BuildingBlock: XUDNAN_clean_linker_2, # of connection points: 2
#     Edge 80, Type (0, 0), BuildingBlock: XUDNAN_clean_linker_2, # of connection points: 2
#     Edge 81, Type (0, 0), BuildingBlock: XUDNAN_clean_linker_2, # of connection points: 2
#     Edge 82, Type (0, 0), BuildingBlock: XUDNAN_clean_linker_2, # of connection points: 2
#     Edge 83, Type (0, 0), BuildingBlock: XUDNAN_clean_linker_2, # of connection points: 2
#     Edge 84, Type (0, 0), BuildingBlock: XUDNAN_clean_linker_2, # of connection points: 2
#     Edge 85, Type (0, 0), BuildingBlock: XUDNAN_clean_linker_2, # of connection points: 2
#     Edge 86, Type (0, 0), BuildingBlock: XUDNAN_clean_linker_2, # of connection points: 2
#     Edge 87, Type (0, 0), BuildingBlock: XUDNAN_clean_linker_2, # of connection points: 2
#     Edge 88, Type (0, 0), BuildingBlock: XUDNAN_clean_linker_2, # of connection points: 2
#     Edge 89, Type (0, 0), BuildingBlock: XUDNAN_clean_linker_2, # of connection points: 2
#     Edge 90, Type (0, 0), BuildingBlock: XUDNAN_clean_linker_2, # of connection points: 2
#     Edge 91, Type (0, 0), BuildingBlock: XUDNAN_clean_linker_2, # of connection points: 2
#     Edge 92, Type (0, 0), BuildingBlock: XUDNAN_clean_linker_2, # of connection points: 2
#     Edge 93, Type (0, 0), BuildingBlock: XUDNAN_clean_linker_2, # of connection points: 2
#     Edge 94, Type (0, 0), BuildingBlock: XUDNAN_clean_linker_2, # of connection points: 2
#     Edge 95, Type (0, 0), BuildingBlock: XUDNAN_clean_linker_2, # of connection points: 2
# Relax obj value: 0.090
# Max RMSD: 0.140
# Mean RMSD: 0.135
data_MOF--net-mer--node1-KUFVIS_clean_sbu_0--edge1-XUDNAN_clean_linker_2
_symmetry_space_group_name_H-M    P1
_symmetry_Int_Tables_number       1
_symmetry_cell_setting            triclinic
loop_
_symmetry_equiv_pos_as_xyz
'x, y, z'
_cell_length_a     64.419331
_cell_length_b     63.731793
_cell_length_c     51.849869
_cell_angle_alpha  90.009803
_cell_angle_beta   90.006044
_cell_angle_gamma 89.994439
loop_
_atom_site_label
_atom_site_type_symbol
_atom_site_fract_x
_atom_site_fract_y
_atom_site_fract_z
_atom_type_partial_charge
Mn0 Mn 0.10753 0.27266 0.35922 0.0
Mn1 Mn 0.15623 0.28863 0.3734 0.0
C2 C 0.11955 0.27092 0.40131 0.0
C3 C 0.07276 0.28098 0.35245 0.0
C4 C 0.14632 0.24628 0.34988 0.0
O5 O 0.11591 0.2887 0.32681 0.0
O6 O 0.14721 0.29993 0.33982 0.0
C7 C 0.14726 0.33394 0.37907 0.0
N8 N 0.15512 0.31577 0.38887 0.0
C9 C 0.16951 0.33387 0.42536 0.0
C10 C 0.16159 0.35281 0.41572 0.0
C11 C 0.1502 0.35279 0.3926 0.0
C12 C 0.16533 0.31547 0.41159 0.0
H13 H 0.13899 0.33406 0.36095 0.0
C14 C 0.13247 0.29928 0.32338 0.0
O15 O 0.08082 0.264 0.34284 0.0
O16 O 0.08491 0.29305 0.36578 0.0
N17 N 0.16769 0.27936 0.40544 0.0
C18 C 0.17493 0.25992 0.4117 0.0
C19 C 0.18639 0.25716 0.43447 0.0
C20 C 0.19123 0.27459 0.44987 0.0
C21 C 0.18431 0.29457 0.44251 0.0
C22 C 0.17219 0.29622 0.42023 0.0
H23 H 0.17217 0.24668 0.3993 0.0
O24 O 0.10349 0.26015 0.39413 0.0
O25 O 0.1276 0.28327 0.38406 0.0
O26 O 0.12661 0.24813 0.34918 0.0
O27 O 0.15865 0.26045 0.35813 0.0
C28 C 0.18976 0.31301 0.45575 0.0
C29 C 0.18201 0.33261 0.44757 0.0
H30 H 0.1643 0.36745 0.42578 0.0
H31 H 0.14408 0.36734 0.38498 0.0
H32 H 0.19198 0.24174 0.43975 0.0
H33 H 0.20058 0.2725 0.46704 0.0
H34 H 0.20026 0.3123 0.47195 0.0
H35 H 0.1861 0.34666 0.45818 0.0
Mn36 Mn 0.72275 0.11361 0.3499 0.0
Mn37 Mn 0.76918 0.09297 0.36662 0.0
C38 C 0.75152 0.13509 0.35238 0.0
C39 C 0.69783 0.12194 0.31908 0.0
C40 C 0.73515 0.10251 0.40519 0.0
O41 O 0.71814 0.08236 0.34546 0.0
O42 O 0.75007 0.07016 0.35495 0.0
C43 C 0.78263 0.07878 0.3149 0.0
N44 N 0.78617 0.09027 0.33661 0.0
C45 C 0.81914 0.10215 0.32043 0.0
C46 C 0.81592 0.09033 0.29796 0.0
C47 C 0.79757 0.07863 0.29517 0.0
C48 C 0.80375 0.1016 0.33948 0.0
H49 H 0.76852 0.06982 0.31267 0.0
C50 C 0.73115 0.06741 0.348 0.0
O51 O 0.6929 0.11963 0.34318 0.0
O52 O 0.7171 0.11876 0.31283 0.0
N53 N 0.78933 0.11292 0.37819 0.0
C54 C 0.78953 0.12435 0.40041 0.0
C55 C 0.80659 0.13732 0.40587 0.0
C56 C 0.8233 0.13833 0.38853 0.0
C57 C 0.82286 0.12623 0.36594 0.0
C58 C 0.80552 0.11344 0.36164 0.0
H59 H 0.77668 0.12376 0.41374 0.0
O60 O 0.73295 0.14287 0.35365 0.0
O61 O 0.75282 0.11483 0.34912 0.0
O62 O 0.7222 0.10996 0.38901 0.0
O63 O 0.75307 0.09561 0.39891 0.0
C64 C 0.83872 0.12673 0.34723 0.0
C65 C 0.83684 0.11473 0.32447 0.0
H66 H 0.82736 0.09026 0.28265 0.0
H67 H 0.79493 0.06956 0.27784 0.0
H68 H 0.80681 0.14656 0.42338 0.0
H69 H 0.83631 0.14856 0.39266 0.0
H70 H 0.85227 0.13654 0.34997 0.0
H71 H 0.849 0.11547 0.31008 0.0
Mn72 Mn 0.89263 0.72536 0.35893 0.0
Mn73 Mn 0.85396 0.6925 0.37582 0.0
C74 C 0.88584 0.71948 0.40227 0.0
C75 C 0.92721 0.72985 0.34713 0.0
C76 C 0.84681 0.73685 0.35621 0.0
O77 O 0.88637 0.70962 0.32544 0.0
O78 O 0.86313 0.68623 0.34029 0.0
C79 C 0.87726 0.65251 0.37613 0.0
N80 N 0.86503 0.66673 0.38852 0.0
C81 C 0.86413 0.64548 0.42681 0.0
C82 C 0.8766 0.63052 0.41442 0.0
C83 C 0.88322 0.63407 0.38898 0.0
C84 C 0.8585 0.66344 0.41293 0.0
H85 H 0.88245 0.65523 0.35661 0.0
C86 C 0.8746 0.6937 0.32237 0.0
O87 O 0.91322 0.74365 0.34092 0.0
O88 O 0.92099 0.71348 0.35978 0.0
N89 N 0.84362 0.69665 0.40991 0.0
C90 C 0.83311 0.71341 0.41967 0.0
C91 C 0.82627 0.71287 0.44534 0.0
C92 C 0.83024 0.69511 0.46057 0.0
C93 C 0.84076 0.6779 0.44997 0.0
C94 C 0.84707 0.67927 0.42423 0.0
H95 H 0.83017 0.72714 0.40804 0.0
O96 O 0.89619 0.73591 0.39504 0.0
O97 O 0.88013 0.70676 0.38393 0.0
O98 O 0.8658 0.74248 0.35483 0.0
O99 O 0.84095 0.71856 0.36315 0.0
C100 C 0.84597 0.65979 0.46418 0.0
C101 C 0.85757 0.64357 0.4526 0.0
H102 H 0.88138 0.61637 0.42436 0.0
H103 H 0.89294 0.62266 0.37933 0.0
H104 H 0.81813 0.72619 0.45344 0.0
H105 H 0.82545 0.69501 0.48047 0.0
H106 H 0.84163 0.65837 0.48419 0.0
H107 H 0.86176 0.62991 0.46389 0.0
Mn108 Mn 0.28244 0.87796 0.35039 0.0
Mn109 Mn 0.23542 0.89911 0.36335 0.0
C110 C 0.25454 0.85616 0.35729 0.0
C111 C 0.30742 0.86786 0.32063 0.0
C112 C 0.26852 0.89315 0.40399 0.0
O113 O 0.28672 0.90847 0.34139 0.0
O114 O 0.25511 0.92103 0.35087 0.0
C115 C 0.22541 0.90926 0.30904 0.0
N116 N 0.22044 0.89941 0.33153 0.0
C117 C 0.18838 0.88667 0.31362 0.0
C118 C 0.19312 0.89673 0.29031 0.0
C119 C 0.21177 0.90798 0.28797 0.0
C120 C 0.20278 0.88814 0.33378 0.0
H121 H 0.23966 0.91804 0.30718 0.0
C122 C 0.27382 0.92347 0.34313 0.0
O123 O 0.31248 0.87219 0.34429 0.0
O124 O 0.288 0.8696 0.31435 0.0
N125 N 0.21409 0.88063 0.37541 0.0
C126 C 0.21104 0.8732 0.39976 0.0
C127 C 0.19303 0.86168 0.40541 0.0
C128 C 0.1779 0.85867 0.38627 0.0
C129 C 0.18083 0.86744 0.36175 0.0
C130 C 0.19929 0.87842 0.35711 0.0
H131 H 0.22244 0.87572 0.41465 0.0
O132 O 0.27336 0.84909 0.3586 0.0
O133 O 0.25236 0.87574 0.35033 0.0
O134 O 0.28232 0.88565 0.3888 0.0
O135 O 0.25022 0.89844 0.39678 0.0
C136 C 0.16593 0.86613 0.34192 0.0
C137 C 0.16982 0.87551 0.31777 0.0
H138 H 0.18252 0.89598 0.27411 0.0
H139 H 0.21555 0.91577 0.27003 0.0
H140 H 0.19074 0.85527 0.42453 0.0
H141 H 0.16395 0.84991 0.39074 0.0
H142 H 0.15144 0.85789 0.34502 0.0
H143 H 0.15831 0.87424 0.30261 0.0
Mn144 Mn 0.10805 0.71088 0.6362 0.0
Mn145 Mn 0.15333 0.68786 0.62001 0.0
C146 C 0.11659 0.70639 0.59309 0.0
C147 C 0.07333 0.7065 0.6477 0.0
C148 C 0.14997 0.73343 0.63698 0.0
O149 O 0.11744 0.69784 0.67016 0.0
O150 O 0.14601 0.68122 0.65612 0.0
C151 C 0.139 0.64381 0.62271 0.0
N152 N 0.14792 0.65976 0.60919 0.0
C153 C 0.15384 0.63734 0.57265 0.0
C154 C 0.14482 0.62062 0.58619 0.0
C155 C 0.13726 0.62391 0.61128 0.0
C156 C 0.15487 0.65689 0.58489 0.0
H157 H 0.1333 0.64624 0.64206 0.0
C158 C 0.13289 0.68571 0.67377 0.0
O159 O 0.08319 0.72369 0.65343 0.0
O160 O 0.08362 0.69216 0.6355 0.0
N161 N 0.16267 0.69255 0.58552 0.0
C162 C 0.17101 0.71031 0.5752 0.0
C163 C 0.1796 0.70965 0.55036 0.0
C164 C 0.17977 0.69071 0.53653 0.0
C165 C 0.17124 0.67257 0.54761 0.0
C166 C 0.16298 0.67418 0.57249 0.0
H167 H 0.17125 0.72483 0.58591 0.0
O168 O 0.10241 0.71972 0.59986 0.0
O169 O 0.12481 0.69549 0.61164 0.0
O170 O 0.13024 0.73399 0.63985 0.0
O171 O 0.1599 0.7169 0.63029 0.0
C172 C 0.17092 0.65287 0.53522 0.0
C173 C 0.16197 0.63536 0.54757 0.0
H174 H 0.1436 0.60521 0.57751 0.0
H175 H 0.13024 0.6111 0.62185 0.0
H176 H 0.18631 0.72365 0.54202 0.0
H177 H 0.18676 0.69031 0.51759 0.0
H178 H 0.17764 0.65085 0.51631 0.0
H179 H 0.16164 0.62038 0.53771 0.0
Mn180 Mn 0.27407 0.11729 0.6494 0.0
Mn181 Mn 0.22704 0.09849 0.63224 0.0
C182 C 0.24642 0.14001 0.64577 0.0
C183 C 0.29893 0.12485 0.68046 0.0
C184 C 0.26231 0.10499 0.59437 0.0
O185 O 0.27693 0.08602 0.65522 0.0
O186 O 0.24448 0.07509 0.64607 0.0
C187 C 0.21118 0.08688 0.68386 0.0
N188 N 0.20905 0.09787 0.6615 0.0
C189 C 0.17645 0.11237 0.67552 0.0
C190 C 0.17824 0.10109 0.69864 0.0
C191 C 0.1957 0.08832 0.70284 0.0
C192 C 0.1923 0.11018 0.65724 0.0
H193 H 0.22462 0.0771 0.68719 0.0
C194 C 0.26317 0.0717 0.65362 0.0
O195 O 0.30407 0.12186 0.65654 0.0
O196 O 0.27943 0.12295 0.68638 0.0
N197 N 0.20857 0.11932 0.61879 0.0
C198 C 0.20995 0.1303 0.59631 0.0
C199 C 0.1941 0.14441 0.58963 0.0
C200 C 0.17695 0.147 0.60605 0.0
C201 C 0.17578 0.13539 0.62898 0.0
C202 C 0.19198 0.12144 0.63453 0.0
H203 H 0.22315 0.12849 0.58368 0.0
O204 O 0.26534 0.1469 0.64445 0.0
O205 O 0.24417 0.1199 0.64948 0.0
O206 O 0.27511 0.11269 0.61051 0.0
O207 O 0.24408 0.09889 0.60049 0.0
C208 C 0.15946 0.13752 0.64688 0.0
C209 C 0.1598 0.12603 0.67014 0.0
H210 H 0.16639 0.10228 0.7134 0.0
H211 H 0.19723 0.07966 0.72069 0.0
H212 H 0.19515 0.15334 0.57194 0.0
H213 H 0.16488 0.15809 0.601 0.0
H214 H 0.14675 0.14823 0.64315 0.0
H215 H 0.14733 0.12805 0.68392 0.0
Mn216 Mn 0.89377 0.28254 0.63597 0.0
Mn217 Mn 0.84546 0.29775 0.61847 0.0
C218 C 0.88452 0.28405 0.59265 0.0
C219 C 0.92804 0.2911 0.6461 0.0
C220 C 0.85549 0.25432 0.63887 0.0
O221 O 0.8829 0.29637 0.66886 0.0
O222 O 0.85168 0.30661 0.65411 0.0
C223 C 0.85284 0.34362 0.61881 0.0
N224 N 0.84658 0.32599 0.60616 0.0
C225 C 0.83883 0.34575 0.56782 0.0
C226 C 0.84508 0.36413 0.58047 0.0
C227 C 0.85216 0.36305 0.60607 0.0
C228 C 0.83983 0.32685 0.58152 0.0
H229 H 0.85835 0.34286 0.63846 0.0
C230 C 0.86547 0.30559 0.67181 0.0
O231 O 0.91989 0.27349 0.65361 0.0
O232 O 0.91617 0.30378 0.63327 0.0
N233 N 0.83712 0.29052 0.58426 0.0
C234 C 0.83151 0.27139 0.57489 0.0
C235 C 0.82403 0.26969 0.54961 0.0
C236 C 0.8222 0.28772 0.53428 0.0
C237 C 0.8275 0.30735 0.54455 0.0
C238 C 0.83458 0.30808 0.57003 0.0
H239 H 0.83254 0.2576 0.58669 0.0
O240 O 0.90011 0.27268 0.60006 0.0
O241 O 0.87497 0.29441 0.61066 0.0
O242 O 0.87493 0.257 0.64223 0.0
O243 O 0.8432 0.2684 0.63022 0.0
C244 C 0.8262 0.32617 0.53048 0.0
C245 C 0.83191 0.34537 0.54204 0.0
H246 H 0.84464 0.37914 0.57068 0.0
H247 H 0.85709 0.37716 0.61594 0.0
H248 H 0.81964 0.25451 0.54199 0.0
H249 H 0.81663 0.28625 0.51472 0.0
H250 H 0.82105 0.326 0.5107 0.0
H251 H 0.83101 0.35971 0.53089 0.0
Mn252 Mn 0.72582 0.88011 0.65073 0.0
Mn253 Mn 0.77475 0.89868 0.64519 0.0
C254 C 0.75323 0.85723 0.65417 0.0
C255 C 0.69701 0.87323 0.67599 0.0
C256 C 0.74748 0.88911 0.59907 0.0
O257 O 0.72177 0.91124 0.65478 0.0
O258 O 0.75464 0.92228 0.65013 0.0
C259 C 0.77844 0.91465 0.69865 0.0
N260 N 0.78586 0.90254 0.67906 0.0
C261 C 0.81546 0.89218 0.70434 0.0
C262 C 0.80822 0.90466 0.72471 0.0
C263 C 0.78959 0.91589 0.72187 0.0
C264 C 0.80369 0.89157 0.68164 0.0
H265 H 0.76414 0.92331 0.69659 0.0
C266 C 0.73526 0.92574 0.65384 0.0
O267 O 0.69511 0.87568 0.65123 0.0
O268 O 0.71533 0.87513 0.68597 0.0
N269 N 0.79642 0.87839 0.64078 0.0
C270 C 0.80055 0.86593 0.62006 0.0
C271 C 0.81848 0.8534 0.61997 0.0
C272 C 0.83203 0.85383 0.64117 0.0
C273 C 0.82748 0.86674 0.66232 0.0
C274 C 0.80948 0.87906 0.66119 0.0
H275 H 0.78997 0.86513 0.60406 0.0
O276 O 0.73474 0.85055 0.64871 0.0
O277 O 0.75525 0.87737 0.65832 0.0
O278 O 0.73129 0.88392 0.61186 0.0
O279 O 0.76463 0.89456 0.60958 0.0
C280 C 0.83978 0.86743 0.68477 0.0
C281 C 0.83374 0.88009 0.70579 0.0
H282 H 0.81675 0.90563 0.74268 0.0
H283 H 0.78385 0.92549 0.73755 0.0
H284 H 0.82177 0.84334 0.60368 0.0
H285 H 0.8457 0.84393 0.64118 0.0
H286 H 0.85373 0.85802 0.68623 0.0
H287 H 0.84318 0.88027 0.72309 0.0
Mn288 Mn 0.88812 0.71395 0.63457 0.0
Mn289 Mn 0.84232 0.69432 0.61463 0.0
C290 C 0.88 0.71313 0.59081 0.0
C291 C 0.92255 0.708 0.64612 0.0
C292 C 0.8472 0.73748 0.639 0.0
O293 O 0.87766 0.6983 0.66638 0.0
O294 O 0.84922 0.68307 0.64929 0.0
C295 C 0.85478 0.64982 0.60901 0.0
N296 N 0.84618 0.66751 0.59893 0.0
C297 C 0.83636 0.64935 0.56016 0.0
C298 C 0.8448 0.63081 0.57028 0.0
C299 C 0.85428 0.63111 0.59469 0.0
C300 C 0.83776 0.66759 0.57508 0.0
H301 H 0.86197 0.65002 0.62781 0.0
C302 C 0.86214 0.6859 0.66773 0.0
O303 O 0.91283 0.72474 0.65381 0.0
O304 O 0.91226 0.69484 0.63199 0.0
N305 N 0.8336 0.70347 0.58123 0.0
C306 C 0.82798 0.72304 0.57336 0.0
C307 C 0.81861 0.72568 0.54914 0.0
C308 C 0.81498 0.70814 0.53338 0.0
C309 C 0.82144 0.68821 0.54161 0.0
C310 C 0.83085 0.68661 0.56583 0.0
H311 H 0.83075 0.73652 0.5854 0.0
O312 O 0.89436 0.72556 0.5994 0.0
O313 O 0.87125 0.70123 0.60794 0.0
O314 O 0.86691 0.73721 0.64132 0.0
O315 O 0.83665 0.7222 0.62986 0.0
C316 C 0.81868 0.66981 0.52693 0.0
C317 C 0.82646 0.65046 0.53598 0.0
H318 H 0.8442 0.61631 0.55941 0.0
H319 H 0.86101 0.61692 0.60254 0.0
H320 H 0.81398 0.74115 0.54276 0.0
H321 H 0.80731 0.71022 0.51499 0.0
H322 H 0.81073 0.67034 0.50856 0.0
H323 H 0.8247 0.63653 0.52421 0.0
Mn324 Mn 0.27591 0.88788 0.63662 0.0
Mn325 Mn 0.29673 0.84648 0.60542 0.0
C326 C 0.27603 0.88714 0.59205 0.0
C327 C 0.28002 0.92074 0.65542 0.0
C328 C 0.2546 0.84542 0.63205 0.0
O329 O 0.29298 0.87332 0.66453 0.0
O330 O 0.30906 0.84873 0.6404 0.0
C331 C 0.34014 0.86116 0.60033 0.0
N332 N 0.32235 0.85394 0.58928 0.0
C333 C 0.3379 0.85437 0.54708 0.0
C334 C 0.35647 0.86159 0.55805 0.0
C335 C 0.35757 0.86507 0.58478 0.0
C336 C 0.32109 0.85064 0.56357 0.0
H337 H 0.341 0.86397 0.62084 0.0
C338 C 0.30628 0.85862 0.66165 0.0
O339 O 0.26441 0.9088 0.66145 0.0
O340 O 0.29352 0.91329 0.63932 0.0
N341 N 0.28636 0.84267 0.57115 0.0
C342 C 0.2669 0.83714 0.56341 0.0
C343 C 0.26297 0.83375 0.53711 0.0
C344 C 0.27908 0.83602 0.51906 0.0
C345 C 0.29899 0.84165 0.52748 0.0
C346 C 0.30204 0.84458 0.55398 0.0
H347 H 0.25447 0.83533 0.57718 0.0
O348 O 0.26317 0.89918 0.60432 0.0
O349 O 0.28855 0.87604 0.6062 0.0
O350 O 0.25388 0.86474 0.63845 0.0
O351 O 0.27022 0.83712 0.62077 0.0
C352 C 0.31582 0.84485 0.51058 0.0
C353 C 0.33525 0.85124 0.52037 0.0
H354 H 0.3699 0.86476 0.54611 0.0
H355 H 0.37179 0.8708 0.59336 0.0
H356 H 0.24755 0.82944 0.53075 0.0
H357 H 0.27595 0.83356 0.49875 0.0
H358 H 0.31389 0.84279 0.48998 0.0
H359 H 0.34798 0.85401 0.50715 0.0
Mn360 Mn 0.11361 0.28672 0.63095 0.0
Mn361 Mn 0.15959 0.30474 0.60886 0.0
C362 C 0.12171 0.2835 0.58752 0.0
C363 C 0.07915 0.29359 0.64195 0.0
C364 C 0.15464 0.26219 0.63434 0.0
O365 O 0.12394 0.30408 0.66136 0.0
O366 O 0.15374 0.31539 0.64394 0.0
C367 C 0.14533 0.3488 0.60523 0.0
N368 N 0.15476 0.33183 0.5944 0.0
C369 C 0.16366 0.35153 0.55653 0.0
C370 C 0.15456 0.36941 0.56751 0.0
C371 C 0.14506 0.36795 0.59183 0.0
C372 C 0.16287 0.33275 0.57047 0.0
H373 H 0.138 0.34769 0.62388 0.0
C374 C 0.14062 0.3147 0.66233 0.0
O375 O 0.08887 0.27744 0.65137 0.0
O376 O 0.08951 0.30568 0.62653 0.0
N377 N 0.16847 0.29685 0.57503 0.0
C378 C 0.17623 0.27809 0.56695 0.0
C379 C 0.18572 0.27663 0.54267 0.0
C380 C 0.18795 0.29468 0.52742 0.0
C381 C 0.18032 0.31396 0.53636 0.0
C382 C 0.17045 0.31429 0.56037 0.0
H383 H 0.17491 0.26429 0.57881 0.0
O384 O 0.10695 0.27252 0.59778 0.0
O385 O 0.13061 0.29719 0.60256 0.0
O386 O 0.13522 0.26383 0.63935 0.0
O387 O 0.16523 0.27648 0.62296 0.0
C388 C 0.18247 0.33299 0.52271 0.0
C389 C 0.17376 0.35165 0.53249 0.0
H390 H 0.15465 0.38427 0.55739 0.0
H391 H 0.13773 0.38158 0.60032 0.0
H392 H 0.19164 0.26171 0.53593 0.0
H393 H 0.19573 0.29348 0.50904 0.0
H394 H 0.19063 0.33353 0.50459 0.0
H395 H 0.17508 0.36601 0.52145 0.0
Mn396 Mn 0.72263 0.11009 0.63773 0.0
Mn397 Mn 0.70697 0.15363 0.60603 0.0
C398 C 0.72409 0.11149 0.59316 0.0
C399 C 0.71613 0.07709 0.65497 0.0
C400 C 0.74846 0.15016 0.63342 0.0
O401 O 0.70576 0.1253 0.66517 0.0
O402 O 0.6957 0.15335 0.64178 0.0
C403 C 0.6621 0.14356 0.60382 0.0
N404 N 0.68006 0.14886 0.59158 0.0
C405 C 0.66287 0.14945 0.55036 0.0
C406 C 0.64413 0.14431 0.56259 0.0
C407 C 0.64377 0.14127 0.58942 0.0
C408 C 0.68061 0.15163 0.56574 0.0
H409 H 0.66178 0.141 0.62439 0.0
C410 C 0.69583 0.14252 0.66262 0.0
O411 O 0.73198 0.08812 0.66243 0.0
O412 O 0.70352 0.08569 0.63859 0.0
N413 N 0.7162 0.156 0.57104 0.0
C414 C 0.73572 0.15951 0.562 0.0
C415 C 0.73889 0.16245 0.53547 0.0
C416 C 0.72197 0.16159 0.51844 0.0
C417 C 0.70198 0.15803 0.52817 0.0
C418 C 0.69973 0.15562 0.55489 0.0
H419 H 0.74876 0.15993 0.57489 0.0
O420 O 0.73578 0.09854 0.60583 0.0
O421 O 0.7119 0.12332 0.60687 0.0
O422 O 0.74598 0.13158 0.6419 0.0
O423 O 0.73508 0.15983 0.61962 0.0
C424 C 0.68426 0.15637 0.51238 0.0
C425 C 0.66472 0.15202 0.52346 0.0
H426 H 0.62999 0.1424 0.55154 0.0
H427 H 0.62942 0.13711 0.59897 0.0
H428 H 0.75438 0.16528 0.52819 0.0
H429 H 0.72452 0.16354 0.49793 0.0
H430 H 0.68554 0.15805 0.49166 0.0
H431 H 0.65127 0.15043 0.51109 0.0
Mn432 Mn 0.88638 0.28084 0.36234 0.0
Mn433 Mn 0.8391 0.30026 0.37667 0.0
C434 C 0.87648 0.28456 0.40485 0.0
C435 C 0.92132 0.28652 0.35294 0.0
C436 C 0.84611 0.255 0.36145 0.0
O437 O 0.8776 0.29381 0.32845 0.0
O438 O 0.84589 0.30517 0.3397 0.0
C439 C 0.84986 0.34504 0.36911 0.0
N440 N 0.8421 0.32944 0.38428 0.0
C441 C 0.83295 0.35409 0.41749 0.0
C442 C 0.84074 0.37043 0.40219 0.0
C443 C 0.84935 0.36585 0.37795 0.0
C444 C 0.83416 0.33362 0.40782 0.0
H445 H 0.85632 0.34165 0.35036 0.0
C446 C 0.86049 0.30282 0.32322 0.0
O447 O 0.91216 0.26919 0.3462 0.0
O448 O 0.91012 0.30043 0.36469 0.0
N449 N 0.82998 0.29746 0.41161 0.0
C450 C 0.82394 0.27984 0.42446 0.0
C451 C 0.81498 0.2817 0.44904 0.0
C452 C 0.81201 0.30167 0.45993 0.0
C453 C 0.81859 0.31955 0.44652 0.0
C454 C 0.82747 0.31671 0.42215 0.0
H455 H 0.82594 0.26452 0.41599 0.0
O456 O 0.89124 0.27175 0.39843 0.0
O457 O 0.86814 0.29537 0.38619 0.0
O458 O 0.86556 0.2567 0.35694 0.0
O459 O 0.83481 0.27012 0.36958 0.0
C460 C 0.8165 0.3401 0.45624 0.0
C461 C 0.82393 0.35733 0.4419 0.0
H462 H 0.84021 0.38653 0.40886 0.0
H463 H 0.85544 0.37836 0.36603 0.0
H464 H 0.81009 0.26782 0.45941 0.0
H465 H 0.80449 0.30312 0.47847 0.0
H466 H 0.80917 0.34292 0.47468 0.0
H467 H 0.8225 0.37301 0.44975 0.0
Mn468 Mn 0.7169 0.88173 0.37011 0.0
Mn469 Mn 0.69758 0.83833 0.39856 0.0
C470 C 0.72275 0.87649 0.4135 0.0
C471 C 0.71174 0.91601 0.35595 0.0
C472 C 0.736 0.83842 0.3646 0.0
O473 O 0.69681 0.86989 0.34351 0.0
O474 O 0.68136 0.84452 0.36683 0.0
C475 C 0.65626 0.85416 0.41404 0.0
N476 N 0.6748 0.84533 0.42045 0.0
C477 C 0.66374 0.83991 0.46423 0.0
C478 C 0.64449 0.84893 0.45814 0.0
C479 C 0.6408 0.85624 0.43298 0.0
C480 C 0.67871 0.83876 0.44473 0.0
H481 H 0.65326 0.85942 0.39459 0.0
C482 C 0.68316 0.85557 0.34632 0.0
O483 O 0.72611 0.90424 0.34598 0.0
O484 O 0.70003 0.90769 0.37353 0.0
N485 N 0.71158 0.83009 0.42947 0.0
C486 C 0.73097 0.82183 0.43219 0.0
C487 C 0.73739 0.81445 0.45643 0.0
C488 C 0.72357 0.81494 0.47737 0.0
C489 C 0.70348 0.82291 0.47389 0.0
C490 C 0.69815 0.83057 0.44948 0.0
H491 H 0.74151 0.82096 0.41603 0.0
O492 O 0.73364 0.88996 0.40056 0.0
O493 O 0.70778 0.86724 0.40097 0.0
O494 O 0.73766 0.85823 0.36167 0.0
O495 O 0.72115 0.82956 0.37676 0.0
C496 C 0.68841 0.82323 0.49357 0.0
C497 C 0.66859 0.83182 0.48879 0.0
H498 H 0.63243 0.85029 0.47261 0.0
H499 H 0.62599 0.86321 0.42812 0.0
H500 H 0.75287 0.80815 0.45888 0.0
H501 H 0.72849 0.80899 0.49596 0.0
H502 H 0.692 0.81717 0.51257 0.0
H503 H 0.65724 0.83227 0.5042 0.0
Mn504 Mn 0.1129 0.72372 0.36327 0.0
Mn505 Mn 0.15338 0.69211 0.37777 0.0
C506 C 0.1187 0.714 0.40556 0.0
C507 C 0.07866 0.72849 0.35017 0.0
C508 C 0.15777 0.73894 0.37004 0.0
O509 O 0.12079 0.71207 0.32832 0.0
O510 O 0.14828 0.69263 0.3399 0.0
C511 C 0.13287 0.65245 0.36209 0.0
N512 N 0.14289 0.66408 0.38029 0.0
C513 C 0.14098 0.6358 0.41095 0.0
C514 C 0.13077 0.62349 0.39248 0.0
C515 C 0.12665 0.63188 0.36796 0.0
C516 C 0.14678 0.65621 0.40399 0.0
H517 H 0.12959 0.65879 0.34322 0.0
C518 C 0.13575 0.69982 0.32291 0.0
O519 O 0.09247 0.74309 0.34697 0.0
O520 O 0.08486 0.71106 0.36056 0.0
N521 N 0.1605 0.68912 0.41337 0.0
C522 C 0.17083 0.70285 0.42886 0.0
C523 C 0.17616 0.69688 0.45402 0.0
C524 C 0.1712 0.67669 0.46278 0.0
C525 C 0.16121 0.66253 0.44629 0.0
C526 C 0.15639 0.66935 0.42135 0.0
H527 H 0.17508 0.71814 0.42202 0.0
O528 O 0.10769 0.73045 0.40009 0.0
O529 O 0.1256 0.70312 0.38602 0.0
O530 O 0.13896 0.74229 0.36354 0.0
O531 O 0.16492 0.72092 0.37636 0.0
C532 C 0.1557 0.64201 0.45369 0.0
C533 C 0.14551 0.62867 0.43605 0.0
H534 H 0.12594 0.60762 0.39694 0.0
H535 H 0.1187 0.62251 0.35362 0.0
H536 H 0.18423 0.70774 0.46654 0.0
H537 H 0.1753 0.67214 0.48208 0.0
H538 H 0.1591 0.63637 0.47294 0.0
H539 H 0.14122 0.61297 0.44199 0.0
Mn540 Mn 0.28221 0.10688 0.36235 0.0
Mn541 Mn 0.2951 0.151 0.39489 0.0
C542 C 0.27874 0.1083 0.40679 0.0
C543 C 0.29032 0.07424 0.34505 0.0
C544 C 0.25525 0.14623 0.36432 0.0
O545 O 0.29973 0.12277 0.33611 0.0
O546 O 0.30839 0.15086 0.36031 0.0
C547 C 0.33996 0.1422 0.40131 0.0
N548 N 0.32117 0.14698 0.41182 0.0
C549 C 0.33579 0.14821 0.45451 0.0
C550 C 0.35534 0.14355 0.4441 0.0
C551 C 0.35741 0.14045 0.41739 0.0
C552 C 0.31898 0.14981 0.43752 0.0
H553 H 0.34159 0.13967 0.38083 0.0
C554 C 0.30928 0.14013 0.33944 0.0
O555 O 0.27451 0.08495 0.33685 0.0
O556 O 0.30201 0.08291 0.36244 0.0
N557 N 0.28371 0.1533 0.42886 0.0
C558 C 0.26365 0.15679 0.43595 0.0
C559 C 0.25885 0.15996 0.46206 0.0
C560 C 0.2747 0.15946 0.48065 0.0
C561 C 0.29526 0.15604 0.47289 0.0
C562 C 0.29915 0.15336 0.44652 0.0
H563 H 0.25143 0.15721 0.4218 0.0
O564 O 0.26811 0.09487 0.39343 0.0
O565 O 0.29109 0.1205 0.39383 0.0
O566 O 0.25846 0.12755 0.35666 0.0
O567 O 0.26777 0.1565 0.37867 0.0
C568 C 0.31202 0.15491 0.49031 0.0
C569 C 0.33226 0.15093 0.48113 0.0
H570 H 0.36883 0.14209 0.45645 0.0
H571 H 0.37242 0.13668 0.40924 0.0
H572 H 0.24294 0.16276 0.46783 0.0
H573 H 0.27091 0.16166 0.50082 0.0
H574 H 0.30946 0.15679 0.51083 0.0
H575 H 0.34496 0.14978 0.49474 0.0
Mn576 Mn 0.61408 0.79044 0.86602 0.0
Mn577 Mn 0.65928 0.8142 0.8804 0.0
C578 C 0.62347 0.79487 0.9087 0.0
C579 C 0.57933 0.79476 0.85521 0.0
C580 C 0.65612 0.7689 0.86191 0.0
O581 O 0.62261 0.8038 0.83213 0.0
O582 O 0.65039 0.82254 0.84513 0.0
C583 C 0.64459 0.85818 0.88178 0.0
N584 N 0.65406 0.84167 0.8936 0.0
C585 C 0.66046 0.86213 0.93174 0.0
C586 C 0.65093 0.87941 0.91992 0.0
C587 C 0.64287 0.87739 0.89487 0.0
C588 C 0.66163 0.84336 0.9178 0.0
H589 H 0.63838 0.85669 0.86252 0.0
C590 C 0.63693 0.81717 0.82824 0.0
O591 O 0.58913 0.77758 0.84922 0.0
O592 O 0.58963 0.80899 0.8676 0.0
N593 N 0.66968 0.80788 0.91408 0.0
C594 C 0.67765 0.78949 0.92312 0.0
C595 C 0.68606 0.78874 0.94808 0.0
C596 C 0.68643 0.80694 0.96334 0.0
C597 C 0.67823 0.82572 0.95358 0.0
C598 C 0.67007 0.82551 0.92857 0.0
H599 H 0.67761 0.77549 0.91139 0.0
O600 O 0.6093 0.78135 0.9024 0.0
O601 O 0.63117 0.80587 0.8899 0.0
O602 O 0.63631 0.76769 0.86131 0.0
O603 O 0.66595 0.78573 0.86764 0.0
C604 C 0.67784 0.84465 0.96763 0.0
C605 C 0.66878 0.86277 0.95684 0.0
H606 H 0.64961 0.89427 0.92994 0.0
H607 H 0.63539 0.89062 0.88565 0.0
H608 H 0.69235 0.77419 0.95549 0.0
H609 H 0.69306 0.80628 0.9825 0.0
H610 H 0.6845 0.84551 0.98672 0.0
H611 H 0.66832 0.87713 0.96802 0.0
Mn612 Mn 0.23064 0.62456 0.85172 0.0
Mn613 Mn 0.2791 0.60529 0.86002 0.0
C614 C 0.2586 0.64692 0.84959 0.0
C615 C 0.2028 0.6315 0.82456 0.0
C616 C 0.25003 0.61486 0.90446 0.0
O617 O 0.22633 0.5934 0.84796 0.0
O618 O 0.25905 0.58203 0.85329 0.0
C619 C 0.28506 0.58999 0.80659 0.0
N620 N 0.29164 0.60185 0.82687 0.0
C621 C 0.3221 0.61277 0.80361 0.0
C622 C 0.31572 0.60056 0.78255 0.0
C623 C 0.29708 0.58918 0.78403 0.0
C624 C 0.30947 0.61296 0.82559 0.0
H625 H 0.27073 0.58123 0.80762 0.0
C626 C 0.23973 0.57879 0.84901 0.0
O627 O 0.20007 0.6297 0.84929 0.0
O628 O 0.22149 0.62905 0.81583 0.0
N629 N 0.30061 0.6254 0.86632 0.0
C630 C 0.30405 0.63726 0.88775 0.0
C631 C 0.32199 0.6497 0.88931 0.0
C632 C 0.3362 0.64989 0.86879 0.0
C633 C 0.3324 0.63751 0.84694 0.0
C634 C 0.3144 0.62517 0.84666 0.0
H635 H 0.29301 0.63753 0.9033 0.0
O636 O 0.24007 0.65406 0.8538 0.0
O637 O 0.26032 0.62673 0.84587 0.0
O638 O 0.23463 0.62093 0.8908 0.0
O639 O 0.26742 0.60895 0.89499 0.0
C640 C 0.34553 0.63727 0.82522 0.0
C641 C 0.34035 0.62496 0.80353 0.0
H642 H 0.32493 0.59992 0.76509 0.0
H643 H 0.29201 0.57979 0.76781 0.0
H644 H 0.32481 0.65915 0.90627 0.0
H645 H 0.34988 0.65973 0.86992 0.0
H646 H 0.3595 0.64672 0.82484 0.0
H647 H 0.35043 0.6251 0.78682 0.0
Mn648 Mn 0.38939 0.21514 0.86602 0.0
Mn649 Mn 0.34248 0.19631 0.88278 0.0
C650 C 0.38009 0.2132 0.90922 0.0
C651 C 0.42393 0.20834 0.85559 0.0
C652 C 0.3493 0.23982 0.86025 0.0
O653 O 0.37929 0.2006 0.83318 0.0
O654 O 0.35042 0.18519 0.84865 0.0
C655 C 0.35232 0.15118 0.88837 0.0
N656 N 0.34471 0.16934 0.89848 0.0
C657 C 0.33367 0.15171 0.93711 0.0
C658 C 0.34136 0.13279 0.92714 0.0
C659 C 0.35086 0.13256 0.90274 0.0
C660 C 0.33591 0.16982 0.92212 0.0
H661 H 0.35932 0.15093 0.86944 0.0
C662 C 0.36376 0.18829 0.83076 0.0
O663 O 0.41495 0.2256 0.84827 0.0
O664 O 0.41282 0.19514 0.86865 0.0
N665 N 0.33282 0.2058 0.91559 0.0
C666 C 0.32711 0.22553 0.92286 0.0
C667 C 0.31765 0.22859 0.94694 0.0
C668 C 0.31376 0.2113 0.96302 0.0
C669 C 0.31982 0.19116 0.95512 0.0
C670 C 0.32945 0.18912 0.93109 0.0
H671 H 0.32958 0.2388 0.9103 0.0
O672 O 0.3951 0.2254 0.90191 0.0
O673 O 0.37139 0.20219 0.89118 0.0
O674 O 0.36912 0.23954 0.85987 0.0
O675 O 0.33834 0.22416 0.86731 0.0
C676 C 0.31642 0.17296 0.96993 0.0
C677 C 0.32366 0.15331 0.96118 0.0
H678 H 0.34006 0.11835 0.93804 0.0
H679 H 0.35684 0.11802 0.89491 0.0
H680 H 0.31306 0.24418 0.95293 0.0
H681 H 0.30604 0.21373 0.9813 0.0
H682 H 0.30805 0.17387 0.98794 0.0
H683 H 0.32126 0.13951 0.973 0.0
Mn684 Mn 0.77297 0.38168 0.84948 0.0
Mn685 Mn 0.72653 0.40182 0.86707 0.0
C686 C 0.74455 0.35993 0.85292 0.0
C687 C 0.79766 0.37319 0.81855 0.0
C688 C 0.76138 0.39341 0.9048 0.0
O689 O 0.77698 0.41289 0.84415 0.0
O690 O 0.74511 0.42475 0.8546 0.0
C691 C 0.71198 0.41532 0.81553 0.0
N692 N 0.70901 0.40395 0.83745 0.0
C693 C 0.676 0.39133 0.82225 0.0
C694 C 0.67864 0.40301 0.79956 0.0
C695 C 0.69673 0.41502 0.79617 0.0
C696 C 0.69167 0.39233 0.84091 0.0
H697 H 0.72589 0.42452 0.81283 0.0
C698 C 0.76383 0.42767 0.84694 0.0
O699 O 0.80281 0.3761 0.84247 0.0
O700 O 0.77828 0.3759 0.81249 0.0
N701 N 0.70691 0.38163 0.8794 0.0
C702 C 0.70727 0.37042 0.90178 0.0
C703 C 0.69053 0.35721 0.90784 0.0
C704 C 0.67358 0.35572 0.89091 0.0
C705 C 0.67344 0.3676 0.86814 0.0
C706 C 0.69047 0.38066 0.86325 0.0
H707 H 0.72031 0.37139 0.91479 0.0
O708 O 0.76321 0.35236 0.85414 0.0
O709 O 0.74296 0.38011 0.84937 0.0
O710 O 0.77411 0.38601 0.88837 0.0
O711 O 0.74318 0.39981 0.89901 0.0
C712 C 0.65731 0.36663 0.84983 0.0
C713 C 0.6586 0.37846 0.82689 0.0
H714 H 0.66696 0.40273 0.78453 0.0
H715 H 0.69892 0.42399 0.77867 0.0
H716 H 0.69075 0.34814 0.92547 0.0
H717 H 0.66082 0.3453 0.89549 0.0
H718 H 0.64398 0.3566 0.85303 0.0
H719 H 0.64623 0.37738 0.8128 0.0
Mn720 Mn 0.6119 0.22035 0.13636 0.0
Mn721 Mn 0.65795 0.19926 0.11911 0.0
C722 C 0.62185 0.2204 0.09336 0.0
C723 C 0.57689 0.21522 0.14605 0.0
C724 C 0.65358 0.2428 0.14242 0.0
O725 O 0.62049 0.20411 0.16861 0.0
O726 O 0.64936 0.18888 0.15333 0.0
C727 C 0.6442 0.15516 0.11404 0.0
N728 N 0.65348 0.17244 0.10375 0.0
C729 C 0.66428 0.15312 0.0663 0.0
C730 C 0.65483 0.13509 0.07643 0.0
C731 C 0.64455 0.13618 0.10029 0.0
C732 C 0.66269 0.17178 0.0804 0.0
H733 H 0.63675 0.15584 0.13269 0.0
C734 C 0.63583 0.19163 0.171 0.0
O735 O 0.58678 0.23162 0.15445 0.0
O736 O 0.58731 0.20196 0.13219 0.0
N737 N 0.66895 0.20743 0.0864 0.0
C738 C 0.67781 0.22607 0.07969 0.0
C739 C 0.68859 0.2277 0.05625 0.0
C740 C 0.69101 0.20992 0.04055 0.0
C741 C 0.68237 0.19073 0.04827 0.0
C742 C 0.67113 0.19024 0.07135 0.0
H743 H 0.67672 0.23959 0.09216 0.0
O744 O 0.60716 0.23264 0.10146 0.0
O745 O 0.62961 0.20758 0.11032 0.0
O746 O 0.63377 0.24312 0.14414 0.0
O747 O 0.66381 0.22697 0.13418 0.0
C748 C 0.68516 0.17188 0.03452 0.0
C749 C 0.67575 0.15318 0.0432 0.0
H750 H 0.65552 0.12031 0.06615 0.0
H751 H 0.63726 0.12233 0.10828 0.0
H752 H 0.69546 0.2425 0.05061 0.0
H753 H 0.69984 0.21113 0.02284 0.0
H754 H 0.69467 0.17151 0.01738 0.0
H755 H 0.67773 0.13889 0.03217 0.0
Mn756 Mn 0.78108 0.62591 0.1478 0.0
Mn757 Mn 0.73241 0.6065 0.14223 0.0
C758 C 0.75324 0.64854 0.14908 0.0
C759 C 0.80964 0.63329 0.17362 0.0
C760 C 0.75905 0.61725 0.096 0.0
O761 O 0.78578 0.59471 0.15185 0.0
O762 O 0.75324 0.58355 0.14559 0.0
C763 C 0.73197 0.59034 0.19586 0.0
N764 N 0.72348 0.6027 0.17717 0.0
C765 C 0.69741 0.61537 0.20655 0.0
C766 C 0.70586 0.60274 0.22604 0.0
C767 C 0.72325 0.59021 0.22067 0.0
C768 C 0.70701 0.61514 0.18231 0.0
H769 H 0.74535 0.58066 0.19197 0.0
C770 C 0.77249 0.58011 0.14978 0.0
O771 O 0.81169 0.63109 0.14883 0.0
O772 O 0.79122 0.63086 0.18322 0.0
N773 N 0.70959 0.62566 0.13947 0.0
C774 C 0.70081 0.63339 0.11755 0.0
C775 C 0.68264 0.64548 0.11909 0.0
C776 C 0.67294 0.64846 0.14302 0.0
C777 C 0.68115 0.63873 0.16501 0.0
C778 C 0.69947 0.62708 0.16226 0.0
H779 H 0.7076 0.63024 0.09904 0.0
O780 O 0.77188 0.65548 0.14544 0.0
O781 O 0.75146 0.62851 0.15402 0.0
O782 O 0.77543 0.62186 0.1089 0.0
O783 O 0.74169 0.6117 0.10623 0.0
C784 C 0.67134 0.63935 0.18928 0.0
C785 C 0.6796 0.62786 0.21012 0.0
H786 H 0.69904 0.60244 0.24513 0.0
H787 H 0.72988 0.58042 0.2356 0.0
H788 H 0.67596 0.6522 0.10181 0.0
H789 H 0.65878 0.65758 0.14411 0.0
H790 H 0.65724 0.64834 0.19203 0.0
H791 H 0.67184 0.62834 0.22865 0.0
Mn792 Mn 0.38927 0.77273 0.13427 0.0
Mn793 Mn 0.3464 0.79987 0.1171 0.0
C794 C 0.3797 0.77471 0.09122 0.0
C795 C 0.42446 0.77168 0.1447 0.0
C796 C 0.34494 0.75589 0.1393 0.0
O797 O 0.38292 0.78968 0.1667 0.0
O798 O 0.35576 0.8081 0.15189 0.0
C799 C 0.36538 0.84206 0.11414 0.0
N800 N 0.3542 0.82635 0.10301 0.0
C801 C 0.34521 0.84822 0.06698 0.0
C802 C 0.35667 0.86467 0.07796 0.0
C803 C 0.36701 0.86148 0.10151 0.0
C804 C 0.34493 0.82895 0.07989 0.0
H805 H 0.37277 0.83984 0.13264 0.0
C806 C 0.36889 0.80358 0.16948 0.0
O807 O 0.41164 0.75739 0.15273 0.0
O808 O 0.4168 0.78671 0.13073 0.0
N809 N 0.33487 0.79403 0.08393 0.0
C810 C 0.32417 0.77668 0.0762 0.0
C811 C 0.31308 0.77717 0.05291 0.0
C812 C 0.31228 0.79577 0.03845 0.0
C813 C 0.32297 0.8136 0.04713 0.0
C814 C 0.33445 0.81192 0.06993 0.0
H815 H 0.32398 0.76262 0.0878 0.0
O816 O 0.39231 0.76024 0.09921 0.0
O817 O 0.37372 0.78834 0.10835 0.0
O818 O 0.3645 0.75332 0.14162 0.0
O819 O 0.33677 0.7728 0.13087 0.0
C820 C 0.322 0.8332 0.03466 0.0
C821 C 0.33348 0.85038 0.04422 0.0
H822 H 0.35749 0.87984 0.0686 0.0
H823 H 0.37581 0.87411 0.11017 0.0
H824 H 0.30468 0.76342 0.0465 0.0
H825 H 0.30311 0.79626 0.02096 0.0
H826 H 0.31234 0.83531 0.01783 0.0
H827 H 0.3329 0.86525 0.03414 0.0
Mn828 Mn 0.21829 0.38013 0.14653 0.0
Mn829 Mn 0.26394 0.402 0.12884 0.0
C830 C 0.24798 0.3598 0.14553 0.0
C831 C 0.19339 0.37188 0.1773 0.0
C832 C 0.23052 0.38939 0.09075 0.0
O833 O 0.21237 0.41129 0.14934 0.0
O834 O 0.24379 0.42435 0.13903 0.0
C835 C 0.27639 0.41894 0.17971 0.0
N836 N 0.28062 0.40681 0.15873 0.0
C837 C 0.31421 0.39761 0.17558 0.0
C838 C 0.31028 0.41013 0.19729 0.0
C839 C 0.29127 0.4208 0.19938 0.0
C840 C 0.29884 0.39644 0.15655 0.0
H841 H 0.26178 0.42713 0.18142 0.0
C842 C 0.22481 0.42661 0.146 0.0
O843 O 0.18867 0.37321 0.15303 0.0
O844 O 0.21245 0.37599 0.18375 0.0
N845 N 0.2851 0.3826 0.1187 0.0
C846 C 0.28595 0.37018 0.09733 0.0
C847 C 0.30377 0.35809 0.09262 0.0
C848 C 0.32054 0.3589 0.1099 0.0
C849 C 0.31938 0.37191 0.13166 0.0
C850 C 0.30131 0.3838 0.13519 0.0
H851 H 0.27305 0.3693 0.08414 0.0
O852 O 0.22975 0.35122 0.14446 0.0
O853 O 0.24843 0.38019 0.14764 0.0
O854 O 0.21775 0.38232 0.10733 0.0
O855 O 0.24818 0.39717 0.0966 0.0
C856 C 0.33523 0.37317 0.15033 0.0
C857 C 0.33263 0.38597 0.1723 0.0
H858 H 0.32168 0.41153 0.21256 0.0
H859 H 0.28808 0.43041 0.21613 0.0
H860 H 0.30453 0.34813 0.07576 0.0
H861 H 0.33414 0.34932 0.10639 0.0
H862 H 0.34935 0.3641 0.14818 0.0
H863 H 0.3448 0.38658 0.18669 0.0
Mn864 Mn 0.39064 0.22109 0.13998 0.0
Mn865 Mn 0.34424 0.19976 0.1249 0.0
C866 C 0.38173 0.21604 0.0972 0.0
C867 C 0.4255 0.2159 0.15067 0.0
C868 C 0.34952 0.24553 0.13957 0.0
O869 O 0.38121 0.20888 0.1742 0.0
O870 O 0.35072 0.19502 0.16187 0.0
C871 C 0.35657 0.1554 0.13228 0.0
N872 N 0.34855 0.1708 0.117 0.0
C873 C 0.34343 0.14655 0.08205 0.0
C874 C 0.35147 0.1304 0.09746 0.0
C875 C 0.35811 0.13486 0.12267 0.0
C876 C 0.34219 0.16669 0.09271 0.0
H877 H 0.36179 0.15875 0.15162 0.0
C878 C 0.3646 0.19875 0.17891 0.0
O879 O 0.41616 0.23339 0.15639 0.0
O880 O 0.41456 0.20168 0.13918 0.0
N881 N 0.33567 0.20255 0.08979 0.0
C882 C 0.32908 0.22003 0.07713 0.0
C883 C 0.32206 0.21832 0.05162 0.0
C884 C 0.32196 0.19867 0.03941 0.0
C885 C 0.32862 0.18083 0.05288 0.0
C886 C 0.33512 0.18346 0.07841 0.0
H887 H 0.32947 0.2352 0.08627 0.0
O888 O 0.39617 0.22924 0.10349 0.0
O889 O 0.3732 0.20573 0.11613 0.0
O890 O 0.36912 0.24491 0.14371 0.0
O891 O 0.33884 0.22968 0.13222 0.0
C892 C 0.32947 0.16062 0.04187 0.0
C893 C 0.3369 0.14351 0.05641 0.0
H894 H 0.35277 0.11455 0.09006 0.0
H895 H 0.36444 0.12251 0.13465 0.0
H896 H 0.31684 0.23213 0.04138 0.0
H897 H 0.31686 0.19753 0.01967 0.0
H898 H 0.32473 0.15802 0.02216 0.0
H899 H 0.33769 0.12812 0.04761 0.0
Mn900 Mn 0.78158 0.39442 0.13652 0.0
Mn901 Mn 0.79943 0.35095 0.10673 0.0
C902 C 0.77959 0.39178 0.09215 0.0
C903 C 0.78806 0.42796 0.1525 0.0
C904 C 0.75849 0.35279 0.13607 0.0
O905 O 0.79894 0.38004 0.16436 0.0
O906 O 0.81316 0.35397 0.14075 0.0
C907 C 0.84307 0.36367 0.0981 0.0
N908 N 0.82459 0.35675 0.0886 0.0
C909 C 0.83839 0.35491 0.04554 0.0
C910 C 0.85763 0.36183 0.0549 0.0
C911 C 0.85995 0.36629 0.08128 0.0
C912 C 0.82215 0.3525 0.06324 0.0
H913 H 0.84487 0.36721 0.11835 0.0
C914 C 0.81137 0.36456 0.16164 0.0
O915 O 0.77225 0.4171 0.16052 0.0
O916 O 0.80049 0.41897 0.13628 0.0
N917 N 0.78755 0.34613 0.07344 0.0
C918 C 0.76766 0.34082 0.06731 0.0
C919 C 0.76257 0.33639 0.04155 0.0
C920 C 0.77796 0.33739 0.0224 0.0
C921 C 0.79833 0.34275 0.02919 0.0
C922 C 0.80255 0.34675 0.05523 0.0
H923 H 0.75578 0.33995 0.08194 0.0
O924 O 0.76795 0.405 0.10444 0.0
O925 O 0.79231 0.38076 0.10612 0.0
O926 O 0.75863 0.37239 0.14118 0.0
O927 O 0.77329 0.34344 0.12433 0.0
C928 C 0.81455 0.34464 0.0111 0.0
C929 C 0.83455 0.35076 0.01926 0.0
H930 H 0.87066 0.36398 0.04196 0.0
H931 H 0.87472 0.37178 0.08862 0.0
H932 H 0.7468 0.33224 0.03647 0.0
H933 H 0.77393 0.33414 0.00251 0.0
H934 H 0.81172 0.34175 0.99082 0.0
H935 H 0.84681 0.35249 0.00512 0.0
Mn936 Mn 0.61126 0.78217 0.13806 0.0
Mn937 Mn 0.65363 0.81173 0.12508 0.0
C938 C 0.61929 0.79054 0.09587 0.0
C939 C 0.57637 0.77876 0.14915 0.0
C940 C 0.65572 0.76517 0.13598 0.0
O941 O 0.61838 0.79442 0.17312 0.0
O942 O 0.64631 0.81358 0.16228 0.0
C943 C 0.63416 0.85307 0.13502 0.0
N944 N 0.64465 0.83989 0.11895 0.0
C945 C 0.64574 0.86608 0.08554 0.0
C946 C 0.63507 0.87997 0.10179 0.0
C947 C 0.62922 0.87341 0.12662 0.0
C948 C 0.65022 0.846 0.09498 0.0
H949 H 0.62957 0.8481 0.15409 0.0
C950 C 0.63314 0.80689 0.17882 0.0
O951 O 0.58969 0.76396 0.1538 0.0
O952 O 0.58341 0.79579 0.13855 0.0
N953 N 0.66289 0.81204 0.09006 0.0
C954 C 0.67341 0.79687 0.07694 0.0
C955 C 0.68042 0.80091 0.05184 0.0
C956 C 0.67686 0.82061 0.04063 0.0
C957 C 0.66663 0.83624 0.05476 0.0
C958 C 0.66016 0.83135 0.07982 0.0
H959 H 0.67657 0.78188 0.08563 0.0
O960 O 0.60729 0.77477 0.10112 0.0
O961 O 0.62582 0.80155 0.11546 0.0
O962 O 0.63638 0.76252 0.13998 0.0
O963 O 0.66393 0.7828 0.13018 0.0
C964 C 0.66247 0.85642 0.04494 0.0
C965 C 0.65195 0.8713 0.06028 0.0
H966 H 0.63121 0.89566 0.09537 0.0
H967 H 0.62091 0.88401 0.13924 0.0
H968 H 0.68869 0.78891 0.04124 0.0
H969 H 0.68223 0.82357 0.02129 0.0
H970 H 0.66714 0.86063 0.02557 0.0
H971 H 0.64869 0.88671 0.05245 0.0
Mn972 Mn 0.20872 0.61203 0.13153 0.0
Mn973 Mn 0.19206 0.65656 0.10252 0.0
C974 C 0.21469 0.61679 0.08803 0.0
C975 C 0.20251 0.57791 0.14566 0.0
C976 C 0.23204 0.65402 0.13324 0.0
O977 O 0.1898 0.62483 0.15871 0.0
O978 O 0.17865 0.65297 0.13664 0.0
C979 C 0.14864 0.64291 0.09451 0.0
N980 N 0.1668 0.65046 0.08478 0.0
C981 C 0.15166 0.65492 0.04277 0.0
C982 C 0.13275 0.64726 0.05232 0.0
C983 C 0.13129 0.64106 0.07826 0.0
C984 C 0.16857 0.65583 0.0597 0.0
H985 H 0.14738 0.63845 0.11454 0.0
C986 C 0.1788 0.64137 0.15673 0.0
O987 O 0.21731 0.58918 0.1555 0.0
O988 O 0.19073 0.58677 0.12854 0.0
N989 N 0.20315 0.66308 0.06926 0.0
C990 C 0.22218 0.67112 0.06339 0.0
C991 C 0.22628 0.67785 0.03811 0.0
C992 C 0.21048 0.67725 0.01947 0.0
C993 C 0.19071 0.66992 0.02629 0.0
C994 C 0.18773 0.66277 0.05155 0.0
H995 H 0.23418 0.67228 0.07786 0.0
O996 O 0.22472 0.60275 0.10106 0.0
O997 O 0.20013 0.6269 0.10039 0.0
O998 O 0.23077 0.63458 0.13923 0.0
O999 O 0.21832 0.66369 0.11992 0.0
C1000 C 0.17371 0.66986 0.00917 0.0
C1001 C 0.15429 0.66207 0.01728 0.0
H1002 H 0.11925 0.64615 0.03994 0.0
H1003 H 0.11677 0.63513 0.08578 0.0
H1004 H 0.24149 0.68382 0.03313 0.0
H1005 H 0.21361 0.68276 0.0001 0.0
H1006 H 0.17547 0.67554 0.9896 0.0
H1007 H 0.14143 0.6618 0.00381 0.0
Mn1008 Mn 0.39426 0.79077 0.86256 0.0
Mn1009 Mn 0.34794 0.81124 0.87959 0.0
C1010 C 0.38476 0.79081 0.90532 0.0
C1011 C 0.42891 0.79588 0.85204 0.0
C1012 C 0.3527 0.76677 0.86087 0.0
O1013 O 0.38541 0.80576 0.83005 0.0
O1014 O 0.35402 0.81673 0.84261 0.0
C1015 C 0.36228 0.85515 0.87386 0.0
N1016 N 0.35384 0.8397 0.8887 0.0
C1017 C 0.3507 0.8631 0.92486 0.0
C1018 C 0.35929 0.87927 0.90996 0.0
C1019 C 0.36519 0.87524 0.88437 0.0
C1020 C 0.34856 0.84328 0.9135 0.0
H1021 H 0.36679 0.85221 0.85415 0.0
C1022 C 0.36817 0.81468 0.82556 0.0
O1023 O 0.41904 0.77926 0.84425 0.0
O1024 O 0.41867 0.80935 0.8658 0.0
N1025 N 0.33894 0.80807 0.91449 0.0
C1026 C 0.32863 0.79157 0.92519 0.0
C1027 C 0.32115 0.79315 0.95051 0.0
C1028 C 0.32348 0.81202 0.96412 0.0
C1029 C 0.33295 0.82927 0.95218 0.0
C1030 C 0.3404 0.82662 0.92704 0.0
H1031 H 0.32639 0.77724 0.91458 0.0
O1032 O 0.39971 0.77896 0.89719 0.0
O1033 O 0.37659 0.80362 0.88842 0.0
O1034 O 0.37213 0.76807 0.8557 0.0
O1035 O 0.34198 0.78166 0.87092 0.0
C1036 C 0.33475 0.84915 0.9639 0.0
C1037 C 0.34386 0.86597 0.95039 0.0
H1038 H 0.36133 0.89485 0.91793 0.0
H1039 H 0.37185 0.88762 0.87273 0.0
H1040 H 0.31344 0.77993 0.95943 0.0
H1041 H 0.31748 0.81319 0.98346 0.0
H1042 H 0.32909 0.85178 0.98324 0.0
H1043 H 0.3452 0.88114 0.95967 0.0
Mn1044 Mn 0.22335 0.39251 0.8594 0.0
Mn1045 Mn 0.20114 0.34737 0.87905 0.0
C1046 C 0.2208 0.38563 0.90274 0.0
C1047 C 0.21985 0.42725 0.84666 0.0
C1048 C 0.24494 0.35006 0.8574 0.0
O1049 O 0.20845 0.38198 0.82757 0.0
O1050 O 0.19141 0.35392 0.8434 0.0
C1051 C 0.15726 0.36093 0.88178 0.0
N1052 N 0.17436 0.3527 0.89344 0.0
C1053 C 0.15603 0.34863 0.93356 0.0
C1054 C 0.13817 0.35694 0.92193 0.0
C1055 C 0.13881 0.36314 0.89594 0.0
C1056 C 0.17392 0.34664 0.91843 0.0
H1057 H 0.15773 0.36579 0.86183 0.0
C1058 C 0.19563 0.36685 0.82519 0.0
O1059 O 0.23597 0.41627 0.84 0.0
O1060 O 0.20562 0.41789 0.86008 0.0
N1061 N 0.20903 0.33922 0.9132 0.0
C1062 C 0.22795 0.3328 0.92197 0.0
C1063 C 0.23017 0.3268 0.94787 0.0
C1064 C 0.21293 0.3273 0.96444 0.0
C1065 C 0.19358 0.33373 0.95491 0.0
C1066 C 0.19226 0.3394 0.92886 0.0
H1067 H 0.24128 0.33243 0.90936 0.0
O1068 O 0.23403 0.39935 0.8943 0.0
O1069 O 0.20902 0.37666 0.88553 0.0
O1070 O 0.24575 0.36997 0.85508 0.0
O1071 O 0.2288 0.34027 0.86518 0.0
C1072 C 0.17566 0.33523 0.97038 0.0
C1073 C 0.1569 0.34268 0.95972 0.0
H1074 H 0.12395 0.35881 0.93284 0.0
H1075 H 0.12512 0.36966 0.88687 0.0
H1076 H 0.24517 0.32189 0.95509 0.0
H1077 H 0.21476 0.32288 0.98448 0.0
H1078 H 0.17622 0.33102 0.99061 0.0
H1079 H 0.14331 0.34406 0.97191 0.0
Mn1080 Mn 0.6098 0.21417 0.86412 0.0
Mn1081 Mn 0.65704 0.19514 0.87995 0.0
C1082 C 0.61957 0.21317 0.90684 0.0
C1083 C 0.57511 0.20776 0.85405 0.0
C1084 C 0.65034 0.23996 0.863 0.0
O1085 O 0.61911 0.20054 0.83085 0.0
O1086 O 0.65077 0.18989 0.84294 0.0
C1087 C 0.6447 0.15069 0.8734 0.0
N1088 N 0.65266 0.16628 0.88844 0.0
C1089 C 0.65824 0.14231 0.92356 0.0
C1090 C 0.65018 0.12599 0.90844 0.0
C1091 C 0.64328 0.13024 0.88329 0.0
C1092 C 0.65886 0.16247 0.91285 0.0
H1093 H 0.63948 0.1538 0.854 0.0
C1094 C 0.63649 0.192 0.82603 0.0
O1095 O 0.58419 0.22496 0.84671 0.0
O1096 O 0.58622 0.1944 0.86688 0.0
N1097 N 0.66626 0.19819 0.91481 0.0
C1098 C 0.67538 0.21519 0.92599 0.0
C1099 C 0.68349 0.21354 0.95101 0.0
C1100 C 0.68297 0.19419 0.96383 0.0
C1101 C 0.67452 0.17659 0.95147 0.0
C1102 C 0.66634 0.1793 0.92669 0.0
H1103 H 0.67617 0.22997 0.91605 0.0
O1104 O 0.60412 0.22466 0.89936 0.0
O1105 O 0.62816 0.20128 0.88928 0.0
O1106 O 0.63088 0.23813 0.85813 0.0
O1107 O 0.66167 0.2251 0.87199 0.0
C1108 C 0.6744 0.15635 0.96244 0.0
C1109 C 0.666 0.13929 0.94866 0.0
H1110 H 0.6493 0.11014 0.9159 0.0
H1111 H 0.63701 0.11774 0.87148 0.0
H1112 H 0.69031 0.22711 0.96028 0.0
H1113 H 0.6895 0.193 0.98292 0.0
H1114 H 0.68075 0.15365 0.98145 0.0
H1115 H 0.66588 0.12385 0.95739 0.0
Mn1116 Mn 0.7806 0.61412 0.86698 0.0
Mn1117 Mn 0.80445 0.65836 0.88731 0.0
C1118 C 0.77969 0.62238 0.91003 0.0
C1119 C 0.78317 0.57906 0.85504 0.0
C1120 C 0.76151 0.65817 0.86324 0.0
O1121 O 0.79778 0.6228 0.83628 0.0
O1122 O 0.81437 0.65102 0.85193 0.0
C1123 C 0.84669 0.64039 0.89134 0.0
N1124 N 0.83028 0.65035 0.90251 0.0
C1125 C 0.84826 0.65277 0.94306 0.0
C1126 C 0.8654 0.64264 0.93197 0.0
C1127 C 0.86457 0.63633 0.90602 0.0
C1128 C 0.83075 0.65608 0.92759 0.0
H1129 H 0.84615 0.63559 0.87138 0.0
C1130 C 0.81075 0.63771 0.83399 0.0
O1131 O 0.76805 0.59074 0.84674 0.0
O1132 O 0.79678 0.58776 0.87004 0.0
N1133 N 0.79702 0.66802 0.92101 0.0
C1134 C 0.77974 0.67885 0.92832 0.0
C1135 C 0.77811 0.68629 0.95373 0.0
C1136 C 0.79457 0.68323 0.97108 0.0
C1137 C 0.81264 0.67301 0.96274 0.0
C1138 C 0.81324 0.66564 0.93731 0.0
H1139 H 0.76718 0.68159 0.91494 0.0
O1140 O 0.76711 0.60856 0.90047 0.0
O1141 O 0.7936 0.6301 0.89432 0.0
O1142 O 0.76012 0.63829 0.85998 0.0
O1143 O 0.77757 0.66724 0.87264 0.0
C1144 C 0.83023 0.67021 0.97851 0.0
C1145 C 0.84795 0.65991 0.96877 0.0
H1146 H 0.87929 0.63965 0.94317 0.0
H1147 H 0.87771 0.62847 0.89733 0.0
H1148 H 0.76426 0.6945 0.95987 0.0
H1149 H 0.79331 0.6891 0.99063 0.0
H1150 H 0.83028 0.67588 0.99821 0.0
H1151 H 0.86131 0.6577 0.98116 0.0
H1152 H 0.22337 0.16022 0.3941 0.0
H1153 H 0.24465 0.15598 0.31508 0.0
H1154 H 0.2142 0.17679 0.30075 0.0
H1155 H 0.16654 0.15781 0.37874 0.0
H1156 H 0.16028 0.17594 0.40428 0.0
H1157 H 0.18214 0.15847 0.4076 0.0
H1158 H 0.20652 0.19025 0.41594 0.0
H1159 H 0.18458 0.20747 0.4132 0.0
H1160 H 0.207 0.21152 0.393 0.0
H1161 H 0.18546 0.20342 0.2967 0.0
H1162 H 0.16035 0.23245 0.30328 0.0
H1163 H 0.15559 0.21615 0.38403 0.0
C1164 C 0.22141 0.16345 0.37378 0.0
C1165 C 0.23625 0.15676 0.35564 0.0
C1166 C 0.23325 0.16102 0.32915 0.0
C1167 C 0.21602 0.17273 0.32089 0.0
C1168 C 0.20175 0.17949 0.33935 0.0
C1169 C 0.20411 0.17469 0.36522 0.0
C1170 C 0.18743 0.18489 0.38144 0.0
C1171 C 0.17326 0.16828 0.39373 0.0
C1172 C 0.19697 0.1994 0.40208 0.0
C1173 C 0.17604 0.19722 0.36092 0.0
C1174 C 0.18435 0.19376 0.33668 0.0
C1175 C 0.1783 0.20571 0.31538 0.0
C1176 C 0.16398 0.22205 0.31918 0.0
C1177 C 0.15581 0.22598 0.34397 0.0
C1178 C 0.16128 0.21293 0.36477 0.0
H1179 H 0.75906 0.16821 0.38367 0.0
H1180 H 0.78233 0.1359 0.31621 0.0
H1181 H 0.81102 0.16173 0.31273 0.0
H1182 H 0.76732 0.21907 0.35888 0.0
H1183 H 0.77409 0.23058 0.38951 0.0
H1184 H 0.7571 0.20818 0.38836 0.0
H1185 H 0.78185 0.18746 0.41897 0.0
H1186 H 0.79828 0.21032 0.42057 0.0
H1187 H 0.80899 0.18547 0.41079 0.0
H1188 H 0.83742 0.19144 0.31736 0.0
H1189 H 0.85617 0.22473 0.32583 0.0
H1190 H 0.81286 0.23897 0.38744 0.0
C1191 C 0.77049 0.16638 0.36852 0.0
C1192 C 0.76934 0.14949 0.35106 0.0
C1193 C 0.78377 0.14814 0.33059 0.0
C1194 C 0.79996 0.16281 0.32837 0.0
C1195 C 0.80107 0.179 0.34644 0.0
C1196 C 0.7865 0.18102 0.36587 0.0
C1197 C 0.78987 0.20084 0.38134 0.0
C1198 C 0.77098 0.21553 0.37939 0.0
C1199 C 0.79505 0.1957 0.4096 0.0
C1200 C 0.80851 0.20981 0.36748 0.0
C1201 C 0.81508 0.19681 0.34777 0.0
C1202 C 0.83232 0.20177 0.33266 0.0
C1203 C 0.8429 0.22065 0.33765 0.0
C1204 C 0.8359 0.23449 0.35719 0.0
C1205 C 0.81854 0.22883 0.37227 0.0
H1206 H 0.84376 0.77866 0.36898 0.0
H1207 H 0.8124 0.72834 0.32837 0.0
H1208 H 0.78258 0.75161 0.32007 0.0
H1209 H 0.80024 0.79601 0.40165 0.0
H1210 H 0.80632 0.8236 0.40058 0.0
H1211 H 0.82686 0.80452 0.39928 0.0
H1212 H 0.84001 0.82075 0.35646 0.0
H1213 H 0.81944 0.83992 0.35765 0.0
H1214 H 0.82239 0.82344 0.32964 0.0
H1215 H 0.75456 0.77766 0.32154 0.0
H1216 H 0.72938 0.80516 0.33357 0.0
H1217 H 0.77793 0.83941 0.37322 0.0
C1218 C 0.83086 0.77287 0.35763 0.0
C1219 C 0.83039 0.75185 0.349 0.0
C1220 C 0.81302 0.74445 0.33501 0.0
C1221 C 0.79609 0.75758 0.33007 0.0
C1222 C 0.79671 0.77807 0.33935 0.0
C1223 C 0.8136 0.78575 0.35284 0.0
C1224 C 0.80914 0.80754 0.36333 0.0
C1225 C 0.81073 0.80793 0.39296 0.0
C1226 C 0.82361 0.82388 0.35103 0.0
C1227 C 0.78689 0.81052 0.35438 0.0
C1228 C 0.78021 0.79341 0.34022 0.0
C1229 C 0.75972 0.79139 0.33203 0.0
C1230 C 0.74553 0.80702 0.33895 0.0
C1231 C 0.75192 0.82449 0.35375 0.0
C1232 C 0.77293 0.82652 0.36109 0.0
H1233 H 0.16956 0.76742 0.33301 0.0
H1234 H 0.17605 0.75221 0.41407 0.0
H1235 H 0.19959 0.78221 0.41996 0.0
H1236 H 0.22277 0.7838 0.32324 0.0
H1237 H 0.21606 0.80474 0.30141 0.0
H1238 H 0.19968 0.78192 0.30373 0.0
H1239 H 0.16889 0.80607 0.31287 0.0
H1240 H 0.1847 0.82941 0.31313 0.0
H1241 H 0.16906 0.82266 0.34089 0.0
H1242 H 0.22468 0.81125 0.41646 0.0
H1243 H 0.24884 0.83962 0.40423 0.0
H1244 H 0.22441 0.83903 0.32641 0.0
C1245 C 0.17599 0.77051 0.35193 0.0
C1246 C 0.17153 0.75721 0.37299 0.0
C1247 C 0.17997 0.7617 0.39753 0.0
C1248 C 0.19312 0.7789 0.40113 0.0
C1249 C 0.19754 0.79156 0.37999 0.0
C1250 C 0.1893 0.78766 0.35585 0.0
C1251 C 0.19701 0.80362 0.33637 0.0
C1252 C 0.20963 0.79288 0.31493 0.0
C1253 C 0.17884 0.81623 0.32513 0.0
C1254 C 0.21081 0.8171 0.35341 0.0
C1255 C 0.211 0.8096 0.37845 0.0
C1256 C 0.22426 0.8177 0.39716 0.0
C1257 C 0.23787 0.83377 0.3901 0.0
C1258 C 0.23762 0.84208 0.36484 0.0
C1259 C 0.22396 0.83366 0.34622 0.0
H1260 H 0.19127 0.73877 0.6271 0.0
H1261 H 0.13678 0.77239 0.65407 0.0
H1262 H 0.15784 0.80482 0.65766 0.0
H1263 H 0.22904 0.7648 0.66705 0.0
H1264 H 0.2485 0.7648 0.64206 0.0
H1265 H 0.22925 0.74433 0.64304 0.0
H1266 H 0.21849 0.75304 0.59603 0.0
H1267 H 0.2377 0.77352 0.5949 0.0
H1268 H 0.21092 0.77947 0.58795 0.0
H1269 H 0.18541 0.83399 0.65694 0.0
H1270 H 0.21614 0.85684 0.65106 0.0
H1271 H 0.25143 0.80315 0.62386 0.0
C1272 C 0.18365 0.75283 0.63402 0.0
C1273 C 0.16231 0.75292 0.64041 0.0
C1274 C 0.1531 0.77186 0.64912 0.0
C1275 C 0.16495 0.79035 0.65124 0.0
C1276 C 0.18593 0.78964 0.64453 0.0
C1277 C 0.19511 0.7713 0.63607 0.0
C1278 C 0.21763 0.77457 0.62903 0.0
C1279 C 0.23194 0.76134 0.64634 0.0
C1280 C 0.22139 0.76988 0.60028 0.0
C1281 C 0.21981 0.79769 0.63475 0.0
C1282 C 0.20146 0.80619 0.6438 0.0
C1283 C 0.19985 0.82744 0.64995 0.0
C1284 C 0.21741 0.84029 0.64657 0.0
C1285 C 0.23628 0.83185 0.637 0.0
C1286 C 0.23734 0.81021 0.63124 0.0
H1287 H 0.24049 0.17381 0.61512 0.0
H1288 H 0.21572 0.1419 0.68202 0.0
H1289 H 0.18817 0.16894 0.68588 0.0
H1290 H 0.23427 0.22493 0.64101 0.0
H1291 H 0.22819 0.23695 0.61046 0.0
H1292 H 0.24431 0.21391 0.61151 0.0
H1293 H 0.21911 0.19455 0.58025 0.0
H1294 H 0.20338 0.2179 0.57884 0.0
H1295 H 0.19188 0.19327 0.58812 0.0
H1296 H 0.16255 0.19955 0.68093 0.0
H1297 H 0.14424 0.2329 0.67131 0.0
H1298 H 0.18951 0.24634 0.6116 0.0
C1299 C 0.22898 0.17236 0.63026 0.0
C1300 C 0.22931 0.15522 0.64736 0.0
C1301 C 0.21483 0.15433 0.66784 0.0
C1302 C 0.19932 0.16971 0.6703 0.0
C1303 C 0.19901 0.18616 0.65257 0.0
C1304 C 0.21372 0.18773 0.63323 0.0
C1305 C 0.21124 0.20779 0.61803 0.0
C1306 C 0.23065 0.22171 0.62041 0.0
C1307 C 0.2061 0.20308 0.58963 0.0
C1308 C 0.19286 0.21732 0.63182 0.0
C1309 C 0.18567 0.20449 0.65132 0.0
C1310 C 0.16821 0.20981 0.66586 0.0
C1311 C 0.1579 0.22875 0.66026 0.0
C1312 C 0.16542 0.24231 0.64072 0.0
C1313 C 0.18326 0.23645 0.62662 0.0
H1314 H 0.7753 0.16888 0.60009 0.0
H1315 H 0.7652 0.15638 0.68119 0.0
H1316 H 0.79606 0.17803 0.69202 0.0
H1317 H 0.83312 0.1687 0.6032 0.0
H1318 H 0.83493 0.18917 0.57931 0.0
H1319 H 0.81371 0.17074 0.57826 0.0
H1320 H 0.78741 0.20155 0.57923 0.0
H1321 H 0.8085 0.21997 0.58017 0.0
H1322 H 0.78887 0.22057 0.60493 0.0
H1323 H 0.82438 0.20597 0.69367 0.0
H1324 H 0.84782 0.23624 0.68571 0.0
H1325 H 0.84139 0.22682 0.60348 0.0
C1326 C 0.7797 0.17044 0.62007 0.0
C1327 C 0.76786 0.16119 0.63984 0.0
C1328 C 0.77423 0.16338 0.66581 0.0
C1329 C 0.79171 0.17558 0.67209 0.0
C1330 C 0.80289 0.18488 0.65206 0.0
C1331 C 0.7973 0.18207 0.62653 0.0
C1332 C 0.81102 0.19453 0.60856 0.0
C1333 C 0.82397 0.17991 0.59132 0.0
C1334 C 0.79818 0.21007 0.59229 0.0
C1335 C 0.82452 0.20575 0.62797 0.0
C1336 C 0.81981 0.19993 0.653 0.0
C1337 C 0.82862 0.2102 0.67415 0.0
C1338 C 0.84197 0.22727 0.66952 0.0
C1339 C 0.84632 0.23367 0.644 0.0
C1340 C 0.83819 0.22223 0.62313 0.0
H1341 H 0.81231 0.75312 0.61651 0.0
H1342 H 0.85634 0.7652 0.67801 0.0
H1343 H 0.83652 0.79717 0.69009 0.0
H1344 H 0.80868 0.80663 0.5969 0.0
H1345 H 0.78166 0.80488 0.58811 0.0
H1346 H 0.79806 0.78207 0.58589 0.0
H1347 H 0.77323 0.7612 0.61545 0.0
H1348 H 0.75641 0.7837 0.61765 0.0
H1349 H 0.76634 0.77167 0.6466 0.0
H1350 H 0.80937 0.82637 0.69708 0.0
H1351 H 0.78182 0.85354 0.69322 0.0
H1352 H 0.76022 0.82447 0.62273 0.0
C1353 C 0.81793 0.76245 0.63245 0.0
C1354 C 0.83582 0.75666 0.64638 0.0
C1355 C 0.84262 0.76941 0.6671 0.0
C1356 C 0.83143 0.78749 0.67414 0.0
C1357 C 0.81386 0.79278 0.6598 0.0
C1358 C 0.8075 0.78082 0.63901 0.0
C1359 C 0.78916 0.79051 0.62536 0.0
C1360 C 0.79473 0.79638 0.59742 0.0
C1361 C 0.77017 0.7759 0.62634 0.0
C1362 C 0.78598 0.80974 0.64183 0.0
C1363 C 0.79998 0.8106 0.66202 0.0
C1364 C 0.7988 0.82621 0.68086 0.0
C1365 C 0.78334 0.84167 0.6784 0.0
C1366 C 0.76994 0.84173 0.65681 0.0
C1367 C 0.77095 0.82525 0.6388 0.0
H1368 H 0.69828 0.76481 0.86557 0.0
H1369 H 0.64246 0.72941 0.84783 0.0
H1370 H 0.66369 0.69729 0.8428 0.0
H1371 H 0.73325 0.73725 0.82194 0.0
H1372 H 0.75459 0.73853 0.84437 0.0
H1373 H 0.73512 0.75883 0.84429 0.0
H1374 H 0.7283 0.75235 0.89296 0.0
H1375 H 0.7477 0.73205 0.89318 0.0
H1376 H 0.72168 0.72632 0.90379 0.0
H1377 H 0.69131 0.66844 0.84259 0.0
H1378 H 0.72226 0.64585 0.848 0.0
H1379 H 0.75916 0.70097 0.86605 0.0
C1380 C 0.69042 0.75043 0.86023 0.0
C1381 C 0.66864 0.74974 0.857 0.0
C1382 C 0.65912 0.73041 0.85034 0.0
C1383 C 0.67106 0.71208 0.84739 0.0
C1384 C 0.69248 0.71335 0.85111 0.0
C1385 C 0.70202 0.73209 0.85734 0.0
C1386 C 0.72503 0.72926 0.86181 0.0
C1387 C 0.73774 0.74171 0.84191 0.0
C1388 C 0.73102 0.73535 0.88958 0.0
C1389 C 0.727 0.70591 0.85749 0.0
C1390 C 0.70815 0.69694 0.85114 0.0
C1391 C 0.70617 0.67536 0.84732 0.0
C1392 C 0.72386 0.66265 0.85041 0.0
C1393 C 0.74324 0.67157 0.8574 0.0
C1394 C 0.7447 0.69355 0.86057 0.0
H1395 H 0.26681 0.67902 0.88179 0.0
H1396 H 0.28706 0.65005 0.81061 0.0
H1397 H 0.31492 0.67678 0.80639 0.0
H1398 H 0.27314 0.73135 0.859 0.0
H1399 H 0.28096 0.74167 0.88988 0.0
H1400 H 0.26408 0.7192 0.88832 0.0
H1401 H 0.29011 0.69729 0.91616 0.0
H1402 H 0.3061 0.72041 0.9184 0.0
H1403 H 0.31699 0.6963 0.9065 0.0
H1404 H 0.34142 0.70635 0.81152 0.0
H1405 H 0.36085 0.7389 0.8218 0.0
H1406 H 0.32019 0.74974 0.88711 0.0
C1407 C 0.27738 0.67815 0.86556 0.0
C1408 C 0.27575 0.66192 0.84726 0.0
C1409 C 0.28897 0.66179 0.82551 0.0
C1410 C 0.30464 0.67698 0.82289 0.0
C1411 C 0.30635 0.69241 0.84186 0.0
C1412 C 0.29279 0.6933 0.86251 0.0
C1413 C 0.2966 0.71242 0.87905 0.0
C1414 C 0.27756 0.72702 0.87904 0.0
C1415 C 0.30281 0.70621 0.90666 0.0
C1416 C 0.3146 0.72208 0.86471 0.0
C1417 C 0.32028 0.71021 0.84355 0.0
C1418 C 0.33698 0.71586 0.82791 0.0
C1419 C 0.34796 0.73428 0.83394 0.0
C1420 C 0.34189 0.74691 0.85512 0.0
C1421 C 0.32505 0.74059 0.87063 0.0
H1422 H 0.30771 0.24394 0.85285 0.0
H1423 H 0.36489 0.27997 0.85378 0.0
H1424 H 0.34447 0.31268 0.84837 0.0
H1425 H 0.27893 0.27674 0.80669 0.0
H1426 H 0.25493 0.27308 0.82399 0.0
H1427 H 0.27437 0.25274 0.82421 0.0
H1428 H 0.27449 0.25325 0.87424 0.0
H1429 H 0.2552 0.27362 0.87421 0.0
H1430 H 0.27943 0.27758 0.89089 0.0
H1431 H 0.31684 0.34174 0.84751 0.0
H1432 H 0.28534 0.36378 0.85161 0.0
H1433 H 0.24725 0.3076 0.85197 0.0
C1434 C 0.31611 0.25861 0.85144 0.0
C1435 C 0.33795 0.25935 0.85372 0.0
C1436 C 0.34818 0.27898 0.85189 0.0
C1437 C 0.3367 0.29763 0.84883 0.0
C1438 C 0.31508 0.29629 0.84743 0.0
C1439 C 0.30499 0.27718 0.8485 0.0
C1440 C 0.28169 0.27975 0.84871 0.0
C1441 C 0.27191 0.27 0.82445 0.0
C1442 C 0.27216 0.27051 0.87348 0.0
C1443 C 0.28011 0.30335 0.84829 0.0
C1444 C 0.29944 0.31274 0.84722 0.0
C1445 C 0.30165 0.33451 0.84801 0.0
C1446 C 0.28366 0.34691 0.85033 0.0
C1447 C 0.26379 0.33744 0.85211 0.0
C1448 C 0.26215 0.31539 0.85061 0.0
H1449 H 0.6836 0.25629 0.88858 0.0
H1450 H 0.64022 0.26987 0.82685 0.0
H1451 H 0.65893 0.30313 0.81799 0.0
H1452 H 0.68733 0.30953 0.91151 0.0
H1453 H 0.71447 0.30761 0.91971 0.0
H1454 H 0.6981 0.28471 0.92133 0.0
H1455 H 0.7221 0.26436 0.89044 0.0
H1456 H 0.73923 0.28662 0.88901 0.0
H1457 H 0.72885 0.27564 0.85968 0.0
H1458 H 0.68525 0.33295 0.81323 0.0
H1459 H 0.71386 0.35888 0.81666 0.0
H1460 H 0.73721 0.32684 0.88427 0.0
C1461 C 0.67786 0.26623 0.87332 0.0
C1462 C 0.66051 0.26041 0.85833 0.0
C1463 C 0.65348 0.27406 0.83861 0.0
C1464 C 0.66404 0.29292 0.83341 0.0
C1465 C 0.68127 0.29802 0.84849 0.0
C1466 C 0.68785 0.2852 0.86834 0.0
C1467 C 0.70652 0.2942 0.88208 0.0
C1468 C 0.7013 0.29933 0.91033 0.0
C1469 C 0.72528 0.27932 0.88017 0.0
C1470 C 0.70985 0.31389 0.86645 0.0
C1471 C 0.69526 0.31581 0.84701 0.0
C1472 C 0.69633 0.33193 0.82887 0.0
C1473 C 0.71247 0.34665 0.83105 0.0
C1474 C 0.72689 0.34539 0.85155 0.0
C1475 C 0.7258 0.32857 0.86907 0.0
H1476 H 0.69569 0.24665 0.14289 0.0
H1477 H 0.63921 0.28266 0.15424 0.0
H1478 H 0.66027 0.31506 0.15829 0.0
H1479 H 0.72964 0.27714 0.18561 0.0
H1480 H 0.75139 0.27434 0.16402 0.0
H1481 H 0.73195 0.25406 0.16571 0.0
H1482 H 0.72613 0.25704 0.11633 0.0
H1483 H 0.74541 0.27737 0.11449 0.0
H1484 H 0.71956 0.28215 0.10257 0.0
H1485 H 0.68807 0.3441 0.15682 0.0
H1486 H 0.71914 0.36628 0.14943 0.0
H1487 H 0.75618 0.31015 0.13801 0.0
C1488 C 0.68761 0.26122 0.14676 0.0
C1489 C 0.66573 0.26202 0.14832 0.0
C1490 C 0.65596 0.28157 0.15315 0.0
C1491 C 0.66781 0.30006 0.15546 0.0
C1492 C 0.68936 0.29868 0.15302 0.0
C1493 C 0.69909 0.27965 0.14891 0.0
C1494 C 0.72215 0.28223 0.1448 0.0
C1495 C 0.73451 0.2713 0.16632 0.0
C1496 C 0.72868 0.27423 0.11796 0.0
C1497 C 0.72396 0.30578 0.14669 0.0
C1498 C 0.70502 0.3151 0.15174 0.0
C1499 C 0.70299 0.33689 0.15314 0.0
C1500 C 0.72072 0.34937 0.14894 0.0
C1501 C 0.74012 0.33998 0.1431 0.0
C1502 C 0.74164 0.31789 0.14241 0.0
H1503 H 0.72776 0.66984 0.18241 0.0
H1504 H 0.74255 0.66108 0.10167 0.0
H1505 H 0.71708 0.68832 0.08975 0.0
H1506 H 0.67166 0.68497 0.1768 0.0
H1507 H 0.67477 0.70462 0.20131 0.0
H1508 H 0.69088 0.68151 0.20181 0.0
H1509 H 0.72285 0.70688 0.2027 0.0
H1510 H 0.70609 0.7294 0.20013 0.0
H1511 H 0.72629 0.72527 0.17663 0.0
H1512 H 0.69082 0.7163 0.08637 0.0
H1513 H 0.66776 0.7469 0.0918 0.0
H1514 H 0.6723 0.74104 0.17489 0.0
C1515 C 0.72494 0.67323 0.16225 0.0
C1516 C 0.73601 0.66259 0.14272 0.0
C1517 C 0.73336 0.66843 0.11664 0.0
C1518 C 0.71903 0.68389 0.10975 0.0
C1519 C 0.70807 0.69394 0.12931 0.0
C1520 C 0.71104 0.68916 0.15507 0.0
C1521 C 0.69938 0.70448 0.17224 0.0
C1522 C 0.68323 0.69318 0.18903 0.0
C1523 C 0.71456 0.71726 0.1889 0.0
C1524 C 0.68902 0.71817 0.15205 0.0
C1525 C 0.69418 0.71162 0.12745 0.0
C1526 C 0.68677 0.72171 0.10551 0.0
C1527 C 0.67386 0.73914 0.10875 0.0
C1528 C 0.66875 0.74642 0.13369 0.0
C1529 C 0.67617 0.73571 0.15565 0.0
H1530 H 0.2376 0.69636 0.13008 0.0
H1531 H 0.26907 0.63901 0.15277 0.0
H1532 H 0.3012 0.65934 0.16075 0.0
H1533 H 0.27843 0.71774 0.09542 0.0
H1534 H 0.27331 0.74448 0.1048 0.0
H1535 H 0.25245 0.72575 0.1038 0.0
H1536 H 0.24361 0.73381 0.15161 0.0
H1537 H 0.26443 0.75267 0.15274 0.0
H1538 H 0.26358 0.73154 0.17581 0.0
H1539 H 0.33095 0.68598 0.16186 0.0
H1540 H 0.35486 0.71612 0.15674 0.0
H1541 H 0.3028 0.75522 0.13382 0.0
C1542 C 0.2511 0.68801 0.13713 0.0
C1543 C 0.25076 0.66606 0.14081 0.0
C1544 C 0.26888 0.65585 0.14996 0.0
C1545 C 0.28721 0.66726 0.15453 0.0
C1546 C 0.28706 0.68886 0.1501 0.0
C1547 C 0.26936 0.69909 0.14181 0.0
C1548 C 0.27333 0.7221 0.13696 0.0
C1549 C 0.26914 0.72784 0.10857 0.0
C1550 C 0.26048 0.73584 0.15539 0.0
C1551 C 0.29618 0.72323 0.14324 0.0
C1552 C 0.30391 0.70401 0.15094 0.0
C1553 C 0.32497 0.70117 0.1562 0.0
C1554 C 0.33844 0.71838 0.15322 0.0
C1555 C 0.33077 0.73813 0.14498 0.0
C1556 C 0.30927 0.74047 0.14039 0.0
H1557 H 0.25668 0.32569 0.11639 0.0
H1558 H 0.27917 0.36189 0.18122 0.0
H1559 H 0.3094 0.33794 0.18531 0.0
H1560 H 0.26865 0.2763 0.14418 0.0
H1561 H 0.27531 0.26406 0.11396 0.0
H1562 H 0.25694 0.28533 0.11461 0.0
H1563 H 0.27949 0.30644 0.08171 0.0
H1564 H 0.29716 0.28453 0.08066 0.0
H1565 H 0.30669 0.31029 0.08851 0.0
H1566 H 0.33788 0.30994 0.18091 0.0
H1567 H 0.35868 0.27775 0.17312 0.0
H1568 H 0.31454 0.25848 0.11456 0.0
C1569 C 0.26821 0.32874 0.13113 0.0
C1570 C 0.26642 0.34625 0.14755 0.0
C1571 C 0.28106 0.34918 0.16756 0.0
C1572 C 0.29812 0.33558 0.17012 0.0
C1573 C 0.2999 0.31883 0.15293 0.0
C1574 C 0.28507 0.31517 0.13414 0.0
C1575 C 0.28933 0.29504 0.11968 0.0
C1576 C 0.2715 0.27925 0.12334 0.0
C1577 C 0.29339 0.29936 0.09094 0.0
C1578 C 0.30887 0.28789 0.1332 0.0
C1579 C 0.31505 0.30197 0.15194 0.0
C1580 C 0.33307 0.29875 0.1664 0.0
C1581 C 0.34482 0.2805 0.16179 0.0
C1582 C 0.33823 0.26555 0.14329 0.0
C1583 C 0.32005 0.26949 0.12886 0.0
H1584 H 0.95147 0.25779 0.33955 0.0
H1585 H 0.94178 0.32358 0.35769 0.0
H1586 H 0.97945 0.32972 0.35543 0.0
H1587 H 0.99562 0.25121 0.37762 0.0
H1588 H 0.0091 0.23387 0.35583 0.0
H1589 H 0.98119 0.2349 0.35557 0.0
H1590 H 0.98159 0.2436 0.30677 0.0
H1591 H 0.00955 0.2425 0.30685 0.0
H1592 H 0.99647 0.26569 0.29539 0.0
H1593 H 0.01777 0.32823 0.35618 0.0
H1594 H 0.05495 0.3193 0.35863 0.0
H1595 H 0.04063 0.25463 0.33933 0.0
C1596 C 0.95728 0.27357 0.34243 0.0
C1597 C 0.9437 0.29023 0.3487 0.0
C1598 C 0.95189 0.31058 0.35284 0.0
C1599 C 0.97327 0.31425 0.35152 0.0
C1600 C 0.98629 0.29745 0.34593 0.0
C1601 C 0.97868 0.27752 0.34125 0.0
C1602 C 0.99627 0.26199 0.33744 0.0
C1603 C 0.99549 0.24447 0.35783 0.0
C1604 C 0.99595 0.25291 0.30997 0.0
C1605 C 0.01487 0.27621 0.34145 0.0
C1606 C 0.0087 0.29663 0.34612 0.0
C1607 C 0.02286 0.31239 0.35213 0.0
C1608 C 0.04392 0.30714 0.35359 0.0
C1609 C 0.05065 0.28633 0.34899 0.0
C1610 C 0.03594 0.27075 0.34249 0.0
H1611 H 0.75456 0.03188 0.34021 0.0
H1612 H 0.69092 0.05352 0.3477 0.0
H1613 H 0.67866 0.01689 0.34597 0.0
H1614 H 0.74285 0.98739 0.29608 0.0
H1615 H 0.76223 0.97086 0.31078 0.0
H1616 H 0.76584 0.9989 0.30997 0.0
H1617 H 0.77035 0.9993 0.35962 0.0
H1618 H 0.76671 0.97133 0.36061 0.0
H1619 H 0.75033 0.98819 0.37972 0.0
H1620 H 0.67375 0.97802 0.34986 0.0
H1621 H 0.67648 0.93961 0.35586 0.0
H1622 H 0.74285 0.94304 0.34282 0.0
C1623 C 0.73801 0.02896 0.34105 0.0
C1624 C 0.72372 0.04561 0.34414 0.0
C1625 C 0.70219 0.04107 0.34518 0.0
C1626 C 0.69506 0.0203 0.34423 0.0
C1627 C 0.70959 0.00424 0.34174 0.0
C1628 C 0.7306 0.00833 0.33975 0.0
C1629 C 0.74304 0.98817 0.33837 0.0
C1630 C 0.75414 0.98622 0.31224 0.0
C1631 C 0.75851 0.98667 0.36092 0.0
C1632 C 0.72581 0.97211 0.34088 0.0
C1633 C 0.70662 0.98172 0.34276 0.0
C1634 C 0.68861 0.97029 0.34776 0.0
C1635 C 0.6903 0.94852 0.35121 0.0
C1636 C 0.70979 0.93841 0.34929 0.0
C1637 C 0.72768 0.95033 0.3436 0.0
H1638 H 0.04657 0.70135 0.35799 0.0
H1639 H 0.06081 0.76328 0.32811 0.0
H1640 H 0.02339 0.76954 0.32046 0.0
H1641 H 0.00299 0.6898 0.31452 0.0
H1642 H 0.98861 0.67652 0.33947 0.0
H1643 H 0.01658 0.6763 0.33999 0.0
H1644 H 0.01617 0.6917 0.38629 0.0
H1645 H 0.98826 0.69201 0.38589 0.0
H1646 H 0.00241 0.71583 0.39239 0.0
H1647 H 0.98391 0.76983 0.31933 0.0
H1648 H 0.94616 0.76425 0.32538 0.0
H1649 H 0.9586 0.70224 0.35629 0.0
C1650 C 0.04189 0.7161 0.34942 0.0
C1651 C 0.05659 0.7318 0.34354 0.0
C1652 C 0.0498 0.751 0.33266 0.0
C1653 C 0.02859 0.75467 0.32821 0.0
C1654 C 0.01445 0.73895 0.33465 0.0
C1655 C 0.02088 0.72002 0.34493 0.0
C1656 C 0.00265 0.70617 0.35176 0.0
C1657 C 0.00272 0.68601 0.33546 0.0
C1658 C 0.00236 0.70115 0.3808 0.0
C1659 C 0.98491 0.72042 0.34428 0.0
C1660 C 0.99194 0.73918 0.33418 0.0
C1661 C 0.97825 0.75511 0.32697 0.0
C1662 C 0.95685 0.75181 0.33047 0.0
C1663 C 0.94946 0.73281 0.34126 0.0
C1664 C 0.96373 0.7169 0.34787 0.0
H1665 H 0.25013 0.95806 0.33207 0.0
H1666 H 0.31394 0.93763 0.34171 0.0
H1667 H 0.32582 0.97425 0.33727 0.0
H1668 H 0.26168 0.00108 0.28501 0.0
H1669 H 0.24191 0.01776 0.29862 0.0
H1670 H 0.23873 0.98965 0.29912 0.0
H1671 H 0.23372 0.9908 0.3487 0.0
H1672 H 0.2369 0.01881 0.34836 0.0
H1673 H 0.25337 0.00288 0.36852 0.0
H1674 H 0.33009 0.01333 0.33933 0.0
H1675 H 0.32646 0.05174 0.34487 0.0
H1676 H 0.26034 0.04663 0.33073 0.0
C1677 C 0.26664 0.96123 0.33271 0.0
C1678 C 0.28109 0.94498 0.33729 0.0
C1679 C 0.30257 0.94979 0.33806 0.0
C1680 C 0.30948 0.97055 0.33554 0.0
C1681 C 0.29477 0.98628 0.3317 0.0
C1682 C 0.27382 0.98181 0.32984 0.0
C1683 C 0.26108 0.00167 0.3273 0.0
C1684 C 0.25021 0.00259 0.30094 0.0
C1685 C 0.24536 0.00365 0.34954 0.0
C1686 C 0.27804 0.01803 0.32927 0.0
C1687 C 0.29739 0.00886 0.33164 0.0
C1688 C 0.31512 0.02074 0.33674 0.0
C1689 C 0.31293 0.0425 0.3399 0.0
C1690 C 0.29322 0.05211 0.33768 0.0
C1691 C 0.2757 0.03975 0.33167 0.0
H1692 H 0.04277 0.73613 0.65599 0.0
H1693 H 0.05395 0.66905 0.6524 0.0
H1694 H 0.01654 0.66241 0.65722 0.0
H1695 H 0.99766 0.73378 0.70207 0.0
H1696 H 0.98405 0.75452 0.68556 0.0
H1697 H 0.01204 0.7542 0.68597 0.0
H1698 H 0.0125 0.75556 0.63605 0.0
H1699 H 0.98458 0.75577 0.63547 0.0
H1700 H 0.99863 0.73586 0.61798 0.0
H1701 H 0.97845 0.66272 0.65608 0.0
H1702 H 0.9412 0.67007 0.65013 0.0
H1703 H 0.95346 0.73687 0.65518 0.0
C1704 C 0.03734 0.72008 0.65702 0.0
C1705 C 0.05123 0.70309 0.65398 0.0
C1706 C 0.04356 0.68228 0.65471 0.0
C1707 C 0.02234 0.67834 0.65756 0.0
C1708 C 0.00894 0.69536 0.65974 0.0
C1709 C 0.01605 0.71584 0.65969 0.0
C1710 C 0.99802 0.73119 0.6599 0.0
C1711 C 0.99794 0.74419 0.68487 0.0
C1712 C 0.99847 0.74542 0.63592 0.0
C1713 C 0.97978 0.71611 0.65911 0.0
C1714 C 0.98653 0.69553 0.65932 0.0
C1715 C 0.9729 0.67874 0.65645 0.0
C1716 C 0.9518 0.68307 0.65296 0.0
C1717 C 0.9445 0.70399 0.65249 0.0
C1718 C 0.95862 0.72072 0.65609 0.0
H1719 H 0.24796 0.94801 0.66239 0.0
H1720 H 0.31502 0.94327 0.66493 0.0
H1721 H 0.31757 0.98167 0.6708 0.0
H1722 H 0.2469 0.99111 0.62337 0.0
H1723 H 0.2246 0.00361 0.6377 0.0
H1724 H 0.22751 0.9756 0.63966 0.0
H1725 H 0.22486 0.97729 0.68948 0.0
H1726 H 0.22167 0.00536 0.68767 0.0
H1727 H 0.24206 0.9943 0.70723 0.0
H1728 H 0.31317 0.02045 0.67066 0.0
H1729 H 0.3024 0.05701 0.66329 0.0
H1730 H 0.23807 0.0369 0.65822 0.0
C1731 C 0.26309 0.95502 0.6653 0.0
C1732 C 0.2813 0.94276 0.66381 0.0
C1733 C 0.30092 0.95246 0.66644 0.0
C1734 C 0.3025 0.97421 0.66982 0.0
C1735 C 0.28429 0.98603 0.67026 0.0
C1736 C 0.26493 0.9768 0.66811 0.0
C1737 C 0.24803 0.99323 0.6656 0.0
C1738 C 0.23607 0.99073 0.64007 0.0
C1739 C 0.23328 0.9925 0.68889 0.0
C1740 C 0.26097 0.01307 0.66574 0.0
C1741 C 0.28178 0.00858 0.66902 0.0
C1742 C 0.29688 0.0242 0.66844 0.0
C1743 C 0.29058 0.04495 0.66416 0.0
C1744 C 0.26936 0.04991 0.66011 0.0
C1745 C 0.2544 0.0337 0.66129 0.0
H1746 H 0.04891 0.26576 0.65736 0.0
H1747 H 0.05947 0.33108 0.63784 0.0
H1748 H 0.02203 0.33819 0.64212 0.0
H1749 H 0.00396 0.26011 0.621 0.0
H1750 H 0.99058 0.24303 0.64316 0.0
H1751 H 0.0185 0.24353 0.64262 0.0
H1752 H 0.01913 0.25223 0.69142 0.0
H1753 H 0.99115 0.25169 0.69213 0.0
H1754 H 0.00489 0.27462 0.70322 0.0
H1755 H 0.98367 0.33763 0.64349 0.0
H1756 H 0.94636 0.32935 0.64134 0.0
H1757 H 0.95977 0.26429 0.65961 0.0
C1758 C 0.04335 0.28165 0.65472 0.0
C1759 C 0.05707 0.29793 0.6475 0.0
C1760 C 0.04922 0.31841 0.64347 0.0
C1761 C 0.02799 0.32262 0.64597 0.0
C1762 C 0.01477 0.30618 0.65248 0.0
C1763 C 0.02208 0.28609 0.65688 0.0
C1764 C 0.00425 0.27091 0.66118 0.0
C1765 C 0.00433 0.25337 0.64077 0.0
C1766 C 0.0049 0.26183 0.68863 0.0
C1767 C 0.98584 0.2855 0.65771 0.0
C1768 C 0.99233 0.30582 0.65306 0.0
C1769 C 0.97836 0.32186 0.6475 0.0
C1770 C 0.95719 0.31698 0.64624 0.0
C1771 C 0.95015 0.29622 0.65047 0.0
C1772 C 0.96467 0.28037 0.65675 0.0
H1773 H 0.74721 0.04977 0.66688 0.0
H1774 H 0.68062 0.05386 0.65591 0.0
H1775 H 0.67799 0.01525 0.65891 0.0
H1776 H 0.75431 0.00771 0.62659 0.0
H1777 H 0.7745 0.99509 0.645 0.0
H1778 H 0.77094 0.02302 0.6473 0.0
H1779 H 0.76673 0.02018 0.69686 0.0
H1780 H 0.77059 0.99221 0.6948 0.0
H1781 H 0.74763 0.00252 0.7101 0.0
H1782 H 0.68302 0.97646 0.65805 0.0
H1783 H 0.6952 0.94005 0.65324 0.0
H1784 H 0.75894 0.96105 0.66244 0.0
C1785 C 0.732 0.04256 0.66615 0.0
C1786 C 0.71405 0.05473 0.66165 0.0
C1787 C 0.69449 0.04476 0.6597 0.0
C1788 C 0.69286 0.02287 0.66138 0.0
C1789 C 0.71097 0.01123 0.66484 0.0
C1790 C 0.73017 0.0207 0.6673 0.0
C1791 C 0.74745 0.00455 0.66787 0.0
C1792 C 0.76269 0.00779 0.64535 0.0
C1793 C 0.75876 0.00489 0.69397 0.0
C1794 C 0.73501 0.98458 0.66456 0.0
C1795 C 0.71398 0.98876 0.66331 0.0
C1796 C 0.69943 0.97296 0.65931 0.0
C1797 C 0.70654 0.95231 0.65652 0.0
C1798 C 0.72806 0.94763 0.65739 0.0
C1799 C 0.74241 0.96406 0.66162 0.0
H1800 H 0.54855 0.7656 0.84612 0.0
H1801 H 0.56071 0.8325 0.8499 0.0
H1802 H 0.52359 0.83977 0.84347 0.0
H1803 H 0.50462 0.76857 0.79828 0.0
H1804 H 0.49028 0.74813 0.81438 0.0
H1805 H 0.51826 0.74795 0.81499 0.0
H1806 H 0.51755 0.74676 0.86492 0.0
H1807 H 0.48963 0.74703 0.86448 0.0
H1808 H 0.50358 0.76676 0.88238 0.0
H1809 H 0.48561 0.84013 0.84308 0.0
H1810 H 0.44817 0.83347 0.84808 0.0
H1811 H 0.45936 0.76642 0.84392 0.0
C1812 C 0.5434 0.78174 0.84483 0.0
C1813 C 0.55745 0.7985 0.84839 0.0
C1814 C 0.55017 0.81944 0.84725 0.0
C1815 C 0.52914 0.82374 0.84345 0.0
C1816 C 0.51555 0.80694 0.84074 0.0
C1817 C 0.52229 0.78633 0.84122 0.0
C1818 C 0.50403 0.77129 0.84043 0.0
C1819 C 0.50432 0.75821 0.81553 0.0
C1820 C 0.50369 0.75714 0.86449 0.0
C1821 C 0.48607 0.7867 0.84049 0.0
C1822 C 0.49317 0.80716 0.84032 0.0
C1823 C 0.47979 0.82421 0.84266 0.0
C1824 C 0.45859 0.82027 0.84563 0.0
C1825 C 0.45095 0.79948 0.84611 0.0
C1826 C 0.46481 0.78248 0.84299 0.0
H1827 H 0.25174 0.45465 0.8382 0.0
H1828 H 0.18471 0.4509 0.84454 0.0
H1829 H 0.18239 0.48951 0.84164 0.0
H1830 H 0.25736 0.49733 0.87874 0.0
H1831 H 0.27832 0.50957 0.86131 0.0
H1832 H 0.27471 0.48163 0.85943 0.0
H1833 H 0.27255 0.48384 0.80959 0.0
H1834 H 0.27638 0.51182 0.81129 0.0
H1835 H 0.25404 0.50132 0.79482 0.0
H1836 H 0.18749 0.52825 0.84234 0.0
H1837 H 0.19957 0.56471 0.84716 0.0
H1838 H 0.26353 0.54338 0.84219 0.0
C1839 C 0.23656 0.46195 0.83814 0.0
C1840 C 0.21837 0.44988 0.84126 0.0
C1841 C 0.1988 0.45994 0.84198 0.0
C1842 C 0.19733 0.48182 0.84028 0.0
C1843 C 0.2156 0.49337 0.83801 0.0
C1844 C 0.23485 0.48381 0.83687 0.0
C1845 C 0.25217 0.4999 0.83702 0.0
C1846 C 0.26647 0.49692 0.86052 0.0
C1847 C 0.26451 0.49917 0.81167 0.0
C1848 C 0.23965 0.51993 0.83914 0.0
C1849 C 0.21859 0.51582 0.83925 0.0
C1850 C 0.20394 0.53171 0.842 0.0
C1851 C 0.21098 0.55238 0.84479 0.0
C1852 C 0.23252 0.55696 0.84512 0.0
C1853 C 0.24697 0.54045 0.84205 0.0
H1854 H 0.45494 0.23646 0.84365 0.0
H1855 H 0.44287 0.1703 0.85659 0.0
H1856 H 0.48021 0.16274 0.85236 0.0
H1857 H 0.49921 0.22955 0.79776 0.0
H1858 H 0.5133 0.25142 0.81115 0.0
H1859 H 0.48531 0.25144 0.81144 0.0
H1860 H 0.48565 0.25708 0.86092 0.0
H1861 H 0.51357 0.25701 0.8608 0.0
H1862 H 0.49963 0.2389 0.88112 0.0
H1863 H 0.51849 0.16259 0.85184 0.0
H1864 H 0.55593 0.16987 0.85526 0.0
H1865 H 0.54415 0.23614 0.84271 0.0
C1866 C 0.46015 0.22034 0.8449 0.0
C1867 C 0.44603 0.20393 0.85027 0.0
C1868 C 0.45343 0.18309 0.85243 0.0
C1869 C 0.4746 0.17862 0.84994 0.0
C1870 C 0.4882 0.19516 0.84527 0.0
C1871 C 0.48135 0.2156 0.84268 0.0
C1872 C 0.49951 0.23063 0.84004 0.0
C1873 C 0.49932 0.24139 0.81352 0.0
C1874 C 0.49959 0.24685 0.86203 0.0
C1875 C 0.51759 0.21548 0.84238 0.0
C1876 C 0.51063 0.19508 0.84505 0.0
C1877 C 0.52418 0.17843 0.84935 0.0
C1878 C 0.54541 0.18275 0.85136 0.0
C1879 C 0.55293 0.20353 0.84907 0.0
C1880 C 0.53885 0.22005 0.84405 0.0
H1881 H 0.7398 0.46308 0.84191 0.0
H1882 H 0.80385 0.44178 0.84284 0.0
H1883 H 0.81575 0.47848 0.84063 0.0
H1884 H 0.74841 0.50837 0.79788 0.0
H1885 H 0.72994 0.5245 0.81489 0.0
H1886 H 0.72644 0.49645 0.81366 0.0
H1887 H 0.72509 0.4952 0.86358 0.0
H1888 H 0.72869 0.52315 0.86499 0.0
H1889 H 0.7463 0.50604 0.88195 0.0
H1890 H 0.82069 0.51719 0.8447 0.0
H1891 H 0.81825 0.5555 0.85152 0.0
H1892 H 0.75122 0.55193 0.84543 0.0
C1893 C 0.75633 0.46609 0.84118 0.0
C1894 C 0.77088 0.44951 0.8426 0.0
C1895 C 0.79238 0.45417 0.84164 0.0
C1896 C 0.79931 0.47499 0.8404 0.0
C1897 C 0.78457 0.49096 0.83967 0.0
C1898 C 0.76352 0.48677 0.83963 0.0
C1899 C 0.75092 0.50685 0.84003 0.0
C1900 C 0.73818 0.50918 0.81513 0.0
C1901 C 0.73694 0.50786 0.86407 0.0
C1902 C 0.76818 0.52295 0.84129 0.0
C1903 C 0.78747 0.51344 0.84098 0.0
C1904 C 0.80571 0.52487 0.84435 0.0
C1905 C 0.80418 0.54657 0.84832 0.0
C1906 C 0.78459 0.5566 0.84861 0.0
C1907 C 0.76641 0.54468 0.84462 0.0
H1908 H 0.45677 0.24498 0.15859 0.0
H1909 H 0.44458 0.17813 0.15333 0.0
H1910 H 0.482 0.1709 0.15622 0.0
H1911 H 0.50034 0.24499 0.11897 0.0
H1912 H 0.51497 0.26425 0.13678 0.0
H1913 H 0.48706 0.26444 0.13808 0.0
H1914 H 0.48833 0.2619 0.18791 0.0
H1915 H 0.51631 0.26183 0.18678 0.0
H1916 H 0.50268 0.2409 0.2029 0.0
H1917 H 0.52011 0.17071 0.15386 0.0
H1918 H 0.55745 0.17759 0.14806 0.0
H1919 H 0.54627 0.24444 0.15575 0.0
C1920 C 0.462 0.22883 0.1588 0.0
C1921 C 0.44776 0.2121 0.15587 0.0
C1922 C 0.45519 0.19119 0.15557 0.0
C1923 C 0.47643 0.1869 0.15729 0.0
C1924 C 0.49013 0.20368 0.1594 0.0
C1925 C 0.48331 0.22424 0.16038 0.0
C1926 C 0.50158 0.23932 0.16067 0.0
C1927 C 0.50094 0.25412 0.13723 0.0
C1928 C 0.50226 0.25172 0.18608 0.0
C1929 C 0.5196 0.22401 0.15885 0.0
C1930 C 0.51254 0.20354 0.15835 0.0
C1931 C 0.5259 0.18663 0.15472 0.0
C1932 C 0.54707 0.1907 0.15132 0.0
C1933 C 0.55473 0.2115 0.1517 0.0
C1934 C 0.54085 0.22836 0.15592 0.0
H1935 H 0.7482 0.54533 0.15785 0.0
H1936 H 0.8124 0.56493 0.14933 0.0
H1937 H 0.8237 0.5281 0.15408 0.0
H1938 H 0.75799 0.50393 0.20557 0.0
H1939 H 0.73846 0.48685 0.1922 0.0
H1940 H 0.73552 0.51492 0.18985 0.0
H1941 H 0.73192 0.51195 0.14019 0.0
H1942 H 0.73468 0.48392 0.14242 0.0
H1943 H 0.7519 0.49878 0.12199 0.0
H1944 H 0.8277 0.48892 0.1554 0.0
H1945 H 0.82405 0.45035 0.15329 0.0
H1946 H 0.7575 0.45638 0.16328 0.0
C1947 C 0.76466 0.54194 0.15712 0.0
C1948 C 0.77941 0.55807 0.15311 0.0
C1949 C 0.8008 0.5529 0.15241 0.0
C1950 C 0.80738 0.53202 0.15517 0.0
C1951 C 0.79242 0.51653 0.15899 0.0
C1952 C 0.77151 0.52125 0.16012 0.0
C1953 C 0.75851 0.50162 0.16337 0.0
C1954 C 0.74694 0.50185 0.18929 0.0
C1955 C 0.74337 0.49891 0.14063 0.0
C1956 C 0.77533 0.48501 0.16308 0.0
C1957 C 0.7948 0.49395 0.1607 0.0
C1958 C 0.81259 0.48175 0.15778 0.0
C1959 C 0.81038 0.45988 0.15662 0.0
C1960 C 0.79056 0.45044 0.1586 0.0
C1961 C 0.7729 0.46317 0.16252 0.0
H1962 H 0.45527 0.79859 0.12907 0.0
H1963 H 0.44436 0.74199 0.17365 0.0
H1964 H 0.48195 0.73899 0.18204 0.0
H1965 H 0.5013 0.78145 0.09881 0.0
H1966 H 0.51398 0.80665 0.09979 0.0
H1967 H 0.48609 0.8052 0.09881 0.0
H1968 H 0.4839 0.82753 0.14051 0.0
H1969 H 0.51182 0.82905 0.14161 0.0
H1970 H 0.49765 0.81909 0.16897 0.0
H1971 H 0.52082 0.74078 0.18315 0.0
H1972 H 0.55828 0.74737 0.17712 0.0
H1973 H 0.54394 0.80309 0.13241 0.0
C1974 C 0.46076 0.7857 0.14085 0.0
C1975 C 0.44687 0.77054 0.15075 0.0
C1976 C 0.4547 0.75382 0.1659 0.0
C1977 C 0.47602 0.752 0.17082 0.0
C1978 C 0.48932 0.76708 0.16056 0.0
C1979 C 0.482 0.78366 0.14598 0.0
C1980 C 0.49967 0.79726 0.13635 0.0
C1981 C 0.50029 0.79765 0.10669 0.0
C1982 C 0.49817 0.81956 0.14754 0.0
C1983 C 0.51807 0.78552 0.14741 0.0
C1984 C 0.51175 0.76822 0.16141 0.0
C1985 C 0.52596 0.7544 0.17247 0.0
C1986 C 0.5472 0.75826 0.1689 0.0
C1987 C 0.55402 0.77581 0.15444 0.0
C1988 C 0.53921 0.78971 0.14385 0.0
H1989 H 0.24723 0.46243 0.1555 0.0
H1990 H 0.18431 0.4397 0.14464 0.0
H1991 H 0.17117 0.47601 0.1478 0.0
H1992 H 0.23369 0.50443 0.20175 0.0
H1993 H 0.25297 0.52207 0.1889 0.0
H1994 H 0.2572 0.49412 0.18778 0.0
H1995 H 0.26265 0.49619 0.13832 0.0
H1996 H 0.25847 0.52408 0.1393 0.0
H1997 H 0.2428 0.5079 0.11846 0.0
H1998 H 0.16547 0.51506 0.14656 0.0
H1999 H 0.16753 0.55377 0.14346 0.0
H2000 H 0.23369 0.5509 0.1583 0.0
C2001 C 0.23065 0.46505 0.15408 0.0
C2002 C 0.2168 0.44821 0.14974 0.0
C2003 C 0.19522 0.45232 0.14808 0.0
C2004 C 0.1876 0.4729 0.14985 0.0
C2005 C 0.20171 0.48916 0.15379 0.0
C2006 C 0.22276 0.48544 0.15623 0.0
C2007 C 0.23472 0.50573 0.15949 0.0
C2008 C 0.24527 0.50664 0.18606 0.0
C2009 C 0.25059 0.50864 0.13758 0.0
C2010 C 0.2172 0.52151 0.1576 0.0
C2011 C 0.19826 0.51164 0.15435 0.0
C2012 C 0.18012 0.52297 0.14971 0.0
C2013 C 0.18142 0.54491 0.14795 0.0
C2014 C 0.20067 0.55527 0.15118 0.0
C2015 C 0.21867 0.54341 0.15657 0.0
H2016 H 0.11979 0.30308 0.43592 0.0
H2017 H 0.13218 0.23665 0.42766 0.0
H2018 H 0.13878 0.23396 0.47456 0.0
H2019 H 0.15531 0.31477 0.4887 0.0
H2020 H 0.13738 0.3317 0.50553 0.0
H2021 H 0.13632 0.32951 0.47086 0.0
H2022 H 0.09798 0.31843 0.4727 0.0
H2023 H 0.09834 0.32101 0.50726 0.0
H2024 H 0.0904 0.29661 0.49271 0.0
H2025 H 0.1391 0.23727 0.52207 0.0
H2026 H 0.13357 0.24636 0.56788 0.0
H2027 H 0.12083 0.31079 0.54652 0.0
C2028 C 0.12459 0.28818 0.44401 0.0
C2029 C 0.12629 0.27018 0.42832 0.0
C2030 C 0.13138 0.25064 0.43949 0.0
C2031 C 0.13516 0.24901 0.46602 0.0
C2032 C 0.13314 0.26698 0.48115 0.0
C2033 C 0.12779 0.28616 0.47064 0.0
C2034 C 0.12397 0.30234 0.49157 0.0
C2035 C 0.13915 0.32072 0.48904 0.0
C2036 C 0.10133 0.31004 0.49102 0.0
C2037 C 0.12828 0.28934 0.5155 0.0
C2038 C 0.13342 0.26894 0.50895 0.0
C2039 C 0.13568 0.2533 0.52749 0.0
C2040 C 0.13246 0.25856 0.55339 0.0
C2041 C 0.12761 0.27938 0.5606 0.0
C2042 C 0.12552 0.29499 0.54146 0.0
H2043 H 0.75474 0.10787 0.55703 0.0
H2044 H 0.68799 0.10737 0.56691 0.0
H2045 H 0.68336 0.10405 0.51972 0.0
H2046 H 0.75803 0.13632 0.49665 0.0
H2047 H 0.77877 0.11993 0.4853 0.0
H2048 H 0.77519 0.12375 0.51943 0.0
H2049 H 0.77396 0.08256 0.52303 0.0
H2050 H 0.77575 0.07998 0.48849 0.0
H2051 H 0.75422 0.06842 0.50553 0.0
H2052 H 0.68613 0.10477 0.47151 0.0
H2053 H 0.69596 0.10414 0.42549 0.0
H2054 H 0.76098 0.10052 0.44719 0.0
C2055 C 0.7392 0.10715 0.5491 0.0
C2056 C 0.72165 0.10903 0.56517 0.0
C2057 C 0.70154 0.10705 0.55455 0.0
C2058 C 0.69879 0.10495 0.52789 0.0
C2059 C 0.71638 0.10421 0.51232 0.0
C2060 C 0.73621 0.10478 0.52252 0.0
C2061 C 0.75246 0.10264 0.50156 0.0
C2062 C 0.76696 0.12181 0.50075 0.0
C2063 C 0.76482 0.08218 0.50485 0.0
C2064 C 0.73866 0.10178 0.47795 0.0
C2065 C 0.71792 0.10277 0.48458 0.0
C2066 C 0.7023 0.1036 0.46604 0.0
C2067 C 0.70804 0.10336 0.43997 0.0
C2068 C 0.72922 0.10216 0.43272 0.0
C2069 C 0.74465 0.10117 0.45206 0.0
H2070 H 0.87469 0.74534 0.44204 0.0
H2071 H 0.89682 0.68274 0.42499 0.0
H2072 H 0.89438 0.67343 0.47125 0.0
H2073 H 0.90514 0.74989 0.49995 0.0
H2074 H 0.88622 0.76562 0.51676 0.0
H2075 H 0.88774 0.76664 0.48211 0.0
H2076 H 0.84867 0.75662 0.47889 0.0
H2077 H 0.84732 0.75591 0.51361 0.0
H2078 H 0.83958 0.73335 0.49507 0.0
H2079 H 0.88695 0.67029 0.51886 0.0
H2080 H 0.88465 0.67606 0.566 0.0
H2081 H 0.87205 0.74199 0.55298 0.0
C2082 C 0.87864 0.72958 0.44811 0.0
C2083 C 0.8845 0.7142 0.42991 0.0
C2084 C 0.89096 0.69422 0.43856 0.0
C2085 C 0.88975 0.68887 0.46476 0.0
C2086 C 0.88264 0.70395 0.48211 0.0
C2087 C 0.8779 0.72413 0.4743 0.0
C2088 C 0.87322 0.73809 0.49726 0.0
C2089 C 0.88902 0.75612 0.49913 0.0
C2090 C 0.85087 0.74649 0.49612 0.0
C2091 C 0.87587 0.72256 0.51915 0.0
C2092 C 0.88069 0.7028 0.5099 0.0
C2093 C 0.88341 0.68573 0.52635 0.0
C2094 C 0.88191 0.68909 0.55302 0.0
C2095 C 0.87802 0.70939 0.5629 0.0
C2096 C 0.87491 0.7263 0.54577 0.0
H2097 H 0.24606 0.88822 0.5549 0.0
H2098 H 0.31225 0.89454 0.5672 0.0
H2099 H 0.31769 0.89824 0.52017 0.0
H2100 H 0.246 0.85985 0.49515 0.0
H2101 H 0.22457 0.87464 0.48252 0.0
H2102 H 0.22737 0.87147 0.51685 0.0
H2103 H 0.22587 0.91253 0.52019 0.0
H2104 H 0.22463 0.91479 0.48558 0.0
H2105 H 0.24493 0.92795 0.50319 0.0
H2106 H 0.31611 0.89661 0.47185 0.0
H2107 H 0.30728 0.89551 0.4255 0.0
H2108 H 0.24174 0.89475 0.44506 0.0
C2109 C 0.26166 0.89028 0.54753 0.0
C2110 C 0.27894 0.88984 0.5642 0.0
C2111 C 0.29903 0.89365 0.55434 0.0
C2112 C 0.30221 0.896 0.52779 0.0
C2113 C 0.28498 0.89526 0.5116 0.0
C2114 C 0.26504 0.89304 0.5211 0.0
C2115 C 0.24915 0.89391 0.49961 0.0
C2116 C 0.23602 0.87377 0.49853 0.0
C2117 C 0.23534 0.91346 0.50231 0.0
C2118 C 0.26338 0.89568 0.47648 0.0
C2119 C 0.28398 0.89643 0.48382 0.0
C2120 C 0.30002 0.89649 0.46582 0.0
C2121 C 0.29486 0.89575 0.43957 0.0
C2122 C 0.27382 0.89512 0.43162 0.0
C2123 C 0.25795 0.89542 0.45042 0.0
H2124 H 0.12925 0.73861 0.44608 0.0
H2125 H 0.11006 0.67559 0.42617 0.0
H2126 H 0.11123 0.66553 0.47237 0.0
H2127 H 0.16309 0.72585 0.50035 0.0
H2128 H 0.15462 0.74792 0.51936 0.0
H2129 H 0.15461 0.74953 0.48463 0.0
H2130 H 0.11562 0.75921 0.48476 0.0
H2131 H 0.11543 0.75801 0.51942 0.0
H2132 H 0.09739 0.74235 0.50109 0.0
H2133 H 0.11338 0.66295 0.52103 0.0
H2134 H 0.11202 0.66912 0.56823 0.0
H2135 H 0.12745 0.73449 0.55613 0.0
C2136 C 0.12576 0.72258 0.4515 0.0
C2137 C 0.12068 0.70749 0.43266 0.0
C2138 C 0.11505 0.68699 0.44036 0.0
C2139 C 0.11556 0.68123 0.46651 0.0
C2140 C 0.12127 0.69634 0.48464 0.0
C2141 C 0.12594 0.7167 0.47747 0.0
C2142 C 0.1294 0.73057 0.50076 0.0
C2143 C 0.15176 0.73896 0.50131 0.0
C2144 C 0.11351 0.74859 0.50155 0.0
C2145 C 0.12568 0.71494 0.52223 0.0
C2146 C 0.12144 0.69517 0.51258 0.0
C2147 C 0.11685 0.67832 0.52878 0.0
C2148 C 0.11621 0.6819 0.55549 0.0
C2149 C 0.12015 0.70212 0.56559 0.0
C2150 C 0.12484 0.71881 0.54876 0.0
H2151 H 0.24688 0.10445 0.44149 0.0
H2152 H 0.31391 0.10495 0.43486 0.0
H2153 H 0.31711 0.10251 0.48227 0.0
H2154 H 0.24065 0.13387 0.50061 0.0
H2155 H 0.22008 0.11705 0.51131 0.0
H2156 H 0.22485 0.12015 0.47731 0.0
H2157 H 0.22735 0.07883 0.47597 0.0
H2158 H 0.22463 0.07733 0.51053 0.0
H2159 H 0.24699 0.06594 0.49503 0.0
H2160 H 0.31295 0.10472 0.52998 0.0
H2161 H 0.30193 0.10598 0.57549 0.0
H2162 H 0.23753 0.10066 0.55151 0.0
C2163 C 0.26216 0.10407 0.45018 0.0
C2164 C 0.2802 0.10601 0.43492 0.0
C2165 C 0.29998 0.10452 0.44655 0.0
C2166 C 0.30192 0.10293 0.47335 0.0
C2167 C 0.28388 0.10219 0.48809 0.0
C2168 C 0.26436 0.10222 0.47698 0.0
C2169 C 0.24756 0.10031 0.49733 0.0
C2170 C 0.23241 0.11896 0.49651 0.0
C2171 C 0.23595 0.07935 0.49455 0.0
C2172 C 0.26067 0.10065 0.52159 0.0
C2173 C 0.28157 0.10164 0.51578 0.0
C2174 C 0.29666 0.10352 0.53485 0.0
C2175 C 0.29022 0.10437 0.56063 0.0
C2176 C 0.26888 0.1033 0.56711 0.0
C2177 C 0.25397 0.10121 0.54725 0.0
H2178 H 0.87361 0.25605 0.44345 0.0
H2179 H 0.87416 0.32283 0.42809 0.0
H2180 H 0.87382 0.33002 0.47503 0.0
H2181 H 0.84116 0.25706 0.49979 0.0
H2182 H 0.85552 0.23782 0.51807 0.0
H2183 H 0.8548 0.23648 0.48335 0.0
H2184 H 0.89419 0.23775 0.47899 0.0
H2185 H 0.89636 0.23743 0.51359 0.0
H2186 H 0.90874 0.25796 0.49528 0.0
H2187 H 0.87868 0.32967 0.52303 0.0
H2188 H 0.88389 0.32203 0.56938 0.0
H2189 H 0.87966 0.25541 0.55378 0.0
C2190 C 0.87309 0.27217 0.45008 0.0
C2191 C 0.87305 0.28894 0.43235 0.0
C2192 C 0.87322 0.30983 0.44149 0.0
C2193 C 0.87329 0.31402 0.46806 0.0
C2194 C 0.87357 0.29709 0.4851 0.0
C2195 C 0.87332 0.27657 0.47648 0.0
C2196 C 0.87493 0.2612 0.49867 0.0
C2197 C 0.85545 0.24733 0.50012 0.0
C2198 C 0.89473 0.24781 0.49649 0.0
C2199 C 0.87629 0.27628 0.52119 0.0
C2200 C 0.87571 0.2969 0.51289 0.0
C2201 C 0.87856 0.31362 0.52984 0.0
C2202 C 0.88146 0.30916 0.55606 0.0
C2203 C 0.88118 0.28823 0.56507 0.0
C2204 C 0.87914 0.27157 0.54735 0.0
H2205 H 0.71415 0.89355 0.56587 0.0
H2206 H 0.78029 0.88055 0.56755 0.0
H2207 H 0.77962 0.87226 0.52144 0.0
H2208 H 0.69785 0.85729 0.52223 0.0
H2209 H 0.681 0.87328 0.50231 0.0
H2210 H 0.68512 0.8798 0.53569 0.0
H2211 H 0.69848 0.91648 0.5258 0.0
H2212 H 0.69265 0.9119 0.49228 0.0
H2213 H 0.71832 0.92014 0.50172 0.0
H2214 H 0.7723 0.86483 0.47595 0.0
H2215 H 0.75972 0.86386 0.43106 0.0
H2216 H 0.69862 0.88339 0.45651 0.0
C2217 C 0.72846 0.88899 0.55647 0.0
C2218 C 0.74712 0.88689 0.57065 0.0
C2219 C 0.76567 0.88158 0.55748 0.0
C2220 C 0.76548 0.87689 0.53116 0.0
C2221 C 0.74677 0.87839 0.51796 0.0
C2222 C 0.72878 0.88514 0.52981 0.0
C2223 C 0.71128 0.88719 0.51036 0.0
C2224 C 0.69269 0.87353 0.51804 0.0
C2225 C 0.70481 0.9103 0.50736 0.0
C2226 C 0.72198 0.87923 0.4861 0.0
C2227 C 0.74254 0.87448 0.49108 0.0
C2228 C 0.75622 0.86832 0.47175 0.0
C2229 C 0.74894 0.86771 0.4464 0.0
C2230 C 0.72812 0.87281 0.44063 0.0
C2231 C 0.71437 0.87849 0.46071 0.0
H2232 H 0.6316 0.76515 0.05676 0.0
H2233 H 0.61207 0.82862 0.07385 0.0
H2234 H 0.61534 0.83794 0.02761 0.0
H2235 H 0.66806 0.77732 0.00329 0.0
H2236 H 0.66014 0.75449 0.98539 0.0
H2237 H 0.65927 0.75425 0.02016 0.0
H2238 H 0.62021 0.74394 0.0178 0.0
H2239 H 0.62119 0.74466 0.98315 0.0
H2240 H 0.60249 0.7605 0.00018 0.0
H2241 H 0.61888 0.83964 0.97925 0.0
H2242 H 0.61849 0.83258 0.93225 0.0
H2243 H 0.63409 0.76756 0.94665 0.0
C2244 C 0.62851 0.78112 0.05073 0.0
C2245 C 0.62261 0.79652 0.0688 0.0
C2246 C 0.61758 0.81696 0.06029 0.0
C2247 C 0.61932 0.82232 0.03412 0.0
C2248 C 0.62578 0.80692 0.01676 0.0
C2249 C 0.63006 0.78665 0.02469 0.0
C2250 C 0.63442 0.77243 0.00195 0.0
C2251 C 0.65681 0.76413 0.00277 0.0
C2252 C 0.61863 0.75433 0.0007 0.0
C2253 C 0.63146 0.78771 0.97993 0.0
C2254 C 0.62695 0.80764 0.98887 0.0
C2255 C 0.62268 0.82417 0.97205 0.0
C2256 C 0.62262 0.82009 0.94546 0.0
C2257 C 0.6269 0.79972 0.93606 0.0
C2258 C 0.63133 0.78338 0.95349 0.0
H2259 H 0.21503 0.60905 0.93415 0.0
H2260 H 0.28107 0.622 0.93918 0.0
H2261 H 0.27796 0.62683 0.98596 0.0
H2262 H 0.19699 0.64284 0.97994 0.0
H2263 H 0.17865 0.6259 0.9964 0.0
H2264 H 0.18465 0.62174 0.96288 0.0
H2265 H 0.19666 0.5841 0.96992 0.0
H2266 H 0.18902 0.58642 0.00322 0.0
H2267 H 0.21501 0.57825 0.99516 0.0
H2268 H 0.26822 0.63047 0.03154 0.0
H2269 H 0.25294 0.62899 0.07509 0.0
H2270 H 0.19323 0.6125 0.0423 0.0
C2271 C 0.2288 0.61291 0.94515 0.0
C2272 C 0.24818 0.61583 0.93284 0.0
C2273 C 0.26597 0.62023 0.94796 0.0
C2274 C 0.26439 0.62295 0.97463 0.0
C2275 C 0.24502 0.62051 0.98607 0.0
C2276 C 0.22767 0.61489 0.97205 0.0
C2277 C 0.20907 0.61185 0.98958 0.0
C2278 C 0.19125 0.62649 0.98179 0.0
C2279 C 0.20203 0.58879 0.98946 0.0
C2280 C 0.21844 0.61781 0.01547 0.0
C2281 C 0.23931 0.62249 0.01284 0.0
C2282 C 0.25188 0.62704 0.0339 0.0
C2283 C 0.24308 0.62624 0.05848 0.0
C2284 C 0.22185 0.62139 0.06179 0.0
C2285 C 0.20929 0.61717 0.04005 0.0
H2286 H 0.37498 0.2435 0.05791 0.0
H2287 H 0.38349 0.17754 0.07479 0.0
H2288 H 0.3804 0.16918 0.02828 0.0
H2289 H 0.3385 0.23733 0.0024 0.0
H2290 H 0.35028 0.25893 0.98557 0.0
H2291 H 0.35006 0.25857 0.02035 0.0
H2292 H 0.39036 0.26301 0.01948 0.0
H2293 H 0.39021 0.26251 0.98479 0.0
H2294 H 0.40587 0.24397 0.00243 0.0
H2295 H 0.37827 0.16834 0.97992 0.0
H2296 H 0.38029 0.17534 0.93304 0.0
H2297 H 0.37419 0.24198 0.94742 0.0
C2298 C 0.37571 0.22728 0.05174 0.0
C2299 C 0.37844 0.21098 0.06982 0.0
C2300 C 0.38041 0.19005 0.06118 0.0
C2301 C 0.37876 0.18521 0.03486 0.0
C2302 C 0.37546 0.20158 0.01748 0.0
C2303 C 0.37411 0.22222 0.02554 0.0
C2304 C 0.3725 0.23705 0.00279 0.0
C2305 C 0.35159 0.24867 0.00281 0.0
C2306 C 0.39083 0.25254 0.00235 0.0
C2307 C 0.37369 0.2216 0.98068 0.0
C2308 C 0.37496 0.20118 0.98956 0.0
C2309 C 0.37698 0.18424 0.97276 0.0
C2310 C 0.37797 0.18832 0.94621 0.0
C2311 C 0.37674 0.2091 0.9368 0.0
C2312 C 0.37469 0.22592 0.95424 0.0
H2313 H 0.74755 0.39156 0.05779 0.0
H2314 H 0.81441 0.3968 0.06365 0.0
H2315 H 0.81711 0.39828 0.01607 0.0
H2316 H 0.74365 0.36057 -0.00054 0.0
H2317 H 0.7217 0.3753 0.98817 0.0
H2318 H 0.72653 0.37312 0.02228 0.0
H2319 H 0.72567 0.41429 0.02375 0.0
H2320 H 0.72243 0.4155 0.98926 0.0
H2321 H 0.74387 0.42888 0.00436 0.0
H2322 H 0.81265 0.39561 0.9683 0.0
H2323 H 0.80117 0.39445 0.92291 0.0
H2324 H 0.73686 0.39467 0.94808 0.0
C2325 C 0.76271 0.39284 0.0489 0.0
C2326 C 0.78092 0.39284 0.06397 0.0
C2327 C 0.80045 0.39563 0.05209 0.0
C2328 C 0.80209 0.39669 0.0252 0.0
C2329 C 0.78393 0.39562 0.01069 0.0
C2330 C 0.76457 0.39424 0.02207 0.0
C2331 C 0.74746 0.39469 0.00203 0.0
C2332 C 0.73406 0.37473 0.0031 0.0
C2333 C 0.73407 0.41452 0.00503 0.0
C2334 C 0.7603 0.39551 0.97761 0.0
C2335 C 0.78129 0.39597 0.98307 0.0
C2336 C 0.79625 0.3956 0.96372 0.0
C2337 C 0.78958 0.39482 0.93804 0.0
C2338 C 0.76813 0.39458 0.93196 0.0
C2339 C 0.75335 0.39509 0.95208 0.0
H2340 H 0.6184 0.18918 0.05742 0.0
H2341 H 0.63694 0.25393 0.06788 0.0
H2342 H 0.64309 0.25725 0.021 0.0
H2343 H 0.65177 0.17545 0.00226 0.0
H2344 H 0.63168 0.1608 0.98614 0.0
H2345 H 0.63204 0.1624 0.02088 0.0
H2346 H 0.59465 0.17711 0.02042 0.0
H2347 H 0.59422 0.17565 0.98576 0.0
H2348 H 0.58896 0.20023 0.00167 0.0
H2349 H 0.64257 0.25531 0.97355 0.0
H2350 H 0.63557 0.24818 0.92754 0.0
H2351 H 0.6172 0.18464 0.94637 0.0
C2352 C 0.62445 0.20377 0.04978 0.0
C2353 C 0.62805 0.2211 0.06612 0.0
C2354 C 0.63471 0.24038 0.05555 0.0
C2355 C 0.63825 0.24237 0.02903 0.0
C2356 C 0.63443 0.22509 0.01327 0.0
C2357 C 0.62748 0.20619 0.02314 0.0
C2358 C 0.62181 0.19111 0.00159 0.0
C2359 C 0.63511 0.17121 0.0028 0.0
C2360 C 0.59853 0.18572 0.00242 0.0
C2361 C 0.62703 0.20433 0.97812 0.0
C2362 C 0.63415 0.22393 0.98542 0.0
C2363 C 0.63763 0.23984 0.96753 0.0
C2364 C 0.63365 0.23567 0.9415 0.0
C2365 C 0.62689 0.2156 0.93348 0.0
C2366 C 0.6235 0.19972 0.95199 0.0
H2367 H 0.79076 0.60837 0.06188 0.0
H2368 H 0.72876 0.63458 0.06648 0.0
H2369 H 0.72945 0.64229 0.02021 0.0
H2370 H 0.81099 0.64418 0.01539 0.0
H2371 H 0.82544 0.62518 0.99671 0.0
H2372 H 0.82118 0.62104 0.03068 0.0
H2373 H 0.80379 0.58538 0.02288 0.0
H2374 H 0.809 0.58819 0.98894 0.0
H2375 H 0.78288 0.58333 -9e-05 0.0
H2376 H 0.73549 0.64536 0.97375 0.0
H2377 H 0.74596 0.64174 0.92823 0.0
H2378 H 0.80461 0.61467 0.95193 0.0
C2379 C 0.77737 0.61573 0.05305 0.0
C2380 C 0.75956 0.62067 0.06781 0.0
C2381 C 0.74232 0.63019 0.05561 0.0
C2382 C 0.74269 0.63491 0.0293 0.0
C2383 C 0.76041 0.62991 0.01531 0.0
C2384 C 0.77734 0.62025 0.02654 0.0
C2385 C 0.79387 0.61547 0.00651 0.0
C2386 C 0.81409 0.62718 0.01266 0.0
C2387 C 0.7976 0.59168 0.00443 0.0
C2388 C 0.78353 0.62402 0.98234 0.0
C2389 C 0.76424 0.63232 0.98807 0.0
C2390 C 0.75073 0.63936 0.969 0.0
C2391 C 0.75681 0.63733 0.94327 0.0
C2392 C 0.7764 0.62887 0.93683 0.0
C2393 C 0.79003 0.62224 0.95657 0.0
H2394 H 0.38923 0.81687 0.94703 0.0
H2395 H 0.36609 0.75611 0.92319 0.0
H2396 H 0.35828 0.7472 0.96854 0.0
H2397 H 0.41577 0.7961 0.00098 0.0
H2398 H 0.41196 0.81864 0.02143 0.0
H2399 H 0.41265 0.82178 0.98694 0.0
H2400 H 0.37662 0.83965 0.98809 0.0
H2401 H 0.37591 0.83661 0.02268 0.0
H2402 H 0.35526 0.82612 0.00313 0.0
H2403 H 0.35678 0.74311 0.01585 0.0
H2404 H 0.36231 0.74378 0.06304 0.0
H2405 H 0.38653 0.80701 0.05752 0.0
C2406 C 0.38176 0.80208 0.95145 0.0
C2407 C 0.37719 0.78754 0.93171 0.0
C2408 C 0.3689 0.76767 0.93811 0.0
C2409 C 0.36445 0.76251 0.96375 0.0
C2410 C 0.36903 0.77714 0.98287 0.0
C2411 C 0.37771 0.79645 0.97715 0.0
C2412 C 0.3838 0.80798 0.00164 0.0
C2413 C 0.40745 0.81131 0.00281 0.0
C2414 C 0.37221 0.82888 0.00403 0.0
C2415 C 0.3767 0.79239 0.02193 0.0
C2416 C 0.36835 0.77466 0.01059 0.0
C2417 C 0.36278 0.7571 0.02502 0.0
C2418 C 0.36598 0.75759 0.05172 0.0
C2419 C 0.37411 0.77569 0.06377 0.0
C2420 C 0.37944 0.79335 0.04875 0.0
H2421 H 0.25027 0.38087 0.93943 0.0
H2422 H 0.18419 0.38933 0.92849 0.0
H2423 H 0.17903 0.38922 0.97586 0.0
H2424 H 0.24837 0.34822 0.99778 0.0
H2425 H 0.27059 0.36113 0.01167 0.0
H2426 H 0.26813 0.35913 0.97713 0.0
H2427 H 0.27192 0.3997 0.97392 0.0
H2428 H 0.27381 0.4016 0.00847 0.0
H2429 H 0.25416 0.41624 0.99149 0.0
H2430 H 0.18142 0.38814 0.02446 0.0
H2431 H 0.19134 0.38996 0.0705 0.0
H2432 H 0.25633 0.38613 0.04897 0.0
C2433 C 0.23469 0.38222 0.94713 0.0
C2434 C 0.21743 0.38387 0.93061 0.0
C2435 C 0.19739 0.38681 0.94106 0.0
C2436 C 0.19438 0.38697 0.96785 0.0
C2437 C 0.2117 0.38477 0.98373 0.0
C2438 C 0.2315 0.38273 0.97375 0.0
C2439 C 0.24771 0.38255 0.99485 0.0
C2440 C 0.25938 0.3615 0.99537 0.0
C2441 C 0.26278 0.40113 0.992 0.0
C2442 C 0.23397 0.38502 0.01827 0.0
C2443 C 0.21323 0.38584 0.01152 0.0
C2444 C 0.19762 0.38761 0.02998 0.0
C2445 C 0.20339 0.38862 0.05603 0.0
C2446 C 0.2246 0.38827 0.06328 0.0
C2447 C 0.24002 0.38654 0.04406 0.0
H2448 H 0.19836 0.37032 0.2294 0.0
H2449 H 0.15473 0.35534 0.1684 0.0
H2450 H 0.13191 0.33782 0.20016 0.0
H2451 H 0.19554 0.32328 0.26097 0.0
H2452 H 0.19748 0.3339 0.2931 0.0
H2453 H 0.20861 0.34791 0.2664 0.0
H2454 H 0.18693 0.38085 0.27813 0.0
H2455 H 0.17583 0.36697 0.30508 0.0
H2456 H 0.15914 0.37868 0.28118 0.0
H2457 H 0.11621 0.31792 0.23813 0.0
H2458 H 0.10887 0.29872 0.27873 0.0
H2459 H 0.16297 0.32771 0.31379 0.0
C2460 C 0.18376 0.36382 0.22279 0.0
C2461 C 0.17829 0.3642 0.1965 0.0
C2462 C 0.15916 0.35533 0.18855 0.0
C2463 C 0.1461 0.34535 0.20643 0.0
C2464 C 0.1523 0.34466 0.23218 0.0
C2465 C 0.17058 0.35394 0.24034 0.0
C2466 C 0.17462 0.34978 0.26854 0.0
C2467 C 0.19528 0.33802 0.27246 0.0
C2468 C 0.17409 0.37029 0.28415 0.0
C2469 C 0.15622 0.33604 0.27479 0.0
C2470 C 0.14332 0.33338 0.25378 0.0
C2471 C 0.12604 0.32016 0.25482 0.0
C2472 C 0.12201 0.30929 0.27792 0.0
C2473 C 0.13536 0.31161 0.29945 0.0
C2474 C 0.15241 0.32547 0.29777 0.0
H2475 H 0.66643 0.16337 0.18135 0.0
H2476 H 0.61281 0.1935 0.2161 0.0
H2477 H 0.62059 0.17546 0.25736 0.0
H2478 H 0.66309 0.11339 0.21612 0.0
H2479 H 0.69093 0.1114 0.21869 0.0
H2480 H 0.67942 0.12458 0.19146 0.0
H2481 H 0.70105 0.15788 0.20164 0.0
H2482 H 0.71258 0.14487 0.22884 0.0
H2483 H 0.69937 0.16954 0.23326 0.0
H2484 H 0.63642 0.15612 0.29586 0.0
H2485 H 0.65933 0.13896 0.32789 0.0
H2486 H 0.70258 0.12284 0.26692 0.0
C2487 C 0.65603 0.16604 0.19742 0.0
C2488 C 0.63896 0.1799 0.1954 0.0
C2489 C 0.62593 0.18292 0.21711 0.0
C2490 C 0.63021 0.17269 0.24059 0.0
C2491 C 0.64746 0.15945 0.24192 0.0
C2492 C 0.6601 0.15613 0.2208 0.0
C2493 C 0.67862 0.14263 0.2274 0.0
C2494 C 0.67796 0.12176 0.21254 0.0
C2495 C 0.6991 0.15444 0.22251 0.0
C2496 C 0.67487 0.13929 0.25582 0.0
C2497 C 0.65665 0.14875 0.26386 0.0
C2498 C 0.65057 0.14849 0.28968 0.0
C2499 C 0.66366 0.13868 0.30772 0.0
C2500 C 0.68271 0.12957 0.29984 0.0
C2501 C 0.68808 0.12958 0.2735 0.0
H2502 H 0.81472 0.62304 0.22371 0.0
H2503 H 0.84263 0.65873 0.1617 0.0
H2504 H 0.867 0.67502 0.19289 0.0
H2505 H 0.81341 0.66133 0.26788 0.0
H2506 H 0.81949 0.64538 0.29557 0.0
H2507 H 0.80746 0.63368 0.26787 0.0
H2508 H 0.83747 0.60671 0.26443 0.0
H2509 H 0.84956 0.61823 0.29241 0.0
H2510 H 0.86392 0.61583 0.26272 0.0
H2511 H 0.88327 0.69226 0.23254 0.0
H2512 H 0.89108 0.70688 0.27575 0.0
H2513 H 0.85331 0.65811 0.31058 0.0
C2514 C 0.82645 0.63375 0.21659 0.0
C2515 C 0.82693 0.63965 0.19044 0.0
C2516 C 0.84227 0.65385 0.1817 0.0
C2517 C 0.85611 0.66319 0.19929 0.0
C2518 C 0.85466 0.65767 0.2253 0.0
C2519 C 0.84048 0.64286 0.23374 0.0
C2520 C 0.84056 0.64089 0.26274 0.0
C2521 C 0.81896 0.64562 0.27416 0.0
C2522 C 0.84835 0.61912 0.27106 0.0
C2523 C 0.85606 0.65776 0.26952 0.0
C2524 C 0.86431 0.66716 0.2478 0.0
C2525 C 0.8773 0.68465 0.24965 0.0
C2526 C 0.88163 0.69289 0.27428 0.0
C2527 C 0.87283 0.68369 0.29664 0.0
C2528 C 0.86043 0.66554 0.29401 0.0
H2529 H 0.34057 0.83376 0.18106 0.0
H2530 H 0.39115 0.79799 0.21475 0.0
H2531 H 0.38365 0.81422 0.25722 0.0
H2532 H 0.3456 0.88129 0.22087 0.0
H2533 H 0.31783 0.8845 0.22249 0.0
H2534 H 0.32952 0.87265 0.19447 0.0
H2535 H 0.306 0.83995 0.20023 0.0
H2536 H 0.29434 0.8516 0.22825 0.0
H2537 H 0.30624 0.82607 0.23053 0.0
H2538 H 0.36794 0.83223 0.29698 0.0
H2539 H 0.34482 0.84844 0.32968 0.0
H2540 H 0.30418 0.87028 0.2687 0.0
C2541 C 0.35045 0.82953 0.19714 0.0
C2542 C 0.3665 0.81459 0.19449 0.0
C2543 C 0.37882 0.80948 0.21625 0.0
C2544 C 0.3747 0.81866 0.24043 0.0
C2545 C 0.3583 0.83291 0.24239 0.0
C2546 C 0.34644 0.83829 0.22119 0.0
C2547 C 0.3284 0.85221 0.22839 0.0
C2548 C 0.33048 0.87395 0.21581 0.0
C2549 C 0.30753 0.84183 0.22145 0.0
C2550 C 0.33147 0.8534 0.25716 0.0
C2551 C 0.34901 0.84259 0.26497 0.0
C2552 C 0.35432 0.84089 0.29099 0.0
C2553 C 0.34115 0.85015 0.3094 0.0
C2554 C 0.32275 0.86051 0.3016 0.0
C2555 C 0.31815 0.86243 0.27517 0.0
H2556 H 0.20138 0.6236 0.77342 0.0
H2557 H 0.1666 0.65267 0.8354 0.0
H2558 H 0.14152 0.66683 0.80347 0.0
H2559 H 0.1987 0.66404 0.73102 0.0
H2560 H 0.19611 0.64821 0.70239 0.0
H2561 H 0.20893 0.63771 0.7303 0.0
H2562 H 0.18346 0.60619 0.73089 0.0
H2563 H 0.17062 0.61652 0.70273 0.0
H2564 H 0.15588 0.61094 0.73147 0.0
H2565 H 0.12357 0.68212 0.76347 0.0
H2566 H 0.11398 0.69558 0.72019 0.0
H2567 H 0.16066 0.65515 0.68586 0.0
C2568 C 0.18818 0.63251 0.78036 0.0
C2569 C 0.18585 0.63709 0.80676 0.0
C2570 C 0.16849 0.64886 0.81518 0.0
C2571 C 0.15422 0.65696 0.79719 0.0
C2572 C 0.15741 0.65274 0.77105 0.0
C2573 C 0.17382 0.64044 0.76281 0.0
C2574 C 0.17499 0.63938 0.73378 0.0
C2575 C 0.19591 0.64785 0.72381 0.0
C2576 C 0.17099 0.61692 0.72416 0.0
C2577 C 0.15728 0.65379 0.72683 0.0
C2578 C 0.14708 0.66122 0.74842 0.0
C2579 C 0.13121 0.67607 0.74644 0.0
C2580 C 0.12589 0.68366 0.7218 0.0
C2581 C 0.13659 0.67648 0.69959 0.0
C2582 C 0.15212 0.66102 0.70234 0.0
H2583 H 0.29395 0.12517 0.73251 0.0
H2584 H 0.33817 0.14022 0.67222 0.0
H2585 H 0.36177 0.15561 0.70483 0.0
H2586 H 0.29922 0.17079 0.76731 0.0
H2587 H 0.29684 0.15874 0.79862 0.0
H2588 H 0.28489 0.14668 0.77103 0.0
H2589 H 0.30485 0.11211 0.78015 0.0
H2590 H 0.31679 0.12405 0.80795 0.0
H2591 H 0.33273 0.11264 0.78305 0.0
H2592 H 0.37838 0.17335 0.74394 0.0
H2593 H 0.38693 0.19007 0.7858 0.0
H2594 H 0.33181 0.16189 0.81941 0.0
C2595 C 0.30878 0.13131 0.7262 0.0
C2596 C 0.31426 0.13154 0.69991 0.0
C2597 C 0.33375 0.13979 0.69236 0.0
C2598 C 0.34724 0.14857 0.71073 0.0
C2599 C 0.34109 0.14862 0.73652 0.0
C2600 C 0.32242 0.1399 0.74422 0.0
C2601 C 0.31874 0.14288 0.77272 0.0
C2602 C 0.29875 0.15553 0.77769 0.0
C2603 C 0.31826 0.12165 0.78679 0.0
C2604 C 0.33786 0.15531 0.77975 0.0
C2605 C 0.35072 0.1584 0.75879 0.0
C2606 C 0.36859 0.17071 0.76058 0.0
C2607 C 0.3733 0.18019 0.7844 0.0
C2608 C 0.3601 0.17731 0.80598 0.0
C2609 C 0.34238 0.1644 0.80347 0.0
H2610 H 0.82976 0.32629 0.68353 0.0
H2611 H 0.88942 0.30875 0.71612 0.0
H2612 H 0.87967 0.32645 0.75701 0.0
H2613 H 0.82564 0.37713 0.7132 0.0
H2614 H 0.79802 0.37472 0.71791 0.0
H2615 H 0.81035 0.36156 0.69125 0.0
H2616 H 0.79517 0.32601 0.70666 0.0
H2617 H 0.78273 0.33904 0.73327 0.0
H2618 H 0.80003 0.31735 0.73921 0.0
H2619 H 0.86212 0.34528 0.79502 0.0
H2620 H 0.83835 0.3619 0.82653 0.0
H2621 H 0.79087 0.36638 0.76743 0.0
C2622 C 0.84097 0.32615 0.69909 0.0
C2623 C 0.86041 0.31608 0.69654 0.0
C2624 C 0.87444 0.31635 0.7176 0.0
C2625 C 0.86905 0.32642 0.74084 0.0
C2626 C 0.84966 0.33615 0.74256 0.0
C2627 C 0.8359 0.33601 0.72216 0.0
C2628 C 0.81571 0.34674 0.7288 0.0
C2629 C 0.81224 0.36619 0.71178 0.0
C2630 C 0.79734 0.33136 0.72688 0.0
C2631 C 0.82003 0.35281 0.75638 0.0
C2632 C 0.83972 0.34677 0.76404 0.0
C2633 C 0.84675 0.35018 0.78912 0.0
C2634 C 0.83316 0.35966 0.80685 0.0
C2635 C 0.81278 0.36547 0.79937 0.0
C2636 C 0.80637 0.36225 0.7737 0.0
H2637 H 0.68929 0.83444 0.6936 0.0
H2638 H 0.66766 0.89861 0.69707 0.0
H2639 H 0.64444 0.88934 0.73347 0.0
H2640 H 0.63836 0.80863 0.71519 0.0
H2641 H 0.65253 0.78914 0.73321 0.0
H2642 H 0.6633 0.79971 0.70386 0.0
H2643 H 0.6966 0.81019 0.72873 0.0
H2644 H 0.68589 0.80004 0.75814 0.0
H2645 H 0.69449 0.82693 0.75666 0.0
H2646 H 0.63003 0.87502 0.77457 0.0
H2647 H 0.62378 0.85623 0.81568 0.0
H2648 H 0.65406 0.80103 0.78493 0.0
C2649 C 0.67883 0.84619 0.70128 0.0
C2650 C 0.67965 0.86703 0.6924 0.0
C2651 C 0.66663 0.88243 0.70336 0.0
C2652 C 0.65349 0.87728 0.72401 0.0
C2653 C 0.65354 0.85665 0.73309 0.0
C2654 C 0.6656 0.84123 0.72173 0.0
C2655 C 0.66489 0.82098 0.73695 0.0
C2656 C 0.65412 0.80359 0.72138 0.0
C2657 C 0.68676 0.81416 0.74563 0.0
C2658 C 0.6517 0.82777 0.75957 0.0
C2659 C 0.64498 0.84829 0.75679 0.0
C2660 C 0.63462 0.85877 0.77659 0.0
C2661 C 0.63122 0.84808 0.79985 0.0
C2662 C 0.63815 0.82721 0.80294 0.0
C2663 C 0.64816 0.81682 0.7825 0.0
H2664 H 0.86426 0.69983 0.71785 0.0
H2665 H 0.85061 0.64515 0.67105 0.0
H2666 H 0.84029 0.62559 0.70988 0.0
H2667 H 0.88194 0.67111 0.77719 0.0
H2668 H 0.86925 0.68947 0.79841 0.0
H2669 H 0.87917 0.69818 0.7677 0.0
H2670 H 0.8428 0.71253 0.75574 0.0
H2671 H 0.83276 0.7038 0.78628 0.0
H2672 H 0.82072 0.69518 0.75674 0.0
H2673 H 0.82785 0.61318 0.75203 0.0
H2674 H 0.81284 0.60878 0.79525 0.0
H2675 H 0.8329 0.67173 0.8157 0.0
C2676 C 0.85974 0.68353 0.71603 0.0
C2677 C 0.85856 0.67383 0.69156 0.0
C2678 C 0.85183 0.65276 0.68965 0.0
C2679 C 0.846 0.6415 0.71161 0.0
C2680 C 0.84679 0.65159 0.73539 0.0
C2681 C 0.85345 0.67213 0.73784 0.0
C2682 C 0.85046 0.6799 0.76527 0.0
C2683 C 0.87146 0.68496 0.77789 0.0
C2684 C 0.83581 0.69898 0.76603 0.0
C2685 C 0.84052 0.66075 0.77752 0.0
C2686 C 0.83892 0.64452 0.75997 0.0
C2687 C 0.82923 0.62566 0.76608 0.0
C2688 C 0.82065 0.62336 0.79069 0.0
C2689 C 0.82165 0.6399 0.80895 0.0
C2690 C 0.83207 0.6587 0.80232 0.0
H2691 H 0.33504 0.83837 0.80918 0.0
H2692 H 0.39129 0.80794 0.78193 0.0
H2693 H 0.38247 0.81794 0.73734 0.0
H2694 H 0.30279 0.8225 0.75852 0.0
H2695 H 0.28835 0.84668 0.7566 0.0
H2696 H 0.29988 0.83882 0.7867 0.0
H2697 H 0.3197 0.87414 0.78923 0.0
H2698 H 0.30812 0.88219 0.75917 0.0
H2699 H 0.33596 0.8821 0.76268 0.0
H2700 H 0.36601 0.82797 0.69569 0.0
H2701 H 0.34395 0.83919 0.65949 0.0
H2702 H 0.29876 0.8642 0.71353 0.0
C2703 C 0.34568 0.83403 0.79391 0.0
C2704 C 0.36387 0.82231 0.79911 0.0
C2705 C 0.37731 0.81696 0.77851 0.0
C2706 C 0.37243 0.82256 0.75309 0.0
C2707 C 0.35419 0.83371 0.74862 0.0
C2708 C 0.34112 0.83961 0.76845 0.0
C2709 C 0.32208 0.85088 0.75827 0.0
C2710 C 0.3021 0.839 0.76545 0.0
C2711 C 0.32144 0.87368 0.76791 0.0
C2712 C 0.32623 0.8499 0.72955 0.0
C2713 C 0.34487 0.83997 0.72446 0.0
C2714 C 0.35154 0.83604 0.69941 0.0
C2715 C 0.33882 0.8424 0.67898 0.0
C2716 C 0.31966 0.85269 0.68366 0.0
C2717 C 0.31344 0.85665 0.70933 0.0
H2718 H 0.13682 0.30387 0.71353 0.0
H2719 H 0.15645 0.35398 0.66246 0.0
H2720 H 0.16873 0.3744 0.6996 0.0
H2721 H 0.12239 0.33771 0.77017 0.0
H2722 H 0.13302 0.3193 0.79301 0.0
H2723 H 0.1222 0.31002 0.76304 0.0
H2724 H 0.15679 0.29107 0.75269 0.0
H2725 H 0.16775 0.30039 0.78248 0.0
H2726 H 0.18062 0.3059 0.75236 0.0
H2727 H 0.18236 0.38776 0.7406 0.0
H2728 H 0.19741 0.39317 0.78361 0.0
H2729 H 0.17075 0.33405 0.80914 0.0
C2730 C 0.14307 0.31944 0.7104 0.0
C2731 C 0.1453 0.32756 0.68521 0.0
C2732 C 0.1543 0.34762 0.68161 0.0
C2733 C 0.16131 0.35937 0.70261 0.0
C2734 C 0.15943 0.35077 0.72713 0.0
C2735 C 0.15057 0.33129 0.73126 0.0
C2736 C 0.15272 0.32482 0.7593 0.0
C2737 C 0.1313 0.32285 0.77214 0.0
C2738 C 0.16522 0.30434 0.76184 0.0
C2739 C 0.16468 0.34342 0.76995 0.0
C2740 C 0.16804 0.35831 0.75109 0.0
C2741 C 0.17964 0.37635 0.75568 0.0
C2742 C 0.18822 0.37922 0.7802 0.0
C2743 C 0.18532 0.36404 0.79986 0.0
C2744 C 0.17313 0.34603 0.79465 0.0
H2745 H 0.70149 0.13539 0.7146 0.0
H2746 H 0.6619 0.16796 0.6599 0.0
H2747 H 0.64102 0.18199 0.69571 0.0
H2748 H 0.6613 0.12275 0.76201 0.0
H2749 H 0.67798 0.12775 0.78924 0.0
H2750 H 0.6889 0.11866 0.75925 0.0
H2751 H 0.71356 0.15078 0.75829 0.0
H2752 H 0.70274 0.15993 0.78826 0.0
H2753 H 0.70279 0.17684 0.7604 0.0
H2754 H 0.62479 0.19318 0.73716 0.0
H2755 H 0.61595 0.20304 0.78184 0.0
H2756 H 0.66699 0.16482 0.80997 0.0
C2757 C 0.68826 0.14524 0.71019 0.0
C2758 C 0.68322 0.15041 0.68443 0.0
C2759 C 0.66605 0.16372 0.67945 0.0
C2760 C 0.65401 0.17172 0.69966 0.0
C2761 C 0.65944 0.16646 0.72481 0.0
C2762 C 0.67624 0.15369 0.73021 0.0
C2763 C 0.67954 0.1517 0.75905 0.0
C2764 C 0.67676 0.12885 0.7679 0.0
C2765 C 0.70092 0.16033 0.76696 0.0
C2766 C 0.66211 0.16552 0.76892 0.0
C2767 C 0.65052 0.17361 0.74885 0.0
C2768 C 0.63372 0.18693 0.75308 0.0
C2769 C 0.62878 0.1924 0.77854 0.0
C2770 C 0.6408 0.18478 0.79942 0.0
C2771 C 0.65755 0.17099 0.79444 0.0
H2772 H 0.80142 0.36682 0.21305 0.0
H2773 H 0.84903 0.34524 0.16012 0.0
H2774 H 0.86793 0.32892 0.19626 0.0
H2775 H 0.83606 0.37649 0.26914 0.0
H2776 H 0.81711 0.36685 0.29181 0.0
H2777 H 0.80874 0.37925 0.26235 0.0
H2778 H 0.78701 0.34629 0.25107 0.0
H2779 H 0.79548 0.3337 0.2803 0.0
H2780 H 0.79957 0.32103 0.24963 0.0
H2781 H 0.88019 0.3125 0.23722 0.0
H2782 H 0.8852 0.29738 0.28059 0.0
H2783 H 0.82906 0.32865 0.30673 0.0
C2784 C 0.81612 0.35918 0.20923 0.0
C2785 C 0.82387 0.35746 0.18385 0.0
C2786 C 0.84286 0.34681 0.17945 0.0
C2787 C 0.85373 0.33751 0.19985 0.0
C2788 C 0.84537 0.33893 0.22453 0.0
C2789 C 0.82706 0.34956 0.22937 0.0
C2790 C 0.82066 0.34732 0.25734 0.0
C2791 C 0.82065 0.36875 0.27096 0.0
C2792 C 0.79942 0.33643 0.25971 0.0
C2793 C 0.838 0.33344 0.26726 0.0
C2794 C 0.8522 0.32897 0.24811 0.0
C2795 C 0.86927 0.31602 0.25247 0.0
C2796 C 0.87194 0.30745 0.27716 0.0
C2797 C 0.85751 0.31174 0.2971 0.0
C2798 C 0.84035 0.32496 0.29194 0.0
H2799 H 0.66147 0.83498 0.19798 0.0
H2800 H 0.61008 0.79506 0.22113 0.0
H2801 H 0.61505 0.80618 0.26635 0.0
H2802 H 0.69352 0.8241 0.25074 0.0
H2803 H 0.70385 0.85031 0.25328 0.0
H2804 H 0.69496 0.84066 0.22261 0.0
H2805 H 0.67001 0.87243 0.21861 0.0
H2806 H 0.67879 0.88214 0.24939 0.0
H2807 H 0.65153 0.87756 0.24394 0.0
H2808 H 0.62756 0.81937 0.30945 0.0
H2809 H 0.64693 0.83302 0.34694 0.0
H2810 H 0.68973 0.86466 0.29528 0.0
C2811 C 0.65107 0.82869 0.21244 0.0
C2812 C 0.63537 0.8141 0.2059 0.0
C2813 C 0.6222 0.80627 0.22557 0.0
C2814 C 0.62486 0.81255 0.25133 0.0
C2815 C 0.64062 0.82679 0.25707 0.0
C2816 C 0.65346 0.83481 0.23815 0.0
C2817 C 0.66997 0.84897 0.24948 0.0
C2818 C 0.69186 0.8405 0.24369 0.0
C2819 C 0.66741 0.87162 0.23978 0.0
C2820 C 0.66478 0.84726 0.27787 0.0
C2821 C 0.64769 0.83455 0.28184 0.0
C2822 C 0.64079 0.82956 0.30655 0.0
C2823 C 0.65192 0.83737 0.32773 0.0
C2824 C 0.66978 0.85004 0.32409 0.0
C2825 C 0.67593 0.85537 0.29876 0.0
H2826 H 0.16321 0.67045 0.30444 0.0
H2827 H 0.11384 0.71252 0.28018 0.0
H2828 H 0.1175 0.69963 0.23553 0.0
H2829 H 0.195 0.67679 0.24914 0.0
H2830 H 0.20334 0.64979 0.24839 0.0
H2831 H 0.19613 0.66172 0.27854 0.0
H2832 H 0.16922 0.63214 0.28621 0.0
H2833 H 0.17622 0.62022 0.25591 0.0
H2834 H 0.14957 0.62714 0.26222 0.0
H2835 H 0.12762 0.6835 0.19332 0.0
H2836 H 0.14443 0.66634 0.15615 0.0
H2837 H 0.1867 0.63419 0.20801 0.0
C2838 C 0.15312 0.677 0.2898 0.0
C2839 C 0.13825 0.69257 0.2959 0.0
C2840 C 0.12536 0.70061 0.27606 0.0
C2841 C 0.12725 0.69332 0.25064 0.0
C2842 C 0.14199 0.67789 0.24539 0.0
C2843 C 0.15473 0.66985 0.26439 0.0
C2844 C 0.16981 0.65389 0.2535 0.0
C2845 C 0.1924 0.66098 0.25763 0.0
C2846 C 0.16596 0.63205 0.26516 0.0
C2847 C 0.16384 0.65451 0.22527 0.0
C2848 C 0.14765 0.66834 0.22106 0.0
C2849 C 0.14016 0.67248 0.1964 0.0
C2850 C 0.14981 0.66265 0.17542 0.0
C2851 C 0.16677 0.64881 0.17921 0.0
C2852 C 0.17351 0.64435 0.20455 0.0
H2853 H 0.30447 0.13399 0.28729 0.0
H2854 H 0.34251 0.16637 0.34378 0.0
H2855 H 0.36245 0.18301 0.30877 0.0
H2856 H 0.34534 0.1258 0.23861 0.0
H2857 H 0.32799 0.13084 0.21205 0.0
H2858 H 0.31812 0.11966 0.24152 0.0
H2859 H 0.29133 0.14988 0.245 0.0
H2860 H 0.30116 0.16117 0.21563 0.0
H2861 H 0.30027 0.17668 0.24468 0.0
H2862 H 0.37718 0.19758 0.26778 0.0
H2863 H 0.38464 0.21002 0.2236 0.0
H2864 H 0.33614 0.16926 0.19396 0.0
C2865 C 0.31727 0.14424 0.29225 0.0
C2866 C 0.32205 0.14874 0.31825 0.0
C2867 C 0.33859 0.16266 0.32399 0.0
C2868 C 0.35007 0.17214 0.30425 0.0
C2869 C 0.34475 0.16768 0.27883 0.0
C2870 C 0.32872 0.1541 0.27275 0.0
C2871 C 0.3252 0.15322 0.2439 0.0
C2872 C 0.32942 0.13106 0.23341 0.0
C2873 C 0.30318 0.16069 0.2369 0.0
C2874 C 0.34152 0.16864 0.23482 0.0
C2875 C 0.35282 0.1766 0.25521 0.0
C2876 C 0.3685 0.19139 0.25161 0.0
C2877 C 0.37263 0.19836 0.22645 0.0
C2878 C 0.36094 0.19071 0.20531 0.0
C2879 C 0.34531 0.17553 0.20969 0.0
loop_
_geom_bond_atom_site_label_1
_geom_bond_atom_site_label_2
_geom_bond_distance
_geom_bond_site_symmetry_2
_ccdc_geom_bond_type
Mn0 O5 2.095 . S
Mn0 O15 2.162 . S
Mn0 O16 2.297 . S
Mn0 O24 2.385 . S
Mn0 O25 2.209 . S
Mn0 O26 2.094 . S
Mn1 O6 2.121 . S
Mn1 N8 2.257 . S
Mn1 N17 2.282 . S
Mn1 O25 2.215 . S
Mn1 O27 2.117 . S
C2 O24 1.234 . S
C2 O25 1.283 . S
C3 O15 1.281 . S
C3 O16 1.236 . S
C4 O26 1.240 . S
C4 O27 1.264 . S
O5 Mn0 2.095 . S
O5 C14 1.250 . S
O6 Mn1 2.121 . S
O6 C14 1.258 . S
C7 N8 1.326 . S
C7 C11 1.460 . S
C7 H13 0.929 . S
N8 Mn1 2.257 . S
N8 C7 1.326 . S
N8 C12 1.362 . S
C9 C10 1.258 . S
C9 C12 1.431 . S
C9 C29 1.449 . S
C10 C9 1.258 . S
C10 C11 1.477 . S
C10 H30 0.931 . S
C11 C7 1.460 . S
C11 C10 1.477 . S
C11 H31 0.930 . S
C12 N8 1.362 . S
C12 C9 1.431 . S
C12 C22 1.476 . S
H13 C7 0.929 . S
C14 O5 1.250 . S
C14 O6 1.258 . S
O15 Mn0 2.162 . S
O15 C3 1.281 . S
O16 Mn0 2.297 . S
O16 C3 1.236 . S
N17 Mn1 2.282 . S
N17 C18 1.328 . S
N17 C22 1.318 . S
C18 N17 1.328 . S
C18 C19 1.457 . S
C18 H23 0.929 . S
C19 C18 1.457 . S
C19 C20 1.291 . S
C19 H32 0.931 . S
C20 C19 1.291 . S
C20 C21 1.373 . S
C20 H33 0.929 . S
C21 C20 1.373 . S
C21 C22 1.396 . S
C21 C28 1.403 . S
C22 C12 1.476 . S
C22 N17 1.318 . S
C22 C21 1.396 . S
H23 C18 0.929 . S
O24 Mn0 2.385 . S
O24 C2 1.234 . S
O25 Mn0 2.209 . S
O25 Mn1 2.215 . S
O25 C2 1.283 . S
O26 Mn0 2.094 . S
O26 C4 1.240 . S
O27 Mn1 2.117 . S
O27 C4 1.264 . S
C28 C21 1.403 . S
C28 C29 1.399 . S
C28 H34 0.929 . S
C29 C9 1.449 . S
C29 C28 1.399 . S
C29 H35 0.930 . S
H30 C10 0.931 . S
H31 C11 0.930 . S
H32 C19 0.931 . S
H33 C20 0.929 . S
H34 C28 0.929 . S
H35 C29 0.930 . S
Mn36 O41 2.095 . S
Mn36 O51 2.162 . S
Mn36 O52 2.297 . S
Mn36 O60 2.385 . S
Mn36 O61 2.209 . S
Mn36 O62 2.094 . S
Mn37 O42 2.121 . S
Mn37 N44 2.257 . S
Mn37 N53 2.282 . S
Mn37 O61 2.215 . S
Mn37 O63 2.117 . S
C38 O60 1.234 . S
C38 O61 1.283 . S
C39 O51 1.281 . S
C39 O52 1.236 . S
C40 O62 1.240 . S
C40 O63 1.264 . S
O41 Mn36 2.095 . S
O41 C50 1.250 . S
O42 Mn37 2.121 . S
O42 C50 1.258 . S
C43 N44 1.326 . S
C43 C47 1.460 . S
C43 H49 0.929 . S
N44 Mn37 2.257 . S
N44 C43 1.326 . S
N44 C48 1.362 . S
C45 C46 1.258 . S
C45 C48 1.431 . S
C45 C65 1.449 . S
C46 C45 1.258 . S
C46 C47 1.477 . S
C46 H66 0.931 . S
C47 C43 1.460 . S
C47 C46 1.477 . S
C47 H67 0.930 . S
C48 N44 1.362 . S
C48 C45 1.431 . S
C48 C58 1.476 . S
H49 C43 0.929 . S
C50 O41 1.250 . S
C50 O42 1.258 . S
O51 Mn36 2.162 . S
O51 C39 1.281 . S
O52 Mn36 2.297 . S
O52 C39 1.236 . S
N53 Mn37 2.282 . S
N53 C54 1.328 . S
N53 C58 1.318 . S
C54 N53 1.328 . S
C54 C55 1.457 . S
C54 H59 0.929 . S
C55 C54 1.457 . S
C55 C56 1.291 . S
C55 H68 0.931 . S
C56 C55 1.291 . S
C56 C57 1.373 . S
C56 H69 0.929 . S
C57 C56 1.373 . S
C57 C58 1.396 . S
C57 C64 1.403 . S
C58 C48 1.476 . S
C58 N53 1.318 . S
C58 C57 1.396 . S
H59 C54 0.929 . S
O60 Mn36 2.385 . S
O60 C38 1.234 . S
O61 Mn36 2.209 . S
O61 Mn37 2.215 . S
O61 C38 1.283 . S
O62 Mn36 2.094 . S
O62 C40 1.240 . S
O63 Mn37 2.117 . S
O63 C40 1.264 . S
C64 C57 1.403 . S
C64 C65 1.399 . S
C64 H70 0.929 . S
C65 C45 1.449 . S
C65 C64 1.399 . S
C65 H71 0.930 . S
H66 C46 0.931 . S
H67 C47 0.930 . S
H68 C55 0.931 . S
H69 C56 0.929 . S
H70 C64 0.929 . S
H71 C65 0.930 . S
Mn72 O77 2.095 . S
Mn72 O87 2.162 . S
Mn72 O88 2.297 . S
Mn72 O96 2.385 . S
Mn72 O97 2.209 . S
Mn72 O98 2.094 . S
Mn73 O78 2.121 . S
Mn73 N80 2.257 . S
Mn73 N89 2.282 . S
Mn73 O97 2.215 . S
Mn73 O99 2.117 . S
C74 O96 1.234 . S
C74 O97 1.283 . S
C75 O87 1.281 . S
C75 O88 1.236 . S
C76 O98 1.240 . S
C76 O99 1.264 . S
O77 Mn72 2.095 . S
O77 C86 1.250 . S
O78 Mn73 2.121 . S
O78 C86 1.258 . S
C79 N80 1.326 . S
C79 C83 1.460 . S
C79 H85 0.929 . S
N80 Mn73 2.257 . S
N80 C79 1.326 . S
N80 C84 1.362 . S
C81 C82 1.258 . S
C81 C84 1.431 . S
C81 C101 1.449 . S
C82 C81 1.258 . S
C82 C83 1.477 . S
C82 H102 0.931 . S
C83 C79 1.460 . S
C83 C82 1.477 . S
C83 H103 0.930 . S
C84 N80 1.362 . S
C84 C81 1.431 . S
C84 C94 1.476 . S
H85 C79 0.929 . S
C86 O77 1.250 . S
C86 O78 1.258 . S
O87 Mn72 2.162 . S
O87 C75 1.281 . S
O88 Mn72 2.297 . S
O88 C75 1.236 . S
N89 Mn73 2.282 . S
N89 C90 1.328 . S
N89 C94 1.318 . S
C90 N89 1.328 . S
C90 C91 1.457 . S
C90 H95 0.929 . S
C91 C90 1.457 . S
C91 C92 1.291 . S
C91 H104 0.931 . S
C92 C91 1.291 . S
C92 C93 1.373 . S
C92 H105 0.929 . S
C93 C92 1.373 . S
C93 C94 1.396 . S
C93 C100 1.403 . S
C94 C84 1.476 . S
C94 N89 1.318 . S
C94 C93 1.396 . S
H95 C90 0.929 . S
O96 Mn72 2.385 . S
O96 C74 1.234 . S
O97 Mn72 2.209 . S
O97 Mn73 2.215 . S
O97 C74 1.283 . S
O98 Mn72 2.094 . S
O98 C76 1.240 . S
O99 Mn73 2.117 . S
O99 C76 1.264 . S
C100 C93 1.403 . S
C100 C101 1.399 . S
C100 H106 0.929 . S
C101 C81 1.449 . S
C101 C100 1.399 . S
C101 H107 0.930 . S
H102 C82 0.931 . S
H103 C83 0.930 . S
H104 C91 0.931 . S
H105 C92 0.929 . S
H106 C100 0.929 . S
H107 C101 0.930 . S
Mn108 O113 2.095 . S
Mn108 O123 2.162 . S
Mn108 O124 2.297 . S
Mn108 O132 2.385 . S
Mn108 O133 2.209 . S
Mn108 O134 2.094 . S
Mn109 O114 2.121 . S
Mn109 N116 2.257 . S
Mn109 N125 2.282 . S
Mn109 O133 2.215 . S
Mn109 O135 2.117 . S
C110 O132 1.234 . S
C110 O133 1.283 . S
C111 O123 1.281 . S
C111 O124 1.236 . S
C112 O134 1.240 . S
C112 O135 1.264 . S
O113 Mn108 2.095 . S
O113 C122 1.250 . S
O114 Mn109 2.121 . S
O114 C122 1.258 . S
C115 N116 1.326 . S
C115 C119 1.460 . S
C115 H121 0.929 . S
N116 Mn109 2.257 . S
N116 C115 1.326 . S
N116 C120 1.362 . S
C117 C118 1.258 . S
C117 C120 1.431 . S
C117 C137 1.449 . S
C118 C117 1.258 . S
C118 C119 1.477 . S
C118 H138 0.931 . S
C119 C115 1.460 . S
C119 C118 1.477 . S
C119 H139 0.930 . S
C120 N116 1.362 . S
C120 C117 1.431 . S
C120 C130 1.476 . S
H121 C115 0.929 . S
C122 O113 1.250 . S
C122 O114 1.258 . S
O123 Mn108 2.162 . S
O123 C111 1.281 . S
O124 Mn108 2.297 . S
O124 C111 1.236 . S
N125 Mn109 2.282 . S
N125 C126 1.328 . S
N125 C130 1.318 . S
C126 N125 1.328 . S
C126 C127 1.457 . S
C126 H131 0.929 . S
C127 C126 1.457 . S
C127 C128 1.291 . S
C127 H140 0.931 . S
C128 C127 1.291 . S
C128 C129 1.373 . S
C128 H141 0.929 . S
C129 C128 1.373 . S
C129 C130 1.396 . S
C129 C136 1.403 . S
C130 C120 1.476 . S
C130 N125 1.318 . S
C130 C129 1.396 . S
H131 C126 0.929 . S
O132 Mn108 2.385 . S
O132 C110 1.234 . S
O133 Mn108 2.209 . S
O133 Mn109 2.215 . S
O133 C110 1.283 . S
O134 Mn108 2.094 . S
O134 C112 1.240 . S
O135 Mn109 2.117 . S
O135 C112 1.264 . S
C136 C129 1.403 . S
C136 C137 1.399 . S
C136 H142 0.929 . S
C137 C117 1.449 . S
C137 C136 1.399 . S
C137 H143 0.930 . S
H138 C118 0.931 . S
H139 C119 0.930 . S
H140 C127 0.931 . S
H141 C128 0.929 . S
H142 C136 0.929 . S
H143 C137 0.930 . S
Mn144 O149 2.095 . S
Mn144 O159 2.162 . S
Mn144 O160 2.297 . S
Mn144 O168 2.385 . S
Mn144 O169 2.209 . S
Mn144 O170 2.094 . S
Mn145 O150 2.121 . S
Mn145 N152 2.257 . S
Mn145 N161 2.282 . S
Mn145 O169 2.215 . S
Mn145 O171 2.117 . S
C146 O168 1.234 . S
C146 O169 1.283 . S
C147 O159 1.281 . S
C147 O160 1.236 . S
C148 O170 1.240 . S
C148 O171 1.264 . S
O149 Mn144 2.095 . S
O149 C158 1.250 . S
O150 Mn145 2.121 . S
O150 C158 1.258 . S
C151 N152 1.326 . S
C151 C155 1.460 . S
C151 H157 0.929 . S
N152 Mn145 2.257 . S
N152 C151 1.326 . S
N152 C156 1.362 . S
C153 C154 1.258 . S
C153 C156 1.431 . S
C153 C173 1.449 . S
C154 C153 1.258 . S
C154 C155 1.477 . S
C154 H174 0.931 . S
C155 C151 1.460 . S
C155 C154 1.477 . S
C155 H175 0.930 . S
C156 N152 1.362 . S
C156 C153 1.431 . S
C156 C166 1.476 . S
H157 C151 0.929 . S
C158 O149 1.250 . S
C158 O150 1.258 . S
O159 Mn144 2.162 . S
O159 C147 1.281 . S
O160 Mn144 2.297 . S
O160 C147 1.236 . S
N161 Mn145 2.282 . S
N161 C162 1.328 . S
N161 C166 1.318 . S
C162 N161 1.328 . S
C162 C163 1.457 . S
C162 H167 0.929 . S
C163 C162 1.457 . S
C163 C164 1.291 . S
C163 H176 0.931 . S
C164 C163 1.291 . S
C164 C165 1.373 . S
C164 H177 0.929 . S
C165 C164 1.373 . S
C165 C166 1.396 . S
C165 C172 1.403 . S
C166 C156 1.476 . S
C166 N161 1.318 . S
C166 C165 1.396 . S
H167 C162 0.929 . S
O168 Mn144 2.385 . S
O168 C146 1.234 . S
O169 Mn144 2.209 . S
O169 Mn145 2.215 . S
O169 C146 1.283 . S
O170 Mn144 2.094 . S
O170 C148 1.240 . S
O171 Mn145 2.117 . S
O171 C148 1.264 . S
C172 C165 1.403 . S
C172 C173 1.399 . S
C172 H178 0.929 . S
C173 C153 1.449 . S
C173 C172 1.399 . S
C173 H179 0.930 . S
H174 C154 0.931 . S
H175 C155 0.930 . S
H176 C163 0.931 . S
H177 C164 0.929 . S
H178 C172 0.929 . S
H179 C173 0.930 . S
Mn180 O185 2.095 . S
Mn180 O195 2.162 . S
Mn180 O196 2.297 . S
Mn180 O204 2.385 . S
Mn180 O205 2.209 . S
Mn180 O206 2.094 . S
Mn181 O186 2.121 . S
Mn181 N188 2.257 . S
Mn181 N197 2.282 . S
Mn181 O205 2.215 . S
Mn181 O207 2.117 . S
C182 O204 1.234 . S
C182 O205 1.283 . S
C183 O195 1.281 . S
C183 O196 1.236 . S
C184 O206 1.240 . S
C184 O207 1.264 . S
O185 Mn180 2.095 . S
O185 C194 1.250 . S
O186 Mn181 2.121 . S
O186 C194 1.258 . S
C187 N188 1.326 . S
C187 C191 1.460 . S
C187 H193 0.929 . S
N188 Mn181 2.257 . S
N188 C187 1.326 . S
N188 C192 1.362 . S
C189 C190 1.258 . S
C189 C192 1.431 . S
C189 C209 1.449 . S
C190 C189 1.258 . S
C190 C191 1.477 . S
C190 H210 0.931 . S
C191 C187 1.460 . S
C191 C190 1.477 . S
C191 H211 0.930 . S
C192 N188 1.362 . S
C192 C189 1.431 . S
C192 C202 1.476 . S
H193 C187 0.929 . S
C194 O185 1.250 . S
C194 O186 1.258 . S
O195 Mn180 2.162 . S
O195 C183 1.281 . S
O196 Mn180 2.297 . S
O196 C183 1.236 . S
N197 Mn181 2.282 . S
N197 C198 1.328 . S
N197 C202 1.318 . S
C198 N197 1.328 . S
C198 C199 1.457 . S
C198 H203 0.929 . S
C199 C198 1.457 . S
C199 C200 1.291 . S
C199 H212 0.931 . S
C200 C199 1.291 . S
C200 C201 1.373 . S
C200 H213 0.929 . S
C201 C200 1.373 . S
C201 C202 1.396 . S
C201 C208 1.403 . S
C202 C192 1.476 . S
C202 N197 1.318 . S
C202 C201 1.396 . S
H203 C198 0.929 . S
O204 Mn180 2.385 . S
O204 C182 1.234 . S
O205 Mn180 2.209 . S
O205 Mn181 2.215 . S
O205 C182 1.283 . S
O206 Mn180 2.094 . S
O206 C184 1.240 . S
O207 Mn181 2.117 . S
O207 C184 1.264 . S
C208 C201 1.403 . S
C208 C209 1.399 . S
C208 H214 0.929 . S
C209 C189 1.449 . S
C209 C208 1.399 . S
C209 H215 0.930 . S
H210 C190 0.931 . S
H211 C191 0.930 . S
H212 C199 0.931 . S
H213 C200 0.929 . S
H214 C208 0.929 . S
H215 C209 0.930 . S
Mn216 O221 2.095 . S
Mn216 O231 2.162 . S
Mn216 O232 2.297 . S
Mn216 O240 2.385 . S
Mn216 O241 2.209 . S
Mn216 O242 2.094 . S
Mn217 O222 2.121 . S
Mn217 N224 2.257 . S
Mn217 N233 2.282 . S
Mn217 O241 2.215 . S
Mn217 O243 2.117 . S
C218 O240 1.234 . S
C218 O241 1.283 . S
C219 O231 1.281 . S
C219 O232 1.236 . S
C220 O242 1.240 . S
C220 O243 1.264 . S
O221 Mn216 2.095 . S
O221 C230 1.250 . S
O222 Mn217 2.121 . S
O222 C230 1.258 . S
C223 N224 1.326 . S
C223 C227 1.460 . S
C223 H229 0.929 . S
N224 Mn217 2.257 . S
N224 C223 1.326 . S
N224 C228 1.362 . S
C225 C226 1.258 . S
C225 C228 1.431 . S
C225 C245 1.449 . S
C226 C225 1.258 . S
C226 C227 1.477 . S
C226 H246 0.931 . S
C227 C223 1.460 . S
C227 C226 1.477 . S
C227 H247 0.930 . S
C228 N224 1.362 . S
C228 C225 1.431 . S
C228 C238 1.476 . S
H229 C223 0.929 . S
C230 O221 1.250 . S
C230 O222 1.258 . S
O231 Mn216 2.162 . S
O231 C219 1.281 . S
O232 Mn216 2.297 . S
O232 C219 1.236 . S
N233 Mn217 2.282 . S
N233 C234 1.328 . S
N233 C238 1.318 . S
C234 N233 1.328 . S
C234 C235 1.457 . S
C234 H239 0.929 . S
C235 C234 1.457 . S
C235 C236 1.291 . S
C235 H248 0.931 . S
C236 C235 1.291 . S
C236 C237 1.373 . S
C236 H249 0.929 . S
C237 C236 1.373 . S
C237 C238 1.396 . S
C237 C244 1.403 . S
C238 C228 1.476 . S
C238 N233 1.318 . S
C238 C237 1.396 . S
H239 C234 0.929 . S
O240 Mn216 2.385 . S
O240 C218 1.234 . S
O241 Mn216 2.209 . S
O241 Mn217 2.215 . S
O241 C218 1.283 . S
O242 Mn216 2.094 . S
O242 C220 1.240 . S
O243 Mn217 2.117 . S
O243 C220 1.264 . S
C244 C237 1.403 . S
C244 C245 1.399 . S
C244 H250 0.929 . S
C245 C225 1.449 . S
C245 C244 1.399 . S
C245 H251 0.930 . S
H246 C226 0.931 . S
H247 C227 0.930 . S
H248 C235 0.931 . S
H249 C236 0.929 . S
H250 C244 0.929 . S
H251 C245 0.930 . S
Mn252 O257 2.095 . S
Mn252 O267 2.162 . S
Mn252 O268 2.297 . S
Mn252 O276 2.385 . S
Mn252 O277 2.209 . S
Mn252 O278 2.094 . S
Mn253 O258 2.121 . S
Mn253 N260 2.257 . S
Mn253 N269 2.282 . S
Mn253 O277 2.215 . S
Mn253 O279 2.117 . S
C254 O276 1.234 . S
C254 O277 1.283 . S
C255 O267 1.281 . S
C255 O268 1.236 . S
C256 O278 1.240 . S
C256 O279 1.264 . S
O257 Mn252 2.095 . S
O257 C266 1.250 . S
O258 Mn253 2.121 . S
O258 C266 1.258 . S
C259 N260 1.326 . S
C259 C263 1.460 . S
C259 H265 0.929 . S
N260 Mn253 2.257 . S
N260 C259 1.326 . S
N260 C264 1.362 . S
C261 C262 1.258 . S
C261 C264 1.431 . S
C261 C281 1.449 . S
C262 C261 1.258 . S
C262 C263 1.477 . S
C262 H282 0.931 . S
C263 C259 1.460 . S
C263 C262 1.477 . S
C263 H283 0.930 . S
C264 N260 1.362 . S
C264 C261 1.431 . S
C264 C274 1.476 . S
H265 C259 0.929 . S
C266 O257 1.250 . S
C266 O258 1.258 . S
O267 Mn252 2.162 . S
O267 C255 1.281 . S
O268 Mn252 2.297 . S
O268 C255 1.236 . S
N269 Mn253 2.282 . S
N269 C270 1.328 . S
N269 C274 1.318 . S
C270 N269 1.328 . S
C270 C271 1.457 . S
C270 H275 0.929 . S
C271 C270 1.457 . S
C271 C272 1.291 . S
C271 H284 0.931 . S
C272 C271 1.291 . S
C272 C273 1.373 . S
C272 H285 0.929 . S
C273 C272 1.373 . S
C273 C274 1.396 . S
C273 C280 1.403 . S
C274 C264 1.476 . S
C274 N269 1.318 . S
C274 C273 1.396 . S
H275 C270 0.929 . S
O276 Mn252 2.385 . S
O276 C254 1.234 . S
O277 Mn252 2.209 . S
O277 Mn253 2.215 . S
O277 C254 1.283 . S
O278 Mn252 2.094 . S
O278 C256 1.240 . S
O279 Mn253 2.117 . S
O279 C256 1.264 . S
C280 C273 1.403 . S
C280 C281 1.399 . S
C280 H286 0.929 . S
C281 C261 1.449 . S
C281 C280 1.399 . S
C281 H287 0.930 . S
H282 C262 0.931 . S
H283 C263 0.930 . S
H284 C271 0.931 . S
H285 C272 0.929 . S
H286 C280 0.929 . S
H287 C281 0.930 . S
Mn288 O293 2.095 . S
Mn288 O303 2.162 . S
Mn288 O304 2.297 . S
Mn288 O312 2.385 . S
Mn288 O313 2.209 . S
Mn288 O314 2.094 . S
Mn289 O294 2.121 . S
Mn289 N296 2.257 . S
Mn289 N305 2.282 . S
Mn289 O313 2.215 . S
Mn289 O315 2.117 . S
C290 O312 1.234 . S
C290 O313 1.283 . S
C291 O303 1.281 . S
C291 O304 1.236 . S
C292 O314 1.240 . S
C292 O315 1.264 . S
O293 Mn288 2.095 . S
O293 C302 1.250 . S
O294 Mn289 2.121 . S
O294 C302 1.258 . S
C295 N296 1.326 . S
C295 C299 1.460 . S
C295 H301 0.929 . S
N296 Mn289 2.257 . S
N296 C295 1.326 . S
N296 C300 1.362 . S
C297 C298 1.258 . S
C297 C300 1.431 . S
C297 C317 1.449 . S
C298 C297 1.258 . S
C298 C299 1.477 . S
C298 H318 0.931 . S
C299 C295 1.460 . S
C299 C298 1.477 . S
C299 H319 0.930 . S
C300 N296 1.362 . S
C300 C297 1.431 . S
C300 C310 1.476 . S
H301 C295 0.929 . S
C302 O293 1.250 . S
C302 O294 1.258 . S
O303 Mn288 2.162 . S
O303 C291 1.281 . S
O304 Mn288 2.297 . S
O304 C291 1.236 . S
N305 Mn289 2.282 . S
N305 C306 1.328 . S
N305 C310 1.318 . S
C306 N305 1.328 . S
C306 C307 1.457 . S
C306 H311 0.929 . S
C307 C306 1.457 . S
C307 C308 1.291 . S
C307 H320 0.931 . S
C308 C307 1.291 . S
C308 C309 1.373 . S
C308 H321 0.929 . S
C309 C308 1.373 . S
C309 C310 1.396 . S
C309 C316 1.403 . S
C310 C300 1.476 . S
C310 N305 1.318 . S
C310 C309 1.396 . S
H311 C306 0.929 . S
O312 Mn288 2.385 . S
O312 C290 1.234 . S
O313 Mn288 2.209 . S
O313 Mn289 2.215 . S
O313 C290 1.283 . S
O314 Mn288 2.094 . S
O314 C292 1.240 . S
O315 Mn289 2.117 . S
O315 C292 1.264 . S
C316 C309 1.403 . S
C316 C317 1.399 . S
C316 H322 0.929 . S
C317 C297 1.449 . S
C317 C316 1.399 . S
C317 H323 0.930 . S
H318 C298 0.931 . S
H319 C299 0.930 . S
H320 C307 0.931 . S
H321 C308 0.929 . S
H322 C316 0.929 . S
H323 C317 0.930 . S
Mn324 O329 2.095 . S
Mn324 O339 2.162 . S
Mn324 O340 2.297 . S
Mn324 O348 2.385 . S
Mn324 O349 2.209 . S
Mn324 O350 2.094 . S
Mn325 O330 2.121 . S
Mn325 N332 2.257 . S
Mn325 N341 2.282 . S
Mn325 O349 2.215 . S
Mn325 O351 2.117 . S
C326 O348 1.234 . S
C326 O349 1.283 . S
C327 O339 1.281 . S
C327 O340 1.236 . S
C328 O350 1.240 . S
C328 O351 1.264 . S
O329 Mn324 2.095 . S
O329 C338 1.250 . S
O330 Mn325 2.121 . S
O330 C338 1.258 . S
C331 N332 1.326 . S
C331 C335 1.460 . S
C331 H337 0.929 . S
N332 Mn325 2.257 . S
N332 C331 1.326 . S
N332 C336 1.362 . S
C333 C334 1.258 . S
C333 C336 1.431 . S
C333 C353 1.449 . S
C334 C333 1.258 . S
C334 C335 1.477 . S
C334 H354 0.931 . S
C335 C331 1.460 . S
C335 C334 1.477 . S
C335 H355 0.930 . S
C336 N332 1.362 . S
C336 C333 1.431 . S
C336 C346 1.476 . S
H337 C331 0.929 . S
C338 O329 1.250 . S
C338 O330 1.258 . S
O339 Mn324 2.162 . S
O339 C327 1.281 . S
O340 Mn324 2.297 . S
O340 C327 1.236 . S
N341 Mn325 2.282 . S
N341 C342 1.328 . S
N341 C346 1.318 . S
C342 N341 1.328 . S
C342 C343 1.457 . S
C342 H347 0.929 . S
C343 C342 1.457 . S
C343 C344 1.291 . S
C343 H356 0.931 . S
C344 C343 1.291 . S
C344 C345 1.373 . S
C344 H357 0.929 . S
C345 C344 1.373 . S
C345 C346 1.396 . S
C345 C352 1.403 . S
C346 C336 1.476 . S
C346 N341 1.318 . S
C346 C345 1.396 . S
H347 C342 0.929 . S
O348 Mn324 2.385 . S
O348 C326 1.234 . S
O349 Mn324 2.209 . S
O349 Mn325 2.215 . S
O349 C326 1.283 . S
O350 Mn324 2.094 . S
O350 C328 1.240 . S
O351 Mn325 2.117 . S
O351 C328 1.264 . S
C352 C345 1.403 . S
C352 C353 1.399 . S
C352 H358 0.929 . S
C353 C333 1.449 . S
C353 C352 1.399 . S
C353 H359 0.930 . S
H354 C334 0.931 . S
H355 C335 0.930 . S
H356 C343 0.931 . S
H357 C344 0.929 . S
H358 C352 0.929 . S
H359 C353 0.930 . S
Mn360 O365 2.095 . S
Mn360 O375 2.162 . S
Mn360 O376 2.297 . S
Mn360 O384 2.385 . S
Mn360 O385 2.209 . S
Mn360 O386 2.094 . S
Mn361 O366 2.121 . S
Mn361 N368 2.257 . S
Mn361 N377 2.282 . S
Mn361 O385 2.215 . S
Mn361 O387 2.117 . S
C362 O384 1.234 . S
C362 O385 1.283 . S
C363 O375 1.281 . S
C363 O376 1.236 . S
C364 O386 1.240 . S
C364 O387 1.264 . S
O365 Mn360 2.095 . S
O365 C374 1.250 . S
O366 Mn361 2.121 . S
O366 C374 1.258 . S
C367 N368 1.326 . S
C367 C371 1.460 . S
C367 H373 0.929 . S
N368 Mn361 2.257 . S
N368 C367 1.326 . S
N368 C372 1.362 . S
C369 C370 1.258 . S
C369 C372 1.431 . S
C369 C389 1.449 . S
C370 C369 1.258 . S
C370 C371 1.477 . S
C370 H390 0.931 . S
C371 C367 1.460 . S
C371 C370 1.477 . S
C371 H391 0.930 . S
C372 N368 1.362 . S
C372 C369 1.431 . S
C372 C382 1.476 . S
H373 C367 0.929 . S
C374 O365 1.250 . S
C374 O366 1.258 . S
O375 Mn360 2.162 . S
O375 C363 1.281 . S
O376 Mn360 2.297 . S
O376 C363 1.236 . S
N377 Mn361 2.282 . S
N377 C378 1.328 . S
N377 C382 1.318 . S
C378 N377 1.328 . S
C378 C379 1.457 . S
C378 H383 0.929 . S
C379 C378 1.457 . S
C379 C380 1.291 . S
C379 H392 0.931 . S
C380 C379 1.291 . S
C380 C381 1.373 . S
C380 H393 0.929 . S
C381 C380 1.373 . S
C381 C382 1.396 . S
C381 C388 1.403 . S
C382 C372 1.476 . S
C382 N377 1.318 . S
C382 C381 1.396 . S
H383 C378 0.929 . S
O384 Mn360 2.385 . S
O384 C362 1.234 . S
O385 Mn360 2.209 . S
O385 Mn361 2.215 . S
O385 C362 1.283 . S
O386 Mn360 2.094 . S
O386 C364 1.240 . S
O387 Mn361 2.117 . S
O387 C364 1.264 . S
C388 C381 1.403 . S
C388 C389 1.399 . S
C388 H394 0.929 . S
C389 C369 1.449 . S
C389 C388 1.399 . S
C389 H395 0.930 . S
H390 C370 0.931 . S
H391 C371 0.930 . S
H392 C379 0.931 . S
H393 C380 0.929 . S
H394 C388 0.929 . S
H395 C389 0.930 . S
Mn396 O401 2.095 . S
Mn396 O411 2.162 . S
Mn396 O412 2.297 . S
Mn396 O420 2.385 . S
Mn396 O421 2.209 . S
Mn396 O422 2.094 . S
Mn397 O402 2.121 . S
Mn397 N404 2.257 . S
Mn397 N413 2.282 . S
Mn397 O421 2.215 . S
Mn397 O423 2.117 . S
C398 O420 1.234 . S
C398 O421 1.283 . S
C399 O411 1.281 . S
C399 O412 1.236 . S
C400 O422 1.240 . S
C400 O423 1.264 . S
O401 Mn396 2.095 . S
O401 C410 1.250 . S
O402 Mn397 2.121 . S
O402 C410 1.258 . S
C403 N404 1.326 . S
C403 C407 1.460 . S
C403 H409 0.929 . S
N404 Mn397 2.257 . S
N404 C403 1.326 . S
N404 C408 1.362 . S
C405 C406 1.258 . S
C405 C408 1.431 . S
C405 C425 1.449 . S
C406 C405 1.258 . S
C406 C407 1.477 . S
C406 H426 0.931 . S
C407 C403 1.460 . S
C407 C406 1.477 . S
C407 H427 0.930 . S
C408 N404 1.362 . S
C408 C405 1.431 . S
C408 C418 1.476 . S
H409 C403 0.929 . S
C410 O401 1.250 . S
C410 O402 1.258 . S
O411 Mn396 2.162 . S
O411 C399 1.281 . S
O412 Mn396 2.297 . S
O412 C399 1.236 . S
N413 Mn397 2.282 . S
N413 C414 1.328 . S
N413 C418 1.318 . S
C414 N413 1.328 . S
C414 C415 1.457 . S
C414 H419 0.929 . S
C415 C414 1.457 . S
C415 C416 1.291 . S
C415 H428 0.931 . S
C416 C415 1.291 . S
C416 C417 1.373 . S
C416 H429 0.929 . S
C417 C416 1.373 . S
C417 C418 1.396 . S
C417 C424 1.403 . S
C418 C408 1.476 . S
C418 N413 1.318 . S
C418 C417 1.396 . S
H419 C414 0.929 . S
O420 Mn396 2.385 . S
O420 C398 1.234 . S
O421 Mn396 2.209 . S
O421 Mn397 2.215 . S
O421 C398 1.283 . S
O422 Mn396 2.094 . S
O422 C400 1.240 . S
O423 Mn397 2.117 . S
O423 C400 1.264 . S
C424 C417 1.403 . S
C424 C425 1.399 . S
C424 H430 0.929 . S
C425 C405 1.449 . S
C425 C424 1.399 . S
C425 H431 0.930 . S
H426 C406 0.931 . S
H427 C407 0.930 . S
H428 C415 0.931 . S
H429 C416 0.929 . S
H430 C424 0.929 . S
H431 C425 0.930 . S
Mn432 O437 2.095 . S
Mn432 O447 2.162 . S
Mn432 O448 2.297 . S
Mn432 O456 2.385 . S
Mn432 O457 2.209 . S
Mn432 O458 2.094 . S
Mn433 O438 2.121 . S
Mn433 N440 2.257 . S
Mn433 N449 2.282 . S
Mn433 O457 2.215 . S
Mn433 O459 2.117 . S
C434 O456 1.234 . S
C434 O457 1.283 . S
C435 O447 1.281 . S
C435 O448 1.236 . S
C436 O458 1.240 . S
C436 O459 1.264 . S
O437 Mn432 2.095 . S
O437 C446 1.250 . S
O438 Mn433 2.121 . S
O438 C446 1.258 . S
C439 N440 1.326 . S
C439 C443 1.460 . S
C439 H445 0.929 . S
N440 Mn433 2.257 . S
N440 C439 1.326 . S
N440 C444 1.362 . S
C441 C442 1.258 . S
C441 C444 1.431 . S
C441 C461 1.449 . S
C442 C441 1.258 . S
C442 C443 1.477 . S
C442 H462 0.931 . S
C443 C439 1.460 . S
C443 C442 1.477 . S
C443 H463 0.930 . S
C444 N440 1.362 . S
C444 C441 1.431 . S
C444 C454 1.476 . S
H445 C439 0.929 . S
C446 O437 1.250 . S
C446 O438 1.258 . S
O447 Mn432 2.162 . S
O447 C435 1.281 . S
O448 Mn432 2.297 . S
O448 C435 1.236 . S
N449 Mn433 2.282 . S
N449 C450 1.328 . S
N449 C454 1.318 . S
C450 N449 1.328 . S
C450 C451 1.457 . S
C450 H455 0.929 . S
C451 C450 1.457 . S
C451 C452 1.291 . S
C451 H464 0.931 . S
C452 C451 1.291 . S
C452 C453 1.373 . S
C452 H465 0.929 . S
C453 C452 1.373 . S
C453 C454 1.396 . S
C453 C460 1.403 . S
C454 C444 1.476 . S
C454 N449 1.318 . S
C454 C453 1.396 . S
H455 C450 0.929 . S
O456 Mn432 2.385 . S
O456 C434 1.234 . S
O457 Mn432 2.209 . S
O457 Mn433 2.215 . S
O457 C434 1.283 . S
O458 Mn432 2.094 . S
O458 C436 1.240 . S
O459 Mn433 2.117 . S
O459 C436 1.264 . S
C460 C453 1.403 . S
C460 C461 1.399 . S
C460 H466 0.929 . S
C461 C441 1.449 . S
C461 C460 1.399 . S
C461 H467 0.930 . S
H462 C442 0.931 . S
H463 C443 0.930 . S
H464 C451 0.931 . S
H465 C452 0.929 . S
H466 C460 0.929 . S
H467 C461 0.930 . S
Mn468 O473 2.095 . S
Mn468 O483 2.162 . S
Mn468 O484 2.297 . S
Mn468 O492 2.385 . S
Mn468 O493 2.209 . S
Mn468 O494 2.094 . S
Mn469 O474 2.121 . S
Mn469 N476 2.257 . S
Mn469 N485 2.282 . S
Mn469 O493 2.215 . S
Mn469 O495 2.117 . S
C470 O492 1.234 . S
C470 O493 1.283 . S
C471 O483 1.281 . S
C471 O484 1.236 . S
C472 O494 1.240 . S
C472 O495 1.264 . S
O473 Mn468 2.095 . S
O473 C482 1.250 . S
O474 Mn469 2.121 . S
O474 C482 1.258 . S
C475 N476 1.326 . S
C475 C479 1.460 . S
C475 H481 0.929 . S
N476 Mn469 2.257 . S
N476 C475 1.326 . S
N476 C480 1.362 . S
C477 C478 1.258 . S
C477 C480 1.431 . S
C477 C497 1.449 . S
C478 C477 1.258 . S
C478 C479 1.477 . S
C478 H498 0.931 . S
C479 C475 1.460 . S
C479 C478 1.477 . S
C479 H499 0.930 . S
C480 N476 1.362 . S
C480 C477 1.431 . S
C480 C490 1.476 . S
H481 C475 0.929 . S
C482 O473 1.250 . S
C482 O474 1.258 . S
O483 Mn468 2.162 . S
O483 C471 1.281 . S
O484 Mn468 2.297 . S
O484 C471 1.236 . S
N485 Mn469 2.282 . S
N485 C486 1.328 . S
N485 C490 1.318 . S
C486 N485 1.328 . S
C486 C487 1.457 . S
C486 H491 0.929 . S
C487 C486 1.457 . S
C487 C488 1.291 . S
C487 H500 0.931 . S
C488 C487 1.291 . S
C488 C489 1.373 . S
C488 H501 0.929 . S
C489 C488 1.373 . S
C489 C490 1.396 . S
C489 C496 1.403 . S
C490 C480 1.476 . S
C490 N485 1.318 . S
C490 C489 1.396 . S
H491 C486 0.929 . S
O492 Mn468 2.385 . S
O492 C470 1.234 . S
O493 Mn468 2.209 . S
O493 Mn469 2.215 . S
O493 C470 1.283 . S
O494 Mn468 2.094 . S
O494 C472 1.240 . S
O495 Mn469 2.117 . S
O495 C472 1.264 . S
C496 C489 1.403 . S
C496 C497 1.399 . S
C496 H502 0.929 . S
C497 C477 1.449 . S
C497 C496 1.399 . S
C497 H503 0.930 . S
H498 C478 0.931 . S
H499 C479 0.930 . S
H500 C487 0.931 . S
H501 C488 0.929 . S
H502 C496 0.929 . S
H503 C497 0.930 . S
Mn504 O509 2.095 . S
Mn504 O519 2.162 . S
Mn504 O520 2.297 . S
Mn504 O528 2.385 . S
Mn504 O529 2.209 . S
Mn504 O530 2.094 . S
Mn505 O510 2.121 . S
Mn505 N512 2.257 . S
Mn505 N521 2.282 . S
Mn505 O529 2.215 . S
Mn505 O531 2.117 . S
C506 O528 1.234 . S
C506 O529 1.283 . S
C507 O519 1.281 . S
C507 O520 1.236 . S
C508 O530 1.240 . S
C508 O531 1.264 . S
O509 Mn504 2.095 . S
O509 C518 1.250 . S
O510 Mn505 2.121 . S
O510 C518 1.258 . S
C511 N512 1.326 . S
C511 C515 1.460 . S
C511 H517 0.929 . S
N512 Mn505 2.257 . S
N512 C511 1.326 . S
N512 C516 1.362 . S
C513 C514 1.258 . S
C513 C516 1.431 . S
C513 C533 1.449 . S
C514 C513 1.258 . S
C514 C515 1.477 . S
C514 H534 0.931 . S
C515 C511 1.460 . S
C515 C514 1.477 . S
C515 H535 0.930 . S
C516 N512 1.362 . S
C516 C513 1.431 . S
C516 C526 1.476 . S
H517 C511 0.929 . S
C518 O509 1.250 . S
C518 O510 1.258 . S
O519 Mn504 2.162 . S
O519 C507 1.281 . S
O520 Mn504 2.297 . S
O520 C507 1.236 . S
N521 Mn505 2.282 . S
N521 C522 1.328 . S
N521 C526 1.318 . S
C522 N521 1.328 . S
C522 C523 1.457 . S
C522 H527 0.929 . S
C523 C522 1.457 . S
C523 C524 1.291 . S
C523 H536 0.931 . S
C524 C523 1.291 . S
C524 C525 1.373 . S
C524 H537 0.929 . S
C525 C524 1.373 . S
C525 C526 1.396 . S
C525 C532 1.403 . S
C526 C516 1.476 . S
C526 N521 1.318 . S
C526 C525 1.396 . S
H527 C522 0.929 . S
O528 Mn504 2.385 . S
O528 C506 1.234 . S
O529 Mn504 2.209 . S
O529 Mn505 2.215 . S
O529 C506 1.283 . S
O530 Mn504 2.094 . S
O530 C508 1.240 . S
O531 Mn505 2.117 . S
O531 C508 1.264 . S
C532 C525 1.403 . S
C532 C533 1.399 . S
C532 H538 0.929 . S
C533 C513 1.449 . S
C533 C532 1.399 . S
C533 H539 0.930 . S
H534 C514 0.931 . S
H535 C515 0.930 . S
H536 C523 0.931 . S
H537 C524 0.929 . S
H538 C532 0.929 . S
H539 C533 0.930 . S
Mn540 O545 2.095 . S
Mn540 O555 2.162 . S
Mn540 O556 2.297 . S
Mn540 O564 2.385 . S
Mn540 O565 2.209 . S
Mn540 O566 2.094 . S
Mn541 O546 2.121 . S
Mn541 N548 2.257 . S
Mn541 N557 2.282 . S
Mn541 O565 2.215 . S
Mn541 O567 2.117 . S
C542 O564 1.234 . S
C542 O565 1.283 . S
C543 O555 1.281 . S
C543 O556 1.236 . S
C544 O566 1.240 . S
C544 O567 1.264 . S
O545 Mn540 2.095 . S
O545 C554 1.250 . S
O546 Mn541 2.121 . S
O546 C554 1.258 . S
C547 N548 1.326 . S
C547 C551 1.460 . S
C547 H553 0.929 . S
N548 Mn541 2.257 . S
N548 C547 1.326 . S
N548 C552 1.362 . S
C549 C550 1.258 . S
C549 C552 1.431 . S
C549 C569 1.449 . S
C550 C549 1.258 . S
C550 C551 1.477 . S
C550 H570 0.931 . S
C551 C547 1.460 . S
C551 C550 1.477 . S
C551 H571 0.930 . S
C552 N548 1.362 . S
C552 C549 1.431 . S
C552 C562 1.476 . S
H553 C547 0.929 . S
C554 O545 1.250 . S
C554 O546 1.258 . S
O555 Mn540 2.162 . S
O555 C543 1.281 . S
O556 Mn540 2.297 . S
O556 C543 1.236 . S
N557 Mn541 2.282 . S
N557 C558 1.328 . S
N557 C562 1.318 . S
C558 N557 1.328 . S
C558 C559 1.457 . S
C558 H563 0.929 . S
C559 C558 1.457 . S
C559 C560 1.291 . S
C559 H572 0.931 . S
C560 C559 1.291 . S
C560 C561 1.373 . S
C560 H573 0.929 . S
C561 C560 1.373 . S
C561 C562 1.396 . S
C561 C568 1.403 . S
C562 C552 1.476 . S
C562 N557 1.318 . S
C562 C561 1.396 . S
H563 C558 0.929 . S
O564 Mn540 2.385 . S
O564 C542 1.234 . S
O565 Mn540 2.209 . S
O565 Mn541 2.215 . S
O565 C542 1.283 . S
O566 Mn540 2.094 . S
O566 C544 1.240 . S
O567 Mn541 2.117 . S
O567 C544 1.264 . S
C568 C561 1.403 . S
C568 C569 1.399 . S
C568 H574 0.929 . S
C569 C549 1.449 . S
C569 C568 1.399 . S
C569 H575 0.930 . S
H570 C550 0.931 . S
H571 C551 0.930 . S
H572 C559 0.931 . S
H573 C560 0.929 . S
H574 C568 0.929 . S
H575 C569 0.930 . S
Mn576 O581 2.095 . S
Mn576 O591 2.162 . S
Mn576 O592 2.297 . S
Mn576 O600 2.385 . S
Mn576 O601 2.209 . S
Mn576 O602 2.094 . S
Mn577 O582 2.121 . S
Mn577 N584 2.257 . S
Mn577 N593 2.282 . S
Mn577 O601 2.215 . S
Mn577 O603 2.117 . S
C578 O600 1.234 . S
C578 O601 1.283 . S
C579 O591 1.281 . S
C579 O592 1.236 . S
C580 O602 1.240 . S
C580 O603 1.264 . S
O581 Mn576 2.095 . S
O581 C590 1.250 . S
O582 Mn577 2.121 . S
O582 C590 1.258 . S
C583 N584 1.326 . S
C583 C587 1.460 . S
C583 H589 0.929 . S
N584 Mn577 2.257 . S
N584 C583 1.326 . S
N584 C588 1.362 . S
C585 C586 1.258 . S
C585 C588 1.431 . S
C585 C605 1.449 . S
C586 C585 1.258 . S
C586 C587 1.477 . S
C586 H606 0.931 . S
C587 C583 1.460 . S
C587 C586 1.477 . S
C587 H607 0.930 . S
C588 N584 1.362 . S
C588 C585 1.431 . S
C588 C598 1.476 . S
H589 C583 0.929 . S
C590 O581 1.250 . S
C590 O582 1.258 . S
O591 Mn576 2.162 . S
O591 C579 1.281 . S
O592 Mn576 2.297 . S
O592 C579 1.236 . S
N593 Mn577 2.282 . S
N593 C594 1.328 . S
N593 C598 1.318 . S
C594 N593 1.328 . S
C594 C595 1.457 . S
C594 H599 0.929 . S
C595 C594 1.457 . S
C595 C596 1.291 . S
C595 H608 0.931 . S
C596 C595 1.291 . S
C596 C597 1.373 . S
C596 H609 0.929 . S
C597 C596 1.373 . S
C597 C598 1.396 . S
C597 C604 1.403 . S
C598 C588 1.476 . S
C598 N593 1.318 . S
C598 C597 1.396 . S
H599 C594 0.929 . S
O600 Mn576 2.385 . S
O600 C578 1.234 . S
O601 Mn576 2.209 . S
O601 Mn577 2.215 . S
O601 C578 1.283 . S
O602 Mn576 2.094 . S
O602 C580 1.240 . S
O603 Mn577 2.117 . S
O603 C580 1.264 . S
C604 C597 1.403 . S
C604 C605 1.399 . S
C604 H610 0.929 . S
C605 C585 1.449 . S
C605 C604 1.399 . S
C605 H611 0.930 . S
H606 C586 0.931 . S
H607 C587 0.930 . S
H608 C595 0.931 . S
H609 C596 0.929 . S
H610 C604 0.929 . S
H611 C605 0.930 . S
Mn612 O617 2.095 . S
Mn612 O627 2.162 . S
Mn612 O628 2.297 . S
Mn612 O636 2.385 . S
Mn612 O637 2.209 . S
Mn612 O638 2.094 . S
Mn613 O618 2.121 . S
Mn613 N620 2.257 . S
Mn613 N629 2.282 . S
Mn613 O637 2.215 . S
Mn613 O639 2.117 . S
C614 O636 1.234 . S
C614 O637 1.283 . S
C615 O627 1.281 . S
C615 O628 1.236 . S
C616 O638 1.240 . S
C616 O639 1.264 . S
O617 Mn612 2.095 . S
O617 C626 1.250 . S
O618 Mn613 2.121 . S
O618 C626 1.258 . S
C619 N620 1.326 . S
C619 C623 1.460 . S
C619 H625 0.929 . S
N620 Mn613 2.257 . S
N620 C619 1.326 . S
N620 C624 1.362 . S
C621 C622 1.258 . S
C621 C624 1.431 . S
C621 C641 1.449 . S
C622 C621 1.258 . S
C622 C623 1.477 . S
C622 H642 0.931 . S
C623 C619 1.460 . S
C623 C622 1.477 . S
C623 H643 0.930 . S
C624 N620 1.362 . S
C624 C621 1.431 . S
C624 C634 1.476 . S
H625 C619 0.929 . S
C626 O617 1.250 . S
C626 O618 1.258 . S
O627 Mn612 2.162 . S
O627 C615 1.281 . S
O628 Mn612 2.297 . S
O628 C615 1.236 . S
N629 Mn613 2.282 . S
N629 C630 1.328 . S
N629 C634 1.318 . S
C630 N629 1.328 . S
C630 C631 1.457 . S
C630 H635 0.929 . S
C631 C630 1.457 . S
C631 C632 1.291 . S
C631 H644 0.931 . S
C632 C631 1.291 . S
C632 C633 1.373 . S
C632 H645 0.929 . S
C633 C632 1.373 . S
C633 C634 1.396 . S
C633 C640 1.403 . S
C634 C624 1.476 . S
C634 N629 1.318 . S
C634 C633 1.396 . S
H635 C630 0.929 . S
O636 Mn612 2.385 . S
O636 C614 1.234 . S
O637 Mn612 2.209 . S
O637 Mn613 2.215 . S
O637 C614 1.283 . S
O638 Mn612 2.094 . S
O638 C616 1.240 . S
O639 Mn613 2.117 . S
O639 C616 1.264 . S
C640 C633 1.403 . S
C640 C641 1.399 . S
C640 H646 0.929 . S
C641 C621 1.449 . S
C641 C640 1.399 . S
C641 H647 0.930 . S
H642 C622 0.931 . S
H643 C623 0.930 . S
H644 C631 0.931 . S
H645 C632 0.929 . S
H646 C640 0.929 . S
H647 C641 0.930 . S
Mn648 O653 2.095 . S
Mn648 O663 2.162 . S
Mn648 O664 2.297 . S
Mn648 O672 2.385 . S
Mn648 O673 2.209 . S
Mn648 O674 2.094 . S
Mn649 O654 2.121 . S
Mn649 N656 2.257 . S
Mn649 N665 2.282 . S
Mn649 O673 2.215 . S
Mn649 O675 2.117 . S
C650 O672 1.234 . S
C650 O673 1.283 . S
C651 O663 1.281 . S
C651 O664 1.236 . S
C652 O674 1.240 . S
C652 O675 1.264 . S
O653 Mn648 2.095 . S
O653 C662 1.250 . S
O654 Mn649 2.121 . S
O654 C662 1.258 . S
C655 N656 1.326 . S
C655 C659 1.460 . S
C655 H661 0.929 . S
N656 Mn649 2.257 . S
N656 C655 1.326 . S
N656 C660 1.362 . S
C657 C658 1.258 . S
C657 C660 1.431 . S
C657 C677 1.449 . S
C658 C657 1.258 . S
C658 C659 1.477 . S
C658 H678 0.931 . S
C659 C655 1.460 . S
C659 C658 1.477 . S
C659 H679 0.930 . S
C660 N656 1.362 . S
C660 C657 1.431 . S
C660 C670 1.476 . S
H661 C655 0.929 . S
C662 O653 1.250 . S
C662 O654 1.258 . S
O663 Mn648 2.162 . S
O663 C651 1.281 . S
O664 Mn648 2.297 . S
O664 C651 1.236 . S
N665 Mn649 2.282 . S
N665 C666 1.328 . S
N665 C670 1.318 . S
C666 N665 1.328 . S
C666 C667 1.457 . S
C666 H671 0.929 . S
C667 C666 1.457 . S
C667 C668 1.291 . S
C667 H680 0.931 . S
C668 C667 1.291 . S
C668 C669 1.373 . S
C668 H681 0.929 . S
C669 C668 1.373 . S
C669 C670 1.396 . S
C669 C676 1.403 . S
C670 C660 1.476 . S
C670 N665 1.318 . S
C670 C669 1.396 . S
H671 C666 0.929 . S
O672 Mn648 2.385 . S
O672 C650 1.234 . S
O673 Mn648 2.209 . S
O673 Mn649 2.215 . S
O673 C650 1.283 . S
O674 Mn648 2.094 . S
O674 C652 1.240 . S
O675 Mn649 2.117 . S
O675 C652 1.264 . S
C676 C669 1.403 . S
C676 C677 1.399 . S
C676 H682 0.929 . S
C677 C657 1.449 . S
C677 C676 1.399 . S
C677 H683 0.930 . S
H678 C658 0.931 . S
H679 C659 0.930 . S
H680 C667 0.931 . S
H681 C668 0.929 . S
H682 C676 0.929 . S
H683 C677 0.930 . S
Mn684 O689 2.095 . S
Mn684 O699 2.162 . S
Mn684 O700 2.297 . S
Mn684 O708 2.385 . S
Mn684 O709 2.209 . S
Mn684 O710 2.094 . S
Mn685 O690 2.121 . S
Mn685 N692 2.257 . S
Mn685 N701 2.282 . S
Mn685 O709 2.215 . S
Mn685 O711 2.117 . S
C686 O708 1.234 . S
C686 O709 1.283 . S
C687 O699 1.281 . S
C687 O700 1.236 . S
C688 O710 1.240 . S
C688 O711 1.264 . S
O689 Mn684 2.095 . S
O689 C698 1.250 . S
O690 Mn685 2.121 . S
O690 C698 1.258 . S
C691 N692 1.326 . S
C691 C695 1.460 . S
C691 H697 0.929 . S
N692 Mn685 2.257 . S
N692 C691 1.326 . S
N692 C696 1.362 . S
C693 C694 1.258 . S
C693 C696 1.431 . S
C693 C713 1.449 . S
C694 C693 1.258 . S
C694 C695 1.477 . S
C694 H714 0.931 . S
C695 C691 1.460 . S
C695 C694 1.477 . S
C695 H715 0.930 . S
C696 N692 1.362 . S
C696 C693 1.431 . S
C696 C706 1.476 . S
H697 C691 0.929 . S
C698 O689 1.250 . S
C698 O690 1.258 . S
O699 Mn684 2.162 . S
O699 C687 1.281 . S
O700 Mn684 2.297 . S
O700 C687 1.236 . S
N701 Mn685 2.282 . S
N701 C702 1.328 . S
N701 C706 1.318 . S
C702 N701 1.328 . S
C702 C703 1.457 . S
C702 H707 0.929 . S
C703 C702 1.457 . S
C703 C704 1.291 . S
C703 H716 0.931 . S
C704 C703 1.291 . S
C704 C705 1.373 . S
C704 H717 0.929 . S
C705 C704 1.373 . S
C705 C706 1.396 . S
C705 C712 1.403 . S
C706 C696 1.476 . S
C706 N701 1.318 . S
C706 C705 1.396 . S
H707 C702 0.929 . S
O708 Mn684 2.385 . S
O708 C686 1.234 . S
O709 Mn684 2.209 . S
O709 Mn685 2.215 . S
O709 C686 1.283 . S
O710 Mn684 2.094 . S
O710 C688 1.240 . S
O711 Mn685 2.117 . S
O711 C688 1.264 . S
C712 C705 1.403 . S
C712 C713 1.399 . S
C712 H718 0.929 . S
C713 C693 1.449 . S
C713 C712 1.399 . S
C713 H719 0.930 . S
H714 C694 0.931 . S
H715 C695 0.930 . S
H716 C703 0.931 . S
H717 C704 0.929 . S
H718 C712 0.929 . S
H719 C713 0.930 . S
Mn720 O725 2.095 . S
Mn720 O735 2.162 . S
Mn720 O736 2.297 . S
Mn720 O744 2.385 . S
Mn720 O745 2.209 . S
Mn720 O746 2.094 . S
Mn721 O726 2.121 . S
Mn721 N728 2.257 . S
Mn721 N737 2.282 . S
Mn721 O745 2.215 . S
Mn721 O747 2.117 . S
C722 O744 1.234 . S
C722 O745 1.283 . S
C723 O735 1.281 . S
C723 O736 1.236 . S
C724 O746 1.240 . S
C724 O747 1.264 . S
O725 Mn720 2.095 . S
O725 C734 1.250 . S
O726 Mn721 2.121 . S
O726 C734 1.258 . S
C727 N728 1.326 . S
C727 C731 1.460 . S
C727 H733 0.929 . S
N728 Mn721 2.257 . S
N728 C727 1.326 . S
N728 C732 1.362 . S
C729 C730 1.258 . S
C729 C732 1.431 . S
C729 C749 1.449 . S
C730 C729 1.258 . S
C730 C731 1.477 . S
C730 H750 0.931 . S
C731 C727 1.460 . S
C731 C730 1.477 . S
C731 H751 0.930 . S
C732 N728 1.362 . S
C732 C729 1.431 . S
C732 C742 1.476 . S
H733 C727 0.929 . S
C734 O725 1.250 . S
C734 O726 1.258 . S
O735 Mn720 2.162 . S
O735 C723 1.281 . S
O736 Mn720 2.297 . S
O736 C723 1.236 . S
N737 Mn721 2.282 . S
N737 C738 1.328 . S
N737 C742 1.318 . S
C738 N737 1.328 . S
C738 C739 1.457 . S
C738 H743 0.929 . S
C739 C738 1.457 . S
C739 C740 1.291 . S
C739 H752 0.931 . S
C740 C739 1.291 . S
C740 C741 1.373 . S
C740 H753 0.929 . S
C741 C740 1.373 . S
C741 C742 1.396 . S
C741 C748 1.403 . S
C742 C732 1.476 . S
C742 N737 1.318 . S
C742 C741 1.396 . S
H743 C738 0.929 . S
O744 Mn720 2.385 . S
O744 C722 1.234 . S
O745 Mn720 2.209 . S
O745 Mn721 2.215 . S
O745 C722 1.283 . S
O746 Mn720 2.094 . S
O746 C724 1.240 . S
O747 Mn721 2.117 . S
O747 C724 1.264 . S
C748 C741 1.403 . S
C748 C749 1.399 . S
C748 H754 0.929 . S
C749 C729 1.449 . S
C749 C748 1.399 . S
C749 H755 0.930 . S
H750 C730 0.931 . S
H751 C731 0.930 . S
H752 C739 0.931 . S
H753 C740 0.929 . S
H754 C748 0.929 . S
H755 C749 0.930 . S
Mn756 O761 2.095 . S
Mn756 O771 2.162 . S
Mn756 O772 2.297 . S
Mn756 O780 2.385 . S
Mn756 O781 2.209 . S
Mn756 O782 2.094 . S
Mn757 O762 2.121 . S
Mn757 N764 2.257 . S
Mn757 N773 2.282 . S
Mn757 O781 2.215 . S
Mn757 O783 2.117 . S
C758 O780 1.234 . S
C758 O781 1.283 . S
C759 O771 1.281 . S
C759 O772 1.236 . S
C760 O782 1.240 . S
C760 O783 1.264 . S
O761 Mn756 2.095 . S
O761 C770 1.250 . S
O762 Mn757 2.121 . S
O762 C770 1.258 . S
C763 N764 1.326 . S
C763 C767 1.460 . S
C763 H769 0.929 . S
N764 Mn757 2.257 . S
N764 C763 1.326 . S
N764 C768 1.362 . S
C765 C766 1.258 . S
C765 C768 1.431 . S
C765 C785 1.449 . S
C766 C765 1.258 . S
C766 C767 1.477 . S
C766 H786 0.931 . S
C767 C763 1.460 . S
C767 C766 1.477 . S
C767 H787 0.930 . S
C768 N764 1.362 . S
C768 C765 1.431 . S
C768 C778 1.476 . S
H769 C763 0.929 . S
C770 O761 1.250 . S
C770 O762 1.258 . S
O771 Mn756 2.162 . S
O771 C759 1.281 . S
O772 Mn756 2.297 . S
O772 C759 1.236 . S
N773 Mn757 2.282 . S
N773 C774 1.328 . S
N773 C778 1.318 . S
C774 N773 1.328 . S
C774 C775 1.457 . S
C774 H779 0.929 . S
C775 C774 1.457 . S
C775 C776 1.291 . S
C775 H788 0.931 . S
C776 C775 1.291 . S
C776 C777 1.373 . S
C776 H789 0.929 . S
C777 C776 1.373 . S
C777 C778 1.396 . S
C777 C784 1.403 . S
C778 C768 1.476 . S
C778 N773 1.318 . S
C778 C777 1.396 . S
H779 C774 0.929 . S
O780 Mn756 2.385 . S
O780 C758 1.234 . S
O781 Mn756 2.209 . S
O781 Mn757 2.215 . S
O781 C758 1.283 . S
O782 Mn756 2.094 . S
O782 C760 1.240 . S
O783 Mn757 2.117 . S
O783 C760 1.264 . S
C784 C777 1.403 . S
C784 C785 1.399 . S
C784 H790 0.929 . S
C785 C765 1.449 . S
C785 C784 1.399 . S
C785 H791 0.930 . S
H786 C766 0.931 . S
H787 C767 0.930 . S
H788 C775 0.931 . S
H789 C776 0.929 . S
H790 C784 0.929 . S
H791 C785 0.930 . S
Mn792 O797 2.095 . S
Mn792 O807 2.162 . S
Mn792 O808 2.297 . S
Mn792 O816 2.385 . S
Mn792 O817 2.209 . S
Mn792 O818 2.094 . S
Mn793 O798 2.121 . S
Mn793 N800 2.257 . S
Mn793 N809 2.282 . S
Mn793 O817 2.215 . S
Mn793 O819 2.117 . S
C794 O816 1.234 . S
C794 O817 1.283 . S
C795 O807 1.281 . S
C795 O808 1.236 . S
C796 O818 1.240 . S
C796 O819 1.264 . S
O797 Mn792 2.095 . S
O797 C806 1.250 . S
O798 Mn793 2.121 . S
O798 C806 1.258 . S
C799 N800 1.326 . S
C799 C803 1.460 . S
C799 H805 0.929 . S
N800 Mn793 2.257 . S
N800 C799 1.326 . S
N800 C804 1.362 . S
C801 C802 1.258 . S
C801 C804 1.431 . S
C801 C821 1.449 . S
C802 C801 1.258 . S
C802 C803 1.477 . S
C802 H822 0.931 . S
C803 C799 1.460 . S
C803 C802 1.477 . S
C803 H823 0.930 . S
C804 N800 1.362 . S
C804 C801 1.431 . S
C804 C814 1.476 . S
H805 C799 0.929 . S
C806 O797 1.250 . S
C806 O798 1.258 . S
O807 Mn792 2.162 . S
O807 C795 1.281 . S
O808 Mn792 2.297 . S
O808 C795 1.236 . S
N809 Mn793 2.282 . S
N809 C810 1.328 . S
N809 C814 1.318 . S
C810 N809 1.328 . S
C810 C811 1.457 . S
C810 H815 0.929 . S
C811 C810 1.457 . S
C811 C812 1.291 . S
C811 H824 0.931 . S
C812 C811 1.291 . S
C812 C813 1.373 . S
C812 H825 0.929 . S
C813 C812 1.373 . S
C813 C814 1.396 . S
C813 C820 1.403 . S
C814 C804 1.476 . S
C814 N809 1.318 . S
C814 C813 1.396 . S
H815 C810 0.929 . S
O816 Mn792 2.385 . S
O816 C794 1.234 . S
O817 Mn792 2.209 . S
O817 Mn793 2.215 . S
O817 C794 1.283 . S
O818 Mn792 2.094 . S
O818 C796 1.240 . S
O819 Mn793 2.117 . S
O819 C796 1.264 . S
C820 C813 1.403 . S
C820 C821 1.399 . S
C820 H826 0.929 . S
C821 C801 1.449 . S
C821 C820 1.399 . S
C821 H827 0.930 . S
H822 C802 0.931 . S
H823 C803 0.930 . S
H824 C811 0.931 . S
H825 C812 0.929 . S
H826 C820 0.929 . S
H827 C821 0.930 . S
Mn828 O833 2.095 . S
Mn828 O843 2.162 . S
Mn828 O844 2.297 . S
Mn828 O852 2.385 . S
Mn828 O853 2.209 . S
Mn828 O854 2.094 . S
Mn829 O834 2.121 . S
Mn829 N836 2.257 . S
Mn829 N845 2.282 . S
Mn829 O853 2.215 . S
Mn829 O855 2.117 . S
C830 O852 1.234 . S
C830 O853 1.283 . S
C831 O843 1.281 . S
C831 O844 1.236 . S
C832 O854 1.240 . S
C832 O855 1.264 . S
O833 Mn828 2.095 . S
O833 C842 1.250 . S
O834 Mn829 2.121 . S
O834 C842 1.258 . S
C835 N836 1.326 . S
C835 C839 1.460 . S
C835 H841 0.929 . S
N836 Mn829 2.257 . S
N836 C835 1.326 . S
N836 C840 1.362 . S
C837 C838 1.258 . S
C837 C840 1.431 . S
C837 C857 1.449 . S
C838 C837 1.258 . S
C838 C839 1.477 . S
C838 H858 0.931 . S
C839 C835 1.460 . S
C839 C838 1.477 . S
C839 H859 0.930 . S
C840 N836 1.362 . S
C840 C837 1.431 . S
C840 C850 1.476 . S
H841 C835 0.929 . S
C842 O833 1.250 . S
C842 O834 1.258 . S
O843 Mn828 2.162 . S
O843 C831 1.281 . S
O844 Mn828 2.297 . S
O844 C831 1.236 . S
N845 Mn829 2.282 . S
N845 C846 1.328 . S
N845 C850 1.318 . S
C846 N845 1.328 . S
C846 C847 1.457 . S
C846 H851 0.929 . S
C847 C846 1.457 . S
C847 C848 1.291 . S
C847 H860 0.931 . S
C848 C847 1.291 . S
C848 C849 1.373 . S
C848 H861 0.929 . S
C849 C848 1.373 . S
C849 C850 1.396 . S
C849 C856 1.403 . S
C850 C840 1.476 . S
C850 N845 1.318 . S
C850 C849 1.396 . S
H851 C846 0.929 . S
O852 Mn828 2.385 . S
O852 C830 1.234 . S
O853 Mn828 2.209 . S
O853 Mn829 2.215 . S
O853 C830 1.283 . S
O854 Mn828 2.094 . S
O854 C832 1.240 . S
O855 Mn829 2.117 . S
O855 C832 1.264 . S
C856 C849 1.403 . S
C856 C857 1.399 . S
C856 H862 0.929 . S
C857 C837 1.449 . S
C857 C856 1.399 . S
C857 H863 0.930 . S
H858 C838 0.931 . S
H859 C839 0.930 . S
H860 C847 0.931 . S
H861 C848 0.929 . S
H862 C856 0.929 . S
H863 C857 0.930 . S
Mn864 O869 2.095 . S
Mn864 O879 2.162 . S
Mn864 O880 2.297 . S
Mn864 O888 2.385 . S
Mn864 O889 2.209 . S
Mn864 O890 2.094 . S
Mn865 O870 2.121 . S
Mn865 N872 2.257 . S
Mn865 N881 2.282 . S
Mn865 O889 2.215 . S
Mn865 O891 2.117 . S
C866 O888 1.234 . S
C866 O889 1.283 . S
C867 O879 1.281 . S
C867 O880 1.236 . S
C868 O890 1.240 . S
C868 O891 1.264 . S
O869 Mn864 2.095 . S
O869 C878 1.250 . S
O870 Mn865 2.121 . S
O870 C878 1.258 . S
C871 N872 1.326 . S
C871 C875 1.460 . S
C871 H877 0.929 . S
N872 Mn865 2.257 . S
N872 C871 1.326 . S
N872 C876 1.362 . S
C873 C874 1.258 . S
C873 C876 1.431 . S
C873 C893 1.449 . S
C874 C873 1.258 . S
C874 C875 1.477 . S
C874 H894 0.931 . S
C875 C871 1.460 . S
C875 C874 1.477 . S
C875 H895 0.930 . S
C876 N872 1.362 . S
C876 C873 1.431 . S
C876 C886 1.476 . S
H877 C871 0.929 . S
C878 O869 1.250 . S
C878 O870 1.258 . S
O879 Mn864 2.162 . S
O879 C867 1.281 . S
O880 Mn864 2.297 . S
O880 C867 1.236 . S
N881 Mn865 2.282 . S
N881 C882 1.328 . S
N881 C886 1.318 . S
C882 N881 1.328 . S
C882 C883 1.457 . S
C882 H887 0.929 . S
C883 C882 1.457 . S
C883 C884 1.291 . S
C883 H896 0.931 . S
C884 C883 1.291 . S
C884 C885 1.373 . S
C884 H897 0.929 . S
C885 C884 1.373 . S
C885 C886 1.396 . S
C885 C892 1.403 . S
C886 C876 1.476 . S
C886 N881 1.318 . S
C886 C885 1.396 . S
H887 C882 0.929 . S
O888 Mn864 2.385 . S
O888 C866 1.234 . S
O889 Mn864 2.209 . S
O889 Mn865 2.215 . S
O889 C866 1.283 . S
O890 Mn864 2.094 . S
O890 C868 1.240 . S
O891 Mn865 2.117 . S
O891 C868 1.264 . S
C892 C885 1.403 . S
C892 C893 1.399 . S
C892 H898 0.929 . S
C893 C873 1.449 . S
C893 C892 1.399 . S
C893 H899 0.930 . S
H894 C874 0.931 . S
H895 C875 0.930 . S
H896 C883 0.931 . S
H897 C884 0.929 . S
H898 C892 0.929 . S
H899 C893 0.930 . S
Mn900 O905 2.095 . S
Mn900 O915 2.162 . S
Mn900 O916 2.297 . S
Mn900 O924 2.385 . S
Mn900 O925 2.209 . S
Mn900 O926 2.094 . S
Mn901 O906 2.121 . S
Mn901 N908 2.257 . S
Mn901 N917 2.282 . S
Mn901 O925 2.215 . S
Mn901 O927 2.117 . S
C902 O924 1.234 . S
C902 O925 1.283 . S
C903 O915 1.281 . S
C903 O916 1.236 . S
C904 O926 1.240 . S
C904 O927 1.264 . S
O905 Mn900 2.095 . S
O905 C914 1.250 . S
O906 Mn901 2.121 . S
O906 C914 1.258 . S
C907 N908 1.326 . S
C907 C911 1.460 . S
C907 H913 0.929 . S
N908 Mn901 2.257 . S
N908 C907 1.326 . S
N908 C912 1.362 . S
C909 C910 1.258 . S
C909 C912 1.431 . S
C909 C929 1.449 . S
C910 C909 1.258 . S
C910 C911 1.477 . S
C910 H930 0.931 . S
C911 C907 1.460 . S
C911 C910 1.477 . S
C911 H931 0.930 . S
C912 N908 1.362 . S
C912 C909 1.431 . S
C912 C922 1.476 . S
H913 C907 0.929 . S
C914 O905 1.250 . S
C914 O906 1.258 . S
O915 Mn900 2.162 . S
O915 C903 1.281 . S
O916 Mn900 2.297 . S
O916 C903 1.236 . S
N917 Mn901 2.282 . S
N917 C918 1.328 . S
N917 C922 1.318 . S
C918 N917 1.328 . S
C918 C919 1.457 . S
C918 H923 0.929 . S
C919 C918 1.457 . S
C919 C920 1.291 . S
C919 H932 0.931 . S
C920 C919 1.291 . S
C920 C921 1.373 . S
C920 H933 0.929 . S
C921 C920 1.373 . S
C921 C922 1.396 . S
C921 C928 1.403 . S
C922 C912 1.476 . S
C922 N917 1.318 . S
C922 C921 1.396 . S
H923 C918 0.929 . S
O924 Mn900 2.385 . S
O924 C902 1.234 . S
O925 Mn900 2.209 . S
O925 Mn901 2.215 . S
O925 C902 1.283 . S
O926 Mn900 2.094 . S
O926 C904 1.240 . S
O927 Mn901 2.117 . S
O927 C904 1.264 . S
C928 C921 1.403 . S
C928 C929 1.399 . S
C928 H934 0.929 . S
C929 C909 1.449 . S
C929 C928 1.399 . S
C929 H935 0.930 . S
H930 C910 0.931 . S
H931 C911 0.930 . S
H932 C919 0.931 . S
H933 C920 0.929 . S
H934 C928 0.929 . S
H935 C929 0.930 . S
Mn936 O941 2.095 . S
Mn936 O951 2.162 . S
Mn936 O952 2.297 . S
Mn936 O960 2.385 . S
Mn936 O961 2.209 . S
Mn936 O962 2.094 . S
Mn937 O942 2.121 . S
Mn937 N944 2.257 . S
Mn937 N953 2.282 . S
Mn937 O961 2.215 . S
Mn937 O963 2.117 . S
C938 O960 1.234 . S
C938 O961 1.283 . S
C939 O951 1.281 . S
C939 O952 1.236 . S
C940 O962 1.240 . S
C940 O963 1.264 . S
O941 Mn936 2.095 . S
O941 C950 1.250 . S
O942 Mn937 2.121 . S
O942 C950 1.258 . S
C943 N944 1.326 . S
C943 C947 1.460 . S
C943 H949 0.929 . S
N944 Mn937 2.257 . S
N944 C943 1.326 . S
N944 C948 1.362 . S
C945 C946 1.258 . S
C945 C948 1.431 . S
C945 C965 1.449 . S
C946 C945 1.258 . S
C946 C947 1.477 . S
C946 H966 0.931 . S
C947 C943 1.460 . S
C947 C946 1.477 . S
C947 H967 0.930 . S
C948 N944 1.362 . S
C948 C945 1.431 . S
C948 C958 1.476 . S
H949 C943 0.929 . S
C950 O941 1.250 . S
C950 O942 1.258 . S
O951 Mn936 2.162 . S
O951 C939 1.281 . S
O952 Mn936 2.297 . S
O952 C939 1.236 . S
N953 Mn937 2.282 . S
N953 C954 1.328 . S
N953 C958 1.318 . S
C954 N953 1.328 . S
C954 C955 1.457 . S
C954 H959 0.929 . S
C955 C954 1.457 . S
C955 C956 1.291 . S
C955 H968 0.931 . S
C956 C955 1.291 . S
C956 C957 1.373 . S
C956 H969 0.929 . S
C957 C956 1.373 . S
C957 C958 1.396 . S
C957 C964 1.403 . S
C958 C948 1.476 . S
C958 N953 1.318 . S
C958 C957 1.396 . S
H959 C954 0.929 . S
O960 Mn936 2.385 . S
O960 C938 1.234 . S
O961 Mn936 2.209 . S
O961 Mn937 2.215 . S
O961 C938 1.283 . S
O962 Mn936 2.094 . S
O962 C940 1.240 . S
O963 Mn937 2.117 . S
O963 C940 1.264 . S
C964 C957 1.403 . S
C964 C965 1.399 . S
C964 H970 0.929 . S
C965 C945 1.449 . S
C965 C964 1.399 . S
C965 H971 0.930 . S
H966 C946 0.931 . S
H967 C947 0.930 . S
H968 C955 0.931 . S
H969 C956 0.929 . S
H970 C964 0.929 . S
H971 C965 0.930 . S
Mn972 O977 2.095 . S
Mn972 O987 2.162 . S
Mn972 O988 2.297 . S
Mn972 O996 2.385 . S
Mn972 O997 2.209 . S
Mn972 O998 2.094 . S
Mn973 O978 2.121 . S
Mn973 N980 2.257 . S
Mn973 N989 2.282 . S
Mn973 O997 2.215 . S
Mn973 O999 2.117 . S
C974 O996 1.234 . S
C974 O997 1.283 . S
C975 O987 1.281 . S
C975 O988 1.236 . S
C976 O998 1.240 . S
C976 O999 1.264 . S
O977 Mn972 2.095 . S
O977 C986 1.250 . S
O978 Mn973 2.121 . S
O978 C986 1.258 . S
C979 N980 1.326 . S
C979 C983 1.460 . S
C979 H985 0.929 . S
N980 Mn973 2.257 . S
N980 C979 1.326 . S
N980 C984 1.362 . S
C981 C982 1.258 . S
C981 C984 1.431 . S
C981 C1001 1.449 . S
C982 C981 1.258 . S
C982 C983 1.477 . S
C982 H1002 0.931 . S
C983 C979 1.460 . S
C983 C982 1.477 . S
C983 H1003 0.930 . S
C984 N980 1.362 . S
C984 C981 1.431 . S
C984 C994 1.476 . S
H985 C979 0.929 . S
C986 O977 1.250 . S
C986 O978 1.258 . S
O987 Mn972 2.162 . S
O987 C975 1.281 . S
O988 Mn972 2.297 . S
O988 C975 1.236 . S
N989 Mn973 2.282 . S
N989 C990 1.328 . S
N989 C994 1.318 . S
C990 N989 1.328 . S
C990 C991 1.457 . S
C990 H995 0.929 . S
C991 C990 1.457 . S
C991 C992 1.291 . S
C991 H1004 0.931 . S
C992 C991 1.291 . S
C992 C993 1.373 . S
C992 H1005 0.929 . S
C993 C992 1.373 . S
C993 C994 1.396 . S
C993 C1000 1.403 . S
C994 C984 1.476 . S
C994 N989 1.318 . S
C994 C993 1.396 . S
H995 C990 0.929 . S
O996 Mn972 2.385 . S
O996 C974 1.234 . S
O997 Mn972 2.209 . S
O997 Mn973 2.215 . S
O997 C974 1.283 . S
O998 Mn972 2.094 . S
O998 C976 1.240 . S
O999 Mn973 2.117 . S
O999 C976 1.264 . S
C1000 C993 1.403 . S
C1000 C1001 1.399 . S
C1000 H1006 0.929 . S
C1001 C981 1.449 . S
C1001 C1000 1.399 . S
C1001 H1007 0.930 . S
H1002 C982 0.931 . S
H1003 C983 0.930 . S
H1004 C991 0.931 . S
H1005 C992 0.929 . S
H1006 C1000 0.929 . S
H1007 C1001 0.930 . S
Mn1008 O1013 2.095 . S
Mn1008 O1023 2.162 . S
Mn1008 O1024 2.297 . S
Mn1008 O1032 2.385 . S
Mn1008 O1033 2.209 . S
Mn1008 O1034 2.094 . S
Mn1009 O1014 2.121 . S
Mn1009 N1016 2.257 . S
Mn1009 N1025 2.282 . S
Mn1009 O1033 2.215 . S
Mn1009 O1035 2.117 . S
C1010 O1032 1.234 . S
C1010 O1033 1.283 . S
C1011 O1023 1.281 . S
C1011 O1024 1.236 . S
C1012 O1034 1.240 . S
C1012 O1035 1.264 . S
O1013 Mn1008 2.095 . S
O1013 C1022 1.250 . S
O1014 Mn1009 2.121 . S
O1014 C1022 1.258 . S
C1015 N1016 1.326 . S
C1015 C1019 1.460 . S
C1015 H1021 0.929 . S
N1016 Mn1009 2.257 . S
N1016 C1015 1.326 . S
N1016 C1020 1.362 . S
C1017 C1018 1.258 . S
C1017 C1020 1.431 . S
C1017 C1037 1.449 . S
C1018 C1017 1.258 . S
C1018 C1019 1.477 . S
C1018 H1038 0.931 . S
C1019 C1015 1.460 . S
C1019 C1018 1.477 . S
C1019 H1039 0.930 . S
C1020 N1016 1.362 . S
C1020 C1017 1.431 . S
C1020 C1030 1.476 . S
H1021 C1015 0.929 . S
C1022 O1013 1.250 . S
C1022 O1014 1.258 . S
O1023 Mn1008 2.162 . S
O1023 C1011 1.281 . S
O1024 Mn1008 2.297 . S
O1024 C1011 1.236 . S
N1025 Mn1009 2.282 . S
N1025 C1026 1.328 . S
N1025 C1030 1.318 . S
C1026 N1025 1.328 . S
C1026 C1027 1.457 . S
C1026 H1031 0.929 . S
C1027 C1026 1.457 . S
C1027 C1028 1.291 . S
C1027 H1040 0.931 . S
C1028 C1027 1.291 . S
C1028 C1029 1.373 . S
C1028 H1041 0.929 . S
C1029 C1028 1.373 . S
C1029 C1030 1.396 . S
C1029 C1036 1.403 . S
C1030 C1020 1.476 . S
C1030 N1025 1.318 . S
C1030 C1029 1.396 . S
H1031 C1026 0.929 . S
O1032 Mn1008 2.385 . S
O1032 C1010 1.234 . S
O1033 Mn1008 2.209 . S
O1033 Mn1009 2.215 . S
O1033 C1010 1.283 . S
O1034 Mn1008 2.094 . S
O1034 C1012 1.240 . S
O1035 Mn1009 2.117 . S
O1035 C1012 1.264 . S
C1036 C1029 1.403 . S
C1036 C1037 1.399 . S
C1036 H1042 0.929 . S
C1037 C1017 1.449 . S
C1037 C1036 1.399 . S
C1037 H1043 0.930 . S
H1038 C1018 0.931 . S
H1039 C1019 0.930 . S
H1040 C1027 0.931 . S
H1041 C1028 0.929 . S
H1042 C1036 0.929 . S
H1043 C1037 0.930 . S
Mn1044 O1049 2.095 . S
Mn1044 O1059 2.162 . S
Mn1044 O1060 2.297 . S
Mn1044 O1068 2.385 . S
Mn1044 O1069 2.209 . S
Mn1044 O1070 2.094 . S
Mn1045 O1050 2.121 . S
Mn1045 N1052 2.257 . S
Mn1045 N1061 2.282 . S
Mn1045 O1069 2.215 . S
Mn1045 O1071 2.117 . S
C1046 O1068 1.234 . S
C1046 O1069 1.283 . S
C1047 O1059 1.281 . S
C1047 O1060 1.236 . S
C1048 O1070 1.240 . S
C1048 O1071 1.264 . S
O1049 Mn1044 2.095 . S
O1049 C1058 1.250 . S
O1050 Mn1045 2.121 . S
O1050 C1058 1.258 . S
C1051 N1052 1.326 . S
C1051 C1055 1.460 . S
C1051 H1057 0.929 . S
N1052 Mn1045 2.257 . S
N1052 C1051 1.326 . S
N1052 C1056 1.362 . S
C1053 C1054 1.258 . S
C1053 C1056 1.431 . S
C1053 C1073 1.449 . S
C1054 C1053 1.258 . S
C1054 C1055 1.477 . S
C1054 H1074 0.931 . S
C1055 C1051 1.460 . S
C1055 C1054 1.477 . S
C1055 H1075 0.930 . S
C1056 N1052 1.362 . S
C1056 C1053 1.431 . S
C1056 C1066 1.476 . S
H1057 C1051 0.929 . S
C1058 O1049 1.250 . S
C1058 O1050 1.258 . S
O1059 Mn1044 2.162 . S
O1059 C1047 1.281 . S
O1060 Mn1044 2.297 . S
O1060 C1047 1.236 . S
N1061 Mn1045 2.282 . S
N1061 C1062 1.328 . S
N1061 C1066 1.318 . S
C1062 N1061 1.328 . S
C1062 C1063 1.457 . S
C1062 H1067 0.929 . S
C1063 C1062 1.457 . S
C1063 C1064 1.291 . S
C1063 H1076 0.931 . S
C1064 C1063 1.291 . S
C1064 C1065 1.373 . S
C1064 H1077 0.929 . S
C1065 C1064 1.373 . S
C1065 C1066 1.396 . S
C1065 C1072 1.403 . S
C1066 C1056 1.476 . S
C1066 N1061 1.318 . S
C1066 C1065 1.396 . S
H1067 C1062 0.929 . S
O1068 Mn1044 2.385 . S
O1068 C1046 1.234 . S
O1069 Mn1044 2.209 . S
O1069 Mn1045 2.215 . S
O1069 C1046 1.283 . S
O1070 Mn1044 2.094 . S
O1070 C1048 1.240 . S
O1071 Mn1045 2.117 . S
O1071 C1048 1.264 . S
C1072 C1065 1.403 . S
C1072 C1073 1.399 . S
C1072 H1078 0.929 . S
C1073 C1053 1.449 . S
C1073 C1072 1.399 . S
C1073 H1079 0.930 . S
H1074 C1054 0.931 . S
H1075 C1055 0.930 . S
H1076 C1063 0.931 . S
H1077 C1064 0.929 . S
H1078 C1072 0.929 . S
H1079 C1073 0.930 . S
Mn1080 O1085 2.095 . S
Mn1080 O1095 2.162 . S
Mn1080 O1096 2.297 . S
Mn1080 O1104 2.385 . S
Mn1080 O1105 2.209 . S
Mn1080 O1106 2.094 . S
Mn1081 O1086 2.121 . S
Mn1081 N1088 2.257 . S
Mn1081 N1097 2.282 . S
Mn1081 O1105 2.215 . S
Mn1081 O1107 2.117 . S
C1082 O1104 1.234 . S
C1082 O1105 1.283 . S
C1083 O1095 1.281 . S
C1083 O1096 1.236 . S
C1084 O1106 1.240 . S
C1084 O1107 1.264 . S
O1085 Mn1080 2.095 . S
O1085 C1094 1.250 . S
O1086 Mn1081 2.121 . S
O1086 C1094 1.258 . S
C1087 N1088 1.326 . S
C1087 C1091 1.460 . S
C1087 H1093 0.929 . S
N1088 Mn1081 2.257 . S
N1088 C1087 1.326 . S
N1088 C1092 1.362 . S
C1089 C1090 1.258 . S
C1089 C1092 1.431 . S
C1089 C1109 1.449 . S
C1090 C1089 1.258 . S
C1090 C1091 1.477 . S
C1090 H1110 0.931 . S
C1091 C1087 1.460 . S
C1091 C1090 1.477 . S
C1091 H1111 0.930 . S
C1092 N1088 1.362 . S
C1092 C1089 1.431 . S
C1092 C1102 1.476 . S
H1093 C1087 0.929 . S
C1094 O1085 1.250 . S
C1094 O1086 1.258 . S
O1095 Mn1080 2.162 . S
O1095 C1083 1.281 . S
O1096 Mn1080 2.297 . S
O1096 C1083 1.236 . S
N1097 Mn1081 2.282 . S
N1097 C1098 1.328 . S
N1097 C1102 1.318 . S
C1098 N1097 1.328 . S
C1098 C1099 1.457 . S
C1098 H1103 0.929 . S
C1099 C1098 1.457 . S
C1099 C1100 1.291 . S
C1099 H1112 0.931 . S
C1100 C1099 1.291 . S
C1100 C1101 1.373 . S
C1100 H1113 0.929 . S
C1101 C1100 1.373 . S
C1101 C1102 1.396 . S
C1101 C1108 1.403 . S
C1102 C1092 1.476 . S
C1102 N1097 1.318 . S
C1102 C1101 1.396 . S
H1103 C1098 0.929 . S
O1104 Mn1080 2.385 . S
O1104 C1082 1.234 . S
O1105 Mn1080 2.209 . S
O1105 Mn1081 2.215 . S
O1105 C1082 1.283 . S
O1106 Mn1080 2.094 . S
O1106 C1084 1.240 . S
O1107 Mn1081 2.117 . S
O1107 C1084 1.264 . S
C1108 C1101 1.403 . S
C1108 C1109 1.399 . S
C1108 H1114 0.929 . S
C1109 C1089 1.449 . S
C1109 C1108 1.399 . S
C1109 H1115 0.930 . S
H1110 C1090 0.931 . S
H1111 C1091 0.930 . S
H1112 C1099 0.931 . S
H1113 C1100 0.929 . S
H1114 C1108 0.929 . S
H1115 C1109 0.930 . S
Mn1116 O1121 2.095 . S
Mn1116 O1131 2.162 . S
Mn1116 O1132 2.297 . S
Mn1116 O1140 2.385 . S
Mn1116 O1141 2.209 . S
Mn1116 O1142 2.094 . S
Mn1117 O1122 2.121 . S
Mn1117 N1124 2.257 . S
Mn1117 N1133 2.282 . S
Mn1117 O1141 2.215 . S
Mn1117 O1143 2.117 . S
C1118 O1140 1.234 . S
C1118 O1141 1.283 . S
C1119 O1131 1.281 . S
C1119 O1132 1.236 . S
C1120 O1142 1.240 . S
C1120 O1143 1.264 . S
O1121 Mn1116 2.095 . S
O1121 C1130 1.250 . S
O1122 Mn1117 2.121 . S
O1122 C1130 1.258 . S
C1123 N1124 1.326 . S
C1123 C1127 1.460 . S
C1123 H1129 0.929 . S
N1124 Mn1117 2.257 . S
N1124 C1123 1.326 . S
N1124 C1128 1.362 . S
C1125 C1126 1.258 . S
C1125 C1128 1.431 . S
C1125 C1145 1.449 . S
C1126 C1125 1.258 . S
C1126 C1127 1.477 . S
C1126 H1146 0.931 . S
C1127 C1123 1.460 . S
C1127 C1126 1.477 . S
C1127 H1147 0.930 . S
C1128 N1124 1.362 . S
C1128 C1125 1.431 . S
C1128 C1138 1.476 . S
H1129 C1123 0.929 . S
C1130 O1121 1.250 . S
C1130 O1122 1.258 . S
O1131 Mn1116 2.162 . S
O1131 C1119 1.281 . S
O1132 Mn1116 2.297 . S
O1132 C1119 1.236 . S
N1133 Mn1117 2.282 . S
N1133 C1134 1.328 . S
N1133 C1138 1.318 . S
C1134 N1133 1.328 . S
C1134 C1135 1.457 . S
C1134 H1139 0.929 . S
C1135 C1134 1.457 . S
C1135 C1136 1.291 . S
C1135 H1148 0.931 . S
C1136 C1135 1.291 . S
C1136 C1137 1.373 . S
C1136 H1149 0.929 . S
C1137 C1136 1.373 . S
C1137 C1138 1.396 . S
C1137 C1144 1.403 . S
C1138 C1128 1.476 . S
C1138 N1133 1.318 . S
C1138 C1137 1.396 . S
H1139 C1134 0.929 . S
O1140 Mn1116 2.385 . S
O1140 C1118 1.234 . S
O1141 Mn1116 2.209 . S
O1141 Mn1117 2.215 . S
O1141 C1118 1.283 . S
O1142 Mn1116 2.094 . S
O1142 C1120 1.240 . S
O1143 Mn1117 2.117 . S
O1143 C1120 1.264 . S
C1144 C1137 1.403 . S
C1144 C1145 1.399 . S
C1144 H1150 0.929 . S
C1145 C1125 1.449 . S
C1145 C1144 1.399 . S
C1145 H1151 0.930 . S
H1146 C1126 0.931 . S
H1147 C1127 0.930 . S
H1148 C1135 0.931 . S
H1149 C1136 0.929 . S
H1150 C1144 0.929 . S
H1151 C1145 0.930 . S
H1152 C1164 0.930 . S
H1153 C1166 0.930 . S
H1154 C1167 0.930 . S
H1155 C1171 0.959 . S
H1156 C1171 0.959 . S
H1157 C1171 0.961 . S
H1158 C1172 0.960 . S
H1159 C1172 0.961 . S
H1160 C1172 0.959 . S
H1161 C1175 0.929 . S
H1162 C1176 0.931 . S
H1163 C1178 0.930 . S
C1164 H1152 0.930 . S
C1164 C1165 1.399 . S
C1164 C1169 1.399 . S
C1165 C1164 1.399 . S
C1165 C1166 1.376 . S
C1166 H1153 0.930 . S
C1166 C1165 1.376 . S
C1166 C1167 1.388 . S
C1167 H1154 0.930 . S
C1167 C1166 1.388 . S
C1167 C1168 1.390 . S
C1168 C1167 1.390 . S
C1168 C1169 1.394 . S
C1168 C1174 1.465 . S
C1169 C1164 1.399 . S
C1169 C1168 1.394 . S
C1169 C1170 1.516 . S
C1170 C1169 1.516 . S
C1170 C1171 1.502 . S
C1170 C1172 1.561 . S
C1170 C1173 1.526 . S
C1171 H1155 0.959 . S
C1171 H1156 0.959 . S
C1171 H1157 0.961 . S
C1171 C1170 1.502 . S
C1172 H1158 0.960 . S
C1172 H1159 0.961 . S
C1172 H1160 0.959 . S
C1172 C1170 1.561 . S
C1173 C1170 1.526 . S
C1173 C1174 1.396 . S
C1173 C1178 1.390 . S
C1174 C1168 1.465 . S
C1174 C1173 1.396 . S
C1174 C1175 1.399 . S
C1175 H1161 0.929 . S
C1175 C1174 1.399 . S
C1175 C1176 1.385 . S
C1176 H1162 0.931 . S
C1176 C1175 1.385 . S
C1176 C1177 1.389 . S
C1177 C1176 1.389 . S
C1177 C1178 1.387 . S
C1178 H1163 0.930 . S
C1178 C1173 1.390 . S
C1178 C1177 1.387 . S
H1179 C1191 0.930 . S
H1180 C1193 0.930 . S
H1181 C1194 0.930 . S
H1182 C1198 0.959 . S
H1183 C1198 0.959 . S
H1184 C1198 0.961 . S
H1185 C1199 0.960 . S
H1186 C1199 0.961 . S
H1187 C1199 0.959 . S
H1188 C1202 0.929 . S
H1189 C1203 0.931 . S
H1190 C1205 0.930 . S
C1191 H1179 0.930 . S
C1191 C1192 1.399 . S
C1191 C1196 1.399 . S
C1192 C1191 1.399 . S
C1192 C1193 1.376 . S
C1193 H1180 0.930 . S
C1193 C1192 1.376 . S
C1193 C1194 1.388 . S
C1194 H1181 0.930 . S
C1194 C1193 1.388 . S
C1194 C1195 1.390 . S
C1195 C1194 1.390 . S
C1195 C1196 1.394 . S
C1195 C1201 1.465 . S
C1196 C1191 1.399 . S
C1196 C1195 1.394 . S
C1196 C1197 1.516 . S
C1197 C1196 1.516 . S
C1197 C1198 1.502 . S
C1197 C1199 1.561 . S
C1197 C1200 1.526 . S
C1198 H1182 0.959 . S
C1198 H1183 0.959 . S
C1198 H1184 0.961 . S
C1198 C1197 1.502 . S
C1199 H1185 0.960 . S
C1199 H1186 0.961 . S
C1199 H1187 0.959 . S
C1199 C1197 1.561 . S
C1200 C1197 1.526 . S
C1200 C1201 1.396 . S
C1200 C1205 1.390 . S
C1201 C1195 1.465 . S
C1201 C1200 1.396 . S
C1201 C1202 1.399 . S
C1202 H1188 0.929 . S
C1202 C1201 1.399 . S
C1202 C1203 1.385 . S
C1203 H1189 0.931 . S
C1203 C1202 1.385 . S
C1203 C1204 1.389 . S
C1204 C1203 1.389 . S
C1204 C1205 1.387 . S
C1205 H1190 0.930 . S
C1205 C1200 1.390 . S
C1205 C1204 1.387 . S
H1206 C1218 0.930 . S
H1207 C1220 0.930 . S
H1208 C1221 0.930 . S
H1209 C1225 0.959 . S
H1210 C1225 0.959 . S
H1211 C1225 0.961 . S
H1212 C1226 0.960 . S
H1213 C1226 0.961 . S
H1214 C1226 0.959 . S
H1215 C1229 0.929 . S
H1216 C1230 0.931 . S
H1217 C1232 0.930 . S
C1218 H1206 0.930 . S
C1218 C1219 1.399 . S
C1218 C1223 1.399 . S
C1219 C1218 1.399 . S
C1219 C1220 1.376 . S
C1220 H1207 0.930 . S
C1220 C1219 1.376 . S
C1220 C1221 1.388 . S
C1221 H1208 0.930 . S
C1221 C1220 1.388 . S
C1221 C1222 1.390 . S
C1222 C1221 1.390 . S
C1222 C1223 1.394 . S
C1222 C1228 1.465 . S
C1223 C1218 1.399 . S
C1223 C1222 1.394 . S
C1223 C1224 1.516 . S
C1224 C1223 1.516 . S
C1224 C1225 1.502 . S
C1224 C1226 1.561 . S
C1224 C1227 1.526 . S
C1225 H1209 0.959 . S
C1225 H1210 0.959 . S
C1225 H1211 0.961 . S
C1225 C1224 1.502 . S
C1226 H1212 0.960 . S
C1226 H1213 0.961 . S
C1226 H1214 0.959 . S
C1226 C1224 1.561 . S
C1227 C1224 1.526 . S
C1227 C1228 1.396 . S
C1227 C1232 1.390 . S
C1228 C1222 1.465 . S
C1228 C1227 1.396 . S
C1228 C1229 1.399 . S
C1229 H1215 0.929 . S
C1229 C1228 1.399 . S
C1229 C1230 1.385 . S
C1230 H1216 0.931 . S
C1230 C1229 1.385 . S
C1230 C1231 1.389 . S
C1231 C1230 1.389 . S
C1231 C1232 1.387 . S
C1232 H1217 0.930 . S
C1232 C1227 1.390 . S
C1232 C1231 1.387 . S
H1233 C1245 0.930 . S
H1234 C1247 0.930 . S
H1235 C1248 0.930 . S
H1236 C1252 0.959 . S
H1237 C1252 0.959 . S
H1238 C1252 0.961 . S
H1239 C1253 0.960 . S
H1240 C1253 0.961 . S
H1241 C1253 0.959 . S
H1242 C1256 0.929 . S
H1243 C1257 0.931 . S
H1244 C1259 0.930 . S
C1245 H1233 0.930 . S
C1245 C1246 1.399 . S
C1245 C1250 1.399 . S
C1246 C1245 1.399 . S
C1246 C1247 1.376 . S
C1247 H1234 0.930 . S
C1247 C1246 1.376 . S
C1247 C1248 1.388 . S
C1248 H1235 0.930 . S
C1248 C1247 1.388 . S
C1248 C1249 1.390 . S
C1249 C1248 1.390 . S
C1249 C1250 1.394 . S
C1249 C1255 1.465 . S
C1250 C1245 1.399 . S
C1250 C1249 1.394 . S
C1250 C1251 1.516 . S
C1251 C1250 1.516 . S
C1251 C1252 1.502 . S
C1251 C1253 1.561 . S
C1251 C1254 1.526 . S
C1252 H1236 0.959 . S
C1252 H1237 0.959 . S
C1252 H1238 0.961 . S
C1252 C1251 1.502 . S
C1253 H1239 0.960 . S
C1253 H1240 0.961 . S
C1253 H1241 0.959 . S
C1253 C1251 1.561 . S
C1254 C1251 1.526 . S
C1254 C1255 1.396 . S
C1254 C1259 1.390 . S
C1255 C1249 1.465 . S
C1255 C1254 1.396 . S
C1255 C1256 1.399 . S
C1256 H1242 0.929 . S
C1256 C1255 1.399 . S
C1256 C1257 1.385 . S
C1257 H1243 0.931 . S
C1257 C1256 1.385 . S
C1257 C1258 1.389 . S
C1258 C1257 1.389 . S
C1258 C1259 1.387 . S
C1259 H1244 0.930 . S
C1259 C1254 1.390 . S
C1259 C1258 1.387 . S
H1260 C1272 0.930 . S
H1261 C1274 0.930 . S
H1262 C1275 0.930 . S
H1263 C1279 0.959 . S
H1264 C1279 0.959 . S
H1265 C1279 0.961 . S
H1266 C1280 0.960 . S
H1267 C1280 0.961 . S
H1268 C1280 0.959 . S
H1269 C1283 0.929 . S
H1270 C1284 0.931 . S
H1271 C1286 0.930 . S
C1272 H1260 0.930 . S
C1272 C1273 1.399 . S
C1272 C1277 1.399 . S
C1273 C1272 1.399 . S
C1273 C1274 1.376 . S
C1274 H1261 0.930 . S
C1274 C1273 1.376 . S
C1274 C1275 1.388 . S
C1275 H1262 0.930 . S
C1275 C1274 1.388 . S
C1275 C1276 1.390 . S
C1276 C1275 1.390 . S
C1276 C1277 1.394 . S
C1276 C1282 1.465 . S
C1277 C1272 1.399 . S
C1277 C1276 1.394 . S
C1277 C1278 1.516 . S
C1278 C1277 1.516 . S
C1278 C1279 1.502 . S
C1278 C1280 1.561 . S
C1278 C1281 1.526 . S
C1279 H1263 0.959 . S
C1279 H1264 0.959 . S
C1279 H1265 0.961 . S
C1279 C1278 1.502 . S
C1280 H1266 0.960 . S
C1280 H1267 0.961 . S
C1280 H1268 0.959 . S
C1280 C1278 1.561 . S
C1281 C1278 1.526 . S
C1281 C1282 1.396 . S
C1281 C1286 1.390 . S
C1282 C1276 1.465 . S
C1282 C1281 1.396 . S
C1282 C1283 1.399 . S
C1283 H1269 0.929 . S
C1283 C1282 1.399 . S
C1283 C1284 1.385 . S
C1284 H1270 0.931 . S
C1284 C1283 1.385 . S
C1284 C1285 1.389 . S
C1285 C1284 1.389 . S
C1285 C1286 1.387 . S
C1286 H1271 0.930 . S
C1286 C1281 1.390 . S
C1286 C1285 1.387 . S
H1287 C1299 0.930 . S
H1288 C1301 0.930 . S
H1289 C1302 0.930 . S
H1290 C1306 0.959 . S
H1291 C1306 0.959 . S
H1292 C1306 0.961 . S
H1293 C1307 0.960 . S
H1294 C1307 0.961 . S
H1295 C1307 0.959 . S
H1296 C1310 0.929 . S
H1297 C1311 0.931 . S
H1298 C1313 0.930 . S
C1299 H1287 0.930 . S
C1299 C1300 1.399 . S
C1299 C1304 1.399 . S
C1300 C1299 1.399 . S
C1300 C1301 1.376 . S
C1301 H1288 0.930 . S
C1301 C1300 1.376 . S
C1301 C1302 1.388 . S
C1302 H1289 0.930 . S
C1302 C1301 1.388 . S
C1302 C1303 1.390 . S
C1303 C1302 1.390 . S
C1303 C1304 1.394 . S
C1303 C1309 1.465 . S
C1304 C1299 1.399 . S
C1304 C1303 1.394 . S
C1304 C1305 1.516 . S
C1305 C1304 1.516 . S
C1305 C1306 1.502 . S
C1305 C1307 1.561 . S
C1305 C1308 1.526 . S
C1306 H1290 0.959 . S
C1306 H1291 0.959 . S
C1306 H1292 0.961 . S
C1306 C1305 1.502 . S
C1307 H1293 0.960 . S
C1307 H1294 0.961 . S
C1307 H1295 0.959 . S
C1307 C1305 1.561 . S
C1308 C1305 1.526 . S
C1308 C1309 1.396 . S
C1308 C1313 1.390 . S
C1309 C1303 1.465 . S
C1309 C1308 1.396 . S
C1309 C1310 1.399 . S
C1310 H1296 0.929 . S
C1310 C1309 1.399 . S
C1310 C1311 1.385 . S
C1311 H1297 0.931 . S
C1311 C1310 1.385 . S
C1311 C1312 1.389 . S
C1312 C1311 1.389 . S
C1312 C1313 1.387 . S
C1313 H1298 0.930 . S
C1313 C1308 1.390 . S
C1313 C1312 1.387 . S
H1314 C1326 0.930 . S
H1315 C1328 0.930 . S
H1316 C1329 0.930 . S
H1317 C1333 0.959 . S
H1318 C1333 0.959 . S
H1319 C1333 0.961 . S
H1320 C1334 0.960 . S
H1321 C1334 0.961 . S
H1322 C1334 0.959 . S
H1323 C1337 0.929 . S
H1324 C1338 0.931 . S
H1325 C1340 0.930 . S
C1326 H1314 0.930 . S
C1326 C1327 1.399 . S
C1326 C1331 1.399 . S
C1327 C1326 1.399 . S
C1327 C1328 1.376 . S
C1328 H1315 0.930 . S
C1328 C1327 1.376 . S
C1328 C1329 1.388 . S
C1329 H1316 0.930 . S
C1329 C1328 1.388 . S
C1329 C1330 1.390 . S
C1330 C1329 1.390 . S
C1330 C1331 1.394 . S
C1330 C1336 1.465 . S
C1331 C1326 1.399 . S
C1331 C1330 1.394 . S
C1331 C1332 1.516 . S
C1332 C1331 1.516 . S
C1332 C1333 1.502 . S
C1332 C1334 1.561 . S
C1332 C1335 1.526 . S
C1333 H1317 0.959 . S
C1333 H1318 0.959 . S
C1333 H1319 0.961 . S
C1333 C1332 1.502 . S
C1334 H1320 0.960 . S
C1334 H1321 0.961 . S
C1334 H1322 0.959 . S
C1334 C1332 1.561 . S
C1335 C1332 1.526 . S
C1335 C1336 1.396 . S
C1335 C1340 1.390 . S
C1336 C1330 1.465 . S
C1336 C1335 1.396 . S
C1336 C1337 1.399 . S
C1337 H1323 0.929 . S
C1337 C1336 1.399 . S
C1337 C1338 1.385 . S
C1338 H1324 0.931 . S
C1338 C1337 1.385 . S
C1338 C1339 1.389 . S
C1339 C1338 1.389 . S
C1339 C1340 1.387 . S
C1340 H1325 0.930 . S
C1340 C1335 1.390 . S
C1340 C1339 1.387 . S
H1341 C1353 0.930 . S
H1342 C1355 0.930 . S
H1343 C1356 0.930 . S
H1344 C1360 0.959 . S
H1345 C1360 0.959 . S
H1346 C1360 0.961 . S
H1347 C1361 0.960 . S
H1348 C1361 0.961 . S
H1349 C1361 0.959 . S
H1350 C1364 0.929 . S
H1351 C1365 0.931 . S
H1352 C1367 0.930 . S
C1353 H1341 0.930 . S
C1353 C1354 1.399 . S
C1353 C1358 1.399 . S
C1354 C1353 1.399 . S
C1354 C1355 1.376 . S
C1355 H1342 0.930 . S
C1355 C1354 1.376 . S
C1355 C1356 1.388 . S
C1356 H1343 0.930 . S
C1356 C1355 1.388 . S
C1356 C1357 1.390 . S
C1357 C1356 1.390 . S
C1357 C1358 1.394 . S
C1357 C1363 1.465 . S
C1358 C1353 1.399 . S
C1358 C1357 1.394 . S
C1358 C1359 1.516 . S
C1359 C1358 1.516 . S
C1359 C1360 1.502 . S
C1359 C1361 1.561 . S
C1359 C1362 1.526 . S
C1360 H1344 0.959 . S
C1360 H1345 0.959 . S
C1360 H1346 0.961 . S
C1360 C1359 1.502 . S
C1361 H1347 0.960 . S
C1361 H1348 0.961 . S
C1361 H1349 0.959 . S
C1361 C1359 1.561 . S
C1362 C1359 1.526 . S
C1362 C1363 1.396 . S
C1362 C1367 1.390 . S
C1363 C1357 1.465 . S
C1363 C1362 1.396 . S
C1363 C1364 1.399 . S
C1364 H1350 0.929 . S
C1364 C1363 1.399 . S
C1364 C1365 1.385 . S
C1365 H1351 0.931 . S
C1365 C1364 1.385 . S
C1365 C1366 1.389 . S
C1366 C1365 1.389 . S
C1366 C1367 1.387 . S
C1367 H1352 0.930 . S
C1367 C1362 1.390 . S
C1367 C1366 1.387 . S
H1368 C1380 0.930 . S
H1369 C1382 0.930 . S
H1370 C1383 0.930 . S
H1371 C1387 0.959 . S
H1372 C1387 0.959 . S
H1373 C1387 0.961 . S
H1374 C1388 0.960 . S
H1375 C1388 0.961 . S
H1376 C1388 0.959 . S
H1377 C1391 0.929 . S
H1378 C1392 0.931 . S
H1379 C1394 0.930 . S
C1380 H1368 0.930 . S
C1380 C1381 1.399 . S
C1380 C1385 1.399 . S
C1381 C1380 1.399 . S
C1381 C1382 1.376 . S
C1382 H1369 0.930 . S
C1382 C1381 1.376 . S
C1382 C1383 1.388 . S
C1383 H1370 0.930 . S
C1383 C1382 1.388 . S
C1383 C1384 1.390 . S
C1384 C1383 1.390 . S
C1384 C1385 1.394 . S
C1384 C1390 1.465 . S
C1385 C1380 1.399 . S
C1385 C1384 1.394 . S
C1385 C1386 1.516 . S
C1386 C1385 1.516 . S
C1386 C1387 1.502 . S
C1386 C1388 1.561 . S
C1386 C1389 1.526 . S
C1387 H1371 0.959 . S
C1387 H1372 0.959 . S
C1387 H1373 0.961 . S
C1387 C1386 1.502 . S
C1388 H1374 0.960 . S
C1388 H1375 0.961 . S
C1388 H1376 0.959 . S
C1388 C1386 1.561 . S
C1389 C1386 1.526 . S
C1389 C1390 1.396 . S
C1389 C1394 1.390 . S
C1390 C1384 1.465 . S
C1390 C1389 1.396 . S
C1390 C1391 1.399 . S
C1391 H1377 0.929 . S
C1391 C1390 1.399 . S
C1391 C1392 1.385 . S
C1392 H1378 0.931 . S
C1392 C1391 1.385 . S
C1392 C1393 1.389 . S
C1393 C1392 1.389 . S
C1393 C1394 1.387 . S
C1394 H1379 0.930 . S
C1394 C1389 1.390 . S
C1394 C1393 1.387 . S
H1395 C1407 0.930 . S
H1396 C1409 0.930 . S
H1397 C1410 0.930 . S
H1398 C1414 0.959 . S
H1399 C1414 0.959 . S
H1400 C1414 0.961 . S
H1401 C1415 0.960 . S
H1402 C1415 0.961 . S
H1403 C1415 0.959 . S
H1404 C1418 0.929 . S
H1405 C1419 0.931 . S
H1406 C1421 0.930 . S
C1407 H1395 0.930 . S
C1407 C1408 1.399 . S
C1407 C1412 1.399 . S
C1408 C1407 1.399 . S
C1408 C1409 1.376 . S
C1409 H1396 0.930 . S
C1409 C1408 1.376 . S
C1409 C1410 1.388 . S
C1410 H1397 0.930 . S
C1410 C1409 1.388 . S
C1410 C1411 1.390 . S
C1411 C1410 1.390 . S
C1411 C1412 1.394 . S
C1411 C1417 1.465 . S
C1412 C1407 1.399 . S
C1412 C1411 1.394 . S
C1412 C1413 1.516 . S
C1413 C1412 1.516 . S
C1413 C1414 1.502 . S
C1413 C1415 1.561 . S
C1413 C1416 1.526 . S
C1414 H1398 0.959 . S
C1414 H1399 0.959 . S
C1414 H1400 0.961 . S
C1414 C1413 1.502 . S
C1415 H1401 0.960 . S
C1415 H1402 0.961 . S
C1415 H1403 0.959 . S
C1415 C1413 1.561 . S
C1416 C1413 1.526 . S
C1416 C1417 1.396 . S
C1416 C1421 1.390 . S
C1417 C1411 1.465 . S
C1417 C1416 1.396 . S
C1417 C1418 1.399 . S
C1418 H1404 0.929 . S
C1418 C1417 1.399 . S
C1418 C1419 1.385 . S
C1419 H1405 0.931 . S
C1419 C1418 1.385 . S
C1419 C1420 1.389 . S
C1420 C1419 1.389 . S
C1420 C1421 1.387 . S
C1421 H1406 0.930 . S
C1421 C1416 1.390 . S
C1421 C1420 1.387 . S
H1422 C1434 0.930 . S
H1423 C1436 0.930 . S
H1424 C1437 0.930 . S
H1425 C1441 0.959 . S
H1426 C1441 0.959 . S
H1427 C1441 0.961 . S
H1428 C1442 0.960 . S
H1429 C1442 0.961 . S
H1430 C1442 0.959 . S
H1431 C1445 0.929 . S
H1432 C1446 0.931 . S
H1433 C1448 0.930 . S
C1434 H1422 0.930 . S
C1434 C1435 1.399 . S
C1434 C1439 1.399 . S
C1435 C1434 1.399 . S
C1435 C1436 1.376 . S
C1436 H1423 0.930 . S
C1436 C1435 1.376 . S
C1436 C1437 1.388 . S
C1437 H1424 0.930 . S
C1437 C1436 1.388 . S
C1437 C1438 1.390 . S
C1438 C1437 1.390 . S
C1438 C1439 1.394 . S
C1438 C1444 1.465 . S
C1439 C1434 1.399 . S
C1439 C1438 1.394 . S
C1439 C1440 1.516 . S
C1440 C1439 1.516 . S
C1440 C1441 1.502 . S
C1440 C1442 1.561 . S
C1440 C1443 1.526 . S
C1441 H1425 0.959 . S
C1441 H1426 0.959 . S
C1441 H1427 0.961 . S
C1441 C1440 1.502 . S
C1442 H1428 0.960 . S
C1442 H1429 0.961 . S
C1442 H1430 0.959 . S
C1442 C1440 1.561 . S
C1443 C1440 1.526 . S
C1443 C1444 1.396 . S
C1443 C1448 1.390 . S
C1444 C1438 1.465 . S
C1444 C1443 1.396 . S
C1444 C1445 1.399 . S
C1445 H1431 0.929 . S
C1445 C1444 1.399 . S
C1445 C1446 1.385 . S
C1446 H1432 0.931 . S
C1446 C1445 1.385 . S
C1446 C1447 1.389 . S
C1447 C1446 1.389 . S
C1447 C1448 1.387 . S
C1448 H1433 0.930 . S
C1448 C1443 1.390 . S
C1448 C1447 1.387 . S
H1449 C1461 0.930 . S
H1450 C1463 0.930 . S
H1451 C1464 0.930 . S
H1452 C1468 0.959 . S
H1453 C1468 0.959 . S
H1454 C1468 0.961 . S
H1455 C1469 0.960 . S
H1456 C1469 0.961 . S
H1457 C1469 0.959 . S
H1458 C1472 0.929 . S
H1459 C1473 0.931 . S
H1460 C1475 0.930 . S
C1461 H1449 0.930 . S
C1461 C1462 1.399 . S
C1461 C1466 1.399 . S
C1462 C1461 1.399 . S
C1462 C1463 1.376 . S
C1463 H1450 0.930 . S
C1463 C1462 1.376 . S
C1463 C1464 1.388 . S
C1464 H1451 0.930 . S
C1464 C1463 1.388 . S
C1464 C1465 1.390 . S
C1465 C1464 1.390 . S
C1465 C1466 1.394 . S
C1465 C1471 1.465 . S
C1466 C1461 1.399 . S
C1466 C1465 1.394 . S
C1466 C1467 1.516 . S
C1467 C1466 1.516 . S
C1467 C1468 1.502 . S
C1467 C1469 1.561 . S
C1467 C1470 1.526 . S
C1468 H1452 0.959 . S
C1468 H1453 0.959 . S
C1468 H1454 0.961 . S
C1468 C1467 1.502 . S
C1469 H1455 0.960 . S
C1469 H1456 0.961 . S
C1469 H1457 0.959 . S
C1469 C1467 1.561 . S
C1470 C1467 1.526 . S
C1470 C1471 1.396 . S
C1470 C1475 1.390 . S
C1471 C1465 1.465 . S
C1471 C1470 1.396 . S
C1471 C1472 1.399 . S
C1472 H1458 0.929 . S
C1472 C1471 1.399 . S
C1472 C1473 1.385 . S
C1473 H1459 0.931 . S
C1473 C1472 1.385 . S
C1473 C1474 1.389 . S
C1474 C1473 1.389 . S
C1474 C1475 1.387 . S
C1475 H1460 0.930 . S
C1475 C1470 1.390 . S
C1475 C1474 1.387 . S
H1476 C1488 0.930 . S
H1477 C1490 0.930 . S
H1478 C1491 0.930 . S
H1479 C1495 0.959 . S
H1480 C1495 0.959 . S
H1481 C1495 0.961 . S
H1482 C1496 0.960 . S
H1483 C1496 0.961 . S
H1484 C1496 0.959 . S
H1485 C1499 0.929 . S
H1486 C1500 0.931 . S
H1487 C1502 0.930 . S
C1488 H1476 0.930 . S
C1488 C1489 1.399 . S
C1488 C1493 1.399 . S
C1489 C1488 1.399 . S
C1489 C1490 1.376 . S
C1490 H1477 0.930 . S
C1490 C1489 1.376 . S
C1490 C1491 1.388 . S
C1491 H1478 0.930 . S
C1491 C1490 1.388 . S
C1491 C1492 1.390 . S
C1492 C1491 1.390 . S
C1492 C1493 1.394 . S
C1492 C1498 1.465 . S
C1493 C1488 1.399 . S
C1493 C1492 1.394 . S
C1493 C1494 1.516 . S
C1494 C1493 1.516 . S
C1494 C1495 1.502 . S
C1494 C1496 1.561 . S
C1494 C1497 1.526 . S
C1495 H1479 0.959 . S
C1495 H1480 0.959 . S
C1495 H1481 0.961 . S
C1495 C1494 1.502 . S
C1496 H1482 0.960 . S
C1496 H1483 0.961 . S
C1496 H1484 0.959 . S
C1496 C1494 1.561 . S
C1497 C1494 1.526 . S
C1497 C1498 1.396 . S
C1497 C1502 1.390 . S
C1498 C1492 1.465 . S
C1498 C1497 1.396 . S
C1498 C1499 1.399 . S
C1499 H1485 0.929 . S
C1499 C1498 1.399 . S
C1499 C1500 1.385 . S
C1500 H1486 0.931 . S
C1500 C1499 1.385 . S
C1500 C1501 1.389 . S
C1501 C1500 1.389 . S
C1501 C1502 1.387 . S
C1502 H1487 0.930 . S
C1502 C1497 1.390 . S
C1502 C1501 1.387 . S
H1503 C1515 0.930 . S
H1504 C1517 0.930 . S
H1505 C1518 0.930 . S
H1506 C1522 0.959 . S
H1507 C1522 0.959 . S
H1508 C1522 0.961 . S
H1509 C1523 0.960 . S
H1510 C1523 0.961 . S
H1511 C1523 0.959 . S
H1512 C1526 0.929 . S
H1513 C1527 0.931 . S
H1514 C1529 0.930 . S
C1515 H1503 0.930 . S
C1515 C1516 1.399 . S
C1515 C1520 1.399 . S
C1516 C1515 1.399 . S
C1516 C1517 1.376 . S
C1517 H1504 0.930 . S
C1517 C1516 1.376 . S
C1517 C1518 1.388 . S
C1518 H1505 0.930 . S
C1518 C1517 1.388 . S
C1518 C1519 1.390 . S
C1519 C1518 1.390 . S
C1519 C1520 1.394 . S
C1519 C1525 1.465 . S
C1520 C1515 1.399 . S
C1520 C1519 1.394 . S
C1520 C1521 1.516 . S
C1521 C1520 1.516 . S
C1521 C1522 1.502 . S
C1521 C1523 1.561 . S
C1521 C1524 1.526 . S
C1522 H1506 0.959 . S
C1522 H1507 0.959 . S
C1522 H1508 0.961 . S
C1522 C1521 1.502 . S
C1523 H1509 0.960 . S
C1523 H1510 0.961 . S
C1523 H1511 0.959 . S
C1523 C1521 1.561 . S
C1524 C1521 1.526 . S
C1524 C1525 1.396 . S
C1524 C1529 1.390 . S
C1525 C1519 1.465 . S
C1525 C1524 1.396 . S
C1525 C1526 1.399 . S
C1526 H1512 0.929 . S
C1526 C1525 1.399 . S
C1526 C1527 1.385 . S
C1527 H1513 0.931 . S
C1527 C1526 1.385 . S
C1527 C1528 1.389 . S
C1528 C1527 1.389 . S
C1528 C1529 1.387 . S
C1529 H1514 0.930 . S
C1529 C1524 1.390 . S
C1529 C1528 1.387 . S
H1530 C1542 0.930 . S
H1531 C1544 0.930 . S
H1532 C1545 0.930 . S
H1533 C1549 0.959 . S
H1534 C1549 0.959 . S
H1535 C1549 0.961 . S
H1536 C1550 0.960 . S
H1537 C1550 0.961 . S
H1538 C1550 0.959 . S
H1539 C1553 0.929 . S
H1540 C1554 0.931 . S
H1541 C1556 0.930 . S
C1542 H1530 0.930 . S
C1542 C1543 1.399 . S
C1542 C1547 1.399 . S
C1543 C1542 1.399 . S
C1543 C1544 1.376 . S
C1544 H1531 0.930 . S
C1544 C1543 1.376 . S
C1544 C1545 1.388 . S
C1545 H1532 0.930 . S
C1545 C1544 1.388 . S
C1545 C1546 1.390 . S
C1546 C1545 1.390 . S
C1546 C1547 1.394 . S
C1546 C1552 1.465 . S
C1547 C1542 1.399 . S
C1547 C1546 1.394 . S
C1547 C1548 1.516 . S
C1548 C1547 1.516 . S
C1548 C1549 1.502 . S
C1548 C1550 1.561 . S
C1548 C1551 1.526 . S
C1549 H1533 0.959 . S
C1549 H1534 0.959 . S
C1549 H1535 0.961 . S
C1549 C1548 1.502 . S
C1550 H1536 0.960 . S
C1550 H1537 0.961 . S
C1550 H1538 0.959 . S
C1550 C1548 1.561 . S
C1551 C1548 1.526 . S
C1551 C1552 1.396 . S
C1551 C1556 1.390 . S
C1552 C1546 1.465 . S
C1552 C1551 1.396 . S
C1552 C1553 1.399 . S
C1553 H1539 0.929 . S
C1553 C1552 1.399 . S
C1553 C1554 1.385 . S
C1554 H1540 0.931 . S
C1554 C1553 1.385 . S
C1554 C1555 1.389 . S
C1555 C1554 1.389 . S
C1555 C1556 1.387 . S
C1556 H1541 0.930 . S
C1556 C1551 1.390 . S
C1556 C1555 1.387 . S
H1557 C1569 0.930 . S
H1558 C1571 0.930 . S
H1559 C1572 0.930 . S
H1560 C1576 0.959 . S
H1561 C1576 0.959 . S
H1562 C1576 0.961 . S
H1563 C1577 0.960 . S
H1564 C1577 0.961 . S
H1565 C1577 0.959 . S
H1566 C1580 0.929 . S
H1567 C1581 0.931 . S
H1568 C1583 0.930 . S
C1569 H1557 0.930 . S
C1569 C1570 1.399 . S
C1569 C1574 1.399 . S
C1570 C1569 1.399 . S
C1570 C1571 1.376 . S
C1571 H1558 0.930 . S
C1571 C1570 1.376 . S
C1571 C1572 1.388 . S
C1572 H1559 0.930 . S
C1572 C1571 1.388 . S
C1572 C1573 1.390 . S
C1573 C1572 1.390 . S
C1573 C1574 1.394 . S
C1573 C1579 1.465 . S
C1574 C1569 1.399 . S
C1574 C1573 1.394 . S
C1574 C1575 1.516 . S
C1575 C1574 1.516 . S
C1575 C1576 1.502 . S
C1575 C1577 1.561 . S
C1575 C1578 1.526 . S
C1576 H1560 0.959 . S
C1576 H1561 0.959 . S
C1576 H1562 0.961 . S
C1576 C1575 1.502 . S
C1577 H1563 0.960 . S
C1577 H1564 0.961 . S
C1577 H1565 0.959 . S
C1577 C1575 1.561 . S
C1578 C1575 1.526 . S
C1578 C1579 1.396 . S
C1578 C1583 1.390 . S
C1579 C1573 1.465 . S
C1579 C1578 1.396 . S
C1579 C1580 1.399 . S
C1580 H1566 0.929 . S
C1580 C1579 1.399 . S
C1580 C1581 1.385 . S
C1581 H1567 0.931 . S
C1581 C1580 1.385 . S
C1581 C1582 1.389 . S
C1582 C1581 1.389 . S
C1582 C1583 1.387 . S
C1583 H1568 0.930 . S
C1583 C1578 1.390 . S
C1583 C1582 1.387 . S
H1584 C1596 0.930 . S
H1585 C1598 0.930 . S
H1586 C1599 0.930 . S
H1587 C1603 0.959 . S
H1588 C1603 0.959 1_455 S
H1589 C1603 0.961 . S
H1590 C1604 0.960 . S
H1591 C1604 0.961 1_455 S
H1592 C1604 0.959 . S
H1593 C1607 0.929 . S
H1594 C1608 0.931 . S
H1595 C1610 0.930 . S
C1596 H1584 0.930 . S
C1596 C1597 1.399 . S
C1596 C1601 1.399 . S
C1597 C1596 1.399 . S
C1597 C1598 1.376 . S
C1598 H1585 0.930 . S
C1598 C1597 1.376 . S
C1598 C1599 1.388 . S
C1599 H1586 0.930 . S
C1599 C1598 1.388 . S
C1599 C1600 1.390 . S
C1600 C1599 1.390 . S
C1600 C1601 1.394 . S
C1600 C1606 1.465 1_655 S
C1601 C1596 1.399 . S
C1601 C1600 1.394 . S
C1601 C1602 1.516 . S
C1602 C1601 1.516 . S
C1602 C1603 1.502 . S
C1602 C1604 1.561 . S
C1602 C1605 1.526 1_655 S
C1603 H1587 0.959 . S
C1603 H1588 0.959 1_655 S
C1603 H1589 0.961 . S
C1603 C1602 1.502 . S
C1604 H1590 0.960 . S
C1604 H1591 0.961 1_655 S
C1604 H1592 0.959 . S
C1604 C1602 1.561 . S
C1605 C1602 1.526 1_455 S
C1605 C1606 1.396 . S
C1605 C1610 1.390 . S
C1606 C1600 1.465 1_455 S
C1606 C1605 1.396 . S
C1606 C1607 1.399 . S
C1607 H1593 0.929 . S
C1607 C1606 1.399 . S
C1607 C1608 1.385 . S
C1608 H1594 0.931 . S
C1608 C1607 1.385 . S
C1608 C1609 1.389 . S
C1609 C1608 1.389 . S
C1609 C1610 1.387 . S
C1610 H1595 0.930 . S
C1610 C1605 1.390 . S
C1610 C1609 1.387 . S
H1611 C1623 0.930 . S
H1612 C1625 0.930 . S
H1613 C1626 0.930 . S
H1614 C1630 0.959 . S
H1615 C1630 0.959 1_565 S
H1616 C1630 0.961 . S
H1617 C1631 0.960 . S
H1618 C1631 0.961 1_565 S
H1619 C1631 0.959 . S
H1620 C1634 0.929 . S
H1621 C1635 0.931 . S
H1622 C1637 0.930 . S
C1623 H1611 0.930 . S
C1623 C1624 1.399 . S
C1623 C1628 1.399 . S
C1624 C1623 1.399 . S
C1624 C1625 1.376 . S
C1625 H1612 0.930 . S
C1625 C1624 1.376 . S
C1625 C1626 1.388 . S
C1626 H1613 0.930 . S
C1626 C1625 1.388 . S
C1626 C1627 1.390 . S
C1627 C1626 1.390 . S
C1627 C1628 1.394 . S
C1627 C1633 1.465 1_545 S
C1628 C1623 1.399 . S
C1628 C1627 1.394 . S
C1628 C1629 1.516 . S
C1629 C1628 1.516 . S
C1629 C1630 1.502 . S
C1629 C1631 1.561 . S
C1629 C1632 1.526 1_545 S
C1630 H1614 0.959 . S
C1630 H1615 0.959 1_545 S
C1630 H1616 0.961 . S
C1630 C1629 1.502 . S
C1631 H1617 0.960 . S
C1631 H1618 0.961 1_545 S
C1631 H1619 0.959 . S
C1631 C1629 1.561 . S
C1632 C1629 1.526 1_565 S
C1632 C1633 1.396 . S
C1632 C1637 1.390 . S
C1633 C1627 1.465 1_565 S
C1633 C1632 1.396 . S
C1633 C1634 1.399 . S
C1634 H1620 0.929 . S
C1634 C1633 1.399 . S
C1634 C1635 1.385 . S
C1635 H1621 0.931 . S
C1635 C1634 1.385 . S
C1635 C1636 1.389 . S
C1636 C1635 1.389 . S
C1636 C1637 1.387 . S
C1637 H1622 0.930 . S
C1637 C1632 1.390 . S
C1637 C1636 1.387 . S
H1638 C1650 0.930 . S
H1639 C1652 0.930 . S
H1640 C1653 0.930 . S
H1641 C1657 0.959 . S
H1642 C1657 0.959 1_655 S
H1643 C1657 0.961 . S
H1644 C1658 0.960 . S
H1645 C1658 0.961 1_655 S
H1646 C1658 0.959 . S
H1647 C1661 0.929 . S
H1648 C1662 0.931 . S
H1649 C1664 0.930 . S
C1650 H1638 0.930 . S
C1650 C1651 1.399 . S
C1650 C1655 1.399 . S
C1651 C1650 1.399 . S
C1651 C1652 1.376 . S
C1652 H1639 0.930 . S
C1652 C1651 1.376 . S
C1652 C1653 1.388 . S
C1653 H1640 0.930 . S
C1653 C1652 1.388 . S
C1653 C1654 1.390 . S
C1654 C1653 1.390 . S
C1654 C1655 1.394 . S
C1654 C1660 1.465 1_455 S
C1655 C1650 1.399 . S
C1655 C1654 1.394 . S
C1655 C1656 1.516 . S
C1656 C1655 1.516 . S
C1656 C1657 1.502 . S
C1656 C1658 1.561 . S
C1656 C1659 1.526 1_455 S
C1657 H1641 0.959 . S
C1657 H1642 0.959 1_455 S
C1657 H1643 0.961 . S
C1657 C1656 1.502 . S
C1658 H1644 0.960 . S
C1658 H1645 0.961 1_455 S
C1658 H1646 0.959 . S
C1658 C1656 1.561 . S
C1659 C1656 1.526 1_655 S
C1659 C1660 1.396 . S
C1659 C1664 1.390 . S
C1660 C1654 1.465 1_655 S
C1660 C1659 1.396 . S
C1660 C1661 1.399 . S
C1661 H1647 0.929 . S
C1661 C1660 1.399 . S
C1661 C1662 1.385 . S
C1662 H1648 0.931 . S
C1662 C1661 1.385 . S
C1662 C1663 1.389 . S
C1663 C1662 1.389 . S
C1663 C1664 1.387 . S
C1664 H1649 0.930 . S
C1664 C1659 1.390 . S
C1664 C1663 1.387 . S
H1665 C1677 0.930 . S
H1666 C1679 0.930 . S
H1667 C1680 0.930 . S
H1668 C1684 0.959 . S
H1669 C1684 0.959 1_545 S
H1670 C1684 0.961 . S
H1671 C1685 0.960 . S
H1672 C1685 0.941 1_545 S
H1673 C1685 0.959 . S
H1674 C1688 0.929 . S
H1675 C1689 0.931 . S
H1676 C1691 0.930 . S
C1677 H1665 0.930 . S
C1677 C1678 1.399 . S
C1677 C1682 1.399 . S
C1678 C1677 1.399 . S
C1678 C1679 1.376 . S
C1679 H1666 0.930 . S
C1679 C1678 1.376 . S
C1679 C1680 1.388 . S
C1680 H1667 0.930 . S
C1680 C1679 1.388 . S
C1680 C1681 1.390 . S
C1681 C1680 1.390 . S
C1681 C1682 1.394 . S
C1681 C1687 1.465 1_565 S
C1682 C1677 1.399 . S
C1682 C1681 1.394 . S
C1682 C1683 1.516 . S
C1683 C1682 1.516 . S
C1683 C1684 1.502 . S
C1683 C1685 1.561 . S
C1683 C1686 1.526 1_565 S
C1684 H1668 0.959 . S
C1684 H1669 0.959 1_565 S
C1684 H1670 0.961 . S
C1684 C1683 1.502 . S
C1685 H1671 0.960 . S
C1685 H1672 0.941 1_565 S
C1685 H1673 0.959 . S
C1685 C1683 1.561 . S
C1686 C1683 1.526 1_545 S
C1686 C1687 1.396 . S
C1686 C1691 1.390 . S
C1687 C1681 1.465 1_545 S
C1687 C1686 1.396 . S
C1687 C1688 1.399 . S
C1688 H1674 0.929 . S
C1688 C1687 1.399 . S
C1688 C1689 1.385 . S
C1689 H1675 0.931 . S
C1689 C1688 1.385 . S
C1689 C1690 1.389 . S
C1690 C1689 1.389 . S
C1690 C1691 1.387 . S
C1691 H1676 0.930 . S
C1691 C1686 1.390 . S
C1691 C1690 1.387 . S
H1692 C1704 0.930 . S
H1693 C1706 0.930 . S
H1694 C1707 0.930 . S
H1695 C1711 0.959 . S
H1696 C1711 0.959 . S
H1697 C1711 0.961 1_455 S
H1698 C1712 0.960 1_455 S
H1699 C1712 0.961 . S
H1700 C1712 0.959 . S
H1701 C1715 0.929 . S
H1702 C1716 0.931 . S
H1703 C1718 0.930 . S
C1704 H1692 0.930 . S
C1704 C1705 1.399 . S
C1704 C1709 1.399 . S
C1705 C1704 1.399 . S
C1705 C1706 1.376 . S
C1706 H1693 0.930 . S
C1706 C1705 1.376 . S
C1706 C1707 1.388 . S
C1707 H1694 0.930 . S
C1707 C1706 1.388 . S
C1707 C1708 1.390 . S
C1708 C1707 1.390 . S
C1708 C1709 1.394 . S
C1708 C1714 1.465 1_455 S
C1709 C1704 1.399 . S
C1709 C1708 1.394 . S
C1709 C1710 1.516 1_455 S
C1710 C1709 1.516 1_655 S
C1710 C1711 1.502 . S
C1710 C1712 1.561 . S
C1710 C1713 1.526 . S
C1711 H1695 0.959 . S
C1711 H1696 0.959 . S
C1711 H1697 0.961 1_655 S
C1711 C1710 1.502 . S
C1712 H1698 0.960 1_655 S
C1712 H1699 0.961 . S
C1712 H1700 0.959 . S
C1712 C1710 1.561 . S
C1713 C1710 1.526 . S
C1713 C1714 1.396 . S
C1713 C1718 1.390 . S
C1714 C1708 1.465 1_655 S
C1714 C1713 1.396 . S
C1714 C1715 1.399 . S
C1715 H1701 0.929 . S
C1715 C1714 1.399 . S
C1715 C1716 1.385 . S
C1716 H1702 0.931 . S
C1716 C1715 1.385 . S
C1716 C1717 1.389 . S
C1717 C1716 1.389 . S
C1717 C1718 1.387 . S
C1718 H1703 0.930 . S
C1718 C1713 1.390 . S
C1718 C1717 1.387 . S
H1719 C1731 0.930 . S
H1720 C1733 0.930 . S
H1721 C1734 0.930 . S
H1722 C1738 0.959 . S
H1723 C1738 0.959 . S
H1724 C1738 0.930 1_565 S
H1725 C1739 0.960 1_565 S
H1726 C1739 0.961 . S
H1727 C1739 0.959 . S
H1728 C1742 0.929 . S
H1729 C1743 0.931 . S
H1730 C1745 0.930 . S
C1731 H1719 0.930 . S
C1731 C1732 1.399 . S
C1731 C1736 1.399 . S
C1732 C1731 1.399 . S
C1732 C1733 1.376 . S
C1733 H1720 0.930 . S
C1733 C1732 1.376 . S
C1733 C1734 1.388 . S
C1734 H1721 0.930 . S
C1734 C1733 1.388 . S
C1734 C1735 1.390 . S
C1735 C1734 1.390 . S
C1735 C1736 1.394 . S
C1735 C1741 1.465 1_565 S
C1736 C1731 1.399 . S
C1736 C1735 1.394 . S
C1736 C1737 1.516 1_565 S
C1737 C1736 1.516 1_545 S
C1737 C1738 1.502 . S
C1737 C1739 1.561 . S
C1737 C1740 1.526 . S
C1738 H1722 0.959 . S
C1738 H1723 0.959 . S
C1738 H1724 0.930 1_545 S
C1738 C1737 1.502 . S
C1739 H1725 0.960 1_545 S
C1739 H1726 0.961 . S
C1739 H1727 0.959 . S
C1739 C1737 1.561 . S
C1740 C1737 1.526 . S
C1740 C1741 1.396 . S
C1740 C1745 1.390 . S
C1741 C1735 1.465 1_545 S
C1741 C1740 1.396 . S
C1741 C1742 1.399 . S
C1742 H1728 0.929 . S
C1742 C1741 1.399 . S
C1742 C1743 1.385 . S
C1743 H1729 0.931 . S
C1743 C1742 1.385 . S
C1743 C1744 1.389 . S
C1744 C1743 1.389 . S
C1744 C1745 1.387 . S
C1745 H1730 0.930 . S
C1745 C1740 1.390 . S
C1745 C1744 1.387 . S
H1746 C1758 0.930 . S
H1747 C1760 0.930 . S
H1748 C1761 0.930 . S
H1749 C1765 0.959 . S
H1750 C1765 0.959 1_655 S
H1751 C1765 0.961 . S
H1752 C1766 0.960 . S
H1753 C1766 0.961 1_655 S
H1754 C1766 0.959 . S
H1755 C1769 0.929 . S
H1756 C1770 0.931 . S
H1757 C1772 0.930 . S
C1758 H1746 0.930 . S
C1758 C1759 1.399 . S
C1758 C1763 1.399 . S
C1759 C1758 1.399 . S
C1759 C1760 1.376 . S
C1760 H1747 0.930 . S
C1760 C1759 1.376 . S
C1760 C1761 1.388 . S
C1761 H1748 0.930 . S
C1761 C1760 1.388 . S
C1761 C1762 1.390 . S
C1762 C1761 1.390 . S
C1762 C1763 1.394 . S
C1762 C1768 1.465 1_455 S
C1763 C1758 1.399 . S
C1763 C1762 1.394 . S
C1763 C1764 1.516 . S
C1764 C1763 1.516 . S
C1764 C1765 1.502 . S
C1764 C1766 1.561 . S
C1764 C1767 1.526 1_455 S
C1765 H1749 0.959 . S
C1765 H1750 0.959 1_455 S
C1765 H1751 0.961 . S
C1765 C1764 1.502 . S
C1766 H1752 0.960 . S
C1766 H1753 0.961 1_455 S
C1766 H1754 0.959 . S
C1766 C1764 1.561 . S
C1767 C1764 1.526 1_655 S
C1767 C1768 1.396 . S
C1767 C1772 1.390 . S
C1768 C1762 1.465 1_655 S
C1768 C1767 1.396 . S
C1768 C1769 1.399 . S
C1769 H1755 0.929 . S
C1769 C1768 1.399 . S
C1769 C1770 1.385 . S
C1770 H1756 0.931 . S
C1770 C1769 1.385 . S
C1770 C1771 1.389 . S
C1771 C1770 1.389 . S
C1771 C1772 1.387 . S
C1772 H1757 0.930 . S
C1772 C1767 1.390 . S
C1772 C1771 1.387 . S
H1773 C1785 0.930 . S
H1774 C1787 0.930 . S
H1775 C1788 0.930 . S
H1776 C1792 0.959 . S
H1777 C1792 0.959 . S
H1778 C1792 0.930 1_545 S
H1779 C1793 0.960 1_545 S
H1780 C1793 0.961 . S
H1781 C1793 0.959 . S
H1782 C1796 0.929 . S
H1783 C1797 0.931 . S
H1784 C1799 0.930 . S
C1785 H1773 0.930 . S
C1785 C1786 1.399 . S
C1785 C1790 1.399 . S
C1786 C1785 1.399 . S
C1786 C1787 1.376 . S
C1787 H1774 0.930 . S
C1787 C1786 1.376 . S
C1787 C1788 1.388 . S
C1788 H1775 0.930 . S
C1788 C1787 1.388 . S
C1788 C1789 1.390 . S
C1789 C1788 1.390 . S
C1789 C1790 1.394 . S
C1789 C1795 1.465 1_545 S
C1790 C1785 1.399 . S
C1790 C1789 1.394 . S
C1790 C1791 1.516 1_545 S
C1791 C1790 1.516 1_565 S
C1791 C1792 1.502 . S
C1791 C1793 1.561 . S
C1791 C1794 1.526 . S
C1792 H1776 0.959 . S
C1792 H1777 0.959 . S
C1792 H1778 0.930 1_565 S
C1792 C1791 1.502 . S
C1793 H1779 0.960 1_565 S
C1793 H1780 0.961 . S
C1793 H1781 0.959 . S
C1793 C1791 1.561 . S
C1794 C1791 1.526 . S
C1794 C1795 1.396 . S
C1794 C1799 1.390 . S
C1795 C1789 1.465 1_565 S
C1795 C1794 1.396 . S
C1795 C1796 1.399 . S
C1796 H1782 0.929 . S
C1796 C1795 1.399 . S
C1796 C1797 1.385 . S
C1797 H1783 0.931 . S
C1797 C1796 1.385 . S
C1797 C1798 1.389 . S
C1798 C1797 1.389 . S
C1798 C1799 1.387 . S
C1799 H1784 0.930 . S
C1799 C1794 1.390 . S
C1799 C1798 1.387 . S
H1800 C1812 0.930 . S
H1801 C1814 0.930 . S
H1802 C1815 0.930 . S
H1803 C1819 0.959 . S
H1804 C1819 0.959 . S
H1805 C1819 0.961 . S
H1806 C1820 0.960 . S
H1807 C1820 0.961 . S
H1808 C1820 0.959 . S
H1809 C1823 0.929 . S
H1810 C1824 0.931 . S
H1811 C1826 0.930 . S
C1812 H1800 0.930 . S
C1812 C1813 1.399 . S
C1812 C1817 1.399 . S
C1813 C1812 1.399 . S
C1813 C1814 1.376 . S
C1814 H1801 0.930 . S
C1814 C1813 1.376 . S
C1814 C1815 1.388 . S
C1815 H1802 0.930 . S
C1815 C1814 1.388 . S
C1815 C1816 1.390 . S
C1816 C1815 1.390 . S
C1816 C1817 1.394 . S
C1816 C1822 1.465 . S
C1817 C1812 1.399 . S
C1817 C1816 1.394 . S
C1817 C1818 1.516 . S
C1818 C1817 1.516 . S
C1818 C1819 1.502 . S
C1818 C1820 1.561 . S
C1818 C1821 1.526 . S
C1819 H1803 0.959 . S
C1819 H1804 0.959 . S
C1819 H1805 0.961 . S
C1819 C1818 1.502 . S
C1820 H1806 0.960 . S
C1820 H1807 0.961 . S
C1820 H1808 0.959 . S
C1820 C1818 1.561 . S
C1821 C1818 1.526 . S
C1821 C1822 1.396 . S
C1821 C1826 1.390 . S
C1822 C1816 1.465 . S
C1822 C1821 1.396 . S
C1822 C1823 1.399 . S
C1823 H1809 0.929 . S
C1823 C1822 1.399 . S
C1823 C1824 1.385 . S
C1824 H1810 0.931 . S
C1824 C1823 1.385 . S
C1824 C1825 1.389 . S
C1825 C1824 1.389 . S
C1825 C1826 1.387 . S
C1826 H1811 0.930 . S
C1826 C1821 1.390 . S
C1826 C1825 1.387 . S
H1827 C1839 0.930 . S
H1828 C1841 0.930 . S
H1829 C1842 0.930 . S
H1830 C1846 0.959 . S
H1831 C1846 0.959 . S
H1832 C1846 0.961 . S
H1833 C1847 0.960 . S
H1834 C1847 0.961 . S
H1835 C1847 0.959 . S
H1836 C1850 0.929 . S
H1837 C1851 0.931 . S
H1838 C1853 0.930 . S
C1839 H1827 0.930 . S
C1839 C1840 1.399 . S
C1839 C1844 1.399 . S
C1840 C1839 1.399 . S
C1840 C1841 1.376 . S
C1841 H1828 0.930 . S
C1841 C1840 1.376 . S
C1841 C1842 1.388 . S
C1842 H1829 0.930 . S
C1842 C1841 1.388 . S
C1842 C1843 1.390 . S
C1843 C1842 1.390 . S
C1843 C1844 1.394 . S
C1843 C1849 1.465 . S
C1844 C1839 1.399 . S
C1844 C1843 1.394 . S
C1844 C1845 1.516 . S
C1845 C1844 1.516 . S
C1845 C1846 1.502 . S
C1845 C1847 1.561 . S
C1845 C1848 1.526 . S
C1846 H1830 0.959 . S
C1846 H1831 0.959 . S
C1846 H1832 0.961 . S
C1846 C1845 1.502 . S
C1847 H1833 0.960 . S
C1847 H1834 0.961 . S
C1847 H1835 0.959 . S
C1847 C1845 1.561 . S
C1848 C1845 1.526 . S
C1848 C1849 1.396 . S
C1848 C1853 1.390 . S
C1849 C1843 1.465 . S
C1849 C1848 1.396 . S
C1849 C1850 1.399 . S
C1850 H1836 0.929 . S
C1850 C1849 1.399 . S
C1850 C1851 1.385 . S
C1851 H1837 0.931 . S
C1851 C1850 1.385 . S
C1851 C1852 1.389 . S
C1852 C1851 1.389 . S
C1852 C1853 1.387 . S
C1853 H1838 0.930 . S
C1853 C1848 1.390 . S
C1853 C1852 1.387 . S
H1854 C1866 0.930 . S
H1855 C1868 0.930 . S
H1856 C1869 0.930 . S
H1857 C1873 0.959 . S
H1858 C1873 0.959 . S
H1859 C1873 0.961 . S
H1860 C1874 0.960 . S
H1861 C1874 0.961 . S
H1862 C1874 0.959 . S
H1863 C1877 0.929 . S
H1864 C1878 0.931 . S
H1865 C1880 0.930 . S
C1866 H1854 0.930 . S
C1866 C1867 1.399 . S
C1866 C1871 1.399 . S
C1867 C1866 1.399 . S
C1867 C1868 1.376 . S
C1868 H1855 0.930 . S
C1868 C1867 1.376 . S
C1868 C1869 1.388 . S
C1869 H1856 0.930 . S
C1869 C1868 1.388 . S
C1869 C1870 1.390 . S
C1870 C1869 1.390 . S
C1870 C1871 1.394 . S
C1870 C1876 1.465 . S
C1871 C1866 1.399 . S
C1871 C1870 1.394 . S
C1871 C1872 1.516 . S
C1872 C1871 1.516 . S
C1872 C1873 1.502 . S
C1872 C1874 1.561 . S
C1872 C1875 1.526 . S
C1873 H1857 0.959 . S
C1873 H1858 0.959 . S
C1873 H1859 0.961 . S
C1873 C1872 1.502 . S
C1874 H1860 0.960 . S
C1874 H1861 0.961 . S
C1874 H1862 0.959 . S
C1874 C1872 1.561 . S
C1875 C1872 1.526 . S
C1875 C1876 1.396 . S
C1875 C1880 1.390 . S
C1876 C1870 1.465 . S
C1876 C1875 1.396 . S
C1876 C1877 1.399 . S
C1877 H1863 0.929 . S
C1877 C1876 1.399 . S
C1877 C1878 1.385 . S
C1878 H1864 0.931 . S
C1878 C1877 1.385 . S
C1878 C1879 1.389 . S
C1879 C1878 1.389 . S
C1879 C1880 1.387 . S
C1880 H1865 0.930 . S
C1880 C1875 1.390 . S
C1880 C1879 1.387 . S
H1881 C1893 0.930 . S
H1882 C1895 0.930 . S
H1883 C1896 0.930 . S
H1884 C1900 0.959 . S
H1885 C1900 0.959 . S
H1886 C1900 0.961 . S
H1887 C1901 0.960 . S
H1888 C1901 0.961 . S
H1889 C1901 0.959 . S
H1890 C1904 0.929 . S
H1891 C1905 0.931 . S
H1892 C1907 0.930 . S
C1893 H1881 0.930 . S
C1893 C1894 1.399 . S
C1893 C1898 1.399 . S
C1894 C1893 1.399 . S
C1894 C1895 1.376 . S
C1895 H1882 0.930 . S
C1895 C1894 1.376 . S
C1895 C1896 1.388 . S
C1896 H1883 0.930 . S
C1896 C1895 1.388 . S
C1896 C1897 1.390 . S
C1897 C1896 1.390 . S
C1897 C1898 1.394 . S
C1897 C1903 1.465 . S
C1898 C1893 1.399 . S
C1898 C1897 1.394 . S
C1898 C1899 1.516 . S
C1899 C1898 1.516 . S
C1899 C1900 1.502 . S
C1899 C1901 1.561 . S
C1899 C1902 1.526 . S
C1900 H1884 0.959 . S
C1900 H1885 0.959 . S
C1900 H1886 0.961 . S
C1900 C1899 1.502 . S
C1901 H1887 0.960 . S
C1901 H1888 0.961 . S
C1901 H1889 0.959 . S
C1901 C1899 1.561 . S
C1902 C1899 1.526 . S
C1902 C1903 1.396 . S
C1902 C1907 1.390 . S
C1903 C1897 1.465 . S
C1903 C1902 1.396 . S
C1903 C1904 1.399 . S
C1904 H1890 0.929 . S
C1904 C1903 1.399 . S
C1904 C1905 1.385 . S
C1905 H1891 0.931 . S
C1905 C1904 1.385 . S
C1905 C1906 1.389 . S
C1906 C1905 1.389 . S
C1906 C1907 1.387 . S
C1907 H1892 0.930 . S
C1907 C1902 1.390 . S
C1907 C1906 1.387 . S
H1908 C1920 0.930 . S
H1909 C1922 0.930 . S
H1910 C1923 0.930 . S
H1911 C1927 0.959 . S
H1912 C1927 0.959 . S
H1913 C1927 0.961 . S
H1914 C1928 0.960 . S
H1915 C1928 0.961 . S
H1916 C1928 0.959 . S
H1917 C1931 0.929 . S
H1918 C1932 0.931 . S
H1919 C1934 0.930 . S
C1920 H1908 0.930 . S
C1920 C1921 1.399 . S
C1920 C1925 1.399 . S
C1921 C1920 1.399 . S
C1921 C1922 1.376 . S
C1922 H1909 0.930 . S
C1922 C1921 1.376 . S
C1922 C1923 1.388 . S
C1923 H1910 0.930 . S
C1923 C1922 1.388 . S
C1923 C1924 1.390 . S
C1924 C1923 1.390 . S
C1924 C1925 1.394 . S
C1924 C1930 1.465 . S
C1925 C1920 1.399 . S
C1925 C1924 1.394 . S
C1925 C1926 1.516 . S
C1926 C1925 1.516 . S
C1926 C1927 1.502 . S
C1926 C1928 1.561 . S
C1926 C1929 1.526 . S
C1927 H1911 0.959 . S
C1927 H1912 0.959 . S
C1927 H1913 0.961 . S
C1927 C1926 1.502 . S
C1928 H1914 0.960 . S
C1928 H1915 0.961 . S
C1928 H1916 0.959 . S
C1928 C1926 1.561 . S
C1929 C1926 1.526 . S
C1929 C1930 1.396 . S
C1929 C1934 1.390 . S
C1930 C1924 1.465 . S
C1930 C1929 1.396 . S
C1930 C1931 1.399 . S
C1931 H1917 0.929 . S
C1931 C1930 1.399 . S
C1931 C1932 1.385 . S
C1932 H1918 0.931 . S
C1932 C1931 1.385 . S
C1932 C1933 1.389 . S
C1933 C1932 1.389 . S
C1933 C1934 1.387 . S
C1934 H1919 0.930 . S
C1934 C1929 1.390 . S
C1934 C1933 1.387 . S
H1935 C1947 0.930 . S
H1936 C1949 0.930 . S
H1937 C1950 0.930 . S
H1938 C1954 0.959 . S
H1939 C1954 0.959 . S
H1940 C1954 0.961 . S
H1941 C1955 0.960 . S
H1942 C1955 0.961 . S
H1943 C1955 0.959 . S
H1944 C1958 0.929 . S
H1945 C1959 0.931 . S
H1946 C1961 0.930 . S
C1947 H1935 0.930 . S
C1947 C1948 1.399 . S
C1947 C1952 1.399 . S
C1948 C1947 1.399 . S
C1948 C1949 1.376 . S
C1949 H1936 0.930 . S
C1949 C1948 1.376 . S
C1949 C1950 1.388 . S
C1950 H1937 0.930 . S
C1950 C1949 1.388 . S
C1950 C1951 1.390 . S
C1951 C1950 1.390 . S
C1951 C1952 1.394 . S
C1951 C1957 1.465 . S
C1952 C1947 1.399 . S
C1952 C1951 1.394 . S
C1952 C1953 1.516 . S
C1953 C1952 1.516 . S
C1953 C1954 1.502 . S
C1953 C1955 1.561 . S
C1953 C1956 1.526 . S
C1954 H1938 0.959 . S
C1954 H1939 0.959 . S
C1954 H1940 0.961 . S
C1954 C1953 1.502 . S
C1955 H1941 0.960 . S
C1955 H1942 0.961 . S
C1955 H1943 0.959 . S
C1955 C1953 1.561 . S
C1956 C1953 1.526 . S
C1956 C1957 1.396 . S
C1956 C1961 1.390 . S
C1957 C1951 1.465 . S
C1957 C1956 1.396 . S
C1957 C1958 1.399 . S
C1958 H1944 0.929 . S
C1958 C1957 1.399 . S
C1958 C1959 1.385 . S
C1959 H1945 0.931 . S
C1959 C1958 1.385 . S
C1959 C1960 1.389 . S
C1960 C1959 1.389 . S
C1960 C1961 1.387 . S
C1961 H1946 0.930 . S
C1961 C1956 1.390 . S
C1961 C1960 1.387 . S
H1962 C1974 0.930 . S
H1963 C1976 0.930 . S
H1964 C1977 0.930 . S
H1965 C1981 0.959 . S
H1966 C1981 0.959 . S
H1967 C1981 0.961 . S
H1968 C1982 0.960 . S
H1969 C1982 0.961 . S
H1970 C1982 0.959 . S
H1971 C1985 0.929 . S
H1972 C1986 0.931 . S
H1973 C1988 0.930 . S
C1974 H1962 0.930 . S
C1974 C1975 1.399 . S
C1974 C1979 1.399 . S
C1975 C1974 1.399 . S
C1975 C1976 1.376 . S
C1976 H1963 0.930 . S
C1976 C1975 1.376 . S
C1976 C1977 1.388 . S
C1977 H1964 0.930 . S
C1977 C1976 1.388 . S
C1977 C1978 1.390 . S
C1978 C1977 1.390 . S
C1978 C1979 1.394 . S
C1978 C1984 1.465 . S
C1979 C1974 1.399 . S
C1979 C1978 1.394 . S
C1979 C1980 1.516 . S
C1980 C1979 1.516 . S
C1980 C1981 1.502 . S
C1980 C1982 1.561 . S
C1980 C1983 1.526 . S
C1981 H1965 0.959 . S
C1981 H1966 0.959 . S
C1981 H1967 0.961 . S
C1981 C1980 1.502 . S
C1982 H1968 0.960 . S
C1982 H1969 0.961 . S
C1982 H1970 0.959 . S
C1982 C1980 1.561 . S
C1983 C1980 1.526 . S
C1983 C1984 1.396 . S
C1983 C1988 1.390 . S
C1984 C1978 1.465 . S
C1984 C1983 1.396 . S
C1984 C1985 1.399 . S
C1985 H1971 0.929 . S
C1985 C1984 1.399 . S
C1985 C1986 1.385 . S
C1986 H1972 0.931 . S
C1986 C1985 1.385 . S
C1986 C1987 1.389 . S
C1987 C1986 1.389 . S
C1987 C1988 1.387 . S
C1988 H1973 0.930 . S
C1988 C1983 1.390 . S
C1988 C1987 1.387 . S
H1989 C2001 0.930 . S
H1990 C2003 0.930 . S
H1991 C2004 0.930 . S
H1992 C2008 0.959 . S
H1993 C2008 0.959 . S
H1994 C2008 0.961 . S
H1995 C2009 0.960 . S
H1996 C2009 0.961 . S
H1997 C2009 0.959 . S
H1998 C2012 0.929 . S
H1999 C2013 0.931 . S
H2000 C2015 0.930 . S
C2001 H1989 0.930 . S
C2001 C2002 1.399 . S
C2001 C2006 1.399 . S
C2002 C2001 1.399 . S
C2002 C2003 1.376 . S
C2003 H1990 0.930 . S
C2003 C2002 1.376 . S
C2003 C2004 1.388 . S
C2004 H1991 0.930 . S
C2004 C2003 1.388 . S
C2004 C2005 1.390 . S
C2005 C2004 1.390 . S
C2005 C2006 1.394 . S
C2005 C2011 1.465 . S
C2006 C2001 1.399 . S
C2006 C2005 1.394 . S
C2006 C2007 1.516 . S
C2007 C2006 1.516 . S
C2007 C2008 1.502 . S
C2007 C2009 1.561 . S
C2007 C2010 1.526 . S
C2008 H1992 0.959 . S
C2008 H1993 0.959 . S
C2008 H1994 0.961 . S
C2008 C2007 1.502 . S
C2009 H1995 0.960 . S
C2009 H1996 0.961 . S
C2009 H1997 0.959 . S
C2009 C2007 1.561 . S
C2010 C2007 1.526 . S
C2010 C2011 1.396 . S
C2010 C2015 1.390 . S
C2011 C2005 1.465 . S
C2011 C2010 1.396 . S
C2011 C2012 1.399 . S
C2012 H1998 0.929 . S
C2012 C2011 1.399 . S
C2012 C2013 1.385 . S
C2013 H1999 0.931 . S
C2013 C2012 1.385 . S
C2013 C2014 1.389 . S
C2014 C2013 1.389 . S
C2014 C2015 1.387 . S
C2015 H2000 0.930 . S
C2015 C2010 1.390 . S
C2015 C2014 1.387 . S
H2016 C2028 0.930 . S
H2017 C2030 0.930 . S
H2018 C2031 0.930 . S
H2019 C2035 0.959 . S
H2020 C2035 0.959 . S
H2021 C2035 0.961 . S
H2022 C2036 0.960 . S
H2023 C2036 0.961 . S
H2024 C2036 0.959 . S
H2025 C2039 0.929 . S
H2026 C2040 0.931 . S
H2027 C2042 0.930 . S
C2028 H2016 0.930 . S
C2028 C2029 1.399 . S
C2028 C2033 1.399 . S
C2029 C2028 1.399 . S
C2029 C2030 1.376 . S
C2030 H2017 0.930 . S
C2030 C2029 1.376 . S
C2030 C2031 1.388 . S
C2031 H2018 0.930 . S
C2031 C2030 1.388 . S
C2031 C2032 1.390 . S
C2032 C2031 1.390 . S
C2032 C2033 1.394 . S
C2032 C2038 1.465 . S
C2033 C2028 1.399 . S
C2033 C2032 1.394 . S
C2033 C2034 1.516 . S
C2034 C2033 1.516 . S
C2034 C2035 1.502 . S
C2034 C2036 1.561 . S
C2034 C2037 1.526 . S
C2035 H2019 0.959 . S
C2035 H2020 0.959 . S
C2035 H2021 0.961 . S
C2035 C2034 1.502 . S
C2036 H2022 0.960 . S
C2036 H2023 0.961 . S
C2036 H2024 0.959 . S
C2036 C2034 1.561 . S
C2037 C2034 1.526 . S
C2037 C2038 1.396 . S
C2037 C2042 1.390 . S
C2038 C2032 1.465 . S
C2038 C2037 1.396 . S
C2038 C2039 1.399 . S
C2039 H2025 0.929 . S
C2039 C2038 1.399 . S
C2039 C2040 1.385 . S
C2040 H2026 0.931 . S
C2040 C2039 1.385 . S
C2040 C2041 1.389 . S
C2041 C2040 1.389 . S
C2041 C2042 1.387 . S
C2042 H2027 0.930 . S
C2042 C2037 1.390 . S
C2042 C2041 1.387 . S
H2043 C2055 0.930 . S
H2044 C2057 0.930 . S
H2045 C2058 0.930 . S
H2046 C2062 0.959 . S
H2047 C2062 0.959 . S
H2048 C2062 0.961 . S
H2049 C2063 0.960 . S
H2050 C2063 0.961 . S
H2051 C2063 0.959 . S
H2052 C2066 0.929 . S
H2053 C2067 0.931 . S
H2054 C2069 0.930 . S
C2055 H2043 0.930 . S
C2055 C2056 1.399 . S
C2055 C2060 1.399 . S
C2056 C2055 1.399 . S
C2056 C2057 1.376 . S
C2057 H2044 0.930 . S
C2057 C2056 1.376 . S
C2057 C2058 1.388 . S
C2058 H2045 0.930 . S
C2058 C2057 1.388 . S
C2058 C2059 1.390 . S
C2059 C2058 1.390 . S
C2059 C2060 1.394 . S
C2059 C2065 1.465 . S
C2060 C2055 1.399 . S
C2060 C2059 1.394 . S
C2060 C2061 1.516 . S
C2061 C2060 1.516 . S
C2061 C2062 1.502 . S
C2061 C2063 1.561 . S
C2061 C2064 1.526 . S
C2062 H2046 0.959 . S
C2062 H2047 0.959 . S
C2062 H2048 0.961 . S
C2062 C2061 1.502 . S
C2063 H2049 0.960 . S
C2063 H2050 0.961 . S
C2063 H2051 0.959 . S
C2063 C2061 1.561 . S
C2064 C2061 1.526 . S
C2064 C2065 1.396 . S
C2064 C2069 1.390 . S
C2065 C2059 1.465 . S
C2065 C2064 1.396 . S
C2065 C2066 1.399 . S
C2066 H2052 0.929 . S
C2066 C2065 1.399 . S
C2066 C2067 1.385 . S
C2067 H2053 0.931 . S
C2067 C2066 1.385 . S
C2067 C2068 1.389 . S
C2068 C2067 1.389 . S
C2068 C2069 1.387 . S
C2069 H2054 0.930 . S
C2069 C2064 1.390 . S
C2069 C2068 1.387 . S
H2070 C2082 0.930 . S
H2071 C2084 0.930 . S
H2072 C2085 0.930 . S
H2073 C2089 0.959 . S
H2074 C2089 0.959 . S
H2075 C2089 0.961 . S
H2076 C2090 0.960 . S
H2077 C2090 0.961 . S
H2078 C2090 0.959 . S
H2079 C2093 0.929 . S
H2080 C2094 0.931 . S
H2081 C2096 0.930 . S
C2082 H2070 0.930 . S
C2082 C2083 1.399 . S
C2082 C2087 1.399 . S
C2083 C2082 1.399 . S
C2083 C2084 1.376 . S
C2084 H2071 0.930 . S
C2084 C2083 1.376 . S
C2084 C2085 1.388 . S
C2085 H2072 0.930 . S
C2085 C2084 1.388 . S
C2085 C2086 1.390 . S
C2086 C2085 1.390 . S
C2086 C2087 1.394 . S
C2086 C2092 1.465 . S
C2087 C2082 1.399 . S
C2087 C2086 1.394 . S
C2087 C2088 1.516 . S
C2088 C2087 1.516 . S
C2088 C2089 1.502 . S
C2088 C2090 1.561 . S
C2088 C2091 1.526 . S
C2089 H2073 0.959 . S
C2089 H2074 0.959 . S
C2089 H2075 0.961 . S
C2089 C2088 1.502 . S
C2090 H2076 0.960 . S
C2090 H2077 0.961 . S
C2090 H2078 0.959 . S
C2090 C2088 1.561 . S
C2091 C2088 1.526 . S
C2091 C2092 1.396 . S
C2091 C2096 1.390 . S
C2092 C2086 1.465 . S
C2092 C2091 1.396 . S
C2092 C2093 1.399 . S
C2093 H2079 0.929 . S
C2093 C2092 1.399 . S
C2093 C2094 1.385 . S
C2094 H2080 0.931 . S
C2094 C2093 1.385 . S
C2094 C2095 1.389 . S
C2095 C2094 1.389 . S
C2095 C2096 1.387 . S
C2096 H2081 0.930 . S
C2096 C2091 1.390 . S
C2096 C2095 1.387 . S
H2097 C2109 0.930 . S
H2098 C2111 0.930 . S
H2099 C2112 0.930 . S
H2100 C2116 0.959 . S
H2101 C2116 0.959 . S
H2102 C2116 0.961 . S
H2103 C2117 0.960 . S
H2104 C2117 0.961 . S
H2105 C2117 0.959 . S
H2106 C2120 0.929 . S
H2107 C2121 0.931 . S
H2108 C2123 0.930 . S
C2109 H2097 0.930 . S
C2109 C2110 1.399 . S
C2109 C2114 1.399 . S
C2110 C2109 1.399 . S
C2110 C2111 1.376 . S
C2111 H2098 0.930 . S
C2111 C2110 1.376 . S
C2111 C2112 1.388 . S
C2112 H2099 0.930 . S
C2112 C2111 1.388 . S
C2112 C2113 1.390 . S
C2113 C2112 1.390 . S
C2113 C2114 1.394 . S
C2113 C2119 1.465 . S
C2114 C2109 1.399 . S
C2114 C2113 1.394 . S
C2114 C2115 1.516 . S
C2115 C2114 1.516 . S
C2115 C2116 1.502 . S
C2115 C2117 1.561 . S
C2115 C2118 1.526 . S
C2116 H2100 0.959 . S
C2116 H2101 0.959 . S
C2116 H2102 0.961 . S
C2116 C2115 1.502 . S
C2117 H2103 0.960 . S
C2117 H2104 0.961 . S
C2117 H2105 0.959 . S
C2117 C2115 1.561 . S
C2118 C2115 1.526 . S
C2118 C2119 1.396 . S
C2118 C2123 1.390 . S
C2119 C2113 1.465 . S
C2119 C2118 1.396 . S
C2119 C2120 1.399 . S
C2120 H2106 0.929 . S
C2120 C2119 1.399 . S
C2120 C2121 1.385 . S
C2121 H2107 0.931 . S
C2121 C2120 1.385 . S
C2121 C2122 1.389 . S
C2122 C2121 1.389 . S
C2122 C2123 1.387 . S
C2123 H2108 0.930 . S
C2123 C2118 1.390 . S
C2123 C2122 1.387 . S
H2124 C2136 0.930 . S
H2125 C2138 0.930 . S
H2126 C2139 0.930 . S
H2127 C2143 0.959 . S
H2128 C2143 0.959 . S
H2129 C2143 0.961 . S
H2130 C2144 0.960 . S
H2131 C2144 0.961 . S
H2132 C2144 0.959 . S
H2133 C2147 0.929 . S
H2134 C2148 0.931 . S
H2135 C2150 0.930 . S
C2136 H2124 0.930 . S
C2136 C2137 1.399 . S
C2136 C2141 1.399 . S
C2137 C2136 1.399 . S
C2137 C2138 1.376 . S
C2138 H2125 0.930 . S
C2138 C2137 1.376 . S
C2138 C2139 1.388 . S
C2139 H2126 0.930 . S
C2139 C2138 1.388 . S
C2139 C2140 1.390 . S
C2140 C2139 1.390 . S
C2140 C2141 1.394 . S
C2140 C2146 1.465 . S
C2141 C2136 1.399 . S
C2141 C2140 1.394 . S
C2141 C2142 1.516 . S
C2142 C2141 1.516 . S
C2142 C2143 1.502 . S
C2142 C2144 1.561 . S
C2142 C2145 1.526 . S
C2143 H2127 0.959 . S
C2143 H2128 0.959 . S
C2143 H2129 0.961 . S
C2143 C2142 1.502 . S
C2144 H2130 0.960 . S
C2144 H2131 0.961 . S
C2144 H2132 0.959 . S
C2144 C2142 1.561 . S
C2145 C2142 1.526 . S
C2145 C2146 1.396 . S
C2145 C2150 1.390 . S
C2146 C2140 1.465 . S
C2146 C2145 1.396 . S
C2146 C2147 1.399 . S
C2147 H2133 0.929 . S
C2147 C2146 1.399 . S
C2147 C2148 1.385 . S
C2148 H2134 0.931 . S
C2148 C2147 1.385 . S
C2148 C2149 1.389 . S
C2149 C2148 1.389 . S
C2149 C2150 1.387 . S
C2150 H2135 0.930 . S
C2150 C2145 1.390 . S
C2150 C2149 1.387 . S
H2151 C2163 0.930 . S
H2152 C2165 0.930 . S
H2153 C2166 0.930 . S
H2154 C2170 0.959 . S
H2155 C2170 0.959 . S
H2156 C2170 0.961 . S
H2157 C2171 0.960 . S
H2158 C2171 0.961 . S
H2159 C2171 0.959 . S
H2160 C2174 0.929 . S
H2161 C2175 0.931 . S
H2162 C2177 0.930 . S
C2163 H2151 0.930 . S
C2163 C2164 1.399 . S
C2163 C2168 1.399 . S
C2164 C2163 1.399 . S
C2164 C2165 1.376 . S
C2165 H2152 0.930 . S
C2165 C2164 1.376 . S
C2165 C2166 1.388 . S
C2166 H2153 0.930 . S
C2166 C2165 1.388 . S
C2166 C2167 1.390 . S
C2167 C2166 1.390 . S
C2167 C2168 1.394 . S
C2167 C2173 1.465 . S
C2168 C2163 1.399 . S
C2168 C2167 1.394 . S
C2168 C2169 1.516 . S
C2169 C2168 1.516 . S
C2169 C2170 1.502 . S
C2169 C2171 1.561 . S
C2169 C2172 1.526 . S
C2170 H2154 0.959 . S
C2170 H2155 0.959 . S
C2170 H2156 0.961 . S
C2170 C2169 1.502 . S
C2171 H2157 0.960 . S
C2171 H2158 0.961 . S
C2171 H2159 0.959 . S
C2171 C2169 1.561 . S
C2172 C2169 1.526 . S
C2172 C2173 1.396 . S
C2172 C2177 1.390 . S
C2173 C2167 1.465 . S
C2173 C2172 1.396 . S
C2173 C2174 1.399 . S
C2174 H2160 0.929 . S
C2174 C2173 1.399 . S
C2174 C2175 1.385 . S
C2175 H2161 0.931 . S
C2175 C2174 1.385 . S
C2175 C2176 1.389 . S
C2176 C2175 1.389 . S
C2176 C2177 1.387 . S
C2177 H2162 0.930 . S
C2177 C2172 1.390 . S
C2177 C2176 1.387 . S
H2178 C2190 0.930 . S
H2179 C2192 0.930 . S
H2180 C2193 0.930 . S
H2181 C2197 0.959 . S
H2182 C2197 0.959 . S
H2183 C2197 0.961 . S
H2184 C2198 0.960 . S
H2185 C2198 0.961 . S
H2186 C2198 0.959 . S
H2187 C2201 0.929 . S
H2188 C2202 0.931 . S
H2189 C2204 0.930 . S
C2190 H2178 0.930 . S
C2190 C2191 1.399 . S
C2190 C2195 1.399 . S
C2191 C2190 1.399 . S
C2191 C2192 1.376 . S
C2192 H2179 0.930 . S
C2192 C2191 1.376 . S
C2192 C2193 1.388 . S
C2193 H2180 0.930 . S
C2193 C2192 1.388 . S
C2193 C2194 1.390 . S
C2194 C2193 1.390 . S
C2194 C2195 1.394 . S
C2194 C2200 1.465 . S
C2195 C2190 1.399 . S
C2195 C2194 1.394 . S
C2195 C2196 1.516 . S
C2196 C2195 1.516 . S
C2196 C2197 1.502 . S
C2196 C2198 1.561 . S
C2196 C2199 1.526 . S
C2197 H2181 0.959 . S
C2197 H2182 0.959 . S
C2197 H2183 0.961 . S
C2197 C2196 1.502 . S
C2198 H2184 0.960 . S
C2198 H2185 0.961 . S
C2198 H2186 0.959 . S
C2198 C2196 1.561 . S
C2199 C2196 1.526 . S
C2199 C2200 1.396 . S
C2199 C2204 1.390 . S
C2200 C2194 1.465 . S
C2200 C2199 1.396 . S
C2200 C2201 1.399 . S
C2201 H2187 0.929 . S
C2201 C2200 1.399 . S
C2201 C2202 1.385 . S
C2202 H2188 0.931 . S
C2202 C2201 1.385 . S
C2202 C2203 1.389 . S
C2203 C2202 1.389 . S
C2203 C2204 1.387 . S
C2204 H2189 0.930 . S
C2204 C2199 1.390 . S
C2204 C2203 1.387 . S
H2205 C2217 0.930 . S
H2206 C2219 0.930 . S
H2207 C2220 0.930 . S
H2208 C2224 0.959 . S
H2209 C2224 0.959 . S
H2210 C2224 0.961 . S
H2211 C2225 0.960 . S
H2212 C2225 0.961 . S
H2213 C2225 0.959 . S
H2214 C2228 0.929 . S
H2215 C2229 0.931 . S
H2216 C2231 0.930 . S
C2217 H2205 0.930 . S
C2217 C2218 1.399 . S
C2217 C2222 1.399 . S
C2218 C2217 1.399 . S
C2218 C2219 1.376 . S
C2219 H2206 0.930 . S
C2219 C2218 1.376 . S
C2219 C2220 1.388 . S
C2220 H2207 0.930 . S
C2220 C2219 1.388 . S
C2220 C2221 1.390 . S
C2221 C2220 1.390 . S
C2221 C2222 1.394 . S
C2221 C2227 1.465 . S
C2222 C2217 1.399 . S
C2222 C2221 1.394 . S
C2222 C2223 1.516 . S
C2223 C2222 1.516 . S
C2223 C2224 1.502 . S
C2223 C2225 1.561 . S
C2223 C2226 1.526 . S
C2224 H2208 0.959 . S
C2224 H2209 0.959 . S
C2224 H2210 0.961 . S
C2224 C2223 1.502 . S
C2225 H2211 0.960 . S
C2225 H2212 0.961 . S
C2225 H2213 0.959 . S
C2225 C2223 1.561 . S
C2226 C2223 1.526 . S
C2226 C2227 1.396 . S
C2226 C2231 1.390 . S
C2227 C2221 1.465 . S
C2227 C2226 1.396 . S
C2227 C2228 1.399 . S
C2228 H2214 0.929 . S
C2228 C2227 1.399 . S
C2228 C2229 1.385 . S
C2229 H2215 0.931 . S
C2229 C2228 1.385 . S
C2229 C2230 1.389 . S
C2230 C2229 1.389 . S
C2230 C2231 1.387 . S
C2231 H2216 0.930 . S
C2231 C2226 1.390 . S
C2231 C2230 1.387 . S
H2232 C2244 0.930 . S
H2233 C2246 0.930 . S
H2234 C2247 0.930 . S
H2235 C2251 0.959 . S
H2236 C2251 0.959 . S
H2237 C2251 0.961 1_554 S
H2238 C2252 0.960 1_554 S
H2239 C2252 0.961 . S
H2240 C2252 0.959 . S
H2241 C2255 0.929 . S
H2242 C2256 0.931 . S
H2243 C2258 0.930 . S
C2244 H2232 0.930 . S
C2244 C2245 1.399 . S
C2244 C2249 1.399 . S
C2245 C2244 1.399 . S
C2245 C2246 1.376 . S
C2246 H2233 0.930 . S
C2246 C2245 1.376 . S
C2246 C2247 1.388 . S
C2247 H2234 0.930 . S
C2247 C2246 1.388 . S
C2247 C2248 1.390 . S
C2248 C2247 1.390 . S
C2248 C2249 1.394 . S
C2248 C2254 1.465 1_554 S
C2249 C2244 1.399 . S
C2249 C2248 1.394 . S
C2249 C2250 1.516 1_554 S
C2250 C2249 1.516 1_556 S
C2250 C2251 1.502 . S
C2250 C2252 1.561 . S
C2250 C2253 1.526 . S
C2251 H2235 0.959 . S
C2251 H2236 0.959 . S
C2251 H2237 0.961 1_556 S
C2251 C2250 1.502 . S
C2252 H2238 0.960 1_556 S
C2252 H2239 0.961 . S
C2252 H2240 0.959 . S
C2252 C2250 1.561 . S
C2253 C2250 1.526 . S
C2253 C2254 1.396 . S
C2253 C2258 1.390 . S
C2254 C2248 1.465 1_556 S
C2254 C2253 1.396 . S
C2254 C2255 1.399 . S
C2255 H2241 0.929 . S
C2255 C2254 1.399 . S
C2255 C2256 1.385 . S
C2256 H2242 0.931 . S
C2256 C2255 1.385 . S
C2256 C2257 1.389 . S
C2257 C2256 1.389 . S
C2257 C2258 1.387 . S
C2258 H2243 0.930 . S
C2258 C2253 1.390 . S
C2258 C2257 1.387 . S
H2259 C2271 0.930 . S
H2260 C2273 0.930 . S
H2261 C2274 0.930 . S
H2262 C2278 0.959 . S
H2263 C2278 0.959 . S
H2264 C2278 0.961 1_556 S
H2265 C2279 0.960 1_556 S
H2266 C2279 0.961 . S
H2267 C2279 0.959 . S
H2268 C2282 0.929 . S
H2269 C2283 0.931 . S
H2270 C2285 0.930 . S
C2271 H2259 0.930 . S
C2271 C2272 1.399 . S
C2271 C2276 1.399 . S
C2272 C2271 1.399 . S
C2272 C2273 1.376 . S
C2273 H2260 0.930 . S
C2273 C2272 1.376 . S
C2273 C2274 1.388 . S
C2274 H2261 0.930 . S
C2274 C2273 1.388 . S
C2274 C2275 1.390 . S
C2275 C2274 1.390 . S
C2275 C2276 1.394 . S
C2275 C2281 1.465 1_556 S
C2276 C2271 1.399 . S
C2276 C2275 1.394 . S
C2276 C2277 1.516 1_556 S
C2277 C2276 1.516 1_554 S
C2277 C2278 1.502 . S
C2277 C2279 1.561 . S
C2277 C2280 1.526 . S
C2278 H2262 0.959 . S
C2278 H2263 0.959 . S
C2278 H2264 0.961 1_554 S
C2278 C2277 1.502 . S
C2279 H2265 0.960 1_554 S
C2279 H2266 0.961 . S
C2279 H2267 0.959 . S
C2279 C2277 1.561 . S
C2280 C2277 1.526 . S
C2280 C2281 1.396 . S
C2280 C2285 1.390 . S
C2281 C2275 1.465 1_554 S
C2281 C2280 1.396 . S
C2281 C2282 1.399 . S
C2282 H2268 0.929 . S
C2282 C2281 1.399 . S
C2282 C2283 1.385 . S
C2283 H2269 0.931 . S
C2283 C2282 1.385 . S
C2283 C2284 1.389 . S
C2284 C2283 1.389 . S
C2284 C2285 1.387 . S
C2285 H2270 0.930 . S
C2285 C2280 1.390 . S
C2285 C2284 1.387 . S
H2286 C2298 0.930 . S
H2287 C2300 0.930 . S
H2288 C2301 0.930 . S
H2289 C2305 0.959 . S
H2290 C2305 0.959 . S
H2291 C2305 0.961 1_554 S
H2292 C2306 0.946 1_554 S
H2293 C2306 0.973 . S
H2294 C2306 0.960 . S
H2295 C2309 0.929 . S
H2296 C2310 0.931 . S
H2297 C2312 0.930 . S
C2298 H2286 0.930 . S
C2298 C2299 1.399 . S
C2298 C2303 1.399 . S
C2299 C2298 1.399 . S
C2299 C2300 1.376 . S
C2300 H2287 0.930 . S
C2300 C2299 1.376 . S
C2300 C2301 1.388 . S
C2301 H2288 0.930 . S
C2301 C2300 1.388 . S
C2301 C2302 1.390 . S
C2302 C2301 1.390 . S
C2302 C2303 1.394 . S
C2302 C2308 1.465 1_554 S
C2303 C2298 1.399 . S
C2303 C2302 1.394 . S
C2303 C2304 1.516 1_554 S
C2304 C2303 1.516 1_556 S
C2304 C2305 1.502 . S
C2304 C2306 1.562 . S
C2304 C2307 1.526 . S
C2305 H2289 0.959 . S
C2305 H2290 0.959 . S
C2305 H2291 0.961 1_556 S
C2305 C2304 1.502 . S
C2306 H2292 0.946 1_556 S
C2306 H2293 0.973 . S
C2306 H2294 0.960 . S
C2306 C2304 1.562 . S
C2307 C2304 1.526 . S
C2307 C2308 1.396 . S
C2307 C2312 1.390 . S
C2308 C2302 1.465 1_556 S
C2308 C2307 1.396 . S
C2308 C2309 1.399 . S
C2309 H2295 0.929 . S
C2309 C2308 1.399 . S
C2309 C2310 1.385 . S
C2310 H2296 0.931 . S
C2310 C2309 1.385 . S
C2310 C2311 1.389 . S
C2311 C2310 1.389 . S
C2311 C2312 1.387 . S
C2312 H2297 0.930 . S
C2312 C2307 1.390 . S
C2312 C2311 1.387 . S
H2313 C2325 0.930 . S
H2314 C2327 0.930 . S
H2315 C2328 0.930 . S
H2316 C2332 0.959 . S
H2317 C2332 0.959 1_556 S
H2318 C2332 0.961 . S
H2319 C2333 0.960 . S
H2320 C2333 0.961 1_556 S
H2321 C2333 0.959 . S
H2322 C2336 0.929 . S
H2323 C2337 0.931 . S
H2324 C2339 0.930 . S
C2325 H2313 0.930 . S
C2325 C2326 1.399 . S
C2325 C2330 1.399 . S
C2326 C2325 1.399 . S
C2326 C2327 1.376 . S
C2327 H2314 0.930 . S
C2327 C2326 1.376 . S
C2327 C2328 1.388 . S
C2328 H2315 0.930 . S
C2328 C2327 1.388 . S
C2328 C2329 1.390 . S
C2329 C2328 1.390 . S
C2329 C2330 1.394 . S
C2329 C2335 1.455 1_554 S
C2330 C2325 1.399 . S
C2330 C2329 1.394 . S
C2330 C2331 1.516 . S
C2331 C2330 1.516 . S
C2331 C2332 1.502 . S
C2331 C2333 1.561 . S
C2331 C2334 1.526 1_554 S
C2332 H2316 0.959 . S
C2332 H2317 0.959 1_554 S
C2332 H2318 0.961 . S
C2332 C2331 1.502 . S
C2333 H2319 0.960 . S
C2333 H2320 0.961 1_554 S
C2333 H2321 0.959 . S
C2333 C2331 1.561 . S
C2334 C2331 1.526 1_556 S
C2334 C2335 1.400 . S
C2334 C2339 1.390 . S
C2335 C2329 1.455 1_556 S
C2335 C2334 1.400 . S
C2335 C2336 1.405 . S
C2336 H2322 0.929 . S
C2336 C2335 1.405 . S
C2336 C2337 1.385 . S
C2337 H2323 0.931 . S
C2337 C2336 1.385 . S
C2337 C2338 1.389 . S
C2338 C2337 1.389 . S
C2338 C2339 1.387 . S
C2339 H2324 0.930 . S
C2339 C2334 1.390 . S
C2339 C2338 1.387 . S
H2340 C2352 0.930 . S
H2341 C2354 0.930 . S
H2342 C2355 0.930 . S
H2343 C2359 0.959 . S
H2344 C2359 0.959 1_556 S
H2345 C2359 0.961 . S
H2346 C2360 0.960 . S
H2347 C2360 0.961 1_556 S
H2348 C2360 0.966 . S
H2349 C2363 0.929 . S
H2350 C2364 0.931 . S
H2351 C2366 0.930 . S
C2352 H2340 0.930 . S
C2352 C2353 1.399 . S
C2352 C2357 1.399 . S
C2353 C2352 1.399 . S
C2353 C2354 1.376 . S
C2354 H2341 0.930 . S
C2354 C2353 1.376 . S
C2354 C2355 1.388 . S
C2355 H2342 0.930 . S
C2355 C2354 1.388 . S
C2355 C2356 1.390 . S
C2356 C2355 1.390 . S
C2356 C2357 1.394 . S
C2356 C2362 1.465 1_554 S
C2357 C2352 1.399 . S
C2357 C2356 1.394 . S
C2357 C2358 1.516 . S
C2358 C2357 1.516 . S
C2358 C2359 1.502 . S
C2358 C2360 1.561 . S
C2358 C2361 1.526 1_554 S
C2359 H2343 0.959 . S
C2359 H2344 0.959 1_554 S
C2359 H2345 0.961 . S
C2359 C2358 1.502 . S
C2360 H2346 0.960 . S
C2360 H2347 0.961 1_554 S
C2360 H2348 0.966 . S
C2360 C2358 1.561 . S
C2361 C2358 1.526 1_556 S
C2361 C2362 1.396 . S
C2361 C2366 1.390 . S
C2362 C2356 1.465 1_556 S
C2362 C2361 1.396 . S
C2362 C2363 1.399 . S
C2363 H2349 0.929 . S
C2363 C2362 1.399 . S
C2363 C2364 1.385 . S
C2364 H2350 0.931 . S
C2364 C2363 1.385 . S
C2364 C2365 1.389 . S
C2365 C2364 1.389 . S
C2365 C2366 1.387 . S
C2366 H2351 0.930 . S
C2366 C2361 1.390 . S
C2366 C2365 1.387 . S
H2367 C2379 0.930 . S
H2368 C2381 0.930 . S
H2369 C2382 0.930 . S
H2370 C2386 0.959 . S
H2371 C2386 0.959 . S
H2372 C2386 0.961 1_554 S
H2373 C2387 0.960 1_554 S
H2374 C2387 0.961 . S
H2375 C2387 0.959 . S
H2376 C2390 0.929 . S
H2377 C2391 0.931 . S
H2378 C2393 0.930 . S
C2379 H2367 0.930 . S
C2379 C2380 1.399 . S
C2379 C2384 1.399 . S
C2380 C2379 1.399 . S
C2380 C2381 1.376 . S
C2381 H2368 0.930 . S
C2381 C2380 1.376 . S
C2381 C2382 1.388 . S
C2382 H2369 0.930 . S
C2382 C2381 1.388 . S
C2382 C2383 1.390 . S
C2383 C2382 1.390 . S
C2383 C2384 1.394 . S
C2383 C2389 1.465 1_554 S
C2384 C2379 1.399 . S
C2384 C2383 1.394 . S
C2384 C2385 1.516 1_554 S
C2385 C2384 1.516 1_556 S
C2385 C2386 1.502 . S
C2385 C2387 1.561 . S
C2385 C2388 1.526 . S
C2386 H2370 0.959 . S
C2386 H2371 0.959 . S
C2386 H2372 0.961 1_556 S
C2386 C2385 1.502 . S
C2387 H2373 0.960 1_556 S
C2387 H2374 0.961 . S
C2387 H2375 0.959 . S
C2387 C2385 1.561 . S
C2388 C2385 1.526 . S
C2388 C2389 1.396 . S
C2388 C2393 1.390 . S
C2389 C2383 1.465 1_556 S
C2389 C2388 1.396 . S
C2389 C2390 1.399 . S
C2390 H2376 0.929 . S
C2390 C2389 1.399 . S
C2390 C2391 1.385 . S
C2391 H2377 0.931 . S
C2391 C2390 1.385 . S
C2391 C2392 1.389 . S
C2392 C2391 1.389 . S
C2392 C2393 1.387 . S
C2393 H2378 0.930 . S
C2393 C2388 1.390 . S
C2393 C2392 1.387 . S
H2394 C2406 0.930 . S
H2395 C2408 0.930 . S
H2396 C2409 0.930 . S
H2397 C2413 0.959 . S
H2398 C2413 0.959 . S
H2399 C2413 0.961 1_556 S
H2400 C2414 0.960 1_556 S
H2401 C2414 0.961 . S
H2402 C2414 0.959 . S
H2403 C2417 0.929 . S
H2404 C2418 0.931 . S
H2405 C2420 0.930 . S
C2406 H2394 0.930 . S
C2406 C2407 1.399 . S
C2406 C2411 1.399 . S
C2407 C2406 1.399 . S
C2407 C2408 1.376 . S
C2408 H2395 0.930 . S
C2408 C2407 1.376 . S
C2408 C2409 1.388 . S
C2409 H2396 0.930 . S
C2409 C2408 1.388 . S
C2409 C2410 1.390 . S
C2410 C2409 1.390 . S
C2410 C2411 1.394 . S
C2410 C2416 1.465 1_556 S
C2411 C2406 1.399 . S
C2411 C2410 1.394 . S
C2411 C2412 1.516 1_556 S
C2412 C2411 1.516 1_554 S
C2412 C2413 1.502 . S
C2412 C2414 1.561 . S
C2412 C2415 1.526 . S
C2413 H2397 0.959 . S
C2413 H2398 0.959 . S
C2413 H2399 0.961 1_554 S
C2413 C2412 1.502 . S
C2414 H2400 0.960 1_554 S
C2414 H2401 0.961 . S
C2414 H2402 0.959 . S
C2414 C2412 1.561 . S
C2415 C2412 1.526 . S
C2415 C2416 1.396 . S
C2415 C2420 1.390 . S
C2416 C2410 1.465 1_554 S
C2416 C2415 1.396 . S
C2416 C2417 1.399 . S
C2417 H2403 0.929 . S
C2417 C2416 1.399 . S
C2417 C2418 1.385 . S
C2418 H2404 0.931 . S
C2418 C2417 1.385 . S
C2418 C2419 1.389 . S
C2419 C2418 1.389 . S
C2419 C2420 1.387 . S
C2420 H2405 0.930 . S
C2420 C2415 1.390 . S
C2420 C2419 1.387 . S
H2421 C2433 0.930 . S
H2422 C2435 0.930 . S
H2423 C2436 0.930 . S
H2424 C2440 0.959 . S
H2425 C2440 0.959 1_554 S
H2426 C2440 0.961 . S
H2427 C2441 0.960 . S
H2428 C2441 0.961 1_554 S
H2429 C2441 0.959 . S
H2430 C2444 0.929 . S
H2431 C2445 0.931 . S
H2432 C2447 0.930 . S
C2433 H2421 0.930 . S
C2433 C2434 1.399 . S
C2433 C2438 1.399 . S
C2434 C2433 1.399 . S
C2434 C2435 1.376 . S
C2435 H2422 0.930 . S
C2435 C2434 1.376 . S
C2435 C2436 1.388 . S
C2436 H2423 0.930 . S
C2436 C2435 1.388 . S
C2436 C2437 1.390 . S
C2437 C2436 1.390 . S
C2437 C2438 1.394 . S
C2437 C2443 1.467 1_556 S
C2438 C2433 1.399 . S
C2438 C2437 1.394 . S
C2438 C2439 1.516 . S
C2439 C2438 1.516 . S
C2439 C2440 1.502 . S
C2439 C2441 1.561 . S
C2439 C2442 1.526 1_556 S
C2440 H2424 0.959 . S
C2440 H2425 0.959 1_556 S
C2440 H2426 0.961 . S
C2440 C2439 1.502 . S
C2441 H2427 0.960 . S
C2441 H2428 0.961 1_556 S
C2441 H2429 0.959 . S
C2441 C2439 1.561 . S
C2442 C2439 1.526 1_554 S
C2442 C2443 1.395 . S
C2442 C2447 1.390 . S
C2443 C2437 1.467 1_554 S
C2443 C2442 1.395 . S
C2443 C2444 1.398 . S
C2444 H2430 0.929 . S
C2444 C2443 1.398 . S
C2444 C2445 1.385 . S
C2445 H2431 0.931 . S
C2445 C2444 1.385 . S
C2445 C2446 1.389 . S
C2446 C2445 1.389 . S
C2446 C2447 1.387 . S
C2447 H2432 0.930 . S
C2447 C2442 1.390 . S
C2447 C2446 1.387 . S
H2448 C2460 0.930 . S
H2449 C2462 0.930 . S
H2450 C2463 0.930 . S
H2451 C2467 0.959 . S
H2452 C2467 0.959 . S
H2453 C2467 0.961 . S
H2454 C2468 0.960 . S
H2455 C2468 0.961 . S
H2456 C2468 0.959 . S
H2457 C2471 0.929 . S
H2458 C2472 0.931 . S
H2459 C2474 0.930 . S
C2460 H2448 0.930 . S
C2460 C2461 1.399 . S
C2460 C2465 1.399 . S
C2461 C2460 1.399 . S
C2461 C2462 1.376 . S
C2462 H2449 0.930 . S
C2462 C2461 1.376 . S
C2462 C2463 1.388 . S
C2463 H2450 0.930 . S
C2463 C2462 1.388 . S
C2463 C2464 1.390 . S
C2464 C2463 1.390 . S
C2464 C2465 1.394 . S
C2464 C2470 1.465 . S
C2465 C2460 1.399 . S
C2465 C2464 1.394 . S
C2465 C2466 1.516 . S
C2466 C2465 1.516 . S
C2466 C2467 1.502 . S
C2466 C2468 1.561 . S
C2466 C2469 1.526 . S
C2467 H2451 0.959 . S
C2467 H2452 0.959 . S
C2467 H2453 0.961 . S
C2467 C2466 1.502 . S
C2468 H2454 0.960 . S
C2468 H2455 0.961 . S
C2468 H2456 0.959 . S
C2468 C2466 1.561 . S
C2469 C2466 1.526 . S
C2469 C2470 1.396 . S
C2469 C2474 1.390 . S
C2470 C2464 1.465 . S
C2470 C2469 1.396 . S
C2470 C2471 1.399 . S
C2471 H2457 0.929 . S
C2471 C2470 1.399 . S
C2471 C2472 1.385 . S
C2472 H2458 0.931 . S
C2472 C2471 1.385 . S
C2472 C2473 1.389 . S
C2473 C2472 1.389 . S
C2473 C2474 1.387 . S
C2474 H2459 0.930 . S
C2474 C2469 1.390 . S
C2474 C2473 1.387 . S
H2475 C2487 0.930 . S
H2476 C2489 0.930 . S
H2477 C2490 0.930 . S
H2478 C2494 0.959 . S
H2479 C2494 0.959 . S
H2480 C2494 0.961 . S
H2481 C2495 0.960 . S
H2482 C2495 0.961 . S
H2483 C2495 0.959 . S
H2484 C2498 0.929 . S
H2485 C2499 0.931 . S
H2486 C2501 0.930 . S
C2487 H2475 0.930 . S
C2487 C2488 1.399 . S
C2487 C2492 1.399 . S
C2488 C2487 1.399 . S
C2488 C2489 1.376 . S
C2489 H2476 0.930 . S
C2489 C2488 1.376 . S
C2489 C2490 1.388 . S
C2490 H2477 0.930 . S
C2490 C2489 1.388 . S
C2490 C2491 1.390 . S
C2491 C2490 1.390 . S
C2491 C2492 1.394 . S
C2491 C2497 1.465 . S
C2492 C2487 1.399 . S
C2492 C2491 1.394 . S
C2492 C2493 1.516 . S
C2493 C2492 1.516 . S
C2493 C2494 1.502 . S
C2493 C2495 1.561 . S
C2493 C2496 1.526 . S
C2494 H2478 0.959 . S
C2494 H2479 0.959 . S
C2494 H2480 0.961 . S
C2494 C2493 1.502 . S
C2495 H2481 0.960 . S
C2495 H2482 0.961 . S
C2495 H2483 0.959 . S
C2495 C2493 1.561 . S
C2496 C2493 1.526 . S
C2496 C2497 1.396 . S
C2496 C2501 1.390 . S
C2497 C2491 1.465 . S
C2497 C2496 1.396 . S
C2497 C2498 1.399 . S
C2498 H2484 0.929 . S
C2498 C2497 1.399 . S
C2498 C2499 1.385 . S
C2499 H2485 0.931 . S
C2499 C2498 1.385 . S
C2499 C2500 1.389 . S
C2500 C2499 1.389 . S
C2500 C2501 1.387 . S
C2501 H2486 0.930 . S
C2501 C2496 1.390 . S
C2501 C2500 1.387 . S
H2502 C2514 0.930 . S
H2503 C2516 0.930 . S
H2504 C2517 0.930 . S
H2505 C2521 0.959 . S
H2506 C2521 0.959 . S
H2507 C2521 0.961 . S
H2508 C2522 0.960 . S
H2509 C2522 0.961 . S
H2510 C2522 0.959 . S
H2511 C2525 0.929 . S
H2512 C2526 0.931 . S
H2513 C2528 0.930 . S
C2514 H2502 0.930 . S
C2514 C2515 1.399 . S
C2514 C2519 1.399 . S
C2515 C2514 1.399 . S
C2515 C2516 1.376 . S
C2516 H2503 0.930 . S
C2516 C2515 1.376 . S
C2516 C2517 1.388 . S
C2517 H2504 0.930 . S
C2517 C2516 1.388 . S
C2517 C2518 1.390 . S
C2518 C2517 1.390 . S
C2518 C2519 1.394 . S
C2518 C2524 1.465 . S
C2519 C2514 1.399 . S
C2519 C2518 1.394 . S
C2519 C2520 1.516 . S
C2520 C2519 1.516 . S
C2520 C2521 1.502 . S
C2520 C2522 1.561 . S
C2520 C2523 1.526 . S
C2521 H2505 0.959 . S
C2521 H2506 0.959 . S
C2521 H2507 0.961 . S
C2521 C2520 1.502 . S
C2522 H2508 0.960 . S
C2522 H2509 0.961 . S
C2522 H2510 0.959 . S
C2522 C2520 1.561 . S
C2523 C2520 1.526 . S
C2523 C2524 1.396 . S
C2523 C2528 1.390 . S
C2524 C2518 1.465 . S
C2524 C2523 1.396 . S
C2524 C2525 1.399 . S
C2525 H2511 0.929 . S
C2525 C2524 1.399 . S
C2525 C2526 1.385 . S
C2526 H2512 0.931 . S
C2526 C2525 1.385 . S
C2526 C2527 1.389 . S
C2527 C2526 1.389 . S
C2527 C2528 1.387 . S
C2528 H2513 0.930 . S
C2528 C2523 1.390 . S
C2528 C2527 1.387 . S
H2529 C2541 0.930 . S
H2530 C2543 0.930 . S
H2531 C2544 0.930 . S
H2532 C2548 0.959 . S
H2533 C2548 0.959 . S
H2534 C2548 0.961 . S
H2535 C2549 0.960 . S
H2536 C2549 0.961 . S
H2537 C2549 0.959 . S
H2538 C2552 0.929 . S
H2539 C2553 0.931 . S
H2540 C2555 0.930 . S
C2541 H2529 0.930 . S
C2541 C2542 1.399 . S
C2541 C2546 1.399 . S
C2542 C2541 1.399 . S
C2542 C2543 1.376 . S
C2543 H2530 0.930 . S
C2543 C2542 1.376 . S
C2543 C2544 1.388 . S
C2544 H2531 0.930 . S
C2544 C2543 1.388 . S
C2544 C2545 1.390 . S
C2545 C2544 1.390 . S
C2545 C2546 1.394 . S
C2545 C2551 1.465 . S
C2546 C2541 1.399 . S
C2546 C2545 1.394 . S
C2546 C2547 1.516 . S
C2547 C2546 1.516 . S
C2547 C2548 1.502 . S
C2547 C2549 1.561 . S
C2547 C2550 1.526 . S
C2548 H2532 0.959 . S
C2548 H2533 0.959 . S
C2548 H2534 0.961 . S
C2548 C2547 1.502 . S
C2549 H2535 0.960 . S
C2549 H2536 0.961 . S
C2549 H2537 0.959 . S
C2549 C2547 1.561 . S
C2550 C2547 1.526 . S
C2550 C2551 1.396 . S
C2550 C2555 1.390 . S
C2551 C2545 1.465 . S
C2551 C2550 1.396 . S
C2551 C2552 1.399 . S
C2552 H2538 0.929 . S
C2552 C2551 1.399 . S
C2552 C2553 1.385 . S
C2553 H2539 0.931 . S
C2553 C2552 1.385 . S
C2553 C2554 1.389 . S
C2554 C2553 1.389 . S
C2554 C2555 1.387 . S
C2555 H2540 0.930 . S
C2555 C2550 1.390 . S
C2555 C2554 1.387 . S
H2556 C2568 0.930 . S
H2557 C2570 0.930 . S
H2558 C2571 0.930 . S
H2559 C2575 0.959 . S
H2560 C2575 0.959 . S
H2561 C2575 0.961 . S
H2562 C2576 0.960 . S
H2563 C2576 0.961 . S
H2564 C2576 0.959 . S
H2565 C2579 0.929 . S
H2566 C2580 0.931 . S
H2567 C2582 0.930 . S
C2568 H2556 0.930 . S
C2568 C2569 1.399 . S
C2568 C2573 1.399 . S
C2569 C2568 1.399 . S
C2569 C2570 1.376 . S
C2570 H2557 0.930 . S
C2570 C2569 1.376 . S
C2570 C2571 1.388 . S
C2571 H2558 0.930 . S
C2571 C2570 1.388 . S
C2571 C2572 1.390 . S
C2572 C2571 1.390 . S
C2572 C2573 1.394 . S
C2572 C2578 1.465 . S
C2573 C2568 1.399 . S
C2573 C2572 1.394 . S
C2573 C2574 1.516 . S
C2574 C2573 1.516 . S
C2574 C2575 1.502 . S
C2574 C2576 1.561 . S
C2574 C2577 1.526 . S
C2575 H2559 0.959 . S
C2575 H2560 0.959 . S
C2575 H2561 0.961 . S
C2575 C2574 1.502 . S
C2576 H2562 0.960 . S
C2576 H2563 0.961 . S
C2576 H2564 0.959 . S
C2576 C2574 1.561 . S
C2577 C2574 1.526 . S
C2577 C2578 1.396 . S
C2577 C2582 1.390 . S
C2578 C2572 1.465 . S
C2578 C2577 1.396 . S
C2578 C2579 1.399 . S
C2579 H2565 0.929 . S
C2579 C2578 1.399 . S
C2579 C2580 1.385 . S
C2580 H2566 0.931 . S
C2580 C2579 1.385 . S
C2580 C2581 1.389 . S
C2581 C2580 1.389 . S
C2581 C2582 1.387 . S
C2582 H2567 0.930 . S
C2582 C2577 1.390 . S
C2582 C2581 1.387 . S
H2583 C2595 0.930 . S
H2584 C2597 0.930 . S
H2585 C2598 0.930 . S
H2586 C2602 0.959 . S
H2587 C2602 0.959 . S
H2588 C2602 0.961 . S
H2589 C2603 0.960 . S
H2590 C2603 0.961 . S
H2591 C2603 0.959 . S
H2592 C2606 0.929 . S
H2593 C2607 0.931 . S
H2594 C2609 0.930 . S
C2595 H2583 0.930 . S
C2595 C2596 1.399 . S
C2595 C2600 1.399 . S
C2596 C2595 1.399 . S
C2596 C2597 1.376 . S
C2597 H2584 0.930 . S
C2597 C2596 1.376 . S
C2597 C2598 1.388 . S
C2598 H2585 0.930 . S
C2598 C2597 1.388 . S
C2598 C2599 1.390 . S
C2599 C2598 1.390 . S
C2599 C2600 1.394 . S
C2599 C2605 1.465 . S
C2600 C2595 1.399 . S
C2600 C2599 1.394 . S
C2600 C2601 1.516 . S
C2601 C2600 1.516 . S
C2601 C2602 1.502 . S
C2601 C2603 1.561 . S
C2601 C2604 1.526 . S
C2602 H2586 0.959 . S
C2602 H2587 0.959 . S
C2602 H2588 0.961 . S
C2602 C2601 1.502 . S
C2603 H2589 0.960 . S
C2603 H2590 0.961 . S
C2603 H2591 0.959 . S
C2603 C2601 1.561 . S
C2604 C2601 1.526 . S
C2604 C2605 1.396 . S
C2604 C2609 1.390 . S
C2605 C2599 1.465 . S
C2605 C2604 1.396 . S
C2605 C2606 1.399 . S
C2606 H2592 0.929 . S
C2606 C2605 1.399 . S
C2606 C2607 1.385 . S
C2607 H2593 0.931 . S
C2607 C2606 1.385 . S
C2607 C2608 1.389 . S
C2608 C2607 1.389 . S
C2608 C2609 1.387 . S
C2609 H2594 0.930 . S
C2609 C2604 1.390 . S
C2609 C2608 1.387 . S
H2610 C2622 0.930 . S
H2611 C2624 0.930 . S
H2612 C2625 0.930 . S
H2613 C2629 0.959 . S
H2614 C2629 0.959 . S
H2615 C2629 0.961 . S
H2616 C2630 0.960 . S
H2617 C2630 0.961 . S
H2618 C2630 0.959 . S
H2619 C2633 0.929 . S
H2620 C2634 0.931 . S
H2621 C2636 0.930 . S
C2622 H2610 0.930 . S
C2622 C2623 1.399 . S
C2622 C2627 1.399 . S
C2623 C2622 1.399 . S
C2623 C2624 1.376 . S
C2624 H2611 0.930 . S
C2624 C2623 1.376 . S
C2624 C2625 1.388 . S
C2625 H2612 0.930 . S
C2625 C2624 1.388 . S
C2625 C2626 1.390 . S
C2626 C2625 1.390 . S
C2626 C2627 1.394 . S
C2626 C2632 1.465 . S
C2627 C2622 1.399 . S
C2627 C2626 1.394 . S
C2627 C2628 1.516 . S
C2628 C2627 1.516 . S
C2628 C2629 1.502 . S
C2628 C2630 1.561 . S
C2628 C2631 1.526 . S
C2629 H2613 0.959 . S
C2629 H2614 0.959 . S
C2629 H2615 0.961 . S
C2629 C2628 1.502 . S
C2630 H2616 0.960 . S
C2630 H2617 0.961 . S
C2630 H2618 0.959 . S
C2630 C2628 1.561 . S
C2631 C2628 1.526 . S
C2631 C2632 1.396 . S
C2631 C2636 1.390 . S
C2632 C2626 1.465 . S
C2632 C2631 1.396 . S
C2632 C2633 1.399 . S
C2633 H2619 0.929 . S
C2633 C2632 1.399 . S
C2633 C2634 1.385 . S
C2634 H2620 0.931 . S
C2634 C2633 1.385 . S
C2634 C2635 1.389 . S
C2635 C2634 1.389 . S
C2635 C2636 1.387 . S
C2636 H2621 0.930 . S
C2636 C2631 1.390 . S
C2636 C2635 1.387 . S
H2637 C2649 0.930 . S
H2638 C2651 0.930 . S
H2639 C2652 0.930 . S
H2640 C2656 0.959 . S
H2641 C2656 0.959 . S
H2642 C2656 0.961 . S
H2643 C2657 0.960 . S
H2644 C2657 0.961 . S
H2645 C2657 0.959 . S
H2646 C2660 0.929 . S
H2647 C2661 0.931 . S
H2648 C2663 0.930 . S
C2649 H2637 0.930 . S
C2649 C2650 1.399 . S
C2649 C2654 1.399 . S
C2650 C2649 1.399 . S
C2650 C2651 1.376 . S
C2651 H2638 0.930 . S
C2651 C2650 1.376 . S
C2651 C2652 1.388 . S
C2652 H2639 0.930 . S
C2652 C2651 1.388 . S
C2652 C2653 1.390 . S
C2653 C2652 1.390 . S
C2653 C2654 1.394 . S
C2653 C2659 1.465 . S
C2654 C2649 1.399 . S
C2654 C2653 1.394 . S
C2654 C2655 1.516 . S
C2655 C2654 1.516 . S
C2655 C2656 1.502 . S
C2655 C2657 1.561 . S
C2655 C2658 1.526 . S
C2656 H2640 0.959 . S
C2656 H2641 0.959 . S
C2656 H2642 0.961 . S
C2656 C2655 1.502 . S
C2657 H2643 0.960 . S
C2657 H2644 0.961 . S
C2657 H2645 0.959 . S
C2657 C2655 1.561 . S
C2658 C2655 1.526 . S
C2658 C2659 1.396 . S
C2658 C2663 1.390 . S
C2659 C2653 1.465 . S
C2659 C2658 1.396 . S
C2659 C2660 1.399 . S
C2660 H2646 0.929 . S
C2660 C2659 1.399 . S
C2660 C2661 1.385 . S
C2661 H2647 0.931 . S
C2661 C2660 1.385 . S
C2661 C2662 1.389 . S
C2662 C2661 1.389 . S
C2662 C2663 1.387 . S
C2663 H2648 0.930 . S
C2663 C2658 1.390 . S
C2663 C2662 1.387 . S
H2664 C2676 0.930 . S
H2665 C2678 0.930 . S
H2666 C2679 0.930 . S
H2667 C2683 0.959 . S
H2668 C2683 0.959 . S
H2669 C2683 0.961 . S
H2670 C2684 0.960 . S
H2671 C2684 0.961 . S
H2672 C2684 0.959 . S
H2673 C2687 0.929 . S
H2674 C2688 0.931 . S
H2675 C2690 0.930 . S
C2676 H2664 0.930 . S
C2676 C2677 1.399 . S
C2676 C2681 1.399 . S
C2677 C2676 1.399 . S
C2677 C2678 1.376 . S
C2678 H2665 0.930 . S
C2678 C2677 1.376 . S
C2678 C2679 1.388 . S
C2679 H2666 0.930 . S
C2679 C2678 1.388 . S
C2679 C2680 1.390 . S
C2680 C2679 1.390 . S
C2680 C2681 1.394 . S
C2680 C2686 1.465 . S
C2681 C2676 1.399 . S
C2681 C2680 1.394 . S
C2681 C2682 1.516 . S
C2682 C2681 1.516 . S
C2682 C2683 1.502 . S
C2682 C2684 1.561 . S
C2682 C2685 1.526 . S
C2683 H2667 0.959 . S
C2683 H2668 0.959 . S
C2683 H2669 0.961 . S
C2683 C2682 1.502 . S
C2684 H2670 0.960 . S
C2684 H2671 0.961 . S
C2684 H2672 0.959 . S
C2684 C2682 1.561 . S
C2685 C2682 1.526 . S
C2685 C2686 1.396 . S
C2685 C2690 1.390 . S
C2686 C2680 1.465 . S
C2686 C2685 1.396 . S
C2686 C2687 1.399 . S
C2687 H2673 0.929 . S
C2687 C2686 1.399 . S
C2687 C2688 1.385 . S
C2688 H2674 0.931 . S
C2688 C2687 1.385 . S
C2688 C2689 1.389 . S
C2689 C2688 1.389 . S
C2689 C2690 1.387 . S
C2690 H2675 0.930 . S
C2690 C2685 1.390 . S
C2690 C2689 1.387 . S
H2691 C2703 0.930 . S
H2692 C2705 0.930 . S
H2693 C2706 0.930 . S
H2694 C2710 0.959 . S
H2695 C2710 0.959 . S
H2696 C2710 0.961 . S
H2697 C2711 0.960 . S
H2698 C2711 0.961 . S
H2699 C2711 0.959 . S
H2700 C2714 0.929 . S
H2701 C2715 0.931 . S
H2702 C2717 0.930 . S
C2703 H2691 0.930 . S
C2703 C2704 1.399 . S
C2703 C2708 1.399 . S
C2704 C2703 1.399 . S
C2704 C2705 1.376 . S
C2705 H2692 0.930 . S
C2705 C2704 1.376 . S
C2705 C2706 1.388 . S
C2706 H2693 0.930 . S
C2706 C2705 1.388 . S
C2706 C2707 1.390 . S
C2707 C2706 1.390 . S
C2707 C2708 1.394 . S
C2707 C2713 1.465 . S
C2708 C2703 1.399 . S
C2708 C2707 1.394 . S
C2708 C2709 1.516 . S
C2709 C2708 1.516 . S
C2709 C2710 1.502 . S
C2709 C2711 1.561 . S
C2709 C2712 1.526 . S
C2710 H2694 0.959 . S
C2710 H2695 0.959 . S
C2710 H2696 0.961 . S
C2710 C2709 1.502 . S
C2711 H2697 0.960 . S
C2711 H2698 0.961 . S
C2711 H2699 0.959 . S
C2711 C2709 1.561 . S
C2712 C2709 1.526 . S
C2712 C2713 1.396 . S
C2712 C2717 1.390 . S
C2713 C2707 1.465 . S
C2713 C2712 1.396 . S
C2713 C2714 1.399 . S
C2714 H2700 0.929 . S
C2714 C2713 1.399 . S
C2714 C2715 1.385 . S
C2715 H2701 0.931 . S
C2715 C2714 1.385 . S
C2715 C2716 1.389 . S
C2716 C2715 1.389 . S
C2716 C2717 1.387 . S
C2717 H2702 0.930 . S
C2717 C2712 1.390 . S
C2717 C2716 1.387 . S
H2718 C2730 0.930 . S
H2719 C2732 0.930 . S
H2720 C2733 0.930 . S
H2721 C2737 0.959 . S
H2722 C2737 0.959 . S
H2723 C2737 0.961 . S
H2724 C2738 0.960 . S
H2725 C2738 0.961 . S
H2726 C2738 0.959 . S
H2727 C2741 0.929 . S
H2728 C2742 0.931 . S
H2729 C2744 0.930 . S
C2730 H2718 0.930 . S
C2730 C2731 1.399 . S
C2730 C2735 1.399 . S
C2731 C2730 1.399 . S
C2731 C2732 1.376 . S
C2732 H2719 0.930 . S
C2732 C2731 1.376 . S
C2732 C2733 1.388 . S
C2733 H2720 0.930 . S
C2733 C2732 1.388 . S
C2733 C2734 1.390 . S
C2734 C2733 1.390 . S
C2734 C2735 1.394 . S
C2734 C2740 1.465 . S
C2735 C2730 1.399 . S
C2735 C2734 1.394 . S
C2735 C2736 1.516 . S
C2736 C2735 1.516 . S
C2736 C2737 1.502 . S
C2736 C2738 1.561 . S
C2736 C2739 1.526 . S
C2737 H2721 0.959 . S
C2737 H2722 0.959 . S
C2737 H2723 0.961 . S
C2737 C2736 1.502 . S
C2738 H2724 0.960 . S
C2738 H2725 0.961 . S
C2738 H2726 0.959 . S
C2738 C2736 1.561 . S
C2739 C2736 1.526 . S
C2739 C2740 1.396 . S
C2739 C2744 1.390 . S
C2740 C2734 1.465 . S
C2740 C2739 1.396 . S
C2740 C2741 1.399 . S
C2741 H2727 0.929 . S
C2741 C2740 1.399 . S
C2741 C2742 1.385 . S
C2742 H2728 0.931 . S
C2742 C2741 1.385 . S
C2742 C2743 1.389 . S
C2743 C2742 1.389 . S
C2743 C2744 1.387 . S
C2744 H2729 0.930 . S
C2744 C2739 1.390 . S
C2744 C2743 1.387 . S
H2745 C2757 0.930 . S
H2746 C2759 0.930 . S
H2747 C2760 0.930 . S
H2748 C2764 0.959 . S
H2749 C2764 0.959 . S
H2750 C2764 0.961 . S
H2751 C2765 0.960 . S
H2752 C2765 0.961 . S
H2753 C2765 0.959 . S
H2754 C2768 0.929 . S
H2755 C2769 0.931 . S
H2756 C2771 0.930 . S
C2757 H2745 0.930 . S
C2757 C2758 1.399 . S
C2757 C2762 1.399 . S
C2758 C2757 1.399 . S
C2758 C2759 1.376 . S
C2759 H2746 0.930 . S
C2759 C2758 1.376 . S
C2759 C2760 1.388 . S
C2760 H2747 0.930 . S
C2760 C2759 1.388 . S
C2760 C2761 1.390 . S
C2761 C2760 1.390 . S
C2761 C2762 1.394 . S
C2761 C2767 1.465 . S
C2762 C2757 1.399 . S
C2762 C2761 1.394 . S
C2762 C2763 1.516 . S
C2763 C2762 1.516 . S
C2763 C2764 1.502 . S
C2763 C2765 1.561 . S
C2763 C2766 1.526 . S
C2764 H2748 0.959 . S
C2764 H2749 0.959 . S
C2764 H2750 0.961 . S
C2764 C2763 1.502 . S
C2765 H2751 0.960 . S
C2765 H2752 0.961 . S
C2765 H2753 0.959 . S
C2765 C2763 1.561 . S
C2766 C2763 1.526 . S
C2766 C2767 1.396 . S
C2766 C2771 1.390 . S
C2767 C2761 1.465 . S
C2767 C2766 1.396 . S
C2767 C2768 1.399 . S
C2768 H2754 0.929 . S
C2768 C2767 1.399 . S
C2768 C2769 1.385 . S
C2769 H2755 0.931 . S
C2769 C2768 1.385 . S
C2769 C2770 1.389 . S
C2770 C2769 1.389 . S
C2770 C2771 1.387 . S
C2771 H2756 0.930 . S
C2771 C2766 1.390 . S
C2771 C2770 1.387 . S
H2772 C2784 0.930 . S
H2773 C2786 0.930 . S
H2774 C2787 0.930 . S
H2775 C2791 0.959 . S
H2776 C2791 0.959 . S
H2777 C2791 0.961 . S
H2778 C2792 0.960 . S
H2779 C2792 0.961 . S
H2780 C2792 0.959 . S
H2781 C2795 0.929 . S
H2782 C2796 0.931 . S
H2783 C2798 0.930 . S
C2784 H2772 0.930 . S
C2784 C2785 1.399 . S
C2784 C2789 1.399 . S
C2785 C2784 1.399 . S
C2785 C2786 1.376 . S
C2786 H2773 0.930 . S
C2786 C2785 1.376 . S
C2786 C2787 1.388 . S
C2787 H2774 0.930 . S
C2787 C2786 1.388 . S
C2787 C2788 1.390 . S
C2788 C2787 1.390 . S
C2788 C2789 1.394 . S
C2788 C2794 1.465 . S
C2789 C2784 1.399 . S
C2789 C2788 1.394 . S
C2789 C2790 1.516 . S
C2790 C2789 1.516 . S
C2790 C2791 1.502 . S
C2790 C2792 1.561 . S
C2790 C2793 1.526 . S
C2791 H2775 0.959 . S
C2791 H2776 0.959 . S
C2791 H2777 0.961 . S
C2791 C2790 1.502 . S
C2792 H2778 0.960 . S
C2792 H2779 0.961 . S
C2792 H2780 0.959 . S
C2792 C2790 1.561 . S
C2793 C2790 1.526 . S
C2793 C2794 1.396 . S
C2793 C2798 1.390 . S
C2794 C2788 1.465 . S
C2794 C2793 1.396 . S
C2794 C2795 1.399 . S
C2795 H2781 0.929 . S
C2795 C2794 1.399 . S
C2795 C2796 1.385 . S
C2796 H2782 0.931 . S
C2796 C2795 1.385 . S
C2796 C2797 1.389 . S
C2797 C2796 1.389 . S
C2797 C2798 1.387 . S
C2798 H2783 0.930 . S
C2798 C2793 1.390 . S
C2798 C2797 1.387 . S
H2799 C2811 0.930 . S
H2800 C2813 0.930 . S
H2801 C2814 0.930 . S
H2802 C2818 0.959 . S
H2803 C2818 0.959 . S
H2804 C2818 0.961 . S
H2805 C2819 0.960 . S
H2806 C2819 0.961 . S
H2807 C2819 0.959 . S
H2808 C2822 0.929 . S
H2809 C2823 0.931 . S
H2810 C2825 0.930 . S
C2811 H2799 0.930 . S
C2811 C2812 1.399 . S
C2811 C2816 1.399 . S
C2812 C2811 1.399 . S
C2812 C2813 1.376 . S
C2813 H2800 0.930 . S
C2813 C2812 1.376 . S
C2813 C2814 1.388 . S
C2814 H2801 0.930 . S
C2814 C2813 1.388 . S
C2814 C2815 1.390 . S
C2815 C2814 1.390 . S
C2815 C2816 1.394 . S
C2815 C2821 1.465 . S
C2816 C2811 1.399 . S
C2816 C2815 1.394 . S
C2816 C2817 1.516 . S
C2817 C2816 1.516 . S
C2817 C2818 1.502 . S
C2817 C2819 1.561 . S
C2817 C2820 1.526 . S
C2818 H2802 0.959 . S
C2818 H2803 0.959 . S
C2818 H2804 0.961 . S
C2818 C2817 1.502 . S
C2819 H2805 0.960 . S
C2819 H2806 0.961 . S
C2819 H2807 0.959 . S
C2819 C2817 1.561 . S
C2820 C2817 1.526 . S
C2820 C2821 1.396 . S
C2820 C2825 1.390 . S
C2821 C2815 1.465 . S
C2821 C2820 1.396 . S
C2821 C2822 1.399 . S
C2822 H2808 0.929 . S
C2822 C2821 1.399 . S
C2822 C2823 1.385 . S
C2823 H2809 0.931 . S
C2823 C2822 1.385 . S
C2823 C2824 1.389 . S
C2824 C2823 1.389 . S
C2824 C2825 1.387 . S
C2825 H2810 0.930 . S
C2825 C2820 1.390 . S
C2825 C2824 1.387 . S
H2826 C2838 0.930 . S
H2827 C2840 0.930 . S
H2828 C2841 0.930 . S
H2829 C2845 0.959 . S
H2830 C2845 0.959 . S
H2831 C2845 0.961 . S
H2832 C2846 0.960 . S
H2833 C2846 0.961 . S
H2834 C2846 0.959 . S
H2835 C2849 0.929 . S
H2836 C2850 0.931 . S
H2837 C2852 0.930 . S
C2838 H2826 0.930 . S
C2838 C2839 1.399 . S
C2838 C2843 1.399 . S
C2839 C2838 1.399 . S
C2839 C2840 1.376 . S
C2840 H2827 0.930 . S
C2840 C2839 1.376 . S
C2840 C2841 1.388 . S
C2841 H2828 0.930 . S
C2841 C2840 1.388 . S
C2841 C2842 1.390 . S
C2842 C2841 1.390 . S
C2842 C2843 1.394 . S
C2842 C2848 1.465 . S
C2843 C2838 1.399 . S
C2843 C2842 1.394 . S
C2843 C2844 1.516 . S
C2844 C2843 1.516 . S
C2844 C2845 1.502 . S
C2844 C2846 1.561 . S
C2844 C2847 1.526 . S
C2845 H2829 0.959 . S
C2845 H2830 0.959 . S
C2845 H2831 0.961 . S
C2845 C2844 1.502 . S
C2846 H2832 0.960 . S
C2846 H2833 0.961 . S
C2846 H2834 0.959 . S
C2846 C2844 1.561 . S
C2847 C2844 1.526 . S
C2847 C2848 1.396 . S
C2847 C2852 1.390 . S
C2848 C2842 1.465 . S
C2848 C2847 1.396 . S
C2848 C2849 1.399 . S
C2849 H2835 0.929 . S
C2849 C2848 1.399 . S
C2849 C2850 1.385 . S
C2850 H2836 0.931 . S
C2850 C2849 1.385 . S
C2850 C2851 1.389 . S
C2851 C2850 1.389 . S
C2851 C2852 1.387 . S
C2852 H2837 0.930 . S
C2852 C2847 1.390 . S
C2852 C2851 1.387 . S
H2853 C2865 0.930 . S
H2854 C2867 0.930 . S
H2855 C2868 0.930 . S
H2856 C2872 0.959 . S
H2857 C2872 0.959 . S
H2858 C2872 0.961 . S
H2859 C2873 0.960 . S
H2860 C2873 0.961 . S
H2861 C2873 0.959 . S
H2862 C2876 0.929 . S
H2863 C2877 0.931 . S
H2864 C2879 0.930 . S
C2865 H2853 0.930 . S
C2865 C2866 1.399 . S
C2865 C2870 1.399 . S
C2866 C2865 1.399 . S
C2866 C2867 1.376 . S
C2867 H2854 0.930 . S
C2867 C2866 1.376 . S
C2867 C2868 1.388 . S
C2868 H2855 0.930 . S
C2868 C2867 1.388 . S
C2868 C2869 1.390 . S
C2869 C2868 1.390 . S
C2869 C2870 1.394 . S
C2869 C2875 1.465 . S
C2870 C2865 1.399 . S
C2870 C2869 1.394 . S
C2870 C2871 1.516 . S
C2871 C2870 1.516 . S
C2871 C2872 1.502 . S
C2871 C2873 1.561 . S
C2871 C2874 1.526 . S
C2872 H2856 0.959 . S
C2872 H2857 0.959 . S
C2872 H2858 0.961 . S
C2872 C2871 1.502 . S
C2873 H2859 0.960 . S
C2873 H2860 0.961 . S
C2873 H2861 0.959 . S
C2873 C2871 1.561 . S
C2874 C2871 1.526 . S
C2874 C2875 1.396 . S
C2874 C2879 1.390 . S
C2875 C2869 1.465 . S
C2875 C2874 1.396 . S
C2875 C2876 1.399 . S
C2876 H2862 0.929 . S
C2876 C2875 1.399 . S
C2876 C2877 1.385 . S
C2877 H2863 0.931 . S
C2877 C2876 1.385 . S
C2877 C2878 1.389 . S
C2878 C2877 1.389 . S
C2878 C2879 1.387 . S
C2879 H2864 0.930 . S
C2879 C2874 1.390 . S
C2879 C2878 1.387 . S
C1165 C544 1.315 . S
C1177 C4 1.327 . S
C1192 C38 1.514 . S
C1204 C436 1.513 . S
C1219 C76 1.318 . S
C1231 C472 1.310 . S
C1246 C508 1.503 . S
C1258 C110 1.497 . S
C1273 C148 1.365 . S
C1285 C328 1.361 . S
C1300 C182 1.520 . S
C1312 C364 1.521 . S
C1327 C400 1.310 . S
C1339 C220 1.322 . S
C1354 C292 1.520 . S
C1366 C254 1.517 . S
C1381 C580 1.355 . S
C1393 C1120 1.356 . S
C1408 C614 1.518 . S
C1420 C1012 1.521 . S
C1435 C652 1.319 . S
C1447 C1048 1.313 . S
C1462 C1084 1.496 . S
C1474 C686 1.496 . S
C1489 C724 1.318 . S
C1501 C904 1.311 . S
C1516 C758 1.475 . S
C1528 C940 1.483 . S
C1543 C976 1.357 . S
C1555 C796 1.356 . S
C1570 C830 1.493 . S
C1582 C868 1.500 . S
C1597 C435 1.330 . S
C1609 C3 1.332 . S
C1624 C50 1.198 . S
C1636 C471 1.286 . S
C1651 C507 1.327 . S
C1663 C75 1.330 . S
C1678 C122 1.192 . S
C1690 C543 1.285 . S
C1705 C147 1.336 . S
C1717 C291 1.338 . S
C1732 C327 1.290 . S
C1744 C194 1.222 . S
C1759 C363 1.326 . S
C1771 C219 1.329 . S
C1786 C399 1.287 . S
C1798 C266 1.209 . S
C1813 C579 1.336 . S
C1825 C1011 1.338 . S
C1840 C1047 1.290 . S
C1852 C626 1.222 . S
C1867 C651 1.336 . S
C1879 C1083 1.338 . S
C1894 C698 1.194 . S
C1906 C1119 1.285 . S
C1921 C867 1.340 . S
C1933 C723 1.338 . S
C1948 C770 1.291 . S
C1960 C903 1.306 . S
C1975 C795 1.338 . S
C1987 C939 1.340 . S
C2002 C842 1.195 . S
C2014 C975 1.285 . S
C2029 C2 1.282 . S
C2041 C362 1.272 . S
C2056 C398 1.325 . S
C2068 C40 1.313 . S
C2083 C74 1.343 . S
C2095 C290 1.344 . S
C2110 C326 1.274 . S
C2122 C112 1.284 . S
C2137 C506 1.278 . S
C2149 C146 1.293 . S
C2164 C542 1.325 . S
C2176 C184 1.314 . S
C2191 C434 1.327 . S
C2203 C218 1.339 . S
C2218 C256 1.269 . S
C2230 C470 1.288 . S
C2245 C938 1.325 . S
C2257 C578 1.337 . S
C2272 C616 1.267 . S
C2284 C974 1.286 . S
C2299 C866 1.342 . S
C2311 C650 1.346 . S
C2326 C902 1.319 . S
C2338 C688 1.303 . S
C2353 C722 1.284 . S
C2365 C1082 1.272 . S
C2380 C760 1.268 . S
C2392 C1118 1.287 . S
C2407 C1010 1.292 . S
C2419 C794 1.288 . S
C2434 C1046 1.326 . S
C2446 C832 1.314 . S
C2461 C831 1.186 . S
C2473 C14 1.155 . S
C2488 C734 1.076 . S
C2500 C39 1.160 . S
C2515 C759 1.184 . S
C2527 C86 1.177 . S
C2542 C806 1.177 . S
C2554 C111 1.174 . S
C2569 C615 1.183 . S
C2581 C158 1.135 . S
C2596 C183 1.157 . S
C2608 C662 1.133 . S
C2623 C230 1.132 . S
C2635 C687 1.157 . S
C2650 C255 1.152 . S
C2662 C590 1.098 . S
C2677 C302 1.131 . S
C2689 C1130 1.168 . S
C2704 C1022 1.191 . S
C2716 C338 1.127 . S
C2731 C374 1.173 . S
C2743 C1058 1.210 . S
C2758 C410 1.110 . S
C2770 C1094 1.138 . S
C2785 C914 1.156 . S
C2797 C446 1.213 . S
C2812 C950 1.219 . S
C2824 C482 1.204 . S
C2839 C518 1.163 . S
C2851 C986 1.110 . S
C2866 C554 1.107 . S
C2878 C878 1.148 . S
