# Generated by pormake.
# Topology hcp, (12)-cn, num edge types: 1
# Building blocks:
#     Node 0, Type 0, BuildingBlock: EZIPEK_clean_sbu_0, # of connection points: 12
#     Node 1, Type 0, BuildingBlock: EZIPEK_clean_sbu_0, # of connection points: 12
#     Edge 2, Type (0, 0), BuildingBlock: CIFDUS_clean_linker_0, # of connection points: 2
#     Edge 3, Type (0, 0), BuildingBlock: CIFDUS_clean_linker_0, # of connection points: 2
#     Edge 4, Type (0, 0), BuildingBlock: CIFDUS_clean_linker_0, # of connection points: 2
#     Edge 5, Type (0, 0), BuildingBlock: CIFDUS_clean_linker_0, # of connection points: 2
#     Edge 6, Type (0, 0), BuildingBlock: CIFDUS_clean_linker_0, # of connection points: 2
#     Edge 7, Type (0, 0), BuildingBlock: CIFDUS_clean_linker_0, # of connection points: 2
#     Edge 8, Type (0, 0), BuildingBlock: CIFDUS_clean_linker_0, # of connection points: 2
#     Edge 9, Type (0, 0), BuildingBlock: CIFDUS_clean_linker_0, # of connection points: 2
#     Edge 10, Type (0, 0), BuildingBlock: CIFDUS_clean_linker_0, # of connection points: 2
#     Edge 11, Type (0, 0), BuildingBlock: CIFDUS_clean_linker_0, # of connection points: 2
#     Edge 12, Type (0, 0), BuildingBlock: CIFDUS_clean_linker_0, # of connection points: 2
#     Edge 13, Type (0, 0), BuildingBlock: CIFDUS_clean_linker_0, # of connection points: 2
# Relax obj value: 0.186
# Max RMSD: 0.270
# Mean RMSD: 0.270
data_MOF--net-hcp--node1-EZIPEK_clean_sbu_0--edge1-CIFDUS_clean_linker_0
_symmetry_space_group_name_H-M    P1
_symmetry_Int_Tables_number       1
_symmetry_cell_setting            triclinic
loop_
_symmetry_equiv_pos_as_xyz
'x, y, z'
_cell_length_a     16.939308
_cell_length_b     17.007071
_cell_length_c     25.814113
_cell_angle_alpha  90.896828
_cell_angle_beta   89.782044
_cell_angle_gamma 119.9406
loop_
_atom_site_label
_atom_site_type_symbol
_atom_site_fract_x
_atom_site_fract_y
_atom_site_fract_z
_atom_type_partial_charge
C0 C 0.67201 0.0677 0.29341 0.0
C1 C 0.85315 0.42747 0.16343 0.0
C2 C 0.48419 0.20478 0.44411 0.0
C3 C 0.64849 0.58932 0.31491 0.0
C4 C 0.38031 0.31887 0.31266 0.0
C5 C 0.53846 0.13568 0.15967 0.0
C6 C 0.71619 0.47346 0.45872 0.0
C7 C 0.92676 0.34369 0.28857 0.0
C8 C 0.92196 0.60076 0.31429 0.0
C9 C 0.56796 0.45149 0.16937 0.0
C10 C 0.76208 0.25484 0.43771 0.0
C11 C 0.39428 0.05936 0.28838 0.0
Eu12 Eu 0.71986 0.26145 0.23769 0.0
O13 O 0.65441 0.33784 0.21566 0.0
O14 O 0.72139 0.26352 0.32076 0.0
Eu15 Eu 0.51502 0.26861 0.24317 0.0
Eu16 Eu 0.79413 0.39583 0.35826 0.0
O17 O 0.58893 0.20459 0.27053 0.0
O18 O 0.78146 0.39291 0.2755 0.0
Eu19 Eu 0.58919 0.18324 0.35247 0.0
Eu20 Eu 0.72848 0.47398 0.24908 0.0
O21 O 0.52313 0.2569 0.32599 0.0
O22 O 0.59299 0.3964 0.28102 0.0
O23 O 0.71704 0.45526 0.332 0.0
O24 O 0.65532 0.31943 0.38275 0.0
Eu25 Eu 0.58036 0.38535 0.36415 0.0
O26 O 0.70896 0.12598 0.25461 0.0
O27 O 0.80635 0.33856 0.17085 0.0
O28 O 0.52395 0.29565 0.43917 0.0
O29 O 0.59908 0.52467 0.34906 0.0
O30 O 0.39707 0.28757 0.26865 0.0
O31 O 0.4938 0.17841 0.17376 0.0
O32 O 0.774 0.44581 0.44105 0.0
O33 O 0.9165 0.38828 0.3289 0.0
O34 O 0.86759 0.58945 0.27403 0.0
O35 O 0.65475 0.49829 0.1845 0.0
O36 O 0.67097 0.20934 0.43157 0.0
O37 O 0.45494 0.06515 0.32366 0.0
O38 O 0.65045 0.47251 0.43126 0.0
O39 O 0.43611 0.35238 0.35321 0.0
O40 O 0.86395 0.29339 0.25298 0.0
O41 O 0.62109 0.15634 0.17774 0.0
O42 O 0.83585 0.48819 0.18759 0.0
O43 O 0.70048 0.58424 0.27736 0.0
O44 O 0.62782 0.07729 0.33368 0.0
O45 O 0.47442 0.1515 0.40462 0.0
O46 O 0.40231 0.12551 0.2577 0.0
O47 O 0.5073 0.36766 0.18554 0.0
O48 O 0.81297 0.29199 0.39748 0.0
O49 O 0.90558 0.5401 0.35075 0.0
C50 C 0.28735 0.36967 0.79987 0.0
C51 C 0.1246 0.55659 0.65876 0.0
C52 C 0.48212 0.71214 0.95068 0.0
C53 C 0.34303 0.93179 0.80243 0.0
C54 C 0.26428 0.77004 0.94795 0.0
C55 C 0.0435 0.4027 0.8011 0.0
C56 C 0.60604 0.909 0.80047 0.0
C57 C 0.42486 0.55278 0.66418 0.0
C58 C 0.42359 0.85245 0.66275 0.0
C59 C 0.06508 0.68508 0.79675 0.0
C60 C 0.57133 0.6295 0.80272 0.0
C61 C 0.21033 0.50108 0.95053 0.0
Eu62 Eu 0.24412 0.51449 0.74145 0.0
O63 O 0.19188 0.59869 0.77242 0.0
O64 O 0.37663 0.58312 0.77425 0.0
Eu65 Eu 0.1813 0.60373 0.85523 0.0
Eu66 Eu 0.45953 0.71705 0.74301 0.0
O67 O 0.24055 0.52442 0.82528 0.0
O68 O 0.32045 0.65335 0.71496 0.0
Eu69 Eu 0.37269 0.57169 0.85713 0.0
Eu70 Eu 0.25791 0.73112 0.7414 0.0
O71 O 0.31956 0.65767 0.87862 0.0
O72 O 0.26772 0.73519 0.82507 0.0
O73 O 0.39306 0.78471 0.77371 0.0
O74 O 0.45136 0.70829 0.82666 0.0
Eu75 Eu 0.40506 0.7953 0.85673 0.0
O76 O 0.24964 0.38891 0.76056 0.0
O77 O 0.1516 0.50039 0.67573 0.0
O78 O 0.46819 0.77882 0.93353 0.0
O79 O 0.39226 0.91739 0.83732 0.0
O80 O 0.1973 0.68853 0.93077 0.0
O81 O 0.05878 0.46771 0.83591 0.0
O82 O 0.58585 0.8495 0.76172 0.0
O83 O 0.47343 0.64002 0.67681 0.0
O84 O 0.33912 0.82431 0.67826 0.0
O85 O 0.12357 0.72225 0.75805 0.0
O86 O 0.50786 0.5828 0.83806 0.0
O87 O 0.29125 0.51324 0.9339 0.0
O88 O 0.55087 0.90113 0.83948 0.0
O89 O 0.34107 0.82286 0.92353 0.0
O90 O 0.34038 0.49582 0.68256 0.0
O91 O 0.10169 0.40627 0.76472 0.0
O92 O 0.15763 0.64321 0.67527 0.0
O93 O 0.28946 0.87292 0.76573 0.0
O94 O 0.33287 0.42555 0.83937 0.0
O95 O 0.46086 0.63596 0.92537 0.0
O96 O 0.15559 0.5202 0.92422 0.0
O97 O 0.07465 0.64132 0.83639 0.0
O98 O 0.56663 0.68174 0.7661 0.0
O99 O 0.47699 0.81995 0.67942 0.0
H100 H 0.36816 0.77264 1.02525 0.0
H101 H 0.17755 0.85913 0.98477 0.0
H102 H 0.24678 0.98226 1.04977 0.0
H103 H 0.37819 0.08017 0.1066 0.0
H104 H 0.58092 0.00306 0.13693 0.0
H105 H 0.49324 0.86419 0.08556 0.0
C106 C 0.33907 0.81596 1.03246 0.0
C107 C 0.2664 0.80538 1.00089 0.0
C108 C 0.38521 0.8917 0.06589 0.0
C109 C 0.23126 0.86371 1.00951 0.0
C110 C 0.27289 0.93589 1.04562 0.0
C111 C 0.40364 0.0333 0.10201 0.0
C112 C 0.48767 0.0538 0.12515 0.0
C113 C 0.35293 0.95334 0.07193 0.0
C114 C 0.5181 0.99093 0.1189 0.0
C115 C 0.4672 0.91061 0.09002 0.0
H116 H 0.58795 0.65485 0.61498 0.0
H117 H 0.38252 0.37599 0.64086 0.0
H118 H 0.47532 0.32623 0.59287 0.0
H119 H 0.60339 0.36157 0.53204 0.0
H120 H 0.80293 0.64052 0.50449 0.0
H121 H 0.72561 0.68987 0.56597 0.0
C122 C 0.56197 0.58264 0.6099 0.0
C123 C 0.4757 0.51934 0.63073 0.0
C124 C 0.61549 0.5543 0.58193 0.0
C125 C 0.44617 0.42658 0.62406 0.0
C126 C 0.49972 0.39798 0.59659 0.0
C127 C 0.63257 0.4331 0.54144 0.0
C128 C 0.71014 0.49717 0.51365 0.0
C129 C 0.58344 0.46108 0.57421 0.0
C130 C 0.74546 0.58951 0.52592 0.0
C131 C 0.6992 0.61779 0.55995 0.0
H132 H 0.90995 0.32235 0.11239 0.0
H133 H 0.98388 0.60263 0.13825 0.0
H134 H 0.12001 0.65055 0.0849 0.0
H135 H 0.20882 0.6117 1.02428 0.0
H136 H 0.12579 0.33186 0.99261 0.0
H137 H 0.00604 0.28478 0.05817 0.0
C138 C 0.95528 0.39425 0.10661 0.0
C139 C 0.9346 0.45868 0.12888 0.0
C140 C 0.03368 0.42122 0.07622 0.0
C141 C -0.00384 0.55125 0.12104 0.0
C142 C 0.07476 0.5787 0.09096 0.0
C143 C 0.16703 0.54057 1.0335 0.0
C144 C 0.17748 0.4754 1.00415 0.0
C145 C 0.09351 0.51419 0.06788 0.0
C146 C 0.12135 0.38341 1.01553 0.0
C147 C 0.05109 0.35659 1.05198 0.0
H148 H 0.38513 0.98987 0.65576 0.0
H149 H 0.53661 0.87777 0.58118 0.0
H150 H 0.57054 0.98115 0.50893 0.0
H151 H 0.53859 0.08446 0.46305 0.0
H152 H 0.39841 0.20893 0.53578 0.0
H153 H 0.37427 0.11554 0.61315 0.0
C154 C 0.42672 0.98902 0.62394 0.0
C155 C 0.45744 0.92503 0.62343 0.0
C156 C 0.44654 0.04948 0.58263 0.0
C157 C 0.51226 0.9258 0.58253 0.0
C158 C 0.53098 0.98449 0.54112 0.0
C159 C 0.50834 0.09703 0.49677 0.0
C160 C 0.47634 0.15962 0.49469 0.0
C161 C 0.49657 0.04463 0.54037 0.0
C162 C 0.42857 0.166 0.53746 0.0
C163 C 0.4137 0.11134 0.58117 0.0
H164 H 0.6726 0.6106 0.11759 0.0
H165 H 0.39256 0.40441 0.143 0.0
H166 H 0.34152 0.4862 0.08798 0.0
H167 H 0.37642 0.607 1.0259 0.0
H168 H 0.65513 0.80128 0.99132 0.0
H169 H 0.70681 0.73761 0.05925 0.0
C170 C 0.60024 0.58323 0.11132 0.0
C171 C 0.53669 0.49992 0.13411 0.0
C172 C 0.5712 0.63039 0.07906 0.0
C173 C 0.44333 0.46685 0.12544 0.0
C174 C 0.41397 0.51429 0.09436 0.0
C175 C 0.44841 0.63789 1.03487 0.0
C176 C 0.51177 0.71022 1.00426 0.0
C177 C 0.47728 0.59534 0.07043 0.0
C178 C 0.6049 0.74784 1.01526 0.0
C179 C 0.63432 0.70951 1.05315 0.0
H180 H 0.90965 0.42133 0.44971 0.0
H181 H 0.72677 0.18849 0.53966 0.0
H182 H 0.82187 0.26341 0.61728 0.0
H183 H 0.96414 0.39379 0.65724 0.0
H184 H 0.12856 0.63066 0.56566 0.0
H185 H 0.03006 0.556 0.4906 0.0
C186 C 0.88804 0.38623 0.48622 0.0
C187 C 0.80999 0.29813 0.48815 0.0
C188 C 0.93968 0.43136 0.53037 0.0
C189 C 0.78559 0.25576 0.5365 0.0
C190 C 0.84025 0.2989 0.58085 0.0
C191 C 0.97711 0.42954 0.621 0.0
C192 C 0.05435 0.51794 0.61687 0.0
C193 C 0.9183 0.3865 0.57802 0.0
C194 C 0.06992 0.56351 0.56997 0.0
C195 C 0.01395 0.52032 0.52698 0.0
H196 H 0.59325 0.92409 0.35809 0.0
H197 H 0.76658 0.02385 0.22354 0.0
H198 H 0.77472 0.88489 0.21883 0.0
H199 H 0.7315 0.73528 0.25198 0.0
H200 H 0.55752 0.63518 0.38631 0.0
H201 H 0.55113 0.77498 0.39172 0.0
C202 C 0.63326 0.91598 0.32779 0.0
C203 C 0.6792 0.98462 0.29125 0.0
C204 C 0.63747 0.8359 0.32511 0.0
C205 C 0.73029 0.97226 0.25218 0.0
C206 C 0.73506 0.89277 0.24941 0.0
C207 C 0.69225 0.74372 0.28262 0.0
C208 C 0.64513 0.67444 0.31867 0.0
C209 C 0.68866 0.82411 0.28556 0.0
C210 C 0.59453 0.68709 0.35794 0.0
C211 C 0.59079 0.7671 0.36114 0.0
H212 H 0.90565 0.57429 0.844 0.0
H213 H 0.03522 0.80445 0.74279 0.0
H214 H 0.89238 0.80567 0.73469 0.0
H215 H 0.73173 0.74126 0.75604 0.0
H216 H 0.60183 0.51032 0.8569 0.0
H217 H 0.74471 0.50966 0.86526 0.0
C218 C 0.90295 0.62533 0.82058 0.0
C219 C 0.9807 0.68929 0.79417 0.0
C220 C 0.82075 0.62515 0.81571 0.0
C221 C 0.97595 0.75421 0.76336 0.0
C222 C 0.89445 0.75498 0.75868 0.0
C223 C 0.73423 0.69025 0.77957 0.0
C224 C 0.65622 0.62599 0.80577 0.0
C225 C 0.81642 0.69042 0.78445 0.0
C226 C 0.66104 0.56091 0.83646 0.0
C227 C 0.74266 0.56042 0.84132 0.0
H228 H 0.30648 0.93905 0.36424 0.0
H229 H 0.28846 0.98785 0.20233 0.0
H230 H 0.13907 0.85088 0.19617 0.0
H231 H 0.01252 0.71916 0.23734 0.0
H232 H 0.03007 0.67215 0.39981 0.0
H233 H 0.18036 0.80712 0.40525 0.0
C234 C 0.2702 0.919 0.32752 0.0
C235 C 0.30806 0.97303 0.28386 0.0
C236 C 0.18383 0.84132 0.3245 0.0
C237 C 0.26012 0.94728 0.23658 0.0
C238 C 0.17475 0.8692 0.23304 0.0
C239 C 0.04878 0.73896 0.27405 0.0
C240 C 0.00999 0.68591 0.31806 0.0
C241 C 0.13548 0.81634 0.27693 0.0
C242 C 0.05846 0.71174 0.36523 0.0
C243 C 0.14452 0.78881 0.36843 0.0
H244 H 0.39912 0.32162 0.84728 0.0
H245 H 0.16415 0.21805 0.74649 0.0
H246 H 0.16212 0.07407 0.73734 0.0
H247 H 0.22803 0.97858 0.75702 0.0
H248 H 0.46408 0.08305 0.85727 0.0
H249 H 0.46461 0.22587 0.86728 0.0
C250 C 0.34679 0.2672 0.82382 0.0
C251 C 0.28184 0.28041 0.79775 0.0
C252 C 0.34661 0.18506 0.81818 0.0
C253 C 0.21523 0.20968 0.76685 0.0
C254 C 0.21402 0.12737 0.76151 0.0
C255 C 0.28004 0.03269 0.78079 0.0
C256 C 0.34584 0.01988 0.80628 0.0
C257 C 0.27987 0.11464 0.78665 0.0
C258 C 0.41224 0.09069 0.83729 0.0
C259 C 0.41267 0.17252 0.84314 0.0
H260 H 0.27251 0.31407 0.23378 0.0
H261 H 0.29755 0.33076 0.40065 0.0
H262 H 0.16274 0.3465 0.40753 0.0
H263 H 0.03729 0.35453 0.36649 0.0
H264 H 0.00909 0.33382 0.20006 0.0
H265 H 0.14659 0.32203 0.19261 0.0
C266 C 0.24789 0.32014 0.27165 0.0
C267 C 0.29477 0.32104 0.31655 0.0
C268 C 0.1706 0.32966 0.27542 0.0
C269 C 0.26279 0.33019 0.36538 0.0
C270 C 0.18584 0.33939 0.36944 0.0
C271 C 0.06207 0.34865 0.32862 0.0
C272 C 0.01388 0.34543 0.28392 0.0
C273 C 0.1396 0.33974 0.32474 0.0
C274 C 0.04543 0.33629 0.23502 0.0
C275 C 0.12368 0.32921 0.23074 0.0
H276 H -0.003 0.23841 0.75782 0.0
H277 H 0.89194 0.37584 0.85364 0.0
H278 H 0.7492 0.23405 0.86396 0.0
H279 H 0.65384 0.07162 0.84555 0.0
H280 H 0.75775 0.93426 0.74904 0.0
H281 H 0.90172 0.0758 0.73959 0.0
C282 C 0.94272 0.23766 0.78064 0.0
C283 C 0.95531 0.31773 0.80484 0.0
C284 C 0.86087 0.15587 0.78669 0.0
C285 C 0.8844 0.31516 0.83469 0.0
C286 C 0.80265 0.23409 0.84071 0.0
C287 C 0.70835 0.07238 0.82296 0.0
C288 C 0.6953 0.99267 0.79818 0.0
C289 C 0.79035 0.15403 0.8171 0.0
C290 C 0.76607 -0.00504 0.76839 0.0
C291 C 0.84833 0.0758 0.76288 0.0
loop_
_geom_bond_atom_site_label_1
_geom_bond_atom_site_label_2
_geom_bond_distance
_geom_bond_site_symmetry_2
_ccdc_geom_bond_type
C0 O26 1.283 . S
C0 O44 1.283 . S
C1 O27 1.283 . S
C1 O42 1.283 . S
C2 O28 1.283 . S
C2 O45 1.283 . S
C3 O29 1.283 . S
C3 O43 1.283 . S
C4 O30 1.283 . S
C4 O39 1.283 . S
C5 O31 1.283 . S
C5 O41 1.283 . S
C6 O32 1.283 . S
C6 O38 1.283 . S
C7 O33 1.283 . S
C7 O40 1.283 . S
C8 O34 1.283 . S
C8 O49 1.283 . S
C9 O35 1.283 . S
C9 O47 1.283 . S
C10 O36 1.283 . S
C10 O48 1.283 . S
C11 O37 1.283 . S
C11 O46 1.283 . S
Eu12 O13 2.370 . S
Eu12 O14 2.370 . S
Eu12 O17 2.370 . S
Eu12 O18 2.370 . S
Eu12 O26 2.363 . S
Eu12 O27 2.363 . S
Eu12 O40 2.363 . S
Eu12 O41 2.363 . S
O13 Eu12 2.370 . S
O13 Eu15 2.370 . S
O13 Eu20 2.370 . S
O14 Eu12 2.370 . S
O14 Eu16 2.370 . S
O14 Eu19 2.370 . S
Eu15 O13 2.370 . S
Eu15 O17 2.370 . S
Eu15 O21 2.370 . S
Eu15 O22 2.370 . S
Eu15 O30 2.363 . S
Eu15 O31 2.363 . S
Eu15 O46 2.363 . S
Eu15 O47 2.363 . S
Eu16 O14 2.370 . S
Eu16 O18 2.370 . S
Eu16 O23 2.370 . S
Eu16 O24 2.370 . S
Eu16 O32 2.363 . S
Eu16 O33 2.363 . S
Eu16 O48 2.363 . S
Eu16 O49 2.363 . S
O17 Eu12 2.370 . S
O17 Eu15 2.370 . S
O17 Eu19 2.370 . S
O18 Eu12 2.370 . S
O18 Eu16 2.370 . S
O18 Eu20 2.370 . S
Eu19 O14 2.370 . S
Eu19 O17 2.370 . S
Eu19 O21 2.370 . S
Eu19 O24 2.370 . S
Eu19 O36 2.363 . S
Eu19 O37 2.363 . S
Eu19 O44 2.363 . S
Eu19 O45 2.363 . S
Eu20 O13 2.370 . S
Eu20 O18 2.370 . S
Eu20 O22 2.370 . S
Eu20 O23 2.370 . S
Eu20 O34 2.363 . S
Eu20 O35 2.363 . S
Eu20 O42 2.363 . S
Eu20 O43 2.363 . S
O21 Eu15 2.370 . S
O21 Eu19 2.370 . S
O21 Eu25 2.370 . S
O22 Eu15 2.370 . S
O22 Eu20 2.370 . S
O22 Eu25 2.370 . S
O23 Eu16 2.370 . S
O23 Eu20 2.370 . S
O23 Eu25 2.370 . S
O24 Eu16 2.370 . S
O24 Eu19 2.370 . S
O24 Eu25 2.370 . S
Eu25 O21 2.370 . S
Eu25 O22 2.370 . S
Eu25 O23 2.370 . S
Eu25 O24 2.370 . S
Eu25 O28 2.363 . S
Eu25 O29 2.363 . S
Eu25 O38 2.363 . S
Eu25 O39 2.363 . S
O26 C0 1.283 . S
O26 Eu12 2.363 . S
O27 C1 1.283 . S
O27 Eu12 2.363 . S
O28 C2 1.283 . S
O28 Eu25 2.363 . S
O29 C3 1.283 . S
O29 Eu25 2.363 . S
O30 C4 1.283 . S
O30 Eu15 2.363 . S
O31 C5 1.283 . S
O31 Eu15 2.363 . S
O32 C6 1.283 . S
O32 Eu16 2.363 . S
O33 C7 1.283 . S
O33 Eu16 2.363 . S
O34 C8 1.283 . S
O34 Eu20 2.363 . S
O35 C9 1.283 . S
O35 Eu20 2.363 . S
O36 C10 1.283 . S
O36 Eu19 2.363 . S
O37 C11 1.283 . S
O37 Eu19 2.363 . S
O38 C6 1.283 . S
O38 Eu25 2.363 . S
O39 C4 1.283 . S
O39 Eu25 2.363 . S
O40 C7 1.283 . S
O40 Eu12 2.363 . S
O41 C5 1.283 . S
O41 Eu12 2.363 . S
O42 C1 1.283 . S
O42 Eu20 2.363 . S
O43 C3 1.283 . S
O43 Eu20 2.363 . S
O44 C0 1.283 . S
O44 Eu19 2.363 . S
O45 C2 1.283 . S
O45 Eu19 2.363 . S
O46 C11 1.283 . S
O46 Eu15 2.363 . S
O47 C9 1.283 . S
O47 Eu15 2.363 . S
O48 C10 1.283 . S
O48 Eu16 2.363 . S
O49 C8 1.283 . S
O49 Eu16 2.363 . S
C50 O76 1.283 . S
C50 O94 1.283 . S
C51 O77 1.283 . S
C51 O92 1.283 . S
C52 O78 1.283 . S
C52 O95 1.283 . S
C53 O79 1.283 . S
C53 O93 1.283 . S
C54 O80 1.283 . S
C54 O89 1.283 . S
C55 O81 1.283 . S
C55 O91 1.283 . S
C56 O82 1.283 . S
C56 O88 1.283 . S
C57 O83 1.283 . S
C57 O90 1.283 . S
C58 O84 1.283 . S
C58 O99 1.283 . S
C59 O85 1.283 . S
C59 O97 1.283 . S
C60 O86 1.283 . S
C60 O98 1.283 . S
C61 O87 1.283 . S
C61 O96 1.283 . S
Eu62 O63 2.370 . S
Eu62 O64 2.370 . S
Eu62 O67 2.370 . S
Eu62 O68 2.370 . S
Eu62 O76 2.363 . S
Eu62 O77 2.363 . S
Eu62 O90 2.363 . S
Eu62 O91 2.363 . S
O63 Eu62 2.370 . S
O63 Eu65 2.370 . S
O63 Eu70 2.370 . S
O64 Eu62 2.370 . S
O64 Eu66 2.370 . S
O64 Eu69 2.370 . S
Eu65 O63 2.370 . S
Eu65 O67 2.370 . S
Eu65 O71 2.370 . S
Eu65 O72 2.370 . S
Eu65 O80 2.363 . S
Eu65 O81 2.363 . S
Eu65 O96 2.363 . S
Eu65 O97 2.363 . S
Eu66 O64 2.370 . S
Eu66 O68 2.370 . S
Eu66 O73 2.370 . S
Eu66 O74 2.370 . S
Eu66 O82 2.363 . S
Eu66 O83 2.363 . S
Eu66 O98 2.363 . S
Eu66 O99 2.363 . S
O67 Eu62 2.370 . S
O67 Eu65 2.370 . S
O67 Eu69 2.370 . S
O68 Eu62 2.370 . S
O68 Eu66 2.370 . S
O68 Eu70 2.370 . S
Eu69 O64 2.370 . S
Eu69 O67 2.370 . S
Eu69 O71 2.370 . S
Eu69 O74 2.370 . S
Eu69 O86 2.363 . S
Eu69 O87 2.363 . S
Eu69 O94 2.363 . S
Eu69 O95 2.363 . S
Eu70 O63 2.370 . S
Eu70 O68 2.370 . S
Eu70 O72 2.370 . S
Eu70 O73 2.370 . S
Eu70 O84 2.363 . S
Eu70 O85 2.363 . S
Eu70 O92 2.363 . S
Eu70 O93 2.363 . S
O71 Eu65 2.370 . S
O71 Eu69 2.370 . S
O71 Eu75 2.370 . S
O72 Eu65 2.370 . S
O72 Eu70 2.370 . S
O72 Eu75 2.370 . S
O73 Eu66 2.370 . S
O73 Eu70 2.370 . S
O73 Eu75 2.370 . S
O74 Eu66 2.370 . S
O74 Eu69 2.370 . S
O74 Eu75 2.370 . S
Eu75 O71 2.370 . S
Eu75 O72 2.370 . S
Eu75 O73 2.370 . S
Eu75 O74 2.370 . S
Eu75 O78 2.363 . S
Eu75 O79 2.363 . S
Eu75 O88 2.363 . S
Eu75 O89 2.363 . S
O76 C50 1.283 . S
O76 Eu62 2.363 . S
O77 C51 1.283 . S
O77 Eu62 2.363 . S
O78 C52 1.283 . S
O78 Eu75 2.363 . S
O79 C53 1.283 . S
O79 Eu75 2.363 . S
O80 C54 1.283 . S
O80 Eu65 2.363 . S
O81 C55 1.283 . S
O81 Eu65 2.363 . S
O82 C56 1.283 . S
O82 Eu66 2.363 . S
O83 C57 1.283 . S
O83 Eu66 2.363 . S
O84 C58 1.283 . S
O84 Eu70 2.363 . S
O85 C59 1.283 . S
O85 Eu70 2.363 . S
O86 C60 1.283 . S
O86 Eu69 2.363 . S
O87 C61 1.283 . S
O87 Eu69 2.363 . S
O88 C56 1.283 . S
O88 Eu75 2.363 . S
O89 C54 1.283 . S
O89 Eu75 2.363 . S
O90 C57 1.283 . S
O90 Eu62 2.363 . S
O91 C55 1.283 . S
O91 Eu62 2.363 . S
O92 C51 1.283 . S
O92 Eu70 2.363 . S
O93 C53 1.283 . S
O93 Eu70 2.363 . S
O94 C50 1.283 . S
O94 Eu69 2.363 . S
O95 C52 1.283 . S
O95 Eu69 2.363 . S
O96 C61 1.283 . S
O96 Eu65 2.363 . S
O97 C59 1.283 . S
O97 Eu65 2.363 . S
O98 C60 1.283 . S
O98 Eu66 2.363 . S
O99 C58 1.283 . S
O99 Eu66 2.363 . S
H100 C106 0.930 . S
H101 C109 0.930 . S
H102 C110 0.930 . S
H103 C111 0.930 . S
H104 C114 0.930 . S
H105 C115 0.930 . S
C106 H100 0.930 . S
C106 C107 1.355 . S
C106 C108 1.415 . S
C107 C106 1.355 . S
C107 C109 1.419 . S
C108 C106 1.415 . S
C108 C113 1.425 1_556 S
C108 C115 1.409 1_565 S
C109 H101 0.930 . S
C109 C107 1.419 . S
C109 C110 1.362 1_556 S
C110 H102 0.930 . S
C110 C109 1.362 1_554 S
C110 C113 1.409 . S
C111 H103 0.930 . S
C111 C112 1.355 1_565 S
C111 C113 1.415 . S
C112 C111 1.355 1_545 S
C112 C114 1.419 . S
C113 C108 1.425 1_554 S
C113 C110 1.409 . S
C113 C111 1.415 . S
C114 H104 0.930 . S
C114 C112 1.419 . S
C114 C115 1.362 1_554 S
C115 H105 0.930 . S
C115 C108 1.409 1_545 S
C115 C114 1.362 1_556 S
H116 C122 0.930 . S
H117 C125 0.930 . S
H118 C126 0.930 . S
H119 C127 0.930 . S
H120 C130 0.930 . S
H121 C131 0.930 . S
C122 H116 0.930 . S
C122 C123 1.355 . S
C122 C124 1.415 . S
C123 C122 1.355 . S
C123 C125 1.419 . S
C124 C122 1.415 . S
C124 C129 1.425 . S
C124 C131 1.409 . S
C125 H117 0.930 . S
C125 C123 1.419 . S
C125 C126 1.362 . S
C126 H118 0.930 . S
C126 C125 1.362 . S
C126 C129 1.409 . S
C127 H119 0.930 . S
C127 C128 1.355 . S
C127 C129 1.415 . S
C128 C127 1.355 . S
C128 C130 1.419 . S
C129 C124 1.425 . S
C129 C126 1.409 . S
C129 C127 1.415 . S
C130 H120 0.930 . S
C130 C128 1.419 . S
C130 C131 1.362 . S
C131 H121 0.930 . S
C131 C124 1.409 . S
C131 C130 1.362 . S
H132 C138 0.930 . S
H133 C141 0.930 . S
H134 C142 0.930 1_556 S
H135 C143 0.930 . S
H136 C146 0.930 . S
H137 C147 0.930 1_554 S
C138 H132 0.930 . S
C138 C139 1.355 1_455 S
C138 C140 1.415 . S
C139 C138 1.355 1_655 S
C139 C141 1.419 . S
C140 C138 1.415 . S
C140 C145 1.425 1_554 S
C140 C147 1.409 1_554 S
C141 H133 0.930 . S
C141 C139 1.419 . S
C141 C142 1.362 . S
C142 H134 0.930 1_554 S
C142 C141 1.362 . S
C142 C145 1.409 1_654 S
C143 H135 0.930 . S
C143 C144 1.355 . S
C143 C145 1.415 . S
C144 C143 1.355 . S
C144 C146 1.419 . S
C145 C140 1.425 1_556 S
C145 C142 1.409 1_456 S
C145 C143 1.415 . S
C146 H136 0.930 . S
C146 C144 1.419 . S
C146 C147 1.362 . S
C147 H137 0.930 1_556 S
C147 C140 1.409 1_556 S
C147 C146 1.362 . S
H148 C154 0.930 . S
H149 C157 0.930 . S
H150 C158 0.930 . S
H151 C159 0.930 . S
H152 C162 0.930 . S
H153 C163 0.930 . S
C154 H148 0.930 . S
C154 C155 1.355 1_545 S
C154 C156 1.415 . S
C155 C154 1.355 1_565 S
C155 C157 1.419 . S
C156 C154 1.415 . S
C156 C161 1.425 . S
C156 C163 1.409 . S
C157 H149 0.930 . S
C157 C155 1.419 . S
C157 C158 1.362 . S
C158 H150 0.930 . S
C158 C157 1.362 . S
C158 C161 1.409 1_565 S
C159 H151 0.930 . S
C159 C160 1.355 . S
C159 C161 1.415 . S
C160 C159 1.355 . S
C160 C162 1.419 . S
C161 C156 1.425 . S
C161 C158 1.409 1_545 S
C161 C159 1.415 . S
C162 H152 0.930 . S
C162 C160 1.419 . S
C162 C163 1.362 . S
C163 H153 0.930 . S
C163 C156 1.409 . S
C163 C162 1.362 . S
H164 C170 0.930 . S
H165 C173 0.930 . S
H166 C174 0.930 . S
H167 C175 0.930 . S
H168 C178 0.930 . S
H169 C179 0.930 . S
C170 H164 0.930 . S
C170 C171 1.355 . S
C170 C172 1.415 1_554 S
C171 C170 1.355 . S
C171 C173 1.419 . S
C172 C170 1.415 1_556 S
C172 C177 1.425 1_556 S
C172 C179 1.409 . S
C173 H165 0.930 . S
C173 C171 1.419 . S
C173 C174 1.362 . S
C174 H166 0.930 . S
C174 C173 1.362 . S
C174 C177 1.409 . S
C175 H167 0.930 . S
C175 C176 1.355 . S
C175 C177 1.415 1_556 S
C176 C175 1.355 . S
C176 C178 1.419 . S
C177 C172 1.425 1_554 S
C177 C174 1.409 . S
C177 C175 1.415 1_554 S
C178 H168 0.930 . S
C178 C176 1.419 . S
C178 C179 1.362 . S
C179 H169 0.930 . S
C179 C172 1.409 . S
C179 C178 1.362 . S
H180 C186 0.930 . S
H181 C189 0.930 . S
H182 C190 0.930 . S
H183 C191 0.935 . S
H184 C194 0.930 . S
H185 C195 0.930 . S
C186 H180 0.930 . S
C186 C187 1.355 . S
C186 C188 1.415 . S
C187 C186 1.355 . S
C187 C189 1.419 . S
C188 C186 1.415 . S
C188 C193 1.425 . S
C188 C195 1.409 1_655 S
C189 H181 0.930 . S
C189 C187 1.419 . S
C189 C190 1.362 . S
C190 H182 0.930 . S
C190 C189 1.362 . S
C190 C193 1.409 . S
C191 H183 0.935 . S
C191 C192 1.348 1_655 S
C191 C193 1.416 . S
C192 C191 1.348 1_455 S
C192 C194 1.419 . S
C193 C188 1.425 . S
C193 C190 1.409 . S
C193 C191 1.416 . S
C194 H184 0.930 . S
C194 C192 1.419 . S
C194 C195 1.362 . S
C195 H185 0.930 . S
C195 C188 1.409 1_455 S
C195 C194 1.362 . S
H196 C202 0.930 . S
H197 C205 0.930 1_545 S
H198 C206 0.930 . S
H199 C207 0.930 . S
H200 C210 0.930 . S
H201 C211 0.930 . S
C202 H196 0.930 . S
C202 C203 1.355 1_565 S
C202 C204 1.415 . S
C203 C202 1.355 1_545 S
C203 C205 1.419 1_545 S
C204 C202 1.415 . S
C204 C209 1.425 . S
C204 C211 1.409 . S
C205 H197 0.930 1_565 S
C205 C203 1.419 1_565 S
C205 C206 1.362 . S
C206 H198 0.930 . S
C206 C205 1.362 . S
C206 C209 1.409 . S
C207 H199 0.930 . S
C207 C208 1.355 . S
C207 C209 1.415 . S
C208 C207 1.355 . S
C208 C210 1.419 . S
C209 C204 1.425 . S
C209 C206 1.409 . S
C209 C207 1.415 . S
C210 H200 0.930 . S
C210 C208 1.419 . S
C210 C211 1.362 . S
C211 H201 0.930 . S
C211 C204 1.409 . S
C211 C210 1.362 . S
H212 C218 0.930 . S
H213 C221 0.930 1_455 S
H214 C222 0.930 . S
H215 C223 0.930 . S
H216 C226 0.930 . S
H217 C227 0.930 . S
C218 H212 0.930 . S
C218 C219 1.355 1_655 S
C218 C220 1.415 . S
C219 C218 1.355 1_455 S
C219 C221 1.419 1_455 S
C220 C218 1.415 . S
C220 C225 1.425 . S
C220 C227 1.409 . S
C221 H213 0.930 1_655 S
C221 C219 1.419 1_655 S
C221 C222 1.362 . S
C222 H214 0.930 . S
C222 C221 1.362 . S
C222 C225 1.409 . S
C223 H215 0.930 . S
C223 C224 1.355 . S
C223 C225 1.415 . S
C224 C223 1.355 . S
C224 C226 1.419 . S
C225 C220 1.425 . S
C225 C222 1.409 . S
C225 C223 1.415 . S
C226 H216 0.930 . S
C226 C224 1.419 . S
C226 C227 1.362 . S
C227 H217 0.930 . S
C227 C220 1.409 . S
C227 C226 1.362 . S
H228 C234 0.930 . S
H229 C237 0.930 . S
H230 C238 0.930 . S
H231 C239 0.930 . S
H232 C242 0.930 1_655 S
H233 C243 0.930 . S
C234 H228 0.930 . S
C234 C235 1.355 . S
C234 C236 1.415 . S
C235 C234 1.355 . S
C235 C237 1.419 . S
C236 C234 1.415 . S
C236 C241 1.425 . S
C236 C243 1.409 . S
C237 H229 0.930 . S
C237 C235 1.419 . S
C237 C238 1.362 . S
C238 H230 0.930 . S
C238 C237 1.362 . S
C238 C241 1.409 . S
C239 H231 0.930 . S
C239 C240 1.356 . S
C239 C241 1.415 . S
C240 C239 1.356 . S
C240 C242 1.420 . S
C241 C236 1.425 . S
C241 C238 1.409 . S
C241 C239 1.415 . S
C242 H232 0.930 1_455 S
C242 C240 1.420 . S
C242 C243 1.362 . S
C243 H233 0.930 . S
C243 C236 1.409 . S
C243 C242 1.362 . S
H244 C250 0.930 . S
H245 C253 0.930 . S
H246 C254 0.930 . S
H247 C255 0.930 . S
H248 C258 0.930 1_565 S
H249 C259 0.930 . S
C250 H244 0.930 . S
C250 C251 1.355 . S
C250 C252 1.415 . S
C251 C250 1.355 . S
C251 C253 1.419 . S
C252 C250 1.415 . S
C252 C257 1.425 . S
C252 C259 1.409 . S
C253 H245 0.930 . S
C253 C251 1.419 . S
C253 C254 1.362 . S
C254 H246 0.930 . S
C254 C253 1.362 . S
C254 C257 1.409 . S
C255 H247 0.930 . S
C255 C256 1.355 . S
C255 C257 1.415 . S
C256 C255 1.355 . S
C256 C258 1.419 . S
C257 C252 1.425 . S
C257 C254 1.409 . S
C257 C255 1.415 . S
C258 H248 0.930 1_545 S
C258 C256 1.419 . S
C258 C259 1.362 . S
C259 H249 0.930 . S
C259 C252 1.409 . S
C259 C258 1.362 . S
H260 C266 0.930 . S
H261 C269 0.930 . S
H262 C270 0.930 . S
H263 C271 0.930 . S
H264 C274 0.930 . S
H265 C275 0.930 . S
C266 H260 0.930 . S
C266 C267 1.355 . S
C266 C268 1.415 . S
C267 C266 1.355 . S
C267 C269 1.419 . S
C268 C266 1.415 . S
C268 C273 1.425 . S
C268 C275 1.409 . S
C269 H261 0.930 . S
C269 C267 1.419 . S
C269 C270 1.362 . S
C270 H262 0.930 . S
C270 C269 1.362 . S
C270 C273 1.409 . S
C271 H263 0.930 . S
C271 C272 1.355 . S
C271 C273 1.415 . S
C272 C271 1.355 . S
C272 C274 1.419 . S
C273 C268 1.425 . S
C273 C270 1.409 . S
C273 C271 1.415 . S
C274 H264 0.930 . S
C274 C272 1.419 . S
C274 C275 1.362 . S
C275 H265 0.930 . S
C275 C268 1.409 . S
C275 C274 1.362 . S
H276 C282 0.930 1_455 S
H277 C285 0.930 . S
H278 C286 0.930 . S
H279 C287 0.930 . S
H280 C290 0.930 1_565 S
H281 C291 0.930 . S
C282 H276 0.930 1_655 S
C282 C283 1.355 . S
C282 C284 1.415 . S
C283 C282 1.355 . S
C283 C285 1.419 . S
C284 C282 1.415 . S
C284 C289 1.425 . S
C284 C291 1.409 . S
C285 H277 0.930 . S
C285 C283 1.419 . S
C285 C286 1.362 . S
C286 H278 0.930 . S
C286 C285 1.362 . S
C286 C289 1.409 . S
C287 H279 0.930 . S
C287 C288 1.355 1_545 S
C287 C289 1.415 . S
C288 C287 1.355 1_565 S
C288 C290 1.419 1_565 S
C289 C284 1.425 . S
C289 C286 1.409 . S
C289 C287 1.415 . S
C290 H280 0.930 1_545 S
C290 C288 1.419 1_545 S
C290 C291 1.362 . S
C291 H281 0.930 . S
C291 C284 1.409 . S
C291 C290 1.362 . S
C107 C54 1.887 . S
C112 C5 2.020 . S
C123 C57 2.016 . S
C128 C6 1.870 . S
C139 C1 2.000 . S
C144 C61 1.851 . S
C155 C58 1.993 . S
C160 C2 1.837 . S
C171 C9 2.001 . S
C176 C52 1.841 . S
C187 C10 1.834 . S
C192 C51 1.992 . S
C203 C0 1.198 . S
C208 C3 1.198 . S
C219 C59 1.200 . S
C224 C60 1.200 . S
C235 C11 1.185 1_565 S
C240 C8 1.184 1_455 S
C251 C50 1.148 . S
C256 C53 1.148 1_545 S
C267 C4 1.168 . S
C272 C7 1.168 1_455 S
C283 C55 1.201 1_655 S
C288 C56 1.201 . S
