# Generated by pormake.
# Topology gie, (4)-cn, num edge types: 1
# Building blocks:
#     Node 0, Type 0, BuildingBlock: NAWXER_clean_sbu_0, # of connection points: 4
#     Node 1, Type 0, BuildingBlock: NAWXER_clean_sbu_0, # of connection points: 4
#     Node 2, Type 0, BuildingBlock: NAWXER_clean_sbu_0, # of connection points: 4
#     Node 3, Type 0, BuildingBlock: NAWXER_clean_sbu_0, # of connection points: 4
#     Node 4, Type 0, BuildingBlock: NAWXER_clean_sbu_0, # of connection points: 4
#     Node 5, Type 0, BuildingBlock: NAWXER_clean_sbu_0, # of connection points: 4
#     Node 6, Type 0, BuildingBlock: NAWXER_clean_sbu_0, # of connection points: 4
#     Node 7, Type 0, BuildingBlock: NAWXER_clean_sbu_0, # of connection points: 4
#     Node 8, Type 0, BuildingBlock: NAWXER_clean_sbu_0, # of connection points: 4
#     Node 9, Type 0, BuildingBlock: NAWXER_clean_sbu_0, # of connection points: 4
#     Node 10, Type 0, BuildingBlock: NAWXER_clean_sbu_0, # of connection points: 4
#     Node 11, Type 0, BuildingBlock: NAWXER_clean_sbu_0, # of connection points: 4
#     Node 12, Type 0, BuildingBlock: NAWXER_clean_sbu_0, # of connection points: 4
#     Node 13, Type 0, BuildingBlock: NAWXER_clean_sbu_0, # of connection points: 4
#     Node 14, Type 0, BuildingBlock: NAWXER_clean_sbu_0, # of connection points: 4
#     Node 15, Type 0, BuildingBlock: NAWXER_clean_sbu_0, # of connection points: 4
#     Node 16, Type 0, BuildingBlock: NAWXER_clean_sbu_0, # of connection points: 4
#     Node 17, Type 0, BuildingBlock: NAWXER_clean_sbu_0, # of connection points: 4
#     Node 18, Type 0, BuildingBlock: NAWXER_clean_sbu_0, # of connection points: 4
#     Node 19, Type 0, BuildingBlock: NAWXER_clean_sbu_0, # of connection points: 4
#     Node 20, Type 0, BuildingBlock: NAWXER_clean_sbu_0, # of connection points: 4
#     Node 21, Type 0, BuildingBlock: NAWXER_clean_sbu_0, # of connection points: 4
#     Node 22, Type 0, BuildingBlock: NAWXER_clean_sbu_0, # of connection points: 4
#     Node 23, Type 0, BuildingBlock: NAWXER_clean_sbu_0, # of connection points: 4
#     Node 24, Type 0, BuildingBlock: NAWXER_clean_sbu_0, # of connection points: 4
#     Node 25, Type 0, BuildingBlock: NAWXER_clean_sbu_0, # of connection points: 4
#     Node 26, Type 0, BuildingBlock: NAWXER_clean_sbu_0, # of connection points: 4
#     Node 27, Type 0, BuildingBlock: NAWXER_clean_sbu_0, # of connection points: 4
#     Node 28, Type 0, BuildingBlock: NAWXER_clean_sbu_0, # of connection points: 4
#     Node 29, Type 0, BuildingBlock: NAWXER_clean_sbu_0, # of connection points: 4
#     Node 30, Type 0, BuildingBlock: NAWXER_clean_sbu_0, # of connection points: 4
#     Node 31, Type 0, BuildingBlock: NAWXER_clean_sbu_0, # of connection points: 4
#     Node 32, Type 0, BuildingBlock: NAWXER_clean_sbu_0, # of connection points: 4
#     Node 33, Type 0, BuildingBlock: NAWXER_clean_sbu_0, # of connection points: 4
#     Node 34, Type 0, BuildingBlock: NAWXER_clean_sbu_0, # of connection points: 4
#     Node 35, Type 0, BuildingBlock: NAWXER_clean_sbu_0, # of connection points: 4
#     Node 36, Type 0, BuildingBlock: NAWXER_clean_sbu_0, # of connection points: 4
#     Node 37, Type 0, BuildingBlock: NAWXER_clean_sbu_0, # of connection points: 4
#     Node 38, Type 0, BuildingBlock: NAWXER_clean_sbu_0, # of connection points: 4
#     Node 39, Type 0, BuildingBlock: NAWXER_clean_sbu_0, # of connection points: 4
#     Node 40, Type 0, BuildingBlock: NAWXER_clean_sbu_0, # of connection points: 4
#     Node 41, Type 0, BuildingBlock: NAWXER_clean_sbu_0, # of connection points: 4
#     Node 42, Type 0, BuildingBlock: NAWXER_clean_sbu_0, # of connection points: 4
#     Node 43, Type 0, BuildingBlock: NAWXER_clean_sbu_0, # of connection points: 4
#     Node 44, Type 0, BuildingBlock: NAWXER_clean_sbu_0, # of connection points: 4
#     Node 45, Type 0, BuildingBlock: NAWXER_clean_sbu_0, # of connection points: 4
#     Node 46, Type 0, BuildingBlock: NAWXER_clean_sbu_0, # of connection points: 4
#     Node 47, Type 0, BuildingBlock: NAWXER_clean_sbu_0, # of connection points: 4
#     Node 48, Type 0, BuildingBlock: NAWXER_clean_sbu_0, # of connection points: 4
#     Node 49, Type 0, BuildingBlock: NAWXER_clean_sbu_0, # of connection points: 4
#     Node 50, Type 0, BuildingBlock: NAWXER_clean_sbu_0, # of connection points: 4
#     Node 51, Type 0, BuildingBlock: NAWXER_clean_sbu_0, # of connection points: 4
#     Node 52, Type 0, BuildingBlock: NAWXER_clean_sbu_0, # of connection points: 4
#     Node 53, Type 0, BuildingBlock: NAWXER_clean_sbu_0, # of connection points: 4
#     Node 54, Type 0, BuildingBlock: NAWXER_clean_sbu_0, # of connection points: 4
#     Node 55, Type 0, BuildingBlock: NAWXER_clean_sbu_0, # of connection points: 4
#     Node 56, Type 0, BuildingBlock: NAWXER_clean_sbu_0, # of connection points: 4
#     Node 57, Type 0, BuildingBlock: NAWXER_clean_sbu_0, # of connection points: 4
#     Node 58, Type 0, BuildingBlock: NAWXER_clean_sbu_0, # of connection points: 4
#     Node 59, Type 0, BuildingBlock: NAWXER_clean_sbu_0, # of connection points: 4
#     Node 60, Type 0, BuildingBlock: NAWXER_clean_sbu_0, # of connection points: 4
#     Node 61, Type 0, BuildingBlock: NAWXER_clean_sbu_0, # of connection points: 4
#     Node 62, Type 0, BuildingBlock: NAWXER_clean_sbu_0, # of connection points: 4
#     Node 63, Type 0, BuildingBlock: NAWXER_clean_sbu_0, # of connection points: 4
#     Node 64, Type 0, BuildingBlock: NAWXER_clean_sbu_0, # of connection points: 4
#     Node 65, Type 0, BuildingBlock: NAWXER_clean_sbu_0, # of connection points: 4
#     Node 66, Type 0, BuildingBlock: NAWXER_clean_sbu_0, # of connection points: 4
#     Node 67, Type 0, BuildingBlock: NAWXER_clean_sbu_0, # of connection points: 4
#     Node 68, Type 0, BuildingBlock: NAWXER_clean_sbu_0, # of connection points: 4
#     Node 69, Type 0, BuildingBlock: NAWXER_clean_sbu_0, # of connection points: 4
#     Node 70, Type 0, BuildingBlock: NAWXER_clean_sbu_0, # of connection points: 4
#     Node 71, Type 0, BuildingBlock: NAWXER_clean_sbu_0, # of connection points: 4
#     Node 72, Type 0, BuildingBlock: NAWXER_clean_sbu_0, # of connection points: 4
#     Node 73, Type 0, BuildingBlock: NAWXER_clean_sbu_0, # of connection points: 4
#     Node 74, Type 0, BuildingBlock: NAWXER_clean_sbu_0, # of connection points: 4
#     Node 75, Type 0, BuildingBlock: NAWXER_clean_sbu_0, # of connection points: 4
#     Node 76, Type 0, BuildingBlock: NAWXER_clean_sbu_0, # of connection points: 4
#     Node 77, Type 0, BuildingBlock: NAWXER_clean_sbu_0, # of connection points: 4
#     Node 78, Type 0, BuildingBlock: NAWXER_clean_sbu_0, # of connection points: 4
#     Node 79, Type 0, BuildingBlock: NAWXER_clean_sbu_0, # of connection points: 4
#     Node 80, Type 0, BuildingBlock: NAWXER_clean_sbu_0, # of connection points: 4
#     Node 81, Type 0, BuildingBlock: NAWXER_clean_sbu_0, # of connection points: 4
#     Node 82, Type 0, BuildingBlock: NAWXER_clean_sbu_0, # of connection points: 4
#     Node 83, Type 0, BuildingBlock: NAWXER_clean_sbu_0, # of connection points: 4
#     Node 84, Type 0, BuildingBlock: NAWXER_clean_sbu_0, # of connection points: 4
#     Node 85, Type 0, BuildingBlock: NAWXER_clean_sbu_0, # of connection points: 4
#     Node 86, Type 0, BuildingBlock: NAWXER_clean_sbu_0, # of connection points: 4
#     Node 87, Type 0, BuildingBlock: NAWXER_clean_sbu_0, # of connection points: 4
#     Node 88, Type 0, BuildingBlock: NAWXER_clean_sbu_0, # of connection points: 4
#     Node 89, Type 0, BuildingBlock: NAWXER_clean_sbu_0, # of connection points: 4
#     Node 90, Type 0, BuildingBlock: NAWXER_clean_sbu_0, # of connection points: 4
#     Node 91, Type 0, BuildingBlock: NAWXER_clean_sbu_0, # of connection points: 4
#     Node 92, Type 0, BuildingBlock: NAWXER_clean_sbu_0, # of connection points: 4
#     Node 93, Type 0, BuildingBlock: NAWXER_clean_sbu_0, # of connection points: 4
#     Node 94, Type 0, BuildingBlock: NAWXER_clean_sbu_0, # of connection points: 4
#     Node 95, Type 0, BuildingBlock: NAWXER_clean_sbu_0, # of connection points: 4
#     Edge 96, Type (0, 0), BuildingBlock: XIVTED_clean_linker_0, # of connection points: 2
#     Edge 97, Type (0, 0), BuildingBlock: XIVTED_clean_linker_0, # of connection points: 2
#     Edge 98, Type (0, 0), BuildingBlock: XIVTED_clean_linker_0, # of connection points: 2
#     Edge 99, Type (0, 0), BuildingBlock: XIVTED_clean_linker_0, # of connection points: 2
#     Edge 100, Type (0, 0), BuildingBlock: XIVTED_clean_linker_0, # of connection points: 2
#     Edge 101, Type (0, 0), BuildingBlock: XIVTED_clean_linker_0, # of connection points: 2
#     Edge 102, Type (0, 0), BuildingBlock: XIVTED_clean_linker_0, # of connection points: 2
#     Edge 103, Type (0, 0), BuildingBlock: XIVTED_clean_linker_0, # of connection points: 2
#     Edge 104, Type (0, 0), BuildingBlock: XIVTED_clean_linker_0, # of connection points: 2
#     Edge 105, Type (0, 0), BuildingBlock: XIVTED_clean_linker_0, # of connection points: 2
#     Edge 106, Type (0, 0), BuildingBlock: XIVTED_clean_linker_0, # of connection points: 2
#     Edge 107, Type (0, 0), BuildingBlock: XIVTED_clean_linker_0, # of connection points: 2
#     Edge 108, Type (0, 0), BuildingBlock: XIVTED_clean_linker_0, # of connection points: 2
#     Edge 109, Type (0, 0), BuildingBlock: XIVTED_clean_linker_0, # of connection points: 2
#     Edge 110, Type (0, 0), BuildingBlock: XIVTED_clean_linker_0, # of connection points: 2
#     Edge 111, Type (0, 0), BuildingBlock: XIVTED_clean_linker_0, # of connection points: 2
#     Edge 112, Type (0, 0), BuildingBlock: XIVTED_clean_linker_0, # of connection points: 2
#     Edge 113, Type (0, 0), BuildingBlock: XIVTED_clean_linker_0, # of connection points: 2
#     Edge 114, Type (0, 0), BuildingBlock: XIVTED_clean_linker_0, # of connection points: 2
#     Edge 115, Type (0, 0), BuildingBlock: XIVTED_clean_linker_0, # of connection points: 2
#     Edge 116, Type (0, 0), BuildingBlock: XIVTED_clean_linker_0, # of connection points: 2
#     Edge 117, Type (0, 0), BuildingBlock: XIVTED_clean_linker_0, # of connection points: 2
#     Edge 118, Type (0, 0), BuildingBlock: XIVTED_clean_linker_0, # of connection points: 2
#     Edge 119, Type (0, 0), BuildingBlock: XIVTED_clean_linker_0, # of connection points: 2
#     Edge 120, Type (0, 0), BuildingBlock: XIVTED_clean_linker_0, # of connection points: 2
#     Edge 121, Type (0, 0), BuildingBlock: XIVTED_clean_linker_0, # of connection points: 2
#     Edge 122, Type (0, 0), BuildingBlock: XIVTED_clean_linker_0, # of connection points: 2
#     Edge 123, Type (0, 0), BuildingBlock: XIVTED_clean_linker_0, # of connection points: 2
#     Edge 124, Type (0, 0), BuildingBlock: XIVTED_clean_linker_0, # of connection points: 2
#     Edge 125, Type (0, 0), BuildingBlock: XIVTED_clean_linker_0, # of connection points: 2
#     Edge 126, Type (0, 0), BuildingBlock: XIVTED_clean_linker_0, # of connection points: 2
#     Edge 127, Type (0, 0), BuildingBlock: XIVTED_clean_linker_0, # of connection points: 2
#     Edge 128, Type (0, 0), BuildingBlock: XIVTED_clean_linker_0, # of connection points: 2
#     Edge 129, Type (0, 0), BuildingBlock: XIVTED_clean_linker_0, # of connection points: 2
#     Edge 130, Type (0, 0), BuildingBlock: XIVTED_clean_linker_0, # of connection points: 2
#     Edge 131, Type (0, 0), BuildingBlock: XIVTED_clean_linker_0, # of connection points: 2
#     Edge 132, Type (0, 0), BuildingBlock: XIVTED_clean_linker_0, # of connection points: 2
#     Edge 133, Type (0, 0), BuildingBlock: XIVTED_clean_linker_0, # of connection points: 2
#     Edge 134, Type (0, 0), BuildingBlock: XIVTED_clean_linker_0, # of connection points: 2
#     Edge 135, Type (0, 0), BuildingBlock: XIVTED_clean_linker_0, # of connection points: 2
#     Edge 136, Type (0, 0), BuildingBlock: XIVTED_clean_linker_0, # of connection points: 2
#     Edge 137, Type (0, 0), BuildingBlock: XIVTED_clean_linker_0, # of connection points: 2
#     Edge 138, Type (0, 0), BuildingBlock: XIVTED_clean_linker_0, # of connection points: 2
#     Edge 139, Type (0, 0), BuildingBlock: XIVTED_clean_linker_0, # of connection points: 2
#     Edge 140, Type (0, 0), BuildingBlock: XIVTED_clean_linker_0, # of connection points: 2
#     Edge 141, Type (0, 0), BuildingBlock: XIVTED_clean_linker_0, # of connection points: 2
#     Edge 142, Type (0, 0), BuildingBlock: XIVTED_clean_linker_0, # of connection points: 2
#     Edge 143, Type (0, 0), BuildingBlock: XIVTED_clean_linker_0, # of connection points: 2
#     Edge 144, Type (0, 0), BuildingBlock: XIVTED_clean_linker_0, # of connection points: 2
#     Edge 145, Type (0, 0), BuildingBlock: XIVTED_clean_linker_0, # of connection points: 2
#     Edge 146, Type (0, 0), BuildingBlock: XIVTED_clean_linker_0, # of connection points: 2
#     Edge 147, Type (0, 0), BuildingBlock: XIVTED_clean_linker_0, # of connection points: 2
#     Edge 148, Type (0, 0), BuildingBlock: XIVTED_clean_linker_0, # of connection points: 2
#     Edge 149, Type (0, 0), BuildingBlock: XIVTED_clean_linker_0, # of connection points: 2
#     Edge 150, Type (0, 0), BuildingBlock: XIVTED_clean_linker_0, # of connection points: 2
#     Edge 151, Type (0, 0), BuildingBlock: XIVTED_clean_linker_0, # of connection points: 2
#     Edge 152, Type (0, 0), BuildingBlock: XIVTED_clean_linker_0, # of connection points: 2
#     Edge 153, Type (0, 0), BuildingBlock: XIVTED_clean_linker_0, # of connection points: 2
#     Edge 154, Type (0, 0), BuildingBlock: XIVTED_clean_linker_0, # of connection points: 2
#     Edge 155, Type (0, 0), BuildingBlock: XIVTED_clean_linker_0, # of connection points: 2
#     Edge 156, Type (0, 0), BuildingBlock: XIVTED_clean_linker_0, # of connection points: 2
#     Edge 157, Type (0, 0), BuildingBlock: XIVTED_clean_linker_0, # of connection points: 2
#     Edge 158, Type (0, 0), BuildingBlock: XIVTED_clean_linker_0, # of connection points: 2
#     Edge 159, Type (0, 0), BuildingBlock: XIVTED_clean_linker_0, # of connection points: 2
#     Edge 160, Type (0, 0), BuildingBlock: XIVTED_clean_linker_0, # of connection points: 2
#     Edge 161, Type (0, 0), BuildingBlock: XIVTED_clean_linker_0, # of connection points: 2
#     Edge 162, Type (0, 0), BuildingBlock: XIVTED_clean_linker_0, # of connection points: 2
#     Edge 163, Type (0, 0), BuildingBlock: XIVTED_clean_linker_0, # of connection points: 2
#     Edge 164, Type (0, 0), BuildingBlock: XIVTED_clean_linker_0, # of connection points: 2
#     Edge 165, Type (0, 0), BuildingBlock: XIVTED_clean_linker_0, # of connection points: 2
#     Edge 166, Type (0, 0), BuildingBlock: XIVTED_clean_linker_0, # of connection points: 2
#     Edge 167, Type (0, 0), BuildingBlock: XIVTED_clean_linker_0, # of connection points: 2
#     Edge 168, Type (0, 0), BuildingBlock: XIVTED_clean_linker_0, # of connection points: 2
#     Edge 169, Type (0, 0), BuildingBlock: XIVTED_clean_linker_0, # of connection points: 2
#     Edge 170, Type (0, 0), BuildingBlock: XIVTED_clean_linker_0, # of connection points: 2
#     Edge 171, Type (0, 0), BuildingBlock: XIVTED_clean_linker_0, # of connection points: 2
#     Edge 172, Type (0, 0), BuildingBlock: XIVTED_clean_linker_0, # of connection points: 2
#     Edge 173, Type (0, 0), BuildingBlock: XIVTED_clean_linker_0, # of connection points: 2
#     Edge 174, Type (0, 0), BuildingBlock: XIVTED_clean_linker_0, # of connection points: 2
#     Edge 175, Type (0, 0), BuildingBlock: XIVTED_clean_linker_0, # of connection points: 2
#     Edge 176, Type (0, 0), BuildingBlock: XIVTED_clean_linker_0, # of connection points: 2
#     Edge 177, Type (0, 0), BuildingBlock: XIVTED_clean_linker_0, # of connection points: 2
#     Edge 178, Type (0, 0), BuildingBlock: XIVTED_clean_linker_0, # of connection points: 2
#     Edge 179, Type (0, 0), BuildingBlock: XIVTED_clean_linker_0, # of connection points: 2
#     Edge 180, Type (0, 0), BuildingBlock: XIVTED_clean_linker_0, # of connection points: 2
#     Edge 181, Type (0, 0), BuildingBlock: XIVTED_clean_linker_0, # of connection points: 2
#     Edge 182, Type (0, 0), BuildingBlock: XIVTED_clean_linker_0, # of connection points: 2
#     Edge 183, Type (0, 0), BuildingBlock: XIVTED_clean_linker_0, # of connection points: 2
#     Edge 184, Type (0, 0), BuildingBlock: XIVTED_clean_linker_0, # of connection points: 2
#     Edge 185, Type (0, 0), BuildingBlock: XIVTED_clean_linker_0, # of connection points: 2
#     Edge 186, Type (0, 0), BuildingBlock: XIVTED_clean_linker_0, # of connection points: 2
#     Edge 187, Type (0, 0), BuildingBlock: XIVTED_clean_linker_0, # of connection points: 2
#     Edge 188, Type (0, 0), BuildingBlock: XIVTED_clean_linker_0, # of connection points: 2
#     Edge 189, Type (0, 0), BuildingBlock: XIVTED_clean_linker_0, # of connection points: 2
#     Edge 190, Type (0, 0), BuildingBlock: XIVTED_clean_linker_0, # of connection points: 2
#     Edge 191, Type (0, 0), BuildingBlock: XIVTED_clean_linker_0, # of connection points: 2
#     Edge 192, Type (0, 0), BuildingBlock: XIVTED_clean_linker_0, # of connection points: 2
#     Edge 193, Type (0, 0), BuildingBlock: XIVTED_clean_linker_0, # of connection points: 2
#     Edge 194, Type (0, 0), BuildingBlock: XIVTED_clean_linker_0, # of connection points: 2
#     Edge 195, Type (0, 0), BuildingBlock: XIVTED_clean_linker_0, # of connection points: 2
#     Edge 196, Type (0, 0), BuildingBlock: XIVTED_clean_linker_0, # of connection points: 2
#     Edge 197, Type (0, 0), BuildingBlock: XIVTED_clean_linker_0, # of connection points: 2
#     Edge 198, Type (0, 0), BuildingBlock: XIVTED_clean_linker_0, # of connection points: 2
#     Edge 199, Type (0, 0), BuildingBlock: XIVTED_clean_linker_0, # of connection points: 2
#     Edge 200, Type (0, 0), BuildingBlock: XIVTED_clean_linker_0, # of connection points: 2
#     Edge 201, Type (0, 0), BuildingBlock: XIVTED_clean_linker_0, # of connection points: 2
#     Edge 202, Type (0, 0), BuildingBlock: XIVTED_clean_linker_0, # of connection points: 2
#     Edge 203, Type (0, 0), BuildingBlock: XIVTED_clean_linker_0, # of connection points: 2
#     Edge 204, Type (0, 0), BuildingBlock: XIVTED_clean_linker_0, # of connection points: 2
#     Edge 205, Type (0, 0), BuildingBlock: XIVTED_clean_linker_0, # of connection points: 2
#     Edge 206, Type (0, 0), BuildingBlock: XIVTED_clean_linker_0, # of connection points: 2
#     Edge 207, Type (0, 0), BuildingBlock: XIVTED_clean_linker_0, # of connection points: 2
#     Edge 208, Type (0, 0), BuildingBlock: XIVTED_clean_linker_0, # of connection points: 2
#     Edge 209, Type (0, 0), BuildingBlock: XIVTED_clean_linker_0, # of connection points: 2
#     Edge 210, Type (0, 0), BuildingBlock: XIVTED_clean_linker_0, # of connection points: 2
#     Edge 211, Type (0, 0), BuildingBlock: XIVTED_clean_linker_0, # of connection points: 2
#     Edge 212, Type (0, 0), BuildingBlock: XIVTED_clean_linker_0, # of connection points: 2
#     Edge 213, Type (0, 0), BuildingBlock: XIVTED_clean_linker_0, # of connection points: 2
#     Edge 214, Type (0, 0), BuildingBlock: XIVTED_clean_linker_0, # of connection points: 2
#     Edge 215, Type (0, 0), BuildingBlock: XIVTED_clean_linker_0, # of connection points: 2
#     Edge 216, Type (0, 0), BuildingBlock: XIVTED_clean_linker_0, # of connection points: 2
#     Edge 217, Type (0, 0), BuildingBlock: XIVTED_clean_linker_0, # of connection points: 2
#     Edge 218, Type (0, 0), BuildingBlock: XIVTED_clean_linker_0, # of connection points: 2
#     Edge 219, Type (0, 0), BuildingBlock: XIVTED_clean_linker_0, # of connection points: 2
#     Edge 220, Type (0, 0), BuildingBlock: XIVTED_clean_linker_0, # of connection points: 2
#     Edge 221, Type (0, 0), BuildingBlock: XIVTED_clean_linker_0, # of connection points: 2
#     Edge 222, Type (0, 0), BuildingBlock: XIVTED_clean_linker_0, # of connection points: 2
#     Edge 223, Type (0, 0), BuildingBlock: XIVTED_clean_linker_0, # of connection points: 2
#     Edge 224, Type (0, 0), BuildingBlock: XIVTED_clean_linker_0, # of connection points: 2
#     Edge 225, Type (0, 0), BuildingBlock: XIVTED_clean_linker_0, # of connection points: 2
#     Edge 226, Type (0, 0), BuildingBlock: XIVTED_clean_linker_0, # of connection points: 2
#     Edge 227, Type (0, 0), BuildingBlock: XIVTED_clean_linker_0, # of connection points: 2
#     Edge 228, Type (0, 0), BuildingBlock: XIVTED_clean_linker_0, # of connection points: 2
#     Edge 229, Type (0, 0), BuildingBlock: XIVTED_clean_linker_0, # of connection points: 2
#     Edge 230, Type (0, 0), BuildingBlock: XIVTED_clean_linker_0, # of connection points: 2
#     Edge 231, Type (0, 0), BuildingBlock: XIVTED_clean_linker_0, # of connection points: 2
#     Edge 232, Type (0, 0), BuildingBlock: XIVTED_clean_linker_0, # of connection points: 2
#     Edge 233, Type (0, 0), BuildingBlock: XIVTED_clean_linker_0, # of connection points: 2
#     Edge 234, Type (0, 0), BuildingBlock: XIVTED_clean_linker_0, # of connection points: 2
#     Edge 235, Type (0, 0), BuildingBlock: XIVTED_clean_linker_0, # of connection points: 2
#     Edge 236, Type (0, 0), BuildingBlock: XIVTED_clean_linker_0, # of connection points: 2
#     Edge 237, Type (0, 0), BuildingBlock: XIVTED_clean_linker_0, # of connection points: 2
#     Edge 238, Type (0, 0), BuildingBlock: XIVTED_clean_linker_0, # of connection points: 2
#     Edge 239, Type (0, 0), BuildingBlock: XIVTED_clean_linker_0, # of connection points: 2
#     Edge 240, Type (0, 0), BuildingBlock: XIVTED_clean_linker_0, # of connection points: 2
#     Edge 241, Type (0, 0), BuildingBlock: XIVTED_clean_linker_0, # of connection points: 2
#     Edge 242, Type (0, 0), BuildingBlock: XIVTED_clean_linker_0, # of connection points: 2
#     Edge 243, Type (0, 0), BuildingBlock: XIVTED_clean_linker_0, # of connection points: 2
#     Edge 244, Type (0, 0), BuildingBlock: XIVTED_clean_linker_0, # of connection points: 2
#     Edge 245, Type (0, 0), BuildingBlock: XIVTED_clean_linker_0, # of connection points: 2
#     Edge 246, Type (0, 0), BuildingBlock: XIVTED_clean_linker_0, # of connection points: 2
#     Edge 247, Type (0, 0), BuildingBlock: XIVTED_clean_linker_0, # of connection points: 2
#     Edge 248, Type (0, 0), BuildingBlock: XIVTED_clean_linker_0, # of connection points: 2
#     Edge 249, Type (0, 0), BuildingBlock: XIVTED_clean_linker_0, # of connection points: 2
#     Edge 250, Type (0, 0), BuildingBlock: XIVTED_clean_linker_0, # of connection points: 2
#     Edge 251, Type (0, 0), BuildingBlock: XIVTED_clean_linker_0, # of connection points: 2
#     Edge 252, Type (0, 0), BuildingBlock: XIVTED_clean_linker_0, # of connection points: 2
#     Edge 253, Type (0, 0), BuildingBlock: XIVTED_clean_linker_0, # of connection points: 2
#     Edge 254, Type (0, 0), BuildingBlock: XIVTED_clean_linker_0, # of connection points: 2
#     Edge 255, Type (0, 0), BuildingBlock: XIVTED_clean_linker_0, # of connection points: 2
#     Edge 256, Type (0, 0), BuildingBlock: XIVTED_clean_linker_0, # of connection points: 2
#     Edge 257, Type (0, 0), BuildingBlock: XIVTED_clean_linker_0, # of connection points: 2
#     Edge 258, Type (0, 0), BuildingBlock: XIVTED_clean_linker_0, # of connection points: 2
#     Edge 259, Type (0, 0), BuildingBlock: XIVTED_clean_linker_0, # of connection points: 2
#     Edge 260, Type (0, 0), BuildingBlock: XIVTED_clean_linker_0, # of connection points: 2
#     Edge 261, Type (0, 0), BuildingBlock: XIVTED_clean_linker_0, # of connection points: 2
#     Edge 262, Type (0, 0), BuildingBlock: XIVTED_clean_linker_0, # of connection points: 2
#     Edge 263, Type (0, 0), BuildingBlock: XIVTED_clean_linker_0, # of connection points: 2
#     Edge 264, Type (0, 0), BuildingBlock: XIVTED_clean_linker_0, # of connection points: 2
#     Edge 265, Type (0, 0), BuildingBlock: XIVTED_clean_linker_0, # of connection points: 2
#     Edge 266, Type (0, 0), BuildingBlock: XIVTED_clean_linker_0, # of connection points: 2
#     Edge 267, Type (0, 0), BuildingBlock: XIVTED_clean_linker_0, # of connection points: 2
#     Edge 268, Type (0, 0), BuildingBlock: XIVTED_clean_linker_0, # of connection points: 2
#     Edge 269, Type (0, 0), BuildingBlock: XIVTED_clean_linker_0, # of connection points: 2
#     Edge 270, Type (0, 0), BuildingBlock: XIVTED_clean_linker_0, # of connection points: 2
#     Edge 271, Type (0, 0), BuildingBlock: XIVTED_clean_linker_0, # of connection points: 2
#     Edge 272, Type (0, 0), BuildingBlock: XIVTED_clean_linker_0, # of connection points: 2
#     Edge 273, Type (0, 0), BuildingBlock: XIVTED_clean_linker_0, # of connection points: 2
#     Edge 274, Type (0, 0), BuildingBlock: XIVTED_clean_linker_0, # of connection points: 2
#     Edge 275, Type (0, 0), BuildingBlock: XIVTED_clean_linker_0, # of connection points: 2
#     Edge 276, Type (0, 0), BuildingBlock: XIVTED_clean_linker_0, # of connection points: 2
#     Edge 277, Type (0, 0), BuildingBlock: XIVTED_clean_linker_0, # of connection points: 2
#     Edge 278, Type (0, 0), BuildingBlock: XIVTED_clean_linker_0, # of connection points: 2
#     Edge 279, Type (0, 0), BuildingBlock: XIVTED_clean_linker_0, # of connection points: 2
#     Edge 280, Type (0, 0), BuildingBlock: XIVTED_clean_linker_0, # of connection points: 2
#     Edge 281, Type (0, 0), BuildingBlock: XIVTED_clean_linker_0, # of connection points: 2
#     Edge 282, Type (0, 0), BuildingBlock: XIVTED_clean_linker_0, # of connection points: 2
#     Edge 283, Type (0, 0), BuildingBlock: XIVTED_clean_linker_0, # of connection points: 2
#     Edge 284, Type (0, 0), BuildingBlock: XIVTED_clean_linker_0, # of connection points: 2
#     Edge 285, Type (0, 0), BuildingBlock: XIVTED_clean_linker_0, # of connection points: 2
#     Edge 286, Type (0, 0), BuildingBlock: XIVTED_clean_linker_0, # of connection points: 2
#     Edge 287, Type (0, 0), BuildingBlock: XIVTED_clean_linker_0, # of connection points: 2
# Relax obj value: 0.074
# Max RMSD: 0.230
# Mean RMSD: 0.230
data_MOF--net-gie--node1-NAWXER_clean_sbu_0--edge1-XIVTED_clean_linker_0
_symmetry_space_group_name_H-M    P1
_symmetry_Int_Tables_number       1
_symmetry_cell_setting            triclinic
loop_
_symmetry_equiv_pos_as_xyz
'x, y, z'
_cell_length_a     88.704601
_cell_length_b     88.694249
_cell_length_c     88.719766
_cell_angle_alpha  89.996594
_cell_angle_beta   89.992695
_cell_angle_gamma 89.999552
loop_
_atom_site_label
_atom_site_type_symbol
_atom_site_fract_x
_atom_site_fract_y
_atom_site_fract_z
_atom_type_partial_charge
C0 C 0.99662 0.11062 0.39658 0.0
C1 C 0.02863 0.15417 0.39001 0.0
O2 O 0.99442 0.11998 0.4074 0.0
Zn3 Zn 0.00422 0.14151 0.41393 0.0
O4 O 0.00654 0.11352 0.38673 0.0
Zn5 Zn 0.01282 0.13252 0.39427 0.0
O6 O 0.02563 0.12699 0.41438 0.0
O7 O 0.01334 0.13771 0.43307 0.0
O8 O 0.02729 0.14236 0.38208 0.0
O9 O 0.02087 0.1555 0.40218 0.0
O10 O 0.98699 0.15428 0.41447 0.0
O11 O 0.99303 0.14698 0.39149 0.0
C12 C 0.02436 0.12985 0.42851 0.0
C13 C 0.98442 0.15449 0.40041 0.0
C14 C 0.09615 0.73455 0.64823 0.0
C15 C 0.12151 0.77322 0.67722 0.0
O16 O 0.10405 0.74308 0.63959 0.0
Zn17 Zn 0.11895 0.76234 0.64275 0.0
O18 O 0.09615 0.73687 0.66234 0.0
Zn19 Zn 0.1094 0.75372 0.66232 0.0
O20 O 0.09614 0.77094 0.6508 0.0
O21 O 0.10941 0.77741 0.6308 0.0
O22 O 0.11321 0.76245 0.68161 0.0
O23 O 0.12459 0.77453 0.66314 0.0
O24 O 0.13799 0.7554 0.63549 0.0
O25 O 0.13069 0.74348 0.65601 0.0
C26 C 0.09765 0.77893 0.63881 0.0
C27 C 0.14035 0.74537 0.6454 0.0
C28 C 0.4728 0.87289 0.9209 0.0
C29 C 0.51233 0.84795 0.89281 0.0
O30 O 0.47131 0.87562 0.90676 0.0
Zn31 Zn 0.48383 0.86977 0.8865 0.0
O32 O 0.48384 0.86502 0.92537 0.0
Zn33 Zn 0.49261 0.861 0.90622 0.0
O34 O 0.50234 0.88242 0.89938 0.0
O35 O 0.49021 0.88881 0.87869 0.0
O36 O 0.50981 0.84833 0.90687 0.0
O37 O 0.50367 0.85531 0.88381 0.0
O38 O 0.46917 0.85953 0.87465 0.0
O39 O 0.4759 0.84681 0.89491 0.0
C40 C 0.50018 0.89173 0.8885 0.0
C41 C 0.46798 0.84785 0.88282 0.0
C42 C 0.40239 0.26097 0.14788 0.0
C43 C 0.37636 0.22212 0.17601 0.0
O44 O 0.39405 0.25304 0.13909 0.0
Zn45 Zn 0.37944 0.23346 0.14176 0.0
O46 O 0.4029 0.25799 0.16184 0.0
Zn47 Zn 0.38902 0.2416 0.16151 0.0
O48 O 0.40207 0.22441 0.14995 0.0
O49 O 0.38909 0.2186 0.12959 0.0
O50 O 0.38484 0.23267 0.18062 0.0
O51 O 0.37342 0.22104 0.16189 0.0
O52 O 0.36052 0.24031 0.13449 0.0
O53 O 0.36776 0.25213 0.15514 0.0
C54 C 0.40066 0.21672 0.13777 0.0
C55 C 0.35813 0.25024 0.14448 0.0
C56 C 0.02427 0.87142 0.07015 0.0
C57 C 0.98555 0.84648 0.09963 0.0
O58 O 0.02588 0.87446 0.08421 0.0
Zn59 Zn 0.01374 0.86902 0.10474 0.0
O60 O 0.01323 0.86339 0.06597 0.0
Zn61 Zn 0.0047 0.85962 0.0854 0.0
O62 O 0.99463 0.88097 0.09202 0.0
O63 O 0.00721 0.8881 0.11218 0.0
O64 O 0.98772 0.84653 0.0855 0.0
O65 O 0.99428 0.85426 0.1082 0.0
O66 O 0.02877 0.85939 0.11657 0.0
O67 O 0.02186 0.84602 0.09678 0.0
C68 C 0.99689 0.89056 0.10262 0.0
C69 C 0.02999 0.84752 0.10868 0.0
C70 C 0.40375 0.73444 0.34793 0.0
C71 C 0.37944 0.77339 0.3185 0.0
O72 O 0.39613 0.74328 0.35653 0.0
Zn73 Zn 0.38179 0.76302 0.35311 0.0
O74 O 0.40385 0.7367 0.33381 0.0
Zn75 Zn 0.39112 0.7539 0.33377 0.0
O76 O 0.40493 0.77085 0.34519 0.0
O77 O 0.39161 0.77787 0.36497 0.0
O78 O 0.38744 0.76231 0.31437 0.0
O79 O 0.37646 0.77513 0.33256 0.0
O80 O 0.36261 0.75681 0.36052 0.0
O81 O 0.36962 0.74421 0.34031 0.0
C82 C 0.4035 0.77896 0.35712 0.0
C83 C 0.36003 0.74659 0.35088 0.0
C84 C 0.46995 0.12352 0.5719 0.0
C85 C 0.51024 0.14832 0.59861 0.0
O86 O 0.46896 0.12067 0.58605 0.0
Zn87 Zn 0.48209 0.12642 0.60581 0.0
O88 O 0.48067 0.13163 0.56713 0.0
Zn89 Zn 0.49013 0.13555 0.58589 0.0
O90 O 0.50024 0.11414 0.59226 0.0
O91 O 0.48855 0.10743 0.61315 0.0
O92 O 0.50696 0.14862 0.5847 0.0
O93 O 0.50224 0.14048 0.6078 0.0
O94 O 0.46803 0.13668 0.61841 0.0
O95 O 0.47415 0.14959 0.59808 0.0
C96 C 0.49831 0.1047 0.60307 0.0
C97 C 0.46677 0.14851 0.61049 0.0
C98 C 0.0952 0.2619 0.85168 0.0
C99 C 0.12152 0.22327 0.82346 0.0
O100 O 0.10279 0.25339 0.8606 0.0
Zn101 Zn 0.11772 0.234 0.85785 0.0
O102 O 0.09559 0.25946 0.8376 0.0
Zn103 Zn 0.10874 0.24256 0.83811 0.0
O104 O 0.09509 0.22536 0.84931 0.0
O105 O 0.10801 0.21898 0.86956 0.0
O106 O 0.11314 0.23392 0.81894 0.0
O107 O 0.1242 0.22188 0.83761 0.0
O108 O 0.1364 0.2408 0.86581 0.0
O109 O 0.12996 0.25272 0.84501 0.0
C110 C 0.09641 0.21743 0.86137 0.0
C111 C 0.13921 0.25075 0.85596 0.0
C112 C 0.42613 0.02326 0.12772 0.0
C113 C 0.39502 0.98563 0.1522 0.0
O114 O 0.41221 0.02492 0.12423 0.0
Zn115 Zn 0.39132 0.01382 0.12941 0.0
O116 O 0.42996 0.01254 0.13636 0.0
Zn117 Zn 0.41026 0.00419 0.13961 0.0
O118 O 0.40399 0.99433 0.11812 0.0
O119 O 0.38433 0.00731 0.11016 0.0
O120 O 0.40918 0.9875 0.15304 0.0
O121 O 0.38701 0.99431 0.1438 0.0
O122 O 0.38003 0.02967 0.13895 0.0
O123 O 0.39877 0.02105 0.15288 0.0
C124 C 0.3938 0.99679 0.10813 0.0
C125 C 0.38745 0.02988 0.15117 0.0
C126 C 0.2231 0.17961 0.37551 0.0
C127 C 0.26201 0.15098 0.40079 0.0
O128 O 0.22157 0.16547 0.3728 0.0
Zn129 Zn 0.23365 0.14513 0.37879 0.0
O130 O 0.23402 0.18407 0.38356 0.0
Zn131 Zn 0.2426 0.16486 0.38776 0.0
O132 O 0.25237 0.1579 0.36654 0.0
O133 O 0.24032 0.13724 0.35987 0.0
O134 O 0.25977 0.16511 0.40059 0.0
O135 O 0.25322 0.14223 0.39331 0.0
O136 O 0.21872 0.13354 0.389 0.0
O137 O 0.22569 0.15378 0.40166 0.0
C138 C 0.25038 0.14704 0.35719 0.0
C139 C 0.21759 0.14181 0.40062 0.0
C140 C 0.07336 0.97599 0.62737 0.0
C141 C 0.10261 0.01434 0.65316 0.0
O142 O 0.08742 0.97472 0.62419 0.0
Zn143 Zn 0.10781 0.98687 0.62985 0.0
O144 O 0.06906 0.98666 0.63585 0.0
Zn145 Zn 0.0884 0.99535 0.63975 0.0
O146 O 0.09464 0.00611 0.61868 0.0
O147 O 0.11494 0.9941 0.61092 0.0
O148 O 0.08851 0.01198 0.65334 0.0
O149 O 0.11116 0.00594 0.64502 0.0
O150 O 0.1199 0.97169 0.63895 0.0
O151 O 0.1001 0.97794 0.65264 0.0
C152 C 0.10516 0.00432 0.60891 0.0
C153 C 0.11208 0.97 0.65081 0.0
C154 C 0.2489 0.85298 0.85661 0.0
C155 C 0.2815 0.85959 0.89977 0.0
O156 O 0.24693 0.84221 0.86607 0.0
Zn157 Zn 0.2569 0.83575 0.88751 0.0
O158 O 0.25873 0.86299 0.8593 0.0
Zn159 Zn 0.26535 0.85546 0.87825 0.0
O160 O 0.27779 0.83528 0.87226 0.0
O161 O 0.26593 0.8166 0.88349 0.0
O162 O 0.28007 0.86753 0.88797 0.0
O163 O 0.27371 0.84745 0.90118 0.0
O164 O 0.23975 0.83534 0.90046 0.0
O165 O 0.24571 0.85825 0.89286 0.0
C166 C 0.2766 0.82115 0.87514 0.0
C167 C 0.23717 0.84941 0.90053 0.0
C168 C 0.4242 0.97144 0.37141 0.0
C169 C 0.39572 0.01066 0.34632 0.0
O170 O 0.41007 0.96993 0.37416 0.0
Zn171 Zn 0.38976 0.98219 0.36824 0.0
O172 O 0.42864 0.98239 0.36339 0.0
Zn173 Zn 0.40942 0.99106 0.35933 0.0
O174 O 0.40253 0.00075 0.38074 0.0
O175 O 0.38192 0.98848 0.38719 0.0
O176 O 0.40982 0.00826 0.34658 0.0
O177 O 0.38686 0.00193 0.35376 0.0
O178 O 0.37805 0.96738 0.35822 0.0
O179 O 0.39818 0.9742 0.34532 0.0
C180 C 0.39168 0.9985 0.39007 0.0
C181 C 0.38617 0.96617 0.34652 0.0
C182 C 0.25111 0.15113 0.63909 0.0
C183 C 0.28198 0.14533 0.59448 0.0
O184 O 0.24854 0.16186 0.62971 0.0
Zn185 Zn 0.25768 0.16876 0.60808 0.0
O186 O 0.26133 0.14158 0.63617 0.0
Zn187 Zn 0.26718 0.14921 0.61693 0.0
O188 O 0.27953 0.16943 0.62208 0.0
O189 O 0.26712 0.18809 0.61148 0.0
O190 O 0.28209 0.13768 0.60656 0.0
O191 O 0.27345 0.15698 0.59337 0.0
O192 O 0.23995 0.16881 0.59592 0.0
O193 O 0.24707 0.146 0.60293 0.0
C194 C 0.27829 0.18353 0.61915 0.0
C195 C 0.23792 0.15464 0.59571 0.0
C196 C 0.10718 0.99719 0.88677 0.0
C197 C 0.11475 0.03181 0.84514 0.0
O198 O 0.09694 0.99531 0.87669 0.0
Zn199 Zn 0.09109 0.00627 0.85547 0.0
O200 O 0.11694 0.0075 0.88506 0.0
Zn201 Zn 0.11025 0.01468 0.86601 0.0
O202 O 0.0896 0.02645 0.87152 0.0
O203 O 0.07162 0.0147 0.85907 0.0
O204 O 0.12248 0.03 0.85702 0.0
O205 O 0.1028 0.02387 0.84317 0.0
O206 O 0.09169 0.99017 0.84126 0.0
O207 O 0.11393 0.99543 0.8512 0.0
C208 C 0.07563 0.02512 0.86799 0.0
C209 C 0.10568 0.98747 0.84235 0.0
C210 C 0.2238 0.82218 0.11816 0.0
C211 C 0.26363 0.85011 0.09329 0.0
O212 O 0.22274 0.83632 0.12107 0.0
Zn213 Zn 0.23538 0.85642 0.11531 0.0
O214 O 0.23453 0.81749 0.10997 0.0
Zn215 Zn 0.24373 0.83657 0.10613 0.0
O216 O 0.25346 0.84284 0.12767 0.0
O217 O 0.24193 0.86379 0.13438 0.0
O218 O 0.26096 0.83606 0.09334 0.0
O219 O 0.25509 0.85902 0.10088 0.0
O220 O 0.22077 0.86855 0.10538 0.0
O221 O 0.22702 0.84828 0.09241 0.0
C222 C 0.25155 0.8536 0.13716 0.0
C223 C 0.21928 0.86046 0.09369 0.0
C224 C 0.15326 0.39806 0.98601 0.0
C225 C 0.1282 0.4272 0.02477 0.0
O226 O 0.14549 0.38942 0.99467 0.0
Zn227 Zn 0.13081 0.39268 0.01413 0.0
O228 O 0.15327 0.41218 0.98829 0.0
Zn229 Zn 0.14024 0.41218 0.00529 0.0
O230 O 0.15375 0.40076 0.02237 0.0
O231 O 0.14051 0.38083 0.02913 0.0
O232 O 0.13643 0.43151 0.01391 0.0
O233 O 0.12518 0.41312 0.02623 0.0
O234 O 0.11176 0.38527 0.00749 0.0
O235 O 0.11889 0.4057 0.9953 0.0
C236 C 0.15231 0.38881 0.03043 0.0
C237 C 0.1093 0.39507 0.99739 0.0
C238 C 0.65218 0.10104 0.01173 0.0
C239 C 0.62568 0.07384 0.97231 0.0
O240 O 0.6444 0.11008 0.00352 0.0
Zn241 Zn 0.6293 0.10783 0.98425 0.0
O242 O 0.65188 0.087 0.00898 0.0
Zn243 Zn 0.63849 0.08781 0.99217 0.0
O244 O 0.65185 0.09962 0.97523 0.0
O245 O 0.63888 0.12008 0.96956 0.0
O246 O 0.634 0.06891 0.98283 0.0
O247 O 0.623 0.08803 0.97145 0.0
O248 O 0.61054 0.11533 0.99146 0.0
O249 O 0.61744 0.0943 0.00275 0.0
C250 C 0.65047 0.11192 0.96768 0.0
C251 C 0.60802 0.10518 0.00119 0.0
C252 C 0.14655 0.40393 0.26238 0.0
C253 C 0.17558 0.37901 0.22341 0.0
O254 O 0.13787 0.39629 0.25366 0.0
Zn255 Zn 0.14107 0.38173 0.23409 0.0
O256 O 0.16067 0.40385 0.2601 0.0
Zn257 Zn 0.16062 0.39094 0.24299 0.0
O258 O 0.14928 0.40464 0.22599 0.0
O259 O 0.12927 0.39153 0.21918 0.0
O260 O 0.17994 0.38713 0.23433 0.0
O261 O 0.16149 0.37607 0.22195 0.0
O262 O 0.13352 0.36269 0.24049 0.0
O263 O 0.154 0.36952 0.25278 0.0
C264 C 0.13731 0.40329 0.21793 0.0
C265 C 0.1433 0.36002 0.25056 0.0
C266 C 0.84679 0.89855 0.5133 0.0
C267 C 0.87235 0.92686 0.47431 0.0
O268 O 0.85455 0.88967 0.50488 0.0
Zn269 Zn 0.86951 0.89251 0.4855 0.0
O270 O 0.84699 0.91263 0.51078 0.0
Zn271 Zn 0.86019 0.91217 0.49396 0.0
O272 O 0.8467 0.90056 0.47693 0.0
O273 O 0.85988 0.88043 0.47064 0.0
O274 O 0.86417 0.93133 0.48513 0.0
O275 O 0.8753 0.91274 0.47302 0.0
O276 O 0.88846 0.88508 0.49243 0.0
O277 O 0.88138 0.9057 0.5043 0.0
C278 C 0.84814 0.88845 0.46909 0.0
C279 C 0.89091 0.89497 0.50244 0.0
C280 C 0.85996 0.09801 0.21827 0.0
C281 C 0.85345 0.14084 0.25171 0.0
O282 O 0.84791 0.09661 0.22619 0.0
Zn283 Zn 0.83632 0.11005 0.24323 0.0
O284 O 0.86798 0.10977 0.21971 0.0
Zn285 Zn 0.85594 0.1195 0.23463 0.0
O286 O 0.85895 0.10466 0.25404 0.0
O287 O 0.83614 0.09682 0.26013 0.0
O288 O 0.86327 0.13854 0.2416 0.0
O289 O 0.8428 0.13122 0.25358 0.0
O290 O 0.8171 0.11403 0.23437 0.0
O291 O 0.83565 0.1252 0.22225 0.0
C292 C 0.85023 0.09682 0.26256 0.0
C293 C 0.82154 0.12223 0.22354 0.0
C294 C 0.34759 0.60056 0.48543 0.0
C295 C 0.37203 0.57206 0.52497 0.0
O296 O 0.35489 0.6094 0.4943 0.0
Zn297 Zn 0.36919 0.60645 0.51411 0.0
O298 O 0.348 0.58644 0.48766 0.0
Zn299 Zn 0.36063 0.58677 0.50497 0.0
O300 O 0.34631 0.59798 0.52185 0.0
O301 O 0.359 0.61832 0.52854 0.0
O302 O 0.36503 0.56744 0.51342 0.0
O303 O 0.37423 0.58623 0.52686 0.0
O304 O 0.38841 0.61413 0.50817 0.0
O305 O 0.38197 0.5938 0.49551 0.0
C306 C 0.34736 0.61011 0.52975 0.0
C307 C 0.39133 0.60454 0.498 0.0
C308 C 0.14409 0.64127 0.24816 0.0
C309 C 0.13739 0.59798 0.28081 0.0
O310 O 0.15486 0.63179 0.24628 0.0
Zn311 Zn 0.16127 0.61041 0.25631 0.0
O312 O 0.13403 0.63861 0.25795 0.0
Zn313 Zn 0.14148 0.61957 0.26464 0.0
O314 O 0.16159 0.62539 0.27732 0.0
O315 O 0.18032 0.61435 0.26534 0.0
O316 O 0.12933 0.60969 0.27928 0.0
O317 O 0.14958 0.59667 0.27307 0.0
O318 O 0.16194 0.5975 0.23926 0.0
O319 O 0.13891 0.60497 0.24496 0.0
C320 C 0.17573 0.62249 0.27613 0.0
C321 C 0.14792 0.59737 0.23651 0.0
C322 C 0.35349 0.40139 0.73633 0.0
C323 C 0.32384 0.37843 0.77602 0.0
O324 O 0.36192 0.39369 0.74524 0.0
Zn325 Zn 0.35842 0.38014 0.76542 0.0
O326 O 0.33942 0.40208 0.7388 0.0
Zn327 Zn 0.3391 0.38972 0.75633 0.0
O328 O 0.35078 0.40351 0.77293 0.0
O329 O 0.3705 0.39012 0.78 0.0
O330 O 0.31969 0.38661 0.76506 0.0
O331 O 0.33786 0.37518 0.77755 0.0
O332 O 0.36539 0.36071 0.75975 0.0
O333 O 0.34505 0.36774 0.7473 0.0
C334 C 0.36274 0.40208 0.78098 0.0
C335 C 0.35544 0.35799 0.74987 0.0
C336 C 0.97073 0.84743 0.61125 0.0
C337 C 0.00373 0.89044 0.6046 0.0
O338 O 0.97229 0.85917 0.61926 0.0
Zn339 Zn 0.98707 0.86884 0.60715 0.0
O340 O 0.97853 0.84601 0.59911 0.0
Zn341 Zn 0.99551 0.85958 0.58746 0.0
O342 O 0.01249 0.8465 0.587 0.0
O343 O 0.00656 0.854 0.60995 0.0
O344 O 0.00564 0.88093 0.59385 0.0
O345 O 0.99386 0.88784 0.61458 0.0
O346 O 0.9745 0.87461 0.58694 0.0
O347 O 0.98659 0.86351 0.56832 0.0
C348 C 0.01503 0.8463 0.60106 0.0
C349 C 0.97576 0.87167 0.57282 0.0
C350 C 0.87439 0.22403 0.32502 0.0
C351 C 0.8992 0.26358 0.35339 0.0
O352 O 0.8821 0.23519 0.32057 0.0
Zn353 Zn 0.88614 0.24394 0.33979 0.0
O354 O 0.87173 0.22246 0.33917 0.0
Zn355 Zn 0.87748 0.23493 0.35946 0.0
O356 O 0.85845 0.2411 0.36738 0.0
O357 O 0.8647 0.25352 0.34683 0.0
O358 O 0.89188 0.25478 0.3623 0.0
O359 O 0.89878 0.26123 0.3393 0.0
O360 O 0.90043 0.2272 0.35095 0.0
O361 O 0.88779 0.22025 0.37119 0.0
C362 C 0.85545 0.25117 0.35772 0.0
C363 C 0.89945 0.21917 0.36299 0.0
C364 C 0.48528 0.1509 0.10222 0.0
C365 C 0.52465 0.12617 0.07371 0.0
O366 O 0.48771 0.15072 0.08813 0.0
Zn367 Zn 0.50499 0.1381 0.08848 0.0
O368 O 0.49404 0.14348 0.11106 0.0
Zn369 Zn 0.51385 0.12916 0.10816 0.0
O370 O 0.52862 0.13928 0.11989 0.0
O371 O 0.5218 0.1521 0.09971 0.0
O372 O 0.52614 0.12338 0.08783 0.0
O373 O 0.51368 0.13418 0.06928 0.0
O374 O 0.49554 0.11656 0.09518 0.0
O375 O 0.50763 0.11009 0.11588 0.0
C376 C 0.52982 0.15095 0.11172 0.0
C377 C 0.49776 0.10718 0.10597 0.0
C378 C 0.62205 0.77495 0.82194 0.0
C379 C 0.5958 0.73643 0.85034 0.0
O380 O 0.61375 0.76426 0.81734 0.0
Zn381 Zn 0.6093 0.75563 0.83652 0.0
O382 O 0.62472 0.7763 0.83609 0.0
Zn383 Zn 0.6184 0.76427 0.85633 0.0
O384 O 0.6372 0.75732 0.86413 0.0
O385 O 0.63036 0.74541 0.84343 0.0
O386 O 0.60349 0.74499 0.85913 0.0
O387 O 0.59604 0.73876 0.83623 0.0
O388 O 0.59581 0.77293 0.84759 0.0
O389 O 0.60856 0.77942 0.86792 0.0
C390 C 0.63975 0.74728 0.85427 0.0
C391 C 0.59704 0.78096 0.85958 0.0
C392 C 0.96845 0.14928 0.88796 0.0
C393 C 0.0018 0.10638 0.89303 0.0
O394 O 0.96984 0.13772 0.87965 0.0
Zn395 Zn 0.98487 0.12782 0.89126 0.0
O396 O 0.97648 0.15044 0.89996 0.0
Zn397 Zn 0.99364 0.13672 0.91103 0.0
O398 O 0.01053 0.14992 0.91141 0.0
O399 O 0.00419 0.14279 0.88844 0.0
O400 O 0.00383 0.11568 0.90392 0.0
O401 O 0.99165 0.10903 0.88334 0.0
O402 O 0.97268 0.12162 0.91148 0.0
O403 O 0.98499 0.13227 0.93022 0.0
C404 C 0.01279 0.15038 0.89729 0.0
C405 C 0.97411 0.12422 0.92565 0.0
C406 C 0.61316 0.22812 0.67169 0.0
C407 C 0.58703 0.26016 0.63528 0.0
O408 O 0.60378 0.23862 0.67425 0.0
Zn409 Zn 0.601 0.24504 0.65355 0.0
O410 O 0.61736 0.22555 0.6581 0.0
Zn411 Zn 0.61258 0.2342 0.63597 0.0
O412 O 0.6316 0.24155 0.62915 0.0
O413 O 0.62221 0.25544 0.64749 0.0
O414 O 0.59645 0.25126 0.6288 0.0
O415 O 0.58628 0.26043 0.64958 0.0
O416 O 0.58976 0.22588 0.64362 0.0
O417 O 0.60496 0.2164 0.62628 0.0
C418 C 0.63277 0.25276 0.63795 0.0
C419 C 0.59257 0.21601 0.63344 0.0
C420 C 0.53109 0.84632 0.38749 0.0
C421 C 0.49715 0.8886 0.39373 0.0
O422 O 0.52947 0.85806 0.37949 0.0
Zn423 Zn 0.5143 0.86742 0.39136 0.0
O424 O 0.52312 0.84472 0.39948 0.0
Zn425 Zn 0.50578 0.8579 0.41094 0.0
O426 O 0.48905 0.84448 0.41106 0.0
O427 O 0.49515 0.85229 0.38825 0.0
O428 O 0.49528 0.87901 0.40441 0.0
O429 O 0.50725 0.88628 0.3839 0.0
O430 O 0.52639 0.87344 0.41171 0.0
O431 O 0.51442 0.86202 0.43021 0.0
C432 C 0.4867 0.84436 0.39696 0.0
C433 C 0.52507 0.87047 0.42581 0.0
C434 C 0.87748 0.77648 0.17655 0.0
C435 C 0.90229 0.73671 0.14869 0.0
O436 O 0.88567 0.76572 0.18113 0.0
Zn437 Zn 0.88946 0.75658 0.16208 0.0
O438 O 0.87446 0.77759 0.16244 0.0
Zn439 Zn 0.88008 0.76485 0.14237 0.0
O440 O 0.86099 0.75813 0.13515 0.0
O441 O 0.86806 0.74644 0.15588 0.0
O442 O 0.8946 0.74514 0.13975 0.0
O443 O 0.90237 0.73951 0.1627 0.0
O444 O 0.9031 0.77327 0.15014 0.0
O445 O 0.88985 0.77941 0.13003 0.0
C446 C 0.85847 0.74829 0.1452 0.0
C447 C 0.90166 0.78094 0.13793 0.0
C448 C 0.60108 0.00624 0.88582 0.0
C449 C 0.60896 0.97279 0.84352 0.0
O450 O 0.61107 0.99629 0.88354 0.0
Zn451 Zn 0.60425 0.98952 0.8645 0.0
O452 O 0.59058 0.00818 0.87601 0.0
Zn453 Zn 0.5847 0.99753 0.85456 0.0
O454 O 0.56552 0.98831 0.85825 0.0
O455 O 0.58411 0.97675 0.86993 0.0
O456 O 0.59673 0.98034 0.84177 0.0
O457 O 0.61685 0.97482 0.85526 0.0
O458 O 0.60718 0.0091 0.84989 0.0
O459 O 0.58461 0.0139 0.84055 0.0
C460 C 0.57005 0.97767 0.86665 0.0
C461 C 0.59855 0.01695 0.84131 0.0
C462 C 0.73585 0.85084 0.59595 0.0
C463 C 0.77527 0.82305 0.62152 0.0
O464 O 0.7384 0.83678 0.59631 0.0
Zn465 Zn 0.7555 0.83742 0.60921 0.0
O466 O 0.7444 0.85984 0.60343 0.0
Zn467 Zn 0.76401 0.8573 0.61805 0.0
O468 O 0.77874 0.86916 0.60805 0.0
O469 O 0.77238 0.84877 0.59533 0.0
O470 O 0.77651 0.83723 0.62416 0.0
O471 O 0.76445 0.81835 0.61346 0.0
O472 O 0.74562 0.84423 0.63053 0.0
O473 O 0.75747 0.8651 0.63693 0.0
C474 C 0.78021 0.86091 0.59648 0.0
C475 C 0.74764 0.85514 0.63981 0.0
C476 C 0.89363 0.99901 0.39044 0.0
C477 C 0.88761 0.03237 0.34763 0.0
O478 O 0.8838 0.00909 0.38796 0.0
Zn479 Zn 0.89146 0.01598 0.36907 0.0
O480 O 0.90439 0.9971 0.38096 0.0
Zn481 Zn 0.91112 0.00743 0.35987 0.0
O482 O 0.93029 0.01596 0.36422 0.0
O483 O 0.91174 0.02825 0.37521 0.0
O484 O 0.8997 0.0245 0.34627 0.0
O485 O 0.87956 0.0309 0.35935 0.0
O486 O 0.88865 0.99651 0.35419 0.0
O487 O 0.91163 0.99057 0.34673 0.0
C488 C 0.92588 0.02672 0.37251 0.0
C489 C 0.89756 0.98803 0.34651 0.0
C490 C 0.76261 0.14884 0.09414 0.0
C491 C 0.72359 0.17738 0.11959 0.0
O492 O 0.76022 0.16294 0.09435 0.0
Zn493 Zn 0.74328 0.16264 0.10748 0.0
O494 O 0.75407 0.14005 0.10187 0.0
Zn495 Zn 0.73468 0.14298 0.11675 0.0
O496 O 0.71979 0.13096 0.10701 0.0
O497 O 0.72629 0.15107 0.0939 0.0
O498 O 0.72229 0.16326 0.12253 0.0
O499 O 0.73441 0.18185 0.11141 0.0
O500 O 0.75346 0.15612 0.12875 0.0
O501 O 0.74153 0.1355 0.13574 0.0
C502 C 0.71839 0.13899 0.09526 0.0
C503 C 0.75153 0.14538 0.13827 0.0
C504 C 0.60899 0.03251 0.652 0.0
C505 C 0.60569 0.99778 0.60991 0.0
O506 O 0.61747 0.03104 0.64059 0.0
Zn507 Zn 0.60676 0.01511 0.63106 0.0
O508 O 0.5974 0.02392 0.65339 0.0
Zn509 Zn 0.58743 0.00572 0.64018 0.0
O510 O 0.58775 0.98919 0.65367 0.0
O511 O 0.61046 0.99613 0.6463 0.0
O512 O 0.59491 0.99551 0.61929 0.0
O513 O 0.61505 0.00829 0.61238 0.0
O514 O 0.58585 0.02594 0.62433 0.0
O515 O 0.56785 0.01288 0.63541 0.0
C516 C 0.60191 0.98735 0.65405 0.0
C517 C 0.57178 0.02365 0.6269 0.0
C518 C 0.71921 0.86113 0.40267 0.0
C519 C 0.75205 0.85467 0.35963 0.0
O520 O 0.72063 0.86907 0.39088 0.0
Zn521 Zn 0.73553 0.8571 0.38127 0.0
O522 O 0.72717 0.84911 0.40417 0.0
Zn523 Zn 0.74424 0.83758 0.39064 0.0
O524 O 0.76128 0.83745 0.40364 0.0
O525 O 0.75506 0.86026 0.39591 0.0
O526 O 0.7542 0.844 0.36918 0.0
O527 O 0.74203 0.86451 0.36223 0.0
O528 O 0.72328 0.83672 0.37563 0.0
O529 O 0.73549 0.81827 0.38688 0.0
C530 C 0.76368 0.85155 0.40365 0.0
C531 C 0.72465 0.82263 0.37866 0.0
C532 C 0.89779 0.01427 0.15224 0.0
C533 C 0.9255 0.97452 0.1268 0.0
O534 O 0.91185 0.01167 0.15192 0.0
Zn535 Zn 0.91116 0.99453 0.13899 0.0
O536 O 0.8888 0.00575 0.14472 0.0
Zn537 Zn 0.89131 0.98609 0.13007 0.0
O538 O 0.87924 0.97149 0.14005 0.0
O539 O 0.89955 0.97781 0.15291 0.0
O540 O 0.91132 0.97337 0.12409 0.0
O541 O 0.93021 0.98535 0.13483 0.0
O542 O 0.90446 0.00453 0.11765 0.0
O543 O 0.88362 0.99271 0.11116 0.0
C544 C 0.88736 0.97006 0.15172 0.0
C545 C 0.89357 0.00256 0.10833 0.0
C546 C 0.77804 0.13781 0.89917 0.0
C547 C 0.74422 0.14565 0.85682 0.0
O548 O 0.77627 0.12986 0.8874 0.0
Zn549 Zn 0.76145 0.14231 0.87794 0.0
O550 O 0.7704 0.15001 0.90074 0.0
Zn551 Zn 0.75345 0.16208 0.88772 0.0
O552 O 0.73675 0.1625 0.90114 0.0
O553 O 0.74225 0.13963 0.89302 0.0
O554 O 0.7428 0.15621 0.8666 0.0
O555 O 0.75399 0.13542 0.85889 0.0
O556 O 0.77417 0.16239 0.8723 0.0
O557 O 0.76266 0.18111 0.88386 0.0
C558 C 0.73404 0.14845 0.90106 0.0
C559 C 0.77324 0.17648 0.87545 0.0
C560 C 0.87154 0.57366 0.97496 0.0
C561 C 0.8461 0.60191 0.01411 0.0
O562 O 0.86343 0.56914 0.98582 0.0
Zn563 Zn 0.8593 0.58832 0.99454 0.0
O564 O 0.87425 0.58781 0.97354 0.0
Zn565 Zn 0.86819 0.60806 0.98587 0.0
O566 O 0.8871 0.61588 0.99228 0.0
O567 O 0.8807 0.5951 0.00428 0.0
O568 O 0.85357 0.61085 0.0055 0.0
O569 O 0.84644 0.58783 0.01165 0.0
O570 O 0.84544 0.59955 0.97756 0.0
O571 O 0.85828 0.61982 0.97104 0.0
C572 C 0.89002 0.60597 0.00214 0.0
C573 C 0.84666 0.61162 0.96963 0.0
C574 C 0.37184 0.92685 0.02266 0.0
C575 C 0.34631 0.89784 0.98406 0.0
O576 O 0.36361 0.93122 0.01183 0.0
Zn577 Zn 0.35963 0.91193 0.00315 0.0
O578 O 0.37484 0.91276 0.02404 0.0
Zn579 Zn 0.36918 0.89239 0.01185 0.0
O580 O 0.38818 0.88507 0.00484 0.0
O581 O 0.38073 0.90543 0.99273 0.0
O582 O 0.35422 0.8892 0.99259 0.0
O583 O 0.3463 0.91196 0.98636 0.0
O584 O 0.34634 0.90042 0.02033 0.0
O585 O 0.3596 0.88043 0.0269 0.0
C586 C 0.39039 0.89483 0.99464 0.0
C587 C 0.34783 0.88842 0.02833 0.0
C588 C 0.85116 0.59681 0.73592 0.0
C589 C 0.82308 0.62209 0.77534 0.0
O590 O 0.83709 0.59708 0.73845 0.0
Zn591 Zn 0.83764 0.61002 0.75551 0.0
O592 O 0.86009 0.60437 0.74447 0.0
Zn593 Zn 0.85739 0.61904 0.76407 0.0
O594 O 0.86939 0.60913 0.77877 0.0
O595 O 0.84914 0.59619 0.77235 0.0
O596 O 0.83723 0.62488 0.77663 0.0
O597 O 0.81851 0.61406 0.76444 0.0
O598 O 0.84429 0.63134 0.74552 0.0
O599 O 0.865 0.63802 0.75748 0.0
C600 C 0.86128 0.59744 0.78018 0.0
C601 C 0.85511 0.64074 0.74754 0.0
C602 C 0.1294 0.07692 0.52623 0.0
C603 C 0.15429 0.10518 0.48677 0.0
O604 O 0.13774 0.07256 0.51549 0.0
Zn605 Zn 0.14146 0.0917 0.50658 0.0
O606 O 0.12628 0.091 0.5275 0.0
Zn607 Zn 0.13194 0.11127 0.51491 0.0
O608 O 0.11283 0.11848 0.50811 0.0
O609 O 0.12005 0.09785 0.49635 0.0
O610 O 0.14653 0.11408 0.49519 0.0
O611 O 0.15442 0.09116 0.48959 0.0
O612 O 0.15501 0.10362 0.52336 0.0
O613 O 0.14161 0.12359 0.5296 0.0
C614 C 0.1104 0.10848 0.4982 0.0
C615 C 0.15349 0.11578 0.5311 0.0
C616 C 0.17943 0.87727 0.77169 0.0
C617 C 0.15002 0.9027 0.73328 0.0
O618 O 0.18378 0.88529 0.76069 0.0
Zn619 Zn 0.16434 0.8896 0.75234 0.0
O620 O 0.1653 0.87479 0.77351 0.0
Zn621 Zn 0.14475 0.8811 0.76221 0.0
O622 O 0.13638 0.86218 0.75607 0.0
O623 O 0.15677 0.86832 0.74329 0.0
O624 O 0.1414 0.8956 0.74254 0.0
O625 O 0.16422 0.90201 0.7349 0.0
O626 O 0.15381 0.90415 0.76895 0.0
O627 O 0.13425 0.89156 0.77788 0.0
C628 C 0.14588 0.85915 0.74583 0.0
C629 C 0.14246 0.90328 0.77788 0.0
C630 C 0.6275 0.42946 0.48184 0.0
C631 C 0.65529 0.4004 0.51879 0.0
O632 O 0.63651 0.4338 0.49204 0.0
Zn633 Zn 0.64076 0.41457 0.50081 0.0
O634 O 0.62402 0.41544 0.48097 0.0
Zn635 Zn 0.62986 0.39522 0.49323 0.0
O636 O 0.61126 0.38882 0.50223 0.0
O637 O 0.6208 0.40874 0.51357 0.0
O638 O 0.64632 0.39194 0.51118 0.0
O639 O 0.65563 0.41448 0.51624 0.0
O640 O 0.65225 0.40226 0.4829 0.0
O641 O 0.63797 0.38256 0.47771 0.0
C642 C 0.61062 0.39852 0.51272 0.0
C643 C 0.64986 0.39017 0.47529 0.0
C644 C 0.85649 0.35927 0.7537 0.0
C645 C 0.86205 0.40154 0.71969 0.0
O646 O 0.86641 0.36177 0.74373 0.0
Zn647 Zn 0.85861 0.38045 0.73661 0.0
O648 O 0.84566 0.36869 0.75551 0.0
Zn649 Zn 0.83889 0.38975 0.7451 0.0
O650 O 0.81968 0.38527 0.73664 0.0
O651 O 0.83827 0.37383 0.72481 0.0
O652 O 0.85006 0.403 0.72768 0.0
O653 O 0.87023 0.38993 0.72132 0.0
O654 O 0.86151 0.39562 0.75573 0.0
O655 O 0.8386 0.40316 0.7618 0.0
C656 C 0.82413 0.37659 0.7262 0.0
C657 C 0.85269 0.40343 0.76416 0.0
C658 C 0.63774 0.59419 0.22032 0.0
C659 C 0.64425 0.63748 0.25293 0.0
O660 O 0.62958 0.60583 0.22187 0.0
Zn661 Zn 0.64161 0.6157 0.2366 0.0
O662 O 0.64989 0.59291 0.22811 0.0
Zn663 Zn 0.66144 0.60656 0.24499 0.0
O664 O 0.66191 0.59361 0.2621 0.0
O665 O 0.63895 0.6011 0.25621 0.0
O666 O 0.65505 0.62802 0.25483 0.0
O667 O 0.63412 0.63471 0.24325 0.0
O668 O 0.66176 0.62161 0.22404 0.0
O669 O 0.68054 0.61054 0.23592 0.0
C670 C 0.64786 0.59347 0.26472 0.0
C671 C 0.6759 0.61875 0.22519 0.0
C672 C 0.49699 0.61002 0.89591 0.0
C673 C 0.53049 0.65238 0.88809 0.0
O674 O 0.49534 0.61986 0.9064 0.0
Zn675 Zn 0.50556 0.64125 0.91211 0.0
O676 O 0.50675 0.6122 0.88571 0.0
Zn677 Zn 0.51391 0.63126 0.89261 0.0
O678 O 0.52621 0.62579 0.91298 0.0
O679 O 0.51453 0.63773 0.93136 0.0
O680 O 0.52891 0.64047 0.88034 0.0
O681 O 0.52264 0.65417 0.90013 0.0
O682 O 0.48867 0.65456 0.91196 0.0
O683 O 0.49473 0.64621 0.88934 0.0
C684 C 0.5251 0.62914 0.92701 0.0
C685 C 0.48628 0.65432 0.89786 0.0
C686 C 0.59533 0.23484 0.14972 0.0
C687 C 0.62041 0.27362 0.17876 0.0
O688 O 0.60243 0.24395 0.14094 0.0
Zn689 Zn 0.61694 0.26375 0.14415 0.0
O690 O 0.59595 0.23674 0.16388 0.0
Zn691 Zn 0.60836 0.25408 0.1637 0.0
O692 O 0.59379 0.27057 0.15287 0.0
O693 O 0.60655 0.27926 0.13333 0.0
O694 O 0.61251 0.26254 0.18307 0.0
O695 O 0.62302 0.27539 0.16465 0.0
O696 O 0.63592 0.25752 0.13593 0.0
O697 O 0.6296 0.24473 0.15625 0.0
C698 C 0.59476 0.27936 0.14141 0.0
C699 C 0.63882 0.24719 0.14538 0.0
C700 C 0.97118 0.37254 0.42653 0.0
C701 C 0.01003 0.34721 0.3978 0.0
O702 O 0.96976 0.37548 0.41243 0.0
Zn703 Zn 0.98202 0.36973 0.39209 0.0
O704 O 0.98205 0.36437 0.43092 0.0
Zn705 Zn 0.99071 0.36036 0.41168 0.0
O706 O 0.00095 0.38155 0.40511 0.0
O707 O 0.9889 0.38876 0.38464 0.0
O708 O 0.00761 0.34722 0.41189 0.0
O709 O 0.00146 0.35497 0.38907 0.0
O710 O 0.96704 0.35995 0.38019 0.0
O711 O 0.97359 0.34687 0.40029 0.0
C712 C 0.99903 0.39113 0.39444 0.0
C713 C 0.9656 0.34824 0.38828 0.0
C714 C 0.90401 0.76376 0.64783 0.0
C715 C 0.87829 0.72481 0.6763 0.0
O716 O 0.89632 0.7552 0.63903 0.0
Zn717 Zn 0.88148 0.73579 0.64193 0.0
O718 O 0.90376 0.76138 0.66193 0.0
Zn719 Zn 0.89063 0.74441 0.66163 0.0
O720 O 0.90421 0.7273 0.65026 0.0
O721 O 0.89119 0.72086 0.63008 0.0
O722 O 0.8865 0.7356 0.68083 0.0
O723 O 0.87548 0.72351 0.66217 0.0
O724 O 0.86258 0.74249 0.63431 0.0
O725 O 0.86934 0.75447 0.65498 0.0
C726 C 0.90285 0.71937 0.63821 0.0
C727 C 0.85991 0.75244 0.6442 0.0
C728 C 0.53097 0.3739 0.58794 0.0
C729 C 0.4963 0.34717 0.62223 0.0
O730 O 0.53218 0.37395 0.60227 0.0
Zn731 Zn 0.51415 0.36169 0.60645 0.0
O732 O 0.52007 0.36675 0.58173 0.0
Zn733 Zn 0.50112 0.35328 0.58703 0.0
O734 O 0.48406 0.3657 0.58012 0.0
O735 O 0.49667 0.37603 0.59895 0.0
O736 O 0.49359 0.34592 0.60816 0.0
O737 O 0.50701 0.3556 0.62678 0.0
O738 O 0.52116 0.34064 0.59762 0.0
O739 O 0.50691 0.3337 0.57833 0.0
C740 C 0.48605 0.37665 0.5892 0.0
C741 C 0.51787 0.33116 0.58728 0.0
C742 C 0.9032 0.23382 0.85116 0.0
C743 C 0.87843 0.27344 0.82308 0.0
O744 O 0.89567 0.24239 0.86009 0.0
Zn745 Zn 0.88123 0.26213 0.85739 0.0
O746 O 0.90307 0.23645 0.83711 0.0
Zn747 Zn 0.8903 0.25361 0.83763 0.0
O748 O 0.9041 0.27042 0.84916 0.0
O749 O 0.89117 0.27678 0.86943 0.0
O750 O 0.88646 0.26254 0.81852 0.0
O751 O 0.87557 0.27473 0.83721 0.0
O752 O 0.86215 0.2557 0.86484 0.0
O753 O 0.8688 0.24389 0.84403 0.0
C754 C 0.90284 0.27824 0.8613 0.0
C755 C 0.85935 0.24594 0.8548 0.0
C756 C 0.97438 0.62928 0.07271 0.0
C757 C 0.01224 0.65512 0.10241 0.0
O758 O 0.97307 0.62606 0.08675 0.0
Zn759 Zn 0.98485 0.63178 0.10725 0.0
O760 O 0.98489 0.63797 0.06844 0.0
Zn761 Zn 0.99342 0.64188 0.08786 0.0
O762 O 0.00402 0.62064 0.09409 0.0
O763 O 0.99177 0.6128 0.11427 0.0
O764 O 0.00969 0.65597 0.08837 0.0
O765 O 0.00413 0.64648 0.11073 0.0
O766 O 0.96956 0.6411 0.11921 0.0
O767 O 0.97587 0.65449 0.09925 0.0
C768 C 0.002 0.61076 0.1045 0.0
C769 C 0.96787 0.65282 0.11119 0.0
C770 C 0.59779 0.76292 0.35058 0.0
C771 C 0.6228 0.72403 0.32149 0.0
O772 O 0.60497 0.7538 0.35928 0.0
Zn773 Zn 0.61946 0.73405 0.35604 0.0
O774 O 0.59833 0.76107 0.33641 0.0
Zn775 Zn 0.61079 0.7437 0.33648 0.0
O776 O 0.59628 0.72725 0.34744 0.0
O777 O 0.60913 0.71859 0.36694 0.0
O778 O 0.61489 0.73509 0.31711 0.0
O779 O 0.62544 0.72236 0.3356 0.0
O780 O 0.63846 0.74029 0.36415 0.0
O781 O 0.63205 0.75304 0.34383 0.0
C782 C 0.5973 0.71849 0.35892 0.0
C783 C 0.64131 0.75059 0.35466 0.0
C784 C 0.89782 0.48584 0.65355 0.0
C785 C 0.92636 0.52439 0.62753 0.0
O786 O 0.889 0.49441 0.6459 0.0
Zn787 Zn 0.89191 0.51382 0.63105 0.0
O788 O 0.91192 0.48821 0.6533 0.0
Zn789 Zn 0.91159 0.5051 0.64015 0.0
O790 O 0.90044 0.52231 0.65374 0.0
O791 O 0.88024 0.52888 0.64084 0.0
O792 O 0.93082 0.51364 0.63581 0.0
O793 O 0.91222 0.52586 0.62482 0.0
O794 O 0.88412 0.50704 0.61222 0.0
O795 O 0.90469 0.4949 0.61904 0.0
C796 C 0.88844 0.53033 0.65246 0.0
C797 C 0.89387 0.49692 0.60964 0.0
C798 C 0.75131 0.64399 0.85938 0.0
C799 C 0.71801 0.63783 0.90223 0.0
O800 O 0.75333 0.65468 0.86893 0.0
Zn801 Zn 0.74315 0.66123 0.89018 0.0
O802 O 0.74121 0.6342 0.86185 0.0
Zn803 Zn 0.73444 0.64169 0.88083 0.0
O804 O 0.72228 0.6621 0.87502 0.0
O805 O 0.73458 0.68052 0.88624 0.0
O806 O 0.71942 0.62981 0.89047 0.0
O807 O 0.72601 0.64983 0.90367 0.0
O808 O 0.76002 0.66144 0.9033 0.0
O809 O 0.75384 0.63858 0.89568 0.0
C810 C 0.72375 0.67619 0.87799 0.0
C811 C 0.76239 0.64734 0.90344 0.0
C812 C 0.60031 0.51148 0.15298 0.0
C813 C 0.57242 0.47209 0.12747 0.0
O814 O 0.60928 0.503 0.14538 0.0
Zn815 Zn 0.60667 0.48348 0.13056 0.0
O816 O 0.58624 0.50893 0.15266 0.0
Zn817 Zn 0.58688 0.49196 0.13962 0.0
O818 O 0.59848 0.47516 0.15339 0.0
O819 O 0.61875 0.46878 0.14047 0.0
O820 O 0.56781 0.48296 0.1355 0.0
O821 O 0.58658 0.47084 0.12469 0.0
O822 O 0.61425 0.49028 0.11162 0.0
O823 O 0.59355 0.50216 0.11843 0.0
C824 C 0.61065 0.46738 0.15216 0.0
C825 C 0.60437 0.50025 0.10901 0.0
C826 C 0.77001 0.32082 0.38191 0.0
C827 C 0.73034 0.34908 0.40714 0.0
O828 O 0.7712 0.33499 0.37923 0.0
Zn829 Zn 0.7587 0.3551 0.38513 0.0
O830 O 0.75912 0.31611 0.38989 0.0
Zn831 Zn 0.75 0.33528 0.394 0.0
O832 O 0.74036 0.34204 0.37249 0.0
O833 O 0.75238 0.36284 0.36618 0.0
O834 O 0.73268 0.33497 0.40687 0.0
O835 O 0.73908 0.35787 0.39963 0.0
O836 O 0.77341 0.36694 0.39513 0.0
O837 O 0.76689 0.34663 0.40792 0.0
C838 C 0.74255 0.35292 0.36319 0.0
C839 C 0.77479 0.35873 0.40675 0.0
C840 C 0.88911 0.47 0.84787 0.0
C841 C 0.89564 0.5033 0.89056 0.0
O842 O 0.90129 0.47772 0.84648 0.0
Zn843 Zn 0.91296 0.4947 0.85994 0.0
O844 O 0.88101 0.47166 0.85954 0.0
Zn845 Zn 0.89313 0.48644 0.86916 0.0
O846 O 0.89054 0.50578 0.85419 0.0
O847 O 0.91354 0.51156 0.84669 0.0
O848 O 0.88564 0.49342 0.88802 0.0
O849 O 0.90645 0.50507 0.88111 0.0
O850 O 0.93202 0.48561 0.86412 0.0
O851 O 0.91316 0.47383 0.87516 0.0
C852 C 0.89947 0.51415 0.84644 0.0
C853 C 0.92731 0.4749 0.87233 0.0
C854 C 0.77462 0.67637 0.12353 0.0
C855 C 0.73571 0.64821 0.09757 0.0
O856 O 0.77611 0.6622 0.12607 0.0
Zn857 Zn 0.76385 0.64198 0.11982 0.0
O858 O 0.76369 0.68094 0.11556 0.0
Zn859 Zn 0.75505 0.66176 0.1111 0.0
O860 O 0.74501 0.65456 0.13223 0.0
O861 O 0.75726 0.63392 0.13861 0.0
O862 O 0.73805 0.66231 0.09809 0.0
O863 O 0.74434 0.63926 0.10501 0.0
O864 O 0.77878 0.63038 0.10976 0.0
O865 O 0.77211 0.65075 0.09715 0.0
C866 C 0.74714 0.6436 0.14144 0.0
C867 C 0.78012 0.63871 0.09822 0.0
C868 C 0.5744 0.52494 0.37563 0.0
C869 C 0.60136 0.48477 0.35042 0.0
O870 O 0.5886 0.52601 0.37825 0.0
Zn871 Zn 0.60845 0.51297 0.37231 0.0
O872 O 0.56954 0.51405 0.36776 0.0
Zn873 Zn 0.5884 0.50473 0.36364 0.0
O874 O 0.59494 0.49498 0.38507 0.0
O875 O 0.6161 0.50636 0.39131 0.0
O876 O 0.58735 0.48754 0.35092 0.0
O877 O 0.61057 0.49321 0.35776 0.0
O878 O 0.62061 0.52737 0.36208 0.0
O879 O 0.60005 0.52124 0.34952 0.0
C880 C 0.6059 0.49683 0.39434 0.0
C881 C 0.61234 0.52885 0.35051 0.0
C882 C 0.75135 0.35006 0.64511 0.0
C883 C 0.72021 0.35931 0.60149 0.0
O884 O 0.75344 0.33965 0.63529 0.0
Zn885 Zn 0.7436 0.33411 0.61363 0.0
O886 O 0.74153 0.36014 0.64269 0.0
Zn887 Zn 0.73531 0.3537 0.62323 0.0
O888 O 0.72163 0.33393 0.62736 0.0
O889 O 0.73376 0.31516 0.61659 0.0
O890 O 0.72151 0.3668 0.6136 0.0
O891 O 0.72759 0.34693 0.59988 0.0
O892 O 0.76092 0.33358 0.60098 0.0
O893 O 0.75526 0.35644 0.60902 0.0
C894 C 0.72252 0.31988 0.62405 0.0
C895 C 0.76372 0.3476 0.60125 0.0
C896 C 0.65239 0.8978 0.48612 0.0
C897 C 0.6273 0.92637 0.52532 0.0
O898 O 0.64477 0.88902 0.49478 0.0
Zn899 Zn 0.63009 0.89198 0.51429 0.0
O900 O 0.65215 0.91191 0.48842 0.0
Zn901 Zn 0.63918 0.91165 0.50549 0.0
O902 O 0.65295 0.90026 0.52242 0.0
O903 O 0.64001 0.8801 0.52911 0.0
O904 O 0.63524 0.93088 0.51433 0.0
O905 O 0.62445 0.91225 0.52669 0.0
O906 O 0.61106 0.88443 0.50775 0.0
O907 O 0.61786 0.90498 0.49558 0.0
C908 C 0.65171 0.88822 0.53039 0.0
C909 C 0.6084 0.89422 0.4977 0.0
C910 C 0.15403 0.60037 0.51378 0.0
C911 C 0.12857 0.57239 0.47429 0.0
O912 O 0.1464 0.60925 0.50524 0.0
Zn913 Zn 0.1318 0.60662 0.48566 0.0
O914 O 0.15391 0.5863 0.51121 0.0
Zn915 Zn 0.14094 0.58678 0.49409 0.0
O916 O 0.15465 0.59837 0.47729 0.0
O917 O 0.14171 0.61863 0.47094 0.0
O918 O 0.13681 0.5677 0.48499 0.0
O919 O 0.12579 0.58654 0.47316 0.0
O920 O 0.11286 0.61418 0.49238 0.0
O921 O 0.1196 0.59333 0.50408 0.0
C922 C 0.15339 0.61052 0.4695 0.0
C923 C 0.11018 0.60415 0.50219 0.0
C924 C 0.63914 0.90281 0.71899 0.0
C925 C 0.645 0.85969 0.75178 0.0
O926 O 0.65117 0.90414 0.72697 0.0
Zn927 Zn 0.6625 0.89043 0.74399 0.0
O928 O 0.63103 0.89112 0.72037 0.0
Zn929 Zn 0.64278 0.88136 0.7353 0.0
O930 O 0.63988 0.89618 0.75467 0.0
O931 O 0.6628 0.90345 0.76104 0.0
O932 O 0.63508 0.86247 0.74189 0.0
O933 O 0.65582 0.86908 0.75386 0.0
O934 O 0.6817 0.88632 0.73518 0.0
O935 O 0.663 0.87536 0.72307 0.0
C936 C 0.64868 0.9038 0.7633 0.0
C937 C 0.67714 0.87813 0.72439 0.0
C938 C 0.34482 0.39469 0.01214 0.0
C939 C 0.37063 0.42493 0.97478 0.0
O940 O 0.35334 0.38637 0.0039 0.0
Zn941 Zn 0.36809 0.39014 0.98461 0.0
O942 O 0.34422 0.40878 0.00983 0.0
Zn943 Zn 0.35822 0.40937 0.99357 0.0
O944 O 0.34538 0.39837 0.97584 0.0
O945 O 0.35872 0.37851 0.96915 0.0
O946 O 0.36207 0.42894 0.9855 0.0
O947 O 0.37383 0.41091 0.97312 0.0
O948 O 0.38706 0.38279 0.99124 0.0
O949 O 0.37955 0.4028 0.00393 0.0
C950 C 0.34701 0.38657 0.96761 0.0
C951 C 0.38931 0.39234 0.00163 0.0
C952 C 0.32982 0.61588 0.71965 0.0
C953 C 0.35772 0.59123 0.75949 0.0
O954 O 0.34396 0.61873 0.71826 0.0
Zn955 Zn 0.36424 0.61282 0.73084 0.0
O956 O 0.32538 0.60773 0.73051 0.0
Zn957 Zn 0.34444 0.60383 0.73943 0.0
O958 O 0.35097 0.62527 0.74917 0.0
O959 O 0.3718 0.63201 0.73745 0.0
O960 O 0.3437 0.59126 0.75667 0.0
O961 O 0.36674 0.59865 0.7509 0.0
O962 O 0.37631 0.60231 0.71627 0.0
O963 O 0.35597 0.58973 0.72298 0.0
C964 C 0.36176 0.63473 0.74727 0.0
C965 C 0.36812 0.59064 0.71515 0.0
C966 C 0.8437 0.09895 0.98266 0.0
C967 C 0.86888 0.07107 0.0224 0.0
O968 O 0.85141 0.10785 0.99109 0.0
Zn969 Zn 0.86605 0.10526 0.01068 0.0
O970 O 0.84373 0.08491 0.98538 0.0
Zn971 Zn 0.85674 0.08545 0.00247 0.0
O972 O 0.84319 0.09731 0.01927 0.0
O973 O 0.85635 0.11753 0.0253 0.0
O974 O 0.86064 0.0664 0.01171 0.0
O975 O 0.87182 0.08521 0.02342 0.0
O976 O 0.88509 0.11254 0.00393 0.0
O977 O 0.87819 0.09163 0.99244 0.0
C978 C 0.84461 0.10953 0.02694 0.0
C979 C 0.88773 0.10237 0.99425 0.0
C980 C 0.63847 0.14703 0.7458 0.0
C981 C 0.63449 0.10262 0.77775 0.0
O982 O 0.64936 0.13782 0.74335 0.0
Zn983 Zn 0.65674 0.11648 0.75249 0.0
O984 O 0.62897 0.14401 0.75604 0.0
Zn985 Zn 0.63724 0.12489 0.76223 0.0
O986 O 0.65785 0.13067 0.77411 0.0
O987 O 0.67613 0.12043 0.76085 0.0
O988 O 0.62637 0.1144 0.77768 0.0
O989 O 0.64596 0.10173 0.76895 0.0
O990 O 0.65704 0.10424 0.73509 0.0
O991 O 0.63402 0.1103 0.74237 0.0
C992 C 0.67195 0.12802 0.77219 0.0
C993 C 0.64289 0.10336 0.73322 0.0
C994 C 0.85514 0.86081 0.24778 0.0
C995 C 0.86047 0.90384 0.28092 0.0
O996 O 0.84423 0.87012 0.24582 0.0
Zn997 Zn 0.83725 0.89126 0.25591 0.0
O998 O 0.86499 0.86355 0.25776 0.0
Zn999 Zn 0.85711 0.88234 0.26453 0.0
O1000 O 0.83696 0.87601 0.27675 0.0
O1001 O 0.81812 0.88679 0.26472 0.0
O1002 O 0.86878 0.89229 0.27949 0.0
O1003 O 0.84841 0.90499 0.27297 0.0
O1004 O 0.83682 0.90439 0.23893 0.0
O1005 O 0.8598 0.89718 0.24512 0.0
C1006 C 0.82278 0.8786 0.27546 0.0
C1007 C 0.85092 0.90476 0.23655 0.0
C1008 C 0.51128 0.34404 0.10309 0.0
C1009 C 0.47335 0.36955 0.07301 0.0
O1010 O 0.50915 0.34345 0.08896 0.0
Zn1011 Zn 0.49258 0.35711 0.08836 0.0
O1012 O 0.50277 0.35234 0.11138 0.0
Zn1013 Zn 0.48328 0.36696 0.10763 0.0
O1014 O 0.46748 0.35737 0.1189 0.0
O1015 O 0.47559 0.34378 0.09969 0.0
O1016 O 0.47188 0.37269 0.08704 0.0
O1017 O 0.48401 0.36099 0.06884 0.0
O1018 O 0.50278 0.37835 0.09505 0.0
O1019 O 0.48999 0.38601 0.11495 0.0
C1020 C 0.46692 0.34537 0.11115 0.0
C1021 C 0.50048 0.38814 0.10548 0.0
C1022 C 0.38027 0.7223 0.81626 0.0
C1023 C 0.40393 0.7627 0.8446 0.0
O1024 O 0.38797 0.73347 0.81179 0.0
Zn1025 Zn 0.39128 0.74281 0.83095 0.0
O1026 O 0.37707 0.72112 0.83033 0.0
Zn1027 Zn 0.38184 0.73425 0.85044 0.0
O1028 O 0.36256 0.74058 0.85741 0.0
O1029 O 0.36973 0.75282 0.83706 0.0
O1030 O 0.39622 0.75414 0.8534 0.0
O1031 O 0.40407 0.76003 0.83055 0.0
O1032 O 0.40509 0.72637 0.8432 0.0
O1033 O 0.39154 0.71997 0.86305 0.0
C1034 C 0.36006 0.75066 0.84762 0.0
C1035 C 0.40356 0.7187 0.85542 0.0
C1036 C 0.98575 0.65276 0.60004 0.0
C1037 C 0.02477 0.62731 0.57165 0.0
O1038 O 0.98832 0.6527 0.58598 0.0
Zn1039 Zn 0.00517 0.6395 0.58634 0.0
O1040 O 0.99415 0.64491 0.60886 0.0
Zn1041 Zn 0.01352 0.63 0.60596 0.0
O1042 O 0.02836 0.63943 0.61814 0.0
O1043 O 0.0222 0.65283 0.59812 0.0
O1044 O 0.02598 0.62427 0.58574 0.0
O1045 O 0.01406 0.63564 0.56718 0.0
O1046 O 0.99486 0.61822 0.59259 0.0
O1047 O 0.00664 0.61104 0.61323 0.0
C1048 C 0.02998 0.65123 0.61024 0.0
C1049 C 0.99672 0.60861 0.60325 0.0
C1050 C 0.11895 0.27687 0.32231 0.0
C1051 C 0.09349 0.2383 0.35144 0.0
O1052 O 0.11044 0.26625 0.31795 0.0
Zn1053 Zn 0.10662 0.25752 0.33725 0.0
O1054 O 0.12204 0.27818 0.33638 0.0
Zn1055 Zn 0.11627 0.26614 0.35679 0.0
O1056 O 0.13527 0.25925 0.36403 0.0
O1057 O 0.12795 0.24742 0.34345 0.0
O1058 O 0.10142 0.24686 0.36003 0.0
O1059 O 0.09342 0.24061 0.33733 0.0
O1060 O 0.0934 0.27467 0.34882 0.0
O1061 O 0.1068 0.28122 0.36872 0.0
C1062 C 0.13763 0.24932 0.35403 0.0
C1063 C 0.09498 0.28266 0.3608 0.0
C1064 C 0.51358 0.65429 0.3975 0.0
C1065 C 0.47542 0.62883 0.4272 0.0
O1066 O 0.51086 0.65535 0.41149 0.0
Zn1067 Zn 0.4946 0.64125 0.41202 0.0
O1068 O 0.50558 0.64552 0.38922 0.0
Zn1069 Zn 0.48625 0.63086 0.39273 0.0
O1070 O 0.47108 0.63994 0.38047 0.0
O1071 O 0.47714 0.65369 0.40025 0.0
O1072 O 0.47427 0.62539 0.4132 0.0
O1073 O 0.48587 0.63762 0.43142 0.0
O1074 O 0.50533 0.6199 0.40618 0.0
O1075 O 0.49323 0.6118 0.38602 0.0
C1076 C 0.46927 0.65179 0.38826 0.0
C1077 C 0.50339 0.60989 0.39589 0.0
C1078 C 0.12117 0.72616 0.17791 0.0
C1079 C 0.09598 0.76469 0.14839 0.0
O1080 O 0.1133 0.7373 0.18216 0.0
Zn1081 Zn 0.10906 0.7456 0.16267 0.0
O1082 O 0.12368 0.72426 0.1638 0.0
Zn1083 Zn 0.11751 0.73564 0.14321 0.0
O1084 O 0.13642 0.74159 0.1348 0.0
O1085 O 0.13034 0.75471 0.15499 0.0
O1086 O 0.10304 0.75541 0.13976 0.0
O1087 O 0.09668 0.76304 0.16258 0.0
O1088 O 0.09441 0.729 0.15211 0.0
O1089 O 0.10713 0.72003 0.13266 0.0
C1090 C 0.13947 0.75201 0.1441 0.0
C1091 C 0.09536 0.72005 0.14077 0.0
C1092 C 0.98545 0.34551 0.89909 0.0
C1093 C 0.02455 0.37105 0.92733 0.0
O1094 O 0.98781 0.34594 0.91318 0.0
Zn1095 Zn 0.00489 0.35884 0.9127 0.0
O1096 O 0.99409 0.353 0.89018 0.0
Zn1097 Zn 0.01364 0.36771 0.89295 0.0
O1098 O 0.02848 0.3577 0.88119 0.0
O1099 O 0.02181 0.34491 0.90145 0.0
O1100 O 0.02597 0.37373 0.91318 0.0
O1101 O 0.01365 0.36301 0.93187 0.0
O1102 O 0.99504 0.38016 0.90584 0.0
O1103 O 0.00711 0.38662 0.88513 0.0
C1104 C 0.02977 0.34605 0.88939 0.0
C1105 C 0.99716 0.38947 0.89496 0.0
C1106 C 0.38118 0.27379 0.6809 0.0
C1107 C 0.40904 0.236 0.6529 0.0
O1108 O 0.38852 0.26253 0.68582 0.0
Zn1109 Zn 0.39513 0.25509 0.66675 0.0
O1110 O 0.38044 0.27616 0.66664 0.0
Zn1111 Zn 0.38888 0.26546 0.64643 0.0
O1112 O 0.3706 0.2598 0.63601 0.0
O1113 O 0.37454 0.24674 0.65678 0.0
O1114 O 0.40278 0.24558 0.64405 0.0
O1115 O 0.40754 0.23745 0.66705 0.0
O1116 O 0.41035 0.27262 0.65922 0.0
O1117 O 0.40132 0.28092 0.63761 0.0
C1118 C 0.36648 0.24952 0.6451 0.0
C1119 C 0.41131 0.2815 0.64784 0.0
C1120 C 0.10358 0.50172 0.39023 0.0
C1121 C 0.10949 0.46902 0.34699 0.0
O1122 O 0.11321 0.49151 0.38758 0.0
Zn1123 Zn 0.10564 0.48518 0.36854 0.0
O1124 O 0.09291 0.50405 0.38072 0.0
Zn1125 Zn 0.08623 0.4942 0.3593 0.0
O1126 O 0.06684 0.48569 0.3631 0.0
O1127 O 0.08513 0.47306 0.37414 0.0
O1128 O 0.09755 0.47712 0.34557 0.0
O1129 O 0.11743 0.47022 0.35881 0.0
O1130 O 0.10899 0.50477 0.35393 0.0
O1131 O 0.08621 0.51128 0.34638 0.0
C1132 C 0.07105 0.47468 0.37117 0.0
C1133 C 0.10033 0.51352 0.34628 0.0
C1134 C 0.23554 0.35015 0.09641 0.0
C1135 C 0.27395 0.32144 0.12255 0.0
O1136 O 0.23739 0.33599 0.09724 0.0
Zn1137 Zn 0.25461 0.33625 0.10988 0.0
O1138 O 0.24461 0.35898 0.1035 0.0
Zn1139 Zn 0.2642 0.35598 0.11824 0.0
O1140 O 0.27989 0.36653 0.10788 0.0
O1141 O 0.27138 0.34671 0.09541 0.0
O1142 O 0.27567 0.33561 0.12488 0.0
O1143 O 0.26301 0.31694 0.11455 0.0
O1144 O 0.24513 0.34404 0.1309 0.0
O1145 O 0.25779 0.36452 0.13699 0.0
C1146 C 0.2802 0.35816 0.09629 0.0
C1147 C 0.24749 0.35506 0.13996 0.0
C1148 C 0.39062 0.52918 0.84794 0.0
C1149 C 0.39523 0.49628 0.89132 0.0
O1150 O 0.38196 0.52776 0.85924 0.0
Zn1151 Zn 0.39352 0.51299 0.86969 0.0
O1152 O 0.4028 0.52137 0.84725 0.0
Zn1153 Zn 0.41383 0.5046 0.86138 0.0
O1154 O 0.41484 0.48755 0.84834 0.0
O1155 O 0.39159 0.4936 0.85484 0.0
O1156 O 0.40642 0.49453 0.88231 0.0
O1157 O 0.38525 0.50605 0.88831 0.0
O1158 O 0.41324 0.52553 0.87643 0.0
O1159 O 0.43267 0.5138 0.86634 0.0
C1160 C 0.40076 0.4851 0.84753 0.0
C1161 C 0.42751 0.5245 0.87428 0.0
C1162 C 0.26335 0.64625 0.59623 0.0
C1163 C 0.22534 0.6749 0.62303 0.0
O1164 O 0.26104 0.66036 0.59655 0.0
Zn1165 Zn 0.24463 0.66005 0.61029 0.0
O1166 O 0.25502 0.63746 0.6042 0.0
Zn1167 Zn 0.23606 0.64048 0.6197 0.0
O1168 O 0.22085 0.6286 0.61034 0.0
O1169 O 0.2272 0.64869 0.59712 0.0
O1170 O 0.22391 0.66078 0.62586 0.0
O1171 O 0.23612 0.67931 0.61476 0.0
O1172 O 0.25572 0.65306 0.63094 0.0
O1173 O 0.24345 0.63282 0.6384 0.0
C1174 C 0.21924 0.63667 0.59864 0.0
C1175 C 0.25393 0.64231 0.64046 0.0
C1176 C 0.11152 0.53239 0.15153 0.0
C1177 C 0.1062 0.49942 0.10832 0.0
O1178 O 0.11986 0.53103 0.13999 0.0
Zn1179 Zn 0.10818 0.51613 0.12991 0.0
O1180 O 0.09946 0.52443 0.15259 0.0
Zn1181 Zn 0.08833 0.50745 0.13877 0.0
O1182 O 0.0878 0.49044 0.15178 0.0
O1183 O 0.11082 0.49663 0.14466 0.0
O1184 O 0.0953 0.49745 0.11763 0.0
O1185 O 0.11605 0.5094 0.11105 0.0
O1186 O 0.08801 0.52841 0.1237 0.0
O1187 O 0.06922 0.51619 0.13437 0.0
C1188 C 0.10189 0.48804 0.15217 0.0
C1189 C 0.07384 0.52702 0.12629 0.0
C1190 C 0.21784 0.36058 0.90125 0.0
C1191 C 0.25057 0.35463 0.85809 0.0
O1192 O 0.21909 0.36854 0.88945 0.0
Zn1193 Zn 0.23396 0.3567 0.87968 0.0
O1194 O 0.22589 0.3486 0.90266 0.0
Zn1195 Zn 0.24293 0.33727 0.88892 0.0
O1196 O 0.25999 0.33709 0.90178 0.0
O1197 O 0.25364 0.35993 0.89422 0.0
O1198 O 0.25282 0.34398 0.86762 0.0
O1199 O 0.24035 0.36428 0.86063 0.0
O1200 O 0.22179 0.33622 0.87407 0.0
O1201 O 0.23458 0.31794 0.88493 0.0
C1202 C 0.26236 0.35119 0.90183 0.0
C1203 C 0.22355 0.32214 0.87691 0.0
C1204 C 0.42308 0.46487 0.61784 0.0
C1205 C 0.40115 0.50524 0.64824 0.0
O1206 O 0.42959 0.475 0.62557 0.0
Zn1207 Zn 0.41199 0.48531 0.63272 0.0
O1208 O 0.40863 0.46476 0.61706 0.0
Zn1209 Zn 0.39044 0.47833 0.62619 0.0
O1210 O 0.38061 0.48691 0.609 0.0
O1211 O 0.40337 0.49623 0.61277 0.0
O1212 O 0.39106 0.49726 0.64162 0.0
O1213 O 0.41499 0.50221 0.64612 0.0
O1214 O 0.40132 0.46887 0.64743 0.0
O1215 O 0.37909 0.46392 0.63742 0.0
C1216 C 0.39109 0.49584 0.60515 0.0
C1217 C 0.3887 0.46177 0.6478 0.0
C1218 C 0.28136 0.63909 0.40236 0.0
C1219 C 0.24771 0.6449 0.3598 0.0
O1220 O 0.27976 0.63093 0.39073 0.0
Zn1221 Zn 0.26473 0.64276 0.38109 0.0
O1222 O 0.27348 0.65117 0.40373 0.0
Zn1223 Zn 0.2563 0.66254 0.39027 0.0
O1224 O 0.2395 0.66302 0.40357 0.0
O1225 O 0.24544 0.64004 0.39613 0.0
O1226 O 0.24587 0.65575 0.3692 0.0
O1227 O 0.25773 0.63503 0.36234 0.0
O1228 O 0.27693 0.66295 0.37475 0.0
O1229 O 0.26505 0.68169 0.38587 0.0
C1230 C 0.23702 0.64894 0.40386 0.0
C1231 C 0.27566 0.6771 0.37748 0.0
C1232 C 0.36692 0.07082 0.47259 0.0
C1233 C 0.3423 0.10184 0.51032 0.0
O1234 O 0.35793 0.06695 0.48301 0.0
Zn1235 Zn 0.35471 0.08658 0.49147 0.0
O1236 O 0.37066 0.08473 0.47124 0.0
Zn1237 Zn 0.36562 0.10551 0.48275 0.0
O1238 O 0.38482 0.11185 0.48956 0.0
O1239 O 0.37618 0.09211 0.50202 0.0
O1240 O 0.35125 0.10969 0.50209 0.0
O1241 O 0.34071 0.08784 0.50783 0.0
O1242 O 0.34255 0.0984 0.47393 0.0
O1243 O 0.35676 0.11772 0.46742 0.0
C1244 C 0.38645 0.10211 0.4999 0.0
C1245 C 0.3447 0.11021 0.46585 0.0
C1246 C 0.86949 0.4244 0.52712 0.0
C1247 C 0.84282 0.39603 0.48895 0.0
O1248 O 0.86093 0.42886 0.5166 0.0
Zn1249 Zn 0.8567 0.40968 0.50797 0.0
O1250 O 0.87245 0.41028 0.52837 0.0
Zn1251 Zn 0.86619 0.39 0.51617 0.0
O1252 O 0.88494 0.38253 0.50884 0.0
O1253 O 0.87771 0.40327 0.49725 0.0
O1254 O 0.85077 0.38714 0.49718 0.0
O1255 O 0.84311 0.4101 0.49147 0.0
O1256 O 0.84371 0.39818 0.52544 0.0
O1257 O 0.85699 0.37801 0.53136 0.0
C1258 C 0.88727 0.39252 0.49891 0.0
C1259 C 0.84535 0.38609 0.53327 0.0
C1260 C 0.32201 0.11972 0.27486 0.0
C1261 C 0.34984 0.09378 0.23567 0.0
O1262 O 0.31722 0.11114 0.26448 0.0
Zn1263 Zn 0.33631 0.10685 0.25536 0.0
O1264 O 0.33616 0.12256 0.27578 0.0
Zn1265 Zn 0.35618 0.11635 0.26339 0.0
O1266 O 0.36355 0.13523 0.25665 0.0
O1267 O 0.34277 0.12819 0.24491 0.0
O1268 O 0.35865 0.10204 0.24365 0.0
O1269 O 0.3359 0.0931 0.2388 0.0
O1270 O 0.3479 0.09366 0.27242 0.0
O1271 O 0.36836 0.10654 0.27814 0.0
C1272 C 0.35352 0.13774 0.24678 0.0
C1273 C 0.36014 0.09499 0.28003 0.0
C1274 C 0.6272 0.57278 0.02588 0.0
C1275 C 0.65257 0.60145 0.98691 0.0
O1276 O 0.63528 0.56835 0.01497 0.0
Zn1277 Zn 0.6394 0.58761 0.00633 0.0
O1278 O 0.62444 0.58691 0.02738 0.0
Zn1279 Zn 0.6304 0.60726 0.01521 0.0
O1280 O 0.61146 0.61505 0.00873 0.0
O1281 O 0.61809 0.59451 0.99646 0.0
O1282 O 0.64502 0.61024 0.99562 0.0
O1283 O 0.65233 0.58734 0.98923 0.0
O1284 O 0.65325 0.5988 0.02334 0.0
O1285 O 0.64037 0.61895 0.03012 0.0
C1286 C 0.60872 0.60532 0.99864 0.0
C1287 C 0.65204 0.61079 0.03138 0.0
C1288 C 0.67404 0.37665 0.27714 0.0
C1289 C 0.64653 0.40281 0.23778 0.0
O1290 O 0.67893 0.38486 0.26651 0.0
Zn1291 Zn 0.65994 0.38932 0.25737 0.0
O1292 O 0.65984 0.37405 0.27816 0.0
Zn1293 Zn 0.63989 0.38037 0.26561 0.0
O1294 O 0.6322 0.36152 0.25863 0.0
O1295 O 0.65324 0.36816 0.2472 0.0
O1296 O 0.63754 0.39518 0.24619 0.0
O1297 O 0.66059 0.40251 0.2404 0.0
O1298 O 0.64857 0.4029 0.27437 0.0
O1299 O 0.62799 0.39033 0.28043 0.0
C1300 C 0.64232 0.35881 0.24891 0.0
C1301 C 0.63639 0.40178 0.28214 0.0
C1302 C 0.12743 0.92426 0.97021 0.0
C1303 C 0.15295 0.89611 0.0094 0.0
O1304 O 0.1356 0.92877 0.98102 0.0
Zn1305 Zn 0.13962 0.90967 0.98996 0.0
O1306 O 0.12449 0.91014 0.96896 0.0
Zn1307 Zn 0.13026 0.88996 0.98157 0.0
O1308 O 0.11124 0.88261 0.98864 0.0
O1309 O 0.11845 0.90328 0.00034 0.0
O1310 O 0.14517 0.88723 0.001 0.0
O1311 O 0.1528 0.91018 0.00682 0.0
O1312 O 0.15314 0.89796 0.97304 0.0
O1313 O 0.14003 0.87778 0.96677 0.0
C1314 C 0.10886 0.89258 0.9986 0.0
C1315 C 0.15177 0.88581 0.96526 0.0
C1316 C 0.35678 0.90246 0.21681 0.0
C1317 C 0.35483 0.85799 0.24836 0.0
O1318 O 0.36524 0.89093 0.21669 0.0
Zn1319 Zn 0.3551 0.88017 0.2323 0.0
O1320 O 0.34549 0.90306 0.22585 0.0
Zn1321 Zn 0.33548 0.88803 0.24246 0.0
O1322 O 0.33544 0.90024 0.26 0.0
O1323 O 0.35835 0.89449 0.25214 0.0
O1324 O 0.3437 0.86679 0.25122 0.0
O1325 O 0.36404 0.86146 0.238 0.0
O1326 O 0.33458 0.87358 0.22107 0.0
O1327 O 0.31604 0.88341 0.2343 0.0
C1328 C 0.34962 0.90124 0.26155 0.0
C1329 C 0.32043 0.87573 0.22308 0.0
C1330 C 0.14151 0.09904 0.71719 0.0
C1331 C 0.14786 0.14192 0.75027 0.0
O1332 O 0.1336 0.11085 0.71861 0.0
Zn1333 Zn 0.14566 0.12057 0.73337 0.0
O1334 O 0.15365 0.09762 0.72498 0.0
Zn1335 Zn 0.16538 0.11129 0.7418 0.0
O1336 O 0.16588 0.09815 0.75881 0.0
O1337 O 0.14296 0.10579 0.75288 0.0
O1338 O 0.15866 0.13248 0.7522 0.0
O1339 O 0.13805 0.13941 0.7402 0.0
O1340 O 0.16575 0.12669 0.72097 0.0
O1341 O 0.18451 0.11552 0.73275 0.0
C1342 C 0.15181 0.09806 0.76137 0.0
C1343 C 0.1799 0.12388 0.72212 0.0
H1344 H 0.0432 0.15616 0.36306 0.0
H1345 H 0.08627 0.23311 0.38112 0.0
H1346 H 0.03722 0.17991 0.40512 0.0
H1347 H 0.08008 0.21516 0.33631 0.0
H1348 H 0.07079 0.21247 0.39115 0.0
H1349 H 0.0594 0.1764 0.35418 0.0
C1350 C 0.04533 0.16562 0.37048 0.0
C1351 C 0.03878 0.16635 0.38486 0.0
C1352 C 0.07285 0.2131 0.37913 0.0
C1353 C 0.05742 0.18966 0.37469 0.0
C1354 C 0.08171 0.22482 0.37341 0.0
C1355 C 0.08444 0.22587 0.35785 0.0
C1356 C 0.06688 0.20228 0.36923 0.0
C1357 C 0.07822 0.21485 0.34837 0.0
C1358 C 0.05456 0.17722 0.36536 0.0
C1359 C 0.04198 0.17893 0.39393 0.0
N1360 N 0.06979 0.20351 0.35421 0.0
N1361 N 0.05111 0.19011 0.3887 0.0
H1362 H 0.0381 0.83363 0.58521 0.0
H1363 H 0.07243 0.78776 0.65453 0.0
H1364 H 0.0206 0.83795 0.6304 0.0
H1365 H 0.09559 0.79429 0.61222 0.0
H1366 H 0.05251 0.80487 0.64586 0.0
H1367 H 0.05841 0.81786 0.59482 0.0
C1368 C 0.03854 0.83128 0.59718 0.0
C1369 C 0.02761 0.83711 0.60701 0.0
C1370 C 0.062 0.80259 0.63854 0.0
C1371 C 0.05087 0.81893 0.61812 0.0
C1372 C 0.07335 0.79281 0.64345 0.0
C1373 C 0.08569 0.78955 0.63407 0.0
C1374 C 0.06294 0.80902 0.6241 0.0
C1375 C 0.08631 0.79645 0.61984 0.0
C1376 C 0.05018 0.82229 0.60267 0.0
C1377 C 0.02881 0.83372 0.62243 0.0
N1378 N 0.07507 0.80576 0.61527 0.0
N1379 N 0.04019 0.82475 0.62751 0.0
H1380 H 0.41638 0.78595 0.82882 0.0
H1381 H 0.45987 0.82239 0.89865 0.0
H1382 H 0.41158 0.76872 0.87407 0.0
H1383 H 0.45306 0.84498 0.85608 0.0
H1384 H 0.44363 0.80175 0.88987 0.0
H1385 H 0.43138 0.80676 0.83857 0.0
C1386 C 0.41847 0.78654 0.84083 0.0
C1387 C 0.41271 0.77555 0.85064 0.0
C1388 C 0.44566 0.81128 0.88252 0.0
C1389 C 0.43002 0.79941 0.86191 0.0
C1390 C 0.45495 0.82304 0.88749 0.0
C1391 C 0.45786 0.83543 0.87808 0.0
C1392 C 0.43941 0.81187 0.86798 0.0
C1393 C 0.45115 0.83568 0.86375 0.0
C1394 C 0.42701 0.79848 0.84641 0.0
C1395 C 0.41577 0.77697 0.86611 0.0
N1396 N 0.44234 0.82406 0.85913 0.0
N1397 N 0.42431 0.78865 0.87128 0.0
H1398 H 0.47949 0.15876 0.13163 0.0
H1399 H 0.40273 0.20142 0.11114 0.0
H1400 H 0.46189 0.1631 0.08647 0.0
H1401 H 0.42572 0.20771 0.15358 0.0
H1402 H 0.42287 0.1846 0.10302 0.0
H1403 H 0.45842 0.1741 0.14093 0.0
C1404 C 0.47118 0.16287 0.12369 0.0
C1405 C 0.47248 0.1597 0.10824 0.0
C1406 C 0.42351 0.18964 0.11412 0.0
C1407 C 0.4484 0.17712 0.11878 0.0
C1408 C 0.41198 0.19922 0.11879 0.0
C1409 C 0.41257 0.20606 0.13304 0.0
C1410 C 0.43571 0.18676 0.12378 0.0
C1411 C 0.42486 0.20275 0.14246 0.0
C1412 C 0.4592 0.17165 0.12899 0.0
C1413 C 0.4614 0.16533 0.09845 0.0
N1414 N 0.43596 0.19332 0.13766 0.0
N1415 N 0.44984 0.17373 0.10389 0.0
H1416 H 0.03765 0.8214 0.09373 0.0
H1417 H 0.08466 0.78904 0.16329 0.0
H1418 H 0.0461 0.84607 0.13482 0.0
H1419 H 0.08669 0.76883 0.11907 0.0
H1420 H 0.06923 0.80928 0.15309 0.0
H1421 H 0.0544 0.80131 0.10278 0.0
C1422 C 0.04304 0.82262 0.10461 0.0
C1423 C 0.04042 0.83543 0.11354 0.0
C1424 C 0.07308 0.80047 0.14557 0.0
C1425 C 0.05947 0.81251 0.12396 0.0
C1426 C 0.08187 0.78886 0.1514 0.0
C1427 C 0.08697 0.77719 0.14202 0.0
C1428 C 0.06917 0.80042 0.13024 0.0
C1429 C 0.08302 0.77762 0.12669 0.0
C1430 C 0.05262 0.81117 0.10974 0.0
C1431 C 0.04774 0.83643 0.12753 0.0
N1432 N 0.07426 0.78902 0.12127 0.0
N1433 N 0.05684 0.8251 0.13232 0.0
H1434 H 0.42929 0.78713 0.34188 0.0
H1435 H 0.46363 0.83116 0.41238 0.0
H1436 H 0.40558 0.79399 0.38383 0.0
H1437 H 0.48148 0.83652 0.36742 0.0
H1438 H 0.44336 0.81568 0.40223 0.0
H1439 H 0.44958 0.80356 0.35109 0.0
C1440 C 0.42833 0.7921 0.35299 0.0
C1441 C 0.41572 0.78916 0.3621 0.0
C1442 C 0.45167 0.82027 0.39455 0.0
C1443 C 0.43887 0.8078 0.3727 0.0
C1444 C 0.46329 0.82908 0.40035 0.0
C1445 C 0.47428 0.83515 0.39073 0.0
C1446 C 0.45105 0.81733 0.37902 0.0
C1447 C 0.47321 0.8321 0.37523 0.0
C1448 C 0.43988 0.80149 0.35821 0.0
C1449 C 0.41506 0.79593 0.37639 0.0
N1450 N 0.46183 0.82331 0.36984 0.0
N1451 N 0.42649 0.80483 0.38126 0.0
H1452 H 0.42018 0.21153 0.66799 0.0
H1453 H 0.4597 0.17484 0.59582 0.0
H1454 H 0.41734 0.23112 0.62353 0.0
H1455 H 0.45292 0.15127 0.63786 0.0
H1456 H 0.4455 0.19626 0.60592 0.0
H1457 H 0.43379 0.19011 0.65737 0.0
C1458 C 0.42245 0.21135 0.656 0.0
C1459 C 0.4176 0.22314 0.64663 0.0
C1460 C 0.44707 0.18636 0.61289 0.0
C1461 C 0.43319 0.19862 0.63439 0.0
C1462 C 0.45517 0.17413 0.60713 0.0
C1463 C 0.45751 0.16124 0.61601 0.0
C1464 C 0.44141 0.18572 0.62766 0.0
C1465 C 0.45138 0.16095 0.63059 0.0
C1466 C 0.43017 0.19908 0.64993 0.0
C1467 C 0.42084 0.22227 0.63116 0.0
N1468 N 0.44369 0.17303 0.63598 0.0
N1469 N 0.42847 0.21023 0.62552 0.0
H1470 H 0.09448 0.20192 0.88782 0.0
H1471 H 0.018 0.1587 0.86789 0.0
H1472 H 0.07099 0.2088 0.84574 0.0
H1473 H 0.03591 0.16325 0.91291 0.0
H1474 H 0.03859 0.17462 0.85847 0.0
H1475 H 0.07443 0.18511 0.896 0.0
C1476 C 0.08512 0.19986 0.88025 0.0
C1477 C 0.0844 0.20685 0.86608 0.0
C1478 C 0.03797 0.1721 0.8704 0.0
C1479 C 0.06131 0.18752 0.87545 0.0
C1480 C 0.02627 0.16299 0.87577 0.0
C1481 C 0.02522 0.15967 0.89122 0.0
C1482 C 0.04875 0.17775 0.88052 0.0
C1483 C 0.03622 0.16556 0.90093 0.0
C1484 C 0.07363 0.19028 0.88497 0.0
C1485 C 0.07197 0.20371 0.85679 0.0
N1486 N 0.04753 0.17426 0.89541 0.0
N1487 N 0.06089 0.19425 0.86164 0.0
H1488 H 0.38723 0.02302 0.18098 0.0
H1489 H 0.37079 0.10232 0.2148 0.0
H1490 H 0.37678 0.05877 0.14971 0.0
H1491 H 0.3426 0.06501 0.22814 0.0
H1492 H 0.3804 0.08703 0.19364 0.0
H1493 H 0.37818 0.03898 0.20176 0.0
C1494 C 0.38318 0.03428 0.17854 0.0
C1495 C 0.38267 0.03964 0.16369 0.0
C1496 C 0.37213 0.08228 0.20127 0.0
C1497 C 0.37277 0.05786 0.18725 0.0
C1498 C 0.36672 0.0909 0.2133 0.0
C1499 C 0.35589 0.08485 0.22309 0.0
C1500 C 0.36703 0.06743 0.19948 0.0
C1501 C 0.35088 0.07005 0.22072 0.0
C1502 C 0.378 0.04329 0.19033 0.0
C1503 C 0.37724 0.05426 0.16105 0.0
N1504 N 0.35665 0.06173 0.20923 0.0
N1505 N 0.37262 0.06299 0.17278 0.0
H1506 H 0.16653 0.08898 0.46375 0.0
H1507 H 0.2097 0.15804 0.42581 0.0
H1508 H 0.16186 0.13455 0.48021 0.0
H1509 H 0.20234 0.11527 0.40377 0.0
H1510 H 0.19358 0.14967 0.44666 0.0
H1511 H 0.18122 0.09838 0.44258 0.0
C1512 C 0.1686 0.10099 0.46292 0.0
C1513 C 0.16297 0.111 0.47379 0.0
C1514 C 0.19545 0.14219 0.4372 0.0
C1515 C 0.17989 0.12185 0.44951 0.0
C1516 C 0.20467 0.14693 0.42533 0.0
C1517 C 0.20741 0.13732 0.41304 0.0
C1518 C 0.18911 0.12769 0.43685 0.0
C1519 C 0.20056 0.12306 0.41299 0.0
C1520 C 0.17695 0.10636 0.45077 0.0
C1521 C 0.16596 0.12645 0.47206 0.0
N1522 N 0.19182 0.11865 0.42475 0.0
N1523 N 0.17432 0.13141 0.46017 0.0
H1524 H 0.1383 0.95394 0.65159 0.0
H1525 H 0.12062 0.91167 0.72925 0.0
H1526 H 0.09729 0.96147 0.67671 0.0
H1527 H 0.16482 0.91446 0.70905 0.0
H1528 H 0.11068 0.92748 0.70882 0.0
H1529 H 0.14693 0.93686 0.67126 0.0
C1530 C 0.13107 0.95197 0.66122 0.0
C1531 C 0.11707 0.95922 0.66252 0.0
C1532 C 0.12254 0.92459 0.70889 0.0
C1533 C 0.12693 0.9396 0.68515 0.0
C1534 C 0.12821 0.91554 0.7205 0.0
C1535 C 0.14358 0.91178 0.72088 0.0
C1536 C 0.1323 0.92975 0.69753 0.0
C1537 C 0.15291 0.91713 0.70927 0.0
C1538 C 0.13603 0.94223 0.67248 0.0
C1539 C 0.10819 0.95617 0.67528 0.0
N1540 N 0.14712 0.9258 0.69809 0.0
N1541 N 0.11327 0.94658 0.68613 0.0
H1542 H 0.29625 0.88647 0.90171 0.0
H1543 H 0.33898 0.86819 0.97881 0.0
H1544 H 0.29008 0.84441 0.92545 0.0
H1545 H 0.33299 0.91306 0.96092 0.0
H1546 H 0.32358 0.85824 0.95808 0.0
H1547 H 0.31245 0.89529 0.922 0.0
C1548 C 0.29834 0.87904 0.91118 0.0
C1549 C 0.29174 0.86468 0.9119 0.0
C1550 C 0.32566 0.87026 0.95874 0.0
C1551 C 0.31036 0.87477 0.93524 0.0
C1552 C 0.33447 0.87593 0.97051 0.0
C1553 C 0.33725 0.89148 0.97161 0.0
C1554 C 0.31977 0.8802 0.94792 0.0
C1555 C 0.3311 0.90101 0.96058 0.0
C1556 C 0.30757 0.88413 0.9228 0.0
C1557 C 0.29489 0.85559 0.92447 0.0
N1558 N 0.32271 0.89521 0.94919 0.0
N1559 N 0.30401 0.86078 0.93567 0.0
H1560 H 0.36011 0.95 0.34473 0.0
H1561 H 0.3789 0.91057 0.26589 0.0
H1562 H 0.40138 0.95883 0.32045 0.0
H1563 H 0.33456 0.91234 0.28589 0.0
H1564 H 0.38854 0.92595 0.28681 0.0
H1565 H 0.35186 0.93367 0.32434 0.0
C1566 C 0.36749 0.94848 0.33512 0.0
C1567 C 0.38145 0.95587 0.33429 0.0
C1568 C 0.37672 0.92294 0.28657 0.0
C1569 C 0.372 0.9371 0.31079 0.0
C1570 C 0.37122 0.91414 0.27469 0.0
C1571 C 0.35589 0.9102 0.27413 0.0
C1572 C 0.36683 0.92765 0.29801 0.0
C1573 C 0.34643 0.91515 0.2858 0.0
C1574 C 0.36273 0.93916 0.32344 0.0
C1575 C 0.3905 0.95341 0.32152 0.0
N1576 N 0.35206 0.92357 0.29724 0.0
N1577 N 0.38562 0.94421 0.31024 0.0
H1578 H 0.27391 0.14467 0.56489 0.0
H1579 H 0.3522 0.12315 0.5301 0.0
H1580 H 0.31076 0.13469 0.59499 0.0
H1581 H 0.31301 0.09704 0.51803 0.0
H1582 H 0.33767 0.13482 0.5507 0.0
H1583 H 0.28885 0.13451 0.54379 0.0
C1584 C 0.28522 0.14054 0.56698 0.0
C1585 C 0.29118 0.14043 0.58161 0.0
C1586 C 0.33232 0.12658 0.54345 0.0
C1587 C 0.30821 0.12926 0.55773 0.0
C1588 C 0.34052 0.11999 0.53175 0.0
C1589 C 0.33374 0.10911 0.52251 0.0
C1590 C 0.31716 0.12261 0.54548 0.0
C1591 C 0.31861 0.10531 0.52505 0.0
C1592 C 0.29363 0.13472 0.55503 0.0
C1593 C 0.30581 0.13487 0.58383 0.0
N1594 N 0.31073 0.11219 0.53623 0.0
N1595 N 0.31393 0.1296 0.57196 0.0
H1596 H 0.14158 0.04691 0.84362 0.0
H1597 H 0.12233 0.0906 0.76714 0.0
H1598 H 0.09945 0.04119 0.81993 0.0
H1599 H 0.16746 0.08504 0.78447 0.0
H1600 H 0.11278 0.07516 0.78799 0.0
H1601 H 0.15022 0.06373 0.82364 0.0
C1602 C 0.1341 0.04925 0.83426 0.0
C1603 C 0.11979 0.04257 0.83342 0.0
C1604 C 0.12477 0.07735 0.7872 0.0
C1605 C 0.12964 0.06186 0.81049 0.0
C1606 C 0.13022 0.08619 0.77535 0.0
C1607 C 0.14572 0.08906 0.77403 0.0
C1608 C 0.13488 0.07152 0.7979 0.0
C1609 C 0.15543 0.08305 0.78498 0.0
C1610 C 0.13908 0.05882 0.82282 0.0
C1611 C 0.1106 0.04603 0.821 0.0
N1612 N 0.14985 0.0746 0.79646 0.0
N1613 N 0.11568 0.05545 0.81001 0.0
H1614 H 0.20451 0.88733 0.09125 0.0
H1615 H 0.16069 0.86667 0.01528 0.0
H1616 H 0.21036 0.84467 0.06854 0.0
H1617 H 0.16607 0.91199 0.0322 0.0
H1618 H 0.17646 0.85742 0.03605 0.0
H1619 H 0.18785 0.89553 0.07104 0.0
C1620 C 0.20226 0.87965 0.08203 0.0
C1621 C 0.2089 0.86529 0.08157 0.0
C1622 C 0.17416 0.86938 0.03518 0.0
C1623 C 0.18974 0.87465 0.05834 0.0
C1624 C 0.16513 0.87466 0.02338 0.0
C1625 C 0.1621 0.89013 0.02198 0.0
C1626 C 0.18001 0.87964 0.04572 0.0
C1627 C 0.16817 0.89998 0.03277 0.0
C1628 C 0.19276 0.88437 0.07046 0.0
C1629 C 0.20554 0.85585 0.06931 0.0
N1630 N 0.17679 0.89457 0.04418 0.0
N1631 N 0.19617 0.86069 0.05817 0.0
H1632 H 0.21167 0.33476 0.08474 0.0
H1633 H 0.17809 0.40413 0.03833 0.0
H1634 H 0.23086 0.37942 0.08726 0.0
H1635 H 0.15414 0.36248 0.04623 0.0
H1636 H 0.19828 0.39527 0.05502 0.0
H1637 H 0.19128 0.34465 0.06928 0.0
C1638 C 0.2116 0.34667 0.08204 0.0
C1639 C 0.22301 0.35628 0.08729 0.0
C1640 C 0.18855 0.38814 0.05313 0.0
C1641 C 0.19964 0.3677 0.06949 0.0
C1642 C 0.17705 0.39316 0.04359 0.0
C1643 C 0.16442 0.38402 0.04084 0.0
C1644 C 0.18746 0.37382 0.05982 0.0
C1645 C 0.16365 0.36993 0.048 0.0
C1646 C 0.1999 0.35233 0.07324 0.0
C1647 C 0.22227 0.37163 0.08347 0.0
N1648 N 0.17504 0.36525 0.05707 0.0
N1649 N 0.21081 0.37687 0.07471 0.0
H1650 H 0.65269 0.13896 0.95323 0.0
H1651 H 0.7281 0.11893 0.90825 0.0
H1652 H 0.67542 0.09619 0.95813 0.0
H1653 H 0.71152 0.16422 0.91481 0.0
H1654 H 0.70744 0.10945 0.92402 0.0
H1655 H 0.67271 0.14741 0.93647 0.0
C1656 C 0.66187 0.13131 0.95075 0.0
C1657 C 0.6624 0.11685 0.95715 0.0
C1658 C 0.70837 0.12145 0.92198 0.0
C1659 C 0.68541 0.1265 0.9379 0.0
C1660 C 0.7201 0.12686 0.91295 0.0
C1661 C 0.72154 0.14239 0.91025 0.0
C1662 C 0.69794 0.13165 0.92816 0.0
C1663 C 0.71089 0.15217 0.91665 0.0
C1664 C 0.67333 0.13617 0.9412 0.0
C1665 C 0.6746 0.10745 0.95349 0.0
N1666 N 0.69953 0.14663 0.92526 0.0
N1667 N 0.68565 0.11243 0.94408 0.0
H1668 H 0.11083 0.40547 0.20247 0.0
H1669 H 0.13124 0.48244 0.16035 0.0
H1670 H 0.15297 0.42876 0.20969 0.0
H1671 H 0.08606 0.46487 0.16469 0.0
H1672 H 0.14049 0.46152 0.17593 0.0
H1673 H 0.10272 0.4258 0.18593 0.0
C1674 C 0.11842 0.41484 0.20054 0.0
C1675 C 0.13259 0.41543 0.20754 0.0
C1676 C 0.12856 0.46229 0.17344 0.0
C1677 C 0.12333 0.4388 0.18854 0.0
C1678 C 0.12329 0.47417 0.16453 0.0
C1679 C 0.10785 0.47541 0.16126 0.0
C1680 C 0.11834 0.45152 0.17894 0.0
C1681 C 0.09804 0.46441 0.16698 0.0
C1682 C 0.11375 0.42648 0.19112 0.0
C1683 C 0.14193 0.42788 0.20459 0.0
N1684 N 0.10345 0.45292 0.1755 0.0
N1685 N 0.13713 0.4391 0.19528 0.0
H1686 H 0.76921 0.88111 0.41123 0.0
H1687 H 0.84614 0.86172 0.454 0.0
H1688 H 0.78695 0.83608 0.41645 0.0
H1689 H 0.8227 0.90392 0.46037 0.0
H1690 H 0.82592 0.85327 0.43747 0.0
H1691 H 0.79008 0.89073 0.42666 0.0
C1692 C 0.77751 0.87326 0.41556 0.0
C1693 C 0.77631 0.85776 0.41259 0.0
C1694 C 0.82519 0.86439 0.44247 0.0
C1695 C 0.80017 0.86868 0.4301 0.0
C1696 C 0.83676 0.86926 0.45188 0.0
C1697 C 0.83609 0.88354 0.45865 0.0
C1698 C 0.81285 0.87388 0.43965 0.0
C1699 C 0.82363 0.89279 0.45545 0.0
C1700 C 0.78936 0.87875 0.42439 0.0
C1701 C 0.78736 0.8481 0.4185 0.0
N1702 N 0.81248 0.8878 0.44616 0.0
N1703 N 0.79882 0.85372 0.42693 0.0
H1704 H 0.84421 0.07278 0.20956 0.0
H1705 H 0.9138 0.0373 0.16489 0.0
H1706 H 0.88676 0.09557 0.20329 0.0
H1707 H 0.86847 0.02016 0.16038 0.0
H1708 H 0.90422 0.05787 0.18038 0.0
H1709 H 0.85297 0.05256 0.19287 0.0
C1710 C 0.85537 0.07355 0.20466 0.0
C1711 C 0.86477 0.08588 0.20786 0.0
C1712 C 0.89634 0.04966 0.17596 0.0
C1713 C 0.87488 0.06277 0.18887 0.0
C1714 C 0.90181 0.03786 0.16715 0.0
C1715 C 0.89193 0.02697 0.16133 0.0
C1716 C 0.88087 0.05053 0.17918 0.0
C1717 C 0.87649 0.02834 0.16461 0.0
C1718 C 0.86034 0.06203 0.19511 0.0
C1719 C 0.87911 0.0863 0.20116 0.0
N1720 N 0.87144 0.03986 0.1734 0.0
N1721 N 0.88374 0.07489 0.19207 0.0
H1722 H 0.26878 0.61672 0.58838 0.0
H1723 H 0.34477 0.63686 0.54454 0.0
H1724 H 0.2859 0.6619 0.58247 0.0
H1725 H 0.32197 0.5943 0.5383 0.0
H1726 H 0.32447 0.64509 0.56097 0.0
H1727 H 0.28929 0.60724 0.57235 0.0
C1728 C 0.27685 0.62463 0.58375 0.0
C1729 C 0.27562 0.64013 0.58675 0.0
C1730 C 0.32386 0.63395 0.55602 0.0
C1731 C 0.29904 0.62938 0.56857 0.0
C1732 C 0.3355 0.6292 0.54665 0.0
C1733 C 0.33507 0.61486 0.53997 0.0
C1734 C 0.31167 0.62429 0.55889 0.0
C1735 C 0.32272 0.60546 0.54316 0.0
C1736 C 0.28849 0.61922 0.57458 0.0
C1737 C 0.28635 0.64988 0.58043 0.0
N1738 N 0.31149 0.61034 0.55244 0.0
N1739 N 0.29761 0.64433 0.57171 0.0
H1740 H 0.11064 0.59588 0.29583 0.0
H1741 H 0.1299 0.51883 0.3385 0.0
H1742 H 0.15284 0.57246 0.28944 0.0
H1743 H 0.08498 0.53693 0.3336 0.0
H1744 H 0.13958 0.53965 0.32301 0.0
H1745 H 0.10219 0.57566 0.31232 0.0
C1746 C 0.11818 0.5865 0.29793 0.0
C1747 C 0.13247 0.58586 0.29117 0.0
C1748 C 0.12762 0.53902 0.32536 0.0
C1749 C 0.1228 0.56258 0.31015 0.0
C1750 C 0.1221 0.5272 0.33423 0.0
C1751 C 0.1066 0.52612 0.33732 0.0
C1752 C 0.11758 0.54991 0.31972 0.0
C1753 C 0.097 0.53724 0.33147 0.0
C1754 C 0.11331 0.57492 0.30733 0.0
C1755 C 0.14171 0.57339 0.29435 0.0
N1756 N 0.10264 0.54866 0.323 0.0
N1757 N 0.13672 0.56222 0.30364 0.0
H1758 H 0.41686 0.46219 0.83472 0.0
H1759 H 0.34735 0.4277 0.78914 0.0
H1760 H 0.37161 0.47967 0.83878 0.0
H1761 H 0.38954 0.40436 0.79588 0.0
H1762 H 0.35629 0.44792 0.80574 0.0
H1763 H 0.40732 0.44193 0.81878 0.0
C1764 C 0.4049 0.46177 0.83227 0.0
C1765 C 0.39501 0.47264 0.8381 0.0
C1766 C 0.36354 0.43833 0.8036 0.0
C1767 C 0.38402 0.44949 0.81978 0.0
C1768 C 0.35847 0.42682 0.79411 0.0
C1769 C 0.36771 0.41433 0.79112 0.0
C1770 C 0.37801 0.43739 0.80998 0.0
C1771 C 0.38201 0.41375 0.79788 0.0
C1772 C 0.39946 0.45017 0.8232 0.0
C1773 C 0.37962 0.47149 0.83456 0.0
N1774 N 0.38673 0.42514 0.80692 0.0
N1775 N 0.37459 0.46015 0.82556 0.0
H1776 H 0.91194 0.76916 0.61836 0.0
H1777 H 0.95573 0.84544 0.63801 0.0
H1778 H 0.91707 0.78683 0.66341 0.0
H1779 H 0.96181 0.82206 0.59575 0.0
H1780 H 0.93899 0.82539 0.64642 0.0
H1781 H 0.92778 0.78977 0.60885 0.0
C1782 C 0.91633 0.77739 0.62623 0.0
C1783 C 0.91321 0.77625 0.64171 0.0
C1784 C 0.94397 0.82462 0.6353 0.0
C1785 C 0.93121 0.79981 0.63092 0.0
C1786 C 0.95351 0.8361 0.63046 0.0
C1787 C 0.96025 0.83541 0.61616 0.0
C1788 C 0.94099 0.81235 0.62577 0.0
C1789 C 0.95691 0.82301 0.60689 0.0
C1790 C 0.92541 0.7891 0.62081 0.0
C1791 C 0.91923 0.7872 0.6514 0.0
N1792 N 0.94749 0.81195 0.61185 0.0
N1793 N 0.92789 0.79852 0.64585 0.0
H1794 H 0.9612 0.16677 0.41635 0.0
H1795 H 0.92491 0.21127 0.34706 0.0
H1796 H 0.97852 0.16265 0.37106 0.0
H1797 H 0.90235 0.20401 0.38957 0.0
H1798 H 0.94555 0.19493 0.35565 0.0
H1799 H 0.94047 0.182 0.40679 0.0
C1800 C 0.96065 0.16906 0.40437 0.0
C1801 C 0.97164 0.16343 0.39449 0.0
C1802 C 0.93603 0.19689 0.36303 0.0
C1803 C 0.94786 0.18098 0.38344 0.0
C1804 C 0.92427 0.20623 0.35816 0.0
C1805 C 0.91189 0.20904 0.36762 0.0
C1806 C 0.93544 0.19048 0.3775 0.0
C1807 C 0.91164 0.20218 0.38188 0.0
C1808 C 0.94875 0.17773 0.3989 0.0
C1809 C 0.97027 0.16674 0.37906 0.0
N1810 N 0.92326 0.19331 0.38639 0.0
N1811 N 0.95863 0.17539 0.37401 0.0
H1812 H 0.53739 0.17674 0.09617 0.0
H1813 H 0.58407 0.21079 0.16509 0.0
H1814 H 0.54579 0.15309 0.13788 0.0
H1815 H 0.58613 0.23009 0.12045 0.0
H1816 H 0.56875 0.1903 0.1553 0.0
H1817 H 0.55404 0.19711 0.10479 0.0
C1818 C 0.54274 0.17581 0.1071 0.0
C1819 C 0.54014 0.16321 0.11634 0.0
C1820 C 0.57258 0.19896 0.1476 0.0
C1821 C 0.55907 0.18642 0.12624 0.0
C1822 C 0.58131 0.21072 0.15319 0.0
C1823 C 0.58638 0.2222 0.14358 0.0
C1824 C 0.56871 0.19868 0.13226 0.0
C1825 C 0.58248 0.22144 0.12825 0.0
C1826 C 0.55226 0.1874 0.11198 0.0
C1827 C 0.54742 0.16257 0.13037 0.0
N1828 N 0.57378 0.2099 0.12306 0.0
N1829 N 0.55646 0.17403 0.1349 0.0
H1830 H 0.59474 0.79702 0.88572 0.0
H1831 H 0.51819 0.83928 0.8636 0.0
H1832 H 0.57201 0.78941 0.84336 0.0
H1833 H 0.53565 0.83615 0.90892 0.0
H1834 H 0.53923 0.82356 0.85481 0.0
H1835 H 0.57458 0.81409 0.89318 0.0
C1836 C 0.58553 0.79897 0.87794 0.0
C1837 C 0.58504 0.7917 0.86391 0.0
C1838 C 0.53842 0.82637 0.86666 0.0
C1839 C 0.56185 0.81131 0.87242 0.0
C1840 C 0.52647 0.83536 0.87168 0.0
C1841 C 0.52513 0.83898 0.88702 0.0
C1842 C 0.54916 0.82113 0.87706 0.0
C1843 C 0.53616 0.83358 0.897 0.0
C1844 C 0.57399 0.8087 0.88224 0.0
C1845 C 0.5728 0.79471 0.85432 0.0
N1846 N 0.54769 0.82497 0.89184 0.0
N1847 N 0.56167 0.8043 0.85875 0.0
H1848 H 0.96027 0.1745 0.90403 0.0
H1849 H 0.91523 0.21056 0.83514 0.0
H1850 H 0.95284 0.15185 0.8616 0.0
H1851 H 0.91138 0.22787 0.88046 0.0
H1852 H 0.93039 0.18975 0.84461 0.0
H1853 H 0.94361 0.19492 0.89564 0.0
C1854 C 0.95511 0.17379 0.89299 0.0
C1855 C 0.958 0.16147 0.88349 0.0
C1856 C 0.92619 0.19804 0.85252 0.0
C1857 C 0.93906 0.18477 0.87383 0.0
C1858 C 0.91757 0.20998 0.84711 0.0
C1859 C 0.91205 0.22099 0.85702 0.0
C1860 C 0.92951 0.19715 0.86796 0.0
C1861 C 0.91539 0.21959 0.87243 0.0
C1862 C 0.94559 0.18542 0.88824 0.0
C1863 C 0.95097 0.16111 0.86932 0.0
N1864 N 0.92401 0.20792 0.87744 0.0
N1865 N 0.94193 0.17262 0.8649 0.0
H1866 H 0.51746 0.17646 0.5894 0.0
H1867 H 0.59624 0.18671 0.62432 0.0
H1868 H 0.53108 0.14151 0.62035 0.0
H1869 H 0.5624 0.22052 0.63321 0.0
H1870 H 0.57607 0.1691 0.61671 0.0
H1871 H 0.53789 0.19248 0.59892 0.0
C1872 C 0.52485 0.17215 0.59812 0.0
C1873 C 0.52266 0.15773 0.60417 0.0
C1874 C 0.57319 0.18036 0.62046 0.0
C1875 C 0.54603 0.17572 0.61471 0.0
C1876 C 0.58459 0.19037 0.62469 0.0
C1877 C 0.58088 0.205 0.62939 0.0
C1878 C 0.55818 0.1853 0.62048 0.0
C1879 C 0.56567 0.20928 0.62974 0.0
C1880 C 0.53639 0.18127 0.60354 0.0
C1881 C 0.53243 0.15263 0.61552 0.0
N1882 N 0.55485 0.19954 0.62508 0.0
N1883 N 0.5439 0.1616 0.62035 0.0
H1884 H 0.54717 0.8451 0.36131 0.0
H1885 H 0.58896 0.76741 0.37997 0.0
H1886 H 0.53944 0.82057 0.40264 0.0
H1887 H 0.58608 0.78699 0.3355 0.0
H1888 H 0.57331 0.78808 0.38968 0.0
H1889 H 0.56411 0.8252 0.35296 0.0
C1890 C 0.54907 0.83555 0.36868 0.0
C1891 C 0.5418 0.83448 0.38268 0.0
C1892 C 0.57615 0.78781 0.37781 0.0
C1893 C 0.56126 0.81158 0.37313 0.0
C1894 C 0.58511 0.77607 0.37227 0.0
C1895 C 0.58879 0.77545 0.35689 0.0
C1896 C 0.57101 0.79906 0.36791 0.0
C1897 C 0.58346 0.78695 0.34742 0.0
C1898 C 0.55873 0.82415 0.36386 0.0
C1899 C 0.54475 0.82181 0.39173 0.0
N1900 N 0.57488 0.79826 0.35309 0.0
N1901 N 0.55427 0.81083 0.38679 0.0
H1902 H 0.90356 0.79562 0.11098 0.0
H1903 H 0.98048 0.83891 0.12928 0.0
H1904 H 0.9273 0.78976 0.15306 0.0
H1905 H 0.9622 0.83341 0.08452 0.0
H1906 H 0.95985 0.82333 0.13922 0.0
H1907 H 0.92369 0.81206 0.10218 0.0
C1908 C 0.91299 0.79783 0.11842 0.0
C1909 C 0.91375 0.79124 0.13278 0.0
C1910 C 0.9604 0.82557 0.12723 0.0
C1911 C 0.93692 0.81015 0.12272 0.0
C1912 C 0.97211 0.83448 0.12156 0.0
C1913 C 0.97308 0.83743 0.10604 0.0
C1914 C 0.94951 0.81974 0.11732 0.0
C1915 C 0.96197 0.83138 0.09655 0.0
C1916 C 0.92452 0.80719 0.11335 0.0
C1917 C 0.92628 0.79454 0.14188 0.0
N1918 N 0.95065 0.82288 0.10234 0.0
N1919 N 0.93739 0.80379 0.1367 0.0
H1920 H 0.59372 0.96299 0.81839 0.0
H1921 H 0.66411 0.91695 0.78642 0.0
H1922 H 0.63591 0.95799 0.84214 0.0
H1923 H 0.61925 0.91211 0.76817 0.0
H1924 H 0.65406 0.93317 0.80617 0.0
H1925 H 0.60292 0.94547 0.79909 0.0
C1926 C 0.60489 0.9582 0.81956 0.0
C1927 C 0.61407 0.96199 0.83189 0.0
C1928 C 0.64638 0.92852 0.79789 0.0
C1929 C 0.62466 0.94206 0.80986 0.0
C1930 C 0.65213 0.91928 0.78658 0.0
C1931 C 0.64251 0.91318 0.77561 0.0
C1932 C 0.63091 0.93186 0.7982 0.0
C1933 C 0.62706 0.91655 0.77643 0.0
C1934 C 0.61011 0.94818 0.80857 0.0
C1935 C 0.62843 0.95542 0.83286 0.0
N1936 N 0.62174 0.92576 0.78749 0.0
N1937 N 0.63329 0.94585 0.82196 0.0
H1938 H 0.8339 0.91444 0.53619 0.0
H1939 H 0.78884 0.84496 0.57129 0.0
H1940 H 0.83864 0.86916 0.51895 0.0
H1941 H 0.79528 0.88757 0.59396 0.0
H1942 H 0.80569 0.8536 0.5511 0.0
H1943 H 0.81821 0.90481 0.55652 0.0
C1944 C 0.83164 0.90244 0.53668 0.0
C1945 C 0.83758 0.89259 0.52584 0.0
C1946 C 0.80343 0.86099 0.56055 0.0
C1947 C 0.81951 0.88146 0.54913 0.0
C1948 C 0.7938 0.8561 0.57205 0.0
C1949 C 0.79062 0.86557 0.58432 0.0
C1950 C 0.80975 0.87549 0.5613 0.0
C1951 C 0.79739 0.87986 0.58474 0.0
C1952 C 0.82271 0.89694 0.54834 0.0
C1953 C 0.83431 0.87714 0.52711 0.0
N1954 N 0.80655 0.8844 0.57337 0.0
N1955 N 0.82541 0.87205 0.53852 0.0
H1956 H 0.86084 0.04735 0.34549 0.0
H1957 H 0.87982 0.08947 0.26816 0.0
H1958 H 0.90302 0.04088 0.32206 0.0
H1959 H 0.8348 0.08377 0.28574 0.0
H1960 H 0.88956 0.07426 0.28913 0.0
H1961 H 0.85224 0.06352 0.32505 0.0
C1962 C 0.86834 0.04938 0.33607 0.0
C1963 C 0.88267 0.04269 0.33547 0.0
C1964 C 0.87756 0.07636 0.28835 0.0
C1965 C 0.87282 0.06126 0.31196 0.0
C1966 C 0.872 0.08507 0.27643 0.0
C1967 C 0.85646 0.08786 0.27518 0.0
C1968 C 0.86752 0.0706 0.29916 0.0
C1969 C 0.84684 0.08185 0.2862 0.0
C1970 C 0.86338 0.05858 0.32436 0.0
C1971 C 0.89187 0.04576 0.32295 0.0
N1972 N 0.85253 0.07357 0.29773 0.0
N1973 N 0.88679 0.05485 0.31167 0.0
H1974 H 0.66557 0.0849 0.03426 0.0
H1975 H 0.70954 0.15478 0.07009 0.0
H1976 H 0.66009 0.13037 0.0178 0.0
H1977 H 0.70377 0.11203 0.09265 0.0
H1978 H 0.69295 0.14591 0.04982 0.0
H1979 H 0.68124 0.09447 0.05471 0.0
C1980 C 0.66766 0.09691 0.03494 0.0
C1981 C 0.6615 0.10685 0.02429 0.0
C1982 C 0.69529 0.13853 0.05925 0.0
C1983 C 0.67953 0.11789 0.0477 0.0
C1984 C 0.70478 0.14356 0.0708 0.0
C1985 C 0.70807 0.13413 0.08308 0.0
C1986 C 0.68921 0.12392 0.05992 0.0
C1987 C 0.70154 0.11971 0.08343 0.0
C1988 C 0.67658 0.10238 0.04666 0.0
C1989 C 0.66457 0.12231 0.02579 0.0
N1990 N 0.69252 0.11503 0.07199 0.0
N1991 N 0.67345 0.12737 0.03724 0.0
H1992 H 0.59295 0.04009 0.67752 0.0
H1993 H 0.65821 0.09365 0.70855 0.0
H1994 H 0.63367 0.0508 0.65309 0.0
H1995 H 0.61421 0.09199 0.72927 0.0
H1996 H 0.6492 0.0773 0.68852 0.0
H1997 H 0.60026 0.05839 0.69697 0.0
C1998 C 0.60338 0.0463 0.67621 0.0
C1999 C 0.61275 0.04384 0.66368 0.0
C2000 C 0.64144 0.08054 0.69737 0.0
C2001 C 0.62115 0.06468 0.68585 0.0
C2002 C 0.6466 0.08987 0.70886 0.0
C2003 C 0.63696 0.09416 0.72064 0.0
C2004 C 0.62653 0.07525 0.69766 0.0
C2005 C 0.622 0.08897 0.72037 0.0
C2006 C 0.60751 0.05676 0.68729 0.0
C2007 C 0.6261 0.05225 0.66255 0.0
N2008 N 0.61726 0.07966 0.70911 0.0
N2009 N 0.62991 0.0622 0.67351 0.0
H2010 H 0.70383 0.88768 0.40439 0.0
H2011 H 0.66049 0.86833 0.48096 0.0
H2012 H 0.71056 0.84577 0.42822 0.0
H2013 H 0.66514 0.91326 0.46282 0.0
H2014 H 0.67634 0.85876 0.46039 0.0
H2015 H 0.68699 0.89607 0.42435 0.0
C2016 C 0.70173 0.8802 0.41381 0.0
C2017 C 0.70868 0.86601 0.41465 0.0
C2018 C 0.67385 0.8707 0.46095 0.0
C2019 C 0.68932 0.8756 0.43762 0.0
C2020 C 0.66478 0.87616 0.47263 0.0
C2021 C 0.66153 0.89163 0.47363 0.0
C2022 C 0.67953 0.88077 0.45012 0.0
C2023 C 0.66741 0.90127 0.46255 0.0
C2024 C 0.69214 0.88503 0.42524 0.0
C2025 C 0.7055 0.85683 0.42716 0.0
N2026 N 0.67608 0.89568 0.45127 0.0
N2027 N 0.69603 0.86178 0.43817 0.0
H2028 H 0.86048 0.95533 0.15417 0.0
H2029 H 0.88037 0.9126 0.23094 0.0
H2030 H 0.90296 0.96147 0.17713 0.0
H2031 H 0.83521 0.91778 0.21353 0.0
H2032 H 0.88981 0.92815 0.2101 0.0
H2033 H 0.85207 0.93904 0.17458 0.0
C2034 C 0.86809 0.95322 0.16349 0.0
C2035 C 0.88245 0.95983 0.16395 0.0
C2036 C 0.87785 0.92586 0.21088 0.0
C2037 C 0.87283 0.9411 0.18743 0.0
C2038 C 0.87245 0.91696 0.22273 0.0
C2039 C 0.85697 0.91391 0.22399 0.0
C2040 C 0.86769 0.93158 0.20016 0.0
C2041 C 0.84722 0.91988 0.21306 0.0
C2042 C 0.86324 0.94394 0.17518 0.0
C2043 C 0.89178 0.95666 0.17635 0.0
N2044 N 0.85275 0.92837 0.2016 0.0
N2045 N 0.88681 0.94749 0.18761 0.0
H2046 H 0.83063 0.08303 0.95979 0.0
H2047 H 0.78745 0.15345 0.92417 0.0
H2048 H 0.83624 0.12838 0.97655 0.0
H2049 H 0.79242 0.11064 0.90154 0.0
H2050 H 0.8041 0.14439 0.94425 0.0
H2051 H 0.81532 0.09282 0.93917 0.0
C2052 C 0.82865 0.09507 0.95913 0.0
C2053 C 0.83471 0.1049 0.96994 0.0
C2054 C 0.80159 0.13702 0.93484 0.0
C2055 C 0.81708 0.11619 0.94634 0.0
C2056 C 0.79206 0.14217 0.92339 0.0
C2057 C 0.7885 0.13277 0.91116 0.0
C2058 C 0.80746 0.12233 0.93412 0.0
C2059 C 0.79484 0.11828 0.91073 0.0
C2060 C 0.81994 0.10065 0.94732 0.0
C2061 C 0.83181 0.1204 0.96845 0.0
N2062 N 0.80392 0.11348 0.92209 0.0
N2063 N 0.82311 0.12557 0.95691 0.0
H2064 H 0.76783 0.61786 0.91144 0.0
H2065 H 0.84454 0.63804 0.95411 0.0
H2066 H 0.78557 0.66295 0.91613 0.0
H2067 H 0.82125 0.59588 0.96123 0.0
H2068 H 0.82436 0.64611 0.93742 0.0
H2069 H 0.78862 0.60844 0.92712 0.0
C2070 C 0.77611 0.62575 0.9157 0.0
C2071 C 0.77494 0.64122 0.91251 0.0
C2072 C 0.82363 0.63509 0.94261 0.0
C2073 C 0.79868 0.63054 0.9303 0.0
C2074 C 0.83519 0.63044 0.95213 0.0
C2075 C 0.83456 0.61627 0.95915 0.0
C2076 C 0.81133 0.6255 0.93996 0.0
C2077 C 0.82214 0.60692 0.95611 0.0
C2078 C 0.78791 0.62038 0.92468 0.0
C2079 C 0.78595 0.65095 0.91836 0.0
N2080 N 0.81099 0.6117 0.94671 0.0
N2081 N 0.79735 0.64544 0.92691 0.0
H2082 H 0.28684 0.83423 0.08085 0.0
H2083 H 0.32253 0.9041 0.03693 0.0
H2084 H 0.26961 0.87951 0.08556 0.0
H2085 H 0.34553 0.86169 0.04344 0.0
H2086 H 0.30225 0.89524 0.05349 0.0
H2087 H 0.30763 0.84398 0.06576 0.0
C2088 C 0.28743 0.84624 0.07872 0.0
C2089 C 0.27645 0.85607 0.08446 0.0
C2090 C 0.31179 0.88794 0.05133 0.0
C2091 C 0.30024 0.86732 0.06709 0.0
C2092 C 0.32334 0.89296 0.04187 0.0
C2093 C 0.33573 0.88361 0.03876 0.0
C2094 C 0.31256 0.8734 0.05758 0.0
C2095 C 0.33622 0.8693 0.0455 0.0
C2096 C 0.29935 0.85181 0.07013 0.0
C2097 C 0.27785 0.87154 0.08138 0.0
N2098 N 0.32476 0.86461 0.0545 0.0
N2099 N 0.28949 0.87669 0.0728 0.0
H2100 H 0.9154 0.5369 0.83325 0.0
H2101 H 0.84551 0.57217 0.7889 0.0
H2102 H 0.87009 0.5199 0.83845 0.0
H2103 H 0.88814 0.5949 0.79491 0.0
H2104 H 0.85436 0.55193 0.80556 0.0
H2105 H 0.9057 0.55725 0.81756 0.0
C2106 C 0.90339 0.53745 0.83109 0.0
C2107 C 0.89354 0.52667 0.83717 0.0
C2108 C 0.86172 0.5614 0.80325 0.0
C2109 C 0.88234 0.54997 0.81912 0.0
C2110 C 0.8567 0.57293 0.79373 0.0
C2111 C 0.8661 0.58524 0.79048 0.0
C2112 C 0.87629 0.56215 0.80941 0.0
C2113 C 0.88048 0.58565 0.79708 0.0
C2114 C 0.89785 0.54911 0.82217 0.0
C2115 C 0.87807 0.528 0.83402 0.0
N2116 N 0.88514 0.57425 0.80614 0.0
N2117 N 0.87294 0.5394 0.82513 0.0
H2118 H 0.15508 0.1426 0.54612 0.0
H2119 H 0.23311 0.12506 0.58778 0.0
H2120 H 0.17943 0.10096 0.53956 0.0
H2121 H 0.21385 0.16956 0.58363 0.0
H2122 H 0.21231 0.11501 0.57256 0.0
H2123 H 0.17526 0.15156 0.56242 0.0
C2124 C 0.16465 0.13529 0.54814 0.0
C2125 C 0.16557 0.12101 0.54139 0.0
C2126 C 0.21266 0.12696 0.57501 0.0
C2127 C 0.1888 0.13126 0.56015 0.0
C2128 C 0.22449 0.1327 0.58374 0.0
C2129 C 0.22525 0.14819 0.58696 0.0
C2130 C 0.20145 0.13676 0.56963 0.0
C2131 C 0.21378 0.15757 0.58138 0.0
C2132 C 0.17621 0.14046 0.55743 0.0
C2133 C 0.17828 0.11208 0.54447 0.0
N2134 N 0.20237 0.1517 0.57304 0.0
N2135 N 0.18941 0.11735 0.55364 0.0
H2136 H 0.14391 0.93316 0.77114 0.0
H2137 H 0.12621 0.9663 0.85116 0.0
H2138 H 0.1322 0.90229 0.80684 0.0
H2139 H 0.10035 0.98139 0.81287 0.0
H2140 H 0.1364 0.94556 0.83565 0.0
H2141 H 0.13581 0.95429 0.7872 0.0
C2142 C 0.13983 0.93088 0.78242 0.0
C2143 C 0.13862 0.91605 0.78772 0.0
C2144 C 0.12856 0.95352 0.83072 0.0
C2145 C 0.12983 0.93996 0.80606 0.0
C2146 C 0.12283 0.9653 0.83947 0.0
C2147 C 0.11242 0.97541 0.83322 0.0
C2148 C 0.12422 0.9523 0.81557 0.0
C2149 C 0.10828 0.9737 0.81807 0.0
C2150 C 0.13519 0.94287 0.79149 0.0
C2151 C 0.13318 0.91361 0.80237 0.0
N2152 N 0.11432 0.96242 0.80967 0.0
N2153 N 0.12907 0.92549 0.81113 0.0
H2154 H 0.67474 0.40514 0.46463 0.0
H2155 H 0.70711 0.33374 0.42042 0.0
H2156 H 0.6508 0.36294 0.46076 0.0
H2157 H 0.72507 0.37862 0.41476 0.0
H2158 H 0.68702 0.34406 0.43615 0.0
H2159 H 0.69388 0.39551 0.44723 0.0
C2160 C 0.67347 0.39387 0.46008 0.0
C2161 C 0.66115 0.38482 0.4642 0.0
C2162 C 0.69531 0.35167 0.43141 0.0
C2163 C 0.68309 0.37371 0.44438 0.0
C2164 C 0.70682 0.34578 0.42246 0.0
C2165 C 0.71783 0.35532 0.41628 0.0
C2166 C 0.69485 0.36722 0.43438 0.0
C2167 C 0.71682 0.37084 0.41927 0.0
C2168 C 0.68439 0.3884 0.45013 0.0
C2169 C 0.66009 0.37033 0.45791 0.0
N2170 N 0.70559 0.37629 0.42819 0.0
N2171 N 0.67096 0.36519 0.44841 0.0
H2172 H 0.86839 0.48034 0.66155 0.0
H2173 H 0.8884 0.40338 0.70394 0.0
H2174 H 0.91348 0.46258 0.66613 0.0
H2175 H 0.84637 0.42689 0.7111 0.0
H2176 H 0.89653 0.42353 0.68718 0.0
H2177 H 0.85897 0.45942 0.67705 0.0
C2178 C 0.87629 0.47203 0.66576 0.0
C2179 C 0.89175 0.47323 0.66259 0.0
C2180 C 0.88552 0.42429 0.6924 0.0
C2181 C 0.88107 0.44933 0.68017 0.0
C2182 C 0.88083 0.41275 0.70194 0.0
C2183 C 0.8667 0.41347 0.70901 0.0
C2184 C 0.876 0.43665 0.68977 0.0
C2185 C 0.85739 0.42592 0.70595 0.0
C2186 C 0.87091 0.46015 0.67463 0.0
C2187 C 0.90149 0.46217 0.66835 0.0
N2188 N 0.86221 0.43705 0.69654 0.0
N2189 N 0.89598 0.45069 0.67681 0.0
H2190 H 0.65363 0.56909 0.21142 0.0
H2191 H 0.58433 0.53442 0.16573 0.0
H2192 H 0.61101 0.59181 0.2053 0.0
H2193 H 0.62961 0.51712 0.16137 0.0
H2194 H 0.59385 0.55469 0.1816 0.0
H2195 H 0.64501 0.54909 0.19437 0.0
C2196 C 0.64249 0.56989 0.20649 0.0
C2197 C 0.63301 0.58213 0.20982 0.0
C2198 C 0.60174 0.54651 0.17713 0.0
C2199 C 0.6231 0.55931 0.19043 0.0
C2200 C 0.5963 0.53489 0.1681 0.0
C2201 C 0.60619 0.52404 0.16222 0.0
C2202 C 0.61718 0.54725 0.1805 0.0
C2203 C 0.6216 0.52527 0.16563 0.0
C2204 C 0.63761 0.5585 0.19673 0.0
C2205 C 0.61871 0.58261 0.20307 0.0
N2206 N 0.62663 0.53664 0.17464 0.0
N2207 N 0.61418 0.57134 0.19378 0.0
H2208 H 0.58825 0.73102 0.87985 0.0
H2209 H 0.54536 0.65403 0.8612 0.0
H2210 H 0.58275 0.71326 0.83487 0.0
H2211 H 0.5394 0.67788 0.90321 0.0
H2212 H 0.56182 0.6742 0.85239 0.0
H2213 H 0.57289 0.7102 0.88957 0.0
C2214 C 0.58386 0.72273 0.87203 0.0
C2215 C 0.58674 0.7239 0.85651 0.0
C2216 C 0.55692 0.67502 0.86354 0.0
C2217 C 0.56931 0.70008 0.86756 0.0
C2218 C 0.54756 0.66348 0.86861 0.0
C2219 C 0.54094 0.6643 0.88295 0.0
C2220 C 0.55981 0.68744 0.8729 0.0
C2221 C 0.54421 0.67683 0.89205 0.0
C2222 C 0.57507 0.7109 0.87758 0.0
C2223 C 0.58075 0.71286 0.8469 0.0
N2224 N 0.55344 0.68793 0.88687 0.0
N2225 N 0.57236 0.70141 0.85258 0.0
H2226 H 0.53168 0.35252 0.12452 0.0
H2227 H 0.56483 0.2726 0.14219 0.0
H2228 H 0.51791 0.31476 0.09718 0.0
H2229 H 0.59592 0.30834 0.13124 0.0
H2230 H 0.54387 0.28867 0.13362 0.0
H2231 H 0.5522 0.33694 0.13505 0.0
C2232 C 0.53292 0.34093 0.12087 0.0
C2233 C 0.52325 0.33486 0.10996 0.0
C2234 C 0.5553 0.29297 0.13328 0.0
C2235 C 0.5461 0.31711 0.12216 0.0
C2236 C 0.56719 0.2839 0.13819 0.0
C2237 C 0.58204 0.2892 0.13733 0.0
C2238 C 0.55832 0.30755 0.128 0.0
C2239 C 0.58459 0.30387 0.13196 0.0
C2240 C 0.54457 0.33214 0.12681 0.0
C2241 C 0.52527 0.31982 0.10551 0.0
N2242 N 0.57279 0.31263 0.12759 0.0
N2243 N 0.5364 0.31137 0.11175 0.0
H2244 H 0.94996 0.34608 0.36186 0.0
H2245 H 0.90771 0.26914 0.3827 0.0
H2246 H 0.95716 0.3229 0.40405 0.0
H2247 H 0.91121 0.28704 0.33759 0.0
H2248 H 0.92337 0.29008 0.39182 0.0
H2249 H 0.93315 0.32587 0.35393 0.0
C2250 C 0.94797 0.33676 0.3695 0.0
C2251 C 0.95505 0.33617 0.38364 0.0
C2252 C 0.92067 0.28939 0.37994 0.0
C2253 C 0.93573 0.31293 0.37457 0.0
C2254 C 0.9117 0.2775 0.37474 0.0
C2255 C 0.90818 0.27631 0.35935 0.0
C2256 C 0.92598 0.30024 0.36969 0.0
C2257 C 0.91369 0.28743 0.34953 0.0
C2258 C 0.93839 0.32519 0.36493 0.0
C2259 C 0.952 0.32378 0.39303 0.0
N2260 N 0.92227 0.29892 0.35487 0.0
N2261 N 0.94255 0.31264 0.38834 0.0
H2262 H 0.96278 0.66567 0.58427 0.0
H2263 H 0.92812 0.71067 0.65395 0.0
H2264 H 0.98017 0.66076 0.62946 0.0
H2265 H 0.90504 0.70416 0.6116 0.0
H2266 H 0.9482 0.69376 0.64519 0.0
H2267 H 0.94245 0.6813 0.59404 0.0
C2268 C 0.96232 0.66787 0.59627 0.0
C2269 C 0.97321 0.66191 0.60607 0.0
C2270 C 0.93868 0.69601 0.63788 0.0
C2271 C 0.94992 0.6799 0.61734 0.0
C2272 C 0.92726 0.70567 0.64285 0.0
C2273 C 0.9149 0.70887 0.63348 0.0
C2274 C 0.9378 0.68966 0.6234 0.0
C2275 C 0.91433 0.70204 0.61922 0.0
C2276 C 0.95066 0.67676 0.60185 0.0
C2277 C 0.97198 0.6651 0.62153 0.0
N2278 N 0.92565 0.69286 0.6146 0.0
N2279 N 0.96058 0.67398 0.6267 0.0
H2280 H 0.54627 0.32606 0.57712 0.0
H2281 H 0.55916 0.27018 0.64347 0.0
H2282 H 0.50901 0.3049 0.59989 0.0
H2283 H 0.59039 0.2703 0.60619 0.0
H2284 H 0.54118 0.28437 0.62811 0.0
H2285 H 0.56312 0.3064 0.58694 0.0
C2286 C 0.54154 0.31684 0.58359 0.0
C2287 C 0.52621 0.31686 0.58747 0.0
C2288 C 0.55193 0.2812 0.62326 0.0
C2289 C 0.54548 0.29504 0.59952 0.0
C2290 C 0.56227 0.27327 0.63207 0.0
C2291 C 0.57634 0.26916 0.62614 0.0
C2292 C 0.5558 0.2854 0.60849 0.0
C2293 C 0.57967 0.27329 0.61121 0.0
C2294 C 0.55117 0.30577 0.58936 0.0
C2295 C 0.52071 0.30507 0.59642 0.0
N2296 N 0.56956 0.28139 0.60295 0.0
N2297 N 0.5304 0.29482 0.60245 0.0
H2298 H 0.96226 0.333 0.91488 0.0
H2299 H 0.92813 0.28692 0.84555 0.0
H2300 H 0.98014 0.33691 0.86978 0.0
H2301 H 0.90509 0.2934 0.88794 0.0
H2302 H 0.94813 0.30395 0.85423 0.0
H2303 H 0.94205 0.31713 0.90525 0.0
C2304 C 0.96193 0.33053 0.90292 0.0
C2305 C 0.97292 0.33628 0.89312 0.0
C2306 C 0.93864 0.30166 0.86157 0.0
C2307 C 0.94978 0.318 0.882 0.0
C2308 C 0.92726 0.29192 0.85665 0.0
C2309 C 0.91493 0.2887 0.86605 0.0
C2310 C 0.93774 0.30807 0.87603 0.0
C2311 C 0.91437 0.29554 0.8803 0.0
C2312 C 0.95034 0.32149 0.89742 0.0
C2313 C 0.97186 0.33274 0.87772 0.0
N2314 N 0.92563 0.30481 0.88486 0.0
N2315 N 0.96053 0.32373 0.87263 0.0
H2316 H 0.95881 0.67774 0.09526 0.0
H2317 H 0.91471 0.71364 0.16475 0.0
H2318 H 0.95256 0.65497 0.13783 0.0
H2319 H 0.90989 0.73045 0.11933 0.0
H2320 H 0.92977 0.69276 0.15517 0.0
H2321 H 0.94195 0.69782 0.10389 0.0
C2322 C 0.95386 0.67693 0.10639 0.0
C2323 C 0.95715 0.66468 0.11586 0.0
C2324 C 0.92537 0.70096 0.14727 0.0
C2325 C 0.93797 0.68764 0.12581 0.0
C2326 C 0.91681 0.71293 0.15274 0.0
C2327 C 0.91107 0.72383 0.14282 0.0
C2328 C 0.92839 0.69994 0.13178 0.0
C2329 C 0.91409 0.72228 0.12737 0.0
C2330 C 0.94421 0.68837 0.11128 0.0
C2331 C 0.95036 0.66419 0.13014 0.0
N2332 N 0.92265 0.7106 0.12231 0.0
N2333 N 0.94119 0.67556 0.13471 0.0
H2334 H 0.53429 0.64556 0.37648 0.0
H2335 H 0.5674 0.72537 0.35827 0.0
H2336 H 0.5202 0.68363 0.40323 0.0
H2337 H 0.59843 0.68956 0.3692 0.0
H2338 H 0.54643 0.70941 0.36702 0.0
H2339 H 0.55488 0.66102 0.36596 0.0
C2340 C 0.53548 0.65719 0.38001 0.0
C2341 C 0.52569 0.66338 0.39076 0.0
C2342 C 0.55785 0.70508 0.36733 0.0
C2343 C 0.54863 0.681 0.37856 0.0
C2344 C 0.56974 0.71408 0.36232 0.0
C2345 C 0.58458 0.70871 0.36311 0.0
C2346 C 0.56085 0.69051 0.37266 0.0
C2347 C 0.5871 0.69407 0.36853 0.0
C2348 C 0.54718 0.66591 0.37408 0.0
C2349 C 0.52765 0.67846 0.39506 0.0
N2350 N 0.57531 0.68537 0.373 0.0
N2351 N 0.53883 0.68686 0.38881 0.0
H2352 H 0.83524 0.58443 0.71276 0.0
H2353 H 0.90435 0.53879 0.67771 0.0
H2354 H 0.88047 0.58843 0.73025 0.0
H2355 H 0.862 0.54585 0.65477 0.0
H2356 H 0.89581 0.55569 0.69788 0.0
H2357 H 0.84479 0.56889 0.69226 0.0
C2358 C 0.8472 0.58205 0.71228 0.0
C2359 C 0.85707 0.58773 0.72326 0.0
C2360 C 0.88846 0.55357 0.68838 0.0
C2361 C 0.86811 0.56982 0.69977 0.0
C2362 C 0.89329 0.54391 0.67689 0.0
C2363 C 0.88386 0.54086 0.66455 0.0
C2364 C 0.87404 0.56007 0.68757 0.0
C2365 C 0.86967 0.54784 0.66405 0.0
C2366 C 0.85267 0.5732 0.70053 0.0
C2367 C 0.87248 0.58431 0.72201 0.0
N2368 N 0.86517 0.55703 0.67542 0.0
N2369 N 0.87753 0.57548 0.71051 0.0
H2370 H 0.70251 0.61133 0.90417 0.0
H2371 H 0.66056 0.63092 0.98149 0.0
H2372 H 0.70965 0.6533 0.92778 0.0
H2373 H 0.665 0.58591 0.96349 0.0
H2374 H 0.67598 0.64043 0.96056 0.0
H2375 H 0.68599 0.60301 0.92445 0.0
C2376 C 0.70056 0.61884 0.9136 0.0
C2377 C 0.70754 0.63302 0.9143 0.0
C2378 C 0.67354 0.62848 0.96123 0.0
C2379 C 0.68856 0.62352 0.93762 0.0
C2380 C 0.66472 0.62305 0.97313 0.0
C2381 C 0.66153 0.60759 0.97427 0.0
C2382 C 0.67902 0.61838 0.95034 0.0
C2383 C 0.66723 0.59791 0.96313 0.0
C2384 C 0.69115 0.61405 0.92521 0.0
C2385 C 0.70456 0.64225 0.92682 0.0
N2386 N 0.67565 0.60346 0.95164 0.0
N2387 N 0.69527 0.63734 0.93801 0.0
H2388 H 0.61714 0.4104 0.23166 0.0
H2389 H 0.6376 0.45278 0.15485 0.0
H2390 H 0.66252 0.41587 0.21494 0.0
H2391 H 0.5949 0.45877 0.17744 0.0
H2392 H 0.64596 0.43666 0.17545 0.0
H2393 H 0.60789 0.42571 0.21059 0.0
C2394 C 0.62515 0.41478 0.22355 0.0
C2395 C 0.64064 0.41187 0.22508 0.0
C2396 C 0.63476 0.44149 0.17592 0.0
C2397 C 0.63013 0.42928 0.20097 0.0
C2398 C 0.62994 0.45066 0.16412 0.0
C2399 C 0.61553 0.45718 0.16443 0.0
C2400 C 0.62508 0.43867 0.18811 0.0
C2401 C 0.60612 0.45402 0.17677 0.0
C2402 C 0.61987 0.42355 0.21157 0.0
C2403 C 0.6505 0.41786 0.21426 0.0
N2404 N 0.61106 0.44496 0.18813 0.0
N2405 N 0.64508 0.42623 0.20266 0.0
H2406 H 0.78359 0.34273 0.43186 0.0
H2407 H 0.82944 0.412 0.46641 0.0
H2408 H 0.78982 0.3854 0.40926 0.0
H2409 H 0.83444 0.36666 0.48342 0.0
H2410 H 0.81328 0.40247 0.44642 0.0
H2411 H 0.80071 0.35128 0.45188 0.0
C2412 C 0.78855 0.35386 0.4311 0.0
C2413 C 0.78525 0.36337 0.41888 0.0
C2414 C 0.81794 0.39456 0.45448 0.0
C2415 C 0.80469 0.37319 0.44169 0.0
C2416 C 0.82714 0.40001 0.46594 0.0
C2417 C 0.8333 0.39011 0.47662 0.0
C2418 C 0.81469 0.3791 0.4537 0.0
C2419 C 0.82996 0.37468 0.47539 0.0
C2420 C 0.79834 0.3587 0.44249 0.0
C2421 C 0.79203 0.37766 0.41844 0.0
N2422 N 0.82079 0.36963 0.46416 0.0
N2423 N 0.80134 0.38214 0.42969 0.0
H2424 H 0.88218 0.41122 0.76967 0.0
H2425 H 0.8623 0.4551 0.84578 0.0
H2426 H 0.83703 0.41675 0.787 0.0
H2427 H 0.90473 0.46098 0.82265 0.0
H2428 H 0.85392 0.43841 0.82568 0.0
H2429 H 0.89166 0.42702 0.79032 0.0
C2430 C 0.87428 0.41571 0.77782 0.0
C2431 C 0.85879 0.4127 0.77659 0.0
C2432 C 0.86507 0.44333 0.82498 0.0
C2433 C 0.86954 0.43063 0.80019 0.0
C2434 C 0.8699 0.45284 0.83649 0.0
C2435 C 0.88423 0.4595 0.83588 0.0
C2436 C 0.87466 0.44033 0.81277 0.0
C2437 C 0.89356 0.45614 0.82354 0.0
C2438 C 0.87969 0.42475 0.78955 0.0
C2439 C 0.84905 0.41882 0.78745 0.0
N2440 N 0.88862 0.44675 0.81245 0.0
N2441 N 0.85459 0.42744 0.79879 0.0
H2442 H 0.78826 0.65477 0.07293 0.0
H2443 H 0.83396 0.58594 0.03736 0.0
H2444 H 0.79572 0.61235 0.09562 0.0
H2445 H 0.83756 0.6312 0.01981 0.0
H2446 H 0.81851 0.5954 0.05795 0.0
H2447 H 0.80501 0.64639 0.05255 0.0
C2448 C 0.79343 0.64374 0.07365 0.0
C2449 C 0.79055 0.63423 0.08599 0.0
C2450 C 0.82271 0.60331 0.04965 0.0
C2451 C 0.80957 0.62459 0.06274 0.0
C2452 C 0.83151 0.5979 0.03784 0.0
C2453 C 0.83705 0.60779 0.02682 0.0
C2454 C 0.81925 0.61873 0.05043 0.0
C2455 C 0.83355 0.62319 0.02809 0.0
C2456 C 0.80301 0.63899 0.06205 0.0
C2457 C 0.79759 0.62007 0.08635 0.0
N2458 N 0.82477 0.62819 0.03965 0.0
N2459 N 0.80668 0.61566 0.07488 0.0
H2460 H 0.61842 0.58596 0.27092 0.0
H2461 H 0.63931 0.54335 0.34754 0.0
H2462 H 0.66381 0.58056 0.28761 0.0
H2463 H 0.59637 0.53754 0.32537 0.0
H2464 H 0.64749 0.55954 0.32694 0.0
H2465 H 0.6092 0.57062 0.29203 0.0
C2466 C 0.62643 0.5816 0.27903 0.0
C2467 C 0.64192 0.58452 0.27748 0.0
C2468 C 0.63628 0.55474 0.32656 0.0
C2469 C 0.63146 0.56709 0.30162 0.0
C2470 C 0.63156 0.54551 0.33836 0.0
C2471 C 0.61714 0.53902 0.33817 0.0
C2472 C 0.62648 0.55764 0.31448 0.0
C2473 C 0.60762 0.54226 0.32594 0.0
C2474 C 0.62117 0.57282 0.29103 0.0
C2475 C 0.65179 0.57856 0.2883 0.0
N2476 N 0.61245 0.55137 0.31457 0.0
N2477 N 0.6464 0.57018 0.29991 0.0
H2478 H 0.66135 0.37055 0.52418 0.0
H2479 H 0.70778 0.3873 0.59922 0.0
H2480 H 0.67127 0.41538 0.54038 0.0
H2481 H 0.71062 0.34463 0.57595 0.0
H2482 H 0.69207 0.39705 0.57895 0.0
H2483 H 0.67727 0.36014 0.54423 0.0
C2484 C 0.66687 0.3782 0.53194 0.0
C2485 C 0.66498 0.39386 0.53063 0.0
C2486 C 0.69614 0.38556 0.57825 0.0
C2487 C 0.68305 0.38204 0.55354 0.0
C2488 C 0.70507 0.37995 0.58986 0.0
C2489 C 0.71053 0.36512 0.58927 0.0
C2490 C 0.6925 0.37625 0.566 0.0
C2491 C 0.70668 0.35615 0.57682 0.0
C2492 C 0.67597 0.37225 0.54332 0.0
C2493 C 0.67243 0.40324 0.54095 0.0
N2494 N 0.69782 0.36185 0.56567 0.0
N2495 N 0.68106 0.39718 0.55201 0.0
H2496 H 0.71276 0.83481 0.58353 0.0
H2497 H 0.67702 0.90409 0.53868 0.0
H2498 H 0.73001 0.88014 0.58768 0.0
H2499 H 0.6543 0.86159 0.54557 0.0
H2500 H 0.6974 0.89547 0.55526 0.0
H2501 H 0.69213 0.84433 0.56813 0.0
C2502 C 0.71221 0.84679 0.58121 0.0
C2503 C 0.72314 0.85669 0.5869 0.0
C2504 C 0.6879 0.8881 0.55318 0.0
C2505 C 0.69951 0.86768 0.56917 0.0
C2506 C 0.67629 0.89298 0.54369 0.0
C2507 C 0.66394 0.88354 0.54071 0.0
C2508 C 0.68721 0.87361 0.55955 0.0
C2509 C 0.66357 0.86927 0.54754 0.0
C2510 C 0.70038 0.85222 0.57245 0.0
C2511 C 0.72179 0.87211 0.58355 0.0
N2512 N 0.67506 0.86473 0.55655 0.0
N2513 N 0.71022 0.87714 0.57482 0.0
H2514 H 0.21417 0.6648 0.41694 0.0
H2515 H 0.17868 0.59478 0.46086 0.0
H2516 H 0.2313 0.61953 0.41178 0.0
H2517 H 0.15593 0.63739 0.45475 0.0
H2518 H 0.199 0.60368 0.44434 0.0
H2519 H 0.19371 0.65504 0.43242 0.0
C2520 C 0.21363 0.65278 0.41906 0.0
C2521 C 0.22448 0.64296 0.41306 0.0
C2522 C 0.18951 0.61102 0.44659 0.0
C2523 C 0.20104 0.63169 0.43087 0.0
C2524 C 0.17793 0.60597 0.45603 0.0
C2525 C 0.16559 0.61536 0.45922 0.0
C2526 C 0.18879 0.6256 0.44046 0.0
C2527 C 0.1652 0.62974 0.45262 0.0
C2528 C 0.2019 0.64721 0.42787 0.0
C2529 C 0.22315 0.62749 0.41616 0.0
N2530 N 0.17665 0.63443 0.44364 0.0
N2531 N 0.21167 0.62232 0.42494 0.0
H2532 H 0.61284 0.90463 0.70325 0.0
H2533 H 0.63152 0.98252 0.66207 0.0
H2534 H 0.65448 0.92862 0.71107 0.0
H2535 H 0.58678 0.9639 0.66675 0.0
H2536 H 0.64138 0.96167 0.67744 0.0
H2537 H 0.60445 0.925 0.68695 0.0
C2538 C 0.62027 0.91417 0.7015 0.0
C2539 C 0.63437 0.91495 0.70862 0.0
C2540 C 0.62942 0.96222 0.67507 0.0
C2541 C 0.62477 0.93839 0.68989 0.0
C2542 C 0.62379 0.97406 0.66629 0.0
C2543 C 0.6083 0.97497 0.66316 0.0
C2544 C 0.61948 0.95116 0.68054 0.0
C2545 C 0.59879 0.96372 0.66892 0.0
C2546 C 0.61543 0.92583 0.69221 0.0
C2547 C 0.64349 0.9276 0.70587 0.0
N2548 N 0.60454 0.95229 0.67727 0.0
N2549 N 0.63853 0.93887 0.6967 0.0
H2550 H 0.34545 0.36057 0.95122 0.0
H2551 H 0.26783 0.38063 0.90995 0.0
H2552 H 0.32157 0.40222 0.95935 0.0
H2553 H 0.28604 0.33564 0.91363 0.0
H2554 H 0.28896 0.39002 0.9252 0.0
H2555 H 0.32531 0.35262 0.93433 0.0
C2556 C 0.336 0.3681 0.94941 0.0
C2557 C 0.33516 0.38205 0.9568 0.0
C2558 C 0.28829 0.37811 0.92262 0.0
C2559 C 0.31202 0.37298 0.93741 0.0
C2560 C 0.27629 0.37275 0.9139 0.0
C2561 C 0.27514 0.35732 0.91058 0.0
C2562 C 0.29928 0.36797 0.92785 0.0
C2563 C 0.2864 0.34761 0.91599 0.0
C2564 C 0.32448 0.36352 0.93978 0.0
C2565 C 0.32263 0.39132 0.95395 0.0
N2566 N 0.29799 0.3531 0.92431 0.0
N2567 N 0.31152 0.38661 0.94448 0.0
H2568 H 0.41901 0.52722 0.66078 0.0
H2569 H 0.35173 0.5657 0.70704 0.0
H2570 H 0.37284 0.51204 0.65845 0.0
H2571 H 0.39509 0.58681 0.70054 0.0
H2572 H 0.35978 0.54489 0.69083 0.0
H2573 H 0.411 0.54807 0.677 0.0
C2574 C 0.4072 0.52824 0.66369 0.0
C2575 C 0.39659 0.51786 0.65821 0.0
C2576 C 0.36752 0.5541 0.69293 0.0
C2577 C 0.38734 0.54167 0.67683 0.0
C2578 C 0.36294 0.56597 0.70221 0.0
C2579 C 0.37273 0.57805 0.70515 0.0
C2580 C 0.38206 0.55419 0.68665 0.0
C2581 C 0.38713 0.57778 0.69855 0.0
C2582 C 0.40262 0.54018 0.67292 0.0
C2583 C 0.38142 0.51978 0.66236 0.0
N2584 N 0.39137 0.56602 0.68966 0.0
N2585 N 0.37727 0.53141 0.67144 0.0
H2586 H 0.78563 0.1644 0.08099 0.0
H2587 H 0.81932 0.09406 0.03608 0.0
H2588 H 0.76785 0.11937 0.08608 0.0
H2589 H 0.84257 0.13647 0.04161 0.0
H2590 H 0.79945 0.10316 0.05306 0.0
H2591 H 0.80569 0.15443 0.06513 0.0
C2592 C 0.78595 0.15239 0.07879 0.0
C2593 C 0.77503 0.14271 0.08487 0.0
C2594 C 0.80896 0.11041 0.05058 0.0
C2595 C 0.798 0.1312 0.06659 0.0
C2596 C 0.82026 0.10526 0.04087 0.0
C2597 C 0.83262 0.11453 0.03739 0.0
C2598 C 0.80996 0.12499 0.0567 0.0
C2599 C 0.83328 0.12891 0.04395 0.0
C2600 C 0.79745 0.1467 0.06975 0.0
C2601 C 0.77607 0.12724 0.08165 0.0
N2602 N 0.82209 0.13371 0.0532 0.0
N2603 N 0.78732 0.12195 0.07264 0.0
H2604 H 0.59222 0.02298 0.81199 0.0
H2605 H 0.62453 0.10382 0.80681 0.0
H2606 H 0.61891 0.03863 0.84946 0.0
H2607 H 0.63525 0.07264 0.7711 0.0
H2608 H 0.61702 0.08241 0.82282 0.0
H2609 H 0.60241 0.04359 0.7965 0.0
C2610 C 0.6002 0.0308 0.81693 0.0
C2611 C 0.60479 0.02918 0.83196 0.0
C2612 C 0.62112 0.08033 0.8115 0.0
C2613 C 0.61607 0.05279 0.81453 0.0
C2614 C 0.62531 0.09246 0.80238 0.0
C2615 C 0.63052 0.0899 0.78767 0.0
C2616 C 0.62165 0.06566 0.80564 0.0
C2617 C 0.63137 0.07501 0.78242 0.0
C2618 C 0.60603 0.04243 0.8081 0.0
C2619 C 0.61519 0.03952 0.83787 0.0
N2620 N 0.62671 0.06342 0.79132 0.0
N2621 N 0.62033 0.0511 0.8292 0.0
H2622 H 0.91355 0.965 0.33402 0.0
H2623 H 0.8444 0.92902 0.28927 0.0
H2624 H 0.86821 0.98216 0.33837 0.0
H2625 H 0.88696 0.90646 0.2963 0.0
H2626 H 0.85287 0.94942 0.30592 0.0
H2627 H 0.90403 0.94434 0.3187 0.0
C2628 C 0.90156 0.96442 0.33175 0.0
C2629 C 0.89166 0.97534 0.33747 0.0
C2630 C 0.86029 0.93995 0.30385 0.0
C2631 C 0.88066 0.95166 0.31984 0.0
C2632 C 0.85549 0.92833 0.29434 0.0
C2633 C 0.865 0.91603 0.29135 0.0
C2634 C 0.87475 0.93931 0.31026 0.0
C2635 C 0.87923 0.9157 0.29825 0.0
C2636 C 0.89612 0.95257 0.32304 0.0
C2637 C 0.87623 0.97395 0.33421 0.0
N2638 N 0.88369 0.9272 0.30729 0.0
N2639 N 0.87119 0.96235 0.32551 0.0
H2640 H 0.43815 0.34751 0.12191 0.0
H2641 H 0.43152 0.26712 0.15476 0.0
H2642 H 0.47278 0.31531 0.11059 0.0
H2643 H 0.39447 0.28252 0.12732 0.0
H2644 H 0.44715 0.28766 0.14468 0.0
H2645 H 0.42174 0.32653 0.12987 0.0
C2646 C 0.44226 0.33603 0.12112 0.0
C2647 C 0.45676 0.33304 0.11559 0.0
C2648 C 0.4356 0.28648 0.14091 0.0
C2649 C 0.43839 0.30935 0.12494 0.0
C2650 C 0.4267 0.27488 0.14666 0.0
C2651 C 0.41176 0.2732 0.14179 0.0
C2652 C 0.42932 0.29671 0.13065 0.0
C2653 C 0.40599 0.28347 0.13124 0.0
C2654 C 0.43292 0.32416 0.12556 0.0
C2655 C 0.46162 0.31802 0.11471 0.0
N2656 N 0.41475 0.295 0.12615 0.0
N2657 N 0.45253 0.3067 0.1196 0.0
H2658 H 0.42942 0.70991 0.84067 0.0
H2659 H 0.46328 0.66818 0.91286 0.0
H2660 H 0.40554 0.70488 0.88279 0.0
H2661 H 0.48115 0.66126 0.86812 0.0
H2662 H 0.44314 0.68351 0.90216 0.0
H2663 H 0.4496 0.69379 0.85063 0.0
C2664 C 0.4284 0.70541 0.85198 0.0
C2665 C 0.41577 0.70876 0.86091 0.0
C2666 C 0.45143 0.67861 0.89466 0.0
C2667 C 0.43879 0.69047 0.87235 0.0
C2668 C 0.46297 0.66989 0.90077 0.0
C2669 C 0.47392 0.66342 0.89137 0.0
C2670 C 0.45088 0.68106 0.87904 0.0
C2671 C 0.47291 0.666 0.87578 0.0
C2672 C 0.43989 0.6962 0.85763 0.0
C2673 C 0.41503 0.7026 0.87547 0.0
N2674 N 0.46162 0.6747 0.87009 0.0
N2675 N 0.4264 0.69384 0.88075 0.0
H2676 H 0.04489 0.65285 0.63706 0.0
H2677 H 0.08866 0.72938 0.61863 0.0
H2678 H 0.03896 0.67677 0.59508 0.0
H2679 H 0.08286 0.7114 0.66348 0.0
H2680 H 0.07299 0.70883 0.60875 0.0
H2681 H 0.06154 0.67282 0.64581 0.0
C2682 C 0.04713 0.66228 0.62964 0.0
C2683 C 0.04046 0.66316 0.61532 0.0
C2684 C 0.07518 0.70942 0.62074 0.0
C2685 C 0.05959 0.68612 0.62532 0.0
C2686 C 0.08415 0.7211 0.62638 0.0
C2687 C 0.08703 0.72212 0.64191 0.0
C2688 C 0.06925 0.69863 0.6307 0.0
C2689 C 0.08088 0.71111 0.65145 0.0
C2690 C 0.05661 0.67372 0.63468 0.0
C2691 C 0.0438 0.67568 0.60622 0.0
N2692 N 0.07232 0.69982 0.64568 0.0
N2693 N 0.05316 0.6867 0.61138 0.0
H2694 H 0.0931 0.29794 0.38742 0.0
H2695 H 0.01564 0.33976 0.36826 0.0
H2696 H 0.06946 0.29112 0.34542 0.0
H2697 H 0.03332 0.3345 0.4133 0.0
H2698 H 0.03671 0.32463 0.35861 0.0
H2699 H 0.07274 0.31428 0.39594 0.0
C2700 C 0.08365 0.29993 0.37995 0.0
C2701 C 0.08295 0.29309 0.36571 0.0
C2702 C 0.03593 0.32682 0.3706 0.0
C2703 C 0.05957 0.31184 0.37542 0.0
C2704 C 0.02396 0.33547 0.3761 0.0
C2705 C 0.02271 0.33834 0.39161 0.0
C2706 C 0.04678 0.3212 0.38067 0.0
C2707 C 0.03379 0.3325 0.40127 0.0
C2708 C 0.072 0.30923 0.38485 0.0
C2709 C 0.07041 0.29611 0.35652 0.0
N2710 N 0.04536 0.32425 0.39563 0.0
N2711 N 0.05919 0.30528 0.36154 0.0
H2712 H 0.41595 0.71067 0.33276 0.0
H2713 H 0.46023 0.67724 0.4034 0.0
H2714 H 0.41143 0.7293 0.37749 0.0
H2715 H 0.45394 0.65312 0.36159 0.0
H2716 H 0.44335 0.69704 0.39413 0.0
H2717 H 0.43098 0.69014 0.34308 0.0
C2718 C 0.41811 0.71043 0.34478 0.0
C2719 C 0.41246 0.72174 0.35428 0.0
C2720 C 0.44561 0.68736 0.38705 0.0
C2721 C 0.42976 0.69824 0.36618 0.0
C2722 C 0.45526 0.67607 0.3923 0.0
C2723 C 0.45855 0.66353 0.38323 0.0
C2724 C 0.43935 0.68615 0.37256 0.0
C2725 C 0.45176 0.66258 0.36898 0.0
C2726 C 0.42665 0.69866 0.35067 0.0
C2727 C 0.41556 0.72079 0.36977 0.0
N2728 N 0.44258 0.67379 0.36405 0.0
N2729 N 0.42411 0.70929 0.37524 0.0
H2730 H 0.03265 0.64673 0.12383 0.0
H2731 H 0.06546 0.72693 0.14114 0.0
H2732 H 0.01887 0.68438 0.09634 0.0
H2733 H 0.09657 0.6909 0.13124 0.0
H2734 H 0.04457 0.71079 0.13251 0.0
H2735 H 0.05303 0.6624 0.13444 0.0
C2736 C 0.03387 0.65831 0.12015 0.0
C2737 C 0.02423 0.66433 0.10917 0.0
C2738 C 0.05598 0.70645 0.13241 0.0
C2739 C 0.04691 0.68219 0.12148 0.0
C2740 C 0.06782 0.71555 0.13737 0.0
C2741 C 0.08267 0.71017 0.13681 0.0
C2742 C 0.05904 0.69178 0.12739 0.0
C2743 C 0.08524 0.69542 0.13172 0.0
C2744 C 0.04544 0.66716 0.12614 0.0
C2745 C 0.02621 0.67936 0.1047 0.0
N2746 N 0.07349 0.68664 0.1273 0.0
N2747 N 0.03726 0.68787 0.111 0.0
H2748 H 0.08247 0.28489 0.83576 0.0
H2749 H 0.038 0.32069 0.90526 0.0
H2750 H 0.08701 0.26763 0.88103 0.0
H2751 H 0.04488 0.34339 0.86276 0.0
H2752 H 0.05448 0.30022 0.89658 0.0
H2753 H 0.06705 0.30545 0.84538 0.0
C2754 C 0.08022 0.28542 0.84775 0.0
C2755 C 0.08604 0.27451 0.85761 0.0
C2756 C 0.05241 0.30974 0.88922 0.0
C2757 C 0.06828 0.29807 0.86872 0.0
C2758 C 0.04299 0.3214 0.89414 0.0
C2759 C 0.04003 0.33377 0.88471 0.0
C2760 C 0.05874 0.31041 0.87472 0.0
C2761 C 0.04683 0.33411 0.87043 0.0
C2762 C 0.07145 0.29721 0.85325 0.0
C2763 C 0.08278 0.27583 0.87305 0.0
N2764 N 0.05577 0.32258 0.86585 0.0
N2765 N 0.07403 0.28737 0.87814 0.0
H2766 H 0.47672 0.35519 0.64506 0.0
H2767 H 0.42328 0.29301 0.62202 0.0
H2768 H 0.49461 0.31715 0.62076 0.0
H2769 H 0.42887 0.29364 0.67034 0.0
H2770 H 0.44564 0.30905 0.61957 0.0
H2771 H 0.45585 0.33902 0.65413 0.0
C2772 C 0.47664 0.34331 0.64223 0.0
C2773 C 0.48742 0.33739 0.63228 0.0
C2774 C 0.44183 0.30574 0.63069 0.0
C2775 C 0.46354 0.3193 0.64192 0.0
C2776 C 0.42909 0.29666 0.63211 0.0
C2777 C 0.42427 0.29192 0.64639 0.0
C2778 C 0.44959 0.31044 0.64363 0.0
C2779 C 0.43232 0.29697 0.65912 0.0
C2780 C 0.46469 0.33418 0.64724 0.0
C2781 C 0.48655 0.32206 0.62849 0.0
N2782 N 0.44461 0.30606 0.65746 0.0
N2783 N 0.47462 0.31365 0.63298 0.0
H2784 H 0.13589 0.4534 0.34519 0.0
H2785 H 0.11702 0.41182 0.26756 0.0
H2786 H 0.09423 0.46098 0.32118 0.0
H2787 H 0.16186 0.41638 0.28593 0.0
H2788 H 0.10729 0.4272 0.28843 0.0
H2789 H 0.14433 0.43698 0.32491 0.0
C2790 C 0.12847 0.45158 0.33567 0.0
C2791 C 0.11434 0.45865 0.33487 0.0
C2792 C 0.11925 0.42479 0.28785 0.0
C2793 C 0.12399 0.43977 0.31153 0.0
C2794 C 0.1248 0.41599 0.276 0.0
C2795 C 0.14028 0.41285 0.27498 0.0
C2796 C 0.12925 0.43029 0.29883 0.0
C2797 C 0.14986 0.41857 0.28619 0.0
C2798 C 0.13333 0.44222 0.32406 0.0
C2799 C 0.10523 0.45581 0.32222 0.0
N2800 N 0.14418 0.42696 0.29765 0.0
N2801 N 0.11022 0.44657 0.31103 0.0
H2802 H 0.31523 0.40013 0.01735 0.0
H2803 H 0.30915 0.36828 0.09793 0.0
H2804 H 0.35297 0.37419 0.03363 0.0
H2805 H 0.27418 0.35662 0.06625 0.0
H2806 H 0.32551 0.37556 0.07671 0.0
H2807 H 0.29952 0.38942 0.03752 0.0
C2808 C 0.32017 0.39218 0.0252 0.0
C2809 C 0.33534 0.38796 0.02392 0.0
C2810 C 0.31429 0.37128 0.07449 0.0
C2811 C 0.31769 0.37611 0.04701 0.0
C2812 C 0.30497 0.36723 0.0865 0.0
C2813 C 0.29037 0.36185 0.08373 0.0
C2814 C 0.3087 0.37045 0.05974 0.0
C2815 C 0.28542 0.36064 0.06877 0.0
C2816 C 0.31123 0.38606 0.03658 0.0
C2817 C 0.34127 0.37761 0.03428 0.0
N2818 N 0.29449 0.36519 0.05729 0.0
N2819 N 0.33247 0.37219 0.04562 0.0
H2820 H 0.36415 0.54446 0.84432 0.0
H2821 H 0.38702 0.58382 0.7665 0.0
H2822 H 0.40732 0.5371 0.82306 0.0
H2823 H 0.34129 0.57951 0.78262 0.0
H2824 H 0.39572 0.5694 0.78849 0.0
H2825 H 0.35671 0.56028 0.82316 0.0
C2826 C 0.37211 0.54622 0.83524 0.0
C2827 C 0.38636 0.53936 0.83544 0.0
C2828 C 0.38379 0.57165 0.78716 0.0
C2829 C 0.37788 0.55752 0.81111 0.0
C2830 C 0.37883 0.5799 0.77467 0.0
C2831 C 0.3634 0.58282 0.7727 0.0
C2832 C 0.37326 0.56649 0.7978 0.0
C2833 C 0.35328 0.57745 0.78361 0.0
C2834 C 0.36783 0.55523 0.82312 0.0
C2835 C 0.39619 0.5421 0.82333 0.0
N2836 N 0.35839 0.56959 0.79568 0.0
N2837 N 0.39176 0.55097 0.81162 0.0
H2838 H 0.20394 0.61004 0.59666 0.0
H2839 H 0.16163 0.62983 0.5196 0.0
H2840 H 0.2105 0.65226 0.57331 0.0
H2841 H 0.16673 0.58464 0.53698 0.0
H2842 H 0.17688 0.63927 0.54064 0.0
H2843 H 0.18744 0.60166 0.57636 0.0
C2844 C 0.20185 0.6176 0.58729 0.0
C2845 C 0.20868 0.63186 0.58666 0.0
C2846 C 0.17463 0.6273 0.53982 0.0
C2847 C 0.18974 0.62229 0.56334 0.0
C2848 C 0.1659 0.62191 0.52786 0.0
C2849 C 0.16294 0.60641 0.52651 0.0
C2850 C 0.18026 0.61715 0.55058 0.0
C2851 C 0.16878 0.59666 0.53751 0.0
C2852 C 0.19247 0.61277 0.57567 0.0
C2853 C 0.20553 0.64114 0.57422 0.0
N2854 N 0.17712 0.60219 0.54908 0.0
N2855 N 0.19628 0.6362 0.56303 0.0
H2856 H 0.16415 0.58506 0.21354 0.0
H2857 H 0.09526 0.54069 0.17658 0.0
H2858 H 0.11862 0.58937 0.2302 0.0
H2859 H 0.13807 0.54765 0.15448 0.0
H2860 H 0.10359 0.55721 0.19713 0.0
H2861 H 0.15483 0.56991 0.19265 0.0
C2862 C 0.15217 0.58282 0.21281 0.0
C2863 C 0.14215 0.58848 0.22366 0.0
C2864 C 0.1111 0.55516 0.18773 0.0
C2865 C 0.13138 0.57103 0.19972 0.0
C2866 C 0.10638 0.54571 0.17602 0.0
C2867 C 0.116 0.54275 0.16381 0.0
C2868 C 0.12559 0.56153 0.18726 0.0
C2869 C 0.13026 0.5496 0.16365 0.0
C2870 C 0.14684 0.57421 0.20083 0.0
C2871 C 0.12673 0.58526 0.22206 0.0
N2872 N 0.13464 0.55857 0.17523 0.0
N2873 N 0.12181 0.57665 0.21035 0.0
H2874 H 0.16087 0.36847 0.98078 0.0
H2875 H 0.20239 0.38706 0.90309 0.0
H2876 H 0.16591 0.41331 0.96254 0.0
H2877 H 0.20977 0.34534 0.92707 0.0
H2878 H 0.18611 0.39561 0.92343 0.0
H2879 H 0.17612 0.35863 0.95988 0.0
C2880 C 0.16513 0.37622 0.97237 0.0
C2881 C 0.16215 0.39174 0.97342 0.0
C2882 C 0.19128 0.38458 0.92426 0.0
C2883 C 0.17944 0.38058 0.94954 0.0
C2884 C 0.20055 0.37965 0.91261 0.0
C2885 C 0.20753 0.36547 0.9134 0.0
C2886 C 0.18882 0.37526 0.9368 0.0
C2887 C 0.20468 0.35638 0.92605 0.0
C2888 C 0.17386 0.37061 0.9605 0.0
C2889 C 0.16798 0.40129 0.96224 0.0
N2890 N 0.19551 0.36143 0.93728 0.0
N2891 N 0.17629 0.39555 0.95076 0.0
H2892 H 0.40665 0.45408 0.6718 0.0
H2893 H 0.38333 0.40431 0.72853 0.0
H2894 H 0.36235 0.44667 0.65305 0.0
H2895 H 0.33847 0.41662 0.71419 0.0
H2896 H 0.39363 0.41783 0.70685 0.0
H2897 H 0.39969 0.43874 0.69354 0.0
C2898 C 0.39552 0.44906 0.67216 0.0
C2899 C 0.38507 0.45167 0.66056 0.0
C2900 C 0.38156 0.41778 0.70855 0.0
C2901 C 0.37707 0.43386 0.68534 0.0
C2902 C 0.37565 0.40994 0.72088 0.0
C2903 C 0.36002 0.40943 0.72326 0.0
C2904 C 0.37173 0.42518 0.69855 0.0
C2905 C 0.3506 0.4168 0.71289 0.0
C2906 C 0.39159 0.44017 0.68455 0.0
C2907 C 0.37079 0.44496 0.66169 0.0
N2908 N 0.35661 0.42432 0.701 0.0
N2909 N 0.36719 0.43648 0.67391 0.0
H2910 H 0.33557 0.58503 0.46181 0.0
H2911 H 0.28987 0.65466 0.42781 0.0
H2912 H 0.33908 0.62993 0.48028 0.0
H2913 H 0.29687 0.6126 0.4043 0.0
H2914 H 0.30674 0.64583 0.44787 0.0
H2915 H 0.32013 0.5949 0.44139 0.0
C2916 C 0.33311 0.59699 0.46156 0.0
C2917 C 0.33861 0.60666 0.47279 0.0
C2918 C 0.30462 0.6386 0.43826 0.0
C2919 C 0.32082 0.61806 0.4494 0.0
C2920 C 0.29497 0.64361 0.42684 0.0
C2921 C 0.29191 0.63434 0.41437 0.0
C2922 C 0.3111 0.62418 0.43726 0.0
C2923 C 0.29887 0.62014 0.41369 0.0
C2924 C 0.32432 0.60263 0.44985 0.0
C2925 C 0.33509 0.62208 0.47183 0.0
N2926 N 0.30804 0.61548 0.425 0.0
N2927 N 0.32632 0.6273 0.46037 0.0
H2928 H 0.3191 0.09533 0.45698 0.0
H2929 H 0.28563 0.16627 0.41323 0.0
H2930 H 0.34354 0.13696 0.45063 0.0
H2931 H 0.26717 0.12147 0.40848 0.0
H2932 H 0.3062 0.15591 0.42824 0.0
H2933 H 0.29924 0.10483 0.44034 0.0
C2934 C 0.32032 0.10643 0.45204 0.0
C2935 C 0.33297 0.11539 0.45523 0.0
C2936 C 0.29769 0.14833 0.42386 0.0
C2937 C 0.31028 0.12633 0.43632 0.0
C2938 C 0.28591 0.15424 0.41534 0.0
C2939 C 0.27465 0.14472 0.40963 0.0
C2940 C 0.29816 0.1328 0.42685 0.0
C2941 C 0.27563 0.12921 0.41266 0.0
C2942 C 0.309 0.11182 0.44253 0.0
C2943 C 0.33399 0.12966 0.44849 0.0
N2944 N 0.28715 0.12373 0.42116 0.0
N2945 N 0.32274 0.13473 0.43945 0.0
H2946 H 0.82033 0.40174 0.5428 0.0
H2947 H 0.78689 0.3319 0.58851 0.0
H2948 H 0.84371 0.35942 0.54852 0.0
H2949 H 0.76937 0.37704 0.59345 0.0
H2950 H 0.8071 0.34174 0.57273 0.0
H2951 H 0.80081 0.3929 0.56028 0.0
C2952 C 0.82139 0.39063 0.54775 0.0
C2953 C 0.83366 0.38129 0.54415 0.0
C2954 C 0.7989 0.34953 0.57732 0.0
C2955 C 0.81138 0.37112 0.56404 0.0
C2956 C 0.78732 0.34391 0.58631 0.0
C2957 C 0.7764 0.35366 0.59229 0.0
C2958 C 0.79951 0.36502 0.5741 0.0
C2959 C 0.77758 0.36913 0.5891 0.0
C2960 C 0.81027 0.38561 0.55775 0.0
C2961 C 0.83447 0.36702 0.55093 0.0
N2962 N 0.78887 0.37433 0.58011 0.0
N2963 N 0.82345 0.36235 0.56046 0.0
H2964 H 0.36631 0.01638 0.33837 0.0
H2965 H 0.38686 0.09284 0.29516 0.0
H2966 H 0.41149 0.03393 0.33388 0.0
H2967 H 0.34432 0.06995 0.28915 0.0
H2968 H 0.39499 0.07274 0.31201 0.0
H2969 H 0.35702 0.03732 0.32284 0.0
C2970 C 0.37425 0.02466 0.33419 0.0
C2971 C 0.3897 0.02338 0.33738 0.0
C2972 C 0.38387 0.07211 0.30703 0.0
C2973 C 0.37917 0.04731 0.31973 0.0
C2974 C 0.37919 0.08361 0.29742 0.0
C2975 C 0.3649 0.08306 0.29066 0.0
C2976 C 0.37418 0.05995 0.31002 0.0
C2977 C 0.35546 0.0708 0.29405 0.0
C2978 C 0.36896 0.03656 0.32529 0.0
C2979 C 0.3995 0.0344 0.33165 0.0
N2980 N 0.36027 0.05971 0.30351 0.0
N2981 N 0.39407 0.04589 0.32314 0.0
H2982 H 0.67747 0.59497 0.03952 0.0
H2983 H 0.71251 0.6641 0.0852 0.0
H2984 H 0.65446 0.63725 0.04685 0.0
H2985 H 0.73024 0.61892 0.08894 0.0
H2986 H 0.69206 0.65453 0.06962 0.0
H2987 H 0.69779 0.60356 0.05623 0.0
C2988 C 0.67667 0.60602 0.04465 0.0
C2989 C 0.66425 0.61542 0.04175 0.0
C2990 C 0.70037 0.64667 0.07388 0.0
C2991 C 0.68744 0.6253 0.06073 0.0
C2992 C 0.7121 0.65214 0.08275 0.0
C2993 C 0.72312 0.64229 0.08838 0.0
C2994 C 0.69968 0.63124 0.07043 0.0
C2995 C 0.72196 0.62689 0.08486 0.0
C2996 C 0.68824 0.61089 0.0542 0.0
C2997 C 0.66379 0.62961 0.04874 0.0
N2998 N 0.71047 0.62183 0.07602 0.0
N2999 N 0.67523 0.63413 0.05781 0.0
H3000 H 0.58483 0.46197 0.33812 0.0
H3001 H 0.65287 0.4264 0.29122 0.0
H3002 H 0.63043 0.47861 0.3416 0.0
H3003 H 0.60982 0.40454 0.29742 0.0
H3004 H 0.64485 0.44635 0.30859 0.0
H3005 H 0.59375 0.44155 0.3221 0.0
C3006 C 0.59675 0.46131 0.33554 0.0
C3007 C 0.6069 0.47204 0.34119 0.0
C3008 C 0.63721 0.43713 0.30618 0.0
C3009 C 0.6172 0.44865 0.32273 0.0
C3010 C 0.64176 0.42577 0.29624 0.0
C3011 C 0.63198 0.41379 0.29283 0.0
C3012 C 0.62276 0.43657 0.31261 0.0
C3013 C 0.61773 0.41354 0.2997 0.0
C3014 C 0.60184 0.44961 0.32641 0.0
C3015 C 0.62223 0.47056 0.33751 0.0
N3016 N 0.61354 0.42479 0.30918 0.0
N3017 N 0.62691 0.45912 0.32841 0.0
H3018 H 0.15422 0.85888 0.95053 0.0
H3019 H 0.23116 0.87889 0.90798 0.0
H3020 H 0.17709 0.90144 0.95649 0.0
H3021 H 0.21408 0.83364 0.9134 0.0
H3022 H 0.21009 0.8883 0.92325 0.0
H3023 H 0.17469 0.85045 0.93425 0.0
C3024 C 0.16352 0.8665 0.94837 0.0
C3025 C 0.16394 0.88088 0.95495 0.0
C3026 C 0.21099 0.87632 0.92107 0.0
C3027 C 0.18748 0.87126 0.93624 0.0
C3028 C 0.22297 0.87095 0.91233 0.0
C3029 C 0.22441 0.85545 0.90944 0.0
C3030 C 0.20029 0.86613 0.92679 0.0
C3031 C 0.21348 0.84567 0.91538 0.0
C3032 C 0.17524 0.86164 0.9391 0.0
C3033 C 0.17632 0.89023 0.95171 0.0
N3034 N 0.20189 0.85118 0.92372 0.0
N3035 N 0.1876 0.88526 0.94257 0.0
H3036 H 0.35557 0.93235 0.22368 0.0
H3037 H 0.3736 0.96534 0.14342 0.0
H3038 H 0.36609 0.90152 0.18759 0.0
H3039 H 0.40009 0.97941 0.18167 0.0
H3040 H 0.36256 0.94507 0.15898 0.0
H3041 H 0.36369 0.95346 0.20756 0.0
C3042 C 0.35935 0.93009 0.21229 0.0
C3043 C 0.36028 0.91527 0.2069 0.0
C3044 C 0.37071 0.95273 0.1639 0.0
C3045 C 0.36909 0.93913 0.18852 0.0
C3046 C 0.37695 0.96422 0.15512 0.0
C3047 C 0.3878 0.97387 0.16133 0.0
C3048 C 0.37501 0.95135 0.17905 0.0
C3049 C 0.39184 0.97204 0.17649 0.0
C3050 C 0.36401 0.94205 0.20319 0.0
C3051 C 0.36534 0.91283 0.19213 0.0
N3052 N 0.38533 0.96105 0.18492 0.0
N3053 N 0.3695 0.92469 0.18336 0.0
H3054 H 0.11449 0.09698 0.7027 0.0
H3055 H 0.13234 0.01971 0.66008 0.0
H3056 H 0.15661 0.07329 0.7086 0.0
H3057 H 0.08749 0.03735 0.66686 0.0
H3058 H 0.14244 0.04051 0.67531 0.0
H3059 H 0.1055 0.07654 0.68677 0.0
C3060 C 0.1219 0.08751 0.7006 0.0
C3061 C 0.13633 0.08684 0.70705 0.0
C3062 C 0.13039 0.03977 0.67345 0.0
C3063 C 0.12603 0.06332 0.68874 0.0
C3064 C 0.12463 0.02796 0.66473 0.0
C3065 C 0.10904 0.02678 0.66222 0.0
C3066 C 0.1205 0.05056 0.67948 0.0
C3067 C 0.09957 0.03775 0.66854 0.0
C3068 C 0.11671 0.0758 0.69153 0.0
C3069 C 0.14539 0.07424 0.7039 0.0
N3070 N 0.10545 0.04919 0.67682 0.0
N3071 N 0.14009 0.06295 0.69494 0.0
H3072 H 0.02588 0.13586 0.45867 0.0
H3073 H 0.1045 0.09347 0.47175 0.0
H3074 H 0.04939 0.11232 0.42314 0.0
H3075 H 0.08552 0.12607 0.50249 0.0
H3076 H 0.08273 0.09704 0.45507 0.0
H3077 H 0.04595 0.12903 0.47612 0.0
C3078 C 0.03522 0.12916 0.45454 0.0
C3079 C 0.03599 0.12476 0.43936 0.0
C3080 C 0.08332 0.10334 0.46551 0.0
C3081 C 0.05909 0.1169 0.45937 0.0
C3082 C 0.0957 0.10127 0.47506 0.0
C3083 C 0.09687 0.10956 0.4885 0.0
C3084 C 0.07199 0.11365 0.46952 0.0
C3085 C 0.08516 0.11952 0.4922 0.0
C3086 C 0.04671 0.12529 0.46453 0.0
C3087 C 0.04837 0.11603 0.43471 0.0
N3088 N 0.07324 0.12129 0.48277 0.0
N3089 N 0.05948 0.11243 0.44467 0.0
H3090 H 0.16103 0.85164 0.71999 0.0
H3091 H 0.11438 0.77553 0.70712 0.0
H3092 H 0.12649 0.83557 0.75029 0.0
H3093 H 0.14071 0.79696 0.67223 0.0
H3094 H 0.12173 0.7955 0.72454 0.0
H3095 H 0.15662 0.82972 0.70384 0.0
C3096 C 0.1526 0.84345 0.72331 0.0
C3097 C 0.14404 0.84549 0.73647 0.0
C3098 C 0.12596 0.79579 0.71309 0.0
C3099 C 0.13898 0.82041 0.71805 0.0
C3100 C 0.12181 0.78437 0.70314 0.0
C3101 C 0.12685 0.78462 0.68814 0.0
C3102 C 0.13528 0.80754 0.70807 0.0
C3103 C 0.13648 0.79636 0.68365 0.0
C3104 C 0.15006 0.83098 0.71406 0.0
C3105 C 0.13328 0.83451 0.74021 0.0
N3106 N 0.14035 0.80739 0.69357 0.0
N3107 N 0.13103 0.82247 0.73103 0.0
H3108 H 0.4154 0.87738 0.99871 0.0
H3109 H 0.44774 0.8905 0.91588 0.0
H3110 H 0.39537 0.90892 0.96754 0.0
H3111 H 0.47196 0.86725 0.95112 0.0
H3112 H 0.42837 0.89752 0.93431 0.0
H3113 H 0.43619 0.87361 0.98116 0.0
C3114 C 0.41542 0.88359 0.9882 0.0
C3115 C 0.4036 0.89344 0.98456 0.0
C3116 C 0.438 0.89099 0.938 0.0
C3117 C 0.42735 0.88906 0.96429 0.0
C3118 C 0.44904 0.88696 0.92749 0.0
C3119 C 0.46145 0.87819 0.93193 0.0
C3120 C 0.43934 0.8861 0.95301 0.0
C3121 C 0.46257 0.87396 0.94714 0.0
C3122 C 0.42732 0.88145 0.97818 0.0
C3123 C 0.40427 0.90123 0.9708 0.0
N3124 N 0.45162 0.87785 0.95707 0.0
N3125 N 0.41589 0.89877 0.96108 0.0
H3126 H 0.35792 0.19789 0.17033 0.0
H3127 H 0.37041 0.16281 0.25203 0.0
H3128 H 0.38179 0.22042 0.20627 0.0
H3129 H 0.33948 0.14356 0.21978 0.0
H3130 H 0.37407 0.18431 0.23538 0.0
H3131 H 0.35034 0.1782 0.18815 0.0
C3132 C 0.36147 0.19877 0.18198 0.0
C3133 C 0.37062 0.21076 0.18678 0.0
C3134 C 0.36638 0.17547 0.23195 0.0
C3135 C 0.36206 0.18827 0.20716 0.0
C3136 C 0.36431 0.16315 0.24145 0.0
C3137 C 0.3547 0.15133 0.23723 0.0
C3138 C 0.35894 0.17593 0.218 0.0
C3139 C 0.347 0.15245 0.22345 0.0
C3140 C 0.35712 0.18753 0.19214 0.0
C3141 C 0.37483 0.21135 0.20201 0.0
N3142 N 0.34941 0.16447 0.21423 0.0
N3143 N 0.37062 0.20021 0.21161 0.0
H3144 H 0.02533 0.86476 0.04009 0.0
H3145 H 0.10311 0.90795 0.02484 0.0
H3146 H 0.04912 0.88941 0.07466 0.0
H3147 H 0.08422 0.87444 0.99504 0.0
H3148 H 0.08166 0.90438 0.0419 0.0
H3149 H 0.04503 0.87144 0.02214 0.0
C3150 C 0.03465 0.87168 0.04391 0.0
C3151 C 0.03561 0.87644 0.05897 0.0
C3152 C 0.08219 0.89788 0.03159 0.0
C3153 C 0.05828 0.88412 0.03839 0.0
C3154 C 0.09439 0.89995 0.02181 0.0
C3155 C 0.0955 0.89141 0.00853 0.0
C3156 C 0.07097 0.88732 0.02796 0.0
C3157 C 0.08389 0.88119 0.0052 0.0
C3158 C 0.04592 0.87545 0.03363 0.0
C3159 C 0.04795 0.88542 0.06319 0.0
N3160 N 0.07214 0.87942 0.01485 0.0
N3161 N 0.05884 0.88893 0.05297 0.0
H3162 H 0.38284 0.77217 0.28793 0.0
H3163 H 0.37554 0.83574 0.24352 0.0
H3164 H 0.36407 0.79986 0.32329 0.0
H3165 H 0.3401 0.84911 0.27409 0.0
H3166 H 0.38082 0.81411 0.25947 0.0
H3167 H 0.37573 0.79124 0.26955 0.0
C3168 C 0.37727 0.78231 0.29185 0.0
C3169 C 0.37425 0.78451 0.30722 0.0
C3170 C 0.37163 0.82151 0.26255 0.0
C3171 C 0.36647 0.80669 0.28622 0.0
C3172 C 0.3687 0.834 0.25349 0.0
C3173 C 0.35733 0.84424 0.25744 0.0
C3174 C 0.36311 0.8192 0.2757 0.0
C3175 C 0.34893 0.84145 0.27057 0.0
C3176 C 0.37335 0.79329 0.28134 0.0
C3177 C 0.36675 0.79776 0.31157 0.0
N3178 N 0.35209 0.82926 0.27931 0.0
N3179 N 0.36317 0.80839 0.30111 0.0
H3180 H 0.41275 0.11692 0.49453 0.0
H3181 H 0.44455 0.10673 0.57789 0.0
H3182 H 0.39049 0.08918 0.52774 0.0
H3183 H 0.46921 0.12764 0.54148 0.0
H3184 H 0.42494 0.09933 0.55987 0.0
H3185 H 0.43389 0.12012 0.51166 0.0
C3186 C 0.41236 0.11142 0.50542 0.0
C3187 C 0.39981 0.10286 0.50977 0.0
C3188 C 0.43472 0.10542 0.55585 0.0
C3189 C 0.42398 0.10659 0.52957 0.0
C3190 C 0.4459 0.10966 0.56612 0.0
C3191 C 0.45847 0.11794 0.56121 0.0
C3192 C 0.43613 0.10957 0.54063 0.0
C3193 C 0.45967 0.12138 0.54582 0.0
C3194 C 0.42447 0.11322 0.51521 0.0
C3195 C 0.39997 0.09588 0.52397 0.0
N3196 N 0.4486 0.11728 0.53613 0.0
N3197 N 0.41182 0.09803 0.53347 0.0
H3198 H 0.13052 0.16681 0.74546 0.0
H3199 H 0.14016 0.19906 0.82876 0.0
H3200 H 0.16124 0.1472 0.7777 0.0
H3201 H 0.11664 0.22238 0.79309 0.0
H3202 H 0.14856 0.18018 0.81041 0.0
H3203 H 0.12587 0.18754 0.76283 0.0
C3204 C 0.13638 0.16692 0.75618 0.0
C3205 C 0.14621 0.15521 0.76018 0.0
C3206 C 0.14166 0.18951 0.80661 0.0
C3207 C 0.14081 0.1789 0.78025 0.0
C3208 C 0.13684 0.20027 0.81707 0.0
C3209 C 0.12758 0.21227 0.81248 0.0
C3210 C 0.13709 0.19071 0.79149 0.0
C3211 C 0.12369 0.2133 0.79718 0.0
C3212 C 0.13373 0.1788 0.7661 0.0
C3213 C 0.15357 0.15601 0.77417 0.0
N3214 N 0.12836 0.20262 0.78729 0.0
N3215 N 0.15059 0.16759 0.7838 0.0
H3216 H 0.50215 0.08324 0.12485 0.0
H3217 H 0.42224 0.04618 0.10741 0.0
H3218 H 0.47213 0.09985 0.09033 0.0
H3219 H 0.4558 0.02547 0.13594 0.0
H3220 H 0.44056 0.0655 0.10037 0.0
H3221 H 0.48559 0.06159 0.12847 0.0
C3222 C 0.49211 0.08229 0.11795 0.0
C3223 C 0.48846 0.09344 0.10734 0.0
C3224 C 0.44396 0.05665 0.10806 0.0
C3225 C 0.46938 0.06869 0.11151 0.0
C3226 C 0.4335 0.04563 0.11211 0.0
C3227 C 0.43746 0.03425 0.12238 0.0
C3228 C 0.45845 0.05639 0.11443 0.0
C3229 C 0.45223 0.03406 0.12804 0.0
C3230 C 0.48268 0.06989 0.12001 0.0
C3231 C 0.47536 0.09155 0.09866 0.0
N3232 N 0.46214 0.04505 0.1241 0.0
N3233 N 0.46621 0.07948 0.10104 0.0
H3234 H 0.22218 0.20991 0.38089 0.0
H3235 H 0.14347 0.22299 0.3389 0.0
H3236 H 0.19825 0.17434 0.35781 0.0
H3237 H 0.16264 0.25377 0.37136 0.0
H3238 H 0.16536 0.20643 0.34217 0.0
H3239 H 0.20237 0.22753 0.37376 0.0
C3240 C 0.21281 0.20581 0.37422 0.0
C3241 C 0.2118 0.19058 0.37007 0.0
C3242 C 0.16478 0.21685 0.34849 0.0
C3243 C 0.18903 0.21074 0.36189 0.0
C3244 C 0.15234 0.22633 0.3466 0.0
C3245 C 0.15119 0.23971 0.35496 0.0
C3246 C 0.17618 0.2209 0.3587 0.0
C3247 C 0.16299 0.24349 0.36479 0.0
C3248 C 0.20148 0.21589 0.37018 0.0
C3249 C 0.19942 0.18596 0.36135 0.0
N3250 N 0.17496 0.23412 0.3664 0.0
N3251 N 0.18846 0.196 0.3576 0.0
H3252 H 0.02992 0.89689 0.58937 0.0
H3253 H 0.04327 0.97432 0.63382 0.0
H3254 H -0.00062 0.91495 0.62267 0.0
H3255 H 0.07834 0.95179 0.60868 0.0
H3256 H 0.02569 0.9545 0.62655 0.0
H3257 H 0.04644 0.91875 0.59316 0.0
C3258 C 0.02662 0.90551 0.59736 0.0
C3259 C 0.01331 0.90404 0.6058 0.0
C3260 C 0.03721 0.95392 0.62255 0.0
C3261 C 0.03209 0.92902 0.61015 0.0
C3262 C 0.04727 0.96526 0.62667 0.0
C3263 C 0.06236 0.96467 0.62197 0.0
C3264 C 0.04223 0.94186 0.61361 0.0
C3265 C 0.06684 0.95266 0.61266 0.0
C3266 C 0.03607 0.91794 0.59955 0.0
C3267 C 0.0096 0.91554 0.61602 0.0
N3268 N 0.05683 0.94168 0.60883 0.0
N3269 N 0.01894 0.9275 0.61792 0.0
H3270 H 0.35433 0.7779 0.83395 0.0
H3271 H 0.27784 0.79079 0.88022 0.0
H3272 H 0.33517 0.74564 0.86494 0.0
H3273 H 0.30083 0.82659 0.85657 0.0
H3274 H 0.29701 0.77312 0.87159 0.0
H3275 H 0.33302 0.79484 0.83896 0.0
C3276 C 0.34556 0.77429 0.84164 0.0
C3277 C 0.34658 0.76038 0.84912 0.0
C3278 C 0.29786 0.78483 0.86823 0.0
C3279 C 0.32227 0.77966 0.85491 0.0
C3280 C 0.28689 0.79494 0.87315 0.0
C3281 C 0.28778 0.81025 0.86922 0.0
C3282 C 0.30985 0.78999 0.85928 0.0
C3283 C 0.29974 0.81492 0.85995 0.0
C3284 C 0.33346 0.78399 0.84456 0.0
C3285 C 0.33493 0.75631 0.85902 0.0
N3286 N 0.31036 0.80483 0.85534 0.0
N3287 N 0.32332 0.76591 0.86165 0.0
H3288 H 0.50154 0.91355 0.37632 0.0
H3289 H 0.4191 0.94674 0.38943 0.0
H3290 H 0.47015 0.89392 0.40791 0.0
H3291 H 0.45444 0.97041 0.36575 0.0
H3292 H 0.4374 0.92735 0.39666 0.0
H3293 H 0.48427 0.93457 0.37258 0.0
C3294 C 0.49103 0.9137 0.38254 0.0
C3295 C 0.48724 0.90192 0.39238 0.0
C3296 C 0.44115 0.93687 0.38999 0.0
C3297 C 0.4673 0.92595 0.38806 0.0
C3298 C 0.43071 0.94792 0.38584 0.0
C3299 C 0.43521 0.96017 0.37688 0.0
C3300 C 0.45615 0.93802 0.38503 0.0
C3301 C 0.45042 0.96114 0.3726 0.0
C3302 C 0.48118 0.92574 0.38043 0.0
C3303 C 0.47351 0.90278 0.40022 0.0
N3304 N 0.46028 0.95017 0.37661 0.0
N3305 N 0.46395 0.91453 0.39777 0.0
H3306 H 0.28248 0.2129 0.6103 0.0
H3307 H 0.35688 0.22435 0.66008 0.0
H3308 H 0.30143 0.17837 0.63889 0.0
H3309 H 0.34478 0.25394 0.62338 0.0
H3310 H 0.33475 0.20895 0.65463 0.0
H3311 H 0.30335 0.22963 0.6172 0.0
C3312 C 0.29095 0.20887 0.61813 0.0
C3313 C 0.29022 0.19418 0.62399 0.0
C3314 C 0.33691 0.21883 0.64778 0.0
C3315 C 0.31411 0.21327 0.63192 0.0
C3316 C 0.34954 0.22767 0.6509 0.0
C3317 C 0.35275 0.24045 0.64213 0.0
C3318 C 0.3273 0.22282 0.63586 0.0
C3319 C 0.34279 0.24415 0.63039 0.0
C3320 C 0.30289 0.21841 0.622 0.0
C3321 C 0.30155 0.18957 0.63403 0.0
N3322 N 0.33051 0.23538 0.6276 0.0
N3323 N 0.31301 0.19908 0.63767 0.0
H3324 H 0.07986 0.04844 0.88791 0.0
H3325 H 0.99769 0.08227 0.87436 0.0
H3326 H 0.04567 0.02665 0.86098 0.0
H3327 H 0.0285 0.10029 0.90744 0.0
H3328 H 0.01507 0.06149 0.86984 0.0
H3329 H 0.06124 0.06725 0.89574 0.0
C3330 C 0.06843 0.04754 0.88372 0.0
C3331 C 0.06435 0.036 0.87368 0.0
C3332 C 0.018 0.06991 0.87818 0.0
C3333 C 0.04304 0.05751 0.88254 0.0
C3334 C 0.00808 0.08181 0.88075 0.0
C3335 C 0.01169 0.09309 0.89123 0.0
C3336 C 0.03175 0.06934 0.88601 0.0
C3337 C 0.02527 0.09183 0.89925 0.0
C3338 C 0.0578 0.05827 0.88821 0.0
C3339 C 0.04936 0.03537 0.86867 0.0
N3340 N 0.0349 0.08024 0.89636 0.0
N3341 N 0.0393 0.04603 0.87306 0.0
H3342 H 0.20022 0.82779 0.13741 0.0
H3343 H 0.16314 0.74681 0.12507 0.0
H3344 H 0.22113 0.79218 0.11162 0.0
H3345 H 0.14666 0.7787 0.15795 0.0
H3346 H 0.18453 0.76336 0.12013 0.0
H3347 H 0.18053 0.81011 0.14522 0.0
C3348 C 0.20073 0.81624 0.13345 0.0
C3349 C 0.2123 0.81148 0.12377 0.0
C3350 C 0.17631 0.76671 0.12851 0.0
C3351 C 0.18978 0.79125 0.1326 0.0
C3352 C 0.16406 0.75726 0.13132 0.0
C3353 C 0.15305 0.76141 0.14189 0.0
C3354 C 0.17749 0.7805 0.1362 0.0
C3355 C 0.15489 0.77506 0.1497 0.0
C3356 C 0.18949 0.80616 0.13794 0.0
C3357 C 0.21241 0.79638 0.11905 0.0
N3358 N 0.16681 0.78419 0.1466 0.0
N3359 N 0.20126 0.78684 0.12342 0.0
H3360 H 0.1094 0.4224 0.04889 0.0
H3361 H 0.12467 0.50363 0.08406 0.0
H3362 H 0.13497 0.45721 0.02641 0.0
H3363 H 0.0913 0.47307 0.10199 0.0
H3364 H 0.12843 0.48664 0.06279 0.0
H3365 H 0.10239 0.44063 0.0684 0.0
C3366 C 0.11345 0.43389 0.04799 0.0
C3367 C 0.12287 0.43825 0.03605 0.0
C3368 C 0.12019 0.48369 0.07131 0.0
C3369 C 0.11498 0.4591 0.05836 0.0
C3370 C 0.11806 0.49338 0.08348 0.0
C3371 C 0.10771 0.48972 0.09486 0.0
C3372 C 0.11205 0.47013 0.07056 0.0
C3373 C 0.09941 0.47632 0.09346 0.0
C3374 C 0.10943 0.44429 0.05912 0.0
C3375 C 0.12774 0.4533 0.03544 0.0
N3376 N 0.10186 0.46692 0.0816 0.0
N3377 N 0.12384 0.46313 0.04649 0.0
H3378 H 0.58746 0.03357 0.89148 0.0
H3379 H 0.62979 0.04336 0.97066 0.0
H3380 H 0.6171 0.00046 0.9113 0.0
H3381 H 0.6081 0.08035 0.94761 0.0
H3382 H 0.62165 0.02645 0.95063 0.0
H3383 H 0.59145 0.04982 0.91357 0.0
C3384 C 0.59465 0.02966 0.90054 0.0
C3385 C 0.60206 0.01571 0.8995 0.0
C3386 C 0.6186 0.03825 0.94996 0.0
C3387 C 0.60664 0.03414 0.92469 0.0
C3388 C 0.62323 0.04793 0.96143 0.0
C3389 C 0.61976 0.06334 0.96076 0.0
C3390 C 0.61042 0.04397 0.93768 0.0
C3391 C 0.61113 0.06856 0.94854 0.0
C3392 C 0.59697 0.03894 0.91309 0.0
C3393 C 0.61128 0.01119 0.91153 0.0
N3394 N 0.60682 0.05891 0.93742 0.0
N3395 N 0.61333 0.02038 0.92357 0.0
H3396 H 0.17075 0.35982 0.19963 0.0
H3397 H 0.25176 0.37448 0.16353 0.0
H3398 H 0.20549 0.38613 0.22132 0.0
H3399 H 0.22114 0.34049 0.14689 0.0
H3400 H 0.23481 0.37896 0.18474 0.0
H3401 H 0.18887 0.35259 0.18012 0.0
C3402 C 0.1822 0.364 0.20035 0.0
C3403 C 0.18658 0.37366 0.21209 0.0
C3404 C 0.23184 0.37044 0.17651 0.0
C3405 C 0.20732 0.36552 0.18977 0.0
C3406 C 0.2415 0.36789 0.16438 0.0
C3407 C 0.23783 0.35714 0.15338 0.0
C3408 C 0.2183 0.36229 0.17759 0.0
C3409 C 0.22442 0.3489 0.15511 0.0
C3410 C 0.19254 0.35985 0.18922 0.0
C3411 C 0.20159 0.37869 0.21247 0.0
N3412 N 0.21507 0.35174 0.16691 0.0
N3413 N 0.21137 0.37466 0.20141 0.0
H3414 H 0.89049 0.92169 0.4497 0.0
H3415 H 0.87573 0.00329 0.41508 0.0
H3416 H 0.86615 0.95697 0.4728 0.0
H3417 H 0.90822 0.97234 0.39623 0.0
H3418 H 0.87218 0.98623 0.43631 0.0
H3419 H 0.89733 0.93981 0.42999 0.0
C3420 C 0.88668 0.93325 0.4507 0.0
C3421 C 0.87764 0.93779 0.46288 0.0
C3422 C 0.88017 0.98319 0.42761 0.0
C3423 C 0.88533 0.9585 0.44036 0.0
C3424 C 0.88218 0.99292 0.41545 0.0
C3425 C 0.89224 0.9892 0.40383 0.0
C3426 C 0.88813 0.96951 0.4281 0.0
C3427 C 0.90035 0.97565 0.40495 0.0
C3428 C 0.8906 0.94358 0.43946 0.0
C3429 C 0.87307 0.95292 0.4636 0.0
N3430 N 0.89802 0.96621 0.41681 0.0
N3431 N 0.87686 0.96268 0.45245 0.0
H3432 H 0.79137 0.11615 0.22202 0.0
H3433 H 0.77802 0.16024 0.14439 0.0
H3434 H 0.82672 0.14045 0.19899 0.0
H3435 H 0.74724 0.12737 0.16285 0.0
H3436 H 0.79473 0.15626 0.16606 0.0
H3437 H 0.77381 0.12343 0.2022 0.0
C3438 C 0.79544 0.12311 0.21284 0.0
C3439 C 0.8106 0.12759 0.21212 0.0
C3440 C 0.78427 0.14999 0.16537 0.0
C3441 C 0.79046 0.13596 0.18931 0.0
C3442 C 0.77471 0.1523 0.15305 0.0
C3443 C 0.76126 0.14406 0.15176 0.0
C3444 C 0.78027 0.13948 0.17653 0.0
C3445 C 0.75755 0.13389 0.16331 0.0
C3446 C 0.78539 0.12723 0.2015 0.0
C3447 C 0.81516 0.13666 0.19996 0.0
N3448 N 0.767 0.13189 0.17517 0.0
N3449 N 0.80514 0.1405 0.18899 0.0
H3450 H 0.38447 0.54427 0.52075 0.0
H3451 H 0.36527 0.51076 0.59829 0.0
H3452 H 0.36976 0.57507 0.55538 0.0
H3453 H 0.41154 0.50558 0.58423 0.0
H3454 H 0.36182 0.53007 0.57872 0.0
H3455 H 0.39027 0.52548 0.54037 0.0
C3456 C 0.38258 0.54707 0.53249 0.0
C3457 C 0.37673 0.56119 0.53656 0.0
C3458 C 0.37267 0.5246 0.57994 0.0
C3459 C 0.38279 0.53979 0.55869 0.0
C3460 C 0.37463 0.51356 0.59094 0.0
C3461 C 0.3887 0.50661 0.59278 0.0
C3462 C 0.38474 0.52832 0.57046 0.0
C3463 C 0.40054 0.51074 0.58313 0.0
C3464 C 0.3859 0.53642 0.54358 0.0
C3465 C 0.3744 0.56433 0.55186 0.0
N3466 N 0.39825 0.52125 0.57219 0.0
N3467 N 0.37717 0.55358 0.56241 0.0
H3468 H 0.25219 0.62714 0.33514 0.0
H3469 H 0.17032 0.64061 0.30071 0.0
H3470 H 0.22085 0.65919 0.35407 0.0
H3471 H 0.2059 0.61665 0.27768 0.0
H3472 H 0.18837 0.64779 0.32036 0.0
H3473 H 0.23514 0.62332 0.31397 0.0
C3474 C 0.24174 0.63344 0.3348 0.0
C3475 C 0.2379 0.64344 0.34643 0.0
C3476 C 0.19222 0.64107 0.31093 0.0
C3477 C 0.21821 0.63903 0.32222 0.0
C3478 C 0.18193 0.63695 0.29972 0.0
C3479 C 0.18657 0.62792 0.28758 0.0
C3480 C 0.2072 0.63602 0.31002 0.0
C3481 C 0.20176 0.62355 0.28686 0.0
C3482 C 0.23201 0.63128 0.32268 0.0
C3483 C 0.22425 0.65137 0.34533 0.0
N3484 N 0.21148 0.62754 0.29797 0.0
N3485 N 0.2148 0.64889 0.33351 0.0
H3486 H 0.24617 0.3729 0.83372 0.0
H3487 H 0.32831 0.35928 0.79989 0.0
H3488 H 0.27727 0.34025 0.85205 0.0
H3489 H 0.29388 0.38549 0.77756 0.0
H3490 H 0.3098 0.35178 0.81891 0.0
H3491 H 0.26344 0.37722 0.81279 0.0
C3492 C 0.2566 0.36655 0.83329 0.0
C3493 C 0.26033 0.35626 0.8447 0.0
C3494 C 0.30629 0.35909 0.80978 0.0
C3495 C 0.28025 0.36126 0.82081 0.0
C3496 C 0.31685 0.3634 0.79894 0.0
C3497 C 0.31266 0.37311 0.78717 0.0
C3498 C 0.29148 0.36462 0.80891 0.0
C3499 C 0.29764 0.37804 0.78647 0.0
C3500 C 0.26646 0.36901 0.82131 0.0
C3501 C 0.27395 0.3483 0.8435 0.0
N3502 N 0.28763 0.37382 0.79724 0.0
N3503 N 0.2835 0.35107 0.83184 0.0
H3504 H 0.89672 0.90968 0.52907 0.0
H3505 H 0.97446 0.8659 0.54262 0.0
H3506 H 0.9156 0.87713 0.49821 0.0
H3507 H 0.95102 0.88964 0.57807 0.0
H3508 H 0.95473 0.87325 0.525 0.0
H3509 H 0.91826 0.90566 0.54594 0.0
C3510 C 0.90546 0.90181 0.52578 0.0
C3511 C 0.90432 0.89366 0.51226 0.0
C3512 C 0.95392 0.87691 0.53662 0.0
C3513 C 0.92893 0.88905 0.53145 0.0
C3514 C 0.96521 0.87275 0.5467 0.0
C3515 C 0.96435 0.87705 0.5619 0.0
C3516 C 0.94164 0.88551 0.54171 0.0
C3517 C 0.9521 0.88599 0.56648 0.0
C3518 C 0.9177 0.89948 0.53543 0.0
C3519 C 0.91594 0.88358 0.50857 0.0
N3520 N 0.94118 0.88988 0.55643 0.0
N3521 N 0.92773 0.88155 0.51811 0.0
H3522 H 0.85684 0.19893 0.33003 0.0
H3523 H 0.87107 0.16576 0.24769 0.0
H3524 H 0.88038 0.22296 0.29485 0.0
H3525 H 0.83904 0.14611 0.27861 0.0
H3526 H 0.87465 0.18672 0.2651 0.0
H3527 H 0.85015 0.17935 0.31169 0.0
C3528 C 0.86051 0.20015 0.31845 0.0
C3529 C 0.86926 0.21257 0.314 0.0
C3530 C 0.86675 0.17789 0.26805 0.0
C3531 C 0.86174 0.1902 0.29303 0.0
C3532 C 0.86472 0.16589 0.25811 0.0
C3533 C 0.85478 0.15413 0.26171 0.0
C3534 C 0.85894 0.17809 0.28183 0.0
C3535 C 0.84681 0.15496 0.27537 0.0
C3536 C 0.85667 0.18898 0.30799 0.0
C3537 C 0.87367 0.21357 0.29883 0.0
N3538 N 0.84916 0.16666 0.28501 0.0
N3539 N 0.86996 0.2025 0.28895 0.0
H3540 H 0.54939 0.10823 0.0788 0.0
H3541 H 0.58317 0.12273 0.99696 0.0
H3542 H 0.52572 0.132 0.04353 0.0
H3543 H 0.60243 0.09036 0.02777 0.0
H3544 H 0.56198 0.12607 0.01408 0.0
H3545 H 0.5689 0.10126 0.06053 0.0
C3546 C 0.54823 0.11189 0.06721 0.0
C3547 C 0.53596 0.12082 0.06272 0.0
C3548 C 0.57076 0.11814 0.01707 0.0
C3549 C 0.55824 0.11297 0.04184 0.0
C3550 C 0.5829 0.11626 0.00731 0.0
C3551 C 0.59462 0.10632 0.01099 0.0
C3552 C 0.5704 0.11018 0.03075 0.0
C3553 C 0.59362 0.09814 0.02451 0.0
C3554 C 0.55935 0.10788 0.0568 0.0
C3555 C 0.53501 0.12518 0.04754 0.0
N3556 N 0.58178 0.10037 0.034 0.0
N3557 N 0.54605 0.12133 0.0377 0.0
H3558 H 0.64081 0.79891 0.82752 0.0
H3559 H 0.62733 0.8351 0.74657 0.0
H3560 H 0.61638 0.77676 0.79172 0.0
H3561 H 0.6595 0.85314 0.77831 0.0
H3562 H 0.62365 0.8134 0.76298 0.0
H3563 H 0.64835 0.81862 0.80975 0.0
C3564 C 0.63714 0.79812 0.81591 0.0
C3565 C 0.62784 0.78623 0.81114 0.0
C3566 C 0.63161 0.82202 0.76632 0.0
C3567 C 0.63634 0.80876 0.7908 0.0
C3568 C 0.63369 0.83445 0.75697 0.0
C3569 C 0.64366 0.846 0.76113 0.0
C3570 C 0.63941 0.82118 0.78007 0.0
C3571 C 0.65169 0.84449 0.77469 0.0
C3572 C 0.64147 0.80936 0.80577 0.0
C3573 C 0.62348 0.78575 0.79594 0.0
N3574 N 0.64927 0.83238 0.78377 0.0
N3575 N 0.62765 0.79692 0.78637 0.0
H3576 H 0.89411 0.08708 0.9681 0.0
H3577 H 0.9727 0.12969 0.95592 0.0
H3578 H 0.91254 0.1199 0.99894 0.0
H3579 H 0.94945 0.1063 0.92012 0.0
H3580 H 0.95267 0.12247 0.97328 0.0
H3581 H 0.91621 0.09046 0.95183 0.0
C3582 C 0.90286 0.09488 0.97152 0.0
C3583 C 0.90143 0.10331 0.98483 0.0
C3584 C 0.95198 0.11885 0.96165 0.0
C3585 C 0.92668 0.10718 0.96635 0.0
C3586 C 0.96345 0.12293 0.95172 0.0
C3587 C 0.96269 0.11872 0.93649 0.0
C3588 C 0.93966 0.11044 0.95636 0.0
C3589 C 0.95044 0.10989 0.93174 0.0
C3590 C 0.91543 0.09684 0.96221 0.0
C3591 C 0.9131 0.11327 0.98871 0.0
N3592 N 0.93935 0.1061 0.94163 0.0
N3593 N 0.9252 0.11494 0.97951 0.0
H3594 H 0.65511 0.15541 0.72115 0.0
H3595 H 0.60282 0.22629 0.70086 0.0
H3596 H 0.61729 0.16947 0.74837 0.0
H3597 H 0.63562 0.20705 0.67051 0.0
H3598 H 0.61029 0.20789 0.72006 0.0
H3599 H 0.6504 0.17658 0.7042 0.0
C3600 C 0.64588 0.16301 0.72365 0.0
C3601 C 0.63651 0.16056 0.73616 0.0
C3602 C 0.61592 0.20778 0.70923 0.0
C3603 C 0.63103 0.18487 0.71672 0.0
C3604 C 0.6117 0.21832 0.69828 0.0
C3605 C 0.61852 0.21815 0.684 0.0
C3606 C 0.62709 0.19704 0.7059 0.0
C3607 C 0.62996 0.20754 0.68131 0.0
C3608 C 0.64318 0.1751 0.71393 0.0
C3609 C 0.62475 0.17085 0.73881 0.0
N3610 N 0.63383 0.1974 0.69211 0.0
N3611 N 0.6223 0.1825 0.72914 0.0
H3612 H 0.54903 0.88943 0.4207 0.0
H3613 H 0.58384 0.87634 0.50247 0.0
H3614 H 0.5267 0.86438 0.45596 0.0
H3615 H 0.60224 0.90851 0.47094 0.0
H3616 H 0.56259 0.87226 0.48556 0.0
H3617 H 0.56841 0.89704 0.43882 0.0
C3618 C 0.54814 0.88562 0.43226 0.0
C3619 C 0.53627 0.87616 0.43678 0.0
C3620 C 0.5712 0.88031 0.48236 0.0
C3621 C 0.55843 0.88475 0.45753 0.0
C3622 C 0.58336 0.88262 0.49202 0.0
C3623 C 0.59488 0.89271 0.48807 0.0
C3624 C 0.57059 0.888 0.46854 0.0
C3625 C 0.59361 0.90062 0.47441 0.0
C3626 C 0.55919 0.88998 0.4426 0.0
C3627 C 0.53566 0.87161 0.45192 0.0
N3628 N 0.58175 0.89798 0.46505 0.0
N3629 N 0.54664 0.87585 0.4617 0.0
H3630 H 0.87332 0.83644 0.25235 0.0
H3631 H 0.85901 0.80078 0.17116 0.0
H3632 H 0.84058 0.85453 0.22121 0.0
H3633 H 0.88384 0.77846 0.20659 0.0
H3634 H 0.8519 0.82056 0.18908 0.0
H3635 H 0.87717 0.81508 0.23553 0.0
C3636 C 0.86688 0.83588 0.24199 0.0
C3637 C 0.85667 0.84732 0.23814 0.0
C3638 C 0.8588 0.81126 0.19293 0.0
C3639 C 0.86111 0.8229 0.21873 0.0
C3640 C 0.86288 0.79998 0.18272 0.0
C3641 C 0.87212 0.78799 0.18735 0.0
C3642 C 0.86411 0.81059 0.20784 0.0
C3643 C 0.87676 0.78751 0.20247 0.0
C3644 C 0.86906 0.82365 0.2324 0.0
C3645 C 0.84857 0.84594 0.22462 0.0
N3646 N 0.87281 0.79869 0.21212 0.0
N3647 N 0.85107 0.83401 0.21531 0.0
H3648 H 0.57541 0.9538 0.88567 0.0
H3649 H 0.49538 0.91585 0.86998 0.0
H3650 H 0.54021 0.97478 0.85941 0.0
H3651 H 0.52645 0.8988 0.90332 0.0
H3652 H 0.51178 0.93756 0.86615 0.0
H3653 H 0.55783 0.93364 0.89252 0.0
C3654 C 0.56397 0.95423 0.88143 0.0
C3655 C 0.55932 0.96597 0.87187 0.0
C3656 C 0.51499 0.92914 0.87439 0.0
C3657 C 0.53919 0.94288 0.87959 0.0
C3658 C 0.50563 0.91671 0.87656 0.0
C3659 C 0.50958 0.90544 0.88694 0.0
C3660 C 0.52853 0.9303 0.88251 0.0
C3661 C 0.52297 0.90722 0.8952 0.0
C3662 C 0.55394 0.94272 0.88536 0.0
C3663 C 0.54434 0.96595 0.86676 0.0
N3664 N 0.53204 0.91935 0.89271 0.0
N3665 N 0.53487 0.95454 0.87058 0.0
H3666 H 0.83518 0.74737 0.62669 0.0
H3667 H 0.79967 0.82879 0.63972 0.0
H3668 H 0.85374 0.77922 0.65845 0.0
H3669 H 0.77703 0.79281 0.61599 0.0
H3670 H 0.81946 0.811 0.6471 0.0
H3671 H 0.81366 0.764 0.62294 0.0
C3672 C 0.83469 0.75785 0.63295 0.0
C3673 C 0.84632 0.76196 0.64283 0.0
C3674 C 0.81008 0.807 0.64039 0.0
C3675 C 0.82171 0.78116 0.6385 0.0
C3676 C 0.79879 0.81714 0.63615 0.0
C3677 C 0.78672 0.81231 0.62712 0.0
C3678 C 0.80934 0.79197 0.63544 0.0
C3679 C 0.78614 0.79708 0.62289 0.0
C3680 C 0.82236 0.76733 0.63083 0.0
C3681 C 0.84501 0.77563 0.65072 0.0
N3682 N 0.79735 0.7875 0.62697 0.0
N3683 N 0.83299 0.78483 0.64826 0.0
H3684 H 0.9565 0.0242 0.3723 0.0
H3685 H 0.00187 0.08666 0.37817 0.0
H3686 H 0.92067 0.05397 0.38639 0.0
H3687 H 0.97014 0.10338 0.41106 0.0
H3688 H 0.98564 0.06513 0.37374 0.0
H3689 H 0.97487 0.04293 0.38019 0.0
C3690 C 0.95248 0.03473 0.37699 0.0
C3691 C 0.937 0.03764 0.37841 0.0
C3692 C 0.98235 0.07322 0.38224 0.0
C3693 C 0.95806 0.05944 0.38703 0.0
C3694 C 0.99157 0.08567 0.38466 0.0
C3695 C 0.98737 0.09684 0.39503 0.0
C3696 C 0.96875 0.07186 0.39023 0.0
C3697 C 0.97384 0.09497 0.40303 0.0
C3698 C 0.96301 0.04551 0.38137 0.0
C3699 C 0.9325 0.05135 0.38492 0.0
N3700 N 0.9649 0.08278 0.40034 0.0
N3701 N 0.943 0.06182 0.38889 0.0
H3702 H 0.64577 0.22084 0.15998 0.0
H3703 H 0.7216 0.20742 0.11297 0.0
H3704 H 0.66254 0.25156 0.12615 0.0
H3705 H 0.69959 0.17231 0.13851 0.0
H3706 H 0.7019 0.22499 0.12064 0.0
H3707 H 0.66728 0.20423 0.15511 0.0
C3708 C 0.65404 0.22416 0.15163 0.0
C3709 C 0.65231 0.23758 0.1434 0.0
C3710 C 0.70141 0.21346 0.12462 0.0
C3711 C 0.67691 0.21863 0.1378 0.0
C3712 C 0.71268 0.20341 0.12028 0.0
C3713 C 0.71221 0.18831 0.12502 0.0
C3714 C 0.68957 0.20845 0.13385 0.0
C3715 C 0.70036 0.18381 0.13452 0.0
C3716 C 0.66627 0.21464 0.14882 0.0
C3717 C 0.66336 0.24129 0.1327 0.0
N3718 N 0.68948 0.19383 0.13859 0.0
N3719 N 0.67516 0.23186 0.1302 0.0
H3720 H 0.54132 0.0196 0.62695 0.0
H3721 H 0.4937 0.08043 0.62126 0.0
H3722 H 0.57578 0.0508 0.61251 0.0
H3723 H 0.52465 0.09816 0.58815 0.0
H3724 H 0.5105 0.05924 0.62532 0.0
H3725 H 0.52212 0.03743 0.61887 0.0
C3726 C 0.54485 0.03025 0.62212 0.0
C3727 C 0.56018 0.03385 0.62069 0.0
C3728 C 0.51349 0.06748 0.61684 0.0
C3729 C 0.53821 0.05458 0.61186 0.0
C3730 C 0.50394 0.07972 0.61464 0.0
C3731 C 0.50778 0.09108 0.60435 0.0
C3732 C 0.52705 0.06656 0.60871 0.0
C3733 C 0.52124 0.0896 0.59614 0.0
C3734 C 0.53386 0.0405 0.61763 0.0
C3735 C 0.56408 0.04765 0.61399 0.0
N3736 N 0.53051 0.07763 0.59865 0.0
N3737 N 0.55314 0.0576 0.60993 0.0
H3738 H 0.66519 0.74614 0.37365 0.0
H3739 H 0.70083 0.82748 0.35951 0.0
H3740 H 0.64803 0.77708 0.34022 0.0
H3741 H 0.72263 0.79268 0.38564 0.0
H3742 H 0.68139 0.80932 0.35217 0.0
H3743 H 0.68636 0.76313 0.37809 0.0
C3744 C 0.66592 0.75647 0.36717 0.0
C3745 C 0.65478 0.76023 0.35659 0.0
C3746 C 0.6905 0.80565 0.35941 0.0
C3747 C 0.67896 0.77981 0.36172 0.0
C3748 C 0.70159 0.81601 0.36363 0.0
C3749 C 0.71334 0.81162 0.37327 0.0
C3750 C 0.6911 0.79083 0.36499 0.0
C3751 C 0.71377 0.79659 0.37822 0.0
C3752 C 0.67804 0.76616 0.36969 0.0
C3753 C 0.65636 0.77374 0.34849 0.0
N3754 N 0.70275 0.78679 0.37412 0.0
N3755 N 0.66816 0.78311 0.35131 0.0
H3756 H 0.00197 0.91537 0.12006 0.0
H3757 H 0.91975 0.95003 0.10865 0.0
H3758 H 0.96959 0.89634 0.08913 0.0
H3759 H 0.95574 0.97267 0.13236 0.0
H3760 H 0.9376 0.93034 0.10107 0.0
H3761 H 0.98503 0.93654 0.1244 0.0
C3762 C 0.99132 0.91569 0.1141 0.0
C3763 C 0.98717 0.90402 0.10426 0.0
C3764 C 0.94159 0.93969 0.10783 0.0
C3765 C 0.96759 0.92825 0.1093 0.0
C3766 C 0.93141 0.95092 0.11219 0.0
C3767 C 0.93622 0.96299 0.12124 0.0
C3768 C 0.95665 0.94048 0.11267 0.0
C3769 C 0.95147 0.96357 0.12543 0.0
C3770 C 0.98164 0.92781 0.11657 0.0
C3771 C 0.97324 0.9051 0.0968 0.0
N3772 N 0.96109 0.95243 0.12121 0.0
N3773 N 0.96387 0.91694 0.09958 0.0
H3774 H 0.83473 0.25102 0.87249 0.0
H3775 H 0.79739 0.17086 0.85687 0.0
H3776 H 0.8526 0.21971 0.8398 0.0
H3777 H 0.77564 0.20649 0.88194 0.0
H3778 H 0.81754 0.18845 0.85002 0.0
H3779 H 0.81284 0.23477 0.87573 0.0
C3780 C 0.83401 0.24075 0.86593 0.0
C3781 C 0.84556 0.23667 0.85593 0.0
C3782 C 0.80828 0.19243 0.8569 0.0
C3783 C 0.82052 0.2179 0.85967 0.0
C3784 C 0.79678 0.1824 0.86083 0.0
C3785 C 0.78486 0.18718 0.87009 0.0
C3786 C 0.8079 0.20728 0.86238 0.0
C3787 C 0.78463 0.20227 0.87485 0.0
C3788 C 0.82148 0.23148 0.86776 0.0
C3789 C 0.84396 0.22327 0.84764 0.0
N3790 N 0.79604 0.21173 0.87105 0.0
N3791 N 0.83173 0.21427 0.84981 0.0
H3792 H 0.86628 0.54335 0.97397 0.0
H3793 H 0.91034 0.52992 0.89641 0.0
H3794 H 0.88954 0.57898 0.95029 0.0
H3795 H 0.8779 0.49892 0.91527 0.0
H3796 H 0.90626 0.54676 0.91796 0.0
H3797 H 0.87401 0.52567 0.95444 0.0
C3798 C 0.8731 0.54746 0.96471 0.0
C3799 C 0.87715 0.56272 0.9637 0.0
C3800 C 0.90012 0.53622 0.91739 0.0
C3801 C 0.88603 0.54246 0.94124 0.0
C3802 C 0.90248 0.52659 0.90514 0.0
C3803 C 0.89436 0.51305 0.904 0.0
C3804 C 0.88969 0.53219 0.9286 0.0
C3805 C 0.88431 0.5093 0.91562 0.0
C3806 C 0.87748 0.53734 0.95353 0.0
C3807 C 0.88607 0.56733 0.95146 0.0
N3808 N 0.88225 0.51882 0.9274 0.0
N3809 N 0.89017 0.55725 0.94065 0.0
H3810 H 0.36596 0.95708 0.02388 0.0
H3811 H 0.40825 0.97 0.10252 0.0
H3812 H 0.38973 0.9217 0.04741 0.0
H3813 H 0.37665 0.00144 0.08299 0.0
H3814 H 0.40468 0.95338 0.08075 0.0
H3815 H 0.37302 0.97468 0.04375 0.0
C3816 C 0.37276 0.95302 0.03317 0.0
C3817 C 0.37715 0.93784 0.03403 0.0
C3818 C 0.39861 0.96396 0.08122 0.0
C3819 C 0.38524 0.958 0.05689 0.0
C3820 C 0.40067 0.97347 0.09361 0.0
C3821 C 0.39266 0.98709 0.09462 0.0
C3822 C 0.38855 0.96816 0.06973 0.0
C3823 C 0.38297 0.991 0.08274 0.0
C3824 C 0.37676 0.96309 0.04454 0.0
C3825 C 0.38602 0.93328 0.04633 0.0
N3826 N 0.38117 0.98158 0.07083 0.0
N3827 N 0.38972 0.9433 0.05732 0.0
H3828 H 0.74668 0.62642 0.83458 0.0
H3829 H 0.82847 0.64011 0.79997 0.0
H3830 H 0.77816 0.65828 0.85361 0.0
H3831 H 0.79291 0.61619 0.7769 0.0
H3832 H 0.81046 0.64716 0.81969 0.0
H3833 H 0.76366 0.62273 0.81331 0.0
C3834 C 0.75715 0.63271 0.83425 0.0
C3835 C 0.76105 0.64262 0.84593 0.0
C3836 C 0.8066 0.64048 0.81023 0.0
C3837 C 0.78064 0.63834 0.82161 0.0
C3838 C 0.81687 0.63643 0.79899 0.0
C3839 C 0.81223 0.62745 0.78681 0.0
C3840 C 0.79162 0.6354 0.80934 0.0
C3841 C 0.79704 0.62306 0.7861 0.0
C3842 C 0.76683 0.63062 0.82206 0.0
C3843 C 0.77472 0.65053 0.84483 0.0
N3844 N 0.78733 0.62697 0.79726 0.0
N3845 N 0.78411 0.64811 0.83295 0.0
H3846 H 0.13472 0.04663 0.52673 0.0
H3847 H 0.09101 0.03148 0.60419 0.0
H3848 H 0.11157 0.08179 0.55118 0.0
H3849 H 0.12245 0.00043 0.5838 0.0
H3850 H 0.09523 0.04901 0.5832 0.0
H3851 H 0.12704 0.02857 0.54588 0.0
C3852 C 0.12795 0.05057 0.5361 0.0
C3853 C 0.1239 0.06581 0.5374 0.0
C3854 C 0.10112 0.03832 0.58331 0.0
C3855 C 0.11506 0.04507 0.55947 0.0
C3856 C 0.09867 0.02828 0.59523 0.0
C3857 C 0.10647 0.01452 0.59578 0.0
C3858 C 0.11132 0.03446 0.57183 0.0
C3859 C 0.11628 0.01097 0.58391 0.0
C3860 C 0.12358 0.04022 0.54706 0.0
C3861 C 0.11503 0.07017 0.54977 0.0
N3862 N 0.11844 0.02088 0.57246 0.0
N3863 N 0.11095 0.05986 0.56038 0.0
H3864 H 0.22261 0.83801 0.8501 0.0
H3865 H 0.20974 0.88285 0.77284 0.0
H3866 H 0.25365 0.87086 0.83205 0.0
H3867 H 0.1743 0.85866 0.79584 0.0
H3868 H 0.2274 0.87499 0.7924 0.0
H3869 H 0.20619 0.84201 0.82823 0.0
C3870 C 0.22604 0.84594 0.84147 0.0
C3871 C 0.23945 0.85421 0.84295 0.0
C3872 C 0.21577 0.87133 0.79313 0.0
C3873 C 0.2208 0.8588 0.81797 0.0
C3874 C 0.20568 0.87578 0.78194 0.0
C3875 C 0.19047 0.87152 0.78278 0.0
C3876 C 0.21066 0.86251 0.80523 0.0
C3877 C 0.1859 0.8623 0.79481 0.0
C3878 C 0.21666 0.84825 0.82904 0.0
C3879 C 0.24335 0.86435 0.83145 0.0
N3880 N 0.19594 0.85816 0.80562 0.0
N3881 N 0.23405 0.86638 0.81948 0.0
H3882 H 0.58989 0.47139 0.4018 0.0
H3883 H 0.63437 0.45941 0.4794 0.0
H3884 H 0.62442 0.50135 0.41848 0.0
H3885 H 0.60826 0.42426 0.45813 0.0
H3886 H 0.62735 0.47654 0.4591 0.0
H3887 H 0.59324 0.45558 0.42423 0.0
C3888 C 0.59808 0.47471 0.41023 0.0
C3889 C 0.60697 0.48765 0.40821 0.0
C3890 C 0.62308 0.46511 0.45891 0.0
C3891 C 0.6108 0.46968 0.43386 0.0
C3892 C 0.62704 0.45531 0.47053 0.0
C3893 C 0.62201 0.44031 0.47041 0.0
C3894 C 0.61398 0.45992 0.44705 0.0
C3895 C 0.61248 0.4357 0.45863 0.0
C3896 C 0.60001 0.46566 0.42299 0.0
C3897 C 0.61741 0.49141 0.41949 0.0
N3898 N 0.60883 0.44545 0.44737 0.0
N3899 N 0.61904 0.48247 0.43179 0.0
H3900 H 0.74584 0.36612 0.67067 0.0
H3901 H 0.82943 0.35762 0.70229 0.0
H3902 H 0.77878 0.33669 0.65027 0.0
H3903 H 0.79368 0.38099 0.72565 0.0
H3904 H 0.81102 0.34871 0.68374 0.0
H3905 H 0.76302 0.37046 0.69162 0.0
C3906 C 0.75666 0.36045 0.67068 0.0
C3907 C 0.76095 0.35113 0.65866 0.0
C3908 C 0.80721 0.35568 0.69301 0.0
C3909 C 0.7808 0.3562 0.68257 0.0
C3910 C 0.81771 0.3608 0.70358 0.0
C3911 C 0.81311 0.3702 0.71546 0.0
C3912 C 0.79204 0.36008 0.6943 0.0
C3913 C 0.79777 0.37388 0.71663 0.0
C3914 C 0.76647 0.36292 0.68266 0.0
C3915 C 0.77505 0.34397 0.65932 0.0
N3916 N 0.78783 0.36891 0.70612 0.0
N3917 N 0.78458 0.34681 0.671 0.0
H3918 H 0.75199 0.62523 0.16562 0.0
H3919 H 0.67037 0.63754 0.20118 0.0
H3920 H 0.72026 0.65757 0.14786 0.0
H3921 H 0.70603 0.6127 0.2231 0.0
H3922 H 0.68824 0.64524 0.18159 0.0
H3923 H 0.73514 0.62071 0.18683 0.0
C3924 C 0.7415 0.63146 0.16623 0.0
C3925 C 0.73749 0.64174 0.15491 0.0
C3926 C 0.69216 0.63821 0.19076 0.0
C3927 C 0.71803 0.63651 0.17916 0.0
C3928 C 0.68196 0.63378 0.20193 0.0
C3929 C 0.68668 0.62438 0.21376 0.0
C3930 C 0.70713 0.63308 0.19136 0.0
C3931 C 0.70185 0.6199 0.21418 0.0
C3932 C 0.73188 0.62888 0.17837 0.0
C3933 C 0.72379 0.64954 0.15634 0.0
N3934 N 0.71148 0.6242 0.2031 0.0
N3935 N 0.71447 0.64665 0.16818 0.0
H3936 H 0.54876 0.60979 0.92204 0.0
H3937 H 0.58446 0.62364 0.00335 0.0
H3938 H 0.52726 0.63599 0.95697 0.0
H3939 H 0.60224 0.59093 0.97201 0.0
H3940 H 0.56319 0.62787 0.9865 0.0
H3941 H 0.56823 0.60229 0.94009 0.0
C3942 C 0.54807 0.61389 0.93352 0.0
C3943 C 0.5364 0.62362 0.93797 0.0
C3944 C 0.57167 0.61968 0.98333 0.0
C3945 C 0.55867 0.61514 0.95864 0.0
C3946 C 0.58385 0.61727 0.99295 0.0
C3947 C 0.5952 0.60698 0.98904 0.0
C3948 C 0.57087 0.61186 0.96959 0.0
C3949 C 0.59374 0.59898 0.97546 0.0
C3950 C 0.55918 0.60958 0.94382 0.0
C3951 C 0.53606 0.62853 0.953 0.0
N3952 N 0.58187 0.6017 0.96614 0.0
N3953 N 0.54708 0.62433 0.96274 0.0
H3954 H 0.61432 0.2747 0.20894 0.0
H3955 H 0.65787 0.35245 0.22295 0.0
H3956 H 0.63856 0.29823 0.17387 0.0
H3957 H 0.62403 0.33437 0.25289 0.0
H3958 H 0.65433 0.33066 0.20633 0.0
H3959 H 0.62137 0.29447 0.22669 0.0
C3960 C 0.62124 0.28396 0.20498 0.0
C3961 C 0.62575 0.28487 0.18985 0.0
C3962 C 0.64776 0.33145 0.21659 0.0
C3963 C 0.63383 0.30758 0.21016 0.0
C3964 C 0.6498 0.34384 0.2261 0.0
C3965 C 0.64115 0.34528 0.23927 0.0
C3966 C 0.6371 0.32037 0.22038 0.0
C3967 C 0.63085 0.3338 0.24279 0.0
C3968 C 0.62522 0.29527 0.21513 0.0
C3969 C 0.63474 0.29712 0.18541 0.0
N3970 N 0.6291 0.32185 0.23339 0.0
N3971 N 0.63845 0.30805 0.19552 0.0
H3972 H 0.94643 0.3905 0.4215 0.0
H3973 H 0.91218 0.37501 0.50304 0.0
H3974 H 0.96994 0.36641 0.45667 0.0
H3975 H 0.89279 0.40736 0.4723 0.0
H3976 H 0.93346 0.3719 0.48597 0.0
H3977 H 0.92672 0.39712 0.43968 0.0
C3978 C 0.94752 0.38671 0.43305 0.0
C3979 C 0.9598 0.37779 0.43753 0.0
C3980 C 0.92462 0.37977 0.48298 0.0
C3981 C 0.93728 0.38523 0.45832 0.0
C3982 C 0.91243 0.38152 0.49271 0.0
C3983 C 0.90065 0.3914 0.48905 0.0
C3984 C 0.92499 0.38781 0.46935 0.0
C3985 C 0.90164 0.39962 0.47555 0.0
C3986 C 0.93627 0.39051 0.44342 0.0
C3987 C 0.96065 0.37324 0.45266 0.0
N3988 N 0.91354 0.39753 0.4661 0.0
N3989 N 0.94948 0.3769 0.46245 0.0
H3990 H 0.87293 0.66531 0.75241 0.0
H3991 H 0.85966 0.70065 0.67092 0.0
H3992 H 0.84075 0.64701 0.72084 0.0
H3993 H 0.88426 0.72304 0.70646 0.0
H3994 H 0.85221 0.68105 0.68888 0.0
H3995 H 0.87688 0.6867 0.73564 0.0
C3996 C 0.86662 0.66584 0.74198 0.0
C3997 C 0.85656 0.65431 0.73798 0.0
C3998 C 0.85913 0.69033 0.69275 0.0
C3999 C 0.86112 0.67877 0.71862 0.0
C4000 C 0.86341 0.70151 0.68251 0.0
C4001 C 0.87269 0.71346 0.68716 0.0
C4002 C 0.86428 0.69104 0.70771 0.0
C4003 C 0.87715 0.71402 0.70233 0.0
C4004 C 0.86885 0.67809 0.73241 0.0
C4005 C 0.84862 0.65565 0.72436 0.0
N4006 N 0.87301 0.70291 0.71201 0.0
N4007 N 0.85118 0.66759 0.71507 0.0
H4008 H 0.52735 0.38055 0.55838 0.0
H4009 H 0.61102 0.40892 0.5419 0.0
H4010 H 0.56005 0.38373 0.59429 0.0
H4011 H 0.58292 0.38562 0.50976 0.0
H4012 H 0.59135 0.40534 0.56118 0.0
H4013 H 0.54638 0.38872 0.54054 0.0
C4014 C 0.53853 0.38309 0.56258 0.0
C4015 C 0.54216 0.38118 0.57787 0.0
C4016 C 0.58952 0.40113 0.54987 0.0
C4017 C 0.56412 0.39059 0.55728 0.0
C4018 C 0.60065 0.40323 0.53886 0.0
C4019 C 0.59858 0.39753 0.52422 0.0
C4020 C 0.57614 0.39359 0.54606 0.0
C4021 C 0.58503 0.39013 0.52091 0.0
C4022 C 0.54941 0.38773 0.55232 0.0
C4023 C 0.5568 0.38496 0.5826 0.0
N4024 N 0.57433 0.38843 0.53171 0.0
N4025 N 0.56735 0.38937 0.57228 0.0
H4026 H 0.84143 0.35319 0.78004 0.0
H4027 H 0.88427 0.27489 0.7929 0.0
H4028 H 0.87446 0.33468 0.74945 0.0
H4029 H 0.86067 0.29824 0.82851 0.0
H4030 H 0.87724 0.29489 0.77547 0.0
H4031 H 0.84503 0.33134 0.7966 0.0
C4032 C 0.84934 0.34449 0.77675 0.0
C4033 C 0.85774 0.3458 0.7634 0.0
C4034 C 0.87353 0.29562 0.78708 0.0
C4035 C 0.86184 0.32085 0.78221 0.0
C4036 C 0.87751 0.28417 0.79705 0.0
C4037 C 0.87317 0.28495 0.81224 0.0
C4038 C 0.8651 0.30795 0.79228 0.0
C4039 C 0.86435 0.29724 0.81692 0.0
C4040 C 0.85141 0.33207 0.78622 0.0
C4041 C 0.86784 0.3342 0.75969 0.0
N4042 N 0.86065 0.30832 0.80698 0.0
N4043 N 0.86961 0.32224 0.76905 0.0
H4044 H 0.91422 0.62427 0.99715 0.0
H4045 H 0.95114 0.60947 0.07762 0.0
H4046 H 0.89704 0.59111 0.02836 0.0
H4047 H 0.97213 0.63618 0.04275 0.0
H4048 H 0.93163 0.60193 0.05967 0.0
H4049 H 0.93589 0.62815 0.01356 0.0
C4050 C 0.91505 0.61773 0.00743 0.0
C4051 C 0.90374 0.60743 0.01145 0.0
C4052 C 0.94058 0.60933 0.05592 0.0
C4053 C 0.92853 0.6119 0.03039 0.0
C4054 C 0.95172 0.61366 0.06617 0.0
C4055 C 0.96323 0.62358 0.06172 0.0
C4056 C 0.94089 0.61505 0.04117 0.0
C4057 C 0.96344 0.62858 0.04671 0.0
C4058 C 0.92746 0.61993 0.01679 0.0
C4059 C 0.90548 0.59919 0.02485 0.0
N4060 N 0.95237 0.62437 0.03703 0.0
N4061 N 0.91758 0.60172 0.03393 0.0
H4062 H 0.65991 0.64431 0.27872 0.0
H4063 H 0.61648 0.72241 0.29136 0.0
H4064 H 0.62618 0.66197 0.24842 0.0
H4065 H 0.64115 0.69966 0.32662 0.0
H4066 H 0.62349 0.70234 0.27391 0.0
H4067 H 0.65655 0.6665 0.29485 0.0
C4068 C 0.65191 0.65291 0.27539 0.0
C4069 C 0.64322 0.65124 0.26227 0.0
C4070 C 0.62744 0.70178 0.28544 0.0
C4071 C 0.63937 0.6766 0.2806 0.0
C4072 C 0.62349 0.71327 0.29541 0.0
C4073 C 0.62812 0.71265 0.31052 0.0
C4074 C 0.63616 0.6896 0.29057 0.0
C4075 C 0.63723 0.70053 0.3151 0.0
C4076 C 0.64996 0.66553 0.28462 0.0
C4077 C 0.63301 0.66272 0.2585 0.0
N4078 N 0.6409 0.68944 0.30518 0.0
N4079 N 0.63135 0.67488 0.26763 0.0
H4080 H 0.95673 0.52516 0.63249 0.0
H4081 H 0.97003 0.60289 0.58865 0.0
H4082 H 0.92108 0.54897 0.60942 0.0
H4083 H 0.0013 0.58367 0.6206 0.0
H4084 H 0.95323 0.58128 0.59262 0.0
H4085 H 0.97446 0.54457 0.62457 0.0
C4086 C 0.95263 0.53442 0.62566 0.0
C4087 C 0.93734 0.53551 0.62174 0.0
C4088 C 0.96382 0.58178 0.59867 0.0
C4089 C 0.95765 0.55783 0.61264 0.0
C4090 C 0.97343 0.59406 0.59637 0.0
C4091 C 0.98702 0.59513 0.6044 0.0
C4092 C 0.96793 0.57046 0.60895 0.0
C4093 C 0.99087 0.58339 0.61427 0.0
C4094 C 0.96277 0.54553 0.62117 0.0
C4095 C 0.93274 0.54774 0.61279 0.0
N4096 N 0.98136 0.57158 0.61629 0.0
N4097 N 0.94285 0.55849 0.6086 0.0
H4098 H 0.64575 0.72089 0.8393 0.0
H4099 H 0.7227 0.70636 0.88403 0.0
H4100 H 0.66412 0.75121 0.87265 0.0
H4101 H 0.69928 0.67136 0.85961 0.0
H4102 H 0.70323 0.72424 0.87659 0.0
H4103 H 0.66718 0.70392 0.8434 0.0
C4104 C 0.65435 0.72404 0.84738 0.0
C4105 C 0.65311 0.73744 0.85573 0.0
C4106 C 0.70237 0.71266 0.8728 0.0
C4107 C 0.67759 0.71814 0.86041 0.0
C4108 C 0.71351 0.70244 0.87701 0.0
C4109 C 0.71256 0.68729 0.87254 0.0
C4110 C 0.69018 0.70777 0.864 0.0
C4111 C 0.70041 0.68291 0.86339 0.0
C4112 C 0.66653 0.71434 0.84974 0.0
C4113 C 0.66456 0.74095 0.86605 0.0
N4114 N 0.68964 0.6931 0.85946 0.0
N4115 N 0.67629 0.73135 0.86811 0.0
H4116 H 0.57795 0.44724 0.10976 0.0
H4117 H 0.4957 0.41325 0.12258 0.0
H4118 H 0.54219 0.47066 0.13306 0.0
H4119 H 0.52776 0.39342 0.0918 0.0
H4120 H 0.51276 0.43445 0.12631 0.0
H4121 H 0.55996 0.42749 0.10273 0.0
C4122 C 0.56631 0.44829 0.1133 0.0
C4123 C 0.5616 0.46058 0.1221 0.0
C4124 C 0.51605 0.42553 0.11865 0.0
C4125 C 0.54102 0.43801 0.11418 0.0
C4126 C 0.50631 0.41339 0.11654 0.0
C4127 C 0.51034 0.40151 0.10692 0.0
C4128 C 0.53003 0.42575 0.11123 0.0
C4129 C 0.5242 0.40235 0.09932 0.0
C4130 C 0.55605 0.43702 0.10927 0.0
C4131 C 0.54637 0.46137 0.12633 0.0
N4132 N 0.53363 0.41421 0.10175 0.0
N4133 N 0.53668 0.4502 0.12244 0.0
H4134 H 0.79392 0.3266 0.36312 0.0
H4135 H 0.83135 0.24589 0.37611 0.0
H4136 H 0.77267 0.29073 0.38824 0.0
H4137 H 0.84838 0.27784 0.3436 0.0
H4138 H 0.80972 0.26226 0.38052 0.0
H4139 H 0.8139 0.30909 0.35563 0.0
C4140 C 0.79339 0.31503 0.36699 0.0
C4141 C 0.78163 0.31016 0.3764 0.0
C4142 C 0.81811 0.26567 0.37233 0.0
C4143 C 0.80451 0.2901 0.36795 0.0
C4144 C 0.8305 0.25632 0.36982 0.0
C4145 C 0.84174 0.26053 0.35951 0.0
C4146 C 0.81699 0.27945 0.36462 0.0
C4147 C 0.83998 0.27415 0.35164 0.0
C4148 C 0.8048 0.30504 0.36269 0.0
C4149 C 0.78152 0.29502 0.38102 0.0
N4150 N 0.82791 0.2832 0.35446 0.0
N4151 N 0.79284 0.28558 0.37684 0.0
H4152 H 0.92154 0.45077 0.89088 0.0
H4153 H 0.00224 0.41387 0.87695 0.0
H4154 H 0.95742 0.47259 0.86624 0.0
H4155 H 0.9706 0.39617 0.90942 0.0
H4156 H 0.98582 0.43554 0.87312 0.0
H4157 H 0.93914 0.43076 0.89812 0.0
C4158 C 0.93313 0.45142 0.88709 0.0
C4159 C 0.93798 0.46333 0.87785 0.0
C4160 C 0.98249 0.42699 0.88117 0.0
C4161 C 0.95811 0.44045 0.88601 0.0
C4162 C 0.99186 0.41458 0.88334 0.0
C4163 C 0.98775 0.40315 0.89346 0.0
C4164 C 0.96879 0.42794 0.88903 0.0
C4165 C 0.9742 0.40473 0.9015 0.0
C4166 C 0.94317 0.44001 0.89124 0.0
C4167 C 0.95314 0.46361 0.87331 0.0
N4168 N 0.96512 0.41684 0.899 0.0
N4169 N 0.96261 0.45229 0.87733 0.0
H4170 H 0.79938 0.67098 0.14139 0.0
H4171 H 0.83343 0.75298 0.12801 0.0
H4172 H 0.77577 0.70667 0.11818 0.0
H4173 H 0.85281 0.7215 0.15965 0.0
H4174 H 0.81212 0.73601 0.12454 0.0
H4175 H 0.81898 0.68909 0.14856 0.0
C4176 C 0.79825 0.68263 0.1379 0.0
C4177 C 0.78596 0.68728 0.12907 0.0
C4178 C 0.82095 0.73284 0.13235 0.0
C4179 C 0.80836 0.70799 0.13715 0.0
C4180 C 0.83315 0.74253 0.13431 0.0
C4181 C 0.84495 0.73862 0.14407 0.0
C4182 C 0.82059 0.71901 0.14005 0.0
C4183 C 0.84394 0.72495 0.15201 0.0
C4184 C 0.80943 0.69295 0.14202 0.0
C4185 C 0.78506 0.70253 0.12492 0.0
N4186 N 0.83204 0.71555 0.14971 0.0
N4187 N 0.79616 0.71228 0.12888 0.0
H4188 H 0.49816 0.58402 0.38026 0.0
H4189 H 0.58055 0.55034 0.39235 0.0
H4190 H 0.53087 0.60515 0.40943 0.0
H4191 H 0.54401 0.5262 0.37108 0.0
H4192 H 0.5628 0.57039 0.39925 0.0
H4193 H 0.51501 0.56261 0.37722 0.0
C4194 C 0.50889 0.58412 0.3861 0.0
C4195 C 0.51316 0.59643 0.39504 0.0
C4196 C 0.55868 0.56063 0.39319 0.0
C4197 C 0.53264 0.57191 0.39151 0.0
C4198 C 0.5688 0.54919 0.38923 0.0
C4199 C 0.56379 0.53663 0.38101 0.0
C4200 C 0.54351 0.55951 0.38879 0.0
C4201 C 0.54843 0.53571 0.37733 0.0
C4202 C 0.51851 0.57185 0.38439 0.0
C4203 C 0.52715 0.59588 0.40243 0.0
N4204 N 0.53889 0.54704 0.38114 0.0
N4205 N 0.53649 0.58387 0.40037 0.0
H4206 H 0.63768 0.27982 0.65222 0.0
H4207 H 0.7202 0.28995 0.61708 0.0
H4208 H 0.65864 0.24798 0.62195 0.0
H4209 H 0.69647 0.32595 0.63968 0.0
H4210 H 0.69879 0.27335 0.62158 0.0
H4211 H 0.66008 0.2959 0.65027 0.0
C4212 C 0.64699 0.27619 0.64521 0.0
C4213 C 0.64625 0.26256 0.63718 0.0
C4214 C 0.69827 0.28486 0.62562 0.0
C4215 C 0.67189 0.28083 0.63499 0.0
C4216 C 0.71053 0.29435 0.6231 0.0
C4217 C 0.71011 0.30942 0.62792 0.0
C4218 C 0.68545 0.29042 0.63306 0.0
C4219 C 0.69726 0.31444 0.6357 0.0
C4220 C 0.65975 0.28537 0.64409 0.0
C4221 C 0.65865 0.25842 0.62827 0.0
N4222 N 0.68541 0.30497 0.63798 0.0
N4223 N 0.67094 0.26751 0.62743 0.0
H4224 H 0.60901 0.92114 0.54974 0.0
H4225 H 0.62422 0.00213 0.5857 0.0
H4226 H 0.63405 0.95637 0.52734 0.0
H4227 H 0.59136 0.97107 0.60371 0.0
H4228 H 0.62807 0.98526 0.56434 0.0
H4229 H 0.60237 0.93901 0.5697 0.0
C4230 C 0.61302 0.93265 0.54896 0.0
C4231 C 0.62217 0.93724 0.53689 0.0
C4232 C 0.61994 0.98216 0.57291 0.0
C4233 C 0.61472 0.95768 0.55972 0.0
C4234 C 0.61777 0.99178 0.58514 0.0
C4235 C 0.6075 0.98798 0.59655 0.0
C4236 C 0.61191 0.96853 0.57212 0.0
C4237 C 0.59939 0.97444 0.59517 0.0
C4238 C 0.60922 0.94284 0.56035 0.0
C4239 C 0.62701 0.9523 0.53644 0.0
N4240 N 0.60186 0.96514 0.58324 0.0
N4241 N 0.62333 0.96193 0.54775 0.0
H4242 H 0.1099 0.57816 0.45027 0.0
H4243 H 0.12108 0.4963 0.41489 0.0
H4244 H 0.13417 0.54215 0.47227 0.0
H4245 H 0.09 0.52887 0.39643 0.0
H4246 H 0.1255 0.51297 0.43624 0.0
H4247 H 0.10198 0.5604 0.43067 0.0
C4248 C 0.11349 0.56651 0.45104 0.0
C4249 C 0.12281 0.56167 0.46288 0.0
C4250 C 0.11762 0.51645 0.4276 0.0
C4251 C 0.11384 0.54133 0.44048 0.0
C4252 C 0.1151 0.50694 0.41538 0.0
C4253 C 0.10522 0.51124 0.40381 0.0
C4254 C 0.11034 0.5305 0.42823 0.0
C4255 C 0.09771 0.52511 0.4051 0.0
C4256 C 0.10894 0.55638 0.43986 0.0
C4257 C 0.12705 0.54643 0.46333 0.0
N4258 N 0.10055 0.53434 0.41703 0.0
N4259 N 0.12263 0.53686 0.45224 0.0
H4260 H 0.67167 0.85936 0.70041 0.0
H4261 H 0.75263 0.87315 0.66421 0.0
H4262 H 0.70727 0.8842 0.72244 0.0
H4263 H 0.72117 0.84054 0.64646 0.0
H4264 H 0.7361 0.877 0.68579 0.0
H4265 H 0.68951 0.85192 0.68071 0.0
C4266 C 0.68325 0.86316 0.70117 0.0
C4267 C 0.68796 0.87252 0.71303 0.0
C4268 C 0.73284 0.8689 0.67726 0.0
C4269 C 0.70836 0.86412 0.69051 0.0
C4270 C 0.74227 0.86673 0.6649 0.0
C4271 C 0.73823 0.85658 0.65347 0.0
C4272 C 0.71915 0.86102 0.67814 0.0
C4273 C 0.72471 0.84848 0.65502 0.0
C4274 C 0.69343 0.85888 0.68993 0.0
C4275 C 0.70311 0.87704 0.71347 0.0
N4276 N 0.71556 0.85099 0.66706 0.0
N4277 N 0.71272 0.87291 0.70231 0.0
H4278 H 0.41088 0.47054 0.89827 0.0
H4279 H 0.36357 0.4549 0.97345 0.0
H4280 H 0.37573 0.49982 0.9149 0.0
H4281 H 0.39019 0.42076 0.95117 0.0
H4282 H 0.37116 0.473 0.9542 0.0
H4283 H 0.40654 0.45369 0.91971 0.0
C4284 C 0.40235 0.4735 0.90649 0.0
C4285 C 0.39358 0.48655 0.90474 0.0
C4286 C 0.3754 0.46157 0.95356 0.0
C4287 C 0.3886 0.46737 0.92925 0.0
C4288 C 0.37111 0.45122 0.96457 0.0
C4289 C 0.37615 0.43624 0.96385 0.0
C4290 C 0.38487 0.45695 0.94175 0.0
C4291 C 0.38594 0.43216 0.95211 0.0
C4292 C 0.39985 0.46385 0.91868 0.0
C4293 C 0.38268 0.48982 0.91573 0.0
N4294 N 0.38994 0.44246 0.94147 0.0
N4295 N 0.38048 0.48028 0.92749 0.0
H4296 H 0.33463 0.63405 0.69489 0.0
H4297 H 0.25014 0.62463 0.6653 0.0
H4298 H 0.29954 0.61064 0.7192 0.0
H4299 H 0.28177 0.65527 0.6446 0.0
H4300 H 0.26838 0.61961 0.68518 0.0
H4301 H 0.31581 0.64215 0.6763 0.0
C4302 C 0.32299 0.63067 0.69637 0.0
C4303 C 0.31869 0.62157 0.70859 0.0
C4304 C 0.27133 0.62752 0.67637 0.0
C4305 C 0.29717 0.63075 0.68738 0.0
C4306 C 0.26091 0.63039 0.66499 0.0
C4307 C 0.26445 0.64034 0.65323 0.0
C4308 C 0.28554 0.63451 0.67595 0.0
C4309 C 0.27857 0.64753 0.65347 0.0
C4310 C 0.31226 0.63533 0.68577 0.0
C4311 C 0.30343 0.61758 0.70995 0.0
N4312 N 0.28867 0.64436 0.66458 0.0
N4313 N 0.29328 0.62211 0.69945 0.0
H4314 H 0.86306 0.04089 0.02444 0.0
H4315 H 0.90823 0.02904 0.10167 0.0
H4316 H 0.88731 0.07679 0.04665 0.0
H4317 H 0.87545 0.99771 0.08398 0.0
H4318 H 0.90389 0.0454 0.07979 0.0
H4319 H 0.87081 0.02366 0.04438 0.0
C4320 C 0.8701 0.04515 0.03347 0.0
C4321 C 0.87443 0.06036 0.03393 0.0
C4322 C 0.89773 0.0349 0.08069 0.0
C4323 C 0.88335 0.04062 0.05686 0.0
C4324 C 0.90024 0.02553 0.09313 0.0
C4325 C 0.89211 0.01204 0.0947 0.0
C4326 C 0.88714 0.03064 0.06972 0.0
C4327 C 0.88188 0.00807 0.08331 0.0
C4328 C 0.8745 0.03529 0.04487 0.0
C4329 C 0.88362 0.06518 0.04589 0.0
N4330 N 0.87968 0.01733 0.07134 0.0
N4331 N 0.88773 0.05535 0.05693 0.0
H4332 H 0.71809 0.16146 0.85188 0.0
H4333 H 0.70214 0.12199 0.7724 0.0
H4334 H 0.74735 0.1283 0.83155 0.0
H4335 H 0.6675 0.14477 0.79792 0.0
H4336 H 0.72024 0.12787 0.79219 0.0
H4337 H 0.70083 0.1589 0.83045 0.0
C4338 C 0.72096 0.15374 0.84286 0.0
C4339 C 0.73415 0.14501 0.84354 0.0
C4340 C 0.7087 0.13165 0.79344 0.0
C4341 C 0.71451 0.1421 0.81903 0.0
C4342 C 0.69834 0.12835 0.78211 0.0
C4343 C 0.68322 0.13279 0.78354 0.0
C4344 C 0.70398 0.13953 0.80631 0.0
C4345 C 0.67902 0.14105 0.79639 0.0
C4346 C 0.71107 0.15226 0.83068 0.0
C4347 C 0.73727 0.13518 0.83156 0.0
N4348 N 0.68934 0.14411 0.80732 0.0
N4349 N 0.72752 0.13399 0.81981 0.0
H4350 H 0.82853 0.86016 0.29967 0.0
H4351 H 0.74667 0.87179 0.3347 0.0
H4352 H 0.79247 0.88381 0.2771 0.0
H4353 H 0.77909 0.84081 0.35359 0.0
H4354 H 0.76331 0.87577 0.31324 0.0
H4355 H 0.81071 0.85236 0.31926 0.0
C4356 C 0.81686 0.86362 0.29876 0.0
C4357 C 0.81202 0.87276 0.28678 0.0
C4358 C 0.76677 0.868 0.322 0.0
C4359 C 0.79162 0.86394 0.30917 0.0
C4360 C 0.75727 0.86574 0.33429 0.0
C4361 C 0.76154 0.85603 0.34601 0.0
C4362 C 0.78077 0.86064 0.32146 0.0
C4363 C 0.77537 0.84841 0.3448 0.0
C4364 C 0.80669 0.85914 0.30994 0.0
C4365 C 0.79674 0.87684 0.28616 0.0
N4366 N 0.78458 0.851 0.33281 0.0
N4367 N 0.78714 0.87251 0.29725 0.0
H4368 H 0.44972 0.38887 0.07791 0.0
H4369 H 0.41415 0.37496 0.99656 0.0
H4370 H 0.47142 0.36288 0.04294 0.0
H4371 H 0.39533 0.4064 0.02858 0.0
H4372 H 0.43562 0.37116 0.01323 0.0
H4373 H 0.43018 0.39623 0.05991 0.0
C4374 C 0.45045 0.3848 0.06642 0.0
C4375 C 0.46218 0.37514 0.06196 0.0
C4376 C 0.42687 0.37898 0.0166 0.0
C4377 C 0.43979 0.38346 0.04134 0.0
C4378 C 0.41457 0.38114 0.00709 0.0
C4379 C 0.40286 0.39094 0.01123 0.0
C4380 C 0.42746 0.38656 0.03048 0.0
C4381 C 0.40409 0.39872 0.02495 0.0
C4382 C 0.43929 0.38903 0.05615 0.0
C4383 C 0.46257 0.37028 0.04691 0.0
N4384 N 0.41611 0.39626 0.03417 0.0
N4385 N 0.45148 0.37439 0.03719 0.0
H4386 H 0.34584 0.64137 0.77296 0.0
H4387 H 0.38799 0.72002 0.78651 0.0
H4388 H 0.3803 0.65912 0.74352 0.0
H4389 H 0.36265 0.69726 0.82128 0.0
H4390 H 0.38226 0.69943 0.76922 0.0
H4391 H 0.34899 0.66336 0.78938 0.0
C4392 C 0.35399 0.64994 0.76988 0.0
C4393 C 0.36287 0.64836 0.75686 0.0
C4394 C 0.3779 0.69896 0.78061 0.0
C4395 C 0.36648 0.67354 0.77559 0.0
C4396 C 0.38112 0.71075 0.7905 0.0
C4397 C 0.37586 0.71035 0.80543 0.0
C4398 C 0.36928 0.68666 0.78561 0.0
C4399 C 0.36699 0.69801 0.80991 0.0
C4400 C 0.35581 0.66245 0.77929 0.0
C4401 C 0.37326 0.6598 0.75347 0.0
N4402 N 0.364 0.68664 0.80004 0.0
N4403 N 0.37478 0.67189 0.76277 0.0
H4404 H 0.10378 0.58901 0.52841 0.0
H4405 H 0.0263 0.63331 0.54149 0.0
H4406 H 0.08567 0.62219 0.49776 0.0
H4407 H 0.04915 0.60892 0.57689 0.0
H4408 H 0.04608 0.62588 0.52396 0.0
H4409 H 0.08196 0.59286 0.54494 0.0
C4410 C 0.09515 0.59698 0.52509 0.0
C4411 C 0.09659 0.60537 0.51174 0.0
C4412 C 0.04674 0.62209 0.53555 0.0
C4413 C 0.07167 0.60979 0.53053 0.0
C4414 C 0.03543 0.6263 0.54558 0.0
C4415 C 0.03613 0.62185 0.56074 0.0
C4416 C 0.05887 0.61331 0.54066 0.0
C4417 C 0.04821 0.6127 0.56533 0.0
C4418 C 0.08275 0.59922 0.53454 0.0
C4419 C 0.0851 0.61557 0.50799 0.0
N4420 N 0.05916 0.60878 0.55533 0.0
N4421 N 0.07315 0.61751 0.51735 0.0
H4422 H 0.13822 0.30056 0.32735 0.0
H4423 H 0.12549 0.33546 0.24557 0.0
H4424 H 0.11271 0.2786 0.29219 0.0
H4425 H 0.15751 0.35376 0.27732 0.0
H4426 H 0.1213 0.31418 0.26241 0.0
H4427 H 0.14605 0.31981 0.3092 0.0
C4428 C 0.13434 0.29973 0.3158 0.0
C4429 C 0.12469 0.28801 0.31132 0.0
C4430 C 0.12935 0.32276 0.26567 0.0
C4431 C 0.13355 0.31002 0.29054 0.0
C4432 C 0.13173 0.33495 0.25606 0.0
C4433 C 0.14179 0.34646 0.2601 0.0
C4434 C 0.13694 0.32213 0.27954 0.0
C4435 C 0.14963 0.34514 0.27378 0.0
C4436 C 0.13884 0.3107 0.30544 0.0
C4437 C 0.12008 0.28746 0.29619 0.0
N4438 N 0.14692 0.33326 0.2831 0.0
N4439 N 0.12446 0.29837 0.2864 0.0
H4440 H 0.45239 0.60877 0.42242 0.0
H4441 H 0.41528 0.62323 0.50298 0.0
H4442 H 0.47286 0.63616 0.45705 0.0
H4443 H 0.3985 0.58995 0.47169 0.0
H4444 H 0.43681 0.62755 0.48647 0.0
H4445 H 0.43292 0.60115 0.44039 0.0
C4446 C 0.45285 0.6131 0.43382 0.0
C4447 C 0.46422 0.62321 0.4382 0.0
C4448 C 0.4285 0.61921 0.48325 0.0
C4449 C 0.44193 0.61459 0.45879 0.0
C4450 C 0.41617 0.61675 0.49267 0.0
C4451 C 0.40502 0.60628 0.48867 0.0
C4452 C 0.42964 0.61125 0.46961 0.0
C4453 C 0.40683 0.59815 0.47521 0.0
C4454 C 0.44174 0.60873 0.44408 0.0
C4455 C 0.46429 0.62841 0.45315 0.0
N4456 N 0.41884 0.60091 0.46609 0.0
N4457 N 0.45325 0.62413 0.46285 0.0
H4458 H 0.1152 0.72513 0.20814 0.0
H4459 H 0.15938 0.64765 0.22202 0.0
H4460 H 0.13954 0.70172 0.17308 0.0
H4461 H 0.12601 0.66582 0.25242 0.0
H4462 H 0.15561 0.66941 0.20541 0.0
H4463 H 0.12257 0.70551 0.22596 0.0
C4464 C 0.1222 0.71594 0.2042 0.0
C4465 C 0.12665 0.71501 0.18905 0.0
C4466 C 0.1492 0.66865 0.21577 0.0
C4467 C 0.13511 0.69248 0.20943 0.0
C4468 C 0.15138 0.65628 0.22528 0.0
C4469 C 0.14292 0.65487 0.23857 0.0
C4470 C 0.13859 0.67974 0.21968 0.0
C4471 C 0.13269 0.66638 0.24223 0.0
C4472 C 0.12637 0.70471 0.21438 0.0
C4473 C 0.13576 0.70284 0.18463 0.0
N4474 N 0.13079 0.6783 0.23282 0.0
N4475 N 0.13964 0.692 0.19476 0.0
H4476 H 0.10339 0.4096 0.97071 0.0
H4477 H 0.02569 0.36566 0.95762 0.0
H4478 H 0.08455 0.37737 0.00194 0.0
H4479 H 0.04923 0.38902 0.92197 0.0
H4480 H 0.04532 0.37328 0.97523 0.0
H4481 H 0.08178 0.40549 0.95397 0.0
C4482 C 0.09464 0.40178 0.97411 0.0
C4483 C 0.09582 0.39373 0.98769 0.0
C4484 C 0.04617 0.3768 0.96357 0.0
C4485 C 0.07114 0.38902 0.96865 0.0
C4486 C 0.03494 0.37248 0.95349 0.0
C4487 C 0.03587 0.37659 0.93824 0.0
C4488 C 0.05845 0.38536 0.95842 0.0
C4489 C 0.04811 0.38551 0.93361 0.0
C4490 C 0.08236 0.3994 0.96453 0.0
C4491 C 0.08418 0.38373 0.99153 0.0
N4492 N 0.05897 0.38955 0.94365 0.0
N4493 N 0.07236 0.38164 0.98205 0.0
H4494 H 0.36322 0.29807 0.67442 0.0
H4495 H 0.37132 0.33254 0.7565 0.0
H4496 H 0.38369 0.27426 0.71161 0.0
H4497 H 0.34193 0.35172 0.72279 0.0
H4498 H 0.37505 0.31058 0.74043 0.0
H4499 H 0.35432 0.31732 0.69202 0.0
C4500 C 0.36572 0.29681 0.6863 0.0
C4501 C 0.37436 0.28463 0.69153 0.0
C4502 C 0.36765 0.3195 0.73659 0.0
C4503 C 0.3643 0.30663 0.71169 0.0
C4504 C 0.36555 0.33207 0.74575 0.0
C4505 C 0.35642 0.34403 0.7409 0.0
C4506 C 0.36075 0.31897 0.72236 0.0
C4507 C 0.3491 0.34276 0.72693 0.0
C4508 C 0.36061 0.30778 0.69634 0.0
C4509 C 0.37716 0.28351 0.70705 0.0
N4510 N 0.35159 0.33052 0.71804 0.0
N4511 N 0.3723 0.29447 0.71656 0.0
H4512 H 0.04091 0.47381 0.36491 0.0
H4513 H 0.02558 0.39676 0.4093 0.0
H4514 H 0.07561 0.44998 0.38935 0.0
H4515 H 0.9953 0.41571 0.37625 0.0
H4516 H 0.0428 0.41798 0.40521 0.0
H4517 H 0.02285 0.45442 0.37215 0.0
C4518 C 0.04473 0.46455 0.37189 0.0
C4519 C 0.05985 0.46348 0.37643 0.0
C4520 C 0.03234 0.41751 0.39893 0.0
C4521 C 0.03915 0.44118 0.38476 0.0
C4522 C 0.02248 0.40545 0.4013 0.0
C4523 C 0.00901 0.40442 0.39304 0.0
C4524 C 0.02863 0.42868 0.38833 0.0
C4525 C 0.00559 0.41598 0.3828 0.0
C4526 C 0.0344 0.45345 0.37599 0.0
C4527 C 0.06409 0.45122 0.38552 0.0
N4528 N 0.01534 0.42759 0.38072 0.0
N4529 N 0.0538 0.44051 0.38935 0.0
H4530 H 0.29841 0.32692 0.14069 0.0
H4531 H 0.33298 0.24518 0.12761 0.0
H4532 H 0.27509 0.29107 0.11743 0.0
H4533 H 0.3524 0.27713 0.15875 0.0
H4534 H 0.31145 0.26186 0.12426 0.0
H4535 H 0.31801 0.30894 0.14806 0.0
C4536 C 0.29734 0.31525 0.13724 0.0
C4537 C 0.28515 0.31052 0.12832 0.0
C4538 C 0.32034 0.2652 0.13193 0.0
C4539 C 0.30757 0.28996 0.13662 0.0
C4540 C 0.33267 0.25569 0.13381 0.0
C4541 C 0.34455 0.25982 0.1434 0.0
C4542 C 0.31991 0.27908 0.13953 0.0
C4543 C 0.34348 0.27352 0.15124 0.0
C4544 C 0.30852 0.305 0.14147 0.0
C4545 C 0.28431 0.29526 0.12424 0.0
N4546 N 0.33143 0.28276 0.14901 0.0
N4547 N 0.29544 0.28557 0.1283 0.0
H4548 H 0.42043 0.54884 0.89195 0.0
H4549 H 0.47291 0.60306 0.91405 0.0
H4550 H 0.45795 0.52695 0.86999 0.0
H4551 H 0.49874 0.58628 0.87637 0.0
H4552 H 0.45593 0.58153 0.91162 0.0
H4553 H 0.43715 0.56924 0.89959 0.0
C4554 C 0.43225 0.5482 0.88895 0.0
C4555 C 0.43778 0.53619 0.88027 0.0
C4556 C 0.46519 0.58263 0.90377 0.0
C4557 C 0.45712 0.55942 0.88921 0.0
C4558 C 0.475 0.59486 0.90526 0.0
C4559 C 0.48715 0.59659 0.89527 0.0
C4560 C 0.46756 0.57209 0.89217 0.0
C4561 C 0.48942 0.58551 0.88421 0.0
C4562 C 0.44186 0.55983 0.89344 0.0
C4563 C 0.45318 0.536 0.87665 0.0
N4564 N 0.4797 0.57377 0.88294 0.0
N4565 N 0.46226 0.54752 0.881 0.0
H4566 H 0.22433 0.70518 0.61746 0.0
H4567 H 0.1461 0.71885 0.66031 0.0
H4568 H 0.20056 0.66979 0.64098 0.0
H4569 H 0.16523 0.74957 0.62778 0.0
H4570 H 0.16775 0.70204 0.65668 0.0
H4571 H 0.2046 0.72287 0.62465 0.0
C4572 C 0.21502 0.70113 0.62424 0.0
C4573 C 0.21406 0.68592 0.62851 0.0
C4574 C 0.16722 0.7125 0.65042 0.0
C4575 C 0.19133 0.7062 0.63676 0.0
C4576 C 0.15491 0.72213 0.65252 0.0
C4577 C 0.15381 0.73559 0.64426 0.0
C4578 C 0.17856 0.71647 0.6401 0.0
C4579 C 0.16554 0.73926 0.6343 0.0
C4580 C 0.20372 0.71126 0.62831 0.0
C4581 C 0.20173 0.68139 0.63736 0.0
N4582 N 0.17739 0.72975 0.63249 0.0
N4583 N 0.1908 0.69148 0.64114 0.0
H4584 H 0.07949 0.55195 0.10876 0.0
H4585 H 0.99696 0.5852 0.12073 0.0
H4586 H 0.04345 0.52798 0.13105 0.0
H4587 H 0.02936 0.60582 0.09085 0.0
H4588 H 0.01394 0.56391 0.1241 0.0
H4589 H 0.06147 0.57156 0.10145 0.0
C4590 C 0.06779 0.55074 0.11201 0.0
C4591 C 0.06301 0.53836 0.12065 0.0
C4592 C 0.01733 0.57302 0.1167 0.0
C4593 C 0.0424 0.56076 0.1124 0.0
C4594 C 0.00764 0.58521 0.1148 0.0
C4595 C 0.0118 0.59735 0.10557 0.0
C4596 C 0.03141 0.573 0.10947 0.0
C4597 C 0.02573 0.59669 0.09808 0.0
C4598 C 0.05751 0.56193 0.10782 0.0
C4599 C 0.04769 0.53735 0.12449 0.0
N4600 N 0.03513 0.58477 0.10032 0.0
N4601 N 0.03798 0.54846 0.12045 0.0
H4602 H 0.2258 0.29152 0.87846 0.0
H4603 H 0.16281 0.24649 0.87511 0.0
H4604 H 0.1962 0.32697 0.86309 0.0
H4605 H 0.14651 0.2767 0.84062 0.0
H4606 H 0.18438 0.26287 0.87896 0.0
H4607 H 0.20676 0.273 0.8717 0.0
C4608 C 0.21525 0.29542 0.87371 0.0
C4609 C 0.21248 0.31085 0.8716 0.0
C4610 C 0.17634 0.26578 0.87027 0.0
C4611 C 0.19036 0.28966 0.86426 0.0
C4612 C 0.16389 0.25649 0.86818 0.0
C4613 C 0.15284 0.2602 0.85749 0.0
C4614 C 0.17784 0.27896 0.86161 0.0
C4615 C 0.15481 0.27337 0.84891 0.0
C4616 C 0.2043 0.28482 0.86998 0.0
C4617 C 0.19873 0.3152 0.86507 0.0
N4618 N 0.16701 0.28238 0.85127 0.0
N4619 N 0.18811 0.30464 0.86172 0.0
H4620 H 0.45365 0.46378 0.61448 0.0
H4621 H 0.45574 0.37937 0.58219 0.0
H4622 H 0.41323 0.43866 0.60434 0.0
H4623 H 0.49455 0.40494 0.59643 0.0
H4624 H 0.43988 0.40181 0.58652 0.0
H4625 H 0.46868 0.44325 0.60429 0.0
C4626 C 0.44791 0.45397 0.61003 0.0
C4627 C 0.43214 0.45291 0.61043 0.0
C4628 C 0.45191 0.40252 0.58849 0.0
C4629 C 0.44939 0.42913 0.59876 0.0
C4630 C 0.46094 0.38976 0.58592 0.0
C4631 C 0.47643 0.39028 0.58911 0.0
C4632 C 0.45851 0.41581 0.59414 0.0
C4633 C 0.48262 0.40398 0.59402 0.0
C4634 C 0.45652 0.4422 0.60418 0.0
C4635 C 0.42537 0.43993 0.60433 0.0
N4636 N 0.47366 0.41611 0.59646 0.0
N4637 N 0.43403 0.42846 0.59888 0.0
H4638 H 0.27697 0.70746 0.38253 0.0
H4639 H 0.35382 0.71971 0.33684 0.0
H4640 H 0.2998 0.67155 0.35888 0.0
H4641 H 0.33539 0.75169 0.36856 0.0
H4642 H 0.33219 0.70314 0.3415 0.0
H4643 H 0.29639 0.72498 0.37415 0.0
C4644 C 0.28602 0.70326 0.37549 0.0
C4645 C 0.28682 0.68796 0.37152 0.0
C4646 C 0.33286 0.71383 0.34735 0.0
C4647 C 0.30915 0.70803 0.36188 0.0
C4648 C 0.34515 0.72332 0.34465 0.0
C4649 C 0.34646 0.73705 0.35241 0.0
C4650 C 0.32177 0.71819 0.35778 0.0
C4651 C 0.33492 0.74115 0.36243 0.0
C4652 C 0.29713 0.71328 0.37072 0.0
C4653 C 0.29879 0.68322 0.36229 0.0
N4654 N 0.3231 0.73175 0.36484 0.0
N4655 N 0.30954 0.69321 0.35784 0.0
H4656 H 0.38756 0.0749 0.44998 0.0
H4657 H 0.3729 0.99387 0.41399 0.0
H4658 H 0.35913 0.04104 0.47035 0.0
H4659 H 0.40648 0.02476 0.39705 0.0
H4660 H 0.3685 0.0107 0.43525 0.0
H4661 H 0.39539 0.0565 0.43102 0.0
C4662 C 0.38303 0.06357 0.45053 0.0
C4663 C 0.37257 0.05954 0.4617 0.0
C4664 C 0.37692 0.01376 0.42697 0.0
C4665 C 0.38145 0.03845 0.44001 0.0
C4666 C 0.37943 0.00416 0.4148 0.0
C4667 C 0.39 0.00797 0.40366 0.0
C4668 C 0.38491 0.02739 0.42796 0.0
C4669 C 0.3982 0.0214 0.40536 0.0
C4670 C 0.38753 0.05306 0.43971 0.0
C4671 C 0.36715 0.04468 0.4619 0.0
N4672 N 0.39538 0.03071 0.41721 0.0
N4673 N 0.37156 0.03472 0.45115 0.0
H4674 H 0.88832 0.41923 0.5512 0.0
H4675 H 0.87603 0.50154 0.58504 0.0
H4676 H 0.8639 0.45464 0.5284 0.0
H4677 H 0.90793 0.46996 0.60385 0.0
H4678 H 0.87187 0.48441 0.564 0.0
H4679 H 0.89612 0.43748 0.57041 0.0
C4680 C 0.88469 0.43084 0.55017 0.0
C4681 C 0.87533 0.43538 0.53823 0.0
C4682 C 0.87988 0.48124 0.57265 0.0
C4683 C 0.88414 0.45625 0.56017 0.0
C4684 C 0.88224 0.49102 0.5847 0.0
C4685 C 0.89228 0.48713 0.59626 0.0
C4686 C 0.88746 0.46735 0.57221 0.0
C4687 C 0.90008 0.4734 0.59517 0.0
C4688 C 0.88916 0.44125 0.56112 0.0
C4689 C 0.87103 0.45059 0.53743 0.0
N4690 N 0.89739 0.46391 0.58342 0.0
N4691 N 0.87536 0.46042 0.54831 0.0
H4692 H 0.32826 0.139 0.29816 0.0
H4693 H 0.27437 0.16475 0.34905 0.0
H4694 H 0.29169 0.11446 0.27743 0.0
H4695 H 0.24912 0.12554 0.3351 0.0
H4696 H 0.29185 0.16055 0.32826 0.0
H4697 H 0.31099 0.14776 0.31761 0.0
C4698 C 0.31654 0.13563 0.29757 0.0
C4699 C 0.31143 0.12596 0.28614 0.0
C4700 C 0.28262 0.15274 0.32982 0.0
C4701 C 0.29143 0.13623 0.30826 0.0
C4702 C 0.27251 0.15524 0.34162 0.0
C4703 C 0.26036 0.14537 0.34395 0.0
C4704 C 0.28061 0.14021 0.32033 0.0
C4705 C 0.25841 0.13336 0.33384 0.0
C4706 C 0.30661 0.14077 0.30864 0.0
C4707 C 0.29614 0.1219 0.28602 0.0
N4708 N 0.26846 0.13109 0.32251 0.0
N4709 N 0.28672 0.12694 0.29698 0.0
H4710 H 0.60879 0.57785 0.05029 0.0
H4711 H 0.62228 0.49583 0.0844 0.0
H4712 H 0.63317 0.54259 0.02721 0.0
H4713 H 0.58994 0.527 0.10313 0.0
H4714 H 0.62619 0.51296 0.06328 0.0
H4715 H 0.60148 0.5596 0.0697 0.0
C4716 C 0.61252 0.56627 0.04924 0.0
C4717 C 0.6217 0.56177 0.03715 0.0
C4718 C 0.61814 0.51603 0.07193 0.0
C4719 C 0.61345 0.5409 0.05934 0.0
C4720 C 0.61592 0.50625 0.08402 0.0
C4721 C 0.60582 0.51003 0.09559 0.0
C4722 C 0.61035 0.5298 0.07145 0.0
C4723 C 0.59784 0.52365 0.09445 0.0
C4724 C 0.60832 0.55586 0.06031 0.0
C4725 C 0.62615 0.54661 0.03635 0.0
N4726 N 0.60038 0.53313 0.08266 0.0
N4727 N 0.62209 0.53677 0.04734 0.0
H4728 H 0.66781 0.358 0.30105 0.0
H4729 H 0.74832 0.37054 0.33871 0.0
H4730 H 0.70425 0.38218 0.27968 0.0
H4731 H 0.7159 0.33874 0.35621 0.0
H4732 H 0.73227 0.37451 0.3168 0.0
H4733 H 0.68512 0.35031 0.32113 0.0
C4734 C 0.67946 0.3616 0.30051 0.0
C4735 C 0.68455 0.37085 0.28872 0.0
C4736 C 0.72869 0.36656 0.32535 0.0
C4737 C 0.70436 0.36218 0.31168 0.0
C4738 C 0.73784 0.36432 0.3379 0.0
C4739 C 0.73339 0.35437 0.34936 0.0
C4740 C 0.71485 0.35895 0.32428 0.0
C4741 C 0.71975 0.34653 0.34763 0.0
C4742 C 0.68933 0.35719 0.31197 0.0
C4743 C 0.69979 0.37512 0.28857 0.0
N4744 N 0.71087 0.34911 0.33539 0.0
N4745 N 0.7091 0.37086 0.29994 0.0
H4746 H 0.12309 0.00179 0.91262 0.0
H4747 H 0.11023 0.91889 0.94494 0.0
H4748 H 0.0935 0.9697 0.89112 0.0
H4749 H 0.13256 0.95459 0.96936 0.0
H4750 H 0.1034 0.9371 0.92529 0.0
H4751 H 0.12618 0.98449 0.93367 0.0
C4752 C 0.11717 0.99111 0.91236 0.0
C4753 C 0.10809 0.98715 0.90004 0.0
C4754 C 0.10968 0.94093 0.93503 0.0
C4755 C 0.11168 0.96715 0.92415 0.0
C4756 C 0.11359 0.93055 0.94624 0.0
C4757 C 0.12209 0.93518 0.95877 0.0
C4758 C 0.11439 0.956 0.93633 0.0
C4759 C 0.12609 0.95045 0.95988 0.0
C4760 C 0.11892 0.98123 0.92442 0.0
C4761 C 0.10061 0.9732 0.9004 0.0
N4762 N 0.12231 0.96026 0.94877 0.0
N4763 N 0.10269 0.96361 0.9122 0.0
H4764 H 0.29012 0.88131 0.222 0.0
H4765 H 0.27741 0.83802 0.14387 0.0
H4766 H 0.32559 0.85751 0.19864 0.0
H4767 H 0.24689 0.87143 0.1618 0.0
H4768 H 0.29359 0.84141 0.16601 0.0
H4769 H 0.27253 0.87398 0.20216 0.0
C4770 C 0.29419 0.87442 0.21278 0.0
C4771 C 0.30939 0.87014 0.21191 0.0
C4772 C 0.2833 0.84791 0.16512 0.0
C4773 C 0.28929 0.86174 0.18915 0.0
C4774 C 0.27404 0.84595 0.15252 0.0
C4775 C 0.26085 0.85456 0.15094 0.0
C4776 C 0.27924 0.85843 0.17624 0.0
C4777 C 0.25703 0.86467 0.16249 0.0
C4778 C 0.28414 0.87028 0.20143 0.0
C4779 C 0.31399 0.86117 0.1997 0.0
N4780 N 0.26619 0.86635 0.17462 0.0
N4781 N 0.30399 0.85732 0.18875 0.0
H4782 H 0.17436 0.14316 0.69852 0.0
H4783 H 0.25653 0.13301 0.66337 0.0
H4784 H 0.21011 0.11809 0.72002 0.0
H4785 H 0.22401 0.16459 0.64567 0.0
H4786 H 0.23971 0.12792 0.68449 0.0
H4787 H 0.19229 0.15158 0.67929 0.0
C4788 C 0.18598 0.13949 0.69925 0.0
C4789 C 0.19071 0.12982 0.71086 0.0
C4790 C 0.23628 0.13606 0.67608 0.0
C4791 C 0.21125 0.13937 0.68886 0.0
C4792 C 0.24589 0.13897 0.66399 0.0
C4793 C 0.24164 0.14919 0.65268 0.0
C4794 C 0.2222 0.14327 0.67682 0.0
C4795 C 0.22774 0.15663 0.65413 0.0
C4796 C 0.19622 0.14433 0.68828 0.0
C4797 C 0.20592 0.12548 0.71127 0.0
N4798 N 0.21844 0.15341 0.6659 0.0
N4799 N 0.2156 0.13019 0.70038 0.0
loop_
_geom_bond_atom_site_label_1
_geom_bond_atom_site_label_2
_geom_bond_distance
_geom_bond_site_symmetry_2
_ccdc_geom_bond_type
C0 O2 1.247 . S
C0 O4 1.303 . S
C1 O8 1.247 . S
C1 O9 1.258 . S
O2 C0 1.247 . S
O2 Zn3 2.028 1_655 S
Zn3 O2 2.028 1_455 S
Zn3 O7 2.035 . S
Zn3 O9 2.035 . S
Zn3 O10 2.028 1_455 S
O4 C0 1.303 . S
O4 Zn5 1.988 1_655 S
Zn5 O4 1.988 1_455 S
Zn5 O6 2.028 . S
Zn5 O8 2.028 . S
Zn5 O11 2.035 1_455 S
O6 Zn5 2.028 . S
O6 C12 1.247 . S
O7 Zn3 2.035 . S
O7 C12 1.258 . S
O8 C1 1.247 . S
O8 Zn5 2.028 . S
O9 C1 1.258 . S
O9 Zn3 2.035 . S
O10 Zn3 2.028 1_655 S
O10 C13 1.247 . S
O11 Zn5 2.035 1_655 S
O11 C13 1.258 . S
C12 O6 1.247 . S
C12 O7 1.258 . S
C13 O10 1.247 . S
C13 O11 1.258 . S
C14 O16 1.247 . S
C14 O18 1.258 . S
C15 O22 1.247 . S
C15 O23 1.258 . S
O16 C14 1.247 . S
O16 Zn17 2.028 . S
Zn17 O16 2.028 . S
Zn17 O21 2.035 . S
Zn17 O23 2.035 . S
Zn17 O24 2.028 . S
O18 C14 1.258 . S
O18 Zn19 2.035 . S
Zn19 O18 2.035 . S
Zn19 O20 2.028 . S
Zn19 O22 2.028 . S
Zn19 O25 2.035 . S
O20 Zn19 2.028 . S
O20 C26 1.247 . S
O21 Zn17 2.035 . S
O21 C26 1.258 . S
O22 C15 1.247 . S
O22 Zn19 2.028 . S
O23 C15 1.258 . S
O23 Zn17 2.035 . S
O24 Zn17 2.028 . S
O24 C27 1.247 . S
O25 Zn19 2.035 . S
O25 C27 1.258 . S
C26 O20 1.247 . S
C26 O21 1.258 . S
C27 O24 1.247 . S
C27 O25 1.258 . S
C28 O30 1.247 . S
C28 O32 1.258 . S
C29 O36 1.247 . S
C29 O37 1.258 . S
O30 C28 1.247 . S
O30 Zn31 2.028 . S
Zn31 O30 2.028 . S
Zn31 O35 2.035 . S
Zn31 O37 2.035 . S
Zn31 O38 2.028 . S
O32 C28 1.258 . S
O32 Zn33 2.035 . S
Zn33 O32 2.035 . S
Zn33 O34 2.028 . S
Zn33 O36 2.028 . S
Zn33 O39 2.035 . S
O34 Zn33 2.028 . S
O34 C40 1.247 . S
O35 Zn31 2.035 . S
O35 C40 1.258 . S
O36 C29 1.247 . S
O36 Zn33 2.028 . S
O37 C29 1.258 . S
O37 Zn31 2.035 . S
O38 Zn31 2.028 . S
O38 C41 1.247 . S
O39 Zn33 2.035 . S
O39 C41 1.258 . S
C40 O34 1.247 . S
C40 O35 1.258 . S
C41 O38 1.247 . S
C41 O39 1.258 . S
C42 O44 1.247 . S
C42 O46 1.258 . S
C43 O50 1.247 . S
C43 O51 1.258 . S
O44 C42 1.247 . S
O44 Zn45 2.028 . S
Zn45 O44 2.028 . S
Zn45 O49 2.035 . S
Zn45 O51 2.035 . S
Zn45 O52 2.028 . S
O46 C42 1.258 . S
O46 Zn47 2.035 . S
Zn47 O46 2.035 . S
Zn47 O48 2.028 . S
Zn47 O50 2.028 . S
Zn47 O53 2.035 . S
O48 Zn47 2.028 . S
O48 C54 1.247 . S
O49 Zn45 2.035 . S
O49 C54 1.258 . S
O50 C43 1.247 . S
O50 Zn47 2.028 . S
O51 C43 1.258 . S
O51 Zn45 2.035 . S
O52 Zn45 2.028 . S
O52 C55 1.247 . S
O53 Zn47 2.035 . S
O53 C55 1.258 . S
C54 O48 1.247 . S
C54 O49 1.258 . S
C55 O52 1.247 . S
C55 O53 1.258 . S
C56 O58 1.247 . S
C56 O60 1.258 . S
C57 O64 1.247 . S
C57 O65 1.258 . S
O58 C56 1.247 . S
O58 Zn59 2.028 . S
Zn59 O58 2.028 . S
Zn59 O63 1.988 1_455 S
Zn59 O65 2.035 1_455 S
Zn59 O66 2.028 . S
O60 C56 1.258 . S
O60 Zn61 2.035 . S
Zn61 O60 2.035 . S
Zn61 O62 2.028 1_455 S
Zn61 O64 2.028 1_455 S
Zn61 O67 2.035 . S
O62 Zn61 2.028 1_655 S
O62 C68 1.247 . S
O63 Zn59 1.988 1_655 S
O63 C68 1.303 . S
O64 C57 1.247 . S
O64 Zn61 2.028 1_655 S
O65 C57 1.258 . S
O65 Zn59 2.035 1_655 S
O66 Zn59 2.028 . S
O66 C69 1.247 . S
O67 Zn61 2.035 . S
O67 C69 1.258 . S
C68 O62 1.247 . S
C68 O63 1.303 . S
C69 O66 1.247 . S
C69 O67 1.258 . S
C70 O72 1.247 . S
C70 O74 1.258 . S
C71 O78 1.247 . S
C71 O79 1.258 . S
O72 C70 1.247 . S
O72 Zn73 2.028 . S
Zn73 O72 2.028 . S
Zn73 O77 2.035 . S
Zn73 O79 2.035 . S
Zn73 O80 2.028 . S
O74 C70 1.258 . S
O74 Zn75 2.035 . S
Zn75 O74 2.035 . S
Zn75 O76 2.028 . S
Zn75 O78 2.028 . S
Zn75 O81 2.035 . S
O76 Zn75 2.028 . S
O76 C82 1.247 . S
O77 Zn73 2.035 . S
O77 C82 1.258 . S
O78 C71 1.247 . S
O78 Zn75 2.028 . S
O79 C71 1.258 . S
O79 Zn73 2.035 . S
O80 Zn73 2.028 . S
O80 C83 1.247 . S
O81 Zn75 2.035 . S
O81 C83 1.258 . S
C82 O76 1.247 . S
C82 O77 1.258 . S
C83 O80 1.247 . S
C83 O81 1.258 . S
C84 O86 1.247 . S
C84 O88 1.258 . S
C85 O92 1.247 . S
C85 O93 1.258 . S
O86 C84 1.247 . S
O86 Zn87 2.028 . S
Zn87 O86 2.028 . S
Zn87 O91 2.035 . S
Zn87 O93 2.035 . S
Zn87 O94 2.028 . S
O88 C84 1.258 . S
O88 Zn89 2.035 . S
Zn89 O88 2.035 . S
Zn89 O90 2.028 . S
Zn89 O92 2.028 . S
Zn89 O95 2.035 . S
O90 Zn89 2.028 . S
O90 C96 1.247 . S
O91 Zn87 2.035 . S
O91 C96 1.258 . S
O92 C85 1.247 . S
O92 Zn89 2.028 . S
O93 C85 1.258 . S
O93 Zn87 2.035 . S
O94 Zn87 2.028 . S
O94 C97 1.247 . S
O95 Zn89 2.035 . S
O95 C97 1.258 . S
C96 O90 1.247 . S
C96 O91 1.258 . S
C97 O94 1.247 . S
C97 O95 1.258 . S
C98 O100 1.247 . S
C98 O102 1.258 . S
C99 O106 1.247 . S
C99 O107 1.258 . S
O100 C98 1.247 . S
O100 Zn101 2.028 . S
Zn101 O100 2.028 . S
Zn101 O105 2.035 . S
Zn101 O107 2.035 . S
Zn101 O108 2.028 . S
O102 C98 1.258 . S
O102 Zn103 2.035 . S
Zn103 O102 2.035 . S
Zn103 O104 2.028 . S
Zn103 O106 2.028 . S
Zn103 O109 2.035 . S
O104 Zn103 2.028 . S
O104 C110 1.247 . S
O105 Zn101 2.035 . S
O105 C110 1.258 . S
O106 C99 1.247 . S
O106 Zn103 2.028 . S
O107 C99 1.258 . S
O107 Zn101 2.035 . S
O108 Zn101 2.028 . S
O108 C111 1.247 . S
O109 Zn103 2.035 . S
O109 C111 1.258 . S
C110 O104 1.247 . S
C110 O105 1.258 . S
C111 O108 1.247 . S
C111 O109 1.258 . S
C112 O114 1.247 . S
C112 O116 1.258 . S
C113 O120 1.247 . S
C113 O121 1.258 . S
O114 C112 1.247 . S
O114 Zn115 2.028 . S
Zn115 O114 2.028 . S
Zn115 O119 1.988 1_545 S
Zn115 O121 2.035 1_545 S
Zn115 O122 2.028 . S
O116 C112 1.258 . S
O116 Zn117 2.035 . S
Zn117 O116 2.035 . S
Zn117 O118 2.028 1_545 S
Zn117 O120 2.028 1_545 S
Zn117 O123 2.035 . S
O118 Zn117 2.028 1_565 S
O118 C124 1.247 . S
O119 Zn115 1.988 1_565 S
O119 C124 1.303 . S
O120 C113 1.247 . S
O120 Zn117 2.028 1_565 S
O121 C113 1.258 . S
O121 Zn115 2.035 1_565 S
O122 Zn115 2.028 . S
O122 C125 1.247 . S
O123 Zn117 2.035 . S
O123 C125 1.258 . S
C124 O118 1.247 . S
C124 O119 1.303 . S
C125 O122 1.247 . S
C125 O123 1.258 . S
C126 O128 1.247 . S
C126 O130 1.258 . S
C127 O134 1.247 . S
C127 O135 1.258 . S
O128 C126 1.247 . S
O128 Zn129 2.028 . S
Zn129 O128 2.028 . S
Zn129 O133 2.035 . S
Zn129 O135 2.035 . S
Zn129 O136 2.028 . S
O130 C126 1.258 . S
O130 Zn131 2.035 . S
Zn131 O130 2.035 . S
Zn131 O132 2.028 . S
Zn131 O134 2.028 . S
Zn131 O137 2.035 . S
O132 Zn131 2.028 . S
O132 C138 1.247 . S
O133 Zn129 2.035 . S
O133 C138 1.258 . S
O134 C127 1.247 . S
O134 Zn131 2.028 . S
O135 C127 1.258 . S
O135 Zn129 2.035 . S
O136 Zn129 2.028 . S
O136 C139 1.247 . S
O137 Zn131 2.035 . S
O137 C139 1.258 . S
C138 O132 1.247 . S
C138 O133 1.258 . S
C139 O136 1.247 . S
C139 O137 1.258 . S
C140 O142 1.247 . S
C140 O144 1.258 . S
C141 O148 1.247 . S
C141 O149 1.258 . S
O142 C140 1.247 . S
O142 Zn143 2.028 . S
Zn143 O142 2.028 . S
Zn143 O147 1.988 1_565 S
Zn143 O149 2.035 1_565 S
Zn143 O150 2.028 . S
O144 C140 1.258 . S
O144 Zn145 2.035 . S
Zn145 O144 2.035 . S
Zn145 O146 2.028 1_565 S
Zn145 O148 2.028 1_565 S
Zn145 O151 2.035 . S
O146 Zn145 2.028 1_545 S
O146 C152 1.247 . S
O147 Zn143 1.988 1_545 S
O147 C152 1.303 . S
O148 C141 1.247 . S
O148 Zn145 2.028 1_545 S
O149 C141 1.258 . S
O149 Zn143 2.035 1_545 S
O150 Zn143 2.028 . S
O150 C153 1.247 . S
O151 Zn145 2.035 . S
O151 C153 1.258 . S
C152 O146 1.247 . S
C152 O147 1.303 . S
C153 O150 1.247 . S
C153 O151 1.258 . S
C154 O156 1.247 . S
C154 O158 1.258 . S
C155 O162 1.247 . S
C155 O163 1.258 . S
O156 C154 1.247 . S
O156 Zn157 2.028 . S
Zn157 O156 2.028 . S
Zn157 O161 2.035 . S
Zn157 O163 2.035 . S
Zn157 O164 2.028 . S
O158 C154 1.258 . S
O158 Zn159 2.035 . S
Zn159 O158 2.035 . S
Zn159 O160 2.028 . S
Zn159 O162 2.028 . S
Zn159 O165 2.035 . S
O160 Zn159 2.028 . S
O160 C166 1.247 . S
O161 Zn157 2.035 . S
O161 C166 1.258 . S
O162 C155 1.247 . S
O162 Zn159 2.028 . S
O163 C155 1.258 . S
O163 Zn157 2.035 . S
O164 Zn157 2.028 . S
O164 C167 1.247 . S
O165 Zn159 2.035 . S
O165 C167 1.258 . S
C166 O160 1.247 . S
C166 O161 1.258 . S
C167 O164 1.247 . S
C167 O165 1.258 . S
C168 O170 1.247 . S
C168 O172 1.258 . S
C169 O176 1.247 . S
C169 O177 1.258 . S
O170 C168 1.247 . S
O170 Zn171 2.028 . S
Zn171 O170 2.028 . S
Zn171 O175 1.988 1_565 S
Zn171 O177 2.035 1_565 S
Zn171 O178 2.028 . S
O172 C168 1.258 . S
O172 Zn173 2.035 . S
Zn173 O172 2.035 . S
Zn173 O174 2.028 1_565 S
Zn173 O176 2.028 1_565 S
Zn173 O179 2.035 . S
O174 Zn173 2.028 1_545 S
O174 C180 1.247 . S
O175 Zn171 1.988 1_545 S
O175 C180 1.303 . S
O176 C169 1.247 . S
O176 Zn173 2.028 1_545 S
O177 C169 1.258 . S
O177 Zn171 2.035 1_545 S
O178 Zn171 2.028 . S
O178 C181 1.247 . S
O179 Zn173 2.035 . S
O179 C181 1.258 . S
C180 O174 1.247 . S
C180 O175 1.303 . S
C181 O178 1.247 . S
C181 O179 1.258 . S
C182 O184 1.247 . S
C182 O186 1.258 . S
C183 O190 1.247 . S
C183 O191 1.258 . S
O184 C182 1.247 . S
O184 Zn185 2.028 . S
Zn185 O184 2.028 . S
Zn185 O189 2.035 . S
Zn185 O191 2.035 . S
Zn185 O192 2.028 . S
O186 C182 1.258 . S
O186 Zn187 2.035 . S
Zn187 O186 2.035 . S
Zn187 O188 2.028 . S
Zn187 O190 2.028 . S
Zn187 O193 2.035 . S
O188 Zn187 2.028 . S
O188 C194 1.247 . S
O189 Zn185 2.035 . S
O189 C194 1.258 . S
O190 C183 1.247 . S
O190 Zn187 2.028 . S
O191 C183 1.258 . S
O191 Zn185 2.035 . S
O192 Zn185 2.028 . S
O192 C195 1.247 . S
O193 Zn187 2.035 . S
O193 C195 1.258 . S
C194 O188 1.247 . S
C194 O189 1.258 . S
C195 O192 1.247 . S
C195 O193 1.258 . S
C196 O198 1.247 . S
C196 O200 1.303 . S
C197 O204 1.247 . S
C197 O205 1.258 . S
O198 C196 1.247 . S
O198 Zn199 2.028 1_565 S
Zn199 O198 2.028 1_545 S
Zn199 O203 2.035 . S
Zn199 O205 2.035 . S
Zn199 O206 2.028 1_545 S
O200 C196 1.303 . S
O200 Zn201 1.988 1_565 S
Zn201 O200 1.988 1_545 S
Zn201 O202 2.028 . S
Zn201 O204 2.028 . S
Zn201 O207 2.035 1_545 S
O202 Zn201 2.028 . S
O202 C208 1.247 . S
O203 Zn199 2.035 . S
O203 C208 1.258 . S
O204 C197 1.247 . S
O204 Zn201 2.028 . S
O205 C197 1.258 . S
O205 Zn199 2.035 . S
O206 Zn199 2.028 1_565 S
O206 C209 1.247 . S
O207 Zn201 2.035 1_565 S
O207 C209 1.258 . S
C208 O202 1.247 . S
C208 O203 1.258 . S
C209 O206 1.247 . S
C209 O207 1.258 . S
C210 O212 1.247 . S
C210 O214 1.258 . S
C211 O218 1.247 . S
C211 O219 1.258 . S
O212 C210 1.247 . S
O212 Zn213 2.028 . S
Zn213 O212 2.028 . S
Zn213 O217 2.035 . S
Zn213 O219 2.035 . S
Zn213 O220 2.028 . S
O214 C210 1.258 . S
O214 Zn215 2.035 . S
Zn215 O214 2.035 . S
Zn215 O216 2.028 . S
Zn215 O218 2.028 . S
Zn215 O221 2.035 . S
O216 Zn215 2.028 . S
O216 C222 1.247 . S
O217 Zn213 2.035 . S
O217 C222 1.258 . S
O218 C211 1.247 . S
O218 Zn215 2.028 . S
O219 C211 1.258 . S
O219 Zn213 2.035 . S
O220 Zn213 2.028 . S
O220 C223 1.247 . S
O221 Zn215 2.035 . S
O221 C223 1.258 . S
C222 O216 1.247 . S
C222 O217 1.258 . S
C223 O220 1.247 . S
C223 O221 1.258 . S
C224 O226 1.247 . S
C224 O228 1.258 . S
C225 O232 1.247 . S
C225 O233 1.258 . S
O226 C224 1.247 . S
O226 Zn227 2.028 1_556 S
Zn227 O226 2.028 1_554 S
Zn227 O231 2.035 . S
Zn227 O233 2.035 . S
Zn227 O234 1.984 1_554 S
O228 C224 1.258 . S
O228 Zn229 2.035 1_556 S
Zn229 O228 2.035 1_554 S
Zn229 O230 2.028 . S
Zn229 O232 2.028 . S
Zn229 O235 2.035 1_554 S
O230 Zn229 2.028 . S
O230 C236 1.247 . S
O231 Zn227 2.035 . S
O231 C236 1.258 . S
O232 C225 1.247 . S
O232 Zn229 2.028 . S
O233 C225 1.258 . S
O233 Zn227 2.035 . S
O234 Zn227 1.984 1_556 S
O234 C237 1.290 . S
O235 Zn229 2.035 1_556 S
O235 C237 1.258 . S
C236 O230 1.247 . S
C236 O231 1.258 . S
C237 O234 1.290 . S
C237 O235 1.258 . S
C238 O240 1.247 . S
C238 O242 1.258 . S
C239 O246 1.247 . S
C239 O247 1.258 . S
O240 C238 1.247 . S
O240 Zn241 2.028 1_554 S
Zn241 O240 2.028 1_556 S
Zn241 O245 2.035 . S
Zn241 O247 2.035 . S
Zn241 O248 1.984 1_556 S
O242 C238 1.258 . S
O242 Zn243 2.035 1_554 S
Zn243 O242 2.035 1_556 S
Zn243 O244 2.028 . S
Zn243 O246 2.028 . S
Zn243 O249 2.035 1_556 S
O244 Zn243 2.028 . S
O244 C250 1.247 . S
O245 Zn241 2.035 . S
O245 C250 1.258 . S
O246 C239 1.247 . S
O246 Zn243 2.028 . S
O247 C239 1.258 . S
O247 Zn241 2.035 . S
O248 Zn241 1.984 1_554 S
O248 C251 1.290 . S
O249 Zn243 2.035 1_554 S
O249 C251 1.258 . S
C250 O244 1.247 . S
C250 O245 1.258 . S
C251 O248 1.290 . S
C251 O249 1.258 . S
C252 O254 1.247 . S
C252 O256 1.258 . S
C253 O260 1.247 . S
C253 O261 1.258 . S
O254 C252 1.247 . S
O254 Zn255 2.028 . S
Zn255 O254 2.028 . S
Zn255 O259 2.035 . S
Zn255 O261 2.035 . S
Zn255 O262 2.028 . S
O256 C252 1.258 . S
O256 Zn257 2.035 . S
Zn257 O256 2.035 . S
Zn257 O258 2.028 . S
Zn257 O260 2.028 . S
Zn257 O263 2.035 . S
O258 Zn257 2.028 . S
O258 C264 1.247 . S
O259 Zn255 2.035 . S
O259 C264 1.258 . S
O260 C253 1.247 . S
O260 Zn257 2.028 . S
O261 C253 1.258 . S
O261 Zn255 2.035 . S
O262 Zn255 2.028 . S
O262 C265 1.247 . S
O263 Zn257 2.035 . S
O263 C265 1.258 . S
C264 O258 1.247 . S
C264 O259 1.258 . S
C265 O262 1.247 . S
C265 O263 1.258 . S
C266 O268 1.247 . S
C266 O270 1.258 . S
C267 O274 1.247 . S
C267 O275 1.258 . S
O268 C266 1.247 . S
O268 Zn269 2.028 . S
Zn269 O268 2.028 . S
Zn269 O273 2.035 . S
Zn269 O275 2.035 . S
Zn269 O276 2.028 . S
O270 C266 1.258 . S
O270 Zn271 2.035 . S
Zn271 O270 2.035 . S
Zn271 O272 2.028 . S
Zn271 O274 2.028 . S
Zn271 O277 2.035 . S
O272 Zn271 2.028 . S
O272 C278 1.247 . S
O273 Zn269 2.035 . S
O273 C278 1.258 . S
O274 C267 1.247 . S
O274 Zn271 2.028 . S
O275 C267 1.258 . S
O275 Zn269 2.035 . S
O276 Zn269 2.028 . S
O276 C279 1.247 . S
O277 Zn271 2.035 . S
O277 C279 1.258 . S
C278 O272 1.247 . S
C278 O273 1.258 . S
C279 O276 1.247 . S
C279 O277 1.258 . S
C280 O282 1.247 . S
C280 O284 1.258 . S
C281 O288 1.247 . S
C281 O289 1.258 . S
O282 C280 1.247 . S
O282 Zn283 2.028 . S
Zn283 O282 2.028 . S
Zn283 O287 2.035 . S
Zn283 O289 2.035 . S
Zn283 O290 2.028 . S
O284 C280 1.258 . S
O284 Zn285 2.035 . S
Zn285 O284 2.035 . S
Zn285 O286 2.028 . S
Zn285 O288 2.028 . S
Zn285 O291 2.035 . S
O286 Zn285 2.028 . S
O286 C292 1.247 . S
O287 Zn283 2.035 . S
O287 C292 1.258 . S
O288 C281 1.247 . S
O288 Zn285 2.028 . S
O289 C281 1.258 . S
O289 Zn283 2.035 . S
O290 Zn283 2.028 . S
O290 C293 1.247 . S
O291 Zn285 2.035 . S
O291 C293 1.258 . S
C292 O286 1.247 . S
C292 O287 1.258 . S
C293 O290 1.247 . S
C293 O291 1.258 . S
C294 O296 1.247 . S
C294 O298 1.258 . S
C295 O302 1.247 . S
C295 O303 1.258 . S
O296 C294 1.247 . S
O296 Zn297 2.028 . S
Zn297 O296 2.028 . S
Zn297 O301 2.035 . S
Zn297 O303 2.035 . S
Zn297 O304 2.028 . S
O298 C294 1.258 . S
O298 Zn299 2.035 . S
Zn299 O298 2.035 . S
Zn299 O300 2.028 . S
Zn299 O302 2.028 . S
Zn299 O305 2.035 . S
O300 Zn299 2.028 . S
O300 C306 1.247 . S
O301 Zn297 2.035 . S
O301 C306 1.258 . S
O302 C295 1.247 . S
O302 Zn299 2.028 . S
O303 C295 1.258 . S
O303 Zn297 2.035 . S
O304 Zn297 2.028 . S
O304 C307 1.247 . S
O305 Zn299 2.035 . S
O305 C307 1.258 . S
C306 O300 1.247 . S
C306 O301 1.258 . S
C307 O304 1.247 . S
C307 O305 1.258 . S
C308 O310 1.247 . S
C308 O312 1.258 . S
C309 O316 1.247 . S
C309 O317 1.258 . S
O310 C308 1.247 . S
O310 Zn311 2.028 . S
Zn311 O310 2.028 . S
Zn311 O315 2.035 . S
Zn311 O317 2.035 . S
Zn311 O318 2.028 . S
O312 C308 1.258 . S
O312 Zn313 2.035 . S
Zn313 O312 2.035 . S
Zn313 O314 2.028 . S
Zn313 O316 2.028 . S
Zn313 O319 2.035 . S
O314 Zn313 2.028 . S
O314 C320 1.247 . S
O315 Zn311 2.035 . S
O315 C320 1.258 . S
O316 C309 1.247 . S
O316 Zn313 2.028 . S
O317 C309 1.258 . S
O317 Zn311 2.035 . S
O318 Zn311 2.028 . S
O318 C321 1.247 . S
O319 Zn313 2.035 . S
O319 C321 1.258 . S
C320 O314 1.247 . S
C320 O315 1.258 . S
C321 O318 1.247 . S
C321 O319 1.258 . S
C322 O324 1.247 . S
C322 O326 1.258 . S
C323 O330 1.247 . S
C323 O331 1.258 . S
O324 C322 1.247 . S
O324 Zn325 2.028 . S
Zn325 O324 2.028 . S
Zn325 O329 2.035 . S
Zn325 O331 2.035 . S
Zn325 O332 2.028 . S
O326 C322 1.258 . S
O326 Zn327 2.035 . S
Zn327 O326 2.035 . S
Zn327 O328 2.028 . S
Zn327 O330 2.028 . S
Zn327 O333 2.035 . S
O328 Zn327 2.028 . S
O328 C334 1.247 . S
O329 Zn325 2.035 . S
O329 C334 1.258 . S
O330 C323 1.247 . S
O330 Zn327 2.028 . S
O331 C323 1.258 . S
O331 Zn325 2.035 . S
O332 Zn325 2.028 . S
O332 C335 1.247 . S
O333 Zn327 2.035 . S
O333 C335 1.258 . S
C334 O328 1.247 . S
C334 O329 1.258 . S
C335 O332 1.247 . S
C335 O333 1.258 . S
C336 O338 1.247 . S
C336 O340 1.258 . S
C337 O344 1.247 . S
C337 O345 1.303 . S
O338 C336 1.247 . S
O338 Zn339 2.028 . S
Zn339 O338 2.028 . S
Zn339 O343 2.035 1_655 S
Zn339 O345 1.988 1_655 S
Zn339 O346 2.028 . S
O340 C336 1.258 . S
O340 Zn341 2.035 . S
Zn341 O340 2.035 . S
Zn341 O342 2.028 1_655 S
Zn341 O344 2.028 1_655 S
Zn341 O347 2.035 . S
O342 Zn341 2.028 1_455 S
O342 C348 1.247 . S
O343 Zn339 2.035 1_455 S
O343 C348 1.258 . S
O344 C337 1.247 . S
O344 Zn341 2.028 1_455 S
O345 C337 1.303 . S
O345 Zn339 1.988 1_455 S
O346 Zn339 2.028 . S
O346 C349 1.247 . S
O347 Zn341 2.035 . S
O347 C349 1.258 . S
C348 O342 1.247 . S
C348 O343 1.258 . S
C349 O346 1.247 . S
C349 O347 1.258 . S
C350 O352 1.247 . S
C350 O354 1.258 . S
C351 O358 1.247 . S
C351 O359 1.258 . S
O352 C350 1.247 . S
O352 Zn353 2.028 . S
Zn353 O352 2.028 . S
Zn353 O357 2.035 . S
Zn353 O359 2.035 . S
Zn353 O360 2.028 . S
O354 C350 1.258 . S
O354 Zn355 2.035 . S
Zn355 O354 2.035 . S
Zn355 O356 2.028 . S
Zn355 O358 2.028 . S
Zn355 O361 2.035 . S
O356 Zn355 2.028 . S
O356 C362 1.247 . S
O357 Zn353 2.035 . S
O357 C362 1.258 . S
O358 C351 1.247 . S
O358 Zn355 2.028 . S
O359 C351 1.258 . S
O359 Zn353 2.035 . S
O360 Zn353 2.028 . S
O360 C363 1.247 . S
O361 Zn355 2.035 . S
O361 C363 1.258 . S
C362 O356 1.247 . S
C362 O357 1.258 . S
C363 O360 1.247 . S
C363 O361 1.258 . S
C364 O366 1.247 . S
C364 O368 1.258 . S
C365 O372 1.247 . S
C365 O373 1.258 . S
O366 C364 1.247 . S
O366 Zn367 2.028 . S
Zn367 O366 2.028 . S
Zn367 O371 2.035 . S
Zn367 O373 2.035 . S
Zn367 O374 2.028 . S
O368 C364 1.258 . S
O368 Zn369 2.035 . S
Zn369 O368 2.035 . S
Zn369 O370 2.028 . S
Zn369 O372 2.028 . S
Zn369 O375 2.035 . S
O370 Zn369 2.028 . S
O370 C376 1.247 . S
O371 Zn367 2.035 . S
O371 C376 1.258 . S
O372 C365 1.247 . S
O372 Zn369 2.028 . S
O373 C365 1.258 . S
O373 Zn367 2.035 . S
O374 Zn367 2.028 . S
O374 C377 1.247 . S
O375 Zn369 2.035 . S
O375 C377 1.258 . S
C376 O370 1.247 . S
C376 O371 1.258 . S
C377 O374 1.247 . S
C377 O375 1.258 . S
C378 O380 1.247 . S
C378 O382 1.258 . S
C379 O386 1.247 . S
C379 O387 1.258 . S
O380 C378 1.247 . S
O380 Zn381 2.028 . S
Zn381 O380 2.028 . S
Zn381 O385 2.035 . S
Zn381 O387 2.035 . S
Zn381 O388 2.028 . S
O382 C378 1.258 . S
O382 Zn383 2.035 . S
Zn383 O382 2.035 . S
Zn383 O384 2.028 . S
Zn383 O386 2.028 . S
Zn383 O389 2.035 . S
O384 Zn383 2.028 . S
O384 C390 1.247 . S
O385 Zn381 2.035 . S
O385 C390 1.258 . S
O386 C379 1.247 . S
O386 Zn383 2.028 . S
O387 C379 1.258 . S
O387 Zn381 2.035 . S
O388 Zn381 2.028 . S
O388 C391 1.247 . S
O389 Zn383 2.035 . S
O389 C391 1.258 . S
C390 O384 1.247 . S
C390 O385 1.258 . S
C391 O388 1.247 . S
C391 O389 1.258 . S
C392 O394 1.247 . S
C392 O396 1.258 . S
C393 O400 1.247 . S
C393 O401 1.303 . S
O394 C392 1.247 . S
O394 Zn395 2.028 . S
Zn395 O394 2.028 . S
Zn395 O399 2.035 1_655 S
Zn395 O401 1.988 1_655 S
Zn395 O402 2.028 . S
O396 C392 1.258 . S
O396 Zn397 2.035 . S
Zn397 O396 2.035 . S
Zn397 O398 2.028 1_655 S
Zn397 O400 2.028 1_655 S
Zn397 O403 2.035 . S
O398 Zn397 2.028 1_455 S
O398 C404 1.247 . S
O399 Zn395 2.035 1_455 S
O399 C404 1.258 . S
O400 C393 1.247 . S
O400 Zn397 2.028 1_455 S
O401 C393 1.303 . S
O401 Zn395 1.988 1_455 S
O402 Zn395 2.028 . S
O402 C405 1.247 . S
O403 Zn397 2.035 . S
O403 C405 1.258 . S
C404 O398 1.247 . S
C404 O399 1.258 . S
C405 O402 1.247 . S
C405 O403 1.258 . S
C406 O408 1.247 . S
C406 O410 1.258 . S
C407 O414 1.247 . S
C407 O415 1.258 . S
O408 C406 1.247 . S
O408 Zn409 2.028 . S
Zn409 O408 2.028 . S
Zn409 O413 2.035 . S
Zn409 O415 2.035 . S
Zn409 O416 2.028 . S
O410 C406 1.258 . S
O410 Zn411 2.035 . S
Zn411 O410 2.035 . S
Zn411 O412 2.028 . S
Zn411 O414 2.028 . S
Zn411 O417 2.035 . S
O412 Zn411 2.028 . S
O412 C418 1.247 . S
O413 Zn409 2.035 . S
O413 C418 1.258 . S
O414 C407 1.247 . S
O414 Zn411 2.028 . S
O415 C407 1.258 . S
O415 Zn409 2.035 . S
O416 Zn409 2.028 . S
O416 C419 1.247 . S
O417 Zn411 2.035 . S
O417 C419 1.258 . S
C418 O412 1.247 . S
C418 O413 1.258 . S
C419 O416 1.247 . S
C419 O417 1.258 . S
C420 O422 1.247 . S
C420 O424 1.258 . S
C421 O428 1.247 . S
C421 O429 1.258 . S
O422 C420 1.247 . S
O422 Zn423 2.028 . S
Zn423 O422 2.028 . S
Zn423 O427 2.035 . S
Zn423 O429 2.035 . S
Zn423 O430 2.028 . S
O424 C420 1.258 . S
O424 Zn425 2.035 . S
Zn425 O424 2.035 . S
Zn425 O426 2.028 . S
Zn425 O428 2.028 . S
Zn425 O431 2.035 . S
O426 Zn425 2.028 . S
O426 C432 1.247 . S
O427 Zn423 2.035 . S
O427 C432 1.258 . S
O428 C421 1.247 . S
O428 Zn425 2.028 . S
O429 C421 1.258 . S
O429 Zn423 2.035 . S
O430 Zn423 2.028 . S
O430 C433 1.247 . S
O431 Zn425 2.035 . S
O431 C433 1.258 . S
C432 O426 1.247 . S
C432 O427 1.258 . S
C433 O430 1.247 . S
C433 O431 1.258 . S
C434 O436 1.247 . S
C434 O438 1.258 . S
C435 O442 1.247 . S
C435 O443 1.258 . S
O436 C434 1.247 . S
O436 Zn437 2.028 . S
Zn437 O436 2.028 . S
Zn437 O441 2.035 . S
Zn437 O443 2.035 . S
Zn437 O444 2.028 . S
O438 C434 1.258 . S
O438 Zn439 2.035 . S
Zn439 O438 2.035 . S
Zn439 O440 2.028 . S
Zn439 O442 2.028 . S
Zn439 O445 2.035 . S
O440 Zn439 2.028 . S
O440 C446 1.247 . S
O441 Zn437 2.035 . S
O441 C446 1.258 . S
O442 C435 1.247 . S
O442 Zn439 2.028 . S
O443 C435 1.258 . S
O443 Zn437 2.035 . S
O444 Zn437 2.028 . S
O444 C447 1.247 . S
O445 Zn439 2.035 . S
O445 C447 1.258 . S
C446 O440 1.247 . S
C446 O441 1.258 . S
C447 O444 1.247 . S
C447 O445 1.258 . S
C448 O450 1.290 . S
C448 O452 1.258 . S
C449 O456 1.247 . S
C449 O457 1.258 . S
O450 C448 1.290 . S
O450 Zn451 1.984 1_545 S
Zn451 O450 1.984 1_565 S
Zn451 O455 2.035 . S
Zn451 O457 2.035 . S
Zn451 O458 2.028 1_565 S
O452 C448 1.258 . S
O452 Zn453 2.035 1_545 S
Zn453 O452 2.035 1_565 S
Zn453 O454 2.028 . S
Zn453 O456 2.028 . S
Zn453 O459 2.035 1_565 S
O454 Zn453 2.028 . S
O454 C460 1.247 . S
O455 Zn451 2.035 . S
O455 C460 1.258 . S
O456 C449 1.247 . S
O456 Zn453 2.028 . S
O457 C449 1.258 . S
O457 Zn451 2.035 . S
O458 Zn451 2.028 1_545 S
O458 C461 1.247 . S
O459 Zn453 2.035 1_545 S
O459 C461 1.258 . S
C460 O454 1.247 . S
C460 O455 1.258 . S
C461 O458 1.247 . S
C461 O459 1.258 . S
C462 O464 1.247 . S
C462 O466 1.258 . S
C463 O470 1.247 . S
C463 O471 1.258 . S
O464 C462 1.247 . S
O464 Zn465 2.028 . S
Zn465 O464 2.028 . S
Zn465 O469 2.035 . S
Zn465 O471 2.035 . S
Zn465 O472 2.028 . S
O466 C462 1.258 . S
O466 Zn467 2.035 . S
Zn467 O466 2.035 . S
Zn467 O468 2.028 . S
Zn467 O470 2.028 . S
Zn467 O473 2.035 . S
O468 Zn467 2.028 . S
O468 C474 1.247 . S
O469 Zn465 2.035 . S
O469 C474 1.258 . S
O470 C463 1.247 . S
O470 Zn467 2.028 . S
O471 C463 1.258 . S
O471 Zn465 2.035 . S
O472 Zn465 2.028 . S
O472 C475 1.247 . S
O473 Zn467 2.035 . S
O473 C475 1.258 . S
C474 O468 1.247 . S
C474 O469 1.258 . S
C475 O472 1.247 . S
C475 O473 1.258 . S
C476 O478 1.290 . S
C476 O480 1.258 . S
C477 O484 1.247 . S
C477 O485 1.258 . S
O478 C476 1.290 . S
O478 Zn479 1.984 1_565 S
Zn479 O478 1.984 1_545 S
Zn479 O483 2.035 . S
Zn479 O485 2.035 . S
Zn479 O486 2.028 1_545 S
O480 C476 1.258 . S
O480 Zn481 2.035 1_565 S
Zn481 O480 2.035 1_545 S
Zn481 O482 2.028 . S
Zn481 O484 2.028 . S
Zn481 O487 2.035 1_545 S
O482 Zn481 2.028 . S
O482 C488 1.247 . S
O483 Zn479 2.035 . S
O483 C488 1.258 . S
O484 C477 1.247 . S
O484 Zn481 2.028 . S
O485 C477 1.258 . S
O485 Zn479 2.035 . S
O486 Zn479 2.028 1_565 S
O486 C489 1.247 . S
O487 Zn481 2.035 1_565 S
O487 C489 1.258 . S
C488 O482 1.247 . S
C488 O483 1.258 . S
C489 O486 1.247 . S
C489 O487 1.258 . S
C490 O492 1.247 . S
C490 O494 1.258 . S
C491 O498 1.247 . S
C491 O499 1.258 . S
O492 C490 1.247 . S
O492 Zn493 2.028 . S
Zn493 O492 2.028 . S
Zn493 O497 2.035 . S
Zn493 O499 2.035 . S
Zn493 O500 2.028 . S
O494 C490 1.258 . S
O494 Zn495 2.035 . S
Zn495 O494 2.035 . S
Zn495 O496 2.028 . S
Zn495 O498 2.028 . S
Zn495 O501 2.035 . S
O496 Zn495 2.028 . S
O496 C502 1.247 . S
O497 Zn493 2.035 . S
O497 C502 1.258 . S
O498 C491 1.247 . S
O498 Zn495 2.028 . S
O499 C491 1.258 . S
O499 Zn493 2.035 . S
O500 Zn493 2.028 . S
O500 C503 1.247 . S
O501 Zn495 2.035 . S
O501 C503 1.258 . S
C502 O496 1.247 . S
C502 O497 1.258 . S
C503 O500 1.247 . S
C503 O501 1.258 . S
C504 O506 1.247 . S
C504 O508 1.258 . S
C505 O512 1.247 . S
C505 O513 1.303 . S
O506 C504 1.247 . S
O506 Zn507 2.028 . S
Zn507 O506 2.028 . S
Zn507 O511 2.035 1_545 S
Zn507 O513 1.988 1_545 S
Zn507 O514 2.028 . S
O508 C504 1.258 . S
O508 Zn509 2.035 . S
Zn509 O508 2.035 . S
Zn509 O510 2.028 1_545 S
Zn509 O512 2.028 1_545 S
Zn509 O515 2.035 . S
O510 Zn509 2.028 1_565 S
O510 C516 1.247 . S
O511 Zn507 2.035 1_565 S
O511 C516 1.258 . S
O512 C505 1.247 . S
O512 Zn509 2.028 1_565 S
O513 C505 1.303 . S
O513 Zn507 1.988 1_565 S
O514 Zn507 2.028 . S
O514 C517 1.247 . S
O515 Zn509 2.035 . S
O515 C517 1.258 . S
C516 O510 1.247 . S
C516 O511 1.258 . S
C517 O514 1.247 . S
C517 O515 1.258 . S
C518 O520 1.247 . S
C518 O522 1.258 . S
C519 O526 1.247 . S
C519 O527 1.258 . S
O520 C518 1.247 . S
O520 Zn521 2.028 . S
Zn521 O520 2.028 . S
Zn521 O525 2.035 . S
Zn521 O527 2.035 . S
Zn521 O528 2.028 . S
O522 C518 1.258 . S
O522 Zn523 2.035 . S
Zn523 O522 2.035 . S
Zn523 O524 2.028 . S
Zn523 O526 2.028 . S
Zn523 O529 2.035 . S
O524 Zn523 2.028 . S
O524 C530 1.247 . S
O525 Zn521 2.035 . S
O525 C530 1.258 . S
O526 C519 1.247 . S
O526 Zn523 2.028 . S
O527 C519 1.258 . S
O527 Zn521 2.035 . S
O528 Zn521 2.028 . S
O528 C531 1.247 . S
O529 Zn523 2.035 . S
O529 C531 1.258 . S
C530 O524 1.247 . S
C530 O525 1.258 . S
C531 O528 1.247 . S
C531 O529 1.258 . S
C532 O534 1.247 . S
C532 O536 1.258 . S
C533 O540 1.247 . S
C533 O541 1.258 . S
O534 C532 1.247 . S
O534 Zn535 2.028 1_545 S
Zn535 O534 2.028 1_565 S
Zn535 O539 2.035 . S
Zn535 O541 2.035 . S
Zn535 O542 2.028 1_565 S
O536 C532 1.258 . S
O536 Zn537 2.035 1_545 S
Zn537 O536 2.035 1_565 S
Zn537 O538 2.028 . S
Zn537 O540 2.028 . S
Zn537 O543 1.988 1_565 S
O538 Zn537 2.028 . S
O538 C544 1.247 . S
O539 Zn535 2.035 . S
O539 C544 1.258 . S
O540 C533 1.247 . S
O540 Zn537 2.028 . S
O541 C533 1.258 . S
O541 Zn535 2.035 . S
O542 Zn535 2.028 1_545 S
O542 C545 1.247 . S
O543 Zn537 1.988 1_545 S
O543 C545 1.303 . S
C544 O538 1.247 . S
C544 O539 1.258 . S
C545 O542 1.247 . S
C545 O543 1.303 . S
C546 O548 1.247 . S
C546 O550 1.258 . S
C547 O554 1.247 . S
C547 O555 1.258 . S
O548 C546 1.247 . S
O548 Zn549 2.028 . S
Zn549 O548 2.028 . S
Zn549 O553 2.035 . S
Zn549 O555 2.035 . S
Zn549 O556 2.028 . S
O550 C546 1.258 . S
O550 Zn551 2.035 . S
Zn551 O550 2.035 . S
Zn551 O552 2.028 . S
Zn551 O554 2.028 . S
Zn551 O557 2.035 . S
O552 Zn551 2.028 . S
O552 C558 1.247 . S
O553 Zn549 2.035 . S
O553 C558 1.258 . S
O554 C547 1.247 . S
O554 Zn551 2.028 . S
O555 C547 1.258 . S
O555 Zn549 2.035 . S
O556 Zn549 2.028 . S
O556 C559 1.247 . S
O557 Zn551 2.035 . S
O557 C559 1.258 . S
C558 O552 1.247 . S
C558 O553 1.258 . S
C559 O556 1.247 . S
C559 O557 1.258 . S
C560 O562 1.247 . S
C560 O564 1.258 . S
C561 O568 1.247 . S
C561 O569 1.258 . S
O562 C560 1.247 . S
O562 Zn563 2.028 . S
Zn563 O562 2.028 . S
Zn563 O567 2.035 1_556 S
Zn563 O569 2.035 1_556 S
Zn563 O570 2.028 . S
O564 C560 1.258 . S
O564 Zn565 2.035 . S
Zn565 O564 2.035 . S
Zn565 O566 1.984 1_556 S
Zn565 O568 2.028 1_556 S
Zn565 O571 2.035 . S
O566 Zn565 1.984 1_554 S
O566 C572 1.290 . S
O567 Zn563 2.035 1_554 S
O567 C572 1.258 . S
O568 C561 1.247 . S
O568 Zn565 2.028 1_554 S
O569 C561 1.258 . S
O569 Zn563 2.035 1_554 S
O570 Zn563 2.028 . S
O570 C573 1.247 . S
O571 Zn565 2.035 . S
O571 C573 1.258 . S
C572 O566 1.290 . S
C572 O567 1.258 . S
C573 O570 1.247 . S
C573 O571 1.258 . S
C574 O576 1.247 . S
C574 O578 1.258 . S
C575 O582 1.247 . S
C575 O583 1.258 . S
O576 C574 1.247 . S
O576 Zn577 2.028 . S
Zn577 O576 2.028 . S
Zn577 O581 2.035 1_554 S
Zn577 O583 2.035 1_554 S
Zn577 O584 2.028 . S
O578 C574 1.258 . S
O578 Zn579 2.035 . S
Zn579 O578 2.035 . S
Zn579 O580 1.984 1_554 S
Zn579 O582 2.028 1_554 S
Zn579 O585 2.035 . S
O580 Zn579 1.984 1_556 S
O580 C586 1.290 . S
O581 Zn577 2.035 1_556 S
O581 C586 1.258 . S
O582 C575 1.247 . S
O582 Zn579 2.028 1_556 S
O583 C575 1.258 . S
O583 Zn577 2.035 1_556 S
O584 Zn577 2.028 . S
O584 C587 1.247 . S
O585 Zn579 2.035 . S
O585 C587 1.258 . S
C586 O580 1.290 . S
C586 O581 1.258 . S
C587 O584 1.247 . S
C587 O585 1.258 . S
C588 O590 1.247 . S
C588 O592 1.258 . S
C589 O596 1.247 . S
C589 O597 1.258 . S
O590 C588 1.247 . S
O590 Zn591 2.028 . S
Zn591 O590 2.028 . S
Zn591 O595 2.035 . S
Zn591 O597 2.035 . S
Zn591 O598 2.028 . S
O592 C588 1.258 . S
O592 Zn593 2.035 . S
Zn593 O592 2.035 . S
Zn593 O594 2.028 . S
Zn593 O596 2.028 . S
Zn593 O599 2.035 . S
O594 Zn593 2.028 . S
O594 C600 1.247 . S
O595 Zn591 2.035 . S
O595 C600 1.258 . S
O596 C589 1.247 . S
O596 Zn593 2.028 . S
O597 C589 1.258 . S
O597 Zn591 2.035 . S
O598 Zn591 2.028 . S
O598 C601 1.247 . S
O599 Zn593 2.035 . S
O599 C601 1.258 . S
C600 O594 1.247 . S
C600 O595 1.258 . S
C601 O598 1.247 . S
C601 O599 1.258 . S
C602 O604 1.247 . S
C602 O606 1.258 . S
C603 O610 1.247 . S
C603 O611 1.258 . S
O604 C602 1.247 . S
O604 Zn605 2.028 . S
Zn605 O604 2.028 . S
Zn605 O609 2.035 . S
Zn605 O611 2.035 . S
Zn605 O612 2.028 . S
O606 C602 1.258 . S
O606 Zn607 2.035 . S
Zn607 O606 2.035 . S
Zn607 O608 2.028 . S
Zn607 O610 2.028 . S
Zn607 O613 2.035 . S
O608 Zn607 2.028 . S
O608 C614 1.247 . S
O609 Zn605 2.035 . S
O609 C614 1.258 . S
O610 C603 1.247 . S
O610 Zn607 2.028 . S
O611 C603 1.258 . S
O611 Zn605 2.035 . S
O612 Zn605 2.028 . S
O612 C615 1.247 . S
O613 Zn607 2.035 . S
O613 C615 1.258 . S
C614 O608 1.247 . S
C614 O609 1.258 . S
C615 O612 1.247 . S
C615 O613 1.258 . S
C616 O618 1.247 . S
C616 O620 1.258 . S
C617 O624 1.247 . S
C617 O625 1.258 . S
O618 C616 1.247 . S
O618 Zn619 2.028 . S
Zn619 O618 2.028 . S
Zn619 O623 2.035 . S
Zn619 O625 2.035 . S
Zn619 O626 2.028 . S
O620 C616 1.258 . S
O620 Zn621 2.035 . S
Zn621 O620 2.035 . S
Zn621 O622 2.028 . S
Zn621 O624 2.028 . S
Zn621 O627 2.035 . S
O622 Zn621 2.028 . S
O622 C628 1.247 . S
O623 Zn619 2.035 . S
O623 C628 1.258 . S
O624 C617 1.247 . S
O624 Zn621 2.028 . S
O625 C617 1.258 . S
O625 Zn619 2.035 . S
O626 Zn619 2.028 . S
O626 C629 1.247 . S
O627 Zn621 2.035 . S
O627 C629 1.258 . S
C628 O622 1.247 . S
C628 O623 1.258 . S
C629 O626 1.247 . S
C629 O627 1.258 . S
C630 O632 1.247 . S
C630 O634 1.258 . S
C631 O638 1.247 . S
C631 O639 1.258 . S
O632 C630 1.247 . S
O632 Zn633 2.028 . S
Zn633 O632 2.028 . S
Zn633 O637 2.035 . S
Zn633 O639 2.035 . S
Zn633 O640 2.028 . S
O634 C630 1.258 . S
O634 Zn635 2.035 . S
Zn635 O634 2.035 . S
Zn635 O636 2.028 . S
Zn635 O638 2.028 . S
Zn635 O641 2.035 . S
O636 Zn635 2.028 . S
O636 C642 1.247 . S
O637 Zn633 2.035 . S
O637 C642 1.258 . S
O638 C631 1.247 . S
O638 Zn635 2.028 . S
O639 C631 1.258 . S
O639 Zn633 2.035 . S
O640 Zn633 2.028 . S
O640 C643 1.247 . S
O641 Zn635 2.035 . S
O641 C643 1.258 . S
C642 O636 1.247 . S
C642 O637 1.258 . S
C643 O640 1.247 . S
C643 O641 1.258 . S
C644 O646 1.247 . S
C644 O648 1.258 . S
C645 O652 1.247 . S
C645 O653 1.258 . S
O646 C644 1.247 . S
O646 Zn647 2.028 . S
Zn647 O646 2.028 . S
Zn647 O651 2.035 . S
Zn647 O653 2.035 . S
Zn647 O654 2.028 . S
O648 C644 1.258 . S
O648 Zn649 2.035 . S
Zn649 O648 2.035 . S
Zn649 O650 2.028 . S
Zn649 O652 2.028 . S
Zn649 O655 2.035 . S
O650 Zn649 2.028 . S
O650 C656 1.247 . S
O651 Zn647 2.035 . S
O651 C656 1.258 . S
O652 C645 1.247 . S
O652 Zn649 2.028 . S
O653 C645 1.258 . S
O653 Zn647 2.035 . S
O654 Zn647 2.028 . S
O654 C657 1.247 . S
O655 Zn649 2.035 . S
O655 C657 1.258 . S
C656 O650 1.247 . S
C656 O651 1.258 . S
C657 O654 1.247 . S
C657 O655 1.258 . S
C658 O660 1.247 . S
C658 O662 1.258 . S
C659 O666 1.247 . S
C659 O667 1.258 . S
O660 C658 1.247 . S
O660 Zn661 2.028 . S
Zn661 O660 2.028 . S
Zn661 O665 2.035 . S
Zn661 O667 2.035 . S
Zn661 O668 2.028 . S
O662 C658 1.258 . S
O662 Zn663 2.035 . S
Zn663 O662 2.035 . S
Zn663 O664 2.028 . S
Zn663 O666 2.028 . S
Zn663 O669 2.035 . S
O664 Zn663 2.028 . S
O664 C670 1.247 . S
O665 Zn661 2.035 . S
O665 C670 1.258 . S
O666 C659 1.247 . S
O666 Zn663 2.028 . S
O667 C659 1.258 . S
O667 Zn661 2.035 . S
O668 Zn661 2.028 . S
O668 C671 1.247 . S
O669 Zn663 2.035 . S
O669 C671 1.258 . S
C670 O664 1.247 . S
C670 O665 1.258 . S
C671 O668 1.247 . S
C671 O669 1.258 . S
C672 O674 1.247 . S
C672 O676 1.258 . S
C673 O680 1.247 . S
C673 O681 1.258 . S
O674 C672 1.247 . S
O674 Zn675 2.028 . S
Zn675 O674 2.028 . S
Zn675 O679 2.035 . S
Zn675 O681 2.035 . S
Zn675 O682 2.028 . S
O676 C672 1.258 . S
O676 Zn677 2.035 . S
Zn677 O676 2.035 . S
Zn677 O678 2.028 . S
Zn677 O680 2.028 . S
Zn677 O683 2.035 . S
O678 Zn677 2.028 . S
O678 C684 1.247 . S
O679 Zn675 2.035 . S
O679 C684 1.258 . S
O680 C673 1.247 . S
O680 Zn677 2.028 . S
O681 C673 1.258 . S
O681 Zn675 2.035 . S
O682 Zn675 2.028 . S
O682 C685 1.247 . S
O683 Zn677 2.035 . S
O683 C685 1.258 . S
C684 O678 1.247 . S
C684 O679 1.258 . S
C685 O682 1.247 . S
C685 O683 1.258 . S
C686 O688 1.247 . S
C686 O690 1.258 . S
C687 O694 1.247 . S
C687 O695 1.258 . S
O688 C686 1.247 . S
O688 Zn689 2.028 . S
Zn689 O688 2.028 . S
Zn689 O693 2.035 . S
Zn689 O695 2.035 . S
Zn689 O696 2.028 . S
O690 C686 1.258 . S
O690 Zn691 2.035 . S
Zn691 O690 2.035 . S
Zn691 O692 2.028 . S
Zn691 O694 2.028 . S
Zn691 O697 2.035 . S
O692 Zn691 2.028 . S
O692 C698 1.247 . S
O693 Zn689 2.035 . S
O693 C698 1.258 . S
O694 C687 1.247 . S
O694 Zn691 2.028 . S
O695 C687 1.258 . S
O695 Zn689 2.035 . S
O696 Zn689 2.028 . S
O696 C699 1.247 . S
O697 Zn691 2.035 . S
O697 C699 1.258 . S
C698 O692 1.247 . S
C698 O693 1.258 . S
C699 O696 1.247 . S
C699 O697 1.258 . S
C700 O702 1.247 . S
C700 O704 1.258 . S
C701 O708 1.247 . S
C701 O709 1.258 . S
O702 C700 1.247 . S
O702 Zn703 2.028 . S
Zn703 O702 2.028 . S
Zn703 O707 1.988 1_655 S
Zn703 O709 2.035 1_655 S
Zn703 O710 2.028 . S
O704 C700 1.258 . S
O704 Zn705 2.035 . S
Zn705 O704 2.035 . S
Zn705 O706 2.028 1_655 S
Zn705 O708 2.028 1_655 S
Zn705 O711 2.035 . S
O706 Zn705 2.028 1_455 S
O706 C712 1.247 . S
O707 Zn703 1.988 1_455 S
O707 C712 1.303 . S
O708 C701 1.247 . S
O708 Zn705 2.028 1_455 S
O709 C701 1.258 . S
O709 Zn703 2.035 1_455 S
O710 Zn703 2.028 . S
O710 C713 1.247 . S
O711 Zn705 2.035 . S
O711 C713 1.258 . S
C712 O706 1.247 . S
C712 O707 1.303 . S
C713 O710 1.247 . S
C713 O711 1.258 . S
C714 O716 1.247 . S
C714 O718 1.258 . S
C715 O722 1.247 . S
C715 O723 1.258 . S
O716 C714 1.247 . S
O716 Zn717 2.028 . S
Zn717 O716 2.028 . S
Zn717 O721 2.035 . S
Zn717 O723 2.035 . S
Zn717 O724 2.028 . S
O718 C714 1.258 . S
O718 Zn719 2.035 . S
Zn719 O718 2.035 . S
Zn719 O720 2.028 . S
Zn719 O722 2.028 . S
Zn719 O725 2.035 . S
O720 Zn719 2.028 . S
O720 C726 1.247 . S
O721 Zn717 2.035 . S
O721 C726 1.258 . S
O722 C715 1.247 . S
O722 Zn719 2.028 . S
O723 C715 1.258 . S
O723 Zn717 2.035 . S
O724 Zn717 2.028 . S
O724 C727 1.247 . S
O725 Zn719 2.035 . S
O725 C727 1.258 . S
C726 O720 1.247 . S
C726 O721 1.258 . S
C727 O724 1.247 . S
C727 O725 1.258 . S
C728 O730 1.247 . S
C728 O732 1.258 . S
C729 O736 1.247 . S
C729 O737 1.258 . S
O730 C728 1.247 . S
O730 Zn731 2.028 . S
Zn731 O730 2.028 . S
Zn731 O735 2.035 . S
Zn731 O737 2.035 . S
Zn731 O738 2.028 . S
O732 C728 1.258 . S
O732 Zn733 2.035 . S
Zn733 O732 2.035 . S
Zn733 O734 2.028 . S
Zn733 O736 2.028 . S
Zn733 O739 2.035 . S
O734 Zn733 2.028 . S
O734 C740 1.247 . S
O735 Zn731 2.035 . S
O735 C740 1.258 . S
O736 C729 1.247 . S
O736 Zn733 2.028 . S
O737 C729 1.258 . S
O737 Zn731 2.035 . S
O738 Zn731 2.028 . S
O738 C741 1.247 . S
O739 Zn733 2.035 . S
O739 C741 1.258 . S
C740 O734 1.247 . S
C740 O735 1.258 . S
C741 O738 1.247 . S
C741 O739 1.258 . S
C742 O744 1.247 . S
C742 O746 1.258 . S
C743 O750 1.247 . S
C743 O751 1.258 . S
O744 C742 1.247 . S
O744 Zn745 2.028 . S
Zn745 O744 2.028 . S
Zn745 O749 2.035 . S
Zn745 O751 2.035 . S
Zn745 O752 2.028 . S
O746 C742 1.258 . S
O746 Zn747 2.035 . S
Zn747 O746 2.035 . S
Zn747 O748 2.028 . S
Zn747 O750 2.028 . S
Zn747 O753 2.035 . S
O748 Zn747 2.028 . S
O748 C754 1.247 . S
O749 Zn745 2.035 . S
O749 C754 1.258 . S
O750 C743 1.247 . S
O750 Zn747 2.028 . S
O751 C743 1.258 . S
O751 Zn745 2.035 . S
O752 Zn745 2.028 . S
O752 C755 1.247 . S
O753 Zn747 2.035 . S
O753 C755 1.258 . S
C754 O748 1.247 . S
C754 O749 1.258 . S
C755 O752 1.247 . S
C755 O753 1.258 . S
C756 O758 1.247 . S
C756 O760 1.258 . S
C757 O764 1.247 . S
C757 O765 1.258 . S
O758 C756 1.247 . S
O758 Zn759 2.028 . S
Zn759 O758 2.028 . S
Zn759 O763 1.988 1_655 S
Zn759 O765 2.035 1_655 S
Zn759 O766 2.028 . S
O760 C756 1.258 . S
O760 Zn761 2.035 . S
Zn761 O760 2.035 . S
Zn761 O762 2.028 1_655 S
Zn761 O764 2.028 1_655 S
Zn761 O767 2.035 . S
O762 Zn761 2.028 1_455 S
O762 C768 1.247 . S
O763 Zn759 1.988 1_455 S
O763 C768 1.303 . S
O764 C757 1.247 . S
O764 Zn761 2.028 1_455 S
O765 C757 1.258 . S
O765 Zn759 2.035 1_455 S
O766 Zn759 2.028 . S
O766 C769 1.247 . S
O767 Zn761 2.035 . S
O767 C769 1.258 . S
C768 O762 1.247 . S
C768 O763 1.303 . S
C769 O766 1.247 . S
C769 O767 1.258 . S
C770 O772 1.247 . S
C770 O774 1.258 . S
C771 O778 1.247 . S
C771 O779 1.258 . S
O772 C770 1.247 . S
O772 Zn773 2.028 . S
Zn773 O772 2.028 . S
Zn773 O777 2.035 . S
Zn773 O779 2.035 . S
Zn773 O780 2.028 . S
O774 C770 1.258 . S
O774 Zn775 2.035 . S
Zn775 O774 2.035 . S
Zn775 O776 2.028 . S
Zn775 O778 2.028 . S
Zn775 O781 2.035 . S
O776 Zn775 2.028 . S
O776 C782 1.247 . S
O777 Zn773 2.035 . S
O777 C782 1.258 . S
O778 C771 1.247 . S
O778 Zn775 2.028 . S
O779 C771 1.258 . S
O779 Zn773 2.035 . S
O780 Zn773 2.028 . S
O780 C783 1.247 . S
O781 Zn775 2.035 . S
O781 C783 1.258 . S
C782 O776 1.247 . S
C782 O777 1.258 . S
C783 O780 1.247 . S
C783 O781 1.258 . S
C784 O786 1.247 . S
C784 O788 1.258 . S
C785 O792 1.247 . S
C785 O793 1.258 . S
O786 C784 1.247 . S
O786 Zn787 2.028 . S
Zn787 O786 2.028 . S
Zn787 O791 2.035 . S
Zn787 O793 2.035 . S
Zn787 O794 2.028 . S
O788 C784 1.258 . S
O788 Zn789 2.035 . S
Zn789 O788 2.035 . S
Zn789 O790 2.028 . S
Zn789 O792 2.028 . S
Zn789 O795 2.035 . S
O790 Zn789 2.028 . S
O790 C796 1.247 . S
O791 Zn787 2.035 . S
O791 C796 1.258 . S
O792 C785 1.247 . S
O792 Zn789 2.028 . S
O793 C785 1.258 . S
O793 Zn787 2.035 . S
O794 Zn787 2.028 . S
O794 C797 1.247 . S
O795 Zn789 2.035 . S
O795 C797 1.258 . S
C796 O790 1.247 . S
C796 O791 1.258 . S
C797 O794 1.247 . S
C797 O795 1.258 . S
C798 O800 1.247 . S
C798 O802 1.258 . S
C799 O806 1.247 . S
C799 O807 1.258 . S
O800 C798 1.247 . S
O800 Zn801 2.028 . S
Zn801 O800 2.028 . S
Zn801 O805 2.035 . S
Zn801 O807 2.035 . S
Zn801 O808 2.028 . S
O802 C798 1.258 . S
O802 Zn803 2.035 . S
Zn803 O802 2.035 . S
Zn803 O804 2.028 . S
Zn803 O806 2.028 . S
Zn803 O809 2.035 . S
O804 Zn803 2.028 . S
O804 C810 1.247 . S
O805 Zn801 2.035 . S
O805 C810 1.258 . S
O806 C799 1.247 . S
O806 Zn803 2.028 . S
O807 C799 1.258 . S
O807 Zn801 2.035 . S
O808 Zn801 2.028 . S
O808 C811 1.247 . S
O809 Zn803 2.035 . S
O809 C811 1.258 . S
C810 O804 1.247 . S
C810 O805 1.258 . S
C811 O808 1.247 . S
C811 O809 1.258 . S
C812 O814 1.247 . S
C812 O816 1.258 . S
C813 O820 1.247 . S
C813 O821 1.258 . S
O814 C812 1.247 . S
O814 Zn815 2.028 . S
Zn815 O814 2.028 . S
Zn815 O819 2.035 . S
Zn815 O821 2.035 . S
Zn815 O822 2.028 . S
O816 C812 1.258 . S
O816 Zn817 2.035 . S
Zn817 O816 2.035 . S
Zn817 O818 2.028 . S
Zn817 O820 2.028 . S
Zn817 O823 2.035 . S
O818 Zn817 2.028 . S
O818 C824 1.247 . S
O819 Zn815 2.035 . S
O819 C824 1.258 . S
O820 C813 1.247 . S
O820 Zn817 2.028 . S
O821 C813 1.258 . S
O821 Zn815 2.035 . S
O822 Zn815 2.028 . S
O822 C825 1.247 . S
O823 Zn817 2.035 . S
O823 C825 1.258 . S
C824 O818 1.247 . S
C824 O819 1.258 . S
C825 O822 1.247 . S
C825 O823 1.258 . S
C826 O828 1.247 . S
C826 O830 1.258 . S
C827 O834 1.247 . S
C827 O835 1.258 . S
O828 C826 1.247 . S
O828 Zn829 2.028 . S
Zn829 O828 2.028 . S
Zn829 O833 2.035 . S
Zn829 O835 2.035 . S
Zn829 O836 2.028 . S
O830 C826 1.258 . S
O830 Zn831 2.035 . S
Zn831 O830 2.035 . S
Zn831 O832 2.028 . S
Zn831 O834 2.028 . S
Zn831 O837 2.035 . S
O832 Zn831 2.028 . S
O832 C838 1.247 . S
O833 Zn829 2.035 . S
O833 C838 1.258 . S
O834 C827 1.247 . S
O834 Zn831 2.028 . S
O835 C827 1.258 . S
O835 Zn829 2.035 . S
O836 Zn829 2.028 . S
O836 C839 1.247 . S
O837 Zn831 2.035 . S
O837 C839 1.258 . S
C838 O832 1.247 . S
C838 O833 1.258 . S
C839 O836 1.247 . S
C839 O837 1.258 . S
C840 O842 1.247 . S
C840 O844 1.258 . S
C841 O848 1.247 . S
C841 O849 1.258 . S
O842 C840 1.247 . S
O842 Zn843 2.028 . S
Zn843 O842 2.028 . S
Zn843 O847 2.035 . S
Zn843 O849 2.035 . S
Zn843 O850 2.028 . S
O844 C840 1.258 . S
O844 Zn845 2.035 . S
Zn845 O844 2.035 . S
Zn845 O846 2.028 . S
Zn845 O848 2.028 . S
Zn845 O851 2.035 . S
O846 Zn845 2.028 . S
O846 C852 1.247 . S
O847 Zn843 2.035 . S
O847 C852 1.258 . S
O848 C841 1.247 . S
O848 Zn845 2.028 . S
O849 C841 1.258 . S
O849 Zn843 2.035 . S
O850 Zn843 2.028 . S
O850 C853 1.247 . S
O851 Zn845 2.035 . S
O851 C853 1.258 . S
C852 O846 1.247 . S
C852 O847 1.258 . S
C853 O850 1.247 . S
C853 O851 1.258 . S
C854 O856 1.247 . S
C854 O858 1.258 . S
C855 O862 1.247 . S
C855 O863 1.258 . S
O856 C854 1.247 . S
O856 Zn857 2.028 . S
Zn857 O856 2.028 . S
Zn857 O861 2.035 . S
Zn857 O863 2.035 . S
Zn857 O864 2.028 . S
O858 C854 1.258 . S
O858 Zn859 2.035 . S
Zn859 O858 2.035 . S
Zn859 O860 2.028 . S
Zn859 O862 2.028 . S
Zn859 O865 2.035 . S
O860 Zn859 2.028 . S
O860 C866 1.247 . S
O861 Zn857 2.035 . S
O861 C866 1.258 . S
O862 C855 1.247 . S
O862 Zn859 2.028 . S
O863 C855 1.258 . S
O863 Zn857 2.035 . S
O864 Zn857 2.028 . S
O864 C867 1.247 . S
O865 Zn859 2.035 . S
O865 C867 1.258 . S
C866 O860 1.247 . S
C866 O861 1.258 . S
C867 O864 1.247 . S
C867 O865 1.258 . S
C868 O870 1.247 . S
C868 O872 1.258 . S
C869 O876 1.247 . S
C869 O877 1.258 . S
O870 C868 1.247 . S
O870 Zn871 2.028 . S
Zn871 O870 2.028 . S
Zn871 O875 2.035 . S
Zn871 O877 2.035 . S
Zn871 O878 2.028 . S
O872 C868 1.258 . S
O872 Zn873 2.035 . S
Zn873 O872 2.035 . S
Zn873 O874 2.028 . S
Zn873 O876 2.028 . S
Zn873 O879 2.035 . S
O874 Zn873 2.028 . S
O874 C880 1.247 . S
O875 Zn871 2.035 . S
O875 C880 1.258 . S
O876 C869 1.247 . S
O876 Zn873 2.028 . S
O877 C869 1.258 . S
O877 Zn871 2.035 . S
O878 Zn871 2.028 . S
O878 C881 1.247 . S
O879 Zn873 2.035 . S
O879 C881 1.258 . S
C880 O874 1.247 . S
C880 O875 1.258 . S
C881 O878 1.247 . S
C881 O879 1.258 . S
C882 O884 1.247 . S
C882 O886 1.258 . S
C883 O890 1.247 . S
C883 O891 1.258 . S
O884 C882 1.247 . S
O884 Zn885 2.028 . S
Zn885 O884 2.028 . S
Zn885 O889 2.035 . S
Zn885 O891 2.035 . S
Zn885 O892 2.028 . S
O886 C882 1.258 . S
O886 Zn887 2.035 . S
Zn887 O886 2.035 . S
Zn887 O888 2.028 . S
Zn887 O890 2.028 . S
Zn887 O893 2.035 . S
O888 Zn887 2.028 . S
O888 C894 1.247 . S
O889 Zn885 2.035 . S
O889 C894 1.258 . S
O890 C883 1.247 . S
O890 Zn887 2.028 . S
O891 C883 1.258 . S
O891 Zn885 2.035 . S
O892 Zn885 2.028 . S
O892 C895 1.247 . S
O893 Zn887 2.035 . S
O893 C895 1.258 . S
C894 O888 1.247 . S
C894 O889 1.258 . S
C895 O892 1.247 . S
C895 O893 1.258 . S
C896 O898 1.247 . S
C896 O900 1.258 . S
C897 O904 1.247 . S
C897 O905 1.258 . S
O898 C896 1.247 . S
O898 Zn899 2.028 . S
Zn899 O898 2.028 . S
Zn899 O903 2.035 . S
Zn899 O905 2.035 . S
Zn899 O906 2.028 . S
O900 C896 1.258 . S
O900 Zn901 2.035 . S
Zn901 O900 2.035 . S
Zn901 O902 2.028 . S
Zn901 O904 2.028 . S
Zn901 O907 2.035 . S
O902 Zn901 2.028 . S
O902 C908 1.247 . S
O903 Zn899 2.035 . S
O903 C908 1.258 . S
O904 C897 1.247 . S
O904 Zn901 2.028 . S
O905 C897 1.258 . S
O905 Zn899 2.035 . S
O906 Zn899 2.028 . S
O906 C909 1.247 . S
O907 Zn901 2.035 . S
O907 C909 1.258 . S
C908 O902 1.247 . S
C908 O903 1.258 . S
C909 O906 1.247 . S
C909 O907 1.258 . S
C910 O912 1.247 . S
C910 O914 1.258 . S
C911 O918 1.247 . S
C911 O919 1.258 . S
O912 C910 1.247 . S
O912 Zn913 2.028 . S
Zn913 O912 2.028 . S
Zn913 O917 2.035 . S
Zn913 O919 2.035 . S
Zn913 O920 2.028 . S
O914 C910 1.258 . S
O914 Zn915 2.035 . S
Zn915 O914 2.035 . S
Zn915 O916 2.028 . S
Zn915 O918 2.028 . S
Zn915 O921 2.035 . S
O916 Zn915 2.028 . S
O916 C922 1.247 . S
O917 Zn913 2.035 . S
O917 C922 1.258 . S
O918 C911 1.247 . S
O918 Zn915 2.028 . S
O919 C911 1.258 . S
O919 Zn913 2.035 . S
O920 Zn913 2.028 . S
O920 C923 1.247 . S
O921 Zn915 2.035 . S
O921 C923 1.258 . S
C922 O916 1.247 . S
C922 O917 1.258 . S
C923 O920 1.247 . S
C923 O921 1.258 . S
C924 O926 1.247 . S
C924 O928 1.258 . S
C925 O932 1.247 . S
C925 O933 1.258 . S
O926 C924 1.247 . S
O926 Zn927 2.028 . S
Zn927 O926 2.028 . S
Zn927 O931 2.035 . S
Zn927 O933 2.035 . S
Zn927 O934 2.028 . S
O928 C924 1.258 . S
O928 Zn929 2.035 . S
Zn929 O928 2.035 . S
Zn929 O930 2.028 . S
Zn929 O932 2.028 . S
Zn929 O935 2.035 . S
O930 Zn929 2.028 . S
O930 C936 1.247 . S
O931 Zn927 2.035 . S
O931 C936 1.258 . S
O932 C925 1.247 . S
O932 Zn929 2.028 . S
O933 C925 1.258 . S
O933 Zn927 2.035 . S
O934 Zn927 2.028 . S
O934 C937 1.247 . S
O935 Zn929 2.035 . S
O935 C937 1.258 . S
C936 O930 1.247 . S
C936 O931 1.258 . S
C937 O934 1.247 . S
C937 O935 1.258 . S
C938 O940 1.247 . S
C938 O942 1.258 . S
C939 O946 1.247 . S
C939 O947 1.258 . S
O940 C938 1.247 . S
O940 Zn941 2.028 1_554 S
Zn941 O940 2.028 1_556 S
Zn941 O945 2.035 . S
Zn941 O947 2.035 . S
Zn941 O948 1.984 1_556 S
O942 C938 1.258 . S
O942 Zn943 2.035 1_554 S
Zn943 O942 2.035 1_556 S
Zn943 O944 2.028 . S
Zn943 O946 2.028 . S
Zn943 O949 2.035 1_556 S
O944 Zn943 2.028 . S
O944 C950 1.247 . S
O945 Zn941 2.035 . S
O945 C950 1.258 . S
O946 C939 1.247 . S
O946 Zn943 2.028 . S
O947 C939 1.258 . S
O947 Zn941 2.035 . S
O948 Zn941 1.984 1_554 S
O948 C951 1.290 . S
O949 Zn943 2.035 1_554 S
O949 C951 1.258 . S
C950 O944 1.247 . S
C950 O945 1.258 . S
C951 O948 1.290 . S
C951 O949 1.258 . S
C952 O954 1.247 . S
C952 O956 1.258 . S
C953 O960 1.247 . S
C953 O961 1.258 . S
O954 C952 1.247 . S
O954 Zn955 2.028 . S
Zn955 O954 2.028 . S
Zn955 O959 2.035 . S
Zn955 O961 2.035 . S
Zn955 O962 2.028 . S
O956 C952 1.258 . S
O956 Zn957 2.035 . S
Zn957 O956 2.035 . S
Zn957 O958 2.028 . S
Zn957 O960 2.028 . S
Zn957 O963 2.035 . S
O958 Zn957 2.028 . S
O958 C964 1.247 . S
O959 Zn955 2.035 . S
O959 C964 1.258 . S
O960 C953 1.247 . S
O960 Zn957 2.028 . S
O961 C953 1.258 . S
O961 Zn955 2.035 . S
O962 Zn955 2.028 . S
O962 C965 1.247 . S
O963 Zn957 2.035 . S
O963 C965 1.258 . S
C964 O958 1.247 . S
C964 O959 1.258 . S
C965 O962 1.247 . S
C965 O963 1.258 . S
C966 O968 1.247 . S
C966 O970 1.258 . S
C967 O974 1.247 . S
C967 O975 1.258 . S
O968 C966 1.247 . S
O968 Zn969 2.028 1_556 S
Zn969 O968 2.028 1_554 S
Zn969 O973 2.035 . S
Zn969 O975 2.035 . S
Zn969 O976 1.984 1_554 S
O970 C966 1.258 . S
O970 Zn971 2.035 1_556 S
Zn971 O970 2.035 1_554 S
Zn971 O972 2.028 . S
Zn971 O974 2.028 . S
Zn971 O977 2.035 1_554 S
O972 Zn971 2.028 . S
O972 C978 1.247 . S
O973 Zn969 2.035 . S
O973 C978 1.258 . S
O974 C967 1.247 . S
O974 Zn971 2.028 . S
O975 C967 1.258 . S
O975 Zn969 2.035 . S
O976 Zn969 1.984 1_556 S
O976 C979 1.290 . S
O977 Zn971 2.035 1_556 S
O977 C979 1.258 . S
C978 O972 1.247 . S
C978 O973 1.258 . S
C979 O976 1.290 . S
C979 O977 1.258 . S
C980 O982 1.247 . S
C980 O984 1.258 . S
C981 O988 1.247 . S
C981 O989 1.258 . S
O982 C980 1.247 . S
O982 Zn983 2.028 . S
Zn983 O982 2.028 . S
Zn983 O987 2.035 . S
Zn983 O989 2.035 . S
Zn983 O990 2.028 . S
O984 C980 1.258 . S
O984 Zn985 2.035 . S
Zn985 O984 2.035 . S
Zn985 O986 2.028 . S
Zn985 O988 2.028 . S
Zn985 O991 2.035 . S
O986 Zn985 2.028 . S
O986 C992 1.247 . S
O987 Zn983 2.035 . S
O987 C992 1.258 . S
O988 C981 1.247 . S
O988 Zn985 2.028 . S
O989 C981 1.258 . S
O989 Zn983 2.035 . S
O990 Zn983 2.028 . S
O990 C993 1.247 . S
O991 Zn985 2.035 . S
O991 C993 1.258 . S
C992 O986 1.247 . S
C992 O987 1.258 . S
C993 O990 1.247 . S
C993 O991 1.258 . S
C994 O996 1.247 . S
C994 O998 1.258 . S
C995 O1002 1.247 . S
C995 O1003 1.258 . S
O996 C994 1.247 . S
O996 Zn997 2.028 . S
Zn997 O996 2.028 . S
Zn997 O1001 2.035 . S
Zn997 O1003 2.035 . S
Zn997 O1004 2.028 . S
O998 C994 1.258 . S
O998 Zn999 2.035 . S
Zn999 O998 2.035 . S
Zn999 O1000 2.028 . S
Zn999 O1002 2.028 . S
Zn999 O1005 2.035 . S
O1000 Zn999 2.028 . S
O1000 C1006 1.247 . S
O1001 Zn997 2.035 . S
O1001 C1006 1.258 . S
O1002 C995 1.247 . S
O1002 Zn999 2.028 . S
O1003 C995 1.258 . S
O1003 Zn997 2.035 . S
O1004 Zn997 2.028 . S
O1004 C1007 1.247 . S
O1005 Zn999 2.035 . S
O1005 C1007 1.258 . S
C1006 O1000 1.247 . S
C1006 O1001 1.258 . S
C1007 O1004 1.247 . S
C1007 O1005 1.258 . S
C1008 O1010 1.247 . S
C1008 O1012 1.258 . S
C1009 O1016 1.247 . S
C1009 O1017 1.258 . S
O1010 C1008 1.247 . S
O1010 Zn1011 2.028 . S
Zn1011 O1010 2.028 . S
Zn1011 O1015 2.035 . S
Zn1011 O1017 2.035 . S
Zn1011 O1018 2.028 . S
O1012 C1008 1.258 . S
O1012 Zn1013 2.035 . S
Zn1013 O1012 2.035 . S
Zn1013 O1014 2.028 . S
Zn1013 O1016 2.028 . S
Zn1013 O1019 2.035 . S
O1014 Zn1013 2.028 . S
O1014 C1020 1.247 . S
O1015 Zn1011 2.035 . S
O1015 C1020 1.258 . S
O1016 C1009 1.247 . S
O1016 Zn1013 2.028 . S
O1017 C1009 1.258 . S
O1017 Zn1011 2.035 . S
O1018 Zn1011 2.028 . S
O1018 C1021 1.247 . S
O1019 Zn1013 2.035 . S
O1019 C1021 1.258 . S
C1020 O1014 1.247 . S
C1020 O1015 1.258 . S
C1021 O1018 1.247 . S
C1021 O1019 1.258 . S
C1022 O1024 1.247 . S
C1022 O1026 1.258 . S
C1023 O1030 1.247 . S
C1023 O1031 1.258 . S
O1024 C1022 1.247 . S
O1024 Zn1025 2.028 . S
Zn1025 O1024 2.028 . S
Zn1025 O1029 2.035 . S
Zn1025 O1031 2.035 . S
Zn1025 O1032 2.028 . S
O1026 C1022 1.258 . S
O1026 Zn1027 2.035 . S
Zn1027 O1026 2.035 . S
Zn1027 O1028 2.028 . S
Zn1027 O1030 2.028 . S
Zn1027 O1033 2.035 . S
O1028 Zn1027 2.028 . S
O1028 C1034 1.247 . S
O1029 Zn1025 2.035 . S
O1029 C1034 1.258 . S
O1030 C1023 1.247 . S
O1030 Zn1027 2.028 . S
O1031 C1023 1.258 . S
O1031 Zn1025 2.035 . S
O1032 Zn1025 2.028 . S
O1032 C1035 1.247 . S
O1033 Zn1027 2.035 . S
O1033 C1035 1.258 . S
C1034 O1028 1.247 . S
C1034 O1029 1.258 . S
C1035 O1032 1.247 . S
C1035 O1033 1.258 . S
C1036 O1038 1.247 . S
C1036 O1040 1.258 . S
C1037 O1044 1.247 . S
C1037 O1045 1.258 . S
O1038 C1036 1.247 . S
O1038 Zn1039 2.028 1_655 S
Zn1039 O1038 2.028 1_455 S
Zn1039 O1043 2.035 . S
Zn1039 O1045 2.035 . S
Zn1039 O1046 2.028 1_455 S
O1040 C1036 1.258 . S
O1040 Zn1041 2.035 1_655 S
Zn1041 O1040 2.035 1_455 S
Zn1041 O1042 2.028 . S
Zn1041 O1044 2.028 . S
Zn1041 O1047 1.988 1_455 S
O1042 Zn1041 2.028 . S
O1042 C1048 1.247 . S
O1043 Zn1039 2.035 . S
O1043 C1048 1.258 . S
O1044 C1037 1.247 . S
O1044 Zn1041 2.028 . S
O1045 C1037 1.258 . S
O1045 Zn1039 2.035 . S
O1046 Zn1039 2.028 1_655 S
O1046 C1049 1.247 . S
O1047 Zn1041 1.988 1_655 S
O1047 C1049 1.303 . S
C1048 O1042 1.247 . S
C1048 O1043 1.258 . S
C1049 O1046 1.247 . S
C1049 O1047 1.303 . S
C1050 O1052 1.247 . S
C1050 O1054 1.258 . S
C1051 O1058 1.247 . S
C1051 O1059 1.258 . S
O1052 C1050 1.247 . S
O1052 Zn1053 2.028 . S
Zn1053 O1052 2.028 . S
Zn1053 O1057 2.035 . S
Zn1053 O1059 2.035 . S
Zn1053 O1060 2.028 . S
O1054 C1050 1.258 . S
O1054 Zn1055 2.035 . S
Zn1055 O1054 2.035 . S
Zn1055 O1056 2.028 . S
Zn1055 O1058 2.028 . S
Zn1055 O1061 2.035 . S
O1056 Zn1055 2.028 . S
O1056 C1062 1.247 . S
O1057 Zn1053 2.035 . S
O1057 C1062 1.258 . S
O1058 C1051 1.247 . S
O1058 Zn1055 2.028 . S
O1059 C1051 1.258 . S
O1059 Zn1053 2.035 . S
O1060 Zn1053 2.028 . S
O1060 C1063 1.247 . S
O1061 Zn1055 2.035 . S
O1061 C1063 1.258 . S
C1062 O1056 1.247 . S
C1062 O1057 1.258 . S
C1063 O1060 1.247 . S
C1063 O1061 1.258 . S
C1064 O1066 1.247 . S
C1064 O1068 1.258 . S
C1065 O1072 1.247 . S
C1065 O1073 1.258 . S
O1066 C1064 1.247 . S
O1066 Zn1067 2.028 . S
Zn1067 O1066 2.028 . S
Zn1067 O1071 2.035 . S
Zn1067 O1073 2.035 . S
Zn1067 O1074 2.028 . S
O1068 C1064 1.258 . S
O1068 Zn1069 2.035 . S
Zn1069 O1068 2.035 . S
Zn1069 O1070 2.028 . S
Zn1069 O1072 2.028 . S
Zn1069 O1075 2.035 . S
O1070 Zn1069 2.028 . S
O1070 C1076 1.247 . S
O1071 Zn1067 2.035 . S
O1071 C1076 1.258 . S
O1072 C1065 1.247 . S
O1072 Zn1069 2.028 . S
O1073 C1065 1.258 . S
O1073 Zn1067 2.035 . S
O1074 Zn1067 2.028 . S
O1074 C1077 1.247 . S
O1075 Zn1069 2.035 . S
O1075 C1077 1.258 . S
C1076 O1070 1.247 . S
C1076 O1071 1.258 . S
C1077 O1074 1.247 . S
C1077 O1075 1.258 . S
C1078 O1080 1.247 . S
C1078 O1082 1.258 . S
C1079 O1086 1.247 . S
C1079 O1087 1.258 . S
O1080 C1078 1.247 . S
O1080 Zn1081 2.028 . S
Zn1081 O1080 2.028 . S
Zn1081 O1085 2.035 . S
Zn1081 O1087 2.035 . S
Zn1081 O1088 2.028 . S
O1082 C1078 1.258 . S
O1082 Zn1083 2.035 . S
Zn1083 O1082 2.035 . S
Zn1083 O1084 2.028 . S
Zn1083 O1086 2.028 . S
Zn1083 O1089 2.035 . S
O1084 Zn1083 2.028 . S
O1084 C1090 1.247 . S
O1085 Zn1081 2.035 . S
O1085 C1090 1.258 . S
O1086 C1079 1.247 . S
O1086 Zn1083 2.028 . S
O1087 C1079 1.258 . S
O1087 Zn1081 2.035 . S
O1088 Zn1081 2.028 . S
O1088 C1091 1.247 . S
O1089 Zn1083 2.035 . S
O1089 C1091 1.258 . S
C1090 O1084 1.247 . S
C1090 O1085 1.258 . S
C1091 O1088 1.247 . S
C1091 O1089 1.258 . S
C1092 O1094 1.247 . S
C1092 O1096 1.258 . S
C1093 O1100 1.247 . S
C1093 O1101 1.258 . S
O1094 C1092 1.247 . S
O1094 Zn1095 2.028 1_655 S
Zn1095 O1094 2.028 1_455 S
Zn1095 O1099 2.035 . S
Zn1095 O1101 2.035 . S
Zn1095 O1102 2.028 1_455 S
O1096 C1092 1.258 . S
O1096 Zn1097 2.035 1_655 S
Zn1097 O1096 2.035 1_455 S
Zn1097 O1098 2.028 . S
Zn1097 O1100 2.028 . S
Zn1097 O1103 1.988 1_455 S
O1098 Zn1097 2.028 . S
O1098 C1104 1.247 . S
O1099 Zn1095 2.035 . S
O1099 C1104 1.258 . S
O1100 C1093 1.247 . S
O1100 Zn1097 2.028 . S
O1101 C1093 1.258 . S
O1101 Zn1095 2.035 . S
O1102 Zn1095 2.028 1_655 S
O1102 C1105 1.247 . S
O1103 Zn1097 1.988 1_655 S
O1103 C1105 1.303 . S
C1104 O1098 1.247 . S
C1104 O1099 1.258 . S
C1105 O1102 1.247 . S
C1105 O1103 1.303 . S
C1106 O1108 1.247 . S
C1106 O1110 1.258 . S
C1107 O1114 1.247 . S
C1107 O1115 1.258 . S
O1108 C1106 1.247 . S
O1108 Zn1109 2.028 . S
Zn1109 O1108 2.028 . S
Zn1109 O1113 2.035 . S
Zn1109 O1115 2.035 . S
Zn1109 O1116 2.028 . S
O1110 C1106 1.258 . S
O1110 Zn1111 2.035 . S
Zn1111 O1110 2.035 . S
Zn1111 O1112 2.028 . S
Zn1111 O1114 2.028 . S
Zn1111 O1117 2.035 . S
O1112 Zn1111 2.028 . S
O1112 C1118 1.247 . S
O1113 Zn1109 2.035 . S
O1113 C1118 1.258 . S
O1114 C1107 1.247 . S
O1114 Zn1111 2.028 . S
O1115 C1107 1.258 . S
O1115 Zn1109 2.035 . S
O1116 Zn1109 2.028 . S
O1116 C1119 1.247 . S
O1117 Zn1111 2.035 . S
O1117 C1119 1.258 . S
C1118 O1112 1.247 . S
C1118 O1113 1.258 . S
C1119 O1116 1.247 . S
C1119 O1117 1.258 . S
C1120 O1122 1.247 . S
C1120 O1124 1.258 . S
C1121 O1128 1.247 . S
C1121 O1129 1.258 . S
O1122 C1120 1.247 . S
O1122 Zn1123 2.028 . S
Zn1123 O1122 2.028 . S
Zn1123 O1127 2.035 . S
Zn1123 O1129 2.035 . S
Zn1123 O1130 2.028 . S
O1124 C1120 1.258 . S
O1124 Zn1125 2.035 . S
Zn1125 O1124 2.035 . S
Zn1125 O1126 2.028 . S
Zn1125 O1128 2.028 . S
Zn1125 O1131 2.035 . S
O1126 Zn1125 2.028 . S
O1126 C1132 1.247 . S
O1127 Zn1123 2.035 . S
O1127 C1132 1.258 . S
O1128 C1121 1.247 . S
O1128 Zn1125 2.028 . S
O1129 C1121 1.258 . S
O1129 Zn1123 2.035 . S
O1130 Zn1123 2.028 . S
O1130 C1133 1.247 . S
O1131 Zn1125 2.035 . S
O1131 C1133 1.258 . S
C1132 O1126 1.247 . S
C1132 O1127 1.258 . S
C1133 O1130 1.247 . S
C1133 O1131 1.258 . S
C1134 O1136 1.247 . S
C1134 O1138 1.258 . S
C1135 O1142 1.247 . S
C1135 O1143 1.258 . S
O1136 C1134 1.247 . S
O1136 Zn1137 2.028 . S
Zn1137 O1136 2.028 . S
Zn1137 O1141 2.035 . S
Zn1137 O1143 2.035 . S
Zn1137 O1144 2.028 . S
O1138 C1134 1.258 . S
O1138 Zn1139 2.035 . S
Zn1139 O1138 2.035 . S
Zn1139 O1140 2.028 . S
Zn1139 O1142 2.028 . S
Zn1139 O1145 2.035 . S
O1140 Zn1139 2.028 . S
O1140 C1146 1.247 . S
O1141 Zn1137 2.035 . S
O1141 C1146 1.258 . S
O1142 C1135 1.247 . S
O1142 Zn1139 2.028 . S
O1143 C1135 1.258 . S
O1143 Zn1137 2.035 . S
O1144 Zn1137 2.028 . S
O1144 C1147 1.247 . S
O1145 Zn1139 2.035 . S
O1145 C1147 1.258 . S
C1146 O1140 1.247 . S
C1146 O1141 1.258 . S
C1147 O1144 1.247 . S
C1147 O1145 1.258 . S
C1148 O1150 1.247 . S
C1148 O1152 1.258 . S
C1149 O1156 1.247 . S
C1149 O1157 1.258 . S
O1150 C1148 1.247 . S
O1150 Zn1151 2.028 . S
Zn1151 O1150 2.028 . S
Zn1151 O1155 2.035 . S
Zn1151 O1157 2.035 . S
Zn1151 O1158 2.028 . S
O1152 C1148 1.258 . S
O1152 Zn1153 2.035 . S
Zn1153 O1152 2.035 . S
Zn1153 O1154 2.028 . S
Zn1153 O1156 2.028 . S
Zn1153 O1159 2.035 . S
O1154 Zn1153 2.028 . S
O1154 C1160 1.247 . S
O1155 Zn1151 2.035 . S
O1155 C1160 1.258 . S
O1156 C1149 1.247 . S
O1156 Zn1153 2.028 . S
O1157 C1149 1.258 . S
O1157 Zn1151 2.035 . S
O1158 Zn1151 2.028 . S
O1158 C1161 1.247 . S
O1159 Zn1153 2.035 . S
O1159 C1161 1.258 . S
C1160 O1154 1.247 . S
C1160 O1155 1.258 . S
C1161 O1158 1.247 . S
C1161 O1159 1.258 . S
C1162 O1164 1.247 . S
C1162 O1166 1.258 . S
C1163 O1170 1.247 . S
C1163 O1171 1.258 . S
O1164 C1162 1.247 . S
O1164 Zn1165 2.028 . S
Zn1165 O1164 2.028 . S
Zn1165 O1169 2.035 . S
Zn1165 O1171 2.035 . S
Zn1165 O1172 2.028 . S
O1166 C1162 1.258 . S
O1166 Zn1167 2.035 . S
Zn1167 O1166 2.035 . S
Zn1167 O1168 2.028 . S
Zn1167 O1170 2.028 . S
Zn1167 O1173 2.035 . S
O1168 Zn1167 2.028 . S
O1168 C1174 1.247 . S
O1169 Zn1165 2.035 . S
O1169 C1174 1.258 . S
O1170 C1163 1.247 . S
O1170 Zn1167 2.028 . S
O1171 C1163 1.258 . S
O1171 Zn1165 2.035 . S
O1172 Zn1165 2.028 . S
O1172 C1175 1.247 . S
O1173 Zn1167 2.035 . S
O1173 C1175 1.258 . S
C1174 O1168 1.247 . S
C1174 O1169 1.258 . S
C1175 O1172 1.247 . S
C1175 O1173 1.258 . S
C1176 O1178 1.247 . S
C1176 O1180 1.258 . S
C1177 O1184 1.247 . S
C1177 O1185 1.258 . S
O1178 C1176 1.247 . S
O1178 Zn1179 2.028 . S
Zn1179 O1178 2.028 . S
Zn1179 O1183 2.035 . S
Zn1179 O1185 2.035 . S
Zn1179 O1186 2.028 . S
O1180 C1176 1.258 . S
O1180 Zn1181 2.035 . S
Zn1181 O1180 2.035 . S
Zn1181 O1182 2.028 . S
Zn1181 O1184 2.028 . S
Zn1181 O1187 2.035 . S
O1182 Zn1181 2.028 . S
O1182 C1188 1.247 . S
O1183 Zn1179 2.035 . S
O1183 C1188 1.258 . S
O1184 C1177 1.247 . S
O1184 Zn1181 2.028 . S
O1185 C1177 1.258 . S
O1185 Zn1179 2.035 . S
O1186 Zn1179 2.028 . S
O1186 C1189 1.247 . S
O1187 Zn1181 2.035 . S
O1187 C1189 1.258 . S
C1188 O1182 1.247 . S
C1188 O1183 1.258 . S
C1189 O1186 1.247 . S
C1189 O1187 1.258 . S
C1190 O1192 1.247 . S
C1190 O1194 1.258 . S
C1191 O1198 1.247 . S
C1191 O1199 1.258 . S
O1192 C1190 1.247 . S
O1192 Zn1193 2.028 . S
Zn1193 O1192 2.028 . S
Zn1193 O1197 2.035 . S
Zn1193 O1199 2.035 . S
Zn1193 O1200 2.028 . S
O1194 C1190 1.258 . S
O1194 Zn1195 2.035 . S
Zn1195 O1194 2.035 . S
Zn1195 O1196 2.028 . S
Zn1195 O1198 2.028 . S
Zn1195 O1201 2.035 . S
O1196 Zn1195 2.028 . S
O1196 C1202 1.247 . S
O1197 Zn1193 2.035 . S
O1197 C1202 1.258 . S
O1198 C1191 1.247 . S
O1198 Zn1195 2.028 . S
O1199 C1191 1.258 . S
O1199 Zn1193 2.035 . S
O1200 Zn1193 2.028 . S
O1200 C1203 1.247 . S
O1201 Zn1195 2.035 . S
O1201 C1203 1.258 . S
C1202 O1196 1.247 . S
C1202 O1197 1.258 . S
C1203 O1200 1.247 . S
C1203 O1201 1.258 . S
C1204 O1206 1.247 . S
C1204 O1208 1.258 . S
C1205 O1212 1.247 . S
C1205 O1213 1.258 . S
O1206 C1204 1.247 . S
O1206 Zn1207 2.028 . S
Zn1207 O1206 2.028 . S
Zn1207 O1211 2.035 . S
Zn1207 O1213 2.035 . S
Zn1207 O1214 2.028 . S
O1208 C1204 1.258 . S
O1208 Zn1209 2.035 . S
Zn1209 O1208 2.035 . S
Zn1209 O1210 2.028 . S
Zn1209 O1212 2.028 . S
Zn1209 O1215 2.035 . S
O1210 Zn1209 2.028 . S
O1210 C1216 1.247 . S
O1211 Zn1207 2.035 . S
O1211 C1216 1.258 . S
O1212 C1205 1.247 . S
O1212 Zn1209 2.028 . S
O1213 C1205 1.258 . S
O1213 Zn1207 2.035 . S
O1214 Zn1207 2.028 . S
O1214 C1217 1.247 . S
O1215 Zn1209 2.035 . S
O1215 C1217 1.258 . S
C1216 O1210 1.247 . S
C1216 O1211 1.258 . S
C1217 O1214 1.247 . S
C1217 O1215 1.258 . S
C1218 O1220 1.247 . S
C1218 O1222 1.258 . S
C1219 O1226 1.247 . S
C1219 O1227 1.258 . S
O1220 C1218 1.247 . S
O1220 Zn1221 2.028 . S
Zn1221 O1220 2.028 . S
Zn1221 O1225 2.035 . S
Zn1221 O1227 2.035 . S
Zn1221 O1228 2.028 . S
O1222 C1218 1.258 . S
O1222 Zn1223 2.035 . S
Zn1223 O1222 2.035 . S
Zn1223 O1224 2.028 . S
Zn1223 O1226 2.028 . S
Zn1223 O1229 2.035 . S
O1224 Zn1223 2.028 . S
O1224 C1230 1.247 . S
O1225 Zn1221 2.035 . S
O1225 C1230 1.258 . S
O1226 C1219 1.247 . S
O1226 Zn1223 2.028 . S
O1227 C1219 1.258 . S
O1227 Zn1221 2.035 . S
O1228 Zn1221 2.028 . S
O1228 C1231 1.247 . S
O1229 Zn1223 2.035 . S
O1229 C1231 1.258 . S
C1230 O1224 1.247 . S
C1230 O1225 1.258 . S
C1231 O1228 1.247 . S
C1231 O1229 1.258 . S
C1232 O1234 1.247 . S
C1232 O1236 1.258 . S
C1233 O1240 1.247 . S
C1233 O1241 1.258 . S
O1234 C1232 1.247 . S
O1234 Zn1235 2.028 . S
Zn1235 O1234 2.028 . S
Zn1235 O1239 2.035 . S
Zn1235 O1241 2.035 . S
Zn1235 O1242 2.028 . S
O1236 C1232 1.258 . S
O1236 Zn1237 2.035 . S
Zn1237 O1236 2.035 . S
Zn1237 O1238 2.028 . S
Zn1237 O1240 2.028 . S
Zn1237 O1243 2.035 . S
O1238 Zn1237 2.028 . S
O1238 C1244 1.247 . S
O1239 Zn1235 2.035 . S
O1239 C1244 1.258 . S
O1240 C1233 1.247 . S
O1240 Zn1237 2.028 . S
O1241 C1233 1.258 . S
O1241 Zn1235 2.035 . S
O1242 Zn1235 2.028 . S
O1242 C1245 1.247 . S
O1243 Zn1237 2.035 . S
O1243 C1245 1.258 . S
C1244 O1238 1.247 . S
C1244 O1239 1.258 . S
C1245 O1242 1.247 . S
C1245 O1243 1.258 . S
C1246 O1248 1.247 . S
C1246 O1250 1.258 . S
C1247 O1254 1.247 . S
C1247 O1255 1.258 . S
O1248 C1246 1.247 . S
O1248 Zn1249 2.028 . S
Zn1249 O1248 2.028 . S
Zn1249 O1253 2.035 . S
Zn1249 O1255 2.035 . S
Zn1249 O1256 2.028 . S
O1250 C1246 1.258 . S
O1250 Zn1251 2.035 . S
Zn1251 O1250 2.035 . S
Zn1251 O1252 2.028 . S
Zn1251 O1254 2.028 . S
Zn1251 O1257 2.035 . S
O1252 Zn1251 2.028 . S
O1252 C1258 1.247 . S
O1253 Zn1249 2.035 . S
O1253 C1258 1.258 . S
O1254 C1247 1.247 . S
O1254 Zn1251 2.028 . S
O1255 C1247 1.258 . S
O1255 Zn1249 2.035 . S
O1256 Zn1249 2.028 . S
O1256 C1259 1.247 . S
O1257 Zn1251 2.035 . S
O1257 C1259 1.258 . S
C1258 O1252 1.247 . S
C1258 O1253 1.258 . S
C1259 O1256 1.247 . S
C1259 O1257 1.258 . S
C1260 O1262 1.247 . S
C1260 O1264 1.258 . S
C1261 O1268 1.247 . S
C1261 O1269 1.258 . S
O1262 C1260 1.247 . S
O1262 Zn1263 2.028 . S
Zn1263 O1262 2.028 . S
Zn1263 O1267 2.035 . S
Zn1263 O1269 2.035 . S
Zn1263 O1270 2.028 . S
O1264 C1260 1.258 . S
O1264 Zn1265 2.035 . S
Zn1265 O1264 2.035 . S
Zn1265 O1266 2.028 . S
Zn1265 O1268 2.028 . S
Zn1265 O1271 2.035 . S
O1266 Zn1265 2.028 . S
O1266 C1272 1.247 . S
O1267 Zn1263 2.035 . S
O1267 C1272 1.258 . S
O1268 C1261 1.247 . S
O1268 Zn1265 2.028 . S
O1269 C1261 1.258 . S
O1269 Zn1263 2.035 . S
O1270 Zn1263 2.028 . S
O1270 C1273 1.247 . S
O1271 Zn1265 2.035 . S
O1271 C1273 1.258 . S
C1272 O1266 1.247 . S
C1272 O1267 1.258 . S
C1273 O1270 1.247 . S
C1273 O1271 1.258 . S
C1274 O1276 1.247 . S
C1274 O1278 1.258 . S
C1275 O1282 1.247 . S
C1275 O1283 1.258 . S
O1276 C1274 1.247 . S
O1276 Zn1277 2.028 . S
Zn1277 O1276 2.028 . S
Zn1277 O1281 2.035 1_554 S
Zn1277 O1283 2.035 1_554 S
Zn1277 O1284 2.028 . S
O1278 C1274 1.258 . S
O1278 Zn1279 2.035 . S
Zn1279 O1278 2.035 . S
Zn1279 O1280 1.984 1_554 S
Zn1279 O1282 2.028 1_554 S
Zn1279 O1285 2.035 . S
O1280 Zn1279 1.984 1_556 S
O1280 C1286 1.290 . S
O1281 Zn1277 2.035 1_556 S
O1281 C1286 1.258 . S
O1282 C1275 1.247 . S
O1282 Zn1279 2.028 1_556 S
O1283 C1275 1.258 . S
O1283 Zn1277 2.035 1_556 S
O1284 Zn1277 2.028 . S
O1284 C1287 1.247 . S
O1285 Zn1279 2.035 . S
O1285 C1287 1.258 . S
C1286 O1280 1.290 . S
C1286 O1281 1.258 . S
C1287 O1284 1.247 . S
C1287 O1285 1.258 . S
C1288 O1290 1.247 . S
C1288 O1292 1.258 . S
C1289 O1296 1.247 . S
C1289 O1297 1.258 . S
O1290 C1288 1.247 . S
O1290 Zn1291 2.028 . S
Zn1291 O1290 2.028 . S
Zn1291 O1295 2.035 . S
Zn1291 O1297 2.035 . S
Zn1291 O1298 2.028 . S
O1292 C1288 1.258 . S
O1292 Zn1293 2.035 . S
Zn1293 O1292 2.035 . S
Zn1293 O1294 2.028 . S
Zn1293 O1296 2.028 . S
Zn1293 O1299 2.035 . S
O1294 Zn1293 2.028 . S
O1294 C1300 1.247 . S
O1295 Zn1291 2.035 . S
O1295 C1300 1.258 . S
O1296 C1289 1.247 . S
O1296 Zn1293 2.028 . S
O1297 C1289 1.258 . S
O1297 Zn1291 2.035 . S
O1298 Zn1291 2.028 . S
O1298 C1301 1.247 . S
O1299 Zn1293 2.035 . S
O1299 C1301 1.258 . S
C1300 O1294 1.247 . S
C1300 O1295 1.258 . S
C1301 O1298 1.247 . S
C1301 O1299 1.258 . S
C1302 O1304 1.247 . S
C1302 O1306 1.258 . S
C1303 O1310 1.247 . S
C1303 O1311 1.258 . S
O1304 C1302 1.247 . S
O1304 Zn1305 2.028 . S
Zn1305 O1304 2.028 . S
Zn1305 O1309 2.035 1_556 S
Zn1305 O1311 2.035 1_556 S
Zn1305 O1312 2.028 . S
O1306 C1302 1.258 . S
O1306 Zn1307 2.035 . S
Zn1307 O1306 2.035 . S
Zn1307 O1308 1.984 1_556 S
Zn1307 O1310 2.028 1_556 S
Zn1307 O1313 2.035 . S
O1308 Zn1307 1.984 1_554 S
O1308 C1314 1.290 . S
O1309 Zn1305 2.035 1_554 S
O1309 C1314 1.258 . S
O1310 C1303 1.247 . S
O1310 Zn1307 2.028 1_554 S
O1311 C1303 1.258 . S
O1311 Zn1305 2.035 1_554 S
O1312 Zn1305 2.028 . S
O1312 C1315 1.247 . S
O1313 Zn1307 2.035 . S
O1313 C1315 1.258 . S
C1314 O1308 1.290 . S
C1314 O1309 1.258 . S
C1315 O1312 1.247 . S
C1315 O1313 1.258 . S
C1316 O1318 1.247 . S
C1316 O1320 1.258 . S
C1317 O1324 1.247 . S
C1317 O1325 1.258 . S
O1318 C1316 1.247 . S
O1318 Zn1319 2.028 . S
Zn1319 O1318 2.028 . S
Zn1319 O1323 2.035 . S
Zn1319 O1325 2.035 . S
Zn1319 O1326 2.028 . S
O1320 C1316 1.258 . S
O1320 Zn1321 2.035 . S
Zn1321 O1320 2.035 . S
Zn1321 O1322 2.028 . S
Zn1321 O1324 2.028 . S
Zn1321 O1327 2.035 . S
O1322 Zn1321 2.028 . S
O1322 C1328 1.247 . S
O1323 Zn1319 2.035 . S
O1323 C1328 1.258 . S
O1324 C1317 1.247 . S
O1324 Zn1321 2.028 . S
O1325 C1317 1.258 . S
O1325 Zn1319 2.035 . S
O1326 Zn1319 2.028 . S
O1326 C1329 1.247 . S
O1327 Zn1321 2.035 . S
O1327 C1329 1.258 . S
C1328 O1322 1.247 . S
C1328 O1323 1.258 . S
C1329 O1326 1.247 . S
C1329 O1327 1.258 . S
C1330 O1332 1.247 . S
C1330 O1334 1.258 . S
C1331 O1338 1.247 . S
C1331 O1339 1.258 . S
O1332 C1330 1.247 . S
O1332 Zn1333 2.028 . S
Zn1333 O1332 2.028 . S
Zn1333 O1337 2.035 . S
Zn1333 O1339 2.035 . S
Zn1333 O1340 2.028 . S
O1334 C1330 1.258 . S
O1334 Zn1335 2.035 . S
Zn1335 O1334 2.035 . S
Zn1335 O1336 2.028 . S
Zn1335 O1338 2.028 . S
Zn1335 O1341 2.035 . S
O1336 Zn1335 2.028 . S
O1336 C1342 1.247 . S
O1337 Zn1333 2.035 . S
O1337 C1342 1.258 . S
O1338 C1331 1.247 . S
O1338 Zn1335 2.028 . S
O1339 C1331 1.258 . S
O1339 Zn1333 2.035 . S
O1340 Zn1333 2.028 . S
O1340 C1343 1.247 . S
O1341 Zn1335 2.035 . S
O1341 C1343 1.258 . S
C1342 O1336 1.247 . S
C1342 O1337 1.258 . S
C1343 O1340 1.247 . S
C1343 O1341 1.258 . S
H1344 C1350 0.930 . S
H1345 C1354 0.930 . S
H1346 C1359 0.929 . S
H1347 C1357 0.929 . S
H1348 C1352 0.929 . S
H1349 C1358 0.929 . S
C1350 H1344 0.930 . S
C1350 C1351 1.367 . S
C1350 C1358 1.378 . S
C1351 C1350 1.367 . S
C1351 C1359 1.433 . S
C1352 H1348 0.929 . S
C1352 C1354 1.378 . S
C1352 C1356 1.350 . S
C1353 C1356 1.463 . S
C1353 C1358 1.350 . S
C1353 N1361 1.427 . S
C1354 H1345 0.930 . S
C1354 C1352 1.378 . S
C1354 C1355 1.367 . S
C1355 C1354 1.367 . S
C1355 C1357 1.433 . S
C1356 C1352 1.350 . S
C1356 C1353 1.463 . S
C1356 N1360 1.427 . S
C1357 H1347 0.929 . S
C1357 C1355 1.433 . S
C1357 N1360 1.384 . S
C1358 H1349 0.929 . S
C1358 C1350 1.378 . S
C1358 C1353 1.350 . S
C1359 H1346 0.929 . S
C1359 C1351 1.433 . S
C1359 N1361 1.384 . S
N1360 C1356 1.427 . S
N1360 C1357 1.384 . S
N1361 C1353 1.427 . S
N1361 C1359 1.384 . S
H1362 C1368 0.930 . S
H1363 C1372 0.930 . S
H1364 C1377 0.929 . S
H1365 C1375 0.929 . S
H1366 C1370 0.929 . S
H1367 C1376 0.929 . S
C1368 H1362 0.930 . S
C1368 C1369 1.367 . S
C1368 C1376 1.378 . S
C1369 C1368 1.367 . S
C1369 C1377 1.433 . S
C1370 H1366 0.929 . S
C1370 C1372 1.378 . S
C1370 C1374 1.350 . S
C1371 C1374 1.463 . S
C1371 C1376 1.350 . S
C1371 N1379 1.427 . S
C1372 H1363 0.930 . S
C1372 C1370 1.378 . S
C1372 C1373 1.367 . S
C1373 C1372 1.367 . S
C1373 C1375 1.433 . S
C1374 C1370 1.350 . S
C1374 C1371 1.463 . S
C1374 N1378 1.427 . S
C1375 H1365 0.929 . S
C1375 C1373 1.433 . S
C1375 N1378 1.384 . S
C1376 H1367 0.929 . S
C1376 C1368 1.378 . S
C1376 C1371 1.350 . S
C1377 H1364 0.929 . S
C1377 C1369 1.433 . S
C1377 N1379 1.384 . S
N1378 C1374 1.427 . S
N1378 C1375 1.384 . S
N1379 C1371 1.427 . S
N1379 C1377 1.384 . S
H1380 C1386 0.930 . S
H1381 C1390 0.930 . S
H1382 C1395 0.929 . S
H1383 C1393 0.929 . S
H1384 C1388 0.929 . S
H1385 C1394 0.929 . S
C1386 H1380 0.930 . S
C1386 C1387 1.367 . S
C1386 C1394 1.378 . S
C1387 C1386 1.367 . S
C1387 C1395 1.433 . S
C1388 H1384 0.929 . S
C1388 C1390 1.378 . S
C1388 C1392 1.350 . S
C1389 C1392 1.463 . S
C1389 C1394 1.350 . S
C1389 N1397 1.427 . S
C1390 H1381 0.930 . S
C1390 C1388 1.378 . S
C1390 C1391 1.367 . S
C1391 C1390 1.367 . S
C1391 C1393 1.433 . S
C1392 C1388 1.350 . S
C1392 C1389 1.463 . S
C1392 N1396 1.427 . S
C1393 H1383 0.929 . S
C1393 C1391 1.433 . S
C1393 N1396 1.384 . S
C1394 H1385 0.929 . S
C1394 C1386 1.378 . S
C1394 C1389 1.350 . S
C1395 H1382 0.929 . S
C1395 C1387 1.433 . S
C1395 N1397 1.384 . S
N1396 C1392 1.427 . S
N1396 C1393 1.384 . S
N1397 C1389 1.427 . S
N1397 C1395 1.384 . S
H1398 C1404 0.930 . S
H1399 C1408 0.930 . S
H1400 C1413 0.929 . S
H1401 C1411 0.929 . S
H1402 C1406 0.929 . S
H1403 C1412 0.929 . S
C1404 H1398 0.930 . S
C1404 C1405 1.367 . S
C1404 C1412 1.378 . S
C1405 C1404 1.367 . S
C1405 C1413 1.433 . S
C1406 H1402 0.929 . S
C1406 C1408 1.378 . S
C1406 C1410 1.350 . S
C1407 C1410 1.463 . S
C1407 C1412 1.350 . S
C1407 N1415 1.427 . S
C1408 H1399 0.930 . S
C1408 C1406 1.378 . S
C1408 C1409 1.367 . S
C1409 C1408 1.367 . S
C1409 C1411 1.433 . S
C1410 C1406 1.350 . S
C1410 C1407 1.463 . S
C1410 N1414 1.427 . S
C1411 H1401 0.929 . S
C1411 C1409 1.433 . S
C1411 N1414 1.384 . S
C1412 H1403 0.929 . S
C1412 C1404 1.378 . S
C1412 C1407 1.350 . S
C1413 H1400 0.929 . S
C1413 C1405 1.433 . S
C1413 N1415 1.384 . S
N1414 C1410 1.427 . S
N1414 C1411 1.384 . S
N1415 C1407 1.427 . S
N1415 C1413 1.384 . S
H1416 C1422 0.930 . S
H1417 C1426 0.930 . S
H1418 C1431 0.929 . S
H1419 C1429 0.929 . S
H1420 C1424 0.929 . S
H1421 C1430 0.929 . S
C1422 H1416 0.930 . S
C1422 C1423 1.367 . S
C1422 C1430 1.378 . S
C1423 C1422 1.367 . S
C1423 C1431 1.433 . S
C1424 H1420 0.929 . S
C1424 C1426 1.378 . S
C1424 C1428 1.350 . S
C1425 C1428 1.463 . S
C1425 C1430 1.350 . S
C1425 N1433 1.427 . S
C1426 H1417 0.930 . S
C1426 C1424 1.378 . S
C1426 C1427 1.367 . S
C1427 C1426 1.367 . S
C1427 C1429 1.433 . S
C1428 C1424 1.350 . S
C1428 C1425 1.463 . S
C1428 N1432 1.427 . S
C1429 H1419 0.929 . S
C1429 C1427 1.433 . S
C1429 N1432 1.384 . S
C1430 H1421 0.929 . S
C1430 C1422 1.378 . S
C1430 C1425 1.350 . S
C1431 H1418 0.929 . S
C1431 C1423 1.433 . S
C1431 N1433 1.384 . S
N1432 C1428 1.427 . S
N1432 C1429 1.384 . S
N1433 C1425 1.427 . S
N1433 C1431 1.384 . S
H1434 C1440 0.930 . S
H1435 C1444 0.930 . S
H1436 C1449 0.929 . S
H1437 C1447 0.929 . S
H1438 C1442 0.929 . S
H1439 C1448 0.929 . S
C1440 H1434 0.930 . S
C1440 C1441 1.367 . S
C1440 C1448 1.378 . S
C1441 C1440 1.367 . S
C1441 C1449 1.433 . S
C1442 H1438 0.929 . S
C1442 C1444 1.378 . S
C1442 C1446 1.350 . S
C1443 C1446 1.463 . S
C1443 C1448 1.350 . S
C1443 N1451 1.427 . S
C1444 H1435 0.930 . S
C1444 C1442 1.378 . S
C1444 C1445 1.367 . S
C1445 C1444 1.367 . S
C1445 C1447 1.433 . S
C1446 C1442 1.350 . S
C1446 C1443 1.463 . S
C1446 N1450 1.427 . S
C1447 H1437 0.929 . S
C1447 C1445 1.433 . S
C1447 N1450 1.384 . S
C1448 H1439 0.929 . S
C1448 C1440 1.378 . S
C1448 C1443 1.350 . S
C1449 H1436 0.929 . S
C1449 C1441 1.433 . S
C1449 N1451 1.384 . S
N1450 C1446 1.427 . S
N1450 C1447 1.384 . S
N1451 C1443 1.427 . S
N1451 C1449 1.384 . S
H1452 C1458 0.930 . S
H1453 C1462 0.930 . S
H1454 C1467 0.929 . S
H1455 C1465 0.929 . S
H1456 C1460 0.929 . S
H1457 C1466 0.929 . S
C1458 H1452 0.930 . S
C1458 C1459 1.367 . S
C1458 C1466 1.378 . S
C1459 C1458 1.367 . S
C1459 C1467 1.433 . S
C1460 H1456 0.929 . S
C1460 C1462 1.378 . S
C1460 C1464 1.350 . S
C1461 C1464 1.463 . S
C1461 C1466 1.350 . S
C1461 N1469 1.427 . S
C1462 H1453 0.930 . S
C1462 C1460 1.378 . S
C1462 C1463 1.367 . S
C1463 C1462 1.367 . S
C1463 C1465 1.433 . S
C1464 C1460 1.350 . S
C1464 C1461 1.463 . S
C1464 N1468 1.427 . S
C1465 H1455 0.929 . S
C1465 C1463 1.433 . S
C1465 N1468 1.384 . S
C1466 H1457 0.929 . S
C1466 C1458 1.378 . S
C1466 C1461 1.350 . S
C1467 H1454 0.929 . S
C1467 C1459 1.433 . S
C1467 N1469 1.384 . S
N1468 C1464 1.427 . S
N1468 C1465 1.384 . S
N1469 C1461 1.427 . S
N1469 C1467 1.384 . S
H1470 C1476 0.930 . S
H1471 C1480 0.930 . S
H1472 C1485 0.929 . S
H1473 C1483 0.929 . S
H1474 C1478 0.929 . S
H1475 C1484 0.929 . S
C1476 H1470 0.930 . S
C1476 C1477 1.367 . S
C1476 C1484 1.378 . S
C1477 C1476 1.367 . S
C1477 C1485 1.433 . S
C1478 H1474 0.929 . S
C1478 C1480 1.378 . S
C1478 C1482 1.350 . S
C1479 C1482 1.463 . S
C1479 C1484 1.350 . S
C1479 N1487 1.427 . S
C1480 H1471 0.930 . S
C1480 C1478 1.378 . S
C1480 C1481 1.367 . S
C1481 C1480 1.367 . S
C1481 C1483 1.433 . S
C1482 C1478 1.350 . S
C1482 C1479 1.463 . S
C1482 N1486 1.427 . S
C1483 H1473 0.929 . S
C1483 C1481 1.433 . S
C1483 N1486 1.384 . S
C1484 H1475 0.929 . S
C1484 C1476 1.378 . S
C1484 C1479 1.350 . S
C1485 H1472 0.929 . S
C1485 C1477 1.433 . S
C1485 N1487 1.384 . S
N1486 C1482 1.427 . S
N1486 C1483 1.384 . S
N1487 C1479 1.427 . S
N1487 C1485 1.384 . S
H1488 C1494 0.930 . S
H1489 C1498 0.930 . S
H1490 C1503 0.929 . S
H1491 C1501 0.929 . S
H1492 C1496 0.929 . S
H1493 C1502 0.929 . S
C1494 H1488 0.930 . S
C1494 C1495 1.367 . S
C1494 C1502 1.378 . S
C1495 C1494 1.367 . S
C1495 C1503 1.433 . S
C1496 H1492 0.929 . S
C1496 C1498 1.378 . S
C1496 C1500 1.350 . S
C1497 C1500 1.463 . S
C1497 C1502 1.350 . S
C1497 N1505 1.427 . S
C1498 H1489 0.930 . S
C1498 C1496 1.378 . S
C1498 C1499 1.367 . S
C1499 C1498 1.367 . S
C1499 C1501 1.433 . S
C1500 C1496 1.350 . S
C1500 C1497 1.463 . S
C1500 N1504 1.427 . S
C1501 H1491 0.929 . S
C1501 C1499 1.433 . S
C1501 N1504 1.384 . S
C1502 H1493 0.929 . S
C1502 C1494 1.378 . S
C1502 C1497 1.350 . S
C1503 H1490 0.929 . S
C1503 C1495 1.433 . S
C1503 N1505 1.384 . S
N1504 C1500 1.427 . S
N1504 C1501 1.384 . S
N1505 C1497 1.427 . S
N1505 C1503 1.384 . S
H1506 C1512 0.930 . S
H1507 C1516 0.930 . S
H1508 C1521 0.929 . S
H1509 C1519 0.929 . S
H1510 C1514 0.929 . S
H1511 C1520 0.929 . S
C1512 H1506 0.930 . S
C1512 C1513 1.367 . S
C1512 C1520 1.378 . S
C1513 C1512 1.367 . S
C1513 C1521 1.433 . S
C1514 H1510 0.929 . S
C1514 C1516 1.378 . S
C1514 C1518 1.350 . S
C1515 C1518 1.463 . S
C1515 C1520 1.350 . S
C1515 N1523 1.427 . S
C1516 H1507 0.930 . S
C1516 C1514 1.378 . S
C1516 C1517 1.367 . S
C1517 C1516 1.367 . S
C1517 C1519 1.433 . S
C1518 C1514 1.350 . S
C1518 C1515 1.463 . S
C1518 N1522 1.427 . S
C1519 H1509 0.929 . S
C1519 C1517 1.433 . S
C1519 N1522 1.384 . S
C1520 H1511 0.929 . S
C1520 C1512 1.378 . S
C1520 C1515 1.350 . S
C1521 H1508 0.929 . S
C1521 C1513 1.433 . S
C1521 N1523 1.384 . S
N1522 C1518 1.427 . S
N1522 C1519 1.384 . S
N1523 C1515 1.427 . S
N1523 C1521 1.384 . S
H1524 C1530 0.930 . S
H1525 C1534 0.930 . S
H1526 C1539 0.929 . S
H1527 C1537 0.929 . S
H1528 C1532 0.929 . S
H1529 C1538 0.929 . S
C1530 H1524 0.930 . S
C1530 C1531 1.367 . S
C1530 C1538 1.378 . S
C1531 C1530 1.367 . S
C1531 C1539 1.433 . S
C1532 H1528 0.929 . S
C1532 C1534 1.378 . S
C1532 C1536 1.350 . S
C1533 C1536 1.463 . S
C1533 C1538 1.350 . S
C1533 N1541 1.427 . S
C1534 H1525 0.930 . S
C1534 C1532 1.378 . S
C1534 C1535 1.367 . S
C1535 C1534 1.367 . S
C1535 C1537 1.433 . S
C1536 C1532 1.350 . S
C1536 C1533 1.463 . S
C1536 N1540 1.427 . S
C1537 H1527 0.929 . S
C1537 C1535 1.433 . S
C1537 N1540 1.384 . S
C1538 H1529 0.929 . S
C1538 C1530 1.378 . S
C1538 C1533 1.350 . S
C1539 H1526 0.929 . S
C1539 C1531 1.433 . S
C1539 N1541 1.384 . S
N1540 C1536 1.427 . S
N1540 C1537 1.384 . S
N1541 C1533 1.427 . S
N1541 C1539 1.384 . S
H1542 C1548 0.930 . S
H1543 C1552 0.930 . S
H1544 C1557 0.929 . S
H1545 C1555 0.929 . S
H1546 C1550 0.929 . S
H1547 C1556 0.929 . S
C1548 H1542 0.930 . S
C1548 C1549 1.367 . S
C1548 C1556 1.378 . S
C1549 C1548 1.367 . S
C1549 C1557 1.433 . S
C1550 H1546 0.929 . S
C1550 C1552 1.378 . S
C1550 C1554 1.350 . S
C1551 C1554 1.463 . S
C1551 C1556 1.350 . S
C1551 N1559 1.427 . S
C1552 H1543 0.930 . S
C1552 C1550 1.378 . S
C1552 C1553 1.367 . S
C1553 C1552 1.367 . S
C1553 C1555 1.433 . S
C1554 C1550 1.350 . S
C1554 C1551 1.463 . S
C1554 N1558 1.427 . S
C1555 H1545 0.929 . S
C1555 C1553 1.433 . S
C1555 N1558 1.384 . S
C1556 H1547 0.929 . S
C1556 C1548 1.378 . S
C1556 C1551 1.350 . S
C1557 H1544 0.929 . S
C1557 C1549 1.433 . S
C1557 N1559 1.384 . S
N1558 C1554 1.427 . S
N1558 C1555 1.384 . S
N1559 C1551 1.427 . S
N1559 C1557 1.384 . S
H1560 C1566 0.930 . S
H1561 C1570 0.930 . S
H1562 C1575 0.929 . S
H1563 C1573 0.929 . S
H1564 C1568 0.929 . S
H1565 C1574 0.929 . S
C1566 H1560 0.930 . S
C1566 C1567 1.367 . S
C1566 C1574 1.378 . S
C1567 C1566 1.367 . S
C1567 C1575 1.433 . S
C1568 H1564 0.929 . S
C1568 C1570 1.378 . S
C1568 C1572 1.350 . S
C1569 C1572 1.463 . S
C1569 C1574 1.350 . S
C1569 N1577 1.427 . S
C1570 H1561 0.930 . S
C1570 C1568 1.378 . S
C1570 C1571 1.367 . S
C1571 C1570 1.367 . S
C1571 C1573 1.433 . S
C1572 C1568 1.350 . S
C1572 C1569 1.463 . S
C1572 N1576 1.427 . S
C1573 H1563 0.929 . S
C1573 C1571 1.433 . S
C1573 N1576 1.384 . S
C1574 H1565 0.929 . S
C1574 C1566 1.378 . S
C1574 C1569 1.350 . S
C1575 H1562 0.929 . S
C1575 C1567 1.433 . S
C1575 N1577 1.384 . S
N1576 C1572 1.427 . S
N1576 C1573 1.384 . S
N1577 C1569 1.427 . S
N1577 C1575 1.384 . S
H1578 C1584 0.930 . S
H1579 C1588 0.930 . S
H1580 C1593 0.929 . S
H1581 C1591 0.929 . S
H1582 C1586 0.929 . S
H1583 C1592 0.929 . S
C1584 H1578 0.930 . S
C1584 C1585 1.367 . S
C1584 C1592 1.378 . S
C1585 C1584 1.367 . S
C1585 C1593 1.433 . S
C1586 H1582 0.929 . S
C1586 C1588 1.378 . S
C1586 C1590 1.350 . S
C1587 C1590 1.463 . S
C1587 C1592 1.350 . S
C1587 N1595 1.427 . S
C1588 H1579 0.930 . S
C1588 C1586 1.378 . S
C1588 C1589 1.367 . S
C1589 C1588 1.367 . S
C1589 C1591 1.433 . S
C1590 C1586 1.350 . S
C1590 C1587 1.463 . S
C1590 N1594 1.427 . S
C1591 H1581 0.929 . S
C1591 C1589 1.433 . S
C1591 N1594 1.384 . S
C1592 H1583 0.929 . S
C1592 C1584 1.378 . S
C1592 C1587 1.350 . S
C1593 H1580 0.929 . S
C1593 C1585 1.433 . S
C1593 N1595 1.384 . S
N1594 C1590 1.427 . S
N1594 C1591 1.384 . S
N1595 C1587 1.427 . S
N1595 C1593 1.384 . S
H1596 C1602 0.930 . S
H1597 C1606 0.930 . S
H1598 C1611 0.929 . S
H1599 C1609 0.929 . S
H1600 C1604 0.929 . S
H1601 C1610 0.929 . S
C1602 H1596 0.930 . S
C1602 C1603 1.367 . S
C1602 C1610 1.378 . S
C1603 C1602 1.367 . S
C1603 C1611 1.433 . S
C1604 H1600 0.929 . S
C1604 C1606 1.378 . S
C1604 C1608 1.350 . S
C1605 C1608 1.463 . S
C1605 C1610 1.350 . S
C1605 N1613 1.427 . S
C1606 H1597 0.930 . S
C1606 C1604 1.378 . S
C1606 C1607 1.367 . S
C1607 C1606 1.367 . S
C1607 C1609 1.433 . S
C1608 C1604 1.350 . S
C1608 C1605 1.463 . S
C1608 N1612 1.427 . S
C1609 H1599 0.929 . S
C1609 C1607 1.433 . S
C1609 N1612 1.384 . S
C1610 H1601 0.929 . S
C1610 C1602 1.378 . S
C1610 C1605 1.350 . S
C1611 H1598 0.929 . S
C1611 C1603 1.433 . S
C1611 N1613 1.384 . S
N1612 C1608 1.427 . S
N1612 C1609 1.384 . S
N1613 C1605 1.427 . S
N1613 C1611 1.384 . S
H1614 C1620 0.930 . S
H1615 C1624 0.930 . S
H1616 C1629 0.929 . S
H1617 C1627 0.929 . S
H1618 C1622 0.929 . S
H1619 C1628 0.929 . S
C1620 H1614 0.930 . S
C1620 C1621 1.367 . S
C1620 C1628 1.378 . S
C1621 C1620 1.367 . S
C1621 C1629 1.433 . S
C1622 H1618 0.929 . S
C1622 C1624 1.378 . S
C1622 C1626 1.350 . S
C1623 C1626 1.463 . S
C1623 C1628 1.350 . S
C1623 N1631 1.427 . S
C1624 H1615 0.930 . S
C1624 C1622 1.378 . S
C1624 C1625 1.367 . S
C1625 C1624 1.367 . S
C1625 C1627 1.433 . S
C1626 C1622 1.350 . S
C1626 C1623 1.463 . S
C1626 N1630 1.427 . S
C1627 H1617 0.929 . S
C1627 C1625 1.433 . S
C1627 N1630 1.384 . S
C1628 H1619 0.929 . S
C1628 C1620 1.378 . S
C1628 C1623 1.350 . S
C1629 H1616 0.929 . S
C1629 C1621 1.433 . S
C1629 N1631 1.384 . S
N1630 C1626 1.427 . S
N1630 C1627 1.384 . S
N1631 C1623 1.427 . S
N1631 C1629 1.384 . S
H1632 C1638 0.930 . S
H1633 C1642 0.930 . S
H1634 C1647 0.929 . S
H1635 C1645 0.929 . S
H1636 C1640 0.929 . S
H1637 C1646 0.929 . S
C1638 H1632 0.930 . S
C1638 C1639 1.367 . S
C1638 C1646 1.378 . S
C1639 C1638 1.367 . S
C1639 C1647 1.433 . S
C1640 H1636 0.929 . S
C1640 C1642 1.378 . S
C1640 C1644 1.350 . S
C1641 C1644 1.463 . S
C1641 C1646 1.350 . S
C1641 N1649 1.427 . S
C1642 H1633 0.930 . S
C1642 C1640 1.378 . S
C1642 C1643 1.367 . S
C1643 C1642 1.367 . S
C1643 C1645 1.433 . S
C1644 C1640 1.350 . S
C1644 C1641 1.463 . S
C1644 N1648 1.427 . S
C1645 H1635 0.929 . S
C1645 C1643 1.433 . S
C1645 N1648 1.384 . S
C1646 H1637 0.929 . S
C1646 C1638 1.378 . S
C1646 C1641 1.350 . S
C1647 H1634 0.929 . S
C1647 C1639 1.433 . S
C1647 N1649 1.384 . S
N1648 C1644 1.427 . S
N1648 C1645 1.384 . S
N1649 C1641 1.427 . S
N1649 C1647 1.384 . S
H1650 C1656 0.930 . S
H1651 C1660 0.930 . S
H1652 C1665 0.929 . S
H1653 C1663 0.929 . S
H1654 C1658 0.929 . S
H1655 C1664 0.929 . S
C1656 H1650 0.930 . S
C1656 C1657 1.367 . S
C1656 C1664 1.378 . S
C1657 C1656 1.367 . S
C1657 C1665 1.433 . S
C1658 H1654 0.929 . S
C1658 C1660 1.378 . S
C1658 C1662 1.350 . S
C1659 C1662 1.463 . S
C1659 C1664 1.350 . S
C1659 N1667 1.427 . S
C1660 H1651 0.930 . S
C1660 C1658 1.378 . S
C1660 C1661 1.367 . S
C1661 C1660 1.367 . S
C1661 C1663 1.433 . S
C1662 C1658 1.350 . S
C1662 C1659 1.463 . S
C1662 N1666 1.427 . S
C1663 H1653 0.929 . S
C1663 C1661 1.433 . S
C1663 N1666 1.384 . S
C1664 H1655 0.929 . S
C1664 C1656 1.378 . S
C1664 C1659 1.350 . S
C1665 H1652 0.929 . S
C1665 C1657 1.433 . S
C1665 N1667 1.384 . S
N1666 C1662 1.427 . S
N1666 C1663 1.384 . S
N1667 C1659 1.427 . S
N1667 C1665 1.384 . S
H1668 C1674 0.930 . S
H1669 C1678 0.930 . S
H1670 C1683 0.929 . S
H1671 C1681 0.929 . S
H1672 C1676 0.929 . S
H1673 C1682 0.929 . S
C1674 H1668 0.930 . S
C1674 C1675 1.367 . S
C1674 C1682 1.378 . S
C1675 C1674 1.367 . S
C1675 C1683 1.433 . S
C1676 H1672 0.929 . S
C1676 C1678 1.378 . S
C1676 C1680 1.350 . S
C1677 C1680 1.463 . S
C1677 C1682 1.350 . S
C1677 N1685 1.427 . S
C1678 H1669 0.930 . S
C1678 C1676 1.378 . S
C1678 C1679 1.367 . S
C1679 C1678 1.367 . S
C1679 C1681 1.433 . S
C1680 C1676 1.350 . S
C1680 C1677 1.463 . S
C1680 N1684 1.427 . S
C1681 H1671 0.929 . S
C1681 C1679 1.433 . S
C1681 N1684 1.384 . S
C1682 H1673 0.929 . S
C1682 C1674 1.378 . S
C1682 C1677 1.350 . S
C1683 H1670 0.929 . S
C1683 C1675 1.433 . S
C1683 N1685 1.384 . S
N1684 C1680 1.427 . S
N1684 C1681 1.384 . S
N1685 C1677 1.427 . S
N1685 C1683 1.384 . S
H1686 C1692 0.930 . S
H1687 C1696 0.930 . S
H1688 C1701 0.929 . S
H1689 C1699 0.929 . S
H1690 C1694 0.929 . S
H1691 C1700 0.929 . S
C1692 H1686 0.930 . S
C1692 C1693 1.367 . S
C1692 C1700 1.378 . S
C1693 C1692 1.367 . S
C1693 C1701 1.433 . S
C1694 H1690 0.929 . S
C1694 C1696 1.378 . S
C1694 C1698 1.350 . S
C1695 C1698 1.463 . S
C1695 C1700 1.350 . S
C1695 N1703 1.427 . S
C1696 H1687 0.930 . S
C1696 C1694 1.378 . S
C1696 C1697 1.367 . S
C1697 C1696 1.367 . S
C1697 C1699 1.433 . S
C1698 C1694 1.350 . S
C1698 C1695 1.463 . S
C1698 N1702 1.427 . S
C1699 H1689 0.929 . S
C1699 C1697 1.433 . S
C1699 N1702 1.384 . S
C1700 H1691 0.929 . S
C1700 C1692 1.378 . S
C1700 C1695 1.350 . S
C1701 H1688 0.929 . S
C1701 C1693 1.433 . S
C1701 N1703 1.384 . S
N1702 C1698 1.427 . S
N1702 C1699 1.384 . S
N1703 C1695 1.427 . S
N1703 C1701 1.384 . S
H1704 C1710 0.930 . S
H1705 C1714 0.930 . S
H1706 C1719 0.929 . S
H1707 C1717 0.929 . S
H1708 C1712 0.929 . S
H1709 C1718 0.929 . S
C1710 H1704 0.930 . S
C1710 C1711 1.367 . S
C1710 C1718 1.378 . S
C1711 C1710 1.367 . S
C1711 C1719 1.433 . S
C1712 H1708 0.929 . S
C1712 C1714 1.378 . S
C1712 C1716 1.350 . S
C1713 C1716 1.463 . S
C1713 C1718 1.350 . S
C1713 N1721 1.427 . S
C1714 H1705 0.930 . S
C1714 C1712 1.378 . S
C1714 C1715 1.367 . S
C1715 C1714 1.367 . S
C1715 C1717 1.433 . S
C1716 C1712 1.350 . S
C1716 C1713 1.463 . S
C1716 N1720 1.427 . S
C1717 H1707 0.929 . S
C1717 C1715 1.433 . S
C1717 N1720 1.384 . S
C1718 H1709 0.929 . S
C1718 C1710 1.378 . S
C1718 C1713 1.350 . S
C1719 H1706 0.929 . S
C1719 C1711 1.433 . S
C1719 N1721 1.384 . S
N1720 C1716 1.427 . S
N1720 C1717 1.384 . S
N1721 C1713 1.427 . S
N1721 C1719 1.384 . S
H1722 C1728 0.930 . S
H1723 C1732 0.930 . S
H1724 C1737 0.929 . S
H1725 C1735 0.929 . S
H1726 C1730 0.929 . S
H1727 C1736 0.929 . S
C1728 H1722 0.930 . S
C1728 C1729 1.367 . S
C1728 C1736 1.378 . S
C1729 C1728 1.367 . S
C1729 C1737 1.433 . S
C1730 H1726 0.929 . S
C1730 C1732 1.378 . S
C1730 C1734 1.350 . S
C1731 C1734 1.463 . S
C1731 C1736 1.350 . S
C1731 N1739 1.427 . S
C1732 H1723 0.930 . S
C1732 C1730 1.378 . S
C1732 C1733 1.367 . S
C1733 C1732 1.367 . S
C1733 C1735 1.433 . S
C1734 C1730 1.350 . S
C1734 C1731 1.463 . S
C1734 N1738 1.427 . S
C1735 H1725 0.929 . S
C1735 C1733 1.433 . S
C1735 N1738 1.384 . S
C1736 H1727 0.929 . S
C1736 C1728 1.378 . S
C1736 C1731 1.350 . S
C1737 H1724 0.929 . S
C1737 C1729 1.433 . S
C1737 N1739 1.384 . S
N1738 C1734 1.427 . S
N1738 C1735 1.384 . S
N1739 C1731 1.427 . S
N1739 C1737 1.384 . S
H1740 C1746 0.930 . S
H1741 C1750 0.930 . S
H1742 C1755 0.929 . S
H1743 C1753 0.929 . S
H1744 C1748 0.929 . S
H1745 C1754 0.929 . S
C1746 H1740 0.930 . S
C1746 C1747 1.367 . S
C1746 C1754 1.378 . S
C1747 C1746 1.367 . S
C1747 C1755 1.433 . S
C1748 H1744 0.929 . S
C1748 C1750 1.378 . S
C1748 C1752 1.350 . S
C1749 C1752 1.463 . S
C1749 C1754 1.350 . S
C1749 N1757 1.427 . S
C1750 H1741 0.930 . S
C1750 C1748 1.378 . S
C1750 C1751 1.367 . S
C1751 C1750 1.367 . S
C1751 C1753 1.433 . S
C1752 C1748 1.350 . S
C1752 C1749 1.463 . S
C1752 N1756 1.427 . S
C1753 H1743 0.929 . S
C1753 C1751 1.433 . S
C1753 N1756 1.384 . S
C1754 H1745 0.929 . S
C1754 C1746 1.378 . S
C1754 C1749 1.350 . S
C1755 H1742 0.929 . S
C1755 C1747 1.433 . S
C1755 N1757 1.384 . S
N1756 C1752 1.427 . S
N1756 C1753 1.384 . S
N1757 C1749 1.427 . S
N1757 C1755 1.384 . S
H1758 C1764 0.930 . S
H1759 C1768 0.930 . S
H1760 C1773 0.929 . S
H1761 C1771 0.929 . S
H1762 C1766 0.929 . S
H1763 C1772 0.929 . S
C1764 H1758 0.930 . S
C1764 C1765 1.367 . S
C1764 C1772 1.378 . S
C1765 C1764 1.367 . S
C1765 C1773 1.433 . S
C1766 H1762 0.929 . S
C1766 C1768 1.378 . S
C1766 C1770 1.350 . S
C1767 C1770 1.463 . S
C1767 C1772 1.350 . S
C1767 N1775 1.427 . S
C1768 H1759 0.930 . S
C1768 C1766 1.378 . S
C1768 C1769 1.367 . S
C1769 C1768 1.367 . S
C1769 C1771 1.433 . S
C1770 C1766 1.350 . S
C1770 C1767 1.463 . S
C1770 N1774 1.427 . S
C1771 H1761 0.929 . S
C1771 C1769 1.433 . S
C1771 N1774 1.384 . S
C1772 H1763 0.929 . S
C1772 C1764 1.378 . S
C1772 C1767 1.350 . S
C1773 H1760 0.929 . S
C1773 C1765 1.433 . S
C1773 N1775 1.384 . S
N1774 C1770 1.427 . S
N1774 C1771 1.384 . S
N1775 C1767 1.427 . S
N1775 C1773 1.384 . S
H1776 C1782 0.930 . S
H1777 C1786 0.930 . S
H1778 C1791 0.929 . S
H1779 C1789 0.929 . S
H1780 C1784 0.929 . S
H1781 C1790 0.929 . S
C1782 H1776 0.930 . S
C1782 C1783 1.367 . S
C1782 C1790 1.378 . S
C1783 C1782 1.367 . S
C1783 C1791 1.433 . S
C1784 H1780 0.929 . S
C1784 C1786 1.378 . S
C1784 C1788 1.350 . S
C1785 C1788 1.463 . S
C1785 C1790 1.350 . S
C1785 N1793 1.427 . S
C1786 H1777 0.930 . S
C1786 C1784 1.378 . S
C1786 C1787 1.367 . S
C1787 C1786 1.367 . S
C1787 C1789 1.433 . S
C1788 C1784 1.350 . S
C1788 C1785 1.463 . S
C1788 N1792 1.427 . S
C1789 H1779 0.929 . S
C1789 C1787 1.433 . S
C1789 N1792 1.384 . S
C1790 H1781 0.929 . S
C1790 C1782 1.378 . S
C1790 C1785 1.350 . S
C1791 H1778 0.929 . S
C1791 C1783 1.433 . S
C1791 N1793 1.384 . S
N1792 C1788 1.427 . S
N1792 C1789 1.384 . S
N1793 C1785 1.427 . S
N1793 C1791 1.384 . S
H1794 C1800 0.930 . S
H1795 C1804 0.930 . S
H1796 C1809 0.929 . S
H1797 C1807 0.929 . S
H1798 C1802 0.929 . S
H1799 C1808 0.929 . S
C1800 H1794 0.930 . S
C1800 C1801 1.367 . S
C1800 C1808 1.378 . S
C1801 C1800 1.367 . S
C1801 C1809 1.433 . S
C1802 H1798 0.929 . S
C1802 C1804 1.378 . S
C1802 C1806 1.350 . S
C1803 C1806 1.463 . S
C1803 C1808 1.350 . S
C1803 N1811 1.427 . S
C1804 H1795 0.930 . S
C1804 C1802 1.378 . S
C1804 C1805 1.367 . S
C1805 C1804 1.367 . S
C1805 C1807 1.433 . S
C1806 C1802 1.350 . S
C1806 C1803 1.463 . S
C1806 N1810 1.427 . S
C1807 H1797 0.929 . S
C1807 C1805 1.433 . S
C1807 N1810 1.384 . S
C1808 H1799 0.929 . S
C1808 C1800 1.378 . S
C1808 C1803 1.350 . S
C1809 H1796 0.929 . S
C1809 C1801 1.433 . S
C1809 N1811 1.384 . S
N1810 C1806 1.427 . S
N1810 C1807 1.384 . S
N1811 C1803 1.427 . S
N1811 C1809 1.384 . S
H1812 C1818 0.930 . S
H1813 C1822 0.930 . S
H1814 C1827 0.929 . S
H1815 C1825 0.929 . S
H1816 C1820 0.929 . S
H1817 C1826 0.929 . S
C1818 H1812 0.930 . S
C1818 C1819 1.367 . S
C1818 C1826 1.378 . S
C1819 C1818 1.367 . S
C1819 C1827 1.433 . S
C1820 H1816 0.929 . S
C1820 C1822 1.378 . S
C1820 C1824 1.350 . S
C1821 C1824 1.463 . S
C1821 C1826 1.350 . S
C1821 N1829 1.427 . S
C1822 H1813 0.930 . S
C1822 C1820 1.378 . S
C1822 C1823 1.367 . S
C1823 C1822 1.367 . S
C1823 C1825 1.433 . S
C1824 C1820 1.350 . S
C1824 C1821 1.463 . S
C1824 N1828 1.427 . S
C1825 H1815 0.929 . S
C1825 C1823 1.433 . S
C1825 N1828 1.384 . S
C1826 H1817 0.929 . S
C1826 C1818 1.378 . S
C1826 C1821 1.350 . S
C1827 H1814 0.929 . S
C1827 C1819 1.433 . S
C1827 N1829 1.384 . S
N1828 C1824 1.427 . S
N1828 C1825 1.384 . S
N1829 C1821 1.427 . S
N1829 C1827 1.384 . S
H1830 C1836 0.930 . S
H1831 C1840 0.930 . S
H1832 C1845 0.929 . S
H1833 C1843 0.929 . S
H1834 C1838 0.929 . S
H1835 C1844 0.929 . S
C1836 H1830 0.930 . S
C1836 C1837 1.367 . S
C1836 C1844 1.378 . S
C1837 C1836 1.367 . S
C1837 C1845 1.433 . S
C1838 H1834 0.929 . S
C1838 C1840 1.378 . S
C1838 C1842 1.350 . S
C1839 C1842 1.463 . S
C1839 C1844 1.350 . S
C1839 N1847 1.427 . S
C1840 H1831 0.930 . S
C1840 C1838 1.378 . S
C1840 C1841 1.367 . S
C1841 C1840 1.367 . S
C1841 C1843 1.433 . S
C1842 C1838 1.350 . S
C1842 C1839 1.463 . S
C1842 N1846 1.427 . S
C1843 H1833 0.929 . S
C1843 C1841 1.433 . S
C1843 N1846 1.384 . S
C1844 H1835 0.929 . S
C1844 C1836 1.378 . S
C1844 C1839 1.350 . S
C1845 H1832 0.929 . S
C1845 C1837 1.433 . S
C1845 N1847 1.384 . S
N1846 C1842 1.427 . S
N1846 C1843 1.384 . S
N1847 C1839 1.427 . S
N1847 C1845 1.384 . S
H1848 C1854 0.930 . S
H1849 C1858 0.930 . S
H1850 C1863 0.929 . S
H1851 C1861 0.929 . S
H1852 C1856 0.929 . S
H1853 C1862 0.929 . S
C1854 H1848 0.930 . S
C1854 C1855 1.367 . S
C1854 C1862 1.378 . S
C1855 C1854 1.367 . S
C1855 C1863 1.433 . S
C1856 H1852 0.929 . S
C1856 C1858 1.378 . S
C1856 C1860 1.350 . S
C1857 C1860 1.463 . S
C1857 C1862 1.350 . S
C1857 N1865 1.427 . S
C1858 H1849 0.930 . S
C1858 C1856 1.378 . S
C1858 C1859 1.367 . S
C1859 C1858 1.367 . S
C1859 C1861 1.433 . S
C1860 C1856 1.350 . S
C1860 C1857 1.463 . S
C1860 N1864 1.427 . S
C1861 H1851 0.929 . S
C1861 C1859 1.433 . S
C1861 N1864 1.384 . S
C1862 H1853 0.929 . S
C1862 C1854 1.378 . S
C1862 C1857 1.350 . S
C1863 H1850 0.929 . S
C1863 C1855 1.433 . S
C1863 N1865 1.384 . S
N1864 C1860 1.427 . S
N1864 C1861 1.384 . S
N1865 C1857 1.427 . S
N1865 C1863 1.384 . S
H1866 C1872 0.930 . S
H1867 C1876 0.930 . S
H1868 C1881 0.929 . S
H1869 C1879 0.929 . S
H1870 C1874 0.929 . S
H1871 C1880 0.929 . S
C1872 H1866 0.930 . S
C1872 C1873 1.367 . S
C1872 C1880 1.378 . S
C1873 C1872 1.367 . S
C1873 C1881 1.433 . S
C1874 H1870 0.929 . S
C1874 C1876 1.378 . S
C1874 C1878 1.350 . S
C1875 C1878 1.463 . S
C1875 C1880 1.350 . S
C1875 N1883 1.427 . S
C1876 H1867 0.930 . S
C1876 C1874 1.378 . S
C1876 C1877 1.367 . S
C1877 C1876 1.367 . S
C1877 C1879 1.433 . S
C1878 C1874 1.350 . S
C1878 C1875 1.463 . S
C1878 N1882 1.427 . S
C1879 H1869 0.929 . S
C1879 C1877 1.433 . S
C1879 N1882 1.384 . S
C1880 H1871 0.929 . S
C1880 C1872 1.378 . S
C1880 C1875 1.350 . S
C1881 H1868 0.929 . S
C1881 C1873 1.433 . S
C1881 N1883 1.384 . S
N1882 C1878 1.427 . S
N1882 C1879 1.384 . S
N1883 C1875 1.427 . S
N1883 C1881 1.384 . S
H1884 C1890 0.930 . S
H1885 C1894 0.930 . S
H1886 C1899 0.929 . S
H1887 C1897 0.929 . S
H1888 C1892 0.929 . S
H1889 C1898 0.929 . S
C1890 H1884 0.930 . S
C1890 C1891 1.367 . S
C1890 C1898 1.378 . S
C1891 C1890 1.367 . S
C1891 C1899 1.433 . S
C1892 H1888 0.929 . S
C1892 C1894 1.378 . S
C1892 C1896 1.350 . S
C1893 C1896 1.463 . S
C1893 C1898 1.350 . S
C1893 N1901 1.427 . S
C1894 H1885 0.930 . S
C1894 C1892 1.378 . S
C1894 C1895 1.367 . S
C1895 C1894 1.367 . S
C1895 C1897 1.433 . S
C1896 C1892 1.350 . S
C1896 C1893 1.463 . S
C1896 N1900 1.427 . S
C1897 H1887 0.929 . S
C1897 C1895 1.433 . S
C1897 N1900 1.384 . S
C1898 H1889 0.929 . S
C1898 C1890 1.378 . S
C1898 C1893 1.350 . S
C1899 H1886 0.929 . S
C1899 C1891 1.433 . S
C1899 N1901 1.384 . S
N1900 C1896 1.427 . S
N1900 C1897 1.384 . S
N1901 C1893 1.427 . S
N1901 C1899 1.384 . S
H1902 C1908 0.930 . S
H1903 C1912 0.930 . S
H1904 C1917 0.929 . S
H1905 C1915 0.929 . S
H1906 C1910 0.929 . S
H1907 C1916 0.929 . S
C1908 H1902 0.930 . S
C1908 C1909 1.367 . S
C1908 C1916 1.378 . S
C1909 C1908 1.367 . S
C1909 C1917 1.433 . S
C1910 H1906 0.929 . S
C1910 C1912 1.378 . S
C1910 C1914 1.350 . S
C1911 C1914 1.463 . S
C1911 C1916 1.350 . S
C1911 N1919 1.427 . S
C1912 H1903 0.930 . S
C1912 C1910 1.378 . S
C1912 C1913 1.367 . S
C1913 C1912 1.367 . S
C1913 C1915 1.433 . S
C1914 C1910 1.350 . S
C1914 C1911 1.463 . S
C1914 N1918 1.427 . S
C1915 H1905 0.929 . S
C1915 C1913 1.433 . S
C1915 N1918 1.384 . S
C1916 H1907 0.929 . S
C1916 C1908 1.378 . S
C1916 C1911 1.350 . S
C1917 H1904 0.929 . S
C1917 C1909 1.433 . S
C1917 N1919 1.384 . S
N1918 C1914 1.427 . S
N1918 C1915 1.384 . S
N1919 C1911 1.427 . S
N1919 C1917 1.384 . S
H1920 C1926 0.930 . S
H1921 C1930 0.930 . S
H1922 C1935 0.929 . S
H1923 C1933 0.929 . S
H1924 C1928 0.929 . S
H1925 C1934 0.929 . S
C1926 H1920 0.930 . S
C1926 C1927 1.367 . S
C1926 C1934 1.378 . S
C1927 C1926 1.367 . S
C1927 C1935 1.433 . S
C1928 H1924 0.929 . S
C1928 C1930 1.378 . S
C1928 C1932 1.350 . S
C1929 C1932 1.463 . S
C1929 C1934 1.350 . S
C1929 N1937 1.427 . S
C1930 H1921 0.930 . S
C1930 C1928 1.378 . S
C1930 C1931 1.367 . S
C1931 C1930 1.367 . S
C1931 C1933 1.433 . S
C1932 C1928 1.350 . S
C1932 C1929 1.463 . S
C1932 N1936 1.427 . S
C1933 H1923 0.929 . S
C1933 C1931 1.433 . S
C1933 N1936 1.384 . S
C1934 H1925 0.929 . S
C1934 C1926 1.378 . S
C1934 C1929 1.350 . S
C1935 H1922 0.929 . S
C1935 C1927 1.433 . S
C1935 N1937 1.384 . S
N1936 C1932 1.427 . S
N1936 C1933 1.384 . S
N1937 C1929 1.427 . S
N1937 C1935 1.384 . S
H1938 C1944 0.930 . S
H1939 C1948 0.930 . S
H1940 C1953 0.929 . S
H1941 C1951 0.929 . S
H1942 C1946 0.929 . S
H1943 C1952 0.929 . S
C1944 H1938 0.930 . S
C1944 C1945 1.367 . S
C1944 C1952 1.378 . S
C1945 C1944 1.367 . S
C1945 C1953 1.433 . S
C1946 H1942 0.929 . S
C1946 C1948 1.378 . S
C1946 C1950 1.350 . S
C1947 C1950 1.463 . S
C1947 C1952 1.350 . S
C1947 N1955 1.427 . S
C1948 H1939 0.930 . S
C1948 C1946 1.378 . S
C1948 C1949 1.367 . S
C1949 C1948 1.367 . S
C1949 C1951 1.433 . S
C1950 C1946 1.350 . S
C1950 C1947 1.463 . S
C1950 N1954 1.427 . S
C1951 H1941 0.929 . S
C1951 C1949 1.433 . S
C1951 N1954 1.384 . S
C1952 H1943 0.929 . S
C1952 C1944 1.378 . S
C1952 C1947 1.350 . S
C1953 H1940 0.929 . S
C1953 C1945 1.433 . S
C1953 N1955 1.384 . S
N1954 C1950 1.427 . S
N1954 C1951 1.384 . S
N1955 C1947 1.427 . S
N1955 C1953 1.384 . S
H1956 C1962 0.930 . S
H1957 C1966 0.930 . S
H1958 C1971 0.929 . S
H1959 C1969 0.929 . S
H1960 C1964 0.929 . S
H1961 C1970 0.929 . S
C1962 H1956 0.930 . S
C1962 C1963 1.367 . S
C1962 C1970 1.378 . S
C1963 C1962 1.367 . S
C1963 C1971 1.433 . S
C1964 H1960 0.929 . S
C1964 C1966 1.378 . S
C1964 C1968 1.350 . S
C1965 C1968 1.463 . S
C1965 C1970 1.350 . S
C1965 N1973 1.427 . S
C1966 H1957 0.930 . S
C1966 C1964 1.378 . S
C1966 C1967 1.367 . S
C1967 C1966 1.367 . S
C1967 C1969 1.433 . S
C1968 C1964 1.350 . S
C1968 C1965 1.463 . S
C1968 N1972 1.427 . S
C1969 H1959 0.929 . S
C1969 C1967 1.433 . S
C1969 N1972 1.384 . S
C1970 H1961 0.929 . S
C1970 C1962 1.378 . S
C1970 C1965 1.350 . S
C1971 H1958 0.929 . S
C1971 C1963 1.433 . S
C1971 N1973 1.384 . S
N1972 C1968 1.427 . S
N1972 C1969 1.384 . S
N1973 C1965 1.427 . S
N1973 C1971 1.384 . S
H1974 C1980 0.930 . S
H1975 C1984 0.930 . S
H1976 C1989 0.929 . S
H1977 C1987 0.929 . S
H1978 C1982 0.929 . S
H1979 C1988 0.929 . S
C1980 H1974 0.930 . S
C1980 C1981 1.367 . S
C1980 C1988 1.378 . S
C1981 C1980 1.367 . S
C1981 C1989 1.433 . S
C1982 H1978 0.929 . S
C1982 C1984 1.378 . S
C1982 C1986 1.350 . S
C1983 C1986 1.463 . S
C1983 C1988 1.350 . S
C1983 N1991 1.427 . S
C1984 H1975 0.930 . S
C1984 C1982 1.378 . S
C1984 C1985 1.367 . S
C1985 C1984 1.367 . S
C1985 C1987 1.433 . S
C1986 C1982 1.350 . S
C1986 C1983 1.463 . S
C1986 N1990 1.427 . S
C1987 H1977 0.929 . S
C1987 C1985 1.433 . S
C1987 N1990 1.384 . S
C1988 H1979 0.929 . S
C1988 C1980 1.378 . S
C1988 C1983 1.350 . S
C1989 H1976 0.929 . S
C1989 C1981 1.433 . S
C1989 N1991 1.384 . S
N1990 C1986 1.427 . S
N1990 C1987 1.384 . S
N1991 C1983 1.427 . S
N1991 C1989 1.384 . S
H1992 C1998 0.930 . S
H1993 C2002 0.930 . S
H1994 C2007 0.929 . S
H1995 C2005 0.929 . S
H1996 C2000 0.929 . S
H1997 C2006 0.929 . S
C1998 H1992 0.930 . S
C1998 C1999 1.367 . S
C1998 C2006 1.378 . S
C1999 C1998 1.367 . S
C1999 C2007 1.433 . S
C2000 H1996 0.929 . S
C2000 C2002 1.378 . S
C2000 C2004 1.350 . S
C2001 C2004 1.463 . S
C2001 C2006 1.350 . S
C2001 N2009 1.427 . S
C2002 H1993 0.930 . S
C2002 C2000 1.378 . S
C2002 C2003 1.367 . S
C2003 C2002 1.367 . S
C2003 C2005 1.433 . S
C2004 C2000 1.350 . S
C2004 C2001 1.463 . S
C2004 N2008 1.427 . S
C2005 H1995 0.929 . S
C2005 C2003 1.433 . S
C2005 N2008 1.384 . S
C2006 H1997 0.929 . S
C2006 C1998 1.378 . S
C2006 C2001 1.350 . S
C2007 H1994 0.929 . S
C2007 C1999 1.433 . S
C2007 N2009 1.384 . S
N2008 C2004 1.427 . S
N2008 C2005 1.384 . S
N2009 C2001 1.427 . S
N2009 C2007 1.384 . S
H2010 C2016 0.930 . S
H2011 C2020 0.930 . S
H2012 C2025 0.929 . S
H2013 C2023 0.929 . S
H2014 C2018 0.929 . S
H2015 C2024 0.929 . S
C2016 H2010 0.930 . S
C2016 C2017 1.367 . S
C2016 C2024 1.378 . S
C2017 C2016 1.367 . S
C2017 C2025 1.433 . S
C2018 H2014 0.929 . S
C2018 C2020 1.378 . S
C2018 C2022 1.350 . S
C2019 C2022 1.463 . S
C2019 C2024 1.350 . S
C2019 N2027 1.427 . S
C2020 H2011 0.930 . S
C2020 C2018 1.378 . S
C2020 C2021 1.367 . S
C2021 C2020 1.367 . S
C2021 C2023 1.433 . S
C2022 C2018 1.350 . S
C2022 C2019 1.463 . S
C2022 N2026 1.427 . S
C2023 H2013 0.929 . S
C2023 C2021 1.433 . S
C2023 N2026 1.384 . S
C2024 H2015 0.929 . S
C2024 C2016 1.378 . S
C2024 C2019 1.350 . S
C2025 H2012 0.929 . S
C2025 C2017 1.433 . S
C2025 N2027 1.384 . S
N2026 C2022 1.427 . S
N2026 C2023 1.384 . S
N2027 C2019 1.427 . S
N2027 C2025 1.384 . S
H2028 C2034 0.930 . S
H2029 C2038 0.930 . S
H2030 C2043 0.929 . S
H2031 C2041 0.929 . S
H2032 C2036 0.929 . S
H2033 C2042 0.929 . S
C2034 H2028 0.930 . S
C2034 C2035 1.367 . S
C2034 C2042 1.378 . S
C2035 C2034 1.367 . S
C2035 C2043 1.433 . S
C2036 H2032 0.929 . S
C2036 C2038 1.378 . S
C2036 C2040 1.350 . S
C2037 C2040 1.463 . S
C2037 C2042 1.350 . S
C2037 N2045 1.427 . S
C2038 H2029 0.930 . S
C2038 C2036 1.378 . S
C2038 C2039 1.367 . S
C2039 C2038 1.367 . S
C2039 C2041 1.433 . S
C2040 C2036 1.350 . S
C2040 C2037 1.463 . S
C2040 N2044 1.427 . S
C2041 H2031 0.929 . S
C2041 C2039 1.433 . S
C2041 N2044 1.384 . S
C2042 H2033 0.929 . S
C2042 C2034 1.378 . S
C2042 C2037 1.350 . S
C2043 H2030 0.929 . S
C2043 C2035 1.433 . S
C2043 N2045 1.384 . S
N2044 C2040 1.427 . S
N2044 C2041 1.384 . S
N2045 C2037 1.427 . S
N2045 C2043 1.384 . S
H2046 C2052 0.930 . S
H2047 C2056 0.930 . S
H2048 C2061 0.929 . S
H2049 C2059 0.929 . S
H2050 C2054 0.929 . S
H2051 C2060 0.929 . S
C2052 H2046 0.930 . S
C2052 C2053 1.367 . S
C2052 C2060 1.378 . S
C2053 C2052 1.367 . S
C2053 C2061 1.433 . S
C2054 H2050 0.929 . S
C2054 C2056 1.378 . S
C2054 C2058 1.350 . S
C2055 C2058 1.463 . S
C2055 C2060 1.350 . S
C2055 N2063 1.427 . S
C2056 H2047 0.930 . S
C2056 C2054 1.378 . S
C2056 C2057 1.367 . S
C2057 C2056 1.367 . S
C2057 C2059 1.433 . S
C2058 C2054 1.350 . S
C2058 C2055 1.463 . S
C2058 N2062 1.427 . S
C2059 H2049 0.929 . S
C2059 C2057 1.433 . S
C2059 N2062 1.384 . S
C2060 H2051 0.929 . S
C2060 C2052 1.378 . S
C2060 C2055 1.350 . S
C2061 H2048 0.929 . S
C2061 C2053 1.433 . S
C2061 N2063 1.384 . S
N2062 C2058 1.427 . S
N2062 C2059 1.384 . S
N2063 C2055 1.427 . S
N2063 C2061 1.384 . S
H2064 C2070 0.930 . S
H2065 C2074 0.930 . S
H2066 C2079 0.929 . S
H2067 C2077 0.929 . S
H2068 C2072 0.929 . S
H2069 C2078 0.929 . S
C2070 H2064 0.930 . S
C2070 C2071 1.367 . S
C2070 C2078 1.378 . S
C2071 C2070 1.367 . S
C2071 C2079 1.433 . S
C2072 H2068 0.929 . S
C2072 C2074 1.378 . S
C2072 C2076 1.350 . S
C2073 C2076 1.463 . S
C2073 C2078 1.350 . S
C2073 N2081 1.427 . S
C2074 H2065 0.930 . S
C2074 C2072 1.378 . S
C2074 C2075 1.367 . S
C2075 C2074 1.367 . S
C2075 C2077 1.433 . S
C2076 C2072 1.350 . S
C2076 C2073 1.463 . S
C2076 N2080 1.427 . S
C2077 H2067 0.929 . S
C2077 C2075 1.433 . S
C2077 N2080 1.384 . S
C2078 H2069 0.929 . S
C2078 C2070 1.378 . S
C2078 C2073 1.350 . S
C2079 H2066 0.929 . S
C2079 C2071 1.433 . S
C2079 N2081 1.384 . S
N2080 C2076 1.427 . S
N2080 C2077 1.384 . S
N2081 C2073 1.427 . S
N2081 C2079 1.384 . S
H2082 C2088 0.930 . S
H2083 C2092 0.930 . S
H2084 C2097 0.929 . S
H2085 C2095 0.929 . S
H2086 C2090 0.929 . S
H2087 C2096 0.929 . S
C2088 H2082 0.930 . S
C2088 C2089 1.367 . S
C2088 C2096 1.378 . S
C2089 C2088 1.367 . S
C2089 C2097 1.433 . S
C2090 H2086 0.929 . S
C2090 C2092 1.378 . S
C2090 C2094 1.350 . S
C2091 C2094 1.463 . S
C2091 C2096 1.350 . S
C2091 N2099 1.427 . S
C2092 H2083 0.930 . S
C2092 C2090 1.378 . S
C2092 C2093 1.367 . S
C2093 C2092 1.367 . S
C2093 C2095 1.433 . S
C2094 C2090 1.350 . S
C2094 C2091 1.463 . S
C2094 N2098 1.427 . S
C2095 H2085 0.929 . S
C2095 C2093 1.433 . S
C2095 N2098 1.384 . S
C2096 H2087 0.929 . S
C2096 C2088 1.378 . S
C2096 C2091 1.350 . S
C2097 H2084 0.929 . S
C2097 C2089 1.433 . S
C2097 N2099 1.384 . S
N2098 C2094 1.427 . S
N2098 C2095 1.384 . S
N2099 C2091 1.427 . S
N2099 C2097 1.384 . S
H2100 C2106 0.930 . S
H2101 C2110 0.930 . S
H2102 C2115 0.929 . S
H2103 C2113 0.929 . S
H2104 C2108 0.929 . S
H2105 C2114 0.929 . S
C2106 H2100 0.930 . S
C2106 C2107 1.367 . S
C2106 C2114 1.378 . S
C2107 C2106 1.367 . S
C2107 C2115 1.433 . S
C2108 H2104 0.929 . S
C2108 C2110 1.378 . S
C2108 C2112 1.350 . S
C2109 C2112 1.463 . S
C2109 C2114 1.350 . S
C2109 N2117 1.427 . S
C2110 H2101 0.930 . S
C2110 C2108 1.378 . S
C2110 C2111 1.367 . S
C2111 C2110 1.367 . S
C2111 C2113 1.433 . S
C2112 C2108 1.350 . S
C2112 C2109 1.463 . S
C2112 N2116 1.427 . S
C2113 H2103 0.929 . S
C2113 C2111 1.433 . S
C2113 N2116 1.384 . S
C2114 H2105 0.929 . S
C2114 C2106 1.378 . S
C2114 C2109 1.350 . S
C2115 H2102 0.929 . S
C2115 C2107 1.433 . S
C2115 N2117 1.384 . S
N2116 C2112 1.427 . S
N2116 C2113 1.384 . S
N2117 C2109 1.427 . S
N2117 C2115 1.384 . S
H2118 C2124 0.930 . S
H2119 C2128 0.930 . S
H2120 C2133 0.929 . S
H2121 C2131 0.929 . S
H2122 C2126 0.929 . S
H2123 C2132 0.929 . S
C2124 H2118 0.930 . S
C2124 C2125 1.367 . S
C2124 C2132 1.378 . S
C2125 C2124 1.367 . S
C2125 C2133 1.433 . S
C2126 H2122 0.929 . S
C2126 C2128 1.378 . S
C2126 C2130 1.350 . S
C2127 C2130 1.463 . S
C2127 C2132 1.350 . S
C2127 N2135 1.427 . S
C2128 H2119 0.930 . S
C2128 C2126 1.378 . S
C2128 C2129 1.367 . S
C2129 C2128 1.367 . S
C2129 C2131 1.433 . S
C2130 C2126 1.350 . S
C2130 C2127 1.463 . S
C2130 N2134 1.427 . S
C2131 H2121 0.929 . S
C2131 C2129 1.433 . S
C2131 N2134 1.384 . S
C2132 H2123 0.929 . S
C2132 C2124 1.378 . S
C2132 C2127 1.350 . S
C2133 H2120 0.929 . S
C2133 C2125 1.433 . S
C2133 N2135 1.384 . S
N2134 C2130 1.427 . S
N2134 C2131 1.384 . S
N2135 C2127 1.427 . S
N2135 C2133 1.384 . S
H2136 C2142 0.930 . S
H2137 C2146 0.930 . S
H2138 C2151 0.929 . S
H2139 C2149 0.929 . S
H2140 C2144 0.929 . S
H2141 C2150 0.929 . S
C2142 H2136 0.930 . S
C2142 C2143 1.367 . S
C2142 C2150 1.378 . S
C2143 C2142 1.367 . S
C2143 C2151 1.433 . S
C2144 H2140 0.929 . S
C2144 C2146 1.378 . S
C2144 C2148 1.350 . S
C2145 C2148 1.463 . S
C2145 C2150 1.350 . S
C2145 N2153 1.427 . S
C2146 H2137 0.930 . S
C2146 C2144 1.378 . S
C2146 C2147 1.367 . S
C2147 C2146 1.367 . S
C2147 C2149 1.433 . S
C2148 C2144 1.350 . S
C2148 C2145 1.463 . S
C2148 N2152 1.427 . S
C2149 H2139 0.929 . S
C2149 C2147 1.433 . S
C2149 N2152 1.384 . S
C2150 H2141 0.929 . S
C2150 C2142 1.378 . S
C2150 C2145 1.350 . S
C2151 H2138 0.929 . S
C2151 C2143 1.433 . S
C2151 N2153 1.384 . S
N2152 C2148 1.427 . S
N2152 C2149 1.384 . S
N2153 C2145 1.427 . S
N2153 C2151 1.384 . S
H2154 C2160 0.930 . S
H2155 C2164 0.930 . S
H2156 C2169 0.929 . S
H2157 C2167 0.929 . S
H2158 C2162 0.929 . S
H2159 C2168 0.929 . S
C2160 H2154 0.930 . S
C2160 C2161 1.367 . S
C2160 C2168 1.378 . S
C2161 C2160 1.367 . S
C2161 C2169 1.433 . S
C2162 H2158 0.929 . S
C2162 C2164 1.378 . S
C2162 C2166 1.350 . S
C2163 C2166 1.463 . S
C2163 C2168 1.350 . S
C2163 N2171 1.427 . S
C2164 H2155 0.930 . S
C2164 C2162 1.378 . S
C2164 C2165 1.367 . S
C2165 C2164 1.367 . S
C2165 C2167 1.433 . S
C2166 C2162 1.350 . S
C2166 C2163 1.463 . S
C2166 N2170 1.427 . S
C2167 H2157 0.929 . S
C2167 C2165 1.433 . S
C2167 N2170 1.384 . S
C2168 H2159 0.929 . S
C2168 C2160 1.378 . S
C2168 C2163 1.350 . S
C2169 H2156 0.929 . S
C2169 C2161 1.433 . S
C2169 N2171 1.384 . S
N2170 C2166 1.427 . S
N2170 C2167 1.384 . S
N2171 C2163 1.427 . S
N2171 C2169 1.384 . S
H2172 C2178 0.930 . S
H2173 C2182 0.930 . S
H2174 C2187 0.929 . S
H2175 C2185 0.929 . S
H2176 C2180 0.929 . S
H2177 C2186 0.929 . S
C2178 H2172 0.930 . S
C2178 C2179 1.367 . S
C2178 C2186 1.378 . S
C2179 C2178 1.367 . S
C2179 C2187 1.433 . S
C2180 H2176 0.929 . S
C2180 C2182 1.378 . S
C2180 C2184 1.350 . S
C2181 C2184 1.463 . S
C2181 C2186 1.350 . S
C2181 N2189 1.427 . S
C2182 H2173 0.930 . S
C2182 C2180 1.378 . S
C2182 C2183 1.367 . S
C2183 C2182 1.367 . S
C2183 C2185 1.433 . S
C2184 C2180 1.350 . S
C2184 C2181 1.463 . S
C2184 N2188 1.427 . S
C2185 H2175 0.929 . S
C2185 C2183 1.433 . S
C2185 N2188 1.384 . S
C2186 H2177 0.929 . S
C2186 C2178 1.378 . S
C2186 C2181 1.350 . S
C2187 H2174 0.929 . S
C2187 C2179 1.433 . S
C2187 N2189 1.384 . S
N2188 C2184 1.427 . S
N2188 C2185 1.384 . S
N2189 C2181 1.427 . S
N2189 C2187 1.384 . S
H2190 C2196 0.930 . S
H2191 C2200 0.930 . S
H2192 C2205 0.929 . S
H2193 C2203 0.929 . S
H2194 C2198 0.929 . S
H2195 C2204 0.929 . S
C2196 H2190 0.930 . S
C2196 C2197 1.367 . S
C2196 C2204 1.378 . S
C2197 C2196 1.367 . S
C2197 C2205 1.433 . S
C2198 H2194 0.929 . S
C2198 C2200 1.378 . S
C2198 C2202 1.350 . S
C2199 C2202 1.463 . S
C2199 C2204 1.350 . S
C2199 N2207 1.427 . S
C2200 H2191 0.930 . S
C2200 C2198 1.378 . S
C2200 C2201 1.367 . S
C2201 C2200 1.367 . S
C2201 C2203 1.433 . S
C2202 C2198 1.350 . S
C2202 C2199 1.463 . S
C2202 N2206 1.427 . S
C2203 H2193 0.929 . S
C2203 C2201 1.433 . S
C2203 N2206 1.384 . S
C2204 H2195 0.929 . S
C2204 C2196 1.378 . S
C2204 C2199 1.350 . S
C2205 H2192 0.929 . S
C2205 C2197 1.433 . S
C2205 N2207 1.384 . S
N2206 C2202 1.427 . S
N2206 C2203 1.384 . S
N2207 C2199 1.427 . S
N2207 C2205 1.384 . S
H2208 C2214 0.930 . S
H2209 C2218 0.930 . S
H2210 C2223 0.929 . S
H2211 C2221 0.929 . S
H2212 C2216 0.929 . S
H2213 C2222 0.929 . S
C2214 H2208 0.930 . S
C2214 C2215 1.367 . S
C2214 C2222 1.378 . S
C2215 C2214 1.367 . S
C2215 C2223 1.433 . S
C2216 H2212 0.929 . S
C2216 C2218 1.378 . S
C2216 C2220 1.350 . S
C2217 C2220 1.463 . S
C2217 C2222 1.350 . S
C2217 N2225 1.427 . S
C2218 H2209 0.930 . S
C2218 C2216 1.378 . S
C2218 C2219 1.367 . S
C2219 C2218 1.367 . S
C2219 C2221 1.433 . S
C2220 C2216 1.350 . S
C2220 C2217 1.463 . S
C2220 N2224 1.427 . S
C2221 H2211 0.929 . S
C2221 C2219 1.433 . S
C2221 N2224 1.384 . S
C2222 H2213 0.929 . S
C2222 C2214 1.378 . S
C2222 C2217 1.350 . S
C2223 H2210 0.929 . S
C2223 C2215 1.433 . S
C2223 N2225 1.384 . S
N2224 C2220 1.427 . S
N2224 C2221 1.384 . S
N2225 C2217 1.427 . S
N2225 C2223 1.384 . S
H2226 C2232 0.930 . S
H2227 C2236 0.930 . S
H2228 C2241 0.929 . S
H2229 C2239 0.929 . S
H2230 C2234 0.929 . S
H2231 C2240 0.929 . S
C2232 H2226 0.930 . S
C2232 C2233 1.367 . S
C2232 C2240 1.378 . S
C2233 C2232 1.367 . S
C2233 C2241 1.433 . S
C2234 H2230 0.929 . S
C2234 C2236 1.378 . S
C2234 C2238 1.350 . S
C2235 C2238 1.463 . S
C2235 C2240 1.350 . S
C2235 N2243 1.427 . S
C2236 H2227 0.930 . S
C2236 C2234 1.378 . S
C2236 C2237 1.367 . S
C2237 C2236 1.367 . S
C2237 C2239 1.433 . S
C2238 C2234 1.350 . S
C2238 C2235 1.463 . S
C2238 N2242 1.427 . S
C2239 H2229 0.929 . S
C2239 C2237 1.433 . S
C2239 N2242 1.384 . S
C2240 H2231 0.929 . S
C2240 C2232 1.378 . S
C2240 C2235 1.350 . S
C2241 H2228 0.929 . S
C2241 C2233 1.433 . S
C2241 N2243 1.384 . S
N2242 C2238 1.427 . S
N2242 C2239 1.384 . S
N2243 C2235 1.427 . S
N2243 C2241 1.384 . S
H2244 C2250 0.930 . S
H2245 C2254 0.930 . S
H2246 C2259 0.929 . S
H2247 C2257 0.929 . S
H2248 C2252 0.929 . S
H2249 C2258 0.929 . S
C2250 H2244 0.930 . S
C2250 C2251 1.367 . S
C2250 C2258 1.378 . S
C2251 C2250 1.367 . S
C2251 C2259 1.433 . S
C2252 H2248 0.929 . S
C2252 C2254 1.378 . S
C2252 C2256 1.350 . S
C2253 C2256 1.463 . S
C2253 C2258 1.350 . S
C2253 N2261 1.427 . S
C2254 H2245 0.930 . S
C2254 C2252 1.378 . S
C2254 C2255 1.367 . S
C2255 C2254 1.367 . S
C2255 C2257 1.433 . S
C2256 C2252 1.350 . S
C2256 C2253 1.463 . S
C2256 N2260 1.427 . S
C2257 H2247 0.929 . S
C2257 C2255 1.433 . S
C2257 N2260 1.384 . S
C2258 H2249 0.929 . S
C2258 C2250 1.378 . S
C2258 C2253 1.350 . S
C2259 H2246 0.929 . S
C2259 C2251 1.433 . S
C2259 N2261 1.384 . S
N2260 C2256 1.427 . S
N2260 C2257 1.384 . S
N2261 C2253 1.427 . S
N2261 C2259 1.384 . S
H2262 C2268 0.930 . S
H2263 C2272 0.930 . S
H2264 C2277 0.929 . S
H2265 C2275 0.929 . S
H2266 C2270 0.929 . S
H2267 C2276 0.929 . S
C2268 H2262 0.930 . S
C2268 C2269 1.367 . S
C2268 C2276 1.378 . S
C2269 C2268 1.367 . S
C2269 C2277 1.433 . S
C2270 H2266 0.929 . S
C2270 C2272 1.378 . S
C2270 C2274 1.350 . S
C2271 C2274 1.463 . S
C2271 C2276 1.350 . S
C2271 N2279 1.427 . S
C2272 H2263 0.930 . S
C2272 C2270 1.378 . S
C2272 C2273 1.367 . S
C2273 C2272 1.367 . S
C2273 C2275 1.433 . S
C2274 C2270 1.350 . S
C2274 C2271 1.463 . S
C2274 N2278 1.427 . S
C2275 H2265 0.929 . S
C2275 C2273 1.433 . S
C2275 N2278 1.384 . S
C2276 H2267 0.929 . S
C2276 C2268 1.378 . S
C2276 C2271 1.350 . S
C2277 H2264 0.929 . S
C2277 C2269 1.433 . S
C2277 N2279 1.384 . S
N2278 C2274 1.427 . S
N2278 C2275 1.384 . S
N2279 C2271 1.427 . S
N2279 C2277 1.384 . S
H2280 C2286 0.930 . S
H2281 C2290 0.930 . S
H2282 C2295 0.929 . S
H2283 C2293 0.929 . S
H2284 C2288 0.929 . S
H2285 C2294 0.929 . S
C2286 H2280 0.930 . S
C2286 C2287 1.367 . S
C2286 C2294 1.378 . S
C2287 C2286 1.367 . S
C2287 C2295 1.433 . S
C2288 H2284 0.929 . S
C2288 C2290 1.378 . S
C2288 C2292 1.350 . S
C2289 C2292 1.463 . S
C2289 C2294 1.350 . S
C2289 N2297 1.427 . S
C2290 H2281 0.930 . S
C2290 C2288 1.378 . S
C2290 C2291 1.367 . S
C2291 C2290 1.367 . S
C2291 C2293 1.433 . S
C2292 C2288 1.350 . S
C2292 C2289 1.463 . S
C2292 N2296 1.427 . S
C2293 H2283 0.929 . S
C2293 C2291 1.433 . S
C2293 N2296 1.384 . S
C2294 H2285 0.929 . S
C2294 C2286 1.378 . S
C2294 C2289 1.350 . S
C2295 H2282 0.929 . S
C2295 C2287 1.433 . S
C2295 N2297 1.384 . S
N2296 C2292 1.427 . S
N2296 C2293 1.384 . S
N2297 C2289 1.427 . S
N2297 C2295 1.384 . S
H2298 C2304 0.930 . S
H2299 C2308 0.930 . S
H2300 C2313 0.929 . S
H2301 C2311 0.929 . S
H2302 C2306 0.929 . S
H2303 C2312 0.929 . S
C2304 H2298 0.930 . S
C2304 C2305 1.367 . S
C2304 C2312 1.378 . S
C2305 C2304 1.367 . S
C2305 C2313 1.433 . S
C2306 H2302 0.929 . S
C2306 C2308 1.378 . S
C2306 C2310 1.350 . S
C2307 C2310 1.463 . S
C2307 C2312 1.350 . S
C2307 N2315 1.427 . S
C2308 H2299 0.930 . S
C2308 C2306 1.378 . S
C2308 C2309 1.367 . S
C2309 C2308 1.367 . S
C2309 C2311 1.433 . S
C2310 C2306 1.350 . S
C2310 C2307 1.463 . S
C2310 N2314 1.427 . S
C2311 H2301 0.929 . S
C2311 C2309 1.433 . S
C2311 N2314 1.384 . S
C2312 H2303 0.929 . S
C2312 C2304 1.378 . S
C2312 C2307 1.350 . S
C2313 H2300 0.929 . S
C2313 C2305 1.433 . S
C2313 N2315 1.384 . S
N2314 C2310 1.427 . S
N2314 C2311 1.384 . S
N2315 C2307 1.427 . S
N2315 C2313 1.384 . S
H2316 C2322 0.930 . S
H2317 C2326 0.930 . S
H2318 C2331 0.929 . S
H2319 C2329 0.929 . S
H2320 C2324 0.929 . S
H2321 C2330 0.929 . S
C2322 H2316 0.930 . S
C2322 C2323 1.367 . S
C2322 C2330 1.378 . S
C2323 C2322 1.367 . S
C2323 C2331 1.433 . S
C2324 H2320 0.929 . S
C2324 C2326 1.378 . S
C2324 C2328 1.350 . S
C2325 C2328 1.463 . S
C2325 C2330 1.350 . S
C2325 N2333 1.427 . S
C2326 H2317 0.930 . S
C2326 C2324 1.378 . S
C2326 C2327 1.367 . S
C2327 C2326 1.367 . S
C2327 C2329 1.433 . S
C2328 C2324 1.350 . S
C2328 C2325 1.463 . S
C2328 N2332 1.427 . S
C2329 H2319 0.929 . S
C2329 C2327 1.433 . S
C2329 N2332 1.384 . S
C2330 H2321 0.929 . S
C2330 C2322 1.378 . S
C2330 C2325 1.350 . S
C2331 H2318 0.929 . S
C2331 C2323 1.433 . S
C2331 N2333 1.384 . S
N2332 C2328 1.427 . S
N2332 C2329 1.384 . S
N2333 C2325 1.427 . S
N2333 C2331 1.384 . S
H2334 C2340 0.930 . S
H2335 C2344 0.930 . S
H2336 C2349 0.929 . S
H2337 C2347 0.929 . S
H2338 C2342 0.929 . S
H2339 C2348 0.929 . S
C2340 H2334 0.930 . S
C2340 C2341 1.367 . S
C2340 C2348 1.378 . S
C2341 C2340 1.367 . S
C2341 C2349 1.433 . S
C2342 H2338 0.929 . S
C2342 C2344 1.378 . S
C2342 C2346 1.350 . S
C2343 C2346 1.463 . S
C2343 C2348 1.350 . S
C2343 N2351 1.427 . S
C2344 H2335 0.930 . S
C2344 C2342 1.378 . S
C2344 C2345 1.367 . S
C2345 C2344 1.367 . S
C2345 C2347 1.433 . S
C2346 C2342 1.350 . S
C2346 C2343 1.463 . S
C2346 N2350 1.427 . S
C2347 H2337 0.929 . S
C2347 C2345 1.433 . S
C2347 N2350 1.384 . S
C2348 H2339 0.929 . S
C2348 C2340 1.378 . S
C2348 C2343 1.350 . S
C2349 H2336 0.929 . S
C2349 C2341 1.433 . S
C2349 N2351 1.384 . S
N2350 C2346 1.427 . S
N2350 C2347 1.384 . S
N2351 C2343 1.427 . S
N2351 C2349 1.384 . S
H2352 C2358 0.930 . S
H2353 C2362 0.930 . S
H2354 C2367 0.929 . S
H2355 C2365 0.929 . S
H2356 C2360 0.929 . S
H2357 C2366 0.929 . S
C2358 H2352 0.930 . S
C2358 C2359 1.367 . S
C2358 C2366 1.378 . S
C2359 C2358 1.367 . S
C2359 C2367 1.433 . S
C2360 H2356 0.929 . S
C2360 C2362 1.378 . S
C2360 C2364 1.350 . S
C2361 C2364 1.463 . S
C2361 C2366 1.350 . S
C2361 N2369 1.427 . S
C2362 H2353 0.930 . S
C2362 C2360 1.378 . S
C2362 C2363 1.367 . S
C2363 C2362 1.367 . S
C2363 C2365 1.433 . S
C2364 C2360 1.350 . S
C2364 C2361 1.463 . S
C2364 N2368 1.427 . S
C2365 H2355 0.929 . S
C2365 C2363 1.433 . S
C2365 N2368 1.384 . S
C2366 H2357 0.929 . S
C2366 C2358 1.378 . S
C2366 C2361 1.350 . S
C2367 H2354 0.929 . S
C2367 C2359 1.433 . S
C2367 N2369 1.384 . S
N2368 C2364 1.427 . S
N2368 C2365 1.384 . S
N2369 C2361 1.427 . S
N2369 C2367 1.384 . S
H2370 C2376 0.930 . S
H2371 C2380 0.930 . S
H2372 C2385 0.929 . S
H2373 C2383 0.929 . S
H2374 C2378 0.929 . S
H2375 C2384 0.929 . S
C2376 H2370 0.930 . S
C2376 C2377 1.367 . S
C2376 C2384 1.378 . S
C2377 C2376 1.367 . S
C2377 C2385 1.433 . S
C2378 H2374 0.929 . S
C2378 C2380 1.378 . S
C2378 C2382 1.350 . S
C2379 C2382 1.463 . S
C2379 C2384 1.350 . S
C2379 N2387 1.427 . S
C2380 H2371 0.930 . S
C2380 C2378 1.378 . S
C2380 C2381 1.367 . S
C2381 C2380 1.367 . S
C2381 C2383 1.433 . S
C2382 C2378 1.350 . S
C2382 C2379 1.463 . S
C2382 N2386 1.427 . S
C2383 H2373 0.929 . S
C2383 C2381 1.433 . S
C2383 N2386 1.384 . S
C2384 H2375 0.929 . S
C2384 C2376 1.378 . S
C2384 C2379 1.350 . S
C2385 H2372 0.929 . S
C2385 C2377 1.433 . S
C2385 N2387 1.384 . S
N2386 C2382 1.427 . S
N2386 C2383 1.384 . S
N2387 C2379 1.427 . S
N2387 C2385 1.384 . S
H2388 C2394 0.930 . S
H2389 C2398 0.930 . S
H2390 C2403 0.929 . S
H2391 C2401 0.929 . S
H2392 C2396 0.929 . S
H2393 C2402 0.929 . S
C2394 H2388 0.930 . S
C2394 C2395 1.367 . S
C2394 C2402 1.378 . S
C2395 C2394 1.367 . S
C2395 C2403 1.433 . S
C2396 H2392 0.929 . S
C2396 C2398 1.378 . S
C2396 C2400 1.350 . S
C2397 C2400 1.463 . S
C2397 C2402 1.350 . S
C2397 N2405 1.427 . S
C2398 H2389 0.930 . S
C2398 C2396 1.378 . S
C2398 C2399 1.367 . S
C2399 C2398 1.367 . S
C2399 C2401 1.433 . S
C2400 C2396 1.350 . S
C2400 C2397 1.463 . S
C2400 N2404 1.427 . S
C2401 H2391 0.929 . S
C2401 C2399 1.433 . S
C2401 N2404 1.384 . S
C2402 H2393 0.929 . S
C2402 C2394 1.378 . S
C2402 C2397 1.350 . S
C2403 H2390 0.929 . S
C2403 C2395 1.433 . S
C2403 N2405 1.384 . S
N2404 C2400 1.427 . S
N2404 C2401 1.384 . S
N2405 C2397 1.427 . S
N2405 C2403 1.384 . S
H2406 C2412 0.930 . S
H2407 C2416 0.930 . S
H2408 C2421 0.929 . S
H2409 C2419 0.929 . S
H2410 C2414 0.929 . S
H2411 C2420 0.929 . S
C2412 H2406 0.930 . S
C2412 C2413 1.367 . S
C2412 C2420 1.378 . S
C2413 C2412 1.367 . S
C2413 C2421 1.433 . S
C2414 H2410 0.929 . S
C2414 C2416 1.378 . S
C2414 C2418 1.350 . S
C2415 C2418 1.463 . S
C2415 C2420 1.350 . S
C2415 N2423 1.427 . S
C2416 H2407 0.930 . S
C2416 C2414 1.378 . S
C2416 C2417 1.367 . S
C2417 C2416 1.367 . S
C2417 C2419 1.433 . S
C2418 C2414 1.350 . S
C2418 C2415 1.463 . S
C2418 N2422 1.427 . S
C2419 H2409 0.929 . S
C2419 C2417 1.433 . S
C2419 N2422 1.384 . S
C2420 H2411 0.929 . S
C2420 C2412 1.378 . S
C2420 C2415 1.350 . S
C2421 H2408 0.929 . S
C2421 C2413 1.433 . S
C2421 N2423 1.384 . S
N2422 C2418 1.427 . S
N2422 C2419 1.384 . S
N2423 C2415 1.427 . S
N2423 C2421 1.384 . S
H2424 C2430 0.930 . S
H2425 C2434 0.930 . S
H2426 C2439 0.929 . S
H2427 C2437 0.929 . S
H2428 C2432 0.929 . S
H2429 C2438 0.929 . S
C2430 H2424 0.930 . S
C2430 C2431 1.367 . S
C2430 C2438 1.378 . S
C2431 C2430 1.367 . S
C2431 C2439 1.433 . S
C2432 H2428 0.929 . S
C2432 C2434 1.378 . S
C2432 C2436 1.350 . S
C2433 C2436 1.463 . S
C2433 C2438 1.350 . S
C2433 N2441 1.427 . S
C2434 H2425 0.930 . S
C2434 C2432 1.378 . S
C2434 C2435 1.367 . S
C2435 C2434 1.367 . S
C2435 C2437 1.433 . S
C2436 C2432 1.350 . S
C2436 C2433 1.463 . S
C2436 N2440 1.427 . S
C2437 H2427 0.929 . S
C2437 C2435 1.433 . S
C2437 N2440 1.384 . S
C2438 H2429 0.929 . S
C2438 C2430 1.378 . S
C2438 C2433 1.350 . S
C2439 H2426 0.929 . S
C2439 C2431 1.433 . S
C2439 N2441 1.384 . S
N2440 C2436 1.427 . S
N2440 C2437 1.384 . S
N2441 C2433 1.427 . S
N2441 C2439 1.384 . S
H2442 C2448 0.930 . S
H2443 C2452 0.930 . S
H2444 C2457 0.929 . S
H2445 C2455 0.929 . S
H2446 C2450 0.929 . S
H2447 C2456 0.929 . S
C2448 H2442 0.930 . S
C2448 C2449 1.367 . S
C2448 C2456 1.378 . S
C2449 C2448 1.367 . S
C2449 C2457 1.433 . S
C2450 H2446 0.929 . S
C2450 C2452 1.378 . S
C2450 C2454 1.350 . S
C2451 C2454 1.463 . S
C2451 C2456 1.350 . S
C2451 N2459 1.427 . S
C2452 H2443 0.930 . S
C2452 C2450 1.378 . S
C2452 C2453 1.367 . S
C2453 C2452 1.367 . S
C2453 C2455 1.433 . S
C2454 C2450 1.350 . S
C2454 C2451 1.463 . S
C2454 N2458 1.427 . S
C2455 H2445 0.929 . S
C2455 C2453 1.433 . S
C2455 N2458 1.384 . S
C2456 H2447 0.929 . S
C2456 C2448 1.378 . S
C2456 C2451 1.350 . S
C2457 H2444 0.929 . S
C2457 C2449 1.433 . S
C2457 N2459 1.384 . S
N2458 C2454 1.427 . S
N2458 C2455 1.384 . S
N2459 C2451 1.427 . S
N2459 C2457 1.384 . S
H2460 C2466 0.930 . S
H2461 C2470 0.930 . S
H2462 C2475 0.929 . S
H2463 C2473 0.929 . S
H2464 C2468 0.929 . S
H2465 C2474 0.929 . S
C2466 H2460 0.930 . S
C2466 C2467 1.367 . S
C2466 C2474 1.378 . S
C2467 C2466 1.367 . S
C2467 C2475 1.433 . S
C2468 H2464 0.929 . S
C2468 C2470 1.378 . S
C2468 C2472 1.350 . S
C2469 C2472 1.463 . S
C2469 C2474 1.350 . S
C2469 N2477 1.427 . S
C2470 H2461 0.930 . S
C2470 C2468 1.378 . S
C2470 C2471 1.367 . S
C2471 C2470 1.367 . S
C2471 C2473 1.433 . S
C2472 C2468 1.350 . S
C2472 C2469 1.463 . S
C2472 N2476 1.427 . S
C2473 H2463 0.929 . S
C2473 C2471 1.433 . S
C2473 N2476 1.384 . S
C2474 H2465 0.929 . S
C2474 C2466 1.378 . S
C2474 C2469 1.350 . S
C2475 H2462 0.929 . S
C2475 C2467 1.433 . S
C2475 N2477 1.384 . S
N2476 C2472 1.427 . S
N2476 C2473 1.384 . S
N2477 C2469 1.427 . S
N2477 C2475 1.384 . S
H2478 C2484 0.930 . S
H2479 C2488 0.930 . S
H2480 C2493 0.929 . S
H2481 C2491 0.929 . S
H2482 C2486 0.929 . S
H2483 C2492 0.929 . S
C2484 H2478 0.930 . S
C2484 C2485 1.367 . S
C2484 C2492 1.378 . S
C2485 C2484 1.367 . S
C2485 C2493 1.433 . S
C2486 H2482 0.929 . S
C2486 C2488 1.378 . S
C2486 C2490 1.350 . S
C2487 C2490 1.463 . S
C2487 C2492 1.350 . S
C2487 N2495 1.427 . S
C2488 H2479 0.930 . S
C2488 C2486 1.378 . S
C2488 C2489 1.367 . S
C2489 C2488 1.367 . S
C2489 C2491 1.433 . S
C2490 C2486 1.350 . S
C2490 C2487 1.463 . S
C2490 N2494 1.427 . S
C2491 H2481 0.929 . S
C2491 C2489 1.433 . S
C2491 N2494 1.384 . S
C2492 H2483 0.929 . S
C2492 C2484 1.378 . S
C2492 C2487 1.350 . S
C2493 H2480 0.929 . S
C2493 C2485 1.433 . S
C2493 N2495 1.384 . S
N2494 C2490 1.427 . S
N2494 C2491 1.384 . S
N2495 C2487 1.427 . S
N2495 C2493 1.384 . S
H2496 C2502 0.930 . S
H2497 C2506 0.930 . S
H2498 C2511 0.929 . S
H2499 C2509 0.929 . S
H2500 C2504 0.929 . S
H2501 C2510 0.929 . S
C2502 H2496 0.930 . S
C2502 C2503 1.367 . S
C2502 C2510 1.378 . S
C2503 C2502 1.367 . S
C2503 C2511 1.433 . S
C2504 H2500 0.929 . S
C2504 C2506 1.378 . S
C2504 C2508 1.350 . S
C2505 C2508 1.463 . S
C2505 C2510 1.350 . S
C2505 N2513 1.427 . S
C2506 H2497 0.930 . S
C2506 C2504 1.378 . S
C2506 C2507 1.367 . S
C2507 C2506 1.367 . S
C2507 C2509 1.433 . S
C2508 C2504 1.350 . S
C2508 C2505 1.463 . S
C2508 N2512 1.427 . S
C2509 H2499 0.929 . S
C2509 C2507 1.433 . S
C2509 N2512 1.384 . S
C2510 H2501 0.929 . S
C2510 C2502 1.378 . S
C2510 C2505 1.350 . S
C2511 H2498 0.929 . S
C2511 C2503 1.433 . S
C2511 N2513 1.384 . S
N2512 C2508 1.427 . S
N2512 C2509 1.384 . S
N2513 C2505 1.427 . S
N2513 C2511 1.384 . S
H2514 C2520 0.930 . S
H2515 C2524 0.930 . S
H2516 C2529 0.929 . S
H2517 C2527 0.929 . S
H2518 C2522 0.929 . S
H2519 C2528 0.929 . S
C2520 H2514 0.930 . S
C2520 C2521 1.367 . S
C2520 C2528 1.378 . S
C2521 C2520 1.367 . S
C2521 C2529 1.433 . S
C2522 H2518 0.929 . S
C2522 C2524 1.378 . S
C2522 C2526 1.350 . S
C2523 C2526 1.463 . S
C2523 C2528 1.350 . S
C2523 N2531 1.427 . S
C2524 H2515 0.930 . S
C2524 C2522 1.378 . S
C2524 C2525 1.367 . S
C2525 C2524 1.367 . S
C2525 C2527 1.433 . S
C2526 C2522 1.350 . S
C2526 C2523 1.463 . S
C2526 N2530 1.427 . S
C2527 H2517 0.929 . S
C2527 C2525 1.433 . S
C2527 N2530 1.384 . S
C2528 H2519 0.929 . S
C2528 C2520 1.378 . S
C2528 C2523 1.350 . S
C2529 H2516 0.929 . S
C2529 C2521 1.433 . S
C2529 N2531 1.384 . S
N2530 C2526 1.427 . S
N2530 C2527 1.384 . S
N2531 C2523 1.427 . S
N2531 C2529 1.384 . S
H2532 C2538 0.930 . S
H2533 C2542 0.930 . S
H2534 C2547 0.929 . S
H2535 C2545 0.929 . S
H2536 C2540 0.929 . S
H2537 C2546 0.929 . S
C2538 H2532 0.930 . S
C2538 C2539 1.367 . S
C2538 C2546 1.378 . S
C2539 C2538 1.367 . S
C2539 C2547 1.433 . S
C2540 H2536 0.929 . S
C2540 C2542 1.378 . S
C2540 C2544 1.350 . S
C2541 C2544 1.463 . S
C2541 C2546 1.350 . S
C2541 N2549 1.427 . S
C2542 H2533 0.930 . S
C2542 C2540 1.378 . S
C2542 C2543 1.367 . S
C2543 C2542 1.367 . S
C2543 C2545 1.433 . S
C2544 C2540 1.350 . S
C2544 C2541 1.463 . S
C2544 N2548 1.427 . S
C2545 H2535 0.929 . S
C2545 C2543 1.433 . S
C2545 N2548 1.384 . S
C2546 H2537 0.929 . S
C2546 C2538 1.378 . S
C2546 C2541 1.350 . S
C2547 H2534 0.929 . S
C2547 C2539 1.433 . S
C2547 N2549 1.384 . S
N2548 C2544 1.427 . S
N2548 C2545 1.384 . S
N2549 C2541 1.427 . S
N2549 C2547 1.384 . S
H2550 C2556 0.930 . S
H2551 C2560 0.930 . S
H2552 C2565 0.929 . S
H2553 C2563 0.929 . S
H2554 C2558 0.929 . S
H2555 C2564 0.929 . S
C2556 H2550 0.930 . S
C2556 C2557 1.367 . S
C2556 C2564 1.378 . S
C2557 C2556 1.367 . S
C2557 C2565 1.433 . S
C2558 H2554 0.929 . S
C2558 C2560 1.378 . S
C2558 C2562 1.350 . S
C2559 C2562 1.463 . S
C2559 C2564 1.350 . S
C2559 N2567 1.427 . S
C2560 H2551 0.930 . S
C2560 C2558 1.378 . S
C2560 C2561 1.367 . S
C2561 C2560 1.367 . S
C2561 C2563 1.433 . S
C2562 C2558 1.350 . S
C2562 C2559 1.463 . S
C2562 N2566 1.427 . S
C2563 H2553 0.929 . S
C2563 C2561 1.433 . S
C2563 N2566 1.384 . S
C2564 H2555 0.929 . S
C2564 C2556 1.378 . S
C2564 C2559 1.350 . S
C2565 H2552 0.929 . S
C2565 C2557 1.433 . S
C2565 N2567 1.384 . S
N2566 C2562 1.427 . S
N2566 C2563 1.384 . S
N2567 C2559 1.427 . S
N2567 C2565 1.384 . S
H2568 C2574 0.930 . S
H2569 C2578 0.930 . S
H2570 C2583 0.929 . S
H2571 C2581 0.929 . S
H2572 C2576 0.929 . S
H2573 C2582 0.929 . S
C2574 H2568 0.930 . S
C2574 C2575 1.367 . S
C2574 C2582 1.378 . S
C2575 C2574 1.367 . S
C2575 C2583 1.433 . S
C2576 H2572 0.929 . S
C2576 C2578 1.378 . S
C2576 C2580 1.350 . S
C2577 C2580 1.463 . S
C2577 C2582 1.350 . S
C2577 N2585 1.427 . S
C2578 H2569 0.930 . S
C2578 C2576 1.378 . S
C2578 C2579 1.367 . S
C2579 C2578 1.367 . S
C2579 C2581 1.433 . S
C2580 C2576 1.350 . S
C2580 C2577 1.463 . S
C2580 N2584 1.427 . S
C2581 H2571 0.929 . S
C2581 C2579 1.433 . S
C2581 N2584 1.384 . S
C2582 H2573 0.929 . S
C2582 C2574 1.378 . S
C2582 C2577 1.350 . S
C2583 H2570 0.929 . S
C2583 C2575 1.433 . S
C2583 N2585 1.384 . S
N2584 C2580 1.427 . S
N2584 C2581 1.384 . S
N2585 C2577 1.427 . S
N2585 C2583 1.384 . S
H2586 C2592 0.930 . S
H2587 C2596 0.930 . S
H2588 C2601 0.929 . S
H2589 C2599 0.929 . S
H2590 C2594 0.929 . S
H2591 C2600 0.929 . S
C2592 H2586 0.930 . S
C2592 C2593 1.367 . S
C2592 C2600 1.378 . S
C2593 C2592 1.367 . S
C2593 C2601 1.433 . S
C2594 H2590 0.929 . S
C2594 C2596 1.378 . S
C2594 C2598 1.350 . S
C2595 C2598 1.463 . S
C2595 C2600 1.350 . S
C2595 N2603 1.427 . S
C2596 H2587 0.930 . S
C2596 C2594 1.378 . S
C2596 C2597 1.367 . S
C2597 C2596 1.367 . S
C2597 C2599 1.433 . S
C2598 C2594 1.350 . S
C2598 C2595 1.463 . S
C2598 N2602 1.427 . S
C2599 H2589 0.929 . S
C2599 C2597 1.433 . S
C2599 N2602 1.384 . S
C2600 H2591 0.929 . S
C2600 C2592 1.378 . S
C2600 C2595 1.350 . S
C2601 H2588 0.929 . S
C2601 C2593 1.433 . S
C2601 N2603 1.384 . S
N2602 C2598 1.427 . S
N2602 C2599 1.384 . S
N2603 C2595 1.427 . S
N2603 C2601 1.384 . S
H2604 C2610 0.930 . S
H2605 C2614 0.930 . S
H2606 C2619 0.929 . S
H2607 C2617 0.929 . S
H2608 C2612 0.929 . S
H2609 C2618 0.929 . S
C2610 H2604 0.930 . S
C2610 C2611 1.367 . S
C2610 C2618 1.378 . S
C2611 C2610 1.367 . S
C2611 C2619 1.433 . S
C2612 H2608 0.929 . S
C2612 C2614 1.378 . S
C2612 C2616 1.350 . S
C2613 C2616 1.463 . S
C2613 C2618 1.350 . S
C2613 N2621 1.427 . S
C2614 H2605 0.930 . S
C2614 C2612 1.378 . S
C2614 C2615 1.367 . S
C2615 C2614 1.367 . S
C2615 C2617 1.433 . S
C2616 C2612 1.350 . S
C2616 C2613 1.463 . S
C2616 N2620 1.427 . S
C2617 H2607 0.929 . S
C2617 C2615 1.433 . S
C2617 N2620 1.384 . S
C2618 H2609 0.929 . S
C2618 C2610 1.378 . S
C2618 C2613 1.350 . S
C2619 H2606 0.929 . S
C2619 C2611 1.433 . S
C2619 N2621 1.384 . S
N2620 C2616 1.427 . S
N2620 C2617 1.384 . S
N2621 C2613 1.427 . S
N2621 C2619 1.384 . S
H2622 C2628 0.930 . S
H2623 C2632 0.930 . S
H2624 C2637 0.929 . S
H2625 C2635 0.929 . S
H2626 C2630 0.929 . S
H2627 C2636 0.929 . S
C2628 H2622 0.930 . S
C2628 C2629 1.367 . S
C2628 C2636 1.378 . S
C2629 C2628 1.367 . S
C2629 C2637 1.433 . S
C2630 H2626 0.929 . S
C2630 C2632 1.378 . S
C2630 C2634 1.350 . S
C2631 C2634 1.463 . S
C2631 C2636 1.350 . S
C2631 N2639 1.427 . S
C2632 H2623 0.930 . S
C2632 C2630 1.378 . S
C2632 C2633 1.367 . S
C2633 C2632 1.367 . S
C2633 C2635 1.433 . S
C2634 C2630 1.350 . S
C2634 C2631 1.463 . S
C2634 N2638 1.427 . S
C2635 H2625 0.929 . S
C2635 C2633 1.433 . S
C2635 N2638 1.384 . S
C2636 H2627 0.929 . S
C2636 C2628 1.378 . S
C2636 C2631 1.350 . S
C2637 H2624 0.929 . S
C2637 C2629 1.433 . S
C2637 N2639 1.384 . S
N2638 C2634 1.427 . S
N2638 C2635 1.384 . S
N2639 C2631 1.427 . S
N2639 C2637 1.384 . S
H2640 C2646 0.930 . S
H2641 C2650 0.930 . S
H2642 C2655 0.929 . S
H2643 C2653 0.929 . S
H2644 C2648 0.929 . S
H2645 C2654 0.929 . S
C2646 H2640 0.930 . S
C2646 C2647 1.367 . S
C2646 C2654 1.378 . S
C2647 C2646 1.367 . S
C2647 C2655 1.433 . S
C2648 H2644 0.929 . S
C2648 C2650 1.378 . S
C2648 C2652 1.350 . S
C2649 C2652 1.463 . S
C2649 C2654 1.350 . S
C2649 N2657 1.427 . S
C2650 H2641 0.930 . S
C2650 C2648 1.378 . S
C2650 C2651 1.367 . S
C2651 C2650 1.367 . S
C2651 C2653 1.433 . S
C2652 C2648 1.350 . S
C2652 C2649 1.463 . S
C2652 N2656 1.427 . S
C2653 H2643 0.929 . S
C2653 C2651 1.433 . S
C2653 N2656 1.384 . S
C2654 H2645 0.929 . S
C2654 C2646 1.378 . S
C2654 C2649 1.350 . S
C2655 H2642 0.929 . S
C2655 C2647 1.433 . S
C2655 N2657 1.384 . S
N2656 C2652 1.427 . S
N2656 C2653 1.384 . S
N2657 C2649 1.427 . S
N2657 C2655 1.384 . S
H2658 C2664 0.930 . S
H2659 C2668 0.930 . S
H2660 C2673 0.929 . S
H2661 C2671 0.929 . S
H2662 C2666 0.929 . S
H2663 C2672 0.929 . S
C2664 H2658 0.930 . S
C2664 C2665 1.367 . S
C2664 C2672 1.378 . S
C2665 C2664 1.367 . S
C2665 C2673 1.433 . S
C2666 H2662 0.929 . S
C2666 C2668 1.378 . S
C2666 C2670 1.350 . S
C2667 C2670 1.463 . S
C2667 C2672 1.350 . S
C2667 N2675 1.427 . S
C2668 H2659 0.930 . S
C2668 C2666 1.378 . S
C2668 C2669 1.367 . S
C2669 C2668 1.367 . S
C2669 C2671 1.433 . S
C2670 C2666 1.350 . S
C2670 C2667 1.463 . S
C2670 N2674 1.427 . S
C2671 H2661 0.929 . S
C2671 C2669 1.433 . S
C2671 N2674 1.384 . S
C2672 H2663 0.929 . S
C2672 C2664 1.378 . S
C2672 C2667 1.350 . S
C2673 H2660 0.929 . S
C2673 C2665 1.433 . S
C2673 N2675 1.384 . S
N2674 C2670 1.427 . S
N2674 C2671 1.384 . S
N2675 C2667 1.427 . S
N2675 C2673 1.384 . S
H2676 C2682 0.930 . S
H2677 C2686 0.930 . S
H2678 C2691 0.929 . S
H2679 C2689 0.929 . S
H2680 C2684 0.929 . S
H2681 C2690 0.929 . S
C2682 H2676 0.930 . S
C2682 C2683 1.367 . S
C2682 C2690 1.378 . S
C2683 C2682 1.367 . S
C2683 C2691 1.433 . S
C2684 H2680 0.929 . S
C2684 C2686 1.378 . S
C2684 C2688 1.350 . S
C2685 C2688 1.463 . S
C2685 C2690 1.350 . S
C2685 N2693 1.427 . S
C2686 H2677 0.930 . S
C2686 C2684 1.378 . S
C2686 C2687 1.367 . S
C2687 C2686 1.367 . S
C2687 C2689 1.433 . S
C2688 C2684 1.350 . S
C2688 C2685 1.463 . S
C2688 N2692 1.427 . S
C2689 H2679 0.929 . S
C2689 C2687 1.433 . S
C2689 N2692 1.384 . S
C2690 H2681 0.929 . S
C2690 C2682 1.378 . S
C2690 C2685 1.350 . S
C2691 H2678 0.929 . S
C2691 C2683 1.433 . S
C2691 N2693 1.384 . S
N2692 C2688 1.427 . S
N2692 C2689 1.384 . S
N2693 C2685 1.427 . S
N2693 C2691 1.384 . S
H2694 C2700 0.930 . S
H2695 C2704 0.930 . S
H2696 C2709 0.929 . S
H2697 C2707 0.929 . S
H2698 C2702 0.929 . S
H2699 C2708 0.929 . S
C2700 H2694 0.930 . S
C2700 C2701 1.367 . S
C2700 C2708 1.378 . S
C2701 C2700 1.367 . S
C2701 C2709 1.433 . S
C2702 H2698 0.929 . S
C2702 C2704 1.378 . S
C2702 C2706 1.350 . S
C2703 C2706 1.463 . S
C2703 C2708 1.350 . S
C2703 N2711 1.427 . S
C2704 H2695 0.930 . S
C2704 C2702 1.378 . S
C2704 C2705 1.367 . S
C2705 C2704 1.367 . S
C2705 C2707 1.433 . S
C2706 C2702 1.350 . S
C2706 C2703 1.463 . S
C2706 N2710 1.427 . S
C2707 H2697 0.929 . S
C2707 C2705 1.433 . S
C2707 N2710 1.384 . S
C2708 H2699 0.929 . S
C2708 C2700 1.378 . S
C2708 C2703 1.350 . S
C2709 H2696 0.929 . S
C2709 C2701 1.433 . S
C2709 N2711 1.384 . S
N2710 C2706 1.427 . S
N2710 C2707 1.384 . S
N2711 C2703 1.427 . S
N2711 C2709 1.384 . S
H2712 C2718 0.930 . S
H2713 C2722 0.930 . S
H2714 C2727 0.929 . S
H2715 C2725 0.929 . S
H2716 C2720 0.929 . S
H2717 C2726 0.929 . S
C2718 H2712 0.930 . S
C2718 C2719 1.367 . S
C2718 C2726 1.378 . S
C2719 C2718 1.367 . S
C2719 C2727 1.433 . S
C2720 H2716 0.929 . S
C2720 C2722 1.378 . S
C2720 C2724 1.350 . S
C2721 C2724 1.463 . S
C2721 C2726 1.350 . S
C2721 N2729 1.427 . S
C2722 H2713 0.930 . S
C2722 C2720 1.378 . S
C2722 C2723 1.367 . S
C2723 C2722 1.367 . S
C2723 C2725 1.433 . S
C2724 C2720 1.350 . S
C2724 C2721 1.463 . S
C2724 N2728 1.427 . S
C2725 H2715 0.929 . S
C2725 C2723 1.433 . S
C2725 N2728 1.384 . S
C2726 H2717 0.929 . S
C2726 C2718 1.378 . S
C2726 C2721 1.350 . S
C2727 H2714 0.929 . S
C2727 C2719 1.433 . S
C2727 N2729 1.384 . S
N2728 C2724 1.427 . S
N2728 C2725 1.384 . S
N2729 C2721 1.427 . S
N2729 C2727 1.384 . S
H2730 C2736 0.930 . S
H2731 C2740 0.930 . S
H2732 C2745 0.929 . S
H2733 C2743 0.929 . S
H2734 C2738 0.929 . S
H2735 C2744 0.929 . S
C2736 H2730 0.930 . S
C2736 C2737 1.367 . S
C2736 C2744 1.378 . S
C2737 C2736 1.367 . S
C2737 C2745 1.433 . S
C2738 H2734 0.929 . S
C2738 C2740 1.378 . S
C2738 C2742 1.350 . S
C2739 C2742 1.463 . S
C2739 C2744 1.350 . S
C2739 N2747 1.427 . S
C2740 H2731 0.930 . S
C2740 C2738 1.378 . S
C2740 C2741 1.367 . S
C2741 C2740 1.367 . S
C2741 C2743 1.433 . S
C2742 C2738 1.350 . S
C2742 C2739 1.463 . S
C2742 N2746 1.427 . S
C2743 H2733 0.929 . S
C2743 C2741 1.433 . S
C2743 N2746 1.384 . S
C2744 H2735 0.929 . S
C2744 C2736 1.378 . S
C2744 C2739 1.350 . S
C2745 H2732 0.929 . S
C2745 C2737 1.433 . S
C2745 N2747 1.384 . S
N2746 C2742 1.427 . S
N2746 C2743 1.384 . S
N2747 C2739 1.427 . S
N2747 C2745 1.384 . S
H2748 C2754 0.930 . S
H2749 C2758 0.930 . S
H2750 C2763 0.929 . S
H2751 C2761 0.929 . S
H2752 C2756 0.929 . S
H2753 C2762 0.929 . S
C2754 H2748 0.930 . S
C2754 C2755 1.367 . S
C2754 C2762 1.378 . S
C2755 C2754 1.367 . S
C2755 C2763 1.433 . S
C2756 H2752 0.929 . S
C2756 C2758 1.378 . S
C2756 C2760 1.350 . S
C2757 C2760 1.463 . S
C2757 C2762 1.350 . S
C2757 N2765 1.427 . S
C2758 H2749 0.930 . S
C2758 C2756 1.378 . S
C2758 C2759 1.367 . S
C2759 C2758 1.367 . S
C2759 C2761 1.433 . S
C2760 C2756 1.350 . S
C2760 C2757 1.463 . S
C2760 N2764 1.427 . S
C2761 H2751 0.929 . S
C2761 C2759 1.433 . S
C2761 N2764 1.384 . S
C2762 H2753 0.929 . S
C2762 C2754 1.378 . S
C2762 C2757 1.350 . S
C2763 H2750 0.929 . S
C2763 C2755 1.433 . S
C2763 N2765 1.384 . S
N2764 C2760 1.427 . S
N2764 C2761 1.384 . S
N2765 C2757 1.427 . S
N2765 C2763 1.384 . S
H2766 C2772 0.930 . S
H2767 C2776 0.930 . S
H2768 C2781 0.929 . S
H2769 C2779 0.929 . S
H2770 C2774 0.929 . S
H2771 C2780 0.929 . S
C2772 H2766 0.930 . S
C2772 C2773 1.367 . S
C2772 C2780 1.378 . S
C2773 C2772 1.367 . S
C2773 C2781 1.433 . S
C2774 H2770 0.929 . S
C2774 C2776 1.378 . S
C2774 C2778 1.350 . S
C2775 C2778 1.463 . S
C2775 C2780 1.350 . S
C2775 N2783 1.427 . S
C2776 H2767 0.930 . S
C2776 C2774 1.378 . S
C2776 C2777 1.367 . S
C2777 C2776 1.367 . S
C2777 C2779 1.433 . S
C2778 C2774 1.350 . S
C2778 C2775 1.463 . S
C2778 N2782 1.427 . S
C2779 H2769 0.929 . S
C2779 C2777 1.433 . S
C2779 N2782 1.384 . S
C2780 H2771 0.929 . S
C2780 C2772 1.378 . S
C2780 C2775 1.350 . S
C2781 H2768 0.929 . S
C2781 C2773 1.433 . S
C2781 N2783 1.384 . S
N2782 C2778 1.427 . S
N2782 C2779 1.384 . S
N2783 C2775 1.427 . S
N2783 C2781 1.384 . S
H2784 C2790 0.930 . S
H2785 C2794 0.930 . S
H2786 C2799 0.929 . S
H2787 C2797 0.929 . S
H2788 C2792 0.929 . S
H2789 C2798 0.929 . S
C2790 H2784 0.930 . S
C2790 C2791 1.367 . S
C2790 C2798 1.378 . S
C2791 C2790 1.367 . S
C2791 C2799 1.433 . S
C2792 H2788 0.929 . S
C2792 C2794 1.378 . S
C2792 C2796 1.350 . S
C2793 C2796 1.463 . S
C2793 C2798 1.350 . S
C2793 N2801 1.427 . S
C2794 H2785 0.930 . S
C2794 C2792 1.378 . S
C2794 C2795 1.367 . S
C2795 C2794 1.367 . S
C2795 C2797 1.433 . S
C2796 C2792 1.350 . S
C2796 C2793 1.463 . S
C2796 N2800 1.427 . S
C2797 H2787 0.929 . S
C2797 C2795 1.433 . S
C2797 N2800 1.384 . S
C2798 H2789 0.929 . S
C2798 C2790 1.378 . S
C2798 C2793 1.350 . S
C2799 H2786 0.929 . S
C2799 C2791 1.433 . S
C2799 N2801 1.384 . S
N2800 C2796 1.427 . S
N2800 C2797 1.384 . S
N2801 C2793 1.427 . S
N2801 C2799 1.384 . S
H2802 C2808 0.930 . S
H2803 C2812 0.930 . S
H2804 C2817 0.929 . S
H2805 C2815 0.929 . S
H2806 C2810 0.929 . S
H2807 C2816 0.929 . S
C2808 H2802 0.930 . S
C2808 C2809 1.367 . S
C2808 C2816 1.378 . S
C2809 C2808 1.367 . S
C2809 C2817 1.433 . S
C2810 H2806 0.929 . S
C2810 C2812 1.378 . S
C2810 C2814 1.350 . S
C2811 C2814 1.463 . S
C2811 C2816 1.350 . S
C2811 N2819 1.427 . S
C2812 H2803 0.930 . S
C2812 C2810 1.378 . S
C2812 C2813 1.367 . S
C2813 C2812 1.367 . S
C2813 C2815 1.433 . S
C2814 C2810 1.350 . S
C2814 C2811 1.463 . S
C2814 N2818 1.427 . S
C2815 H2805 0.929 . S
C2815 C2813 1.433 . S
C2815 N2818 1.384 . S
C2816 H2807 0.929 . S
C2816 C2808 1.378 . S
C2816 C2811 1.350 . S
C2817 H2804 0.929 . S
C2817 C2809 1.433 . S
C2817 N2819 1.384 . S
N2818 C2814 1.427 . S
N2818 C2815 1.384 . S
N2819 C2811 1.427 . S
N2819 C2817 1.384 . S
H2820 C2826 0.930 . S
H2821 C2830 0.930 . S
H2822 C2835 0.929 . S
H2823 C2833 0.929 . S
H2824 C2828 0.929 . S
H2825 C2834 0.929 . S
C2826 H2820 0.930 . S
C2826 C2827 1.367 . S
C2826 C2834 1.378 . S
C2827 C2826 1.367 . S
C2827 C2835 1.433 . S
C2828 H2824 0.929 . S
C2828 C2830 1.378 . S
C2828 C2832 1.350 . S
C2829 C2832 1.463 . S
C2829 C2834 1.350 . S
C2829 N2837 1.427 . S
C2830 H2821 0.930 . S
C2830 C2828 1.378 . S
C2830 C2831 1.367 . S
C2831 C2830 1.367 . S
C2831 C2833 1.433 . S
C2832 C2828 1.350 . S
C2832 C2829 1.463 . S
C2832 N2836 1.427 . S
C2833 H2823 0.929 . S
C2833 C2831 1.433 . S
C2833 N2836 1.384 . S
C2834 H2825 0.929 . S
C2834 C2826 1.378 . S
C2834 C2829 1.350 . S
C2835 H2822 0.929 . S
C2835 C2827 1.433 . S
C2835 N2837 1.384 . S
N2836 C2832 1.427 . S
N2836 C2833 1.384 . S
N2837 C2829 1.427 . S
N2837 C2835 1.384 . S
H2838 C2844 0.930 . S
H2839 C2848 0.930 . S
H2840 C2853 0.929 . S
H2841 C2851 0.929 . S
H2842 C2846 0.929 . S
H2843 C2852 0.929 . S
C2844 H2838 0.930 . S
C2844 C2845 1.367 . S
C2844 C2852 1.378 . S
C2845 C2844 1.367 . S
C2845 C2853 1.433 . S
C2846 H2842 0.929 . S
C2846 C2848 1.378 . S
C2846 C2850 1.350 . S
C2847 C2850 1.463 . S
C2847 C2852 1.350 . S
C2847 N2855 1.427 . S
C2848 H2839 0.930 . S
C2848 C2846 1.378 . S
C2848 C2849 1.367 . S
C2849 C2848 1.367 . S
C2849 C2851 1.433 . S
C2850 C2846 1.350 . S
C2850 C2847 1.463 . S
C2850 N2854 1.427 . S
C2851 H2841 0.929 . S
C2851 C2849 1.433 . S
C2851 N2854 1.384 . S
C2852 H2843 0.929 . S
C2852 C2844 1.378 . S
C2852 C2847 1.350 . S
C2853 H2840 0.929 . S
C2853 C2845 1.433 . S
C2853 N2855 1.384 . S
N2854 C2850 1.427 . S
N2854 C2851 1.384 . S
N2855 C2847 1.427 . S
N2855 C2853 1.384 . S
H2856 C2862 0.930 . S
H2857 C2866 0.930 . S
H2858 C2871 0.929 . S
H2859 C2869 0.929 . S
H2860 C2864 0.929 . S
H2861 C2870 0.929 . S
C2862 H2856 0.930 . S
C2862 C2863 1.367 . S
C2862 C2870 1.378 . S
C2863 C2862 1.367 . S
C2863 C2871 1.433 . S
C2864 H2860 0.929 . S
C2864 C2866 1.378 . S
C2864 C2868 1.350 . S
C2865 C2868 1.463 . S
C2865 C2870 1.350 . S
C2865 N2873 1.427 . S
C2866 H2857 0.930 . S
C2866 C2864 1.378 . S
C2866 C2867 1.367 . S
C2867 C2866 1.367 . S
C2867 C2869 1.433 . S
C2868 C2864 1.350 . S
C2868 C2865 1.463 . S
C2868 N2872 1.427 . S
C2869 H2859 0.929 . S
C2869 C2867 1.433 . S
C2869 N2872 1.384 . S
C2870 H2861 0.929 . S
C2870 C2862 1.378 . S
C2870 C2865 1.350 . S
C2871 H2858 0.929 . S
C2871 C2863 1.433 . S
C2871 N2873 1.384 . S
N2872 C2868 1.427 . S
N2872 C2869 1.384 . S
N2873 C2865 1.427 . S
N2873 C2871 1.384 . S
H2874 C2880 0.930 . S
H2875 C2884 0.930 . S
H2876 C2889 0.929 . S
H2877 C2887 0.929 . S
H2878 C2882 0.929 . S
H2879 C2888 0.929 . S
C2880 H2874 0.930 . S
C2880 C2881 1.367 . S
C2880 C2888 1.378 . S
C2881 C2880 1.367 . S
C2881 C2889 1.433 . S
C2882 H2878 0.929 . S
C2882 C2884 1.378 . S
C2882 C2886 1.350 . S
C2883 C2886 1.463 . S
C2883 C2888 1.350 . S
C2883 N2891 1.427 . S
C2884 H2875 0.930 . S
C2884 C2882 1.378 . S
C2884 C2885 1.367 . S
C2885 C2884 1.367 . S
C2885 C2887 1.433 . S
C2886 C2882 1.350 . S
C2886 C2883 1.463 . S
C2886 N2890 1.427 . S
C2887 H2877 0.929 . S
C2887 C2885 1.433 . S
C2887 N2890 1.384 . S
C2888 H2879 0.929 . S
C2888 C2880 1.378 . S
C2888 C2883 1.350 . S
C2889 H2876 0.929 . S
C2889 C2881 1.433 . S
C2889 N2891 1.384 . S
N2890 C2886 1.427 . S
N2890 C2887 1.384 . S
N2891 C2883 1.427 . S
N2891 C2889 1.384 . S
H2892 C2898 0.930 . S
H2893 C2902 0.930 . S
H2894 C2907 0.929 . S
H2895 C2905 0.929 . S
H2896 C2900 0.929 . S
H2897 C2906 0.929 . S
C2898 H2892 0.930 . S
C2898 C2899 1.367 . S
C2898 C2906 1.378 . S
C2899 C2898 1.367 . S
C2899 C2907 1.433 . S
C2900 H2896 0.929 . S
C2900 C2902 1.378 . S
C2900 C2904 1.350 . S
C2901 C2904 1.463 . S
C2901 C2906 1.350 . S
C2901 N2909 1.427 . S
C2902 H2893 0.930 . S
C2902 C2900 1.378 . S
C2902 C2903 1.367 . S
C2903 C2902 1.367 . S
C2903 C2905 1.433 . S
C2904 C2900 1.350 . S
C2904 C2901 1.463 . S
C2904 N2908 1.427 . S
C2905 H2895 0.929 . S
C2905 C2903 1.433 . S
C2905 N2908 1.384 . S
C2906 H2897 0.929 . S
C2906 C2898 1.378 . S
C2906 C2901 1.350 . S
C2907 H2894 0.929 . S
C2907 C2899 1.433 . S
C2907 N2909 1.384 . S
N2908 C2904 1.427 . S
N2908 C2905 1.384 . S
N2909 C2901 1.427 . S
N2909 C2907 1.384 . S
H2910 C2916 0.930 . S
H2911 C2920 0.930 . S
H2912 C2925 0.929 . S
H2913 C2923 0.929 . S
H2914 C2918 0.929 . S
H2915 C2924 0.929 . S
C2916 H2910 0.930 . S
C2916 C2917 1.367 . S
C2916 C2924 1.378 . S
C2917 C2916 1.367 . S
C2917 C2925 1.433 . S
C2918 H2914 0.929 . S
C2918 C2920 1.378 . S
C2918 C2922 1.350 . S
C2919 C2922 1.463 . S
C2919 C2924 1.350 . S
C2919 N2927 1.427 . S
C2920 H2911 0.930 . S
C2920 C2918 1.378 . S
C2920 C2921 1.367 . S
C2921 C2920 1.367 . S
C2921 C2923 1.433 . S
C2922 C2918 1.350 . S
C2922 C2919 1.463 . S
C2922 N2926 1.427 . S
C2923 H2913 0.929 . S
C2923 C2921 1.433 . S
C2923 N2926 1.384 . S
C2924 H2915 0.929 . S
C2924 C2916 1.378 . S
C2924 C2919 1.350 . S
C2925 H2912 0.929 . S
C2925 C2917 1.433 . S
C2925 N2927 1.384 . S
N2926 C2922 1.427 . S
N2926 C2923 1.384 . S
N2927 C2919 1.427 . S
N2927 C2925 1.384 . S
H2928 C2934 0.930 . S
H2929 C2938 0.930 . S
H2930 C2943 0.929 . S
H2931 C2941 0.929 . S
H2932 C2936 0.929 . S
H2933 C2942 0.929 . S
C2934 H2928 0.930 . S
C2934 C2935 1.367 . S
C2934 C2942 1.378 . S
C2935 C2934 1.367 . S
C2935 C2943 1.433 . S
C2936 H2932 0.929 . S
C2936 C2938 1.378 . S
C2936 C2940 1.350 . S
C2937 C2940 1.463 . S
C2937 C2942 1.350 . S
C2937 N2945 1.427 . S
C2938 H2929 0.930 . S
C2938 C2936 1.378 . S
C2938 C2939 1.367 . S
C2939 C2938 1.367 . S
C2939 C2941 1.433 . S
C2940 C2936 1.350 . S
C2940 C2937 1.463 . S
C2940 N2944 1.427 . S
C2941 H2931 0.929 . S
C2941 C2939 1.433 . S
C2941 N2944 1.384 . S
C2942 H2933 0.929 . S
C2942 C2934 1.378 . S
C2942 C2937 1.350 . S
C2943 H2930 0.929 . S
C2943 C2935 1.433 . S
C2943 N2945 1.384 . S
N2944 C2940 1.427 . S
N2944 C2941 1.384 . S
N2945 C2937 1.427 . S
N2945 C2943 1.384 . S
H2946 C2952 0.930 . S
H2947 C2956 0.930 . S
H2948 C2961 0.929 . S
H2949 C2959 0.929 . S
H2950 C2954 0.929 . S
H2951 C2960 0.929 . S
C2952 H2946 0.930 . S
C2952 C2953 1.367 . S
C2952 C2960 1.378 . S
C2953 C2952 1.367 . S
C2953 C2961 1.433 . S
C2954 H2950 0.929 . S
C2954 C2956 1.378 . S
C2954 C2958 1.350 . S
C2955 C2958 1.463 . S
C2955 C2960 1.350 . S
C2955 N2963 1.427 . S
C2956 H2947 0.930 . S
C2956 C2954 1.378 . S
C2956 C2957 1.367 . S
C2957 C2956 1.367 . S
C2957 C2959 1.433 . S
C2958 C2954 1.350 . S
C2958 C2955 1.463 . S
C2958 N2962 1.427 . S
C2959 H2949 0.929 . S
C2959 C2957 1.433 . S
C2959 N2962 1.384 . S
C2960 H2951 0.929 . S
C2960 C2952 1.378 . S
C2960 C2955 1.350 . S
C2961 H2948 0.929 . S
C2961 C2953 1.433 . S
C2961 N2963 1.384 . S
N2962 C2958 1.427 . S
N2962 C2959 1.384 . S
N2963 C2955 1.427 . S
N2963 C2961 1.384 . S
H2964 C2970 0.930 . S
H2965 C2974 0.930 . S
H2966 C2979 0.929 . S
H2967 C2977 0.929 . S
H2968 C2972 0.929 . S
H2969 C2978 0.929 . S
C2970 H2964 0.930 . S
C2970 C2971 1.367 . S
C2970 C2978 1.378 . S
C2971 C2970 1.367 . S
C2971 C2979 1.433 . S
C2972 H2968 0.929 . S
C2972 C2974 1.378 . S
C2972 C2976 1.350 . S
C2973 C2976 1.463 . S
C2973 C2978 1.350 . S
C2973 N2981 1.427 . S
C2974 H2965 0.930 . S
C2974 C2972 1.378 . S
C2974 C2975 1.367 . S
C2975 C2974 1.367 . S
C2975 C2977 1.433 . S
C2976 C2972 1.350 . S
C2976 C2973 1.463 . S
C2976 N2980 1.427 . S
C2977 H2967 0.929 . S
C2977 C2975 1.433 . S
C2977 N2980 1.384 . S
C2978 H2969 0.929 . S
C2978 C2970 1.378 . S
C2978 C2973 1.350 . S
C2979 H2966 0.929 . S
C2979 C2971 1.433 . S
C2979 N2981 1.384 . S
N2980 C2976 1.427 . S
N2980 C2977 1.384 . S
N2981 C2973 1.427 . S
N2981 C2979 1.384 . S
H2982 C2988 0.930 . S
H2983 C2992 0.930 . S
H2984 C2997 0.929 . S
H2985 C2995 0.929 . S
H2986 C2990 0.929 . S
H2987 C2996 0.929 . S
C2988 H2982 0.930 . S
C2988 C2989 1.367 . S
C2988 C2996 1.378 . S
C2989 C2988 1.367 . S
C2989 C2997 1.433 . S
C2990 H2986 0.929 . S
C2990 C2992 1.378 . S
C2990 C2994 1.350 . S
C2991 C2994 1.463 . S
C2991 C2996 1.350 . S
C2991 N2999 1.427 . S
C2992 H2983 0.930 . S
C2992 C2990 1.378 . S
C2992 C2993 1.367 . S
C2993 C2992 1.367 . S
C2993 C2995 1.433 . S
C2994 C2990 1.350 . S
C2994 C2991 1.463 . S
C2994 N2998 1.427 . S
C2995 H2985 0.929 . S
C2995 C2993 1.433 . S
C2995 N2998 1.384 . S
C2996 H2987 0.929 . S
C2996 C2988 1.378 . S
C2996 C2991 1.350 . S
C2997 H2984 0.929 . S
C2997 C2989 1.433 . S
C2997 N2999 1.384 . S
N2998 C2994 1.427 . S
N2998 C2995 1.384 . S
N2999 C2991 1.427 . S
N2999 C2997 1.384 . S
H3000 C3006 0.930 . S
H3001 C3010 0.930 . S
H3002 C3015 0.929 . S
H3003 C3013 0.929 . S
H3004 C3008 0.929 . S
H3005 C3014 0.929 . S
C3006 H3000 0.930 . S
C3006 C3007 1.367 . S
C3006 C3014 1.378 . S
C3007 C3006 1.367 . S
C3007 C3015 1.433 . S
C3008 H3004 0.929 . S
C3008 C3010 1.378 . S
C3008 C3012 1.350 . S
C3009 C3012 1.463 . S
C3009 C3014 1.350 . S
C3009 N3017 1.427 . S
C3010 H3001 0.930 . S
C3010 C3008 1.378 . S
C3010 C3011 1.367 . S
C3011 C3010 1.367 . S
C3011 C3013 1.433 . S
C3012 C3008 1.350 . S
C3012 C3009 1.463 . S
C3012 N3016 1.427 . S
C3013 H3003 0.929 . S
C3013 C3011 1.433 . S
C3013 N3016 1.384 . S
C3014 H3005 0.929 . S
C3014 C3006 1.378 . S
C3014 C3009 1.350 . S
C3015 H3002 0.929 . S
C3015 C3007 1.433 . S
C3015 N3017 1.384 . S
N3016 C3012 1.427 . S
N3016 C3013 1.384 . S
N3017 C3009 1.427 . S
N3017 C3015 1.384 . S
H3018 C3024 0.930 . S
H3019 C3028 0.930 . S
H3020 C3033 0.929 . S
H3021 C3031 0.929 . S
H3022 C3026 0.929 . S
H3023 C3032 0.929 . S
C3024 H3018 0.930 . S
C3024 C3025 1.367 . S
C3024 C3032 1.378 . S
C3025 C3024 1.367 . S
C3025 C3033 1.433 . S
C3026 H3022 0.929 . S
C3026 C3028 1.378 . S
C3026 C3030 1.350 . S
C3027 C3030 1.463 . S
C3027 C3032 1.350 . S
C3027 N3035 1.427 . S
C3028 H3019 0.930 . S
C3028 C3026 1.378 . S
C3028 C3029 1.367 . S
C3029 C3028 1.367 . S
C3029 C3031 1.433 . S
C3030 C3026 1.350 . S
C3030 C3027 1.463 . S
C3030 N3034 1.427 . S
C3031 H3021 0.929 . S
C3031 C3029 1.433 . S
C3031 N3034 1.384 . S
C3032 H3023 0.929 . S
C3032 C3024 1.378 . S
C3032 C3027 1.350 . S
C3033 H3020 0.929 . S
C3033 C3025 1.433 . S
C3033 N3035 1.384 . S
N3034 C3030 1.427 . S
N3034 C3031 1.384 . S
N3035 C3027 1.427 . S
N3035 C3033 1.384 . S
H3036 C3042 0.930 . S
H3037 C3046 0.930 . S
H3038 C3051 0.929 . S
H3039 C3049 0.929 . S
H3040 C3044 0.929 . S
H3041 C3050 0.929 . S
C3042 H3036 0.930 . S
C3042 C3043 1.367 . S
C3042 C3050 1.378 . S
C3043 C3042 1.367 . S
C3043 C3051 1.433 . S
C3044 H3040 0.929 . S
C3044 C3046 1.378 . S
C3044 C3048 1.350 . S
C3045 C3048 1.463 . S
C3045 C3050 1.350 . S
C3045 N3053 1.427 . S
C3046 H3037 0.930 . S
C3046 C3044 1.378 . S
C3046 C3047 1.367 . S
C3047 C3046 1.367 . S
C3047 C3049 1.433 . S
C3048 C3044 1.350 . S
C3048 C3045 1.463 . S
C3048 N3052 1.427 . S
C3049 H3039 0.929 . S
C3049 C3047 1.433 . S
C3049 N3052 1.384 . S
C3050 H3041 0.929 . S
C3050 C3042 1.378 . S
C3050 C3045 1.350 . S
C3051 H3038 0.929 . S
C3051 C3043 1.433 . S
C3051 N3053 1.384 . S
N3052 C3048 1.427 . S
N3052 C3049 1.384 . S
N3053 C3045 1.427 . S
N3053 C3051 1.384 . S
H3054 C3060 0.930 . S
H3055 C3064 0.930 . S
H3056 C3069 0.929 . S
H3057 C3067 0.929 . S
H3058 C3062 0.929 . S
H3059 C3068 0.929 . S
C3060 H3054 0.930 . S
C3060 C3061 1.367 . S
C3060 C3068 1.378 . S
C3061 C3060 1.367 . S
C3061 C3069 1.433 . S
C3062 H3058 0.929 . S
C3062 C3064 1.378 . S
C3062 C3066 1.350 . S
C3063 C3066 1.463 . S
C3063 C3068 1.350 . S
C3063 N3071 1.427 . S
C3064 H3055 0.930 . S
C3064 C3062 1.378 . S
C3064 C3065 1.367 . S
C3065 C3064 1.367 . S
C3065 C3067 1.433 . S
C3066 C3062 1.350 . S
C3066 C3063 1.463 . S
C3066 N3070 1.427 . S
C3067 H3057 0.929 . S
C3067 C3065 1.433 . S
C3067 N3070 1.384 . S
C3068 H3059 0.929 . S
C3068 C3060 1.378 . S
C3068 C3063 1.350 . S
C3069 H3056 0.929 . S
C3069 C3061 1.433 . S
C3069 N3071 1.384 . S
N3070 C3066 1.427 . S
N3070 C3067 1.384 . S
N3071 C3063 1.427 . S
N3071 C3069 1.384 . S
H3072 C3078 0.930 . S
H3073 C3082 0.930 . S
H3074 C3087 0.929 . S
H3075 C3085 0.929 . S
H3076 C3080 0.929 . S
H3077 C3086 0.929 . S
C3078 H3072 0.930 . S
C3078 C3079 1.367 . S
C3078 C3086 1.378 . S
C3079 C3078 1.367 . S
C3079 C3087 1.433 . S
C3080 H3076 0.929 . S
C3080 C3082 1.378 . S
C3080 C3084 1.350 . S
C3081 C3084 1.463 . S
C3081 C3086 1.350 . S
C3081 N3089 1.427 . S
C3082 H3073 0.930 . S
C3082 C3080 1.378 . S
C3082 C3083 1.367 . S
C3083 C3082 1.367 . S
C3083 C3085 1.433 . S
C3084 C3080 1.350 . S
C3084 C3081 1.463 . S
C3084 N3088 1.427 . S
C3085 H3075 0.929 . S
C3085 C3083 1.433 . S
C3085 N3088 1.384 . S
C3086 H3077 0.929 . S
C3086 C3078 1.378 . S
C3086 C3081 1.350 . S
C3087 H3074 0.929 . S
C3087 C3079 1.433 . S
C3087 N3089 1.384 . S
N3088 C3084 1.427 . S
N3088 C3085 1.384 . S
N3089 C3081 1.427 . S
N3089 C3087 1.384 . S
H3090 C3096 0.930 . S
H3091 C3100 0.930 . S
H3092 C3105 0.929 . S
H3093 C3103 0.929 . S
H3094 C3098 0.929 . S
H3095 C3104 0.929 . S
C3096 H3090 0.930 . S
C3096 C3097 1.367 . S
C3096 C3104 1.378 . S
C3097 C3096 1.367 . S
C3097 C3105 1.433 . S
C3098 H3094 0.929 . S
C3098 C3100 1.378 . S
C3098 C3102 1.350 . S
C3099 C3102 1.463 . S
C3099 C3104 1.350 . S
C3099 N3107 1.427 . S
C3100 H3091 0.930 . S
C3100 C3098 1.378 . S
C3100 C3101 1.367 . S
C3101 C3100 1.367 . S
C3101 C3103 1.433 . S
C3102 C3098 1.350 . S
C3102 C3099 1.463 . S
C3102 N3106 1.427 . S
C3103 H3093 0.929 . S
C3103 C3101 1.433 . S
C3103 N3106 1.384 . S
C3104 H3095 0.929 . S
C3104 C3096 1.378 . S
C3104 C3099 1.350 . S
C3105 H3092 0.929 . S
C3105 C3097 1.433 . S
C3105 N3107 1.384 . S
N3106 C3102 1.427 . S
N3106 C3103 1.384 . S
N3107 C3099 1.427 . S
N3107 C3105 1.384 . S
H3108 C3114 0.930 . S
H3109 C3118 0.930 . S
H3110 C3123 0.929 . S
H3111 C3121 0.929 . S
H3112 C3116 0.929 . S
H3113 C3122 0.929 . S
C3114 H3108 0.930 . S
C3114 C3115 1.367 . S
C3114 C3122 1.378 . S
C3115 C3114 1.367 . S
C3115 C3123 1.433 . S
C3116 H3112 0.929 . S
C3116 C3118 1.378 . S
C3116 C3120 1.350 . S
C3117 C3120 1.463 . S
C3117 C3122 1.350 . S
C3117 N3125 1.427 . S
C3118 H3109 0.930 . S
C3118 C3116 1.378 . S
C3118 C3119 1.367 . S
C3119 C3118 1.367 . S
C3119 C3121 1.433 . S
C3120 C3116 1.350 . S
C3120 C3117 1.463 . S
C3120 N3124 1.427 . S
C3121 H3111 0.929 . S
C3121 C3119 1.433 . S
C3121 N3124 1.384 . S
C3122 H3113 0.929 . S
C3122 C3114 1.378 . S
C3122 C3117 1.350 . S
C3123 H3110 0.929 . S
C3123 C3115 1.433 . S
C3123 N3125 1.384 . S
N3124 C3120 1.427 . S
N3124 C3121 1.384 . S
N3125 C3117 1.427 . S
N3125 C3123 1.384 . S
H3126 C3132 0.930 . S
H3127 C3136 0.930 . S
H3128 C3141 0.929 . S
H3129 C3139 0.929 . S
H3130 C3134 0.929 . S
H3131 C3140 0.929 . S
C3132 H3126 0.930 . S
C3132 C3133 1.367 . S
C3132 C3140 1.378 . S
C3133 C3132 1.367 . S
C3133 C3141 1.433 . S
C3134 H3130 0.929 . S
C3134 C3136 1.378 . S
C3134 C3138 1.350 . S
C3135 C3138 1.463 . S
C3135 C3140 1.350 . S
C3135 N3143 1.427 . S
C3136 H3127 0.930 . S
C3136 C3134 1.378 . S
C3136 C3137 1.367 . S
C3137 C3136 1.367 . S
C3137 C3139 1.433 . S
C3138 C3134 1.350 . S
C3138 C3135 1.463 . S
C3138 N3142 1.427 . S
C3139 H3129 0.929 . S
C3139 C3137 1.433 . S
C3139 N3142 1.384 . S
C3140 H3131 0.929 . S
C3140 C3132 1.378 . S
C3140 C3135 1.350 . S
C3141 H3128 0.929 . S
C3141 C3133 1.433 . S
C3141 N3143 1.384 . S
N3142 C3138 1.427 . S
N3142 C3139 1.384 . S
N3143 C3135 1.427 . S
N3143 C3141 1.384 . S
H3144 C3150 0.930 . S
H3145 C3154 0.930 . S
H3146 C3159 0.929 . S
H3147 C3157 0.929 . S
H3148 C3152 0.929 . S
H3149 C3158 0.929 . S
C3150 H3144 0.930 . S
C3150 C3151 1.367 . S
C3150 C3158 1.378 . S
C3151 C3150 1.367 . S
C3151 C3159 1.433 . S
C3152 H3148 0.929 . S
C3152 C3154 1.378 . S
C3152 C3156 1.350 . S
C3153 C3156 1.463 . S
C3153 C3158 1.350 . S
C3153 N3161 1.427 . S
C3154 H3145 0.930 . S
C3154 C3152 1.378 . S
C3154 C3155 1.367 . S
C3155 C3154 1.367 . S
C3155 C3157 1.433 . S
C3156 C3152 1.350 . S
C3156 C3153 1.463 . S
C3156 N3160 1.427 . S
C3157 H3147 0.929 . S
C3157 C3155 1.433 . S
C3157 N3160 1.384 . S
C3158 H3149 0.929 . S
C3158 C3150 1.378 . S
C3158 C3153 1.350 . S
C3159 H3146 0.929 . S
C3159 C3151 1.433 . S
C3159 N3161 1.384 . S
N3160 C3156 1.427 . S
N3160 C3157 1.384 . S
N3161 C3153 1.427 . S
N3161 C3159 1.384 . S
H3162 C3168 0.930 . S
H3163 C3172 0.930 . S
H3164 C3177 0.929 . S
H3165 C3175 0.929 . S
H3166 C3170 0.929 . S
H3167 C3176 0.929 . S
C3168 H3162 0.930 . S
C3168 C3169 1.367 . S
C3168 C3176 1.378 . S
C3169 C3168 1.367 . S
C3169 C3177 1.433 . S
C3170 H3166 0.929 . S
C3170 C3172 1.378 . S
C3170 C3174 1.350 . S
C3171 C3174 1.463 . S
C3171 C3176 1.350 . S
C3171 N3179 1.427 . S
C3172 H3163 0.930 . S
C3172 C3170 1.378 . S
C3172 C3173 1.367 . S
C3173 C3172 1.367 . S
C3173 C3175 1.433 . S
C3174 C3170 1.350 . S
C3174 C3171 1.463 . S
C3174 N3178 1.427 . S
C3175 H3165 0.929 . S
C3175 C3173 1.433 . S
C3175 N3178 1.384 . S
C3176 H3167 0.929 . S
C3176 C3168 1.378 . S
C3176 C3171 1.350 . S
C3177 H3164 0.929 . S
C3177 C3169 1.433 . S
C3177 N3179 1.384 . S
N3178 C3174 1.427 . S
N3178 C3175 1.384 . S
N3179 C3171 1.427 . S
N3179 C3177 1.384 . S
H3180 C3186 0.930 . S
H3181 C3190 0.930 . S
H3182 C3195 0.929 . S
H3183 C3193 0.929 . S
H3184 C3188 0.929 . S
H3185 C3194 0.929 . S
C3186 H3180 0.930 . S
C3186 C3187 1.367 . S
C3186 C3194 1.378 . S
C3187 C3186 1.367 . S
C3187 C3195 1.433 . S
C3188 H3184 0.929 . S
C3188 C3190 1.378 . S
C3188 C3192 1.350 . S
C3189 C3192 1.463 . S
C3189 C3194 1.350 . S
C3189 N3197 1.427 . S
C3190 H3181 0.930 . S
C3190 C3188 1.378 . S
C3190 C3191 1.367 . S
C3191 C3190 1.367 . S
C3191 C3193 1.433 . S
C3192 C3188 1.350 . S
C3192 C3189 1.463 . S
C3192 N3196 1.427 . S
C3193 H3183 0.929 . S
C3193 C3191 1.433 . S
C3193 N3196 1.384 . S
C3194 H3185 0.929 . S
C3194 C3186 1.378 . S
C3194 C3189 1.350 . S
C3195 H3182 0.929 . S
C3195 C3187 1.433 . S
C3195 N3197 1.384 . S
N3196 C3192 1.427 . S
N3196 C3193 1.384 . S
N3197 C3189 1.427 . S
N3197 C3195 1.384 . S
H3198 C3204 0.930 . S
H3199 C3208 0.930 . S
H3200 C3213 0.929 . S
H3201 C3211 0.929 . S
H3202 C3206 0.929 . S
H3203 C3212 0.929 . S
C3204 H3198 0.930 . S
C3204 C3205 1.367 . S
C3204 C3212 1.378 . S
C3205 C3204 1.367 . S
C3205 C3213 1.433 . S
C3206 H3202 0.929 . S
C3206 C3208 1.378 . S
C3206 C3210 1.350 . S
C3207 C3210 1.463 . S
C3207 C3212 1.350 . S
C3207 N3215 1.427 . S
C3208 H3199 0.930 . S
C3208 C3206 1.378 . S
C3208 C3209 1.367 . S
C3209 C3208 1.367 . S
C3209 C3211 1.433 . S
C3210 C3206 1.350 . S
C3210 C3207 1.463 . S
C3210 N3214 1.427 . S
C3211 H3201 0.929 . S
C3211 C3209 1.433 . S
C3211 N3214 1.384 . S
C3212 H3203 0.929 . S
C3212 C3204 1.378 . S
C3212 C3207 1.350 . S
C3213 H3200 0.929 . S
C3213 C3205 1.433 . S
C3213 N3215 1.384 . S
N3214 C3210 1.427 . S
N3214 C3211 1.384 . S
N3215 C3207 1.427 . S
N3215 C3213 1.384 . S
H3216 C3222 0.930 . S
H3217 C3226 0.930 . S
H3218 C3231 0.929 . S
H3219 C3229 0.929 . S
H3220 C3224 0.929 . S
H3221 C3230 0.929 . S
C3222 H3216 0.930 . S
C3222 C3223 1.367 . S
C3222 C3230 1.378 . S
C3223 C3222 1.367 . S
C3223 C3231 1.433 . S
C3224 H3220 0.929 . S
C3224 C3226 1.378 . S
C3224 C3228 1.350 . S
C3225 C3228 1.463 . S
C3225 C3230 1.350 . S
C3225 N3233 1.427 . S
C3226 H3217 0.930 . S
C3226 C3224 1.378 . S
C3226 C3227 1.367 . S
C3227 C3226 1.367 . S
C3227 C3229 1.433 . S
C3228 C3224 1.350 . S
C3228 C3225 1.463 . S
C3228 N3232 1.427 . S
C3229 H3219 0.929 . S
C3229 C3227 1.433 . S
C3229 N3232 1.384 . S
C3230 H3221 0.929 . S
C3230 C3222 1.378 . S
C3230 C3225 1.350 . S
C3231 H3218 0.929 . S
C3231 C3223 1.433 . S
C3231 N3233 1.384 . S
N3232 C3228 1.427 . S
N3232 C3229 1.384 . S
N3233 C3225 1.427 . S
N3233 C3231 1.384 . S
H3234 C3240 0.930 . S
H3235 C3244 0.930 . S
H3236 C3249 0.929 . S
H3237 C3247 0.929 . S
H3238 C3242 0.929 . S
H3239 C3248 0.929 . S
C3240 H3234 0.930 . S
C3240 C3241 1.367 . S
C3240 C3248 1.378 . S
C3241 C3240 1.367 . S
C3241 C3249 1.433 . S
C3242 H3238 0.929 . S
C3242 C3244 1.378 . S
C3242 C3246 1.350 . S
C3243 C3246 1.463 . S
C3243 C3248 1.350 . S
C3243 N3251 1.427 . S
C3244 H3235 0.930 . S
C3244 C3242 1.378 . S
C3244 C3245 1.367 . S
C3245 C3244 1.367 . S
C3245 C3247 1.433 . S
C3246 C3242 1.350 . S
C3246 C3243 1.463 . S
C3246 N3250 1.427 . S
C3247 H3237 0.929 . S
C3247 C3245 1.433 . S
C3247 N3250 1.384 . S
C3248 H3239 0.929 . S
C3248 C3240 1.378 . S
C3248 C3243 1.350 . S
C3249 H3236 0.929 . S
C3249 C3241 1.433 . S
C3249 N3251 1.384 . S
N3250 C3246 1.427 . S
N3250 C3247 1.384 . S
N3251 C3243 1.427 . S
N3251 C3249 1.384 . S
H3252 C3258 0.930 . S
H3253 C3262 0.930 . S
H3254 C3267 0.929 . S
H3255 C3265 0.929 . S
H3256 C3260 0.929 . S
H3257 C3266 0.929 . S
C3258 H3252 0.930 . S
C3258 C3259 1.367 . S
C3258 C3266 1.378 . S
C3259 C3258 1.367 . S
C3259 C3267 1.433 . S
C3260 H3256 0.929 . S
C3260 C3262 1.378 . S
C3260 C3264 1.350 . S
C3261 C3264 1.463 . S
C3261 C3266 1.350 . S
C3261 N3269 1.427 . S
C3262 H3253 0.930 . S
C3262 C3260 1.378 . S
C3262 C3263 1.367 . S
C3263 C3262 1.367 . S
C3263 C3265 1.433 . S
C3264 C3260 1.350 . S
C3264 C3261 1.463 . S
C3264 N3268 1.427 . S
C3265 H3255 0.929 . S
C3265 C3263 1.433 . S
C3265 N3268 1.384 . S
C3266 H3257 0.929 . S
C3266 C3258 1.378 . S
C3266 C3261 1.350 . S
C3267 H3254 0.929 . S
C3267 C3259 1.433 . S
C3267 N3269 1.384 . S
N3268 C3264 1.427 . S
N3268 C3265 1.384 . S
N3269 C3261 1.427 . S
N3269 C3267 1.384 . S
H3270 C3276 0.930 . S
H3271 C3280 0.930 . S
H3272 C3285 0.929 . S
H3273 C3283 0.929 . S
H3274 C3278 0.929 . S
H3275 C3284 0.929 . S
C3276 H3270 0.930 . S
C3276 C3277 1.367 . S
C3276 C3284 1.378 . S
C3277 C3276 1.367 . S
C3277 C3285 1.433 . S
C3278 H3274 0.929 . S
C3278 C3280 1.378 . S
C3278 C3282 1.350 . S
C3279 C3282 1.463 . S
C3279 C3284 1.350 . S
C3279 N3287 1.427 . S
C3280 H3271 0.930 . S
C3280 C3278 1.378 . S
C3280 C3281 1.367 . S
C3281 C3280 1.367 . S
C3281 C3283 1.433 . S
C3282 C3278 1.350 . S
C3282 C3279 1.463 . S
C3282 N3286 1.427 . S
C3283 H3273 0.929 . S
C3283 C3281 1.433 . S
C3283 N3286 1.384 . S
C3284 H3275 0.929 . S
C3284 C3276 1.378 . S
C3284 C3279 1.350 . S
C3285 H3272 0.929 . S
C3285 C3277 1.433 . S
C3285 N3287 1.384 . S
N3286 C3282 1.427 . S
N3286 C3283 1.384 . S
N3287 C3279 1.427 . S
N3287 C3285 1.384 . S
H3288 C3294 0.930 . S
H3289 C3298 0.930 . S
H3290 C3303 0.929 . S
H3291 C3301 0.929 . S
H3292 C3296 0.929 . S
H3293 C3302 0.929 . S
C3294 H3288 0.930 . S
C3294 C3295 1.367 . S
C3294 C3302 1.378 . S
C3295 C3294 1.367 . S
C3295 C3303 1.433 . S
C3296 H3292 0.929 . S
C3296 C3298 1.378 . S
C3296 C3300 1.350 . S
C3297 C3300 1.463 . S
C3297 C3302 1.350 . S
C3297 N3305 1.427 . S
C3298 H3289 0.930 . S
C3298 C3296 1.378 . S
C3298 C3299 1.367 . S
C3299 C3298 1.367 . S
C3299 C3301 1.433 . S
C3300 C3296 1.350 . S
C3300 C3297 1.463 . S
C3300 N3304 1.427 . S
C3301 H3291 0.929 . S
C3301 C3299 1.433 . S
C3301 N3304 1.384 . S
C3302 H3293 0.929 . S
C3302 C3294 1.378 . S
C3302 C3297 1.350 . S
C3303 H3290 0.929 . S
C3303 C3295 1.433 . S
C3303 N3305 1.384 . S
N3304 C3300 1.427 . S
N3304 C3301 1.384 . S
N3305 C3297 1.427 . S
N3305 C3303 1.384 . S
H3306 C3312 0.930 . S
H3307 C3316 0.930 . S
H3308 C3321 0.929 . S
H3309 C3319 0.929 . S
H3310 C3314 0.929 . S
H3311 C3320 0.929 . S
C3312 H3306 0.930 . S
C3312 C3313 1.367 . S
C3312 C3320 1.378 . S
C3313 C3312 1.367 . S
C3313 C3321 1.433 . S
C3314 H3310 0.929 . S
C3314 C3316 1.378 . S
C3314 C3318 1.350 . S
C3315 C3318 1.463 . S
C3315 C3320 1.350 . S
C3315 N3323 1.427 . S
C3316 H3307 0.930 . S
C3316 C3314 1.378 . S
C3316 C3317 1.367 . S
C3317 C3316 1.367 . S
C3317 C3319 1.433 . S
C3318 C3314 1.350 . S
C3318 C3315 1.463 . S
C3318 N3322 1.427 . S
C3319 H3309 0.929 . S
C3319 C3317 1.433 . S
C3319 N3322 1.384 . S
C3320 H3311 0.929 . S
C3320 C3312 1.378 . S
C3320 C3315 1.350 . S
C3321 H3308 0.929 . S
C3321 C3313 1.433 . S
C3321 N3323 1.384 . S
N3322 C3318 1.427 . S
N3322 C3319 1.384 . S
N3323 C3315 1.427 . S
N3323 C3321 1.384 . S
H3324 C3330 0.930 . S
H3325 C3334 0.930 . S
H3326 C3339 0.929 . S
H3327 C3337 0.929 . S
H3328 C3332 0.929 . S
H3329 C3338 0.929 . S
C3330 H3324 0.930 . S
C3330 C3331 1.367 . S
C3330 C3338 1.378 . S
C3331 C3330 1.367 . S
C3331 C3339 1.433 . S
C3332 H3328 0.929 . S
C3332 C3334 1.378 . S
C3332 C3336 1.350 . S
C3333 C3336 1.463 . S
C3333 C3338 1.350 . S
C3333 N3341 1.427 . S
C3334 H3325 0.930 . S
C3334 C3332 1.378 . S
C3334 C3335 1.367 . S
C3335 C3334 1.367 . S
C3335 C3337 1.433 . S
C3336 C3332 1.350 . S
C3336 C3333 1.463 . S
C3336 N3340 1.427 . S
C3337 H3327 0.929 . S
C3337 C3335 1.433 . S
C3337 N3340 1.384 . S
C3338 H3329 0.929 . S
C3338 C3330 1.378 . S
C3338 C3333 1.350 . S
C3339 H3326 0.929 . S
C3339 C3331 1.433 . S
C3339 N3341 1.384 . S
N3340 C3336 1.427 . S
N3340 C3337 1.384 . S
N3341 C3333 1.427 . S
N3341 C3339 1.384 . S
H3342 C3348 0.930 . S
H3343 C3352 0.930 . S
H3344 C3357 0.929 . S
H3345 C3355 0.929 . S
H3346 C3350 0.929 . S
H3347 C3356 0.929 . S
C3348 H3342 0.930 . S
C3348 C3349 1.367 . S
C3348 C3356 1.378 . S
C3349 C3348 1.367 . S
C3349 C3357 1.433 . S
C3350 H3346 0.929 . S
C3350 C3352 1.378 . S
C3350 C3354 1.350 . S
C3351 C3354 1.463 . S
C3351 C3356 1.350 . S
C3351 N3359 1.427 . S
C3352 H3343 0.930 . S
C3352 C3350 1.378 . S
C3352 C3353 1.367 . S
C3353 C3352 1.367 . S
C3353 C3355 1.433 . S
C3354 C3350 1.350 . S
C3354 C3351 1.463 . S
C3354 N3358 1.427 . S
C3355 H3345 0.929 . S
C3355 C3353 1.433 . S
C3355 N3358 1.384 . S
C3356 H3347 0.929 . S
C3356 C3348 1.378 . S
C3356 C3351 1.350 . S
C3357 H3344 0.929 . S
C3357 C3349 1.433 . S
C3357 N3359 1.384 . S
N3358 C3354 1.427 . S
N3358 C3355 1.384 . S
N3359 C3351 1.427 . S
N3359 C3357 1.384 . S
H3360 C3366 0.930 . S
H3361 C3370 0.930 . S
H3362 C3375 0.929 . S
H3363 C3373 0.929 . S
H3364 C3368 0.929 . S
H3365 C3374 0.929 . S
C3366 H3360 0.930 . S
C3366 C3367 1.367 . S
C3366 C3374 1.378 . S
C3367 C3366 1.367 . S
C3367 C3375 1.433 . S
C3368 H3364 0.929 . S
C3368 C3370 1.378 . S
C3368 C3372 1.350 . S
C3369 C3372 1.463 . S
C3369 C3374 1.350 . S
C3369 N3377 1.427 . S
C3370 H3361 0.930 . S
C3370 C3368 1.378 . S
C3370 C3371 1.367 . S
C3371 C3370 1.367 . S
C3371 C3373 1.433 . S
C3372 C3368 1.350 . S
C3372 C3369 1.463 . S
C3372 N3376 1.427 . S
C3373 H3363 0.929 . S
C3373 C3371 1.433 . S
C3373 N3376 1.384 . S
C3374 H3365 0.929 . S
C3374 C3366 1.378 . S
C3374 C3369 1.350 . S
C3375 H3362 0.929 . S
C3375 C3367 1.433 . S
C3375 N3377 1.384 . S
N3376 C3372 1.427 . S
N3376 C3373 1.384 . S
N3377 C3369 1.427 . S
N3377 C3375 1.384 . S
H3378 C3384 0.930 . S
H3379 C3388 0.930 . S
H3380 C3393 0.929 . S
H3381 C3391 0.929 . S
H3382 C3386 0.929 . S
H3383 C3392 0.929 . S
C3384 H3378 0.930 . S
C3384 C3385 1.367 . S
C3384 C3392 1.378 . S
C3385 C3384 1.367 . S
C3385 C3393 1.433 . S
C3386 H3382 0.929 . S
C3386 C3388 1.378 . S
C3386 C3390 1.350 . S
C3387 C3390 1.463 . S
C3387 C3392 1.350 . S
C3387 N3395 1.427 . S
C3388 H3379 0.930 . S
C3388 C3386 1.378 . S
C3388 C3389 1.367 . S
C3389 C3388 1.367 . S
C3389 C3391 1.433 . S
C3390 C3386 1.350 . S
C3390 C3387 1.463 . S
C3390 N3394 1.427 . S
C3391 H3381 0.929 . S
C3391 C3389 1.433 . S
C3391 N3394 1.384 . S
C3392 H3383 0.929 . S
C3392 C3384 1.378 . S
C3392 C3387 1.350 . S
C3393 H3380 0.929 . S
C3393 C3385 1.433 . S
C3393 N3395 1.384 . S
N3394 C3390 1.427 . S
N3394 C3391 1.384 . S
N3395 C3387 1.427 . S
N3395 C3393 1.384 . S
H3396 C3402 0.930 . S
H3397 C3406 0.930 . S
H3398 C3411 0.929 . S
H3399 C3409 0.929 . S
H3400 C3404 0.929 . S
H3401 C3410 0.929 . S
C3402 H3396 0.930 . S
C3402 C3403 1.367 . S
C3402 C3410 1.378 . S
C3403 C3402 1.367 . S
C3403 C3411 1.433 . S
C3404 H3400 0.929 . S
C3404 C3406 1.378 . S
C3404 C3408 1.350 . S
C3405 C3408 1.463 . S
C3405 C3410 1.350 . S
C3405 N3413 1.427 . S
C3406 H3397 0.930 . S
C3406 C3404 1.378 . S
C3406 C3407 1.367 . S
C3407 C3406 1.367 . S
C3407 C3409 1.433 . S
C3408 C3404 1.350 . S
C3408 C3405 1.463 . S
C3408 N3412 1.427 . S
C3409 H3399 0.929 . S
C3409 C3407 1.433 . S
C3409 N3412 1.384 . S
C3410 H3401 0.929 . S
C3410 C3402 1.378 . S
C3410 C3405 1.350 . S
C3411 H3398 0.929 . S
C3411 C3403 1.433 . S
C3411 N3413 1.384 . S
N3412 C3408 1.427 . S
N3412 C3409 1.384 . S
N3413 C3405 1.427 . S
N3413 C3411 1.384 . S
H3414 C3420 0.930 . S
H3415 C3424 0.930 . S
H3416 C3429 0.929 . S
H3417 C3427 0.929 . S
H3418 C3422 0.929 . S
H3419 C3428 0.929 . S
C3420 H3414 0.930 . S
C3420 C3421 1.367 . S
C3420 C3428 1.378 . S
C3421 C3420 1.367 . S
C3421 C3429 1.433 . S
C3422 H3418 0.929 . S
C3422 C3424 1.378 . S
C3422 C3426 1.350 . S
C3423 C3426 1.463 . S
C3423 C3428 1.350 . S
C3423 N3431 1.427 . S
C3424 H3415 0.930 . S
C3424 C3422 1.378 . S
C3424 C3425 1.367 . S
C3425 C3424 1.367 . S
C3425 C3427 1.433 . S
C3426 C3422 1.350 . S
C3426 C3423 1.463 . S
C3426 N3430 1.427 . S
C3427 H3417 0.929 . S
C3427 C3425 1.433 . S
C3427 N3430 1.384 . S
C3428 H3419 0.929 . S
C3428 C3420 1.378 . S
C3428 C3423 1.350 . S
C3429 H3416 0.929 . S
C3429 C3421 1.433 . S
C3429 N3431 1.384 . S
N3430 C3426 1.427 . S
N3430 C3427 1.384 . S
N3431 C3423 1.427 . S
N3431 C3429 1.384 . S
H3432 C3438 0.930 . S
H3433 C3442 0.930 . S
H3434 C3447 0.929 . S
H3435 C3445 0.929 . S
H3436 C3440 0.929 . S
H3437 C3446 0.929 . S
C3438 H3432 0.930 . S
C3438 C3439 1.367 . S
C3438 C3446 1.378 . S
C3439 C3438 1.367 . S
C3439 C3447 1.433 . S
C3440 H3436 0.929 . S
C3440 C3442 1.378 . S
C3440 C3444 1.350 . S
C3441 C3444 1.463 . S
C3441 C3446 1.350 . S
C3441 N3449 1.427 . S
C3442 H3433 0.930 . S
C3442 C3440 1.378 . S
C3442 C3443 1.367 . S
C3443 C3442 1.367 . S
C3443 C3445 1.433 . S
C3444 C3440 1.350 . S
C3444 C3441 1.463 . S
C3444 N3448 1.427 . S
C3445 H3435 0.929 . S
C3445 C3443 1.433 . S
C3445 N3448 1.384 . S
C3446 H3437 0.929 . S
C3446 C3438 1.378 . S
C3446 C3441 1.350 . S
C3447 H3434 0.929 . S
C3447 C3439 1.433 . S
C3447 N3449 1.384 . S
N3448 C3444 1.427 . S
N3448 C3445 1.384 . S
N3449 C3441 1.427 . S
N3449 C3447 1.384 . S
H3450 C3456 0.930 . S
H3451 C3460 0.930 . S
H3452 C3465 0.929 . S
H3453 C3463 0.929 . S
H3454 C3458 0.929 . S
H3455 C3464 0.929 . S
C3456 H3450 0.930 . S
C3456 C3457 1.367 . S
C3456 C3464 1.378 . S
C3457 C3456 1.367 . S
C3457 C3465 1.433 . S
C3458 H3454 0.929 . S
C3458 C3460 1.378 . S
C3458 C3462 1.350 . S
C3459 C3462 1.463 . S
C3459 C3464 1.350 . S
C3459 N3467 1.427 . S
C3460 H3451 0.930 . S
C3460 C3458 1.378 . S
C3460 C3461 1.367 . S
C3461 C3460 1.367 . S
C3461 C3463 1.433 . S
C3462 C3458 1.350 . S
C3462 C3459 1.463 . S
C3462 N3466 1.427 . S
C3463 H3453 0.929 . S
C3463 C3461 1.433 . S
C3463 N3466 1.384 . S
C3464 H3455 0.929 . S
C3464 C3456 1.378 . S
C3464 C3459 1.350 . S
C3465 H3452 0.929 . S
C3465 C3457 1.433 . S
C3465 N3467 1.384 . S
N3466 C3462 1.427 . S
N3466 C3463 1.384 . S
N3467 C3459 1.427 . S
N3467 C3465 1.384 . S
H3468 C3474 0.930 . S
H3469 C3478 0.930 . S
H3470 C3483 0.929 . S
H3471 C3481 0.929 . S
H3472 C3476 0.929 . S
H3473 C3482 0.929 . S
C3474 H3468 0.930 . S
C3474 C3475 1.367 . S
C3474 C3482 1.378 . S
C3475 C3474 1.367 . S
C3475 C3483 1.433 . S
C3476 H3472 0.929 . S
C3476 C3478 1.378 . S
C3476 C3480 1.350 . S
C3477 C3480 1.463 . S
C3477 C3482 1.350 . S
C3477 N3485 1.427 . S
C3478 H3469 0.930 . S
C3478 C3476 1.378 . S
C3478 C3479 1.367 . S
C3479 C3478 1.367 . S
C3479 C3481 1.433 . S
C3480 C3476 1.350 . S
C3480 C3477 1.463 . S
C3480 N3484 1.427 . S
C3481 H3471 0.929 . S
C3481 C3479 1.433 . S
C3481 N3484 1.384 . S
C3482 H3473 0.929 . S
C3482 C3474 1.378 . S
C3482 C3477 1.350 . S
C3483 H3470 0.929 . S
C3483 C3475 1.433 . S
C3483 N3485 1.384 . S
N3484 C3480 1.427 . S
N3484 C3481 1.384 . S
N3485 C3477 1.427 . S
N3485 C3483 1.384 . S
H3486 C3492 0.930 . S
H3487 C3496 0.930 . S
H3488 C3501 0.929 . S
H3489 C3499 0.929 . S
H3490 C3494 0.929 . S
H3491 C3500 0.929 . S
C3492 H3486 0.930 . S
C3492 C3493 1.367 . S
C3492 C3500 1.378 . S
C3493 C3492 1.367 . S
C3493 C3501 1.433 . S
C3494 H3490 0.929 . S
C3494 C3496 1.378 . S
C3494 C3498 1.350 . S
C3495 C3498 1.463 . S
C3495 C3500 1.350 . S
C3495 N3503 1.427 . S
C3496 H3487 0.930 . S
C3496 C3494 1.378 . S
C3496 C3497 1.367 . S
C3497 C3496 1.367 . S
C3497 C3499 1.433 . S
C3498 C3494 1.350 . S
C3498 C3495 1.463 . S
C3498 N3502 1.427 . S
C3499 H3489 0.929 . S
C3499 C3497 1.433 . S
C3499 N3502 1.384 . S
C3500 H3491 0.929 . S
C3500 C3492 1.378 . S
C3500 C3495 1.350 . S
C3501 H3488 0.929 . S
C3501 C3493 1.433 . S
C3501 N3503 1.384 . S
N3502 C3498 1.427 . S
N3502 C3499 1.384 . S
N3503 C3495 1.427 . S
N3503 C3501 1.384 . S
H3504 C3510 0.930 . S
H3505 C3514 0.930 . S
H3506 C3519 0.929 . S
H3507 C3517 0.929 . S
H3508 C3512 0.929 . S
H3509 C3518 0.929 . S
C3510 H3504 0.930 . S
C3510 C3511 1.367 . S
C3510 C3518 1.378 . S
C3511 C3510 1.367 . S
C3511 C3519 1.433 . S
C3512 H3508 0.929 . S
C3512 C3514 1.378 . S
C3512 C3516 1.350 . S
C3513 C3516 1.463 . S
C3513 C3518 1.350 . S
C3513 N3521 1.427 . S
C3514 H3505 0.930 . S
C3514 C3512 1.378 . S
C3514 C3515 1.367 . S
C3515 C3514 1.367 . S
C3515 C3517 1.433 . S
C3516 C3512 1.350 . S
C3516 C3513 1.463 . S
C3516 N3520 1.427 . S
C3517 H3507 0.929 . S
C3517 C3515 1.433 . S
C3517 N3520 1.384 . S
C3518 H3509 0.929 . S
C3518 C3510 1.378 . S
C3518 C3513 1.350 . S
C3519 H3506 0.929 . S
C3519 C3511 1.433 . S
C3519 N3521 1.384 . S
N3520 C3516 1.427 . S
N3520 C3517 1.384 . S
N3521 C3513 1.427 . S
N3521 C3519 1.384 . S
H3522 C3528 0.930 . S
H3523 C3532 0.930 . S
H3524 C3537 0.929 . S
H3525 C3535 0.929 . S
H3526 C3530 0.929 . S
H3527 C3536 0.929 . S
C3528 H3522 0.930 . S
C3528 C3529 1.367 . S
C3528 C3536 1.378 . S
C3529 C3528 1.367 . S
C3529 C3537 1.433 . S
C3530 H3526 0.929 . S
C3530 C3532 1.378 . S
C3530 C3534 1.350 . S
C3531 C3534 1.463 . S
C3531 C3536 1.350 . S
C3531 N3539 1.427 . S
C3532 H3523 0.930 . S
C3532 C3530 1.378 . S
C3532 C3533 1.367 . S
C3533 C3532 1.367 . S
C3533 C3535 1.433 . S
C3534 C3530 1.350 . S
C3534 C3531 1.463 . S
C3534 N3538 1.427 . S
C3535 H3525 0.929 . S
C3535 C3533 1.433 . S
C3535 N3538 1.384 . S
C3536 H3527 0.929 . S
C3536 C3528 1.378 . S
C3536 C3531 1.350 . S
C3537 H3524 0.929 . S
C3537 C3529 1.433 . S
C3537 N3539 1.384 . S
N3538 C3534 1.427 . S
N3538 C3535 1.384 . S
N3539 C3531 1.427 . S
N3539 C3537 1.384 . S
H3540 C3546 0.930 . S
H3541 C3550 0.930 . S
H3542 C3555 0.929 . S
H3543 C3553 0.929 . S
H3544 C3548 0.929 . S
H3545 C3554 0.929 . S
C3546 H3540 0.930 . S
C3546 C3547 1.367 . S
C3546 C3554 1.378 . S
C3547 C3546 1.367 . S
C3547 C3555 1.433 . S
C3548 H3544 0.929 . S
C3548 C3550 1.378 . S
C3548 C3552 1.350 . S
C3549 C3552 1.463 . S
C3549 C3554 1.350 . S
C3549 N3557 1.427 . S
C3550 H3541 0.930 . S
C3550 C3548 1.378 . S
C3550 C3551 1.367 . S
C3551 C3550 1.367 . S
C3551 C3553 1.433 . S
C3552 C3548 1.350 . S
C3552 C3549 1.463 . S
C3552 N3556 1.427 . S
C3553 H3543 0.929 . S
C3553 C3551 1.433 . S
C3553 N3556 1.384 . S
C3554 H3545 0.929 . S
C3554 C3546 1.378 . S
C3554 C3549 1.350 . S
C3555 H3542 0.929 . S
C3555 C3547 1.433 . S
C3555 N3557 1.384 . S
N3556 C3552 1.427 . S
N3556 C3553 1.384 . S
N3557 C3549 1.427 . S
N3557 C3555 1.384 . S
H3558 C3564 0.930 . S
H3559 C3568 0.930 . S
H3560 C3573 0.929 . S
H3561 C3571 0.929 . S
H3562 C3566 0.929 . S
H3563 C3572 0.929 . S
C3564 H3558 0.930 . S
C3564 C3565 1.367 . S
C3564 C3572 1.378 . S
C3565 C3564 1.367 . S
C3565 C3573 1.433 . S
C3566 H3562 0.929 . S
C3566 C3568 1.378 . S
C3566 C3570 1.350 . S
C3567 C3570 1.463 . S
C3567 C3572 1.350 . S
C3567 N3575 1.427 . S
C3568 H3559 0.930 . S
C3568 C3566 1.378 . S
C3568 C3569 1.367 . S
C3569 C3568 1.367 . S
C3569 C3571 1.433 . S
C3570 C3566 1.350 . S
C3570 C3567 1.463 . S
C3570 N3574 1.427 . S
C3571 H3561 0.929 . S
C3571 C3569 1.433 . S
C3571 N3574 1.384 . S
C3572 H3563 0.929 . S
C3572 C3564 1.378 . S
C3572 C3567 1.350 . S
C3573 H3560 0.929 . S
C3573 C3565 1.433 . S
C3573 N3575 1.384 . S
N3574 C3570 1.427 . S
N3574 C3571 1.384 . S
N3575 C3567 1.427 . S
N3575 C3573 1.384 . S
H3576 C3582 0.930 . S
H3577 C3586 0.930 . S
H3578 C3591 0.929 . S
H3579 C3589 0.929 . S
H3580 C3584 0.929 . S
H3581 C3590 0.929 . S
C3582 H3576 0.930 . S
C3582 C3583 1.367 . S
C3582 C3590 1.378 . S
C3583 C3582 1.367 . S
C3583 C3591 1.433 . S
C3584 H3580 0.929 . S
C3584 C3586 1.378 . S
C3584 C3588 1.350 . S
C3585 C3588 1.463 . S
C3585 C3590 1.350 . S
C3585 N3593 1.427 . S
C3586 H3577 0.930 . S
C3586 C3584 1.378 . S
C3586 C3587 1.367 . S
C3587 C3586 1.367 . S
C3587 C3589 1.433 . S
C3588 C3584 1.350 . S
C3588 C3585 1.463 . S
C3588 N3592 1.427 . S
C3589 H3579 0.929 . S
C3589 C3587 1.433 . S
C3589 N3592 1.384 . S
C3590 H3581 0.929 . S
C3590 C3582 1.378 . S
C3590 C3585 1.350 . S
C3591 H3578 0.929 . S
C3591 C3583 1.433 . S
C3591 N3593 1.384 . S
N3592 C3588 1.427 . S
N3592 C3589 1.384 . S
N3593 C3585 1.427 . S
N3593 C3591 1.384 . S
H3594 C3600 0.930 . S
H3595 C3604 0.930 . S
H3596 C3609 0.929 . S
H3597 C3607 0.929 . S
H3598 C3602 0.929 . S
H3599 C3608 0.929 . S
C3600 H3594 0.930 . S
C3600 C3601 1.367 . S
C3600 C3608 1.378 . S
C3601 C3600 1.367 . S
C3601 C3609 1.433 . S
C3602 H3598 0.929 . S
C3602 C3604 1.378 . S
C3602 C3606 1.350 . S
C3603 C3606 1.463 . S
C3603 C3608 1.350 . S
C3603 N3611 1.427 . S
C3604 H3595 0.930 . S
C3604 C3602 1.378 . S
C3604 C3605 1.367 . S
C3605 C3604 1.367 . S
C3605 C3607 1.433 . S
C3606 C3602 1.350 . S
C3606 C3603 1.463 . S
C3606 N3610 1.427 . S
C3607 H3597 0.929 . S
C3607 C3605 1.433 . S
C3607 N3610 1.384 . S
C3608 H3599 0.929 . S
C3608 C3600 1.378 . S
C3608 C3603 1.350 . S
C3609 H3596 0.929 . S
C3609 C3601 1.433 . S
C3609 N3611 1.384 . S
N3610 C3606 1.427 . S
N3610 C3607 1.384 . S
N3611 C3603 1.427 . S
N3611 C3609 1.384 . S
H3612 C3618 0.930 . S
H3613 C3622 0.930 . S
H3614 C3627 0.929 . S
H3615 C3625 0.929 . S
H3616 C3620 0.929 . S
H3617 C3626 0.929 . S
C3618 H3612 0.930 . S
C3618 C3619 1.367 . S
C3618 C3626 1.378 . S
C3619 C3618 1.367 . S
C3619 C3627 1.433 . S
C3620 H3616 0.929 . S
C3620 C3622 1.378 . S
C3620 C3624 1.350 . S
C3621 C3624 1.463 . S
C3621 C3626 1.350 . S
C3621 N3629 1.427 . S
C3622 H3613 0.930 . S
C3622 C3620 1.378 . S
C3622 C3623 1.367 . S
C3623 C3622 1.367 . S
C3623 C3625 1.433 . S
C3624 C3620 1.350 . S
C3624 C3621 1.463 . S
C3624 N3628 1.427 . S
C3625 H3615 0.929 . S
C3625 C3623 1.433 . S
C3625 N3628 1.384 . S
C3626 H3617 0.929 . S
C3626 C3618 1.378 . S
C3626 C3621 1.350 . S
C3627 H3614 0.929 . S
C3627 C3619 1.433 . S
C3627 N3629 1.384 . S
N3628 C3624 1.427 . S
N3628 C3625 1.384 . S
N3629 C3621 1.427 . S
N3629 C3627 1.384 . S
H3630 C3636 0.930 . S
H3631 C3640 0.930 . S
H3632 C3645 0.929 . S
H3633 C3643 0.929 . S
H3634 C3638 0.929 . S
H3635 C3644 0.929 . S
C3636 H3630 0.930 . S
C3636 C3637 1.367 . S
C3636 C3644 1.378 . S
C3637 C3636 1.367 . S
C3637 C3645 1.433 . S
C3638 H3634 0.929 . S
C3638 C3640 1.378 . S
C3638 C3642 1.350 . S
C3639 C3642 1.463 . S
C3639 C3644 1.350 . S
C3639 N3647 1.427 . S
C3640 H3631 0.930 . S
C3640 C3638 1.378 . S
C3640 C3641 1.367 . S
C3641 C3640 1.367 . S
C3641 C3643 1.433 . S
C3642 C3638 1.350 . S
C3642 C3639 1.463 . S
C3642 N3646 1.427 . S
C3643 H3633 0.929 . S
C3643 C3641 1.433 . S
C3643 N3646 1.384 . S
C3644 H3635 0.929 . S
C3644 C3636 1.378 . S
C3644 C3639 1.350 . S
C3645 H3632 0.929 . S
C3645 C3637 1.433 . S
C3645 N3647 1.384 . S
N3646 C3642 1.427 . S
N3646 C3643 1.384 . S
N3647 C3639 1.427 . S
N3647 C3645 1.384 . S
H3648 C3654 0.930 . S
H3649 C3658 0.930 . S
H3650 C3663 0.929 . S
H3651 C3661 0.929 . S
H3652 C3656 0.929 . S
H3653 C3662 0.929 . S
C3654 H3648 0.930 . S
C3654 C3655 1.367 . S
C3654 C3662 1.378 . S
C3655 C3654 1.367 . S
C3655 C3663 1.433 . S
C3656 H3652 0.929 . S
C3656 C3658 1.378 . S
C3656 C3660 1.350 . S
C3657 C3660 1.463 . S
C3657 C3662 1.350 . S
C3657 N3665 1.427 . S
C3658 H3649 0.930 . S
C3658 C3656 1.378 . S
C3658 C3659 1.367 . S
C3659 C3658 1.367 . S
C3659 C3661 1.433 . S
C3660 C3656 1.350 . S
C3660 C3657 1.463 . S
C3660 N3664 1.427 . S
C3661 H3651 0.929 . S
C3661 C3659 1.433 . S
C3661 N3664 1.384 . S
C3662 H3653 0.929 . S
C3662 C3654 1.378 . S
C3662 C3657 1.350 . S
C3663 H3650 0.929 . S
C3663 C3655 1.433 . S
C3663 N3665 1.384 . S
N3664 C3660 1.427 . S
N3664 C3661 1.384 . S
N3665 C3657 1.427 . S
N3665 C3663 1.384 . S
H3666 C3672 0.930 . S
H3667 C3676 0.930 . S
H3668 C3681 0.929 . S
H3669 C3679 0.929 . S
H3670 C3674 0.929 . S
H3671 C3680 0.929 . S
C3672 H3666 0.930 . S
C3672 C3673 1.367 . S
C3672 C3680 1.378 . S
C3673 C3672 1.367 . S
C3673 C3681 1.433 . S
C3674 H3670 0.929 . S
C3674 C3676 1.378 . S
C3674 C3678 1.350 . S
C3675 C3678 1.463 . S
C3675 C3680 1.350 . S
C3675 N3683 1.427 . S
C3676 H3667 0.930 . S
C3676 C3674 1.378 . S
C3676 C3677 1.367 . S
C3677 C3676 1.367 . S
C3677 C3679 1.433 . S
C3678 C3674 1.350 . S
C3678 C3675 1.463 . S
C3678 N3682 1.427 . S
C3679 H3669 0.929 . S
C3679 C3677 1.433 . S
C3679 N3682 1.384 . S
C3680 H3671 0.929 . S
C3680 C3672 1.378 . S
C3680 C3675 1.350 . S
C3681 H3668 0.929 . S
C3681 C3673 1.433 . S
C3681 N3683 1.384 . S
N3682 C3678 1.427 . S
N3682 C3679 1.384 . S
N3683 C3675 1.427 . S
N3683 C3681 1.384 . S
H3684 C3690 0.930 . S
H3685 C3694 0.930 . S
H3686 C3699 0.929 . S
H3687 C3697 0.929 . S
H3688 C3692 0.929 . S
H3689 C3698 0.929 . S
C3690 H3684 0.930 . S
C3690 C3691 1.367 . S
C3690 C3698 1.378 . S
C3691 C3690 1.367 . S
C3691 C3699 1.433 . S
C3692 H3688 0.929 . S
C3692 C3694 1.378 . S
C3692 C3696 1.350 . S
C3693 C3696 1.463 . S
C3693 C3698 1.350 . S
C3693 N3701 1.427 . S
C3694 H3685 0.930 . S
C3694 C3692 1.378 . S
C3694 C3695 1.367 . S
C3695 C3694 1.367 . S
C3695 C3697 1.433 . S
C3696 C3692 1.350 . S
C3696 C3693 1.463 . S
C3696 N3700 1.427 . S
C3697 H3687 0.929 . S
C3697 C3695 1.433 . S
C3697 N3700 1.384 . S
C3698 H3689 0.929 . S
C3698 C3690 1.378 . S
C3698 C3693 1.350 . S
C3699 H3686 0.929 . S
C3699 C3691 1.433 . S
C3699 N3701 1.384 . S
N3700 C3696 1.427 . S
N3700 C3697 1.384 . S
N3701 C3693 1.427 . S
N3701 C3699 1.384 . S
H3702 C3708 0.930 . S
H3703 C3712 0.930 . S
H3704 C3717 0.929 . S
H3705 C3715 0.929 . S
H3706 C3710 0.929 . S
H3707 C3716 0.929 . S
C3708 H3702 0.930 . S
C3708 C3709 1.367 . S
C3708 C3716 1.378 . S
C3709 C3708 1.367 . S
C3709 C3717 1.433 . S
C3710 H3706 0.929 . S
C3710 C3712 1.378 . S
C3710 C3714 1.350 . S
C3711 C3714 1.463 . S
C3711 C3716 1.350 . S
C3711 N3719 1.427 . S
C3712 H3703 0.930 . S
C3712 C3710 1.378 . S
C3712 C3713 1.367 . S
C3713 C3712 1.367 . S
C3713 C3715 1.433 . S
C3714 C3710 1.350 . S
C3714 C3711 1.463 . S
C3714 N3718 1.427 . S
C3715 H3705 0.929 . S
C3715 C3713 1.433 . S
C3715 N3718 1.384 . S
C3716 H3707 0.929 . S
C3716 C3708 1.378 . S
C3716 C3711 1.350 . S
C3717 H3704 0.929 . S
C3717 C3709 1.433 . S
C3717 N3719 1.384 . S
N3718 C3714 1.427 . S
N3718 C3715 1.384 . S
N3719 C3711 1.427 . S
N3719 C3717 1.384 . S
H3720 C3726 0.930 . S
H3721 C3730 0.930 . S
H3722 C3735 0.929 . S
H3723 C3733 0.929 . S
H3724 C3728 0.929 . S
H3725 C3734 0.929 . S
C3726 H3720 0.930 . S
C3726 C3727 1.367 . S
C3726 C3734 1.378 . S
C3727 C3726 1.367 . S
C3727 C3735 1.433 . S
C3728 H3724 0.929 . S
C3728 C3730 1.378 . S
C3728 C3732 1.350 . S
C3729 C3732 1.463 . S
C3729 C3734 1.350 . S
C3729 N3737 1.427 . S
C3730 H3721 0.930 . S
C3730 C3728 1.378 . S
C3730 C3731 1.367 . S
C3731 C3730 1.367 . S
C3731 C3733 1.433 . S
C3732 C3728 1.350 . S
C3732 C3729 1.463 . S
C3732 N3736 1.427 . S
C3733 H3723 0.929 . S
C3733 C3731 1.433 . S
C3733 N3736 1.384 . S
C3734 H3725 0.929 . S
C3734 C3726 1.378 . S
C3734 C3729 1.350 . S
C3735 H3722 0.929 . S
C3735 C3727 1.433 . S
C3735 N3737 1.384 . S
N3736 C3732 1.427 . S
N3736 C3733 1.384 . S
N3737 C3729 1.427 . S
N3737 C3735 1.384 . S
H3738 C3744 0.930 . S
H3739 C3748 0.930 . S
H3740 C3753 0.929 . S
H3741 C3751 0.929 . S
H3742 C3746 0.929 . S
H3743 C3752 0.929 . S
C3744 H3738 0.930 . S
C3744 C3745 1.367 . S
C3744 C3752 1.378 . S
C3745 C3744 1.367 . S
C3745 C3753 1.433 . S
C3746 H3742 0.929 . S
C3746 C3748 1.378 . S
C3746 C3750 1.350 . S
C3747 C3750 1.463 . S
C3747 C3752 1.350 . S
C3747 N3755 1.427 . S
C3748 H3739 0.930 . S
C3748 C3746 1.378 . S
C3748 C3749 1.367 . S
C3749 C3748 1.367 . S
C3749 C3751 1.433 . S
C3750 C3746 1.350 . S
C3750 C3747 1.463 . S
C3750 N3754 1.427 . S
C3751 H3741 0.929 . S
C3751 C3749 1.433 . S
C3751 N3754 1.384 . S
C3752 H3743 0.929 . S
C3752 C3744 1.378 . S
C3752 C3747 1.350 . S
C3753 H3740 0.929 . S
C3753 C3745 1.433 . S
C3753 N3755 1.384 . S
N3754 C3750 1.427 . S
N3754 C3751 1.384 . S
N3755 C3747 1.427 . S
N3755 C3753 1.384 . S
H3756 C3762 0.930 . S
H3757 C3766 0.930 . S
H3758 C3771 0.929 . S
H3759 C3769 0.929 . S
H3760 C3764 0.929 . S
H3761 C3770 0.929 . S
C3762 H3756 0.930 . S
C3762 C3763 1.367 . S
C3762 C3770 1.378 . S
C3763 C3762 1.367 . S
C3763 C3771 1.433 . S
C3764 H3760 0.929 . S
C3764 C3766 1.378 . S
C3764 C3768 1.350 . S
C3765 C3768 1.463 . S
C3765 C3770 1.350 . S
C3765 N3773 1.427 . S
C3766 H3757 0.930 . S
C3766 C3764 1.378 . S
C3766 C3767 1.367 . S
C3767 C3766 1.367 . S
C3767 C3769 1.433 . S
C3768 C3764 1.350 . S
C3768 C3765 1.463 . S
C3768 N3772 1.427 . S
C3769 H3759 0.929 . S
C3769 C3767 1.433 . S
C3769 N3772 1.384 . S
C3770 H3761 0.929 . S
C3770 C3762 1.378 . S
C3770 C3765 1.350 . S
C3771 H3758 0.929 . S
C3771 C3763 1.433 . S
C3771 N3773 1.384 . S
N3772 C3768 1.427 . S
N3772 C3769 1.384 . S
N3773 C3765 1.427 . S
N3773 C3771 1.384 . S
H3774 C3780 0.930 . S
H3775 C3784 0.930 . S
H3776 C3789 0.929 . S
H3777 C3787 0.929 . S
H3778 C3782 0.929 . S
H3779 C3788 0.929 . S
C3780 H3774 0.930 . S
C3780 C3781 1.367 . S
C3780 C3788 1.378 . S
C3781 C3780 1.367 . S
C3781 C3789 1.433 . S
C3782 H3778 0.929 . S
C3782 C3784 1.378 . S
C3782 C3786 1.350 . S
C3783 C3786 1.463 . S
C3783 C3788 1.350 . S
C3783 N3791 1.427 . S
C3784 H3775 0.930 . S
C3784 C3782 1.378 . S
C3784 C3785 1.367 . S
C3785 C3784 1.367 . S
C3785 C3787 1.433 . S
C3786 C3782 1.350 . S
C3786 C3783 1.463 . S
C3786 N3790 1.427 . S
C3787 H3777 0.929 . S
C3787 C3785 1.433 . S
C3787 N3790 1.384 . S
C3788 H3779 0.929 . S
C3788 C3780 1.378 . S
C3788 C3783 1.350 . S
C3789 H3776 0.929 . S
C3789 C3781 1.433 . S
C3789 N3791 1.384 . S
N3790 C3786 1.427 . S
N3790 C3787 1.384 . S
N3791 C3783 1.427 . S
N3791 C3789 1.384 . S
H3792 C3798 0.930 . S
H3793 C3802 0.930 . S
H3794 C3807 0.929 . S
H3795 C3805 0.929 . S
H3796 C3800 0.929 . S
H3797 C3806 0.929 . S
C3798 H3792 0.930 . S
C3798 C3799 1.367 . S
C3798 C3806 1.378 . S
C3799 C3798 1.367 . S
C3799 C3807 1.433 . S
C3800 H3796 0.929 . S
C3800 C3802 1.378 . S
C3800 C3804 1.350 . S
C3801 C3804 1.463 . S
C3801 C3806 1.350 . S
C3801 N3809 1.427 . S
C3802 H3793 0.930 . S
C3802 C3800 1.378 . S
C3802 C3803 1.367 . S
C3803 C3802 1.367 . S
C3803 C3805 1.433 . S
C3804 C3800 1.350 . S
C3804 C3801 1.463 . S
C3804 N3808 1.427 . S
C3805 H3795 0.929 . S
C3805 C3803 1.433 . S
C3805 N3808 1.384 . S
C3806 H3797 0.929 . S
C3806 C3798 1.378 . S
C3806 C3801 1.350 . S
C3807 H3794 0.929 . S
C3807 C3799 1.433 . S
C3807 N3809 1.384 . S
N3808 C3804 1.427 . S
N3808 C3805 1.384 . S
N3809 C3801 1.427 . S
N3809 C3807 1.384 . S
H3810 C3816 0.930 . S
H3811 C3820 0.930 . S
H3812 C3825 0.929 . S
H3813 C3823 0.929 . S
H3814 C3818 0.929 . S
H3815 C3824 0.929 . S
C3816 H3810 0.930 . S
C3816 C3817 1.367 . S
C3816 C3824 1.378 . S
C3817 C3816 1.367 . S
C3817 C3825 1.433 . S
C3818 H3814 0.929 . S
C3818 C3820 1.378 . S
C3818 C3822 1.350 . S
C3819 C3822 1.463 . S
C3819 C3824 1.350 . S
C3819 N3827 1.427 . S
C3820 H3811 0.930 . S
C3820 C3818 1.378 . S
C3820 C3821 1.367 . S
C3821 C3820 1.367 . S
C3821 C3823 1.433 . S
C3822 C3818 1.350 . S
C3822 C3819 1.463 . S
C3822 N3826 1.427 . S
C3823 H3813 0.929 . S
C3823 C3821 1.433 . S
C3823 N3826 1.384 . S
C3824 H3815 0.929 . S
C3824 C3816 1.378 . S
C3824 C3819 1.350 . S
C3825 H3812 0.929 . S
C3825 C3817 1.433 . S
C3825 N3827 1.384 . S
N3826 C3822 1.427 . S
N3826 C3823 1.384 . S
N3827 C3819 1.427 . S
N3827 C3825 1.384 . S
H3828 C3834 0.930 . S
H3829 C3838 0.930 . S
H3830 C3843 0.929 . S
H3831 C3841 0.929 . S
H3832 C3836 0.929 . S
H3833 C3842 0.929 . S
C3834 H3828 0.930 . S
C3834 C3835 1.367 . S
C3834 C3842 1.378 . S
C3835 C3834 1.367 . S
C3835 C3843 1.433 . S
C3836 H3832 0.929 . S
C3836 C3838 1.378 . S
C3836 C3840 1.350 . S
C3837 C3840 1.463 . S
C3837 C3842 1.350 . S
C3837 N3845 1.427 . S
C3838 H3829 0.930 . S
C3838 C3836 1.378 . S
C3838 C3839 1.367 . S
C3839 C3838 1.367 . S
C3839 C3841 1.433 . S
C3840 C3836 1.350 . S
C3840 C3837 1.463 . S
C3840 N3844 1.427 . S
C3841 H3831 0.929 . S
C3841 C3839 1.433 . S
C3841 N3844 1.384 . S
C3842 H3833 0.929 . S
C3842 C3834 1.378 . S
C3842 C3837 1.350 . S
C3843 H3830 0.929 . S
C3843 C3835 1.433 . S
C3843 N3845 1.384 . S
N3844 C3840 1.427 . S
N3844 C3841 1.384 . S
N3845 C3837 1.427 . S
N3845 C3843 1.384 . S
H3846 C3852 0.930 . S
H3847 C3856 0.930 . S
H3848 C3861 0.929 . S
H3849 C3859 0.929 . S
H3850 C3854 0.929 . S
H3851 C3860 0.929 . S
C3852 H3846 0.930 . S
C3852 C3853 1.367 . S
C3852 C3860 1.378 . S
C3853 C3852 1.367 . S
C3853 C3861 1.433 . S
C3854 H3850 0.929 . S
C3854 C3856 1.378 . S
C3854 C3858 1.350 . S
C3855 C3858 1.463 . S
C3855 C3860 1.350 . S
C3855 N3863 1.427 . S
C3856 H3847 0.930 . S
C3856 C3854 1.378 . S
C3856 C3857 1.367 . S
C3857 C3856 1.367 . S
C3857 C3859 1.433 . S
C3858 C3854 1.350 . S
C3858 C3855 1.463 . S
C3858 N3862 1.427 . S
C3859 H3849 0.929 . S
C3859 C3857 1.433 . S
C3859 N3862 1.384 . S
C3860 H3851 0.929 . S
C3860 C3852 1.378 . S
C3860 C3855 1.350 . S
C3861 H3848 0.929 . S
C3861 C3853 1.433 . S
C3861 N3863 1.384 . S
N3862 C3858 1.427 . S
N3862 C3859 1.384 . S
N3863 C3855 1.427 . S
N3863 C3861 1.384 . S
H3864 C3870 0.930 . S
H3865 C3874 0.930 . S
H3866 C3879 0.929 . S
H3867 C3877 0.929 . S
H3868 C3872 0.929 . S
H3869 C3878 0.929 . S
C3870 H3864 0.930 . S
C3870 C3871 1.367 . S
C3870 C3878 1.378 . S
C3871 C3870 1.367 . S
C3871 C3879 1.433 . S
C3872 H3868 0.929 . S
C3872 C3874 1.378 . S
C3872 C3876 1.350 . S
C3873 C3876 1.463 . S
C3873 C3878 1.350 . S
C3873 N3881 1.427 . S
C3874 H3865 0.930 . S
C3874 C3872 1.378 . S
C3874 C3875 1.367 . S
C3875 C3874 1.367 . S
C3875 C3877 1.433 . S
C3876 C3872 1.350 . S
C3876 C3873 1.463 . S
C3876 N3880 1.427 . S
C3877 H3867 0.929 . S
C3877 C3875 1.433 . S
C3877 N3880 1.384 . S
C3878 H3869 0.929 . S
C3878 C3870 1.378 . S
C3878 C3873 1.350 . S
C3879 H3866 0.929 . S
C3879 C3871 1.433 . S
C3879 N3881 1.384 . S
N3880 C3876 1.427 . S
N3880 C3877 1.384 . S
N3881 C3873 1.427 . S
N3881 C3879 1.384 . S
H3882 C3888 0.930 . S
H3883 C3892 0.930 . S
H3884 C3897 0.929 . S
H3885 C3895 0.929 . S
H3886 C3890 0.929 . S
H3887 C3896 0.929 . S
C3888 H3882 0.930 . S
C3888 C3889 1.367 . S
C3888 C3896 1.378 . S
C3889 C3888 1.367 . S
C3889 C3897 1.433 . S
C3890 H3886 0.929 . S
C3890 C3892 1.378 . S
C3890 C3894 1.350 . S
C3891 C3894 1.463 . S
C3891 C3896 1.350 . S
C3891 N3899 1.427 . S
C3892 H3883 0.930 . S
C3892 C3890 1.378 . S
C3892 C3893 1.367 . S
C3893 C3892 1.367 . S
C3893 C3895 1.433 . S
C3894 C3890 1.350 . S
C3894 C3891 1.463 . S
C3894 N3898 1.427 . S
C3895 H3885 0.929 . S
C3895 C3893 1.433 . S
C3895 N3898 1.384 . S
C3896 H3887 0.929 . S
C3896 C3888 1.378 . S
C3896 C3891 1.350 . S
C3897 H3884 0.929 . S
C3897 C3889 1.433 . S
C3897 N3899 1.384 . S
N3898 C3894 1.427 . S
N3898 C3895 1.384 . S
N3899 C3891 1.427 . S
N3899 C3897 1.384 . S
H3900 C3906 0.930 . S
H3901 C3910 0.930 . S
H3902 C3915 0.929 . S
H3903 C3913 0.929 . S
H3904 C3908 0.929 . S
H3905 C3914 0.929 . S
C3906 H3900 0.930 . S
C3906 C3907 1.367 . S
C3906 C3914 1.378 . S
C3907 C3906 1.367 . S
C3907 C3915 1.433 . S
C3908 H3904 0.929 . S
C3908 C3910 1.378 . S
C3908 C3912 1.350 . S
C3909 C3912 1.463 . S
C3909 C3914 1.350 . S
C3909 N3917 1.427 . S
C3910 H3901 0.930 . S
C3910 C3908 1.378 . S
C3910 C3911 1.367 . S
C3911 C3910 1.367 . S
C3911 C3913 1.433 . S
C3912 C3908 1.350 . S
C3912 C3909 1.463 . S
C3912 N3916 1.427 . S
C3913 H3903 0.929 . S
C3913 C3911 1.433 . S
C3913 N3916 1.384 . S
C3914 H3905 0.929 . S
C3914 C3906 1.378 . S
C3914 C3909 1.350 . S
C3915 H3902 0.929 . S
C3915 C3907 1.433 . S
C3915 N3917 1.384 . S
N3916 C3912 1.427 . S
N3916 C3913 1.384 . S
N3917 C3909 1.427 . S
N3917 C3915 1.384 . S
H3918 C3924 0.930 . S
H3919 C3928 0.930 . S
H3920 C3933 0.929 . S
H3921 C3931 0.929 . S
H3922 C3926 0.929 . S
H3923 C3932 0.929 . S
C3924 H3918 0.930 . S
C3924 C3925 1.367 . S
C3924 C3932 1.378 . S
C3925 C3924 1.367 . S
C3925 C3933 1.433 . S
C3926 H3922 0.929 . S
C3926 C3928 1.378 . S
C3926 C3930 1.350 . S
C3927 C3930 1.463 . S
C3927 C3932 1.350 . S
C3927 N3935 1.427 . S
C3928 H3919 0.930 . S
C3928 C3926 1.378 . S
C3928 C3929 1.367 . S
C3929 C3928 1.367 . S
C3929 C3931 1.433 . S
C3930 C3926 1.350 . S
C3930 C3927 1.463 . S
C3930 N3934 1.427 . S
C3931 H3921 0.929 . S
C3931 C3929 1.433 . S
C3931 N3934 1.384 . S
C3932 H3923 0.929 . S
C3932 C3924 1.378 . S
C3932 C3927 1.350 . S
C3933 H3920 0.929 . S
C3933 C3925 1.433 . S
C3933 N3935 1.384 . S
N3934 C3930 1.427 . S
N3934 C3931 1.384 . S
N3935 C3927 1.427 . S
N3935 C3933 1.384 . S
H3936 C3942 0.930 . S
H3937 C3946 0.930 . S
H3938 C3951 0.929 . S
H3939 C3949 0.929 . S
H3940 C3944 0.929 . S
H3941 C3950 0.929 . S
C3942 H3936 0.930 . S
C3942 C3943 1.367 . S
C3942 C3950 1.378 . S
C3943 C3942 1.367 . S
C3943 C3951 1.433 . S
C3944 H3940 0.929 . S
C3944 C3946 1.378 . S
C3944 C3948 1.350 . S
C3945 C3948 1.463 . S
C3945 C3950 1.350 . S
C3945 N3953 1.427 . S
C3946 H3937 0.930 . S
C3946 C3944 1.378 . S
C3946 C3947 1.367 . S
C3947 C3946 1.367 . S
C3947 C3949 1.433 . S
C3948 C3944 1.350 . S
C3948 C3945 1.463 . S
C3948 N3952 1.427 . S
C3949 H3939 0.929 . S
C3949 C3947 1.433 . S
C3949 N3952 1.384 . S
C3950 H3941 0.929 . S
C3950 C3942 1.378 . S
C3950 C3945 1.350 . S
C3951 H3938 0.929 . S
C3951 C3943 1.433 . S
C3951 N3953 1.384 . S
N3952 C3948 1.427 . S
N3952 C3949 1.384 . S
N3953 C3945 1.427 . S
N3953 C3951 1.384 . S
H3954 C3960 0.930 . S
H3955 C3964 0.930 . S
H3956 C3969 0.929 . S
H3957 C3967 0.929 . S
H3958 C3962 0.929 . S
H3959 C3968 0.929 . S
C3960 H3954 0.930 . S
C3960 C3961 1.367 . S
C3960 C3968 1.378 . S
C3961 C3960 1.367 . S
C3961 C3969 1.433 . S
C3962 H3958 0.929 . S
C3962 C3964 1.378 . S
C3962 C3966 1.350 . S
C3963 C3966 1.463 . S
C3963 C3968 1.350 . S
C3963 N3971 1.427 . S
C3964 H3955 0.930 . S
C3964 C3962 1.378 . S
C3964 C3965 1.367 . S
C3965 C3964 1.367 . S
C3965 C3967 1.433 . S
C3966 C3962 1.350 . S
C3966 C3963 1.463 . S
C3966 N3970 1.427 . S
C3967 H3957 0.929 . S
C3967 C3965 1.433 . S
C3967 N3970 1.384 . S
C3968 H3959 0.929 . S
C3968 C3960 1.378 . S
C3968 C3963 1.350 . S
C3969 H3956 0.929 . S
C3969 C3961 1.433 . S
C3969 N3971 1.384 . S
N3970 C3966 1.427 . S
N3970 C3967 1.384 . S
N3971 C3963 1.427 . S
N3971 C3969 1.384 . S
H3972 C3978 0.930 . S
H3973 C3982 0.930 . S
H3974 C3987 0.929 . S
H3975 C3985 0.929 . S
H3976 C3980 0.929 . S
H3977 C3986 0.929 . S
C3978 H3972 0.930 . S
C3978 C3979 1.367 . S
C3978 C3986 1.378 . S
C3979 C3978 1.367 . S
C3979 C3987 1.433 . S
C3980 H3976 0.929 . S
C3980 C3982 1.378 . S
C3980 C3984 1.350 . S
C3981 C3984 1.463 . S
C3981 C3986 1.350 . S
C3981 N3989 1.427 . S
C3982 H3973 0.930 . S
C3982 C3980 1.378 . S
C3982 C3983 1.367 . S
C3983 C3982 1.367 . S
C3983 C3985 1.433 . S
C3984 C3980 1.350 . S
C3984 C3981 1.463 . S
C3984 N3988 1.427 . S
C3985 H3975 0.929 . S
C3985 C3983 1.433 . S
C3985 N3988 1.384 . S
C3986 H3977 0.929 . S
C3986 C3978 1.378 . S
C3986 C3981 1.350 . S
C3987 H3974 0.929 . S
C3987 C3979 1.433 . S
C3987 N3989 1.384 . S
N3988 C3984 1.427 . S
N3988 C3985 1.384 . S
N3989 C3981 1.427 . S
N3989 C3987 1.384 . S
H3990 C3996 0.930 . S
H3991 C4000 0.930 . S
H3992 C4005 0.929 . S
H3993 C4003 0.929 . S
H3994 C3998 0.929 . S
H3995 C4004 0.929 . S
C3996 H3990 0.930 . S
C3996 C3997 1.367 . S
C3996 C4004 1.378 . S
C3997 C3996 1.367 . S
C3997 C4005 1.433 . S
C3998 H3994 0.929 . S
C3998 C4000 1.378 . S
C3998 C4002 1.350 . S
C3999 C4002 1.463 . S
C3999 C4004 1.350 . S
C3999 N4007 1.427 . S
C4000 H3991 0.930 . S
C4000 C3998 1.378 . S
C4000 C4001 1.367 . S
C4001 C4000 1.367 . S
C4001 C4003 1.433 . S
C4002 C3998 1.350 . S
C4002 C3999 1.463 . S
C4002 N4006 1.427 . S
C4003 H3993 0.929 . S
C4003 C4001 1.433 . S
C4003 N4006 1.384 . S
C4004 H3995 0.929 . S
C4004 C3996 1.378 . S
C4004 C3999 1.350 . S
C4005 H3992 0.929 . S
C4005 C3997 1.433 . S
C4005 N4007 1.384 . S
N4006 C4002 1.427 . S
N4006 C4003 1.384 . S
N4007 C3999 1.427 . S
N4007 C4005 1.384 . S
H4008 C4014 0.930 . S
H4009 C4018 0.930 . S
H4010 C4023 0.929 . S
H4011 C4021 0.929 . S
H4012 C4016 0.929 . S
H4013 C4022 0.929 . S
C4014 H4008 0.930 . S
C4014 C4015 1.367 . S
C4014 C4022 1.378 . S
C4015 C4014 1.367 . S
C4015 C4023 1.433 . S
C4016 H4012 0.929 . S
C4016 C4018 1.378 . S
C4016 C4020 1.350 . S
C4017 C4020 1.463 . S
C4017 C4022 1.350 . S
C4017 N4025 1.427 . S
C4018 H4009 0.930 . S
C4018 C4016 1.378 . S
C4018 C4019 1.367 . S
C4019 C4018 1.367 . S
C4019 C4021 1.433 . S
C4020 C4016 1.350 . S
C4020 C4017 1.463 . S
C4020 N4024 1.427 . S
C4021 H4011 0.929 . S
C4021 C4019 1.433 . S
C4021 N4024 1.384 . S
C4022 H4013 0.929 . S
C4022 C4014 1.378 . S
C4022 C4017 1.350 . S
C4023 H4010 0.929 . S
C4023 C4015 1.433 . S
C4023 N4025 1.384 . S
N4024 C4020 1.427 . S
N4024 C4021 1.384 . S
N4025 C4017 1.427 . S
N4025 C4023 1.384 . S
H4026 C4032 0.930 . S
H4027 C4036 0.930 . S
H4028 C4041 0.929 . S
H4029 C4039 0.929 . S
H4030 C4034 0.929 . S
H4031 C4040 0.929 . S
C4032 H4026 0.930 . S
C4032 C4033 1.367 . S
C4032 C4040 1.378 . S
C4033 C4032 1.367 . S
C4033 C4041 1.433 . S
C4034 H4030 0.929 . S
C4034 C4036 1.378 . S
C4034 C4038 1.350 . S
C4035 C4038 1.463 . S
C4035 C4040 1.350 . S
C4035 N4043 1.427 . S
C4036 H4027 0.930 . S
C4036 C4034 1.378 . S
C4036 C4037 1.367 . S
C4037 C4036 1.367 . S
C4037 C4039 1.433 . S
C4038 C4034 1.350 . S
C4038 C4035 1.463 . S
C4038 N4042 1.427 . S
C4039 H4029 0.929 . S
C4039 C4037 1.433 . S
C4039 N4042 1.384 . S
C4040 H4031 0.929 . S
C4040 C4032 1.378 . S
C4040 C4035 1.350 . S
C4041 H4028 0.929 . S
C4041 C4033 1.433 . S
C4041 N4043 1.384 . S
N4042 C4038 1.427 . S
N4042 C4039 1.384 . S
N4043 C4035 1.427 . S
N4043 C4041 1.384 . S
H4044 C4050 0.930 . S
H4045 C4054 0.930 . S
H4046 C4059 0.929 . S
H4047 C4057 0.929 . S
H4048 C4052 0.929 . S
H4049 C4058 0.929 . S
C4050 H4044 0.930 . S
C4050 C4051 1.367 . S
C4050 C4058 1.378 . S
C4051 C4050 1.367 . S
C4051 C4059 1.433 . S
C4052 H4048 0.929 . S
C4052 C4054 1.378 . S
C4052 C4056 1.350 . S
C4053 C4056 1.463 . S
C4053 C4058 1.350 . S
C4053 N4061 1.427 . S
C4054 H4045 0.930 . S
C4054 C4052 1.378 . S
C4054 C4055 1.367 . S
C4055 C4054 1.367 . S
C4055 C4057 1.433 . S
C4056 C4052 1.350 . S
C4056 C4053 1.463 . S
C4056 N4060 1.427 . S
C4057 H4047 0.929 . S
C4057 C4055 1.433 . S
C4057 N4060 1.384 . S
C4058 H4049 0.929 . S
C4058 C4050 1.378 . S
C4058 C4053 1.350 . S
C4059 H4046 0.929 . S
C4059 C4051 1.433 . S
C4059 N4061 1.384 . S
N4060 C4056 1.427 . S
N4060 C4057 1.384 . S
N4061 C4053 1.427 . S
N4061 C4059 1.384 . S
H4062 C4068 0.930 . S
H4063 C4072 0.930 . S
H4064 C4077 0.929 . S
H4065 C4075 0.929 . S
H4066 C4070 0.929 . S
H4067 C4076 0.929 . S
C4068 H4062 0.930 . S
C4068 C4069 1.367 . S
C4068 C4076 1.378 . S
C4069 C4068 1.367 . S
C4069 C4077 1.433 . S
C4070 H4066 0.929 . S
C4070 C4072 1.378 . S
C4070 C4074 1.350 . S
C4071 C4074 1.463 . S
C4071 C4076 1.350 . S
C4071 N4079 1.427 . S
C4072 H4063 0.930 . S
C4072 C4070 1.378 . S
C4072 C4073 1.367 . S
C4073 C4072 1.367 . S
C4073 C4075 1.433 . S
C4074 C4070 1.350 . S
C4074 C4071 1.463 . S
C4074 N4078 1.427 . S
C4075 H4065 0.929 . S
C4075 C4073 1.433 . S
C4075 N4078 1.384 . S
C4076 H4067 0.929 . S
C4076 C4068 1.378 . S
C4076 C4071 1.350 . S
C4077 H4064 0.929 . S
C4077 C4069 1.433 . S
C4077 N4079 1.384 . S
N4078 C4074 1.427 . S
N4078 C4075 1.384 . S
N4079 C4071 1.427 . S
N4079 C4077 1.384 . S
H4080 C4086 0.930 . S
H4081 C4090 0.930 . S
H4082 C4095 0.929 . S
H4083 C4093 0.929 . S
H4084 C4088 0.929 . S
H4085 C4094 0.929 . S
C4086 H4080 0.930 . S
C4086 C4087 1.367 . S
C4086 C4094 1.378 . S
C4087 C4086 1.367 . S
C4087 C4095 1.433 . S
C4088 H4084 0.929 . S
C4088 C4090 1.378 . S
C4088 C4092 1.350 . S
C4089 C4092 1.463 . S
C4089 C4094 1.350 . S
C4089 N4097 1.427 . S
C4090 H4081 0.930 . S
C4090 C4088 1.378 . S
C4090 C4091 1.367 . S
C4091 C4090 1.367 . S
C4091 C4093 1.433 . S
C4092 C4088 1.350 . S
C4092 C4089 1.463 . S
C4092 N4096 1.427 . S
C4093 H4083 0.929 . S
C4093 C4091 1.433 . S
C4093 N4096 1.384 . S
C4094 H4085 0.929 . S
C4094 C4086 1.378 . S
C4094 C4089 1.350 . S
C4095 H4082 0.929 . S
C4095 C4087 1.433 . S
C4095 N4097 1.384 . S
N4096 C4092 1.427 . S
N4096 C4093 1.384 . S
N4097 C4089 1.427 . S
N4097 C4095 1.384 . S
H4098 C4104 0.930 . S
H4099 C4108 0.930 . S
H4100 C4113 0.929 . S
H4101 C4111 0.929 . S
H4102 C4106 0.929 . S
H4103 C4112 0.929 . S
C4104 H4098 0.930 . S
C4104 C4105 1.367 . S
C4104 C4112 1.378 . S
C4105 C4104 1.367 . S
C4105 C4113 1.433 . S
C4106 H4102 0.929 . S
C4106 C4108 1.378 . S
C4106 C4110 1.350 . S
C4107 C4110 1.463 . S
C4107 C4112 1.350 . S
C4107 N4115 1.427 . S
C4108 H4099 0.930 . S
C4108 C4106 1.378 . S
C4108 C4109 1.367 . S
C4109 C4108 1.367 . S
C4109 C4111 1.433 . S
C4110 C4106 1.350 . S
C4110 C4107 1.463 . S
C4110 N4114 1.427 . S
C4111 H4101 0.929 . S
C4111 C4109 1.433 . S
C4111 N4114 1.384 . S
C4112 H4103 0.929 . S
C4112 C4104 1.378 . S
C4112 C4107 1.350 . S
C4113 H4100 0.929 . S
C4113 C4105 1.433 . S
C4113 N4115 1.384 . S
N4114 C4110 1.427 . S
N4114 C4111 1.384 . S
N4115 C4107 1.427 . S
N4115 C4113 1.384 . S
H4116 C4122 0.930 . S
H4117 C4126 0.930 . S
H4118 C4131 0.929 . S
H4119 C4129 0.929 . S
H4120 C4124 0.929 . S
H4121 C4130 0.929 . S
C4122 H4116 0.930 . S
C4122 C4123 1.367 . S
C4122 C4130 1.378 . S
C4123 C4122 1.367 . S
C4123 C4131 1.433 . S
C4124 H4120 0.929 . S
C4124 C4126 1.378 . S
C4124 C4128 1.350 . S
C4125 C4128 1.463 . S
C4125 C4130 1.350 . S
C4125 N4133 1.427 . S
C4126 H4117 0.930 . S
C4126 C4124 1.378 . S
C4126 C4127 1.367 . S
C4127 C4126 1.367 . S
C4127 C4129 1.433 . S
C4128 C4124 1.350 . S
C4128 C4125 1.463 . S
C4128 N4132 1.427 . S
C4129 H4119 0.929 . S
C4129 C4127 1.433 . S
C4129 N4132 1.384 . S
C4130 H4121 0.929 . S
C4130 C4122 1.378 . S
C4130 C4125 1.350 . S
C4131 H4118 0.929 . S
C4131 C4123 1.433 . S
C4131 N4133 1.384 . S
N4132 C4128 1.427 . S
N4132 C4129 1.384 . S
N4133 C4125 1.427 . S
N4133 C4131 1.384 . S
H4134 C4140 0.930 . S
H4135 C4144 0.930 . S
H4136 C4149 0.929 . S
H4137 C4147 0.929 . S
H4138 C4142 0.929 . S
H4139 C4148 0.929 . S
C4140 H4134 0.930 . S
C4140 C4141 1.367 . S
C4140 C4148 1.378 . S
C4141 C4140 1.367 . S
C4141 C4149 1.433 . S
C4142 H4138 0.929 . S
C4142 C4144 1.378 . S
C4142 C4146 1.350 . S
C4143 C4146 1.463 . S
C4143 C4148 1.350 . S
C4143 N4151 1.427 . S
C4144 H4135 0.930 . S
C4144 C4142 1.378 . S
C4144 C4145 1.367 . S
C4145 C4144 1.367 . S
C4145 C4147 1.433 . S
C4146 C4142 1.350 . S
C4146 C4143 1.463 . S
C4146 N4150 1.427 . S
C4147 H4137 0.929 . S
C4147 C4145 1.433 . S
C4147 N4150 1.384 . S
C4148 H4139 0.929 . S
C4148 C4140 1.378 . S
C4148 C4143 1.350 . S
C4149 H4136 0.929 . S
C4149 C4141 1.433 . S
C4149 N4151 1.384 . S
N4150 C4146 1.427 . S
N4150 C4147 1.384 . S
N4151 C4143 1.427 . S
N4151 C4149 1.384 . S
H4152 C4158 0.930 . S
H4153 C4162 0.930 . S
H4154 C4167 0.929 . S
H4155 C4165 0.929 . S
H4156 C4160 0.929 . S
H4157 C4166 0.929 . S
C4158 H4152 0.930 . S
C4158 C4159 1.367 . S
C4158 C4166 1.378 . S
C4159 C4158 1.367 . S
C4159 C4167 1.433 . S
C4160 H4156 0.929 . S
C4160 C4162 1.378 . S
C4160 C4164 1.350 . S
C4161 C4164 1.463 . S
C4161 C4166 1.350 . S
C4161 N4169 1.427 . S
C4162 H4153 0.930 . S
C4162 C4160 1.378 . S
C4162 C4163 1.367 . S
C4163 C4162 1.367 . S
C4163 C4165 1.433 . S
C4164 C4160 1.350 . S
C4164 C4161 1.463 . S
C4164 N4168 1.427 . S
C4165 H4155 0.929 . S
C4165 C4163 1.433 . S
C4165 N4168 1.384 . S
C4166 H4157 0.929 . S
C4166 C4158 1.378 . S
C4166 C4161 1.350 . S
C4167 H4154 0.929 . S
C4167 C4159 1.433 . S
C4167 N4169 1.384 . S
N4168 C4164 1.427 . S
N4168 C4165 1.384 . S
N4169 C4161 1.427 . S
N4169 C4167 1.384 . S
H4170 C4176 0.930 . S
H4171 C4180 0.930 . S
H4172 C4185 0.929 . S
H4173 C4183 0.929 . S
H4174 C4178 0.929 . S
H4175 C4184 0.929 . S
C4176 H4170 0.930 . S
C4176 C4177 1.367 . S
C4176 C4184 1.378 . S
C4177 C4176 1.367 . S
C4177 C4185 1.433 . S
C4178 H4174 0.929 . S
C4178 C4180 1.378 . S
C4178 C4182 1.350 . S
C4179 C4182 1.463 . S
C4179 C4184 1.350 . S
C4179 N4187 1.427 . S
C4180 H4171 0.930 . S
C4180 C4178 1.378 . S
C4180 C4181 1.367 . S
C4181 C4180 1.367 . S
C4181 C4183 1.433 . S
C4182 C4178 1.350 . S
C4182 C4179 1.463 . S
C4182 N4186 1.427 . S
C4183 H4173 0.929 . S
C4183 C4181 1.433 . S
C4183 N4186 1.384 . S
C4184 H4175 0.929 . S
C4184 C4176 1.378 . S
C4184 C4179 1.350 . S
C4185 H4172 0.929 . S
C4185 C4177 1.433 . S
C4185 N4187 1.384 . S
N4186 C4182 1.427 . S
N4186 C4183 1.384 . S
N4187 C4179 1.427 . S
N4187 C4185 1.384 . S
H4188 C4194 0.930 . S
H4189 C4198 0.930 . S
H4190 C4203 0.929 . S
H4191 C4201 0.929 . S
H4192 C4196 0.929 . S
H4193 C4202 0.929 . S
C4194 H4188 0.930 . S
C4194 C4195 1.367 . S
C4194 C4202 1.378 . S
C4195 C4194 1.367 . S
C4195 C4203 1.433 . S
C4196 H4192 0.929 . S
C4196 C4198 1.378 . S
C4196 C4200 1.350 . S
C4197 C4200 1.463 . S
C4197 C4202 1.350 . S
C4197 N4205 1.427 . S
C4198 H4189 0.930 . S
C4198 C4196 1.378 . S
C4198 C4199 1.367 . S
C4199 C4198 1.367 . S
C4199 C4201 1.433 . S
C4200 C4196 1.350 . S
C4200 C4197 1.463 . S
C4200 N4204 1.427 . S
C4201 H4191 0.929 . S
C4201 C4199 1.433 . S
C4201 N4204 1.384 . S
C4202 H4193 0.929 . S
C4202 C4194 1.378 . S
C4202 C4197 1.350 . S
C4203 H4190 0.929 . S
C4203 C4195 1.433 . S
C4203 N4205 1.384 . S
N4204 C4200 1.427 . S
N4204 C4201 1.384 . S
N4205 C4197 1.427 . S
N4205 C4203 1.384 . S
H4206 C4212 0.930 . S
H4207 C4216 0.930 . S
H4208 C4221 0.929 . S
H4209 C4219 0.929 . S
H4210 C4214 0.929 . S
H4211 C4220 0.929 . S
C4212 H4206 0.930 . S
C4212 C4213 1.367 . S
C4212 C4220 1.378 . S
C4213 C4212 1.367 . S
C4213 C4221 1.433 . S
C4214 H4210 0.929 . S
C4214 C4216 1.378 . S
C4214 C4218 1.350 . S
C4215 C4218 1.463 . S
C4215 C4220 1.350 . S
C4215 N4223 1.427 . S
C4216 H4207 0.930 . S
C4216 C4214 1.378 . S
C4216 C4217 1.367 . S
C4217 C4216 1.367 . S
C4217 C4219 1.433 . S
C4218 C4214 1.350 . S
C4218 C4215 1.463 . S
C4218 N4222 1.427 . S
C4219 H4209 0.929 . S
C4219 C4217 1.433 . S
C4219 N4222 1.384 . S
C4220 H4211 0.929 . S
C4220 C4212 1.378 . S
C4220 C4215 1.350 . S
C4221 H4208 0.929 . S
C4221 C4213 1.433 . S
C4221 N4223 1.384 . S
N4222 C4218 1.427 . S
N4222 C4219 1.384 . S
N4223 C4215 1.427 . S
N4223 C4221 1.384 . S
H4224 C4230 0.930 . S
H4225 C4234 0.930 . S
H4226 C4239 0.929 . S
H4227 C4237 0.929 . S
H4228 C4232 0.929 . S
H4229 C4238 0.929 . S
C4230 H4224 0.930 . S
C4230 C4231 1.367 . S
C4230 C4238 1.378 . S
C4231 C4230 1.367 . S
C4231 C4239 1.433 . S
C4232 H4228 0.929 . S
C4232 C4234 1.378 . S
C4232 C4236 1.350 . S
C4233 C4236 1.463 . S
C4233 C4238 1.350 . S
C4233 N4241 1.427 . S
C4234 H4225 0.930 . S
C4234 C4232 1.378 . S
C4234 C4235 1.367 . S
C4235 C4234 1.367 . S
C4235 C4237 1.433 . S
C4236 C4232 1.350 . S
C4236 C4233 1.463 . S
C4236 N4240 1.427 . S
C4237 H4227 0.929 . S
C4237 C4235 1.433 . S
C4237 N4240 1.384 . S
C4238 H4229 0.929 . S
C4238 C4230 1.378 . S
C4238 C4233 1.350 . S
C4239 H4226 0.929 . S
C4239 C4231 1.433 . S
C4239 N4241 1.384 . S
N4240 C4236 1.427 . S
N4240 C4237 1.384 . S
N4241 C4233 1.427 . S
N4241 C4239 1.384 . S
H4242 C4248 0.930 . S
H4243 C4252 0.930 . S
H4244 C4257 0.929 . S
H4245 C4255 0.929 . S
H4246 C4250 0.929 . S
H4247 C4256 0.929 . S
C4248 H4242 0.930 . S
C4248 C4249 1.367 . S
C4248 C4256 1.378 . S
C4249 C4248 1.367 . S
C4249 C4257 1.433 . S
C4250 H4246 0.929 . S
C4250 C4252 1.378 . S
C4250 C4254 1.350 . S
C4251 C4254 1.463 . S
C4251 C4256 1.350 . S
C4251 N4259 1.427 . S
C4252 H4243 0.930 . S
C4252 C4250 1.378 . S
C4252 C4253 1.367 . S
C4253 C4252 1.367 . S
C4253 C4255 1.433 . S
C4254 C4250 1.350 . S
C4254 C4251 1.463 . S
C4254 N4258 1.427 . S
C4255 H4245 0.929 . S
C4255 C4253 1.433 . S
C4255 N4258 1.384 . S
C4256 H4247 0.929 . S
C4256 C4248 1.378 . S
C4256 C4251 1.350 . S
C4257 H4244 0.929 . S
C4257 C4249 1.433 . S
C4257 N4259 1.384 . S
N4258 C4254 1.427 . S
N4258 C4255 1.384 . S
N4259 C4251 1.427 . S
N4259 C4257 1.384 . S
H4260 C4266 0.930 . S
H4261 C4270 0.930 . S
H4262 C4275 0.929 . S
H4263 C4273 0.929 . S
H4264 C4268 0.929 . S
H4265 C4274 0.929 . S
C4266 H4260 0.930 . S
C4266 C4267 1.367 . S
C4266 C4274 1.378 . S
C4267 C4266 1.367 . S
C4267 C4275 1.433 . S
C4268 H4264 0.929 . S
C4268 C4270 1.378 . S
C4268 C4272 1.350 . S
C4269 C4272 1.463 . S
C4269 C4274 1.350 . S
C4269 N4277 1.427 . S
C4270 H4261 0.930 . S
C4270 C4268 1.378 . S
C4270 C4271 1.367 . S
C4271 C4270 1.367 . S
C4271 C4273 1.433 . S
C4272 C4268 1.350 . S
C4272 C4269 1.463 . S
C4272 N4276 1.427 . S
C4273 H4263 0.929 . S
C4273 C4271 1.433 . S
C4273 N4276 1.384 . S
C4274 H4265 0.929 . S
C4274 C4266 1.378 . S
C4274 C4269 1.350 . S
C4275 H4262 0.929 . S
C4275 C4267 1.433 . S
C4275 N4277 1.384 . S
N4276 C4272 1.427 . S
N4276 C4273 1.384 . S
N4277 C4269 1.427 . S
N4277 C4275 1.384 . S
H4278 C4284 0.930 . S
H4279 C4288 0.930 . S
H4280 C4293 0.929 . S
H4281 C4291 0.929 . S
H4282 C4286 0.929 . S
H4283 C4292 0.929 . S
C4284 H4278 0.930 . S
C4284 C4285 1.367 . S
C4284 C4292 1.378 . S
C4285 C4284 1.367 . S
C4285 C4293 1.433 . S
C4286 H4282 0.929 . S
C4286 C4288 1.378 . S
C4286 C4290 1.350 . S
C4287 C4290 1.463 . S
C4287 C4292 1.350 . S
C4287 N4295 1.427 . S
C4288 H4279 0.930 . S
C4288 C4286 1.378 . S
C4288 C4289 1.367 . S
C4289 C4288 1.367 . S
C4289 C4291 1.433 . S
C4290 C4286 1.350 . S
C4290 C4287 1.463 . S
C4290 N4294 1.427 . S
C4291 H4281 0.929 . S
C4291 C4289 1.433 . S
C4291 N4294 1.384 . S
C4292 H4283 0.929 . S
C4292 C4284 1.378 . S
C4292 C4287 1.350 . S
C4293 H4280 0.929 . S
C4293 C4285 1.433 . S
C4293 N4295 1.384 . S
N4294 C4290 1.427 . S
N4294 C4291 1.384 . S
N4295 C4287 1.427 . S
N4295 C4293 1.384 . S
H4296 C4302 0.930 . S
H4297 C4306 0.930 . S
H4298 C4311 0.929 . S
H4299 C4309 0.929 . S
H4300 C4304 0.929 . S
H4301 C4310 0.929 . S
C4302 H4296 0.930 . S
C4302 C4303 1.367 . S
C4302 C4310 1.378 . S
C4303 C4302 1.367 . S
C4303 C4311 1.433 . S
C4304 H4300 0.929 . S
C4304 C4306 1.378 . S
C4304 C4308 1.350 . S
C4305 C4308 1.463 . S
C4305 C4310 1.350 . S
C4305 N4313 1.427 . S
C4306 H4297 0.930 . S
C4306 C4304 1.378 . S
C4306 C4307 1.367 . S
C4307 C4306 1.367 . S
C4307 C4309 1.433 . S
C4308 C4304 1.350 . S
C4308 C4305 1.463 . S
C4308 N4312 1.427 . S
C4309 H4299 0.929 . S
C4309 C4307 1.433 . S
C4309 N4312 1.384 . S
C4310 H4301 0.929 . S
C4310 C4302 1.378 . S
C4310 C4305 1.350 . S
C4311 H4298 0.929 . S
C4311 C4303 1.433 . S
C4311 N4313 1.384 . S
N4312 C4308 1.427 . S
N4312 C4309 1.384 . S
N4313 C4305 1.427 . S
N4313 C4311 1.384 . S
H4314 C4320 0.930 . S
H4315 C4324 0.930 . S
H4316 C4329 0.929 . S
H4317 C4327 0.929 . S
H4318 C4322 0.929 . S
H4319 C4328 0.929 . S
C4320 H4314 0.930 . S
C4320 C4321 1.367 . S
C4320 C4328 1.378 . S
C4321 C4320 1.367 . S
C4321 C4329 1.433 . S
C4322 H4318 0.929 . S
C4322 C4324 1.378 . S
C4322 C4326 1.350 . S
C4323 C4326 1.463 . S
C4323 C4328 1.350 . S
C4323 N4331 1.427 . S
C4324 H4315 0.930 . S
C4324 C4322 1.378 . S
C4324 C4325 1.367 . S
C4325 C4324 1.367 . S
C4325 C4327 1.433 . S
C4326 C4322 1.350 . S
C4326 C4323 1.463 . S
C4326 N4330 1.427 . S
C4327 H4317 0.929 . S
C4327 C4325 1.433 . S
C4327 N4330 1.384 . S
C4328 H4319 0.929 . S
C4328 C4320 1.378 . S
C4328 C4323 1.350 . S
C4329 H4316 0.929 . S
C4329 C4321 1.433 . S
C4329 N4331 1.384 . S
N4330 C4326 1.427 . S
N4330 C4327 1.384 . S
N4331 C4323 1.427 . S
N4331 C4329 1.384 . S
H4332 C4338 0.930 . S
H4333 C4342 0.930 . S
H4334 C4347 0.929 . S
H4335 C4345 0.929 . S
H4336 C4340 0.929 . S
H4337 C4346 0.929 . S
C4338 H4332 0.930 . S
C4338 C4339 1.367 . S
C4338 C4346 1.378 . S
C4339 C4338 1.367 . S
C4339 C4347 1.433 . S
C4340 H4336 0.929 . S
C4340 C4342 1.378 . S
C4340 C4344 1.350 . S
C4341 C4344 1.463 . S
C4341 C4346 1.350 . S
C4341 N4349 1.427 . S
C4342 H4333 0.930 . S
C4342 C4340 1.378 . S
C4342 C4343 1.367 . S
C4343 C4342 1.367 . S
C4343 C4345 1.433 . S
C4344 C4340 1.350 . S
C4344 C4341 1.463 . S
C4344 N4348 1.427 . S
C4345 H4335 0.929 . S
C4345 C4343 1.433 . S
C4345 N4348 1.384 . S
C4346 H4337 0.929 . S
C4346 C4338 1.378 . S
C4346 C4341 1.350 . S
C4347 H4334 0.929 . S
C4347 C4339 1.433 . S
C4347 N4349 1.384 . S
N4348 C4344 1.427 . S
N4348 C4345 1.384 . S
N4349 C4341 1.427 . S
N4349 C4347 1.384 . S
H4350 C4356 0.930 . S
H4351 C4360 0.930 . S
H4352 C4365 0.929 . S
H4353 C4363 0.929 . S
H4354 C4358 0.929 . S
H4355 C4364 0.929 . S
C4356 H4350 0.930 . S
C4356 C4357 1.367 . S
C4356 C4364 1.378 . S
C4357 C4356 1.367 . S
C4357 C4365 1.433 . S
C4358 H4354 0.929 . S
C4358 C4360 1.378 . S
C4358 C4362 1.350 . S
C4359 C4362 1.463 . S
C4359 C4364 1.350 . S
C4359 N4367 1.427 . S
C4360 H4351 0.930 . S
C4360 C4358 1.378 . S
C4360 C4361 1.367 . S
C4361 C4360 1.367 . S
C4361 C4363 1.433 . S
C4362 C4358 1.350 . S
C4362 C4359 1.463 . S
C4362 N4366 1.427 . S
C4363 H4353 0.929 . S
C4363 C4361 1.433 . S
C4363 N4366 1.384 . S
C4364 H4355 0.929 . S
C4364 C4356 1.378 . S
C4364 C4359 1.350 . S
C4365 H4352 0.929 . S
C4365 C4357 1.433 . S
C4365 N4367 1.384 . S
N4366 C4362 1.427 . S
N4366 C4363 1.384 . S
N4367 C4359 1.427 . S
N4367 C4365 1.384 . S
H4368 C4374 0.930 . S
H4369 C4378 0.930 . S
H4370 C4383 0.929 . S
H4371 C4381 0.929 . S
H4372 C4376 0.929 . S
H4373 C4382 0.929 . S
C4374 H4368 0.930 . S
C4374 C4375 1.367 . S
C4374 C4382 1.378 . S
C4375 C4374 1.367 . S
C4375 C4383 1.433 . S
C4376 H4372 0.929 . S
C4376 C4378 1.378 . S
C4376 C4380 1.350 . S
C4377 C4380 1.463 . S
C4377 C4382 1.350 . S
C4377 N4385 1.427 . S
C4378 H4369 0.930 . S
C4378 C4376 1.378 . S
C4378 C4379 1.367 . S
C4379 C4378 1.367 . S
C4379 C4381 1.433 . S
C4380 C4376 1.350 . S
C4380 C4377 1.463 . S
C4380 N4384 1.427 . S
C4381 H4371 0.929 . S
C4381 C4379 1.433 . S
C4381 N4384 1.384 . S
C4382 H4373 0.929 . S
C4382 C4374 1.378 . S
C4382 C4377 1.350 . S
C4383 H4370 0.929 . S
C4383 C4375 1.433 . S
C4383 N4385 1.384 . S
N4384 C4380 1.427 . S
N4384 C4381 1.384 . S
N4385 C4377 1.427 . S
N4385 C4383 1.384 . S
H4386 C4392 0.930 . S
H4387 C4396 0.930 . S
H4388 C4401 0.929 . S
H4389 C4399 0.929 . S
H4390 C4394 0.929 . S
H4391 C4400 0.929 . S
C4392 H4386 0.930 . S
C4392 C4393 1.367 . S
C4392 C4400 1.378 . S
C4393 C4392 1.367 . S
C4393 C4401 1.433 . S
C4394 H4390 0.929 . S
C4394 C4396 1.378 . S
C4394 C4398 1.350 . S
C4395 C4398 1.463 . S
C4395 C4400 1.350 . S
C4395 N4403 1.427 . S
C4396 H4387 0.930 . S
C4396 C4394 1.378 . S
C4396 C4397 1.367 . S
C4397 C4396 1.367 . S
C4397 C4399 1.433 . S
C4398 C4394 1.350 . S
C4398 C4395 1.463 . S
C4398 N4402 1.427 . S
C4399 H4389 0.929 . S
C4399 C4397 1.433 . S
C4399 N4402 1.384 . S
C4400 H4391 0.929 . S
C4400 C4392 1.378 . S
C4400 C4395 1.350 . S
C4401 H4388 0.929 . S
C4401 C4393 1.433 . S
C4401 N4403 1.384 . S
N4402 C4398 1.427 . S
N4402 C4399 1.384 . S
N4403 C4395 1.427 . S
N4403 C4401 1.384 . S
H4404 C4410 0.930 . S
H4405 C4414 0.930 . S
H4406 C4419 0.929 . S
H4407 C4417 0.929 . S
H4408 C4412 0.929 . S
H4409 C4418 0.929 . S
C4410 H4404 0.930 . S
C4410 C4411 1.367 . S
C4410 C4418 1.378 . S
C4411 C4410 1.367 . S
C4411 C4419 1.433 . S
C4412 H4408 0.929 . S
C4412 C4414 1.378 . S
C4412 C4416 1.350 . S
C4413 C4416 1.463 . S
C4413 C4418 1.350 . S
C4413 N4421 1.427 . S
C4414 H4405 0.930 . S
C4414 C4412 1.378 . S
C4414 C4415 1.367 . S
C4415 C4414 1.367 . S
C4415 C4417 1.433 . S
C4416 C4412 1.350 . S
C4416 C4413 1.463 . S
C4416 N4420 1.427 . S
C4417 H4407 0.929 . S
C4417 C4415 1.433 . S
C4417 N4420 1.384 . S
C4418 H4409 0.929 . S
C4418 C4410 1.378 . S
C4418 C4413 1.350 . S
C4419 H4406 0.929 . S
C4419 C4411 1.433 . S
C4419 N4421 1.384 . S
N4420 C4416 1.427 . S
N4420 C4417 1.384 . S
N4421 C4413 1.427 . S
N4421 C4419 1.384 . S
H4422 C4428 0.930 . S
H4423 C4432 0.930 . S
H4424 C4437 0.929 . S
H4425 C4435 0.929 . S
H4426 C4430 0.929 . S
H4427 C4436 0.929 . S
C4428 H4422 0.930 . S
C4428 C4429 1.367 . S
C4428 C4436 1.378 . S
C4429 C4428 1.367 . S
C4429 C4437 1.433 . S
C4430 H4426 0.929 . S
C4430 C4432 1.378 . S
C4430 C4434 1.350 . S
C4431 C4434 1.463 . S
C4431 C4436 1.350 . S
C4431 N4439 1.427 . S
C4432 H4423 0.930 . S
C4432 C4430 1.378 . S
C4432 C4433 1.367 . S
C4433 C4432 1.367 . S
C4433 C4435 1.433 . S
C4434 C4430 1.350 . S
C4434 C4431 1.463 . S
C4434 N4438 1.427 . S
C4435 H4425 0.929 . S
C4435 C4433 1.433 . S
C4435 N4438 1.384 . S
C4436 H4427 0.929 . S
C4436 C4428 1.378 . S
C4436 C4431 1.350 . S
C4437 H4424 0.929 . S
C4437 C4429 1.433 . S
C4437 N4439 1.384 . S
N4438 C4434 1.427 . S
N4438 C4435 1.384 . S
N4439 C4431 1.427 . S
N4439 C4437 1.384 . S
H4440 C4446 0.930 . S
H4441 C4450 0.930 . S
H4442 C4455 0.929 . S
H4443 C4453 0.929 . S
H4444 C4448 0.929 . S
H4445 C4454 0.929 . S
C4446 H4440 0.930 . S
C4446 C4447 1.367 . S
C4446 C4454 1.378 . S
C4447 C4446 1.367 . S
C4447 C4455 1.433 . S
C4448 H4444 0.929 . S
C4448 C4450 1.378 . S
C4448 C4452 1.350 . S
C4449 C4452 1.463 . S
C4449 C4454 1.350 . S
C4449 N4457 1.427 . S
C4450 H4441 0.930 . S
C4450 C4448 1.378 . S
C4450 C4451 1.367 . S
C4451 C4450 1.367 . S
C4451 C4453 1.433 . S
C4452 C4448 1.350 . S
C4452 C4449 1.463 . S
C4452 N4456 1.427 . S
C4453 H4443 0.929 . S
C4453 C4451 1.433 . S
C4453 N4456 1.384 . S
C4454 H4445 0.929 . S
C4454 C4446 1.378 . S
C4454 C4449 1.350 . S
C4455 H4442 0.929 . S
C4455 C4447 1.433 . S
C4455 N4457 1.384 . S
N4456 C4452 1.427 . S
N4456 C4453 1.384 . S
N4457 C4449 1.427 . S
N4457 C4455 1.384 . S
H4458 C4464 0.930 . S
H4459 C4468 0.930 . S
H4460 C4473 0.929 . S
H4461 C4471 0.929 . S
H4462 C4466 0.929 . S
H4463 C4472 0.929 . S
C4464 H4458 0.930 . S
C4464 C4465 1.367 . S
C4464 C4472 1.378 . S
C4465 C4464 1.367 . S
C4465 C4473 1.433 . S
C4466 H4462 0.929 . S
C4466 C4468 1.378 . S
C4466 C4470 1.350 . S
C4467 C4470 1.463 . S
C4467 C4472 1.350 . S
C4467 N4475 1.427 . S
C4468 H4459 0.930 . S
C4468 C4466 1.378 . S
C4468 C4469 1.367 . S
C4469 C4468 1.367 . S
C4469 C4471 1.433 . S
C4470 C4466 1.350 . S
C4470 C4467 1.463 . S
C4470 N4474 1.427 . S
C4471 H4461 0.929 . S
C4471 C4469 1.433 . S
C4471 N4474 1.384 . S
C4472 H4463 0.929 . S
C4472 C4464 1.378 . S
C4472 C4467 1.350 . S
C4473 H4460 0.929 . S
C4473 C4465 1.433 . S
C4473 N4475 1.384 . S
N4474 C4470 1.427 . S
N4474 C4471 1.384 . S
N4475 C4467 1.427 . S
N4475 C4473 1.384 . S
H4476 C4482 0.930 . S
H4477 C4486 0.930 . S
H4478 C4491 0.929 . S
H4479 C4489 0.929 . S
H4480 C4484 0.929 . S
H4481 C4490 0.929 . S
C4482 H4476 0.930 . S
C4482 C4483 1.367 . S
C4482 C4490 1.378 . S
C4483 C4482 1.367 . S
C4483 C4491 1.433 . S
C4484 H4480 0.929 . S
C4484 C4486 1.378 . S
C4484 C4488 1.350 . S
C4485 C4488 1.463 . S
C4485 C4490 1.350 . S
C4485 N4493 1.427 . S
C4486 H4477 0.930 . S
C4486 C4484 1.378 . S
C4486 C4487 1.367 . S
C4487 C4486 1.367 . S
C4487 C4489 1.433 . S
C4488 C4484 1.350 . S
C4488 C4485 1.463 . S
C4488 N4492 1.427 . S
C4489 H4479 0.929 . S
C4489 C4487 1.433 . S
C4489 N4492 1.384 . S
C4490 H4481 0.929 . S
C4490 C4482 1.378 . S
C4490 C4485 1.350 . S
C4491 H4478 0.929 . S
C4491 C4483 1.433 . S
C4491 N4493 1.384 . S
N4492 C4488 1.427 . S
N4492 C4489 1.384 . S
N4493 C4485 1.427 . S
N4493 C4491 1.384 . S
H4494 C4500 0.930 . S
H4495 C4504 0.930 . S
H4496 C4509 0.929 . S
H4497 C4507 0.929 . S
H4498 C4502 0.929 . S
H4499 C4508 0.929 . S
C4500 H4494 0.930 . S
C4500 C4501 1.367 . S
C4500 C4508 1.378 . S
C4501 C4500 1.367 . S
C4501 C4509 1.433 . S
C4502 H4498 0.929 . S
C4502 C4504 1.378 . S
C4502 C4506 1.350 . S
C4503 C4506 1.463 . S
C4503 C4508 1.350 . S
C4503 N4511 1.427 . S
C4504 H4495 0.930 . S
C4504 C4502 1.378 . S
C4504 C4505 1.367 . S
C4505 C4504 1.367 . S
C4505 C4507 1.433 . S
C4506 C4502 1.350 . S
C4506 C4503 1.463 . S
C4506 N4510 1.427 . S
C4507 H4497 0.929 . S
C4507 C4505 1.433 . S
C4507 N4510 1.384 . S
C4508 H4499 0.929 . S
C4508 C4500 1.378 . S
C4508 C4503 1.350 . S
C4509 H4496 0.929 . S
C4509 C4501 1.433 . S
C4509 N4511 1.384 . S
N4510 C4506 1.427 . S
N4510 C4507 1.384 . S
N4511 C4503 1.427 . S
N4511 C4509 1.384 . S
H4512 C4518 0.930 . S
H4513 C4522 0.930 . S
H4514 C4527 0.929 . S
H4515 C4525 0.929 . S
H4516 C4520 0.929 . S
H4517 C4526 0.929 . S
C4518 H4512 0.930 . S
C4518 C4519 1.367 . S
C4518 C4526 1.378 . S
C4519 C4518 1.367 . S
C4519 C4527 1.433 . S
C4520 H4516 0.929 . S
C4520 C4522 1.378 . S
C4520 C4524 1.350 . S
C4521 C4524 1.463 . S
C4521 C4526 1.350 . S
C4521 N4529 1.427 . S
C4522 H4513 0.930 . S
C4522 C4520 1.378 . S
C4522 C4523 1.367 . S
C4523 C4522 1.367 . S
C4523 C4525 1.433 . S
C4524 C4520 1.350 . S
C4524 C4521 1.463 . S
C4524 N4528 1.427 . S
C4525 H4515 0.929 . S
C4525 C4523 1.433 . S
C4525 N4528 1.384 . S
C4526 H4517 0.929 . S
C4526 C4518 1.378 . S
C4526 C4521 1.350 . S
C4527 H4514 0.929 . S
C4527 C4519 1.433 . S
C4527 N4529 1.384 . S
N4528 C4524 1.427 . S
N4528 C4525 1.384 . S
N4529 C4521 1.427 . S
N4529 C4527 1.384 . S
H4530 C4536 0.930 . S
H4531 C4540 0.930 . S
H4532 C4545 0.929 . S
H4533 C4543 0.929 . S
H4534 C4538 0.929 . S
H4535 C4544 0.929 . S
C4536 H4530 0.930 . S
C4536 C4537 1.367 . S
C4536 C4544 1.378 . S
C4537 C4536 1.367 . S
C4537 C4545 1.433 . S
C4538 H4534 0.929 . S
C4538 C4540 1.378 . S
C4538 C4542 1.350 . S
C4539 C4542 1.463 . S
C4539 C4544 1.350 . S
C4539 N4547 1.427 . S
C4540 H4531 0.930 . S
C4540 C4538 1.378 . S
C4540 C4541 1.367 . S
C4541 C4540 1.367 . S
C4541 C4543 1.433 . S
C4542 C4538 1.350 . S
C4542 C4539 1.463 . S
C4542 N4546 1.427 . S
C4543 H4533 0.929 . S
C4543 C4541 1.433 . S
C4543 N4546 1.384 . S
C4544 H4535 0.929 . S
C4544 C4536 1.378 . S
C4544 C4539 1.350 . S
C4545 H4532 0.929 . S
C4545 C4537 1.433 . S
C4545 N4547 1.384 . S
N4546 C4542 1.427 . S
N4546 C4543 1.384 . S
N4547 C4539 1.427 . S
N4547 C4545 1.384 . S
H4548 C4554 0.930 . S
H4549 C4558 0.930 . S
H4550 C4563 0.929 . S
H4551 C4561 0.929 . S
H4552 C4556 0.929 . S
H4553 C4562 0.929 . S
C4554 H4548 0.930 . S
C4554 C4555 1.367 . S
C4554 C4562 1.378 . S
C4555 C4554 1.367 . S
C4555 C4563 1.433 . S
C4556 H4552 0.929 . S
C4556 C4558 1.378 . S
C4556 C4560 1.350 . S
C4557 C4560 1.463 . S
C4557 C4562 1.350 . S
C4557 N4565 1.427 . S
C4558 H4549 0.930 . S
C4558 C4556 1.378 . S
C4558 C4559 1.367 . S
C4559 C4558 1.367 . S
C4559 C4561 1.433 . S
C4560 C4556 1.350 . S
C4560 C4557 1.463 . S
C4560 N4564 1.427 . S
C4561 H4551 0.929 . S
C4561 C4559 1.433 . S
C4561 N4564 1.384 . S
C4562 H4553 0.929 . S
C4562 C4554 1.378 . S
C4562 C4557 1.350 . S
C4563 H4550 0.929 . S
C4563 C4555 1.433 . S
C4563 N4565 1.384 . S
N4564 C4560 1.427 . S
N4564 C4561 1.384 . S
N4565 C4557 1.427 . S
N4565 C4563 1.384 . S
H4566 C4572 0.930 . S
H4567 C4576 0.930 . S
H4568 C4581 0.929 . S
H4569 C4579 0.929 . S
H4570 C4574 0.929 . S
H4571 C4580 0.929 . S
C4572 H4566 0.930 . S
C4572 C4573 1.367 . S
C4572 C4580 1.378 . S
C4573 C4572 1.367 . S
C4573 C4581 1.433 . S
C4574 H4570 0.929 . S
C4574 C4576 1.378 . S
C4574 C4578 1.350 . S
C4575 C4578 1.463 . S
C4575 C4580 1.350 . S
C4575 N4583 1.427 . S
C4576 H4567 0.930 . S
C4576 C4574 1.378 . S
C4576 C4577 1.367 . S
C4577 C4576 1.367 . S
C4577 C4579 1.433 . S
C4578 C4574 1.350 . S
C4578 C4575 1.463 . S
C4578 N4582 1.427 . S
C4579 H4569 0.929 . S
C4579 C4577 1.433 . S
C4579 N4582 1.384 . S
C4580 H4571 0.929 . S
C4580 C4572 1.378 . S
C4580 C4575 1.350 . S
C4581 H4568 0.929 . S
C4581 C4573 1.433 . S
C4581 N4583 1.384 . S
N4582 C4578 1.427 . S
N4582 C4579 1.384 . S
N4583 C4575 1.427 . S
N4583 C4581 1.384 . S
H4584 C4590 0.930 . S
H4585 C4594 0.930 . S
H4586 C4599 0.929 . S
H4587 C4597 0.929 . S
H4588 C4592 0.929 . S
H4589 C4598 0.929 . S
C4590 H4584 0.930 . S
C4590 C4591 1.367 . S
C4590 C4598 1.378 . S
C4591 C4590 1.367 . S
C4591 C4599 1.433 . S
C4592 H4588 0.929 . S
C4592 C4594 1.378 . S
C4592 C4596 1.350 . S
C4593 C4596 1.463 . S
C4593 C4598 1.350 . S
C4593 N4601 1.427 . S
C4594 H4585 0.930 . S
C4594 C4592 1.378 . S
C4594 C4595 1.367 . S
C4595 C4594 1.367 . S
C4595 C4597 1.433 . S
C4596 C4592 1.350 . S
C4596 C4593 1.463 . S
C4596 N4600 1.427 . S
C4597 H4587 0.929 . S
C4597 C4595 1.433 . S
C4597 N4600 1.384 . S
C4598 H4589 0.929 . S
C4598 C4590 1.378 . S
C4598 C4593 1.350 . S
C4599 H4586 0.929 . S
C4599 C4591 1.433 . S
C4599 N4601 1.384 . S
N4600 C4596 1.427 . S
N4600 C4597 1.384 . S
N4601 C4593 1.427 . S
N4601 C4599 1.384 . S
H4602 C4608 0.930 . S
H4603 C4612 0.930 . S
H4604 C4617 0.929 . S
H4605 C4615 0.929 . S
H4606 C4610 0.929 . S
H4607 C4616 0.929 . S
C4608 H4602 0.930 . S
C4608 C4609 1.367 . S
C4608 C4616 1.378 . S
C4609 C4608 1.367 . S
C4609 C4617 1.433 . S
C4610 H4606 0.929 . S
C4610 C4612 1.378 . S
C4610 C4614 1.350 . S
C4611 C4614 1.463 . S
C4611 C4616 1.350 . S
C4611 N4619 1.427 . S
C4612 H4603 0.930 . S
C4612 C4610 1.378 . S
C4612 C4613 1.367 . S
C4613 C4612 1.367 . S
C4613 C4615 1.433 . S
C4614 C4610 1.350 . S
C4614 C4611 1.463 . S
C4614 N4618 1.427 . S
C4615 H4605 0.929 . S
C4615 C4613 1.433 . S
C4615 N4618 1.384 . S
C4616 H4607 0.929 . S
C4616 C4608 1.378 . S
C4616 C4611 1.350 . S
C4617 H4604 0.929 . S
C4617 C4609 1.433 . S
C4617 N4619 1.384 . S
N4618 C4614 1.427 . S
N4618 C4615 1.384 . S
N4619 C4611 1.427 . S
N4619 C4617 1.384 . S
H4620 C4626 0.930 . S
H4621 C4630 0.930 . S
H4622 C4635 0.929 . S
H4623 C4633 0.929 . S
H4624 C4628 0.929 . S
H4625 C4634 0.929 . S
C4626 H4620 0.930 . S
C4626 C4627 1.367 . S
C4626 C4634 1.378 . S
C4627 C4626 1.367 . S
C4627 C4635 1.433 . S
C4628 H4624 0.929 . S
C4628 C4630 1.378 . S
C4628 C4632 1.350 . S
C4629 C4632 1.463 . S
C4629 C4634 1.350 . S
C4629 N4637 1.427 . S
C4630 H4621 0.930 . S
C4630 C4628 1.378 . S
C4630 C4631 1.367 . S
C4631 C4630 1.367 . S
C4631 C4633 1.433 . S
C4632 C4628 1.350 . S
C4632 C4629 1.463 . S
C4632 N4636 1.427 . S
C4633 H4623 0.929 . S
C4633 C4631 1.433 . S
C4633 N4636 1.384 . S
C4634 H4625 0.929 . S
C4634 C4626 1.378 . S
C4634 C4629 1.350 . S
C4635 H4622 0.929 . S
C4635 C4627 1.433 . S
C4635 N4637 1.384 . S
N4636 C4632 1.427 . S
N4636 C4633 1.384 . S
N4637 C4629 1.427 . S
N4637 C4635 1.384 . S
H4638 C4644 0.930 . S
H4639 C4648 0.930 . S
H4640 C4653 0.929 . S
H4641 C4651 0.929 . S
H4642 C4646 0.929 . S
H4643 C4652 0.929 . S
C4644 H4638 0.930 . S
C4644 C4645 1.367 . S
C4644 C4652 1.378 . S
C4645 C4644 1.367 . S
C4645 C4653 1.433 . S
C4646 H4642 0.929 . S
C4646 C4648 1.378 . S
C4646 C4650 1.350 . S
C4647 C4650 1.463 . S
C4647 C4652 1.350 . S
C4647 N4655 1.427 . S
C4648 H4639 0.930 . S
C4648 C4646 1.378 . S
C4648 C4649 1.367 . S
C4649 C4648 1.367 . S
C4649 C4651 1.433 . S
C4650 C4646 1.350 . S
C4650 C4647 1.463 . S
C4650 N4654 1.427 . S
C4651 H4641 0.929 . S
C4651 C4649 1.433 . S
C4651 N4654 1.384 . S
C4652 H4643 0.929 . S
C4652 C4644 1.378 . S
C4652 C4647 1.350 . S
C4653 H4640 0.929 . S
C4653 C4645 1.433 . S
C4653 N4655 1.384 . S
N4654 C4650 1.427 . S
N4654 C4651 1.384 . S
N4655 C4647 1.427 . S
N4655 C4653 1.384 . S
H4656 C4662 0.930 . S
H4657 C4666 0.930 . S
H4658 C4671 0.929 . S
H4659 C4669 0.929 . S
H4660 C4664 0.929 . S
H4661 C4670 0.929 . S
C4662 H4656 0.930 . S
C4662 C4663 1.367 . S
C4662 C4670 1.378 . S
C4663 C4662 1.367 . S
C4663 C4671 1.433 . S
C4664 H4660 0.929 . S
C4664 C4666 1.378 . S
C4664 C4668 1.350 . S
C4665 C4668 1.463 . S
C4665 C4670 1.350 . S
C4665 N4673 1.427 . S
C4666 H4657 0.930 . S
C4666 C4664 1.378 . S
C4666 C4667 1.367 . S
C4667 C4666 1.367 . S
C4667 C4669 1.433 . S
C4668 C4664 1.350 . S
C4668 C4665 1.463 . S
C4668 N4672 1.427 . S
C4669 H4659 0.929 . S
C4669 C4667 1.433 . S
C4669 N4672 1.384 . S
C4670 H4661 0.929 . S
C4670 C4662 1.378 . S
C4670 C4665 1.350 . S
C4671 H4658 0.929 . S
C4671 C4663 1.433 . S
C4671 N4673 1.384 . S
N4672 C4668 1.427 . S
N4672 C4669 1.384 . S
N4673 C4665 1.427 . S
N4673 C4671 1.384 . S
H4674 C4680 0.930 . S
H4675 C4684 0.930 . S
H4676 C4689 0.929 . S
H4677 C4687 0.929 . S
H4678 C4682 0.929 . S
H4679 C4688 0.929 . S
C4680 H4674 0.930 . S
C4680 C4681 1.367 . S
C4680 C4688 1.378 . S
C4681 C4680 1.367 . S
C4681 C4689 1.433 . S
C4682 H4678 0.929 . S
C4682 C4684 1.378 . S
C4682 C4686 1.350 . S
C4683 C4686 1.463 . S
C4683 C4688 1.350 . S
C4683 N4691 1.427 . S
C4684 H4675 0.930 . S
C4684 C4682 1.378 . S
C4684 C4685 1.367 . S
C4685 C4684 1.367 . S
C4685 C4687 1.433 . S
C4686 C4682 1.350 . S
C4686 C4683 1.463 . S
C4686 N4690 1.427 . S
C4687 H4677 0.929 . S
C4687 C4685 1.433 . S
C4687 N4690 1.384 . S
C4688 H4679 0.929 . S
C4688 C4680 1.378 . S
C4688 C4683 1.350 . S
C4689 H4676 0.929 . S
C4689 C4681 1.433 . S
C4689 N4691 1.384 . S
N4690 C4686 1.427 . S
N4690 C4687 1.384 . S
N4691 C4683 1.427 . S
N4691 C4689 1.384 . S
H4692 C4698 0.930 . S
H4693 C4702 0.930 . S
H4694 C4707 0.929 . S
H4695 C4705 0.929 . S
H4696 C4700 0.929 . S
H4697 C4706 0.929 . S
C4698 H4692 0.930 . S
C4698 C4699 1.367 . S
C4698 C4706 1.378 . S
C4699 C4698 1.367 . S
C4699 C4707 1.433 . S
C4700 H4696 0.929 . S
C4700 C4702 1.378 . S
C4700 C4704 1.350 . S
C4701 C4704 1.463 . S
C4701 C4706 1.350 . S
C4701 N4709 1.427 . S
C4702 H4693 0.930 . S
C4702 C4700 1.378 . S
C4702 C4703 1.367 . S
C4703 C4702 1.367 . S
C4703 C4705 1.433 . S
C4704 C4700 1.350 . S
C4704 C4701 1.463 . S
C4704 N4708 1.427 . S
C4705 H4695 0.929 . S
C4705 C4703 1.433 . S
C4705 N4708 1.384 . S
C4706 H4697 0.929 . S
C4706 C4698 1.378 . S
C4706 C4701 1.350 . S
C4707 H4694 0.929 . S
C4707 C4699 1.433 . S
C4707 N4709 1.384 . S
N4708 C4704 1.427 . S
N4708 C4705 1.384 . S
N4709 C4701 1.427 . S
N4709 C4707 1.384 . S
H4710 C4716 0.930 . S
H4711 C4720 0.930 . S
H4712 C4725 0.929 . S
H4713 C4723 0.929 . S
H4714 C4718 0.929 . S
H4715 C4724 0.929 . S
C4716 H4710 0.930 . S
C4716 C4717 1.367 . S
C4716 C4724 1.378 . S
C4717 C4716 1.367 . S
C4717 C4725 1.433 . S
C4718 H4714 0.929 . S
C4718 C4720 1.378 . S
C4718 C4722 1.350 . S
C4719 C4722 1.463 . S
C4719 C4724 1.350 . S
C4719 N4727 1.427 . S
C4720 H4711 0.930 . S
C4720 C4718 1.378 . S
C4720 C4721 1.367 . S
C4721 C4720 1.367 . S
C4721 C4723 1.433 . S
C4722 C4718 1.350 . S
C4722 C4719 1.463 . S
C4722 N4726 1.427 . S
C4723 H4713 0.929 . S
C4723 C4721 1.433 . S
C4723 N4726 1.384 . S
C4724 H4715 0.929 . S
C4724 C4716 1.378 . S
C4724 C4719 1.350 . S
C4725 H4712 0.929 . S
C4725 C4717 1.433 . S
C4725 N4727 1.384 . S
N4726 C4722 1.427 . S
N4726 C4723 1.384 . S
N4727 C4719 1.427 . S
N4727 C4725 1.384 . S
H4728 C4734 0.930 . S
H4729 C4738 0.930 . S
H4730 C4743 0.929 . S
H4731 C4741 0.929 . S
H4732 C4736 0.929 . S
H4733 C4742 0.929 . S
C4734 H4728 0.930 . S
C4734 C4735 1.367 . S
C4734 C4742 1.378 . S
C4735 C4734 1.367 . S
C4735 C4743 1.433 . S
C4736 H4732 0.929 . S
C4736 C4738 1.378 . S
C4736 C4740 1.350 . S
C4737 C4740 1.463 . S
C4737 C4742 1.350 . S
C4737 N4745 1.427 . S
C4738 H4729 0.930 . S
C4738 C4736 1.378 . S
C4738 C4739 1.367 . S
C4739 C4738 1.367 . S
C4739 C4741 1.433 . S
C4740 C4736 1.350 . S
C4740 C4737 1.463 . S
C4740 N4744 1.427 . S
C4741 H4731 0.929 . S
C4741 C4739 1.433 . S
C4741 N4744 1.384 . S
C4742 H4733 0.929 . S
C4742 C4734 1.378 . S
C4742 C4737 1.350 . S
C4743 H4730 0.929 . S
C4743 C4735 1.433 . S
C4743 N4745 1.384 . S
N4744 C4740 1.427 . S
N4744 C4741 1.384 . S
N4745 C4737 1.427 . S
N4745 C4743 1.384 . S
H4746 C4752 0.930 . S
H4747 C4756 0.930 . S
H4748 C4761 0.929 . S
H4749 C4759 0.929 . S
H4750 C4754 0.929 . S
H4751 C4760 0.929 . S
C4752 H4746 0.930 . S
C4752 C4753 1.367 . S
C4752 C4760 1.378 . S
C4753 C4752 1.367 . S
C4753 C4761 1.433 . S
C4754 H4750 0.929 . S
C4754 C4756 1.378 . S
C4754 C4758 1.350 . S
C4755 C4758 1.463 . S
C4755 C4760 1.350 . S
C4755 N4763 1.427 . S
C4756 H4747 0.930 . S
C4756 C4754 1.378 . S
C4756 C4757 1.367 . S
C4757 C4756 1.367 . S
C4757 C4759 1.433 . S
C4758 C4754 1.350 . S
C4758 C4755 1.463 . S
C4758 N4762 1.427 . S
C4759 H4749 0.929 . S
C4759 C4757 1.433 . S
C4759 N4762 1.384 . S
C4760 H4751 0.929 . S
C4760 C4752 1.378 . S
C4760 C4755 1.350 . S
C4761 H4748 0.929 . S
C4761 C4753 1.433 . S
C4761 N4763 1.384 . S
N4762 C4758 1.427 . S
N4762 C4759 1.384 . S
N4763 C4755 1.427 . S
N4763 C4761 1.384 . S
H4764 C4770 0.930 . S
H4765 C4774 0.930 . S
H4766 C4779 0.929 . S
H4767 C4777 0.929 . S
H4768 C4772 0.929 . S
H4769 C4778 0.929 . S
C4770 H4764 0.930 . S
C4770 C4771 1.367 . S
C4770 C4778 1.378 . S
C4771 C4770 1.367 . S
C4771 C4779 1.433 . S
C4772 H4768 0.929 . S
C4772 C4774 1.378 . S
C4772 C4776 1.350 . S
C4773 C4776 1.463 . S
C4773 C4778 1.350 . S
C4773 N4781 1.427 . S
C4774 H4765 0.930 . S
C4774 C4772 1.378 . S
C4774 C4775 1.367 . S
C4775 C4774 1.367 . S
C4775 C4777 1.433 . S
C4776 C4772 1.350 . S
C4776 C4773 1.463 . S
C4776 N4780 1.427 . S
C4777 H4767 0.929 . S
C4777 C4775 1.433 . S
C4777 N4780 1.384 . S
C4778 H4769 0.929 . S
C4778 C4770 1.378 . S
C4778 C4773 1.350 . S
C4779 H4766 0.929 . S
C4779 C4771 1.433 . S
C4779 N4781 1.384 . S
N4780 C4776 1.427 . S
N4780 C4777 1.384 . S
N4781 C4773 1.427 . S
N4781 C4779 1.384 . S
H4782 C4788 0.930 . S
H4783 C4792 0.930 . S
H4784 C4797 0.929 . S
H4785 C4795 0.929 . S
H4786 C4790 0.929 . S
H4787 C4796 0.929 . S
C4788 H4782 0.930 . S
C4788 C4789 1.367 . S
C4788 C4796 1.378 . S
C4789 C4788 1.367 . S
C4789 C4797 1.433 . S
C4790 H4786 0.929 . S
C4790 C4792 1.378 . S
C4790 C4794 1.350 . S
C4791 C4794 1.463 . S
C4791 C4796 1.350 . S
C4791 N4799 1.427 . S
C4792 H4783 0.930 . S
C4792 C4790 1.378 . S
C4792 C4793 1.367 . S
C4793 C4792 1.367 . S
C4793 C4795 1.433 . S
C4794 C4790 1.350 . S
C4794 C4791 1.463 . S
C4794 N4798 1.427 . S
C4795 H4785 0.929 . S
C4795 C4793 1.433 . S
C4795 N4798 1.384 . S
C4796 H4787 0.929 . S
C4796 C4788 1.378 . S
C4796 C4791 1.350 . S
C4797 H4784 0.929 . S
C4797 C4789 1.433 . S
C4797 N4799 1.384 . S
N4798 C4794 1.427 . S
N4798 C4795 1.384 . S
N4799 C4791 1.427 . S
N4799 C4797 1.384 . S
C1351 C1 1.702 . S
C1355 C1051 1.703 . S
C1369 C348 1.701 . S
C1373 C26 1.708 . S
C1387 C1023 1.700 . S
C1391 C41 1.709 . S
C1405 C364 1.701 . S
C1409 C54 1.704 . S
C1423 C69 1.709 . S
C1427 C1079 1.701 . S
C1441 C82 1.710 . S
C1445 C432 1.699 . S
C1459 C1107 1.699 . S
C1463 C97 1.709 . S
C1477 C110 1.708 . S
C1481 C404 1.695 . S
C1495 C125 1.705 . S
C1499 C1261 1.703 . S
C1513 C603 1.695 . S
C1517 C139 1.709 . S
C1531 C153 1.703 . S
C1535 C617 1.700 . S
C1549 C155 1.702 . S
C1553 C575 1.703 . S
C1567 C181 1.705 . S
C1571 C1328 1.696 . S
C1585 C183 1.704 . S
C1589 C1233 1.704 . S
C1603 C197 1.703 . S
C1607 C1342 1.703 . S
C1621 C223 1.702 . S
C1625 C1303 1.703 . S
C1639 C1134 1.699 . S
C1643 C236 1.710 . S
C1657 C250 1.707 . S
C1661 C558 1.695 . S
C1675 C264 1.705 . S
C1679 C1188 1.698 . S
C1693 C530 1.699 . S
C1697 C278 1.704 . S
C1711 C280 1.708 . S
C1715 C532 1.701 . S
C1729 C1162 1.699 . S
C1733 C306 1.704 . S
C1747 C309 1.703 . S
C1751 C1133 1.699 . S
C1765 C1160 1.694 . S
C1769 C334 1.710 . S
C1783 C714 1.704 . S
C1787 C336 1.703 . S
C1801 C13 1.698 . S
C1805 C363 1.710 . S
C1819 C376 1.710 . S
C1823 C686 1.697 . S
C1837 C391 1.705 . S
C1841 C29 1.697 . S
C1855 C392 1.709 . S
C1859 C742 1.699 . S
C1873 C85 1.694 . S
C1877 C419 1.709 . S
C1891 C420 1.704 . S
C1895 C770 1.697 . S
C1909 C447 1.704 . S
C1913 C57 1.699 . S
C1927 C449 1.710 . S
C1931 C936 1.695 . S
C1945 C266 1.696 . S
C1949 C474 1.709 . S
C1963 C477 1.704 . S
C1967 C292 1.702 . S
C1981 C238 1.699 . S
C1985 C502 1.709 . S
C1999 C504 1.708 . S
C2003 C993 1.694 . S
C2017 C518 1.706 . S
C2021 C896 1.696 . S
C2035 C544 1.703 . S
C2039 C1007 1.702 . S
C2053 C966 1.703 . S
C2057 C546 1.706 . S
C2071 C811 1.703 . S
C2075 C573 1.705 . S
C2089 C211 1.694 . S
C2093 C587 1.710 . S
C2107 C852 1.700 . S
C2111 C600 1.709 . S
C2125 C615 1.704 . S
C2129 C195 1.701 . S
C2143 C629 1.706 . S
C2147 C209 1.703 . S
C2161 C643 1.711 . S
C2165 C827 1.695 . S
C2179 C784 1.698 . S
C2183 C645 1.705 . S
C2197 C658 1.708 . S
C2201 C812 1.695 . S
C2215 C379 1.702 . S
C2219 C673 1.702 . S
C2233 C1008 1.703 . S
C2237 C698 1.706 . S
C2251 C713 1.704 . S
C2255 C351 1.704 . S
C2269 C1036 1.695 . S
C2273 C726 1.711 . S
C2287 C741 1.710 . S
C2291 C407 1.698 . S
C2305 C1092 1.700 . S
C2309 C754 1.709 . S
C2323 C769 1.710 . S
C2327 C435 1.696 . S
C2341 C1064 1.703 . S
C2345 C782 1.706 . S
C2359 C588 1.695 . S
C2363 C796 1.711 . S
C2377 C799 1.705 . S
C2381 C1275 1.697 . S
C2395 C1289 1.695 . S
C2399 C824 1.708 . S
C2413 C839 1.709 . S
C2417 C1247 1.696 . S
C2431 C657 1.703 . S
C2435 C840 1.704 . S
C2449 C867 1.709 . S
C2453 C561 1.700 . S
C2467 C670 1.694 . S
C2471 C881 1.707 . S
C2485 C631 1.697 . S
C2489 C883 1.704 . S
C2503 C462 1.697 . S
C2507 C908 1.711 . S
C2521 C1230 1.702 . S
C2525 C922 1.707 . S
C2539 C924 1.704 . S
C2543 C516 1.702 . S
C2557 C950 1.704 . S
C2561 C1202 1.702 . S
C2575 C1205 1.703 . S
C2579 C965 1.706 . S
C2593 C490 1.700 . S
C2597 C978 1.709 . S
C2611 C461 1.695 . S
C2615 C981 1.707 . S
C2629 C489 1.698 . S
C2633 C995 1.710 . S
C2647 C1020 1.708 . S
C2651 C42 1.695 . S
C2665 C1035 1.711 . S
C2669 C685 1.697 . S
C2683 C1048 1.703 . S
C2687 C14 1.700 . S
C2701 C1063 1.705 . S
C2705 C701 1.698 . S
C2719 C70 1.698 . S
C2723 C1076 1.710 . S
C2737 C757 1.703 . S
C2741 C1091 1.706 . S
C2755 C98 1.702 . S
C2759 C1104 1.708 . S
C2773 C729 1.702 . S
C2777 C1119 1.704 . S
C2791 C1121 1.706 . S
C2795 C252 1.697 . S
C2809 C938 1.695 . S
C2813 C1146 1.707 . S
C2827 C1148 1.706 . S
C2831 C953 1.695 . S
C2845 C1174 1.706 . S
C2849 C910 1.696 . S
C2863 C321 1.698 . S
C2867 C1176 1.709 . S
C2881 C224 1.703 . S
C2885 C1190 1.703 . S
C2899 C1217 1.706 . S
C2903 C322 1.704 . S
C2917 C294 1.695 . S
C2921 C1218 1.709 . S
C2935 C1245 1.710 . S
C2939 C127 1.694 . S
C2953 C1259 1.710 . S
C2957 C895 1.698 . S
C2971 C169 1.696 . S
C2975 C1273 1.706 . S
C2989 C1287 1.711 . S
C2993 C855 1.696 . S
C3007 C869 1.700 . S
C3011 C1301 1.709 . S
C3025 C1315 1.706 . S
C3029 C167 1.697 . S
C3043 C1316 1.704 . S
C3047 C113 1.703 . S
C3061 C1330 1.707 . S
C3065 C141 1.694 . S
C3079 C12 1.606 . S
C3083 C614 1.613 . S
C3097 C628 1.614 . S
C3101 C15 1.604 . S
C3115 C586 1.609 . S
C3119 C28 1.610 . S
C3133 C43 1.611 . S
C3137 C1272 1.611 . S
C3151 C56 1.606 . S
C3155 C1314 1.613 . S
C3169 C71 1.607 . S
C3173 C1317 1.611 . S
C3187 C1244 1.609 . S
C3191 C84 1.611 . S
C3205 C1331 1.613 . S
C3209 C99 1.610 . S
C3223 C377 1.610 . S
C3227 C112 1.610 . S
C3241 C126 1.606 . S
C3245 C1062 1.614 . S
C3259 C337 1.616 . S
C3263 C140 1.607 . S
C3277 C1034 1.615 . S
C3281 C166 1.608 . S
C3295 C421 1.612 . S
C3299 C168 1.612 . S
C3313 C194 1.607 . S
C3317 C1118 1.615 . S
C3331 C208 1.611 . S
C3335 C393 1.614 . S
C3349 C210 1.612 . S
C3353 C1090 1.609 . S
C3367 C225 1.610 . S
C3371 C1177 1.610 . S
C3385 C448 1.612 . S
C3389 C239 1.605 . S
C3403 C253 1.610 . S
C3407 C1147 1.614 . S
C3421 C267 1.610 . S
C3425 C476 1.612 . S
C3439 C293 1.605 . S
C3443 C503 1.613 . S
C3457 C295 1.608 . S
C3461 C1216 1.609 . S
C3475 C1219 1.610 . S
C3479 C320 1.612 . S
C3493 C1191 1.610 . S
C3497 C323 1.610 . S
C3511 C279 1.613 . S
C3515 C349 1.606 . S
C3529 C350 1.611 . S
C3533 C281 1.609 . S
C3547 C365 1.613 . S
C3551 C251 1.609 . S
C3565 C378 1.611 . S
C3569 C925 1.611 . S
C3583 C979 1.615 . S
C3587 C405 1.606 . S
C3601 C980 1.611 . S
C3605 C406 1.607 . S
C3619 C433 1.612 . S
C3623 C909 1.609 . S
C3637 C994 1.613 . S
C3641 C434 1.610 . S
C3655 C460 1.609 . S
C3659 C40 1.610 . S
C3673 C727 1.612 . S
C3677 C463 1.612 . S
C3691 C488 1.608 . S
C3695 C0 1.611 . S
C3709 C699 1.615 . S
C3713 C491 1.607 . S
C3727 C517 1.609 . S
C3731 C96 1.611 . S
C3745 C783 1.609 . S
C3749 C531 1.611 . S
C3763 C68 1.610 . S
C3767 C533 1.610 . S
C3781 C755 1.609 . S
C3785 C559 1.612 . S
C3799 C560 1.604 . S
C3803 C841 1.615 . S
C3817 C574 1.604 . S
C3821 C124 1.615 . S
C3835 C798 1.610 . S
C3839 C589 1.612 . S
C3853 C602 1.606 . S
C3857 C152 1.612 . S
C3871 C154 1.611 . S
C3875 C616 1.607 . S
C3889 C880 1.616 . S
C3893 C630 1.605 . S
C3907 C882 1.610 . S
C3911 C656 1.611 . S
C3925 C866 1.610 . S
C3929 C671 1.611 . S
C3943 C684 1.612 . S
C3947 C1286 1.609 . S
C3961 C687 1.605 . S
C3965 C1300 1.613 . S
C3979 C700 1.612 . S
C3983 C1258 1.612 . S
C3997 C601 1.610 . S
C4001 C715 1.611 . S
C4015 C728 1.606 . S
C4019 C642 1.614 . S
C4033 C644 1.614 . S
C4037 C743 1.604 . S
C4051 C572 1.612 . S
C4055 C756 1.612 . S
C4069 C659 1.616 . S
C4073 C771 1.605 . S
C4087 C785 1.605 . S
C4091 C1049 1.616 . S
C4105 C390 1.612 . S
C4109 C810 1.606 . S
C4123 C813 1.611 . S
C4127 C1021 1.610 . S
C4141 C826 1.613 . S
C4145 C362 1.609 . S
C4159 C853 1.611 . S
C4163 C1105 1.612 . S
C4177 C854 1.613 . S
C4181 C446 1.609 . S
C4195 C1077 1.615 . S
C4199 C868 1.610 . S
C4213 C418 1.613 . S
C4217 C894 1.606 . S
C4231 C897 1.611 . S
C4235 C505 1.612 . S
C4249 C911 1.610 . S
C4253 C1120 1.613 . S
C4267 C937 1.609 . S
C4271 C475 1.610 . S
C4285 C1149 1.613 . S
C4289 C939 1.605 . S
C4303 C952 1.611 . S
C4307 C1175 1.610 . S
C4321 C967 1.604 . S
C4325 C545 1.615 . S
C4339 C547 1.613 . S
C4343 C992 1.607 . S
C4357 C1006 1.610 . S
C4361 C519 1.610 . S
C4375 C1009 1.611 . S
C4379 C951 1.609 . S
C4393 C964 1.616 . S
C4397 C1022 1.607 . S
C4411 C923 1.615 . S
C4415 C1037 1.608 . S
C4429 C1050 1.610 . S
C4433 C265 1.609 . S
C4447 C1065 1.611 . S
C4451 C307 1.609 . S
C4465 C1078 1.605 . S
C4469 C308 1.616 . S
C4483 C237 1.615 . S
C4487 C1093 1.606 . S
C4501 C1106 1.611 . S
C4505 C335 1.609 . S
C4519 C1132 1.606 . S
C4523 C712 1.612 . S
C4537 C1135 1.610 . S
C4541 C55 1.609 . S
C4555 C1161 1.610 . S
C4559 C672 1.615 . S
C4573 C1163 1.607 . S
C4577 C27 1.615 . S
C4591 C1189 1.610 . S
C4595 C768 1.615 . S
C4609 C1203 1.609 . S
C4613 C111 1.609 . S
C4627 C1204 1.604 . S
C4631 C740 1.616 . S
C4645 C1231 1.608 . S
C4649 C83 1.615 . S
C4663 C1232 1.609 . S
C4667 C180 1.614 . S
C4681 C1246 1.611 . S
C4685 C797 1.610 . S
C4699 C1260 1.607 . S
C4703 C138 1.615 . S
C4717 C1274 1.611 . S
C4721 C825 1.610 . S
C4735 C1288 1.608 . S
C4739 C838 1.610 . S
C4753 C196 1.615 . S
C4757 C1302 1.609 . S
C4771 C1329 1.607 . S
C4775 C222 1.616 . S
C4789 C1343 1.612 . S
C4793 C182 1.610 . S
