# Generated by pormake.
# Topology uli, (4)-cn, num edge types: 1
# Building blocks:
#     Node 0, Type 0, BuildingBlock: KUFVIS_clean_sbu_0, # of connection points: 4
#     Node 1, Type 0, BuildingBlock: KUFVIS_clean_sbu_0, # of connection points: 4
#     Node 2, Type 0, BuildingBlock: KUFVIS_clean_sbu_0, # of connection points: 4
#     Node 3, Type 0, BuildingBlock: KUFVIS_clean_sbu_0, # of connection points: 4
#     Node 4, Type 0, BuildingBlock: KUFVIS_clean_sbu_0, # of connection points: 4
#     Node 5, Type 0, BuildingBlock: KUFVIS_clean_sbu_0, # of connection points: 4
#     Node 6, Type 0, BuildingBlock: KUFVIS_clean_sbu_0, # of connection points: 4
#     Node 7, Type 0, BuildingBlock: KUFVIS_clean_sbu_0, # of connection points: 4
#     Node 8, Type 0, BuildingBlock: KUFVIS_clean_sbu_0, # of connection points: 4
#     Node 9, Type 0, BuildingBlock: KUFVIS_clean_sbu_0, # of connection points: 4
#     Node 10, Type 0, BuildingBlock: KUFVIS_clean_sbu_0, # of connection points: 4
#     Node 11, Type 0, BuildingBlock: KUFVIS_clean_sbu_0, # of connection points: 4
#     Node 12, Type 0, BuildingBlock: KUFVIS_clean_sbu_0, # of connection points: 4
#     Node 13, Type 0, BuildingBlock: KUFVIS_clean_sbu_0, # of connection points: 4
#     Node 14, Type 0, BuildingBlock: KUFVIS_clean_sbu_0, # of connection points: 4
#     Node 15, Type 0, BuildingBlock: KUFVIS_clean_sbu_0, # of connection points: 4
#     Node 16, Type 0, BuildingBlock: KUFVIS_clean_sbu_0, # of connection points: 4
#     Node 17, Type 0, BuildingBlock: KUFVIS_clean_sbu_0, # of connection points: 4
#     Node 18, Type 0, BuildingBlock: KUFVIS_clean_sbu_0, # of connection points: 4
#     Node 19, Type 0, BuildingBlock: KUFVIS_clean_sbu_0, # of connection points: 4
#     Node 20, Type 0, BuildingBlock: KUFVIS_clean_sbu_0, # of connection points: 4
#     Node 21, Type 0, BuildingBlock: KUFVIS_clean_sbu_0, # of connection points: 4
#     Node 22, Type 0, BuildingBlock: KUFVIS_clean_sbu_0, # of connection points: 4
#     Node 23, Type 0, BuildingBlock: KUFVIS_clean_sbu_0, # of connection points: 4
#     Node 24, Type 0, BuildingBlock: KUFVIS_clean_sbu_0, # of connection points: 4
#     Node 25, Type 0, BuildingBlock: KUFVIS_clean_sbu_0, # of connection points: 4
#     Node 26, Type 0, BuildingBlock: KUFVIS_clean_sbu_0, # of connection points: 4
#     Node 27, Type 0, BuildingBlock: KUFVIS_clean_sbu_0, # of connection points: 4
#     Node 28, Type 0, BuildingBlock: KUFVIS_clean_sbu_0, # of connection points: 4
#     Node 29, Type 0, BuildingBlock: KUFVIS_clean_sbu_0, # of connection points: 4
#     Node 30, Type 0, BuildingBlock: KUFVIS_clean_sbu_0, # of connection points: 4
#     Node 31, Type 0, BuildingBlock: KUFVIS_clean_sbu_0, # of connection points: 4
#     Node 32, Type 0, BuildingBlock: KUFVIS_clean_sbu_0, # of connection points: 4
#     Node 33, Type 0, BuildingBlock: KUFVIS_clean_sbu_0, # of connection points: 4
#     Node 34, Type 0, BuildingBlock: KUFVIS_clean_sbu_0, # of connection points: 4
#     Node 35, Type 0, BuildingBlock: KUFVIS_clean_sbu_0, # of connection points: 4
#     Node 36, Type 0, BuildingBlock: KUFVIS_clean_sbu_0, # of connection points: 4
#     Node 37, Type 0, BuildingBlock: KUFVIS_clean_sbu_0, # of connection points: 4
#     Node 38, Type 0, BuildingBlock: KUFVIS_clean_sbu_0, # of connection points: 4
#     Node 39, Type 0, BuildingBlock: KUFVIS_clean_sbu_0, # of connection points: 4
#     Node 40, Type 0, BuildingBlock: KUFVIS_clean_sbu_0, # of connection points: 4
#     Node 41, Type 0, BuildingBlock: KUFVIS_clean_sbu_0, # of connection points: 4
#     Node 42, Type 0, BuildingBlock: KUFVIS_clean_sbu_0, # of connection points: 4
#     Node 43, Type 0, BuildingBlock: KUFVIS_clean_sbu_0, # of connection points: 4
#     Node 44, Type 0, BuildingBlock: KUFVIS_clean_sbu_0, # of connection points: 4
#     Node 45, Type 0, BuildingBlock: KUFVIS_clean_sbu_0, # of connection points: 4
#     Node 46, Type 0, BuildingBlock: KUFVIS_clean_sbu_0, # of connection points: 4
#     Node 47, Type 0, BuildingBlock: KUFVIS_clean_sbu_0, # of connection points: 4
#     Edge 48, Type (0, 0), BuildingBlock: AJUNOK_clean_linker_0, # of connection points: 2
#     Edge 49, Type (0, 0), BuildingBlock: AJUNOK_clean_linker_0, # of connection points: 2
#     Edge 50, Type (0, 0), BuildingBlock: AJUNOK_clean_linker_0, # of connection points: 2
#     Edge 51, Type (0, 0), BuildingBlock: AJUNOK_clean_linker_0, # of connection points: 2
#     Edge 52, Type (0, 0), BuildingBlock: AJUNOK_clean_linker_0, # of connection points: 2
#     Edge 53, Type (0, 0), BuildingBlock: AJUNOK_clean_linker_0, # of connection points: 2
#     Edge 54, Type (0, 0), BuildingBlock: AJUNOK_clean_linker_0, # of connection points: 2
#     Edge 55, Type (0, 0), BuildingBlock: AJUNOK_clean_linker_0, # of connection points: 2
#     Edge 56, Type (0, 0), BuildingBlock: AJUNOK_clean_linker_0, # of connection points: 2
#     Edge 57, Type (0, 0), BuildingBlock: AJUNOK_clean_linker_0, # of connection points: 2
#     Edge 58, Type (0, 0), BuildingBlock: AJUNOK_clean_linker_0, # of connection points: 2
#     Edge 59, Type (0, 0), BuildingBlock: AJUNOK_clean_linker_0, # of connection points: 2
#     Edge 60, Type (0, 0), BuildingBlock: AJUNOK_clean_linker_0, # of connection points: 2
#     Edge 61, Type (0, 0), BuildingBlock: AJUNOK_clean_linker_0, # of connection points: 2
#     Edge 62, Type (0, 0), BuildingBlock: AJUNOK_clean_linker_0, # of connection points: 2
#     Edge 63, Type (0, 0), BuildingBlock: AJUNOK_clean_linker_0, # of connection points: 2
#     Edge 64, Type (0, 0), BuildingBlock: AJUNOK_clean_linker_0, # of connection points: 2
#     Edge 65, Type (0, 0), BuildingBlock: AJUNOK_clean_linker_0, # of connection points: 2
#     Edge 66, Type (0, 0), BuildingBlock: AJUNOK_clean_linker_0, # of connection points: 2
#     Edge 67, Type (0, 0), BuildingBlock: AJUNOK_clean_linker_0, # of connection points: 2
#     Edge 68, Type (0, 0), BuildingBlock: AJUNOK_clean_linker_0, # of connection points: 2
#     Edge 69, Type (0, 0), BuildingBlock: AJUNOK_clean_linker_0, # of connection points: 2
#     Edge 70, Type (0, 0), BuildingBlock: AJUNOK_clean_linker_0, # of connection points: 2
#     Edge 71, Type (0, 0), BuildingBlock: AJUNOK_clean_linker_0, # of connection points: 2
#     Edge 72, Type (0, 0), BuildingBlock: AJUNOK_clean_linker_0, # of connection points: 2
#     Edge 73, Type (0, 0), BuildingBlock: AJUNOK_clean_linker_0, # of connection points: 2
#     Edge 74, Type (0, 0), BuildingBlock: AJUNOK_clean_linker_0, # of connection points: 2
#     Edge 75, Type (0, 0), BuildingBlock: AJUNOK_clean_linker_0, # of connection points: 2
#     Edge 76, Type (0, 0), BuildingBlock: AJUNOK_clean_linker_0, # of connection points: 2
#     Edge 77, Type (0, 0), BuildingBlock: AJUNOK_clean_linker_0, # of connection points: 2
#     Edge 78, Type (0, 0), BuildingBlock: AJUNOK_clean_linker_0, # of connection points: 2
#     Edge 79, Type (0, 0), BuildingBlock: AJUNOK_clean_linker_0, # of connection points: 2
#     Edge 80, Type (0, 0), BuildingBlock: AJUNOK_clean_linker_0, # of connection points: 2
#     Edge 81, Type (0, 0), BuildingBlock: AJUNOK_clean_linker_0, # of connection points: 2
#     Edge 82, Type (0, 0), BuildingBlock: AJUNOK_clean_linker_0, # of connection points: 2
#     Edge 83, Type (0, 0), BuildingBlock: AJUNOK_clean_linker_0, # of connection points: 2
#     Edge 84, Type (0, 0), BuildingBlock: AJUNOK_clean_linker_0, # of connection points: 2
#     Edge 85, Type (0, 0), BuildingBlock: AJUNOK_clean_linker_0, # of connection points: 2
#     Edge 86, Type (0, 0), BuildingBlock: AJUNOK_clean_linker_0, # of connection points: 2
#     Edge 87, Type (0, 0), BuildingBlock: AJUNOK_clean_linker_0, # of connection points: 2
#     Edge 88, Type (0, 0), BuildingBlock: AJUNOK_clean_linker_0, # of connection points: 2
#     Edge 89, Type (0, 0), BuildingBlock: AJUNOK_clean_linker_0, # of connection points: 2
#     Edge 90, Type (0, 0), BuildingBlock: AJUNOK_clean_linker_0, # of connection points: 2
#     Edge 91, Type (0, 0), BuildingBlock: AJUNOK_clean_linker_0, # of connection points: 2
#     Edge 92, Type (0, 0), BuildingBlock: AJUNOK_clean_linker_0, # of connection points: 2
#     Edge 93, Type (0, 0), BuildingBlock: AJUNOK_clean_linker_0, # of connection points: 2
#     Edge 94, Type (0, 0), BuildingBlock: AJUNOK_clean_linker_0, # of connection points: 2
#     Edge 95, Type (0, 0), BuildingBlock: AJUNOK_clean_linker_0, # of connection points: 2
#     Edge 96, Type (0, 0), BuildingBlock: AJUNOK_clean_linker_0, # of connection points: 2
#     Edge 97, Type (0, 0), BuildingBlock: AJUNOK_clean_linker_0, # of connection points: 2
#     Edge 98, Type (0, 0), BuildingBlock: AJUNOK_clean_linker_0, # of connection points: 2
#     Edge 99, Type (0, 0), BuildingBlock: AJUNOK_clean_linker_0, # of connection points: 2
#     Edge 100, Type (0, 0), BuildingBlock: AJUNOK_clean_linker_0, # of connection points: 2
#     Edge 101, Type (0, 0), BuildingBlock: AJUNOK_clean_linker_0, # of connection points: 2
#     Edge 102, Type (0, 0), BuildingBlock: AJUNOK_clean_linker_0, # of connection points: 2
#     Edge 103, Type (0, 0), BuildingBlock: AJUNOK_clean_linker_0, # of connection points: 2
#     Edge 104, Type (0, 0), BuildingBlock: AJUNOK_clean_linker_0, # of connection points: 2
#     Edge 105, Type (0, 0), BuildingBlock: AJUNOK_clean_linker_0, # of connection points: 2
#     Edge 106, Type (0, 0), BuildingBlock: AJUNOK_clean_linker_0, # of connection points: 2
#     Edge 107, Type (0, 0), BuildingBlock: AJUNOK_clean_linker_0, # of connection points: 2
#     Edge 108, Type (0, 0), BuildingBlock: AJUNOK_clean_linker_0, # of connection points: 2
#     Edge 109, Type (0, 0), BuildingBlock: AJUNOK_clean_linker_0, # of connection points: 2
#     Edge 110, Type (0, 0), BuildingBlock: AJUNOK_clean_linker_0, # of connection points: 2
#     Edge 111, Type (0, 0), BuildingBlock: AJUNOK_clean_linker_0, # of connection points: 2
#     Edge 112, Type (0, 0), BuildingBlock: AJUNOK_clean_linker_0, # of connection points: 2
#     Edge 113, Type (0, 0), BuildingBlock: AJUNOK_clean_linker_0, # of connection points: 2
#     Edge 114, Type (0, 0), BuildingBlock: AJUNOK_clean_linker_0, # of connection points: 2
#     Edge 115, Type (0, 0), BuildingBlock: AJUNOK_clean_linker_0, # of connection points: 2
#     Edge 116, Type (0, 0), BuildingBlock: AJUNOK_clean_linker_0, # of connection points: 2
#     Edge 117, Type (0, 0), BuildingBlock: AJUNOK_clean_linker_0, # of connection points: 2
#     Edge 118, Type (0, 0), BuildingBlock: AJUNOK_clean_linker_0, # of connection points: 2
#     Edge 119, Type (0, 0), BuildingBlock: AJUNOK_clean_linker_0, # of connection points: 2
#     Edge 120, Type (0, 0), BuildingBlock: AJUNOK_clean_linker_0, # of connection points: 2
#     Edge 121, Type (0, 0), BuildingBlock: AJUNOK_clean_linker_0, # of connection points: 2
#     Edge 122, Type (0, 0), BuildingBlock: AJUNOK_clean_linker_0, # of connection points: 2
#     Edge 123, Type (0, 0), BuildingBlock: AJUNOK_clean_linker_0, # of connection points: 2
#     Edge 124, Type (0, 0), BuildingBlock: AJUNOK_clean_linker_0, # of connection points: 2
#     Edge 125, Type (0, 0), BuildingBlock: AJUNOK_clean_linker_0, # of connection points: 2
#     Edge 126, Type (0, 0), BuildingBlock: AJUNOK_clean_linker_0, # of connection points: 2
#     Edge 127, Type (0, 0), BuildingBlock: AJUNOK_clean_linker_0, # of connection points: 2
#     Edge 128, Type (0, 0), BuildingBlock: AJUNOK_clean_linker_0, # of connection points: 2
#     Edge 129, Type (0, 0), BuildingBlock: AJUNOK_clean_linker_0, # of connection points: 2
#     Edge 130, Type (0, 0), BuildingBlock: AJUNOK_clean_linker_0, # of connection points: 2
#     Edge 131, Type (0, 0), BuildingBlock: AJUNOK_clean_linker_0, # of connection points: 2
#     Edge 132, Type (0, 0), BuildingBlock: AJUNOK_clean_linker_0, # of connection points: 2
#     Edge 133, Type (0, 0), BuildingBlock: AJUNOK_clean_linker_0, # of connection points: 2
#     Edge 134, Type (0, 0), BuildingBlock: AJUNOK_clean_linker_0, # of connection points: 2
#     Edge 135, Type (0, 0), BuildingBlock: AJUNOK_clean_linker_0, # of connection points: 2
#     Edge 136, Type (0, 0), BuildingBlock: AJUNOK_clean_linker_0, # of connection points: 2
#     Edge 137, Type (0, 0), BuildingBlock: AJUNOK_clean_linker_0, # of connection points: 2
#     Edge 138, Type (0, 0), BuildingBlock: AJUNOK_clean_linker_0, # of connection points: 2
#     Edge 139, Type (0, 0), BuildingBlock: AJUNOK_clean_linker_0, # of connection points: 2
#     Edge 140, Type (0, 0), BuildingBlock: AJUNOK_clean_linker_0, # of connection points: 2
#     Edge 141, Type (0, 0), BuildingBlock: AJUNOK_clean_linker_0, # of connection points: 2
#     Edge 142, Type (0, 0), BuildingBlock: AJUNOK_clean_linker_0, # of connection points: 2
#     Edge 143, Type (0, 0), BuildingBlock: AJUNOK_clean_linker_0, # of connection points: 2
# Relax obj value: 0.430
# Max RMSD: 0.168
# Mean RMSD: 0.168
data_MOF--net-uli--node1-KUFVIS_clean_sbu_0--edge1-AJUNOK_clean_linker_0
_symmetry_space_group_name_H-M    P1
_symmetry_Int_Tables_number       1
_symmetry_cell_setting            triclinic
loop_
_symmetry_equiv_pos_as_xyz
'x, y, z'
_cell_length_a     49.922811
_cell_length_b     50.015414
_cell_length_c     50.182629
_cell_angle_alpha  90.095564
_cell_angle_beta   90.151855
_cell_angle_gamma 89.888254
loop_
_atom_site_label
_atom_site_type_symbol
_atom_site_fract_x
_atom_site_fract_y
_atom_site_fract_z
_atom_type_partial_charge
Mn0 Mn 0.08275 0.24656 0.19669 0.0
Mn1 Mn 0.13423 0.25946 0.22835 0.0
C2 C 0.10156 0.20456 0.21359 0.0
C3 C 0.03871 0.25124 0.20905 0.0
C4 C 0.12843 0.26316 0.16526 0.0
O5 O 0.08768 0.28884 0.19888 0.0
O6 O 0.10259 0.28042 0.23725 0.0
C7 C 0.11277 0.24388 0.2799 0.0
N8 N 0.13476 0.2463 0.26401 0.0
C9 C 0.16042 0.21784 0.29286 0.0
C10 C 0.13766 0.2146 0.30887 0.0
C11 C 0.11402 0.22818 0.30278 0.0
C12 C 0.15845 0.23432 0.27029 0.0
H13 H 0.09376 0.25252 0.27434 0.0
C14 C 0.09543 0.29791 0.22115 0.0
O15 O 0.04508 0.25296 0.18397 0.0
O16 O 0.05743 0.24699 0.22608 0.0
N17 N 0.16532 0.24085 0.22391 0.0
C18 C 0.17167 0.22993 0.19747 0.0
C19 C 0.20684 0.19889 0.1992 0.0
C20 C 0.21726 0.19595 0.23215 0.0
C21 C 0.20213 0.2127 0.25434 0.0
C22 C 0.17723 0.23264 0.24995 0.0
H23 H 0.15553 0.22896 0.18349 0.0
O24 O 0.08138 0.2056 0.1976 0.0
O25 O 0.11197 0.22856 0.21753 0.0
O26 O 0.10752 0.24822 0.16432 0.0
O27 O 0.13679 0.27269 0.18827 0.0
C28 C 0.20472 0.2017 0.27972 0.0
C29 C 0.18366 0.20291 0.29782 0.0
H30 H 0.13796 0.20116 0.32576 0.0
H31 H 0.09645 0.22562 0.31509 0.0
H32 H 0.19304 0.16747 0.15772 0.0
H33 H 0.21264 0.19514 0.21246 0.0
H34 H 0.22054 0.18748 0.28375 0.0
H35 H 0.18461 0.19002 0.31504 0.0
Mn36 Mn 0.75499 0.09209 0.19577 0.0
Mn37 Mn 0.74422 0.12845 0.21436 0.0
C38 C 0.79341 0.10787 0.22742 0.0
C39 C 0.76885 0.04659 0.20676 0.0
C40 C 0.73933 0.14184 0.16526 0.0
O41 O 0.71463 0.08416 0.18525 0.0
O42 O 0.71343 0.10481 0.22157 0.0
C43 C 0.72899 0.12637 0.26929 0.0
N44 N 0.73459 0.143 0.24824 0.0
C45 C 0.75248 0.17529 0.2787 0.0
C46 C 0.75 0.15725 0.29947 0.0
C47 C 0.73821 0.1325 0.2948 0.0
C48 C 0.74761 0.16599 0.25285 0.0
H49 H 0.72149 0.10637 0.26638 0.0
C50 C 0.7004 0.09318 0.20393 0.0
O51 O 0.77313 0.0568 0.1839 0.0
O52 O 0.75429 0.06099 0.22153 0.0
N53 N 0.76894 0.15759 0.21289 0.0
C54 C 0.78847 0.16272 0.19498 0.0
C55 C 0.80137 0.18738 0.1954 0.0
C56 C 0.7952 0.20587 0.2155 0.0
C57 C 0.77766 0.19886 0.23578 0.0
C58 C 0.76385 0.17487 0.23292 0.0
H59 H 0.79531 0.14723 0.18195 0.0
O60 O 0.79556 0.10065 0.20352 0.0
O61 O 0.76901 0.10724 0.23379 0.0
O62 O 0.75588 0.12211 0.16679 0.0
O63 O 0.72512 0.14753 0.18615 0.0
C64 C 0.77537 0.21293 0.26011 0.0
C65 C 0.7646 0.20009 0.28223 0.0
H66 H 0.7594 0.16149 0.31831 0.0
H67 H 0.73705 0.11779 0.31051 0.0
H68 H 0.81742 0.191 0.18153 0.0
H69 H 0.80605 0.22406 0.21704 0.0
H70 H 0.78468 0.23176 0.2638 0.0
H71 H 0.76736 0.20851 0.30195 0.0
Mn72 Mn 0.91142 0.7114 0.23456 0.0
Mn73 Mn 0.85568 0.71955 0.26909 0.0
C74 C 0.89923 0.75483 0.24919 0.0
C75 C 0.95661 0.70837 0.2335 0.0
C76 C 0.85645 0.71911 0.20834 0.0
O77 O 0.90182 0.67164 0.2426 0.0
O78 O 0.86304 0.68176 0.26185 0.0
C79 C 0.88892 0.69823 0.31321 0.0
N80 N 0.87201 0.7175 0.30373 0.0
C81 C 0.88566 0.74784 0.33861 0.0
C82 C 0.90246 0.72802 0.34911 0.0
C83 C 0.90412 0.7031 0.33631 0.0
C84 C 0.87124 0.74187 0.31538 0.0
H85 H 0.89113 0.67935 0.30313 0.0
C86 C 0.87962 0.66466 0.25317 0.0
O87 O 0.94255 0.7016 0.21268 0.0
O88 O 0.94414 0.71048 0.25603 0.0
N89 N 0.84345 0.75378 0.28026 0.0
C90 C 0.82018 0.76562 0.27255 0.0
C91 C 0.81014 0.78726 0.28735 0.0
C92 C 0.82489 0.79742 0.30896 0.0
C93 C 0.84786 0.7838 0.31749 0.0
C94 C 0.85487 0.76053 0.30375 0.0
H95 H 0.80918 0.75802 0.25557 0.0
O96 O 0.91673 0.75159 0.2307 0.0
O97 O 0.89026 0.73247 0.25878 0.0
O98 O 0.88116 0.71239 0.20718 0.0
O99 O 0.8437 0.72393 0.23055 0.0
C100 C 0.86259 0.79087 0.34041 0.0
C101 C 0.88209 0.77312 0.35059 0.0
H102 H 0.91403 0.73164 0.36704 0.0
H103 H 0.91726 0.68774 0.3441 0.0
H104 H 0.79127 0.79622 0.28201 0.0
H105 H 0.81762 0.81475 0.31961 0.0
H106 H 0.8583 0.80927 0.35098 0.0
H107 H 0.89297 0.77839 0.36853 0.0
Mn108 Mn 0.27543 0.89266 0.2152 0.0
Mn109 Mn 0.2662 0.84056 0.25389 0.0
C110 C 0.23132 0.8799 0.22527 0.0
C111 C 0.28301 0.93726 0.21372 0.0
C112 C 0.26872 0.83582 0.1935 0.0
O113 O 0.31431 0.8848 0.22677 0.0
O114 O 0.30457 0.84662 0.24676 0.0
C115 C 0.28531 0.88127 0.29208 0.0
N116 N 0.26798 0.86089 0.2865 0.0
C117 C 0.23729 0.87751 0.31978 0.0
C118 C 0.25512 0.89815 0.32598 0.0
C119 C 0.27929 0.90001 0.31203 0.0
C120 C 0.24421 0.85979 0.29919 0.0
H121 H 0.30302 0.88432 0.28055 0.0
C122 C 0.32149 0.86342 0.23831 0.0
O123 O 0.28801 0.92265 0.19281 0.0
O124 O 0.27559 0.92561 0.23541 0.0
N125 N 0.23197 0.82903 0.26662 0.0
C126 C 0.21855 0.80638 0.25973 0.0
C127 C 0.19656 0.79802 0.27538 0.0
C128 C 0.1886 0.81298 0.29756 0.0
C129 C 0.20321 0.83557 0.30473 0.0
C130 C 0.22616 0.84147 0.28993 0.0
H131 H 0.22451 0.79516 0.24228 0.0
O132 O 0.23607 0.89744 0.20713 0.0
O133 O 0.25247 0.87307 0.23894 0.0
O134 O 0.27638 0.86012 0.19032 0.0
O135 O 0.26234 0.82543 0.21655 0.0
C136 C 0.19613 0.85233 0.32615 0.0
C137 C 0.21266 0.87408 0.33292 0.0
H138 H 0.25051 0.91256 0.34144 0.0
H139 H 0.29308 0.91612 0.31634 0.0
H140 H 0.1844 0.78116 0.2698 0.0
H141 H 0.17116 0.80702 0.30874 0.0
H142 H 0.17802 0.84879 0.3374 0.0
H143 H 0.20681 0.88736 0.34896 0.0
Mn144 Mn 0.09312 0.729 0.79146 0.0
Mn145 Mn 0.13229 0.74501 0.74196 0.0
C146 C 0.09746 0.77541 0.7814 0.0
C147 C 0.05108 0.71268 0.80033 0.0
C148 C 0.15327 0.74012 0.79925 0.0
O149 O 0.10324 0.6915 0.77595 0.0
O150 O 0.13387 0.70623 0.74804 0.0
C151 C 0.08655 0.71972 0.71346 0.0
N152 N 0.10438 0.74034 0.71557 0.0
C153 C 0.079 0.76567 0.68337 0.0
C154 C 0.06157 0.74409 0.67988 0.0
C155 C 0.06525 0.72106 0.69523 0.0
C156 C 0.09979 0.76315 0.70218 0.0
H157 H 0.08768 0.70262 0.72616 0.0
C158 C 0.12195 0.68715 0.75932 0.0
O159 O 0.06993 0.71005 0.81813 0.0
O160 O 0.05667 0.72499 0.77851 0.0
N161 N 0.13474 0.78057 0.72772 0.0
C162 C 0.15612 0.79712 0.72928 0.0
C163 C 0.15875 0.81809 0.71059 0.0
C164 C 0.13843 0.8235 0.69234 0.0
C165 C 0.11678 0.80626 0.69071 0.0
C166 C 0.11693 0.78373 0.7073 0.0
H167 H 0.17107 0.79351 0.74422 0.0
O168 O 0.0856 0.76748 0.80279 0.0
O169 O 0.10389 0.75546 0.76571 0.0
O170 O 0.13069 0.73135 0.80795 0.0
O171 O 0.15731 0.74848 0.77461 0.0
C172 C 0.09608 0.80959 0.67191 0.0
C173 C 0.07675 0.78946 0.66866 0.0
H174 H 0.04519 0.7451 0.66572 0.0
H175 H 0.05142 0.70452 0.69339 0.0
H176 H 0.17595 0.83079 0.70996 0.0
H177 H 0.14019 0.84034 0.67899 0.0
H178 H 0.09535 0.82714 0.65929 0.0
H179 H 0.06102 0.79195 0.65396 0.0
Mn180 Mn 0.27088 0.09317 0.79707 0.0
Mn181 Mn 0.2679 0.14454 0.75564 0.0
C182 C 0.22987 0.10279 0.77493 0.0
C183 C 0.27819 0.04773 0.79983 0.0
C184 C 0.26125 0.15063 0.81605 0.0
O185 O 0.3113 0.1027 0.79381 0.0
O186 O 0.30476 0.13711 0.76658 0.0
C187 C 0.29072 0.10536 0.71818 0.0
N188 N 0.27293 0.12556 0.7229 0.0
C189 C 0.24669 0.11265 0.68475 0.0
C190 C 0.26504 0.0922 0.67918 0.0
C191 C 0.2872 0.08854 0.69602 0.0
C192 C 0.251 0.12832 0.70748 0.0
H193 H 0.3068 0.10124 0.73187 0.0
C194 C 0.32017 0.12203 0.77983 0.0
O195 O 0.27822 0.06228 0.82138 0.0
O196 O 0.27641 0.05995 0.77732 0.0
N197 N 0.23502 0.15666 0.74064 0.0
C198 C 0.22101 0.17882 0.74794 0.0
C199 C 0.20237 0.1899 0.73006 0.0
C200 C 0.19714 0.17728 0.70563 0.0
C201 C 0.21169 0.15448 0.69873 0.0
C202 C 0.23218 0.14642 0.71584 0.0
H203 H 0.22528 0.18878 0.76656 0.0
O204 O 0.23054 0.08717 0.7953 0.0
O205 O 0.25328 0.11155 0.76806 0.0
O206 O 0.26552 0.12591 0.8217 0.0
O207 O 0.2605 0.16002 0.79193 0.0
C208 C 0.2071 0.13965 0.67538 0.0
C209 C 0.22406 0.11801 0.66886 0.0
H210 H 0.26237 0.07931 0.66201 0.0
H211 H 0.30131 0.07254 0.69219 0.0
H212 H 0.19254 0.2084 0.73461 0.0
H213 H 0.18241 0.18558 0.69207 0.0
H214 H 0.19071 0.14479 0.66234 0.0
H215 H 0.21991 0.10614 0.65127 0.0
Mn216 Mn 0.9053 0.27628 0.78833 0.0
Mn217 Mn 0.86177 0.27743 0.79449 0.0
C218 C 0.88289 0.23848 0.76315 0.0
C219 C 0.94975 0.26935 0.77498 0.0
C220 C 0.86599 0.29083 0.84044 0.0
O221 O 0.90386 0.31756 0.78219 0.0
O222 O 0.86079 0.31221 0.77641 0.0
C223 C 0.8127 0.28103 0.76502 0.0
N224 N 0.82706 0.26834 0.78396 0.0
C225 C 0.79601 0.23214 0.78501 0.0
C226 C 0.78021 0.24582 0.76651 0.0
C227 C 0.78906 0.26981 0.7563 0.0
C228 C 0.81958 0.24431 0.79357 0.0
H229 H 0.81986 0.29921 0.75614 0.0
C230 C 0.88128 0.327 0.77473 0.0
O231 O 0.94381 0.27421 0.79952 0.0
O232 O 0.93086 0.27318 0.7579 0.0
N233 N 0.86155 0.24242 0.81305 0.0
C234 C 0.88165 0.22896 0.82652 0.0
C235 C 0.8788 0.20197 0.83306 0.0
C236 C 0.85553 0.18864 0.82568 0.0
C237 C 0.8352 0.20285 0.81281 0.0
C238 C 0.83823 0.23019 0.80819 0.0
H239 H 0.90103 0.23776 0.83031 0.0
O240 O 0.90176 0.23496 0.78037 0.0
O241 O 0.87487 0.26258 0.76302 0.0
O242 O 0.88864 0.28161 0.83088 0.0
O243 O 0.84781 0.29389 0.82414 0.0
C244 C 0.81306 0.19024 0.80212 0.0
C245 C 0.79217 0.20525 0.79108 0.0
H246 H 0.76331 0.23729 0.75677 0.0
H247 H 0.77907 0.27816 0.73988 0.0
H248 H 0.89496 0.19128 0.84275 0.0
H249 H 0.85369 0.1674 0.82946 0.0
H250 H 0.81212 0.16868 0.80191 0.0
H251 H 0.77443 0.19502 0.7856 0.0
Mn252 Mn 0.76738 0.90829 0.75306 0.0
Mn253 Mn 0.76902 0.85788 0.71168 0.0
C254 C 0.80949 0.88822 0.74325 0.0
C255 C 0.76989 0.95272 0.76278 0.0
C256 C 0.75997 0.85043 0.77079 0.0
O257 O 0.72829 0.90936 0.73716 0.0
O258 O 0.73221 0.86907 0.7192 0.0
C259 C 0.75266 0.89888 0.67148 0.0
N260 N 0.76974 0.87899 0.67937 0.0
C261 C 0.79768 0.88722 0.6412 0.0
C262 C 0.77993 0.90703 0.63251 0.0
C263 C 0.75744 0.91307 0.6479 0.0
C264 C 0.79244 0.87448 0.6656 0.0
H265 H 0.73566 0.90462 0.68304 0.0
C266 C 0.71781 0.8886 0.72633 0.0
O267 O 0.75853 0.93624 0.77918 0.0
O268 O 0.7769 0.94377 0.73952 0.0
N269 N 0.80174 0.84293 0.69866 0.0
C270 C 0.80966 0.81749 0.70356 0.0
C271 C 0.82698 0.80475 0.68552 0.0
C272 C 0.83848 0.81867 0.66447 0.0
C273 C 0.82863 0.84388 0.65839 0.0
C274 C 0.80888 0.8547 0.6752 0.0
H275 H 0.80024 0.8064 0.71936 0.0
O276 O 0.80622 0.90288 0.76417 0.0
O277 O 0.78817 0.88708 0.72805 0.0
O278 O 0.75676 0.87546 0.77387 0.0
O279 O 0.76836 0.83959 0.74844 0.0
C280 C 0.83478 0.85665 0.63419 0.0
C281 C 0.81969 0.87884 0.62593 0.0
H282 H 0.78326 0.91756 0.61396 0.0
H283 H 0.74372 0.92863 0.64161 0.0
H284 H 0.83107 0.78398 0.68671 0.0
H285 H 0.8523 0.80852 0.65124 0.0
H286 H 0.85022 0.84877 0.62121 0.0
H287 H 0.82412 0.88822 0.60701 0.0
Mn288 Mn 0.22107 0.08056 0.22514 0.0
Mn289 Mn 0.24028 0.1409 0.23116 0.0
C290 C 0.24147 0.10094 0.18659 0.0
C291 C 0.23633 0.03792 0.22975 0.0
C292 C 0.1794 0.12349 0.23155 0.0
O293 O 0.22078 0.08827 0.26663 0.0
O294 O 0.24711 0.12417 0.26553 0.0
C295 C 0.29863 0.13188 0.23326 0.0
N296 N 0.27684 0.14633 0.2259 0.0
C297 C 0.30258 0.1808 0.20694 0.0
C298 C 0.32571 0.16551 0.21144 0.0
C299 C 0.3238 0.14085 0.22494 0.0
C300 C 0.2786 0.16916 0.21191 0.0
H301 H 0.29646 0.1133 0.24403 0.0
C302 C 0.23501 0.10618 0.27845 0.0
O303 O 0.21064 0.04249 0.2294 0.0
O304 O 0.25243 0.05793 0.22938 0.0
N305 N 0.23732 0.15854 0.19923 0.0
C306 C 0.21481 0.15773 0.18508 0.0
C307 C 0.18666 0.2034 0.15937 0.0
C308 C 0.20239 0.22422 0.16435 0.0
C309 C 0.24955 0.20595 0.19189 0.0
C310 C 0.25556 0.17792 0.19937 0.0
H311 H 0.20511 0.13816 0.18497 0.0
O312 O 0.22681 0.07983 0.18402 0.0
O313 O 0.24256 0.10873 0.21134 0.0
O314 O 0.1842 0.10029 0.22176 0.0
O315 O 0.19918 0.13924 0.23726 0.0
C316 C 0.27681 0.21944 0.19317 0.0
C317 C 0.30178 0.20664 0.19738 0.0
H318 H 0.34484 0.17207 0.20404 0.0
H319 H 0.34151 0.12894 0.22874 0.0
H320 H 0.16808 0.20218 0.14837 0.0
H321 H 0.19684 0.24371 0.15669 0.0
H322 H 0.2809 0.23957 0.18675 0.0
H323 H 0.32022 0.21739 0.19383 0.0
Mn324 Mn 0.89803 0.23645 0.26867 0.0
Mn325 Mn 0.83837 0.26507 0.27277 0.0
C326 C 0.87938 0.25734 0.23064 0.0
C327 C 0.94342 0.24021 0.2695 0.0
C328 C 0.84594 0.20548 0.26072 0.0
O329 O 0.89142 0.23465 0.30975 0.0
O330 O 0.84946 0.24908 0.3062 0.0
C331 C 0.86893 0.3051 0.30387 0.0
N332 N 0.8516 0.2995 0.28349 0.0
C333 C 0.85779 0.34362 0.26542 0.0
C334 C 0.87534 0.34977 0.28632 0.0
C335 C 0.88097 0.33036 0.30562 0.0
C336 C 0.84702 0.31773 0.26426 0.0
H337 H 0.87397 0.29043 0.31866 0.0
C338 C 0.8683 0.23917 0.31978 0.0
O339 O 0.93217 0.21685 0.27148 0.0
O340 O 0.92829 0.26115 0.27181 0.0
N341 N 0.82177 0.28438 0.24365 0.0
C342 C 0.79787 0.2786 0.23172 0.0
C343 C 0.78366 0.29834 0.21772 0.0
C344 C 0.79473 0.32372 0.21433 0.0
C345 C 0.81819 0.33012 0.22808 0.0
C346 C 0.82984 0.31033 0.24422 0.0
H347 H 0.78853 0.25976 0.23411 0.0
O348 O 0.89928 0.24109 0.22844 0.0
O349 O 0.87221 0.26185 0.25511 0.0
O350 O 0.87123 0.20628 0.26443 0.0
O351 O 0.83055 0.22676 0.26061 0.0
C352 C 0.82892 0.35613 0.22846 0.0
C353 C 0.8496 0.36256 0.2464 0.0
H354 H 0.88421 0.36945 0.288 0.0
H355 H 0.89455 0.33485 0.32186 0.0
H356 H 0.76387 0.29413 0.21001 0.0
H357 H 0.78401 0.33866 0.20287 0.0
H358 H 0.82082 0.37156 0.21573 0.0
H359 H 0.85748 0.38272 0.24682 0.0
Mn360 Mn 0.8118 0.9024 0.24554 0.0
Mn361 Mn 0.76673 0.85658 0.25608 0.0
C362 C 0.79133 0.88209 0.20746 0.0
C363 C 0.81243 0.94869 0.24434 0.0
C364 C 0.82844 0.84677 0.2581 0.0
O365 O 0.80894 0.89986 0.28727 0.0
O366 O 0.76848 0.88339 0.28476 0.0
C367 C 0.72798 0.89998 0.24645 0.0
N368 N 0.73504 0.87383 0.24269 0.0
C369 C 0.70391 0.86996 0.20615 0.0
C370 C 0.69594 0.89652 0.2101 0.0
C371 C 0.70816 0.91166 0.23028 0.0
C372 C 0.72446 0.85982 0.22225 0.0
H373 H 0.73791 0.91219 0.2612 0.0
C374 C 0.7881 0.89078 0.29876 0.0
O375 O 0.83477 0.93555 0.24746 0.0
O376 O 0.79058 0.93519 0.24352 0.0
N377 N 0.75884 0.82817 0.23122 0.0
C378 C 0.76729 0.80137 0.23314 0.0
C379 C 0.75202 0.7828 0.21848 0.0
C380 C 0.73029 0.79038 0.2022 0.0
C381 C 0.72203 0.81696 0.2011 0.0
C382 C 0.73517 0.83511 0.2174 0.0
H383 H 0.77002 0.82157 0.23769 0.0
O384 O 0.81051 0.89906 0.20448 0.0
O385 O 0.78469 0.87928 0.23202 0.0
O386 O 0.83558 0.86952 0.24857 0.0
O387 O 0.80384 0.84086 0.26491 0.0
C388 C 0.70066 0.82606 0.18516 0.0
C389 C 0.69231 0.85301 0.18691 0.0
H390 H 0.6804 0.90542 0.19788 0.0
H391 H 0.70242 0.93231 0.23332 0.0
H392 H 0.75678 0.76193 0.22054 0.0
H393 H 0.71966 0.77541 0.19078 0.0
H394 H 0.69061 0.81252 0.17164 0.0
H395 H 0.6762 0.86017 0.17433 0.0
Mn396 Mn 0.09678 0.77124 0.22232 0.0
Mn397 Mn 0.15052 0.73559 0.22982 0.0
C398 C 0.11744 0.7541 0.18354 0.0
C399 C 0.0512 0.76824 0.2239 0.0
C400 C 0.1534 0.79548 0.22184 0.0
O401 O 0.09782 0.76605 0.26389 0.0
O402 O 0.13902 0.75087 0.26388 0.0
C403 C 0.10831 0.69946 0.25154 0.0
N404 N 0.13016 0.70322 0.2356 0.0
C405 C 0.12333 0.65985 0.21566 0.0
C406 C 0.10163 0.65537 0.23261 0.0
C407 C 0.09392 0.67542 0.25046 0.0
C408 C 0.13621 0.6848 0.21691 0.0
H409 H 0.1011 0.71466 0.26466 0.0
C410 C 0.11901 0.75944 0.27642 0.0
O411 O 0.06238 0.79156 0.22719 0.0
O412 O 0.06622 0.74783 0.21966 0.0
N413 N 0.16803 0.71562 0.20241 0.0
C414 C 0.19383 0.71972 0.19485 0.0
C415 C 0.20873 0.69828 0.18425 0.0
C416 C 0.19669 0.67367 0.1791 0.0
C417 C 0.17045 0.66954 0.18729 0.0
C418 C 0.15769 0.69043 0.20104 0.0
H419 H 0.2034 0.73866 0.19892 0.0
O420 O 0.0994 0.77252 0.18163 0.0
O421 O 0.121 0.74561 0.20776 0.0
O422 O 0.12788 0.7983 0.22499 0.0
O423 O 0.16582 0.77229 0.22115 0.0
C424 C 0.15764 0.6446 0.18492 0.0
C425 C 0.1335 0.64004 0.19852 0.0
H426 H 0.0909 0.63656 0.23223 0.0
H427 H 0.07683 0.67245 0.26333 0.0
H428 H 0.22956 0.70035 0.1799 0.0
H429 H 0.20826 0.6577 0.17024 0.0
H430 H 0.16682 0.62846 0.17377 0.0
H431 H 0.12405 0.6206 0.19719 0.0
Mn432 Mn 0.20845 0.90717 0.76666 0.0
Mn433 Mn 0.20245 0.86425 0.75918 0.0
C434 C 0.24213 0.8811 0.79321 0.0
C435 C 0.22812 0.94983 0.77235 0.0
C436 C 0.15378 0.87045 0.76307 0.0
O437 O 0.20047 0.91404 0.72613 0.0
O438 O 0.21 0.87224 0.72186 0.0
C439 C 0.22032 0.81724 0.72932 0.0
N440 N 0.21418 0.82895 0.75308 0.0
C441 C 0.21968 0.78775 0.77603 0.0
C442 C 0.22207 0.77474 0.75144 0.0
C443 C 0.22163 0.78955 0.72789 0.0
C444 C 0.21293 0.81463 0.77563 0.0
H445 H 0.22175 0.82848 0.71106 0.0
C446 C 0.20597 0.89444 0.71102 0.0
O447 O 0.20313 0.94584 0.77746 0.0
O448 O 0.24068 0.93014 0.7619 0.0
N449 N 0.19566 0.85262 0.79592 0.0
C450 C 0.18659 0.86628 0.81799 0.0
C451 C 0.18713 0.85431 0.84312 0.0
C452 C 0.19764 0.82868 0.84578 0.0
C453 C 0.20612 0.81491 0.82304 0.0
C454 C 0.20404 0.82726 0.79831 0.0
H455 H 0.1802 0.88687 0.81716 0.0
O456 O 0.2256 0.898 0.80341 0.0
O457 O 0.2369 0.87568 0.76879 0.0
O458 O 0.16652 0.89069 0.77382 0.0
O459 O 0.16772 0.85477 0.74982 0.0
C460 C 0.21951 0.79061 0.8242 0.0
C461 C 0.22382 0.77583 0.80094 0.0
H462 H 0.22408 0.75373 0.74992 0.0
H463 H 0.22307 0.77993 0.70884 0.0
H464 H 0.18086 0.86542 0.86056 0.0
H465 H 0.20061 0.82052 0.86547 0.0
H466 H 0.22748 0.7839 0.84287 0.0
H467 H 0.23109 0.75601 0.80306 0.0
Mn468 Mn 0.08397 0.18801 0.74176 0.0
Mn469 Mn 0.11798 0.20905 0.73727 0.0
C470 C 0.0894 0.2213 0.78248 0.0
C471 C 0.03635 0.20025 0.7429 0.0
C472 C 0.13535 0.15901 0.73657 0.0
O473 O 0.08425 0.17444 0.70161 0.0
O474 O 0.09843 0.21342 0.70343 0.0
C475 C 0.11325 0.26337 0.71849 0.0
N476 N 0.13045 0.24438 0.72864 0.0
C477 C 0.15576 0.27921 0.74999 0.0
C478 C 0.13709 0.29802 0.74165 0.0
C479 C 0.11554 0.29009 0.726 0.0
C480 C 0.15015 0.25226 0.74516 0.0
H481 H 0.09525 0.25822 0.70779 0.0
C482 C 0.09282 0.19422 0.68882 0.0
O483 O 0.04491 0.17805 0.75201 0.0
O484 O 0.05424 0.214 0.73201 0.0
N485 N 0.14321 0.21076 0.76612 0.0
C486 C 0.148 0.19228 0.78633 0.0
C487 C 0.17057 0.19696 0.80175 0.0
C488 C 0.18698 0.21934 0.79799 0.0
C489 C 0.18016 0.23928 0.77979 0.0
C490 C 0.15886 0.23396 0.76312 0.0
H491 H 0.137 0.19841 0.76991 0.0
O492 O 0.08426 0.19679 0.78321 0.0
O493 O 0.09216 0.22762 0.75837 0.0
O494 O 0.11352 0.15979 0.75015 0.0
O495 O 0.14138 0.1803 0.72293 0.0
C496 C 0.19161 0.26515 0.77894 0.0
C497 C 0.17772 0.28576 0.76608 0.0
H498 H 0.13806 0.31829 0.74882 0.0
H499 H 0.10027 0.30438 0.72032 0.0
H500 H 0.17348 0.18378 0.81841 0.0
H501 H 0.2031 0.22221 0.81143 0.0
H502 H 0.20916 0.27065 0.79003 0.0
H503 H 0.18373 0.30636 0.76901 0.0
Mn504 Mn 0.78407 0.10461 0.77426 0.0
Mn505 Mn 0.73855 0.14744 0.75265 0.0
C506 C 0.76439 0.13287 0.80673 0.0
C507 C 0.79185 0.06104 0.78544 0.0
C508 C 0.79872 0.15944 0.74941 0.0
O509 O 0.77879 0.09233 0.73522 0.0
O510 O 0.75136 0.1249 0.72374 0.0
C511 C 0.70434 0.09919 0.74956 0.0
N512 N 0.70795 0.12488 0.75808 0.0
C513 C 0.66767 0.12285 0.78417 0.0
C514 C 0.66325 0.0967 0.77519 0.0
C515 C 0.68179 0.08476 0.7579 0.0
C516 C 0.69087 0.13598 0.77561 0.0
H517 H 0.71854 0.0896 0.73656 0.0
C518 C 0.7654 0.10486 0.71772 0.0
O519 O 0.8114 0.07588 0.77688 0.0
O520 O 0.76849 0.07186 0.78818 0.0
N521 N 0.72059 0.17165 0.77611 0.0
C522 C 0.72419 0.19835 0.77725 0.0
C523 C 0.70668 0.21455 0.79192 0.0
C524 C 0.68373 0.20325 0.80308 0.0
C525 C 0.67809 0.17625 0.79847 0.0
C526 C 0.6969 0.16128 0.78412 0.0
H527 H 0.73902 0.20682 0.76502 0.0
O528 O 0.78581 0.11925 0.8117 0.0
O529 O 0.75468 0.1284 0.78273 0.0
O530 O 0.80463 0.13641 0.75909 0.0
O531 O 0.77389 0.16813 0.74769 0.0
C532 C 0.65446 0.16364 0.80723 0.0
C533 C 0.64963 0.13668 0.8007 0.0
H534 H 0.64563 0.0857 0.78128 0.0
H535 H 0.67869 0.06449 0.75097 0.0
H536 H 0.71045 0.23567 0.79405 0.0
H537 H 0.67035 0.21564 0.81446 0.0
H538 H 0.63989 0.17444 0.81899 0.0
H539 H 0.63145 0.12715 0.80757 0.0
Mn540 Mn 0.91308 0.74772 0.74665 0.0
Mn541 Mn 0.87138 0.76211 0.73125 0.0
C542 C 0.8768 0.72865 0.77472 0.0
C543 C 0.95194 0.72824 0.76351 0.0
C544 C 0.88793 0.80752 0.72841 0.0
O545 O 0.9244 0.74204 0.706 0.0
O546 O 0.88278 0.74828 0.6974 0.0
C547 C 0.83049 0.73526 0.70047 0.0
N548 N 0.83671 0.75187 0.72106 0.0
C549 C 0.79222 0.74979 0.73747 0.0
C550 C 0.78553 0.73273 0.71663 0.0
C551 C 0.80471 0.72675 0.69734 0.0
C552 C 0.81822 0.7595 0.73885 0.0
H553 H 0.84476 0.72819 0.68606 0.0
C554 C 0.90514 0.74132 0.6893 0.0
O555 O 0.95025 0.7536 0.75915 0.0
O556 O 0.93239 0.71353 0.7552 0.0
N557 N 0.85497 0.77714 0.76299 0.0
C558 C 0.86729 0.7874 0.78626 0.0
C559 C 0.85025 0.79235 0.80751 0.0
C560 C 0.82319 0.7859 0.80607 0.0
C561 C 0.8109 0.77762 0.78238 0.0
C562 C 0.82712 0.77325 0.76079 0.0
H563 H 0.86824 0.77954 0.76736 0.0
O564 O 0.89654 0.74264 0.78403 0.0
O565 O 0.87585 0.72884 0.74891 0.0
O566 O 0.90382 0.79224 0.74284 0.0
O567 O 0.87016 0.7958 0.71521 0.0
C568 C 0.78408 0.76969 0.78063 0.0
C569 C 0.775 0.75485 0.75847 0.0
H570 H 0.76616 0.72317 0.71609 0.0
H571 H 0.80088 0.7151 0.68009 0.0
H572 H 0.85867 0.79936 0.82613 0.0
H573 H 0.81299 0.78439 0.82447 0.0
H574 H 0.77115 0.77288 0.79727 0.0
H575 H 0.75589 0.74481 0.75844 0.0
Mn576 Mn 0.26303 0.22883 0.07577 0.0
Mn577 Mn 0.26862 0.23985 0.13706 0.0
C578 C 0.22129 0.24158 0.09647 0.0
C579 C 0.26553 0.24804 0.03462 0.0
C580 C 0.27324 0.18389 0.11271 0.0
O581 O 0.30482 0.23217 0.08562 0.0
O582 O 0.29703 0.25917 0.11941 0.0
C583 C 0.25636 0.29755 0.13841 0.0
N584 N 0.25485 0.27362 0.15107 0.0
C585 C 0.22799 0.29263 0.18644 0.0
C586 C 0.22729 0.31653 0.17222 0.0
C587 C 0.24234 0.31943 0.14873 0.0
C588 C 0.24144 0.27168 0.17465 0.0
H589 H 0.2667 0.29935 0.11961 0.0
C590 C 0.31337 0.24874 0.10345 0.0
O591 O 0.26922 0.22241 0.03737 0.0
O592 O 0.26442 0.26248 0.0559 0.0
N593 N 0.24251 0.22288 0.15453 0.0
C594 C 0.2267 0.18859 0.15617 0.0
C595 C 0.17381 0.17479 0.18975 0.0
C596 C 0.17147 0.19443 0.22113 0.0
C597 C 0.2116 0.23956 0.2129 0.0
C598 C 0.23522 0.2471 0.18192 0.0
H599 H 0.22842 0.17822 0.13797 0.0
O600 O 0.22179 0.23027 0.07335 0.0
O601 O 0.2455 0.24442 0.10626 0.0
O602 O 0.26107 0.19037 0.0913 0.0
O603 O 0.28332 0.20262 0.12731 0.0
C604 C 0.21283 0.26532 0.22576 0.0
C605 C 0.21587 0.28975 0.21174 0.0
H606 H 0.21411 0.33232 0.17862 0.0
H607 H 0.24184 0.338 0.13776 0.0
H608 H 0.16048 0.15947 0.18336 0.0
H609 H 0.15739 0.19296 0.23597 0.0
H610 H 0.20753 0.26801 0.24605 0.0
H611 H 0.20941 0.30776 0.22185 0.0
Mn612 Mn 0.29356 0.74559 0.88342 0.0
Mn613 Mn 0.2903 0.72396 0.82248 0.0
C614 C 0.2491 0.73557 0.86651 0.0
C615 C 0.29778 0.73384 0.92769 0.0
C616 C 0.28739 0.78437 0.83607 0.0
O617 O 0.33484 0.73862 0.87458 0.0
O618 O 0.32714 0.73281 0.83199 0.0
C619 C 0.31234 0.67833 0.85343 0.0
N620 N 0.29582 0.68717 0.83346 0.0
C621 C 0.26818 0.64793 0.83901 0.0
C622 C 0.28526 0.6386 0.85902 0.0
C623 C 0.30765 0.65378 0.86604 0.0
C624 C 0.27424 0.67246 0.82682 0.0
H625 H 0.3283 0.6902 0.86113 0.0
C626 C 0.34356 0.73595 0.85072 0.0
O627 O 0.30304 0.75811 0.92004 0.0
O628 O 0.29306 0.7163 0.90941 0.0
N629 N 0.26027 0.70986 0.80332 0.0
C630 C 0.25094 0.71864 0.77949 0.0
C631 C 0.23082 0.70392 0.76623 0.0
C632 C 0.22302 0.67895 0.77581 0.0
C633 C 0.23637 0.66835 0.79776 0.0
C634 C 0.25712 0.68354 0.80886 0.0
H635 H 0.25877 0.73694 0.77131 0.0
O636 O 0.25285 0.74945 0.88779 0.0
O637 O 0.27188 0.72702 0.85649 0.0
O638 O 0.29386 0.77998 0.86051 0.0
O639 O 0.28248 0.76468 0.81907 0.0
C640 C 0.22925 0.64414 0.81003 0.0
C641 C 0.24485 0.63422 0.8312 0.0
H642 H 0.28136 0.61988 0.8691 0.0
H643 H 0.32083 0.64704 0.88184 0.0
H644 H 0.22045 0.7118 0.74935 0.0
H645 H 0.20658 0.66846 0.76649 0.0
H646 H 0.21194 0.63302 0.80342 0.0
H647 H 0.23929 0.61561 0.84068 0.0
Mn648 Mn 0.20539 0.27674 0.89913 0.0
Mn649 Mn 0.23696 0.27503 0.84175 0.0
C650 C 0.22734 0.23646 0.8859 0.0
C651 C 0.2127 0.28705 0.94314 0.0
C652 C 0.17595 0.26318 0.84759 0.0
O653 O 0.20286 0.31696 0.88768 0.0
O654 O 0.22254 0.31041 0.84877 0.0
C655 C 0.27501 0.30418 0.87595 0.0
N656 N 0.27081 0.28449 0.85746 0.0
C657 C 0.31191 0.26276 0.8707 0.0
C658 C 0.31679 0.28315 0.88919 0.0
C659 C 0.29813 0.30389 0.89193 0.0
C660 C 0.28793 0.26363 0.85607 0.0
H661 H 0.26051 0.31967 0.87931 0.0
C662 C 0.21087 0.32556 0.86514 0.0
O663 O 0.18828 0.28441 0.9343 0.0
O664 O 0.2319 0.28563 0.92618 0.0
N665 N 0.25598 0.24398 0.82847 0.0
C666 C 0.25279 0.23248 0.804 0.0
C667 C 0.27226 0.21512 0.79375 0.0
C668 C 0.29566 0.20999 0.80818 0.0
C669 C 0.30049 0.22466 0.83132 0.0
C670 C 0.28088 0.24309 0.83946 0.0
H671 H 0.23695 0.23822 0.79095 0.0
O672 O 0.21144 0.23659 0.90604 0.0
O673 O 0.23049 0.25996 0.87569 0.0
O674 O 0.17506 0.26791 0.87279 0.0
O675 O 0.19816 0.26375 0.83355 0.0
C676 C 0.32488 0.22334 0.84537 0.0
C677 C 0.33009 0.24177 0.86594 0.0
H678 H 0.33485 0.28318 0.9012 0.0
H679 H 0.30143 0.31957 0.90645 0.0
H680 H 0.26939 0.20619 0.77442 0.0
H681 H 0.31052 0.19628 0.80033 0.0
H682 H 0.3399 0.20859 0.8402 0.0
H683 H 0.34878 0.24056 0.87687 0.0
Mn684 Mn 0.72933 0.26327 0.91145 0.0
Mn685 Mn 0.73617 0.29327 0.85457 0.0
C686 C 0.77309 0.27795 0.89988 0.0
C687 C 0.72059 0.27012 0.95544 0.0
C688 C 0.74179 0.23311 0.85984 0.0
O689 O 0.68945 0.26612 0.89941 0.0
O690 O 0.69926 0.27984 0.85874 0.0
C691 C 0.70452 0.33404 0.88415 0.0
N692 N 0.72652 0.32762 0.86929 0.0
C693 C 0.74705 0.36969 0.88076 0.0
C694 C 0.72423 0.37693 0.8952 0.0
C695 C 0.7029 0.35892 0.89701 0.0
C696 C 0.74763 0.34433 0.86869 0.0
H697 H 0.68842 0.32026 0.88692 0.0
C698 C 0.68243 0.27135 0.87555 0.0
O699 O 0.71897 0.24607 0.94552 0.0
O700 O 0.72407 0.28974 0.93928 0.0
N701 N 0.76886 0.31048 0.84469 0.0
C702 C 0.7844 0.30416 0.82345 0.0
C703 C 0.80301 0.32309 0.81406 0.0
C704 C 0.80698 0.34716 0.82754 0.0
C705 C 0.78962 0.35409 0.84799 0.0
C706 C 0.76936 0.33588 0.85444 0.0
H707 H 0.78117 0.28557 0.813 0.0
O708 O 0.76927 0.26223 0.91968 0.0
O709 O 0.75058 0.28611 0.88917 0.0
O710 O 0.73414 0.23329 0.88428 0.0
O711 O 0.74644 0.25468 0.84557 0.0
C712 C 0.79016 0.37929 0.86051 0.0
C713 C 0.76905 0.38689 0.87742 0.0
H714 H 0.72288 0.39621 0.90496 0.0
H715 H 0.68533 0.36405 0.90854 0.0
H716 H 0.8146 0.31976 0.79654 0.0
H717 H 0.82207 0.36098 0.82067 0.0
H718 H 0.80603 0.39339 0.85631 0.0
H719 H 0.76921 0.40653 0.88654 0.0
Mn720 Mn 0.74582 0.73934 0.88418 0.0
Mn721 Mn 0.71202 0.73965 0.82708 0.0
C722 C 0.73998 0.78076 0.86158 0.0
C723 C 0.74778 0.74091 0.93012 0.0
C724 C 0.77254 0.72852 0.82972 0.0
O725 O 0.72971 0.70063 0.88347 0.0
O726 O 0.71448 0.70363 0.84204 0.0
C727 C 0.66537 0.73033 0.86252 0.0
N728 N 0.67682 0.74442 0.84221 0.0
C729 C 0.64151 0.77724 0.84456 0.0
C730 C 0.62916 0.76259 0.86479 0.0
C731 C 0.6412 0.73901 0.87383 0.0
C732 C 0.66574 0.76759 0.8341 0.0
H733 H 0.67469 0.71288 0.87074 0.0
C734 C 0.71941 0.68997 0.86266 0.0
O735 O 0.76681 0.73019 0.91618 0.0
O736 O 0.72665 0.74924 0.91742 0.0
N737 N 0.70374 0.77206 0.80774 0.0
C738 C 0.71471 0.78086 0.78468 0.0
C739 C 0.70261 0.80136 0.76983 0.0
C740 C 0.67876 0.81282 0.77876 0.0
C741 C 0.66679 0.80292 0.80184 0.0
C742 C 0.67921 0.78136 0.81482 0.0
H743 H 0.7319 0.7718 0.77729 0.0
O744 O 0.75743 0.77782 0.88041 0.0
O745 O 0.725 0.75954 0.85797 0.0
O746 O 0.7723 0.72833 0.85517 0.0
O747 O 0.75125 0.73443 0.81533 0.0
C748 C 0.64276 0.81333 0.81225 0.0
C749 C 0.63049 0.80089 0.83412 0.0
H750 H 0.61044 0.76924 0.87346 0.0
H751 H 0.63206 0.72767 0.88974 0.0
H752 H 0.712 0.80876 0.75193 0.0
H753 H 0.66978 0.829 0.76766 0.0
H754 H 0.63327 0.83057 0.80329 0.0
H755 H 0.61188 0.80889 0.84185 0.0
Mn756 Mn 0.76171 0.76264 0.0887 0.0
Mn757 Mn 0.74904 0.72953 0.14415 0.0
C758 C 0.7972 0.74071 0.11112 0.0
C759 C 0.7609 0.76061 0.04272 0.0
C760 C 0.76258 0.78876 0.14464 0.0
O761 O 0.72009 0.76372 0.08941 0.0
O762 O 0.71688 0.74636 0.1298 0.0
C763 C 0.72554 0.69292 0.10404 0.0
N764 N 0.74154 0.69653 0.12589 0.0
C765 C 0.76299 0.65402 0.11801 0.0
C766 C 0.74628 0.64973 0.096 0.0
C767 C 0.7275 0.66934 0.08895 0.0
C768 C 0.76055 0.67827 0.13187 0.0
H769 H 0.7116 0.70797 0.09767 0.0
C770 C 0.70636 0.75749 0.10979 0.0
O771 O 0.76028 0.78367 0.05479 0.0
O772 O 0.7618 0.73937 0.05726 0.0
N773 N 0.77543 0.70922 0.16311 0.0
C774 C 0.783 0.71333 0.18883 0.0
C775 C 0.79635 0.69294 0.20293 0.0
C776 C 0.80246 0.66873 0.19023 0.0
C777 C 0.79268 0.66413 0.16451 0.0
C778 C 0.77729 0.6843 0.15267 0.0
H779 H 0.77859 0.73199 0.19845 0.0
O780 O 0.80217 0.75779 0.09248 0.0
O781 O 0.77187 0.73602 0.11422 0.0
O782 O 0.76189 0.79059 0.11902 0.0
O783 O 0.76013 0.76622 0.15774 0.0
C784 C 0.79572 0.63961 0.151 0.0
C785 C 0.78162 0.63496 0.12712 0.0
H786 H 0.74752 0.63139 0.08456 0.0
H787 H 0.71464 0.66639 0.0718 0.0
H788 H 0.80246 0.69595 0.22332 0.0
H789 H 0.8135 0.65345 0.20085 0.0
H790 H 0.80805 0.62387 0.15918 0.0
H791 H 0.78393 0.616 0.11693 0.0
Mn792 Mn 0.2506 0.72231 0.08037 0.0
Mn793 Mn 0.26937 0.72104 0.14287 0.0
C794 C 0.25982 0.76296 0.10336 0.0
C795 C 0.26508 0.71908 0.03679 0.0
C796 C 0.21043 0.72627 0.12574 0.0
O797 O 0.25569 0.68066 0.08691 0.0
O798 O 0.26165 0.68507 0.13027 0.0
C799 C 0.31742 0.7027 0.1137 0.0
N800 N 0.30666 0.71821 0.13337 0.0
C801 C 0.34649 0.74548 0.13421 0.0
C802 C 0.35835 0.72877 0.1152 0.0
C803 C 0.34357 0.70745 0.10464 0.0
C804 C 0.31993 0.74023 0.14163 0.0
H805 H 0.30581 0.68772 0.10382 0.0
C806 C 0.25804 0.67041 0.11021 0.0
O807 O 0.24002 0.71523 0.04276 0.0
O808 O 0.28153 0.72372 0.05615 0.0
N809 N 0.28045 0.75123 0.16334 0.0
C810 C 0.26956 0.75757 0.18735 0.0
C811 C 0.28396 0.77366 0.20528 0.0
C812 C 0.30948 0.78308 0.19866 0.0
C813 C 0.32137 0.77422 0.17512 0.0
C814 C 0.30672 0.75654 0.15909 0.0
H815 H 0.25012 0.74989 0.19276 0.0
O816 O 0.24817 0.76363 0.08035 0.0
O817 O 0.26746 0.7393 0.11012 0.0
O818 O 0.21521 0.72131 0.10111 0.0
O819 O 0.2291 0.72821 0.1441 0.0
C820 C 0.34803 0.78011 0.16825 0.0
C821 C 0.36031 0.7664 0.147 0.0
H822 H 0.37871 0.73212 0.10862 0.0
H823 H 0.35214 0.69491 0.08926 0.0
H824 H 0.27517 0.77951 0.22382 0.0
H825 H 0.32019 0.79597 0.21239 0.0
H826 H 0.35943 0.79455 0.17954 0.0
H827 H 0.38089 0.77083 0.14192 0.0
Mn828 Mn 0.76904 0.28587 0.1004 0.0
Mn829 Mn 0.7351 0.27559 0.15542 0.0
C830 C 0.7587 0.24118 0.11184 0.0
C831 C 0.7624 0.29469 0.05633 0.0
C832 C 0.79624 0.28023 0.15456 0.0
O833 O 0.7584 0.32474 0.11019 0.0
O834 O 0.73828 0.31354 0.14764 0.0
C835 C 0.69198 0.29004 0.11805 0.0
N836 N 0.70056 0.27443 0.13871 0.0
C837 C 0.66837 0.24051 0.1271 0.0
C838 C 0.65902 0.25643 0.10613 0.0
C839 C 0.67084 0.28141 0.10166 0.0
C840 C 0.68977 0.25011 0.14247 0.0
H841 H 0.70204 0.30833 0.11305 0.0
C842 C 0.74592 0.331 0.13129 0.0
O843 O 0.78598 0.29886 0.06671 0.0
O844 O 0.74349 0.28648 0.07149 0.0
N845 N 0.72668 0.24145 0.16953 0.0
C846 C 0.73538 0.23225 0.19352 0.0
C847 C 0.72047 0.21245 0.20676 0.0
C848 C 0.69848 0.20048 0.19412 0.0
C849 C 0.68929 0.21128 0.17016 0.0
C850 C 0.7022 0.23398 0.16068 0.0
H851 H 0.75178 0.2421 0.20356 0.0
O852 O 0.77602 0.24638 0.09364 0.0
O853 O 0.74743 0.26241 0.12175 0.0
O854 O 0.79804 0.28622 0.12968 0.0
O855 O 0.77388 0.27468 0.16677 0.0
C856 C 0.66764 0.20103 0.1554 0.0
C857 C 0.65808 0.21499 0.13287 0.0
H858 H 0.64282 0.24969 0.09341 0.0
H859 H 0.66412 0.29373 0.08524 0.0
H860 H 0.72465 0.20766 0.22721 0.0
H861 H 0.68782 0.18434 0.20377 0.0
H862 H 0.65854 0.1824 0.16099 0.0
H863 H 0.64201 0.20657 0.12102 0.0
Mn864 Mn 0.60434 0.77515 0.68602 0.0
Mn865 Mn 0.65307 0.77301 0.73089 0.0
C866 C 0.61489 0.73355 0.70703 0.0
C867 C 0.5592 0.78335 0.68117 0.0
C868 C 0.6623 0.76739 0.66931 0.0
O869 O 0.61416 0.81591 0.68998 0.0
O870 O 0.64619 0.8096 0.71993 0.0
C871 C 0.60903 0.79454 0.76323 0.0
N872 N 0.62954 0.77655 0.76087 0.0
C873 C 0.60981 0.74875 0.79473 0.0
C874 C 0.58916 0.76743 0.798 0.0
C875 C 0.58868 0.79036 0.782 0.0
C876 C 0.629 0.75358 0.77496 0.0
H877 H 0.60768 0.81172 0.75045 0.0
C878 C 0.63242 0.82497 0.7055 0.0
O879 O 0.57476 0.78344 0.66041 0.0
O880 O 0.57019 0.78037 0.70429 0.0
N881 N 0.66477 0.74041 0.74836 0.0
C882 C 0.69052 0.73128 0.75026 0.0
C883 C 0.69706 0.71011 0.7674 0.0
C884 C 0.67776 0.70045 0.78506 0.0
C885 C 0.6533 0.71394 0.78704 0.0
C886 C 0.64842 0.73506 0.76925 0.0
H887 H 0.70659 0.74149 0.74053 0.0
O888 O 0.59883 0.73439 0.68689 0.0
O889 O 0.62244 0.7571 0.71472 0.0
O890 O 0.63757 0.7701 0.66286 0.0
O891 O 0.67093 0.76782 0.69413 0.0
C892 C 0.63451 0.70865 0.8072 0.0
C893 C 0.61223 0.72563 0.81048 0.0
H894 H 0.5737 0.76444 0.81279 0.0
H895 H 0.57259 0.80475 0.78404 0.0
H896 H 0.71726 0.70222 0.76789 0.0
H897 H 0.68276 0.68424 0.79843 0.0
H898 H 0.63719 0.6919 0.82055 0.0
H899 H 0.5978 0.7214 0.82599 0.0
Mn900 Mn 0.24359 0.59583 0.68787 0.0
Mn901 Mn 0.2533 0.64147 0.73382 0.0
C902 C 0.28821 0.60844 0.69905 0.0
C903 C 0.23558 0.55139 0.68095 0.0
C904 C 0.245 0.65575 0.67534 0.0
O905 O 0.20489 0.60002 0.70338 0.0
O906 O 0.2154 0.63435 0.7289 0.0
C907 C 0.23879 0.59562 0.76835 0.0
N908 N 0.25512 0.61687 0.76321 0.0
C909 C 0.28686 0.60149 0.79603 0.0
C910 C 0.2699 0.58017 0.80229 0.0
C911 C 0.24581 0.57711 0.7882 0.0
C912 C 0.27911 0.61872 0.77536 0.0
H913 H 0.22074 0.59232 0.75714 0.0
C914 C 0.19816 0.61884 0.71914 0.0
O915 O 0.22908 0.56852 0.66251 0.0
O916 O 0.24653 0.56009 0.70258 0.0
N917 N 0.28747 0.65314 0.74536 0.0
C918 C 0.29638 0.67846 0.74184 0.0
C919 C 0.31546 0.68871 0.75951 0.0
C920 C 0.32698 0.6726 0.77918 0.0
C921 C 0.31666 0.64717 0.78341 0.0
C922 C 0.29529 0.63912 0.76723 0.0
H923 H 0.28704 0.69137 0.72725 0.0
O924 O 0.28331 0.59495 0.67759 0.0
O925 O 0.26709 0.61238 0.71349 0.0
O926 O 0.23897 0.63175 0.66847 0.0
O927 O 0.25294 0.66249 0.69925 0.0
C928 C 0.3249 0.63063 0.80461 0.0
C929 C 0.31062 0.60701 0.81014 0.0
H930 H 0.27503 0.56622 0.81799 0.0
H931 H 0.2327 0.56048 0.79255 0.0
H932 H 0.32065 0.70917 0.75883 0.0
H933 H 0.34224 0.68072 0.79211 0.0
H934 H 0.34184 0.63611 0.81699 0.0
H935 H 0.31703 0.5943 0.82641 0.0
Mn936 Mn 0.39187 0.25591 0.72977 0.0
Mn937 Mn 0.33552 0.24922 0.76535 0.0
C938 C 0.36497 0.29407 0.73884 0.0
C939 C 0.43806 0.26074 0.72922 0.0
C940 C 0.33767 0.2398 0.70495 0.0
O941 O 0.39581 0.217 0.74409 0.0
O942 O 0.35703 0.21685 0.76551 0.0
C943 C 0.37253 0.25188 0.81131 0.0
N944 N 0.34915 0.25978 0.79954 0.0
C945 C 0.3459 0.29765 0.82915 0.0
C946 C 0.36949 0.28947 0.84195 0.0
C947 C 0.3829 0.26649 0.83293 0.0
C948 C 0.33693 0.28256 0.80738 0.0
H949 H 0.38368 0.23502 0.80383 0.0
C950 C 0.37841 0.20535 0.75852 0.0
O951 O 0.42527 0.25076 0.70897 0.0
O952 O 0.42405 0.26771 0.74982 0.0
N953 N 0.30953 0.27655 0.7705 0.0
C954 C 0.2838 0.27501 0.76155 0.0
C955 C 0.26405 0.29146 0.77295 0.0
C956 C 0.27098 0.3096 0.79324 0.0
C957 C 0.29704 0.30909 0.80362 0.0
C958 C 0.31486 0.29029 0.79308 0.0
H959 H 0.27842 0.26077 0.74622 0.0
O960 O 0.38333 0.29469 0.7207 0.0
O961 O 0.36405 0.27171 0.75184 0.0
O962 O 0.36308 0.24303 0.70326 0.0
O963 O 0.32436 0.24207 0.72713 0.0
C964 C 0.30561 0.32506 0.82513 0.0
C965 C 0.33061 0.31992 0.83731 0.0
H966 H 0.37734 0.30054 0.85881 0.0
H967 H 0.40132 0.26018 0.84246 0.0
H968 H 0.24368 0.29038 0.76587 0.0
H969 H 0.25594 0.3229 0.80141 0.0
H970 H 0.29288 0.34078 0.83289 0.0
H971 H 0.33706 0.33215 0.85396 0.0
Mn972 Mn 0.76038 0.4028 0.70649 0.0
Mn973 Mn 0.77043 0.34836 0.74152 0.0
C974 C 0.72391 0.37598 0.71787 0.0
C975 C 0.74675 0.44686 0.714 0.0
C976 C 0.77299 0.34839 0.68069 0.0
O977 O 0.80071 0.40757 0.71664 0.0
O978 O 0.80388 0.36676 0.73376 0.0
C979 C 0.7781 0.38997 0.78259 0.0
N980 N 0.76702 0.36609 0.77545 0.0
C981 C 0.73297 0.37147 0.80908 0.0
C982 C 0.74425 0.39588 0.81667 0.0
C983 C 0.76713 0.40506 0.80349 0.0
C984 C 0.74468 0.35757 0.78783 0.0
H985 H 0.79417 0.3984 0.77149 0.0
C986 C 0.81463 0.3882 0.72591 0.0
O987 O 0.75551 0.43994 0.69056 0.0
O988 O 0.74992 0.42976 0.73255 0.0
N989 N 0.74168 0.32632 0.75383 0.0
C990 C 0.73612 0.30091 0.74621 0.0
C991 C 0.72064 0.28443 0.76275 0.0
C992 C 0.70807 0.29521 0.78529 0.0
C993 C 0.71357 0.32159 0.79244 0.0
C994 C 0.73279 0.33526 0.77763 0.0
H995 H 0.74285 0.29363 0.7271 0.0
O996 O 0.72105 0.39414 0.70011 0.0
O997 O 0.74722 0.37541 0.72896 0.0
O998 O 0.77086 0.37411 0.67819 0.0
O999 O 0.77063 0.33558 0.70325 0.0
C1000 C 0.70164 0.33465 0.81416 0.0
C1001 C 0.71024 0.36048 0.82143 0.0
H1002 H 0.73559 0.40767 0.83261 0.0
H1003 H 0.77591 0.42407 0.80895 0.0
H1004 H 0.71753 0.26385 0.75758 0.0
H1005 H 0.69453 0.28309 0.79698 0.0
H1006 H 0.68598 0.32502 0.8253 0.0
H1007 H 0.70036 0.37094 0.83756 0.0
Mn1008 Mn 0.58117 0.20663 0.24562 0.0
Mn1009 Mn 0.6398 0.22032 0.21983 0.0
C1010 C 0.59435 0.25236 0.2403 0.0
C1011 C 0.53616 0.20353 0.23798 0.0
C1012 C 0.63186 0.21092 0.27982 0.0
O1013 O 0.59284 0.16813 0.23226 0.0
O1014 O 0.63281 0.18184 0.21929 0.0
C1015 C 0.60693 0.2088 0.17214 0.0
N1016 N 0.62522 0.22483 0.18465 0.0
C1017 C 0.6147 0.26118 0.15479 0.0
C1018 C 0.59666 0.24468 0.14111 0.0
C1019 C 0.59261 0.21841 0.14998 0.0
C1020 C 0.62768 0.25068 0.17725 0.0
H1021 H 0.6028 0.18895 0.17923 0.0
C1022 C 0.61624 0.16315 0.22294 0.0
O1023 O 0.54644 0.19418 0.25997 0.0
O1024 O 0.55256 0.2093 0.21899 0.0
N1025 N 0.65395 0.25528 0.21514 0.0
C1026 C 0.67859 0.26262 0.22415 0.0
C1027 C 0.69191 0.28421 0.21213 0.0
C1028 C 0.67901 0.29918 0.19222 0.0
C1029 C 0.65477 0.28986 0.18175 0.0
C1030 C 0.64451 0.26614 0.19229 0.0
H1031 H 0.68848 0.25088 0.23936 0.0
O1032 O 0.57446 0.24621 0.25526 0.0
O1033 O 0.60475 0.23167 0.22885 0.0
O1034 O 0.60738 0.20355 0.27704 0.0
O1035 O 0.64713 0.21851 0.25993 0.0
C1036 C 0.64209 0.30124 0.15935 0.0
C1037 C 0.62112 0.28732 0.14653 0.0
H1038 H 0.58601 0.25189 0.12371 0.0
H1039 H 0.57839 0.20562 0.13984 0.0
H1040 H 0.71211 0.28928 0.218 0.0
H1041 H 0.68889 0.31642 0.1837 0.0
H1042 H 0.64894 0.32009 0.15128 0.0
H1043 H 0.61159 0.29599 0.12916 0.0
Mn1044 Mn 0.73711 0.59405 0.26953 0.0
Mn1045 Mn 0.75452 0.6446 0.22986 0.0
C1046 C 0.70377 0.62244 0.25181 0.0
C1047 C 0.72556 0.54921 0.27358 0.0
C1048 C 0.75181 0.64991 0.29009 0.0
O1049 O 0.77797 0.5865 0.26414 0.0
O1050 O 0.7854 0.62331 0.24064 0.0
C1051 C 0.76143 0.6015 0.1901 0.0
N1052 N 0.75141 0.62607 0.19653 0.0
C1053 C 0.72168 0.62505 0.15864 0.0
C1054 C 0.73217 0.6001 0.15132 0.0
C1055 C 0.75214 0.58827 0.16717 0.0
C1056 C 0.73143 0.63698 0.18196 0.0
H1057 H 0.77596 0.59173 0.20266 0.0
C1058 C 0.79387 0.6026 0.25232 0.0
O1059 O 0.73396 0.56282 0.29405 0.0
O1060 O 0.72577 0.56116 0.25072 0.0
N1061 N 0.72937 0.66921 0.21521 0.0
C1062 C 0.72764 0.69558 0.22157 0.0
C1063 C 0.71433 0.71322 0.20428 0.0
C1064 C 0.7017 0.70337 0.18126 0.0
C1065 C 0.70501 0.67643 0.1744 0.0
C1066 C 0.72109 0.6607 0.19099 0.0
H1067 H 0.73678 0.70311 0.23951 0.0
O1068 O 0.69831 0.60614 0.27094 0.0
O1069 O 0.72779 0.61978 0.24223 0.0
O1070 O 0.74751 0.625 0.29427 0.0
O1071 O 0.75393 0.66069 0.26657 0.0
C1072 C 0.69443 0.66487 0.15103 0.0
C1073 C 0.70215 0.63875 0.14359 0.0
H1074 H 0.72522 0.58999 0.13351 0.0
H1075 H 0.76019 0.56889 0.16185 0.0
H1076 H 0.71336 0.73417 0.2091 0.0
H1077 H 0.69038 0.7168 0.16863 0.0
H1078 H 0.68088 0.67607 0.13838 0.0
H1079 H 0.69407 0.63003 0.12552 0.0
Mn1080 Mn 0.41425 0.73996 0.29463 0.0
Mn1081 Mn 0.35778 0.73953 0.26381 0.0
C1082 C 0.39662 0.69784 0.28191 0.0
C1083 C 0.45797 0.74713 0.28258 0.0
C1084 C 0.36467 0.75132 0.32472 0.0
O1085 O 0.4053 0.77997 0.28601 0.0
O1086 O 0.379 0.77001 0.25197 0.0
C1087 C 0.3793 0.72687 0.20932 0.0
N1088 N 0.36006 0.72521 0.22835 0.0
C1089 C 0.32883 0.70474 0.19829 0.0
C1090 C 0.34944 0.70249 0.1794 0.0
C1091 C 0.37475 0.714 0.18472 0.0
C1092 C 0.3366 0.71356 0.22314 0.0
H1093 H 0.39818 0.7366 0.2135 0.0
C1094 C 0.39215 0.78698 0.26529 0.0
O1095 O 0.45083 0.75115 0.30727 0.0
O1096 O 0.44007 0.73905 0.26606 0.0
N1097 N 0.33488 0.71051 0.27201 0.0
C1098 C 0.32448 0.7085 0.30122 0.0
C1099 C 0.29278 0.70795 0.31173 0.0
C1100 C 0.26715 0.70767 0.28984 0.0
C1101 C 0.28772 0.70846 0.24014 0.0
C1102 C 0.32128 0.70937 0.24415 0.0
H1103 H 0.33949 0.70705 0.31633 0.0
O1104 O 0.41702 0.6987 0.29788 0.0
O1105 O 0.38865 0.72102 0.2745 0.0
O1106 O 0.38865 0.74226 0.3268 0.0
O1107 O 0.35344 0.75499 0.30166 0.0
C1108 C 0.28101 0.7027 0.213 0.0
C1109 C 0.30146 0.69832 0.19363 0.0
H1110 H 0.34595 0.69256 0.1606 0.0
H1111 H 0.39033 0.71344 0.16978 0.0
H1112 H 0.28905 0.70808 0.33283 0.0
H1113 H 0.24678 0.70829 0.29662 0.0
H1114 H 0.261 0.69855 0.20694 0.0
H1115 H 0.29549 0.6906 0.17441 0.0
Mn1116 Mn 0.22018 0.40223 0.27 0.0
Mn1117 Mn 0.23073 0.35183 0.22916 0.0
C1118 C 0.26496 0.39168 0.2567 0.0
C1119 C 0.21004 0.44634 0.27331 0.0
C1120 C 0.22683 0.34513 0.29019 0.0
O1121 O 0.18102 0.3929 0.259 0.0
O1122 O 0.19229 0.35851 0.23361 0.0
C1123 C 0.21345 0.39153 0.18879 0.0
N1124 N 0.23155 0.37284 0.1971 0.0
C1125 C 0.26164 0.38471 0.16167 0.0
C1126 C 0.24289 0.40331 0.15225 0.0
C1127 C 0.21879 0.40695 0.16608 0.0
C1128 C 0.25571 0.3709 0.18525 0.0
H1129 H 0.19537 0.39527 0.19977 0.0
C1130 C 0.17467 0.37353 0.24376 0.0
O1131 O 0.20674 0.43083 0.2938 0.0
O1132 O 0.21792 0.43588 0.25107 0.0
N1133 N 0.26522 0.33958 0.21828 0.0
C1134 C 0.27307 0.3139 0.22257 0.0
C1135 C 0.29079 0.30144 0.20475 0.0
C1136 C 0.30286 0.31622 0.18444 0.0
C1137 C 0.29356 0.34203 0.17925 0.0
C1138 C 0.27295 0.35207 0.19549 0.0
H1139 H 0.26375 0.30233 0.23815 0.0
O1140 O 0.2605 0.40779 0.27631 0.0
O1141 O 0.24311 0.38412 0.24499 0.0
O1142 O 0.22079 0.36967 0.29418 0.0
O1143 O 0.23218 0.33505 0.26659 0.0
C1144 C 0.30061 0.35601 0.15596 0.0
C1145 C 0.2851 0.37803 0.14766 0.0
H1146 H 0.24663 0.41462 0.13426 0.0
H1147 H 0.20434 0.42159 0.15925 0.0
H1148 H 0.29483 0.2803 0.20641 0.0
H1149 H 0.31708 0.30658 0.17128 0.0
H1150 H 0.31685 0.34902 0.14347 0.0
H1151 H 0.29013 0.3882 0.12931 0.0
Mn1152 Mn 0.69667 0.58505 0.74508 0.0
Mn1153 Mn 0.74009 0.63224 0.75615 0.0
C1154 C 0.72392 0.5996 0.70853 0.0
C1155 C 0.69215 0.53943 0.74377 0.0
C1156 C 0.68189 0.64411 0.74099 0.0
O1157 O 0.69481 0.58832 0.7869 0.0
O1158 O 0.72092 0.62407 0.7886 0.0
C1159 C 0.7715 0.59212 0.787 0.0
N1160 N 0.77032 0.61117 0.76765 0.0
C1161 C 0.81612 0.60263 0.75551 0.0
C1162 C 0.8183 0.58424 0.77643 0.0
C1163 C 0.79569 0.57861 0.79197 0.0
C1164 C 0.79126 0.61498 0.75136 0.0
H1165 H 0.75398 0.58658 0.79794 0.0
C1166 C 0.70572 0.60754 0.79986 0.0
O1167 O 0.67072 0.55431 0.74361 0.0
O1168 O 0.71487 0.55086 0.7473 0.0
N1169 N 0.76222 0.64292 0.72838 0.0
C1170 C 0.75705 0.66309 0.71162 0.0
C1171 C 0.77718 0.67126 0.6949 0.0
C1172 C 0.80303 0.66001 0.69581 0.0
C1173 C 0.80825 0.63978 0.71422 0.0
C1174 C 0.78701 0.63192 0.7305 0.0
H1175 H 0.73774 0.67285 0.71133 0.0
O1176 O 0.70274 0.58555 0.70471 0.0
O1177 O 0.72895 0.60316 0.73397 0.0
O1178 O 0.67426 0.61962 0.74224 0.0
O1179 O 0.70679 0.65166 0.74342 0.0
C1180 C 0.83374 0.62833 0.71828 0.0
C1181 C 0.83757 0.60933 0.73866 0.0
H1182 H 0.83702 0.57397 0.78037 0.0
H1183 H 0.7968 0.56372 0.80757 0.0
H1184 H 0.77197 0.68658 0.68195 0.0
H1185 H 0.81862 0.66731 0.68276 0.0
H1186 H 0.85049 0.63402 0.70599 0.0
H1187 H 0.85714 0.60036 0.74147 0.0
Mn1188 Mn 0.4104 0.73133 0.71323 0.0
Mn1189 Mn 0.37433 0.73337 0.72931 0.0
C1190 C 0.38295 0.76788 0.68804 0.0
C1191 C 0.45394 0.74708 0.70228 0.0
C1192 C 0.37466 0.68293 0.72164 0.0
O1193 O 0.42293 0.71382 0.7509 0.0
O1194 O 0.39781 0.7452 0.75861 0.0
C1195 C 0.34907 0.75544 0.77715 0.0
N1196 N 0.34765 0.7486 0.75097 0.0
C1197 C 0.30539 0.76935 0.74707 0.0
C1198 C 0.30742 0.77855 0.77269 0.0
C1199 C 0.32934 0.77107 0.78828 0.0
C1200 C 0.32567 0.75355 0.73688 0.0
H1201 H 0.36481 0.74901 0.78967 0.0
C1202 C 0.41369 0.72925 0.76848 0.0
O1203 O 0.44574 0.72384 0.69508 0.0
O1204 O 0.438 0.76025 0.71732 0.0
N1205 N 0.34579 0.7288 0.70334 0.0
C1206 C 0.34681 0.72047 0.67744 0.0
C1207 C 0.32436 0.72313 0.66111 0.0
C1208 C 0.30212 0.7371 0.67061 0.0
C1209 C 0.3018 0.74715 0.69642 0.0
C1210 C 0.32405 0.74223 0.71224 0.0
H1211 H 0.36501 0.71309 0.66857 0.0
O1212 O 0.39727 0.74945 0.6778 0.0
O1213 O 0.38243 0.76579 0.71329 0.0
O1214 O 0.38903 0.69529 0.70444 0.0
O1215 O 0.36807 0.6968 0.74192 0.0
C1216 C 0.28175 0.76442 0.70638 0.0
C1217 C 0.28408 0.77604 0.73123 0.0
H1218 H 0.29116 0.79036 0.78021 0.0
H1219 H 0.33155 0.77713 0.80877 0.0
H1220 H 0.32524 0.71677 0.64052 0.0
H1221 H 0.28673 0.74274 0.65704 0.0
H1222 H 0.26473 0.77045 0.69562 0.0
H1223 H 0.27045 0.7913 0.73778 0.0
Mn1224 Mn 0.23182 0.40034 0.72448 0.0
Mn1225 Mn 0.20168 0.34236 0.73594 0.0
C1226 C 0.22146 0.37182 0.68828 0.0
C1227 C 0.22842 0.44497 0.71479 0.0
C1228 C 0.26249 0.34912 0.73915 0.0
O1229 O 0.22188 0.40449 0.76472 0.0
O1230 O 0.20416 0.36399 0.76832 0.0
C1231 C 0.15235 0.37503 0.73992 0.0
N1232 N 0.16583 0.35409 0.72883 0.0
C1233 C 0.13135 0.3483 0.69565 0.0
C1234 C 0.11693 0.36945 0.70707 0.0
C1235 C 0.12755 0.38295 0.72923 0.0
C1236 C 0.15655 0.34214 0.70642 0.0
H1237 H 0.16066 0.38603 0.75641 0.0
C1238 C 0.21102 0.38605 0.77858 0.0
O1239 O 0.25045 0.43501 0.7245 0.0
O1240 O 0.20766 0.42956 0.71329 0.0
N1241 N 0.19508 0.31619 0.70919 0.0
C1242 C 0.20468 0.29074 0.711 0.0
C1243 C 0.19159 0.26989 0.69753 0.0
C1244 C 0.16946 0.27554 0.68115 0.0
C1245 C 0.15873 0.30145 0.68102 0.0
C1246 C 0.17116 0.32072 0.69719 0.0
H1247 H 0.22142 0.28631 0.72395 0.0
O1248 O 0.23798 0.39137 0.68539 0.0
O1249 O 0.21077 0.37071 0.71178 0.0
O1250 O 0.2617 0.37443 0.7354 0.0
O1251 O 0.24135 0.33382 0.73912 0.0
C1252 C 0.13417 0.30782 0.66865 0.0
C1253 C 0.12088 0.33182 0.67534 0.0
H1254 H 0.09743 0.37508 0.69938 0.0
H1255 H 0.11664 0.39942 0.73809 0.0
H1256 H 0.19843 0.2495 0.69998 0.0
H1257 H 0.15971 0.25946 0.67045 0.0
H1258 H 0.12453 0.29368 0.65538 0.0
H1259 H 0.10148 0.33608 0.6666 0.0
Mn1260 Mn 0.60018 0.26216 0.73557 0.0
Mn1261 Mn 0.65502 0.22712 0.75078 0.0
C1262 C 0.62589 0.24291 0.70078 0.0
C1263 C 0.55391 0.26397 0.73239 0.0
C1264 C 0.6561 0.28647 0.74082 0.0
O1265 O 0.59772 0.26099 0.777 0.0
O1266 O 0.6367 0.24073 0.78228 0.0
C1267 C 0.61416 0.1873 0.76534 0.0
N1268 N 0.63826 0.19291 0.75389 0.0
C1269 C 0.63923 0.14986 0.73247 0.0
C1270 C 0.61499 0.14327 0.74481 0.0
C1271 C 0.60228 0.1622 0.76117 0.0
C1272 C 0.64967 0.17545 0.73687 0.0
H1273 H 0.60384 0.20199 0.77725 0.0
C1274 C 0.61641 0.2522 0.79194 0.0
O1275 O 0.56797 0.28554 0.73563 0.0
O1276 O 0.56672 0.24143 0.73099 0.0
N1277 N 0.67853 0.21018 0.72603 0.0
C1278 C 0.70373 0.21849 0.71979 0.0
C1279 C 0.72227 0.20021 0.70904 0.0
C1280 C 0.71419 0.17402 0.70311 0.0
C1281 C 0.68843 0.16571 0.71027 0.0
C1282 C 0.67215 0.18398 0.72381 0.0
H1283 H 0.70975 0.23879 0.72338 0.0
O1284 O 0.60731 0.26027 0.69585 0.0
O1285 O 0.62658 0.23502 0.72551 0.0
O1286 O 0.63062 0.28899 0.73952 0.0
O1287 O 0.66872 0.26397 0.7439 0.0
C1288 C 0.67871 0.13968 0.70587 0.0
C1289 C 0.65364 0.13201 0.71619 0.0
H1290 H 0.60601 0.12378 0.74191 0.0
H1291 H 0.58334 0.15749 0.77047 0.0
H1292 H 0.74258 0.20639 0.70498 0.0
H1293 H 0.72799 0.16045 0.69341 0.0
H1294 H 0.69069 0.12515 0.69546 0.0
H1295 H 0.64633 0.11193 0.71265 0.0
Mn1296 Mn 0.69335 0.39326 0.2661 0.0
Mn1297 Mn 0.7335 0.34192 0.25151 0.0
C1298 C 0.70917 0.36564 0.30099 0.0
C1299 C 0.69335 0.43903 0.27402 0.0
C1300 C 0.6721 0.33812 0.24834 0.0
O1301 O 0.70187 0.40028 0.22625 0.0
O1302 O 0.72902 0.36557 0.2211 0.0
C1303 C 0.77469 0.38367 0.25557 0.0
N1304 N 0.76701 0.35805 0.26075 0.0
C1305 C 0.79994 0.35431 0.29574 0.0
C1306 C 0.80838 0.38047 0.29051 0.0
C1307 C 0.79567 0.39523 0.2703 0.0
C1308 C 0.77836 0.34435 0.28099 0.0
H1309 H 0.76407 0.39567 0.24118 0.0
C1310 C 0.7177 0.38628 0.21214 0.0
O1311 O 0.67154 0.42713 0.26613 0.0
O1312 O 0.71447 0.42451 0.27709 0.0
N1313 N 0.74312 0.31469 0.27601 0.0
C1314 C 0.73478 0.2889 0.27443 0.0
C1315 C 0.74898 0.26892 0.28795 0.0
C1316 C 0.77166 0.27557 0.30327 0.0
C1317 C 0.78068 0.30205 0.30339 0.0
C1318 C 0.76696 0.32039 0.28741 0.0
H1319 H 0.71727 0.28372 0.26303 0.0
O1320 O 0.6899 0.38245 0.30509 0.0
O1321 O 0.71889 0.36661 0.27713 0.0
O1322 O 0.66743 0.36273 0.25462 0.0
O1323 O 0.69599 0.32791 0.24645 0.0
C1324 C 0.80296 0.31105 0.3181 0.0
C1325 C 0.81178 0.33773 0.31521 0.0
H1326 H 0.8247 0.38932 0.3017 0.0
H1327 H 0.80181 0.41556 0.26629 0.0
H1328 H 0.74179 0.24869 0.28711 0.0
H1329 H 0.78202 0.26025 0.31455 0.0
H1330 H 0.81332 0.29775 0.33169 0.0
H1331 H 0.82834 0.34489 0.3272 0.0
Mn1332 Mn 0.60498 0.75971 0.23138 0.0
Mn1333 Mn 0.66559 0.78578 0.2282 0.0
C1334 C 0.62676 0.77187 0.27107 0.0
C1335 C 0.55966 0.76327 0.23294 0.0
C1336 C 0.65629 0.72638 0.23251 0.0
O1337 O 0.60802 0.76645 0.19073 0.0
O1338 O 0.65106 0.77708 0.19292 0.0
C1339 C 0.63504 0.83297 0.20927 0.0
N1340 N 0.65479 0.8225 0.22498 0.0
C1341 C 0.65721 0.86335 0.25035 0.0
C1342 C 0.63769 0.87477 0.23381 0.0
C1343 C 0.6265 0.85945 0.21318 0.0
C1344 C 0.66465 0.83675 0.24559 0.0
H1345 H 0.62532 0.82116 0.19422 0.0
C1346 C 0.63027 0.77164 0.17953 0.0
O1347 O 0.5711 0.74101 0.2259 0.0
O1348 O 0.57452 0.78436 0.23566 0.0
N1349 N 0.68606 0.79736 0.25805 0.0
C1350 C 0.7085 0.78506 0.26741 0.0
C1351 C 0.72698 0.7998 0.28264 0.0
C1352 C 0.72132 0.82627 0.28998 0.0
C1353 C 0.69842 0.83866 0.27964 0.0
C1354 C 0.6828 0.82402 0.26167 0.0
H1355 H 0.71314 0.76478 0.2615 0.0
O1356 O 0.60645 0.75598 0.27128 0.0
O1357 O 0.6325 0.78171 0.24774 0.0
O1358 O 0.63124 0.72864 0.22788 0.0
O1359 O 0.67251 0.74656 0.23463 0.0
C1360 C 0.69134 0.86537 0.28504 0.0
C1361 C 0.67007 0.87747 0.271 0.0
H1362 H 0.63125 0.89526 0.23668 0.0
H1363 H 0.6111 0.86791 0.20053 0.0
H1364 H 0.74583 0.79103 0.28829 0.0
H1365 H 0.73517 0.83715 0.30261 0.0
H1366 H 0.70276 0.87711 0.29906 0.0
H1367 H 0.66494 0.89813 0.27508 0.0
Mn1368 Mn 0.27524 0.58539 0.24892 0.0
Mn1369 Mn 0.26501 0.6468 0.23336 0.0
C1370 C 0.26104 0.61529 0.28328 0.0
C1371 C 0.25501 0.54491 0.25174 0.0
C1372 C 0.32065 0.62412 0.24287 0.0
O1373 O 0.27645 0.58545 0.20639 0.0
O1374 O 0.25895 0.62589 0.20163 0.0
C1375 C 0.20773 0.63297 0.23478 0.0
N1376 N 0.2275 0.65167 0.23561 0.0
C1377 C 0.19797 0.68524 0.25182 0.0
C1378 C 0.17787 0.6658 0.25447 0.0
C1379 C 0.18245 0.63964 0.24505 0.0
C1380 C 0.22305 0.67627 0.24443 0.0
H1381 H 0.21207 0.61272 0.22855 0.0
C1382 C 0.26628 0.60401 0.19175 0.0
O1383 O 0.28105 0.54638 0.25107 0.0
O1384 O 0.24118 0.56641 0.2483 0.0
N1385 N 0.26923 0.67195 0.26065 0.0
C1386 C 0.29669 0.68183 0.27251 0.0
C1387 C 0.29541 0.73513 0.27302 0.0
C1388 C 0.26552 0.7452 0.26114 0.0
C1389 C 0.24213 0.723 0.2523 0.0
C1390 C 0.24499 0.68973 0.2521 0.0
H1391 H 0.31271 0.66778 0.27654 0.0
O1392 O 0.27053 0.59207 0.28944 0.0
O1393 O 0.25997 0.61882 0.2578 0.0
O1394 O 0.31293 0.60128 0.25125 0.0
O1395 O 0.30469 0.64118 0.23202 0.0
C1396 C 0.21543 0.7312 0.2538 0.0
C1397 C 0.19447 0.71256 0.25747 0.0
H1398 H 0.15897 0.67063 0.26375 0.0
H1399 H 0.16693 0.62464 0.24644 0.0
H1400 H 0.31053 0.74983 0.27773 0.0
H1401 H 0.26034 0.76612 0.26256 0.0
H1402 H 0.21139 0.7519 0.25597 0.0
H1403 H 0.17519 0.71957 0.26385 0.0
Mn1404 Mn 0.39722 0.27784 0.24264 0.0
Mn1405 Mn 0.34039 0.24658 0.23329 0.0
C1406 C 0.37456 0.2599 0.28024 0.0
C1407 C 0.44223 0.26761 0.24118 0.0
C1408 C 0.34352 0.30783 0.24077 0.0
O1409 O 0.39588 0.27561 0.20084 0.0
O1410 O 0.35758 0.25402 0.19948 0.0
C1411 C 0.38084 0.20458 0.22514 0.0
N1412 N 0.35651 0.21191 0.2352 0.0
C1413 C 0.35669 0.17407 0.26487 0.0
C1414 C 0.38105 0.16552 0.25394 0.0
C1415 C 0.39336 0.18107 0.23419 0.0
C1416 C 0.3461 0.19842 0.25599 0.0
H1417 H 0.39112 0.21708 0.21106 0.0
C1418 C 0.37724 0.26421 0.18774 0.0
O1419 O 0.43476 0.29255 0.23965 0.0
O1420 O 0.42408 0.24975 0.2435 0.0
N1421 N 0.31667 0.23405 0.25979 0.0
C1422 C 0.29049 0.24164 0.26026 0.0
C1423 C 0.27139 0.225 0.27213 0.0
C1424 C 0.27937 0.20057 0.28357 0.0
C1425 C 0.30595 0.19219 0.28096 0.0
C1426 C 0.32334 0.20884 0.26693 0.0
H1427 H 0.28426 0.25995 0.25073 0.0
O1428 O 0.39453 0.27588 0.28367 0.0
O1429 O 0.36968 0.25522 0.25552 0.0
O1430 O 0.36944 0.30904 0.24167 0.0
O1431 O 0.33012 0.28556 0.23779 0.0
C1432 C 0.31548 0.16721 0.28986 0.0
C1433 C 0.34152 0.1587 0.28286 0.0
H1434 H 0.39027 0.14697 0.26031 0.0
H1435 H 0.41249 0.17504 0.22603 0.0
H1436 H 0.25077 0.23134 0.27277 0.0
H1437 H 0.26497 0.18807 0.29365 0.0
H1438 H 0.30289 0.1543 0.30162 0.0
H1439 H 0.34879 0.1395 0.28976 0.0
Mn1440 Mn 0.78436 0.70434 0.58163 0.0
Mn1441 Mn 0.78708 0.72543 0.64187 0.0
C1442 C 0.74624 0.72876 0.59763 0.0
C1443 C 0.79284 0.71617 0.53822 0.0
C1444 C 0.77652 0.66611 0.6267 0.0
O1445 O 0.82538 0.6996 0.59429 0.0
O1446 O 0.82293 0.72893 0.62757 0.0
C1447 C 0.79383 0.78251 0.62882 0.0
N1448 N 0.7847 0.76321 0.64551 0.0
C1449 C 0.75854 0.79472 0.67048 0.0
C1450 C 0.7667 0.81488 0.653 0.0
C1451 C 0.78417 0.80873 0.63184 0.0
C1452 C 0.76653 0.76873 0.66453 0.0
H1453 H 0.80677 0.77741 0.61233 0.0
C1454 C 0.83669 0.71417 0.61249 0.0
O1455 O 0.78991 0.69112 0.54457 0.0
O1456 O 0.79482 0.73322 0.5574 0.0
N1457 N 0.75432 0.72497 0.6584 0.0
C1458 C 0.73507 0.70664 0.65581 0.0
C1459 C 0.71306 0.70837 0.67175 0.0
C1460 C 0.71137 0.72918 0.69031 0.0
C1461 C 0.72946 0.7508 0.68925 0.0
C1462 C 0.75078 0.7477 0.67205 0.0
H1463 H 0.73567 0.69319 0.63954 0.0
O1464 O 0.74468 0.71471 0.5761 0.0
O1465 O 0.7702 0.72839 0.60785 0.0
O1466 O 0.77139 0.67051 0.60218 0.0
O1467 O 0.78861 0.68425 0.6405 0.0
C1468 C 0.72593 0.77614 0.70134 0.0
C1469 C 0.73963 0.79851 0.69094 0.0
H1470 H 0.75813 0.83463 0.65452 0.0
H1471 H 0.78975 0.82401 0.61769 0.0
H1472 H 0.69661 0.69553 0.66696 0.0
H1473 H 0.69374 0.72976 0.70172 0.0
H1474 H 0.71092 0.77945 0.71633 0.0
H1475 H 0.73399 0.81843 0.69727 0.0
Mn1476 Mn 0.72731 0.23081 0.40353 0.0
Mn1477 Mn 0.73355 0.20257 0.34475 0.0
C1478 C 0.68815 0.21603 0.38079 0.0
C1479 C 0.73297 0.22325 0.44819 0.0
C1480 C 0.72795 0.26311 0.3516 0.0
O1481 O 0.76878 0.22776 0.40018 0.0
O1482 O 0.76888 0.21157 0.35926 0.0
C1483 C 0.75207 0.15734 0.37824 0.0
N1484 N 0.73542 0.16693 0.35887 0.0
C1485 C 0.70961 0.1264 0.3596 0.0
C1486 C 0.72684 0.11594 0.37902 0.0
C1487 C 0.74807 0.1316 0.38854 0.0
C1488 C 0.71382 0.15273 0.35103 0.0
H1489 H 0.76794 0.16938 0.38634 0.0
C1490 C 0.78128 0.22011 0.3795 0.0
O1491 O 0.73401 0.24747 0.43876 0.0
O1492 O 0.72708 0.20405 0.43194 0.0
N1493 N 0.70397 0.18963 0.32441 0.0
C1494 C 0.69941 0.19753 0.29883 0.0
C1495 C 0.68563 0.18056 0.28117 0.0
C1496 C 0.67477 0.15652 0.29044 0.0
C1497 C 0.68141 0.1477 0.31607 0.0
C1498 C 0.69798 0.16415 0.33164 0.0
H1499 H 0.70796 0.21593 0.29158 0.0
O1500 O 0.68614 0.23089 0.40182 0.0
O1501 O 0.71264 0.209 0.37587 0.0
O1502 O 0.72867 0.26195 0.37716 0.0
O1503 O 0.7282 0.24205 0.33595 0.0
C1504 C 0.67585 0.1216 0.32497 0.0
C1505 C 0.68939 0.11121 0.34729 0.0
H1506 H 0.72422 0.09579 0.38646 0.0
H1507 H 0.76134 0.12386 0.40378 0.0
H1508 H 0.68368 0.18583 0.26037 0.0
H1509 H 0.6637 0.14387 0.27686 0.0
H1510 H 0.66228 0.10887 0.31411 0.0
H1511 H 0.68558 0.09083 0.35347 0.0
Mn1512 Mn 0.74409 0.76887 0.39824 0.0
Mn1513 Mn 0.774 0.76829 0.33984 0.0
C1514 C 0.74933 0.72772 0.37552 0.0
C1515 C 0.75491 0.76616 0.443 0.0
C1516 C 0.71318 0.77672 0.34615 0.0
O1517 O 0.75636 0.80892 0.39513 0.0
O1518 O 0.7743 0.80359 0.35529 0.0
C1519 C 0.81835 0.77048 0.37837 0.0
N1520 N 0.80786 0.75938 0.35574 0.0
C1521 C 0.83292 0.71874 0.36339 0.0
C1522 C 0.8443 0.73008 0.38627 0.0
C1523 C 0.83694 0.75609 0.3938 0.0
C1524 C 0.81409 0.7339 0.34921 0.0
H1525 H 0.81202 0.78988 0.38521 0.0
C1526 C 0.76844 0.81826 0.37477 0.0
O1527 O 0.73118 0.77434 0.4358 0.0
O1528 O 0.77208 0.76154 0.42458 0.0
N1529 N 0.77923 0.73696 0.31886 0.0
C1530 C 0.77142 0.73353 0.29306 0.0
C1531 C 0.78248 0.71247 0.27806 0.0
C1532 C 0.80081 0.69471 0.28996 0.0
C1533 C 0.80966 0.69978 0.31596 0.0
C1534 C 0.80033 0.72296 0.32832 0.0
H1535 H 0.75718 0.74699 0.28403 0.0
O1536 O 0.73503 0.72878 0.39678 0.0
O1537 O 0.76097 0.75003 0.37005 0.0
O1538 O 0.71326 0.77665 0.37191 0.0
O1539 O 0.73454 0.77376 0.33117 0.0
C1540 C 0.82835 0.6838 0.3297 0.0
C1541 C 0.83926 0.69288 0.35408 0.0
H1542 H 0.85873 0.71907 0.39812 0.0
H1543 H 0.84531 0.76494 0.41166 0.0
H1544 H 0.77666 0.70985 0.2576 0.0
H1545 H 0.80846 0.67782 0.27876 0.0
H1546 H 0.83472 0.66484 0.32157 0.0
H1547 H 0.85355 0.68049 0.36468 0.0
Mn1548 Mn 0.22485 0.73728 0.40294 0.0
Mn1549 Mn 0.23257 0.76955 0.34743 0.0
C1550 C 0.26966 0.74984 0.39132 0.0
C1551 C 0.2137 0.74515 0.44668 0.0
C1552 C 0.23557 0.70787 0.35054 0.0
O1553 O 0.18487 0.74254 0.39049 0.0
O1554 O 0.19556 0.75842 0.35103 0.0
C1555 C 0.20448 0.8102 0.38042 0.0
N1556 N 0.22487 0.80397 0.3634 0.0
C1557 C 0.24841 0.84409 0.37635 0.0
C1558 C 0.22724 0.85112 0.39318 0.0
C1559 C 0.20511 0.83408 0.39516 0.0
C1560 C 0.24642 0.82005 0.36205 0.0
H1561 H 0.18827 0.7967 0.38384 0.0
C1562 C 0.17828 0.74997 0.36705 0.0
O1563 O 0.21227 0.72094 0.43718 0.0
O1564 O 0.22046 0.76403 0.43077 0.0
N1565 N 0.2655 0.78583 0.33754 0.0
C1566 C 0.28139 0.77799 0.31748 0.0
C1567 C 0.30091 0.79557 0.3072 0.0
C1568 C 0.30481 0.8205 0.31927 0.0
C1569 C 0.2881 0.8283 0.34012 0.0
C1570 C 0.26693 0.81128 0.34657 0.0
H1571 H 0.2778 0.75872 0.31003 0.0
O1572 O 0.26499 0.73426 0.41113 0.0
O1573 O 0.24745 0.75949 0.38116 0.0
O1574 O 0.22867 0.70711 0.37526 0.0
O1575 O 0.24004 0.73031 0.3373 0.0
C1576 C 0.29105 0.85238 0.35435 0.0
C1577 C 0.27149 0.85991 0.37317 0.0
H1578 H 0.22782 0.86944 0.40471 0.0
H1579 H 0.18885 0.83897 0.40854 0.0
H1580 H 0.31339 0.79027 0.29053 0.0
H1581 H 0.32034 0.83353 0.31212 0.0
H1582 H 0.30797 0.86538 0.3507 0.0
H1583 H 0.27374 0.87851 0.38404 0.0
Mn1584 Mn 0.25123 0.2264 0.39172 0.0
Mn1585 Mn 0.21681 0.23113 0.3362 0.0
C1586 C 0.2357 0.26906 0.37728 0.0
C1587 C 0.24992 0.21746 0.43618 0.0
C1588 C 0.27779 0.23517 0.33761 0.0
O1589 O 0.24565 0.18598 0.3825 0.0
O1590 O 0.22793 0.1942 0.34299 0.0
C1591 C 0.17636 0.20664 0.37177 0.0
N1592 N 0.18275 0.22562 0.35334 0.0
C1593 C 0.14167 0.24925 0.36242 0.0
C1594 C 0.13417 0.22918 0.38029 0.0
C1595 C 0.1518 0.20794 0.38525 0.0
C1596 C 0.16697 0.24733 0.35039 0.0
H1597 H 0.19018 0.19107 0.37701 0.0
C1598 C 0.23707 0.17795 0.35992 0.0
O1599 O 0.27252 0.216 0.42344 0.0
O1600 O 0.22843 0.22354 0.4231 0.0
N1601 N 0.20101 0.26347 0.32322 0.0
C1602 C 0.20739 0.27515 0.29964 0.0
C1603 C 0.18935 0.29336 0.28779 0.0
C1604 C 0.16496 0.29917 0.30005 0.0
C1605 C 0.15773 0.28539 0.32298 0.0
C1606 C 0.17586 0.26651 0.33311 0.0
H1607 H 0.22597 0.27011 0.28985 0.0
O1608 O 0.25324 0.26714 0.39613 0.0
O1609 O 0.22651 0.24604 0.36973 0.0
O1610 O 0.27909 0.22838 0.36218 0.0
O1611 O 0.25521 0.23904 0.32466 0.0
C1612 C 0.13227 0.28799 0.33472 0.0
C1613 C 0.12456 0.27039 0.35512 0.0
H1614 H 0.11496 0.22987 0.39025 0.0
H1615 H 0.14659 0.19268 0.39959 0.0
H1616 H 0.19402 0.3031 0.26925 0.0
H1617 H 0.15132 0.31315 0.29091 0.0
H1618 H 0.11819 0.30289 0.32761 0.0
H1619 H 0.10482 0.27226 0.36386 0.0
Mn1620 Mn 0.22598 0.23213 0.59128 0.0
Mn1621 Mn 0.22929 0.20668 0.65165 0.0
C1622 C 0.26862 0.22731 0.61238 0.0
C1623 C 0.22576 0.22485 0.5465 0.0
C1624 C 0.22069 0.26636 0.64138 0.0
O1625 O 0.18633 0.21895 0.5965 0.0
O1626 O 0.19263 0.20523 0.63791 0.0
C1627 C 0.22542 0.15865 0.6178 0.0
N1628 N 0.2371 0.17135 0.63898 0.0
C1629 C 0.27546 0.14204 0.63642 0.0
C1630 C 0.26328 0.12811 0.61543 0.0
C1631 C 0.23822 0.13663 0.60592 0.0
C1632 C 0.26205 0.16435 0.6468 0.0
H1633 H 0.20684 0.1657 0.60946 0.0
C1634 C 0.17738 0.20906 0.6182 0.0
O1635 O 0.21683 0.24722 0.55629 0.0
O1636 O 0.23262 0.20597 0.56278 0.0
N1637 N 0.26109 0.20308 0.67217 0.0
C1638 C 0.2641 0.21357 0.69703 0.0
C1639 C 0.28373 0.20303 0.71419 0.0
C1640 C 0.30049 0.18221 0.70544 0.0
C1641 C 0.29534 0.17022 0.68074 0.0
C1642 C 0.27369 0.17997 0.66596 0.0
H1643 H 0.25088 0.22932 0.70384 0.0
O1644 O 0.26599 0.24184 0.59132 0.0
O1645 O 0.24661 0.21544 0.61897 0.0
O1646 O 0.21837 0.26332 0.61618 0.0
O1647 O 0.22536 0.24673 0.65803 0.0
C1648 C 0.30924 0.14768 0.6711 0.0
C1649 C 0.29998 0.13432 0.64807 0.0
H1650 H 0.27291 0.11084 0.60657 0.0
H1651 H 0.22886 0.12637 0.58935 0.0
H1652 H 0.28618 0.2112 0.73389 0.0
H1653 H 0.31621 0.17472 0.71837 0.0
H1654 H 0.32659 0.14011 0.6815 0.0
H1655 H 0.31079 0.11703 0.64072 0.0
Mn1656 Mn 0.76194 0.21402 0.60058 0.0
Mn1657 Mn 0.78764 0.22275 0.66015 0.0
C1658 C 0.775 0.25746 0.6126 0.0
C1659 C 0.76238 0.20334 0.55629 0.0
C1660 C 0.72889 0.229 0.64993 0.0
O1661 O 0.76997 0.17513 0.61203 0.0
O1662 O 0.77316 0.18635 0.65459 0.0
C1663 C 0.83217 0.19007 0.63687 0.0
N1664 N 0.82381 0.2106 0.65284 0.0
C1665 C 0.8697 0.22383 0.65991 0.0
C1666 C 0.87848 0.20125 0.64599 0.0
C1667 C 0.85957 0.18461 0.63386 0.0
C1668 C 0.84195 0.2282 0.66213 0.0
H1669 H 0.81841 0.17812 0.62572 0.0
C1670 C 0.77101 0.16874 0.63651 0.0
O1671 O 0.74103 0.20038 0.57056 0.0
O1672 O 0.78431 0.21087 0.56817 0.0
N1673 N 0.80488 0.2543 0.67346 0.0
C1674 C 0.79383 0.27328 0.6894 0.0
C1675 C 0.81073 0.29171 0.70249 0.0
C1676 C 0.83842 0.29016 0.70002 0.0
C1677 C 0.84954 0.26937 0.68546 0.0
C1678 C 0.83201 0.25111 0.67329 0.0
H1679 H 0.77237 0.27423 0.692 0.0
O1680 O 0.75821 0.25304 0.59345 0.0
O1681 O 0.78557 0.23579 0.62321 0.0
O1682 O 0.73149 0.21659 0.62785 0.0
O1683 O 0.74927 0.23582 0.66471 0.0
C1684 C 0.87737 0.26512 0.68426 0.0
C1685 C 0.88749 0.24246 0.67116 0.0
H1686 H 0.89965 0.1971 0.64361 0.0
H1687 H 0.86606 0.16787 0.62178 0.0
H1688 H 0.80296 0.30683 0.71538 0.0
H1689 H 0.85091 0.30424 0.71059 0.0
H1690 H 0.89114 0.27901 0.69361 0.0
H1691 H 0.90896 0.23945 0.67 0.0
Mn1692 Mn 0.24271 0.79318 0.59062 0.0
Mn1693 Mn 0.22073 0.78567 0.65195 0.0
C1694 C 0.23632 0.74928 0.60715 0.0
C1695 C 0.23141 0.79509 0.54642 0.0
C1696 C 0.28052 0.79302 0.63905 0.0
O1697 O 0.23222 0.83258 0.60012 0.0
O1698 O 0.22392 0.82328 0.64254 0.0
C1699 C 0.16978 0.80288 0.62745 0.0
N1700 N 0.18294 0.78637 0.64472 0.0
C1701 C 0.14421 0.7581 0.64795 0.0
C1702 C 0.13028 0.775 0.63056 0.0
C1703 C 0.14311 0.79765 0.62039 0.0
C1704 C 0.17089 0.7643 0.65404 0.0
H1705 H 0.17988 0.81916 0.61794 0.0
C1706 C 0.2271 0.83997 0.62398 0.0
O1707 O 0.25504 0.8028 0.55433 0.0
O1708 O 0.21369 0.79017 0.5644 0.0
N1709 N 0.21354 0.75093 0.66714 0.0
C1710 C 0.22985 0.73436 0.68107 0.0
C1711 C 0.21918 0.71444 0.69727 0.0
C1712 C 0.19174 0.70919 0.69698 0.0
C1713 C 0.17523 0.72485 0.68087 0.0
C1714 C 0.18671 0.74668 0.66769 0.0
H1715 H 0.25075 0.73519 0.67886 0.0
O1716 O 0.25037 0.75356 0.58615 0.0
O1717 O 0.22534 0.77086 0.61693 0.0
O1718 O 0.27664 0.79696 0.61405 0.0
O1719 O 0.26134 0.78614 0.65523 0.0
C1720 C 0.14802 0.7192 0.67667 0.0
C1721 C 0.13296 0.73482 0.6588 0.0
H1722 H 0.10985 0.77066 0.62471 0.0
H1723 H 0.1327 0.81068 0.6066 0.0
H1724 H 0.23251 0.70262 0.70913 0.0
H1725 H 0.18379 0.69263 0.70838 0.0
H1726 H 0.13886 0.70229 0.68622 0.0
H1727 H 0.11257 0.72915 0.65413 0.0
C1728 C 0.97585 0.22362 0.23612 0.0
C1729 C 0.96882 0.24306 0.25522 0.0
C1730 C -0.00311 0.22795 0.21834 0.0
C1731 C 0.01157 0.25175 0.2192 0.0
H1732 H 0.96474 0.2051 0.23451 0.0
H1733 H 0.00268 0.21198 0.20489 0.0
S1734 S 0.00159 0.30875 0.26528 0.0
N1735 N 0.97805 0.28715 0.27355 0.0
N1736 N 0.01831 0.29478 0.24053 0.0
C1737 C 0.00469 0.27141 0.23792 0.0
C1738 C 0.98317 0.26716 0.25588 0.0
C1739 C 0.81394 0.9852 0.21157 0.0
C1740 C 0.81046 0.97719 0.23819 0.0
C1741 C 0.8007 0.00788 0.20143 0.0
C1742 C 0.78335 0.02304 0.21757 0.0
H1743 H 0.8251 0.97261 0.19793 0.0
H1744 H 0.80324 0.01289 0.1806 0.0
S1745 S 0.77031 0.01175 0.28966 0.0
N1746 N 0.7906 0.98717 0.28099 0.0
N1747 N 0.76588 0.02979 0.26248 0.0
C1748 C 0.78129 0.01612 0.24476 0.0
C1749 C 0.79486 0.99323 0.25494 0.0
C1750 C 0.01484 0.7528 0.25145 0.0
C1751 C 0.02291 0.76275 0.22667 0.0
C1752 C 0.99437 0.73389 0.25325 0.0
C1753 C 0.98117 0.72433 0.23029 0.0
H1754 H 0.02597 0.7579 0.26933 0.0
H1755 H 0.98903 0.72655 0.27283 0.0
S1756 S 0.99388 0.74639 0.16077 0.0
N1757 N 0.01566 0.76327 0.17897 0.0
N1758 N 0.97665 0.72806 0.182 0.0
C1759 C 0.98836 0.73521 0.20543 0.0
C1760 C 0.00915 0.75455 0.20376 0.0
C1761 C 0.28556 0.98187 0.23275 0.0
C1762 C 0.27692 0.96539 0.21183 0.0
C1763 C 0.27142 0.00498 0.23923 0.0
C1764 C 0.24787 0.01172 0.22545 0.0
H1765 H 0.30233 0.97593 0.24519 0.0
H1766 H 0.27865 0.01745 0.2554 0.0
S1767 S 0.21842 0.97632 0.16761 0.0
N1768 N 0.24477 0.95818 0.17608 0.0
N1769 N 0.21779 0.00177 0.18864 0.0
C1770 C 0.23966 -0.00393 0.2038 0.0
C1771 C 0.25447 0.97291 0.19675 0.0
C1772 C 0.98762 0.69449 0.77253 0.0
C1773 C 0.97355 0.7175 0.7802 0.0
C1774 C 0.01226 0.68837 0.78457 0.0
C1775 C 0.02322 0.70524 0.80428 0.0
H1776 H 0.98107 0.68289 0.75548 0.0
H1777 H 0.02457 0.67295 0.77558 0.0
S1778 S 0.98941 0.76219 0.83704 0.0
N1779 N 0.96864 0.75295 0.81307 0.0
N1780 N 0.01497 0.74121 0.83558 0.0
C1781 C 0.00686 0.72507 0.81529 0.0
C1782 C 0.9821 0.73162 0.80289 0.0
C1783 C 0.24734 0.01159 0.8118 0.0
C1784 C 0.27147 0.01931 0.7997 0.0
C1785 C 0.23317 0.98918 0.80265 0.0
C1786 C 0.24292 0.97366 0.78138 0.0
H1787 H 0.23812 0.02426 0.82674 0.0
H1788 H 0.21423 0.98433 0.81193 0.0
S1789 S 0.30688 0.984 0.74527 0.0
N1790 N 0.30559 0.00874 0.76705 0.0
N1791 N 0.27951 0.96621 0.75021 0.0
C1792 C 0.26805 0.98012 0.77051 0.0
C1793 C 0.28226 0.00298 0.77969 0.0
C1794 C -0.00051 0.23151 0.73248 0.0
C1795 C 0.01125 0.21351 0.75058 0.0
C1796 C 0.98036 0.25023 0.74078 0.0
C1797 C 0.97276 0.25219 0.76766 0.0
H1798 H 0.00578 0.23164 0.71183 0.0
H1799 H 0.97156 0.2634 0.72601 0.0
S1800 S -0.00247 0.20931 0.82295 0.0
N1801 N 0.01379 0.19841 0.79644 0.0
N1802 N 0.97797 0.23375 0.81232 0.0
C1803 C 0.9842 0.23407 0.78598 0.0
C1804 C 0.00333 0.21462 0.77735 0.0
C1805 C 0.80477 0.01942 0.76327 0.0
C1806 C 0.79338 0.03201 0.78547 0.0
C1807 C 0.79706 0.99358 0.75622 0.0
C1808 C 0.77807 0.97951 0.7714 0.0
H1809 H 0.81772 0.03038 0.74989 0.0
H1810 H 0.80547 0.98495 0.73827 0.0
S1811 S 0.74673 0.00238 0.83441 0.0
N1812 N 0.76536 0.02778 0.82469 0.0
N1813 N 0.75113 0.97875 0.81181 0.0
C1814 C 0.76861 0.99104 0.79512 0.0
C1815 C 0.77635 0.01742 0.80215 0.0
C1816 C 0.23068 0.24488 0.00014 0.0
C1817 C 0.25265 0.2588 0.01083 0.0
C1818 C 0.21449 0.25644 0.98055 0.0
C1819 C 0.22017 0.28201 0.97066 0.0
H1820 H 0.22574 0.22503 0.00719 0.0
H1821 H 0.19885 0.24439 0.97156 0.0
S1822 S 0.27406 0.32739 0.99356 0.0
N1823 N 0.27776 0.30031 0.01204 0.0
N1824 N 0.24826 0.32145 0.97372 0.0
C1825 C 0.24136 0.29654 0.98196 0.0
C1826 C 0.25747 0.28503 0.00236 0.0
C1827 C 0.30451 0.7409 0.97647 0.0
C1828 C 0.29146 0.72758 0.95558 0.0
C1829 C 0.29641 0.73711 0.00289 0.0
C1830 C 0.27449 0.72055 0.00911 0.0
H1831 H 0.32078 0.75457 0.97235 0.0
H1832 H 0.30676 0.74806 0.01844 0.0
S1833 S 0.23371 0.68115 0.96152 0.0
N1834 N 0.25592 0.69667 0.94281 0.0
N1835 N 0.24032 0.69036 0.99245 0.0
C1836 C 0.2615 0.7069 0.98845 0.0
C1837 C 0.27012 0.7102 0.96165 0.0
C1838 C 0.75108 0.2609 0.99252 0.0
C1839 C 0.72875 0.27498 0.98277 0.0
C1840 C 0.76508 0.27009 0.01485 0.0
C1841 C 0.75695 0.29342 0.02811 0.0
H1842 H 0.75833 0.24321 0.98231 0.0
H1843 H 0.78124 0.25795 0.0228 0.0
S1844 S 0.7001 0.33751 0.01021 0.0
N1845 N 0.69975 0.31375 0.9873 0.0
N1846 N 0.72545 0.33036 0.03021 0.0
C1847 C 0.73495 0.30782 0.01833 0.0
C1848 C 0.72088 0.29866 -0.00448 0.0
C1849 C 0.73683 0.76631 0.97161 0.0
C1850 C 0.75138 0.74581 0.95888 0.0
C1851 C 0.7411 0.77231 -0.00139 0.0
C1852 C 0.75972 0.75767 0.01367 0.0
H1853 H 0.72218 0.77794 0.96064 0.0
H1854 H 0.72909 0.78775 0.00795 0.0
S1855 S 0.80365 0.70289 0.98967 0.0
N1856 N 0.78587 0.71162 0.9633 0.0
N1857 N 0.79348 0.72262 0.01404 0.0
C1858 C 0.77468 0.73749 0.00112 0.0
C1859 C 0.7706 0.7316 0.97369 0.0
C1860 C 0.51444 0.79205 0.69935 0.0
C1861 C 0.53015 0.78014 0.67943 0.0
C1862 C 0.48934 0.78172 0.70588 0.0
C1863 C 0.47932 0.75882 0.69301 0.0
H1864 H 0.5225 0.80821 0.71134 0.0
H1865 H 0.47844 0.7909 0.72215 0.0
S1866 S 0.5112 0.72268 0.63675 0.0
N1867 N 0.53286 0.74631 0.64477 0.0
N1868 N 0.48555 0.7266 0.65712 0.0
C1869 C 0.4939 0.74802 0.67159 0.0
C1870 C 0.51935 0.75887 0.66467 0.0
C1871 C 0.25217 0.48095 0.69095 0.0
C1872 C 0.22829 0.47132 0.70207 0.0
C1873 C 0.25329 0.50632 0.67958 0.0
C1874 C 0.23064 0.5229 0.67917 0.0
H1875 H 0.27039 0.46915 0.69176 0.0
H1876 H 0.27258 0.51396 0.67332 0.0
S1877 S 0.16271 0.50617 0.70318 0.0
N1878 N 0.18077 0.47919 0.70956 0.0
N1879 N 0.18328 0.52758 0.68883 0.0
C1880 C 0.20617 0.51285 0.68834 0.0
C1881 C 0.20491 0.48683 0.69974 0.0
C1882 C 0.4829 0.24485 0.71437 0.0
C1883 C 0.46749 0.26309 0.72919 0.0
C1884 C 0.51092 0.24543 0.71541 0.0
C1885 C 0.52446 0.26471 0.73073 0.0
H1886 H 0.47326 0.22951 0.70249 0.0
H1887 H 0.52205 0.23065 0.70415 0.0
S1888 S 0.49336 0.31792 0.7719 0.0
N1889 N 0.46774 0.30147 0.75903 0.0
N1890 N 0.52051 0.30306 0.76029 0.0
C1891 C 0.50933 0.28364 0.74493 0.0
C1892 C 0.48078 0.28267 0.74436 0.0
C1893 C 0.71942 0.47273 0.74619 0.0
C1894 C 0.72879 0.46972 0.71975 0.0
C1895 C 0.70195 0.49326 0.75334 0.0
C1896 C 0.69335 0.51191 0.7345 0.0
H1897 H 0.72635 0.45968 0.762 0.0
H1898 H 0.69761 0.49631 0.77429 0.0
S1899 S 0.70812 0.51106 0.66212 0.0
N1900 N 0.725 0.48524 0.67405 0.0
N1901 N 0.69252 0.52462 0.68783 0.0
C1902 C 0.70036 0.50783 0.70763 0.0
C1903 C 0.71826 0.48676 0.70021 0.0
C1904 C 0.4814 0.24861 0.26318 0.0
C1905 C 0.46961 0.25791 0.23954 0.0
C1906 C 0.50163 0.22922 0.26265 0.0
C1907 C 0.51065 0.21832 0.23839 0.0
H1908 H 0.47393 0.25536 0.28232 0.0
H1909 H 0.51061 0.2232 0.28138 0.0
S1910 S 0.48502 0.23528 0.17101 0.0
N1911 N 0.46739 0.25433 0.19141 0.0
N1912 N 0.50583 0.21812 0.19012 0.0
C1913 C 0.49893 0.22755 0.21458 0.0
C1914 C 0.47841 0.24735 0.21522 0.0
C1915 C 0.68913 0.485 0.25594 0.0
C1916 C 0.69583 0.46811 0.27719 0.0
C1917 C 0.69851 0.5114 0.25526 0.0
C1918 C 0.7146 0.52184 0.27596 0.0
H1919 H 0.67818 0.47727 0.23893 0.0
H1920 H 0.69365 0.52349 0.23801 0.0
S1921 S 0.73463 0.48621 0.33763 0.0
N1922 N 0.71743 0.46391 0.32038 0.0
N1923 N 0.73446 0.51376 0.31952 0.0
C1924 C 0.71979 0.50559 0.29818 0.0
C1925 C 0.71056 0.47864 0.29866 0.0
C1926 C 0.51596 0.74127 0.23618 0.0
C1927 C 0.53259 0.76241 0.24388 0.0
C1928 C 0.49253 0.73594 0.24997 0.0
C1929 C 0.48476 0.75158 0.27197 0.0
H1930 H 0.52144 0.72825 0.21978 0.0
H1931 H 0.4803 0.71936 0.24321 0.0
S1932 S 0.52094 0.80972 0.29986 0.0
N1933 N 0.53976 0.79944 0.2748 0.0
N1934 N 0.49488 0.78942 0.30057 0.0
C1935 C 0.50092 0.77299 0.27984 0.0
C1936 C 0.52496 0.77856 0.26566 0.0
C1937 C 0.21698 0.51391 0.24765 0.0
C1938 C 0.24112 0.52097 0.26016 0.0
C1939 C 0.20338 0.49088 0.25533 0.0
C1940 C 0.21334 0.47488 0.27605 0.0
H1941 H 0.20943 0.52539 0.23094 0.0
H1942 H 0.18658 0.48415 0.24336 0.0
S1943 S 0.27203 0.48878 0.31907 0.0
N1944 N 0.27188 0.51322 0.29697 0.0
N1945 N 0.24581 0.46999 0.31186 0.0
C1946 C 0.23546 0.48371 0.29084 0.0
C1947 C 0.24974 0.50668 0.28256 0.0
C1948 C 0.79692 0.75005 0.5026 0.0
C1949 C 0.78475 0.72665 0.51213 0.0
C1950 C 0.78577 0.7643 0.48129 0.0
C1951 C 0.7615 0.75627 0.46958 0.0
H1952 H 0.81507 0.7575 0.51186 0.0
H1953 H 0.79648 0.78142 0.47353 0.0
S1954 S 0.72129 0.69688 0.48758 0.0
N1955 N 0.74695 0.69623 0.50843 0.0
N1956 N 0.72574 0.72349 0.46865 0.0
C1957 C 0.74889 0.7332 0.47915 0.0
C1958 C 0.76062 0.71823 0.50034 0.0
C1959 C 0.76038 0.23311 0.48829 0.0
C1960 C 0.74132 0.21695 0.47545 0.0
C1961 C 0.76952 0.22681 0.51387 0.0
C1962 C 0.75947 0.20446 0.52742 0.0
H1963 H 0.76819 0.25079 0.4786 0.0
H1964 H 0.78317 0.24048 0.52371 0.0
S1965 S 0.71093 0.15476 0.50179 0.0
N1966 N 0.71416 0.17661 0.47737 0.0
N1967 N 0.73087 0.1653 0.5259 0.0
C1968 C 0.74128 0.18757 0.51442 0.0
C1969 C 0.73227 0.19372 0.48829 0.0
C1970 C 0.19644 0.77094 0.48449 0.0
C1971 C 0.21437 0.75153 0.47491 0.0
C1972 C 0.20251 0.78596 0.50727 0.0
C1973 C 0.22725 0.78287 0.52028 0.0
H1974 H 0.17821 0.77538 0.47356 0.0
H1975 H 0.188 0.80036 0.51452 0.0
S1976 S 0.28034 0.73367 0.50367 0.0
N1977 N 0.25701 0.72895 0.48075 0.0
N1978 N 0.26895 0.75776 0.52315 0.0
C1979 C 0.24504 0.76307 0.51123 0.0
C1980 C 0.23842 0.74719 0.48866 0.0
C1981 C 0.22754 0.19881 0.50451 0.0
C1982 C 0.23265 0.22261 0.51846 0.0
C1983 C 0.23491 0.19631 0.47777 0.0
C1984 C 0.2486 0.21706 0.46495 0.0
H1985 H 0.21711 0.18247 0.51408 0.0
H1986 H 0.22922 0.17848 0.46685 0.0
S1987 S 0.26882 0.28216 0.49359 0.0
N1988 N 0.25335 0.26661 0.51813 0.0
N1989 N 0.26804 0.26138 0.46799 0.0
C1990 C 0.25495 0.24034 0.47904 0.0
C1991 C 0.24675 0.24325 0.50589 0.0
C1992 C 0.14107 0.15118 0.25417 0.0
C1993 C 0.15027 0.13431 0.23317 0.0
C1994 C 0.12043 0.17095 0.24977 0.0
C1995 C 0.1118 0.17685 0.22334 0.0
H1996 H 0.15202 0.15169 0.2728 0.0
H1997 H 0.11619 0.18507 0.26548 0.0
S1998 S 0.11374 0.12583 0.16931 0.0
N1999 N 0.13504 0.11417 0.19176 0.0
N2000 N 0.10164 0.15404 0.18165 0.0
C2001 C 0.11426 0.15488 0.20563 0.0
C2002 C 0.13258 0.13293 0.2112 0.0
C2003 C 0.81797 0.16449 0.27178 0.0
C2004 C 0.83556 0.17801 0.25458 0.0
C2005 C 0.80691 0.13939 0.2647 0.0
C2006 C 0.81306 0.12692 0.24024 0.0
H2007 H 0.81204 0.17378 0.29032 0.0
H2008 H 0.79213 0.13049 0.27757 0.0
S2009 S 0.86715 0.14849 0.19443 0.0
N2010 N 0.86527 0.17279 0.21667 0.0
N2011 N 0.84464 0.1261 0.20341 0.0
C2012 C 0.83462 0.13776 0.22575 0.0
C2013 C 0.84575 0.16326 0.23287 0.0
C2014 C 0.8642 0.78491 0.23296 0.0
C2015 C 0.88479 0.78067 0.25107 0.0
C2016 C 0.84546 0.80528 0.23651 0.0
C2017 C 0.84868 0.82491 0.25626 0.0
H2018 H 0.86188 0.77107 0.21695 0.0
H2019 H 0.82752 0.80413 0.22478 0.0
S2020 S 0.90583 0.82849 0.30354 0.0
N2021 N 0.91088 0.8002 0.28712 0.0
N2022 N 0.8782 0.84192 0.29103 0.0
C2023 C 0.87196 0.82343 0.27221 0.0
C2024 C 0.88976 0.80081 0.27006 0.0
C2025 C 0.18848 0.85958 0.24367 0.0
C2026 C 0.20678 0.86326 0.22278 0.0
C2027 C 0.16924 0.83889 0.24225 0.0
C2028 C 0.16901 0.82086 0.22055 0.0
H2029 H 0.18994 0.87164 0.26153 0.0
H2030 H 0.15619 0.83556 0.25911 0.0
S2031 S 0.1939 0.84022 0.15408 0.0
N2032 N 0.21018 0.85999 0.17478 0.0
N2033 N 0.17592 0.81985 0.17285 0.0
C2034 C 0.18198 0.82939 0.19737 0.0
C2035 C 0.2005 0.8511 0.19841 0.0
C2036 C 0.1007 0.81955 0.75517 0.0
C2037 C 0.10542 0.80466 0.7785 0.0
C2038 C 0.11228 0.84521 0.7514 0.0
C2039 C 0.12741 0.85811 0.7716 0.0
H2040 H 0.0886 0.81107 0.73948 0.0
H2041 H 0.11146 0.85396 0.7317 0.0
S2042 S 0.12386 0.83714 0.84244 0.0
N2043 N 0.11352 0.81056 0.82585 0.0
N2044 N 0.13068 0.8601 0.8198 0.0
C2045 C 0.12472 0.84665 0.79711 0.0
C2046 C 0.11471 0.81976 0.80044 0.0
C2047 C 0.18689 0.12669 0.78218 0.0
C2048 C 0.20375 0.11296 0.76466 0.0
C2049 C 0.16266 0.13762 0.77318 0.0
C2050 C 0.15651 0.13943 0.74578 0.0
H2051 H 0.19211 0.12849 0.80307 0.0
H2052 H 0.14867 0.1443 0.78806 0.0
S2053 S 0.1795 0.08635 0.69995 0.0
N2054 N 0.20196 0.08594 0.7243 0.0
N2055 N 0.15898 0.11161 0.70628 0.0
C2056 C 0.16944 0.12041 0.72966 0.0
C2057 C 0.19282 0.10648 0.73947 0.0
C2058 C 0.84125 0.22264 0.73819 0.0
C2059 C 0.86543 0.21645 0.75174 0.0
C2060 C 0.82047 0.20363 0.73462 0.0
C2061 C 0.82298 0.17739 0.74446 0.0
H2062 H 0.83725 0.24301 0.73244 0.0
H2063 H 0.80159 0.21021 0.72622 0.0
S2064 S 0.88662 0.14834 0.77146 0.0
N2065 N 0.89334 0.18041 0.76796 0.0
N2066 N 0.85555 0.14451 0.76084 0.0
C2067 C 0.84908 0.16989 0.75354 0.0
C2068 C 0.86992 0.18941 0.75741 0.0
C2069 C 0.86881 0.84197 0.75988 0.0
C2070 C 0.88068 0.83629 0.73504 0.0
C2071 C 0.84547 0.85792 0.76208 0.0
C2072 C 0.83501 0.87205 0.7401 0.0
H2073 H 0.87728 0.83377 0.77775 0.0
H2074 H 0.83563 0.85926 0.78126 0.0
S2075 S 0.87474 0.88376 0.6788 0.0
N2076 N 0.88902 0.85718 0.69238 0.0
N2077 N 0.84934 0.89196 0.69833 0.0
C2078 C 0.85185 0.87308 0.71757 0.0
C2079 C 0.87384 0.85443 0.71458 0.0
C2080 C 0.23826 0.12134 0.13952 0.0
C2081 C 0.2536 0.11565 0.1626 0.0
C2082 C 0.24742 0.13958 0.1197 0.0
C2083 C 0.27082 0.15527 0.12387 0.0
H2084 H 0.21822 0.11327 0.13768 0.0
H2085 H 0.23363 0.14498 0.10389 0.0
S2086 S 0.3269 0.12726 0.16272 0.0
N2087 N 0.30037 0.11196 0.17519 0.0
N2088 N 0.31545 0.14968 0.14139 0.0
C2089 C 0.28884 0.14458 0.14263 0.0
C2090 C 0.28051 0.12424 0.16138 0.0
C2091 C 0.82722 0.2489 0.17679 0.0
C2092 C 0.82165 0.27509 0.16906 0.0
C2093 C 0.84763 0.24313 0.19525 0.0
C2094 C 0.86266 0.26363 0.20694 0.0
H2095 H 0.81474 0.23308 0.16912 0.0
H2096 H 0.85045 0.22273 0.20176 0.0
S2097 S 0.86674 0.33271 0.18066 0.0
N2098 N 0.84027 0.31984 0.16543 0.0
N2099 N 0.87845 0.30918 0.20074 0.0
C2100 C 0.86106 0.2891 0.19514 0.0
C2101 C 0.84042 0.29487 0.17597 0.0
C2102 C 0.79996 0.83752 0.18969 0.0
C2103 C 0.7858 0.86128 0.18724 0.0
C2104 C 0.79114 0.81399 0.17747 0.0
C2105 C 0.7701 0.81402 0.15889 0.0
H2106 H 0.81702 0.8373 0.20267 0.0
H2107 H 0.80042 0.7957 0.18355 0.0
S2108 S 0.73268 0.87463 0.13741 0.0
N2109 N 0.75248 0.88556 0.16156 0.0
N2110 N 0.7391 0.84234 0.134 0.0
C2111 C 0.75843 0.83911 0.15281 0.0
C2112 C 0.76573 0.86266 0.16766 0.0
C2113 C 0.13997 0.71966 0.15388 0.0
C2114 C 0.13473 0.74649 0.16041 0.0
C2115 C 0.16377 0.71267 0.14025 0.0
C2116 C 0.18195 0.73261 0.13253 0.0
H2117 H 0.12698 0.70406 0.16126 0.0
H2118 H 0.16867 0.69184 0.13718 0.0
S2119 S 0.15779 0.80054 0.11606 0.0
N2120 N 0.13678 0.79002 0.13923 0.0
N2121 N 0.18057 0.77678 0.11249 0.0
C2122 C 0.17114 0.75846 0.13001 0.0
C2123 C 0.14736 0.76555 0.14429 0.0
C2124 C 0.25305 0.85354 0.83456 0.0
C2125 C 0.2602 0.86315 0.80924 0.0
C2126 C 0.26311 0.82869 0.84398 0.0
C2127 C 0.28213 0.81388 0.82923 0.0
H2128 H 0.2382 0.86406 0.84608 0.0
H2129 H 0.25469 0.82033 0.86199 0.0
S2130 S 0.3262 0.84842 0.7803 0.0
N2131 N 0.29805 0.86578 0.77961 0.0
N2132 N 0.32177 0.82475 0.80275 0.0
C2133 C 0.29618 0.82951 0.81027 0.0
C2134 C 0.2839 0.85274 0.79863 0.0
C2135 C 0.11578 0.2203 0.82602 0.0
C2136 C 0.10427 0.23528 0.80499 0.0
C2137 C 0.13823 0.2299 0.84051 0.0
C2138 C 0.14977 0.25498 0.83486 0.0
H2139 H 0.10957 0.19982 0.82925 0.0
H2140 H 0.14782 0.21674 0.85476 0.0
S2141 S 0.11341 0.30841 0.79879 0.0
N2142 N 0.09723 0.28086 0.79023 0.0
N2143 N 0.13874 0.29897 0.81788 0.0
C2144 C 0.13435 0.27225 0.81883 0.0
C2145 C 0.11172 0.26239 0.80383 0.0
C2146 C 0.77706 0.16921 0.83927 0.0
C2147 C 0.75681 0.15501 0.82582 0.0
C2148 C 0.77246 0.19561 0.848 0.0
C2149 C 0.74638 0.20582 0.84896 0.0
H2150 H 0.79698 0.1609 0.84116 0.0
H2151 H 0.78921 0.2077 0.85447 0.0
S2152 S 0.69066 0.15797 0.85799 0.0
N2153 N 0.71235 0.14144 0.83918 0.0
N2154 N 0.70263 0.1886 0.86151 0.0
C2155 C 0.726 0.18622 0.84794 0.0
C2156 C 0.73113 0.16066 0.83559 0.0
C2157 C 0.82397 0.73131 0.83099 0.0
C2158 C 0.8001 0.72338 0.8177 0.0
C2159 C 0.8494 0.73075 0.81815 0.0
C2160 C 0.85224 0.72182 0.79157 0.0
H2161 H 0.82279 0.74021 0.85064 0.0
H2162 H 0.86641 0.73941 0.82841 0.0
S2163 S 0.79946 0.6856 0.75563 0.0
N2164 N 0.78334 0.69709 0.78159 0.0
N2165 N 0.83072 0.69568 0.75733 0.0
C2166 C 0.82957 0.70923 0.78057 0.0
C2167 C 0.80375 0.71005 0.79361 0.0
C2168 C 0.14878 0.23998 0.12417 0.0
C2169 C 0.14753 0.26262 0.14114 0.0
C2170 C 0.17194 0.23416 0.10846 0.0
C2171 C 0.19455 0.25118 0.10832 0.0
H2172 H 0.13338 0.22482 0.12548 0.0
H2173 H 0.17307 0.21494 0.09855 0.0
S2174 S 0.1854 0.32327 0.12356 0.0
N2175 N 0.1617 0.30867 0.14118 0.0
N2176 N 0.20283 0.29899 0.10923 0.0
C2177 C 0.18921 0.27731 0.11792 0.0
C2178 C 0.16629 0.28273 0.13501 0.0
C2179 C 0.2135 0.71204 0.83761 0.0
C2180 C 0.22075 0.73261 0.8549 0.0
C2181 C 0.19217 0.71495 0.81907 0.0
C2182 C 0.17576 0.73777 0.81914 0.0
H2183 H 0.22249 0.69293 0.84093 0.0
H2184 H 0.18693 0.69858 0.80607 0.0
S2185 S 0.1681 0.77876 0.88035 0.0
N2186 N 0.19762 0.76412 0.88423 0.0
N2187 N 0.15652 0.76907 0.85098 0.0
C2188 C 0.17651 0.75241 0.84322 0.0
C2189 C 0.19886 0.74951 0.86146 0.0
C2190 C 0.2178 0.19912 0.85446 0.0
C2191 C 0.23539 0.21094 0.87268 0.0
C2192 C 0.22657 0.17896 0.8369 0.0
C2193 C 0.25249 0.16867 0.83805 0.0
H2194 H 0.19755 0.20663 0.85294 0.0
H2195 H 0.21356 0.17134 0.82162 0.0
S2196 S 0.30155 0.18295 0.89177 0.0
N2197 N 0.27716 0.2048 0.89698 0.0
N2198 N 0.2928 0.16537 0.86517 0.0
C2199 C 0.26865 0.17659 0.85969 0.0
C2200 C 0.26015 0.19802 0.87696 0.0
C2201 C 0.81305 0.30772 0.88751 0.0
C2202 C 0.80143 0.28222 0.88996 0.0
C2203 C 0.83894 0.31118 0.87633 0.0
C2204 C 0.8551 0.28921 0.86836 0.0
H2205 H 0.80189 0.32516 0.89372 0.0
H2206 H 0.8451 0.33126 0.87114 0.0
S2207 S 0.84104 0.21936 0.88895 0.0
N2208 N 0.81265 0.23525 0.89479 0.0
N2209 N 0.86191 0.24208 0.87729 0.0
C2210 C 0.84619 0.26416 0.87763 0.0
C2211 C 0.81933 0.26051 0.8875 0.0
C2212 C 0.77523 0.82452 0.81084 0.0
C2213 C 0.75416 0.83489 0.79565 0.0
C2214 C 0.77008 0.80977 0.83436 0.0
C2215 C 0.74397 0.80314 0.84188 0.0
H2216 H 0.79556 0.82905 0.80511 0.0
H2217 H 0.78619 0.80388 0.84738 0.0
S2218 S 0.69136 0.85395 0.83053 0.0
N2219 N 0.71209 0.85792 0.80517 0.0
N2220 N 0.70249 0.82782 0.84756 0.0
C2221 C 0.72461 0.8216 0.83315 0.0
C2222 C 0.72997 0.83804 0.81014 0.0
C2223 C 0.81997 0.75505 0.1522 0.0
C2224 C 0.81723 0.73568 0.13247 0.0
C2225 C 0.83104 0.74903 0.17712 0.0
C2226 C 0.84372 0.72448 0.18192 0.0
H2227 H 0.81244 0.77471 0.1483 0.0
H2228 H 0.82889 0.7635 0.19275 0.0
S2229 S 0.85331 0.67094 0.13136 0.0
N2230 N 0.83359 0.69289 0.11632 0.0
N2231 N 0.85965 0.68322 0.16136 0.0
C2232 C 0.8458 0.70657 0.16015 0.0
C2233 C 0.83175 0.71182 0.13563 0.0
C2234 C 0.23972 0.78802 0.14191 0.0
C2235 C 0.25975 0.78609 0.12233 0.0
C2236 C 0.24304 0.80371 0.16489 0.0
C2237 C 0.26553 0.81994 0.16844 0.0
H2238 H 0.22227 0.77577 0.14094 0.0
H2239 H 0.22842 0.802 0.18067 0.0
S2240 S 0.32144 0.82705 0.1203 0.0
N2241 N 0.30179 0.80428 0.10656 0.0
N2242 N 0.30668 0.83624 0.14831 0.0
C2243 C 0.28433 0.82083 0.14746 0.0
C2244 C 0.28166 0.80353 0.12467 0.0
C2245 C 0.72287 0.17713 0.13285 0.0
C2246 C 0.74385 0.16207 0.14359 0.0
C2247 C 0.72796 0.2018 0.12008 0.0
C2248 C 0.75376 0.21301 0.1202 0.0
H2249 H 0.70268 0.16968 0.13445 0.0
H2250 H 0.71163 0.21256 0.11096 0.0
S2251 S 0.81517 0.17169 0.12444 0.0
N2252 N 0.79109 0.152 0.13545 0.0
N2253 N 0.80078 0.20077 0.11811 0.0
C2254 C 0.77499 0.19512 0.12455 0.0
C2255 C 0.76984 0.16896 0.13479 0.0
C2256 C 0.66761 0.67892 0.70941 0.0
C2257 C 0.66164 0.66422 0.73201 0.0
C2258 C 0.65124 0.70007 0.70057 0.0
C2259 C 0.62854 0.70802 0.71475 0.0
H2260 H 0.68534 0.67316 0.69888 0.0
H2261 H 0.65673 0.71104 0.68302 0.0
S2262 S 0.59763 0.66867 0.76918 0.0
N2263 N 0.62667 0.65354 0.76394 0.0
N2264 N 0.59626 0.69414 0.74818 0.0
C2265 C 0.61994 0.69094 0.73536 0.0
C2266 C 0.63649 0.66883 0.74393 0.0
C2267 C 0.32179 0.64235 0.68431 0.0
C2268 C 0.31425 0.62288 0.70281 0.0
C2269 C 0.34403 0.65894 0.68891 0.0
C2270 C 0.35809 0.65887 0.71339 0.0
H2271 H 0.31025 0.64498 0.6662 0.0
H2272 H 0.34985 0.67178 0.67296 0.0
S2273 S 0.35774 0.60034 0.7585 0.0
N2274 N 0.33132 0.59551 0.7391 0.0
N2275 N 0.37064 0.62951 0.74981 0.0
C2276 C 0.35389 0.6363 0.72958 0.0
C2277 C 0.33243 0.61782 0.7238 0.0
C2278 C 0.32187 0.30603 0.71897 0.0
C2279 C 0.34175 0.31245 0.73724 0.0
C2280 C 0.29603 0.31649 0.72116 0.0
C2281 C 0.28996 0.33714 0.7391 0.0
H2282 H 0.32629 0.29149 0.70395 0.0
H2283 H 0.28058 0.30716 0.70963 0.0
S2284 S 0.33897 0.36884 0.78509 0.0
N2285 N 0.35594 0.34398 0.77131 0.0
N2286 N 0.30865 0.36817 0.77168 0.0
C2287 C 0.31133 0.34718 0.7547 0.0
C2288 C 0.33708 0.33416 0.75444 0.0
C2289 C 0.68986 0.30962 0.71356 0.0
C2290 C 0.67134 0.31068 0.73434 0.0
C2291 C 0.70495 0.33198 0.70642 0.0
C2292 C 0.70347 0.35544 0.72153 0.0
H2293 H 0.69432 0.29073 0.70417 0.0
H2294 H 0.71962 0.32993 0.69074 0.0
S2295 S 0.65492 0.37021 0.77518 0.0
N2296 N 0.64886 0.33875 0.767 0.0
N2297 N 0.67965 0.38018 0.75576 0.0
C2298 C 0.68373 0.35761 0.74125 0.0
C2299 C 0.66717 0.33522 0.74735 0.0
C2300 C 0.64882 0.29708 0.26457 0.0
C2301 C 0.6488 0.31925 0.24742 0.0
C2302 C 0.62817 0.27836 0.26436 0.0
C2303 C 0.60902 0.27794 0.24433 0.0
H2304 H 0.66562 0.29282 0.27721 0.0
H2305 H 0.62792 0.26276 0.27879 0.0
S2306 S 0.59593 0.3335 0.19723 0.0
N2307 N 0.62336 0.34289 0.2133 0.0
N2308 N 0.58753 0.30394 0.20938 0.0
C2309 C 0.60709 0.30069 0.2279 0.0
C2310 C 0.62665 0.32184 0.23001 0.0
C2311 C 0.68939 0.66743 0.26694 0.0
C2312 C 0.68727 0.64685 0.24815 0.0
C2313 C 0.68003 0.69335 0.26144 0.0
C2314 C 0.6657 0.69876 0.23801 0.0
H2315 H 0.69895 0.66332 0.2857 0.0
H2316 H 0.68409 0.70928 0.27547 0.0
S2317 S 0.64273 0.64781 0.18912 0.0
N2318 N 0.66321 0.63119 0.20909 0.0
N2319 N 0.64215 0.67896 0.20023 0.0
C2320 C 0.65879 0.67685 0.22158 0.0
C2321 C 0.67014 0.65093 0.22636 0.0
C2322 C 0.36203 0.65072 0.23431 0.0
C2323 C 0.34721 0.63436 0.25152 0.0
C2324 C 0.3809 0.66894 0.24441 0.0
C2325 C 0.38423 0.67276 0.27195 0.0
H2326 H 0.35775 0.65071 0.21314 0.0
H2327 H 0.39187 0.68122 0.23062 0.0
S2328 S 0.35558 0.6304 0.32493 0.0
N2329 N 0.34195 0.61884 0.29717 0.0
N2330 N 0.37568 0.65495 0.31595 0.0
C2331 C 0.37229 0.65427 0.28911 0.0
C2332 C 0.35407 0.63465 0.27884 0.0
C2333 C 0.30866 0.33231 0.26746 0.0
C2334 C 0.32786 0.33287 0.24699 0.0
C2335 C 0.29191 0.35402 0.27291 0.0
C2336 C 0.29021 0.37568 0.25572 0.0
H2337 H 0.30454 0.31436 0.27813 0.0
H2338 H 0.27839 0.35303 0.28945 0.0
S2339 S 0.33913 0.39091 0.20239 0.0
N2340 N 0.34833 0.36098 0.21313 0.0
N2341 N 0.31266 0.39975 0.22017 0.0
C2342 C 0.31051 0.3782 0.23639 0.0
C2343 C 0.32989 0.35701 0.23253 0.0
C2344 C 0.72275 0.62907 0.6673 0.0
C2345 C 0.73769 0.61263 0.6847 0.0
C2346 C 0.73479 0.64278 0.64569 0.0
C2347 C 0.7629 0.64281 0.64153 0.0
H2348 H 0.7015 0.63182 0.67068 0.0
H2349 H 0.72177 0.6543 0.63286 0.0
S2350 S 0.80721 0.59034 0.67004 0.0
N2351 N 0.77924 0.5873 0.68739 0.0
N2352 N 0.80254 0.6157 0.64938 0.0
C2353 C 0.77695 0.62254 0.65542 0.0
C2354 C 0.76426 0.60715 0.67648 0.0
C2355 C 0.355 0.77486 0.64606 0.0
C2356 C 0.36108 0.78234 0.67257 0.0
C2357 C 0.32966 0.78039 0.63445 0.0
C2358 C 0.30926 0.79368 0.64883 0.0
H2359 H 0.36876 0.7622 0.63512 0.0
H2360 H 0.32519 0.77188 0.61509 0.0
S2361 S 0.31978 0.82905 0.71293 0.0
N2362 N 0.34769 0.8117 0.70886 0.0
N2363 N 0.30061 0.82228 0.6869 0.0
C2364 C 0.31689 0.80544 0.67319 0.0
C2365 C 0.34264 0.79976 0.68506 0.0
C2366 C 0.2437 0.33016 0.67589 0.0
C2367 C 0.22336 0.3483 0.67054 0.0
C2368 C 0.24185 0.3035 0.66779 0.0
C2369 C 0.22167 0.29492 0.65027 0.0
H2370 H 0.26003 0.33669 0.68805 0.0
H2371 H 0.2553 0.28939 0.67674 0.0
S2372 S 0.17009 0.33924 0.61996 0.0
N2373 N 0.18556 0.35863 0.64182 0.0
N2374 N 0.1851 0.30975 0.62143 0.0
C2375 C 0.20415 0.31478 0.64012 0.0
C2376 C 0.20443 0.34139 0.65102 0.0
C2377 C 0.68326 0.211 0.6618 0.0
C2378 C 0.70054 0.23316 0.65875 0.0
C2379 C 0.65769 0.21396 0.67355 0.0
C2380 C 0.64851 0.23926 0.68162 0.0
H2381 H 0.69024 0.19112 0.6568 0.0
H2382 H 0.6459 0.19634 0.6778 0.0
S2383 S 0.67437 0.30216 0.65321 0.0
N2384 N 0.69922 0.28059 0.64905 0.0
N2385 N 0.65062 0.28598 0.66926 0.0
C2386 C 0.66199 0.26138 0.67102 0.0
C2387 C 0.68835 0.25843 0.66007 0.0
C2388 C 0.69543 0.32076 0.31391 0.0
C2389 C 0.71251 0.34212 0.31839 0.0
C2390 C 0.70163 0.29516 0.32319 0.0
C2391 C 0.72308 0.29053 0.34067 0.0
H2392 H 0.67803 0.32404 0.30177 0.0
H2393 H 0.69032 0.27892 0.31536 0.0
S2394 S 0.76771 0.34343 0.36772 0.0
N2395 N 0.74895 0.35925 0.34553 0.0
N2396 N 0.75764 0.31194 0.36763 0.0
C2397 C 0.73774 0.31317 0.34919 0.0
C2398 C 0.733 0.3389 0.33731 0.0
C2399 C 0.65277 0.79861 0.30528 0.0
C2400 C 0.6442 0.77386 0.29502 0.0
C2401 C 0.67426 0.79988 0.32362 0.0
C2402 C 0.68641 0.77637 0.33304 0.0
H2403 H 0.64417 0.81698 0.29772 0.0
H2404 H 0.68216 0.81916 0.32945 0.0
S2405 S 0.65635 0.70875 0.32805 0.0
N2406 N 0.64041 0.72654 0.30526 0.0
N2407 N 0.67766 0.72948 0.34245 0.0
C2408 C 0.67263 0.75226 0.32864 0.0
C2409 C 0.65201 0.75083 0.30898 0.0
C2410 C 0.22134 0.67175 0.31744 0.0
C2411 C 0.23912 0.6808 0.33735 0.0
C2412 C 0.22772 0.6493 0.30145 0.0
C2413 C 0.25216 0.63548 0.30393 0.0
H2414 H 0.20323 0.68293 0.31322 0.0
H2415 H 0.21348 0.64257 0.28705 0.0
S2416 S 0.29576 0.64028 0.36333 0.0
N2417 N 0.27525 0.66609 0.36639 0.0
N2418 N 0.28776 0.62531 0.3351 0.0
C2419 C 0.267 0.64088 0.3271 0.0
C2420 C 0.26023 0.66318 0.34406 0.0
C2421 C 0.30797 0.26562 0.31155 0.0
C2422 C 0.30441 0.2417 0.32554 0.0
C2423 C 0.33295 0.27312 0.30156 0.0
C2424 C 0.35428 0.25543 0.30115 0.0
H2425 H 0.29113 0.27781 0.30671 0.0
H2426 H 0.33567 0.2919 0.29189 0.0
S2427 S 0.35869 0.1928 0.34003 0.0
N2428 N 0.32753 0.20314 0.34458 0.0
N2429 N 0.37295 0.21484 0.32006 0.0
C2430 C 0.35235 0.23224 0.31668 0.0
C2431 C 0.32758 0.22585 0.32981 0.0
C2432 C 0.72245 0.76767 0.62104 0.0
C2433 C 0.72172 0.74175 0.61002 0.0
C2434 C 0.70257 0.77679 0.63915 0.0
C2435 C 0.68086 0.76044 0.64646 0.0
H2436 H 0.73909 0.78052 0.61647 0.0
H2437 H 0.70467 0.79633 0.64815 0.0
S2438 S 0.66277 0.69675 0.61274 0.0
N2439 N 0.69263 0.70399 0.60066 0.0
N2440 N 0.65495 0.72146 0.63319 0.0
C2441 C 0.67696 0.73718 0.63087 0.0
C2442 C 0.6974 0.72777 0.61288 0.0
C2443 C 0.6668 0.23792 0.34218 0.0
C2444 C 0.66692 0.21639 0.35969 0.0
C2445 C 0.65619 0.23571 0.31634 0.0
C2446 C 0.64158 0.21321 0.30821 0.0
H2447 H 0.6765 0.25595 0.34839 0.0
H2448 H 0.66063 0.25115 0.30231 0.0
S2449 S 0.62374 0.15659 0.35269 0.0
N2450 N 0.645 0.17452 0.37064 0.0
N2451 N 0.62016 0.17237 0.32394 0.0
C2452 C 0.6363 0.19381 0.32806 0.0
C2453 C 0.6497 0.19499 0.35358 0.0
C2454 C 0.73501 0.6911 0.31172 0.0
C2455 C 0.74988 0.66754 0.31377 0.0
C2456 C 0.73319 0.70901 0.33278 0.0
C2457 C 0.74716 0.7051 0.35659 0.0
H2458 H 0.72661 0.69721 0.29288 0.0
H2459 H 0.72368 0.72763 0.32866 0.0
S2460 S 0.78623 0.64462 0.37418 0.0
N2461 N 0.77609 0.63899 0.34327 0.0
N2462 N 0.77408 0.67421 0.38268 0.0
C2463 C 0.76064 0.68066 0.36004 0.0
C2464 C 0.76176 0.66161 0.33862 0.0
C2465 C 0.31018 0.77592 0.37278 0.0
C2466 C 0.29793 0.7516 0.37986 0.0
C2467 C 0.33346 0.77656 0.35647 0.0
C2468 C 0.34689 0.75293 0.34913 0.0
H2469 H 0.30149 0.79442 0.37958 0.0
H2470 H 0.34088 0.79551 0.34932 0.0
S2471 S 0.33714 0.68847 0.3838 0.0
N2472 N 0.31011 0.70595 0.3916 0.0
N2473 N 0.35519 0.70763 0.36408 0.0
C2474 C 0.3397 0.72995 0.36351 0.0
C2475 C 0.31508 0.72909 0.37848 0.0
C2476 C 0.25594 0.29757 0.34235 0.0
C2477 C 0.23479 0.29333 0.35993 0.0
C2478 C 0.25296 0.31367 0.3196 0.0
C2479 C 0.22987 0.32893 0.31523 0.0
H2480 H 0.27456 0.28739 0.34597 0.0
H2481 H 0.26868 0.31406 0.30521 0.0
S2482 S 0.17449 0.3364 0.36416 0.0
N2483 N 0.19313 0.31201 0.37659 0.0
N2484 N 0.18928 0.346 0.33631 0.0
C2485 C 0.2109 0.32949 0.3362 0.0
C2486 C 0.21298 0.31108 0.35819 0.0
C2487 C 0.3014 0.25459 0.67354 0.0
C2488 C 0.32284 0.23726 0.67903 0.0
C2489 C 0.28735 0.25337 0.64942 0.0
C2490 C 0.29077 0.23238 0.63167 0.0
H2491 H 0.29447 0.26849 0.68827 0.0
H2492 H 0.27256 0.26805 0.64481 0.0
S2493 S 0.34853 0.18575 0.63214 0.0
N2494 N 0.35176 0.20276 0.66028 0.0
N2495 N 0.32104 0.19707 0.61745 0.0
C2496 C 0.3135 0.21609 0.63523 0.0
C2497 C 0.33013 0.21915 0.6586 0.0
C2498 C 0.80132 0.29551 0.63444 0.0
C2499 C 0.77746 0.28544 0.62336 0.0
C2500 C 0.8009 0.31869 0.65069 0.0
C2501 C 0.77665 0.33204 0.65607 0.0
H2502 H 0.81986 0.28456 0.63208 0.0
H2503 H 0.81907 0.32484 0.66076 0.0
S2504 S 0.71795 0.32857 0.61137 0.0
N2505 N 0.73507 0.30105 0.60465 0.0
N2506 N 0.73413 0.34365 0.63589 0.0
C2507 C 0.75528 0.32681 0.63879 0.0
C2508 C 0.7558 0.30363 0.62203 0.0
C2509 C 0.26526 0.68989 0.64465 0.0
C2510 C 0.24253 0.67654 0.65412 0.0
C2511 C 0.26282 0.71147 0.62671 0.0
C2512 C 0.23769 0.72246 0.62033 0.0
H2513 H 0.28494 0.68375 0.65128 0.0
H2514 H 0.2808 0.72092 0.61928 0.0
S2515 S 0.17403 0.68509 0.62641 0.0
N2516 N 0.19532 0.6681 0.64523 0.0
N2517 N 0.19079 0.71097 0.61456 0.0
C2518 C 0.21528 0.70628 0.62539 0.0
C2519 C 0.2178 0.68295 0.64195 0.0
C2520 C 0.13162 0.35303 0.25834 0.0
C2521 C 0.14641 0.3654 0.23811 0.0
C2522 C 0.11235 0.33331 0.25229 0.0
C2523 C 0.1068 0.32534 0.22573 0.0
H2524 H 0.13711 0.35633 0.27898 0.0
H2525 H 0.1036 0.32238 0.26873 0.0
S2526 S 0.13287 0.35915 0.16557 0.0
N2527 N 0.14915 0.37341 0.19048 0.0
N2528 N 0.11278 0.3368 0.17915 0.0
C2529 C 0.11828 0.34072 0.20538 0.0
C2530 C 0.13812 0.36061 0.21158 0.0
C2531 C 0.66086 0.11706 0.18348 0.0
C2532 C 0.67079 0.09956 0.20315 0.0
C2533 C 0.63897 0.13444 0.18866 0.0
C2534 C 0.62645 0.13604 0.21394 0.0
H2535 H 0.67183 0.11956 0.16506 0.0
H2536 H 0.63342 0.1487 0.17349 0.0
S2537 S 0.63845 0.08794 0.26866 0.0
N2538 N 0.66147 0.08008 0.24638 0.0
N2539 N 0.6213 0.11329 0.25614 0.0
C2540 C 0.63353 0.11594 0.23218 0.0
C2541 C 0.65549 0.09781 0.2268 0.0
C2542 C 0.8347 0.61165 0.27882 0.0
C2543 C 0.82369 0.60188 0.25487 0.0
C2544 C 0.85745 0.62839 0.27875 0.0
C2545 C 0.86987 0.63644 0.25477 0.0
H2546 H 0.82349 0.60978 0.29718 0.0
H2547 H 0.86314 0.63798 0.29724 0.0
S2548 S 0.85497 0.60849 0.18815 0.0
N2549 N 0.83182 0.59531 0.2076 0.0
N2550 N 0.87384 0.62737 0.20759 0.0
C2551 C 0.86211 0.6229 0.23154 0.0
C2552 C 0.8392 0.6055 0.23161 0.0
C2553 C 0.38077 0.82013 0.2304 0.0
C2554 C 0.38731 0.81528 0.25738 0.0
C2555 C 0.3621 0.83989 0.22315 0.0
C2556 C 0.35003 0.85614 0.24251 0.0
H2557 H 0.38728 0.80612 0.21526 0.0
H2558 H 0.35455 0.84003 0.20288 0.0
S2559 S 0.36995 0.85972 0.31381 0.0
N2560 N 0.38667 0.83369 0.30212 0.0
N2561 N 0.35275 0.87189 0.28834 0.0
C2562 C 0.36066 0.85508 0.2686 0.0
C2563 C 0.37925 0.8345 0.27608 0.0
C2564 C 0.14889 0.6459 0.76789 0.0
C2565 C 0.13104 0.65974 0.75121 0.0
C2566 C 0.16779 0.6278 0.7573 0.0
C2567 C 0.17049 0.62355 0.72953 0.0
H2568 H 0.15037 0.65128 0.78876 0.0
H2569 H 0.1827 0.61972 0.77069 0.0
S2570 S 0.12299 0.64792 0.67838 0.0
N2571 N 0.11252 0.66199 0.70633 0.0
N2572 N 0.1495 0.62984 0.68651 0.0
C2573 C 0.15037 0.63419 0.71321 0.0
C2574 C 0.13047 0.65197 0.72404 0.0
C2575 C 0.37191 0.17147 0.7937 0.0
C2576 C 0.38017 0.17698 0.76732 0.0
C2577 C 0.35625 0.14889 0.79974 0.0
C2578 C 0.34863 0.13075 0.77971 0.0
H2579 H 0.37384 0.18678 0.80886 0.0
H2580 H 0.3466 0.14812 0.81905 0.0
S2581 S 0.37464 0.13023 0.71049 0.0
N2582 N 0.38626 0.15841 0.72319 0.0
N2583 N 0.35777 0.1155 0.73465 0.0
C2584 C 0.36163 0.13316 0.75485 0.0
C2585 C 0.37723 0.1564 0.7486 0.0
C2586 C 0.85905 0.36945 0.71812 0.0
C2587 C 0.8439 0.38909 0.73162 0.0
C2588 C 0.87575 0.35149 0.73212 0.0
C2589 C 0.87816 0.3527 0.76005 0.0
H2590 H 0.85432 0.36479 0.69753 0.0
H2591 H 0.88405 0.33457 0.72147 0.0
S2592 S 0.85358 0.40821 0.8024 0.0
N2593 N 0.84132 0.41496 0.77252 0.0
N2594 N 0.87091 0.38018 0.7992 0.0
C2595 C 0.86772 0.37546 0.77273 0.0
C2596 C 0.85148 0.39424 0.75824 0.0
C2597 C 0.68393 0.87562 0.69189 0.0
C2598 C 0.68896 0.88583 0.71783 0.0
C2599 C 0.66132 0.85978 0.68593 0.0
C2600 C 0.64255 0.85314 0.70563 0.0
H2601 H 0.69926 0.87686 0.67677 0.0
H2602 H 0.66079 0.84948 0.66691 0.0
S2603 S 0.64163 0.88131 0.77424 0.0
N2604 N 0.66983 0.89285 0.76155 0.0
N2605 N 0.62726 0.86345 0.75043 0.0
C2606 C 0.64506 0.86676 0.7303 0.0
C2607 C 0.66825 0.88287 0.73643 0.0
C2608 C 0.2602 0.13793 0.34091 0.0
C2609 C 0.23657 0.14932 0.35109 0.0
C2610 C 0.25941 0.11903 0.31993 0.0
C2611 C 0.23501 0.11104 0.30788 0.0
H2612 H 0.27942 0.14612 0.34674 0.0
H2613 H 0.27817 0.11333 0.3107 0.0
S2614 S 0.16739 0.13027 0.33123 0.0
N2615 N 0.18796 0.14694 0.35098 0.0
N2616 N 0.18668 0.11256 0.31113 0.0
C2617 C 0.21133 0.11936 0.32042 0.0
C2618 C 0.2121 0.13829 0.342 0.0
C2619 C 0.84752 0.25166 0.36263 0.0
C2620 C 0.85964 0.23136 0.34701 0.0
C2621 C 0.82357 0.24716 0.37692 0.0
C2622 C 0.81106 0.222 0.37656 0.0
H2623 H 0.85418 0.27214 0.36046 0.0
H2624 H 0.81317 0.2642 0.38537 0.0
S2625 S 0.83831 0.16057 0.3449 0.0
N2626 N 0.86 0.18407 0.33682 0.0
N2627 N 0.8156 0.17536 0.36373 0.0
C2628 C 0.82527 0.20072 0.36457 0.0
C2629 C 0.84958 0.20537 0.3501 0.0
C2630 C 0.80753 0.86917 0.33974 0.0
C2631 C 0.78667 0.88391 0.32788 0.0
C2632 C 0.80239 0.8513 0.36093 0.0
C2633 C 0.77609 0.84678 0.37052 0.0
H2634 H 0.82709 0.86866 0.33045 0.0
H2635 H 0.81833 0.83779 0.36677 0.0
S2636 S 0.71686 0.88774 0.35317 0.0
N2637 N 0.74052 0.89869 0.33296 0.0
N2638 N 0.73088 0.86415 0.37152 0.0
C2639 C 0.75635 0.86488 0.36214 0.0
C2640 C 0.7616 0.88347 0.34096 0.0
C2641 C 0.14459 0.72722 0.33926 0.0
C2642 C 0.15059 0.74931 0.35554 0.0
C2643 C 0.13031 0.73019 0.31517 0.0
C2644 C 0.12096 0.75537 0.30609 0.0
H2645 H 0.15435 0.70822 0.34306 0.0
H2646 H 0.12955 0.71302 0.30207 0.0
S2647 S 0.12455 0.81822 0.34498 0.0
N2648 N 0.14075 0.79624 0.36361 0.0
N2649 N 0.11418 0.80173 0.31831 0.0
C2650 C 0.1233 0.7768 0.32403 0.0
C2651 C 0.13789 0.77374 0.34873 0.0
C2652 C 0.24422 0.8779 0.6498 0.0
C2653 C 0.22375 0.86819 0.63298 0.0
C2654 C 0.23829 0.89135 0.67382 0.0
C2655 C 0.21166 0.89611 0.68189 0.0
H2656 H 0.26465 0.87119 0.64674 0.0
H2657 H 0.25451 0.89472 0.68782 0.0
S2658 S 0.1514 0.88314 0.64066 0.0
N2659 N 0.17633 0.87097 0.62273 0.0
N2660 N 0.16513 0.89554 0.66802 0.0
C2661 C 0.19143 0.89067 0.66313 0.0
C2662 C 0.19755 0.87719 0.63852 0.0
C2663 C 0.13159 0.22404 0.63157 0.0
C2664 C 0.1484 0.20294 0.62359 0.0
C2665 C 0.11044 0.21996 0.64981 0.0
C2666 C 0.10518 0.19463 0.66137 0.0
H2667 H 0.13671 0.24439 0.62626 0.0
H2668 H 0.10008 0.23751 0.65723 0.0
S2669 S 0.1386 0.1315 0.64147 0.0
N2670 N 0.15448 0.15474 0.62427 0.0
N2671 N 0.11549 0.14731 0.65901 0.0
C2672 C 0.1195 0.17284 0.65082 0.0
C2673 C 0.14091 0.17698 0.63197 0.0
C2674 C 0.79604 0.11542 0.68188 0.0
C2675 C 0.77178 0.10326 0.68894 0.0
C2676 C 0.79694 0.13423 0.66118 0.0
C2677 C 0.77398 0.14065 0.64591 0.0
H2678 H 0.813 0.11443 0.6954 0.0
H2679 H 0.81485 0.14612 0.65967 0.0
S2680 S 0.70992 0.10382 0.6478 0.0
N2681 N 0.7273 0.0915 0.6731 0.0
N2682 N 0.72925 0.12649 0.63366 0.0
C2683 C 0.75158 0.12415 0.64897 0.0
C2684 C 0.75056 0.10521 0.67039 0.0
C2685 C 0.87873 0.73994 0.62048 0.0
C2686 C 0.8661 0.71461 0.61982 0.0
C2687 C 0.89731 0.74721 0.64071 0.0
C2688 C 0.9045 0.7296 0.66157 0.0
H2689 H 0.87129 0.75565 0.60757 0.0
H2690 H 0.90288 0.76809 0.64224 0.0
S2691 S 0.88257 0.65889 0.66566 0.0
N2692 N 0.86631 0.67042 0.63936 0.0
N2693 N 0.90114 0.68382 0.67682 0.0
C2694 C 0.89527 0.70304 0.65864 0.0
C2695 C 0.87615 0.69566 0.6381 0.0
C2696 C 0.34924 0.27865 0.12046 0.0
C2697 C 0.34192 0.25255 0.11205 0.0
C2698 C 0.36565 0.28309 0.14309 0.0
C2699 C 0.37606 0.26164 0.15797 0.0
H2700 H 0.33884 0.29574 0.11209 0.0
H2701 H 0.367 0.30322 0.15098 0.0
S2702 S 0.36956 0.18987 0.14017 0.0
N2703 N 0.35115 0.20533 0.11752 0.0
N2704 N 0.38271 0.2136 0.15896 0.0
C2705 C 0.37273 0.23581 0.14695 0.0
C2706 C 0.35564 0.23126 0.12423 0.0
C2707 C 0.39605 0.70326 0.80766 0.0
C2708 C 0.41086 0.72533 0.79841 0.0
C2709 C 0.37767 0.70564 0.82918 0.0
C2710 C 0.37243 0.73029 0.8424 0.0
H2711 H 0.39569 0.68507 0.79591 0.0
H2712 H 0.3649 0.68868 0.83302 0.0
S2713 S 0.41086 0.79243 0.8305 0.0
N2714 N 0.42344 0.77108 0.80867 0.0
N2715 N 0.38807 0.77575 0.84752 0.0
C2716 C 0.39022 0.75119 0.83619 0.0
C2717 C 0.40964 0.74855 0.8148 0.0
C2718 C 0.23229 0.36589 0.8463 0.0
C2719 C 0.20849 0.35377 0.85565 0.0
C2720 C 0.23264 0.38169 0.82299 0.0
C2721 C 0.20908 0.3865 0.80833 0.0
H2722 H 0.25139 0.35983 0.8546 0.0
H2723 H 0.25189 0.38672 0.81444 0.0
S2724 S 0.14051 0.36762 0.82957 0.0
N2725 N 0.16015 0.35347 0.85205 0.0
N2726 N 0.16054 0.38384 0.80906 0.0
C2727 C 0.18474 0.37874 0.82036 0.0
C2728 C 0.18447 0.36231 0.84385 0.0
C2729 C 0.62758 0.23686 0.83782 0.0
C2730 C 0.61848 0.25778 0.82115 0.0
C2731 C 0.64566 0.24155 0.85906 0.0
C2732 C 0.65451 0.26754 0.8651 0.0
H2733 H 0.62382 0.21638 0.832 0.0
H2734 H 0.65521 0.22453 0.86845 0.0
S2735 S 0.62787 0.32989 0.83468 0.0
N2736 N 0.61403 0.30577 0.81687 0.0
N2737 N 0.64619 0.31487 0.85771 0.0
C2738 C 0.64135 0.28882 0.8519 0.0
C2739 C 0.62356 0.28393 0.82987 0.0
C2740 C 0.68053 0.6334 0.83287 0.0
C2741 C 0.70084 0.61439 0.82845 0.0
C2742 C 0.68523 0.65635 0.84859 0.0
C2743 C 0.7104 0.66139 0.86065 0.0
H2744 H 0.66265 0.63303 0.82056 0.0
H2745 H 0.67022 0.67193 0.84822 0.0
S2746 S 0.76596 0.61254 0.86447 0.0
N2747 N 0.74345 0.59781 0.84526 0.0
N2748 N 0.75291 0.64167 0.8731 0.0
C2749 C 0.72875 0.64017 0.86072 0.0
C2750 C 0.72361 0.61638 0.8453 0.0
C2751 C 0.66174 0.74012 0.12173 0.0
C2752 C 0.677 0.7619 0.11227 0.0
C2753 C 0.6412 0.74374 0.1406 0.0
C2754 C 0.63489 0.76933 0.15035 0.0
H2755 H 0.66846 0.7199 0.11787 0.0
H2756 H 0.63338 0.72621 0.15055 0.0
S2757 S 0.66108 0.83324 0.12345 0.0
N2758 N 0.67897 0.81006 0.10814 0.0
N2759 N 0.6398 0.81706 0.14277 0.0
C2760 C 0.64614 0.79134 0.1368 0.0
C2761 C 0.66734 0.7876 0.11788 0.0
C2762 C 0.23935 0.61136 0.15062 0.0
C2763 C 0.2645 0.6043 0.16178 0.0
C2764 C 0.23696 0.62938 0.1289 0.0
C2765 C 0.25959 0.64098 0.11677 0.0
H2766 H 0.22125 0.60636 0.16139 0.0
H2767 H 0.21724 0.63719 0.12423 0.0
S2768 S 0.33007 0.62311 0.133 0.0
N2769 N 0.31241 0.6063 0.15512 0.0
N2770 N 0.30805 0.63854 0.11378 0.0
C2771 C 0.28465 0.63022 0.12466 0.0
C2772 C 0.28709 0.61232 0.14715 0.0
C2773 C 0.70256 0.37834 0.16633 0.0
C2774 C 0.72167 0.39027 0.18315 0.0
C2775 C 0.7106 0.36286 0.14427 0.0
C2776 C 0.73798 0.35871 0.13842 0.0
H2777 H 0.6819 0.37696 0.17274 0.0
H2778 H 0.69555 0.35064 0.13461 0.0
S2779 S 0.7945 0.39462 0.16976 0.0
N2780 N 0.76809 0.40401 0.18724 0.0
N2781 N 0.78316 0.3743 0.14635 0.0
C2782 C 0.7565 0.37507 0.15161 0.0
C2783 C 0.74829 0.39113 0.17383 0.0
loop_
_geom_bond_atom_site_label_1
_geom_bond_atom_site_label_2
_geom_bond_distance
_geom_bond_site_symmetry_2
_ccdc_geom_bond_type
Mn0 O5 2.095 . S
Mn0 O15 2.162 . S
Mn0 O16 2.297 . S
Mn0 O24 2.385 . S
Mn0 O25 2.209 . S
Mn0 O26 2.094 . S
Mn1 O6 2.121 . S
Mn1 N8 2.257 . S
Mn1 N17 2.282 . S
Mn1 O25 2.215 . S
Mn1 O27 2.117 . S
C2 O24 1.234 . S
C2 O25 1.283 . S
C3 O15 1.281 . S
C3 O16 1.236 . S
C4 O26 1.240 . S
C4 O27 1.264 . S
O5 Mn0 2.095 . S
O5 C14 1.250 . S
O6 Mn1 2.121 . S
O6 C14 1.258 . S
C7 N8 1.326 . S
C7 C11 1.460 . S
C7 H13 0.929 . S
N8 Mn1 2.257 . S
N8 C7 1.326 . S
N8 C12 1.362 . S
C9 C10 1.258 . S
C9 C12 1.431 . S
C9 C29 1.449 . S
C10 C9 1.258 . S
C10 C11 1.477 . S
C10 H30 0.931 . S
C11 C7 1.460 . S
C11 C10 1.477 . S
C11 H31 0.930 . S
C12 N8 1.362 . S
C12 C9 1.431 . S
C12 C22 1.476 . S
H13 C7 0.929 . S
C14 O5 1.250 . S
C14 O6 1.258 . S
O15 Mn0 2.162 . S
O15 C3 1.281 . S
O16 Mn0 2.297 . S
O16 C3 1.236 . S
N17 Mn1 2.282 . S
N17 C18 1.328 . S
N17 C22 1.318 . S
C18 N17 1.328 . S
C18 C19 1.457 . S
C18 H23 0.929 . S
C19 C18 1.457 . S
C19 C20 1.291 . S
C19 H32 0.931 . S
C20 C19 1.291 . S
C20 C21 1.373 . S
C20 H33 0.929 . S
C21 C20 1.373 . S
C21 C22 1.396 . S
C21 C28 1.403 . S
C22 C12 1.476 . S
C22 N17 1.318 . S
C22 C21 1.396 . S
H23 C18 0.929 . S
O24 Mn0 2.385 . S
O24 C2 1.234 . S
O25 Mn0 2.209 . S
O25 Mn1 2.215 . S
O25 C2 1.283 . S
O26 Mn0 2.094 . S
O26 C4 1.240 . S
O27 Mn1 2.117 . S
O27 C4 1.264 . S
C28 C21 1.403 . S
C28 C29 1.399 . S
C28 H34 0.929 . S
C29 C9 1.449 . S
C29 C28 1.399 . S
C29 H35 0.930 . S
H30 C10 0.931 . S
H31 C11 0.930 . S
H32 C19 0.931 . S
H33 C20 0.929 . S
H34 C28 0.929 . S
H35 C29 0.930 . S
Mn36 O41 2.095 . S
Mn36 O51 2.162 . S
Mn36 O52 2.297 . S
Mn36 O60 2.385 . S
Mn36 O61 2.209 . S
Mn36 O62 2.094 . S
Mn37 O42 2.121 . S
Mn37 N44 2.257 . S
Mn37 N53 2.282 . S
Mn37 O61 2.215 . S
Mn37 O63 2.117 . S
C38 O60 1.234 . S
C38 O61 1.283 . S
C39 O51 1.281 . S
C39 O52 1.236 . S
C40 O62 1.240 . S
C40 O63 1.264 . S
O41 Mn36 2.095 . S
O41 C50 1.250 . S
O42 Mn37 2.121 . S
O42 C50 1.258 . S
C43 N44 1.326 . S
C43 C47 1.460 . S
C43 H49 0.929 . S
N44 Mn37 2.257 . S
N44 C43 1.326 . S
N44 C48 1.362 . S
C45 C46 1.258 . S
C45 C48 1.431 . S
C45 C65 1.449 . S
C46 C45 1.258 . S
C46 C47 1.477 . S
C46 H66 0.931 . S
C47 C43 1.460 . S
C47 C46 1.477 . S
C47 H67 0.930 . S
C48 N44 1.362 . S
C48 C45 1.431 . S
C48 C58 1.476 . S
H49 C43 0.929 . S
C50 O41 1.250 . S
C50 O42 1.258 . S
O51 Mn36 2.162 . S
O51 C39 1.281 . S
O52 Mn36 2.297 . S
O52 C39 1.236 . S
N53 Mn37 2.282 . S
N53 C54 1.328 . S
N53 C58 1.318 . S
C54 N53 1.328 . S
C54 C55 1.457 . S
C54 H59 0.929 . S
C55 C54 1.457 . S
C55 C56 1.291 . S
C55 H68 0.931 . S
C56 C55 1.291 . S
C56 C57 1.373 . S
C56 H69 0.929 . S
C57 C56 1.373 . S
C57 C58 1.396 . S
C57 C64 1.403 . S
C58 C48 1.476 . S
C58 N53 1.318 . S
C58 C57 1.396 . S
H59 C54 0.929 . S
O60 Mn36 2.385 . S
O60 C38 1.234 . S
O61 Mn36 2.209 . S
O61 Mn37 2.215 . S
O61 C38 1.283 . S
O62 Mn36 2.094 . S
O62 C40 1.240 . S
O63 Mn37 2.117 . S
O63 C40 1.264 . S
C64 C57 1.403 . S
C64 C65 1.399 . S
C64 H70 0.929 . S
C65 C45 1.449 . S
C65 C64 1.399 . S
C65 H71 0.930 . S
H66 C46 0.931 . S
H67 C47 0.930 . S
H68 C55 0.931 . S
H69 C56 0.929 . S
H70 C64 0.929 . S
H71 C65 0.930 . S
Mn72 O77 2.095 . S
Mn72 O87 2.162 . S
Mn72 O88 2.297 . S
Mn72 O96 2.385 . S
Mn72 O97 2.209 . S
Mn72 O98 2.094 . S
Mn73 O78 2.121 . S
Mn73 N80 2.257 . S
Mn73 N89 2.282 . S
Mn73 O97 2.215 . S
Mn73 O99 2.117 . S
C74 O96 1.234 . S
C74 O97 1.283 . S
C75 O87 1.281 . S
C75 O88 1.236 . S
C76 O98 1.240 . S
C76 O99 1.264 . S
O77 Mn72 2.095 . S
O77 C86 1.250 . S
O78 Mn73 2.121 . S
O78 C86 1.258 . S
C79 N80 1.326 . S
C79 C83 1.460 . S
C79 H85 0.929 . S
N80 Mn73 2.257 . S
N80 C79 1.326 . S
N80 C84 1.362 . S
C81 C82 1.258 . S
C81 C84 1.431 . S
C81 C101 1.449 . S
C82 C81 1.258 . S
C82 C83 1.477 . S
C82 H102 0.931 . S
C83 C79 1.460 . S
C83 C82 1.477 . S
C83 H103 0.930 . S
C84 N80 1.362 . S
C84 C81 1.431 . S
C84 C94 1.476 . S
H85 C79 0.929 . S
C86 O77 1.250 . S
C86 O78 1.258 . S
O87 Mn72 2.162 . S
O87 C75 1.281 . S
O88 Mn72 2.297 . S
O88 C75 1.236 . S
N89 Mn73 2.282 . S
N89 C90 1.328 . S
N89 C94 1.318 . S
C90 N89 1.328 . S
C90 C91 1.457 . S
C90 H95 0.929 . S
C91 C90 1.457 . S
C91 C92 1.291 . S
C91 H104 0.931 . S
C92 C91 1.291 . S
C92 C93 1.373 . S
C92 H105 0.929 . S
C93 C92 1.373 . S
C93 C94 1.396 . S
C93 C100 1.403 . S
C94 C84 1.476 . S
C94 N89 1.318 . S
C94 C93 1.396 . S
H95 C90 0.929 . S
O96 Mn72 2.385 . S
O96 C74 1.234 . S
O97 Mn72 2.209 . S
O97 Mn73 2.215 . S
O97 C74 1.283 . S
O98 Mn72 2.094 . S
O98 C76 1.240 . S
O99 Mn73 2.117 . S
O99 C76 1.264 . S
C100 C93 1.403 . S
C100 C101 1.399 . S
C100 H106 0.929 . S
C101 C81 1.449 . S
C101 C100 1.399 . S
C101 H107 0.930 . S
H102 C82 0.931 . S
H103 C83 0.930 . S
H104 C91 0.931 . S
H105 C92 0.929 . S
H106 C100 0.929 . S
H107 C101 0.930 . S
Mn108 O113 2.095 . S
Mn108 O123 2.162 . S
Mn108 O124 2.297 . S
Mn108 O132 2.385 . S
Mn108 O133 2.209 . S
Mn108 O134 2.094 . S
Mn109 O114 2.121 . S
Mn109 N116 2.257 . S
Mn109 N125 2.282 . S
Mn109 O133 2.215 . S
Mn109 O135 2.117 . S
C110 O132 1.234 . S
C110 O133 1.283 . S
C111 O123 1.281 . S
C111 O124 1.236 . S
C112 O134 1.240 . S
C112 O135 1.264 . S
O113 Mn108 2.095 . S
O113 C122 1.250 . S
O114 Mn109 2.121 . S
O114 C122 1.258 . S
C115 N116 1.326 . S
C115 C119 1.460 . S
C115 H121 0.929 . S
N116 Mn109 2.257 . S
N116 C115 1.326 . S
N116 C120 1.362 . S
C117 C118 1.258 . S
C117 C120 1.431 . S
C117 C137 1.449 . S
C118 C117 1.258 . S
C118 C119 1.477 . S
C118 H138 0.931 . S
C119 C115 1.460 . S
C119 C118 1.477 . S
C119 H139 0.930 . S
C120 N116 1.362 . S
C120 C117 1.431 . S
C120 C130 1.476 . S
H121 C115 0.929 . S
C122 O113 1.250 . S
C122 O114 1.258 . S
O123 Mn108 2.162 . S
O123 C111 1.281 . S
O124 Mn108 2.297 . S
O124 C111 1.236 . S
N125 Mn109 2.282 . S
N125 C126 1.328 . S
N125 C130 1.318 . S
C126 N125 1.328 . S
C126 C127 1.457 . S
C126 H131 0.929 . S
C127 C126 1.457 . S
C127 C128 1.291 . S
C127 H140 0.931 . S
C128 C127 1.291 . S
C128 C129 1.373 . S
C128 H141 0.929 . S
C129 C128 1.373 . S
C129 C130 1.396 . S
C129 C136 1.403 . S
C130 C120 1.476 . S
C130 N125 1.318 . S
C130 C129 1.396 . S
H131 C126 0.929 . S
O132 Mn108 2.385 . S
O132 C110 1.234 . S
O133 Mn108 2.209 . S
O133 Mn109 2.215 . S
O133 C110 1.283 . S
O134 Mn108 2.094 . S
O134 C112 1.240 . S
O135 Mn109 2.117 . S
O135 C112 1.264 . S
C136 C129 1.403 . S
C136 C137 1.399 . S
C136 H142 0.929 . S
C137 C117 1.449 . S
C137 C136 1.399 . S
C137 H143 0.930 . S
H138 C118 0.931 . S
H139 C119 0.930 . S
H140 C127 0.931 . S
H141 C128 0.929 . S
H142 C136 0.929 . S
H143 C137 0.930 . S
Mn144 O149 2.095 . S
Mn144 O159 2.162 . S
Mn144 O160 2.297 . S
Mn144 O168 2.385 . S
Mn144 O169 2.209 . S
Mn144 O170 2.094 . S
Mn145 O150 2.121 . S
Mn145 N152 2.257 . S
Mn145 N161 2.282 . S
Mn145 O169 2.215 . S
Mn145 O171 2.117 . S
C146 O168 1.234 . S
C146 O169 1.283 . S
C147 O159 1.281 . S
C147 O160 1.236 . S
C148 O170 1.240 . S
C148 O171 1.264 . S
O149 Mn144 2.095 . S
O149 C158 1.250 . S
O150 Mn145 2.121 . S
O150 C158 1.258 . S
C151 N152 1.326 . S
C151 C155 1.460 . S
C151 H157 0.929 . S
N152 Mn145 2.257 . S
N152 C151 1.326 . S
N152 C156 1.362 . S
C153 C154 1.258 . S
C153 C156 1.431 . S
C153 C173 1.449 . S
C154 C153 1.258 . S
C154 C155 1.477 . S
C154 H174 0.931 . S
C155 C151 1.460 . S
C155 C154 1.477 . S
C155 H175 0.930 . S
C156 N152 1.362 . S
C156 C153 1.431 . S
C156 C166 1.476 . S
H157 C151 0.929 . S
C158 O149 1.250 . S
C158 O150 1.258 . S
O159 Mn144 2.162 . S
O159 C147 1.281 . S
O160 Mn144 2.297 . S
O160 C147 1.236 . S
N161 Mn145 2.282 . S
N161 C162 1.328 . S
N161 C166 1.318 . S
C162 N161 1.328 . S
C162 C163 1.457 . S
C162 H167 0.929 . S
C163 C162 1.457 . S
C163 C164 1.291 . S
C163 H176 0.931 . S
C164 C163 1.291 . S
C164 C165 1.373 . S
C164 H177 0.929 . S
C165 C164 1.373 . S
C165 C166 1.396 . S
C165 C172 1.403 . S
C166 C156 1.476 . S
C166 N161 1.318 . S
C166 C165 1.396 . S
H167 C162 0.929 . S
O168 Mn144 2.385 . S
O168 C146 1.234 . S
O169 Mn144 2.209 . S
O169 Mn145 2.215 . S
O169 C146 1.283 . S
O170 Mn144 2.094 . S
O170 C148 1.240 . S
O171 Mn145 2.117 . S
O171 C148 1.264 . S
C172 C165 1.403 . S
C172 C173 1.399 . S
C172 H178 0.929 . S
C173 C153 1.449 . S
C173 C172 1.399 . S
C173 H179 0.930 . S
H174 C154 0.931 . S
H175 C155 0.930 . S
H176 C163 0.931 . S
H177 C164 0.929 . S
H178 C172 0.929 . S
H179 C173 0.930 . S
Mn180 O185 2.095 . S
Mn180 O195 2.162 . S
Mn180 O196 2.297 . S
Mn180 O204 2.385 . S
Mn180 O205 2.209 . S
Mn180 O206 2.094 . S
Mn181 O186 2.121 . S
Mn181 N188 2.257 . S
Mn181 N197 2.282 . S
Mn181 O205 2.215 . S
Mn181 O207 2.117 . S
C182 O204 1.234 . S
C182 O205 1.283 . S
C183 O195 1.281 . S
C183 O196 1.236 . S
C184 O206 1.240 . S
C184 O207 1.264 . S
O185 Mn180 2.095 . S
O185 C194 1.250 . S
O186 Mn181 2.121 . S
O186 C194 1.258 . S
C187 N188 1.326 . S
C187 C191 1.460 . S
C187 H193 0.929 . S
N188 Mn181 2.257 . S
N188 C187 1.326 . S
N188 C192 1.362 . S
C189 C190 1.258 . S
C189 C192 1.431 . S
C189 C209 1.449 . S
C190 C189 1.258 . S
C190 C191 1.477 . S
C190 H210 0.931 . S
C191 C187 1.460 . S
C191 C190 1.477 . S
C191 H211 0.930 . S
C192 N188 1.362 . S
C192 C189 1.431 . S
C192 C202 1.476 . S
H193 C187 0.929 . S
C194 O185 1.250 . S
C194 O186 1.258 . S
O195 Mn180 2.162 . S
O195 C183 1.281 . S
O196 Mn180 2.297 . S
O196 C183 1.236 . S
N197 Mn181 2.282 . S
N197 C198 1.328 . S
N197 C202 1.318 . S
C198 N197 1.328 . S
C198 C199 1.457 . S
C198 H203 0.929 . S
C199 C198 1.457 . S
C199 C200 1.291 . S
C199 H212 0.931 . S
C200 C199 1.291 . S
C200 C201 1.373 . S
C200 H213 0.929 . S
C201 C200 1.373 . S
C201 C202 1.396 . S
C201 C208 1.403 . S
C202 C192 1.476 . S
C202 N197 1.318 . S
C202 C201 1.396 . S
H203 C198 0.929 . S
O204 Mn180 2.385 . S
O204 C182 1.234 . S
O205 Mn180 2.209 . S
O205 Mn181 2.215 . S
O205 C182 1.283 . S
O206 Mn180 2.094 . S
O206 C184 1.240 . S
O207 Mn181 2.117 . S
O207 C184 1.264 . S
C208 C201 1.403 . S
C208 C209 1.399 . S
C208 H214 0.929 . S
C209 C189 1.449 . S
C209 C208 1.399 . S
C209 H215 0.930 . S
H210 C190 0.931 . S
H211 C191 0.930 . S
H212 C199 0.931 . S
H213 C200 0.929 . S
H214 C208 0.929 . S
H215 C209 0.930 . S
Mn216 O221 2.095 . S
Mn216 O231 2.162 . S
Mn216 O232 2.297 . S
Mn216 O240 2.385 . S
Mn216 O241 2.209 . S
Mn216 O242 2.094 . S
Mn217 O222 2.121 . S
Mn217 N224 2.257 . S
Mn217 N233 2.282 . S
Mn217 O241 2.215 . S
Mn217 O243 2.117 . S
C218 O240 1.234 . S
C218 O241 1.283 . S
C219 O231 1.281 . S
C219 O232 1.236 . S
C220 O242 1.240 . S
C220 O243 1.264 . S
O221 Mn216 2.095 . S
O221 C230 1.250 . S
O222 Mn217 2.121 . S
O222 C230 1.258 . S
C223 N224 1.326 . S
C223 C227 1.460 . S
C223 H229 0.929 . S
N224 Mn217 2.257 . S
N224 C223 1.326 . S
N224 C228 1.362 . S
C225 C226 1.258 . S
C225 C228 1.431 . S
C225 C245 1.449 . S
C226 C225 1.258 . S
C226 C227 1.477 . S
C226 H246 0.931 . S
C227 C223 1.460 . S
C227 C226 1.477 . S
C227 H247 0.930 . S
C228 N224 1.362 . S
C228 C225 1.431 . S
C228 C238 1.476 . S
H229 C223 0.929 . S
C230 O221 1.250 . S
C230 O222 1.258 . S
O231 Mn216 2.162 . S
O231 C219 1.281 . S
O232 Mn216 2.297 . S
O232 C219 1.236 . S
N233 Mn217 2.282 . S
N233 C234 1.328 . S
N233 C238 1.318 . S
C234 N233 1.328 . S
C234 C235 1.457 . S
C234 H239 0.929 . S
C235 C234 1.457 . S
C235 C236 1.291 . S
C235 H248 0.931 . S
C236 C235 1.291 . S
C236 C237 1.373 . S
C236 H249 0.929 . S
C237 C236 1.373 . S
C237 C238 1.396 . S
C237 C244 1.403 . S
C238 C228 1.476 . S
C238 N233 1.318 . S
C238 C237 1.396 . S
H239 C234 0.929 . S
O240 Mn216 2.385 . S
O240 C218 1.234 . S
O241 Mn216 2.209 . S
O241 Mn217 2.215 . S
O241 C218 1.283 . S
O242 Mn216 2.094 . S
O242 C220 1.240 . S
O243 Mn217 2.117 . S
O243 C220 1.264 . S
C244 C237 1.403 . S
C244 C245 1.399 . S
C244 H250 0.929 . S
C245 C225 1.449 . S
C245 C244 1.399 . S
C245 H251 0.930 . S
H246 C226 0.931 . S
H247 C227 0.930 . S
H248 C235 0.931 . S
H249 C236 0.929 . S
H250 C244 0.929 . S
H251 C245 0.930 . S
Mn252 O257 2.095 . S
Mn252 O267 2.162 . S
Mn252 O268 2.297 . S
Mn252 O276 2.385 . S
Mn252 O277 2.209 . S
Mn252 O278 2.094 . S
Mn253 O258 2.121 . S
Mn253 N260 2.257 . S
Mn253 N269 2.282 . S
Mn253 O277 2.215 . S
Mn253 O279 2.117 . S
C254 O276 1.234 . S
C254 O277 1.283 . S
C255 O267 1.281 . S
C255 O268 1.236 . S
C256 O278 1.240 . S
C256 O279 1.264 . S
O257 Mn252 2.095 . S
O257 C266 1.250 . S
O258 Mn253 2.121 . S
O258 C266 1.258 . S
C259 N260 1.326 . S
C259 C263 1.460 . S
C259 H265 0.929 . S
N260 Mn253 2.257 . S
N260 C259 1.326 . S
N260 C264 1.362 . S
C261 C262 1.258 . S
C261 C264 1.431 . S
C261 C281 1.449 . S
C262 C261 1.258 . S
C262 C263 1.477 . S
C262 H282 0.931 . S
C263 C259 1.460 . S
C263 C262 1.477 . S
C263 H283 0.930 . S
C264 N260 1.362 . S
C264 C261 1.431 . S
C264 C274 1.476 . S
H265 C259 0.929 . S
C266 O257 1.250 . S
C266 O258 1.258 . S
O267 Mn252 2.162 . S
O267 C255 1.281 . S
O268 Mn252 2.297 . S
O268 C255 1.236 . S
N269 Mn253 2.282 . S
N269 C270 1.328 . S
N269 C274 1.318 . S
C270 N269 1.328 . S
C270 C271 1.457 . S
C270 H275 0.929 . S
C271 C270 1.457 . S
C271 C272 1.291 . S
C271 H284 0.931 . S
C272 C271 1.291 . S
C272 C273 1.373 . S
C272 H285 0.929 . S
C273 C272 1.373 . S
C273 C274 1.396 . S
C273 C280 1.403 . S
C274 C264 1.476 . S
C274 N269 1.318 . S
C274 C273 1.396 . S
H275 C270 0.929 . S
O276 Mn252 2.385 . S
O276 C254 1.234 . S
O277 Mn252 2.209 . S
O277 Mn253 2.215 . S
O277 C254 1.283 . S
O278 Mn252 2.094 . S
O278 C256 1.240 . S
O279 Mn253 2.117 . S
O279 C256 1.264 . S
C280 C273 1.403 . S
C280 C281 1.399 . S
C280 H286 0.929 . S
C281 C261 1.449 . S
C281 C280 1.399 . S
C281 H287 0.930 . S
H282 C262 0.931 . S
H283 C263 0.930 . S
H284 C271 0.931 . S
H285 C272 0.929 . S
H286 C280 0.929 . S
H287 C281 0.930 . S
Mn288 O293 2.095 . S
Mn288 O303 2.162 . S
Mn288 O304 2.297 . S
Mn288 O312 2.385 . S
Mn288 O313 2.209 . S
Mn288 O314 2.094 . S
Mn289 O294 2.121 . S
Mn289 N296 2.257 . S
Mn289 N305 2.282 . S
Mn289 O313 2.215 . S
Mn289 O315 2.117 . S
C290 O312 1.234 . S
C290 O313 1.283 . S
C291 O303 1.281 . S
C291 O304 1.236 . S
C292 O314 1.240 . S
C292 O315 1.264 . S
O293 Mn288 2.095 . S
O293 C302 1.250 . S
O294 Mn289 2.121 . S
O294 C302 1.258 . S
C295 N296 1.326 . S
C295 C299 1.460 . S
C295 H301 0.929 . S
N296 Mn289 2.257 . S
N296 C295 1.326 . S
N296 C300 1.362 . S
C297 C298 1.258 . S
C297 C300 1.431 . S
C297 C317 1.449 . S
C298 C297 1.258 . S
C298 C299 1.477 . S
C298 H318 0.931 . S
C299 C295 1.460 . S
C299 C298 1.477 . S
C299 H319 0.930 . S
C300 N296 1.362 . S
C300 C297 1.431 . S
C300 C310 1.476 . S
H301 C295 0.929 . S
C302 O293 1.250 . S
C302 O294 1.258 . S
O303 Mn288 2.162 . S
O303 C291 1.281 . S
O304 Mn288 2.297 . S
O304 C291 1.236 . S
N305 Mn289 2.282 . S
N305 C306 1.328 . S
N305 C310 1.318 . S
C306 N305 1.328 . S
C306 C307 1.457 . S
C306 H311 0.929 . S
C307 C306 1.457 . S
C307 C308 1.291 . S
C307 H320 0.931 . S
C308 C307 1.291 . S
C308 C309 1.373 . S
C308 H321 0.929 . S
C309 C308 1.373 . S
C309 C310 1.396 . S
C309 C316 1.403 . S
C310 C300 1.476 . S
C310 N305 1.318 . S
C310 C309 1.396 . S
H311 C306 0.929 . S
O312 Mn288 2.385 . S
O312 C290 1.234 . S
O313 Mn288 2.209 . S
O313 Mn289 2.215 . S
O313 C290 1.283 . S
O314 Mn288 2.094 . S
O314 C292 1.240 . S
O315 Mn289 2.117 . S
O315 C292 1.264 . S
C316 C309 1.403 . S
C316 C317 1.399 . S
C316 H322 0.929 . S
C317 C297 1.449 . S
C317 C316 1.399 . S
C317 H323 0.930 . S
H318 C298 0.931 . S
H319 C299 0.930 . S
H320 C307 0.931 . S
H321 C308 0.929 . S
H322 C316 0.929 . S
H323 C317 0.930 . S
Mn324 O329 2.095 . S
Mn324 O339 2.162 . S
Mn324 O340 2.297 . S
Mn324 O348 2.385 . S
Mn324 O349 2.209 . S
Mn324 O350 2.094 . S
Mn325 O330 2.121 . S
Mn325 N332 2.257 . S
Mn325 N341 2.282 . S
Mn325 O349 2.215 . S
Mn325 O351 2.117 . S
C326 O348 1.234 . S
C326 O349 1.283 . S
C327 O339 1.281 . S
C327 O340 1.236 . S
C328 O350 1.240 . S
C328 O351 1.264 . S
O329 Mn324 2.095 . S
O329 C338 1.250 . S
O330 Mn325 2.121 . S
O330 C338 1.258 . S
C331 N332 1.326 . S
C331 C335 1.460 . S
C331 H337 0.929 . S
N332 Mn325 2.257 . S
N332 C331 1.326 . S
N332 C336 1.362 . S
C333 C334 1.258 . S
C333 C336 1.431 . S
C333 C353 1.449 . S
C334 C333 1.258 . S
C334 C335 1.477 . S
C334 H354 0.931 . S
C335 C331 1.460 . S
C335 C334 1.477 . S
C335 H355 0.930 . S
C336 N332 1.362 . S
C336 C333 1.431 . S
C336 C346 1.476 . S
H337 C331 0.929 . S
C338 O329 1.250 . S
C338 O330 1.258 . S
O339 Mn324 2.162 . S
O339 C327 1.281 . S
O340 Mn324 2.297 . S
O340 C327 1.236 . S
N341 Mn325 2.282 . S
N341 C342 1.328 . S
N341 C346 1.318 . S
C342 N341 1.328 . S
C342 C343 1.457 . S
C342 H347 0.929 . S
C343 C342 1.457 . S
C343 C344 1.291 . S
C343 H356 0.931 . S
C344 C343 1.291 . S
C344 C345 1.373 . S
C344 H357 0.929 . S
C345 C344 1.373 . S
C345 C346 1.396 . S
C345 C352 1.403 . S
C346 C336 1.476 . S
C346 N341 1.318 . S
C346 C345 1.396 . S
H347 C342 0.929 . S
O348 Mn324 2.385 . S
O348 C326 1.234 . S
O349 Mn324 2.209 . S
O349 Mn325 2.215 . S
O349 C326 1.283 . S
O350 Mn324 2.094 . S
O350 C328 1.240 . S
O351 Mn325 2.117 . S
O351 C328 1.264 . S
C352 C345 1.403 . S
C352 C353 1.399 . S
C352 H358 0.929 . S
C353 C333 1.449 . S
C353 C352 1.399 . S
C353 H359 0.930 . S
H354 C334 0.931 . S
H355 C335 0.930 . S
H356 C343 0.931 . S
H357 C344 0.929 . S
H358 C352 0.929 . S
H359 C353 0.930 . S
Mn360 O365 2.095 . S
Mn360 O375 2.162 . S
Mn360 O376 2.297 . S
Mn360 O384 2.385 . S
Mn360 O385 2.209 . S
Mn360 O386 2.094 . S
Mn361 O366 2.121 . S
Mn361 N368 2.257 . S
Mn361 N377 2.282 . S
Mn361 O385 2.215 . S
Mn361 O387 2.117 . S
C362 O384 1.234 . S
C362 O385 1.283 . S
C363 O375 1.281 . S
C363 O376 1.236 . S
C364 O386 1.240 . S
C364 O387 1.264 . S
O365 Mn360 2.095 . S
O365 C374 1.250 . S
O366 Mn361 2.121 . S
O366 C374 1.258 . S
C367 N368 1.326 . S
C367 C371 1.460 . S
C367 H373 0.929 . S
N368 Mn361 2.257 . S
N368 C367 1.326 . S
N368 C372 1.362 . S
C369 C370 1.258 . S
C369 C372 1.431 . S
C369 C389 1.449 . S
C370 C369 1.258 . S
C370 C371 1.477 . S
C370 H390 0.931 . S
C371 C367 1.460 . S
C371 C370 1.477 . S
C371 H391 0.930 . S
C372 N368 1.362 . S
C372 C369 1.431 . S
C372 C382 1.476 . S
H373 C367 0.929 . S
C374 O365 1.250 . S
C374 O366 1.258 . S
O375 Mn360 2.162 . S
O375 C363 1.281 . S
O376 Mn360 2.297 . S
O376 C363 1.236 . S
N377 Mn361 2.282 . S
N377 C378 1.328 . S
N377 C382 1.318 . S
C378 N377 1.328 . S
C378 C379 1.457 . S
C378 H383 0.929 . S
C379 C378 1.457 . S
C379 C380 1.291 . S
C379 H392 0.931 . S
C380 C379 1.291 . S
C380 C381 1.373 . S
C380 H393 0.929 . S
C381 C380 1.373 . S
C381 C382 1.396 . S
C381 C388 1.403 . S
C382 C372 1.476 . S
C382 N377 1.318 . S
C382 C381 1.396 . S
H383 C378 0.929 . S
O384 Mn360 2.385 . S
O384 C362 1.234 . S
O385 Mn360 2.209 . S
O385 Mn361 2.215 . S
O385 C362 1.283 . S
O386 Mn360 2.094 . S
O386 C364 1.240 . S
O387 Mn361 2.117 . S
O387 C364 1.264 . S
C388 C381 1.403 . S
C388 C389 1.399 . S
C388 H394 0.929 . S
C389 C369 1.449 . S
C389 C388 1.399 . S
C389 H395 0.930 . S
H390 C370 0.931 . S
H391 C371 0.930 . S
H392 C379 0.931 . S
H393 C380 0.929 . S
H394 C388 0.929 . S
H395 C389 0.930 . S
Mn396 O401 2.095 . S
Mn396 O411 2.162 . S
Mn396 O412 2.297 . S
Mn396 O420 2.385 . S
Mn396 O421 2.209 . S
Mn396 O422 2.094 . S
Mn397 O402 2.121 . S
Mn397 N404 2.257 . S
Mn397 N413 2.282 . S
Mn397 O421 2.215 . S
Mn397 O423 2.117 . S
C398 O420 1.234 . S
C398 O421 1.283 . S
C399 O411 1.281 . S
C399 O412 1.236 . S
C400 O422 1.240 . S
C400 O423 1.264 . S
O401 Mn396 2.095 . S
O401 C410 1.250 . S
O402 Mn397 2.121 . S
O402 C410 1.258 . S
C403 N404 1.326 . S
C403 C407 1.460 . S
C403 H409 0.929 . S
N404 Mn397 2.257 . S
N404 C403 1.326 . S
N404 C408 1.362 . S
C405 C406 1.258 . S
C405 C408 1.431 . S
C405 C425 1.449 . S
C406 C405 1.258 . S
C406 C407 1.477 . S
C406 H426 0.931 . S
C407 C403 1.460 . S
C407 C406 1.477 . S
C407 H427 0.930 . S
C408 N404 1.362 . S
C408 C405 1.431 . S
C408 C418 1.476 . S
H409 C403 0.929 . S
C410 O401 1.250 . S
C410 O402 1.258 . S
O411 Mn396 2.162 . S
O411 C399 1.281 . S
O412 Mn396 2.297 . S
O412 C399 1.236 . S
N413 Mn397 2.282 . S
N413 C414 1.328 . S
N413 C418 1.318 . S
C414 N413 1.328 . S
C414 C415 1.457 . S
C414 H419 0.929 . S
C415 C414 1.457 . S
C415 C416 1.291 . S
C415 H428 0.931 . S
C416 C415 1.291 . S
C416 C417 1.373 . S
C416 H429 0.929 . S
C417 C416 1.373 . S
C417 C418 1.396 . S
C417 C424 1.403 . S
C418 C408 1.476 . S
C418 N413 1.318 . S
C418 C417 1.396 . S
H419 C414 0.929 . S
O420 Mn396 2.385 . S
O420 C398 1.234 . S
O421 Mn396 2.209 . S
O421 Mn397 2.215 . S
O421 C398 1.283 . S
O422 Mn396 2.094 . S
O422 C400 1.240 . S
O423 Mn397 2.117 . S
O423 C400 1.264 . S
C424 C417 1.403 . S
C424 C425 1.399 . S
C424 H430 0.929 . S
C425 C405 1.449 . S
C425 C424 1.399 . S
C425 H431 0.930 . S
H426 C406 0.931 . S
H427 C407 0.930 . S
H428 C415 0.931 . S
H429 C416 0.929 . S
H430 C424 0.929 . S
H431 C425 0.930 . S
Mn432 O437 2.095 . S
Mn432 O447 2.162 . S
Mn432 O448 2.297 . S
Mn432 O456 2.385 . S
Mn432 O457 2.209 . S
Mn432 O458 2.094 . S
Mn433 O438 2.121 . S
Mn433 N440 2.257 . S
Mn433 N449 2.282 . S
Mn433 O457 2.215 . S
Mn433 O459 2.117 . S
C434 O456 1.234 . S
C434 O457 1.283 . S
C435 O447 1.281 . S
C435 O448 1.236 . S
C436 O458 1.240 . S
C436 O459 1.264 . S
O437 Mn432 2.095 . S
O437 C446 1.250 . S
O438 Mn433 2.121 . S
O438 C446 1.258 . S
C439 N440 1.326 . S
C439 C443 1.460 . S
C439 H445 0.929 . S
N440 Mn433 2.257 . S
N440 C439 1.326 . S
N440 C444 1.362 . S
C441 C442 1.258 . S
C441 C444 1.431 . S
C441 C461 1.449 . S
C442 C441 1.258 . S
C442 C443 1.477 . S
C442 H462 0.931 . S
C443 C439 1.460 . S
C443 C442 1.477 . S
C443 H463 0.930 . S
C444 N440 1.362 . S
C444 C441 1.431 . S
C444 C454 1.476 . S
H445 C439 0.929 . S
C446 O437 1.250 . S
C446 O438 1.258 . S
O447 Mn432 2.162 . S
O447 C435 1.281 . S
O448 Mn432 2.297 . S
O448 C435 1.236 . S
N449 Mn433 2.282 . S
N449 C450 1.328 . S
N449 C454 1.318 . S
C450 N449 1.328 . S
C450 C451 1.457 . S
C450 H455 0.929 . S
C451 C450 1.457 . S
C451 C452 1.291 . S
C451 H464 0.931 . S
C452 C451 1.291 . S
C452 C453 1.373 . S
C452 H465 0.929 . S
C453 C452 1.373 . S
C453 C454 1.396 . S
C453 C460 1.403 . S
C454 C444 1.476 . S
C454 N449 1.318 . S
C454 C453 1.396 . S
H455 C450 0.929 . S
O456 Mn432 2.385 . S
O456 C434 1.234 . S
O457 Mn432 2.209 . S
O457 Mn433 2.215 . S
O457 C434 1.283 . S
O458 Mn432 2.094 . S
O458 C436 1.240 . S
O459 Mn433 2.117 . S
O459 C436 1.264 . S
C460 C453 1.403 . S
C460 C461 1.399 . S
C460 H466 0.929 . S
C461 C441 1.449 . S
C461 C460 1.399 . S
C461 H467 0.930 . S
H462 C442 0.931 . S
H463 C443 0.930 . S
H464 C451 0.931 . S
H465 C452 0.929 . S
H466 C460 0.929 . S
H467 C461 0.930 . S
Mn468 O473 2.095 . S
Mn468 O483 2.162 . S
Mn468 O484 2.297 . S
Mn468 O492 2.385 . S
Mn468 O493 2.209 . S
Mn468 O494 2.094 . S
Mn469 O474 2.121 . S
Mn469 N476 2.257 . S
Mn469 N485 2.282 . S
Mn469 O493 2.215 . S
Mn469 O495 2.117 . S
C470 O492 1.234 . S
C470 O493 1.283 . S
C471 O483 1.281 . S
C471 O484 1.236 . S
C472 O494 1.240 . S
C472 O495 1.264 . S
O473 Mn468 2.095 . S
O473 C482 1.250 . S
O474 Mn469 2.121 . S
O474 C482 1.258 . S
C475 N476 1.326 . S
C475 C479 1.460 . S
C475 H481 0.929 . S
N476 Mn469 2.257 . S
N476 C475 1.326 . S
N476 C480 1.362 . S
C477 C478 1.258 . S
C477 C480 1.431 . S
C477 C497 1.449 . S
C478 C477 1.258 . S
C478 C479 1.477 . S
C478 H498 0.931 . S
C479 C475 1.460 . S
C479 C478 1.477 . S
C479 H499 0.930 . S
C480 N476 1.362 . S
C480 C477 1.431 . S
C480 C490 1.476 . S
H481 C475 0.929 . S
C482 O473 1.250 . S
C482 O474 1.258 . S
O483 Mn468 2.162 . S
O483 C471 1.281 . S
O484 Mn468 2.297 . S
O484 C471 1.236 . S
N485 Mn469 2.282 . S
N485 C486 1.328 . S
N485 C490 1.318 . S
C486 N485 1.328 . S
C486 C487 1.457 . S
C486 H491 0.929 . S
C487 C486 1.457 . S
C487 C488 1.291 . S
C487 H500 0.931 . S
C488 C487 1.291 . S
C488 C489 1.373 . S
C488 H501 0.929 . S
C489 C488 1.373 . S
C489 C490 1.396 . S
C489 C496 1.403 . S
C490 C480 1.476 . S
C490 N485 1.318 . S
C490 C489 1.396 . S
H491 C486 0.929 . S
O492 Mn468 2.385 . S
O492 C470 1.234 . S
O493 Mn468 2.209 . S
O493 Mn469 2.215 . S
O493 C470 1.283 . S
O494 Mn468 2.094 . S
O494 C472 1.240 . S
O495 Mn469 2.117 . S
O495 C472 1.264 . S
C496 C489 1.403 . S
C496 C497 1.399 . S
C496 H502 0.929 . S
C497 C477 1.449 . S
C497 C496 1.399 . S
C497 H503 0.930 . S
H498 C478 0.931 . S
H499 C479 0.930 . S
H500 C487 0.931 . S
H501 C488 0.929 . S
H502 C496 0.929 . S
H503 C497 0.930 . S
Mn504 O509 2.095 . S
Mn504 O519 2.162 . S
Mn504 O520 2.297 . S
Mn504 O528 2.385 . S
Mn504 O529 2.209 . S
Mn504 O530 2.094 . S
Mn505 O510 2.121 . S
Mn505 N512 2.257 . S
Mn505 N521 2.282 . S
Mn505 O529 2.215 . S
Mn505 O531 2.117 . S
C506 O528 1.234 . S
C506 O529 1.283 . S
C507 O519 1.281 . S
C507 O520 1.236 . S
C508 O530 1.240 . S
C508 O531 1.264 . S
O509 Mn504 2.095 . S
O509 C518 1.250 . S
O510 Mn505 2.121 . S
O510 C518 1.258 . S
C511 N512 1.326 . S
C511 C515 1.460 . S
C511 H517 0.929 . S
N512 Mn505 2.257 . S
N512 C511 1.326 . S
N512 C516 1.362 . S
C513 C514 1.258 . S
C513 C516 1.431 . S
C513 C533 1.449 . S
C514 C513 1.258 . S
C514 C515 1.477 . S
C514 H534 0.931 . S
C515 C511 1.460 . S
C515 C514 1.477 . S
C515 H535 0.930 . S
C516 N512 1.362 . S
C516 C513 1.431 . S
C516 C526 1.476 . S
H517 C511 0.929 . S
C518 O509 1.250 . S
C518 O510 1.258 . S
O519 Mn504 2.162 . S
O519 C507 1.281 . S
O520 Mn504 2.297 . S
O520 C507 1.236 . S
N521 Mn505 2.282 . S
N521 C522 1.328 . S
N521 C526 1.318 . S
C522 N521 1.328 . S
C522 C523 1.457 . S
C522 H527 0.929 . S
C523 C522 1.457 . S
C523 C524 1.291 . S
C523 H536 0.931 . S
C524 C523 1.291 . S
C524 C525 1.373 . S
C524 H537 0.929 . S
C525 C524 1.373 . S
C525 C526 1.396 . S
C525 C532 1.403 . S
C526 C516 1.476 . S
C526 N521 1.318 . S
C526 C525 1.396 . S
H527 C522 0.929 . S
O528 Mn504 2.385 . S
O528 C506 1.234 . S
O529 Mn504 2.209 . S
O529 Mn505 2.215 . S
O529 C506 1.283 . S
O530 Mn504 2.094 . S
O530 C508 1.240 . S
O531 Mn505 2.117 . S
O531 C508 1.264 . S
C532 C525 1.403 . S
C532 C533 1.399 . S
C532 H538 0.929 . S
C533 C513 1.449 . S
C533 C532 1.399 . S
C533 H539 0.930 . S
H534 C514 0.931 . S
H535 C515 0.930 . S
H536 C523 0.931 . S
H537 C524 0.929 . S
H538 C532 0.929 . S
H539 C533 0.930 . S
Mn540 O545 2.095 . S
Mn540 O555 2.162 . S
Mn540 O556 2.297 . S
Mn540 O564 2.385 . S
Mn540 O565 2.209 . S
Mn540 O566 2.094 . S
Mn541 O546 2.121 . S
Mn541 N548 2.257 . S
Mn541 N557 2.282 . S
Mn541 O565 2.215 . S
Mn541 O567 2.117 . S
C542 O564 1.234 . S
C542 O565 1.283 . S
C543 O555 1.281 . S
C543 O556 1.236 . S
C544 O566 1.240 . S
C544 O567 1.264 . S
O545 Mn540 2.095 . S
O545 C554 1.250 . S
O546 Mn541 2.121 . S
O546 C554 1.258 . S
C547 N548 1.326 . S
C547 C551 1.460 . S
C547 H553 0.929 . S
N548 Mn541 2.257 . S
N548 C547 1.326 . S
N548 C552 1.362 . S
C549 C550 1.258 . S
C549 C552 1.431 . S
C549 C569 1.449 . S
C550 C549 1.258 . S
C550 C551 1.477 . S
C550 H570 0.931 . S
C551 C547 1.460 . S
C551 C550 1.477 . S
C551 H571 0.930 . S
C552 N548 1.362 . S
C552 C549 1.431 . S
C552 C562 1.476 . S
H553 C547 0.929 . S
C554 O545 1.250 . S
C554 O546 1.258 . S
O555 Mn540 2.162 . S
O555 C543 1.281 . S
O556 Mn540 2.297 . S
O556 C543 1.236 . S
N557 Mn541 2.282 . S
N557 C558 1.328 . S
N557 C562 1.318 . S
C558 N557 1.328 . S
C558 C559 1.457 . S
C558 H563 0.929 . S
C559 C558 1.457 . S
C559 C560 1.291 . S
C559 H572 0.931 . S
C560 C559 1.291 . S
C560 C561 1.373 . S
C560 H573 0.929 . S
C561 C560 1.373 . S
C561 C562 1.396 . S
C561 C568 1.403 . S
C562 C552 1.476 . S
C562 N557 1.318 . S
C562 C561 1.396 . S
H563 C558 0.929 . S
O564 Mn540 2.385 . S
O564 C542 1.234 . S
O565 Mn540 2.209 . S
O565 Mn541 2.215 . S
O565 C542 1.283 . S
O566 Mn540 2.094 . S
O566 C544 1.240 . S
O567 Mn541 2.117 . S
O567 C544 1.264 . S
C568 C561 1.403 . S
C568 C569 1.399 . S
C568 H574 0.929 . S
C569 C549 1.449 . S
C569 C568 1.399 . S
C569 H575 0.930 . S
H570 C550 0.931 . S
H571 C551 0.930 . S
H572 C559 0.931 . S
H573 C560 0.929 . S
H574 C568 0.929 . S
H575 C569 0.930 . S
Mn576 O581 2.095 . S
Mn576 O591 2.162 . S
Mn576 O592 2.297 . S
Mn576 O600 2.385 . S
Mn576 O601 2.209 . S
Mn576 O602 2.094 . S
Mn577 O582 2.121 . S
Mn577 N584 2.257 . S
Mn577 N593 2.282 . S
Mn577 O601 2.215 . S
Mn577 O603 2.117 . S
C578 O600 1.234 . S
C578 O601 1.283 . S
C579 O591 1.281 . S
C579 O592 1.236 . S
C580 O602 1.240 . S
C580 O603 1.264 . S
O581 Mn576 2.095 . S
O581 C590 1.250 . S
O582 Mn577 2.121 . S
O582 C590 1.258 . S
C583 N584 1.326 . S
C583 C587 1.460 . S
C583 H589 0.929 . S
N584 Mn577 2.257 . S
N584 C583 1.326 . S
N584 C588 1.362 . S
C585 C586 1.258 . S
C585 C588 1.431 . S
C585 C605 1.449 . S
C586 C585 1.258 . S
C586 C587 1.477 . S
C586 H606 0.931 . S
C587 C583 1.460 . S
C587 C586 1.477 . S
C587 H607 0.930 . S
C588 N584 1.362 . S
C588 C585 1.431 . S
C588 C598 1.476 . S
H589 C583 0.929 . S
C590 O581 1.250 . S
C590 O582 1.258 . S
O591 Mn576 2.162 . S
O591 C579 1.281 . S
O592 Mn576 2.297 . S
O592 C579 1.236 . S
N593 Mn577 2.282 . S
N593 C594 1.328 . S
N593 C598 1.318 . S
C594 N593 1.328 . S
C594 C595 1.457 . S
C594 H599 0.929 . S
C595 C594 1.457 . S
C595 C596 1.291 . S
C595 H608 0.931 . S
C596 C595 1.291 . S
C596 C597 1.373 . S
C596 H609 0.929 . S
C597 C596 1.373 . S
C597 C598 1.396 . S
C597 C604 1.403 . S
C598 C588 1.476 . S
C598 N593 1.318 . S
C598 C597 1.396 . S
H599 C594 0.929 . S
O600 Mn576 2.385 . S
O600 C578 1.234 . S
O601 Mn576 2.209 . S
O601 Mn577 2.215 . S
O601 C578 1.283 . S
O602 Mn576 2.094 . S
O602 C580 1.240 . S
O603 Mn577 2.117 . S
O603 C580 1.264 . S
C604 C597 1.403 . S
C604 C605 1.399 . S
C604 H610 0.929 . S
C605 C585 1.449 . S
C605 C604 1.399 . S
C605 H611 0.930 . S
H606 C586 0.931 . S
H607 C587 0.930 . S
H608 C595 0.931 . S
H609 C596 0.929 . S
H610 C604 0.929 . S
H611 C605 0.930 . S
Mn612 O617 2.095 . S
Mn612 O627 2.162 . S
Mn612 O628 2.297 . S
Mn612 O636 2.385 . S
Mn612 O637 2.209 . S
Mn612 O638 2.094 . S
Mn613 O618 2.121 . S
Mn613 N620 2.257 . S
Mn613 N629 2.282 . S
Mn613 O637 2.215 . S
Mn613 O639 2.117 . S
C614 O636 1.234 . S
C614 O637 1.283 . S
C615 O627 1.281 . S
C615 O628 1.236 . S
C616 O638 1.240 . S
C616 O639 1.264 . S
O617 Mn612 2.095 . S
O617 C626 1.250 . S
O618 Mn613 2.121 . S
O618 C626 1.258 . S
C619 N620 1.326 . S
C619 C623 1.460 . S
C619 H625 0.929 . S
N620 Mn613 2.257 . S
N620 C619 1.326 . S
N620 C624 1.362 . S
C621 C622 1.258 . S
C621 C624 1.431 . S
C621 C641 1.449 . S
C622 C621 1.258 . S
C622 C623 1.477 . S
C622 H642 0.931 . S
C623 C619 1.460 . S
C623 C622 1.477 . S
C623 H643 0.930 . S
C624 N620 1.362 . S
C624 C621 1.431 . S
C624 C634 1.476 . S
H625 C619 0.929 . S
C626 O617 1.250 . S
C626 O618 1.258 . S
O627 Mn612 2.162 . S
O627 C615 1.281 . S
O628 Mn612 2.297 . S
O628 C615 1.236 . S
N629 Mn613 2.282 . S
N629 C630 1.328 . S
N629 C634 1.318 . S
C630 N629 1.328 . S
C630 C631 1.457 . S
C630 H635 0.929 . S
C631 C630 1.457 . S
C631 C632 1.291 . S
C631 H644 0.931 . S
C632 C631 1.291 . S
C632 C633 1.373 . S
C632 H645 0.929 . S
C633 C632 1.373 . S
C633 C634 1.396 . S
C633 C640 1.403 . S
C634 C624 1.476 . S
C634 N629 1.318 . S
C634 C633 1.396 . S
H635 C630 0.929 . S
O636 Mn612 2.385 . S
O636 C614 1.234 . S
O637 Mn612 2.209 . S
O637 Mn613 2.215 . S
O637 C614 1.283 . S
O638 Mn612 2.094 . S
O638 C616 1.240 . S
O639 Mn613 2.117 . S
O639 C616 1.264 . S
C640 C633 1.403 . S
C640 C641 1.399 . S
C640 H646 0.929 . S
C641 C621 1.449 . S
C641 C640 1.399 . S
C641 H647 0.930 . S
H642 C622 0.931 . S
H643 C623 0.930 . S
H644 C631 0.931 . S
H645 C632 0.929 . S
H646 C640 0.929 . S
H647 C641 0.930 . S
Mn648 O653 2.095 . S
Mn648 O663 2.162 . S
Mn648 O664 2.297 . S
Mn648 O672 2.385 . S
Mn648 O673 2.209 . S
Mn648 O674 2.094 . S
Mn649 O654 2.121 . S
Mn649 N656 2.257 . S
Mn649 N665 2.282 . S
Mn649 O673 2.215 . S
Mn649 O675 2.117 . S
C650 O672 1.234 . S
C650 O673 1.283 . S
C651 O663 1.281 . S
C651 O664 1.236 . S
C652 O674 1.240 . S
C652 O675 1.264 . S
O653 Mn648 2.095 . S
O653 C662 1.250 . S
O654 Mn649 2.121 . S
O654 C662 1.258 . S
C655 N656 1.326 . S
C655 C659 1.460 . S
C655 H661 0.929 . S
N656 Mn649 2.257 . S
N656 C655 1.326 . S
N656 C660 1.362 . S
C657 C658 1.258 . S
C657 C660 1.431 . S
C657 C677 1.449 . S
C658 C657 1.258 . S
C658 C659 1.477 . S
C658 H678 0.931 . S
C659 C655 1.460 . S
C659 C658 1.477 . S
C659 H679 0.930 . S
C660 N656 1.362 . S
C660 C657 1.431 . S
C660 C670 1.476 . S
H661 C655 0.929 . S
C662 O653 1.250 . S
C662 O654 1.258 . S
O663 Mn648 2.162 . S
O663 C651 1.281 . S
O664 Mn648 2.297 . S
O664 C651 1.236 . S
N665 Mn649 2.282 . S
N665 C666 1.328 . S
N665 C670 1.318 . S
C666 N665 1.328 . S
C666 C667 1.457 . S
C666 H671 0.929 . S
C667 C666 1.457 . S
C667 C668 1.291 . S
C667 H680 0.931 . S
C668 C667 1.291 . S
C668 C669 1.373 . S
C668 H681 0.929 . S
C669 C668 1.373 . S
C669 C670 1.396 . S
C669 C676 1.403 . S
C670 C660 1.476 . S
C670 N665 1.318 . S
C670 C669 1.396 . S
H671 C666 0.929 . S
O672 Mn648 2.385 . S
O672 C650 1.234 . S
O673 Mn648 2.209 . S
O673 Mn649 2.215 . S
O673 C650 1.283 . S
O674 Mn648 2.094 . S
O674 C652 1.240 . S
O675 Mn649 2.117 . S
O675 C652 1.264 . S
C676 C669 1.403 . S
C676 C677 1.399 . S
C676 H682 0.929 . S
C677 C657 1.449 . S
C677 C676 1.399 . S
C677 H683 0.930 . S
H678 C658 0.931 . S
H679 C659 0.930 . S
H680 C667 0.931 . S
H681 C668 0.929 . S
H682 C676 0.929 . S
H683 C677 0.930 . S
Mn684 O689 2.095 . S
Mn684 O699 2.162 . S
Mn684 O700 2.297 . S
Mn684 O708 2.385 . S
Mn684 O709 2.209 . S
Mn684 O710 2.094 . S
Mn685 O690 2.121 . S
Mn685 N692 2.257 . S
Mn685 N701 2.282 . S
Mn685 O709 2.215 . S
Mn685 O711 2.117 . S
C686 O708 1.234 . S
C686 O709 1.283 . S
C687 O699 1.281 . S
C687 O700 1.236 . S
C688 O710 1.240 . S
C688 O711 1.264 . S
O689 Mn684 2.095 . S
O689 C698 1.250 . S
O690 Mn685 2.121 . S
O690 C698 1.258 . S
C691 N692 1.326 . S
C691 C695 1.460 . S
C691 H697 0.929 . S
N692 Mn685 2.257 . S
N692 C691 1.326 . S
N692 C696 1.362 . S
C693 C694 1.258 . S
C693 C696 1.431 . S
C693 C713 1.449 . S
C694 C693 1.258 . S
C694 C695 1.477 . S
C694 H714 0.931 . S
C695 C691 1.460 . S
C695 C694 1.477 . S
C695 H715 0.930 . S
C696 N692 1.362 . S
C696 C693 1.431 . S
C696 C706 1.476 . S
H697 C691 0.929 . S
C698 O689 1.250 . S
C698 O690 1.258 . S
O699 Mn684 2.162 . S
O699 C687 1.281 . S
O700 Mn684 2.297 . S
O700 C687 1.236 . S
N701 Mn685 2.282 . S
N701 C702 1.328 . S
N701 C706 1.318 . S
C702 N701 1.328 . S
C702 C703 1.457 . S
C702 H707 0.929 . S
C703 C702 1.457 . S
C703 C704 1.291 . S
C703 H716 0.931 . S
C704 C703 1.291 . S
C704 C705 1.373 . S
C704 H717 0.929 . S
C705 C704 1.373 . S
C705 C706 1.396 . S
C705 C712 1.403 . S
C706 C696 1.476 . S
C706 N701 1.318 . S
C706 C705 1.396 . S
H707 C702 0.929 . S
O708 Mn684 2.385 . S
O708 C686 1.234 . S
O709 Mn684 2.209 . S
O709 Mn685 2.215 . S
O709 C686 1.283 . S
O710 Mn684 2.094 . S
O710 C688 1.240 . S
O711 Mn685 2.117 . S
O711 C688 1.264 . S
C712 C705 1.403 . S
C712 C713 1.399 . S
C712 H718 0.929 . S
C713 C693 1.449 . S
C713 C712 1.399 . S
C713 H719 0.930 . S
H714 C694 0.931 . S
H715 C695 0.930 . S
H716 C703 0.931 . S
H717 C704 0.929 . S
H718 C712 0.929 . S
H719 C713 0.930 . S
Mn720 O725 2.095 . S
Mn720 O735 2.162 . S
Mn720 O736 2.297 . S
Mn720 O744 2.385 . S
Mn720 O745 2.209 . S
Mn720 O746 2.094 . S
Mn721 O726 2.121 . S
Mn721 N728 2.257 . S
Mn721 N737 2.282 . S
Mn721 O745 2.215 . S
Mn721 O747 2.117 . S
C722 O744 1.234 . S
C722 O745 1.283 . S
C723 O735 1.281 . S
C723 O736 1.236 . S
C724 O746 1.240 . S
C724 O747 1.264 . S
O725 Mn720 2.095 . S
O725 C734 1.250 . S
O726 Mn721 2.121 . S
O726 C734 1.258 . S
C727 N728 1.326 . S
C727 C731 1.460 . S
C727 H733 0.929 . S
N728 Mn721 2.257 . S
N728 C727 1.326 . S
N728 C732 1.362 . S
C729 C730 1.258 . S
C729 C732 1.431 . S
C729 C749 1.449 . S
C730 C729 1.258 . S
C730 C731 1.477 . S
C730 H750 0.931 . S
C731 C727 1.460 . S
C731 C730 1.477 . S
C731 H751 0.930 . S
C732 N728 1.362 . S
C732 C729 1.431 . S
C732 C742 1.476 . S
H733 C727 0.929 . S
C734 O725 1.250 . S
C734 O726 1.258 . S
O735 Mn720 2.162 . S
O735 C723 1.281 . S
O736 Mn720 2.297 . S
O736 C723 1.236 . S
N737 Mn721 2.282 . S
N737 C738 1.328 . S
N737 C742 1.318 . S
C738 N737 1.328 . S
C738 C739 1.457 . S
C738 H743 0.929 . S
C739 C738 1.457 . S
C739 C740 1.291 . S
C739 H752 0.931 . S
C740 C739 1.291 . S
C740 C741 1.373 . S
C740 H753 0.929 . S
C741 C740 1.373 . S
C741 C742 1.396 . S
C741 C748 1.403 . S
C742 C732 1.476 . S
C742 N737 1.318 . S
C742 C741 1.396 . S
H743 C738 0.929 . S
O744 Mn720 2.385 . S
O744 C722 1.234 . S
O745 Mn720 2.209 . S
O745 Mn721 2.215 . S
O745 C722 1.283 . S
O746 Mn720 2.094 . S
O746 C724 1.240 . S
O747 Mn721 2.117 . S
O747 C724 1.264 . S
C748 C741 1.403 . S
C748 C749 1.399 . S
C748 H754 0.929 . S
C749 C729 1.449 . S
C749 C748 1.399 . S
C749 H755 0.930 . S
H750 C730 0.931 . S
H751 C731 0.930 . S
H752 C739 0.931 . S
H753 C740 0.929 . S
H754 C748 0.929 . S
H755 C749 0.930 . S
Mn756 O761 2.095 . S
Mn756 O771 2.162 . S
Mn756 O772 2.297 . S
Mn756 O780 2.385 . S
Mn756 O781 2.209 . S
Mn756 O782 2.094 . S
Mn757 O762 2.121 . S
Mn757 N764 2.257 . S
Mn757 N773 2.282 . S
Mn757 O781 2.215 . S
Mn757 O783 2.117 . S
C758 O780 1.234 . S
C758 O781 1.283 . S
C759 O771 1.281 . S
C759 O772 1.236 . S
C760 O782 1.240 . S
C760 O783 1.264 . S
O761 Mn756 2.095 . S
O761 C770 1.250 . S
O762 Mn757 2.121 . S
O762 C770 1.258 . S
C763 N764 1.326 . S
C763 C767 1.460 . S
C763 H769 0.929 . S
N764 Mn757 2.257 . S
N764 C763 1.326 . S
N764 C768 1.362 . S
C765 C766 1.258 . S
C765 C768 1.431 . S
C765 C785 1.449 . S
C766 C765 1.258 . S
C766 C767 1.477 . S
C766 H786 0.931 . S
C767 C763 1.460 . S
C767 C766 1.477 . S
C767 H787 0.930 . S
C768 N764 1.362 . S
C768 C765 1.431 . S
C768 C778 1.476 . S
H769 C763 0.929 . S
C770 O761 1.250 . S
C770 O762 1.258 . S
O771 Mn756 2.162 . S
O771 C759 1.281 . S
O772 Mn756 2.297 . S
O772 C759 1.236 . S
N773 Mn757 2.282 . S
N773 C774 1.328 . S
N773 C778 1.318 . S
C774 N773 1.328 . S
C774 C775 1.457 . S
C774 H779 0.929 . S
C775 C774 1.457 . S
C775 C776 1.291 . S
C775 H788 0.931 . S
C776 C775 1.291 . S
C776 C777 1.373 . S
C776 H789 0.929 . S
C777 C776 1.373 . S
C777 C778 1.396 . S
C777 C784 1.403 . S
C778 C768 1.476 . S
C778 N773 1.318 . S
C778 C777 1.396 . S
H779 C774 0.929 . S
O780 Mn756 2.385 . S
O780 C758 1.234 . S
O781 Mn756 2.209 . S
O781 Mn757 2.215 . S
O781 C758 1.283 . S
O782 Mn756 2.094 . S
O782 C760 1.240 . S
O783 Mn757 2.117 . S
O783 C760 1.264 . S
C784 C777 1.403 . S
C784 C785 1.399 . S
C784 H790 0.929 . S
C785 C765 1.449 . S
C785 C784 1.399 . S
C785 H791 0.930 . S
H786 C766 0.931 . S
H787 C767 0.930 . S
H788 C775 0.931 . S
H789 C776 0.929 . S
H790 C784 0.929 . S
H791 C785 0.930 . S
Mn792 O797 2.095 . S
Mn792 O807 2.162 . S
Mn792 O808 2.297 . S
Mn792 O816 2.385 . S
Mn792 O817 2.209 . S
Mn792 O818 2.094 . S
Mn793 O798 2.121 . S
Mn793 N800 2.257 . S
Mn793 N809 2.282 . S
Mn793 O817 2.215 . S
Mn793 O819 2.117 . S
C794 O816 1.234 . S
C794 O817 1.283 . S
C795 O807 1.281 . S
C795 O808 1.236 . S
C796 O818 1.240 . S
C796 O819 1.264 . S
O797 Mn792 2.095 . S
O797 C806 1.250 . S
O798 Mn793 2.121 . S
O798 C806 1.258 . S
C799 N800 1.326 . S
C799 C803 1.460 . S
C799 H805 0.929 . S
N800 Mn793 2.257 . S
N800 C799 1.326 . S
N800 C804 1.362 . S
C801 C802 1.258 . S
C801 C804 1.431 . S
C801 C821 1.449 . S
C802 C801 1.258 . S
C802 C803 1.477 . S
C802 H822 0.931 . S
C803 C799 1.460 . S
C803 C802 1.477 . S
C803 H823 0.930 . S
C804 N800 1.362 . S
C804 C801 1.431 . S
C804 C814 1.476 . S
H805 C799 0.929 . S
C806 O797 1.250 . S
C806 O798 1.258 . S
O807 Mn792 2.162 . S
O807 C795 1.281 . S
O808 Mn792 2.297 . S
O808 C795 1.236 . S
N809 Mn793 2.282 . S
N809 C810 1.328 . S
N809 C814 1.318 . S
C810 N809 1.328 . S
C810 C811 1.457 . S
C810 H815 0.929 . S
C811 C810 1.457 . S
C811 C812 1.291 . S
C811 H824 0.931 . S
C812 C811 1.291 . S
C812 C813 1.373 . S
C812 H825 0.929 . S
C813 C812 1.373 . S
C813 C814 1.396 . S
C813 C820 1.403 . S
C814 C804 1.476 . S
C814 N809 1.318 . S
C814 C813 1.396 . S
H815 C810 0.929 . S
O816 Mn792 2.385 . S
O816 C794 1.234 . S
O817 Mn792 2.209 . S
O817 Mn793 2.215 . S
O817 C794 1.283 . S
O818 Mn792 2.094 . S
O818 C796 1.240 . S
O819 Mn793 2.117 . S
O819 C796 1.264 . S
C820 C813 1.403 . S
C820 C821 1.399 . S
C820 H826 0.929 . S
C821 C801 1.449 . S
C821 C820 1.399 . S
C821 H827 0.930 . S
H822 C802 0.931 . S
H823 C803 0.930 . S
H824 C811 0.931 . S
H825 C812 0.929 . S
H826 C820 0.929 . S
H827 C821 0.930 . S
Mn828 O833 2.095 . S
Mn828 O843 2.162 . S
Mn828 O844 2.297 . S
Mn828 O852 2.385 . S
Mn828 O853 2.209 . S
Mn828 O854 2.094 . S
Mn829 O834 2.121 . S
Mn829 N836 2.257 . S
Mn829 N845 2.282 . S
Mn829 O853 2.215 . S
Mn829 O855 2.117 . S
C830 O852 1.234 . S
C830 O853 1.283 . S
C831 O843 1.281 . S
C831 O844 1.236 . S
C832 O854 1.240 . S
C832 O855 1.264 . S
O833 Mn828 2.095 . S
O833 C842 1.250 . S
O834 Mn829 2.121 . S
O834 C842 1.258 . S
C835 N836 1.326 . S
C835 C839 1.460 . S
C835 H841 0.929 . S
N836 Mn829 2.257 . S
N836 C835 1.326 . S
N836 C840 1.362 . S
C837 C838 1.258 . S
C837 C840 1.431 . S
C837 C857 1.449 . S
C838 C837 1.258 . S
C838 C839 1.477 . S
C838 H858 0.931 . S
C839 C835 1.460 . S
C839 C838 1.477 . S
C839 H859 0.930 . S
C840 N836 1.362 . S
C840 C837 1.431 . S
C840 C850 1.476 . S
H841 C835 0.929 . S
C842 O833 1.250 . S
C842 O834 1.258 . S
O843 Mn828 2.162 . S
O843 C831 1.281 . S
O844 Mn828 2.297 . S
O844 C831 1.236 . S
N845 Mn829 2.282 . S
N845 C846 1.328 . S
N845 C850 1.318 . S
C846 N845 1.328 . S
C846 C847 1.457 . S
C846 H851 0.929 . S
C847 C846 1.457 . S
C847 C848 1.291 . S
C847 H860 0.931 . S
C848 C847 1.291 . S
C848 C849 1.373 . S
C848 H861 0.929 . S
C849 C848 1.373 . S
C849 C850 1.396 . S
C849 C856 1.403 . S
C850 C840 1.476 . S
C850 N845 1.318 . S
C850 C849 1.396 . S
H851 C846 0.929 . S
O852 Mn828 2.385 . S
O852 C830 1.234 . S
O853 Mn828 2.209 . S
O853 Mn829 2.215 . S
O853 C830 1.283 . S
O854 Mn828 2.094 . S
O854 C832 1.240 . S
O855 Mn829 2.117 . S
O855 C832 1.264 . S
C856 C849 1.403 . S
C856 C857 1.399 . S
C856 H862 0.929 . S
C857 C837 1.449 . S
C857 C856 1.399 . S
C857 H863 0.930 . S
H858 C838 0.931 . S
H859 C839 0.930 . S
H860 C847 0.931 . S
H861 C848 0.929 . S
H862 C856 0.929 . S
H863 C857 0.930 . S
Mn864 O869 2.095 . S
Mn864 O879 2.162 . S
Mn864 O880 2.297 . S
Mn864 O888 2.385 . S
Mn864 O889 2.209 . S
Mn864 O890 2.094 . S
Mn865 O870 2.121 . S
Mn865 N872 2.257 . S
Mn865 N881 2.282 . S
Mn865 O889 2.215 . S
Mn865 O891 2.117 . S
C866 O888 1.234 . S
C866 O889 1.283 . S
C867 O879 1.281 . S
C867 O880 1.236 . S
C868 O890 1.240 . S
C868 O891 1.264 . S
O869 Mn864 2.095 . S
O869 C878 1.250 . S
O870 Mn865 2.121 . S
O870 C878 1.258 . S
C871 N872 1.326 . S
C871 C875 1.460 . S
C871 H877 0.929 . S
N872 Mn865 2.257 . S
N872 C871 1.326 . S
N872 C876 1.362 . S
C873 C874 1.258 . S
C873 C876 1.431 . S
C873 C893 1.449 . S
C874 C873 1.258 . S
C874 C875 1.477 . S
C874 H894 0.931 . S
C875 C871 1.460 . S
C875 C874 1.477 . S
C875 H895 0.930 . S
C876 N872 1.362 . S
C876 C873 1.431 . S
C876 C886 1.476 . S
H877 C871 0.929 . S
C878 O869 1.250 . S
C878 O870 1.258 . S
O879 Mn864 2.162 . S
O879 C867 1.281 . S
O880 Mn864 2.297 . S
O880 C867 1.236 . S
N881 Mn865 2.282 . S
N881 C882 1.328 . S
N881 C886 1.318 . S
C882 N881 1.328 . S
C882 C883 1.457 . S
C882 H887 0.929 . S
C883 C882 1.457 . S
C883 C884 1.291 . S
C883 H896 0.931 . S
C884 C883 1.291 . S
C884 C885 1.373 . S
C884 H897 0.929 . S
C885 C884 1.373 . S
C885 C886 1.396 . S
C885 C892 1.403 . S
C886 C876 1.476 . S
C886 N881 1.318 . S
C886 C885 1.396 . S
H887 C882 0.929 . S
O888 Mn864 2.385 . S
O888 C866 1.234 . S
O889 Mn864 2.209 . S
O889 Mn865 2.215 . S
O889 C866 1.283 . S
O890 Mn864 2.094 . S
O890 C868 1.240 . S
O891 Mn865 2.117 . S
O891 C868 1.264 . S
C892 C885 1.403 . S
C892 C893 1.399 . S
C892 H898 0.929 . S
C893 C873 1.449 . S
C893 C892 1.399 . S
C893 H899 0.930 . S
H894 C874 0.931 . S
H895 C875 0.930 . S
H896 C883 0.931 . S
H897 C884 0.929 . S
H898 C892 0.929 . S
H899 C893 0.930 . S
Mn900 O905 2.095 . S
Mn900 O915 2.162 . S
Mn900 O916 2.297 . S
Mn900 O924 2.385 . S
Mn900 O925 2.209 . S
Mn900 O926 2.094 . S
Mn901 O906 2.121 . S
Mn901 N908 2.257 . S
Mn901 N917 2.282 . S
Mn901 O925 2.215 . S
Mn901 O927 2.117 . S
C902 O924 1.234 . S
C902 O925 1.283 . S
C903 O915 1.281 . S
C903 O916 1.236 . S
C904 O926 1.240 . S
C904 O927 1.264 . S
O905 Mn900 2.095 . S
O905 C914 1.250 . S
O906 Mn901 2.121 . S
O906 C914 1.258 . S
C907 N908 1.326 . S
C907 C911 1.460 . S
C907 H913 0.929 . S
N908 Mn901 2.257 . S
N908 C907 1.326 . S
N908 C912 1.362 . S
C909 C910 1.258 . S
C909 C912 1.431 . S
C909 C929 1.449 . S
C910 C909 1.258 . S
C910 C911 1.477 . S
C910 H930 0.931 . S
C911 C907 1.460 . S
C911 C910 1.477 . S
C911 H931 0.930 . S
C912 N908 1.362 . S
C912 C909 1.431 . S
C912 C922 1.476 . S
H913 C907 0.929 . S
C914 O905 1.250 . S
C914 O906 1.258 . S
O915 Mn900 2.162 . S
O915 C903 1.281 . S
O916 Mn900 2.297 . S
O916 C903 1.236 . S
N917 Mn901 2.282 . S
N917 C918 1.328 . S
N917 C922 1.318 . S
C918 N917 1.328 . S
C918 C919 1.457 . S
C918 H923 0.929 . S
C919 C918 1.457 . S
C919 C920 1.291 . S
C919 H932 0.931 . S
C920 C919 1.291 . S
C920 C921 1.373 . S
C920 H933 0.929 . S
C921 C920 1.373 . S
C921 C922 1.396 . S
C921 C928 1.403 . S
C922 C912 1.476 . S
C922 N917 1.318 . S
C922 C921 1.396 . S
H923 C918 0.929 . S
O924 Mn900 2.385 . S
O924 C902 1.234 . S
O925 Mn900 2.209 . S
O925 Mn901 2.215 . S
O925 C902 1.283 . S
O926 Mn900 2.094 . S
O926 C904 1.240 . S
O927 Mn901 2.117 . S
O927 C904 1.264 . S
C928 C921 1.403 . S
C928 C929 1.399 . S
C928 H934 0.929 . S
C929 C909 1.449 . S
C929 C928 1.399 . S
C929 H935 0.930 . S
H930 C910 0.931 . S
H931 C911 0.930 . S
H932 C919 0.931 . S
H933 C920 0.929 . S
H934 C928 0.929 . S
H935 C929 0.930 . S
Mn936 O941 2.095 . S
Mn936 O951 2.162 . S
Mn936 O952 2.297 . S
Mn936 O960 2.385 . S
Mn936 O961 2.209 . S
Mn936 O962 2.094 . S
Mn937 O942 2.121 . S
Mn937 N944 2.257 . S
Mn937 N953 2.282 . S
Mn937 O961 2.215 . S
Mn937 O963 2.117 . S
C938 O960 1.234 . S
C938 O961 1.283 . S
C939 O951 1.281 . S
C939 O952 1.236 . S
C940 O962 1.240 . S
C940 O963 1.264 . S
O941 Mn936 2.095 . S
O941 C950 1.250 . S
O942 Mn937 2.121 . S
O942 C950 1.258 . S
C943 N944 1.326 . S
C943 C947 1.460 . S
C943 H949 0.929 . S
N944 Mn937 2.257 . S
N944 C943 1.326 . S
N944 C948 1.362 . S
C945 C946 1.258 . S
C945 C948 1.431 . S
C945 C965 1.449 . S
C946 C945 1.258 . S
C946 C947 1.477 . S
C946 H966 0.931 . S
C947 C943 1.460 . S
C947 C946 1.477 . S
C947 H967 0.930 . S
C948 N944 1.362 . S
C948 C945 1.431 . S
C948 C958 1.476 . S
H949 C943 0.929 . S
C950 O941 1.250 . S
C950 O942 1.258 . S
O951 Mn936 2.162 . S
O951 C939 1.281 . S
O952 Mn936 2.297 . S
O952 C939 1.236 . S
N953 Mn937 2.282 . S
N953 C954 1.328 . S
N953 C958 1.318 . S
C954 N953 1.328 . S
C954 C955 1.457 . S
C954 H959 0.929 . S
C955 C954 1.457 . S
C955 C956 1.291 . S
C955 H968 0.931 . S
C956 C955 1.291 . S
C956 C957 1.373 . S
C956 H969 0.929 . S
C957 C956 1.373 . S
C957 C958 1.396 . S
C957 C964 1.403 . S
C958 C948 1.476 . S
C958 N953 1.318 . S
C958 C957 1.396 . S
H959 C954 0.929 . S
O960 Mn936 2.385 . S
O960 C938 1.234 . S
O961 Mn936 2.209 . S
O961 Mn937 2.215 . S
O961 C938 1.283 . S
O962 Mn936 2.094 . S
O962 C940 1.240 . S
O963 Mn937 2.117 . S
O963 C940 1.264 . S
C964 C957 1.403 . S
C964 C965 1.399 . S
C964 H970 0.929 . S
C965 C945 1.449 . S
C965 C964 1.399 . S
C965 H971 0.930 . S
H966 C946 0.931 . S
H967 C947 0.930 . S
H968 C955 0.931 . S
H969 C956 0.929 . S
H970 C964 0.929 . S
H971 C965 0.930 . S
Mn972 O977 2.095 . S
Mn972 O987 2.162 . S
Mn972 O988 2.297 . S
Mn972 O996 2.385 . S
Mn972 O997 2.209 . S
Mn972 O998 2.094 . S
Mn973 O978 2.121 . S
Mn973 N980 2.257 . S
Mn973 N989 2.282 . S
Mn973 O997 2.215 . S
Mn973 O999 2.117 . S
C974 O996 1.234 . S
C974 O997 1.283 . S
C975 O987 1.281 . S
C975 O988 1.236 . S
C976 O998 1.240 . S
C976 O999 1.264 . S
O977 Mn972 2.095 . S
O977 C986 1.250 . S
O978 Mn973 2.121 . S
O978 C986 1.258 . S
C979 N980 1.326 . S
C979 C983 1.460 . S
C979 H985 0.929 . S
N980 Mn973 2.257 . S
N980 C979 1.326 . S
N980 C984 1.362 . S
C981 C982 1.258 . S
C981 C984 1.431 . S
C981 C1001 1.449 . S
C982 C981 1.258 . S
C982 C983 1.477 . S
C982 H1002 0.931 . S
C983 C979 1.460 . S
C983 C982 1.477 . S
C983 H1003 0.930 . S
C984 N980 1.362 . S
C984 C981 1.431 . S
C984 C994 1.476 . S
H985 C979 0.929 . S
C986 O977 1.250 . S
C986 O978 1.258 . S
O987 Mn972 2.162 . S
O987 C975 1.281 . S
O988 Mn972 2.297 . S
O988 C975 1.236 . S
N989 Mn973 2.282 . S
N989 C990 1.328 . S
N989 C994 1.318 . S
C990 N989 1.328 . S
C990 C991 1.457 . S
C990 H995 0.929 . S
C991 C990 1.457 . S
C991 C992 1.291 . S
C991 H1004 0.931 . S
C992 C991 1.291 . S
C992 C993 1.373 . S
C992 H1005 0.929 . S
C993 C992 1.373 . S
C993 C994 1.396 . S
C993 C1000 1.403 . S
C994 C984 1.476 . S
C994 N989 1.318 . S
C994 C993 1.396 . S
H995 C990 0.929 . S
O996 Mn972 2.385 . S
O996 C974 1.234 . S
O997 Mn972 2.209 . S
O997 Mn973 2.215 . S
O997 C974 1.283 . S
O998 Mn972 2.094 . S
O998 C976 1.240 . S
O999 Mn973 2.117 . S
O999 C976 1.264 . S
C1000 C993 1.403 . S
C1000 C1001 1.399 . S
C1000 H1006 0.929 . S
C1001 C981 1.449 . S
C1001 C1000 1.399 . S
C1001 H1007 0.930 . S
H1002 C982 0.931 . S
H1003 C983 0.930 . S
H1004 C991 0.931 . S
H1005 C992 0.929 . S
H1006 C1000 0.929 . S
H1007 C1001 0.930 . S
Mn1008 O1013 2.095 . S
Mn1008 O1023 2.162 . S
Mn1008 O1024 2.297 . S
Mn1008 O1032 2.385 . S
Mn1008 O1033 2.209 . S
Mn1008 O1034 2.094 . S
Mn1009 O1014 2.121 . S
Mn1009 N1016 2.257 . S
Mn1009 N1025 2.282 . S
Mn1009 O1033 2.215 . S
Mn1009 O1035 2.117 . S
C1010 O1032 1.234 . S
C1010 O1033 1.283 . S
C1011 O1023 1.281 . S
C1011 O1024 1.236 . S
C1012 O1034 1.240 . S
C1012 O1035 1.264 . S
O1013 Mn1008 2.095 . S
O1013 C1022 1.250 . S
O1014 Mn1009 2.121 . S
O1014 C1022 1.258 . S
C1015 N1016 1.326 . S
C1015 C1019 1.460 . S
C1015 H1021 0.929 . S
N1016 Mn1009 2.257 . S
N1016 C1015 1.326 . S
N1016 C1020 1.362 . S
C1017 C1018 1.258 . S
C1017 C1020 1.431 . S
C1017 C1037 1.449 . S
C1018 C1017 1.258 . S
C1018 C1019 1.477 . S
C1018 H1038 0.931 . S
C1019 C1015 1.460 . S
C1019 C1018 1.477 . S
C1019 H1039 0.930 . S
C1020 N1016 1.362 . S
C1020 C1017 1.431 . S
C1020 C1030 1.476 . S
H1021 C1015 0.929 . S
C1022 O1013 1.250 . S
C1022 O1014 1.258 . S
O1023 Mn1008 2.162 . S
O1023 C1011 1.281 . S
O1024 Mn1008 2.297 . S
O1024 C1011 1.236 . S
N1025 Mn1009 2.282 . S
N1025 C1026 1.328 . S
N1025 C1030 1.318 . S
C1026 N1025 1.328 . S
C1026 C1027 1.457 . S
C1026 H1031 0.929 . S
C1027 C1026 1.457 . S
C1027 C1028 1.291 . S
C1027 H1040 0.931 . S
C1028 C1027 1.291 . S
C1028 C1029 1.373 . S
C1028 H1041 0.929 . S
C1029 C1028 1.373 . S
C1029 C1030 1.396 . S
C1029 C1036 1.403 . S
C1030 C1020 1.476 . S
C1030 N1025 1.318 . S
C1030 C1029 1.396 . S
H1031 C1026 0.929 . S
O1032 Mn1008 2.385 . S
O1032 C1010 1.234 . S
O1033 Mn1008 2.209 . S
O1033 Mn1009 2.215 . S
O1033 C1010 1.283 . S
O1034 Mn1008 2.094 . S
O1034 C1012 1.240 . S
O1035 Mn1009 2.117 . S
O1035 C1012 1.264 . S
C1036 C1029 1.403 . S
C1036 C1037 1.399 . S
C1036 H1042 0.929 . S
C1037 C1017 1.449 . S
C1037 C1036 1.399 . S
C1037 H1043 0.930 . S
H1038 C1018 0.931 . S
H1039 C1019 0.930 . S
H1040 C1027 0.931 . S
H1041 C1028 0.929 . S
H1042 C1036 0.929 . S
H1043 C1037 0.930 . S
Mn1044 O1049 2.095 . S
Mn1044 O1059 2.162 . S
Mn1044 O1060 2.297 . S
Mn1044 O1068 2.385 . S
Mn1044 O1069 2.209 . S
Mn1044 O1070 2.094 . S
Mn1045 O1050 2.121 . S
Mn1045 N1052 2.257 . S
Mn1045 N1061 2.282 . S
Mn1045 O1069 2.215 . S
Mn1045 O1071 2.117 . S
C1046 O1068 1.234 . S
C1046 O1069 1.283 . S
C1047 O1059 1.281 . S
C1047 O1060 1.236 . S
C1048 O1070 1.240 . S
C1048 O1071 1.264 . S
O1049 Mn1044 2.095 . S
O1049 C1058 1.250 . S
O1050 Mn1045 2.121 . S
O1050 C1058 1.258 . S
C1051 N1052 1.326 . S
C1051 C1055 1.460 . S
C1051 H1057 0.929 . S
N1052 Mn1045 2.257 . S
N1052 C1051 1.326 . S
N1052 C1056 1.362 . S
C1053 C1054 1.258 . S
C1053 C1056 1.431 . S
C1053 C1073 1.449 . S
C1054 C1053 1.258 . S
C1054 C1055 1.477 . S
C1054 H1074 0.931 . S
C1055 C1051 1.460 . S
C1055 C1054 1.477 . S
C1055 H1075 0.930 . S
C1056 N1052 1.362 . S
C1056 C1053 1.431 . S
C1056 C1066 1.476 . S
H1057 C1051 0.929 . S
C1058 O1049 1.250 . S
C1058 O1050 1.258 . S
O1059 Mn1044 2.162 . S
O1059 C1047 1.281 . S
O1060 Mn1044 2.297 . S
O1060 C1047 1.236 . S
N1061 Mn1045 2.282 . S
N1061 C1062 1.328 . S
N1061 C1066 1.318 . S
C1062 N1061 1.328 . S
C1062 C1063 1.457 . S
C1062 H1067 0.929 . S
C1063 C1062 1.457 . S
C1063 C1064 1.291 . S
C1063 H1076 0.931 . S
C1064 C1063 1.291 . S
C1064 C1065 1.373 . S
C1064 H1077 0.929 . S
C1065 C1064 1.373 . S
C1065 C1066 1.396 . S
C1065 C1072 1.403 . S
C1066 C1056 1.476 . S
C1066 N1061 1.318 . S
C1066 C1065 1.396 . S
H1067 C1062 0.929 . S
O1068 Mn1044 2.385 . S
O1068 C1046 1.234 . S
O1069 Mn1044 2.209 . S
O1069 Mn1045 2.215 . S
O1069 C1046 1.283 . S
O1070 Mn1044 2.094 . S
O1070 C1048 1.240 . S
O1071 Mn1045 2.117 . S
O1071 C1048 1.264 . S
C1072 C1065 1.403 . S
C1072 C1073 1.399 . S
C1072 H1078 0.929 . S
C1073 C1053 1.449 . S
C1073 C1072 1.399 . S
C1073 H1079 0.930 . S
H1074 C1054 0.931 . S
H1075 C1055 0.930 . S
H1076 C1063 0.931 . S
H1077 C1064 0.929 . S
H1078 C1072 0.929 . S
H1079 C1073 0.930 . S
Mn1080 O1085 2.095 . S
Mn1080 O1095 2.162 . S
Mn1080 O1096 2.297 . S
Mn1080 O1104 2.385 . S
Mn1080 O1105 2.209 . S
Mn1080 O1106 2.094 . S
Mn1081 O1086 2.121 . S
Mn1081 N1088 2.257 . S
Mn1081 N1097 2.282 . S
Mn1081 O1105 2.215 . S
Mn1081 O1107 2.117 . S
C1082 O1104 1.234 . S
C1082 O1105 1.283 . S
C1083 O1095 1.281 . S
C1083 O1096 1.236 . S
C1084 O1106 1.240 . S
C1084 O1107 1.264 . S
O1085 Mn1080 2.095 . S
O1085 C1094 1.250 . S
O1086 Mn1081 2.121 . S
O1086 C1094 1.258 . S
C1087 N1088 1.326 . S
C1087 C1091 1.460 . S
C1087 H1093 0.929 . S
N1088 Mn1081 2.257 . S
N1088 C1087 1.326 . S
N1088 C1092 1.362 . S
C1089 C1090 1.258 . S
C1089 C1092 1.431 . S
C1089 C1109 1.449 . S
C1090 C1089 1.258 . S
C1090 C1091 1.477 . S
C1090 H1110 0.931 . S
C1091 C1087 1.460 . S
C1091 C1090 1.477 . S
C1091 H1111 0.930 . S
C1092 N1088 1.362 . S
C1092 C1089 1.431 . S
C1092 C1102 1.476 . S
H1093 C1087 0.929 . S
C1094 O1085 1.250 . S
C1094 O1086 1.258 . S
O1095 Mn1080 2.162 . S
O1095 C1083 1.281 . S
O1096 Mn1080 2.297 . S
O1096 C1083 1.236 . S
N1097 Mn1081 2.282 . S
N1097 C1098 1.328 . S
N1097 C1102 1.318 . S
C1098 N1097 1.328 . S
C1098 C1099 1.457 . S
C1098 H1103 0.929 . S
C1099 C1098 1.457 . S
C1099 C1100 1.291 . S
C1099 H1112 0.931 . S
C1100 C1099 1.291 . S
C1100 C1101 1.373 . S
C1100 H1113 0.929 . S
C1101 C1100 1.373 . S
C1101 C1102 1.396 . S
C1101 C1108 1.403 . S
C1102 C1092 1.476 . S
C1102 N1097 1.318 . S
C1102 C1101 1.396 . S
H1103 C1098 0.929 . S
O1104 Mn1080 2.385 . S
O1104 C1082 1.234 . S
O1105 Mn1080 2.209 . S
O1105 Mn1081 2.215 . S
O1105 C1082 1.283 . S
O1106 Mn1080 2.094 . S
O1106 C1084 1.240 . S
O1107 Mn1081 2.117 . S
O1107 C1084 1.264 . S
C1108 C1101 1.403 . S
C1108 C1109 1.399 . S
C1108 H1114 0.929 . S
C1109 C1089 1.449 . S
C1109 C1108 1.399 . S
C1109 H1115 0.930 . S
H1110 C1090 0.931 . S
H1111 C1091 0.930 . S
H1112 C1099 0.931 . S
H1113 C1100 0.929 . S
H1114 C1108 0.929 . S
H1115 C1109 0.930 . S
Mn1116 O1121 2.095 . S
Mn1116 O1131 2.162 . S
Mn1116 O1132 2.297 . S
Mn1116 O1140 2.385 . S
Mn1116 O1141 2.209 . S
Mn1116 O1142 2.094 . S
Mn1117 O1122 2.121 . S
Mn1117 N1124 2.257 . S
Mn1117 N1133 2.282 . S
Mn1117 O1141 2.215 . S
Mn1117 O1143 2.117 . S
C1118 O1140 1.234 . S
C1118 O1141 1.283 . S
C1119 O1131 1.281 . S
C1119 O1132 1.236 . S
C1120 O1142 1.240 . S
C1120 O1143 1.264 . S
O1121 Mn1116 2.095 . S
O1121 C1130 1.250 . S
O1122 Mn1117 2.121 . S
O1122 C1130 1.258 . S
C1123 N1124 1.326 . S
C1123 C1127 1.460 . S
C1123 H1129 0.929 . S
N1124 Mn1117 2.257 . S
N1124 C1123 1.326 . S
N1124 C1128 1.362 . S
C1125 C1126 1.258 . S
C1125 C1128 1.431 . S
C1125 C1145 1.449 . S
C1126 C1125 1.258 . S
C1126 C1127 1.477 . S
C1126 H1146 0.931 . S
C1127 C1123 1.460 . S
C1127 C1126 1.477 . S
C1127 H1147 0.930 . S
C1128 N1124 1.362 . S
C1128 C1125 1.431 . S
C1128 C1138 1.476 . S
H1129 C1123 0.929 . S
C1130 O1121 1.250 . S
C1130 O1122 1.258 . S
O1131 Mn1116 2.162 . S
O1131 C1119 1.281 . S
O1132 Mn1116 2.297 . S
O1132 C1119 1.236 . S
N1133 Mn1117 2.282 . S
N1133 C1134 1.328 . S
N1133 C1138 1.318 . S
C1134 N1133 1.328 . S
C1134 C1135 1.457 . S
C1134 H1139 0.929 . S
C1135 C1134 1.457 . S
C1135 C1136 1.291 . S
C1135 H1148 0.931 . S
C1136 C1135 1.291 . S
C1136 C1137 1.373 . S
C1136 H1149 0.929 . S
C1137 C1136 1.373 . S
C1137 C1138 1.396 . S
C1137 C1144 1.403 . S
C1138 C1128 1.476 . S
C1138 N1133 1.318 . S
C1138 C1137 1.396 . S
H1139 C1134 0.929 . S
O1140 Mn1116 2.385 . S
O1140 C1118 1.234 . S
O1141 Mn1116 2.209 . S
O1141 Mn1117 2.215 . S
O1141 C1118 1.283 . S
O1142 Mn1116 2.094 . S
O1142 C1120 1.240 . S
O1143 Mn1117 2.117 . S
O1143 C1120 1.264 . S
C1144 C1137 1.403 . S
C1144 C1145 1.399 . S
C1144 H1150 0.929 . S
C1145 C1125 1.449 . S
C1145 C1144 1.399 . S
C1145 H1151 0.930 . S
H1146 C1126 0.931 . S
H1147 C1127 0.930 . S
H1148 C1135 0.931 . S
H1149 C1136 0.929 . S
H1150 C1144 0.929 . S
H1151 C1145 0.930 . S
Mn1152 O1157 2.095 . S
Mn1152 O1167 2.162 . S
Mn1152 O1168 2.297 . S
Mn1152 O1176 2.385 . S
Mn1152 O1177 2.209 . S
Mn1152 O1178 2.094 . S
Mn1153 O1158 2.121 . S
Mn1153 N1160 2.257 . S
Mn1153 N1169 2.282 . S
Mn1153 O1177 2.215 . S
Mn1153 O1179 2.117 . S
C1154 O1176 1.234 . S
C1154 O1177 1.283 . S
C1155 O1167 1.281 . S
C1155 O1168 1.236 . S
C1156 O1178 1.240 . S
C1156 O1179 1.264 . S
O1157 Mn1152 2.095 . S
O1157 C1166 1.250 . S
O1158 Mn1153 2.121 . S
O1158 C1166 1.258 . S
C1159 N1160 1.326 . S
C1159 C1163 1.460 . S
C1159 H1165 0.929 . S
N1160 Mn1153 2.257 . S
N1160 C1159 1.326 . S
N1160 C1164 1.362 . S
C1161 C1162 1.258 . S
C1161 C1164 1.431 . S
C1161 C1181 1.449 . S
C1162 C1161 1.258 . S
C1162 C1163 1.477 . S
C1162 H1182 0.931 . S
C1163 C1159 1.460 . S
C1163 C1162 1.477 . S
C1163 H1183 0.930 . S
C1164 N1160 1.362 . S
C1164 C1161 1.431 . S
C1164 C1174 1.476 . S
H1165 C1159 0.929 . S
C1166 O1157 1.250 . S
C1166 O1158 1.258 . S
O1167 Mn1152 2.162 . S
O1167 C1155 1.281 . S
O1168 Mn1152 2.297 . S
O1168 C1155 1.236 . S
N1169 Mn1153 2.282 . S
N1169 C1170 1.328 . S
N1169 C1174 1.318 . S
C1170 N1169 1.328 . S
C1170 C1171 1.457 . S
C1170 H1175 0.929 . S
C1171 C1170 1.457 . S
C1171 C1172 1.291 . S
C1171 H1184 0.931 . S
C1172 C1171 1.291 . S
C1172 C1173 1.373 . S
C1172 H1185 0.929 . S
C1173 C1172 1.373 . S
C1173 C1174 1.396 . S
C1173 C1180 1.403 . S
C1174 C1164 1.476 . S
C1174 N1169 1.318 . S
C1174 C1173 1.396 . S
H1175 C1170 0.929 . S
O1176 Mn1152 2.385 . S
O1176 C1154 1.234 . S
O1177 Mn1152 2.209 . S
O1177 Mn1153 2.215 . S
O1177 C1154 1.283 . S
O1178 Mn1152 2.094 . S
O1178 C1156 1.240 . S
O1179 Mn1153 2.117 . S
O1179 C1156 1.264 . S
C1180 C1173 1.403 . S
C1180 C1181 1.399 . S
C1180 H1186 0.929 . S
C1181 C1161 1.449 . S
C1181 C1180 1.399 . S
C1181 H1187 0.930 . S
H1182 C1162 0.931 . S
H1183 C1163 0.930 . S
H1184 C1171 0.931 . S
H1185 C1172 0.929 . S
H1186 C1180 0.929 . S
H1187 C1181 0.930 . S
Mn1188 O1193 2.095 . S
Mn1188 O1203 2.162 . S
Mn1188 O1204 2.297 . S
Mn1188 O1212 2.385 . S
Mn1188 O1213 2.209 . S
Mn1188 O1214 2.094 . S
Mn1189 O1194 2.121 . S
Mn1189 N1196 2.257 . S
Mn1189 N1205 2.282 . S
Mn1189 O1213 2.215 . S
Mn1189 O1215 2.117 . S
C1190 O1212 1.234 . S
C1190 O1213 1.283 . S
C1191 O1203 1.281 . S
C1191 O1204 1.236 . S
C1192 O1214 1.240 . S
C1192 O1215 1.264 . S
O1193 Mn1188 2.095 . S
O1193 C1202 1.250 . S
O1194 Mn1189 2.121 . S
O1194 C1202 1.258 . S
C1195 N1196 1.326 . S
C1195 C1199 1.460 . S
C1195 H1201 0.929 . S
N1196 Mn1189 2.257 . S
N1196 C1195 1.326 . S
N1196 C1200 1.362 . S
C1197 C1198 1.258 . S
C1197 C1200 1.431 . S
C1197 C1217 1.449 . S
C1198 C1197 1.258 . S
C1198 C1199 1.477 . S
C1198 H1218 0.931 . S
C1199 C1195 1.460 . S
C1199 C1198 1.477 . S
C1199 H1219 0.930 . S
C1200 N1196 1.362 . S
C1200 C1197 1.431 . S
C1200 C1210 1.476 . S
H1201 C1195 0.929 . S
C1202 O1193 1.250 . S
C1202 O1194 1.258 . S
O1203 Mn1188 2.162 . S
O1203 C1191 1.281 . S
O1204 Mn1188 2.297 . S
O1204 C1191 1.236 . S
N1205 Mn1189 2.282 . S
N1205 C1206 1.328 . S
N1205 C1210 1.318 . S
C1206 N1205 1.328 . S
C1206 C1207 1.457 . S
C1206 H1211 0.929 . S
C1207 C1206 1.457 . S
C1207 C1208 1.291 . S
C1207 H1220 0.931 . S
C1208 C1207 1.291 . S
C1208 C1209 1.373 . S
C1208 H1221 0.929 . S
C1209 C1208 1.373 . S
C1209 C1210 1.396 . S
C1209 C1216 1.403 . S
C1210 C1200 1.476 . S
C1210 N1205 1.318 . S
C1210 C1209 1.396 . S
H1211 C1206 0.929 . S
O1212 Mn1188 2.385 . S
O1212 C1190 1.234 . S
O1213 Mn1188 2.209 . S
O1213 Mn1189 2.215 . S
O1213 C1190 1.283 . S
O1214 Mn1188 2.094 . S
O1214 C1192 1.240 . S
O1215 Mn1189 2.117 . S
O1215 C1192 1.264 . S
C1216 C1209 1.403 . S
C1216 C1217 1.399 . S
C1216 H1222 0.929 . S
C1217 C1197 1.449 . S
C1217 C1216 1.399 . S
C1217 H1223 0.930 . S
H1218 C1198 0.931 . S
H1219 C1199 0.930 . S
H1220 C1207 0.931 . S
H1221 C1208 0.929 . S
H1222 C1216 0.929 . S
H1223 C1217 0.930 . S
Mn1224 O1229 2.095 . S
Mn1224 O1239 2.162 . S
Mn1224 O1240 2.297 . S
Mn1224 O1248 2.385 . S
Mn1224 O1249 2.209 . S
Mn1224 O1250 2.094 . S
Mn1225 O1230 2.121 . S
Mn1225 N1232 2.257 . S
Mn1225 N1241 2.282 . S
Mn1225 O1249 2.215 . S
Mn1225 O1251 2.117 . S
C1226 O1248 1.234 . S
C1226 O1249 1.283 . S
C1227 O1239 1.281 . S
C1227 O1240 1.236 . S
C1228 O1250 1.240 . S
C1228 O1251 1.264 . S
O1229 Mn1224 2.095 . S
O1229 C1238 1.250 . S
O1230 Mn1225 2.121 . S
O1230 C1238 1.258 . S
C1231 N1232 1.326 . S
C1231 C1235 1.460 . S
C1231 H1237 0.929 . S
N1232 Mn1225 2.257 . S
N1232 C1231 1.326 . S
N1232 C1236 1.362 . S
C1233 C1234 1.258 . S
C1233 C1236 1.431 . S
C1233 C1253 1.449 . S
C1234 C1233 1.258 . S
C1234 C1235 1.477 . S
C1234 H1254 0.931 . S
C1235 C1231 1.460 . S
C1235 C1234 1.477 . S
C1235 H1255 0.930 . S
C1236 N1232 1.362 . S
C1236 C1233 1.431 . S
C1236 C1246 1.476 . S
H1237 C1231 0.929 . S
C1238 O1229 1.250 . S
C1238 O1230 1.258 . S
O1239 Mn1224 2.162 . S
O1239 C1227 1.281 . S
O1240 Mn1224 2.297 . S
O1240 C1227 1.236 . S
N1241 Mn1225 2.282 . S
N1241 C1242 1.328 . S
N1241 C1246 1.318 . S
C1242 N1241 1.328 . S
C1242 C1243 1.457 . S
C1242 H1247 0.929 . S
C1243 C1242 1.457 . S
C1243 C1244 1.291 . S
C1243 H1256 0.931 . S
C1244 C1243 1.291 . S
C1244 C1245 1.373 . S
C1244 H1257 0.929 . S
C1245 C1244 1.373 . S
C1245 C1246 1.396 . S
C1245 C1252 1.403 . S
C1246 C1236 1.476 . S
C1246 N1241 1.318 . S
C1246 C1245 1.396 . S
H1247 C1242 0.929 . S
O1248 Mn1224 2.385 . S
O1248 C1226 1.234 . S
O1249 Mn1224 2.209 . S
O1249 Mn1225 2.215 . S
O1249 C1226 1.283 . S
O1250 Mn1224 2.094 . S
O1250 C1228 1.240 . S
O1251 Mn1225 2.117 . S
O1251 C1228 1.264 . S
C1252 C1245 1.403 . S
C1252 C1253 1.399 . S
C1252 H1258 0.929 . S
C1253 C1233 1.449 . S
C1253 C1252 1.399 . S
C1253 H1259 0.930 . S
H1254 C1234 0.931 . S
H1255 C1235 0.930 . S
H1256 C1243 0.931 . S
H1257 C1244 0.929 . S
H1258 C1252 0.929 . S
H1259 C1253 0.930 . S
Mn1260 O1265 2.095 . S
Mn1260 O1275 2.162 . S
Mn1260 O1276 2.297 . S
Mn1260 O1284 2.385 . S
Mn1260 O1285 2.209 . S
Mn1260 O1286 2.094 . S
Mn1261 O1266 2.121 . S
Mn1261 N1268 2.257 . S
Mn1261 N1277 2.282 . S
Mn1261 O1285 2.215 . S
Mn1261 O1287 2.117 . S
C1262 O1284 1.234 . S
C1262 O1285 1.283 . S
C1263 O1275 1.281 . S
C1263 O1276 1.236 . S
C1264 O1286 1.240 . S
C1264 O1287 1.264 . S
O1265 Mn1260 2.095 . S
O1265 C1274 1.250 . S
O1266 Mn1261 2.121 . S
O1266 C1274 1.258 . S
C1267 N1268 1.326 . S
C1267 C1271 1.460 . S
C1267 H1273 0.929 . S
N1268 Mn1261 2.257 . S
N1268 C1267 1.326 . S
N1268 C1272 1.362 . S
C1269 C1270 1.258 . S
C1269 C1272 1.431 . S
C1269 C1289 1.449 . S
C1270 C1269 1.258 . S
C1270 C1271 1.477 . S
C1270 H1290 0.931 . S
C1271 C1267 1.460 . S
C1271 C1270 1.477 . S
C1271 H1291 0.930 . S
C1272 N1268 1.362 . S
C1272 C1269 1.431 . S
C1272 C1282 1.476 . S
H1273 C1267 0.929 . S
C1274 O1265 1.250 . S
C1274 O1266 1.258 . S
O1275 Mn1260 2.162 . S
O1275 C1263 1.281 . S
O1276 Mn1260 2.297 . S
O1276 C1263 1.236 . S
N1277 Mn1261 2.282 . S
N1277 C1278 1.328 . S
N1277 C1282 1.318 . S
C1278 N1277 1.328 . S
C1278 C1279 1.457 . S
C1278 H1283 0.929 . S
C1279 C1278 1.457 . S
C1279 C1280 1.291 . S
C1279 H1292 0.931 . S
C1280 C1279 1.291 . S
C1280 C1281 1.373 . S
C1280 H1293 0.929 . S
C1281 C1280 1.373 . S
C1281 C1282 1.396 . S
C1281 C1288 1.403 . S
C1282 C1272 1.476 . S
C1282 N1277 1.318 . S
C1282 C1281 1.396 . S
H1283 C1278 0.929 . S
O1284 Mn1260 2.385 . S
O1284 C1262 1.234 . S
O1285 Mn1260 2.209 . S
O1285 Mn1261 2.215 . S
O1285 C1262 1.283 . S
O1286 Mn1260 2.094 . S
O1286 C1264 1.240 . S
O1287 Mn1261 2.117 . S
O1287 C1264 1.264 . S
C1288 C1281 1.403 . S
C1288 C1289 1.399 . S
C1288 H1294 0.929 . S
C1289 C1269 1.449 . S
C1289 C1288 1.399 . S
C1289 H1295 0.930 . S
H1290 C1270 0.931 . S
H1291 C1271 0.930 . S
H1292 C1279 0.931 . S
H1293 C1280 0.929 . S
H1294 C1288 0.929 . S
H1295 C1289 0.930 . S
Mn1296 O1301 2.095 . S
Mn1296 O1311 2.162 . S
Mn1296 O1312 2.297 . S
Mn1296 O1320 2.385 . S
Mn1296 O1321 2.209 . S
Mn1296 O1322 2.094 . S
Mn1297 O1302 2.121 . S
Mn1297 N1304 2.257 . S
Mn1297 N1313 2.282 . S
Mn1297 O1321 2.215 . S
Mn1297 O1323 2.117 . S
C1298 O1320 1.234 . S
C1298 O1321 1.283 . S
C1299 O1311 1.281 . S
C1299 O1312 1.236 . S
C1300 O1322 1.240 . S
C1300 O1323 1.264 . S
O1301 Mn1296 2.095 . S
O1301 C1310 1.250 . S
O1302 Mn1297 2.121 . S
O1302 C1310 1.258 . S
C1303 N1304 1.326 . S
C1303 C1307 1.460 . S
C1303 H1309 0.929 . S
N1304 Mn1297 2.257 . S
N1304 C1303 1.326 . S
N1304 C1308 1.362 . S
C1305 C1306 1.258 . S
C1305 C1308 1.431 . S
C1305 C1325 1.449 . S
C1306 C1305 1.258 . S
C1306 C1307 1.477 . S
C1306 H1326 0.931 . S
C1307 C1303 1.460 . S
C1307 C1306 1.477 . S
C1307 H1327 0.930 . S
C1308 N1304 1.362 . S
C1308 C1305 1.431 . S
C1308 C1318 1.476 . S
H1309 C1303 0.929 . S
C1310 O1301 1.250 . S
C1310 O1302 1.258 . S
O1311 Mn1296 2.162 . S
O1311 C1299 1.281 . S
O1312 Mn1296 2.297 . S
O1312 C1299 1.236 . S
N1313 Mn1297 2.282 . S
N1313 C1314 1.328 . S
N1313 C1318 1.318 . S
C1314 N1313 1.328 . S
C1314 C1315 1.457 . S
C1314 H1319 0.929 . S
C1315 C1314 1.457 . S
C1315 C1316 1.291 . S
C1315 H1328 0.931 . S
C1316 C1315 1.291 . S
C1316 C1317 1.373 . S
C1316 H1329 0.929 . S
C1317 C1316 1.373 . S
C1317 C1318 1.396 . S
C1317 C1324 1.403 . S
C1318 C1308 1.476 . S
C1318 N1313 1.318 . S
C1318 C1317 1.396 . S
H1319 C1314 0.929 . S
O1320 Mn1296 2.385 . S
O1320 C1298 1.234 . S
O1321 Mn1296 2.209 . S
O1321 Mn1297 2.215 . S
O1321 C1298 1.283 . S
O1322 Mn1296 2.094 . S
O1322 C1300 1.240 . S
O1323 Mn1297 2.117 . S
O1323 C1300 1.264 . S
C1324 C1317 1.403 . S
C1324 C1325 1.399 . S
C1324 H1330 0.929 . S
C1325 C1305 1.449 . S
C1325 C1324 1.399 . S
C1325 H1331 0.930 . S
H1326 C1306 0.931 . S
H1327 C1307 0.930 . S
H1328 C1315 0.931 . S
H1329 C1316 0.929 . S
H1330 C1324 0.929 . S
H1331 C1325 0.930 . S
Mn1332 O1337 2.095 . S
Mn1332 O1347 2.162 . S
Mn1332 O1348 2.297 . S
Mn1332 O1356 2.385 . S
Mn1332 O1357 2.209 . S
Mn1332 O1358 2.094 . S
Mn1333 O1338 2.121 . S
Mn1333 N1340 2.257 . S
Mn1333 N1349 2.282 . S
Mn1333 O1357 2.215 . S
Mn1333 O1359 2.117 . S
C1334 O1356 1.234 . S
C1334 O1357 1.283 . S
C1335 O1347 1.281 . S
C1335 O1348 1.236 . S
C1336 O1358 1.240 . S
C1336 O1359 1.264 . S
O1337 Mn1332 2.095 . S
O1337 C1346 1.250 . S
O1338 Mn1333 2.121 . S
O1338 C1346 1.258 . S
C1339 N1340 1.326 . S
C1339 C1343 1.460 . S
C1339 H1345 0.929 . S
N1340 Mn1333 2.257 . S
N1340 C1339 1.326 . S
N1340 C1344 1.362 . S
C1341 C1342 1.258 . S
C1341 C1344 1.431 . S
C1341 C1361 1.449 . S
C1342 C1341 1.258 . S
C1342 C1343 1.477 . S
C1342 H1362 0.931 . S
C1343 C1339 1.460 . S
C1343 C1342 1.477 . S
C1343 H1363 0.930 . S
C1344 N1340 1.362 . S
C1344 C1341 1.431 . S
C1344 C1354 1.476 . S
H1345 C1339 0.929 . S
C1346 O1337 1.250 . S
C1346 O1338 1.258 . S
O1347 Mn1332 2.162 . S
O1347 C1335 1.281 . S
O1348 Mn1332 2.297 . S
O1348 C1335 1.236 . S
N1349 Mn1333 2.282 . S
N1349 C1350 1.328 . S
N1349 C1354 1.318 . S
C1350 N1349 1.328 . S
C1350 C1351 1.457 . S
C1350 H1355 0.929 . S
C1351 C1350 1.457 . S
C1351 C1352 1.291 . S
C1351 H1364 0.931 . S
C1352 C1351 1.291 . S
C1352 C1353 1.373 . S
C1352 H1365 0.929 . S
C1353 C1352 1.373 . S
C1353 C1354 1.396 . S
C1353 C1360 1.403 . S
C1354 C1344 1.476 . S
C1354 N1349 1.318 . S
C1354 C1353 1.396 . S
H1355 C1350 0.929 . S
O1356 Mn1332 2.385 . S
O1356 C1334 1.234 . S
O1357 Mn1332 2.209 . S
O1357 Mn1333 2.215 . S
O1357 C1334 1.283 . S
O1358 Mn1332 2.094 . S
O1358 C1336 1.240 . S
O1359 Mn1333 2.117 . S
O1359 C1336 1.264 . S
C1360 C1353 1.403 . S
C1360 C1361 1.399 . S
C1360 H1366 0.929 . S
C1361 C1341 1.449 . S
C1361 C1360 1.399 . S
C1361 H1367 0.930 . S
H1362 C1342 0.931 . S
H1363 C1343 0.930 . S
H1364 C1351 0.931 . S
H1365 C1352 0.929 . S
H1366 C1360 0.929 . S
H1367 C1361 0.930 . S
Mn1368 O1373 2.095 . S
Mn1368 O1383 2.162 . S
Mn1368 O1384 2.297 . S
Mn1368 O1392 2.385 . S
Mn1368 O1393 2.209 . S
Mn1368 O1394 2.094 . S
Mn1369 O1374 2.121 . S
Mn1369 N1376 2.257 . S
Mn1369 N1385 2.282 . S
Mn1369 O1393 2.215 . S
Mn1369 O1395 2.117 . S
C1370 O1392 1.234 . S
C1370 O1393 1.283 . S
C1371 O1383 1.281 . S
C1371 O1384 1.236 . S
C1372 O1394 1.240 . S
C1372 O1395 1.264 . S
O1373 Mn1368 2.095 . S
O1373 C1382 1.250 . S
O1374 Mn1369 2.121 . S
O1374 C1382 1.258 . S
C1375 N1376 1.326 . S
C1375 C1379 1.460 . S
C1375 H1381 0.929 . S
N1376 Mn1369 2.257 . S
N1376 C1375 1.326 . S
N1376 C1380 1.362 . S
C1377 C1378 1.258 . S
C1377 C1380 1.431 . S
C1377 C1397 1.449 . S
C1378 C1377 1.258 . S
C1378 C1379 1.477 . S
C1378 H1398 0.931 . S
C1379 C1375 1.460 . S
C1379 C1378 1.477 . S
C1379 H1399 0.930 . S
C1380 N1376 1.362 . S
C1380 C1377 1.431 . S
C1380 C1390 1.476 . S
H1381 C1375 0.929 . S
C1382 O1373 1.250 . S
C1382 O1374 1.258 . S
O1383 Mn1368 2.162 . S
O1383 C1371 1.281 . S
O1384 Mn1368 2.297 . S
O1384 C1371 1.236 . S
N1385 Mn1369 2.282 . S
N1385 C1386 1.328 . S
N1385 C1390 1.318 . S
C1386 N1385 1.328 . S
C1386 C1387 1.457 . S
C1386 H1391 0.929 . S
C1387 C1386 1.457 . S
C1387 C1388 1.291 . S
C1387 H1400 0.931 . S
C1388 C1387 1.291 . S
C1388 C1389 1.373 . S
C1388 H1401 0.929 . S
C1389 C1388 1.373 . S
C1389 C1390 1.396 . S
C1389 C1396 1.403 . S
C1390 C1380 1.476 . S
C1390 N1385 1.318 . S
C1390 C1389 1.396 . S
H1391 C1386 0.929 . S
O1392 Mn1368 2.385 . S
O1392 C1370 1.234 . S
O1393 Mn1368 2.209 . S
O1393 Mn1369 2.215 . S
O1393 C1370 1.283 . S
O1394 Mn1368 2.094 . S
O1394 C1372 1.240 . S
O1395 Mn1369 2.117 . S
O1395 C1372 1.264 . S
C1396 C1389 1.403 . S
C1396 C1397 1.399 . S
C1396 H1402 0.929 . S
C1397 C1377 1.449 . S
C1397 C1396 1.399 . S
C1397 H1403 0.930 . S
H1398 C1378 0.931 . S
H1399 C1379 0.930 . S
H1400 C1387 0.931 . S
H1401 C1388 0.929 . S
H1402 C1396 0.929 . S
H1403 C1397 0.930 . S
Mn1404 O1409 2.095 . S
Mn1404 O1419 2.162 . S
Mn1404 O1420 2.297 . S
Mn1404 O1428 2.385 . S
Mn1404 O1429 2.209 . S
Mn1404 O1430 2.094 . S
Mn1405 O1410 2.121 . S
Mn1405 N1412 2.257 . S
Mn1405 N1421 2.282 . S
Mn1405 O1429 2.215 . S
Mn1405 O1431 2.117 . S
C1406 O1428 1.234 . S
C1406 O1429 1.283 . S
C1407 O1419 1.281 . S
C1407 O1420 1.236 . S
C1408 O1430 1.240 . S
C1408 O1431 1.264 . S
O1409 Mn1404 2.095 . S
O1409 C1418 1.250 . S
O1410 Mn1405 2.121 . S
O1410 C1418 1.258 . S
C1411 N1412 1.326 . S
C1411 C1415 1.460 . S
C1411 H1417 0.929 . S
N1412 Mn1405 2.257 . S
N1412 C1411 1.326 . S
N1412 C1416 1.362 . S
C1413 C1414 1.258 . S
C1413 C1416 1.431 . S
C1413 C1433 1.449 . S
C1414 C1413 1.258 . S
C1414 C1415 1.477 . S
C1414 H1434 0.931 . S
C1415 C1411 1.460 . S
C1415 C1414 1.477 . S
C1415 H1435 0.930 . S
C1416 N1412 1.362 . S
C1416 C1413 1.431 . S
C1416 C1426 1.476 . S
H1417 C1411 0.929 . S
C1418 O1409 1.250 . S
C1418 O1410 1.258 . S
O1419 Mn1404 2.162 . S
O1419 C1407 1.281 . S
O1420 Mn1404 2.297 . S
O1420 C1407 1.236 . S
N1421 Mn1405 2.282 . S
N1421 C1422 1.328 . S
N1421 C1426 1.318 . S
C1422 N1421 1.328 . S
C1422 C1423 1.457 . S
C1422 H1427 0.929 . S
C1423 C1422 1.457 . S
C1423 C1424 1.291 . S
C1423 H1436 0.931 . S
C1424 C1423 1.291 . S
C1424 C1425 1.373 . S
C1424 H1437 0.929 . S
C1425 C1424 1.373 . S
C1425 C1426 1.396 . S
C1425 C1432 1.403 . S
C1426 C1416 1.476 . S
C1426 N1421 1.318 . S
C1426 C1425 1.396 . S
H1427 C1422 0.929 . S
O1428 Mn1404 2.385 . S
O1428 C1406 1.234 . S
O1429 Mn1404 2.209 . S
O1429 Mn1405 2.215 . S
O1429 C1406 1.283 . S
O1430 Mn1404 2.094 . S
O1430 C1408 1.240 . S
O1431 Mn1405 2.117 . S
O1431 C1408 1.264 . S
C1432 C1425 1.403 . S
C1432 C1433 1.399 . S
C1432 H1438 0.929 . S
C1433 C1413 1.449 . S
C1433 C1432 1.399 . S
C1433 H1439 0.930 . S
H1434 C1414 0.931 . S
H1435 C1415 0.930 . S
H1436 C1423 0.931 . S
H1437 C1424 0.929 . S
H1438 C1432 0.929 . S
H1439 C1433 0.930 . S
Mn1440 O1445 2.095 . S
Mn1440 O1455 2.162 . S
Mn1440 O1456 2.297 . S
Mn1440 O1464 2.385 . S
Mn1440 O1465 2.209 . S
Mn1440 O1466 2.094 . S
Mn1441 O1446 2.121 . S
Mn1441 N1448 2.257 . S
Mn1441 N1457 2.282 . S
Mn1441 O1465 2.215 . S
Mn1441 O1467 2.117 . S
C1442 O1464 1.234 . S
C1442 O1465 1.283 . S
C1443 O1455 1.281 . S
C1443 O1456 1.236 . S
C1444 O1466 1.240 . S
C1444 O1467 1.264 . S
O1445 Mn1440 2.095 . S
O1445 C1454 1.250 . S
O1446 Mn1441 2.121 . S
O1446 C1454 1.258 . S
C1447 N1448 1.326 . S
C1447 C1451 1.460 . S
C1447 H1453 0.929 . S
N1448 Mn1441 2.257 . S
N1448 C1447 1.326 . S
N1448 C1452 1.362 . S
C1449 C1450 1.258 . S
C1449 C1452 1.431 . S
C1449 C1469 1.449 . S
C1450 C1449 1.258 . S
C1450 C1451 1.477 . S
C1450 H1470 0.931 . S
C1451 C1447 1.460 . S
C1451 C1450 1.477 . S
C1451 H1471 0.930 . S
C1452 N1448 1.362 . S
C1452 C1449 1.431 . S
C1452 C1462 1.476 . S
H1453 C1447 0.929 . S
C1454 O1445 1.250 . S
C1454 O1446 1.258 . S
O1455 Mn1440 2.162 . S
O1455 C1443 1.281 . S
O1456 Mn1440 2.297 . S
O1456 C1443 1.236 . S
N1457 Mn1441 2.282 . S
N1457 C1458 1.328 . S
N1457 C1462 1.318 . S
C1458 N1457 1.328 . S
C1458 C1459 1.457 . S
C1458 H1463 0.929 . S
C1459 C1458 1.457 . S
C1459 C1460 1.291 . S
C1459 H1472 0.931 . S
C1460 C1459 1.291 . S
C1460 C1461 1.373 . S
C1460 H1473 0.929 . S
C1461 C1460 1.373 . S
C1461 C1462 1.396 . S
C1461 C1468 1.403 . S
C1462 C1452 1.476 . S
C1462 N1457 1.318 . S
C1462 C1461 1.396 . S
H1463 C1458 0.929 . S
O1464 Mn1440 2.385 . S
O1464 C1442 1.234 . S
O1465 Mn1440 2.209 . S
O1465 Mn1441 2.215 . S
O1465 C1442 1.283 . S
O1466 Mn1440 2.094 . S
O1466 C1444 1.240 . S
O1467 Mn1441 2.117 . S
O1467 C1444 1.264 . S
C1468 C1461 1.403 . S
C1468 C1469 1.399 . S
C1468 H1474 0.929 . S
C1469 C1449 1.449 . S
C1469 C1468 1.399 . S
C1469 H1475 0.930 . S
H1470 C1450 0.931 . S
H1471 C1451 0.930 . S
H1472 C1459 0.931 . S
H1473 C1460 0.929 . S
H1474 C1468 0.929 . S
H1475 C1469 0.930 . S
Mn1476 O1481 2.095 . S
Mn1476 O1491 2.162 . S
Mn1476 O1492 2.297 . S
Mn1476 O1500 2.385 . S
Mn1476 O1501 2.209 . S
Mn1476 O1502 2.094 . S
Mn1477 O1482 2.121 . S
Mn1477 N1484 2.257 . S
Mn1477 N1493 2.282 . S
Mn1477 O1501 2.215 . S
Mn1477 O1503 2.117 . S
C1478 O1500 1.234 . S
C1478 O1501 1.283 . S
C1479 O1491 1.281 . S
C1479 O1492 1.236 . S
C1480 O1502 1.240 . S
C1480 O1503 1.264 . S
O1481 Mn1476 2.095 . S
O1481 C1490 1.250 . S
O1482 Mn1477 2.121 . S
O1482 C1490 1.258 . S
C1483 N1484 1.326 . S
C1483 C1487 1.460 . S
C1483 H1489 0.929 . S
N1484 Mn1477 2.257 . S
N1484 C1483 1.326 . S
N1484 C1488 1.362 . S
C1485 C1486 1.258 . S
C1485 C1488 1.431 . S
C1485 C1505 1.449 . S
C1486 C1485 1.258 . S
C1486 C1487 1.477 . S
C1486 H1506 0.931 . S
C1487 C1483 1.460 . S
C1487 C1486 1.477 . S
C1487 H1507 0.930 . S
C1488 N1484 1.362 . S
C1488 C1485 1.431 . S
C1488 C1498 1.476 . S
H1489 C1483 0.929 . S
C1490 O1481 1.250 . S
C1490 O1482 1.258 . S
O1491 Mn1476 2.162 . S
O1491 C1479 1.281 . S
O1492 Mn1476 2.297 . S
O1492 C1479 1.236 . S
N1493 Mn1477 2.282 . S
N1493 C1494 1.328 . S
N1493 C1498 1.318 . S
C1494 N1493 1.328 . S
C1494 C1495 1.457 . S
C1494 H1499 0.929 . S
C1495 C1494 1.457 . S
C1495 C1496 1.291 . S
C1495 H1508 0.931 . S
C1496 C1495 1.291 . S
C1496 C1497 1.373 . S
C1496 H1509 0.929 . S
C1497 C1496 1.373 . S
C1497 C1498 1.396 . S
C1497 C1504 1.403 . S
C1498 C1488 1.476 . S
C1498 N1493 1.318 . S
C1498 C1497 1.396 . S
H1499 C1494 0.929 . S
O1500 Mn1476 2.385 . S
O1500 C1478 1.234 . S
O1501 Mn1476 2.209 . S
O1501 Mn1477 2.215 . S
O1501 C1478 1.283 . S
O1502 Mn1476 2.094 . S
O1502 C1480 1.240 . S
O1503 Mn1477 2.117 . S
O1503 C1480 1.264 . S
C1504 C1497 1.403 . S
C1504 C1505 1.399 . S
C1504 H1510 0.929 . S
C1505 C1485 1.449 . S
C1505 C1504 1.399 . S
C1505 H1511 0.930 . S
H1506 C1486 0.931 . S
H1507 C1487 0.930 . S
H1508 C1495 0.931 . S
H1509 C1496 0.929 . S
H1510 C1504 0.929 . S
H1511 C1505 0.930 . S
Mn1512 O1517 2.095 . S
Mn1512 O1527 2.162 . S
Mn1512 O1528 2.297 . S
Mn1512 O1536 2.385 . S
Mn1512 O1537 2.209 . S
Mn1512 O1538 2.094 . S
Mn1513 O1518 2.121 . S
Mn1513 N1520 2.257 . S
Mn1513 N1529 2.282 . S
Mn1513 O1537 2.215 . S
Mn1513 O1539 2.117 . S
C1514 O1536 1.234 . S
C1514 O1537 1.283 . S
C1515 O1527 1.281 . S
C1515 O1528 1.236 . S
C1516 O1538 1.240 . S
C1516 O1539 1.264 . S
O1517 Mn1512 2.095 . S
O1517 C1526 1.250 . S
O1518 Mn1513 2.121 . S
O1518 C1526 1.258 . S
C1519 N1520 1.326 . S
C1519 C1523 1.460 . S
C1519 H1525 0.929 . S
N1520 Mn1513 2.257 . S
N1520 C1519 1.326 . S
N1520 C1524 1.362 . S
C1521 C1522 1.258 . S
C1521 C1524 1.431 . S
C1521 C1541 1.449 . S
C1522 C1521 1.258 . S
C1522 C1523 1.477 . S
C1522 H1542 0.931 . S
C1523 C1519 1.460 . S
C1523 C1522 1.477 . S
C1523 H1543 0.930 . S
C1524 N1520 1.362 . S
C1524 C1521 1.431 . S
C1524 C1534 1.476 . S
H1525 C1519 0.929 . S
C1526 O1517 1.250 . S
C1526 O1518 1.258 . S
O1527 Mn1512 2.162 . S
O1527 C1515 1.281 . S
O1528 Mn1512 2.297 . S
O1528 C1515 1.236 . S
N1529 Mn1513 2.282 . S
N1529 C1530 1.328 . S
N1529 C1534 1.318 . S
C1530 N1529 1.328 . S
C1530 C1531 1.457 . S
C1530 H1535 0.929 . S
C1531 C1530 1.457 . S
C1531 C1532 1.291 . S
C1531 H1544 0.931 . S
C1532 C1531 1.291 . S
C1532 C1533 1.373 . S
C1532 H1545 0.929 . S
C1533 C1532 1.373 . S
C1533 C1534 1.396 . S
C1533 C1540 1.403 . S
C1534 C1524 1.476 . S
C1534 N1529 1.318 . S
C1534 C1533 1.396 . S
H1535 C1530 0.929 . S
O1536 Mn1512 2.385 . S
O1536 C1514 1.234 . S
O1537 Mn1512 2.209 . S
O1537 Mn1513 2.215 . S
O1537 C1514 1.283 . S
O1538 Mn1512 2.094 . S
O1538 C1516 1.240 . S
O1539 Mn1513 2.117 . S
O1539 C1516 1.264 . S
C1540 C1533 1.403 . S
C1540 C1541 1.399 . S
C1540 H1546 0.929 . S
C1541 C1521 1.449 . S
C1541 C1540 1.399 . S
C1541 H1547 0.930 . S
H1542 C1522 0.931 . S
H1543 C1523 0.930 . S
H1544 C1531 0.931 . S
H1545 C1532 0.929 . S
H1546 C1540 0.929 . S
H1547 C1541 0.930 . S
Mn1548 O1553 2.095 . S
Mn1548 O1563 2.162 . S
Mn1548 O1564 2.297 . S
Mn1548 O1572 2.385 . S
Mn1548 O1573 2.209 . S
Mn1548 O1574 2.094 . S
Mn1549 O1554 2.121 . S
Mn1549 N1556 2.257 . S
Mn1549 N1565 2.282 . S
Mn1549 O1573 2.215 . S
Mn1549 O1575 2.117 . S
C1550 O1572 1.234 . S
C1550 O1573 1.283 . S
C1551 O1563 1.281 . S
C1551 O1564 1.236 . S
C1552 O1574 1.240 . S
C1552 O1575 1.264 . S
O1553 Mn1548 2.095 . S
O1553 C1562 1.250 . S
O1554 Mn1549 2.121 . S
O1554 C1562 1.258 . S
C1555 N1556 1.326 . S
C1555 C1559 1.460 . S
C1555 H1561 0.929 . S
N1556 Mn1549 2.257 . S
N1556 C1555 1.326 . S
N1556 C1560 1.362 . S
C1557 C1558 1.258 . S
C1557 C1560 1.431 . S
C1557 C1577 1.449 . S
C1558 C1557 1.258 . S
C1558 C1559 1.477 . S
C1558 H1578 0.931 . S
C1559 C1555 1.460 . S
C1559 C1558 1.477 . S
C1559 H1579 0.930 . S
C1560 N1556 1.362 . S
C1560 C1557 1.431 . S
C1560 C1570 1.476 . S
H1561 C1555 0.929 . S
C1562 O1553 1.250 . S
C1562 O1554 1.258 . S
O1563 Mn1548 2.162 . S
O1563 C1551 1.281 . S
O1564 Mn1548 2.297 . S
O1564 C1551 1.236 . S
N1565 Mn1549 2.282 . S
N1565 C1566 1.328 . S
N1565 C1570 1.318 . S
C1566 N1565 1.328 . S
C1566 C1567 1.457 . S
C1566 H1571 0.929 . S
C1567 C1566 1.457 . S
C1567 C1568 1.291 . S
C1567 H1580 0.931 . S
C1568 C1567 1.291 . S
C1568 C1569 1.373 . S
C1568 H1581 0.929 . S
C1569 C1568 1.373 . S
C1569 C1570 1.396 . S
C1569 C1576 1.403 . S
C1570 C1560 1.476 . S
C1570 N1565 1.318 . S
C1570 C1569 1.396 . S
H1571 C1566 0.929 . S
O1572 Mn1548 2.385 . S
O1572 C1550 1.234 . S
O1573 Mn1548 2.209 . S
O1573 Mn1549 2.215 . S
O1573 C1550 1.283 . S
O1574 Mn1548 2.094 . S
O1574 C1552 1.240 . S
O1575 Mn1549 2.117 . S
O1575 C1552 1.264 . S
C1576 C1569 1.403 . S
C1576 C1577 1.399 . S
C1576 H1582 0.929 . S
C1577 C1557 1.449 . S
C1577 C1576 1.399 . S
C1577 H1583 0.930 . S
H1578 C1558 0.931 . S
H1579 C1559 0.930 . S
H1580 C1567 0.931 . S
H1581 C1568 0.929 . S
H1582 C1576 0.929 . S
H1583 C1577 0.930 . S
Mn1584 O1589 2.095 . S
Mn1584 O1599 2.162 . S
Mn1584 O1600 2.297 . S
Mn1584 O1608 2.385 . S
Mn1584 O1609 2.209 . S
Mn1584 O1610 2.094 . S
Mn1585 O1590 2.121 . S
Mn1585 N1592 2.257 . S
Mn1585 N1601 2.282 . S
Mn1585 O1609 2.215 . S
Mn1585 O1611 2.117 . S
C1586 O1608 1.234 . S
C1586 O1609 1.283 . S
C1587 O1599 1.281 . S
C1587 O1600 1.236 . S
C1588 O1610 1.240 . S
C1588 O1611 1.264 . S
O1589 Mn1584 2.095 . S
O1589 C1598 1.250 . S
O1590 Mn1585 2.121 . S
O1590 C1598 1.258 . S
C1591 N1592 1.326 . S
C1591 C1595 1.460 . S
C1591 H1597 0.929 . S
N1592 Mn1585 2.257 . S
N1592 C1591 1.326 . S
N1592 C1596 1.362 . S
C1593 C1594 1.258 . S
C1593 C1596 1.431 . S
C1593 C1613 1.449 . S
C1594 C1593 1.258 . S
C1594 C1595 1.477 . S
C1594 H1614 0.931 . S
C1595 C1591 1.460 . S
C1595 C1594 1.477 . S
C1595 H1615 0.930 . S
C1596 N1592 1.362 . S
C1596 C1593 1.431 . S
C1596 C1606 1.476 . S
H1597 C1591 0.929 . S
C1598 O1589 1.250 . S
C1598 O1590 1.258 . S
O1599 Mn1584 2.162 . S
O1599 C1587 1.281 . S
O1600 Mn1584 2.297 . S
O1600 C1587 1.236 . S
N1601 Mn1585 2.282 . S
N1601 C1602 1.328 . S
N1601 C1606 1.318 . S
C1602 N1601 1.328 . S
C1602 C1603 1.457 . S
C1602 H1607 0.929 . S
C1603 C1602 1.457 . S
C1603 C1604 1.291 . S
C1603 H1616 0.931 . S
C1604 C1603 1.291 . S
C1604 C1605 1.373 . S
C1604 H1617 0.929 . S
C1605 C1604 1.373 . S
C1605 C1606 1.396 . S
C1605 C1612 1.403 . S
C1606 C1596 1.476 . S
C1606 N1601 1.318 . S
C1606 C1605 1.396 . S
H1607 C1602 0.929 . S
O1608 Mn1584 2.385 . S
O1608 C1586 1.234 . S
O1609 Mn1584 2.209 . S
O1609 Mn1585 2.215 . S
O1609 C1586 1.283 . S
O1610 Mn1584 2.094 . S
O1610 C1588 1.240 . S
O1611 Mn1585 2.117 . S
O1611 C1588 1.264 . S
C1612 C1605 1.403 . S
C1612 C1613 1.399 . S
C1612 H1618 0.929 . S
C1613 C1593 1.449 . S
C1613 C1612 1.399 . S
C1613 H1619 0.930 . S
H1614 C1594 0.931 . S
H1615 C1595 0.930 . S
H1616 C1603 0.931 . S
H1617 C1604 0.929 . S
H1618 C1612 0.929 . S
H1619 C1613 0.930 . S
Mn1620 O1625 2.095 . S
Mn1620 O1635 2.162 . S
Mn1620 O1636 2.297 . S
Mn1620 O1644 2.385 . S
Mn1620 O1645 2.209 . S
Mn1620 O1646 2.094 . S
Mn1621 O1626 2.121 . S
Mn1621 N1628 2.257 . S
Mn1621 N1637 2.282 . S
Mn1621 O1645 2.215 . S
Mn1621 O1647 2.117 . S
C1622 O1644 1.234 . S
C1622 O1645 1.283 . S
C1623 O1635 1.281 . S
C1623 O1636 1.236 . S
C1624 O1646 1.240 . S
C1624 O1647 1.264 . S
O1625 Mn1620 2.095 . S
O1625 C1634 1.250 . S
O1626 Mn1621 2.121 . S
O1626 C1634 1.258 . S
C1627 N1628 1.326 . S
C1627 C1631 1.460 . S
C1627 H1633 0.929 . S
N1628 Mn1621 2.257 . S
N1628 C1627 1.326 . S
N1628 C1632 1.362 . S
C1629 C1630 1.258 . S
C1629 C1632 1.431 . S
C1629 C1649 1.449 . S
C1630 C1629 1.258 . S
C1630 C1631 1.477 . S
C1630 H1650 0.931 . S
C1631 C1627 1.460 . S
C1631 C1630 1.477 . S
C1631 H1651 0.930 . S
C1632 N1628 1.362 . S
C1632 C1629 1.431 . S
C1632 C1642 1.476 . S
H1633 C1627 0.929 . S
C1634 O1625 1.250 . S
C1634 O1626 1.258 . S
O1635 Mn1620 2.162 . S
O1635 C1623 1.281 . S
O1636 Mn1620 2.297 . S
O1636 C1623 1.236 . S
N1637 Mn1621 2.282 . S
N1637 C1638 1.328 . S
N1637 C1642 1.318 . S
C1638 N1637 1.328 . S
C1638 C1639 1.457 . S
C1638 H1643 0.929 . S
C1639 C1638 1.457 . S
C1639 C1640 1.291 . S
C1639 H1652 0.931 . S
C1640 C1639 1.291 . S
C1640 C1641 1.373 . S
C1640 H1653 0.929 . S
C1641 C1640 1.373 . S
C1641 C1642 1.396 . S
C1641 C1648 1.403 . S
C1642 C1632 1.476 . S
C1642 N1637 1.318 . S
C1642 C1641 1.396 . S
H1643 C1638 0.929 . S
O1644 Mn1620 2.385 . S
O1644 C1622 1.234 . S
O1645 Mn1620 2.209 . S
O1645 Mn1621 2.215 . S
O1645 C1622 1.283 . S
O1646 Mn1620 2.094 . S
O1646 C1624 1.240 . S
O1647 Mn1621 2.117 . S
O1647 C1624 1.264 . S
C1648 C1641 1.403 . S
C1648 C1649 1.399 . S
C1648 H1654 0.929 . S
C1649 C1629 1.449 . S
C1649 C1648 1.399 . S
C1649 H1655 0.930 . S
H1650 C1630 0.931 . S
H1651 C1631 0.930 . S
H1652 C1639 0.931 . S
H1653 C1640 0.929 . S
H1654 C1648 0.929 . S
H1655 C1649 0.930 . S
Mn1656 O1661 2.095 . S
Mn1656 O1671 2.162 . S
Mn1656 O1672 2.297 . S
Mn1656 O1680 2.385 . S
Mn1656 O1681 2.209 . S
Mn1656 O1682 2.094 . S
Mn1657 O1662 2.121 . S
Mn1657 N1664 2.257 . S
Mn1657 N1673 2.282 . S
Mn1657 O1681 2.215 . S
Mn1657 O1683 2.117 . S
C1658 O1680 1.234 . S
C1658 O1681 1.283 . S
C1659 O1671 1.281 . S
C1659 O1672 1.236 . S
C1660 O1682 1.240 . S
C1660 O1683 1.264 . S
O1661 Mn1656 2.095 . S
O1661 C1670 1.250 . S
O1662 Mn1657 2.121 . S
O1662 C1670 1.258 . S
C1663 N1664 1.326 . S
C1663 C1667 1.460 . S
C1663 H1669 0.929 . S
N1664 Mn1657 2.257 . S
N1664 C1663 1.326 . S
N1664 C1668 1.362 . S
C1665 C1666 1.258 . S
C1665 C1668 1.431 . S
C1665 C1685 1.449 . S
C1666 C1665 1.258 . S
C1666 C1667 1.477 . S
C1666 H1686 0.931 . S
C1667 C1663 1.460 . S
C1667 C1666 1.477 . S
C1667 H1687 0.930 . S
C1668 N1664 1.362 . S
C1668 C1665 1.431 . S
C1668 C1678 1.476 . S
H1669 C1663 0.929 . S
C1670 O1661 1.250 . S
C1670 O1662 1.258 . S
O1671 Mn1656 2.162 . S
O1671 C1659 1.281 . S
O1672 Mn1656 2.297 . S
O1672 C1659 1.236 . S
N1673 Mn1657 2.282 . S
N1673 C1674 1.328 . S
N1673 C1678 1.318 . S
C1674 N1673 1.328 . S
C1674 C1675 1.457 . S
C1674 H1679 0.929 . S
C1675 C1674 1.457 . S
C1675 C1676 1.291 . S
C1675 H1688 0.931 . S
C1676 C1675 1.291 . S
C1676 C1677 1.373 . S
C1676 H1689 0.929 . S
C1677 C1676 1.373 . S
C1677 C1678 1.396 . S
C1677 C1684 1.403 . S
C1678 C1668 1.476 . S
C1678 N1673 1.318 . S
C1678 C1677 1.396 . S
H1679 C1674 0.929 . S
O1680 Mn1656 2.385 . S
O1680 C1658 1.234 . S
O1681 Mn1656 2.209 . S
O1681 Mn1657 2.215 . S
O1681 C1658 1.283 . S
O1682 Mn1656 2.094 . S
O1682 C1660 1.240 . S
O1683 Mn1657 2.117 . S
O1683 C1660 1.264 . S
C1684 C1677 1.403 . S
C1684 C1685 1.399 . S
C1684 H1690 0.929 . S
C1685 C1665 1.449 . S
C1685 C1684 1.399 . S
C1685 H1691 0.930 . S
H1686 C1666 0.931 . S
H1687 C1667 0.930 . S
H1688 C1675 0.931 . S
H1689 C1676 0.929 . S
H1690 C1684 0.929 . S
H1691 C1685 0.930 . S
Mn1692 O1697 2.095 . S
Mn1692 O1707 2.162 . S
Mn1692 O1708 2.297 . S
Mn1692 O1716 2.385 . S
Mn1692 O1717 2.209 . S
Mn1692 O1718 2.094 . S
Mn1693 O1698 2.121 . S
Mn1693 N1700 2.257 . S
Mn1693 N1709 2.282 . S
Mn1693 O1717 2.215 . S
Mn1693 O1719 2.117 . S
C1694 O1716 1.234 . S
C1694 O1717 1.283 . S
C1695 O1707 1.281 . S
C1695 O1708 1.236 . S
C1696 O1718 1.240 . S
C1696 O1719 1.264 . S
O1697 Mn1692 2.095 . S
O1697 C1706 1.250 . S
O1698 Mn1693 2.121 . S
O1698 C1706 1.258 . S
C1699 N1700 1.326 . S
C1699 C1703 1.460 . S
C1699 H1705 0.929 . S
N1700 Mn1693 2.257 . S
N1700 C1699 1.326 . S
N1700 C1704 1.362 . S
C1701 C1702 1.258 . S
C1701 C1704 1.431 . S
C1701 C1721 1.449 . S
C1702 C1701 1.258 . S
C1702 C1703 1.477 . S
C1702 H1722 0.931 . S
C1703 C1699 1.460 . S
C1703 C1702 1.477 . S
C1703 H1723 0.930 . S
C1704 N1700 1.362 . S
C1704 C1701 1.431 . S
C1704 C1714 1.476 . S
H1705 C1699 0.929 . S
C1706 O1697 1.250 . S
C1706 O1698 1.258 . S
O1707 Mn1692 2.162 . S
O1707 C1695 1.281 . S
O1708 Mn1692 2.297 . S
O1708 C1695 1.236 . S
N1709 Mn1693 2.282 . S
N1709 C1710 1.328 . S
N1709 C1714 1.318 . S
C1710 N1709 1.328 . S
C1710 C1711 1.457 . S
C1710 H1715 0.929 . S
C1711 C1710 1.457 . S
C1711 C1712 1.291 . S
C1711 H1724 0.931 . S
C1712 C1711 1.291 . S
C1712 C1713 1.373 . S
C1712 H1725 0.929 . S
C1713 C1712 1.373 . S
C1713 C1714 1.396 . S
C1713 C1720 1.403 . S
C1714 C1704 1.476 . S
C1714 N1709 1.318 . S
C1714 C1713 1.396 . S
H1715 C1710 0.929 . S
O1716 Mn1692 2.385 . S
O1716 C1694 1.234 . S
O1717 Mn1692 2.209 . S
O1717 Mn1693 2.215 . S
O1717 C1694 1.283 . S
O1718 Mn1692 2.094 . S
O1718 C1696 1.240 . S
O1719 Mn1693 2.117 . S
O1719 C1696 1.264 . S
C1720 C1713 1.403 . S
C1720 C1721 1.399 . S
C1720 H1726 0.929 . S
C1721 C1701 1.449 . S
C1721 C1720 1.399 . S
C1721 H1727 0.930 . S
H1722 C1702 0.931 . S
H1723 C1703 0.930 . S
H1724 C1711 0.931 . S
H1725 C1712 0.929 . S
H1726 C1720 0.929 . S
H1727 C1721 0.930 . S
C1728 C1729 1.369 1_455 S
C1728 C1730 1.419 . S
C1728 H1732 0.930 . S
C1729 C1728 1.369 1_655 S
C1729 C1738 1.429 . S
C1730 C1728 1.419 . S
C1730 C1731 1.363 . S
C1730 H1733 0.929 . S
C1731 C1730 1.363 . S
C1731 C1737 1.428 1_455 S
H1732 C1728 0.930 . S
H1733 C1730 0.929 . S
S1734 N1735 1.613 . S
S1734 N1736 1.610 . S
N1735 S1734 1.613 . S
N1735 C1738 1.350 . S
N1736 S1734 1.610 . S
N1736 C1737 1.351 . S
C1737 C1731 1.428 1_655 S
C1737 N1736 1.351 . S
C1737 C1738 1.434 . S
C1738 C1729 1.429 . S
C1738 N1735 1.350 . S
C1738 C1737 1.434 . S
C1739 C1740 1.369 . S
C1739 C1741 1.419 . S
C1739 H1743 0.930 . S
C1740 C1739 1.369 . S
C1740 C1749 1.429 1_565 S
C1741 C1739 1.419 . S
C1741 C1742 1.363 1_565 S
C1741 H1744 0.929 . S
C1742 C1741 1.363 1_545 S
C1742 C1748 1.428 . S
H1743 C1739 0.930 . S
H1744 C1741 0.929 . S
S1745 N1746 1.613 . S
S1745 N1747 1.610 . S
N1746 S1745 1.613 . S
N1746 C1749 1.350 . S
N1747 S1745 1.610 . S
N1747 C1748 1.351 . S
C1748 C1742 1.428 . S
C1748 N1747 1.351 . S
C1748 C1749 1.434 . S
C1749 C1740 1.429 1_545 S
C1749 N1746 1.350 . S
C1749 C1748 1.434 . S
C1750 C1751 1.369 1_655 S
C1750 C1752 1.419 . S
C1750 H1754 0.930 . S
C1751 C1750 1.369 1_455 S
C1751 C1760 1.429 . S
C1752 C1750 1.419 . S
C1752 C1753 1.363 . S
C1752 H1755 0.929 . S
C1753 C1752 1.363 . S
C1753 C1759 1.428 1_655 S
H1754 C1750 0.930 . S
H1755 C1752 0.929 . S
S1756 N1757 1.613 . S
S1756 N1758 1.610 . S
N1757 S1756 1.613 . S
N1757 C1760 1.350 . S
N1758 S1756 1.610 . S
N1758 C1759 1.351 . S
C1759 C1753 1.428 1_455 S
C1759 N1758 1.351 . S
C1759 C1760 1.434 . S
C1760 C1751 1.429 . S
C1760 N1757 1.350 . S
C1760 C1759 1.434 . S
C1761 C1762 1.369 . S
C1761 C1763 1.419 1_565 S
C1761 H1765 0.930 . S
C1762 C1761 1.369 . S
C1762 C1771 1.429 . S
C1763 C1761 1.419 1_545 S
C1763 C1764 1.363 . S
C1763 H1766 0.929 . S
C1764 C1763 1.363 . S
C1764 C1770 1.428 . S
H1765 C1761 0.930 . S
H1766 C1763 0.929 . S
S1767 N1768 1.613 . S
S1767 N1769 1.610 1_565 S
N1768 S1767 1.613 . S
N1768 C1771 1.350 . S
N1769 S1767 1.610 1_545 S
N1769 C1770 1.351 . S
C1770 C1764 1.428 . S
C1770 N1769 1.351 . S
C1770 C1771 1.434 1_545 S
C1771 C1762 1.429 . S
C1771 N1768 1.350 . S
C1771 C1770 1.434 1_565 S
C1772 C1773 1.369 . S
C1772 C1774 1.419 1_655 S
C1772 H1776 0.930 . S
C1773 C1772 1.369 . S
C1773 C1782 1.429 . S
C1774 C1772 1.419 1_455 S
C1774 C1775 1.363 . S
C1774 H1777 0.929 . S
C1775 C1774 1.363 . S
C1775 C1781 1.428 . S
H1776 C1772 0.930 . S
H1777 C1774 0.929 . S
S1778 N1779 1.613 1_455 S
S1778 N1780 1.610 . S
N1779 S1778 1.613 1_655 S
N1779 C1782 1.350 . S
N1780 S1778 1.610 . S
N1780 C1781 1.351 . S
C1781 C1775 1.428 . S
C1781 N1780 1.351 . S
C1781 C1782 1.434 1_455 S
C1782 C1773 1.429 . S
C1782 N1779 1.350 . S
C1782 C1781 1.434 1_655 S
C1783 C1784 1.369 . S
C1783 C1785 1.419 . S
C1783 H1787 0.930 . S
C1784 C1783 1.369 . S
C1784 C1793 1.429 1_545 S
C1785 C1783 1.419 . S
C1785 C1786 1.363 1_545 S
C1785 H1788 0.929 . S
C1786 C1785 1.363 1_565 S
C1786 C1792 1.428 . S
H1787 C1783 0.930 . S
H1788 C1785 0.929 . S
S1789 N1790 1.613 . S
S1789 N1791 1.610 . S
N1790 S1789 1.613 . S
N1790 C1793 1.350 . S
N1791 S1789 1.610 . S
N1791 C1792 1.351 . S
C1792 C1786 1.428 . S
C1792 N1791 1.351 . S
C1792 C1793 1.434 . S
C1793 C1784 1.429 1_565 S
C1793 N1790 1.350 . S
C1793 C1792 1.434 . S
C1794 C1795 1.369 1_655 S
C1794 C1796 1.419 . S
C1794 H1798 0.930 . S
C1795 C1794 1.369 1_455 S
C1795 C1804 1.429 . S
C1796 C1794 1.419 . S
C1796 C1797 1.363 . S
C1796 H1799 0.929 . S
C1797 C1796 1.363 . S
C1797 C1803 1.428 1_655 S
H1798 C1794 0.930 . S
H1799 C1796 0.929 . S
S1800 N1801 1.613 . S
S1800 N1802 1.610 . S
N1801 S1800 1.613 . S
N1801 C1804 1.350 . S
N1802 S1800 1.610 . S
N1802 C1803 1.351 . S
C1803 C1797 1.428 1_455 S
C1803 N1802 1.351 . S
C1803 C1804 1.434 . S
C1804 C1795 1.429 . S
C1804 N1801 1.350 . S
C1804 C1803 1.434 . S
C1805 C1806 1.369 1_565 S
C1805 C1807 1.419 . S
C1805 H1809 0.930 . S
C1806 C1805 1.369 1_545 S
C1806 C1815 1.429 . S
C1807 C1805 1.419 . S
C1807 C1808 1.363 . S
C1807 H1810 0.929 . S
C1808 C1807 1.363 . S
C1808 C1814 1.428 1_565 S
H1809 C1805 0.930 . S
H1810 C1807 0.929 . S
S1811 N1812 1.613 . S
S1811 N1813 1.610 . S
N1812 S1811 1.613 . S
N1812 C1815 1.350 . S
N1813 S1811 1.610 . S
N1813 C1814 1.351 . S
C1814 C1808 1.428 1_545 S
C1814 N1813 1.351 . S
C1814 C1815 1.434 . S
C1815 C1806 1.429 . S
C1815 N1812 1.350 . S
C1815 C1814 1.434 . S
C1816 C1817 1.369 . S
C1816 C1818 1.419 . S
C1816 H1820 0.930 . S
C1817 C1816 1.369 . S
C1817 C1826 1.429 1_554 S
C1818 C1816 1.419 . S
C1818 C1819 1.363 1_554 S
C1818 H1821 0.929 . S
C1819 C1818 1.363 1_556 S
C1819 C1825 1.428 . S
H1820 C1816 0.930 . S
H1821 C1818 0.929 . S
S1822 N1823 1.613 . S
S1822 N1824 1.610 . S
N1823 S1822 1.613 . S
N1823 C1826 1.350 . S
N1824 S1822 1.610 . S
N1824 C1825 1.351 . S
C1825 C1819 1.428 . S
C1825 N1824 1.351 . S
C1825 C1826 1.434 . S
C1826 C1817 1.429 1_556 S
C1826 N1823 1.350 . S
C1826 C1825 1.434 . S
C1827 C1828 1.369 1_554 S
C1827 C1829 1.419 . S
C1827 H1831 0.930 . S
C1828 C1827 1.369 1_556 S
C1828 C1837 1.429 . S
C1829 C1827 1.419 . S
C1829 C1830 1.363 . S
C1829 H1832 0.929 . S
C1830 C1829 1.363 . S
C1830 C1836 1.428 1_554 S
H1831 C1827 0.930 . S
H1832 C1829 0.929 . S
S1833 N1834 1.613 . S
S1833 N1835 1.610 . S
N1834 S1833 1.613 . S
N1834 C1837 1.350 . S
N1835 S1833 1.610 . S
N1835 C1836 1.351 . S
C1836 C1830 1.428 1_556 S
C1836 N1835 1.351 . S
C1836 C1837 1.434 . S
C1837 C1828 1.429 . S
C1837 N1834 1.350 . S
C1837 C1836 1.434 . S
C1838 C1839 1.369 . S
C1838 C1840 1.419 . S
C1838 H1842 0.930 . S
C1839 C1838 1.369 . S
C1839 C1848 1.429 1_556 S
C1840 C1838 1.419 . S
C1840 C1841 1.363 1_556 S
C1840 H1843 0.929 . S
C1841 C1840 1.363 1_554 S
C1841 C1847 1.428 . S
H1842 C1838 0.930 . S
H1843 C1840 0.929 . S
S1844 N1845 1.613 . S
S1844 N1846 1.610 . S
N1845 S1844 1.613 . S
N1845 C1848 1.350 . S
N1846 S1844 1.610 . S
N1846 C1847 1.351 . S
C1847 C1841 1.428 . S
C1847 N1846 1.351 . S
C1847 C1848 1.434 . S
C1848 C1839 1.429 1_554 S
C1848 N1845 1.350 . S
C1848 C1847 1.434 . S
C1849 C1850 1.369 . S
C1849 C1851 1.419 . S
C1849 H1853 0.930 . S
C1850 C1849 1.369 . S
C1850 C1859 1.429 1_556 S
C1851 C1849 1.419 . S
C1851 C1852 1.363 1_556 S
C1851 H1854 0.929 . S
C1852 C1851 1.363 1_554 S
C1852 C1858 1.428 . S
H1853 C1849 0.930 . S
H1854 C1851 0.929 . S
S1855 N1856 1.613 . S
S1855 N1857 1.610 . S
N1856 S1855 1.613 . S
N1856 C1859 1.350 . S
N1857 S1855 1.610 . S
N1857 C1858 1.351 . S
C1858 C1852 1.428 . S
C1858 N1857 1.351 . S
C1858 C1859 1.434 . S
C1859 C1850 1.429 1_554 S
C1859 N1856 1.350 . S
C1859 C1858 1.434 . S
C1860 C1861 1.369 . S
C1860 C1862 1.419 . S
C1860 H1864 0.930 . S
C1861 C1860 1.369 . S
C1861 C1870 1.429 . S
C1862 C1860 1.419 . S
C1862 C1863 1.363 . S
C1862 H1865 0.929 . S
C1863 C1862 1.363 . S
C1863 C1869 1.428 . S
H1864 C1860 0.930 . S
H1865 C1862 0.929 . S
S1866 N1867 1.613 . S
S1866 N1868 1.610 . S
N1867 S1866 1.613 . S
N1867 C1870 1.350 . S
N1868 S1866 1.610 . S
N1868 C1869 1.351 . S
C1869 C1863 1.428 . S
C1869 N1868 1.351 . S
C1869 C1870 1.434 . S
C1870 C1861 1.429 . S
C1870 N1867 1.350 . S
C1870 C1869 1.434 . S
C1871 C1872 1.369 . S
C1871 C1873 1.419 . S
C1871 H1875 0.930 . S
C1872 C1871 1.369 . S
C1872 C1881 1.429 . S
C1873 C1871 1.419 . S
C1873 C1874 1.363 . S
C1873 H1876 0.929 . S
C1874 C1873 1.363 . S
C1874 C1880 1.428 . S
H1875 C1871 0.930 . S
H1876 C1873 0.929 . S
S1877 N1878 1.613 . S
S1877 N1879 1.610 . S
N1878 S1877 1.613 . S
N1878 C1881 1.350 . S
N1879 S1877 1.610 . S
N1879 C1880 1.351 . S
C1880 C1874 1.428 . S
C1880 N1879 1.351 . S
C1880 C1881 1.434 . S
C1881 C1872 1.429 . S
C1881 N1878 1.350 . S
C1881 C1880 1.434 . S
C1882 C1883 1.369 . S
C1882 C1884 1.419 . S
C1882 H1886 0.930 . S
C1883 C1882 1.369 . S
C1883 C1892 1.429 . S
C1884 C1882 1.419 . S
C1884 C1885 1.363 . S
C1884 H1887 0.929 . S
C1885 C1884 1.363 . S
C1885 C1891 1.428 . S
H1886 C1882 0.930 . S
H1887 C1884 0.929 . S
S1888 N1889 1.613 . S
S1888 N1890 1.610 . S
N1889 S1888 1.613 . S
N1889 C1892 1.350 . S
N1890 S1888 1.610 . S
N1890 C1891 1.351 . S
C1891 C1885 1.428 . S
C1891 N1890 1.351 . S
C1891 C1892 1.434 . S
C1892 C1883 1.429 . S
C1892 N1889 1.350 . S
C1892 C1891 1.434 . S
C1893 C1894 1.369 . S
C1893 C1895 1.419 . S
C1893 H1897 0.930 . S
C1894 C1893 1.369 . S
C1894 C1903 1.429 . S
C1895 C1893 1.419 . S
C1895 C1896 1.363 . S
C1895 H1898 0.929 . S
C1896 C1895 1.363 . S
C1896 C1902 1.428 . S
H1897 C1893 0.930 . S
H1898 C1895 0.929 . S
S1899 N1900 1.613 . S
S1899 N1901 1.610 . S
N1900 S1899 1.613 . S
N1900 C1903 1.350 . S
N1901 S1899 1.610 . S
N1901 C1902 1.351 . S
C1902 C1896 1.428 . S
C1902 N1901 1.351 . S
C1902 C1903 1.434 . S
C1903 C1894 1.429 . S
C1903 N1900 1.350 . S
C1903 C1902 1.434 . S
C1904 C1905 1.369 . S
C1904 C1906 1.419 . S
C1904 H1908 0.930 . S
C1905 C1904 1.369 . S
C1905 C1914 1.429 . S
C1906 C1904 1.419 . S
C1906 C1907 1.363 . S
C1906 H1909 0.929 . S
C1907 C1906 1.363 . S
C1907 C1913 1.428 . S
H1908 C1904 0.930 . S
H1909 C1906 0.929 . S
S1910 N1911 1.613 . S
S1910 N1912 1.610 . S
N1911 S1910 1.613 . S
N1911 C1914 1.350 . S
N1912 S1910 1.610 . S
N1912 C1913 1.351 . S
C1913 C1907 1.428 . S
C1913 N1912 1.351 . S
C1913 C1914 1.434 . S
C1914 C1905 1.429 . S
C1914 N1911 1.350 . S
C1914 C1913 1.434 . S
C1915 C1916 1.369 . S
C1915 C1917 1.419 . S
C1915 H1919 0.930 . S
C1916 C1915 1.369 . S
C1916 C1925 1.429 . S
C1917 C1915 1.419 . S
C1917 C1918 1.363 . S
C1917 H1920 0.929 . S
C1918 C1917 1.363 . S
C1918 C1924 1.428 . S
H1919 C1915 0.930 . S
H1920 C1917 0.929 . S
S1921 N1922 1.613 . S
S1921 N1923 1.610 . S
N1922 S1921 1.613 . S
N1922 C1925 1.350 . S
N1923 S1921 1.610 . S
N1923 C1924 1.351 . S
C1924 C1918 1.428 . S
C1924 N1923 1.351 . S
C1924 C1925 1.434 . S
C1925 C1916 1.429 . S
C1925 N1922 1.350 . S
C1925 C1924 1.434 . S
C1926 C1927 1.369 . S
C1926 C1928 1.419 . S
C1926 H1930 0.930 . S
C1927 C1926 1.369 . S
C1927 C1936 1.429 . S
C1928 C1926 1.419 . S
C1928 C1929 1.363 . S
C1928 H1931 0.929 . S
C1929 C1928 1.363 . S
C1929 C1935 1.428 . S
H1930 C1926 0.930 . S
H1931 C1928 0.929 . S
S1932 N1933 1.613 . S
S1932 N1934 1.610 . S
N1933 S1932 1.613 . S
N1933 C1936 1.350 . S
N1934 S1932 1.610 . S
N1934 C1935 1.351 . S
C1935 C1929 1.428 . S
C1935 N1934 1.351 . S
C1935 C1936 1.434 . S
C1936 C1927 1.429 . S
C1936 N1933 1.350 . S
C1936 C1935 1.434 . S
C1937 C1938 1.369 . S
C1937 C1939 1.419 . S
C1937 H1941 0.930 . S
C1938 C1937 1.369 . S
C1938 C1947 1.429 . S
C1939 C1937 1.419 . S
C1939 C1940 1.363 . S
C1939 H1942 0.929 . S
C1940 C1939 1.363 . S
C1940 C1946 1.428 . S
H1941 C1937 0.930 . S
H1942 C1939 0.929 . S
S1943 N1944 1.613 . S
S1943 N1945 1.610 . S
N1944 S1943 1.613 . S
N1944 C1947 1.350 . S
N1945 S1943 1.610 . S
N1945 C1946 1.351 . S
C1946 C1940 1.428 . S
C1946 N1945 1.351 . S
C1946 C1947 1.434 . S
C1947 C1938 1.429 . S
C1947 N1944 1.350 . S
C1947 C1946 1.434 . S
C1948 C1949 1.369 . S
C1948 C1950 1.419 . S
C1948 H1952 0.930 . S
C1949 C1948 1.369 . S
C1949 C1958 1.429 . S
C1950 C1948 1.419 . S
C1950 C1951 1.363 . S
C1950 H1953 0.929 . S
C1951 C1950 1.363 . S
C1951 C1957 1.428 . S
H1952 C1948 0.930 . S
H1953 C1950 0.929 . S
S1954 N1955 1.613 . S
S1954 N1956 1.610 . S
N1955 S1954 1.613 . S
N1955 C1958 1.350 . S
N1956 S1954 1.610 . S
N1956 C1957 1.351 . S
C1957 C1951 1.428 . S
C1957 N1956 1.351 . S
C1957 C1958 1.434 . S
C1958 C1949 1.429 . S
C1958 N1955 1.350 . S
C1958 C1957 1.434 . S
C1959 C1960 1.369 . S
C1959 C1961 1.419 . S
C1959 H1963 0.930 . S
C1960 C1959 1.369 . S
C1960 C1969 1.429 . S
C1961 C1959 1.419 . S
C1961 C1962 1.363 . S
C1961 H1964 0.929 . S
C1962 C1961 1.363 . S
C1962 C1968 1.428 . S
H1963 C1959 0.930 . S
H1964 C1961 0.929 . S
S1965 N1966 1.613 . S
S1965 N1967 1.610 . S
N1966 S1965 1.613 . S
N1966 C1969 1.350 . S
N1967 S1965 1.610 . S
N1967 C1968 1.351 . S
C1968 C1962 1.428 . S
C1968 N1967 1.351 . S
C1968 C1969 1.434 . S
C1969 C1960 1.429 . S
C1969 N1966 1.350 . S
C1969 C1968 1.434 . S
C1970 C1971 1.369 . S
C1970 C1972 1.419 . S
C1970 H1974 0.930 . S
C1971 C1970 1.369 . S
C1971 C1980 1.429 . S
C1972 C1970 1.419 . S
C1972 C1973 1.363 . S
C1972 H1975 0.929 . S
C1973 C1972 1.363 . S
C1973 C1979 1.428 . S
H1974 C1970 0.930 . S
H1975 C1972 0.929 . S
S1976 N1977 1.613 . S
S1976 N1978 1.610 . S
N1977 S1976 1.613 . S
N1977 C1980 1.350 . S
N1978 S1976 1.610 . S
N1978 C1979 1.351 . S
C1979 C1973 1.428 . S
C1979 N1978 1.351 . S
C1979 C1980 1.434 . S
C1980 C1971 1.429 . S
C1980 N1977 1.350 . S
C1980 C1979 1.434 . S
C1981 C1982 1.369 . S
C1981 C1983 1.419 . S
C1981 H1985 0.930 . S
C1982 C1981 1.369 . S
C1982 C1991 1.429 . S
C1983 C1981 1.419 . S
C1983 C1984 1.363 . S
C1983 H1986 0.929 . S
C1984 C1983 1.363 . S
C1984 C1990 1.428 . S
H1985 C1981 0.930 . S
H1986 C1983 0.929 . S
S1987 N1988 1.613 . S
S1987 N1989 1.610 . S
N1988 S1987 1.613 . S
N1988 C1991 1.350 . S
N1989 S1987 1.610 . S
N1989 C1990 1.351 . S
C1990 C1984 1.428 . S
C1990 N1989 1.351 . S
C1990 C1991 1.434 . S
C1991 C1982 1.429 . S
C1991 N1988 1.350 . S
C1991 C1990 1.434 . S
C1992 C1993 1.369 . S
C1992 C1994 1.419 . S
C1992 H1996 0.930 . S
C1993 C1992 1.369 . S
C1993 C2002 1.429 . S
C1994 C1992 1.419 . S
C1994 C1995 1.363 . S
C1994 H1997 0.929 . S
C1995 C1994 1.363 . S
C1995 C2001 1.428 . S
H1996 C1992 0.930 . S
H1997 C1994 0.929 . S
S1998 N1999 1.613 . S
S1998 N2000 1.610 . S
N1999 S1998 1.613 . S
N1999 C2002 1.350 . S
N2000 S1998 1.610 . S
N2000 C2001 1.351 . S
C2001 C1995 1.428 . S
C2001 N2000 1.351 . S
C2001 C2002 1.434 . S
C2002 C1993 1.429 . S
C2002 N1999 1.350 . S
C2002 C2001 1.434 . S
C2003 C2004 1.369 . S
C2003 C2005 1.419 . S
C2003 H2007 0.930 . S
C2004 C2003 1.369 . S
C2004 C2013 1.429 . S
C2005 C2003 1.419 . S
C2005 C2006 1.363 . S
C2005 H2008 0.929 . S
C2006 C2005 1.363 . S
C2006 C2012 1.428 . S
H2007 C2003 0.930 . S
H2008 C2005 0.929 . S
S2009 N2010 1.613 . S
S2009 N2011 1.610 . S
N2010 S2009 1.613 . S
N2010 C2013 1.350 . S
N2011 S2009 1.610 . S
N2011 C2012 1.351 . S
C2012 C2006 1.428 . S
C2012 N2011 1.351 . S
C2012 C2013 1.434 . S
C2013 C2004 1.429 . S
C2013 N2010 1.350 . S
C2013 C2012 1.434 . S
C2014 C2015 1.369 . S
C2014 C2016 1.419 . S
C2014 H2018 0.930 . S
C2015 C2014 1.369 . S
C2015 C2024 1.429 . S
C2016 C2014 1.419 . S
C2016 C2017 1.363 . S
C2016 H2019 0.929 . S
C2017 C2016 1.363 . S
C2017 C2023 1.428 . S
H2018 C2014 0.930 . S
H2019 C2016 0.929 . S
S2020 N2021 1.613 . S
S2020 N2022 1.610 . S
N2021 S2020 1.613 . S
N2021 C2024 1.350 . S
N2022 S2020 1.610 . S
N2022 C2023 1.351 . S
C2023 C2017 1.428 . S
C2023 N2022 1.351 . S
C2023 C2024 1.434 . S
C2024 C2015 1.429 . S
C2024 N2021 1.350 . S
C2024 C2023 1.434 . S
C2025 C2026 1.369 . S
C2025 C2027 1.419 . S
C2025 H2029 0.930 . S
C2026 C2025 1.369 . S
C2026 C2035 1.429 . S
C2027 C2025 1.419 . S
C2027 C2028 1.363 . S
C2027 H2030 0.929 . S
C2028 C2027 1.363 . S
C2028 C2034 1.428 . S
H2029 C2025 0.930 . S
H2030 C2027 0.929 . S
S2031 N2032 1.613 . S
S2031 N2033 1.610 . S
N2032 S2031 1.613 . S
N2032 C2035 1.350 . S
N2033 S2031 1.610 . S
N2033 C2034 1.351 . S
C2034 C2028 1.428 . S
C2034 N2033 1.351 . S
C2034 C2035 1.434 . S
C2035 C2026 1.429 . S
C2035 N2032 1.350 . S
C2035 C2034 1.434 . S
C2036 C2037 1.369 . S
C2036 C2038 1.419 . S
C2036 H2040 0.930 . S
C2037 C2036 1.369 . S
C2037 C2046 1.429 . S
C2038 C2036 1.419 . S
C2038 C2039 1.363 . S
C2038 H2041 0.929 . S
C2039 C2038 1.363 . S
C2039 C2045 1.428 . S
H2040 C2036 0.930 . S
H2041 C2038 0.929 . S
S2042 N2043 1.613 . S
S2042 N2044 1.610 . S
N2043 S2042 1.613 . S
N2043 C2046 1.350 . S
N2044 S2042 1.610 . S
N2044 C2045 1.351 . S
C2045 C2039 1.428 . S
C2045 N2044 1.351 . S
C2045 C2046 1.434 . S
C2046 C2037 1.429 . S
C2046 N2043 1.350 . S
C2046 C2045 1.434 . S
C2047 C2048 1.369 . S
C2047 C2049 1.419 . S
C2047 H2051 0.930 . S
C2048 C2047 1.369 . S
C2048 C2057 1.429 . S
C2049 C2047 1.419 . S
C2049 C2050 1.363 . S
C2049 H2052 0.929 . S
C2050 C2049 1.363 . S
C2050 C2056 1.428 . S
H2051 C2047 0.930 . S
H2052 C2049 0.929 . S
S2053 N2054 1.613 . S
S2053 N2055 1.610 . S
N2054 S2053 1.613 . S
N2054 C2057 1.350 . S
N2055 S2053 1.610 . S
N2055 C2056 1.351 . S
C2056 C2050 1.428 . S
C2056 N2055 1.351 . S
C2056 C2057 1.434 . S
C2057 C2048 1.429 . S
C2057 N2054 1.350 . S
C2057 C2056 1.434 . S
C2058 C2059 1.369 . S
C2058 C2060 1.419 . S
C2058 H2062 0.930 . S
C2059 C2058 1.369 . S
C2059 C2068 1.429 . S
C2060 C2058 1.419 . S
C2060 C2061 1.363 . S
C2060 H2063 0.929 . S
C2061 C2060 1.363 . S
C2061 C2067 1.428 . S
H2062 C2058 0.930 . S
H2063 C2060 0.929 . S
S2064 N2065 1.613 . S
S2064 N2066 1.610 . S
N2065 S2064 1.613 . S
N2065 C2068 1.350 . S
N2066 S2064 1.610 . S
N2066 C2067 1.351 . S
C2067 C2061 1.428 . S
C2067 N2066 1.351 . S
C2067 C2068 1.434 . S
C2068 C2059 1.429 . S
C2068 N2065 1.350 . S
C2068 C2067 1.434 . S
C2069 C2070 1.369 . S
C2069 C2071 1.419 . S
C2069 H2073 0.930 . S
C2070 C2069 1.369 . S
C2070 C2079 1.429 . S
C2071 C2069 1.419 . S
C2071 C2072 1.363 . S
C2071 H2074 0.929 . S
C2072 C2071 1.363 . S
C2072 C2078 1.428 . S
H2073 C2069 0.930 . S
H2074 C2071 0.929 . S
S2075 N2076 1.613 . S
S2075 N2077 1.610 . S
N2076 S2075 1.613 . S
N2076 C2079 1.350 . S
N2077 S2075 1.610 . S
N2077 C2078 1.351 . S
C2078 C2072 1.428 . S
C2078 N2077 1.351 . S
C2078 C2079 1.434 . S
C2079 C2070 1.429 . S
C2079 N2076 1.350 . S
C2079 C2078 1.434 . S
C2080 C2081 1.369 . S
C2080 C2082 1.419 . S
C2080 H2084 0.930 . S
C2081 C2080 1.369 . S
C2081 C2090 1.429 . S
C2082 C2080 1.419 . S
C2082 C2083 1.363 . S
C2082 H2085 0.929 . S
C2083 C2082 1.363 . S
C2083 C2089 1.428 . S
H2084 C2080 0.930 . S
H2085 C2082 0.929 . S
S2086 N2087 1.613 . S
S2086 N2088 1.610 . S
N2087 S2086 1.613 . S
N2087 C2090 1.350 . S
N2088 S2086 1.610 . S
N2088 C2089 1.351 . S
C2089 C2083 1.428 . S
C2089 N2088 1.351 . S
C2089 C2090 1.434 . S
C2090 C2081 1.429 . S
C2090 N2087 1.350 . S
C2090 C2089 1.434 . S
C2091 C2092 1.369 . S
C2091 C2093 1.419 . S
C2091 H2095 0.930 . S
C2092 C2091 1.369 . S
C2092 C2101 1.429 . S
C2093 C2091 1.419 . S
C2093 C2094 1.363 . S
C2093 H2096 0.929 . S
C2094 C2093 1.363 . S
C2094 C2100 1.428 . S
H2095 C2091 0.930 . S
H2096 C2093 0.929 . S
S2097 N2098 1.613 . S
S2097 N2099 1.610 . S
N2098 S2097 1.613 . S
N2098 C2101 1.350 . S
N2099 S2097 1.610 . S
N2099 C2100 1.351 . S
C2100 C2094 1.428 . S
C2100 N2099 1.351 . S
C2100 C2101 1.434 . S
C2101 C2092 1.429 . S
C2101 N2098 1.350 . S
C2101 C2100 1.434 . S
C2102 C2103 1.369 . S
C2102 C2104 1.419 . S
C2102 H2106 0.930 . S
C2103 C2102 1.369 . S
C2103 C2112 1.429 . S
C2104 C2102 1.419 . S
C2104 C2105 1.363 . S
C2104 H2107 0.929 . S
C2105 C2104 1.363 . S
C2105 C2111 1.428 . S
H2106 C2102 0.930 . S
H2107 C2104 0.929 . S
S2108 N2109 1.613 . S
S2108 N2110 1.610 . S
N2109 S2108 1.613 . S
N2109 C2112 1.350 . S
N2110 S2108 1.610 . S
N2110 C2111 1.351 . S
C2111 C2105 1.428 . S
C2111 N2110 1.351 . S
C2111 C2112 1.434 . S
C2112 C2103 1.429 . S
C2112 N2109 1.350 . S
C2112 C2111 1.434 . S
C2113 C2114 1.369 . S
C2113 C2115 1.419 . S
C2113 H2117 0.930 . S
C2114 C2113 1.369 . S
C2114 C2123 1.429 . S
C2115 C2113 1.419 . S
C2115 C2116 1.363 . S
C2115 H2118 0.929 . S
C2116 C2115 1.363 . S
C2116 C2122 1.428 . S
H2117 C2113 0.930 . S
H2118 C2115 0.929 . S
S2119 N2120 1.613 . S
S2119 N2121 1.610 . S
N2120 S2119 1.613 . S
N2120 C2123 1.350 . S
N2121 S2119 1.610 . S
N2121 C2122 1.351 . S
C2122 C2116 1.428 . S
C2122 N2121 1.351 . S
C2122 C2123 1.434 . S
C2123 C2114 1.429 . S
C2123 N2120 1.350 . S
C2123 C2122 1.434 . S
C2124 C2125 1.369 . S
C2124 C2126 1.419 . S
C2124 H2128 0.930 . S
C2125 C2124 1.369 . S
C2125 C2134 1.429 . S
C2126 C2124 1.419 . S
C2126 C2127 1.363 . S
C2126 H2129 0.929 . S
C2127 C2126 1.363 . S
C2127 C2133 1.428 . S
H2128 C2124 0.930 . S
H2129 C2126 0.929 . S
S2130 N2131 1.613 . S
S2130 N2132 1.610 . S
N2131 S2130 1.613 . S
N2131 C2134 1.350 . S
N2132 S2130 1.610 . S
N2132 C2133 1.351 . S
C2133 C2127 1.428 . S
C2133 N2132 1.351 . S
C2133 C2134 1.434 . S
C2134 C2125 1.429 . S
C2134 N2131 1.350 . S
C2134 C2133 1.434 . S
C2135 C2136 1.369 . S
C2135 C2137 1.419 . S
C2135 H2139 0.930 . S
C2136 C2135 1.369 . S
C2136 C2145 1.429 . S
C2137 C2135 1.419 . S
C2137 C2138 1.363 . S
C2137 H2140 0.929 . S
C2138 C2137 1.363 . S
C2138 C2144 1.428 . S
H2139 C2135 0.930 . S
H2140 C2137 0.929 . S
S2141 N2142 1.613 . S
S2141 N2143 1.610 . S
N2142 S2141 1.613 . S
N2142 C2145 1.350 . S
N2143 S2141 1.610 . S
N2143 C2144 1.351 . S
C2144 C2138 1.428 . S
C2144 N2143 1.351 . S
C2144 C2145 1.434 . S
C2145 C2136 1.429 . S
C2145 N2142 1.350 . S
C2145 C2144 1.434 . S
C2146 C2147 1.369 . S
C2146 C2148 1.419 . S
C2146 H2150 0.930 . S
C2147 C2146 1.369 . S
C2147 C2156 1.429 . S
C2148 C2146 1.419 . S
C2148 C2149 1.363 . S
C2148 H2151 0.929 . S
C2149 C2148 1.363 . S
C2149 C2155 1.428 . S
H2150 C2146 0.930 . S
H2151 C2148 0.929 . S
S2152 N2153 1.613 . S
S2152 N2154 1.610 . S
N2153 S2152 1.613 . S
N2153 C2156 1.350 . S
N2154 S2152 1.610 . S
N2154 C2155 1.351 . S
C2155 C2149 1.428 . S
C2155 N2154 1.351 . S
C2155 C2156 1.434 . S
C2156 C2147 1.429 . S
C2156 N2153 1.350 . S
C2156 C2155 1.434 . S
C2157 C2158 1.369 . S
C2157 C2159 1.419 . S
C2157 H2161 0.930 . S
C2158 C2157 1.369 . S
C2158 C2167 1.429 . S
C2159 C2157 1.419 . S
C2159 C2160 1.363 . S
C2159 H2162 0.929 . S
C2160 C2159 1.363 . S
C2160 C2166 1.428 . S
H2161 C2157 0.930 . S
H2162 C2159 0.929 . S
S2163 N2164 1.613 . S
S2163 N2165 1.610 . S
N2164 S2163 1.613 . S
N2164 C2167 1.350 . S
N2165 S2163 1.610 . S
N2165 C2166 1.351 . S
C2166 C2160 1.428 . S
C2166 N2165 1.351 . S
C2166 C2167 1.434 . S
C2167 C2158 1.429 . S
C2167 N2164 1.350 . S
C2167 C2166 1.434 . S
C2168 C2169 1.369 . S
C2168 C2170 1.419 . S
C2168 H2172 0.930 . S
C2169 C2168 1.369 . S
C2169 C2178 1.429 . S
C2170 C2168 1.419 . S
C2170 C2171 1.363 . S
C2170 H2173 0.929 . S
C2171 C2170 1.363 . S
C2171 C2177 1.428 . S
H2172 C2168 0.930 . S
H2173 C2170 0.929 . S
S2174 N2175 1.613 . S
S2174 N2176 1.610 . S
N2175 S2174 1.613 . S
N2175 C2178 1.350 . S
N2176 S2174 1.610 . S
N2176 C2177 1.351 . S
C2177 C2171 1.428 . S
C2177 N2176 1.351 . S
C2177 C2178 1.434 . S
C2178 C2169 1.429 . S
C2178 N2175 1.350 . S
C2178 C2177 1.434 . S
C2179 C2180 1.369 . S
C2179 C2181 1.419 . S
C2179 H2183 0.930 . S
C2180 C2179 1.369 . S
C2180 C2189 1.429 . S
C2181 C2179 1.419 . S
C2181 C2182 1.363 . S
C2181 H2184 0.929 . S
C2182 C2181 1.363 . S
C2182 C2188 1.428 . S
H2183 C2179 0.930 . S
H2184 C2181 0.929 . S
S2185 N2186 1.613 . S
S2185 N2187 1.610 . S
N2186 S2185 1.613 . S
N2186 C2189 1.350 . S
N2187 S2185 1.610 . S
N2187 C2188 1.351 . S
C2188 C2182 1.428 . S
C2188 N2187 1.351 . S
C2188 C2189 1.434 . S
C2189 C2180 1.429 . S
C2189 N2186 1.350 . S
C2189 C2188 1.434 . S
C2190 C2191 1.369 . S
C2190 C2192 1.419 . S
C2190 H2194 0.930 . S
C2191 C2190 1.369 . S
C2191 C2200 1.429 . S
C2192 C2190 1.419 . S
C2192 C2193 1.363 . S
C2192 H2195 0.929 . S
C2193 C2192 1.363 . S
C2193 C2199 1.428 . S
H2194 C2190 0.930 . S
H2195 C2192 0.929 . S
S2196 N2197 1.613 . S
S2196 N2198 1.610 . S
N2197 S2196 1.613 . S
N2197 C2200 1.350 . S
N2198 S2196 1.610 . S
N2198 C2199 1.351 . S
C2199 C2193 1.428 . S
C2199 N2198 1.351 . S
C2199 C2200 1.434 . S
C2200 C2191 1.429 . S
C2200 N2197 1.350 . S
C2200 C2199 1.434 . S
C2201 C2202 1.369 . S
C2201 C2203 1.419 . S
C2201 H2205 0.930 . S
C2202 C2201 1.369 . S
C2202 C2211 1.429 . S
C2203 C2201 1.419 . S
C2203 C2204 1.363 . S
C2203 H2206 0.929 . S
C2204 C2203 1.363 . S
C2204 C2210 1.428 . S
H2205 C2201 0.930 . S
H2206 C2203 0.929 . S
S2207 N2208 1.613 . S
S2207 N2209 1.610 . S
N2208 S2207 1.613 . S
N2208 C2211 1.350 . S
N2209 S2207 1.610 . S
N2209 C2210 1.351 . S
C2210 C2204 1.428 . S
C2210 N2209 1.351 . S
C2210 C2211 1.434 . S
C2211 C2202 1.429 . S
C2211 N2208 1.350 . S
C2211 C2210 1.434 . S
C2212 C2213 1.369 . S
C2212 C2214 1.419 . S
C2212 H2216 0.930 . S
C2213 C2212 1.369 . S
C2213 C2222 1.429 . S
C2214 C2212 1.419 . S
C2214 C2215 1.363 . S
C2214 H2217 0.929 . S
C2215 C2214 1.363 . S
C2215 C2221 1.428 . S
H2216 C2212 0.930 . S
H2217 C2214 0.929 . S
S2218 N2219 1.613 . S
S2218 N2220 1.610 . S
N2219 S2218 1.613 . S
N2219 C2222 1.350 . S
N2220 S2218 1.610 . S
N2220 C2221 1.351 . S
C2221 C2215 1.428 . S
C2221 N2220 1.351 . S
C2221 C2222 1.434 . S
C2222 C2213 1.429 . S
C2222 N2219 1.350 . S
C2222 C2221 1.434 . S
C2223 C2224 1.369 . S
C2223 C2225 1.419 . S
C2223 H2227 0.930 . S
C2224 C2223 1.369 . S
C2224 C2233 1.429 . S
C2225 C2223 1.419 . S
C2225 C2226 1.363 . S
C2225 H2228 0.929 . S
C2226 C2225 1.363 . S
C2226 C2232 1.428 . S
H2227 C2223 0.930 . S
H2228 C2225 0.929 . S
S2229 N2230 1.613 . S
S2229 N2231 1.610 . S
N2230 S2229 1.613 . S
N2230 C2233 1.350 . S
N2231 S2229 1.610 . S
N2231 C2232 1.351 . S
C2232 C2226 1.428 . S
C2232 N2231 1.351 . S
C2232 C2233 1.434 . S
C2233 C2224 1.429 . S
C2233 N2230 1.350 . S
C2233 C2232 1.434 . S
C2234 C2235 1.369 . S
C2234 C2236 1.419 . S
C2234 H2238 0.930 . S
C2235 C2234 1.369 . S
C2235 C2244 1.429 . S
C2236 C2234 1.419 . S
C2236 C2237 1.363 . S
C2236 H2239 0.929 . S
C2237 C2236 1.363 . S
C2237 C2243 1.428 . S
H2238 C2234 0.930 . S
H2239 C2236 0.929 . S
S2240 N2241 1.613 . S
S2240 N2242 1.610 . S
N2241 S2240 1.613 . S
N2241 C2244 1.350 . S
N2242 S2240 1.610 . S
N2242 C2243 1.351 . S
C2243 C2237 1.428 . S
C2243 N2242 1.351 . S
C2243 C2244 1.434 . S
C2244 C2235 1.429 . S
C2244 N2241 1.350 . S
C2244 C2243 1.434 . S
C2245 C2246 1.369 . S
C2245 C2247 1.419 . S
C2245 H2249 0.930 . S
C2246 C2245 1.369 . S
C2246 C2255 1.429 . S
C2247 C2245 1.419 . S
C2247 C2248 1.363 . S
C2247 H2250 0.929 . S
C2248 C2247 1.363 . S
C2248 C2254 1.428 . S
H2249 C2245 0.930 . S
H2250 C2247 0.929 . S
S2251 N2252 1.613 . S
S2251 N2253 1.610 . S
N2252 S2251 1.613 . S
N2252 C2255 1.350 . S
N2253 S2251 1.610 . S
N2253 C2254 1.351 . S
C2254 C2248 1.428 . S
C2254 N2253 1.351 . S
C2254 C2255 1.434 . S
C2255 C2246 1.429 . S
C2255 N2252 1.350 . S
C2255 C2254 1.434 . S
C2256 C2257 1.369 . S
C2256 C2258 1.419 . S
C2256 H2260 0.930 . S
C2257 C2256 1.369 . S
C2257 C2266 1.429 . S
C2258 C2256 1.419 . S
C2258 C2259 1.363 . S
C2258 H2261 0.929 . S
C2259 C2258 1.363 . S
C2259 C2265 1.428 . S
H2260 C2256 0.930 . S
H2261 C2258 0.929 . S
S2262 N2263 1.613 . S
S2262 N2264 1.610 . S
N2263 S2262 1.613 . S
N2263 C2266 1.350 . S
N2264 S2262 1.610 . S
N2264 C2265 1.351 . S
C2265 C2259 1.428 . S
C2265 N2264 1.351 . S
C2265 C2266 1.434 . S
C2266 C2257 1.429 . S
C2266 N2263 1.350 . S
C2266 C2265 1.434 . S
C2267 C2268 1.369 . S
C2267 C2269 1.419 . S
C2267 H2271 0.930 . S
C2268 C2267 1.369 . S
C2268 C2277 1.429 . S
C2269 C2267 1.419 . S
C2269 C2270 1.363 . S
C2269 H2272 0.929 . S
C2270 C2269 1.363 . S
C2270 C2276 1.428 . S
H2271 C2267 0.930 . S
H2272 C2269 0.929 . S
S2273 N2274 1.613 . S
S2273 N2275 1.610 . S
N2274 S2273 1.613 . S
N2274 C2277 1.350 . S
N2275 S2273 1.610 . S
N2275 C2276 1.351 . S
C2276 C2270 1.428 . S
C2276 N2275 1.351 . S
C2276 C2277 1.434 . S
C2277 C2268 1.429 . S
C2277 N2274 1.350 . S
C2277 C2276 1.434 . S
C2278 C2279 1.369 . S
C2278 C2280 1.419 . S
C2278 H2282 0.930 . S
C2279 C2278 1.369 . S
C2279 C2288 1.429 . S
C2280 C2278 1.419 . S
C2280 C2281 1.363 . S
C2280 H2283 0.929 . S
C2281 C2280 1.363 . S
C2281 C2287 1.428 . S
H2282 C2278 0.930 . S
H2283 C2280 0.929 . S
S2284 N2285 1.613 . S
S2284 N2286 1.610 . S
N2285 S2284 1.613 . S
N2285 C2288 1.350 . S
N2286 S2284 1.610 . S
N2286 C2287 1.351 . S
C2287 C2281 1.428 . S
C2287 N2286 1.351 . S
C2287 C2288 1.434 . S
C2288 C2279 1.429 . S
C2288 N2285 1.350 . S
C2288 C2287 1.434 . S
C2289 C2290 1.369 . S
C2289 C2291 1.419 . S
C2289 H2293 0.930 . S
C2290 C2289 1.369 . S
C2290 C2299 1.429 . S
C2291 C2289 1.419 . S
C2291 C2292 1.363 . S
C2291 H2294 0.929 . S
C2292 C2291 1.363 . S
C2292 C2298 1.428 . S
H2293 C2289 0.930 . S
H2294 C2291 0.929 . S
S2295 N2296 1.613 . S
S2295 N2297 1.610 . S
N2296 S2295 1.613 . S
N2296 C2299 1.350 . S
N2297 S2295 1.610 . S
N2297 C2298 1.351 . S
C2298 C2292 1.428 . S
C2298 N2297 1.351 . S
C2298 C2299 1.434 . S
C2299 C2290 1.429 . S
C2299 N2296 1.350 . S
C2299 C2298 1.434 . S
C2300 C2301 1.369 . S
C2300 C2302 1.419 . S
C2300 H2304 0.930 . S
C2301 C2300 1.369 . S
C2301 C2310 1.429 . S
C2302 C2300 1.419 . S
C2302 C2303 1.363 . S
C2302 H2305 0.929 . S
C2303 C2302 1.363 . S
C2303 C2309 1.428 . S
H2304 C2300 0.930 . S
H2305 C2302 0.929 . S
S2306 N2307 1.613 . S
S2306 N2308 1.610 . S
N2307 S2306 1.613 . S
N2307 C2310 1.350 . S
N2308 S2306 1.610 . S
N2308 C2309 1.351 . S
C2309 C2303 1.428 . S
C2309 N2308 1.351 . S
C2309 C2310 1.434 . S
C2310 C2301 1.429 . S
C2310 N2307 1.350 . S
C2310 C2309 1.434 . S
C2311 C2312 1.369 . S
C2311 C2313 1.419 . S
C2311 H2315 0.930 . S
C2312 C2311 1.369 . S
C2312 C2321 1.429 . S
C2313 C2311 1.419 . S
C2313 C2314 1.363 . S
C2313 H2316 0.929 . S
C2314 C2313 1.363 . S
C2314 C2320 1.428 . S
H2315 C2311 0.930 . S
H2316 C2313 0.929 . S
S2317 N2318 1.613 . S
S2317 N2319 1.610 . S
N2318 S2317 1.613 . S
N2318 C2321 1.350 . S
N2319 S2317 1.610 . S
N2319 C2320 1.351 . S
C2320 C2314 1.428 . S
C2320 N2319 1.351 . S
C2320 C2321 1.434 . S
C2321 C2312 1.429 . S
C2321 N2318 1.350 . S
C2321 C2320 1.434 . S
C2322 C2323 1.369 . S
C2322 C2324 1.419 . S
C2322 H2326 0.930 . S
C2323 C2322 1.369 . S
C2323 C2332 1.429 . S
C2324 C2322 1.419 . S
C2324 C2325 1.363 . S
C2324 H2327 0.929 . S
C2325 C2324 1.363 . S
C2325 C2331 1.428 . S
H2326 C2322 0.930 . S
H2327 C2324 0.929 . S
S2328 N2329 1.613 . S
S2328 N2330 1.610 . S
N2329 S2328 1.613 . S
N2329 C2332 1.350 . S
N2330 S2328 1.610 . S
N2330 C2331 1.351 . S
C2331 C2325 1.428 . S
C2331 N2330 1.351 . S
C2331 C2332 1.434 . S
C2332 C2323 1.429 . S
C2332 N2329 1.350 . S
C2332 C2331 1.434 . S
C2333 C2334 1.369 . S
C2333 C2335 1.419 . S
C2333 H2337 0.930 . S
C2334 C2333 1.369 . S
C2334 C2343 1.429 . S
C2335 C2333 1.419 . S
C2335 C2336 1.363 . S
C2335 H2338 0.929 . S
C2336 C2335 1.363 . S
C2336 C2342 1.428 . S
H2337 C2333 0.930 . S
H2338 C2335 0.929 . S
S2339 N2340 1.613 . S
S2339 N2341 1.610 . S
N2340 S2339 1.613 . S
N2340 C2343 1.350 . S
N2341 S2339 1.610 . S
N2341 C2342 1.351 . S
C2342 C2336 1.428 . S
C2342 N2341 1.351 . S
C2342 C2343 1.434 . S
C2343 C2334 1.429 . S
C2343 N2340 1.350 . S
C2343 C2342 1.434 . S
C2344 C2345 1.369 . S
C2344 C2346 1.419 . S
C2344 H2348 0.930 . S
C2345 C2344 1.369 . S
C2345 C2354 1.429 . S
C2346 C2344 1.419 . S
C2346 C2347 1.363 . S
C2346 H2349 0.929 . S
C2347 C2346 1.363 . S
C2347 C2353 1.428 . S
H2348 C2344 0.930 . S
H2349 C2346 0.929 . S
S2350 N2351 1.613 . S
S2350 N2352 1.610 . S
N2351 S2350 1.613 . S
N2351 C2354 1.350 . S
N2352 S2350 1.610 . S
N2352 C2353 1.351 . S
C2353 C2347 1.428 . S
C2353 N2352 1.351 . S
C2353 C2354 1.434 . S
C2354 C2345 1.429 . S
C2354 N2351 1.350 . S
C2354 C2353 1.434 . S
C2355 C2356 1.369 . S
C2355 C2357 1.419 . S
C2355 H2359 0.930 . S
C2356 C2355 1.369 . S
C2356 C2365 1.429 . S
C2357 C2355 1.419 . S
C2357 C2358 1.363 . S
C2357 H2360 0.929 . S
C2358 C2357 1.363 . S
C2358 C2364 1.428 . S
H2359 C2355 0.930 . S
H2360 C2357 0.929 . S
S2361 N2362 1.613 . S
S2361 N2363 1.610 . S
N2362 S2361 1.613 . S
N2362 C2365 1.350 . S
N2363 S2361 1.610 . S
N2363 C2364 1.351 . S
C2364 C2358 1.428 . S
C2364 N2363 1.351 . S
C2364 C2365 1.434 . S
C2365 C2356 1.429 . S
C2365 N2362 1.350 . S
C2365 C2364 1.434 . S
C2366 C2367 1.369 . S
C2366 C2368 1.419 . S
C2366 H2370 0.930 . S
C2367 C2366 1.369 . S
C2367 C2376 1.429 . S
C2368 C2366 1.419 . S
C2368 C2369 1.363 . S
C2368 H2371 0.929 . S
C2369 C2368 1.363 . S
C2369 C2375 1.428 . S
H2370 C2366 0.930 . S
H2371 C2368 0.929 . S
S2372 N2373 1.613 . S
S2372 N2374 1.610 . S
N2373 S2372 1.613 . S
N2373 C2376 1.350 . S
N2374 S2372 1.610 . S
N2374 C2375 1.351 . S
C2375 C2369 1.428 . S
C2375 N2374 1.351 . S
C2375 C2376 1.434 . S
C2376 C2367 1.429 . S
C2376 N2373 1.350 . S
C2376 C2375 1.434 . S
C2377 C2378 1.369 . S
C2377 C2379 1.419 . S
C2377 H2381 0.930 . S
C2378 C2377 1.369 . S
C2378 C2387 1.429 . S
C2379 C2377 1.419 . S
C2379 C2380 1.363 . S
C2379 H2382 0.929 . S
C2380 C2379 1.363 . S
C2380 C2386 1.428 . S
H2381 C2377 0.930 . S
H2382 C2379 0.929 . S
S2383 N2384 1.613 . S
S2383 N2385 1.610 . S
N2384 S2383 1.613 . S
N2384 C2387 1.350 . S
N2385 S2383 1.610 . S
N2385 C2386 1.351 . S
C2386 C2380 1.428 . S
C2386 N2385 1.351 . S
C2386 C2387 1.434 . S
C2387 C2378 1.429 . S
C2387 N2384 1.350 . S
C2387 C2386 1.434 . S
C2388 C2389 1.369 . S
C2388 C2390 1.419 . S
C2388 H2392 0.930 . S
C2389 C2388 1.369 . S
C2389 C2398 1.429 . S
C2390 C2388 1.419 . S
C2390 C2391 1.363 . S
C2390 H2393 0.929 . S
C2391 C2390 1.363 . S
C2391 C2397 1.428 . S
H2392 C2388 0.930 . S
H2393 C2390 0.929 . S
S2394 N2395 1.613 . S
S2394 N2396 1.610 . S
N2395 S2394 1.613 . S
N2395 C2398 1.350 . S
N2396 S2394 1.610 . S
N2396 C2397 1.351 . S
C2397 C2391 1.428 . S
C2397 N2396 1.351 . S
C2397 C2398 1.434 . S
C2398 C2389 1.429 . S
C2398 N2395 1.350 . S
C2398 C2397 1.434 . S
C2399 C2400 1.369 . S
C2399 C2401 1.419 . S
C2399 H2403 0.930 . S
C2400 C2399 1.369 . S
C2400 C2409 1.429 . S
C2401 C2399 1.419 . S
C2401 C2402 1.363 . S
C2401 H2404 0.929 . S
C2402 C2401 1.363 . S
C2402 C2408 1.428 . S
H2403 C2399 0.930 . S
H2404 C2401 0.929 . S
S2405 N2406 1.613 . S
S2405 N2407 1.610 . S
N2406 S2405 1.613 . S
N2406 C2409 1.350 . S
N2407 S2405 1.610 . S
N2407 C2408 1.351 . S
C2408 C2402 1.428 . S
C2408 N2407 1.351 . S
C2408 C2409 1.434 . S
C2409 C2400 1.429 . S
C2409 N2406 1.350 . S
C2409 C2408 1.434 . S
C2410 C2411 1.369 . S
C2410 C2412 1.419 . S
C2410 H2414 0.930 . S
C2411 C2410 1.369 . S
C2411 C2420 1.429 . S
C2412 C2410 1.419 . S
C2412 C2413 1.363 . S
C2412 H2415 0.929 . S
C2413 C2412 1.363 . S
C2413 C2419 1.428 . S
H2414 C2410 0.930 . S
H2415 C2412 0.929 . S
S2416 N2417 1.613 . S
S2416 N2418 1.610 . S
N2417 S2416 1.613 . S
N2417 C2420 1.350 . S
N2418 S2416 1.610 . S
N2418 C2419 1.351 . S
C2419 C2413 1.428 . S
C2419 N2418 1.351 . S
C2419 C2420 1.434 . S
C2420 C2411 1.429 . S
C2420 N2417 1.350 . S
C2420 C2419 1.434 . S
C2421 C2422 1.369 . S
C2421 C2423 1.419 . S
C2421 H2425 0.930 . S
C2422 C2421 1.369 . S
C2422 C2431 1.429 . S
C2423 C2421 1.419 . S
C2423 C2424 1.363 . S
C2423 H2426 0.929 . S
C2424 C2423 1.363 . S
C2424 C2430 1.428 . S
H2425 C2421 0.930 . S
H2426 C2423 0.929 . S
S2427 N2428 1.613 . S
S2427 N2429 1.610 . S
N2428 S2427 1.613 . S
N2428 C2431 1.350 . S
N2429 S2427 1.610 . S
N2429 C2430 1.351 . S
C2430 C2424 1.428 . S
C2430 N2429 1.351 . S
C2430 C2431 1.434 . S
C2431 C2422 1.429 . S
C2431 N2428 1.350 . S
C2431 C2430 1.434 . S
C2432 C2433 1.369 . S
C2432 C2434 1.419 . S
C2432 H2436 0.930 . S
C2433 C2432 1.369 . S
C2433 C2442 1.429 . S
C2434 C2432 1.419 . S
C2434 C2435 1.363 . S
C2434 H2437 0.929 . S
C2435 C2434 1.363 . S
C2435 C2441 1.428 . S
H2436 C2432 0.930 . S
H2437 C2434 0.929 . S
S2438 N2439 1.613 . S
S2438 N2440 1.610 . S
N2439 S2438 1.613 . S
N2439 C2442 1.350 . S
N2440 S2438 1.610 . S
N2440 C2441 1.351 . S
C2441 C2435 1.428 . S
C2441 N2440 1.351 . S
C2441 C2442 1.434 . S
C2442 C2433 1.429 . S
C2442 N2439 1.350 . S
C2442 C2441 1.434 . S
C2443 C2444 1.369 . S
C2443 C2445 1.419 . S
C2443 H2447 0.930 . S
C2444 C2443 1.369 . S
C2444 C2453 1.429 . S
C2445 C2443 1.419 . S
C2445 C2446 1.363 . S
C2445 H2448 0.929 . S
C2446 C2445 1.363 . S
C2446 C2452 1.428 . S
H2447 C2443 0.930 . S
H2448 C2445 0.929 . S
S2449 N2450 1.613 . S
S2449 N2451 1.610 . S
N2450 S2449 1.613 . S
N2450 C2453 1.350 . S
N2451 S2449 1.610 . S
N2451 C2452 1.351 . S
C2452 C2446 1.428 . S
C2452 N2451 1.351 . S
C2452 C2453 1.434 . S
C2453 C2444 1.429 . S
C2453 N2450 1.350 . S
C2453 C2452 1.434 . S
C2454 C2455 1.369 . S
C2454 C2456 1.419 . S
C2454 H2458 0.930 . S
C2455 C2454 1.369 . S
C2455 C2464 1.429 . S
C2456 C2454 1.419 . S
C2456 C2457 1.363 . S
C2456 H2459 0.929 . S
C2457 C2456 1.363 . S
C2457 C2463 1.428 . S
H2458 C2454 0.930 . S
H2459 C2456 0.929 . S
S2460 N2461 1.613 . S
S2460 N2462 1.610 . S
N2461 S2460 1.613 . S
N2461 C2464 1.350 . S
N2462 S2460 1.610 . S
N2462 C2463 1.351 . S
C2463 C2457 1.428 . S
C2463 N2462 1.351 . S
C2463 C2464 1.434 . S
C2464 C2455 1.429 . S
C2464 N2461 1.350 . S
C2464 C2463 1.434 . S
C2465 C2466 1.369 . S
C2465 C2467 1.419 . S
C2465 H2469 0.930 . S
C2466 C2465 1.369 . S
C2466 C2475 1.429 . S
C2467 C2465 1.419 . S
C2467 C2468 1.363 . S
C2467 H2470 0.929 . S
C2468 C2467 1.363 . S
C2468 C2474 1.428 . S
H2469 C2465 0.930 . S
H2470 C2467 0.929 . S
S2471 N2472 1.613 . S
S2471 N2473 1.610 . S
N2472 S2471 1.613 . S
N2472 C2475 1.350 . S
N2473 S2471 1.610 . S
N2473 C2474 1.351 . S
C2474 C2468 1.428 . S
C2474 N2473 1.351 . S
C2474 C2475 1.434 . S
C2475 C2466 1.429 . S
C2475 N2472 1.350 . S
C2475 C2474 1.434 . S
C2476 C2477 1.369 . S
C2476 C2478 1.419 . S
C2476 H2480 0.930 . S
C2477 C2476 1.369 . S
C2477 C2486 1.429 . S
C2478 C2476 1.419 . S
C2478 C2479 1.363 . S
C2478 H2481 0.929 . S
C2479 C2478 1.363 . S
C2479 C2485 1.428 . S
H2480 C2476 0.930 . S
H2481 C2478 0.929 . S
S2482 N2483 1.613 . S
S2482 N2484 1.610 . S
N2483 S2482 1.613 . S
N2483 C2486 1.350 . S
N2484 S2482 1.610 . S
N2484 C2485 1.351 . S
C2485 C2479 1.428 . S
C2485 N2484 1.351 . S
C2485 C2486 1.434 . S
C2486 C2477 1.429 . S
C2486 N2483 1.350 . S
C2486 C2485 1.434 . S
C2487 C2488 1.369 . S
C2487 C2489 1.419 . S
C2487 H2491 0.930 . S
C2488 C2487 1.369 . S
C2488 C2497 1.429 . S
C2489 C2487 1.419 . S
C2489 C2490 1.363 . S
C2489 H2492 0.929 . S
C2490 C2489 1.363 . S
C2490 C2496 1.428 . S
H2491 C2487 0.930 . S
H2492 C2489 0.929 . S
S2493 N2494 1.613 . S
S2493 N2495 1.610 . S
N2494 S2493 1.613 . S
N2494 C2497 1.350 . S
N2495 S2493 1.610 . S
N2495 C2496 1.351 . S
C2496 C2490 1.428 . S
C2496 N2495 1.351 . S
C2496 C2497 1.434 . S
C2497 C2488 1.429 . S
C2497 N2494 1.350 . S
C2497 C2496 1.434 . S
C2498 C2499 1.369 . S
C2498 C2500 1.419 . S
C2498 H2502 0.930 . S
C2499 C2498 1.369 . S
C2499 C2508 1.429 . S
C2500 C2498 1.419 . S
C2500 C2501 1.363 . S
C2500 H2503 0.929 . S
C2501 C2500 1.363 . S
C2501 C2507 1.428 . S
H2502 C2498 0.930 . S
H2503 C2500 0.929 . S
S2504 N2505 1.613 . S
S2504 N2506 1.610 . S
N2505 S2504 1.613 . S
N2505 C2508 1.350 . S
N2506 S2504 1.610 . S
N2506 C2507 1.351 . S
C2507 C2501 1.428 . S
C2507 N2506 1.351 . S
C2507 C2508 1.434 . S
C2508 C2499 1.429 . S
C2508 N2505 1.350 . S
C2508 C2507 1.434 . S
C2509 C2510 1.369 . S
C2509 C2511 1.419 . S
C2509 H2513 0.930 . S
C2510 C2509 1.369 . S
C2510 C2519 1.429 . S
C2511 C2509 1.419 . S
C2511 C2512 1.363 . S
C2511 H2514 0.929 . S
C2512 C2511 1.363 . S
C2512 C2518 1.428 . S
H2513 C2509 0.930 . S
H2514 C2511 0.929 . S
S2515 N2516 1.613 . S
S2515 N2517 1.610 . S
N2516 S2515 1.613 . S
N2516 C2519 1.350 . S
N2517 S2515 1.610 . S
N2517 C2518 1.351 . S
C2518 C2512 1.428 . S
C2518 N2517 1.351 . S
C2518 C2519 1.434 . S
C2519 C2510 1.429 . S
C2519 N2516 1.350 . S
C2519 C2518 1.434 . S
C2520 C2521 1.369 . S
C2520 C2522 1.419 . S
C2520 H2524 0.930 . S
C2521 C2520 1.369 . S
C2521 C2530 1.429 . S
C2522 C2520 1.419 . S
C2522 C2523 1.363 . S
C2522 H2525 0.929 . S
C2523 C2522 1.363 . S
C2523 C2529 1.428 . S
H2524 C2520 0.930 . S
H2525 C2522 0.929 . S
S2526 N2527 1.613 . S
S2526 N2528 1.610 . S
N2527 S2526 1.613 . S
N2527 C2530 1.350 . S
N2528 S2526 1.610 . S
N2528 C2529 1.351 . S
C2529 C2523 1.428 . S
C2529 N2528 1.351 . S
C2529 C2530 1.434 . S
C2530 C2521 1.429 . S
C2530 N2527 1.350 . S
C2530 C2529 1.434 . S
C2531 C2532 1.369 . S
C2531 C2533 1.419 . S
C2531 H2535 0.930 . S
C2532 C2531 1.369 . S
C2532 C2541 1.429 . S
C2533 C2531 1.419 . S
C2533 C2534 1.363 . S
C2533 H2536 0.929 . S
C2534 C2533 1.363 . S
C2534 C2540 1.428 . S
H2535 C2531 0.930 . S
H2536 C2533 0.929 . S
S2537 N2538 1.613 . S
S2537 N2539 1.610 . S
N2538 S2537 1.613 . S
N2538 C2541 1.350 . S
N2539 S2537 1.610 . S
N2539 C2540 1.351 . S
C2540 C2534 1.428 . S
C2540 N2539 1.351 . S
C2540 C2541 1.434 . S
C2541 C2532 1.429 . S
C2541 N2538 1.350 . S
C2541 C2540 1.434 . S
C2542 C2543 1.369 . S
C2542 C2544 1.419 . S
C2542 H2546 0.930 . S
C2543 C2542 1.369 . S
C2543 C2552 1.429 . S
C2544 C2542 1.419 . S
C2544 C2545 1.363 . S
C2544 H2547 0.929 . S
C2545 C2544 1.363 . S
C2545 C2551 1.428 . S
H2546 C2542 0.930 . S
H2547 C2544 0.929 . S
S2548 N2549 1.613 . S
S2548 N2550 1.610 . S
N2549 S2548 1.613 . S
N2549 C2552 1.350 . S
N2550 S2548 1.610 . S
N2550 C2551 1.351 . S
C2551 C2545 1.428 . S
C2551 N2550 1.351 . S
C2551 C2552 1.434 . S
C2552 C2543 1.429 . S
C2552 N2549 1.350 . S
C2552 C2551 1.434 . S
C2553 C2554 1.369 . S
C2553 C2555 1.419 . S
C2553 H2557 0.930 . S
C2554 C2553 1.369 . S
C2554 C2563 1.429 . S
C2555 C2553 1.419 . S
C2555 C2556 1.363 . S
C2555 H2558 0.929 . S
C2556 C2555 1.363 . S
C2556 C2562 1.428 . S
H2557 C2553 0.930 . S
H2558 C2555 0.929 . S
S2559 N2560 1.613 . S
S2559 N2561 1.610 . S
N2560 S2559 1.613 . S
N2560 C2563 1.350 . S
N2561 S2559 1.610 . S
N2561 C2562 1.351 . S
C2562 C2556 1.428 . S
C2562 N2561 1.351 . S
C2562 C2563 1.434 . S
C2563 C2554 1.429 . S
C2563 N2560 1.350 . S
C2563 C2562 1.434 . S
C2564 C2565 1.369 . S
C2564 C2566 1.419 . S
C2564 H2568 0.930 . S
C2565 C2564 1.369 . S
C2565 C2574 1.429 . S
C2566 C2564 1.419 . S
C2566 C2567 1.363 . S
C2566 H2569 0.929 . S
C2567 C2566 1.363 . S
C2567 C2573 1.428 . S
H2568 C2564 0.930 . S
H2569 C2566 0.929 . S
S2570 N2571 1.613 . S
S2570 N2572 1.610 . S
N2571 S2570 1.613 . S
N2571 C2574 1.350 . S
N2572 S2570 1.610 . S
N2572 C2573 1.351 . S
C2573 C2567 1.428 . S
C2573 N2572 1.351 . S
C2573 C2574 1.434 . S
C2574 C2565 1.429 . S
C2574 N2571 1.350 . S
C2574 C2573 1.434 . S
C2575 C2576 1.369 . S
C2575 C2577 1.419 . S
C2575 H2579 0.930 . S
C2576 C2575 1.369 . S
C2576 C2585 1.429 . S
C2577 C2575 1.419 . S
C2577 C2578 1.363 . S
C2577 H2580 0.929 . S
C2578 C2577 1.363 . S
C2578 C2584 1.428 . S
H2579 C2575 0.930 . S
H2580 C2577 0.929 . S
S2581 N2582 1.613 . S
S2581 N2583 1.610 . S
N2582 S2581 1.613 . S
N2582 C2585 1.350 . S
N2583 S2581 1.610 . S
N2583 C2584 1.351 . S
C2584 C2578 1.428 . S
C2584 N2583 1.351 . S
C2584 C2585 1.434 . S
C2585 C2576 1.429 . S
C2585 N2582 1.350 . S
C2585 C2584 1.434 . S
C2586 C2587 1.369 . S
C2586 C2588 1.419 . S
C2586 H2590 0.930 . S
C2587 C2586 1.369 . S
C2587 C2596 1.429 . S
C2588 C2586 1.419 . S
C2588 C2589 1.363 . S
C2588 H2591 0.929 . S
C2589 C2588 1.363 . S
C2589 C2595 1.428 . S
H2590 C2586 0.930 . S
H2591 C2588 0.929 . S
S2592 N2593 1.613 . S
S2592 N2594 1.610 . S
N2593 S2592 1.613 . S
N2593 C2596 1.350 . S
N2594 S2592 1.610 . S
N2594 C2595 1.351 . S
C2595 C2589 1.428 . S
C2595 N2594 1.351 . S
C2595 C2596 1.434 . S
C2596 C2587 1.429 . S
C2596 N2593 1.350 . S
C2596 C2595 1.434 . S
C2597 C2598 1.369 . S
C2597 C2599 1.419 . S
C2597 H2601 0.930 . S
C2598 C2597 1.369 . S
C2598 C2607 1.429 . S
C2599 C2597 1.419 . S
C2599 C2600 1.363 . S
C2599 H2602 0.929 . S
C2600 C2599 1.363 . S
C2600 C2606 1.428 . S
H2601 C2597 0.930 . S
H2602 C2599 0.929 . S
S2603 N2604 1.613 . S
S2603 N2605 1.610 . S
N2604 S2603 1.613 . S
N2604 C2607 1.350 . S
N2605 S2603 1.610 . S
N2605 C2606 1.351 . S
C2606 C2600 1.428 . S
C2606 N2605 1.351 . S
C2606 C2607 1.434 . S
C2607 C2598 1.429 . S
C2607 N2604 1.350 . S
C2607 C2606 1.434 . S
C2608 C2609 1.369 . S
C2608 C2610 1.419 . S
C2608 H2612 0.930 . S
C2609 C2608 1.369 . S
C2609 C2618 1.429 . S
C2610 C2608 1.419 . S
C2610 C2611 1.363 . S
C2610 H2613 0.929 . S
C2611 C2610 1.363 . S
C2611 C2617 1.428 . S
H2612 C2608 0.930 . S
H2613 C2610 0.929 . S
S2614 N2615 1.613 . S
S2614 N2616 1.610 . S
N2615 S2614 1.613 . S
N2615 C2618 1.350 . S
N2616 S2614 1.610 . S
N2616 C2617 1.351 . S
C2617 C2611 1.428 . S
C2617 N2616 1.351 . S
C2617 C2618 1.434 . S
C2618 C2609 1.429 . S
C2618 N2615 1.350 . S
C2618 C2617 1.434 . S
C2619 C2620 1.369 . S
C2619 C2621 1.419 . S
C2619 H2623 0.930 . S
C2620 C2619 1.369 . S
C2620 C2629 1.429 . S
C2621 C2619 1.419 . S
C2621 C2622 1.363 . S
C2621 H2624 0.929 . S
C2622 C2621 1.363 . S
C2622 C2628 1.428 . S
H2623 C2619 0.930 . S
H2624 C2621 0.929 . S
S2625 N2626 1.613 . S
S2625 N2627 1.610 . S
N2626 S2625 1.613 . S
N2626 C2629 1.350 . S
N2627 S2625 1.610 . S
N2627 C2628 1.351 . S
C2628 C2622 1.428 . S
C2628 N2627 1.351 . S
C2628 C2629 1.434 . S
C2629 C2620 1.429 . S
C2629 N2626 1.350 . S
C2629 C2628 1.434 . S
C2630 C2631 1.369 . S
C2630 C2632 1.419 . S
C2630 H2634 0.930 . S
C2631 C2630 1.369 . S
C2631 C2640 1.429 . S
C2632 C2630 1.419 . S
C2632 C2633 1.363 . S
C2632 H2635 0.929 . S
C2633 C2632 1.363 . S
C2633 C2639 1.428 . S
H2634 C2630 0.930 . S
H2635 C2632 0.929 . S
S2636 N2637 1.613 . S
S2636 N2638 1.610 . S
N2637 S2636 1.613 . S
N2637 C2640 1.350 . S
N2638 S2636 1.610 . S
N2638 C2639 1.351 . S
C2639 C2633 1.428 . S
C2639 N2638 1.351 . S
C2639 C2640 1.434 . S
C2640 C2631 1.429 . S
C2640 N2637 1.350 . S
C2640 C2639 1.434 . S
C2641 C2642 1.369 . S
C2641 C2643 1.419 . S
C2641 H2645 0.930 . S
C2642 C2641 1.369 . S
C2642 C2651 1.429 . S
C2643 C2641 1.419 . S
C2643 C2644 1.363 . S
C2643 H2646 0.929 . S
C2644 C2643 1.363 . S
C2644 C2650 1.428 . S
H2645 C2641 0.930 . S
H2646 C2643 0.929 . S
S2647 N2648 1.613 . S
S2647 N2649 1.610 . S
N2648 S2647 1.613 . S
N2648 C2651 1.350 . S
N2649 S2647 1.610 . S
N2649 C2650 1.351 . S
C2650 C2644 1.428 . S
C2650 N2649 1.351 . S
C2650 C2651 1.434 . S
C2651 C2642 1.429 . S
C2651 N2648 1.350 . S
C2651 C2650 1.434 . S
C2652 C2653 1.369 . S
C2652 C2654 1.419 . S
C2652 H2656 0.930 . S
C2653 C2652 1.369 . S
C2653 C2662 1.429 . S
C2654 C2652 1.419 . S
C2654 C2655 1.363 . S
C2654 H2657 0.929 . S
C2655 C2654 1.363 . S
C2655 C2661 1.428 . S
H2656 C2652 0.930 . S
H2657 C2654 0.929 . S
S2658 N2659 1.613 . S
S2658 N2660 1.610 . S
N2659 S2658 1.613 . S
N2659 C2662 1.350 . S
N2660 S2658 1.610 . S
N2660 C2661 1.351 . S
C2661 C2655 1.428 . S
C2661 N2660 1.351 . S
C2661 C2662 1.434 . S
C2662 C2653 1.429 . S
C2662 N2659 1.350 . S
C2662 C2661 1.434 . S
C2663 C2664 1.369 . S
C2663 C2665 1.419 . S
C2663 H2667 0.930 . S
C2664 C2663 1.369 . S
C2664 C2673 1.429 . S
C2665 C2663 1.419 . S
C2665 C2666 1.363 . S
C2665 H2668 0.929 . S
C2666 C2665 1.363 . S
C2666 C2672 1.428 . S
H2667 C2663 0.930 . S
H2668 C2665 0.929 . S
S2669 N2670 1.613 . S
S2669 N2671 1.610 . S
N2670 S2669 1.613 . S
N2670 C2673 1.350 . S
N2671 S2669 1.610 . S
N2671 C2672 1.351 . S
C2672 C2666 1.428 . S
C2672 N2671 1.351 . S
C2672 C2673 1.434 . S
C2673 C2664 1.429 . S
C2673 N2670 1.350 . S
C2673 C2672 1.434 . S
C2674 C2675 1.369 . S
C2674 C2676 1.419 . S
C2674 H2678 0.930 . S
C2675 C2674 1.369 . S
C2675 C2684 1.429 . S
C2676 C2674 1.419 . S
C2676 C2677 1.363 . S
C2676 H2679 0.929 . S
C2677 C2676 1.363 . S
C2677 C2683 1.428 . S
H2678 C2674 0.930 . S
H2679 C2676 0.929 . S
S2680 N2681 1.613 . S
S2680 N2682 1.610 . S
N2681 S2680 1.613 . S
N2681 C2684 1.350 . S
N2682 S2680 1.610 . S
N2682 C2683 1.351 . S
C2683 C2677 1.428 . S
C2683 N2682 1.351 . S
C2683 C2684 1.434 . S
C2684 C2675 1.429 . S
C2684 N2681 1.350 . S
C2684 C2683 1.434 . S
C2685 C2686 1.369 . S
C2685 C2687 1.419 . S
C2685 H2689 0.930 . S
C2686 C2685 1.369 . S
C2686 C2695 1.429 . S
C2687 C2685 1.419 . S
C2687 C2688 1.363 . S
C2687 H2690 0.929 . S
C2688 C2687 1.363 . S
C2688 C2694 1.428 . S
H2689 C2685 0.930 . S
H2690 C2687 0.929 . S
S2691 N2692 1.613 . S
S2691 N2693 1.610 . S
N2692 S2691 1.613 . S
N2692 C2695 1.350 . S
N2693 S2691 1.610 . S
N2693 C2694 1.351 . S
C2694 C2688 1.428 . S
C2694 N2693 1.351 . S
C2694 C2695 1.434 . S
C2695 C2686 1.429 . S
C2695 N2692 1.350 . S
C2695 C2694 1.434 . S
C2696 C2697 1.369 . S
C2696 C2698 1.419 . S
C2696 H2700 0.930 . S
C2697 C2696 1.369 . S
C2697 C2706 1.429 . S
C2698 C2696 1.419 . S
C2698 C2699 1.363 . S
C2698 H2701 0.929 . S
C2699 C2698 1.363 . S
C2699 C2705 1.428 . S
H2700 C2696 0.930 . S
H2701 C2698 0.929 . S
S2702 N2703 1.613 . S
S2702 N2704 1.610 . S
N2703 S2702 1.613 . S
N2703 C2706 1.350 . S
N2704 S2702 1.610 . S
N2704 C2705 1.351 . S
C2705 C2699 1.428 . S
C2705 N2704 1.351 . S
C2705 C2706 1.434 . S
C2706 C2697 1.429 . S
C2706 N2703 1.350 . S
C2706 C2705 1.434 . S
C2707 C2708 1.369 . S
C2707 C2709 1.419 . S
C2707 H2711 0.930 . S
C2708 C2707 1.369 . S
C2708 C2717 1.429 . S
C2709 C2707 1.419 . S
C2709 C2710 1.363 . S
C2709 H2712 0.929 . S
C2710 C2709 1.363 . S
C2710 C2716 1.428 . S
H2711 C2707 0.930 . S
H2712 C2709 0.929 . S
S2713 N2714 1.613 . S
S2713 N2715 1.610 . S
N2714 S2713 1.613 . S
N2714 C2717 1.350 . S
N2715 S2713 1.610 . S
N2715 C2716 1.351 . S
C2716 C2710 1.428 . S
C2716 N2715 1.351 . S
C2716 C2717 1.434 . S
C2717 C2708 1.429 . S
C2717 N2714 1.350 . S
C2717 C2716 1.434 . S
C2718 C2719 1.369 . S
C2718 C2720 1.419 . S
C2718 H2722 0.930 . S
C2719 C2718 1.369 . S
C2719 C2728 1.429 . S
C2720 C2718 1.419 . S
C2720 C2721 1.363 . S
C2720 H2723 0.929 . S
C2721 C2720 1.363 . S
C2721 C2727 1.428 . S
H2722 C2718 0.930 . S
H2723 C2720 0.929 . S
S2724 N2725 1.613 . S
S2724 N2726 1.610 . S
N2725 S2724 1.613 . S
N2725 C2728 1.350 . S
N2726 S2724 1.610 . S
N2726 C2727 1.351 . S
C2727 C2721 1.428 . S
C2727 N2726 1.351 . S
C2727 C2728 1.434 . S
C2728 C2719 1.429 . S
C2728 N2725 1.350 . S
C2728 C2727 1.434 . S
C2729 C2730 1.369 . S
C2729 C2731 1.419 . S
C2729 H2733 0.930 . S
C2730 C2729 1.369 . S
C2730 C2739 1.429 . S
C2731 C2729 1.419 . S
C2731 C2732 1.363 . S
C2731 H2734 0.929 . S
C2732 C2731 1.363 . S
C2732 C2738 1.428 . S
H2733 C2729 0.930 . S
H2734 C2731 0.929 . S
S2735 N2736 1.613 . S
S2735 N2737 1.610 . S
N2736 S2735 1.613 . S
N2736 C2739 1.350 . S
N2737 S2735 1.610 . S
N2737 C2738 1.351 . S
C2738 C2732 1.428 . S
C2738 N2737 1.351 . S
C2738 C2739 1.434 . S
C2739 C2730 1.429 . S
C2739 N2736 1.350 . S
C2739 C2738 1.434 . S
C2740 C2741 1.369 . S
C2740 C2742 1.419 . S
C2740 H2744 0.930 . S
C2741 C2740 1.369 . S
C2741 C2750 1.429 . S
C2742 C2740 1.419 . S
C2742 C2743 1.363 . S
C2742 H2745 0.929 . S
C2743 C2742 1.363 . S
C2743 C2749 1.428 . S
H2744 C2740 0.930 . S
H2745 C2742 0.929 . S
S2746 N2747 1.613 . S
S2746 N2748 1.610 . S
N2747 S2746 1.613 . S
N2747 C2750 1.350 . S
N2748 S2746 1.610 . S
N2748 C2749 1.351 . S
C2749 C2743 1.428 . S
C2749 N2748 1.351 . S
C2749 C2750 1.434 . S
C2750 C2741 1.429 . S
C2750 N2747 1.350 . S
C2750 C2749 1.434 . S
C2751 C2752 1.369 . S
C2751 C2753 1.419 . S
C2751 H2755 0.930 . S
C2752 C2751 1.369 . S
C2752 C2761 1.429 . S
C2753 C2751 1.419 . S
C2753 C2754 1.363 . S
C2753 H2756 0.929 . S
C2754 C2753 1.363 . S
C2754 C2760 1.428 . S
H2755 C2751 0.930 . S
H2756 C2753 0.929 . S
S2757 N2758 1.613 . S
S2757 N2759 1.610 . S
N2758 S2757 1.613 . S
N2758 C2761 1.350 . S
N2759 S2757 1.610 . S
N2759 C2760 1.351 . S
C2760 C2754 1.428 . S
C2760 N2759 1.351 . S
C2760 C2761 1.434 . S
C2761 C2752 1.429 . S
C2761 N2758 1.350 . S
C2761 C2760 1.434 . S
C2762 C2763 1.369 . S
C2762 C2764 1.419 . S
C2762 H2766 0.930 . S
C2763 C2762 1.369 . S
C2763 C2772 1.429 . S
C2764 C2762 1.419 . S
C2764 C2765 1.363 . S
C2764 H2767 0.929 . S
C2765 C2764 1.363 . S
C2765 C2771 1.428 . S
H2766 C2762 0.930 . S
H2767 C2764 0.929 . S
S2768 N2769 1.613 . S
S2768 N2770 1.610 . S
N2769 S2768 1.613 . S
N2769 C2772 1.350 . S
N2770 S2768 1.610 . S
N2770 C2771 1.351 . S
C2771 C2765 1.428 . S
C2771 N2770 1.351 . S
C2771 C2772 1.434 . S
C2772 C2763 1.429 . S
C2772 N2769 1.350 . S
C2772 C2771 1.434 . S
C2773 C2774 1.369 . S
C2773 C2775 1.419 . S
C2773 H2777 0.930 . S
C2774 C2773 1.369 . S
C2774 C2783 1.429 . S
C2775 C2773 1.419 . S
C2775 C2776 1.363 . S
C2775 H2778 0.929 . S
C2776 C2775 1.363 . S
C2776 C2782 1.428 . S
H2777 C2773 0.930 . S
H2778 C2775 0.929 . S
S2779 N2780 1.613 . S
S2779 N2781 1.610 . S
N2780 S2779 1.613 . S
N2780 C2783 1.350 . S
N2781 S2779 1.610 . S
N2781 C2782 1.351 . S
C2782 C2776 1.428 . S
C2782 N2781 1.351 . S
C2782 C2783 1.434 . S
C2783 C2774 1.429 . S
C2783 N2780 1.350 . S
C2783 C2782 1.434 . S
C1729 C327 1.772 . S
C1731 C3 1.781 . S
C1740 C363 1.783 . S
C1742 C39 1.773 . S
C1751 C399 1.775 . S
C1753 C75 1.778 . S
C1762 C111 1.778 . S
C1764 C291 1.776 . S
C1773 C543 1.779 . S
C1775 C147 1.775 . S
C1784 C183 1.782 . S
C1786 C435 1.773 . S
C1795 C471 1.775 . S
C1797 C219 1.779 . S
C1806 C507 1.772 . S
C1808 C255 1.781 . S
C1817 C579 1.779 . S
C1819 C651 1.776 . S
C1828 C615 1.772 . S
C1830 C795 1.781 . S
C1839 C687 1.781 . S
C1841 C831 1.774 . S
C1850 C723 1.782 . S
C1852 C759 1.774 . S
C1861 C867 1.775 . S
C1863 C1191 1.779 . S
C1872 C1227 1.776 . S
C1874 C903 1.778 . S
C1883 C939 1.773 . S
C1885 C1263 1.781 . S
C1894 C975 1.777 . S
C1896 C1155 1.777 . S
C1905 C1407 1.781 . S
C1907 C1011 1.774 . S
C1916 C1299 1.772 . S
C1918 C1047 1.781 . S
C1927 C1335 1.772 . S
C1929 C1083 1.781 . S
C1938 C1371 1.777 . S
C1940 C1119 1.777 . S
C1949 C1443 1.781 . S
C1951 C1515 1.774 . S
C1960 C1479 1.772 . S
C1962 C1659 1.781 . S
C1971 C1551 1.781 . S
C1973 C1695 1.774 . S
C1982 C1623 1.779 . S
C1984 C1587 1.775 . S
C1993 C292 1.257 . S
C1995 C2 1.463 . S
C2004 C328 1.251 . S
C2006 C38 1.463 . S
C2015 C74 1.464 . S
C2017 C364 1.256 . S
C2026 C110 1.463 . S
C2028 C400 1.252 . S
C2037 C146 1.463 . S
C2039 C436 1.251 . S
C2048 C182 1.464 . S
C2050 C472 1.247 . S
C2059 C218 1.462 . S
C2061 C508 1.259 . S
C2070 C544 1.263 . S
C2072 C254 1.463 . S
C2081 C290 1.464 . S
C2083 C580 1.255 . S
C2092 C832 1.254 . S
C2094 C326 1.464 . S
C2103 C362 1.464 . S
C2105 C760 1.254 . S
C2114 C398 1.464 . S
C2116 C796 1.248 . S
C2125 C434 1.465 . S
C2127 C616 1.250 . S
C2136 C470 1.463 . S
C2138 C652 1.260 . S
C2147 C506 1.464 . S
C2149 C688 1.255 . S
C2158 C724 1.249 . S
C2160 C542 1.464 . S
C2169 C4 1.261 . S
C2171 C578 1.463 . S
C2180 C614 1.462 . S
C2182 C148 1.260 . S
C2191 C650 1.463 . S
C2193 C184 1.260 . S
C2202 C686 1.463 . S
C2204 C220 1.249 . S
C2213 C256 1.245 . S
C2215 C722 1.464 . S
C2224 C758 1.464 . S
C2226 C76 1.254 . S
C2235 C794 1.464 . S
C2237 C112 1.258 . S
C2246 C40 1.244 . S
C2248 C830 1.464 . S
C2257 C1156 1.255 . S
C2259 C866 1.464 . S
C2268 C902 1.465 . S
C2270 C1192 1.247 . S
C2279 C938 1.464 . S
C2281 C1228 1.247 . S
C2290 C1264 1.260 . S
C2292 C974 1.464 . S
C2301 C1300 1.259 . S
C2303 C1010 1.464 . S
C2312 C1046 1.463 . S
C2314 C1336 1.259 . S
C2323 C1372 1.248 . S
C2325 C1082 1.463 . S
C2334 C1408 1.262 . S
C2336 C1118 1.463 . S
C2345 C1154 1.463 . S
C2347 C1444 1.260 . S
C2356 C1190 1.464 . S
C2358 C1696 1.247 . S
C2367 C1226 1.464 . S
C2369 C1624 1.247 . S
C2378 C1660 1.253 . S
C2380 C1262 1.463 . S
C2389 C1298 1.465 . S
C2391 C1480 1.251 . S
C2400 C1334 1.462 . S
C2402 C1516 1.259 . S
C2411 C1552 1.260 . S
C2413 C1370 1.462 . S
C2422 C1588 1.262 . S
C2424 C1406 1.463 . S
C2433 C1442 1.462 . S
C2435 C868 1.259 . S
C2444 C1478 1.465 . S
C2446 C1012 1.251 . S
C2455 C1048 1.246 . S
C2457 C1514 1.464 . S
C2466 C1550 1.462 . S
C2468 C1084 1.259 . S
C2477 C1586 1.465 . S
C2479 C1120 1.247 . S
C2488 C940 1.246 . S
C2490 C1622 1.464 . S
C2499 C1658 1.463 . S
C2501 C976 1.261 . S
C2510 C904 1.258 . S
C2512 C1694 1.464 . S
C2521 C1130 1.453 . S
C2523 C14 1.452 . S
C2532 C50 1.453 . S
C2534 C1022 1.451 . S
C2543 C1058 1.441 . S
C2545 C86 1.442 . S
C2554 C1094 1.439 . S
C2556 C122 1.441 . S
C2565 C158 1.453 . S
C2567 C914 1.452 . S
C2576 C950 1.443 . S
C2578 C194 1.445 . S
C2587 C986 1.453 . S
C2589 C230 1.452 . S
C2598 C266 1.449 . S
C2600 C878 1.449 . S
C2609 C1598 1.453 . S
C2611 C302 1.451 . S
C2620 C338 1.449 . S
C2622 C1490 1.449 . S
C2631 C374 1.448 . S
C2633 C1526 1.446 . S
C2642 C1562 1.449 . S
C2644 C410 1.447 . S
C2653 C1706 1.453 . S
C2655 C446 1.451 . S
C2664 C1634 1.445 . S
C2666 C482 1.444 . S
C2675 C518 1.453 . S
C2677 C1670 1.450 . S
C2686 C1454 1.444 . S
C2688 C554 1.446 . S
C2697 C590 1.446 . S
C2699 C1418 1.447 . S
C2708 C1202 1.453 . S
C2710 C626 1.452 . S
C2719 C662 1.444 . S
C2721 C1238 1.446 . S
C2730 C1274 1.446 . S
C2732 C698 1.447 . S
C2741 C1166 1.453 . S
C2743 C734 1.451 . S
C2752 C770 1.446 . S
C2754 C1346 1.448 . S
C2763 C1382 1.439 . S
C2765 C806 1.441 . S
C2774 C1310 1.449 . S
C2776 C842 1.448 . S
