# Generated by pormake.
# Topology uni, (4)-cn, num edge types: 1
# Building blocks:
#     Node 0, Type 0, BuildingBlock: GALJAG_clean_sbu_0, # of connection points: 4
#     Node 1, Type 0, BuildingBlock: GALJAG_clean_sbu_0, # of connection points: 4
#     Node 2, Type 0, BuildingBlock: GALJAG_clean_sbu_0, # of connection points: 4
#     Node 3, Type 0, BuildingBlock: GALJAG_clean_sbu_0, # of connection points: 4
#     Node 4, Type 0, BuildingBlock: GALJAG_clean_sbu_0, # of connection points: 4
#     Node 5, Type 0, BuildingBlock: GALJAG_clean_sbu_0, # of connection points: 4
#     Edge 6, Type (0, 0), BuildingBlock: MIFKUJ_clean_linker_0, # of connection points: 2
#     Edge 7, Type (0, 0), BuildingBlock: MIFKUJ_clean_linker_0, # of connection points: 2
#     Edge 8, Type (0, 0), BuildingBlock: MIFKUJ_clean_linker_0, # of connection points: 2
#     Edge 9, Type (0, 0), BuildingBlock: MIFKUJ_clean_linker_0, # of connection points: 2
#     Edge 10, Type (0, 0), BuildingBlock: MIFKUJ_clean_linker_0, # of connection points: 2
#     Edge 11, Type (0, 0), BuildingBlock: MIFKUJ_clean_linker_0, # of connection points: 2
#     Edge 12, Type (0, 0), BuildingBlock: MIFKUJ_clean_linker_0, # of connection points: 2
#     Edge 13, Type (0, 0), BuildingBlock: MIFKUJ_clean_linker_0, # of connection points: 2
#     Edge 14, Type (0, 0), BuildingBlock: MIFKUJ_clean_linker_0, # of connection points: 2
#     Edge 15, Type (0, 0), BuildingBlock: MIFKUJ_clean_linker_0, # of connection points: 2
#     Edge 16, Type (0, 0), BuildingBlock: MIFKUJ_clean_linker_0, # of connection points: 2
#     Edge 17, Type (0, 0), BuildingBlock: MIFKUJ_clean_linker_0, # of connection points: 2
# Relax obj value: 0.070
# Max RMSD: 0.134
# Mean RMSD: 0.134
data_MOF--net-uni--node1-GALJAG_clean_sbu_0--edge1-MIFKUJ_clean_linker_0
_symmetry_space_group_name_H-M    P1
_symmetry_Int_Tables_number       1
_symmetry_cell_setting            triclinic
loop_
_symmetry_equiv_pos_as_xyz
'x, y, z'
_cell_length_a     48.690147
_cell_length_b     48.724699
_cell_length_c     32.995322
_cell_angle_alpha  89.967534
_cell_angle_beta   90.042201
_cell_angle_gamma 119.99433
loop_
_atom_site_label
_atom_site_type_symbol
_atom_site_fract_x
_atom_site_fract_y
_atom_site_fract_z
_atom_type_partial_charge
In0 In 0.62959 0.01292 0.04763 0.0
O1 O 0.61593 0.99774 0.98159 0.0
O2 O 0.58869 0.0133 0.0141 0.0
C3 C 0.637 0.96337 0.06804 0.0
C4 C 0.68516 0.06458 0.02628 0.0
C5 C 0.60261 0.01828 0.11673 0.0
O6 O 0.61718 0.96139 0.04181 0.0
O7 O 0.65356 0.99056 0.08346 0.0
O8 O 0.62705 0.04133 0.10161 0.0
O9 O 0.59178 0.99285 0.09695 0.0
C10 C 0.59326 0.00328 0.98103 0.0
O11 O 0.65986 0.06529 0.03124 0.0
O12 O 0.68262 0.03788 0.03253 0.0
In13 In 0.63044 0.6265 0.22442 0.0
O14 O 0.63155 0.62059 0.15592 0.0
O15 O 0.59535 0.58226 0.18918 0.0
C16 C 0.68825 0.63489 0.24367 0.0
C17 C 0.63167 0.68155 0.20813 0.0
C18 C 0.59342 0.59561 0.28891 0.0
O19 O 0.67439 0.62242 0.2108 0.0
O20 O 0.67321 0.64353 0.26646 0.0
O21 O 0.59743 0.62191 0.27672 0.0
O22 O 0.60765 0.58477 0.26826 0.0
C23 C 0.60753 0.59318 0.15499 0.0
O24 O 0.65513 0.68071 0.22296 0.0
O25 O 0.60749 0.65475 0.20246 0.0
In26 In 0.02114 0.62525 0.38321 0.0
O27 O 0.05055 0.62175 0.33153 0.0
O28 O 0.00623 0.581 0.34497 0.0
C29 C 0.06749 0.68475 0.40162 0.0
C30 C 0.97176 0.63347 0.36209 0.0
C31 C 0.01754 0.58918 0.44751 0.0
O32 O 0.06528 0.67252 0.36721 0.0
O33 O 0.04601 0.66728 0.42623 0.0
O34 O 0.99325 0.58553 0.42898 0.0
O35 O 0.04353 0.61036 0.43296 0.0
C36 C 0.03053 0.59344 0.32267 0.0
O37 O 0.97853 0.6315 0.39842 0.0
O38 O 0.98997 0.63166 0.33659 0.0
In39 In 0.40781 0.01471 0.54801 0.0
O40 O 0.36184 0.96836 0.56175 0.0
O41 O 0.36672 0.9891 0.50374 0.0
C42 C 0.4314 0.00417 0.61709 0.0
C43 C 0.44479 0.02038 0.48382 0.0
C44 C 0.40604 0.06854 0.56143 0.0
O45 O 0.44022 1.00113 0.58232 0.0
O46 O 0.41038 0.01204 0.61709 0.0
O47 O 0.43147 0.06758 0.56223 0.0
O48 O 0.38161 0.0425 0.5531 0.0
C49 C 0.34978 0.96652 0.52729 0.0
O50 O 0.44215 0.0433 0.49687 0.0
O51 O 0.42923 0.99496 0.50348 0.0
In52 In 0.41019 0.40224 0.72462 0.0
O53 O 0.42792 0.36705 0.72114 0.0
O54 O 0.38179 0.35212 0.69826 0.0
C55 C 0.44713 0.43229 0.78967 0.0
C56 C 0.43875 0.43709 0.65779 0.0
C57 C 0.35239 0.39385 0.74387 0.0
O58 O 0.42867 0.40277 0.78842 0.0
O59 O 0.44732 0.44679 0.75792 0.0
O60 O 0.36489 0.4036 0.70952 0.0
O61 O 0.36878 0.38795 0.76811 0.0
C62 C 0.40339 0.34543 0.70423 0.0
O63 O 0.42098 0.44262 0.68006 0.0
O64 O 0.44232 0.41446 0.66958 0.0
In65 In 0.01936 0.40283 0.88331 0.0
O66 O 0.06057 0.39449 0.89932 0.0
O67 O 0.05136 0.39771 0.83721 0.0
C68 C 0.02632 0.43583 0.95264 0.0
C69 C 0.01141 0.43359 0.82001 0.0
C70 C 0.96772 0.34538 0.89615 0.0
O71 O 0.04814 0.44477 0.92669 0.0
O72 O 1.00134 0.4107 0.94347 0.0
O73 O 0.96606 0.36956 0.8864 0.0
O74 O 0.99559 0.34993 0.8987 0.0
C75 C 0.06848 0.39424 0.86297 0.0
O76 O 0.99573 0.4039 0.824 0.0
O77 O 0.03074 0.44795 0.84838 0.0
H78 H 0.56123 0.9698 0.16463 0.0
H79 H 0.53636 0.973 0.22722 0.0
H80 H 0.58468 0.07492 0.21649 0.0
H81 H 0.6109 0.07182 0.15464 0.0
H82 H 0.5853 0.0605 0.29155 0.0
H83 H 0.50342 0.02547 0.19197 0.0
H84 H 0.4688 0.99205 0.13663 0.0
H85 H 0.43088 0.91046 0.21429 0.0
H86 H 0.46558 0.94331 0.26995 0.0
H87 H 0.48193 0.07276 0.43757 0.0
H88 H 0.51061 0.07523 0.37534 0.0
H89 H 0.47812 0.97534 0.38561 0.0
H90 H 0.44944 0.97269 0.44758 0.0
H91 H 0.46911 0.99218 0.30941 0.0
H92 H 0.55355 0.02922 0.4085 0.0
H93 H 0.58761 0.06441 0.46303 0.0
H94 H 0.61943 0.14496 0.38447 0.0
H95 H 0.58521 0.11029 0.32963 0.0
C96 C 0.56654 0.99289 0.17561 0.0
C97 C 0.5878 0.02055 0.15465 0.0
C98 C 0.55217 0.9947 0.2113 0.0
C99 C 0.558 0.02416 0.22618 0.0
C100 C 0.57965 0.0519 0.20556 0.0
C101 C 0.59455 0.05012 0.17019 0.0
C102 C 0.54161 0.02586 0.26335 0.0
C103 C 0.55982 0.04593 0.29513 0.0
C104 C 0.50836 0.00664 0.26839 0.0
C105 C 0.48729 0.98683 0.23504 0.0
C106 C 0.48784 1.00037 0.19717 0.0
C107 C 0.46819 0.98153 0.16575 0.0
C108 C 0.4477 0.94914 0.17191 0.0
C109 C 0.44677 0.93554 0.20955 0.0
C110 C 0.4664 0.95427 0.24106 0.0
C111 C 0.4811 0.0514 0.42667 0.0
C112 C 0.46346 0.02253 0.44742 0.0
C113 C 0.49755 0.05286 0.39121 0.0
C114 C 0.49658 0.02548 0.37597 0.0
C115 C 0.47914 0.99673 0.39684 0.0
C116 C 0.46286 0.99528 0.43231 0.0
C117 C 0.51287 0.02637 0.33761 0.0
C118 C 0.49456 0.00685 0.3056 0.0
C119 C 0.54589 0.0464 0.33221 0.0
C120 C 0.56657 0.0672 0.36511 0.0
C121 C 0.56761 0.05447 0.40297 0.0
C122 C 0.58698 0.07431 0.43391 0.0
C123 C 0.6056 0.10691 0.42726 0.0
C124 C 0.60496 0.11971 0.3896 0.0
C125 C 0.5856 0.09998 0.35857 0.0
H126 H 0.62058 0.12223 0.45125 0.0
H127 H 0.43251 0.9346 0.14755 0.0
H128 H 0.56021 0.61393 0.33802 0.0
H129 H 0.53104 0.58781 0.3999 0.0
H130 H 0.55573 0.51485 0.38436 0.0
H131 H 0.58433 0.54047 0.32218 0.0
H132 H 0.49564 0.48936 0.40675 0.0
H133 H 0.59523 0.57606 0.45199 0.0
H134 H 0.6378 0.63187 0.45685 0.0
H135 H 0.57199 0.6572 0.5065 0.0
H136 H 0.5289 0.60156 0.50142 0.0
H137 H 0.47394 0.42574 0.60352 0.0
H138 H 0.49734 0.45382 0.54034 0.0
H139 H 0.46065 0.51662 0.56344 0.0
H140 H 0.43713 0.48856 0.62713 0.0
H141 H 0.52322 0.5483 0.53686 0.0
H142 H 0.42424 0.45931 0.49535 0.0
H143 H 0.38338 0.40275 0.49232 0.0
H144 H 0.45009 0.38107 0.43699 0.0
H145 H 0.49148 0.43748 0.44015 0.0
C146 C 0.55925 0.59223 0.34771 0.0
C147 C 0.57464 0.5793 0.32535 0.0
C148 C 0.54271 0.5774 0.38317 0.0
C149 C 0.54152 0.54957 0.39709 0.0
C150 C 0.55631 0.5363 0.37425 0.0
C151 C 0.57273 0.55102 0.33877 0.0
C152 C 0.52531 0.53439 0.43568 0.0
C153 C 0.50188 0.50221 0.43522 0.0
C154 C 0.53292 0.55128 0.47277 0.0
C155 C 0.55878 0.58473 0.47588 0.0
C156 C 0.58978 0.59358 0.46363 0.0
C157 C 0.61401 0.62517 0.46648 0.0
C158 C 0.60758 0.64808 0.48185 0.0
C159 C 0.57692 0.63943 0.49451 0.0
C160 C 0.55259 0.60788 0.49168 0.0
C161 C 0.47088 0.44557 0.59527 0.0
C162 C 0.4536 0.4549 0.62021 0.0
C163 C 0.48417 0.46151 0.55905 0.0
C164 C 0.48039 0.48705 0.54696 0.0
C165 C 0.46372 0.49688 0.57218 0.0
C166 C 0.45027 0.48082 0.60845 0.0
C167 C 0.4939 0.50328 0.50788 0.0
C168 C 0.51679 0.5356 0.50827 0.0
C169 C 0.486 0.48647 0.47077 0.0
C170 C 0.46102 0.4526 0.46826 0.0
C171 C 0.43025 0.44246 0.48275 0.0
C172 C 0.40699 0.41043 0.48097 0.0
C173 C 0.41415 0.38832 0.46455 0.0
C174 C 0.44457 0.39822 0.44972 0.0
C175 C 0.46793 0.43023 0.45144 0.0
H176 H 0.39612 0.36353 0.46324 0.0
H177 H 0.62638 0.67253 0.48405 0.0
H178 H 0.05082 0.49488 0.79701 0.0
H179 H 0.049 0.52045 0.73416 0.0
H180 H 0.96405 0.43492 0.69835 0.0
H181 H 0.96652 0.40888 0.76055 0.0
H182 H 1.00155 0.45587 0.63719 0.0
H183 H 0.96366 0.50367 0.73054 0.0
H184 H 0.96318 0.53187 0.79231 0.0
H185 H 0.05091 0.61329 0.75656 0.0
H186 H 0.05215 0.58542 0.69481 0.0
H187 H 0.9668 0.53482 0.47624 0.0
H188 H 0.96357 0.50723 0.53991 0.0
H189 H 0.06049 0.57696 0.56717 0.0
H190 H 0.06415 0.60421 0.50328 0.0
H191 H 0.01358 0.56311 0.63197 0.0
H192 H 0.05022 0.5116 0.53858 0.0
H193 H 0.04717 0.4823 0.47626 0.0
H194 H 0.956 0.40612 0.51246 0.0
H195 H 0.95831 0.43522 0.57477 0.0
C196 C 0.03158 0.48164 0.77592 0.0
C197 C 0.00879 0.44991 0.7837 0.0
C198 C 0.03046 0.49632 0.74004 0.0
C199 C 0.00614 0.47978 0.71159 0.0
C200 C 0.98305 0.4482 0.71973 0.0
C201 C 0.98441 0.43338 0.75536 0.0
C202 C 0.00564 0.49495 0.67264 0.0
C203 C 0.00363 0.4791 0.63621 0.0
C204 C 0.00875 0.52545 0.67108 0.0
C205 C 0.00814 0.54233 0.70821 0.0
C206 C 0.98298 0.5275 0.736 0.0
C207 C 0.98255 0.54344 0.77099 0.0
C208 C 0.00704 0.57432 0.77841 0.0
C209 C 0.03198 0.58935 0.7508 0.0
C210 C 0.03254 0.5735 0.71577 0.0
C211 C 0.98746 0.5441 0.4957 0.0
C212 C 0.01576 0.57157 0.4848 0.0
C213 C 0.98557 0.52836 0.53198 0.0
C214 C 0.01178 0.54015 0.55815 0.0
C215 C 0.04002 0.56758 0.54735 0.0
C216 C 0.0421 0.58298 0.51078 0.0
C217 C 0.00976 0.52409 0.59704 0.0
C218 C 0.01128 0.5398 0.63328 0.0
C219 C 0.00564 0.49328 0.59846 0.0
C220 C 0.00427 0.47575 0.56108 0.0
C221 C 0.02938 0.48875 0.53305 0.0
C222 C 0.02782 0.47215 0.49778 0.0
C223 C 1.00136 0.44242 0.49034 0.0
C224 C 0.97645 0.42918 0.51823 0.0
C225 C 0.97788 0.44571 0.55354 0.0
H226 H 1.00021 0.42959 0.46302 0.0
H227 H 0.00666 0.58663 0.80551 0.0
H228 H 0.59605 0.97833 0.90804 0.0
H229 H 0.5663 0.97432 0.84637 0.0
H230 H 0.51867 0.01642 0.90896 0.0
H231 H 0.54775 0.01974 0.97094 0.0
H232 H 0.47792 0.96889 0.86249 0.0
H233 H 0.58204 0.05994 0.84452 0.0
H234 H 0.64048 0.08819 0.84175 0.0
H235 H 0.63689 0.02713 0.74557 0.0
H236 H 0.57841 0.99825 0.74814 0.0
H237 H 0.42329 0.01896 0.69422 0.0
H238 H 0.44888 0.01508 0.75597 0.0
H239 H 0.49645 0.97589 0.68697 0.0
H240 H 0.47167 0.98072 0.62486 0.0
H241 H 0.53671 0.01933 0.73606 0.0
H242 H 0.43218 0.92976 0.75182 0.0
H243 H 0.37376 0.90184 0.75465 0.0
H244 H 0.37785 0.96004 0.85475 0.0
H245 H 0.43631 0.9886 0.85219 0.0
C246 C 0.57911 0.98657 0.90869 0.0
C247 C 0.57434 0.99951 0.94423 0.0
C248 C 0.56222 0.98439 0.87339 0.0
C249 C 0.5406 0.99553 0.87283 0.0
C250 C 0.53525 0.00772 0.90862 0.0
C251 C 0.55195 0.00969 0.944 0.0
C252 C 0.52401 0.99514 0.83482 0.0
C253 C 0.49077 0.98018 0.83493 0.0
C254 C 0.54072 0.00923 0.79858 0.0
C255 C 0.57587 0.02674 0.7968 0.0
C256 C 0.59372 0.05241 0.82297 0.0
C257 C 0.62685 0.06855 0.82141 0.0
C258 C 0.64239 0.05941 0.79357 0.0
C259 C 0.62483 0.03416 0.76716 0.0
C260 C 0.59169 0.01791 0.76863 0.0
C261 C 0.43902 0.00929 0.69227 0.0
C262 C 0.44545 1.00009 0.65474 0.0
C263 C 0.45353 0.00693 0.72764 0.0
C264 C 0.4743 0.99477 0.7263 0.0
C265 C 0.4805 0.98531 0.68882 0.0
C266 C 0.46627 0.98799 0.65336 0.0
C267 C 0.49054 0.99314 0.76366 0.0
C268 C 0.52376 0.0078 0.76347 0.0
C269 C 0.47379 0.97878 0.79981 0.0
C270 C 0.43863 0.96149 0.80159 0.0
C271 C 0.42062 0.93674 0.77427 0.0
C272 C 0.3875 0.92078 0.77585 0.0
C273 C 0.3721 0.92921 0.8048 0.0
C274 C 0.3898 0.95356 0.83232 0.0
C275 C 0.42293 0.96961 0.83085 0.0
H276 H 0.34646 0.91683 0.80597 0.0
H277 H 0.66804 0.07193 0.79242 0.0
H278 H 0.56008 0.53182 0.14563 0.0
H279 H 0.53563 0.50436 0.08214 0.0
H280 H 0.59902 0.58832 0.01461 0.0
H281 H 0.62373 0.61585 0.07792 0.0
H282 H 0.53519 0.56206 0.99232 0.0
H283 H 0.61149 0.52801 0.01323 0.0
H284 H 0.63802 0.50459 0.05202 0.0
H285 H 0.54993 0.41685 0.06156 0.0
H286 H 0.52276 0.43991 0.02329 0.0
H287 H 0.49382 0.49421 0.79667 0.0
H288 H 0.52373 0.5214 0.8576 0.0
H289 H 0.47221 0.43463 0.92584 0.0
H290 H 0.44306 0.40713 0.86471 0.0
H291 H 0.53153 0.4631 0.94747 0.0
H292 H 0.45409 0.4954 0.93099 0.0
H293 H 0.42492 0.51733 0.89501 0.0
H294 H 0.51119 0.60624 0.88075 0.0
H295 H 0.54096 0.58469 0.9162 0.0
C296 C 0.56897 0.54433 0.11723 0.0
C297 C 0.59383 0.57596 0.11671 0.0
C298 C 0.55504 0.52861 0.08101 0.0
C299 C 0.56562 0.5443 0.0437 0.0
C300 C 0.59054 0.57582 0.0431 0.0
C301 C 0.60469 0.59145 0.07926 0.0
C302 C 0.55003 0.52813 0.00538 0.0
C303 C 0.53478 0.54069 0.98212 0.0
C304 C 0.54871 0.49974 0.99287 0.0
C305 C 0.56504 0.48579 0.01572 0.0
C306 C 0.59772 0.50381 0.02389 0.0
C307 C 0.61288 0.49058 0.04572 0.0
C308 C 0.59566 0.45927 0.05933 0.0
C309 C 0.56324 0.44111 0.05104 0.0
C310 C 0.54795 0.45423 0.02924 0.0
C311 C 0.489 0.48093 0.82464 0.0
C312 C 0.46602 0.4486 0.826 0.0
C313 C 0.50599 0.49651 0.8595 0.0
C314 C 0.49986 0.48021 0.89654 0.0
C315 C 0.47735 0.44774 0.89768 0.0
C316 C 0.46064 0.43207 0.86274 0.0
C317 C 0.51659 0.497 0.93422 0.0
C318 C 0.532 0.48454 0.95747 0.0
C319 C 0.51765 0.52525 0.94709 0.0
C320 C 0.4998 0.53832 0.92588 0.0
C321 C 0.46688 0.51955 0.91992 0.0
C322 C 0.45023 0.53192 0.89966 0.0
C323 C 0.46621 0.56313 0.8855 0.0
C324 C 0.49886 0.58205 0.89168 0.0
C325 C 0.51563 0.56978 0.91188 0.0
H326 H 0.45328 0.57267 0.86983 0.0
H327 H 0.60744 0.44907 0.07623 0.0
H328 H 0.07522 0.49365 0.97665 0.0
H329 H 0.07917 0.52195 0.0398 0.0
H330 H 0.98864 0.4446 0.07815 0.0
H331 H 0.98425 0.41676 0.01493 0.0
H332 H 0.99078 0.49846 0.09173 0.0
H333 H 0.06093 0.45729 0.11745 0.0
H334 H 0.10624 0.44931 0.10372 0.0
H335 H 0.17002 0.54972 0.11036 0.0
H336 H 0.12501 0.55833 0.12362 0.0
H337 H 0.9904 0.53278 0.29815 0.0
H338 H 0.99324 0.50722 0.23584 0.0
H339 H 0.08066 0.59138 0.20373 0.0
H340 H 0.0782 0.617 0.26645 0.0
H341 H 0.08242 0.53746 0.18557 0.0
H342 H 0.01222 0.57822 0.1621 0.0
H343 H 0.96687 0.58593 0.17676 0.0
H344 H 0.90302 0.48577 0.16599 0.0
H345 H 0.94806 0.4774 0.15187 0.0
C346 C 0.05623 0.48272 0.99864 0.0
C347 C 0.02943 0.45302 0.99085 0.0
C348 C 0.05857 0.49882 0.03479 0.0
C349 C 0.03433 0.48528 0.06398 0.0
C350 C 0.00762 0.45558 0.05613 0.0
C351 C 0.00517 0.43965 0.01998 0.0
C352 C 0.03616 0.5021 0.10238 0.0
C353 C 0.01068 0.50663 0.11243 0.0
C354 C 0.06251 0.51363 0.12894 0.0
C355 C 0.08957 0.50847 0.1211 0.0
C356 C 0.08459 0.47768 0.11567 0.0
C357 C 0.11022 0.47304 0.10803 0.0
C358 C 0.14098 0.499 0.10605 0.0
C359 C 0.14618 0.52964 0.11183 0.0
C360 C 0.12062 0.53442 0.11944 0.0
C361 C 0.01042 0.54574 0.27806 0.0
C362 C 0.03396 0.57698 0.28704 0.0
C363 C 0.01194 0.53115 0.24238 0.0
C364 C 0.03688 0.5476 0.21479 0.0
C365 C 0.06116 0.57831 0.22451 0.0
C366 C 0.05968 0.59292 0.26031 0.0
C367 C 0.03678 0.53317 0.17511 0.0
C368 C 0.06259 0.52929 0.16477 0.0
C369 C 0.01072 0.52216 0.14822 0.0
C370 C 0.98355 0.52716 0.15627 0.0
C371 C 0.98853 0.55781 0.16313 0.0
C372 C 0.96288 0.56231 0.17131 0.0
C373 C 0.93209 0.53635 0.17239 0.0
C374 C 0.92689 0.50585 0.16518 0.0
C375 C 0.95246 0.50122 0.15705 0.0
H376 H 0.91227 0.53988 0.17874 0.0
H377 H 0.16079 0.49535 0.10013 0.0
H378 H 0.67733 0.74217 0.2267 0.0
H379 H 0.68028 0.7915 0.20381 0.0
H380 H 0.59231 0.73748 0.13878 0.0
H381 H 0.58899 0.68818 0.16192 0.0
H382 H 0.64185 0.78638 0.09258 0.0
H383 H 0.59048 0.77096 0.22234 0.0
H384 H 0.58537 0.76247 0.29626 0.0
H385 H 0.67267 0.84974 0.31448 0.0
H386 H 0.67853 0.85853 0.24056 0.0
H387 H 0.60023 0.90197 0.04401 0.0
H388 H 0.60226 0.85566 0.06825 0.0
H389 H 0.68141 0.91564 0.14551 0.0
H390 H 0.67897 0.96208 0.12201 0.0
H391 H 0.64002 0.86521 0.18601 0.0
H392 H 0.69142 0.8827 0.05811 0.0
H393 H 0.69854 0.89193 0.98442 0.0
H394 H 0.61479 0.80222 0.96245 0.0
H395 H 0.6069 0.79264 0.03607 0.0
C396 C 0.65853 0.74085 0.20777 0.0
C397 C 0.63289 0.71136 0.19616 0.0
C398 C 0.66023 0.769 0.19476 0.0
C399 C 0.63649 0.76807 0.16964 0.0
C400 C 0.61087 0.73866 0.1581 0.0
C401 C 0.60894 0.71055 0.17151 0.0
C402 C 0.63854 0.79772 0.15476 0.0
C403 C 0.64111 0.8035 0.1129 0.0
C404 C 0.63864 0.82045 0.18147 0.0
C405 C 0.63513 0.81521 0.2259 0.0
C406 C 0.60874 0.78819 0.24208 0.0
C407 C 0.60568 0.78335 0.28399 0.0
C408 C 0.62873 0.8055 0.31005 0.0
C409 C 0.65486 0.83257 0.29425 0.0
C410 C 0.65806 0.83751 0.25236 0.0
C411 C 0.61822 0.90534 0.06594 0.0
C412 C 0.6395 0.93566 0.08103 0.0
C413 C 0.61945 0.87885 0.07967 0.0
C414 C 0.64225 0.88218 0.10837 0.0
C415 C 0.66365 0.91249 0.12333 0.0
C416 C 0.66231 0.93901 0.10977 0.0
C417 C 0.643 0.85385 0.1236 0.0
C418 C 0.64099 0.84828 0.16557 0.0
C419 C 0.64377 0.83145 0.09698 0.0
C420 C 0.64842 0.83709 0.05265 0.0
C421 C 0.67437 0.86505 0.03758 0.0
C422 C 0.67857 0.87032 0.99582 0.0
C423 C 0.65709 0.84771 0.96877 0.0
C424 C 0.63139 0.81974 0.98344 0.0
C425 C 0.62707 0.81435 0.02519 0.0
H426 H 0.66038 0.85184 0.93645 0.0
H427 H 0.62631 0.80172 0.34248 0.0
H428 H 0.9345 0.64677 0.41072 0.0
H429 H 0.88788 0.65024 0.39092 0.0
H430 H 0.89942 0.62927 0.2671 0.0
H431 H 0.94668 0.62697 0.28651 0.0
H432 H 0.8841 0.67314 0.26732 0.0
H433 H 0.84309 0.57234 0.33321 0.0
H434 H 0.83717 0.53568 0.38848 0.0
H435 H 0.80432 0.58284 0.46816 0.0
H436 H 0.81045 0.62007 0.41349 0.0
H437 H 0.7268 0.6216 0.19768 0.0
H438 H 0.77658 0.62461 0.21823 0.0
H439 H 0.7687 0.65775 0.33648 0.0
H440 H 0.71893 0.65481 0.31615 0.0
H441 H 0.78228 0.60922 0.34008 0.0
H442 H 0.82151 0.70867 0.27059 0.0
H443 H 0.82622 0.7432 0.21319 0.0
H444 H 0.86095 0.69551 0.1375 0.0
H445 H 0.85603 0.66038 0.19431 0.0
C446 C 0.92713 0.64303 0.37927 0.0
C447 C 0.94412 0.63647 0.35018 0.0
C448 C 0.90039 0.64485 0.368 0.0
C449 C 0.88975 0.63947 0.32761 0.0
C450 C 0.90709 0.63348 0.29844 0.0
C451 C 0.93406 0.6321 0.30959 0.0
C452 C 0.86042 0.63977 0.3157 0.0
C453 C 0.86177 0.65887 0.28297 0.0
C454 C 0.83133 0.6216 0.3365 0.0
C455 C 0.82755 0.59919 0.36939 0.0
C456 C 0.83483 0.57504 0.36261 0.0
C457 C 0.8314 0.55413 0.39381 0.0
C458 C 0.82046 0.55698 0.43184 0.0
C459 C 0.81284 0.58069 0.43871 0.0
C460 C 0.81627 0.60169 0.40762 0.0
C461 C 0.7358 0.62973 0.22796 0.0
C462 C 0.71901 0.63801 0.2553 0.0
C463 C 0.76426 0.63152 0.23962 0.0
C464 C 0.77642 0.64159 0.27881 0.0
C465 C 0.75974 0.64995 0.3061 0.0
C466 C 0.73138 0.64836 0.29438 0.0
C467 C 0.80603 0.64248 0.29173 0.0
C468 C 0.80469 0.62357 0.3246 0.0
C469 C 0.83499 0.6605 0.27076 0.0
C470 C 0.83812 0.68171 0.23662 0.0
C471 C 0.82992 0.70538 0.24162 0.0
C472 C 0.83267 0.72509 0.20921 0.0
C473 C 0.84381 0.7215 0.1717 0.0
C474 C 0.8523 0.69824 0.16656 0.0
C475 C 0.84956 0.67845 0.19887 0.0
H476 H 0.84592 0.73678 0.14664 0.0
H477 H 0.81782 0.54077 0.45596 0.0
H478 H 0.08311 0.71006 0.47739 0.0
H479 H 0.1294 0.75993 0.49756 0.0
H480 H 0.15822 0.78049 0.37236 0.0
H481 H 0.11244 0.72986 0.3522 0.0
H482 H 0.2069 0.79236 0.4157 0.0
H483 H 0.12631 0.82036 0.42745 0.0
H484 H 0.07547 0.815 0.44947 0.0
H485 H 0.10372 0.82112 0.57396 0.0
H486 H 0.15458 0.8261 0.55271 0.0
H487 H 0.32483 0.95277 0.45118 0.0
H488 H 0.27516 0.90658 0.42942 0.0
H489 H 0.25529 0.87315 0.55284 0.0
H490 H 0.30525 0.91922 0.57486 0.0
H491 H 0.20213 0.86962 0.50916 0.0
H492 H 0.28269 0.84009 0.49474 0.0
H493 H 0.33376 0.84723 0.47054 0.0
H494 H 0.30495 0.84621 0.34725 0.0
H495 H 0.25385 0.83953 0.37077 0.0
C496 C 0.09914 0.72535 0.4541 0.0
C497 C 0.09415 0.71611 0.4132 0.0
C498 C 0.12555 0.75398 0.46566 0.0
C499 C 0.14716 0.77429 0.43646 0.0
C500 C 0.1419 0.76527 0.39546 0.0
C501 C 0.11569 0.7364 0.38395 0.0
C502 C 0.17604 0.8041 0.44895 0.0
C503 C 0.2057 0.80947 0.43556 0.0
C504 C 0.17471 0.82625 0.47556 0.0
C505 C 0.14416 0.82332 0.48848 0.0
C506 C 0.12159 0.82032 0.45953 0.0
C507 C 0.09279 0.8174 0.47188 0.0
C508 C 0.08634 0.81764 0.51309 0.0
C509 C 0.10873 0.8209 0.54205 0.0
C510 C 0.13757 0.82381 0.52987 0.0
C511 C 0.3098 0.93569 0.47375 0.0
C512 C 0.31894 0.93951 0.51471 0.0
C513 C 0.28149 0.90932 0.46125 0.0
C514 C 0.26171 0.88643 0.48951 0.0
C515 C 0.27028 0.89061 0.53061 0.0
C516 C 0.29883 0.91683 0.5431 0.0
C517 C 0.23262 0.85759 0.47586 0.0
C518 C 0.20307 0.85247 0.4891 0.0
C519 C 0.23397 0.83586 0.44872 0.0
C520 C 0.26459 0.83965 0.43453 0.0
C521 C 0.28735 0.84167 0.46248 0.0
C522 C 0.31628 0.84558 0.44889 0.0
C523 C 0.32263 0.84727 0.40739 0.0
C524 C 0.30002 0.84495 0.37939 0.0
C525 C 0.27106 0.84108 0.39284 0.0
H526 H 0.34505 0.85029 0.39692 0.0
H527 H 0.06402 0.81537 0.52258 0.0
H528 H 0.45046 0.33076 0.70307 0.0
H529 H 0.44818 0.28308 0.67566 0.0
H530 H 0.34948 0.24513 0.64581 0.0
H531 H 0.35162 0.29307 0.67298 0.0
H532 H 0.3633 0.20084 0.68303 0.0
H533 H 0.39945 0.2741 0.57231 0.0
H534 H 0.43328 0.32542 0.53867 0.0
H535 H 0.51547 0.31675 0.56131 0.0
H536 H 0.48218 0.26557 0.59566 0.0
H537 H 0.35401 0.0759 0.56232 0.0
H538 H 0.35139 0.12266 0.5835 0.0
H539 H 0.45223 0.17277 0.6057 0.0
H540 H 0.45508 0.12627 0.58394 0.0
H541 H 0.43431 0.21058 0.56928 0.0
H542 H 0.39939 0.1395 0.68326 0.0
H543 H 0.36641 0.08877 0.71863 0.0
H544 H 0.28279 0.09381 0.69142 0.0
H545 H 0.31526 0.14439 0.65537 0.0
C546 C 0.42819 0.3122 0.69091 0.0
C547 C 0.40122 0.31565 0.69006 0.0
C548 C 0.42698 0.28505 0.67512 0.0
C549 C 0.39876 0.26078 0.65836 0.0
C550 C 0.3715 0.26369 0.65852 0.0
C551 C 0.37277 0.29104 0.67399 0.0
C552 C 0.39804 0.23262 0.64026 0.0
C553 C 0.3784 0.20282 0.65771 0.0
C554 C 0.41825 0.23544 0.60778 0.0
C555 C 0.43834 0.26612 0.58689 0.0
C556 C 0.42477 0.28325 0.57042 0.0
C557 C 0.44384 0.3123 0.55117 0.0
C558 C 0.47651 0.32438 0.54794 0.0
C559 C 0.49016 0.30738 0.56387 0.0
C560 C 0.4712 0.27833 0.5832 0.0
C561 C 0.37565 0.09697 0.57142 0.0
C562 C 0.40473 0.09739 0.57167 0.0
C563 C 0.3741 0.12362 0.58368 0.0
C564 C 0.40154 0.15106 0.59674 0.0
C565 C 0.43075 0.15183 0.59583 0.0
C566 C 0.43233 0.12523 0.58347 0.0
C567 C 0.39978 0.17873 0.61229 0.0
C568 C 0.419 0.20849 0.59439 0.0
C569 C 0.37927 0.17589 0.64448 0.0
C570 C 0.35971 0.14554 0.66623 0.0
C571 C 0.37394 0.12966 0.68453 0.0
C572 C 0.35535 0.10096 0.70475 0.0
C573 C 0.32251 0.08803 0.70717 0.0
C574 C 0.30822 0.10383 0.68946 0.0
C575 C 0.3267 0.13252 0.66915 0.0
H576 H 0.30816 0.06581 0.72285 0.0
H577 H 0.49123 0.34687 0.53303 0.0
H578 H 0.09538 0.40364 0.78827 0.0
H579 H 0.14228 0.40088 0.76891 0.0
H580 H 0.15087 0.37479 0.89133 0.0
H581 H 0.10443 0.37868 0.91122 0.0
H582 H 0.20661 0.41701 0.86468 0.0
H583 H 0.12256 0.31994 0.81073 0.0
H584 H 0.07404 0.28623 0.77139 0.0
H585 H 0.12093 0.33513 0.66219 0.0
H586 H 0.16962 0.36942 0.70096 0.0
H587 H 0.32156 0.37345 0.81613 0.0
H588 H 0.27193 0.37055 0.83662 0.0
H589 H 0.26423 0.40462 0.71884 0.0
H590 H 0.31373 0.40718 0.69794 0.0
H591 H 0.20752 0.35625 0.74456 0.0
H592 H 0.29097 0.45425 0.7997 0.0
H593 H 0.33951 0.48727 0.83934 0.0
H594 H 0.29325 0.43528 0.94713 0.0
H595 H 0.24454 0.40164 0.90799 0.0
C596 C 0.10714 0.39713 0.81104 0.0
C597 C 0.09616 0.39123 0.85124 0.0
C598 C 0.13389 0.3954 0.79987 0.0
C599 C 0.14987 0.38707 0.82846 0.0
C600 C 0.13891 0.38116 0.86869 0.0
C601 C 0.11233 0.38329 0.88001 0.0
C602 C 0.17854 0.38552 0.81656 0.0
C603 C 0.20661 0.40326 0.83882 0.0
C604 C 0.17885 0.36816 0.78227 0.0
C605 C 0.14966 0.34742 0.75882 0.0
C606 C 0.12246 0.32364 0.77837 0.0
C607 C 0.09494 0.30441 0.75617 0.0
C608 C 0.09439 0.30858 0.71433 0.0
C609 C 0.12139 0.33194 0.6946 0.0
C610 C 0.14897 0.35125 0.71666 0.0
C611 C 0.30922 0.38017 0.79451 0.0
C612 C 0.32161 0.39069 0.75548 0.0
C613 C 0.28093 0.37862 0.80632 0.0
C614 C 0.2646 0.38778 0.77945 0.0
C615 C 0.27648 0.39751 0.74009 0.0
C616 C 0.30479 0.39903 0.72823 0.0
C617 C 0.23543 0.38777 0.79261 0.0
C618 C 0.20736 0.36979 0.77055 0.0
C619 C 0.23506 0.40479 0.82718 0.0
C620 C 0.26421 0.42524 0.85083 0.0
C621 C 0.29122 0.44972 0.8318 0.0
C622 C 0.31875 0.46857 0.85419 0.0
C623 C 0.3195 0.46333 0.89571 0.0
C624 C 0.29266 0.43929 0.91496 0.0
C625 C 0.26507 0.42034 0.8927 0.0
H626 H 0.34084 0.47793 0.91298 0.0
H627 H 0.07305 0.29368 0.6972 0.0
H628 H 0.96465 0.28962 0.9178 0.0
H629 H 0.91755 0.24036 0.93919 0.0
H630 H 0.85966 0.2832 0.91949 0.0
H631 H 0.90648 0.33237 0.89825 0.0
H632 H 0.8487 0.25426 0.99324 0.0
H633 H 0.85687 0.22887 0.85415 0.0
H634 H 0.88383 0.22232 0.79482 0.0
H635 H 0.89696 0.15321 0.85945 0.0
H636 H 0.87045 0.15968 0.91939 0.0
H637 H 0.69438 0.12259 0.00475 0.0
H638 H 0.74361 0.16886 0.98254 0.0
H639 H 0.79308 0.11666 0.99702 0.0
H640 H 0.74356 0.06992 0.01839 0.0
H641 H 0.81049 0.14947 0.92842 0.0
H642 H 0.80137 0.17299 0.06653 0.0
H643 H 0.77524 0.17941 0.12685 0.0
H644 H 0.76538 0.25199 0.06613 0.0
H645 H 0.79106 0.24569 0.00521 0.0
C646 C 0.94182 0.2884 0.91769 0.0
C647 C 0.93925 0.31484 0.90636 0.0
C648 C 0.91495 0.26025 0.92984 0.0
C649 C 0.88509 0.25811 0.93083 0.0
C650 C 0.88247 0.28437 0.91903 0.0
C651 C 0.90924 0.31241 0.90674 0.0
C652 C 0.85665 0.22895 0.94547 0.0
C653 C 0.84011 0.2314 0.97879 0.0
C654 C 0.84611 0.19898 0.92744 0.0
C655 C 0.86199 0.19502 0.8914 0.0
C656 C 0.86575 0.21248 0.85583 0.0
C657 C 0.8809 0.20874 0.82207 0.0
C658 C 0.89219 0.18743 0.8234 0.0
C659 C 0.88826 0.16975 0.85848 0.0
C660 C 0.87315 0.17342 0.89234 0.0
C661 C 0.71575 0.12098 0.00332 0.0
C662 C 0.71516 0.09269 0.01351 0.0
C663 C 0.74392 0.14749 0.99076 0.0
C664 C 0.77219 0.14642 0.98868 0.0
C665 C 0.77159 0.11807 0.9985 0.0
C666 C 0.74333 0.09144 0.01083 0.0
C667 C 0.80221 0.17485 0.97589 0.0
C668 C 0.81912 0.17228 0.94302 0.0
C669 C 0.81328 0.20474 0.99453 0.0
C670 C 0.7979 0.20867 0.03117 0.0
C671 C 0.79342 0.19016 0.06593 0.0
C672 C 0.77872 0.1938 0.10025 0.0
C673 C 0.76859 0.21604 0.10029 0.0
C674 C 0.77321 0.23474 0.06604 0.0
C675 C 0.78787 0.23117 0.03162 0.0
H676 H 0.75722 0.21883 0.12689 0.0
H677 H 0.9039 0.18456 0.79723 0.0
loop_
_geom_bond_atom_site_label_1
_geom_bond_atom_site_label_2
_geom_bond_distance
_geom_bond_site_symmetry_2
_ccdc_geom_bond_type
In0 O1 2.294 1_544 S
In0 O2 2.326 . S
In0 O6 2.266 1_545 S
In0 O7 2.326 1_545 S
In0 O8 2.266 . S
In0 O9 2.326 1_545 S
In0 O11 2.294 . S
In0 O12 2.336 . S
O1 In0 2.294 1_566 S
O1 C10 1.240 1_565 S
O2 In0 2.326 . S
O2 C10 1.252 1_554 S
C3 O6 1.252 . S
C3 O7 1.260 . S
C4 O11 1.240 . S
C4 O12 1.259 . S
C5 O8 1.252 . S
C5 O9 1.260 1_545 S
O6 In0 2.266 1_565 S
O6 C3 1.252 . S
O7 In0 2.326 1_565 S
O7 C3 1.260 . S
O8 In0 2.266 . S
O8 C5 1.252 . S
O9 In0 2.326 1_565 S
O9 C5 1.260 1_565 S
C10 O1 1.240 1_545 S
C10 O2 1.252 1_556 S
O11 In0 2.294 . S
O11 C4 1.240 . S
O12 In0 2.336 . S
O12 C4 1.259 . S
In13 O14 2.294 . S
In13 O15 2.326 . S
In13 O19 2.266 . S
In13 O20 2.326 . S
In13 O21 2.266 . S
In13 O22 2.326 . S
In13 O24 2.294 . S
In13 O25 2.326 . S
O14 In13 2.294 . S
O14 C23 1.240 . S
O15 In13 2.326 . S
O15 C23 1.252 . S
C16 O19 1.252 . S
C16 O20 1.260 . S
C17 O24 1.240 . S
C17 O25 1.252 . S
C18 O21 1.252 . S
C18 O22 1.260 . S
O19 In13 2.266 . S
O19 C16 1.252 . S
O20 In13 2.326 . S
O20 C16 1.260 . S
O21 In13 2.266 . S
O21 C18 1.252 . S
O22 In13 2.326 . S
O22 C18 1.260 . S
C23 O14 1.240 . S
C23 O15 1.252 . S
O24 In13 2.294 . S
O24 C17 1.240 . S
O25 In13 2.326 . S
O25 C17 1.252 . S
In26 O27 2.294 . S
In26 O28 2.326 1_455 S
In26 O32 2.266 . S
In26 O33 2.326 . S
In26 O34 2.266 . S
In26 O35 2.326 . S
In26 O37 2.294 1_455 S
In26 O38 2.326 1_455 S
O27 In26 2.294 . S
O27 C36 1.240 . S
O28 In26 2.326 1_655 S
O28 C36 1.252 1_655 S
C29 O32 1.252 . S
C29 O33 1.260 . S
C30 O37 1.240 . S
C30 O38 1.252 . S
C31 O34 1.252 . S
C31 O35 1.260 . S
O32 In26 2.266 . S
O32 C29 1.252 . S
O33 In26 2.326 . S
O33 C29 1.260 . S
O34 In26 2.266 . S
O34 C31 1.252 . S
O35 In26 2.326 . S
O35 C31 1.260 . S
C36 O27 1.240 . S
C36 O28 1.252 1_455 S
O37 In26 2.294 1_655 S
O37 C30 1.240 . S
O38 In26 2.326 1_655 S
O38 C30 1.252 . S
In39 O40 2.294 1_545 S
In39 O41 2.326 1_545 S
In39 O45 2.266 1_545 S
In39 O46 2.326 . S
In39 O47 2.266 . S
In39 O48 2.326 . S
In39 O50 2.294 . S
In39 O51 2.326 1_545 S
O40 In39 2.294 1_565 S
O40 C49 1.240 . S
O41 In39 2.326 1_565 S
O41 C49 1.252 . S
C42 O45 1.252 1_545 S
C42 O46 1.260 . S
C43 O50 1.240 . S
C43 O51 1.252 1_545 S
C44 O47 1.252 . S
C44 O48 1.260 . S
O45 In39 2.266 1_565 S
O45 C42 1.252 1_565 S
O46 In39 2.326 . S
O46 C42 1.260 . S
O47 In39 2.266 . S
O47 C44 1.252 . S
O48 In39 2.326 . S
O48 C44 1.260 . S
C49 O40 1.240 . S
C49 O41 1.252 . S
O50 In39 2.294 . S
O50 C43 1.240 . S
O51 In39 2.326 1_565 S
O51 C43 1.252 1_565 S
In52 O53 2.294 . S
In52 O54 2.326 . S
In52 O58 2.266 . S
In52 O59 2.326 . S
In52 O60 2.266 . S
In52 O61 2.326 . S
In52 O63 2.294 . S
In52 O64 2.326 . S
O53 In52 2.294 . S
O53 C62 1.240 . S
O54 In52 2.326 . S
O54 C62 1.252 . S
C55 O58 1.252 . S
C55 O59 1.260 . S
C56 O63 1.240 . S
C56 O64 1.252 . S
C57 O60 1.252 . S
C57 O61 1.260 . S
O58 In52 2.266 . S
O58 C55 1.252 . S
O59 In52 2.326 . S
O59 C55 1.260 . S
O60 In52 2.266 . S
O60 C57 1.252 . S
O61 In52 2.326 . S
O61 C57 1.260 . S
C62 O53 1.240 . S
C62 O54 1.252 . S
O63 In52 2.294 . S
O63 C56 1.240 . S
O64 In52 2.326 . S
O64 C56 1.252 . S
In65 O66 2.294 . S
In65 O67 2.326 . S
In65 O71 2.266 . S
In65 O72 2.326 1_455 S
In65 O73 2.266 1_455 S
In65 O74 2.326 1_455 S
In65 O76 2.294 . S
In65 O77 2.326 . S
O66 In65 2.294 . S
O66 C75 1.240 . S
O67 In65 2.326 . S
O67 C75 1.252 . S
C68 O71 1.252 . S
C68 O72 1.260 1_455 S
C69 O76 1.240 . S
C69 O77 1.252 . S
C70 O73 1.252 . S
C70 O74 1.259 . S
O71 In65 2.266 . S
O71 C68 1.252 . S
O72 In65 2.326 1_655 S
O72 C68 1.260 1_655 S
O73 In65 2.266 1_655 S
O73 C70 1.252 . S
O74 In65 2.326 1_655 S
O74 C70 1.259 . S
C75 O66 1.240 . S
C75 O67 1.252 . S
O76 In65 2.294 . S
O76 C69 1.240 . S
O77 In65 2.326 . S
O77 C69 1.252 . S
H78 C96 0.951 . S
H79 C98 0.951 . S
H80 C100 0.950 . S
H81 C101 0.950 . S
H82 C103 0.950 . S
H83 C106 0.950 . S
H84 C107 0.950 . S
H85 C109 0.950 . S
H86 C110 0.950 . S
H87 C111 0.951 . S
H88 C113 0.951 . S
H89 C115 0.950 . S
H90 C116 0.950 . S
H91 C118 0.950 . S
H92 C121 0.950 . S
H93 C122 0.950 . S
H94 C124 0.950 . S
H95 C125 0.950 . S
C96 H78 0.951 . S
C96 C97 1.366 1_565 S
C96 C98 1.388 . S
C97 C96 1.366 1_545 S
C97 C101 1.385 . S
C98 H79 0.951 . S
C98 C96 1.388 . S
C98 C99 1.366 1_565 S
C99 C98 1.366 1_545 S
C99 C100 1.414 . S
C99 C102 1.499 . S
C100 H80 0.950 . S
C100 C99 1.414 . S
C100 C101 1.374 . S
C101 H81 0.950 . S
C101 C97 1.385 . S
C101 C100 1.374 . S
C102 C99 1.499 . S
C102 C103 1.373 . S
C102 C104 1.389 1_545 S
C103 H82 0.950 . S
C103 C102 1.373 . S
C103 C119 1.377 . S
C104 C102 1.389 1_565 S
C104 C105 1.524 . S
C104 C118 1.377 . S
C105 C104 1.524 . S
C105 C106 1.397 . S
C105 C110 1.363 . S
C106 H83 0.950 . S
C106 C105 1.397 . S
C106 C107 1.334 . S
C107 H84 0.950 . S
C107 C106 1.334 . S
C107 C108 1.287 . S
C108 C107 1.287 . S
C108 C109 1.524 . S
C108 H127 0.913 . S
C109 H85 0.950 . S
C109 C108 1.524 . S
C109 C110 1.415 . S
C110 H86 0.950 . S
C110 C105 1.363 . S
C110 C109 1.415 . S
C111 H87 0.951 . S
C111 C112 1.366 . S
C111 C113 1.388 . S
C112 C111 1.366 . S
C112 C116 1.385 1_545 S
C113 H88 0.951 . S
C113 C111 1.388 . S
C113 C114 1.366 . S
C114 C113 1.366 . S
C114 C115 1.414 1_545 S
C114 C117 1.499 . S
C115 H89 0.950 . S
C115 C114 1.414 1_565 S
C115 C116 1.374 . S
C116 H90 0.950 . S
C116 C112 1.385 1_565 S
C116 C115 1.374 . S
C117 C114 1.499 . S
C117 C118 1.373 1_545 S
C117 C119 1.389 . S
C118 H91 0.950 . S
C118 C104 1.377 . S
C118 C117 1.373 1_565 S
C119 C103 1.377 . S
C119 C117 1.389 . S
C119 C120 1.524 . S
C120 C119 1.524 . S
C120 C121 1.397 . S
C120 C125 1.363 . S
C121 H92 0.950 . S
C121 C120 1.397 . S
C121 C122 1.334 . S
C122 H93 0.950 . S
C122 C121 1.334 . S
C122 C123 1.287 . S
C123 C122 1.287 . S
C123 C124 1.524 . S
C123 H126 0.999 . S
C124 H94 0.950 . S
C124 C123 1.524 . S
C124 C125 1.415 . S
C125 H95 0.950 . S
C125 C120 1.363 . S
C125 C124 1.415 . S
H126 C123 0.999 . S
H127 C108 0.913 . S
H128 C146 0.951 . S
H129 C148 0.951 . S
H130 C150 0.950 . S
H131 C151 0.950 . S
H132 C153 0.950 . S
H133 C156 0.950 . S
H134 C157 0.950 . S
H135 C159 0.950 . S
H136 C160 0.950 . S
H137 C161 0.951 . S
H138 C163 0.951 . S
H139 C165 0.950 . S
H140 C166 0.950 . S
H141 C168 0.950 . S
H142 C171 0.950 . S
H143 C172 0.950 . S
H144 C174 0.950 . S
H145 C175 0.950 . S
C146 H128 0.951 . S
C146 C147 1.366 . S
C146 C148 1.388 . S
C147 C146 1.366 . S
C147 C151 1.385 . S
C148 H129 0.951 . S
C148 C146 1.388 . S
C148 C149 1.366 . S
C149 C148 1.366 . S
C149 C150 1.414 . S
C149 C152 1.499 . S
C150 H130 0.950 . S
C150 C149 1.414 . S
C150 C151 1.374 . S
C151 H131 0.950 . S
C151 C147 1.385 . S
C151 C150 1.374 . S
C152 C149 1.499 . S
C152 C153 1.373 . S
C152 C154 1.389 . S
C153 H132 0.950 . S
C153 C152 1.373 . S
C153 C169 1.377 . S
C154 C152 1.389 . S
C154 C155 1.524 . S
C154 C168 1.377 . S
C155 C154 1.524 . S
C155 C156 1.397 . S
C155 C160 1.363 . S
C156 H133 0.950 . S
C156 C155 1.397 . S
C156 C157 1.334 . S
C157 H134 0.950 . S
C157 C156 1.334 . S
C157 C158 1.287 . S
C158 C157 1.287 . S
C158 C159 1.524 . S
C158 H177 0.913 . S
C159 H135 0.950 . S
C159 C158 1.524 . S
C159 C160 1.415 . S
C160 H136 0.950 . S
C160 C155 1.363 . S
C160 C159 1.415 . S
C161 H137 0.951 . S
C161 C162 1.366 . S
C161 C163 1.388 . S
C162 C161 1.366 . S
C162 C166 1.385 . S
C163 H138 0.951 . S
C163 C161 1.388 . S
C163 C164 1.366 . S
C164 C163 1.366 . S
C164 C165 1.414 . S
C164 C167 1.499 . S
C165 H139 0.950 . S
C165 C164 1.414 . S
C165 C166 1.374 . S
C166 H140 0.950 . S
C166 C162 1.385 . S
C166 C165 1.374 . S
C167 C164 1.499 . S
C167 C168 1.373 . S
C167 C169 1.389 . S
C168 H141 0.950 . S
C168 C154 1.377 . S
C168 C167 1.373 . S
C169 C153 1.377 . S
C169 C167 1.389 . S
C169 C170 1.524 . S
C170 C169 1.524 . S
C170 C171 1.397 . S
C170 C175 1.363 . S
C171 H142 0.950 . S
C171 C170 1.397 . S
C171 C172 1.334 . S
C172 H143 0.950 . S
C172 C171 1.334 . S
C172 C173 1.287 . S
C173 C172 1.287 . S
C173 C174 1.524 . S
C173 H176 0.999 . S
C174 H144 0.950 . S
C174 C173 1.524 . S
C174 C175 1.415 . S
C175 H145 0.950 . S
C175 C170 1.363 . S
C175 C174 1.415 . S
H176 C173 0.999 . S
H177 C158 0.913 . S
H178 C196 0.951 . S
H179 C198 0.951 . S
H180 C200 0.950 1_655 S
H181 C201 0.950 1_655 S
H182 C203 0.950 . S
H183 C206 0.950 . S
H184 C207 0.950 . S
H185 C209 0.950 . S
H186 C210 0.950 . S
H187 C211 0.951 1_655 S
H188 C213 0.951 1_655 S
H189 C215 0.950 . S
H190 C216 0.950 . S
H191 C218 0.950 . S
H192 C221 0.950 . S
H193 C222 0.950 . S
H194 C224 0.950 . S
H195 C225 0.950 . S
C196 H178 0.951 . S
C196 C197 1.366 . S
C196 C198 1.388 . S
C197 C196 1.366 . S
C197 C201 1.385 . S
C198 H179 0.951 . S
C198 C196 1.388 . S
C198 C199 1.366 . S
C199 C198 1.366 . S
C199 C200 1.414 . S
C199 C202 1.499 . S
C200 H180 0.950 1_455 S
C200 C199 1.414 . S
C200 C201 1.374 . S
C201 H181 0.950 1_455 S
C201 C197 1.385 . S
C201 C200 1.374 . S
C202 C199 1.499 . S
C202 C203 1.373 . S
C202 C204 1.389 . S
C203 H182 0.950 . S
C203 C202 1.373 . S
C203 C219 1.377 . S
C204 C202 1.389 . S
C204 C205 1.524 . S
C204 C218 1.377 . S
C205 C204 1.524 . S
C205 C206 1.397 1_455 S
C205 C210 1.363 . S
C206 H183 0.950 . S
C206 C205 1.397 1_655 S
C206 C207 1.334 . S
C207 H184 0.950 . S
C207 C206 1.334 . S
C207 C208 1.287 . S
C208 C207 1.287 . S
C208 C209 1.524 1_655 S
C208 H227 0.913 . S
C209 H185 0.950 . S
C209 C208 1.524 1_455 S
C209 C210 1.415 . S
C210 H186 0.950 . S
C210 C205 1.363 . S
C210 C209 1.415 . S
C211 H187 0.951 1_455 S
C211 C212 1.366 . S
C211 C213 1.388 . S
C212 C211 1.366 . S
C212 C216 1.385 . S
C213 H188 0.951 1_455 S
C213 C211 1.388 . S
C213 C214 1.366 . S
C214 C213 1.366 . S
C214 C215 1.414 . S
C214 C217 1.499 . S
C215 H189 0.950 . S
C215 C214 1.414 . S
C215 C216 1.374 . S
C216 H190 0.950 . S
C216 C212 1.385 . S
C216 C215 1.374 . S
C217 C214 1.499 . S
C217 C218 1.373 . S
C217 C219 1.389 . S
C218 H191 0.950 . S
C218 C204 1.377 . S
C218 C217 1.373 . S
C219 C203 1.377 . S
C219 C217 1.389 . S
C219 C220 1.524 . S
C220 C219 1.524 . S
C220 C221 1.397 . S
C220 C225 1.363 . S
C221 H192 0.950 . S
C221 C220 1.397 . S
C221 C222 1.334 . S
C222 H193 0.950 . S
C222 C221 1.334 . S
C222 C223 1.287 . S
C223 C222 1.287 . S
C223 C224 1.524 . S
C223 H226 0.999 . S
C224 H194 0.950 . S
C224 C223 1.524 . S
C224 C225 1.415 . S
C225 H195 0.950 . S
C225 C220 1.363 . S
C225 C224 1.415 . S
H226 C223 0.999 . S
H227 C208 0.913 . S
H228 C246 0.951 1_565 S
H229 C248 0.951 1_565 S
H230 C250 0.950 . S
H231 C251 0.950 . S
H232 C253 0.950 . S
H233 C256 0.950 . S
H234 C257 0.950 . S
H235 C259 0.950 1_565 S
H236 C260 0.950 1_565 S
H237 C261 0.951 . S
H238 C263 0.951 . S
H239 C265 0.983 . S
H240 C266 0.958 . S
H241 C268 0.950 . S
H242 C271 0.950 . S
H243 C272 0.950 . S
H244 C274 0.950 . S
H245 C275 0.950 . S
C246 H228 0.951 1_545 S
C246 C247 1.366 . S
C246 C248 1.388 . S
C247 C246 1.366 . S
C247 C251 1.385 . S
C248 H229 0.951 1_545 S
C248 C246 1.388 . S
C248 C249 1.366 . S
C249 C248 1.366 . S
C249 C250 1.414 . S
C249 C252 1.499 . S
C250 H230 0.950 . S
C250 C249 1.414 . S
C250 C251 1.374 . S
C251 H231 0.950 . S
C251 C247 1.385 . S
C251 C250 1.374 . S
C252 C249 1.499 . S
C252 C253 1.373 . S
C252 C254 1.389 . S
C253 H232 0.950 . S
C253 C252 1.373 . S
C253 C269 1.377 . S
C254 C252 1.389 . S
C254 C255 1.524 . S
C254 C268 1.377 . S
C255 C254 1.524 . S
C255 C256 1.397 . S
C255 C260 1.363 . S
C256 H233 0.950 . S
C256 C255 1.397 . S
C256 C257 1.334 . S
C257 H234 0.950 . S
C257 C256 1.334 . S
C257 C258 1.287 . S
C258 C257 1.287 . S
C258 C259 1.524 . S
C258 H277 0.913 . S
C259 H235 0.950 1_545 S
C259 C258 1.524 . S
C259 C260 1.415 . S
C260 H236 0.950 1_545 S
C260 C255 1.363 . S
C260 C259 1.415 . S
C261 H237 0.951 . S
C261 C262 1.366 . S
C261 C263 1.388 . S
C262 C261 1.366 . S
C262 C266 1.373 1_545 S
C263 H238 0.951 . S
C263 C261 1.388 . S
C263 C264 1.366 . S
C264 C263 1.366 . S
C264 C265 1.392 1_545 S
C264 C267 1.499 . S
C265 H239 0.983 . S
C265 C264 1.392 1_565 S
C265 C266 1.367 . S
C266 H240 0.958 . S
C266 C262 1.373 1_565 S
C266 C265 1.367 . S
C267 C264 1.499 . S
C267 C268 1.373 . S
C267 C269 1.389 . S
C268 H241 0.950 . S
C268 C254 1.377 . S
C268 C267 1.373 . S
C269 C253 1.377 . S
C269 C267 1.389 . S
C269 C270 1.524 . S
C270 C269 1.524 . S
C270 C271 1.397 1_545 S
C270 C275 1.363 . S
C271 H242 0.950 . S
C271 C270 1.397 1_565 S
C271 C272 1.334 . S
C272 H243 0.950 . S
C272 C271 1.334 . S
C272 C273 1.287 1_565 S
C273 C272 1.287 1_545 S
C273 C274 1.524 . S
C273 H276 0.999 . S
C274 H244 0.950 . S
C274 C273 1.524 . S
C274 C275 1.415 . S
C275 H245 0.950 . S
C275 C270 1.363 . S
C275 C274 1.415 . S
H276 C273 0.999 . S
H277 C258 0.913 . S
H278 C296 0.951 . S
H279 C298 0.951 . S
H280 C300 0.950 . S
H281 C301 0.950 . S
H282 C303 0.950 . S
H283 C306 0.950 . S
H284 C307 0.950 . S
H285 C309 0.950 . S
H286 C310 0.950 . S
H287 C311 0.951 . S
H288 C313 0.951 . S
H289 C315 0.950 . S
H290 C316 0.950 . S
H291 C318 0.950 . S
H292 C321 0.950 . S
H293 C322 0.950 . S
H294 C324 0.950 . S
H295 C325 0.950 . S
C296 H278 0.951 . S
C296 C297 1.366 . S
C296 C298 1.388 . S
C297 C296 1.366 . S
C297 C301 1.385 . S
C298 H279 0.951 . S
C298 C296 1.388 . S
C298 C299 1.366 . S
C299 C298 1.366 . S
C299 C300 1.414 . S
C299 C302 1.499 1_554 S
C300 H280 0.950 . S
C300 C299 1.414 . S
C300 C301 1.374 . S
C301 H281 0.950 . S
C301 C297 1.385 . S
C301 C300 1.374 . S
C302 C299 1.499 1_556 S
C302 C303 1.373 . S
C302 C304 1.389 . S
C303 H282 0.950 . S
C303 C302 1.373 . S
C303 C319 1.377 . S
C304 C302 1.389 . S
C304 C305 1.524 1_556 S
C304 C318 1.377 . S
C305 C304 1.524 1_554 S
C305 C306 1.397 . S
C305 C310 1.363 . S
C306 H283 0.950 . S
C306 C305 1.397 . S
C306 C307 1.334 . S
C307 H284 0.950 . S
C307 C306 1.334 . S
C307 C308 1.287 . S
C308 C307 1.287 . S
C308 C309 1.524 . S
C308 H327 0.913 . S
C309 H285 0.950 . S
C309 C308 1.524 . S
C309 C310 1.415 . S
C310 H286 0.950 . S
C310 C305 1.363 . S
C310 C309 1.415 . S
C311 H287 0.951 . S
C311 C312 1.366 . S
C311 C313 1.388 . S
C312 C311 1.366 . S
C312 C316 1.385 . S
C313 H288 0.951 . S
C313 C311 1.388 . S
C313 C314 1.366 . S
C314 C313 1.366 . S
C314 C315 1.414 . S
C314 C317 1.499 . S
C315 H289 0.950 . S
C315 C314 1.414 . S
C315 C316 1.374 . S
C316 H290 0.950 . S
C316 C312 1.385 . S
C316 C315 1.374 . S
C317 C314 1.499 . S
C317 C318 1.373 . S
C317 C319 1.389 . S
C318 H291 0.950 . S
C318 C304 1.377 . S
C318 C317 1.373 . S
C319 C303 1.377 . S
C319 C317 1.389 . S
C319 C320 1.524 . S
C320 C319 1.524 . S
C320 C321 1.397 . S
C320 C325 1.363 . S
C321 H292 0.950 . S
C321 C320 1.397 . S
C321 C322 1.334 . S
C322 H293 0.950 . S
C322 C321 1.334 . S
C322 C323 1.287 . S
C323 C322 1.287 . S
C323 C324 1.524 . S
C323 H326 0.999 . S
C324 H294 0.950 . S
C324 C323 1.524 . S
C324 C325 1.415 . S
C325 H295 0.950 . S
C325 C320 1.363 . S
C325 C324 1.415 . S
H326 C323 0.999 . S
H327 C308 0.913 . S
H328 C346 0.951 . S
H329 C348 0.951 . S
H330 C350 0.950 . S
H331 C351 0.950 . S
H332 C353 0.950 . S
H333 C356 0.950 . S
H334 C357 0.950 . S
H335 C359 0.950 . S
H336 C360 0.950 . S
H337 C361 0.951 . S
H338 C363 0.951 . S
H339 C365 0.950 . S
H340 C366 0.950 . S
H341 C368 0.950 . S
H342 C371 0.950 . S
H343 C372 0.950 . S
H344 C374 0.950 . S
H345 C375 0.950 . S
C346 H328 0.951 . S
C346 C347 1.366 . S
C346 C348 1.388 1_556 S
C347 C346 1.366 . S
C347 C351 1.385 1_456 S
C348 H329 0.951 . S
C348 C346 1.388 1_554 S
C348 C349 1.366 . S
C349 C348 1.366 . S
C349 C350 1.414 1_455 S
C349 C352 1.499 . S
C350 H330 0.950 . S
C350 C349 1.414 1_655 S
C350 C351 1.374 . S
C351 H331 0.950 . S
C351 C347 1.385 1_654 S
C351 C350 1.374 . S
C352 C349 1.499 . S
C352 C353 1.373 1_455 S
C352 C354 1.389 . S
C353 H332 0.950 . S
C353 C352 1.373 1_655 S
C353 C369 1.377 . S
C354 C352 1.389 . S
C354 C355 1.524 . S
C354 C368 1.377 . S
C355 C354 1.524 . S
C355 C356 1.397 . S
C355 C360 1.363 . S
C356 H333 0.950 . S
C356 C355 1.397 . S
C356 C357 1.334 . S
C357 H334 0.950 . S
C357 C356 1.334 . S
C357 C358 1.287 . S
C358 C357 1.287 . S
C358 C359 1.524 . S
C358 H377 0.913 . S
C359 H335 0.950 . S
C359 C358 1.524 . S
C359 C360 1.415 . S
C360 H336 0.950 . S
C360 C355 1.363 . S
C360 C359 1.415 . S
C361 H337 0.951 . S
C361 C362 1.366 1_655 S
C361 C363 1.388 . S
C362 C361 1.366 1_455 S
C362 C366 1.385 . S
C363 H338 0.951 . S
C363 C361 1.388 . S
C363 C364 1.366 1_655 S
C364 C363 1.366 1_455 S
C364 C365 1.414 . S
C364 C367 1.499 . S
C365 H339 0.950 . S
C365 C364 1.414 . S
C365 C366 1.374 . S
C366 H340 0.950 . S
C366 C362 1.385 . S
C366 C365 1.374 . S
C367 C364 1.499 . S
C367 C368 1.373 . S
C367 C369 1.389 1_455 S
C368 H341 0.950 . S
C368 C354 1.377 . S
C368 C367 1.373 . S
C369 C353 1.377 . S
C369 C367 1.389 1_655 S
C369 C370 1.524 . S
C370 C369 1.524 . S
C370 C371 1.397 . S
C370 C375 1.363 . S
C371 H342 0.950 . S
C371 C370 1.397 . S
C371 C372 1.334 . S
C372 H343 0.950 . S
C372 C371 1.334 . S
C372 C373 1.287 . S
C373 C372 1.287 . S
C373 C374 1.524 . S
C373 H376 0.999 . S
C374 H344 0.950 . S
C374 C373 1.524 . S
C374 C375 1.415 . S
C375 H345 0.950 . S
C375 C370 1.363 . S
C375 C374 1.415 . S
H376 C373 0.999 . S
H377 C358 0.913 . S
H378 C396 0.951 . S
H379 C398 0.951 . S
H380 C400 0.950 . S
H381 C401 0.950 . S
H382 C403 0.950 . S
H383 C406 0.950 . S
H384 C407 0.950 . S
H385 C409 0.950 . S
H386 C410 0.950 . S
H387 C411 0.951 . S
H388 C413 0.951 . S
H389 C415 0.950 . S
H390 C416 0.950 . S
H391 C418 0.950 . S
H392 C421 0.950 . S
H393 C422 0.950 . S
H394 C424 0.950 . S
H395 C425 0.950 . S
C396 H378 0.951 . S
C396 C397 1.366 . S
C396 C398 1.388 . S
C397 C396 1.366 . S
C397 C401 1.385 . S
C398 H379 0.951 . S
C398 C396 1.388 . S
C398 C399 1.366 . S
C399 C398 1.366 . S
C399 C400 1.414 . S
C399 C402 1.499 . S
C400 H380 0.950 . S
C400 C399 1.414 . S
C400 C401 1.374 . S
C401 H381 0.950 . S
C401 C397 1.385 . S
C401 C400 1.374 . S
C402 C399 1.499 . S
C402 C403 1.373 . S
C402 C404 1.389 . S
C403 H382 0.950 . S
C403 C402 1.373 . S
C403 C419 1.377 . S
C404 C402 1.389 . S
C404 C405 1.524 . S
C404 C418 1.377 . S
C405 C404 1.524 . S
C405 C406 1.397 . S
C405 C410 1.363 . S
C406 H383 0.950 . S
C406 C405 1.397 . S
C406 C407 1.334 . S
C407 H384 0.950 . S
C407 C406 1.334 . S
C407 C408 1.287 . S
C408 C407 1.287 . S
C408 C409 1.524 . S
C408 H427 0.913 . S
C409 H385 0.950 . S
C409 C408 1.524 . S
C409 C410 1.415 . S
C410 H386 0.950 . S
C410 C405 1.363 . S
C410 C409 1.415 . S
C411 H387 0.951 . S
C411 C412 1.366 . S
C411 C413 1.388 . S
C412 C411 1.366 . S
C412 C416 1.385 . S
C413 H388 0.951 . S
C413 C411 1.388 . S
C413 C414 1.366 . S
C414 C413 1.366 . S
C414 C415 1.414 . S
C414 C417 1.499 . S
C415 H389 0.950 . S
C415 C414 1.414 . S
C415 C416 1.374 . S
C416 H390 0.950 . S
C416 C412 1.385 . S
C416 C415 1.374 . S
C417 C414 1.499 . S
C417 C418 1.373 . S
C417 C419 1.389 . S
C418 H391 0.950 . S
C418 C404 1.377 . S
C418 C417 1.373 . S
C419 C403 1.377 . S
C419 C417 1.389 . S
C419 C420 1.524 . S
C420 C419 1.524 . S
C420 C421 1.397 . S
C420 C425 1.363 . S
C421 H392 0.950 . S
C421 C420 1.397 . S
C421 C422 1.334 . S
C422 H393 0.950 . S
C422 C421 1.334 . S
C422 C423 1.287 1_554 S
C423 C422 1.287 1_556 S
C423 C424 1.524 . S
C423 H426 0.999 . S
C424 H394 0.950 . S
C424 C423 1.524 . S
C424 C425 1.415 1_556 S
C425 H395 0.950 . S
C425 C420 1.363 . S
C425 C424 1.415 1_554 S
H426 C423 0.999 . S
H427 C408 0.913 . S
H428 C446 0.951 . S
H429 C448 0.951 . S
H430 C450 0.950 . S
H431 C451 0.950 . S
H432 C453 0.950 . S
H433 C456 0.950 . S
H434 C457 0.950 . S
H435 C459 0.950 . S
H436 C460 0.950 . S
H437 C461 0.951 . S
H438 C463 0.951 . S
H439 C465 0.950 . S
H440 C466 0.950 . S
H441 C468 0.950 . S
H442 C471 0.950 . S
H443 C472 0.950 . S
H444 C474 0.950 . S
H445 C475 0.950 . S
C446 H428 0.951 . S
C446 C447 1.366 . S
C446 C448 1.388 . S
C447 C446 1.366 . S
C447 C451 1.385 . S
C448 H429 0.951 . S
C448 C446 1.388 . S
C448 C449 1.366 . S
C449 C448 1.366 . S
C449 C450 1.414 . S
C449 C452 1.499 . S
C450 H430 0.950 . S
C450 C449 1.414 . S
C450 C451 1.374 . S
C451 H431 0.950 . S
C451 C447 1.385 . S
C451 C450 1.374 . S
C452 C449 1.499 . S
C452 C453 1.373 . S
C452 C454 1.389 . S
C453 H432 0.950 . S
C453 C452 1.373 . S
C453 C469 1.377 . S
C454 C452 1.389 . S
C454 C455 1.524 . S
C454 C468 1.377 . S
C455 C454 1.524 . S
C455 C456 1.397 . S
C455 C460 1.363 . S
C456 H433 0.950 . S
C456 C455 1.397 . S
C456 C457 1.334 . S
C457 H434 0.950 . S
C457 C456 1.334 . S
C457 C458 1.287 . S
C458 C457 1.287 . S
C458 C459 1.524 . S
C458 H477 0.913 . S
C459 H435 0.950 . S
C459 C458 1.524 . S
C459 C460 1.415 . S
C460 H436 0.950 . S
C460 C455 1.363 . S
C460 C459 1.415 . S
C461 H437 0.951 . S
C461 C462 1.366 . S
C461 C463 1.388 . S
C462 C461 1.366 . S
C462 C466 1.385 . S
C463 H438 0.951 . S
C463 C461 1.388 . S
C463 C464 1.366 . S
C464 C463 1.366 . S
C464 C465 1.414 . S
C464 C467 1.499 . S
C465 H439 0.950 . S
C465 C464 1.414 . S
C465 C466 1.374 . S
C466 H440 0.950 . S
C466 C462 1.385 . S
C466 C465 1.374 . S
C467 C464 1.499 . S
C467 C468 1.373 . S
C467 C469 1.389 . S
C468 H441 0.950 . S
C468 C454 1.377 . S
C468 C467 1.373 . S
C469 C453 1.377 . S
C469 C467 1.389 . S
C469 C470 1.524 . S
C470 C469 1.524 . S
C470 C471 1.397 . S
C470 C475 1.363 . S
C471 H442 0.950 . S
C471 C470 1.397 . S
C471 C472 1.334 . S
C472 H443 0.950 . S
C472 C471 1.334 . S
C472 C473 1.287 . S
C473 C472 1.287 . S
C473 C474 1.524 . S
C473 H476 0.999 . S
C474 H444 0.950 . S
C474 C473 1.524 . S
C474 C475 1.415 . S
C475 H445 0.950 . S
C475 C470 1.363 . S
C475 C474 1.415 . S
H476 C473 0.999 . S
H477 C458 0.913 . S
H478 C496 0.951 . S
H479 C498 0.951 . S
H480 C500 0.950 . S
H481 C501 0.950 . S
H482 C503 0.950 . S
H483 C506 0.950 . S
H484 C507 0.950 . S
H485 C509 0.950 . S
H486 C510 0.950 . S
H487 C511 0.951 . S
H488 C513 0.951 . S
H489 C515 0.950 . S
H490 C516 0.950 . S
H491 C518 0.950 . S
H492 C521 0.950 . S
H493 C522 0.950 . S
H494 C524 0.950 . S
H495 C525 0.950 . S
C496 H478 0.951 . S
C496 C497 1.366 . S
C496 C498 1.388 . S
C497 C496 1.366 . S
C497 C501 1.385 . S
C498 H479 0.951 . S
C498 C496 1.388 . S
C498 C499 1.366 . S
C499 C498 1.366 . S
C499 C500 1.414 . S
C499 C502 1.499 . S
C500 H480 0.950 . S
C500 C499 1.414 . S
C500 C501 1.374 . S
C501 H481 0.950 . S
C501 C497 1.385 . S
C501 C500 1.374 . S
C502 C499 1.499 . S
C502 C503 1.373 . S
C502 C504 1.389 . S
C503 H482 0.950 . S
C503 C502 1.373 . S
C503 C519 1.377 . S
C504 C502 1.389 . S
C504 C505 1.524 . S
C504 C518 1.377 . S
C505 C504 1.524 . S
C505 C506 1.397 . S
C505 C510 1.363 . S
C506 H483 0.950 . S
C506 C505 1.397 . S
C506 C507 1.334 . S
C507 H484 0.950 . S
C507 C506 1.334 . S
C507 C508 1.287 . S
C508 C507 1.287 . S
C508 C509 1.524 . S
C508 H527 0.913 . S
C509 H485 0.950 . S
C509 C508 1.524 . S
C509 C510 1.415 . S
C510 H486 0.950 . S
C510 C505 1.363 . S
C510 C509 1.415 . S
C511 H487 0.951 . S
C511 C512 1.366 . S
C511 C513 1.388 . S
C512 C511 1.366 . S
C512 C516 1.385 . S
C513 H488 0.951 . S
C513 C511 1.388 . S
C513 C514 1.366 . S
C514 C513 1.366 . S
C514 C515 1.414 . S
C514 C517 1.499 . S
C515 H489 0.950 . S
C515 C514 1.414 . S
C515 C516 1.374 . S
C516 H490 0.950 . S
C516 C512 1.385 . S
C516 C515 1.374 . S
C517 C514 1.499 . S
C517 C518 1.373 . S
C517 C519 1.389 . S
C518 H491 0.950 . S
C518 C504 1.377 . S
C518 C517 1.373 . S
C519 C503 1.377 . S
C519 C517 1.389 . S
C519 C520 1.524 . S
C520 C519 1.524 . S
C520 C521 1.397 . S
C520 C525 1.363 . S
C521 H492 0.950 . S
C521 C520 1.397 . S
C521 C522 1.334 . S
C522 H493 0.950 . S
C522 C521 1.334 . S
C522 C523 1.287 . S
C523 C522 1.287 . S
C523 C524 1.524 . S
C523 H526 0.999 . S
C524 H494 0.950 . S
C524 C523 1.524 . S
C524 C525 1.415 . S
C525 H495 0.950 . S
C525 C520 1.363 . S
C525 C524 1.415 . S
H526 C523 0.999 . S
H527 C508 0.913 . S
H528 C546 0.951 . S
H529 C548 0.951 . S
H530 C550 0.950 . S
H531 C551 0.950 . S
H532 C553 0.950 . S
H533 C556 0.950 . S
H534 C557 0.950 . S
H535 C559 0.950 . S
H536 C560 0.950 . S
H537 C561 0.951 . S
H538 C563 0.951 . S
H539 C565 0.950 . S
H540 C566 0.950 . S
H541 C568 0.950 . S
H542 C571 0.950 . S
H543 C572 0.950 . S
H544 C574 0.950 . S
H545 C575 0.950 . S
C546 H528 0.951 . S
C546 C547 1.366 . S
C546 C548 1.388 . S
C547 C546 1.366 . S
C547 C551 1.385 . S
C548 H529 0.951 . S
C548 C546 1.388 . S
C548 C549 1.366 . S
C549 C548 1.366 . S
C549 C550 1.414 . S
C549 C552 1.499 . S
C550 H530 0.950 . S
C550 C549 1.414 . S
C550 C551 1.374 . S
C551 H531 0.950 . S
C551 C547 1.385 . S
C551 C550 1.374 . S
C552 C549 1.499 . S
C552 C553 1.373 . S
C552 C554 1.389 . S
C553 H532 0.950 . S
C553 C552 1.373 . S
C553 C569 1.377 . S
C554 C552 1.389 . S
C554 C555 1.524 . S
C554 C568 1.377 . S
C555 C554 1.524 . S
C555 C556 1.397 . S
C555 C560 1.363 . S
C556 H533 0.950 . S
C556 C555 1.397 . S
C556 C557 1.334 . S
C557 H534 0.950 . S
C557 C556 1.334 . S
C557 C558 1.287 . S
C558 C557 1.287 . S
C558 C559 1.524 . S
C558 H577 0.913 . S
C559 H535 0.950 . S
C559 C558 1.524 . S
C559 C560 1.415 . S
C560 H536 0.950 . S
C560 C555 1.363 . S
C560 C559 1.415 . S
C561 H537 0.951 . S
C561 C562 1.366 . S
C561 C563 1.388 . S
C562 C561 1.366 . S
C562 C566 1.385 . S
C563 H538 0.951 . S
C563 C561 1.388 . S
C563 C564 1.366 . S
C564 C563 1.366 . S
C564 C565 1.414 . S
C564 C567 1.499 . S
C565 H539 0.950 . S
C565 C564 1.414 . S
C565 C566 1.374 . S
C566 H540 0.950 . S
C566 C562 1.385 . S
C566 C565 1.374 . S
C567 C564 1.499 . S
C567 C568 1.373 . S
C567 C569 1.389 . S
C568 H541 0.950 . S
C568 C554 1.377 . S
C568 C567 1.373 . S
C569 C553 1.377 . S
C569 C567 1.389 . S
C569 C570 1.524 . S
C570 C569 1.524 . S
C570 C571 1.397 . S
C570 C575 1.363 . S
C571 H542 0.950 . S
C571 C570 1.397 . S
C571 C572 1.334 . S
C572 H543 0.950 . S
C572 C571 1.334 . S
C572 C573 1.287 . S
C573 C572 1.287 . S
C573 C574 1.524 . S
C573 H576 0.999 . S
C574 H544 0.950 . S
C574 C573 1.524 . S
C574 C575 1.415 . S
C575 H545 0.950 . S
C575 C570 1.363 . S
C575 C574 1.415 . S
H576 C573 0.999 . S
H577 C558 0.913 . S
H578 C596 0.951 . S
H579 C598 0.951 . S
H580 C600 0.950 . S
H581 C601 0.950 . S
H582 C603 0.950 . S
H583 C606 0.950 . S
H584 C607 0.950 . S
H585 C609 0.950 . S
H586 C610 0.950 . S
H587 C611 0.951 . S
H588 C613 0.951 . S
H589 C615 0.950 . S
H590 C616 0.950 . S
H591 C618 0.950 . S
H592 C621 0.950 . S
H593 C622 0.950 . S
H594 C624 0.950 . S
H595 C625 0.950 . S
C596 H578 0.951 . S
C596 C597 1.366 . S
C596 C598 1.388 . S
C597 C596 1.366 . S
C597 C601 1.385 . S
C598 H579 0.951 . S
C598 C596 1.388 . S
C598 C599 1.366 . S
C599 C598 1.366 . S
C599 C600 1.414 . S
C599 C602 1.499 . S
C600 H580 0.950 . S
C600 C599 1.414 . S
C600 C601 1.374 . S
C601 H581 0.950 . S
C601 C597 1.385 . S
C601 C600 1.374 . S
C602 C599 1.499 . S
C602 C603 1.373 . S
C602 C604 1.389 . S
C603 H582 0.950 . S
C603 C602 1.373 . S
C603 C619 1.377 . S
C604 C602 1.389 . S
C604 C605 1.524 . S
C604 C618 1.377 . S
C605 C604 1.524 . S
C605 C606 1.397 . S
C605 C610 1.363 . S
C606 H583 0.950 . S
C606 C605 1.397 . S
C606 C607 1.334 . S
C607 H584 0.950 . S
C607 C606 1.334 . S
C607 C608 1.287 . S
C608 C607 1.287 . S
C608 C609 1.524 . S
C608 H627 0.913 . S
C609 H585 0.950 . S
C609 C608 1.524 . S
C609 C610 1.415 . S
C610 H586 0.950 . S
C610 C605 1.363 . S
C610 C609 1.415 . S
C611 H587 0.951 . S
C611 C612 1.366 . S
C611 C613 1.388 . S
C612 C611 1.366 . S
C612 C616 1.385 . S
C613 H588 0.951 . S
C613 C611 1.388 . S
C613 C614 1.366 . S
C614 C613 1.366 . S
C614 C615 1.414 . S
C614 C617 1.499 . S
C615 H589 0.950 . S
C615 C614 1.414 . S
C615 C616 1.374 . S
C616 H590 0.950 . S
C616 C612 1.385 . S
C616 C615 1.374 . S
C617 C614 1.499 . S
C617 C618 1.373 . S
C617 C619 1.389 . S
C618 H591 0.950 . S
C618 C604 1.377 . S
C618 C617 1.373 . S
C619 C603 1.377 . S
C619 C617 1.389 . S
C619 C620 1.524 . S
C620 C619 1.524 . S
C620 C621 1.397 . S
C620 C625 1.363 . S
C621 H592 0.950 . S
C621 C620 1.397 . S
C621 C622 1.334 . S
C622 H593 0.950 . S
C622 C621 1.334 . S
C622 C623 1.287 . S
C623 C622 1.287 . S
C623 C624 1.524 . S
C623 H626 0.999 . S
C624 H594 0.950 . S
C624 C623 1.524 . S
C624 C625 1.415 . S
C625 H595 0.950 . S
C625 C620 1.363 . S
C625 C624 1.415 . S
H626 C623 0.999 . S
H627 C608 0.913 . S
H628 C646 0.951 . S
H629 C648 0.951 . S
H630 C650 0.950 . S
H631 C651 0.950 . S
H632 C653 0.950 . S
H633 C656 0.950 . S
H634 C657 0.950 . S
H635 C659 0.950 . S
H636 C660 0.950 . S
H637 C661 0.951 . S
H638 C663 0.951 . S
H639 C665 0.950 . S
H640 C666 0.950 . S
H641 C668 0.950 . S
H642 C671 0.950 . S
H643 C672 0.950 . S
H644 C674 0.950 . S
H645 C675 0.950 1_556 S
C646 H628 0.951 . S
C646 C647 1.366 . S
C646 C648 1.388 . S
C647 C646 1.366 . S
C647 C651 1.385 . S
C648 H629 0.951 . S
C648 C646 1.388 . S
C648 C649 1.366 . S
C649 C648 1.366 . S
C649 C650 1.414 . S
C649 C652 1.499 . S
C650 H630 0.950 . S
C650 C649 1.414 . S
C650 C651 1.374 . S
C651 H631 0.950 . S
C651 C647 1.385 . S
C651 C650 1.374 . S
C652 C649 1.499 . S
C652 C653 1.373 . S
C652 C654 1.389 . S
C653 H632 0.950 . S
C653 C652 1.373 . S
C653 C669 1.377 . S
C654 C652 1.389 . S
C654 C655 1.524 . S
C654 C668 1.377 . S
C655 C654 1.524 . S
C655 C656 1.397 . S
C655 C660 1.363 . S
C656 H633 0.950 . S
C656 C655 1.397 . S
C656 C657 1.334 . S
C657 H634 0.950 . S
C657 C656 1.334 . S
C657 C658 1.287 . S
C658 C657 1.287 . S
C658 C659 1.524 . S
C658 H677 0.913 . S
C659 H635 0.950 . S
C659 C658 1.524 . S
C659 C660 1.415 . S
C660 H636 0.950 . S
C660 C655 1.363 . S
C660 C659 1.415 . S
C661 H637 0.951 . S
C661 C662 1.366 1_556 S
C661 C663 1.388 . S
C662 C661 1.366 1_554 S
C662 C666 1.385 . S
C663 H638 0.951 . S
C663 C661 1.388 . S
C663 C664 1.366 . S
C664 C663 1.366 . S
C664 C665 1.414 1_556 S
C664 C667 1.499 . S
C665 H639 0.950 . S
C665 C664 1.414 1_554 S
C665 C666 1.373 . S
C666 H640 0.950 . S
C666 C662 1.385 . S
C666 C665 1.373 . S
C667 C664 1.499 . S
C667 C668 1.373 . S
C667 C669 1.389 . S
C668 H641 0.950 . S
C668 C654 1.377 . S
C668 C667 1.373 . S
C669 C653 1.377 . S
C669 C667 1.389 . S
C669 C670 1.524 1_556 S
C670 C669 1.524 1_554 S
C670 C671 1.397 . S
C670 C675 1.363 . S
C671 H642 0.950 . S
C671 C670 1.397 . S
C671 C672 1.334 . S
C672 H643 0.950 . S
C672 C671 1.334 . S
C672 C673 1.287 . S
C673 C672 1.287 . S
C673 C674 1.524 . S
C673 H676 0.999 . S
C674 H644 0.950 . S
C674 C673 1.524 . S
C674 C675 1.415 . S
C675 H645 0.950 1_554 S
C675 C670 1.363 . S
C675 C674 1.415 . S
H676 C673 0.999 . S
H677 C658 0.913 . S
C97 C5 1.847 . S
C112 C43 1.846 . S
C147 C18 1.847 . S
C162 C56 1.846 . S
C197 C69 1.846 . S
C212 C31 1.847 . S
C247 C10 1.846 . S
C262 C42 1.847 . S
C297 C23 1.846 . S
C312 C55 1.847 . S
C347 C68 1.847 . S
C362 C36 1.846 . S
C397 C17 1.390 . S
C412 C3 1.392 . S
C447 C30 1.389 . S
C462 C16 1.391 . S
C497 C29 1.391 . S
C512 C49 1.389 . S
C547 C62 1.389 . S
C562 C44 1.391 . S
C597 C75 1.389 . S
C612 C57 1.391 . S
C647 C70 1.391 . S
C662 C4 1.389 . S
