# Generated by pormake.
# Topology uns, (4)-cn, num edge types: 1
# Building blocks:
#     Node 0, Type 0, BuildingBlock: QUQFOY_clean_sbu_1, # of connection points: 4
#     Node 1, Type 0, BuildingBlock: QUQFOY_clean_sbu_1, # of connection points: 4
#     Node 2, Type 0, BuildingBlock: QUQFOY_clean_sbu_1, # of connection points: 4
#     Node 3, Type 0, BuildingBlock: QUQFOY_clean_sbu_1, # of connection points: 4
#     Node 4, Type 0, BuildingBlock: QUQFOY_clean_sbu_1, # of connection points: 4
#     Node 5, Type 0, BuildingBlock: QUQFOY_clean_sbu_1, # of connection points: 4
#     Node 6, Type 0, BuildingBlock: QUQFOY_clean_sbu_1, # of connection points: 4
#     Node 7, Type 0, BuildingBlock: QUQFOY_clean_sbu_1, # of connection points: 4
#     Node 8, Type 0, BuildingBlock: QUQFOY_clean_sbu_1, # of connection points: 4
#     Node 9, Type 0, BuildingBlock: QUQFOY_clean_sbu_1, # of connection points: 4
#     Node 10, Type 0, BuildingBlock: QUQFOY_clean_sbu_1, # of connection points: 4
#     Node 11, Type 0, BuildingBlock: QUQFOY_clean_sbu_1, # of connection points: 4
#     Node 12, Type 0, BuildingBlock: QUQFOY_clean_sbu_1, # of connection points: 4
#     Node 13, Type 0, BuildingBlock: QUQFOY_clean_sbu_1, # of connection points: 4
#     Node 14, Type 0, BuildingBlock: QUQFOY_clean_sbu_1, # of connection points: 4
#     Node 15, Type 0, BuildingBlock: QUQFOY_clean_sbu_1, # of connection points: 4
#     Node 16, Type 0, BuildingBlock: QUQFOY_clean_sbu_1, # of connection points: 4
#     Node 17, Type 0, BuildingBlock: QUQFOY_clean_sbu_1, # of connection points: 4
#     Node 18, Type 0, BuildingBlock: QUQFOY_clean_sbu_1, # of connection points: 4
#     Node 19, Type 0, BuildingBlock: QUQFOY_clean_sbu_1, # of connection points: 4
#     Node 20, Type 0, BuildingBlock: QUQFOY_clean_sbu_1, # of connection points: 4
#     Node 21, Type 0, BuildingBlock: QUQFOY_clean_sbu_1, # of connection points: 4
#     Node 22, Type 0, BuildingBlock: QUQFOY_clean_sbu_1, # of connection points: 4
#     Node 23, Type 0, BuildingBlock: QUQFOY_clean_sbu_1, # of connection points: 4
#     Node 24, Type 0, BuildingBlock: QUQFOY_clean_sbu_1, # of connection points: 4
#     Node 25, Type 0, BuildingBlock: QUQFOY_clean_sbu_1, # of connection points: 4
#     Node 26, Type 0, BuildingBlock: QUQFOY_clean_sbu_1, # of connection points: 4
#     Node 27, Type 0, BuildingBlock: QUQFOY_clean_sbu_1, # of connection points: 4
#     Node 28, Type 0, BuildingBlock: QUQFOY_clean_sbu_1, # of connection points: 4
#     Node 29, Type 0, BuildingBlock: QUQFOY_clean_sbu_1, # of connection points: 4
#     Node 30, Type 0, BuildingBlock: QUQFOY_clean_sbu_1, # of connection points: 4
#     Node 31, Type 0, BuildingBlock: QUQFOY_clean_sbu_1, # of connection points: 4
#     Node 32, Type 0, BuildingBlock: QUQFOY_clean_sbu_1, # of connection points: 4
#     Node 33, Type 0, BuildingBlock: QUQFOY_clean_sbu_1, # of connection points: 4
#     Node 34, Type 0, BuildingBlock: QUQFOY_clean_sbu_1, # of connection points: 4
#     Node 35, Type 0, BuildingBlock: QUQFOY_clean_sbu_1, # of connection points: 4
#     Edge 36, Type (0, 0), BuildingBlock: KIFKEQ_clean_linker_1, # of connection points: 2
#     Edge 37, Type (0, 0), BuildingBlock: KIFKEQ_clean_linker_1, # of connection points: 2
#     Edge 38, Type (0, 0), BuildingBlock: KIFKEQ_clean_linker_1, # of connection points: 2
#     Edge 39, Type (0, 0), BuildingBlock: KIFKEQ_clean_linker_1, # of connection points: 2
#     Edge 40, Type (0, 0), BuildingBlock: KIFKEQ_clean_linker_1, # of connection points: 2
#     Edge 41, Type (0, 0), BuildingBlock: KIFKEQ_clean_linker_1, # of connection points: 2
#     Edge 42, Type (0, 0), BuildingBlock: KIFKEQ_clean_linker_1, # of connection points: 2
#     Edge 43, Type (0, 0), BuildingBlock: KIFKEQ_clean_linker_1, # of connection points: 2
#     Edge 44, Type (0, 0), BuildingBlock: KIFKEQ_clean_linker_1, # of connection points: 2
#     Edge 45, Type (0, 0), BuildingBlock: KIFKEQ_clean_linker_1, # of connection points: 2
#     Edge 46, Type (0, 0), BuildingBlock: KIFKEQ_clean_linker_1, # of connection points: 2
#     Edge 47, Type (0, 0), BuildingBlock: KIFKEQ_clean_linker_1, # of connection points: 2
#     Edge 48, Type (0, 0), BuildingBlock: KIFKEQ_clean_linker_1, # of connection points: 2
#     Edge 49, Type (0, 0), BuildingBlock: KIFKEQ_clean_linker_1, # of connection points: 2
#     Edge 50, Type (0, 0), BuildingBlock: KIFKEQ_clean_linker_1, # of connection points: 2
#     Edge 51, Type (0, 0), BuildingBlock: KIFKEQ_clean_linker_1, # of connection points: 2
#     Edge 52, Type (0, 0), BuildingBlock: KIFKEQ_clean_linker_1, # of connection points: 2
#     Edge 53, Type (0, 0), BuildingBlock: KIFKEQ_clean_linker_1, # of connection points: 2
#     Edge 54, Type (0, 0), BuildingBlock: KIFKEQ_clean_linker_1, # of connection points: 2
#     Edge 55, Type (0, 0), BuildingBlock: KIFKEQ_clean_linker_1, # of connection points: 2
#     Edge 56, Type (0, 0), BuildingBlock: KIFKEQ_clean_linker_1, # of connection points: 2
#     Edge 57, Type (0, 0), BuildingBlock: KIFKEQ_clean_linker_1, # of connection points: 2
#     Edge 58, Type (0, 0), BuildingBlock: KIFKEQ_clean_linker_1, # of connection points: 2
#     Edge 59, Type (0, 0), BuildingBlock: KIFKEQ_clean_linker_1, # of connection points: 2
#     Edge 60, Type (0, 0), BuildingBlock: KIFKEQ_clean_linker_1, # of connection points: 2
#     Edge 61, Type (0, 0), BuildingBlock: KIFKEQ_clean_linker_1, # of connection points: 2
#     Edge 62, Type (0, 0), BuildingBlock: KIFKEQ_clean_linker_1, # of connection points: 2
#     Edge 63, Type (0, 0), BuildingBlock: KIFKEQ_clean_linker_1, # of connection points: 2
#     Edge 64, Type (0, 0), BuildingBlock: KIFKEQ_clean_linker_1, # of connection points: 2
#     Edge 65, Type (0, 0), BuildingBlock: KIFKEQ_clean_linker_1, # of connection points: 2
#     Edge 66, Type (0, 0), BuildingBlock: KIFKEQ_clean_linker_1, # of connection points: 2
#     Edge 67, Type (0, 0), BuildingBlock: KIFKEQ_clean_linker_1, # of connection points: 2
#     Edge 68, Type (0, 0), BuildingBlock: KIFKEQ_clean_linker_1, # of connection points: 2
#     Edge 69, Type (0, 0), BuildingBlock: KIFKEQ_clean_linker_1, # of connection points: 2
#     Edge 70, Type (0, 0), BuildingBlock: KIFKEQ_clean_linker_1, # of connection points: 2
#     Edge 71, Type (0, 0), BuildingBlock: KIFKEQ_clean_linker_1, # of connection points: 2
#     Edge 72, Type (0, 0), BuildingBlock: KIFKEQ_clean_linker_1, # of connection points: 2
#     Edge 73, Type (0, 0), BuildingBlock: KIFKEQ_clean_linker_1, # of connection points: 2
#     Edge 74, Type (0, 0), BuildingBlock: KIFKEQ_clean_linker_1, # of connection points: 2
#     Edge 75, Type (0, 0), BuildingBlock: KIFKEQ_clean_linker_1, # of connection points: 2
#     Edge 76, Type (0, 0), BuildingBlock: KIFKEQ_clean_linker_1, # of connection points: 2
#     Edge 77, Type (0, 0), BuildingBlock: KIFKEQ_clean_linker_1, # of connection points: 2
#     Edge 78, Type (0, 0), BuildingBlock: KIFKEQ_clean_linker_1, # of connection points: 2
#     Edge 79, Type (0, 0), BuildingBlock: KIFKEQ_clean_linker_1, # of connection points: 2
#     Edge 80, Type (0, 0), BuildingBlock: KIFKEQ_clean_linker_1, # of connection points: 2
#     Edge 81, Type (0, 0), BuildingBlock: KIFKEQ_clean_linker_1, # of connection points: 2
#     Edge 82, Type (0, 0), BuildingBlock: KIFKEQ_clean_linker_1, # of connection points: 2
#     Edge 83, Type (0, 0), BuildingBlock: KIFKEQ_clean_linker_1, # of connection points: 2
#     Edge 84, Type (0, 0), BuildingBlock: KIFKEQ_clean_linker_1, # of connection points: 2
#     Edge 85, Type (0, 0), BuildingBlock: KIFKEQ_clean_linker_1, # of connection points: 2
#     Edge 86, Type (0, 0), BuildingBlock: KIFKEQ_clean_linker_1, # of connection points: 2
#     Edge 87, Type (0, 0), BuildingBlock: KIFKEQ_clean_linker_1, # of connection points: 2
#     Edge 88, Type (0, 0), BuildingBlock: KIFKEQ_clean_linker_1, # of connection points: 2
#     Edge 89, Type (0, 0), BuildingBlock: KIFKEQ_clean_linker_1, # of connection points: 2
#     Edge 90, Type (0, 0), BuildingBlock: KIFKEQ_clean_linker_1, # of connection points: 2
#     Edge 91, Type (0, 0), BuildingBlock: KIFKEQ_clean_linker_1, # of connection points: 2
#     Edge 92, Type (0, 0), BuildingBlock: KIFKEQ_clean_linker_1, # of connection points: 2
#     Edge 93, Type (0, 0), BuildingBlock: KIFKEQ_clean_linker_1, # of connection points: 2
#     Edge 94, Type (0, 0), BuildingBlock: KIFKEQ_clean_linker_1, # of connection points: 2
#     Edge 95, Type (0, 0), BuildingBlock: KIFKEQ_clean_linker_1, # of connection points: 2
#     Edge 96, Type (0, 0), BuildingBlock: KIFKEQ_clean_linker_1, # of connection points: 2
#     Edge 97, Type (0, 0), BuildingBlock: KIFKEQ_clean_linker_1, # of connection points: 2
#     Edge 98, Type (0, 0), BuildingBlock: KIFKEQ_clean_linker_1, # of connection points: 2
#     Edge 99, Type (0, 0), BuildingBlock: KIFKEQ_clean_linker_1, # of connection points: 2
#     Edge 100, Type (0, 0), BuildingBlock: KIFKEQ_clean_linker_1, # of connection points: 2
#     Edge 101, Type (0, 0), BuildingBlock: KIFKEQ_clean_linker_1, # of connection points: 2
#     Edge 102, Type (0, 0), BuildingBlock: KIFKEQ_clean_linker_1, # of connection points: 2
#     Edge 103, Type (0, 0), BuildingBlock: KIFKEQ_clean_linker_1, # of connection points: 2
#     Edge 104, Type (0, 0), BuildingBlock: KIFKEQ_clean_linker_1, # of connection points: 2
#     Edge 105, Type (0, 0), BuildingBlock: KIFKEQ_clean_linker_1, # of connection points: 2
#     Edge 106, Type (0, 0), BuildingBlock: KIFKEQ_clean_linker_1, # of connection points: 2
#     Edge 107, Type (0, 0), BuildingBlock: KIFKEQ_clean_linker_1, # of connection points: 2
# Relax obj value: 0.035
# Max RMSD: 0.166
# Mean RMSD: 0.166
data_MOF--net-uns--node1-QUQFOY_clean_sbu_1--edge1-KIFKEQ_clean_linker_1
_symmetry_space_group_name_H-M    P1
_symmetry_Int_Tables_number       1
_symmetry_cell_setting            triclinic
loop_
_symmetry_equiv_pos_as_xyz
'x, y, z'
_cell_length_a     53.615946
_cell_length_b     53.586804
_cell_length_c     66.82709
_cell_angle_alpha  89.996022
_cell_angle_beta   89.951464
_cell_angle_gamma 119.93903
loop_
_atom_site_label
_atom_site_type_symbol
_atom_site_fract_x
_atom_site_fract_y
_atom_site_fract_z
_atom_type_partial_charge
O0 O 0.28394 0.21189 0.05273 0.0
Cd1 Cd 0.31112 0.19617 0.0594 0.0
Cd2 Cd 0.29533 0.20188 0.0964 0.0
O3 O 0.26285 0.20575 0.08209 0.0
O4 O 0.31069 0.17416 0.03511 0.0
O5 O 0.29364 0.1537 0.06457 0.0
C6 C 0.29763 0.15103 0.04578 0.0
C7 C 0.29351 0.17703 0.12544 0.0
C8 C 0.26483 0.21256 0.06363 0.0
C9 C 0.35657 0.24171 0.08362 0.0
O10 O 0.33574 0.23694 0.09503 0.0
O11 O 0.35269 0.22623 0.06823 0.0
O12 O 0.28867 0.19832 0.12591 0.0
O13 O 0.29544 0.16738 0.10811 0.0
O14 O 0.80386 0.07527 0.06075 0.0
Cd15 Cd 0.8163 0.11777 0.06681 0.0
Cd16 Cd 0.8111 0.09718 0.10435 0.0
O17 O 0.8087 0.06113 0.09083 0.0
O18 O 0.83662 0.13905 0.04201 0.0
O19 O 0.85848 0.14533 0.07121 0.0
C20 C 0.86013 0.15097 0.05228 0.0
C21 C 0.83428 0.12121 0.13347 0.0
C22 C 0.8034 0.05611 0.07222 0.0
C23 C 0.76907 0.11539 0.09084 0.0
O24 O 0.77497 0.10034 0.10244 0.0
O25 O 0.78433 0.12704 0.07533 0.0
O26 O 0.8141 0.09461 0.13393 0.0
O27 O 0.8441 0.13283 0.11617 0.0
O28 O 0.93453 0.72119 0.05158 0.0
Cd29 Cd 0.89169 0.69357 0.05813 0.0
Cd30 Cd 0.91332 0.71113 0.09563 0.0
O31 O 0.94923 0.74315 0.08071 0.0
O32 O 0.86988 0.69367 0.03392 0.0
O33 O 0.86659 0.71091 0.06334 0.0
C34 C 0.85981 0.70677 0.04457 0.0
C35 C 0.89562 0.71342 0.12705 0.0
C36 C 0.9541 0.74074 0.06233 0.0
C37 C 0.89199 0.64905 0.08294 0.0
O38 O 0.90726 0.67048 0.09409 0.0
O39 O 0.88068 0.65214 0.0671 0.0
O40 O 0.92115 0.71716 0.1249 0.0
O41 O 0.88175 0.71271 0.11104 0.0
O42 O 0.21622 0.2874 0.50214 0.0
Cd43 Cd 0.20102 0.31515 0.49583 0.0
Cd44 Cd 0.20549 0.29784 0.45801 0.0
O45 O 0.20926 0.26573 0.4729 0.0
O46 O 0.17979 0.31519 0.52041 0.0
O47 O 0.1585 0.29813 0.49122 0.0
C48 C 0.15637 0.30227 0.51007 0.0
C49 C 0.18636 0.29543 0.42624 0.0
C50 C 0.21636 0.26795 0.4913 0.0
C51 C 0.24598 0.35987 0.47116 0.0
O52 O 0.23985 0.33858 0.45986 0.0
O53 O 0.23149 0.35661 0.487 0.0
O54 O 0.2083 0.29205 0.42881 0.0
O55 O 0.17265 0.29596 0.44201 0.0
O56 O 0.73056 0.93628 0.49935 0.0
Cd57 Cd 0.70202 0.89374 0.49227 0.0
Cd58 Cd 0.71536 0.91578 0.455 0.0
O59 O 0.7479 0.95208 0.46907 0.0
O60 O 0.70187 0.87003 0.51547 0.0
O61 O 0.71951 0.86916 0.48569 0.0
C62 C 0.71504 0.86077 0.50414 0.0
C63 C 0.71632 0.89246 0.42596 0.0
C64 C 0.74817 0.95631 0.48787 0.0
C65 C 0.65503 0.89401 0.46916 0.0
O66 O 0.67501 0.91008 0.45722 0.0
O67 O 0.66012 0.88281 0.48428 0.0
O68 O 0.72104 0.91854 0.42541 0.0
O69 O 0.71512 0.88118 0.4433 0.0
O70 O 0.07978 0.7962 0.50338 0.0
Cd71 Cd 0.1227 0.81102 0.4975 0.0
Cd72 Cd 0.10278 0.80619 0.45998 0.0
O73 O 0.06641 0.80317 0.47367 0.0
O74 O 0.14388 0.83302 0.52188 0.0
O75 O 0.14821 0.85335 0.49225 0.0
C76 C 0.15442 0.85609 0.51111 0.0
C77 C 0.1262 0.83033 0.4308 0.0
C78 C 0.06073 0.79621 0.49205 0.0
C79 C 0.12239 0.76509 0.47361 0.0
O80 O 0.10724 0.7706 0.46182 0.0
O81 O 0.13362 0.78028 0.48916 0.0
O82 O 0.09998 0.80935 0.43039 0.0
O83 O 0.13778 0.84009 0.44811 0.0
O84 O 0.73465 0.80078 0.99615 0.0
Cd85 Cd 0.70541 0.8149 0.99269 0.0
Cd86 Cd 0.71478 0.80478 0.95192 0.0
O87 O 0.74599 0.79752 0.96476 0.0
O88 O 0.70879 0.83619 1.01804 0.0
O89 O 0.72044 0.85728 0.98835 0.0
C90 C 0.71921 0.85948 1.00755 0.0
C91 C 0.71555 0.82078 0.91917 0.0
C92 C 0.74917 0.79552 0.98349 0.0
C93 C 0.65497 0.76934 0.97144 0.0
O94 O 0.67303 0.77467 0.95753 0.0
O95 O 0.66262 0.78364 0.98767 0.0
O96 O 0.71503 0.79692 0.92272 0.0
O97 O 0.7193 0.83744 0.93422 0.0
O98 O 0.21165 0.93345 0.99506 0.0
Cd99 Cd 0.19812 0.89087 0.98838 0.0
Cd100 Cd 0.20245 0.91116 0.95112 0.0
O101 O 0.20564 0.94727 0.96513 0.0
O102 O 0.17547 0.86717 1.01187 0.0
O103 O 0.15605 0.8661 0.98242 0.0
C104 C 0.15271 0.85785 1.0009 0.0
C105 C 0.17814 0.88686 0.92238 0.0
C106 C 0.21179 0.95254 0.98364 0.0
C107 C 0.24426 0.89235 0.96348 0.0
O108 O 0.23846 0.90778 0.95219 0.0
O109 O 0.22926 0.88073 0.97908 0.0
O110 O 0.19825 0.91348 0.92161 0.0
O111 O 0.16899 0.87545 0.93982 0.0
O112 O 0.0757 0.28327 0.99743 0.0
Cd113 Cd 0.11821 0.31108 0.99 0.0
Cd114 Cd 0.09658 0.29484 0.95282 0.0
O115 O 0.06014 0.26365 0.96765 0.0
O116 O 0.14218 0.31195 1.01328 0.0
O117 O 0.14182 0.29239 0.98403 0.0
C118 C 0.15056 0.29759 1.00238 0.0
C119 C 0.11923 0.29131 0.9242 0.0
C120 C 0.05578 0.26482 0.9863 0.0
C121 C 0.11848 0.35637 0.96441 0.0
O122 O 0.10272 0.33547 0.95301 0.0
O123 O 0.12926 0.35243 0.98024 0.0
O124 O 0.09325 0.28682 0.92352 0.0
O125 O 0.13072 0.29368 0.94161 0.0
O126 O 0.79616 0.72251 0.55329 0.0
Cd127 Cd 0.81282 0.69634 0.56093 0.0
Cd128 Cd 0.80597 0.712 0.59724 0.0
O129 O 0.80365 0.74486 0.58227 0.0
O130 O 0.83705 0.6965 0.53803 0.0
O131 O 0.85496 0.71662 0.56739 0.0
C132 C 0.8593 0.71151 0.54919 0.0
C133 C 0.83002 0.71283 0.62636 0.0
C134 C 0.79631 0.74231 0.5639 0.0
C135 C 0.76715 0.651 0.58534 0.0
O136 O 0.77032 0.6721 0.59581 0.0
O137 O 0.78399 0.65478 0.57079 0.0
O138 O 0.8095 0.71882 0.62673 0.0
O139 O 0.83955 0.71048 0.60909 0.0
O140 O 0.28196 0.07503 0.55893 0.0
Cd141 Cd 0.31134 0.11784 0.56412 0.0
Cd142 Cd 0.30057 0.09901 0.60265 0.0
O143 O 0.26766 0.06131 0.59006 0.0
O144 O 0.31007 0.13975 0.54028 0.0
O145 O 0.29522 0.14366 0.57043 0.0
C146 C 0.29823 0.15041 0.55165 0.0
C147 C 0.30047 0.12284 0.63176 0.0
C148 C 0.26569 0.05577 0.57138 0.0
C149 C 0.35985 0.1191 0.58603 0.0
O150 O 0.34106 0.10535 0.59933 0.0
O151 O 0.35351 0.12813 0.57031 0.0
O152 O 0.29659 0.09708 0.63241 0.0
O153 O 0.30058 0.13355 0.61439 0.0
O154 O 0.9391 0.21055 0.56274 0.0
Cd155 Cd 0.89603 0.19674 0.56766 0.0
Cd156 Cd 0.91734 0.2058 0.60746 0.0
O157 O 0.95494 0.2124 0.5936 0.0
O158 O 0.87645 0.17566 0.54261 0.0
O159 O 0.86878 0.15439 0.57217 0.0
C160 C 0.86411 0.15232 0.55309 0.0
C161 C 0.9022 0.18855 0.63996 0.0
C162 C 0.95931 0.21501 0.57476 0.0
C163 C 0.89322 0.24261 0.59021 0.0
O164 O 0.90688 0.23708 0.60328 0.0
O165 O 0.88503 0.22814 0.57406 0.0
O166 O 0.926 0.21205 0.63668 0.0
O167 O 0.88877 0.17279 0.62467 0.0
O168 O 0.95161 0.55344 0.38454 0.0
Cd169 Cd 0.97749 0.53689 0.39361 0.0
Cd170 Cd 0.96333 0.54886 0.42832 0.0
O171 O 0.92915 0.54812 0.41322 0.0
O172 O 0.97824 0.51251 0.37113 0.0
O173 O 0.95704 0.49465 0.40021 0.0
C174 C 0.96293 0.49026 0.38225 0.0
C175 C 0.96585 0.52577 0.45694 0.0
C176 C 0.9317 0.554 0.39459 0.0
C177 C 0.02313 0.58574 0.41573 0.0
O178 O 1.00212 0.58533 0.42473 0.0
O179 O 0.01904 0.56568 0.40367 0.0
O180 O 0.95842 0.54527 0.458 0.0
O181 O 0.96786 0.51671 0.43939 0.0
O182 O 0.46564 0.40769 0.3923 0.0
Cd183 Cd 0.4811 0.45023 0.4002 0.0
Cd184 Cd 0.48049 0.42796 0.43532 0.0
O185 O 0.47887 0.39382 0.41936 0.0
O186 O 0.50059 0.473 0.37562 0.0
O187 O 0.52392 0.47515 0.40351 0.0
C188 C 0.52472 0.48251 0.38499 0.0
C189 C 0.50698 0.45279 0.46326 0.0
C190 C 0.46877 0.38874 0.40163 0.0
C191 C 0.43698 0.44616 0.42791 0.0
O192 O 0.44297 0.42884 0.43673 0.0
O193 O 0.45177 0.46054 0.41286 0.0
O194 O 0.48806 0.42574 0.4643 0.0
O195 O 0.51379 0.46456 0.44573 0.0
O196 O 0.60012 0.05601 0.3901 0.0
Cd197 Cd 0.55722 0.02746 0.39558 0.0
Cd198 Cd 0.5786 0.04155 0.43461 0.0
O199 O 0.61524 0.0739 0.42033 0.0
O200 O 0.53685 0.02817 0.37072 0.0
O201 O 0.53057 0.04325 0.40014 0.0
C202 C 0.52518 0.03991 0.38116 0.0
C203 C 0.56159 0.04324 0.46652 0.0
C204 C 0.61994 0.07377 0.40161 0.0
C205 C 0.55608 0.98042 0.41872 0.0
O206 O 0.57037 1.00022 0.43127 0.0
O207 O 0.54651 0.98556 0.40278 0.0
O208 O 0.58637 0.0453 0.46398 0.0
O209 O 0.54812 0.04422 0.45077 0.0
O210 O 0.87619 0.61003 0.83011 0.0
Cd211 Cd 0.86166 0.63855 0.8243 0.0
Cd212 Cd 0.87021 0.62528 0.78519 0.0
O213 O 0.87628 0.59421 0.79952 0.0
O214 O 0.83961 0.63801 0.84862 0.0
O215 O 0.81921 0.62153 0.81915 0.0
C216 C 0.81649 0.6254 0.83796 0.0
C217 C 0.85254 0.62305 0.75288 0.0
C218 C 0.87982 0.59342 0.81834 0.0
C219 C 0.90727 0.68652 0.80118 0.0
O220 O 0.9021 0.66685 0.7886 0.0
O221 O 0.89252 0.68087 0.81717 0.0
O222 O 0.87563 0.62187 0.75598 0.0
O223 O 0.8372 0.6214 0.7683 0.0
O224 O 0.39226 0.27498 0.8321 0.0
Cd225 Cd 0.36711 0.23271 0.82269 0.0
Cd226 Cd 0.38448 0.25918 0.78727 0.0
O227 O 0.41555 0.29352 0.80385 0.0
O228 O 0.36562 0.20782 0.84549 0.0
O229 O 0.38785 0.21087 0.81691 0.0
C230 C 0.38137 0.20081 0.83493 0.0
C231 C 0.38813 0.24114 0.75644 0.0
C232 C 0.41204 0.29609 0.82246 0.0
C233 C 0.32233 0.23367 0.79797 0.0
O234 O 0.34373 0.25285 0.78839 0.0
O235 O 0.32584 0.2198 0.81208 0.0
O236 O 0.39194 0.26681 0.75809 0.0
O237 O 0.38655 0.22738 0.77273 0.0
O238 O 0.74444 0.12871 0.84009 0.0
Cd239 Cd 0.78704 0.14237 0.83386 0.0
Cd240 Cd 0.76702 0.13844 0.79646 0.0
O241 O 0.73135 0.13649 0.81052 0.0
O242 O 0.8091 0.16391 0.85811 0.0
O243 O 0.8132 0.18456 0.82864 0.0
C244 C 0.81987 0.18707 0.84741 0.0
C245 C 0.79067 0.16277 0.76743 0.0
C246 C 0.72569 0.12954 0.82891 0.0
C247 C 0.7854 0.09619 0.80936 0.0
O248 O 0.77043 0.10219 0.79776 0.0
O249 O 0.7969 0.1111 0.82498 0.0
O250 O 0.76421 0.14226 0.76696 0.0
O251 O 0.80241 0.17203 0.78475 0.0
O252 O 0.39792 0.13035 0.32948 0.0
Cd253 Cd 0.36963 0.14535 0.32481 0.0
Cd254 Cd 0.37738 0.13183 0.28488 0.0
O255 O 0.40849 0.12484 0.29833 0.0
O256 O 0.37288 0.16853 0.34915 0.0
O257 O 0.38664 0.18768 0.31903 0.0
C258 C 0.38464 0.19121 0.33799 0.0
C259 C 0.37834 0.14803 0.25221 0.0
C260 C 0.41195 0.12394 0.31715 0.0
C261 C 0.31808 0.099 0.30471 0.0
O262 O 0.33547 0.10233 0.29075 0.0
O263 O 0.32653 0.11469 0.3203 0.0
O264 O 0.3776 0.12402 0.25568 0.0
O265 O 0.38225 0.16468 0.26731 0.0
O266 O 0.87955 0.26998 0.3348 0.0
Cd267 Cd 0.86386 0.2271 0.3276 0.0
Cd268 Cd 0.86792 0.24929 0.29047 0.0
O269 O 0.87128 0.28453 0.3059 0.0
O270 O 0.84113 0.20328 0.35101 0.0
O271 O 0.8215 0.20369 0.32195 0.0
C272 C 0.81826 0.19482 0.34028 0.0
C273 C 0.84857 0.23251 0.25881 0.0
C274 C 0.87902 0.28946 0.32419 0.0
C275 C 0.90833 0.22755 0.30206 0.0
O276 O 0.90289 0.24393 0.29155 0.0
O277 O 0.89344 0.2154 0.31758 0.0
O278 O 0.86997 0.25815 0.26137 0.0
O279 O 0.83529 0.21797 0.2746 0.0
O280 O 0.73656 0.61187 0.32342 0.0
Cd281 Cd 0.77851 0.63991 0.31433 0.0
Cd282 Cd 0.75466 0.61879 0.27927 0.0
O283 O 0.72095 0.58665 0.29548 0.0
O284 O 0.80449 0.64477 0.33742 0.0
O285 O 0.80262 0.62142 0.30965 0.0
C286 C 0.81265 0.62937 0.32752 0.0
C287 C 0.7805 0.61845 0.25156 0.0
C288 C 0.71703 0.59061 0.31375 0.0
C289 C 0.77268 0.67981 0.28667 0.0
O290 O 0.75469 0.65655 0.2782 0.0
O291 O 0.78776 0.67928 0.30123 0.0
O292 O 0.75328 0.60949 0.25023 0.0
O293 O 0.79183 0.62325 0.26921 0.0
O294 O 0.46343 0.06581 0.88965 0.0
Cd295 Cd 0.47968 0.03961 0.89855 0.0
Cd296 Cd 0.4738 0.05852 0.93395 0.0
O297 O 0.4719 0.09055 0.91766 0.0
O298 O 0.50341 0.03791 0.87605 0.0
O299 O 0.52187 0.05973 0.90488 0.0
C300 C 0.52586 0.05328 0.88695 0.0
C301 C 0.49399 0.06029 0.96506 0.0
C302 C 0.46418 0.08663 0.89936 0.0
C303 C 0.43438 0.99656 0.92407 0.0
O304 O 0.43794 0.0189 0.93308 0.0
O305 O 0.45094 0.99876 0.90971 0.0
O306 O 0.47347 0.06606 0.9631 0.0
O307 O 0.50615 0.05811 0.94894 0.0
O308 O 0.94803 0.40619 0.89407 0.0
Cd309 Cd 0.97815 0.44934 0.89672 0.0
Cd310 Cd 0.97137 0.43073 0.93783 0.0
O311 O 0.93922 0.39215 0.92573 0.0
O312 O 0.97407 0.46688 0.87138 0.0
O313 O 0.96439 0.47773 0.90125 0.0
C314 C 0.96478 0.48064 0.88202 0.0
C315 C 0.97231 0.44695 0.9705 0.0
C316 C 0.93446 0.38669 0.9071 0.0
C317 C 0.02962 0.45387 0.91648 0.0
O318 O 0.01276 0.44201 0.93112 0.0
O319 O 0.02087 0.45978 0.90044 0.0
O320 O 0.97246 0.4234 0.96702 0.0
O321 O 0.96798 0.45953 0.9555 0.0
O322 O 0.60266 0.54809 0.89738 0.0
Cd323 Cd 0.56063 0.53252 0.90696 0.0
Cd324 Cd 0.58564 0.53464 0.94131 0.0
O325 O 0.61837 0.53573 0.92397 0.0
O326 O 0.53483 0.51169 0.88385 0.0
O327 O 0.53734 0.48973 0.91121 0.0
C328 C 0.52718 0.48796 0.89339 0.0
C329 C 0.56582 0.51168 0.97152 0.0
C330 C 0.62223 0.54526 0.90608 0.0
C331 C 0.56624 0.5773 0.93458 0.0
O332 O 0.5847 0.5721 0.94239 0.0
O333 O 0.55052 0.56166 0.9203 0.0
O334 O 0.59256 0.53134 0.97022 0.0
O335 O 0.55154 0.50192 0.95505 0.0
O336 O 0.6211 0.88273 0.71897 0.0
Cd337 Cd 0.64877 0.86782 0.72638 0.0
Cd338 Cd 0.63152 0.87204 0.76305 0.0
O339 O 0.59869 0.87434 0.74802 0.0
O340 O 0.65029 0.84485 0.70324 0.0
O341 O 0.63033 0.82564 0.73242 0.0
C342 C 0.63606 0.82214 0.71418 0.0
C343 C 0.62986 0.84704 0.79194 0.0
C344 C 0.60104 0.88185 0.72969 0.0
C345 C 0.69257 0.91339 0.75169 0.0
O346 O 0.67111 0.90823 0.76253 0.0
O347 O 0.68965 0.89803 0.73641 0.0
O348 O 0.62369 0.86743 0.79242 0.0
O349 O 0.633 0.83821 0.77461 0.0
O350 O 0.12689 0.73894 0.72277 0.0
Cd351 Cd 0.14285 0.78078 0.7329 0.0
Cd352 Cd 0.139 0.75452 0.7669 0.0
O353 O 0.13821 0.72221 0.74932 0.0
O354 O 0.16566 0.80741 0.71058 0.0
O355 O 0.18534 0.80264 0.73839 0.0
C356 C 0.18859 0.81378 0.72074 0.0
C357 C 0.16081 0.77348 0.79747 0.0
C358 C 0.12923 0.71896 0.73132 0.0
C359 C 0.09754 0.77519 0.75999 0.0
O360 O 0.10183 0.75596 0.76752 0.0
O361 O 0.11389 0.79132 0.74609 0.0
O362 O 0.14116 0.74678 0.7958 0.0
O363 O 0.1713 0.78813 0.7812 0.0
O364 O 0.27502 0.40089 0.72186 0.0
Cd365 Cd 0.23179 0.37105 0.72464 0.0
Cd366 Cd 0.25049 0.3781 0.76567 0.0
O367 O 0.28916 0.40995 0.75346 0.0
O368 O 0.21455 0.37527 0.69924 0.0
O369 O 0.20358 0.38507 0.72904 0.0
C370 C 0.20083 0.38469 0.7098 0.0
C371 C 0.23443 0.37771 0.79831 0.0
C372 C 0.29458 0.41451 0.73481 0.0
C373 C 0.22668 0.3195 0.74465 0.0
O374 O 0.23872 0.33649 0.75919 0.0
O375 O 0.22088 0.32819 0.72854 0.0
O376 O 0.25774 0.37709 0.79488 0.0
O377 O 0.22203 0.38218 0.78326 0.0
O378 O 0.5409 0.94503 0.1597 0.0
Cd379 Cd 0.52821 0.97458 0.15229 0.0
Cd380 Cd 0.53104 0.95607 0.11602 0.0
O381 O 0.5317 0.92229 0.13071 0.0
O382 O 0.50809 0.97858 0.17629 0.0
O383 O 0.48579 0.95804 0.14802 0.0
C384 C 0.48432 0.96477 0.1664 0.0
C385 C 0.50639 0.95789 0.08808 0.0
C386 C 0.53903 0.92447 0.14906 0.0
C387 C 0.57483 0.01619 0.12613 0.0
O388 O 0.56892 0.99374 0.11623 0.0
O389 O 0.5594 0.01467 0.1411 0.0
O390 O 0.52463 0.94889 0.08669 0.0
O391 O 0.49897 0.96153 0.10579 0.0
O392 O 0.06553 0.60618 0.16665 0.0
Cd393 Cd 0.03863 0.56381 0.1582 0.0
Cd394 Cd 0.06096 0.58683 0.12335 0.0
O395 O 0.09288 0.62076 0.13969 0.0
O396 O 0.03496 0.53981 0.1822 0.0
O397 O 0.05684 0.5393 0.15418 0.0
C398 C 0.04978 0.53081 0.17246 0.0
C399 C 0.0631 0.56184 0.09565 0.0
C400 C 0.08763 0.6254 0.15749 0.0
C401 C 0.99913 0.56804 0.12994 0.0
O402 O 0.02257 0.58582 0.12151 0.0
O403 O 0.99935 0.5535 0.14496 0.0
O404 O 0.07123 0.5889 0.09445 0.0
O405 O 0.05798 0.55024 0.11323 0.0
O406 O 0.40675 0.4565 0.16997 0.0
Cd407 Cd 0.44945 0.4715 0.16299 0.0
Cd408 Cd 0.42707 0.46445 0.12635 0.0
O409 O 0.39197 0.46321 0.14074 0.0
O410 O 0.47151 0.49338 0.18718 0.0
O411 O 0.47455 0.51395 0.15786 0.0
C412 C 0.48148 0.51656 0.17658 0.0
C413 C 0.45153 0.48818 0.09743 0.0
C414 C 0.38722 0.4566 0.15922 0.0
C415 C 0.44733 0.42424 0.13947 0.0
O416 O 0.43027 0.42819 0.12855 0.0
O417 O 0.46052 0.44107 0.15398 0.0
O418 O 0.42487 0.46813 0.09675 0.0
O419 O 0.463 0.49743 0.11484 0.0
O420 O 0.06814 0.46792 0.6546 0.0
Cd421 Cd 0.03991 0.48226 0.64698 0.0
Cd422 Cd 0.05788 0.4776 0.61028 0.0
O423 O 0.08971 0.4739 0.62535 0.0
O424 O 0.03741 0.50336 0.67086 0.0
O425 O 0.05759 0.52485 0.64227 0.0
C426 C 0.05148 0.52689 0.66072 0.0
C427 C 0.06025 0.49989 0.57987 0.0
C428 C 0.08763 0.46759 0.6439 0.0
C429 C 0.99624 0.43666 0.62145 0.0
O430 O 0.01809 0.44207 0.611 0.0
O431 O 0.99891 0.45191 0.63677 0.0
O432 O 0.06501 0.4786 0.58096 0.0
O433 O 0.05842 0.51131 0.59645 0.0
O434 O 0.55523 0.60251 0.667 0.0
Cd435 Cd 0.53993 0.55932 0.66181 0.0
Cd436 Cd 0.54903 0.58064 0.62254 0.0
O437 O 0.55383 0.61764 0.63648 0.0
O438 O 0.5175 0.53921 0.68634 0.0
O439 O 0.49765 0.53365 0.65644 0.0
C440 C 0.49462 0.52809 0.67541 0.0
C441 C 0.53172 0.5648 0.5902 0.0
C442 C 0.55816 0.62244 0.65521 0.0
C443 C 0.58553 0.5563 0.63968 0.0
O444 O 0.58098 0.57092 0.62679 0.0
O445 O 0.57034 0.54725 0.65547 0.0
O446 O 0.55481 0.58907 0.59327 0.0
O447 O 0.51631 0.55124 0.60562 0.0
O448 O 0.4058 0.9484 0.66686 0.0
Cd449 Cd 0.44826 0.97497 0.65869 0.0
Cd450 Cd 0.42486 0.95896 0.62237 0.0
O451 O 0.38953 0.9268 0.63779 0.0
O452 O 0.47272 0.97579 0.68159 0.0
O453 O 0.47121 0.95566 0.65236 0.0
C454 C 0.48068 0.96124 0.67053 0.0
C455 C 0.44778 0.95707 0.59333 0.0
C456 C 0.38556 0.92908 0.65637 0.0
C457 C 0.44746 0.02028 0.63429 0.0
O458 O 0.43007 0.99931 0.62352 0.0
O459 O 0.45998 0.01638 0.64911 0.0
O460 O 0.42145 0.95163 0.59291 0.0
O461 O 0.45956 0.95946 0.61063 0.0
O462 O 0.13123 0.39705 0.22744 0.0
Cd463 Cd 0.14492 0.36832 0.235 0.0
Cd464 Cd 0.14135 0.3864 0.27158 0.0
O465 O 0.13831 0.41878 0.25673 0.0
O466 O 0.16699 0.36581 0.21162 0.0
O467 O 0.18719 0.38607 0.24048 0.0
C468 C 0.19005 0.37999 0.22219 0.0
C469 C 0.16652 0.38751 0.30013 0.0
C470 C 0.13163 0.4168 0.23827 0.0
C471 C 0.09928 0.32533 0.26124 0.0
O472 O 0.10497 0.34735 0.27159 0.0
O473 O 0.11427 0.32767 0.24581 0.0
O474 O 0.14667 0.39443 0.30088 0.0
O475 O 0.17494 0.3842 0.28269 0.0
O476 O 0.60602 0.7358 0.2248 0.0
Cd477 Cd 0.63512 0.77917 0.22836 0.0
Cd478 Cd 0.62552 0.75986 0.26883 0.0
O479 O 0.5943 0.7213 0.25617 0.0
O480 O 0.63153 0.79723 0.20316 0.0
O481 O 0.62002 0.80643 0.233 0.0
C482 C 0.62116 0.81001 0.21381 0.0
C483 C 0.62513 0.77593 0.30133 0.0
C484 C 0.59136 0.71606 0.23744 0.0
C485 C 0.68544 0.78405 0.24967 0.0
O486 O 0.66721 0.77116 0.26344 0.0
O487 O 0.67797 0.79087 0.23342 0.0
O488 O 0.62527 0.75232 0.2981 0.0
O489 O 0.62133 0.78855 0.28611 0.0
O490 O 0.27072 0.88619 0.22625 0.0
Cd491 Cd 0.22815 0.86864 0.23465 0.0
Cd492 Cd 0.2536 0.87848 0.27136 0.0
O493 O 0.28903 0.88331 0.25516 0.0
O494 O 0.20491 0.8451 0.21137 0.0
O495 O 0.20632 0.82609 0.24044 0.0
C496 C 0.19751 0.82242 0.2221 0.0
C497 C 0.23822 0.85875 0.30313 0.0
C498 C 0.2919 0.88872 0.23645 0.0
C499 C 0.22656 0.91379 0.25847 0.0
O500 O 0.24441 0.91108 0.26934 0.0
O501 O 0.21465 0.8972 0.24363 0.0
O502 O 0.26286 0.88161 0.30045 0.0
O503 O 0.22412 0.84473 0.28742 0.0
H504 H 0.32095 0.14577 0.12874 0.0
H505 H 0.28647 0.18897 0.16413 0.0
H506 H 0.34386 0.13994 0.15841 0.0
H507 H 0.30838 0.18217 0.19401 0.0
H508 H 0.37565 0.19549 0.23978 0.0
H509 H 0.35416 0.20062 0.20901 0.0
H510 H 0.33838 0.11712 0.18937 0.0
H511 H 0.36088 0.11263 0.21962 0.0
C512 C 0.31754 0.15328 0.14297 0.0
C513 C 0.30184 0.16783 0.14403 0.0
C514 C 0.33081 0.15003 0.16005 0.0
C515 C 0.32849 0.16101 0.17868 0.0
C516 C 0.31142 0.17416 0.17988 0.0
C517 C 0.29842 0.17766 0.16277 0.0
C518 C 0.36815 0.17853 0.22869 0.0
C519 C 0.37007 0.15369 0.23221 0.0
C520 C 0.35539 0.18124 0.21114 0.0
C521 C 0.34395 0.15905 0.19674 0.0
C522 C 0.34702 0.13478 0.19994 0.0
C523 C 0.36 0.1322 0.21738 0.0
H524 H 0.85833 0.17955 0.13605 0.0
H525 H 0.82471 0.10285 0.17236 0.0
H526 H 0.85959 0.20725 0.16521 0.0
H527 H 0.82736 0.13077 0.20186 0.0
H528 H 0.80584 0.17858 0.24763 0.0
H529 H 0.80397 0.15268 0.21713 0.0
H530 H 0.88047 0.22806 0.19541 0.0
H531 H 0.88128 0.25416 0.22522 0.0
C532 C 0.8521 0.16878 0.15041 0.0
C533 C 0.84148 0.13898 0.15186 0.0
C534 C 0.85271 0.18468 0.16722 0.0
C535 C 0.84313 0.17131 0.18602 0.0
C536 C 0.83408 0.14177 0.18761 0.0
C537 C 0.83304 0.12579 0.17073 0.0
C538 C 0.82178 0.1898 0.23609 0.0
C539 C 0.84363 0.21848 0.2389 0.0
C540 C 0.82106 0.1748 0.2187 0.0
C541 C 0.84243 0.18796 0.20381 0.0
C542 C 0.86347 0.21709 0.20632 0.0
C543 C 0.86392 0.23217 0.22352 0.0
H544 H 0.76372 0.60795 0.21232 0.0
H545 H 0.8388 0.6535 0.24979 0.0
H546 H 0.79254 0.63267 0.18298 0.0
H547 H 0.86732 0.67921 0.22073 0.0
H548 H 0.91634 0.70304 0.1614 0.0
H549 H 0.88936 0.67813 0.19107 0.0
H550 H 0.81433 0.67808 0.16737 0.0
H551 H 0.84116 0.70186 0.13709 0.0
C552 C 0.78649 0.62294 0.21426 0.0
C553 C 0.79894 0.62861 0.23342 0.0
C554 C 0.80297 0.63755 0.19746 0.0
C555 C 0.83227 0.65851 0.19939 0.0
C556 C 0.84495 0.66316 0.21848 0.0
C557 C 0.82855 0.64828 0.23523 0.0
C558 C 0.89423 0.69822 0.16262 0.0
C559 C 0.88094 0.70445 0.14677 0.0
C560 C 0.87866 0.68383 0.17974 0.0
C561 C 0.84939 0.67555 0.18165 0.0
C562 C 0.83657 0.68331 0.16627 0.0
C563 C 0.85209 0.69743 0.149 0.0
H564 H 0.21872 0.30657 0.39244 0.0
H565 H 0.14277 0.30545 0.4152 0.0
H566 H 0.21669 0.33082 0.3624 0.0
H567 H 0.13976 0.32851 0.38453 0.0
H568 H 0.15831 0.39765 0.33903 0.0
H569 H 0.16245 0.37368 0.36877 0.0
H570 H 0.1944 0.329 0.33229 0.0
H571 H 0.19156 0.35406 0.30283 0.0
C572 C 0.20103 0.31074 0.39079 0.0
C573 C 0.18092 0.30407 0.40632 0.0
C574 C 0.19987 0.32475 0.37346 0.0
C575 C 0.17832 0.33217 0.371 0.0
C576 C 0.1572 0.32396 0.38606 0.0
C577 C 0.15859 0.31025 0.40355 0.0
C578 C 0.1669 0.38324 0.33747 0.0
C579 C 0.17474 0.37792 0.31855 0.0
C580 C 0.1688 0.36905 0.35449 0.0
C581 C 0.1782 0.34882 0.35303 0.0
C582 C 0.18725 0.34451 0.33418 0.0
C583 C 0.18573 0.35903 0.31721 0.0
H584 H 0.64305 0.7583 0.33381 0.0
H585 H 0.62923 0.82689 0.31332 0.0
H586 H 0.66716 0.78599 0.36343 0.0
H587 H 0.65227 0.85424 0.34356 0.0
H588 H 0.722 0.91059 0.38711 0.0
H589 H 0.69851 0.88128 0.35774 0.0
H590 H 0.66367 0.80449 0.39424 0.0
H591 H 0.68822 0.83377 0.42333 0.0
C592 C 0.64445 0.77902 0.33587 0.0
C593 C 0.6342 0.79036 0.32111 0.0
C594 C 0.65837 0.79498 0.35296 0.0
C595 C 0.66217 0.82266 0.3559 0.0
C596 C 0.65051 0.83336 0.34161 0.0
C597 C 0.63684 0.81748 0.32438 0.0
C598 C 0.70987 0.88739 0.38875 0.0
C599 C 0.70712 0.87455 0.40757 0.0
C600 C 0.69595 0.87056 0.37195 0.0
C601 C 0.67859 0.84043 0.37357 0.0
C602 C 0.67693 0.82754 0.39227 0.0
C603 C 0.69114 0.84437 0.40901 0.0
H604 H 0.10717 0.82041 0.39211 0.0
H605 H 0.1848 0.85843 0.42753 0.0
H606 H 0.1354 0.82662 0.36203 0.0
H607 H 0.21297 0.86341 0.3977 0.0
H608 H 0.2582 0.89122 0.33699 0.0
H609 H 0.23175 0.88669 0.3675 0.0
H610 H 0.16039 0.80708 0.34562 0.0
H611 H 0.1865 0.81251 0.31453 0.0
C612 C 0.13034 0.83042 0.39343 0.0
C613 C 0.14372 0.83907 0.41222 0.0
C614 C 0.14655 0.83355 0.37621 0.0
C615 C 0.17655 0.84502 0.37733 0.0
C616 C 0.19001 0.8547 0.39607 0.0
C617 C 0.17383 0.85193 0.41325 0.0
C618 C 0.23706 0.87244 0.33879 0.0
C619 C 0.22448 0.85225 0.32322 0.0
C620 C 0.22179 0.86983 0.35639 0.0
C621 C 0.19361 0.84674 0.35908 0.0
C622 C 0.18168 0.82564 0.34394 0.0
C623 C 0.19685 0.82846 0.3262 0.0
H624 H 0.65891 0.81739 0.79541 0.0
H625 H 0.62164 0.85814 0.83059 0.0
H626 H 0.68207 0.81235 0.82522 0.0
H627 H 0.64385 0.85212 0.8606 0.0
H628 H 0.71146 0.86746 0.90671 0.0
H629 H 0.68976 0.87193 0.87581 0.0
H630 H 0.67668 0.78941 0.85614 0.0
H631 H 0.69936 0.78559 0.88651 0.0
C632 C 0.65495 0.82452 0.80962 0.0
C633 C 0.63839 0.83817 0.81058 0.0
C634 C 0.66836 0.82172 0.82677 0.0
C635 C 0.66532 0.83226 0.84539 0.0
C636 C 0.64742 0.84448 0.84649 0.0
C637 C 0.63426 0.84753 0.8293 0.0
C638 C 0.70452 0.85059 0.89558 0.0
C639 C 0.70722 0.8262 0.89913 0.0
C640 C 0.69164 0.85291 0.87796 0.0
C641 C 0.6809 0.83078 0.86352 0.0
C642 C 0.68478 0.807 0.86675 0.0
C643 C 0.69785 0.80481 0.88426 0.0
H644 H 0.15518 0.82867 0.92026 0.0
H645 H 0.18548 0.9044 0.8833 0.0
H646 H 0.1533 0.80067 0.89115 0.0
H647 H 0.18201 0.8761 0.85382 0.0
H648 H 0.20256 0.82849 0.80731 0.0
H649 H 0.20515 0.85491 0.83768 0.0
H650 H 0.13172 0.77859 0.86164 0.0
H651 H 0.13038 0.75203 0.83197 0.0
C652 C 0.1605 0.83914 0.90577 0.0
C653 C 0.1704 0.86877 0.90412 0.0
C654 C 0.15952 0.82305 0.88897 0.0
C655 C 0.16793 0.83604 0.86997 0.0
C656 C 0.17622 0.86539 0.86821 0.0
C657 C 0.1777 0.88159 0.88508 0.0
C658 C 0.18749 0.81722 0.81932 0.0
C659 C 0.16638 0.7881 0.81719 0.0
C660 C 0.18859 0.8325 0.83664 0.0
C661 C 0.16827 0.8192 0.85215 0.0
C662 C 0.14796 0.78971 0.85028 0.0
C663 C 0.1472 0.77435 0.83315 0.0
H664 H 0.10063 0.28389 0.88543 0.0
H665 H 0.17784 0.31818 0.92117 0.0
H666 H 0.12965 0.30592 0.85566 0.0
H667 H 0.20685 0.34119 0.89161 0.0
H668 H 0.25189 0.35938 0.83068 0.0
H669 H 0.2245 0.33605 0.86065 0.0
H670 H 0.15699 0.35218 0.84111 0.0
H671 H 0.18403 0.37452 0.8106 0.0
C672 C 0.12384 0.29577 0.88688 0.0
C673 C 0.13688 0.29919 0.90569 0.0
C674 C 0.14051 0.30885 0.86985 0.0
C675 C 0.17067 0.32595 0.8712 0.0
C676 C 0.18376 0.32812 0.88988 0.0
C677 C 0.16708 0.31479 0.90688 0.0
C678 C 0.2314 0.35839 0.83288 0.0
C679 C 0.22016 0.36882 0.81816 0.0
C680 C 0.21562 0.34493 0.85015 0.0
C681 C 0.18823 0.34175 0.85329 0.0
C682 C 0.17764 0.3535 0.83901 0.0
C683 C 0.19334 0.36675 0.82162 0.0
H684 H 0.81886 0.72073 0.66509 0.0
H685 H 0.85802 0.68219 0.62955 0.0
H686 H 0.82374 0.69735 0.6949 0.0
H687 H 0.86173 0.65773 0.65908 0.0
H688 H 0.88679 0.63746 0.7198 0.0
H689 H 0.88382 0.66105 0.68967 0.0
H690 H 0.80313 0.65177 0.71021 0.0
H691 H 0.80692 0.62931 0.74095 0.0
C692 C 0.82887 0.70755 0.66369 0.0
C693 C 0.83818 0.70348 0.64493 0.0
C694 C 0.83123 0.6937 0.68075 0.0
C695 C 0.84262 0.67507 0.67948 0.0
C696 C 0.85303 0.672 0.66081 0.0
C697 C 0.85101 0.68616 0.6438 0.0
C698 C 0.86811 0.63996 0.71778 0.0
C699 C 0.8471 0.63149 0.73288 0.0
C700 C 0.86641 0.65358 0.7004 0.0
C701 C 0.84345 0.65884 0.69748 0.0
C702 C 0.82158 0.64888 0.71211 0.0
C703 C 0.82347 0.63553 0.72964 0.0
H704 H 0.38141 0.18833 0.74665 0.0
H705 H 0.37503 0.25944 0.72207 0.0
H706 H 0.35973 0.16057 0.71633 0.0
H707 H 0.35193 0.23138 0.69243 0.0
H708 H 0.33058 0.18149 0.63381 0.0
H709 H 0.35469 0.21095 0.66287 0.0
H710 H 0.3156 0.13487 0.70024 0.0
H711 H 0.29288 0.10533 0.67082 0.0
C712 C 0.3757 0.19817 0.73468 0.0
C713 C 0.38012 0.22617 0.7368 0.0
C714 C 0.36277 0.18207 0.71738 0.0
C715 C 0.35344 0.19337 0.70188 0.0
C716 C 0.35897 0.22185 0.70378 0.0
C717 C 0.37232 0.23807 0.72089 0.0
C718 C 0.32669 0.17113 0.6483 0.0
C719 C 0.30972 0.14105 0.64999 0.0
C720 C 0.34063 0.18806 0.66506 0.0
C721 C 0.33758 0.17544 0.68407 0.0
C722 C 0.3193 0.14543 0.68585 0.0
C723 C 0.30579 0.12846 0.66902 0.0
H724 H 0.92187 0.22275 0.67307 0.0
H725 H 0.851 0.14227 0.65212 0.0
H726 H 0.89556 0.21894 0.70354 0.0
H727 H 0.82501 0.13772 0.68314 0.0
H728 H 0.77153 0.15221 0.72877 0.0
H729 H 0.79968 0.15794 0.69874 0.0
H730 H 0.87742 0.19593 0.73424 0.0
H731 H 0.8493 0.19126 0.76405 0.0
C732 C 0.90094 0.2038 0.67518 0.0
C733 C 0.88855 0.18284 0.66006 0.0
C734 C 0.88577 0.20161 0.69275 0.0
C735 C 0.85786 0.17824 0.69582 0.0
C736 C 0.84611 0.15646 0.68113 0.0
C737 C 0.8612 0.1588 0.66344 0.0
C738 C 0.79471 0.16237 0.73008 0.0
C739 C 0.80814 0.17138 0.74882 0.0
C740 C 0.81086 0.16524 0.71288 0.0
C741 C 0.84089 0.17688 0.714 0.0
C742 C 0.85443 0.18703 0.73266 0.0
C743 C 0.83828 0.18445 0.74982 0.0
H744 H 0.95759 0.53388 0.49634 0.0
H745 H 1.00037 0.50194 0.45811 0.0
H746 H 0.9822 0.52872 0.52534 0.0
H747 H 0.02622 0.49833 0.48672 0.0
H748 H 0.04937 0.47043 0.54478 0.0
H749 H 0.025 0.47458 0.5156 0.0
H750 H 0.02658 0.54931 0.54153 0.0
H751 H 0.0496 0.54395 0.57143 0.0
C752 C 0.97204 0.52547 0.49417 0.0
C753 C 0.97678 0.51807 0.47493 0.0
C754 C 0.9866 0.52297 0.51077 0.0
C755 C 1.00671 0.5135 0.50852 0.0
C756 C 0.01074 0.50534 0.48928 0.0
C757 C 0.9958 0.50735 0.47277 0.0
C758 C 0.04502 0.48811 0.54416 0.0
C759 C 0.05148 0.50686 0.56052 0.0
C760 C 0.03095 0.49051 0.5273 0.0
C761 C 0.02332 0.51209 0.5261 0.0
C762 C 0.03129 0.53188 0.54204 0.0
C763 C 0.04498 0.52916 0.5591 0.0
H764 H 0.4995 0.43442 0.50214 0.0
H765 H 0.53329 0.51144 0.46611 0.0
H766 H 0.50505 0.46267 0.53207 0.0
H767 H 0.53784 0.53957 0.49587 0.0
H768 H 0.56495 0.5853 0.55665 0.0
H769 H 0.56173 0.55902 0.52626 0.0
H770 H 0.48289 0.48629 0.54783 0.0
H771 H 0.48682 0.51231 0.5787 0.0
C772 C 0.50853 0.45747 0.50063 0.0
C773 C 0.51602 0.47063 0.4817 0.0
C774 C 0.51127 0.47365 0.51778 0.0
C775 C 0.52133 0.50341 0.51645 0.0
C776 C 0.53014 0.51678 0.4976 0.0
C777 C 0.52764 0.50062 0.48047 0.0
C778 C 0.54663 0.56387 0.5548 0.0
C779 C 0.52617 0.55092 0.5702 0.0
C780 C 0.54479 0.54873 0.53729 0.0
C781 C 0.52229 0.52026 0.53459 0.0
C782 C 0.50097 0.50787 0.54956 0.0
C783 C 0.50295 0.52297 0.56717 0.0
H784 H 0.5094 0.037 0.47765 0.0
H785 H 0.58057 0.02897 0.50009 0.0
H786 H 0.48267 0.01532 0.50839 0.0
H787 H 0.55354 0.00608 0.5302 0.0
H788 H 0.50635 0.98688 0.59008 0.0
H789 H 0.53469 0.01022 0.56039 0.0
H790 H 0.45724 0.97068 0.52458 0.0
H791 H 0.42881 0.94851 0.55456 0.0
C792 C 0.51948 0.03093 0.48923 0.0
C793 C 0.54719 0.03487 0.48638 0.0
C794 C 0.50397 0.01802 0.50677 0.0
C795 C 0.51561 0.00836 0.52181 0.0
C796 C 0.54379 0.01337 0.51919 0.0
C797 C 0.5594 0.02658 0.50181 0.0
C798 C 0.49542 0.98268 0.5758 0.0
C799 C 0.46529 0.96574 0.57472 0.0
C800 C 0.51172 0.99619 0.55869 0.0
C801 C 0.49837 0.99281 0.53995 0.0
C802 C 0.46832 0.97456 0.53876 0.0
C803 C 0.45199 0.96139 0.55593 0.0
H804 H 0.46294 0.05074 0.99937 0.0
H805 H 0.53491 0.04581 0.97489 0.0
H806 H 0.46312 0.02418 0.02867 0.0
H807 H 0.53615 0.0204 1.00482 0.0
H808 H 0.51293 0.94828 0.0487 0.0
H809 H 0.5108 0.97484 1.01978 0.0
H810 H 0.48467 0.02259 0.05829 0.0
H811 H 0.48544 0.99499 0.08689 0.0
C812 C 0.47944 0.04477 1.00051 0.0
C813 C 0.49891 0.05044 0.98469 0.0
C814 C 0.47951 0.0294 1.0174 0.0
C815 C 0.49934 0.01957 1.01914 0.0
C816 C 0.51996 0.0268 1.00384 0.0
C817 C 0.51963 0.04187 0.98678 0.0
C818 C 0.50603 0.96395 0.05088 0.0
C819 C 0.49921 0.96936 0.07011 0.0
C820 C 0.5053 0.97961 0.03433 0.0
C821 C 0.49815 1.00145 0.03661 0.0
C822 C 0.49009 0.0059 0.05577 0.0
C823 C 0.49042 0.98993 0.07226 0.0
H824 H 0.97869 0.49887 0.98235 0.0
H825 H 0.98843 0.42793 1.00322 0.0
H826 H 1.00202 0.52569 1.0127 0.0
H827 H 0.01261 0.45501 0.03311 0.0
H828 H 0.03241 0.50307 0.09326 0.0
H829 H 0.00832 0.47421 0.06389 0.0
H830 H 0.04893 0.55071 1.02708 0.0
H831 H 0.07225 0.57968 0.05661 0.0
C832 C 0.98544 0.48883 0.99352 0.0
C833 C 0.98163 0.46123 0.99031 0.0
C834 C 0.99926 0.50439 1.01081 0.0
C835 C 0.00976 0.4928 1.02528 0.0
C836 C 1.00476 0.46466 1.02243 0.0
C837 C 0.99081 0.44907 1.00522 0.0
C838 C 0.03673 0.51367 0.07884 0.0
C839 C 0.05426 0.54374 0.07734 0.0
C840 C 0.02277 0.49709 0.06195 0.0
C841 C 0.02617 0.51011 0.04308 0.0
C842 C 0.0451 0.53998 0.04142 0.0
C843 C 0.05888 0.55658 0.05833 0.0
H844 H 0.58659 0.54047 1.00662 0.0
H845 H 0.51072 0.4693 0.98065 0.0
H846 H 0.55969 0.5373 0.03654 0.0
H847 H 0.48394 0.46479 1.01125 0.0
H848 H 0.43382 0.48142 0.05841 0.0
H849 H 0.46215 0.48624 0.02864 0.0
H850 H 0.5377 0.51425 0.06561 0.0
H851 H 0.50966 0.51107 0.09503 0.0
C852 C 0.56432 0.52347 1.00754 0.0
C853 C 0.55086 0.50511 0.99117 0.0
C854 C 0.54876 0.52164 1.02482 0.0
C855 C 0.51933 0.50101 1.02645 0.0
C856 C 0.50629 0.48155 1.01046 0.0
C857 C 0.52178 0.48375 0.99298 0.0
C858 C 0.45665 0.48928 0.06006 0.0
C859 C 0.46951 0.49611 0.07908 0.0
C860 C 0.47288 0.49156 0.043 0.0
C861 C 0.50232 0.50017 0.04454 0.0
C862 C 0.51528 0.50788 0.06358 0.0
C863 C 0.49916 0.50613 0.08056 0.0
H864 H 0.24194 1.00431 0.96455 0.0
H865 H 0.20438 0.9664 1.02155 0.0
H866 H 0.26361 0.05212 0.97934 0.0
H867 H 0.22406 0.0141 0.03617 0.0
H868 H 0.28562 0.1002 0.06356 0.0
H869 H 0.26467 0.05278 0.04817 0.0
H870 H 0.25946 0.08939 0.99164 0.0
H871 H 0.28239 0.13687 1.00683 0.0
C872 C 0.2377 0.0063 0.98015 0.0
C873 C 0.22149 0.98163 0.99189 0.0
C874 C 0.25008 0.0338 0.98871 0.0
C875 C 0.24597 0.0374 1.00915 0.0
C876 C 0.22863 0.01253 1.0206 0.0
C877 C 0.21693 0.98505 1.01215 0.0
C878 C 0.28023 0.09803 0.04779 0.0
C879 C 0.28584 0.12228 0.03639 0.0
C880 C 0.26783 0.07072 0.03894 0.0
C881 C 0.25995 0.06678 1.01854 0.0
C882 C 0.26562 0.09126 1.00722 0.0
C883 C 0.2787 0.11863 1.01597 0.0
H884 H 1.00326 0.24312 0.96824 0.0
H885 H 0.04333 0.24473 1.02453 0.0
H886 H 0.95602 0.21713 0.98394 0.0
H887 H 0.99624 0.21699 0.04005 0.0
H888 H 0.91096 0.19165 0.06898 0.0
H889 H 0.95763 0.21893 0.05265 0.0
H890 H 0.91982 0.17526 0.99692 0.0
H891 H 0.87304 0.14977 1.01303 0.0
C892 C 1.00188 0.23729 0.98389 0.0
C893 C 0.02698 0.24599 0.99516 0.0
C894 C 0.97472 0.22225 0.99297 0.0
C895 C 0.97193 0.21493 1.01346 0.0
C896 C 0.99723 0.22283 1.02445 0.0
C897 C 0.02434 0.23847 1.01549 0.0
C898 C 0.91267 0.18821 0.05318 0.0
C899 C 0.8883 0.16872 0.04228 0.0
C900 C 0.93956 0.2036 0.04379 0.0
C901 C 0.94294 0.19932 1.02335 0.0
C902 C 0.91832 0.17977 1.01251 0.0
C903 C 0.89136 0.16496 1.0218 0.0
H904 H 0.82475 0.7234 0.06291 0.0
H905 H 0.85672 0.71712 1.00495 0.0
H906 H 0.79874 0.74486 0.04751 0.0
H907 H 0.8323 0.74017 0.9896 0.0
H908 H 0.76386 0.75908 0.96495 0.0
H909 H 0.78949 0.73653 0.97944 0.0
H910 H 0.80393 0.78642 0.03347 0.0
H911 H 0.77682 0.80741 1.01934 0.0
C912 C 0.82629 0.72671 0.04687 0.0
C913 C 0.84269 0.71844 0.03517 0.0
C914 C 0.81163 0.73937 0.03799 0.0
C915 C 0.8135 0.7447 1.01721 0.0
C916 C 0.82981 0.73613 1.00554 0.0
C917 C 0.84399 0.72296 1.01438 0.0
C918 C 0.77282 0.7654 0.97984 0.0
C919 C 0.76824 0.78494 0.99102 0.0
C920 C 0.78761 0.75249 0.98821 0.0
C921 C 0.79867 0.75924 1.00784 0.0
C922 C 0.79508 0.77985 1.0186 0.0
C923 C 0.77981 0.79224 1.01039 0.0
H924 H 0.97335 0.20401 0.53791 0.0
H925 H 0.01124 0.2502 0.5926 0.0
H926 H 0.02083 0.22458 0.52281 0.0
H927 H 0.05876 0.27242 0.5772 0.0
H928 H 0.14393 0.29109 0.54973 0.0
H929 H 0.09699 0.26837 0.56578 0.0
H930 H 0.05744 0.26574 0.50881 0.0
H931 H 0.10439 0.2868 0.49267 0.0
C932 C 0.99193 0.21863 0.54671 0.0
C933 C 0.98855 0.22541 0.56647 0.0
C934 C 0.01924 0.2308 0.53796 0.0
C935 C 0.04397 0.25068 0.54855 0.0
C936 C 0.04051 0.25697 0.56853 0.0
C937 C 0.01318 0.24426 0.57743 0.0
C938 C 0.12519 0.28577 0.54066 0.0
C939 C 0.12789 0.29075 0.51991 0.0
C940 C 0.09814 0.2728 0.5499 0.0
C941 C 0.07302 0.26492 0.53871 0.0
C942 C 0.07598 0.27069 0.51797 0.0
C943 C 0.103 0.28312 0.50867 0.0
H944 H 0.79203 0.78642 0.58163 0.0
H945 H 0.77723 0.74055 0.52575 0.0
H946 H 0.77285 0.81517 0.56699 0.0
H947 H 0.75744 0.76857 0.5114 0.0
H948 H 0.74833 0.84231 0.48534 0.0
H949 H 0.76947 0.8153 0.49973 0.0
H950 H 0.72803 0.81073 0.55618 0.0
H951 H 0.70756 0.83841 0.54192 0.0
C952 C 0.78477 0.78249 0.56623 0.0
C953 C 0.78623 0.76113 0.55491 0.0
C954 C 0.77353 0.79882 0.55787 0.0
C955 C 0.76342 0.79416 0.538 0.0
C956 C 0.76532 0.77309 0.52664 0.0
C957 C 0.77659 0.75686 0.53495 0.0
C958 C 0.74358 0.83539 0.50078 0.0
C959 C 0.72618 0.84249 0.51245 0.0
C960 C 0.75567 0.81982 0.50905 0.0
C961 C 0.75059 0.81085 0.52918 0.0
C962 C 0.73287 0.81768 0.54075 0.0
C963 C 0.72087 0.83333 0.5325 0.0
H964 H 0.24806 1.00461 0.59071 0.0
H965 H 0.24016 0.04029 0.53481 0.0
H966 H 0.22213 0.95636 0.57646 0.0
H967 H 0.21264 0.99214 0.52084 0.0
H968 H 0.19117 0.90725 0.49285 0.0
H969 H 0.21711 0.95484 0.50803 0.0
H970 H 0.17979 0.91777 0.56551 0.0
H971 H 0.1555 0.87014 0.55044 0.0
C972 C 0.2401 1.00203 0.57552 0.0
C973 C 0.24621 0.02624 0.56387 0.0
C974 C 0.22514 0.97429 0.56729 0.0
C975 C 0.21539 0.97002 0.54729 0.0
C976 C 0.22045 0.99434 0.53603 0.0
C977 C 0.23594 0.02205 0.54413 0.0
C978 C 0.18879 0.90932 0.50876 0.0
C979 C 0.17141 0.88492 0.52044 0.0
C980 C 0.20341 0.93671 0.5175 0.0
C981 C 0.20049 0.94055 0.53809 0.0
C982 C 0.18313 0.91593 0.54973 0.0
C983 C 0.16903 0.88849 0.54105 0.0
H984 H 0.72926 0.91049 0.99108 0.0
H985 H 0.73631 0.87285 0.04635 0.0
H986 H 0.75013 0.95741 1.00723 0.0
H987 H 0.75887 0.91989 0.06225 0.0
H988 H 0.77441 1.00383 0.09101 0.0
H989 H 0.75337 0.95631 0.0757 0.0
H990 H 0.79181 0.99588 1.01899 0.0
H991 H 0.81109 0.0432 0.03415 0.0
C992 C 0.73544 0.91231 1.00667 0.0
C993 C 0.73099 0.88794 1.01744 0.0
C994 C 0.74776 0.93933 1.01595 0.0
C995 C 0.7566 0.94284 0.03614 0.0
C996 C 0.75201 0.91826 0.04685 0.0
C997 C 0.73914 0.89117 0.03768 0.0
C998 C 0.77859 1.00226 0.07534 0.0
C999 C 0.79433 0.02723 0.06378 0.0
C1000 C 0.76655 0.97495 0.06648 0.0
C1001 C 0.77046 0.97192 0.04592 0.0
C1002 C 0.78743 0.99708 0.03467 0.0
C1003 C 0.79888 0.02432 0.04342 0.0
H1004 H 0.10067 0.83993 0.98293 0.0
H1005 H 0.13875 0.83558 0.0388 0.0
H1006 H 0.05299 0.81344 0.99793 0.0
H1007 H 0.09095 0.80831 0.05369 0.0
H1008 H 1.00289 0.78422 0.08015 0.0
H1009 H 0.05073 0.81271 0.06528 0.0
H1010 H 0.01863 0.76689 1.00953 0.0
H1011 H 0.97104 0.73925 1.02406 0.0
C1012 C 0.09886 0.83299 0.99835 0.0
C1013 C 0.12357 0.8398 1.00962 0.0
C1014 C 0.07145 0.81773 1.00697 0.0
C1015 C 0.06799 0.8087 1.02708 0.0
C1016 C 0.09274 0.81528 0.03828 0.0
C1017 C 0.12018 0.83067 0.02967 0.0
C1018 C 1.00602 0.78044 0.06467 0.0
C1019 C 0.98301 0.75944 0.05334 0.0
C1020 C 0.03352 0.79661 0.05618 0.0
C1021 C 0.03867 0.79212 0.03617 0.0
C1022 C 0.01552 0.77133 1.02485 0.0
C1023 C 0.98813 0.7553 0.03328 0.0
H1024 H 0.16641 0.26158 0.98465 0.0
H1025 H 0.17369 0.30627 0.04003 0.0
H1026 H 0.19201 0.23942 0.99965 0.0
H1027 H 0.20008 0.28475 0.0549 0.0
H1028 H 0.22274 0.21996 0.08185 0.0
H1029 H 0.19481 0.24004 0.06706 0.0
H1030 H 0.23836 0.25034 1.01065 0.0
H1031 H 0.26539 0.22966 1.02512 0.0
C1032 C 0.1738 0.26698 0.99996 0.0
C1033 C 0.16807 0.28582 1.01108 0.0
C1034 C 0.18856 0.25429 1.00859 0.0
C1035 C 0.19816 0.2602 0.02856 0.0
C1036 C 0.19265 0.27928 0.03961 0.0
C1037 C 0.17776 0.29189 0.031 0.0
C1038 C 0.22611 0.22625 0.06625 0.0
C1039 C 0.24632 0.22309 0.05472 0.0
C1040 C 0.21028 0.23802 0.05779 0.0
C1041 C 0.21431 0.24693 0.03762 0.0
C1042 C 0.23427 0.24337 1.0261 0.0
C1043 C 0.24995 0.23159 0.0345 0.0
H1044 H 0.87546 0.70305 0.51204 0.0
H1045 H 0.91016 0.7484 0.56759 0.0
H1046 H 0.92396 0.72486 0.49813 0.0
H1047 H 0.9585 0.77084 0.55354 0.0
H1048 H 0.04262 0.77983 0.53043 0.0
H1049 H 0.99439 0.75962 0.54389 0.0
H1050 H 0.96378 0.76966 0.48634 0.0
H1051 H 0.01232 0.78929 0.47258 0.0
C1052 C 0.89344 0.71768 0.5213 0.0
C1053 C 0.8889 0.72381 0.54099 0.0
C1054 C 0.92126 0.73044 0.51324 0.0
C1055 C 0.94526 0.74973 0.52465 0.0
C1056 C 0.94065 0.7558 0.54437 0.0
C1057 C 0.91286 0.74296 0.55244 0.0
C1058 C 0.02573 0.77795 0.52059 0.0
C1059 C 0.03147 0.7862 0.50036 0.0
C1060 C 0.99796 0.76645 0.5284 0.0
C1061 C 0.97503 0.76293 0.51626 0.0
C1062 C 0.98081 0.77167 0.49608 0.0
C1063 C 0.00871 0.78317 0.48822 0.0
H1064 H 0.22022 0.22349 0.47362 0.0
H1065 H 0.23617 0.27022 0.52922 0.0
H1066 H 0.23944 0.19476 0.48829 0.0
H1067 H 0.25608 0.24238 0.54354 0.0
H1068 H 0.26571 0.1698 0.57036 0.0
H1069 H 0.24428 0.19633 0.5557 0.0
H1070 H 0.28386 0.19844 0.49888 0.0
H1071 H 0.30452 0.17109 0.51343 0.0
C1072 C 0.22775 0.22762 0.48895 0.0
C1073 C 0.22656 0.24917 0.5002 0.0
C1074 C 0.23901 0.21131 0.49733 0.0
C1075 C 0.24944 0.21623 0.51714 0.0
C1076 C 0.2479 0.23758 0.52838 0.0
C1077 C 0.23656 0.25372 0.52008 0.0
C1078 C 0.26999 0.17607 0.55477 0.0
C1079 C 0.28693 0.16838 0.5431 0.0
C1080 C 0.25773 0.19137 0.54634 0.0
C1081 C 0.26224 0.19957 0.52604 0.0
C1082 C 0.27946 0.19211 0.51445 0.0
C1083 C 0.29158 0.17666 0.52286 0.0
H1084 H 0.7695 0.96873 0.52581 0.0
H1085 H 0.77006 0.00894 0.46976 0.0
H1086 H 0.79802 0.01583 0.54114 0.0
H1087 H 0.797 0.05621 0.4853 0.0
H1088 H 0.86544 0.139 0.51391 0.0
H1089 H 0.83963 0.0921 0.49795 0.0
H1090 H 0.79628 0.05468 0.55388 0.0
H1091 H 0.82371 0.10145 0.57004 0.0
C1092 C 0.77572 0.98773 0.51677 0.0
C1093 C 0.7676 0.98511 0.49656 0.0
C1094 C 0.79182 0.01486 0.52563 0.0
C1095 C 0.79971 0.0402 0.51467 0.0
C1096 C 0.79188 0.03744 0.49429 0.0
C1097 C 0.7763 0.01026 0.48531 0.0
C1098 C 0.8503 0.12074 0.52277 0.0
C1099 C 0.84662 0.12395 0.54325 0.0
C1100 C 0.8353 0.09372 0.51357 0.0
C1101 C 0.8157 0.0692 0.5245 0.0
C1102 C 0.81162 0.07269 0.54496 0.0
C1103 C 0.82712 0.09964 0.55425 0.0
H1104 H 0.92758 0.43914 0.40113 0.0
H1105 H 0.9712 0.47427 0.34503 0.0
H1106 H 0.9058 0.3907 0.3872 0.0
H1107 H 0.94993 0.42579 0.33123 0.0
H1108 H 0.8845 0.33798 0.30593 0.0
H1109 H 0.9043 0.38616 0.32017 0.0
H1110 H 0.91754 0.35498 0.37652 0.0
H1111 H 0.89724 0.30688 0.3625 0.0
C1112 C 0.93276 0.43653 0.38589 0.0
C1113 C 0.95119 0.46063 0.37422 0.0
C1114 C 0.92031 0.4087 0.37789 0.0
C1115 C 0.92597 0.40425 0.35803 0.0
C1116 C 0.94467 0.42838 0.34646 0.0
C1117 C 0.95711 0.4562 0.35445 0.0
C1118 C 0.89139 0.34134 0.32141 0.0
C1119 C 0.88924 0.31846 0.33303 0.0
C1120 C 0.90299 0.36905 0.32954 0.0
C1121 C 0.9127 0.37458 0.34949 0.0
C1122 C 0.91002 0.35154 0.36119 0.0
C1123 C 0.89845 0.3239 0.35308 0.0
H1124 H 0.57681 0.52259 0.40038 0.0
H1125 H 0.53535 0.47945 0.34558 0.0
H1126 H 0.62273 0.54828 0.38293 0.0
H1127 H 0.58133 0.50294 0.32836 0.0
H1128 H 0.6637 0.56692 0.29698 0.0
H1129 H 0.61742 0.54236 0.31393 0.0
H1130 H 0.66071 0.54687 0.36964 0.0
H1131 H 0.70691 0.57364 0.35276 0.0
C1132 C 0.57763 0.51852 0.38458 0.0
C1133 C 0.55248 0.49925 0.37431 0.0
C1134 C 0.60409 0.53295 0.37453 0.0
C1135 C 0.60629 0.52777 0.35406 0.0
C1136 C 0.58087 0.50828 0.34391 0.0
C1137 C 0.55433 0.49458 0.35383 0.0
C1138 C 0.66317 0.56237 0.31282 0.0
C1139 C 0.68887 0.57214 0.32354 0.0
C1140 C 0.63653 0.54812 0.32264 0.0
C1141 C 0.63482 0.54249 0.34339 0.0
C1142 C 0.66076 0.55138 0.35386 0.0
C1143 C 0.68739 0.56642 0.34413 0.0
H1144 H 0.4884 0.05499 0.39871 0.0
H1145 H 0.52283 0.05009 0.34138 0.0
H1146 H 0.46158 0.0751 0.38264 0.0
H1147 H 0.49744 0.07168 0.32537 0.0
H1148 H 0.42759 0.08759 0.29946 0.0
H1149 H 0.45382 0.06612 0.31466 0.0
H1150 H 0.46633 0.11645 0.36818 0.0
H1151 H 0.43879 0.13647 0.35333 0.0
C1152 C 0.49031 0.05831 0.38266 0.0
C1153 C 0.50768 0.05085 0.37134 0.0
C1154 C 0.47515 0.07017 0.37341 0.0
C1155 C 0.47741 0.07543 0.35261 0.0
C1156 C 0.49467 0.06765 0.34132 0.0
C1157 C 0.5094 0.05533 0.35054 0.0
C1158 C 0.43622 0.09422 0.31439 0.0
C1159 C 0.43101 0.11364 0.32521 0.0
C1160 C 0.45135 0.08194 0.32317 0.0
C1161 C 0.46208 0.08917 0.34286 0.0
C1162 C 0.45777 0.10955 0.35327 0.0
C1163 C 0.44222 0.12137 0.34465 0.0
H1164 H 0.67085 0.54615 0.92027 0.0
H1165 H 0.63695 0.5666 0.86808 0.0
H1166 H 0.71731 0.56491 0.90348 0.0
H1167 H 0.68337 0.58587 0.85157 0.0
H1168 H 0.76335 0.59421 0.82048 0.0
H1169 H 0.7163 0.57318 0.83665 0.0
H1170 H 0.7575 0.6104 0.89301 0.0
H1171 H 0.80446 0.63084 0.87695 0.0
C1172 C 0.67323 0.55452 0.90521 0.0
C1173 C 0.65008 0.55485 0.89558 0.0
C1174 C 0.69997 0.56552 0.89563 0.0
C1175 C 0.70424 0.57711 0.87617 0.0
C1176 C 0.68088 0.57687 0.86643 0.0
C1177 C 0.65422 0.5659 0.87599 0.0
C1178 C 0.76236 0.59805 0.83629 0.0
C1179 C 0.78773 0.61427 0.84738 0.0
C1180 C 0.73535 0.58602 0.84558 0.0
C1181 C 0.733 0.58992 0.8662 0.0
C1182 C 0.75842 0.60647 0.87721 0.0
C1183 C 0.78539 0.61846 0.86793 0.0
H1184 H 0.37208 0.1776 0.8725 0.0
H1185 H 0.41742 0.1846 0.81745 0.0
H1186 H 0.3932 0.15112 0.88771 0.0
H1187 H 0.43901 0.15853 0.83281 0.0
H1188 H 0.44705 0.08417 0.86051 0.0
H1189 H 0.42715 0.11137 0.84482 0.0
H1190 H 0.43887 0.1582 0.89987 0.0
H1191 H 0.45831 0.13049 0.91577 0.0
C1192 C 0.38651 0.17344 0.8636 0.0
C1193 C 0.39297 0.18319 0.84371 0.0
C1194 C 0.39886 0.15847 0.87241 0.0
C1195 C 0.41801 0.15282 0.86158 0.0
C1196 C 0.42417 0.16225 0.84157 0.0
C1197 C 0.41182 0.17726 0.83276 0.0
C1198 C 0.44558 0.10039 0.86929 0.0
C1199 C 0.45425 0.10503 0.88947 0.0
C1200 C 0.43426 0.11611 0.86022 0.0
C1201 C 0.43123 0.13693 0.87106 0.0
C1202 C 0.44044 0.14202 0.89114 0.0
C1203 C 0.45183 0.12629 0.90022 0.0
H1204 H 0.92034 0.33576 0.92577 0.0
H1205 H 0.90463 0.37052 0.87209 0.0
H1206 H 0.89365 0.28738 0.91169 0.0
H1207 H 0.87664 0.32227 0.85841 0.0
H1208 H 0.85504 0.23842 0.82882 0.0
H1209 H 0.88188 0.28591 0.84403 0.0
H1210 H 0.84983 0.24827 0.9023 0.0
H1211 H 0.8244 0.20071 0.8871 0.0
C1212 C 0.91057 0.33296 0.91116 0.0
C1213 C 0.9147 0.35696 0.90002 0.0
C1214 C 0.8952 0.30517 0.90303 0.0
C1215 C 0.88316 0.30067 0.88369 0.0
C1216 C 0.88625 0.32473 0.87304 0.0
C1217 C 0.90203 0.35247 0.88099 0.0
C1218 C 0.85399 0.24031 0.8449 0.0
C1219 C 0.83766 0.21578 0.85674 0.0
C1220 C 0.86914 0.26763 0.85366 0.0
C1221 C 0.86789 0.27126 0.87448 0.0
C1222 C 0.85176 0.24653 0.88631 0.0
C1223 C 0.83704 0.21916 0.87756 0.0
H1224 H 0.38166 0.20493 0.37701 0.0
H1225 H 0.41569 0.24353 0.31939 0.0
H1226 H 0.40336 0.2526 0.39214 0.0
H1227 H 0.43807 0.29123 0.33461 0.0
H1228 H 0.44626 0.372 0.36419 0.0
H1229 H 0.42633 0.3248 0.34894 0.0
H1230 H 0.44885 0.29339 0.40151 0.0
H1231 H 0.46824 0.34078 0.41711 0.0
C1232 C 0.39378 0.2236 0.36754 0.0
C1233 C 0.39679 0.22037 0.34694 0.0
C1234 C 0.4065 0.25098 0.37628 0.0
C1235 C 0.42264 0.27589 0.36466 0.0
C1236 C 0.42552 0.27262 0.34402 0.0
C1237 C 0.41272 0.24522 0.33526 0.0
C1238 C 0.44718 0.35515 0.37253 0.0
C1239 C 0.45884 0.36028 0.39196 0.0
C1240 C 0.43583 0.328 0.36368 0.0
C1241 C 0.43586 0.30513 0.37395 0.0
C1242 C 0.44805 0.31036 0.39325 0.0
C1243 C 0.45941 0.33761 0.40215 0.0
H1244 H 0.66915 0.11496 0.42057 0.0
H1245 H 0.63662 0.07618 0.36277 0.0
H1246 H 0.71692 0.14477 0.40586 0.0
H1247 H 0.68408 0.10501 0.34837 0.0
H1248 H 0.76608 0.17938 0.32335 0.0
H1249 H 0.71858 0.15219 0.33853 0.0
H1250 H 0.75698 0.14188 0.39246 0.0
H1251 H 0.8046 0.16992 0.37744 0.0
C1252 C 0.67212 0.1128 0.40476 0.0
C1253 C 0.64892 0.09316 0.3929 0.0
C1254 C 0.69958 0.12973 0.39634 0.0
C1255 C 0.70451 0.12737 0.37587 0.0
C1256 C 0.68117 0.10789 0.36407 0.0
C1257 C 0.65384 0.09114 0.37242 0.0
C1258 C 0.76439 0.1712 0.33841 0.0
C1259 C 0.78918 0.17675 0.34912 0.0
C1260 C 0.73709 0.15551 0.34714 0.0
C1261 C 0.73378 0.14473 0.36678 0.0
C1262 C 0.75862 0.15018 0.37745 0.0
C1263 C 0.78596 0.16603 0.36874 0.0
H1264 H 0.93271 0.56894 0.35539 0.0
H1265 H 0.88848 0.5609 0.41116 0.0
H1266 H 0.90484 0.58768 0.33931 0.0
H1267 H 0.85992 0.57908 0.39485 0.0
H1268 H 0.83667 0.64185 0.36497 0.0
H1269 H 0.86466 0.62297 0.38108 0.0
H1270 H 0.85769 0.57439 0.32772 0.0
H1271 H 0.83034 0.5938 0.31148 0.0
C1272 C 0.9168 0.57085 0.36421 0.0
C1273 C 0.91291 0.56338 0.38463 0.0
C1274 C 0.90067 0.58153 0.35492 0.0
C1275 C 0.8801 0.585 0.36573 0.0
C1276 C 0.87587 0.57712 0.3861 0.0
C1277 C 0.89207 0.56644 0.39543 0.0
C1278 C 0.84132 0.62733 0.35661 0.0
C1279 C 0.83134 0.61946 0.33688 0.0
C1280 C 0.85714 0.61626 0.36594 0.0
C1281 C 0.86337 0.59699 0.35579 0.0
C1282 C 0.85364 0.58941 0.33596 0.0
C1283 C 0.83787 0.60052 0.32663 0.0
H1284 H 0.57735 0.0896 0.90492 0.0
H1285 H 0.54099 0.04261 0.85014 0.0
H1286 H 0.62549 0.10995 0.89069 0.0
H1287 H 0.58918 0.0624 0.83607 0.0
H1288 H 0.67776 0.12406 0.80962 0.0
H1289 H 0.62969 0.10648 0.82366 0.0
H1290 H 0.66004 0.09635 0.88129 0.0
H1291 H 0.70788 0.11446 0.8675 0.0
C1292 C 0.57963 0.08338 0.88991 0.0
C1293 C 0.55528 0.06438 0.87872 0.0
C1294 C 0.60728 0.09501 0.88174 0.0
C1295 C 0.61132 0.0879 0.86218 0.0
C1296 C 0.58692 0.06876 0.85104 0.0
C1297 C 0.55927 0.05717 0.8592 0.0
C1298 C 0.67421 0.11834 0.82532 0.0
C1299 C 0.69677 0.12071 0.83738 0.0
C1300 C 0.64658 0.10803 0.83335 0.0
C1301 C 0.64087 0.09987 0.85363 0.0
C1302 C 0.66361 0.10275 0.8657 0.0
C1303 C 0.69112 0.11304 0.85772 0.0
H1304 H 0.95509 0.52165 0.89892 0.0
H1305 H 0.94811 0.478 0.84317 0.0
H1306 H 0.93462 0.54833 0.88309 0.0
H1307 H 0.92609 0.50324 0.82757 0.0
H1308 H 0.91081 0.57217 0.79961 0.0
H1309 H 0.93235 0.54599 0.81472 0.0
H1310 H 0.8926 0.54498 0.8713 0.0
H1311 H 0.87262 0.57255 0.85638 0.0
C1312 C 0.94905 0.51767 0.88329 0.0
C1313 C 0.95335 0.4978 0.87231 0.0
C1314 C 0.93698 0.53275 0.87419 0.0
C1315 C 0.92833 0.52794 0.85396 0.0
C1316 C 0.93283 0.50806 0.84302 0.0
C1317 C 0.94538 0.4934 0.85202 0.0
C1318 C 0.90651 0.5661 0.81523 0.0
C1319 C 0.89008 0.57452 0.82679 0.0
C1320 C 0.91882 0.55098 0.82395 0.0
C1321 C 0.91457 0.54341 0.8444 0.0
C1322 C 0.89718 0.55101 0.85571 0.0
C1323 C 0.88537 0.56658 0.84708 0.0
H1324 H 0.50327 0.4775 0.85597 0.0
H1325 H 0.51025 0.43422 0.90838 0.0
H1326 H 0.4761 0.4313 0.83898 0.0
H1327 H 0.48361 0.38806 0.89124 0.0
H1328 H 0.40967 0.30817 0.86192 0.0
H1329 H 0.43658 0.35409 0.87903 0.0
H1330 H 0.48222 0.39342 0.82427 0.0
H1331 H 0.45471 0.3474 0.80693 0.0
C1332 C 0.49893 0.45812 0.86392 0.0
C1333 C 0.50889 0.45961 0.88359 0.0
C1334 C 0.48357 0.43161 0.85408 0.0
C1335 C 0.47775 0.40586 0.86365 0.0
C1336 C 0.48738 0.40735 0.88345 0.0
C1337 C 0.50274 0.43387 0.89329 0.0
C1338 C 0.42552 0.32653 0.85348 0.0
C1339 C 0.42994 0.32398 0.83298 0.0
C1340 C 0.4411 0.35292 0.86337 0.0
C1341 C 0.4616 0.37759 0.85308 0.0
C1342 C 0.46631 0.375 0.83262 0.0
C1343 C 0.45069 0.34853 0.8227 0.0
H1344 H 0.57302 0.63988 0.69385 0.0
H1345 H 0.56651 0.67142 0.63569 0.0
H1346 H 0.59209 0.68774 0.70771 0.0
H1347 H 0.58486 0.71955 0.64984 0.0
H1348 H 0.64735 0.80777 0.67726 0.0
H1349 H 0.62787 0.7598 0.66283 0.0
H1350 H 0.57951 0.7225 0.71709 0.0
H1351 H 0.59972 0.77032 0.7317 0.0
C1352 C 0.57532 0.65697 0.68401 0.0
C1353 C 0.56816 0.65166 0.6636 0.0
C1354 C 0.58616 0.68452 0.69205 0.0
C1355 C 0.59002 0.70767 0.67997 0.0
C1356 C 0.58257 0.70237 0.65957 0.0
C1357 C 0.57181 0.6747 0.65146 0.0
C1358 C 0.63272 0.7893 0.68616 0.0
C1359 C 0.62526 0.79291 0.7057 0.0
C1360 C 0.6213 0.76176 0.6778 0.0
C1361 C 0.60201 0.73713 0.68873 0.0
C1362 C 0.59463 0.74084 0.7083 0.0
C1363 C 0.60618 0.76833 0.71669 0.0
H1364 H 0.20224 0.83965 0.68389 0.0
H1365 H 0.2408 0.82794 0.73717 0.0
H1366 H 0.24966 0.86642 0.6684 0.0
H1367 H 0.28814 0.85414 0.72153 0.0
H1368 H 0.37094 0.92858 0.6956 0.0
H1369 H 0.32382 0.90139 0.71104 0.0
H1370 H 0.28783 0.86007 0.65449 0.0
H1371 H 0.33516 0.88796 0.6388 0.0
C1372 C 0.22084 0.84286 0.69234 0.0
C1373 C 0.21767 0.83173 0.71184 0.0
C1374 C 0.24804 0.85798 0.68336 0.0
C1375 C 0.27282 0.86237 0.69363 0.0
C1376 C 0.26964 0.85149 0.71322 0.0
C1377 C 0.24244 0.8364 0.72221 0.0
C1378 C 0.35308 0.91359 0.6864 0.0
C1379 C 0.35696 0.91055 0.66589 0.0
C1380 C 0.32597 0.89784 0.69534 0.0
C1381 C 0.30188 0.87851 0.68406 0.0
C1382 C 0.3058 0.87507 0.66359 0.0
C1383 C 0.33301 0.89088 0.65462 0.0
H1384 H 0.20635 0.40449 0.67162 0.0
H1385 H 0.15754 0.39156 0.72579 0.0
H1386 H 0.1812 0.42637 0.65579 0.0
H1387 H 0.13075 0.41166 0.70961 0.0
H1388 H 0.1038 0.47173 0.68299 0.0
H1389 H 0.13173 0.45266 0.69866 0.0
H1390 H 0.13978 0.41983 0.6413 0.0
H1391 H 0.11349 0.44074 0.62558 0.0
C1392 C 0.18981 0.40587 0.68004 0.0
C1393 C 0.18391 0.39625 0.69996 0.0
C1394 C 0.17517 0.41832 0.6709 0.0
C1395 C 0.15371 0.42096 0.68127 0.0
C1396 C 0.1475 0.41076 0.70116 0.0
C1397 C 0.16265 0.39889 0.71045 0.0
C1398 C 0.11189 0.46073 0.67372 0.0
C1399 C 0.10654 0.45785 0.65304 0.0
C1400 C 0.12766 0.44942 0.68275 0.0
C1401 C 0.13796 0.43424 0.67142 0.0
C1402 C 0.1328 0.43172 0.65061 0.0
C1403 C 0.11758 0.44365 0.64152 0.0
H1404 H 0.30524 0.9053 0.19747 0.0
H1405 H 0.34269 0.89635 0.25232 0.0
H1406 H 0.35141 0.92451 0.18081 0.0
H1407 H 0.38905 0.91493 0.23535 0.0
H1408 H 0.4743 0.97677 0.20443 0.0
H1409 H 0.4281 0.9583 0.22141 0.0
H1410 H 0.38443 0.91119 0.16807 0.0
H1411 H 0.43051 0.93032 0.15097 0.0
C1412 C 0.32327 0.90715 0.20598 0.0
C1413 C 0.32013 0.8992 0.2263 0.0
C1414 C 0.34983 0.91808 0.19633 0.0
C1415 C 0.37409 0.92129 0.20666 0.0
C1416 C 0.37096 0.91315 0.22697 0.0
C1417 C 0.34431 0.90227 0.23668 0.0
C1418 C 0.45481 0.96268 0.19626 0.0
C1419 C 0.45614 0.95516 0.17628 0.0
C1420 C 0.42829 0.95183 0.20608 0.0
C1421 C 0.40242 0.93309 0.1962 0.0
C1422 C 0.40381 0.92585 0.17613 0.0
C1423 C 0.43029 0.93679 0.16629 0.0
H1424 H 0.1006 0.43823 0.25626 0.0
H1425 H 0.14019 0.43768 0.20022 0.0
H1426 H 0.07938 0.46426 0.24062 0.0
H1427 H 0.12117 0.4658 0.18477 0.0
H1428 H 0.0623 0.492 0.1554 0.0
H1429 H 0.08183 0.4648 0.17163 0.0
H1430 H 0.08345 0.50527 0.22808 0.0
H1431 H 0.06171 0.53039 0.21197 0.0
C1432 C 0.10537 0.44441 0.24068 0.0
C1433 C 0.12203 0.43595 0.22946 0.0
C1434 C 0.09328 0.45949 0.23163 0.0
C1435 C 0.09819 0.46723 0.21121 0.0
C1436 C 0.11595 0.45964 0.20029 0.0
C1437 C 0.12729 0.44382 0.20921 0.0
C1438 C 0.06653 0.4947 0.17133 0.0
C1439 C 0.06028 0.51312 0.18244 0.0
C1440 C 0.07815 0.47939 0.18069 0.0
C1441 C 0.08471 0.4828 0.20132 0.0
C1442 C 0.07831 0.50136 0.21234 0.0
C1443 C 0.06591 0.51597 0.20307 0.0
H1444 H 0.57669 0.66504 0.25614 0.0
H1445 H 0.56404 0.7001 0.20149 0.0
H1446 H 0.55134 0.61683 0.24173 0.0
H1447 H 0.53717 0.65197 0.18743 0.0
H1448 H 0.5166 0.56816 0.15823 0.0
H1449 H 0.54248 0.61563 0.17358 0.0
H1450 H 0.50879 0.57754 0.2315 0.0
H1451 H 0.48451 0.53005 0.2162 0.0
C1452 C 0.56785 0.66232 0.24121 0.0
C1453 C 0.57244 0.68637 0.22994 0.0
C1454 C 0.55322 0.63461 0.23289 0.0
C1455 C 0.54232 0.6302 0.2132 0.0
C1456 C 0.54591 0.65432 0.20234 0.0
C1457 C 0.56104 0.682 0.21051 0.0
C1458 C 0.51502 0.56997 0.17427 0.0
C1459 C 0.4986 0.54533 0.18599 0.0
C1460 C 0.5296 0.59729 0.18312 0.0
C1461 C 0.52764 0.60081 0.20388 0.0
C1462 C 0.51134 0.57595 0.21557 0.0
C1463 C 0.49726 0.54859 0.20676 0.0
H1464 H 0.11005 0.70585 0.69276 0.0
H1465 H 0.12647 0.66937 0.74535 0.0
H1466 H 0.0911 0.65991 0.67561 0.0
H1467 H 0.10797 0.62339 0.72796 0.0
H1468 H 0.04277 0.53767 0.69933 0.0
H1469 H 0.0625 0.58413 0.71604 0.0
H1470 H 0.10459 0.62707 0.66111 0.0
H1471 H 0.08438 0.58055 0.64428 0.0
C1472 C 0.10991 0.68812 0.70063 0.0
C1473 C 0.11976 0.69138 0.72051 0.0
C1474 C 0.09913 0.66174 0.69072 0.0
C1475 C 0.09785 0.63783 0.70039 0.0
C1476 C 0.1082 0.64121 0.72014 0.0
C1477 C 0.11905 0.66767 0.73007 0.0
C1478 C 0.05605 0.55702 0.69075 0.0
C1479 C 0.0619 0.55534 0.67043 0.0
C1480 C 0.06762 0.58369 0.70041 0.0
C1481 C 0.08535 0.60942 0.69 0.0
C1482 C 0.09083 0.60775 0.66957 0.0
C1483 C 0.07927 0.58105 0.65991 0.0
H1484 H 0.3455 0.4294 0.75372 0.0
H1485 H 0.31077 0.44335 0.69937 0.0
H1486 H 0.3939 0.4561 0.73968 0.0
H1487 H 0.35904 0.47131 0.68568 0.0
H1488 H 0.44343 0.49259 0.65677 0.0
H1489 H 0.39579 0.46608 0.67186 0.0
H1490 H 0.43271 0.50003 0.72993 0.0
H1491 H 0.48039 0.52516 0.71491 0.0
C1492 C 0.3483 0.43877 0.73895 0.0
C1493 C 0.3243 0.43415 0.72763 0.0
C1494 C 0.37611 0.45415 0.73085 0.0
C1495 C 0.38062 0.4657 0.71134 0.0
C1496 C 0.35656 0.4621 0.70047 0.0
C1497 C 0.32881 0.44632 0.70842 0.0
C1498 C 0.44134 0.49417 0.67278 0.0
C1499 C 0.46571 0.51091 0.68462 0.0
C1500 C 0.41394 0.4792 0.68147 0.0
C1501 C 0.41008 0.481 0.7022 0.0
C1502 C 0.43464 0.49765 0.71402 0.0
C1503 C 0.46208 0.51222 0.70537 0.0
H1504 H 0.6011 0.89939 0.6913 0.0
H1505 H 0.55739 0.88634 0.74797 0.0
H1506 H 0.57235 0.91847 0.67715 0.0
H1507 H 0.52794 0.90487 0.73356 0.0
H1508 H 0.50436 0.96995 0.70795 0.0
H1509 H 0.53225 0.94964 0.72213 0.0
H1510 H 0.5249 0.90561 0.6664 0.0
H1511 H 0.49762 0.9265 0.65208 0.0
C1512 C 0.5851 0.90026 0.70072 0.0
C1513 C 0.58166 0.89133 0.72084 0.0
C1514 C 0.56846 0.91112 0.69253 0.0
C1515 C 0.5478 0.91332 0.70417 0.0
C1516 C 0.54394 0.9039 0.72421 0.0
C1517 C 0.56066 0.89303 0.73245 0.0
C1518 C 0.50885 0.95608 0.69867 0.0
C1519 C 0.49885 0.94997 0.67883 0.0
C1520 C 0.52462 0.94418 0.70688 0.0
C1521 C 0.53077 0.92583 0.69548 0.0
C1522 C 0.5209 0.9199 0.67557 0.0
C1523 C 0.50518 0.93184 0.66735 0.0
H1524 H 0.20308 0.36961 0.18454 0.0
H1525 H 0.24255 0.41492 0.2393 0.0
H1526 H 0.25053 0.38909 0.16923 0.0
H1527 H 0.28987 0.43504 0.22386 0.0
H1528 H 0.37096 0.44048 0.19792 0.0
H1529 H 0.32372 0.4218 0.21279 0.0
H1530 H 0.29078 0.43287 0.15653 0.0
H1531 H 0.33828 0.45095 0.14134 0.0
C1532 C 0.22188 0.38369 0.19334 0.0
C1533 C 0.21898 0.39053 0.21321 0.0
C1534 C 0.24912 0.39513 0.18447 0.0
C1535 C 0.27416 0.41377 0.19524 0.0
C1536 C 0.27117 0.42047 0.21516 0.0
C1537 C 0.24398 0.40895 0.22404 0.0
C1538 C 0.35376 0.43913 0.18865 0.0
C1539 C 0.35855 0.44726 0.16836 0.0
C1540 C 0.32658 0.42851 0.19728 0.0
C1541 C 0.30328 0.42577 0.18593 0.0
C1542 C 0.3081 0.43429 0.16568 0.0
C1543 C 0.33541 0.44491 0.15699 0.0
H1544 H 0.56451 0.89764 0.13028 0.0
H1545 H 0.53422 0.9074 0.18794 0.0
H1546 H 0.58498 0.87074 0.14569 0.0
H1547 H 0.5527 0.87876 0.20331 0.0
H1548 H 0.61382 0.85284 0.23005 0.0
H1549 H 0.59346 0.87952 0.21408 0.0
H1550 H 0.57908 0.82958 0.16005 0.0
H1551 H 0.60135 0.80464 0.17568 0.0
C1552 C 0.56158 0.89334 0.1462 0.0
C1553 C 0.5478 0.90465 0.1579 0.0
C1554 C 0.57328 0.87779 0.15512 0.0
C1555 C 0.57088 0.87254 0.17593 0.0
C1556 C 0.5559 0.88293 0.18741 0.0
C1557 C 0.54489 0.89908 0.17855 0.0
C1558 C 0.6065 0.84782 0.21471 0.0
C1559 C 0.60938 0.82681 0.2041 0.0
C1560 C 0.59446 0.86289 0.20554 0.0
C1561 C 0.58426 0.85679 0.18566 0.0
C1562 C 0.58711 0.83554 0.17517 0.0
C1563 C 0.59978 0.82102 0.18418 0.0
H1564 H 0.17711 0.80838 0.18384 0.0
H1565 H 0.18084 0.77031 0.23993 0.0
H1566 H 0.15216 0.76079 0.16853 0.0
H1567 H 0.15632 0.72268 0.22449 0.0
H1568 H 0.08343 0.64046 0.19586 0.0
H1569 H 0.10995 0.68754 0.21149 0.0
H1570 H 0.15991 0.72197 0.15748 0.0
H1571 H 0.13283 0.67471 0.14159 0.0
C1572 C 0.17256 0.78985 0.19294 0.0
C1573 C 0.18089 0.7932 0.21317 0.0
C1574 C 0.15849 0.76254 0.18408 0.0
C1575 C 0.15234 0.73783 0.1952 0.0
C1576 C 0.16044 0.74117 0.2155 0.0
C1577 C 0.17455 0.76851 0.22436 0.0
C1578 C 0.1002 0.65796 0.18729 0.0
C1579 C 0.10588 0.65372 0.16739 0.0
C1580 C 0.11555 0.68502 0.19634 0.0
C1581 C 0.13703 0.70868 0.18576 0.0
C1582 C 0.14321 0.70433 0.16599 0.0
C1583 C 0.12785 0.67717 0.15692 0.0
H1584 H 0.38685 0.29169 0.06313 0.0
H1585 H 0.38789 0.24726 0.11656 0.0
H1586 H 0.42169 0.33742 0.07802 0.0
H1587 H 0.42396 0.29276 0.13132 0.0
H1588 H 0.42627 0.37405 0.15981 0.0
H1589 H 0.41571 0.32831 0.14508 0.0
H1590 H 0.46487 0.373 0.09247 0.0
H1591 H 0.47408 0.41858 0.1071 0.0
C1592 C 0.39588 0.29164 0.07762 0.0
C1593 C 0.38484 0.26618 0.08873 0.0
C1594 C 0.41589 0.31788 0.08627 0.0
C1595 C 0.42527 0.31896 0.10615 0.0
C1596 C 0.4167 0.29286 0.11622 0.0
C1597 C 0.39636 0.26675 0.10768 0.0
C1598 C 0.4359 0.37409 0.14553 0.0
C1599 C 0.45102 0.39962 0.13458 0.0
C1600 C 0.42986 0.34785 0.13697 0.0
C1601 C 0.43895 0.34678 0.11731 0.0
C1602 C 0.45695 0.37289 0.10741 0.0
C1603 C 0.4626 0.39904 0.11587 0.0
H1604 H 0.60907 0.06468 0.14863 0.0
H1605 H 0.59788 0.02931 0.08912 0.0
H1606 H 0.6568 0.10395 0.13908 0.0
H1607 H 0.64524 0.06707 0.07987 0.0
H1608 H 0.733 0.12289 0.06526 0.0
H1609 H 0.6842 0.11265 0.0733 0.0
H1610 H 0.69864 0.10124 0.13549 0.0
H1611 H 0.74706 0.11269 0.12757 0.0
C1612 C 0.61652 0.06567 0.13342 0.0
C1613 C 0.60027 0.04346 0.11984 0.0
C1614 C 0.64389 0.08805 0.12793 0.0
C1615 C 0.65538 0.08836 0.10884 0.0
C1616 C 0.63746 0.06785 0.09468 0.0
C1617 C 0.61029 0.04576 0.10011 0.0
C1618 C 0.72595 0.11927 0.08071 0.0
C1619 C 0.74335 0.11757 0.09568 0.0
C1620 C 0.69795 0.1132 0.08535 0.0
C1621 C 0.68699 0.10509 0.10497 0.0
C1622 C 0.70596 0.10721 0.12022 0.0
C1623 C 0.73378 0.1134 0.11562 0.0
H1624 H 0.88868 0.62901 0.12035 0.0
H1625 H 0.89127 0.60739 0.0585 0.0
H1626 H 0.90345 0.59522 0.13079 0.0
H1627 H 0.90501 0.57211 0.06897 0.0
H1628 H 0.99075 0.57996 0.09217 0.0
H1629 H 0.9516 0.58522 0.07955 0.0
H1630 H 0.90615 0.5532 0.1356 0.0
H1631 H 0.94663 0.5489 0.1486 0.0
C1632 C 0.89124 0.61599 0.10901 0.0
C1633 C 0.88977 0.62142 0.0886 0.0
C1634 C 0.89949 0.59629 0.11502 0.0
C1635 C 0.90647 0.58154 0.10071 0.0
C1636 C 0.90071 0.58383 0.08037 0.0
C1637 C 0.89255 0.6038 0.07433 0.0
C1638 C 0.97223 0.5736 0.10177 0.0
C1639 C 0.97218 0.56497 0.12163 0.0
C1640 C 0.94937 0.57614 0.09436 0.0
C1641 C 0.92569 0.57009 0.10661 0.0
C1642 C 0.92431 0.55862 0.12587 0.0
C1643 C 0.94742 0.55607 0.13334 0.0
H1644 H 0.28544 0.4021 0.496 0.0
H1645 H 0.26446 0.37959 0.43387 0.0
H1646 H 0.33449 0.43826 0.48635 0.0
H1647 H 0.3131 0.41425 0.42428 0.0
H1648 H 0.40291 0.46342 0.4081 0.0
H1649 H 0.35687 0.45726 0.41996 0.0
H1650 H 0.36995 0.42724 0.47696 0.0
H1651 H 0.41563 0.43438 0.46545 0.0
C1652 C 0.29101 0.4056 0.48027 0.0
C1653 C 0.27152 0.38754 0.46573 0.0
C1654 C 0.31917 0.42609 0.4747 0.0
C1655 C 0.32818 0.42852 0.45457 0.0
C1656 C 0.30731 0.41312 0.43991 0.0
C1657 C 0.27932 0.3929 0.44544 0.0
C1658 C 0.39618 0.45634 0.42333 0.0
C1659 C 0.41238 0.44852 0.43563 0.0
C1660 C 0.36978 0.45269 0.43014 0.0
C1661 C 0.35924 0.44115 0.44933 0.0
C1662 C 0.3771 0.43628 0.46218 0.0
C1663 C 0.40327 0.43993 0.45542 0.0
H1664 H 0.57618 0.95186 0.39652 0.0
H1665 H 0.53156 0.94726 0.45125 0.0
H1666 H 0.58922 0.91779 0.41003 0.0
H1667 H 0.54312 0.91189 0.46462 0.0
H1668 H 0.62454 0.91234 0.49092 0.0
H1669 H 0.58765 0.92138 0.47745 0.0
H1670 H 0.58442 0.87525 0.42348 0.0
H1671 H 0.62251 0.86771 0.4368 0.0
C1672 C 0.5677 0.94216 0.41099 0.0
C1673 C 0.553 0.95213 0.42289 0.0
C1674 C 0.57521 0.92261 0.41886 0.0
C1675 C 0.56786 0.91253 0.43872 0.0
C1676 C 0.54986 0.91978 0.44953 0.0
C1677 C 0.54284 0.9397 0.44178 0.0
C1678 C 0.61493 0.90305 0.47659 0.0
C1679 C 0.6262 0.88938 0.46487 0.0
C1680 C 0.59373 0.90821 0.46876 0.0
C1681 C 0.58335 0.89957 0.44909 0.0
C1682 C 0.59237 0.88286 0.43842 0.0
C1683 C 0.6139 0.87817 0.44614 0.0
H1684 H 0.10017 0.71459 0.49383 0.0
H1685 H 0.14891 0.75887 0.44134 0.0
H1686 H 0.0873 0.66852 0.47842 0.0
H1687 H 0.1372 0.71294 0.42605 0.0
H1688 H 0.05387 0.63676 0.39681 0.0
H1689 H 0.09117 0.68072 0.41224 0.0
H1690 H 0.09319 0.63149 0.46288 0.0
H1691 H 0.05514 0.58757 0.44738 0.0
C1692 C 0.10956 0.71445 0.47949 0.0
C1693 C 0.12545 0.74007 0.46872 0.0
C1694 C 0.10215 0.68803 0.47055 0.0
C1695 C 0.11066 0.68695 0.45073 0.0
C1696 C 0.12974 0.71295 0.44112 0.0
C1697 C 0.13677 0.73927 0.44995 0.0
C1698 C 0.06339 0.63527 0.41074 0.0
C1699 C 0.05203 0.60898 0.42085 0.0
C1700 C 0.08479 0.66046 0.41969 0.0
C1701 C 0.09501 0.65977 0.43901 0.0
C1702 C 0.08555 0.63286 0.44815 0.0
C1703 C 0.06406 0.60769 0.43919 0.0
H1704 H 0.5831 0.60122 0.97113 0.0
H1705 H 0.54437 0.60883 0.91655 0.0
H1706 H 0.5903 0.64688 0.98243 0.0
H1707 H 0.55035 0.65481 0.92838 0.0
H1708 H 0.62687 0.74919 0.93645 0.0
H1709 H 0.5913 0.69986 0.9296 0.0
H1710 H 0.58069 0.68216 0.99317 0.0
H1711 H 0.61812 0.73181 0.99987 0.0
C1712 C 0.57546 0.61246 0.96169 0.0
C1713 C 0.56414 0.60194 0.9426 0.0
C1714 C 0.57913 0.63864 0.96839 0.0
C1715 C 0.57147 0.65515 0.95623 0.0
C1716 C 0.55722 0.64309 0.93797 0.0
C1717 C 0.55365 0.61669 0.93118 0.0
C1718 C 0.6163 0.73499 0.94902 0.0
C1719 C 0.62605 0.74398 0.96865 0.0
C1720 C 0.59554 0.70654 0.9451 0.0
C1721 C 0.58385 0.68644 0.96077 0.0
C1722 C 0.59014 0.69675 0.98065 0.0
C1723 C 0.61133 0.72532 0.98457 0.0
H1724 H 0.28186 0.88648 0.9885 0.0
H1725 H 0.26414 0.89298 0.92635 0.0
H1726 H 0.33068 0.89777 0.9795 0.0
H1727 H 0.31256 0.90549 0.91743 0.0
H1728 H 0.4018 0.94662 0.90248 0.0
H1729 H 0.35575 0.90564 0.91316 0.0
H1730 H 0.36775 0.94385 0.97195 0.0
H1731 H 0.41347 0.98334 0.96155 0.0
C1732 C 0.2881 0.88941 0.97288 0.0
C1733 C 0.26968 0.88989 0.95821 0.0
C1734 C 0.31613 0.89611 0.96768 0.0
C1735 C 0.32609 0.9037 0.94781 0.0
C1736 C 0.30608 0.90005 0.93289 0.0
C1737 C 0.27823 0.8932 0.93805 0.0
C1738 C 0.39487 0.94556 0.91784 0.0
C1739 C 0.41061 0.96856 0.93098 0.0
C1740 C 0.36845 0.9222 0.92398 0.0
C1741 C 0.35744 0.9217 0.94329 0.0
C1742 C 0.37515 0.94315 0.957 0.0
C1743 C 0.40135 0.96623 0.95091 0.0
H1744 H 0.10492 0.39102 0.98595 0.0
H1745 H 0.13979 0.38407 0.92947 0.0
H1746 H 0.09554 0.4274 0.97179 0.0
H1747 H 0.13196 0.42158 0.91536 0.0
H1748 H 0.06874 0.48261 0.94539 0.0
H1749 H 0.10483 0.47089 0.95688 0.0
H1750 H 0.08841 0.41723 0.90464 0.0
H1751 H 0.05356 0.43028 0.8929 0.0
C1752 C 0.11201 0.39849 0.97082 0.0
C1753 C 0.1229 0.38479 0.95875 0.0
C1754 C 0.10666 0.4194 0.96259 0.0
C1755 C 0.11241 0.42711 0.94219 0.0
C1756 C 0.12653 0.41569 0.93092 0.0
C1757 C 0.13136 0.39446 0.93905 0.0
C1758 C 0.07416 0.46963 0.93587 0.0
C1759 C 0.05847 0.4573 0.91829 0.0
C1760 C 0.09448 0.4625 0.9426 0.0
C1761 C 0.09896 0.44235 0.93209 0.0
C1762 C 0.08574 0.43288 0.91321 0.0
C1763 C 0.06575 0.44044 0.90633 0.0
H1764 H 0.76316 0.62137 0.61889 0.0
H1765 H 0.71749 0.61827 0.56511 0.0
H1766 H 0.71855 0.58394 0.63392 0.0
H1767 H 0.6726 0.58198 0.58021 0.0
H1768 H 0.63471 0.57793 0.66123 0.0
H1769 H 0.68116 0.58961 0.64727 0.0
H1770 H 0.63876 0.53823 0.595 0.0
H1771 H 0.59244 0.52796 0.60877 0.0
C1772 C 0.74364 0.61172 0.61002 0.0
C1773 C 0.74356 0.6224 0.59086 0.0
C1774 C 0.71803 0.59058 0.61869 0.0
C1775 C 0.69173 0.58032 0.60854 0.0
C1776 C 0.69231 0.58904 0.58852 0.0
C1777 C 0.71807 0.60989 0.57976 0.0
C1778 C 0.63532 0.56797 0.64726 0.0
C1779 C 0.61019 0.55215 0.63604 0.0
C1780 C 0.66201 0.57471 0.63912 0.0
C1781 C 0.66388 0.56549 0.61967 0.0
C1782 C 0.63823 0.54636 0.60974 0.0
C1783 C 0.61165 0.54008 0.61774 0.0
H1784 H 0.39633 0.1454 0.61674 0.0
H1785 H 0.38546 0.09688 0.56287 0.0
H1786 H 0.43241 0.1339 0.62864 0.0
H1787 H 0.42008 0.08378 0.57501 0.0
H1788 H 0.43265 0.05353 0.65614 0.0
H1789 H 0.42357 0.09032 0.64252 0.0
H1790 H 0.46286 0.0877 0.58654 0.0
H1791 H 0.47024 0.04958 0.60008 0.0
C1792 C 0.40263 0.13323 0.6071 0.0
C1793 C 0.38828 0.12197 0.58893 0.0
C1794 C 0.42296 0.12624 0.61402 0.0
C1795 C 0.42861 0.10711 0.60316 0.0
C1796 C 0.41655 0.09864 0.58387 0.0
C1797 C 0.39665 0.10616 0.57678 0.0
C1798 C 0.4404 0.06178 0.64125 0.0
C1799 C 0.45201 0.04885 0.62911 0.0
C1800 C 0.43525 0.08295 0.63333 0.0
C1801 C 0.44191 0.09168 0.61316 0.0
C1802 C 0.45673 0.08101 0.6019 0.0
C1803 C 0.46132 0.05946 0.60971 0.0
H1804 H 0.98219 0.4125 0.58477 0.0
H1805 H 0.94715 0.40454 0.64414 0.0
H1806 H 0.94334 0.36568 0.57614 0.0
H1807 H 0.90645 0.35748 0.6351 0.0
H1808 H 0.89146 0.26473 0.62614 0.0
H1809 H 0.90416 0.31377 0.63274 0.0
H1810 H 0.8988 0.32749 0.56942 0.0
H1811 H 0.88793 0.27819 0.56278 0.0
C1812 C 0.9656 0.40094 0.59588 0.0
C1813 C 0.96836 0.4117 0.61542 0.0
C1814 C 0.94279 0.37401 0.59077 0.0
C1815 C 0.92184 0.35704 0.60504 0.0
C1816 C 0.92268 0.36943 0.62388 0.0
C1817 C 0.94588 0.39651 0.62909 0.0
C1818 C 0.89231 0.27799 0.61361 0.0
C1819 C 0.88996 0.26805 0.59386 0.0
C1820 C 0.89931 0.30629 0.61744 0.0
C1821 C 0.90383 0.32531 0.60157 0.0
C1822 C 0.8968 0.31387 0.58199 0.0
C1823 C 0.89019 0.28548 0.57813 0.0
H1824 H 0.92594 0.71087 0.76493 0.0
H1825 H 0.94563 0.72639 0.82784 0.0
H1826 H 0.97464 0.74667 0.75652 0.0
H1827 H 0.99469 0.76388 0.81947 0.0
H1828 H 0.07594 0.76164 0.79731 0.0
H1829 H 0.03042 0.75439 0.80913 0.0
H1830 H 0.01881 0.7889 0.7536 0.0
H1831 H 0.0647 0.79505 0.74136 0.0
C1832 C 0.9405 0.72294 0.777 0.0
C1833 C 0.93236 0.71517 0.79704 0.0
C1834 C 0.96856 0.74383 0.77216 0.0
C1835 C 0.98916 0.75757 0.78729 0.0
C1836 C 0.97967 0.75295 0.8074 0.0
C1837 C 0.95147 0.73171 0.81226 0.0
C1838 C 0.06393 0.76816 0.78769 0.0
C1839 C 0.07336 0.77794 0.76812 0.0
C1840 C 0.03784 0.76444 0.79464 0.0
C1841 C 0.02034 0.77045 0.78223 0.0
C1842 C 0.03135 0.78334 0.76341 0.0
C1843 C 0.05768 0.78702 0.75639 0.0
H1844 H 0.19578 0.2803 0.77305 0.0
H1845 H 0.25123 0.29526 0.72237 0.0
H1846 H 0.20681 0.24429 0.78585 0.0
H1847 H 0.26349 0.2604 0.73541 0.0
H1848 H 0.28649 0.24715 0.81782 0.0
H1849 H 0.25018 0.25517 0.80206 0.0
H1850 H 0.25857 0.21677 0.74736 0.0
H1851 H 0.29586 0.21005 0.76314 0.0
C1852 C 0.20926 0.27478 0.76416 0.0
C1853 C 0.2227 0.29045 0.74676 0.0
C1854 C 0.21597 0.2545 0.77165 0.0
C1855 C 0.23678 0.25004 0.76208 0.0
C1856 C 0.24733 0.2631 0.74327 0.0
C1857 C 0.24022 0.28308 0.73563 0.0
C1858 C 0.2795 0.23921 0.80277 0.0
C1859 C 0.29374 0.22794 0.79168 0.0
C1860 C 0.25866 0.2438 0.79362 0.0
C1861 C 0.25171 0.2371 0.77321 0.0
C1862 C 0.26377 0.22276 0.76292 0.0
C1863 C 0.28485 0.21855 0.77201 0.0
H1864 H 0.72333 0.96389 0.73187 0.0
H1865 H 0.72258 0.91844 0.78524 0.0
H1866 H 0.75802 0.00928 0.74724 0.0
H1867 H 0.75857 0.96358 0.80048 0.0
H1868 H 0.81122 0.0899 0.77668 0.0
H1869 H 0.80104 0.04416 0.76185 0.0
H1870 H 0.75164 0.99969 0.81444 0.0
H1871 H 0.76335 0.04563 0.82944 0.0
C1872 C 0.73191 0.96356 0.74648 0.0
C1873 C 0.72047 0.9379 0.75741 0.0
C1874 C 0.75184 0.98959 0.7554 0.0
C1875 C 0.76078 0.9903 0.77537 0.0
C1876 C 0.75167 0.96401 0.78532 0.0
C1877 C 0.73137 0.9381 0.77652 0.0
C1878 C 0.79943 0.07034 0.78539 0.0
C1879 C 0.78813 0.07107 0.80418 0.0
C1880 C 0.79322 0.0441 0.7768 0.0
C1881 C 0.77487 0.01804 0.78664 0.0
C1882 C 0.76602 0.01918 0.80637 0.0
C1883 C 0.77272 0.04553 0.81508 0.0
H1884 H 0.20375 0.92048 0.29264 0.0
H1885 H 0.24025 0.96119 0.23617 0.0
H1886 H 0.21192 0.96626 0.30612 0.0
H1887 H 0.25002 0.00731 0.24971 0.0
H1888 H 0.28008 0.09004 0.27525 0.0
H1889 H 0.24249 0.04281 0.26398 0.0
H1890 H 0.25562 1.0046 0.31707 0.0
H1891 H 0.29187 0.052 0.32859 0.0
C1892 C 0.21247 0.93912 0.28288 0.0
C1893 C 0.22134 0.93749 0.26339 0.0
C1894 C 0.21755 0.96545 0.29067 0.0
C1895 C 0.23239 0.9908 0.27928 0.0
C1896 C 0.23838 0.98839 0.25901 0.0
C1897 C 0.23278 0.96189 0.25112 0.0
C1898 C 0.27362 0.07162 0.28498 0.0
C1899 C 0.28874 0.07449 0.30277 0.0
C1900 C 0.25242 0.04448 0.27839 0.0
C1901 C 0.24657 0.01962 0.28921 0.0
C1902 C 0.25931 0.02308 0.30825 0.0
C1903 C 0.28014 0.05035 0.315 0.0
H1904 H 0.94513 0.21807 0.32553 0.0
H1905 H 0.92756 0.23032 0.26443 0.0
H1906 H 0.99299 0.22745 0.31545 0.0
H1907 H 0.97508 0.24104 0.25453 0.0
H1908 H 0.06352 0.27785 0.23832 0.0
H1909 H 0.01631 0.23837 0.2486 0.0
H1910 H 0.03228 0.2724 0.30888 0.0
H1911 H 0.07915 0.31025 0.29883 0.0
C1912 C 0.95118 0.22192 0.30989 0.0
C1913 C 0.93311 0.22446 0.29589 0.0
C1914 C 0.97867 0.22756 0.30408 0.0
C1915 C 0.9885 0.23611 0.28427 0.0
C1916 C 0.96872 0.23474 0.26991 0.0
C1917 C 0.94139 0.22894 0.27566 0.0
C1918 C 0.05717 0.27611 0.25388 0.0
C1919 C 0.0745 0.2976 0.26762 0.0
C1920 C 0.03006 0.25364 0.25979 0.0
C1921 C 0.01989 0.25256 0.27948 0.0
C1922 C 0.03896 0.27221 0.29362 0.0
C1923 C 0.06588 0.29436 0.28776 0.0
H1924 H 0.75757 0.68826 0.24991 0.0
H1925 H 0.79395 0.7326 0.3055 0.0
H1926 H 0.75104 0.72717 0.23877 0.0
H1927 H 0.78875 0.77315 0.29384 0.0
H1928 H 0.71293 0.79173 0.28488 0.0
H1929 H 0.74844 0.77797 0.29201 0.0
H1930 H 0.76052 0.77197 0.22852 0.0
H1931 H 0.72303 0.78403 0.22152 0.0
C1932 C 0.76483 0.7068 0.25962 0.0
C1933 C 0.77523 0.70686 0.27893 0.0
C1934 C 0.76157 0.7296 0.25302 0.0
C1935 C 0.76876 0.75336 0.26549 0.0
C1936 C 0.7822 0.75487 0.284 0.0
C1937 C 0.78532 0.73173 0.2907 0.0
C1938 C 0.72379 0.78831 0.27239 0.0
C1939 C 0.71439 0.78774 0.25267 0.0
C1940 C 0.74453 0.78063 0.27648 0.0
C1941 C 0.75658 0.77247 0.26089 0.0
C1942 C 0.75073 0.77683 0.24097 0.0
C1943 C 0.72951 0.78413 0.23688 0.0
loop_
_geom_bond_atom_site_label_1
_geom_bond_atom_site_label_2
_geom_bond_distance
_geom_bond_site_symmetry_2
_ccdc_geom_bond_type
O0 Cd1 2.223 . S
O0 C8 1.315 . S
Cd1 O0 2.223 . S
Cd1 O4 2.297 . S
Cd1 O5 2.439 . S
Cd1 O11 2.240 . S
Cd2 O3 2.240 . S
Cd2 O10 2.223 . S
Cd2 O12 2.297 . S
Cd2 O13 2.439 . S
O3 Cd2 2.240 . S
O3 C8 1.279 . S
O4 Cd1 2.297 . S
O4 C6 1.247 . S
O5 Cd1 2.439 . S
O5 C6 1.208 . S
C6 O4 1.247 . S
C6 O5 1.208 . S
C7 O12 1.247 . S
C7 O13 1.208 . S
C8 O0 1.315 . S
C8 O3 1.279 . S
C9 O10 1.315 . S
C9 O11 1.279 . S
O10 Cd2 2.223 . S
O10 C9 1.315 . S
O11 Cd1 2.240 . S
O11 C9 1.279 . S
O12 Cd2 2.297 . S
O12 C7 1.247 . S
O13 Cd2 2.439 . S
O13 C7 1.208 . S
O14 Cd15 2.223 . S
O14 C22 1.315 . S
Cd15 O14 2.223 . S
Cd15 O18 2.297 . S
Cd15 O19 2.439 . S
Cd15 O25 2.240 . S
Cd16 O17 2.240 . S
Cd16 O24 2.223 . S
Cd16 O26 2.297 . S
Cd16 O27 2.439 . S
O17 Cd16 2.240 . S
O17 C22 1.279 . S
O18 Cd15 2.297 . S
O18 C20 1.247 . S
O19 Cd15 2.439 . S
O19 C20 1.208 . S
C20 O18 1.247 . S
C20 O19 1.208 . S
C21 O26 1.247 . S
C21 O27 1.208 . S
C22 O14 1.315 . S
C22 O17 1.279 . S
C23 O24 1.315 . S
C23 O25 1.279 . S
O24 Cd16 2.223 . S
O24 C23 1.315 . S
O25 Cd15 2.240 . S
O25 C23 1.279 . S
O26 Cd16 2.297 . S
O26 C21 1.247 . S
O27 Cd16 2.439 . S
O27 C21 1.208 . S
O28 Cd29 2.223 . S
O28 C36 1.315 . S
Cd29 O28 2.223 . S
Cd29 O32 2.297 . S
Cd29 O33 2.439 . S
Cd29 O39 2.240 . S
Cd30 O31 2.240 . S
Cd30 O38 2.223 . S
Cd30 O40 2.297 . S
Cd30 O41 2.439 . S
O31 Cd30 2.240 . S
O31 C36 1.279 . S
O32 Cd29 2.297 . S
O32 C34 1.247 . S
O33 Cd29 2.439 . S
O33 C34 1.208 . S
C34 O32 1.247 . S
C34 O33 1.208 . S
C35 O40 1.247 . S
C35 O41 1.208 . S
C36 O28 1.315 . S
C36 O31 1.279 . S
C37 O38 1.315 . S
C37 O39 1.279 . S
O38 Cd30 2.223 . S
O38 C37 1.315 . S
O39 Cd29 2.240 . S
O39 C37 1.279 . S
O40 Cd30 2.297 . S
O40 C35 1.247 . S
O41 Cd30 2.439 . S
O41 C35 1.208 . S
O42 Cd43 2.223 . S
O42 C50 1.315 . S
Cd43 O42 2.223 . S
Cd43 O46 2.297 . S
Cd43 O47 2.439 . S
Cd43 O53 2.240 . S
Cd44 O45 2.240 . S
Cd44 O52 2.223 . S
Cd44 O54 2.297 . S
Cd44 O55 2.439 . S
O45 Cd44 2.240 . S
O45 C50 1.279 . S
O46 Cd43 2.297 . S
O46 C48 1.247 . S
O47 Cd43 2.439 . S
O47 C48 1.208 . S
C48 O46 1.247 . S
C48 O47 1.208 . S
C49 O54 1.247 . S
C49 O55 1.208 . S
C50 O42 1.315 . S
C50 O45 1.279 . S
C51 O52 1.315 . S
C51 O53 1.279 . S
O52 Cd44 2.223 . S
O52 C51 1.315 . S
O53 Cd43 2.240 . S
O53 C51 1.279 . S
O54 Cd44 2.297 . S
O54 C49 1.247 . S
O55 Cd44 2.439 . S
O55 C49 1.208 . S
O56 Cd57 2.223 . S
O56 C64 1.315 . S
Cd57 O56 2.223 . S
Cd57 O60 2.297 . S
Cd57 O61 2.439 . S
Cd57 O67 2.240 . S
Cd58 O59 2.240 . S
Cd58 O66 2.223 . S
Cd58 O68 2.297 . S
Cd58 O69 2.439 . S
O59 Cd58 2.240 . S
O59 C64 1.279 . S
O60 Cd57 2.297 . S
O60 C62 1.247 . S
O61 Cd57 2.439 . S
O61 C62 1.208 . S
C62 O60 1.247 . S
C62 O61 1.208 . S
C63 O68 1.247 . S
C63 O69 1.208 . S
C64 O56 1.315 . S
C64 O59 1.279 . S
C65 O66 1.315 . S
C65 O67 1.279 . S
O66 Cd58 2.223 . S
O66 C65 1.315 . S
O67 Cd57 2.240 . S
O67 C65 1.279 . S
O68 Cd58 2.297 . S
O68 C63 1.247 . S
O69 Cd58 2.439 . S
O69 C63 1.208 . S
O70 Cd71 2.223 . S
O70 C78 1.315 . S
Cd71 O70 2.223 . S
Cd71 O74 2.297 . S
Cd71 O75 2.439 . S
Cd71 O81 2.240 . S
Cd72 O73 2.240 . S
Cd72 O80 2.223 . S
Cd72 O82 2.297 . S
Cd72 O83 2.439 . S
O73 Cd72 2.240 . S
O73 C78 1.279 . S
O74 Cd71 2.297 . S
O74 C76 1.247 . S
O75 Cd71 2.439 . S
O75 C76 1.208 . S
C76 O74 1.247 . S
C76 O75 1.208 . S
C77 O82 1.247 . S
C77 O83 1.208 . S
C78 O70 1.315 . S
C78 O73 1.279 . S
C79 O80 1.315 . S
C79 O81 1.279 . S
O80 Cd72 2.223 . S
O80 C79 1.315 . S
O81 Cd71 2.240 . S
O81 C79 1.279 . S
O82 Cd72 2.297 . S
O82 C77 1.247 . S
O83 Cd72 2.439 . S
O83 C77 1.208 . S
O84 Cd85 2.223 . S
O84 C92 1.315 . S
Cd85 O84 2.223 . S
Cd85 O88 2.297 . S
Cd85 O89 2.439 . S
Cd85 O95 2.240 . S
Cd86 O87 2.240 . S
Cd86 O94 2.223 . S
Cd86 O96 2.297 . S
Cd86 O97 2.439 . S
O87 Cd86 2.240 . S
O87 C92 1.279 . S
O88 Cd85 2.297 . S
O88 C90 1.247 . S
O89 Cd85 2.439 . S
O89 C90 1.208 . S
C90 O88 1.247 . S
C90 O89 1.208 . S
C91 O96 1.247 . S
C91 O97 1.208 . S
C92 O84 1.315 . S
C92 O87 1.279 . S
C93 O94 1.315 . S
C93 O95 1.279 . S
O94 Cd86 2.223 . S
O94 C93 1.315 . S
O95 Cd85 2.240 . S
O95 C93 1.279 . S
O96 Cd86 2.297 . S
O96 C91 1.247 . S
O97 Cd86 2.439 . S
O97 C91 1.208 . S
O98 Cd99 2.223 . S
O98 C106 1.315 . S
Cd99 O98 2.223 . S
Cd99 O102 2.297 . S
Cd99 O103 2.439 . S
Cd99 O109 2.240 . S
Cd100 O101 2.240 . S
Cd100 O108 2.223 . S
Cd100 O110 2.297 . S
Cd100 O111 2.439 . S
O101 Cd100 2.240 . S
O101 C106 1.279 . S
O102 Cd99 2.297 . S
O102 C104 1.247 . S
O103 Cd99 2.439 . S
O103 C104 1.208 . S
C104 O102 1.247 . S
C104 O103 1.208 . S
C105 O110 1.247 . S
C105 O111 1.208 . S
C106 O98 1.315 . S
C106 O101 1.279 . S
C107 O108 1.315 . S
C107 O109 1.279 . S
O108 Cd100 2.223 . S
O108 C107 1.315 . S
O109 Cd99 2.240 . S
O109 C107 1.279 . S
O110 Cd100 2.297 . S
O110 C105 1.247 . S
O111 Cd100 2.439 . S
O111 C105 1.208 . S
O112 Cd113 2.223 . S
O112 C120 1.315 . S
Cd113 O112 2.223 . S
Cd113 O116 2.297 . S
Cd113 O117 2.439 . S
Cd113 O123 2.240 . S
Cd114 O115 2.240 . S
Cd114 O122 2.223 . S
Cd114 O124 2.297 . S
Cd114 O125 2.439 . S
O115 Cd114 2.240 . S
O115 C120 1.279 . S
O116 Cd113 2.297 . S
O116 C118 1.247 . S
O117 Cd113 2.439 . S
O117 C118 1.208 . S
C118 O116 1.247 . S
C118 O117 1.208 . S
C119 O124 1.247 . S
C119 O125 1.208 . S
C120 O112 1.315 . S
C120 O115 1.279 . S
C121 O122 1.315 . S
C121 O123 1.279 . S
O122 Cd114 2.223 . S
O122 C121 1.315 . S
O123 Cd113 2.240 . S
O123 C121 1.279 . S
O124 Cd114 2.297 . S
O124 C119 1.247 . S
O125 Cd114 2.439 . S
O125 C119 1.208 . S
O126 Cd127 2.223 . S
O126 C134 1.315 . S
Cd127 O126 2.223 . S
Cd127 O130 2.297 . S
Cd127 O131 2.439 . S
Cd127 O137 2.240 . S
Cd128 O129 2.240 . S
Cd128 O136 2.223 . S
Cd128 O138 2.297 . S
Cd128 O139 2.439 . S
O129 Cd128 2.240 . S
O129 C134 1.279 . S
O130 Cd127 2.297 . S
O130 C132 1.247 . S
O131 Cd127 2.439 . S
O131 C132 1.208 . S
C132 O130 1.247 . S
C132 O131 1.208 . S
C133 O138 1.247 . S
C133 O139 1.208 . S
C134 O126 1.315 . S
C134 O129 1.279 . S
C135 O136 1.315 . S
C135 O137 1.279 . S
O136 Cd128 2.223 . S
O136 C135 1.315 . S
O137 Cd127 2.240 . S
O137 C135 1.279 . S
O138 Cd128 2.297 . S
O138 C133 1.247 . S
O139 Cd128 2.439 . S
O139 C133 1.208 . S
O140 Cd141 2.223 . S
O140 C148 1.315 . S
Cd141 O140 2.223 . S
Cd141 O144 2.297 . S
Cd141 O145 2.439 . S
Cd141 O151 2.240 . S
Cd142 O143 2.240 . S
Cd142 O150 2.223 . S
Cd142 O152 2.297 . S
Cd142 O153 2.439 . S
O143 Cd142 2.240 . S
O143 C148 1.279 . S
O144 Cd141 2.297 . S
O144 C146 1.247 . S
O145 Cd141 2.439 . S
O145 C146 1.208 . S
C146 O144 1.247 . S
C146 O145 1.208 . S
C147 O152 1.247 . S
C147 O153 1.208 . S
C148 O140 1.315 . S
C148 O143 1.279 . S
C149 O150 1.315 . S
C149 O151 1.279 . S
O150 Cd142 2.223 . S
O150 C149 1.315 . S
O151 Cd141 2.240 . S
O151 C149 1.279 . S
O152 Cd142 2.297 . S
O152 C147 1.247 . S
O153 Cd142 2.439 . S
O153 C147 1.208 . S
O154 Cd155 2.223 . S
O154 C162 1.315 . S
Cd155 O154 2.223 . S
Cd155 O158 2.297 . S
Cd155 O159 2.439 . S
Cd155 O165 2.240 . S
Cd156 O157 2.240 . S
Cd156 O164 2.223 . S
Cd156 O166 2.297 . S
Cd156 O167 2.439 . S
O157 Cd156 2.240 . S
O157 C162 1.279 . S
O158 Cd155 2.297 . S
O158 C160 1.247 . S
O159 Cd155 2.439 . S
O159 C160 1.208 . S
C160 O158 1.247 . S
C160 O159 1.208 . S
C161 O166 1.247 . S
C161 O167 1.208 . S
C162 O154 1.315 . S
C162 O157 1.279 . S
C163 O164 1.315 . S
C163 O165 1.279 . S
O164 Cd156 2.223 . S
O164 C163 1.315 . S
O165 Cd155 2.240 . S
O165 C163 1.279 . S
O166 Cd156 2.297 . S
O166 C161 1.247 . S
O167 Cd156 2.439 . S
O167 C161 1.208 . S
O168 Cd169 2.223 . S
O168 C176 1.315 . S
Cd169 O168 2.223 . S
Cd169 O172 2.297 . S
Cd169 O173 2.439 . S
Cd169 O179 2.240 . S
Cd170 O171 2.240 . S
Cd170 O178 2.223 . S
Cd170 O180 2.297 . S
Cd170 O181 2.439 . S
O171 Cd170 2.240 . S
O171 C176 1.279 . S
O172 Cd169 2.297 . S
O172 C174 1.247 . S
O173 Cd169 2.439 . S
O173 C174 1.208 . S
C174 O172 1.247 . S
C174 O173 1.208 . S
C175 O180 1.247 . S
C175 O181 1.208 . S
C176 O168 1.315 . S
C176 O171 1.279 . S
C177 O178 1.315 . S
C177 O179 1.279 . S
O178 Cd170 2.223 . S
O178 C177 1.315 . S
O179 Cd169 2.240 . S
O179 C177 1.279 . S
O180 Cd170 2.297 . S
O180 C175 1.247 . S
O181 Cd170 2.439 . S
O181 C175 1.208 . S
O182 Cd183 2.223 . S
O182 C190 1.315 . S
Cd183 O182 2.223 . S
Cd183 O186 2.297 . S
Cd183 O187 2.439 . S
Cd183 O193 2.240 . S
Cd184 O185 2.240 . S
Cd184 O192 2.223 . S
Cd184 O194 2.297 . S
Cd184 O195 2.439 . S
O185 Cd184 2.240 . S
O185 C190 1.279 . S
O186 Cd183 2.297 . S
O186 C188 1.247 . S
O187 Cd183 2.439 . S
O187 C188 1.208 . S
C188 O186 1.247 . S
C188 O187 1.208 . S
C189 O194 1.247 . S
C189 O195 1.208 . S
C190 O182 1.315 . S
C190 O185 1.279 . S
C191 O192 1.315 . S
C191 O193 1.279 . S
O192 Cd184 2.223 . S
O192 C191 1.315 . S
O193 Cd183 2.240 . S
O193 C191 1.279 . S
O194 Cd184 2.297 . S
O194 C189 1.247 . S
O195 Cd184 2.439 . S
O195 C189 1.208 . S
O196 Cd197 2.223 . S
O196 C204 1.315 . S
Cd197 O196 2.223 . S
Cd197 O200 2.297 . S
Cd197 O201 2.439 . S
Cd197 O207 2.240 . S
Cd198 O199 2.240 . S
Cd198 O206 2.223 . S
Cd198 O208 2.297 . S
Cd198 O209 2.439 . S
O199 Cd198 2.240 . S
O199 C204 1.279 . S
O200 Cd197 2.297 . S
O200 C202 1.247 . S
O201 Cd197 2.439 . S
O201 C202 1.208 . S
C202 O200 1.247 . S
C202 O201 1.208 . S
C203 O208 1.247 . S
C203 O209 1.208 . S
C204 O196 1.315 . S
C204 O199 1.279 . S
C205 O206 1.315 . S
C205 O207 1.279 . S
O206 Cd198 2.223 . S
O206 C205 1.315 . S
O207 Cd197 2.240 . S
O207 C205 1.279 . S
O208 Cd198 2.297 . S
O208 C203 1.247 . S
O209 Cd198 2.439 . S
O209 C203 1.208 . S
O210 Cd211 2.223 . S
O210 C218 1.315 . S
Cd211 O210 2.223 . S
Cd211 O214 2.297 . S
Cd211 O215 2.439 . S
Cd211 O221 2.240 . S
Cd212 O213 2.240 . S
Cd212 O220 2.223 . S
Cd212 O222 2.297 . S
Cd212 O223 2.439 . S
O213 Cd212 2.240 . S
O213 C218 1.279 . S
O214 Cd211 2.297 . S
O214 C216 1.247 . S
O215 Cd211 2.439 . S
O215 C216 1.208 . S
C216 O214 1.247 . S
C216 O215 1.208 . S
C217 O222 1.247 . S
C217 O223 1.208 . S
C218 O210 1.315 . S
C218 O213 1.279 . S
C219 O220 1.315 . S
C219 O221 1.279 . S
O220 Cd212 2.223 . S
O220 C219 1.315 . S
O221 Cd211 2.240 . S
O221 C219 1.279 . S
O222 Cd212 2.297 . S
O222 C217 1.247 . S
O223 Cd212 2.439 . S
O223 C217 1.208 . S
O224 Cd225 2.223 . S
O224 C232 1.315 . S
Cd225 O224 2.223 . S
Cd225 O228 2.297 . S
Cd225 O229 2.439 . S
Cd225 O235 2.240 . S
Cd226 O227 2.240 . S
Cd226 O234 2.223 . S
Cd226 O236 2.297 . S
Cd226 O237 2.439 . S
O227 Cd226 2.240 . S
O227 C232 1.279 . S
O228 Cd225 2.297 . S
O228 C230 1.247 . S
O229 Cd225 2.439 . S
O229 C230 1.208 . S
C230 O228 1.247 . S
C230 O229 1.208 . S
C231 O236 1.247 . S
C231 O237 1.208 . S
C232 O224 1.315 . S
C232 O227 1.279 . S
C233 O234 1.315 . S
C233 O235 1.279 . S
O234 Cd226 2.223 . S
O234 C233 1.315 . S
O235 Cd225 2.240 . S
O235 C233 1.279 . S
O236 Cd226 2.297 . S
O236 C231 1.247 . S
O237 Cd226 2.439 . S
O237 C231 1.208 . S
O238 Cd239 2.223 . S
O238 C246 1.315 . S
Cd239 O238 2.223 . S
Cd239 O242 2.297 . S
Cd239 O243 2.439 . S
Cd239 O249 2.240 . S
Cd240 O241 2.240 . S
Cd240 O248 2.223 . S
Cd240 O250 2.297 . S
Cd240 O251 2.439 . S
O241 Cd240 2.240 . S
O241 C246 1.279 . S
O242 Cd239 2.297 . S
O242 C244 1.247 . S
O243 Cd239 2.439 . S
O243 C244 1.208 . S
C244 O242 1.247 . S
C244 O243 1.208 . S
C245 O250 1.247 . S
C245 O251 1.208 . S
C246 O238 1.315 . S
C246 O241 1.279 . S
C247 O248 1.315 . S
C247 O249 1.279 . S
O248 Cd240 2.223 . S
O248 C247 1.315 . S
O249 Cd239 2.240 . S
O249 C247 1.279 . S
O250 Cd240 2.297 . S
O250 C245 1.247 . S
O251 Cd240 2.439 . S
O251 C245 1.208 . S
O252 Cd253 2.223 . S
O252 C260 1.315 . S
Cd253 O252 2.223 . S
Cd253 O256 2.297 . S
Cd253 O257 2.439 . S
Cd253 O263 2.240 . S
Cd254 O255 2.240 . S
Cd254 O262 2.223 . S
Cd254 O264 2.297 . S
Cd254 O265 2.439 . S
O255 Cd254 2.240 . S
O255 C260 1.279 . S
O256 Cd253 2.297 . S
O256 C258 1.247 . S
O257 Cd253 2.439 . S
O257 C258 1.208 . S
C258 O256 1.247 . S
C258 O257 1.208 . S
C259 O264 1.247 . S
C259 O265 1.208 . S
C260 O252 1.315 . S
C260 O255 1.279 . S
C261 O262 1.315 . S
C261 O263 1.279 . S
O262 Cd254 2.223 . S
O262 C261 1.315 . S
O263 Cd253 2.240 . S
O263 C261 1.279 . S
O264 Cd254 2.297 . S
O264 C259 1.247 . S
O265 Cd254 2.439 . S
O265 C259 1.208 . S
O266 Cd267 2.223 . S
O266 C274 1.315 . S
Cd267 O266 2.223 . S
Cd267 O270 2.297 . S
Cd267 O271 2.439 . S
Cd267 O277 2.240 . S
Cd268 O269 2.240 . S
Cd268 O276 2.223 . S
Cd268 O278 2.297 . S
Cd268 O279 2.439 . S
O269 Cd268 2.240 . S
O269 C274 1.279 . S
O270 Cd267 2.297 . S
O270 C272 1.247 . S
O271 Cd267 2.439 . S
O271 C272 1.208 . S
C272 O270 1.247 . S
C272 O271 1.208 . S
C273 O278 1.247 . S
C273 O279 1.208 . S
C274 O266 1.315 . S
C274 O269 1.279 . S
C275 O276 1.315 . S
C275 O277 1.279 . S
O276 Cd268 2.223 . S
O276 C275 1.315 . S
O277 Cd267 2.240 . S
O277 C275 1.279 . S
O278 Cd268 2.297 . S
O278 C273 1.247 . S
O279 Cd268 2.439 . S
O279 C273 1.208 . S
O280 Cd281 2.223 . S
O280 C288 1.315 . S
Cd281 O280 2.223 . S
Cd281 O284 2.297 . S
Cd281 O285 2.439 . S
Cd281 O291 2.240 . S
Cd282 O283 2.240 . S
Cd282 O290 2.223 . S
Cd282 O292 2.297 . S
Cd282 O293 2.439 . S
O283 Cd282 2.240 . S
O283 C288 1.279 . S
O284 Cd281 2.297 . S
O284 C286 1.247 . S
O285 Cd281 2.439 . S
O285 C286 1.208 . S
C286 O284 1.247 . S
C286 O285 1.208 . S
C287 O292 1.247 . S
C287 O293 1.208 . S
C288 O280 1.315 . S
C288 O283 1.279 . S
C289 O290 1.315 . S
C289 O291 1.279 . S
O290 Cd282 2.223 . S
O290 C289 1.315 . S
O291 Cd281 2.240 . S
O291 C289 1.279 . S
O292 Cd282 2.297 . S
O292 C287 1.247 . S
O293 Cd282 2.439 . S
O293 C287 1.208 . S
O294 Cd295 2.223 . S
O294 C302 1.315 . S
Cd295 O294 2.223 . S
Cd295 O298 2.297 . S
Cd295 O299 2.439 . S
Cd295 O305 2.240 . S
Cd296 O297 2.240 . S
Cd296 O304 2.223 . S
Cd296 O306 2.297 . S
Cd296 O307 2.439 . S
O297 Cd296 2.240 . S
O297 C302 1.279 . S
O298 Cd295 2.297 . S
O298 C300 1.247 . S
O299 Cd295 2.439 . S
O299 C300 1.208 . S
C300 O298 1.247 . S
C300 O299 1.208 . S
C301 O306 1.247 . S
C301 O307 1.208 . S
C302 O294 1.315 . S
C302 O297 1.279 . S
C303 O304 1.315 . S
C303 O305 1.279 . S
O304 Cd296 2.223 . S
O304 C303 1.315 . S
O305 Cd295 2.240 . S
O305 C303 1.279 . S
O306 Cd296 2.297 . S
O306 C301 1.247 . S
O307 Cd296 2.439 . S
O307 C301 1.208 . S
O308 Cd309 2.223 . S
O308 C316 1.315 . S
Cd309 O308 2.223 . S
Cd309 O312 2.297 . S
Cd309 O313 2.439 . S
Cd309 O319 2.240 . S
Cd310 O311 2.240 . S
Cd310 O318 2.223 . S
Cd310 O320 2.297 . S
Cd310 O321 2.439 . S
O311 Cd310 2.240 . S
O311 C316 1.279 . S
O312 Cd309 2.297 . S
O312 C314 1.247 . S
O313 Cd309 2.439 . S
O313 C314 1.208 . S
C314 O312 1.247 . S
C314 O313 1.208 . S
C315 O320 1.247 . S
C315 O321 1.208 . S
C316 O308 1.315 . S
C316 O311 1.279 . S
C317 O318 1.315 . S
C317 O319 1.279 . S
O318 Cd310 2.223 . S
O318 C317 1.315 . S
O319 Cd309 2.240 . S
O319 C317 1.279 . S
O320 Cd310 2.297 . S
O320 C315 1.247 . S
O321 Cd310 2.439 . S
O321 C315 1.208 . S
O322 Cd323 2.223 . S
O322 C330 1.315 . S
Cd323 O322 2.223 . S
Cd323 O326 2.297 . S
Cd323 O327 2.439 . S
Cd323 O333 2.240 . S
Cd324 O325 2.240 . S
Cd324 O332 2.223 . S
Cd324 O334 2.297 . S
Cd324 O335 2.439 . S
O325 Cd324 2.240 . S
O325 C330 1.279 . S
O326 Cd323 2.297 . S
O326 C328 1.247 . S
O327 Cd323 2.439 . S
O327 C328 1.208 . S
C328 O326 1.247 . S
C328 O327 1.208 . S
C329 O334 1.247 . S
C329 O335 1.208 . S
C330 O322 1.315 . S
C330 O325 1.279 . S
C331 O332 1.315 . S
C331 O333 1.279 . S
O332 Cd324 2.223 . S
O332 C331 1.315 . S
O333 Cd323 2.240 . S
O333 C331 1.279 . S
O334 Cd324 2.297 . S
O334 C329 1.247 . S
O335 Cd324 2.439 . S
O335 C329 1.208 . S
O336 Cd337 2.223 . S
O336 C344 1.315 . S
Cd337 O336 2.223 . S
Cd337 O340 2.297 . S
Cd337 O341 2.439 . S
Cd337 O347 2.240 . S
Cd338 O339 2.240 . S
Cd338 O346 2.223 . S
Cd338 O348 2.297 . S
Cd338 O349 2.439 . S
O339 Cd338 2.240 . S
O339 C344 1.279 . S
O340 Cd337 2.297 . S
O340 C342 1.247 . S
O341 Cd337 2.439 . S
O341 C342 1.208 . S
C342 O340 1.247 . S
C342 O341 1.208 . S
C343 O348 1.247 . S
C343 O349 1.208 . S
C344 O336 1.315 . S
C344 O339 1.279 . S
C345 O346 1.315 . S
C345 O347 1.279 . S
O346 Cd338 2.223 . S
O346 C345 1.315 . S
O347 Cd337 2.240 . S
O347 C345 1.279 . S
O348 Cd338 2.297 . S
O348 C343 1.247 . S
O349 Cd338 2.439 . S
O349 C343 1.208 . S
O350 Cd351 2.223 . S
O350 C358 1.315 . S
Cd351 O350 2.223 . S
Cd351 O354 2.297 . S
Cd351 O355 2.439 . S
Cd351 O361 2.240 . S
Cd352 O353 2.240 . S
Cd352 O360 2.223 . S
Cd352 O362 2.297 . S
Cd352 O363 2.439 . S
O353 Cd352 2.240 . S
O353 C358 1.279 . S
O354 Cd351 2.297 . S
O354 C356 1.247 . S
O355 Cd351 2.439 . S
O355 C356 1.208 . S
C356 O354 1.247 . S
C356 O355 1.208 . S
C357 O362 1.247 . S
C357 O363 1.208 . S
C358 O350 1.315 . S
C358 O353 1.279 . S
C359 O360 1.315 . S
C359 O361 1.279 . S
O360 Cd352 2.223 . S
O360 C359 1.315 . S
O361 Cd351 2.240 . S
O361 C359 1.279 . S
O362 Cd352 2.297 . S
O362 C357 1.247 . S
O363 Cd352 2.439 . S
O363 C357 1.208 . S
O364 Cd365 2.223 . S
O364 C372 1.315 . S
Cd365 O364 2.223 . S
Cd365 O368 2.297 . S
Cd365 O369 2.439 . S
Cd365 O375 2.240 . S
Cd366 O367 2.240 . S
Cd366 O374 2.223 . S
Cd366 O376 2.297 . S
Cd366 O377 2.439 . S
O367 Cd366 2.240 . S
O367 C372 1.279 . S
O368 Cd365 2.297 . S
O368 C370 1.247 . S
O369 Cd365 2.439 . S
O369 C370 1.208 . S
C370 O368 1.247 . S
C370 O369 1.208 . S
C371 O376 1.247 . S
C371 O377 1.208 . S
C372 O364 1.315 . S
C372 O367 1.279 . S
C373 O374 1.315 . S
C373 O375 1.279 . S
O374 Cd366 2.223 . S
O374 C373 1.315 . S
O375 Cd365 2.240 . S
O375 C373 1.279 . S
O376 Cd366 2.297 . S
O376 C371 1.247 . S
O377 Cd366 2.439 . S
O377 C371 1.208 . S
O378 Cd379 2.223 . S
O378 C386 1.315 . S
Cd379 O378 2.223 . S
Cd379 O382 2.297 . S
Cd379 O383 2.439 . S
Cd379 O389 2.240 . S
Cd380 O381 2.240 . S
Cd380 O388 2.223 . S
Cd380 O390 2.297 . S
Cd380 O391 2.439 . S
O381 Cd380 2.240 . S
O381 C386 1.279 . S
O382 Cd379 2.297 . S
O382 C384 1.247 . S
O383 Cd379 2.439 . S
O383 C384 1.208 . S
C384 O382 1.247 . S
C384 O383 1.208 . S
C385 O390 1.247 . S
C385 O391 1.208 . S
C386 O378 1.315 . S
C386 O381 1.279 . S
C387 O388 1.315 . S
C387 O389 1.279 . S
O388 Cd380 2.223 . S
O388 C387 1.315 . S
O389 Cd379 2.240 . S
O389 C387 1.279 . S
O390 Cd380 2.297 . S
O390 C385 1.247 . S
O391 Cd380 2.439 . S
O391 C385 1.208 . S
O392 Cd393 2.223 . S
O392 C400 1.315 . S
Cd393 O392 2.223 . S
Cd393 O396 2.297 . S
Cd393 O397 2.439 . S
Cd393 O403 2.240 . S
Cd394 O395 2.240 . S
Cd394 O402 2.223 . S
Cd394 O404 2.297 . S
Cd394 O405 2.439 . S
O395 Cd394 2.240 . S
O395 C400 1.279 . S
O396 Cd393 2.297 . S
O396 C398 1.247 . S
O397 Cd393 2.439 . S
O397 C398 1.208 . S
C398 O396 1.247 . S
C398 O397 1.208 . S
C399 O404 1.247 . S
C399 O405 1.208 . S
C400 O392 1.315 . S
C400 O395 1.279 . S
C401 O402 1.315 . S
C401 O403 1.279 . S
O402 Cd394 2.223 . S
O402 C401 1.315 . S
O403 Cd393 2.240 . S
O403 C401 1.279 . S
O404 Cd394 2.297 . S
O404 C399 1.247 . S
O405 Cd394 2.439 . S
O405 C399 1.208 . S
O406 Cd407 2.223 . S
O406 C414 1.315 . S
Cd407 O406 2.223 . S
Cd407 O410 2.297 . S
Cd407 O411 2.439 . S
Cd407 O417 2.240 . S
Cd408 O409 2.240 . S
Cd408 O416 2.223 . S
Cd408 O418 2.297 . S
Cd408 O419 2.439 . S
O409 Cd408 2.240 . S
O409 C414 1.279 . S
O410 Cd407 2.297 . S
O410 C412 1.247 . S
O411 Cd407 2.439 . S
O411 C412 1.208 . S
C412 O410 1.247 . S
C412 O411 1.208 . S
C413 O418 1.247 . S
C413 O419 1.208 . S
C414 O406 1.315 . S
C414 O409 1.279 . S
C415 O416 1.315 . S
C415 O417 1.279 . S
O416 Cd408 2.223 . S
O416 C415 1.315 . S
O417 Cd407 2.240 . S
O417 C415 1.279 . S
O418 Cd408 2.297 . S
O418 C413 1.247 . S
O419 Cd408 2.439 . S
O419 C413 1.208 . S
O420 Cd421 2.223 . S
O420 C428 1.315 . S
Cd421 O420 2.223 . S
Cd421 O424 2.297 . S
Cd421 O425 2.439 . S
Cd421 O431 2.240 . S
Cd422 O423 2.240 . S
Cd422 O430 2.223 . S
Cd422 O432 2.297 . S
Cd422 O433 2.439 . S
O423 Cd422 2.240 . S
O423 C428 1.279 . S
O424 Cd421 2.297 . S
O424 C426 1.247 . S
O425 Cd421 2.439 . S
O425 C426 1.208 . S
C426 O424 1.247 . S
C426 O425 1.208 . S
C427 O432 1.247 . S
C427 O433 1.208 . S
C428 O420 1.315 . S
C428 O423 1.279 . S
C429 O430 1.315 . S
C429 O431 1.279 . S
O430 Cd422 2.223 . S
O430 C429 1.315 . S
O431 Cd421 2.240 . S
O431 C429 1.279 . S
O432 Cd422 2.297 . S
O432 C427 1.247 . S
O433 Cd422 2.439 . S
O433 C427 1.208 . S
O434 Cd435 2.223 . S
O434 C442 1.315 . S
Cd435 O434 2.223 . S
Cd435 O438 2.297 . S
Cd435 O439 2.439 . S
Cd435 O445 2.240 . S
Cd436 O437 2.240 . S
Cd436 O444 2.223 . S
Cd436 O446 2.297 . S
Cd436 O447 2.439 . S
O437 Cd436 2.240 . S
O437 C442 1.279 . S
O438 Cd435 2.297 . S
O438 C440 1.247 . S
O439 Cd435 2.439 . S
O439 C440 1.208 . S
C440 O438 1.247 . S
C440 O439 1.208 . S
C441 O446 1.247 . S
C441 O447 1.208 . S
C442 O434 1.315 . S
C442 O437 1.279 . S
C443 O444 1.315 . S
C443 O445 1.279 . S
O444 Cd436 2.223 . S
O444 C443 1.315 . S
O445 Cd435 2.240 . S
O445 C443 1.279 . S
O446 Cd436 2.297 . S
O446 C441 1.247 . S
O447 Cd436 2.439 . S
O447 C441 1.208 . S
O448 Cd449 2.223 . S
O448 C456 1.315 . S
Cd449 O448 2.223 . S
Cd449 O452 2.297 . S
Cd449 O453 2.439 . S
Cd449 O459 2.240 . S
Cd450 O451 2.240 . S
Cd450 O458 2.223 . S
Cd450 O460 2.297 . S
Cd450 O461 2.439 . S
O451 Cd450 2.240 . S
O451 C456 1.279 . S
O452 Cd449 2.297 . S
O452 C454 1.247 . S
O453 Cd449 2.439 . S
O453 C454 1.208 . S
C454 O452 1.247 . S
C454 O453 1.208 . S
C455 O460 1.247 . S
C455 O461 1.208 . S
C456 O448 1.315 . S
C456 O451 1.279 . S
C457 O458 1.315 . S
C457 O459 1.279 . S
O458 Cd450 2.223 . S
O458 C457 1.315 . S
O459 Cd449 2.240 . S
O459 C457 1.279 . S
O460 Cd450 2.297 . S
O460 C455 1.247 . S
O461 Cd450 2.439 . S
O461 C455 1.208 . S
O462 Cd463 2.223 . S
O462 C470 1.315 . S
Cd463 O462 2.223 . S
Cd463 O466 2.297 . S
Cd463 O467 2.439 . S
Cd463 O473 2.240 . S
Cd464 O465 2.240 . S
Cd464 O472 2.223 . S
Cd464 O474 2.297 . S
Cd464 O475 2.439 . S
O465 Cd464 2.240 . S
O465 C470 1.279 . S
O466 Cd463 2.297 . S
O466 C468 1.247 . S
O467 Cd463 2.439 . S
O467 C468 1.208 . S
C468 O466 1.247 . S
C468 O467 1.208 . S
C469 O474 1.247 . S
C469 O475 1.208 . S
C470 O462 1.315 . S
C470 O465 1.279 . S
C471 O472 1.315 . S
C471 O473 1.279 . S
O472 Cd464 2.223 . S
O472 C471 1.315 . S
O473 Cd463 2.240 . S
O473 C471 1.279 . S
O474 Cd464 2.297 . S
O474 C469 1.247 . S
O475 Cd464 2.439 . S
O475 C469 1.208 . S
O476 Cd477 2.223 . S
O476 C484 1.315 . S
Cd477 O476 2.223 . S
Cd477 O480 2.297 . S
Cd477 O481 2.439 . S
Cd477 O487 2.240 . S
Cd478 O479 2.240 . S
Cd478 O486 2.223 . S
Cd478 O488 2.297 . S
Cd478 O489 2.439 . S
O479 Cd478 2.240 . S
O479 C484 1.279 . S
O480 Cd477 2.297 . S
O480 C482 1.247 . S
O481 Cd477 2.439 . S
O481 C482 1.208 . S
C482 O480 1.247 . S
C482 O481 1.208 . S
C483 O488 1.247 . S
C483 O489 1.208 . S
C484 O476 1.315 . S
C484 O479 1.279 . S
C485 O486 1.315 . S
C485 O487 1.279 . S
O486 Cd478 2.223 . S
O486 C485 1.315 . S
O487 Cd477 2.240 . S
O487 C485 1.279 . S
O488 Cd478 2.297 . S
O488 C483 1.247 . S
O489 Cd478 2.439 . S
O489 C483 1.208 . S
O490 Cd491 2.223 . S
O490 C498 1.315 . S
Cd491 O490 2.223 . S
Cd491 O494 2.297 . S
Cd491 O495 2.439 . S
Cd491 O501 2.240 . S
Cd492 O493 2.240 . S
Cd492 O500 2.223 . S
Cd492 O502 2.297 . S
Cd492 O503 2.439 . S
O493 Cd492 2.240 . S
O493 C498 1.279 . S
O494 Cd491 2.297 . S
O494 C496 1.247 . S
O495 Cd491 2.439 . S
O495 C496 1.208 . S
C496 O494 1.247 . S
C496 O495 1.208 . S
C497 O502 1.247 . S
C497 O503 1.208 . S
C498 O490 1.315 . S
C498 O493 1.279 . S
C499 O500 1.315 . S
C499 O501 1.279 . S
O500 Cd492 2.223 . S
O500 C499 1.315 . S
O501 Cd491 2.240 . S
O501 C499 1.279 . S
O502 Cd492 2.297 . S
O502 C497 1.247 . S
O503 Cd492 2.439 . S
O503 C497 1.208 . S
H504 C512 0.950 . S
H505 C517 0.950 . S
H506 C514 0.950 . S
H507 C516 0.950 . S
H508 C518 0.950 . S
H509 C520 0.950 . S
H510 C522 0.950 . S
H511 C523 0.950 . S
C512 H504 0.950 . S
C512 C513 1.386 . S
C512 C514 1.391 . S
C513 C512 1.386 . S
C513 C517 1.393 . S
C514 H506 0.950 . S
C514 C512 1.391 . S
C514 C515 1.400 . S
C515 C514 1.400 . S
C515 C516 1.398 . S
C515 C521 1.491 . S
C516 H507 0.950 . S
C516 C515 1.398 . S
C516 C517 1.391 . S
C517 H505 0.950 . S
C517 C513 1.393 . S
C517 C516 1.391 . S
C518 H508 0.950 . S
C518 C519 1.386 . S
C518 C520 1.391 . S
C519 C518 1.386 . S
C519 C523 1.393 . S
C520 H509 0.950 . S
C520 C518 1.391 . S
C520 C521 1.400 . S
C521 C515 1.491 . S
C521 C520 1.400 . S
C521 C522 1.398 . S
C522 H510 0.950 . S
C522 C521 1.398 . S
C522 C523 1.391 . S
C523 H511 0.950 . S
C523 C519 1.393 . S
C523 C522 1.391 . S
H524 C532 0.950 . S
H525 C537 0.950 . S
H526 C534 0.950 . S
H527 C536 0.950 . S
H528 C538 0.950 . S
H529 C540 0.950 . S
H530 C542 0.950 . S
H531 C543 0.950 . S
C532 H524 0.950 . S
C532 C533 1.386 . S
C532 C534 1.391 . S
C533 C532 1.386 . S
C533 C537 1.393 . S
C534 H526 0.950 . S
C534 C532 1.391 . S
C534 C535 1.400 . S
C535 C534 1.400 . S
C535 C536 1.398 . S
C535 C541 1.491 . S
C536 H527 0.950 . S
C536 C535 1.398 . S
C536 C537 1.391 . S
C537 H525 0.950 . S
C537 C533 1.393 . S
C537 C536 1.391 . S
C538 H528 0.950 . S
C538 C539 1.386 . S
C538 C540 1.391 . S
C539 C538 1.386 . S
C539 C543 1.393 . S
C540 H529 0.950 . S
C540 C538 1.391 . S
C540 C541 1.400 . S
C541 C535 1.491 . S
C541 C540 1.400 . S
C541 C542 1.398 . S
C542 H530 0.950 . S
C542 C541 1.398 . S
C542 C543 1.391 . S
C543 H531 0.950 . S
C543 C539 1.393 . S
C543 C542 1.391 . S
H544 C552 0.950 . S
H545 C557 0.950 . S
H546 C554 0.950 . S
H547 C556 0.950 . S
H548 C558 0.950 . S
H549 C560 0.950 . S
H550 C562 0.950 . S
H551 C563 0.950 . S
C552 H544 0.950 . S
C552 C553 1.386 . S
C552 C554 1.391 . S
C553 C552 1.386 . S
C553 C557 1.393 . S
C554 H546 0.950 . S
C554 C552 1.391 . S
C554 C555 1.400 . S
C555 C554 1.400 . S
C555 C556 1.398 . S
C555 C561 1.491 . S
C556 H547 0.950 . S
C556 C555 1.398 . S
C556 C557 1.391 . S
C557 H545 0.950 . S
C557 C553 1.393 . S
C557 C556 1.391 . S
C558 H548 0.950 . S
C558 C559 1.386 . S
C558 C560 1.391 . S
C559 C558 1.386 . S
C559 C563 1.393 . S
C560 H549 0.950 . S
C560 C558 1.391 . S
C560 C561 1.400 . S
C561 C555 1.491 . S
C561 C560 1.400 . S
C561 C562 1.398 . S
C562 H550 0.950 . S
C562 C561 1.398 . S
C562 C563 1.391 . S
C563 H551 0.950 . S
C563 C559 1.393 . S
C563 C562 1.391 . S
H564 C572 0.950 . S
H565 C577 0.950 . S
H566 C574 0.950 . S
H567 C576 0.950 . S
H568 C578 0.950 . S
H569 C580 0.950 . S
H570 C582 0.950 . S
H571 C583 0.950 . S
C572 H564 0.950 . S
C572 C573 1.386 . S
C572 C574 1.391 . S
C573 C572 1.386 . S
C573 C577 1.393 . S
C574 H566 0.950 . S
C574 C572 1.391 . S
C574 C575 1.400 . S
C575 C574 1.400 . S
C575 C576 1.398 . S
C575 C581 1.491 . S
C576 H567 0.950 . S
C576 C575 1.398 . S
C576 C577 1.391 . S
C577 H565 0.950 . S
C577 C573 1.393 . S
C577 C576 1.391 . S
C578 H568 0.950 . S
C578 C579 1.386 . S
C578 C580 1.391 . S
C579 C578 1.386 . S
C579 C583 1.393 . S
C580 H569 0.950 . S
C580 C578 1.391 . S
C580 C581 1.400 . S
C581 C575 1.491 . S
C581 C580 1.400 . S
C581 C582 1.398 . S
C582 H570 0.950 . S
C582 C581 1.398 . S
C582 C583 1.391 . S
C583 H571 0.950 . S
C583 C579 1.393 . S
C583 C582 1.391 . S
H584 C592 0.950 . S
H585 C597 0.950 . S
H586 C594 0.950 . S
H587 C596 0.950 . S
H588 C598 0.950 . S
H589 C600 0.950 . S
H590 C602 0.950 . S
H591 C603 0.950 . S
C592 H584 0.950 . S
C592 C593 1.386 . S
C592 C594 1.391 . S
C593 C592 1.386 . S
C593 C597 1.393 . S
C594 H586 0.950 . S
C594 C592 1.391 . S
C594 C595 1.400 . S
C595 C594 1.400 . S
C595 C596 1.398 . S
C595 C601 1.491 . S
C596 H587 0.950 . S
C596 C595 1.398 . S
C596 C597 1.391 . S
C597 H585 0.950 . S
C597 C593 1.393 . S
C597 C596 1.391 . S
C598 H588 0.950 . S
C598 C599 1.386 . S
C598 C600 1.391 . S
C599 C598 1.386 . S
C599 C603 1.393 . S
C600 H589 0.950 . S
C600 C598 1.391 . S
C600 C601 1.400 . S
C601 C595 1.491 . S
C601 C600 1.400 . S
C601 C602 1.398 . S
C602 H590 0.950 . S
C602 C601 1.398 . S
C602 C603 1.391 . S
C603 H591 0.950 . S
C603 C599 1.393 . S
C603 C602 1.391 . S
H604 C612 0.950 . S
H605 C617 0.950 . S
H606 C614 0.950 . S
H607 C616 0.950 . S
H608 C618 0.950 . S
H609 C620 0.950 . S
H610 C622 0.950 . S
H611 C623 0.950 . S
C612 H604 0.950 . S
C612 C613 1.386 . S
C612 C614 1.391 . S
C613 C612 1.386 . S
C613 C617 1.393 . S
C614 H606 0.950 . S
C614 C612 1.391 . S
C614 C615 1.400 . S
C615 C614 1.400 . S
C615 C616 1.398 . S
C615 C621 1.491 . S
C616 H607 0.950 . S
C616 C615 1.398 . S
C616 C617 1.391 . S
C617 H605 0.950 . S
C617 C613 1.393 . S
C617 C616 1.391 . S
C618 H608 0.950 . S
C618 C619 1.386 . S
C618 C620 1.391 . S
C619 C618 1.386 . S
C619 C623 1.393 . S
C620 H609 0.950 . S
C620 C618 1.391 . S
C620 C621 1.400 . S
C621 C615 1.491 . S
C621 C620 1.400 . S
C621 C622 1.398 . S
C622 H610 0.950 . S
C622 C621 1.398 . S
C622 C623 1.391 . S
C623 H611 0.950 . S
C623 C619 1.393 . S
C623 C622 1.391 . S
H624 C632 0.950 . S
H625 C637 0.950 . S
H626 C634 0.950 . S
H627 C636 0.950 . S
H628 C638 0.950 . S
H629 C640 0.950 . S
H630 C642 0.950 . S
H631 C643 0.950 . S
C632 H624 0.950 . S
C632 C633 1.386 . S
C632 C634 1.391 . S
C633 C632 1.386 . S
C633 C637 1.393 . S
C634 H626 0.950 . S
C634 C632 1.391 . S
C634 C635 1.400 . S
C635 C634 1.400 . S
C635 C636 1.398 . S
C635 C641 1.491 . S
C636 H627 0.950 . S
C636 C635 1.398 . S
C636 C637 1.391 . S
C637 H625 0.950 . S
C637 C633 1.393 . S
C637 C636 1.391 . S
C638 H628 0.950 . S
C638 C639 1.386 . S
C638 C640 1.391 . S
C639 C638 1.386 . S
C639 C643 1.393 . S
C640 H629 0.950 . S
C640 C638 1.391 . S
C640 C641 1.400 . S
C641 C635 1.491 . S
C641 C640 1.400 . S
C641 C642 1.398 . S
C642 H630 0.950 . S
C642 C641 1.398 . S
C642 C643 1.391 . S
C643 H631 0.950 . S
C643 C639 1.393 . S
C643 C642 1.391 . S
H644 C652 0.950 . S
H645 C657 0.950 . S
H646 C654 0.950 . S
H647 C656 0.950 . S
H648 C658 0.950 . S
H649 C660 0.950 . S
H650 C662 0.950 . S
H651 C663 0.950 . S
C652 H644 0.950 . S
C652 C653 1.386 . S
C652 C654 1.391 . S
C653 C652 1.386 . S
C653 C657 1.393 . S
C654 H646 0.950 . S
C654 C652 1.391 . S
C654 C655 1.400 . S
C655 C654 1.400 . S
C655 C656 1.398 . S
C655 C661 1.491 . S
C656 H647 0.950 . S
C656 C655 1.398 . S
C656 C657 1.391 . S
C657 H645 0.950 . S
C657 C653 1.393 . S
C657 C656 1.391 . S
C658 H648 0.950 . S
C658 C659 1.386 . S
C658 C660 1.391 . S
C659 C658 1.386 . S
C659 C663 1.393 . S
C660 H649 0.950 . S
C660 C658 1.391 . S
C660 C661 1.400 . S
C661 C655 1.491 . S
C661 C660 1.400 . S
C661 C662 1.398 . S
C662 H650 0.950 . S
C662 C661 1.398 . S
C662 C663 1.391 . S
C663 H651 0.950 . S
C663 C659 1.393 . S
C663 C662 1.391 . S
H664 C672 0.950 . S
H665 C677 0.950 . S
H666 C674 0.950 . S
H667 C676 0.950 . S
H668 C678 0.950 . S
H669 C680 0.950 . S
H670 C682 0.950 . S
H671 C683 0.950 . S
C672 H664 0.950 . S
C672 C673 1.386 . S
C672 C674 1.391 . S
C673 C672 1.386 . S
C673 C677 1.393 . S
C674 H666 0.950 . S
C674 C672 1.391 . S
C674 C675 1.400 . S
C675 C674 1.400 . S
C675 C676 1.398 . S
C675 C681 1.491 . S
C676 H667 0.950 . S
C676 C675 1.398 . S
C676 C677 1.391 . S
C677 H665 0.950 . S
C677 C673 1.393 . S
C677 C676 1.391 . S
C678 H668 0.950 . S
C678 C679 1.386 . S
C678 C680 1.391 . S
C679 C678 1.386 . S
C679 C683 1.393 . S
C680 H669 0.950 . S
C680 C678 1.391 . S
C680 C681 1.400 . S
C681 C675 1.491 . S
C681 C680 1.400 . S
C681 C682 1.398 . S
C682 H670 0.950 . S
C682 C681 1.398 . S
C682 C683 1.391 . S
C683 H671 0.950 . S
C683 C679 1.393 . S
C683 C682 1.391 . S
H684 C692 0.950 . S
H685 C697 0.950 . S
H686 C694 0.950 . S
H687 C696 0.950 . S
H688 C698 0.950 . S
H689 C700 0.950 . S
H690 C702 0.950 . S
H691 C703 0.950 . S
C692 H684 0.950 . S
C692 C693 1.386 . S
C692 C694 1.391 . S
C693 C692 1.386 . S
C693 C697 1.393 . S
C694 H686 0.950 . S
C694 C692 1.391 . S
C694 C695 1.400 . S
C695 C694 1.400 . S
C695 C696 1.398 . S
C695 C701 1.491 . S
C696 H687 0.950 . S
C696 C695 1.398 . S
C696 C697 1.391 . S
C697 H685 0.950 . S
C697 C693 1.393 . S
C697 C696 1.391 . S
C698 H688 0.950 . S
C698 C699 1.386 . S
C698 C700 1.391 . S
C699 C698 1.386 . S
C699 C703 1.393 . S
C700 H689 0.950 . S
C700 C698 1.391 . S
C700 C701 1.400 . S
C701 C695 1.491 . S
C701 C700 1.400 . S
C701 C702 1.398 . S
C702 H690 0.950 . S
C702 C701 1.398 . S
C702 C703 1.391 . S
C703 H691 0.950 . S
C703 C699 1.393 . S
C703 C702 1.391 . S
H704 C712 0.950 . S
H705 C717 0.950 . S
H706 C714 0.950 . S
H707 C716 0.950 . S
H708 C718 0.950 . S
H709 C720 0.950 . S
H710 C722 0.950 . S
H711 C723 0.950 . S
C712 H704 0.950 . S
C712 C713 1.386 . S
C712 C714 1.391 . S
C713 C712 1.386 . S
C713 C717 1.393 . S
C714 H706 0.950 . S
C714 C712 1.391 . S
C714 C715 1.400 . S
C715 C714 1.400 . S
C715 C716 1.398 . S
C715 C721 1.491 . S
C716 H707 0.950 . S
C716 C715 1.398 . S
C716 C717 1.391 . S
C717 H705 0.950 . S
C717 C713 1.393 . S
C717 C716 1.391 . S
C718 H708 0.950 . S
C718 C719 1.386 . S
C718 C720 1.391 . S
C719 C718 1.386 . S
C719 C723 1.393 . S
C720 H709 0.950 . S
C720 C718 1.391 . S
C720 C721 1.400 . S
C721 C715 1.491 . S
C721 C720 1.400 . S
C721 C722 1.398 . S
C722 H710 0.950 . S
C722 C721 1.398 . S
C722 C723 1.391 . S
C723 H711 0.950 . S
C723 C719 1.393 . S
C723 C722 1.391 . S
H724 C732 0.950 . S
H725 C737 0.950 . S
H726 C734 0.950 . S
H727 C736 0.950 . S
H728 C738 0.950 . S
H729 C740 0.950 . S
H730 C742 0.950 . S
H731 C743 0.950 . S
C732 H724 0.950 . S
C732 C733 1.386 . S
C732 C734 1.391 . S
C733 C732 1.386 . S
C733 C737 1.393 . S
C734 H726 0.950 . S
C734 C732 1.391 . S
C734 C735 1.400 . S
C735 C734 1.400 . S
C735 C736 1.398 . S
C735 C741 1.491 . S
C736 H727 0.950 . S
C736 C735 1.398 . S
C736 C737 1.391 . S
C737 H725 0.950 . S
C737 C733 1.393 . S
C737 C736 1.391 . S
C738 H728 0.950 . S
C738 C739 1.386 . S
C738 C740 1.391 . S
C739 C738 1.386 . S
C739 C743 1.393 . S
C740 H729 0.950 . S
C740 C738 1.391 . S
C740 C741 1.400 . S
C741 C735 1.491 . S
C741 C740 1.400 . S
C741 C742 1.398 . S
C742 H730 0.950 . S
C742 C741 1.398 . S
C742 C743 1.391 . S
C743 H731 0.950 . S
C743 C739 1.393 . S
C743 C742 1.391 . S
H744 C752 0.950 . S
H745 C757 0.950 . S
H746 C754 0.950 . S
H747 C756 0.950 . S
H748 C758 0.950 . S
H749 C760 0.950 . S
H750 C762 0.950 . S
H751 C763 0.950 . S
C752 H744 0.950 . S
C752 C753 1.386 . S
C752 C754 1.391 1_655 S
C753 C752 1.386 . S
C753 C757 1.393 . S
C754 H746 0.950 . S
C754 C752 1.391 1_455 S
C754 C755 1.400 1_455 S
C755 C754 1.400 1_655 S
C755 C756 1.398 . S
C755 C761 1.491 1_655 S
C756 H747 0.950 . S
C756 C755 1.398 . S
C756 C757 1.391 . S
C757 H745 0.950 . S
C757 C753 1.393 . S
C757 C756 1.391 . S
C758 H748 0.950 . S
C758 C759 1.386 . S
C758 C760 1.391 1_455 S
C759 C758 1.386 . S
C759 C763 1.393 . S
C760 H749 0.950 . S
C760 C758 1.391 1_655 S
C760 C761 1.400 1_655 S
C761 C755 1.491 1_455 S
C761 C760 1.400 1_455 S
C761 C762 1.398 . S
C762 H750 0.950 . S
C762 C761 1.398 . S
C762 C763 1.391 . S
C763 H751 0.950 . S
C763 C759 1.393 . S
C763 C762 1.391 . S
H764 C772 0.950 . S
H765 C777 0.950 . S
H766 C774 0.950 . S
H767 C776 0.950 . S
H768 C778 0.950 . S
H769 C780 0.950 . S
H770 C782 0.950 . S
H771 C783 0.950 . S
C772 H764 0.950 . S
C772 C773 1.386 . S
C772 C774 1.391 . S
C773 C772 1.386 . S
C773 C777 1.393 . S
C774 H766 0.950 . S
C774 C772 1.391 . S
C774 C775 1.400 . S
C775 C774 1.400 . S
C775 C776 1.398 . S
C775 C781 1.491 . S
C776 H767 0.950 . S
C776 C775 1.398 . S
C776 C777 1.391 . S
C777 H765 0.950 . S
C777 C773 1.393 . S
C777 C776 1.391 . S
C778 H768 0.950 . S
C778 C779 1.386 . S
C778 C780 1.391 . S
C779 C778 1.386 . S
C779 C783 1.393 . S
C780 H769 0.950 . S
C780 C778 1.391 . S
C780 C781 1.400 . S
C781 C775 1.491 . S
C781 C780 1.400 . S
C781 C782 1.398 . S
C782 H770 0.950 . S
C782 C781 1.398 . S
C782 C783 1.391 . S
C783 H771 0.950 . S
C783 C779 1.393 . S
C783 C782 1.391 . S
H784 C792 0.950 . S
H785 C797 0.950 . S
H786 C794 0.950 . S
H787 C796 0.950 . S
H788 C798 0.950 . S
H789 C800 0.950 . S
H790 C802 0.950 . S
H791 C803 0.950 . S
C792 H784 0.950 . S
C792 C793 1.386 . S
C792 C794 1.391 . S
C793 C792 1.386 . S
C793 C797 1.393 . S
C794 H786 0.950 . S
C794 C792 1.391 . S
C794 C795 1.400 . S
C795 C794 1.400 . S
C795 C796 1.398 1_545 S
C795 C801 1.491 1_545 S
C796 H787 0.950 . S
C796 C795 1.398 1_565 S
C796 C797 1.391 1_565 S
C797 H785 0.950 . S
C797 C793 1.393 . S
C797 C796 1.391 1_545 S
C798 H788 0.950 . S
C798 C799 1.386 . S
C798 C800 1.391 . S
C799 C798 1.386 . S
C799 C803 1.393 . S
C800 H789 0.950 . S
C800 C798 1.391 . S
C800 C801 1.400 . S
C801 C795 1.491 1_565 S
C801 C800 1.400 . S
C801 C802 1.398 1_565 S
C802 H790 0.950 . S
C802 C801 1.398 1_545 S
C802 C803 1.391 1_545 S
C803 H791 0.950 . S
C803 C799 1.393 . S
C803 C802 1.391 1_565 S
H804 C812 0.950 . S
H805 C817 0.950 1_565 S
H806 C814 0.950 . S
H807 C816 0.950 . S
H808 C818 0.950 . S
H809 C820 0.950 . S
H810 C822 0.950 . S
H811 C823 0.950 1_545 S
C812 H804 0.950 . S
C812 C813 1.386 . S
C812 C814 1.391 . S
C813 C812 1.386 . S
C813 C817 1.393 . S
C814 H806 0.950 . S
C814 C812 1.391 . S
C814 C815 1.400 . S
C815 C814 1.400 . S
C815 C816 1.398 1_545 S
C815 C821 1.491 1_546 S
C816 H807 0.950 . S
C816 C815 1.398 1_565 S
C816 C817 1.391 1_565 S
C817 H805 0.950 1_545 S
C817 C813 1.393 . S
C817 C816 1.391 1_545 S
C818 H808 0.950 . S
C818 C819 1.386 . S
C818 C820 1.391 . S
C819 C818 1.386 . S
C819 C823 1.393 . S
C820 H809 0.950 . S
C820 C818 1.391 . S
C820 C821 1.400 . S
C821 C815 1.491 1_564 S
C821 C820 1.400 . S
C821 C822 1.398 1_565 S
C822 H810 0.950 . S
C822 C821 1.398 1_545 S
C822 C823 1.391 1_545 S
C823 H811 0.950 1_565 S
C823 C819 1.393 . S
C823 C822 1.391 1_565 S
H824 C832 0.950 . S
H825 C837 0.950 . S
H826 C834 0.950 1_455 S
H827 C836 0.950 1_554 S
H828 C838 0.950 . S
H829 C840 0.950 1_655 S
H830 C842 0.950 1_556 S
H831 C843 0.950 . S
C832 H824 0.950 . S
C832 C833 1.386 . S
C832 C834 1.391 . S
C833 C832 1.386 . S
C833 C837 1.393 . S
C834 H826 0.950 1_655 S
C834 C832 1.391 . S
C834 C835 1.400 . S
C835 C834 1.400 . S
C835 C836 1.398 . S
C835 C841 1.491 1_656 S
C836 H827 0.950 1_556 S
C836 C835 1.398 . S
C836 C837 1.391 . S
C837 H825 0.950 . S
C837 C833 1.393 . S
C837 C836 1.391 . S
C838 H828 0.950 . S
C838 C839 1.386 . S
C838 C840 1.391 . S
C839 C838 1.386 . S
C839 C843 1.393 . S
C840 H829 0.950 1_455 S
C840 C838 1.391 . S
C840 C841 1.400 . S
C841 C835 1.491 1_454 S
C841 C840 1.400 . S
C841 C842 1.398 . S
C842 H830 0.950 1_554 S
C842 C841 1.398 . S
C842 C843 1.391 . S
C843 H831 0.950 . S
C843 C839 1.393 . S
C843 C842 1.391 . S
H844 C852 0.950 . S
H845 C857 0.950 . S
H846 C854 0.950 1_554 S
H847 C856 0.950 . S
H848 C858 0.950 . S
H849 C860 0.950 1_556 S
H850 C862 0.950 . S
H851 C863 0.950 . S
C852 H844 0.950 . S
C852 C853 1.386 . S
C852 C854 1.391 . S
C853 C852 1.386 . S
C853 C857 1.393 . S
C854 H846 0.950 1_556 S
C854 C852 1.391 . S
C854 C855 1.400 . S
C855 C854 1.400 . S
C855 C856 1.398 . S
C855 C861 1.491 1_556 S
C856 H847 0.950 . S
C856 C855 1.398 . S
C856 C857 1.391 . S
C857 H845 0.950 . S
C857 C853 1.393 . S
C857 C856 1.391 . S
C858 H848 0.950 . S
C858 C859 1.386 . S
C858 C860 1.391 . S
C859 C858 1.386 . S
C859 C863 1.393 . S
C860 H849 0.950 1_554 S
C860 C858 1.391 . S
C860 C861 1.400 . S
C861 C855 1.491 1_554 S
C861 C860 1.400 . S
C861 C862 1.398 . S
C862 H850 0.950 . S
C862 C861 1.398 . S
C862 C863 1.391 . S
C863 H851 0.950 . S
C863 C859 1.393 . S
C863 C862 1.391 . S
H864 C872 0.950 . S
H865 C877 0.950 . S
H866 C874 0.950 . S
H867 C876 0.950 . S
H868 C878 0.950 . S
H869 C880 0.940 1_556 S
H870 C882 0.950 . S
H871 C883 0.950 . S
C872 H864 0.950 . S
C872 C873 1.386 . S
C872 C874 1.391 1_565 S
C873 C872 1.386 . S
C873 C877 1.393 . S
C874 H866 0.950 . S
C874 C872 1.391 1_545 S
C874 C875 1.400 . S
C875 C874 1.400 . S
C875 C876 1.398 . S
C875 C881 1.491 . S
C876 H867 0.950 . S
C876 C875 1.398 . S
C876 C877 1.391 1_545 S
C877 H865 0.950 . S
C877 C873 1.393 . S
C877 C876 1.391 1_565 S
C878 H868 0.950 . S
C878 C879 1.386 . S
C878 C880 1.404 . S
C879 C878 1.386 . S
C879 C883 1.393 . S
C880 H869 0.940 1_554 S
C880 C878 1.404 . S
C880 C881 1.397 1_554 S
C881 C875 1.491 . S
C881 C880 1.397 1_556 S
C881 C882 1.398 1_556 S
C882 H870 0.950 . S
C882 C881 1.398 1_554 S
C882 C883 1.391 . S
C883 H871 0.950 . S
C883 C879 1.393 . S
C883 C882 1.391 . S
H884 C892 0.950 . S
H885 C897 0.950 . S
H886 C894 0.950 . S
H887 C896 0.950 1_554 S
H888 C898 0.950 . S
H889 C900 0.950 . S
H890 C902 0.950 . S
H891 C903 0.948 . S
C892 H884 0.950 . S
C892 C893 1.386 1_655 S
C892 C894 1.391 . S
C893 C892 1.386 1_455 S
C893 C897 1.393 . S
C894 H886 0.950 . S
C894 C892 1.391 . S
C894 C895 1.400 . S
C895 C894 1.400 . S
C895 C896 1.398 . S
C895 C901 1.491 . S
C896 H887 0.950 1_556 S
C896 C895 1.398 . S
C896 C897 1.391 1_655 S
C897 H885 0.950 . S
C897 C893 1.393 . S
C897 C896 1.391 1_455 S
C898 H888 0.950 . S
C898 C899 1.386 . S
C898 C900 1.391 . S
C899 C898 1.386 . S
C899 C903 1.397 1_554 S
C900 H889 0.950 . S
C900 C898 1.391 . S
C900 C901 1.400 1_554 S
C901 C895 1.491 . S
C901 C900 1.400 1_556 S
C901 C902 1.398 . S
C902 H890 0.950 . S
C902 C901 1.398 . S
C902 C903 1.388 . S
C903 H891 0.948 . S
C903 C899 1.397 1_556 S
C903 C902 1.388 . S
H904 C912 0.950 . S
H905 C917 0.950 . S
H906 C914 0.950 . S
H907 C916 0.950 . S
H908 C918 0.950 . S
H909 C920 0.950 . S
H910 C922 0.925 1_554 S
H911 C923 0.950 . S
C912 H904 0.950 . S
C912 C913 1.386 . S
C912 C914 1.391 . S
C913 C912 1.386 . S
C913 C917 1.393 . S
C914 H906 0.950 . S
C914 C912 1.391 . S
C914 C915 1.400 1_554 S
C915 C914 1.400 1_556 S
C915 C916 1.398 . S
C915 C921 1.491 . S
C916 H907 0.950 . S
C916 C915 1.398 . S
C916 C917 1.391 1_556 S
C917 H905 0.950 . S
C917 C913 1.393 . S
C917 C916 1.391 1_554 S
C918 H908 0.950 . S
C918 C919 1.386 . S
C918 C920 1.391 . S
C919 C918 1.386 . S
C919 C923 1.393 . S
C920 H909 0.950 . S
C920 C918 1.391 . S
C920 C921 1.400 . S
C921 C915 1.491 . S
C921 C920 1.400 . S
C921 C922 1.398 . S
C922 H910 0.925 1_556 S
C922 C921 1.398 . S
C922 C923 1.391 . S
C923 H911 0.950 . S
C923 C919 1.393 . S
C923 C922 1.391 . S
H924 C932 0.950 . S
H925 C937 0.950 . S
H926 C934 0.950 . S
H927 C936 0.950 . S
H928 C938 0.950 . S
H929 C940 0.950 . S
H930 C942 0.950 . S
H931 C943 0.950 . S
C932 H924 0.950 . S
C932 C933 1.386 . S
C932 C934 1.391 1_655 S
C933 C932 1.386 . S
C933 C937 1.393 . S
C934 H926 0.950 . S
C934 C932 1.391 1_455 S
C934 C935 1.400 . S
C935 C934 1.400 . S
C935 C936 1.398 . S
C935 C941 1.491 . S
C936 H927 0.950 . S
C936 C935 1.398 . S
C936 C937 1.391 1_455 S
C937 H925 0.950 . S
C937 C933 1.393 . S
C937 C936 1.391 1_655 S
C938 H928 0.950 . S
C938 C939 1.386 . S
C938 C940 1.391 . S
C939 C938 1.386 . S
C939 C943 1.393 . S
C940 H929 0.950 . S
C940 C938 1.391 . S
C940 C941 1.400 . S
C941 C935 1.491 . S
C941 C940 1.400 . S
C941 C942 1.398 . S
C942 H930 0.950 . S
C942 C941 1.398 . S
C942 C943 1.391 . S
C943 H931 0.950 . S
C943 C939 1.393 . S
C943 C942 1.391 . S
H944 C952 0.950 . S
H945 C957 0.950 . S
H946 C954 0.950 . S
H947 C956 0.950 . S
H948 C958 0.950 . S
H949 C960 0.950 . S
H950 C962 0.950 . S
H951 C963 0.950 . S
C952 H944 0.950 . S
C952 C953 1.386 . S
C952 C954 1.391 . S
C953 C952 1.386 . S
C953 C957 1.393 . S
C954 H946 0.950 . S
C954 C952 1.391 . S
C954 C955 1.400 . S
C955 C954 1.400 . S
C955 C956 1.398 . S
C955 C961 1.491 . S
C956 H947 0.950 . S
C956 C955 1.398 . S
C956 C957 1.391 . S
C957 H945 0.950 . S
C957 C953 1.393 . S
C957 C956 1.391 . S
C958 H948 0.950 . S
C958 C959 1.386 . S
C958 C960 1.391 . S
C959 C958 1.386 . S
C959 C963 1.393 . S
C960 H949 0.950 . S
C960 C958 1.391 . S
C960 C961 1.400 . S
C961 C955 1.491 . S
C961 C960 1.400 . S
C961 C962 1.398 . S
C962 H950 0.950 . S
C962 C961 1.398 . S
C962 C963 1.391 . S
C963 H951 0.950 . S
C963 C959 1.393 . S
C963 C962 1.391 . S
H964 C972 0.950 . S
H965 C977 0.950 . S
H966 C974 0.950 . S
H967 C976 0.950 . S
H968 C978 0.950 . S
H969 C980 0.950 . S
H970 C982 0.950 . S
H971 C983 0.950 . S
C972 H964 0.950 . S
C972 C973 1.386 1_565 S
C972 C974 1.391 . S
C973 C972 1.386 1_545 S
C973 C977 1.393 . S
C974 H966 0.950 . S
C974 C972 1.391 . S
C974 C975 1.400 . S
C975 C974 1.400 . S
C975 C976 1.398 . S
C975 C981 1.491 . S
C976 H967 0.950 . S
C976 C975 1.398 . S
C976 C977 1.391 1_565 S
C977 H965 0.950 . S
C977 C973 1.393 . S
C977 C976 1.391 1_545 S
C978 H968 0.950 . S
C978 C979 1.386 . S
C978 C980 1.391 . S
C979 C978 1.386 . S
C979 C983 1.393 . S
C980 H969 0.950 . S
C980 C978 1.391 . S
C980 C981 1.400 . S
C981 C975 1.491 . S
C981 C980 1.400 . S
C981 C982 1.398 . S
C982 H970 0.950 . S
C982 C981 1.398 . S
C982 C983 1.391 . S
C983 H971 0.950 . S
C983 C979 1.393 . S
C983 C982 1.391 . S
H984 C992 0.950 . S
H985 C997 0.950 . S
H986 C994 0.950 . S
H987 C996 0.950 . S
H988 C998 0.929 1_545 S
H989 C1000 0.950 . S
H990 C1002 0.950 . S
H991 C1003 0.950 . S
C992 H984 0.950 . S
C992 C993 1.386 . S
C992 C994 1.391 . S
C993 C992 1.386 . S
C993 C997 1.393 . S
C994 H986 0.950 . S
C994 C992 1.391 . S
C994 C995 1.400 1_556 S
C995 C994 1.400 1_554 S
C995 C996 1.398 . S
C995 C1001 1.491 . S
C996 H987 0.950 . S
C996 C995 1.398 . S
C996 C997 1.391 1_554 S
C997 H985 0.950 . S
C997 C993 1.393 . S
C997 C996 1.391 1_556 S
C998 H988 0.929 1_565 S
C998 C999 1.386 1_565 S
C998 C1000 1.391 . S
C999 C998 1.386 1_545 S
C999 C1003 1.393 . S
C1000 H989 0.950 . S
C1000 C998 1.391 . S
C1000 C1001 1.400 . S
C1001 C995 1.491 . S
C1001 C1000 1.400 . S
C1001 C1002 1.398 . S
C1002 H990 0.950 . S
C1002 C1001 1.398 . S
C1002 C1003 1.391 1_565 S
C1003 H991 0.950 . S
C1003 C999 1.393 . S
C1003 C1002 1.391 1_545 S
H1004 C1012 0.950 . S
H1005 C1017 0.928 1_554 S
H1006 C1014 0.950 . S
H1007 C1016 0.950 . S
H1008 C1018 0.950 . S
H1009 C1020 0.950 . S
H1010 C1022 0.950 1_556 S
H1011 C1023 0.950 . S
C1012 H1004 0.950 . S
C1012 C1013 1.386 . S
C1012 C1014 1.391 . S
C1013 C1012 1.386 . S
C1013 C1017 1.447 . S
C1014 H1006 0.950 . S
C1014 C1012 1.391 . S
C1014 C1015 1.400 1_556 S
C1015 C1014 1.400 1_554 S
C1015 C1016 1.398 . S
C1015 C1021 1.491 . S
C1016 H1007 0.950 . S
C1016 C1015 1.398 . S
C1016 C1017 1.360 1_554 S
C1017 H1005 0.928 1_556 S
C1017 C1013 1.447 . S
C1017 C1016 1.360 1_556 S
C1018 H1008 0.950 . S
C1018 C1019 1.386 1_455 S
C1018 C1020 1.391 . S
C1019 C1018 1.386 1_655 S
C1019 C1023 1.393 . S
C1020 H1009 0.950 . S
C1020 C1018 1.391 . S
C1020 C1021 1.400 . S
C1021 C1015 1.491 . S
C1021 C1020 1.400 . S
C1021 C1022 1.398 . S
C1022 H1010 0.950 1_554 S
C1022 C1021 1.398 . S
C1022 C1023 1.391 1_455 S
C1023 H1011 0.950 . S
C1023 C1019 1.393 . S
C1023 C1022 1.391 1_655 S
H1024 C1032 0.950 . S
H1025 C1037 0.950 1_554 S
H1026 C1034 0.950 . S
H1027 C1036 0.950 . S
H1028 C1038 0.950 . S
H1029 C1040 0.950 . S
H1030 C1042 0.950 1_556 S
H1031 C1043 0.950 . S
C1032 H1024 0.950 . S
C1032 C1033 1.386 . S
C1032 C1034 1.391 . S
C1033 C1032 1.386 . S
C1033 C1037 1.393 . S
C1034 H1026 0.950 . S
C1034 C1032 1.391 . S
C1034 C1035 1.400 1_556 S
C1035 C1034 1.400 1_554 S
C1035 C1036 1.398 . S
C1035 C1041 1.491 . S
C1036 H1027 0.950 . S
C1036 C1035 1.398 . S
C1036 C1037 1.391 1_554 S
C1037 H1025 0.950 1_556 S
C1037 C1033 1.393 . S
C1037 C1036 1.391 1_556 S
C1038 H1028 0.950 . S
C1038 C1039 1.386 . S
C1038 C1040 1.391 . S
C1039 C1038 1.386 . S
C1039 C1043 1.393 . S
C1040 H1029 0.950 . S
C1040 C1038 1.391 . S
C1040 C1041 1.400 . S
C1041 C1035 1.491 . S
C1041 C1040 1.400 . S
C1041 C1042 1.398 . S
C1042 H1030 0.950 1_554 S
C1042 C1041 1.398 . S
C1042 C1043 1.391 . S
C1043 H1031 0.950 . S
C1043 C1039 1.393 . S
C1043 C1042 1.391 . S
H1044 C1052 0.950 . S
H1045 C1057 0.950 . S
H1046 C1054 0.950 . S
H1047 C1056 0.950 . S
H1048 C1058 0.950 . S
H1049 C1060 0.950 . S
H1050 C1062 0.950 . S
H1051 C1063 0.950 . S
C1052 H1044 0.950 . S
C1052 C1053 1.386 . S
C1052 C1054 1.391 . S
C1053 C1052 1.386 . S
C1053 C1057 1.393 . S
C1054 H1046 0.950 . S
C1054 C1052 1.391 . S
C1054 C1055 1.400 . S
C1055 C1054 1.400 . S
C1055 C1056 1.398 . S
C1055 C1061 1.491 . S
C1056 H1047 0.950 . S
C1056 C1055 1.398 . S
C1056 C1057 1.391 . S
C1057 H1045 0.950 . S
C1057 C1053 1.393 . S
C1057 C1056 1.391 . S
C1058 H1048 0.950 . S
C1058 C1059 1.386 . S
C1058 C1060 1.391 1_455 S
C1059 C1058 1.386 . S
C1059 C1063 1.393 . S
C1060 H1049 0.950 . S
C1060 C1058 1.391 1_655 S
C1060 C1061 1.400 . S
C1061 C1055 1.491 . S
C1061 C1060 1.400 . S
C1061 C1062 1.398 . S
C1062 H1050 0.950 . S
C1062 C1061 1.398 . S
C1062 C1063 1.391 1_655 S
C1063 H1051 0.950 . S
C1063 C1059 1.393 . S
C1063 C1062 1.391 1_455 S
H1064 C1072 0.950 . S
H1065 C1077 0.950 . S
H1066 C1074 0.950 . S
H1067 C1076 0.950 . S
H1068 C1078 0.950 . S
H1069 C1080 0.950 . S
H1070 C1082 0.950 . S
H1071 C1083 0.950 . S
C1072 H1064 0.950 . S
C1072 C1073 1.386 . S
C1072 C1074 1.391 . S
C1073 C1072 1.386 . S
C1073 C1077 1.393 . S
C1074 H1066 0.950 . S
C1074 C1072 1.391 . S
C1074 C1075 1.400 . S
C1075 C1074 1.400 . S
C1075 C1076 1.398 . S
C1075 C1081 1.491 . S
C1076 H1067 0.950 . S
C1076 C1075 1.398 . S
C1076 C1077 1.391 . S
C1077 H1065 0.950 . S
C1077 C1073 1.393 . S
C1077 C1076 1.391 . S
C1078 H1068 0.950 . S
C1078 C1079 1.386 . S
C1078 C1080 1.391 . S
C1079 C1078 1.386 . S
C1079 C1083 1.393 . S
C1080 H1069 0.950 . S
C1080 C1078 1.391 . S
C1080 C1081 1.400 . S
C1081 C1075 1.491 . S
C1081 C1080 1.400 . S
C1081 C1082 1.398 . S
C1082 H1070 0.950 . S
C1082 C1081 1.398 . S
C1082 C1083 1.391 . S
C1083 H1071 0.950 . S
C1083 C1079 1.393 . S
C1083 C1082 1.391 . S
H1084 C1092 0.950 . S
H1085 C1097 0.950 1_565 S
H1086 C1094 0.950 . S
H1087 C1096 0.950 . S
H1088 C1098 0.950 . S
H1089 C1100 0.950 . S
H1090 C1102 0.950 . S
H1091 C1103 0.950 . S
C1092 H1084 0.950 . S
C1092 C1093 1.386 . S
C1092 C1094 1.391 1_565 S
C1093 C1092 1.386 . S
C1093 C1097 1.393 1_565 S
C1094 H1086 0.950 . S
C1094 C1092 1.391 1_545 S
C1094 C1095 1.400 . S
C1095 C1094 1.400 . S
C1095 C1096 1.398 . S
C1095 C1101 1.491 . S
C1096 H1087 0.950 . S
C1096 C1095 1.398 . S
C1096 C1097 1.391 . S
C1097 H1085 0.950 1_545 S
C1097 C1093 1.393 1_545 S
C1097 C1096 1.391 . S
C1098 H1088 0.950 . S
C1098 C1099 1.386 . S
C1098 C1100 1.391 . S
C1099 C1098 1.386 . S
C1099 C1103 1.393 . S
C1100 H1089 0.950 . S
C1100 C1098 1.391 . S
C1100 C1101 1.400 . S
C1101 C1095 1.491 . S
C1101 C1100 1.400 . S
C1101 C1102 1.398 . S
C1102 H1090 0.950 . S
C1102 C1101 1.398 . S
C1102 C1103 1.391 . S
C1103 H1091 0.950 . S
C1103 C1099 1.393 . S
C1103 C1102 1.391 . S
H1104 C1112 0.950 . S
H1105 C1117 0.950 . S
H1106 C1114 0.950 . S
H1107 C1116 0.950 . S
H1108 C1118 0.950 . S
H1109 C1120 0.950 . S
H1110 C1122 0.950 . S
H1111 C1123 0.950 . S
C1112 H1104 0.950 . S
C1112 C1113 1.386 . S
C1112 C1114 1.391 . S
C1113 C1112 1.386 . S
C1113 C1117 1.393 . S
C1114 H1106 0.950 . S
C1114 C1112 1.391 . S
C1114 C1115 1.400 . S
C1115 C1114 1.400 . S
C1115 C1116 1.398 . S
C1115 C1121 1.491 . S
C1116 H1107 0.950 . S
C1116 C1115 1.398 . S
C1116 C1117 1.391 . S
C1117 H1105 0.950 . S
C1117 C1113 1.393 . S
C1117 C1116 1.391 . S
C1118 H1108 0.950 . S
C1118 C1119 1.386 . S
C1118 C1120 1.391 . S
C1119 C1118 1.386 . S
C1119 C1123 1.393 . S
C1120 H1109 0.950 . S
C1120 C1118 1.391 . S
C1120 C1121 1.400 . S
C1121 C1115 1.491 . S
C1121 C1120 1.400 . S
C1121 C1122 1.398 . S
C1122 H1110 0.950 . S
C1122 C1121 1.398 . S
C1122 C1123 1.391 . S
C1123 H1111 0.950 . S
C1123 C1119 1.393 . S
C1123 C1122 1.391 . S
H1124 C1132 0.950 . S
H1125 C1137 0.950 . S
H1126 C1134 0.950 . S
H1127 C1136 0.950 . S
H1128 C1138 0.950 . S
H1129 C1140 0.950 . S
H1130 C1142 0.950 . S
H1131 C1143 0.950 . S
C1132 H1124 0.950 . S
C1132 C1133 1.386 . S
C1132 C1134 1.391 . S
C1133 C1132 1.386 . S
C1133 C1137 1.393 . S
C1134 H1126 0.950 . S
C1134 C1132 1.391 . S
C1134 C1135 1.400 . S
C1135 C1134 1.400 . S
C1135 C1136 1.398 . S
C1135 C1141 1.491 . S
C1136 H1127 0.950 . S
C1136 C1135 1.398 . S
C1136 C1137 1.391 . S
C1137 H1125 0.950 . S
C1137 C1133 1.393 . S
C1137 C1136 1.391 . S
C1138 H1128 0.950 . S
C1138 C1139 1.386 . S
C1138 C1140 1.391 . S
C1139 C1138 1.386 . S
C1139 C1143 1.393 . S
C1140 H1129 0.950 . S
C1140 C1138 1.391 . S
C1140 C1141 1.400 . S
C1141 C1135 1.491 . S
C1141 C1140 1.400 . S
C1141 C1142 1.398 . S
C1142 H1130 0.950 . S
C1142 C1141 1.398 . S
C1142 C1143 1.391 . S
C1143 H1131 0.950 . S
C1143 C1139 1.393 . S
C1143 C1142 1.391 . S
H1144 C1152 0.950 . S
H1145 C1157 0.950 . S
H1146 C1154 0.950 . S
H1147 C1156 0.950 . S
H1148 C1158 0.950 . S
H1149 C1160 0.950 . S
H1150 C1162 0.950 . S
H1151 C1163 0.950 . S
C1152 H1144 0.950 . S
C1152 C1153 1.386 . S
C1152 C1154 1.391 . S
C1153 C1152 1.386 . S
C1153 C1157 1.393 . S
C1154 H1146 0.950 . S
C1154 C1152 1.391 . S
C1154 C1155 1.400 . S
C1155 C1154 1.400 . S
C1155 C1156 1.398 . S
C1155 C1161 1.491 . S
C1156 H1147 0.950 . S
C1156 C1155 1.398 . S
C1156 C1157 1.391 . S
C1157 H1145 0.950 . S
C1157 C1153 1.393 . S
C1157 C1156 1.391 . S
C1158 H1148 0.950 . S
C1158 C1159 1.386 . S
C1158 C1160 1.391 . S
C1159 C1158 1.386 . S
C1159 C1163 1.393 . S
C1160 H1149 0.950 . S
C1160 C1158 1.391 . S
C1160 C1161 1.400 . S
C1161 C1155 1.491 . S
C1161 C1160 1.400 . S
C1161 C1162 1.398 . S
C1162 H1150 0.950 . S
C1162 C1161 1.398 . S
C1162 C1163 1.391 . S
C1163 H1151 0.950 . S
C1163 C1159 1.393 . S
C1163 C1162 1.391 . S
H1164 C1172 0.950 . S
H1165 C1177 0.950 . S
H1166 C1174 0.950 . S
H1167 C1176 0.950 . S
H1168 C1178 0.950 . S
H1169 C1180 0.950 . S
H1170 C1182 0.950 . S
H1171 C1183 0.950 . S
C1172 H1164 0.950 . S
C1172 C1173 1.386 . S
C1172 C1174 1.391 . S
C1173 C1172 1.386 . S
C1173 C1177 1.393 . S
C1174 H1166 0.950 . S
C1174 C1172 1.391 . S
C1174 C1175 1.400 . S
C1175 C1174 1.400 . S
C1175 C1176 1.398 . S
C1175 C1181 1.491 . S
C1176 H1167 0.950 . S
C1176 C1175 1.398 . S
C1176 C1177 1.391 . S
C1177 H1165 0.950 . S
C1177 C1173 1.393 . S
C1177 C1176 1.391 . S
C1178 H1168 0.950 . S
C1178 C1179 1.386 . S
C1178 C1180 1.391 . S
C1179 C1178 1.386 . S
C1179 C1183 1.393 . S
C1180 H1169 0.950 . S
C1180 C1178 1.391 . S
C1180 C1181 1.400 . S
C1181 C1175 1.491 . S
C1181 C1180 1.400 . S
C1181 C1182 1.398 . S
C1182 H1170 0.950 . S
C1182 C1181 1.398 . S
C1182 C1183 1.391 . S
C1183 H1171 0.950 . S
C1183 C1179 1.393 . S
C1183 C1182 1.391 . S
H1184 C1192 0.950 . S
H1185 C1197 0.950 . S
H1186 C1194 0.950 . S
H1187 C1196 0.950 . S
H1188 C1198 0.950 . S
H1189 C1200 0.950 . S
H1190 C1202 0.950 . S
H1191 C1203 0.950 . S
C1192 H1184 0.950 . S
C1192 C1193 1.386 . S
C1192 C1194 1.391 . S
C1193 C1192 1.386 . S
C1193 C1197 1.393 . S
C1194 H1186 0.950 . S
C1194 C1192 1.391 . S
C1194 C1195 1.400 . S
C1195 C1194 1.400 . S
C1195 C1196 1.398 . S
C1195 C1201 1.491 . S
C1196 H1187 0.950 . S
C1196 C1195 1.398 . S
C1196 C1197 1.391 . S
C1197 H1185 0.950 . S
C1197 C1193 1.393 . S
C1197 C1196 1.391 . S
C1198 H1188 0.950 . S
C1198 C1199 1.386 . S
C1198 C1200 1.391 . S
C1199 C1198 1.386 . S
C1199 C1203 1.393 . S
C1200 H1189 0.950 . S
C1200 C1198 1.391 . S
C1200 C1201 1.400 . S
C1201 C1195 1.491 . S
C1201 C1200 1.400 . S
C1201 C1202 1.398 . S
C1202 H1190 0.950 . S
C1202 C1201 1.398 . S
C1202 C1203 1.391 . S
C1203 H1191 0.950 . S
C1203 C1199 1.393 . S
C1203 C1202 1.391 . S
H1204 C1212 0.950 . S
H1205 C1217 0.950 . S
H1206 C1214 0.950 . S
H1207 C1216 0.950 . S
H1208 C1218 0.950 . S
H1209 C1220 0.950 . S
H1210 C1222 0.950 . S
H1211 C1223 0.950 . S
C1212 H1204 0.950 . S
C1212 C1213 1.386 . S
C1212 C1214 1.391 . S
C1213 C1212 1.386 . S
C1213 C1217 1.393 . S
C1214 H1206 0.950 . S
C1214 C1212 1.391 . S
C1214 C1215 1.400 . S
C1215 C1214 1.400 . S
C1215 C1216 1.398 . S
C1215 C1221 1.491 . S
C1216 H1207 0.950 . S
C1216 C1215 1.398 . S
C1216 C1217 1.391 . S
C1217 H1205 0.950 . S
C1217 C1213 1.393 . S
C1217 C1216 1.391 . S
C1218 H1208 0.950 . S
C1218 C1219 1.386 . S
C1218 C1220 1.391 . S
C1219 C1218 1.386 . S
C1219 C1223 1.393 . S
C1220 H1209 0.950 . S
C1220 C1218 1.391 . S
C1220 C1221 1.400 . S
C1221 C1215 1.491 . S
C1221 C1220 1.400 . S
C1221 C1222 1.398 . S
C1222 H1210 0.950 . S
C1222 C1221 1.398 . S
C1222 C1223 1.391 . S
C1223 H1211 0.950 . S
C1223 C1219 1.393 . S
C1223 C1222 1.391 . S
H1224 C1232 0.950 . S
H1225 C1237 0.950 . S
H1226 C1234 0.950 . S
H1227 C1236 0.950 . S
H1228 C1238 0.950 . S
H1229 C1240 0.950 . S
H1230 C1242 0.950 . S
H1231 C1243 0.950 . S
C1232 H1224 0.950 . S
C1232 C1233 1.386 . S
C1232 C1234 1.391 . S
C1233 C1232 1.386 . S
C1233 C1237 1.393 . S
C1234 H1226 0.950 . S
C1234 C1232 1.391 . S
C1234 C1235 1.400 . S
C1235 C1234 1.400 . S
C1235 C1236 1.398 . S
C1235 C1241 1.491 . S
C1236 H1227 0.950 . S
C1236 C1235 1.398 . S
C1236 C1237 1.391 . S
C1237 H1225 0.950 . S
C1237 C1233 1.393 . S
C1237 C1236 1.391 . S
C1238 H1228 0.950 . S
C1238 C1239 1.386 . S
C1238 C1240 1.391 . S
C1239 C1238 1.386 . S
C1239 C1243 1.393 . S
C1240 H1229 0.950 . S
C1240 C1238 1.391 . S
C1240 C1241 1.400 . S
C1241 C1235 1.491 . S
C1241 C1240 1.400 . S
C1241 C1242 1.398 . S
C1242 H1230 0.950 . S
C1242 C1241 1.398 . S
C1242 C1243 1.391 . S
C1243 H1231 0.950 . S
C1243 C1239 1.393 . S
C1243 C1242 1.391 . S
H1244 C1252 0.950 . S
H1245 C1257 0.950 . S
H1246 C1254 0.950 . S
H1247 C1256 0.950 . S
H1248 C1258 0.950 . S
H1249 C1260 0.950 . S
H1250 C1262 0.950 . S
H1251 C1263 0.950 . S
C1252 H1244 0.950 . S
C1252 C1253 1.386 . S
C1252 C1254 1.391 . S
C1253 C1252 1.386 . S
C1253 C1257 1.393 . S
C1254 H1246 0.950 . S
C1254 C1252 1.391 . S
C1254 C1255 1.400 . S
C1255 C1254 1.400 . S
C1255 C1256 1.398 . S
C1255 C1261 1.491 . S
C1256 H1247 0.950 . S
C1256 C1255 1.398 . S
C1256 C1257 1.391 . S
C1257 H1245 0.950 . S
C1257 C1253 1.393 . S
C1257 C1256 1.391 . S
C1258 H1248 0.950 . S
C1258 C1259 1.386 . S
C1258 C1260 1.391 . S
C1259 C1258 1.386 . S
C1259 C1263 1.393 . S
C1260 H1249 0.950 . S
C1260 C1258 1.391 . S
C1260 C1261 1.400 . S
C1261 C1255 1.491 . S
C1261 C1260 1.400 . S
C1261 C1262 1.398 . S
C1262 H1250 0.950 . S
C1262 C1261 1.398 . S
C1262 C1263 1.391 . S
C1263 H1251 0.950 . S
C1263 C1259 1.393 . S
C1263 C1262 1.391 . S
H1264 C1272 0.950 . S
H1265 C1277 0.950 . S
H1266 C1274 0.950 . S
H1267 C1276 0.950 . S
H1268 C1278 0.950 . S
H1269 C1280 0.950 . S
H1270 C1282 0.950 . S
H1271 C1283 0.950 . S
C1272 H1264 0.950 . S
C1272 C1273 1.386 . S
C1272 C1274 1.391 . S
C1273 C1272 1.386 . S
C1273 C1277 1.393 . S
C1274 H1266 0.950 . S
C1274 C1272 1.391 . S
C1274 C1275 1.400 . S
C1275 C1274 1.400 . S
C1275 C1276 1.398 . S
C1275 C1281 1.491 . S
C1276 H1267 0.950 . S
C1276 C1275 1.398 . S
C1276 C1277 1.391 . S
C1277 H1265 0.950 . S
C1277 C1273 1.393 . S
C1277 C1276 1.391 . S
C1278 H1268 0.950 . S
C1278 C1279 1.386 . S
C1278 C1280 1.391 . S
C1279 C1278 1.386 . S
C1279 C1283 1.393 . S
C1280 H1269 0.950 . S
C1280 C1278 1.391 . S
C1280 C1281 1.400 . S
C1281 C1275 1.491 . S
C1281 C1280 1.400 . S
C1281 C1282 1.398 . S
C1282 H1270 0.950 . S
C1282 C1281 1.398 . S
C1282 C1283 1.391 . S
C1283 H1271 0.950 . S
C1283 C1279 1.393 . S
C1283 C1282 1.391 . S
H1284 C1292 0.950 . S
H1285 C1297 0.950 . S
H1286 C1294 0.950 . S
H1287 C1296 0.950 . S
H1288 C1298 0.950 . S
H1289 C1300 0.950 . S
H1290 C1302 0.950 . S
H1291 C1303 0.950 . S
C1292 H1284 0.950 . S
C1292 C1293 1.386 . S
C1292 C1294 1.391 . S
C1293 C1292 1.386 . S
C1293 C1297 1.393 . S
C1294 H1286 0.950 . S
C1294 C1292 1.391 . S
C1294 C1295 1.400 . S
C1295 C1294 1.400 . S
C1295 C1296 1.398 . S
C1295 C1301 1.491 . S
C1296 H1287 0.950 . S
C1296 C1295 1.398 . S
C1296 C1297 1.391 . S
C1297 H1285 0.950 . S
C1297 C1293 1.393 . S
C1297 C1296 1.391 . S
C1298 H1288 0.950 . S
C1298 C1299 1.386 . S
C1298 C1300 1.391 . S
C1299 C1298 1.386 . S
C1299 C1303 1.393 . S
C1300 H1289 0.950 . S
C1300 C1298 1.391 . S
C1300 C1301 1.400 . S
C1301 C1295 1.491 . S
C1301 C1300 1.400 . S
C1301 C1302 1.398 . S
C1302 H1290 0.950 . S
C1302 C1301 1.398 . S
C1302 C1303 1.391 . S
C1303 H1291 0.950 . S
C1303 C1299 1.393 . S
C1303 C1302 1.391 . S
H1304 C1312 0.950 . S
H1305 C1317 0.950 . S
H1306 C1314 0.950 . S
H1307 C1316 0.950 . S
H1308 C1318 0.950 . S
H1309 C1320 0.950 . S
H1310 C1322 0.950 . S
H1311 C1323 0.950 . S
C1312 H1304 0.950 . S
C1312 C1313 1.386 . S
C1312 C1314 1.391 . S
C1313 C1312 1.386 . S
C1313 C1317 1.393 . S
C1314 H1306 0.950 . S
C1314 C1312 1.391 . S
C1314 C1315 1.400 . S
C1315 C1314 1.400 . S
C1315 C1316 1.398 . S
C1315 C1321 1.491 . S
C1316 H1307 0.950 . S
C1316 C1315 1.398 . S
C1316 C1317 1.391 . S
C1317 H1305 0.950 . S
C1317 C1313 1.393 . S
C1317 C1316 1.391 . S
C1318 H1308 0.950 . S
C1318 C1319 1.386 . S
C1318 C1320 1.391 . S
C1319 C1318 1.386 . S
C1319 C1323 1.393 . S
C1320 H1309 0.950 . S
C1320 C1318 1.391 . S
C1320 C1321 1.400 . S
C1321 C1315 1.491 . S
C1321 C1320 1.400 . S
C1321 C1322 1.398 . S
C1322 H1310 0.950 . S
C1322 C1321 1.398 . S
C1322 C1323 1.391 . S
C1323 H1311 0.950 . S
C1323 C1319 1.393 . S
C1323 C1322 1.391 . S
H1324 C1332 0.950 . S
H1325 C1337 0.950 . S
H1326 C1334 0.950 . S
H1327 C1336 0.950 . S
H1328 C1338 0.950 . S
H1329 C1340 0.950 . S
H1330 C1342 0.950 . S
H1331 C1343 0.950 . S
C1332 H1324 0.950 . S
C1332 C1333 1.386 . S
C1332 C1334 1.391 . S
C1333 C1332 1.386 . S
C1333 C1337 1.393 . S
C1334 H1326 0.950 . S
C1334 C1332 1.391 . S
C1334 C1335 1.400 . S
C1335 C1334 1.400 . S
C1335 C1336 1.398 . S
C1335 C1341 1.491 . S
C1336 H1327 0.950 . S
C1336 C1335 1.398 . S
C1336 C1337 1.391 . S
C1337 H1325 0.950 . S
C1337 C1333 1.393 . S
C1337 C1336 1.391 . S
C1338 H1328 0.950 . S
C1338 C1339 1.386 . S
C1338 C1340 1.391 . S
C1339 C1338 1.386 . S
C1339 C1343 1.393 . S
C1340 H1329 0.950 . S
C1340 C1338 1.391 . S
C1340 C1341 1.400 . S
C1341 C1335 1.491 . S
C1341 C1340 1.400 . S
C1341 C1342 1.398 . S
C1342 H1330 0.950 . S
C1342 C1341 1.398 . S
C1342 C1343 1.391 . S
C1343 H1331 0.950 . S
C1343 C1339 1.393 . S
C1343 C1342 1.391 . S
H1344 C1352 0.950 . S
H1345 C1357 0.950 . S
H1346 C1354 0.950 . S
H1347 C1356 0.950 . S
H1348 C1358 0.950 . S
H1349 C1360 0.950 . S
H1350 C1362 0.950 . S
H1351 C1363 0.950 . S
C1352 H1344 0.950 . S
C1352 C1353 1.386 . S
C1352 C1354 1.391 . S
C1353 C1352 1.386 . S
C1353 C1357 1.393 . S
C1354 H1346 0.950 . S
C1354 C1352 1.391 . S
C1354 C1355 1.400 . S
C1355 C1354 1.400 . S
C1355 C1356 1.398 . S
C1355 C1361 1.491 . S
C1356 H1347 0.950 . S
C1356 C1355 1.398 . S
C1356 C1357 1.391 . S
C1357 H1345 0.950 . S
C1357 C1353 1.393 . S
C1357 C1356 1.391 . S
C1358 H1348 0.950 . S
C1358 C1359 1.386 . S
C1358 C1360 1.391 . S
C1359 C1358 1.386 . S
C1359 C1363 1.393 . S
C1360 H1349 0.950 . S
C1360 C1358 1.391 . S
C1360 C1361 1.400 . S
C1361 C1355 1.491 . S
C1361 C1360 1.400 . S
C1361 C1362 1.398 . S
C1362 H1350 0.950 . S
C1362 C1361 1.398 . S
C1362 C1363 1.391 . S
C1363 H1351 0.950 . S
C1363 C1359 1.393 . S
C1363 C1362 1.391 . S
H1364 C1372 0.950 . S
H1365 C1377 0.950 . S
H1366 C1374 0.950 . S
H1367 C1376 0.950 . S
H1368 C1378 0.950 . S
H1369 C1380 0.950 . S
H1370 C1382 0.950 . S
H1371 C1383 0.950 . S
C1372 H1364 0.950 . S
C1372 C1373 1.386 . S
C1372 C1374 1.391 . S
C1373 C1372 1.386 . S
C1373 C1377 1.393 . S
C1374 H1366 0.950 . S
C1374 C1372 1.391 . S
C1374 C1375 1.400 . S
C1375 C1374 1.400 . S
C1375 C1376 1.398 . S
C1375 C1381 1.491 . S
C1376 H1367 0.950 . S
C1376 C1375 1.398 . S
C1376 C1377 1.391 . S
C1377 H1365 0.950 . S
C1377 C1373 1.393 . S
C1377 C1376 1.391 . S
C1378 H1368 0.950 . S
C1378 C1379 1.386 . S
C1378 C1380 1.391 . S
C1379 C1378 1.386 . S
C1379 C1383 1.393 . S
C1380 H1369 0.950 . S
C1380 C1378 1.391 . S
C1380 C1381 1.400 . S
C1381 C1375 1.491 . S
C1381 C1380 1.400 . S
C1381 C1382 1.398 . S
C1382 H1370 0.950 . S
C1382 C1381 1.398 . S
C1382 C1383 1.391 . S
C1383 H1371 0.950 . S
C1383 C1379 1.393 . S
C1383 C1382 1.391 . S
H1384 C1392 0.950 . S
H1385 C1397 0.950 . S
H1386 C1394 0.950 . S
H1387 C1396 0.950 . S
H1388 C1398 0.950 . S
H1389 C1400 0.950 . S
H1390 C1402 0.950 . S
H1391 C1403 0.950 . S
C1392 H1384 0.950 . S
C1392 C1393 1.386 . S
C1392 C1394 1.391 . S
C1393 C1392 1.386 . S
C1393 C1397 1.393 . S
C1394 H1386 0.950 . S
C1394 C1392 1.391 . S
C1394 C1395 1.400 . S
C1395 C1394 1.400 . S
C1395 C1396 1.398 . S
C1395 C1401 1.491 . S
C1396 H1387 0.950 . S
C1396 C1395 1.398 . S
C1396 C1397 1.391 . S
C1397 H1385 0.950 . S
C1397 C1393 1.393 . S
C1397 C1396 1.391 . S
C1398 H1388 0.950 . S
C1398 C1399 1.386 . S
C1398 C1400 1.391 . S
C1399 C1398 1.386 . S
C1399 C1403 1.393 . S
C1400 H1389 0.950 . S
C1400 C1398 1.391 . S
C1400 C1401 1.400 . S
C1401 C1395 1.491 . S
C1401 C1400 1.400 . S
C1401 C1402 1.398 . S
C1402 H1390 0.950 . S
C1402 C1401 1.398 . S
C1402 C1403 1.391 . S
C1403 H1391 0.950 . S
C1403 C1399 1.393 . S
C1403 C1402 1.391 . S
H1404 C1412 0.950 . S
H1405 C1417 0.950 . S
H1406 C1414 0.950 . S
H1407 C1416 0.950 . S
H1408 C1418 0.950 . S
H1409 C1420 0.950 . S
H1410 C1422 0.950 . S
H1411 C1423 0.950 . S
C1412 H1404 0.950 . S
C1412 C1413 1.386 . S
C1412 C1414 1.391 . S
C1413 C1412 1.386 . S
C1413 C1417 1.393 . S
C1414 H1406 0.950 . S
C1414 C1412 1.391 . S
C1414 C1415 1.400 . S
C1415 C1414 1.400 . S
C1415 C1416 1.398 . S
C1415 C1421 1.491 . S
C1416 H1407 0.950 . S
C1416 C1415 1.398 . S
C1416 C1417 1.391 . S
C1417 H1405 0.950 . S
C1417 C1413 1.393 . S
C1417 C1416 1.391 . S
C1418 H1408 0.950 . S
C1418 C1419 1.386 . S
C1418 C1420 1.391 . S
C1419 C1418 1.386 . S
C1419 C1423 1.393 . S
C1420 H1409 0.950 . S
C1420 C1418 1.391 . S
C1420 C1421 1.400 . S
C1421 C1415 1.491 . S
C1421 C1420 1.400 . S
C1421 C1422 1.398 . S
C1422 H1410 0.950 . S
C1422 C1421 1.398 . S
C1422 C1423 1.391 . S
C1423 H1411 0.950 . S
C1423 C1419 1.393 . S
C1423 C1422 1.391 . S
H1424 C1432 0.950 . S
H1425 C1437 0.950 . S
H1426 C1434 0.950 . S
H1427 C1436 0.950 . S
H1428 C1438 0.950 . S
H1429 C1440 0.950 . S
H1430 C1442 0.950 . S
H1431 C1443 0.950 . S
C1432 H1424 0.950 . S
C1432 C1433 1.386 . S
C1432 C1434 1.391 . S
C1433 C1432 1.386 . S
C1433 C1437 1.393 . S
C1434 H1426 0.950 . S
C1434 C1432 1.391 . S
C1434 C1435 1.400 . S
C1435 C1434 1.400 . S
C1435 C1436 1.398 . S
C1435 C1441 1.491 . S
C1436 H1427 0.950 . S
C1436 C1435 1.398 . S
C1436 C1437 1.391 . S
C1437 H1425 0.950 . S
C1437 C1433 1.393 . S
C1437 C1436 1.391 . S
C1438 H1428 0.950 . S
C1438 C1439 1.386 . S
C1438 C1440 1.391 . S
C1439 C1438 1.386 . S
C1439 C1443 1.393 . S
C1440 H1429 0.950 . S
C1440 C1438 1.391 . S
C1440 C1441 1.400 . S
C1441 C1435 1.491 . S
C1441 C1440 1.400 . S
C1441 C1442 1.398 . S
C1442 H1430 0.950 . S
C1442 C1441 1.398 . S
C1442 C1443 1.391 . S
C1443 H1431 0.950 . S
C1443 C1439 1.393 . S
C1443 C1442 1.391 . S
H1444 C1452 0.950 . S
H1445 C1457 0.950 . S
H1446 C1454 0.950 . S
H1447 C1456 0.950 . S
H1448 C1458 0.950 . S
H1449 C1460 0.950 . S
H1450 C1462 0.950 . S
H1451 C1463 0.950 . S
C1452 H1444 0.950 . S
C1452 C1453 1.386 . S
C1452 C1454 1.391 . S
C1453 C1452 1.386 . S
C1453 C1457 1.393 . S
C1454 H1446 0.950 . S
C1454 C1452 1.391 . S
C1454 C1455 1.400 . S
C1455 C1454 1.400 . S
C1455 C1456 1.398 . S
C1455 C1461 1.491 . S
C1456 H1447 0.950 . S
C1456 C1455 1.398 . S
C1456 C1457 1.391 . S
C1457 H1445 0.950 . S
C1457 C1453 1.393 . S
C1457 C1456 1.391 . S
C1458 H1448 0.950 . S
C1458 C1459 1.386 . S
C1458 C1460 1.391 . S
C1459 C1458 1.386 . S
C1459 C1463 1.393 . S
C1460 H1449 0.950 . S
C1460 C1458 1.391 . S
C1460 C1461 1.400 . S
C1461 C1455 1.491 . S
C1461 C1460 1.400 . S
C1461 C1462 1.398 . S
C1462 H1450 0.950 . S
C1462 C1461 1.398 . S
C1462 C1463 1.391 . S
C1463 H1451 0.950 . S
C1463 C1459 1.393 . S
C1463 C1462 1.391 . S
H1464 C1472 0.950 . S
H1465 C1477 0.950 . S
H1466 C1474 0.950 . S
H1467 C1476 0.950 . S
H1468 C1478 0.950 . S
H1469 C1480 0.950 . S
H1470 C1482 0.950 . S
H1471 C1483 0.950 . S
C1472 H1464 0.950 . S
C1472 C1473 1.386 . S
C1472 C1474 1.391 . S
C1473 C1472 1.386 . S
C1473 C1477 1.393 . S
C1474 H1466 0.950 . S
C1474 C1472 1.391 . S
C1474 C1475 1.400 . S
C1475 C1474 1.400 . S
C1475 C1476 1.398 . S
C1475 C1481 1.491 . S
C1476 H1467 0.950 . S
C1476 C1475 1.398 . S
C1476 C1477 1.391 . S
C1477 H1465 0.950 . S
C1477 C1473 1.393 . S
C1477 C1476 1.391 . S
C1478 H1468 0.950 . S
C1478 C1479 1.386 . S
C1478 C1480 1.391 . S
C1479 C1478 1.386 . S
C1479 C1483 1.393 . S
C1480 H1469 0.950 . S
C1480 C1478 1.391 . S
C1480 C1481 1.400 . S
C1481 C1475 1.491 . S
C1481 C1480 1.400 . S
C1481 C1482 1.398 . S
C1482 H1470 0.950 . S
C1482 C1481 1.398 . S
C1482 C1483 1.391 . S
C1483 H1471 0.950 . S
C1483 C1479 1.393 . S
C1483 C1482 1.391 . S
H1484 C1492 0.950 . S
H1485 C1497 0.950 . S
H1486 C1494 0.950 . S
H1487 C1496 0.950 . S
H1488 C1498 0.950 . S
H1489 C1500 0.950 . S
H1490 C1502 0.950 . S
H1491 C1503 0.950 . S
C1492 H1484 0.950 . S
C1492 C1493 1.386 . S
C1492 C1494 1.391 . S
C1493 C1492 1.386 . S
C1493 C1497 1.393 . S
C1494 H1486 0.950 . S
C1494 C1492 1.391 . S
C1494 C1495 1.400 . S
C1495 C1494 1.400 . S
C1495 C1496 1.398 . S
C1495 C1501 1.491 . S
C1496 H1487 0.950 . S
C1496 C1495 1.398 . S
C1496 C1497 1.391 . S
C1497 H1485 0.950 . S
C1497 C1493 1.393 . S
C1497 C1496 1.391 . S
C1498 H1488 0.950 . S
C1498 C1499 1.386 . S
C1498 C1500 1.391 . S
C1499 C1498 1.386 . S
C1499 C1503 1.393 . S
C1500 H1489 0.950 . S
C1500 C1498 1.391 . S
C1500 C1501 1.400 . S
C1501 C1495 1.491 . S
C1501 C1500 1.400 . S
C1501 C1502 1.398 . S
C1502 H1490 0.950 . S
C1502 C1501 1.398 . S
C1502 C1503 1.391 . S
C1503 H1491 0.950 . S
C1503 C1499 1.393 . S
C1503 C1502 1.391 . S
H1504 C1512 0.950 . S
H1505 C1517 0.950 . S
H1506 C1514 0.950 . S
H1507 C1516 0.950 . S
H1508 C1518 0.950 . S
H1509 C1520 0.950 . S
H1510 C1522 0.950 . S
H1511 C1523 0.950 . S
C1512 H1504 0.950 . S
C1512 C1513 1.386 . S
C1512 C1514 1.391 . S
C1513 C1512 1.386 . S
C1513 C1517 1.393 . S
C1514 H1506 0.950 . S
C1514 C1512 1.391 . S
C1514 C1515 1.400 . S
C1515 C1514 1.400 . S
C1515 C1516 1.398 . S
C1515 C1521 1.491 . S
C1516 H1507 0.950 . S
C1516 C1515 1.398 . S
C1516 C1517 1.391 . S
C1517 H1505 0.950 . S
C1517 C1513 1.393 . S
C1517 C1516 1.391 . S
C1518 H1508 0.950 . S
C1518 C1519 1.386 . S
C1518 C1520 1.391 . S
C1519 C1518 1.386 . S
C1519 C1523 1.393 . S
C1520 H1509 0.950 . S
C1520 C1518 1.391 . S
C1520 C1521 1.400 . S
C1521 C1515 1.491 . S
C1521 C1520 1.400 . S
C1521 C1522 1.398 . S
C1522 H1510 0.950 . S
C1522 C1521 1.398 . S
C1522 C1523 1.391 . S
C1523 H1511 0.950 . S
C1523 C1519 1.393 . S
C1523 C1522 1.391 . S
H1524 C1532 0.950 . S
H1525 C1537 0.950 . S
H1526 C1534 0.950 . S
H1527 C1536 0.950 . S
H1528 C1538 0.950 . S
H1529 C1540 0.950 . S
H1530 C1542 0.950 . S
H1531 C1543 0.950 . S
C1532 H1524 0.950 . S
C1532 C1533 1.386 . S
C1532 C1534 1.391 . S
C1533 C1532 1.386 . S
C1533 C1537 1.393 . S
C1534 H1526 0.950 . S
C1534 C1532 1.391 . S
C1534 C1535 1.400 . S
C1535 C1534 1.400 . S
C1535 C1536 1.398 . S
C1535 C1541 1.491 . S
C1536 H1527 0.950 . S
C1536 C1535 1.398 . S
C1536 C1537 1.391 . S
C1537 H1525 0.950 . S
C1537 C1533 1.393 . S
C1537 C1536 1.391 . S
C1538 H1528 0.950 . S
C1538 C1539 1.386 . S
C1538 C1540 1.391 . S
C1539 C1538 1.386 . S
C1539 C1543 1.393 . S
C1540 H1529 0.950 . S
C1540 C1538 1.391 . S
C1540 C1541 1.400 . S
C1541 C1535 1.491 . S
C1541 C1540 1.400 . S
C1541 C1542 1.398 . S
C1542 H1530 0.950 . S
C1542 C1541 1.398 . S
C1542 C1543 1.391 . S
C1543 H1531 0.950 . S
C1543 C1539 1.393 . S
C1543 C1542 1.391 . S
H1544 C1552 0.950 . S
H1545 C1557 0.950 . S
H1546 C1554 0.950 . S
H1547 C1556 0.950 . S
H1548 C1558 0.950 . S
H1549 C1560 0.950 . S
H1550 C1562 0.950 . S
H1551 C1563 0.950 . S
C1552 H1544 0.950 . S
C1552 C1553 1.386 . S
C1552 C1554 1.391 . S
C1553 C1552 1.386 . S
C1553 C1557 1.393 . S
C1554 H1546 0.950 . S
C1554 C1552 1.391 . S
C1554 C1555 1.400 . S
C1555 C1554 1.400 . S
C1555 C1556 1.398 . S
C1555 C1561 1.491 . S
C1556 H1547 0.950 . S
C1556 C1555 1.398 . S
C1556 C1557 1.391 . S
C1557 H1545 0.950 . S
C1557 C1553 1.393 . S
C1557 C1556 1.391 . S
C1558 H1548 0.950 . S
C1558 C1559 1.386 . S
C1558 C1560 1.391 . S
C1559 C1558 1.386 . S
C1559 C1563 1.393 . S
C1560 H1549 0.950 . S
C1560 C1558 1.391 . S
C1560 C1561 1.400 . S
C1561 C1555 1.491 . S
C1561 C1560 1.400 . S
C1561 C1562 1.398 . S
C1562 H1550 0.950 . S
C1562 C1561 1.398 . S
C1562 C1563 1.391 . S
C1563 H1551 0.950 . S
C1563 C1559 1.393 . S
C1563 C1562 1.391 . S
H1564 C1572 0.950 . S
H1565 C1577 0.950 . S
H1566 C1574 0.950 . S
H1567 C1576 0.950 . S
H1568 C1578 0.950 . S
H1569 C1580 0.950 . S
H1570 C1582 0.950 . S
H1571 C1583 0.950 . S
C1572 H1564 0.950 . S
C1572 C1573 1.386 . S
C1572 C1574 1.391 . S
C1573 C1572 1.386 . S
C1573 C1577 1.393 . S
C1574 H1566 0.950 . S
C1574 C1572 1.391 . S
C1574 C1575 1.400 . S
C1575 C1574 1.400 . S
C1575 C1576 1.398 . S
C1575 C1581 1.491 . S
C1576 H1567 0.950 . S
C1576 C1575 1.398 . S
C1576 C1577 1.391 . S
C1577 H1565 0.950 . S
C1577 C1573 1.393 . S
C1577 C1576 1.391 . S
C1578 H1568 0.950 . S
C1578 C1579 1.386 . S
C1578 C1580 1.391 . S
C1579 C1578 1.386 . S
C1579 C1583 1.393 . S
C1580 H1569 0.950 . S
C1580 C1578 1.391 . S
C1580 C1581 1.400 . S
C1581 C1575 1.491 . S
C1581 C1580 1.400 . S
C1581 C1582 1.398 . S
C1582 H1570 0.950 . S
C1582 C1581 1.398 . S
C1582 C1583 1.391 . S
C1583 H1571 0.950 . S
C1583 C1579 1.393 . S
C1583 C1582 1.391 . S
H1584 C1592 0.950 . S
H1585 C1597 0.950 . S
H1586 C1594 0.950 . S
H1587 C1596 0.950 . S
H1588 C1598 0.950 . S
H1589 C1600 0.950 . S
H1590 C1602 0.950 . S
H1591 C1603 0.950 . S
C1592 H1584 0.950 . S
C1592 C1593 1.386 . S
C1592 C1594 1.391 . S
C1593 C1592 1.386 . S
C1593 C1597 1.393 . S
C1594 H1586 0.950 . S
C1594 C1592 1.391 . S
C1594 C1595 1.400 . S
C1595 C1594 1.400 . S
C1595 C1596 1.398 . S
C1595 C1601 1.491 . S
C1596 H1587 0.950 . S
C1596 C1595 1.398 . S
C1596 C1597 1.391 . S
C1597 H1585 0.950 . S
C1597 C1593 1.393 . S
C1597 C1596 1.391 . S
C1598 H1588 0.950 . S
C1598 C1599 1.386 . S
C1598 C1600 1.391 . S
C1599 C1598 1.386 . S
C1599 C1603 1.393 . S
C1600 H1589 0.950 . S
C1600 C1598 1.391 . S
C1600 C1601 1.400 . S
C1601 C1595 1.491 . S
C1601 C1600 1.400 . S
C1601 C1602 1.398 . S
C1602 H1590 0.950 . S
C1602 C1601 1.398 . S
C1602 C1603 1.391 . S
C1603 H1591 0.950 . S
C1603 C1599 1.393 . S
C1603 C1602 1.391 . S
H1604 C1612 0.950 . S
H1605 C1617 0.950 . S
H1606 C1614 0.950 . S
H1607 C1616 0.950 . S
H1608 C1618 0.950 . S
H1609 C1620 0.950 1_565 S
H1610 C1622 0.950 . S
H1611 C1623 0.950 . S
C1612 H1604 0.950 . S
C1612 C1613 1.386 1_545 S
C1612 C1614 1.391 . S
C1613 C1612 1.386 1_565 S
C1613 C1617 1.393 . S
C1614 H1606 0.950 . S
C1614 C1612 1.391 . S
C1614 C1615 1.400 . S
C1615 C1614 1.400 . S
C1615 C1616 1.398 1_545 S
C1615 C1621 1.491 . S
C1616 H1607 0.950 . S
C1616 C1615 1.398 1_565 S
C1616 C1617 1.391 . S
C1617 H1605 0.950 . S
C1617 C1613 1.393 . S
C1617 C1616 1.391 . S
C1618 H1608 0.950 . S
C1618 C1619 1.386 . S
C1618 C1620 1.391 . S
C1619 C1618 1.386 . S
C1619 C1623 1.393 . S
C1620 H1609 0.950 1_545 S
C1620 C1618 1.391 . S
C1620 C1621 1.400 . S
C1621 C1615 1.491 . S
C1621 C1620 1.400 . S
C1621 C1622 1.398 . S
C1622 H1610 0.950 . S
C1622 C1621 1.398 . S
C1622 C1623 1.391 . S
C1623 H1611 0.950 . S
C1623 C1619 1.393 . S
C1623 C1622 1.391 . S
H1624 C1632 0.950 . S
H1625 C1637 0.950 . S
H1626 C1634 0.950 . S
H1627 C1636 0.950 1_455 S
H1628 C1638 0.950 . S
H1629 C1640 0.950 . S
H1630 C1642 0.950 . S
H1631 C1643 0.950 . S
C1632 H1624 0.950 . S
C1632 C1633 1.386 . S
C1632 C1634 1.391 . S
C1633 C1632 1.386 . S
C1633 C1637 1.393 . S
C1634 H1626 0.950 . S
C1634 C1632 1.391 . S
C1634 C1635 1.400 . S
C1635 C1634 1.400 . S
C1635 C1636 1.398 . S
C1635 C1641 1.491 . S
C1636 H1627 0.950 1_655 S
C1636 C1635 1.398 . S
C1636 C1637 1.391 . S
C1637 H1625 0.950 . S
C1637 C1633 1.393 . S
C1637 C1636 1.391 . S
C1638 H1628 0.950 . S
C1638 C1639 1.386 . S
C1638 C1640 1.391 . S
C1639 C1638 1.386 . S
C1639 C1643 1.393 1_455 S
C1640 H1629 0.950 . S
C1640 C1638 1.391 . S
C1640 C1641 1.400 1_455 S
C1641 C1635 1.491 . S
C1641 C1640 1.400 1_655 S
C1641 C1642 1.398 . S
C1642 H1630 0.950 . S
C1642 C1641 1.398 . S
C1642 C1643 1.391 . S
C1643 H1631 0.950 . S
C1643 C1639 1.393 1_655 S
C1643 C1642 1.391 . S
H1644 C1652 0.950 . S
H1645 C1657 0.950 . S
H1646 C1654 0.950 . S
H1647 C1656 0.950 . S
H1648 C1658 0.950 . S
H1649 C1660 0.950 . S
H1650 C1662 0.950 . S
H1651 C1663 0.950 . S
C1652 H1644 0.950 . S
C1652 C1653 1.386 . S
C1652 C1654 1.391 . S
C1653 C1652 1.386 . S
C1653 C1657 1.393 . S
C1654 H1646 0.950 . S
C1654 C1652 1.391 . S
C1654 C1655 1.400 . S
C1655 C1654 1.400 . S
C1655 C1656 1.398 . S
C1655 C1661 1.491 . S
C1656 H1647 0.950 . S
C1656 C1655 1.398 . S
C1656 C1657 1.391 . S
C1657 H1645 0.950 . S
C1657 C1653 1.393 . S
C1657 C1656 1.391 . S
C1658 H1648 0.950 . S
C1658 C1659 1.386 . S
C1658 C1660 1.391 . S
C1659 C1658 1.386 . S
C1659 C1663 1.393 . S
C1660 H1649 0.950 . S
C1660 C1658 1.391 . S
C1660 C1661 1.400 . S
C1661 C1655 1.491 . S
C1661 C1660 1.400 . S
C1661 C1662 1.398 . S
C1662 H1650 0.950 . S
C1662 C1661 1.398 . S
C1662 C1663 1.391 . S
C1663 H1651 0.950 . S
C1663 C1659 1.393 . S
C1663 C1662 1.391 . S
H1664 C1672 0.950 . S
H1665 C1677 0.950 . S
H1666 C1674 0.950 . S
H1667 C1676 0.950 . S
H1668 C1678 0.950 . S
H1669 C1680 0.950 . S
H1670 C1682 0.950 . S
H1671 C1683 0.950 . S
C1672 H1664 0.950 . S
C1672 C1673 1.386 . S
C1672 C1674 1.391 . S
C1673 C1672 1.386 . S
C1673 C1677 1.393 1_545 S
C1674 H1666 0.950 . S
C1674 C1672 1.391 . S
C1674 C1675 1.400 1_545 S
C1675 C1674 1.400 1_565 S
C1675 C1676 1.398 . S
C1675 C1681 1.491 . S
C1676 H1667 0.950 . S
C1676 C1675 1.398 . S
C1676 C1677 1.391 . S
C1677 H1665 0.950 . S
C1677 C1673 1.393 1_565 S
C1677 C1676 1.391 . S
C1678 H1668 0.950 . S
C1678 C1679 1.386 . S
C1678 C1680 1.391 . S
C1679 C1678 1.386 . S
C1679 C1683 1.393 . S
C1680 H1669 0.950 . S
C1680 C1678 1.391 . S
C1680 C1681 1.400 . S
C1681 C1675 1.491 . S
C1681 C1680 1.400 . S
C1681 C1682 1.398 . S
C1682 H1670 0.950 . S
C1682 C1681 1.398 . S
C1682 C1683 1.391 . S
C1683 H1671 0.950 . S
C1683 C1679 1.393 . S
C1683 C1682 1.391 . S
H1684 C1692 0.950 . S
H1685 C1697 0.950 . S
H1686 C1694 0.950 . S
H1687 C1696 0.950 . S
H1688 C1698 0.950 . S
H1689 C1700 0.950 . S
H1690 C1702 0.953 . S
H1691 C1703 0.950 . S
C1692 H1684 0.950 . S
C1692 C1693 1.386 . S
C1692 C1694 1.391 . S
C1693 C1692 1.386 . S
C1693 C1697 1.393 . S
C1694 H1686 0.950 . S
C1694 C1692 1.391 . S
C1694 C1695 1.400 . S
C1695 C1694 1.400 . S
C1695 C1696 1.398 . S
C1695 C1701 1.491 . S
C1696 H1687 0.950 . S
C1696 C1695 1.398 . S
C1696 C1697 1.391 . S
C1697 H1685 0.950 . S
C1697 C1693 1.393 . S
C1697 C1696 1.391 . S
C1698 H1688 0.950 . S
C1698 C1699 1.386 1_455 S
C1698 C1700 1.391 . S
C1699 C1698 1.386 1_655 S
C1699 C1703 1.393 . S
C1700 H1689 0.950 . S
C1700 C1698 1.391 . S
C1700 C1701 1.400 . S
C1701 C1695 1.491 . S
C1701 C1700 1.400 . S
C1701 C1702 1.395 1_455 S
C1702 H1690 0.953 . S
C1702 C1701 1.395 1_655 S
C1702 C1703 1.391 . S
C1703 H1691 0.950 . S
C1703 C1699 1.393 . S
C1703 C1702 1.391 . S
H1704 C1712 0.950 . S
H1705 C1717 0.950 . S
H1706 C1714 0.950 . S
H1707 C1716 0.950 . S
H1708 C1718 0.950 . S
H1709 C1720 0.950 . S
H1710 C1722 0.950 . S
H1711 C1723 0.950 . S
C1712 H1704 0.950 . S
C1712 C1713 1.386 . S
C1712 C1714 1.391 . S
C1713 C1712 1.386 . S
C1713 C1717 1.393 . S
C1714 H1706 0.950 . S
C1714 C1712 1.391 . S
C1714 C1715 1.400 . S
C1715 C1714 1.400 . S
C1715 C1716 1.398 . S
C1715 C1721 1.491 . S
C1716 H1707 0.950 . S
C1716 C1715 1.398 . S
C1716 C1717 1.391 . S
C1717 H1705 0.950 . S
C1717 C1713 1.393 . S
C1717 C1716 1.391 . S
C1718 H1708 0.950 . S
C1718 C1719 1.386 . S
C1718 C1720 1.391 . S
C1719 C1718 1.386 . S
C1719 C1723 1.393 . S
C1720 H1709 0.950 . S
C1720 C1718 1.391 . S
C1720 C1721 1.400 . S
C1721 C1715 1.491 . S
C1721 C1720 1.400 . S
C1721 C1722 1.398 . S
C1722 H1710 0.950 . S
C1722 C1721 1.398 . S
C1722 C1723 1.391 . S
C1723 H1711 0.950 . S
C1723 C1719 1.393 . S
C1723 C1722 1.391 . S
H1724 C1732 0.950 . S
H1725 C1737 0.950 . S
H1726 C1734 0.950 . S
H1727 C1736 0.950 . S
H1728 C1738 0.950 . S
H1729 C1740 0.950 . S
H1730 C1742 0.950 . S
H1731 C1743 0.950 . S
C1732 H1724 0.950 . S
C1732 C1733 1.386 . S
C1732 C1734 1.391 . S
C1733 C1732 1.386 . S
C1733 C1737 1.393 . S
C1734 H1726 0.950 . S
C1734 C1732 1.391 . S
C1734 C1735 1.400 . S
C1735 C1734 1.400 . S
C1735 C1736 1.398 . S
C1735 C1741 1.491 . S
C1736 H1727 0.950 . S
C1736 C1735 1.398 . S
C1736 C1737 1.391 . S
C1737 H1725 0.950 . S
C1737 C1733 1.393 . S
C1737 C1736 1.391 . S
C1738 H1728 0.950 . S
C1738 C1739 1.386 1_565 S
C1738 C1740 1.391 . S
C1739 C1738 1.386 1_545 S
C1739 C1743 1.393 . S
C1740 H1729 0.950 . S
C1740 C1738 1.391 . S
C1740 C1741 1.400 . S
C1741 C1735 1.491 . S
C1741 C1740 1.400 . S
C1741 C1742 1.398 1_565 S
C1742 H1730 0.950 . S
C1742 C1741 1.398 1_545 S
C1742 C1743 1.391 . S
C1743 H1731 0.950 . S
C1743 C1739 1.393 . S
C1743 C1742 1.391 . S
H1744 C1752 0.950 . S
H1745 C1757 0.950 . S
H1746 C1754 0.950 1_655 S
H1747 C1756 0.950 . S
H1748 C1758 0.950 . S
H1749 C1760 0.950 . S
H1750 C1762 0.950 . S
H1751 C1763 0.950 . S
C1752 H1744 0.950 . S
C1752 C1753 1.386 . S
C1752 C1754 1.391 . S
C1753 C1752 1.386 . S
C1753 C1757 1.393 . S
C1754 H1746 0.950 1_455 S
C1754 C1752 1.391 . S
C1754 C1755 1.400 . S
C1755 C1754 1.400 . S
C1755 C1756 1.398 . S
C1755 C1761 1.491 . S
C1756 H1747 0.950 . S
C1756 C1755 1.398 . S
C1756 C1757 1.391 . S
C1757 H1745 0.950 . S
C1757 C1753 1.393 . S
C1757 C1756 1.391 . S
C1758 H1748 0.950 . S
C1758 C1759 1.386 1_455 S
C1758 C1760 1.391 . S
C1759 C1758 1.386 1_655 S
C1759 C1763 1.393 . S
C1760 H1749 0.950 . S
C1760 C1758 1.391 . S
C1760 C1761 1.400 . S
C1761 C1755 1.491 . S
C1761 C1760 1.400 . S
C1761 C1762 1.398 1_455 S
C1762 H1750 0.950 . S
C1762 C1761 1.398 1_655 S
C1762 C1763 1.391 . S
C1763 H1751 0.950 . S
C1763 C1759 1.393 . S
C1763 C1762 1.391 . S
H1764 C1772 0.950 . S
H1765 C1777 0.950 . S
H1766 C1774 0.950 . S
H1767 C1776 0.950 . S
H1768 C1778 0.950 . S
H1769 C1780 0.950 . S
H1770 C1782 0.950 . S
H1771 C1783 0.950 . S
C1772 H1764 0.950 . S
C1772 C1773 1.386 . S
C1772 C1774 1.391 . S
C1773 C1772 1.386 . S
C1773 C1777 1.393 . S
C1774 H1766 0.950 . S
C1774 C1772 1.391 . S
C1774 C1775 1.400 . S
C1775 C1774 1.400 . S
C1775 C1776 1.398 . S
C1775 C1781 1.491 . S
C1776 H1767 0.950 . S
C1776 C1775 1.398 . S
C1776 C1777 1.391 . S
C1777 H1765 0.950 . S
C1777 C1773 1.393 . S
C1777 C1776 1.391 . S
C1778 H1768 0.950 . S
C1778 C1779 1.386 . S
C1778 C1780 1.391 . S
C1779 C1778 1.386 . S
C1779 C1783 1.393 . S
C1780 H1769 0.950 . S
C1780 C1778 1.391 . S
C1780 C1781 1.400 . S
C1781 C1775 1.491 . S
C1781 C1780 1.400 . S
C1781 C1782 1.398 . S
C1782 H1770 0.950 . S
C1782 C1781 1.398 . S
C1782 C1783 1.391 . S
C1783 H1771 0.950 . S
C1783 C1779 1.393 . S
C1783 C1782 1.391 . S
H1784 C1792 0.950 . S
H1785 C1797 0.950 . S
H1786 C1794 0.950 . S
H1787 C1796 0.950 . S
H1788 C1798 0.950 . S
H1789 C1800 0.950 . S
H1790 C1802 0.950 . S
H1791 C1803 0.950 . S
C1792 H1784 0.950 . S
C1792 C1793 1.386 . S
C1792 C1794 1.391 . S
C1793 C1792 1.386 . S
C1793 C1797 1.393 . S
C1794 H1786 0.950 . S
C1794 C1792 1.391 . S
C1794 C1795 1.400 . S
C1795 C1794 1.400 . S
C1795 C1796 1.398 . S
C1795 C1801 1.491 . S
C1796 H1787 0.950 . S
C1796 C1795 1.398 . S
C1796 C1797 1.391 . S
C1797 H1785 0.950 . S
C1797 C1793 1.393 . S
C1797 C1796 1.391 . S
C1798 H1788 0.950 . S
C1798 C1799 1.386 . S
C1798 C1800 1.391 . S
C1799 C1798 1.386 . S
C1799 C1803 1.393 1_565 S
C1800 H1789 0.950 . S
C1800 C1798 1.391 . S
C1800 C1801 1.400 1_565 S
C1801 C1795 1.491 . S
C1801 C1800 1.400 1_545 S
C1801 C1802 1.398 . S
C1802 H1790 0.950 . S
C1802 C1801 1.398 . S
C1802 C1803 1.391 . S
C1803 H1791 0.950 . S
C1803 C1799 1.393 1_545 S
C1803 C1802 1.391 . S
H1804 C1812 0.950 . S
H1805 C1817 0.950 . S
H1806 C1814 0.950 . S
H1807 C1816 0.950 . S
H1808 C1818 0.950 . S
H1809 C1820 0.950 . S
H1810 C1822 0.950 1_455 S
H1811 C1823 0.950 . S
C1812 H1804 0.950 . S
C1812 C1813 1.386 . S
C1812 C1814 1.391 . S
C1813 C1812 1.386 . S
C1813 C1817 1.393 1_455 S
C1814 H1806 0.950 . S
C1814 C1812 1.391 . S
C1814 C1815 1.400 1_455 S
C1815 C1814 1.400 1_655 S
C1815 C1816 1.398 . S
C1815 C1821 1.491 . S
C1816 H1807 0.950 . S
C1816 C1815 1.398 . S
C1816 C1817 1.391 . S
C1817 H1805 0.950 . S
C1817 C1813 1.393 1_655 S
C1817 C1816 1.391 . S
C1818 H1808 0.950 . S
C1818 C1819 1.386 . S
C1818 C1820 1.391 . S
C1819 C1818 1.386 . S
C1819 C1823 1.393 . S
C1820 H1809 0.950 . S
C1820 C1818 1.391 . S
C1820 C1821 1.400 . S
C1821 C1815 1.491 . S
C1821 C1820 1.400 . S
C1821 C1822 1.398 . S
C1822 H1810 0.950 1_655 S
C1822 C1821 1.398 . S
C1822 C1823 1.391 . S
C1823 H1811 0.950 . S
C1823 C1819 1.393 . S
C1823 C1822 1.391 . S
H1824 C1832 0.950 . S
H1825 C1837 0.950 . S
H1826 C1834 0.950 . S
H1827 C1836 0.950 . S
H1828 C1838 0.950 . S
H1829 C1840 0.950 . S
H1830 C1842 0.950 . S
H1831 C1843 0.950 . S
C1832 H1824 0.950 . S
C1832 C1833 1.386 . S
C1832 C1834 1.391 . S
C1833 C1832 1.386 . S
C1833 C1837 1.393 . S
C1834 H1826 0.950 . S
C1834 C1832 1.391 . S
C1834 C1835 1.400 . S
C1835 C1834 1.400 . S
C1835 C1836 1.398 . S
C1835 C1841 1.491 1_655 S
C1836 H1827 0.950 . S
C1836 C1835 1.398 . S
C1836 C1837 1.391 . S
C1837 H1825 0.950 . S
C1837 C1833 1.393 . S
C1837 C1836 1.391 . S
C1838 H1828 0.950 . S
C1838 C1839 1.386 . S
C1838 C1840 1.391 . S
C1839 C1838 1.386 . S
C1839 C1843 1.393 . S
C1840 H1829 0.950 . S
C1840 C1838 1.391 . S
C1840 C1841 1.400 . S
C1841 C1835 1.491 1_455 S
C1841 C1840 1.400 . S
C1841 C1842 1.398 . S
C1842 H1830 0.950 . S
C1842 C1841 1.398 . S
C1842 C1843 1.391 . S
C1843 H1831 0.950 . S
C1843 C1839 1.393 . S
C1843 C1842 1.391 . S
H1844 C1852 0.950 . S
H1845 C1857 0.950 . S
H1846 C1854 0.950 . S
H1847 C1856 0.950 . S
H1848 C1858 0.950 . S
H1849 C1860 0.950 . S
H1850 C1862 0.950 . S
H1851 C1863 0.950 . S
C1852 H1844 0.950 . S
C1852 C1853 1.386 . S
C1852 C1854 1.391 . S
C1853 C1852 1.386 . S
C1853 C1857 1.393 . S
C1854 H1846 0.950 . S
C1854 C1852 1.391 . S
C1854 C1855 1.400 . S
C1855 C1854 1.400 . S
C1855 C1856 1.398 . S
C1855 C1861 1.491 . S
C1856 H1847 0.950 . S
C1856 C1855 1.398 . S
C1856 C1857 1.391 . S
C1857 H1845 0.950 . S
C1857 C1853 1.393 . S
C1857 C1856 1.391 . S
C1858 H1848 0.950 . S
C1858 C1859 1.386 . S
C1858 C1860 1.391 . S
C1859 C1858 1.386 . S
C1859 C1863 1.393 . S
C1860 H1849 0.950 . S
C1860 C1858 1.391 . S
C1860 C1861 1.400 . S
C1861 C1855 1.491 . S
C1861 C1860 1.400 . S
C1861 C1862 1.398 . S
C1862 H1850 0.950 . S
C1862 C1861 1.398 . S
C1862 C1863 1.391 . S
C1863 H1851 0.950 . S
C1863 C1859 1.393 . S
C1863 C1862 1.391 . S
H1864 C1872 0.950 . S
H1865 C1877 0.950 . S
H1866 C1874 0.950 . S
H1867 C1876 0.950 . S
H1868 C1878 0.950 . S
H1869 C1880 0.950 . S
H1870 C1882 0.950 . S
H1871 C1883 0.950 . S
C1872 H1864 0.950 . S
C1872 C1873 1.386 . S
C1872 C1874 1.391 . S
C1873 C1872 1.386 . S
C1873 C1877 1.393 . S
C1874 H1866 0.950 . S
C1874 C1872 1.391 . S
C1874 C1875 1.400 . S
C1875 C1874 1.400 . S
C1875 C1876 1.398 . S
C1875 C1881 1.491 1_565 S
C1876 H1867 0.950 . S
C1876 C1875 1.398 . S
C1876 C1877 1.391 . S
C1877 H1865 0.950 . S
C1877 C1873 1.393 . S
C1877 C1876 1.391 . S
C1878 H1868 0.950 . S
C1878 C1879 1.386 . S
C1878 C1880 1.391 . S
C1879 C1878 1.386 . S
C1879 C1883 1.393 . S
C1880 H1869 0.950 . S
C1880 C1878 1.391 . S
C1880 C1881 1.400 . S
C1881 C1875 1.491 1_545 S
C1881 C1880 1.400 . S
C1881 C1882 1.398 . S
C1882 H1870 0.950 . S
C1882 C1881 1.398 . S
C1882 C1883 1.391 . S
C1883 H1871 0.950 . S
C1883 C1879 1.393 . S
C1883 C1882 1.391 . S
H1884 C1892 0.950 . S
H1885 C1897 0.950 . S
H1886 C1894 0.950 . S
H1887 C1896 0.950 . S
H1888 C1898 0.950 . S
H1889 C1900 0.950 . S
H1890 C1902 0.950 . S
H1891 C1903 0.950 . S
C1892 H1884 0.950 . S
C1892 C1893 1.386 . S
C1892 C1894 1.391 . S
C1893 C1892 1.386 . S
C1893 C1897 1.393 . S
C1894 H1886 0.950 . S
C1894 C1892 1.391 . S
C1894 C1895 1.400 . S
C1895 C1894 1.400 . S
C1895 C1896 1.398 . S
C1895 C1901 1.491 1_565 S
C1896 H1887 0.950 . S
C1896 C1895 1.398 . S
C1896 C1897 1.391 . S
C1897 H1885 0.950 . S
C1897 C1893 1.393 . S
C1897 C1896 1.391 . S
C1898 H1888 0.950 . S
C1898 C1899 1.386 . S
C1898 C1900 1.391 . S
C1899 C1898 1.386 . S
C1899 C1903 1.393 . S
C1900 H1889 0.950 . S
C1900 C1898 1.391 . S
C1900 C1901 1.400 . S
C1901 C1895 1.491 1_545 S
C1901 C1900 1.400 . S
C1901 C1902 1.398 . S
C1902 H1890 0.950 . S
C1902 C1901 1.398 . S
C1902 C1903 1.391 . S
C1903 H1891 0.950 . S
C1903 C1899 1.393 . S
C1903 C1902 1.391 . S
H1904 C1912 0.950 . S
H1905 C1917 0.950 . S
H1906 C1914 0.950 . S
H1907 C1916 0.950 . S
H1908 C1918 0.950 . S
H1909 C1920 0.950 . S
H1910 C1922 0.950 . S
H1911 C1923 0.950 . S
C1912 H1904 0.950 . S
C1912 C1913 1.386 . S
C1912 C1914 1.391 . S
C1913 C1912 1.386 . S
C1913 C1917 1.393 . S
C1914 H1906 0.950 . S
C1914 C1912 1.391 . S
C1914 C1915 1.400 . S
C1915 C1914 1.400 . S
C1915 C1916 1.398 . S
C1915 C1921 1.491 1_655 S
C1916 H1907 0.950 . S
C1916 C1915 1.398 . S
C1916 C1917 1.391 . S
C1917 H1905 0.950 . S
C1917 C1913 1.393 . S
C1917 C1916 1.391 . S
C1918 H1908 0.950 . S
C1918 C1919 1.386 . S
C1918 C1920 1.391 . S
C1919 C1918 1.386 . S
C1919 C1923 1.393 . S
C1920 H1909 0.950 . S
C1920 C1918 1.391 . S
C1920 C1921 1.400 . S
C1921 C1915 1.491 1_455 S
C1921 C1920 1.400 . S
C1921 C1922 1.398 . S
C1922 H1910 0.950 . S
C1922 C1921 1.398 . S
C1922 C1923 1.391 . S
C1923 H1911 0.950 . S
C1923 C1919 1.393 . S
C1923 C1922 1.391 . S
H1924 C1932 0.950 . S
H1925 C1937 0.950 . S
H1926 C1934 0.950 . S
H1927 C1936 0.950 . S
H1928 C1938 0.950 . S
H1929 C1940 0.950 . S
H1930 C1942 0.950 . S
H1931 C1943 0.950 . S
C1932 H1924 0.950 . S
C1932 C1933 1.386 . S
C1932 C1934 1.391 . S
C1933 C1932 1.386 . S
C1933 C1937 1.393 . S
C1934 H1926 0.950 . S
C1934 C1932 1.391 . S
C1934 C1935 1.400 . S
C1935 C1934 1.400 . S
C1935 C1936 1.398 . S
C1935 C1941 1.491 . S
C1936 H1927 0.950 . S
C1936 C1935 1.398 . S
C1936 C1937 1.391 . S
C1937 H1925 0.950 . S
C1937 C1933 1.393 . S
C1937 C1936 1.391 . S
C1938 H1928 0.950 . S
C1938 C1939 1.386 . S
C1938 C1940 1.391 . S
C1939 C1938 1.386 . S
C1939 C1943 1.393 . S
C1940 H1929 0.950 . S
C1940 C1938 1.391 . S
C1940 C1941 1.400 . S
C1941 C1935 1.491 . S
C1941 C1940 1.400 . S
C1941 C1942 1.398 . S
C1942 H1930 0.950 . S
C1942 C1941 1.398 . S
C1942 C1943 1.391 . S
C1943 H1931 0.950 . S
C1943 C1939 1.393 . S
C1943 C1942 1.391 . S
C513 C7 1.322 . S
C519 C259 1.322 . S
C533 C21 1.331 . S
C539 C273 1.331 . S
C553 C287 1.324 . S
C559 C35 1.324 . S
C573 C49 1.338 . S
C579 C469 1.338 . S
C593 C483 1.322 . S
C599 C63 1.322 . S
C613 C77 1.336 . S
C619 C497 1.336 . S
C633 C343 1.330 . S
C639 C91 1.330 . S
C653 C105 1.324 . S
C659 C357 1.324 . S
C673 C119 1.324 . S
C679 C371 1.324 . S
C693 C133 1.327 . S
C699 C217 1.327 . S
C713 C231 1.333 . S
C719 C147 1.333 . S
C733 C161 1.330 . S
C739 C245 1.330 . S
C753 C175 1.326 . S
C759 C427 1.326 . S
C773 C189 1.326 . S
C779 C441 1.326 . S
C793 C203 1.333 . S
C799 C455 1.333 . S
C813 C301 1.322 . S
C819 C385 1.322 . S
C833 C315 1.335 . S
C839 C399 1.335 . S
C853 C329 1.324 . S
C859 C413 1.324 . S
C873 C106 1.417 . S
C879 C6 1.449 . S
C893 C120 1.410 . S
C899 C20 1.445 . S
C913 C34 1.436 . S
C919 C92 1.392 . S
C933 C162 1.394 . S
C939 C48 1.437 . S
C953 C134 1.401 . S
C959 C62 1.440 . S
C973 C148 1.416 . S
C979 C76 1.448 . S
C993 C90 1.450 . S
C999 C22 1.419 . S
C1013 C104 1.447 . S
C1019 C36 1.413 . S
C1033 C118 1.447 . S
C1039 C8 1.414 . S
C1053 C132 1.449 . S
C1059 C78 1.416 . S
C1073 C50 1.412 . S
C1079 C146 1.447 . S
C1093 C64 1.418 . S
C1099 C160 1.450 . S
C1113 C174 1.439 . S
C1119 C274 1.397 . S
C1133 C188 1.437 . S
C1139 C288 1.393 . S
C1153 C202 1.440 . S
C1159 C260 1.398 . S
C1173 C330 1.405 . S
C1179 C216 1.442 . S
C1193 C230 1.443 . S
C1199 C302 1.408 . S
C1213 C316 1.410 . S
C1219 C244 1.444 . S
C1233 C258 1.443 . S
C1239 C190 1.404 . S
C1253 C204 1.395 . S
C1259 C272 1.439 . S
C1273 C176 1.416 . S
C1279 C286 1.448 . S
C1293 C300 1.438 . S
C1299 C246 1.397 . S
C1313 C314 1.446 . S
C1319 C218 1.412 . S
C1333 C328 1.449 . S
C1339 C232 1.416 . S
C1353 C442 1.407 . S
C1359 C342 1.445 . S
C1373 C356 1.442 . S
C1379 C456 1.405 . S
C1393 C370 1.444 . S
C1399 C428 1.410 . S
C1413 C498 1.413 . S
C1419 C384 1.448 . S
C1433 C470 1.418 . S
C1439 C398 1.450 . S
C1453 C484 1.418 . S
C1459 C412 1.450 . S
C1473 C358 1.401 . S
C1479 C426 1.440 . S
C1493 C372 1.393 . S
C1499 C440 1.436 . S
C1513 C344 1.408 . S
C1519 C454 1.443 . S
C1533 C468 1.439 . S
C1539 C414 1.397 . S
C1553 C386 1.398 . S
C1559 C482 1.440 . S
C1573 C496 1.443 . S
C1579 C400 1.404 . S
C1593 C9 1.108 . S
C1599 C415 1.121 . S
C1613 C387 1.133 . S
C1619 C23 1.145 . S
C1633 C37 1.145 . S
C1639 C401 1.142 . S
C1653 C51 1.135 . S
C1659 C191 1.146 . S
C1673 C205 1.108 . S
C1679 C65 1.121 . S
C1693 C79 1.112 . S
C1699 C177 1.128 . S
C1713 C331 1.134 . S
C1719 C93 1.145 . S
C1733 C107 1.143 . S
C1739 C303 1.128 . S
C1753 C121 1.145 . S
C1759 C317 1.143 . S
C1773 C135 1.107 . S
C1779 C443 1.110 . S
C1793 C149 1.112 . S
C1799 C457 1.106 . S
C1813 C429 1.138 . S
C1819 C163 1.146 . S
C1833 C219 1.145 . S
C1839 C359 1.133 . S
C1853 C373 1.144 . S
C1859 C233 1.144 . S
C1873 C345 1.108 . S
C1879 C247 1.109 . S
C1893 C499 1.131 . S
C1899 C261 1.144 . S
C1913 C275 1.144 . S
C1919 C471 1.130 . S
C1933 C289 1.142 . S
C1939 C485 1.145 . S
