# Generated by pormake.
# Topology lhb, (8)-cn, num edge types: 1
# Building blocks:
#     Node 0, Type 0, BuildingBlock: LIZSOE_clean_sbu_0, # of connection points: 8
#     Node 1, Type 0, BuildingBlock: LIZSOE_clean_sbu_0, # of connection points: 8
#     Node 2, Type 0, BuildingBlock: LIZSOE_clean_sbu_0, # of connection points: 8
#     Node 3, Type 0, BuildingBlock: LIZSOE_clean_sbu_0, # of connection points: 8
#     Node 4, Type 0, BuildingBlock: LIZSOE_clean_sbu_0, # of connection points: 8
#     Node 5, Type 0, BuildingBlock: LIZSOE_clean_sbu_0, # of connection points: 8
#     Node 6, Type 0, BuildingBlock: LIZSOE_clean_sbu_0, # of connection points: 8
#     Node 7, Type 0, BuildingBlock: LIZSOE_clean_sbu_0, # of connection points: 8
#     Edge 8, Type (0, 0), BuildingBlock: AJUNOK_clean_linker_0, # of connection points: 2
#     Edge 9, Type (0, 0), BuildingBlock: AJUNOK_clean_linker_0, # of connection points: 2
#     Edge 10, Type (0, 0), BuildingBlock: AJUNOK_clean_linker_0, # of connection points: 2
#     Edge 11, Type (0, 0), BuildingBlock: AJUNOK_clean_linker_0, # of connection points: 2
#     Edge 12, Type (0, 0), BuildingBlock: AJUNOK_clean_linker_0, # of connection points: 2
#     Edge 13, Type (0, 0), BuildingBlock: AJUNOK_clean_linker_0, # of connection points: 2
#     Edge 14, Type (0, 0), BuildingBlock: AJUNOK_clean_linker_0, # of connection points: 2
#     Edge 15, Type (0, 0), BuildingBlock: AJUNOK_clean_linker_0, # of connection points: 2
#     Edge 16, Type (0, 0), BuildingBlock: AJUNOK_clean_linker_0, # of connection points: 2
#     Edge 17, Type (0, 0), BuildingBlock: AJUNOK_clean_linker_0, # of connection points: 2
#     Edge 18, Type (0, 0), BuildingBlock: AJUNOK_clean_linker_0, # of connection points: 2
#     Edge 19, Type (0, 0), BuildingBlock: AJUNOK_clean_linker_0, # of connection points: 2
#     Edge 20, Type (0, 0), BuildingBlock: AJUNOK_clean_linker_0, # of connection points: 2
#     Edge 21, Type (0, 0), BuildingBlock: AJUNOK_clean_linker_0, # of connection points: 2
#     Edge 22, Type (0, 0), BuildingBlock: AJUNOK_clean_linker_0, # of connection points: 2
#     Edge 23, Type (0, 0), BuildingBlock: AJUNOK_clean_linker_0, # of connection points: 2
#     Edge 24, Type (0, 0), BuildingBlock: AJUNOK_clean_linker_0, # of connection points: 2
#     Edge 25, Type (0, 0), BuildingBlock: AJUNOK_clean_linker_0, # of connection points: 2
#     Edge 26, Type (0, 0), BuildingBlock: AJUNOK_clean_linker_0, # of connection points: 2
#     Edge 27, Type (0, 0), BuildingBlock: AJUNOK_clean_linker_0, # of connection points: 2
#     Edge 28, Type (0, 0), BuildingBlock: AJUNOK_clean_linker_0, # of connection points: 2
#     Edge 29, Type (0, 0), BuildingBlock: AJUNOK_clean_linker_0, # of connection points: 2
#     Edge 30, Type (0, 0), BuildingBlock: AJUNOK_clean_linker_0, # of connection points: 2
#     Edge 31, Type (0, 0), BuildingBlock: AJUNOK_clean_linker_0, # of connection points: 2
#     Edge 32, Type (0, 0), BuildingBlock: AJUNOK_clean_linker_0, # of connection points: 2
#     Edge 33, Type (0, 0), BuildingBlock: AJUNOK_clean_linker_0, # of connection points: 2
#     Edge 34, Type (0, 0), BuildingBlock: AJUNOK_clean_linker_0, # of connection points: 2
#     Edge 35, Type (0, 0), BuildingBlock: AJUNOK_clean_linker_0, # of connection points: 2
#     Edge 36, Type (0, 0), BuildingBlock: AJUNOK_clean_linker_0, # of connection points: 2
#     Edge 37, Type (0, 0), BuildingBlock: AJUNOK_clean_linker_0, # of connection points: 2
#     Edge 38, Type (0, 0), BuildingBlock: AJUNOK_clean_linker_0, # of connection points: 2
#     Edge 39, Type (0, 0), BuildingBlock: AJUNOK_clean_linker_0, # of connection points: 2
# Relax obj value: 0.174
# Max RMSD: 0.225
# Mean RMSD: 0.225
data_MOF--net-lhb--node1-LIZSOE_clean_sbu_0--edge1-AJUNOK_clean_linker_0
_symmetry_space_group_name_H-M    P1
_symmetry_Int_Tables_number       1
_symmetry_cell_setting            triclinic
loop_
_symmetry_equiv_pos_as_xyz
'x, y, z'
_cell_length_a     34.814568
_cell_length_b     11.079104
_cell_length_c     29.440316
_cell_angle_alpha  90.092313
_cell_angle_beta   90.305428
_cell_angle_gamma 89.978587
loop_
_atom_site_label
_atom_site_type_symbol
_atom_site_fract_x
_atom_site_fract_y
_atom_site_fract_z
_atom_type_partial_charge
Co0 Co 0.09661 0.23964 1.06019 0.0
N1 N 0.14278 0.29349 1.04381 0.0
C2 C 0.14334 0.35631 1.0046 0.0
N3 N 0.20288 0.33819 1.02667 0.0
C4 C 0.1795 0.28773 1.05751 0.0
C5 C 0.18034 0.3828 0.99364 0.0
Co6 Co 0.96115 0.83978 1.05317 0.0
N7 N 0.91343 0.7852 1.042 0.0
N8 N 0.85272 0.72523 1.04749 0.0
C9 C 0.86132 0.73787 1.00322 0.0
C10 C 0.89873 0.77384 0.9999 0.0
C11 C 0.88535 0.74855 0.07018 0.0
Co12 Co 0.02984 1.04269 0.07682 0.0
C13 C 1.0042 0.77518 0.09358 0.0
H14 H 0.91369 0.79665 0.96897 0.0
O15 O 0.04884 0.21464 0.07668 0.0
O16 O 0.98668 1.07356 0.12493 0.0
O17 O 0.06891 1.01031 0.1291 0.0
O18 O 0.07088 0.98117 1.03243 0.0
O19 O 0.0974 0.14451 1.0058 0.0
O20 O 0.94374 0.93584 0.10053 0.0
O21 O 1.01061 0.87154 0.0684 0.0
O22 O 0.95043 0.97045 1.01313 0.0
O23 O 0.11763 0.10515 0.09471 0.0
O24 O 0.0956 0.31871 0.11186 0.0
O25 O 0.99416 0.10983 1.0256 0.0
O26 O 0.97053 0.72756 0.0915 0.0
C27 C 0.10442 1.04883 0.12912 0.0
C28 C 0.88986 0.72151 0.12009 0.0
H29 H 0.91266 0.77374 0.13699 0.0
H30 H 0.86243 0.73559 0.13834 0.0
H31 H 0.89737 0.62467 0.12376 0.0
C32 C 0.95375 1.01738 0.12835 0.0
C33 C 0.0951 1.03043 1.00606 0.0
H34 H 0.11823 0.37581 0.98408 0.0
H35 H 0.22145 0.27177 0.11147 0.0
H36 H 0.19304 0.13915 0.10001 0.0
H37 H 0.1717 0.266 0.12884 0.0
C38 C 0.19234 0.23873 0.10224 0.0
C39 C 0.05932 0.29923 0.10592 0.0
C40 C 0.9629 1.07577 1.00604 0.0
H41 H 0.19023 0.42427 0.96252 0.0
H42 H 0.84099 0.73346 0.97546 0.0
Co43 Co 0.20721 0.54381 0.29021 0.0
N44 N 0.15796 0.58812 0.2769 0.0
C45 C 0.14246 0.57313 0.23524 0.0
N46 N 0.09431 0.59705 0.28246 0.0
C47 C 0.12787 0.6104 0.30442 0.0
C48 C 0.1033 0.57524 0.23883 0.0
Co49 Co 0.34371 0.14039 0.32959 0.0
N50 N 0.39115 1.07656 0.33186 0.0
N51 N 0.45187 1.02868 0.31909 0.0
C52 C 0.4323 0.92532 0.32392 0.0
C53 C 0.39481 0.95528 0.33185 0.0
C54 C 0.42672 0.11953 0.32455 0.0
Co55 Co 0.27682 0.35046 0.32259 0.0
C56 C 0.29645 0.09473 0.36169 0.0
H57 H 0.37121 0.89257 0.33489 0.0
O58 O 0.25696 0.51853 0.30621 0.0
O59 O 0.31617 0.41404 0.37218 0.0
O60 O 0.23505 0.33911 0.37323 0.0
O61 O 0.24017 0.26336 0.27656 0.0
O62 O 0.19809 0.40206 0.25789 0.0
O63 O 0.35874 0.26475 0.36569 0.0
O64 O 0.29577 0.17991 0.33049 0.0
O65 O 0.35783 0.2283 0.27556 0.0
O66 O 0.19087 0.4653 0.34364 0.0
O67 O 0.21626 0.6707 0.32107 0.0
O68 O 0.31676 0.38156 0.27217 0.0
O69 O 0.32897 1.0719 0.38122 0.0
C70 C 0.20197 0.39464 0.375 0.0
C71 C 0.43809 0.25068 0.32628 0.0
H72 H 0.45346 0.26611 0.35869 0.0
H73 H 0.41358 0.31292 0.323 0.0
H74 H 0.45888 0.27543 0.29978 0.0
C75 C 0.34872 0.36289 0.38349 0.0
C76 C 0.20965 0.29479 0.25492 0.0
H77 H 0.15843 0.54698 0.20537 0.0
H78 H 0.11195 0.72069 0.36099 0.0
H79 H 0.11775 0.56522 0.3735 0.0
H80 H 0.15955 0.66044 0.36606 0.0
C81 C 0.13017 0.64064 0.35405 0.0
C82 C 0.24963 0.62218 0.32684 0.0
C83 C 0.34711 0.32772 0.25766 0.0
H84 H 0.08337 0.54841 0.21257 0.0
H85 H 0.44393 0.83544 0.31944 0.0
Co86 Co 0.71273 1.02726 0.28319 0.0
N87 N 0.66646 0.07786 0.26325 0.0
C88 C 0.6542 1.05546 0.2206 0.0
N89 N 0.60351 0.10281 0.26043 0.0
C90 C 0.63531 0.11533 0.28582 0.0
C91 C 0.61517 1.0681 0.21896 0.0
Co92 Co 0.84371 0.62013 0.32541 0.0
N93 N 0.89005 0.54864 0.32079 0.0
N94 N 0.94748 0.46157 0.32931 0.0
C95 C 0.93343 0.43328 0.28792 0.0
C96 C 0.89846 0.48692 0.28278 0.0
C97 C 0.91943 0.52609 0.34929 0.0
Co98 Co 0.77818 0.83396 0.32373 0.0
C99 C 0.79979 0.57577 0.36241 0.0
H100 H 0.88052 0.48339 0.25274 0.0
O101 O 0.75986 0.99738 0.30386 0.0
O102 O 0.81908 0.89387 0.37153 0.0
O103 O 0.73454 0.83983 0.37394 0.0
O104 O 0.7417 0.74091 0.27993 0.0
O105 O 0.69896 0.87486 0.26042 0.0
O106 O 0.86357 0.75156 0.35686 0.0
O107 O 0.79626 0.66338 0.33237 0.0
O108 O 0.85505 0.70391 0.26953 0.0
O109 O 0.69406 0.97556 0.34056 0.0
O110 O 0.72521 0.16661 0.3058 0.0
O111 O 0.81766 0.86423 0.27425 0.0
O112 O 0.83321 0.55853 0.38022 0.0
C113 C 0.70356 0.90919 0.37446 0.0
C114 C 0.91736 0.54357 0.39923 0.0
H115 H 0.89939 0.47065 0.41318 0.0
H116 H 0.90244 0.62758 0.40736 0.0
H117 H 0.94628 0.53974 0.41511 0.0
C118 C 0.85313 0.8457 0.37803 0.0
C119 C 0.70988 0.76687 0.26053 0.0
H120 H 0.67217 1.02179 0.19372 0.0
H121 H 0.61005 0.23504 0.33519 0.0
H122 H 0.63671 0.11177 0.3584 0.0
H123 H 0.66179 0.23689 0.3336 0.0
C124 C 0.63612 0.17856 0.33083 0.0
C125 C 0.75675 0.11139 0.31596 0.0
C126 C 0.84642 0.81032 0.25692 0.0
H127 H 0.59651 1.04241 0.19103 0.0
H128 H 0.94901 0.38673 0.26146 0.0
Co129 Co 0.09504 0.80809 0.55952 0.0
N130 N 0.14261 0.85914 0.54455 0.0
C131 C 0.14508 0.92508 0.50617 0.0
N132 N 0.20396 0.88168 0.52625 0.0
C133 C 0.17917 0.83854 0.55717 0.0
C134 C 0.18274 0.93801 0.49454 0.0
Co135 Co 0.96163 0.40599 0.54071 0.0
N136 N 0.91695 0.34262 0.52117 0.0
N137 N 0.85812 0.27341 0.50683 0.0
C138 C 0.87808 0.2696 0.468 0.0
C139 C 0.91457 0.30912 0.47728 0.0
C140 C 0.88285 0.31276 0.53893 0.0
Co141 Co 0.02749 0.61015 0.57195 0.0
C142 C 1.00458 0.33598 0.57926 0.0
H143 H 0.9375 0.32008 0.45299 0.0
O144 O 0.0466 0.78377 0.57516 0.0
O145 O 0.98258 0.62711 0.61962 0.0
O146 O 0.06599 0.56751 0.62324 0.0
O147 O 0.06816 0.55724 0.52592 0.0
O148 O 0.09483 0.724 0.5026 0.0
O149 O 0.9412 0.48289 0.59318 0.0
O150 O 1.00842 0.44274 0.56023 0.0
O151 O 0.94858 0.54874 0.50818 0.0
O152 O 0.11487 0.66516 0.59066 0.0
O153 O 0.09422 0.87871 0.613 0.0
O154 O 0.99268 0.68533 0.52261 0.0
O155 O 0.97268 0.27929 0.57268 0.0
C156 C 0.10169 0.60316 0.62371 0.0
C157 C 0.8724 0.32534 0.58791 0.0
H158 H 0.89783 0.31402 0.61029 0.0
H159 H 0.85936 0.41533 0.59286 0.0
H160 H 0.85046 0.25704 0.59711 0.0
C161 C 0.95061 0.56329 0.62258 0.0
C162 C 0.09135 0.61061 0.49944 0.0
H163 H 0.12069 0.95414 0.4861 0.0
H164 H 0.22028 0.81229 0.61121 0.0
H165 H 0.19022 0.68496 0.59787 0.0
H166 H 0.17034 0.81256 0.62806 0.0
C167 C 0.19078 0.78422 0.60139 0.0
C168 C 0.05787 0.86732 0.6046 0.0
C169 C 0.96096 0.65524 0.50373 0.0
H170 H 0.19364 0.97812 0.46366 0.0
H171 H 0.866 0.25235 0.43463 0.0
Co172 Co 0.20952 1.02238 0.81496 0.0
N173 N 0.16078 0.08105 0.80704 0.0
C174 C 0.14834 0.12138 0.76633 0.0
N175 N 0.09896 0.13155 0.81231 0.0
C176 C 0.13067 0.09822 0.83485 0.0
C177 C 0.11011 0.14993 0.76924 0.0
Co178 Co 0.34313 0.60708 0.80328 0.0
N179 N 0.38872 0.53981 0.79154 0.0
N180 N 0.44778 0.46421 0.7933 0.0
C181 C 0.4355 0.46513 0.74988 0.0
C182 C 0.39903 0.51088 0.74894 0.0
C183 C 0.41803 0.50313 0.81807 0.0
Co184 Co 0.27817 0.82079 0.82456 0.0
C185 C 0.29862 0.55221 0.84175 0.0
H186 H 0.38189 0.52891 0.71895 0.0
O187 O 0.25944 0.99344 0.82462 0.0
O188 O 0.32305 0.8485 0.87241 0.0
O189 O 0.24138 0.78652 0.8783 0.0
O190 O 0.23586 0.76646 0.77892 0.0
O191 O 0.20297 0.92955 0.76032 0.0
O192 O 0.36332 0.69977 0.85093 0.0
O193 O 0.29561 0.6499 0.81675 0.0
O194 O 0.35589 0.73425 0.76278 0.0
O195 O 0.19102 0.88723 0.84994 0.0
O196 O 0.2166 0.09471 0.86656 0.0
O197 O 0.31371 0.88087 0.7727 0.0
O198 O 0.33141 0.49817 0.8426 0.0
C199 C 0.20622 0.82506 0.88175 0.0
C200 C 0.41956 0.51101 0.8689 0.0
H201 H 0.39099 0.5032 0.88474 0.0
H202 H 0.43249 0.59826 0.87828 0.0
H203 H 0.43859 0.43929 0.88262 0.0
C204 C 0.35499 0.78634 0.87738 0.0
C205 C 0.20915 0.8171 0.75549 0.0
H206 H 0.16531 0.12163 0.73566 0.0
H207 H 0.10443 0.11791 0.90049 0.0
H208 H 0.13403 0.98816 0.89153 0.0
H209 H 0.15559 0.13582 0.89985 0.0
C210 C 0.1314 0.08471 0.88485 0.0
C211 C 0.25183 1.07723 0.85527 0.0
C212 C 0.34444 0.84024 0.75395 0.0
H213 H 0.0912 0.16958 0.74096 0.0
H214 H 0.45335 0.44858 0.72052 0.0
Co215 Co 0.84487 0.11832 0.80534 0.0
N216 N 0.89101 1.05082 0.79641 0.0
C217 C 0.90435 1.02382 0.75491 0.0
N218 N 0.94916 0.96947 0.80401 0.0
C219 C 0.9178 1.00883 0.82566 0.0
C220 C 0.93998 0.97327 0.75953 0.0
Co221 Co 0.71149 0.53193 0.80885 0.0
N222 N 0.66274 0.58321 0.79604 0.0
N223 N 0.59981 0.61642 0.79251 0.0
C224 C 0.61424 0.6366 0.75107 0.0
C225 C 0.65318 0.61983 0.75369 0.0
C226 C 0.62967 0.58967 0.81938 0.0
Co227 Co 0.77954 0.33303 0.82455 0.0
C228 C 0.75082 0.59043 0.85287 0.0
H229 H 0.67291 0.62447 0.72549 0.0
O230 O 0.79681 0.1615 0.81755 0.0
O231 O 0.74182 0.30405 0.87754 0.0
O232 O 0.82404 0.36172 0.87311 0.0
O233 O 0.81558 0.38993 0.77304 0.0
O234 O 0.85812 0.24352 0.76337 0.0
O235 O 0.69229 0.39616 0.84368 0.0
O236 O 0.76107 0.50712 0.82307 0.0
O237 O 0.70931 0.43828 0.75429 0.0
O238 O 0.86435 0.21463 0.85117 0.0
O239 O 0.83265 1.01333 0.84601 0.0
O240 O 0.73759 0.27434 0.77924 0.0
O241 O 0.71476 0.60833 0.86001 0.0
C242 C 0.85623 0.3005 0.87771 0.0
C243 C 0.62493 0.5674 0.86875 0.0
H244 H 0.65215 0.57543 0.88724 0.0
H245 H 0.61204 0.47718 0.87256 0.0
H246 H 0.60421 0.63319 0.88314 0.0
C247 C 0.70656 0.34282 0.87829 0.0
C248 C 0.84646 0.34967 0.75463 0.0
H249 H 0.88965 1.04401 0.72336 0.0
H250 H 0.90407 0.89747 0.88226 0.0
H251 H 0.94077 1.005 0.89405 0.0
H252 H 0.89117 1.0509 0.8914 0.0
C253 C 0.91299 0.99215 0.87609 0.0
C254 C 0.7997 1.06585 0.84364 0.0
C255 C 0.71304 0.32457 0.7528 0.0
H256 H 0.95948 0.9534 0.73208 0.0
H257 H 0.59753 0.65061 0.72042 0.0
Co258 Co 0.59365 0.32842 0.56604 0.0
N259 N 0.64212 0.38376 0.55502 0.0
C260 C 0.64564 0.47106 0.52338 0.0
N261 N 0.70357 0.40161 0.53554 0.0
C262 C 0.67836 0.34681 0.56321 0.0
C263 C 0.68334 0.48251 0.5114 0.0
Co264 Co 0.46205 0.92271 0.53591 0.0
N265 N 0.41818 0.86269 0.5132 0.0
N266 N 0.36063 0.78589 0.49757 0.0
C267 C 0.37883 0.80541 0.4581 0.0
C268 C 0.41444 0.85086 0.46786 0.0
C269 C 0.38559 0.81823 0.53056 0.0
Co270 Co 0.52649 0.12538 0.57249 0.0
C271 C 0.50522 0.84615 0.5721 0.0
H272 H 0.43558 0.88039 0.44348 0.0
O273 O 0.54482 0.29925 0.5784 0.0
O274 O 0.48025 0.13215 0.6194 0.0
O275 O 0.56397 0.08043 0.62514 0.0
O276 O 0.56898 0.08001 0.52656 0.0
O277 O 0.59573 0.25136 0.50782 0.0
O278 O 0.44082 0.98365 0.59121 0.0
O279 O 0.50788 0.95893 0.55838 0.0
O280 O 0.44764 1.07001 0.50955 0.0
O281 O 0.61254 0.18295 0.5948 0.0
O282 O 0.59026 0.39191 0.62066 0.0
O283 O 0.49185 0.20547 0.52302 0.0
O284 O 0.47436 0.78761 0.56188 0.0
C285 C 0.59922 0.12 0.6273 0.0
C286 C 0.37647 0.81545 0.58028 0.0
H287 H 0.40238 0.79225 0.60053 0.0
H288 H 0.36603 0.90572 0.59073 0.0
H289 H 0.35354 0.74863 0.58739 0.0
C290 C 0.44942 1.06195 0.62189 0.0
C291 C 0.59299 0.138 0.5022 0.0
H292 H 0.62189 0.51623 0.50696 0.0
H293 H 0.72092 0.2816 0.61087 0.0
H294 H 0.68422 0.17473 0.59494 0.0
H295 H 0.67296 0.29994 0.63222 0.0
C296 C 0.68996 0.27085 0.60263 0.0
C297 C 0.5545 0.3818 0.60896 0.0
C298 C 0.4593 0.17672 0.50558 0.0
H299 H 0.69453 0.53785 0.48422 0.0
H300 H 0.3656 0.80075 0.42474 0.0
Co301 Co 0.59704 0.77059 0.0737 0.0
N302 N 0.64303 0.84366 0.06843 0.0
C303 C 0.65218 0.89945 1.02944 0.0
N304 N 0.70434 0.89974 0.07196 0.0
C305 C 0.6744 0.85441 0.09477 0.0
C306 C 0.6899 0.9337 1.03146 0.0
Co307 Co 0.46639 0.36971 1.0409 0.0
N308 N 0.42086 0.3304 1.01653 0.0
N309 N 0.36078 0.28607 0.99919 0.0
C310 C 0.38132 0.2723 0.96124 0.0
C311 C 0.41871 0.29698 0.97238 0.0
C312 C 0.38504 0.31944 1.03235 0.0
Co313 Co 0.53143 0.55471 0.07676 0.0
C314 C 0.49832 0.295 0.09009 0.0
H315 H 0.44289 0.29387 0.94949 0.0
O316 O 0.54971 0.72475 0.08067 0.0
O317 O 0.48999 0.56785 0.12601 0.0
O318 O 0.57231 0.50606 0.12635 0.0
O319 O 0.5706 0.51364 1.02689 0.0
O320 O 0.61133 0.6665 1.02427 0.0
O321 O 0.44331 0.49109 0.08183 0.0
O322 O 0.51326 0.38319 1.06561 0.0
O323 O 0.47141 0.48219 0.99217 0.0
O324 O 0.6157 0.65301 0.11394 0.0
O325 O 0.58342 0.85524 0.12201 0.0
O326 O 0.49267 0.6335 1.0318 0.0
O327 O 0.46224 0.27145 0.08568 0.0
C328 C 0.60516 0.55921 0.13532 0.0
C329 C 0.37281 0.3442 0.08022 0.0
H330 H 0.39567 0.32123 0.10483 0.0
H331 H 0.36553 0.44115 0.08302 0.0
H332 H 0.34675 0.29166 0.08895 0.0
C333 C 0.45466 0.53252 0.12041 0.0
C334 C 0.60129 0.56166 1.01117 0.0
H335 H 0.63335 0.90622 1.0002 0.0
H336 H 0.70124 0.85624 0.16032 0.0
H337 H 0.68582 0.71415 0.13922 0.0
H338 H 0.65021 0.81932 0.16026 0.0
C339 C 0.67771 0.80925 0.14192 0.0
C340 C 0.55014 0.81353 0.11027 0.0
C341 C 0.47259 0.59461 0.99846 0.0
H342 H 0.7064 0.96815 1.00338 0.0
H343 H 0.36982 0.25105 0.92793 0.0
C344 C 0.11646 0.17178 0.19939 0.0
C345 C 0.12748 1.0727 0.17241 0.0
C346 C 0.14318 0.23732 0.22624 0.0
C347 C 0.18268 0.20718 0.22956 0.0
H348 H 0.08753 0.207 0.19636 0.0
H349 H 0.13293 0.31729 0.24312 0.0
S350 S 0.22633 0.94443 0.17075 0.0
N351 N 0.18094 0.94078 0.15391 0.0
N352 N 0.23029 1.05991 0.20615 0.0
C353 C 0.19361 0.10122 0.20614 0.0
C354 C 0.16636 1.03546 0.17751 0.0
C355 C 0.88829 1.02221 0.16437 0.0
C356 C 0.92875 1.01349 0.17018 0.0
C357 C 0.86186 0.96025 0.19282 0.0
C358 C 0.87439 0.88176 0.22765 0.0
H359 H 0.87697 1.06964 0.13506 0.0
H360 H 0.83143 0.96822 0.1856 0.0
S361 S 0.97633 0.84203 0.26276 0.0
N362 N 0.97901 0.93182 0.21819 0.0
N363 N 0.93022 0.81392 0.27033 0.0
C364 C 0.91447 0.87913 0.23594 0.0
C365 C 0.9412 0.94515 0.20783 0.0
C366 C 0.15878 0.5818 0.46823 0.0
C367 C 0.12078 0.53865 0.47225 0.0
C368 C 0.18709 0.52065 0.44256 0.0
C369 C 0.17915 0.4139 0.41796 0.0
H370 H 0.16663 0.66624 0.4841 0.0
H371 H 0.21464 0.56434 0.43829 0.0
S372 S 0.08452 0.25871 0.4173 0.0
N373 N 0.0776 0.3756 0.45127 0.0
N374 N 0.12967 0.2666 0.40041 0.0
C375 C 0.14162 0.36681 0.42297 0.0
C376 C 0.11294 0.42718 0.45061 0.0
C377 C 0.92 0.86748 0.41041 0.0
C378 C 0.87963 0.86653 0.41851 0.0
C379 C 0.94708 0.80994 0.43996 0.0
C380 C 0.93523 0.74673 0.47911 0.0
H381 H 0.9303 0.89915 0.37788 0.0
H382 H 0.97678 0.80427 0.42944 0.0
S383 S 0.83545 0.74768 0.52374 0.0
N384 N 0.83152 0.81923 0.47476 0.0
N385 N 0.88129 0.71138 0.5293 0.0
C386 C 0.89597 0.75934 0.49068 0.0
C387 C 0.86868 0.81966 0.46103 0.0
C388 C 0.16362 0.58094 0.67145 0.0
C389 C 0.12471 0.61874 0.66749 0.0
C390 C 0.19057 0.63974 0.70116 0.0
C391 C 0.18028 0.74218 0.72735 0.0
H392 H 0.17419 0.51176 0.64868 0.0
H393 H 0.22018 0.60994 0.70106 0.0
S394 S 0.08108 0.86391 0.73432 0.0
N395 N 0.07685 0.75221 0.6979 0.0
N396 N 0.12637 0.86532 0.75085 0.0
C397 C 0.1408 0.77291 0.72615 0.0
C398 C 0.11347 0.71047 0.69741 0.0
C399 C 0.85892 0.50046 0.6891 0.0
C400 C 0.87253 0.43102 0.72605 0.0
C401 C 0.88454 0.56134 0.65907 0.0
C402 C 0.92513 0.55756 0.66438 0.0
H403 H 0.82847 0.50142 0.68146 0.0
H404 H 0.87253 0.60367 0.62905 0.0
S405 S 0.97501 0.41759 0.76235 0.0
N406 N 0.9294 0.38319 0.77074 0.0
N407 N 0.97642 0.49598 0.7148 0.0
C408 C 0.93851 0.49994 0.70395 0.0
C409 C 0.91268 0.43698 0.73426 0.0
C410 C 0.19277 0.94553 0.95205 0.0
C411 C 0.1856 0.83898 0.92691 0.0
C412 C 0.16402 1.0025 0.97868 0.0
C413 C 0.12637 0.9557 0.98261 0.0
H414 H 0.21946 0.99345 0.94691 0.0
H415 H 0.17065 0.08904 0.99371 0.0
S416 S 0.0966 0.65637 0.93738 0.0
N417 N 0.14024 0.6749 0.91662 0.0
N418 N 0.08722 0.77833 0.96782 0.0
C419 C 0.12062 0.83991 0.96331 0.0
C420 C 0.14978 0.78294 0.93526 0.0
C421 C 0.92324 0.29661 0.91287 0.0
C422 C 0.88263 0.29683 0.91938 0.0
C423 C 0.94949 0.23363 0.94213 0.0
C424 C 0.93668 0.16281 0.97903 0.0
H425 H 0.93467 0.33682 0.88228 0.0
H426 H 0.97968 0.23275 0.93348 0.0
S427 S 0.83435 0.14028 1.01444 0.0
N428 N 0.83235 0.227 0.969 0.0
N429 N 0.8802 0.10765 1.02246 0.0
C430 C 0.89656 0.16842 0.98752 0.0
C431 C 0.87018 0.23528 0.9585 0.0
C432 C 0.64464 0.29627 0.72326 0.0
C433 C 0.68251 0.25101 0.72685 0.0
C434 C 0.61534 0.23814 0.69764 0.0
C435 C 0.62227 0.13393 0.67129 0.0
H436 H 0.63767 0.38058 0.73949 0.0
H437 H 0.58769 0.28235 0.69521 0.0
S438 S 0.71511 0.96717 0.67179 0.0
N439 N 0.72357 0.08296 0.70593 0.0
N440 N 0.67002 0.98056 0.65451 0.0
C441 C 0.6593 0.08205 0.67698 0.0
C442 C 0.6889 0.13883 0.70506 0.0
C443 C 0.43722 0.96516 0.69803 0.0
C444 C 0.42472 1.04679 0.66422 0.0
C445 C 0.41127 0.90279 0.72689 0.0
C446 C 0.37085 0.91927 0.72469 0.0
H447 H 0.46736 0.94215 0.70005 0.0
H448 H 0.42317 0.83782 0.75057 0.0
S449 S 0.3223 0.13027 0.64516 0.0
N450 N 0.36825 0.14398 0.63225 0.0
N451 N 0.32017 1.03263 0.68745 0.0
C452 C 0.35798 1.00679 0.69328 0.0
C453 C 0.38451 1.06837 0.66304 0.0
C454 C 0.66802 0.52502 0.9775 0.0
C455 C 0.62909 0.48914 0.98123 0.0
C456 C 0.69498 0.4631 0.94975 0.0
C457 C 0.68437 0.36438 0.92196 0.0
H458 H 0.67755 0.60592 0.99465 0.0
H459 H 0.72346 0.50131 0.94648 0.0
S460 S 0.58634 0.23348 0.91679 0.0
N461 N 0.58229 0.34193 0.95508 0.0
N462 N 0.63167 0.23325 0.90061 0.0
C463 C 0.64607 0.32382 0.9267 0.0
C464 C 0.61885 0.38426 0.95644 0.0
C465 C 0.40262 0.648 0.98059 0.0
C466 C 0.44218 0.67342 0.97478 0.0
C467 C 0.37331 0.70362 0.9539 0.0
C468 C 0.38138 0.78731 0.91892 0.0
H469 H 0.39419 0.57939 1.0047 0.0
H470 H 0.34417 0.67107 0.95759 0.0
S471 S 0.47997 0.89174 0.89057 0.0
N472 N 0.4873 0.79651 0.93293 0.0
N473 N 0.43302 0.89596 0.882 0.0
C474 C 0.42072 0.81923 0.91475 0.0
C475 C 0.45067 0.76399 0.9426 0.0
C476 C 0.66722 0.52057 0.17991 0.0
C477 C 0.62724 0.54807 0.17983 0.0
C478 C 0.6941 0.5798 0.20971 0.0
C479 C 0.68238 0.67291 0.23966 0.0
H480 H 0.6786 0.46501 0.15283 0.0
H481 H 0.72447 0.56332 0.20497 0.0
S482 S 0.58039 0.75347 0.2617 0.0
N483 N 0.57747 0.65347 0.22039 0.0
N484 N 0.62654 0.76727 0.27388 0.0
C485 C 0.64211 0.68754 0.24412 0.0
C486 C 0.61508 0.6243 0.21518 0.0
C487 C 0.41188 0.34536 0.21724 0.0
C488 C 0.3738 0.38779 0.22279 0.0
C489 C 0.43881 0.40154 0.18804 0.0
C490 C 0.42908 0.50132 0.16057 0.0
H491 H 0.42095 0.26528 0.23499 0.0
H492 H 0.46701 0.36124 0.18491 0.0
S493 S 0.33194 0.63982 0.15544 0.0
N494 N 0.32752 0.53445 0.19477 0.0
N495 N 0.37702 0.63438 0.13826 0.0
C496 C 0.39085 0.54346 0.16453 0.0
C497 C 0.36363 0.48832 0.19556 0.0
C498 C 0.62311 0.94471 0.46515 0.0
C499 C 0.6229 1.07188 0.47262 0.0
C500 C 0.65121 0.88599 0.437 0.0
C501 C 0.68222 0.94993 0.41728 0.0
H502 H 0.60038 0.89043 0.47953 0.0
H503 H 0.64753 0.79124 0.42908 0.0
S504 S 0.69552 0.28222 0.42505 0.0
N505 N 0.65646 0.25734 0.45485 0.0
N506 N 0.7103 0.14792 0.4088 0.0
C507 C 0.68335 1.07486 0.42731 0.0
C508 C 0.65372 0.13521 0.45284 0.0
C509 C 0.442 0.34378 0.44673 0.0
C510 C 0.4316 0.26692 0.48286 0.0
C511 C 0.4137 0.40275 0.41899 0.0
C512 C 0.37346 0.38721 0.42523 0.0
H513 H 0.47194 0.35065 0.4373 0.0
H514 H 0.42346 0.44975 0.38899 0.0
S515 S 0.33155 0.23247 0.52487 0.0
N516 N 0.37807 0.20614 0.53016 0.0
N517 N 0.3263 0.31352 0.47827 0.0
C518 C 0.36347 0.32638 0.46547 0.0
C519 C 0.39192 0.26617 0.49358 0.0
C520 C 0.04705 0.61856 1.0655 0.0
C521 C 0.03211 0.679 0.10351 0.0
C522 C 0.05134 0.49231 1.065 0.0
C523 C 0.04167 0.42039 0.10287 0.0
H524 H 0.05154 0.66736 1.03423 0.0
H525 H 0.06319 0.45042 1.0349 0.0
S526 S 1.00127 0.53351 0.21049 0.0
N527 N 1.00794 0.65642 0.18004 0.0
N528 N 1.01743 0.41983 0.17965 0.0
C529 C 0.02862 0.47986 0.1418 0.0
C530 C 1.02427 0.60853 0.14231 0.0
C531 C 0.26897 0.77211 0.38207 0.0
C532 C 0.27758 0.71439 0.34056 0.0
C533 C 0.26986 0.89853 0.3865 0.0
C534 C 0.28092 0.97372 0.3504 0.0
H535 H 0.25729 0.72008 0.40988 0.0
H536 H 0.26248 0.93838 0.41877 0.0
S537 S 0.31424 0.86731 0.23769 0.0
N538 N 0.30229 0.74216 0.26456 0.0
N539 N 0.30578 0.97883 0.27347 0.0
C540 C 0.29234 0.91667 0.30981 0.0
C541 C 0.29134 0.78782 0.30532 0.0
C542 C 0.78678 0.23773 0.37348 0.0
C543 C 0.78758 0.19575 0.32846 0.0
C544 C 0.78591 0.36217 0.38351 0.0
C545 C 0.78783 0.45107 0.34913 0.0
H546 H 0.7832 0.17402 0.40097 0.0
H547 H 0.78465 0.38959 0.41874 0.0
S548 S 0.80125 0.38626 0.22631 0.0
N549 N 0.79834 0.25167 0.25003 0.0
N550 N 0.79735 0.48446 0.26828 0.0
C551 C 0.79325 0.40925 0.30435 0.0
C552 C 0.79463 0.28252 0.29452 0.0
C553 C 0.05207 1.05482 0.55875 0.0
C554 C 0.0431 0.99264 0.59916 0.0
C555 C 0.04897 0.18137 0.55547 0.0
C556 C 0.03533 0.25175 0.5919 0.0
H557 H 0.06199 1.00501 0.5294 0.0
H558 H 0.05267 0.22231 0.5224 0.0
S559 S 1.01249 0.13737 0.70633 0.0
N560 N 1.02416 1.01459 0.6777 0.0
N561 N 1.01744 0.25137 0.67098 0.0
C562 C 0.02983 0.19213 0.63344 0.0
C563 C 0.03299 1.06327 0.6369 0.0
C564 C 0.26857 0.27324 0.88979 0.0
C565 C 0.26737 0.20058 0.85042 0.0
C566 C 0.26839 0.39989 0.88728 0.0
C567 C 0.26871 0.46023 0.84533 0.0
H568 H 0.26807 0.2312 0.9229 0.0
H569 H 0.27247 0.45133 0.91814 0.0
S570 S 0.25721 0.31514 0.73247 0.0
N571 N 0.2594 0.20069 0.76829 0.0
N572 N 0.26093 0.4384 0.76383 0.0
C573 C 0.26342 0.38945 0.80604 0.0
C574 C 0.26364 0.26033 0.80838 0.0
C575 C 0.76548 0.77449 0.80907 0.0
C576 C 0.7674 0.71268 0.85087 0.0
C577 C 0.76615 0.90143 0.80707 0.0
C578 C 0.7703 0.97215 0.8467 0.0
H579 H 0.76199 0.72438 0.77767 0.0
H580 H 0.768 0.9437 0.77399 0.0
S581 S 0.77015 0.8566 0.96416 0.0
N582 N 0.76765 0.7334 0.93275 0.0
N583 N 0.77119 0.97153 0.92872 0.0
C584 C 0.76881 0.91189 0.88851 0.0
C585 C 0.76796 0.78297 0.89064 0.0
C586 C 0.54993 0.68941 0.5542 0.0
C587 C 0.53565 0.76578 0.58854 0.0
C588 C 0.551 0.56322 0.5597 0.0
C589 C 0.54125 0.50769 0.6011 0.0
H590 H 0.55484 0.72537 0.52049 0.0
H591 H 0.55981 0.50817 0.53123 0.0
S592 S 0.50853 0.66829 0.70378 0.0
N593 N 0.51488 0.77693 0.66645 0.0
N594 N 0.52147 0.54126 0.67874 0.0
C595 C 0.53129 0.58398 0.63726 0.0
C596 C 0.52853 0.71227 0.63092 0.0
C597 C 0.51578 0.99042 0.14076 0.0
C598 C 0.52585 0.92037 0.10274 0.0
C599 C 0.51072 0.11599 0.13723 0.0
C600 C 0.51791 0.1785 0.09657 0.0
H601 H 0.51336 0.94837 0.17384 0.0
H602 H 0.49917 0.16461 0.16585 0.0
S603 S 0.53893 1.03474 0.98565 0.0
N604 N 0.5379 0.92105 1.02167 0.0
N605 N 0.53039 0.15738 1.01592 0.0
C606 C 0.52652 0.10876 1.05798 0.0
C607 C 0.52969 0.98026 1.06088 0.0
C608 C 0.30416 0.41063 1.00278 0.0
C609 C 0.32065 0.29557 1.00188 0.0
C610 C 0.26551 0.4244 1.01261 0.0
C611 C 0.24305 0.32335 1.02249 0.0
H612 H 0.32156 0.48964 0.99641 0.0
H613 H 0.25288 0.51377 1.01217 0.0
S614 S 0.27482 1.00388 1.027 0.0
N615 N 0.31369 0.08078 1.01332 0.0
N616 N 0.24011 0.10479 1.03169 0.0
C617 C 0.25966 0.20773 1.02247 0.0
C618 C 0.29892 0.19424 1.01211 0.0
C619 C 0.81041 0.88155 0.07676 0.0
C620 C 0.8164 0.76012 1.06461 0.0
C621 C 0.77336 0.92688 0.08183 0.0
C622 C 0.74192 0.85026 0.07628 0.0
H623 H 0.8345 0.94282 0.07914 0.0
H624 H 0.7691 1.02245 0.08768 0.0
S625 S 0.74414 0.5193 1.05548 0.0
N626 N 0.78961 0.56123 1.05422 0.0
N627 N 0.71928 0.64344 1.0656 0.0
C628 C 0.74803 0.72561 0.06924 0.0
C629 C 0.78566 0.6809 1.06307 0.0
C630 C 0.03552 0.64227 0.32405 0.0
C631 C 0.06002 0.55804 0.3041 0.0
C632 C 0.99961 0.60622 0.33979 0.0
C633 C 0.98749 0.48521 0.33528 0.0
H634 H 0.04318 0.73698 0.32459 0.0
H635 H 0.97972 0.67566 0.35049 0.0
S636 S 0.04625 0.22724 0.2972 0.0
N637 N 0.07401 0.34658 0.29024 0.0
N638 N 1.00571 0.27896 0.3187 0.0
C639 C 1.01411 0.39849 0.32154 0.0
C640 C 0.05061 0.43509 0.30576 0.0
C641 C 0.30689 0.92286 0.50069 0.0
C642 C 0.3207 0.80442 0.50223 0.0
C643 C 0.26886 0.94804 0.51073 0.0
C644 C 0.24362 0.85451 0.52151 0.0
H645 H 0.3261 0.9955 0.4918 0.0
H646 H 0.25878 1.04045 0.5091 0.0
S647 S 0.26637 0.52741 0.52714 0.0
N648 N 0.3076 0.59283 0.51458 0.0
N649 N 0.23453 0.63756 0.53083 0.0
C650 C 0.25708 0.7346 0.5222 0.0
C651 C 0.29617 0.70992 0.51293 0.0
C652 C 0.80769 0.42324 0.51095 0.0
C653 C 0.8185 0.3016 0.5084 0.0
C654 C 0.76994 0.45532 0.51987 0.0
C655 C 0.7421 0.3661 0.52621 0.0
H656 H 0.82915 0.49294 0.5073 0.0
H657 H 0.76251 0.54993 0.52278 0.0
S658 S 0.75587 1.03455 0.51519 0.0
N659 N 0.79919 0.0922 0.50829 0.0
N660 N 0.72695 0.15082 0.52324 0.0
C661 C 0.75232 0.24358 0.52086 0.0
C662 C 0.79099 0.21158 0.51221 0.0
C663 C 0.9935 0.13421 0.81859 0.0
C664 C 0.9858 1.0097 0.8187 0.0
C665 C 0.03107 0.17618 0.82035 0.0
C666 C 0.06125 0.09431 0.82445 0.0
H667 H 0.97039 0.19761 0.81301 0.0
H668 H 0.03686 0.27118 0.81527 0.0
S669 S 0.05367 0.76263 0.84097 0.0
N670 N 1.00914 0.80784 0.83179 0.0
N671 N 0.08042 0.88585 0.84009 0.0
C672 C 0.05313 0.97115 0.83239 0.0
C673 C 1.01497 0.92856 0.82818 0.0
C674 C 0.53299 0.65725 0.81017 0.0
C675 C 0.56207 0.5747 0.80083 0.0
C676 C 0.49514 0.61786 0.812 0.0
C677 C 0.48611 0.49543 0.80442 0.0
H678 H 0.53937 0.75263 0.81305 0.0
H679 H 0.47255 0.68456 0.81513 0.0
S680 S 0.55354 0.24212 0.7915 0.0
N681 N 0.58092 0.36383 0.79408 0.0
N682 N 0.50884 0.29078 0.79557 0.0
C683 C 0.51529 0.41112 0.79994 0.0
C684 C 0.55377 0.45071 0.79871 0.0
C685 C 0.53515 0.1321 0.25207 0.0
C686 C 0.56574 0.0859 0.27712 0.0
C687 C 0.4977 0.10518 0.26413 0.0
C688 C 0.49013 1.03968 0.30375 0.0
H689 H 0.54076 0.18873 0.22302 0.0
H690 H 0.47438 0.1386 0.24329 0.0
S691 S 0.55995 0.88758 0.37859 0.0
N692 N 0.58625 0.9572 0.34018 0.0
N693 N 0.51493 0.92084 0.36609 0.0
C694 C 0.52024 0.99102 0.32887 0.0
C695 C 0.55847 1.01267 0.31527 0.0
loop_
_geom_bond_atom_site_label_1
_geom_bond_atom_site_label_2
_geom_bond_distance
_geom_bond_site_symmetry_2
_ccdc_geom_bond_type
Co0 N1 2.034 . S
Co0 O15 2.262 . S
Co0 O19 1.958 . S
Co0 O23 1.950 1_556 S
Co0 O24 2.057 . S
N1 Co0 2.034 . S
N1 C2 1.366 . S
N1 C4 1.332 1_556 S
C2 N1 1.366 . S
C2 C5 1.377 . S
C2 H34 0.931 . S
N3 C4 1.346 . S
N3 C5 1.337 1_554 S
C4 N1 1.332 1_554 S
C4 N3 1.346 . S
C4 C38 1.361 . S
C5 C2 1.377 . S
C5 N3 1.337 1_556 S
C5 H41 0.930 . S
Co6 N7 2.034 . S
Co6 O20 1.950 1_556 S
Co6 O21 2.262 . S
Co6 O22 1.958 . S
Co6 O26 2.057 . S
N7 Co6 2.034 . S
N7 C10 1.366 . S
N7 C11 1.332 1_556 S
N8 C9 1.337 1_554 S
N8 C11 1.346 . S
C9 N8 1.337 1_556 S
C9 C10 1.377 . S
C9 H42 0.930 . S
C10 N7 1.366 . S
C10 C9 1.377 . S
C10 H14 0.931 . S
C11 N7 1.332 1_554 S
C11 N8 1.346 . S
C11 C28 1.361 . S
Co12 O15 2.108 . S
Co12 O16 2.047 1_456 S
Co12 O17 2.084 1_546 S
Co12 O18 2.061 1_545 S
Co12 O21 2.087 1_445 S
Co12 O25 2.022 1_455 S
C13 O21 1.253 . S
C13 O26 1.263 . S
H14 C10 0.931 . S
O15 Co0 2.262 . S
O15 Co12 2.108 . S
O15 C39 1.253 . S
O16 Co12 2.047 1_654 S
O16 C32 1.221 . S
O17 Co12 2.084 1_564 S
O17 C27 1.221 . S
O18 Co12 2.061 1_565 S
O18 C33 1.237 . S
O19 Co0 1.958 . S
O19 C33 1.278 1_545 S
O20 Co6 1.950 1_554 S
O20 C32 1.277 1_565 S
O21 Co6 2.262 . S
O21 Co12 2.087 1_665 S
O21 C13 1.253 . S
O22 Co6 1.958 . S
O22 C40 1.278 1_565 S
O23 Co0 1.950 1_554 S
O23 C27 1.277 1_545 S
O24 Co0 2.057 . S
O24 C39 1.263 . S
O25 Co12 2.022 1_655 S
O25 C40 1.237 . S
O26 Co6 2.057 . S
O26 C13 1.263 . S
C27 O17 1.221 . S
C27 O23 1.277 1_565 S
C28 C11 1.361 . S
C28 H29 0.960 . S
C28 H30 0.961 . S
C28 H31 0.961 . S
H29 C28 0.960 . S
H30 C28 0.961 . S
H31 C28 0.961 . S
C32 O16 1.221 . S
C32 O20 1.277 1_545 S
C33 O18 1.237 . S
C33 O19 1.278 1_565 S
H34 C2 0.931 . S
H35 C38 0.961 . S
H36 C38 0.961 . S
H37 C38 0.960 . S
C38 C4 1.361 . S
C38 H35 0.961 . S
C38 H36 0.961 . S
C38 H37 0.960 . S
C39 O15 1.253 . S
C39 O24 1.263 . S
C40 O22 1.278 1_545 S
C40 O25 1.237 . S
H41 C5 0.930 . S
H42 C9 0.930 . S
Co43 N44 2.034 . S
Co43 O58 2.262 . S
Co43 O62 1.958 . S
Co43 O66 1.950 . S
Co43 O67 2.057 . S
N44 Co43 2.034 . S
N44 C45 1.366 . S
N44 C47 1.332 . S
C45 N44 1.366 . S
C45 C48 1.377 . S
C45 H77 0.931 . S
N46 C47 1.346 . S
N46 C48 1.337 . S
C47 N44 1.332 . S
C47 N46 1.346 . S
C47 C81 1.361 . S
C48 C45 1.377 . S
C48 N46 1.337 . S
C48 H84 0.930 . S
Co49 N50 2.034 . S
Co49 O63 1.950 . S
Co49 O64 2.262 . S
Co49 O65 1.958 . S
Co49 O69 2.057 1_545 S
N50 Co49 2.034 . S
N50 C53 1.366 . S
N50 C54 1.332 1_545 S
N51 C52 1.342 . S
N51 C54 1.346 . S
C52 N51 1.342 . S
C52 C53 1.371 1_565 S
C52 H85 0.931 . S
C53 N50 1.366 . S
C53 C52 1.371 1_545 S
C53 H57 0.931 . S
C54 N50 1.332 1_565 S
C54 N51 1.346 . S
C54 C71 1.361 . S
Co55 O58 2.097 . S
Co55 O59 2.065 . S
Co55 O60 2.065 . S
Co55 O61 2.042 . S
Co55 O64 2.097 . S
Co55 O68 2.042 . S
C56 O64 1.253 1_565 S
C56 O69 1.263 . S
H57 C53 0.931 . S
O58 Co43 2.262 . S
O58 Co55 2.097 . S
O58 C82 1.253 . S
O59 Co55 2.065 . S
O59 C75 1.221 . S
O60 Co55 2.065 . S
O60 C70 1.221 . S
O61 Co55 2.042 . S
O61 C76 1.237 . S
O62 Co43 1.958 . S
O62 C76 1.278 . S
O63 Co49 1.950 . S
O63 C75 1.277 . S
O64 Co49 2.262 . S
O64 Co55 2.097 . S
O64 C56 1.253 1_545 S
O65 Co49 1.958 . S
O65 C83 1.278 . S
O66 Co43 1.950 . S
O66 C70 1.277 . S
O67 Co43 2.057 . S
O67 C82 1.263 . S
O68 Co55 2.042 . S
O68 C83 1.237 . S
O69 Co49 2.057 1_565 S
O69 C56 1.263 . S
C70 O60 1.221 . S
C70 O66 1.277 . S
C71 C54 1.361 . S
C71 H72 0.960 . S
C71 H73 0.961 . S
C71 H74 0.961 . S
H72 C71 0.960 . S
H73 C71 0.961 . S
H74 C71 0.961 . S
C75 O59 1.221 . S
C75 O63 1.277 . S
C76 O61 1.237 . S
C76 O62 1.278 . S
H77 C45 0.931 . S
H78 C81 0.961 . S
H79 C81 0.961 . S
H80 C81 0.960 . S
C81 C47 1.361 . S
C81 H78 0.961 . S
C81 H79 0.961 . S
C81 H80 0.960 . S
C82 O58 1.253 . S
C82 O67 1.263 . S
C83 O65 1.278 . S
C83 O68 1.237 . S
H84 C48 0.930 . S
H85 C52 0.931 . S
Co86 N87 2.034 . S
Co86 O101 2.262 . S
Co86 O105 1.958 . S
Co86 O109 1.950 . S
Co86 O110 2.057 1_565 S
N87 Co86 2.034 . S
N87 C88 1.366 . S
N87 C90 1.332 1_565 S
C88 N87 1.366 . S
C88 C91 1.377 1_565 S
C88 H120 0.931 . S
N89 C90 1.346 . S
N89 C91 1.337 . S
C90 N87 1.332 1_545 S
C90 N89 1.346 . S
C90 C124 1.361 . S
C91 C88 1.377 1_545 S
C91 N89 1.337 . S
C91 H127 0.930 . S
Co92 N93 2.034 . S
Co92 O106 1.950 . S
Co92 O107 2.262 . S
Co92 O108 1.958 . S
Co92 O112 2.057 . S
N93 Co92 2.034 . S
N93 C96 1.366 . S
N93 C97 1.332 . S
N94 C95 1.337 . S
N94 C97 1.346 . S
C95 N94 1.337 . S
C95 C96 1.377 . S
C95 H128 0.930 . S
C96 N93 1.366 . S
C96 C95 1.377 . S
C96 H100 0.931 . S
C97 N93 1.332 . S
C97 N94 1.346 . S
C97 C114 1.361 . S
Co98 O101 2.097 . S
Co98 O102 2.065 . S
Co98 O103 2.065 . S
Co98 O104 2.042 . S
Co98 O107 2.097 . S
Co98 O111 2.042 . S
C99 O107 1.253 . S
C99 O112 1.263 . S
H100 C96 0.931 . S
O101 Co86 2.262 . S
O101 Co98 2.097 . S
O101 C125 1.252 1_565 S
O102 Co98 2.065 . S
O102 C118 1.221 . S
O103 Co98 2.065 . S
O103 C113 1.221 . S
O104 Co98 2.042 . S
O104 C119 1.237 . S
O105 Co86 1.958 . S
O105 C119 1.278 . S
O106 Co92 1.950 . S
O106 C118 1.277 . S
O107 Co92 2.262 . S
O107 Co98 2.097 . S
O107 C99 1.253 . S
O108 Co92 1.958 . S
O108 C126 1.278 . S
O109 Co86 1.950 . S
O109 C113 1.277 . S
O110 Co86 2.057 1_545 S
O110 C125 1.263 . S
O111 Co98 2.042 . S
O111 C126 1.237 . S
O112 Co92 2.057 . S
O112 C99 1.263 . S
C113 O103 1.221 . S
C113 O109 1.277 . S
C114 C97 1.361 . S
C114 H115 0.960 . S
C114 H116 0.961 . S
C114 H117 0.961 . S
H115 C114 0.960 . S
H116 C114 0.961 . S
H117 C114 0.961 . S
C118 O102 1.221 . S
C118 O106 1.277 . S
C119 O104 1.237 . S
C119 O105 1.278 . S
H120 C88 0.931 . S
H121 C124 0.961 . S
H122 C124 0.961 . S
H123 C124 0.960 . S
C124 C90 1.361 . S
C124 H121 0.961 . S
C124 H122 0.961 . S
C124 H123 0.960 . S
C125 O101 1.252 1_545 S
C125 O110 1.263 . S
C126 O108 1.278 . S
C126 O111 1.237 . S
H127 C91 0.930 . S
H128 C95 0.930 . S
Co129 N130 2.034 . S
Co129 O144 2.262 . S
Co129 O148 1.958 . S
Co129 O152 1.950 . S
Co129 O153 2.057 . S
N130 Co129 2.034 . S
N130 C131 1.366 . S
N130 C133 1.332 . S
C131 N130 1.366 . S
C131 C134 1.377 . S
C131 H163 0.931 . S
N132 C133 1.346 . S
N132 C134 1.337 . S
C133 N130 1.332 . S
C133 N132 1.346 . S
C133 C167 1.361 . S
C134 C131 1.377 . S
C134 N132 1.337 . S
C134 H170 0.930 . S
Co135 N136 2.034 . S
Co135 O149 1.950 . S
Co135 O150 2.262 . S
Co135 O151 1.958 . S
Co135 O155 2.057 . S
N136 Co135 2.034 . S
N136 C139 1.366 . S
N136 C140 1.332 . S
N137 C138 1.337 . S
N137 C140 1.346 . S
C138 N137 1.337 . S
C138 C139 1.377 . S
C138 H171 0.930 . S
C139 N136 1.366 . S
C139 C138 1.377 . S
C139 H143 0.931 . S
C140 N136 1.332 . S
C140 N137 1.346 . S
C140 C157 1.361 . S
Co141 O144 2.108 . S
Co141 O145 2.047 1_455 S
Co141 O146 2.084 . S
Co141 O147 2.061 . S
Co141 O150 2.087 1_455 S
Co141 O154 2.022 1_455 S
C142 O150 1.253 . S
C142 O155 1.263 . S
H143 C139 0.931 . S
O144 Co129 2.262 . S
O144 Co141 2.108 . S
O144 C168 1.253 . S
O145 Co141 2.047 1_655 S
O145 C161 1.221 . S
O146 Co141 2.084 . S
O146 C156 1.221 . S
O147 Co141 2.061 . S
O147 C162 1.237 . S
O148 Co129 1.958 . S
O148 C162 1.278 . S
O149 Co135 1.950 . S
O149 C161 1.277 . S
O150 Co135 2.262 . S
O150 Co141 2.087 1_655 S
O150 C142 1.253 . S
O151 Co135 1.958 . S
O151 C169 1.278 . S
O152 Co129 1.950 . S
O152 C156 1.277 . S
O153 Co129 2.057 . S
O153 C168 1.263 . S
O154 Co141 2.022 1_655 S
O154 C169 1.237 . S
O155 Co135 2.057 . S
O155 C142 1.263 . S
C156 O146 1.221 . S
C156 O152 1.277 . S
C157 C140 1.361 . S
C157 H158 0.960 . S
C157 H159 0.961 . S
C157 H160 0.961 . S
H158 C157 0.960 . S
H159 C157 0.961 . S
H160 C157 0.961 . S
C161 O145 1.221 . S
C161 O149 1.277 . S
C162 O147 1.237 . S
C162 O148 1.278 . S
H163 C131 0.931 . S
H164 C167 0.961 . S
H165 C167 0.961 . S
H166 C167 0.960 . S
C167 C133 1.361 . S
C167 H164 0.961 . S
C167 H165 0.961 . S
C167 H166 0.960 . S
C168 O144 1.253 . S
C168 O153 1.263 . S
C169 O151 1.278 . S
C169 O154 1.237 . S
H170 C134 0.930 . S
H171 C138 0.930 . S
Co172 N173 2.034 . S
Co172 O187 2.262 . S
Co172 O191 1.958 . S
Co172 O195 1.950 . S
Co172 O196 2.057 1_565 S
N173 Co172 2.034 . S
N173 C174 1.366 . S
N173 C176 1.332 1_565 S
C174 N173 1.366 . S
C174 C177 1.371 1_565 S
C174 H206 0.931 . S
N175 C176 1.346 . S
N175 C177 1.342 . S
C176 N173 1.332 1_545 S
C176 N175 1.346 . S
C176 C210 1.361 . S
C177 C174 1.371 1_545 S
C177 N175 1.342 . S
C177 H213 0.931 . S
Co178 N179 2.034 . S
Co178 O192 1.950 . S
Co178 O193 2.262 . S
Co178 O194 1.958 . S
Co178 O198 2.057 . S
N179 Co178 2.034 . S
N179 C182 1.366 . S
N179 C183 1.332 . S
N180 C181 1.337 . S
N180 C183 1.346 . S
C181 N180 1.337 . S
C181 C182 1.377 . S
C181 H214 0.930 . S
C182 N179 1.366 . S
C182 C181 1.377 . S
C182 H186 0.931 . S
C183 N179 1.332 . S
C183 N180 1.346 . S
C183 C200 1.361 . S
Co184 O187 2.097 . S
Co184 O188 2.065 . S
Co184 O189 2.065 . S
Co184 O190 2.042 . S
Co184 O193 2.097 . S
Co184 O197 2.042 . S
C185 O193 1.253 . S
C185 O198 1.263 . S
H186 C182 0.931 . S
O187 Co172 2.262 . S
O187 Co184 2.097 . S
O187 C211 1.252 1_565 S
O188 Co184 2.065 . S
O188 C204 1.221 . S
O189 Co184 2.065 . S
O189 C199 1.221 . S
O190 Co184 2.042 . S
O190 C205 1.237 . S
O191 Co172 1.958 . S
O191 C205 1.278 . S
O192 Co178 1.950 . S
O192 C204 1.277 . S
O193 Co178 2.262 . S
O193 Co184 2.097 . S
O193 C185 1.253 . S
O194 Co178 1.958 . S
O194 C212 1.278 . S
O195 Co172 1.950 . S
O195 C199 1.277 . S
O196 Co172 2.057 1_545 S
O196 C211 1.263 . S
O197 Co184 2.042 . S
O197 C212 1.237 . S
O198 Co178 2.057 . S
O198 C185 1.263 . S
C199 O189 1.221 . S
C199 O195 1.277 . S
C200 C183 1.361 . S
C200 H201 0.960 . S
C200 H202 0.961 . S
C200 H203 0.961 . S
H201 C200 0.960 . S
H202 C200 0.961 . S
H203 C200 0.961 . S
C204 O188 1.221 . S
C204 O192 1.277 . S
C205 O190 1.237 . S
C205 O191 1.278 . S
H206 C174 0.931 . S
H207 C210 0.961 . S
H208 C210 0.961 . S
H209 C210 0.960 . S
C210 C176 1.361 . S
C210 H207 0.961 . S
C210 H208 0.961 . S
C210 H209 0.960 . S
C211 O187 1.252 1_545 S
C211 O196 1.263 . S
C212 O194 1.278 . S
C212 O197 1.237 . S
H213 C177 0.931 . S
H214 C181 0.930 . S
Co215 N216 2.034 . S
Co215 O230 2.262 . S
Co215 O234 1.958 . S
Co215 O238 1.950 . S
Co215 O239 2.057 1_545 S
N216 Co215 2.034 . S
N216 C217 1.366 . S
N216 C219 1.332 1_545 S
C217 N216 1.366 . S
C217 C220 1.371 1_545 S
C217 H249 0.931 . S
N218 C219 1.346 . S
N218 C220 1.342 . S
C219 N216 1.332 1_565 S
C219 N218 1.346 . S
C219 C253 1.361 . S
C220 C217 1.371 1_565 S
C220 N218 1.342 . S
C220 H256 0.931 . S
Co221 N222 2.034 . S
Co221 O235 1.950 . S
Co221 O236 2.262 . S
Co221 O237 1.958 . S
Co221 O241 2.057 . S
N222 Co221 2.034 . S
N222 C225 1.366 . S
N222 C226 1.332 . S
N223 C224 1.337 . S
N223 C226 1.346 . S
C224 N223 1.337 . S
C224 C225 1.377 . S
C224 H257 0.930 . S
C225 N222 1.366 . S
C225 C224 1.377 . S
C225 H229 0.931 . S
C226 N222 1.332 . S
C226 N223 1.346 . S
C226 C243 1.361 . S
Co227 O230 2.097 . S
Co227 O231 2.065 . S
Co227 O232 2.065 . S
Co227 O233 2.042 . S
Co227 O236 2.097 . S
Co227 O240 2.042 . S
C228 O236 1.253 . S
C228 O241 1.263 . S
H229 C225 0.931 . S
O230 Co215 2.262 . S
O230 Co227 2.097 . S
O230 C254 1.253 1_545 S
O231 Co227 2.065 . S
O231 C247 1.221 . S
O232 Co227 2.065 . S
O232 C242 1.221 . S
O233 Co227 2.042 . S
O233 C248 1.237 . S
O234 Co215 1.958 . S
O234 C248 1.278 . S
O235 Co221 1.950 . S
O235 C247 1.277 . S
O236 Co221 2.262 . S
O236 Co227 2.097 . S
O236 C228 1.253 . S
O237 Co221 1.958 . S
O237 C255 1.278 . S
O238 Co215 1.950 . S
O238 C242 1.277 . S
O239 Co215 2.057 1_565 S
O239 C254 1.263 . S
O240 Co227 2.042 . S
O240 C255 1.237 . S
O241 Co221 2.057 . S
O241 C228 1.263 . S
C242 O232 1.221 . S
C242 O238 1.277 . S
C243 C226 1.361 . S
C243 H244 0.960 . S
C243 H245 0.961 . S
C243 H246 0.961 . S
H244 C243 0.960 . S
H245 C243 0.961 . S
H246 C243 0.961 . S
C247 O231 1.221 . S
C247 O235 1.277 . S
C248 O233 1.237 . S
C248 O234 1.278 . S
H249 C217 0.931 . S
H250 C253 0.961 . S
H251 C253 0.961 . S
H252 C253 0.960 . S
C253 C219 1.361 . S
C253 H250 0.961 . S
C253 H251 0.961 . S
C253 H252 0.960 . S
C254 O230 1.253 1_565 S
C254 O239 1.263 . S
C255 O237 1.278 . S
C255 O240 1.237 . S
H256 C220 0.931 . S
H257 C224 0.930 . S
Co258 N259 2.034 . S
Co258 O273 2.262 . S
Co258 O277 1.958 . S
Co258 O281 1.950 . S
Co258 O282 2.057 . S
N259 Co258 2.034 . S
N259 C260 1.366 . S
N259 C262 1.332 . S
C260 N259 1.366 . S
C260 C263 1.377 . S
C260 H292 0.931 . S
N261 C262 1.346 . S
N261 C263 1.337 . S
C262 N259 1.332 . S
C262 N261 1.346 . S
C262 C296 1.361 . S
C263 C260 1.377 . S
C263 N261 1.337 . S
C263 H299 0.930 . S
Co264 N265 2.034 . S
Co264 O278 1.950 . S
Co264 O279 2.262 . S
Co264 O280 1.958 . S
Co264 O284 2.057 . S
N265 Co264 2.034 . S
N265 C268 1.366 . S
N265 C269 1.332 . S
N266 C267 1.337 . S
N266 C269 1.346 . S
C267 N266 1.337 . S
C267 C268 1.377 . S
C267 H300 0.930 . S
C268 N265 1.366 . S
C268 C267 1.377 . S
C268 H272 0.931 . S
C269 N265 1.332 . S
C269 N266 1.346 . S
C269 C286 1.361 . S
Co270 O273 2.097 . S
Co270 O274 2.065 . S
Co270 O275 2.065 1_545 S
Co270 O276 2.042 1_545 S
Co270 O279 2.097 1_545 S
Co270 O283 2.042 . S
C271 O279 1.253 . S
C271 O284 1.263 . S
H272 C268 0.931 . S
O273 Co258 2.262 . S
O273 Co270 2.097 . S
O273 C297 1.253 . S
O274 Co270 2.065 . S
O274 C290 1.221 . S
O275 Co270 2.065 1_565 S
O275 C285 1.221 . S
O276 Co270 2.042 1_565 S
O276 C291 1.237 . S
O277 Co258 1.958 . S
O277 C291 1.278 1_545 S
O278 Co264 1.950 . S
O278 C290 1.277 1_565 S
O279 Co264 2.262 . S
O279 Co270 2.097 1_565 S
O279 C271 1.253 . S
O280 Co264 1.958 . S
O280 C298 1.278 1_565 S
O281 Co258 1.950 . S
O281 C285 1.277 1_545 S
O282 Co258 2.057 . S
O282 C297 1.263 . S
O283 Co270 2.042 . S
O283 C298 1.237 . S
O284 Co264 2.057 . S
O284 C271 1.263 . S
C285 O275 1.221 . S
C285 O281 1.277 1_565 S
C286 C269 1.361 . S
C286 H287 0.960 . S
C286 H288 0.961 . S
C286 H289 0.961 . S
H287 C286 0.960 . S
H288 C286 0.961 . S
H289 C286 0.961 . S
C290 O274 1.221 . S
C290 O278 1.277 1_545 S
C291 O276 1.237 . S
C291 O277 1.278 1_565 S
H292 C260 0.931 . S
H293 C296 0.961 . S
H294 C296 0.961 . S
H295 C296 0.960 . S
C296 C262 1.361 . S
C296 H293 0.961 . S
C296 H294 0.961 . S
C296 H295 0.960 . S
C297 O273 1.253 . S
C297 O282 1.263 . S
C298 O280 1.278 1_545 S
C298 O283 1.237 . S
H299 C263 0.930 . S
H300 C267 0.930 . S
Co301 N302 2.034 . S
Co301 O316 2.262 . S
Co301 O320 1.958 . S
Co301 O324 1.950 1_556 S
Co301 O325 2.057 . S
N302 Co301 2.034 . S
N302 C303 1.366 . S
N302 C305 1.332 1_556 S
C303 N302 1.366 . S
C303 C306 1.377 . S
C303 H335 0.931 . S
N304 C305 1.346 . S
N304 C306 1.337 1_554 S
C305 N302 1.332 1_554 S
C305 N304 1.346 . S
C305 C339 1.361 . S
C306 C303 1.377 . S
C306 N304 1.337 1_556 S
C306 H342 0.930 . S
Co307 N308 2.034 . S
Co307 O321 1.950 1_556 S
Co307 O322 2.262 . S
Co307 O323 1.958 . S
Co307 O327 2.057 . S
N308 Co307 2.034 . S
N308 C311 1.366 . S
N308 C312 1.332 1_556 S
N309 C310 1.337 1_554 S
N309 C312 1.346 . S
C310 N309 1.337 1_556 S
C310 C311 1.377 . S
C310 H343 0.930 . S
C311 N308 1.366 . S
C311 C310 1.377 . S
C311 H315 0.931 . S
C312 N308 1.332 1_554 S
C312 N309 1.346 . S
C312 C329 1.361 . S
Co313 O316 2.097 . S
Co313 O317 2.065 1_556 S
Co313 O318 2.065 1_556 S
Co313 O319 2.042 . S
Co313 O322 2.097 . S
Co313 O326 2.042 . S
C314 O322 1.253 . S
C314 O327 1.263 . S
H315 C311 0.931 . S
O316 Co301 2.262 . S
O316 Co313 2.097 . S
O316 C340 1.253 . S
O317 Co313 2.065 1_554 S
O317 C333 1.221 . S
O318 Co313 2.065 1_554 S
O318 C328 1.221 . S
O319 Co313 2.042 . S
O319 C334 1.237 . S
O320 Co301 1.958 . S
O320 C334 1.278 . S
O321 Co307 1.950 1_554 S
O321 C333 1.277 . S
O322 Co307 2.262 . S
O322 Co313 2.097 . S
O322 C314 1.253 . S
O323 Co307 1.958 . S
O323 C341 1.278 . S
O324 Co301 1.950 1_554 S
O324 C328 1.277 . S
O325 Co301 2.057 . S
O325 C340 1.263 . S
O326 Co313 2.042 . S
O326 C341 1.237 . S
O327 Co307 2.057 . S
O327 C314 1.263 . S
C328 O318 1.221 . S
C328 O324 1.277 . S
C329 C312 1.361 . S
C329 H330 0.960 . S
C329 H331 0.961 . S
C329 H332 0.961 . S
H330 C329 0.960 . S
H331 C329 0.961 . S
H332 C329 0.961 . S
C333 O317 1.221 . S
C333 O321 1.277 . S
C334 O319 1.237 . S
C334 O320 1.278 . S
H335 C303 0.931 . S
H336 C339 0.961 . S
H337 C339 0.961 . S
H338 C339 0.960 . S
C339 C305 1.361 . S
C339 H336 0.961 . S
C339 H337 0.961 . S
C339 H338 0.960 . S
C340 O316 1.253 . S
C340 O325 1.263 . S
C341 O323 1.278 . S
C341 O326 1.237 . S
H342 C306 0.930 . S
H343 C310 0.930 . S
C344 C345 1.369 . S
C344 C346 1.419 . S
C344 H348 0.930 . S
C345 C344 1.369 . S
C345 C354 1.429 . S
C346 C344 1.419 . S
C346 C347 1.363 . S
C346 H349 0.929 . S
C347 C346 1.363 . S
C347 C353 1.428 . S
H348 C344 0.930 . S
H349 C346 0.929 . S
S350 N351 1.613 . S
S350 N352 1.610 1_565 S
N351 S350 1.613 . S
N351 C354 1.350 1_565 S
N352 S350 1.610 1_545 S
N352 C353 1.351 . S
C353 C347 1.428 . S
C353 N352 1.351 . S
C353 C354 1.434 . S
C354 C345 1.429 . S
C354 N351 1.350 1_545 S
C354 C353 1.434 . S
C355 C356 1.369 . S
C355 C357 1.419 . S
C355 H359 0.930 . S
C356 C355 1.369 . S
C356 C365 1.429 . S
C357 C355 1.419 . S
C357 C358 1.363 . S
C357 H360 0.929 . S
C358 C357 1.363 . S
C358 C364 1.428 . S
H359 C355 0.930 . S
H360 C357 0.929 . S
S361 N362 1.613 . S
S361 N363 1.610 . S
N362 S361 1.613 . S
N362 C365 1.350 . S
N363 S361 1.610 . S
N363 C364 1.351 . S
C364 C358 1.428 . S
C364 N363 1.351 . S
C364 C365 1.434 . S
C365 C356 1.429 . S
C365 N362 1.350 . S
C365 C364 1.434 . S
C366 C367 1.369 . S
C366 C368 1.419 . S
C366 H370 0.930 . S
C367 C366 1.369 . S
C367 C376 1.429 . S
C368 C366 1.419 . S
C368 C369 1.363 . S
C368 H371 0.929 . S
C369 C368 1.363 . S
C369 C375 1.428 . S
H370 C366 0.930 . S
H371 C368 0.929 . S
S372 N373 1.613 . S
S372 N374 1.610 . S
N373 S372 1.613 . S
N373 C376 1.350 . S
N374 S372 1.610 . S
N374 C375 1.351 . S
C375 C369 1.428 . S
C375 N374 1.351 . S
C375 C376 1.434 . S
C376 C367 1.429 . S
C376 N373 1.350 . S
C376 C375 1.434 . S
C377 C378 1.369 . S
C377 C379 1.419 . S
C377 H381 0.930 . S
C378 C377 1.369 . S
C378 C387 1.429 . S
C379 C377 1.419 . S
C379 C380 1.363 . S
C379 H382 0.929 . S
C380 C379 1.363 . S
C380 C386 1.428 . S
H381 C377 0.930 . S
H382 C379 0.929 . S
S383 N384 1.613 . S
S383 N385 1.610 . S
N384 S383 1.613 . S
N384 C387 1.350 . S
N385 S383 1.610 . S
N385 C386 1.351 . S
C386 C380 1.428 . S
C386 N385 1.351 . S
C386 C387 1.434 . S
C387 C378 1.429 . S
C387 N384 1.350 . S
C387 C386 1.434 . S
C388 C389 1.369 . S
C388 C390 1.419 . S
C388 H392 0.930 . S
C389 C388 1.369 . S
C389 C398 1.429 . S
C390 C388 1.419 . S
C390 C391 1.363 . S
C390 H393 0.929 . S
C391 C390 1.363 . S
C391 C397 1.428 . S
H392 C388 0.930 . S
H393 C390 0.929 . S
S394 N395 1.613 . S
S394 N396 1.610 . S
N395 S394 1.613 . S
N395 C398 1.350 . S
N396 S394 1.610 . S
N396 C397 1.351 . S
C397 C391 1.428 . S
C397 N396 1.351 . S
C397 C398 1.434 . S
C398 C389 1.429 . S
C398 N395 1.350 . S
C398 C397 1.434 . S
C399 C400 1.369 . S
C399 C401 1.419 . S
C399 H403 0.930 . S
C400 C399 1.369 . S
C400 C409 1.429 . S
C401 C399 1.419 . S
C401 C402 1.363 . S
C401 H404 0.929 . S
C402 C401 1.363 . S
C402 C408 1.428 . S
H403 C399 0.930 . S
H404 C401 0.929 . S
S405 N406 1.613 . S
S405 N407 1.610 . S
N406 S405 1.613 . S
N406 C409 1.350 . S
N407 S405 1.610 . S
N407 C408 1.351 . S
C408 C402 1.428 . S
C408 N407 1.351 . S
C408 C409 1.434 . S
C409 C400 1.429 . S
C409 N406 1.350 . S
C409 C408 1.434 . S
C410 C411 1.369 . S
C410 C412 1.419 . S
C410 H414 0.930 . S
C411 C410 1.369 . S
C411 C420 1.429 . S
C412 C410 1.419 . S
C412 C413 1.363 . S
C412 H415 0.929 1_565 S
C413 C412 1.363 . S
C413 C419 1.428 . S
H414 C410 0.930 . S
H415 C412 0.929 1_545 S
S416 N417 1.613 . S
S416 N418 1.610 . S
N417 S416 1.613 . S
N417 C420 1.350 . S
N418 S416 1.610 . S
N418 C419 1.351 . S
C419 C413 1.428 . S
C419 N418 1.351 . S
C419 C420 1.434 . S
C420 C411 1.429 . S
C420 N417 1.350 . S
C420 C419 1.434 . S
C421 C422 1.369 . S
C421 C423 1.419 . S
C421 H425 0.930 . S
C422 C421 1.369 . S
C422 C431 1.429 . S
C423 C421 1.419 . S
C423 C424 1.363 . S
C423 H426 0.929 . S
C424 C423 1.363 . S
C424 C430 1.428 . S
H425 C421 0.930 . S
H426 C423 0.929 . S
S427 N428 1.613 . S
S427 N429 1.610 . S
N428 S427 1.613 . S
N428 C431 1.350 . S
N429 S427 1.610 . S
N429 C430 1.351 . S
C430 C424 1.428 . S
C430 N429 1.351 . S
C430 C431 1.434 . S
C431 C422 1.429 . S
C431 N428 1.350 . S
C431 C430 1.434 . S
C432 C433 1.369 . S
C432 C434 1.419 . S
C432 H436 0.930 . S
C433 C432 1.369 . S
C433 C442 1.429 . S
C434 C432 1.419 . S
C434 C435 1.363 . S
C434 H437 0.929 . S
C435 C434 1.363 . S
C435 C441 1.428 1_545 S
H436 C432 0.930 . S
H437 C434 0.929 . S
S438 N439 1.613 . S
S438 N440 1.610 . S
N439 S438 1.613 . S
N439 C442 1.350 1_565 S
N440 S438 1.610 . S
N440 C441 1.351 . S
C441 C435 1.428 1_565 S
C441 N440 1.351 . S
C441 C442 1.434 1_565 S
C442 C433 1.429 . S
C442 N439 1.350 1_545 S
C442 C441 1.434 1_545 S
C443 C444 1.369 . S
C443 C445 1.419 . S
C443 H447 0.930 . S
C444 C443 1.369 . S
C444 C453 1.429 . S
C445 C443 1.419 . S
C445 C446 1.363 . S
C445 H448 0.929 . S
C446 C445 1.363 . S
C446 C452 1.428 . S
H447 C443 0.930 . S
H448 C445 0.929 . S
S449 N450 1.613 . S
S449 N451 1.610 1_545 S
N450 S449 1.613 . S
N450 C453 1.350 1_545 S
N451 S449 1.610 1_565 S
N451 C452 1.351 . S
C452 C446 1.428 . S
C452 N451 1.351 . S
C452 C453 1.434 . S
C453 C444 1.429 . S
C453 N450 1.350 1_565 S
C453 C452 1.434 . S
C454 C455 1.369 . S
C454 C456 1.419 . S
C454 H458 0.930 . S
C455 C454 1.369 . S
C455 C464 1.429 . S
C456 C454 1.419 . S
C456 C457 1.363 . S
C456 H459 0.929 . S
C457 C456 1.363 . S
C457 C463 1.428 . S
H458 C454 0.930 . S
H459 C456 0.929 . S
S460 N461 1.613 . S
S460 N462 1.610 . S
N461 S460 1.613 . S
N461 C464 1.350 . S
N462 S460 1.610 . S
N462 C463 1.351 . S
C463 C457 1.428 . S
C463 N462 1.351 . S
C463 C464 1.434 . S
C464 C455 1.429 . S
C464 N461 1.350 . S
C464 C463 1.434 . S
C465 C466 1.369 . S
C465 C467 1.419 . S
C465 H469 0.930 . S
C466 C465 1.369 . S
C466 C475 1.429 . S
C467 C465 1.419 . S
C467 C468 1.363 . S
C467 H470 0.929 . S
C468 C467 1.363 . S
C468 C474 1.428 . S
H469 C465 0.930 . S
H470 C467 0.929 . S
S471 N472 1.613 . S
S471 N473 1.610 . S
N472 S471 1.613 . S
N472 C475 1.350 . S
N473 S471 1.610 . S
N473 C474 1.351 . S
C474 C468 1.428 . S
C474 N473 1.351 . S
C474 C475 1.434 . S
C475 C466 1.429 . S
C475 N472 1.350 . S
C475 C474 1.434 . S
C476 C477 1.369 . S
C476 C478 1.419 . S
C476 H480 0.930 . S
C477 C476 1.369 . S
C477 C486 1.429 . S
C478 C476 1.419 . S
C478 C479 1.363 . S
C478 H481 0.929 . S
C479 C478 1.363 . S
C479 C485 1.428 . S
H480 C476 0.930 . S
H481 C478 0.929 . S
S482 N483 1.613 . S
S482 N484 1.610 . S
N483 S482 1.613 . S
N483 C486 1.350 . S
N484 S482 1.610 . S
N484 C485 1.351 . S
C485 C479 1.428 . S
C485 N484 1.351 . S
C485 C486 1.434 . S
C486 C477 1.429 . S
C486 N483 1.350 . S
C486 C485 1.434 . S
C487 C488 1.369 . S
C487 C489 1.419 . S
C487 H491 0.930 . S
C488 C487 1.369 . S
C488 C497 1.429 . S
C489 C487 1.419 . S
C489 C490 1.363 . S
C489 H492 0.929 . S
C490 C489 1.363 . S
C490 C496 1.428 . S
H491 C487 0.930 . S
H492 C489 0.929 . S
S493 N494 1.613 . S
S493 N495 1.610 . S
N494 S493 1.613 . S
N494 C497 1.350 . S
N495 S493 1.610 . S
N495 C496 1.351 . S
C496 C490 1.428 . S
C496 N495 1.351 . S
C496 C497 1.434 . S
C497 C488 1.429 . S
C497 N494 1.350 . S
C497 C496 1.434 . S
C498 C499 1.369 . S
C498 C500 1.419 . S
C498 H502 0.930 . S
C499 C498 1.369 . S
C499 C508 1.429 . S
C500 C498 1.419 . S
C500 C501 1.363 . S
C500 H503 0.929 . S
C501 C500 1.363 . S
C501 C507 1.428 . S
H502 C498 0.930 . S
H503 C500 0.929 . S
S504 N505 1.613 . S
S504 N506 1.610 1_545 S
N505 S504 1.613 . S
N505 C508 1.350 1_545 S
N506 S504 1.610 1_565 S
N506 C507 1.351 . S
C507 C501 1.428 . S
C507 N506 1.351 . S
C507 C508 1.434 . S
C508 C499 1.429 . S
C508 N505 1.350 1_565 S
C508 C507 1.434 . S
C509 C510 1.369 . S
C509 C511 1.419 . S
C509 H513 0.930 . S
C510 C509 1.369 . S
C510 C519 1.429 . S
C511 C509 1.419 . S
C511 C512 1.363 . S
C511 H514 0.929 . S
C512 C511 1.363 . S
C512 C518 1.428 . S
H513 C509 0.930 . S
H514 C511 0.929 . S
S515 N516 1.613 . S
S515 N517 1.610 1_565 S
N516 S515 1.613 . S
N516 C519 1.350 1_565 S
N517 S515 1.610 1_545 S
N517 C518 1.351 . S
C518 C512 1.428 . S
C518 N517 1.351 . S
C518 C519 1.434 . S
C519 C510 1.429 . S
C519 N516 1.350 1_545 S
C519 C518 1.434 . S
C520 C521 1.369 . S
C520 C522 1.419 . S
C520 H524 0.930 . S
C521 C520 1.369 . S
C521 C530 1.429 1_656 S
C522 C520 1.419 . S
C522 C523 1.363 1_655 S
C522 H525 0.929 . S
C523 C522 1.363 1_455 S
C523 C529 1.428 1_556 S
H524 C520 0.930 . S
H525 C522 0.929 . S
S526 N527 1.613 . S
S526 N528 1.610 . S
N527 S526 1.613 . S
N527 C530 1.350 . S
N528 S526 1.610 . S
N528 C529 1.351 . S
C529 C523 1.428 1_554 S
C529 N528 1.351 . S
C529 C530 1.434 . S
C530 C521 1.429 1_454 S
C530 N527 1.350 . S
C530 C529 1.434 . S
C531 C532 1.369 . S
C531 C533 1.419 . S
C531 H535 0.930 . S
C532 C531 1.369 . S
C532 C541 1.429 . S
C533 C531 1.419 . S
C533 C534 1.363 . S
C533 H536 0.929 . S
C534 C533 1.363 . S
C534 C540 1.428 . S
H535 C531 0.930 . S
H536 C533 0.929 . S
S537 N538 1.613 . S
S537 N539 1.610 . S
N538 S537 1.613 . S
N538 C541 1.350 . S
N539 S537 1.610 . S
N539 C540 1.351 . S
C540 C534 1.428 . S
C540 N539 1.351 . S
C540 C541 1.434 . S
C541 C532 1.429 . S
C541 N538 1.350 . S
C541 C540 1.434 . S
C542 C543 1.369 . S
C542 C544 1.419 . S
C542 H546 0.930 . S
C543 C542 1.369 . S
C543 C552 1.429 . S
C544 C542 1.419 . S
C544 C545 1.363 . S
C544 H547 0.929 . S
C545 C544 1.363 . S
C545 C551 1.428 . S
H546 C542 0.930 . S
H547 C544 0.929 . S
S548 N549 1.613 . S
S548 N550 1.610 . S
N549 S548 1.613 . S
N549 C552 1.350 . S
N550 S548 1.610 . S
N550 C551 1.351 . S
C551 C545 1.428 . S
C551 N550 1.351 . S
C551 C552 1.434 . S
C552 C543 1.429 . S
C552 N549 1.350 . S
C552 C551 1.434 . S
C553 C554 1.369 1_655 S
C553 C555 1.419 1_565 S
C553 H557 0.930 . S
C554 C553 1.369 1_455 S
C554 C563 1.429 . S
C555 C553 1.419 1_545 S
C555 C556 1.363 . S
C555 H558 0.929 . S
C556 C555 1.363 . S
C556 C562 1.428 1_655 S
H557 C553 0.930 . S
H558 C555 0.929 . S
S559 N560 1.613 1_545 S
S559 N561 1.610 . S
N560 S559 1.613 1_565 S
N560 C563 1.350 . S
N561 S559 1.610 . S
N561 C562 1.351 . S
C562 C556 1.428 1_455 S
C562 N561 1.351 . S
C562 C563 1.434 1_545 S
C563 C554 1.429 . S
C563 N560 1.350 . S
C563 C562 1.434 1_565 S
C564 C565 1.369 . S
C564 C566 1.419 . S
C564 H568 0.930 . S
C565 C564 1.369 . S
C565 C574 1.429 . S
C566 C564 1.419 . S
C566 C567 1.363 . S
C566 H569 0.929 . S
C567 C566 1.363 . S
C567 C573 1.428 . S
H568 C564 0.930 . S
H569 C566 0.929 . S
S570 N571 1.613 . S
S570 N572 1.610 . S
N571 S570 1.613 . S
N571 C574 1.350 . S
N572 S570 1.610 . S
N572 C573 1.351 . S
C573 C567 1.428 . S
C573 N572 1.351 . S
C573 C574 1.434 . S
C574 C565 1.429 . S
C574 N571 1.350 . S
C574 C573 1.434 . S
C575 C576 1.369 . S
C575 C577 1.419 . S
C575 H579 0.930 . S
C576 C575 1.369 . S
C576 C585 1.429 . S
C577 C575 1.419 . S
C577 C578 1.363 . S
C577 H580 0.929 . S
C578 C577 1.363 . S
C578 C584 1.428 . S
H579 C575 0.930 . S
H580 C577 0.929 . S
S581 N582 1.613 . S
S581 N583 1.610 . S
N582 S581 1.613 . S
N582 C585 1.350 . S
N583 S581 1.610 . S
N583 C584 1.351 . S
C584 C578 1.428 . S
C584 N583 1.351 . S
C584 C585 1.434 . S
C585 C576 1.429 . S
C585 N582 1.350 . S
C585 C584 1.434 . S
C586 C587 1.369 . S
C586 C588 1.419 . S
C586 H590 0.930 . S
C587 C586 1.369 . S
C587 C596 1.429 . S
C588 C586 1.419 . S
C588 C589 1.363 . S
C588 H591 0.929 . S
C589 C588 1.363 . S
C589 C595 1.428 . S
H590 C586 0.930 . S
H591 C588 0.929 . S
S592 N593 1.613 . S
S592 N594 1.610 . S
N593 S592 1.613 . S
N593 C596 1.350 . S
N594 S592 1.610 . S
N594 C595 1.351 . S
C595 C589 1.428 . S
C595 N594 1.351 . S
C595 C596 1.434 . S
C596 C587 1.429 . S
C596 N593 1.350 . S
C596 C595 1.434 . S
C597 C598 1.369 1_554 S
C597 C599 1.419 1_565 S
C597 H601 0.930 . S
C598 C597 1.369 1_556 S
C598 C607 1.429 . S
C599 C597 1.419 1_545 S
C599 C600 1.363 1_554 S
C599 H602 0.929 . S
C600 C599 1.363 1_556 S
C600 C606 1.428 . S
H601 C597 0.930 . S
H602 C599 0.929 . S
S603 N604 1.613 . S
S603 N605 1.610 1_565 S
N604 S603 1.613 . S
N604 C607 1.350 . S
N605 S603 1.610 1_545 S
N605 C606 1.351 . S
C606 C600 1.428 . S
C606 N605 1.351 . S
C606 C607 1.434 1_545 S
C607 C598 1.429 . S
C607 N604 1.350 . S
C607 C606 1.434 1_565 S
C608 C609 1.369 . S
C608 C610 1.419 . S
C608 H612 0.930 1_554 S
C609 C608 1.369 . S
C609 C618 1.429 . S
C610 C608 1.419 . S
C610 C611 1.363 . S
C610 H613 0.929 1_554 S
C611 C610 1.363 . S
C611 C617 1.428 . S
H612 C608 0.930 1_556 S
H613 C610 0.929 1_556 S
S614 N615 1.613 . S
S614 N616 1.610 . S
N615 S614 1.613 . S
N615 C618 1.350 . S
N616 S614 1.610 . S
N616 C617 1.351 . S
C617 C611 1.428 . S
C617 N616 1.351 . S
C617 C618 1.434 . S
C618 C609 1.429 . S
C618 N615 1.350 . S
C618 C617 1.434 . S
C619 C620 1.369 1_556 S
C619 C621 1.419 . S
C619 H623 0.930 . S
C620 C619 1.369 1_554 S
C620 C629 1.429 . S
C621 C619 1.419 . S
C621 C622 1.363 1_556 S
C621 H624 0.929 . S
C622 C621 1.363 1_554 S
C622 C628 1.428 . S
H623 C619 0.930 . S
H624 C621 0.929 . S
S625 N626 1.613 . S
S625 N627 1.610 . S
N626 S625 1.613 . S
N626 C629 1.350 . S
N627 S625 1.610 . S
N627 C628 1.351 . S
C628 C622 1.428 . S
C628 N627 1.351 . S
C628 C629 1.434 . S
C629 C620 1.429 . S
C629 N626 1.350 . S
C629 C628 1.434 . S
C630 C631 1.369 . S
C630 C632 1.419 1_455 S
C630 H634 0.930 . S
C631 C630 1.369 . S
C631 C640 1.429 . S
C632 C630 1.419 1_655 S
C632 C633 1.363 . S
C632 H635 0.929 . S
C633 C632 1.363 . S
C633 C639 1.439 . S
H634 C630 0.930 . S
H635 C632 0.929 . S
S636 N637 1.613 . S
S636 N638 1.610 . S
N637 S636 1.613 . S
N637 C640 1.350 . S
N638 S636 1.610 . S
N638 C639 1.350 1_455 S
C639 C633 1.439 . S
C639 N638 1.350 1_655 S
C639 C640 1.423 1_655 S
C640 C631 1.429 . S
C640 N637 1.350 . S
C640 C639 1.423 1_455 S
C641 C642 1.369 . S
C641 C643 1.419 . S
C641 H645 0.930 . S
C642 C641 1.369 . S
C642 C651 1.429 . S
C643 C641 1.419 . S
C643 C644 1.363 . S
C643 H646 0.929 . S
C644 C643 1.363 . S
C644 C650 1.428 . S
H645 C641 0.930 . S
H646 C643 0.929 . S
S647 N648 1.613 . S
S647 N649 1.610 . S
N648 S647 1.613 . S
N648 C651 1.350 . S
N649 S647 1.610 . S
N649 C650 1.351 . S
C650 C644 1.428 . S
C650 N649 1.351 . S
C650 C651 1.434 . S
C651 C642 1.429 . S
C651 N648 1.350 . S
C651 C650 1.434 . S
C652 C653 1.369 . S
C652 C654 1.419 . S
C652 H656 0.930 . S
C653 C652 1.369 . S
C653 C662 1.429 . S
C654 C652 1.419 . S
C654 C655 1.363 . S
C654 H657 0.929 . S
C655 C654 1.363 . S
C655 C661 1.428 . S
H656 C652 0.930 . S
H657 C654 0.929 . S
S658 N659 1.613 . S
S658 N660 1.610 . S
N659 S658 1.613 . S
N659 C662 1.350 . S
N660 S658 1.610 . S
N660 C661 1.351 . S
C661 C655 1.428 . S
C661 N660 1.351 . S
C661 C662 1.434 . S
C662 C653 1.429 . S
C662 N659 1.350 . S
C662 C661 1.434 . S
C663 C664 1.369 1_545 S
C663 C665 1.419 1_655 S
C663 H667 0.930 . S
C664 C663 1.369 1_565 S
C664 C673 1.434 . S
C665 C663 1.419 1_455 S
C665 C666 1.363 . S
C665 H668 0.929 . S
C666 C665 1.363 . S
C666 C672 1.428 1_545 S
H667 C663 0.930 . S
H668 C665 0.929 . S
S669 N670 1.613 . S
S669 N671 1.610 . S
N670 S669 1.613 . S
N670 C673 1.349 1_455 S
N671 S669 1.610 . S
N671 C672 1.351 . S
C672 C666 1.428 1_565 S
C672 N671 1.351 . S
C672 C673 1.429 1_455 S
C673 C664 1.434 . S
C673 N670 1.349 1_655 S
C673 C672 1.429 1_655 S
C674 C675 1.369 . S
C674 C676 1.419 . S
C674 H678 0.930 . S
C675 C674 1.369 . S
C675 C684 1.429 . S
C676 C674 1.419 . S
C676 C677 1.363 . S
C676 H679 0.929 . S
C677 C676 1.363 . S
C677 C683 1.428 . S
H678 C674 0.930 . S
H679 C676 0.929 . S
S680 N681 1.613 . S
S680 N682 1.610 . S
N681 S680 1.613 . S
N681 C684 1.350 . S
N682 S680 1.610 . S
N682 C683 1.351 . S
C683 C677 1.428 . S
C683 N682 1.351 . S
C683 C684 1.434 . S
C684 C675 1.429 . S
C684 N681 1.350 . S
C684 C683 1.434 . S
C685 C686 1.369 . S
C685 C687 1.419 . S
C685 H689 0.930 . S
C686 C685 1.369 . S
C686 C695 1.429 1_545 S
C687 C685 1.419 . S
C687 C688 1.363 1_545 S
C687 H690 0.929 . S
C688 C687 1.363 1_565 S
C688 C694 1.428 . S
H689 C685 0.930 . S
H690 C687 0.929 . S
S691 N692 1.613 . S
S691 N693 1.610 . S
N692 S691 1.613 . S
N692 C695 1.350 . S
N693 S691 1.610 . S
N693 C694 1.351 . S
C694 C688 1.428 . S
C694 N693 1.351 . S
C694 C695 1.434 . S
C695 C686 1.429 1_565 S
C695 N692 1.350 . S
C695 C694 1.434 . S
C345 C27 1.936 1_545 S
C347 C76 2.171 . S
C356 C32 1.936 1_565 S
C358 C126 2.168 . S
C367 C162 2.170 . S
C369 C70 1.937 . S
C378 C118 1.938 . S
C380 C169 2.170 . S
C389 C156 1.938 . S
C391 C205 2.170 . S
C400 C248 2.170 . S
C402 C161 1.931 . S
C411 C199 1.938 . S
C413 C33 2.174 . S
C422 C242 1.939 . S
C424 C40 2.172 . S
C433 C255 2.175 . S
C435 C285 1.934 1_545 S
C444 C290 1.936 1_565 S
C446 C212 2.174 . S
C455 C334 2.174 . S
C457 C247 1.937 . S
C466 C341 2.175 . S
C468 C204 1.933 . S
C477 C328 1.927 . S
C479 C119 2.170 . S
C488 C83 2.172 . S
C490 C333 1.935 . S
C499 C291 2.174 . S
C501 C113 1.928 . S
C510 C298 2.174 . S
C512 C75 1.928 . S
C521 C13 1.899 . S
C523 C39 1.891 . S
C532 C82 1.892 . S
C534 C56 1.896 . S
C543 C125 1.892 . S
C545 C99 1.896 . S
C554 C168 1.894 . S
C556 C142 1.896 . S
C565 C211 1.890 . S
C567 C185 1.898 . S
C576 C228 1.895 . S
C578 C254 1.894 . S
C587 C271 1.899 . S
C589 C297 1.891 . S
C598 C340 1.898 . S
C600 C314 1.891 . S
C609 N309 1.263 . S
C611 N3 1.246 . S
C620 N8 1.264 . S
C622 N304 1.249 . S
C631 N46 1.245 . S
C633 N94 1.258 . S
C642 N266 1.263 . S
C644 N132 1.246 . S
C653 N137 1.262 . S
C655 N261 1.246 . S
C664 N218 1.263 . S
C666 N175 1.250 . S
C675 N223 1.249 . S
C677 N180 1.260 . S
C686 N89 1.245 . S
C688 N51 1.259 . S
