# Generated by pormake.
# Topology whe, (6)-cn, num edge types: 1
# Building blocks:
#     Node 0, Type 0, BuildingBlock: IZENUY_clean_sbu_0, # of connection points: 6
#     Node 1, Type 0, BuildingBlock: IZENUY_clean_sbu_0, # of connection points: 6
#     Node 2, Type 0, BuildingBlock: IZENUY_clean_sbu_0, # of connection points: 6
#     Node 3, Type 0, BuildingBlock: IZENUY_clean_sbu_0, # of connection points: 6
#     Node 4, Type 0, BuildingBlock: IZENUY_clean_sbu_0, # of connection points: 6
#     Node 5, Type 0, BuildingBlock: IZENUY_clean_sbu_0, # of connection points: 6
#     Node 6, Type 0, BuildingBlock: IZENUY_clean_sbu_0, # of connection points: 6
#     Node 7, Type 0, BuildingBlock: IZENUY_clean_sbu_0, # of connection points: 6
#     Node 8, Type 0, BuildingBlock: IZENUY_clean_sbu_0, # of connection points: 6
#     Node 9, Type 0, BuildingBlock: IZENUY_clean_sbu_0, # of connection points: 6
#     Node 10, Type 0, BuildingBlock: IZENUY_clean_sbu_0, # of connection points: 6
#     Node 11, Type 0, BuildingBlock: IZENUY_clean_sbu_0, # of connection points: 6
#     Node 12, Type 0, BuildingBlock: IZENUY_clean_sbu_0, # of connection points: 6
#     Node 13, Type 0, BuildingBlock: IZENUY_clean_sbu_0, # of connection points: 6
#     Node 14, Type 0, BuildingBlock: IZENUY_clean_sbu_0, # of connection points: 6
#     Node 15, Type 0, BuildingBlock: IZENUY_clean_sbu_0, # of connection points: 6
#     Edge 16, Type (0, 0), BuildingBlock: KIFKEQ_clean_linker_1, # of connection points: 2
#     Edge 17, Type (0, 0), BuildingBlock: KIFKEQ_clean_linker_1, # of connection points: 2
#     Edge 18, Type (0, 0), BuildingBlock: KIFKEQ_clean_linker_1, # of connection points: 2
#     Edge 19, Type (0, 0), BuildingBlock: KIFKEQ_clean_linker_1, # of connection points: 2
#     Edge 20, Type (0, 0), BuildingBlock: KIFKEQ_clean_linker_1, # of connection points: 2
#     Edge 21, Type (0, 0), BuildingBlock: KIFKEQ_clean_linker_1, # of connection points: 2
#     Edge 22, Type (0, 0), BuildingBlock: KIFKEQ_clean_linker_1, # of connection points: 2
#     Edge 23, Type (0, 0), BuildingBlock: KIFKEQ_clean_linker_1, # of connection points: 2
#     Edge 24, Type (0, 0), BuildingBlock: KIFKEQ_clean_linker_1, # of connection points: 2
#     Edge 25, Type (0, 0), BuildingBlock: KIFKEQ_clean_linker_1, # of connection points: 2
#     Edge 26, Type (0, 0), BuildingBlock: KIFKEQ_clean_linker_1, # of connection points: 2
#     Edge 27, Type (0, 0), BuildingBlock: KIFKEQ_clean_linker_1, # of connection points: 2
#     Edge 28, Type (0, 0), BuildingBlock: KIFKEQ_clean_linker_1, # of connection points: 2
#     Edge 29, Type (0, 0), BuildingBlock: KIFKEQ_clean_linker_1, # of connection points: 2
#     Edge 30, Type (0, 0), BuildingBlock: KIFKEQ_clean_linker_1, # of connection points: 2
#     Edge 31, Type (0, 0), BuildingBlock: KIFKEQ_clean_linker_1, # of connection points: 2
#     Edge 32, Type (0, 0), BuildingBlock: KIFKEQ_clean_linker_1, # of connection points: 2
#     Edge 33, Type (0, 0), BuildingBlock: KIFKEQ_clean_linker_1, # of connection points: 2
#     Edge 34, Type (0, 0), BuildingBlock: KIFKEQ_clean_linker_1, # of connection points: 2
#     Edge 35, Type (0, 0), BuildingBlock: KIFKEQ_clean_linker_1, # of connection points: 2
#     Edge 36, Type (0, 0), BuildingBlock: KIFKEQ_clean_linker_1, # of connection points: 2
#     Edge 37, Type (0, 0), BuildingBlock: KIFKEQ_clean_linker_1, # of connection points: 2
#     Edge 38, Type (0, 0), BuildingBlock: KIFKEQ_clean_linker_1, # of connection points: 2
#     Edge 39, Type (0, 0), BuildingBlock: KIFKEQ_clean_linker_1, # of connection points: 2
#     Edge 40, Type (0, 0), BuildingBlock: KIFKEQ_clean_linker_1, # of connection points: 2
#     Edge 41, Type (0, 0), BuildingBlock: KIFKEQ_clean_linker_1, # of connection points: 2
#     Edge 42, Type (0, 0), BuildingBlock: KIFKEQ_clean_linker_1, # of connection points: 2
#     Edge 43, Type (0, 0), BuildingBlock: KIFKEQ_clean_linker_1, # of connection points: 2
#     Edge 44, Type (0, 0), BuildingBlock: KIFKEQ_clean_linker_1, # of connection points: 2
#     Edge 45, Type (0, 0), BuildingBlock: KIFKEQ_clean_linker_1, # of connection points: 2
#     Edge 46, Type (0, 0), BuildingBlock: KIFKEQ_clean_linker_1, # of connection points: 2
#     Edge 47, Type (0, 0), BuildingBlock: KIFKEQ_clean_linker_1, # of connection points: 2
#     Edge 48, Type (0, 0), BuildingBlock: KIFKEQ_clean_linker_1, # of connection points: 2
#     Edge 49, Type (0, 0), BuildingBlock: KIFKEQ_clean_linker_1, # of connection points: 2
#     Edge 50, Type (0, 0), BuildingBlock: KIFKEQ_clean_linker_1, # of connection points: 2
#     Edge 51, Type (0, 0), BuildingBlock: KIFKEQ_clean_linker_1, # of connection points: 2
#     Edge 52, Type (0, 0), BuildingBlock: KIFKEQ_clean_linker_1, # of connection points: 2
#     Edge 53, Type (0, 0), BuildingBlock: KIFKEQ_clean_linker_1, # of connection points: 2
#     Edge 54, Type (0, 0), BuildingBlock: KIFKEQ_clean_linker_1, # of connection points: 2
#     Edge 55, Type (0, 0), BuildingBlock: KIFKEQ_clean_linker_1, # of connection points: 2
#     Edge 56, Type (0, 0), BuildingBlock: KIFKEQ_clean_linker_1, # of connection points: 2
#     Edge 57, Type (0, 0), BuildingBlock: KIFKEQ_clean_linker_1, # of connection points: 2
#     Edge 58, Type (0, 0), BuildingBlock: KIFKEQ_clean_linker_1, # of connection points: 2
#     Edge 59, Type (0, 0), BuildingBlock: KIFKEQ_clean_linker_1, # of connection points: 2
#     Edge 60, Type (0, 0), BuildingBlock: KIFKEQ_clean_linker_1, # of connection points: 2
#     Edge 61, Type (0, 0), BuildingBlock: KIFKEQ_clean_linker_1, # of connection points: 2
#     Edge 62, Type (0, 0), BuildingBlock: KIFKEQ_clean_linker_1, # of connection points: 2
#     Edge 63, Type (0, 0), BuildingBlock: KIFKEQ_clean_linker_1, # of connection points: 2
# Relax obj value: 0.463
# Max RMSD: 0.278
# Mean RMSD: 0.278
data_MOF--net-whe--node1-IZENUY_clean_sbu_0--edge1-KIFKEQ_clean_linker_1
_symmetry_space_group_name_H-M    P1
_symmetry_Int_Tables_number       1
_symmetry_cell_setting            triclinic
loop_
_symmetry_equiv_pos_as_xyz
'x, y, z'
_cell_length_a     34.105977
_cell_length_b     34.154747
_cell_length_c     55.203749
_cell_angle_alpha  90.13163
_cell_angle_beta   89.831049
_cell_angle_gamma 90.123339
loop_
_atom_site_label
_atom_site_type_symbol
_atom_site_fract_x
_atom_site_fract_y
_atom_site_fract_z
_atom_type_partial_charge
Fe0 Fe 0.10522 0.25509 0.16548 0.0
Fe1 Fe 0.06227 0.32764 0.14798 0.0
O2 O 0.10651 0.30496 0.1566 0.0
Fe3 Fe 0.15152 0.33056 0.15587 0.0
O4 O 0.16138 0.32013 0.18847 0.0
O5 O 0.14954 0.25718 0.18452 0.0
O6 O 0.07742 0.26815 0.19199 0.0
C7 C 0.04721 0.28939 0.19119 0.0
C8 C 0.16704 0.2558 0.13499 0.0
O9 O 0.03397 0.30028 0.17083 0.0
C10 C 0.11649 0.354 0.11293 0.0
O11 O 0.06062 0.24204 0.14855 0.0
O12 O 0.054 0.29166 0.1245 0.0
O13 O 0.17953 0.28633 0.14609 0.0
O14 O 0.13322 0.24225 0.13918 0.0
C15 C 0.09466 0.38938 0.17143 0.0
O16 O 0.0842 0.35819 0.12407 0.0
O17 O 0.14613 0.34055 0.1237 0.0
C18 C 0.04644 0.25669 0.12948 0.0
O19 O 0.06708 0.36526 0.17039 0.0
O20 O 0.12908 0.37973 0.16404 0.0
C21 C 0.16441 0.28514 0.19647 0.0
Fe22 Fe 0.70409 0.15997 0.15514 0.0
Fe23 Fe 0.76433 0.09899 0.17357 0.0
O24 O 0.72191 0.11113 0.15678 0.0
Fe25 Fe 0.69565 0.0745 0.14063 0.0
O26 O 0.64903 0.10001 0.14205 0.0
O27 O 0.65742 0.14377 0.17019 0.0
O28 O 0.7233 0.17699 0.18467 0.0
C29 C 0.74015 0.16084 0.20243 0.0
C30 C 0.69856 0.132 0.10743 0.0
O31 O 0.74875 0.12491 0.2012 0.0
C32 C 0.77191 0.0448 0.13656 0.0
O33 O 0.74922 0.17632 0.14063 0.0
O34 O 0.79143 0.14154 0.16262 0.0
O35 O 0.70869 0.0976 0.11255 0.0
O36 O 0.68455 0.15441 0.12377 0.0
C37 C 0.70739 0.0392 0.18406 0.0
O38 O 0.78722 0.07207 0.14861 0.0
O39 O 0.73552 0.04099 0.13597 0.0
C40 C 0.78386 0.16665 0.14636 0.0
O41 O 0.74156 0.05431 0.18591 0.0
O42 O 0.68307 0.04978 0.16814 0.0
C43 C 0.63596 0.11761 0.16033 0.0
Fe44 Fe 0.89702 0.70895 0.15395 0.0
Fe45 Fe 0.95636 0.77153 0.16934 0.0
O46 O 0.94625 0.72586 0.15553 0.0
Fe47 Fe 0.98655 0.69887 0.1436 0.0
O48 O 0.9752 0.65658 0.16102 0.0
O49 O 0.91029 0.6561 0.16022 0.0
O50 O 0.8868 0.71625 0.18699 0.0
C51 C 0.88947 0.74958 0.19724 0.0
C52 C 0.92703 0.68701 0.10842 0.0
O53 O 0.91206 0.7747 0.18803 0.0
C54 C 1.01531 0.77033 0.13352 0.0
O55 O 0.87854 0.75912 0.14636 0.0
O56 O 0.93235 0.79607 0.14505 0.0
O57 O 0.96056 0.68015 0.11709 0.0
O58 O 0.9 0.70131 0.12131 0.0
C59 C 1.00757 0.72203 0.19001 0.0
O60 O 1.00327 0.78071 0.15413 0.0
O61 O 1.00276 0.73902 0.12454 0.0
C62 C 0.89712 0.78975 0.13908 0.0
O63 O 0.98001 0.74608 0.19356 0.0
O64 O 0.01871 0.71251 0.16888 0.0
C65 C 0.94331 0.63931 0.16434 0.0
Fe66 Fe 0.35457 0.8906 0.15452 0.0
Fe67 Fe 0.29305 0.95301 0.16992 0.0
O68 O 0.33832 0.93957 0.15678 0.0
Fe69 Fe 0.37005 0.97725 0.14617 0.0
O70 O 0.41448 0.9487 0.14567 0.0
O71 O 0.4011 0.90353 0.1712 0.0
O72 O 0.33366 0.87374 0.18419 0.0
C73 C 0.31275 0.8902 0.20052 0.0
C74 C 0.36765 0.92775 0.10791 0.0
O75 O 0.30036 0.92473 0.19756 0.0
C76 C 0.29875 1.01142 0.13645 0.0
O77 O 0.31019 0.8743 0.1389 0.0
O78 O 0.26594 0.91336 0.15593 0.0
O79 O 0.3607 0.96219 0.11552 0.0
O80 O 0.37483 0.89971 0.12298 0.0
C81 C 0.35112 0.99896 0.19189 0.0
O82 O 0.27924 0.98238 0.14358 0.0
O83 O 0.33348 1.0151 0.14326 0.0
C84 C 0.27508 0.8853 0.14207 0.0
O85 O 0.31539 0.99481 0.18576 0.0
O86 O 0.37897 0.99113 0.17741 0.0
C87 C 0.42556 0.92802 0.16274 0.0
Fe88 Fe 0.10872 0.79507 0.37643 0.0
Fe89 Fe 0.06119 0.72388 0.39184 0.0
O90 O 0.10722 0.7449 0.38463 0.0
Fe91 Fe 0.15126 0.71767 0.38585 0.0
O92 O 0.16488 0.72988 0.3538 0.0
O93 O 0.15477 0.79247 0.3592 0.0
O94 O 0.08338 0.78358 0.34883 0.0
C95 C 0.05251 0.76308 0.34839 0.0
C96 C 0.16645 0.79002 0.40963 0.0
O97 O 0.03654 0.75237 0.36809 0.0
C98 C 0.11181 0.69291 0.42756 0.0
O99 O 0.06293 0.80936 0.39155 0.0
O100 O 0.0518 0.7601 0.41518 0.0
O101 O 0.17962 0.76026 0.398 0.0
O102 O 0.13429 0.80581 0.40392 0.0
C103 C 0.0933 0.66189 0.36776 0.0
O104 O 0.07944 0.69228 0.41632 0.0
O105 O 0.14274 0.70515 0.41743 0.0
C106 C 0.0458 0.79522 0.40984 0.0
O107 O 0.06616 0.68627 0.3695 0.0
O108 O 0.12783 0.6701 0.37553 0.0
C109 C 0.16908 0.76515 0.34649 0.0
Fe110 Fe 0.32905 0.14044 0.3839 0.0
Fe111 Fe 0.25511 0.08967 0.38052 0.0
O112 O 0.30548 0.0945 0.38674 0.0
Fe113 Fe 0.33172 0.05321 0.3968 0.0
O114 O 0.36418 0.05612 0.37135 0.0
O115 O 0.3782 0.11849 0.37529 0.0
O116 O 0.31607 0.14465 0.35138 0.0
C117 C 0.28043 0.1452 0.34433 0.0
C118 C 0.35804 0.11306 0.42745 0.0
O119 O 0.25407 0.12923 0.35744 0.0
C120 C 0.26505 0.03818 0.42065 0.0
O121 O 0.28457 0.16883 0.3927 0.0
O122 O 0.24348 0.12294 0.40467 0.0
O123 O 0.36491 0.08085 0.41687 0.0
O124 O 0.3411 0.14025 0.41612 0.0
C125 C 0.28493 0.02496 0.35892 0.0
O126 O 0.24633 0.04901 0.40201 0.0
O127 O 0.30033 0.04776 0.42286 0.0
C128 C 0.25427 0.15822 0.40466 0.0
O129 O 0.26562 0.05613 0.3563 0.0
O130 O 0.3034 0.01826 0.37835 0.0
C131 C 0.38701 0.08413 0.36757 0.0
Fe132 Fe 0.94829 0.30495 0.36005 0.0
Fe133 Fe 0.96698 0.37501 0.39276 0.0
O134 O 0.932 0.34498 0.3776 0.0
Fe135 Fe 0.88192 0.35763 0.38059 0.0
O136 O 0.86612 0.3413 0.35003 0.0
O137 O 0.91929 0.31715 0.33328 0.0
O138 O 0.98822 0.33428 0.34685 0.0
C139 C 0.99423 0.3712 0.3468 0.0
C140 C 0.88179 0.27607 0.38574 0.0
O141 O 0.98391 0.39352 0.36399 0.0
C142 C 0.91451 0.36052 0.42815 0.0
O143 O 0.9789 0.2857 0.3844 0.0
O144 O 1.00715 0.34058 0.39315 0.0
O145 O 0.86861 0.30928 0.39221 0.0
O146 O 0.9104 0.27218 0.37124 0.0
C147 C 0.91601 0.4313 0.3794 0.0
O148 O 0.94978 0.35621 0.42127 0.0
O149 O 0.88807 0.37185 0.4132 0.0
C150 C 1.00682 0.30406 0.3939 0.0
O151 O 0.93541 0.41709 0.39626 0.0
O152 O 0.8932 0.40804 0.36805 0.0
C153 C 0.88306 0.32449 0.33233 0.0
Fe154 Fe 0.75253 0.95257 0.35891 0.0
Fe155 Fe 0.68227 0.97584 0.39045 0.0
O156 O 0.71216 0.93881 0.37708 0.0
Fe157 Fe 0.69925 0.88924 0.38216 0.0
O158 O 0.71645 0.86945 0.35226 0.0
O159 O 0.73978 0.92102 0.3335 0.0
O160 O 0.72382 0.99138 0.3441 0.0
C161 C 0.68664 0.99503 0.34291 0.0
C162 C 0.78036 0.89052 0.38839 0.0
O163 O 0.66465 0.98881 0.36092 0.0
C164 C 0.69295 0.92794 0.42838 0.0
O165 O 0.77217 0.98541 0.3819 0.0
O166 O 0.71782 1.01555 0.38968 0.0
O167 O 0.74698 0.87834 0.39521 0.0
O168 O 0.78483 0.91575 0.37177 0.0
C169 C 0.62586 0.92256 0.3786 0.0
O170 O 0.6995 0.96193 0.42002 0.0
O171 O 0.68337 0.89965 0.41413 0.0
C172 C 0.7545 1.01459 0.3903 0.0
O173 O 0.63923 0.94526 0.39431 0.0
O174 O 0.64937 0.89828 0.36876 0.0
C175 C 0.73221 0.88487 0.33362 0.0
Fe176 Fe 0.94673 0.73003 0.85412 0.0
Fe177 Fe 0.96404 0.66078 0.8873 0.0
O178 O 0.92965 0.6927 0.87344 0.0
Fe179 Fe 0.87918 0.68511 0.87923 0.0
O180 O 0.86138 0.7009 0.84885 0.0
O181 O 0.9152 0.7158 0.82896 0.0
O182 O 0.9844 0.69842 0.84081 0.0
C183 C 0.9874 0.66129 0.84046 0.0
C184 C 0.8854 0.76638 0.88106 0.0
O185 O 0.97668 0.64011 0.85804 0.0
C186 C 0.91762 0.67936 0.92532 0.0
O187 O 0.97993 0.74947 0.87721 0.0
O188 O 1.00598 0.6933 0.88574 0.0
O189 O 0.87236 0.73511 0.89061 0.0
O190 O 0.91127 0.76578 0.86459 0.0
C191 C 0.90596 0.60887 0.87708 0.0
O192 O 0.95185 0.68117 0.91643 0.0
O193 O 0.88816 0.67122 0.91172 0.0
C194 C 1.00731 0.72993 0.88642 0.0
O195 O 0.9299 0.62093 0.8924 0.0
O196 O 0.88361 0.63386 0.86716 0.0
C197 C 0.87836 0.7119 0.82944 0.0
Fe198 Fe 0.3303 0.89097 0.88099 0.0
Fe199 Fe 0.25471 0.93893 0.87811 0.0
O200 O 0.30543 0.93637 0.88377 0.0
Fe201 Fe 0.33062 0.97892 0.89315 0.0
O202 O 0.36358 0.97546 0.868 0.0
O203 O 0.37911 0.91385 0.87252 0.0
O204 O 0.31711 0.88612 0.84845 0.0
C205 C 0.28139 0.8855 0.84143 0.0
C206 C 0.35848 0.92002 0.92445 0.0
O207 O 0.25474 0.89916 0.85524 0.0
C208 C 0.26333 0.99377 0.91675 0.0
O209 O 0.2867 0.86129 0.88984 0.0
O210 O 0.24535 0.90598 0.90275 0.0
O211 O 0.36362 0.9528 0.91408 0.0
O212 O 0.34265 0.89197 0.91312 0.0
C213 C 0.28108 1.00396 0.85529 0.0
O214 O 0.24462 0.97995 0.89892 0.0
O215 O 0.29894 0.98579 0.91904 0.0
C216 C 0.25671 0.87096 0.90236 0.0
O217 O 0.26273 0.97203 0.85364 0.0
O218 O 0.30212 1.01206 0.87357 0.0
C219 C 0.38743 0.94826 0.86485 0.0
Fe220 Fe 0.12976 0.31817 0.88411 0.0
Fe221 Fe 0.0878 0.24076 0.86998 0.0
O222 O 0.0879 0.28748 0.88403 0.0
Fe223 Fe 0.04431 0.30477 0.89786 0.0
O224 O 0.05629 0.3563 0.89544 0.0
O225 O 0.10195 0.35822 0.86811 0.0
O226 O 0.14992 0.30068 0.85402 0.0
C227 C 0.13652 0.27803 0.83746 0.0
C228 C 0.09727 0.32311 0.93224 0.0
O229 O 0.10504 0.25955 0.84106 0.0
C230 C 0.03879 0.22485 0.90782 0.0
O231 O 0.15804 0.28108 0.89996 0.0
O232 O 0.13751 0.2289 0.87955 0.0
O233 O 0.06722 0.3029 0.92712 0.0
O234 O 0.11862 0.33786 0.91528 0.0
C235 C 0.02221 0.27945 0.85315 0.0
O236 O 0.07063 0.21627 0.8975 0.0
O237 O 0.02299 0.25727 0.90362 0.0
C238 C 0.15981 0.24497 0.89495 0.0
O239 O 0.03768 0.24696 0.85869 0.0
O240 O 0.02171 0.30717 0.86835 0.0
C241 C 0.07087 0.3729 0.87736 0.0
Fe242 Fe 0.74263 0.08354 0.85449 0.0
Fe243 Fe 0.6792 0.06368 0.89241 0.0
O244 O 0.70653 0.09861 0.87555 0.0
Fe245 Fe 0.69652 0.14878 0.88057 0.0
O246 O 0.71211 0.16645 0.85032 0.0
O247 O 0.72337 0.11325 0.82958 0.0
O248 O 0.71242 0.0427 0.84343 0.0
C249 C 0.67672 0.03318 0.84696 0.0
C250 C 0.77758 0.14487 0.88133 0.0
O251 O 0.65732 0.04437 0.86518 0.0
C252 C 0.69462 0.1165 0.92755 0.0
O253 O 0.76749 0.05277 0.8766 0.0
O254 O 0.71562 0.02498 0.89203 0.0
O255 O 0.74643 0.15658 0.89175 0.0
O256 O 0.77686 0.12207 0.86317 0.0
C257 C 0.62239 0.11673 0.88007 0.0
O258 O 0.70038 0.08183 0.92031 0.0
O259 O 0.68238 0.14231 0.9128 0.0
C260 C 0.75197 0.0254 0.88846 0.0
O261 O 0.6366 0.09497 0.89608 0.0
O262 O 0.64521 0.14079 0.86921 0.0
C263 C 0.72144 0.15016 0.83049 0.0
Fe264 Fe 0.93639 0.26643 0.67147 0.0
Fe265 Fe 0.97104 0.33188 0.63987 0.0
O266 O 0.93089 0.31148 0.65598 0.0
Fe267 Fe 0.8858 0.33757 0.65604 0.0
O268 O 0.86824 0.31968 0.68604 0.0
O269 O 0.91748 0.28579 0.70009 0.0
O270 O 0.98578 0.27857 0.68212 0.0
C271 C 1.0049 0.31055 0.68231 0.0
C272 C 0.86261 0.26095 0.64794 0.0
O273 O 0.99805 0.33794 0.66762 0.0
C274 C 0.91226 0.34126 0.60775 0.0
O275 O 0.9557 0.24076 0.64496 0.0
O276 O 0.99626 0.2866 0.63379 0.0
O277 O 0.86046 0.29653 0.64153 0.0
O278 O 0.88809 0.24864 0.66272 0.0
C279 C 0.93991 0.39756 0.66124 0.0
O280 O 0.94495 0.32541 0.61185 0.0
O281 O 0.89294 0.35736 0.62489 0.0
C282 C 0.98535 0.25161 0.63311 0.0
O283 O 0.95468 0.38227 0.64265 0.0
O284 O 0.91032 0.3807 0.67098 0.0
C285 C 0.88339 0.29941 0.70286 0.0
Fe286 Fe 0.77087 0.9296 0.66695 0.0
Fe287 Fe 0.69738 0.97051 0.64906 0.0
O288 O 0.72193 0.92654 0.65619 0.0
Fe289 Fe 0.69948 0.88023 0.65251 0.0
O290 O 0.70891 0.86591 0.68448 0.0
O291 O 0.77096 0.882 0.68255 0.0
O292 O 0.75312 0.95115 0.69457 0.0
C293 C 0.72901 0.97919 0.69479 0.0
C294 C 0.77654 0.87405 0.63237 0.0
O295 O 0.71971 0.99586 0.67507 0.0
C296 C 0.67639 0.91936 0.61075 0.0
O297 O 0.78227 0.97802 0.65403 0.0
O298 O 0.73553 0.98493 0.62804 0.0
O299 O 0.74632 0.85741 0.64175 0.0
O300 O 0.78778 0.90752 0.6394 0.0
C301 C 0.63596 0.93074 0.66912 0.0
O302 O 0.67146 0.95097 0.62245 0.0
O303 O 0.69003 0.8893 0.62083 0.0
C304 C 0.76886 0.9946 0.63539 0.0
O305 O 0.65743 0.96039 0.66901 0.0
O306 O 0.64858 0.89777 0.66109 0.0
C307 C 0.74366 0.86303 0.6927 0.0
Fe308 Fe 0.09596 0.78431 0.65757 0.0
Fe309 Fe 0.05394 0.70878 0.64447 0.0
O310 O 0.09803 0.73342 0.65129 0.0
Fe311 Fe 0.14359 0.70878 0.65132 0.0
O312 O 0.15454 0.72409 0.68312 0.0
O313 O 0.14098 0.78568 0.67592 0.0
O314 O 0.06958 0.77444 0.68519 0.0
C315 C 0.0399 0.75234 0.68596 0.0
C316 C 0.15663 0.7803 0.62613 0.0
O317 O 0.02606 0.73859 0.66638 0.0
C318 C 0.10727 0.67899 0.61005 0.0
O319 O 0.05021 0.79411 0.64077 0.0
O320 O 0.04422 0.74115 0.61944 0.0
O321 O 0.17026 0.75197 0.63871 0.0
O322 O 0.12281 0.79391 0.63023 0.0
C323 C 0.0885 0.65147 0.67075 0.0
O324 O 0.07538 0.6757 0.62172 0.0
O325 O 0.13723 0.69381 0.61989 0.0
C326 C 0.03547 0.77627 0.62284 0.0
O327 O 0.0603 0.67453 0.66855 0.0
O328 O 0.1225 0.66073 0.66251 0.0
C329 C 0.15685 0.76013 0.6893 0.0
Fe330 Fe 0.33312 0.04878 0.64392 0.0
Fe331 Fe 0.32521 0.13726 0.65388 0.0
O332 O 0.30442 0.08957 0.6524 0.0
Fe333 Fe 0.25415 0.08282 0.65848 0.0
O334 O 0.26513 0.05247 0.68381 0.0
O335 O 0.30783 1.01476 0.66472 0.0
O336 O 0.36596 0.05701 0.66854 0.0
C337 C 0.38771 0.08621 0.67042 0.0
C338 C 0.26702 0.02733 0.62085 0.0
O339 O 0.37605 0.11942 0.66242 0.0
C340 C 0.25015 0.14874 0.63232 0.0
O341 O 0.36327 0.07615 0.6219 0.0
O342 O 0.3377 0.13521 0.62172 0.0
O343 O 0.24749 0.03976 0.63877 0.0
O344 O 0.3022 0.03704 0.61854 0.0
C345 C 0.27573 0.14158 0.6935 0.0
O346 O 0.2789 0.16217 0.64458 0.0
O347 O 0.24201 0.11285 0.63296 0.0
C348 C 0.35546 0.10778 0.61089 0.0
O349 O 0.31153 0.1433 0.68643 0.0
O350 O 0.25063 0.12411 0.68025 0.0
C351 C 0.28644 0.02244 0.68298 0.0
H352 H 0.14906 0.20615 0.09852 0.0
H353 H 0.24461 0.24311 0.14442 0.0
H354 H 0.18361 0.14547 0.08929 0.0
H355 H 0.27945 0.18259 0.1349 0.0
H356 H 0.22028 0.02887 0.13288 0.0
H357 H 0.19283 0.09259 0.12215 0.0
H358 H 0.30844 0.13477 0.1035 0.0
H359 H 0.33583 0.07126 0.11385 0.0
C360 C 0.17823 0.20198 0.1058 0.0
C361 C 0.19395 0.22883 0.12255 0.0
C362 C 0.19781 0.16722 0.1006 0.0
C363 C 0.23365 0.1591 0.11179 0.0
C364 C 0.25175 0.18823 0.12602 0.0
C365 C 0.23196 0.22299 0.1314 0.0
C366 C 0.23958 0.05131 0.12575 0.0
C367 C 0.28022 0.04544 0.12477 0.0
C368 C 0.22393 0.08774 0.11954 0.0
C369 C 0.24875 0.11864 0.11232 0.0
C370 C 0.28885 0.11156 0.10929 0.0
C371 C 0.3044 0.07522 0.11528 0.0
H372 H 0.01979 0.1821 0.13546 0.0
H373 H 0.99194 0.29146 0.10023 0.0
H374 H 0.95275 0.16013 0.12971 0.0
H375 H 0.92462 0.26929 0.09448 0.0
H376 H 0.81006 0.24209 0.14267 0.0
H377 H 0.87475 0.26208 0.12759 0.0
H378 H 0.8969 0.14346 0.10383 0.0
H379 H 0.83288 0.12367 0.11942 0.0
C380 C 0.99973 0.20089 0.12573 0.0
C381 C 1.0109 0.23885 0.11891 0.0
C382 C 0.96125 0.18826 0.12233 0.0
C383 C 0.93324 0.2134 0.11207 0.0
C384 C 0.94548 0.24965 0.10281 0.0
C385 C 0.98413 0.26216 0.106 0.0
C386 C 0.8284 0.22083 0.1335 0.0
C387 C 0.81721 0.18144 0.13242 0.0
C388 C 0.86527 0.23214 0.12476 0.0
C389 C 0.89106 0.20411 0.11482 0.0
C390 C 0.87791 0.16549 0.11172 0.0
C391 C 0.84139 0.15421 0.12061 0.0
H392 H 0.92989 0.8481 0.11275 0.0
H393 H 0.81874 0.80822 0.14143 0.0
H394 H 0.90196 0.91242 0.10509 0.0
H395 H 0.79052 0.8727 0.13305 0.0
H396 H 0.84829 0.02529 0.147 0.0
H397 H 0.87866 0.96142 0.13963 0.0
H398 H 0.77763 0.92501 0.09839 0.0
H399 H 0.74772 0.98875 0.10505 0.0
C400 C 0.89913 0.85273 0.11678 0.0
C401 C 0.87662 0.82335 0.12815 0.0
C402 C 0.88332 0.88959 0.11243 0.0
C403 C 0.84445 0.89754 0.11885 0.0
C404 C 0.82069 0.86712 0.12794 0.0
C405 C 0.83672 0.8302 0.13264 0.0
C406 C 0.83324 1.00421 0.13564 0.0
C407 C 0.79535 1.0118 0.12702 0.0
C408 C 0.8505 0.96764 0.13148 0.0
C409 C 0.82998 0.93825 0.11882 0.0
C410 C 0.79368 0.94703 0.10849 0.0
C411 C 0.77673 0.98359 0.11231 0.0
H412 H 0.21795 0.91981 0.11645 0.0
H413 H 0.25792 0.80693 0.14084 0.0
H414 H 0.15499 0.89144 0.10513 0.0
H415 H 0.19413 0.77839 0.13025 0.0
H416 H 0.03909 0.84524 0.13974 0.0
H417 H 0.10457 0.87134 0.13353 0.0
H418 H 0.14065 0.76192 0.10105 0.0
H419 H 0.07449 0.73559 0.10744 0.0
C420 C 0.21348 0.88861 0.11876 0.0
C421 C 0.24246 0.86551 0.12965 0.0
C422 C 0.1774 0.87241 0.11242 0.0
C423 C 0.16923 0.83287 0.11728 0.0
C424 C 0.19955 0.80893 0.12618 0.0
C425 C 0.23606 0.82517 0.13226 0.0
C426 C 0.06065 0.82713 0.13064 0.0
C427 C 0.05172 0.7884 0.12417 0.0
C428 C 0.09824 0.8421 0.12697 0.0
C429 C 0.12798 0.81862 0.11688 0.0
C430 C 0.11844 0.78059 0.10902 0.0
C431 C 0.08049 0.76569 0.11246 0.0
H432 H 0.3096 0.98681 0.44664 0.0
H433 H 0.1905 1.00924 0.42396 0.0
H434 H 0.29209 0.91929 0.45593 0.0
H435 H 0.17293 0.94203 0.4341 0.0
H436 H 0.24322 0.81058 0.40339 0.0
H437 H 0.27142 0.87124 0.4193 0.0
H438 H 0.17181 0.88511 0.46692 0.0
H439 H 0.14402 0.82426 0.45131 0.0
C440 C 0.27927 0.97794 0.44461 0.0
C441 C 0.2515 1.00316 0.434 0.0
C442 C 0.26942 0.9392 0.44994 0.0
C443 C 0.2314 0.92549 0.44551 0.0
C444 C 0.2025 0.952 0.4378 0.0
C445 C 0.21253 0.99047 0.43192 0.0
C446 C 0.22868 0.82526 0.41832 0.0
C447 C 0.19127 0.81336 0.42587 0.0
C448 C 0.24468 0.86008 0.42739 0.0
C449 C 0.22322 0.8831 0.44394 0.0
C450 C 0.18864 0.86801 0.45402 0.0
C451 C 0.17288 0.83319 0.44514 0.0
H452 H 0.19516 0.1467 0.4369 0.0
H453 H 0.24433 0.23343 0.38862 0.0
H454 H 0.13443 0.18398 0.43931 0.0
H455 H 0.1836 0.27106 0.39143 0.0
H456 H 0.07337 0.33798 0.41114 0.0
H457 H 0.13572 0.30687 0.4199 0.0
H458 H 0.0848 0.19377 0.40447 0.0
H459 H 0.02194 0.2249 0.39534 0.0
C460 C 0.19346 0.17439 0.42742 0.0
C461 C 0.22429 0.18688 0.41225 0.0
C462 C 0.15859 0.19549 0.42869 0.0
C463 C 0.15413 0.22983 0.41516 0.0
C464 C 0.18635 0.24454 0.40201 0.0
C465 C 0.22122 0.22317 0.40053 0.0
C466 C 0.07514 0.30638 0.40983 0.0
C467 C 0.0427 0.28389 0.40221 0.0
C468 C 0.11097 0.2887 0.41484 0.0
C469 C 0.11508 0.24809 0.41273 0.0
C470 C 0.08224 0.22523 0.40639 0.0
C471 C 0.04634 0.24301 0.40107 0.0
H472 H 0.7274 0.07729 0.41589 0.0
H473 H 0.82993 0.03423 0.37833 0.0
H474 H 0.75879 0.14094 0.42086 0.0
H475 H 0.86075 0.09813 0.3824 0.0
H476 H 0.91834 0.21015 0.40007 0.0
H477 H 0.88918 0.14612 0.40729 0.0
H478 H 0.77395 0.19532 0.39589 0.0
H479 H 0.80346 0.25989 0.38984 0.0
C480 C 0.75684 0.08134 0.40889 0.0
C481 C 0.77609 0.05083 0.39653 0.0
C482 C 0.77471 0.11794 0.41158 0.0
C483 C 0.81214 0.12501 0.40179 0.0
C484 C 0.83212 0.0938 0.39048 0.0
C485 C 0.8144 0.05706 0.38803 0.0
C486 C 0.88669 0.20731 0.39966 0.0
C487 C 0.86306 0.23975 0.3943 0.0
C488 C 0.86998 0.17057 0.40358 0.0
C489 C 0.82924 0.16521 0.40171 0.0
C490 C 0.80541 0.19829 0.39769 0.0
C491 C 0.8222 0.23533 0.39419 0.0
H492 H 0.02194 0.86966 0.40086 0.0
H493 H 0.98637 0.76348 0.43731 0.0
H494 H 0.95549 0.89373 0.40303 0.0
H495 H 0.91952 0.78833 0.44033 0.0
H496 H 0.80421 0.81528 0.3966 0.0
H497 H 0.86903 0.7949 0.41068 0.0
H498 H 0.89989 0.91617 0.42334 0.0
H499 H 0.83623 0.93612 0.40788 0.0
C500 C 1.00017 0.85201 0.41013 0.0
C501 C 1.00931 0.81427 0.41836 0.0
C502 C 0.96186 0.86592 0.41151 0.0
C503 C 0.93176 0.84262 0.42143 0.0
C504 C 0.94177 0.8066 0.43202 0.0
C505 C 0.98023 0.79256 0.43054 0.0
C506 C 0.82479 0.83728 0.40282 0.0
C507 C 0.81588 0.87714 0.40078 0.0
C508 C 0.86181 0.82575 0.41107 0.0
C509 C 0.89007 0.85397 0.41779 0.0
C510 C 0.8794 0.8937 0.41769 0.0
C511 C 0.84293 0.90516 0.40894 0.0
H512 H 0.83104 0.78522 0.91659 0.0
H513 H 0.90285 0.83613 0.86011 0.0
H514 H 0.80282 0.84987 0.92479 0.0
H515 H 0.87401 0.89913 0.86746 0.0
H516 H 0.83192 1.01542 0.88765 0.0
H517 H 0.86764 0.95406 0.89222 0.0
H518 H 0.7585 0.89347 0.90633 0.0
H519 H 0.72341 0.95472 0.90307 0.0
C520 C 0.84088 0.81005 0.906 0.0
C521 C 0.869 0.80524 0.88759 0.0
C522 C 0.82467 0.8471 0.91062 0.0
C523 C 0.83613 0.87996 0.89682 0.0
C524 C 0.86497 0.87502 0.8789 0.0
C525 C 0.88126 0.83841 0.87447 0.0
C526 C 0.81575 0.9891 0.89219 0.0
C527 C 0.77479 0.98992 0.89459 0.0
C528 C 0.83613 0.95382 0.89468 0.0
C529 C 0.81591 0.91847 0.89916 0.0
C530 C 0.77524 0.91992 0.90307 0.0
C531 C 0.755 0.95521 0.90098 0.0
H532 H 0.02482 0.8085 0.88988 0.0
H533 H 0.07334 0.6932 0.90176 0.0
H534 H 0.08831 0.83749 0.9004 0.0
H535 H 0.13624 0.72219 0.91196 0.0
H536 H 0.24691 0.79678 0.88441 0.0
H537 H 0.18572 0.75957 0.88562 0.0
H538 H 0.13696 0.84307 0.93614 0.0
H539 H 0.1982 0.87997 0.93529 0.0
C540 C 0.04875 0.78943 0.89496 0.0
C541 C 0.04407 0.74861 0.89472 0.0
C542 C 0.08497 0.80596 0.90112 0.0
C543 C 0.11708 0.78192 0.90692 0.0
C544 C 0.11203 0.74128 0.90741 0.0
C545 C 0.07589 0.72482 0.90155 0.0
C546 C 0.22382 0.80623 0.89659 0.0
C547 C 0.22707 0.8416 0.90943 0.0
C548 C 0.18866 0.78512 0.89714 0.0
C549 C 0.15642 0.79916 0.9105 0.0
C550 C 0.16115 0.83218 0.92531 0.0
C551 C 0.19631 0.85302 0.92495 0.0
H552 H 0.30634 0.05196 0.93804 0.0
H553 H 0.18747 0.0187 0.92024 0.0
H554 H 0.28576 0.11989 0.94236 0.0
H555 H 0.1669 0.0866 0.92535 0.0
H556 H 0.2324 0.21681 0.88474 0.0
H557 H 0.26046 0.1571 0.90196 0.0
H558 H 0.16516 0.1511 0.95346 0.0
H559 H 0.13789 0.2115 0.93665 0.0
C560 C 0.27548 0.05871 0.93616 0.0
C561 C 0.24859 0.03004 0.92826 0.0
C562 C 0.26385 0.0977 0.93857 0.0
C563 C 0.22497 0.10838 0.93388 0.0
C564 C 0.1971 0.07901 0.92913 0.0
C565 C 0.20886 0.04014 0.92618 0.0
C566 C 0.21883 0.20385 0.90059 0.0
C567 C 0.18355 0.21872 0.90971 0.0
C568 C 0.2347 0.16972 0.91042 0.0
C569 C 0.21483 0.14963 0.92902 0.0
C570 C 0.18106 0.16624 0.93927 0.0
C571 C 0.16567 0.20078 0.92976 0.0
H572 H 0.02587 0.15212 0.88897 0.0
H573 H 0.98933 0.23079 0.94587 0.0
H574 H 0.96021 0.12388 0.88797 0.0
H575 H 0.92339 0.20404 0.94421 0.0
H576 H 0.80084 0.15383 0.92855 0.0
H577 H 0.86882 0.15809 0.94306 0.0
H578 H 0.90958 0.16239 0.86886 0.0
H579 H 0.84262 0.15754 0.8547 0.0
C580 C 1.00453 0.16176 0.90227 0.0
C581 C 1.01216 0.19438 0.91697 0.0
C582 C 0.96661 0.1462 0.90137 0.0
C583 C 0.93615 0.16329 0.91508 0.0
C584 C 0.9459 0.19067 0.93308 0.0
C585 C 0.98388 0.20585 0.93416 0.0
C586 C 0.82448 0.15646 0.9155 0.0
C587 C 0.81662 0.15559 0.89054 0.0
C588 C 0.86334 0.15826 0.92375 0.0
C589 C 0.89475 0.1592 0.90712 0.0
C590 C 0.88636 0.15999 0.88221 0.0
C591 C 0.84789 0.15806 0.87405 0.0
H592 H 0.83516 0.03039 0.65197 0.0
H593 H 0.73779 0.04712 0.60303 0.0
H594 H 0.85102 0.09983 0.64891 0.0
H595 H 0.7542 0.11686 0.60009 0.0
H596 H 0.85854 0.23185 0.60219 0.0
H597 H 0.83435 0.16579 0.59217 0.0
H598 H 0.78528 0.15572 0.66397 0.0
H599 H 0.80939 0.22112 0.67394 0.0
C600 C 0.81783 0.04852 0.64001 0.0
C601 C 0.78475 0.03328 0.62814 0.0
C602 C 0.82691 0.08824 0.63832 0.0
C603 C 0.80341 0.11337 0.62453 0.0
C604 C 0.77258 0.09782 0.61083 0.0
C605 C 0.76334 0.05794 0.61257 0.0
C606 C 0.84061 0.21628 0.61526 0.0
C607 C 0.83523 0.23149 0.6387 0.0
C608 C 0.82722 0.1785 0.60963 0.0
C609 C 0.80843 0.15595 0.62744 0.0
C610 C 0.79974 0.17277 0.65001 0.0
C611 C 0.8131 0.21025 0.65561 0.0
H612 H 1.00631 0.8507 0.62416 0.0
H613 H 0.98062 0.73421 0.59768 0.0
H614 H 0.93887 0.86999 0.61593 0.0
H615 H 0.91298 0.75346 0.59006 0.0
H616 H 0.7988 0.79759 0.63745 0.0
H617 H 0.86239 0.77154 0.62465 0.0
H618 H 0.88433 0.87645 0.58328 0.0
H619 H 0.8208 0.90223 0.59583 0.0
C620 C 0.98666 0.82958 0.61594 0.0
C621 C 0.99871 0.79085 0.61196 0.0
C622 C 0.94806 0.84061 0.61115 0.0
C623 C 0.92072 0.81299 0.60258 0.0
C624 C 0.93348 0.77515 0.59679 0.0
C625 C 0.97229 0.7643 0.60112 0.0
C626 C 0.81629 0.81407 0.6246 0.0
C627 C 0.80533 0.85206 0.61789 0.0
C628 C 0.85275 0.79929 0.61734 0.0
C629 C 0.87845 0.82246 0.60338 0.0
C630 C 0.86523 0.85832 0.59427 0.0
C631 C 0.82886 0.87292 0.60139 0.0
H632 H 0.23389 0.79787 0.63365 0.0
H633 H 0.1364 0.82053 0.58603 0.0
H634 H 0.26554 0.85801 0.61981 0.0
H635 H 0.16787 0.88074 0.57235 0.0
H636 H 0.31123 0.97292 0.59687 0.0
H637 H 0.2907 0.90658 0.58634 0.0
H638 H 0.17116 0.93612 0.60453 0.0
H639 H 0.19164 1.00208 0.61563 0.0
C640 C 0.22027 0.81455 0.61929 0.0
C641 C 0.18239 0.80523 0.6113 0.0
C642 C 0.23833 0.84905 0.61136 0.0
C643 C 0.21859 0.87435 0.59543 0.0
C644 C 0.18337 0.86195 0.58487 0.0
C645 C 0.16545 0.82752 0.59269 0.0
C646 C 0.28032 0.96572 0.59783 0.0
C647 C 0.25304 0.99247 0.60756 0.0
C648 C 0.26871 0.92769 0.59182 0.0
C649 C 0.22953 0.91622 0.59482 0.0
C650 C 0.20159 0.94429 0.60189 0.0
C651 C 0.21329 0.98203 0.60837 0.0
H652 H 0.21531 0.2045 0.65976 0.0
H653 H 0.20822 0.14523 0.59081 0.0
H654 H 0.14651 0.2236 0.65619 0.0
H655 H 0.13949 0.16496 0.58701 0.0
H656 H 0.02457 0.24938 0.59049 0.0
H657 H 0.09262 0.22757 0.58633 0.0
H658 H 0.08588 0.17437 0.65705 0.0
H659 H 0.01773 0.19551 0.66096 0.0
C660 C 0.19965 0.19738 0.64327 0.0
C661 C 0.21707 0.17377 0.62544 0.0
C662 C 0.16008 0.20748 0.64148 0.0
C663 C 0.13761 0.1947 0.62164 0.0
C664 C 0.15614 0.17477 0.60257 0.0
C665 C 0.19554 0.16406 0.60457 0.0
C666 C 0.03701 0.23104 0.60449 0.0
C667 C 1.01587 0.22369 0.62592 0.0
C668 C 0.07607 0.21919 0.60229 0.0
C669 C 0.09462 0.20043 0.62169 0.0
C670 C 0.0723 0.18955 0.64205 0.0
C671 C 0.03304 0.20076 0.64405 0.0
H672 H 0.22863 0.23777 0.1981 0.0
H673 H 0.15217 0.30386 0.24487 0.0
H674 H 0.25921 0.2073 0.23343 0.0
H675 H 0.18222 0.27291 0.28039 0.0
H676 H 0.20598 0.16984 0.3335 0.0
H677 H 0.18251 0.2078 0.29929 0.0
H678 H 0.30009 0.21378 0.27066 0.0
H679 H 0.32398 0.17567 0.30545 0.0
C680 C 0.21906 0.24672 0.21601 0.0
C681 C 0.18841 0.2742 0.21842 0.0
C682 C 0.23658 0.22899 0.2364 0.0
C683 C 0.22339 0.23711 0.26013 0.0
C684 C 0.19329 0.26541 0.26258 0.0
C685 C 0.17628 0.28376 0.24213 0.0
C686 C 0.22718 0.17913 0.32003 0.0
C687 C 0.26719 0.1691 0.32258 0.0
C688 C 0.21355 0.20146 0.30032 0.0
C689 C 0.23909 0.21448 0.28189 0.0
C690 C 0.27919 0.20438 0.28426 0.0
C691 C 0.29305 0.18247 0.30435 0.0
H692 H 0.80917 0.29253 0.33536 0.0
H693 H 0.90303 0.31108 0.28419 0.0
H694 H 0.77382 0.25314 0.3052 0.0
H695 H 0.86668 0.27307 0.25364 0.0
H696 H 0.76152 0.23827 0.20015 0.0
H697 H 0.79483 0.27874 0.23046 0.0
H698 H 0.79079 0.183 0.28101 0.0
H699 H 0.75882 0.14156 0.25017 0.0
C700 C 0.82189 0.2892 0.31747 0.0
C701 C 0.85892 0.30592 0.31229 0.0
C702 C 0.80171 0.26607 0.30021 0.0
C703 C 0.8172 0.25961 0.27683 0.0
C704 C 0.85362 0.27734 0.27135 0.0
C705 C 0.87444 0.29943 0.28889 0.0
C706 C 0.76722 0.22571 0.21778 0.0
C707 C 0.75675 0.18638 0.22254 0.0
C708 C 0.78676 0.24903 0.23517 0.0
C709 C 0.7957 0.23445 0.25835 0.0
C710 C 0.78435 0.19547 0.26345 0.0
C711 C 0.76586 0.17163 0.24573 0.0
H712 H 0.89607 0.81818 0.22218 0.0
H713 H 0.82445 0.7139 0.22106 0.0
H714 H 0.85495 0.84628 0.25324 0.0
H715 H 0.78247 0.74278 0.25313 0.0
H716 H 0.74356 0.80378 0.32983 0.0
H717 H 0.77833 0.76759 0.29761 0.0
H718 H 0.79034 0.87455 0.25695 0.0
H719 H 0.75607 0.91024 0.2887 0.0
C720 C 0.87148 0.80084 0.2285 0.0
C721 C 0.86401 0.7634 0.21845 0.0
C722 C 0.84742 0.81743 0.2465 0.0
C723 C 0.81444 0.79759 0.25578 0.0
C724 C 0.80739 0.75937 0.24657 0.0
C725 C 0.83161 0.74265 0.22809 0.0
C726 C 0.75284 0.81946 0.31378 0.0
C727 C 0.74678 0.86038 0.31228 0.0
C728 C 0.77303 0.79858 0.29521 0.0
C729 C 0.78822 0.81788 0.27454 0.0
C730 C 0.78025 0.85834 0.27262 0.0
C731 C 0.76009 0.87901 0.29097 0.0
H732 H 0.28528 0.92095 0.24331 0.0
H733 H 0.3065 0.80952 0.20901 0.0
H734 H 0.25429 0.88827 0.2773 0.0
H735 H 0.27378 0.77625 0.24308 0.0
H736 H 0.22957 0.72751 0.31964 0.0
H737 H 0.2677 0.75485 0.28541 0.0
H738 H 0.19569 0.85851 0.28729 0.0
H739 H 0.15916 0.83212 0.32097 0.0
C740 C 0.28364 0.88928 0.24299 0.0
C741 C 0.29879 0.8683 0.223 0.0
C742 C 0.26513 0.87025 0.2626 0.0
C743 C 0.26005 0.82912 0.26319 0.0
C744 C 0.27673 0.8078 0.24368 0.0
C745 C 0.29574 0.82701 0.22399 0.0
C746 C 0.22179 0.756 0.31261 0.0
C747 C 0.19121 0.77752 0.32368 0.0
C748 C 0.2438 0.7719 0.29286 0.0
C749 C 0.23598 0.80982 0.2835 0.0
C750 C 0.20427 0.8301 0.29408 0.0
C751 C 0.18273 0.81452 0.31358 0.0
H752 H 0.71425 0.85054 0.7394 0.0
H753 H 0.80215 0.8098 0.68927 0.0
H754 H 0.74414 0.81104 0.77162 0.0
H755 H 0.83075 0.76916 0.72056 0.0
H756 H 0.90568 0.73875 0.78557 0.0
H757 H 0.8704 0.77146 0.75351 0.0
H758 H 0.76138 0.75268 0.79179 0.0
H759 H 0.7975 0.72101 0.82467 0.0
C760 C 0.73921 0.83228 0.73503 0.0
C761 C 0.75556 0.83343 0.71156 0.0
C762 C 0.75664 0.8095 0.75361 0.0
C763 C 0.79084 0.78689 0.74929 0.0
C764 C 0.80553 0.78674 0.72534 0.0
C765 C 0.78861 0.80979 0.70706 0.0
C766 C 0.87411 0.74097 0.78718 0.0
C767 C 0.85483 0.72662 0.808 0.0
C768 C 0.85348 0.75983 0.76846 0.0
C769 C 0.81237 0.76511 0.76946 0.0
C770 C 0.79287 0.74996 0.79009 0.0
C771 C 0.81367 0.73113 0.80897 0.0
H772 H 0.16741 0.83617 0.70307 0.0
H773 H 0.19798 0.71948 0.72604 0.0
H774 H 0.20016 0.86356 0.73787 0.0
H775 H 0.23141 0.74777 0.76181 0.0
H776 H 0.31616 0.82529 0.81371 0.0
H777 H 0.28886 0.79209 0.7776 0.0
H778 H 0.18802 0.86785 0.78078 0.0
H779 H 0.21482 0.90041 0.81612 0.0
C780 C 0.1811 0.81596 0.71552 0.0
C781 C 0.17933 0.77511 0.71132 0.0
C782 C 0.20002 0.83201 0.73582 0.0
C783 C 0.21841 0.80827 0.75321 0.0
C784 C 0.21781 0.76731 0.74893 0.0
C785 C 0.1984 0.75096 0.72838 0.0
C786 C 0.28838 0.83509 0.80651 0.0
C787 C 0.26806 0.86601 0.81806 0.0
C788 C 0.27241 0.81568 0.78588 0.0
C789 C 0.23597 0.82704 0.77587 0.0
C790 C 0.21621 0.85816 0.78743 0.0
C791 C 0.23173 0.87698 0.80798 0.0
H792 H 0.10873 0.25285 0.79355 0.0
H793 H 0.21775 0.27534 0.8302 0.0
H794 H 0.14396 0.22343 0.75987 0.0
H795 H 0.25364 0.24434 0.79652 0.0
H796 H 0.30925 0.20199 0.72199 0.0
H797 H 0.27827 0.23894 0.75538 0.0
H798 H 0.17511 0.16635 0.74907 0.0
H799 H 0.2052 0.13084 0.71605 0.0
C800 C 0.14043 0.25199 0.79438 0.0
C801 C 0.15996 0.26702 0.81491 0.0
C802 C 0.16095 0.23432 0.77499 0.0
C803 C 0.20222 0.23 0.77519 0.0
C804 C 0.22208 0.24673 0.79525 0.0
C805 C 0.20137 0.26488 0.8147 0.0
C806 C 0.28005 0.1938 0.72784 0.0
C807 C 0.26001 0.16318 0.71578 0.0
C808 C 0.26205 0.21515 0.74715 0.0
C809 C 0.2233 0.20677 0.75512 0.0
C810 C 0.20418 0.17529 0.74343 0.0
C811 C 0.22192 0.15429 0.72432 0.0
H812 H 0.80405 0.28474 0.70193 0.0
H813 H 0.90439 0.2741 0.74875 0.0
H814 H 0.76381 0.24908 0.73151 0.0
H815 H 0.86349 0.23999 0.77886 0.0
H816 H 0.75929 0.22057 0.83563 0.0
H817 H 0.79746 0.25752 0.80585 0.0
H818 H 0.76689 0.17343 0.75079 0.0
H819 H 0.72977 0.13511 0.781 0.0
C820 C 0.81743 0.27572 0.71878 0.0
C821 C 0.85768 0.28306 0.72288 0.0
C822 C 0.79431 0.25477 0.73568 0.0
C823 C 0.8102 0.24136 0.75768 0.0
C824 C 0.85007 0.24982 0.7622 0.0
C825 C 0.87356 0.26965 0.74493 0.0
C826 C 0.76009 0.20997 0.81713 0.0
C827 C 0.74065 0.17476 0.81089 0.0
C828 C 0.78245 0.23116 0.80004 0.0
C829 C 0.78548 0.2187 0.77579 0.0
C830 C 0.76519 0.18414 0.76924 0.0
C831 C 0.74374 0.16215 0.78659 0.0
H832 H 0.17755 0.33908 0.08161 0.0
H833 H 0.05893 0.38319 0.08353 0.0
H834 H 0.17543 0.3378 0.03738 0.0
H835 H 0.05715 0.38238 0.03943 0.0
H836 H 0.04604 0.31147 0.96938 0.0
H837 H 0.05381 0.32646 1.01184 0.0
H838 H 0.16895 0.37405 0.99767 0.0
H839 H 0.1612 0.35871 0.95432 0.0
C840 C 0.15136 0.34948 0.07265 0.0
C841 C 0.11822 0.36083 0.08627 0.0
C842 C 0.15023 0.34881 0.04723 0.0
C843 C 0.11592 0.35938 0.03482 0.0
C844 C 0.08382 0.37331 0.04841 0.0
C845 C 0.08492 0.374 0.07375 0.0
C846 C 0.0731 0.32532 0.97505 0.0
C847 C 0.10303 0.33387 0.95822 0.0
C848 C 0.07737 0.33428 0.99956 0.0
C849 C 0.11179 0.35192 1.00824 0.0
C850 C 0.142 0.36049 0.99156 0.0
C851 C 0.13754 0.35183 0.96673 0.0
H852 H 0.76065 0.1232 0.07824 0.0
H853 H 0.64136 0.16487 0.07896 0.0
H854 H 0.76186 0.12655 0.03421 0.0
H855 H 0.64203 0.16733 0.0344 0.0
H856 H 0.66886 0.18205 0.95188 0.0
H857 H 0.67169 0.19463 0.99561 0.0
H858 H 0.72798 0.08279 1.00597 0.0
H859 H 0.72558 0.07043 0.96272 0.0
C860 C 0.73493 0.13389 0.06887 0.0
C861 C 0.70083 0.1435 0.08181 0.0
C862 C 0.7355 0.13554 0.04368 0.0
C863 C 0.70175 0.14626 0.03082 0.0
C864 C 0.66849 0.15893 0.04385 0.0
C865 C 0.66806 0.15763 0.06928 0.0
C866 C 0.68203 0.16031 0.96353 0.0
C867 C 0.69695 0.12519 0.95382 0.0
C868 C 0.68347 0.16747 0.98855 0.0
C869 C 0.70033 0.13988 1.0042 0.0
C870 C 0.71543 0.10499 0.99438 0.0
C871 C 0.71376 0.09774 0.96955 0.0
H872 H 0.85365 0.66177 0.95472 0.0
H873 H 0.97423 0.70071 0.95725 0.0
H874 H 0.8521 0.66033 0.99931 0.0
H875 H 0.97252 0.69935 1.001 0.0
H876 H 0.97644 0.65188 0.07591 0.0
H877 H 0.97008 0.64836 0.03213 0.0
H878 H 0.85696 0.70436 0.0366 0.0
H879 H 0.86304 0.7076 0.08078 0.0
C880 C 0.87965 0.6702 0.96468 0.0
C881 C 0.91419 0.68081 0.95226 0.0
C882 C 0.87876 0.66941 0.9902 0.0
C883 C 0.91246 0.67896 1.00374 0.0
C884 C 0.94636 0.69076 0.99123 0.0
C885 C 0.94721 0.69172 0.966 0.0
C886 C 0.94993 0.66309 0.06772 0.0
C887 C 0.92046 0.6804 0.08201 0.0
C888 C 0.94637 0.66123 0.04252 0.0
C889 C 0.91329 0.67668 0.03077 0.0
C890 C 0.88279 0.69214 0.04506 0.0
C891 C 0.88636 0.69406 0.0704 0.0
H892 H 0.38145 0.86005 0.08075 0.0
H893 H 0.36117 0.98431 0.0735 0.0
H894 H 0.38517 0.85439 0.03631 0.0
H895 H 0.36413 0.97857 0.03008 0.0
H896 H 0.40016 0.97052 0.95336 0.0
H897 H 0.40768 0.96852 0.99717 0.0
H898 H 0.34489 0.85869 0.99953 0.0
H899 H 0.33832 0.86015 0.95545 0.0
C900 C 0.37799 0.8861 0.06983 0.0
C901 C 0.37126 0.92262 0.08099 0.0
C902 C 0.37992 0.88287 0.04432 0.0
C903 C 0.37545 0.91613 0.0294 0.0
C904 C 0.36876 0.95239 0.04072 0.0
C905 C 0.36673 0.95558 0.06591 0.0
C906 C 0.38852 0.94555 0.9631 0.0
C907 C 0.3684 0.91566 0.95071 0.0
C908 C 0.39255 0.94452 0.98837 0.0
C909 C 0.37625 0.91378 1.00217 0.0
C910 C 0.358 0.88277 0.98966 0.0
C911 C 0.35416 0.88368 0.96429 0.0
H912 H 0.16916 0.70997 0.46036 0.0
H913 H 0.05685 0.65233 0.45436 0.0
H914 H 0.16825 0.70031 0.5038 0.0
H915 H 0.05669 0.64065 0.49798 0.0
H916 H 0.04533 0.67387 0.57881 0.0
H917 H 0.04736 0.67168 0.53484 0.0
H918 H 0.17358 0.66063 0.53716 0.0
H919 H 0.17145 0.66512 0.58118 0.0
C920 C 0.14463 0.69428 0.46824 0.0
C921 C 0.11307 0.68197 0.45372 0.0
C922 C 0.14416 0.68849 0.49335 0.0
C923 C 0.11236 0.66963 0.50483 0.0
C924 C 0.08142 0.65597 0.4901 0.0
C925 C 0.08163 0.66233 0.46495 0.0
C926 C 0.07348 0.67021 0.56997 0.0
C927 C 0.10824 0.66979 0.58363 0.0
C928 C 0.0747 0.66887 0.54457 0.0
C929 C 0.1107 0.66646 0.53203 0.0
C930 C 0.14529 0.66362 0.54588 0.0
C931 C 0.1441 0.6657 0.57126 0.0
H932 H 0.40567 0.06778 0.4561 0.0
H933 H 0.32724 0.1666 0.45916 0.0
H934 H 0.41176 0.06929 0.50008 0.0
H935 H 0.33144 0.16699 0.50307 0.0
H936 H 0.35661 0.17419 0.5827 0.0
H937 H 0.36396 0.17857 0.53885 0.0
H938 H 0.37885 0.05301 0.53507 0.0
H939 H 0.37362 0.04919 0.57886 0.0
C940 C 0.38993 0.09006 0.46615 0.0
C941 C 0.36608 0.11714 0.45395 0.0
C942 C 0.39301 0.09069 0.49153 0.0
C943 C 0.37176 0.11798 0.5056 0.0
C944 C 0.34888 0.14583 0.49321 0.0
C945 C 0.34632 0.14558 0.46783 0.0
C946 C 0.36219 0.14762 0.57252 0.0
C947 C 0.36466 0.11137 0.58447 0.0
C948 C 0.36598 0.15002 0.5472 0.0
C949 C 0.37165 0.11613 0.53293 0.0
C950 C 0.3752 0.08002 0.54509 0.0
C951 C 0.37204 0.07774 0.57041 0.0
H952 H 0.95923 0.32345 0.4612 0.0
H953 H 0.85142 0.38879 0.45462 0.0
H954 H 0.94942 0.31847 0.50442 0.0
H955 H 0.84129 0.38332 0.49871 0.0
H956 H 0.88244 0.40389 0.58239 0.0
H957 H 0.87496 0.4076 0.53808 0.0
H958 H 0.90452 0.28501 0.53233 0.0
H959 H 0.91317 0.28184 0.57601 0.0
C960 C 0.93321 0.33667 0.46898 0.0
C961 C 0.90618 0.35666 0.45441 0.0
C962 C 0.92741 0.33348 0.49383 0.0
C963 C 0.89435 0.35014 0.50499 0.0
C964 C 0.86703 0.37019 0.49056 0.0
C965 C 0.87273 0.37314 0.46538 0.0
C966 C 0.88633 0.37767 0.57158 0.0
C967 C 0.89903 0.34276 0.58239 0.0
C968 C 0.88199 0.37972 0.54629 0.0
C969 C 0.88999 0.34677 0.53171 0.0
C970 C 0.89908 0.31112 0.543 0.0
C971 C 0.90393 0.30925 0.56799 0.0
H972 H 0.65443 0.97961 0.58082 0.0
H973 H 0.68507 0.85688 0.58008 0.0
H974 H 0.65483 0.97993 0.53663 0.0
H975 H 0.68645 0.85754 0.53606 0.0
H976 H 0.66118 0.86682 0.45451 0.0
H977 H 0.65082 0.86371 0.49838 0.0
H978 H 0.70567 0.97712 0.50633 0.0
H979 H 0.71534 0.98053 0.46286 0.0
C980 C 0.66067 0.95256 0.57129 0.0
C981 C 0.66997 0.91833 0.58411 0.0
C982 C 0.6613 0.95282 0.54592 0.0
C983 C 0.67132 0.9189 0.53273 0.0
C984 C 0.67844 0.88415 0.54554 0.0
C985 C 0.67775 0.88386 0.57088 0.0
C986 C 0.67115 0.89097 0.46567 0.0
C987 C 0.68891 0.92399 0.45508 0.0
C988 C 0.66519 0.88923 0.49082 0.0
C989 C 0.67689 0.92044 0.50592 0.0
C990 C 0.69532 0.953 0.49528 0.0
C991 C 0.70121 0.95476 0.47028 0.0
H992 H 0.97777 0.30964 0.21264 0.0
H993 H 0.10252 0.32911 0.21497 0.0
H994 H 0.96994 0.35118 0.24839 0.0
H995 H 0.09517 0.37308 0.24881 0.0
H996 H 0.0684 0.36443 0.33117 0.0
H997 H 0.08498 0.36015 0.28876 0.0
H998 H 0.97203 0.40938 0.27016 0.0
H999 H 0.95444 0.40904 0.31266 0.0
C1000 C 1.00334 0.32327 0.22068 0.0
C1001 C 0.04086 0.31498 0.21197 0.0
C1002 C 0.999 0.34781 0.24076 0.0
C1003 C 0.03217 0.36528 0.2517 0.0
C1004 C 0.06922 0.35919 0.24145 0.0
C1005 C 0.07351 0.33372 0.22215 0.0
C1006 C 0.0482 0.37635 0.318 0.0
C1007 C 1.01056 0.38771 0.32493 0.0
C1008 C 0.05753 0.37401 0.29355 0.0
C1009 C 0.0291 0.38319 0.27596 0.0
C1010 C 0.99401 0.40103 0.28329 0.0
C1011 C 0.98434 0.40225 0.30772 0.0
H1012 H 0.66618 0.92867 0.32094 0.0
H1013 H 0.66852 0.05406 0.31196 0.0
H1014 H 0.65715 0.91994 0.27739 0.0
H1015 H 0.65639 0.04545 0.2685 0.0
H1016 H 0.75279 1.00053 0.2167 0.0
H1017 H 0.72881 0.97216 0.25426 0.0
H1018 H 0.60953 0.98562 0.23002 0.0
H1019 H 0.6336 1.01056 0.19118 0.0
C1020 C 0.66319 0.9543 0.30963 0.0
C1021 C 0.66905 0.99196 0.31918 0.0
C1022 C 0.6571 0.94922 0.285 0.0
C1023 C 0.65585 0.98201 0.27006 0.0
C1024 C 0.65663 0.01989 0.28011 0.0
C1025 C 0.66397 0.0249 0.3047 0.0
C1026 C 0.72156 0.99579 0.21886 0.0
C1027 C 0.69469 1.0104 0.20203 0.0
C1028 C 0.7079 0.9791 0.24015 0.0
C1029 C 0.66751 0.97821 0.24488 0.0
C1030 C 0.64079 0.9868 0.22657 0.0
C1031 C 0.65457 1.00186 0.20476 0.0
H1032 H 0.10863 0.72295 0.3252 0.0
H1033 H 0.98432 0.74524 0.32513 0.0
H1034 H 0.10301 0.68451 0.28862 0.0
H1035 H 0.97852 0.70917 0.28711 0.0
H1036 H 0.96761 0.67204 0.21763 0.0
H1037 H 0.98339 0.65596 0.25944 0.0
H1038 H 0.09578 0.71368 0.25062 0.0
H1039 H 0.08051 0.7271 0.20862 0.0
C1040 C 0.08007 0.71977 0.31715 0.0
C1041 C 0.04715 0.73845 0.32711 0.0
C1042 C 0.07678 0.69731 0.29639 0.0
C1043 C 0.04068 0.6946 0.28459 0.0
C1044 C 1.00691 0.71044 0.29579 0.0
C1045 C 1.01014 0.7319 0.3172 0.0
C1046 C 0.99655 0.67902 0.22448 0.0
C1047 C 0.02278 0.70136 0.21067 0.0
C1048 C 1.00549 0.67005 0.24832 0.0
C1049 C 0.03989 0.68513 0.25859 0.0
C1050 C 0.06873 0.70191 0.2434 0.0
C1051 C 0.06007 0.71003 0.21936 0.0
H1052 H 0.23905 0.01584 0.31939 0.0
H1053 H 0.35152 0.9837 0.34924 0.0
H1054 H 0.26462 1.00509 0.2787 0.0
H1055 H 0.37719 0.97372 0.30833 0.0
H1056 H 0.37843 0.94254 0.22081 0.0
H1057 H 0.36463 0.93764 0.26413 0.0
H1058 H 0.32011 0.05588 0.26366 0.0
H1059 H 0.33437 0.06083 0.22036 0.0
C1060 C 0.26868 1.00492 0.31727 0.0
C1061 C 0.29372 1.00185 0.33725 0.0
C1062 C 0.28339 0.99924 0.29408 0.0
C1063 C 0.32317 0.99043 0.29074 0.0
C1064 C 0.34658 0.98129 0.31071 0.0
C1065 C 0.33174 0.98673 0.33404 0.0
C1066 C 0.3683 0.96836 0.23038 0.0
C1067 C 0.35847 1.00254 0.21766 0.0
C1068 C 0.35972 0.96521 0.25497 0.0
C1069 C 0.34061 0.99603 0.26675 0.0
C1070 C 0.33432 0.03155 0.25459 0.0
C1071 C 0.34301 0.0347 0.23006 0.0
H1072 H 0.09722 0.72125 0.71285 0.0
H1073 H 0.97148 0.72877 0.70715 0.0
H1074 H 0.09142 0.67549 0.74563 0.0
H1075 H 0.96485 0.68689 0.74255 0.0
H1076 H 0.94856 0.62506 0.80446 0.0
H1077 H 0.96781 0.6295 0.7626 0.0
H1078 H 0.0801 0.67649 0.78518 0.0
H1079 H 0.06258 0.66556 0.82682 0.0
C1080 C 0.06821 0.71397 0.71922 0.0
C1081 C 0.03477 0.72922 0.70796 0.0
C1082 C 0.06481 0.68755 0.73809 0.0
C1083 C 0.02776 0.67746 0.74721 0.0
C1084 C 0.99406 0.6929 0.73582 0.0
C1085 C 0.99761 0.71783 0.71595 0.0
C1086 C 0.97879 0.63204 0.8005 0.0
C1087 C 1.00445 0.6442 0.81881 0.0
C1088 C 0.98934 0.63648 0.77633 0.0
C1089 C 0.02438 0.65589 0.77039 0.0
C1090 C 0.05247 0.662 0.78873 0.0
C1091 C 0.0426 0.65562 0.81284 0.0
H1092 H 0.35403 0.0223 0.70759 0.0
H1093 H 0.23392 0.98349 0.71085 0.0
H1094 H 0.35527 0.0299 0.75086 0.0
H1095 H 0.23633 0.98515 0.75482 0.0
H1096 H 0.22383 0.03253 0.82646 0.0
H1097 H 0.23006 0.03307 0.78264 0.0
H1098 H 0.35542 1.01578 0.78981 0.0
H1099 H 0.34904 0.02158 0.83313 0.0
C1100 C 0.32862 1.01299 0.71779 0.0
C1101 C 0.29359 1.00336 0.70603 0.0
C1102 C 0.32912 0.01761 0.74281 0.0
C1103 C 0.29505 1.01038 0.75652 0.0
C1104 C 0.26228 0.99373 0.74482 0.0
C1105 C 0.26124 0.99114 0.71967 0.0
C1106 C 0.25284 0.03147 0.81842 0.0
C1107 C 0.28589 0.0258 0.8329 0.0
C1108 C 0.25642 0.03012 0.79333 0.0
C1109 C 0.29287 0.02136 0.78253 0.0
C1110 C 0.3266 0.0216 0.79716 0.0
C1111 C 0.3231 0.02514 0.82219 0.0
H1112 H 0.05868 0.26151 0.70148 0.0
H1113 H 1.00413 0.37449 0.71063 0.0
H1114 H 0.07176 0.25882 0.74484 0.0
H1115 H 1.01477 0.37105 0.75385 0.0
H1116 H 1.00854 0.22995 0.81539 0.0
H1117 H 0.01976 0.24414 0.7727 0.0
H1118 H 0.04738 0.36437 0.79085 0.0
H1119 H 0.03374 0.35062 0.83281 0.0
C1120 C 0.05128 0.28655 0.71268 0.0
C1121 C 0.02967 0.31774 0.70319 0.0
C1122 C 0.05804 0.28475 0.73746 0.0
C1123 C 0.04234 0.3137 0.75275 0.0
C1124 C 0.02677 0.34799 0.74258 0.0
C1125 C 0.02089 0.35018 0.71773 0.0
C1126 C 1.01594 0.25958 0.81006 0.0
C1127 C 0.01975 0.28931 0.8274 0.0
C1128 C 0.02339 0.26756 0.78577 0.0
C1129 C 0.03563 0.30519 0.77855 0.0
C1130 C 0.03811 0.33511 0.79582 0.0
C1131 C 0.02975 0.32732 0.81992 0.0
H1132 H 0.61342 0.05151 0.82038 0.0
H1133 H 0.69987 0.96205 0.83178 0.0
H1134 H 0.60051 0.02642 0.78001 0.0
H1135 H 0.68819 0.93702 0.79145 0.0
H1136 H 0.69934 0.91706 0.71849 0.0
H1137 H 0.65798 0.91684 0.75413 0.0
H1138 H 0.65399 0.04339 0.75201 0.0
H1139 H 0.69378 0.04307 0.71515 0.0
C1140 C 0.62763 0.02493 0.81484 0.0
C1141 C 0.65786 1.009 0.82872 0.0
C1142 C 0.62055 1.01067 0.79164 0.0
C1143 C 0.6444 0.98088 0.78226 0.0
C1144 C 0.66951 0.9604 0.79798 0.0
C1145 C 0.67659 0.97482 0.82108 0.0
C1146 C 0.68916 0.94477 0.72544 0.0
C1147 C 0.70132 0.98028 0.71501 0.0
C1148 C 0.66487 0.94455 0.74558 0.0
C1149 C 0.65357 0.97997 0.75621 0.0
C1150 C 0.66217 1.01545 0.74421 0.0
C1151 C 0.68571 1.01552 0.7235 0.0
H1152 H 0.10067 0.45175 0.14034 0.0
H1153 H 0.05255 0.41827 0.20937 0.0
H1154 H 0.05757 0.50919 0.13985 0.0
H1155 H 1.0097 0.47515 0.20911 0.0
H1156 H 0.96017 0.60332 0.20722 0.0
H1157 H 1.00169 0.54546 0.21082 0.0
H1158 H 0.98787 0.52298 0.1344 0.0
H1159 H 0.94661 0.58117 0.13097 0.0
C1160 C 0.08236 0.45759 0.15599 0.0
C1161 C 0.08136 0.43076 0.17532 0.0
C1162 C 0.05668 0.49005 0.15545 0.0
C1163 C 0.02927 0.49689 0.17427 0.0
C1164 C 0.0302 0.47141 0.19428 0.0
C1165 C 0.05543 0.43884 0.19464 0.0
C1166 C 0.9642 0.58491 0.19143 0.0
C1167 C 0.9487 0.59661 0.16894 0.0
C1168 C 0.9888 0.55189 0.19338 0.0
C1169 C 0.99931 0.52963 0.1728 0.0
C1170 C 0.98144 0.53964 0.15064 0.0
C1171 C 0.95655 0.57243 0.14878 0.0
H1172 H 0.61662 0.09009 0.20623 0.0
H1173 H 0.57052 0.10587 0.13434 0.0
H1174 H 0.567 0.03871 0.21376 0.0
H1175 H 0.52318 0.05378 0.1413 0.0
H1176 H 0.49675 0.92694 0.14162 0.0
H1177 H 0.54483 0.97918 0.14644 0.0
H1178 H 0.48686 0.01715 0.21178 0.0
H1179 H 0.43877 0.96426 0.20694 0.0
C1180 C 0.59477 0.08417 0.1925 0.0
C1181 C 0.59762 0.10245 0.16967 0.0
C1182 C 0.56686 0.05402 0.19662 0.0
C1183 C 0.5423 0.04084 0.17773 0.0
C1184 C 0.5424 0.06223 0.15602 0.0
C1185 C 0.56919 0.09273 0.15218 0.0
C1186 C 0.49546 0.94479 0.15786 0.0
C1187 C 0.4634 0.941 0.17383 0.0
C1188 C 0.52259 0.97551 0.16032 0.0
C1189 C 0.51903 1.00332 0.17906 0.0
C1190 C 0.49029 0.99663 0.19694 0.0
C1191 C 0.46287 0.96576 0.19434 0.0
H1192 H 0.0972 0.59688 0.39647 0.0
H1193 H 0.05105 0.63764 0.32861 0.0
H1194 H 0.04974 0.54299 0.39622 0.0
H1195 H 1.00375 0.58387 0.32816 0.0
H1196 H 0.93626 0.46072 0.33374 0.0
H1197 H 0.98638 0.51184 0.32731 0.0
H1198 H 0.97814 0.54359 0.40279 0.0
H1199 H 0.92957 0.49247 0.40903 0.0
C1200 C 0.0785 0.59318 0.3808 0.0
C1201 C 0.07899 0.62134 0.36225 0.0
C1202 C 0.05039 0.56276 0.38092 0.0
C1203 C 0.02197 0.5593 0.36241 0.0
C1204 C 0.02487 0.58529 0.34274 0.0
C1205 C 0.05262 0.61596 0.34281 0.0
C1206 C 0.94458 0.47915 0.34873 0.0
C1207 C 0.92931 0.47152 0.37197 0.0
C1208 C 0.9736 0.50843 0.34516 0.0
C1209 C 0.98792 0.53095 0.36481 0.0
C1210 C 0.96934 0.52602 0.38737 0.0
C1211 C 0.94051 0.49719 0.39081 0.0
H1212 H 0.56337 0.93007 0.408 0.0
H1213 H 0.59633 0.94025 0.33298 0.0
H1214 H 0.50893 0.97472 0.40157 0.0
H1215 H 0.54164 0.98574 0.32639 0.0
H1216 H 0.41063 0.04134 0.32858 0.0
H1217 H 0.46653 0.99641 0.32784 0.0
H1218 H 0.50879 0.04761 0.39433 0.0
H1219 H 0.45301 0.09259 0.39489 0.0
C1220 C 0.55804 0.94054 0.38978 0.0
C1221 C 0.58476 0.93153 0.37106 0.0
C1222 C 0.52731 0.96709 0.38624 0.0
C1223 C 0.52169 0.9853 0.3637 0.0
C1224 C 0.54547 0.97294 0.34416 0.0
C1225 C 0.57668 0.94638 0.34783 0.0
C1226 C 0.43303 0.04442 0.34234 0.0
C1227 C 0.42766 0.07137 0.3615 0.0
C1228 C 0.46484 0.01817 0.3421 0.0
C1229 C 0.49184 0.01759 0.36131 0.0
C1230 C 0.48822 0.04666 0.37943 0.0
C1231 C 0.45672 0.07326 0.37946 0.0
H1232 H 0.09134 0.4481 0.85975 0.0
H1233 H 0.99239 0.37237 0.87385 0.0
H1234 H 0.04505 0.50323 0.85385 0.0
H1235 H 0.94784 0.42571 0.86783 0.0
H1236 H 0.9011 0.54263 0.90349 0.0
H1237 H 0.94243 0.48517 0.89767 0.0
H1238 H 0.9771 0.52779 0.82734 0.0
H1239 H 0.9332 0.58433 0.83294 0.0
C1240 C 0.06009 0.44265 0.86065 0.0
C1241 C 0.04604 0.40527 0.86711 0.0
C1242 C 0.03351 0.47424 0.85739 0.0
C1243 C 0.9926 0.4689 0.86063 0.0
C1244 C 0.97893 0.4311 0.86538 0.0
C1245 C 1.00494 0.40019 0.86864 0.0
C1246 C 0.91567 0.5387 0.88618 0.0
C1247 C 0.9134 0.56816 0.86848 0.0
C1248 C 0.94025 0.50618 0.88306 0.0
C1249 C 0.96411 0.50233 0.86231 0.0
C1250 C 0.95987 0.5302 0.84378 0.0
C1251 C 0.93416 0.56224 0.84672 0.0
H1252 H 0.56317 0.10141 0.91108 0.0
H1253 H 0.58785 0.10756 0.83474 0.0
H1254 H 0.50979 0.05602 0.90363 0.0
H1255 H 0.53468 0.05994 0.82699 0.0
H1256 H 0.41229 0.99204 0.82651 0.0
H1257 H 0.46595 0.03956 0.82768 0.0
H1258 H 0.50702 0.98768 0.89412 0.0
H1259 H 0.45255 0.94112 0.8932 0.0
C1260 C 0.55641 0.09389 0.89246 0.0
C1261 C 0.58087 0.10719 0.87354 0.0
C1262 C 0.5263 0.0668 0.88824 0.0
C1263 C 0.51909 0.05212 0.86484 0.0
C1264 C 0.53996 0.06948 0.84541 0.0
C1265 C 0.57031 0.09705 0.84975 0.0
C1266 C 0.43374 0.98977 0.84085 0.0
C1267 C 0.42809 0.96233 0.85965 0.0
C1268 C 0.46443 0.01742 0.84165 0.0
C1269 C 0.49041 0.01866 0.86141 0.0
C1270 C 0.48701 0.98867 0.87895 0.0
C1271 C 0.45633 0.961 0.8781 0.0
H1272 H 0.01841 0.4058 0.66451 0.0
H1273 H 0.91198 0.47025 0.67808 0.0
H1274 H 0.05717 0.46308 0.67208 0.0
H1275 H 0.95163 0.52987 0.68444 0.0
H1276 H 0.03392 0.62999 0.70419 0.0
H1277 H 0.9982 0.56837 0.70649 0.0
H1278 H 0.07541 0.51977 0.65209 0.0
H1279 H 0.11178 0.58136 0.65054 0.0
C1280 C 1.00297 0.43208 0.66969 0.0
C1281 C 0.9616 0.43259 0.67107 0.0
C1282 C 0.02561 0.46563 0.67355 0.0
C1283 C 1.00807 0.50192 0.67835 0.0
C1284 C 0.9666 0.50254 0.68089 0.0
C1285 C 0.94364 0.46825 0.67736 0.0
C1286 C 0.04444 0.60559 0.69352 0.0
C1287 C 0.0766 0.61068 0.67762 0.0
C1288 C 0.02318 0.57031 0.6944 0.0
C1289 C 0.0331 0.53865 0.67928 0.0
C1290 C 0.06676 0.54297 0.66435 0.0
C1291 C 0.0882 0.57835 0.66359 0.0
H1292 H 0.60308 0.95939 0.7104 0.0
H1293 H 0.57614 0.93091 0.63635 0.0
H1294 H 0.5461 1.00228 0.71245 0.0
H1295 H 0.51864 0.97373 0.63822 0.0
H1296 H 0.44811 0.08689 0.63787 0.0
H1297 H 0.50527 0.04363 0.63898 0.0
H1298 H 0.47624 1.0115 0.71243 0.0
H1299 H 0.41953 0.05497 0.71119 0.0
C1300 C 0.58372 0.96057 0.69492 0.0
C1301 C 0.59375 0.94031 0.6735 0.0
C1302 C 0.5512 0.9859 0.69593 0.0
C1303 C 0.52771 0.99251 0.67536 0.0
C1304 C 0.53624 0.97028 0.65436 0.0
C1305 C 0.56865 0.9446 0.65347 0.0
C1306 C 0.45512 0.07221 0.65468 0.0
C1307 C 0.42965 0.07564 0.6747 0.0
C1308 C 0.48735 0.04631 0.65511 0.0
C1309 C 0.49535 0.023 0.67563 0.0
C1310 C 0.47148 0.02868 0.69625 0.0
C1311 C 0.4391 0.05426 0.69571 0.0
loop_
_geom_bond_atom_site_label_1
_geom_bond_atom_site_label_2
_geom_bond_distance
_geom_bond_site_symmetry_2
_ccdc_geom_bond_type
Fe0 O2 1.918 . S
Fe0 O5 1.997 . S
Fe0 O6 2.002 . S
Fe0 O11 1.976 . S
Fe0 O14 1.996 . S
Fe1 O2 1.918 . S
Fe1 O9 1.997 . S
Fe1 O12 1.996 . S
Fe1 O16 1.976 . S
Fe1 O19 2.002 . S
O2 Fe0 1.918 . S
O2 Fe1 1.918 . S
O2 Fe3 1.918 . S
Fe3 O2 1.918 . S
Fe3 O4 2.002 . S
Fe3 O13 1.976 . S
Fe3 O17 1.996 . S
Fe3 O20 1.997 . S
O4 Fe3 2.002 . S
O4 C21 1.295 . S
O5 Fe0 1.997 . S
O5 C21 1.235 . S
O6 Fe0 2.002 . S
O6 C7 1.295 . S
C7 O6 1.295 . S
C7 O9 1.235 . S
C8 O13 1.287 . S
C8 O14 1.255 . S
O9 Fe1 1.997 . S
O9 C7 1.235 . S
C10 O16 1.287 . S
C10 O17 1.255 . S
O11 Fe0 1.976 . S
O11 C18 1.287 . S
O12 Fe1 1.996 . S
O12 C18 1.255 . S
O13 Fe3 1.976 . S
O13 C8 1.287 . S
O14 Fe0 1.996 . S
O14 C8 1.255 . S
C15 O19 1.295 . S
C15 O20 1.235 . S
O16 Fe1 1.976 . S
O16 C10 1.287 . S
O17 Fe3 1.996 . S
O17 C10 1.255 . S
C18 O11 1.287 . S
C18 O12 1.255 . S
O19 Fe1 2.002 . S
O19 C15 1.295 . S
O20 Fe3 1.997 . S
O20 C15 1.235 . S
C21 O4 1.295 . S
C21 O5 1.235 . S
Fe22 O24 1.918 . S
Fe22 O27 1.997 . S
Fe22 O28 2.002 . S
Fe22 O33 1.976 . S
Fe22 O36 1.996 . S
Fe23 O24 1.918 . S
Fe23 O31 1.997 . S
Fe23 O34 1.996 . S
Fe23 O38 1.976 . S
Fe23 O41 2.002 . S
O24 Fe22 1.918 . S
O24 Fe23 1.918 . S
O24 Fe25 1.918 . S
Fe25 O24 1.918 . S
Fe25 O26 2.002 . S
Fe25 O35 1.976 . S
Fe25 O39 1.996 . S
Fe25 O42 1.997 . S
O26 Fe25 2.002 . S
O26 C43 1.295 . S
O27 Fe22 1.997 . S
O27 C43 1.235 . S
O28 Fe22 2.002 . S
O28 C29 1.295 . S
C29 O28 1.295 . S
C29 O31 1.235 . S
C30 O35 1.287 . S
C30 O36 1.255 . S
O31 Fe23 1.997 . S
O31 C29 1.235 . S
C32 O38 1.287 . S
C32 O39 1.255 . S
O33 Fe22 1.976 . S
O33 C40 1.287 . S
O34 Fe23 1.996 . S
O34 C40 1.255 . S
O35 Fe25 1.976 . S
O35 C30 1.287 . S
O36 Fe22 1.996 . S
O36 C30 1.255 . S
C37 O41 1.295 . S
C37 O42 1.235 . S
O38 Fe23 1.976 . S
O38 C32 1.287 . S
O39 Fe25 1.996 . S
O39 C32 1.255 . S
C40 O33 1.287 . S
C40 O34 1.255 . S
O41 Fe23 2.002 . S
O41 C37 1.295 . S
O42 Fe25 1.997 . S
O42 C37 1.235 . S
C43 O26 1.295 . S
C43 O27 1.235 . S
Fe44 O46 1.918 . S
Fe44 O49 1.997 . S
Fe44 O50 2.002 . S
Fe44 O55 1.976 . S
Fe44 O58 1.996 . S
Fe45 O46 1.918 . S
Fe45 O53 1.997 . S
Fe45 O56 1.996 . S
Fe45 O60 1.976 . S
Fe45 O63 2.002 . S
O46 Fe44 1.918 . S
O46 Fe45 1.918 . S
O46 Fe47 1.918 . S
Fe47 O46 1.918 . S
Fe47 O48 2.002 . S
Fe47 O57 1.976 . S
Fe47 O61 1.996 . S
Fe47 O64 1.997 . S
O48 Fe47 2.002 . S
O48 C65 1.295 . S
O49 Fe44 1.997 . S
O49 C65 1.235 . S
O50 Fe44 2.002 . S
O50 C51 1.295 . S
C51 O50 1.295 . S
C51 O53 1.235 . S
C52 O57 1.287 . S
C52 O58 1.255 . S
O53 Fe45 1.997 . S
O53 C51 1.235 . S
C54 O60 1.287 . S
C54 O61 1.255 . S
O55 Fe44 1.976 . S
O55 C62 1.287 . S
O56 Fe45 1.996 . S
O56 C62 1.255 . S
O57 Fe47 1.976 . S
O57 C52 1.287 . S
O58 Fe44 1.996 . S
O58 C52 1.255 . S
C59 O63 1.295 . S
C59 O64 1.235 . S
O60 Fe45 1.976 . S
O60 C54 1.287 . S
O61 Fe47 1.996 . S
O61 C54 1.255 . S
C62 O55 1.287 . S
C62 O56 1.255 . S
O63 Fe45 2.002 . S
O63 C59 1.295 . S
O64 Fe47 1.997 . S
O64 C59 1.235 . S
C65 O48 1.295 . S
C65 O49 1.235 . S
Fe66 O68 1.918 . S
Fe66 O71 1.997 . S
Fe66 O72 2.002 . S
Fe66 O77 1.976 . S
Fe66 O80 1.996 . S
Fe67 O68 1.918 . S
Fe67 O75 1.997 . S
Fe67 O78 1.996 . S
Fe67 O82 1.976 . S
Fe67 O85 2.002 . S
O68 Fe66 1.918 . S
O68 Fe67 1.918 . S
O68 Fe69 1.918 . S
Fe69 O68 1.918 . S
Fe69 O70 2.002 . S
Fe69 O79 1.976 . S
Fe69 O83 1.996 . S
Fe69 O86 1.997 . S
O70 Fe69 2.002 . S
O70 C87 1.295 . S
O71 Fe66 1.997 . S
O71 C87 1.235 . S
O72 Fe66 2.002 . S
O72 C73 1.295 . S
C73 O72 1.295 . S
C73 O75 1.235 . S
C74 O79 1.287 . S
C74 O80 1.255 . S
O75 Fe67 1.997 . S
O75 C73 1.235 . S
C76 O82 1.287 . S
C76 O83 1.255 . S
O77 Fe66 1.976 . S
O77 C84 1.287 . S
O78 Fe67 1.996 . S
O78 C84 1.255 . S
O79 Fe69 1.976 . S
O79 C74 1.287 . S
O80 Fe66 1.996 . S
O80 C74 1.255 . S
C81 O85 1.295 . S
C81 O86 1.235 . S
O82 Fe67 1.976 . S
O82 C76 1.287 . S
O83 Fe69 1.996 . S
O83 C76 1.255 . S
C84 O77 1.287 . S
C84 O78 1.255 . S
O85 Fe67 2.002 . S
O85 C81 1.295 . S
O86 Fe69 1.997 . S
O86 C81 1.235 . S
C87 O70 1.295 . S
C87 O71 1.235 . S
Fe88 O90 1.918 . S
Fe88 O93 1.997 . S
Fe88 O94 2.002 . S
Fe88 O99 1.976 . S
Fe88 O102 1.996 . S
Fe89 O90 1.918 . S
Fe89 O97 1.997 . S
Fe89 O100 1.996 . S
Fe89 O104 1.976 . S
Fe89 O107 2.002 . S
O90 Fe88 1.918 . S
O90 Fe89 1.918 . S
O90 Fe91 1.918 . S
Fe91 O90 1.918 . S
Fe91 O92 2.002 . S
Fe91 O101 1.976 . S
Fe91 O105 1.996 . S
Fe91 O108 1.997 . S
O92 Fe91 2.002 . S
O92 C109 1.295 . S
O93 Fe88 1.997 . S
O93 C109 1.235 . S
O94 Fe88 2.002 . S
O94 C95 1.295 . S
C95 O94 1.295 . S
C95 O97 1.235 . S
C96 O101 1.287 . S
C96 O102 1.255 . S
O97 Fe89 1.997 . S
O97 C95 1.235 . S
C98 O104 1.287 . S
C98 O105 1.255 . S
O99 Fe88 1.976 . S
O99 C106 1.287 . S
O100 Fe89 1.996 . S
O100 C106 1.255 . S
O101 Fe91 1.976 . S
O101 C96 1.287 . S
O102 Fe88 1.996 . S
O102 C96 1.255 . S
C103 O107 1.295 . S
C103 O108 1.235 . S
O104 Fe89 1.976 . S
O104 C98 1.287 . S
O105 Fe91 1.996 . S
O105 C98 1.255 . S
C106 O99 1.287 . S
C106 O100 1.255 . S
O107 Fe89 2.002 . S
O107 C103 1.295 . S
O108 Fe91 1.997 . S
O108 C103 1.235 . S
C109 O92 1.295 . S
C109 O93 1.235 . S
Fe110 O112 1.918 . S
Fe110 O115 1.997 . S
Fe110 O116 2.002 . S
Fe110 O121 1.976 . S
Fe110 O124 1.996 . S
Fe111 O112 1.918 . S
Fe111 O119 1.997 . S
Fe111 O122 1.996 . S
Fe111 O126 1.976 . S
Fe111 O129 2.002 . S
O112 Fe110 1.918 . S
O112 Fe111 1.918 . S
O112 Fe113 1.918 . S
Fe113 O112 1.918 . S
Fe113 O114 2.002 . S
Fe113 O123 1.976 . S
Fe113 O127 1.996 . S
Fe113 O130 1.997 . S
O114 Fe113 2.002 . S
O114 C131 1.295 . S
O115 Fe110 1.997 . S
O115 C131 1.235 . S
O116 Fe110 2.002 . S
O116 C117 1.295 . S
C117 O116 1.295 . S
C117 O119 1.235 . S
C118 O123 1.287 . S
C118 O124 1.255 . S
O119 Fe111 1.997 . S
O119 C117 1.235 . S
C120 O126 1.287 . S
C120 O127 1.255 . S
O121 Fe110 1.976 . S
O121 C128 1.287 . S
O122 Fe111 1.996 . S
O122 C128 1.255 . S
O123 Fe113 1.976 . S
O123 C118 1.287 . S
O124 Fe110 1.996 . S
O124 C118 1.255 . S
C125 O129 1.295 . S
C125 O130 1.235 . S
O126 Fe111 1.976 . S
O126 C120 1.287 . S
O127 Fe113 1.996 . S
O127 C120 1.255 . S
C128 O121 1.287 . S
C128 O122 1.255 . S
O129 Fe111 2.002 . S
O129 C125 1.295 . S
O130 Fe113 1.997 . S
O130 C125 1.235 . S
C131 O114 1.295 . S
C131 O115 1.235 . S
Fe132 O134 1.918 . S
Fe132 O137 1.997 . S
Fe132 O138 2.002 . S
Fe132 O143 1.976 . S
Fe132 O146 1.996 . S
Fe133 O134 1.918 . S
Fe133 O141 1.997 . S
Fe133 O144 1.996 . S
Fe133 O148 1.976 . S
Fe133 O151 2.002 . S
O134 Fe132 1.918 . S
O134 Fe133 1.918 . S
O134 Fe135 1.918 . S
Fe135 O134 1.918 . S
Fe135 O136 2.002 . S
Fe135 O145 1.976 . S
Fe135 O149 1.996 . S
Fe135 O152 1.997 . S
O136 Fe135 2.002 . S
O136 C153 1.295 . S
O137 Fe132 1.997 . S
O137 C153 1.235 . S
O138 Fe132 2.002 . S
O138 C139 1.295 . S
C139 O138 1.295 . S
C139 O141 1.235 . S
C140 O145 1.287 . S
C140 O146 1.255 . S
O141 Fe133 1.997 . S
O141 C139 1.235 . S
C142 O148 1.287 . S
C142 O149 1.255 . S
O143 Fe132 1.976 . S
O143 C150 1.287 . S
O144 Fe133 1.996 . S
O144 C150 1.255 . S
O145 Fe135 1.976 . S
O145 C140 1.287 . S
O146 Fe132 1.996 . S
O146 C140 1.255 . S
C147 O151 1.295 . S
C147 O152 1.235 . S
O148 Fe133 1.976 . S
O148 C142 1.287 . S
O149 Fe135 1.996 . S
O149 C142 1.255 . S
C150 O143 1.287 . S
C150 O144 1.255 . S
O151 Fe133 2.002 . S
O151 C147 1.295 . S
O152 Fe135 1.997 . S
O152 C147 1.235 . S
C153 O136 1.295 . S
C153 O137 1.235 . S
Fe154 O156 1.918 . S
Fe154 O159 1.997 . S
Fe154 O160 2.002 . S
Fe154 O165 1.976 . S
Fe154 O168 1.996 . S
Fe155 O156 1.918 . S
Fe155 O163 1.997 . S
Fe155 O166 1.996 . S
Fe155 O170 1.976 . S
Fe155 O173 2.002 . S
O156 Fe154 1.918 . S
O156 Fe155 1.918 . S
O156 Fe157 1.918 . S
Fe157 O156 1.918 . S
Fe157 O158 2.002 . S
Fe157 O167 1.976 . S
Fe157 O171 1.996 . S
Fe157 O174 1.997 . S
O158 Fe157 2.002 . S
O158 C175 1.295 . S
O159 Fe154 1.997 . S
O159 C175 1.235 . S
O160 Fe154 2.002 . S
O160 C161 1.295 . S
C161 O160 1.295 . S
C161 O163 1.235 . S
C162 O167 1.287 . S
C162 O168 1.255 . S
O163 Fe155 1.997 . S
O163 C161 1.235 . S
C164 O170 1.287 . S
C164 O171 1.255 . S
O165 Fe154 1.976 . S
O165 C172 1.287 . S
O166 Fe155 1.996 . S
O166 C172 1.255 . S
O167 Fe157 1.976 . S
O167 C162 1.287 . S
O168 Fe154 1.996 . S
O168 C162 1.255 . S
C169 O173 1.295 . S
C169 O174 1.235 . S
O170 Fe155 1.976 . S
O170 C164 1.287 . S
O171 Fe157 1.996 . S
O171 C164 1.255 . S
C172 O165 1.287 . S
C172 O166 1.255 . S
O173 Fe155 2.002 . S
O173 C169 1.295 . S
O174 Fe157 1.997 . S
O174 C169 1.235 . S
C175 O158 1.295 . S
C175 O159 1.235 . S
Fe176 O178 1.918 . S
Fe176 O181 1.997 . S
Fe176 O182 2.002 . S
Fe176 O187 1.976 . S
Fe176 O190 1.996 . S
Fe177 O178 1.918 . S
Fe177 O185 1.997 . S
Fe177 O188 1.996 . S
Fe177 O192 1.976 . S
Fe177 O195 2.002 . S
O178 Fe176 1.918 . S
O178 Fe177 1.918 . S
O178 Fe179 1.918 . S
Fe179 O178 1.918 . S
Fe179 O180 2.002 . S
Fe179 O189 1.976 . S
Fe179 O193 1.996 . S
Fe179 O196 1.997 . S
O180 Fe179 2.002 . S
O180 C197 1.295 . S
O181 Fe176 1.997 . S
O181 C197 1.235 . S
O182 Fe176 2.002 . S
O182 C183 1.295 . S
C183 O182 1.295 . S
C183 O185 1.235 . S
C184 O189 1.287 . S
C184 O190 1.255 . S
O185 Fe177 1.997 . S
O185 C183 1.235 . S
C186 O192 1.287 . S
C186 O193 1.255 . S
O187 Fe176 1.976 . S
O187 C194 1.287 . S
O188 Fe177 1.996 . S
O188 C194 1.255 . S
O189 Fe179 1.976 . S
O189 C184 1.287 . S
O190 Fe176 1.996 . S
O190 C184 1.255 . S
C191 O195 1.295 . S
C191 O196 1.235 . S
O192 Fe177 1.976 . S
O192 C186 1.287 . S
O193 Fe179 1.996 . S
O193 C186 1.255 . S
C194 O187 1.287 . S
C194 O188 1.255 . S
O195 Fe177 2.002 . S
O195 C191 1.295 . S
O196 Fe179 1.997 . S
O196 C191 1.235 . S
C197 O180 1.295 . S
C197 O181 1.235 . S
Fe198 O200 1.918 . S
Fe198 O203 1.997 . S
Fe198 O204 2.002 . S
Fe198 O209 1.976 . S
Fe198 O212 1.996 . S
Fe199 O200 1.918 . S
Fe199 O207 1.997 . S
Fe199 O210 1.996 . S
Fe199 O214 1.976 . S
Fe199 O217 2.002 . S
O200 Fe198 1.918 . S
O200 Fe199 1.918 . S
O200 Fe201 1.918 . S
Fe201 O200 1.918 . S
Fe201 O202 2.002 . S
Fe201 O211 1.976 . S
Fe201 O215 1.996 . S
Fe201 O218 1.997 . S
O202 Fe201 2.002 . S
O202 C219 1.295 . S
O203 Fe198 1.997 . S
O203 C219 1.235 . S
O204 Fe198 2.002 . S
O204 C205 1.295 . S
C205 O204 1.295 . S
C205 O207 1.235 . S
C206 O211 1.287 . S
C206 O212 1.255 . S
O207 Fe199 1.997 . S
O207 C205 1.235 . S
C208 O214 1.287 . S
C208 O215 1.255 . S
O209 Fe198 1.976 . S
O209 C216 1.287 . S
O210 Fe199 1.996 . S
O210 C216 1.255 . S
O211 Fe201 1.976 . S
O211 C206 1.287 . S
O212 Fe198 1.996 . S
O212 C206 1.255 . S
C213 O217 1.295 . S
C213 O218 1.235 . S
O214 Fe199 1.976 . S
O214 C208 1.287 . S
O215 Fe201 1.996 . S
O215 C208 1.255 . S
C216 O209 1.287 . S
C216 O210 1.255 . S
O217 Fe199 2.002 . S
O217 C213 1.295 . S
O218 Fe201 1.997 . S
O218 C213 1.235 . S
C219 O202 1.295 . S
C219 O203 1.235 . S
Fe220 O222 1.918 . S
Fe220 O225 1.997 . S
Fe220 O226 2.002 . S
Fe220 O231 1.976 . S
Fe220 O234 1.996 . S
Fe221 O222 1.918 . S
Fe221 O229 1.997 . S
Fe221 O232 1.996 . S
Fe221 O236 1.976 . S
Fe221 O239 2.002 . S
O222 Fe220 1.918 . S
O222 Fe221 1.918 . S
O222 Fe223 1.918 . S
Fe223 O222 1.918 . S
Fe223 O224 2.002 . S
Fe223 O233 1.976 . S
Fe223 O237 1.996 . S
Fe223 O240 1.997 . S
O224 Fe223 2.002 . S
O224 C241 1.295 . S
O225 Fe220 1.997 . S
O225 C241 1.235 . S
O226 Fe220 2.002 . S
O226 C227 1.295 . S
C227 O226 1.295 . S
C227 O229 1.235 . S
C228 O233 1.287 . S
C228 O234 1.255 . S
O229 Fe221 1.997 . S
O229 C227 1.235 . S
C230 O236 1.287 . S
C230 O237 1.255 . S
O231 Fe220 1.976 . S
O231 C238 1.287 . S
O232 Fe221 1.996 . S
O232 C238 1.255 . S
O233 Fe223 1.976 . S
O233 C228 1.287 . S
O234 Fe220 1.996 . S
O234 C228 1.255 . S
C235 O239 1.295 . S
C235 O240 1.235 . S
O236 Fe221 1.976 . S
O236 C230 1.287 . S
O237 Fe223 1.996 . S
O237 C230 1.255 . S
C238 O231 1.287 . S
C238 O232 1.255 . S
O239 Fe221 2.002 . S
O239 C235 1.295 . S
O240 Fe223 1.997 . S
O240 C235 1.235 . S
C241 O224 1.295 . S
C241 O225 1.235 . S
Fe242 O244 1.918 . S
Fe242 O247 1.997 . S
Fe242 O248 2.002 . S
Fe242 O253 1.976 . S
Fe242 O256 1.996 . S
Fe243 O244 1.918 . S
Fe243 O251 1.997 . S
Fe243 O254 1.996 . S
Fe243 O258 1.976 . S
Fe243 O261 2.002 . S
O244 Fe242 1.918 . S
O244 Fe243 1.918 . S
O244 Fe245 1.918 . S
Fe245 O244 1.918 . S
Fe245 O246 2.002 . S
Fe245 O255 1.976 . S
Fe245 O259 1.996 . S
Fe245 O262 1.997 . S
O246 Fe245 2.002 . S
O246 C263 1.295 . S
O247 Fe242 1.997 . S
O247 C263 1.235 . S
O248 Fe242 2.002 . S
O248 C249 1.295 . S
C249 O248 1.295 . S
C249 O251 1.235 . S
C250 O255 1.287 . S
C250 O256 1.255 . S
O251 Fe243 1.997 . S
O251 C249 1.235 . S
C252 O258 1.287 . S
C252 O259 1.255 . S
O253 Fe242 1.976 . S
O253 C260 1.287 . S
O254 Fe243 1.996 . S
O254 C260 1.255 . S
O255 Fe245 1.976 . S
O255 C250 1.287 . S
O256 Fe242 1.996 . S
O256 C250 1.255 . S
C257 O261 1.295 . S
C257 O262 1.235 . S
O258 Fe243 1.976 . S
O258 C252 1.287 . S
O259 Fe245 1.996 . S
O259 C252 1.255 . S
C260 O253 1.287 . S
C260 O254 1.255 . S
O261 Fe243 2.002 . S
O261 C257 1.295 . S
O262 Fe245 1.997 . S
O262 C257 1.235 . S
C263 O246 1.295 . S
C263 O247 1.235 . S
Fe264 O266 1.918 . S
Fe264 O269 1.997 . S
Fe264 O270 2.002 . S
Fe264 O275 1.976 . S
Fe264 O278 1.996 . S
Fe265 O266 1.918 . S
Fe265 O273 1.997 . S
Fe265 O276 1.996 . S
Fe265 O280 1.976 . S
Fe265 O283 2.002 . S
O266 Fe264 1.918 . S
O266 Fe265 1.918 . S
O266 Fe267 1.918 . S
Fe267 O266 1.918 . S
Fe267 O268 2.002 . S
Fe267 O277 1.976 . S
Fe267 O281 1.996 . S
Fe267 O284 1.997 . S
O268 Fe267 2.002 . S
O268 C285 1.295 . S
O269 Fe264 1.997 . S
O269 C285 1.235 . S
O270 Fe264 2.002 . S
O270 C271 1.295 . S
C271 O270 1.295 . S
C271 O273 1.235 . S
C272 O277 1.287 . S
C272 O278 1.255 . S
O273 Fe265 1.997 . S
O273 C271 1.235 . S
C274 O280 1.287 . S
C274 O281 1.255 . S
O275 Fe264 1.976 . S
O275 C282 1.287 . S
O276 Fe265 1.996 . S
O276 C282 1.255 . S
O277 Fe267 1.976 . S
O277 C272 1.287 . S
O278 Fe264 1.996 . S
O278 C272 1.255 . S
C279 O283 1.295 . S
C279 O284 1.235 . S
O280 Fe265 1.976 . S
O280 C274 1.287 . S
O281 Fe267 1.996 . S
O281 C274 1.255 . S
C282 O275 1.287 . S
C282 O276 1.255 . S
O283 Fe265 2.002 . S
O283 C279 1.295 . S
O284 Fe267 1.997 . S
O284 C279 1.235 . S
C285 O268 1.295 . S
C285 O269 1.235 . S
Fe286 O288 1.918 . S
Fe286 O291 1.997 . S
Fe286 O292 2.002 . S
Fe286 O297 1.976 . S
Fe286 O300 1.996 . S
Fe287 O288 1.918 . S
Fe287 O295 1.997 . S
Fe287 O298 1.996 . S
Fe287 O302 1.976 . S
Fe287 O305 2.002 . S
O288 Fe286 1.918 . S
O288 Fe287 1.918 . S
O288 Fe289 1.918 . S
Fe289 O288 1.918 . S
Fe289 O290 2.002 . S
Fe289 O299 1.976 . S
Fe289 O303 1.996 . S
Fe289 O306 1.997 . S
O290 Fe289 2.002 . S
O290 C307 1.295 . S
O291 Fe286 1.997 . S
O291 C307 1.235 . S
O292 Fe286 2.002 . S
O292 C293 1.295 . S
C293 O292 1.295 . S
C293 O295 1.235 . S
C294 O299 1.287 . S
C294 O300 1.255 . S
O295 Fe287 1.997 . S
O295 C293 1.235 . S
C296 O302 1.287 . S
C296 O303 1.255 . S
O297 Fe286 1.976 . S
O297 C304 1.287 . S
O298 Fe287 1.996 . S
O298 C304 1.255 . S
O299 Fe289 1.976 . S
O299 C294 1.287 . S
O300 Fe286 1.996 . S
O300 C294 1.255 . S
C301 O305 1.295 . S
C301 O306 1.235 . S
O302 Fe287 1.976 . S
O302 C296 1.287 . S
O303 Fe289 1.996 . S
O303 C296 1.255 . S
C304 O297 1.287 . S
C304 O298 1.255 . S
O305 Fe287 2.002 . S
O305 C301 1.295 . S
O306 Fe289 1.997 . S
O306 C301 1.235 . S
C307 O290 1.295 . S
C307 O291 1.235 . S
Fe308 O310 1.918 . S
Fe308 O313 1.997 . S
Fe308 O314 2.002 . S
Fe308 O319 1.976 . S
Fe308 O322 1.996 . S
Fe309 O310 1.918 . S
Fe309 O317 1.997 . S
Fe309 O320 1.996 . S
Fe309 O324 1.976 . S
Fe309 O327 2.002 . S
O310 Fe308 1.918 . S
O310 Fe309 1.918 . S
O310 Fe311 1.918 . S
Fe311 O310 1.918 . S
Fe311 O312 2.002 . S
Fe311 O321 1.976 . S
Fe311 O325 1.996 . S
Fe311 O328 1.997 . S
O312 Fe311 2.002 . S
O312 C329 1.295 . S
O313 Fe308 1.997 . S
O313 C329 1.235 . S
O314 Fe308 2.002 . S
O314 C315 1.295 . S
C315 O314 1.295 . S
C315 O317 1.235 . S
C316 O321 1.287 . S
C316 O322 1.255 . S
O317 Fe309 1.997 . S
O317 C315 1.235 . S
C318 O324 1.287 . S
C318 O325 1.255 . S
O319 Fe308 1.976 . S
O319 C326 1.287 . S
O320 Fe309 1.996 . S
O320 C326 1.255 . S
O321 Fe311 1.976 . S
O321 C316 1.287 . S
O322 Fe308 1.996 . S
O322 C316 1.255 . S
C323 O327 1.295 . S
C323 O328 1.235 . S
O324 Fe309 1.976 . S
O324 C318 1.287 . S
O325 Fe311 1.996 . S
O325 C318 1.255 . S
C326 O319 1.287 . S
C326 O320 1.255 . S
O327 Fe309 2.002 . S
O327 C323 1.295 . S
O328 Fe311 1.997 . S
O328 C323 1.235 . S
C329 O312 1.295 . S
C329 O313 1.235 . S
Fe330 O332 1.918 . S
Fe330 O335 1.997 . S
Fe330 O336 2.002 . S
Fe330 O341 1.976 . S
Fe330 O344 1.996 . S
Fe331 O332 1.918 . S
Fe331 O339 1.997 . S
Fe331 O342 1.996 . S
Fe331 O346 1.976 . S
Fe331 O349 2.002 . S
O332 Fe330 1.918 . S
O332 Fe331 1.918 . S
O332 Fe333 1.918 . S
Fe333 O332 1.918 . S
Fe333 O334 2.002 . S
Fe333 O343 1.976 . S
Fe333 O347 1.996 . S
Fe333 O350 1.997 . S
O334 Fe333 2.002 . S
O334 C351 1.295 . S
O335 Fe330 1.997 . S
O335 C351 1.235 . S
O336 Fe330 2.002 . S
O336 C337 1.295 . S
C337 O336 1.295 . S
C337 O339 1.235 . S
C338 O343 1.287 . S
C338 O344 1.255 . S
O339 Fe331 1.997 . S
O339 C337 1.235 . S
C340 O346 1.287 . S
C340 O347 1.255 . S
O341 Fe330 1.976 . S
O341 C348 1.287 . S
O342 Fe331 1.996 . S
O342 C348 1.255 . S
O343 Fe333 1.976 . S
O343 C338 1.287 . S
O344 Fe330 1.996 . S
O344 C338 1.255 . S
C345 O349 1.295 . S
C345 O350 1.235 . S
O346 Fe331 1.976 . S
O346 C340 1.287 . S
O347 Fe333 1.996 . S
O347 C340 1.255 . S
C348 O341 1.287 . S
C348 O342 1.255 . S
O349 Fe331 2.002 . S
O349 C345 1.295 . S
O350 Fe333 1.997 . S
O350 C345 1.235 . S
C351 O334 1.295 . S
C351 O335 1.235 . S
H352 C360 0.950 . S
H353 C365 0.950 . S
H354 C362 0.950 . S
H355 C364 0.950 . S
H356 C366 0.950 . S
H357 C368 0.950 . S
H358 C370 0.950 . S
H359 C371 0.950 1_565 S
C360 H352 0.950 . S
C360 C361 1.386 . S
C360 C362 1.391 . S
C361 C360 1.386 . S
C361 C365 1.393 . S
C362 H354 0.950 . S
C362 C360 1.391 . S
C362 C363 1.400 . S
C363 C362 1.400 . S
C363 C364 1.398 . S
C363 C369 1.491 . S
C364 H355 0.950 . S
C364 C363 1.398 . S
C364 C365 1.391 . S
C365 H353 0.950 . S
C365 C361 1.393 . S
C365 C364 1.391 . S
C366 H356 0.950 . S
C366 C367 1.386 . S
C366 C368 1.391 . S
C367 C366 1.386 . S
C367 C371 1.393 . S
C368 H357 0.950 . S
C368 C366 1.391 . S
C368 C369 1.400 . S
C369 C363 1.491 . S
C369 C368 1.400 . S
C369 C370 1.398 . S
C370 H358 0.950 . S
C370 C369 1.398 . S
C370 C371 1.391 . S
C371 H359 0.950 1_545 S
C371 C367 1.393 . S
C371 C370 1.391 . S
H372 C380 0.950 . S
H373 C385 0.950 . S
H374 C382 0.950 . S
H375 C384 0.950 . S
H376 C386 0.950 . S
H377 C388 0.950 . S
H378 C390 0.950 . S
H379 C391 0.950 . S
C380 H372 0.950 . S
C380 C381 1.386 . S
C380 C382 1.391 . S
C381 C380 1.386 . S
C381 C385 1.393 . S
C382 H374 0.950 . S
C382 C380 1.391 . S
C382 C383 1.400 . S
C383 C382 1.400 . S
C383 C384 1.398 . S
C383 C389 1.491 . S
C384 H375 0.950 . S
C384 C383 1.398 . S
C384 C385 1.391 . S
C385 H373 0.950 . S
C385 C381 1.393 . S
C385 C384 1.391 . S
C386 H376 0.950 . S
C386 C387 1.386 . S
C386 C388 1.391 . S
C387 C386 1.386 . S
C387 C391 1.393 . S
C388 H377 0.950 . S
C388 C386 1.391 . S
C388 C389 1.400 . S
C389 C383 1.491 . S
C389 C388 1.400 . S
C389 C390 1.398 . S
C390 H378 0.950 . S
C390 C389 1.398 . S
C390 C391 1.391 . S
C391 H379 0.950 . S
C391 C387 1.393 . S
C391 C390 1.391 . S
H392 C400 0.950 . S
H393 C405 0.950 . S
H394 C402 0.950 . S
H395 C404 0.950 . S
H396 C406 0.950 . S
H397 C408 0.950 . S
H398 C410 0.950 . S
H399 C411 0.950 . S
C400 H392 0.950 . S
C400 C401 1.386 . S
C400 C402 1.391 . S
C401 C400 1.386 . S
C401 C405 1.393 . S
C402 H394 0.950 . S
C402 C400 1.391 . S
C402 C403 1.400 . S
C403 C402 1.400 . S
C403 C404 1.398 . S
C403 C409 1.491 . S
C404 H395 0.950 . S
C404 C403 1.398 . S
C404 C405 1.391 . S
C405 H393 0.950 . S
C405 C401 1.393 . S
C405 C404 1.391 . S
C406 H396 0.950 . S
C406 C407 1.386 . S
C406 C408 1.391 . S
C407 C406 1.386 . S
C407 C411 1.393 . S
C408 H397 0.950 . S
C408 C406 1.391 . S
C408 C409 1.400 . S
C409 C403 1.491 . S
C409 C408 1.400 . S
C409 C410 1.398 . S
C410 H398 0.950 . S
C410 C409 1.398 . S
C410 C411 1.391 . S
C411 H399 0.950 . S
C411 C407 1.393 . S
C411 C410 1.391 . S
H412 C420 0.950 . S
H413 C425 0.950 . S
H414 C422 0.950 . S
H415 C424 0.950 . S
H416 C426 0.950 . S
H417 C428 0.950 . S
H418 C430 0.950 . S
H419 C431 0.950 1_655 S
C420 H412 0.950 . S
C420 C421 1.386 . S
C420 C422 1.391 . S
C421 C420 1.386 . S
C421 C425 1.393 . S
C422 H414 0.950 . S
C422 C420 1.391 . S
C422 C423 1.400 . S
C423 C422 1.400 . S
C423 C424 1.398 . S
C423 C429 1.491 . S
C424 H415 0.950 . S
C424 C423 1.398 . S
C424 C425 1.391 . S
C425 H413 0.950 . S
C425 C421 1.393 . S
C425 C424 1.391 . S
C426 H416 0.950 . S
C426 C427 1.386 . S
C426 C428 1.391 . S
C427 C426 1.386 . S
C427 C431 1.393 . S
C428 H417 0.950 . S
C428 C426 1.391 . S
C428 C429 1.400 . S
C429 C423 1.491 . S
C429 C428 1.400 . S
C429 C430 1.398 . S
C430 H418 0.950 . S
C430 C429 1.398 . S
C430 C431 1.391 . S
C431 H419 0.950 1_455 S
C431 C427 1.393 . S
C431 C430 1.391 . S
H432 C440 0.950 . S
H433 C445 0.950 . S
H434 C442 0.950 . S
H435 C444 0.950 . S
H436 C446 0.950 . S
H437 C448 0.950 . S
H438 C450 0.950 . S
H439 C451 0.950 . S
C440 H432 0.950 . S
C440 C441 1.386 . S
C440 C442 1.391 . S
C441 C440 1.386 . S
C441 C445 1.393 . S
C442 H434 0.950 . S
C442 C440 1.391 . S
C442 C443 1.400 . S
C443 C442 1.400 . S
C443 C444 1.398 . S
C443 C449 1.491 . S
C444 H435 0.950 . S
C444 C443 1.398 . S
C444 C445 1.391 . S
C445 H433 0.950 . S
C445 C441 1.393 . S
C445 C444 1.391 . S
C446 H436 0.950 . S
C446 C447 1.386 . S
C446 C448 1.391 . S
C447 C446 1.386 . S
C447 C451 1.393 . S
C448 H437 0.950 . S
C448 C446 1.391 . S
C448 C449 1.400 . S
C449 C443 1.491 . S
C449 C448 1.400 . S
C449 C450 1.398 . S
C450 H438 0.950 . S
C450 C449 1.398 . S
C450 C451 1.391 . S
C451 H439 0.950 . S
C451 C447 1.393 . S
C451 C450 1.391 . S
H452 C460 0.950 . S
H453 C465 0.950 . S
H454 C462 0.950 . S
H455 C464 0.950 . S
H456 C466 0.950 . S
H457 C468 0.950 . S
H458 C470 0.950 . S
H459 C471 0.950 1_655 S
C460 H452 0.950 . S
C460 C461 1.386 . S
C460 C462 1.391 . S
C461 C460 1.386 . S
C461 C465 1.393 . S
C462 H454 0.950 . S
C462 C460 1.391 . S
C462 C463 1.400 . S
C463 C462 1.400 . S
C463 C464 1.398 . S
C463 C469 1.491 . S
C464 H455 0.950 . S
C464 C463 1.398 . S
C464 C465 1.391 . S
C465 H453 0.950 . S
C465 C461 1.393 . S
C465 C464 1.391 . S
C466 H456 0.950 . S
C466 C467 1.386 . S
C466 C468 1.391 . S
C467 C466 1.386 . S
C467 C471 1.393 . S
C468 H457 0.950 . S
C468 C466 1.391 . S
C468 C469 1.400 . S
C469 C463 1.491 . S
C469 C468 1.400 . S
C469 C470 1.398 . S
C470 H458 0.950 . S
C470 C469 1.398 . S
C470 C471 1.391 . S
C471 H459 0.950 1_455 S
C471 C467 1.393 . S
C471 C470 1.391 . S
H472 C480 0.950 . S
H473 C485 0.950 . S
H474 C482 0.950 . S
H475 C484 0.950 . S
H476 C486 0.950 . S
H477 C488 0.950 . S
H478 C490 0.950 . S
H479 C491 0.950 . S
C480 H472 0.950 . S
C480 C481 1.386 . S
C480 C482 1.391 . S
C481 C480 1.386 . S
C481 C485 1.393 . S
C482 H474 0.950 . S
C482 C480 1.391 . S
C482 C483 1.400 . S
C483 C482 1.400 . S
C483 C484 1.398 . S
C483 C489 1.491 . S
C484 H475 0.950 . S
C484 C483 1.398 . S
C484 C485 1.391 . S
C485 H473 0.950 . S
C485 C481 1.393 . S
C485 C484 1.391 . S
C486 H476 0.950 . S
C486 C487 1.386 . S
C486 C488 1.391 . S
C487 C486 1.386 . S
C487 C491 1.393 . S
C488 H477 0.950 . S
C488 C486 1.391 . S
C488 C489 1.400 . S
C489 C483 1.491 . S
C489 C488 1.400 . S
C489 C490 1.398 . S
C490 H478 0.950 . S
C490 C489 1.398 . S
C490 C491 1.391 . S
C491 H479 0.950 . S
C491 C487 1.393 . S
C491 C490 1.391 . S
H492 C500 0.962 . S
H493 C505 0.950 . S
H494 C502 0.950 . S
H495 C504 0.950 . S
H496 C506 0.950 . S
H497 C508 0.950 . S
H498 C510 0.950 . S
H499 C511 0.950 . S
C500 H492 0.962 . S
C500 C501 1.386 . S
C500 C502 1.391 . S
C501 C500 1.386 . S
C501 C505 1.393 . S
C502 H494 0.950 . S
C502 C500 1.391 . S
C502 C503 1.400 . S
C503 C502 1.400 . S
C503 C504 1.398 . S
C503 C509 1.491 . S
C504 H495 0.950 . S
C504 C503 1.398 . S
C504 C505 1.391 . S
C505 H493 0.950 . S
C505 C501 1.393 . S
C505 C504 1.391 . S
C506 H496 0.950 . S
C506 C507 1.386 . S
C506 C508 1.391 . S
C507 C506 1.386 . S
C507 C511 1.393 . S
C508 H497 0.950 . S
C508 C506 1.391 . S
C508 C509 1.400 . S
C509 C503 1.491 . S
C509 C508 1.400 . S
C509 C510 1.398 . S
C510 H498 0.950 . S
C510 C509 1.398 . S
C510 C511 1.391 . S
C511 H499 0.950 . S
C511 C507 1.393 . S
C511 C510 1.391 . S
H512 C520 0.950 . S
H513 C525 0.950 . S
H514 C522 0.950 . S
H515 C524 0.950 . S
H516 C526 0.950 . S
H517 C528 0.950 . S
H518 C530 0.950 . S
H519 C531 0.950 . S
C520 H512 0.950 . S
C520 C521 1.386 . S
C520 C522 1.391 . S
C521 C520 1.386 . S
C521 C525 1.393 . S
C522 H514 0.950 . S
C522 C520 1.391 . S
C522 C523 1.400 . S
C523 C522 1.400 . S
C523 C524 1.398 . S
C523 C529 1.491 . S
C524 H515 0.950 . S
C524 C523 1.398 . S
C524 C525 1.391 . S
C525 H513 0.950 . S
C525 C521 1.393 . S
C525 C524 1.391 . S
C526 H516 0.950 . S
C526 C527 1.386 . S
C526 C528 1.391 . S
C527 C526 1.386 . S
C527 C531 1.393 . S
C528 H517 0.950 . S
C528 C526 1.391 . S
C528 C529 1.400 . S
C529 C523 1.491 . S
C529 C528 1.400 . S
C529 C530 1.398 . S
C530 H518 0.950 . S
C530 C529 1.398 . S
C530 C531 1.391 . S
C531 H519 0.950 . S
C531 C527 1.393 . S
C531 C530 1.391 . S
H532 C540 0.950 1_655 S
H533 C545 0.950 . S
H534 C542 0.950 . S
H535 C544 0.950 . S
H536 C546 0.950 . S
H537 C548 0.950 . S
H538 C550 0.950 . S
H539 C551 0.950 . S
C540 H532 0.950 1_455 S
C540 C541 1.386 . S
C540 C542 1.391 . S
C541 C540 1.386 . S
C541 C545 1.393 . S
C542 H534 0.950 . S
C542 C540 1.391 . S
C542 C543 1.400 . S
C543 C542 1.400 . S
C543 C544 1.398 . S
C543 C549 1.491 . S
C544 H535 0.950 . S
C544 C543 1.398 . S
C544 C545 1.391 . S
C545 H533 0.950 . S
C545 C541 1.393 . S
C545 C544 1.391 . S
C546 H536 0.950 . S
C546 C547 1.386 . S
C546 C548 1.391 . S
C547 C546 1.386 . S
C547 C551 1.393 . S
C548 H537 0.950 . S
C548 C546 1.391 . S
C548 C549 1.400 . S
C549 C543 1.491 . S
C549 C548 1.400 . S
C549 C550 1.398 . S
C550 H538 0.950 . S
C550 C549 1.398 . S
C550 C551 1.391 . S
C551 H539 0.950 . S
C551 C547 1.393 . S
C551 C550 1.391 . S
H552 C560 0.950 . S
H553 C565 0.950 . S
H554 C562 0.950 . S
H555 C564 0.950 . S
H556 C566 0.950 . S
H557 C568 0.950 . S
H558 C570 0.950 . S
H559 C571 0.950 . S
C560 H552 0.950 . S
C560 C561 1.386 . S
C560 C562 1.391 . S
C561 C560 1.386 . S
C561 C565 1.393 . S
C562 H554 0.950 . S
C562 C560 1.391 . S
C562 C563 1.400 . S
C563 C562 1.400 . S
C563 C564 1.398 . S
C563 C569 1.491 . S
C564 H555 0.950 . S
C564 C563 1.398 . S
C564 C565 1.391 . S
C565 H553 0.950 . S
C565 C561 1.393 . S
C565 C564 1.391 . S
C566 H556 0.950 . S
C566 C567 1.386 . S
C566 C568 1.391 . S
C567 C566 1.386 . S
C567 C571 1.393 . S
C568 H557 0.950 . S
C568 C566 1.391 . S
C568 C569 1.400 . S
C569 C563 1.491 . S
C569 C568 1.400 . S
C569 C570 1.398 . S
C570 H558 0.950 . S
C570 C569 1.398 . S
C570 C571 1.391 . S
C571 H559 0.950 . S
C571 C567 1.393 . S
C571 C570 1.391 . S
H572 C580 0.950 . S
H573 C585 0.950 1_455 S
H574 C582 0.950 . S
H575 C584 0.950 . S
H576 C586 0.950 . S
H577 C588 0.950 . S
H578 C590 0.950 . S
H579 C591 0.950 . S
C580 H572 0.950 . S
C580 C581 1.386 . S
C580 C582 1.391 . S
C581 C580 1.386 . S
C581 C585 1.393 . S
C582 H574 0.950 . S
C582 C580 1.391 . S
C582 C583 1.400 . S
C583 C582 1.400 . S
C583 C584 1.398 . S
C583 C589 1.491 . S
C584 H575 0.950 . S
C584 C583 1.398 . S
C584 C585 1.391 . S
C585 H573 0.950 1_655 S
C585 C581 1.393 . S
C585 C584 1.391 . S
C586 H576 0.950 . S
C586 C587 1.386 . S
C586 C588 1.391 . S
C587 C586 1.386 . S
C587 C591 1.393 . S
C588 H577 0.950 . S
C588 C586 1.391 . S
C588 C589 1.400 . S
C589 C583 1.491 . S
C589 C588 1.400 . S
C589 C590 1.398 . S
C590 H578 0.950 . S
C590 C589 1.398 . S
C590 C591 1.391 . S
C591 H579 0.950 . S
C591 C587 1.393 . S
C591 C590 1.391 . S
H592 C600 0.950 . S
H593 C605 0.950 . S
H594 C602 0.950 . S
H595 C604 0.950 . S
H596 C606 0.950 . S
H597 C608 0.950 . S
H598 C610 0.950 . S
H599 C611 0.950 . S
C600 H592 0.950 . S
C600 C601 1.386 . S
C600 C602 1.391 . S
C601 C600 1.386 . S
C601 C605 1.393 . S
C602 H594 0.950 . S
C602 C600 1.391 . S
C602 C603 1.400 . S
C603 C602 1.400 . S
C603 C604 1.398 . S
C603 C609 1.491 . S
C604 H595 0.950 . S
C604 C603 1.398 . S
C604 C605 1.391 . S
C605 H593 0.950 . S
C605 C601 1.393 . S
C605 C604 1.391 . S
C606 H596 0.950 . S
C606 C607 1.386 . S
C606 C608 1.391 . S
C607 C606 1.386 . S
C607 C611 1.393 . S
C608 H597 0.950 . S
C608 C606 1.391 . S
C608 C609 1.400 . S
C609 C603 1.491 . S
C609 C608 1.400 . S
C609 C610 1.398 . S
C610 H598 0.950 . S
C610 C609 1.398 . S
C610 C611 1.391 . S
C611 H599 0.950 . S
C611 C607 1.393 . S
C611 C610 1.391 . S
H612 C620 0.950 . S
H613 C625 0.950 . S
H614 C622 0.950 . S
H615 C624 0.950 . S
H616 C626 0.950 . S
H617 C628 0.950 . S
H618 C630 0.950 . S
H619 C631 0.950 . S
C620 H612 0.950 . S
C620 C621 1.386 . S
C620 C622 1.391 . S
C621 C620 1.386 . S
C621 C625 1.393 . S
C622 H614 0.950 . S
C622 C620 1.391 . S
C622 C623 1.400 . S
C623 C622 1.400 . S
C623 C624 1.398 . S
C623 C629 1.491 . S
C624 H615 0.950 . S
C624 C623 1.398 . S
C624 C625 1.391 . S
C625 H613 0.950 . S
C625 C621 1.393 . S
C625 C624 1.391 . S
C626 H616 0.950 . S
C626 C627 1.386 . S
C626 C628 1.391 . S
C627 C626 1.386 . S
C627 C631 1.393 . S
C628 H617 0.950 . S
C628 C626 1.391 . S
C628 C629 1.400 . S
C629 C623 1.491 . S
C629 C628 1.400 . S
C629 C630 1.398 . S
C630 H618 0.950 . S
C630 C629 1.398 . S
C630 C631 1.391 . S
C631 H619 0.950 . S
C631 C627 1.393 . S
C631 C630 1.391 . S
H632 C640 0.950 . S
H633 C645 0.950 . S
H634 C642 0.950 . S
H635 C644 0.950 . S
H636 C646 0.950 . S
H637 C648 0.950 . S
H638 C650 0.950 . S
H639 C651 0.950 . S
C640 H632 0.950 . S
C640 C641 1.386 . S
C640 C642 1.391 . S
C641 C640 1.386 . S
C641 C645 1.393 . S
C642 H634 0.950 . S
C642 C640 1.391 . S
C642 C643 1.400 . S
C643 C642 1.400 . S
C643 C644 1.398 . S
C643 C649 1.491 . S
C644 H635 0.950 . S
C644 C643 1.398 . S
C644 C645 1.391 . S
C645 H633 0.950 . S
C645 C641 1.393 . S
C645 C644 1.391 . S
C646 H636 0.950 . S
C646 C647 1.386 . S
C646 C648 1.391 . S
C647 C646 1.386 . S
C647 C651 1.393 . S
C648 H637 0.950 . S
C648 C646 1.391 . S
C648 C649 1.400 . S
C649 C643 1.491 . S
C649 C648 1.400 . S
C649 C650 1.398 . S
C650 H638 0.950 . S
C650 C649 1.398 . S
C650 C651 1.391 . S
C651 H639 0.950 . S
C651 C647 1.393 . S
C651 C650 1.391 . S
H652 C660 0.950 . S
H653 C665 0.950 . S
H654 C662 0.950 . S
H655 C664 0.950 . S
H656 C666 0.950 . S
H657 C668 0.950 . S
H658 C670 0.950 . S
H659 C671 0.950 . S
C660 H652 0.950 . S
C660 C661 1.386 . S
C660 C662 1.391 . S
C661 C660 1.386 . S
C661 C665 1.393 . S
C662 H654 0.950 . S
C662 C660 1.391 . S
C662 C663 1.400 . S
C663 C662 1.400 . S
C663 C664 1.398 . S
C663 C669 1.491 . S
C664 H655 0.950 . S
C664 C663 1.398 . S
C664 C665 1.391 . S
C665 H653 0.950 . S
C665 C661 1.393 . S
C665 C664 1.391 . S
C666 H656 0.950 . S
C666 C667 1.386 . S
C666 C668 1.391 . S
C667 C666 1.386 . S
C667 C671 1.393 . S
C668 H657 0.950 . S
C668 C666 1.391 . S
C668 C669 1.400 . S
C669 C663 1.491 . S
C669 C668 1.400 . S
C669 C670 1.398 . S
C670 H658 0.950 . S
C670 C669 1.398 . S
C670 C671 1.391 . S
C671 H659 0.950 . S
C671 C667 1.393 . S
C671 C670 1.391 . S
H672 C680 0.950 . S
H673 C685 0.950 . S
H674 C682 0.950 . S
H675 C684 0.950 . S
H676 C686 0.950 . S
H677 C688 0.950 . S
H678 C690 0.950 . S
H679 C691 0.950 . S
C680 H672 0.950 . S
C680 C681 1.386 . S
C680 C682 1.391 . S
C681 C680 1.386 . S
C681 C685 1.393 . S
C682 H674 0.950 . S
C682 C680 1.391 . S
C682 C683 1.400 . S
C683 C682 1.400 . S
C683 C684 1.398 . S
C683 C689 1.491 . S
C684 H675 0.950 . S
C684 C683 1.398 . S
C684 C685 1.391 . S
C685 H673 0.950 . S
C685 C681 1.393 . S
C685 C684 1.391 . S
C686 H676 0.950 . S
C686 C687 1.386 . S
C686 C688 1.391 . S
C687 C686 1.386 . S
C687 C691 1.393 . S
C688 H677 0.950 . S
C688 C686 1.391 . S
C688 C689 1.400 . S
C689 C683 1.491 . S
C689 C688 1.400 . S
C689 C690 1.398 . S
C690 H678 0.950 . S
C690 C689 1.398 . S
C690 C691 1.391 . S
C691 H679 0.950 . S
C691 C687 1.393 . S
C691 C690 1.391 . S
H692 C700 0.950 . S
H693 C705 0.950 . S
H694 C702 0.950 . S
H695 C704 0.950 . S
H696 C706 0.950 . S
H697 C708 0.950 . S
H698 C710 0.950 . S
H699 C711 0.950 . S
C700 H692 0.950 . S
C700 C701 1.386 . S
C700 C702 1.391 . S
C701 C700 1.386 . S
C701 C705 1.393 . S
C702 H694 0.950 . S
C702 C700 1.391 . S
C702 C703 1.400 . S
C703 C702 1.400 . S
C703 C704 1.398 . S
C703 C709 1.491 . S
C704 H695 0.950 . S
C704 C703 1.398 . S
C704 C705 1.391 . S
C705 H693 0.950 . S
C705 C701 1.393 . S
C705 C704 1.391 . S
C706 H696 0.950 . S
C706 C707 1.386 . S
C706 C708 1.391 . S
C707 C706 1.386 . S
C707 C711 1.393 . S
C708 H697 0.950 . S
C708 C706 1.391 . S
C708 C709 1.400 . S
C709 C703 1.491 . S
C709 C708 1.400 . S
C709 C710 1.398 . S
C710 H698 0.950 . S
C710 C709 1.398 . S
C710 C711 1.391 . S
C711 H699 0.950 . S
C711 C707 1.393 . S
C711 C710 1.391 . S
H712 C720 0.950 . S
H713 C725 0.950 . S
H714 C722 0.950 . S
H715 C724 0.950 . S
H716 C726 0.950 . S
H717 C728 0.950 . S
H718 C730 0.950 . S
H719 C731 0.950 . S
C720 H712 0.950 . S
C720 C721 1.386 . S
C720 C722 1.391 . S
C721 C720 1.386 . S
C721 C725 1.393 . S
C722 H714 0.950 . S
C722 C720 1.391 . S
C722 C723 1.400 . S
C723 C722 1.400 . S
C723 C724 1.398 . S
C723 C729 1.491 . S
C724 H715 0.950 . S
C724 C723 1.398 . S
C724 C725 1.391 . S
C725 H713 0.950 . S
C725 C721 1.393 . S
C725 C724 1.391 . S
C726 H716 0.950 . S
C726 C727 1.386 . S
C726 C728 1.391 . S
C727 C726 1.386 . S
C727 C731 1.393 . S
C728 H717 0.950 . S
C728 C726 1.391 . S
C728 C729 1.400 . S
C729 C723 1.491 . S
C729 C728 1.400 . S
C729 C730 1.398 . S
C730 H718 0.950 . S
C730 C729 1.398 . S
C730 C731 1.391 . S
C731 H719 0.950 . S
C731 C727 1.393 . S
C731 C730 1.391 . S
H732 C740 0.950 . S
H733 C745 0.950 . S
H734 C742 0.950 . S
H735 C744 0.950 . S
H736 C746 0.950 . S
H737 C748 0.950 . S
H738 C750 0.950 . S
H739 C751 0.950 . S
C740 H732 0.950 . S
C740 C741 1.386 . S
C740 C742 1.391 . S
C741 C740 1.386 . S
C741 C745 1.393 . S
C742 H734 0.950 . S
C742 C740 1.391 . S
C742 C743 1.400 . S
C743 C742 1.400 . S
C743 C744 1.398 . S
C743 C749 1.491 . S
C744 H735 0.950 . S
C744 C743 1.398 . S
C744 C745 1.391 . S
C745 H733 0.950 . S
C745 C741 1.393 . S
C745 C744 1.391 . S
C746 H736 0.950 . S
C746 C747 1.386 . S
C746 C748 1.391 . S
C747 C746 1.386 . S
C747 C751 1.393 . S
C748 H737 0.950 . S
C748 C746 1.391 . S
C748 C749 1.400 . S
C749 C743 1.491 . S
C749 C748 1.400 . S
C749 C750 1.398 . S
C750 H738 0.950 . S
C750 C749 1.398 . S
C750 C751 1.391 . S
C751 H739 0.950 . S
C751 C747 1.393 . S
C751 C750 1.391 . S
H752 C760 0.950 . S
H753 C765 0.950 . S
H754 C762 0.950 . S
H755 C764 0.950 . S
H756 C766 0.950 . S
H757 C768 0.950 . S
H758 C770 0.950 . S
H759 C771 0.950 . S
C760 H752 0.950 . S
C760 C761 1.386 . S
C760 C762 1.391 . S
C761 C760 1.386 . S
C761 C765 1.393 . S
C762 H754 0.950 . S
C762 C760 1.391 . S
C762 C763 1.400 . S
C763 C762 1.400 . S
C763 C764 1.398 . S
C763 C769 1.491 . S
C764 H755 0.950 . S
C764 C763 1.398 . S
C764 C765 1.391 . S
C765 H753 0.950 . S
C765 C761 1.393 . S
C765 C764 1.391 . S
C766 H756 0.950 . S
C766 C767 1.386 . S
C766 C768 1.391 . S
C767 C766 1.386 . S
C767 C771 1.393 . S
C768 H757 0.950 . S
C768 C766 1.391 . S
C768 C769 1.400 . S
C769 C763 1.491 . S
C769 C768 1.400 . S
C769 C770 1.398 . S
C770 H758 0.950 . S
C770 C769 1.398 . S
C770 C771 1.391 . S
C771 H759 0.950 . S
C771 C767 1.393 . S
C771 C770 1.391 . S
H772 C780 0.950 . S
H773 C785 0.950 . S
H774 C782 0.950 . S
H775 C784 0.950 . S
H776 C786 0.950 . S
H777 C788 0.950 . S
H778 C790 0.950 . S
H779 C791 0.950 . S
C780 H772 0.950 . S
C780 C781 1.386 . S
C780 C782 1.391 . S
C781 C780 1.386 . S
C781 C785 1.393 . S
C782 H774 0.950 . S
C782 C780 1.391 . S
C782 C783 1.400 . S
C783 C782 1.400 . S
C783 C784 1.398 . S
C783 C789 1.491 . S
C784 H775 0.950 . S
C784 C783 1.398 . S
C784 C785 1.391 . S
C785 H773 0.950 . S
C785 C781 1.393 . S
C785 C784 1.391 . S
C786 H776 0.950 . S
C786 C787 1.386 . S
C786 C788 1.391 . S
C787 C786 1.386 . S
C787 C791 1.393 . S
C788 H777 0.950 . S
C788 C786 1.391 . S
C788 C789 1.400 . S
C789 C783 1.491 . S
C789 C788 1.400 . S
C789 C790 1.398 . S
C790 H778 0.950 . S
C790 C789 1.398 . S
C790 C791 1.391 . S
C791 H779 0.950 . S
C791 C787 1.393 . S
C791 C790 1.391 . S
H792 C800 0.950 . S
H793 C805 0.950 . S
H794 C802 0.950 . S
H795 C804 0.950 . S
H796 C806 0.950 . S
H797 C808 0.950 . S
H798 C810 0.950 . S
H799 C811 0.950 . S
C800 H792 0.950 . S
C800 C801 1.386 . S
C800 C802 1.391 . S
C801 C800 1.386 . S
C801 C805 1.393 . S
C802 H794 0.950 . S
C802 C800 1.391 . S
C802 C803 1.400 . S
C803 C802 1.400 . S
C803 C804 1.398 . S
C803 C809 1.491 . S
C804 H795 0.950 . S
C804 C803 1.398 . S
C804 C805 1.391 . S
C805 H793 0.950 . S
C805 C801 1.393 . S
C805 C804 1.391 . S
C806 H796 0.950 . S
C806 C807 1.386 . S
C806 C808 1.391 . S
C807 C806 1.386 . S
C807 C811 1.393 . S
C808 H797 0.950 . S
C808 C806 1.391 . S
C808 C809 1.400 . S
C809 C803 1.491 . S
C809 C808 1.400 . S
C809 C810 1.398 . S
C810 H798 0.950 . S
C810 C809 1.398 . S
C810 C811 1.391 . S
C811 H799 0.950 . S
C811 C807 1.393 . S
C811 C810 1.391 . S
H812 C820 0.950 . S
H813 C825 0.950 . S
H814 C822 0.950 . S
H815 C824 0.950 . S
H816 C826 0.950 . S
H817 C828 0.950 . S
H818 C830 0.950 . S
H819 C831 0.950 . S
C820 H812 0.950 . S
C820 C821 1.386 . S
C820 C822 1.391 . S
C821 C820 1.386 . S
C821 C825 1.393 . S
C822 H814 0.950 . S
C822 C820 1.391 . S
C822 C823 1.400 . S
C823 C822 1.400 . S
C823 C824 1.398 . S
C823 C829 1.491 . S
C824 H815 0.950 . S
C824 C823 1.398 . S
C824 C825 1.391 . S
C825 H813 0.950 . S
C825 C821 1.393 . S
C825 C824 1.391 . S
C826 H816 0.950 . S
C826 C827 1.386 . S
C826 C828 1.391 . S
C827 C826 1.386 . S
C827 C831 1.393 . S
C828 H817 0.950 . S
C828 C826 1.391 . S
C828 C829 1.400 . S
C829 C823 1.491 . S
C829 C828 1.400 . S
C829 C830 1.398 . S
C830 H818 0.950 . S
C830 C829 1.398 . S
C830 C831 1.391 . S
C831 H819 0.950 . S
C831 C827 1.393 . S
C831 C830 1.391 . S
H832 C840 0.950 . S
H833 C845 0.950 . S
H834 C842 0.950 . S
H835 C844 0.950 . S
H836 C846 0.950 . S
H837 C848 0.950 . S
H838 C850 0.950 . S
H839 C851 0.950 . S
C840 H832 0.950 . S
C840 C841 1.386 . S
C840 C842 1.391 . S
C841 C840 1.386 . S
C841 C845 1.393 . S
C842 H834 0.950 . S
C842 C840 1.391 . S
C842 C843 1.400 . S
C843 C842 1.400 . S
C843 C844 1.398 . S
C843 C849 1.491 1_554 S
C844 H835 0.950 . S
C844 C843 1.398 . S
C844 C845 1.391 . S
C845 H833 0.950 . S
C845 C841 1.393 . S
C845 C844 1.391 . S
C846 H836 0.950 . S
C846 C847 1.386 . S
C846 C848 1.391 . S
C847 C846 1.386 . S
C847 C851 1.393 . S
C848 H837 0.950 . S
C848 C846 1.391 . S
C848 C849 1.400 . S
C849 C843 1.491 1_556 S
C849 C848 1.400 . S
C849 C850 1.398 . S
C850 H838 0.950 . S
C850 C849 1.398 . S
C850 C851 1.391 . S
C851 H839 0.950 . S
C851 C847 1.393 . S
C851 C850 1.391 . S
H852 C860 0.950 . S
H853 C865 0.950 . S
H854 C862 0.950 . S
H855 C864 0.950 . S
H856 C866 0.950 . S
H857 C868 0.950 . S
H858 C870 0.950 . S
H859 C871 0.950 . S
C860 H852 0.950 . S
C860 C861 1.386 . S
C860 C862 1.391 . S
C861 C860 1.386 . S
C861 C865 1.393 . S
C862 H854 0.950 . S
C862 C860 1.391 . S
C862 C863 1.400 . S
C863 C862 1.400 . S
C863 C864 1.398 . S
C863 C869 1.491 1_554 S
C864 H855 0.950 . S
C864 C863 1.398 . S
C864 C865 1.391 . S
C865 H853 0.950 . S
C865 C861 1.393 . S
C865 C864 1.391 . S
C866 H856 0.950 . S
C866 C867 1.386 . S
C866 C868 1.391 . S
C867 C866 1.386 . S
C867 C871 1.393 . S
C868 H857 0.950 . S
C868 C866 1.391 . S
C868 C869 1.400 . S
C869 C863 1.491 1_556 S
C869 C868 1.400 . S
C869 C870 1.398 . S
C870 H858 0.950 . S
C870 C869 1.398 . S
C870 C871 1.391 . S
C871 H859 0.950 . S
C871 C867 1.393 . S
C871 C870 1.391 . S
H872 C880 0.950 . S
H873 C885 0.950 . S
H874 C882 0.950 . S
H875 C884 0.950 . S
H876 C886 0.950 . S
H877 C888 0.950 . S
H878 C890 0.950 . S
H879 C891 0.950 . S
C880 H872 0.950 . S
C880 C881 1.386 . S
C880 C882 1.391 . S
C881 C880 1.386 . S
C881 C885 1.393 . S
C882 H874 0.950 . S
C882 C880 1.391 . S
C882 C883 1.400 . S
C883 C882 1.400 . S
C883 C884 1.398 . S
C883 C889 1.491 1_556 S
C884 H875 0.950 . S
C884 C883 1.398 . S
C884 C885 1.391 . S
C885 H873 0.950 . S
C885 C881 1.393 . S
C885 C884 1.391 . S
C886 H876 0.950 . S
C886 C887 1.386 . S
C886 C888 1.391 . S
C887 C886 1.386 . S
C887 C891 1.393 . S
C888 H877 0.950 . S
C888 C886 1.391 . S
C888 C889 1.400 . S
C889 C883 1.491 1_554 S
C889 C888 1.400 . S
C889 C890 1.398 . S
C890 H878 0.950 . S
C890 C889 1.398 . S
C890 C891 1.391 . S
C891 H879 0.950 . S
C891 C887 1.393 . S
C891 C890 1.391 . S
H892 C900 0.950 . S
H893 C905 0.950 . S
H894 C902 0.950 . S
H895 C904 0.950 . S
H896 C906 0.950 . S
H897 C908 0.950 . S
H898 C910 0.950 . S
H899 C911 0.950 . S
C900 H892 0.950 . S
C900 C901 1.386 . S
C900 C902 1.391 . S
C901 C900 1.386 . S
C901 C905 1.393 . S
C902 H894 0.950 . S
C902 C900 1.391 . S
C902 C903 1.400 . S
C903 C902 1.400 . S
C903 C904 1.398 . S
C903 C909 1.491 1_554 S
C904 H895 0.950 . S
C904 C903 1.398 . S
C904 C905 1.391 . S
C905 H893 0.950 . S
C905 C901 1.393 . S
C905 C904 1.391 . S
C906 H896 0.950 . S
C906 C907 1.386 . S
C906 C908 1.391 . S
C907 C906 1.386 . S
C907 C911 1.393 . S
C908 H897 0.950 . S
C908 C906 1.391 . S
C908 C909 1.400 . S
C909 C903 1.491 1_556 S
C909 C908 1.400 . S
C909 C910 1.398 . S
C910 H898 0.950 . S
C910 C909 1.398 . S
C910 C911 1.391 . S
C911 H899 0.950 . S
C911 C907 1.393 . S
C911 C910 1.391 . S
H912 C920 0.950 . S
H913 C925 0.950 . S
H914 C922 0.950 . S
H915 C924 0.950 . S
H916 C926 0.950 . S
H917 C928 0.950 . S
H918 C930 0.950 . S
H919 C931 0.950 . S
C920 H912 0.950 . S
C920 C921 1.386 . S
C920 C922 1.391 . S
C921 C920 1.386 . S
C921 C925 1.393 . S
C922 H914 0.950 . S
C922 C920 1.391 . S
C922 C923 1.400 . S
C923 C922 1.400 . S
C923 C924 1.398 . S
C923 C929 1.491 . S
C924 H915 0.950 . S
C924 C923 1.398 . S
C924 C925 1.391 . S
C925 H913 0.950 . S
C925 C921 1.393 . S
C925 C924 1.391 . S
C926 H916 0.950 . S
C926 C927 1.386 . S
C926 C928 1.391 . S
C927 C926 1.386 . S
C927 C931 1.393 . S
C928 H917 0.950 . S
C928 C926 1.391 . S
C928 C929 1.400 . S
C929 C923 1.491 . S
C929 C928 1.400 . S
C929 C930 1.398 . S
C930 H918 0.950 . S
C930 C929 1.398 . S
C930 C931 1.391 . S
C931 H919 0.950 . S
C931 C927 1.393 . S
C931 C930 1.391 . S
H932 C940 0.950 . S
H933 C945 0.950 . S
H934 C942 0.950 . S
H935 C944 0.950 . S
H936 C946 0.950 . S
H937 C948 0.950 . S
H938 C950 0.950 . S
H939 C951 0.950 . S
C940 H932 0.950 . S
C940 C941 1.386 . S
C940 C942 1.391 . S
C941 C940 1.386 . S
C941 C945 1.393 . S
C942 H934 0.950 . S
C942 C940 1.391 . S
C942 C943 1.400 . S
C943 C942 1.400 . S
C943 C944 1.398 . S
C943 C949 1.491 . S
C944 H935 0.950 . S
C944 C943 1.398 . S
C944 C945 1.391 . S
C945 H933 0.950 . S
C945 C941 1.393 . S
C945 C944 1.391 . S
C946 H936 0.950 . S
C946 C947 1.386 . S
C946 C948 1.391 . S
C947 C946 1.386 . S
C947 C951 1.393 . S
C948 H937 0.950 . S
C948 C946 1.391 . S
C948 C949 1.400 . S
C949 C943 1.491 . S
C949 C948 1.400 . S
C949 C950 1.398 . S
C950 H938 0.950 . S
C950 C949 1.398 . S
C950 C951 1.391 . S
C951 H939 0.950 . S
C951 C947 1.393 . S
C951 C950 1.391 . S
H952 C960 0.950 . S
H953 C965 0.950 . S
H954 C962 0.950 . S
H955 C964 0.950 . S
H956 C966 0.950 . S
H957 C968 0.950 . S
H958 C970 0.950 . S
H959 C971 0.950 . S
C960 H952 0.950 . S
C960 C961 1.386 . S
C960 C962 1.391 . S
C961 C960 1.386 . S
C961 C965 1.393 . S
C962 H954 0.950 . S
C962 C960 1.391 . S
C962 C963 1.400 . S
C963 C962 1.400 . S
C963 C964 1.398 . S
C963 C969 1.491 . S
C964 H955 0.950 . S
C964 C963 1.398 . S
C964 C965 1.391 . S
C965 H953 0.950 . S
C965 C961 1.393 . S
C965 C964 1.391 . S
C966 H956 0.950 . S
C966 C967 1.386 . S
C966 C968 1.391 . S
C967 C966 1.386 . S
C967 C971 1.393 . S
C968 H957 0.950 . S
C968 C966 1.391 . S
C968 C969 1.400 . S
C969 C963 1.491 . S
C969 C968 1.400 . S
C969 C970 1.398 . S
C970 H958 0.950 . S
C970 C969 1.398 . S
C970 C971 1.391 . S
C971 H959 0.950 . S
C971 C967 1.393 . S
C971 C970 1.391 . S
H972 C980 0.950 . S
H973 C985 0.950 . S
H974 C982 0.950 . S
H975 C984 0.950 . S
H976 C986 0.950 . S
H977 C988 0.950 . S
H978 C990 0.950 . S
H979 C991 0.950 . S
C980 H972 0.950 . S
C980 C981 1.386 . S
C980 C982 1.391 . S
C981 C980 1.386 . S
C981 C985 1.393 . S
C982 H974 0.950 . S
C982 C980 1.391 . S
C982 C983 1.400 . S
C983 C982 1.400 . S
C983 C984 1.398 . S
C983 C989 1.491 . S
C984 H975 0.950 . S
C984 C983 1.398 . S
C984 C985 1.391 . S
C985 H973 0.950 . S
C985 C981 1.393 . S
C985 C984 1.391 . S
C986 H976 0.950 . S
C986 C987 1.386 . S
C986 C988 1.391 . S
C987 C986 1.386 . S
C987 C991 1.393 . S
C988 H977 0.950 . S
C988 C986 1.391 . S
C988 C989 1.400 . S
C989 C983 1.491 . S
C989 C988 1.400 . S
C989 C990 1.398 . S
C990 H978 0.950 . S
C990 C989 1.398 . S
C990 C991 1.391 . S
C991 H979 0.950 . S
C991 C987 1.393 . S
C991 C990 1.391 . S
H992 C1000 0.950 . S
H993 C1005 0.950 . S
H994 C1002 0.950 . S
H995 C1004 0.950 . S
H996 C1006 0.950 . S
H997 C1008 0.950 . S
H998 C1010 0.950 . S
H999 C1011 0.950 . S
C1000 H992 0.950 . S
C1000 C1001 1.386 1_655 S
C1000 C1002 1.391 . S
C1001 C1000 1.386 1_455 S
C1001 C1005 1.393 . S
C1002 H994 0.950 . S
C1002 C1000 1.391 . S
C1002 C1003 1.400 1_655 S
C1003 C1002 1.400 1_455 S
C1003 C1004 1.398 . S
C1003 C1009 1.491 1_455 S
C1004 H995 0.950 . S
C1004 C1003 1.398 . S
C1004 C1005 1.391 . S
C1005 H993 0.950 . S
C1005 C1001 1.393 . S
C1005 C1004 1.391 . S
C1006 H996 0.950 . S
C1006 C1007 1.386 1_455 S
C1006 C1008 1.391 . S
C1007 C1006 1.386 1_655 S
C1007 C1011 1.393 . S
C1008 H997 0.950 . S
C1008 C1006 1.391 . S
C1008 C1009 1.400 1_455 S
C1009 C1003 1.491 1_655 S
C1009 C1008 1.400 1_655 S
C1009 C1010 1.398 . S
C1010 H998 0.950 . S
C1010 C1009 1.398 . S
C1010 C1011 1.391 . S
C1011 H999 0.950 . S
C1011 C1007 1.393 . S
C1011 C1010 1.391 . S
H1012 C1020 0.950 . S
H1013 C1025 0.950 . S
H1014 C1022 0.950 . S
H1015 C1024 0.950 . S
H1016 C1026 0.950 . S
H1017 C1028 0.950 . S
H1018 C1030 0.950 . S
H1019 C1031 0.950 . S
C1020 H1012 0.950 . S
C1020 C1021 1.386 . S
C1020 C1022 1.391 . S
C1021 C1020 1.386 . S
C1021 C1025 1.393 1_565 S
C1022 H1014 0.950 . S
C1022 C1020 1.391 . S
C1022 C1023 1.400 . S
C1023 C1022 1.400 . S
C1023 C1024 1.398 1_565 S
C1023 C1029 1.491 1_565 S
C1024 H1015 0.950 . S
C1024 C1023 1.398 1_545 S
C1024 C1025 1.391 . S
C1025 H1013 0.950 . S
C1025 C1021 1.393 1_545 S
C1025 C1024 1.391 . S
C1026 H1016 0.950 . S
C1026 C1027 1.386 . S
C1026 C1028 1.391 . S
C1027 C1026 1.386 . S
C1027 C1031 1.393 1_545 S
C1028 H1017 0.950 . S
C1028 C1026 1.391 . S
C1028 C1029 1.400 . S
C1029 C1023 1.491 1_545 S
C1029 C1028 1.400 . S
C1029 C1030 1.398 1_545 S
C1030 H1018 0.950 . S
C1030 C1029 1.398 1_565 S
C1030 C1031 1.391 . S
C1031 H1019 0.950 . S
C1031 C1027 1.393 1_565 S
C1031 C1030 1.391 . S
H1032 C1040 0.950 . S
H1033 C1045 0.950 . S
H1034 C1042 0.950 . S
H1035 C1044 0.950 . S
H1036 C1046 0.950 . S
H1037 C1048 0.950 . S
H1038 C1050 0.950 . S
H1039 C1051 0.950 . S
C1040 H1032 0.950 . S
C1040 C1041 1.386 . S
C1040 C1042 1.391 . S
C1041 C1040 1.386 . S
C1041 C1045 1.393 1_455 S
C1042 H1034 0.950 . S
C1042 C1040 1.391 . S
C1042 C1043 1.400 . S
C1043 C1042 1.400 . S
C1043 C1044 1.398 1_455 S
C1043 C1049 1.491 1_455 S
C1044 H1035 0.950 . S
C1044 C1043 1.398 1_655 S
C1044 C1045 1.391 . S
C1045 H1033 0.950 . S
C1045 C1041 1.393 1_655 S
C1045 C1044 1.391 . S
C1046 H1036 0.950 . S
C1046 C1047 1.386 . S
C1046 C1048 1.391 . S
C1047 C1046 1.386 . S
C1047 C1051 1.393 1_655 S
C1048 H1037 0.950 . S
C1048 C1046 1.391 . S
C1048 C1049 1.400 . S
C1049 C1043 1.491 1_655 S
C1049 C1048 1.400 . S
C1049 C1050 1.398 1_655 S
C1050 H1038 0.950 . S
C1050 C1049 1.398 1_455 S
C1050 C1051 1.391 . S
C1051 H1039 0.950 . S
C1051 C1047 1.393 1_455 S
C1051 C1050 1.391 . S
H1052 C1060 0.950 . S
H1053 C1065 0.950 . S
H1054 C1062 0.950 . S
H1055 C1064 0.950 . S
H1056 C1066 0.950 . S
H1057 C1068 0.950 . S
H1058 C1070 0.950 . S
H1059 C1071 0.950 . S
C1060 H1052 0.950 . S
C1060 C1061 1.386 . S
C1060 C1062 1.391 . S
C1061 C1060 1.386 . S
C1061 C1065 1.393 1_545 S
C1062 H1054 0.950 . S
C1062 C1060 1.391 . S
C1062 C1063 1.400 . S
C1063 C1062 1.400 . S
C1063 C1064 1.398 1_545 S
C1063 C1069 1.491 1_545 S
C1064 H1055 0.950 . S
C1064 C1063 1.398 1_565 S
C1064 C1065 1.391 . S
C1065 H1053 0.950 . S
C1065 C1061 1.393 1_565 S
C1065 C1064 1.391 . S
C1066 H1056 0.950 . S
C1066 C1067 1.386 . S
C1066 C1068 1.391 . S
C1067 C1066 1.386 . S
C1067 C1071 1.393 1_565 S
C1068 H1057 0.950 . S
C1068 C1066 1.391 . S
C1068 C1069 1.400 . S
C1069 C1063 1.491 1_565 S
C1069 C1068 1.400 . S
C1069 C1070 1.398 1_565 S
C1070 H1058 0.950 . S
C1070 C1069 1.398 1_545 S
C1070 C1071 1.391 . S
C1071 H1059 0.950 . S
C1071 C1067 1.393 1_545 S
C1071 C1070 1.391 . S
H1072 C1080 0.950 . S
H1073 C1085 0.950 . S
H1074 C1082 0.950 . S
H1075 C1084 0.950 . S
H1076 C1086 0.950 . S
H1077 C1088 0.950 . S
H1078 C1090 0.950 . S
H1079 C1091 0.950 . S
C1080 H1072 0.950 . S
C1080 C1081 1.386 . S
C1080 C1082 1.391 . S
C1081 C1080 1.386 . S
C1081 C1085 1.393 1_455 S
C1082 H1074 0.950 . S
C1082 C1080 1.391 . S
C1082 C1083 1.400 . S
C1083 C1082 1.400 . S
C1083 C1084 1.398 1_455 S
C1083 C1089 1.491 1_455 S
C1084 H1075 0.950 . S
C1084 C1083 1.398 1_655 S
C1084 C1085 1.391 . S
C1085 H1073 0.950 . S
C1085 C1081 1.393 1_655 S
C1085 C1084 1.391 . S
C1086 H1076 0.950 . S
C1086 C1087 1.386 . S
C1086 C1088 1.391 . S
C1087 C1086 1.386 . S
C1087 C1091 1.393 1_655 S
C1088 H1077 0.950 . S
C1088 C1086 1.391 . S
C1088 C1089 1.400 . S
C1089 C1083 1.491 1_655 S
C1089 C1088 1.400 . S
C1089 C1090 1.398 1_655 S
C1090 H1078 0.950 . S
C1090 C1089 1.398 1_455 S
C1090 C1091 1.391 . S
C1091 H1079 0.950 . S
C1091 C1087 1.393 1_455 S
C1091 C1090 1.391 . S
H1092 C1100 0.950 . S
H1093 C1105 0.950 . S
H1094 C1102 0.955 . S
H1095 C1104 0.950 . S
H1096 C1106 0.950 . S
H1097 C1108 0.955 . S
H1098 C1110 0.950 . S
H1099 C1111 0.950 . S
C1100 H1092 0.950 . S
C1100 C1101 1.386 . S
C1100 C1102 1.391 . S
C1101 C1100 1.386 . S
C1101 C1105 1.393 . S
C1102 H1094 0.955 . S
C1102 C1100 1.391 . S
C1102 C1103 1.400 . S
C1103 C1102 1.400 . S
C1103 C1104 1.398 . S
C1103 C1109 1.491 1_545 S
C1104 H1095 0.950 . S
C1104 C1103 1.398 . S
C1104 C1105 1.391 . S
C1105 H1093 0.950 . S
C1105 C1101 1.393 . S
C1105 C1104 1.391 . S
C1106 H1096 0.950 . S
C1106 C1107 1.386 . S
C1106 C1108 1.391 . S
C1107 C1106 1.386 . S
C1107 C1111 1.393 . S
C1108 H1097 0.955 . S
C1108 C1106 1.391 . S
C1108 C1109 1.400 . S
C1109 C1103 1.491 1_565 S
C1109 C1108 1.400 . S
C1109 C1110 1.398 . S
C1110 H1098 0.950 . S
C1110 C1109 1.398 . S
C1110 C1111 1.391 . S
C1111 H1099 0.950 . S
C1111 C1107 1.393 . S
C1111 C1110 1.391 . S
H1112 C1120 0.950 . S
H1113 C1125 0.950 . S
H1114 C1122 0.950 . S
H1115 C1124 0.950 . S
H1116 C1126 0.950 . S
H1117 C1128 0.950 . S
H1118 C1130 0.950 . S
H1119 C1131 0.950 . S
C1120 H1112 0.950 . S
C1120 C1121 1.386 1_455 S
C1120 C1122 1.391 . S
C1121 C1120 1.386 1_655 S
C1121 C1125 1.393 . S
C1122 H1114 0.950 . S
C1122 C1120 1.391 . S
C1122 C1123 1.400 1_455 S
C1123 C1122 1.400 1_655 S
C1123 C1124 1.398 . S
C1123 C1129 1.491 1_655 S
C1124 H1115 0.950 . S
C1124 C1123 1.398 . S
C1124 C1125 1.391 . S
C1125 H1113 0.950 . S
C1125 C1121 1.393 . S
C1125 C1124 1.391 . S
C1126 H1116 0.950 . S
C1126 C1127 1.386 1_655 S
C1126 C1128 1.391 . S
C1127 C1126 1.386 1_455 S
C1127 C1131 1.393 . S
C1128 H1117 0.950 . S
C1128 C1126 1.391 . S
C1128 C1129 1.400 1_655 S
C1129 C1123 1.491 1_455 S
C1129 C1128 1.400 1_455 S
C1129 C1130 1.398 . S
C1130 H1118 0.950 . S
C1130 C1129 1.398 . S
C1130 C1131 1.391 . S
C1131 H1119 0.950 . S
C1131 C1127 1.393 . S
C1131 C1130 1.391 . S
H1132 C1140 0.950 . S
H1133 C1145 0.950 . S
H1134 C1142 0.950 . S
H1135 C1144 0.950 . S
H1136 C1146 0.950 . S
H1137 C1148 0.950 . S
H1138 C1150 0.950 . S
H1139 C1151 0.950 . S
C1140 H1132 0.950 . S
C1140 C1141 1.386 . S
C1140 C1142 1.391 . S
C1141 C1140 1.386 . S
C1141 C1145 1.393 1_545 S
C1142 H1134 0.950 . S
C1142 C1140 1.391 . S
C1142 C1143 1.400 . S
C1143 C1142 1.400 . S
C1143 C1144 1.398 1_545 S
C1143 C1149 1.491 1_545 S
C1144 H1135 0.950 . S
C1144 C1143 1.398 1_565 S
C1144 C1145 1.391 . S
C1145 H1133 0.950 . S
C1145 C1141 1.393 1_565 S
C1145 C1144 1.391 . S
C1146 H1136 0.950 . S
C1146 C1147 1.386 . S
C1146 C1148 1.391 . S
C1147 C1146 1.386 . S
C1147 C1151 1.393 1_565 S
C1148 H1137 0.950 . S
C1148 C1146 1.391 . S
C1148 C1149 1.400 . S
C1149 C1143 1.491 1_565 S
C1149 C1148 1.400 . S
C1149 C1150 1.398 1_565 S
C1150 H1138 0.950 . S
C1150 C1149 1.398 1_545 S
C1150 C1151 1.391 . S
C1151 H1139 0.950 . S
C1151 C1147 1.393 1_545 S
C1151 C1150 1.391 . S
H1152 C1160 0.950 . S
H1153 C1165 0.950 . S
H1154 C1162 0.950 . S
H1155 C1164 0.950 . S
H1156 C1166 0.950 . S
H1157 C1168 0.950 . S
H1158 C1170 0.950 . S
H1159 C1171 0.950 . S
C1160 H1152 0.950 . S
C1160 C1161 1.386 . S
C1160 C1162 1.391 . S
C1161 C1160 1.386 . S
C1161 C1165 1.393 . S
C1162 H1154 0.950 . S
C1162 C1160 1.391 . S
C1162 C1163 1.400 . S
C1163 C1162 1.400 . S
C1163 C1164 1.398 . S
C1163 C1169 1.491 1_455 S
C1164 H1155 0.950 . S
C1164 C1163 1.398 . S
C1164 C1165 1.391 . S
C1165 H1153 0.950 . S
C1165 C1161 1.393 . S
C1165 C1164 1.391 . S
C1166 H1156 0.950 . S
C1166 C1167 1.386 . S
C1166 C1168 1.391 . S
C1167 C1166 1.386 . S
C1167 C1171 1.393 . S
C1168 H1157 0.950 . S
C1168 C1166 1.391 . S
C1168 C1169 1.400 . S
C1169 C1163 1.491 1_655 S
C1169 C1168 1.400 . S
C1169 C1170 1.398 . S
C1170 H1158 0.950 . S
C1170 C1169 1.398 . S
C1170 C1171 1.391 . S
C1171 H1159 0.950 . S
C1171 C1167 1.393 . S
C1171 C1170 1.391 . S
H1172 C1180 0.950 . S
H1173 C1185 0.950 . S
H1174 C1182 0.950 . S
H1175 C1184 0.950 . S
H1176 C1186 0.950 . S
H1177 C1188 0.950 . S
H1178 C1190 0.950 . S
H1179 C1191 0.950 . S
C1180 H1172 0.950 . S
C1180 C1181 1.386 . S
C1180 C1182 1.391 . S
C1181 C1180 1.386 . S
C1181 C1185 1.393 . S
C1182 H1174 0.950 . S
C1182 C1180 1.391 . S
C1182 C1183 1.400 . S
C1183 C1182 1.400 . S
C1183 C1184 1.398 . S
C1183 C1189 1.491 1_545 S
C1184 H1175 0.950 . S
C1184 C1183 1.398 . S
C1184 C1185 1.391 . S
C1185 H1173 0.950 . S
C1185 C1181 1.393 . S
C1185 C1184 1.391 . S
C1186 H1176 0.950 . S
C1186 C1187 1.386 . S
C1186 C1188 1.391 . S
C1187 C1186 1.386 . S
C1187 C1191 1.393 . S
C1188 H1177 0.950 . S
C1188 C1186 1.391 . S
C1188 C1189 1.400 . S
C1189 C1183 1.491 1_565 S
C1189 C1188 1.400 . S
C1189 C1190 1.398 . S
C1190 H1178 0.950 . S
C1190 C1189 1.398 . S
C1190 C1191 1.391 . S
C1191 H1179 0.950 . S
C1191 C1187 1.393 . S
C1191 C1190 1.391 . S
H1192 C1200 0.950 . S
H1193 C1205 0.950 . S
H1194 C1202 0.950 . S
H1195 C1204 0.969 . S
H1196 C1206 0.950 . S
H1197 C1208 0.950 . S
H1198 C1210 0.969 . S
H1199 C1211 0.950 . S
C1200 H1192 0.950 . S
C1200 C1201 1.386 . S
C1200 C1202 1.391 . S
C1201 C1200 1.386 . S
C1201 C1205 1.393 . S
C1202 H1194 0.950 . S
C1202 C1200 1.391 . S
C1202 C1203 1.400 . S
C1203 C1202 1.400 . S
C1203 C1204 1.398 . S
C1203 C1209 1.491 1_455 S
C1204 H1195 0.969 . S
C1204 C1203 1.398 . S
C1204 C1205 1.391 . S
C1205 H1193 0.950 . S
C1205 C1201 1.393 . S
C1205 C1204 1.391 . S
C1206 H1196 0.950 . S
C1206 C1207 1.386 . S
C1206 C1208 1.391 . S
C1207 C1206 1.386 . S
C1207 C1211 1.393 . S
C1208 H1197 0.950 . S
C1208 C1206 1.391 . S
C1208 C1209 1.400 . S
C1209 C1203 1.491 1_655 S
C1209 C1208 1.400 . S
C1209 C1210 1.398 . S
C1210 H1198 0.969 . S
C1210 C1209 1.398 . S
C1210 C1211 1.391 . S
C1211 H1199 0.950 . S
C1211 C1207 1.393 . S
C1211 C1210 1.391 . S
H1212 C1220 0.950 . S
H1213 C1225 0.950 . S
H1214 C1222 0.950 . S
H1215 C1224 0.950 1_545 S
H1216 C1226 0.950 . S
H1217 C1228 0.950 . S
H1218 C1230 0.950 1_565 S
H1219 C1231 0.950 . S
C1220 H1212 0.950 . S
C1220 C1221 1.386 . S
C1220 C1222 1.391 . S
C1221 C1220 1.386 . S
C1221 C1225 1.393 . S
C1222 H1214 0.950 . S
C1222 C1220 1.391 . S
C1222 C1223 1.400 . S
C1223 C1222 1.400 . S
C1223 C1224 1.398 . S
C1223 C1229 1.491 1_565 S
C1224 H1215 0.950 1_565 S
C1224 C1223 1.398 . S
C1224 C1225 1.391 . S
C1225 H1213 0.950 . S
C1225 C1221 1.393 . S
C1225 C1224 1.391 . S
C1226 H1216 0.950 . S
C1226 C1227 1.386 . S
C1226 C1228 1.391 . S
C1227 C1226 1.386 . S
C1227 C1231 1.393 . S
C1228 H1217 0.950 . S
C1228 C1226 1.391 . S
C1228 C1229 1.400 . S
C1229 C1223 1.491 1_545 S
C1229 C1228 1.400 . S
C1229 C1230 1.398 . S
C1230 H1218 0.950 1_545 S
C1230 C1229 1.398 . S
C1230 C1231 1.391 . S
C1231 H1219 0.950 . S
C1231 C1227 1.393 . S
C1231 C1230 1.391 . S
H1232 C1240 0.950 . S
H1233 C1245 0.950 . S
H1234 C1242 0.950 . S
H1235 C1244 0.950 1_655 S
H1236 C1246 0.950 . S
H1237 C1248 0.950 . S
H1238 C1250 0.950 1_455 S
H1239 C1251 0.950 . S
C1240 H1232 0.950 . S
C1240 C1241 1.386 . S
C1240 C1242 1.391 . S
C1241 C1240 1.386 . S
C1241 C1245 1.393 . S
C1242 H1234 0.950 . S
C1242 C1240 1.391 . S
C1242 C1243 1.400 . S
C1243 C1242 1.400 . S
C1243 C1244 1.398 . S
C1243 C1249 1.491 1_455 S
C1244 H1235 0.950 1_455 S
C1244 C1243 1.398 . S
C1244 C1245 1.391 . S
C1245 H1233 0.950 . S
C1245 C1241 1.393 . S
C1245 C1244 1.391 . S
C1246 H1236 0.950 . S
C1246 C1247 1.386 . S
C1246 C1248 1.391 . S
C1247 C1246 1.386 . S
C1247 C1251 1.393 . S
C1248 H1237 0.950 . S
C1248 C1246 1.391 . S
C1248 C1249 1.400 . S
C1249 C1243 1.491 1_655 S
C1249 C1248 1.400 . S
C1249 C1250 1.398 . S
C1250 H1238 0.950 1_655 S
C1250 C1249 1.398 . S
C1250 C1251 1.391 . S
C1251 H1239 0.950 . S
C1251 C1247 1.393 . S
C1251 C1250 1.391 . S
H1252 C1260 0.950 . S
H1253 C1265 0.950 . S
H1254 C1262 0.950 . S
H1255 C1264 0.950 1_565 S
H1256 C1266 0.950 . S
H1257 C1268 0.950 . S
H1258 C1270 0.950 1_545 S
H1259 C1271 0.950 . S
C1260 H1252 0.950 . S
C1260 C1261 1.386 . S
C1260 C1262 1.391 . S
C1261 C1260 1.386 . S
C1261 C1265 1.393 . S
C1262 H1254 0.950 . S
C1262 C1260 1.391 . S
C1262 C1263 1.400 . S
C1263 C1262 1.400 . S
C1263 C1264 1.398 . S
C1263 C1269 1.491 1_545 S
C1264 H1255 0.950 1_545 S
C1264 C1263 1.398 . S
C1264 C1265 1.391 . S
C1265 H1253 0.950 . S
C1265 C1261 1.393 . S
C1265 C1264 1.391 . S
C1266 H1256 0.950 . S
C1266 C1267 1.386 . S
C1266 C1268 1.391 . S
C1267 C1266 1.386 . S
C1267 C1271 1.393 . S
C1268 H1257 0.950 . S
C1268 C1266 1.391 . S
C1268 C1269 1.400 . S
C1269 C1263 1.491 1_565 S
C1269 C1268 1.400 . S
C1269 C1270 1.398 . S
C1270 H1258 0.950 1_565 S
C1270 C1269 1.398 . S
C1270 C1271 1.391 . S
C1271 H1259 0.950 . S
C1271 C1267 1.393 . S
C1271 C1270 1.391 . S
H1272 C1280 0.950 . S
H1273 C1285 0.950 . S
H1274 C1282 0.950 1_455 S
H1275 C1284 0.950 . S
H1276 C1286 0.950 . S
H1277 C1288 0.950 1_655 S
H1278 C1290 0.950 . S
H1279 C1291 0.950 . S
C1280 H1272 0.950 . S
C1280 C1281 1.386 . S
C1280 C1282 1.391 . S
C1281 C1280 1.386 . S
C1281 C1285 1.393 . S
C1282 H1274 0.950 1_655 S
C1282 C1280 1.391 . S
C1282 C1283 1.400 . S
C1283 C1282 1.400 . S
C1283 C1284 1.398 . S
C1283 C1289 1.491 1_655 S
C1284 H1275 0.950 . S
C1284 C1283 1.398 . S
C1284 C1285 1.391 . S
C1285 H1273 0.950 . S
C1285 C1281 1.393 . S
C1285 C1284 1.391 . S
C1286 H1276 0.950 . S
C1286 C1287 1.386 . S
C1286 C1288 1.391 . S
C1287 C1286 1.386 . S
C1287 C1291 1.393 . S
C1288 H1277 0.950 1_455 S
C1288 C1286 1.391 . S
C1288 C1289 1.400 . S
C1289 C1283 1.491 1_455 S
C1289 C1288 1.400 . S
C1289 C1290 1.398 . S
C1290 H1278 0.950 . S
C1290 C1289 1.398 . S
C1290 C1291 1.391 . S
C1291 H1279 0.950 . S
C1291 C1287 1.393 . S
C1291 C1290 1.391 . S
H1292 C1300 0.950 . S
H1293 C1305 0.950 . S
H1294 C1302 0.950 . S
H1295 C1304 0.950 1_545 S
H1296 C1306 0.950 . S
H1297 C1308 0.950 . S
H1298 C1310 0.950 1_565 S
H1299 C1311 0.950 . S
C1300 H1292 0.950 . S
C1300 C1301 1.386 . S
C1300 C1302 1.391 . S
C1301 C1300 1.386 . S
C1301 C1305 1.393 . S
C1302 H1294 0.950 . S
C1302 C1300 1.391 . S
C1302 C1303 1.400 . S
C1303 C1302 1.400 . S
C1303 C1304 1.398 . S
C1303 C1309 1.491 1_565 S
C1304 H1295 0.950 1_565 S
C1304 C1303 1.398 . S
C1304 C1305 1.391 . S
C1305 H1293 0.950 . S
C1305 C1301 1.393 . S
C1305 C1304 1.391 . S
C1306 H1296 0.950 . S
C1306 C1307 1.386 . S
C1306 C1308 1.391 . S
C1307 C1306 1.386 . S
C1307 C1311 1.393 . S
C1308 H1297 0.950 . S
C1308 C1306 1.391 . S
C1308 C1309 1.400 . S
C1309 C1303 1.491 1_545 S
C1309 C1308 1.400 . S
C1309 C1310 1.398 . S
C1310 H1298 0.950 1_545 S
C1310 C1309 1.398 . S
C1310 C1311 1.391 . S
C1311 H1299 0.950 . S
C1311 C1307 1.393 . S
C1311 C1310 1.391 . S
C361 C8 0.942 . S
C367 C76 0.933 1_545 S
C381 C18 0.920 1_655 S
C387 C40 0.933 . S
C401 C62 0.927 . S
C407 C32 0.945 1_565 S
C421 C84 0.942 . S
C427 C54 0.935 1_455 S
C441 C120 0.944 1_565 S
C447 C96 0.930 . S
C461 C128 0.942 . S
C467 C150 0.926 1_455 S
C481 C172 0.945 1_545 S
C487 C140 0.922 . S
C501 C106 0.920 1_655 S
C507 C162 0.936 . S
C521 C184 0.919 . S
C527 C260 0.922 1_565 S
C541 C194 0.938 1_455 S
C547 C216 0.911 . S
C561 C208 0.920 1_545 S
C567 C238 0.925 . S
C581 C230 0.931 1_655 S
C587 C250 0.943 . S
C601 C304 0.938 1_545 S
C607 C272 0.939 . S
C621 C326 0.927 1_655 S
C627 C294 0.913 . S
C641 C316 0.922 . S
C647 C338 0.945 1_565 S
C661 C340 0.931 . S
C667 C282 0.944 1_455 S
C681 C21 1.764 . S
C687 C117 1.760 . S
C701 C153 1.769 . S
C707 C29 1.747 . S
C721 C51 1.748 . S
C727 C175 1.752 . S
C741 C73 1.759 . S
C747 C109 1.744 . S
C761 C307 1.766 . S
C767 C197 1.744 . S
C781 C329 1.747 . S
C787 C205 1.769 . S
C801 C227 1.764 . S
C807 C345 1.760 . S
C821 C285 1.750 . S
C827 C263 1.769 . S
C841 C10 1.466 . S
C847 C228 1.473 . S
C861 C30 1.470 . S
C867 C252 1.469 . S
C881 C186 1.473 . S
C887 C52 1.466 . S
C901 C74 1.469 . S
C907 C206 1.470 . S
C921 C98 1.466 . S
C927 C318 1.473 . S
C941 C118 1.467 . S
C947 C348 1.472 . S
C961 C142 1.472 . S
C967 C274 1.467 . S
C981 C296 1.466 . S
C987 C164 1.473 . S
C1001 C7 0.377 . S
C1007 C139 0.414 . S
C1021 C161 0.450 . S
C1027 C37 0.418 . S
C1041 C95 0.449 . S
C1047 C59 0.383 . S
C1061 C125 0.451 . S
C1067 C81 0.415 . S
C1081 C315 0.374 . S
C1087 C183 0.422 . S
C1101 C351 0.391 . S
C1107 C213 0.393 . S
C1121 C271 0.448 . S
C1127 C235 0.381 . S
C1141 C249 0.393 . S
C1147 C293 0.453 . S
C1161 C15 1.866 . S
C1167 C65 1.868 . S
C1181 C43 1.899 . S
C1187 C87 1.900 . S
C1201 C103 1.867 . S
C1207 C147 1.869 . S
C1221 C169 1.869 . S
C1227 C131 1.875 . S
C1241 C241 1.880 . S
C1247 C191 1.873 . S
C1261 C257 1.894 . S
C1267 C219 1.887 . S
C1281 C279 1.886 . S
C1287 C323 1.893 . S
C1301 C301 1.876 . S
C1307 C337 1.870 . S
