# Generated by pormake.
# Topology ukr, (4)-cn, num edge types: 1
# Building blocks:
#     Node 0, Type 0, BuildingBlock: AZAVOO_clean_sbu_0, # of connection points: 4
#     Node 1, Type 0, BuildingBlock: AZAVOO_clean_sbu_0, # of connection points: 4
#     Node 2, Type 0, BuildingBlock: AZAVOO_clean_sbu_0, # of connection points: 4
#     Node 3, Type 0, BuildingBlock: AZAVOO_clean_sbu_0, # of connection points: 4
#     Node 4, Type 0, BuildingBlock: AZAVOO_clean_sbu_0, # of connection points: 4
#     Node 5, Type 0, BuildingBlock: AZAVOO_clean_sbu_0, # of connection points: 4
#     Node 6, Type 0, BuildingBlock: AZAVOO_clean_sbu_0, # of connection points: 4
#     Node 7, Type 0, BuildingBlock: AZAVOO_clean_sbu_0, # of connection points: 4
#     Node 8, Type 0, BuildingBlock: AZAVOO_clean_sbu_0, # of connection points: 4
#     Node 9, Type 0, BuildingBlock: AZAVOO_clean_sbu_0, # of connection points: 4
#     Node 10, Type 0, BuildingBlock: AZAVOO_clean_sbu_0, # of connection points: 4
#     Node 11, Type 0, BuildingBlock: AZAVOO_clean_sbu_0, # of connection points: 4
#     Node 12, Type 0, BuildingBlock: AZAVOO_clean_sbu_0, # of connection points: 4
#     Node 13, Type 0, BuildingBlock: AZAVOO_clean_sbu_0, # of connection points: 4
#     Node 14, Type 0, BuildingBlock: AZAVOO_clean_sbu_0, # of connection points: 4
#     Node 15, Type 0, BuildingBlock: AZAVOO_clean_sbu_0, # of connection points: 4
#     Node 16, Type 0, BuildingBlock: AZAVOO_clean_sbu_0, # of connection points: 4
#     Node 17, Type 0, BuildingBlock: AZAVOO_clean_sbu_0, # of connection points: 4
#     Node 18, Type 0, BuildingBlock: AZAVOO_clean_sbu_0, # of connection points: 4
#     Node 19, Type 0, BuildingBlock: AZAVOO_clean_sbu_0, # of connection points: 4
#     Node 20, Type 0, BuildingBlock: AZAVOO_clean_sbu_0, # of connection points: 4
#     Node 21, Type 0, BuildingBlock: AZAVOO_clean_sbu_0, # of connection points: 4
#     Node 22, Type 0, BuildingBlock: AZAVOO_clean_sbu_0, # of connection points: 4
#     Node 23, Type 0, BuildingBlock: AZAVOO_clean_sbu_0, # of connection points: 4
#     Node 24, Type 0, BuildingBlock: AZAVOO_clean_sbu_0, # of connection points: 4
#     Node 25, Type 0, BuildingBlock: AZAVOO_clean_sbu_0, # of connection points: 4
#     Node 26, Type 0, BuildingBlock: AZAVOO_clean_sbu_0, # of connection points: 4
#     Node 27, Type 0, BuildingBlock: AZAVOO_clean_sbu_0, # of connection points: 4
#     Node 28, Type 0, BuildingBlock: AZAVOO_clean_sbu_0, # of connection points: 4
#     Node 29, Type 0, BuildingBlock: AZAVOO_clean_sbu_0, # of connection points: 4
#     Node 30, Type 0, BuildingBlock: AZAVOO_clean_sbu_0, # of connection points: 4
#     Node 31, Type 0, BuildingBlock: AZAVOO_clean_sbu_0, # of connection points: 4
#     Node 32, Type 0, BuildingBlock: AZAVOO_clean_sbu_0, # of connection points: 4
#     Node 33, Type 0, BuildingBlock: AZAVOO_clean_sbu_0, # of connection points: 4
#     Node 34, Type 0, BuildingBlock: AZAVOO_clean_sbu_0, # of connection points: 4
#     Node 35, Type 0, BuildingBlock: AZAVOO_clean_sbu_0, # of connection points: 4
#     Node 36, Type 0, BuildingBlock: AZAVOO_clean_sbu_0, # of connection points: 4
#     Node 37, Type 0, BuildingBlock: AZAVOO_clean_sbu_0, # of connection points: 4
#     Node 38, Type 0, BuildingBlock: AZAVOO_clean_sbu_0, # of connection points: 4
#     Node 39, Type 0, BuildingBlock: AZAVOO_clean_sbu_0, # of connection points: 4
#     Node 40, Type 0, BuildingBlock: AZAVOO_clean_sbu_0, # of connection points: 4
#     Node 41, Type 0, BuildingBlock: AZAVOO_clean_sbu_0, # of connection points: 4
#     Node 42, Type 0, BuildingBlock: AZAVOO_clean_sbu_0, # of connection points: 4
#     Node 43, Type 0, BuildingBlock: AZAVOO_clean_sbu_0, # of connection points: 4
#     Node 44, Type 0, BuildingBlock: AZAVOO_clean_sbu_0, # of connection points: 4
#     Node 45, Type 0, BuildingBlock: AZAVOO_clean_sbu_0, # of connection points: 4
#     Node 46, Type 0, BuildingBlock: AZAVOO_clean_sbu_0, # of connection points: 4
#     Node 47, Type 0, BuildingBlock: AZAVOO_clean_sbu_0, # of connection points: 4
#     Edge 48, Type (0, 0), BuildingBlock: KIFKEQ_clean_linker_1, # of connection points: 2
#     Edge 49, Type (0, 0), BuildingBlock: KIFKEQ_clean_linker_1, # of connection points: 2
#     Edge 50, Type (0, 0), BuildingBlock: KIFKEQ_clean_linker_1, # of connection points: 2
#     Edge 51, Type (0, 0), BuildingBlock: KIFKEQ_clean_linker_1, # of connection points: 2
#     Edge 52, Type (0, 0), BuildingBlock: KIFKEQ_clean_linker_1, # of connection points: 2
#     Edge 53, Type (0, 0), BuildingBlock: KIFKEQ_clean_linker_1, # of connection points: 2
#     Edge 54, Type (0, 0), BuildingBlock: KIFKEQ_clean_linker_1, # of connection points: 2
#     Edge 55, Type (0, 0), BuildingBlock: KIFKEQ_clean_linker_1, # of connection points: 2
#     Edge 56, Type (0, 0), BuildingBlock: KIFKEQ_clean_linker_1, # of connection points: 2
#     Edge 57, Type (0, 0), BuildingBlock: KIFKEQ_clean_linker_1, # of connection points: 2
#     Edge 58, Type (0, 0), BuildingBlock: KIFKEQ_clean_linker_1, # of connection points: 2
#     Edge 59, Type (0, 0), BuildingBlock: KIFKEQ_clean_linker_1, # of connection points: 2
#     Edge 60, Type (0, 0), BuildingBlock: KIFKEQ_clean_linker_1, # of connection points: 2
#     Edge 61, Type (0, 0), BuildingBlock: KIFKEQ_clean_linker_1, # of connection points: 2
#     Edge 62, Type (0, 0), BuildingBlock: KIFKEQ_clean_linker_1, # of connection points: 2
#     Edge 63, Type (0, 0), BuildingBlock: KIFKEQ_clean_linker_1, # of connection points: 2
#     Edge 64, Type (0, 0), BuildingBlock: KIFKEQ_clean_linker_1, # of connection points: 2
#     Edge 65, Type (0, 0), BuildingBlock: KIFKEQ_clean_linker_1, # of connection points: 2
#     Edge 66, Type (0, 0), BuildingBlock: KIFKEQ_clean_linker_1, # of connection points: 2
#     Edge 67, Type (0, 0), BuildingBlock: KIFKEQ_clean_linker_1, # of connection points: 2
#     Edge 68, Type (0, 0), BuildingBlock: KIFKEQ_clean_linker_1, # of connection points: 2
#     Edge 69, Type (0, 0), BuildingBlock: KIFKEQ_clean_linker_1, # of connection points: 2
#     Edge 70, Type (0, 0), BuildingBlock: KIFKEQ_clean_linker_1, # of connection points: 2
#     Edge 71, Type (0, 0), BuildingBlock: KIFKEQ_clean_linker_1, # of connection points: 2
#     Edge 72, Type (0, 0), BuildingBlock: KIFKEQ_clean_linker_1, # of connection points: 2
#     Edge 73, Type (0, 0), BuildingBlock: KIFKEQ_clean_linker_1, # of connection points: 2
#     Edge 74, Type (0, 0), BuildingBlock: KIFKEQ_clean_linker_1, # of connection points: 2
#     Edge 75, Type (0, 0), BuildingBlock: KIFKEQ_clean_linker_1, # of connection points: 2
#     Edge 76, Type (0, 0), BuildingBlock: KIFKEQ_clean_linker_1, # of connection points: 2
#     Edge 77, Type (0, 0), BuildingBlock: KIFKEQ_clean_linker_1, # of connection points: 2
#     Edge 78, Type (0, 0), BuildingBlock: KIFKEQ_clean_linker_1, # of connection points: 2
#     Edge 79, Type (0, 0), BuildingBlock: KIFKEQ_clean_linker_1, # of connection points: 2
#     Edge 80, Type (0, 0), BuildingBlock: KIFKEQ_clean_linker_1, # of connection points: 2
#     Edge 81, Type (0, 0), BuildingBlock: KIFKEQ_clean_linker_1, # of connection points: 2
#     Edge 82, Type (0, 0), BuildingBlock: KIFKEQ_clean_linker_1, # of connection points: 2
#     Edge 83, Type (0, 0), BuildingBlock: KIFKEQ_clean_linker_1, # of connection points: 2
#     Edge 84, Type (0, 0), BuildingBlock: KIFKEQ_clean_linker_1, # of connection points: 2
#     Edge 85, Type (0, 0), BuildingBlock: KIFKEQ_clean_linker_1, # of connection points: 2
#     Edge 86, Type (0, 0), BuildingBlock: KIFKEQ_clean_linker_1, # of connection points: 2
#     Edge 87, Type (0, 0), BuildingBlock: KIFKEQ_clean_linker_1, # of connection points: 2
#     Edge 88, Type (0, 0), BuildingBlock: KIFKEQ_clean_linker_1, # of connection points: 2
#     Edge 89, Type (0, 0), BuildingBlock: KIFKEQ_clean_linker_1, # of connection points: 2
#     Edge 90, Type (0, 0), BuildingBlock: KIFKEQ_clean_linker_1, # of connection points: 2
#     Edge 91, Type (0, 0), BuildingBlock: KIFKEQ_clean_linker_1, # of connection points: 2
#     Edge 92, Type (0, 0), BuildingBlock: KIFKEQ_clean_linker_1, # of connection points: 2
#     Edge 93, Type (0, 0), BuildingBlock: KIFKEQ_clean_linker_1, # of connection points: 2
#     Edge 94, Type (0, 0), BuildingBlock: KIFKEQ_clean_linker_1, # of connection points: 2
#     Edge 95, Type (0, 0), BuildingBlock: KIFKEQ_clean_linker_1, # of connection points: 2
#     Edge 96, Type (0, 0), BuildingBlock: KIFKEQ_clean_linker_1, # of connection points: 2
#     Edge 97, Type (0, 0), BuildingBlock: KIFKEQ_clean_linker_1, # of connection points: 2
#     Edge 98, Type (0, 0), BuildingBlock: KIFKEQ_clean_linker_1, # of connection points: 2
#     Edge 99, Type (0, 0), BuildingBlock: KIFKEQ_clean_linker_1, # of connection points: 2
#     Edge 100, Type (0, 0), BuildingBlock: KIFKEQ_clean_linker_1, # of connection points: 2
#     Edge 101, Type (0, 0), BuildingBlock: KIFKEQ_clean_linker_1, # of connection points: 2
#     Edge 102, Type (0, 0), BuildingBlock: KIFKEQ_clean_linker_1, # of connection points: 2
#     Edge 103, Type (0, 0), BuildingBlock: KIFKEQ_clean_linker_1, # of connection points: 2
#     Edge 104, Type (0, 0), BuildingBlock: KIFKEQ_clean_linker_1, # of connection points: 2
#     Edge 105, Type (0, 0), BuildingBlock: KIFKEQ_clean_linker_1, # of connection points: 2
#     Edge 106, Type (0, 0), BuildingBlock: KIFKEQ_clean_linker_1, # of connection points: 2
#     Edge 107, Type (0, 0), BuildingBlock: KIFKEQ_clean_linker_1, # of connection points: 2
#     Edge 108, Type (0, 0), BuildingBlock: KIFKEQ_clean_linker_1, # of connection points: 2
#     Edge 109, Type (0, 0), BuildingBlock: KIFKEQ_clean_linker_1, # of connection points: 2
#     Edge 110, Type (0, 0), BuildingBlock: KIFKEQ_clean_linker_1, # of connection points: 2
#     Edge 111, Type (0, 0), BuildingBlock: KIFKEQ_clean_linker_1, # of connection points: 2
#     Edge 112, Type (0, 0), BuildingBlock: KIFKEQ_clean_linker_1, # of connection points: 2
#     Edge 113, Type (0, 0), BuildingBlock: KIFKEQ_clean_linker_1, # of connection points: 2
#     Edge 114, Type (0, 0), BuildingBlock: KIFKEQ_clean_linker_1, # of connection points: 2
#     Edge 115, Type (0, 0), BuildingBlock: KIFKEQ_clean_linker_1, # of connection points: 2
#     Edge 116, Type (0, 0), BuildingBlock: KIFKEQ_clean_linker_1, # of connection points: 2
#     Edge 117, Type (0, 0), BuildingBlock: KIFKEQ_clean_linker_1, # of connection points: 2
#     Edge 118, Type (0, 0), BuildingBlock: KIFKEQ_clean_linker_1, # of connection points: 2
#     Edge 119, Type (0, 0), BuildingBlock: KIFKEQ_clean_linker_1, # of connection points: 2
#     Edge 120, Type (0, 0), BuildingBlock: KIFKEQ_clean_linker_1, # of connection points: 2
#     Edge 121, Type (0, 0), BuildingBlock: KIFKEQ_clean_linker_1, # of connection points: 2
#     Edge 122, Type (0, 0), BuildingBlock: KIFKEQ_clean_linker_1, # of connection points: 2
#     Edge 123, Type (0, 0), BuildingBlock: KIFKEQ_clean_linker_1, # of connection points: 2
#     Edge 124, Type (0, 0), BuildingBlock: KIFKEQ_clean_linker_1, # of connection points: 2
#     Edge 125, Type (0, 0), BuildingBlock: KIFKEQ_clean_linker_1, # of connection points: 2
#     Edge 126, Type (0, 0), BuildingBlock: KIFKEQ_clean_linker_1, # of connection points: 2
#     Edge 127, Type (0, 0), BuildingBlock: KIFKEQ_clean_linker_1, # of connection points: 2
#     Edge 128, Type (0, 0), BuildingBlock: KIFKEQ_clean_linker_1, # of connection points: 2
#     Edge 129, Type (0, 0), BuildingBlock: KIFKEQ_clean_linker_1, # of connection points: 2
#     Edge 130, Type (0, 0), BuildingBlock: KIFKEQ_clean_linker_1, # of connection points: 2
#     Edge 131, Type (0, 0), BuildingBlock: KIFKEQ_clean_linker_1, # of connection points: 2
#     Edge 132, Type (0, 0), BuildingBlock: KIFKEQ_clean_linker_1, # of connection points: 2
#     Edge 133, Type (0, 0), BuildingBlock: KIFKEQ_clean_linker_1, # of connection points: 2
#     Edge 134, Type (0, 0), BuildingBlock: KIFKEQ_clean_linker_1, # of connection points: 2
#     Edge 135, Type (0, 0), BuildingBlock: KIFKEQ_clean_linker_1, # of connection points: 2
#     Edge 136, Type (0, 0), BuildingBlock: KIFKEQ_clean_linker_1, # of connection points: 2
#     Edge 137, Type (0, 0), BuildingBlock: KIFKEQ_clean_linker_1, # of connection points: 2
#     Edge 138, Type (0, 0), BuildingBlock: KIFKEQ_clean_linker_1, # of connection points: 2
#     Edge 139, Type (0, 0), BuildingBlock: KIFKEQ_clean_linker_1, # of connection points: 2
#     Edge 140, Type (0, 0), BuildingBlock: KIFKEQ_clean_linker_1, # of connection points: 2
#     Edge 141, Type (0, 0), BuildingBlock: KIFKEQ_clean_linker_1, # of connection points: 2
#     Edge 142, Type (0, 0), BuildingBlock: KIFKEQ_clean_linker_1, # of connection points: 2
#     Edge 143, Type (0, 0), BuildingBlock: KIFKEQ_clean_linker_1, # of connection points: 2
# Relax obj value: 0.367
# Max RMSD: 0.200
# Mean RMSD: 0.200
data_MOF--net-ukr--node1-AZAVOO_clean_sbu_0--edge1-KIFKEQ_clean_linker_1
_symmetry_space_group_name_H-M    P1
_symmetry_Int_Tables_number       1
_symmetry_cell_setting            triclinic
loop_
_symmetry_equiv_pos_as_xyz
'x, y, z'
_cell_length_a     71.649042
_cell_length_b     72.080724
_cell_length_c     71.871442
_cell_angle_alpha  89.697601
_cell_angle_beta   89.919505
_cell_angle_gamma 90.021
loop_
_atom_site_label
_atom_site_type_symbol
_atom_site_fract_x
_atom_site_fract_y
_atom_site_fract_z
_atom_type_partial_charge
Mg0 Mg 0.09118 0.25924 0.15043 0.0
O1 O 0.09098 0.23151 0.16645 0.0
O2 O 0.12088 0.22344 0.16941 0.0
Mg3 Mg 0.13993 0.24522 0.15655 0.0
C4 C 0.10357 0.22024 0.17182 0.0
C5 C 0.05011 0.26123 0.14304 0.0
O6 O 0.05761 0.26365 0.12651 0.0
O7 O 0.09953 0.27584 0.17686 0.0
O8 O 0.12929 0.26661 0.17685 0.0
O9 O 0.09391 0.24278 0.1232 0.0
O10 O 0.11732 0.25454 0.13891 0.0
C11 C 0.1161 0.27645 0.18349 0.0
C12 C 0.11173 0.24498 0.12512 0.0
O13 O 0.06064 0.26079 0.15716 0.0
Mg14 Mg 0.20369 0.58841 0.6502 0.0
O15 O 0.23019 0.59027 0.66782 0.0
O16 O 0.23611 0.62046 0.67148 0.0
Mg17 Mg 0.21552 0.63774 0.65474 0.0
C18 C 0.23987 0.60343 0.67453 0.0
C19 C 0.2018 0.54831 0.64317 0.0
O20 O 0.19672 0.55661 0.62766 0.0
O21 O 0.18496 0.59639 0.67597 0.0
O22 O 0.19411 0.62569 0.67385 0.0
O23 O 0.22183 0.59004 0.6239 0.0
O24 O 0.20902 0.61422 0.63714 0.0
C25 C 0.18402 0.61326 0.68141 0.0
C26 C 0.2198 0.60783 0.6245 0.0
O27 O 0.20393 0.55805 0.65761 0.0
Mg28 Mg 0.87452 0.70009 0.1517 0.0
O29 O 0.87401 0.72808 0.16735 0.0
O30 O 0.84349 0.73187 0.17118 0.0
Mg31 Mg 0.82512 0.71112 0.15616 0.0
C32 C 0.86027 0.73704 0.17399 0.0
C33 C 0.91502 0.69653 0.14537 0.0
O34 O 0.90724 0.69086 0.12986 0.0
O35 O 0.86553 0.6841 0.17787 0.0
O36 O 0.83464 0.689 0.17619 0.0
O37 O 0.87307 0.71558 0.1242 0.0
O38 O 0.84868 0.70381 0.13864 0.0
C39 C 0.84881 0.68099 0.18329 0.0
C40 C 0.85516 0.71336 0.12504 0.0
O41 O 0.90472 0.69961 0.15932 0.0
Mg42 Mg 0.76309 0.3703 0.64997 0.0
O43 O 0.73575 0.36904 0.66723 0.0
O44 O 0.72893 0.33899 0.67125 0.0
Mg45 Mg 0.7526 0.32158 0.65921 0.0
C46 C 0.72515 0.35613 0.67335 0.0
C47 C 0.75825 0.41135 0.64208 0.0
O48 O 0.75264 0.40444 0.62619 0.0
O49 O 0.78066 0.36421 0.67598 0.0
O50 O 0.77264 0.3344 0.68004 0.0
O51 O 0.74616 0.36646 0.62362 0.0
O52 O 0.75932 0.34408 0.64004 0.0
C53 C 0.78163 0.34886 0.68489 0.0
C54 C 0.7491 0.34894 0.62627 0.0
O55 O 0.76405 0.40077 0.65494 0.0
Mg56 Mg 0.09218 0.69849 0.81471 0.0
O57 O 0.09359 0.72536 0.79672 0.0
O58 O 0.12374 0.73293 0.79402 0.0
Mg59 Mg 0.14121 0.70966 0.80694 0.0
C60 C 0.10651 0.73621 0.79104 0.0
C61 C 0.05061 0.70407 0.81964 0.0
O62 O 0.05712 0.71042 0.83545 0.0
O63 O 0.09925 0.68059 0.78959 0.0
O64 O 0.12907 0.68922 0.78596 0.0
O65 O 0.09468 0.7163 0.84034 0.0
O66 O 0.11839 0.70302 0.82598 0.0
C67 C 0.11484 0.67979 0.78105 0.0
C68 C 0.11248 0.71375 0.83886 0.0
O69 O 0.06171 0.69701 0.80795 0.0
Mg70 Mg 0.76198 0.58887 0.31358 0.0
O71 O 0.73447 0.58902 0.29672 0.0
O72 O 0.72896 0.619 0.29109 0.0
Mg73 Mg 0.75086 0.63752 0.30452 0.0
C74 C 0.72459 0.60192 0.28959 0.0
C75 C 0.76271 0.54752 0.32099 0.0
O76 O 0.76288 0.55421 0.33796 0.0
O77 O 0.77934 0.59598 0.28763 0.0
O78 O 0.77246 0.62621 0.28444 0.0
O79 O 0.74499 0.59296 0.3404 0.0
O80 O 0.75784 0.61508 0.32354 0.0
C81 C 0.78127 0.61168 0.2795 0.0
C82 C 0.74782 0.61049 0.33752 0.0
O83 O 0.76365 0.55856 0.30732 0.0
Mg84 Mg 0.87547 0.26152 0.81029 0.0
O85 O 0.87596 0.23435 0.79341 0.0
O86 O 0.8506 0.22026 0.80347 0.0
Mg87 Mg 0.82886 0.24331 0.80268 0.0
C88 C 0.86606 0.21982 0.79489 0.0
C89 C 0.91484 0.25927 0.82121 0.0
O90 O 0.90576 0.2615 0.83692 0.0
O91 O 0.87064 0.27741 0.78266 0.0
O92 O 0.84329 0.26368 0.7836 0.0
O93 O 0.86984 0.24616 0.83798 0.0
O94 O 0.84772 0.25823 0.8208 0.0
C95 C 0.8546 0.27464 0.77552 0.0
C96 C 0.85229 0.24946 0.83556 0.0
O97 O 0.90611 0.26068 0.80601 0.0
Mg98 Mg 0.20315 0.37024 0.31331 0.0
O99 O 0.23057 0.36737 0.29679 0.0
O100 O 0.23575 0.33704 0.29367 0.0
Mg101 Mg 0.21217 0.3208 0.3079 0.0
C102 C 0.24046 0.35392 0.29097 0.0
C103 C 0.20646 0.41095 0.31978 0.0
O104 O 0.20566 0.40399 0.33668 0.0
O105 O 0.18531 0.36295 0.28762 0.0
O106 O 0.19198 0.33259 0.28651 0.0
O107 O 0.21985 0.36758 0.33962 0.0
O108 O 0.2056 0.34436 0.32558 0.0
C109 C 0.18337 0.34687 0.28041 0.0
C110 C 0.21631 0.35001 0.33862 0.0
O111 O 0.2047 0.40039 0.30589 0.0
Mg112 Mg 0.14891 0.08707 0.262 0.0
O113 O 0.16594 0.08795 0.23445 0.0
O114 O 0.16864 0.11814 0.22817 0.0
Mg115 Mg 0.15522 0.13606 0.2505 0.0
C116 C 0.17161 0.1012 0.22407 0.0
C117 C 0.14272 0.04621 0.26035 0.0
O118 O 0.12575 0.0531 0.26013 0.0
O119 O 0.17476 0.09482 0.27935 0.0
O120 O 0.1765 0.12471 0.27079 0.0
O121 O 0.12217 0.09027 0.24473 0.0
O122 O 0.13743 0.11304 0.25808 0.0
C123 C 0.18243 0.11081 0.28011 0.0
C124 C 0.12401 0.10787 0.24769 0.0
O125 O 0.15637 0.05698 0.26297 0.0
Mg126 Mg 0.37682 0.64907 0.76135 0.0
O127 O 0.38549 0.66572 0.73407 0.0
O128 O 0.3558 0.66532 0.73501 0.0
Mg129 Mg 0.32709 0.65974 0.74377 0.0
C130 C 0.37027 0.6708 0.72682 0.0
C131 C 0.41644 0.63896 0.7643 0.0
O132 O 0.40853 0.62347 0.75885 0.0
O133 O 0.36749 0.67571 0.77734 0.0
O134 O 0.33783 0.67698 0.76719 0.0
O135 O 0.372 0.62121 0.74508 0.0
O136 O 0.35054 0.64169 0.75138 0.0
C137 C 0.35095 0.68258 0.7778 0.0
C138 C 0.35464 0.62599 0.74461 0.0
O139 O 0.40626 0.65205 0.77 0.0
Mg140 Mg 0.81511 0.87123 0.26217 0.0
O141 O 0.79841 0.87047 0.23472 0.0
O142 O 0.79306 0.84066 0.22832 0.0
Mg143 Mg 0.80834 0.82266 0.24972 0.0
C144 C 0.79118 0.85787 0.22466 0.0
C145 C 0.82136 0.91236 0.26333 0.0
O146 O 0.83807 0.90533 0.26598 0.0
O147 O 0.78916 0.86267 0.2788 0.0
O148 O 0.78751 0.83248 0.27152 0.0
O149 O 0.84205 0.86986 0.2458 0.0
O150 O 0.82732 0.84549 0.25718 0.0
C151 C 0.78171 0.84663 0.2804 0.0
C152 C 0.84083 0.85202 0.24739 0.0
O153 O 0.80746 0.90153 0.26312 0.0
Mg154 Mg 0.59141 0.31261 0.76293 0.0
O155 O 0.5928 0.29588 0.7354 0.0
O156 O 0.62312 0.29457 0.72867 0.0
Mg157 Mg 0.64065 0.30828 0.75127 0.0
C158 C 0.60614 0.29101 0.72474 0.0
C159 C 0.55062 0.31819 0.76265 0.0
O160 O 0.55763 0.33486 0.76496 0.0
O161 O 0.60019 0.28727 0.78042 0.0
O162 O 0.63023 0.28635 0.77175 0.0
O163 O 0.59278 0.33877 0.74544 0.0
O164 O 0.61705 0.32549 0.75883 0.0
C165 C 0.61648 0.28007 0.78118 0.0
C166 C 0.61063 0.33815 0.74808 0.0
O167 O 0.56138 0.30432 0.76345 0.0
Mg168 Mg 0.15114 0.86989 0.70157 0.0
O169 O 0.16861 0.86864 0.72883 0.0
O170 O 0.17106 0.83844 0.73548 0.0
Mg171 Mg 0.15766 0.82079 0.71276 0.0
C172 C 0.17422 0.85541 0.7393 0.0
C173 C 0.14543 0.91148 0.70625 0.0
O174 O 0.12972 0.90497 0.71306 0.0
O175 O 0.17681 0.8623 0.68396 0.0
O176 O 0.17783 0.83197 0.69085 0.0
O177 O 0.12475 0.86746 0.71881 0.0
O178 O 0.13921 0.84379 0.70598 0.0
C179 C 0.18379 0.84612 0.68191 0.0
C180 C 0.12599 0.84975 0.71632 0.0
O181 O 0.1575 0.90044 0.69969 0.0
Mg182 Mg 0.59036 0.64772 0.20014 0.0
O183 O 0.59115 0.66504 0.22748 0.0
O184 O 0.62173 0.66849 0.23138 0.0
Mg185 Mg 0.63974 0.65465 0.20943 0.0
C186 C 0.60496 0.67151 0.23655 0.0
C187 C 0.54953 0.64071 0.2007 0.0
O188 O 0.55661 0.62392 0.19981 0.0
O189 O 0.59764 0.67336 0.18242 0.0
O190 O 0.62829 0.67533 0.18845 0.0
O191 O 0.59392 0.62111 0.21749 0.0
O192 O 0.6165 0.63652 0.20361 0.0
C193 C 0.61363 0.6809 0.18009 0.0
C194 C 0.61157 0.62308 0.21418 0.0
O195 O 0.56023 0.65456 0.19925 0.0
Mg196 Mg 0.81502 0.08932 0.70059 0.0
O197 O 0.79818 0.08821 0.72844 0.0
O198 O 0.79101 0.11764 0.73509 0.0
Mg199 Mg 0.80249 0.13701 0.7128 0.0
C200 C 0.79057 0.10037 0.73888 0.0
C201 C 0.82361 0.04778 0.7048 0.0
O202 O 0.83879 0.05489 0.71212 0.0
O203 O 0.78845 0.09479 0.68349 0.0
O204 O 0.78303 0.12432 0.69153 0.0
O205 O 0.84199 0.0948 0.71669 0.0
O206 O 0.82322 0.11613 0.70528 0.0
C207 C 0.77903 0.10982 0.68229 0.0
C208 C 0.83791 0.11218 0.71457 0.0
O209 O 0.81134 0.05845 0.69798 0.0
Mg210 Mg 0.37367 0.30672 0.20182 0.0
O211 O 0.36967 0.28985 0.22875 0.0
O212 O 0.33939 0.29001 0.23661 0.0
Mg213 Mg 0.32275 0.30115 0.21175 0.0
C214 C 0.35641 0.28598 0.23997 0.0
C215 C 0.41388 0.31537 0.20138 0.0
O216 O 0.4054 0.33055 0.19576 0.0
O217 O 0.36954 0.2803 0.18321 0.0
O218 O 0.34166 0.28489 0.19385 0.0
O219 O 0.36925 0.33345 0.21841 0.0
O220 O 0.34641 0.31904 0.20425 0.0
C221 C 0.35244 0.2756 0.18363 0.0
C222 C 0.35168 0.33245 0.21455 0.0
O223 O 0.40429 0.30101 0.20472 0.0
Mg224 Mg 0.26323 0.14727 0.08943 0.0
O225 O 0.23537 0.16373 0.08887 0.0
O226 O 0.22798 0.16894 0.11859 0.0
Mg227 Mg 0.25048 0.15708 0.13758 0.0
C228 C 0.22445 0.17026 0.10126 0.0
C229 C 0.26087 0.13946 0.04822 0.0
O230 O 0.25868 0.12282 0.05545 0.0
O231 O 0.28013 0.17391 0.09578 0.0
O232 O 0.27078 0.17794 0.12523 0.0
O233 O 0.24657 0.12017 0.09418 0.0
O234 O 0.25864 0.13763 0.11601 0.0
C235 C 0.2803 0.18293 0.11108 0.0
C236 C 0.24898 0.12339 0.11172 0.0
O237 O 0.26487 0.15286 0.05877 0.0
Mg238 Mg 0.26312 0.81077 0.87327 0.0
O239 O 0.23623 0.79394 0.86916 0.0
O240 O 0.2278 0.79521 0.83925 0.0
Mg241 Mg 0.25187 0.80895 0.82344 0.0
C242 C 0.2249 0.79025 0.85606 0.0
C243 C 0.26372 0.81702 0.91295 0.0
O244 O 0.27016 0.83203 0.9047 0.0
O245 O 0.2811 0.78485 0.86629 0.0
O246 O 0.2709 0.7888 0.83771 0.0
O247 O 0.24573 0.8371 0.87189 0.0
O248 O 0.25965 0.82533 0.84749 0.0
C249 C 0.28067 0.77976 0.84936 0.0
C250 C 0.24878 0.83766 0.8542 0.0
O251 O 0.261 0.80268 0.90326 0.0
Mg252 Mg 0.6492 0.76102 0.37182 0.0
O253 O 0.66646 0.73379 0.37234 0.0
O254 O 0.67462 0.72953 0.34267 0.0
Mg255 Mg 0.65945 0.7499 0.32355 0.0
C256 C 0.67516 0.72482 0.35978 0.0
C257 C 0.64226 0.75926 0.41322 0.0
O258 O 0.62535 0.7573 0.40647 0.0
O259 O 0.67538 0.77867 0.36508 0.0
O260 O 0.67832 0.7725 0.33474 0.0
O261 O 0.6226 0.74372 0.36875 0.0
O262 O 0.63883 0.7553 0.34543 0.0
C263 C 0.68331 0.78113 0.34932 0.0
C264 C 0.62536 0.7449 0.351 0.0
O265 O 0.65555 0.76301 0.40226 0.0
Mg266 Mg 0.70511 0.14907 0.87296 0.0
O267 O 0.73284 0.16496 0.86976 0.0
O268 O 0.73769 0.16455 0.83922 0.0
Mg269 Mg 0.71443 0.15067 0.82301 0.0
C270 C 0.74275 0.16899 0.8556 0.0
C271 C 0.70556 0.14364 0.91356 0.0
O272 O 0.70277 0.12708 0.90655 0.0
O273 O 0.68759 0.17492 0.86404 0.0
O274 O 0.69416 0.17203 0.83382 0.0
O275 O 0.72167 0.12211 0.87126 0.0
O276 O 0.70724 0.13503 0.84758 0.0
C277 C 0.6855 0.18001 0.84705 0.0
C278 C 0.71791 0.12221 0.85367 0.0
O279 O 0.7064 0.15758 0.90284 0.0
Mg280 Mg 0.31134 0.19871 0.37291 0.0
O281 O 0.29542 0.22599 0.3701 0.0
O282 O 0.29638 0.23505 0.34036 0.0
Mg283 Mg 0.30943 0.21171 0.32351 0.0
C284 C 0.29191 0.23769 0.35728 0.0
C285 C 0.3177 0.19736 0.41295 0.0
O286 O 0.333 0.19131 0.40489 0.0
O287 O 0.28518 0.18225 0.36412 0.0
O288 O 0.28793 0.19162 0.33466 0.0
O289 O 0.33832 0.2151 0.37198 0.0
O290 O 0.32542 0.20237 0.3474 0.0
C291 C 0.27975 0.18203 0.34719 0.0
C292 C 0.33836 0.21243 0.35422 0.0
O293 O 0.30326 0.1997 0.40308 0.0
Mg294 Mg 0.70374 0.81062 0.09097 0.0
O295 O 0.73125 0.79382 0.09129 0.0
O296 O 0.73897 0.79087 0.12129 0.0
Mg297 Mg 0.71638 0.80329 0.1398 0.0
C298 C 0.74226 0.78821 0.10408 0.0
C299 C 0.70742 0.81718 0.04936 0.0
O300 O 0.71415 0.83276 0.05593 0.0
O301 O 0.68681 0.78458 0.09855 0.0
O302 O 0.69481 0.78316 0.12863 0.0
O303 O 0.72051 0.83734 0.09379 0.0
O304 O 0.70833 0.82157 0.11714 0.0
C305 C 0.68554 0.77725 0.11473 0.0
C306 C 0.71811 0.83532 0.11152 0.0
O307 O 0.70132 0.80485 0.06041 0.0
Mg308 Mg 0.65179 0.20041 0.59012 0.0
O309 O 0.66731 0.22798 0.59015 0.0
O310 O 0.67332 0.23422 0.61989 0.0
Mg311 Mg 0.6613 0.2118 0.63865 0.0
C312 C 0.67408 0.23835 0.60266 0.0
C313 C 0.64423 0.19755 0.549 0.0
O314 O 0.6286 0.19136 0.55634 0.0
O315 O 0.6788 0.18383 0.5966 0.0
O316 O 0.68161 0.19091 0.62678 0.0
O317 O 0.62419 0.21628 0.59518 0.0
O318 O 0.64185 0.20381 0.61677 0.0
C319 C 0.68702 0.18223 0.61235 0.0
C320 C 0.62741 0.21337 0.61268 0.0
O321 O 0.65791 0.20081 0.55954 0.0
Mg322 Mg 0.31563 0.75924 0.59157 0.0
O323 O 0.29628 0.73303 0.59266 0.0
O324 O 0.29107 0.72919 0.62305 0.0
Mg325 Mg 0.30757 0.74952 0.64084 0.0
C326 C 0.28828 0.72454 0.60616 0.0
C327 C 0.32025 0.75441 0.54965 0.0
O328 O 0.33502 0.74557 0.55584 0.0
O329 O 0.29081 0.77802 0.59915 0.0
O330 O 0.28848 0.77229 0.62976 0.0
O331 O 0.34125 0.74081 0.59396 0.0
O332 O 0.32669 0.75363 0.61763 0.0
C333 C 0.28345 0.78094 0.61509 0.0
C334 C 0.33949 0.74272 0.61175 0.0
O335 O 0.3093 0.76224 0.561 0.0
Mg336 Mg 0.87306 0.6985 0.81417 0.0
O337 O 0.87143 0.72579 0.79641 0.0
O338 O 0.84115 0.73316 0.79502 0.0
Mg339 Mg 0.8239 0.70946 0.80729 0.0
C340 C 0.85823 0.7367 0.79148 0.0
C341 C 0.91466 0.70284 0.82035 0.0
O342 O 0.90803 0.70849 0.83638 0.0
O343 O 0.86611 0.68114 0.78862 0.0
O344 O 0.83636 0.69007 0.78551 0.0
O345 O 0.87088 0.71581 0.83999 0.0
O346 O 0.84685 0.70279 0.82597 0.0
C347 C 0.85056 0.6809 0.78002 0.0
C348 C 0.85304 0.71344 0.83879 0.0
O349 O 0.90366 0.69708 0.80787 0.0
Mg350 Mg 0.76374 0.37107 0.31058 0.0
O351 O 0.73619 0.36969 0.2941 0.0
O352 O 0.72725 0.33999 0.29414 0.0
Mg353 Mg 0.74995 0.32213 0.30705 0.0
C354 C 0.72458 0.35696 0.28996 0.0
C355 C 0.76278 0.41184 0.31713 0.0
O356 O 0.76341 0.40456 0.33392 0.0
O357 O 0.78029 0.36253 0.28447 0.0
O358 O 0.77047 0.3332 0.286 0.0
O359 O 0.74703 0.36953 0.33754 0.0
O360 O 0.75935 0.34536 0.32361 0.0
C361 C 0.78029 0.34589 0.27841 0.0
C362 C 0.74948 0.35179 0.33688 0.0
O363 O 0.76458 0.40135 0.30316 0.0
Mg364 Mg 0.09117 0.25761 0.81088 0.0
O365 O 0.09353 0.23096 0.79401 0.0
O366 O 0.12422 0.22834 0.79041 0.0
Mg367 Mg 0.14109 0.25 0.80614 0.0
C368 C 0.10765 0.22267 0.78734 0.0
C369 C 0.05119 0.26082 0.81685 0.0
O370 O 0.05929 0.26649 0.83219 0.0
O371 O 0.09902 0.2755 0.78559 0.0
O372 O 0.13015 0.27227 0.78685 0.0
O373 O 0.09349 0.24071 0.83742 0.0
O374 O 0.11703 0.255 0.82376 0.0
C375 C 0.11549 0.2798 0.78024 0.0
C376 C 0.11119 0.24428 0.83676 0.0
O377 O 0.06117 0.25647 0.80307 0.0
Mg378 Mg 0.20245 0.59025 0.31279 0.0
O379 O 0.22959 0.59171 0.29522 0.0
O380 O 0.23645 0.62176 0.29154 0.0
Mg381 Mg 0.21307 0.63914 0.30458 0.0
C382 C 0.24015 0.60464 0.2891 0.0
C383 C 0.20737 0.54869 0.31864 0.0
O384 O 0.21309 0.55492 0.33478 0.0
O385 O 0.18433 0.59708 0.28742 0.0
O386 O 0.19205 0.62707 0.28425 0.0
O387 O 0.21976 0.59371 0.33909 0.0
O388 O 0.2063 0.61644 0.32353 0.0
C389 C 0.18279 0.61281 0.27931 0.0
C390 C 0.2166 0.61129 0.33711 0.0
O391 O 0.20133 0.55985 0.30642 0.0
Mg392 Mg 0.87483 0.26 0.14854 0.0
O393 O 0.87358 0.23263 0.1654 0.0
O394 O 0.84339 0.22614 0.16947 0.0
Mg395 Mg 0.82576 0.24904 0.15605 0.0
C396 C 0.8606 0.22216 0.17155 0.0
C397 C 0.91569 0.25957 0.14169 0.0
O398 O 0.90854 0.26138 0.12495 0.0
O399 O 0.86767 0.27738 0.174 0.0
O400 O 0.83745 0.26971 0.1768 0.0
O401 O 0.87181 0.24312 0.12214 0.0
O402 O 0.84872 0.25631 0.13751 0.0
C403 C 0.85181 0.27879 0.18196 0.0
C404 C 0.85408 0.24608 0.12404 0.0
O405 O 0.90503 0.2604 0.15566 0.0
Mg406 Mg 0.20406 0.3703 0.65115 0.0
O407 O 0.23137 0.36666 0.66727 0.0
O408 O 0.23723 0.33635 0.66977 0.0
Mg409 Mg 0.21364 0.3207 0.65491 0.0
C410 C 0.24145 0.35324 0.67287 0.0
C411 C 0.20069 0.41045 0.64589 0.0
O412 O 0.19423 0.40251 0.6308 0.0
O413 O 0.18714 0.3617 0.67661 0.0
O414 O 0.19256 0.33101 0.67638 0.0
O415 O 0.22 0.36932 0.62441 0.0
O416 O 0.20673 0.34497 0.63774 0.0
C417 C 0.18452 0.34534 0.68299 0.0
C418 C 0.21694 0.35163 0.62464 0.0
O419 O 0.20551 0.40029 0.65946 0.0
Mg420 Mg 0.09017 0.70063 0.1499 0.0
O421 O 0.09249 0.72874 0.16528 0.0
O422 O 0.12302 0.73449 0.1658 0.0
Mg423 Mg 0.13975 0.71202 0.15124 0.0
C424 C 0.10628 0.73891 0.16986 0.0
C425 C 0.0497 0.69829 0.14467 0.0
O426 O 0.05718 0.69279 0.12893 0.0
O427 O 0.09982 0.68459 0.17606 0.0
O428 O 0.13017 0.69148 0.17333 0.0
O429 O 0.09048 0.71624 0.12254 0.0
O430 O 0.11534 0.7038 0.13549 0.0
C431 C 0.11678 0.68292 0.18137 0.0
C432 C 0.10834 0.71367 0.12242 0.0
O433 O 0.06019 0.70077 0.15859 0.0
Mg434 Mg 0.76511 0.58979 0.64934 0.0
O435 O 0.73727 0.5895 0.66688 0.0
O436 O 0.73233 0.61989 0.66841 0.0
Mg437 Mg 0.7531 0.63908 0.65486 0.0
C438 C 0.72749 0.60329 0.67228 0.0
C439 C 0.75865 0.54858 0.64381 0.0
O440 O 0.74965 0.55561 0.62953 0.0
O441 O 0.78235 0.59694 0.67599 0.0
O442 O 0.77259 0.6261 0.67493 0.0
O443 O 0.74776 0.59279 0.62271 0.0
O444 O 0.76027 0.61632 0.6372 0.0
C445 C 0.78214 0.61339 0.68259 0.0
C446 C 0.74988 0.61051 0.62408 0.0
O447 O 0.7674 0.55919 0.65477 0.0
Mg448 Mg 0.81689 0.87095 0.69906 0.0
O449 O 0.79965 0.86998 0.72647 0.0
O450 O 0.79766 0.84034 0.73568 0.0
Mg451 Mg 0.81131 0.8221 0.71376 0.0
C452 C 0.79437 0.85754 0.73806 0.0
C453 C 0.82162 0.91243 0.70426 0.0
O454 O 0.83766 0.90586 0.71014 0.0
O455 O 0.79033 0.8638 0.6818 0.0
O456 O 0.79184 0.83553 0.69353 0.0
O457 O 0.84356 0.86859 0.71642 0.0
O458 O 0.82925 0.84458 0.70458 0.0
C459 C 0.7839 0.84734 0.68305 0.0
C460 C 0.84243 0.85081 0.71468 0.0
O461 O 0.80977 0.90143 0.69731 0.0
Mg462 Mg 0.59245 0.31059 0.20132 0.0
O463 O 0.5953 0.29414 0.22849 0.0
O464 O 0.62564 0.29138 0.23484 0.0
Mg465 Mg 0.64198 0.3054 0.21111 0.0
C466 C 0.60853 0.28861 0.23889 0.0
C467 C 0.5525 0.31702 0.19972 0.0
O468 O 0.5608 0.33219 0.19376 0.0
O469 O 0.6002 0.2854 0.18396 0.0
O470 O 0.6308 0.28407 0.19039 0.0
O471 O 0.59403 0.33666 0.21795 0.0
O472 O 0.61825 0.32335 0.20435 0.0
C473 C 0.61635 0.27824 0.18186 0.0
C474 C 0.61183 0.33613 0.21493 0.0
O475 O 0.5623 0.30274 0.20266 0.0
Mg476 Mg 0.14784 0.08883 0.70097 0.0
O477 O 0.16478 0.08919 0.72864 0.0
O478 O 0.16882 0.11938 0.73406 0.0
Mg479 Mg 0.15375 0.13757 0.71293 0.0
C480 C 0.17151 0.10239 0.73833 0.0
C481 C 0.14289 0.04738 0.70507 0.0
O482 O 0.12695 0.05347 0.71162 0.0
O483 O 0.17394 0.09765 0.68447 0.0
O484 O 0.17499 0.12799 0.69122 0.0
O485 O 0.12113 0.08979 0.71733 0.0
O486 O 0.13557 0.11437 0.7059 0.0
C487 C 0.18116 0.11379 0.68266 0.0
C488 C 0.12228 0.10761 0.71579 0.0
O489 O 0.15488 0.05866 0.69866 0.0
Mg490 Mg 0.37365 0.64916 0.19858 0.0
O491 O 0.37112 0.6662 0.22571 0.0
O492 O 0.34087 0.66586 0.23334 0.0
Mg493 Mg 0.32413 0.65375 0.20938 0.0
C494 C 0.35779 0.67017 0.23677 0.0
C495 C 0.41457 0.64277 0.19893 0.0
O496 O 0.40738 0.62616 0.19663 0.0
O497 O 0.3662 0.67487 0.18151 0.0
O498 O 0.33645 0.67619 0.19083 0.0
O499 O 0.37174 0.62306 0.21611 0.0
O500 O 0.34771 0.63634 0.20231 0.0
C501 C 0.3503 0.68282 0.18182 0.0
C502 C 0.35393 0.62374 0.21329 0.0
O503 O 0.4039 0.65674 0.19864 0.0
Mg504 Mg 0.81339 0.08789 0.2605 0.0
O505 O 0.79638 0.08923 0.23353 0.0
O506 O 0.79349 0.11932 0.22655 0.0
Mg507 Mg 0.80625 0.13705 0.24946 0.0
C508 C 0.7907 0.10225 0.22294 0.0
C509 C 0.82071 0.04693 0.26029 0.0
O510 O 0.83738 0.05427 0.26223 0.0
O511 O 0.78763 0.09529 0.27783 0.0
O512 O 0.78574 0.12558 0.27067 0.0
O513 O 0.84013 0.09149 0.2433 0.0
O514 O 0.82458 0.1141 0.25668 0.0
C515 C 0.78009 0.11127 0.27952 0.0
C516 C 0.83817 0.10907 0.24634 0.0
O517 O 0.80657 0.05743 0.26084 0.0
Mg518 Mg 0.37435 0.30985 0.76082 0.0
O519 O 0.37275 0.29322 0.73344 0.0
O520 O 0.34227 0.29136 0.7276 0.0
Mg521 Mg 0.32487 0.30679 0.74896 0.0
C522 C 0.35916 0.28748 0.7236 0.0
C523 C 0.41504 0.31594 0.76324 0.0
O524 O 0.40759 0.33214 0.76708 0.0
O525 O 0.36508 0.2841 0.77766 0.0
O526 O 0.33478 0.2859 0.77026 0.0
O527 O 0.3731 0.33693 0.74429 0.0
O528 O 0.34888 0.32302 0.75701 0.0
C529 C 0.3482 0.27848 0.77925 0.0
C530 C 0.35527 0.33637 0.74716 0.0
O531 O 0.40448 0.30198 0.76162 0.0
Mg532 Mg 0.15063 0.87108 0.26093 0.0
O533 O 0.16724 0.87148 0.23323 0.0
O534 O 0.17291 0.84185 0.22628 0.0
Mg535 Mg 0.16017 0.82287 0.24851 0.0
C536 C 0.17423 0.85913 0.22267 0.0
C537 C 0.14261 0.91244 0.26137 0.0
O538 O 0.1257 0.90537 0.26173 0.0
O539 O 0.17687 0.86399 0.27793 0.0
O540 O 0.1803 0.83406 0.27016 0.0
O541 O 0.12327 0.86685 0.24478 0.0
O542 O 0.14066 0.84465 0.25659 0.0
C543 C 0.18513 0.84832 0.2794 0.0
C544 C 0.12616 0.84929 0.24735 0.0
O545 O 0.1565 0.90168 0.26249 0.0
Mg546 Mg 0.59251 0.64804 0.76246 0.0
O547 O 0.59226 0.66463 0.73462 0.0
O548 O 0.62214 0.67041 0.72782 0.0
Mg549 Mg 0.64098 0.65542 0.74859 0.0
C550 C 0.60479 0.67203 0.72434 0.0
C551 C 0.55099 0.64158 0.76045 0.0
O552 O 0.5578 0.62484 0.75806 0.0
O553 O 0.60076 0.6744 0.77882 0.0
O554 O 0.63097 0.67533 0.77088 0.0
O555 O 0.59423 0.62099 0.74641 0.0
O556 O 0.61857 0.6363 0.75677 0.0
C557 C 0.6171 0.68144 0.78014 0.0
C558 C 0.61216 0.62258 0.74745 0.0
O559 O 0.56193 0.65472 0.7646 0.0
Mg560 Mg 0.7029 0.81291 0.87121 0.0
O561 O 0.72955 0.79508 0.86939 0.0
O562 O 0.73586 0.79147 0.83916 0.0
Mg563 Mg 0.71229 0.80449 0.82204 0.0
C564 C 0.73979 0.78893 0.85628 0.0
C565 C 0.70802 0.81989 0.91259 0.0
O566 O 0.71234 0.83628 0.90582 0.0
O567 O 0.68442 0.78758 0.86508 0.0
O568 O 0.69138 0.78429 0.83486 0.0
O569 O 0.72071 0.83865 0.86728 0.0
O570 O 0.7065 0.82361 0.84472 0.0
C571 C 0.68249 0.7794 0.84946 0.0
C572 C 0.7174 0.83676 0.8497 0.0
O573 O 0.70273 0.80704 0.90187 0.0
Mg574 Mg 0.70392 0.14901 0.09065 0.0
O575 O 0.73191 0.16411 0.092 0.0
O576 O 0.73912 0.16696 0.12201 0.0
Mg577 Mg 0.7165 0.15316 0.13965 0.0
C578 C 0.74278 0.16949 0.10484 0.0
C579 C 0.70296 0.14175 0.05072 0.0
O580 O 0.69866 0.12606 0.05907 0.0
O581 O 0.68813 0.17553 0.09911 0.0
O582 O 0.69551 0.17451 0.12937 0.0
O583 O 0.71919 0.12182 0.09199 0.0
O584 O 0.70741 0.13604 0.11642 0.0
C585 C 0.68669 0.1817 0.11571 0.0
C586 C 0.71686 0.12252 0.10981 0.0
O587 O 0.70458 0.1563 0.06036 0.0
Mg588 Mg 0.31203 0.20087 0.59018 0.0
O589 O 0.29417 0.22706 0.59258 0.0
O590 O 0.28911 0.23129 0.62291 0.0
Mg591 Mg 0.30524 0.20942 0.63967 0.0
C592 C 0.28681 0.23598 0.60594 0.0
C593 C 0.31816 0.19647 0.54961 0.0
O594 O 0.33291 0.18904 0.55752 0.0
O595 O 0.28693 0.18214 0.59765 0.0
O596 O 0.28631 0.18678 0.62845 0.0
O597 O 0.33816 0.21869 0.59219 0.0
O598 O 0.32426 0.20537 0.61612 0.0
C599 C 0.28054 0.17854 0.61391 0.0
C600 C 0.337 0.21638 0.61001 0.0
O601 O 0.30472 0.20151 0.55982 0.0
Mg602 Mg 0.26077 0.8088 0.08919 0.0
O603 O 0.23427 0.79148 0.09383 0.0
O604 O 0.22757 0.79264 0.12418 0.0
Mg605 Mg 0.25237 0.80564 0.13927 0.0
C606 C 0.2237 0.7877 0.1076 0.0
C607 C 0.26311 0.81509 0.04914 0.0
O608 O 0.26993 0.82981 0.05743 0.0
O609 O 0.27882 0.78341 0.09639 0.0
O610 O 0.27085 0.78379 0.12643 0.0
O611 O 0.24326 0.83488 0.09155 0.0
O612 O 0.25858 0.82222 0.1149 0.0
C613 C 0.27945 0.77648 0.11278 0.0
C614 C 0.24729 0.83469 0.10908 0.0
O615 O 0.25845 0.80125 0.059 0.0
Mg616 Mg 0.65066 0.76178 0.58992 0.0
O617 O 0.66873 0.73501 0.59186 0.0
O618 O 0.66951 0.72702 0.62194 0.0
Mg619 Mg 0.65646 0.75035 0.63917 0.0
C620 C 0.67348 0.7239 0.60492 0.0
C621 C 0.64414 0.76066 0.54878 0.0
O622 O 0.62718 0.76046 0.55575 0.0
O623 O 0.67592 0.78015 0.59705 0.0
O624 O 0.677 0.77062 0.62662 0.0
O625 O 0.62462 0.74352 0.59281 0.0
O626 O 0.63867 0.75751 0.61599 0.0
C627 C 0.68329 0.78042 0.6132 0.0
C628 C 0.62582 0.74658 0.61048 0.0
O629 O 0.6579 0.76258 0.5596 0.0
Mg630 Mg 0.26302 0.14728 0.87247 0.0
O631 O 0.23581 0.16473 0.87228 0.0
O632 O 0.22875 0.16995 0.84243 0.0
Mg633 Mg 0.25124 0.15716 0.82394 0.0
C634 C 0.22527 0.17164 0.85973 0.0
C635 C 0.26235 0.13949 0.91391 0.0
O636 O 0.26141 0.12267 0.90701 0.0
O637 O 0.28093 0.17295 0.8659 0.0
O638 O 0.27243 0.17687 0.83614 0.0
O639 O 0.24563 0.12069 0.86795 0.0
O640 O 0.2585 0.13771 0.84601 0.0
C641 C 0.28201 0.18148 0.85031 0.0
C642 C 0.24847 0.12372 0.8504 0.0
O643 O 0.26459 0.15311 0.903 0.0
Mg644 Mg 0.31569 0.76005 0.36999 0.0
O645 O 0.29956 0.73235 0.36925 0.0
O646 O 0.29429 0.72665 0.33922 0.0
Mg647 Mg 0.30853 0.74855 0.32111 0.0
C648 C 0.2926 0.72244 0.35638 0.0
C649 C 0.32171 0.7559 0.41172 0.0
O650 O 0.33846 0.75204 0.40546 0.0
O651 O 0.28901 0.77634 0.36247 0.0
O652 O 0.28778 0.76985 0.33204 0.0
O653 O 0.34276 0.74432 0.36756 0.0
O654 O 0.32743 0.75606 0.34373 0.0
C655 C 0.28163 0.77825 0.34638 0.0
C656 C 0.34115 0.74636 0.34975 0.0
O657 O 0.30894 0.76076 0.40054 0.0
Mg658 Mg 0.65347 0.20125 0.37211 0.0
O659 O 0.66992 0.22818 0.3689 0.0
O660 O 0.67226 0.23441 0.33853 0.0
Mg661 Mg 0.65846 0.21071 0.32238 0.0
C662 C 0.67528 0.23847 0.3555 0.0
C663 C 0.64801 0.19699 0.41263 0.0
O664 O 0.63347 0.18904 0.40488 0.0
O665 O 0.67904 0.18397 0.36447 0.0
O666 O 0.67934 0.18972 0.33376 0.0
O667 O 0.62668 0.21773 0.36964 0.0
O668 O 0.64096 0.20391 0.3463 0.0
C669 C 0.68569 0.18149 0.34817 0.0
C670 C 0.62764 0.21426 0.35201 0.0
O671 O 0.66119 0.20251 0.40229 0.0
H672 H 0.93657 0.26059 0.17336 0.0
H673 H 0.93768 0.24313 0.11611 0.0
H674 H 0.96894 0.25283 0.17663 0.0
H675 H 0.96935 0.2336 0.11936 0.0
H676 H 0.0278 0.24845 0.11576 0.0
H677 H -0.0039 0.23948 0.11767 0.0
H678 H -0.0033 0.25022 0.17724 0.0
H679 H 0.02876 0.25975 0.17459 0.0
C680 C 0.94392 0.25508 0.16142 0.0
C681 C 0.93509 0.25366 0.14412 0.0
C682 C 0.96271 0.25036 0.16324 0.0
C683 C 0.97307 0.24406 0.14774 0.0
C684 C 0.96307 0.24011 0.13128 0.0
C685 C 0.94455 0.24544 0.12932 0.0
C686 C 0.02098 0.24916 0.1292 0.0
C687 C 0.03048 0.25564 0.14482 0.0
C688 C 0.00246 0.24367 0.13054 0.0
C689 C -0.00742 0.24487 0.14754 0.0
C690 C 0.00285 0.24989 0.16355 0.0
C691 C 0.02149 0.2554 0.16214 0.0
H692 H 0.19959 0.52479 0.61404 0.0
H693 H 0.21562 0.52708 0.67191 0.0
H694 H 0.20521 0.49181 0.61386 0.0
H695 H 0.21967 0.49347 0.67227 0.0
H696 H 0.2254 0.43057 0.66696 0.0
H697 H 0.23107 0.46407 0.66506 0.0
H698 H 0.1867 0.4687 0.6244 0.0
H699 H 0.18222 0.43568 0.62542 0.0
C700 C 0.20414 0.51819 0.62682 0.0
C701 C 0.2063 0.52838 0.64322 0.0
C702 C 0.20727 0.49919 0.62677 0.0
C703 C 0.21181 0.48971 0.64333 0.0
C704 C 0.21577 0.50016 0.65934 0.0
C705 C 0.21312 0.5194 0.65925 0.0
C706 C 0.217 0.43892 0.65761 0.0
C707 C 0.20341 0.43063 0.64625 0.0
C708 C 0.22025 0.45808 0.65649 0.0
C709 C 0.20968 0.4692 0.64424 0.0
C710 C 0.19579 0.46069 0.63338 0.0
C711 C 0.19291 0.44169 0.63418 0.0
H712 H 0.02817 0.70541 0.17521 0.0
H713 H 0.028 0.70724 0.11524 0.0
H714 H -0.00445 0.71308 0.17575 0.0
H715 H -0.00384 0.71709 0.11538 0.0
H716 H 0.93805 0.69955 0.11575 0.0
H717 H 0.96994 0.70813 0.11523 0.0
H718 H 0.96788 0.71824 0.17485 0.0
H719 H 0.93577 0.70829 0.17504 0.0
C720 C 0.02102 0.70754 0.1621 0.0
C721 C 0.0302 0.70448 0.14518 0.0
C722 C 0.00214 0.71226 0.16228 0.0
C723 C -0.00793 0.71426 0.14547 0.0
C724 C 0.00234 0.7139 0.12869 0.0
C725 C 0.02092 0.70841 0.12852 0.0
C726 C 0.94455 0.70335 0.12879 0.0
C727 C 0.93466 0.70239 0.14553 0.0
C728 C 0.96313 0.70875 0.12858 0.0
C729 C 0.97259 0.71332 0.14519 0.0
C730 C 0.96196 0.71393 0.16177 0.0
C731 C 0.94332 0.70826 0.16197 0.0
H732 H 0.78746 0.43441 0.64465 0.0
H733 H 0.72746 0.43213 0.64735 0.0
H734 H 0.7867 0.46755 0.64924 0.0
H735 H 0.72629 0.46509 0.65428 0.0
H736 H 0.7289 0.52628 0.63848 0.0
H737 H 0.72749 0.49306 0.64236 0.0
H738 H 0.78384 0.49353 0.66453 0.0
H739 H 0.78543 0.52669 0.65898 0.0
C740 C 0.7741 0.4412 0.64655 0.0
C741 C 0.75752 0.43117 0.64526 0.0
C742 C 0.77355 0.46021 0.64962 0.0
C743 C 0.75637 0.46946 0.65215 0.0
C744 C 0.73979 0.45888 0.65178 0.0
C745 C 0.74037 0.43996 0.64793 0.0
C746 C 0.741 0.5191 0.64397 0.0
C747 C 0.75748 0.52874 0.64781 0.0
C748 C 0.74015 0.49998 0.64662 0.0
C749 C 0.75584 0.49011 0.65315 0.0
C750 C 0.77178 0.50026 0.65851 0.0
C751 C 0.77268 0.51935 0.65559 0.0
H752 H 0.93569 0.73325 0.82584 0.0
H753 H 0.93745 0.67751 0.80467 0.0
H754 H 0.96822 0.73743 0.81834 0.0
H755 H 0.97052 0.68021 0.79946 0.0
H756 H 0.02957 0.683 0.79636 0.0
H757 H -0.00334 0.68631 0.78989 0.0
H758 H -0.00507 0.73407 0.82658 0.0
H759 H 0.02781 0.73134 0.83137 0.0
C760 C 0.94337 0.72173 0.81993 0.0
C761 C 0.93443 0.70496 0.81616 0.0
C762 C 0.96221 0.72396 0.81575 0.0
C763 C 0.97286 0.70899 0.80886 0.0
C764 C 0.96338 0.69234 0.80456 0.0
C765 C 0.94431 0.69052 0.80785 0.0
C766 C 0.02197 0.69427 0.80279 0.0
C767 C 0.03091 0.70648 0.81494 0.0
C768 C 0.00291 0.6961 0.79934 0.0
C769 C -0.00772 0.70984 0.80848 0.0
C770 C 0.00193 0.723 0.81934 0.0
C771 C 0.02097 0.72131 0.8225 0.0
H772 H 0.76976 0.52707 0.28997 0.0
H773 H 0.74347 0.52477 0.34387 0.0
H774 H 0.76236 0.49506 0.28487 0.0
H775 H 0.73488 0.49337 0.33895 0.0
H776 H 0.74374 0.43303 0.34143 0.0
H777 H 0.73575 0.46482 0.33872 0.0
H778 H 0.76021 0.46613 0.28323 0.0
H779 H 0.76784 0.43383 0.28649 0.0
C780 C 0.76241 0.5195 0.3008 0.0
C781 C 0.75805 0.52802 0.31772 0.0
C782 C 0.75793 0.5009 0.29791 0.0
C783 C 0.74893 0.4903 0.31194 0.0
C784 C 0.74291 0.49983 0.32803 0.0
C785 C 0.74783 0.5182 0.33105 0.0
C786 C 0.74761 0.44031 0.32877 0.0
C787 C 0.75735 0.4313 0.31462 0.0
C788 C 0.74295 0.45893 0.32701 0.0
C789 C 0.74856 0.4694 0.31126 0.0
C790 C 0.75654 0.45955 0.29622 0.0
C791 C 0.76099 0.44077 0.29796 0.0
H792 H 0.026 0.28208 0.83412 0.0
H793 H 0.03119 0.23448 0.79827 0.0
H794 H -0.00739 0.27785 0.83527 0.0
H795 H -0.00256 0.22918 0.80049 0.0
H796 H 0.93524 0.2439 0.79314 0.0
H797 H 0.96909 0.24053 0.79204 0.0
H798 H 0.97236 0.25869 0.84926 0.0
H799 H 0.93891 0.26325 0.84982 0.0
C800 C 0.01989 0.27055 0.82666 0.0
C801 C 0.03098 0.25855 0.81626 0.0
C802 C 0.00078 0.26789 0.82753 0.0
C803 C -0.00761 0.25273 0.81857 0.0
C804 C 0.00349 0.2409 0.80766 0.0
C805 C 0.02272 0.24393 0.80637 0.0
C806 C 0.94332 0.24724 0.8054 0.0
C807 C 0.93471 0.2547 0.82128 0.0
C808 C 0.96264 0.24501 0.80489 0.0
C809 C 0.97347 0.2502 0.82029 0.0
C810 C 0.96448 0.25548 0.83684 0.0
C811 C 0.9453 0.25799 0.83724 0.0
H812 H 0.18139 0.43521 0.3324 0.0
H813 H 0.23272 0.43119 0.30136 0.0
H814 H 0.18179 0.4686 0.329 0.0
H815 H 0.23301 0.46492 0.297 0.0
H816 H 0.23756 0.52673 0.31412 0.0
H817 H 0.23775 0.49302 0.31112 0.0
H818 H 0.17725 0.49323 0.31012 0.0
H819 H 0.17742 0.52669 0.31427 0.0
C820 C 0.19269 0.44166 0.32468 0.0
C821 C 0.20697 0.43095 0.31712 0.0
C822 C 0.19283 0.46079 0.32239 0.0
C823 C 0.20726 0.46963 0.31239 0.0
C824 C 0.22169 0.4587 0.30483 0.0
C825 C 0.22151 0.43943 0.30716 0.0
C826 C 0.2244 0.51935 0.3133 0.0
C827 C 0.20748 0.52889 0.31492 0.0
C828 C 0.22445 0.50011 0.31131 0.0
C829 C 0.20749 0.4902 0.31099 0.0
C830 C 0.19059 0.50021 0.31116 0.0
C831 C 0.1906 0.51937 0.31332 0.0
H832 H 0.11848 0.93475 0.24323 0.0
H833 H 0.17384 0.93359 0.26654 0.0
H834 H 0.12236 0.96619 0.23445 0.0
H835 H 0.17826 0.96562 0.25821 0.0
H836 H 0.1742 0.0254 0.26556 0.0
H837 H 0.17854 -0.00675 0.25803 0.0
H838 H 0.12387 -0.00692 0.23176 0.0
H839 H 0.11964 0.02451 0.24045 0.0
C840 C 0.13149 0.94153 0.24677 0.0
C841 C 0.14549 0.932 0.25633 0.0
C842 C 0.13398 0.95994 0.24158 0.0
C843 C 0.15034 0.96979 0.24644 0.0
C844 C 0.16499 0.95951 0.25476 0.0
C845 C 0.16253 0.94089 0.2597 0.0
C846 C 0.16305 0.01813 0.25847 0.0
C847 C 0.14606 0.02698 0.25472 0.0
C848 C 0.16547 -0.00054 0.254 0.0
C849 C 0.15085 -0.01081 0.24573 0.0
C850 C 0.13501 -0.00078 0.23963 0.0
C851 C 0.13245 0.01764 0.24455 0.0
H852 H 0.52982 0.67113 0.77104 0.0
H853 H 0.5291 0.62195 0.73724 0.0
H854 H 0.49764 0.67677 0.76394 0.0
H855 H 0.49732 0.62719 0.72959 0.0
H856 H 0.43765 0.62033 0.73948 0.0
H857 H 0.46849 0.62736 0.72951 0.0
H858 H 0.46855 0.67589 0.76527 0.0
H859 H 0.43732 0.6687 0.77451 0.0
C860 C 0.52256 0.66144 0.76212 0.0
C861 C 0.53155 0.64555 0.75555 0.0
C862 C 0.50383 0.66459 0.75792 0.0
C863 C 0.49354 0.6517 0.74723 0.0
C864 C 0.50358 0.63705 0.73887 0.0
C865 C 0.52215 0.63382 0.74331 0.0
C866 C 0.44454 0.63226 0.74548 0.0
C867 C 0.43562 0.64321 0.75876 0.0
C868 C 0.46255 0.6365 0.73972 0.0
C869 C 0.47256 0.65131 0.74784 0.0
C870 C 0.4625 0.66353 0.75946 0.0
C871 C 0.44435 0.6594 0.76499 0.0
H872 H 0.78918 0.02546 0.26118 0.0
H873 H 0.84723 0.02493 0.24544 0.0
H874 H 0.78671 -0.00702 0.25425 0.0
H875 H 0.84494 -0.0068 0.23702 0.0
H876 H 0.84834 0.93492 0.25011 0.0
H877 H 0.84614 0.96645 0.24123 0.0
H878 H 0.78649 0.96529 0.25287 0.0
H879 H 0.78937 0.9332 0.26187 0.0
C880 C 0.80147 0.01824 0.25623 0.0
C881 C 0.81869 0.02738 0.25495 0.0
C882 C 0.80013 -0.00064 0.25205 0.0
C883 C 0.81604 -0.01083 0.24641 0.0
C884 C 0.83256 -0.00066 0.24283 0.0
C885 C 0.83399 0.01794 0.24756 0.0
C886 C 0.8348 0.94156 0.251 0.0
C887 C 0.81924 0.93186 0.25757 0.0
C888 C 0.83331 0.96003 0.24565 0.0
C889 C 0.81622 0.96974 0.24719 0.0
C890 C 0.80024 0.95928 0.25225 0.0
C891 C 0.80179 0.94062 0.25748 0.0
H892 H 0.52888 0.3443 0.74656 0.0
H893 H 0.52979 0.28648 0.76213 0.0
H894 H 0.4973 0.34138 0.7364 0.0
H895 H 0.49746 0.28358 0.75399 0.0
H896 H 0.43626 0.28474 0.7593 0.0
H897 H 0.46835 0.28292 0.74952 0.0
H898 H 0.46928 0.34308 0.7439 0.0
H899 H 0.43742 0.34421 0.75267 0.0
C900 C 0.522 0.33102 0.74832 0.0
C901 C 0.53136 0.31592 0.75622 0.0
C902 C 0.50357 0.32927 0.74265 0.0
C903 C 0.49352 0.31271 0.74599 0.0
C904 C 0.50379 0.297 0.75192 0.0
C905 C 0.52252 0.2986 0.75689 0.0
C906 C 0.44358 0.29748 0.75595 0.0
C907 C 0.43466 0.31469 0.75753 0.0
C908 C 0.46222 0.29655 0.75035 0.0
C909 C 0.47255 0.31289 0.74669 0.0
C910 C 0.46277 0.32993 0.74686 0.0
C911 C 0.44421 0.33079 0.75232 0.0
H912 H 0.1495 0.02675 0.73571 0.0
H913 H 0.1457 0.02435 0.67599 0.0
H914 H 0.15615 -0.0063 0.73704 0.0
H915 H 0.14997 -0.00888 0.67696 0.0
H916 H 0.15982 0.93313 0.67888 0.0
H917 H 0.16482 0.9664 0.67968 0.0
H918 H 0.14382 0.96735 0.73638 0.0
H919 H 0.14037 0.93402 0.73562 0.0
C920 C 0.14993 0.0189 0.72289 0.0
C921 C 0.14706 0.0277 0.70577 0.0
C922 C 0.15353 -0.0001 0.72357 0.0
C923 C 0.15342 -0.01075 0.70714 0.0
C924 C 0.15074 -0.00149 0.68998 0.0
C925 C 0.14794 0.0176 0.68932 0.0
C926 C 0.1566 0.94061 0.69152 0.0
C927 C 0.14934 0.93133 0.70704 0.0
C928 C 0.15917 0.95977 0.69198 0.0
C929 C 0.15408 0.97007 0.70786 0.0
C930 C 0.14793 0.9603 0.7238 0.0
C931 C 0.14558 0.94114 0.72334 0.0
H932 H 0.43636 0.61637 0.21431 0.0
H933 H 0.43584 0.67418 0.19869 0.0
H934 H 0.4679 0.61873 0.22376 0.0
H935 H 0.46768 0.67733 0.20861 0.0
H936 H 0.52892 0.67227 0.19782 0.0
H937 H 0.49685 0.67641 0.20618 0.0
H938 H 0.49621 0.62052 0.2293 0.0
H939 H 0.52767 0.61633 0.21927 0.0
C940 C 0.44326 0.62967 0.21276 0.0
C941 C 0.43399 0.64483 0.20494 0.0
C942 C 0.46166 0.63128 0.2185 0.0
C943 C 0.47162 0.64808 0.21615 0.0
C944 C 0.4615 0.66374 0.20984 0.0
C945 C 0.44298 0.66206 0.20411 0.0
C946 C 0.52157 0.66078 0.20431 0.0
C947 C 0.53025 0.64354 0.20669 0.0
C948 C 0.50297 0.66312 0.20937 0.0
C949 C 0.49258 0.64817 0.2169 0.0
C950 C 0.50249 0.63191 0.22181 0.0
C951 C 0.52085 0.6294 0.21617 0.0
H952 H 0.80301 0.02601 0.68186 0.0
H953 H 0.83368 0.02554 0.73335 0.0
H954 H 0.79683 -0.00661 0.68505 0.0
H955 H 0.82593 -0.00639 0.73816 0.0
H956 H 0.83515 0.93447 0.73117 0.0
H957 H 0.83039 0.96678 0.73518 0.0
H958 H 0.7903 0.96654 0.68975 0.0
H959 H 0.79632 0.93388 0.68546 0.0
C960 C 0.80831 0.01876 0.694 0.0
C961 C 0.81948 0.02798 0.70696 0.0
C962 C 0.80454 -0.00013 0.69612 0.0
C963 C 0.81148 -0.01022 0.71158 0.0
C964 C 0.82124 -0.00016 0.72534 0.0
C965 C 0.82568 0.01847 0.72275 0.0
C966 C 0.8255 0.94149 0.72191 0.0
C967 C 0.81685 0.93195 0.70743 0.0
C968 C 0.82241 0.96034 0.72431 0.0
C969 C 0.81068 0.97039 0.71209 0.0
C970 C 0.80044 0.96013 0.69881 0.0
C971 C 0.80367 0.94117 0.69638 0.0
H972 H 0.53126 0.28895 0.21474 0.0
H973 H 0.52889 0.34604 0.19619 0.0
H974 H 0.49748 0.28895 0.21907 0.0
H975 H 0.49575 0.34661 0.20201 0.0
H976 H 0.43869 0.33483 0.18127 0.0
H977 H 0.47212 0.33539 0.18449 0.0
H978 H 0.4684 0.29724 0.23115 0.0
H979 H 0.43453 0.29562 0.22667 0.0
C980 C 0.52352 0.30153 0.21175 0.0
C981 C 0.5325 0.31722 0.20423 0.0
C982 C 0.50421 0.30164 0.21454 0.0
C983 C 0.49372 0.31754 0.21002 0.0
C984 C 0.50319 0.33378 0.2046 0.0
C985 C 0.52227 0.33351 0.20134 0.0
C986 C 0.44502 0.32658 0.19221 0.0
C987 C 0.43416 0.31526 0.20372 0.0
C988 C 0.46424 0.32709 0.19432 0.0
C989 C 0.47308 0.31679 0.20849 0.0
C990 C 0.46212 0.30534 0.22009 0.0
C991 C 0.44277 0.30441 0.21756 0.0
H992 H 0.23891 0.11838 0.02638 0.0
H993 H 0.26959 0.16979 0.027 0.0
H994 H 0.23071 0.12338 -0.00523 0.0
H995 H 0.2625 0.17484 -0.00525 0.0
H996 H 0.27064 0.16986 0.93487 0.0
H997 H 0.26263 0.17514 0.96687 0.0
H998 H 0.23287 0.12243 0.96755 0.0
H999 H 0.24143 0.11761 0.93612 0.0
C1000 C 0.24431 0.13063 0.01942 0.0
C1001 C 0.25582 0.1431 0.02877 0.0
C1002 C 0.23967 0.13364 0.0009 0.0
C1003 C 0.2473 0.14874 -0.00921 0.0
C1004 C 0.25713 0.16232 0.00102 0.0
C1005 C 0.26137 0.15948 0.01976 0.0
C1006 C 0.26257 0.15941 0.94221 0.0
C1007 C 0.25746 0.14288 0.9334 0.0
C1008 C 0.25782 0.16237 0.9608 0.0
C1009 C 0.24795 0.14874 0.97112 0.0
C1010 C 0.24132 0.13311 0.96129 0.0
C1011 C 0.24633 0.13009 0.9429 0.0
H1012 H 0.27894 0.83817 0.02416 0.0
H1013 H 0.2394 0.79316 0.02885 0.0
H1014 H 0.27399 0.83957 -0.00879 0.0
H1015 H 0.23308 0.7954 -0.00449 0.0
H1016 H 0.24986 0.78867 0.93453 0.0
H1017 H 0.24457 0.78921 0.96794 0.0
H1018 H 0.25664 0.8481 0.96821 0.0
H1019 H 0.26372 0.847 0.93543 0.0
C1020 C 0.2689 0.82874 0.01809 0.0
C1021 C 0.25972 0.81547 0.02899 0.0
C1022 C 0.2657 0.82975 -0.00091 0.0
C1023 C 0.2528 0.81783 -0.00955 0.0
C1024 C 0.24325 0.8047 0.00152 0.0
C1025 C 0.24686 0.80339 0.02062 0.0
C1026 C 0.25157 0.80165 0.94187 0.0
C1027 C 0.25825 0.81755 0.93265 0.0
C1028 C 0.24818 0.80208 0.96102 0.0
C1029 C 0.25118 0.81851 0.97111 0.0
C1030 C 0.25541 0.83489 0.96122 0.0
C1031 C 0.25938 0.83431 0.94233 0.0
H1032 H 0.62166 0.74001 0.52722 0.0
H1033 H 0.6745 0.76852 0.52718 0.0
H1034 H 0.62584 0.73166 0.49567 0.0
H1035 H 0.67921 0.76064 0.49508 0.0
H1036 H 0.67315 0.76785 0.43369 0.0
H1037 H 0.67866 0.76087 0.4659 0.0
H1038 H 0.62693 0.72923 0.46717 0.0
H1039 H 0.62144 0.73738 0.43561 0.0
C1040 C 0.63416 0.74475 0.52013 0.0
C1041 C 0.64731 0.75564 0.52931 0.0
C1042 C 0.63682 0.73985 0.50168 0.0
C1043 C 0.65245 0.74631 0.49147 0.0
C1044 C 0.66642 0.75595 0.50145 0.0
C1045 C 0.66382 0.7606 0.52011 0.0
C1046 C 0.66288 0.75969 0.4412 0.0
C1047 C 0.64626 0.7542 0.43259 0.0
C1048 C 0.66599 0.75551 0.45993 0.0
C1049 C 0.65245 0.74577 0.47051 0.0
C1050 C 0.63714 0.73816 0.46077 0.0
C1051 C 0.63385 0.74276 0.44228 0.0
H1052 H 0.72319 0.16699 0.0304 0.0
H1053 H 0.69061 0.11678 0.02586 0.0
H1054 H 0.72586 0.16852 -0.00355 0.0
H1055 H 0.69412 0.1176 -0.00754 0.0
H1056 H 0.67858 0.13466 0.93756 0.0
H1057 H 0.67984 0.1357 0.97121 0.0
H1058 H 0.73622 0.15728 0.96836 0.0
H1059 H 0.73403 0.1577 0.93423 0.0
C1060 C 0.71666 0.1563 0.02211 0.0
C1061 C 0.70607 0.14216 0.03057 0.0
C1062 C 0.7184 0.15702 0.00273 0.0
C1063 C 0.70951 0.14361 -0.0083 0.0
C1064 C 0.70035 0.12867 0.00046 0.0
C1065 C 0.69847 0.12807 0.01965 0.0
C1066 C 0.6911 0.13983 0.94421 0.0
C1067 C 0.70625 0.14591 0.93363 0.0
C1068 C 0.69201 0.14021 0.96345 0.0
C1069 C 0.70844 0.14585 0.97252 0.0
C1070 C 0.72342 0.15273 0.96182 0.0
C1071 C 0.72223 0.15292 0.94239 0.0
H1072 H 0.34561 0.18898 0.52501 0.0
H1073 H 0.29181 0.21556 0.52942 0.0
H1074 H 0.34662 0.19579 0.49257 0.0
H1075 H 0.29325 0.22405 0.4967 0.0
H1076 H 0.28848 0.20854 0.43487 0.0
H1077 H 0.28934 0.21498 0.46785 0.0
H1078 H 0.3497 0.2106 0.46665 0.0
H1079 H 0.34834 0.20188 0.43444 0.0
C1080 C 0.33401 0.19653 0.51897 0.0
C1081 C 0.31843 0.20124 0.52966 0.0
C1082 C 0.33472 0.20095 0.50018 0.0
C1083 C 0.31994 0.21053 0.4914 0.0
C1084 C 0.30471 0.21618 0.50249 0.0
C1085 C 0.30386 0.21135 0.52136 0.0
C1086 C 0.30186 0.20863 0.44187 0.0
C1087 C 0.31819 0.20348 0.43243 0.0
C1088 C 0.30248 0.21271 0.46085 0.0
C1089 C 0.31954 0.21204 0.47063 0.0
C1090 C 0.33608 0.20966 0.46027 0.0
C1091 C 0.33537 0.20481 0.4416 0.0
H1092 H 0.73745 0.82021 0.02704 0.0
H1093 H 0.67924 0.80525 0.02748 0.0
H1094 H 0.73843 0.81697 -0.00644 0.0
H1095 H 0.68011 0.80056 -0.00595 0.0
H1096 H 0.67882 0.82093 0.93587 0.0
H1097 H 0.67911 0.81679 0.96925 0.0
H1098 H 0.73851 0.80497 0.9669 0.0
H1099 H 0.73805 0.81119 0.93357 0.0
C1100 C 0.72489 0.81606 0.01978 0.0
C1101 C 0.70815 0.81352 0.02947 0.0
C1102 C 0.72543 0.81383 0.00055 0.0
C1103 C 0.70916 0.80907 -0.00935 0.0
C1104 C 0.69275 0.80514 0.00083 0.0
C1105 C 0.69221 0.80756 0.02005 0.0
C1106 C 0.69187 0.81757 0.9427 0.0
C1107 C 0.70842 0.81663 0.93255 0.0
C1108 C 0.6921 0.8148 0.96186 0.0
C1109 C 0.70887 0.81046 0.9712 0.0
C1110 C 0.72538 0.80879 0.96058 0.0
C1111 C 0.72518 0.81219 0.94144 0.0
H1112 H 0.61488 0.20481 0.52655 0.0
H1113 H 0.67507 0.20565 0.52796 0.0
H1114 H 0.61541 0.21428 0.49443 0.0
H1115 H 0.67595 0.21259 0.49503 0.0
H1116 H 0.6757 0.21304 0.43349 0.0
H1117 H 0.67412 0.22175 0.46605 0.0
H1118 H 0.61749 0.20024 0.46838 0.0
H1119 H 0.61889 0.19323 0.43616 0.0
C1120 C 0.62829 0.20652 0.51976 0.0
C1121 C 0.64492 0.20347 0.52943 0.0
C1122 C 0.62867 0.2118 0.50114 0.0
C1123 C 0.64569 0.21272 0.49129 0.0
C1124 C 0.66242 0.21151 0.50159 0.0
C1125 C 0.662 0.20713 0.52054 0.0
C1126 C 0.66293 0.21039 0.44114 0.0
C1127 C 0.64757 0.202 0.43244 0.0
C1128 C 0.66198 0.21533 0.45992 0.0
C1129 C 0.64579 0.21152 0.4705 0.0
C1130 C 0.63025 0.20388 0.46124 0.0
C1131 C 0.63113 0.19929 0.44256 0.0
H1132 H 0.30854 0.72712 0.43216 0.0
H1133 H 0.32667 0.78397 0.43549 0.0
H1134 H 0.30271 0.72662 0.46564 0.0
H1135 H 0.32243 0.78344 0.46893 0.0
H1136 H 0.30976 0.78361 0.52813 0.0
H1137 H 0.30485 0.78369 0.49463 0.0
H1138 H 0.3167 0.7247 0.49345 0.0
H1139 H 0.32042 0.72479 0.52697 0.0
C1140 C 0.3113 0.73947 0.44024 0.0
C1141 C 0.31804 0.75558 0.43162 0.0
C1142 C 0.30813 0.73922 0.45942 0.0
C1143 C 0.31208 0.75499 0.47028 0.0
C1144 C 0.31866 0.77114 0.46125 0.0
C1145 C 0.32145 0.77144 0.44209 0.0
C1146 C 0.31098 0.7707 0.52058 0.0
C1147 C 0.31591 0.75429 0.5298 0.0
C1148 C 0.30841 0.7707 0.50135 0.0
C1149 C 0.31102 0.75432 0.49099 0.0
C1150 C 0.31461 0.73765 0.50067 0.0
C1151 C 0.31708 0.73768 0.51989 0.0
H1152 H 0.19538 0.33431 0.24792 0.0
H1153 H 0.14536 0.35082 0.27663 0.0
H1154 H 0.17725 0.31931 0.22454 0.0
H1155 H 0.12633 0.33712 0.25185 0.0
H1156 H 0.09935 0.29001 0.21596 0.0
H1157 H 0.11412 0.31113 0.23835 0.0
H1158 H 0.16015 0.31886 0.1999 0.0
H1159 H 0.14657 0.2969 0.17928 0.0
C1160 C 0.18031 0.33552 0.2486 0.0
C1161 C 0.17179 0.34394 0.26384 0.0
C1162 C 0.16966 0.32694 0.235 0.0
C1163 C 0.14995 0.32698 0.23579 0.0
C1164 C 0.14136 0.33649 0.25066 0.0
C1165 C 0.15222 0.34478 0.26467 0.0
C1166 C 0.11265 0.29631 0.21256 0.0
C1167 C 0.12212 0.29135 0.1962 0.0
C1168 C 0.12116 0.30852 0.22531 0.0
C1169 C 0.139 0.31625 0.22158 0.0
C1170 C 0.1472 0.31246 0.20423 0.0
C1171 C 0.13917 0.29998 0.19207 0.0
H1172 H 0.1148 0.64191 0.77941 0.0
H1173 H 0.1208 0.69138 0.74623 0.0
H1174 H 0.12929 0.62365 0.75491 0.0
H1175 H 0.13263 0.67362 0.72094 0.0
H1176 H 0.17416 0.64859 0.68583 0.0
H1177 H 0.15602 0.66253 0.70846 0.0
H1178 H 0.14222 0.60855 0.7319 0.0
H1179 H 0.16346 0.5943 0.7093 0.0
C1180 C 0.11865 0.64869 0.76647 0.0
C1181 C 0.11713 0.668 0.76469 0.0
C1182 C 0.12715 0.63826 0.75233 0.0
C1183 C 0.13391 0.64698 0.73598 0.0
C1184 C 0.12969 0.66608 0.7336 0.0
C1185 C 0.12208 0.67648 0.74794 0.0
C1186 C 0.16747 0.63938 0.69576 0.0
C1187 C 0.1705 0.62016 0.69553 0.0
C1188 C 0.15619 0.6476 0.70888 0.0
C1189 C 0.14625 0.63706 0.72209 0.0
C1190 C 0.14917 0.61753 0.72201 0.0
C1191 C 0.16127 0.60916 0.70889 0.0
H1192 H 0.8172 0.62146 0.28376 0.0
H1193 H 0.77543 0.60963 0.24256 0.0
H1194 H 0.83757 0.63427 0.26002 0.0
H1195 H 0.79451 0.62384 0.21885 0.0
H1196 H 0.82846 0.6509 0.17646 0.0
H1197 H 0.81596 0.62905 0.19861 0.0
H1198 H 0.84514 0.65796 0.24281 0.0
H1199 H 0.85912 0.67841 0.21977 0.0
C1200 C 0.81269 0.62117 0.26938 0.0
C1201 C 0.79509 0.61418 0.26476 0.0
C1202 C 0.82414 0.62903 0.2557 0.0
C1203 C 0.81793 0.63067 0.23714 0.0
C1204 C 0.80043 0.62274 0.23261 0.0
C1205 C 0.78926 0.61448 0.24625 0.0
C1206 C 0.83261 0.65205 0.19091 0.0
C1207 C 0.84476 0.66612 0.19653 0.0
C1208 C 0.82505 0.63977 0.20385 0.0
C1209 C 0.82874 0.64176 0.223 0.0
C1210 C 0.84182 0.65549 0.22838 0.0
C1211 C 0.84993 0.6674 0.2152 0.0
H1212 H 0.87146 0.29839 0.74942 0.0
H1213 H 0.81805 0.28126 0.7716 0.0
H1214 H 0.85556 0.32139 0.72995 0.0
H1215 H 0.80248 0.30216 0.75208 0.0
H1216 H 0.77147 0.34117 0.71998 0.0
H1217 H 0.79075 0.32749 0.74361 0.0
H1218 H 0.83915 0.3342 0.70773 0.0
H1219 H 0.81959 0.35018 0.68523 0.0
C1220 C 0.85639 0.29941 0.75002 0.0
C1221 C 0.84614 0.28784 0.76204 0.0
C1222 C 0.8471 0.31262 0.73879 0.0
C1223 C 0.82737 0.31453 0.73943 0.0
C1224 C 0.81751 0.30244 0.75132 0.0
C1225 C 0.82664 0.28967 0.76244 0.0
C1226 C 0.7864 0.34038 0.71762 0.0
C1227 C 0.79409 0.34663 0.70088 0.0
C1228 C 0.79759 0.33178 0.73092 0.0
C1229 C 0.81667 0.32803 0.72733 0.0
C1230 C 0.82462 0.33612 0.7112 0.0
C1231 C 0.81342 0.3455 0.6982 0.0
H1232 H 0.28209 0.16521 0.31451 0.0
H1233 H 0.24818 0.16638 0.36419 0.0
H1234 H 0.26188 0.14331 0.30081 0.0
H1235 H 0.22571 0.14547 0.3492 0.0
H1236 H 0.18753 0.10589 0.3178 0.0
H1237 H 0.21234 0.12027 0.33628 0.0
H1238 H 0.23702 0.141 0.28501 0.0
H1239 H 0.21407 0.12502 0.26745 0.0
C1240 C 0.26984 0.1611 0.32239 0.0
C1241 C 0.26649 0.168 0.34027 0.0
C1242 C 0.25782 0.14858 0.31426 0.0
C1243 C 0.24121 0.14312 0.32316 0.0
C1244 C 0.23815 0.14936 0.3416 0.0
C1245 C 0.25091 0.1615 0.35022 0.0
C1246 C 0.19902 0.1127 0.31073 0.0
C1247 C 0.19921 0.11414 0.29125 0.0
C1248 C 0.21301 0.12141 0.32129 0.0
C1249 C 0.22713 0.13198 0.31247 0.0
C1250 C 0.22729 0.13257 0.29281 0.0
C1251 C 0.21386 0.12345 0.28247 0.0
H1252 H 0.28178 0.7702 0.81376 0.0
H1253 H 0.30627 0.75519 0.8667 0.0
H1254 H 0.30215 0.75142 0.79837 0.0
H1255 H 0.32548 0.7318 0.85068 0.0
H1256 H 0.36173 0.69231 0.81412 0.0
H1257 H 0.34608 0.71589 0.83336 0.0
H1258 H 0.30989 0.72755 0.78615 0.0
H1259 H 0.32784 0.70893 0.76736 0.0
C1260 C 0.29116 0.76212 0.82241 0.0
C1261 C 0.29225 0.76457 0.84164 0.0
C1262 C 0.30289 0.75028 0.81326 0.0
C1263 C 0.31528 0.73846 0.82283 0.0
C1264 C 0.31617 0.74032 0.84247 0.0
C1265 C 0.30497 0.75357 0.85179 0.0
C1266 C 0.35115 0.70111 0.80794 0.0
C1267 C 0.34597 0.69876 0.78923 0.0
C1268 C 0.34176 0.71433 0.81905 0.0
C1269 C 0.32659 0.7247 0.81173 0.0
C1270 C 0.32196 0.72177 0.7929 0.0
C1271 C 0.33215 0.71018 0.78177 0.0
H1272 H 0.67767 0.81351 0.33214 0.0
H1273 H 0.72036 0.78063 0.35849 0.0
H1274 H 0.70116 0.83346 0.31837 0.0
H1275 H 0.74434 0.79966 0.3437 0.0
H1276 H 0.78607 0.83665 0.3162 0.0
H1277 H 0.76226 0.82432 0.33706 0.0
H1278 H 0.72063 0.83398 0.29434 0.0
H1279 H 0.74446 0.8474 0.27438 0.0
C1280 C 0.69222 0.81095 0.33538 0.0
C1281 C 0.69726 0.79579 0.34654 0.0
C1282 C 0.70581 0.82208 0.32707 0.0
C1283 C 0.72491 0.81804 0.32926 0.0
C1284 C 0.7299 0.80351 0.34161 0.0
C1285 C 0.71617 0.79254 0.35023 0.0
C1286 C 0.77162 0.83677 0.31174 0.0
C1287 C 0.76688 0.84337 0.29403 0.0
C1288 C 0.75796 0.82931 0.32351 0.0
C1289 C 0.73926 0.82792 0.31762 0.0
C1290 C 0.73461 0.83513 0.29987 0.0
C1291 C 0.74826 0.84285 0.28827 0.0
H1292 H 0.66452 0.17708 0.81671 0.0
H1293 H 0.67318 0.21278 0.86394 0.0
H1294 H 0.64337 0.19891 0.80333 0.0
H1295 H 0.65271 0.23619 0.84945 0.0
H1296 H 0.61232 0.27524 0.81898 0.0
H1297 H 0.62587 0.24992 0.83761 0.0
H1298 H 0.64517 0.22429 0.78665 0.0
H1299 H 0.63055 0.24835 0.76876 0.0
C1300 C 0.66201 0.18985 0.8242 0.0
C1301 C 0.67094 0.19338 0.84117 0.0
C1302 C 0.64997 0.20266 0.8163 0.0
C1303 C 0.64688 0.21998 0.82463 0.0
C1304 C 0.65482 0.22314 0.84238 0.0
C1305 C 0.66665 0.20981 0.85071 0.0
C1306 C 0.61877 0.26361 0.81197 0.0
C1307 C 0.62017 0.26344 0.79248 0.0
C1308 C 0.62691 0.2493 0.82261 0.0
C1309 C 0.63666 0.23472 0.81387 0.0
C1310 C 0.63734 0.23461 0.79423 0.0
C1311 C 0.62903 0.24857 0.78378 0.0
H1312 H 0.24674 0.7734 0.61405 0.0
H1313 H 0.28611 0.81753 0.62293 0.0
H1314 H 0.22218 0.79189 0.62747 0.0
H1315 H 0.26134 0.83719 0.63498 0.0
H1316 H 0.22015 0.85772 0.67925 0.0
H1317 H 0.24392 0.84425 0.65923 0.0
H1318 H 0.2009 0.81305 0.63066 0.0
H1319 H 0.17797 0.82525 0.65194 0.0
C1320 C 0.24983 0.78754 0.61808 0.0
C1321 C 0.26813 0.79421 0.61722 0.0
C1322 C 0.23569 0.79836 0.62584 0.0
C1323 C 0.23941 0.81636 0.6327 0.0
C1324 C 0.2577 0.82337 0.6305 0.0
C1325 C 0.27193 0.8123 0.62312 0.0
C1326 C 0.21595 0.84823 0.6684 0.0
C1327 C 0.19737 0.84242 0.66708 0.0
C1328 C 0.22956 0.84041 0.65676 0.0
C1329 C 0.22475 0.82692 0.64332 0.0
C1330 C 0.20568 0.82256 0.6412 0.0
C1331 C 0.1923 0.8299 0.65315 0.0
H1332 H 0.67893 0.74205 0.10128 0.0
H1333 H 0.65829 0.78368 0.13879 0.0
H1334 H 0.65766 0.71939 0.11502 0.0
H1335 H 0.63582 0.76231 0.15123 0.0
H1336 H 0.61584 0.71685 0.18906 0.0
H1337 H 0.63093 0.74063 0.17102 0.0
H1338 H 0.63307 0.70346 0.12368 0.0
H1339 H 0.61937 0.67922 0.14296 0.0
C1340 C 0.66935 0.74642 0.11207 0.0
C1341 C 0.67029 0.76442 0.1192 0.0
C1342 C 0.65699 0.73347 0.12004 0.0
C1343 C 0.64507 0.7385 0.13497 0.0
C1344 C 0.64521 0.75716 0.14068 0.0
C1345 C 0.65787 0.76974 0.13321 0.0
C1346 C 0.619 0.71411 0.17458 0.0
C1347 C 0.61613 0.69646 0.16722 0.0
C1348 C 0.62775 0.72783 0.16397 0.0
C1349 C 0.6336 0.72439 0.14547 0.0
C1350 C 0.62941 0.70686 0.13784 0.0
C1351 C 0.62102 0.69299 0.1487 0.0
H1352 H 0.74174 0.10938 0.68724 0.0
H1353 H 0.78468 0.11822 0.64626 0.0
H1354 H 0.71937 0.12489 0.66752 0.0
H1355 H 0.76221 0.1327 0.62546 0.0
H1356 H 0.72433 0.17935 0.60344 0.0
H1357 H 0.74638 0.15815 0.61823 0.0
H1358 H 0.70009 0.12942 0.64464 0.0
H1359 H 0.67882 0.15148 0.63101 0.0
C1360 C 0.74606 0.11379 0.67345 0.0
C1361 C 0.7647 0.11221 0.66801 0.0
C1362 C 0.73322 0.12284 0.66196 0.0
C1363 C 0.73867 0.13039 0.64455 0.0
C1364 C 0.75728 0.12761 0.63876 0.0
C1365 C 0.77015 0.11878 0.65044 0.0
C1366 C 0.71905 0.16814 0.61206 0.0
C1367 C 0.69995 0.16684 0.61598 0.0
C1368 C 0.73167 0.15589 0.62068 0.0
C1369 C 0.72534 0.14201 0.63325 0.0
C1370 C 0.70594 0.14016 0.63586 0.0
C1371 C 0.69353 0.15255 0.62759 0.0
H1372 H 0.31831 0.1854 0.10808 0.0
H1373 H 0.269 0.21675 0.12152 0.0
H1374 H 0.33748 0.2078 0.12475 0.0
H1375 H 0.28782 0.24005 0.13647 0.0
H1376 H 0.31646 0.26499 0.18368 0.0
H1377 H 0.30077 0.24413 0.16352 0.0
H1378 H 0.35269 0.23324 0.13455 0.0
H1379 H 0.36891 0.25369 0.15631 0.0
C1380 C 0.31172 0.19762 0.11385 0.0
C1381 C 0.29222 0.19932 0.11372 0.0
C1382 C 0.32268 0.21049 0.1236 0.0
C1383 C 0.3143 0.22545 0.13308 0.0
C1384 C 0.29494 0.22821 0.13064 0.0
C1385 C 0.28405 0.21513 0.12147 0.0
C1386 C 0.32471 0.25813 0.17311 0.0
C1387 C 0.34399 0.2613 0.17151 0.0
C1388 C 0.3155 0.24627 0.16107 0.0
C1389 C 0.32504 0.23738 0.14648 0.0
C1390 C 0.34461 0.23988 0.14534 0.0
C1391 C 0.354 0.25168 0.15779 0.0
H1392 H 0.77677 0.64466 0.70192 0.0
H1393 H 0.81188 0.59586 0.70099 0.0
H1394 H 0.79691 0.65905 0.72368 0.0
H1395 H 0.83301 0.61096 0.72338 0.0
H1396 H 0.85611 0.64354 0.77606 0.0
H1397 H 0.84083 0.62427 0.75253 0.0
H1398 H 0.82476 0.67403 0.72264 0.0
H1399 H 0.83846 0.69285 0.74685 0.0
C1400 C 0.78896 0.6369 0.70631 0.0
C1401 C 0.79312 0.61933 0.69896 0.0
C1402 C 0.80079 0.64542 0.71876 0.0
C1403 C 0.81738 0.63679 0.72443 0.0
C1404 C 0.82067 0.61831 0.71878 0.0
C1405 C 0.80857 0.6096 0.70603 0.0
C1406 C 0.84968 0.65018 0.76414 0.0
C1407 C 0.84803 0.66958 0.76333 0.0
C1408 C 0.84087 0.63918 0.75068 0.0
C1409 C 0.83064 0.64756 0.73619 0.0
C1410 C 0.8315 0.66702 0.73417 0.0
C1411 C 0.8397 0.67789 0.74781 0.0
H1412 H 0.8455 0.26769 0.21663 0.0
H1413 H 0.85069 0.31659 0.18253 0.0
H1414 H 0.83071 0.28489 0.24024 0.0
H1415 H 0.83664 0.33521 0.20687 0.0
H1416 H 0.79473 0.36265 0.2463 0.0
H1417 H 0.81595 0.34821 0.22413 0.0
H1418 H 0.8201 0.30054 0.26133 0.0
H1419 H 0.79845 0.31412 0.28139 0.0
C1420 C 0.84413 0.28257 0.21473 0.0
C1421 C 0.8493 0.29086 0.19799 0.0
C1422 C 0.83539 0.29287 0.22845 0.0
C1423 C 0.83167 0.31207 0.22604 0.0
C1424 C 0.83846 0.32058 0.20958 0.0
C1425 C 0.84702 0.31002 0.19563 0.0
C1426 C 0.80029 0.349 0.24931 0.0
C1427 C 0.79455 0.33928 0.26526 0.0
C1428 C 0.81262 0.34054 0.23662 0.0
C1429 C 0.81981 0.32242 0.23998 0.0
C1430 C 0.81467 0.31371 0.25682 0.0
C1431 C 0.80214 0.32178 0.26889 0.0
H1432 H 0.1057 0.28046 0.74372 0.0
H1433 H 0.13337 0.3117 0.78647 0.0
H1434 H 0.11991 0.29993 0.72009 0.0
H1435 H 0.14612 0.33265 0.76341 0.0
H1436 H 0.18923 0.34848 0.72014 0.0
H1437 H 0.16903 0.33582 0.74397 0.0
H1438 H 0.12783 0.32267 0.70173 0.0
H1439 H 0.1493 0.33372 0.67807 0.0
C1440 C 0.11415 0.29215 0.74799 0.0
C1441 C 0.11855 0.29468 0.76673 0.0
C1442 C 0.12243 0.30348 0.73445 0.0
C1443 C 0.13492 0.31785 0.73948 0.0
C1444 C 0.13753 0.32134 0.75858 0.0
C1445 C 0.1298 0.30962 0.77198 0.0
C1446 C 0.17565 0.34318 0.7162 0.0
C1447 C 0.17061 0.34215 0.6975 0.0
C1448 C 0.16382 0.33593 0.72988 0.0
C1449 C 0.14646 0.32784 0.72513 0.0
C1450 C 0.14113 0.32807 0.70624 0.0
C1451 C 0.15325 0.3348 0.69258 0.0
H1452 H 0.14461 0.61327 0.27862 0.0
H1453 H 0.19375 0.62012 0.24477 0.0
H1454 H 0.12548 0.62702 0.25391 0.0
H1455 H 0.17577 0.63521 0.22113 0.0
H1456 H 0.1443 0.65882 0.17653 0.0
H1457 H 0.15683 0.63667 0.19796 0.0
H1458 H 0.11579 0.6531 0.2391 0.0
H1459 H 0.10179 0.67415 0.21608 0.0
C1460 C 0.15115 0.61716 0.26556 0.0
C1461 C 0.17051 0.6153 0.26324 0.0
C1462 C 0.14031 0.62551 0.25155 0.0
C1463 C 0.14878 0.63244 0.23517 0.0
C1464 C 0.16818 0.62966 0.2329 0.0
C1465 C 0.17875 0.62099 0.24658 0.0
C1466 C 0.13777 0.65753 0.1901 0.0
C1467 C 0.12231 0.66842 0.19477 0.0
C1468 C 0.14522 0.64497 0.20269 0.0
C1469 C 0.13815 0.64349 0.22091 0.0
C1470 C 0.12188 0.65375 0.22535 0.0
C1471 C 0.11385 0.66596 0.21223 0.0
H1472 H 0.76059 0.86528 0.65679 0.0
H1473 H 0.77132 0.81258 0.68366 0.0
H1474 H 0.73742 0.85007 0.63693 0.0
H1475 H 0.74928 0.79824 0.66584 0.0
H1476 H 0.71236 0.76727 0.63133 0.0
H1477 H 0.73626 0.78364 0.64587 0.0
H1478 H 0.71676 0.83503 0.62044 0.0
H1479 H 0.69251 0.8171 0.60467 0.0
C1480 C 0.75809 0.85055 0.65844 0.0
C1481 C 0.76831 0.84016 0.67155 0.0
C1482 C 0.74478 0.84164 0.64697 0.0
C1483 C 0.74159 0.82221 0.6484 0.0
C1484 C 0.75133 0.81263 0.66248 0.0
C1485 C 0.76428 0.82126 0.67351 0.0
C1486 C 0.71333 0.78207 0.62862 0.0
C1487 C 0.70035 0.79093 0.61726 0.0
C1488 C 0.727 0.79202 0.63764 0.0
C1489 C 0.72821 0.81158 0.63608 0.0
C1490 C 0.71621 0.82027 0.62298 0.0
C1491 C 0.70237 0.80998 0.61361 0.0
H1492 H 0.61853 0.24221 0.19081 0.0
H1493 H 0.62185 0.28021 0.1446 0.0
H1494 H 0.63238 0.21828 0.17248 0.0
H1495 H 0.63442 0.25585 0.12497 0.0
H1496 H 0.67897 0.21665 0.10137 0.0
H1497 H 0.65762 0.2392 0.11491 0.0
H1498 H 0.63813 0.19681 0.15351 0.0
H1499 H 0.66076 0.1758 0.14139 0.0
C1500 C 0.62152 0.24505 0.17627 0.0
C1501 C 0.61906 0.26283 0.16901 0.0
C1502 C 0.62952 0.2312 0.16543 0.0
C1503 C 0.63507 0.23467 0.14679 0.0
C1504 C 0.63109 0.25238 0.13923 0.0
C1505 C 0.62343 0.26637 0.15033 0.0
C1506 C 0.66999 0.21243 0.11277 0.0
C1507 C 0.67175 0.19473 0.12069 0.0
C1508 C 0.65755 0.22532 0.12062 0.0
C1509 C 0.64629 0.22049 0.13619 0.0
C1510 C 0.64709 0.20199 0.14259 0.0
C1511 C 0.65992 0.18957 0.13531 0.0
H1512 H 0.24365 0.17931 0.60509 0.0
H1513 H 0.28608 0.14587 0.63108 0.0
H1514 H 0.21961 0.16052 0.61964 0.0
H1515 H 0.26243 0.12575 0.6444 0.0
H1516 H 0.21861 0.11016 0.6876 0.0
H1517 H 0.24284 0.12292 0.6677 0.0
H1518 H 0.20082 0.13763 0.62675 0.0
H1519 H 0.17684 0.12624 0.64771 0.0
C1520 C 0.24775 0.16729 0.61322 0.0
C1521 C 0.2666 0.16391 0.61692 0.0
C1522 C 0.23395 0.15636 0.62172 0.0
C1523 C 0.23874 0.14156 0.63384 0.0
C1524 C 0.25784 0.13733 0.63596 0.0
C1525 C 0.27154 0.14858 0.6279 0.0
C1526 C 0.21479 0.1158 0.67412 0.0
C1527 C 0.19601 0.11705 0.66897 0.0
C1528 C 0.2287 0.12314 0.66251 0.0
C1529 C 0.22414 0.13169 0.64531 0.0
C1530 C 0.2052 0.13183 0.63993 0.0
C1531 C 0.19134 0.12489 0.65176 0.0
H1532 H 0.27012 0.75004 0.13719 0.0
H1533 H 0.31397 0.76592 0.09903 0.0
H1534 H 0.29093 0.72874 0.15263 0.0
H1535 H 0.33544 0.74447 0.11503 0.0
H1536 H 0.36137 0.69141 0.14613 0.0
H1537 H 0.34533 0.71382 0.12585 0.0
H1538 H 0.3153 0.73475 0.17357 0.0
H1539 H 0.33053 0.71209 0.19328 0.0
C1540 C 0.28423 0.74868 0.13189 0.0
C1541 C 0.29062 0.75997 0.11728 0.0
C1542 C 0.29629 0.73668 0.14095 0.0
C1543 C 0.31517 0.73572 0.13576 0.0
C1544 C 0.32108 0.7453 0.11966 0.0
C1545 C 0.3088 0.75743 0.1104 0.0
C1546 C 0.35174 0.70124 0.15223 0.0
C1547 C 0.34669 0.69977 0.17106 0.0
C1548 C 0.34248 0.71398 0.14064 0.0
C1549 C 0.3283 0.72534 0.14794 0.0
C1550 C 0.32541 0.72552 0.1673 0.0
C1551 C 0.33435 0.71274 0.17868 0.0
H1552 H 0.72301 0.18203 0.35507 0.0
H1553 H 0.67874 0.14874 0.33245 0.0
H1554 H 0.74593 0.16179 0.34112 0.0
H1555 H 0.70113 0.12713 0.31999 0.0
H1556 H 0.74267 0.10573 0.27783 0.0
H1557 H 0.71971 0.1202 0.29763 0.0
H1558 H 0.76417 0.13928 0.33392 0.0
H1559 H 0.78673 0.12617 0.31278 0.0
C1560 C 0.7183 0.1698 0.34773 0.0
C1561 C 0.69929 0.16679 0.3448 0.0
C1562 C 0.73145 0.15797 0.33962 0.0
C1563 C 0.72579 0.14263 0.32871 0.0
C1564 C 0.70649 0.13901 0.32734 0.0
C1565 C 0.69346 0.15116 0.33494 0.0
C1566 C 0.74728 0.11263 0.29037 0.0
C1567 C 0.76628 0.11465 0.29406 0.0
C1568 C 0.7341 0.12106 0.30195 0.0
C1569 C 0.73967 0.13147 0.31768 0.0
C1570 C 0.7589 0.13218 0.32182 0.0
C1571 C 0.772 0.12418 0.30996 0.0
H1572 H 0.3202 0.18287 0.85094 0.0
H1573 H 0.27067 0.21539 0.84159 0.0
H1574 H 0.33924 0.20735 0.83661 0.0
H1575 H 0.2886 0.23859 0.82579 0.0
H1576 H 0.32017 0.28338 0.80274 0.0
H1577 H 0.30722 0.2621 0.82481 0.0
H1578 H 0.3492 0.22142 0.80998 0.0
H1579 H 0.36351 0.2443 0.78889 0.0
C1580 C 0.31354 0.19561 0.8464 0.0
C1581 C 0.29411 0.19763 0.84775 0.0
C1582 C 0.32433 0.20944 0.8377 0.0
C1583 C 0.31574 0.2253 0.82991 0.0
C1584 C 0.29624 0.22727 0.83208 0.0
C1585 C 0.28573 0.21384 0.84116 0.0
C1586 C 0.32684 0.26997 0.80439 0.0
C1587 C 0.34266 0.26537 0.79397 0.0
C1588 C 0.31914 0.25746 0.81688 0.0
C1589 C 0.32641 0.23943 0.81878 0.0
C1590 C 0.34299 0.23507 0.80898 0.0
C1591 C 0.35122 0.24809 0.7968 0.0
H1592 H 0.24462 0.78003 0.35675 0.0
H1593 H 0.28801 0.8091 0.32707 0.0
H1594 H 0.22131 0.80068 0.3431 0.0
H1595 H 0.26557 0.83081 0.31484 0.0
H1596 H 0.2222 0.84904 0.27346 0.0
H1597 H 0.24553 0.83435 0.2926 0.0
H1598 H 0.2041 0.82524 0.33581 0.0
H1599 H 0.18058 0.83879 0.31547 0.0
C1600 C 0.24916 0.79133 0.34783 0.0
C1601 C 0.26799 0.79303 0.34282 0.0
C1602 C 0.23582 0.8033 0.33993 0.0
C1603 C 0.24119 0.81735 0.3271 0.0
C1604 C 0.26041 0.81978 0.32369 0.0
C1605 C 0.2735 0.80758 0.3311 0.0
C1606 C 0.21835 0.84445 0.28733 0.0
C1607 C 0.19982 0.84543 0.29324 0.0
C1608 C 0.23178 0.83593 0.29854 0.0
C1609 C 0.22708 0.82836 0.31616 0.0
C1610 C 0.2085 0.83042 0.32236 0.0
C1611 C 0.195 0.83865 0.31092 0.0
H1612 H 0.64177 0.67592 0.80705 0.0
H1613 H 0.60329 0.71684 0.78608 0.0
H1614 H 0.65422 0.69783 0.82873 0.0
H1615 H 0.61708 0.74005 0.80663 0.0
H1616 H 0.64484 0.78059 0.84502 0.0
H1617 H 0.62566 0.75614 0.83154 0.0
H1618 H 0.67402 0.71988 0.83198 0.0
H1619 H 0.69197 0.74369 0.84677 0.0
C1620 C 0.63596 0.68981 0.80721 0.0
C1621 C 0.62163 0.69471 0.79496 0.0
C1622 C 0.64345 0.7027 0.81941 0.0
C1623 C 0.63747 0.72132 0.81924 0.0
C1624 C 0.62229 0.72601 0.80747 0.0
C1625 C 0.61429 0.71273 0.79557 0.0
C1626 C 0.65084 0.76694 0.84308 0.0
C1627 C 0.66966 0.76373 0.84736 0.0
C1628 C 0.64003 0.75299 0.83484 0.0
C1629 C 0.64797 0.73565 0.8303 0.0
C1630 C 0.66675 0.73249 0.83552 0.0
C1631 C 0.6773 0.74624 0.8441 0.0
H1632 H 0.11129 0.21765 0.20772 0.0
H1633 H 0.08606 0.18734 0.16289 0.0
H1634 H 0.11237 0.19027 0.22641 0.0
H1635 H 0.08524 0.15936 0.18231 0.0
H1636 H 0.10876 0.1075 0.2123 0.0
H1637 H 0.09906 0.13474 0.19452 0.0
H1638 H 0.10472 0.16809 0.2443 0.0
H1639 H 0.11596 0.14155 0.26086 0.0
C1640 C 0.10522 0.20503 0.20222 0.0
C1641 C 0.09872 0.20452 0.18397 0.0
C1642 C 0.10561 0.18903 0.21308 0.0
C1643 C 0.09895 0.1719 0.20624 0.0
C1644 C 0.09101 0.17187 0.1882 0.0
C1645 C 0.09107 0.18801 0.17709 0.0
C1646 C 0.10765 0.12073 0.2193 0.0
C1647 C 0.11343 0.12249 0.23783 0.0
C1648 C 0.10207 0.13653 0.20912 0.0
C1649 C 0.10177 0.15432 0.21744 0.0
C1650 C 0.1058 0.15531 0.23662 0.0
C1651 C 0.11186 0.13981 0.24646 0.0
H1652 H 0.32032 0.62664 0.75797 0.0
H1653 H 0.35326 0.59994 0.71565 0.0
H1654 H 0.29269 0.61538 0.74491 0.0
H1655 H 0.32465 0.58867 0.70111 0.0
H1656 H 0.2707 0.58128 0.66923 0.0
H1657 H 0.29842 0.58041 0.68881 0.0
H1658 H 0.26978 0.6165 0.72799 0.0
H1659 H 0.24313 0.61646 0.70882 0.0
C1660 C 0.32155 0.6183 0.74551 0.0
C1661 C 0.33897 0.61486 0.73741 0.0
C1662 C 0.30527 0.61193 0.73753 0.0
C1663 C 0.30549 0.602 0.7207 0.0
C1664 C 0.32328 0.59678 0.71361 0.0
C1665 C 0.33992 0.60315 0.72196 0.0
C1666 C 0.27058 0.58857 0.68238 0.0
C1667 C 0.25511 0.59931 0.68747 0.0
C1668 C 0.28662 0.58835 0.69363 0.0
C1669 C 0.28744 0.59892 0.71018 0.0
C1670 C 0.27087 0.60817 0.71568 0.0
C1671 C 0.25511 0.60835 0.70451 0.0
H1672 H 0.87439 0.83295 0.2489 0.0
H1673 H 0.82608 0.84319 0.21512 0.0
H1674 H 0.88293 0.80677 0.22914 0.0
H1675 H 0.83322 0.81804 0.19611 0.0
H1676 H 0.83747 0.76514 0.16872 0.0
H1677 H 0.83595 0.79352 0.18325 0.0
H1678 H 0.88778 0.78187 0.21263 0.0
H1679 H 0.88863 0.75159 0.19716 0.0
C1680 C 0.86577 0.82967 0.23699 0.0
C1681 C 0.84938 0.83977 0.23357 0.0
C1682 C 0.87047 0.81444 0.22566 0.0
C1683 C 0.85858 0.80881 0.21095 0.0
C1684 C 0.8429 0.82026 0.20725 0.0
C1685 C 0.83856 0.83535 0.21824 0.0
C1686 C 0.84858 0.76843 0.17839 0.0
C1687 C 0.86267 0.7557 0.18224 0.0
C1688 C 0.84788 0.78539 0.18707 0.0
C1689 C 0.8614 0.7909 0.20019 0.0
C1690 C 0.8766 0.77851 0.20316 0.0
C1691 C 0.87727 0.76105 0.19419 0.0
H1692 H 0.6397 0.35905 0.75926 0.0
H1693 H 0.61256 0.33777 0.71052 0.0
H1694 H 0.666 0.369 0.7408 0.0
H1695 H 0.63927 0.3457 0.6919 0.0
H1696 H 0.69037 0.3553 0.65907 0.0
H1697 H 0.66122 0.35689 0.67573 0.0
H1698 H 0.69198 0.36652 0.7269 0.0
H1699 H 0.72067 0.36658 0.70934 0.0
C1700 C 0.63934 0.35689 0.74435 0.0
C1701 C 0.62399 0.34813 0.73618 0.0
C1702 C 0.65475 0.36218 0.7336 0.0
C1703 C 0.65569 0.35805 0.71439 0.0
C1704 C 0.6397 0.34973 0.70631 0.0
C1705 C 0.62402 0.34511 0.71701 0.0
C1706 C 0.69062 0.35828 0.67383 0.0
C1707 C 0.70763 0.36077 0.68297 0.0
C1708 C 0.6738 0.35878 0.68371 0.0
C1709 C 0.67351 0.36097 0.70328 0.0
C1710 C 0.69083 0.36463 0.71208 0.0
C1711 C 0.7076 0.36469 0.702 0.0
H1712 H 0.10715 0.77085 0.80496 0.0
H1713 H 0.09579 0.7405 0.75492 0.0
H1714 H 0.10531 0.79967 0.78819 0.0
H1715 H 0.0952 0.76897 0.73722 0.0
H1716 H 0.10651 0.82011 0.70413 0.0
H1717 H 0.09552 0.7942 0.72233 0.0
H1718 H 0.11384 0.82256 0.77241 0.0
H1719 H 0.12321 0.84858 0.7538 0.0
C1720 C 0.1041 0.77053 0.79019 0.0
C1721 C 0.10175 0.75356 0.78118 0.0
C1722 C 0.10338 0.78722 0.78021 0.0
C1723 C 0.10106 0.78748 0.76064 0.0
C1724 C 0.0974 0.77019 0.75199 0.0
C1725 C 0.09765 0.75352 0.76216 0.0
C1726 C 0.1075 0.8208 0.71916 0.0
C1727 C 0.11551 0.8363 0.72764 0.0
C1728 C 0.1015 0.80564 0.72984 0.0
C1729 C 0.1041 0.80517 0.74938 0.0
C1730 C 0.1113 0.8215 0.7577 0.0
C1731 C 0.11671 0.83686 0.747 0.0
H1732 H 0.64586 0.61674 0.20086 0.0
H1733 H 0.61121 0.60556 0.2487 0.0
H1734 H 0.67266 0.60526 0.21699 0.0
H1735 H 0.63874 0.59547 0.26609 0.0
H1736 H 0.69227 0.5819 0.29689 0.0
H1737 H 0.66424 0.58128 0.27731 0.0
H1738 H 0.69396 0.61381 0.23577 0.0
H1739 H 0.7214 0.61278 0.25443 0.0
C1740 C 0.64403 0.61178 0.21502 0.0
C1741 C 0.62648 0.61243 0.22363 0.0
C1742 C 0.65966 0.60552 0.2246 0.0
C1743 C 0.65857 0.60034 0.24352 0.0
C1744 C 0.64057 0.59952 0.2517 0.0
C1745 C 0.62464 0.60535 0.24176 0.0
C1746 C 0.69272 0.58823 0.28319 0.0
C1747 C 0.70888 0.59752 0.27711 0.0
C1748 C 0.67655 0.58822 0.27202 0.0
C1749 C 0.67624 0.59765 0.25468 0.0
C1750 C 0.69307 0.6059 0.24853 0.0
C1751 C 0.70907 0.60558 0.25943 0.0
H1752 H 0.84147 0.21435 0.76855 0.0
H1753 H 0.89316 0.19238 0.78999 0.0
H1754 H 0.83763 0.18783 0.74925 0.0
H1755 H 0.89052 0.16581 0.76851 0.0
H1756 H 0.86418 0.11092 0.74311 0.0
H1757 H 0.87512 0.13765 0.76127 0.0
H1758 H 0.84628 0.1744 0.72314 0.0
H1759 H 0.83497 0.14835 0.70619 0.0
C1760 C 0.85243 0.20397 0.76854 0.0
C1761 C 0.86751 0.20534 0.78071 0.0
C1762 C 0.85041 0.18871 0.75719 0.0
C1763 C 0.86398 0.1746 0.75676 0.0
C1764 C 0.87973 0.17631 0.76846 0.0
C1765 C 0.88145 0.19162 0.7805 0.0
C1766 C 0.8603 0.1248 0.73876 0.0
C1767 C 0.84796 0.12748 0.72381 0.0
C1768 C 0.86662 0.14014 0.74908 0.0
C1769 C 0.86078 0.15829 0.74437 0.0
C1770 C 0.85015 0.16074 0.72812 0.0
C1771 C 0.84372 0.14565 0.71818 0.0
H1772 H 0.35274 0.35005 0.24861 0.0
H1773 H 0.31787 0.34102 0.20069 0.0
H1774 H 0.32569 0.36115 0.26599 0.0
H1775 H 0.29142 0.35367 0.21698 0.0
H1776 H 0.244 0.34184 0.25621 0.0
H1777 H 0.27099 0.34258 0.23651 0.0
H1778 H 0.30018 0.37602 0.27718 0.0
H1779 H 0.27265 0.37415 0.29752 0.0
C1780 C 0.33939 0.35101 0.24163 0.0
C1781 C 0.33723 0.344 0.22358 0.0
C1782 C 0.32376 0.35747 0.25155 0.0
C1783 C 0.30577 0.35736 0.24343 0.0
C1784 C 0.3045 0.35279 0.22442 0.0
C1785 C 0.31985 0.3458 0.21482 0.0
C1786 C 0.25615 0.3495 0.26084 0.0
C1787 C 0.25638 0.35761 0.27843 0.0
C1788 C 0.27177 0.35026 0.24934 0.0
C1789 C 0.28828 0.35936 0.25495 0.0
C1790 C 0.28806 0.36853 0.27232 0.0
C1791 C 0.27222 0.36767 0.28396 0.0
H1792 H 0.26025 0.12242 0.1471 0.0
H1793 H 0.21741 0.10037 0.11136 0.0
H1794 H 0.24427 0.11108 0.17386 0.0
H1795 H 0.19984 0.09008 0.13899 0.0
H1796 H 0.16902 0.07669 0.19397 0.0
H1797 H 0.18949 0.07672 0.16632 0.0
H1798 H 0.22244 0.12016 0.19188 0.0
H1799 H 0.20371 0.11848 0.21903 0.0
C1800 C 0.24713 0.11524 0.14497 0.0
C1801 C 0.23978 0.11298 0.12707 0.0
C1802 C 0.23759 0.10897 0.16057 0.0
C1803 C 0.21979 0.10079 0.1591 0.0
C1804 C 0.21319 0.09678 0.14098 0.0
C1805 C 0.22322 0.10272 0.12505 0.0
C1806 C 0.18115 0.08565 0.19365 0.0
C1807 C 0.18474 0.09777 0.20854 0.0
C1808 C 0.19276 0.08592 0.1777 0.0
C1809 C 0.20804 0.09837 0.17643 0.0
C1810 C 0.21161 0.10975 0.19194 0.0
C1811 C 0.20049 0.10912 0.20771 0.0
H1812 H 0.32378 0.71214 0.62582 0.0
H1813 H 0.37392 0.745 0.62817 0.0
H1814 H 0.33335 0.69505 0.65325 0.0
H1815 H 0.38362 0.72822 0.65642 0.0
H1816 H 0.39803 0.68459 0.70332 0.0
H1817 H 0.39311 0.70144 0.67383 0.0
H1818 H 0.33365 0.70138 0.68433 0.0
H1819 H 0.33841 0.68413 0.71249 0.0
C1820 C 0.33707 0.71545 0.63214 0.0
C1821 C 0.3481 0.7298 0.625 0.0
C1822 C 0.34249 0.7059 0.6481 0.0
C1823 C 0.35898 0.71068 0.65761 0.0
C1824 C 0.37077 0.72422 0.64962 0.0
C1825 C 0.3653 0.73378 0.63342 0.0
C1826 C 0.38396 0.68816 0.69912 0.0
C1827 C 0.36858 0.6825 0.70994 0.0
C1828 C 0.38112 0.6979 0.68232 0.0
C1829 C 0.36289 0.70213 0.6762 0.0
C1830 C 0.34782 0.69759 0.6879 0.0
C1831 C 0.3506 0.68779 0.70431 0.0
H1832 H 0.75378 0.86063 0.22214 0.0
H1833 H 0.80416 0.86577 0.19002 0.0
H1834 H 0.73545 0.86117 0.19441 0.0
H1835 H 0.78631 0.86671 0.16162 0.0
H1836 H 0.75413 0.84824 0.11109 0.0
H1837 H 0.77141 0.85941 0.13752 0.0
H1838 H 0.72018 0.85843 0.17017 0.0
H1839 H 0.70392 0.84665 0.14394 0.0
C1840 C 0.76083 0.86232 0.20888 0.0
C1841 C 0.78027 0.86295 0.2081 0.0
C1842 C 0.75029 0.86248 0.19254 0.0
C1843 C 0.75893 0.86306 0.17475 0.0
C1844 C 0.77857 0.86543 0.17442 0.0
C1845 C 0.78906 0.86521 0.19086 0.0
C1846 C 0.74672 0.85089 0.12396 0.0
C1847 C 0.72781 0.84646 0.12559 0.0
C1848 C 0.75667 0.85721 0.13951 0.0
C1849 C 0.74786 0.85944 0.15709 0.0
C1850 C 0.72835 0.85645 0.15777 0.0
C1851 C 0.71864 0.84986 0.14241 0.0
H1852 H 0.62382 0.2593 0.7201 0.0
H1853 H 0.5815 0.29321 0.69445 0.0
H1854 H 0.62538 0.2403 0.69349 0.0
H1855 H 0.58139 0.27253 0.66726 0.0
H1856 H 0.60202 0.24314 0.61268 0.0
H1857 H 0.59211 0.26058 0.64027 0.0
H1858 H 0.61843 0.21891 0.67511 0.0
H1859 H 0.62876 0.20296 0.6484 0.0
C1860 C 0.61434 0.26229 0.70872 0.0
C1861 C 0.60287 0.27789 0.70928 0.0
C1862 C 0.61486 0.25098 0.6932 0.0
C1863 C 0.60331 0.25423 0.67759 0.0
C1864 C 0.59077 0.26942 0.67862 0.0
C1865 C 0.59058 0.2812 0.69434 0.0
C1866 C 0.60566 0.23797 0.62637 0.0
C1867 C 0.61718 0.22228 0.62827 0.0
C1868 C 0.59999 0.24796 0.64233 0.0
C1869 C 0.60565 0.2423 0.66041 0.0
C1870 C 0.6151 0.2252 0.66187 0.0
C1871 C 0.62085 0.2156 0.64624 0.0
H1872 H 0.16129 0.84511 0.77268 0.0
H1873 H 0.20677 0.87452 0.74686 0.0
H1874 H 0.17649 0.84652 0.80216 0.0
H1875 H 0.22365 0.87443 0.77617 0.0
H1876 H 0.25649 0.86514 0.82897 0.0
H1877 H 0.23707 0.87454 0.80291 0.0
H1878 H 0.19417 0.83659 0.82285 0.0
H1879 H 0.21277 0.82962 0.84936 0.0
C1880 C 0.17481 0.85183 0.77346 0.0
C1881 C 0.18298 0.85937 0.75748 0.0
C1882 C 0.18401 0.85231 0.79052 0.0
C1883 C 0.20232 0.85948 0.79214 0.0
C1884 C 0.20992 0.8683 0.7761 0.0
C1885 C 0.20023 0.86843 0.75904 0.0
C1886 C 0.24245 0.85966 0.82796 0.0
C1887 C 0.23587 0.84701 0.84133 0.0
C1888 C 0.23128 0.86469 0.81268 0.0
C1889 C 0.21353 0.85646 0.80988 0.0
C1890 C 0.20714 0.84405 0.82389 0.0
C1891 C 0.21794 0.83979 0.83946 0.0
H1892 H 0.57468 0.67522 0.26153 0.0
H1893 H 0.62931 0.69696 0.24813 0.0
H1894 H 0.57539 0.69255 0.29127 0.0
H1895 H 0.62955 0.71436 0.27631 0.0
H1896 H 0.64428 0.71879 0.33309 0.0
H1897 H 0.63516 0.70167 0.30611 0.0
H1898 H 0.57888 0.72258 0.31128 0.0
H1899 H 0.58854 0.74004 0.33933 0.0
C1900 C 0.58666 0.68378 0.26475 0.0
C1901 C 0.60241 0.68392 0.25288 0.0
C1902 C 0.58702 0.69376 0.28171 0.0
C1903 C 0.60304 0.704 0.28671 0.0
C1904 C 0.61745 0.70578 0.27357 0.0
C1905 C 0.61728 0.69575 0.25721 0.0
C1906 C 0.62998 0.71977 0.32864 0.0
C1907 C 0.61743 0.73132 0.33786 0.0
C1908 C 0.62464 0.70995 0.31303 0.0
C1909 C 0.60649 0.71152 0.30579 0.0
C1910 C 0.59312 0.72147 0.31617 0.0
C1911 C 0.59861 0.7314 0.3322 0.0
H1912 H 0.80515 0.09759 0.77351 0.0
H1913 H 0.75387 0.09264 0.74303 0.0
H1914 H 0.78822 0.09761 0.80246 0.0
H1915 H 0.73628 0.09368 0.77145 0.0
H1916 H 0.70433 0.10539 0.82313 0.0
H1917 H 0.7215 0.09464 0.79662 0.0
H1918 H 0.77321 0.10739 0.82556 0.0
H1919 H 0.75541 0.11673 0.85225 0.0
C1920 C 0.79011 0.09605 0.77318 0.0
C1921 C 0.7808 0.09494 0.75613 0.0
C1922 C 0.78008 0.09654 0.78992 0.0
C1923 C 0.76029 0.09648 0.79015 0.0
C1924 C 0.75125 0.09403 0.77277 0.0
C1925 C 0.76137 0.09325 0.7561 0.0
C1926 C 0.71944 0.10516 0.82387 0.0
C1927 C 0.72856 0.11151 0.83984 0.0
C1928 C 0.72958 0.09932 0.80832 0.0
C1929 C 0.74933 0.10024 0.80792 0.0
C1930 C 0.75828 0.10602 0.82453 0.0
C1931 C 0.74805 0.11136 0.84027 0.0
H1932 H 0.35325 0.30032 0.27435 0.0
H1933 H 0.36956 0.25096 0.24525 0.0
H1934 H 0.35589 0.2844 0.30363 0.0
H1935 H 0.37064 0.23389 0.27414 0.0
H1936 H 0.36037 0.20118 0.32587 0.0
H1937 H 0.37078 0.2196 0.2998 0.0
H1938 H 0.34691 0.26838 0.3262 0.0
H1939 H 0.3383 0.24976 0.35244 0.0
C1940 C 0.35733 0.28584 0.2744 0.0
C1941 C 0.36076 0.2767 0.25768 0.0
C1942 C 0.35855 0.27634 0.29133 0.0
C1943 C 0.36233 0.25706 0.29203 0.0
C1944 C 0.36719 0.24841 0.27499 0.0
C1945 C 0.3666 0.25819 0.2581 0.0
C1946 C 0.35821 0.21606 0.3262 0.0
C1947 C 0.34899 0.22419 0.34128 0.0
C1948 C 0.3638 0.22682 0.31091 0.0
C1949 C 0.35956 0.24599 0.30986 0.0
C1950 C 0.35096 0.25401 0.3257 0.0
C1951 C 0.34597 0.2433 0.34119 0.0
H1952 H 0.22275 0.20716 0.1028 0.0
H1953 H 0.18989 0.15933 0.08889 0.0
H1954 H 0.19554 0.22595 0.1038 0.0
H1955 H 0.16177 0.17811 0.08886 0.0
H1956 H 0.11082 0.2099 0.10959 0.0
H1957 H 0.13757 0.19251 0.09856 0.0
H1958 H 0.17169 0.24203 0.10461 0.0
H1959 H 0.14544 0.25818 0.11637 0.0
C1960 C 0.20947 0.20087 0.09931 0.0
C1961 C 0.20838 0.18187 0.09593 0.0
C1962 C 0.19337 0.21172 0.09994 0.0
C1963 C 0.17541 0.20396 0.0971 0.0
C1964 C 0.17477 0.185 0.09192 0.0
C1965 C 0.19104 0.17407 0.09152 0.0
C1966 C 0.12412 0.21692 0.10815 0.0
C1967 C 0.12609 0.23531 0.11401 0.0
C1968 C 0.13979 0.20691 0.10188 0.0
C1969 C 0.15781 0.21514 0.10108 0.0
C1970 C 0.15894 0.23419 0.10557 0.0
C1971 C 0.14351 0.2439 0.11211 0.0
H1972 H 0.18963 0.80313 0.86 0.0
H1973 H 0.22246 0.75325 0.86151 0.0
H1974 H 0.16137 0.78525 0.86304 0.0
H1975 H 0.19468 0.73475 0.86305 0.0
H1976 H 0.14419 0.70131 0.85437 0.0
H1977 H 0.17006 0.71931 0.86519 0.0
H1978 H 0.13796 0.7696 0.85504 0.0
H1979 H 0.11182 0.75087 0.84584 0.0
C1980 C 0.19063 0.78816 0.861 0.0
C1981 C 0.20803 0.77946 0.86025 0.0
C1982 C 0.17428 0.77762 0.86248 0.0
C1983 C 0.17484 0.75798 0.86251 0.0
C1984 C 0.19275 0.74956 0.8629 0.0
C1985 C 0.20905 0.76019 0.86194 0.0
C1986 C 0.1427 0.71626 0.85504 0.0
C1987 C 0.12616 0.72476 0.84921 0.0
C1988 C 0.15783 0.72688 0.86091 0.0
C1989 C 0.15723 0.7465 0.8603 0.0
C1990 C 0.13984 0.75479 0.85571 0.0
C1991 C 0.12449 0.74402 0.85041 0.0
H1992 H 0.71123 0.72182 0.35195 0.0
H1993 H 0.66589 0.69185 0.37735 0.0
H1994 H 0.72941 0.69453 0.35064 0.0
H1995 H 0.6846 0.66357 0.37745 0.0
H1996 H 0.71421 0.61072 0.35709 0.0
H1997 H 0.69762 0.63829 0.36754 0.0
H1998 H 0.74622 0.67144 0.35296 0.0
H1999 H 0.76129 0.64466 0.34165 0.0
C2000 C 0.70547 0.70921 0.35793 0.0
C2001 C 0.68721 0.70893 0.3646 0.0
C2002 C 0.71605 0.69307 0.35732 0.0
C2003 C 0.70891 0.67583 0.36369 0.0
C2004 C 0.69087 0.67603 0.37186 0.0
C2005 C 0.6801 0.6924 0.37221 0.0
C2006 C 0.72114 0.62406 0.35633 0.0
C2007 C 0.7388 0.62561 0.34804 0.0
C2008 C 0.71162 0.64011 0.36229 0.0
C2009 C 0.71973 0.65802 0.36034 0.0
C2010 C 0.7383 0.65877 0.35375 0.0
C2011 C 0.74743 0.64303 0.3475 0.0
H2012 H 0.76526 0.17607 0.88672 0.0
H2013 H 0.75857 0.18883 0.82824 0.0
H2014 H 0.79272 0.19701 0.88765 0.0
H2015 H 0.7853 0.20867 0.82912 0.0
H2016 H 0.81576 0.25795 0.83393 0.0
H2017 H 0.78974 0.23924 0.84392 0.0
H2018 H 0.82726 0.2014 0.87174 0.0
H2019 H 0.85402 0.22056 0.86152 0.0
C2020 C 0.7696 0.18322 0.87415 0.0
C2021 C 0.75966 0.18078 0.85737 0.0
C2022 C 0.78532 0.19508 0.87467 0.0
C2023 C 0.79094 0.20477 0.85852 0.0
C2024 C 0.78114 0.20181 0.84193 0.0
C2025 C 0.7658 0.19018 0.84139 0.0
C2026 C 0.81865 0.24587 0.84249 0.0
C2027 C 0.83708 0.24032 0.84627 0.0
C2028 C 0.80363 0.23515 0.84829 0.0
C2029 C 0.80648 0.21849 0.85806 0.0
C2030 C 0.82469 0.21405 0.86396 0.0
C2031 C 0.83999 0.22494 0.85805 0.0
H2032 H 0.25488 0.24012 0.36309 0.0
H2033 H 0.3052 0.27257 0.36135 0.0
H2034 H 0.23637 0.26776 0.36391 0.0
H2035 H 0.28734 0.30072 0.36367 0.0
H2036 H 0.25342 0.35008 0.34599 0.0
H2037 H 0.27185 0.32388 0.35522 0.0
H2038 H 0.22082 0.29219 0.36418 0.0
H2039 H 0.20313 0.31827 0.35344 0.0
C2040 C 0.26191 0.25344 0.36336 0.0
C2041 C 0.28129 0.25441 0.36178 0.0
C2042 C 0.25127 0.26966 0.36383 0.0
C2043 C 0.25982 0.28741 0.36302 0.0
C2044 C 0.27959 0.28792 0.3633 0.0
C2045 C 0.29013 0.27165 0.3623 0.0
C2046 C 0.24633 0.33752 0.35041 0.0
C2047 C 0.22696 0.33611 0.34905 0.0
C2048 C 0.25693 0.3221 0.3557 0.0
C2049 C 0.24839 0.30488 0.36019 0.0
C2050 C 0.22863 0.30437 0.36027 0.0
C2051 C 0.21817 0.31961 0.35443 0.0
H2052 H 0.74769 0.75382 0.08904 0.0
H2053 H 0.77665 0.80212 0.10885 0.0
H2054 H 0.77662 0.73619 0.08979 0.0
H2055 H 0.80592 0.78574 0.10755 0.0
H2056 H 0.8499 0.74919 0.13182 0.0
H2057 H 0.82352 0.76766 0.12321 0.0
H2058 H 0.80432 0.72365 0.08687 0.0
H2059 H 0.83012 0.70441 0.09781 0.0
C2060 C 0.76049 0.76079 0.09292 0.0
C2061 C 0.76001 0.77914 0.09927 0.0
C2062 C 0.77727 0.7507 0.09337 0.0
C2063 C 0.79401 0.75897 0.09976 0.0
C2064 C 0.7935 0.77812 0.10386 0.0
C2065 C 0.7767 0.78786 0.10414 0.0
C2066 C 0.8403 0.74377 0.12155 0.0
C2067 C 0.84229 0.72568 0.11507 0.0
C2068 C 0.82494 0.75445 0.11637 0.0
C2069 C 0.81134 0.74768 0.10385 0.0
C2070 C 0.81401 0.72963 0.09666 0.0
C2071 C 0.82909 0.71862 0.10256 0.0
H2072 H 0.76163 0.31448 0.62191 0.0
H2073 H 0.71595 0.35021 0.60654 0.0
H2074 H 0.74604 0.28857 0.60993 0.0
H2075 H 0.69909 0.32376 0.59441 0.0
H2076 H 0.66423 0.27213 0.58765 0.0
H2077 H 0.68381 0.29961 0.58699 0.0
H2078 H 0.73051 0.2654 0.60533 0.0
H2079 H 0.7108 0.23918 0.6059 0.0
C2080 C 0.74799 0.31668 0.61576 0.0
C2081 C 0.73985 0.33427 0.61555 0.0
C2082 C 0.73859 0.30146 0.60882 0.0
C2083 C 0.72034 0.30304 0.60153 0.0
C2084 C 0.71276 0.3212 0.6001 0.0
C2085 C 0.72247 0.33666 0.60699 0.0
C2086 C 0.67887 0.27086 0.59117 0.0
C2087 C 0.68608 0.25387 0.59733 0.0
C2088 C 0.69026 0.28671 0.59109 0.0
C2089 C 0.70903 0.2858 0.59731 0.0
C2090 C 0.71631 0.26794 0.60128 0.0
C2091 C 0.70497 0.25236 0.60144 0.0
H2092 H 0.25015 0.62268 0.64002 0.0
H2093 H 0.21865 0.62287 0.58906 0.0
H2094 H 0.26488 0.65172 0.63123 0.0
H2095 H 0.23447 0.65191 0.57945 0.0
H2096 H 0.28613 0.70061 0.57573 0.0
H2097 H 0.2697 0.67043 0.57515 0.0
H2098 H 0.24533 0.68254 0.62863 0.0
H2099 H 0.2614 0.71201 0.62932 0.0
C2100 C 0.24678 0.6287 0.62667 0.0
C2101 C 0.23301 0.62076 0.61547 0.0
C2102 C 0.25523 0.64535 0.62157 0.0
C2103 C 0.25047 0.65436 0.60487 0.0
C2104 C 0.23824 0.64537 0.59251 0.0
C2105 C 0.22933 0.62872 0.59793 0.0
C2106 C 0.27694 0.69692 0.58714 0.0
C2107 C 0.27567 0.70841 0.60293 0.0
C2108 C 0.26752 0.67969 0.58677 0.0
C2109 C 0.25678 0.6739 0.60217 0.0
C2110 C 0.25395 0.68638 0.61681 0.0
C2111 C 0.26325 0.7033 0.61721 0.0
H2112 H 0.83273 0.84562 0.75022 0.0
H2113 H 0.87012 0.8256 0.70806 0.0
H2114 H 0.83893 0.81897 0.76907 0.0
H2115 H 0.87876 0.79953 0.72788 0.0
H2116 H 0.87677 0.74348 0.75847 0.0
H2117 H 0.87669 0.77239 0.74085 0.0
H2118 H 0.8503 0.7996 0.78781 0.0
H2119 H 0.84866 0.77041 0.80383 0.0
C2120 C 0.84314 0.83582 0.74548 0.0
C2121 C 0.85123 0.83789 0.72793 0.0
C2122 C 0.84697 0.82024 0.75644 0.0
C2123 C 0.85975 0.80641 0.75062 0.0
C2124 C 0.86864 0.80925 0.73321 0.0
C2125 C 0.86407 0.82454 0.72186 0.0
C2126 C 0.87105 0.75582 0.76485 0.0
C2127 C 0.86237 0.75469 0.78233 0.0
C2128 C 0.87096 0.77264 0.75474 0.0
C2129 C 0.86258 0.78887 0.76213 0.0
C2130 C 0.85574 0.7877 0.78057 0.0
C2131 C 0.85517 0.77086 0.79021 0.0
H2132 H 0.63973 0.35904 0.2038 0.0
H2133 H 0.61428 0.33421 0.25209 0.0
H2134 H 0.66541 0.37011 0.22253 0.0
H2135 H 0.64038 0.34302 0.27073 0.0
H2136 H 0.68994 0.35423 0.3039 0.0
H2137 H 0.66098 0.35548 0.2872 0.0
H2138 H 0.69156 0.36882 0.23656 0.0
H2139 H 0.72013 0.3695 0.25438 0.0
C2140 C 0.63962 0.35628 0.21864 0.0
C2141 C 0.62498 0.34621 0.22669 0.0
C2142 C 0.65464 0.36226 0.22951 0.0
C2143 C 0.65584 0.35749 0.24861 0.0
C2144 C 0.64053 0.34773 0.25648 0.0
C2145 C 0.62523 0.3425 0.24574 0.0
C2146 C 0.69019 0.35795 0.28927 0.0
C2147 C 0.70712 0.36163 0.28035 0.0
C2148 C 0.6735 0.3582 0.27933 0.0
C2149 C 0.6733 0.36116 0.25985 0.0
C2150 C 0.69045 0.36619 0.2513 0.0
C2151 C 0.70711 0.36663 0.26152 0.0
H2152 H 0.09269 0.1307 0.70988 0.0
H2153 H 0.13229 0.11245 0.75109 0.0
H2154 H 0.08519 0.15782 0.72881 0.0
H2155 H 0.12402 0.13821 0.77074 0.0
H2156 H 0.13312 0.19588 0.78658 0.0
H2157 H 0.13267 0.16716 0.77082 0.0
H2158 H 0.07614 0.17775 0.75213 0.0
H2159 H 0.07749 0.20838 0.76714 0.0
C2160 C 0.09921 0.13222 0.72338 0.0
C2161 C 0.11311 0.11977 0.72912 0.0
C2162 C 0.09496 0.14774 0.73427 0.0
C2163 C 0.1047 0.15099 0.75099 0.0
C2164 C 0.11701 0.13708 0.75748 0.0
C2165 C 0.12145 0.12191 0.74649 0.0
C2166 C 0.12056 0.19232 0.77901 0.0
C2167 C 0.10551 0.20459 0.77795 0.0
C2168 C 0.12004 0.17534 0.77025 0.0
C2169 C 0.10412 0.16942 0.76053 0.0
C2170 C 0.08869 0.18164 0.75949 0.0
C2171 C 0.08937 0.19914 0.76819 0.0
H2172 H 0.35251 0.62283 0.25096 0.0
H2173 H 0.32423 0.60373 0.20194 0.0
H2174 H 0.32624 0.61405 0.26983 0.0
H2175 H 0.29833 0.59307 0.22052 0.0
H2176 H 0.24426 0.59433 0.25296 0.0
H2177 H 0.27275 0.59414 0.23513 0.0
H2178 H 0.30413 0.60328 0.286 0.0
H2179 H 0.27518 0.60495 0.30299 0.0
C2180 C 0.34085 0.61587 0.2444 0.0
C2181 C 0.34045 0.61373 0.2251 0.0
C2182 C 0.32542 0.61074 0.25526 0.0
C2183 C 0.30921 0.60282 0.24719 0.0
C2184 C 0.30973 0.59955 0.22778 0.0
C2185 C 0.32491 0.60531 0.21692 0.0
C2186 C 0.25741 0.59611 0.26017 0.0
C2187 C 0.25758 0.59999 0.27922 0.0
C2188 C 0.27409 0.59603 0.24993 0.0
C2189 C 0.29154 0.5996 0.25853 0.0
C2190 C 0.29146 0.60156 0.27813 0.0
C2191 C 0.27474 0.60214 0.2882 0.0
H2192 H 0.85519 0.10874 0.21166 0.0
H2193 H 0.84547 0.14281 0.25974 0.0
H2194 H 0.86595 0.13579 0.19443 0.0
H2195 H 0.85734 0.16924 0.24384 0.0
H2196 H 0.85542 0.21977 0.20818 0.0
H2197 H 0.85499 0.19265 0.2271 0.0
H2198 H 0.87624 0.16041 0.18066 0.0
H2199 H 0.87542 0.18838 0.16154 0.0
C2200 C 0.85585 0.12199 0.21867 0.0
C2201 C 0.84906 0.12377 0.23686 0.0
C2202 C 0.86202 0.13778 0.20877 0.0
C2203 C 0.86183 0.15567 0.21699 0.0
C2204 C 0.85678 0.15658 0.23598 0.0
C2205 C 0.85024 0.14107 0.24553 0.0
C2206 C 0.86028 0.20686 0.2022 0.0
C2207 C 0.86517 0.20609 0.18345 0.0
C2208 C 0.86017 0.19087 0.21316 0.0
C2209 C 0.86512 0.17333 0.2058 0.0
C2210 C 0.87162 0.17307 0.18715 0.0
C2211 C 0.8715 0.18925 0.17608 0.0
H2212 H 0.2444 0.35614 0.71021 0.0
H2213 H 0.27638 0.35951 0.65967 0.0
H2214 H 0.27244 0.35805 0.7284 0.0
H2215 H 0.3048 0.36287 0.67733 0.0
H2216 H 0.35553 0.34556 0.71033 0.0
H2217 H 0.3287 0.35438 0.6923 0.0
H2218 H 0.29727 0.36209 0.74349 0.0
H2219 H 0.32392 0.3517 0.76084 0.0
C2220 C 0.25765 0.35764 0.70307 0.0
C2221 C 0.2584 0.35725 0.68366 0.0
C2222 C 0.27407 0.35891 0.71351 0.0
C2223 C 0.29182 0.36005 0.7048 0.0
C2224 C 0.29204 0.36115 0.6851 0.0
C2225 C 0.27559 0.3595 0.67472 0.0
C2226 C 0.34293 0.34966 0.71758 0.0
C2227 C 0.34171 0.3478 0.73689 0.0
C2228 C 0.32715 0.35468 0.70721 0.0
C2229 C 0.30975 0.35834 0.71593 0.0
C2230 C 0.30955 0.3585 0.73562 0.0
C2231 C 0.32515 0.35296 0.74585 0.0
H2232 H 0.12354 0.81417 0.2595 0.0
H2233 H 0.10363 0.85034 0.21578 0.0
H2234 H 0.11281 0.78745 0.24263 0.0
H2235 H 0.09342 0.82298 0.19806 0.0
H2236 H 0.07825 0.76594 0.17047 0.0
H2237 H 0.07709 0.79332 0.19111 0.0
H2238 H 0.128 0.77463 0.21751 0.0
H2239 H 0.12863 0.74785 0.19793 0.0
C2240 C 0.11663 0.81644 0.24627 0.0
C2241 C 0.11509 0.83433 0.23862 0.0
C2242 C 0.11055 0.80102 0.23649 0.0
C2243 C 0.10314 0.80291 0.21848 0.0
C2244 C 0.09944 0.82097 0.21173 0.0
C2245 C 0.10533 0.83665 0.22182 0.0
C2246 C 0.08892 0.76772 0.18098 0.0
C2247 C 0.10367 0.75487 0.18251 0.0
C2248 C 0.08834 0.78341 0.19268 0.0
C2249 C 0.10231 0.78618 0.20623 0.0
C2250 C 0.11665 0.77293 0.20774 0.0
C2251 C 0.11722 0.75758 0.19623 0.0
H2252 H 0.70096 0.62878 0.67241 0.0
H2253 H 0.7118 0.57366 0.6937 0.0
H2254 H 0.67383 0.63072 0.68953 0.0
H2255 H 0.6813 0.57433 0.70975 0.0
H2256 H 0.63083 0.58887 0.74887 0.0
H2257 H 0.65766 0.5805 0.72934 0.0
H2258 H 0.64573 0.62859 0.69469 0.0
H2259 H 0.62107 0.63706 0.71481 0.0
C2260 C 0.69724 0.61662 0.68055 0.0
C2261 C 0.70903 0.60123 0.68172 0.0
C2262 C 0.68071 0.61747 0.69023 0.0
C2263 C 0.67397 0.60241 0.7008 0.0
C2264 C 0.68552 0.58636 0.70175 0.0
C2265 C 0.70302 0.58582 0.69238 0.0
C2266 C 0.6343 0.59747 0.73695 0.0
C2267 C 0.62443 0.61399 0.73358 0.0
C2268 C 0.64977 0.59277 0.72573 0.0
C2269 C 0.65554 0.60461 0.71101 0.0
C2270 C 0.64376 0.61983 0.70672 0.0
C2271 C 0.62887 0.62461 0.71803 0.0
H2272 H 0.70401 0.8461 0.8161 0.0
H2273 H 0.75301 0.85099 0.85033 0.0
H2274 H 0.72073 0.8581 0.78984 0.0
H2275 H 0.77089 0.86133 0.82361 0.0
H2276 H 0.80432 0.87135 0.77205 0.0
H2277 H 0.78475 0.87286 0.79964 0.0
H2278 H 0.73786 0.85367 0.76655 0.0
H2279 H 0.75728 0.85382 0.7395 0.0
C2280 C 0.71856 0.8498 0.8179 0.0
C2281 C 0.72731 0.84732 0.83513 0.0
C2282 C 0.7285 0.85637 0.80257 0.0
C2283 C 0.74788 0.85989 0.80365 0.0
C2284 C 0.75622 0.85871 0.82152 0.0
C2285 C 0.74597 0.85271 0.83711 0.0
C2286 C 0.7896 0.86814 0.77085 0.0
C2287 C 0.7822 0.86252 0.75376 0.0
C2288 C 0.77827 0.8686 0.78681 0.0
C2289 C 0.75935 0.8629 0.78615 0.0
C2290 C 0.752 0.85839 0.76845 0.0
C2291 C 0.76322 0.85833 0.75258 0.0
H2292 H 0.59879 0.30079 0.27342 0.0
H2293 H 0.60821 0.25144 0.24144 0.0
H2294 H 0.59591 0.2824 0.30156 0.0
H2295 H 0.60659 0.23278 0.269 0.0
H2296 H 0.61545 0.20031 0.31966 0.0
H2297 H 0.60386 0.21698 0.29328 0.0
H2298 H 0.60498 0.2678 0.32562 0.0
H2299 H 0.61515 0.25017 0.35234 0.0
C2300 C 0.60015 0.28585 0.27255 0.0
C2301 C 0.6041 0.27745 0.25549 0.0
C2302 C 0.59879 0.27509 0.28882 0.0
C2303 C 0.6018 0.25566 0.28849 0.0
C2304 C 0.60434 0.24743 0.27078 0.0
C2305 C 0.60542 0.25818 0.25461 0.0
C2306 C 0.61266 0.21502 0.32113 0.0
C2307 C 0.61638 0.22401 0.33793 0.0
C2308 C 0.60635 0.22493 0.30568 0.0
C2309 C 0.60425 0.24443 0.30624 0.0
C2310 C 0.60651 0.25305 0.32382 0.0
C2311 C 0.61234 0.24291 0.33948 0.0
H2312 H 0.16848 0.07841 0.76881 0.0
H2313 H 0.20452 0.11849 0.74238 0.0
H2314 H 0.18907 0.07799 0.79619 0.0
H2315 H 0.22369 0.11967 0.76927 0.0
H2316 H 0.26044 0.12245 0.81521 0.0
H2317 H 0.24479 0.11126 0.78836 0.0
H2318 H 0.19954 0.09089 0.82294 0.0
H2319 H 0.21668 0.1011 0.8506 0.0
C2320 C 0.18097 0.08688 0.76878 0.0
C2321 C 0.18486 0.09867 0.7536 0.0
C2322 C 0.19267 0.08692 0.78459 0.0
C2323 C 0.20838 0.09883 0.78549 0.0
C2324 C 0.2124 0.10975 0.7696 0.0
C2325 C 0.20108 0.1094 0.75396 0.0
C2326 C 0.24719 0.11545 0.81723 0.0
C2327 C 0.23947 0.11337 0.83505 0.0
C2328 C 0.23784 0.10925 0.80156 0.0
C2329 C 0.21995 0.10125 0.80289 0.0
C2330 C 0.21299 0.09742 0.82099 0.0
C2331 C 0.22277 0.10331 0.83697 0.0
H2332 H 0.32949 0.71214 0.34348 0.0
H2333 H 0.37083 0.75189 0.32616 0.0
H2334 H 0.33598 0.6935 0.31708 0.0
H2335 H 0.37991 0.7318 0.30044 0.0
H2336 H 0.378 0.70198 0.24385 0.0
H2337 H 0.37792 0.71945 0.2728 0.0
H2338 H 0.34831 0.6739 0.29944 0.0
H2339 H 0.34645 0.65832 0.27021 0.0
C2340 C 0.34075 0.71634 0.33431 0.0
C2341 C 0.3498 0.73321 0.33692 0.0
C2342 C 0.34484 0.70542 0.31897 0.0
C2343 C 0.35894 0.71047 0.30609 0.0
C2344 C 0.36881 0.72716 0.30951 0.0
C2345 C 0.36395 0.73861 0.32454 0.0
C2346 C 0.37147 0.69595 0.25607 0.0
C2347 C 0.36169 0.67913 0.25476 0.0
C2348 C 0.37142 0.70594 0.27286 0.0
C2349 C 0.36207 0.69894 0.28882 0.0
C2350 C 0.35434 0.68095 0.2876 0.0
C2351 C 0.35364 0.67155 0.27077 0.0
H2352 H 0.75289 0.12946 0.11467 0.0
H2353 H 0.7079 0.09522 0.13463 0.0
H2354 H 0.77133 0.12128 0.14104 0.0
H2355 H 0.72714 0.08449 0.16035 0.0
H2356 H 0.75704 0.08539 0.2166 0.0
H2357 H 0.7399 0.08587 0.18749 0.0
H2358 H 0.78927 0.10759 0.15974 0.0
H2359 H 0.8049 0.10914 0.1892 0.0
C2360 C 0.74743 0.11922 0.12436 0.0
C2361 C 0.72928 0.11261 0.12248 0.0
C2362 C 0.75812 0.11426 0.13974 0.0
C2363 C 0.7513 0.10174 0.1534 0.0
C2364 C 0.73321 0.09432 0.1507 0.0
C2365 C 0.72217 0.10008 0.13565 0.0
C2366 C 0.76401 0.0902 0.20408 0.0
C2367 C 0.78198 0.09779 0.20506 0.0
C2368 C 0.75422 0.09049 0.18717 0.0
C2369 C 0.76248 0.09791 0.17081 0.0
C2370 C 0.78146 0.10318 0.17181 0.0
C2371 C 0.79082 0.10363 0.18875 0.0
H2372 H 0.38816 0.28657 0.69766 0.0
H2373 H 0.33744 0.25879 0.7145 0.0
H2374 H 0.38786 0.26899 0.66815 0.0
H2375 H 0.33749 0.24121 0.68596 0.0
H2376 H 0.31999 0.24367 0.62809 0.0
H2377 H 0.33035 0.25931 0.6558 0.0
H2378 H 0.38481 0.23436 0.65001 0.0
H2379 H 0.37384 0.21809 0.62175 0.0
C2380 C 0.37728 0.27643 0.69528 0.0
C2381 C 0.36232 0.27461 0.70793 0.0
C2382 C 0.37717 0.26634 0.6785 0.0
C2383 C 0.36225 0.25428 0.67453 0.0
C2384 C 0.34884 0.25084 0.68838 0.0
C2385 C 0.34876 0.26099 0.70472 0.0
C2386 C 0.33418 0.24165 0.6325 0.0
C2387 C 0.34584 0.22933 0.62311 0.0
C2388 C 0.3402 0.25062 0.6484 0.0
C2389 C 0.3582 0.24755 0.65545 0.0
C2390 C 0.37075 0.23672 0.64502 0.0
C2391 C 0.36452 0.22751 0.62889 0.0
H2392 H 0.16018 0.86363 0.18793 0.0
H2393 H 0.21124 0.86563 0.21914 0.0
H2394 H 0.1775 0.86368 0.15915 0.0
H2395 H 0.22912 0.86458 0.19092 0.0
H2396 H 0.26107 0.8506 0.13999 0.0
H2397 H 0.24413 0.8628 0.16596 0.0
H2398 H 0.19222 0.85241 0.13645 0.0
H2399 H 0.20989 0.84163 0.11017 0.0
C2400 C 0.17527 0.86443 0.18848 0.0
C2401 C 0.18442 0.86449 0.20565 0.0
C2402 C 0.18549 0.86399 0.17184 0.0
C2403 C 0.20525 0.86301 0.17189 0.0
C2404 C 0.21417 0.86483 0.1894 0.0
C2405 C 0.20389 0.86558 0.20597 0.0
C2406 C 0.246 0.85154 0.13902 0.0
C2407 C 0.23679 0.84541 0.12303 0.0
C2408 C 0.23598 0.85829 0.15424 0.0
C2409 C 0.21621 0.85852 0.15432 0.0
C2410 C 0.20719 0.85292 0.13768 0.0
C2411 C 0.21735 0.84667 0.12224 0.0
H2412 H 0.6138 0.75998 0.64303 0.0
H2413 H 0.61485 0.7099 0.61069 0.0
H2414 H 0.60246 0.74324 0.66951 0.0
H2415 H 0.60504 0.69216 0.63776 0.0
H2416 H 0.59374 0.66012 0.69008 0.0
H2417 H 0.59301 0.67835 0.66157 0.0
H2418 H 0.6063 0.72745 0.69384 0.0
H2419 H 0.60554 0.70918 0.7217 0.0
C2420 C 0.61142 0.74519 0.64165 0.0
C2421 C 0.61523 0.73625 0.62482 0.0
C2422 C 0.60527 0.73526 0.65718 0.0
C2423 C 0.6034 0.71575 0.65676 0.0
C2424 C 0.60618 0.707 0.63931 0.0
C2425 C 0.61183 0.71717 0.6235 0.0
C2426 C 0.59575 0.67499 0.69086 0.0
C2427 C 0.59958 0.68333 0.708 0.0
C2428 C 0.5958 0.68557 0.67438 0.0
C2429 C 0.60012 0.70476 0.67457 0.0
C2430 C 0.60274 0.71302 0.69224 0.0
C2431 C 0.60237 0.70249 0.7086 0.0
H2432 H 0.82461 0.70314 0.86139 0.0
H2433 H 0.85128 0.75066 0.8366 0.0
H2434 H 0.79908 0.72224 0.87187 0.0
H2435 H 0.82537 0.76982 0.84502 0.0
H2436 H 0.77447 0.80276 0.85267 0.0
H2437 H 0.8036 0.78643 0.85502 0.0
H2438 H 0.77326 0.73639 0.87052 0.0
H2439 H 0.74455 0.75384 0.86975 0.0
C2440 C 0.82498 0.7179 0.85846 0.0
C2441 C 0.83987 0.72557 0.84846 0.0
C2442 C 0.81004 0.72902 0.86412 0.0
C2443 C 0.80913 0.74803 0.85908 0.0
C2444 C 0.82482 0.7556 0.84967 0.0
C2445 C 0.84004 0.74457 0.84469 0.0
C2446 C 0.77431 0.78832 0.85696 0.0
C2447 C 0.7574 0.77944 0.86075 0.0
C2448 C 0.79113 0.77859 0.85797 0.0
C2449 C 0.7915 0.75933 0.86194 0.0
C2450 C 0.77432 0.75091 0.86706 0.0
C2451 C 0.75754 0.76091 0.86663 0.0
H2452 H 0.85515 0.21125 0.1084 0.0
H2453 H 0.82023 0.25931 0.1157 0.0
H2454 H 0.82829 0.19351 0.09826 0.0
H2455 H 0.79393 0.24284 0.10397 0.0
H2456 H 0.74432 0.20593 0.11004 0.0
H2457 H 0.77113 0.22546 0.10931 0.0
H2458 H 0.80395 0.17994 0.08693 0.0
H2459 H 0.7765 0.16012 0.08927 0.0
C2460 C 0.84176 0.21814 0.10722 0.0
C2461 C 0.83963 0.23645 0.11323 0.0
C2462 C 0.82612 0.20797 0.10137 0.0
C2463 C 0.80808 0.21609 0.10103 0.0
C2464 C 0.80681 0.23519 0.10511 0.0
C2465 C 0.82219 0.24501 0.11149 0.0
C2466 C 0.75731 0.20028 0.10479 0.0
C2467 C 0.75855 0.18159 0.10011 0.0
C2468 C 0.77302 0.21159 0.10412 0.0
C2469 C 0.7906 0.20461 0.09846 0.0
C2470 C 0.79122 0.18604 0.09213 0.0
C2471 C 0.77538 0.17459 0.09313 0.0
H2472 H 0.2525 0.34552 0.63264 0.0
H2473 H 0.20825 0.32794 0.59645 0.0
H2474 H 0.27029 0.31884 0.62492 0.0
H2475 H 0.22694 0.30179 0.58623 0.0
H2476 H 0.25425 0.24447 0.58752 0.0
H2477 H 0.23868 0.27439 0.5872 0.0
H2478 H 0.28756 0.29867 0.61334 0.0
H2479 H 0.30136 0.2686 0.61548 0.0
C2480 C 0.24711 0.33625 0.6221 0.0
C2481 C 0.22929 0.33886 0.61488 0.0
C2482 C 0.25742 0.32064 0.6174 0.0
C2483 C 0.25058 0.3074 0.60459 0.0
C2484 C 0.23297 0.31098 0.59638 0.0
C2485 C 0.22226 0.32629 0.60186 0.0
C2486 C 0.26136 0.25639 0.59329 0.0
C2487 C 0.27856 0.25425 0.60224 0.0
C2488 C 0.25251 0.27379 0.59308 0.0
C2489 C 0.26102 0.28947 0.60139 0.0
C2490 C 0.27939 0.28724 0.60818 0.0
C2491 C 0.28773 0.26986 0.60908 0.0
H2492 H 0.21689 0.75495 0.08942 0.0
H2493 H 0.19008 0.79991 0.11803 0.0
H2494 H 0.18757 0.73833 0.08799 0.0
H2495 H 0.16073 0.78479 0.11577 0.0
H2496 H 0.1109 0.75024 0.12693 0.0
H2497 H 0.13717 0.76911 0.12013 0.0
H2498 H 0.162 0.72358 0.08912 0.0
H2499 H 0.13542 0.70462 0.09744 0.0
C2500 C 0.20449 0.76133 0.09519 0.0
C2501 C 0.20571 0.77842 0.10431 0.0
C2502 C 0.18739 0.75178 0.09446 0.0
C2503 C 0.17095 0.75934 0.10249 0.0
C2504 C 0.17243 0.77735 0.11014 0.0
C2505 C 0.18951 0.78647 0.11135 0.0
C2506 C 0.12176 0.74462 0.11807 0.0
C2507 C 0.12101 0.72619 0.11243 0.0
C2508 C 0.13741 0.75546 0.11421 0.0
C2509 C 0.15289 0.74835 0.10418 0.0
C2510 C 0.15116 0.73005 0.09723 0.0
C2511 C 0.13559 0.71904 0.10163 0.0
H2512 H 0.71306 0.61464 0.62985 0.0
H2513 H 0.75924 0.6376 0.59921 0.0
H2514 H 0.69415 0.64091 0.62177 0.0
H2515 H 0.73996 0.66341 0.58901 0.0
H2516 H 0.70861 0.71874 0.59058 0.0
H2517 H 0.72644 0.69011 0.59108 0.0
H2518 H 0.67653 0.66044 0.60839 0.0
H2519 H 0.65991 0.68941 0.60975 0.0
C2520 C 0.7188 0.62502 0.62048 0.0
C2521 C 0.73739 0.62387 0.61477 0.0
C2522 C 0.70788 0.64038 0.61564 0.0
C2523 C 0.715 0.65497 0.60437 0.0
C2524 C 0.73359 0.6531 0.59792 0.0
C2525 C 0.74472 0.63799 0.60342 0.0
C2526 C 0.70161 0.70593 0.59437 0.0
C2527 C 0.68305 0.70627 0.60057 0.0
C2528 C 0.71183 0.68926 0.59468 0.0
C2529 C 0.70357 0.67239 0.60078 0.0
C2530 C 0.68425 0.67282 0.60487 0.0
C2531 C 0.67435 0.68952 0.60523 0.0
H2532 H 0.14203 0.25807 0.85326 0.0
H2533 H 0.11202 0.2073 0.84393 0.0
H2534 H 0.16825 0.24103 0.86514 0.0
H2535 H 0.13833 0.18962 0.85443 0.0
H2536 H 0.19044 0.15764 0.86283 0.0
H2537 H 0.16163 0.17466 0.8635 0.0
H2538 H 0.19329 0.22606 0.86693 0.0
H2539 H 0.22168 0.20832 0.86722 0.0
C2540 C 0.14108 0.24307 0.85407 0.0
C2541 C 0.12505 0.23396 0.84778 0.0
C2542 C 0.15642 0.23301 0.86063 0.0
C2543 C 0.15652 0.21335 0.86047 0.0
C2544 C 0.1397 0.20448 0.85503 0.0
C2545 C 0.12418 0.21465 0.84899 0.0
C2546 C 0.19097 0.17259 0.86427 0.0
C2547 C 0.20817 0.1817 0.86491 0.0
C2548 C 0.17428 0.18268 0.86425 0.0
C2549 C 0.17426 0.20235 0.86428 0.0
C2550 C 0.19183 0.2112 0.86645 0.0
C2551 C 0.20848 0.201 0.86677 0.0
H2552 H 0.2565 0.71992 0.34812 0.0
H2553 H 0.30102 0.68981 0.37474 0.0
H2554 H 0.2371 0.69294 0.34884 0.0
H2555 H 0.28108 0.66234 0.377 0.0
H2556 H 0.2515 0.61065 0.35319 0.0
H2557 H 0.26896 0.63767 0.36348 0.0
H2558 H 0.21893 0.6711 0.3577 0.0
H2559 H 0.20264 0.64467 0.34566 0.0
C2560 C 0.26186 0.70744 0.35469 0.0
C2561 C 0.28022 0.70681 0.36111 0.0
C2562 C 0.25059 0.69174 0.3554 0.0
C2563 C 0.25722 0.67479 0.36284 0.0
C2564 C 0.27537 0.6747 0.37062 0.0
C2565 C 0.28681 0.69055 0.36965 0.0
C2566 C 0.24436 0.62384 0.35436 0.0
C2567 C 0.22595 0.62575 0.34812 0.0
C2568 C 0.25434 0.6395 0.36034 0.0
C2569 C 0.2459 0.65728 0.3606 0.0
C2570 C 0.22667 0.6583 0.35654 0.0
C2571 C 0.21702 0.64292 0.34997 0.0
H2572 H 0.76243 0.3214 0.35441 0.0
H2573 H 0.71202 0.35165 0.34286 0.0
H2574 H 0.74468 0.29527 0.36517 0.0
H2575 H 0.69363 0.32533 0.35213 0.0
H2576 H 0.66117 0.27319 0.35762 0.0
H2577 H 0.67819 0.30187 0.36022 0.0
H2578 H 0.72983 0.2703 0.36413 0.0
H2579 H 0.71209 0.2421 0.36279 0.0
C2580 C 0.74733 0.32245 0.35459 0.0
C2581 C 0.73855 0.33852 0.348 0.0
C2582 C 0.73687 0.30713 0.36039 0.0
C2583 C 0.71716 0.30707 0.35904 0.0
C2584 C 0.70853 0.32397 0.35354 0.0
C2585 C 0.7191 0.33948 0.34826 0.0
C2586 C 0.67619 0.27268 0.35933 0.0
C2587 C 0.68545 0.25563 0.35963 0.0
C2588 C 0.68625 0.28926 0.36056 0.0
C2589 C 0.70601 0.2893 0.36148 0.0
C2590 C 0.71492 0.27177 0.3631 0.0
C2591 C 0.70474 0.25523 0.3623 0.0
loop_
_geom_bond_atom_site_label_1
_geom_bond_atom_site_label_2
_geom_bond_distance
_geom_bond_site_symmetry_2
_ccdc_geom_bond_type
Mg0 O1 2.028 . S
Mg0 O7 1.986 . S
Mg0 O9 2.114 . S
Mg0 O10 2.251 . S
Mg0 O13 2.010 . S
O1 Mg0 2.028 . S
O1 C4 1.250 . S
O2 Mg3 2.028 . S
O2 C4 1.248 . S
Mg3 O2 2.028 . S
Mg3 O8 2.032 . S
Mg3 O10 2.079 . S
C4 O1 1.250 . S
C4 O2 1.248 . S
C5 O6 1.264 . S
C5 O13 1.249 . S
O6 C5 1.264 . S
O7 Mg0 1.986 . S
O7 C11 1.246 . S
O8 Mg3 2.032 . S
O8 C11 1.259 . S
O9 Mg0 2.114 . S
O9 C12 1.252 . S
O10 Mg0 2.251 . S
O10 Mg3 2.079 . S
O10 C12 1.273 . S
C11 O7 1.246 . S
C11 O8 1.259 . S
C12 O9 1.252 . S
C12 O10 1.273 . S
O13 Mg0 2.010 . S
O13 C5 1.249 . S
Mg14 O15 2.028 . S
Mg14 O21 1.986 . S
Mg14 O23 2.114 . S
Mg14 O24 2.251 . S
Mg14 O27 2.010 . S
O15 Mg14 2.028 . S
O15 C18 1.250 . S
O16 Mg17 2.028 . S
O16 C18 1.248 . S
Mg17 O16 2.028 . S
Mg17 O22 2.032 . S
Mg17 O24 2.079 . S
C18 O15 1.250 . S
C18 O16 1.248 . S
C19 O20 1.264 . S
C19 O27 1.249 . S
O20 C19 1.264 . S
O21 Mg14 1.986 . S
O21 C25 1.246 . S
O22 Mg17 2.032 . S
O22 C25 1.259 . S
O23 Mg14 2.114 . S
O23 C26 1.252 . S
O24 Mg14 2.251 . S
O24 Mg17 2.079 . S
O24 C26 1.273 . S
C25 O21 1.246 . S
C25 O22 1.259 . S
C26 O23 1.252 . S
C26 O24 1.273 . S
O27 Mg14 2.010 . S
O27 C19 1.249 . S
Mg28 O29 2.028 . S
Mg28 O35 1.986 . S
Mg28 O37 2.114 . S
Mg28 O38 2.251 . S
Mg28 O41 2.010 . S
O29 Mg28 2.028 . S
O29 C32 1.250 . S
O30 Mg31 2.028 . S
O30 C32 1.248 . S
Mg31 O30 2.028 . S
Mg31 O36 2.032 . S
Mg31 O38 2.079 . S
C32 O29 1.250 . S
C32 O30 1.248 . S
C33 O34 1.264 . S
C33 O41 1.249 . S
O34 C33 1.264 . S
O35 Mg28 1.986 . S
O35 C39 1.246 . S
O36 Mg31 2.032 . S
O36 C39 1.259 . S
O37 Mg28 2.114 . S
O37 C40 1.252 . S
O38 Mg28 2.251 . S
O38 Mg31 2.079 . S
O38 C40 1.273 . S
C39 O35 1.246 . S
C39 O36 1.259 . S
C40 O37 1.252 . S
C40 O38 1.273 . S
O41 Mg28 2.010 . S
O41 C33 1.249 . S
Mg42 O43 2.028 . S
Mg42 O49 1.986 . S
Mg42 O51 2.114 . S
Mg42 O52 2.251 . S
Mg42 O55 2.010 . S
O43 Mg42 2.028 . S
O43 C46 1.250 . S
O44 Mg45 2.028 . S
O44 C46 1.248 . S
Mg45 O44 2.028 . S
Mg45 O50 2.032 . S
Mg45 O52 2.079 . S
C46 O43 1.250 . S
C46 O44 1.248 . S
C47 O48 1.264 . S
C47 O55 1.249 . S
O48 C47 1.264 . S
O49 Mg42 1.986 . S
O49 C53 1.246 . S
O50 Mg45 2.032 . S
O50 C53 1.259 . S
O51 Mg42 2.114 . S
O51 C54 1.252 . S
O52 Mg42 2.251 . S
O52 Mg45 2.079 . S
O52 C54 1.273 . S
C53 O49 1.246 . S
C53 O50 1.259 . S
C54 O51 1.252 . S
C54 O52 1.273 . S
O55 Mg42 2.010 . S
O55 C47 1.249 . S
Mg56 O57 2.028 . S
Mg56 O63 1.986 . S
Mg56 O65 2.114 . S
Mg56 O66 2.251 . S
Mg56 O69 2.010 . S
O57 Mg56 2.028 . S
O57 C60 1.250 . S
O58 Mg59 2.028 . S
O58 C60 1.248 . S
Mg59 O58 2.028 . S
Mg59 O64 2.032 . S
Mg59 O66 2.079 . S
C60 O57 1.250 . S
C60 O58 1.248 . S
C61 O62 1.264 . S
C61 O69 1.249 . S
O62 C61 1.264 . S
O63 Mg56 1.986 . S
O63 C67 1.246 . S
O64 Mg59 2.032 . S
O64 C67 1.259 . S
O65 Mg56 2.114 . S
O65 C68 1.252 . S
O66 Mg56 2.251 . S
O66 Mg59 2.079 . S
O66 C68 1.273 . S
C67 O63 1.246 . S
C67 O64 1.259 . S
C68 O65 1.252 . S
C68 O66 1.273 . S
O69 Mg56 2.010 . S
O69 C61 1.249 . S
Mg70 O71 2.028 . S
Mg70 O77 1.986 . S
Mg70 O79 2.114 . S
Mg70 O80 2.251 . S
Mg70 O83 2.010 . S
O71 Mg70 2.028 . S
O71 C74 1.250 . S
O72 Mg73 2.028 . S
O72 C74 1.248 . S
Mg73 O72 2.028 . S
Mg73 O78 2.032 . S
Mg73 O80 2.079 . S
C74 O71 1.250 . S
C74 O72 1.248 . S
C75 O76 1.264 . S
C75 O83 1.249 . S
O76 C75 1.264 . S
O77 Mg70 1.986 . S
O77 C81 1.246 . S
O78 Mg73 2.032 . S
O78 C81 1.259 . S
O79 Mg70 2.114 . S
O79 C82 1.252 . S
O80 Mg70 2.251 . S
O80 Mg73 2.079 . S
O80 C82 1.273 . S
C81 O77 1.246 . S
C81 O78 1.259 . S
C82 O79 1.252 . S
C82 O80 1.273 . S
O83 Mg70 2.010 . S
O83 C75 1.249 . S
Mg84 O85 2.028 . S
Mg84 O91 1.986 . S
Mg84 O93 2.114 . S
Mg84 O94 2.251 . S
Mg84 O97 2.010 . S
O85 Mg84 2.028 . S
O85 C88 1.250 . S
O86 Mg87 2.028 . S
O86 C88 1.248 . S
Mg87 O86 2.028 . S
Mg87 O92 2.032 . S
Mg87 O94 2.079 . S
C88 O85 1.250 . S
C88 O86 1.248 . S
C89 O90 1.264 . S
C89 O97 1.249 . S
O90 C89 1.264 . S
O91 Mg84 1.986 . S
O91 C95 1.246 . S
O92 Mg87 2.032 . S
O92 C95 1.259 . S
O93 Mg84 2.114 . S
O93 C96 1.252 . S
O94 Mg84 2.251 . S
O94 Mg87 2.079 . S
O94 C96 1.273 . S
C95 O91 1.246 . S
C95 O92 1.259 . S
C96 O93 1.252 . S
C96 O94 1.273 . S
O97 Mg84 2.010 . S
O97 C89 1.249 . S
Mg98 O99 2.028 . S
Mg98 O105 1.986 . S
Mg98 O107 2.114 . S
Mg98 O108 2.251 . S
Mg98 O111 2.010 . S
O99 Mg98 2.028 . S
O99 C102 1.250 . S
O100 Mg101 2.028 . S
O100 C102 1.248 . S
Mg101 O100 2.028 . S
Mg101 O106 2.032 . S
Mg101 O108 2.079 . S
C102 O99 1.250 . S
C102 O100 1.248 . S
C103 O104 1.264 . S
C103 O111 1.249 . S
O104 C103 1.264 . S
O105 Mg98 1.986 . S
O105 C109 1.246 . S
O106 Mg101 2.032 . S
O106 C109 1.259 . S
O107 Mg98 2.114 . S
O107 C110 1.252 . S
O108 Mg98 2.251 . S
O108 Mg101 2.079 . S
O108 C110 1.273 . S
C109 O105 1.246 . S
C109 O106 1.259 . S
C110 O107 1.252 . S
C110 O108 1.273 . S
O111 Mg98 2.010 . S
O111 C103 1.249 . S
Mg112 O113 2.028 . S
Mg112 O119 1.986 . S
Mg112 O121 2.114 . S
Mg112 O122 2.251 . S
Mg112 O125 2.010 . S
O113 Mg112 2.028 . S
O113 C116 1.250 . S
O114 Mg115 2.028 . S
O114 C116 1.248 . S
Mg115 O114 2.028 . S
Mg115 O120 2.032 . S
Mg115 O122 2.079 . S
C116 O113 1.250 . S
C116 O114 1.248 . S
C117 O118 1.264 . S
C117 O125 1.249 . S
O118 C117 1.264 . S
O119 Mg112 1.986 . S
O119 C123 1.246 . S
O120 Mg115 2.032 . S
O120 C123 1.259 . S
O121 Mg112 2.114 . S
O121 C124 1.252 . S
O122 Mg112 2.251 . S
O122 Mg115 2.079 . S
O122 C124 1.273 . S
C123 O119 1.246 . S
C123 O120 1.259 . S
C124 O121 1.252 . S
C124 O122 1.273 . S
O125 Mg112 2.010 . S
O125 C117 1.249 . S
Mg126 O127 2.028 . S
Mg126 O133 1.986 . S
Mg126 O135 2.114 . S
Mg126 O136 2.251 . S
Mg126 O139 2.010 . S
O127 Mg126 2.028 . S
O127 C130 1.250 . S
O128 Mg129 2.028 . S
O128 C130 1.248 . S
Mg129 O128 2.028 . S
Mg129 O134 2.032 . S
Mg129 O136 2.079 . S
C130 O127 1.250 . S
C130 O128 1.248 . S
C131 O132 1.264 . S
C131 O139 1.249 . S
O132 C131 1.264 . S
O133 Mg126 1.986 . S
O133 C137 1.246 . S
O134 Mg129 2.032 . S
O134 C137 1.259 . S
O135 Mg126 2.114 . S
O135 C138 1.252 . S
O136 Mg126 2.251 . S
O136 Mg129 2.079 . S
O136 C138 1.273 . S
C137 O133 1.246 . S
C137 O134 1.259 . S
C138 O135 1.252 . S
C138 O136 1.273 . S
O139 Mg126 2.010 . S
O139 C131 1.249 . S
Mg140 O141 2.028 . S
Mg140 O147 1.986 . S
Mg140 O149 2.114 . S
Mg140 O150 2.251 . S
Mg140 O153 2.010 . S
O141 Mg140 2.028 . S
O141 C144 1.250 . S
O142 Mg143 2.028 . S
O142 C144 1.248 . S
Mg143 O142 2.028 . S
Mg143 O148 2.032 . S
Mg143 O150 2.079 . S
C144 O141 1.250 . S
C144 O142 1.248 . S
C145 O146 1.264 . S
C145 O153 1.249 . S
O146 C145 1.264 . S
O147 Mg140 1.986 . S
O147 C151 1.246 . S
O148 Mg143 2.032 . S
O148 C151 1.259 . S
O149 Mg140 2.114 . S
O149 C152 1.252 . S
O150 Mg140 2.251 . S
O150 Mg143 2.079 . S
O150 C152 1.273 . S
C151 O147 1.246 . S
C151 O148 1.259 . S
C152 O149 1.252 . S
C152 O150 1.273 . S
O153 Mg140 2.010 . S
O153 C145 1.249 . S
Mg154 O155 2.028 . S
Mg154 O161 1.986 . S
Mg154 O163 2.114 . S
Mg154 O164 2.251 . S
Mg154 O167 2.010 . S
O155 Mg154 2.028 . S
O155 C158 1.250 . S
O156 Mg157 2.028 . S
O156 C158 1.248 . S
Mg157 O156 2.028 . S
Mg157 O162 2.032 . S
Mg157 O164 2.079 . S
C158 O155 1.250 . S
C158 O156 1.248 . S
C159 O160 1.264 . S
C159 O167 1.249 . S
O160 C159 1.264 . S
O161 Mg154 1.986 . S
O161 C165 1.246 . S
O162 Mg157 2.032 . S
O162 C165 1.259 . S
O163 Mg154 2.114 . S
O163 C166 1.252 . S
O164 Mg154 2.251 . S
O164 Mg157 2.079 . S
O164 C166 1.273 . S
C165 O161 1.246 . S
C165 O162 1.259 . S
C166 O163 1.252 . S
C166 O164 1.273 . S
O167 Mg154 2.010 . S
O167 C159 1.249 . S
Mg168 O169 2.028 . S
Mg168 O175 1.986 . S
Mg168 O177 2.114 . S
Mg168 O178 2.251 . S
Mg168 O181 2.010 . S
O169 Mg168 2.028 . S
O169 C172 1.250 . S
O170 Mg171 2.028 . S
O170 C172 1.248 . S
Mg171 O170 2.028 . S
Mg171 O176 2.032 . S
Mg171 O178 2.079 . S
C172 O169 1.250 . S
C172 O170 1.248 . S
C173 O174 1.264 . S
C173 O181 1.249 . S
O174 C173 1.264 . S
O175 Mg168 1.986 . S
O175 C179 1.246 . S
O176 Mg171 2.032 . S
O176 C179 1.259 . S
O177 Mg168 2.114 . S
O177 C180 1.252 . S
O178 Mg168 2.251 . S
O178 Mg171 2.079 . S
O178 C180 1.273 . S
C179 O175 1.246 . S
C179 O176 1.259 . S
C180 O177 1.252 . S
C180 O178 1.273 . S
O181 Mg168 2.010 . S
O181 C173 1.249 . S
Mg182 O183 2.028 . S
Mg182 O189 1.986 . S
Mg182 O191 2.114 . S
Mg182 O192 2.251 . S
Mg182 O195 2.010 . S
O183 Mg182 2.028 . S
O183 C186 1.250 . S
O184 Mg185 2.028 . S
O184 C186 1.248 . S
Mg185 O184 2.028 . S
Mg185 O190 2.032 . S
Mg185 O192 2.079 . S
C186 O183 1.250 . S
C186 O184 1.248 . S
C187 O188 1.264 . S
C187 O195 1.249 . S
O188 C187 1.264 . S
O189 Mg182 1.986 . S
O189 C193 1.246 . S
O190 Mg185 2.032 . S
O190 C193 1.259 . S
O191 Mg182 2.114 . S
O191 C194 1.252 . S
O192 Mg182 2.251 . S
O192 Mg185 2.079 . S
O192 C194 1.273 . S
C193 O189 1.246 . S
C193 O190 1.259 . S
C194 O191 1.252 . S
C194 O192 1.273 . S
O195 Mg182 2.010 . S
O195 C187 1.249 . S
Mg196 O197 2.028 . S
Mg196 O203 1.986 . S
Mg196 O205 2.114 . S
Mg196 O206 2.251 . S
Mg196 O209 2.010 . S
O197 Mg196 2.028 . S
O197 C200 1.250 . S
O198 Mg199 2.028 . S
O198 C200 1.248 . S
Mg199 O198 2.028 . S
Mg199 O204 2.032 . S
Mg199 O206 2.079 . S
C200 O197 1.250 . S
C200 O198 1.248 . S
C201 O202 1.264 . S
C201 O209 1.249 . S
O202 C201 1.264 . S
O203 Mg196 1.986 . S
O203 C207 1.246 . S
O204 Mg199 2.032 . S
O204 C207 1.259 . S
O205 Mg196 2.114 . S
O205 C208 1.252 . S
O206 Mg196 2.251 . S
O206 Mg199 2.079 . S
O206 C208 1.273 . S
C207 O203 1.246 . S
C207 O204 1.259 . S
C208 O205 1.252 . S
C208 O206 1.273 . S
O209 Mg196 2.010 . S
O209 C201 1.249 . S
Mg210 O211 2.028 . S
Mg210 O217 1.986 . S
Mg210 O219 2.114 . S
Mg210 O220 2.251 . S
Mg210 O223 2.010 . S
O211 Mg210 2.028 . S
O211 C214 1.250 . S
O212 Mg213 2.028 . S
O212 C214 1.248 . S
Mg213 O212 2.028 . S
Mg213 O218 2.032 . S
Mg213 O220 2.079 . S
C214 O211 1.250 . S
C214 O212 1.248 . S
C215 O216 1.264 . S
C215 O223 1.249 . S
O216 C215 1.264 . S
O217 Mg210 1.986 . S
O217 C221 1.246 . S
O218 Mg213 2.032 . S
O218 C221 1.259 . S
O219 Mg210 2.114 . S
O219 C222 1.252 . S
O220 Mg210 2.251 . S
O220 Mg213 2.079 . S
O220 C222 1.273 . S
C221 O217 1.246 . S
C221 O218 1.259 . S
C222 O219 1.252 . S
C222 O220 1.273 . S
O223 Mg210 2.010 . S
O223 C215 1.249 . S
Mg224 O225 2.028 . S
Mg224 O231 1.986 . S
Mg224 O233 2.114 . S
Mg224 O234 2.251 . S
Mg224 O237 2.010 . S
O225 Mg224 2.028 . S
O225 C228 1.250 . S
O226 Mg227 2.028 . S
O226 C228 1.248 . S
Mg227 O226 2.028 . S
Mg227 O232 2.032 . S
Mg227 O234 2.079 . S
C228 O225 1.250 . S
C228 O226 1.248 . S
C229 O230 1.264 . S
C229 O237 1.249 . S
O230 C229 1.264 . S
O231 Mg224 1.986 . S
O231 C235 1.246 . S
O232 Mg227 2.032 . S
O232 C235 1.259 . S
O233 Mg224 2.114 . S
O233 C236 1.252 . S
O234 Mg224 2.251 . S
O234 Mg227 2.079 . S
O234 C236 1.273 . S
C235 O231 1.246 . S
C235 O232 1.259 . S
C236 O233 1.252 . S
C236 O234 1.273 . S
O237 Mg224 2.010 . S
O237 C229 1.249 . S
Mg238 O239 2.028 . S
Mg238 O245 1.986 . S
Mg238 O247 2.114 . S
Mg238 O248 2.251 . S
Mg238 O251 2.010 . S
O239 Mg238 2.028 . S
O239 C242 1.250 . S
O240 Mg241 2.028 . S
O240 C242 1.248 . S
Mg241 O240 2.028 . S
Mg241 O246 2.032 . S
Mg241 O248 2.079 . S
C242 O239 1.250 . S
C242 O240 1.248 . S
C243 O244 1.264 . S
C243 O251 1.249 . S
O244 C243 1.264 . S
O245 Mg238 1.986 . S
O245 C249 1.246 . S
O246 Mg241 2.032 . S
O246 C249 1.259 . S
O247 Mg238 2.114 . S
O247 C250 1.252 . S
O248 Mg238 2.251 . S
O248 Mg241 2.079 . S
O248 C250 1.273 . S
C249 O245 1.246 . S
C249 O246 1.259 . S
C250 O247 1.252 . S
C250 O248 1.273 . S
O251 Mg238 2.010 . S
O251 C243 1.249 . S
Mg252 O253 2.028 . S
Mg252 O259 1.986 . S
Mg252 O261 2.114 . S
Mg252 O262 2.251 . S
Mg252 O265 2.010 . S
O253 Mg252 2.028 . S
O253 C256 1.250 . S
O254 Mg255 2.028 . S
O254 C256 1.248 . S
Mg255 O254 2.028 . S
Mg255 O260 2.032 . S
Mg255 O262 2.079 . S
C256 O253 1.250 . S
C256 O254 1.248 . S
C257 O258 1.264 . S
C257 O265 1.249 . S
O258 C257 1.264 . S
O259 Mg252 1.986 . S
O259 C263 1.246 . S
O260 Mg255 2.032 . S
O260 C263 1.259 . S
O261 Mg252 2.114 . S
O261 C264 1.252 . S
O262 Mg252 2.251 . S
O262 Mg255 2.079 . S
O262 C264 1.273 . S
C263 O259 1.246 . S
C263 O260 1.259 . S
C264 O261 1.252 . S
C264 O262 1.273 . S
O265 Mg252 2.010 . S
O265 C257 1.249 . S
Mg266 O267 2.028 . S
Mg266 O273 1.986 . S
Mg266 O275 2.114 . S
Mg266 O276 2.251 . S
Mg266 O279 2.010 . S
O267 Mg266 2.028 . S
O267 C270 1.250 . S
O268 Mg269 2.028 . S
O268 C270 1.248 . S
Mg269 O268 2.028 . S
Mg269 O274 2.032 . S
Mg269 O276 2.079 . S
C270 O267 1.250 . S
C270 O268 1.248 . S
C271 O272 1.264 . S
C271 O279 1.249 . S
O272 C271 1.264 . S
O273 Mg266 1.986 . S
O273 C277 1.246 . S
O274 Mg269 2.032 . S
O274 C277 1.259 . S
O275 Mg266 2.114 . S
O275 C278 1.252 . S
O276 Mg266 2.251 . S
O276 Mg269 2.079 . S
O276 C278 1.273 . S
C277 O273 1.246 . S
C277 O274 1.259 . S
C278 O275 1.252 . S
C278 O276 1.273 . S
O279 Mg266 2.010 . S
O279 C271 1.249 . S
Mg280 O281 2.028 . S
Mg280 O287 1.986 . S
Mg280 O289 2.114 . S
Mg280 O290 2.251 . S
Mg280 O293 2.010 . S
O281 Mg280 2.028 . S
O281 C284 1.250 . S
O282 Mg283 2.028 . S
O282 C284 1.248 . S
Mg283 O282 2.028 . S
Mg283 O288 2.032 . S
Mg283 O290 2.079 . S
C284 O281 1.250 . S
C284 O282 1.248 . S
C285 O286 1.264 . S
C285 O293 1.249 . S
O286 C285 1.264 . S
O287 Mg280 1.986 . S
O287 C291 1.246 . S
O288 Mg283 2.032 . S
O288 C291 1.259 . S
O289 Mg280 2.114 . S
O289 C292 1.252 . S
O290 Mg280 2.251 . S
O290 Mg283 2.079 . S
O290 C292 1.273 . S
C291 O287 1.246 . S
C291 O288 1.259 . S
C292 O289 1.252 . S
C292 O290 1.273 . S
O293 Mg280 2.010 . S
O293 C285 1.249 . S
Mg294 O295 2.028 . S
Mg294 O301 1.986 . S
Mg294 O303 2.114 . S
Mg294 O304 2.251 . S
Mg294 O307 2.010 . S
O295 Mg294 2.028 . S
O295 C298 1.250 . S
O296 Mg297 2.028 . S
O296 C298 1.248 . S
Mg297 O296 2.028 . S
Mg297 O302 2.032 . S
Mg297 O304 2.079 . S
C298 O295 1.250 . S
C298 O296 1.248 . S
C299 O300 1.264 . S
C299 O307 1.249 . S
O300 C299 1.264 . S
O301 Mg294 1.986 . S
O301 C305 1.246 . S
O302 Mg297 2.032 . S
O302 C305 1.259 . S
O303 Mg294 2.114 . S
O303 C306 1.252 . S
O304 Mg294 2.251 . S
O304 Mg297 2.079 . S
O304 C306 1.273 . S
C305 O301 1.246 . S
C305 O302 1.259 . S
C306 O303 1.252 . S
C306 O304 1.273 . S
O307 Mg294 2.010 . S
O307 C299 1.249 . S
Mg308 O309 2.028 . S
Mg308 O315 1.986 . S
Mg308 O317 2.114 . S
Mg308 O318 2.251 . S
Mg308 O321 2.010 . S
O309 Mg308 2.028 . S
O309 C312 1.250 . S
O310 Mg311 2.028 . S
O310 C312 1.248 . S
Mg311 O310 2.028 . S
Mg311 O316 2.032 . S
Mg311 O318 2.079 . S
C312 O309 1.250 . S
C312 O310 1.248 . S
C313 O314 1.264 . S
C313 O321 1.249 . S
O314 C313 1.264 . S
O315 Mg308 1.986 . S
O315 C319 1.246 . S
O316 Mg311 2.032 . S
O316 C319 1.259 . S
O317 Mg308 2.114 . S
O317 C320 1.252 . S
O318 Mg308 2.251 . S
O318 Mg311 2.079 . S
O318 C320 1.273 . S
C319 O315 1.246 . S
C319 O316 1.259 . S
C320 O317 1.252 . S
C320 O318 1.273 . S
O321 Mg308 2.010 . S
O321 C313 1.249 . S
Mg322 O323 2.028 . S
Mg322 O329 1.986 . S
Mg322 O331 2.114 . S
Mg322 O332 2.251 . S
Mg322 O335 2.010 . S
O323 Mg322 2.028 . S
O323 C326 1.250 . S
O324 Mg325 2.028 . S
O324 C326 1.248 . S
Mg325 O324 2.028 . S
Mg325 O330 2.032 . S
Mg325 O332 2.079 . S
C326 O323 1.250 . S
C326 O324 1.248 . S
C327 O328 1.264 . S
C327 O335 1.249 . S
O328 C327 1.264 . S
O329 Mg322 1.986 . S
O329 C333 1.246 . S
O330 Mg325 2.032 . S
O330 C333 1.259 . S
O331 Mg322 2.114 . S
O331 C334 1.252 . S
O332 Mg322 2.251 . S
O332 Mg325 2.079 . S
O332 C334 1.273 . S
C333 O329 1.246 . S
C333 O330 1.259 . S
C334 O331 1.252 . S
C334 O332 1.273 . S
O335 Mg322 2.010 . S
O335 C327 1.249 . S
Mg336 O337 2.028 . S
Mg336 O343 1.986 . S
Mg336 O345 2.114 . S
Mg336 O346 2.251 . S
Mg336 O349 2.010 . S
O337 Mg336 2.028 . S
O337 C340 1.250 . S
O338 Mg339 2.028 . S
O338 C340 1.248 . S
Mg339 O338 2.028 . S
Mg339 O344 2.032 . S
Mg339 O346 2.079 . S
C340 O337 1.250 . S
C340 O338 1.248 . S
C341 O342 1.264 . S
C341 O349 1.249 . S
O342 C341 1.264 . S
O343 Mg336 1.986 . S
O343 C347 1.246 . S
O344 Mg339 2.032 . S
O344 C347 1.259 . S
O345 Mg336 2.114 . S
O345 C348 1.252 . S
O346 Mg336 2.251 . S
O346 Mg339 2.079 . S
O346 C348 1.273 . S
C347 O343 1.246 . S
C347 O344 1.259 . S
C348 O345 1.252 . S
C348 O346 1.273 . S
O349 Mg336 2.010 . S
O349 C341 1.249 . S
Mg350 O351 2.028 . S
Mg350 O357 1.986 . S
Mg350 O359 2.114 . S
Mg350 O360 2.251 . S
Mg350 O363 2.010 . S
O351 Mg350 2.028 . S
O351 C354 1.250 . S
O352 Mg353 2.028 . S
O352 C354 1.248 . S
Mg353 O352 2.028 . S
Mg353 O358 2.032 . S
Mg353 O360 2.079 . S
C354 O351 1.250 . S
C354 O352 1.248 . S
C355 O356 1.264 . S
C355 O363 1.249 . S
O356 C355 1.264 . S
O357 Mg350 1.986 . S
O357 C361 1.246 . S
O358 Mg353 2.032 . S
O358 C361 1.259 . S
O359 Mg350 2.114 . S
O359 C362 1.252 . S
O360 Mg350 2.251 . S
O360 Mg353 2.079 . S
O360 C362 1.273 . S
C361 O357 1.246 . S
C361 O358 1.259 . S
C362 O359 1.252 . S
C362 O360 1.273 . S
O363 Mg350 2.010 . S
O363 C355 1.249 . S
Mg364 O365 2.028 . S
Mg364 O371 1.986 . S
Mg364 O373 2.114 . S
Mg364 O374 2.251 . S
Mg364 O377 2.010 . S
O365 Mg364 2.028 . S
O365 C368 1.250 . S
O366 Mg367 2.028 . S
O366 C368 1.248 . S
Mg367 O366 2.028 . S
Mg367 O372 2.032 . S
Mg367 O374 2.079 . S
C368 O365 1.250 . S
C368 O366 1.248 . S
C369 O370 1.264 . S
C369 O377 1.249 . S
O370 C369 1.264 . S
O371 Mg364 1.986 . S
O371 C375 1.246 . S
O372 Mg367 2.032 . S
O372 C375 1.259 . S
O373 Mg364 2.114 . S
O373 C376 1.252 . S
O374 Mg364 2.251 . S
O374 Mg367 2.079 . S
O374 C376 1.273 . S
C375 O371 1.246 . S
C375 O372 1.259 . S
C376 O373 1.252 . S
C376 O374 1.273 . S
O377 Mg364 2.010 . S
O377 C369 1.249 . S
Mg378 O379 2.028 . S
Mg378 O385 1.986 . S
Mg378 O387 2.114 . S
Mg378 O388 2.251 . S
Mg378 O391 2.010 . S
O379 Mg378 2.028 . S
O379 C382 1.250 . S
O380 Mg381 2.028 . S
O380 C382 1.248 . S
Mg381 O380 2.028 . S
Mg381 O386 2.032 . S
Mg381 O388 2.079 . S
C382 O379 1.250 . S
C382 O380 1.248 . S
C383 O384 1.264 . S
C383 O391 1.249 . S
O384 C383 1.264 . S
O385 Mg378 1.986 . S
O385 C389 1.246 . S
O386 Mg381 2.032 . S
O386 C389 1.259 . S
O387 Mg378 2.114 . S
O387 C390 1.252 . S
O388 Mg378 2.251 . S
O388 Mg381 2.079 . S
O388 C390 1.273 . S
C389 O385 1.246 . S
C389 O386 1.259 . S
C390 O387 1.252 . S
C390 O388 1.273 . S
O391 Mg378 2.010 . S
O391 C383 1.249 . S
Mg392 O393 2.028 . S
Mg392 O399 1.986 . S
Mg392 O401 2.114 . S
Mg392 O402 2.251 . S
Mg392 O405 2.010 . S
O393 Mg392 2.028 . S
O393 C396 1.250 . S
O394 Mg395 2.028 . S
O394 C396 1.248 . S
Mg395 O394 2.028 . S
Mg395 O400 2.032 . S
Mg395 O402 2.079 . S
C396 O393 1.250 . S
C396 O394 1.248 . S
C397 O398 1.264 . S
C397 O405 1.249 . S
O398 C397 1.264 . S
O399 Mg392 1.986 . S
O399 C403 1.246 . S
O400 Mg395 2.032 . S
O400 C403 1.259 . S
O401 Mg392 2.114 . S
O401 C404 1.252 . S
O402 Mg392 2.251 . S
O402 Mg395 2.079 . S
O402 C404 1.273 . S
C403 O399 1.246 . S
C403 O400 1.259 . S
C404 O401 1.252 . S
C404 O402 1.273 . S
O405 Mg392 2.010 . S
O405 C397 1.249 . S
Mg406 O407 2.028 . S
Mg406 O413 1.986 . S
Mg406 O415 2.114 . S
Mg406 O416 2.251 . S
Mg406 O419 2.010 . S
O407 Mg406 2.028 . S
O407 C410 1.250 . S
O408 Mg409 2.028 . S
O408 C410 1.248 . S
Mg409 O408 2.028 . S
Mg409 O414 2.032 . S
Mg409 O416 2.079 . S
C410 O407 1.250 . S
C410 O408 1.248 . S
C411 O412 1.264 . S
C411 O419 1.249 . S
O412 C411 1.264 . S
O413 Mg406 1.986 . S
O413 C417 1.246 . S
O414 Mg409 2.032 . S
O414 C417 1.259 . S
O415 Mg406 2.114 . S
O415 C418 1.252 . S
O416 Mg406 2.251 . S
O416 Mg409 2.079 . S
O416 C418 1.273 . S
C417 O413 1.246 . S
C417 O414 1.259 . S
C418 O415 1.252 . S
C418 O416 1.273 . S
O419 Mg406 2.010 . S
O419 C411 1.249 . S
Mg420 O421 2.028 . S
Mg420 O427 1.986 . S
Mg420 O429 2.114 . S
Mg420 O430 2.251 . S
Mg420 O433 2.010 . S
O421 Mg420 2.028 . S
O421 C424 1.250 . S
O422 Mg423 2.028 . S
O422 C424 1.248 . S
Mg423 O422 2.028 . S
Mg423 O428 2.032 . S
Mg423 O430 2.079 . S
C424 O421 1.250 . S
C424 O422 1.248 . S
C425 O426 1.264 . S
C425 O433 1.249 . S
O426 C425 1.264 . S
O427 Mg420 1.986 . S
O427 C431 1.246 . S
O428 Mg423 2.032 . S
O428 C431 1.259 . S
O429 Mg420 2.114 . S
O429 C432 1.252 . S
O430 Mg420 2.251 . S
O430 Mg423 2.079 . S
O430 C432 1.273 . S
C431 O427 1.246 . S
C431 O428 1.259 . S
C432 O429 1.252 . S
C432 O430 1.273 . S
O433 Mg420 2.010 . S
O433 C425 1.249 . S
Mg434 O435 2.028 . S
Mg434 O441 1.986 . S
Mg434 O443 2.114 . S
Mg434 O444 2.251 . S
Mg434 O447 2.010 . S
O435 Mg434 2.028 . S
O435 C438 1.250 . S
O436 Mg437 2.028 . S
O436 C438 1.248 . S
Mg437 O436 2.028 . S
Mg437 O442 2.032 . S
Mg437 O444 2.079 . S
C438 O435 1.250 . S
C438 O436 1.248 . S
C439 O440 1.264 . S
C439 O447 1.249 . S
O440 C439 1.264 . S
O441 Mg434 1.986 . S
O441 C445 1.246 . S
O442 Mg437 2.032 . S
O442 C445 1.259 . S
O443 Mg434 2.114 . S
O443 C446 1.252 . S
O444 Mg434 2.251 . S
O444 Mg437 2.079 . S
O444 C446 1.273 . S
C445 O441 1.246 . S
C445 O442 1.259 . S
C446 O443 1.252 . S
C446 O444 1.273 . S
O447 Mg434 2.010 . S
O447 C439 1.249 . S
Mg448 O449 2.028 . S
Mg448 O455 1.986 . S
Mg448 O457 2.114 . S
Mg448 O458 2.251 . S
Mg448 O461 2.010 . S
O449 Mg448 2.028 . S
O449 C452 1.250 . S
O450 Mg451 2.028 . S
O450 C452 1.248 . S
Mg451 O450 2.028 . S
Mg451 O456 2.032 . S
Mg451 O458 2.079 . S
C452 O449 1.250 . S
C452 O450 1.248 . S
C453 O454 1.264 . S
C453 O461 1.249 . S
O454 C453 1.264 . S
O455 Mg448 1.986 . S
O455 C459 1.246 . S
O456 Mg451 2.032 . S
O456 C459 1.259 . S
O457 Mg448 2.114 . S
O457 C460 1.252 . S
O458 Mg448 2.251 . S
O458 Mg451 2.079 . S
O458 C460 1.273 . S
C459 O455 1.246 . S
C459 O456 1.259 . S
C460 O457 1.252 . S
C460 O458 1.273 . S
O461 Mg448 2.010 . S
O461 C453 1.249 . S
Mg462 O463 2.028 . S
Mg462 O469 1.986 . S
Mg462 O471 2.114 . S
Mg462 O472 2.251 . S
Mg462 O475 2.010 . S
O463 Mg462 2.028 . S
O463 C466 1.250 . S
O464 Mg465 2.028 . S
O464 C466 1.248 . S
Mg465 O464 2.028 . S
Mg465 O470 2.032 . S
Mg465 O472 2.079 . S
C466 O463 1.250 . S
C466 O464 1.248 . S
C467 O468 1.264 . S
C467 O475 1.249 . S
O468 C467 1.264 . S
O469 Mg462 1.986 . S
O469 C473 1.246 . S
O470 Mg465 2.032 . S
O470 C473 1.259 . S
O471 Mg462 2.114 . S
O471 C474 1.252 . S
O472 Mg462 2.251 . S
O472 Mg465 2.079 . S
O472 C474 1.273 . S
C473 O469 1.246 . S
C473 O470 1.259 . S
C474 O471 1.252 . S
C474 O472 1.273 . S
O475 Mg462 2.010 . S
O475 C467 1.249 . S
Mg476 O477 2.028 . S
Mg476 O483 1.986 . S
Mg476 O485 2.114 . S
Mg476 O486 2.251 . S
Mg476 O489 2.010 . S
O477 Mg476 2.028 . S
O477 C480 1.250 . S
O478 Mg479 2.028 . S
O478 C480 1.248 . S
Mg479 O478 2.028 . S
Mg479 O484 2.032 . S
Mg479 O486 2.079 . S
C480 O477 1.250 . S
C480 O478 1.248 . S
C481 O482 1.264 . S
C481 O489 1.249 . S
O482 C481 1.264 . S
O483 Mg476 1.986 . S
O483 C487 1.246 . S
O484 Mg479 2.032 . S
O484 C487 1.259 . S
O485 Mg476 2.114 . S
O485 C488 1.252 . S
O486 Mg476 2.251 . S
O486 Mg479 2.079 . S
O486 C488 1.273 . S
C487 O483 1.246 . S
C487 O484 1.259 . S
C488 O485 1.252 . S
C488 O486 1.273 . S
O489 Mg476 2.010 . S
O489 C481 1.249 . S
Mg490 O491 2.028 . S
Mg490 O497 1.986 . S
Mg490 O499 2.114 . S
Mg490 O500 2.251 . S
Mg490 O503 2.010 . S
O491 Mg490 2.028 . S
O491 C494 1.250 . S
O492 Mg493 2.028 . S
O492 C494 1.248 . S
Mg493 O492 2.028 . S
Mg493 O498 2.032 . S
Mg493 O500 2.079 . S
C494 O491 1.250 . S
C494 O492 1.248 . S
C495 O496 1.264 . S
C495 O503 1.249 . S
O496 C495 1.264 . S
O497 Mg490 1.986 . S
O497 C501 1.246 . S
O498 Mg493 2.032 . S
O498 C501 1.259 . S
O499 Mg490 2.114 . S
O499 C502 1.252 . S
O500 Mg490 2.251 . S
O500 Mg493 2.079 . S
O500 C502 1.273 . S
C501 O497 1.246 . S
C501 O498 1.259 . S
C502 O499 1.252 . S
C502 O500 1.273 . S
O503 Mg490 2.010 . S
O503 C495 1.249 . S
Mg504 O505 2.028 . S
Mg504 O511 1.986 . S
Mg504 O513 2.114 . S
Mg504 O514 2.251 . S
Mg504 O517 2.010 . S
O505 Mg504 2.028 . S
O505 C508 1.250 . S
O506 Mg507 2.028 . S
O506 C508 1.248 . S
Mg507 O506 2.028 . S
Mg507 O512 2.032 . S
Mg507 O514 2.079 . S
C508 O505 1.250 . S
C508 O506 1.248 . S
C509 O510 1.264 . S
C509 O517 1.249 . S
O510 C509 1.264 . S
O511 Mg504 1.986 . S
O511 C515 1.246 . S
O512 Mg507 2.032 . S
O512 C515 1.259 . S
O513 Mg504 2.114 . S
O513 C516 1.252 . S
O514 Mg504 2.251 . S
O514 Mg507 2.079 . S
O514 C516 1.273 . S
C515 O511 1.246 . S
C515 O512 1.259 . S
C516 O513 1.252 . S
C516 O514 1.273 . S
O517 Mg504 2.010 . S
O517 C509 1.249 . S
Mg518 O519 2.028 . S
Mg518 O525 1.986 . S
Mg518 O527 2.114 . S
Mg518 O528 2.251 . S
Mg518 O531 2.010 . S
O519 Mg518 2.028 . S
O519 C522 1.250 . S
O520 Mg521 2.028 . S
O520 C522 1.248 . S
Mg521 O520 2.028 . S
Mg521 O526 2.032 . S
Mg521 O528 2.079 . S
C522 O519 1.250 . S
C522 O520 1.248 . S
C523 O524 1.264 . S
C523 O531 1.249 . S
O524 C523 1.264 . S
O525 Mg518 1.986 . S
O525 C529 1.246 . S
O526 Mg521 2.032 . S
O526 C529 1.259 . S
O527 Mg518 2.114 . S
O527 C530 1.252 . S
O528 Mg518 2.251 . S
O528 Mg521 2.079 . S
O528 C530 1.273 . S
C529 O525 1.246 . S
C529 O526 1.259 . S
C530 O527 1.252 . S
C530 O528 1.273 . S
O531 Mg518 2.010 . S
O531 C523 1.249 . S
Mg532 O533 2.028 . S
Mg532 O539 1.986 . S
Mg532 O541 2.114 . S
Mg532 O542 2.251 . S
Mg532 O545 2.010 . S
O533 Mg532 2.028 . S
O533 C536 1.250 . S
O534 Mg535 2.028 . S
O534 C536 1.248 . S
Mg535 O534 2.028 . S
Mg535 O540 2.032 . S
Mg535 O542 2.079 . S
C536 O533 1.250 . S
C536 O534 1.248 . S
C537 O538 1.264 . S
C537 O545 1.249 . S
O538 C537 1.264 . S
O539 Mg532 1.986 . S
O539 C543 1.246 . S
O540 Mg535 2.032 . S
O540 C543 1.259 . S
O541 Mg532 2.114 . S
O541 C544 1.252 . S
O542 Mg532 2.251 . S
O542 Mg535 2.079 . S
O542 C544 1.273 . S
C543 O539 1.246 . S
C543 O540 1.259 . S
C544 O541 1.252 . S
C544 O542 1.273 . S
O545 Mg532 2.010 . S
O545 C537 1.249 . S
Mg546 O547 2.028 . S
Mg546 O553 1.986 . S
Mg546 O555 2.114 . S
Mg546 O556 2.251 . S
Mg546 O559 2.010 . S
O547 Mg546 2.028 . S
O547 C550 1.250 . S
O548 Mg549 2.028 . S
O548 C550 1.248 . S
Mg549 O548 2.028 . S
Mg549 O554 2.032 . S
Mg549 O556 2.079 . S
C550 O547 1.250 . S
C550 O548 1.248 . S
C551 O552 1.264 . S
C551 O559 1.249 . S
O552 C551 1.264 . S
O553 Mg546 1.986 . S
O553 C557 1.246 . S
O554 Mg549 2.032 . S
O554 C557 1.259 . S
O555 Mg546 2.114 . S
O555 C558 1.252 . S
O556 Mg546 2.251 . S
O556 Mg549 2.079 . S
O556 C558 1.273 . S
C557 O553 1.246 . S
C557 O554 1.259 . S
C558 O555 1.252 . S
C558 O556 1.273 . S
O559 Mg546 2.010 . S
O559 C551 1.249 . S
Mg560 O561 2.028 . S
Mg560 O567 1.986 . S
Mg560 O569 2.114 . S
Mg560 O570 2.251 . S
Mg560 O573 2.010 . S
O561 Mg560 2.028 . S
O561 C564 1.250 . S
O562 Mg563 2.028 . S
O562 C564 1.248 . S
Mg563 O562 2.028 . S
Mg563 O568 2.032 . S
Mg563 O570 2.079 . S
C564 O561 1.250 . S
C564 O562 1.248 . S
C565 O566 1.264 . S
C565 O573 1.249 . S
O566 C565 1.264 . S
O567 Mg560 1.986 . S
O567 C571 1.246 . S
O568 Mg563 2.032 . S
O568 C571 1.259 . S
O569 Mg560 2.114 . S
O569 C572 1.252 . S
O570 Mg560 2.251 . S
O570 Mg563 2.079 . S
O570 C572 1.273 . S
C571 O567 1.246 . S
C571 O568 1.259 . S
C572 O569 1.252 . S
C572 O570 1.273 . S
O573 Mg560 2.010 . S
O573 C565 1.249 . S
Mg574 O575 2.028 . S
Mg574 O581 1.986 . S
Mg574 O583 2.114 . S
Mg574 O584 2.251 . S
Mg574 O587 2.010 . S
O575 Mg574 2.028 . S
O575 C578 1.250 . S
O576 Mg577 2.028 . S
O576 C578 1.248 . S
Mg577 O576 2.028 . S
Mg577 O582 2.032 . S
Mg577 O584 2.079 . S
C578 O575 1.250 . S
C578 O576 1.248 . S
C579 O580 1.264 . S
C579 O587 1.249 . S
O580 C579 1.264 . S
O581 Mg574 1.986 . S
O581 C585 1.246 . S
O582 Mg577 2.032 . S
O582 C585 1.259 . S
O583 Mg574 2.114 . S
O583 C586 1.252 . S
O584 Mg574 2.251 . S
O584 Mg577 2.079 . S
O584 C586 1.273 . S
C585 O581 1.246 . S
C585 O582 1.259 . S
C586 O583 1.252 . S
C586 O584 1.273 . S
O587 Mg574 2.010 . S
O587 C579 1.249 . S
Mg588 O589 2.028 . S
Mg588 O595 1.986 . S
Mg588 O597 2.114 . S
Mg588 O598 2.251 . S
Mg588 O601 2.010 . S
O589 Mg588 2.028 . S
O589 C592 1.250 . S
O590 Mg591 2.028 . S
O590 C592 1.248 . S
Mg591 O590 2.028 . S
Mg591 O596 2.032 . S
Mg591 O598 2.079 . S
C592 O589 1.250 . S
C592 O590 1.248 . S
C593 O594 1.264 . S
C593 O601 1.249 . S
O594 C593 1.264 . S
O595 Mg588 1.986 . S
O595 C599 1.246 . S
O596 Mg591 2.032 . S
O596 C599 1.259 . S
O597 Mg588 2.114 . S
O597 C600 1.252 . S
O598 Mg588 2.251 . S
O598 Mg591 2.079 . S
O598 C600 1.273 . S
C599 O595 1.246 . S
C599 O596 1.259 . S
C600 O597 1.252 . S
C600 O598 1.273 . S
O601 Mg588 2.010 . S
O601 C593 1.249 . S
Mg602 O603 2.028 . S
Mg602 O609 1.986 . S
Mg602 O611 2.114 . S
Mg602 O612 2.251 . S
Mg602 O615 2.010 . S
O603 Mg602 2.028 . S
O603 C606 1.250 . S
O604 Mg605 2.028 . S
O604 C606 1.248 . S
Mg605 O604 2.028 . S
Mg605 O610 2.032 . S
Mg605 O612 2.079 . S
C606 O603 1.250 . S
C606 O604 1.248 . S
C607 O608 1.264 . S
C607 O615 1.249 . S
O608 C607 1.264 . S
O609 Mg602 1.986 . S
O609 C613 1.246 . S
O610 Mg605 2.032 . S
O610 C613 1.259 . S
O611 Mg602 2.114 . S
O611 C614 1.252 . S
O612 Mg602 2.251 . S
O612 Mg605 2.079 . S
O612 C614 1.273 . S
C613 O609 1.246 . S
C613 O610 1.259 . S
C614 O611 1.252 . S
C614 O612 1.273 . S
O615 Mg602 2.010 . S
O615 C607 1.249 . S
Mg616 O617 2.028 . S
Mg616 O623 1.986 . S
Mg616 O625 2.114 . S
Mg616 O626 2.251 . S
Mg616 O629 2.010 . S
O617 Mg616 2.028 . S
O617 C620 1.250 . S
O618 Mg619 2.028 . S
O618 C620 1.248 . S
Mg619 O618 2.028 . S
Mg619 O624 2.032 . S
Mg619 O626 2.079 . S
C620 O617 1.250 . S
C620 O618 1.248 . S
C621 O622 1.264 . S
C621 O629 1.249 . S
O622 C621 1.264 . S
O623 Mg616 1.986 . S
O623 C627 1.246 . S
O624 Mg619 2.032 . S
O624 C627 1.259 . S
O625 Mg616 2.114 . S
O625 C628 1.252 . S
O626 Mg616 2.251 . S
O626 Mg619 2.079 . S
O626 C628 1.273 . S
C627 O623 1.246 . S
C627 O624 1.259 . S
C628 O625 1.252 . S
C628 O626 1.273 . S
O629 Mg616 2.010 . S
O629 C621 1.249 . S
Mg630 O631 2.028 . S
Mg630 O637 1.986 . S
Mg630 O639 2.114 . S
Mg630 O640 2.251 . S
Mg630 O643 2.010 . S
O631 Mg630 2.028 . S
O631 C634 1.250 . S
O632 Mg633 2.028 . S
O632 C634 1.248 . S
Mg633 O632 2.028 . S
Mg633 O638 2.032 . S
Mg633 O640 2.079 . S
C634 O631 1.250 . S
C634 O632 1.248 . S
C635 O636 1.264 . S
C635 O643 1.249 . S
O636 C635 1.264 . S
O637 Mg630 1.986 . S
O637 C641 1.246 . S
O638 Mg633 2.032 . S
O638 C641 1.259 . S
O639 Mg630 2.114 . S
O639 C642 1.252 . S
O640 Mg630 2.251 . S
O640 Mg633 2.079 . S
O640 C642 1.273 . S
C641 O637 1.246 . S
C641 O638 1.259 . S
C642 O639 1.252 . S
C642 O640 1.273 . S
O643 Mg630 2.010 . S
O643 C635 1.249 . S
Mg644 O645 2.028 . S
Mg644 O651 1.986 . S
Mg644 O653 2.114 . S
Mg644 O654 2.251 . S
Mg644 O657 2.010 . S
O645 Mg644 2.028 . S
O645 C648 1.250 . S
O646 Mg647 2.028 . S
O646 C648 1.248 . S
Mg647 O646 2.028 . S
Mg647 O652 2.032 . S
Mg647 O654 2.079 . S
C648 O645 1.250 . S
C648 O646 1.248 . S
C649 O650 1.264 . S
C649 O657 1.249 . S
O650 C649 1.264 . S
O651 Mg644 1.986 . S
O651 C655 1.246 . S
O652 Mg647 2.032 . S
O652 C655 1.259 . S
O653 Mg644 2.114 . S
O653 C656 1.252 . S
O654 Mg644 2.251 . S
O654 Mg647 2.079 . S
O654 C656 1.273 . S
C655 O651 1.246 . S
C655 O652 1.259 . S
C656 O653 1.252 . S
C656 O654 1.273 . S
O657 Mg644 2.010 . S
O657 C649 1.249 . S
Mg658 O659 2.028 . S
Mg658 O665 1.986 . S
Mg658 O667 2.114 . S
Mg658 O668 2.251 . S
Mg658 O671 2.010 . S
O659 Mg658 2.028 . S
O659 C662 1.250 . S
O660 Mg661 2.028 . S
O660 C662 1.248 . S
Mg661 O660 2.028 . S
Mg661 O666 2.032 . S
Mg661 O668 2.079 . S
C662 O659 1.250 . S
C662 O660 1.248 . S
C663 O664 1.264 . S
C663 O671 1.249 . S
O664 C663 1.264 . S
O665 Mg658 1.986 . S
O665 C669 1.246 . S
O666 Mg661 2.032 . S
O666 C669 1.259 . S
O667 Mg658 2.114 . S
O667 C670 1.252 . S
O668 Mg658 2.251 . S
O668 Mg661 2.079 . S
O668 C670 1.273 . S
C669 O665 1.246 . S
C669 O666 1.259 . S
C670 O667 1.252 . S
C670 O668 1.273 . S
O671 Mg658 2.010 . S
O671 C663 1.249 . S
H672 C680 0.950 . S
H673 C685 0.950 . S
H674 C682 0.950 . S
H675 C684 0.950 . S
H676 C686 0.950 . S
H677 C688 0.950 . S
H678 C690 0.950 . S
H679 C691 0.950 . S
C680 H672 0.950 . S
C680 C681 1.386 . S
C680 C682 1.391 . S
C681 C680 1.386 . S
C681 C685 1.393 . S
C682 H674 0.950 . S
C682 C680 1.391 . S
C682 C683 1.400 . S
C683 C682 1.400 . S
C683 C684 1.398 . S
C683 C689 1.491 1_655 S
C684 H675 0.950 . S
C684 C683 1.398 . S
C684 C685 1.391 . S
C685 H673 0.950 . S
C685 C681 1.393 . S
C685 C684 1.391 . S
C686 H676 0.950 . S
C686 C687 1.386 . S
C686 C688 1.391 . S
C687 C686 1.386 . S
C687 C691 1.393 . S
C688 H677 0.950 . S
C688 C686 1.391 . S
C688 C689 1.400 . S
C689 C683 1.491 1_455 S
C689 C688 1.400 . S
C689 C690 1.398 . S
C690 H678 0.950 . S
C690 C689 1.398 . S
C690 C691 1.391 . S
C691 H679 0.950 . S
C691 C687 1.393 . S
C691 C690 1.391 . S
H692 C700 0.950 . S
H693 C705 0.950 . S
H694 C702 0.950 . S
H695 C704 0.950 . S
H696 C706 0.950 . S
H697 C708 0.950 . S
H698 C710 0.950 . S
H699 C711 0.950 . S
C700 H692 0.950 . S
C700 C701 1.386 . S
C700 C702 1.391 . S
C701 C700 1.386 . S
C701 C705 1.393 . S
C702 H694 0.950 . S
C702 C700 1.391 . S
C702 C703 1.400 . S
C703 C702 1.400 . S
C703 C704 1.398 . S
C703 C709 1.491 . S
C704 H695 0.950 . S
C704 C703 1.398 . S
C704 C705 1.391 . S
C705 H693 0.950 . S
C705 C701 1.393 . S
C705 C704 1.391 . S
C706 H696 0.950 . S
C706 C707 1.386 . S
C706 C708 1.391 . S
C707 C706 1.386 . S
C707 C711 1.393 . S
C708 H697 0.950 . S
C708 C706 1.391 . S
C708 C709 1.400 . S
C709 C703 1.491 . S
C709 C708 1.400 . S
C709 C710 1.398 . S
C710 H698 0.950 . S
C710 C709 1.398 . S
C710 C711 1.391 . S
C711 H699 0.950 . S
C711 C707 1.393 . S
C711 C710 1.391 . S
H712 C720 0.950 . S
H713 C725 0.950 . S
H714 C722 0.950 . S
H715 C724 0.950 . S
H716 C726 0.950 . S
H717 C728 0.950 . S
H718 C730 0.950 . S
H719 C731 0.950 . S
C720 H712 0.950 . S
C720 C721 1.386 . S
C720 C722 1.391 . S
C721 C720 1.386 . S
C721 C725 1.393 . S
C722 H714 0.950 . S
C722 C720 1.391 . S
C722 C723 1.400 . S
C723 C722 1.400 . S
C723 C724 1.398 . S
C723 C729 1.491 1_455 S
C724 H715 0.950 . S
C724 C723 1.398 . S
C724 C725 1.391 . S
C725 H713 0.950 . S
C725 C721 1.393 . S
C725 C724 1.391 . S
C726 H716 0.950 . S
C726 C727 1.386 . S
C726 C728 1.391 . S
C727 C726 1.386 . S
C727 C731 1.393 . S
C728 H717 0.950 . S
C728 C726 1.391 . S
C728 C729 1.400 . S
C729 C723 1.491 1_655 S
C729 C728 1.400 . S
C729 C730 1.398 . S
C730 H718 0.950 . S
C730 C729 1.398 . S
C730 C731 1.391 . S
C731 H719 0.950 . S
C731 C727 1.393 . S
C731 C730 1.391 . S
H732 C740 0.950 . S
H733 C745 0.950 . S
H734 C742 0.950 . S
H735 C744 0.950 . S
H736 C746 0.950 . S
H737 C748 0.950 . S
H738 C750 0.950 . S
H739 C751 0.950 . S
C740 H732 0.950 . S
C740 C741 1.386 . S
C740 C742 1.391 . S
C741 C740 1.386 . S
C741 C745 1.393 . S
C742 H734 0.950 . S
C742 C740 1.391 . S
C742 C743 1.400 . S
C743 C742 1.400 . S
C743 C744 1.398 . S
C743 C749 1.491 . S
C744 H735 0.950 . S
C744 C743 1.398 . S
C744 C745 1.391 . S
C745 H733 0.950 . S
C745 C741 1.393 . S
C745 C744 1.391 . S
C746 H736 0.950 . S
C746 C747 1.386 . S
C746 C748 1.391 . S
C747 C746 1.386 . S
C747 C751 1.393 . S
C748 H737 0.950 . S
C748 C746 1.391 . S
C748 C749 1.400 . S
C749 C743 1.491 . S
C749 C748 1.400 . S
C749 C750 1.398 . S
C750 H738 0.950 . S
C750 C749 1.398 . S
C750 C751 1.391 . S
C751 H739 0.950 . S
C751 C747 1.393 . S
C751 C750 1.391 . S
H752 C760 0.950 . S
H753 C765 0.950 . S
H754 C762 0.950 . S
H755 C764 0.950 . S
H756 C766 0.950 . S
H757 C768 0.950 . S
H758 C770 0.950 . S
H759 C771 0.950 . S
C760 H752 0.950 . S
C760 C761 1.386 . S
C760 C762 1.391 . S
C761 C760 1.386 . S
C761 C765 1.393 . S
C762 H754 0.950 . S
C762 C760 1.391 . S
C762 C763 1.400 . S
C763 C762 1.400 . S
C763 C764 1.398 . S
C763 C769 1.491 1_655 S
C764 H755 0.950 . S
C764 C763 1.398 . S
C764 C765 1.391 . S
C765 H753 0.950 . S
C765 C761 1.393 . S
C765 C764 1.391 . S
C766 H756 0.950 . S
C766 C767 1.386 . S
C766 C768 1.391 . S
C767 C766 1.386 . S
C767 C771 1.393 . S
C768 H757 0.950 . S
C768 C766 1.391 . S
C768 C769 1.400 . S
C769 C763 1.491 1_455 S
C769 C768 1.400 . S
C769 C770 1.398 . S
C770 H758 0.950 . S
C770 C769 1.398 . S
C770 C771 1.391 . S
C771 H759 0.950 . S
C771 C767 1.393 . S
C771 C770 1.391 . S
H772 C780 0.950 . S
H773 C785 0.950 . S
H774 C782 0.950 . S
H775 C784 0.950 . S
H776 C786 0.950 . S
H777 C788 0.950 . S
H778 C790 0.950 . S
H779 C791 0.950 . S
C780 H772 0.950 . S
C780 C781 1.386 . S
C780 C782 1.391 . S
C781 C780 1.386 . S
C781 C785 1.393 . S
C782 H774 0.950 . S
C782 C780 1.391 . S
C782 C783 1.400 . S
C783 C782 1.400 . S
C783 C784 1.398 . S
C783 C789 1.491 . S
C784 H775 0.950 . S
C784 C783 1.398 . S
C784 C785 1.391 . S
C785 H773 0.950 . S
C785 C781 1.393 . S
C785 C784 1.391 . S
C786 H776 0.950 . S
C786 C787 1.386 . S
C786 C788 1.391 . S
C787 C786 1.386 . S
C787 C791 1.393 . S
C788 H777 0.950 . S
C788 C786 1.391 . S
C788 C789 1.400 . S
C789 C783 1.491 . S
C789 C788 1.400 . S
C789 C790 1.398 . S
C790 H778 0.950 . S
C790 C789 1.398 . S
C790 C791 1.391 . S
C791 H779 0.950 . S
C791 C787 1.393 . S
C791 C790 1.391 . S
H792 C800 0.950 . S
H793 C805 0.950 . S
H794 C802 0.950 . S
H795 C804 0.950 . S
H796 C806 0.950 . S
H797 C808 0.950 . S
H798 C810 0.950 . S
H799 C811 0.950 . S
C800 H792 0.950 . S
C800 C801 1.386 . S
C800 C802 1.391 . S
C801 C800 1.386 . S
C801 C805 1.393 . S
C802 H794 0.950 . S
C802 C800 1.391 . S
C802 C803 1.400 . S
C803 C802 1.400 . S
C803 C804 1.398 . S
C803 C809 1.491 1_455 S
C804 H795 0.950 . S
C804 C803 1.398 . S
C804 C805 1.391 . S
C805 H793 0.950 . S
C805 C801 1.393 . S
C805 C804 1.391 . S
C806 H796 0.950 . S
C806 C807 1.386 . S
C806 C808 1.391 . S
C807 C806 1.386 . S
C807 C811 1.393 . S
C808 H797 0.950 . S
C808 C806 1.391 . S
C808 C809 1.400 . S
C809 C803 1.491 1_655 S
C809 C808 1.400 . S
C809 C810 1.398 . S
C810 H798 0.950 . S
C810 C809 1.398 . S
C810 C811 1.391 . S
C811 H799 0.950 . S
C811 C807 1.393 . S
C811 C810 1.391 . S
H812 C820 0.950 . S
H813 C825 0.950 . S
H814 C822 0.950 . S
H815 C824 0.950 . S
H816 C826 0.950 . S
H817 C828 0.950 . S
H818 C830 0.950 . S
H819 C831 0.950 . S
C820 H812 0.950 . S
C820 C821 1.386 . S
C820 C822 1.391 . S
C821 C820 1.386 . S
C821 C825 1.393 . S
C822 H814 0.950 . S
C822 C820 1.391 . S
C822 C823 1.400 . S
C823 C822 1.400 . S
C823 C824 1.398 . S
C823 C829 1.491 . S
C824 H815 0.950 . S
C824 C823 1.398 . S
C824 C825 1.391 . S
C825 H813 0.950 . S
C825 C821 1.393 . S
C825 C824 1.391 . S
C826 H816 0.950 . S
C826 C827 1.386 . S
C826 C828 1.391 . S
C827 C826 1.386 . S
C827 C831 1.393 . S
C828 H817 0.950 . S
C828 C826 1.391 . S
C828 C829 1.400 . S
C829 C823 1.491 . S
C829 C828 1.400 . S
C829 C830 1.398 . S
C830 H818 0.950 . S
C830 C829 1.398 . S
C830 C831 1.391 . S
C831 H819 0.950 . S
C831 C827 1.393 . S
C831 C830 1.391 . S
H832 C840 0.950 . S
H833 C845 0.950 . S
H834 C842 0.950 . S
H835 C844 0.950 . S
H836 C846 0.950 . S
H837 C848 0.950 . S
H838 C850 0.950 . S
H839 C851 0.950 . S
C840 H832 0.950 . S
C840 C841 1.386 . S
C840 C842 1.391 . S
C841 C840 1.386 . S
C841 C845 1.393 . S
C842 H834 0.950 . S
C842 C840 1.391 . S
C842 C843 1.400 . S
C843 C842 1.400 . S
C843 C844 1.398 . S
C843 C849 1.491 1_565 S
C844 H835 0.950 . S
C844 C843 1.398 . S
C844 C845 1.391 . S
C845 H833 0.950 . S
C845 C841 1.393 . S
C845 C844 1.391 . S
C846 H836 0.950 . S
C846 C847 1.386 . S
C846 C848 1.391 . S
C847 C846 1.386 . S
C847 C851 1.393 . S
C848 H837 0.950 . S
C848 C846 1.391 . S
C848 C849 1.400 . S
C849 C843 1.491 1_545 S
C849 C848 1.400 . S
C849 C850 1.398 . S
C850 H838 0.950 . S
C850 C849 1.398 . S
C850 C851 1.391 . S
C851 H839 0.950 . S
C851 C847 1.393 . S
C851 C850 1.391 . S
H852 C860 0.950 . S
H853 C865 0.950 . S
H854 C862 0.950 . S
H855 C864 0.950 . S
H856 C866 0.950 . S
H857 C868 0.950 . S
H858 C870 0.950 . S
H859 C871 0.950 . S
C860 H852 0.950 . S
C860 C861 1.386 . S
C860 C862 1.391 . S
C861 C860 1.386 . S
C861 C865 1.393 . S
C862 H854 0.950 . S
C862 C860 1.391 . S
C862 C863 1.400 . S
C863 C862 1.400 . S
C863 C864 1.398 . S
C863 C869 1.491 . S
C864 H855 0.950 . S
C864 C863 1.398 . S
C864 C865 1.391 . S
C865 H853 0.950 . S
C865 C861 1.393 . S
C865 C864 1.391 . S
C866 H856 0.950 . S
C866 C867 1.386 . S
C866 C868 1.391 . S
C867 C866 1.386 . S
C867 C871 1.393 . S
C868 H857 0.950 . S
C868 C866 1.391 . S
C868 C869 1.400 . S
C869 C863 1.491 . S
C869 C868 1.400 . S
C869 C870 1.398 . S
C870 H858 0.950 . S
C870 C869 1.398 . S
C870 C871 1.391 . S
C871 H859 0.950 . S
C871 C867 1.393 . S
C871 C870 1.391 . S
H872 C880 0.950 . S
H873 C885 0.950 . S
H874 C882 0.950 . S
H875 C884 0.950 . S
H876 C886 0.950 . S
H877 C888 0.950 . S
H878 C890 0.950 . S
H879 C891 0.950 . S
C880 H872 0.950 . S
C880 C881 1.386 . S
C880 C882 1.391 . S
C881 C880 1.386 . S
C881 C885 1.393 . S
C882 H874 0.950 . S
C882 C880 1.391 . S
C882 C883 1.400 . S
C883 C882 1.400 . S
C883 C884 1.398 . S
C883 C889 1.491 1_545 S
C884 H875 0.950 . S
C884 C883 1.398 . S
C884 C885 1.391 . S
C885 H873 0.950 . S
C885 C881 1.393 . S
C885 C884 1.391 . S
C886 H876 0.950 . S
C886 C887 1.386 . S
C886 C888 1.391 . S
C887 C886 1.386 . S
C887 C891 1.393 . S
C888 H877 0.950 . S
C888 C886 1.391 . S
C888 C889 1.400 . S
C889 C883 1.491 1_565 S
C889 C888 1.400 . S
C889 C890 1.398 . S
C890 H878 0.950 . S
C890 C889 1.398 . S
C890 C891 1.391 . S
C891 H879 0.950 . S
C891 C887 1.393 . S
C891 C890 1.391 . S
H892 C900 0.950 . S
H893 C905 0.950 . S
H894 C902 0.950 . S
H895 C904 0.950 . S
H896 C906 0.950 . S
H897 C908 0.950 . S
H898 C910 0.950 . S
H899 C911 0.950 . S
C900 H892 0.950 . S
C900 C901 1.386 . S
C900 C902 1.391 . S
C901 C900 1.386 . S
C901 C905 1.393 . S
C902 H894 0.950 . S
C902 C900 1.391 . S
C902 C903 1.400 . S
C903 C902 1.400 . S
C903 C904 1.398 . S
C903 C909 1.491 . S
C904 H895 0.950 . S
C904 C903 1.398 . S
C904 C905 1.391 . S
C905 H893 0.950 . S
C905 C901 1.393 . S
C905 C904 1.391 . S
C906 H896 0.950 . S
C906 C907 1.386 . S
C906 C908 1.391 . S
C907 C906 1.386 . S
C907 C911 1.393 . S
C908 H897 0.950 . S
C908 C906 1.391 . S
C908 C909 1.400 . S
C909 C903 1.491 . S
C909 C908 1.400 . S
C909 C910 1.398 . S
C910 H898 0.950 . S
C910 C909 1.398 . S
C910 C911 1.391 . S
C911 H899 0.950 . S
C911 C907 1.393 . S
C911 C910 1.391 . S
H912 C920 0.950 . S
H913 C925 0.950 . S
H914 C922 0.950 . S
H915 C924 0.950 . S
H916 C926 0.950 . S
H917 C928 0.950 . S
H918 C930 0.950 . S
H919 C931 0.950 . S
C920 H912 0.950 . S
C920 C921 1.386 . S
C920 C922 1.391 . S
C921 C920 1.386 . S
C921 C925 1.393 . S
C922 H914 0.950 . S
C922 C920 1.391 . S
C922 C923 1.400 . S
C923 C922 1.400 . S
C923 C924 1.398 . S
C923 C929 1.491 1_545 S
C924 H915 0.950 . S
C924 C923 1.398 . S
C924 C925 1.391 . S
C925 H913 0.950 . S
C925 C921 1.393 . S
C925 C924 1.391 . S
C926 H916 0.950 . S
C926 C927 1.386 . S
C926 C928 1.391 . S
C927 C926 1.386 . S
C927 C931 1.393 . S
C928 H917 0.950 . S
C928 C926 1.391 . S
C928 C929 1.400 . S
C929 C923 1.491 1_565 S
C929 C928 1.400 . S
C929 C930 1.398 . S
C930 H918 0.950 . S
C930 C929 1.398 . S
C930 C931 1.391 . S
C931 H919 0.950 . S
C931 C927 1.393 . S
C931 C930 1.391 . S
H932 C940 0.950 . S
H933 C945 0.950 . S
H934 C942 0.950 . S
H935 C944 0.950 . S
H936 C946 0.950 . S
H937 C948 0.950 . S
H938 C950 0.950 . S
H939 C951 0.950 . S
C940 H932 0.950 . S
C940 C941 1.386 . S
C940 C942 1.391 . S
C941 C940 1.386 . S
C941 C945 1.393 . S
C942 H934 0.950 . S
C942 C940 1.391 . S
C942 C943 1.400 . S
C943 C942 1.400 . S
C943 C944 1.398 . S
C943 C949 1.491 . S
C944 H935 0.950 . S
C944 C943 1.398 . S
C944 C945 1.391 . S
C945 H933 0.950 . S
C945 C941 1.393 . S
C945 C944 1.391 . S
C946 H936 0.950 . S
C946 C947 1.386 . S
C946 C948 1.391 . S
C947 C946 1.386 . S
C947 C951 1.393 . S
C948 H937 0.950 . S
C948 C946 1.391 . S
C948 C949 1.400 . S
C949 C943 1.491 . S
C949 C948 1.400 . S
C949 C950 1.398 . S
C950 H938 0.950 . S
C950 C949 1.398 . S
C950 C951 1.391 . S
C951 H939 0.950 . S
C951 C947 1.393 . S
C951 C950 1.391 . S
H952 C960 0.950 . S
H953 C965 0.950 . S
H954 C962 0.950 . S
H955 C964 0.950 . S
H956 C966 0.950 . S
H957 C968 0.950 . S
H958 C970 0.950 . S
H959 C971 0.950 . S
C960 H952 0.950 . S
C960 C961 1.386 . S
C960 C962 1.391 . S
C961 C960 1.386 . S
C961 C965 1.393 . S
C962 H954 0.950 . S
C962 C960 1.391 . S
C962 C963 1.400 . S
C963 C962 1.400 . S
C963 C964 1.398 . S
C963 C969 1.491 1_545 S
C964 H955 0.950 . S
C964 C963 1.398 . S
C964 C965 1.391 . S
C965 H953 0.950 . S
C965 C961 1.393 . S
C965 C964 1.391 . S
C966 H956 0.950 . S
C966 C967 1.386 . S
C966 C968 1.391 . S
C967 C966 1.386 . S
C967 C971 1.393 . S
C968 H957 0.950 . S
C968 C966 1.391 . S
C968 C969 1.400 . S
C969 C963 1.491 1_565 S
C969 C968 1.400 . S
C969 C970 1.398 . S
C970 H958 0.950 . S
C970 C969 1.398 . S
C970 C971 1.391 . S
C971 H959 0.950 . S
C971 C967 1.393 . S
C971 C970 1.391 . S
H972 C980 0.950 . S
H973 C985 0.950 . S
H974 C982 0.950 . S
H975 C984 0.950 . S
H976 C986 0.950 . S
H977 C988 0.950 . S
H978 C990 0.950 . S
H979 C991 0.950 . S
C980 H972 0.950 . S
C980 C981 1.386 . S
C980 C982 1.391 . S
C981 C980 1.386 . S
C981 C985 1.393 . S
C982 H974 0.950 . S
C982 C980 1.391 . S
C982 C983 1.400 . S
C983 C982 1.400 . S
C983 C984 1.398 . S
C983 C989 1.491 . S
C984 H975 0.950 . S
C984 C983 1.398 . S
C984 C985 1.391 . S
C985 H973 0.950 . S
C985 C981 1.393 . S
C985 C984 1.391 . S
C986 H976 0.950 . S
C986 C987 1.386 . S
C986 C988 1.391 . S
C987 C986 1.386 . S
C987 C991 1.393 . S
C988 H977 0.950 . S
C988 C986 1.391 . S
C988 C989 1.400 . S
C989 C983 1.491 . S
C989 C988 1.400 . S
C989 C990 1.398 . S
C990 H978 0.950 . S
C990 C989 1.398 . S
C990 C991 1.391 . S
C991 H979 0.950 . S
C991 C987 1.393 . S
C991 C990 1.391 . S
H992 C1000 0.950 . S
H993 C1005 0.950 . S
H994 C1002 0.950 . S
H995 C1004 0.950 . S
H996 C1006 0.950 . S
H997 C1008 0.950 . S
H998 C1010 0.950 . S
H999 C1011 0.950 . S
C1000 H992 0.950 . S
C1000 C1001 1.386 . S
C1000 C1002 1.391 . S
C1001 C1000 1.386 . S
C1001 C1005 1.393 . S
C1002 H994 0.950 . S
C1002 C1000 1.391 . S
C1002 C1003 1.400 . S
C1003 C1002 1.400 . S
C1003 C1004 1.398 . S
C1003 C1009 1.491 1_554 S
C1004 H995 0.950 . S
C1004 C1003 1.398 . S
C1004 C1005 1.391 . S
C1005 H993 0.950 . S
C1005 C1001 1.393 . S
C1005 C1004 1.391 . S
C1006 H996 0.950 . S
C1006 C1007 1.386 . S
C1006 C1008 1.391 . S
C1007 C1006 1.386 . S
C1007 C1011 1.393 . S
C1008 H997 0.950 . S
C1008 C1006 1.391 . S
C1008 C1009 1.400 . S
C1009 C1003 1.491 1_556 S
C1009 C1008 1.400 . S
C1009 C1010 1.398 . S
C1010 H998 0.950 . S
C1010 C1009 1.398 . S
C1010 C1011 1.391 . S
C1011 H999 0.950 . S
C1011 C1007 1.393 . S
C1011 C1010 1.391 . S
H1012 C1020 0.950 . S
H1013 C1025 0.950 . S
H1014 C1022 0.950 . S
H1015 C1024 0.950 . S
H1016 C1026 0.950 . S
H1017 C1028 0.950 . S
H1018 C1030 0.950 . S
H1019 C1031 0.950 . S
C1020 H1012 0.950 . S
C1020 C1021 1.386 . S
C1020 C1022 1.391 . S
C1021 C1020 1.386 . S
C1021 C1025 1.393 . S
C1022 H1014 0.950 . S
C1022 C1020 1.391 . S
C1022 C1023 1.400 . S
C1023 C1022 1.400 . S
C1023 C1024 1.398 . S
C1023 C1029 1.491 1_554 S
C1024 H1015 0.950 . S
C1024 C1023 1.398 . S
C1024 C1025 1.391 . S
C1025 H1013 0.950 . S
C1025 C1021 1.393 . S
C1025 C1024 1.391 . S
C1026 H1016 0.950 . S
C1026 C1027 1.386 . S
C1026 C1028 1.391 . S
C1027 C1026 1.386 . S
C1027 C1031 1.393 . S
C1028 H1017 0.950 . S
C1028 C1026 1.391 . S
C1028 C1029 1.400 . S
C1029 C1023 1.491 1_556 S
C1029 C1028 1.400 . S
C1029 C1030 1.398 . S
C1030 H1018 0.950 . S
C1030 C1029 1.398 . S
C1030 C1031 1.391 . S
C1031 H1019 0.950 . S
C1031 C1027 1.393 . S
C1031 C1030 1.391 . S
H1032 C1040 0.950 . S
H1033 C1045 0.950 . S
H1034 C1042 0.950 . S
H1035 C1044 0.950 . S
H1036 C1046 0.950 . S
H1037 C1048 0.950 . S
H1038 C1050 0.950 . S
H1039 C1051 0.950 . S
C1040 H1032 0.950 . S
C1040 C1041 1.386 . S
C1040 C1042 1.391 . S
C1041 C1040 1.386 . S
C1041 C1045 1.393 . S
C1042 H1034 0.950 . S
C1042 C1040 1.391 . S
C1042 C1043 1.400 . S
C1043 C1042 1.400 . S
C1043 C1044 1.398 . S
C1043 C1049 1.491 . S
C1044 H1035 0.950 . S
C1044 C1043 1.398 . S
C1044 C1045 1.391 . S
C1045 H1033 0.950 . S
C1045 C1041 1.393 . S
C1045 C1044 1.391 . S
C1046 H1036 0.950 . S
C1046 C1047 1.386 . S
C1046 C1048 1.391 . S
C1047 C1046 1.386 . S
C1047 C1051 1.393 . S
C1048 H1037 0.950 . S
C1048 C1046 1.391 . S
C1048 C1049 1.400 . S
C1049 C1043 1.491 . S
C1049 C1048 1.400 . S
C1049 C1050 1.398 . S
C1050 H1038 0.950 . S
C1050 C1049 1.398 . S
C1050 C1051 1.391 . S
C1051 H1039 0.950 . S
C1051 C1047 1.393 . S
C1051 C1050 1.391 . S
H1052 C1060 0.950 . S
H1053 C1065 0.950 . S
H1054 C1062 0.950 . S
H1055 C1064 0.950 . S
H1056 C1066 0.950 . S
H1057 C1068 0.950 . S
H1058 C1070 0.950 . S
H1059 C1071 0.950 . S
C1060 H1052 0.950 . S
C1060 C1061 1.386 . S
C1060 C1062 1.391 . S
C1061 C1060 1.386 . S
C1061 C1065 1.393 . S
C1062 H1054 0.950 . S
C1062 C1060 1.391 . S
C1062 C1063 1.400 . S
C1063 C1062 1.400 . S
C1063 C1064 1.398 . S
C1063 C1069 1.491 1_554 S
C1064 H1055 0.950 . S
C1064 C1063 1.398 . S
C1064 C1065 1.391 . S
C1065 H1053 0.950 . S
C1065 C1061 1.393 . S
C1065 C1064 1.391 . S
C1066 H1056 0.950 . S
C1066 C1067 1.386 . S
C1066 C1068 1.391 . S
C1067 C1066 1.386 . S
C1067 C1071 1.393 . S
C1068 H1057 0.950 . S
C1068 C1066 1.391 . S
C1068 C1069 1.400 . S
C1069 C1063 1.491 1_556 S
C1069 C1068 1.400 . S
C1069 C1070 1.398 . S
C1070 H1058 0.950 . S
C1070 C1069 1.398 . S
C1070 C1071 1.391 . S
C1071 H1059 0.950 . S
C1071 C1067 1.393 . S
C1071 C1070 1.391 . S
H1072 C1080 0.950 . S
H1073 C1085 0.950 . S
H1074 C1082 0.950 . S
H1075 C1084 0.950 . S
H1076 C1086 0.950 . S
H1077 C1088 0.950 . S
H1078 C1090 0.950 . S
H1079 C1091 0.950 . S
C1080 H1072 0.950 . S
C1080 C1081 1.386 . S
C1080 C1082 1.391 . S
C1081 C1080 1.386 . S
C1081 C1085 1.393 . S
C1082 H1074 0.950 . S
C1082 C1080 1.391 . S
C1082 C1083 1.400 . S
C1083 C1082 1.400 . S
C1083 C1084 1.398 . S
C1083 C1089 1.491 . S
C1084 H1075 0.950 . S
C1084 C1083 1.398 . S
C1084 C1085 1.391 . S
C1085 H1073 0.950 . S
C1085 C1081 1.393 . S
C1085 C1084 1.391 . S
C1086 H1076 0.950 . S
C1086 C1087 1.386 . S
C1086 C1088 1.391 . S
C1087 C1086 1.386 . S
C1087 C1091 1.393 . S
C1088 H1077 0.950 . S
C1088 C1086 1.391 . S
C1088 C1089 1.400 . S
C1089 C1083 1.491 . S
C1089 C1088 1.400 . S
C1089 C1090 1.398 . S
C1090 H1078 0.950 . S
C1090 C1089 1.398 . S
C1090 C1091 1.391 . S
C1091 H1079 0.950 . S
C1091 C1087 1.393 . S
C1091 C1090 1.391 . S
H1092 C1100 0.950 . S
H1093 C1105 0.950 . S
H1094 C1102 0.950 . S
H1095 C1104 0.950 . S
H1096 C1106 0.950 . S
H1097 C1108 0.950 . S
H1098 C1110 0.950 . S
H1099 C1111 0.950 . S
C1100 H1092 0.950 . S
C1100 C1101 1.386 . S
C1100 C1102 1.391 . S
C1101 C1100 1.386 . S
C1101 C1105 1.393 . S
C1102 H1094 0.950 . S
C1102 C1100 1.391 . S
C1102 C1103 1.400 . S
C1103 C1102 1.400 . S
C1103 C1104 1.398 . S
C1103 C1109 1.491 1_554 S
C1104 H1095 0.950 . S
C1104 C1103 1.398 . S
C1104 C1105 1.391 . S
C1105 H1093 0.950 . S
C1105 C1101 1.393 . S
C1105 C1104 1.391 . S
C1106 H1096 0.950 . S
C1106 C1107 1.386 . S
C1106 C1108 1.391 . S
C1107 C1106 1.386 . S
C1107 C1111 1.393 . S
C1108 H1097 0.950 . S
C1108 C1106 1.391 . S
C1108 C1109 1.400 . S
C1109 C1103 1.491 1_556 S
C1109 C1108 1.400 . S
C1109 C1110 1.398 . S
C1110 H1098 0.950 . S
C1110 C1109 1.398 . S
C1110 C1111 1.391 . S
C1111 H1099 0.950 . S
C1111 C1107 1.393 . S
C1111 C1110 1.391 . S
H1112 C1120 0.950 . S
H1113 C1125 0.950 . S
H1114 C1122 0.950 . S
H1115 C1124 0.950 . S
H1116 C1126 0.950 . S
H1117 C1128 0.950 . S
H1118 C1130 0.950 . S
H1119 C1131 0.950 . S
C1120 H1112 0.950 . S
C1120 C1121 1.386 . S
C1120 C1122 1.391 . S
C1121 C1120 1.386 . S
C1121 C1125 1.393 . S
C1122 H1114 0.950 . S
C1122 C1120 1.391 . S
C1122 C1123 1.400 . S
C1123 C1122 1.400 . S
C1123 C1124 1.398 . S
C1123 C1129 1.491 . S
C1124 H1115 0.950 . S
C1124 C1123 1.398 . S
C1124 C1125 1.391 . S
C1125 H1113 0.950 . S
C1125 C1121 1.393 . S
C1125 C1124 1.391 . S
C1126 H1116 0.950 . S
C1126 C1127 1.386 . S
C1126 C1128 1.391 . S
C1127 C1126 1.386 . S
C1127 C1131 1.393 . S
C1128 H1117 0.950 . S
C1128 C1126 1.391 . S
C1128 C1129 1.400 . S
C1129 C1123 1.491 . S
C1129 C1128 1.400 . S
C1129 C1130 1.398 . S
C1130 H1118 0.950 . S
C1130 C1129 1.398 . S
C1130 C1131 1.391 . S
C1131 H1119 0.950 . S
C1131 C1127 1.393 . S
C1131 C1130 1.391 . S
H1132 C1140 0.950 . S
H1133 C1145 0.950 . S
H1134 C1142 0.950 . S
H1135 C1144 0.950 . S
H1136 C1146 0.950 . S
H1137 C1148 0.950 . S
H1138 C1150 0.950 . S
H1139 C1151 0.950 . S
C1140 H1132 0.950 . S
C1140 C1141 1.386 . S
C1140 C1142 1.391 . S
C1141 C1140 1.386 . S
C1141 C1145 1.393 . S
C1142 H1134 0.950 . S
C1142 C1140 1.391 . S
C1142 C1143 1.400 . S
C1143 C1142 1.400 . S
C1143 C1144 1.398 . S
C1143 C1149 1.491 . S
C1144 H1135 0.950 . S
C1144 C1143 1.398 . S
C1144 C1145 1.391 . S
C1145 H1133 0.950 . S
C1145 C1141 1.393 . S
C1145 C1144 1.391 . S
C1146 H1136 0.950 . S
C1146 C1147 1.386 . S
C1146 C1148 1.391 . S
C1147 C1146 1.386 . S
C1147 C1151 1.393 . S
C1148 H1137 0.950 . S
C1148 C1146 1.391 . S
C1148 C1149 1.400 . S
C1149 C1143 1.491 . S
C1149 C1148 1.400 . S
C1149 C1150 1.398 . S
C1150 H1138 0.950 . S
C1150 C1149 1.398 . S
C1150 C1151 1.391 . S
C1151 H1139 0.950 . S
C1151 C1147 1.393 . S
C1151 C1150 1.391 . S
H1152 C1160 0.950 . S
H1153 C1165 0.950 . S
H1154 C1162 0.950 . S
H1155 C1164 0.950 . S
H1156 C1166 0.950 . S
H1157 C1168 0.950 . S
H1158 C1170 0.950 . S
H1159 C1171 0.950 . S
C1160 H1152 0.950 . S
C1160 C1161 1.386 . S
C1160 C1162 1.391 . S
C1161 C1160 1.386 . S
C1161 C1165 1.393 . S
C1162 H1154 0.950 . S
C1162 C1160 1.391 . S
C1162 C1163 1.400 . S
C1163 C1162 1.400 . S
C1163 C1164 1.398 . S
C1163 C1169 1.491 . S
C1164 H1155 0.950 . S
C1164 C1163 1.398 . S
C1164 C1165 1.391 . S
C1165 H1153 0.950 . S
C1165 C1161 1.393 . S
C1165 C1164 1.391 . S
C1166 H1156 0.950 . S
C1166 C1167 1.386 . S
C1166 C1168 1.391 . S
C1167 C1166 1.386 . S
C1167 C1171 1.393 . S
C1168 H1157 0.950 . S
C1168 C1166 1.391 . S
C1168 C1169 1.400 . S
C1169 C1163 1.491 . S
C1169 C1168 1.400 . S
C1169 C1170 1.398 . S
C1170 H1158 0.950 . S
C1170 C1169 1.398 . S
C1170 C1171 1.391 . S
C1171 H1159 0.950 . S
C1171 C1167 1.393 . S
C1171 C1170 1.391 . S
H1172 C1180 0.950 . S
H1173 C1185 0.950 . S
H1174 C1182 0.950 . S
H1175 C1184 0.950 . S
H1176 C1186 0.950 . S
H1177 C1188 0.950 . S
H1178 C1190 0.950 . S
H1179 C1191 0.950 . S
C1180 H1172 0.950 . S
C1180 C1181 1.386 . S
C1180 C1182 1.391 . S
C1181 C1180 1.386 . S
C1181 C1185 1.393 . S
C1182 H1174 0.950 . S
C1182 C1180 1.391 . S
C1182 C1183 1.400 . S
C1183 C1182 1.400 . S
C1183 C1184 1.398 . S
C1183 C1189 1.491 . S
C1184 H1175 0.950 . S
C1184 C1183 1.398 . S
C1184 C1185 1.391 . S
C1185 H1173 0.950 . S
C1185 C1181 1.393 . S
C1185 C1184 1.391 . S
C1186 H1176 0.950 . S
C1186 C1187 1.386 . S
C1186 C1188 1.391 . S
C1187 C1186 1.386 . S
C1187 C1191 1.393 . S
C1188 H1177 0.950 . S
C1188 C1186 1.391 . S
C1188 C1189 1.400 . S
C1189 C1183 1.491 . S
C1189 C1188 1.400 . S
C1189 C1190 1.398 . S
C1190 H1178 0.950 . S
C1190 C1189 1.398 . S
C1190 C1191 1.391 . S
C1191 H1179 0.950 . S
C1191 C1187 1.393 . S
C1191 C1190 1.391 . S
H1192 C1200 0.950 . S
H1193 C1205 0.950 . S
H1194 C1202 0.950 . S
H1195 C1204 0.950 . S
H1196 C1206 0.950 . S
H1197 C1208 0.950 . S
H1198 C1210 0.950 . S
H1199 C1211 0.950 . S
C1200 H1192 0.950 . S
C1200 C1201 1.386 . S
C1200 C1202 1.391 . S
C1201 C1200 1.386 . S
C1201 C1205 1.393 . S
C1202 H1194 0.950 . S
C1202 C1200 1.391 . S
C1202 C1203 1.400 . S
C1203 C1202 1.400 . S
C1203 C1204 1.398 . S
C1203 C1209 1.491 . S
C1204 H1195 0.950 . S
C1204 C1203 1.398 . S
C1204 C1205 1.391 . S
C1205 H1193 0.950 . S
C1205 C1201 1.393 . S
C1205 C1204 1.391 . S
C1206 H1196 0.950 . S
C1206 C1207 1.386 . S
C1206 C1208 1.391 . S
C1207 C1206 1.386 . S
C1207 C1211 1.393 . S
C1208 H1197 0.950 . S
C1208 C1206 1.391 . S
C1208 C1209 1.400 . S
C1209 C1203 1.491 . S
C1209 C1208 1.400 . S
C1209 C1210 1.398 . S
C1210 H1198 0.950 . S
C1210 C1209 1.398 . S
C1210 C1211 1.391 . S
C1211 H1199 0.950 . S
C1211 C1207 1.393 . S
C1211 C1210 1.391 . S
H1212 C1220 0.950 . S
H1213 C1225 0.950 . S
H1214 C1222 0.950 . S
H1215 C1224 0.950 . S
H1216 C1226 0.950 . S
H1217 C1228 0.950 . S
H1218 C1230 0.950 . S
H1219 C1231 0.950 . S
C1220 H1212 0.950 . S
C1220 C1221 1.386 . S
C1220 C1222 1.391 . S
C1221 C1220 1.386 . S
C1221 C1225 1.393 . S
C1222 H1214 0.950 . S
C1222 C1220 1.391 . S
C1222 C1223 1.400 . S
C1223 C1222 1.400 . S
C1223 C1224 1.398 . S
C1223 C1229 1.491 . S
C1224 H1215 0.950 . S
C1224 C1223 1.398 . S
C1224 C1225 1.391 . S
C1225 H1213 0.950 . S
C1225 C1221 1.393 . S
C1225 C1224 1.391 . S
C1226 H1216 0.950 . S
C1226 C1227 1.386 . S
C1226 C1228 1.391 . S
C1227 C1226 1.386 . S
C1227 C1231 1.393 . S
C1228 H1217 0.950 . S
C1228 C1226 1.391 . S
C1228 C1229 1.400 . S
C1229 C1223 1.491 . S
C1229 C1228 1.400 . S
C1229 C1230 1.398 . S
C1230 H1218 0.950 . S
C1230 C1229 1.398 . S
C1230 C1231 1.391 . S
C1231 H1219 0.950 . S
C1231 C1227 1.393 . S
C1231 C1230 1.391 . S
H1232 C1240 0.950 . S
H1233 C1245 0.950 . S
H1234 C1242 0.950 . S
H1235 C1244 0.950 . S
H1236 C1246 0.950 . S
H1237 C1248 0.950 . S
H1238 C1250 0.950 . S
H1239 C1251 0.950 . S
C1240 H1232 0.950 . S
C1240 C1241 1.386 . S
C1240 C1242 1.391 . S
C1241 C1240 1.386 . S
C1241 C1245 1.393 . S
C1242 H1234 0.950 . S
C1242 C1240 1.391 . S
C1242 C1243 1.400 . S
C1243 C1242 1.400 . S
C1243 C1244 1.398 . S
C1243 C1249 1.491 . S
C1244 H1235 0.950 . S
C1244 C1243 1.398 . S
C1244 C1245 1.391 . S
C1245 H1233 0.950 . S
C1245 C1241 1.393 . S
C1245 C1244 1.391 . S
C1246 H1236 0.950 . S
C1246 C1247 1.386 . S
C1246 C1248 1.391 . S
C1247 C1246 1.386 . S
C1247 C1251 1.393 . S
C1248 H1237 0.950 . S
C1248 C1246 1.391 . S
C1248 C1249 1.400 . S
C1249 C1243 1.491 . S
C1249 C1248 1.400 . S
C1249 C1250 1.398 . S
C1250 H1238 0.950 . S
C1250 C1249 1.398 . S
C1250 C1251 1.391 . S
C1251 H1239 0.950 . S
C1251 C1247 1.393 . S
C1251 C1250 1.391 . S
H1252 C1260 0.950 . S
H1253 C1265 0.950 . S
H1254 C1262 0.950 . S
H1255 C1264 0.950 . S
H1256 C1266 0.950 . S
H1257 C1268 0.950 . S
H1258 C1270 0.950 . S
H1259 C1271 0.950 . S
C1260 H1252 0.950 . S
C1260 C1261 1.386 . S
C1260 C1262 1.391 . S
C1261 C1260 1.386 . S
C1261 C1265 1.393 . S
C1262 H1254 0.950 . S
C1262 C1260 1.391 . S
C1262 C1263 1.400 . S
C1263 C1262 1.400 . S
C1263 C1264 1.398 . S
C1263 C1269 1.491 . S
C1264 H1255 0.950 . S
C1264 C1263 1.398 . S
C1264 C1265 1.391 . S
C1265 H1253 0.950 . S
C1265 C1261 1.393 . S
C1265 C1264 1.391 . S
C1266 H1256 0.950 . S
C1266 C1267 1.386 . S
C1266 C1268 1.391 . S
C1267 C1266 1.386 . S
C1267 C1271 1.393 . S
C1268 H1257 0.950 . S
C1268 C1266 1.391 . S
C1268 C1269 1.400 . S
C1269 C1263 1.491 . S
C1269 C1268 1.400 . S
C1269 C1270 1.398 . S
C1270 H1258 0.950 . S
C1270 C1269 1.398 . S
C1270 C1271 1.391 . S
C1271 H1259 0.950 . S
C1271 C1267 1.393 . S
C1271 C1270 1.391 . S
H1272 C1280 0.950 . S
H1273 C1285 0.950 . S
H1274 C1282 0.950 . S
H1275 C1284 0.950 . S
H1276 C1286 0.950 . S
H1277 C1288 0.950 . S
H1278 C1290 0.950 . S
H1279 C1291 0.950 . S
C1280 H1272 0.950 . S
C1280 C1281 1.386 . S
C1280 C1282 1.391 . S
C1281 C1280 1.386 . S
C1281 C1285 1.393 . S
C1282 H1274 0.950 . S
C1282 C1280 1.391 . S
C1282 C1283 1.400 . S
C1283 C1282 1.400 . S
C1283 C1284 1.398 . S
C1283 C1289 1.491 . S
C1284 H1275 0.950 . S
C1284 C1283 1.398 . S
C1284 C1285 1.391 . S
C1285 H1273 0.950 . S
C1285 C1281 1.393 . S
C1285 C1284 1.391 . S
C1286 H1276 0.950 . S
C1286 C1287 1.386 . S
C1286 C1288 1.391 . S
C1287 C1286 1.386 . S
C1287 C1291 1.393 . S
C1288 H1277 0.950 . S
C1288 C1286 1.391 . S
C1288 C1289 1.400 . S
C1289 C1283 1.491 . S
C1289 C1288 1.400 . S
C1289 C1290 1.398 . S
C1290 H1278 0.950 . S
C1290 C1289 1.398 . S
C1290 C1291 1.391 . S
C1291 H1279 0.950 . S
C1291 C1287 1.393 . S
C1291 C1290 1.391 . S
H1292 C1300 0.950 . S
H1293 C1305 0.950 . S
H1294 C1302 0.950 . S
H1295 C1304 0.950 . S
H1296 C1306 0.950 . S
H1297 C1308 0.950 . S
H1298 C1310 0.950 . S
H1299 C1311 0.950 . S
C1300 H1292 0.950 . S
C1300 C1301 1.386 . S
C1300 C1302 1.391 . S
C1301 C1300 1.386 . S
C1301 C1305 1.393 . S
C1302 H1294 0.950 . S
C1302 C1300 1.391 . S
C1302 C1303 1.400 . S
C1303 C1302 1.400 . S
C1303 C1304 1.398 . S
C1303 C1309 1.491 . S
C1304 H1295 0.950 . S
C1304 C1303 1.398 . S
C1304 C1305 1.391 . S
C1305 H1293 0.950 . S
C1305 C1301 1.393 . S
C1305 C1304 1.391 . S
C1306 H1296 0.950 . S
C1306 C1307 1.386 . S
C1306 C1308 1.391 . S
C1307 C1306 1.386 . S
C1307 C1311 1.393 . S
C1308 H1297 0.950 . S
C1308 C1306 1.391 . S
C1308 C1309 1.400 . S
C1309 C1303 1.491 . S
C1309 C1308 1.400 . S
C1309 C1310 1.398 . S
C1310 H1298 0.950 . S
C1310 C1309 1.398 . S
C1310 C1311 1.391 . S
C1311 H1299 0.950 . S
C1311 C1307 1.393 . S
C1311 C1310 1.391 . S
H1312 C1320 0.950 . S
H1313 C1325 0.950 . S
H1314 C1322 0.950 . S
H1315 C1324 0.950 . S
H1316 C1326 0.950 . S
H1317 C1328 0.950 . S
H1318 C1330 0.950 . S
H1319 C1331 0.950 . S
C1320 H1312 0.950 . S
C1320 C1321 1.386 . S
C1320 C1322 1.391 . S
C1321 C1320 1.386 . S
C1321 C1325 1.393 . S
C1322 H1314 0.950 . S
C1322 C1320 1.391 . S
C1322 C1323 1.400 . S
C1323 C1322 1.400 . S
C1323 C1324 1.398 . S
C1323 C1329 1.491 . S
C1324 H1315 0.950 . S
C1324 C1323 1.398 . S
C1324 C1325 1.391 . S
C1325 H1313 0.950 . S
C1325 C1321 1.393 . S
C1325 C1324 1.391 . S
C1326 H1316 0.950 . S
C1326 C1327 1.386 . S
C1326 C1328 1.391 . S
C1327 C1326 1.386 . S
C1327 C1331 1.393 . S
C1328 H1317 0.950 . S
C1328 C1326 1.391 . S
C1328 C1329 1.400 . S
C1329 C1323 1.491 . S
C1329 C1328 1.400 . S
C1329 C1330 1.398 . S
C1330 H1318 0.950 . S
C1330 C1329 1.398 . S
C1330 C1331 1.391 . S
C1331 H1319 0.950 . S
C1331 C1327 1.393 . S
C1331 C1330 1.391 . S
H1332 C1340 0.950 . S
H1333 C1345 0.950 . S
H1334 C1342 0.950 . S
H1335 C1344 0.950 . S
H1336 C1346 0.950 . S
H1337 C1348 0.950 . S
H1338 C1350 0.950 . S
H1339 C1351 0.950 . S
C1340 H1332 0.950 . S
C1340 C1341 1.386 . S
C1340 C1342 1.391 . S
C1341 C1340 1.386 . S
C1341 C1345 1.393 . S
C1342 H1334 0.950 . S
C1342 C1340 1.391 . S
C1342 C1343 1.400 . S
C1343 C1342 1.400 . S
C1343 C1344 1.398 . S
C1343 C1349 1.491 . S
C1344 H1335 0.950 . S
C1344 C1343 1.398 . S
C1344 C1345 1.391 . S
C1345 H1333 0.950 . S
C1345 C1341 1.393 . S
C1345 C1344 1.391 . S
C1346 H1336 0.950 . S
C1346 C1347 1.386 . S
C1346 C1348 1.391 . S
C1347 C1346 1.386 . S
C1347 C1351 1.393 . S
C1348 H1337 0.950 . S
C1348 C1346 1.391 . S
C1348 C1349 1.400 . S
C1349 C1343 1.491 . S
C1349 C1348 1.400 . S
C1349 C1350 1.398 . S
C1350 H1338 0.950 . S
C1350 C1349 1.398 . S
C1350 C1351 1.391 . S
C1351 H1339 0.950 . S
C1351 C1347 1.393 . S
C1351 C1350 1.391 . S
H1352 C1360 0.950 . S
H1353 C1365 0.950 . S
H1354 C1362 0.950 . S
H1355 C1364 0.950 . S
H1356 C1366 0.950 . S
H1357 C1368 0.950 . S
H1358 C1370 0.950 . S
H1359 C1371 0.950 . S
C1360 H1352 0.950 . S
C1360 C1361 1.386 . S
C1360 C1362 1.391 . S
C1361 C1360 1.386 . S
C1361 C1365 1.393 . S
C1362 H1354 0.950 . S
C1362 C1360 1.391 . S
C1362 C1363 1.400 . S
C1363 C1362 1.400 . S
C1363 C1364 1.398 . S
C1363 C1369 1.491 . S
C1364 H1355 0.950 . S
C1364 C1363 1.398 . S
C1364 C1365 1.391 . S
C1365 H1353 0.950 . S
C1365 C1361 1.393 . S
C1365 C1364 1.391 . S
C1366 H1356 0.950 . S
C1366 C1367 1.386 . S
C1366 C1368 1.391 . S
C1367 C1366 1.386 . S
C1367 C1371 1.393 . S
C1368 H1357 0.950 . S
C1368 C1366 1.391 . S
C1368 C1369 1.400 . S
C1369 C1363 1.491 . S
C1369 C1368 1.400 . S
C1369 C1370 1.398 . S
C1370 H1358 0.950 . S
C1370 C1369 1.398 . S
C1370 C1371 1.391 . S
C1371 H1359 0.950 . S
C1371 C1367 1.393 . S
C1371 C1370 1.391 . S
H1372 C1380 0.950 . S
H1373 C1385 0.950 . S
H1374 C1382 0.950 . S
H1375 C1384 0.950 . S
H1376 C1386 0.950 . S
H1377 C1388 0.950 . S
H1378 C1390 0.950 . S
H1379 C1391 0.950 . S
C1380 H1372 0.950 . S
C1380 C1381 1.386 . S
C1380 C1382 1.391 . S
C1381 C1380 1.386 . S
C1381 C1385 1.393 . S
C1382 H1374 0.950 . S
C1382 C1380 1.391 . S
C1382 C1383 1.400 . S
C1383 C1382 1.400 . S
C1383 C1384 1.398 . S
C1383 C1389 1.491 . S
C1384 H1375 0.950 . S
C1384 C1383 1.398 . S
C1384 C1385 1.391 . S
C1385 H1373 0.950 . S
C1385 C1381 1.393 . S
C1385 C1384 1.391 . S
C1386 H1376 0.950 . S
C1386 C1387 1.386 . S
C1386 C1388 1.391 . S
C1387 C1386 1.386 . S
C1387 C1391 1.393 . S
C1388 H1377 0.950 . S
C1388 C1386 1.391 . S
C1388 C1389 1.400 . S
C1389 C1383 1.491 . S
C1389 C1388 1.400 . S
C1389 C1390 1.398 . S
C1390 H1378 0.950 . S
C1390 C1389 1.398 . S
C1390 C1391 1.391 . S
C1391 H1379 0.950 . S
C1391 C1387 1.393 . S
C1391 C1390 1.391 . S
H1392 C1400 0.950 . S
H1393 C1405 0.950 . S
H1394 C1402 0.950 . S
H1395 C1404 0.950 . S
H1396 C1406 0.950 . S
H1397 C1408 0.950 . S
H1398 C1410 0.950 . S
H1399 C1411 0.950 . S
C1400 H1392 0.950 . S
C1400 C1401 1.386 . S
C1400 C1402 1.391 . S
C1401 C1400 1.386 . S
C1401 C1405 1.393 . S
C1402 H1394 0.950 . S
C1402 C1400 1.391 . S
C1402 C1403 1.400 . S
C1403 C1402 1.400 . S
C1403 C1404 1.398 . S
C1403 C1409 1.491 . S
C1404 H1395 0.950 . S
C1404 C1403 1.398 . S
C1404 C1405 1.391 . S
C1405 H1393 0.950 . S
C1405 C1401 1.393 . S
C1405 C1404 1.391 . S
C1406 H1396 0.950 . S
C1406 C1407 1.386 . S
C1406 C1408 1.391 . S
C1407 C1406 1.386 . S
C1407 C1411 1.393 . S
C1408 H1397 0.950 . S
C1408 C1406 1.391 . S
C1408 C1409 1.400 . S
C1409 C1403 1.491 . S
C1409 C1408 1.400 . S
C1409 C1410 1.398 . S
C1410 H1398 0.950 . S
C1410 C1409 1.398 . S
C1410 C1411 1.391 . S
C1411 H1399 0.950 . S
C1411 C1407 1.393 . S
C1411 C1410 1.391 . S
H1412 C1420 0.950 . S
H1413 C1425 0.950 . S
H1414 C1422 0.950 . S
H1415 C1424 0.950 . S
H1416 C1426 0.950 . S
H1417 C1428 0.950 . S
H1418 C1430 0.950 . S
H1419 C1431 0.950 . S
C1420 H1412 0.950 . S
C1420 C1421 1.386 . S
C1420 C1422 1.391 . S
C1421 C1420 1.386 . S
C1421 C1425 1.393 . S
C1422 H1414 0.950 . S
C1422 C1420 1.391 . S
C1422 C1423 1.400 . S
C1423 C1422 1.400 . S
C1423 C1424 1.398 . S
C1423 C1429 1.491 . S
C1424 H1415 0.950 . S
C1424 C1423 1.398 . S
C1424 C1425 1.391 . S
C1425 H1413 0.950 . S
C1425 C1421 1.393 . S
C1425 C1424 1.391 . S
C1426 H1416 0.950 . S
C1426 C1427 1.386 . S
C1426 C1428 1.391 . S
C1427 C1426 1.386 . S
C1427 C1431 1.393 . S
C1428 H1417 0.950 . S
C1428 C1426 1.391 . S
C1428 C1429 1.400 . S
C1429 C1423 1.491 . S
C1429 C1428 1.400 . S
C1429 C1430 1.398 . S
C1430 H1418 0.950 . S
C1430 C1429 1.398 . S
C1430 C1431 1.391 . S
C1431 H1419 0.950 . S
C1431 C1427 1.393 . S
C1431 C1430 1.391 . S
H1432 C1440 0.950 . S
H1433 C1445 0.950 . S
H1434 C1442 0.950 . S
H1435 C1444 0.950 . S
H1436 C1446 0.950 . S
H1437 C1448 0.950 . S
H1438 C1450 0.950 . S
H1439 C1451 0.950 . S
C1440 H1432 0.950 . S
C1440 C1441 1.386 . S
C1440 C1442 1.391 . S
C1441 C1440 1.386 . S
C1441 C1445 1.393 . S
C1442 H1434 0.950 . S
C1442 C1440 1.391 . S
C1442 C1443 1.400 . S
C1443 C1442 1.400 . S
C1443 C1444 1.398 . S
C1443 C1449 1.491 . S
C1444 H1435 0.950 . S
C1444 C1443 1.398 . S
C1444 C1445 1.391 . S
C1445 H1433 0.950 . S
C1445 C1441 1.393 . S
C1445 C1444 1.391 . S
C1446 H1436 0.950 . S
C1446 C1447 1.386 . S
C1446 C1448 1.391 . S
C1447 C1446 1.386 . S
C1447 C1451 1.393 . S
C1448 H1437 0.950 . S
C1448 C1446 1.391 . S
C1448 C1449 1.400 . S
C1449 C1443 1.491 . S
C1449 C1448 1.400 . S
C1449 C1450 1.398 . S
C1450 H1438 0.950 . S
C1450 C1449 1.398 . S
C1450 C1451 1.391 . S
C1451 H1439 0.950 . S
C1451 C1447 1.393 . S
C1451 C1450 1.391 . S
H1452 C1460 0.950 . S
H1453 C1465 0.950 . S
H1454 C1462 0.950 . S
H1455 C1464 0.950 . S
H1456 C1466 0.950 . S
H1457 C1468 0.950 . S
H1458 C1470 0.950 . S
H1459 C1471 0.950 . S
C1460 H1452 0.950 . S
C1460 C1461 1.386 . S
C1460 C1462 1.391 . S
C1461 C1460 1.386 . S
C1461 C1465 1.393 . S
C1462 H1454 0.950 . S
C1462 C1460 1.391 . S
C1462 C1463 1.400 . S
C1463 C1462 1.400 . S
C1463 C1464 1.398 . S
C1463 C1469 1.491 . S
C1464 H1455 0.950 . S
C1464 C1463 1.398 . S
C1464 C1465 1.391 . S
C1465 H1453 0.950 . S
C1465 C1461 1.393 . S
C1465 C1464 1.391 . S
C1466 H1456 0.950 . S
C1466 C1467 1.386 . S
C1466 C1468 1.391 . S
C1467 C1466 1.386 . S
C1467 C1471 1.393 . S
C1468 H1457 0.950 . S
C1468 C1466 1.391 . S
C1468 C1469 1.400 . S
C1469 C1463 1.491 . S
C1469 C1468 1.400 . S
C1469 C1470 1.398 . S
C1470 H1458 0.950 . S
C1470 C1469 1.398 . S
C1470 C1471 1.391 . S
C1471 H1459 0.950 . S
C1471 C1467 1.393 . S
C1471 C1470 1.391 . S
H1472 C1480 0.950 . S
H1473 C1485 0.950 . S
H1474 C1482 0.950 . S
H1475 C1484 0.950 . S
H1476 C1486 0.950 . S
H1477 C1488 0.950 . S
H1478 C1490 0.950 . S
H1479 C1491 0.950 . S
C1480 H1472 0.950 . S
C1480 C1481 1.386 . S
C1480 C1482 1.391 . S
C1481 C1480 1.386 . S
C1481 C1485 1.393 . S
C1482 H1474 0.950 . S
C1482 C1480 1.391 . S
C1482 C1483 1.400 . S
C1483 C1482 1.400 . S
C1483 C1484 1.398 . S
C1483 C1489 1.491 . S
C1484 H1475 0.950 . S
C1484 C1483 1.398 . S
C1484 C1485 1.391 . S
C1485 H1473 0.950 . S
C1485 C1481 1.393 . S
C1485 C1484 1.391 . S
C1486 H1476 0.950 . S
C1486 C1487 1.386 . S
C1486 C1488 1.391 . S
C1487 C1486 1.386 . S
C1487 C1491 1.393 . S
C1488 H1477 0.950 . S
C1488 C1486 1.391 . S
C1488 C1489 1.400 . S
C1489 C1483 1.491 . S
C1489 C1488 1.400 . S
C1489 C1490 1.398 . S
C1490 H1478 0.950 . S
C1490 C1489 1.398 . S
C1490 C1491 1.391 . S
C1491 H1479 0.950 . S
C1491 C1487 1.393 . S
C1491 C1490 1.391 . S
H1492 C1500 0.950 . S
H1493 C1505 0.950 . S
H1494 C1502 0.950 . S
H1495 C1504 0.950 . S
H1496 C1506 0.950 . S
H1497 C1508 0.950 . S
H1498 C1510 0.950 . S
H1499 C1511 0.950 . S
C1500 H1492 0.950 . S
C1500 C1501 1.386 . S
C1500 C1502 1.391 . S
C1501 C1500 1.386 . S
C1501 C1505 1.393 . S
C1502 H1494 0.950 . S
C1502 C1500 1.391 . S
C1502 C1503 1.400 . S
C1503 C1502 1.400 . S
C1503 C1504 1.398 . S
C1503 C1509 1.491 . S
C1504 H1495 0.950 . S
C1504 C1503 1.398 . S
C1504 C1505 1.391 . S
C1505 H1493 0.950 . S
C1505 C1501 1.393 . S
C1505 C1504 1.391 . S
C1506 H1496 0.950 . S
C1506 C1507 1.386 . S
C1506 C1508 1.391 . S
C1507 C1506 1.386 . S
C1507 C1511 1.393 . S
C1508 H1497 0.950 . S
C1508 C1506 1.391 . S
C1508 C1509 1.400 . S
C1509 C1503 1.491 . S
C1509 C1508 1.400 . S
C1509 C1510 1.398 . S
C1510 H1498 0.950 . S
C1510 C1509 1.398 . S
C1510 C1511 1.391 . S
C1511 H1499 0.950 . S
C1511 C1507 1.393 . S
C1511 C1510 1.391 . S
H1512 C1520 0.950 . S
H1513 C1525 0.950 . S
H1514 C1522 0.950 . S
H1515 C1524 0.950 . S
H1516 C1526 0.950 . S
H1517 C1528 0.950 . S
H1518 C1530 0.950 . S
H1519 C1531 0.950 . S
C1520 H1512 0.950 . S
C1520 C1521 1.386 . S
C1520 C1522 1.391 . S
C1521 C1520 1.386 . S
C1521 C1525 1.393 . S
C1522 H1514 0.950 . S
C1522 C1520 1.391 . S
C1522 C1523 1.400 . S
C1523 C1522 1.400 . S
C1523 C1524 1.398 . S
C1523 C1529 1.491 . S
C1524 H1515 0.950 . S
C1524 C1523 1.398 . S
C1524 C1525 1.391 . S
C1525 H1513 0.950 . S
C1525 C1521 1.393 . S
C1525 C1524 1.391 . S
C1526 H1516 0.950 . S
C1526 C1527 1.386 . S
C1526 C1528 1.391 . S
C1527 C1526 1.386 . S
C1527 C1531 1.393 . S
C1528 H1517 0.950 . S
C1528 C1526 1.391 . S
C1528 C1529 1.400 . S
C1529 C1523 1.491 . S
C1529 C1528 1.400 . S
C1529 C1530 1.398 . S
C1530 H1518 0.950 . S
C1530 C1529 1.398 . S
C1530 C1531 1.391 . S
C1531 H1519 0.950 . S
C1531 C1527 1.393 . S
C1531 C1530 1.391 . S
H1532 C1540 0.950 . S
H1533 C1545 0.950 . S
H1534 C1542 0.950 . S
H1535 C1544 0.950 . S
H1536 C1546 0.950 . S
H1537 C1548 0.950 . S
H1538 C1550 0.950 . S
H1539 C1551 0.950 . S
C1540 H1532 0.950 . S
C1540 C1541 1.386 . S
C1540 C1542 1.391 . S
C1541 C1540 1.386 . S
C1541 C1545 1.393 . S
C1542 H1534 0.950 . S
C1542 C1540 1.391 . S
C1542 C1543 1.400 . S
C1543 C1542 1.400 . S
C1543 C1544 1.398 . S
C1543 C1549 1.491 . S
C1544 H1535 0.950 . S
C1544 C1543 1.398 . S
C1544 C1545 1.391 . S
C1545 H1533 0.950 . S
C1545 C1541 1.393 . S
C1545 C1544 1.391 . S
C1546 H1536 0.950 . S
C1546 C1547 1.386 . S
C1546 C1548 1.391 . S
C1547 C1546 1.386 . S
C1547 C1551 1.393 . S
C1548 H1537 0.950 . S
C1548 C1546 1.391 . S
C1548 C1549 1.400 . S
C1549 C1543 1.491 . S
C1549 C1548 1.400 . S
C1549 C1550 1.398 . S
C1550 H1538 0.950 . S
C1550 C1549 1.398 . S
C1550 C1551 1.391 . S
C1551 H1539 0.950 . S
C1551 C1547 1.393 . S
C1551 C1550 1.391 . S
H1552 C1560 0.950 . S
H1553 C1565 0.950 . S
H1554 C1562 0.950 . S
H1555 C1564 0.950 . S
H1556 C1566 0.950 . S
H1557 C1568 0.950 . S
H1558 C1570 0.950 . S
H1559 C1571 0.950 . S
C1560 H1552 0.950 . S
C1560 C1561 1.386 . S
C1560 C1562 1.391 . S
C1561 C1560 1.386 . S
C1561 C1565 1.393 . S
C1562 H1554 0.950 . S
C1562 C1560 1.391 . S
C1562 C1563 1.400 . S
C1563 C1562 1.400 . S
C1563 C1564 1.398 . S
C1563 C1569 1.491 . S
C1564 H1555 0.950 . S
C1564 C1563 1.398 . S
C1564 C1565 1.391 . S
C1565 H1553 0.950 . S
C1565 C1561 1.393 . S
C1565 C1564 1.391 . S
C1566 H1556 0.950 . S
C1566 C1567 1.386 . S
C1566 C1568 1.391 . S
C1567 C1566 1.386 . S
C1567 C1571 1.393 . S
C1568 H1557 0.950 . S
C1568 C1566 1.391 . S
C1568 C1569 1.400 . S
C1569 C1563 1.491 . S
C1569 C1568 1.400 . S
C1569 C1570 1.398 . S
C1570 H1558 0.950 . S
C1570 C1569 1.398 . S
C1570 C1571 1.391 . S
C1571 H1559 0.950 . S
C1571 C1567 1.393 . S
C1571 C1570 1.391 . S
H1572 C1580 0.950 . S
H1573 C1585 0.950 . S
H1574 C1582 0.950 . S
H1575 C1584 0.950 . S
H1576 C1586 0.950 . S
H1577 C1588 0.950 . S
H1578 C1590 0.950 . S
H1579 C1591 0.950 . S
C1580 H1572 0.950 . S
C1580 C1581 1.386 . S
C1580 C1582 1.391 . S
C1581 C1580 1.386 . S
C1581 C1585 1.393 . S
C1582 H1574 0.950 . S
C1582 C1580 1.391 . S
C1582 C1583 1.400 . S
C1583 C1582 1.400 . S
C1583 C1584 1.398 . S
C1583 C1589 1.491 . S
C1584 H1575 0.950 . S
C1584 C1583 1.398 . S
C1584 C1585 1.391 . S
C1585 H1573 0.950 . S
C1585 C1581 1.393 . S
C1585 C1584 1.391 . S
C1586 H1576 0.950 . S
C1586 C1587 1.386 . S
C1586 C1588 1.391 . S
C1587 C1586 1.386 . S
C1587 C1591 1.393 . S
C1588 H1577 0.950 . S
C1588 C1586 1.391 . S
C1588 C1589 1.400 . S
C1589 C1583 1.491 . S
C1589 C1588 1.400 . S
C1589 C1590 1.398 . S
C1590 H1578 0.950 . S
C1590 C1589 1.398 . S
C1590 C1591 1.391 . S
C1591 H1579 0.950 . S
C1591 C1587 1.393 . S
C1591 C1590 1.391 . S
H1592 C1600 0.950 . S
H1593 C1605 0.950 . S
H1594 C1602 0.950 . S
H1595 C1604 0.950 . S
H1596 C1606 0.950 . S
H1597 C1608 0.950 . S
H1598 C1610 0.950 . S
H1599 C1611 0.950 . S
C1600 H1592 0.950 . S
C1600 C1601 1.386 . S
C1600 C1602 1.391 . S
C1601 C1600 1.386 . S
C1601 C1605 1.393 . S
C1602 H1594 0.950 . S
C1602 C1600 1.391 . S
C1602 C1603 1.400 . S
C1603 C1602 1.400 . S
C1603 C1604 1.398 . S
C1603 C1609 1.491 . S
C1604 H1595 0.950 . S
C1604 C1603 1.398 . S
C1604 C1605 1.391 . S
C1605 H1593 0.950 . S
C1605 C1601 1.393 . S
C1605 C1604 1.391 . S
C1606 H1596 0.950 . S
C1606 C1607 1.386 . S
C1606 C1608 1.391 . S
C1607 C1606 1.386 . S
C1607 C1611 1.393 . S
C1608 H1597 0.950 . S
C1608 C1606 1.391 . S
C1608 C1609 1.400 . S
C1609 C1603 1.491 . S
C1609 C1608 1.400 . S
C1609 C1610 1.398 . S
C1610 H1598 0.950 . S
C1610 C1609 1.398 . S
C1610 C1611 1.391 . S
C1611 H1599 0.950 . S
C1611 C1607 1.393 . S
C1611 C1610 1.391 . S
H1612 C1620 0.950 . S
H1613 C1625 0.950 . S
H1614 C1622 0.950 . S
H1615 C1624 0.950 . S
H1616 C1626 0.950 . S
H1617 C1628 0.950 . S
H1618 C1630 0.950 . S
H1619 C1631 0.950 . S
C1620 H1612 0.950 . S
C1620 C1621 1.386 . S
C1620 C1622 1.391 . S
C1621 C1620 1.386 . S
C1621 C1625 1.393 . S
C1622 H1614 0.950 . S
C1622 C1620 1.391 . S
C1622 C1623 1.400 . S
C1623 C1622 1.400 . S
C1623 C1624 1.398 . S
C1623 C1629 1.491 . S
C1624 H1615 0.950 . S
C1624 C1623 1.398 . S
C1624 C1625 1.391 . S
C1625 H1613 0.950 . S
C1625 C1621 1.393 . S
C1625 C1624 1.391 . S
C1626 H1616 0.950 . S
C1626 C1627 1.386 . S
C1626 C1628 1.391 . S
C1627 C1626 1.386 . S
C1627 C1631 1.393 . S
C1628 H1617 0.950 . S
C1628 C1626 1.391 . S
C1628 C1629 1.400 . S
C1629 C1623 1.491 . S
C1629 C1628 1.400 . S
C1629 C1630 1.398 . S
C1630 H1618 0.950 . S
C1630 C1629 1.398 . S
C1630 C1631 1.391 . S
C1631 H1619 0.950 . S
C1631 C1627 1.393 . S
C1631 C1630 1.391 . S
H1632 C1640 0.950 . S
H1633 C1645 0.950 . S
H1634 C1642 0.950 . S
H1635 C1644 0.950 . S
H1636 C1646 0.950 . S
H1637 C1648 0.950 . S
H1638 C1650 0.950 . S
H1639 C1651 0.950 . S
C1640 H1632 0.950 . S
C1640 C1641 1.386 . S
C1640 C1642 1.391 . S
C1641 C1640 1.386 . S
C1641 C1645 1.393 . S
C1642 H1634 0.950 . S
C1642 C1640 1.391 . S
C1642 C1643 1.400 . S
C1643 C1642 1.400 . S
C1643 C1644 1.398 . S
C1643 C1649 1.491 . S
C1644 H1635 0.950 . S
C1644 C1643 1.398 . S
C1644 C1645 1.391 . S
C1645 H1633 0.950 . S
C1645 C1641 1.393 . S
C1645 C1644 1.391 . S
C1646 H1636 0.950 . S
C1646 C1647 1.386 . S
C1646 C1648 1.391 . S
C1647 C1646 1.386 . S
C1647 C1651 1.393 . S
C1648 H1637 0.950 . S
C1648 C1646 1.391 . S
C1648 C1649 1.400 . S
C1649 C1643 1.491 . S
C1649 C1648 1.400 . S
C1649 C1650 1.398 . S
C1650 H1638 0.950 . S
C1650 C1649 1.398 . S
C1650 C1651 1.391 . S
C1651 H1639 0.950 . S
C1651 C1647 1.393 . S
C1651 C1650 1.391 . S
H1652 C1660 0.950 . S
H1653 C1665 0.950 . S
H1654 C1662 0.950 . S
H1655 C1664 0.950 . S
H1656 C1666 0.950 . S
H1657 C1668 0.950 . S
H1658 C1670 0.950 . S
H1659 C1671 0.950 . S
C1660 H1652 0.950 . S
C1660 C1661 1.386 . S
C1660 C1662 1.391 . S
C1661 C1660 1.386 . S
C1661 C1665 1.393 . S
C1662 H1654 0.950 . S
C1662 C1660 1.391 . S
C1662 C1663 1.400 . S
C1663 C1662 1.400 . S
C1663 C1664 1.398 . S
C1663 C1669 1.491 . S
C1664 H1655 0.950 . S
C1664 C1663 1.398 . S
C1664 C1665 1.391 . S
C1665 H1653 0.950 . S
C1665 C1661 1.393 . S
C1665 C1664 1.391 . S
C1666 H1656 0.950 . S
C1666 C1667 1.386 . S
C1666 C1668 1.391 . S
C1667 C1666 1.386 . S
C1667 C1671 1.393 . S
C1668 H1657 0.950 . S
C1668 C1666 1.391 . S
C1668 C1669 1.400 . S
C1669 C1663 1.491 . S
C1669 C1668 1.400 . S
C1669 C1670 1.398 . S
C1670 H1658 0.950 . S
C1670 C1669 1.398 . S
C1670 C1671 1.391 . S
C1671 H1659 0.950 . S
C1671 C1667 1.393 . S
C1671 C1670 1.391 . S
H1672 C1680 0.950 . S
H1673 C1685 0.950 . S
H1674 C1682 0.950 . S
H1675 C1684 0.950 . S
H1676 C1686 0.950 . S
H1677 C1688 0.950 . S
H1678 C1690 0.950 . S
H1679 C1691 0.950 . S
C1680 H1672 0.950 . S
C1680 C1681 1.386 . S
C1680 C1682 1.391 . S
C1681 C1680 1.386 . S
C1681 C1685 1.393 . S
C1682 H1674 0.950 . S
C1682 C1680 1.391 . S
C1682 C1683 1.400 . S
C1683 C1682 1.400 . S
C1683 C1684 1.398 . S
C1683 C1689 1.491 . S
C1684 H1675 0.950 . S
C1684 C1683 1.398 . S
C1684 C1685 1.391 . S
C1685 H1673 0.950 . S
C1685 C1681 1.393 . S
C1685 C1684 1.391 . S
C1686 H1676 0.950 . S
C1686 C1687 1.386 . S
C1686 C1688 1.391 . S
C1687 C1686 1.386 . S
C1687 C1691 1.393 . S
C1688 H1677 0.950 . S
C1688 C1686 1.391 . S
C1688 C1689 1.400 . S
C1689 C1683 1.491 . S
C1689 C1688 1.400 . S
C1689 C1690 1.398 . S
C1690 H1678 0.950 . S
C1690 C1689 1.398 . S
C1690 C1691 1.391 . S
C1691 H1679 0.950 . S
C1691 C1687 1.393 . S
C1691 C1690 1.391 . S
H1692 C1700 0.950 . S
H1693 C1705 0.950 . S
H1694 C1702 0.950 . S
H1695 C1704 0.950 . S
H1696 C1706 0.950 . S
H1697 C1708 0.950 . S
H1698 C1710 0.950 . S
H1699 C1711 0.950 . S
C1700 H1692 0.950 . S
C1700 C1701 1.386 . S
C1700 C1702 1.391 . S
C1701 C1700 1.386 . S
C1701 C1705 1.393 . S
C1702 H1694 0.950 . S
C1702 C1700 1.391 . S
C1702 C1703 1.400 . S
C1703 C1702 1.400 . S
C1703 C1704 1.398 . S
C1703 C1709 1.491 . S
C1704 H1695 0.950 . S
C1704 C1703 1.398 . S
C1704 C1705 1.391 . S
C1705 H1693 0.950 . S
C1705 C1701 1.393 . S
C1705 C1704 1.391 . S
C1706 H1696 0.950 . S
C1706 C1707 1.386 . S
C1706 C1708 1.391 . S
C1707 C1706 1.386 . S
C1707 C1711 1.393 . S
C1708 H1697 0.950 . S
C1708 C1706 1.391 . S
C1708 C1709 1.400 . S
C1709 C1703 1.491 . S
C1709 C1708 1.400 . S
C1709 C1710 1.398 . S
C1710 H1698 0.950 . S
C1710 C1709 1.398 . S
C1710 C1711 1.391 . S
C1711 H1699 0.950 . S
C1711 C1707 1.393 . S
C1711 C1710 1.391 . S
H1712 C1720 0.950 . S
H1713 C1725 0.950 . S
H1714 C1722 0.950 . S
H1715 C1724 0.950 . S
H1716 C1726 0.950 . S
H1717 C1728 0.950 . S
H1718 C1730 0.950 . S
H1719 C1731 0.950 . S
C1720 H1712 0.950 . S
C1720 C1721 1.386 . S
C1720 C1722 1.391 . S
C1721 C1720 1.386 . S
C1721 C1725 1.393 . S
C1722 H1714 0.950 . S
C1722 C1720 1.391 . S
C1722 C1723 1.400 . S
C1723 C1722 1.400 . S
C1723 C1724 1.398 . S
C1723 C1729 1.491 . S
C1724 H1715 0.950 . S
C1724 C1723 1.398 . S
C1724 C1725 1.391 . S
C1725 H1713 0.950 . S
C1725 C1721 1.393 . S
C1725 C1724 1.391 . S
C1726 H1716 0.950 . S
C1726 C1727 1.386 . S
C1726 C1728 1.391 . S
C1727 C1726 1.386 . S
C1727 C1731 1.393 . S
C1728 H1717 0.950 . S
C1728 C1726 1.391 . S
C1728 C1729 1.400 . S
C1729 C1723 1.491 . S
C1729 C1728 1.400 . S
C1729 C1730 1.398 . S
C1730 H1718 0.950 . S
C1730 C1729 1.398 . S
C1730 C1731 1.391 . S
C1731 H1719 0.950 . S
C1731 C1727 1.393 . S
C1731 C1730 1.391 . S
H1732 C1740 0.950 . S
H1733 C1745 0.950 . S
H1734 C1742 0.950 . S
H1735 C1744 0.950 . S
H1736 C1746 0.950 . S
H1737 C1748 0.950 . S
H1738 C1750 0.950 . S
H1739 C1751 0.950 . S
C1740 H1732 0.950 . S
C1740 C1741 1.386 . S
C1740 C1742 1.391 . S
C1741 C1740 1.386 . S
C1741 C1745 1.393 . S
C1742 H1734 0.950 . S
C1742 C1740 1.391 . S
C1742 C1743 1.400 . S
C1743 C1742 1.400 . S
C1743 C1744 1.398 . S
C1743 C1749 1.491 . S
C1744 H1735 0.950 . S
C1744 C1743 1.398 . S
C1744 C1745 1.391 . S
C1745 H1733 0.950 . S
C1745 C1741 1.393 . S
C1745 C1744 1.391 . S
C1746 H1736 0.950 . S
C1746 C1747 1.386 . S
C1746 C1748 1.391 . S
C1747 C1746 1.386 . S
C1747 C1751 1.393 . S
C1748 H1737 0.950 . S
C1748 C1746 1.391 . S
C1748 C1749 1.400 . S
C1749 C1743 1.491 . S
C1749 C1748 1.400 . S
C1749 C1750 1.398 . S
C1750 H1738 0.950 . S
C1750 C1749 1.398 . S
C1750 C1751 1.391 . S
C1751 H1739 0.950 . S
C1751 C1747 1.393 . S
C1751 C1750 1.391 . S
H1752 C1760 0.950 . S
H1753 C1765 0.950 . S
H1754 C1762 0.950 . S
H1755 C1764 0.950 . S
H1756 C1766 0.950 . S
H1757 C1768 0.950 . S
H1758 C1770 0.950 . S
H1759 C1771 0.950 . S
C1760 H1752 0.950 . S
C1760 C1761 1.386 . S
C1760 C1762 1.391 . S
C1761 C1760 1.386 . S
C1761 C1765 1.393 . S
C1762 H1754 0.950 . S
C1762 C1760 1.391 . S
C1762 C1763 1.400 . S
C1763 C1762 1.400 . S
C1763 C1764 1.398 . S
C1763 C1769 1.491 . S
C1764 H1755 0.950 . S
C1764 C1763 1.398 . S
C1764 C1765 1.391 . S
C1765 H1753 0.950 . S
C1765 C1761 1.393 . S
C1765 C1764 1.391 . S
C1766 H1756 0.950 . S
C1766 C1767 1.386 . S
C1766 C1768 1.391 . S
C1767 C1766 1.386 . S
C1767 C1771 1.393 . S
C1768 H1757 0.950 . S
C1768 C1766 1.391 . S
C1768 C1769 1.400 . S
C1769 C1763 1.491 . S
C1769 C1768 1.400 . S
C1769 C1770 1.398 . S
C1770 H1758 0.950 . S
C1770 C1769 1.398 . S
C1770 C1771 1.391 . S
C1771 H1759 0.950 . S
C1771 C1767 1.393 . S
C1771 C1770 1.391 . S
H1772 C1780 0.950 . S
H1773 C1785 0.950 . S
H1774 C1782 0.950 . S
H1775 C1784 0.950 . S
H1776 C1786 0.950 . S
H1777 C1788 0.950 . S
H1778 C1790 0.950 . S
H1779 C1791 0.950 . S
C1780 H1772 0.950 . S
C1780 C1781 1.386 . S
C1780 C1782 1.391 . S
C1781 C1780 1.386 . S
C1781 C1785 1.393 . S
C1782 H1774 0.950 . S
C1782 C1780 1.391 . S
C1782 C1783 1.400 . S
C1783 C1782 1.400 . S
C1783 C1784 1.398 . S
C1783 C1789 1.491 . S
C1784 H1775 0.950 . S
C1784 C1783 1.398 . S
C1784 C1785 1.391 . S
C1785 H1773 0.950 . S
C1785 C1781 1.393 . S
C1785 C1784 1.391 . S
C1786 H1776 0.950 . S
C1786 C1787 1.386 . S
C1786 C1788 1.391 . S
C1787 C1786 1.386 . S
C1787 C1791 1.393 . S
C1788 H1777 0.950 . S
C1788 C1786 1.391 . S
C1788 C1789 1.400 . S
C1789 C1783 1.491 . S
C1789 C1788 1.400 . S
C1789 C1790 1.398 . S
C1790 H1778 0.950 . S
C1790 C1789 1.398 . S
C1790 C1791 1.391 . S
C1791 H1779 0.950 . S
C1791 C1787 1.393 . S
C1791 C1790 1.391 . S
H1792 C1800 0.950 . S
H1793 C1805 0.950 . S
H1794 C1802 0.950 . S
H1795 C1804 0.950 . S
H1796 C1806 0.950 . S
H1797 C1808 0.950 . S
H1798 C1810 0.950 . S
H1799 C1811 0.950 . S
C1800 H1792 0.950 . S
C1800 C1801 1.386 . S
C1800 C1802 1.391 . S
C1801 C1800 1.386 . S
C1801 C1805 1.393 . S
C1802 H1794 0.950 . S
C1802 C1800 1.391 . S
C1802 C1803 1.400 . S
C1803 C1802 1.400 . S
C1803 C1804 1.398 . S
C1803 C1809 1.491 . S
C1804 H1795 0.950 . S
C1804 C1803 1.398 . S
C1804 C1805 1.391 . S
C1805 H1793 0.950 . S
C1805 C1801 1.393 . S
C1805 C1804 1.391 . S
C1806 H1796 0.950 . S
C1806 C1807 1.386 . S
C1806 C1808 1.391 . S
C1807 C1806 1.386 . S
C1807 C1811 1.393 . S
C1808 H1797 0.950 . S
C1808 C1806 1.391 . S
C1808 C1809 1.400 . S
C1809 C1803 1.491 . S
C1809 C1808 1.400 . S
C1809 C1810 1.398 . S
C1810 H1798 0.950 . S
C1810 C1809 1.398 . S
C1810 C1811 1.391 . S
C1811 H1799 0.950 . S
C1811 C1807 1.393 . S
C1811 C1810 1.391 . S
H1812 C1820 0.950 . S
H1813 C1825 0.950 . S
H1814 C1822 0.950 . S
H1815 C1824 0.950 . S
H1816 C1826 0.950 . S
H1817 C1828 0.950 . S
H1818 C1830 0.950 . S
H1819 C1831 0.950 . S
C1820 H1812 0.950 . S
C1820 C1821 1.386 . S
C1820 C1822 1.391 . S
C1821 C1820 1.386 . S
C1821 C1825 1.393 . S
C1822 H1814 0.950 . S
C1822 C1820 1.391 . S
C1822 C1823 1.400 . S
C1823 C1822 1.400 . S
C1823 C1824 1.398 . S
C1823 C1829 1.491 . S
C1824 H1815 0.950 . S
C1824 C1823 1.398 . S
C1824 C1825 1.391 . S
C1825 H1813 0.950 . S
C1825 C1821 1.393 . S
C1825 C1824 1.391 . S
C1826 H1816 0.950 . S
C1826 C1827 1.386 . S
C1826 C1828 1.391 . S
C1827 C1826 1.386 . S
C1827 C1831 1.393 . S
C1828 H1817 0.950 . S
C1828 C1826 1.391 . S
C1828 C1829 1.400 . S
C1829 C1823 1.491 . S
C1829 C1828 1.400 . S
C1829 C1830 1.398 . S
C1830 H1818 0.950 . S
C1830 C1829 1.398 . S
C1830 C1831 1.391 . S
C1831 H1819 0.950 . S
C1831 C1827 1.393 . S
C1831 C1830 1.391 . S
H1832 C1840 0.950 . S
H1833 C1845 0.950 . S
H1834 C1842 0.950 . S
H1835 C1844 0.950 . S
H1836 C1846 0.950 . S
H1837 C1848 0.950 . S
H1838 C1850 0.950 . S
H1839 C1851 0.950 . S
C1840 H1832 0.950 . S
C1840 C1841 1.386 . S
C1840 C1842 1.391 . S
C1841 C1840 1.386 . S
C1841 C1845 1.393 . S
C1842 H1834 0.950 . S
C1842 C1840 1.391 . S
C1842 C1843 1.400 . S
C1843 C1842 1.400 . S
C1843 C1844 1.398 . S
C1843 C1849 1.491 . S
C1844 H1835 0.950 . S
C1844 C1843 1.398 . S
C1844 C1845 1.391 . S
C1845 H1833 0.950 . S
C1845 C1841 1.393 . S
C1845 C1844 1.391 . S
C1846 H1836 0.950 . S
C1846 C1847 1.386 . S
C1846 C1848 1.391 . S
C1847 C1846 1.386 . S
C1847 C1851 1.393 . S
C1848 H1837 0.950 . S
C1848 C1846 1.391 . S
C1848 C1849 1.400 . S
C1849 C1843 1.491 . S
C1849 C1848 1.400 . S
C1849 C1850 1.398 . S
C1850 H1838 0.950 . S
C1850 C1849 1.398 . S
C1850 C1851 1.391 . S
C1851 H1839 0.950 . S
C1851 C1847 1.393 . S
C1851 C1850 1.391 . S
H1852 C1860 0.950 . S
H1853 C1865 0.950 . S
H1854 C1862 0.950 . S
H1855 C1864 0.950 . S
H1856 C1866 0.950 . S
H1857 C1868 0.950 . S
H1858 C1870 0.950 . S
H1859 C1871 0.950 . S
C1860 H1852 0.950 . S
C1860 C1861 1.386 . S
C1860 C1862 1.391 . S
C1861 C1860 1.386 . S
C1861 C1865 1.393 . S
C1862 H1854 0.950 . S
C1862 C1860 1.391 . S
C1862 C1863 1.400 . S
C1863 C1862 1.400 . S
C1863 C1864 1.398 . S
C1863 C1869 1.491 . S
C1864 H1855 0.950 . S
C1864 C1863 1.398 . S
C1864 C1865 1.391 . S
C1865 H1853 0.950 . S
C1865 C1861 1.393 . S
C1865 C1864 1.391 . S
C1866 H1856 0.950 . S
C1866 C1867 1.386 . S
C1866 C1868 1.391 . S
C1867 C1866 1.386 . S
C1867 C1871 1.393 . S
C1868 H1857 0.950 . S
C1868 C1866 1.391 . S
C1868 C1869 1.400 . S
C1869 C1863 1.491 . S
C1869 C1868 1.400 . S
C1869 C1870 1.398 . S
C1870 H1858 0.950 . S
C1870 C1869 1.398 . S
C1870 C1871 1.391 . S
C1871 H1859 0.950 . S
C1871 C1867 1.393 . S
C1871 C1870 1.391 . S
H1872 C1880 0.950 . S
H1873 C1885 0.950 . S
H1874 C1882 0.950 . S
H1875 C1884 0.950 . S
H1876 C1886 0.950 . S
H1877 C1888 0.950 . S
H1878 C1890 0.950 . S
H1879 C1891 0.950 . S
C1880 H1872 0.950 . S
C1880 C1881 1.386 . S
C1880 C1882 1.391 . S
C1881 C1880 1.386 . S
C1881 C1885 1.393 . S
C1882 H1874 0.950 . S
C1882 C1880 1.391 . S
C1882 C1883 1.400 . S
C1883 C1882 1.400 . S
C1883 C1884 1.398 . S
C1883 C1889 1.491 . S
C1884 H1875 0.950 . S
C1884 C1883 1.398 . S
C1884 C1885 1.391 . S
C1885 H1873 0.950 . S
C1885 C1881 1.393 . S
C1885 C1884 1.391 . S
C1886 H1876 0.950 . S
C1886 C1887 1.386 . S
C1886 C1888 1.391 . S
C1887 C1886 1.386 . S
C1887 C1891 1.393 . S
C1888 H1877 0.950 . S
C1888 C1886 1.391 . S
C1888 C1889 1.400 . S
C1889 C1883 1.491 . S
C1889 C1888 1.400 . S
C1889 C1890 1.398 . S
C1890 H1878 0.950 . S
C1890 C1889 1.398 . S
C1890 C1891 1.391 . S
C1891 H1879 0.950 . S
C1891 C1887 1.393 . S
C1891 C1890 1.391 . S
H1892 C1900 0.950 . S
H1893 C1905 0.950 . S
H1894 C1902 0.950 . S
H1895 C1904 0.950 . S
H1896 C1906 0.950 . S
H1897 C1908 0.950 . S
H1898 C1910 0.950 . S
H1899 C1911 0.950 . S
C1900 H1892 0.950 . S
C1900 C1901 1.386 . S
C1900 C1902 1.391 . S
C1901 C1900 1.386 . S
C1901 C1905 1.393 . S
C1902 H1894 0.950 . S
C1902 C1900 1.391 . S
C1902 C1903 1.400 . S
C1903 C1902 1.400 . S
C1903 C1904 1.398 . S
C1903 C1909 1.491 . S
C1904 H1895 0.950 . S
C1904 C1903 1.398 . S
C1904 C1905 1.391 . S
C1905 H1893 0.950 . S
C1905 C1901 1.393 . S
C1905 C1904 1.391 . S
C1906 H1896 0.950 . S
C1906 C1907 1.386 . S
C1906 C1908 1.391 . S
C1907 C1906 1.386 . S
C1907 C1911 1.393 . S
C1908 H1897 0.950 . S
C1908 C1906 1.391 . S
C1908 C1909 1.400 . S
C1909 C1903 1.491 . S
C1909 C1908 1.400 . S
C1909 C1910 1.398 . S
C1910 H1898 0.950 . S
C1910 C1909 1.398 . S
C1910 C1911 1.391 . S
C1911 H1899 0.950 . S
C1911 C1907 1.393 . S
C1911 C1910 1.391 . S
H1912 C1920 0.950 . S
H1913 C1925 0.950 . S
H1914 C1922 0.950 . S
H1915 C1924 0.950 . S
H1916 C1926 0.950 . S
H1917 C1928 0.950 . S
H1918 C1930 0.950 . S
H1919 C1931 0.950 . S
C1920 H1912 0.950 . S
C1920 C1921 1.386 . S
C1920 C1922 1.391 . S
C1921 C1920 1.386 . S
C1921 C1925 1.393 . S
C1922 H1914 0.950 . S
C1922 C1920 1.391 . S
C1922 C1923 1.400 . S
C1923 C1922 1.400 . S
C1923 C1924 1.398 . S
C1923 C1929 1.491 . S
C1924 H1915 0.950 . S
C1924 C1923 1.398 . S
C1924 C1925 1.391 . S
C1925 H1913 0.950 . S
C1925 C1921 1.393 . S
C1925 C1924 1.391 . S
C1926 H1916 0.950 . S
C1926 C1927 1.386 . S
C1926 C1928 1.391 . S
C1927 C1926 1.386 . S
C1927 C1931 1.393 . S
C1928 H1917 0.950 . S
C1928 C1926 1.391 . S
C1928 C1929 1.400 . S
C1929 C1923 1.491 . S
C1929 C1928 1.400 . S
C1929 C1930 1.398 . S
C1930 H1918 0.950 . S
C1930 C1929 1.398 . S
C1930 C1931 1.391 . S
C1931 H1919 0.950 . S
C1931 C1927 1.393 . S
C1931 C1930 1.391 . S
H1932 C1940 0.950 . S
H1933 C1945 0.950 . S
H1934 C1942 0.950 . S
H1935 C1944 0.950 . S
H1936 C1946 0.950 . S
H1937 C1948 0.950 . S
H1938 C1950 0.950 . S
H1939 C1951 0.950 . S
C1940 H1932 0.950 . S
C1940 C1941 1.386 . S
C1940 C1942 1.391 . S
C1941 C1940 1.386 . S
C1941 C1945 1.393 . S
C1942 H1934 0.950 . S
C1942 C1940 1.391 . S
C1942 C1943 1.400 . S
C1943 C1942 1.400 . S
C1943 C1944 1.398 . S
C1943 C1949 1.491 . S
C1944 H1935 0.950 . S
C1944 C1943 1.398 . S
C1944 C1945 1.391 . S
C1945 H1933 0.950 . S
C1945 C1941 1.393 . S
C1945 C1944 1.391 . S
C1946 H1936 0.950 . S
C1946 C1947 1.386 . S
C1946 C1948 1.391 . S
C1947 C1946 1.386 . S
C1947 C1951 1.393 . S
C1948 H1937 0.950 . S
C1948 C1946 1.391 . S
C1948 C1949 1.400 . S
C1949 C1943 1.491 . S
C1949 C1948 1.400 . S
C1949 C1950 1.398 . S
C1950 H1938 0.950 . S
C1950 C1949 1.398 . S
C1950 C1951 1.391 . S
C1951 H1939 0.950 . S
C1951 C1947 1.393 . S
C1951 C1950 1.391 . S
H1952 C1960 0.950 . S
H1953 C1965 0.950 . S
H1954 C1962 0.950 . S
H1955 C1964 0.950 . S
H1956 C1966 0.950 . S
H1957 C1968 0.950 . S
H1958 C1970 0.950 . S
H1959 C1971 0.950 . S
C1960 H1952 0.950 . S
C1960 C1961 1.386 . S
C1960 C1962 1.391 . S
C1961 C1960 1.386 . S
C1961 C1965 1.393 . S
C1962 H1954 0.950 . S
C1962 C1960 1.391 . S
C1962 C1963 1.400 . S
C1963 C1962 1.400 . S
C1963 C1964 1.398 . S
C1963 C1969 1.491 . S
C1964 H1955 0.950 . S
C1964 C1963 1.398 . S
C1964 C1965 1.391 . S
C1965 H1953 0.950 . S
C1965 C1961 1.393 . S
C1965 C1964 1.391 . S
C1966 H1956 0.950 . S
C1966 C1967 1.386 . S
C1966 C1968 1.391 . S
C1967 C1966 1.386 . S
C1967 C1971 1.393 . S
C1968 H1957 0.950 . S
C1968 C1966 1.391 . S
C1968 C1969 1.400 . S
C1969 C1963 1.491 . S
C1969 C1968 1.400 . S
C1969 C1970 1.398 . S
C1970 H1958 0.950 . S
C1970 C1969 1.398 . S
C1970 C1971 1.391 . S
C1971 H1959 0.950 . S
C1971 C1967 1.393 . S
C1971 C1970 1.391 . S
H1972 C1980 0.950 . S
H1973 C1985 0.950 . S
H1974 C1982 0.950 . S
H1975 C1984 0.950 . S
H1976 C1986 0.950 . S
H1977 C1988 0.950 . S
H1978 C1990 0.950 . S
H1979 C1991 0.950 . S
C1980 H1972 0.950 . S
C1980 C1981 1.386 . S
C1980 C1982 1.391 . S
C1981 C1980 1.386 . S
C1981 C1985 1.393 . S
C1982 H1974 0.950 . S
C1982 C1980 1.391 . S
C1982 C1983 1.400 . S
C1983 C1982 1.400 . S
C1983 C1984 1.398 . S
C1983 C1989 1.491 . S
C1984 H1975 0.950 . S
C1984 C1983 1.398 . S
C1984 C1985 1.391 . S
C1985 H1973 0.950 . S
C1985 C1981 1.393 . S
C1985 C1984 1.391 . S
C1986 H1976 0.950 . S
C1986 C1987 1.386 . S
C1986 C1988 1.391 . S
C1987 C1986 1.386 . S
C1987 C1991 1.393 . S
C1988 H1977 0.950 . S
C1988 C1986 1.391 . S
C1988 C1989 1.400 . S
C1989 C1983 1.491 . S
C1989 C1988 1.400 . S
C1989 C1990 1.398 . S
C1990 H1978 0.950 . S
C1990 C1989 1.398 . S
C1990 C1991 1.391 . S
C1991 H1979 0.950 . S
C1991 C1987 1.393 . S
C1991 C1990 1.391 . S
H1992 C2000 0.950 . S
H1993 C2005 0.950 . S
H1994 C2002 0.950 . S
H1995 C2004 0.950 . S
H1996 C2006 0.950 . S
H1997 C2008 0.950 . S
H1998 C2010 0.950 . S
H1999 C2011 0.950 . S
C2000 H1992 0.950 . S
C2000 C2001 1.386 . S
C2000 C2002 1.391 . S
C2001 C2000 1.386 . S
C2001 C2005 1.393 . S
C2002 H1994 0.950 . S
C2002 C2000 1.391 . S
C2002 C2003 1.400 . S
C2003 C2002 1.400 . S
C2003 C2004 1.398 . S
C2003 C2009 1.491 . S
C2004 H1995 0.950 . S
C2004 C2003 1.398 . S
C2004 C2005 1.391 . S
C2005 H1993 0.950 . S
C2005 C2001 1.393 . S
C2005 C2004 1.391 . S
C2006 H1996 0.950 . S
C2006 C2007 1.386 . S
C2006 C2008 1.391 . S
C2007 C2006 1.386 . S
C2007 C2011 1.393 . S
C2008 H1997 0.950 . S
C2008 C2006 1.391 . S
C2008 C2009 1.400 . S
C2009 C2003 1.491 . S
C2009 C2008 1.400 . S
C2009 C2010 1.398 . S
C2010 H1998 0.950 . S
C2010 C2009 1.398 . S
C2010 C2011 1.391 . S
C2011 H1999 0.950 . S
C2011 C2007 1.393 . S
C2011 C2010 1.391 . S
H2012 C2020 0.950 . S
H2013 C2025 0.950 . S
H2014 C2022 0.950 . S
H2015 C2024 0.950 . S
H2016 C2026 0.950 . S
H2017 C2028 0.950 . S
H2018 C2030 0.950 . S
H2019 C2031 0.950 . S
C2020 H2012 0.950 . S
C2020 C2021 1.386 . S
C2020 C2022 1.391 . S
C2021 C2020 1.386 . S
C2021 C2025 1.393 . S
C2022 H2014 0.950 . S
C2022 C2020 1.391 . S
C2022 C2023 1.400 . S
C2023 C2022 1.400 . S
C2023 C2024 1.398 . S
C2023 C2029 1.491 . S
C2024 H2015 0.950 . S
C2024 C2023 1.398 . S
C2024 C2025 1.391 . S
C2025 H2013 0.950 . S
C2025 C2021 1.393 . S
C2025 C2024 1.391 . S
C2026 H2016 0.950 . S
C2026 C2027 1.386 . S
C2026 C2028 1.391 . S
C2027 C2026 1.386 . S
C2027 C2031 1.393 . S
C2028 H2017 0.950 . S
C2028 C2026 1.391 . S
C2028 C2029 1.400 . S
C2029 C2023 1.491 . S
C2029 C2028 1.400 . S
C2029 C2030 1.398 . S
C2030 H2018 0.950 . S
C2030 C2029 1.398 . S
C2030 C2031 1.391 . S
C2031 H2019 0.950 . S
C2031 C2027 1.393 . S
C2031 C2030 1.391 . S
H2032 C2040 0.950 . S
H2033 C2045 0.950 . S
H2034 C2042 0.950 . S
H2035 C2044 0.950 . S
H2036 C2046 0.950 . S
H2037 C2048 0.950 . S
H2038 C2050 0.950 . S
H2039 C2051 0.950 . S
C2040 H2032 0.950 . S
C2040 C2041 1.386 . S
C2040 C2042 1.391 . S
C2041 C2040 1.386 . S
C2041 C2045 1.393 . S
C2042 H2034 0.950 . S
C2042 C2040 1.391 . S
C2042 C2043 1.400 . S
C2043 C2042 1.400 . S
C2043 C2044 1.398 . S
C2043 C2049 1.491 . S
C2044 H2035 0.950 . S
C2044 C2043 1.398 . S
C2044 C2045 1.391 . S
C2045 H2033 0.950 . S
C2045 C2041 1.393 . S
C2045 C2044 1.391 . S
C2046 H2036 0.950 . S
C2046 C2047 1.386 . S
C2046 C2048 1.391 . S
C2047 C2046 1.386 . S
C2047 C2051 1.393 . S
C2048 H2037 0.950 . S
C2048 C2046 1.391 . S
C2048 C2049 1.400 . S
C2049 C2043 1.491 . S
C2049 C2048 1.400 . S
C2049 C2050 1.398 . S
C2050 H2038 0.950 . S
C2050 C2049 1.398 . S
C2050 C2051 1.391 . S
C2051 H2039 0.950 . S
C2051 C2047 1.393 . S
C2051 C2050 1.391 . S
H2052 C2060 0.950 . S
H2053 C2065 0.950 . S
H2054 C2062 0.950 . S
H2055 C2064 0.950 . S
H2056 C2066 0.950 . S
H2057 C2068 0.950 . S
H2058 C2070 0.950 . S
H2059 C2071 0.950 . S
C2060 H2052 0.950 . S
C2060 C2061 1.386 . S
C2060 C2062 1.391 . S
C2061 C2060 1.386 . S
C2061 C2065 1.393 . S
C2062 H2054 0.950 . S
C2062 C2060 1.391 . S
C2062 C2063 1.400 . S
C2063 C2062 1.400 . S
C2063 C2064 1.398 . S
C2063 C2069 1.491 . S
C2064 H2055 0.950 . S
C2064 C2063 1.398 . S
C2064 C2065 1.391 . S
C2065 H2053 0.950 . S
C2065 C2061 1.393 . S
C2065 C2064 1.391 . S
C2066 H2056 0.950 . S
C2066 C2067 1.386 . S
C2066 C2068 1.391 . S
C2067 C2066 1.386 . S
C2067 C2071 1.393 . S
C2068 H2057 0.950 . S
C2068 C2066 1.391 . S
C2068 C2069 1.400 . S
C2069 C2063 1.491 . S
C2069 C2068 1.400 . S
C2069 C2070 1.398 . S
C2070 H2058 0.950 . S
C2070 C2069 1.398 . S
C2070 C2071 1.391 . S
C2071 H2059 0.950 . S
C2071 C2067 1.393 . S
C2071 C2070 1.391 . S
H2072 C2080 0.950 . S
H2073 C2085 0.950 . S
H2074 C2082 0.950 . S
H2075 C2084 0.950 . S
H2076 C2086 0.950 . S
H2077 C2088 0.950 . S
H2078 C2090 0.950 . S
H2079 C2091 0.950 . S
C2080 H2072 0.950 . S
C2080 C2081 1.386 . S
C2080 C2082 1.391 . S
C2081 C2080 1.386 . S
C2081 C2085 1.393 . S
C2082 H2074 0.950 . S
C2082 C2080 1.391 . S
C2082 C2083 1.400 . S
C2083 C2082 1.400 . S
C2083 C2084 1.398 . S
C2083 C2089 1.491 . S
C2084 H2075 0.950 . S
C2084 C2083 1.398 . S
C2084 C2085 1.391 . S
C2085 H2073 0.950 . S
C2085 C2081 1.393 . S
C2085 C2084 1.391 . S
C2086 H2076 0.950 . S
C2086 C2087 1.386 . S
C2086 C2088 1.391 . S
C2087 C2086 1.386 . S
C2087 C2091 1.393 . S
C2088 H2077 0.950 . S
C2088 C2086 1.391 . S
C2088 C2089 1.400 . S
C2089 C2083 1.491 . S
C2089 C2088 1.400 . S
C2089 C2090 1.398 . S
C2090 H2078 0.950 . S
C2090 C2089 1.398 . S
C2090 C2091 1.391 . S
C2091 H2079 0.950 . S
C2091 C2087 1.393 . S
C2091 C2090 1.391 . S
H2092 C2100 0.950 . S
H2093 C2105 0.950 . S
H2094 C2102 0.950 . S
H2095 C2104 0.950 . S
H2096 C2106 0.950 . S
H2097 C2108 0.950 . S
H2098 C2110 0.950 . S
H2099 C2111 0.950 . S
C2100 H2092 0.950 . S
C2100 C2101 1.386 . S
C2100 C2102 1.391 . S
C2101 C2100 1.386 . S
C2101 C2105 1.393 . S
C2102 H2094 0.950 . S
C2102 C2100 1.391 . S
C2102 C2103 1.400 . S
C2103 C2102 1.400 . S
C2103 C2104 1.398 . S
C2103 C2109 1.491 . S
C2104 H2095 0.950 . S
C2104 C2103 1.398 . S
C2104 C2105 1.391 . S
C2105 H2093 0.950 . S
C2105 C2101 1.393 . S
C2105 C2104 1.391 . S
C2106 H2096 0.950 . S
C2106 C2107 1.386 . S
C2106 C2108 1.391 . S
C2107 C2106 1.386 . S
C2107 C2111 1.393 . S
C2108 H2097 0.950 . S
C2108 C2106 1.391 . S
C2108 C2109 1.400 . S
C2109 C2103 1.491 . S
C2109 C2108 1.400 . S
C2109 C2110 1.398 . S
C2110 H2098 0.950 . S
C2110 C2109 1.398 . S
C2110 C2111 1.391 . S
C2111 H2099 0.950 . S
C2111 C2107 1.393 . S
C2111 C2110 1.391 . S
H2112 C2120 0.950 . S
H2113 C2125 0.950 . S
H2114 C2122 0.950 . S
H2115 C2124 0.950 . S
H2116 C2126 0.950 . S
H2117 C2128 0.950 . S
H2118 C2130 0.950 . S
H2119 C2131 0.950 . S
C2120 H2112 0.950 . S
C2120 C2121 1.386 . S
C2120 C2122 1.391 . S
C2121 C2120 1.386 . S
C2121 C2125 1.393 . S
C2122 H2114 0.950 . S
C2122 C2120 1.391 . S
C2122 C2123 1.400 . S
C2123 C2122 1.400 . S
C2123 C2124 1.398 . S
C2123 C2129 1.491 . S
C2124 H2115 0.950 . S
C2124 C2123 1.398 . S
C2124 C2125 1.391 . S
C2125 H2113 0.950 . S
C2125 C2121 1.393 . S
C2125 C2124 1.391 . S
C2126 H2116 0.950 . S
C2126 C2127 1.386 . S
C2126 C2128 1.391 . S
C2127 C2126 1.386 . S
C2127 C2131 1.393 . S
C2128 H2117 0.950 . S
C2128 C2126 1.391 . S
C2128 C2129 1.400 . S
C2129 C2123 1.491 . S
C2129 C2128 1.400 . S
C2129 C2130 1.398 . S
C2130 H2118 0.950 . S
C2130 C2129 1.398 . S
C2130 C2131 1.391 . S
C2131 H2119 0.950 . S
C2131 C2127 1.393 . S
C2131 C2130 1.391 . S
H2132 C2140 0.950 . S
H2133 C2145 0.950 . S
H2134 C2142 0.950 . S
H2135 C2144 0.950 . S
H2136 C2146 0.950 . S
H2137 C2148 0.950 . S
H2138 C2150 0.950 . S
H2139 C2151 0.950 . S
C2140 H2132 0.950 . S
C2140 C2141 1.386 . S
C2140 C2142 1.391 . S
C2141 C2140 1.386 . S
C2141 C2145 1.393 . S
C2142 H2134 0.950 . S
C2142 C2140 1.391 . S
C2142 C2143 1.400 . S
C2143 C2142 1.400 . S
C2143 C2144 1.398 . S
C2143 C2149 1.491 . S
C2144 H2135 0.950 . S
C2144 C2143 1.398 . S
C2144 C2145 1.391 . S
C2145 H2133 0.950 . S
C2145 C2141 1.393 . S
C2145 C2144 1.391 . S
C2146 H2136 0.950 . S
C2146 C2147 1.386 . S
C2146 C2148 1.391 . S
C2147 C2146 1.386 . S
C2147 C2151 1.393 . S
C2148 H2137 0.950 . S
C2148 C2146 1.391 . S
C2148 C2149 1.400 . S
C2149 C2143 1.491 . S
C2149 C2148 1.400 . S
C2149 C2150 1.398 . S
C2150 H2138 0.950 . S
C2150 C2149 1.398 . S
C2150 C2151 1.391 . S
C2151 H2139 0.950 . S
C2151 C2147 1.393 . S
C2151 C2150 1.391 . S
H2152 C2160 0.950 . S
H2153 C2165 0.950 . S
H2154 C2162 0.950 . S
H2155 C2164 0.950 . S
H2156 C2166 0.950 . S
H2157 C2168 0.950 . S
H2158 C2170 0.950 . S
H2159 C2171 0.950 . S
C2160 H2152 0.950 . S
C2160 C2161 1.386 . S
C2160 C2162 1.391 . S
C2161 C2160 1.386 . S
C2161 C2165 1.393 . S
C2162 H2154 0.950 . S
C2162 C2160 1.391 . S
C2162 C2163 1.400 . S
C2163 C2162 1.400 . S
C2163 C2164 1.398 . S
C2163 C2169 1.491 . S
C2164 H2155 0.950 . S
C2164 C2163 1.398 . S
C2164 C2165 1.391 . S
C2165 H2153 0.950 . S
C2165 C2161 1.393 . S
C2165 C2164 1.391 . S
C2166 H2156 0.950 . S
C2166 C2167 1.386 . S
C2166 C2168 1.391 . S
C2167 C2166 1.386 . S
C2167 C2171 1.393 . S
C2168 H2157 0.950 . S
C2168 C2166 1.391 . S
C2168 C2169 1.400 . S
C2169 C2163 1.491 . S
C2169 C2168 1.400 . S
C2169 C2170 1.398 . S
C2170 H2158 0.950 . S
C2170 C2169 1.398 . S
C2170 C2171 1.391 . S
C2171 H2159 0.950 . S
C2171 C2167 1.393 . S
C2171 C2170 1.391 . S
H2172 C2180 0.950 . S
H2173 C2185 0.950 . S
H2174 C2182 0.950 . S
H2175 C2184 0.950 . S
H2176 C2186 0.950 . S
H2177 C2188 0.950 . S
H2178 C2190 0.950 . S
H2179 C2191 0.950 . S
C2180 H2172 0.950 . S
C2180 C2181 1.386 . S
C2180 C2182 1.391 . S
C2181 C2180 1.386 . S
C2181 C2185 1.393 . S
C2182 H2174 0.950 . S
C2182 C2180 1.391 . S
C2182 C2183 1.400 . S
C2183 C2182 1.400 . S
C2183 C2184 1.398 . S
C2183 C2189 1.491 . S
C2184 H2175 0.950 . S
C2184 C2183 1.398 . S
C2184 C2185 1.391 . S
C2185 H2173 0.950 . S
C2185 C2181 1.393 . S
C2185 C2184 1.391 . S
C2186 H2176 0.950 . S
C2186 C2187 1.386 . S
C2186 C2188 1.391 . S
C2187 C2186 1.386 . S
C2187 C2191 1.393 . S
C2188 H2177 0.950 . S
C2188 C2186 1.391 . S
C2188 C2189 1.400 . S
C2189 C2183 1.491 . S
C2189 C2188 1.400 . S
C2189 C2190 1.398 . S
C2190 H2178 0.950 . S
C2190 C2189 1.398 . S
C2190 C2191 1.391 . S
C2191 H2179 0.950 . S
C2191 C2187 1.393 . S
C2191 C2190 1.391 . S
H2192 C2200 0.950 . S
H2193 C2205 0.950 . S
H2194 C2202 0.950 . S
H2195 C2204 0.950 . S
H2196 C2206 0.950 . S
H2197 C2208 0.950 . S
H2198 C2210 0.950 . S
H2199 C2211 0.950 . S
C2200 H2192 0.950 . S
C2200 C2201 1.386 . S
C2200 C2202 1.391 . S
C2201 C2200 1.386 . S
C2201 C2205 1.393 . S
C2202 H2194 0.950 . S
C2202 C2200 1.391 . S
C2202 C2203 1.400 . S
C2203 C2202 1.400 . S
C2203 C2204 1.398 . S
C2203 C2209 1.491 . S
C2204 H2195 0.950 . S
C2204 C2203 1.398 . S
C2204 C2205 1.391 . S
C2205 H2193 0.950 . S
C2205 C2201 1.393 . S
C2205 C2204 1.391 . S
C2206 H2196 0.950 . S
C2206 C2207 1.386 . S
C2206 C2208 1.391 . S
C2207 C2206 1.386 . S
C2207 C2211 1.393 . S
C2208 H2197 0.950 . S
C2208 C2206 1.391 . S
C2208 C2209 1.400 . S
C2209 C2203 1.491 . S
C2209 C2208 1.400 . S
C2209 C2210 1.398 . S
C2210 H2198 0.950 . S
C2210 C2209 1.398 . S
C2210 C2211 1.391 . S
C2211 H2199 0.950 . S
C2211 C2207 1.393 . S
C2211 C2210 1.391 . S
H2212 C2220 0.950 . S
H2213 C2225 0.950 . S
H2214 C2222 0.950 . S
H2215 C2224 0.950 . S
H2216 C2226 0.950 . S
H2217 C2228 0.950 . S
H2218 C2230 0.950 . S
H2219 C2231 0.950 . S
C2220 H2212 0.950 . S
C2220 C2221 1.386 . S
C2220 C2222 1.391 . S
C2221 C2220 1.386 . S
C2221 C2225 1.393 . S
C2222 H2214 0.950 . S
C2222 C2220 1.391 . S
C2222 C2223 1.400 . S
C2223 C2222 1.400 . S
C2223 C2224 1.398 . S
C2223 C2229 1.491 . S
C2224 H2215 0.950 . S
C2224 C2223 1.398 . S
C2224 C2225 1.391 . S
C2225 H2213 0.950 . S
C2225 C2221 1.393 . S
C2225 C2224 1.391 . S
C2226 H2216 0.950 . S
C2226 C2227 1.386 . S
C2226 C2228 1.391 . S
C2227 C2226 1.386 . S
C2227 C2231 1.393 . S
C2228 H2217 0.950 . S
C2228 C2226 1.391 . S
C2228 C2229 1.400 . S
C2229 C2223 1.491 . S
C2229 C2228 1.400 . S
C2229 C2230 1.398 . S
C2230 H2218 0.950 . S
C2230 C2229 1.398 . S
C2230 C2231 1.391 . S
C2231 H2219 0.950 . S
C2231 C2227 1.393 . S
C2231 C2230 1.391 . S
H2232 C2240 0.950 . S
H2233 C2245 0.950 . S
H2234 C2242 0.950 . S
H2235 C2244 0.950 . S
H2236 C2246 0.950 . S
H2237 C2248 0.950 . S
H2238 C2250 0.950 . S
H2239 C2251 0.950 . S
C2240 H2232 0.950 . S
C2240 C2241 1.386 . S
C2240 C2242 1.391 . S
C2241 C2240 1.386 . S
C2241 C2245 1.393 . S
C2242 H2234 0.950 . S
C2242 C2240 1.391 . S
C2242 C2243 1.400 . S
C2243 C2242 1.400 . S
C2243 C2244 1.398 . S
C2243 C2249 1.491 . S
C2244 H2235 0.950 . S
C2244 C2243 1.398 . S
C2244 C2245 1.391 . S
C2245 H2233 0.950 . S
C2245 C2241 1.393 . S
C2245 C2244 1.391 . S
C2246 H2236 0.950 . S
C2246 C2247 1.386 . S
C2246 C2248 1.391 . S
C2247 C2246 1.386 . S
C2247 C2251 1.393 . S
C2248 H2237 0.950 . S
C2248 C2246 1.391 . S
C2248 C2249 1.400 . S
C2249 C2243 1.491 . S
C2249 C2248 1.400 . S
C2249 C2250 1.398 . S
C2250 H2238 0.950 . S
C2250 C2249 1.398 . S
C2250 C2251 1.391 . S
C2251 H2239 0.950 . S
C2251 C2247 1.393 . S
C2251 C2250 1.391 . S
H2252 C2260 0.950 . S
H2253 C2265 0.950 . S
H2254 C2262 0.950 . S
H2255 C2264 0.950 . S
H2256 C2266 0.950 . S
H2257 C2268 0.950 . S
H2258 C2270 0.950 . S
H2259 C2271 0.950 . S
C2260 H2252 0.950 . S
C2260 C2261 1.386 . S
C2260 C2262 1.391 . S
C2261 C2260 1.386 . S
C2261 C2265 1.393 . S
C2262 H2254 0.950 . S
C2262 C2260 1.391 . S
C2262 C2263 1.400 . S
C2263 C2262 1.400 . S
C2263 C2264 1.398 . S
C2263 C2269 1.491 . S
C2264 H2255 0.950 . S
C2264 C2263 1.398 . S
C2264 C2265 1.391 . S
C2265 H2253 0.950 . S
C2265 C2261 1.393 . S
C2265 C2264 1.391 . S
C2266 H2256 0.950 . S
C2266 C2267 1.386 . S
C2266 C2268 1.391 . S
C2267 C2266 1.386 . S
C2267 C2271 1.393 . S
C2268 H2257 0.950 . S
C2268 C2266 1.391 . S
C2268 C2269 1.400 . S
C2269 C2263 1.491 . S
C2269 C2268 1.400 . S
C2269 C2270 1.398 . S
C2270 H2258 0.950 . S
C2270 C2269 1.398 . S
C2270 C2271 1.391 . S
C2271 H2259 0.950 . S
C2271 C2267 1.393 . S
C2271 C2270 1.391 . S
H2272 C2280 0.950 . S
H2273 C2285 0.950 . S
H2274 C2282 0.950 . S
H2275 C2284 0.950 . S
H2276 C2286 0.950 . S
H2277 C2288 0.950 . S
H2278 C2290 0.950 . S
H2279 C2291 0.950 . S
C2280 H2272 0.950 . S
C2280 C2281 1.386 . S
C2280 C2282 1.391 . S
C2281 C2280 1.386 . S
C2281 C2285 1.393 . S
C2282 H2274 0.950 . S
C2282 C2280 1.391 . S
C2282 C2283 1.400 . S
C2283 C2282 1.400 . S
C2283 C2284 1.398 . S
C2283 C2289 1.491 . S
C2284 H2275 0.950 . S
C2284 C2283 1.398 . S
C2284 C2285 1.391 . S
C2285 H2273 0.950 . S
C2285 C2281 1.393 . S
C2285 C2284 1.391 . S
C2286 H2276 0.950 . S
C2286 C2287 1.386 . S
C2286 C2288 1.391 . S
C2287 C2286 1.386 . S
C2287 C2291 1.393 . S
C2288 H2277 0.950 . S
C2288 C2286 1.391 . S
C2288 C2289 1.400 . S
C2289 C2283 1.491 . S
C2289 C2288 1.400 . S
C2289 C2290 1.398 . S
C2290 H2278 0.950 . S
C2290 C2289 1.398 . S
C2290 C2291 1.391 . S
C2291 H2279 0.950 . S
C2291 C2287 1.393 . S
C2291 C2290 1.391 . S
H2292 C2300 0.950 . S
H2293 C2305 0.950 . S
H2294 C2302 0.950 . S
H2295 C2304 0.950 . S
H2296 C2306 0.950 . S
H2297 C2308 0.950 . S
H2298 C2310 0.950 . S
H2299 C2311 0.950 . S
C2300 H2292 0.950 . S
C2300 C2301 1.386 . S
C2300 C2302 1.391 . S
C2301 C2300 1.386 . S
C2301 C2305 1.393 . S
C2302 H2294 0.950 . S
C2302 C2300 1.391 . S
C2302 C2303 1.400 . S
C2303 C2302 1.400 . S
C2303 C2304 1.398 . S
C2303 C2309 1.491 . S
C2304 H2295 0.950 . S
C2304 C2303 1.398 . S
C2304 C2305 1.391 . S
C2305 H2293 0.950 . S
C2305 C2301 1.393 . S
C2305 C2304 1.391 . S
C2306 H2296 0.950 . S
C2306 C2307 1.386 . S
C2306 C2308 1.391 . S
C2307 C2306 1.386 . S
C2307 C2311 1.393 . S
C2308 H2297 0.950 . S
C2308 C2306 1.391 . S
C2308 C2309 1.400 . S
C2309 C2303 1.491 . S
C2309 C2308 1.400 . S
C2309 C2310 1.398 . S
C2310 H2298 0.950 . S
C2310 C2309 1.398 . S
C2310 C2311 1.391 . S
C2311 H2299 0.950 . S
C2311 C2307 1.393 . S
C2311 C2310 1.391 . S
H2312 C2320 0.950 . S
H2313 C2325 0.950 . S
H2314 C2322 0.950 . S
H2315 C2324 0.950 . S
H2316 C2326 0.950 . S
H2317 C2328 0.950 . S
H2318 C2330 0.950 . S
H2319 C2331 0.950 . S
C2320 H2312 0.950 . S
C2320 C2321 1.386 . S
C2320 C2322 1.391 . S
C2321 C2320 1.386 . S
C2321 C2325 1.393 . S
C2322 H2314 0.950 . S
C2322 C2320 1.391 . S
C2322 C2323 1.400 . S
C2323 C2322 1.400 . S
C2323 C2324 1.398 . S
C2323 C2329 1.491 . S
C2324 H2315 0.950 . S
C2324 C2323 1.398 . S
C2324 C2325 1.391 . S
C2325 H2313 0.950 . S
C2325 C2321 1.393 . S
C2325 C2324 1.391 . S
C2326 H2316 0.950 . S
C2326 C2327 1.386 . S
C2326 C2328 1.391 . S
C2327 C2326 1.386 . S
C2327 C2331 1.393 . S
C2328 H2317 0.950 . S
C2328 C2326 1.391 . S
C2328 C2329 1.400 . S
C2329 C2323 1.491 . S
C2329 C2328 1.400 . S
C2329 C2330 1.398 . S
C2330 H2318 0.950 . S
C2330 C2329 1.398 . S
C2330 C2331 1.391 . S
C2331 H2319 0.950 . S
C2331 C2327 1.393 . S
C2331 C2330 1.391 . S
H2332 C2340 0.950 . S
H2333 C2345 0.950 . S
H2334 C2342 0.950 . S
H2335 C2344 0.950 . S
H2336 C2346 0.950 . S
H2337 C2348 0.950 . S
H2338 C2350 0.950 . S
H2339 C2351 0.950 . S
C2340 H2332 0.950 . S
C2340 C2341 1.386 . S
C2340 C2342 1.391 . S
C2341 C2340 1.386 . S
C2341 C2345 1.393 . S
C2342 H2334 0.950 . S
C2342 C2340 1.391 . S
C2342 C2343 1.400 . S
C2343 C2342 1.400 . S
C2343 C2344 1.398 . S
C2343 C2349 1.491 . S
C2344 H2335 0.950 . S
C2344 C2343 1.398 . S
C2344 C2345 1.391 . S
C2345 H2333 0.950 . S
C2345 C2341 1.393 . S
C2345 C2344 1.391 . S
C2346 H2336 0.950 . S
C2346 C2347 1.386 . S
C2346 C2348 1.391 . S
C2347 C2346 1.386 . S
C2347 C2351 1.393 . S
C2348 H2337 0.950 . S
C2348 C2346 1.391 . S
C2348 C2349 1.400 . S
C2349 C2343 1.491 . S
C2349 C2348 1.400 . S
C2349 C2350 1.398 . S
C2350 H2338 0.950 . S
C2350 C2349 1.398 . S
C2350 C2351 1.391 . S
C2351 H2339 0.950 . S
C2351 C2347 1.393 . S
C2351 C2350 1.391 . S
H2352 C2360 0.950 . S
H2353 C2365 0.950 . S
H2354 C2362 0.950 . S
H2355 C2364 0.950 . S
H2356 C2366 0.950 . S
H2357 C2368 0.950 . S
H2358 C2370 0.950 . S
H2359 C2371 0.950 . S
C2360 H2352 0.950 . S
C2360 C2361 1.386 . S
C2360 C2362 1.391 . S
C2361 C2360 1.386 . S
C2361 C2365 1.393 . S
C2362 H2354 0.950 . S
C2362 C2360 1.391 . S
C2362 C2363 1.400 . S
C2363 C2362 1.400 . S
C2363 C2364 1.398 . S
C2363 C2369 1.491 . S
C2364 H2355 0.950 . S
C2364 C2363 1.398 . S
C2364 C2365 1.391 . S
C2365 H2353 0.950 . S
C2365 C2361 1.393 . S
C2365 C2364 1.391 . S
C2366 H2356 0.950 . S
C2366 C2367 1.386 . S
C2366 C2368 1.391 . S
C2367 C2366 1.386 . S
C2367 C2371 1.393 . S
C2368 H2357 0.950 . S
C2368 C2366 1.391 . S
C2368 C2369 1.400 . S
C2369 C2363 1.491 . S
C2369 C2368 1.400 . S
C2369 C2370 1.398 . S
C2370 H2358 0.950 . S
C2370 C2369 1.398 . S
C2370 C2371 1.391 . S
C2371 H2359 0.950 . S
C2371 C2367 1.393 . S
C2371 C2370 1.391 . S
H2372 C2380 0.950 . S
H2373 C2385 0.950 . S
H2374 C2382 0.950 . S
H2375 C2384 0.950 . S
H2376 C2386 0.950 . S
H2377 C2388 0.950 . S
H2378 C2390 0.950 . S
H2379 C2391 0.950 . S
C2380 H2372 0.950 . S
C2380 C2381 1.386 . S
C2380 C2382 1.391 . S
C2381 C2380 1.386 . S
C2381 C2385 1.393 . S
C2382 H2374 0.950 . S
C2382 C2380 1.391 . S
C2382 C2383 1.400 . S
C2383 C2382 1.400 . S
C2383 C2384 1.398 . S
C2383 C2389 1.491 . S
C2384 H2375 0.950 . S
C2384 C2383 1.398 . S
C2384 C2385 1.391 . S
C2385 H2373 0.950 . S
C2385 C2381 1.393 . S
C2385 C2384 1.391 . S
C2386 H2376 0.950 . S
C2386 C2387 1.386 . S
C2386 C2388 1.391 . S
C2387 C2386 1.386 . S
C2387 C2391 1.393 . S
C2388 H2377 0.950 . S
C2388 C2386 1.391 . S
C2388 C2389 1.400 . S
C2389 C2383 1.491 . S
C2389 C2388 1.400 . S
C2389 C2390 1.398 . S
C2390 H2378 0.950 . S
C2390 C2389 1.398 . S
C2390 C2391 1.391 . S
C2391 H2379 0.950 . S
C2391 C2387 1.393 . S
C2391 C2390 1.391 . S
H2392 C2400 0.950 . S
H2393 C2405 0.950 . S
H2394 C2402 0.950 . S
H2395 C2404 0.950 . S
H2396 C2406 0.950 . S
H2397 C2408 0.950 . S
H2398 C2410 0.950 . S
H2399 C2411 0.950 . S
C2400 H2392 0.950 . S
C2400 C2401 1.386 . S
C2400 C2402 1.391 . S
C2401 C2400 1.386 . S
C2401 C2405 1.393 . S
C2402 H2394 0.950 . S
C2402 C2400 1.391 . S
C2402 C2403 1.400 . S
C2403 C2402 1.400 . S
C2403 C2404 1.398 . S
C2403 C2409 1.491 . S
C2404 H2395 0.950 . S
C2404 C2403 1.398 . S
C2404 C2405 1.391 . S
C2405 H2393 0.950 . S
C2405 C2401 1.393 . S
C2405 C2404 1.391 . S
C2406 H2396 0.950 . S
C2406 C2407 1.386 . S
C2406 C2408 1.391 . S
C2407 C2406 1.386 . S
C2407 C2411 1.393 . S
C2408 H2397 0.950 . S
C2408 C2406 1.391 . S
C2408 C2409 1.400 . S
C2409 C2403 1.491 . S
C2409 C2408 1.400 . S
C2409 C2410 1.398 . S
C2410 H2398 0.950 . S
C2410 C2409 1.398 . S
C2410 C2411 1.391 . S
C2411 H2399 0.950 . S
C2411 C2407 1.393 . S
C2411 C2410 1.391 . S
H2412 C2420 0.950 . S
H2413 C2425 0.950 . S
H2414 C2422 0.950 . S
H2415 C2424 0.950 . S
H2416 C2426 0.950 . S
H2417 C2428 0.950 . S
H2418 C2430 0.950 . S
H2419 C2431 0.950 . S
C2420 H2412 0.950 . S
C2420 C2421 1.386 . S
C2420 C2422 1.391 . S
C2421 C2420 1.386 . S
C2421 C2425 1.393 . S
C2422 H2414 0.950 . S
C2422 C2420 1.391 . S
C2422 C2423 1.400 . S
C2423 C2422 1.400 . S
C2423 C2424 1.398 . S
C2423 C2429 1.491 . S
C2424 H2415 0.950 . S
C2424 C2423 1.398 . S
C2424 C2425 1.391 . S
C2425 H2413 0.950 . S
C2425 C2421 1.393 . S
C2425 C2424 1.391 . S
C2426 H2416 0.950 . S
C2426 C2427 1.386 . S
C2426 C2428 1.391 . S
C2427 C2426 1.386 . S
C2427 C2431 1.393 . S
C2428 H2417 0.950 . S
C2428 C2426 1.391 . S
C2428 C2429 1.400 . S
C2429 C2423 1.491 . S
C2429 C2428 1.400 . S
C2429 C2430 1.398 . S
C2430 H2418 0.950 . S
C2430 C2429 1.398 . S
C2430 C2431 1.391 . S
C2431 H2419 0.950 . S
C2431 C2427 1.393 . S
C2431 C2430 1.391 . S
H2432 C2440 0.950 . S
H2433 C2445 0.950 . S
H2434 C2442 0.950 . S
H2435 C2444 0.950 . S
H2436 C2446 0.950 . S
H2437 C2448 0.950 . S
H2438 C2450 0.950 . S
H2439 C2451 0.950 . S
C2440 H2432 0.950 . S
C2440 C2441 1.386 . S
C2440 C2442 1.391 . S
C2441 C2440 1.386 . S
C2441 C2445 1.393 . S
C2442 H2434 0.950 . S
C2442 C2440 1.391 . S
C2442 C2443 1.400 . S
C2443 C2442 1.400 . S
C2443 C2444 1.398 . S
C2443 C2449 1.491 . S
C2444 H2435 0.950 . S
C2444 C2443 1.398 . S
C2444 C2445 1.391 . S
C2445 H2433 0.950 . S
C2445 C2441 1.393 . S
C2445 C2444 1.391 . S
C2446 H2436 0.950 . S
C2446 C2447 1.386 . S
C2446 C2448 1.391 . S
C2447 C2446 1.386 . S
C2447 C2451 1.393 . S
C2448 H2437 0.950 . S
C2448 C2446 1.391 . S
C2448 C2449 1.400 . S
C2449 C2443 1.491 . S
C2449 C2448 1.400 . S
C2449 C2450 1.398 . S
C2450 H2438 0.950 . S
C2450 C2449 1.398 . S
C2450 C2451 1.391 . S
C2451 H2439 0.950 . S
C2451 C2447 1.393 . S
C2451 C2450 1.391 . S
H2452 C2460 0.950 . S
H2453 C2465 0.950 . S
H2454 C2462 0.950 . S
H2455 C2464 0.950 . S
H2456 C2466 0.950 . S
H2457 C2468 0.950 . S
H2458 C2470 0.950 . S
H2459 C2471 0.950 . S
C2460 H2452 0.950 . S
C2460 C2461 1.386 . S
C2460 C2462 1.391 . S
C2461 C2460 1.386 . S
C2461 C2465 1.393 . S
C2462 H2454 0.950 . S
C2462 C2460 1.391 . S
C2462 C2463 1.400 . S
C2463 C2462 1.400 . S
C2463 C2464 1.398 . S
C2463 C2469 1.491 . S
C2464 H2455 0.950 . S
C2464 C2463 1.398 . S
C2464 C2465 1.391 . S
C2465 H2453 0.950 . S
C2465 C2461 1.393 . S
C2465 C2464 1.391 . S
C2466 H2456 0.950 . S
C2466 C2467 1.386 . S
C2466 C2468 1.391 . S
C2467 C2466 1.386 . S
C2467 C2471 1.393 . S
C2468 H2457 0.950 . S
C2468 C2466 1.391 . S
C2468 C2469 1.400 . S
C2469 C2463 1.491 . S
C2469 C2468 1.400 . S
C2469 C2470 1.398 . S
C2470 H2458 0.950 . S
C2470 C2469 1.398 . S
C2470 C2471 1.391 . S
C2471 H2459 0.950 . S
C2471 C2467 1.393 . S
C2471 C2470 1.391 . S
H2472 C2480 0.950 . S
H2473 C2485 0.950 . S
H2474 C2482 0.950 . S
H2475 C2484 0.950 . S
H2476 C2486 0.950 . S
H2477 C2488 0.950 . S
H2478 C2490 0.950 . S
H2479 C2491 0.950 . S
C2480 H2472 0.950 . S
C2480 C2481 1.386 . S
C2480 C2482 1.391 . S
C2481 C2480 1.386 . S
C2481 C2485 1.393 . S
C2482 H2474 0.950 . S
C2482 C2480 1.391 . S
C2482 C2483 1.400 . S
C2483 C2482 1.400 . S
C2483 C2484 1.398 . S
C2483 C2489 1.491 . S
C2484 H2475 0.950 . S
C2484 C2483 1.398 . S
C2484 C2485 1.391 . S
C2485 H2473 0.950 . S
C2485 C2481 1.393 . S
C2485 C2484 1.391 . S
C2486 H2476 0.950 . S
C2486 C2487 1.386 . S
C2486 C2488 1.391 . S
C2487 C2486 1.386 . S
C2487 C2491 1.393 . S
C2488 H2477 0.950 . S
C2488 C2486 1.391 . S
C2488 C2489 1.400 . S
C2489 C2483 1.491 . S
C2489 C2488 1.400 . S
C2489 C2490 1.398 . S
C2490 H2478 0.950 . S
C2490 C2489 1.398 . S
C2490 C2491 1.391 . S
C2491 H2479 0.950 . S
C2491 C2487 1.393 . S
C2491 C2490 1.391 . S
H2492 C2500 0.950 . S
H2493 C2505 0.950 . S
H2494 C2502 0.950 . S
H2495 C2504 0.950 . S
H2496 C2506 0.950 . S
H2497 C2508 0.950 . S
H2498 C2510 0.950 . S
H2499 C2511 0.950 . S
C2500 H2492 0.950 . S
C2500 C2501 1.386 . S
C2500 C2502 1.391 . S
C2501 C2500 1.386 . S
C2501 C2505 1.393 . S
C2502 H2494 0.950 . S
C2502 C2500 1.391 . S
C2502 C2503 1.400 . S
C2503 C2502 1.400 . S
C2503 C2504 1.398 . S
C2503 C2509 1.491 . S
C2504 H2495 0.950 . S
C2504 C2503 1.398 . S
C2504 C2505 1.391 . S
C2505 H2493 0.950 . S
C2505 C2501 1.393 . S
C2505 C2504 1.391 . S
C2506 H2496 0.950 . S
C2506 C2507 1.386 . S
C2506 C2508 1.391 . S
C2507 C2506 1.386 . S
C2507 C2511 1.393 . S
C2508 H2497 0.950 . S
C2508 C2506 1.391 . S
C2508 C2509 1.400 . S
C2509 C2503 1.491 . S
C2509 C2508 1.400 . S
C2509 C2510 1.398 . S
C2510 H2498 0.950 . S
C2510 C2509 1.398 . S
C2510 C2511 1.391 . S
C2511 H2499 0.950 . S
C2511 C2507 1.393 . S
C2511 C2510 1.391 . S
H2512 C2520 0.950 . S
H2513 C2525 0.950 . S
H2514 C2522 0.950 . S
H2515 C2524 0.950 . S
H2516 C2526 0.950 . S
H2517 C2528 0.950 . S
H2518 C2530 0.950 . S
H2519 C2531 0.950 . S
C2520 H2512 0.950 . S
C2520 C2521 1.386 . S
C2520 C2522 1.391 . S
C2521 C2520 1.386 . S
C2521 C2525 1.393 . S
C2522 H2514 0.950 . S
C2522 C2520 1.391 . S
C2522 C2523 1.400 . S
C2523 C2522 1.400 . S
C2523 C2524 1.398 . S
C2523 C2529 1.491 . S
C2524 H2515 0.950 . S
C2524 C2523 1.398 . S
C2524 C2525 1.391 . S
C2525 H2513 0.950 . S
C2525 C2521 1.393 . S
C2525 C2524 1.391 . S
C2526 H2516 0.950 . S
C2526 C2527 1.386 . S
C2526 C2528 1.391 . S
C2527 C2526 1.386 . S
C2527 C2531 1.393 . S
C2528 H2517 0.950 . S
C2528 C2526 1.391 . S
C2528 C2529 1.400 . S
C2529 C2523 1.491 . S
C2529 C2528 1.400 . S
C2529 C2530 1.398 . S
C2530 H2518 0.950 . S
C2530 C2529 1.398 . S
C2530 C2531 1.391 . S
C2531 H2519 0.950 . S
C2531 C2527 1.393 . S
C2531 C2530 1.391 . S
H2532 C2540 0.950 . S
H2533 C2545 0.950 . S
H2534 C2542 0.950 . S
H2535 C2544 0.950 . S
H2536 C2546 0.950 . S
H2537 C2548 0.950 . S
H2538 C2550 0.950 . S
H2539 C2551 0.950 . S
C2540 H2532 0.950 . S
C2540 C2541 1.386 . S
C2540 C2542 1.391 . S
C2541 C2540 1.386 . S
C2541 C2545 1.393 . S
C2542 H2534 0.950 . S
C2542 C2540 1.391 . S
C2542 C2543 1.400 . S
C2543 C2542 1.400 . S
C2543 C2544 1.398 . S
C2543 C2549 1.491 . S
C2544 H2535 0.950 . S
C2544 C2543 1.398 . S
C2544 C2545 1.391 . S
C2545 H2533 0.950 . S
C2545 C2541 1.393 . S
C2545 C2544 1.391 . S
C2546 H2536 0.950 . S
C2546 C2547 1.386 . S
C2546 C2548 1.391 . S
C2547 C2546 1.386 . S
C2547 C2551 1.393 . S
C2548 H2537 0.950 . S
C2548 C2546 1.391 . S
C2548 C2549 1.400 . S
C2549 C2543 1.491 . S
C2549 C2548 1.400 . S
C2549 C2550 1.398 . S
C2550 H2538 0.950 . S
C2550 C2549 1.398 . S
C2550 C2551 1.391 . S
C2551 H2539 0.950 . S
C2551 C2547 1.393 . S
C2551 C2550 1.391 . S
H2552 C2560 0.950 . S
H2553 C2565 0.950 . S
H2554 C2562 0.950 . S
H2555 C2564 0.950 . S
H2556 C2566 0.950 . S
H2557 C2568 0.950 . S
H2558 C2570 0.950 . S
H2559 C2571 0.950 . S
C2560 H2552 0.950 . S
C2560 C2561 1.386 . S
C2560 C2562 1.391 . S
C2561 C2560 1.386 . S
C2561 C2565 1.393 . S
C2562 H2554 0.950 . S
C2562 C2560 1.391 . S
C2562 C2563 1.400 . S
C2563 C2562 1.400 . S
C2563 C2564 1.398 . S
C2563 C2569 1.491 . S
C2564 H2555 0.950 . S
C2564 C2563 1.398 . S
C2564 C2565 1.391 . S
C2565 H2553 0.950 . S
C2565 C2561 1.393 . S
C2565 C2564 1.391 . S
C2566 H2556 0.950 . S
C2566 C2567 1.386 . S
C2566 C2568 1.391 . S
C2567 C2566 1.386 . S
C2567 C2571 1.393 . S
C2568 H2557 0.950 . S
C2568 C2566 1.391 . S
C2568 C2569 1.400 . S
C2569 C2563 1.491 . S
C2569 C2568 1.400 . S
C2569 C2570 1.398 . S
C2570 H2558 0.950 . S
C2570 C2569 1.398 . S
C2570 C2571 1.391 . S
C2571 H2559 0.950 . S
C2571 C2567 1.393 . S
C2571 C2570 1.391 . S
H2572 C2580 0.950 . S
H2573 C2585 0.950 . S
H2574 C2582 0.950 . S
H2575 C2584 0.950 . S
H2576 C2586 0.950 . S
H2577 C2588 0.950 . S
H2578 C2590 0.950 . S
H2579 C2591 0.950 . S
C2580 H2572 0.950 . S
C2580 C2581 1.386 . S
C2580 C2582 1.391 . S
C2581 C2580 1.386 . S
C2581 C2585 1.393 . S
C2582 H2574 0.950 . S
C2582 C2580 1.391 . S
C2582 C2583 1.400 . S
C2583 C2582 1.400 . S
C2583 C2584 1.398 . S
C2583 C2589 1.491 . S
C2584 H2575 0.950 . S
C2584 C2583 1.398 . S
C2584 C2585 1.391 . S
C2585 H2573 0.950 . S
C2585 C2581 1.393 . S
C2585 C2584 1.391 . S
C2586 H2576 0.950 . S
C2586 C2587 1.386 . S
C2586 C2588 1.391 . S
C2587 C2586 1.386 . S
C2587 C2591 1.393 . S
C2588 H2577 0.950 . S
C2588 C2586 1.391 . S
C2588 C2589 1.400 . S
C2589 C2583 1.491 . S
C2589 C2588 1.400 . S
C2589 C2590 1.398 . S
C2590 H2578 0.950 . S
C2590 C2589 1.398 . S
C2590 C2591 1.391 . S
C2591 H2579 0.950 . S
C2591 C2587 1.393 . S
C2591 C2590 1.391 . S
C681 C397 1.035 . S
C687 C5 0.982 . S
C701 C19 1.021 . S
C707 C411 0.995 . S
C721 C425 1.028 . S
C727 C33 0.989 . S
C741 C47 0.998 . S
C747 C439 1.019 . S
C761 C341 0.984 . S
C767 C61 1.033 . S
C781 C75 0.978 . S
C787 C355 1.038 . S
C801 C369 1.005 . S
C807 C89 1.012 . S
C821 C103 1.008 . S
C827 C383 1.009 . S
C841 C537 0.979 . S
C847 C117 1.037 . S
C861 C551 1.038 . S
C867 C131 0.978 . S
C881 C509 1.034 . S
C887 C145 0.982 . S
C901 C159 1.037 . S
C907 C523 0.979 . S
C921 C481 0.991 . S
C927 C173 1.025 . S
C941 C495 0.980 . S
C947 C187 1.036 . S
C961 C201 0.986 . S
C967 C453 1.031 . S
C981 C467 1.013 . S
C987 C215 1.004 . S
C1001 C229 1.037 . S
C1007 C635 0.979 . S
C1021 C607 1.001 . S
C1027 C243 1.016 . S
C1041 C621 0.978 . S
C1047 C257 1.038 . S
C1061 C579 1.008 . S
C1067 C271 1.009 . S
C1081 C593 0.996 . S
C1087 C285 1.021 . S
C1101 C299 1.017 . S
C1107 C565 1.000 . S
C1121 C313 1.030 . S
C1127 C663 0.986 . S
C1141 C649 0.996 . S
C1147 C327 1.021 . S
C1161 C109 1.452 . S
C1167 C11 1.468 . S
C1181 C67 1.465 . S
C1187 C25 1.449 . S
C1201 C81 1.471 . S
C1207 C39 1.444 . S
C1221 C95 1.447 . S
C1227 C53 1.468 . S
C1241 C291 1.470 . S
C1247 C123 1.449 . S
C1261 C249 1.466 . S
C1267 C137 1.454 . S
C1281 C263 1.473 . S
C1287 C151 1.444 . S
C1301 C277 1.471 . S
C1307 C165 1.448 . S
C1321 C333 1.446 . S
C1327 C179 1.472 . S
C1341 C305 1.444 . S
C1347 C193 1.472 . S
C1361 C207 1.446 . S
C1367 C319 1.473 . S
C1381 C235 1.462 . S
C1387 C221 1.452 . S
C1401 C445 1.453 . S
C1407 C347 1.460 . S
C1421 C403 1.470 . S
C1427 C361 1.445 . S
C1441 C375 1.473 . S
C1447 C417 1.445 . S
C1461 C389 1.447 . S
C1467 C431 1.472 . S
C1481 C459 1.463 . S
C1487 C627 1.458 . S
C1501 C473 1.472 . S
C1507 C585 1.444 . S
C1521 C599 1.473 . S
C1527 C487 1.445 . S
C1541 C613 1.457 . S
C1547 C501 1.456 . S
C1561 C669 1.473 . S
C1567 C515 1.444 . S
C1581 C641 1.447 . S
C1587 C529 1.472 . S
C1601 C655 1.473 . S
C1607 C543 1.446 . S
C1621 C557 1.445 . S
C1627 C571 1.469 . S
C1641 C4 0.969 . S
C1647 C124 0.912 . S
C1661 C138 0.920 . S
C1667 C18 0.959 . S
C1681 C152 0.935 . S
C1687 C32 0.958 . S
C1701 C166 0.915 . S
C1707 C46 0.971 . S
C1721 C60 0.929 . S
C1727 C180 0.957 . S
C1741 C194 0.915 . S
C1747 C74 0.964 . S
C1761 C88 0.959 . S
C1767 C208 0.920 . S
C1781 C222 0.961 . S
C1787 C102 0.933 . S
C1801 C236 0.922 . S
C1807 C116 0.957 . S
C1821 C334 0.936 . S
C1827 C130 0.944 . S
C1841 C144 0.971 . S
C1847 C306 0.913 . S
C1861 C158 0.960 . S
C1867 C320 0.919 . S
C1881 C172 0.935 . S
C1887 C250 0.947 . S
C1901 C186 0.943 . S
C1907 C264 0.953 . S
C1921 C200 0.928 . S
C1927 C278 0.959 . S
C1941 C214 0.930 . S
C1947 C292 0.956 . S
C1961 C228 0.971 . S
C1967 C12 0.912 . S
C1981 C242 0.927 . S
C1987 C68 0.961 . S
C2001 C256 0.968 . S
C2007 C82 0.913 . S
C2021 C270 0.941 . S
C2027 C96 0.954 . S
C2041 C284 0.971 . S
C2047 C110 0.914 . S
C2061 C298 0.966 . S
C2067 C40 0.924 . S
C2081 C54 0.914 . S
C2087 C312 0.966 . S
C2101 C26 0.931 . S
C2107 C326 0.949 . S
C2121 C460 0.928 . S
C2127 C340 0.964 . S
C2141 C474 0.955 . S
C2147 C354 0.930 . S
C2161 C488 0.937 . S
C2167 C368 0.943 . S
C2181 C502 0.918 . S
C2187 C382 0.970 . S
C2201 C516 0.912 . S
C2207 C396 0.970 . S
C2221 C410 0.927 . S
C2227 C530 0.963 . S
C2241 C544 0.958 . S
C2247 C424 0.937 . S
C2261 C438 0.956 . S
C2267 C558 0.938 . S
C2281 C572 0.963 . S
C2287 C452 0.928 . S
C2301 C466 0.970 . S
C2307 C670 0.912 . S
C2321 C480 0.958 . S
C2327 C642 0.921 . S
C2341 C656 0.931 . S
C2347 C494 0.962 . S
C2361 C586 0.926 . S
C2367 C508 0.965 . S
C2381 C522 0.950 . S
C2387 C600 0.929 . S
C2401 C536 0.971 . S
C2407 C614 0.913 . S
C2421 C628 0.963 . S
C2427 C550 0.927 . S
C2441 C348 0.955 . S
C2447 C564 0.930 . S
C2461 C404 0.912 . S
C2467 C578 0.970 . S
C2481 C418 0.927 . S
C2487 C592 0.964 . S
C2501 C606 0.930 . S
C2507 C432 0.956 . S
C2521 C446 0.922 . S
C2527 C620 0.968 . S
C2541 C376 0.959 . S
C2547 C634 0.928 . S
C2561 C648 0.932 . S
C2567 C390 0.962 . S
C2581 C362 0.960 . S
C2587 C662 0.928 . S
