# Generated by pormake.
# Topology rob, (6)-cn, num edge types: 1
# Building blocks:
#     Node 0, Type 0, BuildingBlock: MIFKUJ_clean_sbu_0, # of connection points: 6
#     Node 1, Type 0, BuildingBlock: MIFKUJ_clean_sbu_0, # of connection points: 6
#     Node 2, Type 0, BuildingBlock: MIFKUJ_clean_sbu_0, # of connection points: 6
#     Node 3, Type 0, BuildingBlock: MIFKUJ_clean_sbu_0, # of connection points: 6
#     Edge 4, Type (0, 0), BuildingBlock: TEMPAE_clean_linker_10, # of connection points: 2
#     Edge 5, Type (0, 0), BuildingBlock: TEMPAE_clean_linker_10, # of connection points: 2
#     Edge 6, Type (0, 0), BuildingBlock: TEMPAE_clean_linker_10, # of connection points: 2
#     Edge 7, Type (0, 0), BuildingBlock: TEMPAE_clean_linker_10, # of connection points: 2
#     Edge 8, Type (0, 0), BuildingBlock: TEMPAE_clean_linker_10, # of connection points: 2
#     Edge 9, Type (0, 0), BuildingBlock: TEMPAE_clean_linker_10, # of connection points: 2
#     Edge 10, Type (0, 0), BuildingBlock: TEMPAE_clean_linker_10, # of connection points: 2
#     Edge 11, Type (0, 0), BuildingBlock: TEMPAE_clean_linker_10, # of connection points: 2
#     Edge 12, Type (0, 0), BuildingBlock: TEMPAE_clean_linker_10, # of connection points: 2
#     Edge 13, Type (0, 0), BuildingBlock: TEMPAE_clean_linker_10, # of connection points: 2
#     Edge 14, Type (0, 0), BuildingBlock: TEMPAE_clean_linker_10, # of connection points: 2
#     Edge 15, Type (0, 0), BuildingBlock: TEMPAE_clean_linker_10, # of connection points: 2
# Relax obj value: 0.071
# Max RMSD: 0.165
# Mean RMSD: 0.165
data_MOF--net-rob--node1-MIFKUJ_clean_sbu_0--edge1-TEMPAE_clean_linker_10
_symmetry_space_group_name_H-M    P1
_symmetry_Int_Tables_number       1
_symmetry_cell_setting            triclinic
loop_
_symmetry_equiv_pos_as_xyz
'x, y, z'
_cell_length_a     16.003244
_cell_length_b     23.459537
_cell_length_c     31.039766
_cell_angle_alpha  90.014556
_cell_angle_beta   83.864943
_cell_angle_gamma 90.170616
loop_
_atom_site_label
_atom_site_type_symbol
_atom_site_fract_x
_atom_site_fract_y
_atom_site_fract_z
_atom_type_partial_charge
Zn0 Zn 0.27735 0.25813 0.91301 0.0
Zn1 Zn 0.32686 0.20495 0.00743 0.0
C2 C 0.43312 0.24792 0.86152 0.0
O3 O 0.43409 0.3024 0.87126 0.0
C4 C 0.17997 0.21086 0.06437 0.0
O5 O 0.18711 0.15586 0.05712 0.0
O6 O 0.22072 0.29392 0.86421 0.0
O7 O 0.19227 0.20367 0.94161 0.0
O8 O 0.27774 0.14496 0.97073 0.0
C9 C 0.21297 0.25896 0.8335 0.0
O10 O 0.23607 0.20579 0.83796 0.0
O11 O 0.37517 0.21665 0.88023 0.0
C12 C 0.40615 0.20446 0.0824 0.0
O13 O 0.38935 0.25837 0.07595 0.0
O14 O 0.38647 0.16787 0.05486 0.0
O15 O 0.4081 0.263 0.97924 0.0
O16 O 0.31948 0.31961 0.95027 0.0
O17 O 0.23141 0.24461 0.04321 0.0
C18 C 0.20749 0.15486 0.95654 0.0
C19 C 0.38513 0.31268 0.96936 0.0
Zn20 Zn 0.64964 0.77571 0.01968 0.0
Zn21 Zn 0.78151 0.75088 0.07831 0.0
C22 C 0.72972 0.78042 0.93601 0.0
O23 O 0.67985 0.82494 0.93819 0.0
C24 C 0.66444 0.74667 0.15242 0.0
O25 O 0.69983 0.69624 0.15316 0.0
O26 O 0.54504 0.78553 0.9892 0.0
O27 O 0.62234 0.71055 0.06175 0.0
O28 O 0.75044 0.67807 0.05072 0.0
C29 C 0.52777 0.73879 0.97121 0.0
O30 O 0.5688 0.6928 0.9805 0.0
O31 O 0.73308 0.74988 0.96969 0.0
C32 C 0.88979 0.77297 0.14148 0.0
O33 O 0.86526 0.82515 0.13409 0.0
O34 O 0.86905 0.73289 0.11724 0.0
O35 O 0.82216 0.81188 0.03714 0.0
O36 O 0.69699 0.85157 0.03795 0.0
O37 O 0.68665 0.78012 0.12101 0.0
C38 C 0.67214 0.66861 0.05605 0.0
C39 C 0.77685 0.85506 0.0318 0.0
Zn40 Zn 0.24802 0.73896 0.60368 0.0
Zn41 Zn 0.20029 0.72887 0.4873 0.0
C42 C 0.11269 0.77041 0.65948 0.0
O43 O 0.16121 0.81579 0.65493 0.0
C44 C 0.25936 0.80048 0.4148 0.0
O45 O 0.17876 0.80221 0.41053 0.0
O46 O 0.31699 0.75113 0.65357 0.0
O47 O 0.2958 0.66794 0.5725 0.0
O48 O 0.26342 0.66229 0.50477 0.0
C49 C 0.29891 0.71566 0.68416 0.0
O50 O 0.24758 0.67321 0.67835 0.0
O51 O 0.13188 0.72745 0.63538 0.0
C52 C 0.04643 0.71517 0.44243 0.0
O53 O 0.00483 0.74619 0.47272 0.0
O54 O 0.12112 0.70004 0.44673 0.0
O55 O 0.14455 0.7721 0.5373 0.0
O56 O 0.24407 0.81232 0.56979 0.0
O57 O 0.2835 0.77648 0.44815 0.0
C58 C 0.2983 0.64214 0.53626 0.0
C59 C 0.18483 0.81649 0.54588 0.0
Zn60 Zn 0.83222 0.26878 0.49698 0.0
Zn61 Zn 0.74592 0.20977 0.42191 0.0
C62 C 0.69738 0.26224 0.56229 0.0
O63 O 0.70797 0.31753 0.55766 0.0
C64 C 0.88515 0.21267 0.35869 0.0
O65 O 0.88075 0.15808 0.36812 0.0
O66 O 0.90403 0.30314 0.54055 0.0
O67 O 0.90539 0.21215 0.46293 0.0
O68 O 0.79937 0.15325 0.45969 0.0
C69 C 0.91929 0.266 0.56857 0.0
O70 O 0.89497 0.21312 0.56345 0.0
O71 O 0.74135 0.22893 0.53675 0.0
C72 C 0.60276 0.17742 0.37463 0.0
O73 O 0.55858 0.21111 0.40211 0.0
O74 O 0.67924 0.16784 0.37975 0.0
O75 O 0.67327 0.27004 0.45282 0.0
O76 O 0.77615 0.32896 0.46435 0.0
O77 O 0.83514 0.24688 0.38012 0.0
C78 C 0.87596 0.16194 0.4651 0.0
C79 C 0.69884 0.32001 0.46058 0.0
C80 C 0.68216 0.57605 0.01682 0.0
C81 C 0.63831 0.61192 0.04741 0.0
C82 C 0.6454 0.52558 0.0036 0.0
C83 C 0.56396 0.51019 0.02233 0.0
C84 C 0.52117 0.54498 0.05477 0.0
C85 C 0.55849 0.59597 0.0665 0.0
C86 C 0.69204 0.49015 0.96823 0.0
C87 C 0.43511 0.52912 0.07624 0.0
C88 C 0.42399 0.41575 0.96158 0.0
C89 C 0.4347 0.36259 0.98082 0.0
C90 C 0.46796 0.46388 0.97381 0.0
C91 C 0.52191 0.45886 0.00692 0.0
C92 C 0.5337 0.40523 0.0261 0.0
C93 C 0.49119 0.35751 0.01218 0.0
C94 C 0.45603 0.52019 0.95167 0.0
C95 C 0.58934 0.39851 0.06214 0.0
H96 H 0.7435 0.58886 1.00163 0.0
H97 H 0.52482 0.6238 0.09023 0.0
H98 H 0.69697 0.44536 0.97906 0.0
H99 H 0.65658 0.48971 0.9394 0.0
H100 H 0.75632 0.50678 0.95836 0.0
H101 H 0.41348 0.55837 0.10329 0.0
H102 H 0.38886 0.53035 0.05207 0.0
H103 H 0.43555 0.48496 0.08902 0.0
H104 H 0.38133 0.41975 0.93687 0.0
H105 H 0.50071 0.31644 0.02677 0.0
H106 H 0.51785 0.53778 0.93828 0.0
H107 H 0.42715 0.55152 0.97552 0.0
H108 H 0.41544 0.51622 0.92493 0.0
H109 H 0.65431 0.41247 0.05096 0.0
H110 H 0.59133 0.3538 0.07378 0.0
H111 H 0.56617 0.42612 0.08989 0.0
C112 C 0.36148 0.56666 0.48664 0.0
C113 C 0.34885 0.58967 0.52861 0.0
C114 C 0.4156 0.52065 0.47715 0.0
C115 C 0.45751 0.49645 0.51052 0.0
C116 C 0.44249 0.51761 0.55337 0.0
C117 C 0.38855 0.56434 0.56191 0.0
C118 C 0.43023 0.49932 0.431 0.0
C119 C 0.48521 0.49196 0.58984 0.0
C120 C 0.55283 0.35111 0.48557 0.0
C121 C 0.63702 0.36531 0.47265 0.0
C122 C 0.49413 0.3932 0.49946 0.0
C123 C 0.52009 0.45085 0.49971 0.0
C124 C 0.60499 0.46545 0.4868 0.0
C125 C 0.66266 0.42238 0.4737 0.0
C126 C 0.4043 0.37606 0.51356 0.0
C127 C 0.63459 0.52668 0.48614 0.0
H128 H 0.33103 0.58569 0.46062 0.0
H129 H 0.37874 0.5816 0.59445 0.0
H130 H 0.49709 0.5058 0.41833 0.0
H131 H 0.41718 0.45292 0.4298 0.0
H132 H 0.39026 0.52151 0.40917 0.0
H133 H 0.46157 0.5102 0.62185 0.0
H134 H 0.47557 0.4451 0.59095 0.0
H135 H 0.55393 0.4997 0.58411 0.0
H136 H 0.53295 0.3069 0.48552 0.0
H137 H 0.72774 0.43345 0.46391 0.0
H138 H 0.362 0.39504 0.49142 0.0
H139 H 0.38448 0.39267 0.54653 0.0
H140 H 0.39546 0.32906 0.51377 0.0
H141 H 0.60086 0.55162 0.46306 0.0
H142 H 0.70324 0.53066 0.47649 0.0
H143 H 0.61985 0.54617 0.51861 0.0
C144 C 0.14863 0.06235 0.98636 0.0
C145 C 0.139 0.11214 0.96247 0.0
C146 C 0.08168 0.02403 0.99534 0.0
C147 C 0.00359 0.0354 0.97954 0.0
C148 C 0.99396 0.0848 0.95451 0.0
C149 C 0.06173 0.12271 0.94638 0.0
C150 C 0.09426 0.97169 0.02223 0.0
C151 C 0.91197 0.09777 0.93664 0.0
C152 C 0.87034 0.90306 0.975 0.0
C153 C 0.81888 0.90677 0.01426 0.0
C154 C 0.92667 0.94687 0.96162 0.0
C155 C 0.93285 -0.00529 0.98888 0.0
C156 C 0.87726 0.00014 0.02744 0.0
C157 C 0.82019 0.95592 0.03961 0.0
C158 C 0.98362 0.93986 0.91993 0.0
C159 C 0.88246 0.05043 0.05741 0.0
H160 H 0.20797 0.05387 0.99896 0.0
H161 H 0.0538 0.16098 0.9277 0.0
H162 H 0.04804 0.97137 0.05155 0.0
H163 H 0.0832 0.93269 0.0034 0.0
H164 H 0.15851 0.96956 0.0326 0.0
H165 H 0.91532 0.13744 0.91699 0.0
H166 H 0.8942 0.06189 0.91614 0.0
H167 H 0.86107 0.10237 0.96361 0.0
H168 H 0.86922 0.86455 0.9557 0.0
H169 H 0.78095 0.95799 0.07029 0.0
H170 H 0.0483 0.9302 0.92748 0.0
H171 H 0.98661 0.97986 0.90077 0.0
H172 H 0.96239 0.90473 0.89964 0.0
H173 H 0.94178 0.04816 0.07287 0.0
H174 H 0.82895 0.05146 0.08335 0.0
H175 H 0.88366 0.09099 0.039 0.0
C176 C 0.89633 0.07273 0.50535 0.0
C177 C 0.92944 0.11493 0.47661 0.0
C178 C 0.94717 0.02849 0.51773 0.0
C179 C 0.03218 0.02557 0.49966 0.0
C180 C 0.06597 0.06839 0.47071 0.0
C181 C 0.0143 0.11327 0.46006 0.0
C182 C 0.90947 0.9843 0.54952 0.0
C183 C 0.15549 0.06563 0.44981 0.0
C184 C 0.17016 0.92235 0.55393 0.0
C185 C 0.15703 0.87224 0.53099 0.0
C186 C 0.1322 0.97368 0.54324 0.0
C187 C 0.08255 0.97473 0.50808 0.0
C188 C 0.07403 0.92503 0.48319 0.0
C189 C 0.10969 0.87425 0.49567 0.0
C190 C 0.14075 0.0256 0.57118 0.0
C191 C 0.02363 0.92459 0.44468 0.0
H192 H 0.83095 0.07488 0.51868 0.0
H193 H 0.03952 0.14622 0.43781 0.0
H194 H 0.9057 0.94265 0.53289 0.0
H195 H 0.95 0.97844 0.57603 0.0
H196 H 0.84533 -0.0039 0.56397 0.0
H197 H 0.17345 0.10403 0.42995 0.0
H198 H 0.19954 0.06112 0.47484 0.0
H199 H 0.16338 0.02749 0.42862 0.0
H200 H 0.20591 0.92076 0.58166 0.0
H201 H 0.09837 0.83555 0.47841 0.0
H202 H 0.07936 0.03468 0.59005 0.0
H203 H 0.15802 0.06358 0.55086 0.0
H204 H 0.18858 0.01959 0.59421 0.0
H205 H 0.95585 0.92915 0.45597 0.0
H206 H 0.03228 0.88449 0.42567 0.0
H207 H 0.0419 0.96108 0.42292 0.0
C208 C 0.48634 0.17261 0.32674 0.0
C209 C 0.57009 0.16126 0.33325 0.0
C210 C 0.45893 0.16847 0.28532 0.0
C211 C 0.51686 0.1531 0.24948 0.0
C212 C 0.59957 0.13707 0.25646 0.0
C213 C 0.6251 0.1411 0.29829 0.0
C214 C 0.3697 0.18498 0.27943 0.0
C215 C 0.66335 0.12029 0.21926 0.0
C216 C 0.43173 0.13295 0.1401 0.0
C217 C 0.44201 0.18802 0.12266 0.0
C218 C 0.4577 0.12009 0.18099 0.0
C219 C 0.4951 0.16327 0.20459 0.0
C220 C 0.50874 0.21812 0.1861 0.0
C221 C 0.4818 0.2298 0.14558 0.0
C222 C 0.44227 0.0611 0.1996 0.0
C223 C 0.54956 0.26528 0.20972 0.0
H224 H 0.44307 0.18751 0.35361 0.0
H225 H 0.68986 0.13184 0.30293 0.0
H226 H 0.36964 0.22717 0.26327 0.0
H227 H 0.34133 0.15381 0.25834 0.0
H228 H 0.32948 0.18771 0.31083 0.0
H229 H 0.71947 0.09978 0.23068 0.0
H230 H 0.63524 0.09068 0.19692 0.0
H231 H 0.68438 0.15891 0.20044 0.0
H232 H 0.40066 0.10057 0.12259 0.0
H233 H 0.49077 0.27229 0.13209 0.0
H234 H 0.3926 0.06301 0.22737 0.0
H235 H 0.49985 0.04439 0.21207 0.0
H236 H 0.42197 0.03066 0.17531 0.0
H237 H 0.50959 0.27593 0.24007 0.0
H238 H 0.55936 0.30463 0.18989 0.0
H239 H 0.61131 0.25104 0.21887 0.0
C240 C 0.55983 0.72227 0.21469 0.0
C241 C 0.60228 0.7641 0.18857 0.0
C242 C 0.50406 0.73716 0.25075 0.0
C243 C 0.49158 0.79541 0.26152 0.0
C244 C 0.53366 0.83804 0.23505 0.0
C245 C 0.58811 0.82184 0.19853 0.0
C246 C 0.45897 0.69036 0.27754 0.0
C247 C 0.52246 0.9005 0.24581 0.0
C248 C 0.29153 0.81856 0.33565 0.0
C249 C 0.32039 0.81256 0.37658 0.0
C250 C 0.34739 0.81715 0.29769 0.0
C251 C 0.43442 0.81063 0.30075 0.0
C252 C 0.46465 0.80995 0.34203 0.0
C253 C 0.40713 0.81043 0.37954 0.0
C254 C 0.31219 0.81725 0.25444 0.0
C255 C 0.55725 0.8043 0.3466 0.0
H256 H 0.57018 0.67762 0.20689 0.0
H257 H 0.62142 0.85427 0.17853 0.0
H258 H 0.47735 0.69147 0.31099 0.0
H259 H 0.39001 0.69704 0.27979 0.0
H260 H 0.47326 0.64733 0.26376 0.0
H261 H 0.5586 0.92838 0.22154 0.0
H262 H 0.45506 0.91216 0.24758 0.0
H263 H 0.54335 0.90919 0.27813 0.0
H264 H 0.2246 0.82037 0.33292 0.0
H265 H 0.42993 0.80637 0.41105 0.0
H266 H 0.31432 0.7733 0.24113 0.0
H267 H 0.35029 0.8448 0.23082 0.0
H268 H 0.24592 0.83203 0.25725 0.0
H269 H 0.57785 0.76015 0.33831 0.0
H270 H 0.57166 0.81365 0.38011 0.0
H271 H 0.59464 0.83345 0.32387 0.0
C272 C 0.48013 0.68811 0.90801 0.0
C273 C 0.479 0.73766 0.93341 0.0
C274 C 0.44655 0.6877 0.86828 0.0
C275 C 0.40878 0.73768 0.85398 0.0
C276 C 0.40299 0.78696 0.88048 0.0
C277 C 0.43914 0.78661 0.91982 0.0
C278 C 0.45416 0.63424 0.84094 0.0
C279 C 0.3606 0.84034 0.86676 0.0
C280 C 0.40483 0.7486 0.7323 0.0
C281 C 0.3259 0.72524 0.72739 0.0
C282 C 0.43192 0.75446 0.77364 0.0
C283 C 0.37757 0.73804 0.81067 0.0
C284 C 0.2963 0.71682 0.80581 0.0
C285 C 0.27171 0.71026 0.76414 0.0
C286 C 0.51997 0.77566 0.77755 0.0
C287 C 0.23577 0.70028 0.84452 0.0
H288 H 0.51055 0.64995 0.91824 0.0
H289 H 0.43784 0.82494 0.93938 0.0
H290 H 0.39103 0.6195 0.83405 0.0
H291 H 0.49101 0.64348 0.80935 0.0
H292 H 0.48528 0.59895 0.85692 0.0
H293 H 0.35536 0.87336 0.89256 0.0
H294 H 0.39678 0.85842 0.83743 0.0
H295 H 0.29671 0.83011 0.85815 0.0
H296 H 0.44646 0.76024 0.70377 0.0
H297 H 0.20973 0.69343 0.76029 0.0
H298 H 0.55718 0.74136 0.79099 0.0
H299 H 0.51852 0.81215 0.80034 0.0
H300 H 0.55282 0.78921 0.74585 0.0
H301 H 0.26564 0.67004 0.86562 0.0
H302 H 0.17767 0.68021 0.83487 0.0
H303 H 0.21815 0.73877 0.86417 0.0
C304 C 0.58011 0.27217 0.62073 0.0
C305 C 0.64879 0.24075 0.60199 0.0
C306 C 0.54415 0.26064 0.66299 0.0
C307 C 0.57911 0.21743 0.6874 0.0
C308 C 0.64483 0.18296 0.66753 0.0
C309 C 0.67863 0.1948 0.62477 0.0
C310 C 0.47266 0.29756 0.68252 0.0
C311 C 0.68392 0.13658 0.69236 0.0
C312 C 0.556 0.25792 0.80582 0.0
C313 C 0.48263 0.22849 0.82129 0.0
C314 C 0.5925 0.25071 0.76306 0.0
C315 C 0.55357 0.21401 0.73487 0.0
C316 C 0.48347 0.18065 0.75134 0.0
C317 C 0.44921 0.1879 0.79459 0.0
C318 C 0.66868 0.28603 0.74712 0.0
C319 C 0.44021 0.14102 0.72244 0.0
H320 H 0.55682 0.30751 0.60294 0.0
H321 H 0.73235 0.17078 0.61043 0.0
H322 H 0.42089 0.27077 0.69827 0.0
H323 H 0.49505 0.32537 0.70787 0.0
H324 H 0.44712 0.32507 0.65792 0.0
H325 H 0.72203 0.10689 0.67042 0.0
H326 H 0.7257 0.1562 0.71458 0.0
H327 H 0.63504 0.11182 0.71243 0.0
H328 H 0.58238 0.28896 0.82649 0.0
H329 H 0.39243 0.16498 0.80634 0.0
H330 H 0.65017 0.31966 0.72489 0.0
H331 H 0.71696 0.25919 0.72863 0.0
H332 H 0.69734 0.30689 0.77415 0.0
H333 H 0.40271 0.16649 0.70136 0.0
H334 H 0.39717 0.11086 0.74147 0.0
H335 H 0.48683 0.11631 0.70103 0.0
C336 C 0.95592 0.80241 0.20725 0.0
C337 C 0.92209 0.75935 0.18302 0.0
C338 C 0.97636 0.7917 0.24931 0.0
C339 C 0.96089 0.73695 0.26773 0.0
C340 C 0.92847 0.693 0.24308 0.0
C341 C 0.9102 0.70458 0.20082 0.0
C342 C 0.01299 0.83921 0.27434 0.0
C343 C 0.91064 0.63426 0.26183 0.0
C344 C 0.07755 0.69812 0.36316 0.0
C345 C 0.01884 0.71239 0.39847 0.0
C346 C 0.05915 0.70538 0.32048 0.0
C347 C 0.9791 0.7257 0.31278 0.0
C348 C 0.91775 0.73717 0.34809 0.0
C349 C 0.93869 0.73092 0.39065 0.0
C350 C 0.12686 0.69393 0.28372 0.0
C351 C 0.83114 0.75804 0.3409 0.0
H352 H 0.96517 0.84476 0.19355 0.0
H353 H 0.88311 0.67126 0.18243 0.0
H354 H 0.96936 0.84971 0.30345 0.0
H355 H 0.07309 0.82537 0.28578 0.0
H356 H 0.02477 0.87849 0.25461 0.0
H357 H 0.88633 0.6046 0.23816 0.0
H358 H 0.96864 0.61587 0.27268 0.0
H359 H 0.86363 0.63718 0.29073 0.0
H360 H 0.13997 0.68407 0.3687 0.0
H361 H 0.89315 0.74206 0.41771 0.0
H362 H 0.14232 0.73388 0.2654 0.0
H363 H 0.1041 0.66275 0.26075 0.0
H364 H 0.18544 0.67726 0.29527 0.0
H365 H 0.83589 0.80096 0.32582 0.0
H366 H 0.78871 0.7607 0.37159 0.0
H367 H 0.80228 0.72928 0.31823 0.0
C368 C 0.00876 0.20043 0.30402 0.0
C369 C 0.93641 0.23108 0.3188 0.0
C370 C 0.04925 0.20908 0.26224 0.0
C371 C 0.0152 0.24839 0.23423 0.0
C372 C 0.9454 0.28222 0.25 0.0
C373 C 0.90709 0.27347 0.29239 0.0
C374 C 0.12508 0.17324 0.24714 0.0
C375 C 0.90726 0.32449 0.22118 0.0
C376 C 0.15409 0.27406 0.12907 0.0
C377 C 0.12656 0.2303 0.10318 0.0
C378 C 0.11508 0.28319 0.17125 0.0
C379 C 0.04647 0.24822 0.18735 0.0
C380 C 0.01405 0.20743 0.15979 0.0
C381 C 0.05508 0.1986 0.11816 0.0
C382 C 0.15172 0.32691 0.1996 0.0
C383 C 0.93986 0.17003 0.17532 0.0
H384 H 0.03182 0.16798 0.32462 0.0
H385 H 0.85076 0.29699 0.30369 0.0
H386 H 0.10795 0.14171 0.22288 0.0
H387 H 0.1763 0.20031 0.23117 0.0
H388 H 0.14946 0.14981 0.27426 0.0
H389 H 0.86298 0.35389 0.24004 0.0
H390 H 0.95686 0.35003 0.2023 0.0
H391 H 0.8723 0.30112 0.19767 0.0
H392 H 0.20992 0.29829 0.11769 0.0
H393 H 0.03357 0.16494 0.09802 0.0
H394 H 0.18894 0.30488 0.22275 0.0
H395 H 0.10132 0.35113 0.21887 0.0
H396 H 0.19374 0.35741 0.1803 0.0
H397 H 0.9585 0.13945 0.19981 0.0
H398 H 0.91643 0.14541 0.14845 0.0
H399 H 0.88758 0.19613 0.19113 0.0
C400 C 0.0215 0.32236 0.60781 0.0
C401 C 0.9582 0.28095 0.60807 0.0
C402 C 0.06529 0.33037 0.6444 0.0
C403 C 0.04396 0.29673 0.68197 0.0
C404 C 0.9759 0.25787 0.68313 0.0
C405 C 0.93445 0.25017 0.6461 0.0
C406 C 0.13733 0.37229 0.64196 0.0
C407 C 0.94975 0.22183 0.72266 0.0
C408 C 0.20189 0.24533 0.7551 0.0
C409 C 0.1787 0.27618 0.79315 0.0
C410 C 0.16287 0.25498 0.71751 0.0
C411 C 0.09815 0.29608 0.71808 0.0
C412 C 0.07832 0.33008 0.75553 0.0
C413 C 0.11933 0.31991 0.79272 0.0
C414 C 0.18716 0.21835 0.67814 0.0
C415 C 0.01004 0.37448 0.75732 0.0
H416 H 0.03961 0.34632 0.57841 0.0
H417 H 0.88423 0.21893 0.64662 0.0
H418 H 0.13483 0.39811 0.67201 0.0
H419 H 0.19765 0.34868 0.63889 0.0
H420 H 0.13724 0.40139 0.61373 0.0
H421 H 0.89019 0.19829 0.71988 0.0
H422 H -0.00024 0.19038 0.72715 0.0
H423 H 0.94145 0.24879 0.75215 0.0
H424 H 0.24918 0.21229 0.75505 0.0
H425 H 0.10169 0.34404 0.82206 0.0
H426 H 0.19726 0.24504 0.64855 0.0
H427 H 0.13536 0.18807 0.67368 0.0
H428 H 0.24518 0.19343 0.68117 0.0
H429 H 0.01542 0.40015 0.72714 0.0
H430 H 0.01201 0.40358 0.78545 0.0
H431 H 0.9478 0.35303 0.76016 0.0
C432 C 0.0001 0.71704 0.70602 0.0
C433 C 0.04828 0.76658 0.69734 0.0
C434 C 0.94472 0.71213 0.74424 0.0
C435 C 0.93835 0.75756 0.77448 0.0
C436 C 0.98645 0.80769 0.76567 0.0
C437 C 0.04017 0.81172 0.72716 0.0
C438 C 0.89377 0.65827 0.75253 0.0
C439 C 0.98196 0.85703 0.79719 0.0
C440 C 0.74938 0.7839 0.85575 0.0
C441 C 0.77936 0.76693 0.89455 0.0
C442 C 0.79855 0.77753 0.81596 0.0
C443 C 0.88011 0.75419 0.81504 0.0
C444 C 0.90917 0.73444 0.85395 0.0
C445 C 0.85796 0.74065 0.89337 0.0
C446 C 0.76486 0.79846 0.77518 0.0
C447 C -0.00371 0.71019 0.85434 0.0
H448 H 0.00643 0.68186 0.68327 0.0
H449 H 0.07736 0.8501 0.72096 0.0
H450 H 0.90994 0.63762 0.78269 0.0
H451 H 0.82582 0.66861 0.7574 0.0
H452 H 0.90472 0.62731 0.72543 0.0
H453 H 0.02405 0.89283 0.78558 0.0
H454 H 0.91665 0.87328 0.80266 0.0
H455 H -0.00023 0.84248 0.82896 0.0
H456 H 0.68779 0.8033 0.85657 0.0
H457 H 0.8811 0.72759 0.92342 0.0
H458 H 0.76756 0.76382 0.75074 0.0
H459 H 0.80442 0.83405 0.76091 0.0
H460 H 0.69903 0.81368 0.7813 0.0
H461 H 0.00901 0.67788 0.82839 0.0
H462 H 0.00555 0.69034 0.88596 0.0
H463 H 0.04331 0.74484 0.84781 0.0
loop_
_geom_bond_atom_site_label_1
_geom_bond_atom_site_label_2
_geom_bond_distance
_geom_bond_site_symmetry_2
_ccdc_geom_bond_type
Zn0 O6 1.969 . S
Zn0 O7 1.965 . S
Zn0 O11 2.024 . S
Zn0 O16 1.969 . S
Zn1 O8 1.969 . S
Zn1 O14 1.969 . S
Zn1 O15 1.965 . S
Zn1 O17 2.024 . S
C2 O3 1.229 . S
C2 O11 1.058 . S
O3 C2 1.229 . S
C4 O5 1.229 . S
C4 O17 1.058 . S
O5 C4 1.229 . S
O6 Zn0 1.969 . S
O6 C9 1.267 . S
O7 Zn0 1.965 . S
O7 C18 1.260 1_556 S
O8 Zn1 1.969 . S
O8 C18 1.258 . S
C9 O6 1.267 . S
C9 O10 1.228 . S
O10 C9 1.228 . S
O11 Zn0 2.024 . S
O11 C2 1.058 . S
C12 O13 1.228 . S
C12 O14 1.267 . S
O13 C12 1.228 . S
O14 Zn1 1.969 . S
O14 C12 1.267 . S
O15 Zn1 1.965 . S
O15 C19 1.260 1_554 S
O16 Zn0 1.969 . S
O16 C19 1.258 . S
O17 Zn1 2.024 . S
O17 C4 1.058 . S
C18 O7 1.260 1_554 S
C18 O8 1.258 . S
C19 O15 1.260 1_556 S
C19 O16 1.258 . S
Zn20 O26 1.969 . S
Zn20 O27 1.965 . S
Zn20 O31 2.024 . S
Zn20 O36 1.969 . S
Zn21 O28 1.969 . S
Zn21 O34 1.969 . S
Zn21 O35 1.965 . S
Zn21 O37 2.024 . S
C22 O23 1.229 . S
C22 O31 1.058 . S
O23 C22 1.229 . S
C24 O25 1.229 . S
C24 O37 1.058 . S
O25 C24 1.229 . S
O26 Zn20 1.969 . S
O26 C29 1.267 . S
O27 Zn20 1.965 . S
O27 C38 1.260 1_556 S
O28 Zn21 1.969 . S
O28 C38 1.258 . S
C29 O26 1.267 . S
C29 O30 1.228 . S
O30 C29 1.228 . S
O31 Zn20 2.024 . S
O31 C22 1.058 . S
C32 O33 1.228 . S
C32 O34 1.267 . S
O33 C32 1.228 . S
O34 Zn21 1.969 . S
O34 C32 1.267 . S
O35 Zn21 1.965 . S
O35 C39 1.260 1_554 S
O36 Zn20 1.969 . S
O36 C39 1.258 . S
O37 Zn21 2.024 . S
O37 C24 1.058 . S
C38 O27 1.260 1_554 S
C38 O28 1.258 . S
C39 O35 1.260 1_556 S
C39 O36 1.258 . S
Zn40 O46 1.969 . S
Zn40 O47 1.965 . S
Zn40 O51 2.024 . S
Zn40 O56 1.969 . S
Zn41 O48 1.969 . S
Zn41 O54 1.969 . S
Zn41 O55 1.965 . S
Zn41 O57 2.024 . S
C42 O43 1.229 . S
C42 O51 1.058 . S
O43 C42 1.229 . S
C44 O45 1.229 . S
C44 O57 1.058 . S
O45 C44 1.229 . S
O46 Zn40 1.969 . S
O46 C49 1.267 . S
O47 Zn40 1.965 . S
O47 C58 1.260 . S
O48 Zn41 1.969 . S
O48 C58 1.258 . S
C49 O46 1.267 . S
C49 O50 1.228 . S
O50 C49 1.228 . S
O51 Zn40 2.024 . S
O51 C42 1.058 . S
C52 O53 1.228 . S
C52 O54 1.267 . S
O53 C52 1.228 . S
O54 Zn41 1.969 . S
O54 C52 1.267 . S
O55 Zn41 1.965 . S
O55 C59 1.260 . S
O56 Zn40 1.969 . S
O56 C59 1.258 . S
O57 Zn41 2.024 . S
O57 C44 1.058 . S
C58 O47 1.260 . S
C58 O48 1.258 . S
C59 O55 1.260 . S
C59 O56 1.258 . S
Zn60 O66 1.969 . S
Zn60 O67 1.965 . S
Zn60 O71 2.024 . S
Zn60 O76 1.969 . S
Zn61 O68 1.969 . S
Zn61 O74 1.969 . S
Zn61 O75 1.965 . S
Zn61 O77 2.024 . S
C62 O63 1.229 . S
C62 O71 1.058 . S
O63 C62 1.229 . S
C64 O65 1.229 . S
C64 O77 1.058 . S
O65 C64 1.229 . S
O66 Zn60 1.969 . S
O66 C69 1.267 . S
O67 Zn60 1.965 . S
O67 C78 1.260 . S
O68 Zn61 1.969 . S
O68 C78 1.258 . S
C69 O66 1.267 . S
C69 O70 1.228 . S
O70 C69 1.228 . S
O71 Zn60 2.024 . S
O71 C62 1.058 . S
C72 O73 1.228 . S
C72 O74 1.267 . S
O73 C72 1.228 . S
O74 Zn61 1.969 . S
O74 C72 1.267 . S
O75 Zn61 1.965 . S
O75 C79 1.260 . S
O76 Zn60 1.969 . S
O76 C79 1.258 . S
O77 Zn61 2.024 . S
O77 C64 1.058 . S
C78 O67 1.260 . S
C78 O68 1.258 . S
C79 O75 1.260 . S
C79 O76 1.258 . S
C80 C81 1.385 1_556 S
C80 C82 1.394 . S
C80 H96 0.931 . S
C81 C80 1.385 1_554 S
C81 C85 1.382 . S
C82 C80 1.394 . S
C82 C83 1.369 1_556 S
C82 C86 1.531 . S
C83 C82 1.369 1_554 S
C83 C84 1.410 . S
C83 C91 1.503 . S
C84 C83 1.410 . S
C84 C85 1.392 . S
C84 C87 1.511 . S
C85 C81 1.382 . S
C85 C84 1.392 . S
C85 H97 0.929 . S
C86 C82 1.531 . S
C86 H98 0.960 . S
C86 H99 0.962 . S
C86 H100 0.960 . S
C87 C84 1.511 . S
C87 H101 0.961 . S
C87 H102 0.961 . S
C87 H103 0.961 . S
C88 C89 1.370 1_556 S
C88 C90 1.363 . S
C88 H104 0.931 . S
C89 C88 1.370 1_554 S
C89 C93 1.408 . S
C90 C88 1.363 . S
C90 C91 1.370 1_556 S
C90 C94 1.524 . S
C91 C83 1.503 . S
C91 C90 1.370 1_554 S
C91 C92 1.403 . S
C92 C91 1.403 . S
C92 C93 1.404 . S
C92 C95 1.539 . S
C93 C89 1.408 . S
C93 C92 1.404 . S
C93 H105 0.930 . S
C94 C90 1.524 . S
C94 H106 0.956 . S
C94 H107 0.961 . S
C94 H108 0.961 . S
C95 C92 1.539 . S
C95 H109 0.958 . S
C95 H110 0.961 . S
C95 H111 0.960 . S
H96 C80 0.931 . S
H97 C85 0.929 . S
H98 C86 0.960 . S
H99 C86 0.962 . S
H100 C86 0.960 . S
H101 C87 0.961 . S
H102 C87 0.961 . S
H103 C87 0.961 . S
H104 C88 0.931 . S
H105 C93 0.930 . S
H106 C94 0.956 . S
H107 C94 0.961 . S
H108 C94 0.961 . S
H109 C95 0.958 . S
H110 C95 0.961 . S
H111 C95 0.960 . S
C112 C113 1.391 . S
C112 C114 1.394 . S
C112 H128 0.931 . S
C113 C112 1.391 . S
C113 C117 1.376 . S
C114 C112 1.394 . S
C114 C115 1.369 . S
C114 C118 1.531 . S
C115 C114 1.369 . S
C115 C116 1.410 . S
C115 C123 1.503 . S
C116 C115 1.410 . S
C116 C117 1.392 . S
C116 C119 1.511 . S
C117 C113 1.376 . S
C117 C116 1.392 . S
C117 H129 0.929 . S
C118 C114 1.531 . S
C118 H130 0.960 . S
C118 H131 0.962 . S
C118 H132 0.960 . S
C119 C116 1.511 . S
C119 H133 0.961 . S
C119 H134 0.961 . S
C119 H135 0.961 . S
C120 C121 1.370 . S
C120 C122 1.363 . S
C120 H136 0.931 . S
C121 C120 1.370 . S
C121 C125 1.408 . S
C122 C120 1.363 . S
C122 C123 1.370 . S
C122 C126 1.524 . S
C123 C115 1.503 . S
C123 C122 1.370 . S
C123 C124 1.403 . S
C124 C123 1.403 . S
C124 C125 1.404 . S
C124 C127 1.539 . S
C125 C121 1.408 . S
C125 C124 1.404 . S
C125 H137 0.930 . S
C126 C122 1.524 . S
C126 H138 0.956 . S
C126 H139 0.961 . S
C126 H140 0.961 . S
C127 C124 1.539 . S
C127 H141 0.958 . S
C127 H142 0.961 . S
C127 H143 0.960 . S
H128 C112 0.931 . S
H129 C117 0.929 . S
H130 C118 0.960 . S
H131 C118 0.962 . S
H132 C118 0.960 . S
H133 C119 0.961 . S
H134 C119 0.961 . S
H135 C119 0.961 . S
H136 C120 0.931 . S
H137 C125 0.930 . S
H138 C126 0.956 . S
H139 C126 0.961 . S
H140 C126 0.961 . S
H141 C127 0.958 . S
H142 C127 0.961 . S
H143 C127 0.960 . S
C144 C145 1.391 . S
C144 C146 1.394 . S
C144 H160 0.931 . S
C145 C144 1.391 . S
C145 C149 1.376 . S
C146 C144 1.394 . S
C146 C147 1.369 . S
C146 C150 1.531 1_545 S
C147 C146 1.369 . S
C147 C148 1.410 1_455 S
C147 C155 1.503 1_445 S
C148 C147 1.410 1_655 S
C148 C149 1.392 1_655 S
C148 C151 1.511 . S
C149 C145 1.376 . S
C149 C148 1.392 1_455 S
C149 H161 0.929 1_554 S
C150 C146 1.531 1_565 S
C150 H162 0.960 . S
C150 H163 0.962 1_554 S
C150 H164 0.960 . S
C151 C148 1.511 . S
C151 H165 0.961 1_554 S
C151 H166 0.961 1_554 S
C151 H167 0.961 . S
C152 C153 1.370 1_556 S
C152 C154 1.363 . S
C152 H168 0.931 . S
C153 C152 1.370 1_554 S
C153 C157 1.408 . S
C154 C152 1.363 . S
C154 C155 1.370 1_556 S
C154 C158 1.524 1_655 S
C155 C147 1.503 1_665 S
C155 C154 1.370 1_554 S
C155 C156 1.403 . S
C156 C155 1.403 . S
C156 C157 1.404 . S
C156 C159 1.539 . S
C157 C153 1.408 . S
C157 C156 1.404 . S
C157 H169 0.930 . S
C158 C154 1.524 1_455 S
C158 H170 0.956 . S
C158 H171 0.961 1_465 S
C158 H172 0.961 1_455 S
C159 C156 1.539 . S
C159 H173 0.958 . S
C159 H174 0.961 . S
C159 H175 0.960 1_565 S
H160 C144 0.931 . S
H161 C149 0.929 1_556 S
H162 C150 0.960 . S
H163 C150 0.962 1_556 S
H164 C150 0.960 . S
H165 C151 0.961 1_556 S
H166 C151 0.961 1_556 S
H167 C151 0.961 . S
H168 C152 0.931 . S
H169 C157 0.930 . S
H170 C158 0.956 . S
H171 C158 0.961 1_645 S
H172 C158 0.961 1_655 S
H173 C159 0.958 . S
H174 C159 0.961 . S
H175 C159 0.960 1_545 S
C176 C177 1.391 . S
C176 C178 1.394 . S
C176 H192 0.931 . S
C177 C176 1.391 . S
C177 C181 1.376 . S
C178 C176 1.394 . S
C178 C179 1.369 . S
C178 C182 1.531 1_545 S
C179 C178 1.369 . S
C179 C180 1.410 1_655 S
C179 C187 1.503 1_645 S
C180 C179 1.410 1_455 S
C180 C181 1.392 1_455 S
C180 C183 1.511 . S
C181 C177 1.376 . S
C181 C180 1.392 1_655 S
C181 H193 0.929 . S
C182 C178 1.531 1_565 S
C182 H194 0.960 . S
C182 H195 0.962 . S
C182 H196 0.960 . S
C183 C180 1.511 . S
C183 H197 0.961 . S
C183 H198 0.961 . S
C183 H199 0.961 . S
C184 C185 1.370 . S
C184 C186 1.363 . S
C184 H200 0.931 . S
C185 C184 1.370 . S
C185 C189 1.408 . S
C186 C184 1.363 . S
C186 C187 1.370 . S
C186 C190 1.524 . S
C187 C179 1.503 1_465 S
C187 C186 1.370 . S
C187 C188 1.403 . S
C188 C187 1.403 . S
C188 C189 1.404 . S
C188 C191 1.539 . S
C189 C185 1.408 . S
C189 C188 1.404 . S
C189 H201 0.930 . S
C190 C186 1.524 . S
C190 H202 0.956 1_455 S
C190 H203 0.961 1_565 S
C190 H204 0.961 . S
C191 C188 1.539 . S
C191 H205 0.958 1_455 S
C191 H206 0.961 . S
C191 H207 0.960 1_565 S
H192 C176 0.931 . S
H193 C181 0.929 . S
H194 C182 0.960 . S
H195 C182 0.962 . S
H196 C182 0.960 . S
H197 C183 0.961 . S
H198 C183 0.961 . S
H199 C183 0.961 . S
H200 C184 0.931 . S
H201 C189 0.930 . S
H202 C190 0.956 1_655 S
H203 C190 0.961 1_545 S
H204 C190 0.961 . S
H205 C191 0.958 1_655 S
H206 C191 0.961 . S
H207 C191 0.960 1_545 S
C208 C209 1.391 . S
C208 C210 1.394 . S
C208 H224 0.931 . S
C209 C208 1.391 . S
C209 C213 1.376 . S
C210 C208 1.394 . S
C210 C211 1.369 . S
C210 C214 1.531 . S
C211 C210 1.369 . S
C211 C212 1.410 . S
C211 C219 1.503 . S
C212 C211 1.410 . S
C212 C213 1.392 . S
C212 C215 1.511 . S
C213 C209 1.376 . S
C213 C212 1.392 . S
C213 H225 0.929 . S
C214 C210 1.531 . S
C214 H226 0.960 . S
C214 H227 0.962 . S
C214 H228 0.960 . S
C215 C212 1.511 . S
C215 H229 0.961 . S
C215 H230 0.961 . S
C215 H231 0.961 . S
C216 C217 1.370 . S
C216 C218 1.363 . S
C216 H232 0.931 . S
C217 C216 1.370 . S
C217 C221 1.408 . S
C218 C216 1.363 . S
C218 C219 1.370 . S
C218 C222 1.524 . S
C219 C211 1.503 . S
C219 C218 1.370 . S
C219 C220 1.403 . S
C220 C219 1.403 . S
C220 C221 1.404 . S
C220 C223 1.539 . S
C221 C217 1.408 . S
C221 C220 1.404 . S
C221 H233 0.930 . S
C222 C218 1.524 . S
C222 H234 0.956 . S
C222 H235 0.961 . S
C222 H236 0.961 . S
C223 C220 1.539 . S
C223 H237 0.958 . S
C223 H238 0.961 . S
C223 H239 0.960 . S
H224 C208 0.931 . S
H225 C213 0.929 . S
H226 C214 0.960 . S
H227 C214 0.962 . S
H228 C214 0.960 . S
H229 C215 0.961 . S
H230 C215 0.961 . S
H231 C215 0.961 . S
H232 C216 0.931 . S
H233 C221 0.930 . S
H234 C222 0.956 . S
H235 C222 0.961 . S
H236 C222 0.961 . S
H237 C223 0.958 . S
H238 C223 0.961 . S
H239 C223 0.960 . S
C240 C241 1.391 . S
C240 C242 1.394 . S
C240 H256 0.931 . S
C241 C240 1.391 . S
C241 C245 1.376 . S
C242 C240 1.394 . S
C242 C243 1.369 . S
C242 C246 1.531 . S
C243 C242 1.369 . S
C243 C244 1.410 . S
C243 C251 1.503 . S
C244 C243 1.410 . S
C244 C245 1.392 . S
C244 C247 1.511 . S
C245 C241 1.376 . S
C245 C244 1.392 . S
C245 H257 0.929 . S
C246 C242 1.531 . S
C246 H258 0.960 . S
C246 H259 0.962 . S
C246 H260 0.960 . S
C247 C244 1.511 . S
C247 H261 0.961 . S
C247 H262 0.961 . S
C247 H263 0.961 . S
C248 C249 1.370 . S
C248 C250 1.363 . S
C248 H264 0.931 . S
C249 C248 1.370 . S
C249 C253 1.408 . S
C250 C248 1.363 . S
C250 C251 1.370 . S
C250 C254 1.524 . S
C251 C243 1.503 . S
C251 C250 1.370 . S
C251 C252 1.403 . S
C252 C251 1.403 . S
C252 C253 1.404 . S
C252 C255 1.539 . S
C253 C249 1.408 . S
C253 C252 1.404 . S
C253 H265 0.930 . S
C254 C250 1.524 . S
C254 H266 0.956 . S
C254 H267 0.961 . S
C254 H268 0.961 . S
C255 C252 1.539 . S
C255 H269 0.958 . S
C255 H270 0.961 . S
C255 H271 0.960 . S
H256 C240 0.931 . S
H257 C245 0.929 . S
H258 C246 0.960 . S
H259 C246 0.962 . S
H260 C246 0.960 . S
H261 C247 0.961 . S
H262 C247 0.961 . S
H263 C247 0.961 . S
H264 C248 0.931 . S
H265 C253 0.930 . S
H266 C254 0.956 . S
H267 C254 0.961 . S
H268 C254 0.961 . S
H269 C255 0.958 . S
H270 C255 0.961 . S
H271 C255 0.960 . S
C272 C273 1.391 . S
C272 C274 1.394 . S
C272 H288 0.931 . S
C273 C272 1.391 . S
C273 C277 1.376 . S
C274 C272 1.394 . S
C274 C275 1.369 . S
C274 C278 1.531 . S
C275 C274 1.369 . S
C275 C276 1.410 . S
C275 C283 1.503 . S
C276 C275 1.410 . S
C276 C277 1.392 . S
C276 C279 1.511 . S
C277 C273 1.376 . S
C277 C276 1.392 . S
C277 H289 0.929 . S
C278 C274 1.531 . S
C278 H290 0.960 . S
C278 H291 0.962 . S
C278 H292 0.960 . S
C279 C276 1.511 . S
C279 H293 0.961 . S
C279 H294 0.961 . S
C279 H295 0.961 . S
C280 C281 1.370 . S
C280 C282 1.363 . S
C280 H296 0.931 . S
C281 C280 1.370 . S
C281 C285 1.408 . S
C282 C280 1.363 . S
C282 C283 1.370 . S
C282 C286 1.524 . S
C283 C275 1.503 . S
C283 C282 1.370 . S
C283 C284 1.403 . S
C284 C283 1.403 . S
C284 C285 1.404 . S
C284 C287 1.539 . S
C285 C281 1.408 . S
C285 C284 1.404 . S
C285 H297 0.930 . S
C286 C282 1.524 . S
C286 H298 0.956 . S
C286 H299 0.961 . S
C286 H300 0.961 . S
C287 C284 1.539 . S
C287 H301 0.958 . S
C287 H302 0.961 . S
C287 H303 0.960 . S
H288 C272 0.931 . S
H289 C277 0.929 . S
H290 C278 0.960 . S
H291 C278 0.962 . S
H292 C278 0.960 . S
H293 C279 0.961 . S
H294 C279 0.961 . S
H295 C279 0.961 . S
H296 C280 0.931 . S
H297 C285 0.930 . S
H298 C286 0.956 . S
H299 C286 0.961 . S
H300 C286 0.961 . S
H301 C287 0.958 . S
H302 C287 0.961 . S
H303 C287 0.960 . S
C304 C305 1.391 . S
C304 C306 1.394 . S
C304 H320 0.931 . S
C305 C304 1.391 . S
C305 C309 1.376 . S
C306 C304 1.394 . S
C306 C307 1.369 . S
C306 C310 1.531 . S
C307 C306 1.369 . S
C307 C308 1.410 . S
C307 C315 1.503 . S
C308 C307 1.410 . S
C308 C309 1.392 . S
C308 C311 1.511 . S
C309 C305 1.376 . S
C309 C308 1.392 . S
C309 H321 0.929 . S
C310 C306 1.531 . S
C310 H322 0.960 . S
C310 H323 0.962 . S
C310 H324 0.960 . S
C311 C308 1.511 . S
C311 H325 0.961 . S
C311 H326 0.961 . S
C311 H327 0.961 . S
C312 C313 1.370 . S
C312 C314 1.363 . S
C312 H328 0.931 . S
C313 C312 1.370 . S
C313 C317 1.408 . S
C314 C312 1.363 . S
C314 C315 1.370 . S
C314 C318 1.524 . S
C315 C307 1.503 . S
C315 C314 1.370 . S
C315 C316 1.403 . S
C316 C315 1.403 . S
C316 C317 1.404 . S
C316 C319 1.539 . S
C317 C313 1.408 . S
C317 C316 1.404 . S
C317 H329 0.930 . S
C318 C314 1.524 . S
C318 H330 0.956 . S
C318 H331 0.961 . S
C318 H332 0.961 . S
C319 C316 1.539 . S
C319 H333 0.958 . S
C319 H334 0.961 . S
C319 H335 0.960 . S
H320 C304 0.931 . S
H321 C309 0.929 . S
H322 C310 0.960 . S
H323 C310 0.962 . S
H324 C310 0.960 . S
H325 C311 0.961 . S
H326 C311 0.961 . S
H327 C311 0.961 . S
H328 C312 0.931 . S
H329 C317 0.930 . S
H330 C318 0.956 . S
H331 C318 0.961 . S
H332 C318 0.961 . S
H333 C319 0.958 . S
H334 C319 0.961 . S
H335 C319 0.960 . S
C336 C337 1.396 . S
C336 C338 1.391 1_655 S
C336 H352 0.928 1_655 S
C337 C336 1.396 . S
C337 C341 1.376 . S
C338 C336 1.391 1_455 S
C338 C339 1.369 1_455 S
C338 C342 1.531 . S
C339 C338 1.369 1_655 S
C339 C340 1.410 . S
C339 C347 1.503 1_655 S
C340 C339 1.410 . S
C340 C341 1.392 . S
C340 C343 1.511 . S
C341 C337 1.376 . S
C341 C340 1.392 . S
C341 H353 0.929 . S
C342 C338 1.531 . S
C342 H354 0.960 . S
C342 H355 0.962 . S
C342 H356 0.960 . S
C343 C340 1.511 . S
C343 H357 0.961 . S
C343 H358 0.961 . S
C343 H359 0.961 . S
C344 C345 1.370 . S
C344 C346 1.363 . S
C344 H360 0.931 . S
C345 C344 1.370 . S
C345 C349 1.408 . S
C346 C344 1.363 . S
C346 C347 1.370 . S
C346 C350 1.524 . S
C347 C339 1.503 1_455 S
C347 C346 1.370 . S
C347 C348 1.403 1_455 S
C348 C347 1.403 1_655 S
C348 C349 1.404 1_655 S
C348 C351 1.539 . S
C349 C345 1.408 . S
C349 C348 1.404 1_455 S
C349 H361 0.930 . S
C350 C346 1.524 . S
C350 H362 0.956 . S
C350 H363 0.961 . S
C350 H364 0.961 . S
C351 C348 1.539 . S
C351 H365 0.958 . S
C351 H366 0.961 . S
C351 H367 0.960 . S
H352 C336 0.928 1_455 S
H353 C341 0.929 . S
H354 C342 0.960 . S
H355 C342 0.962 . S
H356 C342 0.960 . S
H357 C343 0.961 . S
H358 C343 0.961 . S
H359 C343 0.961 . S
H360 C344 0.931 . S
H361 C349 0.930 . S
H362 C350 0.956 . S
H363 C350 0.961 . S
H364 C350 0.961 . S
H365 C351 0.958 . S
H366 C351 0.961 . S
H367 C351 0.960 . S
C368 C369 1.391 . S
C368 C370 1.394 1_655 S
C368 H384 0.931 1_655 S
C369 C368 1.391 . S
C369 C373 1.376 . S
C370 C368 1.394 1_455 S
C370 C371 1.369 1_455 S
C370 C374 1.531 . S
C371 C370 1.369 1_655 S
C371 C372 1.410 . S
C371 C379 1.503 1_655 S
C372 C371 1.410 . S
C372 C373 1.392 . S
C372 C375 1.511 . S
C373 C369 1.376 . S
C373 C372 1.392 . S
C373 H385 0.929 . S
C374 C370 1.531 . S
C374 H386 0.960 . S
C374 H387 0.962 . S
C374 H388 0.960 . S
C375 C372 1.511 . S
C375 H389 0.961 . S
C375 H390 0.961 . S
C375 H391 0.961 . S
C376 C377 1.370 . S
C376 C378 1.363 . S
C376 H392 0.931 . S
C377 C376 1.370 . S
C377 C381 1.408 . S
C378 C376 1.363 . S
C378 C379 1.370 . S
C378 C382 1.524 1_455 S
C379 C371 1.503 1_455 S
C379 C378 1.370 . S
C379 C380 1.403 . S
C380 C379 1.403 . S
C380 C381 1.404 . S
C380 C383 1.539 . S
C381 C377 1.408 . S
C381 C380 1.404 . S
C381 H393 0.930 . S
C382 C378 1.524 1_655 S
C382 H394 0.956 1_655 S
C382 H395 0.961 . S
C382 H396 0.961 . S
C383 C380 1.539 . S
C383 H397 0.958 . S
C383 H398 0.961 . S
C383 H399 0.960 1_455 S
H384 C368 0.931 1_455 S
H385 C373 0.929 . S
H386 C374 0.960 . S
H387 C374 0.962 . S
H388 C374 0.960 . S
H389 C375 0.961 . S
H390 C375 0.961 . S
H391 C375 0.961 . S
H392 C376 0.931 . S
H393 C381 0.930 . S
H394 C382 0.956 1_455 S
H395 C382 0.961 . S
H396 C382 0.961 . S
H397 C383 0.958 . S
H398 C383 0.961 . S
H399 C383 0.960 1_655 S
C400 C401 1.391 1_455 S
C400 C402 1.394 . S
C400 H416 0.931 . S
C401 C400 1.391 1_655 S
C401 C405 1.376 . S
C402 C400 1.394 . S
C402 C403 1.369 1_455 S
C402 C406 1.531 . S
C403 C402 1.369 1_655 S
C403 C404 1.410 . S
C403 C411 1.503 1_655 S
C404 C403 1.410 . S
C404 C405 1.392 . S
C404 C407 1.511 . S
C405 C401 1.376 . S
C405 C404 1.392 . S
C405 H417 0.929 . S
C406 C402 1.531 . S
C406 H418 0.960 . S
C406 H419 0.962 . S
C406 H420 0.960 . S
C407 C404 1.511 . S
C407 H421 0.961 . S
C407 H422 0.961 . S
C407 H423 0.961 . S
C408 C409 1.370 . S
C408 C410 1.363 . S
C408 H424 0.931 . S
C409 C408 1.370 . S
C409 C413 1.408 . S
C410 C408 1.363 . S
C410 C411 1.370 . S
C410 C414 1.524 . S
C411 C403 1.503 1_455 S
C411 C410 1.370 . S
C411 C412 1.403 . S
C412 C411 1.403 . S
C412 C413 1.404 . S
C412 C415 1.539 1_455 S
C413 C409 1.408 . S
C413 C412 1.404 . S
C413 H425 0.930 . S
C414 C410 1.524 . S
C414 H426 0.956 . S
C414 H427 0.961 1_455 S
C414 H428 0.961 . S
C415 C412 1.539 1_655 S
C415 H429 0.958 1_655 S
C415 H430 0.961 . S
C415 H431 0.960 . S
H416 C400 0.931 . S
H417 C405 0.929 . S
H418 C406 0.960 . S
H419 C406 0.962 . S
H420 C406 0.960 . S
H421 C407 0.961 . S
H422 C407 0.961 . S
H423 C407 0.961 . S
H424 C408 0.931 . S
H425 C413 0.930 . S
H426 C414 0.956 . S
H427 C414 0.961 1_655 S
H428 C414 0.961 . S
H429 C415 0.958 1_455 S
H430 C415 0.961 . S
H431 C415 0.960 . S
C432 C433 1.391 . S
C432 C434 1.394 1_455 S
C432 H448 0.931 1_455 S
C433 C432 1.391 . S
C433 C437 1.376 . S
C434 C432 1.394 1_655 S
C434 C435 1.369 1_655 S
C434 C438 1.531 . S
C435 C434 1.369 1_455 S
C435 C436 1.410 . S
C435 C443 1.503 1_455 S
C436 C435 1.410 . S
C436 C437 1.392 . S
C436 C439 1.511 . S
C437 C433 1.376 . S
C437 C436 1.392 . S
C437 H449 0.929 . S
C438 C434 1.531 . S
C438 H450 0.960 . S
C438 H451 0.962 . S
C438 H452 0.960 . S
C439 C436 1.511 . S
C439 H453 0.961 . S
C439 H454 0.961 . S
C439 H455 0.961 . S
C440 C441 1.370 . S
C440 C442 1.363 . S
C440 H456 0.931 . S
C441 C440 1.370 . S
C441 C445 1.408 . S
C442 C440 1.363 . S
C442 C443 1.370 . S
C442 C446 1.524 . S
C443 C435 1.503 1_655 S
C443 C442 1.370 . S
C443 C444 1.403 1_655 S
C444 C443 1.403 1_455 S
C444 C445 1.404 1_455 S
C444 C447 1.539 . S
C445 C441 1.408 . S
C445 C444 1.404 1_655 S
C445 H457 0.930 . S
C446 C442 1.524 . S
C446 H458 0.956 . S
C446 H459 0.961 . S
C446 H460 0.961 . S
C447 C444 1.539 . S
C447 H461 0.958 . S
C447 H462 0.961 . S
C447 H463 0.960 . S
H448 C432 0.931 1_655 S
H449 C437 0.929 . S
H450 C438 0.960 . S
H451 C438 0.962 . S
H452 C438 0.960 . S
H453 C439 0.961 . S
H454 C439 0.961 . S
H455 C439 0.961 . S
H456 C440 0.931 . S
H457 C445 0.930 . S
H458 C446 0.956 . S
H459 C446 0.961 . S
H460 C446 0.961 . S
H461 C447 0.958 . S
H462 C447 0.961 . S
H463 C447 0.960 . S
C81 C38 1.499 . S
C89 C19 1.491 1_554 S
C113 C58 1.466 . S
C121 C79 1.501 . S
C145 C18 1.465 . S
C153 C39 1.503 1_554 S
C177 C78 1.471 . S
C185 C59 1.502 . S
C209 C72 1.195 . S
C217 C12 1.252 . S
C241 C24 0.942 . S
C249 C44 1.030 . S
C273 C29 1.211 . S
C281 C49 1.231 . S
C305 C62 1.057 . S
C313 C2 0.988 . S
C337 C32 1.199 . S
C345 C52 1.245 . S
C369 C64 0.981 . S
C377 C4 0.996 . S
C401 C69 1.259 . S
C409 C9 1.263 . S
C433 C42 1.015 . S
C441 C22 1.040 . S
