# Generated by pormake.
# Topology smm, (6)-cn, num edge types: 1
# Building blocks:
#     Node 0, Type 0, BuildingBlock: GEDQOX_clean_sbu_0, # of connection points: 6
#     Node 1, Type 0, BuildingBlock: GEDQOX_clean_sbu_0, # of connection points: 6
#     Node 2, Type 0, BuildingBlock: GEDQOX_clean_sbu_0, # of connection points: 6
#     Node 3, Type 0, BuildingBlock: GEDQOX_clean_sbu_0, # of connection points: 6
#     Node 4, Type 0, BuildingBlock: GEDQOX_clean_sbu_0, # of connection points: 6
#     Node 5, Type 0, BuildingBlock: GEDQOX_clean_sbu_0, # of connection points: 6
#     Node 6, Type 0, BuildingBlock: GEDQOX_clean_sbu_0, # of connection points: 6
#     Node 7, Type 0, BuildingBlock: GEDQOX_clean_sbu_0, # of connection points: 6
#     Node 8, Type 0, BuildingBlock: GEDQOX_clean_sbu_0, # of connection points: 6
#     Edge 9, Type (0, 0), BuildingBlock: ZUJKAS_clean_linker_0, # of connection points: 2
#     Edge 10, Type (0, 0), BuildingBlock: ZUJKAS_clean_linker_0, # of connection points: 2
#     Edge 11, Type (0, 0), BuildingBlock: ZUJKAS_clean_linker_0, # of connection points: 2
#     Edge 12, Type (0, 0), BuildingBlock: ZUJKAS_clean_linker_0, # of connection points: 2
#     Edge 13, Type (0, 0), BuildingBlock: ZUJKAS_clean_linker_0, # of connection points: 2
#     Edge 14, Type (0, 0), BuildingBlock: ZUJKAS_clean_linker_0, # of connection points: 2
#     Edge 15, Type (0, 0), BuildingBlock: ZUJKAS_clean_linker_0, # of connection points: 2
#     Edge 16, Type (0, 0), BuildingBlock: ZUJKAS_clean_linker_0, # of connection points: 2
#     Edge 17, Type (0, 0), BuildingBlock: ZUJKAS_clean_linker_0, # of connection points: 2
#     Edge 18, Type (0, 0), BuildingBlock: ZUJKAS_clean_linker_0, # of connection points: 2
#     Edge 19, Type (0, 0), BuildingBlock: ZUJKAS_clean_linker_0, # of connection points: 2
#     Edge 20, Type (0, 0), BuildingBlock: ZUJKAS_clean_linker_0, # of connection points: 2
#     Edge 21, Type (0, 0), BuildingBlock: ZUJKAS_clean_linker_0, # of connection points: 2
#     Edge 22, Type (0, 0), BuildingBlock: ZUJKAS_clean_linker_0, # of connection points: 2
#     Edge 23, Type (0, 0), BuildingBlock: ZUJKAS_clean_linker_0, # of connection points: 2
#     Edge 24, Type (0, 0), BuildingBlock: ZUJKAS_clean_linker_0, # of connection points: 2
#     Edge 25, Type (0, 0), BuildingBlock: ZUJKAS_clean_linker_0, # of connection points: 2
#     Edge 26, Type (0, 0), BuildingBlock: ZUJKAS_clean_linker_0, # of connection points: 2
#     Edge 27, Type (0, 0), BuildingBlock: ZUJKAS_clean_linker_0, # of connection points: 2
#     Edge 28, Type (0, 0), BuildingBlock: ZUJKAS_clean_linker_0, # of connection points: 2
#     Edge 29, Type (0, 0), BuildingBlock: ZUJKAS_clean_linker_0, # of connection points: 2
#     Edge 30, Type (0, 0), BuildingBlock: ZUJKAS_clean_linker_0, # of connection points: 2
#     Edge 31, Type (0, 0), BuildingBlock: ZUJKAS_clean_linker_0, # of connection points: 2
#     Edge 32, Type (0, 0), BuildingBlock: ZUJKAS_clean_linker_0, # of connection points: 2
#     Edge 33, Type (0, 0), BuildingBlock: ZUJKAS_clean_linker_0, # of connection points: 2
#     Edge 34, Type (0, 0), BuildingBlock: ZUJKAS_clean_linker_0, # of connection points: 2
#     Edge 35, Type (0, 0), BuildingBlock: ZUJKAS_clean_linker_0, # of connection points: 2
# Relax obj value: 0.060
# Max RMSD: 0.138
# Mean RMSD: 0.138
data_MOF--net-smm--node1-GEDQOX_clean_sbu_0--edge1-ZUJKAS_clean_linker_0
_symmetry_space_group_name_H-M    P1
_symmetry_Int_Tables_number       1
_symmetry_cell_setting            triclinic
loop_
_symmetry_equiv_pos_as_xyz
'x, y, z'
_cell_length_a     85.922514
_cell_length_b     85.925507
_cell_length_c     18.635387
_cell_angle_alpha  90.039919
_cell_angle_beta   89.988538
_cell_angle_gamma 119.96876
loop_
_atom_site_label
_atom_site_type_symbol
_atom_site_fract_x
_atom_site_fract_y
_atom_site_fract_z
_atom_type_partial_charge
Nd0 Nd 0.0644 0.22513 0.02946 0.0
Nd1 Nd 1.03024 0.18965 -0.01092 0.0
C2 C 0.0895 0.25774 0.07129 0.0
C3 C 0.09814 0.27616 0.04004 0.0
C4 C 0.09944 0.29054 0.08073 0.0
C5 C 0.10762 0.308 0.05221 0.0
C6 C 0.11481 0.31157 0.98224 0.0
C7 C 0.11344 0.29711 0.94153 0.0
C8 C 0.10516 0.27965 0.96989 0.0
C9 C 0.05843 0.21885 0.88578 0.0
C10 C 1.02509 0.22329 0.02564 0.0
C11 C 1.00547 0.15881 0.93113 0.0
C12 C 0.99799 0.13915 0.93838 0.0
C13 C 0.97997 0.12753 0.91996 0.0
C14 C 0.97217 0.10892 0.92884 0.0
C15 C 0.9822 0.10139 0.95648 0.0
C16 C 1.00038 0.1131 0.97423 0.0
C17 C 1.00818 0.13179 0.96555 0.0
C18 C 0.03528 0.19574 0.13272 0.0
C19 C 0.06893 0.1903 0.01479 0.0
O20 O 0.07263 0.2505 0.09011 0.0
O21 O 0.09305 0.24615 0.04087 0.0
O22 O 0.07419 0.22667 0.91442 0.0
O23 O 0.04647 0.21573 0.9313 0.0
O24 O 0.04103 0.23013 0.05657 0.0
O25 O 1.01898 0.209 -0.01658 0.0
O26 O 1.02173 0.16846 0.90516 0.0
O27 O 1.00228 0.16677 -0.01586 0.0
O28 O 1.01959 0.18702 0.10312 0.0
O29 O 0.04763 0.19921 0.08847 0.0
O30 O 0.05326 0.18291 0.9809 0.0
O31 O 0.07496 0.20562 0.05037 0.0
H32 H 0.09417 0.28828 0.13489 0.0
H33 H 0.10856 0.31876 0.08554 0.0
H34 H 0.11856 0.29924 0.88717 0.0
H35 H 0.10425 0.26887 0.93669 0.0
H36 H 0.97184 0.13288 0.89896 0.0
H37 H 0.95826 0.1004 0.91342 0.0
H38 H 1.0085 0.10786 -0.00375 0.0
H39 H 1.02208 0.14049 0.98073 0.0
Nd40 Nd 0.85869 0.86758 0.02105 0.0
Nd41 Nd 0.89433 0.86907 0.9822 0.0
C42 C 0.82602 0.8599 0.0627 0.0
C43 C 0.80745 0.84954 0.03302 0.0
C44 C 0.79349 0.83645 0.07517 0.0
C45 C 0.77587 0.82675 0.0484 0.0
C46 C 0.77171 0.82996 0.97878 0.0
C47 C 0.78575 0.84305 0.93655 0.0
C48 C 0.80337 0.85265 0.96315 0.0
C49 C 0.8653 0.86802 0.87742 0.0
C50 C 0.86054 0.83009 0.0139 0.0
C51 C 0.92527 0.87507 0.92559 0.0
C52 C 0.94492 0.88703 0.93367 0.0
C53 C 0.95642 0.88056 0.91406 0.0
C54 C 0.97502 0.89111 0.92392 0.0
C55 C 0.98264 0.90845 0.95374 0.0
C56 C 0.97107 0.91502 0.97262 0.0
C57 C 0.95238 0.90438 0.96298 0.0
C58 C 0.88752 0.86718 0.12536 0.0
C59 C 0.89362 0.90702 0.00905 0.0
O60 O 0.83361 0.85075 0.08372 0.0
O61 O 0.83728 0.87474 0.02968 0.0
O62 O 0.85745 0.87599 0.9058 0.0
O63 O 0.86835 0.85921 0.92325 0.0
O64 O 0.85341 0.83894 0.04492 0.0
O65 O 0.87505 0.83856 0.97316 0.0
O66 O 0.91581 0.88191 0.89957 0.0
O67 O 0.91712 0.86383 0.97809 0.0
O68 O 0.89639 0.86037 0.09563 0.0
O69 O 0.88433 0.87639 0.08171 0.0
O70 O 0.90126 0.89886 0.97606 0.0
O71 O 0.87803 0.89765 0.04267 0.0
H72 H 0.7962 0.83377 0.12917 0.0
H73 H 0.76544 0.81693 0.08286 0.0
H74 H 0.78317 0.84574 0.8824 0.0
H75 H 0.8138 0.86254 0.92885 0.0
H76 H 0.95098 0.86722 0.89144 0.0
H77 H 0.98345 0.88567 0.90763 0.0
H78 H 0.9764 0.92822 -0.0037 0.0
H79 H 0.94376 0.90961 0.97914 0.0
Nd80 Nd 0.2162 1.01812 0.0261 0.0
Nd81 Nd 0.21436 0.05218 -0.0113 0.0
C82 C 0.2241 0.9932 0.06668 0.0
C83 C 0.23427 0.98487 0.03621 0.0
C84 C 0.24692 0.98326 0.07858 0.0
C85 C 0.25637 0.97513 0.05115 0.0
C86 C 0.25334 0.96829 0.98061 0.0
C87 C 0.24072 0.97002 0.93815 0.0
C88 C 0.23137 0.97825 0.96543 0.0
C89 C 0.21531 0.02431 0.88278 0.0
C90 C 0.25353 0.0576 0.0183 0.0
C91 C 0.20721 0.07658 0.93475 0.0
C92 C 0.19459 0.08352 0.94552 0.0
C93 C 0.18586 0.08584 0.88624 0.0
C94 C 0.17502 0.0937 0.89447 0.0
C95 C 0.17274 0.09955 0.96227 0.0
C96 C 0.18122 0.09687 0.02183 0.0
C97 C 0.19195 0.08892 0.01364 0.0
C98 C 0.21669 0.04722 0.13144 0.0
C99 C 0.17667 1.01333 0.01609 0.0
O100 O 0.23339 1.00999 0.087 0.0
O101 O 0.20912 0.98958 0.03473 0.0
O102 O 0.20753 1.0085 0.91099 0.0
O103 O 0.22419 0.03618 0.92853 0.0
O104 O 0.24484 0.04159 0.04899 0.0
O105 O 0.24491 0.06367 0.97855 0.0
O106 O 0.20086 0.06051 0.90707 0.0
O107 O 0.21901 0.07991 -0.01462 0.0
O108 O 0.22333 0.0629 0.10202 0.0
O109 O 0.20741 0.03482 0.08784 0.0
O110 O 0.18467 0.02911 0.9831 0.0
O111 O 0.18619 1.00722 0.04924 0.0
H112 H 0.24942 0.9882 0.13328 0.0
H113 H 0.26582 0.97391 0.08578 0.0
H114 H 0.2382 0.96518 0.88334 0.0
H115 H 0.22184 0.97939 0.93099 0.0
H116 H 0.18772 0.08191 0.83309 0.0
H117 H 0.16887 0.09566 0.84724 0.0
H118 H 0.17956 0.10092 0.07501 0.0
H119 H 0.1984 0.08726 0.06062 0.0
Nd120 Nd 0.73082 0.55886 0.32026 0.0
Nd121 Nd 0.69811 0.52065 0.3184 0.0
C122 C 0.76096 0.59046 0.32584 0.0
C123 C 0.76819 0.60916 0.2983 0.0
C124 C 0.76579 0.62196 0.33643 0.0
C125 C 0.77322 0.63967 0.31119 0.0
C126 C 0.78335 0.64512 0.24728 0.0
C127 C 0.78568 0.63227 0.20922 0.0
C128 C 0.77828 0.6146 0.23446 0.0
C129 C 0.71156 0.54892 0.19465 0.0
C130 C 0.69258 0.55538 0.35651 0.0
C131 C 0.66805 0.48958 0.29728 0.0
C132 C 0.66067 0.46978 0.29988 0.0
C133 C 0.66522 0.46076 0.24825 0.0
C134 C 0.6572 0.44196 0.24949 0.0
C135 C 0.64439 0.43168 0.30223 0.0
C136 C 0.64005 0.4408 0.35422 0.0
C137 C 0.64802 0.45955 0.35286 0.0
C138 C 0.71676 0.53023 0.44522 0.0
C139 C 0.73683 0.52388 0.30142 0.0
O140 O 0.74868 0.58471 0.37619 0.0
O141 O 0.75797 0.578 0.2786 0.0
O142 O 0.71846 0.56481 0.22238 0.0
O143 O 0.71549 0.53919 0.23185 0.0
O144 O 0.71007 0.56518 0.36725 0.0
O145 O 0.68529 0.53895 0.3288 0.0
O146 O 0.67927 0.49878 0.2457 0.0
O147 O 0.67226 0.49821 0.35846 0.0
O148 O 0.7094 0.51416 0.41818 0.0
O149 O 0.71337 0.54025 0.4071 0.0
O150 O 0.71973 0.51417 0.2832 0.0
O151 O 0.74348 0.5404 0.32741 0.0
H152 H 0.7583 0.61836 0.38624 0.0
H153 H 0.77132 0.64918 0.34269 0.0
H154 H 0.79314 0.63578 0.15935 0.0
H155 H 0.78056 0.6052 0.20387 0.0
H156 H 0.67479 0.46818 0.20622 0.0
H157 H 0.66076 0.43547 0.20799 0.0
H158 H 0.63049 0.43346 0.39639 0.0
H159 H 0.64412 0.46606 0.39313 0.0
Nd160 Nd 0.52436 0.19607 0.33115 0.0
Nd161 Nd 0.56288 0.20216 0.3298 0.0
C162 C 0.49265 0.1944 0.33652 0.0
C163 C 0.47403 0.18319 0.30821 0.0
C164 C 0.46253 0.16555 0.33248 0.0
C165 C 0.44491 0.15548 0.306 0.0
C166 C 0.43833 0.16276 0.25444 0.0
C167 C 0.44989 0.18039 0.23031 0.0
C168 C 0.46743 0.19046 0.25701 0.0
C169 C 0.53478 0.18736 0.20527 0.0
C170 C 0.52843 0.16161 0.36645 0.0
C171 C 0.59432 0.20402 0.30747 0.0
C172 C 0.61397 0.21699 0.30903 0.0
C173 C 0.62472 0.21753 0.25125 0.0
C174 C 0.64343 0.22871 0.25331 0.0
C175 C 0.65196 0.23963 0.31349 0.0
C176 C 0.64109 0.23931 0.37082 0.0
C177 C 0.62234 0.22815 0.36861 0.0
C178 C 0.5529 0.21074 0.4568 0.0
C179 C 0.55895 0.23729 0.31526 0.0
O180 O 0.49832 0.18761 0.38613 0.0
O181 O 0.50514 0.20406 0.28975 0.0
O182 O 0.51884 0.17812 0.23236 0.0
O183 O 0.5443 0.20095 0.24319 0.0
O184 O 0.51839 0.16906 0.37709 0.0
O185 O 0.54493 0.17098 0.33957 0.0
O186 O 0.58487 0.2057 0.25604 0.0
O187 O 0.58579 0.19948 0.36885 0.0
O188 O 0.56902 0.21961 0.43041 0.0
O189 O 0.54304 0.19736 0.41814 0.0
O190 O 0.56895 0.23024 0.2968 0.0
O191 O 0.54238 0.22713 0.34013 0.0
H192 H 0.46711 0.15949 0.37197 0.0
H193 H 0.43649 0.14191 0.32541 0.0
H194 H 0.44527 0.18659 0.19159 0.0
H195 H 0.47585 0.20407 0.23779 0.0
H196 H 0.61863 0.20909 0.20465 0.0
H197 H 0.65122 0.22878 0.2075 0.0
H198 H 0.64708 0.24735 0.4184 0.0
H199 H 0.61445 0.22805 0.41412 0.0
Nd200 Nd 0.88612 0.35336 0.34058 0.0
Nd201 Nd 0.88404 0.38723 0.30199 0.0
C202 C 0.89388 0.32836 0.38182 0.0
C203 C 0.90456 0.32069 0.35156 0.0
C204 C 0.90532 0.30674 0.38739 0.0
C205 C 0.91478 0.29888 0.35773 0.0
C206 C 0.92371 0.30476 0.29129 0.0
C207 C 0.92297 0.31888 0.25583 0.0
C208 C 0.91351 0.32674 0.28562 0.0
C209 C 0.88534 0.35947 0.1971 0.0
C210 C 0.92333 0.3929 0.3337 0.0
C211 C 0.87686 0.41141 0.24567 0.0
C212 C 0.86422 0.41844 0.25383 0.0
C213 C 0.85479 0.41935 0.1939 0.0
C214 C 0.84402 0.42735 0.19911 0.0
C215 C 0.84251 0.43479 0.26438 0.0
C216 C 0.8517 0.43353 0.32469 0.0
C217 C 0.86237 0.42544 0.31957 0.0
C218 C 0.88621 0.38248 0.445 0.0
C219 C 0.84652 0.34826 0.33111 0.0
O220 O 0.90277 0.34505 0.40374 0.0
O221 O 0.87937 0.32486 0.34636 0.0
O222 O 0.87747 0.34367 0.22547 0.0
O223 O 0.89415 0.37136 0.24284 0.0
O224 O 0.91468 0.3768 0.36358 0.0
O225 O 0.91472 0.39902 0.29411 0.0
O226 O 0.87069 0.3953 0.21861 0.0
O227 O 0.88842 0.41486 0.29739 0.0
O228 O 0.8927 0.39812 0.41532 0.0
O229 O 0.8771 0.37001 0.40144 0.0
O230 O 0.85435 0.3639 0.29691 0.0
O231 O 0.85622 0.34249 0.365 0.0
H232 H 0.89841 0.30177 0.43807 0.0
H233 H 0.91478 0.28791 0.38633 0.0
H234 H 0.92983 0.32399 0.20521 0.0
H235 H 0.91308 0.33749 0.25692 0.0
H236 H 0.85606 0.41422 0.14244 0.0
H237 H 0.8373 0.42819 0.15133 0.0
H238 H 0.85066 0.43883 0.3761 0.0
H239 H 0.86939 0.42494 0.367 0.0
Nd240 Nd 0.3945 0.89112 0.68547 0.0
Nd241 Nd 0.36183 0.85275 0.68184 0.0
C242 C 0.42474 0.92262 0.69284 0.0
C243 C 0.43248 0.94134 0.66518 0.0
C244 C 0.42775 0.95351 0.69449 0.0
C245 C 0.43567 0.97124 0.66903 0.0
C246 C 0.44859 0.97733 0.6137 0.0
C247 C 0.45324 0.96508 0.58445 0.0
C248 C 0.44537 0.9474 0.61 0.0
C249 C 0.37574 0.88123 0.55873 0.0
C250 C 0.35611 0.88736 0.72136 0.0
C251 C 0.33206 0.82161 0.65764 0.0
C252 C 0.32501 0.80189 0.65811 0.0
C253 C 0.33335 0.79394 0.61973 0.0
C254 C 0.3259 0.77518 0.61921 0.0
C255 C 0.30997 0.76393 0.6573 0.0
C256 C 0.30179 0.77201 0.69603 0.0
C257 C 0.30919 0.7907 0.69626 0.0
C258 C 0.38004 0.86221 0.80963 0.0
C259 C 0.4008 0.8563 0.66863 0.0
O260 O 0.41208 0.91699 0.7416 0.0
O261 O 0.42194 0.91015 0.64594 0.0
O262 O 0.3825 0.89711 0.58649 0.0
O263 O 0.37956 0.8715 0.59645 0.0
O264 O 0.37358 0.89713 0.73271 0.0
O265 O 0.34889 0.87102 0.69269 0.0
O266 O 0.3434 0.83123 0.60707 0.0
O267 O 0.33598 0.82979 0.71977 0.0
O268 O 0.37269 0.84613 0.78269 0.0
O269 O 0.37676 0.87226 0.77114 0.0
O270 O 0.38379 0.84648 0.64925 0.0
O271 O 0.40722 0.8728 0.69445 0.0
H272 H 0.41801 0.94941 0.73753 0.0
H273 H 0.43189 0.98028 0.69376 0.0
H274 H 0.46289 0.96907 0.54116 0.0
H275 H 0.44943 0.93845 0.5865 0.0
H276 H 0.3456 0.80218 0.58991 0.0
H277 H 0.3327 0.7695 0.58945 0.0
H278 H 0.28941 0.76385 0.72515 0.0
H279 H 0.30241 0.79644 0.72587 0.0
Nd280 Nd 0.19166 0.52855 0.67054 0.0
Nd281 Nd 0.22994 0.53395 0.66808 0.0
C282 C 0.16033 0.52773 0.67708 0.0
C283 C 0.14182 0.51671 0.64901 0.0
C284 C 0.12943 0.52267 0.65781 0.0
C285 C 0.11207 0.51287 0.62906 0.0
C286 C 0.10664 0.49683 0.59066 0.0
C287 C 0.11911 0.49083 0.58248 0.0
C288 C 0.13653 0.50068 0.61118 0.0
C289 C 0.20161 0.51947 0.54437 0.0
C290 C 0.19513 0.49383 0.70843 0.0
C291 C 0.26076 0.5346 0.6434 0.0
C292 C 0.28043 0.54697 0.64243 0.0
C293 C 0.29171 0.54062 0.61843 0.0
C294 C 0.31043 0.55171 0.61984 0.0
C295 C 0.31838 0.56949 0.64543 0.0
C296 C 0.30696 0.57592 0.66844 0.0
C297 C 0.28818 0.56476 0.66708 0.0
C298 C 0.22046 0.54282 0.79551 0.0
C299 C 0.22675 0.56958 0.65536 0.0
O300 O 0.16571 0.52044 0.7256 0.0
O301 O 0.17277 0.537 0.62965 0.0
O302 O 0.18571 0.51042 0.57197 0.0
O303 O 0.21135 0.53304 0.58208 0.0
O304 O 0.18538 0.50161 0.71858 0.0
O305 O 0.21153 0.50281 0.68028 0.0
O306 O 0.25122 0.53645 0.59287 0.0
O307 O 0.25286 0.5311 0.70605 0.0
O308 O 0.2366 0.5514 0.76898 0.0
O309 O 0.21036 0.52954 0.75684 0.0
O310 O 0.23659 0.56234 0.63664 0.0
O311 O 0.21012 0.55955 0.67984 0.0
H312 H 0.13323 0.53501 0.68668 0.0
H313 H 0.10283 0.51782 0.63756 0.0
H314 H 0.11555 0.47868 0.55266 0.0
H315 H 0.14592 0.49589 0.60324 0.0
H316 H 0.28603 0.52696 0.59902 0.0
H317 H 0.31867 0.54633 0.60045 0.0
H318 H 0.31253 0.58946 0.68904 0.0
H319 H 0.27972 0.56994 0.68604 0.0
Nd320 Nd 0.55397 0.68739 0.68034 0.0
Nd321 Nd 0.54806 0.72002 0.67749 0.0
C322 C 0.55561 0.65733 0.68706 0.0
C323 C 0.56687 0.64983 0.65981 0.0
C324 C 0.58387 0.65496 0.68897 0.0
C325 C 0.59394 0.64725 0.66393 0.0
C326 C 0.58727 0.63417 0.60913 0.0
C327 C 0.57028 0.62915 0.57996 0.0
C328 C 0.56022 0.63681 0.60511 0.0
C329 C 0.56268 0.70625 0.55392 0.0
C330 C 0.58847 0.72593 0.71645 0.0
C331 C 0.54634 0.74959 0.6529 0.0
C332 C 0.53342 0.75635 0.65256 0.0
C333 C 0.53192 0.765 0.59121 0.0
C334 C 0.5208 0.77263 0.59107 0.0
C335 C 0.51091 0.77191 0.65256 0.0
C336 C 0.5122 0.76295 0.71365 0.0
C337 C 0.52329 0.75527 0.71366 0.0
C338 C 0.53945 0.70172 0.80495 0.0
C339 C 0.51275 0.68094 0.66416 0.0
O340 O 0.56231 0.66985 0.7365 0.0
O341 O 0.54603 0.66013 0.63971 0.0
O342 O 0.5719 0.69955 0.58129 0.0
O343 O 0.54914 0.70234 0.59189 0.0
O344 O 0.5809 0.70844 0.72728 0.0
O345 O 0.57925 0.7331 0.68835 0.0
O346 O 0.54486 0.73838 0.60211 0.0
O347 O 0.55066 0.74569 0.71499 0.0
O348 O 0.5307 0.70911 0.77856 0.0
O349 O 0.55276 0.70506 0.76624 0.0
O350 O 0.51986 0.69799 0.64549 0.0
O351 O 0.52289 0.67448 0.68903 0.0
H352 H 0.58939 0.66483 0.7316 0.0
H353 H 0.60682 0.65133 0.6886 0.0
H354 H 0.56473 0.61936 0.53707 0.0
H355 H 0.54714 0.63245 0.58171 0.0
H356 H 0.53957 0.76607 0.54339 0.0
H357 H 0.51998 0.7791 0.54254 0.0
H358 H 0.505 0.76225 0.76234 0.0
H359 H 0.52414 0.74874 0.762 0.0
H360 H 0.10441 0.33699 -0.00437 0.0
H361 H 0.11893 0.36741 0.94602 0.0
H362 H 0.16005 0.35919 0.85146 0.0
H363 H 0.14552 0.3287 0.90034 0.0
H364 H 0.15166 0.39601 0.96869 0.0
H365 H 0.14597 0.37791 0.68052 0.0
H366 H 0.1341 0.36145 0.74953 0.0
H367 H 0.15747 0.36919 0.73255 0.0
C368 C 0.11657 0.34163 0.96441 0.0
C369 C 0.12369 0.33025 0.95184 0.0
C370 C 0.12484 0.35907 0.93575 0.0
C371 C 0.14046 0.36563 0.89363 0.0
C372 C 0.14775 0.35438 0.88183 0.0
H373 H 0.21 0.47184 0.69695 0.0
H374 H 0.19752 0.44092 0.74141 0.0
C375 C 0.13942 0.3369 0.91011 0.0
C376 C 0.14933 0.38437 0.86413 0.0
H377 H 0.16358 0.40892 0.7088 0.0
C378 C 0.1542 0.39877 0.91181 0.0
C379 C 0.15278 0.38814 0.78983 0.0
C380 C 0.14717 0.37336 0.735 0.0
C381 C 0.16242 0.41668 0.88759 0.0
C382 C 0.16573 0.42043 0.81337 0.0
C383 C 0.16112 0.4061 0.76568 0.0
C384 C 0.17324 0.43905 0.78427 0.0
C385 C 0.16766 0.43151 0.94194 0.0
C386 C 0.16363 0.44821 0.79207 0.0
C387 C 0.17067 0.46579 0.76654 0.0
C388 C 0.18754 0.47476 0.73225 0.0
C389 C 0.19702 0.46543 0.72317 0.0
C390 C 0.18989 0.44773 0.74857 0.0
H391 H 0.16865 0.42707 -0.00311 0.0
H392 H 0.18072 0.44346 0.92777 0.0
H393 H 0.15729 0.4356 0.94276 0.0
H394 H 0.15063 0.44174 0.81813 0.0
H395 H 0.16286 0.47239 0.77443 0.0
H396 H 0.75359 0.8427 0.89814 0.0
H397 H 0.72272 0.82612 0.85301 0.0
H398 H 0.7162 0.77754 0.94856 0.0
H399 H 0.74696 0.79405 -0.00564 0.0
H400 H 0.70602 0.79822 0.76151 0.0
H401 H 0.67255 0.7775 0.02601 0.0
H402 H 0.69602 0.79407 0.01694 0.0
H403 H 0.68878 0.77047 0.01266 0.0
C404 C 0.74563 0.82847 0.90945 0.0
C405 C 0.75283 0.81979 0.95051 0.0
C406 C 0.7279 0.81899 0.88372 0.0
C407 C 0.71687 0.80059 0.8984 0.0
C408 C 0.72415 0.79182 0.93815 0.0
H409 H 0.6103 0.71572 0.78344 0.0
H410 H 0.64117 0.73453 0.82439 0.0
C411 C 0.74182 0.8013 0.96427 0.0
C412 C 0.69792 0.79052 0.87113 0.0
H413 H 0.65431 0.76311 0.92367 0.0
C414 C 0.69472 0.79068 0.79713 0.0
C415 C 0.68303 0.78069 0.91732 0.0
C416 C 0.68521 0.78079 -0.0023 0.0
C417 C 0.67725 0.78087 0.76807 0.0
C418 C 0.66245 0.77075 0.81415 0.0
C419 C 0.66561 0.77079 0.88816 0.0
C420 C 0.64368 0.75947 0.78671 0.0
C421 C 0.67482 0.78098 0.68795 0.0
C422 C 0.6346 0.76715 0.75181 0.0
C423 C 0.61677 0.75636 0.72821 0.0
C424 C 0.60761 0.73763 0.73901 0.0
C425 C 0.61682 0.73004 0.77376 0.0
C426 C 0.63454 0.74081 0.7975 0.0
H427 H 0.68775 0.78622 0.65875 0.0
H428 H 0.66533 0.76725 0.66803 0.0
H429 H 0.6691 0.78972 0.67503 0.0
H430 H 0.64121 0.78154 0.74379 0.0
H431 H 0.61013 0.76272 0.70206 0.0
H432 H 0.2889 0.9782 -0.00102 0.0
H433 H 0.30492 0.96352 0.95176 0.0
H434 H 0.25624 0.92321 0.85039 0.0
H435 H 0.24019 0.9379 0.89685 0.0
H436 H 0.30014 0.93053 0.97411 0.0
H437 H 0.29049 0.9375 0.68425 0.0
H438 H 0.28548 0.94927 0.75242 0.0
H439 H 0.26981 0.92603 0.7334 0.0
C440 C 0.28156 0.96619 0.96674 0.0
C441 C 0.26322 0.95934 0.95156 0.0
C442 C 0.29078 0.95782 0.93946 0.0
C443 C 0.28195 0.94238 0.89617 0.0
C444 C 0.26357 0.93537 0.88174 0.0
H445 H 0.31937 0.87266 0.70561 0.0
H446 H 0.30073 0.88517 0.74758 0.0
C447 C 0.25437 0.9438 0.90862 0.0
C448 C 0.29188 0.9334 0.86823 0.0
H449 H 0.3033 0.91947 0.71464 0.0
C450 C 0.30084 0.92818 0.91732 0.0
C451 C 0.29281 0.93019 0.79405 0.0
C452 C 0.28429 0.93618 0.73787 0.0
C453 C 0.31056 0.91985 0.89461 0.0
C454 C 0.31161 0.91678 0.82053 0.0
C455 C 0.30246 0.92174 0.77141 0.0
C456 C 0.32285 0.90923 0.79314 0.0
C457 C 0.31953 0.91425 0.95035 0.0
C458 C 0.34153 0.9187 0.80337 0.0
C459 C 0.35219 0.91165 0.77926 0.0
C460 C 0.3445 0.8949 0.74403 0.0
C461 C 0.32579 0.88554 0.73263 0.0
C462 C 0.3151 0.89269 0.75659 0.0
H463 H 0.31365 0.91313 0.0045 0.0
H464 H 0.31838 0.90116 0.93616 0.0
H465 H 0.33402 0.92448 0.95313 0.0
H466 H 0.34791 0.93161 0.83017 0.0
H467 H 0.36652 0.91936 0.78895 0.0
H468 H 0.42648 0.16087 0.11586 0.0
H469 H 0.39563 0.14421 0.07055 0.0
H470 H 0.37659 0.12359 0.2828 0.0
H471 H 0.40736 0.14049 0.32889 0.0
H472 H 0.3711 0.10707 0.07264 0.0
H473 H 0.34452 0.14443 0.22384 0.0
H474 H 0.36828 0.15269 0.21352 0.0
H475 H 0.35549 0.13557 0.2786 0.0
C476 C 0.41573 0.15293 0.15318 0.0
C477 C 0.41949 0.15216 0.22629 0.0
C478 C 0.39808 0.14332 0.12702 0.0
C479 C 0.38369 0.13283 0.17332 0.0
C480 C 0.38739 0.13182 0.24611 0.0
H481 H 0.27592 0.04736 0.07952 0.0
H482 H 0.30751 0.06606 0.1115 0.0
C483 C 0.40506 0.14136 0.27229 0.0
C484 C 0.36489 0.1227 0.14522 0.0
H485 H 0.32305 0.1179 0.1635 0.0
C486 C 0.36063 0.10951 0.09231 0.0
C487 C 0.35121 0.12601 0.16995 0.0
C488 C 0.35507 0.14055 0.22412 0.0
C489 C 0.34304 0.09922 0.06517 0.0
C490 C 0.32922 0.10207 0.09187 0.0
C491 C 0.33358 0.11561 0.14324 0.0
C492 C 0.31007 0.09067 0.06925 0.0
C493 C 0.33941 0.08542 0.00779 0.0
C494 C 0.30078 0.09823 0.03522 0.0
C495 C 0.28257 0.08748 0.01648 0.0
C496 C 0.2732 0.06899 0.03235 0.0
C497 C 0.28262 0.06151 0.06613 0.0
C498 C 0.30079 0.0722 0.08428 0.0
H499 H 0.35193 0.08817 0.97963 0.0
H500 H 0.33354 0.07195 0.03294 0.0
H501 H 0.32968 0.08504 0.96759 0.0
H502 H 0.30761 0.11247 0.0234 0.0
H503 H 0.27574 0.09375 -0.00891 0.0
H504 H 0.94412 0.29274 0.36007 0.0
H505 H 0.96001 0.27851 0.30753 0.0
H506 H 0.94176 0.28286 0.09709 0.0
H507 H 0.92569 0.29696 0.14915 0.0
H508 H 0.94732 0.24707 0.22829 0.0
H509 H 0.99586 0.30572 0.06727 0.0
H510 H 0.98228 0.30752 0.13705 0.0
H511 H 0.97269 0.29869 0.0505 0.0
C512 C 0.94335 0.29059 0.30262 0.0
C513 C 0.9336 0.29614 0.25906 0.0
C514 C 0.95253 0.28249 0.27256 0.0
C515 C 0.95234 0.27979 0.19809 0.0
C516 C 0.94249 0.28513 0.15446 0.0
H517 H 0.98909 0.21031 -0.00308 0.0
H518 H 0.97063 0.22343 0.03394 0.0
C519 C 0.9333 0.29324 0.18446 0.0
C520 C 0.96232 0.27126 0.16656 0.0
H521 H 0.99637 0.27866 0.05121 0.0
C522 C 0.958 0.25396 0.18936 0.0
C523 C 0.97639 0.28026 0.11615 0.0
C524 C 0.98224 0.29913 0.09163 0.0
C525 C 0.96732 0.24548 0.16335 0.0
C526 C 0.98126 0.25441 0.11239 0.0
C527 C 0.98556 0.2717 0.08956 0.0
C528 C 0.99238 0.24661 0.08616 0.0
C529 C 0.96254 0.22724 0.19239 0.0
C530 C 1.01086 0.25546 0.10109 0.0
C531 C 1.02141 0.24804 0.07992 0.0
C532 C 1.01383 0.23159 0.04253 0.0
C533 C 0.9954 0.22297 0.02557 0.0
C534 C 0.98479 0.2304 0.04724 0.0
H535 H 0.95417 0.22384 0.24162 0.0
H536 H 0.95483 0.21687 0.15122 0.0
H537 H 0.97486 0.22663 0.20493 0.0
H538 H 1.01709 0.268 0.13068 0.0
H539 H 0.03554 0.25517 0.09378 0.0
H540 H 0.87422 0.80776 -0.01543 0.0
H541 H 0.86132 0.776 0.01778 0.0
H542 H 0.81569 0.77641 0.11169 0.0
H543 H 0.82835 0.80793 0.07879 0.0
H544 H 0.85229 0.76111 0.15928 0.0
H545 H 0.79235 0.73154 0.98254 0.0
H546 H 0.81133 0.75374 0.96824 0.0
H547 H 0.79495 0.7501 0.03595 0.0
C548 C 0.86133 0.80103 0.01143 0.0
C549 C 0.85233 0.81047 0.02864 0.0
C550 C 0.85399 0.78287 0.03066 0.0
C551 C 0.8374 0.77369 0.06657 0.0
C552 C 0.82833 0.78304 0.08298 0.0
H553 H 0.76925 0.66775 0.2514 0.0
H554 H 0.78289 0.69875 0.2086 0.0
C555 C 0.83568 0.80116 0.06431 0.0
C556 C 0.82986 0.75462 0.08984 0.0
H557 H 0.79308 0.71259 0.07381 0.0
C558 C 0.83943 0.75047 0.14008 0.0
C559 C 0.81299 0.74071 0.06532 0.0
C560 C 0.80234 0.74415 0.00956 0.0
C561 C 0.8324 0.73296 0.16786 0.0
C562 C 0.81548 0.71904 0.14354 0.0
C563 C 0.80601 0.72319 0.09274 0.0
C564 C 0.80733 0.70014 0.17036 0.0
C565 C 0.84292 0.72972 0.2249 0.0
C566 C 0.81636 0.69039 0.16274 0.0
C567 C 0.80866 0.67267 0.18785 0.0
C568 C 0.7916 0.66412 0.22073 0.0
C569 C 0.7825 0.67389 0.22756 0.0
C570 C 0.79024 0.69162 0.20251 0.0
H571 H 0.85273 0.74241 0.25198 0.0
H572 H 0.83386 0.72017 0.26615 0.0
H573 H 0.85055 0.72389 0.19965 0.0
H574 H 0.82938 0.69643 0.13687 0.0
H575 H 0.81621 0.66575 0.18207 0.0
H576 H 0.08688 0.51 0.52494 0.0
H577 H 0.05626 0.49316 0.47751 0.0
H578 H 0.05379 0.44343 0.53536 0.0
H579 H 0.08421 0.46015 0.5847 0.0
H580 H 0.04153 0.46696 0.36867 0.0
H581 H 1.00868 0.43881 0.63017 0.0
H582 H 1.03149 0.45717 0.62342 0.0
H583 H 1.02652 0.43446 0.60858 0.0
C584 C 0.07979 0.49548 0.52835 0.0
C585 C 0.08808 0.4865 0.55944 0.0
C586 C 0.06229 0.48586 0.5006 0.0
C587 C 0.05254 0.46701 0.50369 0.0
C588 C 0.06087 0.45797 0.53339 0.0
H589 H 0.94572 0.38231 0.39176 0.0
H590 H 0.977 0.40088 0.42769 0.0
C591 C 0.07839 0.46758 0.56097 0.0
C592 C 1.03369 0.45681 0.47601 0.0
H593 H 0.9905 0.42719 0.52642 0.0
C594 C 1.03035 0.45833 0.40321 0.0
C595 C 1.01904 0.44558 0.52098 0.0
C596 C 1.02152 0.44399 0.60028 0.0
C597 C 1.01291 0.44852 0.37382 0.0
C598 C 0.99828 0.43712 0.4187 0.0
C599 C 1.00164 0.43583 0.49171 0.0
C600 C 0.97948 0.42591 0.39126 0.0
C601 C 1.01044 0.45003 0.29449 0.0
C602 C 0.97027 0.43366 0.35782 0.0
C603 C 0.95223 0.42296 0.33647 0.0
C604 C 0.94295 0.40431 0.34892 0.0
C605 C 0.95233 0.39661 0.38134 0.0
C606 C 0.97029 0.40725 0.40216 0.0
H607 H 1.02332 0.45539 0.26477 0.0
H608 H 1.00064 0.43678 0.27135 0.0
H609 H 1.00522 0.45937 0.28596 0.0
H610 H 0.97685 0.44805 0.35004 0.0
H611 H 0.94541 0.42938 0.3124 0.0
H612 H 0.57477 0.59908 0.5676 0.0
H613 H 0.59201 0.58542 0.52363 0.0
H614 H 0.64104 0.63607 0.54729 0.0
H615 H 0.62392 0.64997 0.59015 0.0
H616 H 0.6151 0.59451 0.40402 0.0
H617 H 0.6519 0.60119 0.65717 0.0
H618 H 0.63231 0.60378 0.65358 0.0
H619 H 0.65382 0.62181 0.62543 0.0
C620 C 0.58921 0.60742 0.56298 0.0
C621 C 0.59787 0.62571 0.58281 0.0
C622 C 0.59907 0.59952 0.5381 0.0
C623 C 0.61788 0.6096 0.53297 0.0
C624 C 0.62659 0.62787 0.55215 0.0
H625 H 0.70329 0.5894 0.40448 0.0
H626 H 0.68467 0.60181 0.4441 0.0
C627 C 0.61673 0.63581 0.57685 0.0
C628 C 0.62834 0.60109 0.50666 0.0
H629 H 0.6613 0.59182 0.55438 0.0
C630 C 0.62514 0.59383 0.43702 0.0
C631 C 0.64145 0.60017 0.54959 0.0
C632 C 0.64501 0.60699 0.62584 0.0
C633 C 0.63499 0.58616 0.40855 0.0
C634 C 0.64819 0.58532 0.45137 0.0
C635 C 0.65125 0.59244 0.52128 0.0
C636 C 0.65933 0.57758 0.42448 0.0
C637 C 0.63155 0.57956 0.332 0.0
C638 C 0.65141 0.55971 0.40011 0.0
C639 C 0.66209 0.55253 0.37681 0.0
C640 C 0.68098 0.563 0.37806 0.0
C641 C 0.68883 0.58087 0.40257 0.0
C642 C 0.67816 0.58803 0.42548 0.0
H643 H 0.62481 0.58554 0.30083 0.0
H644 H 0.64427 0.58276 0.30446 0.0
H645 H 0.62263 0.56476 0.33171 0.0
H646 H 0.63694 0.55118 0.40024 0.0
H647 H 0.65555 0.53869 0.35897 0.0
H648 H 0.49444 0.13805 0.41346 0.0
H649 H 0.48221 0.10697 0.4519 0.0
H650 H 0.53279 0.11005 0.40498 0.0
H651 H 0.5453 0.1414 0.36673 0.0
H652 H 0.47836 0.07715 0.37591 0.0
H653 H 0.52283 0.09144 0.61256 0.0
H654 H 0.5206 0.10876 0.56698 0.0
H655 H 0.53419 0.10038 0.52881 0.0
C656 C 0.50305 0.13221 0.41121 0.0
C657 C 0.52095 0.14238 0.38717 0.0
C658 C 0.49598 0.11436 0.43323 0.0
C659 C 0.5066 0.10617 0.43244 0.0
C660 C 0.5244 0.11614 0.40742 0.0
H661 H 0.48369 0.99938 0.57154 0.0
H662 H 0.49756 0.03001 0.5248 0.0
C663 C 0.5315 0.13406 0.38506 0.0
C664 C 0.49886 0.08718 0.45734 0.0
H665 H 0.50274 0.06093 0.58608 0.0
C666 C 0.4837 0.07361 0.42185 0.0
C667 C 0.50581 0.08249 0.51722 0.0
C668 C 0.52166 0.09651 0.55915 0.0
C669 C 0.47543 0.05554 0.44412 0.0
C670 C 0.48218 0.05088 0.5048 0.0
C671 C 0.49748 0.06443 0.53975 0.0
C672 C 0.47354 0.03208 0.53306 0.0
C673 C 0.45971 0.04158 0.4014 0.0
C674 C 0.45543 0.02296 0.55443 0.0
C675 C 0.44736 1.00531 0.58057 0.0
C676 C 0.45724 0.99631 0.58669 0.0
C677 C 0.47549 1.00563 0.56642 0.0
C678 C 0.48352 0.02327 0.54014 0.0
H679 H 0.45963 0.04627 0.34591 0.0
H680 H 0.45993 0.02878 0.39844 0.0
H681 H 0.44702 0.03887 0.42777 0.0
H682 H 0.44749 0.02953 0.55119 0.0
H683 H 0.43328 0.99863 0.59508 0.0
H684 H 0.14062 0.0912 0.89796 0.0
H685 H 0.12344 0.10683 0.90992 0.0
H686 H 0.16291 0.14425 0.05814 0.0
H687 H 0.18032 0.12894 0.04555 0.0
H688 H 0.10854 0.11326 0.03585 0.0
H689 H 0.1588 0.17718 0.90774 0.0
H690 H 0.15957 0.15665 0.89883 0.0
H691 H 0.16728 0.16966 0.97989 0.0
C692 C 0.14575 0.10285 0.93266 0.0
C693 C 0.16195 0.1088 0.97055 0.0
C694 C 0.13584 0.11172 0.93976 0.0
C695 C 0.14196 0.12689 -0.0158 0.0
C696 C 0.15801 0.13276 0.02266 0.0
H697 H 0.10158 0.20049 0.07869 0.0
H698 H 0.11896 0.18494 0.0745 0.0
C699 C 0.16787 0.12385 0.01595 0.0
C700 C 0.13147 0.13642 -0.00907 0.0
H701 H 0.1335 0.17668 0.96045 0.0
C702 C 0.11398 0.12711 0.01916 0.0
C703 C 0.13857 0.15455 0.96964 0.0
C704 C 0.15702 0.16511 0.93675 0.0
C705 C 0.10352 0.13545 0.02746 0.0
C706 C 0.11053 0.15352 0.00531 0.0
C707 C 0.12808 0.16286 0.97753 0.0
C708 C 0.09976 0.16285 0.00901 0.0
C709 C 0.0852 0.12489 0.06146 0.0
C710 C 0.08323 0.15581 0.97301 0.0
C711 C 0.07324 0.16463 0.97551 0.0
C712 C 0.07957 0.18087 0.01356 0.0
C713 C 0.09621 0.188 0.0491 0.0
C714 C 0.1062 0.17912 0.04665 0.0
H715 H 0.08411 0.11367 0.0948 0.0
H716 H 0.08214 0.13362 0.09561 0.0
H717 H 0.07487 0.119 0.01863 0.0
H718 H 0.07811 0.14354 0.94206 0.0
H719 H 0.06057 0.15874 0.94698 0.0
H720 H 0.88102 0.92923 0.05479 0.0
H721 H 0.89627 0.96211 0.04809 0.0
H722 H 0.94295 0.96319 0.95733 0.0
H723 H 0.92773 0.93046 0.96219 0.0
H724 H 0.92705 0.98858 0.10794 0.0
H725 H 0.93447 0.99277 0.81223 0.0
H726 H 0.92039 0.97185 0.85806 0.0
H727 H 0.9443 0.98081 0.85302 0.0
C728 C 0.89453 0.93645 0.03333 0.0
C729 C 0.90303 0.92708 0.00842 0.0
C730 C 0.90326 0.9553 0.02952 0.0
C731 C 0.92067 0.96523 0.00066 0.0
C732 C 0.92935 0.95591 0.97782 0.0
H733 H 0.99647 0.07948 0.92986 0.0
H734 H 0.98191 0.04679 0.94403 0.0
C735 C 0.92062 0.93711 0.98115 0.0
C736 C 0.92982 0.98529 -0.00502 0.0
H737 H 0.95045 1.02026 0.87647 0.0
C738 C 0.93206 0.99547 0.05721 0.0
C739 C 0.93643 0.99442 0.92885 0.0
C740 C 0.93364 0.98441 0.85913 0.0
C741 C 0.94098 1.0144 0.05539 0.0
C742 C 0.94769 0.02351 -0.01063 0.0
C743 C 0.94544 1.01334 0.92718 0.0
C744 C 0.95676 0.04352 -0.01671 0.0
C745 C 0.94348 0.02452 0.12456 0.0
C746 C 0.9475 0.05267 0.00021 0.0
C747 C 0.9558 0.07137 -0.00773 0.0
C748 C 0.97359 0.08146 0.96691 0.0
C749 C 0.98286 0.07225 0.9503 0.0
C750 C 0.97451 0.05351 0.95797 0.0
H751 H 0.94195 1.0161 0.17217 0.0
H752 H 0.95692 0.03683 0.12661 0.0
H753 H 0.93315 0.02865 0.12809 0.0
H754 H 0.93372 0.04531 0.01868 0.0
H755 H 0.94825 0.07793 0.00632 0.0
H756 H 1.00503 0.94473 0.93135 0.0
H757 H 0.03774 0.96225 0.94612 0.0
H758 H 0.03806 0.91476 0.01816 0.0
H759 H 1.00549 0.89719 0.00328 0.0
H760 H 0.05963 0.96924 0.06253 0.0
H761 H 0.07513 0.93162 0.86028 0.0
H762 H 0.05309 0.92913 0.86889 0.0
H763 H 0.06017 0.91753 0.92928 0.0
C764 C 1.01204 0.93802 0.95071 0.0
C765 C 1.00255 0.91945 0.96526 0.0
C766 C 1.03079 0.94806 0.9589 0.0
C767 C 0.04052 0.9398 0.98174 0.0
C768 C 1.03102 0.92139 -0.00164 0.0
H769 H 0.15476 0.97852 0.06181 0.0
H770 H 0.12183 0.96082 0.05702 0.0
C771 C 1.01232 0.91134 -0.01011 0.0
C772 C 0.06055 0.95042 -0.01123 0.0
H773 H 0.09946 0.9524 0.93254 0.0
C774 C 0.06832 0.96558 0.03382 0.0
C775 C 0.072 0.94571 0.95146 0.0
C776 C 0.06472 0.93022 0.89923 0.0
C777 C 0.08707 0.97594 0.04331 0.0
C778 C 0.09848 0.97118 0.00617 0.0
C779 C 0.09074 0.956 0.96139 0.0
C780 C 0.11849 0.9821 0.01122 0.0
C781 C 0.09453 0.99173 0.094 0.0
C782 C 0.12765 0.99993 -0.01337 0.0
C783 C 0.14645 1.01004 -0.01103 0.0
C784 C 0.15663 1.0026 0.01604 0.0
C785 C 0.14741 0.98474 0.04098 0.0
C786 C 0.12856 0.97458 0.03813 0.0
H787 H 0.08412 0.99088 0.13175 0.0
H788 H 0.10592 0.99264 0.12554 0.0
H789 H 0.09956 1.0043 0.06252 0.0
H790 H 0.12026 1.00596 0.96446 0.0
H791 H 0.15301 0.0237 0.96907 0.0
H792 H 0.77151 0.53709 0.34995 0.0
H793 H 0.78999 0.52271 0.34281 0.0
H794 H 0.74696 0.47737 0.23395 0.0
H795 H 0.72847 0.49156 0.24056 0.0
H796 H 0.78208 0.48841 0.39856 0.0
H797 H 0.7906 0.4912 0.10288 0.0
H798 H 0.78328 0.50476 0.15022 0.0
H799 H 0.76772 0.48146 0.13255 0.0
C800 C 0.76601 0.52412 0.32399 0.0
C801 C 0.74847 0.51557 0.29557 0.0
C802 C 0.7766 0.51588 0.32013 0.0
C803 C 0.76999 0.49903 0.287 0.0
C804 C 0.75251 0.49049 0.25864 0.0
H805 H 0.80968 0.42502 0.20324 0.0
H806 H 0.79242 0.44061 0.21071 0.0
C807 C 0.7419 0.49864 0.26283 0.0
C808 C 0.78111 0.49009 0.28366 0.0
H809 H 0.80007 0.47355 0.16699 0.0
C810 C 0.78613 0.48527 0.34795 0.0
C811 C 0.78631 0.48586 0.21766 0.0
C812 C 0.78186 0.4912 0.14682 0.0
C813 C 0.7958 0.47598 0.34806 0.0
C814 C 0.80104 0.47176 0.28198 0.0
C815 C 0.79609 0.4767 0.2177 0.0
C816 C 0.81161 0.46221 0.27818 0.0
C817 C 0.79976 0.47027 0.4191 0.0
C818 C 0.82833 0.46917 0.31273 0.0
C819 C 0.83822 0.46022 0.30874 0.0
C820 C 0.83178 0.44418 0.26924 0.0
C821 C 0.81516 0.43737 0.23376 0.0
C822 C 0.80522 0.44627 0.23818 0.0
H823 H 0.79042 0.46965 0.46172 0.0
H824 H 0.79878 0.45692 0.41496 0.0
H825 H 0.81362 0.48023 0.43607 0.0
H826 H 0.8339 0.48169 0.34216 0.0
H827 H 0.85111 0.4661 0.33551 0.0
H828 H 0.60917 0.40718 0.33395 0.0
H829 H 0.59467 0.37444 0.33725 0.0
H830 H 0.64422 0.37754 0.27124 0.0
H831 H 0.65905 0.41034 0.27065 0.0
H832 H 0.58916 0.35025 0.2314 0.0
H833 H 0.63127 0.34528 0.4453 0.0
H834 H 0.63142 0.36592 0.42595 0.0
H835 H 0.64406 0.35895 0.37094 0.0
C836 C 0.61711 0.40097 0.3212 0.0
C837 C 0.6354 0.41156 0.30272 0.0
C838 C 0.60872 0.38217 0.32253 0.0
C839 C 0.61838 0.37343 0.30572 0.0
C840 C 0.63654 0.38391 0.28601 0.0
H841 H 0.593 0.26231 0.27325 0.0
H842 H 0.60659 0.29495 0.27003 0.0
C843 C 0.64496 0.40272 0.28479 0.0
C844 C 0.60934 0.35338 0.30766 0.0
H845 H 0.61171 0.31831 0.38302 0.0
C846 C 0.59404 0.34327 0.26488 0.0
C847 C 0.61564 0.34419 0.35143 0.0
C848 C 0.63139 0.35411 0.40155 0.0
C849 C 0.58516 0.32436 0.26339 0.0
C850 C 0.59157 0.3152 0.30665 0.0
C851 C 0.60681 0.32529 0.34969 0.0
C852 C 0.58288 0.29519 0.3073 0.0
C853 C 0.56927 0.31435 0.21404 0.0
C854 C 0.56498 0.28432 0.32973 0.0
C855 C 0.5571 0.26554 0.33167 0.0
C856 C 0.56698 0.2572 0.31144 0.0
C857 C 0.58491 0.26816 0.28902 0.0
C858 C 0.59275 0.2869 0.28726 0.0
H859 H 0.56879 0.32326 0.17201 0.0
H860 H 0.56963 0.30296 0.18751 0.0
H861 H 0.5567 0.30882 0.24586 0.0
H862 H 0.55715 0.29038 0.3468 0.0
H863 H 0.54332 0.25759 0.34963 0.0
H864 H 0.67726 0.2315 0.26398 0.0
H865 H 0.70997 0.24994 0.26928 0.0
H866 H 0.70526 0.29184 0.37659 0.0
H867 H 0.67249 0.2736 0.37067 0.0
H868 H 0.73267 0.28365 0.21212 0.0
H869 H 0.73952 0.28502 0.50839 0.0
H870 H 0.719 0.26949 0.4628 0.0
H871 H 0.72457 0.29241 0.47635 0.0
C872 C 0.6831 0.2447 0.28821 0.0
C873 C 0.67206 0.25097 0.31691 0.0
C874 C 0.70188 0.2552 0.29158 0.0
C875 C 0.71017 0.27221 0.32425 0.0
C876 C 0.69925 0.27861 0.35253 0.0
H877 H 0.82225 0.3562 0.26995 0.0
H878 H 0.78949 0.33794 0.26896 0.0
C879 C 0.68044 0.26812 0.34908 0.0
C880 C 0.73021 0.28334 0.3271 0.0
H881 H 0.76593 0.30404 0.44216 0.0
C882 C 0.73993 0.28808 0.26246 0.0
C883 C 0.73977 0.28897 0.39275 0.0
C884 C 0.73024 0.2836 0.46412 0.0
C885 C 0.75882 0.29847 0.26157 0.0
C886 C 0.76836 0.30455 0.32712 0.0
C887 C 0.75867 0.29956 0.39185 0.0
C888 C 0.78838 0.31593 0.32953 0.0
C889 C 0.76842 0.30255 0.19032 0.0
C890 C 0.7988 0.30998 0.36579 0.0
C891 C 0.81762 0.32048 0.36685 0.0
C892 C 0.82649 0.33725 0.33202 0.0
C893 C 0.81598 0.34332 0.29697 0.0
C894 C 0.79718 0.33282 0.29596 0.0
H895 H 0.7598 0.29309 0.14781 0.0
H896 H 0.77205 0.31633 0.17338 0.0
H897 H 0.78096 0.30187 0.19438 0.0
H898 H 0.79236 0.29705 0.39247 0.0
H899 H 0.82521 0.31535 0.39455 0.0
H900 H 0.51804 0.80378 0.58929 0.0
H901 H 0.49979 0.81831 0.59141 0.0
H902 H 0.46007 0.7751 0.72041 0.0
H903 H 0.47806 0.76026 0.71764 0.0
H904 H 0.46461 0.80588 0.54376 0.0
H905 H 0.47035 0.81994 0.83612 0.0
H906 H 0.48479 0.81364 0.78949 0.0
H907 H 0.46233 0.79682 0.81365 0.0
C908 C 0.50535 0.79721 0.6176 0.0
C909 C 0.49963 0.78078 0.65343 0.0
C910 C 0.49496 0.80564 0.61909 0.0
C911 C 0.47865 0.79798 0.65694 0.0
C912 C 0.47278 0.78151 0.69214 0.0
H913 H 0.39251 0.82318 0.61618 0.0
H914 H 0.41158 0.80958 0.61221 0.0
C915 C 0.48314 0.77303 0.69053 0.0
C916 C 0.4677 0.8071 0.65858 0.0
H917 H 0.44975 0.82544 0.77157 0.0
C918 C 0.46139 0.81018 0.59359 0.0
C919 C 0.46368 0.81297 0.72343 0.0
C920 C 0.47075 0.81085 0.79466 0.0
C921 C 0.45093 0.81862 0.5918 0.0
C922 C 0.44643 0.82398 0.65685 0.0
C923 C 0.45304 0.82122 0.72172 0.0
C924 C 0.43486 0.83242 0.65873 0.0
C925 C 0.44499 0.82195 0.52006 0.0
C926 C 0.44139 0.84971 0.68752 0.0
C927 C 0.43046 0.85757 0.69005 0.0
C928 C 0.41267 0.84824 0.66444 0.0
C929 C 0.40615 0.83087 0.63606 0.0
C930 C 0.41709 0.82306 0.63337 0.0
H931 H 0.45336 0.82151 0.47551 0.0
H932 H 0.43087 0.81137 0.51002 0.0
H933 H 0.44564 0.83518 0.51919 0.0
H934 H 0.45501 0.85719 0.70778 0.0
H935 H 0.43595 0.87092 0.71257 0.0
H936 H 0.26119 0.59459 0.61686 0.0
H937 H 0.27508 0.62729 0.61621 0.0
H938 H 0.2253 0.62284 0.68763 0.0
H939 H 0.21118 0.59001 0.68792 0.0
H940 H 0.24181 0.6479 0.57608 0.0
H941 H 0.29042 0.65968 0.79422 0.0
H942 H 0.29114 0.64642 0.7211 0.0
H943 H 0.27133 0.6378 0.77595 0.0
C944 C 0.25312 0.60049 0.63239 0.0
C945 C 0.23502 0.58954 0.65278 0.0
C946 C 0.26116 0.61927 0.6324 0.0
C947 C 0.25136 0.62762 0.65299 0.0
C948 C 0.2332 0.61675 0.6719 0.0
H949 H 0.29437 0.74017 0.7689 0.0
H950 H 0.27999 0.70738 0.76629 0.0
C951 C 0.22513 0.59794 0.67211 0.0
C952 C 0.26005 0.64765 0.65453 0.0
H953 H 0.29424 0.68544 0.73192 0.0
C954 C 0.25325 0.6561 0.61023 0.0
C955 C 0.27488 0.6584 0.69967 0.0
C956 C 0.28231 0.65015 0.75097 0.0
C957 C 0.26103 0.67495 0.60899 0.0
C958 C 0.27617 0.68572 0.65269 0.0
C959 C 0.28278 0.67724 0.69784 0.0
C960 C 0.28509 0.70577 0.65364 0.0
C961 C 0.25276 0.68315 0.56184 0.0
C962 C 0.29303 0.71594 0.59146 0.0
C963 C 0.30126 0.73475 0.59272 0.0
C964 C 0.30176 0.74389 0.65626 0.0
C965 C 0.29403 0.73365 0.7187 0.0
C966 C 0.28587 0.71486 0.71743 0.0
H967 H 0.23883 0.67311 0.54575 0.0
H968 H 0.25252 0.69447 0.58957 0.0
H969 H 0.26091 0.68845 0.51232 0.0
H970 H 0.29291 0.70931 0.54182 0.0
H971 H 0.30695 0.74211 0.54348 0.0
H972 H 0.49235 0.64499 0.69782 0.0
H973 H 0.45957 0.62598 0.69293 0.0
H974 H 0.45511 0.67112 0.61913 0.0
H975 H 0.48773 0.69008 0.62264 0.0
H976 H 0.43329 0.629 0.76497 0.0
H977 H 0.42464 0.63338 0.47246 0.0
H978 H 0.44628 0.64053 0.51265 0.0
H979 H 0.43667 0.65493 0.51517 0.0
C980 C 0.48443 0.65086 0.67999 0.0
C981 C 0.49281 0.6691 0.66016 0.0
C982 C 0.46564 0.63996 0.67735 0.0
C983 C 0.45478 0.64698 0.65445 0.0
C984 C 0.46312 0.6652 0.63525 0.0
H985 H 0.33922 0.60559 0.61463 0.0
H986 H 0.37203 0.62426 0.61932 0.0
C987 C 0.48186 0.67609 0.63774 0.0
C988 C 0.43474 0.63545 0.6527 0.0
H989 H 0.39802 0.62058 0.54315 0.0
C990 C 0.4256 0.62707 0.71631 0.0
C991 C 0.42461 0.63292 0.58934 0.0
C992 C 0.43354 0.64076 0.51837 0.0
C993 C 0.40671 0.61661 0.71867 0.0
C994 C 0.39658 0.61415 0.6554 0.0
C995 C 0.40571 0.62249 0.59176 0.0
C996 C 0.37654 0.6028 0.65387 0.0
C997 C 0.39774 0.60865 0.78946 0.0
C998 C 0.36804 0.58445 0.67111 0.0
C999 C 0.34928 0.57375 0.6688 0.0
C1000 C 0.33845 0.58108 0.64874 0.0
C1001 C 0.34702 0.59949 0.63123 0.0
C1002 C 0.36583 0.61017 0.63341 0.0
H1003 H 0.40675 0.61569 0.83556 0.0
H1004 H 0.3852 0.60925 0.79581 0.0
H1005 H 0.3942 0.59435 0.79152 0.0
H1006 H 0.37595 0.57831 0.68581 0.0
H1007 H 0.34324 0.55972 0.68336 0.0
H1008 H 1.02647 0.20477 0.81536 0.0
H1009 H 1.02177 0.20032 0.68529 0.0
H1010 H 0.07862 0.22137 0.65494 0.0
H1011 H 0.08341 0.22577 0.78415 0.0
H1012 H 0.03984 0.22889 0.5789 0.0
H1013 H 0.05347 0.17245 0.54616 0.0
H1014 H 0.04756 0.17811 0.63142 0.0
H1015 H 0.07 0.19122 0.59713 0.0
C1016 C 0.03789 0.20833 0.78072 0.0
C1017 C 0.05528 0.21562 0.80903 0.0
C1018 C 0.03521 0.20579 0.70696 0.0
C1019 C 0.04986 0.21037 0.66153 0.0
C1020 C 0.06718 0.21754 0.68983 0.0
H1021 H 0.06685 0.21063 0.20618 0.0
H1022 H 0.07075 0.21571 0.33614 0.0
C1023 C 0.06988 0.22012 0.76329 0.0
C1024 C 0.04731 0.20842 0.58388 0.0
H1025 H 0.05197 0.18681 0.43962 0.0
C1026 C 0.04233 0.21961 0.54822 0.0
C1027 C 0.05075 0.19637 0.54496 0.0
C1028 C 0.0556 0.18373 0.58177 0.0
C1029 C 0.041 0.21928 0.47347 0.0
C1030 C 0.04456 0.20732 0.43455 0.0
C1031 C 0.04944 0.19606 0.47028 0.0
C1032 C 0.04251 0.20563 0.35666 0.0
C1033 C 0.03611 0.23188 0.43654 0.0
C1034 C 1.02536 0.19832 0.3265 0.0
C1035 C 1.02311 0.19535 0.25305 0.0
C1036 C 0.03798 0.19959 0.20925 0.0
C1037 C 0.05521 0.20722 0.23931 0.0
C1038 C 0.05745 0.21014 0.31301 0.0
H1039 H 0.03785 0.24296 0.47252 0.0
H1040 H 0.04443 0.23777 0.38772 0.0
H1041 H 1.02182 0.22427 0.41969 0.0
H1042 H 1.0137 0.19454 0.36001 0.0
H1043 H 1.0097 0.18951 0.23074 0.0
H1044 H 0.87673 0.8477 0.8082 0.0
H1045 H 0.87866 0.84483 0.67811 0.0
H1046 H 0.86012 0.88258 0.64405 0.0
H1047 H 0.85786 0.88529 0.77368 0.0
H1048 H 0.84244 0.85057 0.56014 0.0
H1049 H 0.91707 0.88411 0.54785 0.0
H1050 H 0.90634 0.86571 0.60986 0.0
H1051 H 0.90531 0.88582 0.62504 0.0
C1052 C 0.87313 0.8554 0.77277 0.0
C1053 C 0.86717 0.86671 0.80027 0.0
C1054 C 0.87426 0.85377 0.6989 0.0
C1055 C 0.86963 0.8636 0.65229 0.0
C1056 C 0.8637 0.87491 0.67972 0.0
H1057 H 0.87199 0.88306 0.20049 0.0
H1058 H 0.86547 0.88008 0.32951 0.0
C1059 C 0.86249 0.87648 0.75343 0.0
C1060 C 0.87101 0.86223 0.57457 0.0
H1061 H 0.90124 0.87234 0.43975 0.0
C1062 C 0.85525 0.85526 0.53353 0.0
C1063 C 0.8878 0.86843 0.54095 0.0
C1064 C 0.90514 0.87658 0.58295 0.0
C1065 C 0.85587 0.85432 0.45878 0.0
C1066 C 0.87268 0.86071 0.4252 0.0
C1067 C 0.88839 0.86745 0.46635 0.0
C1068 C 0.87452 0.86095 0.3471 0.0
C1069 C 0.83862 0.84644 0.41639 0.0
C1070 C 0.88177 0.85121 0.3154 0.0
C1071 C 0.88569 0.85307 0.2426 0.0
C1072 C 0.88245 0.86473 0.20087 0.0
C1073 C 0.87464 0.87405 0.23207 0.0
C1074 C 0.87078 0.87224 0.30521 0.0
H1075 H 0.82669 0.8383 0.45078 0.0
H1076 H 0.83722 0.8575 0.39251 0.0
H1077 H 0.83873 0.83787 0.37195 0.0
H1078 H 0.88477 0.84251 0.3474 0.0
H1079 H 0.89155 0.84561 0.21931 0.0
H1080 H 0.23566 0.05603 0.81377 0.0
H1081 H 0.23873 0.06078 0.68373 0.0
H1082 H 0.20093 1.00454 0.64932 0.0
H1083 H 0.19802 0.99962 0.77895 0.0
H1084 H 0.23313 1.01873 0.56675 0.0
H1085 H 0.1998 0.06001 0.55153 0.0
H1086 H 0.21804 0.06766 0.61433 0.0
H1087 H 0.19788 0.04656 0.62899 0.0
C1088 C 0.22798 0.04473 0.77828 0.0
C1089 C 0.21661 0.02748 0.80567 0.0
C1090 C 0.22972 0.04746 0.70445 0.0
C1091 C 0.21995 0.033 0.65776 0.0
C1092 C 0.20855 1.01579 0.68507 0.0
H1093 H 0.20096 1.01582 0.20633 0.0
H1094 H 0.20408 1.0123 0.33523 0.0
C1095 C 0.20687 1.01304 0.75876 0.0
C1096 C 0.22151 0.03572 0.58008 0.0
H1097 H 0.21183 0.0559 0.44424 0.0
C1098 C 0.22854 0.02688 0.53967 0.0
C1099 C 0.21545 0.04636 0.54586 0.0
C1100 C 0.20723 0.05559 0.58716 0.0
C1101 C 0.22968 0.02843 0.46495 0.0
C1102 C 0.22344 0.03891 0.43079 0.0
C1103 C 0.21663 0.04793 0.47131 0.0
C1104 C 0.22331 0.04044 0.35267 0.0
C1105 C 0.2376 1.01899 0.42321 0.0
C1106 C 0.2331 0.05739 0.32092 0.0
C1107 C 0.23116 0.05945 0.2482 0.0
C1108 C 0.21936 0.04457 0.20664 0.0
C1109 C 0.21005 0.02746 0.23781 0.0
C1110 C 0.21195 0.02542 0.31087 0.0
H1111 H 0.24562 1.01516 0.45811 0.0
H1112 H 0.22656 1.00656 0.39904 0.0
H1113 H 0.24628 0.02763 0.37901 0.0
H1114 H 0.24186 0.06909 0.35288 0.0
H1115 H 0.23861 0.07275 0.22489 0.0
H1116 H 0.71647 0.50701 0.54515 0.0
H1117 H 0.71613 0.5104 0.6755 0.0
H1118 H 0.72534 0.5642 0.64797 0.0
H1119 H 0.72587 0.56101 0.51775 0.0
H1120 H 0.74395 0.55896 0.76717 0.0
H1121 H 0.6706 0.50987 0.75797 0.0
H1122 H 0.68488 0.50237 0.71926 0.0
H1123 H 0.68357 0.52062 0.67855 0.0
C1124 C 0.71886 0.5197 0.56703 0.0
C1125 C 0.72082 0.53363 0.52182 0.0
C1126 C 0.71856 0.52157 0.6412 0.0
C1127 C 0.72024 0.53735 0.67051 0.0
C1128 C 0.72384 0.55186 0.62578 0.0
H1129 H 0.71093 0.57197 0.09619 0.0
H1130 H 0.71079 0.56872 0.96561 0.0
C1131 C 0.72415 0.55002 0.55166 0.0
C1132 C 0.7167 0.53823 0.74699 0.0
H1133 H 0.68338 0.52054 0.87249 0.0
C1134 C 0.73073 0.55062 0.79039 0.0
C1135 C 0.69935 0.52737 0.77622 0.0
C1136 C 0.68366 0.51439 0.73064 0.0
C1137 C 0.72795 0.55217 0.86337 0.0
C1138 C 0.71062 0.54126 0.89265 0.0
C1139 C 0.69658 0.52891 0.84922 0.0
C1140 C 0.70718 0.54195 0.96935 0.0
C1141 C 0.74363 0.56517 0.90895 0.0
C1142 C 0.70406 0.52749 0.0135 0.0
C1143 C 0.70406 0.52926 0.08775 0.0
C1144 C 0.7072 0.54552 0.11826 0.0
C1145 C 0.70868 0.55937 0.07376 0.0
C1146 C 0.70868 0.55758 -0.00054 0.0
H1147 H 0.75669 0.56995 0.88122 0.0
H1148 H 0.74222 0.57703 0.9214 0.0
H1149 H 0.74389 0.55883 0.96054 0.0
H1150 H 0.70273 0.51528 -0.00931 0.0
H1151 H 0.70274 0.51834 0.12112 0.0
H1152 H 0.52227 0.18842 0.52888 0.0
H1153 H 0.51885 0.18513 0.65898 0.0
H1154 H 0.57186 0.23102 0.68691 0.0
H1155 H 0.57549 0.23428 0.55659 0.0
H1156 H 0.56669 0.19898 0.74976 0.0
H1157 H 0.51222 0.21291 0.82418 0.0
H1158 H 0.50689 0.19764 0.75025 0.0
H1159 H 0.52455 0.22058 0.74097 0.0
C1160 C 0.53299 0.19811 0.56281 0.0
C1161 C 0.54924 0.21144 0.53313 0.0
C1162 C 0.53098 0.19626 0.63699 0.0
C1163 C 0.54512 0.20784 0.68208 0.0
C1164 C 0.56084 0.22198 0.65256 0.0
H1165 H 0.56525 0.20978 0.13259 0.0
H1166 H 0.5686 0.21278 0.0024 0.0
C1167 C 0.56287 0.22383 0.57836 0.0
C1168 C 0.5444 0.20375 0.75893 0.0
H1169 H 0.52076 0.19855 0.9122 0.0
C1170 C 0.55675 0.199 0.78558 0.0
C1171 C 0.53127 0.20361 0.8047 0.0
C1172 C 0.51806 0.2091 0.77887 0.0
C1173 C 0.55618 0.19392 0.85724 0.0
C1174 C 0.54305 0.1938 0.90302 0.0
C1175 C 0.53069 0.19851 0.87636 0.0
C1176 C 0.54244 0.18984 0.97996 0.0
C1177 C 0.56941 0.18847 0.88317 0.0
C1178 C 0.52681 0.17566 0.00986 0.0
C1179 C 0.52483 0.17396 0.08412 0.0
C1180 C 0.53841 0.18655 0.129 0.0
C1181 C 0.55458 0.19994 0.09895 0.0
C1182 C 0.55654 0.20162 0.02473 0.0
H1183 H 0.5753 0.18471 0.83792 0.0
H1184 H 0.58055 0.19994 0.91195 0.0
H1185 H 0.56293 0.17698 0.921 0.0
H1186 H 0.51581 0.16648 0.97575 0.0
H1187 H 0.51228 0.16347 0.10617 0.0
H1188 H 0.9072 0.40827 0.53951 0.0
H1189 H 0.91015 0.40468 0.66782 0.0
H1190 H 0.87364 0.34762 0.64898 0.0
H1191 H 0.87081 0.35108 0.51983 0.0
H1192 H 0.88008 0.39064 0.75933 0.0
H1193 H 0.91573 0.35164 0.77135 0.0
H1194 H 0.91595 0.364 0.69257 0.0
H1195 H 0.89661 0.34261 0.71246 0.0
C1196 C 0.89994 0.39494 0.56266 0.0
C1197 C 0.88862 0.37995 0.52062 0.0
C1198 C 0.90171 0.39292 0.63558 0.0
C1199 C 0.89223 0.3759 0.66705 0.0
C1200 C 0.88128 0.36081 0.62487 0.0
H1201 H 0.86824 0.33469 0.09333 0.0
H1202 H 0.87075 0.33967 0.96372 0.0
C1203 C 0.87955 0.36281 0.55164 0.0
C1204 C 0.89239 0.37429 0.74513 0.0
H1205 H 0.903 0.35465 0.88032 0.0
C1206 C 0.88523 0.38292 0.78607 0.0
C1207 C 0.8991 0.36416 0.77888 0.0
C1208 C 0.90743 0.35518 0.73672 0.0
C1209 C 0.88415 0.38128 0.86064 0.0
C1210 C 0.89068 0.37099 0.89441 0.0
C1211 C 0.89805 0.36254 0.85358 0.0
C1212 C 0.88931 0.36824 0.97209 0.0
C1213 C 0.87558 0.3901 0.90246 0.0
C1214 C 0.89895 0.38275 0.01873 0.0
C1215 C 0.89746 0.37998 0.09257 0.0
C1216 C 0.88644 0.36265 0.12 0.0
C1217 C 0.87682 0.34817 0.07312 0.0
C1218 C 0.87827 0.35096 -0.00056 0.0
H1219 H 0.86791 0.39429 0.86718 0.0
H1220 H 0.86639 0.38087 0.94422 0.0
H1221 H 0.88622 0.40225 0.92979 0.0
H1222 H 0.90769 0.39613 -0.00202 0.0
H1223 H 0.90504 0.3913 0.12803 0.0
H1224 H 0.3753 0.90423 0.45956 0.0
H1225 H 0.37472 0.90067 0.32909 0.0
H1226 H 0.36657 0.84722 0.35557 0.0
H1227 H 0.367 0.85061 0.48575 0.0
H1228 H 0.40109 0.8946 0.26463 0.0
H1229 H 0.33193 0.84154 0.19208 0.0
H1230 H 0.33706 0.85404 0.27506 0.0
H1231 H 0.34163 0.83589 0.26585 0.0
C1232 C 0.37287 0.89154 0.43745 0.0
C1233 C 0.3714 0.87776 0.4823 0.0
C1234 C 0.37257 0.88955 0.36317 0.0
C1235 C 0.3706 0.8737 0.33321 0.0
C1236 C 0.36787 0.85945 0.37794 0.0
H1237 H 0.38011 0.83921 0.90964 0.0
H1238 H 0.38066 0.84299 0.03996 0.0
C1239 C 0.36818 0.86143 0.45216 0.0
C1240 C 0.37374 0.87289 0.25615 0.0
H1241 H 0.35455 0.84933 0.10341 0.0
C1242 C 0.3909 0.88481 0.22905 0.0
C1243 C 0.36044 0.85996 0.21072 0.0
C1244 C 0.34167 0.84721 0.2371 0.0
C1245 C 0.39521 0.88397 0.1573 0.0
C1246 C 0.38191 0.87102 0.11187 0.0
C1247 C 0.36474 0.85912 0.13896 0.0
C1248 C 0.3851 0.87007 0.03495 0.0
C1249 C 0.41399 0.89669 0.13099 0.0
C1250 C 0.38806 0.88432 -0.01025 0.0
C1251 C 0.38781 0.88223 0.9156 0.0
C1252 C 0.38437 0.86578 0.88601 0.0
C1253 C 0.38269 0.85198 0.93133 0.0
C1254 C 0.38296 0.8541 0.00553 0.0
H1255 H 0.42373 0.90233 0.17605 0.0
H1256 H 0.41859 0.88985 0.09303 0.0
H1257 H 0.41407 0.90804 0.10229 0.0
H1258 H 0.38949 0.89665 0.01166 0.0
H1259 H 0.38919 0.89307 0.8816 0.0
H1260 H 0.18956 0.52117 0.86724 0.0
H1261 H 0.18597 0.51788 -0.00273 0.0
H1262 H 0.23964 0.56264 0.02596 0.0
H1263 H 0.24343 0.56588 0.89567 0.0
H1264 H 0.2333 0.53016 0.08888 0.0
H1265 H 0.18032 0.54636 0.16223 0.0
H1266 H 0.17462 0.53104 0.08824 0.0
H1267 H 0.1928 0.55375 0.07925 0.0
C1268 C 0.20041 0.53062 0.90132 0.0
C1269 C 0.21686 0.54361 0.87184 0.0
C1270 C 0.1983 0.52877 0.97546 0.0
C1271 C 0.21256 0.54003 0.02076 0.0
C1272 C 0.22853 0.55385 -0.00854 0.0
H1273 H 0.23222 0.54128 0.47134 0.0
H1274 H 0.23555 0.54424 0.34115 0.0
C1275 C 0.23065 0.5557 0.91727 0.0
C1276 C 0.21162 0.53586 0.09763 0.0
H1277 H 0.18811 0.53146 0.25056 0.0
C1278 C 0.22352 0.53056 0.12453 0.0
C1279 C 0.19869 0.53621 0.14318 0.0
C1280 C 0.18596 0.54229 0.11706 0.0
C1281 C 0.22272 0.5254 0.19623 0.0
C1282 C 0.20981 0.52579 0.24181 0.0
C1283 C 0.19788 0.53105 0.21488 0.0
C1284 C 0.20904 0.52183 0.31883 0.0
C1285 C 0.23547 0.51936 0.2224 0.0
C1286 C 0.1932 0.50798 0.34881 0.0
C1287 C 0.19125 0.50628 0.4231 0.0
C1288 C 0.20506 0.51858 0.46793 0.0
C1289 C 0.22138 0.53165 0.43776 0.0
C1290 C 0.22332 0.53332 0.36353 0.0
H1291 H 0.24111 0.51527 0.17727 0.0
H1292 H 0.24682 0.53063 0.25113 0.0
H1293 H 0.22865 0.50793 0.26032 0.0
H1294 H 0.18206 0.49903 0.31476 0.0
H1295 H 0.17856 0.49605 0.44522 0.0
H1296 H 0.58574 0.70632 0.45373 0.0
H1297 H 0.5823 0.70651 0.32363 0.0
H1298 H 0.53771 0.71576 0.35185 0.0
H1299 H 0.54088 0.71528 0.48206 0.0
H1300 H 0.52969 0.68472 0.27353 0.0
H1301 H 0.59123 0.74446 0.17089 0.0
H1302 H 0.59539 0.73079 0.23204 0.0
H1303 H 0.58413 0.74238 0.26333 0.0
C1304 C 0.57554 0.70889 0.43212 0.0
C1305 C 0.56342 0.71056 0.47753 0.0
C1306 C 0.57364 0.70907 0.35792 0.0
C1307 C 0.55976 0.71115 0.3286 0.0
C1308 C 0.54849 0.71413 0.37388 0.0
H1309 H 0.51674 0.70197 0.90595 0.0
H1310 H 0.52024 0.70146 0.03592 0.0
C1311 C 0.55034 0.7139 0.44801 0.0
C1312 C 0.55556 0.70789 0.25174 0.0
H1313 H 0.57263 0.72262 0.08482 0.0
C1314 C 0.539 0.69305 0.2321 0.0
C1315 C 0.56787 0.71871 0.19843 0.0
C1316 C 0.5856 0.73508 0.21702 0.0
C1317 C 0.53446 0.68863 0.15994 0.0
C1318 C 0.54675 0.69947 0.10665 0.0
C1319 C 0.56333 0.71428 0.12627 0.0
C1320 C 0.54245 0.69634 0.02985 0.0
C1321 C 0.51671 0.67231 0.14127 0.0
C1322 C 0.5535 0.69316 -0.01594 0.0
C1323 C 0.55159 0.69353 0.91 0.0
C1324 C 0.53871 0.69726 0.88115 0.0
C1325 C 0.5268 0.69912 0.92707 0.0
C1326 C 0.52873 0.69876 0.00117 0.0
H1327 H 0.51102 0.66293 0.1874 0.0
H1328 H 0.50697 0.67664 0.12608 0.0
H1329 H 0.51817 0.66498 0.09501 0.0
H1330 H 0.56415 0.69127 0.00562 0.0
H1331 H 0.56086 0.69195 0.87551 0.0
loop_
_geom_bond_atom_site_label_1
_geom_bond_atom_site_label_2
_geom_bond_distance
_geom_bond_site_symmetry_2
_ccdc_geom_bond_type
Nd0 C2 2.836 . S
Nd0 O20 2.500 1_556 S
Nd0 O21 2.492 . S
Nd0 O22 2.487 . S
Nd0 O23 2.682 . S
Nd0 O24 2.410 . S
Nd0 O29 2.414 1_556 S
Nd0 O31 2.424 . S
Nd1 C11 2.836 . S
Nd1 O23 2.414 1_654 S
Nd1 O25 2.424 . S
Nd1 O26 2.500 1_554 S
Nd1 O27 2.492 . S
Nd1 O28 2.503 . S
Nd1 O29 2.682 1_655 S
Nd1 O30 2.410 1_655 S
C2 Nd0 2.836 . S
C2 C3 1.498 1_556 S
C2 O20 1.258 1_556 S
C2 O21 1.239 . S
C3 C2 1.498 1_554 S
C3 C4 1.370 . S
C3 C8 1.403 1_554 S
C4 C3 1.370 . S
C4 C5 1.392 . S
C4 H32 0.930 . S
C5 C4 1.392 . S
C5 C6 1.398 . S
C5 H33 0.929 . S
C6 C5 1.398 . S
C6 C7 1.352 1_554 S
C7 C6 1.352 1_556 S
C7 C8 1.384 . S
C7 H34 0.930 . S
C8 C3 1.403 1_556 S
C8 C7 1.384 . S
C8 H35 0.929 . S
C9 O22 1.241 . S
C9 O23 1.273 . S
C10 O24 1.251 1_654 S
C10 O25 1.268 . S
C11 Nd1 2.836 . S
C11 C12 1.498 . S
C11 O26 1.258 1_554 S
C11 O27 1.239 . S
C12 C11 1.498 . S
C12 C13 1.366 1_554 S
C12 C17 1.407 . S
C13 C12 1.366 1_556 S
C13 C14 1.392 . S
C13 H36 0.930 . S
C14 C13 1.392 . S
C14 C15 1.398 1_556 S
C14 H37 0.929 . S
C15 C14 1.398 1_554 S
C15 C16 1.352 . S
C16 C15 1.352 . S
C16 C17 1.384 . S
C16 H38 0.930 . S
C17 C12 1.407 . S
C17 C16 1.384 . S
C17 H39 0.929 . S
C18 O28 1.218 1_455 S
C18 O29 1.273 . S
C19 O30 1.251 1_556 S
C19 O31 1.268 . S
O20 Nd0 2.500 1_554 S
O20 C2 1.258 1_554 S
O21 Nd0 2.492 . S
O21 C2 1.239 . S
O22 Nd0 2.487 . S
O22 C9 1.241 . S
O23 Nd0 2.682 . S
O23 Nd1 2.414 1_456 S
O23 C9 1.273 . S
O24 Nd0 2.410 . S
O24 C10 1.251 1_456 S
O25 Nd1 2.424 . S
O25 C10 1.268 . S
O26 Nd1 2.500 1_556 S
O26 C11 1.258 1_556 S
O27 Nd1 2.492 . S
O27 C11 1.239 . S
O28 Nd1 2.503 . S
O28 C18 1.218 1_655 S
O29 Nd0 2.414 1_554 S
O29 Nd1 2.682 1_455 S
O29 C18 1.273 . S
O30 Nd1 2.410 1_455 S
O30 C19 1.251 1_554 S
O31 Nd0 2.424 . S
O31 C19 1.268 . S
H32 C4 0.930 . S
H33 C5 0.929 . S
H34 C7 0.930 . S
H35 C8 0.929 . S
H36 C13 0.930 . S
H37 C14 0.929 . S
H38 C16 0.930 . S
H39 C17 0.929 . S
Nd40 C42 2.836 . S
Nd40 O60 2.500 1_556 S
Nd40 O61 2.492 . S
Nd40 O62 2.487 . S
Nd40 O63 2.682 . S
Nd40 O64 2.410 . S
Nd40 O69 2.414 1_556 S
Nd40 O71 2.424 . S
Nd41 C51 2.836 . S
Nd41 O63 2.414 1_554 S
Nd41 O65 2.424 . S
Nd41 O66 2.500 1_554 S
Nd41 O67 2.492 . S
Nd41 O68 2.487 . S
Nd41 O69 2.682 . S
Nd41 O70 2.410 . S
C42 Nd40 2.836 . S
C42 C43 1.498 1_556 S
C42 O60 1.258 1_556 S
C42 O61 1.239 . S
C43 C42 1.498 1_554 S
C43 C44 1.370 . S
C43 C48 1.404 1_554 S
C44 C43 1.370 . S
C44 C45 1.392 . S
C44 H72 0.930 . S
C45 C44 1.392 . S
C45 C46 1.398 . S
C45 H73 0.929 . S
C46 C45 1.398 . S
C46 C47 1.352 1_554 S
C47 C46 1.352 1_556 S
C47 C48 1.384 . S
C47 H74 0.930 . S
C48 C43 1.404 1_556 S
C48 C47 1.384 . S
C48 H75 0.929 . S
C49 O62 1.241 . S
C49 O63 1.273 . S
C50 O64 1.251 1_554 S
C50 O65 1.268 . S
C51 Nd41 2.836 . S
C51 C52 1.498 . S
C51 O66 1.258 1_554 S
C51 O67 1.239 . S
C52 C51 1.498 . S
C52 C53 1.366 1_554 S
C52 C57 1.407 . S
C53 C52 1.366 1_556 S
C53 C54 1.392 . S
C53 H76 0.930 . S
C54 C53 1.392 . S
C54 C55 1.398 1_556 S
C54 H77 0.929 . S
C55 C54 1.398 1_554 S
C55 C56 1.352 . S
C56 C55 1.352 . S
C56 C57 1.384 . S
C56 H78 0.930 . S
C57 C52 1.407 . S
C57 C56 1.384 . S
C57 H79 0.929 . S
C58 O68 1.241 . S
C58 O69 1.273 . S
C59 O70 1.251 1_556 S
C59 O71 1.268 . S
O60 Nd40 2.500 1_554 S
O60 C42 1.258 1_554 S
O61 Nd40 2.492 . S
O61 C42 1.239 . S
O62 Nd40 2.487 . S
O62 C49 1.241 . S
O63 Nd40 2.682 . S
O63 Nd41 2.414 1_556 S
O63 C49 1.273 . S
O64 Nd40 2.410 . S
O64 C50 1.251 1_556 S
O65 Nd41 2.424 . S
O65 C50 1.268 . S
O66 Nd41 2.500 1_556 S
O66 C51 1.258 1_556 S
O67 Nd41 2.492 . S
O67 C51 1.239 . S
O68 Nd41 2.487 . S
O68 C58 1.241 . S
O69 Nd40 2.414 1_554 S
O69 Nd41 2.682 . S
O69 C58 1.273 . S
O70 Nd41 2.410 . S
O70 C59 1.251 1_554 S
O71 Nd40 2.424 . S
O71 C59 1.268 . S
H72 C44 0.930 . S
H73 C45 0.929 . S
H74 C47 0.930 . S
H75 C48 0.929 . S
H76 C53 0.930 . S
H77 C54 0.929 . S
H78 C56 0.930 . S
H79 C57 0.929 . S
Nd80 C82 2.836 . S
Nd80 O100 2.500 1_556 S
Nd80 O101 2.492 . S
Nd80 O102 2.493 . S
Nd80 O103 2.682 1_565 S
Nd80 O104 2.410 1_565 S
Nd80 O109 2.414 1_566 S
Nd80 O111 2.424 . S
Nd81 C91 2.836 . S
Nd81 O103 2.414 1_554 S
Nd81 O105 2.424 . S
Nd81 O106 2.500 1_554 S
Nd81 O107 2.492 . S
Nd81 O108 2.487 . S
Nd81 O109 2.682 . S
Nd81 O110 2.410 . S
C82 Nd80 2.836 . S
C82 C83 1.498 1_556 S
C82 O100 1.258 1_556 S
C82 O101 1.239 . S
C83 C82 1.498 1_554 S
C83 C84 1.370 . S
C83 C88 1.403 1_554 S
C84 C83 1.370 . S
C84 C85 1.392 . S
C84 H112 0.930 . S
C85 C84 1.392 . S
C85 C86 1.398 . S
C85 H113 0.929 . S
C86 C85 1.398 . S
C86 C87 1.352 1_554 S
C87 C86 1.352 1_556 S
C87 C88 1.384 . S
C87 H114 0.930 . S
C88 C83 1.403 1_556 S
C88 C87 1.384 . S
C88 H115 0.929 . S
C89 O102 1.218 1_545 S
C89 O103 1.273 . S
C90 O104 1.251 1_554 S
C90 O105 1.268 . S
C91 Nd81 2.836 . S
C91 C92 1.498 . S
C91 O106 1.258 1_554 S
C91 O107 1.239 . S
C92 C91 1.498 . S
C92 C93 1.366 1_554 S
C92 C97 1.407 . S
C93 C92 1.366 1_556 S
C93 C94 1.392 . S
C93 H116 0.930 . S
C94 C93 1.392 . S
C94 C95 1.398 1_556 S
C94 H117 0.929 . S
C95 C94 1.398 1_554 S
C95 C96 1.352 . S
C96 C95 1.352 . S
C96 C97 1.384 . S
C96 H118 0.930 . S
C97 C92 1.407 . S
C97 C96 1.384 . S
C97 H119 0.929 . S
C98 O108 1.241 . S
C98 O109 1.273 . S
C99 O110 1.251 1_566 S
C99 O111 1.268 . S
O100 Nd80 2.500 1_554 S
O100 C82 1.258 1_554 S
O101 Nd80 2.492 . S
O101 C82 1.239 . S
O102 Nd80 2.493 . S
O102 C89 1.218 1_565 S
O103 Nd80 2.682 1_545 S
O103 Nd81 2.414 1_556 S
O103 C89 1.273 . S
O104 Nd80 2.410 1_545 S
O104 C90 1.251 1_556 S
O105 Nd81 2.424 . S
O105 C90 1.268 . S
O106 Nd81 2.500 1_556 S
O106 C91 1.258 1_556 S
O107 Nd81 2.492 . S
O107 C91 1.239 . S
O108 Nd81 2.487 . S
O108 C98 1.241 . S
O109 Nd80 2.414 1_544 S
O109 Nd81 2.682 . S
O109 C98 1.273 . S
O110 Nd81 2.410 . S
O110 C99 1.251 1_544 S
O111 Nd80 2.424 . S
O111 C99 1.268 . S
H112 C84 0.930 . S
H113 C85 0.929 . S
H114 C87 0.930 . S
H115 C88 0.929 . S
H116 C93 0.930 . S
H117 C94 0.929 . S
H118 C96 0.930 . S
H119 C97 0.929 . S
Nd120 C122 2.836 . S
Nd120 O140 2.500 . S
Nd120 O141 2.492 . S
Nd120 O142 2.487 . S
Nd120 O143 2.682 . S
Nd120 O144 2.410 . S
Nd120 O149 2.414 . S
Nd120 O151 2.424 . S
Nd121 C131 2.836 . S
Nd121 O143 2.414 . S
Nd121 O145 2.424 . S
Nd121 O146 2.500 . S
Nd121 O147 2.492 . S
Nd121 O148 2.487 . S
Nd121 O149 2.682 . S
Nd121 O150 2.410 . S
C122 Nd120 2.836 . S
C122 C123 1.498 . S
C122 O140 1.258 . S
C122 O141 1.239 . S
C123 C122 1.498 . S
C123 C124 1.366 . S
C123 C128 1.407 . S
C124 C123 1.366 . S
C124 C125 1.392 . S
C124 H152 0.930 . S
C125 C124 1.392 . S
C125 C126 1.398 . S
C125 H153 0.929 . S
C126 C125 1.398 . S
C126 C127 1.352 . S
C127 C126 1.352 . S
C127 C128 1.384 . S
C127 H154 0.930 . S
C128 C123 1.407 . S
C128 C127 1.384 . S
C128 H155 0.929 . S
C129 O142 1.241 . S
C129 O143 1.273 . S
C130 O144 1.251 . S
C130 O145 1.268 . S
C131 Nd121 2.836 . S
C131 C132 1.498 . S
C131 O146 1.258 . S
C131 O147 1.239 . S
C132 C131 1.498 . S
C132 C133 1.366 . S
C132 C137 1.407 . S
C133 C132 1.366 . S
C133 C134 1.392 . S
C133 H156 0.930 . S
C134 C133 1.392 . S
C134 C135 1.398 . S
C134 H157 0.929 . S
C135 C134 1.398 . S
C135 C136 1.352 . S
C136 C135 1.352 . S
C136 C137 1.384 . S
C136 H158 0.930 . S
C137 C132 1.407 . S
C137 C136 1.384 . S
C137 H159 0.929 . S
C138 O148 1.241 . S
C138 O149 1.273 . S
C139 O150 1.251 . S
C139 O151 1.268 . S
O140 Nd120 2.500 . S
O140 C122 1.258 . S
O141 Nd120 2.492 . S
O141 C122 1.239 . S
O142 Nd120 2.487 . S
O142 C129 1.241 . S
O143 Nd120 2.682 . S
O143 Nd121 2.414 . S
O143 C129 1.273 . S
O144 Nd120 2.410 . S
O144 C130 1.251 . S
O145 Nd121 2.424 . S
O145 C130 1.268 . S
O146 Nd121 2.500 . S
O146 C131 1.258 . S
O147 Nd121 2.492 . S
O147 C131 1.239 . S
O148 Nd121 2.487 . S
O148 C138 1.241 . S
O149 Nd120 2.414 . S
O149 Nd121 2.682 . S
O149 C138 1.273 . S
O150 Nd121 2.410 . S
O150 C139 1.251 . S
O151 Nd120 2.424 . S
O151 C139 1.268 . S
H152 C124 0.930 . S
H153 C125 0.929 . S
H154 C127 0.930 . S
H155 C128 0.929 . S
H156 C133 0.930 . S
H157 C134 0.929 . S
H158 C136 0.930 . S
H159 C137 0.929 . S
Nd160 C162 2.836 . S
Nd160 O180 2.500 . S
Nd160 O181 2.492 . S
Nd160 O182 2.487 . S
Nd160 O183 2.682 . S
Nd160 O184 2.410 . S
Nd160 O189 2.414 . S
Nd160 O191 2.424 . S
Nd161 C171 2.836 . S
Nd161 O183 2.414 . S
Nd161 O185 2.424 . S
Nd161 O186 2.500 . S
Nd161 O187 2.492 . S
Nd161 O188 2.487 . S
Nd161 O189 2.682 . S
Nd161 O190 2.410 . S
C162 Nd160 2.836 . S
C162 C163 1.498 . S
C162 O180 1.258 . S
C162 O181 1.239 . S
C163 C162 1.498 . S
C163 C164 1.366 . S
C163 C168 1.407 . S
C164 C163 1.366 . S
C164 C165 1.392 . S
C164 H192 0.930 . S
C165 C164 1.392 . S
C165 C166 1.398 . S
C165 H193 0.929 . S
C166 C165 1.398 . S
C166 C167 1.352 . S
C167 C166 1.352 . S
C167 C168 1.384 . S
C167 H194 0.930 . S
C168 C163 1.407 . S
C168 C167 1.384 . S
C168 H195 0.929 . S
C169 O182 1.241 . S
C169 O183 1.273 . S
C170 O184 1.251 . S
C170 O185 1.268 . S
C171 Nd161 2.836 . S
C171 C172 1.498 . S
C171 O186 1.258 . S
C171 O187 1.239 . S
C172 C171 1.498 . S
C172 C173 1.366 . S
C172 C177 1.407 . S
C173 C172 1.366 . S
C173 C174 1.392 . S
C173 H196 0.930 . S
C174 C173 1.392 . S
C174 C175 1.398 . S
C174 H197 0.929 . S
C175 C174 1.398 . S
C175 C176 1.352 . S
C176 C175 1.352 . S
C176 C177 1.384 . S
C176 H198 0.930 . S
C177 C172 1.407 . S
C177 C176 1.384 . S
C177 H199 0.929 . S
C178 O188 1.241 . S
C178 O189 1.273 . S
C179 O190 1.251 . S
C179 O191 1.268 . S
O180 Nd160 2.500 . S
O180 C162 1.258 . S
O181 Nd160 2.492 . S
O181 C162 1.239 . S
O182 Nd160 2.487 . S
O182 C169 1.241 . S
O183 Nd160 2.682 . S
O183 Nd161 2.414 . S
O183 C169 1.273 . S
O184 Nd160 2.410 . S
O184 C170 1.251 . S
O185 Nd161 2.424 . S
O185 C170 1.268 . S
O186 Nd161 2.500 . S
O186 C171 1.258 . S
O187 Nd161 2.492 . S
O187 C171 1.239 . S
O188 Nd161 2.487 . S
O188 C178 1.241 . S
O189 Nd160 2.414 . S
O189 Nd161 2.682 . S
O189 C178 1.273 . S
O190 Nd161 2.410 . S
O190 C179 1.251 . S
O191 Nd160 2.424 . S
O191 C179 1.268 . S
H192 C164 0.930 . S
H193 C165 0.929 . S
H194 C167 0.930 . S
H195 C168 0.929 . S
H196 C173 0.930 . S
H197 C174 0.929 . S
H198 C176 0.930 . S
H199 C177 0.929 . S
Nd200 C202 2.836 . S
Nd200 O220 2.500 . S
Nd200 O221 2.492 . S
Nd200 O222 2.487 . S
Nd200 O223 2.682 . S
Nd200 O224 2.410 . S
Nd200 O229 2.414 . S
Nd200 O231 2.424 . S
Nd201 C211 2.836 . S
Nd201 O223 2.414 . S
Nd201 O225 2.424 . S
Nd201 O226 2.500 . S
Nd201 O227 2.492 . S
Nd201 O228 2.487 . S
Nd201 O229 2.682 . S
Nd201 O230 2.410 . S
C202 Nd200 2.836 . S
C202 C203 1.498 . S
C202 O220 1.258 . S
C202 O221 1.239 . S
C203 C202 1.498 . S
C203 C204 1.366 . S
C203 C208 1.407 . S
C204 C203 1.366 . S
C204 C205 1.392 . S
C204 H232 0.930 . S
C205 C204 1.392 . S
C205 C206 1.398 . S
C205 H233 0.929 . S
C206 C205 1.398 . S
C206 C207 1.352 . S
C207 C206 1.352 . S
C207 C208 1.384 . S
C207 H234 0.930 . S
C208 C203 1.407 . S
C208 C207 1.384 . S
C208 H235 0.929 . S
C209 O222 1.241 . S
C209 O223 1.273 . S
C210 O224 1.251 . S
C210 O225 1.268 . S
C211 Nd201 2.836 . S
C211 C212 1.498 . S
C211 O226 1.258 . S
C211 O227 1.239 . S
C212 C211 1.498 . S
C212 C213 1.366 . S
C212 C217 1.407 . S
C213 C212 1.366 . S
C213 C214 1.392 . S
C213 H236 0.930 . S
C214 C213 1.392 . S
C214 C215 1.398 . S
C214 H237 0.929 . S
C215 C214 1.398 . S
C215 C216 1.352 . S
C216 C215 1.352 . S
C216 C217 1.384 . S
C216 H238 0.930 . S
C217 C212 1.407 . S
C217 C216 1.384 . S
C217 H239 0.929 . S
C218 O228 1.241 . S
C218 O229 1.273 . S
C219 O230 1.251 . S
C219 O231 1.268 . S
O220 Nd200 2.500 . S
O220 C202 1.258 . S
O221 Nd200 2.492 . S
O221 C202 1.239 . S
O222 Nd200 2.487 . S
O222 C209 1.241 . S
O223 Nd200 2.682 . S
O223 Nd201 2.414 . S
O223 C209 1.273 . S
O224 Nd200 2.410 . S
O224 C210 1.251 . S
O225 Nd201 2.424 . S
O225 C210 1.268 . S
O226 Nd201 2.500 . S
O226 C211 1.258 . S
O227 Nd201 2.492 . S
O227 C211 1.239 . S
O228 Nd201 2.487 . S
O228 C218 1.241 . S
O229 Nd200 2.414 . S
O229 Nd201 2.682 . S
O229 C218 1.273 . S
O230 Nd201 2.410 . S
O230 C219 1.251 . S
O231 Nd200 2.424 . S
O231 C219 1.268 . S
H232 C204 0.930 . S
H233 C205 0.929 . S
H234 C207 0.930 . S
H235 C208 0.929 . S
H236 C213 0.930 . S
H237 C214 0.929 . S
H238 C216 0.930 . S
H239 C217 0.929 . S
Nd240 C242 2.836 . S
Nd240 O260 2.500 . S
Nd240 O261 2.492 . S
Nd240 O262 2.487 . S
Nd240 O263 2.682 . S
Nd240 O264 2.410 . S
Nd240 O269 2.414 . S
Nd240 O271 2.424 . S
Nd241 C251 2.836 . S
Nd241 O263 2.414 . S
Nd241 O265 2.424 . S
Nd241 O266 2.500 . S
Nd241 O267 2.492 . S
Nd241 O268 2.487 . S
Nd241 O269 2.682 . S
Nd241 O270 2.410 . S
C242 Nd240 2.836 . S
C242 C243 1.498 . S
C242 O260 1.258 . S
C242 O261 1.239 . S
C243 C242 1.498 . S
C243 C244 1.366 . S
C243 C248 1.407 . S
C244 C243 1.366 . S
C244 C245 1.392 . S
C244 H272 0.930 . S
C245 C244 1.392 . S
C245 C246 1.398 . S
C245 H273 0.929 . S
C246 C245 1.398 . S
C246 C247 1.352 . S
C247 C246 1.352 . S
C247 C248 1.384 . S
C247 H274 0.930 . S
C248 C243 1.407 . S
C248 C247 1.384 . S
C248 H275 0.929 . S
C249 O262 1.241 . S
C249 O263 1.273 . S
C250 O264 1.251 . S
C250 O265 1.268 . S
C251 Nd241 2.836 . S
C251 C252 1.498 . S
C251 O266 1.258 . S
C251 O267 1.239 . S
C252 C251 1.498 . S
C252 C253 1.366 . S
C252 C257 1.407 . S
C253 C252 1.366 . S
C253 C254 1.392 . S
C253 H276 0.930 . S
C254 C253 1.392 . S
C254 C255 1.398 . S
C254 H277 0.929 . S
C255 C254 1.398 . S
C255 C256 1.352 . S
C256 C255 1.352 . S
C256 C257 1.384 . S
C256 H278 0.930 . S
C257 C252 1.407 . S
C257 C256 1.384 . S
C257 H279 0.929 . S
C258 O268 1.241 . S
C258 O269 1.273 . S
C259 O270 1.251 . S
C259 O271 1.268 . S
O260 Nd240 2.500 . S
O260 C242 1.258 . S
O261 Nd240 2.492 . S
O261 C242 1.239 . S
O262 Nd240 2.487 . S
O262 C249 1.241 . S
O263 Nd240 2.682 . S
O263 Nd241 2.414 . S
O263 C249 1.273 . S
O264 Nd240 2.410 . S
O264 C250 1.251 . S
O265 Nd241 2.424 . S
O265 C250 1.268 . S
O266 Nd241 2.500 . S
O266 C251 1.258 . S
O267 Nd241 2.492 . S
O267 C251 1.239 . S
O268 Nd241 2.487 . S
O268 C258 1.241 . S
O269 Nd240 2.414 . S
O269 Nd241 2.682 . S
O269 C258 1.273 . S
O270 Nd241 2.410 . S
O270 C259 1.251 . S
O271 Nd240 2.424 . S
O271 C259 1.268 . S
H272 C244 0.930 . S
H273 C245 0.929 . S
H274 C247 0.930 . S
H275 C248 0.929 . S
H276 C253 0.930 . S
H277 C254 0.929 . S
H278 C256 0.930 . S
H279 C257 0.929 . S
Nd280 C282 2.836 . S
Nd280 O300 2.500 . S
Nd280 O301 2.492 . S
Nd280 O302 2.487 . S
Nd280 O303 2.682 . S
Nd280 O304 2.410 . S
Nd280 O309 2.414 . S
Nd280 O311 2.424 . S
Nd281 C291 2.836 . S
Nd281 O303 2.414 . S
Nd281 O305 2.424 . S
Nd281 O306 2.500 . S
Nd281 O307 2.492 . S
Nd281 O308 2.487 . S
Nd281 O309 2.682 . S
Nd281 O310 2.410 . S
C282 Nd280 2.836 . S
C282 C283 1.498 . S
C282 O300 1.258 . S
C282 O301 1.239 . S
C283 C282 1.498 . S
C283 C284 1.366 . S
C283 C288 1.407 . S
C284 C283 1.366 . S
C284 C285 1.392 . S
C284 H312 0.930 . S
C285 C284 1.392 . S
C285 C286 1.398 . S
C285 H313 0.929 . S
C286 C285 1.398 . S
C286 C287 1.352 . S
C287 C286 1.352 . S
C287 C288 1.384 . S
C287 H314 0.930 . S
C288 C283 1.407 . S
C288 C287 1.384 . S
C288 H315 0.929 . S
C289 O302 1.241 . S
C289 O303 1.273 . S
C290 O304 1.251 . S
C290 O305 1.268 . S
C291 Nd281 2.836 . S
C291 C292 1.498 . S
C291 O306 1.258 . S
C291 O307 1.239 . S
C292 C291 1.498 . S
C292 C293 1.366 . S
C292 C297 1.407 . S
C293 C292 1.366 . S
C293 C294 1.392 . S
C293 H316 0.930 . S
C294 C293 1.392 . S
C294 C295 1.398 . S
C294 H317 0.929 . S
C295 C294 1.398 . S
C295 C296 1.352 . S
C296 C295 1.352 . S
C296 C297 1.384 . S
C296 H318 0.930 . S
C297 C292 1.407 . S
C297 C296 1.384 . S
C297 H319 0.929 . S
C298 O308 1.241 . S
C298 O309 1.273 . S
C299 O310 1.251 . S
C299 O311 1.268 . S
O300 Nd280 2.500 . S
O300 C282 1.258 . S
O301 Nd280 2.492 . S
O301 C282 1.239 . S
O302 Nd280 2.487 . S
O302 C289 1.241 . S
O303 Nd280 2.682 . S
O303 Nd281 2.414 . S
O303 C289 1.273 . S
O304 Nd280 2.410 . S
O304 C290 1.251 . S
O305 Nd281 2.424 . S
O305 C290 1.268 . S
O306 Nd281 2.500 . S
O306 C291 1.258 . S
O307 Nd281 2.492 . S
O307 C291 1.239 . S
O308 Nd281 2.487 . S
O308 C298 1.241 . S
O309 Nd280 2.414 . S
O309 Nd281 2.682 . S
O309 C298 1.273 . S
O310 Nd281 2.410 . S
O310 C299 1.251 . S
O311 Nd280 2.424 . S
O311 C299 1.268 . S
H312 C284 0.930 . S
H313 C285 0.929 . S
H314 C287 0.930 . S
H315 C288 0.929 . S
H316 C293 0.930 . S
H317 C294 0.929 . S
H318 C296 0.930 . S
H319 C297 0.929 . S
Nd320 C322 2.836 . S
Nd320 O340 2.500 . S
Nd320 O341 2.492 . S
Nd320 O342 2.487 . S
Nd320 O343 2.682 . S
Nd320 O344 2.410 . S
Nd320 O349 2.414 . S
Nd320 O351 2.424 . S
Nd321 C331 2.836 . S
Nd321 O343 2.414 . S
Nd321 O345 2.424 . S
Nd321 O346 2.500 . S
Nd321 O347 2.492 . S
Nd321 O348 2.487 . S
Nd321 O349 2.682 . S
Nd321 O350 2.410 . S
C322 Nd320 2.836 . S
C322 C323 1.498 . S
C322 O340 1.258 . S
C322 O341 1.239 . S
C323 C322 1.498 . S
C323 C324 1.366 . S
C323 C328 1.407 . S
C324 C323 1.366 . S
C324 C325 1.392 . S
C324 H352 0.930 . S
C325 C324 1.392 . S
C325 C326 1.398 . S
C325 H353 0.929 . S
C326 C325 1.398 . S
C326 C327 1.352 . S
C327 C326 1.352 . S
C327 C328 1.384 . S
C327 H354 0.930 . S
C328 C323 1.407 . S
C328 C327 1.384 . S
C328 H355 0.929 . S
C329 O342 1.241 . S
C329 O343 1.273 . S
C330 O344 1.251 . S
C330 O345 1.268 . S
C331 Nd321 2.836 . S
C331 C332 1.498 . S
C331 O346 1.258 . S
C331 O347 1.239 . S
C332 C331 1.498 . S
C332 C333 1.366 . S
C332 C337 1.407 . S
C333 C332 1.366 . S
C333 C334 1.392 . S
C333 H356 0.930 . S
C334 C333 1.392 . S
C334 C335 1.398 . S
C334 H357 0.929 . S
C335 C334 1.398 . S
C335 C336 1.352 . S
C336 C335 1.352 . S
C336 C337 1.384 . S
C336 H358 0.930 . S
C337 C332 1.407 . S
C337 C336 1.384 . S
C337 H359 0.929 . S
C338 O348 1.241 . S
C338 O349 1.273 . S
C339 O350 1.251 . S
C339 O351 1.268 . S
O340 Nd320 2.500 . S
O340 C322 1.258 . S
O341 Nd320 2.492 . S
O341 C322 1.239 . S
O342 Nd320 2.487 . S
O342 C329 1.241 . S
O343 Nd320 2.682 . S
O343 Nd321 2.414 . S
O343 C329 1.273 . S
O344 Nd320 2.410 . S
O344 C330 1.251 . S
O345 Nd321 2.424 . S
O345 C330 1.268 . S
O346 Nd321 2.500 . S
O346 C331 1.258 . S
O347 Nd321 2.492 . S
O347 C331 1.239 . S
O348 Nd321 2.487 . S
O348 C338 1.241 . S
O349 Nd320 2.414 . S
O349 Nd321 2.682 . S
O349 C338 1.273 . S
O350 Nd321 2.410 . S
O350 C339 1.251 . S
O351 Nd320 2.424 . S
O351 C339 1.268 . S
H352 C324 0.930 . S
H353 C325 0.929 . S
H354 C327 0.930 . S
H355 C328 0.929 . S
H356 C333 0.930 . S
H357 C334 0.929 . S
H358 C336 0.930 . S
H359 C337 0.929 . S
H360 C368 0.929 . S
H361 C370 0.930 . S
H362 C372 0.930 . S
H363 C375 0.929 . S
H364 C378 0.930 . S
H365 C380 0.960 . S
H366 C380 0.960 . S
H367 C380 0.960 . S
C368 H360 0.929 . S
C368 C369 1.377 . S
C368 C370 1.384 . S
C369 C368 1.377 . S
C369 C375 1.390 . S
C370 H361 0.930 . S
C370 C368 1.384 . S
C370 C371 1.372 . S
C371 C370 1.372 . S
C371 C372 1.400 . S
C371 C376 1.490 . S
C372 H362 0.930 . S
C372 C371 1.400 . S
C372 C375 1.386 . S
H373 C389 0.930 . S
H374 C390 0.931 . S
C375 H363 0.929 . S
C375 C369 1.390 . S
C375 C372 1.386 . S
C376 C371 1.490 . S
C376 C378 1.395 . S
C376 C379 1.403 . S
H377 C383 0.930 . S
C378 H364 0.930 . S
C378 C376 1.395 . S
C378 C381 1.403 . S
C379 C376 1.403 . S
C379 C380 1.524 . S
C379 C383 1.400 . S
C380 H365 0.960 . S
C380 H366 0.960 . S
C380 H367 0.960 . S
C380 C379 1.524 . S
C381 C378 1.403 . S
C381 C382 1.392 . S
C381 C385 1.495 . S
C382 C381 1.392 . S
C382 C383 1.385 . S
C382 C384 1.478 . S
C383 H377 0.930 . S
C383 C379 1.400 . S
C383 C382 1.385 . S
C384 C382 1.478 . S
C384 C386 1.381 . S
C384 C390 1.383 . S
C385 C381 1.495 . S
C385 H391 0.959 . S
C385 H392 0.961 . S
C385 H393 0.960 . S
C386 C384 1.381 . S
C386 C387 1.394 . S
C386 H394 0.930 . S
C387 C386 1.394 . S
C387 C388 1.383 . S
C387 H395 0.929 . S
C388 C387 1.383 . S
C388 C389 1.377 . S
C389 H373 0.930 . S
C389 C388 1.377 . S
C389 C390 1.379 . S
C390 H374 0.931 . S
C390 C384 1.383 . S
C390 C389 1.379 . S
H391 C385 0.959 . S
H392 C385 0.961 . S
H393 C385 0.960 . S
H394 C386 0.930 . S
H395 C387 0.929 . S
H396 C404 0.929 . S
H397 C406 0.930 . S
H398 C408 0.930 1_554 S
H399 C411 0.929 . S
H400 C414 0.930 . S
H401 C416 0.960 . S
H402 C416 0.960 . S
H403 C416 0.960 1_554 S
C404 H396 0.929 . S
C404 C405 1.377 . S
C404 C406 1.384 . S
C405 C404 1.377 . S
C405 C411 1.390 1_556 S
C406 H397 0.930 . S
C406 C404 1.384 . S
C406 C407 1.372 . S
C407 C406 1.372 . S
C407 C408 1.400 . S
C407 C412 1.490 . S
C408 H398 0.930 1_556 S
C408 C407 1.400 . S
C408 C411 1.386 1_556 S
H409 C425 0.930 . S
H410 C426 0.931 . S
C411 H399 0.929 . S
C411 C405 1.390 1_554 S
C411 C408 1.386 1_554 S
C412 C407 1.490 . S
C412 C414 1.395 . S
C412 C415 1.403 . S
H413 C419 0.930 . S
C414 H400 0.930 . S
C414 C412 1.395 . S
C414 C417 1.403 . S
C415 C412 1.403 . S
C415 C416 1.524 . S
C415 C419 1.400 . S
C416 H401 0.960 . S
C416 H402 0.960 . S
C416 H403 0.960 1_556 S
C416 C415 1.524 . S
C417 C414 1.403 . S
C417 C418 1.392 . S
C417 C421 1.495 . S
C418 C417 1.392 . S
C418 C419 1.385 . S
C418 C420 1.478 . S
C419 H413 0.930 . S
C419 C415 1.400 . S
C419 C418 1.385 . S
C420 C418 1.478 . S
C420 C422 1.381 . S
C420 C426 1.383 . S
C421 C417 1.495 . S
C421 H427 0.959 . S
C421 H428 0.961 . S
C421 H429 0.960 . S
C422 C420 1.381 . S
C422 C423 1.394 . S
C422 H430 0.930 . S
C423 C422 1.394 . S
C423 C424 1.383 . S
C423 H431 0.929 . S
C424 C423 1.383 . S
C424 C425 1.377 . S
C425 H409 0.930 . S
C425 C424 1.377 . S
C425 C426 1.379 . S
C426 H410 0.931 . S
C426 C420 1.383 . S
C426 C425 1.379 . S
H427 C421 0.959 . S
H428 C421 0.961 . S
H429 C421 0.960 . S
H430 C422 0.930 . S
H431 C423 0.929 . S
H432 C440 0.929 1_554 S
H433 C442 0.930 . S
H434 C444 0.930 . S
H435 C447 0.929 . S
H436 C450 0.930 . S
H437 C452 0.960 . S
H438 C452 0.960 . S
H439 C452 0.960 . S
C440 H432 0.929 1_556 S
C440 C441 1.377 . S
C440 C442 1.384 . S
C441 C440 1.377 . S
C441 C447 1.390 . S
C442 H433 0.930 . S
C442 C440 1.384 . S
C442 C443 1.372 . S
C443 C442 1.372 . S
C443 C444 1.400 . S
C443 C448 1.490 . S
C444 H434 0.930 . S
C444 C443 1.400 . S
C444 C447 1.386 . S
H445 C461 0.930 . S
H446 C462 0.931 . S
C447 H435 0.929 . S
C447 C441 1.390 . S
C447 C444 1.386 . S
C448 C443 1.490 . S
C448 C450 1.395 . S
C448 C451 1.403 . S
H449 C455 0.930 . S
C450 H436 0.930 . S
C450 C448 1.395 . S
C450 C453 1.403 . S
C451 C448 1.403 . S
C451 C452 1.524 . S
C451 C455 1.400 . S
C452 H437 0.960 . S
C452 H438 0.960 . S
C452 H439 0.960 . S
C452 C451 1.524 . S
C453 C450 1.403 . S
C453 C454 1.392 . S
C453 C457 1.495 . S
C454 C453 1.392 . S
C454 C455 1.385 . S
C454 C456 1.478 . S
C455 H449 0.930 . S
C455 C451 1.400 . S
C455 C454 1.385 . S
C456 C454 1.478 . S
C456 C458 1.381 . S
C456 C462 1.383 . S
C457 C453 1.495 . S
C457 H463 0.959 1_556 S
C457 H464 0.961 . S
C457 H465 0.960 . S
C458 C456 1.381 . S
C458 C459 1.394 . S
C458 H466 0.930 . S
C459 C458 1.394 . S
C459 C460 1.383 . S
C459 H467 0.929 . S
C460 C459 1.383 . S
C460 C461 1.377 . S
C461 H445 0.930 . S
C461 C460 1.377 . S
C461 C462 1.379 . S
C462 H446 0.931 . S
C462 C456 1.383 . S
C462 C461 1.379 . S
H463 C457 0.959 1_554 S
H464 C457 0.961 . S
H465 C457 0.960 . S
H466 C458 0.930 . S
H467 C459 0.929 . S
H468 C476 0.929 . S
H469 C478 0.930 . S
H470 C480 0.930 . S
H471 C483 0.929 . S
H472 C486 0.930 . S
H473 C488 0.960 . S
H474 C488 0.960 . S
H475 C488 0.960 . S
C476 H468 0.929 . S
C476 C477 1.377 . S
C476 C478 1.384 . S
C477 C476 1.377 . S
C477 C483 1.390 . S
C478 H469 0.930 . S
C478 C476 1.384 . S
C478 C479 1.372 . S
C479 C478 1.372 . S
C479 C480 1.400 . S
C479 C484 1.490 . S
C480 H470 0.930 . S
C480 C479 1.400 . S
C480 C483 1.386 . S
H481 C497 0.930 . S
H482 C498 0.931 . S
C483 H471 0.929 . S
C483 C477 1.390 . S
C483 C480 1.386 . S
C484 C479 1.490 . S
C484 C486 1.395 . S
C484 C487 1.403 . S
H485 C491 0.930 . S
C486 H472 0.930 . S
C486 C484 1.395 . S
C486 C489 1.403 . S
C487 C484 1.403 . S
C487 C488 1.524 . S
C487 C491 1.400 . S
C488 H473 0.960 . S
C488 H474 0.960 . S
C488 H475 0.960 . S
C488 C487 1.524 . S
C489 C486 1.403 . S
C489 C490 1.392 . S
C489 C493 1.495 . S
C490 C489 1.392 . S
C490 C491 1.385 . S
C490 C492 1.478 . S
C491 H485 0.930 . S
C491 C487 1.400 . S
C491 C490 1.385 . S
C492 C490 1.478 . S
C492 C494 1.381 . S
C492 C498 1.383 . S
C493 C489 1.495 . S
C493 H499 0.959 . S
C493 H500 0.961 . S
C493 H501 0.960 . S
C494 C492 1.381 . S
C494 C495 1.394 . S
C494 H502 0.930 . S
C495 C494 1.394 . S
C495 C496 1.383 . S
C495 H503 0.929 1_554 S
C496 C495 1.383 . S
C496 C497 1.377 . S
C497 H481 0.930 . S
C497 C496 1.377 . S
C497 C498 1.379 . S
C498 H482 0.931 . S
C498 C492 1.383 . S
C498 C497 1.379 . S
H499 C493 0.959 . S
H500 C493 0.961 . S
H501 C493 0.960 . S
H502 C494 0.930 . S
H503 C495 0.929 1_556 S
H504 C512 0.929 . S
H505 C514 0.930 . S
H506 C516 0.930 . S
H507 C519 0.929 . S
H508 C522 0.930 . S
H509 C524 0.960 . S
H510 C524 0.960 . S
H511 C524 0.960 . S
C512 H504 0.929 . S
C512 C513 1.377 . S
C512 C514 1.384 . S
C513 C512 1.377 . S
C513 C519 1.390 . S
C514 H505 0.930 . S
C514 C512 1.384 . S
C514 C515 1.372 . S
C515 C514 1.372 . S
C515 C516 1.400 . S
C515 C520 1.490 . S
C516 H506 0.930 . S
C516 C515 1.400 . S
C516 C519 1.386 . S
H517 C533 0.930 1_556 S
H518 C534 0.931 . S
C519 H507 0.929 . S
C519 C513 1.390 . S
C519 C516 1.386 . S
C520 C515 1.490 . S
C520 C522 1.395 . S
C520 C523 1.403 . S
H521 C527 0.930 . S
C522 H508 0.930 . S
C522 C520 1.395 . S
C522 C525 1.403 . S
C523 C520 1.403 . S
C523 C524 1.524 . S
C523 C527 1.400 . S
C524 H509 0.960 . S
C524 H510 0.960 . S
C524 H511 0.960 . S
C524 C523 1.524 . S
C525 C522 1.403 . S
C525 C526 1.392 . S
C525 C529 1.495 . S
C526 C525 1.392 . S
C526 C527 1.385 . S
C526 C528 1.478 . S
C527 H521 0.930 . S
C527 C523 1.400 . S
C527 C526 1.385 . S
C528 C526 1.478 . S
C528 C530 1.381 . S
C528 C534 1.383 . S
C529 C525 1.495 . S
C529 H535 0.959 . S
C529 H536 0.961 . S
C529 H537 0.960 . S
C530 C528 1.381 . S
C530 C531 1.394 . S
C530 H538 0.930 . S
C531 C530 1.394 . S
C531 C532 1.383 . S
C531 H539 0.929 1_655 S
C532 C531 1.383 . S
C532 C533 1.377 . S
C533 H517 0.930 1_554 S
C533 C532 1.377 . S
C533 C534 1.379 . S
C534 H518 0.931 . S
C534 C528 1.383 . S
C534 C533 1.379 . S
H535 C529 0.959 . S
H536 C529 0.961 . S
H537 C529 0.960 . S
H538 C530 0.930 . S
H539 C531 0.929 1_455 S
H540 C548 0.929 . S
H541 C550 0.930 . S
H542 C552 0.930 . S
H543 C555 0.929 . S
H544 C558 0.930 . S
H545 C560 0.960 . S
H546 C560 0.960 . S
H547 C560 0.960 . S
C548 H540 0.929 . S
C548 C549 1.377 . S
C548 C550 1.384 . S
C549 C548 1.377 . S
C549 C555 1.390 . S
C550 H541 0.930 . S
C550 C548 1.384 . S
C550 C551 1.372 . S
C551 C550 1.372 . S
C551 C552 1.400 . S
C551 C556 1.490 . S
C552 H542 0.930 . S
C552 C551 1.400 . S
C552 C555 1.386 . S
H553 C569 0.930 . S
H554 C570 0.931 . S
C555 H543 0.929 . S
C555 C549 1.390 . S
C555 C552 1.386 . S
C556 C551 1.490 . S
C556 C558 1.395 . S
C556 C559 1.403 . S
H557 C563 0.930 . S
C558 H544 0.930 . S
C558 C556 1.395 . S
C558 C561 1.403 . S
C559 C556 1.403 . S
C559 C560 1.524 . S
C559 C563 1.400 . S
C560 H545 0.960 . S
C560 H546 0.960 . S
C560 H547 0.960 . S
C560 C559 1.524 . S
C561 C558 1.403 . S
C561 C562 1.392 . S
C561 C565 1.495 . S
C562 C561 1.392 . S
C562 C563 1.385 . S
C562 C564 1.478 . S
C563 H557 0.930 . S
C563 C559 1.400 . S
C563 C562 1.385 . S
C564 C562 1.478 . S
C564 C566 1.381 . S
C564 C570 1.383 . S
C565 C561 1.495 . S
C565 H571 0.959 . S
C565 H572 0.961 . S
C565 H573 0.960 . S
C566 C564 1.381 . S
C566 C567 1.394 . S
C566 H574 0.930 . S
C567 C566 1.394 . S
C567 C568 1.383 . S
C567 H575 0.929 . S
C568 C567 1.383 . S
C568 C569 1.377 . S
C569 H553 0.930 . S
C569 C568 1.377 . S
C569 C570 1.379 . S
C570 H554 0.931 . S
C570 C564 1.383 . S
C570 C569 1.379 . S
H571 C565 0.959 . S
H572 C565 0.961 . S
H573 C565 0.960 . S
H574 C566 0.930 . S
H575 C567 0.929 . S
H576 C584 0.929 . S
H577 C586 0.930 . S
H578 C588 0.930 . S
H579 C591 0.929 . S
H580 C594 0.930 . S
H581 C596 0.960 . S
H582 C596 0.960 . S
H583 C596 0.960 . S
C584 H576 0.929 . S
C584 C585 1.377 . S
C584 C586 1.384 . S
C585 C584 1.377 . S
C585 C591 1.390 . S
C586 H577 0.930 . S
C586 C584 1.384 . S
C586 C587 1.372 . S
C587 C586 1.372 . S
C587 C588 1.400 . S
C587 C592 1.490 1_455 S
C588 H578 0.930 . S
C588 C587 1.400 . S
C588 C591 1.386 . S
H589 C605 0.930 . S
H590 C606 0.931 . S
C591 H579 0.929 . S
C591 C585 1.390 . S
C591 C588 1.386 . S
C592 C587 1.490 1_655 S
C592 C594 1.395 . S
C592 C595 1.403 . S
H593 C599 0.930 . S
C594 H580 0.930 . S
C594 C592 1.395 . S
C594 C597 1.403 . S
C595 C592 1.403 . S
C595 C596 1.524 . S
C595 C599 1.400 . S
C596 H581 0.960 . S
C596 H582 0.960 . S
C596 H583 0.960 . S
C596 C595 1.524 . S
C597 C594 1.403 . S
C597 C598 1.392 . S
C597 C601 1.495 . S
C598 C597 1.392 . S
C598 C599 1.385 . S
C598 C600 1.478 . S
C599 H593 0.930 . S
C599 C595 1.400 . S
C599 C598 1.385 . S
C600 C598 1.478 . S
C600 C602 1.381 . S
C600 C606 1.383 . S
C601 C597 1.495 . S
C601 H607 0.959 . S
C601 H608 0.961 . S
C601 H609 0.960 . S
C602 C600 1.381 . S
C602 C603 1.394 . S
C602 H610 0.930 . S
C603 C602 1.394 . S
C603 C604 1.383 . S
C603 H611 0.929 . S
C604 C603 1.383 . S
C604 C605 1.377 . S
C605 H589 0.930 . S
C605 C604 1.377 . S
C605 C606 1.379 . S
C606 H590 0.931 . S
C606 C600 1.383 . S
C606 C605 1.379 . S
H607 C601 0.959 . S
H608 C601 0.961 . S
H609 C601 0.960 . S
H610 C602 0.930 . S
H611 C603 0.929 . S
H612 C620 0.929 . S
H613 C622 0.930 . S
H614 C624 0.930 . S
H615 C627 0.929 . S
H616 C630 0.930 . S
H617 C632 0.960 . S
H618 C632 0.960 . S
H619 C632 0.960 . S
C620 H612 0.929 . S
C620 C621 1.377 . S
C620 C622 1.384 . S
C621 C620 1.377 . S
C621 C627 1.390 . S
C622 H613 0.930 . S
C622 C620 1.384 . S
C622 C623 1.372 . S
C623 C622 1.372 . S
C623 C624 1.400 . S
C623 C628 1.490 . S
C624 H614 0.930 . S
C624 C623 1.400 . S
C624 C627 1.386 . S
H625 C641 0.930 . S
H626 C642 0.931 . S
C627 H615 0.929 . S
C627 C621 1.390 . S
C627 C624 1.386 . S
C628 C623 1.490 . S
C628 C630 1.395 . S
C628 C631 1.403 . S
H629 C635 0.930 . S
C630 H616 0.930 . S
C630 C628 1.395 . S
C630 C633 1.403 . S
C631 C628 1.403 . S
C631 C632 1.524 . S
C631 C635 1.400 . S
C632 H617 0.960 . S
C632 H618 0.960 . S
C632 H619 0.960 . S
C632 C631 1.524 . S
C633 C630 1.403 . S
C633 C634 1.392 . S
C633 C637 1.495 . S
C634 C633 1.392 . S
C634 C635 1.385 . S
C634 C636 1.478 . S
C635 H629 0.930 . S
C635 C631 1.400 . S
C635 C634 1.385 . S
C636 C634 1.478 . S
C636 C638 1.381 . S
C636 C642 1.383 . S
C637 C633 1.495 . S
C637 H643 0.959 . S
C637 H644 0.961 . S
C637 H645 0.960 . S
C638 C636 1.381 . S
C638 C639 1.394 . S
C638 H646 0.930 . S
C639 C638 1.394 . S
C639 C640 1.383 . S
C639 H647 0.929 . S
C640 C639 1.383 . S
C640 C641 1.377 . S
C641 H625 0.930 . S
C641 C640 1.377 . S
C641 C642 1.379 . S
C642 H626 0.931 . S
C642 C636 1.383 . S
C642 C641 1.379 . S
H643 C637 0.959 . S
H644 C637 0.961 . S
H645 C637 0.960 . S
H646 C638 0.930 . S
H647 C639 0.929 . S
H648 C656 0.929 . S
H649 C658 0.930 . S
H650 C660 0.930 . S
H651 C663 0.929 . S
H652 C666 0.930 . S
H653 C668 0.960 . S
H654 C668 0.960 . S
H655 C668 0.960 . S
C656 H648 0.929 . S
C656 C657 1.377 . S
C656 C658 1.384 . S
C657 C656 1.377 . S
C657 C663 1.390 . S
C658 H649 0.930 . S
C658 C656 1.384 . S
C658 C659 1.372 . S
C659 C658 1.372 . S
C659 C660 1.400 . S
C659 C664 1.490 . S
C660 H650 0.930 . S
C660 C659 1.400 . S
C660 C663 1.386 . S
H661 C677 0.930 . S
H662 C678 0.931 . S
C663 H651 0.929 . S
C663 C657 1.390 . S
C663 C660 1.386 . S
C664 C659 1.490 . S
C664 C666 1.395 . S
C664 C667 1.403 . S
H665 C671 0.930 . S
C666 H652 0.930 . S
C666 C664 1.395 . S
C666 C669 1.403 . S
C667 C664 1.403 . S
C667 C668 1.524 . S
C667 C671 1.400 . S
C668 H653 0.960 . S
C668 H654 0.960 . S
C668 H655 0.960 . S
C668 C667 1.524 . S
C669 C666 1.403 . S
C669 C670 1.392 . S
C669 C673 1.495 . S
C670 C669 1.392 . S
C670 C671 1.385 . S
C670 C672 1.478 . S
C671 H665 0.930 . S
C671 C667 1.400 . S
C671 C670 1.385 . S
C672 C670 1.478 . S
C672 C674 1.381 . S
C672 C678 1.383 . S
C673 C669 1.495 . S
C673 H679 0.959 . S
C673 H680 0.961 . S
C673 H681 0.960 . S
C674 C672 1.381 . S
C674 C675 1.394 1_545 S
C674 H682 0.930 . S
C675 C674 1.394 1_565 S
C675 C676 1.383 . S
C675 H683 0.929 . S
C676 C675 1.383 . S
C676 C677 1.377 . S
C677 H661 0.930 . S
C677 C676 1.377 . S
C677 C678 1.379 1_565 S
C678 H662 0.931 . S
C678 C672 1.383 . S
C678 C677 1.379 1_545 S
H679 C673 0.959 . S
H680 C673 0.961 . S
H681 C673 0.960 . S
H682 C674 0.930 . S
H683 C675 0.929 . S
H684 C692 0.929 . S
H685 C694 0.930 . S
H686 C696 0.930 . S
H687 C699 0.930 . S
H688 C702 0.930 . S
H689 C704 0.960 . S
H690 C704 0.960 . S
H691 C704 0.960 . S
C692 H684 0.929 . S
C692 C693 1.377 . S
C692 C694 1.384 . S
C693 C692 1.377 . S
C693 C699 1.389 1_554 S
C694 H685 0.930 . S
C694 C692 1.384 . S
C694 C695 1.372 1_554 S
C695 C694 1.372 1_556 S
C695 C696 1.400 . S
C695 C700 1.490 . S
C696 H686 0.930 . S
C696 C695 1.400 . S
C696 C699 1.386 . S
H697 C713 0.930 . S
H698 C714 0.931 . S
C699 H687 0.930 . S
C699 C693 1.389 1_556 S
C699 C696 1.386 . S
C700 C695 1.490 . S
C700 C702 1.391 1_556 S
C700 C703 1.406 . S
H701 C707 0.930 . S
C702 H688 0.930 . S
C702 C700 1.391 1_554 S
C702 C705 1.403 . S
C703 C700 1.406 . S
C703 C704 1.524 . S
C703 C707 1.400 . S
C704 H689 0.960 . S
C704 H690 0.960 . S
C704 H691 0.960 . S
C704 C703 1.524 . S
C705 C702 1.403 . S
C705 C706 1.392 . S
C705 C709 1.495 . S
C706 C705 1.392 . S
C706 C707 1.385 1_554 S
C706 C708 1.478 . S
C707 H701 0.930 . S
C707 C703 1.400 . S
C707 C706 1.385 1_556 S
C708 C706 1.478 . S
C708 C710 1.381 1_554 S
C708 C714 1.383 . S
C709 C705 1.495 . S
C709 H715 0.959 . S
C709 H716 0.961 . S
C709 H717 0.960 . S
C710 C708 1.381 1_556 S
C710 C711 1.394 . S
C710 H718 0.930 . S
C711 C710 1.394 . S
C711 C712 1.383 . S
C711 H719 0.929 . S
C712 C711 1.383 . S
C712 C713 1.377 1_556 S
C713 H697 0.930 . S
C713 C712 1.377 1_554 S
C713 C714 1.379 . S
C714 H698 0.931 . S
C714 C708 1.383 . S
C714 C713 1.379 . S
H715 C709 0.959 . S
H716 C709 0.961 . S
H717 C709 0.960 . S
H718 C710 0.930 . S
H719 C711 0.929 . S
H720 C728 0.929 . S
H721 C730 0.930 . S
H722 C732 0.930 . S
H723 C735 0.929 . S
H724 C738 0.930 . S
H725 C740 0.960 . S
H726 C740 0.960 . S
H727 C740 0.960 . S
C728 H720 0.929 . S
C728 C729 1.377 . S
C728 C730 1.384 . S
C729 C728 1.377 . S
C729 C735 1.390 1_556 S
C730 H721 0.930 . S
C730 C728 1.384 . S
C730 C731 1.372 . S
C731 C730 1.372 . S
C731 C732 1.400 1_556 S
C731 C736 1.490 . S
C732 H722 0.930 . S
C732 C731 1.400 1_554 S
C732 C735 1.386 . S
H733 C749 0.930 . S
H734 C750 0.931 . S
C735 H723 0.929 . S
C735 C729 1.390 1_554 S
C735 C732 1.386 . S
C736 C731 1.490 . S
C736 C738 1.395 . S
C736 C739 1.403 1_556 S
H737 C743 0.930 . S
C738 H724 0.930 . S
C738 C736 1.395 . S
C738 C741 1.403 . S
C739 C736 1.403 1_554 S
C739 C740 1.524 . S
C739 C743 1.400 . S
C740 H725 0.960 . S
C740 H726 0.960 . S
C740 H727 0.960 . S
C740 C739 1.524 . S
C741 C738 1.403 . S
C741 C742 1.392 . S
C741 C745 1.495 . S
C742 C741 1.392 . S
C742 C743 1.385 1_556 S
C742 C744 1.478 1_565 S
C743 H737 0.930 . S
C743 C739 1.400 . S
C743 C742 1.385 1_554 S
C744 C742 1.478 1_545 S
C744 C746 1.381 . S
C744 C750 1.383 1_556 S
C745 C741 1.495 . S
C745 H751 0.959 . S
C745 H752 0.963 . S
C745 H753 0.945 1_565 S
C746 C744 1.381 . S
C746 C747 1.394 . S
C746 H754 0.930 . S
C747 C746 1.394 . S
C747 C748 1.375 1_556 S
C747 H755 0.929 . S
C748 C747 1.375 1_554 S
C748 C749 1.385 . S
C749 H733 0.930 . S
C749 C748 1.385 . S
C749 C750 1.379 . S
C750 H734 0.931 . S
C750 C744 1.383 1_554 S
C750 C749 1.379 . S
H751 C745 0.959 . S
H752 C745 0.963 . S
H753 C745 0.945 1_545 S
H754 C746 0.930 . S
H755 C747 0.929 . S
H756 C764 0.929 . S
H757 C766 0.930 . S
H758 C768 0.930 . S
H759 C771 0.929 . S
H760 C774 0.930 . S
H761 C776 0.960 . S
H762 C776 0.960 . S
H763 C776 0.960 . S
C764 H756 0.929 . S
C764 C765 1.377 . S
C764 C766 1.384 1_655 S
C765 C764 1.377 . S
C765 C771 1.390 1_554 S
C766 H757 0.930 . S
C766 C764 1.384 1_455 S
C766 C767 1.372 1_554 S
C767 C766 1.372 1_556 S
C767 C768 1.399 . S
C767 C772 1.490 1_556 S
C768 H758 0.930 . S
C768 C767 1.399 . S
C768 C771 1.386 1_455 S
H769 C785 0.930 . S
H770 C786 0.931 . S
C771 H759 0.929 . S
C771 C765 1.390 1_556 S
C771 C768 1.386 1_655 S
C772 C767 1.490 1_554 S
C772 C774 1.395 . S
C772 C775 1.403 1_554 S
H773 C779 0.930 . S
C774 H760 0.930 . S
C774 C772 1.395 . S
C774 C777 1.403 . S
C775 C772 1.403 1_556 S
C775 C776 1.524 . S
C775 C779 1.400 . S
C776 H761 0.960 . S
C776 H762 0.960 . S
C776 H763 0.960 . S
C776 C775 1.524 . S
C777 C774 1.403 . S
C777 C778 1.392 . S
C777 C781 1.495 . S
C778 C777 1.392 . S
C778 C779 1.385 1_554 S
C778 C780 1.478 . S
C779 H773 0.930 . S
C779 C775 1.400 . S
C779 C778 1.385 1_556 S
C780 C778 1.478 . S
C780 C782 1.381 . S
C780 C786 1.383 1_554 S
C781 C777 1.495 . S
C781 H787 0.959 . S
C781 H788 0.961 . S
C781 H789 0.960 . S
C782 C780 1.381 . S
C782 C783 1.394 . S
C782 H790 0.930 . S
C783 C782 1.394 . S
C783 C784 1.383 1_554 S
C783 H791 0.929 1_565 S
C784 C783 1.383 1_556 S
C784 C785 1.377 . S
C785 H769 0.930 . S
C785 C784 1.377 . S
C785 C786 1.379 . S
C786 H770 0.931 . S
C786 C780 1.383 1_556 S
C786 C785 1.379 . S
H787 C781 0.959 . S
H788 C781 0.961 . S
H789 C781 0.960 . S
H790 C782 0.930 . S
H791 C783 0.929 1_545 S
H792 C800 0.929 . S
H793 C802 0.930 . S
H794 C804 0.930 . S
H795 C807 0.929 . S
H796 C810 0.930 . S
H797 C812 0.960 . S
H798 C812 0.960 . S
H799 C812 0.960 . S
C800 H792 0.929 . S
C800 C801 1.377 . S
C800 C802 1.384 . S
C801 C800 1.377 . S
C801 C807 1.390 . S
C802 H793 0.930 . S
C802 C800 1.384 . S
C802 C803 1.372 . S
C803 C802 1.372 . S
C803 C804 1.400 . S
C803 C808 1.490 . S
C804 H794 0.930 . S
C804 C803 1.400 . S
C804 C807 1.386 . S
H805 C821 0.930 . S
H806 C822 0.931 . S
C807 H795 0.929 . S
C807 C801 1.390 . S
C807 C804 1.386 . S
C808 C803 1.490 . S
C808 C810 1.395 . S
C808 C811 1.403 . S
H809 C815 0.930 . S
C810 H796 0.930 . S
C810 C808 1.395 . S
C810 C813 1.403 . S
C811 C808 1.403 . S
C811 C812 1.524 . S
C811 C815 1.400 . S
C812 H797 0.960 . S
C812 H798 0.960 . S
C812 H799 0.960 . S
C812 C811 1.524 . S
C813 C810 1.403 . S
C813 C814 1.392 . S
C813 C817 1.495 . S
C814 C813 1.392 . S
C814 C815 1.385 . S
C814 C816 1.478 . S
C815 H809 0.930 . S
C815 C811 1.400 . S
C815 C814 1.385 . S
C816 C814 1.478 . S
C816 C818 1.381 . S
C816 C822 1.383 . S
C817 C813 1.495 . S
C817 H823 0.959 . S
C817 H824 0.961 . S
C817 H825 0.960 . S
C818 C816 1.381 . S
C818 C819 1.394 . S
C818 H826 0.930 . S
C819 C818 1.394 . S
C819 C820 1.383 . S
C819 H827 0.929 . S
C820 C819 1.383 . S
C820 C821 1.377 . S
C821 H805 0.930 . S
C821 C820 1.377 . S
C821 C822 1.379 . S
C822 H806 0.931 . S
C822 C816 1.383 . S
C822 C821 1.379 . S
H823 C817 0.959 . S
H824 C817 0.961 . S
H825 C817 0.960 . S
H826 C818 0.930 . S
H827 C819 0.929 . S
H828 C836 0.929 . S
H829 C838 0.930 . S
H830 C840 0.930 . S
H831 C843 0.929 . S
H832 C846 0.930 . S
H833 C848 0.960 . S
H834 C848 0.960 . S
H835 C848 0.960 . S
C836 H828 0.929 . S
C836 C837 1.377 . S
C836 C838 1.384 . S
C837 C836 1.377 . S
C837 C843 1.390 . S
C838 H829 0.930 . S
C838 C836 1.384 . S
C838 C839 1.372 . S
C839 C838 1.372 . S
C839 C840 1.400 . S
C839 C844 1.490 . S
C840 H830 0.930 . S
C840 C839 1.400 . S
C840 C843 1.386 . S
H841 C857 0.930 . S
H842 C858 0.931 . S
C843 H831 0.929 . S
C843 C837 1.390 . S
C843 C840 1.386 . S
C844 C839 1.490 . S
C844 C846 1.395 . S
C844 C847 1.403 . S
H845 C851 0.930 . S
C846 H832 0.930 . S
C846 C844 1.395 . S
C846 C849 1.403 . S
C847 C844 1.403 . S
C847 C848 1.524 . S
C847 C851 1.400 . S
C848 H833 0.960 . S
C848 H834 0.960 . S
C848 H835 0.960 . S
C848 C847 1.524 . S
C849 C846 1.403 . S
C849 C850 1.392 . S
C849 C853 1.495 . S
C850 C849 1.392 . S
C850 C851 1.385 . S
C850 C852 1.478 . S
C851 H845 0.930 . S
C851 C847 1.400 . S
C851 C850 1.385 . S
C852 C850 1.478 . S
C852 C854 1.381 . S
C852 C858 1.383 . S
C853 C849 1.495 . S
C853 H859 0.959 . S
C853 H860 0.961 . S
C853 H861 0.960 . S
C854 C852 1.381 . S
C854 C855 1.394 . S
C854 H862 0.930 . S
C855 C854 1.394 . S
C855 C856 1.383 . S
C855 H863 0.929 . S
C856 C855 1.383 . S
C856 C857 1.377 . S
C857 H841 0.930 . S
C857 C856 1.377 . S
C857 C858 1.379 . S
C858 H842 0.931 . S
C858 C852 1.383 . S
C858 C857 1.379 . S
H859 C853 0.959 . S
H860 C853 0.961 . S
H861 C853 0.960 . S
H862 C854 0.930 . S
H863 C855 0.929 . S
H864 C872 0.929 . S
H865 C874 0.930 . S
H866 C876 0.930 . S
H867 C879 0.929 . S
H868 C882 0.930 . S
H869 C884 0.960 . S
H870 C884 0.960 . S
H871 C884 0.960 . S
C872 H864 0.929 . S
C872 C873 1.377 . S
C872 C874 1.384 . S
C873 C872 1.377 . S
C873 C879 1.390 . S
C874 H865 0.930 . S
C874 C872 1.384 . S
C874 C875 1.372 . S
C875 C874 1.372 . S
C875 C876 1.400 . S
C875 C880 1.490 . S
C876 H866 0.930 . S
C876 C875 1.400 . S
C876 C879 1.386 . S
H877 C893 0.930 . S
H878 C894 0.931 . S
C879 H867 0.929 . S
C879 C873 1.390 . S
C879 C876 1.386 . S
C880 C875 1.490 . S
C880 C882 1.395 . S
C880 C883 1.403 . S
H881 C887 0.930 . S
C882 H868 0.930 . S
C882 C880 1.395 . S
C882 C885 1.403 . S
C883 C880 1.403 . S
C883 C884 1.524 . S
C883 C887 1.400 . S
C884 H869 0.960 . S
C884 H870 0.960 . S
C884 H871 0.960 . S
C884 C883 1.524 . S
C885 C882 1.403 . S
C885 C886 1.392 . S
C885 C889 1.495 . S
C886 C885 1.392 . S
C886 C887 1.385 . S
C886 C888 1.478 . S
C887 H881 0.930 . S
C887 C883 1.400 . S
C887 C886 1.385 . S
C888 C886 1.478 . S
C888 C890 1.381 . S
C888 C894 1.383 . S
C889 C885 1.495 . S
C889 H895 0.959 . S
C889 H896 0.961 . S
C889 H897 0.960 . S
C890 C888 1.381 . S
C890 C891 1.394 . S
C890 H898 0.930 . S
C891 C890 1.394 . S
C891 C892 1.383 . S
C891 H899 0.929 . S
C892 C891 1.383 . S
C892 C893 1.377 . S
C893 H877 0.930 . S
C893 C892 1.377 . S
C893 C894 1.379 . S
C894 H878 0.931 . S
C894 C888 1.383 . S
C894 C893 1.379 . S
H895 C889 0.959 . S
H896 C889 0.961 . S
H897 C889 0.960 . S
H898 C890 0.930 . S
H899 C891 0.929 . S
H900 C908 0.929 . S
H901 C910 0.930 . S
H902 C912 0.930 . S
H903 C915 0.929 . S
H904 C918 0.930 . S
H905 C920 0.960 . S
H906 C920 0.960 . S
H907 C920 0.960 . S
C908 H900 0.929 . S
C908 C909 1.377 . S
C908 C910 1.384 . S
C909 C908 1.377 . S
C909 C915 1.390 . S
C910 H901 0.930 . S
C910 C908 1.384 . S
C910 C911 1.372 . S
C911 C910 1.372 . S
C911 C912 1.400 . S
C911 C916 1.490 . S
C912 H902 0.930 . S
C912 C911 1.400 . S
C912 C915 1.386 . S
H913 C929 0.930 . S
H914 C930 0.931 . S
C915 H903 0.929 . S
C915 C909 1.390 . S
C915 C912 1.386 . S
C916 C911 1.490 . S
C916 C918 1.395 . S
C916 C919 1.403 . S
H917 C923 0.930 . S
C918 H904 0.930 . S
C918 C916 1.395 . S
C918 C921 1.403 . S
C919 C916 1.403 . S
C919 C920 1.524 . S
C919 C923 1.400 . S
C920 H905 0.960 . S
C920 H906 0.960 . S
C920 H907 0.960 . S
C920 C919 1.524 . S
C921 C918 1.403 . S
C921 C922 1.392 . S
C921 C925 1.495 . S
C922 C921 1.392 . S
C922 C923 1.385 . S
C922 C924 1.478 . S
C923 H917 0.930 . S
C923 C919 1.400 . S
C923 C922 1.385 . S
C924 C922 1.478 . S
C924 C926 1.381 . S
C924 C930 1.383 . S
C925 C921 1.495 . S
C925 H931 0.959 . S
C925 H932 0.961 . S
C925 H933 0.960 . S
C926 C924 1.381 . S
C926 C927 1.394 . S
C926 H934 0.930 . S
C927 C926 1.394 . S
C927 C928 1.383 . S
C927 H935 0.929 . S
C928 C927 1.383 . S
C928 C929 1.377 . S
C929 H913 0.930 . S
C929 C928 1.377 . S
C929 C930 1.379 . S
C930 H914 0.931 . S
C930 C924 1.383 . S
C930 C929 1.379 . S
H931 C925 0.959 . S
H932 C925 0.961 . S
H933 C925 0.960 . S
H934 C926 0.930 . S
H935 C927 0.929 . S
H936 C944 0.929 . S
H937 C946 0.930 . S
H938 C948 0.930 . S
H939 C951 0.929 . S
H940 C954 0.930 . S
H941 C956 0.960 . S
H942 C956 0.960 . S
H943 C956 0.960 . S
C944 H936 0.929 . S
C944 C945 1.377 . S
C944 C946 1.384 . S
C945 C944 1.377 . S
C945 C951 1.390 . S
C946 H937 0.930 . S
C946 C944 1.384 . S
C946 C947 1.372 . S
C947 C946 1.372 . S
C947 C948 1.400 . S
C947 C952 1.490 . S
C948 H938 0.930 . S
C948 C947 1.400 . S
C948 C951 1.386 . S
H949 C965 0.930 . S
H950 C966 0.931 . S
C951 H939 0.929 . S
C951 C945 1.390 . S
C951 C948 1.386 . S
C952 C947 1.490 . S
C952 C954 1.395 . S
C952 C955 1.403 . S
H953 C959 0.930 . S
C954 H940 0.930 . S
C954 C952 1.395 . S
C954 C957 1.403 . S
C955 C952 1.403 . S
C955 C956 1.524 . S
C955 C959 1.400 . S
C956 H941 0.960 . S
C956 H942 0.960 . S
C956 H943 0.960 . S
C956 C955 1.524 . S
C957 C954 1.403 . S
C957 C958 1.392 . S
C957 C961 1.495 . S
C958 C957 1.392 . S
C958 C959 1.385 . S
C958 C960 1.478 . S
C959 H953 0.930 . S
C959 C955 1.400 . S
C959 C958 1.385 . S
C960 C958 1.478 . S
C960 C962 1.381 . S
C960 C966 1.383 . S
C961 C957 1.495 . S
C961 H967 0.959 . S
C961 H968 0.961 . S
C961 H969 0.960 . S
C962 C960 1.381 . S
C962 C963 1.394 . S
C962 H970 0.930 . S
C963 C962 1.394 . S
C963 C964 1.383 . S
C963 H971 0.929 . S
C964 C963 1.383 . S
C964 C965 1.377 . S
C965 H949 0.930 . S
C965 C964 1.377 . S
C965 C966 1.379 . S
C966 H950 0.931 . S
C966 C960 1.383 . S
C966 C965 1.379 . S
H967 C961 0.959 . S
H968 C961 0.961 . S
H969 C961 0.960 . S
H970 C962 0.930 . S
H971 C963 0.929 . S
H972 C980 0.929 . S
H973 C982 0.930 . S
H974 C984 0.930 . S
H975 C987 0.929 . S
H976 C990 0.930 . S
H977 C992 0.960 . S
H978 C992 0.960 . S
H979 C992 0.960 . S
C980 H972 0.929 . S
C980 C981 1.377 . S
C980 C982 1.384 . S
C981 C980 1.377 . S
C981 C987 1.390 . S
C982 H973 0.930 . S
C982 C980 1.384 . S
C982 C983 1.372 . S
C983 C982 1.372 . S
C983 C984 1.400 . S
C983 C988 1.490 . S
C984 H974 0.930 . S
C984 C983 1.400 . S
C984 C987 1.386 . S
H985 C1001 0.930 . S
H986 C1002 0.931 . S
C987 H975 0.929 . S
C987 C981 1.390 . S
C987 C984 1.386 . S
C988 C983 1.490 . S
C988 C990 1.395 . S
C988 C991 1.403 . S
H989 C995 0.930 . S
C990 H976 0.930 . S
C990 C988 1.395 . S
C990 C993 1.403 . S
C991 C988 1.403 . S
C991 C992 1.524 . S
C991 C995 1.400 . S
C992 H977 0.960 . S
C992 H978 0.960 . S
C992 H979 0.960 . S
C992 C991 1.524 . S
C993 C990 1.403 . S
C993 C994 1.392 . S
C993 C997 1.495 . S
C994 C993 1.392 . S
C994 C995 1.385 . S
C994 C996 1.478 . S
C995 H989 0.930 . S
C995 C991 1.400 . S
C995 C994 1.385 . S
C996 C994 1.478 . S
C996 C998 1.381 . S
C996 C1002 1.383 . S
C997 C993 1.495 . S
C997 H1003 0.959 . S
C997 H1004 0.961 . S
C997 H1005 0.960 . S
C998 C996 1.381 . S
C998 C999 1.394 . S
C998 H1006 0.930 . S
C999 C998 1.394 . S
C999 C1000 1.383 . S
C999 H1007 0.929 . S
C1000 C999 1.383 . S
C1000 C1001 1.377 . S
C1001 H985 0.930 . S
C1001 C1000 1.377 . S
C1001 C1002 1.379 . S
C1002 H986 0.931 . S
C1002 C996 1.383 . S
C1002 C1001 1.379 . S
H1003 C997 0.959 . S
H1004 C997 0.961 . S
H1005 C997 0.960 . S
H1006 C998 0.930 . S
H1007 C999 0.929 . S
H1008 C1016 0.929 . S
H1009 C1018 0.930 . S
H1010 C1020 0.930 . S
H1011 C1023 0.929 . S
H1012 C1026 0.930 . S
H1013 C1028 0.960 . S
H1014 C1028 0.960 . S
H1015 C1028 0.960 . S
C1016 H1008 0.929 . S
C1016 C1017 1.377 . S
C1016 C1018 1.384 . S
C1017 C1016 1.377 . S
C1017 C1023 1.390 . S
C1018 H1009 0.930 . S
C1018 C1016 1.384 . S
C1018 C1019 1.372 . S
C1019 C1018 1.372 . S
C1019 C1020 1.400 . S
C1019 C1024 1.490 . S
C1020 H1010 0.930 . S
C1020 C1019 1.400 . S
C1020 C1023 1.386 . S
H1021 C1037 0.930 . S
H1022 C1038 0.931 . S
C1023 H1011 0.929 . S
C1023 C1017 1.390 . S
C1023 C1020 1.386 . S
C1024 C1019 1.490 . S
C1024 C1026 1.395 . S
C1024 C1027 1.374 1_455 S
H1025 C1031 0.930 1_655 S
C1026 H1012 0.930 . S
C1026 C1024 1.395 . S
C1026 C1029 1.403 . S
C1027 C1024 1.374 1_655 S
C1027 C1028 1.559 . S
C1027 C1031 1.396 1_655 S
C1028 H1013 0.960 . S
C1028 H1014 0.960 . S
C1028 H1015 0.960 . S
C1028 C1027 1.559 . S
C1029 C1026 1.403 . S
C1029 C1030 1.392 . S
C1029 C1033 1.495 . S
C1030 C1029 1.392 . S
C1030 C1031 1.385 . S
C1030 C1032 1.478 . S
C1031 H1025 0.930 1_455 S
C1031 C1027 1.396 1_455 S
C1031 C1030 1.385 . S
C1032 C1030 1.478 . S
C1032 C1034 1.381 . S
C1032 C1038 1.383 . S
C1033 C1029 1.495 . S
C1033 H1039 0.959 . S
C1033 H1040 0.961 . S
C1033 H1041 0.960 . S
C1034 C1032 1.381 . S
C1034 C1035 1.394 . S
C1034 H1042 0.930 . S
C1035 C1034 1.394 . S
C1035 C1036 1.383 . S
C1035 H1043 0.929 . S
C1036 C1035 1.383 . S
C1036 C1037 1.377 . S
C1037 H1021 0.930 . S
C1037 C1036 1.377 . S
C1037 C1038 1.379 . S
C1038 H1022 0.931 . S
C1038 C1032 1.383 . S
C1038 C1037 1.379 . S
H1039 C1033 0.959 . S
H1040 C1033 0.961 . S
H1041 C1033 0.960 . S
H1042 C1034 0.930 . S
H1043 C1035 0.929 . S
H1044 C1052 0.929 . S
H1045 C1054 0.930 . S
H1046 C1056 0.930 . S
H1047 C1059 0.929 . S
H1048 C1062 0.930 . S
H1049 C1064 0.960 . S
H1050 C1064 0.960 . S
H1051 C1064 0.960 . S
C1052 H1044 0.929 . S
C1052 C1053 1.377 . S
C1052 C1054 1.384 . S
C1053 C1052 1.377 . S
C1053 C1059 1.390 . S
C1054 H1045 0.930 . S
C1054 C1052 1.384 . S
C1054 C1055 1.372 . S
C1055 C1054 1.372 . S
C1055 C1056 1.400 . S
C1055 C1060 1.490 . S
C1056 H1046 0.930 . S
C1056 C1055 1.400 . S
C1056 C1059 1.386 . S
H1057 C1073 0.930 . S
H1058 C1074 0.931 . S
C1059 H1047 0.929 . S
C1059 C1053 1.390 . S
C1059 C1056 1.386 . S
C1060 C1055 1.490 . S
C1060 C1062 1.395 . S
C1060 C1063 1.403 . S
H1061 C1067 0.930 . S
C1062 H1048 0.930 . S
C1062 C1060 1.395 . S
C1062 C1065 1.403 . S
C1063 C1060 1.403 . S
C1063 C1064 1.524 . S
C1063 C1067 1.400 . S
C1064 H1049 0.960 . S
C1064 H1050 0.960 . S
C1064 H1051 0.960 . S
C1064 C1063 1.524 . S
C1065 C1062 1.403 . S
C1065 C1066 1.392 . S
C1065 C1069 1.495 . S
C1066 C1065 1.392 . S
C1066 C1067 1.385 . S
C1066 C1068 1.478 . S
C1067 H1061 0.930 . S
C1067 C1063 1.400 . S
C1067 C1066 1.385 . S
C1068 C1066 1.478 . S
C1068 C1070 1.381 . S
C1068 C1074 1.383 . S
C1069 C1065 1.495 . S
C1069 H1075 0.959 . S
C1069 H1076 0.961 . S
C1069 H1077 0.960 . S
C1070 C1068 1.381 . S
C1070 C1071 1.394 . S
C1070 H1078 0.930 . S
C1071 C1070 1.394 . S
C1071 C1072 1.383 . S
C1071 H1079 0.929 . S
C1072 C1071 1.383 . S
C1072 C1073 1.377 . S
C1073 H1057 0.930 . S
C1073 C1072 1.377 . S
C1073 C1074 1.379 . S
C1074 H1058 0.931 . S
C1074 C1068 1.383 . S
C1074 C1073 1.379 . S
H1075 C1069 0.959 . S
H1076 C1069 0.961 . S
H1077 C1069 0.960 . S
H1078 C1070 0.930 . S
H1079 C1071 0.929 . S
H1080 C1088 0.929 . S
H1081 C1090 0.930 . S
H1082 C1092 0.930 . S
H1083 C1095 0.929 . S
H1084 C1098 0.930 . S
H1085 C1100 0.960 . S
H1086 C1100 0.960 . S
H1087 C1100 0.960 . S
C1088 H1080 0.929 . S
C1088 C1089 1.377 . S
C1088 C1090 1.384 . S
C1089 C1088 1.377 . S
C1089 C1095 1.390 . S
C1090 H1081 0.930 . S
C1090 C1088 1.384 . S
C1090 C1091 1.372 . S
C1091 C1090 1.372 . S
C1091 C1092 1.400 . S
C1091 C1096 1.490 . S
C1092 H1082 0.930 . S
C1092 C1091 1.400 . S
C1092 C1095 1.386 . S
H1093 C1109 0.930 . S
H1094 C1110 0.931 . S
C1095 H1083 0.929 . S
C1095 C1089 1.390 . S
C1095 C1092 1.386 . S
C1096 C1091 1.490 . S
C1096 C1098 1.395 1_545 S
C1096 C1099 1.403 . S
H1097 C1103 0.930 . S
C1098 H1084 0.930 . S
C1098 C1096 1.395 1_565 S
C1098 C1101 1.403 . S
C1099 C1096 1.403 . S
C1099 C1100 1.524 . S
C1099 C1103 1.400 . S
C1100 H1085 0.960 . S
C1100 H1086 0.960 . S
C1100 H1087 0.960 . S
C1100 C1099 1.524 . S
C1101 C1098 1.403 . S
C1101 C1102 1.392 1_565 S
C1101 C1105 1.495 . S
C1102 C1101 1.392 1_545 S
C1102 C1103 1.385 . S
C1102 C1104 1.478 . S
C1103 H1097 0.930 . S
C1103 C1099 1.400 . S
C1103 C1102 1.385 . S
C1104 C1102 1.478 . S
C1104 C1106 1.381 . S
C1104 C1110 1.383 . S
C1105 C1101 1.495 . S
C1105 H1111 0.959 . S
C1105 H1112 0.961 . S
C1105 H1113 0.960 . S
C1106 C1104 1.381 . S
C1106 C1107 1.394 . S
C1106 H1114 0.930 . S
C1107 C1106 1.394 . S
C1107 C1108 1.383 . S
C1107 H1115 0.929 . S
C1108 C1107 1.383 . S
C1108 C1109 1.377 . S
C1109 H1093 0.930 . S
C1109 C1108 1.377 . S
C1109 C1110 1.379 . S
C1110 H1094 0.931 . S
C1110 C1104 1.383 . S
C1110 C1109 1.379 . S
H1111 C1105 0.959 . S
H1112 C1105 0.961 . S
H1113 C1105 0.960 . S
H1114 C1106 0.930 . S
H1115 C1107 0.929 . S
H1116 C1124 0.929 . S
H1117 C1126 0.930 . S
H1118 C1128 0.930 . S
H1119 C1131 0.929 . S
H1120 C1134 0.930 . S
H1121 C1136 0.960 . S
H1122 C1136 0.960 . S
H1123 C1136 0.960 . S
C1124 H1116 0.929 . S
C1124 C1125 1.377 . S
C1124 C1126 1.384 . S
C1125 C1124 1.377 . S
C1125 C1131 1.390 . S
C1126 H1117 0.930 . S
C1126 C1124 1.384 . S
C1126 C1127 1.372 . S
C1127 C1126 1.372 . S
C1127 C1128 1.400 . S
C1127 C1132 1.490 . S
C1128 H1118 0.930 . S
C1128 C1127 1.400 . S
C1128 C1131 1.386 . S
H1129 C1145 0.930 . S
H1130 C1146 0.931 . S
C1131 H1119 0.929 . S
C1131 C1125 1.390 . S
C1131 C1128 1.386 . S
C1132 C1127 1.490 . S
C1132 C1134 1.395 . S
C1132 C1135 1.403 . S
H1133 C1139 0.930 . S
C1134 H1120 0.930 . S
C1134 C1132 1.395 . S
C1134 C1137 1.403 . S
C1135 C1132 1.403 . S
C1135 C1136 1.524 . S
C1135 C1139 1.400 . S
C1136 H1121 0.960 . S
C1136 H1122 0.960 . S
C1136 H1123 0.960 . S
C1136 C1135 1.524 . S
C1137 C1134 1.403 . S
C1137 C1138 1.392 . S
C1137 C1141 1.495 . S
C1138 C1137 1.392 . S
C1138 C1139 1.385 . S
C1138 C1140 1.479 1_556 S
C1139 H1133 0.930 . S
C1139 C1135 1.400 . S
C1139 C1138 1.385 . S
C1140 C1138 1.479 1_554 S
C1140 C1142 1.380 . S
C1140 C1146 1.382 . S
C1141 C1137 1.495 . S
C1141 H1147 0.959 . S
C1141 H1148 0.961 . S
C1141 H1149 0.960 . S
C1142 C1140 1.380 . S
C1142 C1143 1.394 . S
C1142 H1150 0.930 . S
C1143 C1142 1.394 . S
C1143 C1144 1.383 . S
C1143 H1151 0.929 . S
C1144 C1143 1.383 . S
C1144 C1145 1.377 . S
C1145 H1129 0.930 . S
C1145 C1144 1.377 . S
C1145 C1146 1.379 . S
C1146 H1130 0.931 . S
C1146 C1140 1.382 . S
C1146 C1145 1.379 . S
H1147 C1141 0.959 . S
H1148 C1141 0.961 . S
H1149 C1141 0.960 . S
H1150 C1142 0.930 . S
H1151 C1143 0.929 . S
H1152 C1160 0.929 . S
H1153 C1162 0.930 . S
H1154 C1164 0.930 . S
H1155 C1167 0.929 . S
H1156 C1170 0.930 . S
H1157 C1172 0.960 . S
H1158 C1172 0.960 . S
H1159 C1172 0.960 . S
C1160 H1152 0.929 . S
C1160 C1161 1.377 . S
C1160 C1162 1.384 . S
C1161 C1160 1.377 . S
C1161 C1167 1.390 . S
C1162 H1153 0.930 . S
C1162 C1160 1.384 . S
C1162 C1163 1.372 . S
C1163 C1162 1.372 . S
C1163 C1164 1.400 . S
C1163 C1168 1.490 . S
C1164 H1154 0.930 . S
C1164 C1163 1.400 . S
C1164 C1167 1.386 . S
H1165 C1181 0.930 . S
H1166 C1182 0.931 . S
C1167 H1155 0.929 . S
C1167 C1161 1.390 . S
C1167 C1164 1.386 . S
C1168 C1163 1.490 . S
C1168 C1170 1.395 . S
C1168 C1171 1.403 . S
H1169 C1175 0.930 . S
C1170 H1156 0.930 . S
C1170 C1168 1.395 . S
C1170 C1173 1.403 . S
C1171 C1168 1.403 . S
C1171 C1172 1.524 . S
C1171 C1175 1.400 . S
C1172 H1157 0.960 . S
C1172 H1158 0.960 . S
C1172 H1159 0.960 . S
C1172 C1171 1.524 . S
C1173 C1170 1.403 . S
C1173 C1174 1.392 . S
C1173 C1177 1.495 . S
C1174 C1173 1.392 . S
C1174 C1175 1.385 . S
C1174 C1176 1.478 . S
C1175 H1169 0.930 . S
C1175 C1171 1.400 . S
C1175 C1174 1.385 . S
C1176 C1174 1.478 . S
C1176 C1178 1.381 1_556 S
C1176 C1182 1.383 1_556 S
C1177 C1173 1.495 . S
C1177 H1183 0.959 . S
C1177 H1184 0.961 . S
C1177 H1185 0.960 . S
C1178 C1176 1.381 1_554 S
C1178 C1179 1.394 . S
C1178 H1186 0.930 . S
C1179 C1178 1.394 . S
C1179 C1180 1.383 . S
C1179 H1187 0.929 . S
C1180 C1179 1.383 . S
C1180 C1181 1.377 . S
C1181 H1165 0.930 . S
C1181 C1180 1.377 . S
C1181 C1182 1.379 . S
C1182 H1166 0.931 . S
C1182 C1176 1.383 1_554 S
C1182 C1181 1.379 . S
H1183 C1177 0.959 . S
H1184 C1177 0.961 . S
H1185 C1177 0.960 . S
H1186 C1178 0.930 . S
H1187 C1179 0.929 . S
H1188 C1196 0.929 . S
H1189 C1198 0.930 . S
H1190 C1200 0.930 . S
H1191 C1203 0.929 . S
H1192 C1206 0.930 . S
H1193 C1208 0.960 . S
H1194 C1208 0.960 . S
H1195 C1208 0.960 . S
C1196 H1188 0.929 . S
C1196 C1197 1.377 . S
C1196 C1198 1.384 . S
C1197 C1196 1.377 . S
C1197 C1203 1.390 . S
C1198 H1189 0.930 . S
C1198 C1196 1.384 . S
C1198 C1199 1.372 . S
C1199 C1198 1.372 . S
C1199 C1200 1.400 . S
C1199 C1204 1.490 . S
C1200 H1190 0.930 . S
C1200 C1199 1.400 . S
C1200 C1203 1.386 . S
H1201 C1217 0.930 . S
H1202 C1218 0.931 . S
C1203 H1191 0.929 . S
C1203 C1197 1.390 . S
C1203 C1200 1.386 . S
C1204 C1199 1.490 . S
C1204 C1206 1.395 . S
C1204 C1207 1.403 . S
H1205 C1211 0.930 . S
C1206 H1192 0.930 . S
C1206 C1204 1.395 . S
C1206 C1209 1.403 . S
C1207 C1204 1.403 . S
C1207 C1208 1.524 . S
C1207 C1211 1.400 . S
C1208 H1193 0.960 . S
C1208 H1194 0.960 . S
C1208 H1195 0.960 . S
C1208 C1207 1.524 . S
C1209 C1206 1.403 . S
C1209 C1210 1.392 . S
C1209 C1213 1.495 . S
C1210 C1209 1.392 . S
C1210 C1211 1.385 . S
C1210 C1212 1.478 . S
C1211 H1205 0.930 . S
C1211 C1207 1.400 . S
C1211 C1210 1.385 . S
C1212 C1210 1.478 . S
C1212 C1214 1.381 1_556 S
C1212 C1218 1.383 1_556 S
C1213 C1209 1.495 . S
C1213 H1219 0.959 . S
C1213 H1220 0.961 . S
C1213 H1221 0.960 . S
C1214 C1212 1.381 1_554 S
C1214 C1215 1.394 . S
C1214 H1222 0.930 . S
C1215 C1214 1.394 . S
C1215 C1216 1.383 . S
C1215 H1223 0.929 . S
C1216 C1215 1.383 . S
C1216 C1217 1.377 . S
C1217 H1201 0.930 . S
C1217 C1216 1.377 . S
C1217 C1218 1.379 . S
C1218 H1202 0.931 . S
C1218 C1212 1.383 1_554 S
C1218 C1217 1.379 . S
H1219 C1213 0.959 . S
H1220 C1213 0.961 . S
H1221 C1213 0.960 . S
H1222 C1214 0.930 . S
H1223 C1215 0.929 . S
H1224 C1232 0.929 . S
H1225 C1234 0.930 . S
H1226 C1236 0.930 . S
H1227 C1239 0.929 . S
H1228 C1242 0.930 . S
H1229 C1244 0.960 . S
H1230 C1244 0.960 . S
H1231 C1244 0.960 . S
C1232 H1224 0.929 . S
C1232 C1233 1.377 . S
C1232 C1234 1.384 . S
C1233 C1232 1.377 . S
C1233 C1239 1.390 . S
C1234 H1225 0.930 . S
C1234 C1232 1.384 . S
C1234 C1235 1.372 . S
C1235 C1234 1.372 . S
C1235 C1236 1.400 . S
C1235 C1240 1.490 . S
C1236 H1226 0.930 . S
C1236 C1235 1.400 . S
C1236 C1239 1.386 . S
H1237 C1253 0.930 . S
H1238 C1254 0.931 1_554 S
C1239 H1227 0.929 . S
C1239 C1233 1.390 . S
C1239 C1236 1.386 . S
C1240 C1235 1.490 . S
C1240 C1242 1.395 . S
C1240 C1243 1.403 . S
H1241 C1247 0.930 . S
C1242 H1228 0.930 . S
C1242 C1240 1.395 . S
C1242 C1245 1.403 . S
C1243 C1240 1.403 . S
C1243 C1244 1.524 . S
C1243 C1247 1.400 . S
C1244 H1229 0.960 . S
C1244 H1230 0.960 . S
C1244 H1231 0.960 . S
C1244 C1243 1.524 . S
C1245 C1242 1.403 . S
C1245 C1246 1.392 . S
C1245 C1249 1.495 . S
C1246 C1245 1.392 . S
C1246 C1247 1.385 . S
C1246 C1248 1.478 . S
C1247 H1241 0.930 . S
C1247 C1243 1.400 . S
C1247 C1246 1.385 . S
C1248 C1246 1.478 . S
C1248 C1250 1.381 1_554 S
C1248 C1254 1.383 1_554 S
C1249 C1245 1.495 . S
C1249 H1255 0.959 . S
C1249 H1256 0.961 . S
C1249 H1257 0.960 . S
C1250 C1248 1.381 1_556 S
C1250 C1251 1.394 . S
C1250 H1258 0.930 . S
C1251 C1250 1.394 . S
C1251 C1252 1.383 . S
C1251 H1259 0.929 . S
C1252 C1251 1.383 . S
C1252 C1253 1.377 . S
C1253 H1237 0.930 . S
C1253 C1252 1.377 . S
C1253 C1254 1.379 . S
C1254 H1238 0.931 1_556 S
C1254 C1248 1.383 1_556 S
C1254 C1253 1.379 . S
H1255 C1249 0.959 . S
H1256 C1249 0.961 . S
H1257 C1249 0.960 . S
H1258 C1250 0.930 . S
H1259 C1251 0.929 . S
H1260 C1268 0.929 . S
H1261 C1270 0.930 . S
H1262 C1272 0.930 1_554 S
H1263 C1275 0.929 . S
H1264 C1278 0.930 . S
H1265 C1280 0.960 . S
H1266 C1280 0.960 . S
H1267 C1280 0.960 . S
C1268 H1260 0.929 . S
C1268 C1269 1.377 . S
C1268 C1270 1.384 . S
C1269 C1268 1.377 . S
C1269 C1275 1.390 . S
C1270 H1261 0.930 . S
C1270 C1268 1.384 . S
C1270 C1271 1.372 1_556 S
C1271 C1270 1.372 1_554 S
C1271 C1272 1.400 1_554 S
C1271 C1276 1.490 . S
C1272 H1262 0.930 1_556 S
C1272 C1271 1.400 1_556 S
C1272 C1275 1.386 . S
H1273 C1289 0.930 . S
H1274 C1290 0.931 . S
C1275 H1263 0.929 . S
C1275 C1269 1.390 . S
C1275 C1272 1.386 . S
C1276 C1271 1.490 . S
C1276 C1278 1.395 . S
C1276 C1279 1.403 . S
H1277 C1283 0.930 . S
C1278 H1264 0.930 . S
C1278 C1276 1.395 . S
C1278 C1281 1.403 . S
C1279 C1276 1.403 . S
C1279 C1280 1.524 . S
C1279 C1283 1.400 . S
C1280 H1265 0.960 . S
C1280 H1266 0.960 . S
C1280 H1267 0.960 . S
C1280 C1279 1.524 . S
C1281 C1278 1.403 . S
C1281 C1282 1.392 . S
C1281 C1285 1.495 . S
C1282 C1281 1.392 . S
C1282 C1283 1.385 . S
C1282 C1284 1.478 . S
C1283 H1277 0.930 . S
C1283 C1279 1.400 . S
C1283 C1282 1.385 . S
C1284 C1282 1.478 . S
C1284 C1286 1.381 . S
C1284 C1290 1.383 . S
C1285 C1281 1.495 . S
C1285 H1291 0.959 . S
C1285 H1292 0.961 . S
C1285 H1293 0.960 . S
C1286 C1284 1.381 . S
C1286 C1287 1.394 . S
C1286 H1294 0.930 . S
C1287 C1286 1.394 . S
C1287 C1288 1.383 . S
C1287 H1295 0.929 . S
C1288 C1287 1.383 . S
C1288 C1289 1.377 . S
C1289 H1273 0.930 . S
C1289 C1288 1.377 . S
C1289 C1290 1.379 . S
C1290 H1274 0.931 . S
C1290 C1284 1.383 . S
C1290 C1289 1.379 . S
H1291 C1285 0.959 . S
H1292 C1285 0.961 . S
H1293 C1285 0.960 . S
H1294 C1286 0.930 . S
H1295 C1287 0.929 . S
H1296 C1304 0.929 . S
H1297 C1306 0.930 . S
H1298 C1308 0.930 . S
H1299 C1311 0.929 . S
H1300 C1314 0.930 . S
H1301 C1316 0.960 . S
H1302 C1316 0.960 . S
H1303 C1316 0.960 . S
C1304 H1296 0.929 . S
C1304 C1305 1.377 . S
C1304 C1306 1.384 . S
C1305 C1304 1.377 . S
C1305 C1311 1.390 . S
C1306 H1297 0.930 . S
C1306 C1304 1.384 . S
C1306 C1307 1.372 . S
C1307 C1306 1.372 . S
C1307 C1308 1.400 . S
C1307 C1312 1.490 . S
C1308 H1298 0.930 . S
C1308 C1307 1.400 . S
C1308 C1311 1.386 . S
H1309 C1325 0.930 . S
H1310 C1326 0.931 . S
C1311 H1299 0.929 . S
C1311 C1305 1.390 . S
C1311 C1308 1.386 . S
C1312 C1307 1.490 . S
C1312 C1314 1.395 . S
C1312 C1315 1.403 . S
H1313 C1319 0.930 . S
C1314 H1300 0.930 . S
C1314 C1312 1.395 . S
C1314 C1317 1.403 . S
C1315 C1312 1.403 . S
C1315 C1316 1.524 . S
C1315 C1319 1.400 . S
C1316 H1301 0.960 . S
C1316 H1302 0.960 . S
C1316 H1303 0.960 . S
C1316 C1315 1.524 . S
C1317 C1314 1.403 . S
C1317 C1318 1.392 . S
C1317 C1321 1.495 . S
C1318 C1317 1.392 . S
C1318 C1319 1.385 . S
C1318 C1320 1.478 . S
C1319 H1313 0.930 . S
C1319 C1315 1.400 . S
C1319 C1318 1.385 . S
C1320 C1318 1.478 . S
C1320 C1322 1.381 1_554 S
C1320 C1326 1.383 1_554 S
C1321 C1317 1.495 . S
C1321 H1327 0.959 . S
C1321 H1328 0.961 . S
C1321 H1329 0.960 . S
C1322 C1320 1.381 1_556 S
C1322 C1323 1.394 . S
C1322 H1330 0.924 1_556 S
C1323 C1322 1.394 . S
C1323 C1324 1.383 . S
C1323 H1331 0.929 . S
C1324 C1323 1.383 . S
C1324 C1325 1.377 . S
C1325 H1309 0.930 . S
C1325 C1324 1.377 . S
C1325 C1326 1.379 . S
C1326 H1310 0.931 . S
C1326 C1320 1.383 1_556 S
C1326 C1325 1.379 . S
H1327 C1321 0.959 . S
H1328 C1321 0.961 . S
H1329 C1321 0.960 . S
H1330 C1322 0.924 1_554 S
H1331 C1323 0.929 . S
C369 C6 2.061 1_556 S
C388 C290 2.101 . S
C405 C46 2.061 1_556 S
C424 C330 2.113 . S
C441 C86 2.062 1_556 S
C460 C250 2.101 . S
C477 C166 2.059 . S
C496 C90 2.113 . S
C513 C206 2.064 . S
C532 C10 2.099 . S
C549 C50 2.110 . S
C568 C126 2.066 . S
C585 C286 2.066 . S
C604 C210 2.103 . S
C621 C326 2.065 . S
C640 C130 2.107 . S
C657 C170 2.109 . S
C676 C246 2.051 . S
C693 C95 1.733 . S
C712 C19 1.705 . S
C729 C59 1.719 . S
C748 C15 1.721 . S
C765 C55 1.732 . S
C784 C99 1.702 . S
C801 C139 1.716 . S
C820 C215 1.730 . S
C837 C135 1.731 . S
C856 C179 1.710 . S
C873 C175 1.729 . S
C892 C219 1.726 . S
C909 C335 1.730 . S
C928 C259 1.727 . S
C945 C299 1.719 . S
C964 C255 1.721 . S
C981 C339 1.720 . S
C1000 C295 1.719 . S
C1017 C9 0.818 . S
C1036 C18 0.868 . S
C1053 C49 0.817 . S
C1072 C58 0.866 . S
C1089 C89 0.816 . S
C1108 C98 0.865 . S
C1125 C138 0.814 . S
C1144 C129 0.761 . S
C1161 C178 0.813 . S
C1180 C169 0.854 . S
C1197 C218 0.828 . S
C1216 C209 0.850 . S
C1233 C249 0.828 . S
C1252 C258 0.839 . S
C1269 C298 0.809 . S
C1288 C289 0.840 . S
C1305 C329 0.807 . S
C1324 C338 0.822 . S
