# Generated by pormake.
# Topology wfa, (4)-cn, num edge types: 1
# Building blocks:
#     Node 0, Type 0, BuildingBlock: KOZSID_clean_sbu_0, # of connection points: 4
#     Node 1, Type 0, BuildingBlock: KOZSID_clean_sbu_0, # of connection points: 4
#     Node 2, Type 0, BuildingBlock: KOZSID_clean_sbu_0, # of connection points: 4
#     Node 3, Type 0, BuildingBlock: KOZSID_clean_sbu_0, # of connection points: 4
#     Node 4, Type 0, BuildingBlock: KOZSID_clean_sbu_0, # of connection points: 4
#     Node 5, Type 0, BuildingBlock: KOZSID_clean_sbu_0, # of connection points: 4
#     Node 6, Type 0, BuildingBlock: KOZSID_clean_sbu_0, # of connection points: 4
#     Node 7, Type 0, BuildingBlock: KOZSID_clean_sbu_0, # of connection points: 4
#     Node 8, Type 0, BuildingBlock: KOZSID_clean_sbu_0, # of connection points: 4
#     Node 9, Type 0, BuildingBlock: KOZSID_clean_sbu_0, # of connection points: 4
#     Node 10, Type 0, BuildingBlock: KOZSID_clean_sbu_0, # of connection points: 4
#     Node 11, Type 0, BuildingBlock: KOZSID_clean_sbu_0, # of connection points: 4
#     Node 12, Type 0, BuildingBlock: KOZSID_clean_sbu_0, # of connection points: 4
#     Node 13, Type 0, BuildingBlock: KOZSID_clean_sbu_0, # of connection points: 4
#     Node 14, Type 0, BuildingBlock: KOZSID_clean_sbu_0, # of connection points: 4
#     Node 15, Type 0, BuildingBlock: KOZSID_clean_sbu_0, # of connection points: 4
#     Edge 16, Type (0, 0), BuildingBlock: OJICUG_clean_linker_0, # of connection points: 2
#     Edge 17, Type (0, 0), BuildingBlock: OJICUG_clean_linker_0, # of connection points: 2
#     Edge 18, Type (0, 0), BuildingBlock: OJICUG_clean_linker_0, # of connection points: 2
#     Edge 19, Type (0, 0), BuildingBlock: OJICUG_clean_linker_0, # of connection points: 2
#     Edge 20, Type (0, 0), BuildingBlock: OJICUG_clean_linker_0, # of connection points: 2
#     Edge 21, Type (0, 0), BuildingBlock: OJICUG_clean_linker_0, # of connection points: 2
#     Edge 22, Type (0, 0), BuildingBlock: OJICUG_clean_linker_0, # of connection points: 2
#     Edge 23, Type (0, 0), BuildingBlock: OJICUG_clean_linker_0, # of connection points: 2
#     Edge 24, Type (0, 0), BuildingBlock: OJICUG_clean_linker_0, # of connection points: 2
#     Edge 25, Type (0, 0), BuildingBlock: OJICUG_clean_linker_0, # of connection points: 2
#     Edge 26, Type (0, 0), BuildingBlock: OJICUG_clean_linker_0, # of connection points: 2
#     Edge 27, Type (0, 0), BuildingBlock: OJICUG_clean_linker_0, # of connection points: 2
#     Edge 28, Type (0, 0), BuildingBlock: OJICUG_clean_linker_0, # of connection points: 2
#     Edge 29, Type (0, 0), BuildingBlock: OJICUG_clean_linker_0, # of connection points: 2
#     Edge 30, Type (0, 0), BuildingBlock: OJICUG_clean_linker_0, # of connection points: 2
#     Edge 31, Type (0, 0), BuildingBlock: OJICUG_clean_linker_0, # of connection points: 2
#     Edge 32, Type (0, 0), BuildingBlock: OJICUG_clean_linker_0, # of connection points: 2
#     Edge 33, Type (0, 0), BuildingBlock: OJICUG_clean_linker_0, # of connection points: 2
#     Edge 34, Type (0, 0), BuildingBlock: OJICUG_clean_linker_0, # of connection points: 2
#     Edge 35, Type (0, 0), BuildingBlock: OJICUG_clean_linker_0, # of connection points: 2
#     Edge 36, Type (0, 0), BuildingBlock: OJICUG_clean_linker_0, # of connection points: 2
#     Edge 37, Type (0, 0), BuildingBlock: OJICUG_clean_linker_0, # of connection points: 2
#     Edge 38, Type (0, 0), BuildingBlock: OJICUG_clean_linker_0, # of connection points: 2
#     Edge 39, Type (0, 0), BuildingBlock: OJICUG_clean_linker_0, # of connection points: 2
#     Edge 40, Type (0, 0), BuildingBlock: OJICUG_clean_linker_0, # of connection points: 2
#     Edge 41, Type (0, 0), BuildingBlock: OJICUG_clean_linker_0, # of connection points: 2
#     Edge 42, Type (0, 0), BuildingBlock: OJICUG_clean_linker_0, # of connection points: 2
#     Edge 43, Type (0, 0), BuildingBlock: OJICUG_clean_linker_0, # of connection points: 2
#     Edge 44, Type (0, 0), BuildingBlock: OJICUG_clean_linker_0, # of connection points: 2
#     Edge 45, Type (0, 0), BuildingBlock: OJICUG_clean_linker_0, # of connection points: 2
#     Edge 46, Type (0, 0), BuildingBlock: OJICUG_clean_linker_0, # of connection points: 2
#     Edge 47, Type (0, 0), BuildingBlock: OJICUG_clean_linker_0, # of connection points: 2
# Relax obj value: 0.134
# Max RMSD: 0.286
# Mean RMSD: 0.214
data_MOF--net-wfa--node1-KOZSID_clean_sbu_0--edge1-OJICUG_clean_linker_0
_symmetry_space_group_name_H-M    P1
_symmetry_Int_Tables_number       1
_symmetry_cell_setting            triclinic
loop_
_symmetry_equiv_pos_as_xyz
'x, y, z'
_cell_length_a     44.870889
_cell_length_b     47.231955
_cell_length_c     19.387313
_cell_angle_alpha  88.332557
_cell_angle_beta   88.400285
_cell_angle_gamma 89.306397
loop_
_atom_site_label
_atom_site_type_symbol
_atom_site_fract_x
_atom_site_fract_y
_atom_site_fract_z
_atom_type_partial_charge
C0 C 0.50968 0.03505 0.04126 0.0
C1 C 0.49835 0.06167 0.02366 0.0
C2 C 0.51859 0.08088 0.04382 0.0
C3 C 0.5412 0.06498 0.07192 0.0
N4 N 0.53719 0.03676 0.06908 0.0
Co5 Co 0.56383 1.00667 0.1108 0.0
N6 N 0.59456 0.035 0.13583 0.0
C7 C 0.59174 0.06341 0.12982 0.0
C8 C 0.61622 0.07765 0.15058 0.0
C9 C 0.63577 0.05703 0.17205 0.0
C10 C 0.62197 0.03128 0.16346 0.0
N11 N 0.58977 0.97675 0.15472 0.0
C12 C 0.6171 0.97834 0.18308 0.0
C13 C 0.62644 0.95211 0.20922 0.0
C14 C 0.60442 0.93342 0.19685 0.0
C15 C 0.58284 0.9492 0.16447 0.0
N16 N 0.53334 0.97834 0.08379 0.0
C17 C 0.53421 0.95032 0.099 0.0
C18 C 0.51019 0.93593 0.07656 0.0
C19 C 0.4924 0.95609 0.04641 0.0
C20 C 0.50665 0.98184 0.05202 0.0
N21 N 0.58595 1.00227 0.02151 0.0
C22 C 0.63017 0.99911 0.9153 0.0
C23 C 0.61877 0.97445 0.94786 0.0
C24 C 0.59672 0.97649 1.0008 0.0
C25 C 0.61711 0.02499 0.93288 0.0
C26 C 0.59491 0.02605 0.9848 0.0
N27 N 0.54275 1.01214 0.20035 0.0
C28 C 0.49833 0.03431 0.24627 0.0
C29 C 0.51593 0.05146 0.28534 0.0
C30 C 0.54585 0.04401 0.29346 0.0
C31 C 0.5584 0.02277 0.25307 0.0
C32 C 0.51229 1.01423 0.2044 0.0
H33 H 0.58173 0.01818 0.25803 0.0
H34 H 0.49857 1.00277 0.17105 0.0
H35 H 0.58954 0.95724 0.0267 0.0
H36 H 0.5864 0.04657 0.99722 0.0
C37 C 0.56644 0.07588 0.10145 0.0
C38 C 0.49172 1.00932 0.03827 0.0
C39 C 0.63421 1.0043 0.19035 0.0
C40 C 0.55705 0.93844 0.13765 0.0
H41 H 0.47697 0.06666 1.00153 0.0
H42 H 0.51668 0.10374 0.04017 0.0
H43 H 0.61946 0.10033 0.15027 0.0
H44 H 0.65736 0.06054 0.19362 0.0
H45 H 0.64696 0.94696 0.235 0.0
H46 H 0.60431 0.91092 0.20927 0.0
H47 H 0.50555 0.91358 0.08385 0.0
H48 H 0.47068 0.95224 0.02624 0.0
H49 H 0.62786 0.95385 0.93508 0.0
H50 H 0.62456 0.04455 0.90777 0.0
H51 H 0.47465 0.03845 0.24278 0.0
H52 H 0.56004 0.05627 0.32531 0.0
C53 C 0.56503 0.67449 0.06846 0.0
C54 C 0.5936 0.66457 0.08156 0.0
C55 C 0.61222 0.67785 0.03435 0.0
C56 C 0.59401 0.69489 0.99503 0.0
N57 N 0.565 0.69399 0.01571 0.0
Co58 Co 0.53025 0.71178 0.96702 0.0
N59 N 0.55642 0.72615 0.8881 0.0
C60 C 0.58621 0.72212 0.88069 0.0
C61 C 0.59859 0.73618 0.82427 0.0
C62 C 0.57548 0.75061 0.7946 0.0
C63 C 0.55014 0.74445 0.83463 0.0
N64 N 0.49552 0.72961 0.918 0.0
C65 C 0.49494 0.74751 0.86171 0.0
C66 C 0.46611 0.75617 0.84702 0.0
C67 C 0.44788 0.74412 0.89688 0.0
C68 C 0.46651 0.72871 0.93889 0.0
N69 N 0.50397 0.69776 0.04525 0.0
C70 C 0.47437 0.70244 0.05416 0.0
C71 C 0.46222 0.68852 0.1111 0.0
C72 C 0.48529 0.6733 0.13874 0.0
C73 C 0.51016 0.67876 0.09652 0.0
N74 N 0.53633 0.748 0.01643 0.0
C75 C 0.54567 0.79395 0.105 0.0
C76 C 0.5169 0.78519 0.09006 0.0
C77 C 0.51279 0.76248 0.0461 0.0
C78 C 0.56954 0.78037 0.07101 0.0
C79 C 0.56441 0.75799 0.02678 0.0
N80 N 0.5244 0.67455 0.92154 0.0
C81 C 0.49384 0.6324 0.91782 0.0
C82 C 0.5191 0.6149 0.91037 0.0
C83 C 0.54663 0.62823 0.90059 0.0
C84 C 0.54859 0.6579 0.90385 0.0
C85 C 0.49694 0.66193 0.92315 0.0
H86 H 0.57024 0.66678 0.8962 0.0
H87 H 0.47701 0.67395 0.93282 0.0
H88 H 0.49031 0.7566 0.03828 0.0
H89 H 0.58363 0.74876 1.00256 0.0
C90 C 0.60242 0.70785 0.93182 0.0
C91 C 0.53813 0.6629 0.10176 0.0
C92 C 0.5211 0.7581 0.82278 0.0
C93 C 0.45803 0.71629 1.00268 0.0
H94 H 0.6002 0.64829 0.11858 0.0
H95 H 0.63585 0.67385 0.02627 0.0
H96 H 0.62192 0.73705 0.80863 0.0
H97 H 0.57737 0.76493 0.75019 0.0
H98 H 0.45914 0.77056 0.80592 0.0
H99 H 0.42408 0.74738 0.90372 0.0
H100 H 0.439 0.68793 0.12775 0.0
H101 H 0.48368 0.65853 0.18241 0.0
H102 H 0.49754 0.795 0.11442 0.0
H103 H 0.59225 0.78679 0.07895 0.0
H104 H 0.4719 0.62319 0.92388 0.0
H105 H 0.56673 0.61574 0.89203 0.0
C106 C 1.01207 0.50549 0.9384 0.0
C107 C 0.01776 0.48192 0.89845 0.0
C108 C 0.99069 0.46972 0.88687 0.0
C109 C 0.96969 0.48596 0.92068 0.0
N110 N 0.98207 0.50783 0.95164 0.0
Co111 Co 0.96122 0.53322 0.01716 0.0
N112 N 0.92895 0.50592 0.03826 0.0
C113 C 0.92172 0.48471 0.99719 0.0
C114 C 0.8969 0.47037 0.02128 0.0
C115 C 0.88777 0.4838 0.08037 0.0
C116 C 0.9076 0.50566 0.0892 0.0
N117 N 0.94214 0.55894 0.08465 0.0
C118 C 0.92094 0.55369 0.13447 0.0
C119 C 0.91367 0.57828 0.16915 0.0
C120 C 0.93038 0.5996 0.13864 0.0
C121 C 0.947 0.58696 0.08733 0.0
N122 N 0.99329 0.56033 0.99443 0.0
C123 C 0.99194 0.58846 1.00273 0.0
C124 C 0.01867 0.60128 0.98626 0.0
C125 C 0.03792 0.57971 0.96804 0.0
C126 C 0.02191 0.55483 0.97444 0.0
N127 N 0.93569 0.5494 0.94297 0.0
C128 C 0.89138 0.55489 0.84189 0.0
C129 C 0.88474 0.55947 0.91146 0.0
C130 C 0.90677 0.55656 0.9604 0.0
C131 C 0.92165 0.55062 0.82281 0.0
C132 C 0.94351 0.5482 0.87415 0.0
N133 N 0.98496 0.51592 0.09036 0.0
C134 C 0.01714 0.51795 0.18757 0.0
C135 C 0.01972 0.48832 0.18927 0.0
C136 C 1.0043 0.47298 0.14173 0.0
C137 C 0.9869 0.48703 0.09369 0.0
C138 C 0.99979 0.53147 0.13675 0.0
H139 H 0.97513 0.47428 0.05868 0.0
H140 H 0.99831 0.55431 0.13482 0.0
H141 H 0.89918 0.55791 0.013 0.0
H142 H 0.96629 0.54356 0.85838 0.0
C143 C 0.94101 0.47686 0.94214 0.0
C144 C 0.03433 0.52616 0.96292 0.0
C145 C 0.90387 0.52726 0.14224 0.0
C146 C 0.96943 0.59986 0.04572 0.0
H147 H 0.03875 0.47313 0.88109 0.0
H148 H 0.9872 0.44978 0.86234 0.0
H149 H 0.8869 0.45207 0.9993 0.0
H150 H 0.86839 0.4785 0.11244 0.0
H151 H 0.89716 0.58081 0.21034 0.0
H152 H 0.93051 0.62162 0.1526 0.0
H153 H 0.0244 0.62317 0.99343 0.0
H154 H 0.06138 0.58185 0.95563 0.0
H155 H 0.8621 0.56402 0.92905 0.0
H156 H 0.92822 0.5476 0.76933 0.0
H157 H 0.02843 0.5304 0.22468 0.0
H158 H 1.00508 0.45001 0.14274 0.0
C159 C 0.96759 0.8821 0.13242 0.0
C160 C 0.93998 0.89153 0.15692 0.0
C161 C 0.91931 0.8816 0.11348 0.0
C162 C 0.93542 0.86685 0.06499 0.0
N163 N 0.96504 0.86616 0.0759 0.0
Co164 Co 0.99696 0.85001 0.01365 0.0
N165 N 0.96719 0.83839 0.94464 0.0
C166 C 0.93755 0.84387 0.94686 0.0
C167 C 0.92236 0.83065 0.89671 0.0
C168 C 0.94337 0.81506 0.86174 0.0
C169 C 0.97033 0.81972 0.89249 0.0
N170 N 0.02869 0.8334 0.95123 0.0
C171 C 0.02601 0.81528 0.89849 0.0
C172 C 0.0536 0.80665 0.87233 0.0
C173 C 0.07448 0.8188 0.91161 0.0
C174 C 0.05852 0.83418 0.95923 0.0
N175 N 0.02699 0.86092 0.082 0.0
C176 C 0.05682 0.85664 0.07769 0.0
C177 C 0.07169 0.86731 0.13186 0.0
C178 C 0.0501 0.87985 0.17202 0.0
C179 C 0.0233 0.8762 0.13954 0.0
N180 N 0.99263 0.81251 0.06261 0.0
C181 C 0.98698 0.76676 0.15907 0.0
C182 C 0.01497 0.77557 0.13392 0.0
C183 C 0.01726 0.79799 0.08539 0.0
C184 C 0.96179 0.77945 0.12984 0.0
C185 C 0.9651 0.8021 0.08174 0.0
N186 N 1.00132 0.88894 0.96888 0.0
C187 C 0.03225 0.93096 0.9629 0.0
C188 C 1.00728 0.94912 0.96688 0.0
C189 C 0.97935 0.9364 0.9618 0.0
C190 C 0.97697 0.9066 0.96139 0.0
C191 C 0.02881 0.90135 0.96277 0.0
H192 H 0.955 0.89828 0.95936 0.0
H193 H 0.04878 0.88888 0.96189 0.0
H194 H 0.03924 0.80395 0.06906 0.0
H195 H 0.94512 0.81161 0.06272 0.0
C196 C 0.92406 0.85669 1.00409 0.0
C197 C 0.99585 0.89102 0.15952 0.0
C198 C 0.99788 0.80421 0.87469 0.0
C199 C 0.07033 0.84479 0.0192 0.0
H200 H 0.93529 0.90523 0.19968 0.0
H201 H 0.89558 0.88605 0.11473 0.0
H202 H 0.8985 0.83054 0.88988 0.0
H203 H 0.93901 0.80072 0.82082 0.0
H204 H 0.05806 0.79196 0.83138 0.0
H205 H 0.09833 0.81508 0.90909 0.0
H206 H 0.0955 0.86724 0.13942 0.0
H207 H 0.05379 0.89176 0.21783 0.0
H208 H 0.03515 0.76575 0.15326 0.0
H209 H 0.93961 0.77305 0.14678 0.0
H210 H 0.05457 0.93944 0.96235 0.0
H211 H 0.95915 0.94916 0.96199 0.0
C212 C 1.00851 1.00149 0.57236 0.0
C213 C 0.99706 0.97539 0.59326 0.0
C214 C 0.01855 0.95564 0.57835 0.0
C215 C 0.04191 0.97075 0.54964 0.0
N216 N 0.03715 0.99903 0.54737 0.0
Co217 Co 0.06481 0.02803 0.50346 0.0
N218 N 0.09664 0.99898 0.48326 0.0
C219 C 0.09457 0.97084 0.49559 0.0
C220 C 0.1201 0.95607 0.47852 0.0
C221 C 0.13959 0.97603 0.45304 0.0
C222 C 0.12474 1.00192 0.45575 0.0
N223 N 0.09151 0.05686 0.45646 0.0
C224 C 0.11949 0.05441 0.42816 0.0
C225 C 0.12903 0.08002 0.3987 0.0
C226 C 0.10648 0.09919 0.409 0.0
C227 C 0.08443 0.08429 0.44352 0.0
N228 N 0.03314 0.05715 0.52644 0.0
C229 C 0.03456 0.08505 0.51042 0.0
C230 C 1.00982 0.10014 0.53111 0.0
C231 C 0.99097 0.08058 0.56073 0.0
C232 C 1.00532 0.05444 0.55655 0.0
N233 N 0.08452 0.03407 0.59296 0.0
C234 C 0.12775 0.03696 0.69647 0.0
C235 C 0.12035 0.06083 0.65545 0.0
C236 C 0.09827 0.05914 0.60551 0.0
C237 C 0.11101 1.0125 0.6889 0.0
C238 C 0.08978 1.01147 0.63724 0.0
N239 N 0.0467 0.02107 0.41364 0.0
C240 C 1.0039 1.00456 0.35497 0.0
C241 C 0.0225 0.9906 0.30783 0.0
C242 C 0.053 0.99634 0.30731 0.0
C243 C 0.06447 1.01215 0.35985 0.0
C244 C 0.01648 0.02024 0.40652 0.0
H245 H 0.08801 1.01521 0.35901 0.0
H246 H 1.00155 0.03038 0.44165 0.0
H247 H 0.09363 0.07795 0.57519 0.0
H248 H 0.07912 0.99159 0.63143 0.0
C249 C 0.06864 0.95913 0.52469 0.0
C250 C 0.98991 0.0273 0.56973 0.0
C251 C 0.13693 0.02801 0.42358 0.0
C252 C 0.05817 0.09596 0.47046 0.0
H253 H 0.9749 0.97106 0.6142 0.0
H254 H 0.01704 0.9329 0.58587 0.0
H255 H 0.12401 0.93345 0.4836 0.0
H256 H 0.1619 0.97196 0.43274 0.0
H257 H 0.15 0.08451 0.37205 0.0
H258 H 0.10637 0.12145 0.39403 0.0
H259 H 1.00536 0.12253 0.5225 0.0
H260 H 0.96861 0.08517 0.57942 0.0
H261 H 0.13197 0.08057 0.66089 0.0
H262 H 0.11553 0.99357 0.71994 0.0
H263 H 0.97994 1.00224 0.35399 0.0
H264 H 0.06827 0.98691 0.27006 0.0
C265 C 0.46375 0.17674 0.39071 0.0
C266 C 0.43639 0.16753 0.36918 0.0
C267 C 0.41536 0.17819 0.41399 0.0
C268 C 0.43107 0.19332 0.45984 0.0
N269 N 0.46072 0.19369 0.44563 0.0
Co270 Co 0.49215 0.21103 0.50163 0.0
N271 N 0.46207 0.2233 0.57384 0.0
C272 C 0.43257 0.2177 0.57587 0.0
C273 C 0.41709 0.23102 0.62786 0.0
C274 C 0.43773 0.24674 0.65972 0.0
C275 C 0.46478 0.24205 0.62536 0.0
N276 N 0.52342 0.22884 0.55798 0.0
C277 C 0.5203 0.24709 0.6108 0.0
C278 C 0.54767 0.25641 0.63198 0.0
C279 C 0.56879 0.24453 0.58943 0.0
C280 C 0.55317 0.2286 0.54504 0.0
N281 N 0.52236 0.19909 0.42984 0.0
C282 C 0.552 0.20401 0.42942 0.0
C283 C 0.56753 0.1911 0.37715 0.0
C284 C 0.54676 0.17631 0.34348 0.0
C285 C 0.51946 0.18116 0.3771 0.0
N286 N 0.48641 0.24791 0.45014 0.0
C287 C 0.47838 0.29473 0.35703 0.0
C288 C 0.50687 0.28575 0.37652 0.0
C289 C 0.51033 0.26269 0.42297 0.0
C290 C 0.45397 0.28101 0.38924 0.0
C291 C 0.45845 0.25806 0.43558 0.0
N292 N 0.49796 0.17294 0.54928 0.0
C293 C 0.53005 0.13112 0.55204 0.0
C294 C 0.50553 0.11288 0.55476 0.0
C295 C 0.47741 0.12563 0.56593 0.0
C296 C 0.4742 0.15543 0.56353 0.0
C297 C 0.52582 0.1607 0.55115 0.0
H298 H 0.45203 0.16381 0.56846 0.0
H299 H 0.54543 0.17326 0.54715 0.0
H300 H 0.53264 0.25669 0.43461 0.0
H301 H 0.43892 0.24842 0.45782 0.0
C302 C 0.41938 0.20417 0.52139 0.0
C303 C 0.49209 0.16584 0.36355 0.0
C304 C 0.49191 0.25762 0.63942 0.0
C305 C 0.56509 0.21724 0.4844 0.0
H306 H 0.43238 0.15318 0.32798 0.0
H307 H 0.3917 0.1739 0.41558 0.0
H308 H 0.39326 0.23096 0.63818 0.0
H309 H 0.43306 0.26112 0.70117 0.0
H310 H 0.55179 0.2713 0.67196 0.0
H311 H 0.59249 0.24856 0.58806 0.0
H312 H 0.59141 0.19086 0.36753 0.0
H313 H 0.55192 0.16249 0.3014 0.0
H314 H 0.52663 0.2956 0.35383 0.0
H315 H 0.43139 0.28764 0.37805 0.0
H316 H 0.55256 0.12269 0.54811 0.0
H317 H 0.45756 0.11286 0.57091 0.0
C318 C 0.5107 0.53409 0.51727 0.0
C319 C 0.51575 0.55489 0.56432 0.0
C320 C 0.48823 0.5665 0.58148 0.0
C321 C 0.46787 0.55218 0.54404 0.0
N322 N 0.48103 0.53222 0.5053 0.0
Co323 Co 0.46113 0.50885 0.43716 0.0
N324 N 0.42643 0.53508 0.43044 0.0
C325 C 0.41861 0.55422 0.47811 0.0
C326 C 0.39231 0.56804 0.46335 0.0
C327 C 0.38287 0.55653 0.40346 0.0
C328 C 0.40394 0.53621 0.3848 0.0
N329 N 0.44271 0.48544 0.36661 0.0
C330 C 0.42021 0.4917 0.32312 0.0
C331 C 0.41432 0.46866 0.28277 0.0
C332 C 0.43338 0.44725 0.30269 0.0
C333 C 0.44985 0.45826 0.3539 0.0
N334 N 0.49556 0.4824 0.44549 0.0
C335 C 0.49632 0.45514 0.4274 0.0
C336 C 0.52393 0.44275 0.43562 0.0
C337 C 0.54164 0.46366 0.45945 0.0
C338 C 0.52376 0.4877 0.46459 0.0
N339 N 0.43838 0.48839 0.5123 0.0
C340 C 0.39569 0.48253 0.62154 0.0
C341 C 0.38828 0.47777 0.55329 0.0
C342 C 0.40966 0.48074 0.50007 0.0
C343 C 0.42608 0.48614 0.63494 0.0
C344 C 0.44717 0.4885 0.57954 0.0
N345 N 0.48223 0.53066 0.36421 0.0
C346 C 0.51263 0.5354 0.26001 0.0
C347 C 0.51283 0.56491 0.2668 0.0
C348 C 0.49713 0.57674 0.32198 0.0
C349 C 0.48183 0.55946 0.36913 0.0
C350 C 0.49737 0.51848 0.3102 0.0
H351 H 0.46976 0.5697 0.41009 0.0
H352 H 0.49773 0.49575 0.30551 0.0
H353 H 0.40159 0.47955 0.44876 0.0
H354 H 0.47004 0.49283 0.59116 0.0
C355 C 0.43835 0.56087 0.53071 0.0
C356 C 0.53392 0.51537 0.48681 0.0
C357 C 0.40091 0.5171 0.32648 0.0
C358 C 0.47409 0.44488 0.38581 0.0
H359 H 0.53705 0.56125 0.58322 0.0
H360 H 0.48393 0.58448 0.61379 0.0
H361 H 0.38153 0.58483 0.49193 0.0
H362 H 0.36258 0.56212 0.37715 0.0
H363 H 0.39726 0.46709 0.24474 0.0
H364 H 0.43517 0.42625 0.28187 0.0
H365 H 0.53105 0.42179 0.42056 0.0
H366 H 0.56516 0.46163 0.46952 0.0
H367 H 0.36551 0.47345 0.54014 0.0
H368 H 0.43327 0.48903 0.6871 0.0
H369 H 0.52422 0.52562 0.21697 0.0
H370 H 0.4961 0.59949 0.32793 0.0
C371 C 0.07548 0.38769 0.40557 0.0
C372 C 0.10409 0.3975 0.39169 0.0
C373 C 0.12194 0.38468 0.43955 0.0
C374 C 0.10324 0.36798 0.47988 0.0
N375 N 0.07469 0.36874 0.45944 0.0
Co376 Co 0.03942 0.3506 0.50817 0.0
N377 N 0.06409 0.33667 0.58693 0.0
C378 C 0.09323 0.34203 0.5956 0.0
C379 C 0.10314 0.33369 0.65925 0.0
C380 C 0.07915 0.32134 0.69225 0.0
C381 C 0.05616 0.32171 0.6456 0.0
N382 N 1.00423 0.33217 0.55786 0.0
C383 C 1.00351 0.31224 0.61065 0.0
C384 C 0.97551 0.29989 0.61662 0.0
C385 C 0.9578 0.31339 0.57001 0.0
C386 C 0.97586 0.33243 0.53556 0.0
N387 N 1.01456 0.36446 0.42998 0.0
C388 C 0.98534 0.3597 0.42144 0.0
C389 C 0.97401 0.37324 0.36423 0.0
C390 C 0.99729 0.38826 0.33573 0.0
C391 C 0.0214 0.38309 0.37785 0.0
N392 N 0.04786 0.31453 0.4577 0.0
C393 C 0.05957 0.26999 0.36386 0.0
C394 C 0.03045 0.27786 0.38336 0.0
C395 C 0.02518 0.29981 0.42958 0.0
C396 C 0.08278 0.28379 0.39583 0.0
C397 C 0.07648 0.30539 0.44312 0.0
N398 N 0.03127 0.38777 0.55418 0.0
C399 C 1.00013 0.43036 0.55829 0.0
C400 C 0.02466 0.44719 0.572 0.0
C401 C 0.05179 0.43329 0.58343 0.0
C402 C 0.05442 0.4038 0.57583 0.0
C403 C 1.00382 0.40088 0.55037 0.0
H404 H 0.07594 0.39475 0.58399 0.0
H405 H 0.98452 0.38928 0.53749 0.0
H406 H 1.00241 0.30492 0.4401 0.0
H407 H 0.09512 0.31478 0.46638 0.0
C408 C 0.11048 0.3556 0.54367 0.0
C409 C 0.04917 0.39871 0.3712 0.0
C410 C 0.02887 0.30456 0.65549 0.0
C411 C 0.96856 0.3454 0.47254 0.0
H412 H 0.11108 0.41334 0.35341 0.0
H413 H 0.1453 0.38872 0.44719 0.0
H414 H 0.12521 0.33617 0.67924 0.0
H415 H 0.07909 0.31198 0.74384 0.0
H416 H 0.96842 0.28168 0.64711 0.0
H417 H 0.93521 0.30792 0.55795 0.0
H418 H 0.95118 0.37349 0.34757 0.0
H419 H 0.99626 0.40261 0.29125 0.0
H420 H 1.01154 0.2679 0.36087 0.0
H421 H 0.10578 0.27803 0.38433 0.0
H422 H 0.97843 0.44007 0.5507 0.0
H423 H 0.07123 0.44526 0.59615 0.0
C424 C 0.3462 0.049 0.05233 0.0
C425 C 0.35927 0.07429 0.06918 0.0
C426 C 0.33801 0.09515 0.0606 0.0
C427 C 0.31327 0.08167 0.03829 0.0
N428 N 0.31763 0.05362 0.03287 0.0
Co429 Co 0.28893 0.02668 0.99537 0.0
N430 N 0.26632 0.05742 0.94692 0.0
C431 C 0.26794 0.08515 0.96061 0.0
C432 C 0.24871 0.10172 0.92278 0.0
C433 C 0.23367 0.08327 0.8835 0.0
C434 C 0.24463 0.05627 0.89933 0.0
N435 N 0.25991 0.99949 0.95973 0.0
C436 C 0.23888 1.00293 0.9108 0.0
C437 C 0.22363 0.97784 0.90312 0.0
C438 C 0.23457 0.95862 0.95066 0.0
C439 C 0.25615 0.97272 0.98426 0.0
N440 N 0.31214 0.99629 0.04271 0.0
C441 C 0.30269 0.96999 0.0587 0.0
C442 C 0.32471 0.95315 0.08691 0.0
C443 C 0.34952 0.96997 0.08809 0.0
C444 C 0.34125 0.99615 0.06026 0.0
N445 N 0.2629 0.03073 0.0782 0.0
C446 C 0.22445 0.02978 0.19583 0.0
C447 C 0.25555 0.02815 0.20226 0.0
C448 C 0.27434 0.0287 0.14295 0.0
C449 C 0.21332 0.03322 0.12922 0.0
C450 C 0.23273 0.03363 0.07163 0.0
N451 N 0.31519 0.0219 0.91392 0.0
C452 C 0.34581 0.98859 0.85212 0.0
C453 C 0.36725 1.0094 0.83747 0.0
C454 C 0.35985 0.03751 0.85318 0.0
C455 C 0.33325 0.04339 0.89007 0.0
C456 C 0.3202 0.99517 0.89073 0.0
H457 H 0.32876 0.06491 0.90475 0.0
H458 H 0.30603 0.97791 0.90695 0.0
H459 H 0.2981 0.02672 0.14939 0.0
H460 H 0.22302 0.03557 0.02164 0.0
C461 C 0.28939 0.09499 0.00501 0.0
C462 C 0.36097 0.02088 0.05396 0.0
C463 C 0.23089 0.03012 0.8757 0.0
C464 C 0.27607 0.96046 0.03153 0.0
H465 H 0.38194 0.07783 0.08365 0.0
H466 H 0.34113 0.11773 0.06456 0.0
H467 H 0.24591 0.1245 0.92362 0.0
H468 H 0.21583 0.08903 0.84922 0.0
H469 H 0.20611 0.97381 0.8676 0.0
H470 H 0.22809 0.93673 0.95843 0.0
H471 H 0.32351 0.93082 0.10081 0.0
H472 H 0.37126 0.96366 0.10634 0.0
H473 H 0.26533 0.02556 0.25251 0.0
H474 H 0.1896 0.0354 0.12125 0.0
H475 H 0.34958 0.96682 0.8378 0.0
H476 H 0.37527 0.05455 0.84152 0.0
C477 C 0.47465 0.48037 0.93919 0.0
C478 C 0.44888 0.49644 0.94941 0.0
C479 C 0.42539 0.47941 0.93499 0.0
C480 C 0.43803 0.45386 0.91765 0.0
N481 N 0.46793 0.45372 0.92078 0.0
Co482 Co 0.49441 0.42046 0.90434 0.0
N483 N 0.4637 0.40101 0.85149 0.0
C484 C 0.43453 0.40801 0.8509 0.0
C485 C 0.41838 0.39082 0.81034 0.0
C486 C 0.43858 0.37155 0.78445 0.0
C487 C 0.46605 0.37803 0.81081 0.0
N488 N 0.52008 0.38613 0.89278 0.0
C489 C 0.51706 0.36343 0.85206 0.0
C490 C 0.54001 0.34393 0.86248 0.0
C491 C 0.55771 0.3547 0.91177 0.0
C492 C 0.54472 0.38013 0.92872 0.0
N493 N 0.52538 0.44111 0.95386 0.0
C494 C 0.55062 0.42959 0.97845 0.0
C495 C 0.57022 0.44961 0.99867 0.0
C496 C 0.55648 0.47529 0.98598 0.0
C497 C 0.52871 0.46968 0.95991 0.0
N498 N 0.4793 0.40267 0.99176 0.0
C499 C 0.47076 0.37252 0.11853 0.0
C500 C 0.47732 0.40158 0.11665 0.0
C501 C 0.48116 0.41629 0.0529 0.0
C502 C 0.46662 0.35958 0.0554 0.0
C503 C 0.47089 0.37488 0.99319 0.0
N504 N 0.51108 0.43817 0.81813 0.0
C505 C 0.55935 0.45023 0.77103 0.0
C506 C 0.55028 0.47846 0.76348 0.0
C507 C 0.51968 0.48458 0.7669 0.0
C508 C 0.50008 0.46356 0.79304 0.0
C509 C 0.53932 0.4303 0.79721 0.0
H510 H 0.4768 0.46908 0.79986 0.0
H511 H 0.54847 0.40961 0.80725 0.0
H512 H 0.48698 0.4384 0.05317 0.0
H513 H 0.4691 0.36349 0.9463 0.0
C514 C 0.42369 0.43198 0.88493 0.0
C515 C 0.50516 0.49127 0.944 0.0
C516 C 0.49264 0.35957 0.80406 0.0
C517 C 0.55767 0.40105 0.96757 0.0
H518 H 0.4473 0.5184 0.96365 0.0
H519 H 0.40207 0.4855 0.93336 0.0
H520 H 0.39477 0.39218 0.80055 0.0
H521 H 0.43349 0.35409 0.75197 0.0
H522 H 0.5438 0.32415 0.83665 0.0
H523 H 0.57833 0.34566 0.93057 0.0
H524 H 0.59277 0.44612 0.01576 0.0
H525 H 0.56667 0.49549 0.99319 0.0
H526 H 0.4801 0.41275 0.16399 0.0
H527 H 0.46176 0.33722 0.05352 0.0
H528 H 0.58248 0.44401 0.76278 0.0
H529 H 0.51142 0.50573 0.75511 0.0
C530 C 0.17879 0.48317 0.00777 0.0
C531 C 0.16433 0.45918 0.03339 0.0
C532 C 0.18472 0.43727 0.0297 0.0
C533 C 0.21049 0.44907 1.00235 0.0
N534 N 0.20762 0.47708 0.98966 0.0
Co535 Co 0.23842 0.502 0.94547 0.0
N536 N 0.26009 0.46958 0.90337 0.0
C537 C 0.25642 0.44216 0.92229 0.0
C538 C 0.27446 0.42422 0.88491 0.0
C539 C 0.29084 0.44146 0.84049 0.0
C540 C 0.28205 0.46913 0.8536 0.0
N541 N 0.26944 0.52722 0.90355 0.0
C542 C 0.29143 0.52197 0.85589 0.0
C543 C 0.30956 0.54544 0.84596 0.0
C544 C 0.29862 0.56583 0.88931 0.0
C545 C 0.27454 0.55376 0.92357 0.0
N546 N 0.21529 0.53395 0.98589 0.0
C547 C 0.2256 0.56015 0.99461 0.0
C548 C 0.20343 0.57862 0.01546 0.0
C549 C 0.17764 0.56306 0.01955 0.0
C550 C 0.18543 0.53571 1.00145 0.0
N551 N 0.26355 0.49847 0.02811 0.0
C552 C 0.3044 0.5059 0.13478 0.0
C553 C 0.27352 0.51008 0.14633 0.0
C554 C 0.25346 0.50614 0.0924 0.0
C555 C 0.31371 0.49577 0.07054 0.0
C556 C 0.29329 0.49233 0.01867 0.0
N557 N 0.21436 0.50671 0.86314 0.0
C558 C 0.18649 0.54147 0.79908 0.0
C559 C 0.16324 0.52228 0.79441 0.0
C560 C 0.16927 0.49356 0.80881 0.0
C561 C 0.19533 0.48612 0.84387 0.0
C562 C 0.21188 0.53328 0.8339 0.0
H563 H 0.19821 0.4645 0.86235 0.0
H564 H 0.22719 0.54972 0.84498 0.0
H565 H 0.23004 0.51054 0.10181 0.0
H566 H 0.30237 0.48622 0.96955 0.0
C567 C 0.23394 0.43403 0.97044 0.0
C568 C 0.16465 0.5114 1.00093 0.0
C569 C 0.29757 0.49434 0.82457 0.0
C570 C 0.25376 0.56776 0.96681 0.0
H571 H 0.14126 0.45759 0.05073 0.0
H572 H 0.18043 0.41505 0.04032 0.0
H573 H 0.27539 0.40133 0.88885 0.0
H574 H 0.30789 0.43444 0.80409 0.0
H575 H 0.32901 0.54743 0.81197 0.0
H576 H 0.3069 0.58709 0.89413 0.0
H577 H 0.20528 0.6012 0.022 0.0
H578 H 0.15571 0.57127 0.03265 0.0
H579 H 0.26502 0.51748 0.19549 0.0
H580 H 0.33701 0.49113 0.05928 0.0
H581 H 0.18335 0.56365 0.7848 0.0
H582 H 0.15249 0.47769 0.80174 0.0
C583 C 0.05658 0.0795 0.97235 0.0
C584 C 0.0807 0.06157 0.95861 0.0
C585 C 0.10245 0.07787 0.92729 0.0
C586 C 0.09051 0.10469 0.92268 0.0
N587 N 0.06278 0.10639 0.95053 0.0
Co588 Co 0.03679 0.14079 0.95031 0.0
N589 N 0.06002 0.15907 0.87303 0.0
C590 C 0.08553 0.14881 0.84471 0.0
C591 C 0.09138 0.15967 0.77956 0.0
C592 C 0.0686 0.17844 0.76696 0.0
C593 C 0.05094 0.17941 0.82699 0.0
N594 N 1.01187 0.17592 0.95268 0.0
C595 C 1.01239 0.1997 0.91077 0.0
C596 C 0.9967 0.22154 0.94272 0.0
C597 C 0.9853 0.21079 0.00439 0.0
C598 C 0.99515 0.18324 0.00841 0.0
N599 N 1.01271 0.12117 0.02389 0.0
C600 C 0.99366 0.13366 0.06833 0.0
C601 C 0.97817 0.11418 0.10912 0.0
C602 C 0.98815 0.08792 0.08827 0.0
C603 C 1.00918 0.09281 0.03576 0.0
N604 N 0.06181 0.1582 0.02013 0.0
C605 C 0.07283 0.19111 0.13608 0.0
C606 C 0.06891 0.16164 0.14283 0.0
C607 C 0.06415 0.14551 0.08423 0.0
C608 C 0.07506 0.20282 0.06872 0.0
C609 C 0.06981 0.18603 0.0117 0.0
N610 N 1.01023 0.12404 0.88432 0.0
C611 C 0.9593 0.11398 0.8601 0.0
C612 C 0.96828 0.09249 0.81621 0.0
C613 C 0.99888 0.08778 0.804 0.0
C614 C 0.01963 0.10427 0.83783 0.0
C615 C 0.98036 0.12924 0.89358 0.0
H616 H 0.04309 0.10019 0.82867 0.0
H617 H 0.97195 0.14397 0.93063 0.0
H618 H 0.05964 0.12321 0.09179 0.0
H619 H 0.06929 0.19645 0.96156 0.0
C620 C 0.09974 0.125 0.87338 0.0
C621 C 0.02748 0.07053 1.00209 0.0
C622 C 0.02941 0.20266 0.84363 0.0
C623 C 0.9875 0.16289 0.06059 0.0
H624 H 0.08228 0.03889 0.96628 0.0
H625 H 0.12313 0.07037 0.90382 0.0
H626 H 0.109 0.15338 0.74372 0.0
H627 H 0.0658 0.19029 0.71899 0.0
H628 H 0.9945 0.24338 0.92543 0.0
H629 H 0.9717 0.2219 0.04208 0.0
H630 H 0.96072 0.11844 0.1472 0.0
H631 H 0.98093 0.06757 0.10925 0.0
H632 H 0.06818 0.15124 0.19336 0.0
H633 H 0.07851 0.2253 0.06006 0.0
H634 H 0.93586 0.11816 0.87118 0.0
H635 H 1.00659 0.07146 0.76945 0.0
C636 C 0.84869 0.98444 0.53303 0.0
C637 C 0.86396 0.95952 0.51775 0.0
C638 C 0.84447 0.93774 0.53086 0.0
C639 C 0.81851 0.95027 0.55423 0.0
N640 N 0.82041 0.97863 0.5557 0.0
Co641 Co 0.78907 1.00465 0.5926 0.0
N642 N 0.76908 0.97379 0.64741 0.0
C643 C 0.77394 0.9459 0.63935 0.0
C644 C 0.75768 0.92931 0.68544 0.0
C645 C 0.74113 0.94791 0.72418 0.0
C646 C 0.74787 0.97497 0.6988 0.0
N647 N 0.75714 0.0307 0.62615 0.0
C648 C 0.73578 0.027 0.67656 0.0
C649 C 0.71645 0.05021 0.67789 0.0
C650 C 0.72606 0.06885 0.62661 0.0
C651 C 0.75054 0.05608 0.59636 0.0
N652 N 0.81012 0.03526 0.53999 0.0
C653 C 0.79854 0.06058 0.52137 0.0
C654 C 0.81954 0.07819 0.49056 0.0
C655 C 0.8459 0.06292 0.4905 0.0
C656 C 0.83952 0.03682 0.52146 0.0
N657 N 0.76395 0.99728 0.51298 0.0
C658 C 0.72438 0.99758 0.40208 0.0
C659 C 0.75521 1.00125 0.39038 0.0
C660 C 0.7746 1.00089 0.44642 0.0
C661 C 0.7144 0.99176 0.47007 0.0
C662 C 0.7343 0.99171 0.52416 0.0
N663 N 0.8139 1.01305 0.6714 0.0
C664 C 0.83654 0.05012 0.73332 0.0
C665 C 0.86235 0.03356 0.74221 0.0
C666 C 0.86097 1.0048 0.72583 0.0
C667 C 0.83593 0.99475 0.69263 0.0
C668 C 0.81314 0.03987 0.69619 0.0
H669 H 0.83589 0.97286 0.67836 0.0
H670 H 0.79593 0.05485 0.68274 0.0
H671 H 0.79801 1.00472 0.43617 0.0
H672 H 0.72511 0.98843 0.5755 0.0
C673 C 0.7962 0.93631 0.59336 0.0
C674 C 0.86127 1.01327 0.52887 0.0
C675 C 0.73135 1.00083 0.71893 0.0
C676 C 0.77025 0.06872 0.54714 0.0
H677 H 0.88699 0.95667 0.502 0.0
H678 H 0.84964 0.91531 0.52979 0.0
H679 H 0.7582 0.90645 0.69118 0.0
H680 H 0.72548 0.94204 0.76539 0.0
H681 H 0.69704 0.05316 0.71138 0.0
H682 H 0.71662 0.08948 0.61388 0.0
H683 H 0.81652 0.10008 0.47383 0.0
H684 H 0.86736 0.07014 0.47059 0.0
H685 H 0.76418 1.00555 0.33877 0.0
H686 H 0.69107 0.98781 0.48202 0.0
H687 H 0.8353 0.07186 0.74943 0.0
H688 H 0.87978 0.99062 0.73338 0.0
C689 C 0.55284 0.97896 0.51998 0.0
C690 C 0.57895 0.99394 0.52792 0.0
C691 C 0.6007 0.9744 0.5443 0.0
C692 C 0.58681 0.94865 0.54645 0.0
N693 N 0.55776 0.95086 0.53163 0.0
Co694 Co 0.5289 0.91944 0.53527 0.0
N695 N 0.55385 0.89645 0.59901 0.0
C696 C 0.58312 0.90022 0.60848 0.0
C697 C 0.59497 0.88073 0.65421 0.0
C698 C 0.57177 0.86343 0.6741 0.0
C699 C 0.54689 0.87337 0.63931 0.0
N700 N 0.50046 0.88765 0.53722 0.0
C701 C 0.4983 0.86459 0.58071 0.0
C702 C 0.4757 0.84708 0.56061 0.0
C703 C 0.46384 0.85949 0.50212 0.0
C704 C 0.47971 0.88391 0.48951 0.0
N705 N 0.50402 0.94349 0.47407 0.0
C706 C 0.48239 0.93436 0.43405 0.0
C707 C 0.46757 0.95658 0.40186 0.0
C708 C 0.4807 0.98093 0.42389 0.0
C709 C 0.50276 0.97228 0.46868 0.0
N710 N 0.54881 0.90188 0.45432 0.0
C711 C 0.55762 0.87142 0.33196 0.0
C712 C 0.55386 0.90103 0.32977 0.0
C713 C 0.55037 0.91593 0.39148 0.0
C714 C 0.55954 0.85796 0.39706 0.0
C715 C 0.55499 0.87338 0.45703 0.0
N716 N 0.50742 0.93631 0.61325 0.0
C717 C 0.45961 0.95152 0.65742 0.0
C718 C 0.47302 0.96683 0.70789 0.0
C719 C 0.50417 0.96598 0.71245 0.0
C720 C 0.52115 0.95036 0.66416 0.0
C721 C 0.47699 0.93643 0.6113 0.0
H722 H 0.54517 0.95019 0.66669 0.0
H723 H 0.46546 0.9259 0.57195 0.0
H724 H 0.54673 0.93857 0.38795 0.0
H725 H 0.554 0.8615 0.50517 0.0
C726 C 0.59759 0.92423 0.58055 0.0
C727 C 0.52356 0.9914 0.50231 0.0
C728 C 0.51849 0.85807 0.63837 0.0
C729 C 0.47269 0.90605 0.44163 0.0
H730 H 0.58215 1.01655 0.52511 0.0
H731 H 0.62324 0.97881 0.55897 0.0
H732 H 0.61763 0.8795 0.67189 0.0
H733 H 0.57329 0.84506 0.70855 0.0
H734 H 0.4686 0.82737 0.58531 0.0
H735 H 0.4452 0.85203 0.47373 0.0
H736 H 0.44835 0.95539 0.36964 0.0
H737 H 0.47462 1.00249 0.40933 0.0
H738 H 0.55265 0.91251 0.28083 0.0
H739 H 0.56232 0.83519 0.40196 0.0
H740 H 0.43555 0.95145 0.65312 0.0
H741 H 0.51514 0.97732 0.75214 0.0
C742 C 0.67845 0.56203 0.46473 0.0
C743 C 0.66535 0.58686 0.43939 0.0
C744 C 0.68662 0.60751 0.44065 0.0
C745 C 0.71145 0.59451 0.4675 0.0
N746 N 0.70714 0.56685 0.48219 0.0
Co747 Co 0.73514 0.54125 0.53253 0.0
N748 N 0.75691 0.57322 0.57168 0.0
C749 C 0.7551 0.60037 0.54892 0.0
C750 C 0.77271 0.61809 0.58459 0.0
C751 C 0.78697 0.60094 0.63185 0.0
C752 C 0.7775 0.5735 0.62198 0.0
N753 N 0.76298 0.515 0.5814 0.0
C754 C 0.78363 0.51996 0.62953 0.0
C755 C 0.80015 0.4955 0.64392 0.0
C756 C 0.78975 0.47484 0.6029 0.0
C757 C 0.76759 0.48765 0.56551 0.0
N758 N 0.71273 0.50972 0.49422 0.0
C759 C 0.72265 0.483 0.48746 0.0
C760 C 0.70118 0.46555 0.46327 0.0
C761 C 0.67623 0.48243 0.45513 0.0
C762 C 0.68383 0.50926 0.47519 0.0
N763 N 0.76329 0.54144 0.45224 0.0
C764 C 0.80598 0.53493 0.3439 0.0
C765 C 0.77526 0.53308 0.33194 0.0
C766 C 0.75427 0.5364 0.38684 0.0
C767 C 0.81446 0.54149 0.41034 0.0
C768 C 0.79308 0.54461 0.46306 0.0
N769 N 0.70743 0.54064 0.61217 0.0
C770 C 0.67585 0.51212 0.68698 0.0
C771 C 0.65649 0.5352 0.69721 0.0
C772 C 0.66465 0.56173 0.66936 0.0
C773 C 0.6908 0.56414 0.62847 0.0
C774 C 0.70105 0.51524 0.64422 0.0
H775 H 0.69625 0.5846 0.6058 0.0
H776 H 0.71391 0.4965 0.63265 0.0
H777 H 0.73085 0.5342 0.37688 0.0
H778 H 0.80113 0.54882 0.51321 0.0
C779 C 0.73449 0.6087 0.49893 0.0
C780 C 0.66362 0.53417 0.47336 0.0
C781 C 0.79112 0.54808 0.65515 0.0
C782 C 0.74883 0.47414 0.52007 0.0
H783 H 0.64259 0.59048 0.42468 0.0
H784 H 0.68327 0.62993 0.42989 0.0
H785 H 0.77471 0.64082 0.5777 0.0
H786 H 0.80307 0.60784 0.66811 0.0
H787 H 0.8186 0.49305 0.6784 0.0
H788 H 0.79745 0.45307 0.60071 0.0
H789 H 0.70276 0.44289 0.45683 0.0
H790 H 0.65479 0.47572 0.43772 0.0
H791 H 0.76751 0.52831 0.28123 0.0
H792 H 0.83771 0.54407 0.4221 0.0
H793 H 0.67031 0.49115 0.70718 0.0
H794 H 0.65042 0.58013 0.67685 0.0
C795 C 0.98131 0.58191 0.57742 0.0
C796 C 0.95569 0.56605 0.57229 0.0
C797 C 0.93216 0.58346 0.59024 0.0
C798 C 0.94468 0.60888 0.60546 0.0
N799 N 0.97448 0.60863 0.59666 0.0
Co800 Co 1.00076 0.64149 0.60755 0.0
N801 N 0.97117 0.66065 0.66907 0.0
C802 C 0.94204 0.65422 0.67516 0.0
C803 C 0.92652 0.67135 0.71989 0.0
C804 C 0.94706 0.69 0.74257 0.0
C805 C 0.97412 0.68328 0.71022 0.0
N806 N 0.02631 0.67538 0.61484 0.0
C807 C 0.02426 0.69749 0.65821 0.0
C808 C 0.04649 0.71702 0.64242 0.0
C809 C 0.06257 0.70694 0.58684 0.0
C810 C 0.04942 0.68185 0.57161 0.0
N811 N 0.0305 0.62125 0.54863 0.0
C812 C 0.05428 0.63302 0.51603 0.0
C813 C 0.07304 0.61313 0.48719 0.0
C814 C 0.0602 0.58733 0.50283 0.0
C815 C 0.03393 0.5928 0.53975 0.0
N816 N 0.9834 0.66022 0.52553 0.0
C817 C 0.97616 0.692 0.40235 0.0
C818 C 0.98014 0.66251 0.40126 0.0
C819 C 0.9836 0.64696 0.46358 0.0
C820 C 0.97267 0.70462 0.46652 0.0
C821 C 0.97601 0.6884 0.52719 0.0
N822 N 0.01963 0.62282 0.68755 0.0
C823 C 0.06715 0.6094 0.73284 0.0
C824 C 0.0555 0.58408 0.75954 0.0
C825 C 0.02472 0.57985 0.75718 0.0
C826 C 1.00688 0.60016 0.72258 0.0
C827 C 0.04911 0.62824 0.69709 0.0
H828 H 0.98329 0.59629 0.71976 0.0
H829 H 0.06043 0.6456 0.67185 0.0
H830 H 0.98848 0.62456 0.46126 0.0
H831 H 0.97493 0.69936 0.57506 0.0
C832 C 0.93067 0.63078 0.6419 0.0
C833 C 1.01172 0.57122 0.56341 0.0
C834 C 1.00066 0.70141 0.7118 0.0
C835 C 0.0612 0.66148 0.52657 0.0
H836 H 0.95422 0.54416 0.55788 0.0
H837 H 0.90891 0.57775 0.59459 0.0
H838 H 0.90306 0.67042 0.73433 0.0
H839 H 0.94239 0.7073 0.77679 0.0
H840 H 0.05065 0.73653 0.66825 0.0
H841 H 0.08222 0.71627 0.56231 0.0
H842 H 0.0945 0.61673 0.4618 0.0
H843 H 0.0697 0.56702 0.48966 0.0
H844 H 0.9826 0.65184 0.3527 0.0
H845 H 0.96889 0.72724 0.4698 0.0
H846 H 0.09083 0.61361 0.73434 0.0
H847 H 0.01481 0.56077 0.77952 0.0
C848 C 0.50691 0.13056 0.27385 0.0
C849 C 0.4938 0.13636 0.3384 0.0
H850 H 0.52498 0.09867 0.20788 0.0
C851 C 0.48359 0.11365 0.381 0.0
H852 H 0.51318 0.14761 0.23801 0.0
C853 C 0.48938 0.08563 0.36278 0.0
C854 C 0.50564 0.08016 0.30198 0.0
H855 H 0.47192 0.11761 0.42924 0.0
H856 H 0.48224 0.06838 0.39717 0.0
C857 C 0.51333 0.10267 0.25636 0.0
C858 C 0.54682 0.60494 0.23831 0.0
C859 C 0.52693 0.58461 0.21559 0.0
H860 H 0.56569 0.64608 0.22015 0.0
C861 C 0.51449 0.58832 0.1504 0.0
H862 H 0.55619 0.60272 0.28914 0.0
C863 C 0.51979 0.61319 0.11131 0.0
C864 C 0.53794 0.63442 0.13631 0.0
H865 H 0.49856 0.57329 0.13257 0.0
H866 H 0.50819 0.61667 0.06355 0.0
C867 C 0.55218 0.62974 0.1991 0.0
C868 C 0.02387 0.4712 0.31072 0.0
C869 C 0.03574 0.4721 0.24305 0.0
H870 H 0.01884 0.44639 0.40462 0.0
C871 C 0.05685 0.45146 0.22295 0.0
H872 H 1.00709 0.48652 0.32679 0.0
C873 C 0.06353 0.42858 0.26735 0.0
C874 C 0.04933 0.42623 0.33249 0.0
H875 H 0.0659 0.45157 0.17052 0.0
H876 H 0.07771 0.41158 0.2486 0.0
C877 C 0.03046 0.44824 0.35499 0.0
C878 C 0.01493 0.94019 0.16203 0.0
C879 C 0.9982 0.91843 0.19427 0.0
H880 H 0.03542 0.98052 0.17244 0.0
C881 C 0.98682 0.92188 0.26157 0.0
H882 H 0.02421 0.93755 0.11057 0.0
C883 C 0.99299 0.94646 0.29686 0.0
C884 C 1.01106 0.96767 0.26568 0.0
H885 H 0.97441 0.90507 0.28791 0.0
H886 H 0.98521 0.94802 0.35004 0.0
C887 C 0.02138 0.96457 0.19737 0.0
C888 C 0.41426 0.01837 0.76487 0.0
C889 C 0.39766 1.001 0.81154 0.0
H890 H 0.45255 0.02126 0.69613 0.0
C891 C 0.41023 0.97482 0.83326 0.0
H892 H 0.40537 0.03857 0.74672 0.0
C893 C 0.43759 0.96555 0.80632 0.0
C894 C 0.45289 0.98185 0.75584 0.0
H895 H 0.39861 0.96092 0.87002 0.0
H896 H 0.44554 0.94447 0.82048 0.0
C897 C 0.44153 1.00872 0.73669 0.0
C898 C 0.62412 0.51226 0.78803 0.0
C899 C 0.62656 0.52985 0.72875 0.0
H900 H 0.5973 0.48269 0.84627 0.0
C901 C 0.60076 0.53623 0.69129 0.0
H902 H 0.64345 0.50756 0.81882 0.0
C903 C 0.57424 0.5215 0.7063 0.0
C904 C 0.57353 0.50051 0.75894 0.0
H905 H 0.60193 0.55022 0.64606 0.0
H906 H 0.55547 0.52453 0.67289 0.0
C907 C 0.59778 0.49785 0.80321 0.0
C908 C 0.08328 0.53848 0.74301 0.0
C909 C 0.07705 0.56232 0.78324 0.0
H910 H 0.11603 0.50685 0.71403 0.0
C911 C 0.09748 0.56998 0.83244 0.0
H912 H 0.06807 0.5326 0.70356 0.0
C913 C 0.12464 0.55585 0.83742 0.0
C914 C 0.13233 0.53377 0.79286 0.0
H915 H 0.09369 0.58872 0.86244 0.0
H916 H 0.14031 0.56311 0.87443 0.0
C917 C 0.11083 0.52413 0.74803 0.0
C918 C 0.92201 0.08969 0.75077 0.0
C919 C 0.94473 0.07548 0.78615 0.0
H920 H 0.87919 0.08791 0.70829 0.0
C921 C 0.94129 0.04666 0.80419 0.0
H922 H 0.92422 0.11189 0.73592 0.0
C923 C 0.91461 0.0328 0.79082 0.0
C924 C 0.89104 0.04753 0.75855 0.0
H925 H 0.95856 0.03524 0.83153 0.0
H926 H 0.91225 1.01088 0.80762 0.0
C927 C 0.89571 0.07598 0.73694 0.0
C928 C 0.68088 1.01617 0.87535 0.0
C929 C 0.65637 0.99846 0.8659 0.0
H930 H 0.72382 0.0303 0.83726 0.0
C931 C 0.65689 0.98106 0.80826 0.0
H932 H 0.68119 0.02979 0.91931 0.0
C933 C 0.68109 0.98181 0.76057 0.0
C934 C 0.70576 0.99927 0.77062 0.0
H935 H 0.63822 0.96748 0.79906 0.0
H936 H 0.6804 0.9689 0.71538 0.0
C937 C 0.70532 1.01644 0.82857 0.0
C938 C 0.51976 0.8048 0.65782 0.0
C939 C 0.515 0.832 0.68417 0.0
H940 H 0.52537 0.76017 0.6808 0.0
C941 C 0.51138 0.83453 0.75605 0.0
H942 H 0.52336 0.80225 0.60286 0.0
C943 C 0.51281 0.81053 0.80056 0.0
C944 C 0.5183 0.78345 0.77438 0.0
H945 H 0.50828 0.85524 0.7779 0.0
H946 H 0.51036 0.8132 0.85575 0.0
C947 C 0.52127 0.78079 0.70241 0.0
C948 C 0.83929 0.5398 0.81374 0.0
C949 C 0.86622 0.55302 0.79237 0.0
H950 H 0.79482 0.52835 0.78805 0.0
C951 C 0.86821 0.56467 0.72482 0.0
H952 H 0.83693 0.52996 0.86471 0.0
C953 C 0.84395 0.56332 0.68033 0.0
C954 C 0.81692 0.55061 0.70267 0.0
H955 H 0.88832 0.57526 0.707 0.0
H956 H 0.84631 0.5722 0.62835 0.0
C957 C 0.81506 0.53873 0.76975 0.0
C958 C 0.99209 0.77906 0.76186 0.0
C959 C 0.99771 0.77777 0.83292 0.0
H960 H 0.98856 0.75602 0.6682 0.0
C961 C 1.00438 0.75119 0.86385 0.0
H962 H 0.9872 0.79924 0.73644 0.0
C963 C 1.00518 0.72647 0.82484 0.0
C964 C 0.99973 0.7278 0.75374 0.0
H965 H 1.00899 0.74957 0.91839 0.0
H966 H 1.01028 0.70631 0.8501 0.0
C967 C 0.99301 0.75437 0.7228 0.0
C968 C 0.18197 0.04604 0.71987 0.0
C969 C 0.15368 0.03679 0.74383 0.0
H970 H 0.22844 0.05051 0.74187 0.0
C971 C 0.1509 0.02582 0.81196 0.0
H972 H 0.18499 0.0544 0.66756 0.0
C973 C 0.17569 0.02404 0.85477 0.0
C974 C 0.2042 0.03228 0.82998 0.0
H975 H 0.12944 0.01876 0.83236 0.0
H976 H 0.17259 1.01603 0.90736 0.0
C977 C 0.20691 0.04362 0.76221 0.0
C978 C 0.49634 0.31061 0.65023 0.0
C979 C 0.49098 0.28386 0.68172 0.0
H980 H 0.50077 0.35546 0.66411 0.0
C981 C 0.48595 0.2822 0.75365 0.0
H982 H 0.50046 0.31247 0.59497 0.0
C983 C 0.48627 0.30672 0.79312 0.0
C984 C 0.49175 0.33345 0.76163 0.0
H985 H 0.48206 0.26186 0.77937 0.0
H986 H 0.48242 0.30482 0.84846 0.0
C987 C 0.49654 0.33515 0.68969 0.0
C988 C 0.37392 0.47513 0.74375 0.0
C989 C 0.37123 0.48581 0.67556 0.0
H990 H 0.35273 0.46932 0.84425 0.0
C991 C 0.34443 0.49997 0.65825 0.0
H992 H 0.39415 0.46427 0.75928 0.0
C993 C 0.32082 0.50265 0.70654 0.0
C994 C 0.32317 0.49129 0.77371 0.0
H995 H 0.34168 0.50927 0.60707 0.0
H996 H 0.30057 0.51356 0.69127 0.0
C997 C 0.35013 0.47783 0.79225 0.0
C998 C 0.05432 0.26244 0.71602 0.0
C999 C 0.02845 0.27919 0.70677 0.0
H1000 H 0.07678 0.23109 0.77654 0.0
C1001 C 1.00325 0.27165 0.74846 0.0
H1002 H 0.07448 0.26663 0.68577 0.0
C1003 C 1.00281 0.24634 0.78919 0.0
C1004 C 0.02903 0.23013 0.79946 0.0
H1005 H 0.98364 0.28511 0.75012 0.0
H1006 H 0.98185 0.23982 0.81315 0.0
C1007 C 0.05523 0.24042 0.76598 0.0
C1008 C 0.18846 0.03972 0.37501 0.0
C1009 C 0.16104 0.02607 0.36881 0.0
H1010 H 0.22991 0.05197 0.3253 0.0
C1011 C 0.15554 1.01215 0.30754 0.0
H1012 H 0.19322 0.0506 0.42182 0.0
C1013 C 0.17644 1.01277 0.25261 0.0
C1014 C 0.20344 0.02745 0.25718 0.0
H1015 H 0.13469 1.00132 0.30141 0.0
H1016 H 0.17124 1.00191 0.20609 0.0
C1017 C 0.20946 0.04043 0.31978 0.0
C1018 C 0.4937 0.34001 0.29219 0.0
C1019 C 0.47429 0.31684 0.30065 0.0
H1020 H 0.50774 0.37575 0.22905 0.0
C1021 C 0.45197 0.3139 0.25179 0.0
H1022 H 0.5109 0.34331 0.32911 0.0
C1023 C 0.44997 0.33269 0.19475 0.0
C1024 C 0.47022 0.35508 0.18453 0.0
H1025 H 0.4367 0.29631 0.25588 0.0
H1026 H 0.43288 0.32925 0.15763 0.0
C1027 C 0.49164 0.35889 0.23508 0.0
C1028 C 0.37819 0.52712 0.21139 0.0
C1029 C 0.37439 0.51889 0.28105 0.0
H1030 H 0.35904 0.53043 0.11166 0.0
C1031 C 0.34649 0.50842 0.30417 0.0
H1032 H 0.39952 0.53497 0.1921 0.0
C1033 C 0.32319 0.5053 0.25778 0.0
C1034 C 0.3274 0.51235 0.18709 0.0
H1035 H 0.34318 0.50146 0.35754 0.0
H1036 H 0.30243 0.4961 0.27667 0.0
C1037 C 0.355 0.52412 0.16523 0.0
C1038 C 0.05099 0.20488 0.25258 0.0
C1039 C 0.07188 0.20979 0.19802 0.0
H1040 H 0.03082 0.21953 0.34694 0.0
C1041 C 0.09005 0.23387 0.20113 0.0
H1042 H 0.03631 0.18686 0.25203 0.0
C1043 C 0.08693 0.25269 0.25609 0.0
C1044 C 0.06523 0.2483 0.3092 0.0
H1045 H 0.10651 0.23841 0.16054 0.0
H1046 H 0.10081 0.2713 0.25555 0.0
C1047 C 0.04761 0.22386 0.30693 0.0
C1048 C 0.68664 0.99201 0.22787 0.0
C1049 C 0.65853 1.00438 0.24193 0.0
H1050 H 0.72948 0.97997 0.26706 0.0
C1051 C 0.65278 1.0155 0.30735 0.0
H1052 H 0.69154 0.98319 0.17783 0.0
C1053 C 0.67434 1.01376 0.3582 0.0
C1054 C 0.70231 1.0007 0.34535 0.0
H1055 H 0.63132 0.02513 0.31958 0.0
H1056 H 0.66896 0.02265 0.40794 0.0
C1057 C 0.70834 0.99025 0.27896 0.0
C1058 C 0.57638 0.83041 0.26106 0.0
C1059 C 0.5572 0.85403 0.2683 0.0
H1060 H 0.58789 0.79328 0.20468 0.0
C1061 C 0.53559 0.85897 0.21787 0.0
H1062 H 0.59343 0.82598 0.29847 0.0
C1063 C 0.53225 0.84 0.16399 0.0
C1064 C 0.55074 0.81578 0.15834 0.0
H1065 H 0.5203 0.87682 0.2218 0.0
H1066 H 0.51485 0.8441 0.12727 0.0
C1067 C 0.5733 0.81169 0.20683 0.0
C1068 C 0.8563 0.51578 0.30532 0.0
C1069 C 0.82955 0.5302 0.28894 0.0
H1070 H 0.90058 0.50355 0.27174 0.0
C1071 C 0.82669 0.54154 0.22148 0.0
H1072 H 0.85918 0.50627 0.35624 0.0
C1073 C 0.85046 0.53969 0.173 0.0
C1074 C 0.87749 0.52636 0.19088 0.0
H1075 H 0.80659 0.55288 0.20703 0.0
H1076 H 0.84814 0.54946 0.12215 0.0
C1077 C 0.87999 0.51398 0.25695 0.0
C1078 C 1.00165 0.75074 0.27769 0.0
C1079 C 0.98441 0.74652 0.21952 0.0
H1080 H 1.01236 0.737 0.38027 0.0
C1081 C 0.96445 0.72369 0.2212 0.0
H1082 H 0.01698 0.76827 0.2785 0.0
C1083 C 0.96202 0.70544 0.27978 0.0
C1084 C 0.9789 0.71018 0.33834 0.0
H1085 H 0.95091 0.71987 0.17712 0.0
H1086 H 0.94653 0.68802 0.27991 0.0
C1087 C 0.99881 0.73296 0.33629 0.0
C1088 C 0.4125 0.02914 0.1013 0.0
C1089 C 0.39445 0.01731 0.05179 0.0
H1090 H 0.45682 0.03681 0.13393 0.0
C1091 C 0.40854 1.00191 0.99903 0.0
H1092 H 0.40251 0.04014 0.14451 0.0
C1093 C 0.43986 0.99952 0.9935 0.0
C1094 C 0.45799 1.01184 0.04225 0.0
H1095 H 0.39504 0.99192 0.96189 0.0
H1096 H 0.44992 0.98812 0.951 0.0
C1097 C 0.44374 0.02678 0.09596 0.0
C1098 C 0.49674 0.53831 0.87972 0.0
C1099 C 0.51047 0.52294 0.93412 0.0
H1100 H 0.48821 0.57889 0.82999 0.0
C1101 C 0.5269 0.53858 0.98058 0.0
H1102 H 0.48305 0.52749 0.84399 0.0
C1103 C 0.53092 0.56798 0.97052 0.0
C1104 C 0.5169 0.58316 0.91664 0.0
H1105 H 0.53569 0.52854 0.02657 0.0
H1106 H 0.54416 0.57907 0.00667 0.0
C1107 C 0.49957 0.56791 0.87163 0.0
C1108 C 0.08592 0.50481 0.9296 0.0
C1109 C 0.06747 0.52034 0.97509 0.0
H1110 H 0.12917 0.48732 0.90714 0.0
C1111 C 0.08156 0.53221 0.03191 0.0
H1112 H 0.07761 0.49701 0.88241 0.0
C1113 C 0.11271 0.52963 0.04085 0.0
C1114 C 0.13094 0.51431 0.99446 0.0
H1115 H 0.06846 0.54399 0.06932 0.0
H1116 H 0.12235 0.53919 0.08497 0.0
C1117 C 0.11652 0.50064 0.94143 0.0
C1118 C 0.03648 0.01887 0.03528 0.0
C1119 C 0.01888 0.03968 1.00211 0.0
H1120 H 0.0481 0.97501 0.04702 0.0
C1121 C 0.99573 0.03049 0.96102 0.0
H1122 H 0.05411 0.02508 0.06857 0.0
C1123 C 0.99142 1.00132 0.9503 0.0
C1124 C 1.01057 0.9805 0.9795 0.0
H1125 H 0.98165 0.046 0.93527 0.0
H1126 H 0.9738 0.9952 0.91699 0.0
C1127 C 0.03298 0.98997 0.02269 0.0
C1128 C 0.9465 1.00803 0.50439 0.0
C1129 C 0.95672 0.02477 0.55778 0.0
H1130 H 0.90926 0.9932 0.44911 0.0
C1131 C 0.9351 0.03886 0.59851 0.0
H1132 H 0.96221 0.99668 0.47192 0.0
C1133 C 0.90444 0.03629 0.58602 0.0
C1134 C 0.89429 0.01857 0.53491 0.0
H1135 H 0.94187 0.05155 0.64068 0.0
H1136 H 0.88839 0.04783 0.61688 0.0
C1137 C 0.9159 1.00543 0.49229 0.0
C1138 C 0.49442 0.03169 0.55799 0.0
C1139 C 0.517 0.02257 0.5116 0.0
H1140 H 0.47323 0.06673 0.6093 0.0
C1141 C 0.53481 0.04336 0.47826 0.0
H1142 H 0.48025 1.01623 0.58446 0.0
C1143 C 0.53137 0.07217 0.49331 0.0
C1144 C 0.50932 0.08153 0.54109 0.0
H1145 H 0.55191 0.03723 0.44106 0.0
H1146 H 0.54566 0.08724 0.46581 0.0
C1147 C 0.49054 0.06072 0.57239 0.0
C1148 C 0.61099 0.5421 0.42664 0.0
C1149 C 0.63001 0.53046 0.47718 0.0
H1150 H 0.56597 0.54734 0.39153 0.0
C1151 C 0.61683 0.51364 0.53071 0.0
H1152 H 0.62017 0.55333 0.38169 0.0
C1153 C 0.58578 0.50933 0.53479 0.0
C1154 C 0.56677 0.52199 0.48604 0.0
H1155 H 0.63065 0.5036 0.56949 0.0
H1156 H 0.57662 0.49558 0.57548 0.0
C1157 C 0.57982 0.53831 0.43164 0.0
C1158 C 1.00882 0.52343 0.62625 0.0
C1159 C 0.01753 0.53953 0.56668 0.0
H1160 H 1.00393 0.48198 0.67467 0.0
C1161 C 0.02856 0.52471 0.50917 0.0
H1162 H 0.99962 0.53394 0.67107 0.0
C1163 C 0.03155 0.49497 0.51187 0.0
C1164 C 0.02246 0.47897 0.571 0.0
H1165 H 0.03395 0.53591 0.46107 0.0
H1166 H 0.04051 0.4844 0.467 0.0
C1167 C 1.01113 0.49361 0.62831 0.0
loop_
_geom_bond_atom_site_label_1
_geom_bond_atom_site_label_2
_geom_bond_distance
_geom_bond_site_symmetry_2
_ccdc_geom_bond_type
C0 C1 1.443 1_554 S
C0 N4 1.376 . S
C0 C38 1.414 . S
C1 C0 1.443 1_556 S
C1 C2 1.340 1_556 S
C1 H41 0.951 . S
C2 C1 1.340 1_554 S
C2 C3 1.439 . S
C2 H42 0.950 1_554 S
C3 C2 1.439 . S
C3 N4 1.374 . S
C3 C37 1.395 . S
N4 C0 1.376 . S
N4 C3 1.374 . S
N4 Co5 2.008 . S
Co5 N4 2.008 . S
Co5 N6 1.995 . S
Co5 N11 2.008 1_545 S
Co5 N16 1.995 1_545 S
Co5 N21 2.282 1_545 S
Co5 N27 2.282 . S
N6 Co5 1.995 . S
N6 C7 1.376 . S
N6 C10 1.383 . S
C7 N6 1.376 . S
C7 C8 1.446 . S
C7 C37 1.391 . S
C8 C7 1.446 . S
C8 C9 1.339 . S
C8 H43 0.949 . S
C9 C8 1.339 . S
C9 C10 1.439 . S
C9 H44 0.950 . S
C10 N6 1.383 . S
C10 C9 1.439 . S
C10 C39 1.375 1_545 S
N11 Co5 2.008 1_565 S
N11 C12 1.376 . S
N11 C15 1.374 . S
C12 N11 1.376 . S
C12 C13 1.443 . S
C12 C39 1.405 . S
C13 C12 1.443 . S
C13 C14 1.340 . S
C13 H45 0.951 . S
C14 C13 1.340 . S
C14 C15 1.439 . S
C14 H46 0.950 . S
C15 N11 1.374 . S
C15 C14 1.439 . S
C15 C40 1.395 . S
N16 Co5 1.995 1_565 S
N16 C17 1.376 . S
N16 C20 1.383 . S
C17 N16 1.376 . S
C17 C18 1.446 . S
C17 C40 1.391 . S
C18 C17 1.446 . S
C18 C19 1.339 . S
C18 H47 0.949 . S
C19 C18 1.339 . S
C19 C20 1.439 . S
C19 H48 0.950 . S
C20 N16 1.383 . S
C20 C19 1.439 . S
C20 C38 1.367 1_565 S
N21 Co5 2.282 1_565 S
N21 C24 1.332 . S
N21 C26 1.332 1_554 S
C22 C23 1.386 . S
C22 C25 1.388 . S
C23 C22 1.386 . S
C23 C24 1.382 1_556 S
C23 H49 0.950 . S
C24 N21 1.332 . S
C24 C23 1.382 1_554 S
C24 H35 0.952 . S
C25 C22 1.388 . S
C25 C26 1.382 . S
C25 H50 0.948 . S
C26 N21 1.332 1_556 S
C26 C25 1.382 . S
C26 H36 0.948 1_565 S
N27 Co5 2.282 . S
N27 C31 1.332 . S
N27 C32 1.332 . S
C28 C29 1.388 . S
C28 C32 1.382 . S
C28 H51 0.953 . S
C29 C28 1.388 . S
C29 C30 1.386 . S
C30 C29 1.386 . S
C30 C31 1.382 . S
C30 H52 0.950 . S
C31 N27 1.332 . S
C31 C30 1.382 . S
C31 H33 0.952 . S
C32 N27 1.332 . S
C32 C28 1.382 . S
C32 H34 0.948 1_545 S
H33 C31 0.952 . S
H34 C32 0.948 1_565 S
H35 C24 0.952 . S
H36 C26 0.948 1_545 S
C37 C3 1.395 . S
C37 C7 1.391 . S
C38 C0 1.414 . S
C38 C20 1.367 1_545 S
C39 C10 1.375 1_565 S
C39 C12 1.405 . S
C40 C15 1.395 . S
C40 C17 1.391 . S
H41 C1 0.951 . S
H42 C2 0.950 1_556 S
H43 C8 0.949 . S
H44 C9 0.950 . S
H45 C13 0.951 . S
H46 C14 0.950 . S
H47 C18 0.949 . S
H48 C19 0.950 . S
H49 C23 0.950 . S
H50 C25 0.948 . S
H51 C28 0.953 . S
H52 C30 0.950 . S
C53 C54 1.443 . S
C53 N57 1.376 . S
C53 C91 1.389 . S
C54 C53 1.443 . S
C54 C55 1.340 . S
C54 H94 0.951 . S
C55 C54 1.340 . S
C55 C56 1.439 . S
C55 H95 0.950 . S
C56 C55 1.439 . S
C56 N57 1.374 . S
C56 C90 1.395 . S
N57 C53 1.376 . S
N57 C56 1.374 . S
N57 Co58 2.008 . S
Co58 N57 2.008 . S
Co58 N59 1.995 1_554 S
Co58 N64 2.008 . S
Co58 N69 1.995 . S
Co58 N74 2.282 . S
Co58 N80 2.282 1_554 S
N59 Co58 1.995 1_556 S
N59 C60 1.376 . S
N59 C63 1.383 . S
C60 N59 1.376 . S
C60 C61 1.446 . S
C60 C90 1.391 1_556 S
C61 C60 1.446 . S
C61 C62 1.339 . S
C61 H96 0.949 . S
C62 C61 1.339 . S
C62 C63 1.439 . S
C62 H97 0.950 . S
C63 N59 1.383 . S
C63 C62 1.439 . S
C63 C92 1.392 . S
N64 Co58 2.008 . S
N64 C65 1.376 1_554 S
N64 C68 1.374 . S
C65 N64 1.376 1_556 S
C65 C66 1.443 . S
C65 C92 1.389 . S
C66 C65 1.443 . S
C66 C67 1.340 . S
C66 H98 0.951 . S
C67 C66 1.340 . S
C67 C68 1.439 1_556 S
C67 H99 0.950 . S
C68 N64 1.374 . S
C68 C67 1.439 1_554 S
C68 C93 1.395 . S
N69 Co58 1.995 . S
N69 C70 1.376 . S
N69 C73 1.383 . S
C70 N69 1.376 . S
C70 C71 1.446 . S
C70 C93 1.391 . S
C71 C70 1.446 . S
C71 C72 1.339 . S
C71 H100 0.949 . S
C72 C71 1.339 . S
C72 C73 1.439 . S
C72 H101 0.950 . S
C73 N69 1.383 . S
C73 C72 1.439 . S
C73 C91 1.392 . S
N74 Co58 2.282 . S
N74 C77 1.332 . S
N74 C79 1.332 . S
C75 C76 1.386 . S
C75 C78 1.388 . S
C76 C75 1.386 . S
C76 C77 1.382 . S
C76 H102 0.950 . S
C77 N74 1.332 . S
C77 C76 1.382 . S
C77 H88 0.952 . S
C78 C75 1.388 . S
C78 C79 1.382 . S
C78 H103 0.950 . S
C79 N74 1.332 . S
C79 C78 1.382 . S
C79 H89 0.948 . S
N80 Co58 2.282 1_556 S
N80 C84 1.332 . S
N80 C85 1.332 . S
C81 C82 1.388 . S
C81 C85 1.382 . S
C81 H104 0.950 . S
C82 C81 1.388 . S
C82 C83 1.386 . S
C83 C82 1.386 . S
C83 C84 1.382 . S
C83 H105 0.950 . S
C84 N80 1.332 . S
C84 C83 1.382 . S
C84 H86 0.952 . S
C85 N80 1.332 . S
C85 C81 1.382 . S
C85 H87 0.948 . S
H86 C84 0.952 . S
H87 C85 0.948 . S
H88 C77 0.952 . S
H89 C79 0.948 . S
C90 C56 1.395 . S
C90 C60 1.391 1_554 S
C91 C53 1.389 . S
C91 C73 1.392 . S
C92 C63 1.392 . S
C92 C65 1.389 . S
C93 C68 1.395 . S
C93 C70 1.391 . S
H94 C54 0.951 . S
H95 C55 0.950 . S
H96 C61 0.949 . S
H97 C62 0.950 . S
H98 C66 0.951 . S
H99 C67 0.950 . S
H100 C71 0.949 . S
H101 C72 0.950 . S
H102 C76 0.950 . S
H103 C78 0.950 . S
H104 C81 0.950 . S
H105 C83 0.950 . S
C106 C107 1.448 . S
C106 N110 1.371 1_556 S
C106 C144 1.388 1_655 S
C107 C106 1.448 . S
C107 C108 1.340 . S
C107 H147 0.951 1_655 S
C108 C107 1.340 . S
C108 C109 1.439 1_556 S
C108 H148 0.950 . S
C109 C108 1.439 1_554 S
C109 N110 1.374 . S
C109 C143 1.395 . S
N110 C106 1.371 1_554 S
N110 C109 1.374 . S
N110 Co111 2.008 . S
Co111 N110 2.008 . S
Co111 N112 1.995 . S
Co111 N117 2.008 . S
Co111 N122 1.995 . S
Co111 N127 2.282 1_554 S
Co111 N133 2.282 . S
N112 Co111 1.995 . S
N112 C113 1.376 . S
N112 C116 1.383 . S
C113 N112 1.376 . S
C113 C114 1.446 . S
C113 C143 1.391 . S
C114 C113 1.446 . S
C114 C115 1.339 . S
C114 H149 0.949 . S
C115 C114 1.339 . S
C115 C116 1.439 . S
C115 H150 0.950 . S
C116 N112 1.383 . S
C116 C115 1.439 . S
C116 C145 1.392 . S
N117 Co111 2.008 . S
N117 C118 1.376 . S
N117 C121 1.374 . S
C118 N117 1.376 . S
C118 C119 1.443 . S
C118 C145 1.389 . S
C119 C118 1.443 . S
C119 C120 1.340 . S
C119 H151 0.951 . S
C120 C119 1.340 . S
C120 C121 1.439 . S
C120 H152 0.950 . S
C121 N117 1.374 . S
C121 C120 1.439 . S
C121 C146 1.395 . S
N122 Co111 1.995 . S
N122 C123 1.384 . S
N122 C126 1.383 1_655 S
C123 N122 1.384 . S
C123 C124 1.423 1_655 S
C123 C146 1.405 . S
C124 C123 1.423 1_455 S
C124 C125 1.339 . S
C124 H153 0.949 . S
C125 C124 1.339 . S
C125 C126 1.439 . S
C125 H154 0.950 1_554 S
C126 N122 1.383 1_455 S
C126 C125 1.439 . S
C126 C144 1.392 1_554 S
N127 Co111 2.282 1_556 S
N127 C130 1.332 . S
N127 C132 1.332 . S
C128 C129 1.386 . S
C128 C131 1.388 . S
C129 C128 1.386 . S
C129 C130 1.382 . S
C129 H155 0.950 . S
C130 N127 1.332 . S
C130 C129 1.382 . S
C130 H141 0.952 . S
C131 C128 1.388 . S
C131 C132 1.382 . S
C131 H156 0.950 . S
C132 N127 1.332 . S
C132 C131 1.382 . S
C132 H142 0.948 . S
N133 Co111 2.282 . S
N133 C137 1.332 . S
N133 C138 1.338 . S
C134 C135 1.388 . S
C134 C138 1.378 1_455 S
C134 H157 0.950 . S
C135 C134 1.388 . S
C135 C136 1.386 1_455 S
C136 C135 1.386 1_655 S
C136 C137 1.382 . S
C136 H158 0.950 . S
C137 N133 1.332 . S
C137 C136 1.382 . S
C137 H139 0.952 . S
C138 N133 1.338 . S
C138 C134 1.378 1_655 S
C138 H140 0.946 1_655 S
H139 C137 0.952 . S
H140 C138 0.946 1_455 S
H141 C130 0.952 . S
H142 C132 0.948 . S
C143 C109 1.395 . S
C143 C113 1.391 . S
C144 C106 1.388 1_455 S
C144 C126 1.392 1_556 S
C145 C116 1.392 . S
C145 C118 1.389 . S
C146 C121 1.395 . S
C146 C123 1.405 . S
H147 C107 0.951 1_455 S
H148 C108 0.950 . S
H149 C114 0.949 . S
H150 C115 0.950 . S
H151 C119 0.951 . S
H152 C120 0.950 . S
H153 C124 0.949 . S
H154 C125 0.950 1_556 S
H155 C129 0.950 . S
H156 C131 0.950 . S
H157 C134 0.950 . S
H158 C136 0.950 . S
C159 C160 1.443 . S
C159 N163 1.376 . S
C159 C197 1.389 1_655 S
C160 C159 1.443 . S
C160 C161 1.340 . S
C160 H200 0.951 . S
C161 C160 1.340 . S
C161 C162 1.439 . S
C161 H201 0.950 . S
C162 C161 1.439 . S
C162 N163 1.374 . S
C162 C196 1.395 . S
N163 C159 1.376 . S
N163 C162 1.374 . S
N163 Co164 2.008 1_655 S
Co164 N163 2.008 1_455 S
Co164 N165 1.995 1_454 S
Co164 N170 2.008 1_554 S
Co164 N175 1.995 . S
Co164 N180 2.282 1_455 S
Co164 N186 2.282 1_554 S
N165 Co164 1.995 1_656 S
N165 C166 1.376 . S
N165 C169 1.383 . S
C166 N165 1.376 . S
C166 C167 1.446 . S
C166 C196 1.391 1_556 S
C167 C166 1.446 . S
C167 C168 1.339 . S
C167 H202 0.949 . S
C168 C167 1.339 . S
C168 C169 1.439 . S
C168 H203 0.950 . S
C169 N165 1.383 . S
C169 C168 1.439 . S
C169 C198 1.392 . S
N170 Co164 2.008 1_556 S
N170 C171 1.376 . S
N170 C174 1.374 . S
C171 N170 1.376 . S
C171 C172 1.443 . S
C171 C198 1.389 1_455 S
C172 C171 1.443 . S
C172 C173 1.340 . S
C172 H204 0.951 . S
C173 C172 1.340 . S
C173 C174 1.439 . S
C173 H205 0.950 . S
C174 N170 1.374 . S
C174 C173 1.439 . S
C174 C199 1.395 1_556 S
N175 Co164 1.995 . S
N175 C176 1.376 . S
N175 C179 1.383 . S
C176 N175 1.376 . S
C176 C177 1.446 . S
C176 C199 1.391 . S
C177 C176 1.446 . S
C177 C178 1.339 . S
C177 H206 0.949 . S
C178 C177 1.339 . S
C178 C179 1.439 . S
C178 H207 0.950 . S
C179 N175 1.383 . S
C179 C178 1.439 . S
C179 C197 1.392 . S
N180 Co164 2.282 1_655 S
N180 C183 1.332 1_655 S
N180 C185 1.332 . S
C181 C182 1.384 . S
C181 C184 1.390 1_455 S
C182 C181 1.384 . S
C182 C183 1.382 . S
C182 H208 0.950 . S
C183 N180 1.332 1_455 S
C183 C182 1.382 . S
C183 H194 0.952 . S
C184 C181 1.390 1_655 S
C184 C185 1.382 . S
C184 H209 0.950 . S
C185 N180 1.332 . S
C185 C184 1.382 . S
C185 H195 0.948 . S
N186 Co164 2.282 1_556 S
N186 C190 1.332 1_455 S
N186 C191 1.332 . S
C187 C188 1.390 . S
C187 C191 1.382 . S
C187 H210 0.950 . S
C188 C187 1.390 . S
C188 C189 1.384 1_455 S
C189 C188 1.384 1_655 S
C189 C190 1.382 . S
C189 H211 0.950 . S
C190 N186 1.332 1_655 S
C190 C189 1.382 . S
C190 H192 0.952 . S
C191 N186 1.332 . S
C191 C187 1.382 . S
C191 H193 0.948 . S
H192 C190 0.952 . S
H193 C191 0.948 . S
H194 C183 0.952 . S
H195 C185 0.948 . S
C196 C162 1.395 . S
C196 C166 1.391 1_554 S
C197 C159 1.389 1_455 S
C197 C179 1.392 . S
C198 C169 1.392 . S
C198 C171 1.389 1_655 S
C199 C174 1.395 1_554 S
C199 C176 1.391 . S
H200 C160 0.951 . S
H201 C161 0.950 . S
H202 C167 0.949 . S
H203 C168 0.950 . S
H204 C172 0.951 . S
H205 C173 0.950 . S
H206 C177 0.949 . S
H207 C178 0.950 . S
H208 C182 0.950 . S
H209 C184 0.950 . S
H210 C187 0.950 . S
H211 C189 0.950 . S
C212 C213 1.443 . S
C212 N216 1.376 1_655 S
C212 C250 1.389 . S
C213 C212 1.443 . S
C213 C214 1.340 1_655 S
C213 H253 0.951 . S
C214 C213 1.340 1_455 S
C214 C215 1.439 . S
C214 H254 0.950 . S
C215 C214 1.439 . S
C215 N216 1.374 . S
C215 C249 1.395 . S
N216 C212 1.376 1_455 S
N216 C215 1.374 . S
N216 Co217 2.008 . S
Co217 N216 2.008 . S
Co217 N218 1.995 . S
Co217 N223 2.008 1_565 S
Co217 N228 1.995 1_565 S
Co217 N233 2.282 1_565 S
Co217 N239 2.282 . S
N218 Co217 1.995 . S
N218 C219 1.376 . S
N218 C222 1.383 . S
C219 N218 1.376 . S
C219 C220 1.446 . S
C219 C249 1.391 . S
C220 C219 1.446 . S
C220 C221 1.339 . S
C220 H255 0.949 . S
C221 C220 1.339 . S
C221 C222 1.439 . S
C221 H256 0.950 . S
C222 N218 1.383 . S
C222 C221 1.439 . S
C222 C251 1.392 1_565 S
N223 Co217 2.008 1_545 S
N223 C224 1.376 . S
N223 C227 1.374 . S
C224 N223 1.376 . S
C224 C225 1.443 . S
C224 C251 1.389 . S
C225 C224 1.443 . S
C225 C226 1.340 . S
C225 H257 0.951 . S
C226 C225 1.340 . S
C226 C227 1.439 . S
C226 H258 0.950 . S
C227 N223 1.374 . S
C227 C226 1.439 . S
C227 C252 1.395 . S
N228 Co217 1.995 1_545 S
N228 C229 1.376 . S
N228 C232 1.383 1_455 S
C229 N228 1.376 . S
C229 C230 1.446 1_455 S
C229 C252 1.391 . S
C230 C229 1.446 1_655 S
C230 C231 1.339 . S
C230 H259 0.949 . S
C231 C230 1.339 . S
C231 C232 1.439 . S
C231 H260 0.950 . S
C232 N228 1.383 1_655 S
C232 C231 1.439 . S
C232 C250 1.392 1_545 S
N233 Co217 2.282 1_545 S
N233 C236 1.332 . S
N233 C238 1.330 1_545 S
C234 C235 1.386 . S
C234 C237 1.388 . S
C235 C234 1.386 . S
C235 C236 1.382 . S
C235 H261 0.950 . S
C236 N233 1.332 . S
C236 C235 1.382 . S
C236 H247 0.952 . S
C237 C234 1.388 . S
C237 C238 1.381 1_545 S
C237 H262 0.950 1_545 S
C238 N233 1.330 1_565 S
C238 C237 1.381 1_565 S
C238 H248 0.951 . S
N239 Co217 2.282 . S
N239 C243 1.332 . S
N239 C244 1.330 . S
C240 C241 1.388 . S
C240 C244 1.381 1_655 S
C240 H263 0.950 1_565 S
C241 C240 1.388 . S
C241 C242 1.386 1_655 S
C242 C241 1.386 1_455 S
C242 C243 1.382 . S
C242 H264 0.950 . S
C243 N239 1.332 . S
C243 C242 1.382 . S
C243 H245 0.952 . S
C244 N239 1.330 . S
C244 C240 1.381 1_455 S
C244 H246 0.951 1_565 S
H245 C243 0.952 . S
H246 C244 0.951 1_545 S
H247 C236 0.952 . S
H248 C238 0.951 . S
C249 C215 1.395 . S
C249 C219 1.391 . S
C250 C212 1.389 . S
C250 C232 1.392 1_565 S
C251 C222 1.392 1_545 S
C251 C224 1.389 . S
C252 C227 1.395 . S
C252 C229 1.391 . S
H253 C213 0.951 . S
H254 C214 0.950 . S
H255 C220 0.949 . S
H256 C221 0.950 . S
H257 C225 0.951 . S
H258 C226 0.950 . S
H259 C230 0.949 . S
H260 C231 0.950 . S
H261 C235 0.950 . S
H262 C237 0.950 1_565 S
H263 C240 0.950 1_545 S
H264 C242 0.950 . S
C265 C266 1.443 . S
C265 N269 1.376 . S
C265 C303 1.389 . S
C266 C265 1.443 . S
C266 C267 1.340 . S
C266 H306 0.951 . S
C267 C266 1.340 . S
C267 C268 1.439 . S
C267 H307 0.950 . S
C268 C267 1.439 . S
C268 N269 1.374 . S
C268 C302 1.395 . S
N269 C265 1.376 . S
N269 C268 1.374 . S
N269 Co270 2.008 . S
Co270 N269 2.008 . S
Co270 N271 1.995 . S
Co270 N276 2.008 . S
Co270 N281 1.995 . S
Co270 N286 2.282 . S
Co270 N292 2.282 . S
N271 Co270 1.995 . S
N271 C272 1.376 . S
N271 C275 1.383 . S
C272 N271 1.376 . S
C272 C273 1.446 . S
C272 C302 1.391 . S
C273 C272 1.446 . S
C273 C274 1.339 . S
C273 H308 0.949 . S
C274 C273 1.339 . S
C274 C275 1.439 . S
C274 H309 0.950 . S
C275 N271 1.383 . S
C275 C274 1.439 . S
C275 C304 1.392 . S
N276 Co270 2.008 . S
N276 C277 1.376 . S
N276 C280 1.374 . S
C277 N276 1.376 . S
C277 C278 1.443 . S
C277 C304 1.389 . S
C278 C277 1.443 . S
C278 C279 1.340 . S
C278 H310 0.951 . S
C279 C278 1.340 . S
C279 C280 1.439 . S
C279 H311 0.950 . S
C280 N276 1.374 . S
C280 C279 1.439 . S
C280 C305 1.395 . S
N281 Co270 1.995 . S
N281 C282 1.376 . S
N281 C285 1.383 . S
C282 N281 1.376 . S
C282 C283 1.446 . S
C282 C305 1.391 . S
C283 C282 1.446 . S
C283 C284 1.339 . S
C283 H312 0.949 . S
C284 C283 1.339 . S
C284 C285 1.439 . S
C284 H313 0.950 . S
C285 N281 1.383 . S
C285 C284 1.439 . S
C285 C303 1.392 . S
N286 Co270 2.282 . S
N286 C289 1.332 . S
N286 C291 1.332 . S
C287 C288 1.386 . S
C287 C290 1.388 . S
C288 C287 1.386 . S
C288 C289 1.382 . S
C288 H314 0.950 . S
C289 N286 1.332 . S
C289 C288 1.382 . S
C289 H300 0.952 . S
C290 C287 1.388 . S
C290 C291 1.382 . S
C290 H315 0.950 . S
C291 N286 1.332 . S
C291 C290 1.382 . S
C291 H301 0.948 . S
N292 Co270 2.282 . S
N292 C296 1.332 . S
N292 C297 1.332 . S
C293 C294 1.388 . S
C293 C297 1.382 . S
C293 H316 0.950 . S
C294 C293 1.388 . S
C294 C295 1.386 . S
C295 C294 1.386 . S
C295 C296 1.382 . S
C295 H317 0.950 . S
C296 N292 1.332 . S
C296 C295 1.382 . S
C296 H298 0.952 . S
C297 N292 1.332 . S
C297 C293 1.382 . S
C297 H299 0.948 . S
H298 C296 0.952 . S
H299 C297 0.948 . S
H300 C289 0.952 . S
H301 C291 0.948 . S
C302 C268 1.395 . S
C302 C272 1.391 . S
C303 C265 1.389 . S
C303 C285 1.392 . S
C304 C275 1.392 . S
C304 C277 1.389 . S
C305 C280 1.395 . S
C305 C282 1.391 . S
H306 C266 0.951 . S
H307 C267 0.950 . S
H308 C273 0.949 . S
H309 C274 0.950 . S
H310 C278 0.951 . S
H311 C279 0.950 . S
H312 C283 0.949 . S
H313 C284 0.950 . S
H314 C288 0.950 . S
H315 C290 0.950 . S
H316 C293 0.950 . S
H317 C295 0.950 . S
C318 C319 1.443 . S
C318 N322 1.376 . S
C318 C356 1.389 . S
C319 C318 1.443 . S
C319 C320 1.340 . S
C319 H359 0.951 . S
C320 C319 1.340 . S
C320 C321 1.439 . S
C320 H360 0.950 . S
C321 C320 1.439 . S
C321 N322 1.374 . S
C321 C355 1.395 . S
N322 C318 1.376 . S
N322 C321 1.374 . S
N322 Co323 2.008 . S
Co323 N322 2.008 . S
Co323 N324 1.995 . S
Co323 N329 2.008 . S
Co323 N334 1.995 . S
Co323 N339 2.282 . S
Co323 N345 2.282 . S
N324 Co323 1.995 . S
N324 C325 1.376 . S
N324 C328 1.383 . S
C325 N324 1.376 . S
C325 C326 1.446 . S
C325 C355 1.391 . S
C326 C325 1.446 . S
C326 C327 1.339 . S
C326 H361 0.949 . S
C327 C326 1.339 . S
C327 C328 1.439 . S
C327 H362 0.950 . S
C328 N324 1.383 . S
C328 C327 1.439 . S
C328 C357 1.392 . S
N329 Co323 2.008 . S
N329 C330 1.376 . S
N329 C333 1.374 . S
C330 N329 1.376 . S
C330 C331 1.443 . S
C330 C357 1.389 . S
C331 C330 1.443 . S
C331 C332 1.340 . S
C331 H363 0.951 . S
C332 C331 1.340 . S
C332 C333 1.439 . S
C332 H364 0.950 . S
C333 N329 1.374 . S
C333 C332 1.439 . S
C333 C358 1.395 . S
N334 Co323 1.995 . S
N334 C335 1.376 . S
N334 C338 1.383 . S
C335 N334 1.376 . S
C335 C336 1.446 . S
C335 C358 1.391 . S
C336 C335 1.446 . S
C336 C337 1.339 . S
C336 H365 0.949 . S
C337 C336 1.339 . S
C337 C338 1.439 . S
C337 H366 0.950 . S
C338 N334 1.383 . S
C338 C337 1.439 . S
C338 C356 1.392 . S
N339 Co323 2.282 . S
N339 C342 1.332 . S
N339 C344 1.332 . S
C340 C341 1.386 . S
C340 C343 1.388 . S
C341 C340 1.386 . S
C341 C342 1.382 . S
C341 H367 0.950 . S
C342 N339 1.332 . S
C342 C341 1.382 . S
C342 H353 0.952 . S
C343 C340 1.388 . S
C343 C344 1.382 . S
C343 H368 0.950 . S
C344 N339 1.332 . S
C344 C343 1.382 . S
C344 H354 0.948 . S
N345 Co323 2.282 . S
N345 C349 1.332 . S
N345 C350 1.332 . S
C346 C347 1.388 . S
C346 C350 1.382 . S
C346 H369 0.950 . S
C347 C346 1.388 . S
C347 C348 1.386 . S
C348 C347 1.386 . S
C348 C349 1.382 . S
C348 H370 0.950 . S
C349 N345 1.332 . S
C349 C348 1.382 . S
C349 H351 0.952 . S
C350 N345 1.332 . S
C350 C346 1.382 . S
C350 H352 0.948 . S
H351 C349 0.952 . S
H352 C350 0.948 . S
H353 C342 0.952 . S
H354 C344 0.948 . S
C355 C321 1.395 . S
C355 C325 1.391 . S
C356 C318 1.389 . S
C356 C338 1.392 . S
C357 C328 1.392 . S
C357 C330 1.389 . S
C358 C333 1.395 . S
C358 C335 1.391 . S
H359 C319 0.951 . S
H360 C320 0.950 . S
H361 C326 0.949 . S
H362 C327 0.950 . S
H363 C331 0.951 . S
H364 C332 0.950 . S
H365 C336 0.949 . S
H366 C337 0.950 . S
H367 C341 0.950 . S
H368 C343 0.950 . S
H369 C346 0.950 . S
H370 C348 0.950 . S
C371 C372 1.443 . S
C371 N375 1.376 . S
C371 C409 1.389 1_455 S
C372 C371 1.443 . S
C372 C373 1.340 . S
C372 H412 0.951 . S
C373 C372 1.340 . S
C373 C374 1.439 . S
C373 H413 0.950 . S
C374 C373 1.439 . S
C374 N375 1.374 . S
C374 C408 1.395 . S
N375 C371 1.376 . S
N375 C374 1.374 . S
N375 Co376 2.008 1_455 S
Co376 N375 2.008 1_655 S
Co376 N377 1.995 1_655 S
Co376 N382 2.008 . S
Co376 N387 1.995 . S
Co376 N392 2.282 1_655 S
Co376 N398 2.282 . S
N377 Co376 1.995 1_455 S
N377 C378 1.376 . S
N377 C381 1.383 . S
C378 N377 1.376 . S
C378 C379 1.446 . S
C378 C408 1.391 . S
C379 C378 1.446 . S
C379 C380 1.339 . S
C379 H414 0.949 . S
C380 C379 1.339 . S
C380 C381 1.439 . S
C380 H415 0.950 . S
C381 N377 1.383 . S
C381 C380 1.439 . S
C381 C410 1.392 . S
N382 Co376 2.008 . S
N382 C383 1.376 . S
N382 C386 1.374 . S
C383 N382 1.376 . S
C383 C384 1.443 . S
C383 C410 1.389 1_655 S
C384 C383 1.443 . S
C384 C385 1.340 . S
C384 H416 0.951 . S
C385 C384 1.340 . S
C385 C386 1.439 . S
C385 H417 0.950 . S
C386 N382 1.374 . S
C386 C385 1.439 . S
C386 C411 1.395 . S
N387 Co376 1.995 . S
N387 C388 1.376 . S
N387 C391 1.383 . S
C388 N387 1.376 . S
C388 C389 1.446 . S
C388 C411 1.391 . S
C389 C388 1.446 . S
C389 C390 1.339 . S
C389 H418 0.949 . S
C390 C389 1.339 . S
C390 C391 1.439 . S
C390 H419 0.950 . S
C391 N387 1.383 . S
C391 C390 1.439 . S
C391 C409 1.392 . S
N392 Co376 2.282 1_455 S
N392 C395 1.332 1_455 S
N392 C397 1.332 . S
C393 C394 1.395 . S
C393 C396 1.378 1_655 S
C394 C393 1.395 . S
C394 C395 1.382 . S
C394 H420 0.950 . S
C395 N392 1.332 1_655 S
C395 C394 1.382 . S
C395 H406 0.952 . S
C396 C393 1.378 1_455 S
C396 C397 1.382 . S
C396 H421 0.950 . S
C397 N392 1.332 . S
C397 C396 1.382 . S
C397 H407 0.948 . S
N398 Co376 2.282 . S
N398 C402 1.332 1_655 S
N398 C403 1.332 . S
C399 C400 1.386 1_655 S
C399 C403 1.382 . S
C399 H422 0.950 . S
C400 C399 1.386 1_455 S
C400 C401 1.388 . S
C401 C400 1.388 . S
C401 C402 1.382 . S
C401 H423 0.950 . S
C402 N398 1.332 1_455 S
C402 C401 1.382 . S
C402 H404 0.952 . S
C403 N398 1.332 . S
C403 C399 1.382 . S
C403 H405 0.948 . S
H404 C402 0.952 . S
H405 C403 0.948 . S
H406 C395 0.952 . S
H407 C397 0.948 . S
C408 C374 1.395 . S
C408 C378 1.391 . S
C409 C371 1.389 1_655 S
C409 C391 1.392 . S
C410 C381 1.392 . S
C410 C383 1.389 1_455 S
C411 C386 1.395 . S
C411 C388 1.391 . S
H412 C372 0.951 . S
H413 C373 0.950 . S
H414 C379 0.949 . S
H415 C380 0.950 . S
H416 C384 0.951 . S
H417 C385 0.950 . S
H418 C389 0.949 . S
H419 C390 0.950 . S
H420 C394 0.950 . S
H421 C396 0.950 . S
H422 C399 0.950 . S
H423 C401 0.950 . S
C424 C425 1.443 . S
C424 N428 1.376 . S
C424 C462 1.389 . S
C425 C424 1.443 . S
C425 C426 1.340 . S
C425 H465 0.951 . S
C426 C425 1.340 . S
C426 C427 1.439 1_554 S
C426 H466 0.950 . S
C427 C426 1.439 1_556 S
C427 N428 1.374 1_556 S
C427 C461 1.395 . S
N428 C424 1.376 . S
N428 C427 1.374 1_554 S
N428 Co429 2.008 1_544 S
Co429 N428 2.008 1_566 S
Co429 N430 1.995 1_565 S
Co429 N435 2.008 . S
Co429 N440 1.995 1_556 S
Co429 N445 2.282 1_566 S
Co429 N451 2.282 . S
N430 Co429 1.995 1_545 S
N430 C431 1.376 . S
N430 C434 1.383 . S
C431 N430 1.376 . S
C431 C432 1.446 . S
C431 C461 1.391 . S
C432 C431 1.446 . S
C432 C433 1.339 . S
C432 H467 0.949 . S
C433 C432 1.339 . S
C433 C434 1.439 . S
C433 H468 0.950 . S
C434 N430 1.383 . S
C434 C433 1.439 . S
C434 C463 1.392 1_545 S
N435 Co429 2.008 . S
N435 C436 1.376 . S
N435 C439 1.374 1_556 S
C436 N435 1.376 . S
C436 C437 1.443 . S
C436 C463 1.389 . S
C437 C436 1.443 . S
C437 C438 1.340 . S
C437 H469 0.951 . S
C438 C437 1.340 . S
C438 C439 1.439 1_556 S
C438 H470 0.950 . S
C439 N435 1.374 1_554 S
C439 C438 1.439 1_554 S
C439 C464 1.395 . S
N440 Co429 1.995 1_554 S
N440 C441 1.376 . S
N440 C444 1.383 . S
C441 N440 1.376 . S
C441 C442 1.446 . S
C441 C464 1.391 . S
C442 C441 1.446 . S
C442 C443 1.339 . S
C442 H471 0.949 . S
C443 C442 1.339 . S
C443 C444 1.439 . S
C443 H472 0.950 . S
C444 N440 1.383 . S
C444 C443 1.439 . S
C444 C462 1.392 1_565 S
N445 Co429 2.282 1_544 S
N445 C448 1.332 1_545 S
N445 C450 1.332 . S
C446 C447 1.386 1_545 S
C446 C449 1.388 . S
C447 C446 1.386 1_565 S
C447 C448 1.382 . S
C447 H473 0.950 . S
C448 N445 1.332 1_565 S
C448 C447 1.382 . S
C448 H459 0.952 . S
C449 C446 1.388 . S
C449 C450 1.382 . S
C449 H474 0.950 . S
C450 N445 1.332 . S
C450 C449 1.382 . S
C450 H460 0.948 . S
N451 Co429 2.282 . S
N451 C455 1.332 1_565 S
N451 C456 1.332 . S
C452 C453 1.388 . S
C452 C456 1.382 . S
C452 H475 0.950 . S
C453 C452 1.388 . S
C453 C454 1.386 1_565 S
C454 C453 1.386 1_545 S
C454 C455 1.382 . S
C454 H476 0.950 . S
C455 N451 1.332 1_545 S
C455 C454 1.382 . S
C455 H457 0.952 . S
C456 N451 1.332 . S
C456 C452 1.382 . S
C456 H458 0.948 . S
H457 C455 0.952 . S
H458 C456 0.948 . S
H459 C448 0.952 . S
H460 C450 0.948 . S
C461 C427 1.395 . S
C461 C431 1.391 . S
C462 C424 1.389 . S
C462 C444 1.392 1_545 S
C463 C434 1.392 1_565 S
C463 C436 1.389 . S
C464 C439 1.395 . S
C464 C441 1.391 . S
H465 C425 0.951 . S
H466 C426 0.950 . S
H467 C432 0.949 . S
H468 C433 0.950 . S
H469 C437 0.951 . S
H470 C438 0.950 . S
H471 C442 0.949 . S
H472 C443 0.950 . S
H473 C447 0.950 . S
H474 C449 0.950 . S
H475 C452 0.950 . S
H476 C454 0.950 . S
C477 C478 1.443 . S
C477 N481 1.376 . S
C477 C515 1.389 . S
C478 C477 1.443 . S
C478 C479 1.340 . S
C478 H518 0.951 . S
C479 C478 1.340 . S
C479 C480 1.439 . S
C479 H519 0.950 . S
C480 C479 1.439 . S
C480 N481 1.374 . S
C480 C514 1.395 . S
N481 C477 1.376 . S
N481 C480 1.374 . S
N481 Co482 2.008 . S
Co482 N481 2.008 . S
Co482 N483 1.995 . S
Co482 N488 2.008 . S
Co482 N493 1.995 . S
Co482 N498 2.282 . S
Co482 N504 2.282 . S
N483 Co482 1.995 . S
N483 C484 1.376 . S
N483 C487 1.383 . S
C484 N483 1.376 . S
C484 C485 1.446 . S
C484 C514 1.391 . S
C485 C484 1.446 . S
C485 C486 1.339 . S
C485 H520 0.949 . S
C486 C485 1.339 . S
C486 C487 1.439 . S
C486 H521 0.950 . S
C487 N483 1.383 . S
C487 C486 1.439 . S
C487 C516 1.392 . S
N488 Co482 2.008 . S
N488 C489 1.376 . S
N488 C492 1.374 . S
C489 N488 1.376 . S
C489 C490 1.443 . S
C489 C516 1.389 . S
C490 C489 1.443 . S
C490 C491 1.340 . S
C490 H522 0.951 . S
C491 C490 1.340 . S
C491 C492 1.439 . S
C491 H523 0.950 . S
C492 N488 1.374 . S
C492 C491 1.439 . S
C492 C517 1.395 . S
N493 Co482 1.995 . S
N493 C494 1.376 . S
N493 C497 1.383 . S
C494 N493 1.376 . S
C494 C495 1.446 . S
C494 C517 1.391 . S
C495 C494 1.446 . S
C495 C496 1.339 . S
C495 H524 0.949 . S
C496 C495 1.339 . S
C496 C497 1.439 . S
C496 H525 0.945 1_556 S
C497 N493 1.383 . S
C497 C496 1.439 . S
C497 C515 1.392 . S
N498 Co482 2.282 . S
N498 C501 1.332 . S
N498 C503 1.332 . S
C499 C500 1.386 . S
C499 C502 1.388 1_554 S
C500 C499 1.386 . S
C500 C501 1.382 1_554 S
C500 H526 0.950 . S
C501 N498 1.332 . S
C501 C500 1.382 1_556 S
C501 H512 0.952 . S
C502 C499 1.388 1_556 S
C502 C503 1.382 . S
C502 H527 0.950 . S
C503 N498 1.332 . S
C503 C502 1.382 . S
C503 H513 0.948 . S
N504 Co482 2.282 . S
N504 C508 1.332 . S
N504 C509 1.332 . S
C505 C506 1.388 . S
C505 C509 1.382 . S
C505 H528 0.950 . S
C506 C505 1.388 . S
C506 C507 1.386 . S
C507 C506 1.386 . S
C507 C508 1.382 . S
C507 H529 0.950 . S
C508 N504 1.332 . S
C508 C507 1.382 . S
C508 H510 0.952 . S
C509 N504 1.332 . S
C509 C505 1.382 . S
C509 H511 0.948 . S
H510 C508 0.952 . S
H511 C509 0.948 . S
H512 C501 0.952 . S
H513 C503 0.948 . S
C514 C480 1.395 . S
C514 C484 1.391 . S
C515 C477 1.389 . S
C515 C497 1.392 . S
C516 C487 1.392 . S
C516 C489 1.389 . S
C517 C492 1.395 . S
C517 C494 1.391 . S
H518 C478 0.951 . S
H519 C479 0.950 . S
H520 C485 0.949 . S
H521 C486 0.950 . S
H522 C490 0.951 . S
H523 C491 0.950 . S
H524 C495 0.949 . S
H525 C496 0.945 1_554 S
H526 C500 0.950 . S
H527 C502 0.950 . S
H528 C505 0.950 . S
H529 C507 0.950 . S
C530 C531 1.443 . S
C530 N534 1.376 1_554 S
C530 C568 1.389 . S
C531 C530 1.443 . S
C531 C532 1.340 1_554 S
C531 H571 0.951 . S
C532 C531 1.340 1_556 S
C532 C533 1.439 . S
C532 H572 0.950 . S
C533 C532 1.439 . S
C533 N534 1.374 . S
C533 C567 1.395 . S
N534 C530 1.376 1_556 S
N534 C533 1.374 . S
N534 Co535 2.008 . S
Co535 N534 2.008 . S
Co535 N536 1.995 . S
Co535 N541 2.008 . S
Co535 N546 1.995 . S
Co535 N551 2.282 1_556 S
Co535 N557 2.282 . S
N536 Co535 1.995 . S
N536 C537 1.376 . S
N536 C540 1.383 . S
C537 N536 1.376 . S
C537 C538 1.446 . S
C537 C567 1.391 . S
C538 C537 1.446 . S
C538 C539 1.339 . S
C538 H573 0.949 . S
C539 C538 1.339 . S
C539 C540 1.439 . S
C539 H574 0.950 . S
C540 N536 1.383 . S
C540 C539 1.439 . S
C540 C569 1.392 . S
N541 Co535 2.008 . S
N541 C542 1.376 . S
N541 C545 1.374 . S
C542 N541 1.376 . S
C542 C543 1.443 . S
C542 C569 1.389 . S
C543 C542 1.443 . S
C543 C544 1.340 . S
C543 H575 0.951 . S
C544 C543 1.340 . S
C544 C545 1.439 . S
C544 H576 0.950 . S
C545 N541 1.374 . S
C545 C544 1.439 . S
C545 C570 1.395 . S
N546 Co535 1.995 . S
N546 C547 1.376 1_556 S
N546 C550 1.383 1_556 S
C547 N546 1.376 1_554 S
C547 C548 1.446 . S
C547 C570 1.391 1_554 S
C548 C547 1.446 . S
C548 C549 1.339 . S
C548 H577 0.949 . S
C549 C548 1.339 . S
C549 C550 1.439 . S
C549 H578 0.950 . S
C550 N546 1.383 1_554 S
C550 C549 1.439 . S
C550 C568 1.392 . S
N551 Co535 2.282 1_554 S
N551 C554 1.332 . S
N551 C556 1.332 . S
C552 C553 1.386 . S
C552 C555 1.388 . S
C553 C552 1.386 . S
C553 C554 1.382 . S
C553 H579 0.950 . S
C554 N551 1.332 . S
C554 C553 1.382 . S
C554 H565 0.952 . S
C555 C552 1.388 . S
C555 C556 1.382 . S
C555 H580 0.950 . S
C556 N551 1.332 . S
C556 C555 1.382 . S
C556 H566 0.948 1_554 S
N557 Co535 2.282 . S
N557 C561 1.332 . S
N557 C562 1.332 . S
C558 C559 1.388 . S
C558 C562 1.382 . S
C558 H581 0.950 . S
C559 C558 1.388 . S
C559 C560 1.386 . S
C560 C559 1.386 . S
C560 C561 1.382 . S
C560 H582 0.950 . S
C561 N557 1.332 . S
C561 C560 1.382 . S
C561 H563 0.952 . S
C562 N557 1.332 . S
C562 C558 1.382 . S
C562 H564 0.948 . S
H563 C561 0.952 . S
H564 C562 0.948 . S
H565 C554 0.952 . S
H566 C556 0.948 1_556 S
C567 C533 1.395 . S
C567 C537 1.391 . S
C568 C530 1.389 . S
C568 C550 1.392 . S
C569 C540 1.392 . S
C569 C542 1.389 . S
C570 C545 1.395 . S
C570 C547 1.391 1_556 S
H571 C531 0.951 . S
H572 C532 0.950 . S
H573 C538 0.949 . S
H574 C539 0.950 . S
H575 C543 0.951 . S
H576 C544 0.950 . S
H577 C548 0.949 . S
H578 C549 0.950 . S
H579 C553 0.950 . S
H580 C555 0.950 . S
H581 C558 0.950 . S
H582 C560 0.950 . S
C583 C584 1.443 . S
C583 N587 1.376 . S
C583 C621 1.380 1_455 S
C584 C583 1.443 . S
C584 C585 1.340 . S
C584 H624 0.951 . S
C585 C584 1.340 . S
C585 C586 1.439 . S
C585 H625 0.950 . S
C586 C585 1.439 . S
C586 N587 1.374 . S
C586 C620 1.395 . S
N587 C583 1.376 . S
N587 C586 1.374 . S
N587 Co588 2.008 1_455 S
Co588 N587 2.008 1_655 S
Co588 N589 1.995 1_655 S
Co588 N594 2.008 . S
Co588 N599 1.995 . S
Co588 N604 2.282 1_655 S
Co588 N610 2.282 . S
N589 Co588 1.995 1_455 S
N589 C590 1.376 . S
N589 C593 1.383 . S
C590 N589 1.376 . S
C590 C591 1.446 . S
C590 C620 1.391 . S
C591 C590 1.446 . S
C591 C592 1.339 . S
C591 H626 0.949 . S
C592 C591 1.339 . S
C592 C593 1.439 . S
C592 H627 0.950 . S
C593 N589 1.383 . S
C593 C592 1.439 . S
C593 C622 1.394 . S
N594 Co588 2.008 . S
N594 C595 1.376 . S
N594 C598 1.374 . S
C595 N594 1.376 . S
C595 C596 1.443 . S
C595 C622 1.387 1_655 S
C596 C595 1.443 . S
C596 C597 1.340 . S
C596 H628 0.951 . S
C597 C596 1.340 . S
C597 C598 1.439 . S
C597 H629 0.950 . S
C598 N594 1.374 . S
C598 C597 1.439 . S
C598 C623 1.395 . S
N599 Co588 1.995 . S
N599 C600 1.376 . S
N599 C603 1.383 . S
C600 N599 1.376 . S
C600 C601 1.446 1_556 S
C600 C623 1.391 . S
C601 C600 1.446 1_554 S
C601 C602 1.339 . S
C601 H630 0.949 . S
C602 C601 1.339 . S
C602 C603 1.439 1_554 S
C602 H631 0.950 . S
C603 N599 1.383 . S
C603 C602 1.439 1_556 S
C603 C621 1.400 . S
N604 Co588 2.282 1_455 S
N604 C607 1.332 1_556 S
N604 C609 1.332 . S
C605 C606 1.386 . S
C605 C608 1.388 1_554 S
C606 C605 1.386 . S
C606 C607 1.382 . S
C606 H632 0.950 . S
C607 N604 1.332 1_554 S
C607 C606 1.382 . S
C607 H618 0.952 1_455 S
C608 C605 1.388 1_556 S
C608 C609 1.382 . S
C608 H633 0.950 . S
C609 N604 1.332 . S
C609 C608 1.382 . S
C609 H619 0.948 . S
N610 Co588 2.282 . S
N610 C614 1.332 . S
N610 C615 1.332 . S
C611 C612 1.388 . S
C611 C615 1.382 . S
C611 H634 0.950 . S
C612 C611 1.388 . S
C612 C613 1.386 . S
C613 C612 1.386 . S
C613 C614 1.382 . S
C613 H635 0.950 . S
C614 N610 1.332 . S
C614 C613 1.382 . S
C614 H616 0.952 1_655 S
C615 N610 1.332 . S
C615 C611 1.382 . S
C615 H617 0.948 . S
H616 C614 0.952 1_455 S
H617 C615 0.948 . S
H618 C607 0.952 1_655 S
H619 C609 0.948 . S
C620 C586 1.395 . S
C620 C590 1.391 . S
C621 C583 1.380 1_655 S
C621 C603 1.400 . S
C622 C593 1.394 . S
C622 C595 1.387 1_455 S
C623 C598 1.395 . S
C623 C600 1.391 . S
H624 C584 0.951 . S
H625 C585 0.950 . S
H626 C591 0.949 . S
H627 C592 0.950 . S
H628 C596 0.951 . S
H629 C597 0.950 . S
H630 C601 0.949 . S
H631 C602 0.950 . S
H632 C606 0.950 . S
H633 C608 0.950 . S
H634 C611 0.950 . S
H635 C613 0.950 . S
C636 C637 1.443 . S
C636 N640 1.376 . S
C636 C674 1.389 . S
C637 C636 1.443 . S
C637 C638 1.340 . S
C637 H677 0.951 . S
C638 C637 1.340 . S
C638 C639 1.439 . S
C638 H678 0.950 . S
C639 C638 1.439 . S
C639 N640 1.374 . S
C639 C673 1.395 . S
N640 C636 1.376 . S
N640 C639 1.374 . S
N640 Co641 2.008 1_565 S
Co641 N640 2.008 1_545 S
Co641 N642 1.995 1_545 S
Co641 N647 2.008 . S
Co641 N652 1.995 . S
Co641 N657 2.282 1_545 S
Co641 N663 2.282 . S
N642 Co641 1.995 1_565 S
N642 C643 1.376 . S
N642 C646 1.383 . S
C643 N642 1.376 . S
C643 C644 1.446 . S
C643 C673 1.391 . S
C644 C643 1.446 . S
C644 C645 1.339 . S
C644 H679 0.949 . S
C645 C644 1.339 . S
C645 C646 1.439 . S
C645 H680 0.950 . S
C646 N642 1.383 . S
C646 C645 1.439 . S
C646 C675 1.392 1_565 S
N647 Co641 2.008 . S
N647 C648 1.376 . S
N647 C651 1.374 . S
C648 N647 1.376 . S
C648 C649 1.443 . S
C648 C675 1.389 . S
C649 C648 1.443 . S
C649 C650 1.340 . S
C649 H681 0.951 . S
C650 C649 1.340 . S
C650 C651 1.439 . S
C650 H682 0.950 . S
C651 N647 1.374 . S
C651 C650 1.439 . S
C651 C676 1.395 . S
N652 Co641 1.995 . S
N652 C653 1.376 . S
N652 C656 1.383 . S
C653 N652 1.376 . S
C653 C654 1.446 . S
C653 C676 1.391 . S
C654 C653 1.446 . S
C654 C655 1.339 . S
C654 H683 0.949 . S
C655 C654 1.339 . S
C655 C656 1.439 . S
C655 H684 0.950 . S
C656 N652 1.383 . S
C656 C655 1.439 . S
C656 C674 1.392 1_545 S
N657 Co641 2.282 1_565 S
N657 C660 1.332 1_565 S
N657 C662 1.332 . S
C658 C659 1.422 . S
C658 C661 1.388 . S
C659 C658 1.422 . S
C659 C660 1.374 1_565 S
C659 H685 0.923 1_565 S
C660 N657 1.332 1_545 S
C660 C659 1.374 1_545 S
C660 H671 0.952 . S
C661 C658 1.388 . S
C661 C662 1.382 . S
C661 H686 0.950 . S
C662 N657 1.332 . S
C662 C661 1.382 . S
C662 H672 0.948 . S
N663 Co641 2.282 . S
N663 C667 1.332 1_545 S
N663 C668 1.332 . S
C664 C665 1.388 . S
C664 C668 1.382 . S
C664 H687 0.950 . S
C665 C664 1.388 . S
C665 C666 1.386 . S
C666 C665 1.386 . S
C666 C667 1.382 1_545 S
C666 H688 0.950 1_545 S
C667 N663 1.332 1_565 S
C667 C666 1.382 1_565 S
C667 H669 0.952 . S
C668 N663 1.332 . S
C668 C664 1.382 . S
C668 H670 0.948 . S
H669 C667 0.952 . S
H670 C668 0.948 . S
H671 C660 0.952 . S
H672 C662 0.948 . S
C673 C639 1.395 . S
C673 C643 1.391 . S
C674 C636 1.389 . S
C674 C656 1.392 1_565 S
C675 C646 1.392 1_545 S
C675 C648 1.389 . S
C676 C651 1.395 . S
C676 C653 1.391 . S
H677 C637 0.951 . S
H678 C638 0.950 . S
H679 C644 0.949 . S
H680 C645 0.950 . S
H681 C649 0.951 . S
H682 C650 0.950 . S
H683 C654 0.949 . S
H684 C655 0.950 . S
H685 C659 0.923 1_545 S
H686 C661 0.950 . S
H687 C664 0.950 . S
H688 C666 0.950 1_565 S
C689 C690 1.443 . S
C689 N693 1.376 . S
C689 C727 1.389 . S
C690 C689 1.443 . S
C690 C691 1.340 . S
C690 H730 0.951 1_565 S
C691 C690 1.340 . S
C691 C692 1.439 . S
C691 H731 0.950 . S
C692 C691 1.439 . S
C692 N693 1.374 . S
C692 C726 1.395 . S
N693 C689 1.376 . S
N693 C692 1.374 . S
N693 Co694 2.008 . S
Co694 N693 2.008 . S
Co694 N695 1.995 . S
Co694 N700 2.008 . S
Co694 N705 1.995 . S
Co694 N710 2.282 . S
Co694 N716 2.282 . S
N695 Co694 1.995 . S
N695 C696 1.376 . S
N695 C699 1.383 . S
C696 N695 1.376 . S
C696 C697 1.446 . S
C696 C726 1.391 . S
C697 C696 1.446 . S
C697 C698 1.339 . S
C697 H732 0.949 . S
C698 C697 1.339 . S
C698 C699 1.439 . S
C698 H733 0.950 . S
C699 N695 1.383 . S
C699 C698 1.439 . S
C699 C728 1.392 . S
N700 Co694 2.008 . S
N700 C701 1.376 . S
N700 C704 1.374 . S
C701 N700 1.376 . S
C701 C702 1.443 . S
C701 C728 1.389 . S
C702 C701 1.443 . S
C702 C703 1.340 . S
C702 H734 0.951 . S
C703 C702 1.340 . S
C703 C704 1.439 . S
C703 H735 0.950 . S
C704 N700 1.374 . S
C704 C703 1.439 . S
C704 C729 1.395 . S
N705 Co694 1.995 . S
N705 C706 1.376 . S
N705 C709 1.383 . S
C706 N705 1.376 . S
C706 C707 1.446 . S
C706 C729 1.391 . S
C707 C706 1.446 . S
C707 C708 1.339 . S
C707 H736 0.949 . S
C708 C707 1.339 . S
C708 C709 1.439 . S
C708 H737 0.950 . S
C709 N705 1.383 . S
C709 C708 1.439 . S
C709 C727 1.392 . S
N710 Co694 2.282 . S
N710 C713 1.332 . S
N710 C715 1.332 . S
C711 C712 1.386 . S
C711 C714 1.388 . S
C712 C711 1.386 . S
C712 C713 1.382 . S
C712 H738 0.950 . S
C713 N710 1.332 . S
C713 C712 1.382 . S
C713 H724 0.952 . S
C714 C711 1.388 . S
C714 C715 1.382 . S
C714 H739 0.950 . S
C715 N710 1.332 . S
C715 C714 1.382 . S
C715 H725 0.948 . S
N716 Co694 2.282 . S
N716 C720 1.332 . S
N716 C721 1.332 . S
C717 C718 1.388 . S
C717 C721 1.382 . S
C717 H740 0.950 . S
C718 C717 1.388 . S
C718 C719 1.386 . S
C719 C718 1.386 . S
C719 C720 1.382 . S
C719 H741 0.950 . S
C720 N716 1.332 . S
C720 C719 1.382 . S
C720 H722 0.952 . S
C721 N716 1.332 . S
C721 C717 1.382 . S
C721 H723 0.948 . S
H722 C720 0.952 . S
H723 C721 0.948 . S
H724 C713 0.952 . S
H725 C715 0.948 . S
C726 C692 1.395 . S
C726 C696 1.391 . S
C727 C689 1.389 . S
C727 C709 1.392 . S
C728 C699 1.392 . S
C728 C701 1.389 . S
C729 C704 1.395 . S
C729 C706 1.391 . S
H730 C690 0.951 1_545 S
H731 C691 0.950 . S
H732 C697 0.949 . S
H733 C698 0.950 . S
H734 C702 0.951 . S
H735 C703 0.950 . S
H736 C707 0.949 . S
H737 C708 0.950 . S
H738 C712 0.950 . S
H739 C714 0.950 . S
H740 C717 0.950 . S
H741 C719 0.950 . S
C742 C743 1.443 . S
C742 N746 1.376 . S
C742 C780 1.389 . S
C743 C742 1.443 . S
C743 C744 1.340 . S
C743 H783 0.951 . S
C744 C743 1.340 . S
C744 C745 1.439 . S
C744 H784 0.950 . S
C745 C744 1.439 . S
C745 N746 1.374 . S
C745 C779 1.395 . S
N746 C742 1.376 . S
N746 C745 1.374 . S
N746 Co747 2.008 . S
Co747 N746 2.008 . S
Co747 N748 1.995 . S
Co747 N753 2.008 . S
Co747 N758 1.995 . S
Co747 N763 2.282 . S
Co747 N769 2.282 . S
N748 Co747 1.995 . S
N748 C749 1.376 . S
N748 C752 1.383 . S
C749 N748 1.376 . S
C749 C750 1.446 . S
C749 C779 1.391 . S
C750 C749 1.446 . S
C750 C751 1.339 . S
C750 H785 0.949 . S
C751 C750 1.339 . S
C751 C752 1.439 . S
C751 H786 0.950 . S
C752 N748 1.383 . S
C752 C751 1.439 . S
C752 C781 1.392 . S
N753 Co747 2.008 . S
N753 C754 1.376 . S
N753 C757 1.374 . S
C754 N753 1.376 . S
C754 C755 1.443 . S
C754 C781 1.389 . S
C755 C754 1.443 . S
C755 C756 1.340 . S
C755 H787 0.951 . S
C756 C755 1.340 . S
C756 C757 1.439 . S
C756 H788 0.950 . S
C757 N753 1.374 . S
C757 C756 1.439 . S
C757 C782 1.395 . S
N758 Co747 1.995 . S
N758 C759 1.376 . S
N758 C762 1.383 . S
C759 N758 1.376 . S
C759 C760 1.446 . S
C759 C782 1.391 . S
C760 C759 1.446 . S
C760 C761 1.339 . S
C760 H789 0.949 . S
C761 C760 1.339 . S
C761 C762 1.439 . S
C761 H790 0.950 . S
C762 N758 1.383 . S
C762 C761 1.439 . S
C762 C780 1.392 . S
N763 Co747 2.282 . S
N763 C766 1.332 . S
N763 C768 1.332 . S
C764 C765 1.386 . S
C764 C767 1.388 . S
C765 C764 1.386 . S
C765 C766 1.382 . S
C765 H791 0.950 . S
C766 N763 1.332 . S
C766 C765 1.382 . S
C766 H777 0.952 . S
C767 C764 1.388 . S
C767 C768 1.382 . S
C767 H792 0.950 . S
C768 N763 1.332 . S
C768 C767 1.382 . S
C768 H778 0.948 . S
N769 Co747 2.282 . S
N769 C773 1.332 . S
N769 C774 1.332 . S
C770 C771 1.388 . S
C770 C774 1.382 . S
C770 H793 0.950 . S
C771 C770 1.388 . S
C771 C772 1.386 . S
C772 C771 1.386 . S
C772 C773 1.382 . S
C772 H794 0.950 . S
C773 N769 1.332 . S
C773 C772 1.382 . S
C773 H775 0.952 . S
C774 N769 1.332 . S
C774 C770 1.382 . S
C774 H776 0.948 . S
H775 C773 0.952 . S
H776 C774 0.948 . S
H777 C766 0.952 . S
H778 C768 0.948 . S
C779 C745 1.395 . S
C779 C749 1.391 . S
C780 C742 1.389 . S
C780 C762 1.392 . S
C781 C752 1.392 . S
C781 C754 1.389 . S
C782 C757 1.395 . S
C782 C759 1.391 . S
H783 C743 0.951 . S
H784 C744 0.950 . S
H785 C750 0.949 . S
H786 C751 0.950 . S
H787 C755 0.951 . S
H788 C756 0.950 . S
H789 C760 0.949 . S
H790 C761 0.950 . S
H791 C765 0.950 . S
H792 C767 0.950 . S
H793 C770 0.950 . S
H794 C772 0.950 . S
C795 C796 1.443 . S
C795 N799 1.376 . S
C795 C833 1.389 . S
C796 C795 1.443 . S
C796 C797 1.340 . S
C796 H836 0.951 . S
C797 C796 1.340 . S
C797 C798 1.439 . S
C797 H837 0.950 . S
C798 C797 1.439 . S
C798 N799 1.374 . S
C798 C832 1.395 . S
N799 C795 1.376 . S
N799 C798 1.374 . S
N799 Co800 2.008 1_655 S
Co800 N799 2.008 1_455 S
Co800 N801 1.995 1_455 S
Co800 N806 2.008 . S
Co800 N811 1.995 . S
Co800 N816 2.282 1_455 S
Co800 N822 2.282 . S
N801 Co800 1.995 1_655 S
N801 C802 1.376 . S
N801 C805 1.383 . S
C802 N801 1.376 . S
C802 C803 1.446 . S
C802 C832 1.391 . S
C803 C802 1.446 . S
C803 C804 1.339 . S
C803 H838 0.949 . S
C804 C803 1.339 . S
C804 C805 1.439 . S
C804 H839 0.950 . S
C805 N801 1.383 . S
C805 C804 1.439 . S
C805 C834 1.392 1_655 S
N806 Co800 2.008 . S
N806 C807 1.376 . S
N806 C810 1.374 . S
C807 N806 1.376 . S
C807 C808 1.443 . S
C807 C834 1.389 . S
C808 C807 1.443 . S
C808 C809 1.340 . S
C808 H840 0.951 . S
C809 C808 1.340 . S
C809 C810 1.439 . S
C809 H841 0.950 . S
C810 N806 1.374 . S
C810 C809 1.439 . S
C810 C835 1.395 . S
N811 Co800 1.995 . S
N811 C812 1.376 . S
N811 C815 1.383 . S
C812 N811 1.376 . S
C812 C813 1.446 . S
C812 C835 1.391 . S
C813 C812 1.446 . S
C813 C814 1.339 . S
C813 H842 0.949 . S
C814 C813 1.339 . S
C814 C815 1.439 . S
C814 H843 0.950 . S
C815 N811 1.383 . S
C815 C814 1.439 . S
C815 C833 1.392 1_455 S
N816 Co800 2.282 1_655 S
N816 C819 1.332 . S
N816 C821 1.332 . S
C817 C818 1.386 . S
C817 C820 1.388 . S
C818 C817 1.386 . S
C818 C819 1.382 . S
C818 H844 0.950 . S
C819 N816 1.332 . S
C819 C818 1.382 . S
C819 H830 0.952 1_655 S
C820 C817 1.388 . S
C820 C821 1.382 . S
C820 H845 0.950 . S
C821 N816 1.332 . S
C821 C820 1.382 . S
C821 H831 0.948 . S
N822 Co800 2.282 . S
N822 C826 1.332 . S
N822 C827 1.332 . S
C823 C824 1.388 . S
C823 C827 1.382 . S
C823 H846 0.950 . S
C824 C823 1.388 . S
C824 C825 1.386 . S
C825 C824 1.386 . S
C825 C826 1.382 . S
C825 H847 0.950 . S
C826 N822 1.332 . S
C826 C825 1.382 . S
C826 H828 0.952 1_455 S
C827 N822 1.332 . S
C827 C823 1.382 . S
C827 H829 0.948 . S
H828 C826 0.952 1_655 S
H829 C827 0.948 . S
H830 C819 0.952 1_455 S
H831 C821 0.948 . S
C832 C798 1.395 . S
C832 C802 1.391 . S
C833 C795 1.389 . S
C833 C815 1.392 1_655 S
C834 C805 1.392 1_455 S
C834 C807 1.389 . S
C835 C810 1.395 . S
C835 C812 1.391 . S
H836 C796 0.951 . S
H837 C797 0.950 . S
H838 C803 0.949 . S
H839 C804 0.950 . S
H840 C808 0.951 . S
H841 C809 0.950 . S
H842 C813 0.949 . S
H843 C814 0.950 . S
H844 C818 0.950 . S
H845 C820 0.950 . S
H846 C823 0.950 . S
H847 C825 0.950 . S
C848 C849 1.387 . S
C848 H852 0.950 . S
C848 C857 1.390 . S
C849 C848 1.387 . S
C849 C851 1.387 . S
H850 C857 0.950 . S
C851 C849 1.387 . S
C851 C853 1.390 . S
C851 H855 0.950 . S
H852 C848 0.950 . S
C853 C851 1.390 . S
C853 C854 1.387 . S
C853 H856 0.950 . S
C854 C853 1.387 . S
C854 C857 1.387 . S
H855 C851 0.950 . S
H856 C853 0.950 . S
C857 C848 1.390 . S
C857 H850 0.950 . S
C857 C854 1.387 . S
C858 C859 1.387 . S
C858 H862 0.950 . S
C858 C867 1.390 . S
C859 C858 1.387 . S
C859 C861 1.387 . S
H860 C867 0.950 . S
C861 C859 1.387 . S
C861 C863 1.390 . S
C861 H865 0.950 . S
H862 C858 0.950 . S
C863 C861 1.390 . S
C863 C864 1.387 . S
C863 H866 0.950 . S
C864 C863 1.387 . S
C864 C867 1.387 . S
H865 C861 0.950 . S
H866 C863 0.950 . S
C867 C858 1.390 . S
C867 H860 0.950 . S
C867 C864 1.387 . S
C868 C869 1.387 1_655 S
C868 H872 0.950 . S
C868 C877 1.390 . S
C869 C868 1.387 1_455 S
C869 C871 1.387 . S
H870 C877 0.950 . S
C871 C869 1.387 . S
C871 C873 1.390 . S
C871 H875 0.950 . S
H872 C868 0.950 . S
C873 C871 1.390 . S
C873 C874 1.387 1_455 S
C873 H876 0.950 . S
C874 C873 1.387 1_655 S
C874 C877 1.387 . S
H875 C871 0.950 . S
H876 C873 0.950 . S
C877 C868 1.390 . S
C877 H870 0.950 . S
C877 C874 1.387 . S
C878 C879 1.393 . S
C878 H882 0.955 . S
C878 C887 1.379 1_455 S
C879 C878 1.393 . S
C879 C881 1.387 1_455 S
H880 C887 0.950 . S
C881 C879 1.387 1_655 S
C881 C883 1.391 . S
C881 H885 0.949 1_655 S
H882 C878 0.955 . S
C883 C881 1.391 . S
C883 C884 1.387 . S
C883 H886 0.950 . S
C884 C883 1.387 . S
C884 C887 1.387 . S
H885 C881 0.949 1_455 S
H886 C883 0.950 . S
C887 C878 1.379 1_655 S
C887 H880 0.950 . S
C887 C884 1.387 . S
C888 C889 1.387 . S
C888 H892 0.950 1_565 S
C888 C897 1.390 . S
C889 C888 1.387 . S
C889 C891 1.387 . S
H890 C897 0.950 1_545 S
C891 C889 1.387 . S
C891 C893 1.390 . S
C891 H895 0.950 . S
H892 C888 0.950 1_545 S
C893 C891 1.390 . S
C893 C894 1.387 . S
C893 H896 0.950 . S
C894 C893 1.387 . S
C894 C897 1.387 . S
H895 C891 0.950 . S
H896 C893 0.950 . S
C897 C888 1.390 . S
C897 H890 0.950 1_565 S
C897 C894 1.387 . S
C898 C899 1.387 . S
C898 H902 0.950 . S
C898 C907 1.390 . S
C899 C898 1.387 . S
C899 C901 1.387 . S
H900 C907 0.950 . S
C901 C899 1.387 . S
C901 C903 1.390 . S
C901 H905 0.950 . S
H902 C898 0.950 . S
C903 C901 1.390 . S
C903 C904 1.387 . S
C903 H906 0.950 . S
C904 C903 1.387 . S
C904 C907 1.387 . S
H905 C901 0.950 . S
H906 C903 0.950 . S
C907 C898 1.390 . S
C907 H900 0.950 . S
C907 C904 1.387 . S
C908 C909 1.387 . S
C908 H912 0.950 . S
C908 C917 1.390 . S
C909 C908 1.387 . S
C909 C911 1.387 . S
H910 C917 0.950 . S
C911 C909 1.387 . S
C911 C913 1.390 . S
C911 H915 0.950 . S
H912 C908 0.950 . S
C913 C911 1.390 . S
C913 C914 1.387 . S
C913 H916 0.950 . S
C914 C913 1.387 . S
C914 C917 1.387 . S
H915 C911 0.950 . S
H916 C913 0.950 . S
C917 C908 1.390 . S
C917 H910 0.950 . S
C917 C914 1.387 . S
C918 C919 1.387 . S
C918 H922 0.950 . S
C918 C927 1.390 . S
C919 C918 1.387 . S
C919 C921 1.387 . S
H920 C927 0.950 . S
C921 C919 1.387 . S
C921 C923 1.390 . S
C921 H925 0.950 . S
H922 C918 0.950 . S
C923 C921 1.390 . S
C923 C924 1.387 . S
C923 H926 0.950 . S
C924 C923 1.387 . S
C924 C927 1.387 . S
H925 C921 0.950 . S
H926 C923 0.950 . S
C927 C918 1.390 . S
C927 H920 0.950 . S
C927 C924 1.387 . S
C928 C929 1.387 . S
C928 H932 0.950 1_565 S
C928 C937 1.390 1_565 S
C929 C928 1.387 . S
C929 C931 1.387 . S
H930 C937 0.950 . S
C931 C929 1.387 . S
C931 C933 1.390 . S
C931 H935 0.950 . S
H932 C928 0.950 1_545 S
C933 C931 1.390 . S
C933 C934 1.387 . S
C933 H936 0.950 . S
C934 C933 1.387 . S
C934 C937 1.387 1_565 S
H935 C931 0.950 . S
H936 C933 0.950 . S
C937 C928 1.390 1_545 S
C937 H930 0.950 . S
C937 C934 1.387 1_545 S
C938 C939 1.387 . S
C938 H942 0.950 . S
C938 C947 1.390 . S
C939 C938 1.387 . S
C939 C941 1.387 . S
H940 C947 0.950 . S
C941 C939 1.387 . S
C941 C943 1.390 . S
C941 H945 0.950 . S
H942 C938 0.950 . S
C943 C941 1.390 . S
C943 C944 1.387 . S
C943 H946 0.950 . S
C944 C943 1.387 . S
C944 C947 1.387 . S
H945 C941 0.950 . S
H946 C943 0.950 . S
C947 C938 1.390 . S
C947 H940 0.950 . S
C947 C944 1.387 . S
C948 C949 1.387 . S
C948 H952 0.950 . S
C948 C957 1.390 . S
C949 C948 1.387 . S
C949 C951 1.387 . S
H950 C957 0.950 . S
C951 C949 1.387 . S
C951 C953 1.390 . S
C951 H955 0.950 . S
H952 C948 0.950 . S
C953 C951 1.390 . S
C953 C954 1.387 . S
C953 H956 0.950 . S
C954 C953 1.387 . S
C954 C957 1.387 . S
H955 C951 0.950 . S
H956 C953 0.950 . S
C957 C948 1.390 . S
C957 H950 0.950 . S
C957 C954 1.387 . S
C958 C959 1.387 . S
C958 H962 0.950 . S
C958 C967 1.390 . S
C959 C958 1.387 . S
C959 C961 1.385 1_655 S
H960 C967 0.950 . S
C961 C959 1.385 1_455 S
C961 C963 1.391 . S
C961 H965 0.951 . S
H962 C958 0.950 . S
C963 C961 1.391 . S
C963 C964 1.387 1_455 S
C963 H966 0.950 . S
C964 C963 1.387 1_655 S
C964 C967 1.387 . S
H965 C961 0.951 . S
H966 C963 0.950 . S
C967 C958 1.390 . S
C967 H960 0.950 . S
C967 C964 1.387 . S
C968 C969 1.387 . S
C968 H972 0.950 . S
C968 C977 1.390 . S
C969 C968 1.387 . S
C969 C971 1.387 . S
H970 C977 0.950 . S
C971 C969 1.387 . S
C971 C973 1.390 . S
C971 H975 0.950 . S
H972 C968 0.950 . S
C973 C971 1.390 . S
C973 C974 1.387 . S
C973 H976 0.950 . S
C974 C973 1.387 . S
C974 C977 1.387 . S
H975 C971 0.950 . S
H976 C973 0.950 . S
C977 C968 1.390 . S
C977 H970 0.950 . S
C977 C974 1.387 . S
C978 C979 1.387 . S
C978 H982 0.950 . S
C978 C987 1.390 . S
C979 C978 1.387 . S
C979 C981 1.387 . S
H980 C987 0.950 . S
C981 C979 1.387 . S
C981 C983 1.390 . S
C981 H985 0.950 . S
H982 C978 0.950 . S
C983 C981 1.390 . S
C983 C984 1.387 . S
C983 H986 0.950 . S
C984 C983 1.387 . S
C984 C987 1.387 . S
H985 C981 0.950 . S
H986 C983 0.950 . S
C987 C978 1.390 . S
C987 H980 0.950 . S
C987 C984 1.387 . S
C988 C989 1.387 . S
C988 H992 0.950 . S
C988 C997 1.390 . S
C989 C988 1.387 . S
C989 C991 1.387 . S
H990 C997 0.950 . S
C991 C989 1.387 . S
C991 C993 1.390 . S
C991 H995 0.950 . S
H992 C988 0.950 . S
C993 C991 1.390 . S
C993 C994 1.387 . S
C993 H996 0.950 . S
C994 C993 1.387 . S
C994 C997 1.387 . S
H995 C991 0.950 . S
H996 C993 0.950 . S
C997 C988 1.390 . S
C997 H990 0.950 . S
C997 C994 1.387 . S
C998 C999 1.387 . S
C998 H1002 0.950 . S
C998 C1007 1.390 . S
C999 C998 1.387 . S
C999 C1001 1.387 1_455 S
H1000 C1007 0.950 . S
C1001 C999 1.387 1_655 S
C1001 C1003 1.390 . S
C1001 H1005 0.950 . S
H1002 C998 0.950 . S
C1003 C1001 1.390 . S
C1003 C1004 1.387 1_655 S
C1003 H1006 0.950 . S
C1004 C1003 1.387 1_455 S
C1004 C1007 1.387 . S
H1005 C1001 0.950 . S
H1006 C1003 0.950 . S
C1007 C998 1.390 . S
C1007 H1000 0.950 . S
C1007 C1004 1.387 . S
C1008 C1009 1.387 . S
C1008 H1012 0.950 . S
C1008 C1017 1.390 . S
C1009 C1008 1.387 . S
C1009 C1011 1.387 1_545 S
H1010 C1017 0.950 . S
C1011 C1009 1.387 1_565 S
C1011 C1013 1.390 . S
C1011 H1015 0.950 . S
H1012 C1008 0.950 . S
C1013 C1011 1.390 . S
C1013 C1014 1.387 1_565 S
C1013 H1016 0.950 . S
C1014 C1013 1.387 1_545 S
C1014 C1017 1.387 . S
H1015 C1011 0.950 . S
H1016 C1013 0.950 . S
C1017 C1008 1.390 . S
C1017 H1010 0.950 . S
C1017 C1014 1.387 . S
C1018 C1019 1.387 . S
C1018 H1022 0.950 . S
C1018 C1027 1.390 . S
C1019 C1018 1.387 . S
C1019 C1021 1.387 . S
H1020 C1027 0.950 . S
C1021 C1019 1.387 . S
C1021 C1023 1.390 . S
C1021 H1025 0.950 . S
H1022 C1018 0.950 . S
C1023 C1021 1.390 . S
C1023 C1024 1.387 . S
C1023 H1026 0.950 . S
C1024 C1023 1.387 . S
C1024 C1027 1.387 . S
H1025 C1021 0.950 . S
H1026 C1023 0.950 . S
C1027 C1018 1.390 . S
C1027 H1020 0.950 . S
C1027 C1024 1.387 . S
C1028 C1029 1.387 . S
C1028 H1032 0.950 . S
C1028 C1037 1.390 . S
C1029 C1028 1.387 . S
C1029 C1031 1.387 . S
H1030 C1037 0.950 . S
C1031 C1029 1.387 . S
C1031 C1033 1.390 . S
C1031 H1035 0.950 . S
H1032 C1028 0.950 . S
C1033 C1031 1.390 . S
C1033 C1034 1.387 . S
C1033 H1036 0.950 . S
C1034 C1033 1.387 . S
C1034 C1037 1.387 . S
H1035 C1031 0.950 . S
H1036 C1033 0.950 . S
C1037 C1028 1.390 . S
C1037 H1030 0.950 . S
C1037 C1034 1.387 . S
C1038 C1039 1.387 . S
C1038 H1042 0.950 . S
C1038 C1047 1.390 . S
C1039 C1038 1.387 . S
C1039 C1041 1.387 . S
H1040 C1047 0.950 . S
C1041 C1039 1.387 . S
C1041 C1043 1.390 . S
C1041 H1045 0.950 . S
H1042 C1038 0.950 . S
C1043 C1041 1.390 . S
C1043 C1044 1.387 . S
C1043 H1046 0.950 . S
C1044 C1043 1.387 . S
C1044 C1047 1.387 . S
H1045 C1041 0.950 . S
H1046 C1043 0.950 . S
C1047 C1038 1.390 . S
C1047 H1040 0.950 . S
C1047 C1044 1.387 . S
C1048 C1049 1.387 . S
C1048 H1052 0.950 . S
C1048 C1057 1.390 . S
C1049 C1048 1.387 . S
C1049 C1051 1.387 1_565 S
H1050 C1057 0.950 . S
C1051 C1049 1.387 1_545 S
C1051 C1053 1.390 . S
C1051 H1055 0.950 . S
H1052 C1048 0.950 . S
C1053 C1051 1.390 . S
C1053 C1054 1.387 1_545 S
C1053 H1056 0.950 . S
C1054 C1053 1.387 1_565 S
C1054 C1057 1.387 . S
H1055 C1051 0.950 . S
H1056 C1053 0.950 . S
C1057 C1048 1.390 . S
C1057 H1050 0.950 . S
C1057 C1054 1.387 . S
C1058 C1059 1.387 . S
C1058 H1062 0.950 . S
C1058 C1067 1.390 . S
C1059 C1058 1.387 . S
C1059 C1061 1.387 . S
H1060 C1067 0.950 . S
C1061 C1059 1.387 . S
C1061 C1063 1.390 . S
C1061 H1065 0.950 . S
H1062 C1058 0.950 . S
C1063 C1061 1.390 . S
C1063 C1064 1.387 . S
C1063 H1066 0.950 . S
C1064 C1063 1.387 . S
C1064 C1067 1.387 . S
H1065 C1061 0.950 . S
H1066 C1063 0.950 . S
C1067 C1058 1.390 . S
C1067 H1060 0.950 . S
C1067 C1064 1.387 . S
C1068 C1069 1.387 . S
C1068 H1072 0.950 . S
C1068 C1077 1.390 . S
C1069 C1068 1.387 . S
C1069 C1071 1.387 . S
H1070 C1077 0.950 . S
C1071 C1069 1.387 . S
C1071 C1073 1.390 . S
C1071 H1075 0.950 . S
H1072 C1068 0.950 . S
C1073 C1071 1.390 . S
C1073 C1074 1.387 . S
C1073 H1076 0.950 . S
C1074 C1073 1.387 . S
C1074 C1077 1.387 . S
H1075 C1071 0.950 . S
H1076 C1073 0.950 . S
C1077 C1068 1.390 . S
C1077 H1070 0.950 . S
C1077 C1074 1.387 . S
C1078 C1079 1.387 . S
C1078 H1082 0.950 . S
C1078 C1087 1.390 . S
C1079 C1078 1.387 . S
C1079 C1081 1.387 . S
H1080 C1087 0.950 . S
C1081 C1079 1.387 . S
C1081 C1083 1.390 . S
C1081 H1085 0.950 . S
H1082 C1078 0.950 . S
C1083 C1081 1.390 . S
C1083 C1084 1.387 . S
C1083 H1086 0.950 . S
C1084 C1083 1.387 . S
C1084 C1087 1.387 . S
H1085 C1081 0.950 . S
H1086 C1083 0.950 . S
C1087 C1078 1.390 . S
C1087 H1080 0.950 . S
C1087 C1084 1.387 . S
C1088 C1089 1.387 . S
C1088 H1092 0.950 . S
C1088 C1097 1.390 . S
C1089 C1088 1.387 . S
C1089 C1091 1.387 1_545 S
H1090 C1097 0.950 . S
C1091 C1089 1.387 1_565 S
C1091 C1093 1.390 . S
C1091 H1095 0.950 . S
H1092 C1088 0.950 . S
C1093 C1091 1.390 . S
C1093 C1094 1.352 1_565 S
C1093 H1096 0.950 . S
C1094 C1093 1.352 1_545 S
C1094 C1097 1.424 . S
H1095 C1091 0.950 . S
H1096 C1093 0.950 . S
C1097 C1088 1.390 . S
C1097 H1090 0.950 . S
C1097 C1094 1.424 . S
C1098 C1099 1.387 . S
C1098 H1102 0.950 . S
C1098 C1107 1.390 . S
C1099 C1098 1.387 . S
C1099 C1101 1.387 . S
H1100 C1107 0.950 . S
C1101 C1099 1.387 . S
C1101 C1103 1.390 . S
C1101 H1105 0.950 1_556 S
H1102 C1098 0.950 . S
C1103 C1101 1.390 . S
C1103 C1104 1.387 . S
C1103 H1106 0.950 . S
C1104 C1103 1.387 . S
C1104 C1107 1.387 . S
H1105 C1101 0.950 1_554 S
H1106 C1103 0.950 . S
C1107 C1098 1.390 . S
C1107 H1100 0.950 . S
C1107 C1104 1.387 . S
C1108 C1109 1.387 1_556 S
C1108 H1112 0.950 . S
C1108 C1117 1.390 . S
C1109 C1108 1.387 1_554 S
C1109 C1111 1.387 . S
H1110 C1117 0.950 . S
C1111 C1109 1.387 . S
C1111 C1113 1.390 . S
C1111 H1115 0.950 . S
H1112 C1108 0.950 . S
C1113 C1111 1.390 . S
C1113 C1114 1.387 . S
C1113 H1116 0.950 . S
C1114 C1113 1.387 . S
C1114 C1117 1.387 1_554 S
H1115 C1111 0.950 . S
H1116 C1113 0.950 . S
C1117 C1108 1.390 . S
C1117 H1110 0.950 . S
C1117 C1114 1.387 1_556 S
C1118 C1119 1.387 1_455 S
C1118 H1122 0.950 . S
C1118 C1127 1.390 1_545 S
C1119 C1118 1.387 1_655 S
C1119 C1121 1.387 . S
H1120 C1127 0.950 . S
C1121 C1119 1.387 . S
C1121 C1123 1.390 1_545 S
C1121 H1125 0.950 . S
H1122 C1118 0.950 . S
C1123 C1121 1.390 1_565 S
C1123 C1124 1.405 . S
C1123 H1126 0.950 . S
C1124 C1123 1.405 . S
C1124 C1127 1.370 1_655 S
H1125 C1121 0.950 . S
H1126 C1123 0.950 . S
C1127 C1118 1.390 1_565 S
C1127 H1120 0.950 . S
C1127 C1124 1.370 1_455 S
C1128 C1129 1.387 . S
C1128 H1132 0.950 . S
C1128 C1137 1.390 . S
C1129 C1128 1.387 . S
C1129 C1131 1.387 1_565 S
H1130 C1137 0.950 . S
C1131 C1129 1.387 1_545 S
C1131 C1133 1.390 . S
C1131 H1135 0.950 . S
H1132 C1128 0.950 . S
C1133 C1131 1.390 . S
C1133 C1134 1.387 1_545 S
C1133 H1136 0.950 . S
C1134 C1133 1.387 1_565 S
C1134 C1137 1.387 . S
H1135 C1131 0.950 . S
H1136 C1133 0.950 . S
C1137 C1128 1.390 . S
C1137 H1130 0.950 . S
C1137 C1134 1.387 . S
C1138 C1139 1.387 . S
C1138 H1142 0.950 . S
C1138 C1147 1.390 . S
C1139 C1138 1.387 . S
C1139 C1141 1.387 . S
H1140 C1147 0.950 . S
C1141 C1139 1.387 . S
C1141 C1143 1.390 . S
C1141 H1145 0.950 . S
H1142 C1138 0.950 . S
C1143 C1141 1.390 . S
C1143 C1144 1.387 . S
C1143 H1146 0.950 . S
C1144 C1143 1.387 . S
C1144 C1147 1.387 . S
H1145 C1141 0.950 . S
H1146 C1143 0.950 . S
C1147 C1138 1.390 . S
C1147 H1140 0.950 . S
C1147 C1144 1.387 . S
C1148 C1149 1.387 . S
C1148 H1152 0.950 . S
C1148 C1157 1.390 . S
C1149 C1148 1.387 . S
C1149 C1151 1.387 . S
H1150 C1157 0.950 . S
C1151 C1149 1.387 . S
C1151 C1153 1.390 . S
C1151 H1155 0.950 . S
H1152 C1148 0.950 . S
C1153 C1151 1.390 . S
C1153 C1154 1.387 . S
C1153 H1156 0.950 . S
C1154 C1153 1.387 . S
C1154 C1157 1.387 . S
H1155 C1151 0.950 . S
H1156 C1153 0.950 . S
C1157 C1148 1.390 . S
C1157 H1150 0.950 . S
C1157 C1154 1.387 . S
C1158 C1159 1.390 . S
C1158 H1162 0.950 . S
C1158 C1167 1.390 . S
C1159 C1158 1.390 . S
C1159 C1161 1.385 1_655 S
H1160 C1167 0.950 . S
C1161 C1159 1.385 1_455 S
C1161 C1163 1.390 . S
C1161 H1165 0.950 . S
H1162 C1158 0.950 . S
C1163 C1161 1.390 . S
C1163 C1164 1.388 . S
C1163 H1166 0.950 . S
C1164 C1163 1.388 . S
C1164 C1167 1.387 1_455 S
H1165 C1161 0.950 . S
H1166 C1163 0.950 . S
C1167 C1158 1.390 . S
C1167 H1160 0.950 . S
C1167 C1164 1.387 1_655 S
C849 C303 1.322 . S
C854 C29 1.244 . S
C859 C347 1.421 . S
C864 C91 1.496 . S
C869 C135 1.210 . S
C874 C409 1.366 . S
C879 C197 1.102 . S
C884 C241 0.967 . S
C889 C453 1.469 . S
C894 C718 1.339 . S
C899 C771 1.740 . S
C904 C506 1.711 . S
C909 C824 1.627 . S
C914 C559 1.620 . S
C919 C612 1.127 . S
C924 C665 1.211 . S
C929 C22 2.376 . S
C934 C675 2.466 1_565 S
C939 C728 2.186 . S
C944 C92 2.158 . S
C949 C128 2.586 . S
C954 C781 2.703 . S
C959 C198 1.993 . S
C964 C834 1.991 1_655 S
C969 C234 2.403 . S
C974 C463 2.494 1_545 S
C979 C304 2.421 . S
C984 C516 2.469 . S
C989 C340 2.413 . S
C994 C569 2.492 . S
C999 C410 1.765 . S
C1004 C622 1.744 . S
C1009 C251 1.394 . S
C1014 C446 1.442 . S
C1019 C287 2.086 . S
C1024 C499 2.062 . S
C1029 C357 2.223 . S
C1034 C552 2.135 . S
C1039 C605 2.095 . S
C1044 C393 2.167 1_455 S
C1049 C39 1.693 . S
C1054 C658 1.686 . S
C1059 C711 2.212 . S
C1064 C75 2.281 . S
C1069 C764 1.814 . S
C1074 C145 1.847 . S
C1079 C181 2.101 1_655 S
C1084 C817 2.056 . S
C1089 C462 1.701 . S
C1094 C38 1.757 . S
C1099 C515 2.284 . S
C1104 C82 2.195 . S
C1109 C144 2.497 1_554 S
C1114 C568 2.412 . S
C1119 C621 2.075 . S
C1124 C188 2.024 1_655 S
C1129 C250 2.072 . S
C1134 C674 1.997 . S
C1139 C727 2.579 1_545 S
C1144 C294 2.477 . S
C1149 C780 2.096 . S
C1154 C356 2.158 . S
C1159 C833 1.759 . S
C1164 C400 1.711 . S
