# Generated by pormake.
# Topology gis, (4)-cn, num edge types: 1
# Building blocks:
#     Node 0, Type 0, BuildingBlock: ICAMEG_clean_sbu_1, # of connection points: 4
#     Node 1, Type 0, BuildingBlock: ICAMEG_clean_sbu_1, # of connection points: 4
#     Node 2, Type 0, BuildingBlock: ICAMEG_clean_sbu_1, # of connection points: 4
#     Node 3, Type 0, BuildingBlock: ICAMEG_clean_sbu_1, # of connection points: 4
#     Node 4, Type 0, BuildingBlock: ICAMEG_clean_sbu_1, # of connection points: 4
#     Node 5, Type 0, BuildingBlock: ICAMEG_clean_sbu_1, # of connection points: 4
#     Node 6, Type 0, BuildingBlock: ICAMEG_clean_sbu_1, # of connection points: 4
#     Node 7, Type 0, BuildingBlock: ICAMEG_clean_sbu_1, # of connection points: 4
#     Node 8, Type 0, BuildingBlock: ICAMEG_clean_sbu_1, # of connection points: 4
#     Node 9, Type 0, BuildingBlock: ICAMEG_clean_sbu_1, # of connection points: 4
#     Node 10, Type 0, BuildingBlock: ICAMEG_clean_sbu_1, # of connection points: 4
#     Node 11, Type 0, BuildingBlock: ICAMEG_clean_sbu_1, # of connection points: 4
#     Node 12, Type 0, BuildingBlock: ICAMEG_clean_sbu_1, # of connection points: 4
#     Node 13, Type 0, BuildingBlock: ICAMEG_clean_sbu_1, # of connection points: 4
#     Node 14, Type 0, BuildingBlock: ICAMEG_clean_sbu_1, # of connection points: 4
#     Node 15, Type 0, BuildingBlock: ICAMEG_clean_sbu_1, # of connection points: 4
#     Edge 16, Type (0, 0), BuildingBlock: ZUJKAS_clean_linker_0, # of connection points: 2
#     Edge 17, Type (0, 0), BuildingBlock: ZUJKAS_clean_linker_0, # of connection points: 2
#     Edge 18, Type (0, 0), BuildingBlock: ZUJKAS_clean_linker_0, # of connection points: 2
#     Edge 19, Type (0, 0), BuildingBlock: ZUJKAS_clean_linker_0, # of connection points: 2
#     Edge 20, Type (0, 0), BuildingBlock: ZUJKAS_clean_linker_0, # of connection points: 2
#     Edge 21, Type (0, 0), BuildingBlock: ZUJKAS_clean_linker_0, # of connection points: 2
#     Edge 22, Type (0, 0), BuildingBlock: ZUJKAS_clean_linker_0, # of connection points: 2
#     Edge 23, Type (0, 0), BuildingBlock: ZUJKAS_clean_linker_0, # of connection points: 2
#     Edge 24, Type (0, 0), BuildingBlock: ZUJKAS_clean_linker_0, # of connection points: 2
#     Edge 25, Type (0, 0), BuildingBlock: ZUJKAS_clean_linker_0, # of connection points: 2
#     Edge 26, Type (0, 0), BuildingBlock: ZUJKAS_clean_linker_0, # of connection points: 2
#     Edge 27, Type (0, 0), BuildingBlock: ZUJKAS_clean_linker_0, # of connection points: 2
#     Edge 28, Type (0, 0), BuildingBlock: ZUJKAS_clean_linker_0, # of connection points: 2
#     Edge 29, Type (0, 0), BuildingBlock: ZUJKAS_clean_linker_0, # of connection points: 2
#     Edge 30, Type (0, 0), BuildingBlock: ZUJKAS_clean_linker_0, # of connection points: 2
#     Edge 31, Type (0, 0), BuildingBlock: ZUJKAS_clean_linker_0, # of connection points: 2
#     Edge 32, Type (0, 0), BuildingBlock: ZUJKAS_clean_linker_0, # of connection points: 2
#     Edge 33, Type (0, 0), BuildingBlock: ZUJKAS_clean_linker_0, # of connection points: 2
#     Edge 34, Type (0, 0), BuildingBlock: ZUJKAS_clean_linker_0, # of connection points: 2
#     Edge 35, Type (0, 0), BuildingBlock: ZUJKAS_clean_linker_0, # of connection points: 2
#     Edge 36, Type (0, 0), BuildingBlock: ZUJKAS_clean_linker_0, # of connection points: 2
#     Edge 37, Type (0, 0), BuildingBlock: ZUJKAS_clean_linker_0, # of connection points: 2
#     Edge 38, Type (0, 0), BuildingBlock: ZUJKAS_clean_linker_0, # of connection points: 2
#     Edge 39, Type (0, 0), BuildingBlock: ZUJKAS_clean_linker_0, # of connection points: 2
#     Edge 40, Type (0, 0), BuildingBlock: ZUJKAS_clean_linker_0, # of connection points: 2
#     Edge 41, Type (0, 0), BuildingBlock: ZUJKAS_clean_linker_0, # of connection points: 2
#     Edge 42, Type (0, 0), BuildingBlock: ZUJKAS_clean_linker_0, # of connection points: 2
#     Edge 43, Type (0, 0), BuildingBlock: ZUJKAS_clean_linker_0, # of connection points: 2
#     Edge 44, Type (0, 0), BuildingBlock: ZUJKAS_clean_linker_0, # of connection points: 2
#     Edge 45, Type (0, 0), BuildingBlock: ZUJKAS_clean_linker_0, # of connection points: 2
#     Edge 46, Type (0, 0), BuildingBlock: ZUJKAS_clean_linker_0, # of connection points: 2
#     Edge 47, Type (0, 0), BuildingBlock: ZUJKAS_clean_linker_0, # of connection points: 2
# Relax obj value: 0.027
# Max RMSD: 0.090
# Mean RMSD: 0.089
data_MOF--net-gis--node1-ICAMEG_clean_sbu_1--edge1-ZUJKAS_clean_linker_0
_symmetry_space_group_name_H-M    P1
_symmetry_Int_Tables_number       1
_symmetry_cell_setting            triclinic
loop_
_symmetry_equiv_pos_as_xyz
'x, y, z'
_cell_length_a     74.487401
_cell_length_b     74.436096
_cell_length_c     45.44807
_cell_angle_alpha  90.068864
_cell_angle_beta   90.042907
_cell_angle_gamma 89.999146
loop_
_atom_site_label
_atom_site_type_symbol
_atom_site_fract_x
_atom_site_fract_y
_atom_site_fract_z
_atom_type_partial_charge
Co0 Co 0.13083 0.62051 0.08658 0.0
Co1 Co 0.12787 0.61731 0.16234 0.0
O2 O 0.13788 0.61025 0.12437 0.0
C3 C 0.12348 0.58184 0.08052 0.0
O4 O 0.11569 0.5829 0.10635 0.0
C5 C 0.16666 0.62398 0.16839 0.0
O6 O 0.16581 0.6318 0.14256 0.0
O7 O 0.13063 0.64327 0.15293 0.0
O8 O 0.13104 0.64526 0.10356 0.0
H9 H 0.08773 0.65244 0.23006 0.0
H10 H 0.16225 0.59613 0.08991 0.0
O11 O 0.13043 0.5958 0.06898 0.0
H12 H 0.18595 0.65352 0.05225 0.0
H13 H 0.13269 0.62556 0.97619 0.0
H14 H 0.10531 0.64875 0.06742 0.0
H15 H 0.15369 0.65008 0.06305 0.0
H16 H 0.14148 0.61326 0.0245 0.0
O17 O 0.15259 0.6172 0.17979 0.0
H18 H 0.10022 0.64333 0.18204 0.0
H19 H 0.13503 0.60621 0.22423 0.0
H20 H 0.09623 0.66154 0.01962 0.0
H21 H 0.19459 0.59893 0.07916 0.0
H22 H 0.10996 0.64993 0.97357 0.0
H23 H 0.20664 0.62781 0.06029 0.0
O24 O 0.10486 0.61823 0.09625 0.0
H25 H 0.14828 0.55309 0.16864 0.0
H26 H 0.09797 0.59486 0.18583 0.0
H27 H 0.09397 0.56259 0.19616 0.0
H28 H 0.11925 0.54146 0.18757 0.0
H29 H 0.15165 0.58546 0.15839 0.0
H30 H 0.12303 0.61502 0.27273 0.0
H31 H 0.09915 0.63824 0.27583 0.0
O32 O 0.1031 0.61765 0.14561 0.0
C33 C 0.13117 0.65235 0.12915 0.0
C34 C 0.09809 0.64226 0.22899 0.0
C35 C 0.11792 0.62128 0.25294 0.0
N36 N 0.11823 0.62415 0.20034 0.0
C37 C 0.10518 0.63701 0.20186 0.0
C38 C 0.12469 0.61637 0.22543 0.0
C39 C 0.10452 0.6343 0.25466 0.0
C40 C 0.16737 0.60868 0.08142 0.0
N41 N 0.15609 0.62289 0.07698 0.0
C42 C 0.1857 0.61021 0.0755 0.0
C43 C 0.19246 0.62643 0.06494 0.0
C44 C 0.18086 0.64086 0.06045 0.0
C45 C 0.16261 0.63885 0.06666 0.0
C46 C 0.12664 0.63076 0.99611 0.0
C47 C 0.11143 0.64371 0.04748 0.0
C48 C 0.13154 0.62382 0.0235 0.0
N49 N 0.12401 0.63039 0.04874 0.0
C50 C 0.10619 0.65097 0.02048 0.0
C51 C 0.11389 0.64444 0.99465 0.0
C52 C 0.09589 0.61778 0.12014 0.0
C53 C 0.13718 0.56217 0.17255 0.0
C54 C 0.10902 0.58575 0.182 0.0
C55 C 0.10669 0.56749 0.18794 0.0
C56 C 0.12088 0.55565 0.18313 0.0
N57 N 0.12505 0.59204 0.17165 0.0
C58 C 0.13903 0.58052 0.16691 0.0
Co59 Co 0.63129 0.87731 0.41276 0.0
Co60 Co 0.62817 0.88101 0.33708 0.0
O61 O 0.63828 0.88778 0.37513 0.0
C62 C 0.62414 0.91596 0.41966 0.0
O63 O 0.61624 0.91513 0.39387 0.0
C64 C 0.66691 0.87424 0.33095 0.0
O65 O 0.66597 0.86615 0.35655 0.0
O66 O 0.63081 0.85496 0.34601 0.0
O67 O 0.63127 0.85268 0.39533 0.0
H68 H 0.58775 0.84652 0.26882 0.0
H69 H 0.66286 0.9015 0.40971 0.0
O70 O 0.6311 0.90189 0.43084 0.0
H71 H 0.68629 0.84368 0.44612 0.0
H72 H 0.63345 0.87143 0.52302 0.0
H73 H 0.6056 0.84913 0.43152 0.0
H74 H 0.65402 0.84741 0.4356 0.0
H75 H 0.64218 0.88402 0.47492 0.0
O76 O 0.65287 0.88115 0.3196 0.0
H77 H 0.60035 0.85526 0.31697 0.0
H78 H 0.63529 0.89247 0.27538 0.0
H79 H 0.59657 0.83606 0.47912 0.0
H80 H 0.69521 0.8984 0.42018 0.0
H81 H 0.61054 0.84722 0.52531 0.0
H82 H 0.70713 0.8693 0.43842 0.0
O83 O 0.60532 0.87984 0.40324 0.0
H84 H 0.64883 0.94518 0.33185 0.0
H85 H 0.59832 0.90373 0.31405 0.0
H86 H 0.59443 0.93608 0.30429 0.0
H87 H 0.61981 0.95705 0.31318 0.0
H88 H 0.65208 0.91274 0.34154 0.0
H89 H 0.62318 0.88403 0.22674 0.0
H90 H 0.59918 0.86095 0.22327 0.0
O91 O 0.60341 0.88068 0.35389 0.0
C92 C 0.63132 0.84573 0.36964 0.0
C93 C 0.59816 0.85664 0.27005 0.0
C94 C 0.61806 0.87768 0.24643 0.0
N95 N 0.61843 0.87446 0.29898 0.0
C96 C 0.60531 0.86168 0.29726 0.0
C97 C 0.6249 0.88237 0.27402 0.0
C98 C 0.60459 0.86473 0.2445 0.0
C99 C 0.66792 0.88885 0.41793 0.0
N100 N 0.65655 0.87468 0.42218 0.0
C101 C 0.68626 0.88715 0.4237 0.0
C102 C 0.69294 0.87082 0.43389 0.0
C103 C 0.68126 0.85643 0.4382 0.0
C104 C 0.663 0.85861 0.43215 0.0
C105 C 0.62729 0.86643 0.50305 0.0
C106 C 0.61182 0.85397 0.45151 0.0
C107 C 0.63216 0.87353 0.47576 0.0
N108 N 0.62451 0.86721 0.45044 0.0
C109 C 0.60661 0.84656 0.4784 0.0
C110 C 0.61444 0.85284 0.50431 0.0
C111 C 0.59628 0.88048 0.37941 0.0
C112 C 0.63769 0.93617 0.32781 0.0
C113 C 0.60941 0.91277 0.31802 0.0
C114 C 0.60715 0.93107 0.3124 0.0
C115 C 0.6214 0.94283 0.31738 0.0
N116 N 0.62544 0.90635 0.32823 0.0
C117 C 0.63947 0.91778 0.33313 0.0
Co118 Co 0.37109 0.38115 0.66586 0.0
Co119 Co 0.36729 0.37857 0.59014 0.0
O120 O 0.36057 0.38843 0.62838 0.0
C121 C 0.33249 0.37394 0.67268 0.0
O122 O 0.33328 0.36618 0.64676 0.0
C123 C 0.374 0.41739 0.58435 0.0
O124 O 0.38227 0.41642 0.60981 0.0
O125 O 0.39333 0.38128 0.59907 0.0
O126 O 0.39568 0.3813 0.6484 0.0
H127 H 0.40181 0.33872 0.52109 0.0
H128 H 0.3469 0.41276 0.66344 0.0
O129 O 0.34656 0.38083 0.68396 0.0
H130 H 0.4047 0.43596 0.7004 0.0
H131 H 0.37712 0.38252 0.77616 0.0
H132 H 0.39932 0.35537 0.68408 0.0
H133 H 0.40098 0.40375 0.68917 0.0
H134 H 0.36446 0.39159 0.72825 0.0
O135 O 0.36699 0.40337 0.57306 0.0
H136 H 0.39312 0.351 0.56948 0.0
H137 H 0.35565 0.386 0.52859 0.0
H138 H 0.41247 0.346 0.73149 0.0
H139 H 0.34998 0.44505 0.67464 0.0
H140 H 0.40135 0.35962 0.77796 0.0
H141 H 0.37907 0.45685 0.69317 0.0
O142 O 0.36857 0.35522 0.65586 0.0
H143 H 0.30306 0.39899 0.58548 0.0
H144 H 0.34465 0.34874 0.56665 0.0
H145 H 0.31231 0.34478 0.55694 0.0
H146 H 0.29128 0.37003 0.56635 0.0
H147 H 0.33549 0.40233 0.59511 0.0
H148 H 0.36402 0.37421 0.47973 0.0
H149 H 0.38721 0.35035 0.47579 0.0
O150 O 0.36776 0.3537 0.60648 0.0
C151 C 0.40258 0.38162 0.62271 0.0
C152 C 0.39164 0.34908 0.52253 0.0
C153 C 0.37045 0.36902 0.49932 0.0
N154 N 0.37379 0.36909 0.55185 0.0
C155 C 0.38663 0.35604 0.54987 0.0
C156 C 0.36579 0.37566 0.52703 0.0
C157 C 0.38346 0.35562 0.49712 0.0
C158 C 0.35955 0.41776 0.67177 0.0
N159 N 0.37371 0.40637 0.67578 0.0
C160 C 0.36123 0.43607 0.67795 0.0
C161 C 0.37756 0.44269 0.68831 0.0
C162 C 0.39195 0.43098 0.69236 0.0
C163 C 0.38978 0.41276 0.68591 0.0
C164 C 0.3821 0.37651 0.75606 0.0
C165 C 0.3945 0.36143 0.70421 0.0
C166 C 0.37496 0.38157 0.72888 0.0
N167 N 0.38125 0.37411 0.7034 0.0
C168 C 0.40196 0.35604 0.73098 0.0
C169 C 0.3957 0.36367 0.75705 0.0
C170 C 0.36797 0.34636 0.63183 0.0
C171 C 0.3121 0.38791 0.58121 0.0
C172 C 0.33558 0.35978 0.57084 0.0
C173 C 0.31729 0.35747 0.56525 0.0
C174 C 0.30549 0.37164 0.57052 0.0
N175 N 0.34196 0.37578 0.58131 0.0
C176 C 0.33048 0.38974 0.5865 0.0
Co177 Co 0.87064 0.11782 0.83574 0.0
Co178 Co 0.86772 0.12115 0.9115 0.0
O179 O 0.86051 0.11095 0.87371 0.0
C180 C 0.83197 0.12512 0.82977 0.0
O181 O 0.83304 0.13313 0.85545 0.0
C182 C 0.87431 0.08234 0.91789 0.0
O183 O 0.88204 0.08305 0.89196 0.0
O184 O 0.89363 0.11828 0.90186 0.0
O185 O 0.89543 0.11775 0.85249 0.0
H186 H 0.90317 0.16157 0.97843 0.0
H187 H 0.84636 0.08635 0.83963 0.0
O188 O 0.84591 0.11806 0.81833 0.0
H189 H 0.90365 0.06256 0.80172 0.0
H190 H 0.8754 0.11539 0.72534 0.0
H191 H 0.89873 0.14335 0.81607 0.0
H192 H 0.90018 0.09489 0.81219 0.0
H193 H 0.86327 0.10681 0.77384 0.0
O194 O 0.86762 0.09651 0.92922 0.0
H195 H 0.89384 0.14886 0.93064 0.0
H196 H 0.85684 0.11431 0.97359 0.0
H197 H 0.91135 0.15222 0.76806 0.0
H198 H 0.8492 0.05394 0.82922 0.0
H199 H 0.89966 0.1382 0.72227 0.0
H200 H 0.87803 0.04185 0.81022 0.0
O201 O 0.8683 0.14386 0.84516 0.0
H202 H 0.80353 0.10089 0.91868 0.0
H203 H 0.84544 0.15123 0.93496 0.0
H204 H 0.81323 0.15534 0.94561 0.0
H205 H 0.79204 0.13004 0.93749 0.0
H206 H 0.83583 0.09741 0.9081 0.0
H207 H 0.86587 0.12654 0.02187 0.0
H208 H 0.88914 0.15039 0.02448 0.0
O209 O 0.86802 0.14585 0.89452 0.0
C210 C 0.90261 0.11766 0.87799 0.0
C211 C 0.89297 0.15122 0.97757 0.0
C212 C 0.87205 0.13154 0.00196 0.0
N213 N 0.87471 0.13097 0.94933 0.0
C214 C 0.8876 0.14401 0.95058 0.0
C215 C 0.86702 0.12465 0.97457 0.0
C216 C 0.8851 0.14493 0.0034 0.0
C217 C 0.85889 0.08121 0.83109 0.0
N218 N 0.87306 0.09251 0.82639 0.0
C219 C 0.86044 0.06284 0.82535 0.0
C220 C 0.87663 0.05606 0.81473 0.0
C221 C 0.89102 0.06767 0.80997 0.0
C222 C 0.88898 0.08596 0.816 0.0
C223 C 0.88062 0.12157 0.74514 0.0
C224 C 0.89366 0.13711 0.79624 0.0
C225 C 0.87378 0.11679 0.77265 0.0
N226 N 0.88039 0.12447 0.79775 0.0
C227 C 0.90082 0.14222 0.76912 0.0
C228 C 0.89424 0.13436 0.74343 0.0
C229 C 0.86796 0.15295 0.86898 0.0
C230 C 0.81264 0.11199 0.92239 0.0
C231 C 0.8363 0.14017 0.93133 0.0
C232 C 0.81808 0.14256 0.93745 0.0
C233 C 0.8062 0.12836 0.9329 0.0
N234 N 0.84251 0.12406 0.92104 0.0
C235 C 0.83095 0.11008 0.91655 0.0
Co236 Co 0.13025 0.37614 0.91471 0.0
Co237 Co 0.12745 0.37969 0.83898 0.0
O238 O 0.13736 0.38659 0.87711 0.0
C239 C 0.12293 0.41479 0.9214 0.0
O240 O 0.11513 0.41393 0.89553 0.0
C241 C 0.16626 0.37312 0.83322 0.0
O242 O 0.16533 0.36515 0.85891 0.0
O243 O 0.13022 0.35368 0.84806 0.0
O244 O 0.13043 0.35148 0.8974 0.0
H245 H 0.08751 0.34481 0.77048 0.0
H246 H 0.16171 0.40048 0.91192 0.0
O247 O 0.12987 0.40075 0.93267 0.0
H248 H 0.18525 0.34284 0.94891 0.0
H249 H 0.13194 0.37048 0.02503 0.0
H250 H 0.10462 0.34787 0.9333 0.0
H251 H 0.15301 0.3464 0.93797 0.0
H252 H 0.14083 0.38302 0.97696 0.0
O253 O 0.1522 0.37993 0.82175 0.0
H254 H 0.09988 0.35373 0.81871 0.0
H255 H 0.13474 0.39108 0.77729 0.0
H256 H 0.09544 0.33484 0.98086 0.0
H257 H 0.19403 0.39755 0.92281 0.0
H258 H 0.10914 0.34616 0.02715 0.0
H259 H 0.206 0.36855 0.94135 0.0
O260 O 0.1043 0.37853 0.90488 0.0
H261 H 0.14775 0.44397 0.8336 0.0
H262 H 0.09755 0.40218 0.81552 0.0
H263 H 0.09352 0.43449 0.80552 0.0
H264 H 0.11874 0.45562 0.81455 0.0
H265 H 0.15115 0.41157 0.84352 0.0
H266 H 0.12286 0.38247 0.72857 0.0
H267 H 0.09903 0.35923 0.72498 0.0
O268 O 0.10263 0.37923 0.85551 0.0
C269 C 0.13067 0.34449 0.87174 0.0
C270 C 0.09786 0.355 0.77177 0.0
C271 C 0.11771 0.37611 0.74824 0.0
N272 N 0.1179 0.37301 0.80081 0.0
C273 C 0.10487 0.36014 0.79902 0.0
C274 C 0.12441 0.38091 0.77587 0.0
C275 C 0.10433 0.36308 0.74624 0.0
C276 C 0.1668 0.38787 0.92026 0.0
N277 N 0.15548 0.37366 0.92444 0.0
C278 C 0.18512 0.38627 0.92627 0.0
C279 C 0.19183 0.36998 0.93663 0.0
C280 C 0.1802 0.35555 0.94086 0.0
C281 C 0.16196 0.35763 0.93458 0.0
C282 C 0.1259 0.36541 0.005 0.0
C283 C 0.11072 0.35278 0.95334 0.0
C284 C 0.13085 0.37248 0.97774 0.0
N285 N 0.12335 0.36607 0.95236 0.0
C286 C 0.10543 0.34539 0.98021 0.0
C287 C 0.11311 0.35176 0.00618 0.0
C288 C 0.09537 0.37905 0.88093 0.0
C289 C 0.13667 0.43488 0.82949 0.0
C290 C 0.10858 0.4113 0.81955 0.0
C291 C 0.10623 0.42957 0.81379 0.0
C292 C 0.12039 0.44142 0.81885 0.0
N293 N 0.1246 0.40499 0.82996 0.0
C294 C 0.13855 0.41652 0.83495 0.0
Co295 Co 0.86798 0.87808 0.08696 0.0
Co296 Co 0.8715 0.88143 0.16265 0.0
O297 O 0.86119 0.88841 0.12485 0.0
C298 C 0.87507 0.91677 0.08041 0.0
O299 O 0.88316 0.91591 0.10604 0.0
C300 C 0.83276 0.87476 0.16941 0.0
O301 O 0.83345 0.86684 0.14362 0.0
O302 O 0.86867 0.85543 0.15335 0.0
O303 O 0.86807 0.85338 0.104 0.0
H304 H 0.91218 0.84646 0.22968 0.0
H305 H 0.83643 0.90226 0.09085 0.0
O306 O 0.86805 0.90272 0.06923 0.0
H307 H 0.81278 0.84461 0.05391 0.0
H308 H 0.86519 0.87265 0.97664 0.0
H309 H 0.89355 0.84998 0.06739 0.0
H310 H 0.84511 0.84829 0.06399 0.0
H311 H 0.85673 0.88505 0.02506 0.0
O312 O 0.84691 0.88158 0.18056 0.0
H313 H 0.89931 0.85547 0.18188 0.0
H314 H 0.86481 0.89265 0.22465 0.0
H315 H 0.90231 0.8371 0.01946 0.0
H316 H 0.80402 0.89922 0.08082 0.0
H317 H 0.88809 0.84845 0.97365 0.0
H318 H 0.792 0.87021 0.06231 0.0
O319 O 0.89401 0.88058 0.09611 0.0
H320 H 0.85114 0.94566 0.16924 0.0
H321 H 0.90158 0.90392 0.18556 0.0
H322 H 0.90565 0.93621 0.19579 0.0
H323 H 0.88031 0.95732 0.18764 0.0
H324 H 0.84769 0.91327 0.15907 0.0
H325 H 0.8772 0.88395 0.27294 0.0
H326 H 0.90111 0.86074 0.27564 0.0
O327 O 0.89614 0.88107 0.14545 0.0
C328 C 0.86805 0.84632 0.12958 0.0
C329 C 0.90181 0.85663 0.22878 0.0
C330 C 0.88216 0.87765 0.25306 0.0
N331 N 0.88144 0.87467 0.20048 0.0
C332 C 0.89451 0.86182 0.20178 0.0
C333 C 0.87517 0.8825 0.22567 0.0
C334 C 0.89558 0.86463 0.25456 0.0
C335 C 0.83132 0.88966 0.08252 0.0
N336 N 0.84266 0.8755 0.07788 0.0
C337 C 0.81295 0.88799 0.077 0.0
C338 C 0.80621 0.8717 0.06665 0.0
C339 C 0.81786 0.85733 0.06195 0.0
C340 C 0.83615 0.85948 0.06775 0.0
C341 C 0.87146 0.86757 0.99645 0.0
C342 C 0.88722 0.8549 0.04756 0.0
C343 C 0.86675 0.87456 0.02391 0.0
N344 N 0.87454 0.86813 0.04902 0.0
C345 C 0.89227 0.8476 0.02048 0.0
C346 C 0.8843 0.85399 0.99479 0.0
C347 C 0.90316 0.88104 0.11985 0.0
C348 C 0.86226 0.93658 0.17296 0.0
C349 C 0.8905 0.91302 0.18192 0.0
C350 C 0.89287 0.93129 0.1878 0.0
C351 C 0.87864 0.94312 0.18324 0.0
N352 N 0.87439 0.90671 0.17186 0.0
C353 C 0.86037 0.91823 0.16736 0.0
Co354 Co 0.37135 0.61704 0.33632 0.0
Co355 Co 0.3681 0.62075 0.412 0.0
O356 O 0.361 0.61042 0.37425 0.0
C357 C 0.33276 0.62451 0.32971 0.0
O358 O 0.33373 0.63263 0.35531 0.0
C359 C 0.37427 0.58192 0.41911 0.0
O360 O 0.38201 0.58234 0.39318 0.0
O361 O 0.39403 0.61761 0.40275 0.0
O362 O 0.39605 0.61694 0.3534 0.0
H363 H 0.40361 0.66121 0.47878 0.0
H364 H 0.34687 0.58573 0.34028 0.0
O365 O 0.34672 0.61733 0.31856 0.0
H366 H 0.40422 0.5614 0.30355 0.0
H367 H 0.37667 0.61396 0.22603 0.0
H368 H 0.39969 0.6423 0.31665 0.0
H369 H 0.40089 0.59381 0.31354 0.0
H370 H 0.36423 0.60573 0.27447 0.0
O371 O 0.36771 0.59624 0.43012 0.0
H372 H 0.3944 0.64832 0.43106 0.0
H373 H 0.35683 0.61441 0.47403 0.0
H374 H 0.41261 0.65082 0.26869 0.0
H375 H 0.34956 0.55326 0.33034 0.0
H376 H 0.40109 0.6366 0.22295 0.0
H377 H 0.37842 0.54089 0.31194 0.0
O378 O 0.36913 0.64315 0.34533 0.0
H379 H 0.30371 0.6011 0.41858 0.0
H380 H 0.34596 0.65117 0.43466 0.0
H381 H 0.31374 0.65562 0.44478 0.0
H382 H 0.29237 0.63047 0.43675 0.0
H383 H 0.33603 0.59727 0.40853 0.0
H384 H 0.36573 0.62683 0.52225 0.0
H385 H 0.38923 0.65046 0.5248 0.0
O386 O 0.36872 0.64535 0.39465 0.0
C387 C 0.40312 0.61689 0.37899 0.0
C388 C 0.39331 0.65097 0.47794 0.0
C389 C 0.37207 0.63165 0.50234 0.0
N390 N 0.37499 0.63074 0.44977 0.0
C391 C 0.38801 0.64366 0.45099 0.0
C392 C 0.36711 0.62464 0.475 0.0
C393 C 0.38525 0.64491 0.50376 0.0
C394 C 0.35941 0.58048 0.332 0.0
N395 N 0.37367 0.59166 0.32736 0.0
C396 C 0.36088 0.56207 0.32653 0.0
C397 C 0.37709 0.55513 0.31624 0.0
C398 C 0.39157 0.56663 0.31155 0.0
C399 C 0.38962 0.58497 0.3173 0.0
C400 C 0.38183 0.62022 0.24581 0.0
C401 C 0.39468 0.63598 0.29685 0.0
C402 C 0.37481 0.61564 0.27329 0.0
N403 N 0.38133 0.62343 0.29836 0.0
C404 C 0.40202 0.64089 0.26976 0.0
C405 C 0.39553 0.63292 0.2441 0.0
C406 C 0.36881 0.65234 0.36904 0.0
C407 C 0.31289 0.61215 0.42225 0.0
C408 C 0.33674 0.64016 0.43108 0.0
C409 C 0.31852 0.64276 0.4369 0.0
C410 C 0.30654 0.62863 0.4324 0.0
N411 N 0.34287 0.62395 0.42115 0.0
C412 C 0.33121 0.61003 0.41671 0.0
Co413 Co 0.62698 0.1182 0.66233 0.0
Co414 Co 0.6304 0.12113 0.58659 0.0
O415 O 0.63725 0.11102 0.6246 0.0
C416 C 0.66572 0.12497 0.6689 0.0
O417 O 0.66498 0.13268 0.64298 0.0
C418 C 0.62333 0.08238 0.58054 0.0
O419 O 0.61541 0.08335 0.60629 0.0
O420 O 0.60438 0.11871 0.59582 0.0
O421 O 0.60232 0.11841 0.64516 0.0
H422 H 0.59598 0.16173 0.51868 0.0
H423 H 0.65085 0.08639 0.65914 0.0
O424 O 0.65159 0.11822 0.68019 0.0
H425 H 0.593 0.06355 0.69622 0.0
H426 H 0.62147 0.11636 0.77266 0.0
H427 H 0.59915 0.14422 0.68129 0.0
H428 H 0.59698 0.09578 0.68554 0.0
H429 H 0.63379 0.10737 0.72446 0.0
O430 O 0.63025 0.09639 0.56914 0.0
H431 H 0.60482 0.14914 0.56675 0.0
H432 H 0.64154 0.11379 0.52476 0.0
H433 H 0.58635 0.15351 0.72899 0.0
H434 H 0.6475 0.05407 0.66976 0.0
H435 H 0.59752 0.13954 0.77511 0.0
H436 H 0.61839 0.04245 0.68834 0.0
O437 O 0.62974 0.14414 0.65272 0.0
H438 H 0.69432 0.09989 0.58056 0.0
H439 H 0.65326 0.15076 0.56324 0.0
H440 H 0.68558 0.15435 0.55304 0.0
H441 H 0.70635 0.12878 0.56169 0.0
H442 H 0.66193 0.09694 0.59069 0.0
H443 H 0.63299 0.1259 0.47621 0.0
H444 H 0.61011 0.15009 0.47298 0.0
O445 O 0.63036 0.14593 0.60335 0.0
C446 C 0.59526 0.11834 0.61957 0.0
C447 C 0.60601 0.15123 0.51981 0.0
C448 C 0.62677 0.1311 0.49597 0.0
N449 N 0.62378 0.13086 0.54856 0.0
C450 C 0.61111 0.14409 0.54697 0.0
C451 C 0.63152 0.12428 0.52351 0.0
C452 C 0.61393 0.14468 0.49418 0.0
C453 C 0.6382 0.08146 0.6675 0.0
N454 N 0.62416 0.09297 0.67186 0.0
C455 C 0.63636 0.06313 0.67335 0.0
C456 C 0.62001 0.05662 0.68374 0.0
C457 C 0.60576 0.06845 0.68815 0.0
C458 C 0.60808 0.08668 0.68202 0.0
C459 C 0.61647 0.12252 0.75272 0.0
C460 C 0.60399 0.138 0.70125 0.0
C461 C 0.62342 0.11751 0.72537 0.0
N462 N 0.61709 0.12517 0.70009 0.0
C463 C 0.59674 0.14335 0.7282 0.0
C464 C 0.60303 0.13552 0.75407 0.0
C465 C 0.63036 0.15313 0.62885 0.0
C466 C 0.6854 0.11111 0.57662 0.0
C467 C 0.66222 0.13959 0.56711 0.0
C468 C 0.6805 0.14169 0.56124 0.0
C469 C 0.69214 0.12733 0.56608 0.0
N470 N 0.65571 0.12363 0.57743 0.0
C471 C 0.66704 0.10949 0.5822 0.0
Co472 Co 0.86736 0.3777 0.91376 0.0
Co473 Co 0.87051 0.38098 0.83803 0.0
O474 O 0.86045 0.38804 0.87596 0.0
C475 C 0.87485 0.41633 0.92011 0.0
O476 O 0.88278 0.4153 0.89438 0.0
C477 C 0.8317 0.37451 0.8318 0.0
O478 O 0.83249 0.36668 0.85763 0.0
O479 O 0.86762 0.35501 0.84734 0.0
O480 O 0.86713 0.35297 0.89669 0.0
H481 H 0.91061 0.34573 0.77042 0.0
H482 H 0.83603 0.40218 0.91032 0.0
O483 O 0.86778 0.40238 0.93146 0.0
H484 H 0.81205 0.3448 0.94754 0.0
H485 H 0.86518 0.37248 0.02411 0.0
H486 H 0.89276 0.34937 0.93299 0.0
H487 H 0.84435 0.34815 0.93699 0.0
H488 H 0.85656 0.38488 0.97579 0.0
O489 O 0.84582 0.38122 0.82045 0.0
H490 H 0.89808 0.35486 0.8184 0.0
H491 H 0.86352 0.39217 0.77614 0.0
H492 H 0.90167 0.33648 0.98081 0.0
H493 H 0.80366 0.39946 0.92082 0.0
H494 H 0.88784 0.34805 0.0268 0.0
H495 H 0.79147 0.37058 0.93948 0.0
O496 O 0.89337 0.37992 0.90427 0.0
H497 H 0.85041 0.44529 0.83181 0.0
H498 H 0.90056 0.40331 0.81478 0.0
H499 H 0.90473 0.43557 0.80455 0.0
H500 H 0.87953 0.45681 0.81307 0.0
H501 H 0.84687 0.41294 0.84195 0.0
H502 H 0.87557 0.38335 0.72767 0.0
H503 H 0.89934 0.36002 0.72463 0.0
O504 O 0.89525 0.38051 0.85491 0.0
C505 C 0.86701 0.34591 0.87109 0.0
C506 C 0.9003 0.35596 0.77147 0.0
C507 C 0.88061 0.37705 0.74747 0.0
N508 N 0.8802 0.37414 0.80006 0.0
C509 C 0.8932 0.36122 0.79858 0.0
C510 C 0.87382 0.38197 0.77496 0.0
C511 C 0.89396 0.36397 0.74578 0.0
C512 C 0.83085 0.38963 0.91871 0.0
N513 N 0.84208 0.37538 0.92317 0.0
C514 C 0.8125 0.38815 0.9245 0.0
C515 C 0.80566 0.37193 0.93493 0.0
C516 C 0.8172 0.35746 0.93944 0.0
C517 C 0.83548 0.35942 0.93337 0.0
C518 C 0.87128 0.3673 0.00422 0.0
C519 C 0.88661 0.35439 0.9529 0.0
C520 C 0.86648 0.37429 0.97681 0.0
N521 N 0.87405 0.36775 0.95161 0.0
C522 C 0.89174 0.34708 0.97992 0.0
C523 C 0.88399 0.35359 0.00571 0.0
C524 C 0.9024 0.38035 0.88043 0.0
C525 C 0.86147 0.43617 0.82793 0.0
C526 C 0.88954 0.41247 0.81857 0.0
C527 C 0.89197 0.43072 0.81269 0.0
C528 C 0.87782 0.44262 0.81746 0.0
N529 N 0.87346 0.40624 0.82882 0.0
C530 C 0.85952 0.41782 0.83352 0.0
Co531 Co 0.36721 0.12113 0.58716 0.0
Co532 Co 0.3707 0.11835 0.66289 0.0
O533 O 0.3604 0.1111 0.62521 0.0
C534 C 0.3743 0.08239 0.58124 0.0
O535 O 0.38232 0.08344 0.60691 0.0
C536 C 0.33195 0.12501 0.66955 0.0
O537 O 0.33262 0.13277 0.64365 0.0
O538 O 0.36789 0.14427 0.65319 0.0
O539 O 0.36733 0.14597 0.60381 0.0
H540 H 0.41135 0.15384 0.72938 0.0
H541 H 0.33566 0.09699 0.5914 0.0
O542 O 0.36729 0.09636 0.56982 0.0
H543 H 0.31203 0.15438 0.55354 0.0
H544 H 0.36444 0.12573 0.47676 0.0
H545 H 0.39279 0.14909 0.56714 0.0
H546 H 0.34435 0.15077 0.56373 0.0
H547 H 0.35597 0.11371 0.52538 0.0
O548 O 0.34613 0.11832 0.68079 0.0
H549 H 0.3985 0.14446 0.68173 0.0
H550 H 0.36402 0.10758 0.72507 0.0
H551 H 0.40155 0.1616 0.519 0.0
H552 H 0.30325 0.09997 0.58128 0.0
H553 H 0.38734 0.1499 0.47338 0.0
H554 H 0.29124 0.12885 0.5623 0.0
O555 O 0.39324 0.11871 0.59636 0.0
H556 H 0.35036 0.05417 0.67055 0.0
H557 H 0.40079 0.09604 0.68615 0.0
H558 H 0.40487 0.06383 0.69693 0.0
H559 H 0.37953 0.04266 0.68914 0.0
H560 H 0.34691 0.08647 0.65983 0.0
H561 H 0.37638 0.11666 0.77323 0.0
H562 H 0.40028 0.1399 0.77556 0.0
O563 O 0.39534 0.1186 0.6457 0.0
C564 C 0.36734 0.15322 0.62927 0.0
C565 C 0.40099 0.14366 0.72864 0.0
C566 C 0.38134 0.12281 0.75325 0.0
N567 N 0.38064 0.12539 0.70062 0.0
C568 C 0.3937 0.13826 0.70172 0.0
C569 C 0.37437 0.11775 0.72594 0.0
C570 C 0.39475 0.13584 0.75455 0.0
C571 C 0.33055 0.10954 0.58287 0.0
N572 N 0.34189 0.12365 0.57802 0.0
C573 C 0.31218 0.11117 0.57729 0.0
C574 C 0.30545 0.12739 0.56668 0.0
C575 C 0.3171 0.14172 0.56178 0.0
C576 C 0.33539 0.13961 0.56765 0.0
C577 C 0.37071 0.13096 0.49648 0.0
C578 C 0.38646 0.14401 0.54739 0.0
C579 C 0.36599 0.12418 0.52406 0.0
N580 N 0.37378 0.13079 0.54906 0.0
C581 C 0.39152 0.15111 0.5202 0.0
C582 C 0.38355 0.14453 0.49461 0.0
C583 C 0.40238 0.11846 0.62011 0.0
C584 C 0.36148 0.06327 0.67411 0.0
C585 C 0.38971 0.08691 0.68266 0.0
C586 C 0.39209 0.06869 0.68886 0.0
C587 C 0.37786 0.05682 0.6845 0.0
N588 N 0.3736 0.09314 0.6725 0.0
C589 C 0.35959 0.08159 0.6682 0.0
Co590 Co 0.6278 0.61757 0.33673 0.0
Co591 Co 0.63091 0.62122 0.41243 0.0
O592 O 0.63801 0.61085 0.37472 0.0
C593 C 0.66646 0.62476 0.33052 0.0
O594 O 0.66548 0.63282 0.35616 0.0
C595 C 0.62419 0.58248 0.41914 0.0
O596 O 0.61634 0.5832 0.39331 0.0
O597 O 0.60496 0.61842 0.40292 0.0
O598 O 0.60306 0.61761 0.35357 0.0
H599 H 0.59582 0.66208 0.47905 0.0
H600 H 0.65204 0.58608 0.34093 0.0
O601 O 0.65248 0.6177 0.3192 0.0
H602 H 0.59462 0.56218 0.30359 0.0
H603 H 0.62274 0.6146 0.22638 0.0
H604 H 0.5997 0.64304 0.31686 0.0
H605 H 0.59817 0.59456 0.31357 0.0
H606 H 0.635 0.60625 0.27493 0.0
O607 O 0.63097 0.59663 0.43038 0.0
H608 H 0.60497 0.64913 0.43137 0.0
H609 H 0.64189 0.61457 0.47455 0.0
H610 H 0.58696 0.65169 0.26879 0.0
H611 H 0.64912 0.55362 0.33101 0.0
H612 H 0.59849 0.63743 0.22313 0.0
H613 H 0.62022 0.54147 0.31231 0.0
O614 O 0.6302 0.64364 0.34583 0.0
H615 H 0.69505 0.60076 0.41962 0.0
H616 H 0.65336 0.65131 0.43549 0.0
H617 H 0.6856 0.65535 0.44598 0.0
H618 H 0.70668 0.62995 0.43806 0.0
H619 H 0.66272 0.59735 0.40918 0.0
H620 H 0.63304 0.62704 0.52273 0.0
H621 H 0.6099 0.65102 0.52517 0.0
O622 O 0.63067 0.64586 0.39516 0.0
C623 C 0.59593 0.61769 0.37909 0.0
C624 C 0.60596 0.65168 0.47827 0.0
C625 C 0.62683 0.63199 0.50279 0.0
N626 N 0.62404 0.63122 0.45018 0.0
C627 C 0.61123 0.64434 0.45133 0.0
C628 C 0.63176 0.62496 0.47546 0.0
C629 C 0.61385 0.64545 0.50414 0.0
C630 C 0.63948 0.58091 0.33251 0.0
N631 N 0.62532 0.59221 0.3277 0.0
C632 C 0.63788 0.56251 0.32705 0.0
C633 C 0.62165 0.5557 0.3166 0.0
C634 C 0.60728 0.56731 0.31172 0.0
C635 C 0.60936 0.58563 0.31746 0.0
C636 C 0.61758 0.62089 0.24613 0.0
C637 C 0.60471 0.6367 0.29709 0.0
C638 C 0.62449 0.61624 0.27366 0.0
N639 N 0.61796 0.62406 0.29869 0.0
C640 C 0.59748 0.64169 0.26993 0.0
C641 C 0.60397 0.63369 0.24432 0.0
C642 C 0.63067 0.65284 0.36953 0.0
C643 C 0.68598 0.61191 0.42323 0.0
C644 C 0.66245 0.6402 0.43194 0.0
C645 C 0.68069 0.64256 0.43797 0.0
C646 C 0.69251 0.6283 0.43354 0.0
N647 N 0.65616 0.62408 0.42186 0.0
C648 C 0.66766 0.61003 0.41748 0.0
Co649 Co 0.12743 0.8803 0.16565 0.0
Co650 Co 0.13123 0.87737 0.08995 0.0
O651 O 0.13795 0.88741 0.1281 0.0
C652 C 0.16606 0.87317 0.17263 0.0
O653 O 0.16529 0.86536 0.14675 0.0
C654 C 0.12449 0.91616 0.08388 0.0
O655 O 0.11638 0.91525 0.10947 0.0
O656 O 0.10519 0.88005 0.09881 0.0
O657 O 0.10284 0.88034 0.14813 0.0
H658 H 0.09681 0.8371 0.02135 0.0
H659 H 0.1516 0.91189 0.16291 0.0
O660 O 0.15196 0.88006 0.18382 0.0
H661 H 0.09379 0.93524 0.19938 0.0
H662 H 0.12139 0.88215 0.27591 0.0
H663 H 0.09923 0.85456 0.1841 0.0
H664 H 0.09753 0.90298 0.1886 0.0
H665 H 0.13405 0.89102 0.22792 0.0
O666 O 0.13143 0.9021 0.07259 0.0
H667 H 0.10548 0.84962 0.0696 0.0
H668 H 0.14281 0.88458 0.02833 0.0
H669 H 0.0861 0.84539 0.23159 0.0
H670 H 0.1485 0.94424 0.17365 0.0
H671 H 0.09719 0.85923 0.27792 0.0
H672 H 0.1194 0.95611 0.19193 0.0
O673 O 0.12998 0.85432 0.15595 0.0
H674 H 0.19539 0.89797 0.0851 0.0
H675 H 0.15394 0.84751 0.06683 0.0
H676 H 0.18629 0.8436 0.05719 0.0
H677 H 0.20725 0.86895 0.06632 0.0
H678 H 0.16296 0.90125 0.09466 0.0
H679 H 0.13444 0.87254 0.9796 0.0
H680 H 0.11134 0.84858 0.97592 0.0
O681 O 0.13084 0.85257 0.10659 0.0
C682 C 0.09594 0.88051 0.12242 0.0
C683 C 0.10694 0.8475 0.02267 0.0
C684 C 0.12804 0.86741 0.99924 0.0
N685 N 0.12474 0.8677 0.05177 0.0
C686 C 0.11194 0.8546 0.04993 0.0
C687 C 0.1327 0.87419 0.02688 0.0
C688 C 0.11508 0.85396 0.99719 0.0
C689 C 0.13896 0.91694 0.17114 0.0
N690 N 0.12479 0.90555 0.17526 0.0
C691 C 0.13725 0.93527 0.17706 0.0
C692 C 0.12092 0.94193 0.18728 0.0
C693 C 0.10654 0.93023 0.19145 0.0
C694 C 0.10872 0.91198 0.18525 0.0
C695 C 0.11642 0.87605 0.25587 0.0
C696 C 0.10405 0.86071 0.20416 0.0
C697 C 0.12356 0.88099 0.22864 0.0
N698 N 0.11728 0.87341 0.20324 0.0
C699 C 0.0966 0.85543 0.23099 0.0
C700 C 0.10284 0.86319 0.25698 0.0
C701 C 0.13064 0.84535 0.13204 0.0
C702 C 0.18638 0.88684 0.08095 0.0
C703 C 0.16298 0.85859 0.0709 0.0
C704 C 0.18128 0.85631 0.06535 0.0
C705 C 0.19303 0.87055 0.07046 0.0
N706 N 0.15656 0.87462 0.08117 0.0
C707 C 0.168 0.88864 0.08621 0.0
Co708 Co 0.86789 0.62162 0.0871 0.0
Co709 Co 0.87114 0.61825 0.16282 0.0
O710 O 0.86095 0.6113 0.12489 0.0
C711 C 0.87498 0.58291 0.08053 0.0
O712 O 0.88281 0.58376 0.10638 0.0
C713 C 0.8324 0.62504 0.16922 0.0
O714 O 0.83318 0.63291 0.14343 0.0
O715 O 0.86846 0.64425 0.15358 0.0
O716 O 0.86793 0.64632 0.10425 0.0
H717 H 0.91169 0.6531 0.23036 0.0
H718 H 0.83634 0.59743 0.09054 0.0
O719 O 0.86807 0.59698 0.06927 0.0
H720 H 0.81283 0.65508 0.05356 0.0
H721 H 0.86557 0.62703 0.97678 0.0
H722 H 0.89354 0.64972 0.06792 0.0
H723 H 0.84512 0.65141 0.06402 0.0
H724 H 0.8569 0.61465 0.02506 0.0
O725 O 0.8465 0.6182 0.18048 0.0
H726 H 0.89898 0.64411 0.18241 0.0
H727 H 0.86419 0.60707 0.22472 0.0
H728 H 0.90251 0.66258 0.02014 0.0
H729 H 0.80397 0.60047 0.08015 0.0
H730 H 0.88848 0.65123 0.97413 0.0
H731 H 0.79202 0.62949 0.06161 0.0
O732 O 0.89388 0.61912 0.09652 0.0
H733 H 0.85049 0.55411 0.16904 0.0
H734 H 0.90105 0.59564 0.18593 0.0
H735 H 0.90495 0.56333 0.19612 0.0
H736 H 0.87955 0.54233 0.18768 0.0
H737 H 0.84722 0.5865 0.15892 0.0
H738 H 0.87642 0.61575 0.27316 0.0
H739 H 0.9004 0.63888 0.27617 0.0
O740 O 0.89585 0.61851 0.14587 0.0
C741 C 0.8679 0.65338 0.12985 0.0
C742 C 0.90129 0.64297 0.22933 0.0
C743 C 0.88148 0.62202 0.25335 0.0
N744 N 0.88098 0.62498 0.20077 0.0
C745 C 0.89408 0.63779 0.20224 0.0
C746 C 0.87458 0.61718 0.22587 0.0
C747 C 0.89493 0.63499 0.25502 0.0
C748 C 0.83126 0.61004 0.0822 0.0
N749 N 0.84261 0.6242 0.07775 0.0
C750 C 0.81291 0.61171 0.07648 0.0
C751 C 0.80621 0.628 0.06612 0.0
C752 C 0.81788 0.64237 0.06161 0.0
C753 C 0.83614 0.64022 0.06762 0.0
C754 C 0.87175 0.63212 0.99667 0.0
C755 C 0.8873 0.64479 0.04801 0.0
C756 C 0.86692 0.62513 0.02406 0.0
N757 N 0.87461 0.63156 0.04928 0.0
C758 C 0.89247 0.65209 0.02101 0.0
C759 C 0.8846 0.6457 0.9952 0.0
C760 C 0.90295 0.61859 0.12033 0.0
C761 C 0.86164 0.56314 0.17288 0.0
C762 C 0.88995 0.58658 0.18217 0.0
C763 C 0.89222 0.56831 0.18802 0.0
C764 C 0.87796 0.55653 0.1833 0.0
N765 N 0.8739 0.59296 0.17197 0.0
C766 C 0.85985 0.5815 0.16731 0.0
Co767 Co 0.13038 0.12 0.913 0.0
Co768 Co 0.12748 0.11631 0.83728 0.0
O769 O 0.13759 0.10961 0.87537 0.0
C770 C 0.12381 0.08122 0.92002 0.0
O771 O 0.11601 0.08176 0.89413 0.0
C772 C 0.16616 0.12351 0.83126 0.0
O773 O 0.16511 0.13162 0.85686 0.0
O774 O 0.12989 0.14239 0.84634 0.0
O775 O 0.13006 0.14461 0.89567 0.0
H776 H 0.08688 0.15048 0.76901 0.0
H777 H 0.16229 0.09626 0.91001 0.0
O778 O 0.13051 0.09546 0.93108 0.0
H779 H 0.18485 0.1544 0.94675 0.0
H780 H 0.13225 0.126 0.02329 0.0
H781 H 0.10424 0.14779 0.93168 0.0
H782 H 0.15265 0.15022 0.93607 0.0
H783 H 0.14128 0.11352 0.97521 0.0
O784 O 0.15221 0.1164 0.81991 0.0
H785 H 0.09948 0.14183 0.81717 0.0
H786 H 0.13481 0.10494 0.77555 0.0
H787 H 0.0949 0.16074 0.97927 0.0
H788 H 0.19458 0.09982 0.92063 0.0
H789 H 0.10895 0.14984 0.0255 0.0
H790 H 0.20606 0.12908 0.93904 0.0
O791 O 0.10447 0.11708 0.90334 0.0
H792 H 0.14874 0.05234 0.83169 0.0
H793 H 0.09786 0.09334 0.81403 0.0
H794 H 0.0943 0.06096 0.804 0.0
H795 H 0.11987 0.04023 0.81282 0.0
H796 H 0.15167 0.08479 0.84165 0.0
H797 H 0.1227 0.11328 0.72691 0.0
H798 H 0.09851 0.13616 0.72345 0.0
O799 O 0.1027 0.11642 0.85397 0.0
C800 C 0.13018 0.15159 0.87004 0.0
C801 C 0.09738 0.14045 0.77024 0.0
C802 C 0.1175 0.11959 0.74661 0.0
N803 N 0.11775 0.12279 0.79917 0.0
C804 C 0.10453 0.13546 0.79745 0.0
C805 C 0.12433 0.11494 0.7742 0.0
C806 C 0.10392 0.13242 0.74468 0.0
C807 C 0.16716 0.10898 0.9183 0.0
N808 N 0.15559 0.12298 0.92256 0.0
C809 C 0.18547 0.11094 0.92415 0.0
C810 C 0.1919 0.12737 0.93444 0.0
C811 C 0.18001 0.14158 0.93875 0.0
C812 C 0.1618 0.13914 0.93262 0.0
C813 C 0.12605 0.13088 0.0033 0.0
C814 C 0.11049 0.14306 0.9517 0.0
C815 C 0.13109 0.12385 0.97602 0.0
N816 N 0.12339 0.13003 0.95067 0.0
C817 C 0.10511 0.1504 0.97858 0.0
C818 C 0.11298 0.14426 0.00452 0.0
C819 C 0.0955 0.11643 0.87944 0.0
C820 C 0.13752 0.06125 0.82769 0.0
C821 C 0.10904 0.0844 0.81797 0.0
C822 C 0.10695 0.06608 0.8122 0.0
C823 C 0.12131 0.05446 0.81714 0.0
N824 N 0.12499 0.09096 0.82829 0.0
C825 C 0.13912 0.07964 0.83317 0.0
Co826 Co 0.62707 0.38117 0.66354 0.0
Co827 Co 0.63044 0.37809 0.58781 0.0
O828 O 0.63738 0.38821 0.62579 0.0
C829 C 0.66575 0.37414 0.6701 0.0
O830 O 0.66488 0.36616 0.64436 0.0
C831 C 0.62377 0.41689 0.58157 0.0
O832 O 0.61579 0.41608 0.60727 0.0
O833 O 0.60446 0.38085 0.59703 0.0
O834 O 0.60239 0.38109 0.64638 0.0
H835 H 0.59553 0.33777 0.51997 0.0
H836 H 0.65113 0.41284 0.66025 0.0
O837 O 0.6517 0.38108 0.68135 0.0
H838 H 0.59344 0.4361 0.69737 0.0
H839 H 0.62162 0.3833 0.77387 0.0
H840 H 0.59907 0.35538 0.68258 0.0
H841 H 0.59722 0.40382 0.68673 0.0
H842 H 0.63398 0.39209 0.72564 0.0
O843 O 0.6306 0.40278 0.57029 0.0
H844 H 0.60451 0.35036 0.56802 0.0
H845 H 0.6417 0.38512 0.52598 0.0
H846 H 0.58623 0.34629 0.73032 0.0
H847 H 0.64799 0.4452 0.67084 0.0
H848 H 0.59751 0.3603 0.7764 0.0
H849 H 0.61895 0.45703 0.68944 0.0
O850 O 0.62965 0.35519 0.65398 0.0
H851 H 0.69462 0.39852 0.58188 0.0
H852 H 0.65295 0.34812 0.56454 0.0
H853 H 0.68523 0.34412 0.55442 0.0
H854 H 0.7063 0.36945 0.56308 0.0
H855 H 0.66225 0.4019 0.59193 0.0
H856 H 0.63303 0.373 0.47745 0.0
H857 H 0.60983 0.3491 0.47426 0.0
O858 O 0.63009 0.35333 0.60462 0.0
C859 C 0.59534 0.38127 0.62079 0.0
C860 C 0.60569 0.34813 0.52108 0.0
C861 C 0.62672 0.36793 0.49722 0.0
N862 N 0.62372 0.36834 0.54979 0.0
C863 C 0.61087 0.35528 0.54823 0.0
C864 C 0.63155 0.37476 0.52474 0.0
C865 C 0.61371 0.35452 0.49544 0.0
C866 C 0.63851 0.41786 0.66862 0.0
N867 N 0.62441 0.40645 0.67301 0.0
C868 C 0.63679 0.43621 0.67446 0.0
C869 C 0.62048 0.44284 0.68486 0.0
C870 C 0.60616 0.43111 0.68929 0.0
C871 C 0.60837 0.41285 0.68318 0.0
C872 C 0.61657 0.37713 0.75394 0.0
C873 C 0.60397 0.36161 0.70253 0.0
C874 C 0.62354 0.38203 0.72658 0.0
N875 N 0.61715 0.37436 0.70133 0.0
C876 C 0.59668 0.35638 0.7295 0.0
C877 C 0.60304 0.36423 0.75534 0.0
C878 C 0.6301 0.34616 0.63011 0.0
C879 C 0.68556 0.38741 0.57794 0.0
C880 C 0.66204 0.3592 0.56841 0.0
C881 C 0.6803 0.35686 0.56258 0.0
C882 C 0.69211 0.37108 0.56743 0.0
N883 N 0.65572 0.37526 0.57869 0.0
C884 C 0.66721 0.38926 0.58347 0.0
Co885 Co 0.36865 0.87692 0.41446 0.0
Co886 Co 0.37122 0.88062 0.33874 0.0
O887 O 0.36119 0.88721 0.37691 0.0
C888 C 0.37503 0.91572 0.42112 0.0
O889 O 0.38275 0.915 0.39519 0.0
C890 C 0.33254 0.87317 0.33296 0.0
O891 O 0.33367 0.8651 0.35856 0.0
O892 O 0.36908 0.85453 0.34773 0.0
O893 O 0.36906 0.85229 0.39707 0.0
H894 H 0.41184 0.84681 0.27 0.0
H895 H 0.33658 0.90047 0.41185 0.0
O896 O 0.36845 0.90153 0.43248 0.0
H897 H 0.31457 0.84222 0.44875 0.0
H898 H 0.36732 0.87112 0.52477 0.0
H899 H 0.395 0.84927 0.4329 0.0
H900 H 0.34668 0.84659 0.43769 0.0
H901 H 0.35803 0.88349 0.47677 0.0
O902 O 0.34643 0.88031 0.32155 0.0
H903 H 0.39936 0.85535 0.3183 0.0
H904 H 0.36356 0.89194 0.27712 0.0
H905 H 0.40459 0.83642 0.4804 0.0
H906 H 0.30437 0.89673 0.42287 0.0
H907 H 0.39071 0.84736 0.52677 0.0
H908 H 0.29317 0.86741 0.44136 0.0
O909 O 0.39451 0.87997 0.40458 0.0
H910 H 0.34939 0.94441 0.33377 0.0
H911 H 0.40052 0.90387 0.31531 0.0
H912 H 0.40378 0.93628 0.30552 0.0
H913 H 0.37808 0.9568 0.31475 0.0
H914 H 0.34677 0.91192 0.34348 0.0
H915 H 0.37555 0.8837 0.22834 0.0
H916 H 0.39992 0.86103 0.22459 0.0
O917 O 0.39607 0.88073 0.3552 0.0
C918 C 0.36895 0.84532 0.3714 0.0
C919 C 0.40127 0.85675 0.27136 0.0
C920 C 0.38088 0.87744 0.24797 0.0
N921 N 0.38086 0.87423 0.30052 0.0
C922 C 0.39418 0.86167 0.29864 0.0
C923 C 0.37412 0.88202 0.27563 0.0
C924 C 0.39456 0.86472 0.24588 0.0
C925 C 0.33183 0.88773 0.42017 0.0
N926 N 0.3435 0.8738 0.42426 0.0
C927 C 0.31357 0.88567 0.42625 0.0
C928 C 0.30729 0.86921 0.43659 0.0
C929 C 0.31929 0.85506 0.44072 0.0
C930 C 0.33745 0.85761 0.43437 0.0
C931 C 0.37344 0.86622 0.50472 0.0
C932 C 0.38882 0.85401 0.45298 0.0
C933 C 0.36827 0.8732 0.47749 0.0
N934 N 0.37587 0.867 0.45207 0.0
C935 C 0.39434 0.84673 0.47981 0.0
C936 C 0.38656 0.85288 0.50582 0.0
C937 C 0.40338 0.88071 0.38061 0.0
C938 C 0.36066 0.9356 0.32958 0.0
C939 C 0.38929 0.91271 0.31942 0.0
C940 C 0.3912 0.93105 0.31378 0.0
C941 C 0.37677 0.94255 0.31895 0.0
N942 N 0.37344 0.906 0.32983 0.0
C943 C 0.35923 0.91718 0.33492 0.0
H944 H 0.13224 0.82133 0.08643 0.0
H945 H 0.13306 0.78862 0.08921 0.0
H946 H 0.13167 0.79141 0.18394 0.0
H947 H 0.13063 0.82422 0.18153 0.0
H948 H 0.15866 0.76663 0.11735 0.0
H949 H 0.09026 0.75695 0.1637 0.0
H950 H 0.09738 0.77788 0.1474 0.0
H951 H 0.10455 0.77201 0.18389 0.0
C952 C 0.13208 0.81506 0.10792 0.0
C953 C 0.13131 0.82547 0.13377 0.0
C954 C 0.13257 0.79634 0.10943 0.0
C955 C 0.13221 0.78762 0.13674 0.0
C956 C 0.13164 0.7979 0.16262 0.0
H957 H 0.13103 0.67319 0.17902 0.0
H958 H 0.13229 0.70598 0.1821 0.0
C959 C 0.13114 0.81666 0.16117 0.0
C960 C 0.13266 0.76775 0.13795 0.0
H961 H 0.10809 0.73097 0.1577 0.0
C962 C 0.14762 0.75882 0.1262 0.0
C963 C 0.11827 0.75763 0.14964 0.0
C964 C 0.10162 0.76654 0.16168 0.0
C965 C 0.14857 0.74 0.12576 0.0
C966 C 0.13402 0.72988 0.1369 0.0
C967 C 0.11921 0.7388 0.14917 0.0
C968 C 0.13363 0.71002 0.13504 0.0
C969 C 0.16519 0.73111 0.11356 0.0
C970 C 0.13376 0.70148 0.10753 0.0
C971 C 0.13305 0.68277 0.10563 0.0
C972 C 0.1321 0.67221 0.13126 0.0
C973 C 0.13184 0.68087 0.15883 0.0
C974 C 0.13254 0.6996 0.16067 0.0
H975 H 0.17686 0.7404 0.11359 0.0
H976 H 0.16874 0.71894 0.12641 0.0
H977 H 0.16263 0.72696 0.09047 0.0
H978 H 0.13421 0.7093 0.08746 0.0
H979 H 0.13314 0.67663 0.08401 0.0
H980 H 0.42468 0.88034 0.42993 0.0
H981 H 0.45747 0.88164 0.43216 0.0
H982 H 0.45986 0.88413 0.33747 0.0
H983 H 0.42719 0.88303 0.33489 0.0
H984 H 0.4822 0.85762 0.40675 0.0
H985 H 0.49118 0.92664 0.36333 0.0
H986 H 0.46986 0.91844 0.37656 0.0
H987 H 0.47756 0.91251 0.34035 0.0
C988 C 0.43215 0.88129 0.40955 0.0
C989 C 0.42323 0.88169 0.38223 0.0
C990 C 0.45089 0.88201 0.4109 0.0
C991 C 0.46105 0.88327 0.38501 0.0
C992 C 0.45224 0.88355 0.35774 0.0
H993 H 0.57206 0.88221 0.33411 0.0
H994 H 0.53938 0.88296 0.33734 0.0
C995 C 0.43353 0.88282 0.35633 0.0
C996 C 0.48091 0.88367 0.38634 0.0
H997 H 0.51744 0.90843 0.36617 0.0
C998 C 0.48994 0.86879 0.39817 0.0
C999 C 0.49091 0.89827 0.37511 0.0
C1000 C 0.48191 0.91495 0.36336 0.0
C1001 C 0.50877 0.86785 0.39815 0.0
C1002 C 0.51876 0.88233 0.38641 0.0
C1003 C 0.50972 0.89734 0.37506 0.0
C1004 C 0.53861 0.88193 0.38488 0.0
C1005 C 0.51779 0.85115 0.40975 0.0
C1006 C 0.54901 0.88131 0.4106 0.0
C1007 C 0.56774 0.88087 0.40889 0.0
C1008 C 0.57642 0.88114 0.38138 0.0
C1009 C 0.56589 0.88196 0.35567 0.0
C1010 C 0.54718 0.88241 0.35744 0.0
H1011 H 0.50824 0.83975 0.41177 0.0
H1012 H 0.52903 0.84701 0.3952 0.0
H1013 H 0.5234 0.85397 0.4319 0.0
H1014 H 0.54263 0.88126 0.43201 0.0
H1015 H 0.57539 0.88031 0.42915 0.0
H1016 H 0.36641 0.32258 0.58589 0.0
H1017 H 0.36585 0.28986 0.58818 0.0
H1018 H 0.3681 0.29212 0.68291 0.0
H1019 H 0.36847 0.32495 0.681 0.0
H1020 H 0.39194 0.26728 0.61334 0.0
H1021 H 0.32535 0.25847 0.66663 0.0
H1022 H 0.33218 0.27936 0.64986 0.0
H1023 H 0.34063 0.27322 0.68548 0.0
C1024 C 0.36667 0.31619 0.60728 0.0
C1025 C 0.3674 0.32647 0.63329 0.0
C1026 C 0.36637 0.29746 0.60851 0.0
C1027 C 0.3667 0.28859 0.6357 0.0
C1028 C 0.36749 0.29873 0.66172 0.0
H1029 H 0.36781 0.1744 0.67877 0.0
H1030 H 0.36801 0.20723 0.68118 0.0
C1031 C 0.36779 0.3175 0.66055 0.0
C1032 C 0.36681 0.26871 0.6366 0.0
H1033 H 0.34264 0.23221 0.65895 0.0
C1034 C 0.38116 0.2596 0.62329 0.0
C1035 C 0.35277 0.25877 0.64975 0.0
C1036 C 0.33676 0.26789 0.66356 0.0
C1037 C 0.38188 0.24078 0.62278 0.0
C1038 C 0.36769 0.23083 0.63547 0.0
C1039 C 0.35347 0.23992 0.64922 0.0
C1040 C 0.36719 0.21096 0.63402 0.0
C1041 C 0.39791 0.2317 0.60894 0.0
C1042 C 0.36632 0.20223 0.6067 0.0
C1043 C 0.36621 0.1835 0.60518 0.0
C1044 C 0.36685 0.1731 0.63102 0.0
C1045 C 0.36735 0.18194 0.65842 0.0
C1046 C 0.36746 0.20071 0.65988 0.0
H1047 H 0.40961 0.24092 0.60747 0.0
H1048 H 0.40193 0.21961 0.62163 0.0
H1049 H 0.39438 0.22739 0.58629 0.0
H1050 H 0.36575 0.20992 0.5865 0.0
H1051 H 0.36573 0.1772 0.5837 0.0
H1052 H 0.07145 0.11491 0.83389 0.0
H1053 H 0.03876 0.11427 0.83677 0.0
H1054 H 0.04165 0.11533 0.93151 0.0
H1055 H 0.07444 0.11619 0.92899 0.0
H1056 H 0.01643 0.0889 0.86464 0.0
H1057 H 0.00779 0.1573 0.91192 0.0
H1058 H 0.02859 0.14992 0.89549 0.0
H1059 H 0.02265 0.14272 0.93192 0.0
C1060 C 0.0652 0.11502 0.8554 0.0
C1061 C 0.07563 0.11568 0.88122 0.0
C1062 C 0.04649 0.11464 0.85697 0.0
C1063 C 0.03781 0.115 0.88432 0.0
C1064 C 0.04811 0.11538 0.91016 0.0
H1065 H 0.92364 0.11751 0.92763 0.0
H1066 H 0.9564 0.11586 0.93033 0.0
C1067 C 0.06686 0.11577 0.90865 0.0
C1068 C 0.01795 0.11481 0.88561 0.0
H1069 H 0.98158 0.1398 0.90599 0.0
C1070 C 0.00879 0.10001 0.87371 0.0
C1071 C 0.00806 0.1293 0.89757 0.0
C1072 C 0.01721 0.1458 0.90976 0.0
C1073 C 0.98997 0.09932 0.8734 0.0
C1074 C 0.98008 0.11396 0.88485 0.0
C1075 C 0.98923 0.12861 0.89724 0.0
C1076 C 0.96024 0.11461 0.88321 0.0
C1077 C 0.98083 0.08286 0.86104 0.0
C1078 C 0.95159 0.11468 0.85579 0.0
C1079 C 0.9329 0.11562 0.85411 0.0
C1080 C 0.92246 0.1166 0.87987 0.0
C1081 C 0.93122 0.11668 0.90734 0.0
C1082 C 0.94994 0.11576 0.90897 0.0
H1083 H 0.98996 0.07106 0.86081 0.0
H1084 H 0.96866 0.07941 0.87394 0.0
H1085 H 0.97666 0.08557 0.83803 0.0
H1086 H 0.95933 0.1142 0.83563 0.0
H1087 H 0.92668 0.11566 0.83257 0.0
H1088 H 0.13231 0.32006 0.91667 0.0
H1089 H 0.13347 0.28741 0.91294 0.0
H1090 H 0.13225 0.29105 0.81829 0.0
H1091 H 0.1309 0.32383 0.82165 0.0
H1092 H 0.108 0.26587 0.84183 0.0
H1093 H 0.17639 0.25655 0.88763 0.0
H1094 H 0.16197 0.26988 0.91056 0.0
H1095 H 0.1683 0.27803 0.87481 0.0
C1096 C 0.13239 0.314 0.89499 0.0
C1097 C 0.13161 0.32464 0.86944 0.0
C1098 C 0.13315 0.2953 0.89294 0.0
C1099 C 0.13326 0.28685 0.86535 0.0
C1100 C 0.13232 0.29735 0.83979 0.0
H1101 H 0.13077 0.1723 0.82006 0.0
H1102 H 0.13187 0.20509 0.81696 0.0
C1103 C 0.13157 0.31609 0.84179 0.0
C1104 C 0.13373 0.267 0.86335 0.0
H1105 H 0.15818 0.23029 0.88378 0.0
C1106 C 0.11905 0.25806 0.85068 0.0
C1107 C 0.14819 0.2569 0.8749 0.0
C1108 C 0.16469 0.26581 0.88749 0.0
C1109 C 0.11811 0.23922 0.85029 0.0
C1110 C 0.13237 0.22913 0.86249 0.0
C1111 C 0.14724 0.23808 0.87454 0.0
C1112 C 0.13183 0.20927 0.86408 0.0
C1113 C 0.10158 0.23027 0.83784 0.0
C1114 C 0.13182 0.20078 0.89159 0.0
C1115 C 0.13128 0.18208 0.89349 0.0
C1116 C 0.13085 0.17145 0.86785 0.0
C1117 C 0.13103 0.18004 0.84026 0.0
C1118 C 0.13156 0.19878 0.83841 0.0
H1119 H 0.09029 0.23989 0.83516 0.0
H1120 H 0.10478 0.22458 0.81588 0.0
H1121 H 0.09711 0.21908 0.85223 0.0
H1122 H 0.13208 0.20866 0.91165 0.0
H1123 H 0.13117 0.17599 0.91512 0.0
H1124 H 0.92394 0.88128 0.06994 0.0
H1125 H 0.95672 0.88221 0.06693 0.0
H1126 H 0.96014 0.88301 0.16163 0.0
H1127 H 0.92748 0.88229 0.16501 0.0
H1128 H 0.982 0.90875 0.1335 0.0
H1129 H 0.99115 0.8405 0.08582 0.0
H1130 H 0.97603 0.85502 0.06623 0.0
H1131 H 0.97038 0.84759 0.10265 0.0
C1132 C 0.93164 0.88164 0.09016 0.0
C1133 C 0.92302 0.88167 0.11773 0.0
C1134 C 0.95038 0.88207 0.08837 0.0
C1135 C 0.96083 0.88245 0.11406 0.0
C1136 C 0.95229 0.88267 0.14155 0.0
H1137 H 0.07141 0.8823 0.16717 0.0
H1138 H 0.0388 0.88363 0.16323 0.0
C1139 C 0.9336 0.88224 0.1434 0.0
C1140 C 0.98068 0.88283 0.11253 0.0
H1141 H 0.01724 0.85806 0.09231 0.0
C1142 C 0.98972 0.8977 0.12443 0.0
C1143 C 0.99067 0.86842 0.10055 0.0
C1144 C 0.98163 0.85189 0.08827 0.0
C1145 C 0.00853 0.8985 0.12485 0.0
C1146 C 0.01853 0.8839 0.11353 0.0
C1147 C 0.0095 0.86922 0.101 0.0
C1148 C 0.03836 0.88328 0.11564 0.0
C1149 C 0.01754 0.91501 0.13729 0.0
C1150 C 0.04891 0.88221 0.09015 0.0
C1151 C 0.06763 0.88137 0.09228 0.0
C1152 C 0.07611 0.88146 0.11998 0.0
C1153 C 0.0654 0.88235 0.14546 0.0
C1154 C 0.04673 0.8832 0.14328 0.0
H1155 H 0.00838 0.92678 0.13728 0.0
H1156 H 0.02156 0.91235 0.1604 0.0
H1157 H 0.02979 0.91847 0.12459 0.0
H1158 H 0.04267 0.88211 0.06862 0.0
H1159 H 0.07542 0.88061 0.0722 0.0
H1160 H 0.36809 0.67668 0.4142 0.0
H1161 H 0.36802 0.70936 0.41088 0.0
H1162 H 0.36915 0.70597 0.31619 0.0
H1163 H 0.36904 0.67314 0.31913 0.0
H1164 H 0.3943 0.73119 0.38393 0.0
H1165 H 0.32697 0.74044 0.33308 0.0
H1166 H 0.33368 0.71968 0.35041 0.0
H1167 H 0.34183 0.72522 0.31436 0.0
C1168 C 0.36821 0.6828 0.39259 0.0
C1169 C 0.36849 0.67221 0.36691 0.0
C1170 C 0.36819 0.70151 0.39078 0.0
C1171 C 0.36837 0.71005 0.36331 0.0
C1172 C 0.36869 0.69961 0.3376 0.0
H1173 H 0.36886 0.82468 0.32126 0.0
H1174 H 0.3693 0.79186 0.31789 0.0
C1175 C 0.36872 0.68085 0.33936 0.0
C1176 C 0.36875 0.72992 0.36186 0.0
H1177 H 0.34441 0.76656 0.3406 0.0
C1178 C 0.38342 0.73893 0.37442 0.0
C1179 C 0.35457 0.73994 0.34926 0.0
C1180 C 0.33828 0.73089 0.33618 0.0
C1181 C 0.38425 0.75775 0.37489 0.0
C1182 C 0.36987 0.76779 0.36296 0.0
C1183 C 0.35538 0.75879 0.34978 0.0
C1184 C 0.36935 0.78763 0.36496 0.0
C1185 C 0.40057 0.76673 0.38802 0.0
C1186 C 0.36892 0.79607 0.39255 0.0
C1187 C 0.36867 0.81478 0.39461 0.0
C1188 C 0.36873 0.82545 0.36907 0.0
C1189 C 0.36884 0.81691 0.3414 0.0
C1190 C 0.36909 0.79816 0.33939 0.0
H1191 H 0.41228 0.7575 0.38865 0.0
H1192 H 0.40431 0.77892 0.37537 0.0
H1193 H 0.39753 0.77086 0.41095 0.0
H1194 H 0.36875 0.78816 0.41254 0.0
H1195 H 0.3685 0.82083 0.41629 0.0
H1196 H 0.57099 0.11744 0.66474 0.0
H1197 H 0.53832 0.11715 0.66138 0.0
H1198 H 0.54164 0.11821 0.56669 0.0
H1199 H 0.57443 0.11831 0.56968 0.0
H1200 H 0.51641 0.14334 0.63442 0.0
H1201 H 0.50728 0.07598 0.58342 0.0
H1202 H 0.52803 0.08275 0.60077 0.0
H1203 H 0.52247 0.09084 0.56469 0.0
C1204 C 0.56485 0.11749 0.64313 0.0
C1205 C 0.5754 0.11783 0.61746 0.0
C1206 C 0.54614 0.11735 0.64129 0.0
C1207 C 0.53759 0.11745 0.61381 0.0
C1208 C 0.54801 0.1178 0.58811 0.0
H1209 H 0.42321 0.11836 0.57026 0.0
H1210 H 0.45603 0.11861 0.56737 0.0
C1211 C 0.56675 0.11795 0.5899 0.0
C1212 C 0.51774 0.11779 0.61228 0.0
H1213 H 0.48117 0.09351 0.59043 0.0
C1214 C 0.5087 0.13246 0.62478 0.0
C1215 C 0.50775 0.10362 0.59951 0.0
C1216 C 0.51681 0.08731 0.58651 0.0
C1217 C 0.48989 0.13333 0.62498 0.0
C1218 C 0.47989 0.11897 0.61284 0.0
C1219 C 0.48891 0.10447 0.59976 0.0
C1220 C 0.46005 0.11851 0.61451 0.0
C1221 C 0.48089 0.14966 0.63803 0.0
C1222 C 0.4515 0.11804 0.64196 0.0
C1223 C 0.4328 0.11789 0.64375 0.0
C1224 C 0.42224 0.1181 0.61804 0.0
C1225 C 0.43089 0.11823 0.5905 0.0
C1226 C 0.44964 0.11837 0.58878 0.0
H1227 H 0.49014 0.16136 0.6389 0.0
H1228 H 0.4688 0.15346 0.62517 0.0
H1229 H 0.47662 0.14659 0.66087 0.0
H1230 H 0.45931 0.11778 0.66207 0.0
H1231 H 0.42666 0.1177 0.66534 0.0
H1232 H 0.86744 0.17387 0.81924 0.0
H1233 H 0.86628 0.20667 0.81649 0.0
H1234 H 0.86588 0.20985 0.91122 0.0
H1235 H 0.86685 0.17716 0.91434 0.0
H1236 H 0.8398 0.23156 0.88339 0.0
H1237 H 0.90775 0.24145 0.83537 0.0
H1238 H 0.89335 0.22619 0.81579 0.0
H1239 H 0.90092 0.22057 0.85215 0.0
C1240 C 0.86713 0.18152 0.83953 0.0
C1241 C 0.86727 0.17282 0.86702 0.0
C1242 C 0.86656 0.20027 0.83788 0.0
C1243 C 0.86622 0.21066 0.86366 0.0
C1244 C 0.8662 0.20205 0.89108 0.0
H1245 H 0.86518 0.3216 0.91617 0.0
H1246 H 0.86411 0.28893 0.91267 0.0
C1247 C 0.86677 0.18334 0.89278 0.0
C1248 C 0.86564 0.23052 0.86226 0.0
H1249 H 0.88991 0.26736 0.84185 0.0
C1250 C 0.85073 0.2394 0.87426 0.0
C1251 C 0.8799 0.24067 0.8502 0.0
C1252 C 0.89647 0.2318 0.83783 0.0
C1253 C 0.84971 0.25822 0.87464 0.0
C1254 C 0.86413 0.26839 0.86319 0.0
C1255 C 0.87888 0.2595 0.85062 0.0
C1256 C 0.8645 0.28824 0.86508 0.0
C1257 C 0.83314 0.26706 0.88713 0.0
C1258 C 0.86549 0.29868 0.83946 0.0
C1259 C 0.86619 0.31742 0.84134 0.0
C1260 C 0.86605 0.32605 0.86893 0.0
C1261 C 0.86519 0.31547 0.89454 0.0
C1262 C 0.86447 0.29677 0.89261 0.0
H1263 H 0.82149 0.25774 0.88721 0.0
H1264 H 0.83581 0.27114 0.91021 0.0
H1265 H 0.8295 0.27925 0.87442 0.0
H1266 H 0.86566 0.29233 0.81801 0.0
H1267 H 0.86693 0.32511 0.82116 0.0
H1268 H 0.6306 0.67354 0.31954 0.0
H1269 H 0.6321 0.70633 0.31636 0.0
H1270 H 0.63375 0.70988 0.41101 0.0
H1271 H 0.63242 0.67724 0.41456 0.0
H1272 H 0.60817 0.7318 0.34058 0.0
H1273 H 0.67699 0.74022 0.38515 0.0
H1274 H 0.66857 0.71887 0.37219 0.0
H1275 H 0.66258 0.72696 0.40817 0.0
C1276 C 0.63137 0.68127 0.33971 0.0
C1277 C 0.63151 0.67269 0.36731 0.0
C1278 C 0.63222 0.7 0.33782 0.0
C1279 C 0.63334 0.71048 0.36343 0.0
C1280 C 0.63329 0.70201 0.39096 0.0
H1281 H 0.63275 0.82122 0.41446 0.0
H1282 H 0.63345 0.78855 0.4106 0.0
C1283 C 0.63242 0.68332 0.39292 0.0
C1284 C 0.63404 0.73032 0.36157 0.0
H1285 H 0.65905 0.76669 0.38194 0.0
C1286 C 0.61937 0.73946 0.3493 0.0
C1287 C 0.64869 0.74022 0.37294 0.0
C1288 C 0.66519 0.73108 0.38511 0.0
C1289 C 0.61863 0.75831 0.34916 0.0
C1290 C 0.6331 0.76821 0.36119 0.0
C1291 C 0.64796 0.75905 0.37283 0.0
C1292 C 0.63279 0.78806 0.36303 0.0
C1293 C 0.60211 0.76748 0.33715 0.0
C1294 C 0.63239 0.79862 0.3375 0.0
C1295 C 0.63197 0.81736 0.33956 0.0
C1296 C 0.63204 0.82588 0.36725 0.0
C1297 C 0.63266 0.81518 0.39276 0.0
C1298 C 0.63308 0.79648 0.39064 0.0
H1299 H 0.59069 0.758 0.33463 0.0
H1300 H 0.59789 0.77868 0.35174 0.0
H1301 H 0.6052 0.77317 0.31518 0.0
H1302 H 0.63247 0.79237 0.31597 0.0
H1303 H 0.63156 0.82515 0.31946 0.0
H1304 H 0.86635 0.67769 0.08475 0.0
H1305 H 0.86554 0.71038 0.08824 0.0
H1306 H 0.86664 0.70696 0.18292 0.0
H1307 H 0.86765 0.67417 0.1798 0.0
H1308 H 0.83991 0.73229 0.11675 0.0
H1309 H 0.9083 0.74136 0.16373 0.0
H1310 H 0.90113 0.72059 0.14686 0.0
H1311 H 0.89389 0.7262 0.18342 0.0
C1312 C 0.86645 0.68382 0.10638 0.0
C1313 C 0.86713 0.67324 0.13201 0.0
C1314 C 0.86596 0.70253 0.10829 0.0
C1315 C 0.86626 0.71107 0.13581 0.0
C1316 C 0.86672 0.70061 0.16146 0.0
H1317 H 0.86816 0.82548 0.17939 0.0
H1318 H 0.8667 0.79269 0.18234 0.0
C1319 C 0.8672 0.68187 0.1596 0.0
C1320 C 0.86588 0.73093 0.13744 0.0
H1321 H 0.89066 0.76747 0.15789 0.0
C1322 C 0.85098 0.74 0.12579 0.0
C1323 C 0.88032 0.7409 0.14939 0.0
C1324 C 0.8969 0.73183 0.16137 0.0
C1325 C 0.85015 0.75883 0.12564 0.0
C1326 C 0.86476 0.76881 0.13699 0.0
C1327 C 0.87949 0.75975 0.14921 0.0
C1328 C 0.86532 0.78866 0.13525 0.0
C1329 C 0.8336 0.76787 0.11351 0.0
C1330 C 0.86526 0.79721 0.10778 0.0
C1331 C 0.8661 0.81591 0.10596 0.0
C1332 C 0.8671 0.82646 0.13163 0.0
C1333 C 0.86731 0.81781 0.15917 0.0
C1334 C 0.8665 0.79907 0.16093 0.0
H1335 H 0.82185 0.75867 0.11347 0.0
H1336 H 0.83015 0.78006 0.12644 0.0
H1337 H 0.83617 0.77202 0.09045 0.0
H1338 H 0.86476 0.7894 0.08767 0.0
H1339 H 0.86604 0.82205 0.08437 0.0
H1340 H 0.6314 0.32204 0.58461 0.0
H1341 H 0.63216 0.28934 0.58756 0.0
H1342 H 0.63128 0.29233 0.68229 0.0
H1343 H 0.63033 0.32513 0.67971 0.0
H1344 H 0.65786 0.26732 0.61555 0.0
H1345 H 0.58963 0.25796 0.66274 0.0
H1346 H 0.59674 0.27881 0.64619 0.0
H1347 H 0.60405 0.27305 0.68264 0.0
C1348 C 0.63134 0.31582 0.60614 0.0
C1349 C 0.63075 0.32628 0.63194 0.0
C1350 C 0.63179 0.2971 0.60774 0.0
C1351 C 0.63156 0.28844 0.63511 0.0
C1352 C 0.63116 0.29877 0.66094 0.0
H1353 H 0.63025 0.17418 0.67849 0.0
H1354 H 0.63153 0.20698 0.6812 0.0
C1355 C 0.63071 0.31753 0.65939 0.0
C1356 C 0.63196 0.26857 0.63644 0.0
H1357 H 0.60738 0.23191 0.65678 0.0
C1358 C 0.64685 0.25956 0.6246 0.0
C1359 C 0.61758 0.25852 0.64837 0.0
C1360 C 0.60101 0.26752 0.66052 0.0
C1361 C 0.64775 0.24074 0.62432 0.0
C1362 C 0.63323 0.23069 0.63572 0.0
C1363 C 0.61848 0.23968 0.64806 0.0
C1364 C 0.63279 0.21083 0.63408 0.0
C1365 C 0.6643 0.23177 0.61203 0.0
C1366 C 0.63286 0.20216 0.60667 0.0
C1367 C 0.63214 0.18345 0.60498 0.0
C1368 C 0.63124 0.173 0.63074 0.0
C1369 C 0.63102 0.18177 0.65821 0.0
C1370 C 0.63173 0.20051 0.65983 0.0
H1371 H 0.676 0.24104 0.61189 0.0
H1372 H 0.66787 0.21963 0.62493 0.0
H1373 H 0.66166 0.22758 0.58899 0.0
H1374 H 0.63328 0.2099 0.58651 0.0
H1375 H 0.6322 0.17721 0.58344 0.0
H1376 H 0.07414 0.37864 0.93031 0.0
H1377 H 0.04132 0.37856 0.93251 0.0
H1378 H 0.03876 0.38047 0.83779 0.0
H1379 H 0.07145 0.38036 0.8352 0.0
H1380 H 0.01665 0.40412 0.90988 0.0
H1381 H 0.00727 0.33702 0.85886 0.0
H1382 H 0.02862 0.34451 0.87315 0.0
H1383 H 0.02103 0.35197 0.83765 0.0
C1384 C 0.06662 0.37903 0.90991 0.0
C1385 C 0.07549 0.37942 0.88256 0.0
C1386 C 0.04787 0.37899 0.91124 0.0
C1387 C 0.03765 0.37922 0.88531 0.0
C1388 C 0.04642 0.37992 0.85804 0.0
H1389 H 0.92652 0.3815 0.83505 0.0
H1390 H 0.95921 0.38157 0.83811 0.0
C1391 C 0.06514 0.37996 0.85665 0.0
C1392 C 0.0178 0.37894 0.88661 0.0
H1393 H 0.98114 0.35513 0.86399 0.0
C1394 C 0.00885 0.39335 0.9001 0.0
C1395 C 0.00771 0.36484 0.87387 0.0
C1396 C 0.01662 0.34861 0.8603 0.0
C1397 C 0.99002 0.39434 0.90029 0.0
C1398 C 0.97995 0.38039 0.88703 0.0
C1399 C 0.98891 0.36583 0.87402 0.0
C1400 C 0.9601 0.38083 0.88566 0.0
C1401 C 0.98106 0.41054 0.91381 0.0
C1402 C 0.94976 0.38028 0.91144 0.0
C1403 C 0.93101 0.38026 0.90982 0.0
C1404 C 0.92227 0.3807 0.88235 0.0
C1405 C 0.93274 0.38121 0.85659 0.0
C1406 C 0.95145 0.38123 0.85826 0.0
H1407 H 0.99064 0.42181 0.91707 0.0
H1408 H 0.9698 0.41528 0.89981 0.0
H1409 H 0.9755 0.40683 0.93561 0.0
H1410 H 0.9562 0.37963 0.93279 0.0
H1411 H 0.9234 0.37975 0.9301 0.0
H1412 H 0.57497 0.61795 0.42877 0.0
H1413 H 0.5422 0.6163 0.43153 0.0
H1414 H 0.53917 0.61387 0.33687 0.0
H1415 H 0.57181 0.61533 0.33375 0.0
H1416 H 0.51696 0.64003 0.40659 0.0
H1417 H 0.50863 0.57088 0.36307 0.0
H1418 H 0.52992 0.57937 0.37606 0.0
H1419 H 0.52194 0.58517 0.33995 0.0
C1420 C 0.56736 0.61696 0.40851 0.0
C1421 C 0.57608 0.61666 0.38103 0.0
C1422 C 0.54864 0.61603 0.41016 0.0
C1423 C 0.53831 0.61466 0.38444 0.0
C1424 C 0.54693 0.61452 0.35701 0.0
H1425 H 0.42739 0.61494 0.33386 0.0
H1426 H 0.46006 0.61415 0.33729 0.0
C1427 C 0.56561 0.61546 0.3553 0.0
C1428 C 0.51848 0.614 0.38607 0.0
H1429 H 0.48215 0.5888 0.36612 0.0
C1430 C 0.50932 0.62876 0.39805 0.0
C1431 C 0.5086 0.59926 0.37491 0.0
C1432 C 0.51775 0.58269 0.36302 0.0
C1433 C 0.49048 0.62948 0.39819 0.0
C1434 C 0.48061 0.6149 0.38645 0.0
C1435 C 0.48978 0.59998 0.37501 0.0
C1436 C 0.46077 0.61513 0.38484 0.0
C1437 C 0.48131 0.64609 0.4099 0.0
C1438 C 0.45033 0.61571 0.41051 0.0
C1439 C 0.4316 0.61619 0.40868 0.0
C1440 C 0.42296 0.61599 0.38111 0.0
C1441 C 0.43353 0.61514 0.35547 0.0
C1442 C 0.45223 0.61467 0.35735 0.0
H1443 H 0.49076 0.65757 0.41205 0.0
H1444 H 0.47005 0.65015 0.39533 0.0
H1445 H 0.47571 0.64318 0.432 0.0
H1446 H 0.45668 0.61576 0.43196 0.0
H1447 H 0.42392 0.61676 0.42889 0.0
H1448 H 0.57105 0.38239 0.66594 0.0
H1449 H 0.53839 0.38337 0.66252 0.0
H1450 H 0.54179 0.38327 0.56782 0.0
H1451 H 0.57456 0.38208 0.57087 0.0
H1452 H 0.51664 0.40942 0.6349 0.0
H1453 H 0.50717 0.3416 0.58572 0.0
H1454 H 0.52799 0.34847 0.60273 0.0
H1455 H 0.52236 0.3562 0.56646 0.0
C1456 C 0.56492 0.38255 0.64432 0.0
C1457 C 0.57549 0.3821 0.61867 0.0
C1458 C 0.54623 0.38313 0.64245 0.0
C1459 C 0.53769 0.38317 0.61494 0.0
C1460 C 0.54813 0.38293 0.58927 0.0
H1461 H 0.42312 0.38209 0.57256 0.0
H1462 H 0.45588 0.38356 0.56914 0.0
C1463 C 0.56687 0.38235 0.59109 0.0
C1464 C 0.51784 0.38367 0.61336 0.0
H1465 H 0.48117 0.35926 0.59242 0.0
C1466 C 0.50887 0.39848 0.62555 0.0
C1467 C 0.50779 0.36941 0.60101 0.0
C1468 C 0.51675 0.35293 0.58842 0.0
C1469 C 0.49006 0.39938 0.62589 0.0
C1470 C 0.47999 0.38494 0.61418 0.0
C1471 C 0.48896 0.37031 0.60138 0.0
C1472 C 0.46016 0.38439 0.6162 0.0
C1473 C 0.48112 0.41583 0.63865 0.0
C1474 C 0.45177 0.38413 0.6438 0.0
C1475 C 0.4331 0.38329 0.64589 0.0
C1476 C 0.42241 0.38259 0.62036 0.0
C1477 C 0.4309 0.3827 0.59268 0.0
C1478 C 0.44962 0.38352 0.59065 0.0
H1479 H 0.49034 0.42757 0.6389 0.0
H1480 H 0.46889 0.41945 0.626 0.0
H1481 H 0.47709 0.41302 0.66169 0.0
H1482 H 0.4597 0.38439 0.6638 0.0
H1483 H 0.42709 0.3831 0.66758 0.0
H1484 H 0.07473 0.61832 0.07062 0.0
H1485 H 0.0419 0.61868 0.06824 0.0
H1486 H 0.03923 0.61671 0.16294 0.0
H1487 H 0.07191 0.61653 0.16571 0.0
H1488 H 0.01687 0.59338 0.0908 0.0
H1489 H 0.00836 0.66064 0.14168 0.0
H1490 H 0.02961 0.65285 0.12744 0.0
H1491 H 0.02193 0.64552 0.16294 0.0
C1492 C 0.06718 0.61796 0.09098 0.0
C1493 C 0.07601 0.61749 0.11838 0.0
C1494 C 0.04843 0.61816 0.08954 0.0
C1495 C 0.03818 0.61802 0.11542 0.0
C1496 C 0.04691 0.6172 0.14273 0.0
H1497 H 0.92714 0.61717 0.16566 0.0
H1498 H 0.95982 0.61668 0.16252 0.0
C1499 C 0.06562 0.61699 0.14423 0.0
C1500 C 0.01834 0.61855 0.11403 0.0
H1501 H 0.982 0.64285 0.13655 0.0
C1502 C 0.00921 0.60425 0.10054 0.0
C1503 C 0.00844 0.6328 0.12672 0.0
C1504 C 0.01756 0.64892 0.14028 0.0
C1505 C 0.99036 0.60351 0.10033 0.0
C1506 C 0.98048 0.61759 0.11356 0.0
C1507 C 0.98963 0.63205 0.12654 0.0
C1508 C 0.96063 0.6174 0.11496 0.0
C1509 C 0.98119 0.58741 0.08683 0.0
C1510 C 0.95026 0.61807 0.08921 0.0
C1511 C 0.93151 0.61832 0.09087 0.0
C1512 C 0.92281 0.618 0.11836 0.0
C1513 C 0.93332 0.61737 0.1441 0.0
C1514 C 0.95203 0.61712 0.14238 0.0
H1515 H 0.99063 0.57603 0.08355 0.0
H1516 H 0.96989 0.58281 0.10086 0.0
H1517 H 0.97564 0.59119 0.06504 0.0
H1518 H 0.95666 0.61863 0.06784 0.0
H1519 H 0.92387 0.61892 0.0706 0.0
H1520 H 0.11086 0.54929 0.09917 0.0
H1521 H 0.11159 0.5207 0.0726 0.0
H1522 H 0.1379 0.54649 0.99949 0.0
H1523 H 0.13741 0.5751 0.02593 0.0
H1524 H 0.09617 0.5127 0.01793 0.0
H1525 H 0.17005 0.50285 0.01615 0.0
H1526 H 0.15922 0.51882 0.04024 0.0
H1527 H 0.16272 0.52418 0.00213 0.0
C1528 C 0.11687 0.54888 0.07748 0.0
C1529 C 0.12411 0.56448 0.06468 0.0
C1530 C 0.11727 0.53253 0.06235 0.0
C1531 C 0.12499 0.53145 0.03426 0.0
C1532 C 0.13218 0.54698 0.02138 0.0
H1533 H 0.10964 0.44737 0.90402 0.0
H1534 H 0.11012 0.47564 0.93151 0.0
C1535 C 0.1318 0.56334 0.03648 0.0
C1536 C 0.12504 0.51417 0.01808 0.0
H1537 H 0.15266 0.48294 0.98677 0.0
C1538 C 0.10851 0.50615 0.01117 0.0
C1539 C 0.14118 0.50559 0.0096 0.0
C1540 C 0.15932 0.51318 0.01761 0.0
C1541 C 0.10767 0.48989 0.99558 0.0
C1542 C 0.12379 0.48159 0.98633 0.0
C1543 C 0.14033 0.48945 0.99365 0.0
C1544 C 0.12377 0.46458 0.96942 0.0
C1545 C 0.08956 0.48159 0.98951 0.0
C1546 C 0.13169 0.44912 0.98135 0.0
C1547 C 0.1315 0.43296 0.96569 0.0
C1548 C 0.12346 0.432 0.93771 0.0
C1549 C 0.11581 0.44761 0.92561 0.0
C1550 C 0.116 0.46376 0.94132 0.0
H1551 H 0.07897 0.48723 0.00404 0.0
H1552 H 0.08569 0.48434 0.96637 0.0
H1553 H 0.09 0.46679 0.99255 0.0
H1554 H 0.13783 0.44952 0.00296 0.0
H1555 H 0.13757 0.42121 0.97561 0.0
H1556 H 0.69954 0.86138 0.34885 0.0
H1557 H 0.72799 0.86245 0.32205 0.0
H1558 H 0.70191 0.88993 0.2503 0.0
H1559 H 0.67344 0.88909 0.27698 0.0
H1560 H 0.73552 0.84774 0.26667 0.0
H1561 H 0.74584 0.9216 0.26755 0.0
H1562 H 0.73 0.91053 0.29149 0.0
H1563 H 0.72437 0.91463 0.25363 0.0
C1564 C 0.69985 0.86773 0.32743 0.0
C1565 C 0.68422 0.87517 0.31507 0.0
C1566 C 0.71612 0.86832 0.31216 0.0
C1567 C 0.71708 0.87646 0.28438 0.0
C1568 C 0.70152 0.88389 0.27196 0.0
H1569 H 0.79995 0.862 0.15217 0.0
H1570 H 0.7719 0.86248 0.18014 0.0
C1571 C 0.68524 0.88331 0.28719 0.0
C1572 C 0.73424 0.87663 0.26794 0.0
H1573 H 0.76535 0.9045 0.23704 0.0
C1574 C 0.74208 0.86014 0.26026 0.0
C1575 C 0.74285 0.89284 0.25991 0.0
C1576 C 0.73545 0.91092 0.26877 0.0
C1577 C 0.75819 0.85941 0.2443 0.0
C1578 C 0.7665 0.87561 0.23547 0.0
C1579 C 0.75883 0.89211 0.24359 0.0
C1580 C 0.78335 0.87571 0.21819 0.0
C1581 C 0.76631 0.84132 0.23741 0.0
C1582 C 0.79894 0.88344 0.23002 0.0
C1583 C 0.81497 0.88327 0.21407 0.0
C1584 C 0.81566 0.87542 0.18592 0.0
C1585 C 0.79991 0.86801 0.17389 0.0
C1586 C 0.78389 0.8682 0.18988 0.0
H1587 H 0.76078 0.83059 0.25176 0.0
H1588 H 0.76325 0.83773 0.21424 0.0
H1589 H 0.78113 0.84163 0.24005 0.0
H1590 H 0.79876 0.88939 0.25178 0.0
H1591 H 0.82683 0.88915 0.22395 0.0
H1592 H 0.38893 0.44956 0.60029 0.0
H1593 H 0.38811 0.47786 0.57296 0.0
H1594 H 0.35661 0.4526 0.50488 0.0
H1595 H 0.35724 0.42429 0.53203 0.0
H1596 H 0.40084 0.48389 0.51503 0.0
H1597 H 0.32801 0.49849 0.5253 0.0
H1598 H 0.33942 0.48249 0.54857 0.0
H1599 H 0.33316 0.47641 0.51169 0.0
C1600 C 0.38173 0.45004 0.57959 0.0
C1601 C 0.37313 0.43467 0.56835 0.0
C1602 C 0.3813 0.46621 0.56401 0.0
C1603 C 0.37214 0.46735 0.5371 0.0
C1604 C 0.3635 0.45207 0.52586 0.0
H1605 H 0.38489 0.54844 0.40127 0.0
H1606 H 0.38432 0.52061 0.42985 0.0
C1607 C 0.36396 0.43588 0.54135 0.0
C1608 C 0.37212 0.48436 0.52026 0.0
H1609 H 0.34458 0.51675 0.49221 0.0
C1610 C 0.38856 0.49113 0.5101 0.0
C1611 C 0.35609 0.49382 0.51416 0.0
C1612 C 0.33817 0.48756 0.52569 0.0
C1613 C 0.38938 0.50701 0.49355 0.0
C1614 C 0.37329 0.51619 0.48666 0.0
C1615 C 0.35688 0.50957 0.49726 0.0
C1616 C 0.37324 0.5329 0.469 0.0
C1617 C 0.40749 0.51397 0.48399 0.0
C1618 C 0.36668 0.54891 0.48124 0.0
C1619 C 0.36686 0.5648 0.46493 0.0
C1620 C 0.37356 0.56496 0.436 0.0
C1621 C 0.3798 0.54881 0.42359 0.0
C1622 C 0.37957 0.53291 0.43992 0.0
H1623 H 0.41856 0.50806 0.49722 0.0
H1624 H 0.40976 0.51031 0.46061 0.0
H1625 H 0.40814 0.52883 0.48591 0.0
H1626 H 0.36165 0.54916 0.5036 0.0
H1627 H 0.36191 0.57699 0.47513 0.0
H1628 H 0.67163 0.11153 0.72404 0.0
H1629 H 0.69978 0.11142 0.75172 0.0
H1630 H 0.72676 0.13669 0.67877 0.0
H1631 H 0.69863 0.13706 0.65097 0.0
H1632 H 0.73272 0.09553 0.7376 0.0
H1633 H 0.73889 0.16959 0.74865 0.0
H1634 H 0.7183 0.15876 0.73746 0.0
H1635 H 0.73622 0.16179 0.71148 0.0
C1636 C 0.68353 0.11708 0.71385 0.0
C1637 C 0.68285 0.12443 0.68536 0.0
C1638 C 0.69961 0.11699 0.72971 0.0
C1639 C 0.71526 0.1243 0.71746 0.0
C1640 C 0.71473 0.13132 0.68884 0.0
H1641 H 0.82507 0.10983 0.77619 0.0
H1642 H 0.79655 0.10924 0.74958 0.0
C1643 C 0.69865 0.13144 0.67294 0.0
C1644 C 0.73218 0.12439 0.7346 0.0
H1645 H 0.76386 0.1522 0.76423 0.0
C1646 C 0.73953 0.10791 0.74349 0.0
C1647 C 0.74087 0.14058 0.74256 0.0
C1648 C 0.73312 0.15871 0.73482 0.0
C1649 C 0.75554 0.10717 0.75975 0.0
C1650 C 0.76451 0.12334 0.76693 0.0
C1651 C 0.75701 0.13983 0.75847 0.0
C1652 C 0.78171 0.12344 0.78327 0.0
C1653 C 0.76259 0.08912 0.76946 0.0
C1654 C 0.78288 0.13191 0.8108 0.0
C1655 C 0.79918 0.13233 0.82605 0.0
C1656 C 0.81464 0.12442 0.81389 0.0
C1657 C 0.81341 0.11599 0.78624 0.0
C1658 C 0.7971 0.11556 0.77105 0.0
H1659 H 0.75201 0.07861 0.76866 0.0
H1660 H 0.77363 0.08494 0.75457 0.0
H1661 H 0.76803 0.08983 0.79219 0.0
H1662 H 0.77115 0.13813 0.82053 0.0
H1663 H 0.79966 0.13894 0.84729 0.0
H1664 H 0.86002 0.42312 0.97403 0.0
H1665 H 0.85951 0.45165 0.00071 0.0
H1666 H 0.88765 0.47724 0.92925 0.0
H1667 H 0.88839 0.44873 0.90243 0.0
H1668 H 0.90211 0.4847 0.98513 0.0
H1669 H 0.82844 0.49596 0.98236 0.0
H1670 H 0.83507 0.4744 0.99641 0.0
H1671 H 0.83955 0.47996 0.95866 0.0
C1672 C 0.86604 0.43482 0.9639 0.0
C1673 C 0.87423 0.43365 0.93608 0.0
C1674 C 0.86565 0.45113 0.97913 0.0
C1675 C 0.87334 0.46658 0.96677 0.0
C1676 C 0.88158 0.46546 0.93909 0.0
H1677 H 0.86114 0.57676 0.02569 0.0
H1678 H 0.86101 0.54852 0.99819 0.0
C1679 C 0.88197 0.44916 0.92381 0.0
C1680 C 0.87325 0.4838 0.98311 0.0
H1681 H 0.8455 0.51545 0.01294 0.0
C1682 C 0.88975 0.49147 0.99116 0.0
C1683 C 0.85709 0.49266 0.99063 0.0
C1684 C 0.83902 0.48545 0.98137 0.0
C1685 C 0.89053 0.50766 0.00696 0.0
C1686 C 0.87436 0.51624 0.01526 0.0
C1687 C 0.85786 0.50872 0.00679 0.0
C1688 C 0.87429 0.53321 0.03228 0.0
C1689 C 0.90865 0.51558 0.01424 0.0
C1690 C 0.88157 0.53388 0.06075 0.0
C1691 C 0.8817 0.55 0.07654 0.0
C1692 C 0.87446 0.56573 0.06417 0.0
C1693 C 0.86688 0.56492 0.03583 0.0
C1694 C 0.86677 0.54879 0.02008 0.0
H1695 H 0.91944 0.50984 0.00022 0.0
H1696 H 0.90855 0.5304 0.01147 0.0
H1697 H 0.91197 0.51258 0.03753 0.0
H1698 H 0.88712 0.52191 0.07078 0.0
H1699 H 0.8875 0.55013 0.0984 0.0
H1700 H 0.17295 0.10829 0.7776 0.0
H1701 H 0.20136 0.10794 0.75073 0.0
H1702 H 0.22687 0.13683 0.82162 0.0
H1703 H 0.19847 0.1374 0.84864 0.0
H1704 H 0.23379 0.15113 0.76547 0.0
H1705 H 0.2462 0.07761 0.76891 0.0
H1706 H 0.22448 0.08384 0.75506 0.0
H1707 H 0.23019 0.0886 0.7927 0.0
C1708 C 0.18461 0.11449 0.78758 0.0
C1709 C 0.18345 0.12287 0.81529 0.0
C1710 C 0.20086 0.1142 0.77224 0.0
C1711 C 0.21624 0.12216 0.78436 0.0
C1712 C 0.21514 0.13055 0.81197 0.0
H1713 H 0.3262 0.11134 0.72455 0.0
H1714 H 0.29809 0.11091 0.75224 0.0
C1715 C 0.19891 0.13084 0.82736 0.0
C1716 C 0.23336 0.12225 0.76783 0.0
H1717 H 0.26525 0.09482 0.73793 0.0
C1718 C 0.24071 0.13884 0.7595 0.0
C1719 C 0.24242 0.10618 0.76038 0.0
C1720 C 0.23555 0.08804 0.76992 0.0
C1721 C 0.25679 0.13979 0.74349 0.0
C1722 C 0.26557 0.1237 0.73528 0.0
C1723 C 0.25837 0.10712 0.74402 0.0
C1724 C 0.28247 0.12381 0.71813 0.0
C1725 C 0.26438 0.158 0.73592 0.0
C1726 C 0.28292 0.13096 0.68958 0.0
C1727 C 0.29898 0.13127 0.67368 0.0
C1728 C 0.31484 0.12432 0.68602 0.0
C1729 C 0.31424 0.11686 0.71443 0.0
C1730 C 0.29819 0.11658 0.73029 0.0
H1731 H 0.25853 0.16878 0.74987 0.0
H1732 H 0.2792 0.15816 0.73854 0.0
H1733 H 0.26121 0.16114 0.71262 0.0
H1734 H 0.27084 0.13628 0.67958 0.0
H1735 H 0.29894 0.13697 0.65177 0.0
H1736 H 0.63843 0.57645 0.47375 0.0
H1737 H 0.63905 0.5482 0.50107 0.0
H1738 H 0.61247 0.52142 0.429 0.0
H1739 H 0.61161 0.54966 0.40155 0.0
H1740 H 0.59723 0.51426 0.48415 0.0
H1741 H 0.67111 0.50427 0.48552 0.0
H1742 H 0.66385 0.52581 0.49884 0.0
H1743 H 0.66019 0.5199 0.46096 0.0
C1744 C 0.63279 0.56454 0.46361 0.0
C1745 C 0.62498 0.56531 0.43544 0.0
C1746 C 0.63325 0.54839 0.47921 0.0
C1747 C 0.62602 0.53269 0.46688 0.0
C1748 C 0.61819 0.5334 0.43882 0.0
H1749 H 0.6385 0.42307 0.52743 0.0
H1750 H 0.63887 0.45127 0.49993 0.0
C1751 C 0.61772 0.54954 0.42318 0.0
C1752 C 0.6261 0.51564 0.48363 0.0
H1753 H 0.6538 0.48471 0.51549 0.0
C1754 C 0.60959 0.50776 0.49096 0.0
C1755 C 0.64226 0.50713 0.4922 0.0
C1756 C 0.66038 0.51459 0.48378 0.0
C1757 C 0.60879 0.49168 0.507 0.0
C1758 C 0.62493 0.48344 0.51627 0.0
C1759 C 0.64145 0.49118 0.50859 0.0
C1760 C 0.62495 0.46654 0.5334 0.0
C1761 C 0.59068 0.4835 0.51347 0.0
C1762 C 0.61725 0.46587 0.56155 0.0
C1763 C 0.61699 0.44977 0.57735 0.0
C1764 C 0.6245 0.43407 0.5653 0.0
C1765 C 0.63253 0.4349 0.53732 0.0
C1766 C 0.63278 0.451 0.52157 0.0
H1767 H 0.58003 0.48905 0.49897 0.0
H1768 H 0.59105 0.46868 0.5107 0.0
H1769 H 0.58695 0.48647 0.5366 0.0
H1770 H 0.61144 0.47782 0.57129 0.0
H1771 H 0.61083 0.44964 0.59893 0.0
H1772 H 0.30013 0.85972 0.3508 0.0
H1773 H 0.27171 0.86014 0.32376 0.0
H1774 H 0.2973 0.88816 0.25217 0.0
H1775 H 0.32572 0.88799 0.27908 0.0
H1776 H 0.26396 0.90274 0.2686 0.0
H1777 H 0.25998 0.82894 0.25138 0.0
H1778 H 0.26283 0.83576 0.28903 0.0
H1779 H 0.28037 0.84007 0.26283 0.0
C1780 C 0.29973 0.86596 0.32929 0.0
C1781 C 0.31523 0.87371 0.31701 0.0
C1782 C 0.2835 0.86611 0.31383 0.0
C1783 C 0.28249 0.87394 0.2858 0.0
C1784 C 0.29783 0.88198 0.27373 0.0
H1785 H 0.19882 0.86062 0.15486 0.0
H1786 H 0.2271 0.86142 0.18224 0.0
C1787 C 0.31406 0.88184 0.28914 0.0
C1788 C 0.26544 0.87385 0.26904 0.0
H1789 H 0.23459 0.84605 0.23714 0.0
C1790 C 0.25752 0.89036 0.26168 0.0
C1791 C 0.25723 0.85768 0.25976 0.0
C1792 C 0.26558 0.83959 0.26588 0.0
C1793 C 0.24146 0.89112 0.24556 0.0
C1794 C 0.23301 0.87493 0.23694 0.0
C1795 C 0.24104 0.85843 0.24399 0.0
C1796 C 0.2159 0.8748 0.22032 0.0
C1797 C 0.23384 0.90923 0.23744 0.0
C1798 C 0.20023 0.88194 0.23279 0.0
C1799 C 0.18404 0.88153 0.21722 0.0
C1800 C 0.18323 0.87384 0.18895 0.0
C1801 C 0.19897 0.86664 0.17658 0.0
C1802 C 0.21514 0.86707 0.19218 0.0
H1803 H 0.24408 0.92004 0.23919 0.0
H1804 H 0.22842 0.90911 0.21468 0.0
H1805 H 0.22269 0.91257 0.25267 0.0
H1806 H 0.20046 0.88767 0.25471 0.0
H1807 H 0.17216 0.88712 0.22746 0.0
H1808 H 0.63738 0.07597 0.52597 0.0
H1809 H 0.6377 0.04758 0.49888 0.0
H1810 H 0.61143 0.02127 0.57154 0.0
H1811 H 0.61085 0.04965 0.59875 0.0
H1812 H 0.65323 0.01459 0.51427 0.0
H1813 H 0.57933 0.00887 0.50075 0.0
H1814 H 0.59015 0.02949 0.51189 0.0
H1815 H 0.58673 0.01175 0.53809 0.0
C1816 C 0.63165 0.06416 0.53622 0.0
C1817 C 0.62396 0.0651 0.56445 0.0
C1818 C 0.63187 0.04795 0.52071 0.0
C1819 C 0.62435 0.03241 0.53304 0.0
C1820 C 0.61697 0.03321 0.56141 0.0
H1821 H 0.6388 0.92233 0.4739 0.0
H1822 H 0.63925 0.95067 0.50114 0.0
C1823 C 0.61673 0.04942 0.57697 0.0
C1824 C 0.62436 0.01537 0.5162 0.0
H1825 H 0.59675 0.98385 0.48563 0.0
C1826 C 0.6409 0.00786 0.50796 0.0
C1827 C 0.60823 0.00677 0.50772 0.0
C1828 C 0.59008 0.01468 0.5148 0.0
C1829 C 0.64174 0.99182 0.49175 0.0
C1830 C 0.62561 0.98298 0.48395 0.0
C1831 C 0.60908 0.99061 0.49186 0.0
C1832 C 0.62559 0.96587 0.4673 0.0
C1833 C 0.65985 0.98462 0.48269 0.0
C1834 C 0.61748 0.96496 0.43947 0.0
C1835 C 0.61712 0.94878 0.42387 0.0
C1836 C 0.62477 0.93317 0.43595 0.0
C1837 C 0.63285 0.93412 0.4639 0.0
C1838 C 0.63321 0.95032 0.47946 0.0
H1839 H 0.67045 0.99509 0.48404 0.0
H1840 H 0.66369 0.97347 0.49761 0.0
H1841 H 0.65943 0.97928 0.45988 0.0
H1842 H 0.61146 0.97682 0.42978 0.0
H1843 H 0.6108 0.94851 0.40241 0.0
H1844 H 0.29988 0.36087 0.6551 0.0
H1845 H 0.27158 0.36158 0.68238 0.0
H1846 H 0.29789 0.38878 0.75429 0.0
H1847 H 0.32621 0.3883 0.72715 0.0
H1848 H 0.26441 0.34659 0.73792 0.0
H1849 H 0.25376 0.42044 0.73757 0.0
H1850 H 0.2695 0.40944 0.7133 0.0
H1851 H 0.27531 0.41343 0.75112 0.0
C1852 C 0.29965 0.36707 0.67667 0.0
C1853 C 0.3153 0.37456 0.68893 0.0
C1854 C 0.28347 0.36745 0.69221 0.0
C1855 C 0.28261 0.37542 0.72017 0.0
C1856 C 0.2982 0.38285 0.73251 0.0
H1857 H 0.19897 0.36054 0.85132 0.0
H1858 H 0.22729 0.36116 0.82412 0.0
C1859 C 0.31439 0.38248 0.71701 0.0
C1860 C 0.26551 0.37548 0.73675 0.0
H1861 H 0.23416 0.40318 0.7675 0.0
C1862 C 0.25776 0.35895 0.74435 0.0
C1863 C 0.25681 0.39164 0.74482 0.0
C1864 C 0.26415 0.40976 0.73609 0.0
C1865 C 0.24161 0.35813 0.76018 0.0
C1866 C 0.23316 0.37429 0.76894 0.0
C1867 C 0.24078 0.39083 0.76099 0.0
C1868 C 0.21615 0.37431 0.78579 0.0
C1869 C 0.23357 0.34 0.76695 0.0
C1870 C 0.20064 0.38194 0.77357 0.0
C1871 C 0.18446 0.38169 0.78907 0.0
C1872 C 0.18352 0.37386 0.81719 0.0
C1873 C 0.19919 0.36654 0.82962 0.0
C1874 C 0.21537 0.36681 0.81407 0.0
H1875 H 0.23929 0.32927 0.75275 0.0
H1876 H 0.23646 0.33649 0.7902 0.0
H1877 H 0.21877 0.3402 0.76399 0.0
H1878 H 0.201 0.38788 0.75182 0.0
H1879 H 0.17266 0.38751 0.77889 0.0
H1880 H 0.86068 0.07649 0.97289 0.0
H1881 H 0.86059 0.0484 0.00067 0.0
H1882 H 0.88618 0.02131 0.92801 0.0
H1883 H 0.88652 0.0494 0.9001 0.0
H1884 H 0.84495 0.01524 0.98656 0.0
H1885 H 0.91897 0.00969 0.99826 0.0
H1886 H 0.90802 0.03018 0.9869 0.0
H1887 H 0.91124 0.01219 0.96104 0.0
C1888 C 0.8663 0.06457 0.96278 0.0
C1889 C 0.87374 0.06522 0.93435 0.0
C1890 C 0.86622 0.04853 0.97869 0.0
C1891 C 0.87362 0.03287 0.96656 0.0
C1892 C 0.88073 0.03335 0.93798 0.0
H1893 H 0.85981 0.9232 0.02669 0.0
H1894 H 0.85906 0.95155 0.99964 0.0
C1895 C 0.88083 0.0494 0.92203 0.0
C1896 C 0.87379 0.016 0.98381 0.0
H1897 H 0.90173 0.9847 0.01408 0.0
C1898 C 0.85735 0.00856 0.99264 0.0
C1899 C 0.89001 0.00748 0.99202 0.0
C1900 C 0.90808 0.01534 0.98433 0.0
C1901 C 0.85668 0.99263 0.00909 0.0
C1902 C 0.87288 0.98383 0.01655 0.0
C1903 C 0.88933 0.99143 0.00812 0.0
C1904 C 0.87308 0.96674 0.03316 0.0
C1905 C 0.83866 0.98549 0.01873 0.0
C1906 C 0.8815 0.96582 0.06074 0.0
C1907 C 0.88203 0.94962 0.07624 0.0
C1908 C 0.87425 0.93401 0.06428 0.0
C1909 C 0.86587 0.93499 0.03658 0.0
C1910 C 0.86533 0.95119 0.02114 0.0
H1911 H 0.82808 0.99599 0.01772 0.0
H1912 H 0.83462 0.97432 0.00394 0.0
H1913 H 0.83933 0.98018 0.04153 0.0
H1914 H 0.88761 0.97767 0.07031 0.0
H1915 H 0.88859 0.94933 0.0975 0.0
H1916 H 0.17286 0.60998 0.22306 0.0
H1917 H 0.20107 0.60991 0.25058 0.0
H1918 H 0.2276 0.63627 0.17821 0.0
H1919 H 0.1994 0.63659 0.15057 0.0
H1920 H 0.23426 0.59461 0.23576 0.0
H1921 H 0.23929 0.66862 0.24911 0.0
H1922 H 0.21884 0.6576 0.23773 0.0
H1923 H 0.23665 0.66117 0.21174 0.0
C1924 C 0.18468 0.61578 0.21296 0.0
C1925 C 0.18385 0.62342 0.18469 0.0
C1926 C 0.20079 0.61571 0.22872 0.0
C1927 C 0.21633 0.62333 0.2166 0.0
C1928 C 0.21565 0.63064 0.18818 0.0
H1929 H 0.32623 0.60961 0.27571 0.0
H1930 H 0.29783 0.60897 0.24877 0.0
C1931 C 0.19955 0.63073 0.17237 0.0
C1932 C 0.23326 0.62349 0.23369 0.0
H1933 H 0.26446 0.65143 0.26433 0.0
C1934 C 0.24086 0.60702 0.24206 0.0
C1935 C 0.24169 0.63971 0.24219 0.0
C1936 C 0.23365 0.6578 0.235 0.0
C1937 C 0.25686 0.60633 0.25836 0.0
C1938 C 0.26557 0.62255 0.26611 0.0
C1939 C 0.25781 0.63902 0.25813 0.0
C1940 C 0.28271 0.62274 0.28261 0.0
C1941 C 0.26417 0.58828 0.26753 0.0
C1942 C 0.28369 0.631 0.31032 0.0
C1943 C 0.29993 0.63148 0.32575 0.0
C1944 C 0.3155 0.6238 0.31361 0.0
C1945 C 0.31447 0.61558 0.28576 0.0
C1946 C 0.29823 0.61511 0.27038 0.0
H1947 H 0.25373 0.57763 0.26644 0.0
H1948 H 0.27525 0.58441 0.2525 0.0
H1949 H 0.26961 0.58881 0.29027 0.0
H1950 H 0.27186 0.63703 0.32006 0.0
H1951 H 0.30026 0.63791 0.34714 0.0
H1952 H 0.38777 0.04994 0.59891 0.0
H1953 H 0.38735 0.02156 0.57172 0.0
H1954 H 0.35913 0.04721 0.50035 0.0
H1955 H 0.35932 0.07563 0.5274 0.0
H1956 H 0.34473 0.01361 0.51688 0.0
H1957 H 0.41843 0.01028 0.49894 0.0
H1958 H 0.41175 0.01311 0.53665 0.0
H1959 H 0.40718 0.03059 0.51045 0.0
C1960 C 0.38148 0.04957 0.57742 0.0
C1961 C 0.3737 0.06509 0.56523 0.0
C1962 C 0.38133 0.03335 0.56188 0.0
C1963 C 0.37345 0.03238 0.53387 0.0
C1964 C 0.36535 0.04773 0.52189 0.0
H1965 H 0.38698 0.94862 0.40298 0.0
H1966 H 0.38591 0.97698 0.43015 0.0
C1967 C 0.36551 0.06395 0.53738 0.0
C1968 C 0.37358 0.01534 0.51702 0.0
H1969 H 0.40149 0.98471 0.48486 0.0
C1970 C 0.35712 0.00728 0.50983 0.0
C1971 C 0.38978 0.00728 0.50757 0.0
C1972 C 0.4078 0.0158 0.51352 0.0
C1973 C 0.35643 0.99118 0.49374 0.0
C1974 C 0.37265 0.98287 0.48497 0.0
C1975 C 0.38909 0.99107 0.49182 0.0
C1976 C 0.37286 0.96572 0.46843 0.0
C1977 C 0.33836 0.98337 0.48584 0.0
C1978 C 0.36598 0.94997 0.48106 0.0
C1979 C 0.36655 0.93374 0.46561 0.0
C1980 C 0.37414 0.93295 0.4373 0.0
C1981 C 0.38105 0.94876 0.42474 0.0
C1982 C 0.38047 0.96498 0.44022 0.0
H1983 H 0.32748 0.99352 0.48768 0.0
H1984 H 0.33843 0.97792 0.46309 0.0
H1985 H 0.33522 0.9722 0.50113 0.0
H1986 H 0.36035 0.9502 0.50303 0.0
H1987 H 0.36118 0.9218 0.47598 0.0
H1988 H 0.79955 0.63743 0.15146 0.0
H1989 H 0.77141 0.63694 0.17917 0.0
H1990 H 0.79825 0.61087 0.25156 0.0
H1991 H 0.82641 0.6111 0.22398 0.0
H1992 H 0.7652 0.59529 0.23694 0.0
H1993 H 0.75952 0.66928 0.24988 0.0
H1994 H 0.76213 0.66179 0.21254 0.0
H1995 H 0.78004 0.65842 0.23848 0.0
C1996 C 0.79949 0.63161 0.17329 0.0
C1997 C 0.81525 0.62441 0.18559 0.0
C1998 C 0.78341 0.63142 0.18913 0.0
C1999 C 0.78284 0.62413 0.21758 0.0
C2000 C 0.79845 0.61664 0.22969 0.0
H2001 H 0.69891 0.63827 0.34804 0.0
H2002 H 0.72731 0.63748 0.32105 0.0
C2003 C 0.81453 0.61681 0.21389 0.0
C2004 C 0.76593 0.62417 0.23469 0.0
H2005 H 0.73451 0.6519 0.26518 0.0
C2006 C 0.75849 0.60765 0.24317 0.0
C2007 C 0.75737 0.64034 0.2431 0.0
C2008 C 0.76522 0.65848 0.2358 0.0
C2009 C 0.74251 0.60686 0.25949 0.0
C2010 C 0.73367 0.62302 0.26714 0.0
C2011 C 0.74126 0.63954 0.25906 0.0
C2012 C 0.71654 0.62309 0.28362 0.0
C2013 C 0.73537 0.58876 0.26877 0.0
C2014 C 0.70106 0.61536 0.27139 0.0
C2015 C 0.68482 0.61577 0.28672 0.0
C2016 C 0.68374 0.62404 0.31452 0.0
C2017 C 0.69928 0.6318 0.32669 0.0
C2018 C 0.71551 0.63138 0.31131 0.0
H2019 H 0.7459 0.5782 0.26769 0.0
H2020 H 0.72998 0.58929 0.29152 0.0
H2021 H 0.72429 0.58478 0.25379 0.0
H2022 H 0.7015 0.60918 0.24981 0.0
H2023 H 0.67309 0.60974 0.27665 0.0
H2024 H 0.13951 0.9226 0.03002 0.0
H2025 H 0.14008 0.95094 0.00294 0.0
H2026 H 0.112 0.97708 0.07402 0.0
H2027 H 0.11119 0.94875 0.10125 0.0
H2028 H 0.09742 0.98405 0.01824 0.0
H2029 H 0.17107 0.99544 0.01994 0.0
H2030 H 0.16447 0.97375 0.00634 0.0
H2031 H 0.1601 0.9796 0.04404 0.0
C2032 C 0.13353 0.93439 0.04001 0.0
C2033 C 0.12531 0.93342 0.06782 0.0
C2034 C 0.13396 0.95059 0.02455 0.0
C2035 C 0.12629 0.96614 0.03665 0.0
C2036 C 0.11806 0.96523 0.06438 0.0
H2037 H 0.13793 0.07568 0.97481 0.0
H2038 H 0.1383 0.04774 0.00298 0.0
C2039 C 0.11763 0.94903 0.07989 0.0
C2040 C 0.12629 0.9832 0.01995 0.0
H2041 H 0.15387 0.01451 0.98889 0.0
C2042 C 0.10975 0.99076 0.01189 0.0
C2043 C 0.1424 0.99199 0.01198 0.0
C2044 C 0.16053 0.9849 0.02122 0.0
C2045 C 0.10888 0.00675 0.99563 0.0
C2046 C 0.125 0.01524 0.98689 0.0
C2047 C 0.14154 0.00785 0.99537 0.0
C2048 C 0.12496 0.03202 0.96941 0.0
C2049 C 0.09072 0.01457 0.98835 0.0
C2050 C 0.11758 0.03235 0.941 0.0
C2051 C 0.11731 0.04831 0.92481 0.0
C2052 C 0.12451 0.06419 0.93673 0.0
C2053 C 0.13221 0.06371 0.965 0.0
C2054 C 0.13246 0.04775 0.98115 0.0
H2055 H 0.07999 0.00896 0.00263 0.0
H2056 H 0.0908 0.02942 0.99075 0.0
H2057 H 0.08731 0.01132 0.96517 0.0
H2058 H 0.11204 0.02025 0.93133 0.0
H2059 H 0.11142 0.04818 0.90302 0.0
H2060 H 0.67224 0.38927 0.72395 0.0
H2061 H 0.70062 0.39 0.75096 0.0
H2062 H 0.72664 0.36166 0.68002 0.0
H2063 H 0.69828 0.36072 0.65286 0.0
H2064 H 0.73375 0.34739 0.73619 0.0
H2065 H 0.74498 0.42111 0.73298 0.0
H2066 H 0.72336 0.41449 0.74671 0.0
H2067 H 0.72916 0.40988 0.70908 0.0
C2068 C 0.684 0.38326 0.71399 0.0
C2069 C 0.683 0.37494 0.68622 0.0
C2070 C 0.70023 0.38378 0.72941 0.0
C2071 C 0.71575 0.37609 0.71731 0.0
C2072 C 0.7148 0.36774 0.68966 0.0
H2073 H 0.82565 0.3883 0.77694 0.0
H2074 H 0.79745 0.38851 0.74939 0.0
C2075 C 0.69859 0.36723 0.67418 0.0
C2076 C 0.73287 0.37626 0.73388 0.0
H2077 H 0.76436 0.40417 0.76383 0.0
C2078 C 0.74048 0.35979 0.74218 0.0
C2079 C 0.74168 0.39246 0.74138 0.0
C2080 C 0.7345 0.41051 0.73189 0.0
C2081 C 0.75659 0.35908 0.75818 0.0
C2082 C 0.76513 0.3753 0.76642 0.0
C2083 C 0.75766 0.39177 0.75773 0.0
C2084 C 0.78205 0.37543 0.78355 0.0
C2085 C 0.76447 0.34098 0.76573 0.0
C2086 C 0.78264 0.36827 0.81208 0.0
C2087 C 0.79874 0.3681 0.8279 0.0
C2088 C 0.81452 0.37518 0.81548 0.0
C2089 C 0.81377 0.38268 0.78711 0.0
C2090 C 0.79767 0.38283 0.77133 0.0
H2091 H 0.75876 0.33011 0.75179 0.0
H2092 H 0.77929 0.34105 0.76305 0.0
H2093 H 0.76141 0.33779 0.78903 0.0
H2094 H 0.77064 0.36282 0.82212 0.0
H2095 H 0.79882 0.36236 0.84979 0.0
loop_
_geom_bond_atom_site_label_1
_geom_bond_atom_site_label_2
_geom_bond_distance
_geom_bond_site_symmetry_2
_ccdc_geom_bond_type
Co0 O2 2.143 . S
Co0 O8 2.074 . S
Co0 O11 2.093 . S
Co0 O24 2.097 . S
Co0 N41 2.151 . S
Co0 N49 2.214 . S
Co1 O2 2.160 . S
Co1 O7 2.058 . S
Co1 O17 2.057 . S
Co1 O32 2.037 . S
Co1 N36 2.145 . S
Co1 N57 2.257 . S
O2 Co0 2.143 . S
O2 Co1 2.160 . S
C3 O4 1.278 . S
C3 O11 1.224 . S
O4 C3 1.278 . S
C5 O6 1.245 . S
C5 O17 1.232 . S
O6 C5 1.245 . S
O7 Co1 2.058 . S
O7 C33 1.269 . S
O8 Co0 2.074 . S
O8 C33 1.257 . S
H9 C34 0.930 . S
H10 C40 0.930 . S
O11 Co0 2.093 . S
O11 C3 1.224 . S
H12 C44 0.929 . S
H13 C46 0.930 . S
H14 C47 0.930 . S
H15 C45 0.929 . S
H16 C48 0.928 . S
O17 Co1 2.057 . S
O17 C5 1.232 . S
H18 C37 0.929 . S
H19 C38 0.929 . S
H20 C50 0.931 . S
H21 C42 0.929 . S
H22 C51 0.930 1_556 S
H23 C43 0.931 . S
O24 Co0 2.097 . S
O24 C52 1.214 . S
H25 C53 0.929 . S
H26 C54 0.929 . S
H27 C55 0.930 . S
H28 C56 0.929 . S
H29 C58 0.930 . S
H30 C35 0.930 . S
H31 C39 0.930 . S
O32 Co1 2.037 . S
O32 C52 1.234 . S
C33 O7 1.269 . S
C33 O8 1.257 . S
C34 H9 0.930 . S
C34 C37 1.388 . S
C34 C39 1.418 . S
C35 H30 0.930 . S
C35 C38 1.404 . S
C35 C39 1.353 . S
N36 Co1 2.145 . S
N36 C37 1.397 . S
N36 C38 1.334 . S
C37 H18 0.929 . S
C37 C34 1.388 . S
C37 N36 1.397 . S
C38 H19 0.929 . S
C38 C35 1.404 . S
C38 N36 1.334 . S
C39 H31 0.930 . S
C39 C34 1.418 . S
C39 C35 1.353 . S
C40 H10 0.930 . S
C40 N41 1.330 . S
C40 C42 1.446 . S
N41 Co0 2.151 . S
N41 C40 1.330 . S
N41 C45 1.418 . S
C42 H21 0.929 . S
C42 C40 1.446 . S
C42 C43 1.332 . S
C43 H23 0.931 . S
C43 C42 1.332 . S
C43 C44 1.267 . S
C44 H12 0.929 . S
C44 C43 1.267 . S
C44 C45 1.251 . S
C45 H15 0.929 . S
C45 N41 1.418 . S
C45 C44 1.251 . S
C46 H13 0.930 . S
C46 C48 1.406 1_556 S
C46 C51 1.261 1_556 S
C47 H14 0.930 . S
C47 N49 1.325 . S
C47 C50 1.357 . S
C48 H16 0.928 . S
C48 C46 1.406 1_554 S
C48 N49 1.261 . S
N49 Co0 2.214 . S
N49 C47 1.325 . S
N49 C48 1.261 . S
C50 H20 0.931 . S
C50 C47 1.357 . S
C50 C51 1.312 . S
C51 H22 0.930 1_554 S
C51 C46 1.261 1_554 S
C51 C50 1.312 . S
C52 O24 1.214 . S
C52 O32 1.234 . S
C53 H25 0.929 . S
C53 C56 1.391 . S
C53 C58 1.391 . S
C54 H26 0.929 . S
C54 C55 1.390 . S
C54 N57 1.391 . S
C55 H27 0.930 . S
C55 C54 1.390 . S
C55 C56 1.392 . S
C56 H28 0.929 . S
C56 C53 1.391 . S
C56 C55 1.392 . S
N57 Co1 2.257 . S
N57 C54 1.391 . S
N57 C58 1.388 . S
C58 H29 0.930 . S
C58 C53 1.391 . S
C58 N57 1.388 . S
Co59 O61 2.143 . S
Co59 O67 2.074 . S
Co59 O70 2.093 . S
Co59 O83 2.097 . S
Co59 N100 2.151 . S
Co59 N108 2.214 . S
Co60 O61 2.160 . S
Co60 O66 2.058 . S
Co60 O76 2.057 . S
Co60 O91 2.037 . S
Co60 N95 2.145 . S
Co60 N116 2.257 . S
O61 Co59 2.143 . S
O61 Co60 2.160 . S
C62 O63 1.278 . S
C62 O70 1.224 . S
O63 C62 1.278 . S
C64 O65 1.245 . S
C64 O76 1.232 . S
O65 C64 1.245 . S
O66 Co60 2.058 . S
O66 C92 1.269 . S
O67 Co59 2.074 . S
O67 C92 1.257 . S
H68 C93 0.930 . S
H69 C99 0.930 . S
O70 Co59 2.093 . S
O70 C62 1.224 . S
H71 C103 0.929 . S
H72 C105 0.930 . S
H73 C106 0.930 . S
H74 C104 0.929 . S
H75 C107 0.928 . S
O76 Co60 2.057 . S
O76 C64 1.232 . S
H77 C96 0.929 . S
H78 C97 0.929 . S
H79 C109 0.931 . S
H80 C101 0.929 . S
H81 C110 0.930 . S
H82 C102 0.931 . S
O83 Co59 2.097 . S
O83 C111 1.214 . S
H84 C112 0.929 . S
H85 C113 0.929 . S
H86 C114 0.930 . S
H87 C115 0.929 . S
H88 C117 0.930 . S
H89 C94 0.930 . S
H90 C98 0.930 . S
O91 Co60 2.037 . S
O91 C111 1.234 . S
C92 O66 1.269 . S
C92 O67 1.257 . S
C93 H68 0.930 . S
C93 C96 1.388 . S
C93 C98 1.418 . S
C94 H89 0.930 . S
C94 C97 1.404 . S
C94 C98 1.353 . S
N95 Co60 2.145 . S
N95 C96 1.397 . S
N95 C97 1.334 . S
C96 H77 0.929 . S
C96 C93 1.388 . S
C96 N95 1.397 . S
C97 H78 0.929 . S
C97 C94 1.404 . S
C97 N95 1.334 . S
C98 H90 0.930 . S
C98 C93 1.418 . S
C98 C94 1.353 . S
C99 H69 0.930 . S
C99 N100 1.330 . S
C99 C101 1.446 . S
N100 Co59 2.151 . S
N100 C99 1.330 . S
N100 C104 1.418 . S
C101 H80 0.929 . S
C101 C99 1.446 . S
C101 C102 1.332 . S
C102 H82 0.931 . S
C102 C101 1.332 . S
C102 C103 1.267 . S
C103 H71 0.929 . S
C103 C102 1.267 . S
C103 C104 1.251 . S
C104 H74 0.929 . S
C104 N100 1.418 . S
C104 C103 1.251 . S
C105 H72 0.930 . S
C105 C107 1.406 . S
C105 C110 1.261 . S
C106 H73 0.930 . S
C106 N108 1.325 . S
C106 C109 1.357 . S
C107 H75 0.928 . S
C107 C105 1.406 . S
C107 N108 1.261 . S
N108 Co59 2.214 . S
N108 C106 1.325 . S
N108 C107 1.261 . S
C109 H79 0.931 . S
C109 C106 1.357 . S
C109 C110 1.312 . S
C110 H81 0.930 . S
C110 C105 1.261 . S
C110 C109 1.312 . S
C111 O83 1.214 . S
C111 O91 1.234 . S
C112 H84 0.929 . S
C112 C115 1.391 . S
C112 C117 1.391 . S
C113 H85 0.929 . S
C113 C114 1.390 . S
C113 N116 1.391 . S
C114 H86 0.930 . S
C114 C113 1.390 . S
C114 C115 1.392 . S
C115 H87 0.929 . S
C115 C112 1.391 . S
C115 C114 1.392 . S
N116 Co60 2.257 . S
N116 C113 1.391 . S
N116 C117 1.388 . S
C117 H88 0.930 . S
C117 C112 1.391 . S
C117 N116 1.388 . S
Co118 O120 2.143 . S
Co118 O126 2.074 . S
Co118 O129 2.093 . S
Co118 O142 2.097 . S
Co118 N159 2.151 . S
Co118 N167 2.214 . S
Co119 O120 2.160 . S
Co119 O125 2.058 . S
Co119 O135 2.057 . S
Co119 O150 2.037 . S
Co119 N154 2.145 . S
Co119 N175 2.257 . S
O120 Co118 2.143 . S
O120 Co119 2.160 . S
C121 O122 1.278 . S
C121 O129 1.224 . S
O122 C121 1.278 . S
C123 O124 1.245 . S
C123 O135 1.232 . S
O124 C123 1.245 . S
O125 Co119 2.058 . S
O125 C151 1.269 . S
O126 Co118 2.074 . S
O126 C151 1.257 . S
H127 C152 0.930 . S
H128 C158 0.930 . S
O129 Co118 2.093 . S
O129 C121 1.224 . S
H130 C162 0.929 . S
H131 C164 0.930 . S
H132 C165 0.930 . S
H133 C163 0.929 . S
H134 C166 0.928 . S
O135 Co119 2.057 . S
O135 C123 1.232 . S
H136 C155 0.929 . S
H137 C156 0.929 . S
H138 C168 0.931 . S
H139 C160 0.929 . S
H140 C169 0.930 . S
H141 C161 0.931 . S
O142 Co118 2.097 . S
O142 C170 1.214 . S
H143 C171 0.929 . S
H144 C172 0.929 . S
H145 C173 0.930 . S
H146 C174 0.929 . S
H147 C176 0.930 . S
H148 C153 0.930 . S
H149 C157 0.930 . S
O150 Co119 2.037 . S
O150 C170 1.234 . S
C151 O125 1.269 . S
C151 O126 1.257 . S
C152 H127 0.930 . S
C152 C155 1.388 . S
C152 C157 1.418 . S
C153 H148 0.930 . S
C153 C156 1.404 . S
C153 C157 1.353 . S
N154 Co119 2.145 . S
N154 C155 1.397 . S
N154 C156 1.334 . S
C155 H136 0.929 . S
C155 C152 1.388 . S
C155 N154 1.397 . S
C156 H137 0.929 . S
C156 C153 1.404 . S
C156 N154 1.334 . S
C157 H149 0.930 . S
C157 C152 1.418 . S
C157 C153 1.353 . S
C158 H128 0.930 . S
C158 N159 1.330 . S
C158 C160 1.446 . S
N159 Co118 2.151 . S
N159 C158 1.330 . S
N159 C163 1.418 . S
C160 H139 0.929 . S
C160 C158 1.446 . S
C160 C161 1.332 . S
C161 H141 0.931 . S
C161 C160 1.332 . S
C161 C162 1.267 . S
C162 H130 0.929 . S
C162 C161 1.267 . S
C162 C163 1.251 . S
C163 H133 0.929 . S
C163 N159 1.418 . S
C163 C162 1.251 . S
C164 H131 0.930 . S
C164 C166 1.406 . S
C164 C169 1.261 . S
C165 H132 0.930 . S
C165 N167 1.325 . S
C165 C168 1.357 . S
C166 H134 0.928 . S
C166 C164 1.406 . S
C166 N167 1.261 . S
N167 Co118 2.214 . S
N167 C165 1.325 . S
N167 C166 1.261 . S
C168 H138 0.931 . S
C168 C165 1.357 . S
C168 C169 1.312 . S
C169 H140 0.930 . S
C169 C164 1.261 . S
C169 C168 1.312 . S
C170 O142 1.214 . S
C170 O150 1.234 . S
C171 H143 0.929 . S
C171 C174 1.391 . S
C171 C176 1.391 . S
C172 H144 0.929 . S
C172 C173 1.390 . S
C172 N175 1.391 . S
C173 H145 0.930 . S
C173 C172 1.390 . S
C173 C174 1.392 . S
C174 H146 0.929 . S
C174 C171 1.391 . S
C174 C173 1.392 . S
N175 Co119 2.257 . S
N175 C172 1.391 . S
N175 C176 1.388 . S
C176 H147 0.930 . S
C176 C171 1.391 . S
C176 N175 1.388 . S
Co177 O179 2.143 . S
Co177 O185 2.074 . S
Co177 O188 2.093 . S
Co177 O201 2.097 . S
Co177 N218 2.151 . S
Co177 N226 2.214 . S
Co178 O179 2.160 . S
Co178 O184 2.058 . S
Co178 O194 2.057 . S
Co178 O209 2.037 . S
Co178 N213 2.145 . S
Co178 N234 2.257 . S
O179 Co177 2.143 . S
O179 Co178 2.160 . S
C180 O181 1.278 . S
C180 O188 1.224 . S
O181 C180 1.278 . S
C182 O183 1.245 . S
C182 O194 1.232 . S
O183 C182 1.245 . S
O184 Co178 2.058 . S
O184 C210 1.269 . S
O185 Co177 2.074 . S
O185 C210 1.257 . S
H186 C211 0.930 . S
H187 C217 0.930 . S
O188 Co177 2.093 . S
O188 C180 1.224 . S
H189 C221 0.929 . S
H190 C223 0.930 . S
H191 C224 0.930 . S
H192 C222 0.929 . S
H193 C225 0.928 . S
O194 Co178 2.057 . S
O194 C182 1.232 . S
H195 C214 0.929 . S
H196 C215 0.929 . S
H197 C227 0.931 . S
H198 C219 0.929 . S
H199 C228 0.930 . S
H200 C220 0.931 . S
O201 Co177 2.097 . S
O201 C229 1.214 . S
H202 C230 0.929 . S
H203 C231 0.929 . S
H204 C232 0.930 . S
H205 C233 0.929 . S
H206 C235 0.930 . S
H207 C212 0.930 . S
H208 C216 0.930 . S
O209 Co178 2.037 . S
O209 C229 1.234 . S
C210 O184 1.269 . S
C210 O185 1.257 . S
C211 H186 0.930 . S
C211 C214 1.388 . S
C211 C216 1.418 1_556 S
C212 H207 0.930 . S
C212 C215 1.404 1_554 S
C212 C216 1.353 . S
N213 Co178 2.145 . S
N213 C214 1.397 . S
N213 C215 1.334 . S
C214 H195 0.929 . S
C214 C211 1.388 . S
C214 N213 1.397 . S
C215 H196 0.929 . S
C215 C212 1.404 1_556 S
C215 N213 1.334 . S
C216 H208 0.930 . S
C216 C211 1.418 1_554 S
C216 C212 1.353 . S
C217 H187 0.930 . S
C217 N218 1.330 . S
C217 C219 1.446 . S
N218 Co177 2.151 . S
N218 C217 1.330 . S
N218 C222 1.418 . S
C219 H198 0.929 . S
C219 C217 1.446 . S
C219 C220 1.332 . S
C220 H200 0.931 . S
C220 C219 1.332 . S
C220 C221 1.267 . S
C221 H189 0.929 . S
C221 C220 1.267 . S
C221 C222 1.251 . S
C222 H192 0.929 . S
C222 N218 1.418 . S
C222 C221 1.251 . S
C223 H190 0.930 . S
C223 C225 1.406 . S
C223 C228 1.261 . S
C224 H191 0.930 . S
C224 N226 1.325 . S
C224 C227 1.357 . S
C225 H193 0.928 . S
C225 C223 1.406 . S
C225 N226 1.261 . S
N226 Co177 2.214 . S
N226 C224 1.325 . S
N226 C225 1.261 . S
C227 H197 0.931 . S
C227 C224 1.357 . S
C227 C228 1.312 . S
C228 H199 0.930 . S
C228 C223 1.261 . S
C228 C227 1.312 . S
C229 O201 1.214 . S
C229 O209 1.234 . S
C230 H202 0.929 . S
C230 C233 1.391 . S
C230 C235 1.391 . S
C231 H203 0.929 . S
C231 C232 1.390 . S
C231 N234 1.391 . S
C232 H204 0.930 . S
C232 C231 1.390 . S
C232 C233 1.392 . S
C233 H205 0.929 . S
C233 C230 1.391 . S
C233 C232 1.392 . S
N234 Co178 2.257 . S
N234 C231 1.391 . S
N234 C235 1.388 . S
C235 H206 0.930 . S
C235 C230 1.391 . S
C235 N234 1.388 . S
Co236 O238 2.143 . S
Co236 O244 2.074 . S
Co236 O247 2.093 . S
Co236 O260 2.097 . S
Co236 N277 2.151 . S
Co236 N285 2.214 . S
Co237 O238 2.160 . S
Co237 O243 2.058 . S
Co237 O253 2.057 . S
Co237 O268 2.037 . S
Co237 N272 2.145 . S
Co237 N293 2.257 . S
O238 Co236 2.143 . S
O238 Co237 2.160 . S
C239 O240 1.278 . S
C239 O247 1.224 . S
O240 C239 1.278 . S
C241 O242 1.245 . S
C241 O253 1.232 . S
O242 C241 1.245 . S
O243 Co237 2.058 . S
O243 C269 1.269 . S
O244 Co236 2.074 . S
O244 C269 1.257 . S
H245 C270 0.930 . S
H246 C276 0.930 . S
O247 Co236 2.093 . S
O247 C239 1.224 . S
H248 C280 0.929 . S
H249 C282 0.930 . S
H250 C283 0.930 . S
H251 C281 0.929 . S
H252 C284 0.928 . S
O253 Co237 2.057 . S
O253 C241 1.232 . S
H254 C273 0.929 . S
H255 C274 0.929 . S
H256 C286 0.931 . S
H257 C278 0.929 . S
H258 C287 0.930 1_554 S
H259 C279 0.931 . S
O260 Co236 2.097 . S
O260 C288 1.214 . S
H261 C289 0.929 . S
H262 C290 0.929 . S
H263 C291 0.930 . S
H264 C292 0.929 . S
H265 C294 0.930 . S
H266 C271 0.930 . S
H267 C275 0.930 . S
O268 Co237 2.037 . S
O268 C288 1.234 . S
C269 O243 1.269 . S
C269 O244 1.257 . S
C270 H245 0.930 . S
C270 C273 1.388 . S
C270 C275 1.418 . S
C271 H266 0.930 . S
C271 C274 1.404 . S
C271 C275 1.353 . S
N272 Co237 2.145 . S
N272 C273 1.397 . S
N272 C274 1.334 . S
C273 H254 0.929 . S
C273 C270 1.388 . S
C273 N272 1.397 . S
C274 H255 0.929 . S
C274 C271 1.404 . S
C274 N272 1.334 . S
C275 H267 0.930 . S
C275 C270 1.418 . S
C275 C271 1.353 . S
C276 H246 0.930 . S
C276 N277 1.330 . S
C276 C278 1.446 . S
N277 Co236 2.151 . S
N277 C276 1.330 . S
N277 C281 1.418 . S
C278 H257 0.929 . S
C278 C276 1.446 . S
C278 C279 1.332 . S
C279 H259 0.931 . S
C279 C278 1.332 . S
C279 C280 1.267 . S
C280 H248 0.929 . S
C280 C279 1.267 . S
C280 C281 1.251 . S
C281 H251 0.929 . S
C281 N277 1.418 . S
C281 C280 1.251 . S
C282 H249 0.930 . S
C282 C284 1.406 1_554 S
C282 C287 1.261 1_554 S
C283 H250 0.930 . S
C283 N285 1.325 . S
C283 C286 1.357 . S
C284 H252 0.928 . S
C284 C282 1.406 1_556 S
C284 N285 1.261 . S
N285 Co236 2.214 . S
N285 C283 1.325 . S
N285 C284 1.261 . S
C286 H256 0.931 . S
C286 C283 1.357 . S
C286 C287 1.312 . S
C287 H258 0.930 1_556 S
C287 C282 1.261 1_556 S
C287 C286 1.312 . S
C288 O260 1.214 . S
C288 O268 1.234 . S
C289 H261 0.929 . S
C289 C292 1.391 . S
C289 C294 1.391 . S
C290 H262 0.929 . S
C290 C291 1.390 . S
C290 N293 1.391 . S
C291 H263 0.930 . S
C291 C290 1.390 . S
C291 C292 1.392 . S
C292 H264 0.929 . S
C292 C289 1.391 . S
C292 C291 1.392 . S
N293 Co237 2.257 . S
N293 C290 1.391 . S
N293 C294 1.388 . S
C294 H265 0.930 . S
C294 C289 1.391 . S
C294 N293 1.388 . S
Co295 O297 2.143 . S
Co295 O303 2.074 . S
Co295 O306 2.093 . S
Co295 O319 2.097 . S
Co295 N336 2.151 . S
Co295 N344 2.214 . S
Co296 O297 2.160 . S
Co296 O302 2.058 . S
Co296 O312 2.057 . S
Co296 O327 2.037 . S
Co296 N331 2.145 . S
Co296 N352 2.257 . S
O297 Co295 2.143 . S
O297 Co296 2.160 . S
C298 O299 1.278 . S
C298 O306 1.224 . S
O299 C298 1.278 . S
C300 O301 1.245 . S
C300 O312 1.232 . S
O301 C300 1.245 . S
O302 Co296 2.058 . S
O302 C328 1.269 . S
O303 Co295 2.074 . S
O303 C328 1.257 . S
H304 C329 0.930 . S
H305 C335 0.930 . S
O306 Co295 2.093 . S
O306 C298 1.224 . S
H307 C339 0.929 . S
H308 C341 0.930 . S
H309 C342 0.930 . S
H310 C340 0.929 . S
H311 C343 0.928 . S
O312 Co296 2.057 . S
O312 C300 1.232 . S
H313 C332 0.929 . S
H314 C333 0.929 . S
H315 C345 0.931 . S
H316 C337 0.929 . S
H317 C346 0.930 1_556 S
H318 C338 0.931 . S
O319 Co295 2.097 . S
O319 C347 1.214 . S
H320 C348 0.929 . S
H321 C349 0.929 . S
H322 C350 0.930 . S
H323 C351 0.929 . S
H324 C353 0.930 . S
H325 C330 0.930 . S
H326 C334 0.930 . S
O327 Co296 2.037 . S
O327 C347 1.234 . S
C328 O302 1.269 . S
C328 O303 1.257 . S
C329 H304 0.930 . S
C329 C332 1.388 . S
C329 C334 1.418 . S
C330 H325 0.930 . S
C330 C333 1.404 . S
C330 C334 1.353 . S
N331 Co296 2.145 . S
N331 C332 1.397 . S
N331 C333 1.334 . S
C332 H313 0.929 . S
C332 C329 1.388 . S
C332 N331 1.397 . S
C333 H314 0.929 . S
C333 C330 1.404 . S
C333 N331 1.334 . S
C334 H326 0.930 . S
C334 C329 1.418 . S
C334 C330 1.353 . S
C335 H305 0.930 . S
C335 N336 1.330 . S
C335 C337 1.446 . S
N336 Co295 2.151 . S
N336 C335 1.330 . S
N336 C340 1.418 . S
C337 H316 0.929 . S
C337 C335 1.446 . S
C337 C338 1.332 . S
C338 H318 0.931 . S
C338 C337 1.332 . S
C338 C339 1.267 . S
C339 H307 0.929 . S
C339 C338 1.267 . S
C339 C340 1.251 . S
C340 H310 0.929 . S
C340 N336 1.418 . S
C340 C339 1.251 . S
C341 H308 0.930 . S
C341 C343 1.406 1_556 S
C341 C346 1.261 1_556 S
C342 H309 0.930 . S
C342 N344 1.325 . S
C342 C345 1.357 . S
C343 H311 0.928 . S
C343 C341 1.406 1_554 S
C343 N344 1.261 . S
N344 Co295 2.214 . S
N344 C342 1.325 . S
N344 C343 1.261 . S
C345 H315 0.931 . S
C345 C342 1.357 . S
C345 C346 1.312 . S
C346 H317 0.930 1_554 S
C346 C341 1.261 1_554 S
C346 C345 1.312 . S
C347 O319 1.214 . S
C347 O327 1.234 . S
C348 H320 0.929 . S
C348 C351 1.391 . S
C348 C353 1.391 . S
C349 H321 0.929 . S
C349 C350 1.390 . S
C349 N352 1.391 . S
C350 H322 0.930 . S
C350 C349 1.390 . S
C350 C351 1.392 . S
C351 H323 0.929 . S
C351 C348 1.391 . S
C351 C350 1.392 . S
N352 Co296 2.257 . S
N352 C349 1.391 . S
N352 C353 1.388 . S
C353 H324 0.930 . S
C353 C348 1.391 . S
C353 N352 1.388 . S
Co354 O356 2.143 . S
Co354 O362 2.074 . S
Co354 O365 2.093 . S
Co354 O378 2.097 . S
Co354 N395 2.151 . S
Co354 N403 2.214 . S
Co355 O356 2.160 . S
Co355 O361 2.058 . S
Co355 O371 2.057 . S
Co355 O386 2.037 . S
Co355 N390 2.145 . S
Co355 N411 2.257 . S
O356 Co354 2.143 . S
O356 Co355 2.160 . S
C357 O358 1.278 . S
C357 O365 1.224 . S
O358 C357 1.278 . S
C359 O360 1.245 . S
C359 O371 1.232 . S
O360 C359 1.245 . S
O361 Co355 2.058 . S
O361 C387 1.269 . S
O362 Co354 2.074 . S
O362 C387 1.257 . S
H363 C388 0.930 . S
H364 C394 0.930 . S
O365 Co354 2.093 . S
O365 C357 1.224 . S
H366 C398 0.929 . S
H367 C400 0.930 . S
H368 C401 0.930 . S
H369 C399 0.929 . S
H370 C402 0.928 . S
O371 Co355 2.057 . S
O371 C359 1.232 . S
H372 C391 0.929 . S
H373 C392 0.929 . S
H374 C404 0.931 . S
H375 C396 0.929 . S
H376 C405 0.930 . S
H377 C397 0.931 . S
O378 Co354 2.097 . S
O378 C406 1.214 . S
H379 C407 0.929 . S
H380 C408 0.929 . S
H381 C409 0.930 . S
H382 C410 0.929 . S
H383 C412 0.930 . S
H384 C389 0.930 . S
H385 C393 0.930 . S
O386 Co355 2.037 . S
O386 C406 1.234 . S
C387 O361 1.269 . S
C387 O362 1.257 . S
C388 H363 0.930 . S
C388 C391 1.388 . S
C388 C393 1.418 . S
C389 H384 0.930 . S
C389 C392 1.404 . S
C389 C393 1.353 . S
N390 Co355 2.145 . S
N390 C391 1.397 . S
N390 C392 1.334 . S
C391 H372 0.929 . S
C391 C388 1.388 . S
C391 N390 1.397 . S
C392 H373 0.929 . S
C392 C389 1.404 . S
C392 N390 1.334 . S
C393 H385 0.930 . S
C393 C388 1.418 . S
C393 C389 1.353 . S
C394 H364 0.930 . S
C394 N395 1.330 . S
C394 C396 1.446 . S
N395 Co354 2.151 . S
N395 C394 1.330 . S
N395 C399 1.418 . S
C396 H375 0.929 . S
C396 C394 1.446 . S
C396 C397 1.332 . S
C397 H377 0.931 . S
C397 C396 1.332 . S
C397 C398 1.267 . S
C398 H366 0.929 . S
C398 C397 1.267 . S
C398 C399 1.251 . S
C399 H369 0.929 . S
C399 N395 1.418 . S
C399 C398 1.251 . S
C400 H367 0.930 . S
C400 C402 1.406 . S
C400 C405 1.261 . S
C401 H368 0.930 . S
C401 N403 1.325 . S
C401 C404 1.357 . S
C402 H370 0.928 . S
C402 C400 1.406 . S
C402 N403 1.261 . S
N403 Co354 2.214 . S
N403 C401 1.325 . S
N403 C402 1.261 . S
C404 H374 0.931 . S
C404 C401 1.357 . S
C404 C405 1.312 . S
C405 H376 0.930 . S
C405 C400 1.261 . S
C405 C404 1.312 . S
C406 O378 1.214 . S
C406 O386 1.234 . S
C407 H379 0.929 . S
C407 C410 1.391 . S
C407 C412 1.391 . S
C408 H380 0.929 . S
C408 C409 1.390 . S
C408 N411 1.391 . S
C409 H381 0.930 . S
C409 C408 1.390 . S
C409 C410 1.392 . S
C410 H382 0.929 . S
C410 C407 1.391 . S
C410 C409 1.392 . S
N411 Co355 2.257 . S
N411 C408 1.391 . S
N411 C412 1.388 . S
C412 H383 0.930 . S
C412 C407 1.391 . S
C412 N411 1.388 . S
Co413 O415 2.143 . S
Co413 O421 2.074 . S
Co413 O424 2.093 . S
Co413 O437 2.097 . S
Co413 N454 2.151 . S
Co413 N462 2.214 . S
Co414 O415 2.160 . S
Co414 O420 2.058 . S
Co414 O430 2.057 . S
Co414 O445 2.037 . S
Co414 N449 2.145 . S
Co414 N470 2.257 . S
O415 Co413 2.143 . S
O415 Co414 2.160 . S
C416 O417 1.278 . S
C416 O424 1.224 . S
O417 C416 1.278 . S
C418 O419 1.245 . S
C418 O430 1.232 . S
O419 C418 1.245 . S
O420 Co414 2.058 . S
O420 C446 1.269 . S
O421 Co413 2.074 . S
O421 C446 1.257 . S
H422 C447 0.930 . S
H423 C453 0.930 . S
O424 Co413 2.093 . S
O424 C416 1.224 . S
H425 C457 0.929 . S
H426 C459 0.930 . S
H427 C460 0.930 . S
H428 C458 0.929 . S
H429 C461 0.928 . S
O430 Co414 2.057 . S
O430 C418 1.232 . S
H431 C450 0.929 . S
H432 C451 0.929 . S
H433 C463 0.931 . S
H434 C455 0.929 . S
H435 C464 0.930 . S
H436 C456 0.931 . S
O437 Co413 2.097 . S
O437 C465 1.214 . S
H438 C466 0.929 . S
H439 C467 0.929 . S
H440 C468 0.930 . S
H441 C469 0.929 . S
H442 C471 0.930 . S
H443 C448 0.930 . S
H444 C452 0.930 . S
O445 Co414 2.037 . S
O445 C465 1.234 . S
C446 O420 1.269 . S
C446 O421 1.257 . S
C447 H422 0.930 . S
C447 C450 1.388 . S
C447 C452 1.418 . S
C448 H443 0.930 . S
C448 C451 1.404 . S
C448 C452 1.353 . S
N449 Co414 2.145 . S
N449 C450 1.397 . S
N449 C451 1.334 . S
C450 H431 0.929 . S
C450 C447 1.388 . S
C450 N449 1.397 . S
C451 H432 0.929 . S
C451 C448 1.404 . S
C451 N449 1.334 . S
C452 H444 0.930 . S
C452 C447 1.418 . S
C452 C448 1.353 . S
C453 H423 0.930 . S
C453 N454 1.330 . S
C453 C455 1.446 . S
N454 Co413 2.151 . S
N454 C453 1.330 . S
N454 C458 1.418 . S
C455 H434 0.929 . S
C455 C453 1.446 . S
C455 C456 1.332 . S
C456 H436 0.931 . S
C456 C455 1.332 . S
C456 C457 1.267 . S
C457 H425 0.929 . S
C457 C456 1.267 . S
C457 C458 1.251 . S
C458 H428 0.929 . S
C458 N454 1.418 . S
C458 C457 1.251 . S
C459 H426 0.930 . S
C459 C461 1.406 . S
C459 C464 1.261 . S
C460 H427 0.930 . S
C460 N462 1.325 . S
C460 C463 1.357 . S
C461 H429 0.928 . S
C461 C459 1.406 . S
C461 N462 1.261 . S
N462 Co413 2.214 . S
N462 C460 1.325 . S
N462 C461 1.261 . S
C463 H433 0.931 . S
C463 C460 1.357 . S
C463 C464 1.312 . S
C464 H435 0.930 . S
C464 C459 1.261 . S
C464 C463 1.312 . S
C465 O437 1.214 . S
C465 O445 1.234 . S
C466 H438 0.929 . S
C466 C469 1.391 . S
C466 C471 1.391 . S
C467 H439 0.929 . S
C467 C468 1.390 . S
C467 N470 1.391 . S
C468 H440 0.930 . S
C468 C467 1.390 . S
C468 C469 1.392 . S
C469 H441 0.929 . S
C469 C466 1.391 . S
C469 C468 1.392 . S
N470 Co414 2.257 . S
N470 C467 1.391 . S
N470 C471 1.388 . S
C471 H442 0.930 . S
C471 C466 1.391 . S
C471 N470 1.388 . S
Co472 O474 2.143 . S
Co472 O480 2.074 . S
Co472 O483 2.093 . S
Co472 O496 2.097 . S
Co472 N513 2.151 . S
Co472 N521 2.214 . S
Co473 O474 2.160 . S
Co473 O479 2.058 . S
Co473 O489 2.057 . S
Co473 O504 2.037 . S
Co473 N508 2.145 . S
Co473 N529 2.257 . S
O474 Co472 2.143 . S
O474 Co473 2.160 . S
C475 O476 1.278 . S
C475 O483 1.224 . S
O476 C475 1.278 . S
C477 O478 1.245 . S
C477 O489 1.232 . S
O478 C477 1.245 . S
O479 Co473 2.058 . S
O479 C505 1.269 . S
O480 Co472 2.074 . S
O480 C505 1.257 . S
H481 C506 0.930 . S
H482 C512 0.930 . S
O483 Co472 2.093 . S
O483 C475 1.224 . S
H484 C516 0.929 . S
H485 C518 0.930 . S
H486 C519 0.930 . S
H487 C517 0.929 . S
H488 C520 0.928 . S
O489 Co473 2.057 . S
O489 C477 1.232 . S
H490 C509 0.929 . S
H491 C510 0.929 . S
H492 C522 0.931 . S
H493 C514 0.929 . S
H494 C523 0.930 1_554 S
H495 C515 0.931 . S
O496 Co472 2.097 . S
O496 C524 1.214 . S
H497 C525 0.929 . S
H498 C526 0.929 . S
H499 C527 0.930 . S
H500 C528 0.929 . S
H501 C530 0.930 . S
H502 C507 0.930 . S
H503 C511 0.930 . S
O504 Co473 2.037 . S
O504 C524 1.234 . S
C505 O479 1.269 . S
C505 O480 1.257 . S
C506 H481 0.930 . S
C506 C509 1.388 . S
C506 C511 1.418 . S
C507 H502 0.930 . S
C507 C510 1.404 . S
C507 C511 1.353 . S
N508 Co473 2.145 . S
N508 C509 1.397 . S
N508 C510 1.334 . S
C509 H490 0.929 . S
C509 C506 1.388 . S
C509 N508 1.397 . S
C510 H491 0.929 . S
C510 C507 1.404 . S
C510 N508 1.334 . S
C511 H503 0.930 . S
C511 C506 1.418 . S
C511 C507 1.353 . S
C512 H482 0.930 . S
C512 N513 1.330 . S
C512 C514 1.446 . S
N513 Co472 2.151 . S
N513 C512 1.330 . S
N513 C517 1.418 . S
C514 H493 0.929 . S
C514 C512 1.446 . S
C514 C515 1.332 . S
C515 H495 0.931 . S
C515 C514 1.332 . S
C515 C516 1.267 . S
C516 H484 0.929 . S
C516 C515 1.267 . S
C516 C517 1.251 . S
C517 H487 0.929 . S
C517 N513 1.418 . S
C517 C516 1.251 . S
C518 H485 0.930 . S
C518 C520 1.406 1_554 S
C518 C523 1.261 1_554 S
C519 H486 0.930 . S
C519 N521 1.325 . S
C519 C522 1.357 . S
C520 H488 0.928 . S
C520 C518 1.406 1_556 S
C520 N521 1.261 . S
N521 Co472 2.214 . S
N521 C519 1.325 . S
N521 C520 1.261 . S
C522 H492 0.931 . S
C522 C519 1.357 . S
C522 C523 1.312 . S
C523 H494 0.930 1_556 S
C523 C518 1.261 1_556 S
C523 C522 1.312 . S
C524 O496 1.214 . S
C524 O504 1.234 . S
C525 H497 0.929 . S
C525 C528 1.391 . S
C525 C530 1.391 . S
C526 H498 0.929 . S
C526 C527 1.390 . S
C526 N529 1.391 . S
C527 H499 0.930 . S
C527 C526 1.390 . S
C527 C528 1.392 . S
C528 H500 0.929 . S
C528 C525 1.391 . S
C528 C527 1.392 . S
N529 Co473 2.257 . S
N529 C526 1.391 . S
N529 C530 1.388 . S
C530 H501 0.930 . S
C530 C525 1.391 . S
C530 N529 1.388 . S
Co531 O533 2.143 . S
Co531 O539 2.074 . S
Co531 O542 2.093 . S
Co531 O555 2.097 . S
Co531 N572 2.151 . S
Co531 N580 2.214 . S
Co532 O533 2.160 . S
Co532 O538 2.058 . S
Co532 O548 2.057 . S
Co532 O563 2.037 . S
Co532 N567 2.145 . S
Co532 N588 2.257 . S
O533 Co531 2.143 . S
O533 Co532 2.160 . S
C534 O535 1.278 . S
C534 O542 1.224 . S
O535 C534 1.278 . S
C536 O537 1.245 . S
C536 O548 1.232 . S
O537 C536 1.245 . S
O538 Co532 2.058 . S
O538 C564 1.269 . S
O539 Co531 2.074 . S
O539 C564 1.257 . S
H540 C565 0.930 . S
H541 C571 0.930 . S
O542 Co531 2.093 . S
O542 C534 1.224 . S
H543 C575 0.929 . S
H544 C577 0.930 . S
H545 C578 0.930 . S
H546 C576 0.929 . S
H547 C579 0.928 . S
O548 Co532 2.057 . S
O548 C536 1.232 . S
H549 C568 0.929 . S
H550 C569 0.929 . S
H551 C581 0.931 . S
H552 C573 0.929 . S
H553 C582 0.930 . S
H554 C574 0.931 . S
O555 Co531 2.097 . S
O555 C583 1.214 . S
H556 C584 0.929 . S
H557 C585 0.929 . S
H558 C586 0.930 . S
H559 C587 0.929 . S
H560 C589 0.930 . S
H561 C566 0.930 . S
H562 C570 0.930 . S
O563 Co532 2.037 . S
O563 C583 1.234 . S
C564 O538 1.269 . S
C564 O539 1.257 . S
C565 H540 0.930 . S
C565 C568 1.388 . S
C565 C570 1.418 . S
C566 H561 0.930 . S
C566 C569 1.404 . S
C566 C570 1.353 . S
N567 Co532 2.145 . S
N567 C568 1.397 . S
N567 C569 1.334 . S
C568 H549 0.929 . S
C568 C565 1.388 . S
C568 N567 1.397 . S
C569 H550 0.929 . S
C569 C566 1.404 . S
C569 N567 1.334 . S
C570 H562 0.930 . S
C570 C565 1.418 . S
C570 C566 1.353 . S
C571 H541 0.930 . S
C571 N572 1.330 . S
C571 C573 1.446 . S
N572 Co531 2.151 . S
N572 C571 1.330 . S
N572 C576 1.418 . S
C573 H552 0.929 . S
C573 C571 1.446 . S
C573 C574 1.332 . S
C574 H554 0.931 . S
C574 C573 1.332 . S
C574 C575 1.267 . S
C575 H543 0.929 . S
C575 C574 1.267 . S
C575 C576 1.251 . S
C576 H546 0.929 . S
C576 N572 1.418 . S
C576 C575 1.251 . S
C577 H544 0.930 . S
C577 C579 1.406 . S
C577 C582 1.261 . S
C578 H545 0.930 . S
C578 N580 1.325 . S
C578 C581 1.357 . S
C579 H547 0.928 . S
C579 C577 1.406 . S
C579 N580 1.261 . S
N580 Co531 2.214 . S
N580 C578 1.325 . S
N580 C579 1.261 . S
C581 H551 0.931 . S
C581 C578 1.357 . S
C581 C582 1.312 . S
C582 H553 0.930 . S
C582 C577 1.261 . S
C582 C581 1.312 . S
C583 O555 1.214 . S
C583 O563 1.234 . S
C584 H556 0.929 . S
C584 C587 1.391 . S
C584 C589 1.391 . S
C585 H557 0.929 . S
C585 C586 1.390 . S
C585 N588 1.391 . S
C586 H558 0.930 . S
C586 C585 1.390 . S
C586 C587 1.392 . S
C587 H559 0.929 . S
C587 C584 1.391 . S
C587 C586 1.392 . S
N588 Co532 2.257 . S
N588 C585 1.391 . S
N588 C589 1.388 . S
C589 H560 0.930 . S
C589 C584 1.391 . S
C589 N588 1.388 . S
Co590 O592 2.143 . S
Co590 O598 2.074 . S
Co590 O601 2.093 . S
Co590 O614 2.097 . S
Co590 N631 2.151 . S
Co590 N639 2.214 . S
Co591 O592 2.160 . S
Co591 O597 2.058 . S
Co591 O607 2.057 . S
Co591 O622 2.037 . S
Co591 N626 2.145 . S
Co591 N647 2.257 . S
O592 Co590 2.143 . S
O592 Co591 2.160 . S
C593 O594 1.278 . S
C593 O601 1.224 . S
O594 C593 1.278 . S
C595 O596 1.245 . S
C595 O607 1.232 . S
O596 C595 1.245 . S
O597 Co591 2.058 . S
O597 C623 1.269 . S
O598 Co590 2.074 . S
O598 C623 1.257 . S
H599 C624 0.930 . S
H600 C630 0.930 . S
O601 Co590 2.093 . S
O601 C593 1.224 . S
H602 C634 0.929 . S
H603 C636 0.930 . S
H604 C637 0.930 . S
H605 C635 0.929 . S
H606 C638 0.928 . S
O607 Co591 2.057 . S
O607 C595 1.232 . S
H608 C627 0.929 . S
H609 C628 0.929 . S
H610 C640 0.931 . S
H611 C632 0.929 . S
H612 C641 0.930 . S
H613 C633 0.931 . S
O614 Co590 2.097 . S
O614 C642 1.214 . S
H615 C643 0.929 . S
H616 C644 0.929 . S
H617 C645 0.930 . S
H618 C646 0.929 . S
H619 C648 0.930 . S
H620 C625 0.930 . S
H621 C629 0.930 . S
O622 Co591 2.037 . S
O622 C642 1.234 . S
C623 O597 1.269 . S
C623 O598 1.257 . S
C624 H599 0.930 . S
C624 C627 1.388 . S
C624 C629 1.418 . S
C625 H620 0.930 . S
C625 C628 1.404 . S
C625 C629 1.353 . S
N626 Co591 2.145 . S
N626 C627 1.397 . S
N626 C628 1.334 . S
C627 H608 0.929 . S
C627 C624 1.388 . S
C627 N626 1.397 . S
C628 H609 0.929 . S
C628 C625 1.404 . S
C628 N626 1.334 . S
C629 H621 0.930 . S
C629 C624 1.418 . S
C629 C625 1.353 . S
C630 H600 0.930 . S
C630 N631 1.330 . S
C630 C632 1.446 . S
N631 Co590 2.151 . S
N631 C630 1.330 . S
N631 C635 1.418 . S
C632 H611 0.929 . S
C632 C630 1.446 . S
C632 C633 1.332 . S
C633 H613 0.931 . S
C633 C632 1.332 . S
C633 C634 1.267 . S
C634 H602 0.929 . S
C634 C633 1.267 . S
C634 C635 1.251 . S
C635 H605 0.929 . S
C635 N631 1.418 . S
C635 C634 1.251 . S
C636 H603 0.930 . S
C636 C638 1.406 . S
C636 C641 1.261 . S
C637 H604 0.930 . S
C637 N639 1.325 . S
C637 C640 1.357 . S
C638 H606 0.928 . S
C638 C636 1.406 . S
C638 N639 1.261 . S
N639 Co590 2.214 . S
N639 C637 1.325 . S
N639 C638 1.261 . S
C640 H610 0.931 . S
C640 C637 1.357 . S
C640 C641 1.312 . S
C641 H612 0.930 . S
C641 C636 1.261 . S
C641 C640 1.312 . S
C642 O614 1.214 . S
C642 O622 1.234 . S
C643 H615 0.929 . S
C643 C646 1.391 . S
C643 C648 1.391 . S
C644 H616 0.929 . S
C644 C645 1.390 . S
C644 N647 1.391 . S
C645 H617 0.930 . S
C645 C644 1.390 . S
C645 C646 1.392 . S
C646 H618 0.929 . S
C646 C643 1.391 . S
C646 C645 1.392 . S
N647 Co591 2.257 . S
N647 C644 1.391 . S
N647 C648 1.388 . S
C648 H619 0.930 . S
C648 C643 1.391 . S
C648 N647 1.388 . S
Co649 O651 2.143 . S
Co649 O657 2.074 . S
Co649 O660 2.093 . S
Co649 O673 2.097 . S
Co649 N690 2.151 . S
Co649 N698 2.214 . S
Co650 O651 2.160 . S
Co650 O656 2.058 . S
Co650 O666 2.057 . S
Co650 O681 2.037 . S
Co650 N685 2.145 . S
Co650 N706 2.257 . S
O651 Co649 2.143 . S
O651 Co650 2.160 . S
C652 O653 1.278 . S
C652 O660 1.224 . S
O653 C652 1.278 . S
C654 O655 1.245 . S
C654 O666 1.232 . S
O655 C654 1.245 . S
O656 Co650 2.058 . S
O656 C682 1.269 . S
O657 Co649 2.074 . S
O657 C682 1.257 . S
H658 C683 0.930 . S
H659 C689 0.930 . S
O660 Co649 2.093 . S
O660 C652 1.224 . S
H661 C693 0.929 . S
H662 C695 0.930 . S
H663 C696 0.930 . S
H664 C694 0.929 . S
H665 C697 0.928 . S
O666 Co650 2.057 . S
O666 C654 1.232 . S
H667 C686 0.929 . S
H668 C687 0.929 . S
H669 C699 0.931 . S
H670 C691 0.929 . S
H671 C700 0.930 . S
H672 C692 0.931 . S
O673 Co649 2.097 . S
O673 C701 1.214 . S
H674 C702 0.929 . S
H675 C703 0.929 . S
H676 C704 0.930 . S
H677 C705 0.929 . S
H678 C707 0.930 . S
H679 C684 0.930 . S
H680 C688 0.930 . S
O681 Co650 2.037 . S
O681 C701 1.234 . S
C682 O656 1.269 . S
C682 O657 1.257 . S
C683 H658 0.930 . S
C683 C686 1.388 . S
C683 C688 1.418 1_554 S
C684 H679 0.930 . S
C684 C687 1.404 1_556 S
C684 C688 1.353 . S
N685 Co650 2.145 . S
N685 C686 1.397 . S
N685 C687 1.334 . S
C686 H667 0.929 . S
C686 C683 1.388 . S
C686 N685 1.397 . S
C687 H668 0.929 . S
C687 C684 1.404 1_554 S
C687 N685 1.334 . S
C688 H680 0.930 . S
C688 C683 1.418 1_556 S
C688 C684 1.353 . S
C689 H659 0.930 . S
C689 N690 1.330 . S
C689 C691 1.446 . S
N690 Co649 2.151 . S
N690 C689 1.330 . S
N690 C694 1.418 . S
C691 H670 0.929 . S
C691 C689 1.446 . S
C691 C692 1.332 . S
C692 H672 0.931 . S
C692 C691 1.332 . S
C692 C693 1.267 . S
C693 H661 0.929 . S
C693 C692 1.267 . S
C693 C694 1.251 . S
C694 H664 0.929 . S
C694 N690 1.418 . S
C694 C693 1.251 . S
C695 H662 0.930 . S
C695 C697 1.406 . S
C695 C700 1.261 . S
C696 H663 0.930 . S
C696 N698 1.325 . S
C696 C699 1.357 . S
C697 H665 0.928 . S
C697 C695 1.406 . S
C697 N698 1.261 . S
N698 Co649 2.214 . S
N698 C696 1.325 . S
N698 C697 1.261 . S
C699 H669 0.931 . S
C699 C696 1.357 . S
C699 C700 1.312 . S
C700 H671 0.930 . S
C700 C695 1.261 . S
C700 C699 1.312 . S
C701 O673 1.214 . S
C701 O681 1.234 . S
C702 H674 0.929 . S
C702 C705 1.391 . S
C702 C707 1.391 . S
C703 H675 0.929 . S
C703 C704 1.390 . S
C703 N706 1.391 . S
C704 H676 0.930 . S
C704 C703 1.390 . S
C704 C705 1.392 . S
C705 H677 0.929 . S
C705 C702 1.391 . S
C705 C704 1.392 . S
N706 Co650 2.257 . S
N706 C703 1.391 . S
N706 C707 1.388 . S
C707 H678 0.930 . S
C707 C702 1.391 . S
C707 N706 1.388 . S
Co708 O710 2.143 . S
Co708 O716 2.074 . S
Co708 O719 2.093 . S
Co708 O732 2.097 . S
Co708 N749 2.151 . S
Co708 N757 2.214 . S
Co709 O710 2.160 . S
Co709 O715 2.058 . S
Co709 O725 2.057 . S
Co709 O740 2.037 . S
Co709 N744 2.145 . S
Co709 N765 2.257 . S
O710 Co708 2.143 . S
O710 Co709 2.160 . S
C711 O712 1.278 . S
C711 O719 1.224 . S
O712 C711 1.278 . S
C713 O714 1.245 . S
C713 O725 1.232 . S
O714 C713 1.245 . S
O715 Co709 2.058 . S
O715 C741 1.269 . S
O716 Co708 2.074 . S
O716 C741 1.257 . S
H717 C742 0.930 . S
H718 C748 0.930 . S
O719 Co708 2.093 . S
O719 C711 1.224 . S
H720 C752 0.929 . S
H721 C754 0.930 . S
H722 C755 0.930 . S
H723 C753 0.929 . S
H724 C756 0.928 . S
O725 Co709 2.057 . S
O725 C713 1.232 . S
H726 C745 0.929 . S
H727 C746 0.929 . S
H728 C758 0.931 . S
H729 C750 0.929 . S
H730 C759 0.930 1_556 S
H731 C751 0.931 . S
O732 Co708 2.097 . S
O732 C760 1.214 . S
H733 C761 0.929 . S
H734 C762 0.929 . S
H735 C763 0.930 . S
H736 C764 0.929 . S
H737 C766 0.930 . S
H738 C743 0.930 . S
H739 C747 0.930 . S
O740 Co709 2.037 . S
O740 C760 1.234 . S
C741 O715 1.269 . S
C741 O716 1.257 . S
C742 H717 0.930 . S
C742 C745 1.388 . S
C742 C747 1.418 . S
C743 H738 0.930 . S
C743 C746 1.404 . S
C743 C747 1.353 . S
N744 Co709 2.145 . S
N744 C745 1.397 . S
N744 C746 1.334 . S
C745 H726 0.929 . S
C745 C742 1.388 . S
C745 N744 1.397 . S
C746 H727 0.929 . S
C746 C743 1.404 . S
C746 N744 1.334 . S
C747 H739 0.930 . S
C747 C742 1.418 . S
C747 C743 1.353 . S
C748 H718 0.930 . S
C748 N749 1.330 . S
C748 C750 1.446 . S
N749 Co708 2.151 . S
N749 C748 1.330 . S
N749 C753 1.418 . S
C750 H729 0.929 . S
C750 C748 1.446 . S
C750 C751 1.332 . S
C751 H731 0.931 . S
C751 C750 1.332 . S
C751 C752 1.267 . S
C752 H720 0.929 . S
C752 C751 1.267 . S
C752 C753 1.251 . S
C753 H723 0.929 . S
C753 N749 1.418 . S
C753 C752 1.251 . S
C754 H721 0.930 . S
C754 C756 1.406 1_556 S
C754 C759 1.261 1_556 S
C755 H722 0.930 . S
C755 N757 1.325 . S
C755 C758 1.357 . S
C756 H724 0.928 . S
C756 C754 1.406 1_554 S
C756 N757 1.261 . S
N757 Co708 2.214 . S
N757 C755 1.325 . S
N757 C756 1.261 . S
C758 H728 0.931 . S
C758 C755 1.357 . S
C758 C759 1.312 . S
C759 H730 0.930 1_554 S
C759 C754 1.261 1_554 S
C759 C758 1.312 . S
C760 O732 1.214 . S
C760 O740 1.234 . S
C761 H733 0.929 . S
C761 C764 1.391 . S
C761 C766 1.391 . S
C762 H734 0.929 . S
C762 C763 1.390 . S
C762 N765 1.391 . S
C763 H735 0.930 . S
C763 C762 1.390 . S
C763 C764 1.392 . S
C764 H736 0.929 . S
C764 C761 1.391 . S
C764 C763 1.392 . S
N765 Co709 2.257 . S
N765 C762 1.391 . S
N765 C766 1.388 . S
C766 H737 0.930 . S
C766 C761 1.391 . S
C766 N765 1.388 . S
Co767 O769 2.143 . S
Co767 O775 2.074 . S
Co767 O778 2.093 . S
Co767 O791 2.097 . S
Co767 N808 2.151 . S
Co767 N816 2.214 . S
Co768 O769 2.160 . S
Co768 O774 2.058 . S
Co768 O784 2.057 . S
Co768 O799 2.037 . S
Co768 N803 2.145 . S
Co768 N824 2.257 . S
O769 Co767 2.143 . S
O769 Co768 2.160 . S
C770 O771 1.278 . S
C770 O778 1.224 . S
O771 C770 1.278 . S
C772 O773 1.245 . S
C772 O784 1.232 . S
O773 C772 1.245 . S
O774 Co768 2.058 . S
O774 C800 1.269 . S
O775 Co767 2.074 . S
O775 C800 1.257 . S
H776 C801 0.930 . S
H777 C807 0.930 . S
O778 Co767 2.093 . S
O778 C770 1.224 . S
H779 C811 0.929 . S
H780 C813 0.930 . S
H781 C814 0.930 . S
H782 C812 0.929 . S
H783 C815 0.928 . S
O784 Co768 2.057 . S
O784 C772 1.232 . S
H785 C804 0.929 . S
H786 C805 0.929 . S
H787 C817 0.931 . S
H788 C809 0.929 . S
H789 C818 0.930 1_554 S
H790 C810 0.931 . S
O791 Co767 2.097 . S
O791 C819 1.214 . S
H792 C820 0.929 . S
H793 C821 0.929 . S
H794 C822 0.930 . S
H795 C823 0.929 . S
H796 C825 0.930 . S
H797 C802 0.930 . S
H798 C806 0.930 . S
O799 Co768 2.037 . S
O799 C819 1.234 . S
C800 O774 1.269 . S
C800 O775 1.257 . S
C801 H776 0.930 . S
C801 C804 1.388 . S
C801 C806 1.418 . S
C802 H797 0.930 . S
C802 C805 1.404 . S
C802 C806 1.353 . S
N803 Co768 2.145 . S
N803 C804 1.397 . S
N803 C805 1.334 . S
C804 H785 0.929 . S
C804 C801 1.388 . S
C804 N803 1.397 . S
C805 H786 0.929 . S
C805 C802 1.404 . S
C805 N803 1.334 . S
C806 H798 0.930 . S
C806 C801 1.418 . S
C806 C802 1.353 . S
C807 H777 0.930 . S
C807 N808 1.330 . S
C807 C809 1.446 . S
N808 Co767 2.151 . S
N808 C807 1.330 . S
N808 C812 1.418 . S
C809 H788 0.929 . S
C809 C807 1.446 . S
C809 C810 1.332 . S
C810 H790 0.931 . S
C810 C809 1.332 . S
C810 C811 1.267 . S
C811 H779 0.929 . S
C811 C810 1.267 . S
C811 C812 1.251 . S
C812 H782 0.929 . S
C812 N808 1.418 . S
C812 C811 1.251 . S
C813 H780 0.930 . S
C813 C815 1.406 1_554 S
C813 C818 1.261 1_554 S
C814 H781 0.930 . S
C814 N816 1.325 . S
C814 C817 1.357 . S
C815 H783 0.928 . S
C815 C813 1.406 1_556 S
C815 N816 1.261 . S
N816 Co767 2.214 . S
N816 C814 1.325 . S
N816 C815 1.261 . S
C817 H787 0.931 . S
C817 C814 1.357 . S
C817 C818 1.312 . S
C818 H789 0.930 1_556 S
C818 C813 1.261 1_556 S
C818 C817 1.312 . S
C819 O791 1.214 . S
C819 O799 1.234 . S
C820 H792 0.929 . S
C820 C823 1.391 . S
C820 C825 1.391 . S
C821 H793 0.929 . S
C821 C822 1.390 . S
C821 N824 1.391 . S
C822 H794 0.930 . S
C822 C821 1.390 . S
C822 C823 1.392 . S
C823 H795 0.929 . S
C823 C820 1.391 . S
C823 C822 1.392 . S
N824 Co768 2.257 . S
N824 C821 1.391 . S
N824 C825 1.388 . S
C825 H796 0.930 . S
C825 C820 1.391 . S
C825 N824 1.388 . S
Co826 O828 2.143 . S
Co826 O834 2.074 . S
Co826 O837 2.093 . S
Co826 O850 2.097 . S
Co826 N867 2.151 . S
Co826 N875 2.214 . S
Co827 O828 2.160 . S
Co827 O833 2.058 . S
Co827 O843 2.057 . S
Co827 O858 2.037 . S
Co827 N862 2.145 . S
Co827 N883 2.257 . S
O828 Co826 2.143 . S
O828 Co827 2.160 . S
C829 O830 1.278 . S
C829 O837 1.224 . S
O830 C829 1.278 . S
C831 O832 1.245 . S
C831 O843 1.232 . S
O832 C831 1.245 . S
O833 Co827 2.058 . S
O833 C859 1.269 . S
O834 Co826 2.074 . S
O834 C859 1.257 . S
H835 C860 0.930 . S
H836 C866 0.930 . S
O837 Co826 2.093 . S
O837 C829 1.224 . S
H838 C870 0.929 . S
H839 C872 0.930 . S
H840 C873 0.930 . S
H841 C871 0.929 . S
H842 C874 0.928 . S
O843 Co827 2.057 . S
O843 C831 1.232 . S
H844 C863 0.929 . S
H845 C864 0.929 . S
H846 C876 0.931 . S
H847 C868 0.929 . S
H848 C877 0.930 . S
H849 C869 0.931 . S
O850 Co826 2.097 . S
O850 C878 1.214 . S
H851 C879 0.929 . S
H852 C880 0.929 . S
H853 C881 0.930 . S
H854 C882 0.929 . S
H855 C884 0.930 . S
H856 C861 0.930 . S
H857 C865 0.930 . S
O858 Co827 2.037 . S
O858 C878 1.234 . S
C859 O833 1.269 . S
C859 O834 1.257 . S
C860 H835 0.930 . S
C860 C863 1.388 . S
C860 C865 1.418 . S
C861 H856 0.930 . S
C861 C864 1.404 . S
C861 C865 1.353 . S
N862 Co827 2.145 . S
N862 C863 1.397 . S
N862 C864 1.334 . S
C863 H844 0.929 . S
C863 C860 1.388 . S
C863 N862 1.397 . S
C864 H845 0.929 . S
C864 C861 1.404 . S
C864 N862 1.334 . S
C865 H857 0.930 . S
C865 C860 1.418 . S
C865 C861 1.353 . S
C866 H836 0.930 . S
C866 N867 1.330 . S
C866 C868 1.446 . S
N867 Co826 2.151 . S
N867 C866 1.330 . S
N867 C871 1.418 . S
C868 H847 0.929 . S
C868 C866 1.446 . S
C868 C869 1.332 . S
C869 H849 0.931 . S
C869 C868 1.332 . S
C869 C870 1.267 . S
C870 H838 0.929 . S
C870 C869 1.267 . S
C870 C871 1.251 . S
C871 H841 0.929 . S
C871 N867 1.418 . S
C871 C870 1.251 . S
C872 H839 0.930 . S
C872 C874 1.406 . S
C872 C877 1.261 . S
C873 H840 0.930 . S
C873 N875 1.325 . S
C873 C876 1.357 . S
C874 H842 0.928 . S
C874 C872 1.406 . S
C874 N875 1.261 . S
N875 Co826 2.214 . S
N875 C873 1.325 . S
N875 C874 1.261 . S
C876 H846 0.931 . S
C876 C873 1.357 . S
C876 C877 1.312 . S
C877 H848 0.930 . S
C877 C872 1.261 . S
C877 C876 1.312 . S
C878 O850 1.214 . S
C878 O858 1.234 . S
C879 H851 0.929 . S
C879 C882 1.391 . S
C879 C884 1.391 . S
C880 H852 0.929 . S
C880 C881 1.390 . S
C880 N883 1.391 . S
C881 H853 0.930 . S
C881 C880 1.390 . S
C881 C882 1.392 . S
C882 H854 0.929 . S
C882 C879 1.391 . S
C882 C881 1.392 . S
N883 Co827 2.257 . S
N883 C880 1.391 . S
N883 C884 1.388 . S
C884 H855 0.930 . S
C884 C879 1.391 . S
C884 N883 1.388 . S
Co885 O887 2.143 . S
Co885 O893 2.074 . S
Co885 O896 2.093 . S
Co885 O909 2.097 . S
Co885 N926 2.151 . S
Co885 N934 2.214 . S
Co886 O887 2.160 . S
Co886 O892 2.058 . S
Co886 O902 2.057 . S
Co886 O917 2.037 . S
Co886 N921 2.145 . S
Co886 N942 2.257 . S
O887 Co885 2.143 . S
O887 Co886 2.160 . S
C888 O889 1.278 . S
C888 O896 1.224 . S
O889 C888 1.278 . S
C890 O891 1.245 . S
C890 O902 1.232 . S
O891 C890 1.245 . S
O892 Co886 2.058 . S
O892 C918 1.269 . S
O893 Co885 2.074 . S
O893 C918 1.257 . S
H894 C919 0.930 . S
H895 C925 0.930 . S
O896 Co885 2.093 . S
O896 C888 1.224 . S
H897 C929 0.929 . S
H898 C931 0.930 . S
H899 C932 0.930 . S
H900 C930 0.929 . S
H901 C933 0.928 . S
O902 Co886 2.057 . S
O902 C890 1.232 . S
H903 C922 0.929 . S
H904 C923 0.929 . S
H905 C935 0.931 . S
H906 C927 0.929 . S
H907 C936 0.930 . S
H908 C928 0.931 . S
O909 Co885 2.097 . S
O909 C937 1.214 . S
H910 C938 0.929 . S
H911 C939 0.929 . S
H912 C940 0.930 . S
H913 C941 0.929 . S
H914 C943 0.930 . S
H915 C920 0.930 . S
H916 C924 0.930 . S
O917 Co886 2.037 . S
O917 C937 1.234 . S
C918 O892 1.269 . S
C918 O893 1.257 . S
C919 H894 0.930 . S
C919 C922 1.388 . S
C919 C924 1.418 . S
C920 H915 0.930 . S
C920 C923 1.404 . S
C920 C924 1.353 . S
N921 Co886 2.145 . S
N921 C922 1.397 . S
N921 C923 1.334 . S
C922 H903 0.929 . S
C922 C919 1.388 . S
C922 N921 1.397 . S
C923 H904 0.929 . S
C923 C920 1.404 . S
C923 N921 1.334 . S
C924 H916 0.930 . S
C924 C919 1.418 . S
C924 C920 1.353 . S
C925 H895 0.930 . S
C925 N926 1.330 . S
C925 C927 1.446 . S
N926 Co885 2.151 . S
N926 C925 1.330 . S
N926 C930 1.418 . S
C927 H906 0.929 . S
C927 C925 1.446 . S
C927 C928 1.332 . S
C928 H908 0.931 . S
C928 C927 1.332 . S
C928 C929 1.267 . S
C929 H897 0.929 . S
C929 C928 1.267 . S
C929 C930 1.251 . S
C930 H900 0.929 . S
C930 N926 1.418 . S
C930 C929 1.251 . S
C931 H898 0.930 . S
C931 C933 1.406 . S
C931 C936 1.261 . S
C932 H899 0.930 . S
C932 N934 1.325 . S
C932 C935 1.357 . S
C933 H901 0.928 . S
C933 C931 1.406 . S
C933 N934 1.261 . S
N934 Co885 2.214 . S
N934 C932 1.325 . S
N934 C933 1.261 . S
C935 H905 0.931 . S
C935 C932 1.357 . S
C935 C936 1.312 . S
C936 H907 0.930 . S
C936 C931 1.261 . S
C936 C935 1.312 . S
C937 O909 1.214 . S
C937 O917 1.234 . S
C938 H910 0.929 . S
C938 C941 1.391 . S
C938 C943 1.391 . S
C939 H911 0.929 . S
C939 C940 1.390 . S
C939 N942 1.391 . S
C940 H912 0.930 . S
C940 C939 1.390 . S
C940 C941 1.392 . S
C941 H913 0.929 . S
C941 C938 1.391 . S
C941 C940 1.392 . S
N942 Co886 2.257 . S
N942 C939 1.391 . S
N942 C943 1.388 . S
C943 H914 0.930 . S
C943 C938 1.391 . S
C943 N942 1.388 . S
H944 C952 0.929 . S
H945 C954 0.930 . S
H946 C956 0.930 . S
H947 C959 0.929 . S
H948 C962 0.930 . S
H949 C964 0.960 . S
H950 C964 0.960 . S
H951 C964 0.960 . S
C952 H944 0.929 . S
C952 C953 1.377 . S
C952 C954 1.384 . S
C953 C952 1.377 . S
C953 C959 1.390 . S
C954 H945 0.930 . S
C954 C952 1.384 . S
C954 C955 1.372 . S
C955 C954 1.372 . S
C955 C956 1.400 . S
C955 C960 1.490 . S
C956 H946 0.930 . S
C956 C955 1.400 . S
C956 C959 1.386 . S
H957 C973 0.930 . S
H958 C974 0.931 . S
C959 H947 0.929 . S
C959 C953 1.390 . S
C959 C956 1.386 . S
C960 C955 1.490 . S
C960 C962 1.395 . S
C960 C963 1.403 . S
H961 C967 0.930 . S
C962 H948 0.930 . S
C962 C960 1.395 . S
C962 C965 1.403 . S
C963 C960 1.403 . S
C963 C964 1.524 . S
C963 C967 1.400 . S
C964 H949 0.960 . S
C964 H950 0.960 . S
C964 H951 0.960 . S
C964 C963 1.524 . S
C965 C962 1.403 . S
C965 C966 1.392 . S
C965 C969 1.495 . S
C966 C965 1.392 . S
C966 C967 1.385 . S
C966 C968 1.478 . S
C967 H961 0.930 . S
C967 C963 1.400 . S
C967 C966 1.385 . S
C968 C966 1.478 . S
C968 C970 1.381 . S
C968 C974 1.383 . S
C969 C965 1.495 . S
C969 H975 0.959 . S
C969 H976 0.961 . S
C969 H977 0.960 . S
C970 C968 1.381 . S
C970 C971 1.394 . S
C970 H978 0.930 . S
C971 C970 1.394 . S
C971 C972 1.383 . S
C971 H979 0.929 . S
C972 C971 1.383 . S
C972 C973 1.377 . S
C973 H957 0.930 . S
C973 C972 1.377 . S
C973 C974 1.379 . S
C974 H958 0.931 . S
C974 C968 1.383 . S
C974 C973 1.379 . S
H975 C969 0.959 . S
H976 C969 0.961 . S
H977 C969 0.960 . S
H978 C970 0.930 . S
H979 C971 0.929 . S
H980 C988 0.929 . S
H981 C990 0.930 . S
H982 C992 0.930 . S
H983 C995 0.929 . S
H984 C998 0.930 . S
H985 C1000 0.960 . S
H986 C1000 0.960 . S
H987 C1000 0.960 . S
C988 H980 0.929 . S
C988 C989 1.377 . S
C988 C990 1.384 . S
C989 C988 1.377 . S
C989 C995 1.390 . S
C990 H981 0.930 . S
C990 C988 1.384 . S
C990 C991 1.372 . S
C991 C990 1.372 . S
C991 C992 1.400 . S
C991 C996 1.490 . S
C992 H982 0.930 . S
C992 C991 1.400 . S
C992 C995 1.386 . S
H993 C1009 0.930 . S
H994 C1010 0.931 . S
C995 H983 0.929 . S
C995 C989 1.390 . S
C995 C992 1.386 . S
C996 C991 1.490 . S
C996 C998 1.395 . S
C996 C999 1.403 . S
H997 C1003 0.930 . S
C998 H984 0.930 . S
C998 C996 1.395 . S
C998 C1001 1.403 . S
C999 C996 1.403 . S
C999 C1000 1.524 . S
C999 C1003 1.400 . S
C1000 H985 0.960 . S
C1000 H986 0.960 . S
C1000 H987 0.960 . S
C1000 C999 1.524 . S
C1001 C998 1.403 . S
C1001 C1002 1.392 . S
C1001 C1005 1.495 . S
C1002 C1001 1.392 . S
C1002 C1003 1.385 . S
C1002 C1004 1.478 . S
C1003 H997 0.930 . S
C1003 C999 1.400 . S
C1003 C1002 1.385 . S
C1004 C1002 1.478 . S
C1004 C1006 1.381 . S
C1004 C1010 1.383 . S
C1005 C1001 1.495 . S
C1005 H1011 0.959 . S
C1005 H1012 0.961 . S
C1005 H1013 0.960 . S
C1006 C1004 1.381 . S
C1006 C1007 1.394 . S
C1006 H1014 0.930 . S
C1007 C1006 1.394 . S
C1007 C1008 1.383 . S
C1007 H1015 0.929 . S
C1008 C1007 1.383 . S
C1008 C1009 1.377 . S
C1009 H993 0.930 . S
C1009 C1008 1.377 . S
C1009 C1010 1.379 . S
C1010 H994 0.931 . S
C1010 C1004 1.383 . S
C1010 C1009 1.379 . S
H1011 C1005 0.959 . S
H1012 C1005 0.961 . S
H1013 C1005 0.960 . S
H1014 C1006 0.930 . S
H1015 C1007 0.929 . S
H1016 C1024 0.929 . S
H1017 C1026 0.930 . S
H1018 C1028 0.930 . S
H1019 C1031 0.929 . S
H1020 C1034 0.930 . S
H1021 C1036 0.960 . S
H1022 C1036 0.960 . S
H1023 C1036 0.960 . S
C1024 H1016 0.929 . S
C1024 C1025 1.377 . S
C1024 C1026 1.384 . S
C1025 C1024 1.377 . S
C1025 C1031 1.390 . S
C1026 H1017 0.930 . S
C1026 C1024 1.384 . S
C1026 C1027 1.372 . S
C1027 C1026 1.372 . S
C1027 C1028 1.400 . S
C1027 C1032 1.490 . S
C1028 H1018 0.930 . S
C1028 C1027 1.400 . S
C1028 C1031 1.386 . S
H1029 C1045 0.930 . S
H1030 C1046 0.931 . S
C1031 H1019 0.929 . S
C1031 C1025 1.390 . S
C1031 C1028 1.386 . S
C1032 C1027 1.490 . S
C1032 C1034 1.395 . S
C1032 C1035 1.403 . S
H1033 C1039 0.930 . S
C1034 H1020 0.930 . S
C1034 C1032 1.395 . S
C1034 C1037 1.403 . S
C1035 C1032 1.403 . S
C1035 C1036 1.524 . S
C1035 C1039 1.400 . S
C1036 H1021 0.960 . S
C1036 H1022 0.960 . S
C1036 H1023 0.960 . S
C1036 C1035 1.524 . S
C1037 C1034 1.403 . S
C1037 C1038 1.392 . S
C1037 C1041 1.495 . S
C1038 C1037 1.392 . S
C1038 C1039 1.385 . S
C1038 C1040 1.478 . S
C1039 H1033 0.930 . S
C1039 C1035 1.400 . S
C1039 C1038 1.385 . S
C1040 C1038 1.478 . S
C1040 C1042 1.381 . S
C1040 C1046 1.383 . S
C1041 C1037 1.495 . S
C1041 H1047 0.959 . S
C1041 H1048 0.961 . S
C1041 H1049 0.960 . S
C1042 C1040 1.381 . S
C1042 C1043 1.394 . S
C1042 H1050 0.930 . S
C1043 C1042 1.394 . S
C1043 C1044 1.383 . S
C1043 H1051 0.929 . S
C1044 C1043 1.383 . S
C1044 C1045 1.377 . S
C1045 H1029 0.930 . S
C1045 C1044 1.377 . S
C1045 C1046 1.379 . S
C1046 H1030 0.931 . S
C1046 C1040 1.383 . S
C1046 C1045 1.379 . S
H1047 C1041 0.959 . S
H1048 C1041 0.961 . S
H1049 C1041 0.960 . S
H1050 C1042 0.930 . S
H1051 C1043 0.929 . S
H1052 C1060 0.929 . S
H1053 C1062 0.930 . S
H1054 C1064 0.930 . S
H1055 C1067 0.929 . S
H1056 C1070 0.930 . S
H1057 C1072 0.960 . S
H1058 C1072 0.960 . S
H1059 C1072 0.960 . S
C1060 H1052 0.929 . S
C1060 C1061 1.377 . S
C1060 C1062 1.384 . S
C1061 C1060 1.377 . S
C1061 C1067 1.390 . S
C1062 H1053 0.930 . S
C1062 C1060 1.384 . S
C1062 C1063 1.372 . S
C1063 C1062 1.372 . S
C1063 C1064 1.400 . S
C1063 C1068 1.490 . S
C1064 H1054 0.930 . S
C1064 C1063 1.400 . S
C1064 C1067 1.386 . S
H1065 C1081 0.930 . S
H1066 C1082 0.931 . S
C1067 H1055 0.929 . S
C1067 C1061 1.390 . S
C1067 C1064 1.386 . S
C1068 C1063 1.490 . S
C1068 C1070 1.395 . S
C1068 C1071 1.403 . S
H1069 C1075 0.930 . S
C1070 H1056 0.930 . S
C1070 C1068 1.395 . S
C1070 C1073 1.403 1_455 S
C1071 C1068 1.403 . S
C1071 C1072 1.524 . S
C1071 C1075 1.400 1_455 S
C1072 H1057 0.960 . S
C1072 H1058 0.960 . S
C1072 H1059 0.960 . S
C1072 C1071 1.524 . S
C1073 C1070 1.403 1_655 S
C1073 C1074 1.392 . S
C1073 C1077 1.495 . S
C1074 C1073 1.392 . S
C1074 C1075 1.385 . S
C1074 C1076 1.478 . S
C1075 H1069 0.930 . S
C1075 C1071 1.400 1_655 S
C1075 C1074 1.385 . S
C1076 C1074 1.478 . S
C1076 C1078 1.381 . S
C1076 C1082 1.383 . S
C1077 C1073 1.495 . S
C1077 H1083 0.959 . S
C1077 H1084 0.961 . S
C1077 H1085 0.960 . S
C1078 C1076 1.381 . S
C1078 C1079 1.394 . S
C1078 H1086 0.930 . S
C1079 C1078 1.394 . S
C1079 C1080 1.383 . S
C1079 H1087 0.929 . S
C1080 C1079 1.383 . S
C1080 C1081 1.377 . S
C1081 H1065 0.930 . S
C1081 C1080 1.377 . S
C1081 C1082 1.379 . S
C1082 H1066 0.931 . S
C1082 C1076 1.383 . S
C1082 C1081 1.379 . S
H1083 C1077 0.959 . S
H1084 C1077 0.961 . S
H1085 C1077 0.960 . S
H1086 C1078 0.930 . S
H1087 C1079 0.929 . S
H1088 C1096 0.929 . S
H1089 C1098 0.930 . S
H1090 C1100 0.930 . S
H1091 C1103 0.929 . S
H1092 C1106 0.930 . S
H1093 C1108 0.960 . S
H1094 C1108 0.960 . S
H1095 C1108 0.960 . S
C1096 H1088 0.929 . S
C1096 C1097 1.377 . S
C1096 C1098 1.384 . S
C1097 C1096 1.377 . S
C1097 C1103 1.390 . S
C1098 H1089 0.930 . S
C1098 C1096 1.384 . S
C1098 C1099 1.372 . S
C1099 C1098 1.372 . S
C1099 C1100 1.400 . S
C1099 C1104 1.490 . S
C1100 H1090 0.930 . S
C1100 C1099 1.400 . S
C1100 C1103 1.386 . S
H1101 C1117 0.930 . S
H1102 C1118 0.931 . S
C1103 H1091 0.929 . S
C1103 C1097 1.390 . S
C1103 C1100 1.386 . S
C1104 C1099 1.490 . S
C1104 C1106 1.395 . S
C1104 C1107 1.403 . S
H1105 C1111 0.930 . S
C1106 H1092 0.930 . S
C1106 C1104 1.395 . S
C1106 C1109 1.403 . S
C1107 C1104 1.403 . S
C1107 C1108 1.524 . S
C1107 C1111 1.400 . S
C1108 H1093 0.960 . S
C1108 H1094 0.960 . S
C1108 H1095 0.960 . S
C1108 C1107 1.524 . S
C1109 C1106 1.403 . S
C1109 C1110 1.392 . S
C1109 C1113 1.495 . S
C1110 C1109 1.392 . S
C1110 C1111 1.385 . S
C1110 C1112 1.478 . S
C1111 H1105 0.930 . S
C1111 C1107 1.400 . S
C1111 C1110 1.385 . S
C1112 C1110 1.478 . S
C1112 C1114 1.381 . S
C1112 C1118 1.383 . S
C1113 C1109 1.495 . S
C1113 H1119 0.959 . S
C1113 H1120 0.961 . S
C1113 H1121 0.960 . S
C1114 C1112 1.381 . S
C1114 C1115 1.394 . S
C1114 H1122 0.930 . S
C1115 C1114 1.394 . S
C1115 C1116 1.383 . S
C1115 H1123 0.929 . S
C1116 C1115 1.383 . S
C1116 C1117 1.377 . S
C1117 H1101 0.930 . S
C1117 C1116 1.377 . S
C1117 C1118 1.379 . S
C1118 H1102 0.931 . S
C1118 C1112 1.383 . S
C1118 C1117 1.379 . S
H1119 C1113 0.959 . S
H1120 C1113 0.961 . S
H1121 C1113 0.960 . S
H1122 C1114 0.930 . S
H1123 C1115 0.929 . S
H1124 C1132 0.929 . S
H1125 C1134 0.930 . S
H1126 C1136 0.930 . S
H1127 C1139 0.929 . S
H1128 C1142 0.930 . S
H1129 C1144 0.960 . S
H1130 C1144 0.960 . S
H1131 C1144 0.960 . S
C1132 H1124 0.929 . S
C1132 C1133 1.377 . S
C1132 C1134 1.384 . S
C1133 C1132 1.377 . S
C1133 C1139 1.390 . S
C1134 H1125 0.930 . S
C1134 C1132 1.384 . S
C1134 C1135 1.372 . S
C1135 C1134 1.372 . S
C1135 C1136 1.400 . S
C1135 C1140 1.490 . S
C1136 H1126 0.930 . S
C1136 C1135 1.400 . S
C1136 C1139 1.386 . S
H1137 C1153 0.930 . S
H1138 C1154 0.931 . S
C1139 H1127 0.929 . S
C1139 C1133 1.390 . S
C1139 C1136 1.386 . S
C1140 C1135 1.490 . S
C1140 C1142 1.395 . S
C1140 C1143 1.403 . S
H1141 C1147 0.930 . S
C1142 H1128 0.930 . S
C1142 C1140 1.395 . S
C1142 C1145 1.403 1_655 S
C1143 C1140 1.403 . S
C1143 C1144 1.524 . S
C1143 C1147 1.400 1_655 S
C1144 H1129 0.960 . S
C1144 H1130 0.960 . S
C1144 H1131 0.960 . S
C1144 C1143 1.524 . S
C1145 C1142 1.403 1_455 S
C1145 C1146 1.392 . S
C1145 C1149 1.495 . S
C1146 C1145 1.392 . S
C1146 C1147 1.385 . S
C1146 C1148 1.478 . S
C1147 H1141 0.930 . S
C1147 C1143 1.400 1_455 S
C1147 C1146 1.385 . S
C1148 C1146 1.478 . S
C1148 C1150 1.381 . S
C1148 C1154 1.383 . S
C1149 C1145 1.495 . S
C1149 H1155 0.959 . S
C1149 H1156 0.961 . S
C1149 H1157 0.960 . S
C1150 C1148 1.381 . S
C1150 C1151 1.394 . S
C1150 H1158 0.930 . S
C1151 C1150 1.394 . S
C1151 C1152 1.383 . S
C1151 H1159 0.929 . S
C1152 C1151 1.383 . S
C1152 C1153 1.377 . S
C1153 H1137 0.930 . S
C1153 C1152 1.377 . S
C1153 C1154 1.379 . S
C1154 H1138 0.931 . S
C1154 C1148 1.383 . S
C1154 C1153 1.379 . S
H1155 C1149 0.959 . S
H1156 C1149 0.961 . S
H1157 C1149 0.960 . S
H1158 C1150 0.930 . S
H1159 C1151 0.929 . S
H1160 C1168 0.929 . S
H1161 C1170 0.930 . S
H1162 C1172 0.930 . S
H1163 C1175 0.929 . S
H1164 C1178 0.930 . S
H1165 C1180 0.960 . S
H1166 C1180 0.960 . S
H1167 C1180 0.960 . S
C1168 H1160 0.929 . S
C1168 C1169 1.377 . S
C1168 C1170 1.384 . S
C1169 C1168 1.377 . S
C1169 C1175 1.390 . S
C1170 H1161 0.930 . S
C1170 C1168 1.384 . S
C1170 C1171 1.372 . S
C1171 C1170 1.372 . S
C1171 C1172 1.400 . S
C1171 C1176 1.490 . S
C1172 H1162 0.930 . S
C1172 C1171 1.400 . S
C1172 C1175 1.386 . S
H1173 C1189 0.930 . S
H1174 C1190 0.931 . S
C1175 H1163 0.929 . S
C1175 C1169 1.390 . S
C1175 C1172 1.386 . S
C1176 C1171 1.490 . S
C1176 C1178 1.395 . S
C1176 C1179 1.403 . S
H1177 C1183 0.930 . S
C1178 H1164 0.930 . S
C1178 C1176 1.395 . S
C1178 C1181 1.403 . S
C1179 C1176 1.403 . S
C1179 C1180 1.524 . S
C1179 C1183 1.400 . S
C1180 H1165 0.960 . S
C1180 H1166 0.960 . S
C1180 H1167 0.960 . S
C1180 C1179 1.524 . S
C1181 C1178 1.403 . S
C1181 C1182 1.392 . S
C1181 C1185 1.495 . S
C1182 C1181 1.392 . S
C1182 C1183 1.385 . S
C1182 C1184 1.478 . S
C1183 H1177 0.930 . S
C1183 C1179 1.400 . S
C1183 C1182 1.385 . S
C1184 C1182 1.478 . S
C1184 C1186 1.381 . S
C1184 C1190 1.383 . S
C1185 C1181 1.495 . S
C1185 H1191 0.959 . S
C1185 H1192 0.961 . S
C1185 H1193 0.960 . S
C1186 C1184 1.381 . S
C1186 C1187 1.394 . S
C1186 H1194 0.930 . S
C1187 C1186 1.394 . S
C1187 C1188 1.383 . S
C1187 H1195 0.929 . S
C1188 C1187 1.383 . S
C1188 C1189 1.377 . S
C1189 H1173 0.930 . S
C1189 C1188 1.377 . S
C1189 C1190 1.379 . S
C1190 H1174 0.931 . S
C1190 C1184 1.383 . S
C1190 C1189 1.379 . S
H1191 C1185 0.959 . S
H1192 C1185 0.961 . S
H1193 C1185 0.960 . S
H1194 C1186 0.930 . S
H1195 C1187 0.929 . S
H1196 C1204 0.929 . S
H1197 C1206 0.930 . S
H1198 C1208 0.930 . S
H1199 C1211 0.929 . S
H1200 C1214 0.930 . S
H1201 C1216 0.960 . S
H1202 C1216 0.960 . S
H1203 C1216 0.960 . S
C1204 H1196 0.929 . S
C1204 C1205 1.377 . S
C1204 C1206 1.384 . S
C1205 C1204 1.377 . S
C1205 C1211 1.390 . S
C1206 H1197 0.930 . S
C1206 C1204 1.384 . S
C1206 C1207 1.372 . S
C1207 C1206 1.372 . S
C1207 C1208 1.400 . S
C1207 C1212 1.490 . S
C1208 H1198 0.930 . S
C1208 C1207 1.400 . S
C1208 C1211 1.386 . S
H1209 C1225 0.930 . S
H1210 C1226 0.931 . S
C1211 H1199 0.929 . S
C1211 C1205 1.390 . S
C1211 C1208 1.386 . S
C1212 C1207 1.490 . S
C1212 C1214 1.395 . S
C1212 C1215 1.403 . S
H1213 C1219 0.930 . S
C1214 H1200 0.930 . S
C1214 C1212 1.395 . S
C1214 C1217 1.403 . S
C1215 C1212 1.403 . S
C1215 C1216 1.524 . S
C1215 C1219 1.400 . S
C1216 H1201 0.960 . S
C1216 H1202 0.960 . S
C1216 H1203 0.960 . S
C1216 C1215 1.524 . S
C1217 C1214 1.403 . S
C1217 C1218 1.392 . S
C1217 C1221 1.495 . S
C1218 C1217 1.392 . S
C1218 C1219 1.385 . S
C1218 C1220 1.478 . S
C1219 H1213 0.930 . S
C1219 C1215 1.400 . S
C1219 C1218 1.385 . S
C1220 C1218 1.478 . S
C1220 C1222 1.381 . S
C1220 C1226 1.383 . S
C1221 C1217 1.495 . S
C1221 H1227 0.959 . S
C1221 H1228 0.961 . S
C1221 H1229 0.960 . S
C1222 C1220 1.381 . S
C1222 C1223 1.394 . S
C1222 H1230 0.930 . S
C1223 C1222 1.394 . S
C1223 C1224 1.383 . S
C1223 H1231 0.929 . S
C1224 C1223 1.383 . S
C1224 C1225 1.377 . S
C1225 H1209 0.930 . S
C1225 C1224 1.377 . S
C1225 C1226 1.379 . S
C1226 H1210 0.931 . S
C1226 C1220 1.383 . S
C1226 C1225 1.379 . S
H1227 C1221 0.959 . S
H1228 C1221 0.961 . S
H1229 C1221 0.960 . S
H1230 C1222 0.930 . S
H1231 C1223 0.929 . S
H1232 C1240 0.929 . S
H1233 C1242 0.930 . S
H1234 C1244 0.930 . S
H1235 C1247 0.929 . S
H1236 C1250 0.930 . S
H1237 C1252 0.960 . S
H1238 C1252 0.960 . S
H1239 C1252 0.960 . S
C1240 H1232 0.929 . S
C1240 C1241 1.377 . S
C1240 C1242 1.384 . S
C1241 C1240 1.377 . S
C1241 C1247 1.390 . S
C1242 H1233 0.930 . S
C1242 C1240 1.384 . S
C1242 C1243 1.372 . S
C1243 C1242 1.372 . S
C1243 C1244 1.400 . S
C1243 C1248 1.490 . S
C1244 H1234 0.930 . S
C1244 C1243 1.400 . S
C1244 C1247 1.386 . S
H1245 C1261 0.930 . S
H1246 C1262 0.931 . S
C1247 H1235 0.929 . S
C1247 C1241 1.390 . S
C1247 C1244 1.386 . S
C1248 C1243 1.490 . S
C1248 C1250 1.395 . S
C1248 C1251 1.403 . S
H1249 C1255 0.930 . S
C1250 H1236 0.930 . S
C1250 C1248 1.395 . S
C1250 C1253 1.403 . S
C1251 C1248 1.403 . S
C1251 C1252 1.524 . S
C1251 C1255 1.400 . S
C1252 H1237 0.960 . S
C1252 H1238 0.960 . S
C1252 H1239 0.960 . S
C1252 C1251 1.524 . S
C1253 C1250 1.403 . S
C1253 C1254 1.392 . S
C1253 C1257 1.495 . S
C1254 C1253 1.392 . S
C1254 C1255 1.385 . S
C1254 C1256 1.478 . S
C1255 H1249 0.930 . S
C1255 C1251 1.400 . S
C1255 C1254 1.385 . S
C1256 C1254 1.478 . S
C1256 C1258 1.381 . S
C1256 C1262 1.383 . S
C1257 C1253 1.495 . S
C1257 H1263 0.959 . S
C1257 H1264 0.961 . S
C1257 H1265 0.960 . S
C1258 C1256 1.381 . S
C1258 C1259 1.394 . S
C1258 H1266 0.930 . S
C1259 C1258 1.394 . S
C1259 C1260 1.383 . S
C1259 H1267 0.929 . S
C1260 C1259 1.383 . S
C1260 C1261 1.377 . S
C1261 H1245 0.930 . S
C1261 C1260 1.377 . S
C1261 C1262 1.379 . S
C1262 H1246 0.931 . S
C1262 C1256 1.383 . S
C1262 C1261 1.379 . S
H1263 C1257 0.959 . S
H1264 C1257 0.961 . S
H1265 C1257 0.960 . S
H1266 C1258 0.930 . S
H1267 C1259 0.929 . S
H1268 C1276 0.929 . S
H1269 C1278 0.930 . S
H1270 C1280 0.930 . S
H1271 C1283 0.929 . S
H1272 C1286 0.930 . S
H1273 C1288 0.960 . S
H1274 C1288 0.960 . S
H1275 C1288 0.960 . S
C1276 H1268 0.929 . S
C1276 C1277 1.377 . S
C1276 C1278 1.384 . S
C1277 C1276 1.377 . S
C1277 C1283 1.390 . S
C1278 H1269 0.930 . S
C1278 C1276 1.384 . S
C1278 C1279 1.372 . S
C1279 C1278 1.372 . S
C1279 C1280 1.400 . S
C1279 C1284 1.490 . S
C1280 H1270 0.930 . S
C1280 C1279 1.400 . S
C1280 C1283 1.386 . S
H1281 C1297 0.930 . S
H1282 C1298 0.931 . S
C1283 H1271 0.929 . S
C1283 C1277 1.390 . S
C1283 C1280 1.386 . S
C1284 C1279 1.490 . S
C1284 C1286 1.395 . S
C1284 C1287 1.403 . S
H1285 C1291 0.930 . S
C1286 H1272 0.930 . S
C1286 C1284 1.395 . S
C1286 C1289 1.403 . S
C1287 C1284 1.403 . S
C1287 C1288 1.524 . S
C1287 C1291 1.400 . S
C1288 H1273 0.960 . S
C1288 H1274 0.960 . S
C1288 H1275 0.960 . S
C1288 C1287 1.524 . S
C1289 C1286 1.403 . S
C1289 C1290 1.392 . S
C1289 C1293 1.495 . S
C1290 C1289 1.392 . S
C1290 C1291 1.385 . S
C1290 C1292 1.478 . S
C1291 H1285 0.930 . S
C1291 C1287 1.400 . S
C1291 C1290 1.385 . S
C1292 C1290 1.478 . S
C1292 C1294 1.381 . S
C1292 C1298 1.383 . S
C1293 C1289 1.495 . S
C1293 H1299 0.959 . S
C1293 H1300 0.961 . S
C1293 H1301 0.960 . S
C1294 C1292 1.381 . S
C1294 C1295 1.394 . S
C1294 H1302 0.930 . S
C1295 C1294 1.394 . S
C1295 C1296 1.383 . S
C1295 H1303 0.929 . S
C1296 C1295 1.383 . S
C1296 C1297 1.377 . S
C1297 H1281 0.930 . S
C1297 C1296 1.377 . S
C1297 C1298 1.379 . S
C1298 H1282 0.931 . S
C1298 C1292 1.383 . S
C1298 C1297 1.379 . S
H1299 C1293 0.959 . S
H1300 C1293 0.961 . S
H1301 C1293 0.960 . S
H1302 C1294 0.930 . S
H1303 C1295 0.929 . S
H1304 C1312 0.929 . S
H1305 C1314 0.930 . S
H1306 C1316 0.930 . S
H1307 C1319 0.929 . S
H1308 C1322 0.930 . S
H1309 C1324 0.960 . S
H1310 C1324 0.960 . S
H1311 C1324 0.960 . S
C1312 H1304 0.929 . S
C1312 C1313 1.377 . S
C1312 C1314 1.384 . S
C1313 C1312 1.377 . S
C1313 C1319 1.390 . S
C1314 H1305 0.930 . S
C1314 C1312 1.384 . S
C1314 C1315 1.372 . S
C1315 C1314 1.372 . S
C1315 C1316 1.400 . S
C1315 C1320 1.490 . S
C1316 H1306 0.930 . S
C1316 C1315 1.400 . S
C1316 C1319 1.386 . S
H1317 C1333 0.930 . S
H1318 C1334 0.931 . S
C1319 H1307 0.929 . S
C1319 C1313 1.390 . S
C1319 C1316 1.386 . S
C1320 C1315 1.490 . S
C1320 C1322 1.395 . S
C1320 C1323 1.403 . S
H1321 C1327 0.930 . S
C1322 H1308 0.930 . S
C1322 C1320 1.395 . S
C1322 C1325 1.403 . S
C1323 C1320 1.403 . S
C1323 C1324 1.524 . S
C1323 C1327 1.400 . S
C1324 H1309 0.960 . S
C1324 H1310 0.960 . S
C1324 H1311 0.960 . S
C1324 C1323 1.524 . S
C1325 C1322 1.403 . S
C1325 C1326 1.392 . S
C1325 C1329 1.495 . S
C1326 C1325 1.392 . S
C1326 C1327 1.385 . S
C1326 C1328 1.478 . S
C1327 H1321 0.930 . S
C1327 C1323 1.400 . S
C1327 C1326 1.385 . S
C1328 C1326 1.478 . S
C1328 C1330 1.381 . S
C1328 C1334 1.383 . S
C1329 C1325 1.495 . S
C1329 H1335 0.959 . S
C1329 H1336 0.961 . S
C1329 H1337 0.960 . S
C1330 C1328 1.381 . S
C1330 C1331 1.394 . S
C1330 H1338 0.930 . S
C1331 C1330 1.394 . S
C1331 C1332 1.383 . S
C1331 H1339 0.929 . S
C1332 C1331 1.383 . S
C1332 C1333 1.377 . S
C1333 H1317 0.930 . S
C1333 C1332 1.377 . S
C1333 C1334 1.379 . S
C1334 H1318 0.931 . S
C1334 C1328 1.383 . S
C1334 C1333 1.379 . S
H1335 C1329 0.959 . S
H1336 C1329 0.961 . S
H1337 C1329 0.960 . S
H1338 C1330 0.930 . S
H1339 C1331 0.929 . S
H1340 C1348 0.929 . S
H1341 C1350 0.930 . S
H1342 C1352 0.930 . S
H1343 C1355 0.929 . S
H1344 C1358 0.930 . S
H1345 C1360 0.960 . S
H1346 C1360 0.960 . S
H1347 C1360 0.960 . S
C1348 H1340 0.929 . S
C1348 C1349 1.377 . S
C1348 C1350 1.384 . S
C1349 C1348 1.377 . S
C1349 C1355 1.390 . S
C1350 H1341 0.930 . S
C1350 C1348 1.384 . S
C1350 C1351 1.372 . S
C1351 C1350 1.372 . S
C1351 C1352 1.400 . S
C1351 C1356 1.490 . S
C1352 H1342 0.930 . S
C1352 C1351 1.400 . S
C1352 C1355 1.386 . S
H1353 C1369 0.930 . S
H1354 C1370 0.931 . S
C1355 H1343 0.929 . S
C1355 C1349 1.390 . S
C1355 C1352 1.386 . S
C1356 C1351 1.490 . S
C1356 C1358 1.395 . S
C1356 C1359 1.403 . S
H1357 C1363 0.930 . S
C1358 H1344 0.930 . S
C1358 C1356 1.395 . S
C1358 C1361 1.403 . S
C1359 C1356 1.403 . S
C1359 C1360 1.524 . S
C1359 C1363 1.400 . S
C1360 H1345 0.960 . S
C1360 H1346 0.960 . S
C1360 H1347 0.960 . S
C1360 C1359 1.524 . S
C1361 C1358 1.403 . S
C1361 C1362 1.392 . S
C1361 C1365 1.495 . S
C1362 C1361 1.392 . S
C1362 C1363 1.385 . S
C1362 C1364 1.478 . S
C1363 H1357 0.930 . S
C1363 C1359 1.400 . S
C1363 C1362 1.385 . S
C1364 C1362 1.478 . S
C1364 C1366 1.381 . S
C1364 C1370 1.383 . S
C1365 C1361 1.495 . S
C1365 H1371 0.959 . S
C1365 H1372 0.961 . S
C1365 H1373 0.960 . S
C1366 C1364 1.381 . S
C1366 C1367 1.394 . S
C1366 H1374 0.930 . S
C1367 C1366 1.394 . S
C1367 C1368 1.383 . S
C1367 H1375 0.929 . S
C1368 C1367 1.383 . S
C1368 C1369 1.377 . S
C1369 H1353 0.930 . S
C1369 C1368 1.377 . S
C1369 C1370 1.379 . S
C1370 H1354 0.931 . S
C1370 C1364 1.383 . S
C1370 C1369 1.379 . S
H1371 C1365 0.959 . S
H1372 C1365 0.961 . S
H1373 C1365 0.960 . S
H1374 C1366 0.930 . S
H1375 C1367 0.929 . S
H1376 C1384 0.929 . S
H1377 C1386 0.930 . S
H1378 C1388 0.930 . S
H1379 C1391 0.929 . S
H1380 C1394 0.930 . S
H1381 C1396 0.960 . S
H1382 C1396 0.960 . S
H1383 C1396 0.960 . S
C1384 H1376 0.929 . S
C1384 C1385 1.377 . S
C1384 C1386 1.384 . S
C1385 C1384 1.377 . S
C1385 C1391 1.390 . S
C1386 H1377 0.930 . S
C1386 C1384 1.384 . S
C1386 C1387 1.372 . S
C1387 C1386 1.372 . S
C1387 C1388 1.400 . S
C1387 C1392 1.490 . S
C1388 H1378 0.930 . S
C1388 C1387 1.400 . S
C1388 C1391 1.386 . S
H1389 C1405 0.930 . S
H1390 C1406 0.931 . S
C1391 H1379 0.929 . S
C1391 C1385 1.390 . S
C1391 C1388 1.386 . S
C1392 C1387 1.490 . S
C1392 C1394 1.395 . S
C1392 C1395 1.403 . S
H1393 C1399 0.930 . S
C1394 H1380 0.930 . S
C1394 C1392 1.395 . S
C1394 C1397 1.403 1_455 S
C1395 C1392 1.403 . S
C1395 C1396 1.524 . S
C1395 C1399 1.400 1_455 S
C1396 H1381 0.960 . S
C1396 H1382 0.960 . S
C1396 H1383 0.960 . S
C1396 C1395 1.524 . S
C1397 C1394 1.403 1_655 S
C1397 C1398 1.392 . S
C1397 C1401 1.495 . S
C1398 C1397 1.392 . S
C1398 C1399 1.385 . S
C1398 C1400 1.478 . S
C1399 H1393 0.930 . S
C1399 C1395 1.400 1_655 S
C1399 C1398 1.385 . S
C1400 C1398 1.478 . S
C1400 C1402 1.381 . S
C1400 C1406 1.383 . S
C1401 C1397 1.495 . S
C1401 H1407 0.959 . S
C1401 H1408 0.961 . S
C1401 H1409 0.960 . S
C1402 C1400 1.381 . S
C1402 C1403 1.394 . S
C1402 H1410 0.930 . S
C1403 C1402 1.394 . S
C1403 C1404 1.383 . S
C1403 H1411 0.929 . S
C1404 C1403 1.383 . S
C1404 C1405 1.377 . S
C1405 H1389 0.930 . S
C1405 C1404 1.377 . S
C1405 C1406 1.379 . S
C1406 H1390 0.931 . S
C1406 C1400 1.383 . S
C1406 C1405 1.379 . S
H1407 C1401 0.959 . S
H1408 C1401 0.961 . S
H1409 C1401 0.960 . S
H1410 C1402 0.930 . S
H1411 C1403 0.929 . S
H1412 C1420 0.929 . S
H1413 C1422 0.930 . S
H1414 C1424 0.930 . S
H1415 C1427 0.929 . S
H1416 C1430 0.930 . S
H1417 C1432 0.960 . S
H1418 C1432 0.960 . S
H1419 C1432 0.960 . S
C1420 H1412 0.929 . S
C1420 C1421 1.377 . S
C1420 C1422 1.384 . S
C1421 C1420 1.377 . S
C1421 C1427 1.390 . S
C1422 H1413 0.930 . S
C1422 C1420 1.384 . S
C1422 C1423 1.372 . S
C1423 C1422 1.372 . S
C1423 C1424 1.400 . S
C1423 C1428 1.490 . S
C1424 H1414 0.930 . S
C1424 C1423 1.400 . S
C1424 C1427 1.386 . S
H1425 C1441 0.930 . S
H1426 C1442 0.931 . S
C1427 H1415 0.929 . S
C1427 C1421 1.390 . S
C1427 C1424 1.386 . S
C1428 C1423 1.490 . S
C1428 C1430 1.395 . S
C1428 C1431 1.403 . S
H1429 C1435 0.930 . S
C1430 H1416 0.930 . S
C1430 C1428 1.395 . S
C1430 C1433 1.403 . S
C1431 C1428 1.403 . S
C1431 C1432 1.524 . S
C1431 C1435 1.400 . S
C1432 H1417 0.960 . S
C1432 H1418 0.960 . S
C1432 H1419 0.960 . S
C1432 C1431 1.524 . S
C1433 C1430 1.403 . S
C1433 C1434 1.392 . S
C1433 C1437 1.495 . S
C1434 C1433 1.392 . S
C1434 C1435 1.385 . S
C1434 C1436 1.478 . S
C1435 H1429 0.930 . S
C1435 C1431 1.400 . S
C1435 C1434 1.385 . S
C1436 C1434 1.478 . S
C1436 C1438 1.381 . S
C1436 C1442 1.383 . S
C1437 C1433 1.495 . S
C1437 H1443 0.959 . S
C1437 H1444 0.961 . S
C1437 H1445 0.960 . S
C1438 C1436 1.381 . S
C1438 C1439 1.394 . S
C1438 H1446 0.930 . S
C1439 C1438 1.394 . S
C1439 C1440 1.383 . S
C1439 H1447 0.929 . S
C1440 C1439 1.383 . S
C1440 C1441 1.377 . S
C1441 H1425 0.930 . S
C1441 C1440 1.377 . S
C1441 C1442 1.379 . S
C1442 H1426 0.931 . S
C1442 C1436 1.383 . S
C1442 C1441 1.379 . S
H1443 C1437 0.959 . S
H1444 C1437 0.961 . S
H1445 C1437 0.960 . S
H1446 C1438 0.930 . S
H1447 C1439 0.929 . S
H1448 C1456 0.929 . S
H1449 C1458 0.930 . S
H1450 C1460 0.930 . S
H1451 C1463 0.929 . S
H1452 C1466 0.930 . S
H1453 C1468 0.960 . S
H1454 C1468 0.960 . S
H1455 C1468 0.960 . S
C1456 H1448 0.929 . S
C1456 C1457 1.377 . S
C1456 C1458 1.384 . S
C1457 C1456 1.377 . S
C1457 C1463 1.390 . S
C1458 H1449 0.930 . S
C1458 C1456 1.384 . S
C1458 C1459 1.372 . S
C1459 C1458 1.372 . S
C1459 C1460 1.400 . S
C1459 C1464 1.490 . S
C1460 H1450 0.930 . S
C1460 C1459 1.400 . S
C1460 C1463 1.386 . S
H1461 C1477 0.930 . S
H1462 C1478 0.931 . S
C1463 H1451 0.929 . S
C1463 C1457 1.390 . S
C1463 C1460 1.386 . S
C1464 C1459 1.490 . S
C1464 C1466 1.395 . S
C1464 C1467 1.403 . S
H1465 C1471 0.930 . S
C1466 H1452 0.930 . S
C1466 C1464 1.395 . S
C1466 C1469 1.403 . S
C1467 C1464 1.403 . S
C1467 C1468 1.524 . S
C1467 C1471 1.400 . S
C1468 H1453 0.960 . S
C1468 H1454 0.960 . S
C1468 H1455 0.960 . S
C1468 C1467 1.524 . S
C1469 C1466 1.403 . S
C1469 C1470 1.392 . S
C1469 C1473 1.495 . S
C1470 C1469 1.392 . S
C1470 C1471 1.385 . S
C1470 C1472 1.478 . S
C1471 H1465 0.930 . S
C1471 C1467 1.400 . S
C1471 C1470 1.385 . S
C1472 C1470 1.478 . S
C1472 C1474 1.381 . S
C1472 C1478 1.383 . S
C1473 C1469 1.495 . S
C1473 H1479 0.959 . S
C1473 H1480 0.961 . S
C1473 H1481 0.960 . S
C1474 C1472 1.381 . S
C1474 C1475 1.394 . S
C1474 H1482 0.930 . S
C1475 C1474 1.394 . S
C1475 C1476 1.383 . S
C1475 H1483 0.929 . S
C1476 C1475 1.383 . S
C1476 C1477 1.377 . S
C1477 H1461 0.930 . S
C1477 C1476 1.377 . S
C1477 C1478 1.379 . S
C1478 H1462 0.931 . S
C1478 C1472 1.383 . S
C1478 C1477 1.379 . S
H1479 C1473 0.959 . S
H1480 C1473 0.961 . S
H1481 C1473 0.960 . S
H1482 C1474 0.930 . S
H1483 C1475 0.929 . S
H1484 C1492 0.929 . S
H1485 C1494 0.930 . S
H1486 C1496 0.930 . S
H1487 C1499 0.929 . S
H1488 C1502 0.930 . S
H1489 C1504 0.960 . S
H1490 C1504 0.960 . S
H1491 C1504 0.960 . S
C1492 H1484 0.929 . S
C1492 C1493 1.377 . S
C1492 C1494 1.384 . S
C1493 C1492 1.377 . S
C1493 C1499 1.390 . S
C1494 H1485 0.930 . S
C1494 C1492 1.384 . S
C1494 C1495 1.372 . S
C1495 C1494 1.372 . S
C1495 C1496 1.400 . S
C1495 C1500 1.490 . S
C1496 H1486 0.930 . S
C1496 C1495 1.400 . S
C1496 C1499 1.386 . S
H1497 C1513 0.930 . S
H1498 C1514 0.931 . S
C1499 H1487 0.929 . S
C1499 C1493 1.390 . S
C1499 C1496 1.386 . S
C1500 C1495 1.490 . S
C1500 C1502 1.395 . S
C1500 C1503 1.403 . S
H1501 C1507 0.930 . S
C1502 H1488 0.930 . S
C1502 C1500 1.395 . S
C1502 C1505 1.403 1_455 S
C1503 C1500 1.403 . S
C1503 C1504 1.524 . S
C1503 C1507 1.400 1_455 S
C1504 H1489 0.960 . S
C1504 H1490 0.960 . S
C1504 H1491 0.960 . S
C1504 C1503 1.524 . S
C1505 C1502 1.403 1_655 S
C1505 C1506 1.392 . S
C1505 C1509 1.495 . S
C1506 C1505 1.392 . S
C1506 C1507 1.385 . S
C1506 C1508 1.478 . S
C1507 H1501 0.930 . S
C1507 C1503 1.400 1_655 S
C1507 C1506 1.385 . S
C1508 C1506 1.478 . S
C1508 C1510 1.381 . S
C1508 C1514 1.383 . S
C1509 C1505 1.495 . S
C1509 H1515 0.959 . S
C1509 H1516 0.961 . S
C1509 H1517 0.960 . S
C1510 C1508 1.381 . S
C1510 C1511 1.394 . S
C1510 H1518 0.930 . S
C1511 C1510 1.394 . S
C1511 C1512 1.383 . S
C1511 H1519 0.929 . S
C1512 C1511 1.383 . S
C1512 C1513 1.377 . S
C1513 H1497 0.930 . S
C1513 C1512 1.377 . S
C1513 C1514 1.379 . S
C1514 H1498 0.931 . S
C1514 C1508 1.383 . S
C1514 C1513 1.379 . S
H1515 C1509 0.959 . S
H1516 C1509 0.961 . S
H1517 C1509 0.960 . S
H1518 C1510 0.930 . S
H1519 C1511 0.929 . S
H1520 C1528 0.929 . S
H1521 C1530 0.930 . S
H1522 C1532 0.930 . S
H1523 C1535 0.929 . S
H1524 C1538 0.930 . S
H1525 C1540 0.960 . S
H1526 C1540 0.960 . S
H1527 C1540 0.960 . S
C1528 H1520 0.929 . S
C1528 C1529 1.377 . S
C1528 C1530 1.384 . S
C1529 C1528 1.377 . S
C1529 C1535 1.390 . S
C1530 H1521 0.930 . S
C1530 C1528 1.384 . S
C1530 C1531 1.372 . S
C1531 C1530 1.372 . S
C1531 C1532 1.400 . S
C1531 C1536 1.490 . S
C1532 H1522 0.930 . S
C1532 C1531 1.400 . S
C1532 C1535 1.386 . S
H1533 C1549 0.930 . S
H1534 C1550 0.931 . S
C1535 H1523 0.929 . S
C1535 C1529 1.390 . S
C1535 C1532 1.386 . S
C1536 C1531 1.490 . S
C1536 C1538 1.395 . S
C1536 C1539 1.403 1_554 S
H1537 C1543 0.930 . S
C1538 H1524 0.930 . S
C1538 C1536 1.395 . S
C1538 C1541 1.403 . S
C1539 C1536 1.403 1_556 S
C1539 C1540 1.524 . S
C1539 C1543 1.400 . S
C1540 H1525 0.960 . S
C1540 H1526 0.960 . S
C1540 H1527 0.960 . S
C1540 C1539 1.524 . S
C1541 C1538 1.403 . S
C1541 C1542 1.392 1_554 S
C1541 C1545 1.495 . S
C1542 C1541 1.392 1_556 S
C1542 C1543 1.385 . S
C1542 C1544 1.478 . S
C1543 H1537 0.930 . S
C1543 C1539 1.400 . S
C1543 C1542 1.385 . S
C1544 C1542 1.478 . S
C1544 C1546 1.381 . S
C1544 C1550 1.383 . S
C1545 C1541 1.495 . S
C1545 H1551 0.959 . S
C1545 H1552 0.961 . S
C1545 H1553 0.960 . S
C1546 C1544 1.381 . S
C1546 C1547 1.394 . S
C1546 H1554 0.930 . S
C1547 C1546 1.394 . S
C1547 C1548 1.383 . S
C1547 H1555 0.929 . S
C1548 C1547 1.383 . S
C1548 C1549 1.377 . S
C1549 H1533 0.930 . S
C1549 C1548 1.377 . S
C1549 C1550 1.379 . S
C1550 H1534 0.931 . S
C1550 C1544 1.383 . S
C1550 C1549 1.379 . S
H1551 C1545 0.959 . S
H1552 C1545 0.961 . S
H1553 C1545 0.960 . S
H1554 C1546 0.930 . S
H1555 C1547 0.929 . S
H1556 C1564 0.929 . S
H1557 C1566 0.930 . S
H1558 C1568 0.930 . S
H1559 C1571 0.929 . S
H1560 C1574 0.930 . S
H1561 C1576 0.960 . S
H1562 C1576 0.960 . S
H1563 C1576 0.960 . S
C1564 H1556 0.929 . S
C1564 C1565 1.377 . S
C1564 C1566 1.384 . S
C1565 C1564 1.377 . S
C1565 C1571 1.390 . S
C1566 H1557 0.930 . S
C1566 C1564 1.384 . S
C1566 C1567 1.372 . S
C1567 C1566 1.372 . S
C1567 C1568 1.400 . S
C1567 C1572 1.490 . S
C1568 H1558 0.930 . S
C1568 C1567 1.400 . S
C1568 C1571 1.386 . S
H1569 C1585 0.930 . S
H1570 C1586 0.931 . S
C1571 H1559 0.929 . S
C1571 C1565 1.390 . S
C1571 C1568 1.386 . S
C1572 C1567 1.490 . S
C1572 C1574 1.395 . S
C1572 C1575 1.403 . S
H1573 C1579 0.930 . S
C1574 H1560 0.930 . S
C1574 C1572 1.395 . S
C1574 C1577 1.403 . S
C1575 C1572 1.403 . S
C1575 C1576 1.524 . S
C1575 C1579 1.400 . S
C1576 H1561 0.960 . S
C1576 H1562 0.960 . S
C1576 H1563 0.960 . S
C1576 C1575 1.524 . S
C1577 C1574 1.403 . S
C1577 C1578 1.392 . S
C1577 C1581 1.495 . S
C1578 C1577 1.392 . S
C1578 C1579 1.385 . S
C1578 C1580 1.478 . S
C1579 H1573 0.930 . S
C1579 C1575 1.400 . S
C1579 C1578 1.385 . S
C1580 C1578 1.478 . S
C1580 C1582 1.381 . S
C1580 C1586 1.383 . S
C1581 C1577 1.495 . S
C1581 H1587 0.959 . S
C1581 H1588 0.961 . S
C1581 H1589 0.960 . S
C1582 C1580 1.381 . S
C1582 C1583 1.394 . S
C1582 H1590 0.930 . S
C1583 C1582 1.394 . S
C1583 C1584 1.383 . S
C1583 H1591 0.929 . S
C1584 C1583 1.383 . S
C1584 C1585 1.377 . S
C1585 H1569 0.930 . S
C1585 C1584 1.377 . S
C1585 C1586 1.379 . S
C1586 H1570 0.931 . S
C1586 C1580 1.383 . S
C1586 C1585 1.379 . S
H1587 C1581 0.959 . S
H1588 C1581 0.961 . S
H1589 C1581 0.960 . S
H1590 C1582 0.930 . S
H1591 C1583 0.929 . S
H1592 C1600 0.929 . S
H1593 C1602 0.930 . S
H1594 C1604 0.930 . S
H1595 C1607 0.929 . S
H1596 C1610 0.930 . S
H1597 C1612 0.960 . S
H1598 C1612 0.960 . S
H1599 C1612 0.960 . S
C1600 H1592 0.929 . S
C1600 C1601 1.377 . S
C1600 C1602 1.384 . S
C1601 C1600 1.377 . S
C1601 C1607 1.390 . S
C1602 H1593 0.930 . S
C1602 C1600 1.384 . S
C1602 C1603 1.372 . S
C1603 C1602 1.372 . S
C1603 C1604 1.400 . S
C1603 C1608 1.490 . S
C1604 H1594 0.930 . S
C1604 C1603 1.400 . S
C1604 C1607 1.386 . S
H1605 C1621 0.930 . S
H1606 C1622 0.931 . S
C1607 H1595 0.929 . S
C1607 C1601 1.390 . S
C1607 C1604 1.386 . S
C1608 C1603 1.490 . S
C1608 C1610 1.395 . S
C1608 C1611 1.403 . S
H1609 C1615 0.930 . S
C1610 H1596 0.930 . S
C1610 C1608 1.395 . S
C1610 C1613 1.403 . S
C1611 C1608 1.403 . S
C1611 C1612 1.524 . S
C1611 C1615 1.400 . S
C1612 H1597 0.960 . S
C1612 H1598 0.960 . S
C1612 H1599 0.960 . S
C1612 C1611 1.524 . S
C1613 C1610 1.403 . S
C1613 C1614 1.392 . S
C1613 C1617 1.495 . S
C1614 C1613 1.392 . S
C1614 C1615 1.385 . S
C1614 C1616 1.478 . S
C1615 H1609 0.930 . S
C1615 C1611 1.400 . S
C1615 C1614 1.385 . S
C1616 C1614 1.478 . S
C1616 C1618 1.381 . S
C1616 C1622 1.383 . S
C1617 C1613 1.495 . S
C1617 H1623 0.959 . S
C1617 H1624 0.961 . S
C1617 H1625 0.960 . S
C1618 C1616 1.381 . S
C1618 C1619 1.394 . S
C1618 H1626 0.930 . S
C1619 C1618 1.394 . S
C1619 C1620 1.383 . S
C1619 H1627 0.929 . S
C1620 C1619 1.383 . S
C1620 C1621 1.377 . S
C1621 H1605 0.930 . S
C1621 C1620 1.377 . S
C1621 C1622 1.379 . S
C1622 H1606 0.931 . S
C1622 C1616 1.383 . S
C1622 C1621 1.379 . S
H1623 C1617 0.959 . S
H1624 C1617 0.961 . S
H1625 C1617 0.960 . S
H1626 C1618 0.930 . S
H1627 C1619 0.929 . S
H1628 C1636 0.929 . S
H1629 C1638 0.930 . S
H1630 C1640 0.930 . S
H1631 C1643 0.929 . S
H1632 C1646 0.930 . S
H1633 C1648 0.960 . S
H1634 C1648 0.960 . S
H1635 C1648 0.960 . S
C1636 H1628 0.929 . S
C1636 C1637 1.377 . S
C1636 C1638 1.384 . S
C1637 C1636 1.377 . S
C1637 C1643 1.390 . S
C1638 H1629 0.930 . S
C1638 C1636 1.384 . S
C1638 C1639 1.372 . S
C1639 C1638 1.372 . S
C1639 C1640 1.400 . S
C1639 C1644 1.490 . S
C1640 H1630 0.930 . S
C1640 C1639 1.400 . S
C1640 C1643 1.386 . S
H1641 C1657 0.930 . S
H1642 C1658 0.931 . S
C1643 H1631 0.929 . S
C1643 C1637 1.390 . S
C1643 C1640 1.386 . S
C1644 C1639 1.490 . S
C1644 C1646 1.395 . S
C1644 C1647 1.403 . S
H1645 C1651 0.930 . S
C1646 H1632 0.930 . S
C1646 C1644 1.395 . S
C1646 C1649 1.403 . S
C1647 C1644 1.403 . S
C1647 C1648 1.524 . S
C1647 C1651 1.400 . S
C1648 H1633 0.960 . S
C1648 H1634 0.960 . S
C1648 H1635 0.960 . S
C1648 C1647 1.524 . S
C1649 C1646 1.403 . S
C1649 C1650 1.392 . S
C1649 C1653 1.495 . S
C1650 C1649 1.392 . S
C1650 C1651 1.385 . S
C1650 C1652 1.478 . S
C1651 H1645 0.930 . S
C1651 C1647 1.400 . S
C1651 C1650 1.385 . S
C1652 C1650 1.478 . S
C1652 C1654 1.381 . S
C1652 C1658 1.383 . S
C1653 C1649 1.495 . S
C1653 H1659 0.959 . S
C1653 H1660 0.961 . S
C1653 H1661 0.960 . S
C1654 C1652 1.381 . S
C1654 C1655 1.394 . S
C1654 H1662 0.930 . S
C1655 C1654 1.394 . S
C1655 C1656 1.383 . S
C1655 H1663 0.929 . S
C1656 C1655 1.383 . S
C1656 C1657 1.377 . S
C1657 H1641 0.930 . S
C1657 C1656 1.377 . S
C1657 C1658 1.379 . S
C1658 H1642 0.931 . S
C1658 C1652 1.383 . S
C1658 C1657 1.379 . S
H1659 C1653 0.959 . S
H1660 C1653 0.961 . S
H1661 C1653 0.960 . S
H1662 C1654 0.930 . S
H1663 C1655 0.929 . S
H1664 C1672 0.929 . S
H1665 C1674 0.930 . S
H1666 C1676 0.930 . S
H1667 C1679 0.929 . S
H1668 C1682 0.930 . S
H1669 C1684 0.960 . S
H1670 C1684 0.960 . S
H1671 C1684 0.960 . S
C1672 H1664 0.929 . S
C1672 C1673 1.377 . S
C1672 C1674 1.384 . S
C1673 C1672 1.377 . S
C1673 C1679 1.390 . S
C1674 H1665 0.930 . S
C1674 C1672 1.384 . S
C1674 C1675 1.372 . S
C1675 C1674 1.372 . S
C1675 C1676 1.400 . S
C1675 C1680 1.490 . S
C1676 H1666 0.930 . S
C1676 C1675 1.400 . S
C1676 C1679 1.386 . S
H1677 C1693 0.930 . S
H1678 C1694 0.931 . S
C1679 H1667 0.929 . S
C1679 C1673 1.390 . S
C1679 C1676 1.386 . S
C1680 C1675 1.490 . S
C1680 C1682 1.395 1_556 S
C1680 C1683 1.403 . S
H1681 C1687 0.930 . S
C1682 H1668 0.930 . S
C1682 C1680 1.395 1_554 S
C1682 C1685 1.403 . S
C1683 C1680 1.403 . S
C1683 C1684 1.524 . S
C1683 C1687 1.400 . S
C1684 H1669 0.960 . S
C1684 H1670 0.960 . S
C1684 H1671 0.960 . S
C1684 C1683 1.524 . S
C1685 C1682 1.403 . S
C1685 C1686 1.392 . S
C1685 C1689 1.495 . S
C1686 C1685 1.392 . S
C1686 C1687 1.385 1_554 S
C1686 C1688 1.478 . S
C1687 H1681 0.930 . S
C1687 C1683 1.400 . S
C1687 C1686 1.385 1_556 S
C1688 C1686 1.478 . S
C1688 C1690 1.381 . S
C1688 C1694 1.383 . S
C1689 C1685 1.495 . S
C1689 H1695 0.959 . S
C1689 H1696 0.961 . S
C1689 H1697 0.960 . S
C1690 C1688 1.381 . S
C1690 C1691 1.394 . S
C1690 H1698 0.930 . S
C1691 C1690 1.394 . S
C1691 C1692 1.383 . S
C1691 H1699 0.929 . S
C1692 C1691 1.383 . S
C1692 C1693 1.377 . S
C1693 H1677 0.930 . S
C1693 C1692 1.377 . S
C1693 C1694 1.379 . S
C1694 H1678 0.931 . S
C1694 C1688 1.383 . S
C1694 C1693 1.379 . S
H1695 C1689 0.959 . S
H1696 C1689 0.961 . S
H1697 C1689 0.960 . S
H1698 C1690 0.930 . S
H1699 C1691 0.929 . S
H1700 C1708 0.929 . S
H1701 C1710 0.930 . S
H1702 C1712 0.930 . S
H1703 C1715 0.929 . S
H1704 C1718 0.930 . S
H1705 C1720 0.960 . S
H1706 C1720 0.960 . S
H1707 C1720 0.960 . S
C1708 H1700 0.929 . S
C1708 C1709 1.377 . S
C1708 C1710 1.384 . S
C1709 C1708 1.377 . S
C1709 C1715 1.390 . S
C1710 H1701 0.930 . S
C1710 C1708 1.384 . S
C1710 C1711 1.372 . S
C1711 C1710 1.372 . S
C1711 C1712 1.400 . S
C1711 C1716 1.490 . S
C1712 H1702 0.930 . S
C1712 C1711 1.400 . S
C1712 C1715 1.386 . S
H1713 C1729 0.930 . S
H1714 C1730 0.931 . S
C1715 H1703 0.929 . S
C1715 C1709 1.390 . S
C1715 C1712 1.386 . S
C1716 C1711 1.490 . S
C1716 C1718 1.395 . S
C1716 C1719 1.403 . S
H1717 C1723 0.930 . S
C1718 H1704 0.930 . S
C1718 C1716 1.395 . S
C1718 C1721 1.403 . S
C1719 C1716 1.403 . S
C1719 C1720 1.524 . S
C1719 C1723 1.400 . S
C1720 H1705 0.960 . S
C1720 H1706 0.960 . S
C1720 H1707 0.960 . S
C1720 C1719 1.524 . S
C1721 C1718 1.403 . S
C1721 C1722 1.392 . S
C1721 C1725 1.495 . S
C1722 C1721 1.392 . S
C1722 C1723 1.385 . S
C1722 C1724 1.478 . S
C1723 H1717 0.930 . S
C1723 C1719 1.400 . S
C1723 C1722 1.385 . S
C1724 C1722 1.478 . S
C1724 C1726 1.381 . S
C1724 C1730 1.383 . S
C1725 C1721 1.495 . S
C1725 H1731 0.959 . S
C1725 H1732 0.961 . S
C1725 H1733 0.960 . S
C1726 C1724 1.381 . S
C1726 C1727 1.394 . S
C1726 H1734 0.930 . S
C1727 C1726 1.394 . S
C1727 C1728 1.383 . S
C1727 H1735 0.929 . S
C1728 C1727 1.383 . S
C1728 C1729 1.377 . S
C1729 H1713 0.930 . S
C1729 C1728 1.377 . S
C1729 C1730 1.379 . S
C1730 H1714 0.931 . S
C1730 C1724 1.383 . S
C1730 C1729 1.379 . S
H1731 C1725 0.959 . S
H1732 C1725 0.961 . S
H1733 C1725 0.960 . S
H1734 C1726 0.930 . S
H1735 C1727 0.929 . S
H1736 C1744 0.929 . S
H1737 C1746 0.930 . S
H1738 C1748 0.930 . S
H1739 C1751 0.929 . S
H1740 C1754 0.930 . S
H1741 C1756 0.960 . S
H1742 C1756 0.960 . S
H1743 C1756 0.960 . S
C1744 H1736 0.929 . S
C1744 C1745 1.377 . S
C1744 C1746 1.384 . S
C1745 C1744 1.377 . S
C1745 C1751 1.390 . S
C1746 H1737 0.930 . S
C1746 C1744 1.384 . S
C1746 C1747 1.372 . S
C1747 C1746 1.372 . S
C1747 C1748 1.400 . S
C1747 C1752 1.490 . S
C1748 H1738 0.930 . S
C1748 C1747 1.400 . S
C1748 C1751 1.386 . S
H1749 C1765 0.930 . S
H1750 C1766 0.931 . S
C1751 H1739 0.929 . S
C1751 C1745 1.390 . S
C1751 C1748 1.386 . S
C1752 C1747 1.490 . S
C1752 C1754 1.395 . S
C1752 C1755 1.403 . S
H1753 C1759 0.930 . S
C1754 H1740 0.930 . S
C1754 C1752 1.395 . S
C1754 C1757 1.403 . S
C1755 C1752 1.403 . S
C1755 C1756 1.524 . S
C1755 C1759 1.400 . S
C1756 H1741 0.960 . S
C1756 H1742 0.960 . S
C1756 H1743 0.960 . S
C1756 C1755 1.524 . S
C1757 C1754 1.403 . S
C1757 C1758 1.392 . S
C1757 C1761 1.495 . S
C1758 C1757 1.392 . S
C1758 C1759 1.385 . S
C1758 C1760 1.478 . S
C1759 H1753 0.930 . S
C1759 C1755 1.400 . S
C1759 C1758 1.385 . S
C1760 C1758 1.478 . S
C1760 C1762 1.381 . S
C1760 C1766 1.383 . S
C1761 C1757 1.495 . S
C1761 H1767 0.959 . S
C1761 H1768 0.961 . S
C1761 H1769 0.960 . S
C1762 C1760 1.381 . S
C1762 C1763 1.394 . S
C1762 H1770 0.930 . S
C1763 C1762 1.394 . S
C1763 C1764 1.383 . S
C1763 H1771 0.929 . S
C1764 C1763 1.383 . S
C1764 C1765 1.377 . S
C1765 H1749 0.930 . S
C1765 C1764 1.377 . S
C1765 C1766 1.379 . S
C1766 H1750 0.931 . S
C1766 C1760 1.383 . S
C1766 C1765 1.379 . S
H1767 C1761 0.959 . S
H1768 C1761 0.961 . S
H1769 C1761 0.960 . S
H1770 C1762 0.930 . S
H1771 C1763 0.929 . S
H1772 C1780 0.929 . S
H1773 C1782 0.930 . S
H1774 C1784 0.930 . S
H1775 C1787 0.929 . S
H1776 C1790 0.930 . S
H1777 C1792 0.960 . S
H1778 C1792 0.960 . S
H1779 C1792 0.960 . S
C1780 H1772 0.929 . S
C1780 C1781 1.377 . S
C1780 C1782 1.384 . S
C1781 C1780 1.377 . S
C1781 C1787 1.390 . S
C1782 H1773 0.930 . S
C1782 C1780 1.384 . S
C1782 C1783 1.372 . S
C1783 C1782 1.372 . S
C1783 C1784 1.400 . S
C1783 C1788 1.490 . S
C1784 H1774 0.930 . S
C1784 C1783 1.400 . S
C1784 C1787 1.386 . S
H1785 C1801 0.930 . S
H1786 C1802 0.931 . S
C1787 H1775 0.929 . S
C1787 C1781 1.390 . S
C1787 C1784 1.386 . S
C1788 C1783 1.490 . S
C1788 C1790 1.395 . S
C1788 C1791 1.403 . S
H1789 C1795 0.930 . S
C1790 H1776 0.930 . S
C1790 C1788 1.395 . S
C1790 C1793 1.403 . S
C1791 C1788 1.403 . S
C1791 C1792 1.524 . S
C1791 C1795 1.400 . S
C1792 H1777 0.960 . S
C1792 H1778 0.960 . S
C1792 H1779 0.960 . S
C1792 C1791 1.524 . S
C1793 C1790 1.403 . S
C1793 C1794 1.392 . S
C1793 C1797 1.495 . S
C1794 C1793 1.392 . S
C1794 C1795 1.385 . S
C1794 C1796 1.478 . S
C1795 H1789 0.930 . S
C1795 C1791 1.400 . S
C1795 C1794 1.385 . S
C1796 C1794 1.478 . S
C1796 C1798 1.381 . S
C1796 C1802 1.383 . S
C1797 C1793 1.495 . S
C1797 H1803 0.959 . S
C1797 H1804 0.961 . S
C1797 H1805 0.960 . S
C1798 C1796 1.381 . S
C1798 C1799 1.394 . S
C1798 H1806 0.930 . S
C1799 C1798 1.394 . S
C1799 C1800 1.383 . S
C1799 H1807 0.929 . S
C1800 C1799 1.383 . S
C1800 C1801 1.377 . S
C1801 H1785 0.930 . S
C1801 C1800 1.377 . S
C1801 C1802 1.379 . S
C1802 H1786 0.931 . S
C1802 C1796 1.383 . S
C1802 C1801 1.379 . S
H1803 C1797 0.959 . S
H1804 C1797 0.961 . S
H1805 C1797 0.960 . S
H1806 C1798 0.930 . S
H1807 C1799 0.929 . S
H1808 C1816 0.929 . S
H1809 C1818 0.930 . S
H1810 C1820 0.930 . S
H1811 C1823 0.929 . S
H1812 C1826 0.930 . S
H1813 C1828 0.960 . S
H1814 C1828 0.960 1_545 S
H1815 C1828 0.960 1_545 S
C1816 H1808 0.929 . S
C1816 C1817 1.377 . S
C1816 C1818 1.384 . S
C1817 C1816 1.377 . S
C1817 C1823 1.390 . S
C1818 H1809 0.930 . S
C1818 C1816 1.384 . S
C1818 C1819 1.372 . S
C1819 C1818 1.372 . S
C1819 C1820 1.400 . S
C1819 C1824 1.490 . S
C1820 H1810 0.930 . S
C1820 C1819 1.400 . S
C1820 C1823 1.386 . S
H1821 C1837 0.930 . S
H1822 C1838 0.931 . S
C1823 H1811 0.929 . S
C1823 C1817 1.390 . S
C1823 C1820 1.386 . S
C1824 C1819 1.490 . S
C1824 C1826 1.395 . S
C1824 C1827 1.376 1_545 S
H1825 C1831 0.930 . S
C1826 H1812 0.930 . S
C1826 C1824 1.395 . S
C1826 C1829 1.403 . S
C1827 C1824 1.376 1_565 S
C1827 C1828 1.527 . S
C1827 C1831 1.424 . S
C1828 H1813 0.960 . S
C1828 H1814 0.960 1_565 S
C1828 H1815 0.960 1_565 S
C1828 C1827 1.527 . S
C1829 C1826 1.403 . S
C1829 C1830 1.392 1_545 S
C1829 C1833 1.495 . S
C1830 C1829 1.392 1_565 S
C1830 C1831 1.385 . S
C1830 C1832 1.478 . S
C1831 H1825 0.930 . S
C1831 C1827 1.424 . S
C1831 C1830 1.385 . S
C1832 C1830 1.478 . S
C1832 C1834 1.381 . S
C1832 C1838 1.383 . S
C1833 C1829 1.495 . S
C1833 H1839 0.959 . S
C1833 H1840 0.961 1_545 S
C1833 H1841 0.951 1_545 S
C1834 C1832 1.381 . S
C1834 C1835 1.394 . S
C1834 H1842 0.930 . S
C1835 C1834 1.394 . S
C1835 C1836 1.383 . S
C1835 H1843 0.929 . S
C1836 C1835 1.383 . S
C1836 C1837 1.377 . S
C1837 H1821 0.930 . S
C1837 C1836 1.377 . S
C1837 C1838 1.379 . S
C1838 H1822 0.931 . S
C1838 C1832 1.383 . S
C1838 C1837 1.379 . S
H1839 C1833 0.959 . S
H1840 C1833 0.961 1_565 S
H1841 C1833 0.951 1_565 S
H1842 C1834 0.930 . S
H1843 C1835 0.929 . S
H1844 C1852 0.929 . S
H1845 C1854 0.930 . S
H1846 C1856 0.930 . S
H1847 C1859 0.929 . S
H1848 C1862 0.930 . S
H1849 C1864 0.960 . S
H1850 C1864 0.960 . S
H1851 C1864 0.960 . S
C1852 H1844 0.929 . S
C1852 C1853 1.377 . S
C1852 C1854 1.384 . S
C1853 C1852 1.377 . S
C1853 C1859 1.390 . S
C1854 H1845 0.930 . S
C1854 C1852 1.384 . S
C1854 C1855 1.372 . S
C1855 C1854 1.372 . S
C1855 C1856 1.400 . S
C1855 C1860 1.490 . S
C1856 H1846 0.930 . S
C1856 C1855 1.400 . S
C1856 C1859 1.386 . S
H1857 C1873 0.930 . S
H1858 C1874 0.931 . S
C1859 H1847 0.929 . S
C1859 C1853 1.390 . S
C1859 C1856 1.386 . S
C1860 C1855 1.490 . S
C1860 C1862 1.395 . S
C1860 C1863 1.403 . S
H1861 C1867 0.930 . S
C1862 H1848 0.930 . S
C1862 C1860 1.395 . S
C1862 C1865 1.403 . S
C1863 C1860 1.403 . S
C1863 C1864 1.524 . S
C1863 C1867 1.400 . S
C1864 H1849 0.960 . S
C1864 H1850 0.960 . S
C1864 H1851 0.960 . S
C1864 C1863 1.524 . S
C1865 C1862 1.403 . S
C1865 C1866 1.392 . S
C1865 C1869 1.495 . S
C1866 C1865 1.392 . S
C1866 C1867 1.385 . S
C1866 C1868 1.478 . S
C1867 H1861 0.930 . S
C1867 C1863 1.400 . S
C1867 C1866 1.385 . S
C1868 C1866 1.478 . S
C1868 C1870 1.381 . S
C1868 C1874 1.383 . S
C1869 C1865 1.495 . S
C1869 H1875 0.959 . S
C1869 H1876 0.961 . S
C1869 H1877 0.960 . S
C1870 C1868 1.381 . S
C1870 C1871 1.394 . S
C1870 H1878 0.930 . S
C1871 C1870 1.394 . S
C1871 C1872 1.383 . S
C1871 H1879 0.929 . S
C1872 C1871 1.383 . S
C1872 C1873 1.377 . S
C1873 H1857 0.930 . S
C1873 C1872 1.377 . S
C1873 C1874 1.379 . S
C1874 H1858 0.931 . S
C1874 C1868 1.383 . S
C1874 C1873 1.379 . S
H1875 C1869 0.959 . S
H1876 C1869 0.961 . S
H1877 C1869 0.960 . S
H1878 C1870 0.930 . S
H1879 C1871 0.929 . S
H1880 C1888 0.929 . S
H1881 C1890 0.930 . S
H1882 C1892 0.930 . S
H1883 C1895 0.929 . S
H1884 C1898 0.930 . S
H1885 C1900 0.960 . S
H1886 C1900 0.960 1_545 S
H1887 C1900 0.960 1_545 S
C1888 H1880 0.929 . S
C1888 C1889 1.377 . S
C1888 C1890 1.384 . S
C1889 C1888 1.377 . S
C1889 C1895 1.390 . S
C1890 H1881 0.930 . S
C1890 C1888 1.384 . S
C1890 C1891 1.372 . S
C1891 C1890 1.372 . S
C1891 C1892 1.400 . S
C1891 C1896 1.490 . S
C1892 H1882 0.930 . S
C1892 C1891 1.400 . S
C1892 C1895 1.386 . S
H1893 C1909 0.930 . S
H1894 C1910 0.931 . S
C1895 H1883 0.929 . S
C1895 C1889 1.390 . S
C1895 C1892 1.386 . S
C1896 C1891 1.490 . S
C1896 C1898 1.395 1_556 S
C1896 C1899 1.361 1_545 S
H1897 C1903 0.930 . S
C1898 H1884 0.930 . S
C1898 C1896 1.395 1_554 S
C1898 C1901 1.403 . S
C1899 C1896 1.361 1_565 S
C1899 C1900 1.530 . S
C1899 C1903 1.438 . S
C1900 H1885 0.960 . S
C1900 H1886 0.960 1_565 S
C1900 H1887 0.960 1_565 S
C1900 C1899 1.530 . S
C1901 C1898 1.403 . S
C1901 C1902 1.392 1_545 S
C1901 C1905 1.495 . S
C1902 C1901 1.392 1_565 S
C1902 C1903 1.385 1_554 S
C1902 C1904 1.478 . S
C1903 H1897 0.930 . S
C1903 C1899 1.438 . S
C1903 C1902 1.385 1_556 S
C1904 C1902 1.478 . S
C1904 C1906 1.381 . S
C1904 C1910 1.383 . S
C1905 C1901 1.495 . S
C1905 H1911 0.959 . S
C1905 H1912 0.961 1_545 S
C1905 H1913 0.945 1_545 S
C1906 C1904 1.381 . S
C1906 C1907 1.394 . S
C1906 H1914 0.930 . S
C1907 C1906 1.394 . S
C1907 C1908 1.383 . S
C1907 H1915 0.929 . S
C1908 C1907 1.383 . S
C1908 C1909 1.377 . S
C1909 H1893 0.930 . S
C1909 C1908 1.377 . S
C1909 C1910 1.379 . S
C1910 H1894 0.931 . S
C1910 C1904 1.383 . S
C1910 C1909 1.379 . S
H1911 C1905 0.959 . S
H1912 C1905 0.961 1_565 S
H1913 C1905 0.945 1_565 S
H1914 C1906 0.930 . S
H1915 C1907 0.929 . S
H1916 C1924 0.929 . S
H1917 C1926 0.930 . S
H1918 C1928 0.930 . S
H1919 C1931 0.929 . S
H1920 C1934 0.930 . S
H1921 C1936 0.960 . S
H1922 C1936 0.960 . S
H1923 C1936 0.960 . S
C1924 H1916 0.929 . S
C1924 C1925 1.377 . S
C1924 C1926 1.384 . S
C1925 C1924 1.377 . S
C1925 C1931 1.390 . S
C1926 H1917 0.930 . S
C1926 C1924 1.384 . S
C1926 C1927 1.372 . S
C1927 C1926 1.372 . S
C1927 C1928 1.400 . S
C1927 C1932 1.490 . S
C1928 H1918 0.930 . S
C1928 C1927 1.400 . S
C1928 C1931 1.386 . S
H1929 C1945 0.930 . S
H1930 C1946 0.931 . S
C1931 H1919 0.929 . S
C1931 C1925 1.390 . S
C1931 C1928 1.386 . S
C1932 C1927 1.490 . S
C1932 C1934 1.395 . S
C1932 C1935 1.403 . S
H1933 C1939 0.930 . S
C1934 H1920 0.930 . S
C1934 C1932 1.395 . S
C1934 C1937 1.403 . S
C1935 C1932 1.403 . S
C1935 C1936 1.524 . S
C1935 C1939 1.400 . S
C1936 H1921 0.960 . S
C1936 H1922 0.960 . S
C1936 H1923 0.960 . S
C1936 C1935 1.524 . S
C1937 C1934 1.403 . S
C1937 C1938 1.392 . S
C1937 C1941 1.495 . S
C1938 C1937 1.392 . S
C1938 C1939 1.385 . S
C1938 C1940 1.478 . S
C1939 H1933 0.930 . S
C1939 C1935 1.400 . S
C1939 C1938 1.385 . S
C1940 C1938 1.478 . S
C1940 C1942 1.381 . S
C1940 C1946 1.383 . S
C1941 C1937 1.495 . S
C1941 H1947 0.959 . S
C1941 H1948 0.961 . S
C1941 H1949 0.960 . S
C1942 C1940 1.381 . S
C1942 C1943 1.394 . S
C1942 H1950 0.930 . S
C1943 C1942 1.394 . S
C1943 C1944 1.383 . S
C1943 H1951 0.929 . S
C1944 C1943 1.383 . S
C1944 C1945 1.377 . S
C1945 H1929 0.930 . S
C1945 C1944 1.377 . S
C1945 C1946 1.379 . S
C1946 H1930 0.931 . S
C1946 C1940 1.383 . S
C1946 C1945 1.379 . S
H1947 C1941 0.959 . S
H1948 C1941 0.961 . S
H1949 C1941 0.960 . S
H1950 C1942 0.930 . S
H1951 C1943 0.929 . S
H1952 C1960 0.929 . S
H1953 C1962 0.930 . S
H1954 C1964 0.930 . S
H1955 C1967 0.929 . S
H1956 C1970 0.933 . S
H1957 C1972 0.960 . S
H1958 C1972 0.960 . S
H1959 C1972 0.960 . S
C1960 H1952 0.929 . S
C1960 C1961 1.377 . S
C1960 C1962 1.384 . S
C1961 C1960 1.377 . S
C1961 C1967 1.390 . S
C1962 H1953 0.930 . S
C1962 C1960 1.384 . S
C1962 C1963 1.372 . S
C1963 C1962 1.372 . S
C1963 C1964 1.400 . S
C1963 C1968 1.490 . S
C1964 H1954 0.930 . S
C1964 C1963 1.400 . S
C1964 C1967 1.386 . S
H1965 C1981 0.930 . S
H1966 C1982 0.931 . S
C1967 H1955 0.929 . S
C1967 C1961 1.390 . S
C1967 C1964 1.386 . S
C1968 C1963 1.490 . S
C1968 C1970 1.413 . S
C1968 C1971 1.403 . S
H1969 C1975 0.930 . S
C1970 H1956 0.933 . S
C1970 C1968 1.413 . S
C1970 C1973 1.382 1_545 S
C1971 C1968 1.403 . S
C1971 C1972 1.524 . S
C1971 C1975 1.400 1_545 S
C1972 H1957 0.960 . S
C1972 H1958 0.960 . S
C1972 H1959 0.960 . S
C1972 C1971 1.524 . S
C1973 C1970 1.382 1_565 S
C1973 C1974 1.392 . S
C1973 C1977 1.495 . S
C1974 C1973 1.392 . S
C1974 C1975 1.385 . S
C1974 C1976 1.478 . S
C1975 H1969 0.930 . S
C1975 C1971 1.400 1_565 S
C1975 C1974 1.385 . S
C1976 C1974 1.478 . S
C1976 C1978 1.381 . S
C1976 C1982 1.383 . S
C1977 C1973 1.495 . S
C1977 H1983 0.959 . S
C1977 H1984 0.961 . S
C1977 H1985 0.960 . S
C1978 C1976 1.381 . S
C1978 C1979 1.394 . S
C1978 H1986 0.930 . S
C1979 C1978 1.394 . S
C1979 C1980 1.383 . S
C1979 H1987 0.929 . S
C1980 C1979 1.383 . S
C1980 C1981 1.377 . S
C1981 H1965 0.930 . S
C1981 C1980 1.377 . S
C1981 C1982 1.379 . S
C1982 H1966 0.931 . S
C1982 C1976 1.383 . S
C1982 C1981 1.379 . S
H1983 C1977 0.959 . S
H1984 C1977 0.961 . S
H1985 C1977 0.960 . S
H1986 C1978 0.930 . S
H1987 C1979 0.929 . S
H1988 C1996 0.929 . S
H1989 C1998 0.930 . S
H1990 C2000 0.930 . S
H1991 C2003 0.929 . S
H1992 C2006 0.930 . S
H1993 C2008 0.960 . S
H1994 C2008 0.960 . S
H1995 C2008 0.960 . S
C1996 H1988 0.929 . S
C1996 C1997 1.377 . S
C1996 C1998 1.384 . S
C1997 C1996 1.377 . S
C1997 C2003 1.390 . S
C1998 H1989 0.930 . S
C1998 C1996 1.384 . S
C1998 C1999 1.372 . S
C1999 C1998 1.372 . S
C1999 C2000 1.400 . S
C1999 C2004 1.490 . S
C2000 H1990 0.930 . S
C2000 C1999 1.400 . S
C2000 C2003 1.386 . S
H2001 C2017 0.930 . S
H2002 C2018 0.931 . S
C2003 H1991 0.929 . S
C2003 C1997 1.390 . S
C2003 C2000 1.386 . S
C2004 C1999 1.490 . S
C2004 C2006 1.395 . S
C2004 C2007 1.403 . S
H2005 C2011 0.930 . S
C2006 H1992 0.930 . S
C2006 C2004 1.395 . S
C2006 C2009 1.403 . S
C2007 C2004 1.403 . S
C2007 C2008 1.524 . S
C2007 C2011 1.400 . S
C2008 H1993 0.960 . S
C2008 H1994 0.960 . S
C2008 H1995 0.960 . S
C2008 C2007 1.524 . S
C2009 C2006 1.403 . S
C2009 C2010 1.392 . S
C2009 C2013 1.495 . S
C2010 C2009 1.392 . S
C2010 C2011 1.385 . S
C2010 C2012 1.478 . S
C2011 H2005 0.930 . S
C2011 C2007 1.400 . S
C2011 C2010 1.385 . S
C2012 C2010 1.478 . S
C2012 C2014 1.381 . S
C2012 C2018 1.383 . S
C2013 C2009 1.495 . S
C2013 H2019 0.959 . S
C2013 H2020 0.961 . S
C2013 H2021 0.960 . S
C2014 C2012 1.381 . S
C2014 C2015 1.394 . S
C2014 H2022 0.930 . S
C2015 C2014 1.394 . S
C2015 C2016 1.383 . S
C2015 H2023 0.929 . S
C2016 C2015 1.383 . S
C2016 C2017 1.377 . S
C2017 H2001 0.930 . S
C2017 C2016 1.377 . S
C2017 C2018 1.379 . S
C2018 H2002 0.931 . S
C2018 C2012 1.383 . S
C2018 C2017 1.379 . S
H2019 C2013 0.959 . S
H2020 C2013 0.961 . S
H2021 C2013 0.960 . S
H2022 C2014 0.930 . S
H2023 C2015 0.929 . S
H2024 C2032 0.929 . S
H2025 C2034 0.930 1_556 S
H2026 C2036 0.930 . S
H2027 C2039 0.929 . S
H2028 C2042 0.930 . S
H2029 C2044 0.960 1_545 S
H2030 C2044 0.960 . S
H2031 C2044 0.960 . S
C2032 H2024 0.929 . S
C2032 C2033 1.377 . S
C2032 C2034 1.384 . S
C2033 C2032 1.377 . S
C2033 C2039 1.390 . S
C2034 H2025 0.930 1_554 S
C2034 C2032 1.384 . S
C2034 C2035 1.372 . S
C2035 C2034 1.372 . S
C2035 C2036 1.400 . S
C2035 C2040 1.490 . S
C2036 H2026 0.930 . S
C2036 C2035 1.400 . S
C2036 C2039 1.386 . S
H2037 C2053 0.930 . S
H2038 C2054 0.931 . S
C2039 H2027 0.929 . S
C2039 C2033 1.390 . S
C2039 C2036 1.386 . S
C2040 C2035 1.490 . S
C2040 C2042 1.395 1_554 S
C2040 C2043 1.403 . S
H2041 C2047 0.930 . S
C2042 H2028 0.930 . S
C2042 C2040 1.395 1_556 S
C2042 C2045 1.402 1_565 S
C2043 C2040 1.403 . S
C2043 C2044 1.524 . S
C2043 C2047 1.400 1_565 S
C2044 H2029 0.960 1_565 S
C2044 H2030 0.960 . S
C2044 H2031 0.960 . S
C2044 C2043 1.524 . S
C2045 C2042 1.402 1_545 S
C2045 C2046 1.393 . S
C2045 C2049 1.495 . S
C2046 C2045 1.393 . S
C2046 C2047 1.385 1_556 S
C2046 C2048 1.478 . S
C2047 H2041 0.930 . S
C2047 C2043 1.400 1_545 S
C2047 C2046 1.385 1_554 S
C2048 C2046 1.478 . S
C2048 C2050 1.381 . S
C2048 C2054 1.383 . S
C2049 C2045 1.495 . S
C2049 H2055 0.928 1_545 S
C2049 H2056 0.988 . S
C2049 H2057 0.967 . S
C2050 C2048 1.381 . S
C2050 C2051 1.394 . S
C2050 H2058 0.930 . S
C2051 C2050 1.394 . S
C2051 C2052 1.383 . S
C2051 H2059 0.929 . S
C2052 C2051 1.383 . S
C2052 C2053 1.377 . S
C2053 H2037 0.930 . S
C2053 C2052 1.377 . S
C2053 C2054 1.379 . S
C2054 H2038 0.931 . S
C2054 C2048 1.383 . S
C2054 C2053 1.379 . S
H2055 C2049 0.928 1_565 S
H2056 C2049 0.988 . S
H2057 C2049 0.967 . S
H2058 C2050 0.930 . S
H2059 C2051 0.929 . S
H2060 C2068 0.929 . S
H2061 C2070 0.930 . S
H2062 C2072 0.930 . S
H2063 C2075 0.929 . S
H2064 C2078 0.930 . S
H2065 C2080 0.960 . S
H2066 C2080 0.960 . S
H2067 C2080 0.960 . S
C2068 H2060 0.929 . S
C2068 C2069 1.377 . S
C2068 C2070 1.384 . S
C2069 C2068 1.377 . S
C2069 C2075 1.390 . S
C2070 H2061 0.930 . S
C2070 C2068 1.384 . S
C2070 C2071 1.372 . S
C2071 C2070 1.372 . S
C2071 C2072 1.400 . S
C2071 C2076 1.490 . S
C2072 H2062 0.930 . S
C2072 C2071 1.400 . S
C2072 C2075 1.386 . S
H2073 C2089 0.930 . S
H2074 C2090 0.931 . S
C2075 H2063 0.929 . S
C2075 C2069 1.390 . S
C2075 C2072 1.386 . S
C2076 C2071 1.490 . S
C2076 C2078 1.395 . S
C2076 C2079 1.403 . S
H2077 C2083 0.930 . S
C2078 H2064 0.930 . S
C2078 C2076 1.395 . S
C2078 C2081 1.403 . S
C2079 C2076 1.403 . S
C2079 C2080 1.524 . S
C2079 C2083 1.400 . S
C2080 H2065 0.960 . S
C2080 H2066 0.960 . S
C2080 H2067 0.960 . S
C2080 C2079 1.524 . S
C2081 C2078 1.403 . S
C2081 C2082 1.392 . S
C2081 C2085 1.495 . S
C2082 C2081 1.392 . S
C2082 C2083 1.385 . S
C2082 C2084 1.478 . S
C2083 H2077 0.930 . S
C2083 C2079 1.400 . S
C2083 C2082 1.385 . S
C2084 C2082 1.478 . S
C2084 C2086 1.381 . S
C2084 C2090 1.383 . S
C2085 C2081 1.495 . S
C2085 H2091 0.959 . S
C2085 H2092 0.961 . S
C2085 H2093 0.960 . S
C2086 C2084 1.381 . S
C2086 C2087 1.394 . S
C2086 H2094 0.930 . S
C2087 C2086 1.394 . S
C2087 C2088 1.383 . S
C2087 H2095 0.929 . S
C2088 C2087 1.383 . S
C2088 C2089 1.377 . S
C2089 H2073 0.930 . S
C2089 C2088 1.377 . S
C2089 C2090 1.379 . S
C2090 H2074 0.931 . S
C2090 C2084 1.383 . S
C2090 C2089 1.379 . S
H2091 C2085 0.959 . S
H2092 C2085 0.961 . S
H2093 C2085 0.960 . S
H2094 C2086 0.930 . S
H2095 C2087 0.929 . S
C953 C701 1.395 . S
C972 C33 1.391 . S
C989 C937 1.390 . S
C1008 C111 1.393 . S
C1025 C170 1.392 . S
C1044 C564 1.394 . S
C1061 C819 1.392 . S
C1080 C210 1.395 . S
C1097 C269 1.393 . S
C1116 C800 1.383 . S
C1133 C347 1.388 . S
C1152 C682 1.393 . S
C1169 C406 1.391 . S
C1188 C918 1.390 . S
C1205 C446 1.390 . S
C1224 C583 1.394 . S
C1241 C229 1.391 . S
C1260 C505 1.396 . S
C1277 C642 1.389 . S
C1296 C92 1.380 . S
C1313 C741 1.391 . S
C1332 C328 1.395 . S
C1349 C878 1.393 . S
C1368 C465 1.390 . S
C1385 C288 1.394 . S
C1404 C524 1.383 . S
C1421 C623 1.389 . S
C1440 C387 1.387 . S
C1457 C859 1.389 . S
C1476 C151 1.394 . S
C1493 C52 1.394 . S
C1512 C760 1.383 . S
C1529 C3 1.365 . S
C1548 C239 1.353 . S
C1565 C64 1.364 . S
C1584 C300 1.352 . S
C1601 C123 1.368 . S
C1620 C359 1.359 . S
C1637 C416 1.361 . S
C1656 C180 1.359 . S
C1673 C475 1.364 . S
C1692 C711 1.350 . S
C1709 C772 1.368 . S
C1728 C536 1.356 . S
C1745 C595 1.371 . S
C1764 C831 1.361 . S
C1781 C890 1.369 . S
C1800 C652 1.372 . S
C1817 C418 1.364 . S
C1836 C62 1.357 . S
C1853 C121 1.362 . S
C1872 C241 1.362 . S
C1889 C182 1.369 . S
C1908 C298 1.360 . S
C1925 C5 1.368 . S
C1944 C357 1.370 . S
C1961 C534 1.360 . S
C1980 C888 1.372 . S
C1997 C713 1.374 . S
C2016 C593 1.368 . S
C2033 C654 1.372 . S
C2052 C770 1.343 . S
C2069 C829 1.359 . S
C2088 C477 1.357 . S
