# Generated by pormake.
# Topology smc, (6)-cn, num edge types: 1
# Building blocks:
#     Node 0, Type 0, BuildingBlock: UKALOJ_clean_sbu_0, # of connection points: 6
#     Node 1, Type 0, BuildingBlock: UKALOJ_clean_sbu_0, # of connection points: 6
#     Node 2, Type 0, BuildingBlock: UKALOJ_clean_sbu_0, # of connection points: 6
#     Node 3, Type 0, BuildingBlock: UKALOJ_clean_sbu_0, # of connection points: 6
#     Node 4, Type 0, BuildingBlock: UKALOJ_clean_sbu_0, # of connection points: 6
#     Node 5, Type 0, BuildingBlock: UKALOJ_clean_sbu_0, # of connection points: 6
#     Node 6, Type 0, BuildingBlock: UKALOJ_clean_sbu_0, # of connection points: 6
#     Node 7, Type 0, BuildingBlock: UKALOJ_clean_sbu_0, # of connection points: 6
#     Node 8, Type 0, BuildingBlock: UKALOJ_clean_sbu_0, # of connection points: 6
#     Edge 9, Type (0, 0), None
#     Edge 10, Type (0, 0), None
#     Edge 11, Type (0, 0), None
#     Edge 12, Type (0, 0), None
#     Edge 13, Type (0, 0), None
#     Edge 14, Type (0, 0), None
#     Edge 15, Type (0, 0), None
#     Edge 16, Type (0, 0), None
#     Edge 17, Type (0, 0), None
#     Edge 18, Type (0, 0), None
#     Edge 19, Type (0, 0), None
#     Edge 20, Type (0, 0), None
#     Edge 21, Type (0, 0), None
#     Edge 22, Type (0, 0), None
#     Edge 23, Type (0, 0), None
#     Edge 24, Type (0, 0), None
#     Edge 25, Type (0, 0), None
#     Edge 26, Type (0, 0), None
#     Edge 27, Type (0, 0), None
#     Edge 28, Type (0, 0), None
#     Edge 29, Type (0, 0), None
#     Edge 30, Type (0, 0), None
#     Edge 31, Type (0, 0), None
#     Edge 32, Type (0, 0), None
#     Edge 33, Type (0, 0), None
#     Edge 34, Type (0, 0), None
#     Edge 35, Type (0, 0), None
# Relax obj value: 0.056
# Max RMSD: 0.199
# Mean RMSD: 0.199
data_MOF--net-smc--node1-UKALOJ_clean_sbu_0--edge1-none
_symmetry_space_group_name_H-M    P1
_symmetry_Int_Tables_number       1
_symmetry_cell_setting            triclinic
loop_
_symmetry_equiv_pos_as_xyz
'x, y, z'
_cell_length_a     13.475899
_cell_length_b     13.476178
_cell_length_c     34.302222
_cell_angle_alpha  89.999252
_cell_angle_beta   90.001058
_cell_angle_gamma 120.00115
loop_
_atom_site_label
_atom_site_type_symbol
_atom_site_fract_x
_atom_site_fract_y
_atom_site_fract_z
_atom_type_partial_charge
Zn0 Zn -0.02245 0.48128 0.09392 0.0
O1 O 0.10524 0.65425 0.08604 0.0
C2 C 0.14538 0.42934 0.05286 0.0
Zn3 Zn -0.03069 0.47716 1.02775 0.0
C4 C 0.13633 0.70665 0.05344 0.0
O5 O 0.09283 0.65284 1.02176 0.0
C6 C 0.80147 0.25738 0.06881 0.0
O7 O 0.84162 0.52244 1.03563 0.0
O8 O 0.85402 0.53344 0.0999 0.0
N9 N -0.05877 0.45174 0.96722 0.0
C10 C 0.86506 0.35917 0.94622 0.0
C11 C -0.00708 0.47259 0.90644 0.0
N12 N 0.02013 0.52197 0.94211 0.0
N13 N 0.89575 0.37053 0.90854 0.0
C14 C 0.08179 0.46753 0.17544 0.0
C15 C -0.04608 0.45307 0.21522 0.0
N16 N 0.00562 0.48393 0.15444 0.0
N17 N 0.92672 0.47525 0.17956 0.0
N18 N 0.05109 0.44818 0.21312 0.0
H19 H 0.25202 0.49709 0.18458 0.0
H20 H 0.17037 0.39183 0.14831 0.0
H21 H 0.22845 0.54361 0.13805 0.0
C22 C 0.18962 0.47583 0.1605 0.0
C23 C 0.75723 0.25963 0.96117 0.0
H24 H 0.69483 0.21848 0.93708 0.0
H25 H 0.7765 0.19489 0.97336 0.0
H26 H 0.7184 0.28858 0.98362 0.0
O27 O 0.84569 0.30502 1.03663 0.0
O28 O 0.84463 0.31031 0.10034 0.0
C29 C 0.81053 0.54375 0.06823 0.0
O30 O 0.10116 0.43275 0.08504 0.0
O31 O 0.10223 0.43911 1.02133 0.0
Zn32 Zn 0.48585 0.51025 0.09392 0.0
O33 O 0.31288 0.46496 0.08604 0.0
C34 C 0.53779 0.73003 0.05286 0.0
Zn35 Zn 0.48997 0.50613 1.02775 0.0
C36 C 0.26049 0.44365 0.05344 0.0
O37 O 0.31429 0.45397 1.02176 0.0
C38 C 0.70975 0.55809 0.06881 0.0
O39 O 0.4447 0.33316 1.03563 0.0
O40 O 0.4337 0.33457 0.0999 0.0
N41 N 0.51539 0.50348 0.96722 0.0
C42 C 0.60795 0.51987 0.94622 0.0
C43 C 0.49455 0.53433 0.90644 0.0
N44 N 0.44517 0.51216 0.94211 0.0
N45 N 0.5966 0.53921 0.90854 0.0
C46 C 0.49961 0.62824 0.17544 0.0
C47 C 0.51407 0.51484 0.21522 0.0
N48 N 0.48321 0.53568 0.15445 0.0
N49 N 0.49189 0.46546 0.17956 0.0
N50 N 0.51896 0.6169 0.21312 0.0
H51 H 0.47004 0.76891 0.18458 0.0
H52 H 0.5753 0.79253 0.14831 0.0
H53 H 0.42352 0.69881 0.13805 0.0
C54 C 0.4913 0.72777 0.1605 0.0
C55 C 0.70748 0.51155 0.96117 0.0
H56 H 0.74861 0.49028 0.93708 0.0
H57 H 0.77225 0.59556 0.97335 0.0
H58 H 0.67853 0.44378 0.98362 0.0
O59 O 0.66212 0.55467 1.03662 0.0
O60 O 0.65683 0.54831 0.10034 0.0
C61 C 0.42339 0.28077 0.06823 0.0
O62 O 0.53438 0.68239 0.08504 0.0
O63 O 0.52802 0.6771 1.02133 0.0
Zn64 Zn 0.461 -0.00218 1.02774 0.0
O65 O 0.63397 0.12551 1.03563 0.0
C66 C 0.40906 0.16565 0.06881 0.0
Zn67 Zn 0.45688 -0.01041 0.09392 0.0
C68 C 0.68636 0.15659 0.06823 0.0
O69 O 0.63257 0.11311 0.09991 0.0
C70 C 0.23711 0.82176 0.05286 0.0
O71 O 0.50216 0.8619 0.08604 0.0
O72 O 0.51315 0.8743 1.02176 0.0
N73 N 0.43146 -0.03849 0.15445 0.0
C74 C 0.33889 0.88534 0.17544 0.0
C75 C 0.4523 0.01321 0.21523 0.0
N76 N 0.50168 0.04042 0.17956 0.0
N77 N 0.35024 0.91604 0.21312 0.0
C78 C 0.44726 0.10207 0.94622 0.0
C79 C 0.43282 -0.02578 0.90644 0.0
N80 N 0.46365 0.0259 0.96722 0.0
N81 N 0.45499 0.94701 0.94211 0.0
N82 N 0.42792 0.07138 0.90854 0.0
H83 H 0.47681 0.2723 0.93708 0.0
H84 H 0.37154 0.19064 0.97336 0.0
H85 H 0.52333 0.24873 0.98362 0.0
C86 C 0.45555 0.2099 0.96117 0.0
C87 C 0.23935 0.77751 0.1605 0.0
H88 H 0.19821 0.71511 0.18459 0.0
H89 H 0.1746 0.79676 0.14831 0.0
H90 H 0.26831 0.73868 0.13805 0.0
O91 O 0.28473 0.86597 0.08504 0.0
O92 O 0.29002 0.86491 1.02132 0.0
C93 C 0.52347 0.83082 0.05344 0.0
O94 O 0.41247 0.12144 1.03662 0.0
O95 O 0.41883 0.12251 0.10034 0.0
Zn96 Zn 0.64421 0.81461 0.42725 0.0
O97 O 0.7719 -0.01243 0.41936 0.0
C98 C 0.81205 0.76267 0.38618 0.0
Zn99 Zn 0.63598 0.81049 0.36108 0.0
C100 C 0.80299 0.03997 0.38676 0.0
O101 O 0.75949 -0.01382 0.35508 0.0
C102 C 0.46814 0.59071 0.40215 0.0
O103 O 0.50827 0.85576 0.36897 0.0
O104 O 0.5207 0.86677 0.43324 0.0
N105 N 0.60787 0.78499 0.30055 0.0
C106 C 0.53168 0.69233 0.27959 0.0
C107 C 0.65957 0.80553 0.23977 0.0
N108 N 0.68678 0.85508 0.27541 0.0
N109 N 0.56247 0.70342 0.24193 0.0
C110 C 0.74848 0.80087 0.50877 0.0
C111 C 0.62064 0.78647 0.54856 0.0
N112 N 0.67231 0.81728 0.48778 0.0
N113 N 0.59343 0.80863 0.51289 0.0
N114 N 0.7178 0.78155 0.54645 0.0
H115 H 0.9187 0.8304 0.51791 0.0
H116 H 0.83702 0.72514 0.48163 0.0
H117 H 0.89513 0.87693 0.47137 0.0
C118 C 0.8563 0.80915 0.49382 0.0
C119 C 0.42374 0.59296 0.29456 0.0
H120 H 0.36128 0.55194 0.27048 0.0
H121 H 0.44282 0.52806 0.30672 0.0
H122 H 0.38508 0.62205 0.31702 0.0
O123 O 0.51238 0.63834 0.36997 0.0
O124 O 0.51129 0.64364 0.43368 0.0
C125 C 0.4772 0.87708 0.40157 0.0
O126 O 0.76783 0.76607 0.41837 0.0
O127 O 0.7689 0.77246 0.35465 0.0
Zn128 Zn 0.15664 0.83947 0.36108 0.0
O129 O 0.11138 0.6665 0.36897 0.0
C130 C 0.37642 0.89143 0.40215 0.0
Zn131 Zn 0.15253 0.84359 0.42725 0.0
C132 C 0.09006 0.6141 0.40157 0.0
O133 O 0.10036 0.66791 0.43324 0.0
C134 C 0.20445 0.06337 0.38618 0.0
O135 O -0.02044 0.79831 0.41936 0.0
O136 O -0.01905 0.78729 0.35508 0.0
N137 N 0.14986 0.86902 0.48778 0.0
C138 C 0.16627 -0.03841 0.50877 0.0
C139 C 0.18068 0.84816 0.54856 0.0
N140 N 0.15851 0.79878 0.51289 0.0
N141 N 0.18559 0.95023 0.54646 0.0
C142 C 0.27479 0.85332 0.27959 0.0
C143 C 0.16162 0.86805 0.23977 0.0
N144 N 0.18214 0.83687 0.30055 0.0
N145 N 0.11206 0.8457 0.27541 0.0
N146 N 0.26371 0.87303 0.24193 0.0
H147 H 0.41515 0.82327 0.27048 0.0
H148 H 0.43907 0.92871 0.30672 0.0
H149 H 0.34505 0.777 0.31702 0.0
C150 C 0.37415 0.84473 0.29456 0.0
C151 C 0.15798 0.06113 0.49382 0.0
H152 H 0.13673 0.10228 0.51791 0.0
H153 H 0.24199 0.12587 0.48163 0.0
H154 H 0.0902 0.03218 0.47137 0.0
O155 O 0.20106 0.01574 0.41837 0.0
O156 O 0.19467 0.01043 0.35465 0.0
C157 C 0.92716 0.77699 0.38676 0.0
O158 O 0.3288 0.88804 0.36997 0.0
O159 O 0.3235 0.88164 0.43368 0.0
Zn160 Zn 0.12354 0.32292 0.42726 0.0
O161 O 0.16881 0.19523 0.41936 0.0
C162 C 0.90377 0.15509 0.38618 0.0
Zn163 Zn 0.12765 0.33115 0.36107 0.0
C164 C 0.19013 0.16415 0.38676 0.0
O165 O 0.17983 0.20764 0.35508 0.0
C166 C 0.07571 0.49898 0.40215 0.0
O167 O 0.30063 0.45885 0.36897 0.0
O168 O 0.29922 0.44643 0.43325 0.0
N169 N 0.13026 0.35926 0.30055 0.0
C170 C 0.1138 0.43546 0.27959 0.0
C171 C 0.0991 0.30757 0.23976 0.0
N172 N 0.12144 0.28035 0.27541 0.0
N173 N 0.0941 0.40466 0.24193 0.0
C174 C 0.00554 0.21865 0.50877 0.0
C175 C 0.11897 0.34649 0.54856 0.0
N176 N 0.09811 0.29482 0.48778 0.0
N177 N 0.16835 0.3737 0.51289 0.0
N178 N 0.0169 0.24933 0.54646 0.0
H179 H 0.86484 0.04843 0.51791 0.0
H180 H 0.84125 0.1301 0.48163 0.0
H181 H 0.93494 0.072 0.47138 0.0
C182 C 0.90599 0.11083 0.49382 0.0
C183 C 0.12237 0.54339 0.29455 0.0
H184 H 0.14382 0.60585 0.27048 0.0
H185 H 0.03839 0.52432 0.30672 0.0
H186 H 0.19012 0.58204 0.31702 0.0
O187 O 0.0791 0.45475 0.36997 0.0
O188 O 0.0855 0.45585 0.43369 0.0
C189 C 0.35302 0.48992 0.40157 0.0
O190 O -0.04862 0.1993 0.41837 0.0
O191 O -0.04331 0.19823 0.35465 0.0
Zn192 Zn 0.30264 0.14382 0.69441 0.0
O193 O 0.17494 0.18908 0.70231 0.0
C194 C 0.1348 0.92403 0.73549 0.0
Zn195 Zn 0.31088 0.14793 0.76059 0.0
C196 C 0.14387 0.21041 0.73491 0.0
O197 O 0.18738 0.20012 0.76659 0.0
C198 C 0.47872 0.09599 0.71951 0.0
O199 O 0.43858 0.3209 0.75269 0.0
O200 O 0.42614 0.3195 0.68841 0.0
N201 N 0.33901 0.15055 0.82111 0.0
C202 C 0.4152 0.13408 0.84207 0.0
C203 C 0.28732 0.11942 0.8819 0.0
N204 N 0.26011 0.14176 0.84626 0.0
N205 N 0.38441 0.11439 0.87973 0.0
C206 C 0.19832 0.02565 0.61293 0.0
C207 C 0.32618 0.13887 0.5731 0.0
N208 N 0.27451 0.11831 0.63388 0.0
N209 N 0.3534 0.18842 0.60874 0.0
N210 N 0.2291 0.03675 0.57527 0.0
H211 H 0.02794 0.88523 0.60382 0.0
H212 H 0.10949 0.86138 0.64006 0.0
H213 H 0.05173 0.95535 0.65036 0.0
C214 C 0.0904 0.92627 0.6279 0.0
C215 C 0.52312 0.14264 0.8271 0.0
H216 H 0.58558 0.16407 0.85118 0.0
H217 H 0.50404 0.05866 0.81494 0.0
H218 H 0.56178 0.21038 0.80464 0.0
O219 O 0.43447 0.09936 0.75169 0.0
O220 O 0.43558 0.10579 0.68798 0.0
C221 C 0.46965 0.3733 0.72009 0.0
O222 O 0.17905 -0.02835 0.70331 0.0
O223 O 0.17794 -0.02302 0.76702 0.0
Zn224 Zn 0.82332 0.17281 0.69441 0.0
O225 O 0.77806 -0.00015 0.70231 0.0
C226 C 0.0431 0.22477 0.73549 0.0
Zn227 Zn 0.8192 0.17693 0.76059 0.0
C228 C 0.75673 0.94744 0.73491 0.0
O229 O 0.76702 0.00124 0.76659 0.0
C230 C 0.87113 0.39671 0.71951 0.0
O231 O 0.64623 0.13166 0.75269 0.0
O232 O 0.64763 0.12062 0.68841 0.0
N233 N 0.81659 0.20244 0.82112 0.0
C234 C 0.83305 0.2951 0.84207 0.0
C235 C 0.84773 0.1819 0.8819 0.0
N236 N 0.82538 0.13234 0.84626 0.0
N237 N 0.85274 0.284 0.87973 0.0
C238 C -0.05852 0.18665 0.61293 0.0
C239 C 0.82827 0.20132 0.5731 0.0
N240 N 0.84882 0.17019 0.63388 0.0
N241 N 0.77872 0.17898 0.60874 0.0
N242 N 0.93037 0.20633 0.57527 0.0
H243 H 0.08186 0.15663 0.60382 0.0
H244 H 0.10575 0.26206 0.64006 0.0
H245 H 0.01175 0.11035 0.65036 0.0
C246 C 0.04084 0.17808 0.62789 0.0
C247 C 0.82449 0.39446 0.8271 0.0
H248 H 0.80306 0.43549 0.85118 0.0
H249 H 0.90847 0.45936 0.81494 0.0
H250 H 0.75675 0.36537 0.80464 0.0
O251 O 0.86777 0.34909 0.75169 0.0
O252 O 0.86133 0.34377 0.68798 0.0
C253 C 0.59384 0.11032 0.72009 0.0
O254 O -0.00451 0.22139 0.70331 0.0
O255 O -0.00983 0.21496 0.76702 0.0
Zn256 Zn 0.7902 0.65626 0.76059 0.0
O257 O 0.83546 0.52855 0.75269 0.0
C258 C 0.57042 0.48843 0.71951 0.0
Zn259 Zn 0.79431 0.66449 0.69441 0.0
C260 C 0.8568 0.49749 0.72009 0.0
O261 O 0.8465 0.54099 0.68841 0.0
C262 C 0.74238 0.83232 0.73549 0.0
O263 O -0.03272 0.79219 0.70231 0.0
O264 O -0.03411 0.77975 0.76659 0.0
N265 N 0.79694 0.69262 0.63388 0.0
C266 C 0.78048 0.76881 0.61293 0.0
C267 C 0.76583 0.64095 0.5731 0.0
N268 N 0.78816 0.61373 0.60874 0.0
N269 N 0.7608 0.73803 0.57527 0.0
C270 C 0.67203 0.55193 0.84207 0.0
C271 C 0.78524 0.67981 0.8819 0.0
N272 N 0.7647 0.62813 0.82112 0.0
N273 N 0.8348 0.70702 0.84626 0.0
N274 N 0.68313 0.58272 0.87973 0.0
H275 H 0.53163 0.38155 0.85118 0.0
H276 H 0.50776 0.46309 0.81494 0.0
H277 H 0.60175 0.40535 0.80464 0.0
C278 C 0.57266 0.44401 0.82711 0.0
C279 C 0.78902 0.87673 0.62789 0.0
H280 H 0.81045 0.93919 0.60382 0.0
H281 H 0.70504 0.85764 0.64006 0.0
H282 H 0.85677 0.91539 0.65036 0.0
O283 O 0.74575 0.78808 0.70331 0.0
O284 O 0.75218 0.78919 0.76702 0.0
C285 C 0.01968 0.82325 0.73491 0.0
O286 O 0.61803 0.53266 0.75169 0.0
O287 O 0.62335 0.53155 0.68797 0.0
loop_
_geom_bond_atom_site_label_1
_geom_bond_atom_site_label_2
_geom_bond_distance
_geom_bond_site_symmetry_2
_ccdc_geom_bond_type
Zn0 O1 2.055 . S
Zn0 O8 2.046 1_455 S
Zn0 N16 2.036 . S
Zn0 O28 2.053 1_455 S
Zn0 O30 2.066 . S
O1 Zn0 2.055 . S
O1 C4 1.259 . S
C2 O30 1.256 . S
C2 O31 1.244 1_554 S
Zn3 O5 2.046 . S
Zn3 O7 2.055 1_455 S
Zn3 N9 2.036 . S
Zn3 O27 2.066 1_455 S
Zn3 O31 2.053 . S
C4 O1 1.259 . S
C4 O5 1.254 1_554 S
O5 Zn3 2.046 . S
O5 C4 1.254 1_556 S
C6 O27 1.256 1_554 S
C6 O28 1.244 . S
O7 Zn3 2.055 1_655 S
O7 C29 1.259 1_556 S
O8 Zn0 2.046 1_655 S
O8 C29 1.254 . S
N9 Zn3 2.036 . S
N9 C10 1.298 1_455 S
N9 N12 1.398 . S
C10 N9 1.298 1_655 S
C10 N13 1.367 . S
C10 C23 1.481 . S
C11 N12 1.299 . S
C11 N13 1.379 1_455 S
N12 N9 1.398 . S
N12 C11 1.299 . S
N13 C10 1.367 . S
N13 C11 1.379 1_655 S
C14 N16 1.298 . S
C14 N18 1.367 . S
C14 C22 1.481 . S
C15 N17 1.299 . S
C15 N18 1.379 1_655 S
N16 Zn0 2.036 . S
N16 C14 1.298 . S
N16 N17 1.398 1_455 S
N17 C15 1.299 . S
N17 N16 1.398 1_655 S
N18 C14 1.367 . S
N18 C15 1.379 1_455 S
H19 C22 0.980 . S
H20 C22 0.981 . S
H21 C22 0.981 . S
C22 C14 1.481 . S
C22 H19 0.980 . S
C22 H20 0.981 . S
C22 H21 0.981 . S
C23 C10 1.481 . S
C23 H24 0.980 . S
C23 H25 0.981 . S
C23 H26 0.981 . S
H24 C23 0.980 . S
H25 C23 0.981 . S
H26 C23 0.981 . S
O27 Zn3 2.066 1_655 S
O27 C6 1.256 1_556 S
O28 Zn0 2.053 1_655 S
O28 C6 1.244 . S
C29 O7 1.259 1_554 S
C29 O8 1.254 . S
O30 Zn0 2.066 . S
O30 C2 1.256 . S
O31 C2 1.244 1_556 S
O31 Zn3 2.053 . S
Zn32 O33 2.055 . S
Zn32 O40 2.046 . S
Zn32 N48 2.036 . S
Zn32 O60 2.053 . S
Zn32 O62 2.066 . S
O33 Zn32 2.055 . S
O33 C36 1.259 . S
C34 O62 1.256 . S
C34 O63 1.244 1_554 S
Zn35 O37 2.046 . S
Zn35 O39 2.055 . S
Zn35 N41 2.036 . S
Zn35 O59 2.066 . S
Zn35 O63 2.053 . S
C36 O33 1.259 . S
C36 O37 1.254 1_554 S
O37 Zn35 2.046 . S
O37 C36 1.254 1_556 S
C38 O59 1.256 1_554 S
C38 O60 1.244 . S
O39 Zn35 2.055 . S
O39 C61 1.259 1_556 S
O40 Zn32 2.046 . S
O40 C61 1.254 . S
N41 Zn35 2.036 . S
N41 C42 1.298 . S
N41 N44 1.398 . S
C42 N41 1.298 . S
C42 N45 1.367 . S
C42 C55 1.481 . S
C43 N44 1.299 . S
C43 N45 1.379 . S
N44 N41 1.398 . S
N44 C43 1.299 . S
N45 C42 1.367 . S
N45 C43 1.379 . S
C46 N48 1.298 . S
C46 N50 1.367 . S
C46 C54 1.481 . S
C47 N49 1.299 . S
C47 N50 1.379 . S
N48 Zn32 2.036 . S
N48 C46 1.298 . S
N48 N49 1.398 . S
N49 C47 1.299 . S
N49 N48 1.398 . S
N50 C46 1.367 . S
N50 C47 1.379 . S
H51 C54 0.980 . S
H52 C54 0.981 . S
H53 C54 0.981 . S
C54 C46 1.481 . S
C54 H51 0.980 . S
C54 H52 0.981 . S
C54 H53 0.981 . S
C55 C42 1.481 . S
C55 H56 0.980 . S
C55 H57 0.981 . S
C55 H58 0.981 . S
H56 C55 0.980 . S
H57 C55 0.981 . S
H58 C55 0.981 . S
O59 Zn35 2.066 . S
O59 C38 1.256 1_556 S
O60 Zn32 2.053 . S
O60 C38 1.244 . S
C61 O39 1.259 1_554 S
C61 O40 1.254 . S
O62 Zn32 2.066 . S
O62 C34 1.256 . S
O63 C34 1.244 1_556 S
O63 Zn35 2.053 . S
Zn64 O65 2.055 . S
Zn64 O72 2.046 1_545 S
Zn64 N80 2.036 . S
Zn64 O92 2.053 1_545 S
Zn64 O94 2.066 . S
O65 Zn64 2.055 . S
O65 C68 1.259 1_556 S
C66 O94 1.256 1_554 S
C66 O95 1.244 . S
Zn67 O69 2.046 . S
Zn67 O71 2.055 1_545 S
Zn67 N73 2.036 . S
Zn67 O91 2.066 1_545 S
Zn67 O95 2.053 . S
C68 O65 1.259 1_554 S
C68 O69 1.254 . S
O69 Zn67 2.046 . S
O69 C68 1.254 . S
C70 O91 1.256 . S
C70 O92 1.244 1_554 S
O71 Zn67 2.055 1_565 S
O71 C93 1.259 . S
O72 Zn64 2.046 1_565 S
O72 C93 1.254 1_556 S
N73 Zn67 2.036 . S
N73 C74 1.298 1_545 S
N73 N76 1.398 . S
C74 N73 1.298 1_565 S
C74 N77 1.367 . S
C74 C87 1.481 . S
C75 N76 1.299 . S
C75 N77 1.379 1_545 S
N76 N73 1.398 . S
N76 C75 1.299 . S
N77 C74 1.367 . S
N77 C75 1.379 1_565 S
C78 N80 1.298 . S
C78 N82 1.367 . S
C78 C86 1.481 . S
C79 N81 1.299 . S
C79 N82 1.379 1_565 S
N80 Zn64 2.036 . S
N80 C78 1.298 . S
N80 N81 1.398 1_545 S
N81 C79 1.299 . S
N81 N80 1.398 1_565 S
N82 C78 1.367 . S
N82 C79 1.379 1_545 S
H83 C86 0.980 . S
H84 C86 0.981 . S
H85 C86 0.981 . S
C86 C78 1.481 . S
C86 H83 0.980 . S
C86 H84 0.981 . S
C86 H85 0.981 . S
C87 C74 1.481 . S
C87 H88 0.980 . S
C87 H89 0.981 . S
C87 H90 0.981 . S
H88 C87 0.980 . S
H89 C87 0.981 . S
H90 C87 0.981 . S
O91 Zn67 2.066 1_565 S
O91 C70 1.256 . S
O92 Zn64 2.053 1_565 S
O92 C70 1.244 1_556 S
C93 O71 1.259 . S
C93 O72 1.254 1_554 S
O94 Zn64 2.066 . S
O94 C66 1.256 1_556 S
O95 C66 1.244 . S
O95 Zn67 2.053 . S
Zn96 O97 2.055 1_565 S
Zn96 O104 2.046 . S
Zn96 N112 2.036 . S
Zn96 O124 2.053 . S
Zn96 O126 2.066 . S
O97 Zn96 2.055 1_545 S
O97 C100 1.259 . S
C98 O126 1.256 . S
C98 O127 1.244 . S
Zn99 O101 2.046 1_565 S
Zn99 O103 2.055 . S
Zn99 N105 2.036 . S
Zn99 O123 2.066 . S
Zn99 O127 2.053 . S
C100 O97 1.259 . S
C100 O101 1.254 . S
O101 Zn99 2.046 1_545 S
O101 C100 1.254 . S
C102 O123 1.256 . S
C102 O124 1.244 . S
O103 Zn99 2.055 . S
O103 C125 1.259 . S
O104 Zn96 2.046 . S
O104 C125 1.254 . S
N105 Zn99 2.036 . S
N105 C106 1.298 . S
N105 N108 1.398 . S
C106 N105 1.298 . S
C106 N109 1.367 . S
C106 C119 1.481 . S
C107 N108 1.299 . S
C107 N109 1.379 . S
N108 N105 1.398 . S
N108 C107 1.299 . S
N109 C106 1.367 . S
N109 C107 1.379 . S
C110 N112 1.298 . S
C110 N114 1.367 . S
C110 C118 1.481 . S
C111 N113 1.299 . S
C111 N114 1.379 . S
N112 Zn96 2.036 . S
N112 C110 1.298 . S
N112 N113 1.398 . S
N113 C111 1.299 . S
N113 N112 1.398 . S
N114 C110 1.367 . S
N114 C111 1.379 . S
H115 C118 0.980 1_545 S
H116 C118 0.981 1_545 S
H117 C118 0.981 . S
C118 C110 1.481 . S
C118 H115 0.980 1_565 S
C118 H116 0.981 1_565 S
C118 H117 0.981 . S
C119 C106 1.481 . S
C119 H120 0.980 . S
C119 H121 0.981 . S
C119 H122 0.981 . S
H120 C119 0.980 . S
H121 C119 0.981 . S
H122 C119 0.981 . S
O123 Zn99 2.066 . S
O123 C102 1.256 . S
O124 Zn96 2.053 . S
O124 C102 1.244 . S
C125 O103 1.259 . S
C125 O104 1.254 . S
O126 Zn96 2.066 . S
O126 C98 1.256 . S
O127 C98 1.244 . S
O127 Zn99 2.053 . S
Zn128 O129 2.055 . S
Zn128 O136 2.046 . S
Zn128 N144 2.036 . S
Zn128 O156 2.053 1_565 S
Zn128 O158 2.066 . S
O129 Zn128 2.055 . S
O129 C132 1.259 . S
C130 O158 1.256 . S
C130 O159 1.244 . S
Zn131 O133 2.046 . S
Zn131 O135 2.055 . S
Zn131 N137 2.036 . S
Zn131 O155 2.066 1_565 S
Zn131 O159 2.053 . S
C132 O129 1.259 . S
C132 O133 1.254 . S
O133 Zn131 2.046 . S
O133 C132 1.254 . S
C134 O155 1.256 . S
C134 O156 1.244 . S
O135 Zn131 2.055 . S
O135 C157 1.259 1_455 S
O136 Zn128 2.046 . S
O136 C157 1.254 1_455 S
N137 Zn131 2.036 . S
N137 C138 1.298 . S
N137 N140 1.398 . S
C138 N137 1.298 . S
C138 N141 1.367 . S
C138 C151 1.481 . S
C139 N140 1.299 . S
C139 N141 1.379 . S
N140 N137 1.398 . S
N140 C139 1.299 . S
N141 C138 1.367 . S
N141 C139 1.379 . S
C142 N144 1.298 . S
C142 N146 1.367 . S
C142 C150 1.481 . S
C143 N145 1.299 . S
C143 N146 1.379 . S
N144 Zn128 2.036 . S
N144 C142 1.298 . S
N144 N145 1.398 . S
N145 C143 1.299 . S
N145 N144 1.398 . S
N146 C142 1.367 . S
N146 C143 1.379 . S
H147 C150 0.980 . S
H148 C150 0.981 . S
H149 C150 0.981 . S
C150 C142 1.481 . S
C150 H147 0.980 . S
C150 H148 0.981 . S
C150 H149 0.981 . S
C151 C138 1.481 . S
C151 H152 0.980 . S
C151 H153 0.981 . S
C151 H154 0.981 1_565 S
H152 C151 0.980 . S
H153 C151 0.981 . S
H154 C151 0.981 1_545 S
O155 Zn131 2.066 1_545 S
O155 C134 1.256 . S
O156 Zn128 2.053 1_545 S
O156 C134 1.244 . S
C157 O135 1.259 1_655 S
C157 O136 1.254 1_655 S
O158 Zn128 2.066 . S
O158 C130 1.256 . S
O159 C130 1.244 . S
O159 Zn131 2.053 . S
Zn160 O161 2.055 . S
Zn160 O168 2.046 . S
Zn160 N176 2.036 . S
Zn160 O188 2.053 . S
Zn160 O190 2.066 . S
O161 Zn160 2.055 . S
O161 C164 1.259 . S
C162 O190 1.256 1_655 S
C162 O191 1.244 1_655 S
Zn163 O165 2.046 . S
Zn163 O167 2.055 . S
Zn163 N169 2.036 . S
Zn163 O187 2.066 . S
Zn163 O191 2.053 . S
C164 O161 1.259 . S
C164 O165 1.254 . S
O165 Zn163 2.046 . S
O165 C164 1.254 . S
C166 O187 1.256 . S
C166 O188 1.244 . S
O167 Zn163 2.055 . S
O167 C189 1.259 . S
O168 Zn160 2.046 . S
O168 C189 1.254 . S
N169 Zn163 2.036 . S
N169 C170 1.298 . S
N169 N172 1.398 . S
C170 N169 1.298 . S
C170 N173 1.367 . S
C170 C183 1.481 . S
C171 N172 1.299 . S
C171 N173 1.379 . S
N172 N169 1.398 . S
N172 C171 1.299 . S
N173 C170 1.367 . S
N173 C171 1.379 . S
C174 N176 1.298 . S
C174 N178 1.367 . S
C174 C182 1.481 . S
C175 N177 1.299 . S
C175 N178 1.379 . S
N176 Zn160 2.036 . S
N176 C174 1.298 . S
N176 N177 1.398 . S
N177 C175 1.299 . S
N177 N176 1.398 . S
N178 C174 1.367 . S
N178 C175 1.379 . S
H179 C182 0.980 . S
H180 C182 0.981 . S
H181 C182 0.981 . S
C182 C174 1.481 . S
C182 H179 0.980 . S
C182 H180 0.981 . S
C182 H181 0.981 . S
C183 C170 1.481 . S
C183 H184 0.980 . S
C183 H185 0.981 . S
C183 H186 0.981 . S
H184 C183 0.980 . S
H185 C183 0.981 . S
H186 C183 0.981 . S
O187 Zn163 2.066 . S
O187 C166 1.256 . S
O188 Zn160 2.053 . S
O188 C166 1.244 . S
C189 O167 1.259 . S
C189 O168 1.254 . S
O190 Zn160 2.066 . S
O190 C162 1.256 1_455 S
O191 C162 1.244 1_455 S
O191 Zn163 2.053 . S
Zn192 O193 2.055 . S
Zn192 O200 2.046 . S
Zn192 N208 2.036 . S
Zn192 O220 2.053 . S
Zn192 O222 2.066 . S
O193 Zn192 2.055 . S
O193 C196 1.259 . S
C194 O222 1.256 1_565 S
C194 O223 1.244 1_565 S
Zn195 O197 2.046 . S
Zn195 O199 2.055 . S
Zn195 N201 2.036 . S
Zn195 O219 2.066 . S
Zn195 O223 2.053 . S
C196 O193 1.259 . S
C196 O197 1.254 . S
O197 Zn195 2.046 . S
O197 C196 1.254 . S
C198 O219 1.256 . S
C198 O220 1.244 . S
O199 Zn195 2.055 . S
O199 C221 1.259 . S
O200 Zn192 2.046 . S
O200 C221 1.254 . S
N201 Zn195 2.036 . S
N201 C202 1.298 . S
N201 N204 1.398 . S
C202 N201 1.298 . S
C202 N205 1.367 . S
C202 C215 1.481 . S
C203 N204 1.299 . S
C203 N205 1.379 . S
N204 N201 1.398 . S
N204 C203 1.299 . S
N205 C202 1.367 . S
N205 C203 1.379 . S
C206 N208 1.298 . S
C206 N210 1.367 . S
C206 C214 1.481 . S
C207 N209 1.299 . S
C207 N210 1.379 . S
N208 Zn192 2.036 . S
N208 C206 1.298 . S
N208 N209 1.398 . S
N209 C207 1.299 . S
N209 N208 1.398 . S
N210 C206 1.367 . S
N210 C207 1.379 . S
H211 C214 0.980 . S
H212 C214 0.981 . S
H213 C214 0.981 . S
C214 C206 1.481 . S
C214 H211 0.980 . S
C214 H212 0.981 . S
C214 H213 0.981 . S
C215 C202 1.481 . S
C215 H216 0.980 . S
C215 H217 0.981 . S
C215 H218 0.981 . S
H216 C215 0.980 . S
H217 C215 0.981 . S
H218 C215 0.981 . S
O219 Zn195 2.066 . S
O219 C198 1.256 . S
O220 Zn192 2.053 . S
O220 C198 1.244 . S
C221 O199 1.259 . S
C221 O200 1.254 . S
O222 Zn192 2.066 . S
O222 C194 1.256 1_545 S
O223 C194 1.244 1_545 S
O223 Zn195 2.053 . S
Zn224 O225 2.055 . S
Zn224 O232 2.046 . S
Zn224 N240 2.036 . S
Zn224 O252 2.053 . S
Zn224 O254 2.066 1_655 S
O225 Zn224 2.055 . S
O225 C228 1.259 1_545 S
C226 O254 1.256 . S
C226 O255 1.244 . S
Zn227 O229 2.046 . S
Zn227 O231 2.055 . S
Zn227 N233 2.036 . S
Zn227 O251 2.066 . S
Zn227 O255 2.053 1_655 S
C228 O225 1.259 1_565 S
C228 O229 1.254 1_565 S
O229 Zn227 2.046 . S
O229 C228 1.254 1_545 S
C230 O251 1.256 . S
C230 O252 1.244 . S
O231 Zn227 2.055 . S
O231 C253 1.259 . S
O232 Zn224 2.046 . S
O232 C253 1.254 . S
N233 Zn227 2.036 . S
N233 C234 1.298 . S
N233 N236 1.398 . S
C234 N233 1.298 . S
C234 N237 1.367 . S
C234 C247 1.481 . S
C235 N236 1.299 . S
C235 N237 1.379 . S
N236 N233 1.398 . S
N236 C235 1.299 . S
N237 C234 1.367 . S
N237 C235 1.379 . S
C238 N240 1.298 . S
C238 N242 1.367 . S
C238 C246 1.481 . S
C239 N241 1.299 . S
C239 N242 1.379 . S
N240 Zn224 2.036 . S
N240 C238 1.298 . S
N240 N241 1.398 . S
N241 C239 1.299 . S
N241 N240 1.398 . S
N242 C238 1.367 . S
N242 C239 1.379 . S
H243 C246 0.980 . S
H244 C246 0.981 . S
H245 C246 0.981 1_455 S
C246 C238 1.481 . S
C246 H243 0.980 . S
C246 H244 0.981 . S
C246 H245 0.981 1_655 S
C247 C234 1.481 . S
C247 H248 0.980 . S
C247 H249 0.981 . S
C247 H250 0.981 . S
H248 C247 0.980 . S
H249 C247 0.981 . S
H250 C247 0.981 . S
O251 Zn227 2.066 . S
O251 C230 1.256 . S
O252 Zn224 2.053 . S
O252 C230 1.244 . S
C253 O231 1.259 . S
C253 O232 1.254 . S
O254 Zn224 2.066 1_455 S
O254 C226 1.256 . S
O255 C226 1.244 . S
O255 Zn227 2.053 1_455 S
Zn256 O257 2.055 . S
Zn256 O264 2.046 1_655 S
Zn256 N272 2.036 . S
Zn256 O284 2.053 . S
Zn256 O286 2.066 . S
O257 Zn256 2.055 . S
O257 C260 1.259 . S
C258 O286 1.256 . S
C258 O287 1.244 . S
Zn259 O261 2.046 . S
Zn259 O263 2.055 1_655 S
Zn259 N265 2.036 . S
Zn259 O283 2.066 . S
Zn259 O287 2.053 . S
C260 O257 1.259 . S
C260 O261 1.254 . S
O261 Zn259 2.046 . S
O261 C260 1.254 . S
C262 O283 1.256 . S
C262 O284 1.244 . S
O263 Zn259 2.055 1_455 S
O263 C285 1.259 . S
O264 Zn256 2.046 1_455 S
O264 C285 1.254 . S
N265 Zn259 2.036 . S
N265 C266 1.298 . S
N265 N268 1.398 . S
C266 N265 1.298 . S
C266 N269 1.367 . S
C266 C279 1.481 . S
C267 N268 1.299 . S
C267 N269 1.379 . S
N268 N265 1.398 . S
N268 C267 1.299 . S
N269 C266 1.367 . S
N269 C267 1.379 . S
C270 N272 1.298 . S
C270 N274 1.367 . S
C270 C278 1.481 . S
C271 N273 1.299 . S
C271 N274 1.379 . S
N272 Zn256 2.036 . S
N272 C270 1.298 . S
N272 N273 1.398 . S
N273 C271 1.299 . S
N273 N272 1.398 . S
N274 C270 1.367 . S
N274 C271 1.379 . S
H275 C278 0.980 . S
H276 C278 0.981 . S
H277 C278 0.981 . S
C278 C270 1.481 . S
C278 H275 0.980 . S
C278 H276 0.981 . S
C278 H277 0.981 . S
C279 C266 1.481 . S
C279 H280 0.980 1_655 S
C279 H281 0.981 1_655 S
C279 H282 0.981 . S
H280 C279 0.980 1_455 S
H281 C279 0.981 1_455 S
H282 C279 0.981 . S
O283 Zn259 2.066 . S
O283 C262 1.256 . S
O284 Zn256 2.053 . S
O284 C262 1.244 . S
C285 O263 1.259 . S
C285 O264 1.254 . S
O286 Zn256 2.066 . S
O286 C258 1.256 . S
O287 C258 1.244 . S
O287 Zn259 2.053 . S
C36 C2 1.260 . S
C93 C34 1.260 . S
C70 C4 1.260 . S
C66 C61 1.260 . S
C68 C6 1.260 . S
C29 C38 1.260 . S
C98 C157 1.261 . S
C164 C134 1.260 . S
C162 C100 1.260 . S
C132 C166 1.260 . S
C189 C102 1.260 . S
C130 C125 1.260 . S
C253 C198 1.260 . S
C230 C260 1.260 . S
C258 C221 1.260 . S
C262 C228 1.260 . S
C285 C194 1.260 . S
C196 C226 1.260 . S
N173 N18 2.165 . S
N109 N50 2.165 . S
N77 N146 2.166 . S
N82 N205 2.165 . S
N13 N237 2.166 . S
N274 N45 2.165 . S
N114 N269 2.165 . S
N141 N210 2.166 1_565 S
N242 N178 2.166 1_655 S
