# Generated by pormake.
# Topology smm, (6)-cn, num edge types: 1
# Building blocks:
#     Node 0, Type 0, BuildingBlock: BETDEL_clean_sbu_0, # of connection points: 6
#     Node 1, Type 0, BuildingBlock: BETDEL_clean_sbu_0, # of connection points: 6
#     Node 2, Type 0, BuildingBlock: BETDEL_clean_sbu_0, # of connection points: 6
#     Node 3, Type 0, BuildingBlock: BETDEL_clean_sbu_0, # of connection points: 6
#     Node 4, Type 0, BuildingBlock: BETDEL_clean_sbu_0, # of connection points: 6
#     Node 5, Type 0, BuildingBlock: BETDEL_clean_sbu_0, # of connection points: 6
#     Node 6, Type 0, BuildingBlock: BETDEL_clean_sbu_0, # of connection points: 6
#     Node 7, Type 0, BuildingBlock: BETDEL_clean_sbu_0, # of connection points: 6
#     Node 8, Type 0, BuildingBlock: BETDEL_clean_sbu_0, # of connection points: 6
#     Edge 9, Type (0, 0), BuildingBlock: EZIPEK_clean_linker_0, # of connection points: 2
#     Edge 10, Type (0, 0), BuildingBlock: EZIPEK_clean_linker_0, # of connection points: 2
#     Edge 11, Type (0, 0), BuildingBlock: EZIPEK_clean_linker_0, # of connection points: 2
#     Edge 12, Type (0, 0), BuildingBlock: EZIPEK_clean_linker_0, # of connection points: 2
#     Edge 13, Type (0, 0), BuildingBlock: EZIPEK_clean_linker_0, # of connection points: 2
#     Edge 14, Type (0, 0), BuildingBlock: EZIPEK_clean_linker_0, # of connection points: 2
#     Edge 15, Type (0, 0), BuildingBlock: EZIPEK_clean_linker_0, # of connection points: 2
#     Edge 16, Type (0, 0), BuildingBlock: EZIPEK_clean_linker_0, # of connection points: 2
#     Edge 17, Type (0, 0), BuildingBlock: EZIPEK_clean_linker_0, # of connection points: 2
#     Edge 18, Type (0, 0), BuildingBlock: EZIPEK_clean_linker_0, # of connection points: 2
#     Edge 19, Type (0, 0), BuildingBlock: EZIPEK_clean_linker_0, # of connection points: 2
#     Edge 20, Type (0, 0), BuildingBlock: EZIPEK_clean_linker_0, # of connection points: 2
#     Edge 21, Type (0, 0), BuildingBlock: EZIPEK_clean_linker_0, # of connection points: 2
#     Edge 22, Type (0, 0), BuildingBlock: EZIPEK_clean_linker_0, # of connection points: 2
#     Edge 23, Type (0, 0), BuildingBlock: EZIPEK_clean_linker_0, # of connection points: 2
#     Edge 24, Type (0, 0), BuildingBlock: EZIPEK_clean_linker_0, # of connection points: 2
#     Edge 25, Type (0, 0), BuildingBlock: EZIPEK_clean_linker_0, # of connection points: 2
#     Edge 26, Type (0, 0), BuildingBlock: EZIPEK_clean_linker_0, # of connection points: 2
#     Edge 27, Type (0, 0), BuildingBlock: EZIPEK_clean_linker_0, # of connection points: 2
#     Edge 28, Type (0, 0), BuildingBlock: EZIPEK_clean_linker_0, # of connection points: 2
#     Edge 29, Type (0, 0), BuildingBlock: EZIPEK_clean_linker_0, # of connection points: 2
#     Edge 30, Type (0, 0), BuildingBlock: EZIPEK_clean_linker_0, # of connection points: 2
#     Edge 31, Type (0, 0), BuildingBlock: EZIPEK_clean_linker_0, # of connection points: 2
#     Edge 32, Type (0, 0), BuildingBlock: EZIPEK_clean_linker_0, # of connection points: 2
#     Edge 33, Type (0, 0), BuildingBlock: EZIPEK_clean_linker_0, # of connection points: 2
#     Edge 34, Type (0, 0), BuildingBlock: EZIPEK_clean_linker_0, # of connection points: 2
#     Edge 35, Type (0, 0), BuildingBlock: EZIPEK_clean_linker_0, # of connection points: 2
# Relax obj value: 0.060
# Max RMSD: 0.134
# Mean RMSD: 0.134
data_MOF--net-smm--node1-BETDEL_clean_sbu_0--edge1-EZIPEK_clean_linker_0
_symmetry_space_group_name_H-M    P1
_symmetry_Int_Tables_number       1
_symmetry_cell_setting            triclinic
loop_
_symmetry_equiv_pos_as_xyz
'x, y, z'
_cell_length_a     42.787881
_cell_length_b     42.89351
_cell_length_c     10.373009
_cell_angle_alpha  90.07355
_cell_angle_beta   90.107282
_cell_angle_gamma 119.63808
loop_
_atom_site_label
_atom_site_type_symbol
_atom_site_fract_x
_atom_site_fract_y
_atom_site_fract_z
_atom_type_partial_charge
Dy0 Dy 0.05726 0.2264 0.96857 0.0
C1 C 0.95338 0.07669 0.0341 0.0
C2 C 0.099 0.29501 0.88113 0.0
Dy3 Dy 0.99825 0.14862 -0.00534 0.0
O4 O 0.08823 0.28608 -0.001 0.0
O5 O 0.08712 0.26638 0.81012 0.0
O6 O 0.07717 0.2286 0.1681 0.0
O7 O 1.02218 0.19453 0.12723 0.0
C8 C 0.04652 0.20367 0.21243 0.0
C9 C 1.01175 0.17378 0.75306 0.0
O10 O 0.96776 0.1762 0.05398 0.0
O11 O 1.0059 0.22907 0.95193 0.0
O12 O 0.94864 0.09614 0.94949 0.0
O13 O 0.98228 0.09682 0.10092 0.0
O14 O 0.98008 0.15053 0.79328 0.0
O15 O 0.03462 0.18034 0.84042 0.0
O16 O 0.09278 0.20172 0.96582 0.0
O17 O 0.04779 0.14324 0.00836 0.0
C18 C 0.97411 0.20728 0.00441 0.0
C19 C 0.08207 0.16756 -0.00887 0.0
Dy20 Dy 0.8256 0.83994 -0.01617 0.0
C21 C 0.97651 0.88262 0.00807 0.0
C22 C 0.75707 0.8116 0.88815 0.0
Dy23 Dy 0.90378 0.856 -0.00816 0.0
O24 O 0.76923 0.83166 -0.00915 0.0
O25 O 0.78233 0.80705 0.83818 0.0
O26 O 0.82872 0.86038 0.18359 0.0
O27 O 0.86046 0.83763 0.13228 0.0
C28 C 0.85515 0.85526 0.21856 0.0
C29 C 0.87169 0.84174 0.75925 0.0
O30 O 0.87863 0.79783 0.04112 0.0
O31 O 0.81968 0.78459 0.00992 0.0
O32 O 0.9565 0.86651 0.90915 0.0
O33 O 0.95671 0.88373 0.10094 0.0
O34 O 0.89494 0.8324 0.79439 0.0
O35 O 0.86918 0.8605 0.84705 0.0
O36 O 0.85323 0.89956 0.95302 0.0
O37 O 0.90967 0.91071 0.02035 0.0
C38 C 0.84385 0.77428 0.03515 0.0
C39 C 0.88671 0.92197 -0.00964 0.0
Dy40 Dy 0.21529 0.99334 0.96322 0.0
C41 C 0.17208 0.10187 0.01621 0.0
C42 C 0.23464 0.94685 0.85796 0.0
Dy43 Dy 0.19335 0.05167 -0.01614 0.0
O44 O 0.22252 0.94466 0.97457 0.0
O45 O 0.23618 0.97436 0.80024 0.0
O46 O 0.23443 1.00243 0.16766 0.0
O47 O 0.19194 1.01113 0.11384 0.0
C48 C 0.21289 1.01407 0.2044 0.0
C49 C 0.19239 0.02674 0.74594 0.0
O50 O 0.25191 0.08261 0.04537 0.0
O51 O 0.2697 0.04204 0.97634 0.0
O52 O 0.20015 0.10682 0.95147 0.0
O53 O 0.15747 0.07059 0.07069 0.0
O54 O 0.17152 0.03875 0.783 0.0
O55 O 0.2153 0.03273 0.83242 0.0
O56 O 0.1547 0.95923 0.95132 0.0
O57 O 0.13995 1.00267 0.0127 0.0
C58 C 0.27709 0.0736 0.02415 0.0
C59 C 0.13083 0.96924 -0.01771 0.0
Dy60 Dy 0.72559 0.56189 0.33037 0.0
C61 C 0.62212 0.40966 0.35845 0.0
C62 C 0.76948 0.62793 0.22449 0.0
Dy63 Dy 0.67084 0.48146 0.34501 0.0
O64 O 0.76969 0.61987 0.34546 0.0
O65 O 0.74633 0.59966 0.16212 0.0
O66 O 0.71451 0.5706 0.53322 0.0
O67 O 0.70954 0.52093 0.47974 0.0
C68 C 0.7047 0.53796 0.56956 0.0
C69 C 0.69769 0.50798 0.11213 0.0
O70 O 0.6354 0.50509 0.39361 0.0
O71 O 0.6746 0.56446 0.33671 0.0
O72 O 0.62796 0.42975 0.25817 0.0
O73 O 0.64156 0.42931 0.45415 0.0
O74 O 0.69036 0.47645 0.15064 0.0
O75 O 0.68806 0.52262 0.19629 0.0
O76 O 0.76208 0.5371 0.32201 0.0
O77 O 0.72064 0.47901 0.38681 0.0
C78 C 0.64283 0.53878 0.3768 0.0
C79 C 0.75371 0.50385 0.35605 0.0
Dy80 Dy 0.4933 0.17265 0.29374 0.0
C81 C 0.64204 0.21412 0.35521 0.0
C82 C 0.42575 0.14816 0.19404 0.0
Dy83 Dy 0.56988 0.18665 0.31222 0.0
O84 O 0.43764 0.16578 0.30152 0.0
O85 O 0.45096 0.14423 0.14018 0.0
O86 O 0.49245 0.19231 0.49016 0.0
O87 O 0.52528 0.16931 0.45173 0.0
C88 C 0.51752 0.18641 0.53426 0.0
C89 C 0.54169 0.17545 0.07481 0.0
O90 O 0.5444 0.12863 0.35864 0.0
O91 O 0.48577 0.11639 0.32011 0.0
O92 O 0.62621 0.20552 0.24384 0.0
O93 O 0.61809 0.20622 0.44496 0.0
O94 O 0.56254 0.16328 0.11291 0.0
O95 O 0.53808 0.1936 0.16261 0.0
O96 O 0.52184 0.2329 0.28209 0.0
O97 O 0.57869 0.24213 0.33004 0.0
C98 C 0.50944 0.10589 0.35158 0.0
C99 C 0.55619 0.25447 0.31236 0.0
Dy100 Dy 0.87971 0.32346 0.32192 0.0
C101 C 0.83964 0.43433 0.38165 0.0
C102 C 0.90229 0.28002 0.212 0.0
Dy103 Dy 0.86347 0.38634 0.34186 0.0
O104 O 0.90265 0.28605 0.33522 0.0
O105 O 0.88909 0.2972 0.14994 0.0
O106 O 0.86123 0.30608 0.52405 0.0
O107 O 0.8826 0.3601 0.47303 0.0
C108 C 0.86587 0.3373 0.55992 0.0
C109 C 0.873 0.36922 0.10261 0.0
O110 O 0.922 0.41497 0.39727 0.0
O111 O 0.93544 0.3718 0.32277 0.0
O112 O 0.86413 0.43807 0.29991 0.0
O113 O 0.82888 0.40473 0.44594 0.0
O114 O 0.88143 0.40133 0.13856 0.0
O115 O 0.8576 0.34779 0.19381 0.0
O116 O 0.81982 0.29046 0.32554 0.0
O117 O 0.80812 0.33764 0.35754 0.0
C118 C 0.94545 0.40422 0.36971 0.0
C119 C 0.79726 0.30278 0.34661 0.0
Dy120 Dy 0.39837 0.89394 0.64731 0.0
C121 C 0.28825 0.74737 0.71652 0.0
C122 C 0.44198 0.96046 0.547 0.0
Dy123 Dy 0.33531 0.81845 0.67575 0.0
O124 O 0.42982 0.95409 0.66418 0.0
O125 O 0.43142 0.93042 0.48587 0.0
O126 O 0.41793 0.89559 0.84789 0.0
O127 O 0.36256 0.86422 0.80758 0.0
C128 C 0.38671 0.87171 0.89222 0.0
C129 C 0.35103 0.84268 0.43328 0.0
O130 O 0.30961 0.85046 0.73987 0.0
O131 O 0.34883 0.89955 0.62052 0.0
O132 O 0.28358 0.76764 0.63511 0.0
O133 O 0.31775 0.76644 0.78144 0.0
O134 O 0.31858 0.82166 0.47287 0.0
O135 O 0.37303 0.84763 0.52194 0.0
O136 O 0.43053 0.86568 0.6522 0.0
O137 O 0.38212 0.80877 0.69014 0.0
C138 C 0.31887 0.88218 0.68855 0.0
C139 C 0.41711 0.83103 0.67724 0.0
Dy140 Dy 0.15749 0.51206 0.67287 0.0
C141 C 0.30466 0.54538 0.73 0.0
C142 C 0.08985 0.48749 0.57568 0.0
Dy143 Dy 0.23315 0.52356 0.69572 0.0
O144 O 0.0978 0.48916 0.69747 0.0
O145 O 0.11898 0.50035 0.50761 0.0
O146 O 0.1601 0.53446 0.86926 0.0
O147 O 0.18862 0.50693 0.83221 0.0
C148 C 0.18287 0.52535 0.9145 0.0
C149 C 0.2056 0.51143 0.45583 0.0
O150 O 0.20244 0.46669 0.76513 0.0
O151 O 0.1495 0.45592 0.66648 0.0
O152 O 0.28272 0.51944 0.6554 0.0
O153 O 0.28719 0.55849 0.79041 0.0
O154 O 0.22766 0.50111 0.49562 0.0
O155 O 0.20231 0.53026 0.54156 0.0
O156 O 0.18569 0.57164 0.65588 0.0
O157 O 0.24245 0.58021 0.70813 0.0
C158 C 0.16939 0.44417 0.72401 0.0
C159 C 0.22003 0.59265 0.68568 0.0
Dy160 Dy 0.54347 0.64966 0.66745 0.0
C161 C 0.50351 0.76085 0.7099 0.0
C162 C 0.55738 0.60016 0.54912 0.0
Dy163 Dy 0.52387 0.70967 0.68653 0.0
O164 O 0.54524 0.59786 0.66601 0.0
O165 O 0.56294 0.63033 0.50067 0.0
O166 O 0.56153 0.65699 0.87285 0.0
O167 O 0.52086 0.66843 0.8172 0.0
C168 C 0.54121 0.67024 0.90859 0.0
C169 C 0.52074 0.68184 0.45175 0.0
O170 O 0.58368 0.7409 0.73222 0.0
O171 O 0.59901 0.69677 0.68703 0.0
O172 O 0.51542 0.75365 0.60568 0.0
O173 O 0.50502 0.74165 0.80387 0.0
O174 O 0.49893 0.69253 0.49083 0.0
O175 O 0.54459 0.68919 0.53596 0.0
O176 O 0.48234 0.61791 0.65662 0.0
O177 O 0.47007 0.66229 0.72749 0.0
C178 C 0.60771 0.72983 0.72209 0.0
C179 C 0.45943 0.62874 0.69336 0.0
C180 C 0.15021 0.34763 0.76805 0.0
C181 C 0.1166 0.3324 0.83252 0.0
C182 C 0.11944 0.39078 0.83414 0.0
C183 C 0.1517 0.40566 0.76113 0.0
N184 N 0.1947 0.39691 0.63946 0.0
N185 N 0.06496 0.33728 0.89633 0.0
C186 C 0.16629 0.38371 0.7227 0.0
C187 C 0.09998 0.35334 0.85661 0.0
N188 N 0.16735 0.32811 0.7543 0.0
N189 N 0.10813 0.41259 0.88783 0.0
H190 H 0.04929 0.30971 0.91061 0.0
H191 H 0.0503 0.35071 0.90151 0.0
H192 H 0.12199 0.44031 0.877 0.0
H193 H 0.08712 0.40363 0.9538 0.0
H194 H 0.19362 0.33892 0.72099 0.0
H195 H 0.15626 0.30162 0.78534 0.0
H196 H 0.2042 0.38118 0.59722 0.0
H197 H 0.20691 0.42305 0.6039 0.0
C198 C 0.70961 0.79422 0.71402 0.0
C199 C 0.71881 0.79247 0.84479 0.0
C200 C 0.65491 0.75549 0.89654 0.0
C201 C 0.64571 0.75408 0.76405 0.0
N202 N 0.6646 0.76895 0.5436 0.0
N203 N 0.70042 0.7644 0.05347 0.0
C204 C 0.67321 0.77256 0.67174 0.0
C205 C 0.69152 0.77142 0.93441 0.0
N206 N 0.73539 0.81753 0.63137 0.0
N207 N 0.62856 0.74158 -0.01276 0.0
H208 H 0.72683 0.77391 0.08395 0.0
H209 H 0.68167 0.74588 0.11722 0.0
H210 H 0.60167 0.72886 0.96231 0.0
H211 H 0.63335 0.74556 0.08605 0.0
H212 H 0.7299 0.82276 0.53857 0.0
H213 H 0.76202 0.83407 0.65938 0.0
H214 H 0.68367 0.77821 0.47032 0.0
H215 H 0.63813 0.75467 0.51021 0.0
C216 C 0.23886 0.89777 0.73947 0.0
C217 C 0.2554 0.92964 0.81406 0.0
C218 C 0.31435 0.93437 0.78274 0.0
C219 C 0.29749 0.90012 0.7207 0.0
N220 N 0.24361 0.84914 0.63837 0.0
N221 N 0.30766 0.97578 0.92318 0.0
C222 C 0.25963 0.88175 0.69897 0.0
C223 C 0.29277 0.94725 0.83978 0.0
N224 N 0.20356 0.88345 0.7046 0.0
N225 N 0.35098 0.95518 0.78695 0.0
H226 H 0.29317 0.98679 0.96528 0.0
H227 H 0.33366 0.98665 0.95989 0.0
H228 H 0.36884 0.94679 0.75825 0.0
H229 H 0.36406 0.98222 0.81248 0.0
H230 H 0.19058 0.8625 0.63899 0.0
H231 H 0.18758 0.8941 0.73577 0.0
H232 H 0.21591 0.8322 0.63384 0.0
H233 H 0.25814 0.83834 0.59514 0.0
C234 C 0.37944 0.13367 0.01774 0.0
C235 C 0.38776 0.13111 0.14883 0.0
C236 C 0.32352 0.09955 0.19987 0.0
C237 C 0.3149 0.09781 0.06692 0.0
N238 N 0.33469 0.11057 0.84642 0.0
N239 N 0.36686 0.1032 0.35694 0.0
C240 C 0.34293 0.11408 0.97484 0.0
C241 C 0.3596 0.11198 0.23813 0.0
N242 N 0.40613 0.15581 0.93542 0.0
N243 N 0.29724 0.08919 0.29044 0.0
H244 H 0.39253 0.10926 0.38662 0.0
H245 H 0.34688 0.08605 0.42034 0.0
H246 H 0.27072 0.08039 0.26578 0.0
H247 H 0.30239 0.09318 0.38909 0.0
H248 H 0.40132 0.16146 0.84227 0.0
H249 H 0.43293 0.17118 0.9638 0.0
H250 H 0.35387 0.118 0.77396 0.0
H251 H 0.30827 0.09835 0.81233 0.0
C252 C 0.9048 0.22285 0.18032 0.0
C253 C 0.91771 0.25945 0.14897 0.0
C254 C 0.95693 0.2559 -0.01587 0.0
C255 C 0.94862 0.22148 0.02998 0.0
N256 N 0.90083 0.16652 0.11756 0.0
N257 N 0.95963 0.31234 0.0312 0.0
C258 C 0.91861 0.20314 0.11345 0.0
C259 C 0.9444 0.27627 0.05246 0.0
N260 N 0.87945 0.20689 0.27436 0.0
N261 N 0.97419 0.26793 0.86906 0.0
H262 H 0.95247 0.32884 0.082 0.0
H263 H 0.98202 0.32659 0.97255 0.0
H264 H 0.97962 0.25181 0.80856 0.0
H265 H 0.9782 0.29145 0.82508 0.0
H266 H 0.87255 0.18202 0.31396 0.0
H267 H 0.86666 0.21937 0.31859 0.0
H268 H 0.87739 0.15123 0.16984 0.0
H269 H 0.90611 0.15118 0.05247 0.0
C270 C 0.79657 0.70976 0.01098 0.0
C271 C 0.83001 0.73523 0.06592 0.0
C272 C 0.82752 0.68642 0.19986 0.0
C273 C 0.79082 0.66433 0.16663 0.0
N274 N 0.73857 0.65851 0.05343 0.0
N275 N 0.87837 0.7459 0.21642 0.0
C276 C 0.77484 0.67677 0.07491 0.0
C277 C 0.84604 0.7231 0.16065 0.0
N278 N 0.78591 0.71659 0.89526 0.0
N279 N 0.84546 0.672 0.26307 0.0
H280 H 0.89676 0.77081 0.18054 0.0
H281 H 0.88708 0.73968 0.30154 0.0
H282 H 0.83344 0.645 0.28825 0.0
H283 H 0.87321 0.68578 0.27739 0.0
H284 H 0.76296 0.69763 0.84663 0.0
H285 H 0.80247 0.73925 0.84058 0.0
H286 H 0.72568 0.6686 -0.00445 0.0
H287 H 0.72081 0.6357 0.10466 0.0
C288 C 0.0405 0.48201 0.42754 0.0
C289 C 0.05304 0.46661 0.52128 0.0
C290 C 0.99435 0.41185 0.52132 0.0
C291 C 0.98272 0.42581 0.41937 0.0
N292 N 0.99595 0.47207 0.26286 0.0
N293 N 0.04489 0.41333 0.63064 0.0
C294 C 1.00615 0.46037 0.36885 0.0
C295 C 0.03081 0.43057 0.56096 0.0
N296 N 0.06083 0.51758 0.39799 0.0
N297 N 0.97035 0.38133 0.5843 0.0
H298 H 0.07193 0.42519 0.65649 0.0
H299 H 0.03067 0.38594 0.65025 0.0
H300 H 0.94325 0.36657 0.55978 0.0
H301 H 0.97663 0.37259 0.6691 0.0
H302 H 0.0517 0.53131 0.34045 0.0
H303 H 0.08593 0.53421 0.43957 0.0
H304 H 1.01317 0.49535 0.21285 0.0
H305 H 0.97093 0.45694 0.21853 0.0
C306 C 0.57347 0.55122 0.56753 0.0
C307 C 0.56959 0.57603 0.48903 0.0
C308 C 0.60419 0.56604 0.31934 0.0
C309 C 0.61527 0.54903 0.41141 0.0
N310 N 0.61452 0.53127 0.63277 0.0
N311 N 0.5752 0.60125 0.27632 0.0
C312 C 0.60065 0.54272 0.53769 0.0
C313 C 0.58305 0.58162 0.36024 0.0
N314 N 0.55076 0.53493 0.66841 0.0
N315 N 0.61285 0.56617 0.1924 0.0
H316 H 0.55462 0.60694 0.29316 0.0
H317 H 0.58857 0.61131 0.18947 0.0
H318 H 0.62753 0.55426 0.15963 0.0
H319 H 0.60303 0.5752 0.11798 0.0
H320 H 0.55152 0.515 0.72351 0.0
H321 H 0.52785 0.53713 0.68347 0.0
H322 H 0.6068 0.52927 0.72905 0.0
H323 H 0.63695 0.52848 0.61784 0.0
C324 C 0.47012 0.03932 0.31799 0.0
C325 C 0.49567 0.06808 0.3948 0.0
C326 C 0.49186 0.0243 0.55593 0.0
C327 C 0.46194 0.99678 0.48943 0.0
N328 N 0.41862 0.97964 0.31558 0.0
N329 N 0.52786 0.08777 0.59839 0.0
C330 C 0.45003 1.00458 0.37229 0.0
C331 C 0.50605 0.06057 0.51655 0.0
N332 N 0.46617 0.04481 0.19106 0.0
N333 N 0.50739 0.01575 0.65488 0.0
H334 H 0.53841 0.11483 0.57744 0.0
H335 H 0.53249 0.08347 0.69363 0.0
H336 H 0.49824 0.98941 0.68458 0.0
H337 H 0.53154 0.03426 0.69811 0.0
H338 H 0.45015 0.0242 0.12731 0.0
H339 H 0.48282 0.06919 0.14672 0.0
H340 H 0.40711 0.98551 0.23735 0.0
H341 H 0.40208 0.95422 0.35366 0.0
C342 C 0.14996 0.13864 0.89349 0.0
C343 C 0.15475 0.12468 0.01195 0.0
C344 C 0.11163 0.13855 0.11565 0.0
C345 C 0.10908 0.15527 0.0007 0.0
N346 N 0.13187 0.17741 0.78707 0.0
N347 N 0.148 0.12126 0.24279 0.0
C348 C 0.13063 0.15781 0.89265 0.0
C349 C 0.13803 0.12778 0.12514 0.0
N350 N 0.16086 0.13108 0.77951 0.0
N351 N 0.08833 0.13189 0.21531 0.0
H352 H 0.16831 0.11473 0.25358 0.0
H353 H 0.1392 0.12642 0.32968 0.0
H354 H 0.06892 0.13976 0.21576 0.0
H355 H 0.08649 0.11602 0.29412 0.0
H356 H 0.15402 0.13692 0.68984 0.0
H357 H 0.1734 0.1157 0.77189 0.0
H358 H 0.15036 0.1835 0.7128 0.0
H359 H 0.11648 0.18993 0.77727 0.0
C360 C 0.88382 0.97713 0.06436 0.0
C361 C 0.90076 0.96152 -0.00874 0.0
C362 C 0.95283 0.02128 0.95476 0.0
C363 C 0.93559 0.037 0.0246 0.0
N364 N 0.88237 0.03119 0.12541 0.0
N365 N 0.94584 0.96963 0.83536 0.0
C366 C 0.90029 1.01529 0.07278 0.0
C367 C 0.93375 0.9839 0.92765 0.0
N368 N 0.85284 0.95572 0.1301 0.0
N369 N 0.98752 0.04201 0.91397 0.0
H370 H 0.93147 0.94275 0.80741 0.0
H371 H 0.96782 0.98501 0.77635 0.0
H372 H 1.00201 0.06978 0.92524 0.0
H373 H 1.00288 0.03136 0.87703 0.0
H374 H 0.84179 0.96537 0.19793 0.0
H375 H 0.83914 0.92788 0.12362 0.0
H376 H 0.85516 0.01731 0.1487 0.0
H377 H 0.89418 0.05889 0.13793 0.0
C378 C 0.03775 0.89729 0.09192 0.0
C379 C 1.0163 0.9036 0.00263 0.0
C380 C 0.07035 0.94567 0.88449 0.0
C381 C 0.09197 0.94277 -0.01827 0.0
N382 N 0.09712 0.91853 0.1849 0.0
N383 N 1.01278 0.93982 0.83082 0.0
C384 C 0.07594 0.91915 0.08729 0.0
C385 C 0.03273 0.92932 0.90302 0.0
N386 N 1.02169 0.86989 0.17854 0.0
N387 N 0.08579 0.96365 0.77311 0.0
H388 H 0.98537 0.92994 0.84507 0.0
H389 H 1.02411 0.96122 0.7665 0.0
H390 H 0.11324 0.975 0.75513 0.0
H391 H 0.07099 0.96385 0.69356 0.0
H392 H 0.03591 0.86154 0.23723 0.0
H393 H 0.99385 0.85365 0.18493 0.0
H394 H 0.08696 0.90499 0.27138 0.0
H395 H 0.12513 0.9334 0.18233 0.0
C396 C 0.78763 0.47798 0.24688 0.0
C397 C 0.78151 0.49273 0.35984 0.0
C398 C 0.81752 0.47312 0.48576 0.0
C399 C 0.8202 0.45503 0.37528 0.0
N400 N 0.80175 0.43443 0.15656 0.0
N401 N 0.7881 0.50268 0.58915 0.0
C402 C 0.80401 0.45623 0.25688 0.0
C403 C 0.79593 0.49 0.48005 0.0
N404 N 0.77726 0.48432 0.12972 0.0
N405 N 0.83623 0.47481 0.59495 0.0
H406 H 0.77399 0.51674 0.58701 0.0
H407 H 0.794 0.49786 0.68192 0.0
H408 H 0.85196 0.4625 0.60222 0.0
H409 H 0.83834 0.49047 0.67481 0.0
H410 H 0.78462 0.47789 0.04224 0.0
H411 H 0.76388 0.49888 0.11954 0.0
H412 H 0.7868 0.43118 0.07328 0.0
H413 H 0.81155 0.41653 0.16093 0.0
C414 C 0.6191 0.35119 0.41379 0.0
C415 C 0.60345 0.36982 0.35345 0.0
C416 C 0.55906 0.31344 0.25116 0.0
C417 C 0.57105 0.29403 0.3289 0.0
N418 N 0.60748 0.29625 0.51388 0.0
N419 N 0.55331 0.3667 0.23507 0.0
C420 C 0.59934 0.31336 0.41973 0.0
C421 C 0.5717 0.35032 0.27878 0.0
N422 N 0.65384 0.36891 0.45735 0.0
N423 N 0.53789 0.29791 0.14538 0.0
H424 H 0.56106 0.39331 0.25673 0.0
H425 H 0.52836 0.35269 0.18955 0.0
H426 H 0.53101 0.27236 0.11249 0.0
H427 H 0.53117 0.31222 0.08055 0.0
H428 H 0.66697 0.3555 0.49107 0.0
H429 H 0.67121 0.3962 0.44354 0.0
H430 H 0.62555 0.31011 0.58826 0.0
H431 H 0.5938 0.26868 0.52771 0.0
C432 C 0.69973 0.26459 0.44965 0.0
C433 C 0.68184 0.2333 0.37177 0.0
C434 C 0.73967 0.24657 0.27729 0.0
C435 C 0.75792 0.2768 0.36074 0.0
N436 N 0.75512 0.30626 0.55622 0.0
N437 N 0.68633 0.18891 0.24296 0.0
C438 C 0.7379 0.28319 0.45636 0.0
C439 C 0.70236 0.22252 0.29579 0.0
N440 N 0.68086 0.27817 0.51128 0.0
N441 N 0.75694 0.24156 0.17546 0.0
H442 H 0.65934 0.17013 0.25834 0.0
H443 H 0.70071 0.17837 0.19694 0.0
H444 H 0.78385 0.25847 0.15377 0.0
H445 H 0.74348 0.22233 0.10416 0.0
H446 H 0.69324 0.30319 0.55636 0.0
H447 H 0.65303 0.26644 0.50731 0.0
H448 H 0.74149 0.30904 0.63466 0.0
H449 H 0.78291 0.31941 0.56882 0.0
C450 C 0.49537 0.81221 0.63418 0.0
C451 C 0.4836 0.78117 0.71186 0.0
C452 C 0.43346 0.78859 0.78692 0.0
C453 C 0.44156 0.81567 0.69276 0.0
N454 N 0.47648 0.8466 0.50407 0.0
N455 N 0.43416 0.73399 0.83188 0.0
C456 C 0.47165 0.82593 0.61034 0.0
C457 C 0.45077 0.76776 0.7807 0.0
N458 N 0.5293 0.82896 0.58421 0.0
N459 N 0.40957 0.78266 0.88384 0.0
H460 H 0.44323 0.71574 0.81939 0.0
H461 H 0.4085 0.7223 0.87201 0.0
H462 H 0.3965 0.79746 0.8959 0.0
H463 H 0.40584 0.76559 0.96094 0.0
H464 H 0.5401 0.85344 0.53613 0.0
H465 H 0.5479 0.82052 0.60334 0.0
H466 H 0.4962 0.85182 0.43532 0.0
H467 H 0.45837 0.85487 0.47567 0.0
C468 C 0.23593 0.64874 0.81204 0.0
C469 C 0.23462 0.63198 0.69221 0.0
C470 C 0.26995 0.69082 0.59111 0.0
C471 C 0.26918 0.70764 0.70854 0.0
N472 N 0.24771 0.70309 0.92578 0.0
N473 N 0.24428 0.63634 0.46283 0.0
C474 C 0.25118 0.68671 0.81786 0.0
C475 C 0.24965 0.65284 0.58013 0.0
N476 N 0.2232 0.62838 0.92077 0.0
N477 N 0.29188 0.7109 0.49262 0.0
H478 H 0.22988 0.60853 0.45161 0.0
H479 H 0.25125 0.65015 0.37569 0.0
H480 H 0.30845 0.73864 0.49773 0.0
H481 H 0.2965 0.69978 0.41054 0.0
H482 H 0.22738 0.63903 0.01352 0.0
H483 H 0.20999 0.6005 0.91882 0.0
H484 H 0.2317 0.68923 0.00408 0.0
H485 H 0.25879 0.73083 0.93327 0.0
C486 C 0.40394 0.59013 0.823 0.0
C487 C 0.42037 0.60278 0.70093 0.0
C488 C 0.36106 0.5779 0.59886 0.0
C489 C 0.34448 0.56364 0.71973 0.0
N490 N 0.34952 0.55148 0.94297 0.0
N491 N 0.41528 0.60428 0.47005 0.0
C492 C 0.36578 0.56841 0.83087 0.0
C493 C 0.39909 0.5949 0.58799 0.0
N494 N 0.42485 0.59964 0.93161 0.0
N495 N 0.34076 0.57778 0.49651 0.0
H496 H 0.44306 0.61892 0.45888 0.0
H497 H 0.4014 0.59535 0.38314 0.0
H498 H 0.31301 0.56701 0.50046 0.0
H499 H 0.35164 0.59145 0.41079 0.0
H500 H 0.4146 0.59507 0.02485 0.0
H501 H 0.45287 0.61394 0.92855 0.0
H502 H 0.36348 0.55086 0.02429 0.0
H503 H 0.32169 0.53558 0.95173 0.0
C504 C 1.00369 0.19744 0.54189 0.0
C505 C 1.02056 0.18189 0.61499 0.0
C506 C 0.05909 0.18792 0.43221 0.0
C507 C 0.03927 0.19899 0.35324 0.0
N508 N 0.99582 0.21918 0.33543 0.0
N509 N 0.05722 0.15349 0.61834 0.0
C510 C 1.0122 0.20489 0.40866 0.0
C511 C 0.04646 0.17488 0.55752 0.0
N512 N 0.98077 0.2065 0.60142 0.0
N513 N 0.09051 0.19057 0.38981 0.0
H514 H 0.04689 0.14119 0.70673 0.0
H515 H 0.07323 0.14457 0.57409 0.0
H516 H 0.10117 0.19995 0.29876 0.0
H517 H 0.10771 0.18646 0.44986 0.0
H518 H 0.97031 0.22127 0.55844 0.0
H519 H 0.97338 0.20077 0.6978 0.0
H520 H 0.97219 0.21888 0.36135 0.0
H521 H 1.00629 0.23197 0.24798 0.0
C522 C 0.86986 0.82188 0.53316 0.0
C523 C 0.86199 0.84209 0.62187 0.0
C524 C 0.85756 0.87704 0.44359 0.0
C525 C 0.86558 0.85669 0.35606 0.0
N526 N 0.89732 0.82379 0.33003 0.0
N527 N 0.83563 0.88005 0.65439 0.0
C528 C 0.87678 0.83294 0.40362 0.0
C529 C 0.85237 0.86741 0.57566 0.0
N530 N 0.86885 0.7909 0.57087 0.0
N531 N 0.85753 0.90714 0.40137 0.0
H532 H 0.82601 0.86919 0.74469 0.0
H533 H 0.82591 0.89673 0.62308 0.0
H534 H 0.86517 0.91659 0.30771 0.0
H535 H 0.85509 0.92516 0.46214 0.0
H536 H 0.87174 0.77387 0.50613 0.0
H537 H 0.86022 0.77995 0.66242 0.0
H538 H 0.9092 0.80952 0.36696 0.0
H539 H 0.90756 0.83575 0.24145 0.0
C540 C 0.1893 0.9889 0.55629 0.0
C541 C 0.19823 0.02291 0.60839 0.0
C542 C 0.20747 0.04788 0.39196 0.0
C543 C 0.20435 0.01576 0.34132 0.0
N544 N 0.19093 0.95457 0.37373 0.0
N545 N 0.2225 0.08655 0.57822 0.0
C546 C 0.19509 0.98596 0.42322 0.0
C547 C 0.2092 0.05293 0.5269 0.0
N548 N 0.17349 0.9591 0.63221 0.0
N549 N 0.20832 0.07344 0.31175 0.0
H550 H 0.2252 0.0916 0.67718 0.0
H551 H 0.23438 0.10979 0.52268 0.0
H552 H 0.20641 0.07038 0.21233 0.0
H553 H 0.20761 0.09603 0.34458 0.0
H554 H 0.16237 0.93298 0.59729 0.0
H555 H 0.16917 0.96042 0.72986 0.0
H556 H 0.18958 0.93395 0.43065 0.0
H557 H 0.18969 0.94932 0.27516 0.0
C558 C 0.67253 0.50037 0.76107 0.0
C559 C 0.70428 0.52859 0.70677 0.0
C560 C 0.73352 0.54142 0.9186 0.0
C561 C 0.70007 0.51663 0.97423 0.0
N562 N 0.63618 0.47667 0.95197 0.0
N563 N 0.76599 0.5757 0.73119 0.0
C564 C 0.66915 0.4972 0.89646 0.0
C565 C 0.73509 0.54914 0.78492 0.0
N566 N 0.64576 0.47616 0.68348 0.0
N567 N 0.76399 0.55646 -0.00768 0.0
H568 H 0.76995 0.57918 0.63194 0.0
H569 H 0.78746 0.59496 0.78492 0.0
H570 H 0.76357 0.55237 0.09116 0.0
H571 H 0.78986 0.57122 0.95521 0.0
H572 H 0.62389 0.45262 0.71729 0.0
H573 H 0.64695 0.47849 0.58393 0.0
H574 H 0.6122 0.46511 0.89982 0.0
H575 H 0.63233 0.47401 0.05145 0.0
C576 C 0.53976 0.21482 0.74991 0.0
C577 C 0.52087 0.18334 0.67491 0.0
C578 C 0.50845 0.14701 0.87024 0.0
C579 C 0.53379 0.17813 0.93786 0.0
N580 N 0.57674 0.24169 0.93797 0.0
N581 N 0.48027 0.11953 0.6661 0.0
C582 C 0.55021 0.21212 0.87695 0.0
C583 C 0.50328 0.14926 0.73567 0.0
N584 N 0.5459 0.24705 0.70282 0.0
N585 N 0.48806 0.11602 0.93683 0.0
H586 H 0.47261 0.1209 0.57182 0.0
H587 H 0.46903 0.09338 0.70003 0.0
H588 H 0.48992 0.11489 0.03645 0.0
H589 H 0.46738 0.09257 0.89723 0.0
H590 H 0.55655 0.27031 0.75866 0.0
H591 H 0.53673 0.24965 0.61241 0.0
H592 H 0.59183 0.26628 0.89188 0.0
H593 H 0.58608 0.24093 0.03015 0.0
C594 C 0.8374 0.3203 0.7815 0.0
C595 C 0.86272 0.34643 0.69609 0.0
C596 C 0.89622 0.38341 0.87888 0.0
C597 C 0.86961 0.35929 0.9646 0.0
N598 N 0.8073 0.31243 -0.01525 0.0
N599 N 0.90179 0.41036 0.67244 0.0
C600 C 0.83799 0.32952 0.91342 0.0
C601 C 0.88817 0.38034 0.74644 0.0
N602 N 0.81167 0.28754 0.73728 0.0
N603 N 0.92887 0.40959 0.92265 0.0
H604 H 0.88897 0.41059 0.58747 0.0
H605 H 0.91991 0.43578 0.7081 0.0
H606 H 0.93656 0.41189 0.01927 0.0
H607 H 0.94941 0.42626 0.85987 0.0
H608 H 0.7957 0.26647 0.79919 0.0
H609 H 0.80676 0.28111 0.63977 0.0
H610 H 0.78288 0.29279 0.94633 0.0
H611 H 0.8046 0.3211 0.07554 0.0
C612 C 0.38498 0.84147 0.23789 0.0
C613 C 0.36088 0.8511 0.29587 0.0
C614 C 0.35581 0.87702 0.09135 0.0
C615 C 0.37935 0.86662 0.03303 0.0
N616 N 0.42555 0.85048 0.06216 0.0
N617 N 0.3215 0.87618 0.27891 0.0
C618 C 0.39682 0.85245 0.10978 0.0
C619 C 0.3457 0.8683 0.22273 0.0
N620 N 0.3943 0.81923 0.30087 0.0
N621 N 0.34607 0.89831 0.0245 0.0
H622 H 0.31571 0.87316 0.37714 0.0
H623 H 0.30571 0.88421 0.22812 0.0
H624 H 0.35616 0.90818 0.93358 0.0
H625 H 0.33142 0.90956 0.06246 0.0
H626 H 0.40855 0.80818 0.25753 0.0
H627 H 0.38442 0.80829 0.39129 0.0
H628 H 0.44202 0.84457 0.11912 0.0
H629 H 0.43504 0.85776 0.96841 0.0
C630 C 0.15946 0.49765 0.1318 0.0
C631 C 0.18823 0.52314 0.05487 0.0
C632 C 0.22728 0.54359 0.24593 0.0
C633 C 0.19985 0.51521 0.31786 0.0
N634 N 0.1424 0.46102 0.32403 0.0
N635 N 0.25063 0.5685 0.03599 0.0
C636 C 0.16664 0.49103 0.25938 0.0
C637 C 0.22251 0.5455 0.1112 0.0
N638 N 0.12507 0.48035 0.08504 0.0
N639 N 0.25745 0.56932 0.30696 0.0
H640 H 0.24754 0.5724 0.93914 0.0
H641 H 0.27723 0.58208 0.06758 0.0
H642 H 0.26202 0.56874 0.40543 0.0
H643 H 0.27653 0.59285 0.26263 0.0
H644 H 0.10277 0.46455 0.14225 0.0
H645 H 0.1182 0.48423 -0.00745 0.0
H646 H 0.11937 0.44041 0.28114 0.0
H647 H 0.14697 0.45515 0.41728 0.0
C648 C 0.51403 0.64388 0.25786 0.0
C649 C 0.52612 0.67823 0.31349 0.0
C650 C 0.54006 0.70551 0.10007 0.0
C651 C 0.53268 0.67219 0.04572 0.0
N652 N 0.51072 0.60874 0.06953 0.0
N653 N 0.55567 0.74257 0.29113 0.0
C654 C 0.51907 0.64105 0.1238 0.0
C655 C 0.5404 0.70926 0.23555 0.0
N656 N 0.49693 0.61393 0.33263 0.0
N657 N 0.54641 0.73359 0.02226 0.0
H658 H 0.55686 0.74664 0.39057 0.0
H659 H 0.57019 0.76627 0.23945 0.0
H660 H 0.54787 0.73212 0.92296 0.0
H661 H 0.54759 0.7571 0.05523 0.0
H662 H 0.48313 0.58789 0.29651 0.0
H663 H 0.49548 0.61524 0.43217 0.0
H664 H 0.50517 0.58598 0.12235 0.0
H665 H 0.51 0.60467 0.9702 0.0
loop_
_geom_bond_atom_site_label_1
_geom_bond_atom_site_label_2
_geom_bond_distance
_geom_bond_site_symmetry_2
_ccdc_geom_bond_type
Dy0 O4 2.398 . S
Dy0 O5 2.491 1_554 S
Dy0 O6 2.403 . S
Dy0 O7 2.664 . S
Dy0 O11 2.326 . S
Dy0 O15 2.310 1_554 S
Dy0 O16 2.351 . S
C1 O12 1.185 1_554 S
C1 O13 1.355 . S
C2 O4 1.185 1_556 S
C2 O5 1.355 . S
Dy3 O7 2.310 1_655 S
Dy3 O10 2.351 . S
Dy3 O12 2.398 1_554 S
Dy3 O13 2.491 . S
Dy3 O14 2.403 1_554 S
Dy3 O15 2.664 1_654 S
Dy3 O17 2.326 1_654 S
O4 Dy0 2.398 . S
O4 C2 1.185 1_554 S
O5 Dy0 2.491 1_556 S
O5 C2 1.355 . S
O6 Dy0 2.403 . S
O6 C8 1.254 . S
O7 Dy0 2.664 . S
O7 Dy3 2.310 1_455 S
O7 C8 1.268 . S
C8 O6 1.254 . S
C8 O7 1.268 . S
C9 O14 1.254 . S
C9 O15 1.268 1_655 S
O10 Dy3 2.351 . S
O10 C18 1.249 . S
O11 Dy0 2.326 . S
O11 C18 1.267 1_455 S
O12 C1 1.185 1_556 S
O12 Dy3 2.398 1_556 S
O13 C1 1.355 . S
O13 Dy3 2.491 . S
O14 Dy3 2.403 1_556 S
O14 C9 1.254 . S
O15 Dy0 2.310 1_556 S
O15 Dy3 2.664 1_456 S
O15 C9 1.268 1_455 S
O16 Dy0 2.351 . S
O16 C19 1.249 1_554 S
O17 Dy3 2.326 1_456 S
O17 C19 1.267 . S
C18 O10 1.249 . S
C18 O11 1.267 1_655 S
C19 O16 1.249 1_556 S
C19 O17 1.267 . S
Dy20 O24 2.398 . S
Dy20 O25 2.491 1_554 S
Dy20 O26 2.403 . S
Dy20 O27 2.664 . S
Dy20 O31 2.326 . S
Dy20 O35 2.310 1_554 S
Dy20 O36 2.351 . S
C21 O32 1.185 1_554 S
C21 O33 1.355 . S
C22 O24 1.185 1_556 S
C22 O25 1.355 . S
Dy23 O27 2.310 . S
Dy23 O30 2.351 . S
Dy23 O32 2.398 1_554 S
Dy23 O33 2.491 . S
Dy23 O34 2.403 1_554 S
Dy23 O35 2.664 1_554 S
Dy23 O37 2.326 1_554 S
O24 Dy20 2.398 . S
O24 C22 1.185 1_554 S
O25 Dy20 2.491 1_556 S
O25 C22 1.355 . S
O26 Dy20 2.403 . S
O26 C28 1.254 . S
O27 Dy20 2.664 . S
O27 Dy23 2.310 . S
O27 C28 1.268 . S
C28 O26 1.254 . S
C28 O27 1.268 . S
C29 O34 1.254 . S
C29 O35 1.268 . S
O30 Dy23 2.351 . S
O30 C38 1.249 . S
O31 Dy20 2.326 . S
O31 C38 1.267 . S
O32 C21 1.185 1_556 S
O32 Dy23 2.398 1_556 S
O33 C21 1.355 . S
O33 Dy23 2.491 . S
O34 Dy23 2.403 1_556 S
O34 C29 1.254 . S
O35 Dy20 2.310 1_556 S
O35 Dy23 2.664 1_556 S
O35 C29 1.268 . S
O36 Dy20 2.351 . S
O36 C39 1.249 1_554 S
O37 Dy23 2.326 1_556 S
O37 C39 1.267 . S
C38 O30 1.249 . S
C38 O31 1.267 . S
C39 O36 1.249 1_556 S
C39 O37 1.267 . S
Dy40 O44 2.398 . S
Dy40 O45 2.491 1_554 S
Dy40 O46 2.403 . S
Dy40 O47 2.664 1_565 S
Dy40 O51 2.326 1_565 S
Dy40 O55 2.310 1_564 S
Dy40 O56 2.351 . S
C41 O52 1.185 1_554 S
C41 O53 1.355 . S
C42 O44 1.185 1_556 S
C42 O45 1.355 . S
Dy43 O47 2.310 . S
Dy43 O50 2.351 . S
Dy43 O52 2.398 1_554 S
Dy43 O53 2.491 . S
Dy43 O54 2.403 1_554 S
Dy43 O55 2.664 1_554 S
Dy43 O57 2.326 1_544 S
O44 Dy40 2.398 . S
O44 C42 1.185 1_554 S
O45 Dy40 2.491 1_556 S
O45 C42 1.355 . S
O46 Dy40 2.403 . S
O46 C48 1.254 . S
O47 Dy40 2.664 1_545 S
O47 Dy43 2.310 . S
O47 C48 1.268 1_545 S
C48 O46 1.254 . S
C48 O47 1.268 1_565 S
C49 O54 1.254 . S
C49 O55 1.268 . S
O50 Dy43 2.351 . S
O50 C58 1.249 . S
O51 Dy40 2.326 1_545 S
O51 C58 1.267 . S
O52 C41 1.185 1_556 S
O52 Dy43 2.398 1_556 S
O53 C41 1.355 . S
O53 Dy43 2.491 . S
O54 Dy43 2.403 1_556 S
O54 C49 1.254 . S
O55 Dy40 2.310 1_546 S
O55 Dy43 2.664 1_556 S
O55 C49 1.268 . S
O56 Dy40 2.351 . S
O56 C59 1.249 1_554 S
O57 Dy43 2.326 1_566 S
O57 C59 1.267 . S
C58 O50 1.249 . S
C58 O51 1.267 . S
C59 O56 1.249 1_556 S
C59 O57 1.267 . S
Dy60 O64 2.398 . S
Dy60 O65 2.491 . S
Dy60 O66 2.403 . S
Dy60 O67 2.664 . S
Dy60 O71 2.326 . S
Dy60 O75 2.310 . S
Dy60 O76 2.351 . S
C61 O72 1.185 . S
C61 O73 1.355 . S
C62 O64 1.185 . S
C62 O65 1.355 . S
Dy63 O67 2.310 . S
Dy63 O70 2.351 . S
Dy63 O72 2.398 . S
Dy63 O73 2.491 . S
Dy63 O74 2.403 . S
Dy63 O75 2.664 . S
Dy63 O77 2.326 . S
O64 Dy60 2.398 . S
O64 C62 1.185 . S
O65 Dy60 2.491 . S
O65 C62 1.355 . S
O66 Dy60 2.403 . S
O66 C68 1.254 . S
O67 Dy60 2.664 . S
O67 Dy63 2.310 . S
O67 C68 1.268 . S
C68 O66 1.254 . S
C68 O67 1.268 . S
C69 O74 1.254 . S
C69 O75 1.268 . S
O70 Dy63 2.351 . S
O70 C78 1.249 . S
O71 Dy60 2.326 . S
O71 C78 1.267 . S
O72 C61 1.185 . S
O72 Dy63 2.398 . S
O73 C61 1.355 . S
O73 Dy63 2.491 . S
O74 Dy63 2.403 . S
O74 C69 1.254 . S
O75 Dy60 2.310 . S
O75 Dy63 2.664 . S
O75 C69 1.268 . S
O76 Dy60 2.351 . S
O76 C79 1.249 . S
O77 Dy63 2.326 . S
O77 C79 1.267 . S
C78 O70 1.249 . S
C78 O71 1.267 . S
C79 O76 1.249 . S
C79 O77 1.267 . S
Dy80 O84 2.398 . S
Dy80 O85 2.491 . S
Dy80 O86 2.403 . S
Dy80 O87 2.664 . S
Dy80 O91 2.326 . S
Dy80 O95 2.310 . S
Dy80 O96 2.351 . S
C81 O92 1.185 . S
C81 O93 1.355 . S
C82 O84 1.185 . S
C82 O85 1.355 . S
Dy83 O87 2.310 . S
Dy83 O90 2.351 . S
Dy83 O92 2.398 . S
Dy83 O93 2.491 . S
Dy83 O94 2.403 . S
Dy83 O95 2.664 . S
Dy83 O97 2.326 . S
O84 Dy80 2.398 . S
O84 C82 1.185 . S
O85 Dy80 2.491 . S
O85 C82 1.355 . S
O86 Dy80 2.403 . S
O86 C88 1.254 . S
O87 Dy80 2.664 . S
O87 Dy83 2.310 . S
O87 C88 1.268 . S
C88 O86 1.254 . S
C88 O87 1.268 . S
C89 O94 1.254 . S
C89 O95 1.268 . S
O90 Dy83 2.351 . S
O90 C98 1.249 . S
O91 Dy80 2.326 . S
O91 C98 1.267 . S
O92 C81 1.185 . S
O92 Dy83 2.398 . S
O93 C81 1.355 . S
O93 Dy83 2.491 . S
O94 Dy83 2.403 . S
O94 C89 1.254 . S
O95 Dy80 2.310 . S
O95 Dy83 2.664 . S
O95 C89 1.268 . S
O96 Dy80 2.351 . S
O96 C99 1.249 . S
O97 Dy83 2.326 . S
O97 C99 1.267 . S
C98 O90 1.249 . S
C98 O91 1.267 . S
C99 O96 1.249 . S
C99 O97 1.267 . S
Dy100 O104 2.398 . S
Dy100 O105 2.491 . S
Dy100 O106 2.403 . S
Dy100 O107 2.664 . S
Dy100 O111 2.326 . S
Dy100 O115 2.310 . S
Dy100 O116 2.351 . S
C101 O112 1.185 . S
C101 O113 1.355 . S
C102 O104 1.185 . S
C102 O105 1.355 . S
Dy103 O107 2.310 . S
Dy103 O110 2.351 . S
Dy103 O112 2.398 . S
Dy103 O113 2.491 . S
Dy103 O114 2.403 . S
Dy103 O115 2.664 . S
Dy103 O117 2.326 . S
O104 Dy100 2.398 . S
O104 C102 1.185 . S
O105 Dy100 2.491 . S
O105 C102 1.355 . S
O106 Dy100 2.403 . S
O106 C108 1.254 . S
O107 Dy100 2.664 . S
O107 Dy103 2.310 . S
O107 C108 1.268 . S
C108 O106 1.254 . S
C108 O107 1.268 . S
C109 O114 1.254 . S
C109 O115 1.268 . S
O110 Dy103 2.351 . S
O110 C118 1.249 . S
O111 Dy100 2.326 . S
O111 C118 1.267 . S
O112 C101 1.185 . S
O112 Dy103 2.398 . S
O113 C101 1.355 . S
O113 Dy103 2.491 . S
O114 Dy103 2.403 . S
O114 C109 1.254 . S
O115 Dy100 2.310 . S
O115 Dy103 2.664 . S
O115 C109 1.268 . S
O116 Dy100 2.351 . S
O116 C119 1.249 . S
O117 Dy103 2.326 . S
O117 C119 1.267 . S
C118 O110 1.249 . S
C118 O111 1.267 . S
C119 O116 1.249 . S
C119 O117 1.267 . S
Dy120 O124 2.398 . S
Dy120 O125 2.491 . S
Dy120 O126 2.403 . S
Dy120 O127 2.664 . S
Dy120 O131 2.326 . S
Dy120 O135 2.310 . S
Dy120 O136 2.351 . S
C121 O132 1.185 . S
C121 O133 1.355 . S
C122 O124 1.185 . S
C122 O125 1.355 . S
Dy123 O127 2.310 . S
Dy123 O130 2.351 . S
Dy123 O132 2.398 . S
Dy123 O133 2.491 . S
Dy123 O134 2.403 . S
Dy123 O135 2.664 . S
Dy123 O137 2.326 . S
O124 Dy120 2.398 . S
O124 C122 1.185 . S
O125 Dy120 2.491 . S
O125 C122 1.355 . S
O126 Dy120 2.403 . S
O126 C128 1.254 . S
O127 Dy120 2.664 . S
O127 Dy123 2.310 . S
O127 C128 1.268 . S
C128 O126 1.254 . S
C128 O127 1.268 . S
C129 O134 1.254 . S
C129 O135 1.268 . S
O130 Dy123 2.351 . S
O130 C138 1.249 . S
O131 Dy120 2.326 . S
O131 C138 1.267 . S
O132 C121 1.185 . S
O132 Dy123 2.398 . S
O133 C121 1.355 . S
O133 Dy123 2.491 . S
O134 Dy123 2.403 . S
O134 C129 1.254 . S
O135 Dy120 2.310 . S
O135 Dy123 2.664 . S
O135 C129 1.268 . S
O136 Dy120 2.351 . S
O136 C139 1.249 . S
O137 Dy123 2.326 . S
O137 C139 1.267 . S
C138 O130 1.249 . S
C138 O131 1.267 . S
C139 O136 1.249 . S
C139 O137 1.267 . S
Dy140 O144 2.398 . S
Dy140 O145 2.491 . S
Dy140 O146 2.403 . S
Dy140 O147 2.664 . S
Dy140 O151 2.326 . S
Dy140 O155 2.310 . S
Dy140 O156 2.351 . S
C141 O152 1.185 . S
C141 O153 1.355 . S
C142 O144 1.185 . S
C142 O145 1.355 . S
Dy143 O147 2.310 . S
Dy143 O150 2.351 . S
Dy143 O152 2.398 . S
Dy143 O153 2.491 . S
Dy143 O154 2.403 . S
Dy143 O155 2.664 . S
Dy143 O157 2.326 . S
O144 Dy140 2.398 . S
O144 C142 1.185 . S
O145 Dy140 2.491 . S
O145 C142 1.355 . S
O146 Dy140 2.403 . S
O146 C148 1.254 . S
O147 Dy140 2.664 . S
O147 Dy143 2.310 . S
O147 C148 1.268 . S
C148 O146 1.254 . S
C148 O147 1.268 . S
C149 O154 1.254 . S
C149 O155 1.268 . S
O150 Dy143 2.351 . S
O150 C158 1.249 . S
O151 Dy140 2.326 . S
O151 C158 1.267 . S
O152 C141 1.185 . S
O152 Dy143 2.398 . S
O153 C141 1.355 . S
O153 Dy143 2.491 . S
O154 Dy143 2.403 . S
O154 C149 1.254 . S
O155 Dy140 2.310 . S
O155 Dy143 2.664 . S
O155 C149 1.268 . S
O156 Dy140 2.351 . S
O156 C159 1.249 . S
O157 Dy143 2.326 . S
O157 C159 1.267 . S
C158 O150 1.249 . S
C158 O151 1.267 . S
C159 O156 1.249 . S
C159 O157 1.267 . S
Dy160 O164 2.398 . S
Dy160 O165 2.491 . S
Dy160 O166 2.403 . S
Dy160 O167 2.664 . S
Dy160 O171 2.326 . S
Dy160 O175 2.310 . S
Dy160 O176 2.351 . S
C161 O172 1.185 . S
C161 O173 1.355 . S
C162 O164 1.185 . S
C162 O165 1.355 . S
Dy163 O167 2.310 . S
Dy163 O170 2.351 . S
Dy163 O172 2.398 . S
Dy163 O173 2.491 . S
Dy163 O174 2.403 . S
Dy163 O175 2.664 . S
Dy163 O177 2.326 . S
O164 Dy160 2.398 . S
O164 C162 1.185 . S
O165 Dy160 2.491 . S
O165 C162 1.355 . S
O166 Dy160 2.403 . S
O166 C168 1.254 . S
O167 Dy160 2.664 . S
O167 Dy163 2.310 . S
O167 C168 1.268 . S
C168 O166 1.254 . S
C168 O167 1.268 . S
C169 O174 1.254 . S
C169 O175 1.268 . S
O170 Dy163 2.351 . S
O170 C178 1.249 . S
O171 Dy160 2.326 . S
O171 C178 1.267 . S
O172 C161 1.185 . S
O172 Dy163 2.398 . S
O173 C161 1.355 . S
O173 Dy163 2.491 . S
O174 Dy163 2.403 . S
O174 C169 1.254 . S
O175 Dy160 2.310 . S
O175 Dy163 2.664 . S
O175 C169 1.268 . S
O176 Dy160 2.351 . S
O176 C179 1.249 . S
O177 Dy163 2.326 . S
O177 C179 1.267 . S
C178 O170 1.249 . S
C178 O171 1.267 . S
C179 O176 1.249 . S
C179 O177 1.267 . S
C180 C181 1.363 . S
C180 C186 1.379 . S
C180 N188 1.356 . S
C181 C180 1.363 . S
C181 C187 1.363 . S
C182 C183 1.363 . S
C182 C187 1.379 . S
C182 N189 1.356 . S
C183 C182 1.363 . S
C183 C186 1.363 . S
N184 C186 1.356 . S
N184 H196 0.984 . S
N184 H197 0.985 . S
N185 C187 1.356 1_554 S
N185 H190 0.984 . S
N185 H191 0.985 . S
C186 C180 1.379 . S
C186 C183 1.363 . S
C186 N184 1.356 . S
C187 C181 1.363 . S
C187 C182 1.379 . S
C187 N185 1.356 1_556 S
N188 C180 1.356 . S
N188 H194 0.984 . S
N188 H195 0.984 . S
N189 C182 1.356 . S
N189 H192 0.984 . S
N189 H193 0.985 . S
H190 N185 0.984 . S
H191 N185 0.985 . S
H192 N189 0.984 . S
H193 N189 0.985 . S
H194 N188 0.984 . S
H195 N188 0.984 . S
H196 N184 0.984 . S
H197 N184 0.985 . S
C198 C199 1.363 . S
C198 C204 1.379 . S
C198 N206 1.356 . S
C199 C198 1.363 . S
C199 C205 1.363 . S
C200 C201 1.363 . S
C200 C205 1.379 . S
C200 N207 1.356 . S
C201 C200 1.363 . S
C201 C204 1.363 . S
N202 C204 1.356 . S
N202 H214 0.984 . S
N202 H215 0.985 . S
N203 C205 1.356 1_554 S
N203 H208 0.984 . S
N203 H209 0.985 . S
C204 C198 1.379 . S
C204 C201 1.363 . S
C204 N202 1.356 . S
C205 C199 1.363 . S
C205 C200 1.379 . S
C205 N203 1.356 1_556 S
N206 C198 1.356 . S
N206 H212 0.984 . S
N206 H213 0.984 . S
N207 C200 1.356 . S
N207 H210 0.984 . S
N207 H211 0.985 . S
H208 N203 0.984 . S
H209 N203 0.985 . S
H210 N207 0.984 . S
H211 N207 0.985 . S
H212 N206 0.984 . S
H213 N206 0.984 . S
H214 N202 0.984 . S
H215 N202 0.985 . S
C216 C217 1.363 . S
C216 C222 1.379 . S
C216 N224 1.356 . S
C217 C216 1.363 . S
C217 C223 1.363 . S
C218 C219 1.363 . S
C218 C223 1.379 . S
C218 N225 1.356 . S
C219 C218 1.363 . S
C219 C222 1.363 . S
N220 C222 1.356 . S
N220 H232 0.984 . S
N220 H233 0.985 . S
N221 C223 1.356 . S
N221 H226 0.984 1_556 S
N221 H227 0.985 1_556 S
C222 C216 1.379 . S
C222 C219 1.363 . S
C222 N220 1.356 . S
C223 C217 1.363 . S
C223 C218 1.379 . S
C223 N221 1.356 . S
N224 C216 1.356 . S
N224 H230 0.984 . S
N224 H231 0.984 . S
N225 C218 1.356 . S
N225 H228 0.984 . S
N225 H229 0.985 . S
H226 N221 0.984 1_554 S
H227 N221 0.985 1_554 S
H228 N225 0.984 . S
H229 N225 0.985 . S
H230 N224 0.984 . S
H231 N224 0.984 . S
H232 N220 0.984 . S
H233 N220 0.985 . S
C234 C235 1.363 . S
C234 C240 1.379 . S
C234 N242 1.356 . S
C235 C234 1.363 . S
C235 C241 1.363 . S
C236 C237 1.363 . S
C236 C241 1.379 . S
C236 N243 1.356 . S
C237 C236 1.363 . S
C237 C240 1.363 . S
N238 C240 1.356 . S
N238 H250 0.984 . S
N238 H251 0.985 . S
N239 C241 1.356 . S
N239 H244 0.984 . S
N239 H245 0.985 . S
C240 C234 1.379 . S
C240 C237 1.363 . S
C240 N238 1.356 . S
C241 C235 1.363 . S
C241 C236 1.379 . S
C241 N239 1.356 . S
N242 C234 1.356 . S
N242 H248 0.984 . S
N242 H249 0.984 . S
N243 C236 1.356 . S
N243 H246 0.984 . S
N243 H247 0.985 1_545 S
H244 N239 0.984 . S
H245 N239 0.985 . S
H246 N243 0.984 . S
H247 N243 0.985 1_565 S
H248 N242 0.984 . S
H249 N242 0.984 . S
H250 N238 0.984 . S
H251 N238 0.985 . S
C252 C253 1.363 . S
C252 C258 1.379 . S
C252 N260 1.356 . S
C253 C252 1.363 . S
C253 C259 1.363 . S
C254 C255 1.363 . S
C254 C259 1.379 . S
C254 N261 1.356 . S
C255 C254 1.363 . S
C255 C258 1.363 . S
N256 C258 1.356 . S
N256 H268 0.984 . S
N256 H269 0.985 . S
N257 C259 1.356 . S
N257 H262 0.984 . S
N257 H263 0.985 . S
C258 C252 1.379 . S
C258 C255 1.363 . S
C258 N256 1.356 . S
C259 C253 1.363 . S
C259 C254 1.379 . S
C259 N257 1.356 . S
N260 C252 1.356 . S
N260 H266 0.984 . S
N260 H267 0.984 . S
N261 C254 1.356 . S
N261 H264 0.966 1_654 S
N261 H265 0.985 1_655 S
H262 N257 0.984 . S
H263 N257 0.985 . S
H264 N261 0.966 1_456 S
H265 N261 0.985 1_455 S
H266 N260 0.984 . S
H267 N260 0.984 . S
H268 N256 0.984 . S
H269 N256 0.985 . S
C270 C271 1.363 . S
C270 C276 1.379 . S
C270 N278 1.356 1_554 S
C271 C270 1.363 . S
C271 C277 1.363 . S
C272 C273 1.363 . S
C272 C277 1.379 . S
C272 N279 1.356 . S
C273 C272 1.363 . S
C273 C276 1.363 . S
N274 C276 1.356 . S
N274 H286 0.984 . S
N274 H287 0.985 . S
N275 C277 1.356 . S
N275 H280 0.984 . S
N275 H281 0.985 . S
C276 C270 1.379 . S
C276 C273 1.363 . S
C276 N274 1.356 . S
C277 C271 1.363 . S
C277 C272 1.379 . S
C277 N275 1.356 . S
N278 C270 1.356 1_556 S
N278 H284 0.984 . S
N278 H285 0.984 . S
N279 C272 1.356 . S
N279 H282 0.984 . S
N279 H283 0.985 . S
H280 N275 0.984 . S
H281 N275 0.985 . S
H282 N279 0.984 . S
H283 N279 0.985 . S
H284 N278 0.984 . S
H285 N278 0.984 . S
H286 N274 0.984 . S
H287 N274 0.985 . S
C288 C289 1.388 . S
C288 C294 1.354 1_455 S
C288 N296 1.366 . S
C289 C288 1.388 . S
C289 C295 1.363 1_455 S
C290 C291 1.363 . S
C290 C295 1.379 . S
C290 N297 1.356 . S
C291 C290 1.363 . S
C291 C294 1.363 . S
N292 C294 1.356 . S
N292 H304 0.984 . S
N292 H305 0.985 . S
N293 C295 1.356 1_455 S
N293 H298 0.984 . S
N293 H299 0.985 . S
C294 C288 1.354 1_655 S
C294 C291 1.363 . S
C294 N292 1.356 . S
C295 C289 1.363 1_655 S
C295 C290 1.379 . S
C295 N293 1.356 1_655 S
N296 C288 1.366 . S
N296 H302 0.984 . S
N296 H303 0.984 . S
N297 C290 1.356 . S
N297 H300 0.984 . S
N297 H301 0.985 . S
H298 N293 0.984 . S
H299 N293 0.985 . S
H300 N297 0.984 . S
H301 N297 0.985 . S
H302 N296 0.984 . S
H303 N296 0.984 . S
H304 N292 0.984 . S
H305 N292 0.985 . S
C306 C307 1.363 . S
C306 C312 1.379 . S
C306 N314 1.356 . S
C307 C306 1.363 . S
C307 C313 1.363 . S
C308 C309 1.363 . S
C308 C313 1.379 . S
C308 N315 1.356 . S
C309 C308 1.363 . S
C309 C312 1.363 . S
N310 C312 1.356 . S
N310 H322 0.984 . S
N310 H323 0.985 . S
N311 C313 1.356 . S
N311 H316 0.984 . S
N311 H317 0.985 . S
C312 C306 1.379 . S
C312 C309 1.363 . S
C312 N310 1.356 . S
C313 C307 1.363 . S
C313 C308 1.379 . S
C313 N311 1.356 . S
N314 C306 1.356 . S
N314 H320 0.984 . S
N314 H321 0.984 . S
N315 C308 1.356 . S
N315 H318 0.984 . S
N315 H319 0.985 . S
H316 N311 0.984 . S
H317 N311 0.985 . S
H318 N315 0.984 . S
H319 N315 0.985 . S
H320 N314 0.984 . S
H321 N314 0.984 . S
H322 N310 0.984 . S
H323 N310 0.985 . S
C324 C325 1.363 . S
C324 C330 1.379 1_545 S
C324 N332 1.356 . S
C325 C324 1.363 . S
C325 C331 1.363 . S
C326 C327 1.363 1_545 S
C326 C331 1.379 . S
C326 N333 1.356 . S
C327 C326 1.363 1_565 S
C327 C330 1.363 . S
N328 C330 1.356 . S
N328 H340 0.984 . S
N328 H341 0.985 . S
N329 C331 1.356 . S
N329 H334 0.984 . S
N329 H335 0.985 . S
C330 C324 1.379 1_565 S
C330 C327 1.363 . S
C330 N328 1.356 . S
C331 C325 1.363 . S
C331 C326 1.379 . S
C331 N329 1.356 . S
N332 C324 1.356 . S
N332 H338 0.984 . S
N332 H339 0.984 . S
N333 C326 1.356 . S
N333 H336 0.984 1_545 S
N333 H337 0.985 . S
H334 N329 0.984 . S
H335 N329 0.985 . S
H336 N333 0.984 1_565 S
H337 N333 0.985 . S
H338 N332 0.984 . S
H339 N332 0.984 . S
H340 N328 0.984 . S
H341 N328 0.985 . S
C342 C343 1.363 1_556 S
C342 C348 1.379 . S
C342 N350 1.356 . S
C343 C342 1.363 1_554 S
C343 C349 1.363 . S
C344 C345 1.363 . S
C344 C349 1.379 . S
C344 N351 1.356 . S
C345 C344 1.363 . S
C345 C348 1.363 1_554 S
N346 C348 1.356 . S
N346 H358 0.984 . S
N346 H359 0.985 . S
N347 C349 1.356 . S
N347 H352 0.984 . S
N347 H353 0.985 . S
C348 C342 1.379 . S
C348 C345 1.363 1_556 S
C348 N346 1.356 . S
C349 C343 1.363 . S
C349 C344 1.379 . S
C349 N347 1.356 . S
N350 C342 1.356 . S
N350 H356 0.984 . S
N350 H357 0.984 . S
N351 C344 1.356 . S
N351 H354 0.984 . S
N351 H355 0.985 . S
H352 N347 0.984 . S
H353 N347 0.985 . S
H354 N351 0.984 . S
H355 N351 0.985 . S
H356 N350 0.984 . S
H357 N350 0.984 . S
H358 N346 0.984 . S
H359 N346 0.985 . S
C360 C361 1.363 . S
C360 C366 1.379 . S
C360 N368 1.356 . S
C361 C360 1.363 . S
C361 C367 1.363 1_554 S
C362 C363 1.369 1_556 S
C362 C367 1.370 1_545 S
C362 N369 1.362 . S
C363 C362 1.369 1_554 S
C363 C366 1.363 1_545 S
N364 C366 1.356 1_545 S
N364 H376 0.984 . S
N364 H377 0.985 . S
N365 C367 1.356 . S
N365 H370 0.984 . S
N365 H371 0.985 . S
C366 C360 1.379 . S
C366 C363 1.363 1_565 S
C366 N364 1.356 1_565 S
C367 C361 1.363 1_556 S
C367 C362 1.370 1_565 S
C367 N365 1.356 . S
N368 C360 1.356 . S
N368 H374 0.984 . S
N368 H375 0.984 . S
N369 C362 1.362 . S
N369 H372 0.984 . S
N369 H373 0.985 . S
H370 N365 0.984 . S
H371 N365 0.985 . S
H372 N369 0.984 . S
H373 N369 0.985 . S
H374 N368 0.984 . S
H375 N368 0.984 . S
H376 N364 0.984 . S
H377 N364 0.985 . S
C378 C379 1.363 1_455 S
C378 C384 1.379 . S
C378 N386 1.356 1_455 S
C379 C378 1.363 1_655 S
C379 C385 1.363 1_654 S
C380 C381 1.363 1_556 S
C380 C385 1.379 . S
C380 N387 1.356 . S
C381 C380 1.363 1_554 S
C381 C384 1.363 . S
N382 C384 1.356 . S
N382 H394 0.984 . S
N382 H395 0.985 . S
N383 C385 1.356 1_655 S
N383 H388 0.984 . S
N383 H389 0.985 . S
C384 C378 1.379 . S
C384 C381 1.363 . S
C384 N382 1.356 . S
C385 C379 1.363 1_456 S
C385 C380 1.379 . S
C385 N383 1.356 1_455 S
N386 C378 1.356 1_655 S
N386 H392 0.984 . S
N386 H393 0.984 . S
N387 C380 1.356 . S
N387 H390 0.984 . S
N387 H391 0.985 1_565 S
H388 N383 0.984 . S
H389 N383 0.985 . S
H390 N387 0.984 . S
H391 N387 0.985 1_545 S
H392 N386 0.984 . S
H393 N386 0.984 . S
H394 N382 0.984 . S
H395 N382 0.985 . S
C396 C397 1.363 . S
C396 C402 1.379 . S
C396 N404 1.356 . S
C397 C396 1.363 . S
C397 C403 1.363 . S
C398 C399 1.363 . S
C398 C403 1.379 . S
C398 N405 1.356 . S
C399 C398 1.363 . S
C399 C402 1.363 . S
N400 C402 1.356 . S
N400 H412 0.984 . S
N400 H413 0.985 . S
N401 C403 1.356 . S
N401 H406 0.984 . S
N401 H407 0.985 . S
C402 C396 1.379 . S
C402 C399 1.363 . S
C402 N400 1.356 . S
C403 C397 1.363 . S
C403 C398 1.379 . S
C403 N401 1.356 . S
N404 C396 1.356 . S
N404 H410 0.984 . S
N404 H411 0.984 . S
N405 C398 1.356 . S
N405 H408 0.984 . S
N405 H409 0.985 . S
H406 N401 0.984 . S
H407 N401 0.985 . S
H408 N405 0.984 . S
H409 N405 0.985 . S
H410 N404 0.984 . S
H411 N404 0.984 . S
H412 N400 0.984 . S
H413 N400 0.985 . S
C414 C415 1.363 . S
C414 C420 1.379 . S
C414 N422 1.356 . S
C415 C414 1.363 . S
C415 C421 1.363 . S
C416 C417 1.363 . S
C416 C421 1.379 . S
C416 N423 1.356 . S
C417 C416 1.363 . S
C417 C420 1.363 . S
N418 C420 1.356 . S
N418 H430 0.984 . S
N418 H431 0.985 . S
N419 C421 1.356 . S
N419 H424 0.984 . S
N419 H425 0.985 . S
C420 C414 1.379 . S
C420 C417 1.363 . S
C420 N418 1.356 . S
C421 C415 1.363 . S
C421 C416 1.379 . S
C421 N419 1.356 . S
N422 C414 1.356 . S
N422 H428 0.984 . S
N422 H429 0.984 . S
N423 C416 1.356 . S
N423 H426 0.984 . S
N423 H427 0.985 . S
H424 N419 0.984 . S
H425 N419 0.985 . S
H426 N423 0.984 . S
H427 N423 0.985 . S
H428 N422 0.984 . S
H429 N422 0.984 . S
H430 N418 0.984 . S
H431 N418 0.985 . S
C432 C433 1.363 . S
C432 C438 1.379 . S
C432 N440 1.356 . S
C433 C432 1.363 . S
C433 C439 1.363 . S
C434 C435 1.363 . S
C434 C439 1.379 . S
C434 N441 1.356 . S
C435 C434 1.363 . S
C435 C438 1.363 . S
N436 C438 1.356 . S
N436 H448 0.984 . S
N436 H449 0.985 . S
N437 C439 1.356 . S
N437 H442 0.984 . S
N437 H443 0.985 . S
C438 C432 1.379 . S
C438 C435 1.363 . S
C438 N436 1.356 . S
C439 C433 1.363 . S
C439 C434 1.379 . S
C439 N437 1.356 . S
N440 C432 1.356 . S
N440 H446 0.984 . S
N440 H447 0.984 . S
N441 C434 1.356 . S
N441 H444 0.984 . S
N441 H445 0.985 . S
H442 N437 0.984 . S
H443 N437 0.985 . S
H444 N441 0.984 . S
H445 N441 0.985 . S
H446 N440 0.984 . S
H447 N440 0.984 . S
H448 N436 0.984 . S
H449 N436 0.985 . S
C450 C451 1.363 . S
C450 C456 1.379 . S
C450 N458 1.356 . S
C451 C450 1.363 . S
C451 C457 1.363 . S
C452 C453 1.363 . S
C452 C457 1.379 . S
C452 N459 1.356 . S
C453 C452 1.363 . S
C453 C456 1.363 . S
N454 C456 1.356 . S
N454 H466 0.984 . S
N454 H467 0.985 . S
N455 C457 1.356 . S
N455 H460 0.984 . S
N455 H461 0.985 . S
C456 C450 1.379 . S
C456 C453 1.363 . S
C456 N454 1.356 . S
C457 C451 1.363 . S
C457 C452 1.379 . S
C457 N455 1.356 . S
N458 C450 1.356 . S
N458 H464 0.984 . S
N458 H465 0.984 . S
N459 C452 1.356 . S
N459 H462 0.984 . S
N459 H463 0.985 . S
H460 N455 0.984 . S
H461 N455 0.985 . S
H462 N459 0.984 . S
H463 N459 0.985 . S
H464 N458 0.984 . S
H465 N458 0.984 . S
H466 N454 0.984 . S
H467 N454 0.985 . S
C468 C469 1.363 . S
C468 C474 1.379 . S
C468 N476 1.356 . S
C469 C468 1.363 . S
C469 C475 1.363 . S
C470 C471 1.363 . S
C470 C475 1.379 . S
C470 N477 1.356 . S
C471 C470 1.363 . S
C471 C474 1.363 . S
N472 C474 1.356 . S
N472 H484 0.984 . S
N472 H485 0.985 . S
N473 C475 1.356 . S
N473 H478 0.984 . S
N473 H479 0.985 . S
C474 C468 1.379 . S
C474 C471 1.363 . S
C474 N472 1.356 . S
C475 C469 1.363 . S
C475 C470 1.379 . S
C475 N473 1.356 . S
N476 C468 1.356 . S
N476 H482 0.984 . S
N476 H483 0.984 . S
N477 C470 1.356 . S
N477 H480 0.984 . S
N477 H481 0.985 . S
H478 N473 0.984 . S
H479 N473 0.985 . S
H480 N477 0.984 . S
H481 N477 0.985 . S
H482 N476 0.984 . S
H483 N476 0.984 . S
H484 N472 0.984 . S
H485 N472 0.985 . S
C486 C487 1.363 . S
C486 C492 1.379 . S
C486 N494 1.356 . S
C487 C486 1.363 . S
C487 C493 1.363 . S
C488 C489 1.363 . S
C488 C493 1.379 . S
C488 N495 1.356 . S
C489 C488 1.363 . S
C489 C492 1.363 . S
N490 C492 1.356 . S
N490 H502 0.984 . S
N490 H503 0.985 . S
N491 C493 1.356 . S
N491 H496 0.984 . S
N491 H497 0.985 . S
C492 C486 1.379 . S
C492 C489 1.363 . S
C492 N490 1.356 . S
C493 C487 1.363 . S
C493 C488 1.379 . S
C493 N491 1.356 . S
N494 C486 1.356 . S
N494 H500 0.984 . S
N494 H501 0.984 . S
N495 C488 1.356 . S
N495 H498 0.984 . S
N495 H499 0.985 . S
H496 N491 0.984 . S
H497 N491 0.985 . S
H498 N495 0.984 . S
H499 N495 0.985 . S
H500 N494 0.984 . S
H501 N494 0.984 . S
H502 N490 0.984 . S
H503 N490 0.985 . S
C504 C505 1.360 . S
C504 C510 1.382 . S
C504 N512 1.348 1_455 S
C505 C504 1.360 . S
C505 C511 1.377 . S
C506 C507 1.363 . S
C506 C511 1.379 . S
C506 N513 1.356 . S
C507 C506 1.363 . S
C507 C510 1.363 . S
N508 C510 1.356 . S
N508 H520 0.984 . S
N508 H521 0.985 . S
N509 C511 1.356 . S
N509 H514 0.990 . S
N509 H515 0.985 . S
C510 C504 1.382 . S
C510 C507 1.363 . S
C510 N508 1.356 . S
C511 C505 1.377 . S
C511 C506 1.379 . S
C511 N509 1.356 . S
N512 C504 1.348 1_655 S
N512 H518 0.984 . S
N512 H519 0.984 . S
N513 C506 1.356 . S
N513 H516 0.984 . S
N513 H517 0.985 . S
H514 N509 0.990 . S
H515 N509 0.985 . S
H516 N513 0.984 . S
H517 N513 0.985 . S
H518 N512 0.984 . S
H519 N512 0.984 . S
H520 N508 0.984 . S
H521 N508 0.985 . S
C522 C523 1.363 . S
C522 C528 1.379 . S
C522 N530 1.356 . S
C523 C522 1.363 . S
C523 C529 1.363 . S
C524 C525 1.363 . S
C524 C529 1.379 . S
C524 N531 1.356 . S
C525 C524 1.363 . S
C525 C528 1.363 . S
N526 C528 1.356 . S
N526 H538 0.984 . S
N526 H539 0.985 . S
N527 C529 1.356 . S
N527 H532 0.984 . S
N527 H533 0.985 . S
C528 C522 1.379 . S
C528 C525 1.363 . S
C528 N526 1.356 . S
C529 C523 1.363 . S
C529 C524 1.379 . S
C529 N527 1.356 . S
N530 C522 1.356 . S
N530 H536 0.984 . S
N530 H537 0.984 . S
N531 C524 1.356 . S
N531 H534 0.984 . S
N531 H535 0.985 . S
H532 N527 0.984 . S
H533 N527 0.985 . S
H534 N531 0.984 . S
H535 N531 0.985 . S
H536 N530 0.984 . S
H537 N530 0.984 . S
H538 N526 0.984 . S
H539 N526 0.985 . S
C540 C541 1.363 1_565 S
C540 C546 1.379 . S
C540 N548 1.356 . S
C541 C540 1.363 1_545 S
C541 C547 1.363 . S
C542 C543 1.363 1_545 S
C542 C547 1.379 . S
C542 N549 1.356 . S
C543 C542 1.363 1_565 S
C543 C546 1.363 . S
N544 C546 1.356 . S
N544 H556 0.984 . S
N544 H557 0.985 . S
N545 C547 1.356 . S
N545 H550 0.984 . S
N545 H551 0.985 . S
C546 C540 1.379 . S
C546 C543 1.363 . S
C546 N544 1.356 . S
C547 C541 1.363 . S
C547 C542 1.379 . S
C547 N545 1.356 . S
N548 C540 1.356 . S
N548 H554 0.984 . S
N548 H555 0.984 . S
N549 C542 1.356 . S
N549 H552 0.984 . S
N549 H553 0.985 . S
H550 N545 0.984 . S
H551 N545 0.985 . S
H552 N549 0.984 . S
H553 N549 0.985 . S
H554 N548 0.984 . S
H555 N548 0.984 . S
H556 N544 0.984 . S
H557 N544 0.985 . S
C558 C559 1.363 . S
C558 C564 1.379 . S
C558 N566 1.356 . S
C559 C558 1.363 . S
C559 C565 1.363 . S
C560 C561 1.363 . S
C560 C565 1.379 . S
C560 N567 1.356 1_556 S
C561 C560 1.363 . S
C561 C564 1.363 . S
N562 C564 1.356 . S
N562 H574 0.984 . S
N562 H575 0.985 1_556 S
N563 C565 1.356 . S
N563 H568 0.984 . S
N563 H569 0.985 . S
C564 C558 1.379 . S
C564 C561 1.363 . S
C564 N562 1.356 . S
C565 C559 1.363 . S
C565 C560 1.379 . S
C565 N563 1.356 . S
N566 C558 1.356 . S
N566 H572 0.984 . S
N566 H573 0.984 . S
N567 C560 1.356 1_554 S
N567 H570 0.984 . S
N567 H571 0.985 . S
H568 N563 0.984 . S
H569 N563 0.985 . S
H570 N567 0.984 . S
H571 N567 0.985 . S
H572 N566 0.984 . S
H573 N566 0.984 . S
H574 N562 0.984 . S
H575 N562 0.985 1_554 S
C576 C577 1.363 . S
C576 C582 1.379 . S
C576 N584 1.356 . S
C577 C576 1.363 . S
C577 C583 1.363 . S
C578 C579 1.363 . S
C578 C583 1.379 . S
C578 N585 1.356 . S
C579 C578 1.363 . S
C579 C582 1.363 . S
N580 C582 1.356 1_554 S
N580 H592 0.984 . S
N580 H593 0.985 . S
N581 C583 1.356 . S
N581 H586 0.984 . S
N581 H587 0.985 . S
C582 C576 1.379 . S
C582 C579 1.363 . S
C582 N580 1.356 1_556 S
C583 C577 1.363 . S
C583 C578 1.379 . S
C583 N581 1.356 . S
N584 C576 1.356 . S
N584 H590 0.984 . S
N584 H591 0.984 . S
N585 C578 1.356 . S
N585 H588 0.984 1_556 S
N585 H589 0.985 . S
H586 N581 0.984 . S
H587 N581 0.985 . S
H588 N585 0.984 1_554 S
H589 N585 0.985 . S
H590 N584 0.984 . S
H591 N584 0.984 . S
H592 N580 0.984 . S
H593 N580 0.985 . S
C594 C595 1.363 . S
C594 C600 1.379 . S
C594 N602 1.356 . S
C595 C594 1.363 . S
C595 C601 1.363 . S
C596 C597 1.363 . S
C596 C601 1.379 . S
C596 N603 1.356 . S
C597 C596 1.363 . S
C597 C600 1.363 . S
N598 C600 1.356 1_554 S
N598 H610 0.984 . S
N598 H611 0.985 . S
N599 C601 1.356 . S
N599 H604 0.984 . S
N599 H605 0.985 . S
C600 C594 1.379 . S
C600 C597 1.363 . S
C600 N598 1.356 1_556 S
C601 C595 1.363 . S
C601 C596 1.379 . S
C601 N599 1.356 . S
N602 C594 1.356 . S
N602 H608 0.984 . S
N602 H609 0.984 . S
N603 C596 1.356 . S
N603 H606 0.984 1_556 S
N603 H607 0.985 . S
H604 N599 0.984 . S
H605 N599 0.985 . S
H606 N603 0.984 1_554 S
H607 N603 0.985 . S
H608 N602 0.984 . S
H609 N602 0.984 . S
H610 N598 0.984 . S
H611 N598 0.985 . S
C612 C613 1.363 . S
C612 C618 1.379 . S
C612 N620 1.356 . S
C613 C612 1.363 . S
C613 C619 1.363 . S
C614 C615 1.363 . S
C614 C619 1.379 . S
C614 N621 1.356 1_554 S
C615 C614 1.363 . S
C615 C618 1.363 . S
N616 C618 1.356 . S
N616 H628 0.984 . S
N616 H629 0.985 1_554 S
N617 C619 1.356 . S
N617 H622 0.984 . S
N617 H623 0.985 . S
C618 C612 1.379 . S
C618 C615 1.363 . S
C618 N616 1.356 . S
C619 C613 1.363 . S
C619 C614 1.379 . S
C619 N617 1.356 . S
N620 C612 1.356 . S
N620 H626 0.984 . S
N620 H627 0.984 . S
N621 C614 1.356 1_556 S
N621 H624 0.984 . S
N621 H625 0.985 . S
H622 N617 0.984 . S
H623 N617 0.985 . S
H624 N621 0.984 . S
H625 N621 0.985 . S
H626 N620 0.984 . S
H627 N620 0.984 . S
H628 N616 0.984 . S
H629 N616 0.985 1_556 S
C630 C631 1.363 . S
C630 C636 1.379 . S
C630 N638 1.356 1_554 S
C631 C630 1.363 . S
C631 C637 1.363 . S
C632 C633 1.363 . S
C632 C637 1.379 . S
C632 N639 1.356 . S
C633 C632 1.363 . S
C633 C636 1.363 . S
N634 C636 1.356 . S
N634 H646 0.984 . S
N634 H647 0.985 . S
N635 C637 1.356 . S
N635 H640 0.984 1_554 S
N635 H641 0.985 . S
C636 C630 1.379 . S
C636 C633 1.363 . S
C636 N634 1.356 . S
C637 C631 1.363 . S
C637 C632 1.379 . S
C637 N635 1.356 . S
N638 C630 1.356 1_556 S
N638 H644 0.984 1_556 S
N638 H645 0.984 . S
N639 C632 1.356 . S
N639 H642 0.984 . S
N639 H643 0.985 . S
H640 N635 0.984 1_556 S
H641 N635 0.985 . S
H642 N639 0.984 . S
H643 N639 0.985 . S
H644 N638 0.984 1_554 S
H645 N638 0.984 . S
H646 N634 0.984 . S
H647 N634 0.985 . S
C648 C649 1.363 . S
C648 C654 1.379 . S
C648 N656 1.356 . S
C649 C648 1.363 . S
C649 C655 1.363 . S
C650 C651 1.363 . S
C650 C655 1.379 . S
C650 N657 1.356 1_554 S
C651 C650 1.363 . S
C651 C654 1.363 . S
N652 C654 1.356 . S
N652 H664 0.984 . S
N652 H665 0.985 1_554 S
N653 C655 1.356 . S
N653 H658 0.984 . S
N653 H659 0.985 . S
C654 C648 1.379 . S
C654 C651 1.363 . S
C654 N652 1.356 . S
C655 C649 1.363 . S
C655 C650 1.379 . S
C655 N653 1.356 . S
N656 C648 1.356 . S
N656 H662 0.984 . S
N656 H663 0.984 . S
N657 C650 1.356 1_556 S
N657 H660 0.984 . S
N657 H661 0.985 1_556 S
H658 N653 0.984 . S
H659 N653 0.985 . S
H660 N657 0.984 . S
H661 N657 0.985 1_554 S
H662 N656 0.984 . S
H663 N656 0.984 . S
H664 N652 0.984 . S
H665 N652 0.985 1_556 S
C181 C2 1.771 . S
C183 C158 1.700 . S
C199 C22 1.771 . S
C201 C178 1.700 . S
C217 C42 1.771 . S
C219 C138 1.701 . S
C235 C82 1.771 . S
C237 C58 1.700 . S
C253 C102 1.771 . S
C255 C18 1.701 . S
C271 C38 1.700 . S
C273 C62 1.771 . S
C289 C142 1.771 . S
C291 C118 1.700 . S
C307 C162 1.771 . S
C309 C78 1.700 . S
C325 C98 1.700 . S
C327 C122 1.771 . S
C343 C41 1.517 . S
C345 C19 1.544 1_554 S
C361 C39 1.544 1_554 S
C363 C1 1.517 . S
C379 C21 1.517 . S
C381 C59 1.544 1_554 S
C397 C79 1.544 . S
C399 C101 1.517 . S
C415 C61 1.517 . S
C417 C99 1.544 . S
C433 C81 1.517 . S
C435 C119 1.544 . S
C451 C161 1.517 . S
C453 C139 1.544 . S
C469 C159 1.544 . S
C471 C121 1.517 . S
C487 C179 1.544 . S
C489 C141 1.517 . S
C505 C9 1.148 1_455 S
C507 C8 1.152 . S
C523 C29 1.152 . S
C525 C28 1.152 . S
C541 C49 1.152 . S
C543 C48 1.152 . S
C559 C68 1.152 . S
C561 C69 1.152 1_556 S
C577 C88 1.152 . S
C579 C89 1.152 1_556 S
C595 C108 1.152 . S
C597 C109 1.152 1_556 S
C613 C129 1.152 . S
C615 C128 1.152 1_554 S
C631 C148 1.152 1_554 S
C633 C149 1.152 . S
C649 C169 1.152 . S
C651 C168 1.152 1_554 S
