# Generated by pormake.
# Topology wfa, (4)-cn, num edge types: 1
# Building blocks:
#     Node 0, Type 0, BuildingBlock: CEKHIL_clean_sbu_0, # of connection points: 4
#     Node 1, Type 0, BuildingBlock: CEKHIL_clean_sbu_0, # of connection points: 4
#     Node 2, Type 0, BuildingBlock: CEKHIL_clean_sbu_0, # of connection points: 4
#     Node 3, Type 0, BuildingBlock: CEKHIL_clean_sbu_0, # of connection points: 4
#     Node 4, Type 0, BuildingBlock: CEKHIL_clean_sbu_0, # of connection points: 4
#     Node 5, Type 0, BuildingBlock: CEKHIL_clean_sbu_0, # of connection points: 4
#     Node 6, Type 0, BuildingBlock: CEKHIL_clean_sbu_0, # of connection points: 4
#     Node 7, Type 0, BuildingBlock: CEKHIL_clean_sbu_0, # of connection points: 4
#     Node 8, Type 0, BuildingBlock: CEKHIL_clean_sbu_0, # of connection points: 4
#     Node 9, Type 0, BuildingBlock: CEKHIL_clean_sbu_0, # of connection points: 4
#     Node 10, Type 0, BuildingBlock: CEKHIL_clean_sbu_0, # of connection points: 4
#     Node 11, Type 0, BuildingBlock: CEKHIL_clean_sbu_0, # of connection points: 4
#     Node 12, Type 0, BuildingBlock: CEKHIL_clean_sbu_0, # of connection points: 4
#     Node 13, Type 0, BuildingBlock: CEKHIL_clean_sbu_0, # of connection points: 4
#     Node 14, Type 0, BuildingBlock: CEKHIL_clean_sbu_0, # of connection points: 4
#     Node 15, Type 0, BuildingBlock: CEKHIL_clean_sbu_0, # of connection points: 4
#     Edge 16, Type (0, 0), BuildingBlock: ZUJKAS_clean_linker_0, # of connection points: 2
#     Edge 17, Type (0, 0), BuildingBlock: ZUJKAS_clean_linker_0, # of connection points: 2
#     Edge 18, Type (0, 0), BuildingBlock: ZUJKAS_clean_linker_0, # of connection points: 2
#     Edge 19, Type (0, 0), BuildingBlock: ZUJKAS_clean_linker_0, # of connection points: 2
#     Edge 20, Type (0, 0), BuildingBlock: ZUJKAS_clean_linker_0, # of connection points: 2
#     Edge 21, Type (0, 0), BuildingBlock: ZUJKAS_clean_linker_0, # of connection points: 2
#     Edge 22, Type (0, 0), BuildingBlock: ZUJKAS_clean_linker_0, # of connection points: 2
#     Edge 23, Type (0, 0), BuildingBlock: ZUJKAS_clean_linker_0, # of connection points: 2
#     Edge 24, Type (0, 0), BuildingBlock: ZUJKAS_clean_linker_0, # of connection points: 2
#     Edge 25, Type (0, 0), BuildingBlock: ZUJKAS_clean_linker_0, # of connection points: 2
#     Edge 26, Type (0, 0), BuildingBlock: ZUJKAS_clean_linker_0, # of connection points: 2
#     Edge 27, Type (0, 0), BuildingBlock: ZUJKAS_clean_linker_0, # of connection points: 2
#     Edge 28, Type (0, 0), BuildingBlock: ZUJKAS_clean_linker_0, # of connection points: 2
#     Edge 29, Type (0, 0), BuildingBlock: ZUJKAS_clean_linker_0, # of connection points: 2
#     Edge 30, Type (0, 0), BuildingBlock: ZUJKAS_clean_linker_0, # of connection points: 2
#     Edge 31, Type (0, 0), BuildingBlock: ZUJKAS_clean_linker_0, # of connection points: 2
#     Edge 32, Type (0, 0), BuildingBlock: ZUJKAS_clean_linker_0, # of connection points: 2
#     Edge 33, Type (0, 0), BuildingBlock: ZUJKAS_clean_linker_0, # of connection points: 2
#     Edge 34, Type (0, 0), BuildingBlock: ZUJKAS_clean_linker_0, # of connection points: 2
#     Edge 35, Type (0, 0), BuildingBlock: ZUJKAS_clean_linker_0, # of connection points: 2
#     Edge 36, Type (0, 0), BuildingBlock: ZUJKAS_clean_linker_0, # of connection points: 2
#     Edge 37, Type (0, 0), BuildingBlock: ZUJKAS_clean_linker_0, # of connection points: 2
#     Edge 38, Type (0, 0), BuildingBlock: ZUJKAS_clean_linker_0, # of connection points: 2
#     Edge 39, Type (0, 0), BuildingBlock: ZUJKAS_clean_linker_0, # of connection points: 2
#     Edge 40, Type (0, 0), BuildingBlock: ZUJKAS_clean_linker_0, # of connection points: 2
#     Edge 41, Type (0, 0), BuildingBlock: ZUJKAS_clean_linker_0, # of connection points: 2
#     Edge 42, Type (0, 0), BuildingBlock: ZUJKAS_clean_linker_0, # of connection points: 2
#     Edge 43, Type (0, 0), BuildingBlock: ZUJKAS_clean_linker_0, # of connection points: 2
#     Edge 44, Type (0, 0), BuildingBlock: ZUJKAS_clean_linker_0, # of connection points: 2
#     Edge 45, Type (0, 0), BuildingBlock: ZUJKAS_clean_linker_0, # of connection points: 2
#     Edge 46, Type (0, 0), BuildingBlock: ZUJKAS_clean_linker_0, # of connection points: 2
#     Edge 47, Type (0, 0), BuildingBlock: ZUJKAS_clean_linker_0, # of connection points: 2
# Relax obj value: 0.214
# Max RMSD: 0.273
# Mean RMSD: 0.267
data_MOF--net-wfa--node1-CEKHIL_clean_sbu_0--edge1-ZUJKAS_clean_linker_0
_symmetry_space_group_name_H-M    P1
_symmetry_Int_Tables_number       1
_symmetry_cell_setting            triclinic
loop_
_symmetry_equiv_pos_as_xyz
'x, y, z'
_cell_length_a     59.343838
_cell_length_b     59.353387
_cell_length_c     30.633339
_cell_angle_alpha  89.729286
_cell_angle_beta   89.741152
_cell_angle_gamma 89.550376
loop_
_atom_site_label
_atom_site_type_symbol
_atom_site_fract_x
_atom_site_fract_y
_atom_site_fract_z
_atom_type_partial_charge
Co0 Co 0.65356 0.98625 0.05048 0.0
O1 O 0.66688 0.96496 0.01092 0.0
O2 O 0.68039 0.99893 0.02389 0.0
C3 C 0.61777 0.98271 0.02699 0.0
O4 O 0.64346 0.01285 0.08795 0.0
Co5 Co 0.61837 0.96932 0.11879 0.0
O6 O 0.61172 0.00208 0.12257 0.0
C7 C 0.66692 0.96358 0.13679 0.0
C8 C 0.68182 0.98016 0.00214 0.0
C9 C 0.62581 0.01716 0.11117 0.0
O10 O 0.67182 0.974 0.10102 0.0
O11 O 0.64673 0.95862 0.14799 0.0
O12 O 0.63187 0.99541 0.00594 0.0
O13 O 0.62647 0.9706 0.05785 0.0
Co14 Co 0.51836 0.655 0.04043 0.0
O15 O 0.54073 0.66845 0.00302 0.0
O16 O 0.50679 0.68279 0.0155 0.0
C17 C 0.52132 0.61953 0.01417 0.0
O18 O 0.49074 0.64549 0.07556 0.0
Co19 Co 0.53206 0.61719 0.10644 0.0
O20 O 0.49903 0.6122 0.10754 0.0
C21 C 0.53859 0.66506 0.13003 0.0
C22 C 0.52594 0.68411 0.99482 0.0
C23 C 0.48504 0.62758 0.09655 0.0
O24 O 0.53011 0.67152 0.0933 0.0
O25 O 0.54199 0.6443 0.13989 0.0
O26 O 0.50949 0.63466 0.99364 0.0
O27 O 0.53303 0.62698 0.04642 0.0
Co28 Co 0.84337 0.52054 0.05064 0.0
O29 O 0.83131 0.54157 0.0088 0.0
O30 O 0.81563 0.50903 0.02604 0.0
C31 C 0.87923 0.52102 0.0255 0.0
O32 O 0.85173 0.49433 0.09092 0.0
Co33 Co 0.88015 0.53637 0.11557 0.0
O34 O 0.88442 0.50341 0.12327 0.0
C35 C 0.83202 0.54466 0.13635 0.0
C36 C 0.81538 0.5272 1.00202 0.0
C37 C 0.86913 0.48924 0.11407 0.0
O38 O 0.82613 0.5352 0.10037 0.0
O39 O 0.85263 0.54788 0.14677 0.0
O40 O 0.86424 0.50853 0.00696 0.0
O41 O 0.87163 0.53457 0.05506 0.0
Co42 Co 0.9882 0.84417 0.04936 0.0
O43 O 0.96802 0.83129 0.00778 0.0
O44 O 0.00102 0.81651 0.02615 0.0
C45 C 0.98655 0.87967 0.02329 0.0
O46 O 0.01366 0.85347 0.08975 0.0
Co47 Co 0.97019 0.88085 0.1131 0.0
O48 O 0.00291 0.88599 0.12145 0.0
C49 C 0.96303 0.83279 0.13407 0.0
C50 C 0.98301 0.81557 0.00209 0.0
C51 C 0.0178 0.87106 0.11271 0.0
O52 O 0.97373 0.82704 0.09912 0.0
O53 O 0.95857 0.85331 0.14385 0.0
O54 O -0.00021 0.86488 0.00525 0.0
O55 O 0.97299 0.872 0.0528 0.0
Co56 Co 0.15316 0.01361 0.4571 0.0
O57 O 0.16717 0.03577 0.49338 0.0
O58 O 0.18081 0.00152 0.48158 0.0
C59 C 0.11796 0.01767 0.48449 0.0
O60 O 0.14277 0.98603 0.42339 0.0
Co61 Co 0.11531 0.02781 0.39205 0.0
O62 O 0.10947 0.99493 0.3927 0.0
C63 C 0.16321 0.03326 0.36657 0.0
C64 C 0.18246 0.02065 0.50186 0.0
C65 C 0.12458 0.98058 0.40337 0.0
O66 O 0.16973 0.02476 0.40329 0.0
O67 O 0.14247 0.03705 0.35743 0.0
O68 O 0.13282 0.00546 0.50487 0.0
O69 O 0.12556 0.02897 0.45152 0.0
Co70 Co 0.47898 0.15455 0.46052 0.0
O71 O 0.4582 0.16863 0.50048 0.0
O72 O 0.49257 0.18092 0.4862 0.0
C73 C 0.47482 0.11875 0.48453 0.0
O74 O 0.50517 0.1438 0.42241 0.0
Co75 Co 0.46081 0.12 0.39316 0.0
O76 O 0.4934 0.11302 0.38661 0.0
C77 C 0.45638 0.16867 0.37459 0.0
C78 C 0.47391 0.18311 0.50833 0.0
C79 C 0.5089 0.12654 0.39801 0.0
O80 O 0.46708 0.17317 0.41 0.0
O81 O 0.45076 0.14866 0.36386 0.0
O82 O 0.48776 0.13262 0.50509 0.0
O83 O 0.46266 0.12776 0.45408 0.0
Co84 Co 0.34498 0.47966 0.45562 0.0
O85 O 0.33088 0.45773 0.49305 0.0
O86 O 0.31746 0.49201 0.48032 0.0
C87 C 0.38029 0.47577 0.48236 0.0
O88 O 0.35536 0.50695 0.42034 0.0
Co89 Co 0.38251 0.46499 0.39005 0.0
O90 O 0.38897 0.49775 0.39083 0.0
C91 C 0.3345 0.45992 0.36578 0.0
C92 C 0.31563 0.47294 0.50115 0.0
C93 C 0.37382 0.51221 0.40068 0.0
O94 O 0.32821 0.46828 0.40272 0.0
O95 O 0.3552 0.45622 0.35584 0.0
O96 O 0.3654 0.48805 0.50256 0.0
O97 O 0.37265 0.46423 0.45004 0.0
Co98 Co 0.01135 0.34704 0.45808 0.0
O99 O 0.03285 0.33225 0.49534 0.0
O100 O 0.99769 0.32112 0.48587 0.0
C101 C 0.01758 0.38245 0.48117 0.0
O102 O 0.98435 0.35872 0.4235 0.0
Co103 Co 0.02807 0.38146 0.38818 0.0
O104 O 0.99561 0.38981 0.38735 0.0
C105 C 0.03099 0.3327 0.36981 0.0
C106 C 0.0169 0.31837 0.50566 0.0
C107 C 0.98022 0.3765 0.40054 0.0
O108 O 0.02116 0.32826 0.40641 0.0
O109 O 0.03668 0.35263 0.3582 0.0
O110 O 0.00472 0.36904 0.50351 0.0
O111 O 0.02834 0.37318 0.44909 0.0
Co112 Co 0.3443 0.0137 0.95414 0.0
O113 O 0.32961 0.0349 0.99219 0.0
O114 O 0.31706 0.00068 0.97833 0.0
C115 C 0.37936 0.01792 0.98115 0.0
O116 O 0.35569 0.98704 0.9181 0.0
Co117 Co 0.38133 0.03034 0.88931 0.0
O118 O 0.38833 0.99765 0.88675 0.0
C119 C 0.33323 0.03524 0.86561 0.0
C120 C 0.31478 0.01944 0.99984 0.0
C121 C 0.37396 0.9826 0.8968 0.0
O122 O 0.32725 0.02561 0.90163 0.0
O123 O 0.35375 0.03983 0.85621 0.0
O124 O 0.36495 0.00503 1.00089 0.0
O125 O 0.37133 0.02972 0.9492 0.0
Co126 Co 0.47894 0.34692 0.95855 0.0
O127 O 0.45798 0.3335 0.99891 0.0
O128 O 0.49219 0.32021 0.98499 0.0
C129 C 0.47513 0.38286 0.98178 0.0
O130 O 0.50522 0.35681 0.91996 0.0
Co131 Co 0.46138 0.38202 0.89044 0.0
O132 O 0.49405 0.38833 0.88464 0.0
C133 C 0.45668 0.33339 0.87253 0.0
C134 C 0.4735 0.3186 0.00718 0.0
C135 C 0.50924 0.37414 0.89575 0.0
O136 O 0.46686 0.32854 0.9085 0.0
O137 O 0.45153 0.35358 0.86115 0.0
O138 O 0.48797 0.36869 0.00259 0.0
O139 O 0.46293 0.37414 0.95146 0.0
Co140 Co 0.15308 0.48019 0.95498 0.0
O141 O 0.16637 0.45881 0.99499 0.0
O142 O 0.17969 0.49286 0.98157 0.0
C143 C 0.11704 0.47641 0.97823 0.0
O144 O 0.14343 0.50702 0.91732 0.0
Co145 Co 0.11834 0.46386 0.88604 0.0
O146 O 0.1128 0.4967 0.87933 0.0
C147 C 0.16699 0.45755 0.86907 0.0
C148 C 0.18121 0.47409 0.00354 0.0
C149 C 0.12668 0.51155 0.89206 0.0
O150 O 0.17171 0.46813 0.90452 0.0
O151 O 0.14685 0.4526 0.85798 0.0
O152 O 0.13098 0.48898 0.99949 0.0
O153 O 0.12593 0.46466 0.94712 0.0
Co154 Co 0.01396 0.15433 0.95589 0.0
O155 O 0.03318 0.16783 0.99853 0.0
O156 O 0.9987 0.17973 0.98282 0.0
C157 C 0.01924 0.11822 0.97713 0.0
O158 O 0.98929 0.14409 0.9144 0.0
Co159 Co 0.03652 0.12227 0.88723 0.0
O160 O 0.00502 0.11956 0.86687 0.0
C161 C 0.03894 0.17139 0.87443 0.0
C162 C 0.01679 0.18183 0.00631 0.0
C163 C 0.98818 0.13077 0.88139 0.0
O164 O 0.02631 0.17448 0.90822 0.0
O165 O 0.04662 0.15202 0.86328 0.0
O166 O 0.00511 0.13109 0.99794 0.0
O167 O 0.03154 0.12825 0.94825 0.0
Co168 Co 0.8449 0.98181 0.54922 0.0
O169 O 0.83092 0.96078 0.51037 0.0
O170 O 0.81783 0.995 0.52463 0.0
C171 C 0.8804 0.97792 0.52323 0.0
O172 O 0.85516 0.00827 0.5862 0.0
Co173 Co 0.88168 0.96533 0.61474 0.0
O174 O 0.88761 0.99811 0.61894 0.0
C175 C 0.83335 0.96023 0.63727 0.0
C176 C 0.81595 0.97635 0.50281 0.0
C177 C 0.87281 0.01287 0.60866 0.0
O178 O 0.82749 0.96969 0.60103 0.0
O179 O 0.85387 0.95579 0.64712 0.0
O180 O 0.86595 0.9908 0.50326 0.0
O181 O 0.87223 0.9659 0.55469 0.0
Co182 Co 0.51745 0.84498 0.54208 0.0
O183 O 0.53832 0.832 0.50096 0.0
O184 O 0.50501 0.81771 0.51745 0.0
C185 C 0.51947 0.88086 0.51733 0.0
O186 O 0.49133 0.85451 0.58164 0.0
Co187 Co 0.53486 0.88073 0.60785 0.0
O188 O 0.50205 0.88634 0.61521 0.0
C189 C 0.54193 0.8324 0.62696 0.0
C190 C 0.52339 0.8166 0.49411 0.0
C191 C 0.48709 0.87194 0.60532 0.0
O192 O 0.53109 0.82719 0.59209 0.0
O193 O 0.54661 0.85274 0.63718 0.0
O194 O 0.50685 0.8663 0.49778 0.0
O195 O 0.53245 0.87258 0.54722 0.0
Co196 Co 0.65333 0.51877 0.55133 0.0
O197 O 0.6649 0.54039 0.51014 0.0
O198 O 0.68107 0.50759 0.52512 0.0
C199 C 0.61714 0.51953 0.52826 0.0
O200 O 0.64559 0.49203 0.5906 0.0
Co201 Co 0.61704 0.53496 0.61885 0.0
O202 O 0.61682 0.50259 0.63473 0.0
C203 C 0.66518 0.54283 0.63678 0.0
C204 C 0.68104 0.52613 0.50221 0.0
C205 C 0.6309 0.48797 0.62065 0.0
O206 O 0.67079 0.53269 0.60113 0.0
O207 O 0.64469 0.54693 0.64755 0.0
O208 O 0.63222 0.50762 0.50775 0.0
O209 O 0.62495 0.53265 0.55799 0.0
Co210 Co 0.9873 0.65516 0.5468 0.0
O211 O 0.96535 0.67073 0.51166 0.0
O212 O 0.00015 0.68249 0.52288 0.0
C213 C 0.98204 0.62061 0.51834 0.0
O214 O 0.01466 0.64303 0.57985 0.0
Co215 Co 0.97205 0.6172 0.6109 0.0
O216 O 0.00475 0.60998 0.61043 0.0
C217 C 0.968 0.66498 0.63756 0.0
C218 C 0.98089 0.68543 0.50342 0.0
C219 C 0.01956 0.62451 0.5999 0.0
O220 O 0.97686 0.67148 0.60116 0.0
O221 O 0.96348 0.64435 0.64615 0.0
O222 O 0.99461 0.63518 0.49822 0.0
O223 O 0.97111 0.62825 0.55174 0.0
H224 H 0.54166 0.1579 0.38051 0.0
H225 H 0.57539 0.15224 0.33471 0.0
H226 H 0.55997 0.08154 0.32478 0.0
H227 H 0.52681 0.08695 0.3705 0.0
H228 H 0.60665 0.09066 0.33241 0.0
H229 H 0.56505 0.14238 0.20279 0.0
H230 H 0.57025 0.15459 0.25543 0.0
H231 H 0.54946 0.133 0.2501 0.0
C232 C 0.54588 0.14107 0.36948 0.0
C233 C 0.53145 0.12291 0.37852 0.0
C234 C 0.56502 0.13791 0.34309 0.0
C235 C 0.56995 0.11655 0.32579 0.0
C236 C 0.55648 0.09818 0.33769 0.0
H237 H 0.58594 0.0376 0.12863 0.0
H238 H 0.57962 0.06978 0.17614 0.0
C239 C 0.53744 0.10132 0.36369 0.0
C240 C 0.5873 0.113 0.29153 0.0
H241 H 0.5918 0.11571 0.18057 0.0
C242 C 0.6041 0.09674 0.29933 0.0
C243 C 0.58393 0.12111 0.24852 0.0
C244 C 0.56621 0.13871 0.23831 0.0
C245 C 0.61564 0.08631 0.26472 0.0
C246 C 0.61041 0.09266 0.22129 0.0
C247 C 0.59569 0.11089 0.21391 0.0
C248 C 0.61503 0.07706 0.18463 0.0
C249 C 0.63137 0.06686 0.27469 0.0
C250 C 0.63704 0.07119 0.17167 0.0
C251 C 0.6407 0.05265 0.14422 0.0
C252 C 0.62238 0.03981 0.12982 0.0
C253 C 0.60038 0.04705 0.1397 0.0
C254 C 0.59675 0.06552 0.16671 0.0
H255 H 0.63257 0.06332 0.31025 0.0
H256 H 0.62553 0.05138 0.25811 0.0
H257 H 0.6485 0.07074 0.26226 0.0
H258 H 0.65135 0.08009 0.1847 0.0
H259 H 0.65784 0.04739 0.13705 0.0
H260 H 0.34361 0.5353 0.35102 0.0
H261 H 0.35348 0.56442 0.29728 0.0
H262 H 0.42008 0.56842 0.35227 0.0
H263 H 0.41057 0.53878 0.40478 0.0
H264 H 0.37661 0.60961 0.28975 0.0
H265 H 0.42564 0.53554 0.23138 0.0
H266 H 0.4041 0.53334 0.27284 0.0
H267 H 0.43171 0.54327 0.28666 0.0
C268 C 0.35997 0.54321 0.35291 0.0
C269 C 0.37645 0.53477 0.38155 0.0
C270 C 0.36559 0.5598 0.32217 0.0
C271 C 0.38761 0.56821 0.32043 0.0
C272 C 0.40306 0.56195 0.35295 0.0
H273 H 0.46742 0.65266 0.1615 0.0
H274 H 0.43713 0.6408 0.21043 0.0
C275 C 0.39762 0.54509 0.38296 0.0
C276 C 0.39599 0.5792 0.28017 0.0
H277 H 0.43319 0.57039 0.19707 0.0
C278 C 0.38882 0.60107 0.26908 0.0
C279 C 0.41133 0.5677 0.25259 0.0
C280 C 0.4185 0.54358 0.26112 0.0
C281 C 0.39759 0.61217 0.23203 0.0
C282 C 0.41416 0.60116 0.20618 0.0
C283 C 0.42046 0.57893 0.21656 0.0
C284 C 0.42701 0.61253 0.17072 0.0
C285 C 0.38902 0.63548 0.22108 0.0
C286 C 0.43101 0.60116 0.13118 0.0
C287 C 0.44883 0.60752 0.10399 0.0
C288 C 0.46236 0.62582 0.11518 0.0
C289 C 0.45681 0.63878 0.1519 0.0
C290 C 0.43939 0.63203 0.1798 0.0
H291 H 0.37127 0.63773 0.23199 0.0
H292 H 0.39932 0.64808 0.23851 0.0
H293 H 0.39005 0.63898 0.1855 0.0
H294 H 0.42172 0.58607 0.12341 0.0
H295 H 0.4531 0.59715 0.07608 0.0
H296 H 0.9074 0.46542 0.12812 0.0
H297 H 0.91218 0.43329 0.17683 0.0
H298 H 0.84025 0.43065 0.19716 0.0
H299 H 0.83537 0.46317 0.14792 0.0
H300 H 0.86324 0.43514 0.27307 0.0
H301 H 0.90255 0.36612 0.18049 0.0
H302 H 0.91627 0.39195 0.16645 0.0
H303 H 0.88679 0.38851 0.1541 0.0
C304 C 0.89253 0.45754 0.14183 0.0
C305 C 0.87104 0.46679 0.1345 0.0
C306 C 0.89525 0.43901 0.16939 0.0
C307 C 0.87655 0.42934 0.1903 0.0
C308 C 0.85486 0.43768 0.18095 0.0
H309 H 0.94794 0.34573 0.37923 0.0
H310 H 0.91385 0.35323 0.3361 0.0
C311 C 0.8521 0.45618 0.15277 0.0
C312 C 0.88057 0.41358 0.22719 0.0
H313 H 0.91721 0.37161 0.2555 0.0
C314 C 0.87435 0.42068 0.26925 0.0
C315 C 0.89456 0.39435 0.22249 0.0
C316 C 0.90018 0.38468 0.17831 0.0
C317 C 0.88425 0.41099 0.30644 0.0
C318 C 0.90096 0.3941 0.3012 0.0
C319 C 0.90474 0.38491 0.25961 0.0
C320 C 0.91793 0.38943 0.33553 0.0
C321 C 0.87793 0.42007 0.35074 0.0
C322 C 0.93118 0.4073 0.3504 0.0
C323 C 0.95059 0.40307 0.37454 0.0
C324 C 0.95721 0.38087 0.38436 0.0
C325 C 0.94311 0.36302 0.37237 0.0
C326 C 0.92369 0.36727 0.34766 0.0
H327 H 0.85985 0.42503 0.35169 0.0
H328 H 0.88122 0.40752 0.377 0.0
H329 H 0.88794 0.43539 0.35735 0.0
H330 H 0.92746 0.42449 0.34064 0.0
H331 H 0.96113 0.41714 0.38345 0.0
H332 H 0.03913 0.90998 0.13092 0.0
H333 H 0.07102 0.9149 0.17941 0.0
H334 H 0.07819 0.84276 0.19212 0.0
H335 H 0.04589 0.83774 0.14322 0.0
H336 H 0.07309 0.8633 0.27058 0.0
H337 H 0.13868 0.90825 0.17887 0.0
H338 H 0.11195 0.92114 0.16749 0.0
H339 H 0.11702 0.89225 0.15195 0.0
C340 C 0.0479 0.89515 0.143 0.0
C341 C 0.03999 0.8735 0.13359 0.0
C342 C 0.06631 0.89796 0.1704 0.0
C343 C 0.07722 0.87919 0.18902 0.0
C344 C 0.07018 0.85745 0.1777 0.0
H345 H 0.1576 0.95081 0.378 0.0
H346 H 0.15221 0.917 0.33348 0.0
C347 C 0.0518 0.85461 0.14971 0.0
C348 C 0.09305 0.88292 0.22552 0.0
H349 H 0.13294 0.92066 0.25548 0.0
C350 C 0.08679 0.8752 0.26721 0.0
C351 C 0.11136 0.89787 0.22133 0.0
C352 C 0.12027 0.90511 0.17733 0.0
C353 C 0.09622 0.8845 0.30491 0.0
C354 C 0.11195 0.90216 0.30059 0.0
C355 C 0.12049 0.90748 0.25899 0.0
C356 C 0.11578 0.91846 0.33629 0.0
C357 C 0.08807 0.87644 0.34893 0.0
C358 C 0.09714 0.93007 0.35379 0.0
C359 C 0.10016 0.94932 0.37885 0.0
C360 C 0.1219 0.95743 0.38687 0.0
C361 C 0.14065 0.94483 0.37249 0.0
C362 C 0.1376 0.92556 0.34698 0.0
H363 H 0.0847 0.85806 0.34826 0.0
H364 H 0.10051 0.87992 0.37498 0.0
H365 H 0.07197 0.88511 0.35711 0.0
H366 H 0.08013 0.92535 0.34523 0.0
H367 H 0.08541 0.95865 0.38967 0.0
H368 H 0.41412 0.96333 0.87627 0.0
H369 H 0.42048 0.93077 0.82992 0.0
H370 H 0.34908 0.9176 0.82882 0.0
H371 H 0.34249 0.95083 0.87492 0.0
H372 H 0.41088 0.88499 0.82977 0.0
H373 H 0.36301 0.93136 0.70071 0.0
H374 H 0.37062 0.94489 0.75102 0.0
H375 H 0.34884 0.92407 0.75076 0.0
C376 C 0.39977 0.95327 0.86696 0.0
C377 C 0.37777 0.95989 0.87846 0.0
C378 C 0.40343 0.93455 0.84062 0.0
C379 C 0.38522 0.92202 0.82511 0.0
C380 C 0.36334 0.9273 0.83978 0.0
H381 H 0.45706 0.83922 0.63043 0.0
H382 H 0.42438 0.84448 0.67918 0.0
C383 C 0.35962 0.94616 0.86639 0.0
C384 C 0.38958 0.90575 0.7894 0.0
H385 H 0.3892 0.90443 0.67804 0.0
C386 C 0.40557 0.8886 0.79661 0.0
C387 C 0.38248 0.91047 0.74621 0.0
C388 C 0.36535 0.92871 0.73633 0.0
C389 C 0.41668 0.87801 0.76162 0.0
C390 C 0.41128 0.88452 0.71838 0.0
C391 C 0.39331 0.89958 0.71126 0.0
C392 C 0.42748 0.88075 0.6821 0.0
C393 C 0.4358 0.86184 0.77129 0.0
C394 C 0.43915 0.89945 0.66568 0.0
C395 C 0.45757 0.89653 0.63798 0.0
C396 C 0.46471 0.87482 0.62591 0.0
C397 C 0.4519 0.85614 0.63927 0.0
C398 C 0.43338 0.8591 0.66737 0.0
H399 H 0.43868 0.85968 0.80688 0.0
H400 H 0.43199 0.8451 0.7573 0.0
H401 H 0.45163 0.86793 0.75596 0.0
H402 H 0.43488 0.91632 0.67648 0.0
H403 H 0.46695 0.91125 0.62779 0.0
H404 H 0.63544 0.48143 0.70659 0.0
H405 H 0.6267 0.44754 0.74784 0.0
H406 H 0.61655 0.41137 0.62765 0.0
H407 H 0.62533 0.44586 0.58594 0.0
H408 H 0.58021 0.41042 0.67777 0.0
H409 H 0.65117 0.38745 0.78344 0.0
H410 H 0.64708 0.4173 0.78676 0.0
H411 H 0.65485 0.40473 0.73521 0.0
C412 C 0.63214 0.46602 0.68898 0.0
C413 C 0.63101 0.46612 0.6433 0.0
C414 C 0.6274 0.44653 0.71256 0.0
C415 C 0.62132 0.4267 0.69097 0.0
C416 C 0.62153 0.42638 0.64499 0.0
H417 H 0.53717 0.34114 0.86385 0.0
H418 H 0.56874 0.3468 0.81261 0.0
C419 C 0.62655 0.446 0.62121 0.0
C420 C 0.61033 0.40859 0.71678 0.0
H421 H 0.61297 0.38473 0.81836 0.0
C422 C 0.5877 0.40393 0.70756 0.0
C423 C 0.62001 0.39989 0.75562 0.0
C424 C 0.64472 0.40244 0.76545 0.0
C425 C 0.57387 0.39334 0.73852 0.0
C426 C 0.5829 0.38741 0.77961 0.0
C427 C 0.60604 0.38966 0.787 0.0
C428 C 0.56768 0.38314 0.81691 0.0
C429 C 0.54914 0.39055 0.72882 0.0
C430 C 0.5574 0.40168 0.83727 0.0
C431 C 0.53941 0.39854 0.86595 0.0
C432 C 0.53155 0.37678 0.87511 0.0
C433 C 0.5431 0.35807 0.85762 0.0
C434 C 0.56102 0.36126 0.8283 0.0
H435 H 0.54561 0.39199 0.69332 0.0
H436 H 0.54314 0.37396 0.74082 0.0
H437 H 0.53936 0.40385 0.74604 0.0
H438 H 0.56236 0.41868 0.82875 0.0
H439 H 0.53083 0.41322 0.87909 0.0
H440 H 0.04985 0.65611 0.62677 0.0
H441 H 0.08297 0.64901 0.67274 0.0
H442 H 0.07313 0.57742 0.65941 0.0
H443 H 0.04048 0.58438 0.6136 0.0
H444 H 0.07782 0.62895 0.7504 0.0
H445 H 0.14062 0.57963 0.65894 0.0
H446 H 0.11933 0.59649 0.63179 0.0
H447 H 0.11338 0.56801 0.64899 0.0
C448 C 0.05537 0.63889 0.63222 0.0
C449 C 0.04252 0.62077 0.61695 0.0
C450 C 0.07424 0.63486 0.6586 0.0
C451 C 0.0807 0.61268 0.66928 0.0
C452 C 0.06889 0.59467 0.65092 0.0
H453 H 0.08775 0.53352 0.87406 0.0
H454 H 0.08294 0.56596 0.8261 0.0
C455 C 0.05004 0.59866 0.62501 0.0
C456 C 0.09653 0.60791 0.7056 0.0
H457 H 0.13484 0.5679 0.73633 0.0
C458 C 0.09092 0.61622 0.74715 0.0
C459 C 0.11404 0.59174 0.70162 0.0
C460 C 0.12232 0.58369 0.65775 0.0
C461 C 0.10018 0.60657 0.78499 0.0
C462 C 0.1151 0.58801 0.78106 0.0
C463 C 0.12302 0.58183 0.73949 0.0
C464 C 0.11867 0.57196 0.81765 0.0
C465 C 0.09264 0.61528 0.82889 0.0
C466 C 0.14038 0.56468 0.82963 0.0
C467 C 0.14315 0.54605 0.85748 0.0
C468 C 0.12424 0.53423 0.87276 0.0
C469 C 0.1026 0.54238 0.86281 0.0
C470 C 0.09985 0.56106 0.83562 0.0
H471 H 0.08936 0.63372 0.8274 0.0
H472 H 0.07664 0.607 0.83838 0.0
H473 H 0.10541 0.61177 0.85449 0.0
H474 H 0.15511 0.57268 0.81571 0.0
H475 H 0.16002 0.53991 0.86428 0.0
H476 H 0.98473 0.12449 0.79478 0.0
H477 H 0.95113 0.11786 0.75239 0.0
H478 H 0.90992 0.12659 0.86758 0.0
H479 H 0.94416 0.13336 0.91098 0.0
H480 H 0.90212 0.08683 0.82512 0.0
H481 H 0.89987 0.15476 0.70309 0.0
H482 H 0.92822 0.14445 0.70722 0.0
H483 H 0.91492 0.15742 0.75399 0.0
C484 C 0.96853 0.12533 0.81118 0.0
C485 C 0.96707 0.12916 0.85631 0.0
C486 C 0.94925 0.12191 0.78667 0.0
C487 C 0.92792 0.12222 0.80652 0.0
C488 C 0.92621 0.12667 0.8515 0.0
H489 H 0.8394 0.04013 0.64103 0.0
H490 H 0.84456 0.07259 0.68962 0.0
C491 C 0.94571 0.13045 0.87621 0.0
C492 C 0.90849 0.1143 0.7807 0.0
H493 H 0.89067 0.11638 0.67502 0.0
C494 C 0.89865 0.09381 0.79303 0.0
C495 C 0.90373 0.1235 0.739 0.0
C496 C 0.9121 0.1464 0.72537 0.0
C497 C 0.88692 0.08081 0.76261 0.0
C498 C 0.88509 0.0886 0.71908 0.0
C499 C 0.89237 0.11033 0.70833 0.0
C500 C 0.88087 0.07253 0.68347 0.0
C501 C 0.87884 0.0577 0.77571 0.0
C502 C 0.89953 0.06244 0.66297 0.0
C503 C 0.89669 0.04392 0.63586 0.0
C504 C 0.87509 0.03534 0.62834 0.0
C505 C 0.85621 0.04658 0.64603 0.0
C506 C 0.85911 0.06501 0.67385 0.0
H507 H 0.8801 0.05477 0.81147 0.0
H508 H 0.86104 0.05554 0.7657 0.0
H509 H 0.88908 0.04467 0.75868 0.0
H510 H 0.91645 0.06802 0.67018 0.0
H511 H 0.91149 0.03558 0.62253 0.0
H512 H 0.68155 0.94705 0.94137 0.0
H513 H 0.70684 0.94207 0.87941 0.0
H514 H 0.74501 -0.00013 0.91978 0.0
H515 H 0.71896 0.00555 0.98136 0.0
H516 H 0.73779 0.00119 0.8346 0.0
H517 H 0.7687 0.91575 0.87665 0.0
H518 H 0.73859 0.91657 0.87282 0.0
H519 H 0.75251 0.93262 0.91443 0.0
C520 C 0.69546 0.95859 0.93746 0.0
C521 C 0.69838 0.9766 0.96653 0.0
C522 C 0.71002 0.95562 0.90205 0.0
C523 C 0.72818 0.97024 0.89539 0.0
C524 C 0.7312 0.98825 0.92443 0.0
H525 H 0.84006 0.94584 0.72114 0.0
H526 H 0.81363 0.94775 0.78178 0.0
C527 C 0.71638 0.99145 0.95967 0.0
C528 C 0.74335 0.96718 0.85708 0.0
H529 H 0.77582 0.92826 0.80365 0.0
C530 C 0.74624 0.98529 0.82799 0.0
C531 C 0.75458 0.9465 0.84863 0.0
C532 C 0.75364 0.92686 0.88006 0.0
C533 C 0.75984 0.98325 0.79053 0.0
C534 C 0.77024 0.96225 0.78107 0.0
C535 C 0.76752 0.94422 0.8104 0.0
C536 C 0.7854 0.95911 0.74277 0.0
C537 C 0.76343 0.00383 0.76228 0.0
C538 C 0.77814 0.96392 0.70009 0.0
C539 C 0.79338 0.96309 0.66504 0.0
C540 C 0.81607 0.95707 0.67199 0.0
C541 C 0.82278 0.95067 0.71435 0.0
C542 C 0.80766 0.95178 0.74928 0.0
H543 H 0.75946 0.01963 0.78017 0.0
H544 H 0.7811 0.00469 0.75035 0.0
H545 H 0.75213 0.00306 0.73359 0.0
H546 H 0.76084 0.9689 0.69401 0.0
H547 H 0.78755 0.96795 0.63287 0.0
H548 H 0.56966 0.83468 0.69801 0.0
H549 H 0.57126 0.80856 0.75975 0.0
H550 H 0.52507 0.7644 0.69444 0.0
H551 H 0.52376 0.79014 0.63211 0.0
H552 H 0.53597 0.79875 0.81084 0.0
H553 H 0.57023 0.71959 0.74142 0.0
H554 H 0.57194 0.74622 0.71296 0.0
H555 H 0.54638 0.73012 0.71166 0.0
C556 C 0.56028 0.81913 0.69622 0.0
C557 C 0.54653 0.81457 0.66002 0.0
C558 C 0.56116 0.80424 0.73168 0.0
C559 C 0.54835 0.78446 0.7318 0.0
C560 C 0.53546 0.77931 0.69486 0.0
H561 H 0.49592 0.71425 0.95933 0.0
H562 H 0.50213 0.7394 0.89694 0.0
C563 C 0.5347 0.79412 0.65917 0.0
C564 C 0.5468 0.77043 0.77207 0.0
H565 H 0.55192 0.71663 0.81099 0.0
C566 C 0.53967 0.78083 0.81094 0.0
C567 C 0.55179 0.74708 0.77239 0.0
C568 C 0.56073 0.73513 0.73247 0.0
C569 C 0.53696 0.76848 0.84981 0.0
C570 C 0.54098 0.74495 0.84965 0.0
C571 C 0.5486 0.73463 0.81104 0.0
C572 C 0.53742 0.73069 0.88909 0.0
C573 C 0.53009 0.78083 0.89076 0.0
C574 C 0.55509 0.71725 0.90527 0.0
C575 C 0.55151 0.70272 0.94064 0.0
C576 C 0.53017 0.7013 0.96059 0.0
C577 C 0.5126 0.71513 0.945 0.0
C578 C 0.51616 0.72957 0.90938 0.0
H579 H 0.53423 0.79903 0.88864 0.0
H580 H 0.51159 0.77945 0.89531 0.0
H581 H 0.53848 0.77354 0.91996 0.0
H582 H 0.57161 0.71779 0.89015 0.0
H583 H 0.5654 0.69226 0.95179 0.0
H584 H 0.77823 0.50201 0.98109 0.0
H585 H 0.75341 0.50709 0.91788 0.0
H586 H 0.79198 0.56486 0.87706 0.0
H587 H 0.81611 0.56043 0.94064 0.0
H588 H 0.74918 0.57343 0.86692 0.0
H589 H 0.76769 0.48996 0.79454 0.0
H590 H 0.75617 0.48783 0.84861 0.0
H591 H 0.78322 0.50076 0.84026 0.0
C592 C 0.78128 0.51587 0.95878 0.0
C593 C 0.79918 0.53076 0.96585 0.0
C594 C 0.76724 0.51863 0.92238 0.0
C595 C 0.77112 0.53605 0.89199 0.0
C596 C 0.78866 0.55122 0.89977 0.0
H597 H 0.71102 0.53518 0.63122 0.0
H598 H 0.73822 0.53608 0.6911 0.0
C599 C 0.80247 0.54865 0.93627 0.0
C600 C 0.75698 0.53877 0.85219 0.0
H601 H 0.73779 0.51112 0.76229 0.0
C602 C 0.74681 0.55981 0.84394 0.0
C603 C 0.75427 0.52122 0.82151 0.0
C604 C 0.76611 0.49876 0.82636 0.0
C605 C 0.73367 0.56366 0.80656 0.0
C606 C 0.72991 0.54574 0.77715 0.0
C607 C 0.74049 0.52484 0.78487 0.0
C608 C 0.71424 0.54789 0.73947 0.0
C609 C 0.72429 0.58703 0.79874 0.0
C610 C 0.69181 0.55467 0.74633 0.0
C611 C 0.67636 0.55457 0.7121 0.0
C612 C 0.68277 0.54717 0.67016 0.0
C613 C 0.70545 0.54108 0.66292 0.0
C614 C 0.72101 0.54144 0.69724 0.0
H615 H 0.73502 0.60003 0.81408 0.0
H616 H 0.72287 0.59088 0.76335 0.0
H617 H 0.70728 0.58834 0.81378 0.0
H618 H 0.68592 0.55914 0.77868 0.0
H619 H 0.65905 0.55921 0.71928 0.0
H620 H 0.94996 0.81446 0.94114 0.0
H621 H 0.94617 0.78855 0.88038 0.0
H622 H 0.00537 0.75218 0.92311 0.0
H623 H 0.00975 0.77874 0.98368 0.0
H624 H 0.00661 0.75983 0.83694 0.0
H625 H 0.92302 0.72546 0.87981 0.0
H626 H 0.9223 0.75559 0.87582 0.0
H627 H 0.93913 0.74213 0.91738 0.0
C628 C 0.96207 0.80081 0.93804 0.0
C629 C 0.98009 0.79856 0.96745 0.0
C630 C 0.95978 0.7859 0.90332 0.0
C631 C 0.97519 0.76812 0.89761 0.0
C632 C 0.99317 0.7657 0.92706 0.0
H633 H 0.95598 0.65649 0.72224 0.0
H634 H 0.95749 0.6821 0.78377 0.0
C635 C 0.99562 0.78082 0.96171 0.0
C636 C 0.973 0.75279 0.8597 0.0
H637 H 0.93582 0.71896 0.80677 0.0
C638 C 0.9912 0.75074 0.8305 0.0
C639 C 0.95296 0.74075 0.85151 0.0
C640 C 0.93335 0.74089 0.88306 0.0
C641 C 0.98981 0.73726 0.79306 0.0
C642 C 0.9694 0.72607 0.78382 0.0
C643 C 0.95132 0.72787 0.81337 0.0
C644 C 0.96689 0.71122 0.74523 0.0
C645 C 0.01045 0.73473 0.76445 0.0
C646 C 0.97087 0.71921 0.70264 0.0
C647 C 0.97025 0.70447 0.66709 0.0
C648 C 0.96527 0.68153 0.67345 0.0
C649 C 0.95994 0.67399 0.71589 0.0
C650 C 0.96082 0.68864 0.75131 0.0
H651 H 0.02608 0.73916 0.78219 0.0
H652 H 0.01221 0.71722 0.7522 0.0
H653 H 0.00894 0.74625 0.73597 0.0
H654 H 0.97489 0.73674 0.69696 0.0
H655 H 0.97426 0.71092 0.63487 0.0
H656 H 0.2189 0.99418 0.52384 0.0
H657 H 0.24426 0.99914 0.58598 0.0
H658 H 0.20839 0.05985 0.6218 0.0
H659 H 0.18375 0.05553 0.55905 0.0
H660 H 0.25146 0.06589 0.6318 0.0
H661 H 0.22894 0.98482 0.71017 0.0
H662 H 0.24044 0.98109 0.65644 0.0
H663 H 0.21404 0.99585 0.66348 0.0
C664 C 0.21661 0.00869 0.54474 0.0
C665 C 0.19927 0.0244 0.53661 0.0
C666 C 0.23094 0.01139 0.58055 0.0
C667 C 0.22787 0.02956 0.60936 0.0
C668 C 0.21104 0.04562 0.60032 0.0
H669 H 0.28726 0.02943 0.87052 0.0
H670 H 0.26038 0.03055 0.81007 0.0
C671 C 0.19696 0.04312 0.5643 0.0
C672 C 0.24206 0.03198 0.649 0.0
H673 H 0.25988 0.00443 0.74087 0.0
C674 C 0.25319 0.05247 0.65575 0.0
C675 C 0.24391 0.01473 0.68093 0.0
C676 C 0.231 0.99299 0.6777 0.0
C677 C 0.26647 0.056 0.69289 0.0
C678 C 0.26937 0.03828 0.72352 0.0
C679 C 0.25783 0.01798 0.71729 0.0
C680 C 0.28504 0.03999 0.76112 0.0
C681 C 0.27692 0.07886 0.69915 0.0
C682 C 0.30777 0.04522 0.75397 0.0
C683 C 0.32305 0.04496 0.78846 0.0
C684 C 0.31611 0.03896 0.83096 0.0
C685 C 0.2932 0.0342 0.83833 0.0
C686 C 0.27783 0.03473 0.80374 0.0
H687 H 0.26688 0.09228 0.68269 0.0
H688 H 0.27839 0.08312 0.73427 0.0
H689 H 0.29402 0.07887 0.68433 0.0
H690 H 0.31395 0.0487 0.72134 0.0
H691 H 0.34055 0.04849 0.78123 0.0
H692 H 0.43536 0.19356 0.55259 0.0
H693 H 0.43086 0.21903 0.6144 0.0
H694 H 0.50138 0.23573 0.60657 0.0
H695 H 0.5059 0.21056 0.54386 0.0
H696 H 0.45099 0.21624 0.69348 0.0
H697 H 0.47223 0.29751 0.61377 0.0
H698 H 0.46658 0.27233 0.58304 0.0
H699 H 0.49369 0.27626 0.60779 0.0
C700 C 0.44987 0.20288 0.56359 0.0
C701 C 0.47098 0.20011 0.54318 0.0
C702 C 0.44728 0.21738 0.59907 0.0
C703 C 0.46571 0.22945 0.61496 0.0
C704 C 0.48679 0.22694 0.59436 0.0
H705 H 0.47602 0.29128 0.87111 0.0
H706 H 0.47681 0.26498 0.81004 0.0
C707 C 0.48938 0.21251 0.55858 0.0
C708 C 0.46291 0.24392 0.65414 0.0
H709 H 0.46865 0.29775 0.691 0.0
C710 C 0.45477 0.23409 0.6929 0.0
C711 C 0.46761 0.26724 0.65327 0.0
C712 C 0.4753 0.27905 0.61215 0.0
C713 C 0.45138 0.2469 0.73088 0.0
C714 C 0.45668 0.2701 0.73033 0.0
C715 C 0.46466 0.27994 0.69147 0.0
C716 C 0.45413 0.2846 0.76951 0.0
C717 C 0.44177 0.23555 0.77092 0.0
C718 C 0.44096 0.30432 0.76735 0.0
C719 C 0.4406 0.31949 0.8021 0.0
C720 C 0.45345 0.31531 0.83983 0.0
C721 C 0.46572 0.29497 0.84282 0.0
C722 C 0.46619 0.27985 0.80786 0.0
H723 H 0.43265 0.21989 0.76246 0.0
H724 H 0.45573 0.23086 0.79325 0.0
H725 H 0.43003 0.24696 0.78869 0.0
H726 H 0.43147 0.30831 0.73815 0.0
H727 H 0.43093 0.33494 0.79862 0.0
H728 H 0.30685 0.43391 0.54506 0.0
H729 H 0.28151 0.42854 0.60724 0.0
H730 H 0.26107 0.49832 0.59915 0.0
H731 H 0.28611 0.50373 0.53625 0.0
H732 H 0.28348 0.44924 0.68619 0.0
H733 H 0.20092 0.46671 0.60858 0.0
H734 H 0.22628 0.46175 0.57722 0.0
H735 H 0.22088 0.48895 0.60091 0.0
C736 C 0.29669 0.44805 0.55603 0.0
C737 C 0.29842 0.46924 0.53558 0.0
C738 C 0.28228 0.44496 0.59172 0.0
C739 C 0.26925 0.46296 0.60771 0.0
C740 C 0.27063 0.48406 0.58689 0.0
H741 H 0.20871 0.47701 0.86459 0.0
H742 H 0.2348 0.47631 0.80265 0.0
C743 C 0.28499 0.48715 0.55098 0.0
C744 C 0.25508 0.45984 0.64739 0.0
H745 H 0.20127 0.46479 0.68618 0.0
C746 C 0.26547 0.45251 0.68615 0.0
C747 C 0.23155 0.46384 0.64722 0.0
C748 C 0.21918 0.47054 0.60617 0.0
C749 C 0.25305 0.44946 0.72488 0.0
C750 C 0.22966 0.45425 0.72507 0.0
C751 C 0.21923 0.46122 0.68613 0.0
C752 C 0.21557 0.45241 0.76517 0.0
C753 C 0.26503 0.44082 0.765 0.0
C754 C 0.1962 0.439 0.76508 0.0
C755 C 0.18116 0.43949 0.8003 0.0
C756 C 0.18513 0.45345 0.83644 0.0
C757 C 0.20521 0.4659 0.83755 0.0
C758 C 0.22019 0.46551 0.8021 0.0
H759 H 0.28089 0.43177 0.75639 0.0
H760 H 0.26948 0.45528 0.78601 0.0
H761 H 0.25414 0.42928 0.78422 0.0
H762 H 0.19231 0.42871 0.73703 0.0
H763 H 0.16593 0.42962 0.79834 0.0
H764 H 0.98505 0.29183 0.54514 0.0
H765 H 0.99 0.26809 0.61024 0.0
H766 H 0.0608 0.28387 0.61183 0.0
H767 H 0.05598 0.30777 0.54745 0.0
H768 H 0.01737 0.23085 0.62646 0.0
H769 H 0.04007 0.30183 0.73434 0.0
H770 H 0.02784 0.30602 0.68105 0.0
H771 H 0.05742 0.29982 0.68633 0.0
C772 C 0.0017 0.29005 0.55913 0.0
C773 C 0.02008 0.3018 0.54137 0.0
C774 C 0.00449 0.27657 0.59639 0.0
C775 C 0.02566 0.27468 0.61646 0.0
C776 C 0.0442 0.28558 0.59756 0.0
H777 H 0.06707 0.17312 0.80339 0.0
H778 H 0.0649 0.19965 0.74241 0.0
C779 C 0.04143 0.29908 0.56052 0.0
C780 C 0.02846 0.26133 0.65713 0.0
H781 H 0.04569 0.26486 0.76322 0.0
C782 C 0.02348 0.23829 0.65639 0.0
C783 C 0.03611 0.27117 0.69636 0.0
C784 C 0.04046 0.29611 0.69986 0.0
C785 C 0.02647 0.22468 0.69353 0.0
C786 C 0.03507 0.23431 0.73217 0.0
C787 C 0.03948 0.25747 0.73331 0.0
C788 C 0.03904 0.22054 0.7719 0.0
C789 C 0.02009 0.20014 0.69125 0.0
C790 C 0.02631 0.2244 0.80987 0.0
C791 C 0.02765 0.20937 0.84511 0.0
C792 C 0.04174 0.1902 0.84284 0.0
C793 C 0.05584 0.18752 0.80611 0.0
C794 C 0.05452 0.20258 0.77104 0.0
H795 H 0.00872 0.19676 0.66336 0.0
H796 H 0.03556 0.18976 0.68689 0.0
H797 H 0.01163 0.19463 0.72186 0.0
H798 H 0.01443 0.23834 0.81131 0.0
H799 H 0.01658 0.21202 0.87284 0.0
H800 H 0.15488 0.04479 0.2817 0.0
H801 H 0.18089 0.04372 0.22039 0.0
H802 H 0.23573 0.02821 0.30773 0.0
H803 H 0.20946 0.02829 0.36968 0.0
H804 H 0.21644 0.06608 0.19645 0.0
H805 H 0.24153 0.97695 0.22381 0.0
H806 H 0.21886 0.99021 0.25375 0.0
H807 H 0.24769 0.99477 0.26928 0.0
C808 C 0.17249 0.04133 0.28825 0.0
C809 C 0.17996 0.03636 0.33083 0.0
C810 C 0.18739 0.04071 0.25292 0.0
C811 C 0.21019 0.03529 0.25914 0.0
C812 C 0.21806 0.0317 0.30187 0.0
H813 H 0.3117 0.05391 0.05769 0.0
H814 H 0.28598 0.05776 0.11932 0.0
C815 C 0.20306 0.03203 0.33737 0.0
C816 C 0.22535 0.03305 0.22052 0.0
H817 H 0.26101 0.99663 0.16788 0.0
C818 C 0.22617 0.05087 0.19022 0.0
C819 C 0.23765 0.013 0.21175 0.0
C820 C 0.23625 0.99255 0.2411 0.0
C821 C 0.23901 0.0493 0.15172 0.0
C822 C 0.25208 0.02966 0.14391 0.0
C823 C 0.25112 0.01175 0.17397 0.0
C824 C 0.26724 0.02752 0.1053 0.0
C825 C 0.23789 0.06852 0.11934 0.0
C826 C 0.26574 0.00889 0.07726 0.0
C827 C 0.28079 0.00641 0.04217 0.0
C828 C 0.29755 0.02257 0.03446 0.0
C829 C 0.29881 0.0413 0.06229 0.0
C830 C 0.28399 0.04361 0.09753 0.0
H831 H 0.22189 0.07823 0.12268 0.0
H832 H 0.25195 0.08027 0.12558 0.0
H833 H 0.23931 0.06241 0.08523 0.0
H834 H 0.25303 0.99617 0.08273 0.0
H835 H 0.27949 0.99174 0.02148 0.0
H836 H 0.42953 0.16812 0.30206 0.0
H837 H 0.43014 0.19456 0.24074 0.0
H838 H 0.4772 0.23627 0.3096 0.0
H839 H 0.47637 0.21017 0.37157 0.0
H840 H 0.44613 0.26132 0.26362 0.0
H841 H 0.48406 0.19525 0.15828 0.0
H842 H 0.45743 0.18745 0.18161 0.0
H843 H 0.48123 0.19194 0.2166 0.0
C844 C 0.43973 0.18311 0.30457 0.0
C845 C 0.45314 0.18683 0.34161 0.0
C846 C 0.44019 0.19812 0.26928 0.0
C847 C 0.45426 0.21701 0.27002 0.0
C848 C 0.46641 0.22165 0.30811 0.0
H849 H 0.50518 0.2904 0.04354 0.0
H850 H 0.50046 0.26583 0.1075 0.0
C851 C 0.46584 0.20673 0.34363 0.0
C852 C 0.45715 0.23129 0.23044 0.0
H853 H 0.47379 0.22958 0.12351 0.0
C854 C 0.45218 0.2544 0.23298 0.0
C855 C 0.46552 0.22232 0.19069 0.0
C856 C 0.4726 0.19794 0.18659 0.0
C857 C 0.45494 0.26871 0.19669 0.0
C858 C 0.46245 0.25956 0.15647 0.0
C859 C 0.4678 0.23653 0.15416 0.0
C860 C 0.46506 0.27365 0.11653 0.0
C861 C 0.45026 0.29357 0.2021 0.0
C862 C 0.44659 0.28565 0.09952 0.0
C863 C 0.44926 0.29971 0.06319 0.0
C864 C 0.47041 0.30186 0.04269 0.0
C865 C 0.48868 0.28909 0.05857 0.0
C866 C 0.48602 0.27511 0.09519 0.0
H867 H 0.45106 0.29869 0.2369 0.0
H868 H 0.46245 0.30383 0.18309 0.0
H869 H 0.43305 0.29748 0.19009 0.0
H870 H 0.43012 0.2843 0.11461 0.0
H871 H 0.43479 0.30917 0.05155 0.0
H872 H 0.34215 0.44988 0.27996 0.0
H873 H 0.31528 0.45052 0.22038 0.0
H874 H 0.26112 0.46304 0.31166 0.0
H875 H 0.28819 0.46332 0.37182 0.0
H876 H 0.27994 0.42689 0.19858 0.0
H877 H 0.25237 0.51495 0.22921 0.0
H878 H 0.27593 0.50222 0.25719 0.0
H879 H 0.24755 0.49641 0.27466 0.0
C880 C 0.32452 0.45257 0.28771 0.0
C881 C 0.31744 0.45678 0.33089 0.0
C882 C 0.30912 0.45296 0.25339 0.0
C883 C 0.28621 0.45739 0.26123 0.0
C884 C 0.27881 0.46028 0.30455 0.0
H885 H 0.18361 0.43917 0.06148 0.0
H886 H 0.20899 0.43479 0.12341 0.0
C887 C 0.2943 0.46019 0.33902 0.0
C888 C 0.27043 0.45945 0.22368 0.0
H889 H 0.23325 0.49535 0.1736 0.0
C890 C 0.26972 0.44186 0.19318 0.0
C891 C 0.2574 0.47918 0.21602 0.0
C892 C 0.25847 0.49936 0.24572 0.0
C893 C 0.2564 0.44341 0.15544 0.0
C894 C 0.24281 0.46281 0.14856 0.0
C895 C 0.24354 0.48042 0.17897 0.0
C896 C 0.22772 0.46523 0.11007 0.0
C897 C 0.25759 0.42449 0.12274 0.0
C898 C 0.22935 0.48409 0.08231 0.0
C899 C 0.21458 0.48682 0.04707 0.0
C900 C 0.19791 0.47071 0.03889 0.0
C901 C 0.19643 0.45177 0.06651 0.0
C902 C 0.21104 0.44917 0.1019 0.0
H903 H 0.27356 0.41471 0.12575 0.0
H904 H 0.24346 0.41273 0.12882 0.0
H905 H 0.25625 0.43096 0.08878 0.0
H906 H 0.24201 0.49678 0.08804 0.0
H907 H 0.21608 0.50165 0.02655 0.0
H908 H 0.05429 0.19281 0.05203 0.0
H909 H 0.05691 0.21756 0.11511 0.0
H910 H 0.98582 0.23241 0.10612 0.0
H911 H 0.98314 0.20793 0.04202 0.0
H912 H 0.01053 0.26995 0.122 0.0
H913 H 0.03537 0.20206 0.23712 0.0
H914 H 0.0538 0.20381 0.19067 0.0
H915 H 0.02473 0.19637 0.18322 0.0
C916 C 0.0392 0.2014 0.0633 0.0
C917 C 0.01846 0.1983 0.04222 0.0
C918 C 0.0407 0.2154 0.09963 0.0
C919 C 0.02146 0.22635 0.11606 0.0
C920 C 0.00084 0.22392 0.09423 0.0
H921 H 0.01081 0.29128 0.36999 0.0
H922 H 0.00889 0.26481 0.30919 0.0
C923 C 0.99934 0.20999 0.05757 0.0
C924 C 0.02301 0.24054 0.1557 0.0
H925 H 0.03974 0.2398 0.26233 0.0
C926 C 0.01679 0.26334 0.15274 0.0
C927 C 0.03083 0.23179 0.19604 0.0
C928 C 0.03634 0.20712 0.20219 0.0
C929 C 0.01875 0.27778 0.18866 0.0
C930 C 0.02768 0.2693 0.22833 0.0
C931 C 0.03329 0.24636 0.23168 0.0
C932 C 0.03092 0.28398 0.26682 0.0
C933 C 0.01091 0.30192 0.18392 0.0
C934 C 0.04481 0.30295 0.26394 0.0
C935 C 0.04591 0.31814 0.29853 0.0
C936 C 0.03332 0.31453 0.33696 0.0
C937 C 0.02072 0.29463 0.34092 0.0
C938 C 0.01951 0.27951 0.30611 0.0
H939 H 0.99895 0.30402 0.15636 0.0
H940 H 0.00257 0.30794 0.21427 0.0
H941 H 0.02567 0.31279 0.17727 0.0
H942 H 0.05429 0.30637 0.23438 0.0
H943 H 0.05601 0.33314 0.29451 0.0
H944 H 0.66561 0.93649 0.20935 0.0
H945 H 0.69187 0.93635 0.27049 0.0
H946 H 0.73473 0.98282 0.20118 0.0
H947 H 0.7088 0.98272 0.13936 0.0
H948 H 0.75899 0.95106 0.24729 0.0
H949 H 0.69329 0.99014 0.35237 0.0
H950 H 0.68493 0.96379 0.32921 0.0
H951 H 0.6902 0.98756 0.29406 0.0
C952 C 0.68082 0.94638 0.2067 0.0
C953 C 0.68492 0.95984 0.16959 0.0
C954 C 0.69572 0.94642 0.24188 0.0
C955 C 0.71488 0.96012 0.24094 0.0
C956 C 0.7199 0.97231 0.20278 0.0
H957 H 0.78812 0.00849 0.46715 0.0
H958 H 0.76366 0.00447 0.40344 0.0
C959 C 0.70508 0.97215 0.16736 0.0
C960 C 0.72904 0.9626 0.28045 0.0
H961 H 0.72713 0.97877 0.38734 0.0
C962 C 0.75205 0.95712 0.27792 0.0
C963 C 0.72006 0.97101 0.32014 0.0
C964 C 0.69583 0.97869 0.32415 0.0
C965 C 0.76623 0.95939 0.31423 0.0
C966 C 0.75702 0.96687 0.35444 0.0
C967 C 0.7341 0.97275 0.35671 0.0
C968 C 0.77095 0.96899 0.39438 0.0
C969 C 0.79102 0.95422 0.30884 0.0
C970 C 0.78256 0.95025 0.41134 0.0
C971 C 0.79659 0.95252 0.44754 0.0
C972 C 0.79904 0.97354 0.46793 0.0
C973 C 0.78657 0.99208 0.4522 0.0
C974 C 0.77265 0.98981 0.41572 0.0
H975 H 0.79634 0.95513 0.27405 0.0
H976 H 0.80144 0.96609 0.32791 0.0
H977 H 0.79452 0.93687 0.32076 0.0
H978 H 0.781 0.93387 0.39624 0.0
H979 H 0.80583 0.93787 0.45907 0.0
H980 H 0.49736 0.77986 0.4749 0.0
H981 H 0.50237 0.75363 0.41383 0.0
H982 H 0.56114 0.79023 0.37156 0.0
H983 H 0.55673 0.81581 0.43295 0.0
H984 H 0.50105 0.76136 0.32838 0.0
H985 H 0.58552 0.72742 0.36851 0.0
H986 H 0.56921 0.74396 0.40665 0.0
H987 H 0.58555 0.75755 0.36455 0.0
C988 C 0.51152 0.78207 0.45292 0.0
C989 C 0.52675 0.79979 0.45902 0.0
C990 C 0.51435 0.76713 0.41796 0.0
C991 C 0.53239 0.76968 0.38844 0.0
C992 C 0.5475 0.78744 0.3945 0.0
H993 H 0.53248 0.71113 0.12606 0.0
H994 H 0.53244 0.73753 0.18728 0.0
C995 C 0.54485 0.80217 0.42959 0.0
C996 C 0.53487 0.7545 0.35013 0.0
H997 H 0.57243 0.72061 0.29616 0.0
C998 C 0.51661 0.75233 0.32149 0.0
C999 C 0.55511 0.74253 0.34127 0.0
C1000 C 0.57486 0.74278 0.37214 0.0
C1001 C 0.51807 0.73874 0.28413 0.0
C1002 C 0.53863 0.72753 0.27429 0.0
C1003 C 0.55681 0.72952 0.30318 0.0
C1004 C 0.54112 0.71238 0.23594 0.0
C1005 C 0.49733 0.73603 0.25635 0.0
C1006 C 0.54745 0.68979 0.24235 0.0
C1007 C 0.54798 0.6748 0.20737 0.0
C1008 C 0.54205 0.68198 0.16502 0.0
C1009 C 0.53697 0.70493 0.1582 0.0
C1010 C 0.53667 0.72001 0.1933 0.0
H1011 H 0.48172 0.74062 0.27451 0.0
H1012 H 0.49855 0.74733 0.22749 0.0
H1013 H 0.49575 0.71844 0.24465 0.0
H1014 H 0.55116 0.6835 0.27481 0.0
H1015 H 0.55208 0.65732 0.21409 0.0
H1016 H 0.71907 0.50171 0.48103 0.0
H1017 H 0.74467 0.50805 0.41912 0.0
H1018 H 0.70469 0.56553 0.37937 0.0
H1019 H 0.6797 0.55982 0.44168 0.0
H1020 H 0.73662 0.50668 0.33429 0.0
H1021 H 0.76601 0.59239 0.37357 0.0
H1022 H 0.75055 0.5754 0.41221 0.0
H1023 H 0.73589 0.59116 0.37057 0.0
C1024 C 0.71597 0.51589 0.45944 0.0
C1025 C 0.69747 0.53036 0.46652 0.0
C1026 C 0.73056 0.51947 0.42398 0.0
C1027 C 0.72688 0.53753 0.39487 0.0
C1028 C 0.70834 0.5519 0.40194 0.0
H1029 H 0.78608 0.5384 0.13165 0.0
H1030 H 0.75919 0.53864 0.19252 0.0
C1031 C 0.69395 0.5485 0.43755 0.0
C1032 C 0.7417 0.54071 0.35595 0.0
H1033 H 0.77355 0.5795 0.30123 0.0
C1034 C 0.74479 0.52257 0.3272 0.0
C1035 C 0.75256 0.56138 0.34679 0.0
C1036 C 0.75129 0.5811 0.37767 0.0
C1037 C 0.7583 0.52453 0.28958 0.0
C1038 C 0.76844 0.54547 0.2795 0.0
C1039 C 0.76546 0.56357 0.30841 0.0
C1040 C 0.78362 0.54841 0.24105 0.0
C1041 C 0.76212 0.50387 0.26185 0.0
C1042 C 0.80588 0.55544 0.24733 0.0
C1043 C 0.82114 0.55584 0.2125 0.0
C1044 C 0.81458 0.54906 0.17043 0.0
C1045 C 0.79184 0.54353 0.16358 0.0
C1046 C 0.77648 0.54339 0.19851 0.0
H1047 H 0.75826 0.48813 0.28008 0.0
H1048 H 0.75085 0.50468 0.23307 0.0
H1049 H 0.77981 0.50289 0.25005 0.0
H1050 H 0.81179 0.55964 0.27968 0.0
H1051 H 0.83843 0.56034 0.21922 0.0
H1052 H 0.93707 0.83655 0.20799 0.0
H1053 H 0.93705 0.81112 0.27093 0.0
H1054 H 0.98008 0.76463 0.20128 0.0
H1055 H 0.97987 0.78968 0.13779 0.0
H1056 H 0.94846 0.74297 0.25176 0.0
H1057 H 0.99274 0.80786 0.34816 0.0
H1058 H 0.96616 0.81722 0.32665 0.0
H1059 H 0.98887 0.81022 0.28994 0.0
C1060 C 0.94617 0.82071 0.20564 0.0
C1061 C 0.95874 0.81534 0.16794 0.0
C1062 C 0.9463 0.80628 0.24185 0.0
C1063 C 0.95915 0.78635 0.24127 0.0
C1064 C 0.97026 0.78008 0.2026 0.0
H1065 H 0.0125 0.71204 0.46362 0.0
H1066 H 0.00685 0.73694 0.40044 0.0
C1067 C 0.97003 0.79441 0.16622 0.0
C1068 C 0.96204 0.77265 0.28157 0.0
H1069 H 0.98164 0.77489 0.3862 0.0
C1070 C 0.95567 0.74994 0.28119 0.0
C1071 C 0.97194 0.78165 0.31964 0.0
C1072 C 0.98055 0.8055 0.32117 0.0
C1073 C 0.95862 0.73606 0.31803 0.0
C1074 C 0.96773 0.7453 0.35664 0.0
C1075 C 0.97439 0.76792 0.3568 0.0
C1076 C 0.97086 0.73161 0.39691 0.0
C1077 C 0.95248 0.7115 0.31482 0.0
C1078 C 0.9524 0.72107 0.4169 0.0
C1079 C 0.9556 0.7068 0.45277 0.0
C1080 C 0.97729 0.70304 0.46977 0.0
C1081 C 0.99559 0.71462 0.4513 0.0
C1082 C 0.9924 0.72878 0.41511 0.0
H1083 H 0.95186 0.70582 0.28034 0.0
H1084 H 0.96473 0.7007 0.33274 0.0
H1085 H 0.93554 0.70896 0.32942 0.0
H1086 H 0.93555 0.72352 0.40424 0.0
H1087 H 0.94112 0.69828 0.46652 0.0
H1088 H 0.41333 0.04053 0.94 0.0
H1089 H 0.45393 0.03465 0.9488 0.0
H1090 H 0.44133 0.98472 0.04849 0.0
H1091 H 0.40069 0.9906 0.04014 0.0
H1092 H 0.4762 0.01575 0.06873 0.0
H1093 H 0.48735 0.97785 0.90445 0.0
H1094 H 0.47367 0.00496 0.90474 0.0
H1095 H 0.46004 0.98127 0.92993 0.0
C1096 C 0.4192 0.0284 0.96399 0.0
C1097 C 0.40383 0.0159 0.98916 0.0
C1098 C 0.44238 0.02498 0.96879 0.0
C1099 C 0.45057 0.00896 0.99871 0.0
C1100 C 0.4353 0.99705 0.02501 0.0
H1101 H 0.58436 0.96076 0.07137 0.0
H1102 H 0.54364 0.96672 0.06478 0.0
C1103 C 0.41211 0.00045 0.02021 0.0
C1104 C 0.47506 0.00439 0.00216 0.0
H1105 H 0.52057 0.985 0.94456 0.0
C1106 C 0.48592 0.00894 0.0417 0.0
C1107 C 0.48761 0.99547 0.96679 0.0
C1108 C 0.4766 0.98939 0.92417 0.0
C1109 C 0.50918 0.00526 0.04653 0.0
C1110 C 0.52175 0.9964 0.01111 0.0
C1111 C 0.51086 0.99178 0.97163 0.0
C1112 C 0.54631 0.99212 0.01415 0.0
C1113 C 0.52021 0.01138 0.08911 0.0
C1114 C 0.56122 0.00388 0.98686 0.0
C1115 C 0.58445 0.00042 0.99035 0.0
C1116 C 0.59317 0.98504 0.02108 0.0
C1117 C 0.57816 0.97281 0.04755 0.0
C1118 C 0.55491 0.9763 0.04404 0.0
H1119 H 0.50942 0.02285 0.1089 0.0
H1120 H 0.52325 0.99582 0.10849 0.0
H1121 H 0.53671 0.0196 0.08328 0.0
H1122 H 0.55489 0.01607 0.96339 0.0
H1123 H 0.59559 0.01008 0.96947 0.0
H1124 H 0.50264 0.40476 0.03827 0.0
H1125 H 0.5095 0.44524 0.04256 0.0
H1126 H 0.46109 0.45714 0.94028 0.0
H1127 H 0.45391 0.41662 0.93614 0.0
H1128 H 0.52564 0.4725 0.9747 0.0
H1129 H 0.44219 0.50278 0.03402 0.0
H1130 H 0.45074 0.47356 0.03717 0.0
H1131 H 0.44128 0.48536 0.98627 0.0
C1132 C 0.49322 0.416 0.01707 0.0
C1133 C 0.4777 0.40749 0.98689 0.0
C1134 C 0.49721 0.43913 0.01949 0.0
C1135 C 0.48568 0.45422 0.99201 0.0
C1136 C 0.4699 0.44583 0.96232 0.0
H1137 H 0.49297 0.59964 0.95608 0.0
H1138 H 0.48513 0.55942 0.9485 0.0
C1139 C 0.46588 0.42266 0.95988 0.0
C1140 C 0.49106 0.47859 0.99308 0.0
H1141 H 0.46855 0.53066 0.01323 0.0
C1142 C 0.51318 0.48522 0.98324 0.0
C1143 C 0.47475 0.49514 0.00401 0.0
C1144 C 0.45095 0.48892 0.01635 0.0
C1145 C 0.51939 0.508 0.98368 0.0
C1146 C 0.50314 0.52455 0.995 0.0
C1147 C 0.48097 0.51793 0.00449 0.0
C1148 C 0.50886 0.54878 0.99803 0.0
C1149 C 0.54321 0.51417 0.97133 0.0
C1150 C 0.52485 0.55615 0.02832 0.0
C1151 C 0.52943 0.57911 0.03261 0.0
C1152 C 0.51797 0.59515 0.00691 0.0
C1153 C 0.50217 0.58771 0.97622 0.0
C1154 C 0.4976 0.56474 0.97195 0.0
H1155 H 0.55161 0.5006 0.95223 0.0
H1156 H 0.54356 0.53 0.95189 0.0
H1157 H 0.55313 0.5168 1.00147 0.0
H1158 H 0.53344 0.54418 0.04936 0.0
H1159 H 0.5416 0.58431 0.05673 0.0
H1160 H 0.8999 0.48077 0.03784 0.0
H1161 H 0.94024 0.47244 0.03485 0.0
H1162 H 0.95298 0.54112 0.99492 0.0
H1163 H 0.91274 0.54991 0.00274 0.0
H1164 H 0.96857 0.47005 0.97725 0.0
H1165 H 0.99927 0.5378 0.0836 0.0
H1166 H 0.96968 0.53229 0.07756 0.0
H1167 H 0.98432 0.54982 0.03847 0.0
C1168 C 0.91144 0.49411 0.02897 0.0
C1169 C 0.90342 0.51601 0.02094 0.0
C1170 C 0.93451 0.48935 0.02708 0.0
C1171 C 0.95 0.50623 0.01561 0.0
C1172 C 0.94171 0.52797 0.00575 0.0
H1173 H 0.08354 0.46971 0.91884 0.0
H1174 H 0.04341 0.47683 0.9284 0.0
C1175 C 0.91868 0.53296 0.00956 0.0
C1176 C 0.97458 0.50075 0.01263 0.0
H1177 H 0.02696 0.52003 0.03795 0.0
C1178 C 0.98127 0.48087 0.99117 0.0
C1179 C 0.99138 0.51445 0.03146 0.0
C1180 C 0.98575 0.5346 0.05948 0.0
C1181 C 0.00404 0.47447 0.98767 0.0
C1182 C 0.02091 0.48911 0.00336 0.0
C1183 C 0.01422 0.50885 0.02526 0.0
C1184 C 0.04551 0.48447 0.99743 0.0
C1185 C 0.00948 0.45167 0.96848 0.0
C1186 C 0.06056 0.48737 0.03232 0.0
C1187 C 0.08378 0.48453 0.02615 0.0
C1188 C 0.09243 0.47809 0.98531 0.0
C1189 C 0.07742 0.47456 0.95076 0.0
C1190 C 0.05431 0.47832 0.95643 0.0
H1191 H 0.99552 0.43963 0.97434 0.0
H1192 H 0.01158 0.45336 0.93261 0.0
H1193 H 0.02513 0.44433 0.98251 0.0
H1194 H 0.05437 0.49209 0.06434 0.0
H1195 H 0.09499 0.48734 0.05338 0.0
H1196 H 0.01408 0.09497 0.05283 0.0
H1197 H 0.01169 0.05411 0.06234 0.0
H1198 H 0.01863 0.04562 0.92291 0.0
H1199 H 0.02332 0.08618 0.91422 0.0
H1200 H 0.98301 0.02676 0.04077 0.0
H1201 H 0.06027 0.99803 0.95677 0.0
H1202 H 0.05507 0.02737 0.96791 0.0
H1203 H 0.04352 0.01439 0.91978 0.0
C1204 C 0.01562 0.08424 0.02445 0.0
C1205 C 0.01912 0.0936 0.98289 0.0
C1206 C 0.01413 0.0609 0.02979 0.0
C1207 C 0.01538 0.04652 0.99345 0.0
C1208 C 0.01854 0.05606 0.95177 0.0
H1209 H 0.9556 0.91253 0.00632 0.0
H1210 H 0.96255 0.95299 0.99792 0.0
C1211 C 0.02097 0.07933 0.94669 0.0
C1212 C 0.01197 0.02181 0.99899 0.0
H1213 H 0.03138 0.97029 0.96626 0.0
C1214 C 0.99385 0.01444 0.02497 0.0
C1215 C 0.02623 0.00552 0.97913 0.0
C1216 C 0.04749 0.01178 0.95482 0.0
C1217 C 0.98949 0.99145 0.03132 0.0
C1218 C 0.00268 0.97524 0.00871 0.0
C1219 C 0.02095 0.98259 0.98311 0.0
C1220 C 0.99831 0.95059 0.01187 0.0
C1221 C 0.97123 0.98498 0.06342 0.0
C1222 C 0.01622 0.93548 0.01984 0.0
C1223 C 0.0124 0.91233 0.02222 0.0
C1224 C 0.99052 0.9039 0.01797 0.0
C1225 C 0.97257 0.91881 0.01006 0.0
C1226 C 0.97653 0.94193 0.00589 0.0
H1227 H 0.96878 0.99819 0.08864 0.0
H1228 H 0.95504 0.98326 0.04585 0.0
H1229 H 0.97521 0.96884 0.08022 0.0
H1230 H 0.03318 0.94158 0.02459 0.0
H1231 H 0.02645 0.90105 0.02868 0.0
H1232 H 0.09737 0.98913 0.54215 0.0
H1233 H 0.05693 0.98219 0.5499 0.0
H1234 H 0.04298 0.0328 0.45205 0.0
H1235 H 0.08337 0.03998 0.4443 0.0
H1236 H 0.01445 0.03464 0.5278 0.0
H1237 H 0.01973 0.94881 0.45634 0.0
H1238 H 0.03849 0.9539 0.50106 0.0
H1239 H 0.0421 0.96907 0.45068 0.0
C1240 C 0.08569 0.99893 0.52257 0.0
C1241 C 0.09354 0.01501 0.49241 0.0
C1242 C 0.06261 0.99483 0.52683 0.0
C1243 C 0.04705 0.00671 0.50098 0.0
C1244 C 0.05477 0.02336 0.47206 0.0
H1245 H 0.9019 0.0068 0.46761 0.0
H1246 H 0.94245 0.01344 0.46177 0.0
C1247 C 0.07784 0.02744 0.4677 0.0
C1248 C 0.0227 0.00159 0.50362 0.0
H1249 H 0.98427 0.96029 0.48453 0.0
C1250 C 0.00781 0.01842 0.51827 0.0
C1251 C 0.01417 0.9804 0.49111 0.0
C1252 C 0.02937 0.96203 0.47355 0.0
C1253 C 0.98456 0.01451 0.52136 0.0
C1254 C 0.976 0.99335 0.50866 0.0
C1255 C 0.99091 0.97649 0.49417 0.0
C1256 C 0.95159 0.98843 0.51031 0.0
C1257 C 0.96937 0.03289 0.53896 0.0
C1258 C 0.94341 0.97159 0.53833 0.0
C1259 C 0.92026 0.96766 0.54156 0.0
C1260 C 0.90494 0.98045 0.51662 0.0
C1261 C 0.91327 0.99673 0.48738 0.0
C1262 C 0.93641 0.00066 0.48422 0.0
H1263 H 0.97901 0.04582 0.55697 0.0
H1264 H 0.96066 0.04138 0.51137 0.0
H1265 H 0.95633 0.02581 0.56112 0.0
H1266 H 0.9549 0.96186 0.55848 0.0
H1267 H 0.91436 0.95495 0.56426 0.0
H1268 H 0.49058 0.90197 0.46117 0.0
H1269 H 0.48308 0.94242 0.45434 0.0
H1270 H 0.53261 0.95562 0.55338 0.0
H1271 H 0.54045 0.91519 0.55996 0.0
H1272 H 0.46746 0.97118 0.5193 0.0
H1273 H 0.55041 0.99928 0.45589 0.0
H1274 H 0.54203 0.9701 0.45588 0.0
H1275 H 0.55206 0.98286 0.50517 0.0
C1276 C 0.50009 0.9135 0.48113 0.0
C1277 C 0.51617 0.90539 0.51101 0.0
C1278 C 0.49572 0.9366 0.47726 0.0
C1279 C 0.50745 0.95205 0.50299 0.0
C1280 C 0.52367 0.94403 0.53259 0.0
H1281 H 0.50237 0.09627 0.54111 0.0
H1282 H 0.50904 0.05565 0.54608 0.0
C1283 C 0.52807 0.92091 0.53644 0.0
C1284 C 0.50199 0.97646 0.50016 0.0
H1285 H 0.52476 0.02797 0.47826 0.0
C1286 C 0.47994 0.98361 0.51007 0.0
C1287 C 0.51831 0.99261 0.48813 0.0
C1288 C 0.54198 0.98587 0.47525 0.0
C1289 C 0.47389 0.00654 0.50921 0.0
C1290 C 0.49026 0.02269 0.49752 0.0
C1291 C 0.51227 0.01554 0.48736 0.0
C1292 C 0.48503 0.04717 0.49596 0.0
C1293 C 0.4502 0.01333 0.52187 0.0
C1294 C 0.46921 0.05588 0.46626 0.0
C1295 C 0.4653 0.07914 0.46341 0.0
C1296 C 0.47727 0.09406 0.49004 0.0
C1297 C 0.49283 0.08523 0.52021 0.0
C1298 C 0.49672 0.06202 0.52302 0.0
H1299 H 0.44142 -0.00032 0.53996 0.0
H1300 H 0.45024 0.0287 0.5424 0.0
H1301 H 0.44042 0.01712 0.4919 0.0
H1302 H 0.46028 0.04475 0.44455 0.0
H1303 H 0.45331 0.08543 0.43968 0.0
H1304 H 0.58201 0.5398 0.57142 0.0
H1305 H 0.54175 0.53175 0.56417 0.0
H1306 H 0.55685 0.48299 0.4641 0.0
H1307 H 0.59707 0.49073 0.47146 0.0
H1308 H 0.51357 0.53496 0.49027 0.0
H1309 H 0.51905 0.44705 0.55238 0.0
H1310 H 0.54148 0.46706 0.55939 0.0
H1311 H 0.53785 0.45322 0.50788 0.0
C1312 C 0.57675 0.5274 0.54781 0.0
C1313 C 0.59272 0.51579 0.52221 0.0
C1314 C 0.55375 0.52282 0.54372 0.0
C1315 C 0.54635 0.50648 0.51416 0.0
C1316 C 0.56223 0.49531 0.48777 0.0
H1317 H 0.41537 0.4548 0.44033 0.0
H1318 H 0.45568 0.46227 0.44849 0.0
C1319 C 0.5852 0.49987 0.49183 0.0
C1320 C 0.52202 0.50122 0.51074 0.0
H1321 H 0.48393 0.45873 0.52285 0.0
C1322 C 0.50705 0.51834 0.49759 0.0
C1323 C 0.5136 0.47948 0.52021 0.0
C1324 C 0.52876 0.46067 0.53613 0.0
C1325 C 0.48391 0.51421 0.49292 0.0
C1326 C 0.47549 0.49249 0.50247 0.0
C1327 C 0.49045 0.47536 0.51557 0.0
C1328 C 0.45116 0.48725 0.49904 0.0
C1329 C 0.46874 0.533 0.47688 0.0
C1330 C 0.43532 0.49838 0.52558 0.0
C1331 C 0.41231 0.49413 0.52105 0.0
C1332 C 0.40472 0.4786 0.48998 0.0
C1333 C 0.42068 0.46691 0.46447 0.0
C1334 C 0.44371 0.47116 0.46905 0.0
H1335 H 0.47846 0.54667 0.46079 0.0
H1336 H 0.45612 0.52658 0.45345 0.0
H1337 H 0.45954 0.5404 0.50505 0.0
H1338 H 0.44075 0.51052 0.54955 0.0
H1339 H 0.40046 0.50335 0.54132 0.0
H1340 H 0.00879 0.5998 0.45773 0.0
H1341 H 0.01464 0.55925 0.4481 0.0
H1342 H 0.96615 0.54589 0.55007 0.0
H1343 H 0.95997 0.58635 0.55951 0.0
H1344 H 0.03026 0.52948 0.51239 0.0
H1345 H 0.94627 0.50393 0.45211 0.0
H1346 H 0.95541 0.53288 0.45194 0.0
H1347 H 0.94525 0.52009 0.5015 0.0
C1348 C 0.9991 0.58822 0.47761 0.0
C1349 C 0.9839 0.59624 0.50936 0.0
C1350 C 0.00252 0.56508 0.47216 0.0
C1351 C 0.99068 0.5496 0.49808 0.0
C1352 C 0.97516 0.55756 0.52918 0.0
H1353 H 0.99192 0.40588 0.53963 0.0
H1354 H 0.98678 0.44672 0.54389 0.0
C1355 C 0.97172 0.58068 0.53467 0.0
C1356 C 0.99552 0.52517 0.49448 0.0
H1357 H 0.97109 0.47442 0.47454 0.0
C1358 C 0.0174 0.51743 0.50374 0.0
C1359 C 0.97866 0.50955 0.48331 0.0
C1360 C 0.95512 0.517 0.47124 0.0
C1361 C 0.02275 0.49436 0.50323 0.0
C1362 C 0.00582 0.47872 0.4926 0.0
C1363 C 0.984 0.48648 0.48288 0.0
C1364 C 0.01026 0.45417 0.49168 0.0
C1365 C 0.04628 0.48684 0.51523 0.0
C1366 C 0.02533 0.44489 0.46112 0.0
C1367 C 0.02835 0.42154 0.45866 0.0
C1368 C 0.01624 0.40714 0.48657 0.0
C1369 C 0.00153 0.41654 0.51774 0.0
C1370 C 0.99851 0.43985 0.52014 0.0
H1371 H 0.0557 0.50032 0.53213 0.0
H1372 H 0.04581 0.4717 0.53665 0.0
H1373 H 0.05568 0.48234 0.48508 0.0
H1374 H 0.0343 0.45566 0.43842 0.0
H1375 H 0.03973 0.41478 0.43419 0.0
loop_
_geom_bond_atom_site_label_1
_geom_bond_atom_site_label_2
_geom_bond_distance
_geom_bond_site_symmetry_2
_ccdc_geom_bond_type
Co0 O1 2.216 1_545 S
Co0 O2 2.091 . S
Co0 O4 2.004 . S
Co0 O10 2.021 1_545 S
Co0 O12 2.137 1_545 S
Co0 O13 2.244 1_545 S
O1 Co0 2.216 1_565 S
O1 C8 1.247 1_565 S
O2 Co0 2.091 . S
O2 C8 1.261 . S
C3 O12 1.247 . S
C3 O13 1.272 . S
O4 Co0 2.004 . S
O4 C9 1.259 . S
Co5 O6 2.061 1_565 S
Co5 O11 2.052 . S
Co5 O13 2.135 . S
O6 Co5 2.061 1_545 S
O6 C9 1.235 . S
C7 O10 1.238 . S
C7 O11 1.241 . S
C8 O1 1.247 1_545 S
C8 O2 1.261 . S
C9 O4 1.259 . S
C9 O6 1.235 . S
O10 Co0 2.021 1_565 S
O10 C7 1.238 . S
O11 Co5 2.052 . S
O11 C7 1.241 . S
O12 Co0 2.137 1_565 S
O12 C3 1.247 . S
O13 Co0 2.244 1_565 S
O13 C3 1.272 . S
O13 Co5 2.135 . S
Co14 O15 2.216 . S
Co14 O16 2.091 . S
Co14 O18 2.004 . S
Co14 O24 2.021 . S
Co14 O26 2.137 . S
Co14 O27 2.244 . S
O15 Co14 2.216 . S
O15 C22 1.247 . S
O16 Co14 2.091 . S
O16 C22 1.261 . S
C17 O26 1.247 . S
C17 O27 1.272 . S
O18 Co14 2.004 . S
O18 C23 1.259 . S
Co19 O20 2.061 . S
Co19 O25 2.052 . S
Co19 O27 2.135 . S
O20 Co19 2.061 . S
O20 C23 1.235 . S
C21 O24 1.238 . S
C21 O25 1.241 . S
C22 O15 1.247 . S
C22 O16 1.261 . S
C23 O18 1.259 . S
C23 O20 1.235 . S
O24 Co14 2.021 . S
O24 C21 1.238 . S
O25 Co19 2.052 . S
O25 C21 1.241 . S
O26 Co14 2.137 . S
O26 C17 1.247 . S
O27 Co14 2.244 . S
O27 C17 1.272 . S
O27 Co19 2.135 . S
Co28 O29 2.216 . S
Co28 O30 2.091 . S
Co28 O32 2.004 . S
Co28 O38 2.021 . S
Co28 O40 2.137 . S
Co28 O41 2.244 . S
O29 Co28 2.216 . S
O29 C36 1.247 . S
O30 Co28 2.091 . S
O30 C36 1.261 . S
C31 O40 1.247 . S
C31 O41 1.272 . S
O32 Co28 2.004 . S
O32 C37 1.259 . S
Co33 O34 2.061 . S
Co33 O39 2.052 . S
Co33 O41 2.135 . S
O34 Co33 2.061 . S
O34 C37 1.235 . S
C35 O38 1.238 . S
C35 O39 1.241 . S
C36 O29 1.247 . S
C36 O30 1.261 . S
C37 O32 1.259 . S
C37 O34 1.235 . S
O38 Co28 2.021 . S
O38 C35 1.238 . S
O39 Co33 2.052 . S
O39 C35 1.241 . S
O40 Co28 2.137 . S
O40 C31 1.247 . S
O41 Co28 2.244 . S
O41 C31 1.272 . S
O41 Co33 2.135 . S
Co42 O43 2.216 1_455 S
Co42 O44 2.091 . S
Co42 O46 2.004 . S
Co42 O52 2.021 1_455 S
Co42 O54 2.137 1_455 S
Co42 O55 2.244 1_455 S
O43 Co42 2.216 1_655 S
O43 C50 1.247 1_655 S
O44 Co42 2.091 . S
O44 C50 1.261 . S
C45 O54 1.247 . S
C45 O55 1.272 . S
O46 Co42 2.004 . S
O46 C51 1.259 . S
Co47 O48 2.061 1_655 S
Co47 O53 2.052 . S
Co47 O55 2.135 . S
O48 Co47 2.061 1_455 S
O48 C51 1.235 . S
C49 O52 1.238 . S
C49 O53 1.241 . S
C50 O43 1.247 1_455 S
C50 O44 1.261 . S
C51 O46 1.259 . S
C51 O48 1.235 . S
O52 Co42 2.021 1_655 S
O52 C49 1.238 . S
O53 Co47 2.052 . S
O53 C49 1.241 . S
O54 Co42 2.137 1_655 S
O54 C45 1.247 . S
O55 Co42 2.244 1_655 S
O55 C45 1.272 . S
O55 Co47 2.135 . S
Co56 O57 2.216 1_565 S
Co56 O58 2.091 . S
Co56 O60 2.004 . S
Co56 O66 2.021 1_565 S
Co56 O68 2.137 1_565 S
Co56 O69 2.244 1_565 S
O57 Co56 2.216 1_545 S
O57 C64 1.247 1_545 S
O58 Co56 2.091 . S
O58 C64 1.261 . S
C59 O68 1.247 . S
C59 O69 1.272 . S
O60 Co56 2.004 . S
O60 C65 1.259 . S
Co61 O62 2.061 1_545 S
Co61 O67 2.052 . S
Co61 O69 2.135 . S
O62 Co61 2.061 1_565 S
O62 C65 1.235 . S
C63 O66 1.238 . S
C63 O67 1.241 . S
C64 O57 1.247 1_565 S
C64 O58 1.261 . S
C65 O60 1.259 . S
C65 O62 1.235 . S
O66 Co56 2.021 1_545 S
O66 C63 1.238 . S
O67 Co61 2.052 . S
O67 C63 1.241 . S
O68 Co56 2.137 1_545 S
O68 C59 1.247 . S
O69 Co56 2.244 1_545 S
O69 C59 1.272 . S
O69 Co61 2.135 . S
Co70 O71 2.216 . S
Co70 O72 2.091 . S
Co70 O74 2.004 . S
Co70 O80 2.021 . S
Co70 O82 2.137 . S
Co70 O83 2.244 . S
O71 Co70 2.216 . S
O71 C78 1.247 . S
O72 Co70 2.091 . S
O72 C78 1.261 . S
C73 O82 1.247 . S
C73 O83 1.272 . S
O74 Co70 2.004 . S
O74 C79 1.259 . S
Co75 O76 2.061 . S
Co75 O81 2.052 . S
Co75 O83 2.135 . S
O76 Co75 2.061 . S
O76 C79 1.235 . S
C77 O80 1.238 . S
C77 O81 1.241 . S
C78 O71 1.247 . S
C78 O72 1.261 . S
C79 O74 1.259 . S
C79 O76 1.235 . S
O80 Co70 2.021 . S
O80 C77 1.238 . S
O81 Co75 2.052 . S
O81 C77 1.241 . S
O82 Co70 2.137 . S
O82 C73 1.247 . S
O83 Co70 2.244 . S
O83 C73 1.272 . S
O83 Co75 2.135 . S
Co84 O85 2.216 . S
Co84 O86 2.091 . S
Co84 O88 2.004 . S
Co84 O94 2.021 . S
Co84 O96 2.137 . S
Co84 O97 2.244 . S
O85 Co84 2.216 . S
O85 C92 1.247 . S
O86 Co84 2.091 . S
O86 C92 1.261 . S
C87 O96 1.247 . S
C87 O97 1.272 . S
O88 Co84 2.004 . S
O88 C93 1.259 . S
Co89 O90 2.061 . S
Co89 O95 2.052 . S
Co89 O97 2.135 . S
O90 Co89 2.061 . S
O90 C93 1.235 . S
C91 O94 1.238 . S
C91 O95 1.241 . S
C92 O85 1.247 . S
C92 O86 1.261 . S
C93 O88 1.259 . S
C93 O90 1.235 . S
O94 Co84 2.021 . S
O94 C91 1.238 . S
O95 Co89 2.052 . S
O95 C91 1.241 . S
O96 Co84 2.137 . S
O96 C87 1.247 . S
O97 Co84 2.244 . S
O97 C87 1.272 . S
O97 Co89 2.135 . S
Co98 O99 2.216 1_655 S
Co98 O100 2.091 . S
Co98 O102 2.004 . S
Co98 O108 2.021 1_655 S
Co98 O110 2.137 1_655 S
Co98 O111 2.244 1_655 S
O99 Co98 2.216 1_455 S
O99 C106 1.247 1_455 S
O100 Co98 2.091 . S
O100 C106 1.261 . S
C101 O110 1.247 . S
C101 O111 1.272 . S
O102 Co98 2.004 . S
O102 C107 1.259 . S
Co103 O104 2.061 1_455 S
Co103 O109 2.052 . S
Co103 O111 2.135 . S
O104 Co103 2.061 1_655 S
O104 C107 1.235 . S
C105 O108 1.238 . S
C105 O109 1.241 . S
C106 O99 1.247 1_655 S
C106 O100 1.261 . S
C107 O102 1.259 . S
C107 O104 1.235 . S
O108 Co98 2.021 1_455 S
O108 C105 1.238 . S
O109 Co103 2.052 . S
O109 C105 1.241 . S
O110 Co98 2.137 1_455 S
O110 C101 1.247 . S
O111 Co98 2.244 1_455 S
O111 C101 1.272 . S
O111 Co103 2.135 . S
Co112 O113 2.216 1_565 S
Co112 O114 2.091 . S
Co112 O116 2.004 . S
Co112 O122 2.021 1_565 S
Co112 O124 2.137 1_565 S
Co112 O125 2.244 1_565 S
O113 Co112 2.216 1_545 S
O113 C120 1.247 1_545 S
O114 Co112 2.091 . S
O114 C120 1.261 . S
C115 O124 1.247 . S
C115 O125 1.272 . S
O116 Co112 2.004 . S
O116 C121 1.259 . S
Co117 O118 2.061 1_545 S
Co117 O123 2.052 . S
Co117 O125 2.135 . S
O118 Co117 2.061 1_565 S
O118 C121 1.235 . S
C119 O122 1.238 . S
C119 O123 1.241 . S
C120 O113 1.247 1_565 S
C120 O114 1.261 . S
C121 O116 1.259 . S
C121 O118 1.235 . S
O122 Co112 2.021 1_545 S
O122 C119 1.238 . S
O123 Co117 2.052 . S
O123 C119 1.241 . S
O124 Co112 2.137 1_545 S
O124 C115 1.247 . S
O125 Co112 2.244 1_545 S
O125 C115 1.272 . S
O125 Co117 2.135 . S
Co126 O127 2.216 . S
Co126 O128 2.091 . S
Co126 O130 2.004 . S
Co126 O136 2.021 . S
Co126 O138 2.137 . S
Co126 O139 2.244 . S
O127 Co126 2.216 . S
O127 C134 1.247 . S
O128 Co126 2.091 . S
O128 C134 1.261 . S
C129 O138 1.247 . S
C129 O139 1.272 . S
O130 Co126 2.004 . S
O130 C135 1.259 . S
Co131 O132 2.061 . S
Co131 O137 2.052 . S
Co131 O139 2.135 . S
O132 Co131 2.061 . S
O132 C135 1.235 . S
C133 O136 1.238 . S
C133 O137 1.241 . S
C134 O127 1.247 . S
C134 O128 1.261 . S
C135 O130 1.259 . S
C135 O132 1.235 . S
O136 Co126 2.021 . S
O136 C133 1.238 . S
O137 Co131 2.052 . S
O137 C133 1.241 . S
O138 Co126 2.137 . S
O138 C129 1.247 . S
O139 Co126 2.244 . S
O139 C129 1.272 . S
O139 Co131 2.135 . S
Co140 O141 2.216 . S
Co140 O142 2.091 . S
Co140 O144 2.004 . S
Co140 O150 2.021 . S
Co140 O152 2.137 . S
Co140 O153 2.244 . S
O141 Co140 2.216 . S
O141 C148 1.247 . S
O142 Co140 2.091 . S
O142 C148 1.261 . S
C143 O152 1.247 . S
C143 O153 1.272 . S
O144 Co140 2.004 . S
O144 C149 1.259 . S
Co145 O146 2.061 . S
Co145 O151 2.052 . S
Co145 O153 2.135 . S
O146 Co145 2.061 . S
O146 C149 1.235 . S
C147 O150 1.238 . S
C147 O151 1.241 . S
C148 O141 1.247 . S
C148 O142 1.261 . S
C149 O144 1.259 . S
C149 O146 1.235 . S
O150 Co140 2.021 . S
O150 C147 1.238 . S
O151 Co145 2.052 . S
O151 C147 1.241 . S
O152 Co140 2.137 . S
O152 C143 1.247 . S
O153 Co140 2.244 . S
O153 C143 1.272 . S
O153 Co145 2.135 . S
Co154 O155 2.216 1_655 S
Co154 O156 2.091 . S
Co154 O158 2.004 . S
Co154 O164 2.021 1_655 S
Co154 O166 2.137 1_655 S
Co154 O167 2.244 1_655 S
O155 Co154 2.216 1_455 S
O155 C162 1.247 1_455 S
O156 Co154 2.091 . S
O156 C162 1.261 . S
C157 O166 1.247 . S
C157 O167 1.272 . S
O158 Co154 2.004 . S
O158 C163 1.259 . S
Co159 O160 2.061 1_455 S
Co159 O165 2.052 . S
Co159 O167 2.135 . S
O160 Co159 2.061 1_655 S
O160 C163 1.235 . S
C161 O164 1.238 . S
C161 O165 1.241 . S
C162 O155 1.247 1_655 S
C162 O156 1.261 . S
C163 O158 1.259 . S
C163 O160 1.235 . S
O164 Co154 2.021 1_455 S
O164 C161 1.238 . S
O165 Co159 2.052 . S
O165 C161 1.241 . S
O166 Co154 2.137 1_455 S
O166 C157 1.247 . S
O167 Co154 2.244 1_455 S
O167 C157 1.272 . S
O167 Co159 2.135 . S
Co168 O169 2.216 1_545 S
Co168 O170 2.091 . S
Co168 O172 2.004 . S
Co168 O178 2.021 1_545 S
Co168 O180 2.137 1_545 S
Co168 O181 2.244 1_545 S
O169 Co168 2.216 1_565 S
O169 C176 1.247 1_565 S
O170 Co168 2.091 . S
O170 C176 1.261 . S
C171 O180 1.247 . S
C171 O181 1.272 . S
O172 Co168 2.004 . S
O172 C177 1.259 . S
Co173 O174 2.061 1_565 S
Co173 O179 2.052 . S
Co173 O181 2.135 . S
O174 Co173 2.061 1_545 S
O174 C177 1.235 . S
C175 O178 1.238 . S
C175 O179 1.241 . S
C176 O169 1.247 1_545 S
C176 O170 1.261 . S
C177 O172 1.259 . S
C177 O174 1.235 . S
O178 Co168 2.021 1_565 S
O178 C175 1.238 . S
O179 Co173 2.052 . S
O179 C175 1.241 . S
O180 Co168 2.137 1_565 S
O180 C171 1.247 . S
O181 Co168 2.244 1_565 S
O181 C171 1.272 . S
O181 Co173 2.135 . S
Co182 O183 2.216 . S
Co182 O184 2.091 . S
Co182 O186 2.004 . S
Co182 O192 2.021 . S
Co182 O194 2.137 . S
Co182 O195 2.244 . S
O183 Co182 2.216 . S
O183 C190 1.247 . S
O184 Co182 2.091 . S
O184 C190 1.261 . S
C185 O194 1.247 . S
C185 O195 1.272 . S
O186 Co182 2.004 . S
O186 C191 1.259 . S
Co187 O188 2.061 . S
Co187 O193 2.052 . S
Co187 O195 2.135 . S
O188 Co187 2.061 . S
O188 C191 1.235 . S
C189 O192 1.238 . S
C189 O193 1.241 . S
C190 O183 1.247 . S
C190 O184 1.261 . S
C191 O186 1.259 . S
C191 O188 1.235 . S
O192 Co182 2.021 . S
O192 C189 1.238 . S
O193 Co187 2.052 . S
O193 C189 1.241 . S
O194 Co182 2.137 . S
O194 C185 1.247 . S
O195 Co182 2.244 . S
O195 C185 1.272 . S
O195 Co187 2.135 . S
Co196 O197 2.216 . S
Co196 O198 2.091 . S
Co196 O200 2.004 . S
Co196 O206 2.021 . S
Co196 O208 2.137 . S
Co196 O209 2.244 . S
O197 Co196 2.216 . S
O197 C204 1.247 . S
O198 Co196 2.091 . S
O198 C204 1.261 . S
C199 O208 1.247 . S
C199 O209 1.272 . S
O200 Co196 2.004 . S
O200 C205 1.259 . S
Co201 O202 2.061 . S
Co201 O207 2.052 . S
Co201 O209 2.135 . S
O202 Co201 2.061 . S
O202 C205 1.235 . S
C203 O206 1.238 . S
C203 O207 1.241 . S
C204 O197 1.247 . S
C204 O198 1.261 . S
C205 O200 1.259 . S
C205 O202 1.235 . S
O206 Co196 2.021 . S
O206 C203 1.238 . S
O207 Co201 2.052 . S
O207 C203 1.241 . S
O208 Co196 2.137 . S
O208 C199 1.247 . S
O209 Co196 2.244 . S
O209 C199 1.272 . S
O209 Co201 2.135 . S
Co210 O211 2.216 1_455 S
Co210 O212 2.091 . S
Co210 O214 2.004 . S
Co210 O220 2.021 1_455 S
Co210 O222 2.137 1_455 S
Co210 O223 2.244 1_455 S
O211 Co210 2.216 1_655 S
O211 C218 1.247 1_655 S
O212 Co210 2.091 . S
O212 C218 1.261 . S
C213 O222 1.247 . S
C213 O223 1.272 . S
O214 Co210 2.004 . S
O214 C219 1.259 . S
Co215 O216 2.061 1_655 S
Co215 O221 2.052 . S
Co215 O223 2.135 . S
O216 Co215 2.061 1_455 S
O216 C219 1.235 . S
C217 O220 1.238 . S
C217 O221 1.241 . S
C218 O211 1.247 1_455 S
C218 O212 1.261 . S
C219 O214 1.259 . S
C219 O216 1.235 . S
O220 Co210 2.021 1_655 S
O220 C217 1.238 . S
O221 Co215 2.052 . S
O221 C217 1.241 . S
O222 Co210 2.137 1_655 S
O222 C213 1.247 . S
O223 Co210 2.244 1_655 S
O223 C213 1.272 . S
O223 Co215 2.135 . S
H224 C232 0.929 . S
H225 C234 0.930 . S
H226 C236 0.930 . S
H227 C239 0.929 . S
H228 C242 0.930 . S
H229 C244 0.960 . S
H230 C244 0.960 . S
H231 C244 0.960 . S
C232 H224 0.929 . S
C232 C233 1.377 . S
C232 C234 1.384 . S
C233 C232 1.377 . S
C233 C239 1.390 . S
C234 H225 0.930 . S
C234 C232 1.384 . S
C234 C235 1.372 . S
C235 C234 1.372 . S
C235 C236 1.400 . S
C235 C240 1.490 . S
C236 H226 0.930 . S
C236 C235 1.400 . S
C236 C239 1.386 . S
H237 C253 0.930 . S
H238 C254 0.931 . S
C239 H227 0.929 . S
C239 C233 1.390 . S
C239 C236 1.386 . S
C240 C235 1.490 . S
C240 C242 1.395 . S
C240 C243 1.403 . S
H241 C247 0.930 . S
C242 H228 0.930 . S
C242 C240 1.395 . S
C242 C245 1.403 . S
C243 C240 1.403 . S
C243 C244 1.524 . S
C243 C247 1.400 . S
C244 H229 0.960 . S
C244 H230 0.960 . S
C244 H231 0.960 . S
C244 C243 1.524 . S
C245 C242 1.403 . S
C245 C246 1.392 . S
C245 C249 1.495 . S
C246 C245 1.392 . S
C246 C247 1.385 . S
C246 C248 1.478 . S
C247 H241 0.930 . S
C247 C243 1.400 . S
C247 C246 1.385 . S
C248 C246 1.478 . S
C248 C250 1.381 . S
C248 C254 1.383 . S
C249 C245 1.495 . S
C249 H255 0.959 . S
C249 H256 0.961 . S
C249 H257 0.960 . S
C250 C248 1.381 . S
C250 C251 1.394 . S
C250 H258 0.930 . S
C251 C250 1.394 . S
C251 C252 1.383 . S
C251 H259 0.929 . S
C252 C251 1.383 . S
C252 C253 1.377 . S
C253 H237 0.930 . S
C253 C252 1.377 . S
C253 C254 1.379 . S
C254 H238 0.931 . S
C254 C248 1.383 . S
C254 C253 1.379 . S
H255 C249 0.959 . S
H256 C249 0.961 . S
H257 C249 0.960 . S
H258 C250 0.930 . S
H259 C251 0.929 . S
H260 C268 0.929 . S
H261 C270 0.930 . S
H262 C272 0.930 . S
H263 C275 0.929 . S
H264 C278 0.930 . S
H265 C280 0.960 . S
H266 C280 0.960 . S
H267 C280 0.960 . S
C268 H260 0.929 . S
C268 C269 1.377 . S
C268 C270 1.384 . S
C269 C268 1.377 . S
C269 C275 1.390 . S
C270 H261 0.930 . S
C270 C268 1.384 . S
C270 C271 1.372 . S
C271 C270 1.372 . S
C271 C272 1.400 . S
C271 C276 1.490 . S
C272 H262 0.930 . S
C272 C271 1.400 . S
C272 C275 1.386 . S
H273 C289 0.930 . S
H274 C290 0.931 . S
C275 H263 0.929 . S
C275 C269 1.390 . S
C275 C272 1.386 . S
C276 C271 1.490 . S
C276 C278 1.395 . S
C276 C279 1.403 . S
H277 C283 0.930 . S
C278 H264 0.930 . S
C278 C276 1.395 . S
C278 C281 1.403 . S
C279 C276 1.403 . S
C279 C280 1.524 . S
C279 C283 1.400 . S
C280 H265 0.960 . S
C280 H266 0.960 . S
C280 H267 0.960 . S
C280 C279 1.524 . S
C281 C278 1.403 . S
C281 C282 1.392 . S
C281 C285 1.495 . S
C282 C281 1.392 . S
C282 C283 1.385 . S
C282 C284 1.478 . S
C283 H277 0.930 . S
C283 C279 1.400 . S
C283 C282 1.385 . S
C284 C282 1.478 . S
C284 C286 1.381 . S
C284 C290 1.383 . S
C285 C281 1.495 . S
C285 H291 0.959 . S
C285 H292 0.961 . S
C285 H293 0.960 . S
C286 C284 1.381 . S
C286 C287 1.394 . S
C286 H294 0.930 . S
C287 C286 1.394 . S
C287 C288 1.383 . S
C287 H295 0.929 . S
C288 C287 1.383 . S
C288 C289 1.377 . S
C289 H273 0.930 . S
C289 C288 1.377 . S
C289 C290 1.379 . S
C290 H274 0.931 . S
C290 C284 1.383 . S
C290 C289 1.379 . S
H291 C285 0.959 . S
H292 C285 0.961 . S
H293 C285 0.960 . S
H294 C286 0.930 . S
H295 C287 0.929 . S
H296 C304 0.929 . S
H297 C306 0.930 . S
H298 C308 0.930 . S
H299 C311 0.929 . S
H300 C314 0.930 . S
H301 C316 0.960 . S
H302 C316 0.960 . S
H303 C316 0.960 . S
C304 H296 0.929 . S
C304 C305 1.377 . S
C304 C306 1.384 . S
C305 C304 1.377 . S
C305 C311 1.390 . S
C306 H297 0.930 . S
C306 C304 1.384 . S
C306 C307 1.372 . S
C307 C306 1.372 . S
C307 C308 1.400 . S
C307 C312 1.490 . S
C308 H298 0.930 . S
C308 C307 1.400 . S
C308 C311 1.386 . S
H309 C325 0.930 . S
H310 C326 0.931 . S
C311 H299 0.929 . S
C311 C305 1.390 . S
C311 C308 1.386 . S
C312 C307 1.490 . S
C312 C314 1.395 . S
C312 C315 1.403 . S
H313 C319 0.930 . S
C314 H300 0.930 . S
C314 C312 1.395 . S
C314 C317 1.403 . S
C315 C312 1.403 . S
C315 C316 1.524 . S
C315 C319 1.400 . S
C316 H301 0.960 . S
C316 H302 0.960 . S
C316 H303 0.960 . S
C316 C315 1.524 . S
C317 C314 1.403 . S
C317 C318 1.392 . S
C317 C321 1.495 . S
C318 C317 1.392 . S
C318 C319 1.385 . S
C318 C320 1.478 . S
C319 H313 0.930 . S
C319 C315 1.400 . S
C319 C318 1.385 . S
C320 C318 1.478 . S
C320 C322 1.381 . S
C320 C326 1.383 . S
C321 C317 1.495 . S
C321 H327 0.959 . S
C321 H328 0.961 . S
C321 H329 0.960 . S
C322 C320 1.381 . S
C322 C323 1.394 . S
C322 H330 0.930 . S
C323 C322 1.394 . S
C323 C324 1.383 . S
C323 H331 0.929 . S
C324 C323 1.383 . S
C324 C325 1.377 . S
C325 H309 0.930 . S
C325 C324 1.377 . S
C325 C326 1.379 . S
C326 H310 0.931 . S
C326 C320 1.383 . S
C326 C325 1.379 . S
H327 C321 0.959 . S
H328 C321 0.961 . S
H329 C321 0.960 . S
H330 C322 0.930 . S
H331 C323 0.929 . S
H332 C340 0.929 . S
H333 C342 0.930 . S
H334 C344 0.930 . S
H335 C347 0.929 . S
H336 C350 0.930 . S
H337 C352 0.960 . S
H338 C352 0.960 . S
H339 C352 0.960 . S
C340 H332 0.929 . S
C340 C341 1.377 . S
C340 C342 1.384 . S
C341 C340 1.377 . S
C341 C347 1.390 . S
C342 H333 0.930 . S
C342 C340 1.384 . S
C342 C343 1.372 . S
C343 C342 1.372 . S
C343 C344 1.400 . S
C343 C348 1.490 . S
C344 H334 0.930 . S
C344 C343 1.400 . S
C344 C347 1.386 . S
H345 C361 0.930 . S
H346 C362 0.931 . S
C347 H335 0.929 . S
C347 C341 1.390 . S
C347 C344 1.386 . S
C348 C343 1.490 . S
C348 C350 1.395 . S
C348 C351 1.403 . S
H349 C355 0.930 . S
C350 H336 0.930 . S
C350 C348 1.395 . S
C350 C353 1.403 . S
C351 C348 1.403 . S
C351 C352 1.524 . S
C351 C355 1.400 . S
C352 H337 0.960 . S
C352 H338 0.960 . S
C352 H339 0.960 . S
C352 C351 1.524 . S
C353 C350 1.403 . S
C353 C354 1.392 . S
C353 C357 1.495 . S
C354 C353 1.392 . S
C354 C355 1.385 . S
C354 C356 1.478 . S
C355 H349 0.930 . S
C355 C351 1.400 . S
C355 C354 1.385 . S
C356 C354 1.478 . S
C356 C358 1.381 . S
C356 C362 1.383 . S
C357 C353 1.495 . S
C357 H363 0.959 . S
C357 H364 0.961 . S
C357 H365 0.960 . S
C358 C356 1.381 . S
C358 C359 1.394 . S
C358 H366 0.930 . S
C359 C358 1.394 . S
C359 C360 1.383 . S
C359 H367 0.929 . S
C360 C359 1.383 . S
C360 C361 1.377 . S
C361 H345 0.930 . S
C361 C360 1.377 . S
C361 C362 1.379 . S
C362 H346 0.931 . S
C362 C356 1.383 . S
C362 C361 1.379 . S
H363 C357 0.959 . S
H364 C357 0.961 . S
H365 C357 0.960 . S
H366 C358 0.930 . S
H367 C359 0.929 . S
H368 C376 0.929 . S
H369 C378 0.930 . S
H370 C380 0.930 . S
H371 C383 0.929 . S
H372 C386 0.930 . S
H373 C388 0.960 . S
H374 C388 0.960 . S
H375 C388 0.960 . S
C376 H368 0.929 . S
C376 C377 1.377 . S
C376 C378 1.384 . S
C377 C376 1.377 . S
C377 C383 1.390 . S
C378 H369 0.930 . S
C378 C376 1.384 . S
C378 C379 1.372 . S
C379 C378 1.372 . S
C379 C380 1.400 . S
C379 C384 1.490 . S
C380 H370 0.930 . S
C380 C379 1.400 . S
C380 C383 1.386 . S
H381 C397 0.930 . S
H382 C398 0.931 . S
C383 H371 0.929 . S
C383 C377 1.390 . S
C383 C380 1.386 . S
C384 C379 1.490 . S
C384 C386 1.395 . S
C384 C387 1.403 . S
H385 C391 0.930 . S
C386 H372 0.930 . S
C386 C384 1.395 . S
C386 C389 1.403 . S
C387 C384 1.403 . S
C387 C388 1.524 . S
C387 C391 1.400 . S
C388 H373 0.960 . S
C388 H374 0.960 . S
C388 H375 0.960 . S
C388 C387 1.524 . S
C389 C386 1.403 . S
C389 C390 1.392 . S
C389 C393 1.495 . S
C390 C389 1.392 . S
C390 C391 1.385 . S
C390 C392 1.478 . S
C391 H385 0.930 . S
C391 C387 1.400 . S
C391 C390 1.385 . S
C392 C390 1.478 . S
C392 C394 1.381 . S
C392 C398 1.383 . S
C393 C389 1.495 . S
C393 H399 0.959 . S
C393 H400 0.961 . S
C393 H401 0.960 . S
C394 C392 1.381 . S
C394 C395 1.394 . S
C394 H402 0.930 . S
C395 C394 1.394 . S
C395 C396 1.383 . S
C395 H403 0.929 . S
C396 C395 1.383 . S
C396 C397 1.377 . S
C397 H381 0.930 . S
C397 C396 1.377 . S
C397 C398 1.379 . S
C398 H382 0.931 . S
C398 C392 1.383 . S
C398 C397 1.379 . S
H399 C393 0.959 . S
H400 C393 0.961 . S
H401 C393 0.960 . S
H402 C394 0.930 . S
H403 C395 0.929 . S
H404 C412 0.929 . S
H405 C414 0.930 . S
H406 C416 0.930 . S
H407 C419 0.929 . S
H408 C422 0.930 . S
H409 C424 0.960 . S
H410 C424 0.960 . S
H411 C424 0.960 . S
C412 H404 0.929 . S
C412 C413 1.377 . S
C412 C414 1.384 . S
C413 C412 1.377 . S
C413 C419 1.390 . S
C414 H405 0.930 . S
C414 C412 1.384 . S
C414 C415 1.372 . S
C415 C414 1.372 . S
C415 C416 1.400 . S
C415 C420 1.490 . S
C416 H406 0.930 . S
C416 C415 1.400 . S
C416 C419 1.386 . S
H417 C433 0.930 . S
H418 C434 0.931 . S
C419 H407 0.929 . S
C419 C413 1.390 . S
C419 C416 1.386 . S
C420 C415 1.490 . S
C420 C422 1.395 . S
C420 C423 1.403 . S
H421 C427 0.930 . S
C422 H408 0.930 . S
C422 C420 1.395 . S
C422 C425 1.403 . S
C423 C420 1.403 . S
C423 C424 1.524 . S
C423 C427 1.400 . S
C424 H409 0.960 . S
C424 H410 0.960 . S
C424 H411 0.960 . S
C424 C423 1.524 . S
C425 C422 1.403 . S
C425 C426 1.392 . S
C425 C429 1.495 . S
C426 C425 1.392 . S
C426 C427 1.385 . S
C426 C428 1.478 . S
C427 H421 0.930 . S
C427 C423 1.400 . S
C427 C426 1.385 . S
C428 C426 1.478 . S
C428 C430 1.381 . S
C428 C434 1.383 . S
C429 C425 1.495 . S
C429 H435 0.959 . S
C429 H436 0.961 . S
C429 H437 0.960 . S
C430 C428 1.381 . S
C430 C431 1.394 . S
C430 H438 0.930 . S
C431 C430 1.394 . S
C431 C432 1.383 . S
C431 H439 0.929 . S
C432 C431 1.383 . S
C432 C433 1.377 . S
C433 H417 0.930 . S
C433 C432 1.377 . S
C433 C434 1.379 . S
C434 H418 0.931 . S
C434 C428 1.383 . S
C434 C433 1.379 . S
H435 C429 0.959 . S
H436 C429 0.961 . S
H437 C429 0.960 . S
H438 C430 0.930 . S
H439 C431 0.929 . S
H440 C448 0.929 . S
H441 C450 0.930 . S
H442 C452 0.930 . S
H443 C455 0.929 . S
H444 C458 0.930 . S
H445 C460 0.960 . S
H446 C460 0.960 . S
H447 C460 0.960 . S
C448 H440 0.929 . S
C448 C449 1.377 . S
C448 C450 1.384 . S
C449 C448 1.377 . S
C449 C455 1.390 . S
C450 H441 0.930 . S
C450 C448 1.384 . S
C450 C451 1.372 . S
C451 C450 1.372 . S
C451 C452 1.400 . S
C451 C456 1.490 . S
C452 H442 0.930 . S
C452 C451 1.400 . S
C452 C455 1.386 . S
H453 C469 0.930 . S
H454 C470 0.931 . S
C455 H443 0.929 . S
C455 C449 1.390 . S
C455 C452 1.386 . S
C456 C451 1.490 . S
C456 C458 1.395 . S
C456 C459 1.403 . S
H457 C463 0.930 . S
C458 H444 0.930 . S
C458 C456 1.395 . S
C458 C461 1.403 . S
C459 C456 1.403 . S
C459 C460 1.524 . S
C459 C463 1.400 . S
C460 H445 0.960 . S
C460 H446 0.960 . S
C460 H447 0.960 . S
C460 C459 1.524 . S
C461 C458 1.403 . S
C461 C462 1.392 . S
C461 C465 1.495 . S
C462 C461 1.392 . S
C462 C463 1.385 . S
C462 C464 1.478 . S
C463 H457 0.930 . S
C463 C459 1.400 . S
C463 C462 1.385 . S
C464 C462 1.478 . S
C464 C466 1.381 . S
C464 C470 1.383 . S
C465 C461 1.495 . S
C465 H471 0.959 . S
C465 H472 0.961 . S
C465 H473 0.960 . S
C466 C464 1.381 . S
C466 C467 1.394 . S
C466 H474 0.930 . S
C467 C466 1.394 . S
C467 C468 1.383 . S
C467 H475 0.929 . S
C468 C467 1.383 . S
C468 C469 1.377 . S
C469 H453 0.930 . S
C469 C468 1.377 . S
C469 C470 1.379 . S
C470 H454 0.931 . S
C470 C464 1.383 . S
C470 C469 1.379 . S
H471 C465 0.959 . S
H472 C465 0.961 . S
H473 C465 0.960 . S
H474 C466 0.930 . S
H475 C467 0.929 . S
H476 C484 0.929 . S
H477 C486 0.930 . S
H478 C488 0.930 . S
H479 C491 0.929 . S
H480 C494 0.930 . S
H481 C496 0.960 . S
H482 C496 0.960 . S
H483 C496 0.960 . S
C484 H476 0.929 . S
C484 C485 1.377 . S
C484 C486 1.384 . S
C485 C484 1.377 . S
C485 C491 1.390 . S
C486 H477 0.930 . S
C486 C484 1.384 . S
C486 C487 1.372 . S
C487 C486 1.372 . S
C487 C488 1.400 . S
C487 C492 1.490 . S
C488 H478 0.930 . S
C488 C487 1.400 . S
C488 C491 1.386 . S
H489 C505 0.930 . S
H490 C506 0.931 . S
C491 H479 0.929 . S
C491 C485 1.390 . S
C491 C488 1.386 . S
C492 C487 1.490 . S
C492 C494 1.395 . S
C492 C495 1.403 . S
H493 C499 0.930 . S
C494 H480 0.930 . S
C494 C492 1.395 . S
C494 C497 1.403 . S
C495 C492 1.403 . S
C495 C496 1.524 . S
C495 C499 1.400 . S
C496 H481 0.960 . S
C496 H482 0.960 . S
C496 H483 0.960 . S
C496 C495 1.524 . S
C497 C494 1.403 . S
C497 C498 1.392 . S
C497 C501 1.495 . S
C498 C497 1.392 . S
C498 C499 1.385 . S
C498 C500 1.478 . S
C499 H493 0.930 . S
C499 C495 1.400 . S
C499 C498 1.385 . S
C500 C498 1.478 . S
C500 C502 1.381 . S
C500 C506 1.383 . S
C501 C497 1.495 . S
C501 H507 0.959 . S
C501 H508 0.961 . S
C501 H509 0.960 . S
C502 C500 1.381 . S
C502 C503 1.394 . S
C502 H510 0.930 . S
C503 C502 1.394 . S
C503 C504 1.383 . S
C503 H511 0.929 . S
C504 C503 1.383 . S
C504 C505 1.377 . S
C505 H489 0.930 . S
C505 C504 1.377 . S
C505 C506 1.379 . S
C506 H490 0.931 . S
C506 C500 1.383 . S
C506 C505 1.379 . S
H507 C501 0.959 . S
H508 C501 0.961 . S
H509 C501 0.960 . S
H510 C502 0.930 . S
H511 C503 0.929 . S
H512 C520 0.929 . S
H513 C522 0.930 . S
H514 C524 0.930 . S
H515 C527 0.929 1_554 S
H516 C530 0.930 . S
H517 C532 0.960 . S
H518 C532 0.960 . S
H519 C532 0.960 . S
C520 H512 0.929 . S
C520 C521 1.382 . S
C520 C522 1.384 . S
C521 C520 1.382 . S
C521 C527 1.383 1_545 S
C522 H513 0.930 . S
C522 C520 1.384 . S
C522 C523 1.372 1_545 S
C523 C522 1.372 1_565 S
C523 C524 1.400 . S
C523 C528 1.490 . S
C524 H514 0.930 . S
C524 C523 1.400 . S
C524 C527 1.386 . S
H525 C541 0.930 . S
H526 C542 0.931 . S
C527 H515 0.929 1_556 S
C527 C521 1.383 1_565 S
C527 C524 1.386 . S
C528 C523 1.490 . S
C528 C530 1.395 1_565 S
C528 C531 1.403 . S
H529 C535 0.930 . S
C530 H516 0.930 . S
C530 C528 1.395 1_545 S
C530 C533 1.403 . S
C531 C528 1.403 . S
C531 C532 1.524 . S
C531 C535 1.400 . S
C532 H517 0.960 . S
C532 H518 0.960 . S
C532 H519 0.960 . S
C532 C531 1.524 . S
C533 C530 1.403 . S
C533 C534 1.392 1_545 S
C533 C537 1.495 . S
C534 C533 1.392 1_565 S
C534 C535 1.385 . S
C534 C536 1.478 . S
C535 H529 0.930 . S
C535 C531 1.400 . S
C535 C534 1.385 . S
C536 C534 1.478 . S
C536 C538 1.381 . S
C536 C542 1.383 . S
C537 C533 1.495 . S
C537 H543 0.959 . S
C537 H544 0.961 . S
C537 H545 0.960 . S
C538 C536 1.381 . S
C538 C539 1.394 . S
C538 H546 0.930 . S
C539 C538 1.394 . S
C539 C540 1.383 . S
C539 H547 0.929 . S
C540 C539 1.383 . S
C540 C541 1.377 . S
C541 H525 0.930 . S
C541 C540 1.377 . S
C541 C542 1.379 . S
C542 H526 0.931 . S
C542 C536 1.383 . S
C542 C541 1.379 . S
H543 C537 0.959 . S
H544 C537 0.961 . S
H545 C537 0.960 . S
H546 C538 0.930 . S
H547 C539 0.929 . S
H548 C556 0.929 . S
H549 C558 0.930 . S
H550 C560 0.930 . S
H551 C563 0.929 . S
H552 C566 0.930 . S
H553 C568 0.960 . S
H554 C568 0.960 . S
H555 C568 0.960 . S
C556 H548 0.929 . S
C556 C557 1.377 . S
C556 C558 1.384 . S
C557 C556 1.377 . S
C557 C563 1.390 . S
C558 H549 0.930 . S
C558 C556 1.384 . S
C558 C559 1.372 . S
C559 C558 1.372 . S
C559 C560 1.400 . S
C559 C564 1.490 . S
C560 H550 0.930 . S
C560 C559 1.400 . S
C560 C563 1.386 . S
H561 C577 0.930 . S
H562 C578 0.931 . S
C563 H551 0.929 . S
C563 C557 1.390 . S
C563 C560 1.386 . S
C564 C559 1.490 . S
C564 C566 1.395 . S
C564 C567 1.403 . S
H565 C571 0.930 . S
C566 H552 0.930 . S
C566 C564 1.395 . S
C566 C569 1.403 . S
C567 C564 1.403 . S
C567 C568 1.524 . S
C567 C571 1.400 . S
C568 H553 0.960 . S
C568 H554 0.960 . S
C568 H555 0.960 . S
C568 C567 1.524 . S
C569 C566 1.403 . S
C569 C570 1.392 . S
C569 C573 1.495 . S
C570 C569 1.392 . S
C570 C571 1.385 . S
C570 C572 1.478 . S
C571 H565 0.930 . S
C571 C567 1.400 . S
C571 C570 1.385 . S
C572 C570 1.478 . S
C572 C574 1.381 . S
C572 C578 1.383 . S
C573 C569 1.495 . S
C573 H579 0.959 . S
C573 H580 0.961 . S
C573 H581 0.960 . S
C574 C572 1.381 . S
C574 C575 1.394 . S
C574 H582 0.930 . S
C575 C574 1.394 . S
C575 C576 1.383 . S
C575 H583 0.929 . S
C576 C575 1.383 . S
C576 C577 1.377 . S
C577 H561 0.930 . S
C577 C576 1.377 . S
C577 C578 1.379 . S
C578 H562 0.931 . S
C578 C572 1.383 . S
C578 C577 1.379 . S
H579 C573 0.959 . S
H580 C573 0.961 . S
H581 C573 0.960 . S
H582 C574 0.930 . S
H583 C575 0.929 . S
H584 C592 0.934 . S
H585 C594 0.930 . S
H586 C596 0.930 . S
H587 C599 0.929 . S
H588 C602 0.930 . S
H589 C604 0.960 . S
H590 C604 0.960 . S
H591 C604 0.960 . S
C592 H584 0.934 . S
C592 C593 1.377 . S
C592 C594 1.384 . S
C593 C592 1.377 . S
C593 C599 1.390 . S
C594 H585 0.930 . S
C594 C592 1.384 . S
C594 C595 1.372 . S
C595 C594 1.372 . S
C595 C596 1.400 . S
C595 C600 1.490 . S
C596 H586 0.930 . S
C596 C595 1.400 . S
C596 C599 1.386 . S
H597 C613 0.930 . S
H598 C614 0.931 . S
C599 H587 0.929 . S
C599 C593 1.390 . S
C599 C596 1.386 . S
C600 C595 1.490 . S
C600 C602 1.395 . S
C600 C603 1.403 . S
H601 C607 0.930 . S
C602 H588 0.930 . S
C602 C600 1.395 . S
C602 C605 1.403 . S
C603 C600 1.403 . S
C603 C604 1.524 . S
C603 C607 1.400 . S
C604 H589 0.960 . S
C604 H590 0.960 . S
C604 H591 0.960 . S
C604 C603 1.524 . S
C605 C602 1.403 . S
C605 C606 1.392 . S
C605 C609 1.495 . S
C606 C605 1.392 . S
C606 C607 1.385 . S
C606 C608 1.478 . S
C607 H601 0.930 . S
C607 C603 1.400 . S
C607 C606 1.385 . S
C608 C606 1.478 . S
C608 C610 1.381 . S
C608 C614 1.383 . S
C609 C605 1.495 . S
C609 H615 0.959 . S
C609 H616 0.961 . S
C609 H617 0.960 . S
C610 C608 1.381 . S
C610 C611 1.394 . S
C610 H618 0.930 . S
C611 C610 1.394 . S
C611 C612 1.383 . S
C611 H619 0.929 . S
C612 C611 1.383 . S
C612 C613 1.377 . S
C613 H597 0.930 . S
C613 C612 1.377 . S
C613 C614 1.379 . S
C614 H598 0.931 . S
C614 C608 1.383 . S
C614 C613 1.379 . S
H615 C609 0.959 . S
H616 C609 0.961 . S
H617 C609 0.960 . S
H618 C610 0.930 . S
H619 C611 0.929 . S
H620 C628 0.929 . S
H621 C630 0.930 . S
H622 C632 0.930 . S
H623 C635 0.929 1_554 S
H624 C638 0.930 . S
H625 C640 0.960 . S
H626 C640 0.960 . S
H627 C640 0.960 . S
C628 H620 0.929 . S
C628 C629 1.378 1_655 S
C628 C630 1.384 . S
C629 C628 1.378 1_455 S
C629 C635 1.389 . S
C630 H621 0.930 . S
C630 C628 1.384 . S
C630 C631 1.372 . S
C631 C630 1.372 . S
C631 C632 1.400 1_655 S
C631 C636 1.490 . S
C632 H622 0.930 . S
C632 C631 1.400 1_455 S
C632 C635 1.386 . S
H633 C649 0.930 . S
H634 C650 0.931 1_455 S
C635 H623 0.929 1_556 S
C635 C629 1.389 . S
C635 C632 1.386 . S
C636 C631 1.490 . S
C636 C638 1.395 1_655 S
C636 C639 1.403 . S
H637 C643 0.930 . S
C638 H624 0.930 . S
C638 C636 1.395 1_455 S
C638 C641 1.403 . S
C639 C636 1.403 . S
C639 C640 1.524 . S
C639 C643 1.400 . S
C640 H625 0.960 . S
C640 H626 0.960 . S
C640 H627 0.960 . S
C640 C639 1.524 . S
C641 C638 1.403 . S
C641 C642 1.392 1_455 S
C641 C645 1.495 . S
C642 C641 1.392 1_655 S
C642 C643 1.385 . S
C642 C644 1.478 . S
C643 H637 0.930 . S
C643 C639 1.400 . S
C643 C642 1.385 . S
C644 C642 1.478 . S
C644 C646 1.381 . S
C644 C650 1.383 . S
C645 C641 1.495 . S
C645 H651 0.959 . S
C645 H652 0.961 . S
C645 H653 0.960 . S
C646 C644 1.381 . S
C646 C647 1.394 . S
C646 H654 0.930 . S
C647 C646 1.394 . S
C647 C648 1.383 . S
C647 H655 0.929 . S
C648 C647 1.383 . S
C648 C649 1.377 . S
C649 H633 0.930 . S
C649 C648 1.377 . S
C649 C650 1.379 . S
C650 H634 0.931 1_655 S
C650 C644 1.383 . S
C650 C649 1.379 . S
H651 C645 0.959 . S
H652 C645 0.961 . S
H653 C645 0.960 . S
H654 C646 0.930 . S
H655 C647 0.929 . S
H656 C664 0.930 . S
H657 C666 0.930 . S
H658 C668 0.930 . S
H659 C671 0.929 . S
H660 C674 0.930 . S
H661 C676 0.960 . S
H662 C676 0.960 . S
H663 C676 0.960 . S
C664 H656 0.930 . S
C664 C665 1.377 . S
C664 C666 1.383 1_565 S
C665 C664 1.377 . S
C665 C671 1.387 1_565 S
C666 H657 0.930 . S
C666 C664 1.383 1_545 S
C666 C667 1.372 . S
C667 C666 1.372 . S
C667 C668 1.400 . S
C667 C672 1.490 . S
C668 H658 0.930 . S
C668 C667 1.400 . S
C668 C671 1.391 . S
H669 C685 0.930 . S
H670 C686 0.931 . S
C671 H659 0.929 . S
C671 C665 1.387 1_545 S
C671 C668 1.391 . S
C672 C667 1.490 . S
C672 C674 1.395 . S
C672 C675 1.403 1_545 S
H673 C679 0.930 . S
C674 H660 0.930 . S
C674 C672 1.395 . S
C674 C677 1.403 . S
C675 C672 1.403 1_565 S
C675 C676 1.524 . S
C675 C679 1.400 . S
C676 H661 0.960 . S
C676 H662 0.960 . S
C676 H663 0.960 . S
C676 C675 1.524 . S
C677 C674 1.403 . S
C677 C678 1.392 . S
C677 C681 1.495 . S
C678 C677 1.392 . S
C678 C679 1.385 1_545 S
C678 C680 1.478 . S
C679 H673 0.930 . S
C679 C675 1.400 . S
C679 C678 1.385 1_565 S
C680 C678 1.478 . S
C680 C682 1.381 . S
C680 C686 1.383 . S
C681 C677 1.495 . S
C681 H687 0.959 . S
C681 H688 0.961 . S
C681 H689 0.960 . S
C682 C680 1.381 . S
C682 C683 1.394 . S
C682 H690 0.930 . S
C683 C682 1.394 . S
C683 C684 1.383 . S
C683 H691 0.929 . S
C684 C683 1.383 . S
C684 C685 1.377 . S
C685 H669 0.930 . S
C685 C684 1.377 . S
C685 C686 1.379 . S
C686 H670 0.931 . S
C686 C680 1.383 . S
C686 C685 1.379 . S
H687 C681 0.959 . S
H688 C681 0.961 . S
H689 C681 0.960 . S
H690 C682 0.930 . S
H691 C683 0.929 . S
H692 C700 0.929 . S
H693 C702 0.930 . S
H694 C704 0.930 . S
H695 C707 0.929 . S
H696 C710 0.930 . S
H697 C712 0.960 . S
H698 C712 0.960 . S
H699 C712 0.960 . S
C700 H692 0.929 . S
C700 C701 1.377 . S
C700 C702 1.384 . S
C701 C700 1.377 . S
C701 C707 1.390 . S
C702 H693 0.930 . S
C702 C700 1.384 . S
C702 C703 1.372 . S
C703 C702 1.372 . S
C703 C704 1.400 . S
C703 C708 1.490 . S
C704 H694 0.930 . S
C704 C703 1.400 . S
C704 C707 1.386 . S
H705 C721 0.930 . S
H706 C722 0.931 . S
C707 H695 0.929 . S
C707 C701 1.390 . S
C707 C704 1.386 . S
C708 C703 1.490 . S
C708 C710 1.395 . S
C708 C711 1.403 . S
H709 C715 0.930 . S
C710 H696 0.930 . S
C710 C708 1.395 . S
C710 C713 1.403 . S
C711 C708 1.403 . S
C711 C712 1.524 . S
C711 C715 1.400 . S
C712 H697 0.960 . S
C712 H698 0.960 . S
C712 H699 0.960 . S
C712 C711 1.524 . S
C713 C710 1.403 . S
C713 C714 1.392 . S
C713 C717 1.495 . S
C714 C713 1.392 . S
C714 C715 1.385 . S
C714 C716 1.478 . S
C715 H709 0.930 . S
C715 C711 1.400 . S
C715 C714 1.385 . S
C716 C714 1.478 . S
C716 C718 1.381 . S
C716 C722 1.383 . S
C717 C713 1.495 . S
C717 H723 0.959 . S
C717 H724 0.961 . S
C717 H725 0.960 . S
C718 C716 1.381 . S
C718 C719 1.394 . S
C718 H726 0.930 . S
C719 C718 1.394 . S
C719 C720 1.383 . S
C719 H727 0.929 . S
C720 C719 1.383 . S
C720 C721 1.377 . S
C721 H705 0.930 . S
C721 C720 1.377 . S
C721 C722 1.379 . S
C722 H706 0.931 . S
C722 C716 1.383 . S
C722 C721 1.379 . S
H723 C717 0.959 . S
H724 C717 0.961 . S
H725 C717 0.960 . S
H726 C718 0.930 . S
H727 C719 0.929 . S
H728 C736 0.929 . S
H729 C738 0.930 . S
H730 C740 0.930 . S
H731 C743 0.929 . S
H732 C746 0.930 . S
H733 C748 0.960 . S
H734 C748 0.960 . S
H735 C748 0.960 . S
C736 H728 0.929 . S
C736 C737 1.377 . S
C736 C738 1.384 . S
C737 C736 1.377 . S
C737 C743 1.390 . S
C738 H729 0.930 . S
C738 C736 1.384 . S
C738 C739 1.372 . S
C739 C738 1.372 . S
C739 C740 1.400 . S
C739 C744 1.490 . S
C740 H730 0.930 . S
C740 C739 1.400 . S
C740 C743 1.386 . S
H741 C757 0.930 . S
H742 C758 0.931 . S
C743 H731 0.929 . S
C743 C737 1.390 . S
C743 C740 1.386 . S
C744 C739 1.490 . S
C744 C746 1.395 . S
C744 C747 1.403 . S
H745 C751 0.930 . S
C746 H732 0.930 . S
C746 C744 1.395 . S
C746 C749 1.403 . S
C747 C744 1.403 . S
C747 C748 1.524 . S
C747 C751 1.400 . S
C748 H733 0.960 . S
C748 H734 0.960 . S
C748 H735 0.960 . S
C748 C747 1.524 . S
C749 C746 1.403 . S
C749 C750 1.392 . S
C749 C753 1.495 . S
C750 C749 1.392 . S
C750 C751 1.385 . S
C750 C752 1.478 . S
C751 H745 0.930 . S
C751 C747 1.400 . S
C751 C750 1.385 . S
C752 C750 1.478 . S
C752 C754 1.381 . S
C752 C758 1.383 . S
C753 C749 1.495 . S
C753 H759 0.959 . S
C753 H760 0.961 . S
C753 H761 0.960 . S
C754 C752 1.381 . S
C754 C755 1.394 . S
C754 H762 0.930 . S
C755 C754 1.394 . S
C755 C756 1.383 . S
C755 H763 0.929 . S
C756 C755 1.383 . S
C756 C757 1.377 . S
C757 H741 0.930 . S
C757 C756 1.377 . S
C757 C758 1.379 . S
C758 H742 0.931 . S
C758 C752 1.383 . S
C758 C757 1.379 . S
H759 C753 0.959 . S
H760 C753 0.961 . S
H761 C753 0.960 . S
H762 C754 0.930 . S
H763 C755 0.929 . S
H764 C772 0.929 . S
H765 C774 0.930 . S
H766 C776 0.930 . S
H767 C779 0.929 . S
H768 C782 0.930 . S
H769 C784 0.960 . S
H770 C784 0.960 . S
H771 C784 0.960 . S
C772 H764 0.929 . S
C772 C773 1.415 . S
C772 C774 1.384 . S
C773 C772 1.415 . S
C773 C779 1.348 1_655 S
C774 H765 0.930 . S
C774 C772 1.384 . S
C774 C775 1.372 1_655 S
C775 C774 1.372 1_455 S
C775 C776 1.400 . S
C775 C780 1.490 . S
C776 H766 0.930 . S
C776 C775 1.400 . S
C776 C779 1.386 . S
H777 C793 0.930 . S
H778 C794 0.931 . S
C779 H767 0.929 . S
C779 C773 1.348 1_455 S
C779 C776 1.386 . S
C780 C775 1.490 . S
C780 C782 1.395 1_455 S
C780 C783 1.403 . S
H781 C787 0.930 . S
C782 H768 0.930 . S
C782 C780 1.395 1_655 S
C782 C785 1.403 . S
C783 C780 1.403 . S
C783 C784 1.524 . S
C783 C787 1.400 . S
C784 H769 0.960 . S
C784 H770 0.960 . S
C784 H771 0.960 . S
C784 C783 1.524 . S
C785 C782 1.403 . S
C785 C786 1.392 1_655 S
C785 C789 1.495 . S
C786 C785 1.392 1_455 S
C786 C787 1.385 . S
C786 C788 1.478 . S
C787 H781 0.930 . S
C787 C783 1.400 . S
C787 C786 1.385 . S
C788 C786 1.478 . S
C788 C790 1.381 1_455 S
C788 C794 1.383 . S
C789 C785 1.495 . S
C789 H795 0.959 . S
C789 H796 0.961 . S
C789 H797 0.960 . S
C790 C788 1.381 1_655 S
C790 C791 1.394 . S
C790 H798 0.930 . S
C791 C790 1.394 . S
C791 C792 1.383 1_655 S
C791 H799 0.929 . S
C792 C791 1.383 1_455 S
C792 C793 1.377 . S
C793 H777 0.930 . S
C793 C792 1.377 . S
C793 C794 1.379 . S
C794 H778 0.931 . S
C794 C788 1.383 . S
C794 C793 1.379 . S
H795 C789 0.959 . S
H796 C789 0.961 . S
H797 C789 0.960 . S
H798 C790 0.930 . S
H799 C791 0.929 . S
H800 C808 0.929 . S
H801 C810 0.930 . S
H802 C812 0.930 . S
H803 C815 0.929 . S
H804 C818 0.930 . S
H805 C820 0.960 . S
H806 C820 0.960 . S
H807 C820 0.960 . S
C808 H800 0.929 . S
C808 C809 1.377 . S
C808 C810 1.384 . S
C809 C808 1.377 . S
C809 C815 1.390 . S
C810 H801 0.930 . S
C810 C808 1.384 . S
C810 C811 1.372 . S
C811 C810 1.372 . S
C811 C812 1.400 . S
C811 C816 1.490 . S
C812 H802 0.930 . S
C812 C811 1.400 . S
C812 C815 1.386 . S
H813 C829 0.930 . S
H814 C830 0.931 . S
C815 H803 0.929 . S
C815 C809 1.390 . S
C815 C812 1.386 . S
C816 C811 1.490 . S
C816 C818 1.395 . S
C816 C819 1.403 1_545 S
H817 C823 0.930 . S
C818 H804 0.930 . S
C818 C816 1.395 . S
C818 C821 1.403 . S
C819 C816 1.403 1_565 S
C819 C820 1.524 . S
C819 C823 1.400 . S
C820 H805 0.960 . S
C820 H806 0.960 . S
C820 H807 0.960 . S
C820 C819 1.524 . S
C821 C818 1.403 . S
C821 C822 1.392 . S
C821 C825 1.495 . S
C822 C821 1.392 . S
C822 C823 1.385 1_545 S
C822 C824 1.478 . S
C823 H817 0.930 . S
C823 C819 1.400 . S
C823 C822 1.385 1_565 S
C824 C822 1.478 . S
C824 C826 1.381 1_545 S
C824 C830 1.383 . S
C825 C821 1.495 . S
C825 H831 0.959 . S
C825 H832 0.961 . S
C825 H833 0.960 . S
C826 C824 1.381 1_565 S
C826 C827 1.394 . S
C826 H834 0.930 . S
C827 C826 1.394 . S
C827 C828 1.376 1_565 S
C827 H835 0.929 1_554 S
C828 C827 1.376 1_545 S
C828 C829 1.387 . S
C829 H813 0.930 . S
C829 C828 1.387 . S
C829 C830 1.379 . S
C830 H814 0.931 . S
C830 C824 1.383 . S
C830 C829 1.379 . S
H831 C825 0.959 . S
H832 C825 0.961 . S
H833 C825 0.960 . S
H834 C826 0.930 . S
H835 C827 0.929 1_556 S
H836 C844 0.929 . S
H837 C846 0.930 . S
H838 C848 0.930 . S
H839 C851 0.929 . S
H840 C854 0.930 . S
H841 C856 0.960 . S
H842 C856 0.960 . S
H843 C856 0.960 . S
C844 H836 0.929 . S
C844 C845 1.377 . S
C844 C846 1.384 . S
C845 C844 1.377 . S
C845 C851 1.390 . S
C846 H837 0.930 . S
C846 C844 1.384 . S
C846 C847 1.372 . S
C847 C846 1.372 . S
C847 C848 1.400 . S
C847 C852 1.490 . S
C848 H838 0.930 . S
C848 C847 1.400 . S
C848 C851 1.386 . S
H849 C865 0.930 . S
H850 C866 0.931 . S
C851 H839 0.929 . S
C851 C845 1.390 . S
C851 C848 1.386 . S
C852 C847 1.490 . S
C852 C854 1.395 . S
C852 C855 1.403 . S
H853 C859 0.930 . S
C854 H840 0.930 . S
C854 C852 1.395 . S
C854 C857 1.403 . S
C855 C852 1.403 . S
C855 C856 1.524 . S
C855 C859 1.400 . S
C856 H841 0.960 . S
C856 H842 0.960 . S
C856 H843 0.960 . S
C856 C855 1.524 . S
C857 C854 1.403 . S
C857 C858 1.392 . S
C857 C861 1.495 . S
C858 C857 1.392 . S
C858 C859 1.385 . S
C858 C860 1.478 . S
C859 H853 0.930 . S
C859 C855 1.400 . S
C859 C858 1.385 . S
C860 C858 1.478 . S
C860 C862 1.381 . S
C860 C866 1.383 . S
C861 C857 1.495 . S
C861 H867 0.959 . S
C861 H868 0.961 . S
C861 H869 0.960 . S
C862 C860 1.381 . S
C862 C863 1.394 . S
C862 H870 0.930 . S
C863 C862 1.394 . S
C863 C864 1.383 . S
C863 H871 0.929 . S
C864 C863 1.383 . S
C864 C865 1.377 . S
C865 H849 0.930 . S
C865 C864 1.377 . S
C865 C866 1.379 . S
C866 H850 0.931 . S
C866 C860 1.383 . S
C866 C865 1.379 . S
H867 C861 0.959 . S
H868 C861 0.961 . S
H869 C861 0.960 . S
H870 C862 0.930 . S
H871 C863 0.929 . S
H872 C880 0.929 . S
H873 C882 0.930 . S
H874 C884 0.930 . S
H875 C887 0.929 . S
H876 C890 0.930 . S
H877 C892 0.960 . S
H878 C892 0.960 . S
H879 C892 0.960 . S
C880 H872 0.929 . S
C880 C881 1.377 . S
C880 C882 1.384 . S
C881 C880 1.377 . S
C881 C887 1.390 . S
C882 H873 0.930 . S
C882 C880 1.384 . S
C882 C883 1.372 . S
C883 C882 1.372 . S
C883 C884 1.400 . S
C883 C888 1.490 . S
C884 H874 0.930 . S
C884 C883 1.400 . S
C884 C887 1.386 . S
H885 C901 0.930 . S
H886 C902 0.931 . S
C887 H875 0.929 . S
C887 C881 1.390 . S
C887 C884 1.386 . S
C888 C883 1.490 . S
C888 C890 1.395 . S
C888 C891 1.403 . S
H889 C895 0.930 . S
C890 H876 0.930 . S
C890 C888 1.395 . S
C890 C893 1.403 . S
C891 C888 1.403 . S
C891 C892 1.524 . S
C891 C895 1.400 . S
C892 H877 0.960 . S
C892 H878 0.960 . S
C892 H879 0.960 . S
C892 C891 1.524 . S
C893 C890 1.403 . S
C893 C894 1.392 . S
C893 C897 1.495 . S
C894 C893 1.392 . S
C894 C895 1.385 . S
C894 C896 1.478 . S
C895 H889 0.930 . S
C895 C891 1.400 . S
C895 C894 1.385 . S
C896 C894 1.478 . S
C896 C898 1.381 . S
C896 C902 1.383 . S
C897 C893 1.495 . S
C897 H903 0.959 . S
C897 H904 0.961 . S
C897 H905 0.960 . S
C898 C896 1.381 . S
C898 C899 1.394 . S
C898 H906 0.930 . S
C899 C898 1.394 . S
C899 C900 1.383 . S
C899 H907 0.929 . S
C900 C899 1.383 . S
C900 C901 1.377 . S
C901 H885 0.930 . S
C901 C900 1.377 . S
C901 C902 1.379 . S
C902 H886 0.931 . S
C902 C896 1.383 . S
C902 C901 1.379 . S
H903 C897 0.959 . S
H904 C897 0.961 . S
H905 C897 0.960 . S
H906 C898 0.930 . S
H907 C899 0.929 . S
H908 C916 0.929 1_556 S
H909 C918 0.930 . S
H910 C920 0.930 . S
H911 C923 0.929 . S
H912 C926 0.930 . S
H913 C928 0.960 . S
H914 C928 0.960 . S
H915 C928 0.960 . S
C916 H908 0.929 1_554 S
C916 C917 1.378 1_455 S
C916 C918 1.384 . S
C917 C916 1.378 1_655 S
C917 C923 1.389 . S
C918 H909 0.930 . S
C918 C916 1.384 . S
C918 C919 1.372 . S
C919 C918 1.372 . S
C919 C920 1.400 1_455 S
C919 C924 1.490 . S
C920 H910 0.930 . S
C920 C919 1.400 1_655 S
C920 C923 1.386 . S
H921 C937 0.930 . S
H922 C938 0.931 1_655 S
C923 H911 0.929 . S
C923 C917 1.389 . S
C923 C920 1.386 . S
C924 C919 1.490 . S
C924 C926 1.395 1_455 S
C924 C927 1.403 . S
H925 C931 0.930 . S
C926 H912 0.930 . S
C926 C924 1.395 1_655 S
C926 C929 1.403 . S
C927 C924 1.403 . S
C927 C928 1.524 . S
C927 C931 1.400 . S
C928 H913 0.960 . S
C928 H914 0.960 . S
C928 H915 0.960 . S
C928 C927 1.524 . S
C929 C926 1.403 . S
C929 C930 1.392 1_655 S
C929 C933 1.495 . S
C930 C929 1.392 1_455 S
C930 C931 1.385 . S
C930 C932 1.478 . S
C931 H925 0.930 . S
C931 C927 1.400 . S
C931 C930 1.385 . S
C932 C930 1.478 . S
C932 C934 1.381 . S
C932 C938 1.383 . S
C933 C929 1.495 . S
C933 H939 0.959 . S
C933 H940 0.961 . S
C933 H941 0.960 . S
C934 C932 1.381 . S
C934 C935 1.394 . S
C934 H942 0.930 . S
C935 C934 1.394 . S
C935 C936 1.383 . S
C935 H943 0.929 . S
C936 C935 1.383 . S
C936 C937 1.377 . S
C937 H921 0.930 . S
C937 C936 1.377 . S
C937 C938 1.379 . S
C938 H922 0.931 1_455 S
C938 C932 1.383 . S
C938 C937 1.379 . S
H939 C933 0.959 . S
H940 C933 0.961 . S
H941 C933 0.960 . S
H942 C934 0.930 . S
H943 C935 0.929 . S
H944 C952 0.929 . S
H945 C954 0.930 . S
H946 C956 0.930 . S
H947 C959 0.929 . S
H948 C962 0.930 . S
H949 C964 0.960 . S
H950 C964 0.960 1_565 S
H951 C964 0.960 . S
C952 H944 0.929 . S
C952 C953 1.377 . S
C952 C954 1.384 . S
C953 C952 1.377 . S
C953 C959 1.390 1_565 S
C954 H945 0.930 . S
C954 C952 1.384 . S
C954 C955 1.372 . S
C955 C954 1.372 . S
C955 C956 1.400 1_565 S
C955 C960 1.490 . S
C956 H946 0.930 . S
C956 C955 1.400 1_545 S
C956 C959 1.386 . S
H957 C973 0.930 . S
H958 C974 0.931 . S
C959 H947 0.929 . S
C959 C953 1.390 1_545 S
C959 C956 1.386 . S
C960 C955 1.490 . S
C960 C962 1.395 . S
C960 C963 1.403 . S
H961 C967 0.930 1_545 S
C962 H948 0.930 . S
C962 C960 1.395 . S
C962 C965 1.403 . S
C963 C960 1.403 . S
C963 C964 1.524 1_565 S
C963 C967 1.400 . S
C964 H949 0.960 . S
C964 H950 0.960 1_545 S
C964 H951 0.960 . S
C964 C963 1.524 1_545 S
C965 C962 1.403 . S
C965 C966 1.392 . S
C965 C969 1.495 . S
C966 C965 1.392 . S
C966 C967 1.385 . S
C966 C968 1.478 . S
C967 H961 0.930 1_565 S
C967 C963 1.400 . S
C967 C966 1.385 . S
C968 C966 1.478 . S
C968 C970 1.381 . S
C968 C974 1.383 1_565 S
C969 C965 1.495 . S
C969 H975 0.959 . S
C969 H976 0.961 . S
C969 H977 0.960 . S
C970 C968 1.381 . S
C970 C971 1.394 . S
C970 H978 0.930 . S
C971 C970 1.394 . S
C971 C972 1.382 . S
C971 H979 0.929 . S
C972 C971 1.382 . S
C972 C973 1.378 1_565 S
C973 H957 0.930 . S
C973 C972 1.378 1_545 S
C973 C974 1.379 . S
C974 H958 0.931 . S
C974 C968 1.383 1_545 S
C974 C973 1.379 . S
H975 C969 0.959 . S
H976 C969 0.961 . S
H977 C969 0.960 . S
H978 C970 0.930 . S
H979 C971 0.929 . S
H980 C988 0.929 . S
H981 C990 0.930 . S
H982 C992 0.930 . S
H983 C995 0.929 . S
H984 C998 0.930 . S
H985 C1000 0.960 . S
H986 C1000 0.960 . S
H987 C1000 0.960 . S
C988 H980 0.929 . S
C988 C989 1.377 . S
C988 C990 1.384 . S
C989 C988 1.377 . S
C989 C995 1.390 . S
C990 H981 0.930 . S
C990 C988 1.384 . S
C990 C991 1.372 . S
C991 C990 1.372 . S
C991 C992 1.400 . S
C991 C996 1.490 . S
C992 H982 0.930 . S
C992 C991 1.400 . S
C992 C995 1.386 . S
H993 C1009 0.930 . S
H994 C1010 0.931 . S
C995 H983 0.929 . S
C995 C989 1.390 . S
C995 C992 1.386 . S
C996 C991 1.490 . S
C996 C998 1.395 . S
C996 C999 1.403 . S
H997 C1003 0.930 . S
C998 H984 0.930 . S
C998 C996 1.395 . S
C998 C1001 1.403 . S
C999 C996 1.403 . S
C999 C1000 1.524 . S
C999 C1003 1.400 . S
C1000 H985 0.960 . S
C1000 H986 0.960 . S
C1000 H987 0.960 . S
C1000 C999 1.524 . S
C1001 C998 1.403 . S
C1001 C1002 1.392 . S
C1001 C1005 1.495 . S
C1002 C1001 1.392 . S
C1002 C1003 1.385 . S
C1002 C1004 1.478 . S
C1003 H997 0.930 . S
C1003 C999 1.400 . S
C1003 C1002 1.385 . S
C1004 C1002 1.478 . S
C1004 C1006 1.381 . S
C1004 C1010 1.383 . S
C1005 C1001 1.495 . S
C1005 H1011 0.959 . S
C1005 H1012 0.961 . S
C1005 H1013 0.960 . S
C1006 C1004 1.381 . S
C1006 C1007 1.394 . S
C1006 H1014 0.930 . S
C1007 C1006 1.394 . S
C1007 C1008 1.383 . S
C1007 H1015 0.929 . S
C1008 C1007 1.383 . S
C1008 C1009 1.377 . S
C1009 H993 0.930 . S
C1009 C1008 1.377 . S
C1009 C1010 1.379 . S
C1010 H994 0.931 . S
C1010 C1004 1.383 . S
C1010 C1009 1.379 . S
H1011 C1005 0.959 . S
H1012 C1005 0.961 . S
H1013 C1005 0.960 . S
H1014 C1006 0.930 . S
H1015 C1007 0.929 . S
H1016 C1024 0.929 . S
H1017 C1026 0.930 . S
H1018 C1028 0.930 . S
H1019 C1031 0.929 . S
H1020 C1034 0.930 . S
H1021 C1036 0.960 . S
H1022 C1036 0.960 . S
H1023 C1036 0.960 . S
C1024 H1016 0.929 . S
C1024 C1025 1.377 . S
C1024 C1026 1.384 . S
C1025 C1024 1.377 . S
C1025 C1031 1.390 . S
C1026 H1017 0.930 . S
C1026 C1024 1.384 . S
C1026 C1027 1.372 . S
C1027 C1026 1.372 . S
C1027 C1028 1.400 . S
C1027 C1032 1.490 . S
C1028 H1018 0.930 . S
C1028 C1027 1.400 . S
C1028 C1031 1.386 . S
H1029 C1045 0.930 . S
H1030 C1046 0.931 . S
C1031 H1019 0.929 . S
C1031 C1025 1.390 . S
C1031 C1028 1.386 . S
C1032 C1027 1.490 . S
C1032 C1034 1.395 . S
C1032 C1035 1.403 . S
H1033 C1039 0.930 . S
C1034 H1020 0.930 . S
C1034 C1032 1.395 . S
C1034 C1037 1.403 . S
C1035 C1032 1.403 . S
C1035 C1036 1.524 . S
C1035 C1039 1.400 . S
C1036 H1021 0.960 . S
C1036 H1022 0.960 . S
C1036 H1023 0.960 . S
C1036 C1035 1.524 . S
C1037 C1034 1.403 . S
C1037 C1038 1.392 . S
C1037 C1041 1.495 . S
C1038 C1037 1.392 . S
C1038 C1039 1.385 . S
C1038 C1040 1.478 . S
C1039 H1033 0.930 . S
C1039 C1035 1.400 . S
C1039 C1038 1.385 . S
C1040 C1038 1.478 . S
C1040 C1042 1.381 . S
C1040 C1046 1.383 . S
C1041 C1037 1.495 . S
C1041 H1047 0.959 . S
C1041 H1048 0.961 . S
C1041 H1049 0.960 . S
C1042 C1040 1.381 . S
C1042 C1043 1.394 . S
C1042 H1050 0.930 . S
C1043 C1042 1.394 . S
C1043 C1044 1.383 . S
C1043 H1051 0.929 . S
C1044 C1043 1.383 . S
C1044 C1045 1.377 . S
C1045 H1029 0.930 . S
C1045 C1044 1.377 . S
C1045 C1046 1.379 . S
C1046 H1030 0.931 . S
C1046 C1040 1.383 . S
C1046 C1045 1.379 . S
H1047 C1041 0.959 . S
H1048 C1041 0.961 . S
H1049 C1041 0.960 . S
H1050 C1042 0.930 . S
H1051 C1043 0.929 . S
H1052 C1060 0.929 . S
H1053 C1062 0.930 . S
H1054 C1064 0.930 . S
H1055 C1067 0.929 . S
H1056 C1070 0.930 . S
H1057 C1072 0.960 . S
H1058 C1072 0.960 . S
H1059 C1072 0.960 . S
C1060 H1052 0.929 . S
C1060 C1061 1.377 . S
C1060 C1062 1.384 . S
C1061 C1060 1.377 . S
C1061 C1067 1.390 1_655 S
C1062 H1053 0.930 . S
C1062 C1060 1.384 . S
C1062 C1063 1.372 . S
C1063 C1062 1.372 . S
C1063 C1064 1.400 1_655 S
C1063 C1068 1.490 . S
C1064 H1054 0.930 . S
C1064 C1063 1.400 1_455 S
C1064 C1067 1.386 . S
H1065 C1081 0.930 . S
H1066 C1082 0.931 . S
C1067 H1055 0.929 . S
C1067 C1061 1.390 1_455 S
C1067 C1064 1.386 . S
C1068 C1063 1.490 . S
C1068 C1070 1.395 . S
C1068 C1071 1.403 1_655 S
H1069 C1075 0.930 . S
C1070 H1056 0.930 . S
C1070 C1068 1.395 . S
C1070 C1073 1.403 . S
C1071 C1068 1.403 1_455 S
C1071 C1072 1.524 . S
C1071 C1075 1.400 . S
C1072 H1057 0.960 . S
C1072 H1058 0.960 . S
C1072 H1059 0.960 . S
C1072 C1071 1.524 . S
C1073 C1070 1.403 . S
C1073 C1074 1.392 . S
C1073 C1077 1.495 . S
C1074 C1073 1.392 . S
C1074 C1075 1.385 1_655 S
C1074 C1076 1.478 . S
C1075 H1069 0.930 . S
C1075 C1071 1.400 . S
C1075 C1074 1.385 1_455 S
C1076 C1074 1.478 . S
C1076 C1078 1.381 . S
C1076 C1082 1.383 1_655 S
C1077 C1073 1.495 . S
C1077 H1083 0.959 . S
C1077 H1084 0.961 . S
C1077 H1085 0.960 . S
C1078 C1076 1.381 . S
C1078 C1079 1.394 . S
C1078 H1086 0.930 . S
C1079 C1078 1.394 . S
C1079 C1080 1.395 . S
C1079 H1087 0.929 . S
C1080 C1079 1.395 . S
C1080 C1081 1.367 1_655 S
C1081 H1065 0.930 . S
C1081 C1080 1.367 1_455 S
C1081 C1082 1.379 . S
C1082 H1066 0.931 . S
C1082 C1076 1.383 1_455 S
C1082 C1081 1.379 . S
H1083 C1077 0.959 . S
H1084 C1077 0.961 . S
H1085 C1077 0.960 . S
H1086 C1078 0.930 . S
H1087 C1079 0.929 . S
H1088 C1096 0.941 . S
H1089 C1098 0.930 1_554 S
H1090 C1100 0.930 . S
H1091 C1103 0.929 1_565 S
H1092 C1106 0.930 . S
H1093 C1108 0.960 . S
H1094 C1108 0.960 . S
H1095 C1108 0.960 . S
C1096 H1088 0.941 . S
C1096 C1097 1.377 . S
C1096 C1098 1.384 . S
C1097 C1096 1.377 . S
C1097 C1103 1.390 . S
C1098 H1089 0.930 1_556 S
C1098 C1096 1.384 . S
C1098 C1099 1.372 . S
C1099 C1098 1.372 . S
C1099 C1100 1.400 1_545 S
C1099 C1104 1.490 . S
C1100 H1090 0.930 . S
C1100 C1099 1.400 1_565 S
C1100 C1103 1.386 1_565 S
H1101 C1117 0.930 . S
H1102 C1118 0.931 1_556 S
C1103 H1091 0.929 1_545 S
C1103 C1097 1.390 . S
C1103 C1100 1.386 1_545 S
C1104 C1099 1.490 . S
C1104 C1106 1.401 1_556 S
C1104 C1107 1.403 . S
H1105 C1111 0.930 1_565 S
C1106 H1092 0.930 . S
C1106 C1104 1.401 1_554 S
C1106 C1109 1.397 1_545 S
C1107 C1104 1.403 . S
C1107 C1108 1.524 . S
C1107 C1111 1.401 . S
C1108 H1093 0.960 . S
C1108 H1094 0.960 . S
C1108 H1095 0.960 . S
C1108 C1107 1.524 . S
C1109 C1106 1.397 1_565 S
C1109 C1110 1.392 . S
C1109 C1113 1.495 . S
C1110 C1109 1.392 . S
C1110 C1111 1.384 1_564 S
C1110 C1112 1.478 . S
C1111 H1105 0.930 1_545 S
C1111 C1107 1.401 . S
C1111 C1110 1.384 1_546 S
C1112 C1110 1.478 . S
C1112 C1114 1.381 1_565 S
C1112 C1118 1.383 . S
C1113 C1109 1.495 . S
C1113 H1119 0.959 . S
C1113 H1120 0.961 . S
C1113 H1121 0.960 . S
C1114 C1112 1.381 1_545 S
C1114 C1115 1.394 1_545 S
C1114 H1122 0.930 . S
C1115 C1114 1.394 1_565 S
C1115 C1116 1.383 . S
C1115 H1123 0.929 1_565 S
C1116 C1115 1.383 . S
C1116 C1117 1.377 . S
C1117 H1101 0.930 . S
C1117 C1116 1.377 . S
C1117 C1118 1.379 . S
C1118 H1102 0.931 1_554 S
C1118 C1112 1.383 . S
C1118 C1117 1.379 . S
H1119 C1113 0.959 . S
H1120 C1113 0.961 . S
H1121 C1113 0.960 . S
H1122 C1114 0.930 . S
H1123 C1115 0.929 1_545 S
H1124 C1132 0.923 1_554 S
H1125 C1134 0.930 . S
H1126 C1136 0.930 . S
H1127 C1139 0.929 . S
H1128 C1142 0.930 . S
H1129 C1144 0.960 . S
H1130 C1144 0.960 . S
H1131 C1144 0.960 . S
C1132 H1124 0.923 1_556 S
C1132 C1133 1.386 . S
C1132 C1134 1.381 1_556 S
C1133 C1132 1.386 . S
C1133 C1139 1.390 . S
C1134 H1125 0.930 . S
C1134 C1132 1.381 1_554 S
C1134 C1135 1.372 1_554 S
C1135 C1134 1.372 1_556 S
C1135 C1136 1.400 . S
C1135 C1140 1.490 . S
C1136 H1126 0.930 . S
C1136 C1135 1.400 . S
C1136 C1139 1.386 . S
H1137 C1153 0.930 1_556 S
H1138 C1154 0.931 . S
C1139 H1127 0.929 . S
C1139 C1133 1.390 . S
C1139 C1136 1.386 . S
C1140 C1135 1.490 . S
C1140 C1142 1.395 1_556 S
C1140 C1143 1.403 . S
H1141 C1147 0.930 . S
C1142 H1128 0.930 . S
C1142 C1140 1.395 1_554 S
C1142 C1145 1.403 . S
C1143 C1140 1.403 . S
C1143 C1144 1.524 . S
C1143 C1147 1.400 . S
C1144 H1129 0.960 . S
C1144 H1130 0.960 . S
C1144 H1131 0.960 . S
C1144 C1143 1.524 . S
C1145 C1142 1.403 . S
C1145 C1146 1.392 . S
C1145 C1149 1.495 . S
C1146 C1145 1.392 . S
C1146 C1147 1.385 1_554 S
C1146 C1148 1.478 . S
C1147 H1141 0.930 . S
C1147 C1143 1.400 . S
C1147 C1146 1.385 1_556 S
C1148 C1146 1.478 . S
C1148 C1150 1.381 . S
C1148 C1154 1.383 1_554 S
C1149 C1145 1.495 . S
C1149 H1155 0.959 . S
C1149 H1156 0.961 . S
C1149 H1157 0.960 . S
C1150 C1148 1.381 . S
C1150 C1151 1.394 . S
C1150 H1158 0.930 . S
C1151 C1150 1.394 . S
C1151 C1152 1.383 . S
C1151 H1159 0.929 . S
C1152 C1151 1.383 . S
C1152 C1153 1.377 . S
C1153 H1137 0.930 1_554 S
C1153 C1152 1.377 . S
C1153 C1154 1.379 1_554 S
C1154 H1138 0.931 . S
C1154 C1148 1.383 1_556 S
C1154 C1153 1.379 1_556 S
H1155 C1149 0.959 . S
H1156 C1149 0.961 . S
H1157 C1149 0.960 . S
H1158 C1150 0.930 . S
H1159 C1151 0.929 . S
H1160 C1168 0.929 . S
H1161 C1170 0.930 . S
H1162 C1172 0.930 1_556 S
H1163 C1175 0.929 1_556 S
H1164 C1178 0.930 . S
H1165 C1180 0.960 1_455 S
H1166 C1180 0.960 . S
H1167 C1180 0.960 . S
C1168 H1160 0.929 . S
C1168 C1169 1.377 . S
C1168 C1170 1.384 . S
C1169 C1168 1.377 . S
C1169 C1175 1.390 . S
C1170 H1161 0.930 . S
C1170 C1168 1.384 . S
C1170 C1171 1.372 . S
C1171 C1170 1.372 . S
C1171 C1172 1.400 . S
C1171 C1176 1.490 . S
C1172 H1162 0.930 1_554 S
C1172 C1171 1.400 . S
C1172 C1175 1.386 . S
H1173 C1189 0.930 . S
H1174 C1190 0.931 . S
C1175 H1163 0.929 1_554 S
C1175 C1169 1.390 . S
C1175 C1172 1.386 . S
C1176 C1171 1.490 . S
C1176 C1178 1.395 1_554 S
C1176 C1179 1.403 . S
H1177 C1183 0.930 . S
C1178 H1164 0.930 . S
C1178 C1176 1.395 1_556 S
C1178 C1181 1.403 1_655 S
C1179 C1176 1.403 . S
C1179 C1180 1.524 . S
C1179 C1183 1.400 1_655 S
C1180 H1165 0.960 1_655 S
C1180 H1166 0.960 . S
C1180 H1167 0.960 . S
C1180 C1179 1.524 . S
C1181 C1178 1.403 1_455 S
C1181 C1182 1.392 . S
C1181 C1185 1.495 . S
C1182 C1181 1.392 . S
C1182 C1183 1.385 1_556 S
C1182 C1184 1.478 . S
C1183 H1177 0.930 . S
C1183 C1179 1.400 1_455 S
C1183 C1182 1.385 1_554 S
C1184 C1182 1.478 . S
C1184 C1186 1.383 . S
C1184 C1190 1.383 . S
C1185 C1181 1.495 . S
C1185 H1191 0.959 1_455 S
C1185 H1192 0.961 . S
C1185 H1193 0.960 . S
C1186 C1184 1.383 . S
C1186 C1187 1.395 . S
C1186 H1194 0.928 1_556 S
C1187 C1186 1.395 . S
C1187 C1188 1.383 . S
C1187 H1195 0.929 1_556 S
C1188 C1187 1.383 . S
C1188 C1189 1.377 . S
C1189 H1173 0.930 . S
C1189 C1188 1.377 . S
C1189 C1190 1.379 . S
C1190 H1174 0.931 . S
C1190 C1184 1.383 . S
C1190 C1189 1.379 . S
H1191 C1185 0.959 1_655 S
H1192 C1185 0.961 . S
H1193 C1185 0.960 . S
H1194 C1186 0.928 1_554 S
H1195 C1187 0.929 1_554 S
H1196 C1204 0.929 1_554 S
H1197 C1206 0.930 . S
H1198 C1208 0.930 1_655 S
H1199 C1211 0.930 . S
H1200 C1214 0.930 . S
H1201 C1216 0.960 1_565 S
H1202 C1216 0.960 . S
H1203 C1216 0.960 . S
C1204 H1196 0.929 1_556 S
C1204 C1205 1.377 . S
C1204 C1206 1.384 1_556 S
C1205 C1204 1.377 . S
C1205 C1211 1.390 . S
C1206 H1197 0.930 . S
C1206 C1204 1.384 1_554 S
C1206 C1207 1.372 1_554 S
C1207 C1206 1.372 1_556 S
C1207 C1208 1.400 . S
C1207 C1212 1.490 . S
C1208 H1198 0.930 1_455 S
C1208 C1207 1.400 . S
C1208 C1211 1.386 . S
H1209 C1225 0.930 1_556 S
H1210 C1226 0.931 1_556 S
C1211 H1199 0.930 . S
C1211 C1205 1.390 . S
C1211 C1208 1.386 . S
C1212 C1207 1.490 . S
C1212 C1214 1.395 1_456 S
C1212 C1215 1.403 . S
H1213 C1219 0.930 . S
C1214 H1200 0.930 . S
C1214 C1212 1.395 1_654 S
C1214 C1217 1.403 1_545 S
C1215 C1212 1.403 . S
C1215 C1216 1.524 . S
C1215 C1219 1.400 1_545 S
C1216 H1201 0.960 1_545 S
C1216 H1202 0.960 . S
C1216 H1203 0.960 . S
C1216 C1215 1.524 . S
C1217 C1214 1.403 1_565 S
C1217 C1218 1.392 . S
C1217 C1221 1.495 . S
C1218 C1217 1.392 . S
C1218 C1219 1.385 1_654 S
C1218 C1220 1.478 . S
C1219 H1213 0.930 . S
C1219 C1215 1.400 1_565 S
C1219 C1218 1.385 1_456 S
C1220 C1218 1.478 . S
C1220 C1222 1.381 . S
C1220 C1226 1.383 . S
C1221 C1217 1.495 . S
C1221 H1227 0.959 1_565 S
C1221 H1228 0.961 . S
C1221 H1229 0.960 . S
C1222 C1220 1.381 . S
C1222 C1223 1.394 . S
C1222 H1230 0.930 1_655 S
C1223 C1222 1.394 . S
C1223 C1224 1.383 . S
C1223 H1231 0.929 1_655 S
C1224 C1223 1.383 . S
C1224 C1225 1.377 . S
C1225 H1209 0.930 1_554 S
C1225 C1224 1.377 . S
C1225 C1226 1.379 . S
C1226 H1210 0.931 1_554 S
C1226 C1220 1.383 . S
C1226 C1225 1.379 . S
H1227 C1221 0.959 1_545 S
H1228 C1221 0.961 . S
H1229 C1221 0.960 . S
H1230 C1222 0.930 1_455 S
H1231 C1223 0.929 1_455 S
H1232 C1240 0.929 . S
H1233 C1242 0.930 . S
H1234 C1244 0.930 1_565 S
H1235 C1247 0.929 . S
H1236 C1250 0.930 . S
H1237 C1252 0.960 . S
H1238 C1252 0.960 . S
H1239 C1252 0.960 . S
C1240 H1232 0.929 . S
C1240 C1241 1.377 . S
C1240 C1242 1.384 . S
C1241 C1240 1.377 . S
C1241 C1247 1.390 . S
C1242 H1233 0.930 . S
C1242 C1240 1.384 . S
C1242 C1243 1.372 . S
C1243 C1242 1.372 . S
C1243 C1244 1.400 . S
C1243 C1248 1.490 . S
C1244 H1234 0.930 1_545 S
C1244 C1243 1.400 . S
C1244 C1247 1.386 . S
H1245 C1261 0.930 . S
H1246 C1262 0.931 . S
C1247 H1235 0.929 . S
C1247 C1241 1.390 . S
C1247 C1244 1.386 . S
C1248 C1243 1.490 . S
C1248 C1250 1.395 . S
C1248 C1251 1.403 1_545 S
H1249 C1255 0.930 . S
C1250 H1236 0.930 . S
C1250 C1248 1.395 . S
C1250 C1253 1.403 1_455 S
C1251 C1248 1.403 1_565 S
C1251 C1252 1.524 . S
C1251 C1255 1.400 1_455 S
C1252 H1237 0.960 . S
C1252 H1238 0.960 . S
C1252 H1239 0.960 . S
C1252 C1251 1.524 . S
C1253 C1250 1.403 1_655 S
C1253 C1254 1.351 1_545 S
C1253 C1257 1.495 . S
C1254 C1253 1.351 1_565 S
C1254 C1255 1.419 . S
C1254 C1256 1.488 . S
C1255 H1249 0.930 . S
C1255 C1251 1.400 1_655 S
C1255 C1254 1.419 . S
C1256 C1254 1.488 . S
C1256 C1258 1.381 . S
C1256 C1262 1.383 . S
C1257 C1253 1.495 . S
C1257 H1263 0.959 . S
C1257 H1264 0.961 . S
C1257 H1265 0.960 . S
C1258 C1256 1.381 . S
C1258 C1259 1.394 . S
C1258 H1266 0.930 1_565 S
C1259 C1258 1.394 . S
C1259 C1260 1.383 . S
C1259 H1267 0.929 . S
C1260 C1259 1.383 . S
C1260 C1261 1.377 . S
C1261 H1245 0.930 . S
C1261 C1260 1.377 . S
C1261 C1262 1.379 . S
C1262 H1246 0.931 . S
C1262 C1256 1.383 . S
C1262 C1261 1.379 . S
H1263 C1257 0.959 . S
H1264 C1257 0.961 . S
H1265 C1257 0.960 . S
H1266 C1258 0.930 1_545 S
H1267 C1259 0.929 . S
H1268 C1276 0.929 . S
H1269 C1278 0.930 . S
H1270 C1280 0.930 . S
H1271 C1283 0.929 . S
H1272 C1286 0.930 . S
H1273 C1288 0.960 1_545 S
H1274 C1288 0.960 . S
H1275 C1288 0.960 . S
C1276 H1268 0.929 . S
C1276 C1277 1.377 . S
C1276 C1278 1.384 . S
C1277 C1276 1.377 . S
C1277 C1283 1.390 . S
C1278 H1269 0.930 . S
C1278 C1276 1.384 . S
C1278 C1279 1.372 . S
C1279 C1278 1.372 . S
C1279 C1280 1.400 . S
C1279 C1284 1.490 . S
C1280 H1270 0.930 . S
C1280 C1279 1.400 . S
C1280 C1283 1.386 . S
H1281 C1297 0.930 . S
H1282 C1298 0.931 . S
C1283 H1271 0.929 . S
C1283 C1277 1.390 . S
C1283 C1280 1.386 . S
C1284 C1279 1.490 . S
C1284 C1286 1.395 . S
C1284 C1287 1.403 . S
H1285 C1291 0.930 . S
C1286 H1272 0.930 . S
C1286 C1284 1.395 . S
C1286 C1289 1.403 1_565 S
C1287 C1284 1.403 . S
C1287 C1288 1.524 . S
C1287 C1291 1.400 1_565 S
C1288 H1273 0.960 1_565 S
C1288 H1274 0.960 . S
C1288 H1275 0.960 . S
C1288 C1287 1.524 . S
C1289 C1286 1.403 1_545 S
C1289 C1290 1.392 . S
C1289 C1293 1.495 . S
C1290 C1289 1.392 . S
C1290 C1291 1.385 . S
C1290 C1292 1.478 . S
C1291 H1285 0.930 . S
C1291 C1287 1.400 1_545 S
C1291 C1290 1.385 . S
C1292 C1290 1.478 . S
C1292 C1294 1.381 . S
C1292 C1298 1.383 . S
C1293 C1289 1.495 . S
C1293 H1299 0.959 1_545 S
C1293 H1300 0.961 . S
C1293 H1301 0.960 . S
C1294 C1292 1.381 . S
C1294 C1295 1.394 . S
C1294 H1302 0.930 . S
C1295 C1294 1.394 . S
C1295 C1296 1.383 . S
C1295 H1303 0.929 . S
C1296 C1295 1.383 . S
C1296 C1297 1.377 . S
C1297 H1281 0.930 . S
C1297 C1296 1.377 . S
C1297 C1298 1.379 . S
C1298 H1282 0.931 . S
C1298 C1292 1.383 . S
C1298 C1297 1.379 . S
H1299 C1293 0.959 1_565 S
H1300 C1293 0.961 . S
H1301 C1293 0.960 . S
H1302 C1294 0.930 . S
H1303 C1295 0.929 . S
H1304 C1312 0.929 . S
H1305 C1314 0.930 . S
H1306 C1316 0.930 . S
H1307 C1319 0.929 . S
H1308 C1322 0.930 . S
H1309 C1324 0.960 . S
H1310 C1324 0.960 . S
H1311 C1324 0.960 . S
C1312 H1304 0.929 . S
C1312 C1313 1.377 . S
C1312 C1314 1.384 . S
C1313 C1312 1.377 . S
C1313 C1319 1.390 . S
C1314 H1305 0.930 . S
C1314 C1312 1.384 . S
C1314 C1315 1.372 . S
C1315 C1314 1.372 . S
C1315 C1316 1.400 . S
C1315 C1320 1.490 . S
C1316 H1306 0.930 . S
C1316 C1315 1.400 . S
C1316 C1319 1.386 . S
H1317 C1333 0.930 . S
H1318 C1334 0.931 . S
C1319 H1307 0.929 . S
C1319 C1313 1.390 . S
C1319 C1316 1.386 . S
C1320 C1315 1.490 . S
C1320 C1322 1.395 . S
C1320 C1323 1.403 . S
H1321 C1327 0.930 . S
C1322 H1308 0.930 . S
C1322 C1320 1.395 . S
C1322 C1325 1.403 . S
C1323 C1320 1.403 . S
C1323 C1324 1.524 . S
C1323 C1327 1.400 . S
C1324 H1309 0.960 . S
C1324 H1310 0.960 . S
C1324 H1311 0.960 . S
C1324 C1323 1.524 . S
C1325 C1322 1.403 . S
C1325 C1326 1.392 . S
C1325 C1329 1.495 . S
C1326 C1325 1.392 . S
C1326 C1327 1.385 . S
C1326 C1328 1.478 . S
C1327 H1321 0.930 . S
C1327 C1323 1.400 . S
C1327 C1326 1.385 . S
C1328 C1326 1.478 . S
C1328 C1330 1.381 . S
C1328 C1334 1.383 . S
C1329 C1325 1.495 . S
C1329 H1335 0.959 . S
C1329 H1336 0.961 . S
C1329 H1337 0.960 . S
C1330 C1328 1.381 . S
C1330 C1331 1.394 . S
C1330 H1338 0.930 . S
C1331 C1330 1.394 . S
C1331 C1332 1.383 . S
C1331 H1339 0.929 . S
C1332 C1331 1.383 . S
C1332 C1333 1.377 . S
C1333 H1317 0.930 . S
C1333 C1332 1.377 . S
C1333 C1334 1.379 . S
C1334 H1318 0.931 . S
C1334 C1328 1.383 . S
C1334 C1333 1.379 . S
H1335 C1329 0.959 . S
H1336 C1329 0.961 . S
H1337 C1329 0.960 . S
H1338 C1330 0.930 . S
H1339 C1331 0.929 . S
H1340 C1348 0.929 1_455 S
H1341 C1350 0.930 . S
H1342 C1352 0.930 . S
H1343 C1355 0.929 . S
H1344 C1358 0.930 . S
H1345 C1360 0.960 . S
H1346 C1360 0.960 . S
H1347 C1360 0.960 . S
C1348 H1340 0.929 1_655 S
C1348 C1349 1.377 . S
C1348 C1350 1.384 1_655 S
C1349 C1348 1.377 . S
C1349 C1355 1.390 . S
C1350 H1341 0.930 . S
C1350 C1348 1.384 1_455 S
C1350 C1351 1.372 1_455 S
C1351 C1350 1.372 1_655 S
C1351 C1352 1.400 . S
C1351 C1356 1.490 . S
C1352 H1342 0.930 . S
C1352 C1351 1.400 . S
C1352 C1355 1.386 . S
H1353 C1369 0.933 . S
H1354 C1370 0.931 1_655 S
C1355 H1343 0.929 . S
C1355 C1349 1.390 . S
C1355 C1352 1.386 . S
C1356 C1351 1.490 . S
C1356 C1358 1.395 1_655 S
C1356 C1359 1.403 . S
H1357 C1363 0.930 . S
C1358 H1344 0.930 . S
C1358 C1356 1.395 1_455 S
C1358 C1361 1.403 . S
C1359 C1356 1.403 . S
C1359 C1360 1.524 . S
C1359 C1363 1.400 . S
C1360 H1345 0.960 . S
C1360 H1346 0.960 . S
C1360 H1347 0.960 . S
C1360 C1359 1.524 . S
C1361 C1358 1.403 . S
C1361 C1362 1.392 . S
C1361 C1365 1.495 . S
C1362 C1361 1.392 . S
C1362 C1363 1.385 1_455 S
C1362 C1364 1.478 . S
C1363 H1357 0.930 . S
C1363 C1359 1.400 . S
C1363 C1362 1.385 1_655 S
C1364 C1362 1.478 . S
C1364 C1366 1.381 . S
C1364 C1370 1.383 . S
C1365 C1361 1.495 . S
C1365 H1371 0.959 . S
C1365 H1372 0.961 . S
C1365 H1373 0.960 . S
C1366 C1364 1.381 . S
C1366 C1367 1.394 . S
C1366 H1374 0.930 . S
C1367 C1366 1.394 . S
C1367 C1368 1.383 . S
C1367 H1375 0.929 . S
C1368 C1367 1.383 . S
C1368 C1369 1.377 . S
C1369 H1353 0.933 . S
C1369 C1368 1.377 . S
C1369 C1370 1.379 . S
C1370 H1354 0.931 1_455 S
C1370 C1364 1.383 . S
C1370 C1369 1.379 . S
H1371 C1365 0.959 . S
H1372 C1365 0.961 . S
H1373 C1365 0.960 . S
H1374 C1366 0.930 . S
H1375 C1367 0.929 . S
C233 C79 0.458 . S
C252 C9 0.440 . S
C269 C93 0.432 . S
C288 C23 0.533 . S
C305 C37 0.441 . S
C324 C107 0.513 . S
C341 C51 0.521 . S
C360 C65 0.561 . S
C377 C121 0.469 . S
C396 C191 0.412 . S
C413 C205 0.448 . S
C432 C135 0.381 . S
C449 C219 0.497 . S
C468 C149 0.531 . S
C485 C163 0.521 . S
C504 C177 0.471 . S
C521 C8 1.586 1_556 S
C540 C175 1.498 . S
C557 C189 1.562 . S
C576 C22 1.633 1_556 S
C593 C36 1.650 1_556 S
C612 C203 1.567 . S
C629 C50 1.604 1_556 S
C648 C217 1.536 . S
C665 C64 1.609 . S
C684 C119 1.540 . S
C701 C78 1.650 . S
C720 C133 1.603 . S
C737 C92 1.633 . S
C756 C147 1.581 . S
C773 C106 1.588 . S
C792 C161 1.484 . S
C809 C63 1.510 . S
C828 C120 1.579 1_544 S
C845 C77 1.557 . S
C864 C134 1.625 1_554 S
C881 C91 1.579 . S
C900 C148 1.649 1_554 S
C917 C162 1.604 1_554 S
C936 C105 1.508 . S
C953 C7 1.537 . S
C972 C176 1.598 1_565 S
C989 C190 1.650 . S
C1008 C21 1.562 . S
C1025 C204 1.634 . S
C1044 C35 1.547 . S
C1061 C49 1.512 . S
C1080 C218 1.575 1_655 S
C1097 C115 1.402 . S
C1116 C3 1.398 . S
C1133 C129 1.438 . S
C1152 C17 1.463 . S
C1169 C31 1.544 . S
C1188 C143 1.571 . S
C1205 C157 1.486 . S
C1224 C45 1.491 . S
C1241 C59 1.476 . S
C1260 C171 1.442 . S
C1277 C185 1.546 . S
C1296 C73 1.576 . S
C1313 C199 1.424 . S
C1332 C87 1.415 . S
C1349 C213 1.396 . S
C1368 C101 1.430 . S
