# Generated by pormake.
# Topology wkj, (6)-cn, num edge types: 1
# Building blocks:
#     Node 0, Type 0, BuildingBlock: VOLQOD_clean_sbu_1, # of connection points: 6
#     Node 1, Type 0, BuildingBlock: VOLQOD_clean_sbu_1, # of connection points: 6
#     Node 2, Type 0, BuildingBlock: VOLQOD_clean_sbu_1, # of connection points: 6
#     Node 3, Type 0, BuildingBlock: VOLQOD_clean_sbu_1, # of connection points: 6
#     Node 4, Type 0, BuildingBlock: VOLQOD_clean_sbu_1, # of connection points: 6
#     Node 5, Type 0, BuildingBlock: VOLQOD_clean_sbu_1, # of connection points: 6
#     Node 6, Type 0, BuildingBlock: VOLQOD_clean_sbu_1, # of connection points: 6
#     Node 7, Type 0, BuildingBlock: VOLQOD_clean_sbu_1, # of connection points: 6
#     Node 8, Type 0, BuildingBlock: VOLQOD_clean_sbu_1, # of connection points: 6
#     Node 9, Type 0, BuildingBlock: VOLQOD_clean_sbu_1, # of connection points: 6
#     Node 10, Type 0, BuildingBlock: VOLQOD_clean_sbu_1, # of connection points: 6
#     Node 11, Type 0, BuildingBlock: VOLQOD_clean_sbu_1, # of connection points: 6
#     Edge 12, Type (0, 0), BuildingBlock: OJICUG_clean_linker_0, # of connection points: 2
#     Edge 13, Type (0, 0), BuildingBlock: OJICUG_clean_linker_0, # of connection points: 2
#     Edge 14, Type (0, 0), BuildingBlock: OJICUG_clean_linker_0, # of connection points: 2
#     Edge 15, Type (0, 0), BuildingBlock: OJICUG_clean_linker_0, # of connection points: 2
#     Edge 16, Type (0, 0), BuildingBlock: OJICUG_clean_linker_0, # of connection points: 2
#     Edge 17, Type (0, 0), BuildingBlock: OJICUG_clean_linker_0, # of connection points: 2
#     Edge 18, Type (0, 0), BuildingBlock: OJICUG_clean_linker_0, # of connection points: 2
#     Edge 19, Type (0, 0), BuildingBlock: OJICUG_clean_linker_0, # of connection points: 2
#     Edge 20, Type (0, 0), BuildingBlock: OJICUG_clean_linker_0, # of connection points: 2
#     Edge 21, Type (0, 0), BuildingBlock: OJICUG_clean_linker_0, # of connection points: 2
#     Edge 22, Type (0, 0), BuildingBlock: OJICUG_clean_linker_0, # of connection points: 2
#     Edge 23, Type (0, 0), BuildingBlock: OJICUG_clean_linker_0, # of connection points: 2
#     Edge 24, Type (0, 0), BuildingBlock: OJICUG_clean_linker_0, # of connection points: 2
#     Edge 25, Type (0, 0), BuildingBlock: OJICUG_clean_linker_0, # of connection points: 2
#     Edge 26, Type (0, 0), BuildingBlock: OJICUG_clean_linker_0, # of connection points: 2
#     Edge 27, Type (0, 0), BuildingBlock: OJICUG_clean_linker_0, # of connection points: 2
#     Edge 28, Type (0, 0), BuildingBlock: OJICUG_clean_linker_0, # of connection points: 2
#     Edge 29, Type (0, 0), BuildingBlock: OJICUG_clean_linker_0, # of connection points: 2
#     Edge 30, Type (0, 0), BuildingBlock: OJICUG_clean_linker_0, # of connection points: 2
#     Edge 31, Type (0, 0), BuildingBlock: OJICUG_clean_linker_0, # of connection points: 2
#     Edge 32, Type (0, 0), BuildingBlock: OJICUG_clean_linker_0, # of connection points: 2
#     Edge 33, Type (0, 0), BuildingBlock: OJICUG_clean_linker_0, # of connection points: 2
#     Edge 34, Type (0, 0), BuildingBlock: OJICUG_clean_linker_0, # of connection points: 2
#     Edge 35, Type (0, 0), BuildingBlock: OJICUG_clean_linker_0, # of connection points: 2
#     Edge 36, Type (0, 0), BuildingBlock: OJICUG_clean_linker_0, # of connection points: 2
#     Edge 37, Type (0, 0), BuildingBlock: OJICUG_clean_linker_0, # of connection points: 2
#     Edge 38, Type (0, 0), BuildingBlock: OJICUG_clean_linker_0, # of connection points: 2
#     Edge 39, Type (0, 0), BuildingBlock: OJICUG_clean_linker_0, # of connection points: 2
#     Edge 40, Type (0, 0), BuildingBlock: OJICUG_clean_linker_0, # of connection points: 2
#     Edge 41, Type (0, 0), BuildingBlock: OJICUG_clean_linker_0, # of connection points: 2
#     Edge 42, Type (0, 0), BuildingBlock: OJICUG_clean_linker_0, # of connection points: 2
#     Edge 43, Type (0, 0), BuildingBlock: OJICUG_clean_linker_0, # of connection points: 2
#     Edge 44, Type (0, 0), BuildingBlock: OJICUG_clean_linker_0, # of connection points: 2
#     Edge 45, Type (0, 0), BuildingBlock: OJICUG_clean_linker_0, # of connection points: 2
#     Edge 46, Type (0, 0), BuildingBlock: OJICUG_clean_linker_0, # of connection points: 2
#     Edge 47, Type (0, 0), BuildingBlock: OJICUG_clean_linker_0, # of connection points: 2
# Relax obj value: 0.767
# Max RMSD: 0.282
# Mean RMSD: 0.282
data_MOF--net-wkj--node1-VOLQOD_clean_sbu_1--edge1-OJICUG_clean_linker_0
_symmetry_space_group_name_H-M    P1
_symmetry_Int_Tables_number       1
_symmetry_cell_setting            triclinic
loop_
_symmetry_equiv_pos_as_xyz
'x, y, z'
_cell_length_a     43.873649
_cell_length_b     43.94214
_cell_length_c     18.374423
_cell_angle_alpha  89.197172
_cell_angle_beta   90.874324
_cell_angle_gamma 120.87125
loop_
_atom_site_label
_atom_site_type_symbol
_atom_site_fract_x
_atom_site_fract_y
_atom_site_fract_z
_atom_type_partial_charge
O0 O 0.37941 0.00804 0.3195 0.0
Zn1 Zn 0.4019 0.03182 0.22673 0.0
O2 O 0.4248 0.0816 0.23165 0.0
Zn3 Zn 0.47545 0.10492 0.2148 0.0
Zn4 Zn 0.41744 0.09536 0.32739 0.0
Zn5 Zn 0.40844 0.09513 0.14582 0.0
O6 O 0.49409 0.1458 0.14623 0.0
O7 O 0.44785 0.12032 0.07223 0.0
O8 O 0.43718 0.02081 0.19501 0.0
O9 O 0.48756 0.07126 0.17246 0.0
O10 O 0.50305 0.12061 0.30606 0.0
O11 O 0.46504 0.11654 0.38928 0.0
O12 O 0.40511 0.13399 0.3007 0.0
O13 O 0.36384 0.01002 0.15235 0.0
O14 O 0.3962 0.129 0.17984 0.0
O15 O 0.36752 0.05528 0.09122 0.0
C16 C 0.36851 0.01713 0.37408 0.0
C17 C 0.48074 0.14235 0.08303 0.0
C18 C 0.49635 0.12405 0.37125 0.0
C19 C 0.46864 0.03774 0.17056 0.0
C20 C 0.39726 0.14349 0.23994 0.0
C21 C 0.35325 0.02207 0.10124 0.0
O22 O 0.37793 0.04981 0.38342 0.0
O23 O 0.34969 0.39701 0.71787 0.0
Zn24 Zn 0.34667 0.40566 0.61393 0.0
O25 O 0.34298 0.44687 0.59935 0.0
Zn26 Zn 0.38745 0.48786 0.58033 0.0
Zn27 Zn 0.3233 0.45514 0.68457 0.0
Zn28 Zn 0.31785 0.4365 0.5079 0.0
O29 O 0.38608 0.51623 0.49776 0.0
O30 O 0.34444 0.47401 0.42956 0.0
O31 O 0.39001 0.41315 0.56499 0.0
O32 O 0.41917 0.4716 0.54779 0.0
O33 O 0.40655 0.52149 0.6629 0.0
O34 O 0.35614 0.50674 0.71835 0.0
O35 O 0.27544 0.44884 0.64674 0.0
O36 O 0.30671 0.36209 0.57007 0.0
O37 O 0.27423 0.43588 0.52854 0.0
O38 O 0.30862 0.39005 0.46869 0.0
C39 C 0.33912 0.40451 0.7751 0.0
C40 C 0.37 0.5058 0.4372 0.0
C41 C 0.38934 0.52826 0.70852 0.0
C42 C 0.4164 0.44151 0.54073 0.0
C43 C 0.26066 0.44187 0.58314 0.0
C44 C 0.30331 0.36204 0.50143 0.0
O45 O 0.32515 0.4241 0.77205 0.0
O46 O 0.95739 0.34066 0.04307 0.0
Zn47 Zn 0.94563 0.33561 0.93902 0.0
O48 O 0.89597 0.31845 0.92339 0.0
Zn49 Zn 0.88634 0.3554 0.90134 0.0
Zn50 Zn 0.8702 0.29325 0.00981 0.0
Zn51 Zn 0.88649 0.29269 0.83386 0.0
O52 O 0.85669 0.34685 0.81233 0.0
O53 O 0.87042 0.31278 0.75085 0.0
O54 O 0.9735 0.38269 0.89228 0.0
O55 O 0.93231 0.39744 0.87497 0.0
O56 O 0.86129 0.36413 0.98148 0.0
O57 O 0.84118 0.31453 0.04605 0.0
O58 O 0.83395 0.24269 0.97226 0.0
O59 O 0.96277 0.30602 0.89485 0.0
O60 O 0.84778 0.24476 0.8546 0.0
O61 O 0.92987 0.29474 0.79642 0.0
C62 C 0.94006 0.32576 0.10036 0.0
C63 C 0.85692 0.33238 0.75326 0.0
C64 C 0.84199 0.34351 0.03225 0.0
C65 C 0.96404 0.40402 0.86946 0.0
C66 C 0.8281 0.22852 0.90875 0.0
C67 C 0.95841 0.3002 0.82699 0.0
O68 O 0.90636 0.30357 0.09734 0.0
O69 O 0.55209 0.94462 0.36746 0.0
Zn70 Zn 0.5152 0.92499 0.29128 0.0
O71 O 0.49868 0.87697 0.26995 0.0
Zn72 Zn 0.44731 0.8532 0.25209 0.0
Zn73 Zn 0.50965 0.85621 0.35192 0.0
Zn74 Zn 0.51808 0.87808 0.17808 0.0
O75 O 0.43023 0.82665 0.15823 0.0
O76 O 0.48046 0.86028 0.10003 0.0
O77 O 0.47162 0.92104 0.32751 0.0
O78 O 0.43732 0.89199 0.23627 0.0
O79 O 0.4206 0.82508 0.33736 0.0
O80 O 0.4623 0.82706 0.41126 0.0
O81 O 0.52948 0.82749 0.30201 0.0
O82 O 0.53247 0.95517 0.20055 0.0
O83 O 0.53805 0.84785 0.18704 0.0
O84 O 0.55299 0.92617 0.1409 0.0
C85 C 0.56118 0.93039 0.41703 0.0
C86 C 0.44704 0.83914 0.09907 0.0
C87 C 0.42974 0.81765 0.39789 0.0
C88 C 0.45333 0.92024 0.27303 0.0
C89 C 0.54022 0.82853 0.23652 0.0
C90 C 0.54907 0.95271 0.14707 0.0
O91 O 0.547 0.89657 0.42081 0.0
O92 O 0.6205 0.58221 0.68745 0.0
Zn93 Zn 0.61348 0.55198 0.60182 0.0
O94 O 0.64178 0.53187 0.61239 0.0
Zn95 Zn 0.61522 0.48109 0.61447 0.0
Zn96 Zn 0.6676 0.54482 0.70351 0.0
Zn97 Zn 0.67306 0.54684 0.53006 0.0
O98 O 0.64147 0.46214 0.56317 0.0
O99 O 0.6617 0.50224 0.47541 0.0
O100 O 0.56491 0.51281 0.5759 0.0
O101 O 0.57104 0.4659 0.55927 0.0
O102 O 0.60036 0.46124 0.71543 0.0
O103 O 0.63716 0.50778 0.78193 0.0
O104 O 0.71159 0.54195 0.67506 0.0
O105 O 0.62664 0.58455 0.51686 0.0
O106 O 0.7192 0.57489 0.57934 0.0
O107 O 0.6665 0.57797 0.45856 0.0
C108 C 0.64763 0.59979 0.72866 0.0
C109 C 0.64791 0.46997 0.49608 0.0
C110 C 0.61113 0.47583 0.77725 0.0
C111 C 0.55363 0.48156 0.55219 0.0
C112 C 0.72691 0.55474 0.61408 0.0
C113 C 0.64704 0.59147 0.46313 0.0
O114 O 0.67192 0.59178 0.73512 0.0
O115 O -0.02099 0.58749 1.00689 0.0
Zn116 Zn 0.00646 0.58987 0.92016 0.0
O117 O 0.05196 0.62962 0.92436 0.0
Zn118 Zn 0.08771 0.61689 0.92602 0.0
Zn119 Zn 0.05857 0.65511 0.01237 0.0
Zn120 Zn 0.06024 0.65717 0.83673 0.0
O121 O 0.13063 0.65237 0.87306 0.0
O122 O 0.0998 0.65637 0.78181 0.0
O123 O 0.01111 0.54841 0.89925 0.0
O124 O 0.06862 0.57153 0.87476 0.0
O125 O 0.09863 0.60788 0.02637 0.0
O126 O 0.07748 0.63485 0.09164 0.0
O127 O 0.09645 0.70536 0.97749 0.0
O128 O -0.02128 0.5914 0.83597 0.0
O129 O 0.07143 0.70404 0.87151 0.0
O130 O 0.01752 0.63711 0.77004 0.0
C131 C -0.01916 0.61211 0.04613 0.0
C132 C 0.12636 0.65447 0.80507 0.0
C133 C 0.09196 0.61599 0.0877 0.0
C134 C 0.03667 0.5461 0.87344 0.0
C135 C 0.09748 0.71957 0.91526 0.0
C136 C -0.01358 0.6106 0.77921 0.0
O137 O 0.00901 0.64305 0.0483 0.0
O138 O 0.88062 0.55913 0.31695 0.0
Zn139 Zn 0.89048 0.52733 0.37724 0.0
O140 O 0.8505 0.47893 0.38455 0.0
Zn141 Zn 0.86381 0.44465 0.36672 0.0
Zn142 Zn 0.81676 0.47722 0.31248 0.0
Zn143 Zn 0.83368 0.47014 0.48241 0.0
O144 O 0.85906 0.41336 0.454 0.0
O145 O 0.82688 0.4253 0.52659 0.0
O146 O 0.93154 0.52744 0.33216 0.0
O147 O 0.91339 0.47013 0.33218 0.0
O148 O 0.83409 0.41358 0.2881 0.0
O149 O 0.79757 0.43179 0.24992 0.0
O150 O 0.7811 0.48474 0.37177 0.0
O151 O 0.90704 0.54997 0.47368 0.0
O152 O 0.7895 0.4703 0.48437 0.0
O153 O 0.86762 0.50952 0.54872 0.0
C154 C 0.86956 0.54994 0.25239 0.0
C155 C 0.84112 0.40722 0.5119 0.0
C156 C 0.80921 0.41038 0.24673 0.0
C157 C 0.93712 0.50232 0.31953 0.0
C158 C 0.77329 0.47952 0.43977 0.0
C159 C 0.89524 0.53969 0.53746 0.0
O160 O 0.84545 0.51787 0.23983 0.0
O161 O 0.2777 0.90925 0.63957 0.0
Zn162 Zn 0.31529 0.91698 0.71074 0.0
O163 O 0.31779 0.87424 0.72572 0.0
Zn164 Zn 0.36482 0.88317 0.71628 0.0
Zn165 Zn 0.28648 0.84108 0.65172 0.0
Zn166 Zn 0.30531 0.85941 0.82315 0.0
O167 O 0.38686 0.87852 0.81064 0.0
O168 O 0.33719 0.84502 0.87161 0.0
O169 O 0.35858 0.95279 0.66081 0.0
O170 O 0.39262 0.92881 0.66316 0.0
O171 O 0.36466 0.84763 0.65268 0.0
O172 O 0.3104 0.81494 0.60614 0.0
O173 O 0.23821 0.80821 0.70518 0.0
O174 O 0.31017 0.93752 0.80281 0.0
O175 O 0.25704 0.8198 0.82086 0.0
O176 O 0.30544 0.89734 0.88339 0.0
C177 C 0.28331 0.90153 0.57682 0.0
C178 C 0.37034 0.85775 0.86376 0.0
C179 C 0.34269 0.82236 0.61263 0.0
C180 C 0.38639 0.95292 0.64255 0.0
C181 C 0.23271 0.80272 0.77409 0.0
C182 C 0.30677 0.92636 0.8681 0.0
O183 O 0.2867 0.87445 0.5704 0.0
O184 O 0.39941 0.38868 0.0914 0.0
Zn185 Zn 0.41938 0.38533 0.18771 0.0
O186 O 0.4569 0.37598 0.17806 0.0
Zn187 Zn 0.50171 0.41807 0.17748 0.0
Zn188 Zn 0.4481 0.34956 0.08896 0.0
Zn189 Zn 0.45476 0.35344 0.27007 0.0
O190 O 0.53671 0.41541 0.24316 0.0
O191 O 0.50252 0.37441 0.32342 0.0
O192 O 0.43739 0.43086 0.23967 0.0
O193 O 0.49483 0.45625 0.21523 0.0
O194 O 0.5227 0.42815 0.07788 0.0
O195 O 0.49377 0.37506 0.02547 0.0
O196 O 0.43208 0.29807 0.12345 0.0
O197 O 0.38021 0.34779 0.24558 0.0
O198 O 0.44022 0.30549 0.24387 0.0
O199 O 0.41451 0.34741 0.33432 0.0
C200 C 0.39585 0.37219 0.03264 0.0
C201 C 0.53325 0.39796 0.30122 0.0
C202 C 0.51904 0.40767 0.02569 0.0
C203 C 0.46881 0.45756 0.24188 0.0
C204 C 0.43109 0.28593 0.18812 0.0
C205 C 0.38404 0.34031 0.31074 0.0
O206 O 0.41015 0.3532 0.02595 0.0
O207 O 0.00726 0.40494 0.40817 0.0
Zn208 Zn 0.0237 0.43297 0.50057 0.0
O209 O 0.07214 0.47352 0.49236 0.0
Zn210 Zn 0.07454 0.51807 0.49455 0.0
Zn211 Zn 0.09368 0.47019 0.40372 0.0
Zn212 Zn 0.09557 0.47714 0.58488 0.0
O213 O 0.11499 0.55607 0.54907 0.0
O214 O 0.11098 0.52256 0.6428 0.0
O215 O -0.00927 0.45077 0.52385 0.0
O216 O 0.03107 0.50482 0.54928 0.0
O217 O 0.07749 0.53687 0.39501 0.0
O218 O 0.10447 0.51337 0.33635 0.0
O219 O 0.13756 0.4674 0.43937 0.0
O220 O 0.02197 0.39974 0.57677 0.0
O221 O 0.13812 0.47734 0.55869 0.0
O222 O 0.06902 0.43276 0.64685 0.0
C223 C 0.02337 0.40403 0.35204 0.0
C224 C 0.12147 0.55317 0.61532 0.0
C225 C 0.09308 0.53507 0.33892 0.0
C226 C 0.00342 0.48378 0.51377 0.0
C227 C 0.15156 0.47192 0.50334 0.0
C228 C 0.04127 0.40318 0.63195 0.0
O229 O 0.05683 0.42573 0.34476 0.0
O230 O 0.58515 0.02487 0.68098 0.0
Zn231 Zn 0.56581 0.04978 0.73645 0.0
O232 O 0.59657 0.10008 0.7376 0.0
Zn233 Zn 0.57182 0.12427 0.70773 0.0
Zn234 Zn 0.63435 0.11317 0.66674 0.0
Zn235 Zn 0.61104 0.11584 0.83513 0.0
O236 O 0.55388 0.13957 0.78979 0.0
O237 O 0.59263 0.14593 0.87533 0.0
O238 O 0.52384 0.04052 0.67713 0.0
O239 O 0.53099 0.09289 0.645 0.0
O240 O 0.60411 0.16568 0.64838 0.0
O241 O 0.62194 0.13713 0.58152 0.0
O242 O 0.68194 0.1407 0.72556 0.0
O243 O 0.55555 0.02824 0.83732 0.0
O244 O 0.66271 0.13995 0.83805 0.0
O245 O 0.59333 0.07479 0.90345 0.0
C246 C 0.60929 0.03511 0.6336 0.0
C247 C 0.56709 0.14963 0.85296 0.0
C248 C 0.60794 0.15644 0.58587 0.0
C249 C 0.51491 0.05945 0.63979 0.0
C250 C 0.68774 0.14764 0.79398 0.0
C251 C 0.57067 0.04191 0.89786 0.0
O252 O 0.63001 0.06819 0.62041 0.0
O253 O 0.60211 0.63639 0.98654 0.0
Zn254 Zn 0.5685 0.61234 0.06466 0.0
O255 O 0.53453 0.62912 0.07029 0.0
Zn256 Zn 0.48544 0.59171 0.0519 0.0
Zn257 Zn 0.547 0.66723 0.99778 0.0
Zn258 Zn 0.53577 0.64237 0.16997 0.0
O259 O 0.45346 0.57581 0.13848 0.0
O260 O 0.48938 0.61331 0.22188 0.0
O261 O 0.54235 0.5605 0.04099 0.0
O262 O 0.49169 0.55406 0.01041 0.0
O263 O 0.46178 0.60376 0.97618 0.0
O264 O 0.50619 0.65026 0.92122 0.0
O265 O 0.55543 0.7114 0.05552 0.0
O266 O 0.59732 0.62026 0.15547 0.0
O267 O 0.54705 0.69096 0.16973 0.0
O268 O 0.5729 0.64043 0.23041 0.0
C269 C 0.60855 0.66042 0.93998 0.0
C270 C 0.45907 0.58774 0.20283 0.0
C271 C 0.4736 0.62537 0.92326 0.0
C272 C 0.50921 0.54505 0.05133 0.0
C273 C 0.55429 0.71567 0.12432 0.0
C274 C 0.59559 0.63148 0.21768 0.0
O275 O 0.59024 0.67559 0.937 0.0
C276 C 0.41367 0.20273 0.28761 0.0
C277 C 0.39758 0.17714 0.23336 0.0
H278 H 0.43764 0.2571 0.31504 0.0
C279 C 0.38934 0.1869 0.16547 0.0
H280 H 0.42056 0.19625 0.34008 0.0
C281 C 0.39999 0.22217 0.15001 0.0
C282 C 0.41842 0.24817 0.20264 0.0
H283 H 0.37658 0.16764 0.12245 0.0
H284 H 0.39446 0.22912 0.09666 0.0
C285 C 0.42399 0.23783 0.27242 0.0
C286 C 0.21148 0.4339 0.50033 0.0
C287 C 0.23048 0.44678 0.56647 0.0
H288 H 0.17232 0.43261 0.4269 0.0
C289 C 0.22451 0.46935 0.60887 0.0
H290 H 0.21577 0.41663 0.46596 0.0
C291 C 0.20035 0.47911 0.58541 0.0
C292 C 0.1813 0.46624 0.51939 0.0
H293 H 0.2393 0.48042 0.65892 0.0
H294 H 0.19628 0.49656 0.61973 0.0
C295 C 0.18716 0.44358 0.47693 0.0
C296 C 0.78661 0.18434 0.81815 0.0
C297 C 0.79258 0.19836 0.88921 0.0
H298 H 0.74916 0.1586 0.73097 0.0
C299 C 0.76324 0.1913 0.93109 0.0
H300 H 0.80867 0.18902 0.78443 0.0
C301 C 0.7293 0.17419 0.90006 0.0
C302 C 0.72382 0.1636 0.82645 0.0
H303 H 0.76671 0.20171 0.98564 0.0
H304 H 0.70757 0.17083 0.93323 0.0
C305 C 0.75262 0.16748 0.78679 0.0
C306 C 0.56281 0.77634 0.10947 0.0
C307 C 0.5578 0.74831 0.15457 0.0
H308 H 0.56239 0.82442 0.10073 0.0
C309 C 0.55269 0.74998 0.22993 0.0
H310 H 0.5673 0.77614 0.05172 0.0
C311 C 0.54923 0.77731 0.25824 0.0
C312 C 0.55131 0.8038 0.21201 0.0
H313 H 0.54936 0.72911 0.26694 0.0
H314 H 0.54308 0.7766 0.31534 0.0
C315 C 0.5599 0.80397 0.13802 0.0
C316 C 0.73056 0.5004 0.59038 0.0
C317 C 0.73728 0.53399 0.56852 0.0
H318 H 0.73456 0.45537 0.56362 0.0
C319 C 0.7503 0.54623 0.49776 0.0
H320 H 0.71964 0.48968 0.64347 0.0
C321 C 0.7578 0.52613 0.45117 0.0
C322 C 0.75296 0.4935 0.47459 0.0
H323 H 0.75525 0.57178 0.47851 0.0
H324 H 0.76993 0.53741 0.39915 0.0
C325 C 0.73819 0.48035 0.54378 0.0
C326 C 0.19536 0.76503 0.87586 0.0
C327 C 0.19727 0.77875 0.80513 0.0
H328 H 0.16311 0.73714 0.9672 0.0
C329 C 0.16627 0.77433 0.77227 0.0
H330 H 0.2189 0.76811 0.90292 0.0
C331 C 0.1341 0.75686 0.81002 0.0
C332 C 0.13235 0.74343 0.88121 0.0
H333 H 0.16707 0.78528 0.71866 0.0
H334 H 0.11044 0.75346 0.78302 0.0
C335 C 0.16346 0.74782 0.91352 0.0
C336 C 0.56311 0.17169 0.97493 0.0
C337 C 0.54833 0.15921 0.90568 0.0
H338 H 0.55332 0.17748 0.08574 0.0
C339 C 0.51295 0.1499 0.89197 0.0
H340 H 0.59049 0.17975 0.98679 0.0
C341 C 0.49142 0.14822 0.94896 0.0
C342 C 0.50506 0.15615 0.0203 0.0
H343 H 0.50086 0.14066 0.83884 0.0
H344 H 0.46343 0.1377 0.93813 0.0
C345 C 0.54172 0.17046 0.03167 0.0
C346 C 0.43612 0.58441 0.3278 0.0
C347 C 0.4312 0.56962 0.25836 0.0
H348 H 0.41962 0.57617 0.4384 0.0
C349 C 0.40127 0.53589 0.2452 0.0
H350 H 0.45841 0.61064 0.33938 0.0
C351 C 0.37903 0.51581 0.30248 0.0
C352 C 0.38617 0.52941 0.37347 0.0
H353 H 0.39637 0.524 0.19185 0.0
H354 H 0.35791 0.48886 0.29203 0.0
C355 C 0.41374 0.56461 0.38459 0.0
C356 C 0.86357 0.34665 0.61952 0.0
C357 C 0.84648 0.3436 0.68569 0.0
H358 H 0.87548 0.3694 0.5121 0.0
C359 C 0.8237 0.35712 0.68989 0.0
H360 H 0.88147 0.33666 0.6148 0.0
C361 C 0.82019 0.37569 0.63138 0.0
C362 C 0.83966 0.38155 0.56729 0.0
H363 H 0.80996 0.35496 0.73996 0.0
H364 H 0.80361 0.38709 0.63808 0.0
C365 C 0.86029 0.3656 0.56083 0.0
C366 C 0.42667 0.86382 0.91471 0.0
C367 C 0.38971 0.84874 0.91851 0.0
H368 H 0.47382 0.87168 0.96786 0.0
C369 C 0.37136 0.82563 0.97676 0.0
H370 H 0.44159 0.8813 0.87009 0.0
C371 C 0.38978 0.81981 0.03264 0.0
C372 C 0.42702 0.83703 0.03169 0.0
H373 H 0.34279 0.81301 0.98084 0.0
H374 H 0.37493 0.80348 0.07862 0.0
C375 C 0.44512 0.85797 0.97059 0.0
C376 C 0.56271 0.39652 0.41862 0.0
C377 C 0.56543 0.40857 0.34651 0.0
H378 H 0.58785 0.40563 0.52298 0.0
C379 C 0.59904 0.43454 0.32052 0.0
H380 H 0.5374 0.37612 0.44004 0.0
C381 C 0.62808 0.45152 0.36802 0.0
C382 C 0.62409 0.44291 0.44249 0.0
H383 H 0.60239 0.4438 0.26463 0.0
H384 H 0.65262 0.47375 0.34778 0.0
C385 C 0.59189 0.41335 0.46609 0.0
C386 C 0.13791 0.64123 0.68061 0.0
C387 C 0.13937 0.63721 0.75615 0.0
H388 H 0.13211 0.61812 0.57633 0.0
C389 C 0.14348 0.60934 0.78341 0.0
H390 H 0.13495 0.66251 0.65806 0.0
C391 C 0.14062 0.58306 0.73683 0.0
C392 C 0.13467 0.58481 0.66208 0.0
H393 H 0.14482 0.60548 0.84146 0.0
H394 H 0.14033 0.56013 0.76009 0.0
C395 C 0.13597 0.61548 0.63393 0.0
C396 C 0.30343 0.93677 1.00008 0.0
C397 C 0.30873 0.94937 0.92801 0.0
H398 H 0.31224 0.95022 0.11265 0.0
C399 C 0.32047 0.98534 0.91494 0.0
H400 H 0.29357 0.90904 0.01197 0.0
C401 C 0.33115 0.00904 0.97288 0.0
C402 C 0.33021 -0.00297 0.04452 0.0
H403 H 0.32425 -0.00423 0.85993 0.0
H404 H 0.34327 0.03708 0.96087 0.0
C405 C 0.31395 0.96038 0.05784 0.0
C406 C 0.32373 0.3298 0.33631 0.0
C407 C 0.35457 0.33051 0.36157 0.0
H408 H 0.28158 0.33851 0.36341 0.0
C409 C 0.35947 0.32858 0.43675 0.0
H410 H 0.31847 0.33012 0.2786 0.0
C411 C 0.33732 0.33203 0.48546 0.0
C412 C 0.31082 0.33849 0.45917 0.0
H413 H 0.38245 0.3282 0.45793 0.0
H414 H 0.34444 0.33491 0.54274 0.0
C415 C 0.30214 0.33408 0.38488 0.0
C416 C 0.00448 0.33832 0.65597 0.0
C417 C 0.02941 0.37241 0.68111 0.0
H418 H 0.96301 0.28622 0.6851 0.0
C419 C 0.03906 0.377 0.75503 0.0
H420 H -0.00246 0.33366 0.5987 0.0
C421 C 0.01966 0.34943 0.80451 0.0
C422 C -0.00997 0.31745 0.78034 0.0
H423 H 0.05887 0.40278 0.77563 0.0
H424 H 0.02457 0.35522 0.86206 0.0
C425 C -0.01483 0.31085 0.70531 0.0
C426 C 0.56388 0.01127 0.09334 0.0
C427 C 0.55711 0.97669 0.08426 0.0
H428 H 0.57362 0.05927 0.0408 0.0
C429 C 0.55388 0.96345 0.01356 0.0
H430 H 0.56603 0.02186 0.14729 0.0
C431 C 0.55704 0.98429 0.95298 0.0
C432 C 0.56428 0.01902 0.96194 0.0
H433 H 0.54784 0.93656 1.00497 0.0
H434 H 0.55448 0.97344 0.89913 0.0
C435 C 0.56795 0.03248 0.03258 0.0
C436 C 0.65065 0.6045 0.32988 0.0
C437 C 0.64305 0.61044 0.40044 0.0
H438 H 0.64152 0.60668 0.2158 0.0
C439 C 0.62564 0.62946 0.40937 0.0
H440 H 0.66417 0.59002 0.32136 0.0
C441 C 0.61269 0.639 0.34907 0.0
C442 C 0.61677 0.62953 0.27876 0.0
H443 H 0.6199 0.63488 0.46319 0.0
H444 H 0.59741 0.65164 0.35812 0.0
C445 C 0.63751 0.6139 0.2694 0.0
C446 C 0.92589 0.56882 0.73013 0.0
C447 C 0.96029 0.59797 0.71893 0.0
H448 H 0.87823 0.52751 0.68146 0.0
C449 C 0.97091 0.61095 0.64793 0.0
H450 H 0.91671 0.55844 0.78436 0.0
C451 C 0.94879 0.59311 0.58881 0.0
C452 C 0.9157 0.56202 0.59978 0.0
H453 H -0.00283 0.63344 0.63754 0.0
H454 H 0.95852 0.60262 0.53444 0.0
C455 C 0.90383 0.55098 0.67112 0.0
C456 C 0.46492 0.9852 0.12483 0.0
C457 C 0.48532 0.017 0.16266 0.0
H458 H 0.43536 0.9288 0.134 0.0
C459 C 0.50377 0.01729 0.22559 0.0
H460 H 0.45158 0.98481 0.07439 0.0
C461 C 0.49268 -0.01437 0.26268 0.0
C462 C 0.46607 0.95346 0.2324 0.0
H463 H 0.52096 0.04191 0.25391 0.0
H464 H 0.50392 -0.01343 0.3161 0.0
C465 C 0.45432 0.95328 0.16067 0.0
C466 C 0.45731 0.41868 0.54701 0.0
C467 C 0.44718 0.4411 0.51366 0.0
H468 H 0.50147 0.41475 0.58521 0.0
C469 C 0.47151 0.46982 0.47084 0.0
H470 H 0.43862 0.39589 0.5789 0.0
C471 C 0.50723 0.48079 0.47539 0.0
C472 C 0.51816 0.46242 0.52119 0.0
H473 H 0.46376 0.48664 0.44245 0.0
H474 H 0.52646 0.50579 0.45042 0.0
C475 C 0.49317 0.42947 0.5508 0.0
C476 C -0.02011 0.4577 0.79844 0.0
C477 C -0.00923 0.43908 0.84383 0.0
H478 H -0.01245 0.50854 0.77189 0.0
C479 C 0.02421 0.45696 0.87813 0.0
H480 H 0.95462 0.44409 0.76971 0.0
C481 C 0.04318 0.49388 0.8788 0.0
C482 C 0.02841 0.51217 0.84504 0.0
H483 H 0.03328 0.44283 0.91232 0.0
H484 H 0.06643 0.50761 0.91367 0.0
C485 C -0.00132 0.49438 0.79938 0.0
C486 C 0.00871 0.53025 0.42766 0.0
C487 C 0.00103 0.49536 0.43963 0.0
H488 H -0.00136 0.56391 0.35993 0.0
C489 C -0.01131 0.47166 0.38088 0.0
H490 H 0.02041 0.54991 0.47027 0.0
C491 C -0.022 0.48079 0.31651 0.0
C492 C 0.97418 0.5106 0.3174 0.0
H493 H -0.01593 0.44517 0.38666 0.0
H494 H 0.96367 0.4602 0.27652 0.0
C495 C -0.00274 0.53859 0.36327 0.0
C496 C 0.44022 0.98045 0.56803 0.0
C497 C 0.41424 0.98374 0.60444 0.0
H498 H 0.49562 0.00533 0.54741 0.0
C499 C 0.42014 0.01752 0.62017 0.0
H500 H 0.43551 0.95467 0.55243 0.0
C501 C 0.45456 0.04657 0.61672 0.0
C502 C 0.48215 0.04103 0.59801 0.0
H503 H 0.39988 0.02068 0.6459 0.0
H504 H 0.46019 0.07128 0.64106 0.0
C505 C 0.47444 0.00943 0.56436 0.0
C506 C 0.46045 0.51526 0.14068 0.0
C507 C 0.49703 0.53515 0.12673 0.0
H508 H 0.42037 0.47782 0.21112 0.0
C509 C 0.52105 0.5406 0.18388 0.0
H510 H 0.44112 0.51154 0.09898 0.0
C511 C 0.50851 0.52103 0.24822 0.0
C512 C 0.47316 0.49285 0.24903 0.0
H513 H 0.54939 0.55641 0.17615 0.0
H514 H 0.52773 0.52112 0.28611 0.0
C515 C 0.44859 0.4966 0.20607 0.0
C516 C 0.31032 0.96595 0.53766 0.0
C517 C 0.29999 0.93056 0.5208 0.0
H518 H 0.34024 0.02108 0.50598 0.0
C519 C 0.31065 0.92428 0.45387 0.0
H520 H 0.30298 0.97205 0.58906 0.0
C521 C 0.33209 0.95235 0.40677 0.0
C522 C 0.34383 -0.01208 0.42469 0.0
H523 H 0.30349 0.89766 0.43875 0.0
H524 H 0.34006 0.94597 0.35648 0.0
C525 C 0.33201 -0.00574 0.4903 0.0
C526 C 0.37036 0.35812 0.90544 0.0
C527 C 0.37658 0.37716 0.97004 0.0
H528 H 0.35261 0.35098 0.79482 0.0
C529 C 0.36593 0.40253 0.97277 0.0
H530 H 0.37777 0.33819 0.90124 0.0
C531 C 0.35138 0.41005 0.91114 0.0
C532 C 0.34709 0.39232 0.84536 0.0
H533 H 0.37014 0.41769 0.02173 0.0
H534 H 0.34531 0.43098 0.91399 0.0
C535 C 0.35576 0.36549 0.84428 0.0
C536 C 0.94374 0.33933 0.23497 0.0
C537 C 0.96021 0.33872 0.17054 0.0
H538 H 0.95063 0.36035 0.34259 0.0
C539 C -0.0023 0.35657 0.16974 0.0
H540 H 0.91509 0.32631 0.2375 0.0
C541 C 0.01817 0.37646 0.22942 0.0
C542 C 0.00184 0.37903 0.2922 0.0
H543 H 0.01146 0.35662 0.12124 0.0
H544 H 0.04683 0.39091 0.22515 0.0
C545 C 0.9643 0.35922 0.29506 0.0
C546 C 0.62038 0.01647 0.51287 0.0
C547 C 0.60759 0.00754 0.58426 0.0
H548 H 0.61609 -0.00164 0.40348 0.0
C549 C 0.58647 0.97124 0.60281 0.0
H550 H 0.63668 0.04398 0.49645 0.0
C551 C 0.57487 0.94491 0.54939 0.0
C552 C 0.58395 0.9544 0.47626 0.0
H553 H 0.57636 0.96331 0.65751 0.0
H554 H 0.55583 0.91771 0.56413 0.0
C555 C 0.60853 -0.0098 0.45945 0.0
C556 C 0.65785 0.65439 0.89333 0.0
C557 C 0.63107 0.66244 0.87907 0.0
H558 H 0.68416 0.62773 0.85651 0.0
C559 C 0.61754 0.65848 0.80804 0.0
H560 H 0.66885 0.65735 0.94776 0.0
C561 C 0.62594 0.64103 0.7561 0.0
C562 C 0.64829 0.6277 0.77426 0.0
H563 H 0.59687 0.66434 0.79536 0.0
H564 H 0.61233 0.63512 0.70391 0.0
C565 C 0.66637 0.63704 0.8413 0.0
C566 C 0.91631 0.57335 0.07264 0.0
C567 C 0.9496 0.60271 0.09189 0.0
H568 H 0.86423 0.53418 0.10744 0.0
C569 C 0.95314 0.61926 0.15876 0.0
H570 H 0.91243 0.56045 0.02065 0.0
C571 C 0.92518 0.6042 0.20866 0.0
C572 C 0.89327 0.57231 0.19254 0.0
H573 H -0.02171 0.64207 0.17485 0.0
H574 H 0.92976 0.61596 0.2621 0.0
C575 C 0.88844 0.55839 0.12225 0.0
C576 C 0.52567 0.14896 0.4938 0.0
C577 C 0.52586 0.13511 0.42559 0.0
H578 H 0.55209 0.16809 0.59648 0.0
C579 C 0.55518 0.13157 0.40834 0.0
H580 H 0.50378 0.15228 0.50883 0.0
C581 C 0.58274 0.14024 0.45861 0.0
C582 C 0.58225 0.15328 0.52754 0.0
H583 H 0.55643 0.12098 0.35632 0.0
H584 H 0.60393 0.13571 0.44414 0.0
C585 C 0.55372 0.15838 0.5437 0.0
C586 C 0.44545 0.58492 0.74075 0.0
C587 C 0.40917 0.56063 0.75371 0.0
H588 H 0.49471 0.62664 0.7841 0.0
C589 C 0.39325 0.56607 0.81388 0.0
H590 H 0.45845 0.58212 0.69385 0.0
C591 C 0.41406 0.59218 0.86488 0.0
C592 C 0.45117 0.61318 0.85688 0.0
H593 H 0.36529 0.54842 0.82476 0.0
H594 H 0.40169 0.59325 0.91463 0.0
C595 C 0.46624 0.61109 0.79175 0.0
C596 C 0.80855 0.33772 0.14642 0.0
C597 C 0.82269 0.35506 0.07981 0.0
H598 H 0.79119 0.34152 0.25238 0.0
C599 C 0.82153 0.38584 0.06284 0.0
H600 H 0.8085 0.31372 0.16099 0.0
C601 C 0.8106 0.40124 0.1148 0.0
C602 C 0.80109 0.38636 0.1848 0.0
H603 H 0.83157 0.39954 0.01143 0.0
H604 H 0.81386 0.42699 0.10313 0.0
C605 C 0.798 0.35332 0.19848 0.0
C606 C 0.36754 0.79555 0.44024 0.0
C607 C 0.40291 0.80505 0.45711 0.0
H608 H 0.32004 0.79304 0.47686 0.0
C609 C 0.41366 0.81026 0.53039 0.0
H610 H 0.358 0.79068 0.38444 0.0
C611 C 0.3915 0.81105 0.58354 0.0
C612 C 0.35824 0.80689 0.56457 0.0
H613 H 0.4404 0.81727 0.54577 0.0
H614 H 0.40197 0.81845 0.63839 0.0
C615 C 0.34546 0.79659 0.49339 0.0
C616 C 0.56097 0.42161 0.83825 0.0
C617 C 0.59028 0.45656 0.84328 0.0
H618 H 0.51565 0.37865 0.89126 0.0
C619 C 0.59718 0.47394 0.91039 0.0
H620 H 0.55473 0.40728 0.7875 0.0
C621 C 0.57462 0.45754 0.96966 0.0
C622 C 0.5445 0.42316 0.9639 0.0
H623 H 0.61935 0.50078 0.91659 0.0
H624 H 0.58047 0.47231 0.01977 0.0
C625 C 0.53844 0.4051 0.89782 0.0
C626 C 0.0857 0.58331 0.28235 0.0
C627 C 0.09671 0.55839 0.27589 0.0
H628 H 0.07587 0.62116 0.22904 0.0
C629 C 0.10942 0.5553 0.20846 0.0
H630 H 0.07613 0.58689 0.33363 0.0
C631 C 0.1096 0.57542 0.14835 0.0
C632 C 0.09699 0.5991 0.1541 0.0
H633 H 0.11825 0.53659 0.20147 0.0
H634 H 0.11849 0.57142 0.09662 0.0
C635 C 0.08576 0.6033 0.22235 0.0
loop_
_geom_bond_atom_site_label_1
_geom_bond_atom_site_label_2
_geom_bond_distance
_geom_bond_site_symmetry_2
_ccdc_geom_bond_type
O0 Zn1 1.953 . S
O0 C16 1.225 . S
Zn1 O0 1.953 . S
Zn1 O2 1.949 . S
Zn1 O8 1.919 . S
Zn1 O13 1.924 . S
O2 Zn1 1.949 . S
O2 Zn3 1.923 . S
O2 Zn4 1.950 . S
O2 Zn5 1.945 . S
Zn3 O2 1.923 . S
Zn3 O6 1.933 . S
Zn3 O9 1.941 . S
Zn3 O10 1.965 . S
Zn4 O2 1.950 . S
Zn4 O11 1.938 . S
Zn4 O12 1.906 . S
Zn4 O22 1.953 . S
Zn5 O2 1.945 . S
Zn5 O7 1.932 . S
Zn5 O14 1.977 . S
Zn5 O15 1.910 . S
O6 Zn3 1.933 . S
O6 C17 1.226 . S
O7 Zn5 1.932 . S
O7 C17 1.307 . S
O8 Zn1 1.919 . S
O8 C19 1.253 . S
O9 Zn3 1.941 . S
O9 C19 1.283 . S
O10 Zn3 1.965 . S
O10 C18 1.303 . S
O11 Zn4 1.938 . S
O11 C18 1.247 . S
O12 Zn4 1.906 . S
O12 C20 1.304 . S
O13 Zn1 1.924 . S
O13 C21 1.311 . S
O14 Zn5 1.977 . S
O14 C20 1.272 . S
O15 Zn5 1.910 . S
O15 C21 1.231 . S
C16 O0 1.225 . S
C16 O22 1.298 . S
C17 O6 1.226 . S
C17 O7 1.307 . S
C18 O10 1.303 . S
C18 O11 1.247 . S
C19 O8 1.253 . S
C19 O9 1.283 . S
C20 O12 1.304 . S
C20 O14 1.272 . S
C21 O13 1.311 . S
C21 O15 1.231 . S
O22 Zn4 1.953 . S
O22 C16 1.298 . S
O23 Zn24 1.953 . S
O23 C39 1.225 . S
Zn24 O23 1.953 . S
Zn24 O25 1.949 . S
Zn24 O31 1.919 . S
Zn24 O36 1.924 . S
O25 Zn24 1.949 . S
O25 Zn26 1.923 . S
O25 Zn27 1.950 . S
O25 Zn28 1.945 . S
Zn26 O25 1.923 . S
Zn26 O29 1.933 . S
Zn26 O32 1.941 . S
Zn26 O33 1.965 . S
Zn27 O25 1.950 . S
Zn27 O34 1.938 . S
Zn27 O35 1.906 . S
Zn27 O45 1.953 . S
Zn28 O25 1.945 . S
Zn28 O30 1.932 . S
Zn28 O37 1.977 . S
Zn28 O38 1.910 . S
O29 Zn26 1.933 . S
O29 C40 1.226 . S
O30 Zn28 1.932 . S
O30 C40 1.307 . S
O31 Zn24 1.919 . S
O31 C42 1.253 . S
O32 Zn26 1.941 . S
O32 C42 1.283 . S
O33 Zn26 1.965 . S
O33 C41 1.303 . S
O34 Zn27 1.938 . S
O34 C41 1.247 . S
O35 Zn27 1.906 . S
O35 C43 1.304 . S
O36 Zn24 1.924 . S
O36 C44 1.311 . S
O37 Zn28 1.977 . S
O37 C43 1.272 . S
O38 Zn28 1.910 . S
O38 C44 1.231 . S
C39 O23 1.225 . S
C39 O45 1.298 . S
C40 O29 1.226 . S
C40 O30 1.307 . S
C41 O33 1.303 . S
C41 O34 1.247 . S
C42 O31 1.253 . S
C42 O32 1.283 . S
C43 O35 1.304 . S
C43 O37 1.272 . S
C44 O36 1.311 . S
C44 O38 1.231 . S
O45 Zn27 1.953 . S
O45 C39 1.298 . S
O46 Zn47 1.953 1_554 S
O46 C62 1.225 . S
Zn47 O46 1.953 1_556 S
Zn47 O48 1.949 . S
Zn47 O54 1.919 . S
Zn47 O59 1.924 . S
O48 Zn47 1.949 . S
O48 Zn49 1.923 . S
O48 Zn50 1.950 . S
O48 Zn51 1.945 . S
Zn49 O48 1.923 . S
Zn49 O52 1.933 . S
Zn49 O55 1.941 . S
Zn49 O56 1.965 1_556 S
Zn50 O48 1.950 . S
Zn50 O57 1.938 1_556 S
Zn50 O58 1.906 . S
Zn50 O68 1.953 1_556 S
Zn51 O48 1.945 . S
Zn51 O53 1.932 . S
Zn51 O60 1.977 . S
Zn51 O61 1.910 . S
O52 Zn49 1.933 . S
O52 C63 1.226 . S
O53 Zn51 1.932 . S
O53 C63 1.307 . S
O54 Zn47 1.919 . S
O54 C65 1.253 . S
O55 Zn49 1.941 . S
O55 C65 1.283 . S
O56 Zn49 1.965 1_554 S
O56 C64 1.303 . S
O57 Zn50 1.938 1_554 S
O57 C64 1.247 . S
O58 Zn50 1.906 . S
O58 C66 1.304 . S
O59 Zn47 1.924 . S
O59 C67 1.311 . S
O60 Zn51 1.977 . S
O60 C66 1.272 . S
O61 Zn51 1.910 . S
O61 C67 1.231 . S
C62 O46 1.225 . S
C62 O68 1.298 . S
C63 O52 1.226 . S
C63 O53 1.307 . S
C64 O56 1.303 . S
C64 O57 1.247 . S
C65 O54 1.253 . S
C65 O55 1.283 . S
C66 O58 1.304 . S
C66 O60 1.272 . S
C67 O59 1.311 . S
C67 O61 1.231 . S
O68 Zn50 1.953 1_554 S
O68 C62 1.298 . S
O69 Zn70 1.953 . S
O69 C85 1.225 . S
Zn70 O69 1.953 . S
Zn70 O71 1.949 . S
Zn70 O77 1.919 . S
Zn70 O82 1.924 . S
O71 Zn70 1.949 . S
O71 Zn72 1.923 . S
O71 Zn73 1.950 . S
O71 Zn74 1.945 . S
Zn72 O71 1.923 . S
Zn72 O75 1.933 . S
Zn72 O78 1.941 . S
Zn72 O79 1.965 . S
Zn73 O71 1.950 . S
Zn73 O80 1.938 . S
Zn73 O81 1.906 . S
Zn73 O91 1.953 . S
Zn74 O71 1.945 . S
Zn74 O76 1.932 . S
Zn74 O83 1.977 . S
Zn74 O84 1.910 . S
O75 Zn72 1.933 . S
O75 C86 1.226 . S
O76 Zn74 1.932 . S
O76 C86 1.307 . S
O77 Zn70 1.919 . S
O77 C88 1.253 . S
O78 Zn72 1.941 . S
O78 C88 1.283 . S
O79 Zn72 1.965 . S
O79 C87 1.303 . S
O80 Zn73 1.938 . S
O80 C87 1.247 . S
O81 Zn73 1.906 . S
O81 C89 1.304 . S
O82 Zn70 1.924 . S
O82 C90 1.311 . S
O83 Zn74 1.977 . S
O83 C89 1.272 . S
O84 Zn74 1.910 . S
O84 C90 1.231 . S
C85 O69 1.225 . S
C85 O91 1.298 . S
C86 O75 1.226 . S
C86 O76 1.307 . S
C87 O79 1.303 . S
C87 O80 1.247 . S
C88 O77 1.253 . S
C88 O78 1.283 . S
C89 O81 1.304 . S
C89 O83 1.272 . S
C90 O82 1.311 . S
C90 O84 1.231 . S
O91 Zn73 1.953 . S
O91 C85 1.298 . S
O92 Zn93 1.953 . S
O92 C108 1.225 . S
Zn93 O92 1.953 . S
Zn93 O94 1.949 . S
Zn93 O100 1.919 . S
Zn93 O105 1.924 . S
O94 Zn93 1.949 . S
O94 Zn95 1.923 . S
O94 Zn96 1.950 . S
O94 Zn97 1.945 . S
Zn95 O94 1.923 . S
Zn95 O98 1.933 . S
Zn95 O101 1.941 . S
Zn95 O102 1.965 . S
Zn96 O94 1.950 . S
Zn96 O103 1.938 . S
Zn96 O104 1.906 . S
Zn96 O114 1.953 . S
Zn97 O94 1.945 . S
Zn97 O99 1.932 . S
Zn97 O106 1.977 . S
Zn97 O107 1.910 . S
O98 Zn95 1.933 . S
O98 C109 1.226 . S
O99 Zn97 1.932 . S
O99 C109 1.307 . S
O100 Zn93 1.919 . S
O100 C111 1.253 . S
O101 Zn95 1.941 . S
O101 C111 1.283 . S
O102 Zn95 1.965 . S
O102 C110 1.303 . S
O103 Zn96 1.938 . S
O103 C110 1.247 . S
O104 Zn96 1.906 . S
O104 C112 1.304 . S
O105 Zn93 1.924 . S
O105 C113 1.311 . S
O106 Zn97 1.977 . S
O106 C112 1.272 . S
O107 Zn97 1.910 . S
O107 C113 1.231 . S
C108 O92 1.225 . S
C108 O114 1.298 . S
C109 O98 1.226 . S
C109 O99 1.307 . S
C110 O102 1.303 . S
C110 O103 1.247 . S
C111 O100 1.253 . S
C111 O101 1.283 . S
C112 O104 1.304 . S
C112 O106 1.272 . S
C113 O105 1.311 . S
C113 O107 1.231 . S
O114 Zn96 1.953 . S
O114 C108 1.298 . S
O115 Zn116 1.953 1_554 S
O115 C131 1.225 . S
Zn116 O115 1.953 1_556 S
Zn116 O117 1.949 . S
Zn116 O123 1.919 . S
Zn116 O128 1.924 . S
O117 Zn116 1.949 . S
O117 Zn118 1.923 . S
O117 Zn119 1.950 . S
O117 Zn120 1.945 . S
Zn118 O117 1.923 . S
Zn118 O121 1.933 . S
Zn118 O124 1.941 . S
Zn118 O125 1.965 1_556 S
Zn119 O117 1.950 . S
Zn119 O126 1.938 1_556 S
Zn119 O127 1.906 . S
Zn119 O137 1.953 1_556 S
Zn120 O117 1.945 . S
Zn120 O122 1.932 . S
Zn120 O129 1.977 . S
Zn120 O130 1.910 . S
O121 Zn118 1.933 . S
O121 C132 1.226 . S
O122 Zn120 1.932 . S
O122 C132 1.307 . S
O123 Zn116 1.919 . S
O123 C134 1.253 . S
O124 Zn118 1.941 . S
O124 C134 1.283 . S
O125 Zn118 1.965 1_554 S
O125 C133 1.303 . S
O126 Zn119 1.938 1_554 S
O126 C133 1.247 . S
O127 Zn119 1.906 . S
O127 C135 1.304 . S
O128 Zn116 1.924 . S
O128 C136 1.311 . S
O129 Zn120 1.977 . S
O129 C135 1.272 . S
O130 Zn120 1.910 . S
O130 C136 1.231 . S
C131 O115 1.225 . S
C131 O137 1.298 . S
C132 O121 1.226 . S
C132 O122 1.307 . S
C133 O125 1.303 . S
C133 O126 1.247 . S
C134 O123 1.253 . S
C134 O124 1.283 . S
C135 O127 1.304 . S
C135 O129 1.272 . S
C136 O128 1.311 . S
C136 O130 1.231 . S
O137 Zn119 1.953 1_554 S
O137 C131 1.298 . S
O138 Zn139 1.953 . S
O138 C154 1.225 . S
Zn139 O138 1.953 . S
Zn139 O140 1.949 . S
Zn139 O146 1.919 . S
Zn139 O151 1.924 . S
O140 Zn139 1.949 . S
O140 Zn141 1.923 . S
O140 Zn142 1.950 . S
O140 Zn143 1.945 . S
Zn141 O140 1.923 . S
Zn141 O144 1.933 . S
Zn141 O147 1.941 . S
Zn141 O148 1.965 . S
Zn142 O140 1.950 . S
Zn142 O149 1.938 . S
Zn142 O150 1.906 . S
Zn142 O160 1.953 . S
Zn143 O140 1.945 . S
Zn143 O145 1.932 . S
Zn143 O152 1.977 . S
Zn143 O153 1.910 . S
O144 Zn141 1.933 . S
O144 C155 1.226 . S
O145 Zn143 1.932 . S
O145 C155 1.307 . S
O146 Zn139 1.919 . S
O146 C157 1.253 . S
O147 Zn141 1.941 . S
O147 C157 1.283 . S
O148 Zn141 1.965 . S
O148 C156 1.303 . S
O149 Zn142 1.938 . S
O149 C156 1.247 . S
O150 Zn142 1.906 . S
O150 C158 1.304 . S
O151 Zn139 1.924 . S
O151 C159 1.311 . S
O152 Zn143 1.977 . S
O152 C158 1.272 . S
O153 Zn143 1.910 . S
O153 C159 1.231 . S
C154 O138 1.225 . S
C154 O160 1.298 . S
C155 O144 1.226 . S
C155 O145 1.307 . S
C156 O148 1.303 . S
C156 O149 1.247 . S
C157 O146 1.253 . S
C157 O147 1.283 . S
C158 O150 1.304 . S
C158 O152 1.272 . S
C159 O151 1.311 . S
C159 O153 1.231 . S
O160 Zn142 1.953 . S
O160 C154 1.298 . S
O161 Zn162 1.953 . S
O161 C177 1.225 . S
Zn162 O161 1.953 . S
Zn162 O163 1.949 . S
Zn162 O169 1.919 . S
Zn162 O174 1.924 . S
O163 Zn162 1.949 . S
O163 Zn164 1.923 . S
O163 Zn165 1.950 . S
O163 Zn166 1.945 . S
Zn164 O163 1.923 . S
Zn164 O167 1.933 . S
Zn164 O170 1.941 . S
Zn164 O171 1.965 . S
Zn165 O163 1.950 . S
Zn165 O172 1.938 . S
Zn165 O173 1.906 . S
Zn165 O183 1.953 . S
Zn166 O163 1.945 . S
Zn166 O168 1.932 . S
Zn166 O175 1.977 . S
Zn166 O176 1.910 . S
O167 Zn164 1.933 . S
O167 C178 1.226 . S
O168 Zn166 1.932 . S
O168 C178 1.307 . S
O169 Zn162 1.919 . S
O169 C180 1.253 . S
O170 Zn164 1.941 . S
O170 C180 1.283 . S
O171 Zn164 1.965 . S
O171 C179 1.303 . S
O172 Zn165 1.938 . S
O172 C179 1.247 . S
O173 Zn165 1.906 . S
O173 C181 1.304 . S
O174 Zn162 1.924 . S
O174 C182 1.311 . S
O175 Zn166 1.977 . S
O175 C181 1.272 . S
O176 Zn166 1.910 . S
O176 C182 1.231 . S
C177 O161 1.225 . S
C177 O183 1.298 . S
C178 O167 1.226 . S
C178 O168 1.307 . S
C179 O171 1.303 . S
C179 O172 1.247 . S
C180 O169 1.253 . S
C180 O170 1.283 . S
C181 O173 1.304 . S
C181 O175 1.272 . S
C182 O174 1.311 . S
C182 O176 1.231 . S
O183 Zn165 1.953 . S
O183 C177 1.298 . S
O184 Zn185 1.953 1_556 S
O184 C200 1.225 . S
Zn185 O184 1.953 1_554 S
Zn185 O186 1.949 . S
Zn185 O192 1.919 . S
Zn185 O197 1.924 . S
O186 Zn185 1.949 . S
O186 Zn187 1.923 . S
O186 Zn188 1.950 . S
O186 Zn189 1.945 . S
Zn187 O186 1.923 . S
Zn187 O190 1.933 . S
Zn187 O193 1.941 . S
Zn187 O194 1.965 1_554 S
Zn188 O186 1.950 . S
Zn188 O195 1.938 1_554 S
Zn188 O196 1.906 . S
Zn188 O206 1.953 1_554 S
Zn189 O186 1.945 . S
Zn189 O191 1.932 . S
Zn189 O198 1.977 . S
Zn189 O199 1.910 . S
O190 Zn187 1.933 . S
O190 C201 1.226 . S
O191 Zn189 1.932 . S
O191 C201 1.307 . S
O192 Zn185 1.919 . S
O192 C203 1.253 . S
O193 Zn187 1.941 . S
O193 C203 1.283 . S
O194 Zn187 1.965 1_556 S
O194 C202 1.303 . S
O195 Zn188 1.938 1_556 S
O195 C202 1.247 . S
O196 Zn188 1.906 . S
O196 C204 1.304 . S
O197 Zn185 1.924 . S
O197 C205 1.311 . S
O198 Zn189 1.977 . S
O198 C204 1.272 . S
O199 Zn189 1.910 . S
O199 C205 1.231 . S
C200 O184 1.225 . S
C200 O206 1.298 . S
C201 O190 1.226 . S
C201 O191 1.307 . S
C202 O194 1.303 . S
C202 O195 1.247 . S
C203 O192 1.253 . S
C203 O193 1.283 . S
C204 O196 1.304 . S
C204 O198 1.272 . S
C205 O197 1.311 . S
C205 O199 1.231 . S
O206 Zn188 1.953 1_556 S
O206 C200 1.298 . S
O207 Zn208 1.953 . S
O207 C223 1.225 . S
Zn208 O207 1.953 . S
Zn208 O209 1.949 . S
Zn208 O215 1.919 . S
Zn208 O220 1.924 . S
O209 Zn208 1.949 . S
O209 Zn210 1.923 . S
O209 Zn211 1.950 . S
O209 Zn212 1.945 . S
Zn210 O209 1.923 . S
Zn210 O213 1.933 . S
Zn210 O216 1.941 . S
Zn210 O217 1.965 . S
Zn211 O209 1.950 . S
Zn211 O218 1.938 . S
Zn211 O219 1.906 . S
Zn211 O229 1.953 . S
Zn212 O209 1.945 . S
Zn212 O214 1.932 . S
Zn212 O221 1.977 . S
Zn212 O222 1.910 . S
O213 Zn210 1.933 . S
O213 C224 1.226 . S
O214 Zn212 1.932 . S
O214 C224 1.307 . S
O215 Zn208 1.919 . S
O215 C226 1.253 . S
O216 Zn210 1.941 . S
O216 C226 1.283 . S
O217 Zn210 1.965 . S
O217 C225 1.303 . S
O218 Zn211 1.938 . S
O218 C225 1.247 . S
O219 Zn211 1.906 . S
O219 C227 1.304 . S
O220 Zn208 1.924 . S
O220 C228 1.311 . S
O221 Zn212 1.977 . S
O221 C227 1.272 . S
O222 Zn212 1.910 . S
O222 C228 1.231 . S
C223 O207 1.225 . S
C223 O229 1.298 . S
C224 O213 1.226 . S
C224 O214 1.307 . S
C225 O217 1.303 . S
C225 O218 1.247 . S
C226 O215 1.253 . S
C226 O216 1.283 . S
C227 O219 1.304 . S
C227 O221 1.272 . S
C228 O220 1.311 . S
C228 O222 1.231 . S
O229 Zn211 1.953 . S
O229 C223 1.298 . S
O230 Zn231 1.953 . S
O230 C246 1.225 . S
Zn231 O230 1.953 . S
Zn231 O232 1.949 . S
Zn231 O238 1.919 . S
Zn231 O243 1.924 . S
O232 Zn231 1.949 . S
O232 Zn233 1.923 . S
O232 Zn234 1.950 . S
O232 Zn235 1.945 . S
Zn233 O232 1.923 . S
Zn233 O236 1.933 . S
Zn233 O239 1.941 . S
Zn233 O240 1.965 . S
Zn234 O232 1.950 . S
Zn234 O241 1.938 . S
Zn234 O242 1.906 . S
Zn234 O252 1.953 . S
Zn235 O232 1.945 . S
Zn235 O237 1.932 . S
Zn235 O244 1.977 . S
Zn235 O245 1.910 . S
O236 Zn233 1.933 . S
O236 C247 1.226 . S
O237 Zn235 1.932 . S
O237 C247 1.307 . S
O238 Zn231 1.919 . S
O238 C249 1.253 . S
O239 Zn233 1.941 . S
O239 C249 1.283 . S
O240 Zn233 1.965 . S
O240 C248 1.303 . S
O241 Zn234 1.938 . S
O241 C248 1.247 . S
O242 Zn234 1.906 . S
O242 C250 1.304 . S
O243 Zn231 1.924 . S
O243 C251 1.311 . S
O244 Zn235 1.977 . S
O244 C250 1.272 . S
O245 Zn235 1.910 . S
O245 C251 1.231 . S
C246 O230 1.225 . S
C246 O252 1.298 . S
C247 O236 1.226 . S
C247 O237 1.307 . S
C248 O240 1.303 . S
C248 O241 1.247 . S
C249 O238 1.253 . S
C249 O239 1.283 . S
C250 O242 1.304 . S
C250 O244 1.272 . S
C251 O243 1.311 . S
C251 O245 1.231 . S
O252 Zn234 1.953 . S
O252 C246 1.298 . S
O253 Zn254 1.953 1_556 S
O253 C269 1.225 . S
Zn254 O253 1.953 1_554 S
Zn254 O255 1.949 . S
Zn254 O261 1.919 . S
Zn254 O266 1.924 . S
O255 Zn254 1.949 . S
O255 Zn256 1.923 . S
O255 Zn257 1.950 . S
O255 Zn258 1.945 . S
Zn256 O255 1.923 . S
Zn256 O259 1.933 . S
Zn256 O262 1.941 . S
Zn256 O263 1.965 1_554 S
Zn257 O255 1.950 . S
Zn257 O264 1.938 1_554 S
Zn257 O265 1.906 . S
Zn257 O275 1.953 1_554 S
Zn258 O255 1.945 . S
Zn258 O260 1.932 . S
Zn258 O267 1.977 . S
Zn258 O268 1.910 . S
O259 Zn256 1.933 . S
O259 C270 1.226 . S
O260 Zn258 1.932 . S
O260 C270 1.307 . S
O261 Zn254 1.919 . S
O261 C272 1.253 . S
O262 Zn256 1.941 . S
O262 C272 1.283 . S
O263 Zn256 1.965 1_556 S
O263 C271 1.303 . S
O264 Zn257 1.938 1_556 S
O264 C271 1.247 . S
O265 Zn257 1.906 . S
O265 C273 1.304 . S
O266 Zn254 1.924 . S
O266 C274 1.311 . S
O267 Zn258 1.977 . S
O267 C273 1.272 . S
O268 Zn258 1.910 . S
O268 C274 1.231 . S
C269 O253 1.225 . S
C269 O275 1.298 . S
C270 O259 1.226 . S
C270 O260 1.307 . S
C271 O263 1.303 . S
C271 O264 1.247 . S
C272 O261 1.253 . S
C272 O262 1.283 . S
C273 O265 1.304 . S
C273 O267 1.272 . S
C274 O266 1.311 . S
C274 O268 1.231 . S
O275 Zn257 1.953 1_556 S
O275 C269 1.298 . S
C276 C277 1.387 . S
C276 H280 0.950 . S
C276 C285 1.390 . S
C277 C276 1.387 . S
C277 C279 1.387 . S
H278 C285 0.950 . S
C279 C277 1.387 . S
C279 C281 1.390 . S
C279 H283 0.950 . S
H280 C276 0.950 . S
C281 C279 1.390 . S
C281 C282 1.387 . S
C281 H284 0.950 . S
C282 C281 1.387 . S
C282 C285 1.387 . S
H283 C279 0.950 . S
H284 C281 0.950 . S
C285 C276 1.390 . S
C285 H278 0.950 . S
C285 C282 1.387 . S
C286 C287 1.387 . S
C286 H290 0.950 . S
C286 C295 1.390 . S
C287 C286 1.387 . S
C287 C289 1.387 . S
H288 C295 0.950 . S
C289 C287 1.387 . S
C289 C291 1.390 . S
C289 H293 0.950 . S
H290 C286 0.950 . S
C291 C289 1.390 . S
C291 C292 1.387 . S
C291 H294 0.950 . S
C292 C291 1.387 . S
C292 C295 1.387 . S
H293 C289 0.950 . S
H294 C291 0.950 . S
C295 C286 1.390 . S
C295 H288 0.950 . S
C295 C292 1.387 . S
C296 C297 1.387 . S
C296 H300 0.950 . S
C296 C305 1.390 . S
C297 C296 1.387 . S
C297 C299 1.387 . S
H298 C305 0.950 . S
C299 C297 1.387 . S
C299 C301 1.390 . S
C299 H303 0.950 . S
H300 C296 0.950 . S
C301 C299 1.390 . S
C301 C302 1.387 . S
C301 H304 0.950 . S
C302 C301 1.387 . S
C302 C305 1.387 . S
H303 C299 0.950 . S
H304 C301 0.950 . S
C305 C296 1.390 . S
C305 H298 0.950 . S
C305 C302 1.387 . S
C306 C307 1.387 . S
C306 H310 0.950 . S
C306 C315 1.390 . S
C307 C306 1.387 . S
C307 C309 1.387 . S
H308 C315 0.950 . S
C309 C307 1.387 . S
C309 C311 1.390 . S
C309 H313 0.950 . S
H310 C306 0.950 . S
C311 C309 1.390 . S
C311 C312 1.387 . S
C311 H314 0.950 . S
C312 C311 1.387 . S
C312 C315 1.387 . S
H313 C309 0.950 . S
H314 C311 0.950 . S
C315 C306 1.390 . S
C315 H308 0.950 . S
C315 C312 1.387 . S
C316 C317 1.387 . S
C316 H320 0.950 . S
C316 C325 1.390 . S
C317 C316 1.387 . S
C317 C319 1.387 . S
H318 C325 0.950 . S
C319 C317 1.387 . S
C319 C321 1.390 . S
C319 H323 0.950 . S
H320 C316 0.950 . S
C321 C319 1.390 . S
C321 C322 1.387 . S
C321 H324 0.950 . S
C322 C321 1.387 . S
C322 C325 1.387 . S
H323 C319 0.950 . S
H324 C321 0.950 . S
C325 C316 1.390 . S
C325 H318 0.950 . S
C325 C322 1.387 . S
C326 C327 1.387 . S
C326 H330 0.950 . S
C326 C335 1.390 . S
C327 C326 1.387 . S
C327 C329 1.387 . S
H328 C335 0.950 . S
C329 C327 1.387 . S
C329 C331 1.390 . S
C329 H333 0.950 . S
H330 C326 0.950 . S
C331 C329 1.390 . S
C331 C332 1.387 . S
C331 H334 0.950 . S
C332 C331 1.387 . S
C332 C335 1.387 . S
H333 C329 0.950 . S
H334 C331 0.950 . S
C335 C326 1.390 . S
C335 H328 0.950 . S
C335 C332 1.387 . S
C336 C337 1.387 . S
C336 H340 0.950 . S
C336 C345 1.390 1_556 S
C337 C336 1.387 . S
C337 C339 1.387 . S
H338 C345 0.950 . S
C339 C337 1.387 . S
C339 C341 1.390 1_556 S
C339 H343 0.950 . S
H340 C336 0.950 . S
C341 C339 1.390 1_554 S
C341 C342 1.387 . S
C341 H344 0.950 . S
C342 C341 1.387 . S
C342 C345 1.387 . S
H343 C339 0.950 . S
H344 C341 0.950 . S
C345 C336 1.390 1_554 S
C345 H338 0.950 . S
C345 C342 1.387 . S
C346 C347 1.387 . S
C346 H350 0.950 . S
C346 C355 1.390 . S
C347 C346 1.387 . S
C347 C349 1.387 . S
H348 C355 0.950 . S
C349 C347 1.387 . S
C349 C351 1.390 . S
C349 H353 0.950 . S
H350 C346 0.950 . S
C351 C349 1.390 . S
C351 C352 1.387 . S
C351 H354 0.950 . S
C352 C351 1.387 . S
C352 C355 1.387 . S
H353 C349 0.950 . S
H354 C351 0.950 . S
C355 C346 1.390 . S
C355 H348 0.950 . S
C355 C352 1.387 . S
C356 C357 1.387 . S
C356 H360 0.950 . S
C356 C365 1.390 . S
C357 C356 1.387 . S
C357 C359 1.387 . S
H358 C365 0.950 . S
C359 C357 1.387 . S
C359 C361 1.390 . S
C359 H363 0.950 . S
H360 C356 0.950 . S
C361 C359 1.390 . S
C361 C362 1.387 . S
C361 H364 0.950 . S
C362 C361 1.387 . S
C362 C365 1.387 . S
H363 C359 0.950 . S
H364 C361 0.950 . S
C365 C356 1.390 . S
C365 H358 0.950 . S
C365 C362 1.387 . S
C366 C367 1.387 . S
C366 H370 0.950 . S
C366 C375 1.390 1_556 S
C367 C366 1.387 . S
C367 C369 1.387 . S
H368 C375 0.950 . S
C369 C367 1.387 . S
C369 C371 1.390 1_556 S
C369 H373 0.950 . S
H370 C366 0.950 . S
C371 C369 1.390 1_554 S
C371 C372 1.387 . S
C371 H374 0.950 . S
C372 C371 1.387 . S
C372 C375 1.387 . S
H373 C369 0.950 . S
H374 C371 0.950 . S
C375 C366 1.390 1_554 S
C375 H368 0.950 . S
C375 C372 1.387 . S
C376 C377 1.387 . S
C376 H380 0.950 . S
C376 C385 1.390 . S
C377 C376 1.387 . S
C377 C379 1.387 . S
H378 C385 0.950 . S
C379 C377 1.387 . S
C379 C381 1.390 . S
C379 H383 0.950 . S
H380 C376 0.950 . S
C381 C379 1.390 . S
C381 C382 1.387 . S
C381 H384 0.950 . S
C382 C381 1.387 . S
C382 C385 1.387 . S
H383 C379 0.950 . S
H384 C381 0.950 . S
C385 C376 1.390 . S
C385 H378 0.950 . S
C385 C382 1.387 . S
C386 C387 1.387 . S
C386 H390 0.950 . S
C386 C395 1.390 . S
C387 C386 1.387 . S
C387 C389 1.387 . S
H388 C395 0.950 . S
C389 C387 1.387 . S
C389 C391 1.390 . S
C389 H393 0.950 . S
H390 C386 0.950 . S
C391 C389 1.390 . S
C391 C392 1.387 . S
C391 H394 0.950 . S
C392 C391 1.387 . S
C392 C395 1.387 . S
H393 C389 0.950 . S
H394 C391 0.950 . S
C395 C386 1.390 . S
C395 H388 0.950 . S
C395 C392 1.387 . S
C396 C397 1.387 . S
C396 H400 0.950 . S
C396 C405 1.390 1_566 S
C397 C396 1.387 . S
C397 C399 1.387 . S
H398 C405 0.950 . S
C399 C397 1.387 . S
C399 C401 1.390 1_566 S
C399 H403 0.950 . S
H400 C396 0.950 . S
C401 C399 1.390 1_544 S
C401 C402 1.387 . S
C401 H404 0.950 . S
C402 C401 1.387 . S
C402 C405 1.387 . S
H403 C399 0.950 . S
H404 C401 0.950 . S
C405 C396 1.390 1_544 S
C405 H398 0.950 . S
C405 C402 1.387 . S
C406 C407 1.387 . S
C406 H410 0.950 . S
C406 C415 1.390 . S
C407 C406 1.387 . S
C407 C409 1.387 . S
H408 C415 0.950 . S
C409 C407 1.387 . S
C409 C411 1.390 . S
C409 H413 0.950 . S
H410 C406 0.950 . S
C411 C409 1.390 . S
C411 C412 1.387 . S
C411 H414 0.950 . S
C412 C411 1.387 . S
C412 C415 1.387 . S
H413 C409 0.950 . S
H414 C411 0.950 . S
C415 C406 1.390 . S
C415 H408 0.950 . S
C415 C412 1.387 . S
C416 C417 1.387 . S
C416 H420 0.947 1_455 S
C416 C425 1.392 1_455 S
C417 C416 1.387 . S
C417 C419 1.387 . S
H418 C425 0.950 . S
C419 C417 1.387 . S
C419 C421 1.391 1_455 S
C419 H423 0.950 . S
H420 C416 0.947 1_655 S
C421 C419 1.391 1_655 S
C421 C422 1.387 . S
C421 H424 0.951 . S
C422 C421 1.387 . S
C422 C425 1.387 . S
H423 C419 0.950 . S
H424 C421 0.951 . S
C425 C416 1.392 1_655 S
C425 H418 0.950 . S
C425 C422 1.387 . S
C426 C427 1.387 . S
C426 H430 0.950 . S
C426 C435 1.390 1_564 S
C427 C426 1.387 . S
C427 C429 1.387 . S
H428 C435 0.950 . S
C429 C427 1.387 . S
C429 C431 1.390 1_564 S
C429 H433 0.950 . S
H430 C426 0.950 . S
C431 C429 1.390 1_546 S
C431 C432 1.387 . S
C431 H434 0.950 . S
C432 C431 1.387 . S
C432 C435 1.387 . S
H433 C429 0.950 . S
H434 C431 0.950 . S
C435 C426 1.390 1_546 S
C435 H428 0.950 . S
C435 C432 1.387 . S
C436 C437 1.387 . S
C436 H440 0.950 . S
C436 C445 1.390 . S
C437 C436 1.387 . S
C437 C439 1.387 . S
H438 C445 0.950 . S
C439 C437 1.387 . S
C439 C441 1.390 . S
C439 H443 0.950 . S
H440 C436 0.950 . S
C441 C439 1.390 . S
C441 C442 1.387 . S
C441 H444 0.950 . S
C442 C441 1.387 . S
C442 C445 1.387 . S
H443 C439 0.950 . S
H444 C441 0.950 . S
C445 C436 1.390 . S
C445 H438 0.950 . S
C445 C442 1.387 . S
C446 C447 1.387 1_655 S
C446 H450 0.950 . S
C446 C455 1.390 . S
C447 C446 1.387 1_455 S
C447 C449 1.387 . S
H448 C455 0.950 . S
C449 C447 1.387 . S
C449 C451 1.390 . S
C449 H453 0.950 . S
H450 C446 0.950 . S
C451 C449 1.390 . S
C451 C452 1.387 1_455 S
C451 H454 0.950 . S
C452 C451 1.387 1_655 S
C452 C455 1.387 . S
H453 C449 0.950 . S
H454 C451 0.950 . S
C455 C446 1.390 . S
C455 H448 0.950 . S
C455 C452 1.387 . S
C456 C457 1.387 . S
C456 H460 0.950 . S
C456 C465 1.390 1_545 S
C457 C456 1.387 . S
C457 C459 1.387 . S
H458 C465 0.950 . S
C459 C457 1.387 . S
C459 C461 1.390 1_545 S
C459 H463 0.950 . S
H460 C456 0.950 . S
C461 C459 1.390 1_565 S
C461 C462 1.387 . S
C461 H464 0.950 . S
C462 C461 1.387 . S
C462 C465 1.387 . S
H463 C459 0.950 . S
H464 C461 0.950 . S
C465 C456 1.390 1_565 S
C465 H458 0.950 . S
C465 C462 1.387 . S
C466 C467 1.387 . S
C466 H470 0.950 . S
C466 C475 1.390 . S
C467 C466 1.387 . S
C467 C469 1.387 . S
H468 C475 0.950 . S
C469 C467 1.387 . S
C469 C471 1.390 . S
C469 H473 0.950 . S
H470 C466 0.950 . S
C471 C469 1.390 . S
C471 C472 1.387 . S
C471 H474 0.950 . S
C472 C471 1.387 . S
C472 C475 1.387 . S
H473 C469 0.950 . S
H474 C471 0.950 . S
C475 C466 1.390 . S
C475 H468 0.950 . S
C475 C472 1.387 . S
C476 C477 1.387 . S
C476 H480 0.950 . S
C476 C485 1.390 1_655 S
C477 C476 1.387 . S
C477 C479 1.387 . S
H478 C485 0.950 . S
C479 C477 1.387 . S
C479 C481 1.390 1_655 S
C479 H483 0.950 1_556 S
H480 C476 0.950 . S
C481 C479 1.390 1_455 S
C481 C482 1.387 . S
C481 H484 0.950 1_556 S
C482 C481 1.387 . S
C482 C485 1.387 . S
H483 C479 0.950 1_554 S
H484 C481 0.950 1_554 S
C485 C476 1.390 1_455 S
C485 H478 0.950 . S
C485 C482 1.387 . S
C486 C487 1.387 . S
C486 H490 0.950 . S
C486 C495 1.390 1_455 S
C487 C486 1.387 . S
C487 C489 1.387 . S
H488 C495 0.950 . S
C489 C487 1.387 . S
C489 C491 1.390 1_455 S
C489 H493 0.950 . S
H490 C486 0.950 . S
C491 C489 1.390 1_655 S
C491 C492 1.387 . S
C491 H494 0.950 . S
C492 C491 1.387 . S
C492 C495 1.387 . S
H493 C489 0.950 . S
H494 C491 0.950 . S
C495 C486 1.390 1_655 S
C495 H488 0.950 . S
C495 C492 1.387 . S
C496 C497 1.387 . S
C496 H500 0.950 . S
C496 C505 1.390 1_565 S
C497 C496 1.387 . S
C497 C499 1.387 . S
H498 C505 0.950 . S
C499 C497 1.387 . S
C499 C501 1.390 1_565 S
C499 H503 0.950 . S
H500 C496 0.950 . S
C501 C499 1.390 1_545 S
C501 C502 1.387 . S
C501 H504 0.950 . S
C502 C501 1.387 . S
C502 C505 1.387 . S
H503 C499 0.950 . S
H504 C501 0.950 . S
C505 C496 1.390 1_545 S
C505 H498 0.950 . S
C505 C502 1.387 . S
C506 C507 1.387 . S
C506 H510 0.950 . S
C506 C515 1.390 . S
C507 C506 1.387 . S
C507 C509 1.387 . S
H508 C515 0.950 . S
C509 C507 1.387 . S
C509 C511 1.390 . S
C509 H513 0.950 1_554 S
H510 C506 0.950 . S
C511 C509 1.390 . S
C511 C512 1.387 . S
C511 H514 0.950 1_554 S
C512 C511 1.387 . S
C512 C515 1.387 . S
H513 C509 0.950 1_556 S
H514 C511 0.950 1_556 S
C515 C506 1.390 . S
C515 H508 0.950 . S
C515 C512 1.387 . S
C516 C517 1.387 . S
C516 H520 0.950 . S
C516 C525 1.390 1_565 S
C517 C516 1.387 . S
C517 C519 1.387 . S
H518 C525 0.950 . S
C519 C517 1.387 . S
C519 C521 1.390 1_565 S
C519 H523 0.950 . S
H520 C516 0.950 . S
C521 C519 1.390 1_545 S
C521 C522 1.387 . S
C521 H524 0.950 . S
C522 C521 1.387 . S
C522 C525 1.387 . S
H523 C519 0.950 . S
H524 C521 0.950 . S
C525 C516 1.390 1_545 S
C525 H518 0.950 . S
C525 C522 1.387 . S
C526 C527 1.387 . S
C526 H530 0.950 . S
C526 C535 1.390 . S
C527 C526 1.387 . S
C527 C529 1.387 . S
H528 C535 0.950 . S
C529 C527 1.387 . S
C529 C531 1.390 . S
C529 H533 0.950 . S
H530 C526 0.950 . S
C531 C529 1.390 . S
C531 C532 1.387 . S
C531 H534 0.950 . S
C532 C531 1.387 . S
C532 C535 1.387 . S
H533 C529 0.950 . S
H534 C531 0.950 . S
C535 C526 1.390 . S
C535 H528 0.950 . S
C535 C532 1.387 . S
C536 C537 1.387 . S
C536 H540 0.950 . S
C536 C545 1.390 . S
C537 C536 1.387 . S
C537 C539 1.387 1_655 S
H538 C545 0.950 . S
C539 C537 1.387 1_455 S
C539 C541 1.390 . S
C539 H543 0.950 . S
H540 C536 0.950 . S
C541 C539 1.390 . S
C541 C542 1.387 . S
C541 H544 0.950 . S
C542 C541 1.387 . S
C542 C545 1.387 1_455 S
H543 C539 0.950 . S
H544 C541 0.950 . S
C545 C536 1.390 . S
C545 H538 0.950 . S
C545 C542 1.387 1_655 S
C546 C547 1.387 . S
C546 H550 0.950 . S
C546 C555 1.390 1_545 S
C547 C546 1.387 . S
C547 C549 1.387 . S
H548 C555 0.950 . S
C549 C547 1.387 . S
C549 C551 1.390 1_545 S
C549 H553 0.950 . S
H550 C546 0.950 . S
C551 C549 1.390 1_565 S
C551 C552 1.387 . S
C551 H554 0.950 . S
C552 C551 1.387 . S
C552 C555 1.387 . S
H553 C549 0.950 . S
H554 C551 0.950 . S
C555 C546 1.390 1_565 S
C555 H548 0.950 . S
C555 C552 1.387 . S
C556 C557 1.387 . S
C556 H560 0.950 . S
C556 C565 1.390 . S
C557 C556 1.387 . S
C557 C559 1.387 . S
H558 C565 0.950 . S
C559 C557 1.387 . S
C559 C561 1.390 . S
C559 H563 0.950 . S
H560 C556 0.950 . S
C561 C559 1.390 . S
C561 C562 1.387 . S
C561 H564 0.950 . S
C562 C561 1.387 . S
C562 C565 1.387 . S
H563 C559 0.950 . S
H564 C561 0.950 . S
C565 C556 1.390 . S
C565 H558 0.950 . S
C565 C562 1.387 . S
C566 C567 1.387 . S
C566 H570 0.950 . S
C566 C575 1.390 1_455 S
C567 C566 1.387 . S
C567 C569 1.387 . S
H568 C575 0.950 . S
C569 C567 1.387 . S
C569 C571 1.390 1_455 S
C569 H573 0.950 . S
H570 C566 0.950 . S
C571 C569 1.390 1_655 S
C571 C572 1.387 . S
C571 H574 0.950 . S
C572 C571 1.387 . S
C572 C575 1.387 . S
H573 C569 0.950 . S
H574 C571 0.950 . S
C575 C566 1.390 1_655 S
C575 H568 0.950 . S
C575 C572 1.387 . S
C576 C577 1.387 . S
C576 H580 0.950 . S
C576 C585 1.390 . S
C577 C576 1.387 . S
C577 C579 1.387 . S
H578 C585 0.950 . S
C579 C577 1.387 . S
C579 C581 1.390 . S
C579 H583 0.950 . S
H580 C576 0.950 . S
C581 C579 1.390 . S
C581 C582 1.387 . S
C581 H584 0.950 . S
C582 C581 1.387 . S
C582 C585 1.387 . S
H583 C579 0.950 . S
H584 C581 0.950 . S
C585 C576 1.390 . S
C585 H578 0.950 . S
C585 C582 1.387 . S
C586 C587 1.387 . S
C586 H590 0.950 . S
C586 C595 1.390 . S
C587 C586 1.387 . S
C587 C589 1.387 . S
H588 C595 0.950 . S
C589 C587 1.387 . S
C589 C591 1.390 . S
C589 H593 0.950 . S
H590 C586 0.950 . S
C591 C589 1.390 . S
C591 C592 1.387 . S
C591 H594 0.950 . S
C592 C591 1.387 . S
C592 C595 1.387 . S
H593 C589 0.950 . S
H594 C591 0.950 . S
C595 C586 1.390 . S
C595 H588 0.950 . S
C595 C592 1.387 . S
C596 C597 1.387 . S
C596 H600 0.950 . S
C596 C605 1.390 . S
C597 C596 1.387 . S
C597 C599 1.387 . S
H598 C605 0.950 . S
C599 C597 1.387 . S
C599 C601 1.390 . S
C599 H603 0.950 . S
H600 C596 0.950 . S
C601 C599 1.390 . S
C601 C602 1.387 . S
C601 H604 0.950 . S
C602 C601 1.387 . S
C602 C605 1.387 . S
H603 C599 0.950 . S
H604 C601 0.950 . S
C605 C596 1.390 . S
C605 H598 0.950 . S
C605 C602 1.387 . S
C606 C607 1.387 . S
C606 H610 0.950 . S
C606 C615 1.390 . S
C607 C606 1.387 . S
C607 C609 1.387 . S
H608 C615 0.950 . S
C609 C607 1.387 . S
C609 C611 1.390 . S
C609 H613 0.950 . S
H610 C606 0.950 . S
C611 C609 1.390 . S
C611 C612 1.387 . S
C611 H614 0.950 . S
C612 C611 1.387 . S
C612 C615 1.387 . S
H613 C609 0.950 . S
H614 C611 0.950 . S
C615 C606 1.390 . S
C615 H608 0.950 . S
C615 C612 1.387 . S
C616 C617 1.387 . S
C616 H620 0.950 . S
C616 C625 1.390 . S
C617 C616 1.387 . S
C617 C619 1.387 . S
H618 C625 0.950 . S
C619 C617 1.387 . S
C619 C621 1.390 . S
C619 H623 0.950 . S
H620 C616 0.950 . S
C621 C619 1.390 . S
C621 C622 1.387 . S
C621 H624 0.950 . S
C622 C621 1.387 . S
C622 C625 1.387 . S
H623 C619 0.950 . S
H624 C621 0.950 . S
C625 C616 1.390 . S
C625 H618 0.950 . S
C625 C622 1.387 . S
C626 C627 1.387 . S
C626 H630 0.950 . S
C626 C635 1.390 . S
C627 C626 1.387 . S
C627 C629 1.387 . S
H628 C635 0.950 . S
C629 C627 1.387 . S
C629 C631 1.390 . S
C629 H633 0.950 . S
H630 C626 0.950 . S
C631 C629 1.390 . S
C631 C632 1.387 . S
C631 H634 0.950 . S
C632 C631 1.387 . S
C632 C635 1.387 . S
H633 C629 0.950 . S
H634 C631 0.950 . S
C635 C626 1.390 . S
C635 H628 0.950 . S
C635 C632 1.387 . S
C277 C20 0.997 . S
C282 C204 0.999 . S
C287 C43 0.997 . S
C292 C227 0.997 . S
C297 C66 0.996 . S
C302 C250 0.995 . S
C307 C273 0.997 . S
C312 C89 0.998 . S
C317 C112 0.999 . S
C322 C158 0.999 . S
C327 C181 0.998 . S
C332 C135 0.996 . S
C337 C247 1.247 . S
C342 C17 1.247 . S
C347 C270 1.245 . S
C352 C40 1.248 . S
C357 C63 1.245 . S
C362 C155 1.248 . S
C367 C178 1.246 . S
C372 C86 1.246 . S
C377 C201 1.245 . S
C382 C109 1.248 . S
C387 C132 1.245 . S
C392 C224 1.247 . S
C397 C182 1.540 . S
C402 C21 1.540 . S
C407 C205 1.539 . S
C412 C44 1.540 . S
C417 C228 1.541 . S
C422 C67 1.542 . S
C427 C90 1.540 . S
C432 C251 1.540 . S
C437 C113 1.542 . S
C442 C274 1.539 . S
C447 C136 1.538 . S
C452 C159 1.542 . S
C457 C19 0.413 . S
C462 C88 0.413 . S
C467 C42 0.420 . S
C472 C111 0.420 . S
C477 C65 0.413 . S
C482 C134 0.413 . S
C487 C226 0.413 . S
C492 C157 0.413 . S
C497 C180 0.413 . S
C502 C249 0.413 . S
C507 C272 0.413 . S
C512 C203 0.413 . S
C517 C177 1.622 . S
C522 C16 1.622 . S
C527 C200 1.622 . S
C532 C39 1.623 . S
C537 C62 1.621 . S
C542 C223 1.623 . S
C547 C246 1.622 . S
C552 C85 1.622 . S
C557 C269 1.623 . S
C562 C108 1.622 . S
C567 C131 1.622 . S
C572 C154 1.621 . S
C577 C18 1.687 . S
C582 C248 1.687 . S
C587 C41 1.687 . S
C592 C271 1.687 . S
C597 C64 1.688 . S
C602 C156 1.688 . S
C607 C87 1.689 . S
C612 C179 1.689 . S
C617 C110 1.688 . S
C622 C202 1.688 . S
C627 C225 1.688 . S
C632 C133 1.689 . S
