# Generated by pormake.
# Topology umz, (4)-cn, num edge types: 1
# Building blocks:
#     Node 0, Type 0, BuildingBlock: CEKHIL_clean_sbu_0, # of connection points: 4
#     Node 1, Type 0, BuildingBlock: CEKHIL_clean_sbu_0, # of connection points: 4
#     Node 2, Type 0, BuildingBlock: CEKHIL_clean_sbu_0, # of connection points: 4
#     Node 3, Type 0, BuildingBlock: CEKHIL_clean_sbu_0, # of connection points: 4
#     Node 4, Type 0, BuildingBlock: CEKHIL_clean_sbu_0, # of connection points: 4
#     Node 5, Type 0, BuildingBlock: CEKHIL_clean_sbu_0, # of connection points: 4
#     Node 6, Type 0, BuildingBlock: CEKHIL_clean_sbu_0, # of connection points: 4
#     Node 7, Type 0, BuildingBlock: CEKHIL_clean_sbu_0, # of connection points: 4
#     Node 8, Type 0, BuildingBlock: CEKHIL_clean_sbu_0, # of connection points: 4
#     Node 9, Type 0, BuildingBlock: CEKHIL_clean_sbu_0, # of connection points: 4
#     Node 10, Type 0, BuildingBlock: CEKHIL_clean_sbu_0, # of connection points: 4
#     Node 11, Type 0, BuildingBlock: CEKHIL_clean_sbu_0, # of connection points: 4
#     Node 12, Type 0, BuildingBlock: CEKHIL_clean_sbu_0, # of connection points: 4
#     Node 13, Type 0, BuildingBlock: CEKHIL_clean_sbu_0, # of connection points: 4
#     Node 14, Type 0, BuildingBlock: CEKHIL_clean_sbu_0, # of connection points: 4
#     Node 15, Type 0, BuildingBlock: CEKHIL_clean_sbu_0, # of connection points: 4
#     Edge 16, Type (0, 0), BuildingBlock: UVAHIK_clean_linker_0, # of connection points: 2
#     Edge 17, Type (0, 0), BuildingBlock: UVAHIK_clean_linker_0, # of connection points: 2
#     Edge 18, Type (0, 0), BuildingBlock: UVAHIK_clean_linker_0, # of connection points: 2
#     Edge 19, Type (0, 0), BuildingBlock: UVAHIK_clean_linker_0, # of connection points: 2
#     Edge 20, Type (0, 0), BuildingBlock: UVAHIK_clean_linker_0, # of connection points: 2
#     Edge 21, Type (0, 0), BuildingBlock: UVAHIK_clean_linker_0, # of connection points: 2
#     Edge 22, Type (0, 0), BuildingBlock: UVAHIK_clean_linker_0, # of connection points: 2
#     Edge 23, Type (0, 0), BuildingBlock: UVAHIK_clean_linker_0, # of connection points: 2
#     Edge 24, Type (0, 0), BuildingBlock: UVAHIK_clean_linker_0, # of connection points: 2
#     Edge 25, Type (0, 0), BuildingBlock: UVAHIK_clean_linker_0, # of connection points: 2
#     Edge 26, Type (0, 0), BuildingBlock: UVAHIK_clean_linker_0, # of connection points: 2
#     Edge 27, Type (0, 0), BuildingBlock: UVAHIK_clean_linker_0, # of connection points: 2
#     Edge 28, Type (0, 0), BuildingBlock: UVAHIK_clean_linker_0, # of connection points: 2
#     Edge 29, Type (0, 0), BuildingBlock: UVAHIK_clean_linker_0, # of connection points: 2
#     Edge 30, Type (0, 0), BuildingBlock: UVAHIK_clean_linker_0, # of connection points: 2
#     Edge 31, Type (0, 0), BuildingBlock: UVAHIK_clean_linker_0, # of connection points: 2
#     Edge 32, Type (0, 0), BuildingBlock: UVAHIK_clean_linker_0, # of connection points: 2
#     Edge 33, Type (0, 0), BuildingBlock: UVAHIK_clean_linker_0, # of connection points: 2
#     Edge 34, Type (0, 0), BuildingBlock: UVAHIK_clean_linker_0, # of connection points: 2
#     Edge 35, Type (0, 0), BuildingBlock: UVAHIK_clean_linker_0, # of connection points: 2
#     Edge 36, Type (0, 0), BuildingBlock: UVAHIK_clean_linker_0, # of connection points: 2
#     Edge 37, Type (0, 0), BuildingBlock: UVAHIK_clean_linker_0, # of connection points: 2
#     Edge 38, Type (0, 0), BuildingBlock: UVAHIK_clean_linker_0, # of connection points: 2
#     Edge 39, Type (0, 0), BuildingBlock: UVAHIK_clean_linker_0, # of connection points: 2
#     Edge 40, Type (0, 0), BuildingBlock: UVAHIK_clean_linker_0, # of connection points: 2
#     Edge 41, Type (0, 0), BuildingBlock: UVAHIK_clean_linker_0, # of connection points: 2
#     Edge 42, Type (0, 0), BuildingBlock: UVAHIK_clean_linker_0, # of connection points: 2
#     Edge 43, Type (0, 0), BuildingBlock: UVAHIK_clean_linker_0, # of connection points: 2
#     Edge 44, Type (0, 0), BuildingBlock: UVAHIK_clean_linker_0, # of connection points: 2
#     Edge 45, Type (0, 0), BuildingBlock: UVAHIK_clean_linker_0, # of connection points: 2
#     Edge 46, Type (0, 0), BuildingBlock: UVAHIK_clean_linker_0, # of connection points: 2
#     Edge 47, Type (0, 0), BuildingBlock: UVAHIK_clean_linker_0, # of connection points: 2
# Relax obj value: 0.261
# Max RMSD: 0.165
# Mean RMSD: 0.165
data_MOF--net-umz--node1-CEKHIL_clean_sbu_0--edge1-UVAHIK_clean_linker_0
_symmetry_space_group_name_H-M    P1
_symmetry_Int_Tables_number       1
_symmetry_cell_setting            triclinic
loop_
_symmetry_equiv_pos_as_xyz
'x, y, z'
_cell_length_a     75.337076
_cell_length_b     75.203212
_cell_length_c     29.299925
_cell_angle_alpha  89.956294
_cell_angle_beta   89.935805
_cell_angle_gamma 89.97689
loop_
_atom_site_label
_atom_site_type_symbol
_atom_site_fract_x
_atom_site_fract_y
_atom_site_fract_z
_atom_type_partial_charge
Co0 Co -0.00293 0.62592 0.08776 0.0
O1 O 0.99196 0.64441 0.04446 0.0
O2 O 0.0159 0.64338 0.08821 0.0
C3 C 0.96975 0.62518 0.11949 0.0
O4 O 0.00658 0.60961 0.13769 0.0
Co5 Co 0.97693 0.5898 0.08647 0.0
O6 O 0.98829 0.58628 0.14678 0.0
C7 C 0.00521 0.59699 0.01843 0.0
C8 C 0.00663 0.65184 0.0577 0.0
C9 C 0.00156 0.59557 0.15934 0.0
O10 O 0.00951 0.61154 0.03889 0.0
O11 O 0.99188 0.58747 0.03026 0.0
O12 O 0.98122 0.63703 0.13251 0.0
O13 O 0.97463 0.61534 0.08574 0.0
Co14 Co 0.86439 0.00501 0.59306 0.0
O15 O 0.84531 -0.00121 0.55255 0.0
O16 O 0.84518 0.02178 0.59984 0.0
C17 C 0.8695 0.97746 0.62037 0.0
O18 O 0.88093 0.01533 0.64084 0.0
Co19 Co 0.90241 0.98988 0.57963 0.0
O20 O 0.90774 0.00225 0.63797 0.0
C21 C 0.88875 0.01725 0.51705 0.0
C22 C 0.83698 0.01251 0.56893 0.0
C23 C 0.89675 0.01304 0.65615 0.0
O24 O 0.87555 0.02017 0.54392 0.0
O25 O 0.89976 0.00447 0.52267 0.0
O26 O 0.85674 0.98706 0.63731 0.0
O27 O 0.87748 0.98408 0.5853 0.0
Co28 Co 0.48804 0.86508 0.08616 0.0
O29 O 0.49546 0.8466 0.04509 0.0
O30 O 0.47126 0.84568 0.08807 0.0
C31 C 0.51493 0.86947 0.1179 0.0
O32 O 0.47635 0.8809 0.13382 0.0
Co33 Co 0.50362 0.90329 0.08116 0.0
O34 O 0.48974 0.90756 0.13766 0.0
C35 C 0.47833 0.89086 0.0111 0.0
C36 C 0.4815 0.8379 0.05842 0.0
C37 C 0.47831 0.89635 0.1519 0.0
O38 O 0.47447 0.87707 0.03524 0.0
O39 O 0.49076 0.90173 0.02153 0.0
O40 O 0.5048 0.85669 0.13261 0.0
O41 O 0.50908 0.87818 0.08317 0.0
Co42 Co 0.63432 0.48765 0.59219 0.0
O43 O 0.6542 0.49291 0.55325 0.0
O44 O 0.6532 0.47088 0.60351 0.0
C45 C 0.629 0.51575 0.6153 0.0
O46 O 0.61679 0.47845 0.63929 0.0
Co47 Co 0.59675 0.50298 0.5725 0.0
O48 O 0.59057 0.49247 0.63274 0.0
C49 C 0.61119 0.47424 0.51524 0.0
C50 C 0.66209 0.47951 0.57254 0.0
C51 C 0.60091 0.48165 0.65318 0.0
O52 O 0.62387 0.47166 0.54388 0.0
O53 O 0.60027 0.48724 0.51798 0.0
O54 O 0.64136 0.50638 0.63485 0.0
O55 O 0.62163 0.50852 0.58022 0.0
Co56 Co 0.00648 0.86036 0.89857 0.0
O57 O 0.00079 0.84438 0.94781 0.0
O58 O 0.02338 0.84109 0.90009 0.0
C59 C 0.97863 0.86287 0.87105 0.0
O60 O 0.01623 0.87318 0.84263 0.0
Co61 Co 0.99052 0.89836 0.89045 0.0
O62 O -0.00121 0.89655 0.8264 0.0
C63 C 0.02099 0.89174 0.95222 0.0
C64 C 0.01425 0.83494 0.93428 0.0
C65 C 0.01114 0.88573 0.8158 0.0
O66 O 0.02174 0.87525 0.9405 0.0
O67 O 0.00931 0.90267 0.93741 0.0
O68 O 0.9884 0.8493 0.86001 0.0
O69 O 0.98536 0.87351 0.90088 0.0
Co70 Co 0.63078 0.00612 0.39902 0.0
O71 O 0.64929 1e-05 0.44127 0.0
O72 O 0.64907 0.02411 0.39769 0.0
C73 C 0.6281 0.97901 0.36696 0.0
O74 O 0.61456 0.01654 0.35037 0.0
Co75 Co 0.59366 0.98806 0.40462 0.0
O76 O 0.58878 0.00149 0.3476 0.0
C77 C 0.60429 0.01447 0.4735 0.0
C78 C 0.65717 0.01449 0.42813 0.0
C79 C 0.59926 0.01346 0.33258 0.0
O80 O 0.61759 0.01924 0.44877 0.0
O81 O 0.59448 0.00104 0.46431 0.0
O82 O 0.64053 0.98977 0.35337 0.0
O83 O 0.61901 0.9843 0.40166 0.0
Co84 Co 0.48884 0.62813 0.9003 0.0
O85 O 0.49611 0.64619 0.94263 0.0
O86 O 0.47095 0.64652 0.90352 0.0
C87 C 0.51507 0.626 0.8635 0.0
O88 O 0.47714 0.61247 0.85231 0.0
Co89 Co 0.50697 0.59099 0.89808 0.0
O90 O 0.49478 0.58899 0.83825 0.0
C91 C 0.4816 0.59985 0.97194 0.0
C92 C 0.48144 0.65434 0.93248 0.0
C93 C 0.48149 0.59877 0.82847 0.0
O94 O 0.47715 0.61434 0.95139 0.0
O95 O 0.49411 0.58967 0.95796 0.0
O96 O 0.5039 0.63846 0.85257 0.0
O97 O 0.51069 0.61638 0.89815 0.0
Co98 Co 0.86579 0.48878 0.40516 0.0
O99 O 0.8498 0.49242 0.45559 0.0
O100 O 0.849 0.46948 0.40824 0.0
C101 C 0.86418 0.51682 0.37829 0.0
O102 O 0.87901 0.48058 0.34838 0.0
Co103 Co 0.90108 0.5095 0.39308 0.0
O104 O 0.90041 0.50003 0.32992 0.0
C105 C 0.89879 0.47976 0.45969 0.0
C106 C 0.8421 0.47779 0.44286 0.0
C107 C 0.89085 0.48655 0.32067 0.0
O108 O 0.88301 0.47576 0.44617 0.0
O109 O 0.9074 0.49326 0.44478 0.0
O110 O 0.85204 0.50531 0.36737 0.0
O111 O 0.87605 0.5114 0.40669 0.0
Co112 Co 0.99372 0.36854 0.90628 0.0
O113 O -0.00261 0.35122 0.95361 0.0
O114 O 0.97607 0.35 0.90169 0.0
C115 C 0.0224 0.37031 0.8845 0.0
O116 O 0.9861 0.3832 0.85124 0.0
Co117 Co 0.0116 0.40578 0.90812 0.0
O118 O 0.00413 0.40677 0.84328 0.0
C119 C 0.97963 0.3988 0.96479 0.0
C120 C 0.98403 0.34267 0.93631 0.0
C121 C 0.99187 0.39664 0.82845 0.0
O122 O 0.97793 0.38309 0.9478 0.0
O123 O 0.99265 0.40913 0.95534 0.0
O124 O 0.01239 0.35759 0.86916 0.0
O125 O 0.01525 0.38052 0.91468 0.0
Co126 Co 0.12642 0.98932 0.39932 0.0
O127 O 0.14392 0.9933 0.44604 0.0
O128 O 0.1447 0.97143 0.39542 0.0
C129 C 0.12447 0.01772 0.37499 0.0
O130 O 0.11163 0.9812 0.34515 0.0
Co131 Co 0.08916 0.00711 0.40195 0.0
O132 O 0.08691 -0.00226 0.33898 0.0
C133 C 0.09662 0.97586 0.46047 0.0
C134 C 0.15215 0.97953 0.42957 0.0
C135 C 0.09745 0.98587 0.3238 0.0
O136 O 0.11205 0.97393 0.44216 0.0
O137 O 0.08626 0.98888 0.45125 0.0
O138 O 0.13728 0.00756 0.36073 0.0
O139 O 0.11446 0.01099 0.40628 0.0
Co140 Co 0.5011 0.12998 0.90052 0.0
O141 O 0.49464 0.14766 0.94501 0.0
O142 O 0.51794 0.14928 0.89901 0.0
C143 C 0.47366 0.12647 0.87109 0.0
O144 O 0.51172 0.1152 0.84904 0.0
Co145 Co 0.48539 0.09182 0.90007 0.0
O146 O 0.49425 0.09154 0.8363 0.0
C147 C 0.51471 0.10084 0.96357 0.0
C148 C 0.50825 0.15665 0.93051 0.0
C149 C 0.50685 0.10187 0.82458 0.0
O150 O 0.51572 0.11674 0.94734 0.0
O151 O 0.50318 0.08941 0.95056 0.0
O152 O 0.48363 0.13959 0.85782 0.0
O153 O 0.47996 0.11689 0.90387 0.0
Co154 Co 0.35867 0.50527 0.39844 0.0
O155 O 0.33861 0.49995 0.43671 0.0
O156 O 0.34079 0.52349 0.39146 0.0
C157 C 0.36221 0.47769 0.36927 0.0
O158 O 0.37675 0.51492 0.35306 0.0
Co159 Co 0.39522 0.48689 0.4141 0.0
O160 O 0.40188 0.49884 0.35611 0.0
C161 C 0.38231 0.51402 0.47848 0.0
C162 C 0.3315 0.51442 0.42079 0.0
C163 C 0.39237 0.51103 0.33826 0.0
O164 O 0.37019 0.51883 0.4501 0.0
O165 O 0.39218 0.50036 0.47261 0.0
O166 O 0.35035 0.48835 0.35215 0.0
O167 O 0.37006 0.48341 0.40543 0.0
Co168 Co 0.988 0.13303 0.09227 0.0
O169 O 0.99494 0.14994 0.04624 0.0
O170 O 0.97112 0.15231 0.09024 0.0
C171 C 0.01519 0.13008 0.12329 0.0
O172 O 0.9767 0.11922 0.14449 0.0
Co173 Co 0.00355 0.09496 0.09946 0.0
O174 O 0.99326 0.09536 0.16181 0.0
C175 C 0.97541 0.1029 0.03144 0.0
C176 C 0.98109 0.15909 0.05845 0.0
C177 C 0.98068 0.10612 0.17078 0.0
O178 O 0.97398 0.11902 0.04588 0.0
O179 O 0.9868 0.09178 0.04695 0.0
O180 O 0.00506 0.14328 0.13521 0.0
O181 O 0.00911 0.11988 0.09162 0.0
Co182 Co 0.35929 0.98852 0.58685 0.0
O183 O 0.34044 0.99392 0.54484 0.0
O184 O 0.34104 0.97061 0.59114 0.0
C185 C 0.36211 0.01619 0.61559 0.0
O186 O 0.37571 0.97874 0.63595 0.0
Co187 Co 0.39645 0.00633 0.58046 0.0
O188 O 0.40046 0.99524 0.64092 0.0
C189 C 0.38744 0.97637 0.51907 0.0
C190 C 0.33265 0.97971 0.56017 0.0
C191 C 0.39046 0.9828 0.65543 0.0
O192 O 0.37215 0.97445 0.53821 0.0
O193 O 0.39842 0.98869 0.52957 0.0
O194 O 0.34986 0.0056 0.63105 0.0
O195 O 0.37112 0.01033 0.5813 0.0
Co196 Co 0.50561 0.36634 0.09448 0.0
O197 O 0.49834 0.35085 0.04539 0.0
O198 O 0.52083 0.34583 0.09233 0.0
C199 C 0.47803 0.37126 0.1222 0.0
O200 O 0.51699 0.37798 0.14986 0.0
Co201 Co 0.49338 0.40552 0.10626 0.0
O202 O 0.50287 0.40314 0.16903 0.0
C203 C 0.5218 0.39646 0.03964 0.0
C204 C 0.51111 0.34039 0.05852 0.0
C205 C 0.51415 0.39097 0.17742 0.0
O206 O 0.52174 0.37999 0.0518 0.0
O207 O 0.51112 0.40814 0.05574 0.0
O208 O 0.48656 0.35685 0.13325 0.0
O209 O 0.4859 0.38146 0.09321 0.0
Co210 Co 0.12798 0.50438 0.58671 0.0
O211 O 0.14636 0.50009 0.54261 0.0
O212 O 0.14386 0.52454 0.58426 0.0
C213 C 0.12947 0.47761 0.62131 0.0
O214 O 0.11139 0.51329 0.63676 0.0
Co215 Co 0.09356 0.48152 0.5884 0.0
O216 O 0.08973 0.49324 0.64822 0.0
C217 C 0.09816 0.50936 0.5179 0.0
C218 C 0.15263 0.51557 0.55372 0.0
C219 C 0.09801 0.50735 0.65951 0.0
O220 O 0.11235 0.51503 0.53768 0.0
O221 O 0.08976 0.49545 0.53094 0.0
O222 O 0.14058 0.49011 0.63232 0.0
O223 O 0.11917 0.48116 0.58741 0.0
C224 C 0.02526 0.67946 0.06249 0.0
C225 C 0.01152 0.66981 0.04155 0.0
C226 C 0.0281 0.69735 0.05122 0.0
C227 C 0.00297 0.73555 0.00835 0.0
H228 H 0.04877 0.75832 0.99314 0.0
C229 C 0.03032 0.80574 0.9339 0.0
C230 C 0.01785 0.81721 0.95409 0.0
C231 C 0.03177 0.78807 0.94849 0.0
C232 C 0.0359 0.75211 -0.0027 0.0
H233 H 0.99079 0.67095 0.99032 0.0
H234 H 0.99586 0.70194 0.97043 0.0
H235 H 0.04725 0.7262 0.0074 0.0
H236 H -0.00196 0.81957 0.00752 0.0
H237 H 0.00073 0.78889 0.03327 0.0
H238 H 0.99152 0.76116 -0.00244 0.0
C239 C 0.00419 0.69586 -0.00379 0.0
C240 C 0.03504 0.73378 0.00571 0.0
C241 C 0.00135 0.67807 0.00745 0.0
C242 C 0.00764 0.81101 0.99093 0.0
C243 C 0.00912 0.7934 0.00554 0.0
C244 C 0.00382 0.75378 0.00023 0.0
C245 C 0.01723 0.70585 0.01889 0.0
C246 C 0.01853 0.72529 0.01082 0.0
C247 C 0.02078 0.78158 0.98355 0.0
C248 C 0.02027 0.76229 -0.00557 0.0
H249 H 0.03333 0.67344 0.0889 0.0
H250 H 0.03824 0.70472 0.06931 0.0
H251 H 0.99005 0.72946 0.01285 0.0
H252 H 0.0384 0.81015 0.90546 0.0
H253 H 0.04084 0.77928 0.93073 0.0
C254 C 0.68207 0.00984 0.48289 0.0
C255 C 0.67487 0.01928 0.44592 0.0
C256 C 0.69932 0.01327 0.49777 0.0
C257 C 0.74195 0.0287 0.45494 0.0
H258 H 0.75521 0.0272 0.58278 0.0
C259 C 0.8089 0.03021 0.57601 0.0
C260 C 0.8189 0.01711 0.55342 0.0
C261 C 0.79146 0.03384 0.56247 0.0
C262 C 0.75173 0.02791 0.54697 0.0
H263 H 0.67987 0.04013 0.39638 0.0
H264 H 0.7102 0.04602 0.42222 0.0
H265 H 0.72387 0.0281 0.56169 0.0
H266 H 0.81869 -0.00208 0.49819 0.0
H267 H 0.78836 0.00426 0.47462 0.0
H268 H 0.76979 0.02804 0.4402 0.0
C269 C 0.70245 0.03595 0.43958 0.0
C270 C 0.73379 0.02827 0.5349 0.0
C271 C 0.68508 0.03262 0.42494 0.0
C272 C 0.81131 0.00806 0.51635 0.0
C273 C 0.79398 0.0118 0.5026 0.0
C274 C 0.75988 0.02822 0.467 0.0
C275 C 0.70981 0.02614 0.4758 0.0
C276 C 0.72872 0.02826 0.48875 0.0
C277 C 0.78379 0.02458 0.52579 0.0
C278 C 0.76494 0.0274 0.51312 0.0
H279 H 0.67451 -0.00049 0.49986 0.0
H280 H 0.70468 0.00534 0.52539 0.0
H281 H 0.73846 0.02857 0.41909 0.0
H282 H 0.81441 0.03742 0.60466 0.0
H283 H 0.78395 0.04384 0.58079 0.0
C284 C 0.46498 0.80897 0.06267 0.0
C285 C 0.47811 0.81962 0.04224 0.0
C286 C 0.46313 0.7911 0.05021 0.0
C287 C 0.48989 0.75478 0.00233 0.0
H288 H 0.44502 0.72993 0.99057 0.0
C289 C 0.46436 0.683 0.93164 0.0
C290 C 0.47768 0.67224 0.95079 0.0
C291 C 0.46251 0.70075 0.94524 0.0
C292 C 0.45764 0.73673 0.99359 0.0
H293 H 0.49888 0.82021 0.99095 0.0
H294 H 0.4955 0.78924 0.96882 0.0
H295 H 0.44522 0.76195 0.00624 0.0
H296 H 0.49866 0.67123 0.00134 0.0
H297 H 0.49523 0.70196 0.02557 0.0
H298 H 0.50237 0.72986 0.98894 0.0
C299 C 0.4869 0.79452 -0.00481 0.0
C300 C 0.45775 0.755 0.0029 0.0
C301 C 0.48878 0.8123 0.00772 0.0
C302 C 0.48842 0.67925 0.98551 0.0
C303 C 0.48652 0.69689 -0.00077 0.0
C304 C 0.48978 0.73661 0.99317 0.0
C305 C 0.47437 0.78359 0.01706 0.0
C306 C 0.47391 0.76423 0.00714 0.0
C307 C 0.47392 0.70801 0.97832 0.0
C308 C 0.47368 0.72733 0.98878 0.0
H309 H 0.45654 0.81427 0.08936 0.0
H310 H 0.45341 0.783 0.06783 0.0
H311 H 0.50257 0.7614 0.00608 0.0
H312 H 0.45588 0.67794 0.9048 0.0
H313 H 0.45272 0.70899 0.92837 0.0
C314 C 0.6888 0.48279 0.52284 0.0
C315 C 0.68047 0.47461 0.56025 0.0
C316 C 0.70639 0.47883 0.51204 0.0
C317 C 0.74783 0.46392 0.56355 0.0
H318 H 0.76296 0.46004 0.43738 0.0
C319 C 0.81554 0.45782 0.44493 0.0
C320 C 0.82529 0.47189 0.46401 0.0
C321 C 0.79842 0.45401 0.46062 0.0
C322 C 0.75897 0.46078 0.47286 0.0
H323 H 0.68394 0.45567 0.61537 0.0
H324 H 0.71489 0.44885 0.59663 0.0
H325 H 0.7314 0.46093 0.45542 0.0
H326 H 0.82525 0.49224 0.5164 0.0
H327 H 0.79542 0.48568 0.54359 0.0
H328 H 0.77546 0.46422 0.58084 0.0
C329 C 0.70774 0.45833 0.57574 0.0
C330 C 0.74089 0.46149 0.48312 0.0
C331 C 0.69003 0.46218 0.58632 0.0
C332 C 0.81804 0.48136 0.50089 0.0
C333 C 0.80097 0.47751 0.51668 0.0
C334 C 0.76595 0.4633 0.55325 0.0
C335 C 0.71611 0.46668 0.53858 0.0
C336 C 0.73514 0.46352 0.52844 0.0
C337 C 0.79077 0.46415 0.49584 0.0
C338 C 0.77171 0.46215 0.50769 0.0
H339 H 0.68178 0.49242 0.50208 0.0
H340 H 0.71255 0.48567 0.4836 0.0
H341 H 0.74379 0.46556 0.59878 0.0
H342 H 0.82081 0.45022 0.4166 0.0
H343 H 0.79096 0.44348 0.4443 0.0
C344 C 0.96728 0.314 0.92848 0.0
C345 C 0.97936 0.32467 0.95265 0.0
C346 C 0.96497 0.2961 0.94028 0.0
C347 C 0.9582 0.25966 0.98556 0.0
H348 H 0.00267 0.2351 0.00751 0.0
C349 C 0.96399 0.1877 0.05715 0.0
C350 C 0.97773 0.17702 0.03966 0.0
C351 C 0.96229 0.20544 0.04336 0.0
C352 C 0.99014 0.2417 0.00104 0.0
H353 H -0.00247 0.32534 0.01 0.0
H354 H 0.99336 0.29428 0.03075 0.0
H355 H 0.00283 0.26685 0.99222 0.0
H356 H -0.00022 0.17623 0.99203 0.0
H357 H -0.00328 0.20706 0.96779 0.0
H358 H 0.94557 0.23429 -0.00579 0.0
C359 C 0.98596 0.29959 0.00214 0.0
C360 C 0.99021 0.25996 0.99292 0.0
C361 C 0.98827 0.31742 0.99038 0.0
C362 C 0.98915 0.18415 0.00645 0.0
C363 C 0.98746 0.20184 0.99273 0.0
C364 C 0.95811 0.24132 -0.00598 0.0
C365 C 0.97471 0.2886 0.9764 0.0
C366 C 0.97426 0.26917 0.98528 0.0
C367 C 0.97432 0.21282 0.01192 0.0
C368 C 0.97412 0.23216 0.00175 0.0
H369 H 0.96021 0.31923 0.89924 0.0
H370 H 0.95623 0.28794 0.91977 0.0
H371 H 0.9457 0.26643 0.97985 0.0
H372 H 0.95496 0.18257 0.08275 0.0
H373 H 0.95209 0.21358 0.0589 0.0
C374 C 0.305 0.96137 0.56714 0.0
C375 C 0.31472 0.97466 0.54448 0.0
C376 C 0.28747 0.95772 0.55448 0.0
C377 C 0.24761 0.96388 0.54239 0.0
H378 H 0.23274 0.96445 0.41571 0.0
C379 C 0.17715 0.9828 0.48488 0.0
C380 C 0.16973 0.97411 0.44703 0.0
C381 C 0.19448 0.97902 0.49867 0.0
C382 C 0.23667 0.96397 0.45124 0.0
H383 H 0.31396 0.9941 0.48979 0.0
H384 H 0.28348 0.98773 0.46772 0.0
H385 H 0.2643 0.9645 0.43416 0.0
H386 H 0.17435 0.95407 0.39514 0.0
H387 H 0.2047 0.94749 0.41926 0.0
H388 H 0.21995 0.96376 0.55946 0.0
C389 C 0.28938 0.98005 0.49509 0.0
C390 C 0.25474 0.96418 0.46179 0.0
C391 C 0.30681 0.98379 0.50795 0.0
C392 C 0.17974 0.96104 0.42434 0.0
C393 C 0.19713 0.95733 0.43801 0.0
C394 C 0.22952 0.96376 0.53184 0.0
C395 C 0.27942 0.96717 0.51865 0.0
C396 C 0.2604 0.96456 0.50746 0.0
C397 C 0.20479 0.96651 0.47481 0.0
C398 C 0.22386 0.96422 0.48615 0.0
H399 H 0.31076 0.9541 0.59541 0.0
H400 H 0.28015 0.94763 0.57302 0.0
H401 H 0.25155 0.96426 0.57791 0.0
H402 H 0.16976 0.99291 0.50312 0.0
H403 H 0.20006 0.98647 0.52684 0.0
C404 C 0.50067 0.18258 0.98004 0.0
C405 C 0.51152 0.17503 0.94621 0.0
C406 C 0.50227 0.20055 0.99123 0.0
C407 C 0.4993 0.24042 0.98269 0.0
H408 H 0.54439 0.26489 0.99348 0.0
C409 C 0.50221 0.31628 0.0043 0.0
C410 C 0.51363 0.32251 0.03859 0.0
C411 C 0.50333 0.29867 0.98927 0.0
C412 C 0.53169 0.25822 0.99066 0.0
H413 H 0.53306 0.18021 0.89884 0.0
H414 H 0.53576 0.21167 0.91819 0.0
H415 H 0.54391 0.23294 0.97813 0.0
H416 H 0.53568 0.31544 0.08259 0.0
H417 H 0.53748 0.28472 0.05675 0.0
H418 H 0.48704 0.26548 -0.00371 0.0
C419 C 0.52609 0.20366 0.93628 0.0
C420 C 0.53142 0.23996 0.98153 0.0
C421 C 0.52451 0.18565 0.92512 0.0
C422 C 0.52667 0.31103 0.05613 0.0
C423 C 0.52777 0.29343 0.04114 0.0
C424 C 0.49956 0.25863 0.99173 0.0
C425 C 0.51471 0.2114 0.96875 0.0
C426 C 0.51521 0.23083 0.97785 0.0
C427 C 0.51586 0.28693 0.00825 0.0
C428 C 0.51575 0.26775 -0.00392 0.0
H429 H 0.49062 0.17472 -0.00284 0.0
H430 H 0.49356 0.20601 0.01711 0.0
H431 H 0.48657 0.23386 0.97931 0.0
H432 H 0.49209 0.32483 0.98993 0.0
H433 H 0.49415 0.29416 0.9633 0.0
C434 C 0.30513 0.51146 0.47176 0.0
C435 C 0.31352 0.52 0.43497 0.0
C436 C 0.28781 0.51597 0.48409 0.0
C437 C 0.25392 0.5337 0.51637 0.0
H438 H 0.21904 0.53296 0.41916 0.0
C439 C 0.17895 0.53596 0.55507 0.0
C440 C 0.1696 0.52195 0.53447 0.0
C441 C 0.19608 0.54031 0.54024 0.0
C442 C 0.22864 0.53337 0.44663 0.0
H443 H 0.3105 0.54021 0.38274 0.0
H444 H 0.27999 0.54795 0.40404 0.0
H445 H 0.25063 0.53193 0.40038 0.0
H446 H 0.17035 0.50223 0.48052 0.0
H447 H 0.20008 0.50983 0.45466 0.0
H448 H 0.23196 0.53428 0.5627 0.0
C449 C 0.2869 0.53779 0.42331 0.0
C450 C 0.24672 0.53291 0.43587 0.0
C451 C 0.30435 0.5334 0.41125 0.0
C452 C 0.17726 0.51305 0.49722 0.0
C453 C 0.19426 0.5175 0.48215 0.0
C454 C 0.23586 0.53427 0.52711 0.0
C455 C 0.27843 0.52902 0.4597 0.0
C456 C 0.25952 0.53249 0.47071 0.0
C457 C 0.20404 0.53087 0.50422 0.0
C458 C 0.22302 0.53353 0.4924 0.0
H459 H 0.31185 0.5011 0.49076 0.0
H460 H 0.28156 0.50879 0.51185 0.0
H461 H 0.26351 0.5336 0.54389 0.0
H462 H 0.17335 0.54307 0.58382 0.0
H463 H 0.20327 0.55077 0.55766 0.0
C464 C 0.03167 0.59931 0.96551 0.0
C465 C 0.01622 0.59039 0.97994 0.0
C466 C 0.04198 0.59246 0.92962 0.0
C467 C 0.03855 0.56188 0.83125 0.0
H468 H 0.08966 0.55696 0.84095 0.0
C469 C 0.07609 0.51179 0.72266 0.0
C470 C 0.09112 0.51779 0.69868 0.0
C471 C 0.06844 0.52222 0.7567 0.0
C472 C 0.07542 0.55846 0.83762 0.0
H473 H -0.00031 0.56715 0.96796 0.0
H474 H 0.01752 0.55538 0.90657 0.0
H475 H 0.07319 0.57314 0.90024 0.0
H476 H 0.11043 0.53914 0.6936 0.0
H477 H 0.09696 0.55736 0.7537 0.0
H478 H 0.04058 0.54683 0.76968 0.0
C479 C 0.02158 0.56778 0.9222 0.0
C480 C 0.06601 0.56775 0.87139 0.0
C481 C 0.01138 0.57453 0.95777 0.0
C482 C 0.09879 0.53416 0.71116 0.0
C483 C 0.09114 0.54458 0.74562 0.0
C484 C 0.04787 0.55258 0.79789 0.0
C485 C 0.03693 0.57667 0.90743 0.0
C486 C 0.04741 0.56911 0.86911 0.0
C487 C 0.07563 0.53887 0.76788 0.0
C488 C 0.06632 0.55036 0.8013 0.0
H489 H 0.03583 0.61151 0.98193 0.0
H490 H 0.05374 0.59961 0.91889 0.0
H491 H 0.02428 0.56308 0.82792 0.0
H492 H 0.06991 0.49919 0.7145 0.0
H493 H 0.05668 0.51733 0.77398 0.0
C494 C 0.97568 0.09231 0.24746 0.0
C495 C 0.96924 0.10241 0.21067 0.0
C496 C 0.96437 0.08735 0.28306 0.0
C497 C 0.91918 0.07483 0.30208 0.0
H498 H 0.93102 0.07724 0.43077 0.0
C499 C 0.89061 0.04823 0.48642 0.0
C500 C 0.89237 0.02982 0.47962 0.0
C501 C 0.8969 0.06018 0.45349 0.0
C502 C 0.92741 0.07674 0.39501 0.0
H503 H 0.94605 0.11572 0.18302 0.0
H504 H 0.92616 0.10652 0.24477 0.0
H505 H 0.94919 0.09339 0.37495 0.0
H506 H 0.90094 0.0094 0.43238 0.0
H507 H 0.91125 0.03027 0.37413 0.0
H508 H 0.89815 0.0572 0.32184 0.0
C509 C 0.94001 0.10268 0.24613 0.0
C510 C 0.93783 0.08585 0.36318 0.0
C511 C 0.9514 0.10795 0.21096 0.0
C512 C 0.89946 0.02354 0.43836 0.0
C513 C 0.90529 0.03545 0.40506 0.0
C514 C 0.90899 0.06543 0.3338 0.0
C515 C 0.94635 0.09213 0.28212 0.0
C516 C 0.934 0.08468 0.31639 0.0
C517 C 0.90451 0.05384 0.41287 0.0
C518 C 0.91324 0.06604 0.38039 0.0
H519 H 0.98938 0.08795 0.24828 0.0
H520 H 0.96952 0.07909 0.31031 0.0
H521 H 0.91606 0.07362 0.26613 0.0
H522 H 0.88532 0.05337 0.51818 0.0
H523 H 0.89622 0.07433 0.46016 0.0
C524 C 0.45008 0.88929 0.96537 0.0
C525 C 0.46773 0.8951 0.97009 0.0
C526 C 0.4397 0.89526 0.9287 0.0
C527 C 0.44318 0.91678 0.81505 0.0
H528 H 0.39777 0.93832 0.84419 0.0
C529 C 0.41451 0.97315 0.70871 0.0
C530 C 0.39685 0.97163 0.69373 0.0
C531 C 0.42124 0.96149 0.74136 0.0
C532 C 0.41029 0.93212 0.83546 0.0
H533 H 0.48857 0.91093 0.93898 0.0
H534 H 0.47067 0.92119 0.8757 0.0
H535 H 0.41326 0.92055 0.90196 0.0
H536 H 0.37219 0.95714 0.70312 0.0
H537 H 0.38403 0.93688 0.76117 0.0
H538 H 0.44068 0.92901 0.74946 0.0
C539 C 0.46476 0.91206 0.89994 0.0
C540 C 0.41912 0.92189 0.86837 0.0
C541 C 0.475 0.90628 0.93652 0.0
C542 C 0.38588 0.95861 0.71371 0.0
C543 C 0.39261 0.94704 0.74695 0.0
C544 C 0.43447 0.92706 0.78246 0.0
C545 C 0.44693 0.90686 0.89589 0.0
C546 C 0.43594 0.91464 0.85893 0.0
C547 C 0.41047 0.94814 0.76021 0.0
C548 C 0.41824 0.9353 0.79283 0.0
H549 H 0.44412 0.88071 0.99082 0.0
H550 H 0.42601 0.89099 0.92629 0.0
H551 H 0.45595 0.91105 0.80646 0.0
H552 H 0.42335 0.98303 0.69428 0.0
H553 H 0.43499 0.96281 0.75165 0.0
C554 C 0.52052 0.4037 0.25463 0.0
C555 C 0.52572 0.3929 0.21785 0.0
C556 C 0.53233 0.40726 0.29017 0.0
C557 C 0.55895 0.40663 0.36966 0.0
H558 H 0.60154 0.43002 0.3254 0.0
C559 C 0.60803 0.44273 0.48963 0.0
C560 C 0.6079 0.46098 0.47934 0.0
C561 C 0.60141 0.43043 0.4581 0.0
C562 C 0.58989 0.4232 0.33824 0.0
H563 H 0.54714 0.3768 0.19041 0.0
H564 H 0.56793 0.3835 0.25206 0.0
H565 H 0.58202 0.41467 0.27154 0.0
H566 H 0.60205 0.48064 0.42745 0.0
H567 H 0.59119 0.4591 0.37173 0.0
H568 H 0.56651 0.41576 0.43615 0.0
C569 C 0.55465 0.389 0.25344 0.0
C570 C 0.57877 0.4144 0.30757 0.0
C571 C 0.54272 0.38515 0.21831 0.0
C572 C 0.60229 0.46662 0.43606 0.0
C573 C 0.59614 0.45432 0.40421 0.0
C574 C 0.57026 0.41514 0.40047 0.0
C575 C 0.54965 0.40035 0.28922 0.0
C576 C 0.5629 0.40659 0.32281 0.0
C577 C 0.59511 0.43621 0.4155 0.0
C578 C 0.58549 0.42401 0.38474 0.0
H579 H 0.50748 0.40977 0.25534 0.0
H580 H 0.52822 0.41618 0.31723 0.0
H581 H 0.5468 0.40066 0.38217 0.0
H582 H 0.61214 0.43812 0.52302 0.0
H583 H 0.60067 0.41651 0.46748 0.0
C584 C 0.07601 0.97928 0.26083 0.0
C585 C 0.09265 0.97643 0.28116 0.0
C586 C 0.07098 0.96974 0.22216 0.0
C587 C 0.08074 0.92862 0.1577 0.0
H588 H 0.05143 0.95187 0.06692 0.0
C589 C 0.04183 0.91561 0.97474 0.0
C590 C 0.03429 0.89894 0.98392 0.0
C591 C 0.05231 0.92407 0.00728 0.0
C592 C 0.05987 0.94515 0.09134 0.0
H593 H 0.11725 0.9615 0.27596 0.0
H594 H 0.10857 0.9451 0.20768 0.0
H595 H 0.06353 0.96909 0.12921 0.0
H596 H 0.03241 0.87754 0.03302 0.0
H597 H 0.05012 0.89268 0.09127 0.0
H598 H 0.0773 0.9047 0.11901 0.0
C599 C 0.09928 0.9545 0.22232 0.0
C600 C 0.06658 0.95502 0.12764 0.0
C601 C 0.10429 0.96399 0.2613 0.0
C602 C 0.03816 0.89039 0.02527 0.0
C603 C 0.04835 0.89907 0.05846 0.0
C604 C 0.07413 0.91872 0.12099 0.0
C605 C 0.08252 0.9572 0.20244 0.0
C606 C 0.0768 0.94685 0.16179 0.0
C607 C 0.05506 0.91629 0.05036 0.0
C608 C 0.06341 0.92683 0.08765 0.0
H609 H 0.06664 0.98865 0.27528 0.0
H610 H 0.05784 0.97195 0.20833 0.0
H611 H 0.08848 0.92186 0.18356 0.0
H612 H 0.03922 0.92233 0.9427 0.0
H613 H 0.05773 0.93703 -0.00085 0.0
C614 C 0.5092 0.08786 0.74768 0.0
C615 C 0.51722 0.09726 0.78348 0.0
C616 C 0.51938 0.08155 0.71131 0.0
C617 C 0.56459 0.08274 0.65809 0.0
H618 H 0.55082 0.03548 0.6193 0.0
C619 C 0.59876 0.04411 0.50956 0.0
C620 C 0.59893 0.02548 0.51269 0.0
C621 C 0.59028 0.05427 0.54321 0.0
C622 C 0.55506 0.04857 0.63012 0.0
H623 H 0.54199 0.10817 0.80842 0.0
H624 H 0.55994 0.0965 0.74597 0.0
H625 H 0.53278 0.05106 0.67433 0.0
H626 H 0.59191 0.00291 0.5549 0.0
H627 H 0.57803 0.02054 0.61461 0.0
H628 H 0.58743 0.0797 0.61505 0.0
C629 C 0.54574 0.09434 0.74521 0.0
C630 C 0.54444 0.05772 0.6611 0.0
C631 C 0.53547 0.10097 0.78118 0.0
C632 C 0.59174 0.01726 0.55148 0.0
C633 C 0.58363 0.02738 0.58541 0.0
C634 C 0.57539 0.07344 0.62729 0.0
C635 C 0.53789 0.08411 0.71044 0.0
C636 C 0.54902 0.07493 0.67563 0.0
C637 C 0.58208 0.04593 0.58077 0.0
C638 C 0.57082 0.05616 0.61327 0.0
H639 H 0.49509 0.08508 0.74821 0.0
H640 H 0.51275 0.07425 0.68444 0.0
H641 H 0.56845 0.09604 0.66812 0.0
H642 H 0.60414 0.05073 0.47974 0.0
H643 H 0.58933 0.06852 0.53846 0.0
C644 C 0.39026 0.53541 0.27951 0.0
C645 C 0.40002 0.52165 0.30033 0.0
C646 C 0.39796 0.54598 0.24545 0.0
C647 C 0.44179 0.56023 0.20307 0.0
H648 H 0.41728 0.5713 0.09025 0.0
C649 C 0.47879 0.58085 0.04143 0.0
C650 C 0.47167 0.59416 0.01312 0.0
C651 C 0.46925 0.57449 0.07877 0.0
C652 C 0.42417 0.5686 0.12193 0.0
H653 H 0.42543 0.50798 0.30055 0.0
H654 H 0.4387 0.52626 0.24132 0.0
H655 H 0.40177 0.55495 0.15058 0.0
H656 H 0.44898 0.61143 0.00243 0.0
H657 H 0.43218 0.60014 0.0681 0.0
H658 H 0.46428 0.57349 0.17432 0.0
C659 C 0.42519 0.52908 0.25182 0.0
C660 C 0.41531 0.5592 0.1564 0.0
C661 C 0.41751 0.5185 0.28561 0.0
C662 C 0.45485 0.6012 0.02363 0.0
C663 C 0.44519 0.59468 0.06099 0.0
C664 C 0.45061 0.5696 0.16877 0.0
C665 C 0.4156 0.54307 0.23173 0.0
C666 C 0.42421 0.55453 0.19685 0.0
C667 C 0.4523 0.58119 0.08882 0.0
C668 C 0.44206 0.57348 0.12736 0.0
H669 H 0.37674 0.5382 0.2899 0.0
H670 H 0.39025 0.55668 0.23062 0.0
H671 H 0.44887 0.55721 0.23431 0.0
H672 H 0.49172 0.57515 0.03454 0.0
H673 H 0.47501 0.56393 0.09911 0.0
C674 C 0.96625 0.39448 0.7739 0.0
C675 C 0.98297 0.40155 0.78519 0.0
C676 C 0.9569 0.40089 0.73605 0.0
C677 C 0.95395 0.44151 0.66682 0.0
H678 H 0.92544 0.41313 0.58423 0.0
C679 C 0.92575 0.47151 0.50431 0.0
C680 C 0.90776 0.46846 0.49418 0.0
C681 C 0.93429 0.4618 0.5382 0.0
C682 C 0.93321 0.42119 0.60739 0.0
H683 H 0.00354 0.41992 0.76356 0.0
H684 H 0.98743 0.43082 0.69737 0.0
H685 H 0.94222 0.39852 0.64548 0.0
H686 H 0.88485 0.45219 0.51076 0.0
H687 H 0.89995 0.43516 0.57079 0.0
H688 H 0.94511 0.46412 0.62909 0.0
C689 C 0.98129 0.42071 0.71848 0.0
C690 C 0.94283 0.41286 0.64234 0.0
C691 C 0.99056 0.4144 0.75633 0.0
C692 C 0.89869 0.45494 0.51788 0.0
C693 C 0.90732 0.44515 0.55207 0.0
C694 C 0.94443 0.44977 0.63208 0.0
C695 C 0.96413 0.41444 0.7087 0.0
C696 C 0.95351 0.42295 0.672 0.0
C697 C 0.92512 0.44877 0.56309 0.0
C698 C 0.93417 0.43972 0.60156 0.0
H699 H 0.96003 0.38454 0.79538 0.0
H700 H 0.94369 0.39582 0.72947 0.0
H701 H 0.96161 0.44973 0.68987 0.0
H702 H 0.93331 0.48158 0.48636 0.0
H703 H 0.94813 0.46462 0.54522 0.0
C704 C 0.95301 0.39473 0.01623 0.0
C705 C 0.96575 0.40586 -0.00425 0.0
C706 C 0.94033 0.40181 0.04625 0.0
C707 C 0.91969 0.44455 0.08139 0.0
H708 H 0.91575 0.42281 0.20096 0.0
C709 C 0.90492 0.48426 0.24341 0.0
C710 C 0.89428 0.47672 0.27775 0.0
C711 C 0.90932 0.4745 0.2045 0.0
C712 C 0.91638 0.42887 0.16745 0.0
H713 H 0.97471 0.43324 0.98972 0.0
H714 H 0.95291 0.44536 0.04164 0.0
H715 H 0.93127 0.40709 0.13991 0.0
H716 H 0.87938 0.4532 0.29729 0.0
H717 H 0.88727 0.4361 0.22933 0.0
H718 H 0.90556 0.46669 0.10948 0.0
C719 C 0.95255 0.43123 0.03449 0.0
C720 C 0.92526 0.41985 0.13247 0.0
C721 C 0.96523 0.4242 0.00506 0.0
C722 C 0.88766 0.45939 0.27155 0.0
C723 C 0.89221 0.44956 0.23275 0.0
C724 C 0.91089 0.45357 0.11632 0.0
C725 C 0.94002 0.42016 0.05568 0.0
C726 C 0.92759 0.4279 0.0896 0.0
C727 C 0.90328 0.45694 0.19912 0.0
C728 C 0.90971 0.44611 0.16016 0.0
H729 H 0.95302 0.38056 0.00966 0.0
H730 H 0.9308 0.39297 0.0621 0.0
H731 H 0.92096 0.45093 0.04838 0.0
H732 H 0.91016 0.4976 0.24693 0.0
H733 H 0.91805 0.48049 0.17943 0.0
C734 C 0.01323 0.89937 0.73824 0.0
C735 C 0.02076 0.88867 0.77242 0.0
C736 C 0.02288 0.90367 0.69914 0.0
C737 C 0.0683 0.91077 0.66187 0.0
H738 H 0.0458 0.91666 0.54387 0.0
C739 C 0.10119 0.94905 0.51097 0.0
C740 C 0.08992 0.96209 0.49231 0.0
C741 C 0.09444 0.93615 0.54088 0.0
C742 C 0.05231 0.915 0.57655 0.0
H743 H 0.0441 0.87345 0.79148 0.0
H744 H 0.06108 0.88119 0.72301 0.0
H745 H 0.03045 0.90031 0.60405 0.0
H746 H 0.06266 0.97153 0.48992 0.0
H747 H 0.05109 0.94926 0.54161 0.0
H748 H 0.08981 0.9262 0.63489 0.0
C749 C 0.04769 0.88624 0.72674 0.0
C750 C 0.04353 0.90565 0.61095 0.0
C751 C 0.03793 0.88176 0.76578 0.0
C752 C 0.07179 0.96179 0.50373 0.0
C753 C 0.06507 0.94887 0.53303 0.0
C754 C 0.0771 0.92015 0.62737 0.0
C755 C 0.04034 0.89746 0.69337 0.0
C756 C 0.05112 0.90405 0.65451 0.0
C757 C 0.07628 0.93592 0.55198 0.0
C758 C 0.06885 0.92296 0.58501 0.0
H759 H -1e-05 0.90479 0.74214 0.0
H760 H 0.01692 0.91252 0.67433 0.0
H761 H 0.07445 0.90983 0.69519 0.0
H762 H 0.11522 0.94891 0.50281 0.0
H763 H 0.10337 0.92632 0.55513 0.0
C764 C 0.60553 0.034 0.26684 0.0
C765 C 0.59325 0.02468 0.29402 0.0
C766 C 0.5997 0.04469 0.2307 0.0
C767 C 0.56133 0.06996 0.19015 0.0
H768 H 0.57896 0.06099 0.06789 0.0
C769 C 0.53258 0.07707 0.00082 0.0
C770 C 0.52758 0.09505 -0.00142 0.0
C771 C 0.54374 0.07102 0.03542 0.0
C772 C 0.5741 0.06379 0.10196 0.0
H773 H 0.56524 0.01946 0.30494 0.0
H774 H 0.55511 0.03834 0.24248 0.0
H775 H 0.5923 0.04548 0.13297 0.0
H776 H 0.53072 0.12093 0.03002 0.0
H777 H 0.54991 0.11013 0.09196 0.0
H778 H 0.54282 0.0879 0.15909 0.0
C779 C 0.56923 0.03731 0.24906 0.0
C780 C 0.58175 0.05498 0.1391 0.0
C781 C 0.57505 0.02639 0.28455 0.0
C782 C 0.53437 0.107 0.031 0.0
C783 C 0.54529 0.10084 0.06637 0.0
C784 C 0.55388 0.07898 0.15312 0.0
C785 C 0.58148 0.04654 0.22177 0.0
C786 C 0.57508 0.05762 0.18335 0.0
C787 C 0.54992 0.08275 0.06904 0.0
C788 C 0.55986 0.0756 0.10857 0.0
H789 H 0.61965 0.03291 0.27321 0.0
H790 H 0.60939 0.05167 0.21004 0.0
H791 H 0.55605 0.0723 0.22403 0.0
H792 H 0.52768 0.06759 0.97603 0.0
H793 H 0.54695 0.05699 0.03692 0.0
C794 C 0.38867 0.54359 0.51375 0.0
C795 C 0.38624 0.52517 0.51843 0.0
C796 C 0.3965 0.55338 0.54909 0.0
C797 C 0.42708 0.54499 0.64488 0.0
H798 H 0.41945 0.59474 0.67332 0.0
C799 C 0.4769 0.58219 0.75563 0.0
C800 C 0.47014 0.59346 0.78965 0.0
C801 C 0.46589 0.57578 0.72114 0.0
C802 C 0.42165 0.5808 0.66598 0.0
H803 H 0.38831 0.50281 0.56462 0.0
H804 H 0.40098 0.51993 0.62704 0.0
H805 H 0.3997 0.57971 0.61943 0.0
H806 H 0.44667 0.60747 0.81305 0.0
H807 H 0.42725 0.5958 0.75347 0.0
H808 H 0.44859 0.54575 0.69195 0.0
C809 C 0.39768 0.52678 0.59565 0.0
C810 C 0.41043 0.57223 0.63482 0.0
C811 C 0.39025 0.51699 0.56013 0.0
C812 C 0.45226 0.59878 0.78732 0.0
C813 C 0.44115 0.59215 0.75304 0.0
C814 C 0.43815 0.55346 0.67603 0.0
C815 C 0.40175 0.54489 0.58978 0.0
C816 C 0.41302 0.55419 0.62396 0.0
C817 C 0.44776 0.58023 0.72018 0.0
C818 C 0.43571 0.5715 0.68679 0.0
H819 H 0.38577 0.55014 0.48167 0.0
H820 H 0.39944 0.56729 0.54334 0.0
H821 H 0.4298 0.53122 0.63671 0.0
H822 H 0.4907 0.57812 0.75596 0.0
H823 H 0.47157 0.56705 0.69562 0.0
C824 C 0.92078 0.02613 0.70467 0.0
C825 C 0.90261 0.02387 0.69553 0.0
C826 C 0.92634 0.03692 0.7407 0.0
C827 C 0.91277 0.05392 0.85135 0.0
H828 H 0.95107 0.08771 0.83335 0.0
C829 C 0.95879 0.0784 0.99381 0.0
C830 C 0.96334 0.09651 -0.00463 0.0
C831 C 0.94851 0.07175 0.95821 0.0
C832 C 0.94019 0.07852 0.83873 0.0
H833 H 0.87601 0.03095 0.7176 0.0
H834 H 0.8858 0.0495 0.78128 0.0
H835 H 0.93901 0.07155 0.76789 0.0
H836 H 0.9603 0.12198 0.96163 0.0
H837 H 0.94261 0.11013 0.89812 0.0
H838 H 0.91445 0.06037 0.92246 0.0
C839 C 0.89569 0.04304 0.76014 0.0
C840 C 0.93343 0.06917 0.80143 0.0
C841 C 0.89012 0.03245 0.72365 0.0
C842 C 0.95697 0.10797 0.96122 0.0
C843 C 0.94693 0.10121 0.92493 0.0
C844 C 0.9197 0.06309 0.88874 0.0
C845 C 0.91385 0.04547 0.76876 0.0
C846 C 0.91988 0.05655 0.80753 0.0
C847 C 0.94277 0.08299 0.92297 0.0
C848 C 0.93369 0.07524 0.88287 0.0
H849 H 0.93075 0.01977 0.6836 0.0
H850 H 0.94043 0.0384 0.74701 0.0
H851 H 0.90236 0.04423 0.85699 0.0
H852 H 0.96338 0.06928 0.0199 0.0
H853 H 0.94564 0.05763 0.95733 0.0
C854 C 0.41126 0.95892 0.48128 0.0
C855 C 0.39321 0.96349 0.48413 0.0
C856 C 0.41736 0.94782 0.44665 0.0
C857 C 0.40937 0.93766 0.32945 0.0
H858 H 0.44408 0.90025 0.34889 0.0
C859 C 0.4636 0.91966 0.19964 0.0
C860 C 0.46639 0.90159 0.18976 0.0
C861 C 0.45202 0.92471 0.23453 0.0
C862 C 0.43423 0.91049 0.34292 0.0
H863 H 0.36727 0.95966 0.45392 0.0
H864 H 0.37816 0.94056 0.39167 0.0
H865 H 0.4279 0.91266 0.41408 0.0
H866 H 0.45936 0.87464 0.20911 0.0
H867 H 0.43945 0.88356 0.27119 0.0
H868 H 0.41641 0.93619 0.25865 0.0
C869 C 0.38746 0.94546 0.41689 0.0
C870 C 0.42503 0.9176 0.38013 0.0
C871 C 0.38124 0.95631 0.45238 0.0
C872 C 0.45745 0.88867 0.21583 0.0
C873 C 0.44609 0.89374 0.25134 0.0
C874 C 0.41877 0.93074 0.29235 0.0
C875 C 0.40561 0.94127 0.41358 0.0
C876 C 0.41284 0.93153 0.37383 0.0
C877 C 0.4432 0.91182 0.26076 0.0
C878 C 0.43158 0.91741 0.29892 0.0
H879 H 0.42074 0.96414 0.5056 0.0
H880 H 0.43144 0.94496 0.44461 0.0
H881 H 0.40016 0.9485 0.32376 0.0
H882 H 0.47021 0.92995 0.18009 0.0
H883 H 0.4502 0.93874 0.24154 0.0
C884 C 0.53854 0.39239 0.96625 0.0
C885 C 0.53451 0.40269 0.00484 0.0
C886 C 0.54801 0.39989 0.92976 0.0
C887 C 0.57325 0.41804 0.86163 0.0
H888 H 0.55879 0.46654 0.83589 0.0
C889 C 0.60562 0.46106 0.71964 0.0
C890 C 0.59426 0.47207 0.69401 0.0
C891 C 0.59929 0.45192 0.75792 0.0
C892 C 0.56289 0.45295 0.84229 0.0
H893 H 0.53857 0.42816 0.03771 0.0
H894 H 0.55556 0.44096 0.97529 0.0
H895 H 0.5468 0.45134 0.90202 0.0
H896 H 0.56725 0.48186 0.68836 0.0
H897 H 0.5562 0.46579 0.75453 0.0
H898 H 0.58892 0.4196 0.80063 0.0
C899 C 0.55086 0.42741 0.97202 0.0
C900 C 0.55621 0.4443 0.88071 0.0
C901 C 0.54123 0.42005 0.00793 0.0
C902 C 0.57642 0.47363 0.70744 0.0
C903 C 0.57009 0.46445 0.74556 0.0
C904 C 0.57992 0.42672 0.82293 0.0
C905 C 0.55373 0.41771 0.93172 0.0
C906 C 0.56132 0.42676 0.89098 0.0
C907 C 0.58146 0.45356 0.77141 0.0
C908 C 0.57473 0.44427 0.81275 0.0
H909 H 0.53346 0.37897 0.96309 0.0
H910 H 0.54998 0.39206 0.89918 0.0
H911 H 0.5775 0.40456 0.86867 0.0
H912 H 0.61946 0.45955 0.71036 0.0
H913 H 0.60845 0.44382 0.77739 0.0
C914 C 0.07563 0.51289 0.45608 0.0
C915 C 0.09065 0.51949 0.47895 0.0
C916 C 0.06793 0.5224 0.42048 0.0
C917 C 0.06319 0.56709 0.37176 0.0
H918 H 0.04514 0.54045 0.26844 0.0
C919 C 0.02765 0.59819 0.21272 0.0
C920 C 0.01225 0.58914 0.19856 0.0
C921 C 0.03846 0.5911 0.24713 0.0
C922 C 0.05004 0.54807 0.29715 0.0
H923 H 0.10935 0.5414 0.48192 0.0
H924 H 0.09582 0.55807 0.41896 0.0
H925 H 0.06265 0.52533 0.32634 0.0
H926 H 0.99574 0.56597 0.21124 0.0
H927 H 0.01452 0.55373 0.27074 0.0
H928 H 0.05035 0.58985 0.34217 0.0
C929 C 0.09003 0.54549 0.42915 0.0
C930 C 0.06008 0.53941 0.33032 0.0
C931 C 0.09782 0.5359 0.46499 0.0
C932 C 0.00757 0.57324 0.22078 0.0
C933 C 0.01839 0.56614 0.2548 0.0
C934 C 0.05317 0.57581 0.33823 0.0
C935 C 0.07501 0.53878 0.40647 0.0
C936 C 0.06637 0.54869 0.36865 0.0
C937 C 0.03412 0.57479 0.2677 0.0
C938 C 0.04612 0.56625 0.30125 0.0
H939 H 0.06963 0.50036 0.46584 0.0
H940 H 0.05617 0.517 0.40439 0.0
H941 H 0.06779 0.57457 0.401 0.0
H942 H 0.03161 0.61051 0.19653 0.0
H943 H 0.05051 0.59804 0.25652 0.0
C944 C 0.86453 0.53503 0.30698 0.0
C945 C 0.86659 0.53383 0.35443 0.0
C946 C 0.87096 0.54993 0.28347 0.0
C947 C 0.90615 0.5833 0.29897 0.0
H948 H 0.89026 0.59982 0.18054 0.0
C949 C 0.95084 0.62789 0.18965 0.0
C950 C 0.95351 0.62104 0.14561 0.0
C951 C 0.93663 0.62186 0.21633 0.0
C952 C 0.89479 0.59541 0.21376 0.0
H953 H 0.87525 0.54766 0.41517 0.0
H954 H 0.88556 0.57401 0.37473 0.0
H955 H 0.87093 0.58067 0.22626 0.0
H956 H 0.9428 0.60353 0.09372 0.0
H957 H 0.9182 0.59298 0.14013 0.0
H958 H 0.93019 0.59746 0.28601 0.0
C959 C 0.87972 0.56329 0.3552 0.0
C960 C 0.88376 0.5844 0.23986 0.0
C961 C 0.87368 0.54828 0.37845 0.0
C962 C 0.94114 0.60895 0.12771 0.0
C963 C 0.92693 0.60303 0.15417 0.0
C964 C 0.91708 0.59436 0.27309 0.0
C965 C 0.87929 0.56392 0.30724 0.0
C966 C 0.88952 0.57781 0.28227 0.0
C967 C 0.92481 0.609 0.19925 0.0
C968 C 0.91177 0.60011 0.22964 0.0
H969 H 0.85925 0.52393 0.28777 0.0
H970 H 0.8705 0.54986 0.24655 0.0
H971 H 0.91127 0.57826 0.33097 0.0
H972 H 0.96013 0.63728 0.20422 0.0
H973 H 0.93523 0.62682 0.25084 0.0
C974 C 0.87323 0.95811 0.68927 0.0
C975 C 0.8761 0.96116 0.64261 0.0
C976 C 0.88134 0.94368 0.71108 0.0
C977 C 0.91997 0.91361 0.69621 0.0
H978 H 0.90083 0.89121 0.80485 0.0
C979 C 0.96074 0.86288 0.79908 0.0
C980 C 0.96284 0.86819 0.84469 0.0
C981 C 0.94746 0.87055 0.77206 0.0
C982 C 0.90626 0.89727 0.77432 0.0
H983 H 0.88865 0.95098 0.58143 0.0
H984 H 0.9021 0.9254 0.61874 0.0
H985 H 0.88228 0.91158 0.7607 0.0
H986 H 0.95212 0.88465 0.89875 0.0
H987 H 0.92876 0.89773 0.85195 0.0
H988 H 0.94396 0.8994 0.71014 0.0
C989 C 0.89422 0.93445 0.63915 0.0
C990 C 0.89571 0.90905 0.7492 0.0
C991 C 0.88641 0.94904 0.61762 0.0
C992 C 0.95078 0.88036 0.86363 0.0
C993 C 0.93735 0.88777 0.83693 0.0
C994 C 0.93039 0.90166 0.72092 0.0
C995 C 0.89225 0.93184 0.68645 0.0
C996 C 0.90258 0.91772 0.7104 0.0
C997 C 0.93591 0.88337 0.79053 0.0
C998 C 0.9238 0.8937 0.7608 0.0
H999 H 0.86539 0.96732 0.70935 0.0
H1000 H 0.87966 0.9423 0.74761 0.0
H1001 H 0.92592 0.92022 0.66716 0.0
H1002 H 0.96994 0.8536 0.78359 0.0
H1003 H 0.94658 0.8669 0.73638 0.0
C1004 C 0.54446 0.88397 0.11602 0.0
C1005 C 0.53133 0.87504 0.14107 0.0
C1006 C 0.55912 0.89134 0.13795 0.0
C1007 C 0.58267 0.89457 0.24993 0.0
H1008 H 0.5936 0.94193 0.20555 0.0
C1009 C 0.61081 0.95095 0.36052 0.0
C1010 C 0.62272 0.96314 0.34092 0.0
C1011 C 0.60373 0.93713 0.33459 0.0
C1012 C 0.59103 0.92859 0.21787 0.0
H1013 H 0.52347 0.86606 0.2083 0.0
H1014 H 0.54874 0.87964 0.24731 0.0
H1015 H 0.57325 0.92333 0.16309 0.0
H1016 H 0.63733 0.9699 0.27958 0.0
H1017 H 0.62472 0.94576 0.23381 0.0
H1018 H 0.59981 0.90049 0.30632 0.0
C1019 C 0.54802 0.88058 0.21049 0.0
C1020 C 0.57933 0.91785 0.19347 0.0
C1021 C 0.53348 0.87286 0.18827 0.0
C1022 C 0.62814 0.96071 0.29549 0.0
C1023 C 0.62089 0.94696 0.26932 0.0
C1024 C 0.59428 0.90543 0.27464 0.0
C1025 C 0.56077 0.89034 0.18567 0.0
C1026 C 0.57473 0.90082 0.20954 0.0
C1027 C 0.60829 0.9353 0.28836 0.0
C1028 C 0.59829 0.92268 0.25925 0.0
H1029 H 0.54322 0.88559 0.0794 0.0
H1030 H 0.5689 0.89828 0.11752 0.0
H1031 H 0.57968 0.88143 0.26292 0.0
H1032 H 0.60648 0.95244 0.39558 0.0
H1033 H 0.59393 0.92849 0.3501 0.0
C1034 C 0.61078 0.54329 0.60929 0.0
C1035 C 0.62174 0.53217 0.63551 0.0
C1036 C 0.60216 0.55776 0.62925 0.0
C1037 C 0.59935 0.58494 0.73593 0.0
H1038 H 0.55006 0.5897 0.69981 0.0
C1039 C 0.54389 0.61045 0.85316 0.0
C1040 C 0.53037 0.62109 0.83472 0.0
C1041 C 0.55736 0.60378 0.82534 0.0
C1042 C 0.56389 0.58883 0.70968 0.0
H1043 H 0.63284 0.5278 0.70273 0.0
H1044 H 0.61731 0.55268 0.73818 0.0
H1045 H 0.56948 0.56989 0.65748 0.0
H1046 H 0.52061 0.6337 0.77315 0.0
H1047 H 0.54411 0.62167 0.72397 0.0
H1048 H 0.59327 0.60317 0.78997 0.0
C1049 C 0.61567 0.55055 0.7019 0.0
C1050 C 0.57509 0.57746 0.68537 0.0
C1051 C 0.62452 0.53621 0.68169 0.0
C1052 C 0.53093 0.62556 0.78821 0.0
C1053 C 0.5443 0.61864 0.76011 0.0
C1054 C 0.58808 0.59617 0.76057 0.0
C1055 C 0.60405 0.56128 0.67613 0.0
C1056 C 0.59287 0.57505 0.69876 0.0
C1057 C 0.55745 0.60741 0.77833 0.0
C1058 C 0.57014 0.59792 0.74826 0.0
H1059 H 0.60857 0.54059 0.57342 0.0
H1060 H 0.59369 0.56595 0.60807 0.0
H1061 H 0.61305 0.58371 0.74667 0.0
H1062 H 0.54379 0.60684 0.88897 0.0
H1063 H 0.56719 0.59502 0.84026 0.0
C1064 C 0.13169 0.46167 0.69622 0.0
C1065 C 0.12616 0.46197 0.65049 0.0
C1066 C 0.12584 0.44817 0.72551 0.0
C1067 C 0.10311 0.40431 0.73011 0.0
H1068 H 0.07948 0.42437 0.83571 0.0
C1069 C 0.04282 0.37143 0.81719 0.0
C1070 C 0.03944 0.37517 0.86327 0.0
C1071 C 0.05757 0.37892 0.79535 0.0
C1072 C 0.08634 0.41833 0.80717 0.0
H1073 H 0.11135 0.4478 0.59858 0.0
H1074 H 0.10125 0.42428 0.64942 0.0
H1075 H 0.09885 0.44293 0.79002 0.0
H1076 H 0.04945 0.38828 0.92377 0.0
H1077 H 0.07556 0.40066 0.88645 0.0
H1078 H 0.09017 0.37978 0.74667 0.0
C1079 C 0.11006 0.43438 0.66283 0.0
C1080 C 0.09748 0.42904 0.78089 0.0
C1081 C 0.11574 0.44794 0.63378 0.0
C1082 C 0.05168 0.38539 0.888 0.0
C1083 C 0.06656 0.39258 0.86649 0.0
C1084 C 0.09206 0.3935 0.75671 0.0
C1085 C 0.11455 0.43467 0.70933 0.0
C1086 C 0.10557 0.42231 0.74135 0.0
C1087 C 0.06932 0.39006 0.81945 0.0
C1088 C 0.08313 0.40052 0.79486 0.0
H1089 H 0.13973 0.47233 0.70997 0.0
H1090 H 0.12959 0.44863 0.76116 0.0
H1091 H 0.10932 0.39873 0.69999 0.0
H1092 H 0.03351 0.36367 0.79733 0.0
H1093 H 0.05913 0.3768 0.75902 0.0
C1094 C 0.04524 0.11674 0.12451 0.0
C1095 C 0.03139 0.12511 0.14818 0.0
C1096 C 0.05948 0.10931 0.14812 0.0
C1097 C 0.07993 0.10414 0.26394 0.0
H1098 H 0.09289 0.05796 0.21534 0.0
C1099 C 0.10653 0.04551 0.37072 0.0
C1100 C 0.11936 0.03426 0.35126 0.0
C1101 C 0.09967 0.05981 0.34598 0.0
C1102 C 0.08973 0.07097 0.22897 0.0
H1103 H 0.02174 0.13301 0.21471 0.0
H1104 H 0.04623 0.11925 0.25656 0.0
H1105 H 0.07344 0.07717 0.17182 0.0
H1106 H 0.1358 0.02969 0.29167 0.0
H1107 H 0.12361 0.05462 0.24804 0.0
H1108 H 0.09552 0.09718 0.32258 0.0
C1109 C 0.04647 0.11887 0.21963 0.0
C1110 C 0.07857 0.08208 0.20393 0.0
C1111 C 0.03239 0.12672 0.19577 0.0
C1112 C 0.1259 0.03813 0.30748 0.0
C1113 C 0.11889 0.05234 0.28249 0.0
C1114 C 0.09097 0.09288 0.28931 0.0
C1115 C 0.05992 0.10958 0.19612 0.0
C1116 C 0.07328 0.09872 0.22128 0.0
C1117 C 0.10537 0.06303 0.30109 0.0
C1118 C 0.09575 0.07607 0.27231 0.0
H1119 H 0.04481 0.11552 0.08768 0.0
H1120 H 0.06984 0.10278 0.1287 0.0
H1121 H 0.07639 0.11695 0.27811 0.0
H1122 H 0.1013 0.04288 0.40452 0.0
H1123 H 0.08917 0.06771 0.36106 0.0
C1124 C 0.36589 0.03377 0.68739 0.0
C1125 C 0.36776 0.03235 0.6399 0.0
C1126 C 0.374 0.04777 0.71091 0.0
C1127 C 0.38897 0.08127 0.75416 0.0
H1128 H 0.43593 0.09275 0.70844 0.0
C1129 C 0.45475 0.12681 0.80083 0.0
C1130 C 0.45782 0.12074 0.84546 0.0
C1131 C 0.44104 0.11948 0.77474 0.0
C1132 C 0.42271 0.08998 0.72123 0.0
H1133 H 0.37822 0.04502 0.57922 0.0
H1134 H 0.39156 0.0699 0.61968 0.0
H1135 H 0.41681 0.07333 0.66448 0.0
H1136 H 0.44842 0.10308 0.89877 0.0
H1137 H 0.42443 0.09044 0.85343 0.0
H1138 H 0.39555 0.09723 0.81241 0.0
C1139 C 0.38455 0.0599 0.63926 0.0
C1140 C 0.41167 0.07885 0.69595 0.0
C1141 C 0.37678 0.04574 0.61597 0.0
C1142 C 0.44638 0.10796 0.86437 0.0
C1143 C 0.43256 0.10081 0.83854 0.0
C1144 C 0.40015 0.09226 0.77977 0.0
C1145 C 0.38387 0.06076 0.6872 0.0
C1146 C 0.39474 0.0741 0.71233 0.0
C1147 C 0.43004 0.10616 0.79308 0.0
C1148 C 0.41723 0.09649 0.76383 0.0
H1149 H 0.35908 0.02352 0.70662 0.0
H1150 H 0.3733 0.04785 0.74781 0.0
H1151 H 0.37592 0.07817 0.76752 0.0
H1152 H 0.46338 0.13664 0.7854 0.0
H1153 H 0.43931 0.1239 0.73983 0.0
C1154 C 0.45431 0.39376 0.13372 0.0
C1155 C 0.46145 0.37706 0.14476 0.0
C1156 C 0.4393 0.40013 0.15603 0.0
C1157 C 0.41434 0.39512 0.26338 0.0
H1158 H 0.38475 0.43032 0.20373 0.0
C1159 C 0.38335 0.45239 0.36234 0.0
C1160 C 0.36839 0.46145 0.34572 0.0
C1161 C 0.39056 0.43813 0.3383 0.0
C1162 C 0.3925 0.42026 0.22106 0.0
H1163 H 0.45804 0.35359 0.18676 0.0
H1164 H 0.43133 0.3646 0.22546 0.0
H1165 H 0.40427 0.41183 0.15839 0.0
H1166 H 0.34853 0.46194 0.29236 0.0
H1167 H 0.36075 0.43651 0.25089 0.0
H1168 H 0.40225 0.40325 0.32596 0.0
C1169 C 0.43763 0.37292 0.19999 0.0
C1170 C 0.40399 0.40981 0.19498 0.0
C1171 C 0.45288 0.36657 0.17776 0.0
C1172 C 0.36019 0.45532 0.30572 0.0
C1173 C 0.36728 0.4408 0.28186 0.0
C1174 C 0.40256 0.40531 0.2894 0.0
C1175 C 0.43077 0.38991 0.18972 0.0
C1176 C 0.41576 0.39781 0.21603 0.0
C1177 C 0.38285 0.43229 0.29725 0.0
C1178 C 0.39217 0.41869 0.26888 0.0
H1179 H 0.46055 0.40221 0.10842 0.0
H1180 H 0.4348 0.41343 0.14782 0.0
H1181 H 0.42308 0.38596 0.28092 0.0
H1182 H 0.38995 0.45668 0.39322 0.0
H1183 H 0.40271 0.43229 0.35105 0.0
loop_
_geom_bond_atom_site_label_1
_geom_bond_atom_site_label_2
_geom_bond_distance
_geom_bond_site_symmetry_2
_ccdc_geom_bond_type
Co0 O1 2.236 . S
Co0 O2 2.091 . S
Co0 O4 2.004 . S
Co0 O10 2.021 . S
Co0 O12 2.137 1_455 S
Co0 O13 2.244 1_455 S
O1 Co0 2.236 . S
O1 C8 1.266 . S
O2 Co0 2.091 . S
O2 C8 1.261 . S
C3 O12 1.247 . S
C3 O13 1.272 . S
O4 Co0 2.004 . S
O4 C9 1.259 . S
Co5 O6 2.061 . S
Co5 O11 2.052 . S
Co5 O13 2.135 1_455 S
O6 Co5 2.061 . S
O6 C9 1.235 . S
C7 O10 1.238 . S
C7 O11 1.241 . S
C8 O1 1.266 . S
C8 O2 1.261 . S
C9 O4 1.259 . S
C9 O6 1.235 . S
O10 Co0 2.021 . S
O10 C7 1.238 . S
O11 Co5 2.052 . S
O11 C7 1.241 . S
O12 Co0 2.137 1_655 S
O12 C3 1.247 . S
O13 Co0 2.244 1_655 S
O13 C3 1.272 . S
O13 Co5 2.135 1_655 S
Co14 O15 2.235 . S
Co14 O16 2.091 . S
Co14 O18 2.004 . S
Co14 O24 2.021 . S
Co14 O26 2.137 1_545 S
Co14 O27 2.244 1_545 S
O15 Co14 2.235 . S
O15 C22 1.265 . S
O16 Co14 2.091 . S
O16 C22 1.261 . S
C17 O26 1.247 . S
C17 O27 1.272 . S
O18 Co14 2.004 . S
O18 C23 1.259 . S
Co19 O20 2.061 . S
Co19 O25 2.052 . S
Co19 O27 2.135 1_545 S
O20 Co19 2.061 . S
O20 C23 1.235 . S
C21 O24 1.238 . S
C21 O25 1.241 . S
C22 O15 1.265 . S
C22 O16 1.261 . S
C23 O18 1.259 . S
C23 O20 1.235 . S
O24 Co14 2.021 . S
O24 C21 1.238 . S
O25 Co19 2.052 . S
O25 C21 1.241 . S
O26 Co14 2.137 1_565 S
O26 C17 1.247 . S
O27 Co14 2.244 1_565 S
O27 C17 1.272 . S
O27 Co19 2.135 1_565 S
Co28 O29 2.216 . S
Co28 O30 2.091 . S
Co28 O32 2.004 . S
Co28 O38 2.021 . S
Co28 O40 2.137 . S
Co28 O41 2.244 . S
O29 Co28 2.216 . S
O29 C36 1.247 . S
O30 Co28 2.091 . S
O30 C36 1.261 . S
C31 O40 1.247 . S
C31 O41 1.272 . S
O32 Co28 2.004 . S
O32 C37 1.259 . S
Co33 O34 2.061 . S
Co33 O39 2.052 . S
Co33 O41 2.135 . S
O34 Co33 2.061 . S
O34 C37 1.235 . S
C35 O38 1.238 . S
C35 O39 1.241 . S
C36 O29 1.247 . S
C36 O30 1.261 . S
C37 O32 1.259 . S
C37 O34 1.235 . S
O38 Co28 2.021 . S
O38 C35 1.238 . S
O39 Co33 2.052 . S
O39 C35 1.241 . S
O40 Co28 2.137 . S
O40 C31 1.247 . S
O41 Co28 2.244 . S
O41 C31 1.272 . S
O41 Co33 2.135 . S
Co42 O43 2.216 . S
Co42 O44 2.091 . S
Co42 O46 2.004 . S
Co42 O52 2.021 . S
Co42 O54 2.137 . S
Co42 O55 2.244 . S
O43 Co42 2.216 . S
O43 C50 1.247 . S
O44 Co42 2.091 . S
O44 C50 1.261 . S
C45 O54 1.247 . S
C45 O55 1.272 . S
O46 Co42 2.004 . S
O46 C51 1.259 . S
Co47 O48 2.061 . S
Co47 O53 2.052 . S
Co47 O55 2.135 . S
O48 Co47 2.061 . S
O48 C51 1.235 . S
C49 O52 1.238 . S
C49 O53 1.241 . S
C50 O43 1.247 . S
C50 O44 1.261 . S
C51 O46 1.259 . S
C51 O48 1.235 . S
O52 Co42 2.021 . S
O52 C49 1.238 . S
O53 Co47 2.052 . S
O53 C49 1.241 . S
O54 Co42 2.137 . S
O54 C45 1.247 . S
O55 Co42 2.244 . S
O55 C45 1.272 . S
O55 Co47 2.135 . S
Co56 O57 2.235 . S
Co56 O58 2.091 . S
Co56 O60 2.004 . S
Co56 O66 2.021 . S
Co56 O68 2.137 1_455 S
Co56 O69 2.244 1_455 S
O57 Co56 2.235 . S
O57 C64 1.265 . S
O58 Co56 2.091 . S
O58 C64 1.261 . S
C59 O68 1.247 . S
C59 O69 1.272 . S
O60 Co56 2.004 . S
O60 C65 1.259 . S
Co61 O62 2.061 . S
Co61 O67 2.052 . S
Co61 O69 2.135 1_455 S
O62 Co61 2.061 . S
O62 C65 1.235 . S
C63 O66 1.238 . S
C63 O67 1.241 . S
C64 O57 1.265 . S
C64 O58 1.261 . S
C65 O60 1.259 . S
C65 O62 1.235 . S
O66 Co56 2.021 . S
O66 C63 1.238 . S
O67 Co61 2.052 . S
O67 C63 1.241 . S
O68 Co56 2.137 1_655 S
O68 C59 1.247 . S
O69 Co56 2.244 1_655 S
O69 C59 1.272 . S
O69 Co61 2.135 1_655 S
Co70 O71 2.236 . S
Co70 O72 2.091 . S
Co70 O74 2.004 . S
Co70 O80 2.021 . S
Co70 O82 2.137 1_545 S
Co70 O83 2.244 1_545 S
O71 Co70 2.236 . S
O71 C78 1.266 . S
O72 Co70 2.091 . S
O72 C78 1.261 . S
C73 O82 1.247 . S
C73 O83 1.272 . S
O74 Co70 2.004 . S
O74 C79 1.259 . S
Co75 O76 2.061 . S
Co75 O81 2.052 . S
Co75 O83 2.135 1_545 S
O76 Co75 2.061 . S
O76 C79 1.235 . S
C77 O80 1.238 . S
C77 O81 1.241 . S
C78 O71 1.266 . S
C78 O72 1.261 . S
C79 O74 1.259 . S
C79 O76 1.235 . S
O80 Co70 2.021 . S
O80 C77 1.238 . S
O81 Co75 2.052 . S
O81 C77 1.241 . S
O82 Co70 2.137 1_565 S
O82 C73 1.247 . S
O83 Co70 2.244 1_565 S
O83 C73 1.272 . S
O83 Co75 2.135 1_565 S
Co84 O85 2.216 . S
Co84 O86 2.091 . S
Co84 O88 2.004 . S
Co84 O94 2.021 . S
Co84 O96 2.137 . S
Co84 O97 2.244 . S
O85 Co84 2.216 . S
O85 C92 1.247 . S
O86 Co84 2.091 . S
O86 C92 1.261 . S
C87 O96 1.247 . S
C87 O97 1.272 . S
O88 Co84 2.004 . S
O88 C93 1.259 . S
Co89 O90 2.061 . S
Co89 O95 2.052 . S
Co89 O97 2.135 . S
O90 Co89 2.061 . S
O90 C93 1.235 . S
C91 O94 1.238 . S
C91 O95 1.241 . S
C92 O85 1.247 . S
C92 O86 1.261 . S
C93 O88 1.259 . S
C93 O90 1.235 . S
O94 Co84 2.021 . S
O94 C91 1.238 . S
O95 Co89 2.052 . S
O95 C91 1.241 . S
O96 Co84 2.137 . S
O96 C87 1.247 . S
O97 Co84 2.244 . S
O97 C87 1.272 . S
O97 Co89 2.135 . S
Co98 O99 2.216 . S
Co98 O100 2.091 . S
Co98 O102 2.004 . S
Co98 O108 2.021 . S
Co98 O110 2.137 . S
Co98 O111 2.244 . S
O99 Co98 2.216 . S
O99 C106 1.247 . S
O100 Co98 2.091 . S
O100 C106 1.261 . S
C101 O110 1.247 . S
C101 O111 1.272 . S
O102 Co98 2.004 . S
O102 C107 1.259 . S
Co103 O104 2.061 . S
Co103 O109 2.052 . S
Co103 O111 2.135 . S
O104 Co103 2.061 . S
O104 C107 1.235 . S
C105 O108 1.238 . S
C105 O109 1.241 . S
C106 O99 1.247 . S
C106 O100 1.261 . S
C107 O102 1.259 . S
C107 O104 1.235 . S
O108 Co98 2.021 . S
O108 C105 1.238 . S
O109 Co103 2.052 . S
O109 C105 1.241 . S
O110 Co98 2.137 . S
O110 C101 1.247 . S
O111 Co98 2.244 . S
O111 C101 1.272 . S
O111 Co103 2.135 . S
Co112 O113 2.236 . S
Co112 O114 2.091 . S
Co112 O116 2.004 . S
Co112 O122 2.021 . S
Co112 O124 2.137 1_655 S
Co112 O125 2.244 1_655 S
O113 Co112 2.236 . S
O113 C120 1.266 . S
O114 Co112 2.091 . S
O114 C120 1.261 . S
C115 O124 1.247 . S
C115 O125 1.272 . S
O116 Co112 2.004 . S
O116 C121 1.259 . S
Co117 O118 2.061 . S
Co117 O123 2.052 . S
Co117 O125 2.135 1_655 S
O118 Co117 2.061 . S
O118 C121 1.235 . S
C119 O122 1.238 . S
C119 O123 1.241 . S
C120 O113 1.266 . S
C120 O114 1.261 . S
C121 O116 1.259 . S
C121 O118 1.235 . S
O122 Co112 2.021 . S
O122 C119 1.238 . S
O123 Co117 2.052 . S
O123 C119 1.241 . S
O124 Co112 2.137 1_455 S
O124 C115 1.247 . S
O125 Co112 2.244 1_455 S
O125 C115 1.272 . S
O125 Co117 2.135 1_455 S
Co126 O127 2.235 . S
Co126 O128 2.091 . S
Co126 O130 2.004 . S
Co126 O136 2.021 . S
Co126 O138 2.137 1_565 S
Co126 O139 2.244 1_565 S
O127 Co126 2.235 . S
O127 C134 1.265 . S
O128 Co126 2.091 . S
O128 C134 1.261 . S
C129 O138 1.247 . S
C129 O139 1.272 . S
O130 Co126 2.004 . S
O130 C135 1.259 . S
Co131 O132 2.061 . S
Co131 O137 2.052 . S
Co131 O139 2.135 1_565 S
O132 Co131 2.061 . S
O132 C135 1.235 . S
C133 O136 1.238 . S
C133 O137 1.241 . S
C134 O127 1.265 . S
C134 O128 1.261 . S
C135 O130 1.259 . S
C135 O132 1.235 . S
O136 Co126 2.021 . S
O136 C133 1.238 . S
O137 Co131 2.052 . S
O137 C133 1.241 . S
O138 Co126 2.137 1_545 S
O138 C129 1.247 . S
O139 Co126 2.244 1_545 S
O139 C129 1.272 . S
O139 Co131 2.135 1_545 S
Co140 O141 2.216 . S
Co140 O142 2.091 . S
Co140 O144 2.004 . S
Co140 O150 2.021 . S
Co140 O152 2.137 . S
Co140 O153 2.244 . S
O141 Co140 2.216 . S
O141 C148 1.247 . S
O142 Co140 2.091 . S
O142 C148 1.261 . S
C143 O152 1.247 . S
C143 O153 1.272 . S
O144 Co140 2.004 . S
O144 C149 1.259 . S
Co145 O146 2.061 . S
Co145 O151 2.052 . S
Co145 O153 2.135 . S
O146 Co145 2.061 . S
O146 C149 1.235 . S
C147 O150 1.238 . S
C147 O151 1.241 . S
C148 O141 1.247 . S
C148 O142 1.261 . S
C149 O144 1.259 . S
C149 O146 1.235 . S
O150 Co140 2.021 . S
O150 C147 1.238 . S
O151 Co145 2.052 . S
O151 C147 1.241 . S
O152 Co140 2.137 . S
O152 C143 1.247 . S
O153 Co140 2.244 . S
O153 C143 1.272 . S
O153 Co145 2.135 . S
Co154 O155 2.216 . S
Co154 O156 2.091 . S
Co154 O158 2.004 . S
Co154 O164 2.021 . S
Co154 O166 2.137 . S
Co154 O167 2.244 . S
O155 Co154 2.216 . S
O155 C162 1.247 . S
O156 Co154 2.091 . S
O156 C162 1.261 . S
C157 O166 1.247 . S
C157 O167 1.272 . S
O158 Co154 2.004 . S
O158 C163 1.259 . S
Co159 O160 2.061 . S
Co159 O165 2.052 . S
Co159 O167 2.135 . S
O160 Co159 2.061 . S
O160 C163 1.235 . S
C161 O164 1.238 . S
C161 O165 1.241 . S
C162 O155 1.247 . S
C162 O156 1.261 . S
C163 O158 1.259 . S
C163 O160 1.235 . S
O164 Co154 2.021 . S
O164 C161 1.238 . S
O165 Co159 2.052 . S
O165 C161 1.241 . S
O166 Co154 2.137 . S
O166 C157 1.247 . S
O167 Co154 2.244 . S
O167 C157 1.272 . S
O167 Co159 2.135 . S
Co168 O169 2.235 . S
Co168 O170 2.091 . S
Co168 O172 2.004 . S
Co168 O178 2.021 . S
Co168 O180 2.137 1_655 S
Co168 O181 2.244 1_655 S
O169 Co168 2.235 . S
O169 C176 1.265 . S
O170 Co168 2.091 . S
O170 C176 1.261 . S
C171 O180 1.247 . S
C171 O181 1.272 . S
O172 Co168 2.004 . S
O172 C177 1.259 . S
Co173 O174 2.061 . S
Co173 O179 2.052 . S
Co173 O181 2.135 1_655 S
O174 Co173 2.061 . S
O174 C177 1.235 . S
C175 O178 1.238 . S
C175 O179 1.241 . S
C176 O169 1.265 . S
C176 O170 1.261 . S
C177 O172 1.259 . S
C177 O174 1.235 . S
O178 Co168 2.021 . S
O178 C175 1.238 . S
O179 Co173 2.052 . S
O179 C175 1.241 . S
O180 Co168 2.137 1_455 S
O180 C171 1.247 . S
O181 Co168 2.244 1_455 S
O181 C171 1.272 . S
O181 Co173 2.135 1_455 S
Co182 O183 2.236 . S
Co182 O184 2.091 . S
Co182 O186 2.004 . S
Co182 O192 2.021 . S
Co182 O194 2.137 1_565 S
Co182 O195 2.244 1_565 S
O183 Co182 2.236 . S
O183 C190 1.266 . S
O184 Co182 2.091 . S
O184 C190 1.261 . S
C185 O194 1.247 . S
C185 O195 1.272 . S
O186 Co182 2.004 . S
O186 C191 1.259 . S
Co187 O188 2.061 . S
Co187 O193 2.052 . S
Co187 O195 2.135 1_565 S
O188 Co187 2.061 . S
O188 C191 1.235 . S
C189 O192 1.238 . S
C189 O193 1.241 . S
C190 O183 1.266 . S
C190 O184 1.261 . S
C191 O186 1.259 . S
C191 O188 1.235 . S
O192 Co182 2.021 . S
O192 C189 1.238 . S
O193 Co187 2.052 . S
O193 C189 1.241 . S
O194 Co182 2.137 1_545 S
O194 C185 1.247 . S
O195 Co182 2.244 1_545 S
O195 C185 1.272 . S
O195 Co187 2.135 1_545 S
Co196 O197 2.216 . S
Co196 O198 2.091 . S
Co196 O200 2.004 . S
Co196 O206 2.021 . S
Co196 O208 2.137 . S
Co196 O209 2.244 . S
O197 Co196 2.216 . S
O197 C204 1.247 . S
O198 Co196 2.091 . S
O198 C204 1.261 . S
C199 O208 1.247 . S
C199 O209 1.272 . S
O200 Co196 2.004 . S
O200 C205 1.259 . S
Co201 O202 2.061 . S
Co201 O207 2.052 . S
Co201 O209 2.135 . S
O202 Co201 2.061 . S
O202 C205 1.235 . S
C203 O206 1.238 . S
C203 O207 1.241 . S
C204 O197 1.247 . S
C204 O198 1.261 . S
C205 O200 1.259 . S
C205 O202 1.235 . S
O206 Co196 2.021 . S
O206 C203 1.238 . S
O207 Co201 2.052 . S
O207 C203 1.241 . S
O208 Co196 2.137 . S
O208 C199 1.247 . S
O209 Co196 2.244 . S
O209 C199 1.272 . S
O209 Co201 2.135 . S
Co210 O211 2.216 . S
Co210 O212 2.091 . S
Co210 O214 2.004 . S
Co210 O220 2.021 . S
Co210 O222 2.137 . S
Co210 O223 2.244 . S
O211 Co210 2.216 . S
O211 C218 1.247 . S
O212 Co210 2.091 . S
O212 C218 1.261 . S
C213 O222 1.247 . S
C213 O223 1.272 . S
O214 Co210 2.004 . S
O214 C219 1.259 . S
Co215 O216 2.061 . S
Co215 O221 2.052 . S
Co215 O223 2.135 . S
O216 Co215 2.061 . S
O216 C219 1.235 . S
C217 O220 1.238 . S
C217 O221 1.241 . S
C218 O211 1.247 . S
C218 O212 1.261 . S
C219 O214 1.259 . S
C219 O216 1.235 . S
O220 Co210 2.021 . S
O220 C217 1.238 . S
O221 Co215 2.052 . S
O221 C217 1.241 . S
O222 Co210 2.137 . S
O222 C213 1.247 . S
O223 Co210 2.244 . S
O223 C213 1.272 . S
O223 Co215 2.135 . S
C224 C225 1.349 . S
C224 C226 1.327 . S
C224 H249 0.950 . S
C225 C224 1.349 . S
C225 C241 1.349 1_455 S
C226 C224 1.327 . S
C226 C245 1.429 . S
C226 H250 0.950 . S
C227 C244 1.574 . S
C227 C246 1.368 1_656 S
C227 H251 0.949 . S
H228 C232 0.949 . S
C229 C230 1.349 1_655 S
C229 C231 1.327 . S
C229 H252 0.950 . S
C230 C229 1.349 1_455 S
C230 C242 1.349 . S
C231 C229 1.327 . S
C231 C247 1.429 1_655 S
C231 H253 0.950 . S
C232 H228 0.949 . S
C232 C240 1.574 . S
C232 C248 1.368 1_554 S
H233 C241 0.950 . S
H234 C239 0.950 1_556 S
H235 C240 0.949 . S
H236 C242 0.950 . S
H237 C243 0.950 1_554 S
H238 C244 0.949 . S
C239 H234 0.950 1_554 S
C239 C241 1.327 . S
C239 C245 1.429 1_655 S
C240 C232 1.574 . S
C240 H235 0.949 . S
C240 C246 1.368 . S
C241 C225 1.349 1_655 S
C241 H233 0.950 . S
C241 C239 1.327 . S
C242 C230 1.349 . S
C242 H236 0.950 . S
C242 C243 1.327 . S
C243 H237 0.950 1_556 S
C243 C242 1.327 . S
C243 C247 1.429 . S
C244 C227 1.574 . S
C244 H238 0.949 . S
C244 C248 1.368 1_655 S
C245 C226 1.429 . S
C245 C239 1.429 1_455 S
C245 C246 1.523 . S
C246 C227 1.368 1_454 S
C246 C240 1.368 . S
C246 C245 1.523 . S
C247 C231 1.429 1_455 S
C247 C243 1.429 . S
C247 C248 1.523 . S
C248 C232 1.368 1_556 S
C248 C244 1.368 1_455 S
C248 C247 1.523 . S
H249 C224 0.950 . S
H250 C226 0.950 . S
H251 C227 0.949 . S
H252 C229 0.950 . S
H253 C231 0.950 . S
C254 C255 1.349 1_565 S
C254 C256 1.327 . S
C254 H279 0.950 . S
C255 C254 1.349 1_545 S
C255 C271 1.349 . S
C256 C254 1.327 . S
C256 C275 1.429 1_565 S
C256 H280 0.950 . S
C257 C274 1.574 . S
C257 C276 1.368 . S
C257 H281 0.949 . S
H258 C262 0.949 . S
C259 C260 1.349 . S
C259 C261 1.327 . S
C259 H282 0.950 . S
C260 C259 1.349 . S
C260 C272 1.349 1_545 S
C261 C259 1.327 . S
C261 C277 1.429 . S
C261 H283 0.950 . S
C262 H258 0.949 . S
C262 C270 1.574 . S
C262 C278 1.368 1_565 S
H263 C271 0.950 . S
H264 C269 0.950 . S
H265 C270 0.949 . S
H266 C272 0.950 . S
H267 C273 0.950 . S
H268 C274 0.949 . S
C269 H264 0.950 . S
C269 C271 1.327 . S
C269 C275 1.429 . S
C270 C262 1.574 . S
C270 H265 0.949 . S
C270 C276 1.368 1_565 S
C271 C255 1.349 . S
C271 H263 0.950 . S
C271 C269 1.327 . S
C272 C260 1.349 1_565 S
C272 H266 0.950 . S
C272 C273 1.327 . S
C273 H267 0.950 . S
C273 C272 1.327 . S
C273 C277 1.429 1_565 S
C274 C257 1.574 . S
C274 H268 0.949 . S
C274 C278 1.368 . S
C275 C256 1.429 1_545 S
C275 C269 1.429 . S
C275 C276 1.523 . S
C276 C257 1.368 . S
C276 C270 1.368 1_545 S
C276 C275 1.523 . S
C277 C261 1.429 . S
C277 C273 1.429 1_545 S
C277 C278 1.523 . S
C278 C262 1.368 1_545 S
C278 C274 1.368 . S
C278 C277 1.523 . S
H279 C254 0.950 . S
H280 C256 0.950 . S
H281 C257 0.949 . S
H282 C259 0.950 . S
H283 C261 0.950 . S
C284 C285 1.349 . S
C284 C286 1.327 . S
C284 H309 0.950 . S
C285 C284 1.349 . S
C285 C301 1.349 . S
C286 C284 1.327 . S
C286 C305 1.429 . S
C286 H310 0.950 . S
C287 C304 1.574 . S
C287 C306 1.368 1_556 S
C287 H311 0.949 . S
H288 C292 0.949 . S
C289 C290 1.349 . S
C289 C291 1.327 . S
C289 H312 0.950 . S
C290 C289 1.349 . S
C290 C302 1.349 . S
C291 C289 1.327 . S
C291 C307 1.429 . S
C291 H313 0.950 . S
C292 H288 0.949 . S
C292 C300 1.574 . S
C292 C308 1.368 1_554 S
H293 C301 0.950 . S
H294 C299 0.959 . S
H295 C300 0.949 . S
H296 C302 0.950 . S
H297 C303 0.959 . S
H298 C304 0.949 . S
C299 H294 0.959 . S
C299 C301 1.327 . S
C299 C305 1.429 . S
C300 C292 1.574 . S
C300 H295 0.949 . S
C300 C306 1.368 . S
C301 C285 1.349 . S
C301 H293 0.950 . S
C301 C299 1.327 . S
C302 C290 1.349 . S
C302 H296 0.950 . S
C302 C303 1.327 . S
C303 H297 0.959 . S
C303 C302 1.327 . S
C303 C307 1.429 . S
C304 C287 1.574 . S
C304 H298 0.949 . S
C304 C308 1.368 . S
C305 C286 1.429 . S
C305 C299 1.429 . S
C305 C306 1.523 . S
C306 C287 1.368 1_554 S
C306 C300 1.368 . S
C306 C305 1.523 . S
C307 C291 1.429 . S
C307 C303 1.429 . S
C307 C308 1.523 . S
C308 C292 1.368 1_556 S
C308 C304 1.368 . S
C308 C307 1.523 . S
H309 C284 0.950 . S
H310 C286 0.950 . S
H311 C287 0.949 . S
H312 C289 0.950 . S
H313 C291 0.950 . S
C314 C315 1.349 . S
C314 C316 1.327 . S
C314 H339 0.950 . S
C315 C314 1.349 . S
C315 C331 1.349 . S
C316 C314 1.327 . S
C316 C335 1.429 . S
C316 H340 0.950 . S
C317 C334 1.574 . S
C317 C336 1.368 . S
C317 H341 0.949 . S
H318 C322 0.949 . S
C319 C320 1.349 . S
C319 C321 1.327 . S
C319 H342 0.950 . S
C320 C319 1.349 . S
C320 C332 1.349 . S
C321 C319 1.327 . S
C321 C337 1.429 . S
C321 H343 0.950 . S
C322 H318 0.949 . S
C322 C330 1.574 . S
C322 C338 1.368 . S
H323 C331 0.950 . S
H324 C329 0.950 . S
H325 C330 0.949 . S
H326 C332 0.950 . S
H327 C333 0.950 . S
H328 C334 0.949 . S
C329 H324 0.950 . S
C329 C331 1.327 . S
C329 C335 1.429 . S
C330 C322 1.574 . S
C330 H325 0.949 . S
C330 C336 1.368 . S
C331 C315 1.349 . S
C331 H323 0.950 . S
C331 C329 1.327 . S
C332 C320 1.349 . S
C332 H326 0.950 . S
C332 C333 1.327 . S
C333 H327 0.950 . S
C333 C332 1.327 . S
C333 C337 1.429 . S
C334 C317 1.574 . S
C334 H328 0.949 . S
C334 C338 1.368 . S
C335 C316 1.429 . S
C335 C329 1.429 . S
C335 C336 1.523 . S
C336 C317 1.368 . S
C336 C330 1.368 . S
C336 C335 1.523 . S
C337 C321 1.429 . S
C337 C333 1.429 . S
C337 C338 1.523 . S
C338 C322 1.368 . S
C338 C334 1.368 . S
C338 C337 1.523 . S
H339 C314 0.950 . S
H340 C316 0.950 . S
H341 C317 0.949 . S
H342 C319 0.950 . S
H343 C321 0.950 . S
C344 C345 1.349 1_455 S
C344 C346 1.327 . S
C344 H369 0.950 . S
C345 C344 1.349 1_655 S
C345 C361 1.349 . S
C346 C344 1.327 . S
C346 C365 1.429 1_455 S
C346 H370 0.950 . S
C347 C364 1.574 . S
C347 C366 1.368 1_554 S
C347 H371 0.949 . S
H348 C352 0.949 . S
C349 C350 1.349 . S
C349 C351 1.327 . S
C349 H372 0.950 . S
C350 C349 1.349 . S
C350 C362 1.349 1_655 S
C351 C349 1.327 . S
C351 C367 1.429 . S
C351 H373 0.950 . S
C352 H348 0.949 . S
C352 C360 1.574 . S
C352 C368 1.368 1_456 S
H353 C361 0.950 . S
H354 C359 0.950 . S
H355 C360 0.949 . S
H356 C362 0.950 . S
H357 C363 0.950 . S
H358 C364 0.949 . S
C359 H354 0.950 . S
C359 C361 1.327 . S
C359 C365 1.429 . S
C360 C352 1.574 . S
C360 H355 0.949 . S
C360 C366 1.368 1_455 S
C361 C345 1.349 . S
C361 H353 0.950 . S
C361 C359 1.327 . S
C362 C350 1.349 1_455 S
C362 H356 0.950 . S
C362 C363 1.327 . S
C363 H357 0.950 . S
C363 C362 1.327 . S
C363 C367 1.429 1_455 S
C364 C347 1.574 . S
C364 H358 0.949 . S
C364 C368 1.368 . S
C365 C346 1.429 1_655 S
C365 C359 1.429 . S
C365 C366 1.523 . S
C366 C347 1.368 1_556 S
C366 C360 1.368 1_655 S
C366 C365 1.523 . S
C367 C351 1.429 . S
C367 C363 1.429 1_655 S
C367 C368 1.523 . S
C368 C352 1.368 1_654 S
C368 C364 1.368 . S
C368 C367 1.523 . S
H369 C344 0.950 . S
H370 C346 0.950 . S
H371 C347 0.949 . S
H372 C349 0.950 . S
H373 C351 0.950 . S
C374 C375 1.349 . S
C374 C376 1.327 . S
C374 H399 0.950 . S
C375 C374 1.349 . S
C375 C391 1.349 1_565 S
C376 C374 1.327 . S
C376 C395 1.429 . S
C376 H400 0.950 . S
C377 C394 1.574 . S
C377 C396 1.368 1_545 S
C377 H401 0.949 . S
H378 C382 0.949 . S
C379 C380 1.349 1_545 S
C379 C381 1.327 . S
C379 H402 0.950 . S
C380 C379 1.349 1_565 S
C380 C392 1.349 . S
C381 C379 1.327 . S
C381 C397 1.429 1_545 S
C381 H403 0.950 . S
C382 H378 0.949 . S
C382 C390 1.574 . S
C382 C398 1.368 . S
H383 C391 0.950 . S
H384 C389 0.950 . S
H385 C390 0.949 . S
H386 C392 0.950 . S
H387 C393 0.950 . S
H388 C394 0.949 . S
C389 H384 0.950 . S
C389 C391 1.327 . S
C389 C395 1.429 1_545 S
C390 C382 1.574 . S
C390 H385 0.949 . S
C390 C396 1.368 . S
C391 C375 1.349 1_545 S
C391 H383 0.950 . S
C391 C389 1.327 . S
C392 C380 1.349 . S
C392 H386 0.950 . S
C392 C393 1.327 . S
C393 H387 0.950 . S
C393 C392 1.327 . S
C393 C397 1.429 . S
C394 C377 1.574 . S
C394 H388 0.949 . S
C394 C398 1.368 1_545 S
C395 C376 1.429 . S
C395 C389 1.429 1_565 S
C395 C396 1.523 . S
C396 C377 1.368 1_565 S
C396 C390 1.368 . S
C396 C395 1.523 . S
C397 C381 1.429 1_565 S
C397 C393 1.429 . S
C397 C398 1.523 . S
C398 C382 1.368 . S
C398 C394 1.368 1_565 S
C398 C397 1.523 . S
H399 C374 0.950 . S
H400 C376 0.950 . S
H401 C377 0.949 . S
H402 C379 0.950 . S
H403 C381 0.950 . S
C404 C405 1.349 . S
C404 C406 1.327 . S
C404 H429 0.950 . S
C405 C404 1.349 . S
C405 C421 1.349 . S
C406 C404 1.327 . S
C406 C425 1.429 . S
C406 H430 0.950 1_556 S
C407 C424 1.574 . S
C407 C426 1.368 . S
C407 H431 0.949 . S
H408 C412 0.949 . S
C409 C410 1.349 . S
C409 C411 1.327 . S
C409 H432 0.950 . S
C410 C409 1.349 . S
C410 C422 1.349 . S
C411 C409 1.327 . S
C411 C427 1.429 . S
C411 H433 0.950 1_554 S
C412 H408 0.949 . S
C412 C420 1.574 . S
C412 C428 1.368 . S
H413 C421 0.950 . S
H414 C419 0.950 . S
H415 C420 0.949 . S
H416 C422 0.950 . S
H417 C423 0.950 . S
H418 C424 0.949 . S
C419 H414 0.950 . S
C419 C421 1.327 . S
C419 C425 1.429 . S
C420 C412 1.574 . S
C420 H415 0.949 . S
C420 C426 1.368 1_554 S
C421 C405 1.349 . S
C421 H413 0.950 . S
C421 C419 1.327 . S
C422 C410 1.349 . S
C422 H416 0.950 . S
C422 C423 1.327 . S
C423 H417 0.950 . S
C423 C422 1.327 . S
C423 C427 1.429 . S
C424 C407 1.574 . S
C424 H418 0.949 . S
C424 C428 1.368 1_556 S
C425 C406 1.429 . S
C425 C419 1.429 . S
C425 C426 1.523 . S
C426 C407 1.368 . S
C426 C420 1.368 1_556 S
C426 C425 1.523 . S
C427 C411 1.429 . S
C427 C423 1.429 . S
C427 C428 1.523 . S
C428 C412 1.368 . S
C428 C424 1.368 1_554 S
C428 C427 1.523 . S
H429 C404 0.950 . S
H430 C406 0.950 1_554 S
H431 C407 0.949 . S
H432 C409 0.950 . S
H433 C411 0.950 1_556 S
C434 C435 1.349 . S
C434 C436 1.327 . S
C434 H459 0.950 . S
C435 C434 1.349 . S
C435 C451 1.349 . S
C436 C434 1.327 . S
C436 C455 1.429 . S
C436 H460 0.950 . S
C437 C454 1.574 . S
C437 C456 1.368 . S
C437 H461 0.949 . S
H438 C442 0.949 . S
C439 C440 1.349 . S
C439 C441 1.327 . S
C439 H462 0.950 . S
C440 C439 1.349 . S
C440 C452 1.349 . S
C441 C439 1.327 . S
C441 C457 1.429 . S
C441 H463 0.950 . S
C442 H438 0.949 . S
C442 C450 1.574 . S
C442 C458 1.368 . S
H443 C451 0.950 . S
H444 C449 0.950 . S
H445 C450 0.949 . S
H446 C452 0.950 . S
H447 C453 0.950 . S
H448 C454 0.949 . S
C449 H444 0.950 . S
C449 C451 1.327 . S
C449 C455 1.429 . S
C450 C442 1.574 . S
C450 H445 0.949 . S
C450 C456 1.368 . S
C451 C435 1.349 . S
C451 H443 0.950 . S
C451 C449 1.327 . S
C452 C440 1.349 . S
C452 H446 0.950 . S
C452 C453 1.327 . S
C453 H447 0.950 . S
C453 C452 1.327 . S
C453 C457 1.429 . S
C454 C437 1.574 . S
C454 H448 0.949 . S
C454 C458 1.368 . S
C455 C436 1.429 . S
C455 C449 1.429 . S
C455 C456 1.523 . S
C456 C437 1.368 . S
C456 C450 1.368 . S
C456 C455 1.523 . S
C457 C441 1.429 . S
C457 C453 1.429 . S
C457 C458 1.523 . S
C458 C442 1.368 . S
C458 C454 1.368 . S
C458 C457 1.523 . S
H459 C434 0.950 . S
H460 C436 0.950 . S
H461 C437 0.949 . S
H462 C439 0.950 . S
H463 C441 0.950 . S
C464 C465 1.349 1_556 S
C464 C466 1.327 . S
C464 H489 0.950 . S
C465 C464 1.349 1_554 S
C465 C481 1.349 . S
C466 C464 1.327 . S
C466 C485 1.429 . S
C466 H490 0.950 . S
C467 C484 1.574 . S
C467 C486 1.368 . S
C467 H491 0.949 . S
H468 C472 0.949 . S
C469 C470 1.349 . S
C469 C471 1.327 . S
C469 H492 0.950 . S
C470 C469 1.349 . S
C470 C482 1.349 . S
C471 C469 1.327 . S
C471 C487 1.429 . S
C471 H493 0.950 . S
C472 H468 0.949 . S
C472 C480 1.574 . S
C472 C488 1.368 . S
H473 C481 0.950 . S
H474 C479 0.948 1_554 S
H475 C480 0.949 . S
H476 C482 0.950 . S
H477 C483 0.950 . S
H478 C484 0.949 . S
C479 H474 0.948 1_556 S
C479 C481 1.327 1_556 S
C479 C485 1.429 . S
C480 C472 1.574 . S
C480 H475 0.949 . S
C480 C486 1.368 . S
C481 C465 1.349 . S
C481 H473 0.950 . S
C481 C479 1.327 1_554 S
C482 C470 1.349 . S
C482 H476 0.950 . S
C482 C483 1.327 . S
C483 H477 0.950 . S
C483 C482 1.327 . S
C483 C487 1.429 . S
C484 C467 1.574 . S
C484 H478 0.949 . S
C484 C488 1.368 . S
C485 C466 1.429 . S
C485 C479 1.429 . S
C485 C486 1.523 . S
C486 C467 1.368 . S
C486 C480 1.368 . S
C486 C485 1.523 . S
C487 C471 1.429 . S
C487 C483 1.429 . S
C487 C488 1.523 . S
C488 C472 1.368 . S
C488 C484 1.368 . S
C488 C487 1.523 . S
H489 C464 0.950 . S
H490 C466 0.950 . S
H491 C467 0.949 . S
H492 C469 0.950 . S
H493 C471 0.950 . S
C494 C495 1.349 . S
C494 C496 1.327 . S
C494 H519 0.950 . S
C495 C494 1.349 . S
C495 C511 1.349 . S
C496 C494 1.327 . S
C496 C515 1.429 . S
C496 H520 0.950 . S
C497 C514 1.574 . S
C497 C516 1.368 . S
C497 H521 0.949 . S
H498 C502 0.949 . S
C499 C500 1.349 . S
C499 C501 1.327 . S
C499 H522 0.950 . S
C500 C499 1.349 . S
C500 C512 1.349 . S
C501 C499 1.327 . S
C501 C517 1.429 . S
C501 H523 0.950 . S
C502 H498 0.949 . S
C502 C510 1.574 . S
C502 C518 1.368 . S
H503 C511 0.950 . S
H504 C509 0.950 . S
H505 C510 0.949 . S
H506 C512 0.950 . S
H507 C513 0.950 . S
H508 C514 0.949 . S
C509 H504 0.950 . S
C509 C511 1.327 . S
C509 C515 1.429 . S
C510 C502 1.574 . S
C510 H505 0.949 . S
C510 C516 1.368 . S
C511 C495 1.349 . S
C511 H503 0.950 . S
C511 C509 1.327 . S
C512 C500 1.349 . S
C512 H506 0.950 . S
C512 C513 1.327 . S
C513 H507 0.950 . S
C513 C512 1.327 . S
C513 C517 1.429 . S
C514 C497 1.574 . S
C514 H508 0.949 . S
C514 C518 1.368 . S
C515 C496 1.429 . S
C515 C509 1.429 . S
C515 C516 1.523 . S
C516 C497 1.368 . S
C516 C510 1.368 . S
C516 C515 1.523 . S
C517 C501 1.429 . S
C517 C513 1.429 . S
C517 C518 1.523 . S
C518 C502 1.368 . S
C518 C514 1.368 . S
C518 C517 1.523 . S
H519 C494 0.950 . S
H520 C496 0.950 . S
H521 C497 0.949 . S
H522 C499 0.950 . S
H523 C501 0.950 . S
C524 C525 1.349 . S
C524 C526 1.340 . S
C524 H549 0.950 . S
C525 C524 1.349 . S
C525 C541 1.349 1_554 S
C526 C524 1.340 . S
C526 C545 1.412 1_554 S
C526 H550 0.953 . S
C527 C544 1.574 . S
C527 C546 1.368 . S
C527 H551 0.949 . S
H528 C532 0.949 . S
C529 C530 1.349 . S
C529 C531 1.327 . S
C529 H552 0.950 . S
C530 C529 1.349 . S
C530 C542 1.349 . S
C531 C529 1.327 . S
C531 C547 1.429 . S
C531 H553 0.950 . S
C532 H528 0.949 . S
C532 C540 1.574 . S
C532 C548 1.368 . S
H533 C541 0.950 . S
H534 C539 0.950 . S
H535 C540 0.949 . S
H536 C542 0.950 . S
H537 C543 0.950 . S
H538 C544 0.949 . S
C539 H534 0.950 . S
C539 C541 1.327 . S
C539 C545 1.429 . S
C540 C532 1.574 . S
C540 H535 0.949 . S
C540 C546 1.368 . S
C541 C525 1.349 1_556 S
C541 H533 0.950 . S
C541 C539 1.327 . S
C542 C530 1.349 . S
C542 H536 0.950 . S
C542 C543 1.327 . S
C543 H537 0.950 . S
C543 C542 1.327 . S
C543 C547 1.429 . S
C544 C527 1.574 . S
C544 H538 0.949 . S
C544 C548 1.368 . S
C545 C526 1.412 1_556 S
C545 C539 1.429 . S
C545 C546 1.523 . S
C546 C527 1.368 . S
C546 C540 1.368 . S
C546 C545 1.523 . S
C547 C531 1.429 . S
C547 C543 1.429 . S
C547 C548 1.523 . S
C548 C532 1.368 . S
C548 C544 1.368 . S
C548 C547 1.523 . S
H549 C524 0.950 . S
H550 C526 0.953 . S
H551 C527 0.949 . S
H552 C529 0.950 . S
H553 C531 0.950 . S
C554 C555 1.349 . S
C554 C556 1.327 . S
C554 H579 0.950 . S
C555 C554 1.349 . S
C555 C571 1.349 . S
C556 C554 1.327 . S
C556 C575 1.429 . S
C556 H580 0.950 . S
C557 C574 1.574 . S
C557 C576 1.368 . S
C557 H581 0.949 . S
H558 C562 0.949 . S
C559 C560 1.349 . S
C559 C561 1.327 . S
C559 H582 0.950 . S
C560 C559 1.349 . S
C560 C572 1.349 . S
C561 C559 1.327 . S
C561 C577 1.429 . S
C561 H583 0.950 . S
C562 H558 0.949 . S
C562 C570 1.574 . S
C562 C578 1.368 . S
H563 C571 0.950 . S
H564 C569 0.950 . S
H565 C570 0.949 . S
H566 C572 0.950 . S
H567 C573 0.950 . S
H568 C574 0.949 . S
C569 H564 0.950 . S
C569 C571 1.327 . S
C569 C575 1.429 . S
C570 C562 1.574 . S
C570 H565 0.949 . S
C570 C576 1.368 . S
C571 C555 1.349 . S
C571 H563 0.950 . S
C571 C569 1.327 . S
C572 C560 1.349 . S
C572 H566 0.950 . S
C572 C573 1.327 . S
C573 H567 0.950 . S
C573 C572 1.327 . S
C573 C577 1.429 . S
C574 C557 1.574 . S
C574 H568 0.949 . S
C574 C578 1.368 . S
C575 C556 1.429 . S
C575 C569 1.429 . S
C575 C576 1.523 . S
C576 C557 1.368 . S
C576 C570 1.368 . S
C576 C575 1.523 . S
C577 C561 1.429 . S
C577 C573 1.429 . S
C577 C578 1.523 . S
C578 C562 1.368 . S
C578 C574 1.368 . S
C578 C577 1.523 . S
H579 C554 0.950 . S
H580 C556 0.950 . S
H581 C557 0.949 . S
H582 C559 0.950 . S
H583 C561 0.950 . S
C584 C585 1.349 . S
C584 C586 1.327 . S
C584 H609 0.950 . S
C585 C584 1.349 . S
C585 C601 1.349 . S
C586 C584 1.327 . S
C586 C605 1.429 . S
C586 H610 0.950 . S
C587 C604 1.574 . S
C587 C606 1.368 . S
C587 H611 0.949 . S
H588 C592 0.949 . S
C589 C590 1.349 . S
C589 C591 1.327 . S
C589 H612 0.950 . S
C590 C589 1.349 . S
C590 C602 1.349 1_556 S
C591 C589 1.327 . S
C591 C607 1.429 1_556 S
C591 H613 0.950 . S
C592 H588 0.949 . S
C592 C600 1.574 . S
C592 C608 1.368 . S
H593 C601 0.950 . S
H594 C599 0.950 . S
H595 C600 0.949 . S
H596 C602 0.950 . S
H597 C603 0.950 . S
H598 C604 0.949 . S
C599 H594 0.950 . S
C599 C601 1.327 . S
C599 C605 1.429 . S
C600 C592 1.574 . S
C600 H595 0.949 . S
C600 C606 1.368 . S
C601 C585 1.349 . S
C601 H593 0.950 . S
C601 C599 1.327 . S
C602 C590 1.349 1_554 S
C602 H596 0.950 . S
C602 C603 1.327 . S
C603 H597 0.950 . S
C603 C602 1.327 . S
C603 C607 1.429 . S
C604 C587 1.574 . S
C604 H598 0.949 . S
C604 C608 1.368 . S
C605 C586 1.429 . S
C605 C599 1.429 . S
C605 C606 1.523 . S
C606 C587 1.368 . S
C606 C600 1.368 . S
C606 C605 1.523 . S
C607 C591 1.429 1_554 S
C607 C603 1.429 . S
C607 C608 1.523 . S
C608 C592 1.368 . S
C608 C604 1.368 . S
C608 C607 1.523 . S
H609 C584 0.950 . S
H610 C586 0.950 . S
H611 C587 0.949 . S
H612 C589 0.950 . S
H613 C591 0.950 . S
C614 C615 1.349 . S
C614 C616 1.327 . S
C614 H639 0.950 . S
C615 C614 1.349 . S
C615 C631 1.349 . S
C616 C614 1.327 . S
C616 C635 1.429 . S
C616 H640 0.950 . S
C617 C634 1.574 . S
C617 C636 1.368 . S
C617 H641 0.949 . S
H618 C622 0.949 . S
C619 C620 1.349 . S
C619 C621 1.327 . S
C619 H642 0.950 . S
C620 C619 1.349 . S
C620 C632 1.349 . S
C621 C619 1.327 . S
C621 C637 1.429 . S
C621 H643 0.950 . S
C622 H618 0.949 . S
C622 C630 1.574 . S
C622 C638 1.368 . S
H623 C631 0.950 . S
H624 C629 0.950 . S
H625 C630 0.949 . S
H626 C632 0.950 . S
H627 C633 0.950 . S
H628 C634 0.949 . S
C629 H624 0.950 . S
C629 C631 1.327 . S
C629 C635 1.429 . S
C630 C622 1.574 . S
C630 H625 0.949 . S
C630 C636 1.368 . S
C631 C615 1.349 . S
C631 H623 0.950 . S
C631 C629 1.327 . S
C632 C620 1.349 . S
C632 H626 0.950 . S
C632 C633 1.327 . S
C633 H627 0.950 . S
C633 C632 1.327 . S
C633 C637 1.429 . S
C634 C617 1.574 . S
C634 H628 0.949 . S
C634 C638 1.368 . S
C635 C616 1.429 . S
C635 C629 1.429 . S
C635 C636 1.523 . S
C636 C617 1.368 . S
C636 C630 1.368 . S
C636 C635 1.523 . S
C637 C621 1.429 . S
C637 C633 1.429 . S
C637 C638 1.523 . S
C638 C622 1.368 . S
C638 C634 1.368 . S
C638 C637 1.523 . S
H639 C614 0.950 . S
H640 C616 0.950 . S
H641 C617 0.949 . S
H642 C619 0.950 . S
H643 C621 0.950 . S
C644 C645 1.349 . S
C644 C646 1.327 . S
C644 H669 0.950 . S
C645 C644 1.349 . S
C645 C661 1.349 . S
C646 C644 1.327 . S
C646 C665 1.429 . S
C646 H670 0.950 . S
C647 C664 1.574 . S
C647 C666 1.368 . S
C647 H671 0.949 . S
H648 C652 0.949 . S
C649 C650 1.349 1_554 S
C649 C651 1.327 . S
C649 H672 0.950 . S
C650 C649 1.349 1_556 S
C650 C662 1.349 . S
C651 C649 1.327 . S
C651 C667 1.429 . S
C651 H673 0.950 . S
C652 H648 0.949 . S
C652 C660 1.574 . S
C652 C668 1.368 . S
H653 C661 0.950 . S
H654 C659 0.950 . S
H655 C660 0.949 . S
H656 C662 0.950 . S
H657 C663 0.950 . S
H658 C664 0.949 . S
C659 H654 0.950 . S
C659 C661 1.327 . S
C659 C665 1.429 . S
C660 C652 1.574 . S
C660 H655 0.949 . S
C660 C666 1.368 . S
C661 C645 1.349 . S
C661 H653 0.950 . S
C661 C659 1.327 . S
C662 C650 1.349 . S
C662 H656 0.950 . S
C662 C663 1.327 . S
C663 H657 0.950 . S
C663 C662 1.327 . S
C663 C667 1.429 1_556 S
C664 C647 1.574 . S
C664 H658 0.949 . S
C664 C668 1.368 . S
C665 C646 1.429 . S
C665 C659 1.429 . S
C665 C666 1.523 . S
C666 C647 1.368 . S
C666 C660 1.368 . S
C666 C665 1.523 . S
C667 C651 1.429 . S
C667 C663 1.429 1_554 S
C667 C668 1.523 . S
C668 C652 1.368 . S
C668 C664 1.368 . S
C668 C667 1.523 . S
H669 C644 0.950 . S
H670 C646 0.950 . S
H671 C647 0.949 . S
H672 C649 0.950 . S
H673 C651 0.950 . S
C674 C675 1.349 . S
C674 C676 1.327 . S
C674 H699 0.950 . S
C675 C674 1.349 . S
C675 C691 1.349 . S
C676 C674 1.327 . S
C676 C695 1.429 . S
C676 H700 0.950 . S
C677 C694 1.574 . S
C677 C696 1.368 . S
C677 H701 0.949 . S
H678 C682 0.949 . S
C679 C680 1.349 . S
C679 C681 1.327 . S
C679 H702 0.950 . S
C680 C679 1.349 . S
C680 C692 1.349 . S
C681 C679 1.327 . S
C681 C697 1.429 . S
C681 H703 0.950 . S
C682 H678 0.949 . S
C682 C690 1.574 . S
C682 C698 1.368 . S
H683 C691 0.950 . S
H684 C689 0.950 . S
H685 C690 0.949 . S
H686 C692 0.950 . S
H687 C693 0.950 . S
H688 C694 0.949 . S
C689 H684 0.950 . S
C689 C691 1.327 . S
C689 C695 1.429 . S
C690 C682 1.574 . S
C690 H685 0.949 . S
C690 C696 1.368 . S
C691 C675 1.349 . S
C691 H683 0.950 . S
C691 C689 1.327 . S
C692 C680 1.349 . S
C692 H686 0.950 . S
C692 C693 1.327 . S
C693 H687 0.950 . S
C693 C692 1.327 . S
C693 C697 1.429 . S
C694 C677 1.574 . S
C694 H688 0.949 . S
C694 C698 1.368 . S
C695 C676 1.429 . S
C695 C689 1.429 . S
C695 C696 1.523 . S
C696 C677 1.368 . S
C696 C690 1.368 . S
C696 C695 1.523 . S
C697 C681 1.429 . S
C697 C693 1.429 . S
C697 C698 1.523 . S
C698 C682 1.368 . S
C698 C694 1.368 . S
C698 C697 1.523 . S
H699 C674 0.950 . S
H700 C676 0.950 . S
H701 C677 0.949 . S
H702 C679 0.950 . S
H703 C681 0.950 . S
C704 C705 1.349 1_554 S
C704 C706 1.327 . S
C704 H729 0.950 . S
C705 C704 1.349 1_556 S
C705 C721 1.349 . S
C706 C704 1.327 . S
C706 C725 1.429 . S
C706 H730 0.950 . S
C707 C724 1.574 . S
C707 C726 1.368 . S
C707 H731 0.949 . S
H708 C712 0.949 . S
C709 C710 1.349 . S
C709 C711 1.327 . S
C709 H732 0.950 . S
C710 C709 1.349 . S
C710 C722 1.349 . S
C711 C709 1.327 . S
C711 C727 1.429 . S
C711 H733 0.950 . S
C712 H708 0.949 . S
C712 C720 1.574 . S
C712 C728 1.368 . S
H713 C721 0.950 . S
H714 C719 0.950 . S
H715 C720 0.949 . S
H716 C722 0.950 . S
H717 C723 0.950 . S
H718 C724 0.949 . S
C719 H714 0.950 . S
C719 C721 1.327 . S
C719 C725 1.429 1_556 S
C720 C712 1.574 . S
C720 H715 0.949 . S
C720 C726 1.368 . S
C721 C705 1.349 . S
C721 H713 0.950 . S
C721 C719 1.327 . S
C722 C710 1.349 . S
C722 H716 0.950 . S
C722 C723 1.327 . S
C723 H717 0.950 . S
C723 C722 1.327 . S
C723 C727 1.429 . S
C724 C707 1.574 . S
C724 H718 0.949 . S
C724 C728 1.368 . S
C725 C706 1.429 . S
C725 C719 1.429 1_554 S
C725 C726 1.523 . S
C726 C707 1.368 . S
C726 C720 1.368 . S
C726 C725 1.523 . S
C727 C711 1.429 . S
C727 C723 1.429 . S
C727 C728 1.523 . S
C728 C712 1.368 . S
C728 C724 1.368 . S
C728 C727 1.523 . S
H729 C704 0.950 . S
H730 C706 0.950 . S
H731 C707 0.949 . S
H732 C709 0.950 . S
H733 C711 0.950 . S
C734 C735 1.349 . S
C734 C736 1.327 . S
C734 H759 0.950 . S
C735 C734 1.349 . S
C735 C751 1.349 . S
C736 C734 1.327 . S
C736 C755 1.429 . S
C736 H760 0.950 . S
C737 C754 1.574 . S
C737 C756 1.368 . S
C737 H761 0.949 . S
H738 C742 0.949 . S
C739 C740 1.349 . S
C739 C741 1.327 . S
C739 H762 0.950 . S
C740 C739 1.349 . S
C740 C752 1.349 . S
C741 C739 1.327 . S
C741 C757 1.429 . S
C741 H763 0.950 . S
C742 H738 0.949 . S
C742 C750 1.574 . S
C742 C758 1.368 . S
H743 C751 0.950 . S
H744 C749 0.950 . S
H745 C750 0.949 . S
H746 C752 0.950 . S
H747 C753 0.950 . S
H748 C754 0.949 . S
C749 H744 0.950 . S
C749 C751 1.327 . S
C749 C755 1.429 . S
C750 C742 1.574 . S
C750 H745 0.949 . S
C750 C756 1.368 . S
C751 C735 1.349 . S
C751 H743 0.950 . S
C751 C749 1.327 . S
C752 C740 1.349 . S
C752 H746 0.950 . S
C752 C753 1.327 . S
C753 H747 0.950 . S
C753 C752 1.327 . S
C753 C757 1.429 . S
C754 C737 1.574 . S
C754 H748 0.949 . S
C754 C758 1.368 . S
C755 C736 1.429 . S
C755 C749 1.429 . S
C755 C756 1.523 . S
C756 C737 1.368 . S
C756 C750 1.368 . S
C756 C755 1.523 . S
C757 C741 1.429 . S
C757 C753 1.429 . S
C757 C758 1.523 . S
C758 C742 1.368 . S
C758 C754 1.368 . S
C758 C757 1.523 . S
H759 C734 0.950 . S
H760 C736 0.950 . S
H761 C737 0.949 . S
H762 C739 0.950 . S
H763 C741 0.950 . S
C764 C765 1.349 . S
C764 C766 1.327 . S
C764 H789 0.950 . S
C765 C764 1.349 . S
C765 C781 1.349 . S
C766 C764 1.327 . S
C766 C785 1.429 . S
C766 H790 0.950 . S
C767 C784 1.574 . S
C767 C786 1.368 . S
C767 H791 0.949 . S
H768 C772 0.949 . S
C769 C770 1.349 . S
C769 C771 1.327 1_556 S
C769 H792 0.950 . S
C770 C769 1.349 . S
C770 C782 1.349 . S
C771 C769 1.327 1_554 S
C771 C787 1.429 . S
C771 H793 0.950 . S
C772 H768 0.949 . S
C772 C780 1.574 . S
C772 C788 1.368 . S
H773 C781 0.950 . S
H774 C779 0.950 . S
H775 C780 0.949 . S
H776 C782 0.950 . S
H777 C783 0.950 . S
H778 C784 0.949 . S
C779 H774 0.950 . S
C779 C781 1.327 . S
C779 C785 1.429 . S
C780 C772 1.574 . S
C780 H775 0.949 . S
C780 C786 1.368 . S
C781 C765 1.349 . S
C781 H773 0.950 . S
C781 C779 1.327 . S
C782 C770 1.349 . S
C782 H776 0.950 . S
C782 C783 1.327 1_556 S
C783 H777 0.950 . S
C783 C782 1.327 1_554 S
C783 C787 1.429 . S
C784 C767 1.574 . S
C784 H778 0.949 . S
C784 C788 1.368 . S
C785 C766 1.429 . S
C785 C779 1.429 . S
C785 C786 1.523 . S
C786 C767 1.368 . S
C786 C780 1.368 . S
C786 C785 1.523 . S
C787 C771 1.429 . S
C787 C783 1.429 . S
C787 C788 1.523 . S
C788 C772 1.368 . S
C788 C784 1.368 . S
C788 C787 1.523 . S
H789 C764 0.950 . S
H790 C766 0.950 . S
H791 C767 0.949 . S
H792 C769 0.950 . S
H793 C771 0.950 . S
C794 C795 1.349 . S
C794 C796 1.327 . S
C794 H819 0.950 . S
C795 C794 1.349 . S
C795 C811 1.349 . S
C796 C794 1.327 . S
C796 C815 1.429 . S
C796 H820 0.950 . S
C797 C814 1.574 . S
C797 C816 1.368 . S
C797 H821 0.949 . S
H798 C802 0.949 . S
C799 C800 1.349 . S
C799 C801 1.327 . S
C799 H822 0.950 . S
C800 C799 1.349 . S
C800 C812 1.349 . S
C801 C799 1.327 . S
C801 C817 1.429 . S
C801 H823 0.950 . S
C802 H798 0.949 . S
C802 C810 1.574 . S
C802 C818 1.368 . S
H803 C811 0.950 . S
H804 C809 0.950 . S
H805 C810 0.949 . S
H806 C812 0.950 . S
H807 C813 0.950 . S
H808 C814 0.949 . S
C809 H804 0.950 . S
C809 C811 1.327 . S
C809 C815 1.429 . S
C810 C802 1.574 . S
C810 H805 0.949 . S
C810 C816 1.368 . S
C811 C795 1.349 . S
C811 H803 0.950 . S
C811 C809 1.327 . S
C812 C800 1.349 . S
C812 H806 0.950 . S
C812 C813 1.327 . S
C813 H807 0.950 . S
C813 C812 1.327 . S
C813 C817 1.429 . S
C814 C797 1.574 . S
C814 H808 0.949 . S
C814 C818 1.368 . S
C815 C796 1.429 . S
C815 C809 1.429 . S
C815 C816 1.523 . S
C816 C797 1.368 . S
C816 C810 1.368 . S
C816 C815 1.523 . S
C817 C801 1.429 . S
C817 C813 1.429 . S
C817 C818 1.523 . S
C818 C802 1.368 . S
C818 C814 1.368 . S
C818 C817 1.523 . S
H819 C794 0.950 . S
H820 C796 0.950 . S
H821 C797 0.949 . S
H822 C799 0.950 . S
H823 C801 0.950 . S
C824 C825 1.349 . S
C824 C826 1.327 . S
C824 H849 0.950 . S
C825 C824 1.349 . S
C825 C841 1.349 . S
C826 C824 1.327 . S
C826 C845 1.429 . S
C826 H850 0.950 . S
C827 C844 1.574 . S
C827 C846 1.368 . S
C827 H851 0.949 . S
H828 C832 0.949 . S
C829 C830 1.349 . S
C829 C831 1.327 1_554 S
C829 H852 0.950 . S
C830 C829 1.349 . S
C830 C842 1.349 1_554 S
C831 C829 1.327 1_556 S
C831 C847 1.429 . S
C831 H853 0.950 . S
C832 H828 0.949 . S
C832 C840 1.574 . S
C832 C848 1.368 . S
H833 C841 0.950 . S
H834 C839 0.950 . S
H835 C840 0.949 . S
H836 C842 0.950 . S
H837 C843 0.950 . S
H838 C844 0.949 . S
C839 H834 0.950 . S
C839 C841 1.327 . S
C839 C845 1.429 . S
C840 C832 1.574 . S
C840 H835 0.949 . S
C840 C846 1.368 . S
C841 C825 1.349 . S
C841 H833 0.950 . S
C841 C839 1.327 . S
C842 C830 1.349 1_556 S
C842 H836 0.950 . S
C842 C843 1.327 . S
C843 H837 0.950 . S
C843 C842 1.327 . S
C843 C847 1.429 . S
C844 C827 1.574 . S
C844 H838 0.949 . S
C844 C848 1.368 . S
C845 C826 1.429 . S
C845 C839 1.429 . S
C845 C846 1.523 . S
C846 C827 1.368 . S
C846 C840 1.368 . S
C846 C845 1.523 . S
C847 C831 1.429 . S
C847 C843 1.429 . S
C847 C848 1.523 . S
C848 C832 1.368 . S
C848 C844 1.368 . S
C848 C847 1.523 . S
H849 C824 0.950 . S
H850 C826 0.950 . S
H851 C827 0.949 . S
H852 C829 0.950 . S
H853 C831 0.950 . S
C854 C855 1.349 . S
C854 C856 1.327 . S
C854 H879 0.950 . S
C855 C854 1.349 . S
C855 C871 1.349 . S
C856 C854 1.327 . S
C856 C875 1.429 . S
C856 H880 0.950 . S
C857 C874 1.574 . S
C857 C876 1.368 . S
C857 H881 0.949 . S
H858 C862 0.949 . S
C859 C860 1.349 . S
C859 C861 1.327 . S
C859 H882 0.950 . S
C860 C859 1.349 . S
C860 C872 1.349 . S
C861 C859 1.327 . S
C861 C877 1.429 . S
C861 H883 0.950 . S
C862 H858 0.949 . S
C862 C870 1.574 . S
C862 C878 1.368 . S
H863 C871 0.950 . S
H864 C869 0.950 . S
H865 C870 0.949 . S
H866 C872 0.950 . S
H867 C873 0.950 . S
H868 C874 0.949 . S
C869 H864 0.950 . S
C869 C871 1.327 . S
C869 C875 1.429 . S
C870 C862 1.574 . S
C870 H865 0.949 . S
C870 C876 1.368 . S
C871 C855 1.349 . S
C871 H863 0.950 . S
C871 C869 1.327 . S
C872 C860 1.349 . S
C872 H866 0.950 . S
C872 C873 1.327 . S
C873 H867 0.950 . S
C873 C872 1.327 . S
C873 C877 1.429 . S
C874 C857 1.574 . S
C874 H868 0.949 . S
C874 C878 1.368 . S
C875 C856 1.429 . S
C875 C869 1.429 . S
C875 C876 1.523 . S
C876 C857 1.368 . S
C876 C870 1.368 . S
C876 C875 1.523 . S
C877 C861 1.429 . S
C877 C873 1.429 . S
C877 C878 1.523 . S
C878 C862 1.368 . S
C878 C874 1.368 . S
C878 C877 1.523 . S
H879 C854 0.950 . S
H880 C856 0.950 . S
H881 C857 0.949 . S
H882 C859 0.950 . S
H883 C861 0.950 . S
C884 C885 1.349 1_556 S
C884 C886 1.327 . S
C884 H909 0.950 . S
C885 C884 1.349 1_554 S
C885 C901 1.349 . S
C886 C884 1.327 . S
C886 C905 1.429 . S
C886 H910 0.950 . S
C887 C904 1.574 . S
C887 C906 1.368 . S
C887 H911 0.949 . S
H888 C892 0.949 . S
C889 C890 1.349 . S
C889 C891 1.327 . S
C889 H912 0.950 . S
C890 C889 1.349 . S
C890 C902 1.349 . S
C891 C889 1.327 . S
C891 C907 1.429 . S
C891 H913 0.950 . S
C892 H888 0.949 . S
C892 C900 1.574 . S
C892 C908 1.368 . S
H893 C901 0.950 . S
H894 C899 0.950 . S
H895 C900 0.949 . S
H896 C902 0.950 . S
H897 C903 0.950 . S
H898 C904 0.949 . S
C899 H894 0.950 . S
C899 C901 1.327 . S
C899 C905 1.429 1_554 S
C900 C892 1.574 . S
C900 H895 0.949 . S
C900 C906 1.368 . S
C901 C885 1.349 . S
C901 H893 0.950 . S
C901 C899 1.327 . S
C902 C890 1.349 . S
C902 H896 0.950 . S
C902 C903 1.327 . S
C903 H897 0.950 . S
C903 C902 1.327 . S
C903 C907 1.429 . S
C904 C887 1.574 . S
C904 H898 0.949 . S
C904 C908 1.368 . S
C905 C886 1.429 . S
C905 C899 1.429 1_556 S
C905 C906 1.523 . S
C906 C887 1.368 . S
C906 C900 1.368 . S
C906 C905 1.523 . S
C907 C891 1.429 . S
C907 C903 1.429 . S
C907 C908 1.523 . S
C908 C892 1.368 . S
C908 C904 1.368 . S
C908 C907 1.523 . S
H909 C884 0.950 . S
H910 C886 0.950 . S
H911 C887 0.949 . S
H912 C889 0.950 . S
H913 C891 0.950 . S
C914 C915 1.349 . S
C914 C916 1.327 . S
C914 H939 0.950 . S
C915 C914 1.349 . S
C915 C931 1.349 . S
C916 C914 1.327 . S
C916 C935 1.429 . S
C916 H940 0.950 . S
C917 C934 1.574 . S
C917 C936 1.368 . S
C917 H941 0.949 . S
H918 C922 0.949 . S
C919 C920 1.349 . S
C919 C921 1.327 . S
C919 H942 0.950 . S
C920 C919 1.349 . S
C920 C932 1.349 . S
C921 C919 1.327 . S
C921 C937 1.429 . S
C921 H943 0.950 . S
C922 H918 0.949 . S
C922 C930 1.574 . S
C922 C938 1.368 . S
H923 C931 0.950 . S
H924 C929 0.950 . S
H925 C930 0.949 . S
H926 C932 0.950 . S
H927 C933 0.950 . S
H928 C934 0.949 . S
C929 H924 0.950 . S
C929 C931 1.327 . S
C929 C935 1.429 . S
C930 C922 1.574 . S
C930 H925 0.949 . S
C930 C936 1.368 . S
C931 C915 1.349 . S
C931 H923 0.950 . S
C931 C929 1.327 . S
C932 C920 1.349 . S
C932 H926 0.950 . S
C932 C933 1.327 . S
C933 H927 0.950 . S
C933 C932 1.327 . S
C933 C937 1.429 . S
C934 C917 1.574 . S
C934 H928 0.949 . S
C934 C938 1.368 . S
C935 C916 1.429 . S
C935 C929 1.429 . S
C935 C936 1.523 . S
C936 C917 1.368 . S
C936 C930 1.368 . S
C936 C935 1.523 . S
C937 C921 1.429 . S
C937 C933 1.429 . S
C937 C938 1.523 . S
C938 C922 1.368 . S
C938 C934 1.368 . S
C938 C937 1.523 . S
H939 C914 0.950 . S
H940 C916 0.950 . S
H941 C917 0.949 . S
H942 C919 0.950 . S
H943 C921 0.950 . S
C944 C945 1.349 . S
C944 C946 1.327 . S
C944 H969 0.950 . S
C945 C944 1.349 . S
C945 C961 1.349 . S
C946 C944 1.327 . S
C946 C965 1.429 . S
C946 H970 0.950 . S
C947 C964 1.574 . S
C947 C966 1.368 . S
C947 H971 0.949 . S
H948 C952 0.949 . S
C949 C950 1.349 . S
C949 C951 1.327 . S
C949 H972 0.950 . S
C950 C949 1.349 . S
C950 C962 1.349 . S
C951 C949 1.327 . S
C951 C967 1.429 . S
C951 H973 0.950 . S
C952 H948 0.949 . S
C952 C960 1.574 . S
C952 C968 1.368 . S
H953 C961 0.950 . S
H954 C959 0.950 . S
H955 C960 0.949 . S
H956 C962 0.950 . S
H957 C963 0.950 . S
H958 C964 0.949 . S
C959 H954 0.950 . S
C959 C961 1.327 . S
C959 C965 1.429 . S
C960 C952 1.574 . S
C960 H955 0.949 . S
C960 C966 1.368 . S
C961 C945 1.349 . S
C961 H953 0.950 . S
C961 C959 1.327 . S
C962 C950 1.349 . S
C962 H956 0.950 . S
C962 C963 1.327 . S
C963 H957 0.950 . S
C963 C962 1.327 . S
C963 C967 1.429 . S
C964 C947 1.574 . S
C964 H958 0.949 . S
C964 C968 1.368 . S
C965 C946 1.429 . S
C965 C959 1.429 . S
C965 C966 1.523 . S
C966 C947 1.368 . S
C966 C960 1.368 . S
C966 C965 1.523 . S
C967 C951 1.429 . S
C967 C963 1.429 . S
C967 C968 1.523 . S
C968 C952 1.368 . S
C968 C964 1.368 . S
C968 C967 1.523 . S
H969 C944 0.950 . S
H970 C946 0.950 . S
H971 C947 0.949 . S
H972 C949 0.950 . S
H973 C951 0.950 . S
C974 C975 1.349 . S
C974 C976 1.327 . S
C974 H999 0.950 . S
C975 C974 1.349 . S
C975 C991 1.349 . S
C976 C974 1.327 . S
C976 C995 1.429 . S
C976 H1000 0.950 . S
C977 C994 1.574 . S
C977 C996 1.368 . S
C977 H1001 0.949 . S
H978 C982 0.949 . S
C979 C980 1.349 . S
C979 C981 1.327 . S
C979 H1002 0.950 . S
C980 C979 1.349 . S
C980 C992 1.349 . S
C981 C979 1.327 . S
C981 C997 1.429 . S
C981 H1003 0.950 . S
C982 H978 0.949 . S
C982 C990 1.574 . S
C982 C998 1.368 . S
H983 C991 0.950 . S
H984 C989 0.950 . S
H985 C990 0.949 . S
H986 C992 0.950 . S
H987 C993 0.950 . S
H988 C994 0.949 . S
C989 H984 0.950 . S
C989 C991 1.327 . S
C989 C995 1.429 . S
C990 C982 1.574 . S
C990 H985 0.949 . S
C990 C996 1.368 . S
C991 C975 1.349 . S
C991 H983 0.950 . S
C991 C989 1.327 . S
C992 C980 1.349 . S
C992 H986 0.950 . S
C992 C993 1.327 . S
C993 H987 0.950 . S
C993 C992 1.327 . S
C993 C997 1.429 . S
C994 C977 1.574 . S
C994 H988 0.949 . S
C994 C998 1.368 . S
C995 C976 1.429 . S
C995 C989 1.429 . S
C995 C996 1.523 . S
C996 C977 1.368 . S
C996 C990 1.368 . S
C996 C995 1.523 . S
C997 C981 1.429 . S
C997 C993 1.429 . S
C997 C998 1.523 . S
C998 C982 1.368 . S
C998 C994 1.368 . S
C998 C997 1.523 . S
H999 C974 0.950 . S
H1000 C976 0.950 . S
H1001 C977 0.949 . S
H1002 C979 0.950 . S
H1003 C981 0.950 . S
C1004 C1005 1.349 . S
C1004 C1006 1.327 . S
C1004 H1029 0.950 . S
C1005 C1004 1.349 . S
C1005 C1021 1.349 . S
C1006 C1004 1.327 . S
C1006 C1025 1.429 . S
C1006 H1030 0.950 . S
C1007 C1024 1.574 . S
C1007 C1026 1.368 . S
C1007 H1031 0.949 . S
H1008 C1012 0.949 . S
C1009 C1010 1.349 . S
C1009 C1011 1.327 . S
C1009 H1032 0.950 . S
C1010 C1009 1.349 . S
C1010 C1022 1.349 . S
C1011 C1009 1.327 . S
C1011 C1027 1.429 . S
C1011 H1033 0.950 . S
C1012 H1008 0.949 . S
C1012 C1020 1.574 . S
C1012 C1028 1.368 . S
H1013 C1021 0.950 . S
H1014 C1019 0.950 . S
H1015 C1020 0.949 . S
H1016 C1022 0.950 . S
H1017 C1023 0.950 . S
H1018 C1024 0.949 . S
C1019 H1014 0.950 . S
C1019 C1021 1.327 . S
C1019 C1025 1.429 . S
C1020 C1012 1.574 . S
C1020 H1015 0.949 . S
C1020 C1026 1.368 . S
C1021 C1005 1.349 . S
C1021 H1013 0.950 . S
C1021 C1019 1.327 . S
C1022 C1010 1.349 . S
C1022 H1016 0.950 . S
C1022 C1023 1.327 . S
C1023 H1017 0.950 . S
C1023 C1022 1.327 . S
C1023 C1027 1.429 . S
C1024 C1007 1.574 . S
C1024 H1018 0.949 . S
C1024 C1028 1.368 . S
C1025 C1006 1.429 . S
C1025 C1019 1.429 . S
C1025 C1026 1.523 . S
C1026 C1007 1.368 . S
C1026 C1020 1.368 . S
C1026 C1025 1.523 . S
C1027 C1011 1.429 . S
C1027 C1023 1.429 . S
C1027 C1028 1.523 . S
C1028 C1012 1.368 . S
C1028 C1024 1.368 . S
C1028 C1027 1.523 . S
H1029 C1004 0.950 . S
H1030 C1006 0.950 . S
H1031 C1007 0.949 . S
H1032 C1009 0.950 . S
H1033 C1011 0.950 . S
C1034 C1035 1.349 . S
C1034 C1036 1.327 . S
C1034 H1059 0.950 . S
C1035 C1034 1.349 . S
C1035 C1051 1.349 . S
C1036 C1034 1.327 . S
C1036 C1055 1.429 . S
C1036 H1060 0.950 . S
C1037 C1054 1.574 . S
C1037 C1056 1.368 . S
C1037 H1061 0.949 . S
H1038 C1042 0.949 . S
C1039 C1040 1.349 . S
C1039 C1041 1.327 . S
C1039 H1062 0.950 . S
C1040 C1039 1.349 . S
C1040 C1052 1.349 . S
C1041 C1039 1.327 . S
C1041 C1057 1.429 . S
C1041 H1063 0.950 . S
C1042 H1038 0.949 . S
C1042 C1050 1.574 . S
C1042 C1058 1.368 . S
H1043 C1051 0.950 . S
H1044 C1049 0.950 . S
H1045 C1050 0.949 . S
H1046 C1052 0.950 . S
H1047 C1053 0.950 . S
H1048 C1054 0.949 . S
C1049 H1044 0.950 . S
C1049 C1051 1.327 . S
C1049 C1055 1.429 . S
C1050 C1042 1.574 . S
C1050 H1045 0.949 . S
C1050 C1056 1.368 . S
C1051 C1035 1.349 . S
C1051 H1043 0.950 . S
C1051 C1049 1.327 . S
C1052 C1040 1.349 . S
C1052 H1046 0.950 . S
C1052 C1053 1.327 . S
C1053 H1047 0.950 . S
C1053 C1052 1.327 . S
C1053 C1057 1.429 . S
C1054 C1037 1.574 . S
C1054 H1048 0.949 . S
C1054 C1058 1.368 . S
C1055 C1036 1.429 . S
C1055 C1049 1.429 . S
C1055 C1056 1.523 . S
C1056 C1037 1.368 . S
C1056 C1050 1.368 . S
C1056 C1055 1.523 . S
C1057 C1041 1.429 . S
C1057 C1053 1.429 . S
C1057 C1058 1.523 . S
C1058 C1042 1.368 . S
C1058 C1054 1.368 . S
C1058 C1057 1.523 . S
H1059 C1034 0.950 . S
H1060 C1036 0.950 . S
H1061 C1037 0.949 . S
H1062 C1039 0.950 . S
H1063 C1041 0.950 . S
C1064 C1065 1.349 . S
C1064 C1066 1.327 . S
C1064 H1089 0.950 . S
C1065 C1064 1.349 . S
C1065 C1081 1.349 . S
C1066 C1064 1.327 . S
C1066 C1085 1.429 . S
C1066 H1090 0.950 . S
C1067 C1084 1.574 . S
C1067 C1086 1.368 . S
C1067 H1091 0.949 . S
H1068 C1072 0.949 . S
C1069 C1070 1.349 . S
C1069 C1071 1.327 . S
C1069 H1092 0.950 . S
C1070 C1069 1.349 . S
C1070 C1082 1.349 . S
C1071 C1069 1.327 . S
C1071 C1087 1.429 . S
C1071 H1093 0.950 . S
C1072 H1068 0.949 . S
C1072 C1080 1.574 . S
C1072 C1088 1.368 . S
H1073 C1081 0.950 . S
H1074 C1079 0.950 . S
H1075 C1080 0.949 . S
H1076 C1082 0.950 . S
H1077 C1083 0.950 . S
H1078 C1084 0.949 . S
C1079 H1074 0.950 . S
C1079 C1081 1.327 . S
C1079 C1085 1.429 . S
C1080 C1072 1.574 . S
C1080 H1075 0.949 . S
C1080 C1086 1.368 . S
C1081 C1065 1.349 . S
C1081 H1073 0.950 . S
C1081 C1079 1.327 . S
C1082 C1070 1.349 . S
C1082 H1076 0.950 . S
C1082 C1083 1.327 . S
C1083 H1077 0.950 . S
C1083 C1082 1.327 . S
C1083 C1087 1.429 . S
C1084 C1067 1.574 . S
C1084 H1078 0.949 . S
C1084 C1088 1.368 . S
C1085 C1066 1.429 . S
C1085 C1079 1.429 . S
C1085 C1086 1.523 . S
C1086 C1067 1.368 . S
C1086 C1080 1.368 . S
C1086 C1085 1.523 . S
C1087 C1071 1.429 . S
C1087 C1083 1.429 . S
C1087 C1088 1.523 . S
C1088 C1072 1.368 . S
C1088 C1084 1.368 . S
C1088 C1087 1.523 . S
H1089 C1064 0.950 . S
H1090 C1066 0.950 . S
H1091 C1067 0.949 . S
H1092 C1069 0.950 . S
H1093 C1071 0.950 . S
C1094 C1095 1.349 . S
C1094 C1096 1.327 . S
C1094 H1119 0.950 . S
C1095 C1094 1.349 . S
C1095 C1111 1.349 . S
C1096 C1094 1.327 . S
C1096 C1115 1.429 . S
C1096 H1120 0.950 . S
C1097 C1114 1.574 . S
C1097 C1116 1.368 . S
C1097 H1121 0.949 . S
H1098 C1102 0.949 . S
C1099 C1100 1.349 . S
C1099 C1101 1.327 . S
C1099 H1122 0.950 . S
C1100 C1099 1.349 . S
C1100 C1112 1.349 . S
C1101 C1099 1.327 . S
C1101 C1117 1.429 . S
C1101 H1123 0.950 . S
C1102 H1098 0.949 . S
C1102 C1110 1.574 . S
C1102 C1118 1.368 . S
H1103 C1111 0.950 . S
H1104 C1109 0.950 . S
H1105 C1110 0.949 . S
H1106 C1112 0.950 . S
H1107 C1113 0.950 . S
H1108 C1114 0.949 . S
C1109 H1104 0.950 . S
C1109 C1111 1.327 . S
C1109 C1115 1.429 . S
C1110 C1102 1.574 . S
C1110 H1105 0.949 . S
C1110 C1116 1.368 . S
C1111 C1095 1.349 . S
C1111 H1103 0.950 . S
C1111 C1109 1.327 . S
C1112 C1100 1.349 . S
C1112 H1106 0.950 . S
C1112 C1113 1.327 . S
C1113 H1107 0.950 . S
C1113 C1112 1.327 . S
C1113 C1117 1.429 . S
C1114 C1097 1.574 . S
C1114 H1108 0.949 . S
C1114 C1118 1.368 . S
C1115 C1096 1.429 . S
C1115 C1109 1.429 . S
C1115 C1116 1.523 . S
C1116 C1097 1.368 . S
C1116 C1110 1.368 . S
C1116 C1115 1.523 . S
C1117 C1101 1.429 . S
C1117 C1113 1.429 . S
C1117 C1118 1.523 . S
C1118 C1102 1.368 . S
C1118 C1114 1.368 . S
C1118 C1117 1.523 . S
H1119 C1094 0.950 . S
H1120 C1096 0.950 . S
H1121 C1097 0.949 . S
H1122 C1099 0.950 . S
H1123 C1101 0.950 . S
C1124 C1125 1.349 . S
C1124 C1126 1.327 . S
C1124 H1149 0.950 . S
C1125 C1124 1.349 . S
C1125 C1141 1.349 . S
C1126 C1124 1.327 . S
C1126 C1145 1.429 . S
C1126 H1150 0.950 . S
C1127 C1144 1.574 . S
C1127 C1146 1.368 . S
C1127 H1151 0.949 . S
H1128 C1132 0.949 . S
C1129 C1130 1.349 . S
C1129 C1131 1.327 . S
C1129 H1152 0.950 . S
C1130 C1129 1.349 . S
C1130 C1142 1.349 . S
C1131 C1129 1.327 . S
C1131 C1147 1.429 . S
C1131 H1153 0.950 . S
C1132 H1128 0.949 . S
C1132 C1140 1.574 . S
C1132 C1148 1.368 . S
H1133 C1141 0.950 . S
H1134 C1139 0.950 . S
H1135 C1140 0.949 . S
H1136 C1142 0.950 . S
H1137 C1143 0.950 . S
H1138 C1144 0.949 . S
C1139 H1134 0.950 . S
C1139 C1141 1.327 . S
C1139 C1145 1.429 . S
C1140 C1132 1.574 . S
C1140 H1135 0.949 . S
C1140 C1146 1.368 . S
C1141 C1125 1.349 . S
C1141 H1133 0.950 . S
C1141 C1139 1.327 . S
C1142 C1130 1.349 . S
C1142 H1136 0.950 . S
C1142 C1143 1.327 . S
C1143 H1137 0.950 . S
C1143 C1142 1.327 . S
C1143 C1147 1.429 . S
C1144 C1127 1.574 . S
C1144 H1138 0.949 . S
C1144 C1148 1.368 . S
C1145 C1126 1.429 . S
C1145 C1139 1.429 . S
C1145 C1146 1.523 . S
C1146 C1127 1.368 . S
C1146 C1140 1.368 . S
C1146 C1145 1.523 . S
C1147 C1131 1.429 . S
C1147 C1143 1.429 . S
C1147 C1148 1.523 . S
C1148 C1132 1.368 . S
C1148 C1144 1.368 . S
C1148 C1147 1.523 . S
H1149 C1124 0.950 . S
H1150 C1126 0.950 . S
H1151 C1127 0.949 . S
H1152 C1129 0.950 . S
H1153 C1131 0.950 . S
C1154 C1155 1.349 . S
C1154 C1156 1.327 . S
C1154 H1179 0.950 . S
C1155 C1154 1.349 . S
C1155 C1171 1.349 . S
C1156 C1154 1.327 . S
C1156 C1175 1.429 . S
C1156 H1180 0.950 . S
C1157 C1174 1.574 . S
C1157 C1176 1.368 . S
C1157 H1181 0.949 . S
H1158 C1162 0.949 . S
C1159 C1160 1.349 . S
C1159 C1161 1.327 . S
C1159 H1182 0.950 . S
C1160 C1159 1.349 . S
C1160 C1172 1.349 . S
C1161 C1159 1.327 . S
C1161 C1177 1.429 . S
C1161 H1183 0.950 . S
C1162 H1158 0.949 . S
C1162 C1170 1.574 . S
C1162 C1178 1.368 . S
H1163 C1171 0.950 . S
H1164 C1169 0.950 . S
H1165 C1170 0.949 . S
H1166 C1172 0.950 . S
H1167 C1173 0.950 . S
H1168 C1174 0.949 . S
C1169 H1164 0.950 . S
C1169 C1171 1.327 . S
C1169 C1175 1.429 . S
C1170 C1162 1.574 . S
C1170 H1165 0.949 . S
C1170 C1176 1.368 . S
C1171 C1155 1.349 . S
C1171 H1163 0.950 . S
C1171 C1169 1.327 . S
C1172 C1160 1.349 . S
C1172 H1166 0.950 . S
C1172 C1173 1.327 . S
C1173 H1167 0.950 . S
C1173 C1172 1.327 . S
C1173 C1177 1.429 . S
C1174 C1157 1.574 . S
C1174 H1168 0.949 . S
C1174 C1178 1.368 . S
C1175 C1156 1.429 . S
C1175 C1169 1.429 . S
C1175 C1176 1.523 . S
C1176 C1157 1.368 . S
C1176 C1170 1.368 . S
C1176 C1175 1.523 . S
C1177 C1161 1.429 . S
C1177 C1173 1.429 . S
C1177 C1178 1.523 . S
C1178 C1162 1.368 . S
C1178 C1174 1.368 . S
C1178 C1177 1.523 . S
H1179 C1154 0.950 . S
H1180 C1156 0.950 . S
H1181 C1157 0.949 . S
H1182 C1159 0.950 . S
H1183 C1161 0.950 . S
C225 C8 0.940 . S
C230 C64 0.940 . S
C255 C78 0.940 . S
C260 C22 0.940 . S
C285 C36 0.940 . S
C290 C92 0.940 . S
C315 C50 0.940 . S
C320 C106 0.940 . S
C345 C120 0.940 . S
C350 C176 0.940 . S
C375 C190 0.940 . S
C380 C134 0.940 . S
C405 C148 0.940 . S
C410 C204 0.940 . S
C435 C162 0.940 . S
C440 C218 0.940 . S
C465 C7 1.422 . S
C470 C219 1.437 . S
C495 C177 1.437 . S
C500 C21 1.422 . S
C525 C35 1.422 . S
C530 C191 1.437 . S
C555 C205 1.437 . S
C560 C49 1.422 . S
C585 C135 1.437 . S
C590 C63 1.422 . S
C615 C149 1.437 . S
C620 C77 1.422 . S
C645 C163 1.437 . S
C650 C91 1.422 . S
C675 C121 1.437 . S
C680 C105 1.422 . S
C705 C119 1.422 . S
C710 C107 1.437 . S
C735 C65 1.437 . S
C740 C133 1.422 . S
C765 C79 1.437 . S
C770 C147 1.422 . S
C795 C161 1.422 . S
C800 C93 1.437 . S
C825 C23 1.437 . S
C830 C175 1.422 . S
C855 C189 1.422 . S
C860 C37 1.437 . S
C885 C203 1.422 . S
C890 C51 1.437 . S
C915 C217 1.422 . S
C920 C9 1.437 . S
C945 C101 0.949 . S
C950 C3 0.949 . S
C975 C17 0.949 . S
C980 C59 0.949 . S
C1005 C31 0.949 . S
C1010 C73 0.949 . S
C1035 C45 0.949 . S
C1040 C87 0.949 . S
C1065 C213 0.949 . S
C1070 C115 0.949 . S
C1095 C171 0.949 . S
C1100 C129 0.949 . S
C1125 C185 0.949 . S
C1130 C143 0.949 . S
C1155 C199 0.949 . S
C1160 C157 0.949 . S
