# Generated by pormake.
# Topology umh, (4)-cn, num edge types: 1
# Building blocks:
#     Node 0, Type 0, BuildingBlock: ESEHIV_clean_sbu_0, # of connection points: 4
#     Node 1, Type 0, BuildingBlock: ESEHIV_clean_sbu_0, # of connection points: 4
#     Node 2, Type 0, BuildingBlock: ESEHIV_clean_sbu_0, # of connection points: 4
#     Node 3, Type 0, BuildingBlock: ESEHIV_clean_sbu_0, # of connection points: 4
#     Node 4, Type 0, BuildingBlock: ESEHIV_clean_sbu_0, # of connection points: 4
#     Node 5, Type 0, BuildingBlock: ESEHIV_clean_sbu_0, # of connection points: 4
#     Node 6, Type 0, BuildingBlock: ESEHIV_clean_sbu_0, # of connection points: 4
#     Node 7, Type 0, BuildingBlock: ESEHIV_clean_sbu_0, # of connection points: 4
#     Node 8, Type 0, BuildingBlock: ESEHIV_clean_sbu_0, # of connection points: 4
#     Node 9, Type 0, BuildingBlock: ESEHIV_clean_sbu_0, # of connection points: 4
#     Node 10, Type 0, BuildingBlock: ESEHIV_clean_sbu_0, # of connection points: 4
#     Node 11, Type 0, BuildingBlock: ESEHIV_clean_sbu_0, # of connection points: 4
#     Node 12, Type 0, BuildingBlock: ESEHIV_clean_sbu_0, # of connection points: 4
#     Node 13, Type 0, BuildingBlock: ESEHIV_clean_sbu_0, # of connection points: 4
#     Node 14, Type 0, BuildingBlock: ESEHIV_clean_sbu_0, # of connection points: 4
#     Node 15, Type 0, BuildingBlock: ESEHIV_clean_sbu_0, # of connection points: 4
#     Edge 16, Type (0, 0), BuildingBlock: KIFKEQ_clean_linker_1, # of connection points: 2
#     Edge 17, Type (0, 0), BuildingBlock: KIFKEQ_clean_linker_1, # of connection points: 2
#     Edge 18, Type (0, 0), BuildingBlock: KIFKEQ_clean_linker_1, # of connection points: 2
#     Edge 19, Type (0, 0), BuildingBlock: KIFKEQ_clean_linker_1, # of connection points: 2
#     Edge 20, Type (0, 0), BuildingBlock: KIFKEQ_clean_linker_1, # of connection points: 2
#     Edge 21, Type (0, 0), BuildingBlock: KIFKEQ_clean_linker_1, # of connection points: 2
#     Edge 22, Type (0, 0), BuildingBlock: KIFKEQ_clean_linker_1, # of connection points: 2
#     Edge 23, Type (0, 0), BuildingBlock: KIFKEQ_clean_linker_1, # of connection points: 2
#     Edge 24, Type (0, 0), BuildingBlock: KIFKEQ_clean_linker_1, # of connection points: 2
#     Edge 25, Type (0, 0), BuildingBlock: KIFKEQ_clean_linker_1, # of connection points: 2
#     Edge 26, Type (0, 0), BuildingBlock: KIFKEQ_clean_linker_1, # of connection points: 2
#     Edge 27, Type (0, 0), BuildingBlock: KIFKEQ_clean_linker_1, # of connection points: 2
#     Edge 28, Type (0, 0), BuildingBlock: KIFKEQ_clean_linker_1, # of connection points: 2
#     Edge 29, Type (0, 0), BuildingBlock: KIFKEQ_clean_linker_1, # of connection points: 2
#     Edge 30, Type (0, 0), BuildingBlock: KIFKEQ_clean_linker_1, # of connection points: 2
#     Edge 31, Type (0, 0), BuildingBlock: KIFKEQ_clean_linker_1, # of connection points: 2
#     Edge 32, Type (0, 0), BuildingBlock: KIFKEQ_clean_linker_1, # of connection points: 2
#     Edge 33, Type (0, 0), BuildingBlock: KIFKEQ_clean_linker_1, # of connection points: 2
#     Edge 34, Type (0, 0), BuildingBlock: KIFKEQ_clean_linker_1, # of connection points: 2
#     Edge 35, Type (0, 0), BuildingBlock: KIFKEQ_clean_linker_1, # of connection points: 2
#     Edge 36, Type (0, 0), BuildingBlock: KIFKEQ_clean_linker_1, # of connection points: 2
#     Edge 37, Type (0, 0), BuildingBlock: KIFKEQ_clean_linker_1, # of connection points: 2
#     Edge 38, Type (0, 0), BuildingBlock: KIFKEQ_clean_linker_1, # of connection points: 2
#     Edge 39, Type (0, 0), BuildingBlock: KIFKEQ_clean_linker_1, # of connection points: 2
#     Edge 40, Type (0, 0), BuildingBlock: KIFKEQ_clean_linker_1, # of connection points: 2
#     Edge 41, Type (0, 0), BuildingBlock: KIFKEQ_clean_linker_1, # of connection points: 2
#     Edge 42, Type (0, 0), BuildingBlock: KIFKEQ_clean_linker_1, # of connection points: 2
#     Edge 43, Type (0, 0), BuildingBlock: KIFKEQ_clean_linker_1, # of connection points: 2
#     Edge 44, Type (0, 0), BuildingBlock: KIFKEQ_clean_linker_1, # of connection points: 2
#     Edge 45, Type (0, 0), BuildingBlock: KIFKEQ_clean_linker_1, # of connection points: 2
#     Edge 46, Type (0, 0), BuildingBlock: KIFKEQ_clean_linker_1, # of connection points: 2
#     Edge 47, Type (0, 0), BuildingBlock: KIFKEQ_clean_linker_1, # of connection points: 2
# Relax obj value: 0.058
# Max RMSD: 0.084
# Mean RMSD: 0.084
data_MOF--net-umh--node1-ESEHIV_clean_sbu_0--edge1-KIFKEQ_clean_linker_1
_symmetry_space_group_name_H-M    P1
_symmetry_Int_Tables_number       1
_symmetry_cell_setting            triclinic
loop_
_symmetry_equiv_pos_as_xyz
'x, y, z'
_cell_length_a     47.672055
_cell_length_b     47.671227
_cell_length_c     52.571567
_cell_angle_alpha  90.134641
_cell_angle_beta   89.743166
_cell_angle_gamma 90.350299
loop_
_atom_site_label
_atom_site_type_symbol
_atom_site_fract_x
_atom_site_fract_y
_atom_site_fract_z
_atom_type_partial_charge
Cu0 Cu 0.38856 0.14797 0.17493 0.0
N1 N 0.3954 0.18648 0.17811 0.0
N2 N 0.38805 0.23242 0.1729 0.0
C3 C 0.37678 0.20639 0.17183 0.0
C4 C 0.4149 0.22868 0.18019 0.0
C5 C 0.41937 0.20029 0.18341 0.0
O6 O 0.35238 0.14066 0.192 0.0
C7 C 0.41228 0.14595 0.12716 0.0
O8 O 0.43437 0.15152 0.14119 0.0
H9 H 0.35572 0.20168 0.16542 0.0
H10 H 0.43894 0.19037 0.18837 0.0
N11 N 0.41711 0.12656 0.19017 0.0
N12 N 0.44924 0.09332 0.19761 0.0
C13 C 0.42998 0.10331 0.18111 0.0
C14 C 0.4288 0.13142 0.21301 0.0
C15 C 0.44844 0.11102 0.21767 0.0
C16 C 0.3494 0.15081 0.21437 0.0
O17 O 0.37058 0.16459 0.22441 0.0
H18 H 0.42513 0.09377 0.16294 0.0
H19 H 0.42356 0.14875 0.2254 0.0
O20 O 0.38875 0.14175 0.13823 0.0
H21 H 0.43031 0.24521 0.18267 0.0
H22 H 0.46154 0.10963 0.23439 0.0
Cu23 Cu 0.43462 0.35788 0.67184 0.0
N24 N 0.4161 0.32336 0.66812 0.0
N25 N 0.37797 0.29572 0.66524 0.0
C26 C 0.38824 0.32106 0.67211 0.0
C27 C 0.40048 0.28136 0.65661 0.0
C28 C 0.42402 0.29847 0.65845 0.0
O29 O 0.42088 0.37092 0.70483 0.0
C30 C 0.43544 0.36807 0.62126 0.0
O31 O 0.45111 0.34565 0.62358 0.0
H32 H 0.37549 0.33837 0.67867 0.0
H33 H 0.44509 0.2935 0.65226 0.0
N34 N 0.47399 0.35734 0.6726 0.0
N35 N 0.51681 0.37711 0.67232 0.0
C36 C 0.48966 0.37967 0.66556 0.0
C37 C 0.49185 0.33972 0.68406 0.0
C38 C 0.51832 0.3519 0.68395 0.0
C39 C 0.43745 0.37488 0.72351 0.0
O40 O 0.46267 0.38495 0.71896 0.0
H41 H 0.48075 0.39846 0.65748 0.0
H42 H 0.48576 0.32033 0.69326 0.0
O43 O 0.42482 0.37884 0.64138 0.0
H44 H 0.39994 0.26023 0.64906 0.0
H45 H 0.53693 0.34336 0.69266 0.0
Cu46 Cu 0.21811 0.45169 0.13899 0.0
N47 N 0.25235 0.4392 0.12567 0.0
N48 N 0.28799 0.40888 0.1233 0.0
C49 C 0.26027 0.41222 0.12756 0.0
C50 C 0.29792 0.43487 0.11826 0.0
C51 C 0.27592 0.45355 0.1198 0.0
O52 O 0.22364 0.44692 0.17554 0.0
C53 C 0.1874 0.43273 0.09896 0.0
O54 O 0.2044 0.45118 0.08848 0.0
H55 H 0.24641 0.3958 0.13443 0.0
H56 H 0.27763 0.47614 0.11897 0.0
N57 N 0.2101 0.48961 0.13156 0.0
N58 N 0.18635 0.53005 0.12903 0.0
C59 C 0.1886 0.50499 0.14091 0.0
C60 C 0.22185 0.50567 0.11332 0.0
C61 C 0.20731 0.53049 0.11171 0.0
C62 C 0.24351 0.46226 0.18412 0.0
O63 O 0.25409 0.48167 0.16912 0.0
H64 H 0.17404 0.49735 0.15519 0.0
H65 H 0.2389 0.49926 0.10106 0.0
O66 O 0.18919 0.42844 0.12284 0.0
H67 H 0.31976 0.44025 0.11513 0.0
H68 H 0.21147 0.54733 0.09842 0.0
Cu69 Cu 0.114 0.18227 0.66602 0.0
N70 N 0.13334 0.21668 0.66416 0.0
N71 N 0.17226 0.24345 0.66253 0.0
C72 C 0.16158 0.21726 0.6647 0.0
C73 C 0.14951 0.26018 0.66073 0.0
C74 C 0.12551 0.24359 0.66169 0.0
O75 O 0.11968 0.1701 0.70121 0.0
C76 C 0.12389 0.17448 0.61644 0.0
O77 O 0.11067 0.19854 0.61798 0.0
H78 H 0.17397 0.19849 0.66685 0.0
H79 H 0.10405 0.25063 0.66042 0.0
N80 N 0.07496 0.18093 0.66103 0.0
N81 N 0.03336 0.15882 0.65878 0.0
C82 C 0.0615 0.15607 0.65931 0.0
C83 C 0.0546 0.20039 0.66134 0.0
C84 C 0.02885 0.18675 0.66012 0.0
C85 C 0.106 0.1858 0.71657 0.0
O86 O 0.09113 0.20641 0.70724 0.0
H87 H 0.07226 0.13615 0.65979 0.0
H88 H 0.0581 0.22271 0.66338 0.0
O89 O 0.12863 0.16106 0.63702 0.0
H90 H 0.15006 0.28272 0.65843 0.0
H91 H 1.00845 0.19657 0.66068 0.0
Cu92 Cu 0.34943 0.43439 0.40358 0.0
N93 N 0.31763 0.41416 0.41428 0.0
N94 N 0.29386 0.37386 0.42014 0.0
C95 C 0.31339 0.38761 0.4062 0.0
C96 C 0.28523 0.39272 0.4377 0.0
C97 C 0.29995 0.41758 0.43406 0.0
O98 O 0.3512 0.4277 0.36696 0.0
C99 C 0.37623 0.43164 0.44847 0.0
O100 O 0.35565 0.44923 0.45274 0.0
H101 H 0.32623 0.37784 0.39168 0.0
H102 H 0.29915 0.43604 0.44603 0.0
N103 N 0.35028 0.47377 0.40716 0.0
N104 N 0.371 0.51621 0.40911 0.0
C105 C 0.37429 0.48856 0.4043 0.0
C106 C 0.33078 0.4927 0.4139 0.0
C107 C 0.3435 0.51891 0.41505 0.0
C108 C 0.32948 0.43779 0.35626 0.0
O109 O 0.3106 0.45046 0.37037 0.0
H110 H 0.39392 0.47889 0.39892 0.0
H111 H 0.30911 0.48775 0.4182 0.0
O112 O 0.3789 0.42103 0.42622 0.0
H113 H 0.27023 0.38854 0.45275 0.0
H114 H 0.33336 0.53826 0.42055 0.0
Cu115 Cu 0.10036 0.32944 0.89809 0.0
N116 N 0.13799 0.33437 0.88847 0.0
N117 N 0.18208 0.32326 0.87763 0.0
C118 C 0.1551 0.31459 0.8788 0.0
C119 C 0.18183 0.34989 0.88648 0.0
C120 C 0.15464 0.35666 0.89312 0.0
O121 O 0.08768 0.29445 0.88233 0.0
C122 C 0.09924 0.3546 0.94615 0.0
O123 O 0.09848 0.37717 0.93193 0.0
H124 H 0.14823 0.29369 0.87397 0.0
H125 H 0.14771 0.37603 0.90178 0.0
N126 N 0.07881 0.35864 0.88444 0.0
N127 N 0.04611 0.39172 0.87902 0.0
C128 C 0.05444 0.36954 0.8931 0.0
C129 C 0.08581 0.37408 0.86399 0.0
C130 C 0.0658 0.39443 0.86061 0.0
C131 C 0.09868 0.2705 0.88599 0.0
O132 O 0.11633 0.26735 0.90488 0.0
H133 H 0.04373 0.36207 0.90999 0.0
H134 H 0.10447 0.371 0.85257 0.0
O135 O 0.09945 0.33055 0.93543 0.0
H136 H 0.20005 0.36329 0.8888 0.0
H137 H 0.0659 0.41008 0.84574 0.0
Cu138 Cu 0.18731 0.11885 0.38694 0.0
N139 N 0.22347 0.13043 0.39605 0.0
N140 N 0.25287 0.16661 0.40343 0.0
C141 C 0.22684 0.15589 0.40687 0.0
C142 C 0.26667 0.14664 0.39008 0.0
C143 C 0.24843 0.12448 0.38536 0.0
O144 O 0.18411 0.13643 0.35334 0.0
C145 C 0.17196 0.11792 0.436 0.0
O146 O 0.19116 0.09841 0.43363 0.0
H147 H 0.20933 0.16785 0.41415 0.0
H148 H 0.2522 0.10696 0.37272 0.0
N149 N 0.17942 0.08016 0.38443 0.0
N150 N 0.1515 0.04205 0.38268 0.0
C151 C 0.15292 0.07019 0.38562 0.0
C152 C 0.19564 0.05752 0.38066 0.0
C153 C 0.17844 0.03397 0.37947 0.0
C154 C 0.18538 0.1215 0.33313 0.0
O155 O 0.17762 0.09508 0.33431 0.0
H156 H 0.13492 0.08368 0.38794 0.0
H157 H 0.21823 0.05811 0.37862 0.0
O158 O 0.16486 0.13146 0.41606 0.0
H159 H 0.28774 0.14869 0.38254 0.0
H160 H 0.18531 1.0126 0.37655 0.0
Cu161 Cu 0.42466 0.18011 0.88671 0.0
N162 N 0.38764 0.17688 0.87569 0.0
N163 N 0.34453 0.19196 0.8665 0.0
C164 C 0.37056 0.19913 0.87415 0.0
C165 C 0.34522 0.16384 0.86323 0.0
C166 C 0.37195 0.15457 0.86889 0.0
O167 O 0.43737 0.21549 0.87133 0.0
C168 C 0.44057 0.18623 0.93978 0.0
O169 O 0.46475 0.19641 0.93191 0.0
H170 H 0.37708 0.22017 0.87929 0.0
H171 H 0.37928 0.13315 0.86837 0.0
N172 N 0.44692 0.14986 0.87575 0.0
N173 N 0.48167 0.11848 0.87345 0.0
C174 C 0.46986 0.13932 0.88725 0.0
C175 C 0.44399 0.13482 0.8542 0.0
C176 C 0.46546 0.11565 0.85264 0.0
C177 C 0.43464 0.21601 0.84718 0.0
O178 O 0.42723 0.19267 0.83565 0.0
H179 H 0.4781 0.14715 0.90506 0.0
H180 H 0.42748 0.13769 0.84043 0.0
O181 O 0.42193 0.17958 0.9236 0.0
H182 H 0.32775 0.15088 0.85722 0.0
H183 H 0.46877 0.1006 0.83748 0.0
Cu184 Cu 0.67168 0.9128 0.88805 0.0
N185 N 0.7059 0.89562 0.89563 0.0
N186 N 0.7343 0.8589 0.90164 0.0
C187 C 0.70768 0.86762 0.89844 0.0
C188 C 0.75005 0.88258 0.90067 0.0
C189 C 0.73245 0.90523 0.89692 0.0
O190 O 0.66914 0.91072 0.85075 0.0
C191 C 0.65162 0.89401 0.93263 0.0
O192 O 0.67452 0.90791 0.93866 0.0
H193 H 0.68965 0.85381 0.89707 0.0
H194 H 0.73868 0.92692 0.89458 0.0
N195 N 0.66742 0.95052 0.89787 0.0
N196 N 0.64471 0.99124 0.90242 0.0
C197 C 0.64248 0.96365 0.89698 0.0
C198 C 0.68616 0.97046 0.90452 0.0
C199 C 0.6722 0.99572 0.90708 0.0
C200 C 0.68307 0.92972 0.83898 0.0
O201 O 0.6959 0.94917 0.85234 0.0
H202 H 0.6232 0.95334 0.89129 0.0
H203 H 0.70846 0.96716 0.90642 0.0
O204 O 0.64435 0.89273 0.90927 0.0
H205 H 0.77265 0.88353 0.90223 0.0
H206 H 0.68157 1.01584 0.91165 0.0
Cu207 Cu 0.60319 0.69338 0.39673 0.0
N208 N 0.61667 0.72846 0.40732 0.0
N209 N 0.64803 0.76355 0.40978 0.0
C210 C 0.64158 0.73854 0.39921 0.0
C211 C 0.62614 0.76958 0.42522 0.0
C212 C 0.60689 0.74774 0.42383 0.0
O213 O 0.61029 0.69423 0.35987 0.0
C214 C 0.61664 0.66319 0.4399 0.0
O215 O 0.59399 0.67633 0.44761 0.0
H216 H 0.65479 0.72752 0.38574 0.0
H217 H 0.58757 0.74584 0.43454 0.0
N218 N 0.56438 0.68747 0.4027 0.0
N219 N 0.52261 0.66557 0.40667 0.0
C220 C 0.5504 0.66271 0.40167 0.0
C221 C 0.54475 0.70665 0.40846 0.0
C222 C 0.51914 0.69331 0.4109 0.0
C223 C 0.5949 0.7115 0.34779 0.0
O224 O 0.57481 0.72429 0.36035 0.0
H225 H 0.56058 0.64299 0.39757 0.0
H226 H 0.54862 0.72892 0.41028 0.0
O227 O 0.62469 0.66638 0.41687 0.0
H228 H 0.62458 0.78797 0.43725 0.0
H229 H 0.4994 0.70351 0.41495 0.0
Cu230 Cu 0.85728 0.60321 0.8925 0.0
N231 N 0.82225 0.61962 0.89856 0.0
N232 N 0.79337 0.65631 0.90277 0.0
C233 C 0.81813 0.647 0.89365 0.0
C234 C 0.78126 0.63368 0.91382 0.0
C235 C 0.79912 0.61103 0.91117 0.0
O236 O 0.86346 0.60804 0.85575 0.0
C237 C 0.87376 0.61675 0.93988 0.0
O238 O 0.85192 0.60017 0.94307 0.0
H239 H 0.83396 0.66024 0.88491 0.0
H240 H 0.79604 0.59032 0.91904 0.0
N241 N 0.86111 0.5647 0.89936 0.0
N242 N 0.88419 0.52399 0.90247 0.0
C243 C 0.88608 0.55177 0.89767 0.0
C244 C 0.84253 0.54443 0.90553 0.0
C245 C 0.85671 0.51925 0.90737 0.0
C246 C 0.84867 0.59109 0.84241 0.0
O247 O 0.83254 0.57285 0.85423 0.0
H248 H 0.90521 0.5626 0.8923 0.0
H249 H 0.82026 0.54754 0.90808 0.0
O250 O 0.88202 0.62178 0.91714 0.0
H251 H 0.76129 0.63362 0.9237 0.0
H252 H 0.84749 0.49909 0.91198 0.0
Cu253 Cu 0.91195 0.87319 0.38085 0.0
N254 N 0.8741 0.87602 0.3714 0.0
N255 N 0.82799 0.86639 0.37237 0.0
C256 C 0.85239 0.86618 0.38537 0.0
C257 C 0.83461 0.87718 0.34937 0.0
C258 C 0.86307 0.88287 0.34876 0.0
O259 O 0.92697 0.83969 0.36394 0.0
C260 C 0.90284 0.89504 0.42841 0.0
O261 O 0.89671 0.91635 0.41367 0.0
H262 H 0.85483 0.85762 0.40427 0.0
H263 H 0.87509 0.88982 0.33243 0.0
N264 N 0.93333 0.90457 0.37036 0.0
N265 N 0.96869 0.93579 0.36691 0.0
C266 C 0.96022 0.91072 0.37648 0.0
C267 C 0.92456 0.92642 0.35642 0.0
C268 C 0.9462 0.94557 0.35423 0.0
C269 C 0.91192 0.81793 0.35981 0.0
O270 O 0.88691 0.81624 0.37027 0.0
H271 H 0.973 0.89744 0.38835 0.0
H272 H 0.9037 0.92862 0.34876 0.0
O273 O 0.91156 0.87247 0.418 0.0
H274 H 0.82033 0.87904 0.33352 0.0
H275 H 0.94532 0.96525 0.34405 0.0
Cu276 Cu 0.7056 0.59993 0.65237 0.0
N277 N 0.7016 0.63842 0.65891 0.0
N278 N 0.71313 0.68316 0.66726 0.0
C279 C 0.72092 0.65602 0.66887 0.0
C280 C 0.68754 0.68249 0.6563 0.0
C281 C 0.68052 0.65493 0.65121 0.0
O282 O 0.7384 0.58691 0.67117 0.0
C283 C 0.71517 0.61274 0.59993 0.0
O284 O 0.72975 0.63398 0.60896 0.0
H285 H 0.74096 0.64928 0.67595 0.0
H286 H 0.66194 0.6475 0.6415 0.0
N287 N 0.6745 0.58055 0.66571 0.0
N288 N 0.64279 0.54676 0.67397 0.0
C289 C 0.66445 0.55504 0.65893 0.0
C290 C 0.65862 0.5887 0.68556 0.0
C291 C 0.63911 0.568 0.69069 0.0
C292 C 0.76326 0.59684 0.66987 0.0
O293 O 0.7699 0.61418 0.65138 0.0
H294 H 0.67338 0.5425 0.64377 0.0
H295 H 0.66135 0.60821 0.69582 0.0
O296 O 0.70546 0.59448 0.61539 0.0
H297 H 0.67508 0.70062 0.65156 0.0
H298 H 0.62337 0.5686 0.70558 0.0
Cu299 Cu 0.96238 0.70923 0.15329 0.0
N300 N 0.94909 0.7455 0.14742 0.0
N301 N 0.91621 0.77888 0.14517 0.0
C302 C 0.92178 0.75178 0.15048 0.0
C303 C 0.94131 0.79016 0.13856 0.0
C304 C 0.96157 0.76949 0.13992 0.0
O305 O 0.94852 0.70195 0.18791 0.0
C306 C 0.95521 0.69468 0.10355 0.0
O307 O 0.97312 0.7157 0.10223 0.0
H308 H 0.90636 0.73657 0.15683 0.0
H309 H 0.98366 0.77177 0.13557 0.0
N310 N 1.00161 0.70507 0.15164 0.0
N311 N 0.04279 0.68263 0.14947 0.0
C312 C 1.01472 0.6807 0.14633 0.0
C313 C 1.02214 0.7232 0.1581 0.0
C314 C 0.04755 0.70938 0.15689 0.0
C315 C 0.96493 0.70156 0.20705 0.0
O316 O 0.9919 0.6981 0.20319 0.0
H317 H 1.00368 0.66154 0.14142 0.0
H318 H 1.01877 0.74457 0.16429 0.0
O319 O 0.94685 0.68671 0.12552 0.0
H320 H 0.94481 0.81167 0.13277 0.0
H321 H 0.06788 0.71822 0.16144 0.0
Cu322 Cu 0.85095 0.92986 0.66448 0.0
N323 N 0.85705 0.89245 0.67392 0.0
N324 N 0.84374 0.84794 0.68113 0.0
C325 C 0.83746 0.87535 0.68418 0.0
C326 C 0.86904 0.8479 0.66943 0.0
C327 C 0.87715 0.87533 0.66499 0.0
O328 O 0.81566 0.94137 0.68049 0.0
C329 C 0.84429 0.91093 0.61338 0.0
O330 O 0.83182 0.88928 0.62403 0.0
H331 H 0.81801 0.88284 0.69212 0.0
H332 H 0.89492 0.88215 0.65368 0.0
N333 N 0.8795 0.9533 0.67707 0.0
N334 N 0.90928 0.9896 0.68158 0.0
C335 C 0.89108 0.97617 0.66594 0.0
C336 C 0.89087 0.95214 0.7004 0.0
C337 C 0.90917 0.97443 0.70325 0.0
C338 C 0.79186 0.92966 0.67695 0.0
O339 O 0.78908 0.91129 0.65846 0.0
H340 H 0.88552 0.98336 0.64712 0.0
H341 H 0.8857 0.93648 0.71456 0.0
O342 O 0.85197 0.93152 0.6273 0.0
H343 H 0.87969 0.82948 0.6623 0.0
H344 H 0.92141 0.97914 0.72004 0.0
Cu345 Cu 0.64159 0.87501 0.1635 0.0
N346 N 0.68073 0.87972 0.16002 0.0
N347 N 0.72703 0.87221 0.15572 0.0
C348 C 0.70155 0.86058 0.16077 0.0
C349 C 0.72186 0.89967 0.15177 0.0
C350 C 0.69351 0.90415 0.1543 0.0
O351 O 0.63292 0.8459 0.18867 0.0
C352 C 0.62523 0.88703 0.11367 0.0
O353 O 0.63233 0.9124 0.12115 0.0
H354 H 0.69804 0.83852 0.16425 0.0
H355 H 0.68283 0.9239 0.1518 0.0
N356 N 0.62646 0.90876 0.17634 0.0
N357 N 0.59858 0.94526 0.18585 0.0
C358 C 0.60128 0.92104 0.17242 0.0
C359 C 0.6399 0.92568 0.1928 0.0
C360 C 0.62301 0.94809 0.19855 0.0
C361 C 0.6391 0.81992 0.18773 0.0
O362 O 0.65177 0.80987 0.16746 0.0
H363 H 0.58522 0.9122 0.16026 0.0
H364 H 0.66069 0.92193 0.20015 0.0
O365 O 0.62677 0.86693 0.12956 0.0
H366 H 0.73742 0.91557 0.14738 0.0
H367 H 0.6286 0.96532 0.211 0.0
H368 H 0.47353 0.20058 0.98049 0.0
H369 H 0.3958 0.15878 0.96123 0.0
H370 H 0.46553 0.18972 1.02522 0.0
H371 H 0.38827 0.14707 1.00577 0.0
H372 H 0.37073 0.15513 0.09204 0.0
H373 H 0.37685 0.16525 0.04674 0.0
H374 H 0.46601 0.15146 0.05379 0.0
H375 H 0.45993 0.14234 0.09893 0.0
C376 C 0.45477 0.18902 0.98577 0.0
C377 C 0.43537 0.18057 0.9672 0.0
C378 C 0.45025 0.18255 1.01145 0.0
C379 C 0.42632 0.16725 1.01923 0.0
C380 C 0.40676 0.15912 1.00064 0.0
C381 C 0.41118 0.16575 0.975 0.0
C382 C 0.39154 0.15391 0.08377 0.0
C383 C 0.41485 0.14808 0.0991 0.0
C384 C 0.3951 0.15973 0.05779 0.0
C385 C 0.42203 0.15963 0.04656 0.0
C386 C 0.44508 0.15255 0.06181 0.0
C387 C 0.44155 0.14702 0.0877 0.0
H388 H 0.39289 0.46517 0.48679 0.0
H389 H 0.39648 0.37947 0.46048 0.0
H390 H 0.41018 0.45098 0.52825 0.0
H391 H 0.41336 0.36493 0.50241 0.0
H392 H 0.45959 0.35106 0.57693 0.0
H393 H 0.45021 0.36715 0.53403 0.0
H394 H 0.38966 0.42598 0.5637 0.0
H395 H 0.3995 0.41016 0.60695 0.0
C396 C 0.39798 0.44329 0.48978 0.0
C397 C 0.39335 0.42338 0.47048 0.0
C398 C 0.40754 0.43513 0.51365 0.0
C399 C 0.41254 0.40675 0.5189 0.0
C400 C 0.40975 0.387 0.499 0.0
C401 C 0.40028 0.39528 0.47492 0.0
C402 C 0.44433 0.36755 0.57441 0.0
C403 C 0.4302 0.3793 0.59544 0.0
C404 C 0.43888 0.37665 0.54971 0.0
C405 C 0.41916 0.39778 0.54532 0.0
C406 C 0.4053 0.40989 0.5664 0.0
C407 C 0.4108 0.40077 0.5912 0.0
H408 H 0.13408 0.32566 0.97814 0.0
H409 H 0.0741 0.39295 0.97624 0.0
H410 H 0.14969 0.34144 1.02029 0.0
H411 H 0.08873 0.40805 1.01845 0.0
H412 H 0.1596 0.4555 0.05996 0.0
H413 H 0.13235 0.43193 0.02749 0.0
H414 H 0.14208 0.35312 0.06682 0.0
H415 H 0.16987 0.3773 0.09985 0.0
C416 C 0.12345 0.34307 0.9872 0.0
C417 C 0.10313 0.35832 0.97386 0.0
C418 C 0.13236 0.35213 1.01134 0.0
C419 C 0.12089 0.37642 1.02253 0.0
C420 C 0.09851 0.38971 1.01016 0.0
C421 C 0.08998 0.38097 0.98603 0.0
C422 C 0.15546 0.43324 0.06203 0.0
C423 C 0.16681 0.41826 0.08244 0.0
C424 C 0.13964 0.41968 0.04345 0.0
C425 C 0.13485 0.39057 0.04451 0.0
C426 C 0.14542 0.37556 0.06543 0.0
C427 C 0.16107 0.38938 0.08443 0.0
H428 H 0.13611 0.20652 0.57564 0.0
H429 H 0.12966 0.12006 0.59918 0.0
H430 H 0.14514 0.19189 0.53221 0.0
H431 H 0.13771 0.10509 0.5551 0.0
H432 H 0.18345 0.0898 0.47946 0.0
H433 H 0.17168 0.10223 0.52274 0.0
H434 H 0.12406 0.17286 0.4955 0.0
H435 H 0.13707 0.16092 0.45167 0.0
C436 C 0.13659 0.18425 0.57146 0.0
C437 C 0.13223 0.1644 0.59085 0.0
C438 C 0.14143 0.17586 0.5464 0.0
C439 C 0.14172 0.1473 0.53984 0.0
C440 C 0.13785 0.12731 0.55939 0.0
C441 C 0.13332 0.13579 0.58469 0.0
C442 C 0.17033 0.10797 0.48254 0.0
C443 C 0.16145 0.12457 0.46197 0.0
C444 C 0.16335 0.11495 0.50755 0.0
C445 C 0.14704 0.13867 0.51287 0.0
C446 C 0.13715 0.15472 0.49222 0.0
C447 C 0.14435 0.14779 0.46704 0.0
H448 H 0.61072 0.92601 0.07854 0.0
H449 H 0.6252 0.83721 0.08693 0.0
H450 H 0.60775 0.92032 0.03278 0.0
H451 H 0.62182 0.83134 0.04071 0.0
H452 H 0.66875 0.85224 0.96288 0.0
H453 H 0.6537 0.845 1.00666 0.0
H454 H 0.58492 0.90214 0.99515 0.0
H455 H 0.60054 0.90954 0.95117 0.0
C456 C 0.61268 0.9051 0.07064 0.0
C457 C 0.6186 0.88213 0.08641 0.0
C458 C 0.61066 0.90177 0.04429 0.0
C459 C 0.61464 0.87536 0.03289 0.0
C460 C 0.61889 0.85203 0.04881 0.0
C461 C 0.62071 0.85535 0.07531 0.0
C462 C 0.64954 0.86207 0.96935 0.0
C463 C 0.6356 0.88117 0.95362 0.0
C464 C 0.64093 0.85803 0.99454 0.0
C465 C 0.61835 0.87336 1.00468 0.0
C466 C 0.60266 0.89031 0.98808 0.0
C467 C 0.61126 0.89422 0.96275 0.0
H468 H 0.67637 0.57848 0.57667 0.0
H469 H 0.73209 0.64842 0.56199 0.0
H470 H 0.65531 0.58462 0.53481 0.0
H471 H 0.71083 0.65472 0.52033 0.0
H472 H 0.67379 0.65437 0.44096 0.0
H473 H 0.70114 0.63663 0.47696 0.0
H474 H 0.62431 0.62084 0.51849 0.0
H475 H 0.59735 0.63832 0.48285 0.0
C476 C 0.68453 0.59483 0.56437 0.0
C477 C 0.70577 0.61313 0.57291 0.0
C478 C 0.67231 0.59846 0.54038 0.0
C479 C 0.68112 0.62038 0.52423 0.0
C480 C 0.7036 0.6375 0.53211 0.0
C481 C 0.71572 0.63397 0.55614 0.0
C482 C 0.66282 0.64642 0.45755 0.0
C483 C 0.63341 0.64783 0.45908 0.0
C484 C 0.67846 0.6365 0.47828 0.0
C485 C 0.66497 0.62738 0.50075 0.0
C486 C 0.63549 0.62734 0.5015 0.0
C487 C 0.61998 0.63755 0.48105 0.0
H488 H 0.85063 0.62081 0.98675 0.0
H489 H 0.92666 0.64045 0.94538 0.0
H490 H 0.87123 0.63845 1.02557 0.0
H491 H 0.94802 0.65753 0.98495 0.0
H492 H 0.96499 0.71285 0.05524 0.0
H493 H 0.94677 0.69412 1.01565 0.0
H494 H 0.9042 0.62827 0.05729 0.0
H495 H 0.92172 0.64782 0.09724 0.0
C496 C 0.87195 0.62874 0.98596 0.0
C497 C 0.88705 0.62909 0.96288 0.0
C498 C 0.8839 0.63867 1.00842 0.0
C499 C 0.91151 0.64909 1.0087 0.0
C500 C 0.92662 0.64983 0.98551 0.0
C501 C 0.91445 0.64003 0.96279 0.0
C502 C 0.95178 0.6943 0.05604 0.0
C503 C 0.94466 0.68195 0.07954 0.0
C504 C 0.94149 0.6834 0.03318 0.0
C505 C 0.92389 0.65967 0.03306 0.0
C506 C 0.91727 0.6469 0.05657 0.0
C507 C 0.92742 0.65799 0.07954 0.0
H508 H 0.90345 0.85328 0.46466 0.0
H509 H 0.88857 0.94189 0.45492 0.0
H510 H 0.89011 0.85736 0.50958 0.0
H511 H 0.87478 0.94581 0.49925 0.0
H512 H 0.87555 0.9489 0.58593 0.0
H513 H 0.89198 0.94451 0.54209 0.0
H514 H 0.8482 0.86527 0.53518 0.0
H515 H 0.83224 0.86938 0.5791 0.0
C516 C 0.89755 0.87362 0.47211 0.0
C517 C 0.89706 0.89721 0.45614 0.0
C518 C 0.88966 0.87594 0.49779 0.0
C519 C 0.88123 0.90193 0.50808 0.0
C520 C 0.88143 0.92555 0.49216 0.0
C521 C 0.88921 0.92323 0.46661 0.0
C522 C 0.86925 0.93064 0.57502 0.0
C523 C 0.85247 0.90957 0.58608 0.0
C524 C 0.87868 0.9281 0.54984 0.0
C525 C 0.87156 0.90444 0.53506 0.0
C526 C 0.85453 0.88353 0.54608 0.0
C527 C 0.84511 0.88606 0.57123 0.0
H528 H 0.27084 0.35533 0.11613 0.0
H529 H 0.34097 0.40534 0.14178 0.0
H530 H 0.29582 0.3127 0.12744 0.0
H531 H 0.36584 0.36283 0.15367 0.0
H532 H 0.41245 0.27893 0.1526 0.0
H533 H 0.38911 0.32174 0.13897 0.0
H534 H 0.30956 0.2875 0.16409 0.0
H535 H 0.33289 0.24465 0.17716 0.0
C536 C 0.29162 0.35718 0.1242 0.0
C537 C 0.30386 0.38373 0.12807 0.0
C538 C 0.30592 0.33275 0.13085 0.0
C539 C 0.33281 0.3342 0.14177 0.0
C540 C 0.34534 0.36078 0.14505 0.0
C541 C 0.33108 0.38523 0.13821 0.0
C542 C 0.39002 0.28067 0.15539 0.0
C543 C 0.37453 0.2583 0.16589 0.0
C544 C 0.37659 0.30524 0.14756 0.0
C545 C 0.34734 0.30814 0.15021 0.0
C546 C 0.33199 0.28587 0.16114 0.0
C547 C 0.34537 0.26128 0.16877 0.0
H548 H 0.33685 0.31359 0.69709 0.0
H549 H 0.35236 0.25888 0.63314 0.0
H550 H 0.2872 0.30131 0.69598 0.0
H551 H 0.30258 0.24688 0.63163 0.0
H552 H 0.21683 0.21004 0.65126 0.0
H553 H 0.26621 0.22218 0.6526 0.0
H554 H 0.24503 0.3074 0.6727 0.0
H555 H 0.19538 0.2948 0.67266 0.0
C556 C 0.32963 0.29906 0.68265 0.0
C557 C 0.34871 0.28728 0.66518 0.0
C558 C 0.30104 0.29207 0.68193 0.0
C559 C 0.29057 0.27317 0.66362 0.0
C560 C 0.30975 0.26119 0.64627 0.0
C561 C 0.3384 0.26806 0.64711 0.0
C562 C 0.22251 0.23132 0.65628 0.0
C563 C 0.20176 0.2513 0.66214 0.0
C564 C 0.25106 0.23842 0.65669 0.0
C565 C 0.25991 0.26581 0.66279 0.0
C566 C 0.23919 0.28596 0.66828 0.0
C567 C 0.21055 0.27881 0.66796 0.0
H568 H 0.2942 0.34138 0.3778 0.0
H569 H 0.27864 0.33876 0.45864 0.0
H570 H 0.2856 0.29107 0.37493 0.0
H571 H 0.27067 0.28823 0.45604 0.0
H572 H 0.23072 0.20269 0.43813 0.0
H573 H 0.24001 0.25263 0.44227 0.0
H574 H 0.30426 0.24667 0.38432 0.0
H575 H 0.29378 0.19697 0.37916 0.0
C576 C 0.28908 0.33001 0.39502 0.0
C577 C 0.28712 0.34422 0.41844 0.0
C578 C 0.28431 0.30101 0.39343 0.0
C579 C 0.27764 0.28521 0.41527 0.0
C580 C 0.27538 0.29954 0.4387 0.0
C581 C 0.27994 0.32863 0.44023 0.0
C582 C 0.24676 0.21197 0.42615 0.0
C583 C 0.26116 0.19556 0.40804 0.0
C584 C 0.25236 0.24074 0.42874 0.0
C585 C 0.27275 0.25408 0.41348 0.0
C586 C 0.28796 0.23744 0.39607 0.0
C587 C 0.28223 0.20866 0.39336 0.0
H588 H 0.34637 0.2476 0.856 0.0
H589 H 0.28911 0.17901 0.87107 0.0
H590 H 0.30727 0.28017 0.85575 0.0
H591 H 0.24985 0.21168 0.8706 0.0
H592 H 0.18332 0.27568 0.84894 0.0
H593 H 0.22261 0.24377 0.84342 0.0
H594 H 0.27501 0.29929 0.88782 0.0
H595 H 0.23577 0.33101 0.89367 0.0
C596 C 0.32544 0.23943 0.85931 0.0
C597 C 0.32098 0.21067 0.86394 0.0
C598 C 0.30301 0.25814 0.85911 0.0
C599 C 0.27546 0.2486 0.8634 0.0
C600 C 0.2708 0.21969 0.86703 0.0
C601 C 0.29331 0.20094 0.8673 0.0
C602 C 0.20317 0.28114 0.85757 0.0
C603 C 0.20615 0.30594 0.87198 0.0
C604 C 0.22572 0.26279 0.85438 0.0
C605 C 0.25191 0.26887 0.8653 0.0
C606 C 0.25521 0.29411 0.87891 0.0
C607 C 0.23263 0.31239 0.88222 0.0
H608 H 0.70392 0.81423 0.91856 0.0
H609 H 0.78564 0.83769 0.88958 0.0
H610 H 0.7177 0.76526 0.91872 0.0
H611 H 0.79994 0.78869 0.8909 0.0
H612 H 0.80555 0.69642 0.86795 0.0
H613 H 0.79184 0.74551 0.86888 0.0
H614 H 0.74622 0.73108 0.93888 0.0
H615 H 0.75973 0.68179 0.93769 0.0
C616 C 0.72489 0.80901 0.91227 0.0
C617 C 0.7435 0.83007 0.90373 0.0
C618 C 0.73294 0.78083 0.91268 0.0
C619 C 0.75992 0.7728 0.90467 0.0
C620 C 0.77882 0.79394 0.89679 0.0
C621 C 0.77073 0.82218 0.89633 0.0
C622 C 0.79267 0.70372 0.88359 0.0
C623 C 0.78383 0.68508 0.90277 0.0
C624 C 0.78488 0.73198 0.8842 0.0
C625 C 0.76807 0.74251 0.90407 0.0
C626 C 0.75891 0.72376 0.92311 0.0
C627 C 0.76662 0.69541 0.92243 0.0
H628 H 0.6546 0.82022 0.41127 0.0
H629 H 0.69964 0.74295 0.39972 0.0
H630 H 0.69804 0.84688 0.40365 0.0
H631 H 0.74266 0.76937 0.39186 0.0
H632 H 0.82024 0.8227 0.40473 0.0
H633 H 0.77623 0.79934 0.41545 0.0
H634 H 0.73152 0.85686 0.36725 0.0
H635 H 0.77576 0.88068 0.3568 0.0
C636 C 0.67376 0.80895 0.40724 0.0
C637 C 0.67361 0.77947 0.406 0.0
C638 C 0.69857 0.8242 0.40268 0.0
C639 C 0.72384 0.81025 0.39718 0.0
C640 C 0.72367 0.78078 0.39627 0.0
C641 C 0.6989 0.76562 0.40053 0.0
C642 C 0.80105 0.83074 0.39672 0.0
C643 C 0.80161 0.85364 0.37988 0.0
C644 C 0.7758 0.81712 0.40267 0.0
C645 C 0.75035 0.82611 0.3921 0.0
C646 C 0.75073 0.8495 0.37583 0.0
C647 C 0.77609 0.863 0.36967 0.0
H648 H 0.85692 0.79261 0.68453 0.0
H649 H 0.78654 0.84936 0.68309 0.0
H650 H 0.82445 0.75282 0.68351 0.0
H651 H 0.75445 0.80987 0.68317 0.0
H652 H 0.70922 0.73498 0.64617 0.0
H653 H 0.74045 0.77475 0.65263 0.0
H654 H 0.78821 0.72678 0.70672 0.0
H655 H 0.7568 0.68682 0.70031 0.0
C656 C 0.83462 0.79668 0.6843 0.0
C657 C 0.82459 0.82438 0.68373 0.0
C658 C 0.81596 0.77383 0.68396 0.0
C659 C 0.78679 0.77811 0.68301 0.0
C660 C 0.77677 0.80576 0.68347 0.0
C661 C 0.79534 0.82854 0.68379 0.0
C662 C 0.72601 0.73295 0.6598 0.0
C663 C 0.7304 0.70751 0.67265 0.0
C664 C 0.74401 0.75584 0.6635 0.0
C665 C 0.76692 0.75401 0.68019 0.0
C666 C 0.77103 0.7288 0.69345 0.0
C667 C 0.75297 0.70587 0.68977 0.0
H668 H 0.90552 0.83467 0.15064 0.0
H669 H 0.86475 0.75402 0.14235 0.0
H670 H 0.85974 0.85711 0.15345 0.0
H671 H 0.81918 0.77639 0.14527 0.0
H672 H 0.74245 0.82277 0.17742 0.0
H673 H 0.78826 0.80029 0.17502 0.0
H674 H 0.81904 0.86785 0.12778 0.0
H675 H 0.77346 0.89018 0.13005 0.0
C676 C 0.88689 0.8217 0.14923 0.0
C677 C 0.88907 0.79243 0.14638 0.0
C678 C 0.86055 0.83459 0.15086 0.0
C679 C 0.83564 0.81859 0.1497 0.0
C680 C 0.83783 0.78937 0.14673 0.0
C681 C 0.86411 0.7765 0.14505 0.0
C682 C 0.75887 0.83275 0.16636 0.0
C683 C 0.75406 0.85846 0.15407 0.0
C684 C 0.78523 0.81984 0.16498 0.0
C685 C 0.80751 0.83229 0.15129 0.0
C686 C 0.80263 0.85789 0.13891 0.0
C687 C 0.77633 0.87074 0.14024 0.0
H688 H 0.19617 0.09276 0.28911 0.0
H689 H 0.21656 0.17007 0.32804 0.0
H690 H 0.23358 0.10151 0.25859 0.0
H691 H 0.25334 0.17948 0.29676 0.0
H692 H 0.34075 0.16571 0.26371 0.0
H693 H 0.29845 0.16177 0.28902 0.0
H694 H 0.2546 0.12662 0.2245 0.0
H695 H 0.29779 0.12982 0.19912 0.0
C696 C 0.20813 0.11207 0.29079 0.0
C697 C 0.20344 0.13053 0.31134 0.0
C698 C 0.22964 0.11715 0.27311 0.0
C699 C 0.24705 0.14096 0.27532 0.0
C700 C 0.24095 0.1605 0.29476 0.0
C701 C 0.21952 0.15532 0.31257 0.0
C702 C 0.32214 0.15716 0.25476 0.0
C703 C 0.32283 0.14801 0.22929 0.0
C704 C 0.29761 0.15519 0.26931 0.0
C705 C 0.27274 0.14416 0.25891 0.0
C706 C 0.27332 0.13505 0.23332 0.0
C707 C 0.29809 0.13691 0.2187 0.0
H708 H 0.39279 0.3408 0.73558 0.0
H709 H 0.47179 0.3712 0.76518 0.0
H710 H 0.39095 0.30545 0.76893 0.0
H711 H 0.4699 0.33554 0.79849 0.0
H712 H 0.44599 0.27053 0.86316 0.0
H713 H 0.44376 0.31349 0.83722 0.0
H714 H 0.42235 0.2635 0.7715 0.0
H715 H 0.4248 0.22132 0.79673 0.0
C716 C 0.40943 0.34049 0.74954 0.0
C717 C 0.43269 0.35862 0.74734 0.0
C718 C 0.40844 0.32007 0.7686 0.0
C719 C 0.43058 0.31733 0.78603 0.0
C720 C 0.45256 0.33708 0.78533 0.0
C721 C 0.45363 0.35749 0.76616 0.0
C722 C 0.441 0.26882 0.84314 0.0
C723 C 0.43555 0.24241 0.83212 0.0
C724 C 0.43964 0.29338 0.82834 0.0
C725 C 0.43232 0.29192 0.80241 0.0
C726 C 0.42735 0.26548 0.79151 0.0
C727 C 0.42905 0.24117 0.80605 0.0
H728 H 0.22827 0.42504 0.22228 0.0
H729 H 0.29169 0.48595 0.20129 0.0
H730 H 0.25325 0.41636 0.26226 0.0
H731 H 0.31677 0.47667 0.24018 0.0
H732 H 0.33049 0.48297 0.32619 0.0
H733 H 0.3106 0.487 0.28389 0.0
H734 H 0.29591 0.39744 0.28216 0.0
H735 H 0.31568 0.39375 0.32519 0.0
C736 C 0.24748 0.4365 0.22613 0.0
C737 C 0.25764 0.45653 0.20873 0.0
C738 C 0.26199 0.43131 0.24888 0.0
C739 C 0.287 0.44595 0.25457 0.0
C740 C 0.29734 0.4654 0.23678 0.0
C741 C 0.28284 0.47072 0.21436 0.0
C742 C 0.32397 0.46403 0.31635 0.0
C743 C 0.32532 0.43799 0.32855 0.0
C744 C 0.31238 0.46629 0.29212 0.0
C745 C 0.30153 0.44254 0.2795 0.0
C746 C 0.30384 0.41619 0.2914 0.0
C747 C 0.31566 0.41394 0.31576 0.0
H748 H 0.06193 0.17711 0.74763 0.0
H749 H 0.15113 0.1921 0.74802 0.0
H750 H 0.05903 0.19052 0.79234 0.0
H751 H 0.14834 0.20629 0.79282 0.0
H752 H 0.13493 0.22711 0.87655 0.0
H753 H 0.13732 0.19772 0.83838 0.0
H754 H 0.06275 0.23753 0.80973 0.0
H755 H 0.0603 0.26661 0.84773 0.0
C756 C 0.08113 0.18215 0.75767 0.0
C757 C 0.1068 0.18322 0.7445 0.0
C758 C 0.07943 0.19027 0.78318 0.0
C759 C 0.10333 0.20011 0.79608 0.0
C760 C 0.12951 0.19872 0.78354 0.0
C761 C 0.13122 0.19037 0.75792 0.0
C762 C 0.11863 0.22907 0.86239 0.0
C763 C 0.09735 0.24923 0.86526 0.0
C764 C 0.12019 0.21238 0.84039 0.0
C765 C 0.10027 0.21519 0.82091 0.0
C766 C 0.07825 0.23441 0.82444 0.0
C767 C 0.07688 0.25124 0.84623 0.0
H768 H 0.68861 0.97432 0.80788 0.0
H769 H 0.69182 0.88393 0.80792 0.0
H770 H 0.70977 0.97537 0.7657 0.0
H771 H 0.71383 0.88487 0.76562 0.0
H772 H 0.74506 0.8965 0.68364 0.0
H773 H 0.71262 0.89633 0.71984 0.0
H774 H 0.75727 0.96677 0.75241 0.0
H775 H 0.78928 0.96717 0.71629 0.0
C776 C 0.69327 0.95458 0.79855 0.0
C777 C 0.68864 0.92904 0.81123 0.0
C778 C 0.7057 0.95519 0.77445 0.0
C779 C 0.71418 0.93027 0.76244 0.0
C780 C 0.70754 0.9045 0.77426 0.0
C781 C 0.69481 0.90389 0.79846 0.0
C782 C 0.7476 0.91232 0.69829 0.0
C783 C 0.76979 0.93194 0.69697 0.0
C784 C 0.72913 0.91202 0.71917 0.0
C785 C 0.73224 0.93151 0.73911 0.0
C786 C 0.75387 0.95168 0.73728 0.0
C787 C 0.77238 0.95187 0.71656 0.0
H788 H 0.55905 0.73671 0.31543 0.0
H789 H 0.64466 0.70835 0.32054 0.0
H790 H 0.56984 0.76035 0.27569 0.0
H791 H 0.65562 0.73244 0.28034 0.0
H792 H 0.65616 0.76559 0.19601 0.0
H793 H 0.64581 0.73577 0.23287 0.0
H794 H 0.59754 0.80277 0.26641 0.0
H795 H 0.60769 0.83236 0.22984 0.0
C796 C 0.58017 0.73518 0.30788 0.0
C797 C 0.60105 0.7208 0.32134 0.0
C798 C 0.58639 0.74895 0.28511 0.0
C799 C 0.61373 0.74884 0.27505 0.0
C800 C 0.63434 0.73297 0.28759 0.0
C801 C 0.62806 0.71908 0.31057 0.0
C802 C 0.64324 0.7739 0.21122 0.0
C803 C 0.63263 0.80139 0.20983 0.0
C804 C 0.63747 0.75684 0.23241 0.0
C805 C 0.62067 0.76675 0.25254 0.0
C806 C 0.61018 0.79424 0.2511 0.0
C807 C 0.61612 0.81131 0.23012 0.0
H808 H 0.84482 0.54705 0.81046 0.0
H809 H 0.84663 0.63749 0.81121 0.0
H810 H 0.82968 0.54727 0.76634 0.0
H811 H 0.8306 0.63788 0.76684 0.0
H812 H 0.81046 0.62762 0.68172 0.0
H813 H 0.83748 0.62633 0.72121 0.0
H814 H 0.78494 0.55848 0.74831 0.0
H815 H 0.75838 0.55954 0.70901 0.0
C816 C 0.84256 0.56704 0.80093 0.0
C817 C 0.84684 0.59225 0.8143 0.0
C818 C 0.83359 0.56718 0.77569 0.0
C819 C 0.82821 0.59256 0.76313 0.0
C820 C 0.83455 0.61791 0.77588 0.0
C821 C 0.84385 0.61775 0.80127 0.0
C822 C 0.80507 0.61204 0.69591 0.0
C823 C 0.78226 0.59358 0.69209 0.0
C824 C 0.8204 0.61151 0.71867 0.0
C825 C 0.81349 0.59231 0.73803 0.0
C826 C 0.79125 0.57329 0.73376 0.0
C827 C 0.77587 0.57395 0.71117 0.0
H828 H 0.96223 0.81371 0.3343 0.0
H829 H 0.88075 0.77419 0.34108 0.0
H830 H 0.97403 0.78172 0.29953 0.0
H831 H 0.89261 0.74228 0.30639 0.0
H832 H 0.91267 0.72099 0.22076 0.0
H833 H 0.90013 0.74611 0.25973 0.0
H834 H 0.98309 0.73182 0.28938 0.0
H835 H 0.99567 0.70678 0.25058 0.0
C836 C 0.94697 0.79799 0.32864 0.0
C837 C 0.92053 0.79663 0.34054 0.0
C838 C 0.95377 0.77956 0.30873 0.0
C839 C 0.93421 0.75946 0.30006 0.0
C840 C 0.90804 0.75767 0.31238 0.0
C841 C 0.90135 0.7759 0.33242 0.0
C842 C 0.92804 0.72263 0.23581 0.0
C843 C 0.95525 0.71193 0.23237 0.0
C844 C 0.92086 0.73709 0.25818 0.0
C845 C 0.94074 0.74135 0.27758 0.0
C846 C 0.96744 0.7294 0.27466 0.0
C847 C 0.97455 0.7148 0.25243 0.0
H848 H 0.46704 0.0589 0.23483 0.0
H849 H 0.47273 0.07308 0.15401 0.0
H850 H 0.50061 1.0209 0.23128 0.0
H851 H 0.50724 0.03533 0.15035 0.0
H852 H 0.55696 0.95237 0.15077 0.0
H853 H 0.5183 0.98597 0.15277 0.0
H854 H 0.54894 1.01602 0.22514 0.0
H855 H 0.58616 0.98194 0.22376 0.0
C856 C 0.4756 0.05394 0.21626 0.0
C857 C 0.46744 0.06929 0.19477 0.0
C858 C 0.49501 0.03215 0.21419 0.0
C859 C 0.50724 1.02519 0.19058 0.0
C860 C 0.49826 0.03987 0.16885 0.0
C861 C 0.4785 0.06158 0.17092 0.0
C862 C 0.55518 0.9659 0.16725 0.0
C863 C 0.57497 0.96437 0.18702 0.0
C864 C 0.53314 0.98543 0.16828 0.0
C865 C 0.53025 1.00384 0.18916 0.0
C866 C 0.54997 1.00202 0.20892 0.0
C867 C 0.57178 0.98259 0.20793 0.0
H868 H 0.61776 0.5198 0.71342 0.0
H869 H 0.63225 0.51423 0.63249 0.0
H870 H 0.58952 0.47707 0.71185 0.0
H871 H 0.60426 0.471 0.63095 0.0
H872 H 0.52188 0.41738 0.63629 0.0
H873 H 0.55445 0.45711 0.636 0.0
H874 H 0.59277 0.42616 0.70461 0.0
H875 H 0.55981 0.38668 0.7051 0.0
C876 C 0.61495 0.50944 0.69526 0.0
C877 C 0.62716 0.52063 0.67304 0.0
C878 C 0.59899 0.4847 0.69441 0.0
C879 C 0.59458 0.4705 0.67128 0.0
C880 C 0.60705 0.48149 0.64906 0.0
C881 C 0.62328 0.50615 0.64996 0.0
C882 C 0.53734 0.41898 0.65124 0.0
C883 C 0.53807 0.39888 0.67079 0.0
C884 C 0.55619 0.44165 0.65096 0.0
C885 C 0.57618 0.44499 0.67036 0.0
C886 C 0.57745 0.42444 0.68952 0.0
C887 C 0.55874 0.40161 0.68967 0.0
H888 H 0.16276 0.56188 0.09246 0.0
H889 H 0.16119 0.54595 0.17316 0.0
H890 H 0.12743 0.59835 0.09792 0.0
H891 H 0.12583 0.58281 0.17874 0.0
H892 H 0.08979 0.67481 0.17747 0.0
H893 H 0.12392 0.63682 0.17319 0.0
H894 H 0.07587 0.60172 0.11133 0.0
H895 H 0.04168 0.63959 0.11576 0.0
C896 C 0.15492 0.56626 0.1114 0.0
C897 C 0.16488 0.55109 0.1324 0.0
C898 C 0.13451 0.58702 0.1145 0.0
C899 C 0.12383 0.59353 0.13876 0.0
C900 C 0.13377 0.5784 0.15982 0.0
C901 C 0.15385 0.55719 0.15663 0.0
C902 C 0.08658 0.65904 0.16291 0.0
C903 C 0.06305 0.66029 0.14689 0.0
C904 C 0.10598 0.63714 0.16062 0.0
C905 C 0.10262 0.61623 0.14193 0.0
C906 C 0.07914 0.61756 0.12584 0.0
C907 C 0.05948 0.63916 0.12845 0.0
H908 H 0.92405 0.02937 0.71601 0.0
H909 H 0.92996 1.00815 0.63636 0.0
H910 H 0.9521 0.07157 0.70859 0.0
H911 H 0.95801 0.05063 0.62883 0.0
H912 H 0.03806 0.10789 0.63638 0.0
H913 H 1.00606 0.06791 0.64048 0.0
H914 H 0.95047 0.11807 0.68668 0.0
H915 H 0.98268 0.15808 0.68265 0.0
C916 C 0.93133 0.03372 0.69688 0.0
C917 C 0.92488 1.01523 0.6768 0.0
C918 C 0.94718 0.0581 0.69258 0.0
C919 C 0.95733 0.06456 0.66811 0.0
C920 C 0.95067 0.04622 0.64794 0.0
C921 C 0.93444 1.02198 0.6522 0.0
C922 C 1.01893 0.11043 0.64729 0.0
C923 C 1.01302 0.13616 0.65929 0.0
C924 C 1.00046 0.08757 0.64948 0.0
C925 C 0.97572 0.08969 0.66401 0.0
C926 C 0.96946 0.11563 0.67553 0.0
C927 C 0.98778 0.13865 0.67304 0.0
H928 H 0.47156 0.66772 0.43015 0.0
H929 H 0.52406 0.6138 0.38437 0.0
H930 H 0.43499 0.63197 0.43044 0.0
H931 H 0.4874 0.57793 0.38479 0.0
H932 H 0.42748 0.50911 0.41359 0.0
H933 H 0.46387 0.54498 0.41273 0.0
H934 H 0.40086 0.60875 0.40345 0.0
H935 H 0.36427 0.57273 0.4042 0.0
C936 C 0.47533 0.64839 0.41993 0.0
C937 C 0.501 0.64392 0.40715 0.0
C938 C 0.45421 0.62779 0.42009 0.0
C939 C 0.45805 0.60196 0.40759 0.0
C940 C 0.48374 0.59738 0.39493 0.0
C941 C 0.50487 0.61803 0.3947 0.0
C942 C 0.42123 0.53068 0.41106 0.0
C943 C 0.39268 0.53779 0.40882 0.0
C944 C 0.44225 0.55137 0.41058 0.0
C945 C 0.43547 0.57989 0.40794 0.0
C946 C 0.40694 0.58707 0.40584 0.0
C947 C 0.38587 0.56635 0.40626 0.0
H948 H 0.99702 0.37906 0.90331 0.0
H949 H 0.04117 0.44618 0.86494 0.0
H950 H 0.95728 0.41036 0.91083 0.0
H951 H 1.00144 0.47692 0.8717 0.0
H952 H 0.93949 0.53427 0.91028 0.0
H953 H 0.97813 0.50158 0.90585 0.0
H954 H 0.91952 0.435 0.88815 0.0
H955 H 0.88064 0.46793 0.8926 0.0
C956 C 0.99831 0.40043 0.8965 0.0
C957 C 1.02238 0.40998 0.88345 0.0
C958 C 0.9754 0.41831 0.9006 0.0
C959 C 0.97612 0.44625 0.89196 0.0
C960 C 1.00021 0.4557 0.87894 0.0
C961 C 1.02295 0.43787 0.87476 0.0
C962 C 0.93475 0.51273 0.90531 0.0
C963 C 0.90686 0.50392 0.90148 0.0
C964 C 0.95698 0.49392 0.90277 0.0
C965 C 0.95205 0.46566 0.89633 0.0
C966 C 0.92411 0.45655 0.89329 0.0
C967 C 0.90178 0.47545 0.89584 0.0
H968 H 0.97881 0.99185 0.36554 0.0
H969 H 1.01969 0.91216 0.37583 0.0
H970 H 1.02355 1.01592 0.36993 0.0
H971 H 0.06475 0.9365 0.38097 0.0
H972 H 0.14379 0.99111 0.35979 0.0
H973 H 0.10006 0.96413 0.35696 0.0
H974 H 0.05796 1.02708 0.40199 0.0
H975 H 0.10137 0.05381 0.40488 0.0
C976 C 0.99734 0.97937 0.36868 0.0
C977 C 0.99547 0.94994 0.3702 0.0
C978 C 1.02309 0.99327 0.37152 0.0
C979 C 0.0479 0.97825 0.37594 0.0
C980 C 0.04615 0.94878 0.37742 0.0
C981 C 1.02024 0.93482 0.37472 0.0
C982 C 0.1253 0.99904 0.36933 0.0
C983 C 0.1262 1.02494 0.38227 0.0
C984 C 0.10017 0.98353 0.36772 0.0
C985 C 0.07527 0.99354 0.37896 0.0
C986 C 0.07647 1.01898 0.39255 0.0
C987 C 0.10148 0.03439 0.39419 0.0
H988 H 0.64797 0.0438 0.88319 0.0
H989 H 0.59112 0.98462 0.91822 0.0
H990 H 0.60915 0.07681 0.87753 0.0
H991 H 0.55242 1.01778 0.91309 0.0
H992 H 0.4976 0.09894 0.91951 0.0
H993 H 0.53841 0.06937 0.92866 0.0
H994 H 0.56282 0.07292 0.8496 0.0
H995 H 0.52182 0.10186 0.84045 0.0
C996 C 0.62728 0.03809 0.89006 0.0
C997 C 0.62252 1.01165 0.9011 0.0
C998 C 0.60506 0.05686 0.8867 0.0
C999 C 0.57778 0.04985 0.89488 0.0
C1000 C 0.57325 1.02382 0.90675 0.0
C1001 C 0.59531 1.00481 0.90956 0.0
C1002 C 0.51186 0.09355 0.9042 0.0
C1003 C 0.50651 0.10258 0.87926 0.0
C1004 C 0.53508 0.07656 0.90938 0.0
C1005 C 0.5538 0.06889 0.88984 0.0
C1006 C 0.54887 0.07863 0.86506 0.0
C1007 C 0.52533 0.09502 0.85979 0.0
loop_
_geom_bond_atom_site_label_1
_geom_bond_atom_site_label_2
_geom_bond_distance
_geom_bond_site_symmetry_2
_ccdc_geom_bond_type
Cu0 N1 1.999 . S
Cu0 O6 1.974 . S
Cu0 N11 1.985 . S
Cu0 O20 1.959 . S
N1 Cu0 1.999 . S
N1 C3 1.263 . S
N1 C5 1.389 . S
N2 C3 1.358 . S
N2 C4 1.400 . S
C3 N1 1.263 . S
C3 N2 1.358 . S
C3 H9 0.930 . S
C4 N2 1.400 . S
C4 C5 1.351 . S
C4 H21 0.930 . S
C5 N1 1.389 . S
C5 C4 1.351 . S
C5 H10 0.930 . S
O6 Cu0 1.974 . S
O6 C16 1.282 . S
C7 O8 1.261 . S
C7 O20 1.251 . S
O8 C7 1.261 . S
H9 C3 0.930 . S
H10 C5 0.930 . S
N11 Cu0 1.985 . S
N11 C13 1.335 . S
N11 C14 1.390 . S
N12 C13 1.345 . S
N12 C15 1.336 . S
C13 N11 1.335 . S
C13 N12 1.345 . S
C13 H18 0.930 . S
C14 N11 1.390 . S
C14 C15 1.346 . S
C14 H19 0.930 . S
C15 N12 1.336 . S
C15 C14 1.346 . S
C15 H22 0.929 . S
C16 O6 1.282 . S
C16 O17 1.216 . S
O17 C16 1.216 . S
H18 C13 0.930 . S
H19 C14 0.930 . S
O20 Cu0 1.959 . S
O20 C7 1.251 . S
H21 C4 0.930 . S
H22 C15 0.929 . S
Cu23 N24 1.999 . S
Cu23 O29 1.974 . S
Cu23 N34 1.985 . S
Cu23 O43 1.959 . S
N24 Cu23 1.999 . S
N24 C26 1.263 . S
N24 C28 1.389 . S
N25 C26 1.358 . S
N25 C27 1.400 . S
C26 N24 1.263 . S
C26 N25 1.358 . S
C26 H32 0.930 . S
C27 N25 1.400 . S
C27 C28 1.351 . S
C27 H44 0.930 . S
C28 N24 1.389 . S
C28 C27 1.351 . S
C28 H33 0.930 . S
O29 Cu23 1.974 . S
O29 C39 1.282 . S
C30 O31 1.261 . S
C30 O43 1.251 . S
O31 C30 1.261 . S
H32 C26 0.930 . S
H33 C28 0.930 . S
N34 Cu23 1.985 . S
N34 C36 1.335 . S
N34 C37 1.390 . S
N35 C36 1.345 . S
N35 C38 1.336 . S
C36 N34 1.335 . S
C36 N35 1.345 . S
C36 H41 0.930 . S
C37 N34 1.390 . S
C37 C38 1.346 . S
C37 H42 0.930 . S
C38 N35 1.336 . S
C38 C37 1.346 . S
C38 H45 0.929 . S
C39 O29 1.282 . S
C39 O40 1.216 . S
O40 C39 1.216 . S
H41 C36 0.930 . S
H42 C37 0.930 . S
O43 Cu23 1.959 . S
O43 C30 1.251 . S
H44 C27 0.930 . S
H45 C38 0.929 . S
Cu46 N47 1.999 . S
Cu46 O52 1.974 . S
Cu46 N57 1.985 . S
Cu46 O66 1.959 . S
N47 Cu46 1.999 . S
N47 C49 1.263 . S
N47 C51 1.389 . S
N48 C49 1.358 . S
N48 C50 1.400 . S
C49 N47 1.263 . S
C49 N48 1.358 . S
C49 H55 0.930 . S
C50 N48 1.400 . S
C50 C51 1.351 . S
C50 H67 0.930 . S
C51 N47 1.389 . S
C51 C50 1.351 . S
C51 H56 0.930 . S
O52 Cu46 1.974 . S
O52 C62 1.282 . S
C53 O54 1.261 . S
C53 O66 1.251 . S
O54 C53 1.261 . S
H55 C49 0.930 . S
H56 C51 0.930 . S
N57 Cu46 1.985 . S
N57 C59 1.335 . S
N57 C60 1.390 . S
N58 C59 1.345 . S
N58 C61 1.336 . S
C59 N57 1.335 . S
C59 N58 1.345 . S
C59 H64 0.930 . S
C60 N57 1.390 . S
C60 C61 1.346 . S
C60 H65 0.930 . S
C61 N58 1.336 . S
C61 C60 1.346 . S
C61 H68 0.929 . S
C62 O52 1.282 . S
C62 O63 1.216 . S
O63 C62 1.216 . S
H64 C59 0.930 . S
H65 C60 0.930 . S
O66 Cu46 1.959 . S
O66 C53 1.251 . S
H67 C50 0.930 . S
H68 C61 0.929 . S
Cu69 N70 1.999 . S
Cu69 O75 1.974 . S
Cu69 N80 1.985 . S
Cu69 O89 1.959 . S
N70 Cu69 1.999 . S
N70 C72 1.263 . S
N70 C74 1.389 . S
N71 C72 1.358 . S
N71 C73 1.400 . S
C72 N70 1.263 . S
C72 N71 1.358 . S
C72 H78 0.930 . S
C73 N71 1.400 . S
C73 C74 1.351 . S
C73 H90 0.930 . S
C74 N70 1.389 . S
C74 C73 1.351 . S
C74 H79 0.930 . S
O75 Cu69 1.974 . S
O75 C85 1.282 . S
C76 O77 1.261 . S
C76 O89 1.251 . S
O77 C76 1.261 . S
H78 C72 0.930 . S
H79 C74 0.930 . S
N80 Cu69 1.985 . S
N80 C82 1.335 . S
N80 C83 1.390 . S
N81 C82 1.345 . S
N81 C84 1.336 . S
C82 N80 1.335 . S
C82 N81 1.345 . S
C82 H87 0.930 . S
C83 N80 1.390 . S
C83 C84 1.346 . S
C83 H88 0.930 . S
C84 N81 1.336 . S
C84 C83 1.346 . S
C84 H91 0.929 . S
C85 O75 1.282 . S
C85 O86 1.216 . S
O86 C85 1.216 . S
H87 C82 0.930 . S
H88 C83 0.930 . S
O89 Cu69 1.959 . S
O89 C76 1.251 . S
H90 C73 0.930 . S
H91 C84 0.929 . S
Cu92 N93 1.999 . S
Cu92 O98 1.974 . S
Cu92 N103 1.985 . S
Cu92 O112 1.959 . S
N93 Cu92 1.999 . S
N93 C95 1.263 . S
N93 C97 1.389 . S
N94 C95 1.358 . S
N94 C96 1.400 . S
C95 N93 1.263 . S
C95 N94 1.358 . S
C95 H101 0.930 . S
C96 N94 1.400 . S
C96 C97 1.351 . S
C96 H113 0.930 . S
C97 N93 1.389 . S
C97 C96 1.351 . S
C97 H102 0.930 . S
O98 Cu92 1.974 . S
O98 C108 1.282 . S
C99 O100 1.261 . S
C99 O112 1.251 . S
O100 C99 1.261 . S
H101 C95 0.930 . S
H102 C97 0.930 . S
N103 Cu92 1.985 . S
N103 C105 1.335 . S
N103 C106 1.390 . S
N104 C105 1.345 . S
N104 C107 1.336 . S
C105 N103 1.335 . S
C105 N104 1.345 . S
C105 H110 0.930 . S
C106 N103 1.390 . S
C106 C107 1.346 . S
C106 H111 0.930 . S
C107 N104 1.336 . S
C107 C106 1.346 . S
C107 H114 0.929 . S
C108 O98 1.282 . S
C108 O109 1.216 . S
O109 C108 1.216 . S
H110 C105 0.930 . S
H111 C106 0.930 . S
O112 Cu92 1.959 . S
O112 C99 1.251 . S
H113 C96 0.930 . S
H114 C107 0.929 . S
Cu115 N116 1.999 . S
Cu115 O121 1.974 . S
Cu115 N126 1.985 . S
Cu115 O135 1.959 . S
N116 Cu115 1.999 . S
N116 C118 1.263 . S
N116 C120 1.389 . S
N117 C118 1.358 . S
N117 C119 1.400 . S
C118 N116 1.263 . S
C118 N117 1.358 . S
C118 H124 0.930 . S
C119 N117 1.400 . S
C119 C120 1.351 . S
C119 H136 0.930 . S
C120 N116 1.389 . S
C120 C119 1.351 . S
C120 H125 0.930 . S
O121 Cu115 1.974 . S
O121 C131 1.282 . S
C122 O123 1.261 . S
C122 O135 1.251 . S
O123 C122 1.261 . S
H124 C118 0.930 . S
H125 C120 0.930 . S
N126 Cu115 1.985 . S
N126 C128 1.335 . S
N126 C129 1.390 . S
N127 C128 1.345 . S
N127 C130 1.336 . S
C128 N126 1.335 . S
C128 N127 1.345 . S
C128 H133 0.930 . S
C129 N126 1.390 . S
C129 C130 1.346 . S
C129 H134 0.930 . S
C130 N127 1.336 . S
C130 C129 1.346 . S
C130 H137 0.929 . S
C131 O121 1.282 . S
C131 O132 1.216 . S
O132 C131 1.216 . S
H133 C128 0.930 . S
H134 C129 0.930 . S
O135 Cu115 1.959 . S
O135 C122 1.251 . S
H136 C119 0.930 . S
H137 C130 0.929 . S
Cu138 N139 1.999 . S
Cu138 O144 1.974 . S
Cu138 N149 1.985 . S
Cu138 O158 1.959 . S
N139 Cu138 1.999 . S
N139 C141 1.263 . S
N139 C143 1.389 . S
N140 C141 1.358 . S
N140 C142 1.400 . S
C141 N139 1.263 . S
C141 N140 1.358 . S
C141 H147 0.930 . S
C142 N140 1.400 . S
C142 C143 1.351 . S
C142 H159 0.930 . S
C143 N139 1.389 . S
C143 C142 1.351 . S
C143 H148 0.930 . S
O144 Cu138 1.974 . S
O144 C154 1.282 . S
C145 O146 1.261 . S
C145 O158 1.251 . S
O146 C145 1.261 . S
H147 C141 0.930 . S
H148 C143 0.930 . S
N149 Cu138 1.985 . S
N149 C151 1.335 . S
N149 C152 1.390 . S
N150 C151 1.345 . S
N150 C153 1.336 . S
C151 N149 1.335 . S
C151 N150 1.345 . S
C151 H156 0.930 . S
C152 N149 1.390 . S
C152 C153 1.346 . S
C152 H157 0.930 . S
C153 N150 1.336 . S
C153 C152 1.346 . S
C153 H160 0.929 . S
C154 O144 1.282 . S
C154 O155 1.216 . S
O155 C154 1.216 . S
H156 C151 0.930 . S
H157 C152 0.930 . S
O158 Cu138 1.959 . S
O158 C145 1.251 . S
H159 C142 0.930 . S
H160 C153 0.929 . S
Cu161 N162 1.999 . S
Cu161 O167 1.974 . S
Cu161 N172 1.985 . S
Cu161 O181 1.959 . S
N162 Cu161 1.999 . S
N162 C164 1.263 . S
N162 C166 1.389 . S
N163 C164 1.358 . S
N163 C165 1.400 . S
C164 N162 1.263 . S
C164 N163 1.358 . S
C164 H170 0.930 . S
C165 N163 1.400 . S
C165 C166 1.351 . S
C165 H182 0.930 . S
C166 N162 1.389 . S
C166 C165 1.351 . S
C166 H171 0.930 . S
O167 Cu161 1.974 . S
O167 C177 1.282 . S
C168 O169 1.261 . S
C168 O181 1.251 . S
O169 C168 1.261 . S
H170 C164 0.930 . S
H171 C166 0.930 . S
N172 Cu161 1.985 . S
N172 C174 1.335 . S
N172 C175 1.390 . S
N173 C174 1.345 . S
N173 C176 1.336 . S
C174 N172 1.335 . S
C174 N173 1.345 . S
C174 H179 0.930 . S
C175 N172 1.390 . S
C175 C176 1.346 . S
C175 H180 0.930 . S
C176 N173 1.336 . S
C176 C175 1.346 . S
C176 H183 0.929 . S
C177 O167 1.282 . S
C177 O178 1.216 . S
O178 C177 1.216 . S
H179 C174 0.930 . S
H180 C175 0.930 . S
O181 Cu161 1.959 . S
O181 C168 1.251 . S
H182 C165 0.930 . S
H183 C176 0.929 . S
Cu184 N185 1.999 . S
Cu184 O190 1.974 . S
Cu184 N195 1.985 . S
Cu184 O204 1.959 . S
N185 Cu184 1.999 . S
N185 C187 1.263 . S
N185 C189 1.389 . S
N186 C187 1.358 . S
N186 C188 1.400 . S
C187 N185 1.263 . S
C187 N186 1.358 . S
C187 H193 0.930 . S
C188 N186 1.400 . S
C188 C189 1.351 . S
C188 H205 0.930 . S
C189 N185 1.389 . S
C189 C188 1.351 . S
C189 H194 0.930 . S
O190 Cu184 1.974 . S
O190 C200 1.282 . S
C191 O192 1.261 . S
C191 O204 1.251 . S
O192 C191 1.261 . S
H193 C187 0.930 . S
H194 C189 0.930 . S
N195 Cu184 1.985 . S
N195 C197 1.335 . S
N195 C198 1.390 . S
N196 C197 1.345 . S
N196 C199 1.336 . S
C197 N195 1.335 . S
C197 N196 1.345 . S
C197 H202 0.930 . S
C198 N195 1.390 . S
C198 C199 1.346 . S
C198 H203 0.930 . S
C199 N196 1.336 . S
C199 C198 1.346 . S
C199 H206 0.929 . S
C200 O190 1.282 . S
C200 O201 1.216 . S
O201 C200 1.216 . S
H202 C197 0.930 . S
H203 C198 0.930 . S
O204 Cu184 1.959 . S
O204 C191 1.251 . S
H205 C188 0.930 . S
H206 C199 0.929 . S
Cu207 N208 1.999 . S
Cu207 O213 1.974 . S
Cu207 N218 1.985 . S
Cu207 O227 1.959 . S
N208 Cu207 1.999 . S
N208 C210 1.263 . S
N208 C212 1.389 . S
N209 C210 1.358 . S
N209 C211 1.400 . S
C210 N208 1.263 . S
C210 N209 1.358 . S
C210 H216 0.930 . S
C211 N209 1.400 . S
C211 C212 1.351 . S
C211 H228 0.930 . S
C212 N208 1.389 . S
C212 C211 1.351 . S
C212 H217 0.930 . S
O213 Cu207 1.974 . S
O213 C223 1.282 . S
C214 O215 1.261 . S
C214 O227 1.251 . S
O215 C214 1.261 . S
H216 C210 0.930 . S
H217 C212 0.930 . S
N218 Cu207 1.985 . S
N218 C220 1.335 . S
N218 C221 1.390 . S
N219 C220 1.345 . S
N219 C222 1.336 . S
C220 N218 1.335 . S
C220 N219 1.345 . S
C220 H225 0.930 . S
C221 N218 1.390 . S
C221 C222 1.346 . S
C221 H226 0.930 . S
C222 N219 1.336 . S
C222 C221 1.346 . S
C222 H229 0.929 . S
C223 O213 1.282 . S
C223 O224 1.216 . S
O224 C223 1.216 . S
H225 C220 0.930 . S
H226 C221 0.930 . S
O227 Cu207 1.959 . S
O227 C214 1.251 . S
H228 C211 0.930 . S
H229 C222 0.929 . S
Cu230 N231 1.999 . S
Cu230 O236 1.974 . S
Cu230 N241 1.985 . S
Cu230 O250 1.959 . S
N231 Cu230 1.999 . S
N231 C233 1.263 . S
N231 C235 1.389 . S
N232 C233 1.358 . S
N232 C234 1.400 . S
C233 N231 1.263 . S
C233 N232 1.358 . S
C233 H239 0.930 . S
C234 N232 1.400 . S
C234 C235 1.351 . S
C234 H251 0.930 . S
C235 N231 1.389 . S
C235 C234 1.351 . S
C235 H240 0.930 . S
O236 Cu230 1.974 . S
O236 C246 1.282 . S
C237 O238 1.261 . S
C237 O250 1.251 . S
O238 C237 1.261 . S
H239 C233 0.930 . S
H240 C235 0.930 . S
N241 Cu230 1.985 . S
N241 C243 1.335 . S
N241 C244 1.390 . S
N242 C243 1.345 . S
N242 C245 1.336 . S
C243 N241 1.335 . S
C243 N242 1.345 . S
C243 H248 0.930 . S
C244 N241 1.390 . S
C244 C245 1.346 . S
C244 H249 0.930 . S
C245 N242 1.336 . S
C245 C244 1.346 . S
C245 H252 0.929 . S
C246 O236 1.282 . S
C246 O247 1.216 . S
O247 C246 1.216 . S
H248 C243 0.930 . S
H249 C244 0.930 . S
O250 Cu230 1.959 . S
O250 C237 1.251 . S
H251 C234 0.930 . S
H252 C245 0.929 . S
Cu253 N254 1.999 . S
Cu253 O259 1.974 . S
Cu253 N264 1.985 . S
Cu253 O273 1.959 . S
N254 Cu253 1.999 . S
N254 C256 1.263 . S
N254 C258 1.389 . S
N255 C256 1.358 . S
N255 C257 1.400 . S
C256 N254 1.263 . S
C256 N255 1.358 . S
C256 H262 0.930 . S
C257 N255 1.400 . S
C257 C258 1.351 . S
C257 H274 0.930 . S
C258 N254 1.389 . S
C258 C257 1.351 . S
C258 H263 0.930 . S
O259 Cu253 1.974 . S
O259 C269 1.282 . S
C260 O261 1.261 . S
C260 O273 1.251 . S
O261 C260 1.261 . S
H262 C256 0.930 . S
H263 C258 0.930 . S
N264 Cu253 1.985 . S
N264 C266 1.335 . S
N264 C267 1.390 . S
N265 C266 1.345 . S
N265 C268 1.336 . S
C266 N264 1.335 . S
C266 N265 1.345 . S
C266 H271 0.930 . S
C267 N264 1.390 . S
C267 C268 1.346 . S
C267 H272 0.930 . S
C268 N265 1.336 . S
C268 C267 1.346 . S
C268 H275 0.929 . S
C269 O259 1.282 . S
C269 O270 1.216 . S
O270 C269 1.216 . S
H271 C266 0.930 . S
H272 C267 0.930 . S
O273 Cu253 1.959 . S
O273 C260 1.251 . S
H274 C257 0.930 . S
H275 C268 0.929 . S
Cu276 N277 1.999 . S
Cu276 O282 1.974 . S
Cu276 N287 1.985 . S
Cu276 O296 1.959 . S
N277 Cu276 1.999 . S
N277 C279 1.263 . S
N277 C281 1.389 . S
N278 C279 1.358 . S
N278 C280 1.400 . S
C279 N277 1.263 . S
C279 N278 1.358 . S
C279 H285 0.930 . S
C280 N278 1.400 . S
C280 C281 1.351 . S
C280 H297 0.930 . S
C281 N277 1.389 . S
C281 C280 1.351 . S
C281 H286 0.930 . S
O282 Cu276 1.974 . S
O282 C292 1.282 . S
C283 O284 1.261 . S
C283 O296 1.251 . S
O284 C283 1.261 . S
H285 C279 0.930 . S
H286 C281 0.930 . S
N287 Cu276 1.985 . S
N287 C289 1.335 . S
N287 C290 1.390 . S
N288 C289 1.345 . S
N288 C291 1.336 . S
C289 N287 1.335 . S
C289 N288 1.345 . S
C289 H294 0.930 . S
C290 N287 1.390 . S
C290 C291 1.346 . S
C290 H295 0.930 . S
C291 N288 1.336 . S
C291 C290 1.346 . S
C291 H298 0.929 . S
C292 O282 1.282 . S
C292 O293 1.216 . S
O293 C292 1.216 . S
H294 C289 0.930 . S
H295 C290 0.930 . S
O296 Cu276 1.959 . S
O296 C283 1.251 . S
H297 C280 0.930 . S
H298 C291 0.929 . S
Cu299 N300 1.999 . S
Cu299 O305 1.974 . S
Cu299 N310 1.985 . S
Cu299 O319 1.959 . S
N300 Cu299 1.999 . S
N300 C302 1.263 . S
N300 C304 1.389 . S
N301 C302 1.358 . S
N301 C303 1.400 . S
C302 N300 1.263 . S
C302 N301 1.358 . S
C302 H308 0.930 . S
C303 N301 1.400 . S
C303 C304 1.351 . S
C303 H320 0.930 . S
C304 N300 1.389 . S
C304 C303 1.351 . S
C304 H309 0.930 . S
O305 Cu299 1.974 . S
O305 C315 1.282 . S
C306 O307 1.261 . S
C306 O319 1.251 . S
O307 C306 1.261 . S
H308 C302 0.930 . S
H309 C304 0.930 . S
N310 Cu299 1.985 . S
N310 C312 1.335 . S
N310 C313 1.390 . S
N311 C312 1.345 . S
N311 C314 1.336 . S
C312 N310 1.335 . S
C312 N311 1.345 . S
C312 H317 0.930 . S
C313 N310 1.390 . S
C313 C314 1.346 . S
C313 H318 0.930 . S
C314 N311 1.336 . S
C314 C313 1.346 . S
C314 H321 0.929 . S
C315 O305 1.282 . S
C315 O316 1.216 . S
O316 C315 1.216 . S
H317 C312 0.930 . S
H318 C313 0.930 . S
O319 Cu299 1.959 . S
O319 C306 1.251 . S
H320 C303 0.930 . S
H321 C314 0.929 . S
Cu322 N323 1.999 . S
Cu322 O328 1.974 . S
Cu322 N333 1.985 . S
Cu322 O342 1.959 . S
N323 Cu322 1.999 . S
N323 C325 1.263 . S
N323 C327 1.389 . S
N324 C325 1.358 . S
N324 C326 1.400 . S
C325 N323 1.263 . S
C325 N324 1.358 . S
C325 H331 0.930 . S
C326 N324 1.400 . S
C326 C327 1.351 . S
C326 H343 0.930 . S
C327 N323 1.389 . S
C327 C326 1.351 . S
C327 H332 0.930 . S
O328 Cu322 1.974 . S
O328 C338 1.282 . S
C329 O330 1.261 . S
C329 O342 1.251 . S
O330 C329 1.261 . S
H331 C325 0.930 . S
H332 C327 0.930 . S
N333 Cu322 1.985 . S
N333 C335 1.335 . S
N333 C336 1.390 . S
N334 C335 1.345 . S
N334 C337 1.336 . S
C335 N333 1.335 . S
C335 N334 1.345 . S
C335 H340 0.930 . S
C336 N333 1.390 . S
C336 C337 1.346 . S
C336 H341 0.930 . S
C337 N334 1.336 . S
C337 C336 1.346 . S
C337 H344 0.929 . S
C338 O328 1.282 . S
C338 O339 1.216 . S
O339 C338 1.216 . S
H340 C335 0.930 . S
H341 C336 0.930 . S
O342 Cu322 1.959 . S
O342 C329 1.251 . S
H343 C326 0.930 . S
H344 C337 0.929 . S
Cu345 N346 1.999 . S
Cu345 O351 1.974 . S
Cu345 N356 1.985 . S
Cu345 O365 1.959 . S
N346 Cu345 1.999 . S
N346 C348 1.263 . S
N346 C350 1.389 . S
N347 C348 1.358 . S
N347 C349 1.400 . S
C348 N346 1.263 . S
C348 N347 1.358 . S
C348 H354 0.930 . S
C349 N347 1.400 . S
C349 C350 1.351 . S
C349 H366 0.930 . S
C350 N346 1.389 . S
C350 C349 1.351 . S
C350 H355 0.930 . S
O351 Cu345 1.974 . S
O351 C361 1.282 . S
C352 O353 1.261 . S
C352 O365 1.251 . S
O353 C352 1.261 . S
H354 C348 0.930 . S
H355 C350 0.930 . S
N356 Cu345 1.985 . S
N356 C358 1.335 . S
N356 C359 1.390 . S
N357 C358 1.345 . S
N357 C360 1.336 . S
C358 N356 1.335 . S
C358 N357 1.345 . S
C358 H363 0.930 . S
C359 N356 1.390 . S
C359 C360 1.346 . S
C359 H364 0.930 . S
C360 N357 1.336 . S
C360 C359 1.346 . S
C360 H367 0.929 . S
C361 O351 1.282 . S
C361 O362 1.216 . S
O362 C361 1.216 . S
H363 C358 0.930 . S
H364 C359 0.930 . S
O365 Cu345 1.959 . S
O365 C352 1.251 . S
H366 C349 0.930 . S
H367 C360 0.929 . S
H368 C376 0.950 . S
H369 C381 0.950 . S
H370 C378 0.950 . S
H371 C380 0.950 . S
H372 C382 0.950 . S
H373 C384 0.950 . S
H374 C386 0.950 . S
H375 C387 0.950 . S
C376 H368 0.950 . S
C376 C377 1.386 . S
C376 C378 1.391 . S
C377 C376 1.386 . S
C377 C381 1.393 . S
C378 H370 0.950 . S
C378 C376 1.391 . S
C378 C379 1.400 . S
C379 C378 1.400 . S
C379 C380 1.398 . S
C379 C385 1.491 1_556 S
C380 H371 0.950 . S
C380 C379 1.398 . S
C380 C381 1.391 . S
C381 H369 0.950 . S
C381 C377 1.393 . S
C381 C380 1.391 . S
C382 H372 0.950 . S
C382 C383 1.386 . S
C382 C384 1.391 . S
C383 C382 1.386 . S
C383 C387 1.393 . S
C384 H373 0.950 . S
C384 C382 1.391 . S
C384 C385 1.400 . S
C385 C379 1.491 1_554 S
C385 C384 1.400 . S
C385 C386 1.398 . S
C386 H374 0.950 . S
C386 C385 1.398 . S
C386 C387 1.391 . S
C387 H375 0.950 . S
C387 C383 1.393 . S
C387 C386 1.391 . S
H388 C396 0.950 . S
H389 C401 0.950 . S
H390 C398 0.950 . S
H391 C400 0.950 . S
H392 C402 0.950 . S
H393 C404 0.950 . S
H394 C406 0.950 . S
H395 C407 0.950 . S
C396 H388 0.950 . S
C396 C397 1.386 . S
C396 C398 1.391 . S
C397 C396 1.386 . S
C397 C401 1.393 . S
C398 H390 0.950 . S
C398 C396 1.391 . S
C398 C399 1.400 . S
C399 C398 1.400 . S
C399 C400 1.398 . S
C399 C405 1.491 . S
C400 H391 0.950 . S
C400 C399 1.398 . S
C400 C401 1.391 . S
C401 H389 0.950 . S
C401 C397 1.393 . S
C401 C400 1.391 . S
C402 H392 0.950 . S
C402 C403 1.386 . S
C402 C404 1.391 . S
C403 C402 1.386 . S
C403 C407 1.393 . S
C404 H393 0.950 . S
C404 C402 1.391 . S
C404 C405 1.400 . S
C405 C399 1.491 . S
C405 C404 1.400 . S
C405 C406 1.398 . S
C406 H394 0.950 . S
C406 C405 1.398 . S
C406 C407 1.391 . S
C407 H395 0.950 . S
C407 C403 1.393 . S
C407 C406 1.391 . S
H408 C416 0.950 . S
H409 C421 0.950 . S
H410 C418 0.950 . S
H411 C420 0.950 . S
H412 C422 0.950 . S
H413 C424 0.950 . S
H414 C426 0.950 . S
H415 C427 0.950 . S
C416 H408 0.950 . S
C416 C417 1.386 . S
C416 C418 1.391 . S
C417 C416 1.386 . S
C417 C421 1.393 . S
C418 H410 0.950 . S
C418 C416 1.391 . S
C418 C419 1.400 . S
C419 C418 1.400 . S
C419 C420 1.398 . S
C419 C425 1.491 1_556 S
C420 H411 0.950 . S
C420 C419 1.398 . S
C420 C421 1.391 . S
C421 H409 0.950 . S
C421 C417 1.393 . S
C421 C420 1.391 . S
C422 H412 0.950 . S
C422 C423 1.386 . S
C422 C424 1.391 . S
C423 C422 1.386 . S
C423 C427 1.393 . S
C424 H413 0.950 . S
C424 C422 1.391 . S
C424 C425 1.400 . S
C425 C419 1.491 1_554 S
C425 C424 1.400 . S
C425 C426 1.398 . S
C426 H414 0.950 . S
C426 C425 1.398 . S
C426 C427 1.391 . S
C427 H415 0.950 . S
C427 C423 1.393 . S
C427 C426 1.391 . S
H428 C436 0.950 . S
H429 C441 0.950 . S
H430 C438 0.950 . S
H431 C440 0.950 . S
H432 C442 0.950 . S
H433 C444 0.950 . S
H434 C446 0.950 . S
H435 C447 0.950 . S
C436 H428 0.950 . S
C436 C437 1.386 . S
C436 C438 1.391 . S
C437 C436 1.386 . S
C437 C441 1.393 . S
C438 H430 0.950 . S
C438 C436 1.391 . S
C438 C439 1.400 . S
C439 C438 1.400 . S
C439 C440 1.398 . S
C439 C445 1.491 . S
C440 H431 0.950 . S
C440 C439 1.398 . S
C440 C441 1.391 . S
C441 H429 0.950 . S
C441 C437 1.393 . S
C441 C440 1.391 . S
C442 H432 0.950 . S
C442 C443 1.386 . S
C442 C444 1.391 . S
C443 C442 1.386 . S
C443 C447 1.393 . S
C444 H433 0.950 . S
C444 C442 1.391 . S
C444 C445 1.400 . S
C445 C439 1.491 . S
C445 C444 1.400 . S
C445 C446 1.398 . S
C446 H434 0.950 . S
C446 C445 1.398 . S
C446 C447 1.391 . S
C447 H435 0.950 . S
C447 C443 1.393 . S
C447 C446 1.391 . S
H448 C456 0.950 . S
H449 C461 0.950 . S
H450 C458 0.950 . S
H451 C460 0.950 . S
H452 C462 0.950 . S
H453 C464 0.950 . S
H454 C466 0.950 . S
H455 C467 0.950 . S
C456 H448 0.950 . S
C456 C457 1.386 . S
C456 C458 1.391 . S
C457 C456 1.386 . S
C457 C461 1.393 . S
C458 H450 0.950 . S
C458 C456 1.391 . S
C458 C459 1.400 . S
C459 C458 1.400 . S
C459 C460 1.398 . S
C459 C465 1.491 1_554 S
C460 H451 0.950 . S
C460 C459 1.398 . S
C460 C461 1.391 . S
C461 H449 0.950 . S
C461 C457 1.393 . S
C461 C460 1.391 . S
C462 H452 0.950 . S
C462 C463 1.386 . S
C462 C464 1.391 . S
C463 C462 1.386 . S
C463 C467 1.393 . S
C464 H453 0.950 . S
C464 C462 1.391 . S
C464 C465 1.400 . S
C465 C459 1.491 1_556 S
C465 C464 1.400 . S
C465 C466 1.398 . S
C466 H454 0.950 . S
C466 C465 1.398 . S
C466 C467 1.391 . S
C467 H455 0.950 . S
C467 C463 1.393 . S
C467 C466 1.391 . S
H468 C476 0.950 . S
H469 C481 0.950 . S
H470 C478 0.950 . S
H471 C480 0.950 . S
H472 C482 0.950 . S
H473 C484 0.950 . S
H474 C486 0.950 . S
H475 C487 0.950 . S
C476 H468 0.950 . S
C476 C477 1.386 . S
C476 C478 1.391 . S
C477 C476 1.386 . S
C477 C481 1.393 . S
C478 H470 0.950 . S
C478 C476 1.391 . S
C478 C479 1.400 . S
C479 C478 1.400 . S
C479 C480 1.398 . S
C479 C485 1.491 . S
C480 H471 0.950 . S
C480 C479 1.398 . S
C480 C481 1.391 . S
C481 H469 0.950 . S
C481 C477 1.393 . S
C481 C480 1.391 . S
C482 H472 0.950 . S
C482 C483 1.386 . S
C482 C484 1.391 . S
C483 C482 1.386 . S
C483 C487 1.393 . S
C484 H473 0.950 . S
C484 C482 1.391 . S
C484 C485 1.400 . S
C485 C479 1.491 . S
C485 C484 1.400 . S
C485 C486 1.398 . S
C486 H474 0.950 . S
C486 C485 1.398 . S
C486 C487 1.391 . S
C487 H475 0.950 . S
C487 C483 1.393 . S
C487 C486 1.391 . S
H488 C496 0.950 . S
H489 C501 0.950 . S
H490 C498 0.950 . S
H491 C500 0.950 . S
H492 C502 0.950 . S
H493 C504 0.950 . S
H494 C506 0.950 . S
H495 C507 0.950 . S
C496 H488 0.950 . S
C496 C497 1.386 . S
C496 C498 1.391 . S
C497 C496 1.386 . S
C497 C501 1.393 . S
C498 H490 0.950 . S
C498 C496 1.391 . S
C498 C499 1.400 . S
C499 C498 1.400 . S
C499 C500 1.398 . S
C499 C505 1.491 1_556 S
C500 H491 0.950 . S
C500 C499 1.398 . S
C500 C501 1.391 . S
C501 H489 0.950 . S
C501 C497 1.393 . S
C501 C500 1.391 . S
C502 H492 0.950 . S
C502 C503 1.386 . S
C502 C504 1.391 . S
C503 C502 1.386 . S
C503 C507 1.393 . S
C504 H493 0.950 . S
C504 C502 1.391 . S
C504 C505 1.400 . S
C505 C499 1.491 1_554 S
C505 C504 1.400 . S
C505 C506 1.398 . S
C506 H494 0.950 . S
C506 C505 1.398 . S
C506 C507 1.391 . S
C507 H495 0.950 . S
C507 C503 1.393 . S
C507 C506 1.391 . S
H508 C516 0.950 . S
H509 C521 0.950 . S
H510 C518 0.950 . S
H511 C520 0.950 . S
H512 C522 0.950 . S
H513 C524 0.950 . S
H514 C526 0.950 . S
H515 C527 0.950 . S
C516 H508 0.950 . S
C516 C517 1.386 . S
C516 C518 1.391 . S
C517 C516 1.386 . S
C517 C521 1.393 . S
C518 H510 0.950 . S
C518 C516 1.391 . S
C518 C519 1.400 . S
C519 C518 1.400 . S
C519 C520 1.398 . S
C519 C525 1.491 . S
C520 H511 0.950 . S
C520 C519 1.398 . S
C520 C521 1.391 . S
C521 H509 0.950 . S
C521 C517 1.393 . S
C521 C520 1.391 . S
C522 H512 0.950 . S
C522 C523 1.386 . S
C522 C524 1.391 . S
C523 C522 1.386 . S
C523 C527 1.393 . S
C524 H513 0.950 . S
C524 C522 1.391 . S
C524 C525 1.400 . S
C525 C519 1.491 . S
C525 C524 1.400 . S
C525 C526 1.398 . S
C526 H514 0.950 . S
C526 C525 1.398 . S
C526 C527 1.391 . S
C527 H515 0.950 . S
C527 C523 1.393 . S
C527 C526 1.391 . S
H528 C536 0.950 . S
H529 C541 0.950 . S
H530 C538 0.950 . S
H531 C540 0.950 . S
H532 C542 0.950 . S
H533 C544 0.950 . S
H534 C546 0.950 . S
H535 C547 0.950 . S
C536 H528 0.950 . S
C536 C537 1.386 . S
C536 C538 1.391 . S
C537 C536 1.386 . S
C537 C541 1.393 . S
C538 H530 0.950 . S
C538 C536 1.391 . S
C538 C539 1.400 . S
C539 C538 1.400 . S
C539 C540 1.398 . S
C539 C545 1.491 . S
C540 H531 0.950 . S
C540 C539 1.398 . S
C540 C541 1.391 . S
C541 H529 0.950 . S
C541 C537 1.393 . S
C541 C540 1.391 . S
C542 H532 0.950 . S
C542 C543 1.386 . S
C542 C544 1.391 . S
C543 C542 1.386 . S
C543 C547 1.393 . S
C544 H533 0.950 . S
C544 C542 1.391 . S
C544 C545 1.400 . S
C545 C539 1.491 . S
C545 C544 1.400 . S
C545 C546 1.398 . S
C546 H534 0.950 . S
C546 C545 1.398 . S
C546 C547 1.391 . S
C547 H535 0.950 . S
C547 C543 1.393 . S
C547 C546 1.391 . S
H548 C556 0.950 . S
H549 C561 0.950 . S
H550 C558 0.950 . S
H551 C560 0.950 . S
H552 C562 0.950 . S
H553 C564 0.950 . S
H554 C566 0.950 . S
H555 C567 0.950 . S
C556 H548 0.950 . S
C556 C557 1.386 . S
C556 C558 1.391 . S
C557 C556 1.386 . S
C557 C561 1.393 . S
C558 H550 0.950 . S
C558 C556 1.391 . S
C558 C559 1.400 . S
C559 C558 1.400 . S
C559 C560 1.398 . S
C559 C565 1.491 . S
C560 H551 0.950 . S
C560 C559 1.398 . S
C560 C561 1.391 . S
C561 H549 0.950 . S
C561 C557 1.393 . S
C561 C560 1.391 . S
C562 H552 0.950 . S
C562 C563 1.386 . S
C562 C564 1.391 . S
C563 C562 1.386 . S
C563 C567 1.393 . S
C564 H553 0.950 . S
C564 C562 1.391 . S
C564 C565 1.400 . S
C565 C559 1.491 . S
C565 C564 1.400 . S
C565 C566 1.398 . S
C566 H554 0.950 . S
C566 C565 1.398 . S
C566 C567 1.391 . S
C567 H555 0.950 . S
C567 C563 1.393 . S
C567 C566 1.391 . S
H568 C576 0.950 . S
H569 C581 0.950 . S
H570 C578 0.950 . S
H571 C580 0.950 . S
H572 C582 0.950 . S
H573 C584 0.950 . S
H574 C586 0.950 . S
H575 C587 0.950 . S
C576 H568 0.950 . S
C576 C577 1.386 . S
C576 C578 1.391 . S
C577 C576 1.386 . S
C577 C581 1.393 . S
C578 H570 0.950 . S
C578 C576 1.391 . S
C578 C579 1.400 . S
C579 C578 1.400 . S
C579 C580 1.398 . S
C579 C585 1.491 . S
C580 H571 0.950 . S
C580 C579 1.398 . S
C580 C581 1.391 . S
C581 H569 0.950 . S
C581 C577 1.393 . S
C581 C580 1.391 . S
C582 H572 0.950 . S
C582 C583 1.386 . S
C582 C584 1.391 . S
C583 C582 1.386 . S
C583 C587 1.393 . S
C584 H573 0.950 . S
C584 C582 1.391 . S
C584 C585 1.400 . S
C585 C579 1.491 . S
C585 C584 1.400 . S
C585 C586 1.398 . S
C586 H574 0.950 . S
C586 C585 1.398 . S
C586 C587 1.391 . S
C587 H575 0.950 . S
C587 C583 1.393 . S
C587 C586 1.391 . S
H588 C596 0.950 . S
H589 C601 0.950 . S
H590 C598 0.950 . S
H591 C600 0.950 . S
H592 C602 0.950 . S
H593 C604 0.950 . S
H594 C606 0.950 . S
H595 C607 0.950 . S
C596 H588 0.950 . S
C596 C597 1.386 . S
C596 C598 1.391 . S
C597 C596 1.386 . S
C597 C601 1.393 . S
C598 H590 0.950 . S
C598 C596 1.391 . S
C598 C599 1.400 . S
C599 C598 1.400 . S
C599 C600 1.398 . S
C599 C605 1.491 . S
C600 H591 0.950 . S
C600 C599 1.398 . S
C600 C601 1.391 . S
C601 H589 0.950 . S
C601 C597 1.393 . S
C601 C600 1.391 . S
C602 H592 0.950 . S
C602 C603 1.386 . S
C602 C604 1.391 . S
C603 C602 1.386 . S
C603 C607 1.393 . S
C604 H593 0.950 . S
C604 C602 1.391 . S
C604 C605 1.400 . S
C605 C599 1.491 . S
C605 C604 1.400 . S
C605 C606 1.398 . S
C606 H594 0.950 . S
C606 C605 1.398 . S
C606 C607 1.391 . S
C607 H595 0.950 . S
C607 C603 1.393 . S
C607 C606 1.391 . S
H608 C616 0.950 . S
H609 C621 0.950 . S
H610 C618 0.950 . S
H611 C620 0.950 . S
H612 C622 0.950 . S
H613 C624 0.950 . S
H614 C626 0.950 . S
H615 C627 0.950 . S
C616 H608 0.950 . S
C616 C617 1.386 . S
C616 C618 1.391 . S
C617 C616 1.386 . S
C617 C621 1.393 . S
C618 H610 0.950 . S
C618 C616 1.391 . S
C618 C619 1.400 . S
C619 C618 1.400 . S
C619 C620 1.398 . S
C619 C625 1.491 . S
C620 H611 0.950 . S
C620 C619 1.398 . S
C620 C621 1.391 . S
C621 H609 0.950 . S
C621 C617 1.393 . S
C621 C620 1.391 . S
C622 H612 0.950 . S
C622 C623 1.386 . S
C622 C624 1.391 . S
C623 C622 1.386 . S
C623 C627 1.393 . S
C624 H613 0.950 . S
C624 C622 1.391 . S
C624 C625 1.400 . S
C625 C619 1.491 . S
C625 C624 1.400 . S
C625 C626 1.398 . S
C626 H614 0.950 . S
C626 C625 1.398 . S
C626 C627 1.391 . S
C627 H615 0.950 . S
C627 C623 1.393 . S
C627 C626 1.391 . S
H628 C636 0.950 . S
H629 C641 0.950 . S
H630 C638 0.950 . S
H631 C640 0.950 . S
H632 C642 0.950 . S
H633 C644 0.950 . S
H634 C646 0.950 . S
H635 C647 0.950 . S
C636 H628 0.950 . S
C636 C637 1.386 . S
C636 C638 1.391 . S
C637 C636 1.386 . S
C637 C641 1.393 . S
C638 H630 0.950 . S
C638 C636 1.391 . S
C638 C639 1.400 . S
C639 C638 1.400 . S
C639 C640 1.398 . S
C639 C645 1.491 . S
C640 H631 0.950 . S
C640 C639 1.398 . S
C640 C641 1.391 . S
C641 H629 0.950 . S
C641 C637 1.393 . S
C641 C640 1.391 . S
C642 H632 0.950 . S
C642 C643 1.386 . S
C642 C644 1.391 . S
C643 C642 1.386 . S
C643 C647 1.393 . S
C644 H633 0.950 . S
C644 C642 1.391 . S
C644 C645 1.400 . S
C645 C639 1.491 . S
C645 C644 1.400 . S
C645 C646 1.398 . S
C646 H634 0.950 . S
C646 C645 1.398 . S
C646 C647 1.391 . S
C647 H635 0.950 . S
C647 C643 1.393 . S
C647 C646 1.391 . S
H648 C656 0.950 . S
H649 C661 0.950 . S
H650 C658 0.950 . S
H651 C660 0.950 . S
H652 C662 0.950 . S
H653 C664 0.950 . S
H654 C666 0.950 . S
H655 C667 0.950 . S
C656 H648 0.950 . S
C656 C657 1.386 . S
C656 C658 1.391 . S
C657 C656 1.386 . S
C657 C661 1.393 . S
C658 H650 0.950 . S
C658 C656 1.391 . S
C658 C659 1.400 . S
C659 C658 1.400 . S
C659 C660 1.398 . S
C659 C665 1.491 . S
C660 H651 0.950 . S
C660 C659 1.398 . S
C660 C661 1.391 . S
C661 H649 0.950 . S
C661 C657 1.393 . S
C661 C660 1.391 . S
C662 H652 0.950 . S
C662 C663 1.386 . S
C662 C664 1.391 . S
C663 C662 1.386 . S
C663 C667 1.393 . S
C664 H653 0.950 . S
C664 C662 1.391 . S
C664 C665 1.400 . S
C665 C659 1.491 . S
C665 C664 1.400 . S
C665 C666 1.398 . S
C666 H654 0.950 . S
C666 C665 1.398 . S
C666 C667 1.391 . S
C667 H655 0.950 . S
C667 C663 1.393 . S
C667 C666 1.391 . S
H668 C676 0.950 . S
H669 C681 0.950 . S
H670 C678 0.950 . S
H671 C680 0.950 . S
H672 C682 0.950 . S
H673 C684 0.950 . S
H674 C686 0.950 . S
H675 C687 0.950 . S
C676 H668 0.950 . S
C676 C677 1.386 . S
C676 C678 1.391 . S
C677 C676 1.386 . S
C677 C681 1.393 . S
C678 H670 0.950 . S
C678 C676 1.391 . S
C678 C679 1.400 . S
C679 C678 1.400 . S
C679 C680 1.398 . S
C679 C685 1.491 . S
C680 H671 0.950 . S
C680 C679 1.398 . S
C680 C681 1.391 . S
C681 H669 0.950 . S
C681 C677 1.393 . S
C681 C680 1.391 . S
C682 H672 0.950 . S
C682 C683 1.386 . S
C682 C684 1.391 . S
C683 C682 1.386 . S
C683 C687 1.393 . S
C684 H673 0.950 . S
C684 C682 1.391 . S
C684 C685 1.400 . S
C685 C679 1.491 . S
C685 C684 1.400 . S
C685 C686 1.398 . S
C686 H674 0.950 . S
C686 C685 1.398 . S
C686 C687 1.391 . S
C687 H675 0.950 . S
C687 C683 1.393 . S
C687 C686 1.391 . S
H688 C696 0.950 . S
H689 C701 0.950 . S
H690 C698 0.950 . S
H691 C700 0.950 . S
H692 C702 0.950 . S
H693 C704 0.950 . S
H694 C706 0.950 . S
H695 C707 0.950 . S
C696 H688 0.950 . S
C696 C697 1.386 . S
C696 C698 1.391 . S
C697 C696 1.386 . S
C697 C701 1.393 . S
C698 H690 0.950 . S
C698 C696 1.391 . S
C698 C699 1.400 . S
C699 C698 1.400 . S
C699 C700 1.398 . S
C699 C705 1.491 . S
C700 H691 0.950 . S
C700 C699 1.398 . S
C700 C701 1.391 . S
C701 H689 0.950 . S
C701 C697 1.393 . S
C701 C700 1.391 . S
C702 H692 0.950 . S
C702 C703 1.386 . S
C702 C704 1.391 . S
C703 C702 1.386 . S
C703 C707 1.393 . S
C704 H693 0.950 . S
C704 C702 1.391 . S
C704 C705 1.400 . S
C705 C699 1.491 . S
C705 C704 1.400 . S
C705 C706 1.398 . S
C706 H694 0.950 . S
C706 C705 1.398 . S
C706 C707 1.391 . S
C707 H695 0.950 . S
C707 C703 1.393 . S
C707 C706 1.391 . S
H708 C716 0.950 . S
H709 C721 0.950 . S
H710 C718 0.950 . S
H711 C720 0.950 . S
H712 C722 0.950 . S
H713 C724 0.950 . S
H714 C726 0.950 . S
H715 C727 0.950 . S
C716 H708 0.950 . S
C716 C717 1.386 . S
C716 C718 1.391 . S
C717 C716 1.386 . S
C717 C721 1.393 . S
C718 H710 0.950 . S
C718 C716 1.391 . S
C718 C719 1.400 . S
C719 C718 1.400 . S
C719 C720 1.398 . S
C719 C725 1.491 . S
C720 H711 0.950 . S
C720 C719 1.398 . S
C720 C721 1.391 . S
C721 H709 0.950 . S
C721 C717 1.393 . S
C721 C720 1.391 . S
C722 H712 0.950 . S
C722 C723 1.386 . S
C722 C724 1.391 . S
C723 C722 1.386 . S
C723 C727 1.393 . S
C724 H713 0.950 . S
C724 C722 1.391 . S
C724 C725 1.400 . S
C725 C719 1.491 . S
C725 C724 1.400 . S
C725 C726 1.398 . S
C726 H714 0.950 . S
C726 C725 1.398 . S
C726 C727 1.391 . S
C727 H715 0.950 . S
C727 C723 1.393 . S
C727 C726 1.391 . S
H728 C736 0.950 . S
H729 C741 0.950 . S
H730 C738 0.950 . S
H731 C740 0.950 . S
H732 C742 0.950 . S
H733 C744 0.950 . S
H734 C746 0.950 . S
H735 C747 0.950 . S
C736 H728 0.950 . S
C736 C737 1.386 . S
C736 C738 1.391 . S
C737 C736 1.386 . S
C737 C741 1.393 . S
C738 H730 0.950 . S
C738 C736 1.391 . S
C738 C739 1.400 . S
C739 C738 1.400 . S
C739 C740 1.398 . S
C739 C745 1.491 . S
C740 H731 0.950 . S
C740 C739 1.398 . S
C740 C741 1.391 . S
C741 H729 0.950 . S
C741 C737 1.393 . S
C741 C740 1.391 . S
C742 H732 0.950 . S
C742 C743 1.386 . S
C742 C744 1.391 . S
C743 C742 1.386 . S
C743 C747 1.393 . S
C744 H733 0.950 . S
C744 C742 1.391 . S
C744 C745 1.400 . S
C745 C739 1.491 . S
C745 C744 1.400 . S
C745 C746 1.398 . S
C746 H734 0.950 . S
C746 C745 1.398 . S
C746 C747 1.391 . S
C747 H735 0.950 . S
C747 C743 1.393 . S
C747 C746 1.391 . S
H748 C756 0.950 . S
H749 C761 0.950 . S
H750 C758 0.950 . S
H751 C760 0.950 . S
H752 C762 0.950 . S
H753 C764 0.950 . S
H754 C766 0.950 . S
H755 C767 0.950 . S
C756 H748 0.950 . S
C756 C757 1.386 . S
C756 C758 1.391 . S
C757 C756 1.386 . S
C757 C761 1.393 . S
C758 H750 0.950 . S
C758 C756 1.391 . S
C758 C759 1.400 . S
C759 C758 1.400 . S
C759 C760 1.398 . S
C759 C765 1.491 . S
C760 H751 0.950 . S
C760 C759 1.398 . S
C760 C761 1.391 . S
C761 H749 0.950 . S
C761 C757 1.393 . S
C761 C760 1.391 . S
C762 H752 0.950 . S
C762 C763 1.386 . S
C762 C764 1.391 . S
C763 C762 1.386 . S
C763 C767 1.393 . S
C764 H753 0.950 . S
C764 C762 1.391 . S
C764 C765 1.400 . S
C765 C759 1.491 . S
C765 C764 1.400 . S
C765 C766 1.398 . S
C766 H754 0.950 . S
C766 C765 1.398 . S
C766 C767 1.391 . S
C767 H755 0.950 . S
C767 C763 1.393 . S
C767 C766 1.391 . S
H768 C776 0.950 . S
H769 C781 0.950 . S
H770 C778 0.950 . S
H771 C780 0.950 . S
H772 C782 0.950 . S
H773 C784 0.950 . S
H774 C786 0.950 . S
H775 C787 0.950 . S
C776 H768 0.950 . S
C776 C777 1.386 . S
C776 C778 1.391 . S
C777 C776 1.386 . S
C777 C781 1.393 . S
C778 H770 0.950 . S
C778 C776 1.391 . S
C778 C779 1.400 . S
C779 C778 1.400 . S
C779 C780 1.398 . S
C779 C785 1.491 . S
C780 H771 0.950 . S
C780 C779 1.398 . S
C780 C781 1.391 . S
C781 H769 0.950 . S
C781 C777 1.393 . S
C781 C780 1.391 . S
C782 H772 0.950 . S
C782 C783 1.386 . S
C782 C784 1.391 . S
C783 C782 1.386 . S
C783 C787 1.393 . S
C784 H773 0.950 . S
C784 C782 1.391 . S
C784 C785 1.400 . S
C785 C779 1.491 . S
C785 C784 1.400 . S
C785 C786 1.398 . S
C786 H774 0.950 . S
C786 C785 1.398 . S
C786 C787 1.391 . S
C787 H775 0.950 . S
C787 C783 1.393 . S
C787 C786 1.391 . S
H788 C796 0.950 . S
H789 C801 0.950 . S
H790 C798 0.950 . S
H791 C800 0.950 . S
H792 C802 0.950 . S
H793 C804 0.950 . S
H794 C806 0.950 . S
H795 C807 0.950 . S
C796 H788 0.950 . S
C796 C797 1.386 . S
C796 C798 1.391 . S
C797 C796 1.386 . S
C797 C801 1.393 . S
C798 H790 0.950 . S
C798 C796 1.391 . S
C798 C799 1.400 . S
C799 C798 1.400 . S
C799 C800 1.398 . S
C799 C805 1.491 . S
C800 H791 0.950 . S
C800 C799 1.398 . S
C800 C801 1.391 . S
C801 H789 0.950 . S
C801 C797 1.393 . S
C801 C800 1.391 . S
C802 H792 0.950 . S
C802 C803 1.386 . S
C802 C804 1.391 . S
C803 C802 1.386 . S
C803 C807 1.393 . S
C804 H793 0.950 . S
C804 C802 1.391 . S
C804 C805 1.400 . S
C805 C799 1.491 . S
C805 C804 1.400 . S
C805 C806 1.398 . S
C806 H794 0.950 . S
C806 C805 1.398 . S
C806 C807 1.391 . S
C807 H795 0.950 . S
C807 C803 1.393 . S
C807 C806 1.391 . S
H808 C816 0.950 . S
H809 C821 0.950 . S
H810 C818 0.950 . S
H811 C820 0.950 . S
H812 C822 0.950 . S
H813 C824 0.950 . S
H814 C826 0.950 . S
H815 C827 0.950 . S
C816 H808 0.950 . S
C816 C817 1.386 . S
C816 C818 1.391 . S
C817 C816 1.386 . S
C817 C821 1.393 . S
C818 H810 0.950 . S
C818 C816 1.391 . S
C818 C819 1.400 . S
C819 C818 1.400 . S
C819 C820 1.398 . S
C819 C825 1.491 . S
C820 H811 0.950 . S
C820 C819 1.398 . S
C820 C821 1.391 . S
C821 H809 0.950 . S
C821 C817 1.393 . S
C821 C820 1.391 . S
C822 H812 0.950 . S
C822 C823 1.386 . S
C822 C824 1.391 . S
C823 C822 1.386 . S
C823 C827 1.393 . S
C824 H813 0.950 . S
C824 C822 1.391 . S
C824 C825 1.400 . S
C825 C819 1.491 . S
C825 C824 1.400 . S
C825 C826 1.398 . S
C826 H814 0.950 . S
C826 C825 1.398 . S
C826 C827 1.391 . S
C827 H815 0.950 . S
C827 C823 1.393 . S
C827 C826 1.391 . S
H828 C836 0.950 . S
H829 C841 0.950 . S
H830 C838 0.950 . S
H831 C840 0.950 . S
H832 C842 0.950 . S
H833 C844 0.950 . S
H834 C846 0.950 . S
H835 C847 0.950 . S
C836 H828 0.950 . S
C836 C837 1.386 . S
C836 C838 1.391 . S
C837 C836 1.386 . S
C837 C841 1.393 . S
C838 H830 0.950 . S
C838 C836 1.391 . S
C838 C839 1.400 . S
C839 C838 1.400 . S
C839 C840 1.398 . S
C839 C845 1.491 . S
C840 H831 0.950 . S
C840 C839 1.398 . S
C840 C841 1.391 . S
C841 H829 0.950 . S
C841 C837 1.393 . S
C841 C840 1.391 . S
C842 H832 0.950 . S
C842 C843 1.386 . S
C842 C844 1.391 . S
C843 C842 1.386 . S
C843 C847 1.393 . S
C844 H833 0.950 . S
C844 C842 1.391 . S
C844 C845 1.400 . S
C845 C839 1.491 . S
C845 C844 1.400 . S
C845 C846 1.398 . S
C846 H834 0.950 . S
C846 C845 1.398 . S
C846 C847 1.391 . S
C847 H835 0.950 . S
C847 C843 1.393 . S
C847 C846 1.391 . S
H848 C856 0.950 . S
H849 C861 0.949 1_545 S
H850 C858 0.950 . S
H851 C860 0.950 . S
H852 C862 0.950 . S
H853 C864 0.950 . S
H854 C866 0.950 . S
H855 C867 0.950 . S
C856 H848 0.950 . S
C856 C857 1.386 . S
C856 C858 1.391 1_545 S
C857 C856 1.386 . S
C857 C861 1.390 1_545 S
C858 H850 0.950 . S
C858 C856 1.391 1_565 S
C858 C859 1.400 . S
C859 C858 1.400 . S
C859 C860 1.398 . S
C859 C865 1.491 . S
C860 H851 0.950 . S
C860 C859 1.398 . S
C860 C861 1.395 . S
C861 H849 0.949 1_565 S
C861 C857 1.390 1_565 S
C861 C860 1.395 . S
C862 H852 0.950 . S
C862 C863 1.386 . S
C862 C864 1.391 . S
C863 C862 1.386 . S
C863 C867 1.393 . S
C864 H853 0.950 . S
C864 C862 1.391 . S
C864 C865 1.400 . S
C865 C859 1.491 . S
C865 C864 1.400 . S
C865 C866 1.398 . S
C866 H854 0.950 . S
C866 C865 1.398 . S
C866 C867 1.391 . S
C867 H855 0.950 . S
C867 C863 1.393 . S
C867 C866 1.391 . S
H868 C876 0.950 . S
H869 C881 0.950 . S
H870 C878 0.950 . S
H871 C880 0.950 . S
H872 C882 0.950 . S
H873 C884 0.950 . S
H874 C886 0.950 . S
H875 C887 0.950 . S
C876 H868 0.950 . S
C876 C877 1.386 . S
C876 C878 1.391 . S
C877 C876 1.386 . S
C877 C881 1.393 . S
C878 H870 0.950 . S
C878 C876 1.391 . S
C878 C879 1.400 . S
C879 C878 1.400 . S
C879 C880 1.398 . S
C879 C885 1.491 . S
C880 H871 0.950 . S
C880 C879 1.398 . S
C880 C881 1.391 . S
C881 H869 0.950 . S
C881 C877 1.393 . S
C881 C880 1.391 . S
C882 H872 0.950 . S
C882 C883 1.386 . S
C882 C884 1.391 . S
C883 C882 1.386 . S
C883 C887 1.393 . S
C884 H873 0.950 . S
C884 C882 1.391 . S
C884 C885 1.400 . S
C885 C879 1.491 . S
C885 C884 1.400 . S
C885 C886 1.398 . S
C886 H874 0.950 . S
C886 C885 1.398 . S
C886 C887 1.391 . S
C887 H875 0.950 . S
C887 C883 1.393 . S
C887 C886 1.391 . S
H888 C896 0.950 . S
H889 C901 0.950 . S
H890 C898 0.950 . S
H891 C900 0.950 . S
H892 C902 0.950 . S
H893 C904 0.950 . S
H894 C906 0.950 . S
H895 C907 0.946 1_655 S
C896 H888 0.950 . S
C896 C897 1.386 . S
C896 C898 1.391 . S
C897 C896 1.386 . S
C897 C901 1.393 . S
C898 H890 0.950 . S
C898 C896 1.391 . S
C898 C899 1.400 . S
C899 C898 1.400 . S
C899 C900 1.398 . S
C899 C905 1.491 . S
C900 H891 0.950 . S
C900 C899 1.398 . S
C900 C901 1.391 . S
C901 H889 0.950 . S
C901 C897 1.393 . S
C901 C900 1.391 . S
C902 H892 0.950 . S
C902 C903 1.386 . S
C902 C904 1.391 1_655 S
C903 C902 1.386 . S
C903 C907 1.376 1_655 S
C904 H893 0.950 . S
C904 C902 1.391 1_455 S
C904 C905 1.400 . S
C905 C899 1.491 . S
C905 C904 1.400 . S
C905 C906 1.398 . S
C906 H894 0.950 . S
C906 C905 1.398 . S
C906 C907 1.412 . S
C907 H895 0.946 1_455 S
C907 C903 1.376 1_455 S
C907 C906 1.412 . S
H908 C916 0.950 . S
H909 C921 0.950 . S
H910 C918 0.950 . S
H911 C920 0.950 . S
H912 C922 0.950 . S
H913 C924 0.950 . S
H914 C926 0.950 . S
H915 C927 0.950 . S
C916 H908 0.950 . S
C916 C917 1.386 1_545 S
C916 C918 1.391 . S
C917 C916 1.386 1_565 S
C917 C921 1.393 . S
C918 H910 0.950 . S
C918 C916 1.391 . S
C918 C919 1.400 . S
C919 C918 1.400 . S
C919 C920 1.398 1_545 S
C919 C925 1.491 . S
C920 H911 0.950 . S
C920 C919 1.398 1_565 S
C920 C921 1.391 . S
C921 H909 0.950 . S
C921 C917 1.393 . S
C921 C920 1.391 . S
C922 H912 0.950 . S
C922 C923 1.386 . S
C922 C924 1.391 . S
C923 C922 1.386 . S
C923 C927 1.393 1_455 S
C924 H913 0.950 . S
C924 C922 1.391 . S
C924 C925 1.400 1_455 S
C925 C919 1.491 . S
C925 C924 1.400 1_655 S
C925 C926 1.398 . S
C926 H914 0.950 . S
C926 C925 1.398 . S
C926 C927 1.391 . S
C927 H915 0.950 . S
C927 C923 1.393 1_655 S
C927 C926 1.391 . S
H928 C936 0.950 . S
H929 C941 0.950 . S
H930 C938 0.950 . S
H931 C940 0.950 . S
H932 C942 0.950 . S
H933 C944 0.950 . S
H934 C946 0.950 . S
H935 C947 0.950 . S
C936 H928 0.950 . S
C936 C937 1.386 . S
C936 C938 1.391 . S
C937 C936 1.386 . S
C937 C941 1.393 . S
C938 H930 0.950 . S
C938 C936 1.391 . S
C938 C939 1.400 . S
C939 C938 1.400 . S
C939 C940 1.398 . S
C939 C945 1.491 . S
C940 H931 0.950 . S
C940 C939 1.398 . S
C940 C941 1.391 . S
C941 H929 0.950 . S
C941 C937 1.393 . S
C941 C940 1.391 . S
C942 H932 0.950 . S
C942 C943 1.386 . S
C942 C944 1.391 . S
C943 C942 1.386 . S
C943 C947 1.393 . S
C944 H933 0.950 . S
C944 C942 1.391 . S
C944 C945 1.400 . S
C945 C939 1.491 . S
C945 C944 1.400 . S
C945 C946 1.398 . S
C946 H934 0.950 . S
C946 C945 1.398 . S
C946 C947 1.391 . S
C947 H935 0.950 . S
C947 C943 1.393 . S
C947 C946 1.391 . S
H948 C956 0.950 . S
H949 C961 0.950 . S
H950 C958 0.950 . S
H951 C960 0.950 . S
H952 C962 0.950 . S
H953 C964 0.950 . S
H954 C966 0.950 . S
H955 C967 0.950 . S
C956 H948 0.950 . S
C956 C957 1.386 1_655 S
C956 C958 1.391 . S
C957 C956 1.386 1_455 S
C957 C961 1.393 . S
C958 H950 0.950 . S
C958 C956 1.391 . S
C958 C959 1.400 . S
C959 C958 1.400 . S
C959 C960 1.398 1_655 S
C959 C965 1.491 . S
C960 H951 0.950 . S
C960 C959 1.398 1_455 S
C960 C961 1.391 . S
C961 H949 0.950 . S
C961 C957 1.393 . S
C961 C960 1.391 . S
C962 H952 0.950 . S
C962 C963 1.386 . S
C962 C964 1.391 . S
C963 C962 1.386 . S
C963 C967 1.393 . S
C964 H953 0.950 . S
C964 C962 1.391 . S
C964 C965 1.400 . S
C965 C959 1.491 . S
C965 C964 1.400 . S
C965 C966 1.398 . S
C966 H954 0.950 . S
C966 C965 1.398 . S
C966 C967 1.391 . S
C967 H955 0.950 . S
C967 C963 1.393 . S
C967 C966 1.391 . S
H968 C976 0.950 . S
H969 C981 0.950 . S
H970 C978 0.950 . S
H971 C980 0.950 . S
H972 C982 0.950 . S
H973 C984 0.950 . S
H974 C986 0.950 . S
H975 C987 0.950 . S
C976 H968 0.950 . S
C976 C977 1.386 . S
C976 C978 1.391 . S
C977 C976 1.386 . S
C977 C981 1.393 1_655 S
C978 H970 0.950 . S
C978 C976 1.391 . S
C978 C979 1.400 1_655 S
C979 C978 1.400 1_455 S
C979 C980 1.398 . S
C979 C985 1.491 . S
C980 H971 0.950 . S
C980 C979 1.398 . S
C980 C981 1.391 . S
C981 H969 0.950 . S
C981 C977 1.393 1_455 S
C981 C980 1.391 . S
C982 H972 0.950 . S
C982 C983 1.386 1_565 S
C982 C984 1.391 . S
C983 C982 1.386 1_545 S
C983 C987 1.393 . S
C984 H973 0.950 . S
C984 C982 1.391 . S
C984 C985 1.400 . S
C985 C979 1.491 . S
C985 C984 1.400 . S
C985 C986 1.398 1_565 S
C986 H974 0.950 . S
C986 C985 1.398 1_545 S
C986 C987 1.391 . S
C987 H975 0.950 . S
C987 C983 1.393 . S
C987 C986 1.391 . S
H988 C996 0.950 . S
H989 C1001 0.950 . S
H990 C998 0.950 . S
H991 C1000 0.949 1_565 S
H992 C1002 0.950 . S
H993 C1004 0.950 . S
H994 C1006 0.950 . S
H995 C1007 0.950 . S
C996 H988 0.950 . S
C996 C997 1.386 1_545 S
C996 C998 1.391 . S
C997 C996 1.386 1_565 S
C997 C1001 1.393 . S
C998 H990 0.950 . S
C998 C996 1.391 . S
C998 C999 1.400 . S
C999 C998 1.400 . S
C999 C1000 1.398 . S
C999 C1005 1.491 . S
C1000 H991 0.949 1_545 S
C1000 C999 1.398 . S
C1000 C1001 1.391 1_545 S
C1001 H989 0.950 . S
C1001 C997 1.393 . S
C1001 C1000 1.391 1_565 S
C1002 H992 0.950 . S
C1002 C1003 1.386 . S
C1002 C1004 1.391 . S
C1003 C1002 1.386 . S
C1003 C1007 1.393 . S
C1004 H993 0.950 . S
C1004 C1002 1.391 . S
C1004 C1005 1.400 . S
C1005 C999 1.491 . S
C1005 C1004 1.400 . S
C1005 C1006 1.398 . S
C1006 H994 0.950 . S
C1006 C1005 1.398 . S
C1006 C1007 1.391 . S
C1007 H995 0.950 . S
C1007 C1003 1.393 . S
C1007 C1006 1.391 . S
C377 C168 1.657 . S
C383 C7 1.659 . S
C397 C99 1.659 . S
C403 C30 1.660 . S
C417 C122 1.665 . S
C423 C53 1.654 . S
C437 C76 1.655 . S
C443 C145 1.663 . S
C457 C352 1.665 . S
C463 C191 1.654 . S
C477 C283 1.652 . S
C483 C214 1.666 . S
C497 C237 1.663 . S
C503 C306 1.654 . S
C517 C260 1.654 . S
C523 C329 1.662 . S
C537 N48 1.281 . S
C543 N2 1.288 . S
C557 N25 1.297 . S
C563 N71 1.308 . S
C577 N94 1.290 . S
C583 N140 1.302 . S
C597 N163 1.290 . S
C603 N117 1.282 . S
C617 N186 1.296 . S
C623 N232 1.285 . S
C637 N209 1.285 . S
C643 N255 1.296 . S
C657 N324 1.313 . S
C663 N278 1.309 . S
C677 N301 1.282 . S
C683 N347 1.290 . S
C697 C154 1.642 . S
C703 C16 1.645 . S
C717 C39 1.630 . S
C723 C177 1.630 . S
C737 C62 1.632 . S
C743 C108 1.629 . S
C757 C85 1.634 . S
C763 C131 1.640 . S
C777 C200 1.643 . S
C783 C338 1.638 . S
C797 C223 1.644 . S
C803 C361 1.640 . S
C817 C246 1.644 . S
C823 C292 1.641 . S
C837 C269 1.630 . S
C843 C315 1.633 . S
C857 N12 1.455 . S
C863 N357 1.467 . S
C877 N288 1.455 . S
C883 N35 1.467 . S
C897 N58 1.467 . S
C903 N311 1.455 . S
C917 N334 1.456 . S
C923 N81 1.467 . S
C937 N219 1.452 . S
C943 N104 1.470 . S
C957 N127 1.470 . S
C963 N242 1.453 . S
C977 N265 1.471 . S
C983 N150 1.451 . S
C997 N196 1.459 . S
C1003 N173 1.463 . S
