# Generated by pormake.
# Topology snl, (6)-cn, num edge types: 1
# Building blocks:
#     Node 0, Type 0, BuildingBlock: MIDCAF_clean_sbu_0, # of connection points: 6
#     Node 1, Type 0, BuildingBlock: MIDCAF_clean_sbu_0, # of connection points: 6
#     Node 2, Type 0, BuildingBlock: MIDCAF_clean_sbu_0, # of connection points: 6
#     Node 3, Type 0, BuildingBlock: MIDCAF_clean_sbu_0, # of connection points: 6
#     Node 4, Type 0, BuildingBlock: MIDCAF_clean_sbu_0, # of connection points: 6
#     Node 5, Type 0, BuildingBlock: MIDCAF_clean_sbu_0, # of connection points: 6
#     Node 6, Type 0, BuildingBlock: MIDCAF_clean_sbu_0, # of connection points: 6
#     Node 7, Type 0, BuildingBlock: MIDCAF_clean_sbu_0, # of connection points: 6
#     Node 8, Type 0, BuildingBlock: MIDCAF_clean_sbu_0, # of connection points: 6
#     Node 9, Type 0, BuildingBlock: MIDCAF_clean_sbu_0, # of connection points: 6
#     Node 10, Type 0, BuildingBlock: MIDCAF_clean_sbu_0, # of connection points: 6
#     Node 11, Type 0, BuildingBlock: MIDCAF_clean_sbu_0, # of connection points: 6
#     Node 12, Type 0, BuildingBlock: MIDCAF_clean_sbu_0, # of connection points: 6
#     Node 13, Type 0, BuildingBlock: MIDCAF_clean_sbu_0, # of connection points: 6
#     Node 14, Type 0, BuildingBlock: MIDCAF_clean_sbu_0, # of connection points: 6
#     Node 15, Type 0, BuildingBlock: MIDCAF_clean_sbu_0, # of connection points: 6
#     Edge 16, Type (0, 0), BuildingBlock: XUDNAN_clean_linker_2, # of connection points: 2
#     Edge 17, Type (0, 0), BuildingBlock: XUDNAN_clean_linker_2, # of connection points: 2
#     Edge 18, Type (0, 0), BuildingBlock: XUDNAN_clean_linker_2, # of connection points: 2
#     Edge 19, Type (0, 0), BuildingBlock: XUDNAN_clean_linker_2, # of connection points: 2
#     Edge 20, Type (0, 0), BuildingBlock: XUDNAN_clean_linker_2, # of connection points: 2
#     Edge 21, Type (0, 0), BuildingBlock: XUDNAN_clean_linker_2, # of connection points: 2
#     Edge 22, Type (0, 0), BuildingBlock: XUDNAN_clean_linker_2, # of connection points: 2
#     Edge 23, Type (0, 0), BuildingBlock: XUDNAN_clean_linker_2, # of connection points: 2
#     Edge 24, Type (0, 0), BuildingBlock: XUDNAN_clean_linker_2, # of connection points: 2
#     Edge 25, Type (0, 0), BuildingBlock: XUDNAN_clean_linker_2, # of connection points: 2
#     Edge 26, Type (0, 0), BuildingBlock: XUDNAN_clean_linker_2, # of connection points: 2
#     Edge 27, Type (0, 0), BuildingBlock: XUDNAN_clean_linker_2, # of connection points: 2
#     Edge 28, Type (0, 0), BuildingBlock: XUDNAN_clean_linker_2, # of connection points: 2
#     Edge 29, Type (0, 0), BuildingBlock: XUDNAN_clean_linker_2, # of connection points: 2
#     Edge 30, Type (0, 0), BuildingBlock: XUDNAN_clean_linker_2, # of connection points: 2
#     Edge 31, Type (0, 0), BuildingBlock: XUDNAN_clean_linker_2, # of connection points: 2
#     Edge 32, Type (0, 0), BuildingBlock: XUDNAN_clean_linker_2, # of connection points: 2
#     Edge 33, Type (0, 0), BuildingBlock: XUDNAN_clean_linker_2, # of connection points: 2
#     Edge 34, Type (0, 0), BuildingBlock: XUDNAN_clean_linker_2, # of connection points: 2
#     Edge 35, Type (0, 0), BuildingBlock: XUDNAN_clean_linker_2, # of connection points: 2
#     Edge 36, Type (0, 0), BuildingBlock: XUDNAN_clean_linker_2, # of connection points: 2
#     Edge 37, Type (0, 0), BuildingBlock: XUDNAN_clean_linker_2, # of connection points: 2
#     Edge 38, Type (0, 0), BuildingBlock: XUDNAN_clean_linker_2, # of connection points: 2
#     Edge 39, Type (0, 0), BuildingBlock: XUDNAN_clean_linker_2, # of connection points: 2
#     Edge 40, Type (0, 0), BuildingBlock: XUDNAN_clean_linker_2, # of connection points: 2
#     Edge 41, Type (0, 0), BuildingBlock: XUDNAN_clean_linker_2, # of connection points: 2
#     Edge 42, Type (0, 0), BuildingBlock: XUDNAN_clean_linker_2, # of connection points: 2
#     Edge 43, Type (0, 0), BuildingBlock: XUDNAN_clean_linker_2, # of connection points: 2
#     Edge 44, Type (0, 0), BuildingBlock: XUDNAN_clean_linker_2, # of connection points: 2
#     Edge 45, Type (0, 0), BuildingBlock: XUDNAN_clean_linker_2, # of connection points: 2
#     Edge 46, Type (0, 0), BuildingBlock: XUDNAN_clean_linker_2, # of connection points: 2
#     Edge 47, Type (0, 0), BuildingBlock: XUDNAN_clean_linker_2, # of connection points: 2
#     Edge 48, Type (0, 0), BuildingBlock: XUDNAN_clean_linker_2, # of connection points: 2
#     Edge 49, Type (0, 0), BuildingBlock: XUDNAN_clean_linker_2, # of connection points: 2
#     Edge 50, Type (0, 0), BuildingBlock: XUDNAN_clean_linker_2, # of connection points: 2
#     Edge 51, Type (0, 0), BuildingBlock: XUDNAN_clean_linker_2, # of connection points: 2
#     Edge 52, Type (0, 0), BuildingBlock: XUDNAN_clean_linker_2, # of connection points: 2
#     Edge 53, Type (0, 0), BuildingBlock: XUDNAN_clean_linker_2, # of connection points: 2
#     Edge 54, Type (0, 0), BuildingBlock: XUDNAN_clean_linker_2, # of connection points: 2
#     Edge 55, Type (0, 0), BuildingBlock: XUDNAN_clean_linker_2, # of connection points: 2
#     Edge 56, Type (0, 0), BuildingBlock: XUDNAN_clean_linker_2, # of connection points: 2
#     Edge 57, Type (0, 0), BuildingBlock: XUDNAN_clean_linker_2, # of connection points: 2
#     Edge 58, Type (0, 0), BuildingBlock: XUDNAN_clean_linker_2, # of connection points: 2
#     Edge 59, Type (0, 0), BuildingBlock: XUDNAN_clean_linker_2, # of connection points: 2
#     Edge 60, Type (0, 0), BuildingBlock: XUDNAN_clean_linker_2, # of connection points: 2
#     Edge 61, Type (0, 0), BuildingBlock: XUDNAN_clean_linker_2, # of connection points: 2
#     Edge 62, Type (0, 0), BuildingBlock: XUDNAN_clean_linker_2, # of connection points: 2
#     Edge 63, Type (0, 0), BuildingBlock: XUDNAN_clean_linker_2, # of connection points: 2
# Relax obj value: 0.110
# Max RMSD: 0.168
# Mean RMSD: 0.168
data_MOF--net-snl--node1-MIDCAF_clean_sbu_0--edge1-XUDNAN_clean_linker_2
_symmetry_space_group_name_H-M    P1
_symmetry_Int_Tables_number       1
_symmetry_cell_setting            triclinic
loop_
_symmetry_equiv_pos_as_xyz
'x, y, z'
_cell_length_a     60.763049
_cell_length_b     60.764133
_cell_length_c     15.253366
_cell_angle_alpha  90.009471
_cell_angle_beta   90.154699
_cell_angle_gamma 89.996859
loop_
_atom_site_label
_atom_site_type_symbol
_atom_site_fract_x
_atom_site_fract_y
_atom_site_fract_z
_atom_type_partial_charge
Zn0 Zn 0.10341 0.60119 0.18814 0.0
Zn1 Zn 0.14847 0.65888 0.06064 0.0
Zn2 Zn 0.12709 0.62766 0.12335 0.0
C3 C 0.10956 0.67799 0.08209 0.0
C4 C 0.17322 0.64542 0.19792 0.0
O5 O 0.12643 0.59837 0.03598 0.0
O6 O 0.11637 0.57458 0.13746 0.0
C7 C 0.07486 0.63162 0.14027 0.0
O8 O 0.10697 0.65878 0.11668 0.0
O9 O 0.12736 0.68277 0.04455 0.0
O10 O 0.17131 0.66219 0.14985 0.0
O11 O 0.15776 0.63091 0.1997 0.0
O12 O 0.0741 0.61095 0.14627 0.0
O13 O 0.0936 0.64153 0.14089 0.0
O14 O 0.14172 0.61917 0.25239 0.0
O15 O 0.1112 0.60646 0.31086 0.0
C16 C 0.131 0.6123 0.31978 0.0
O17 O 0.13743 0.61619 0.99202 0.0
O18 O 0.15884 0.64401 0.95441 0.0
C19 C 0.12386 0.57835 0.06209 0.0
C20 C 0.15086 0.62532 0.93781 0.0
Zn21 Zn 0.6469 0.84909 0.47636 0.0
Zn22 Zn 0.58727 0.90939 0.22688 0.0
Zn23 Zn 0.62681 0.87695 0.39429 0.0
C24 C 0.57747 0.86362 0.28734 0.0
C25 C 0.60624 0.92096 0.42957 0.0
O26 O 0.66056 0.87515 0.33608 0.0
O27 O 0.67527 0.84849 0.41503 0.0
C28 C 0.61062 0.82677 0.42197 0.0
O29 O 0.59459 0.86329 0.33907 0.0
O30 O 0.57301 0.87954 0.23551 0.0
O31 O 0.59904 0.91666 0.35302 0.0
O32 O 0.61837 0.90667 0.46844 0.0
O33 O 0.62768 0.82342 0.46718 0.0
O34 O 0.60728 0.84588 0.38791 0.0
O35 O 0.62843 0.89149 0.53034 0.0
O36 O 0.64684 0.86408 0.59008 0.0
C37 C 0.63758 0.88254 0.59809 0.0
O38 O 0.6465 0.88669 0.27954 0.0
O39 O 0.61654 0.90487 0.2773 0.0
C40 C 0.67718 0.86293 0.35619 0.0
C41 C 0.63353 0.89915 0.23665 0.0
Zn42 Zn 0.3988 0.39414 0.70329 0.0
Zn43 Zn 0.35171 0.34572 0.54222 0.0
Zn44 Zn 0.37095 0.37341 0.62662 0.0
C45 C 0.34685 0.38363 0.44542 0.0
C46 C 0.38893 0.32529 0.54956 0.0
O47 O 0.35529 0.37837 0.75846 0.0
O48 O 0.38507 0.39286 0.8169 0.0
C49 C 0.38267 0.42346 0.58253 0.0
O50 O 0.36111 0.39031 0.50238 0.0
O51 O 0.33847 0.36476 0.45283 0.0
O52 O 0.37242 0.32329 0.50019 0.0
O53 O 0.39048 0.34225 0.60064 0.0
O54 O 0.39592 0.42219 0.64588 0.0
O55 O 0.37201 0.40614 0.55814 0.0
O56 O 0.40499 0.35706 0.63736 0.0
O57 O 0.42761 0.3808 0.6999 0.0
C58 C 0.42447 0.36232 0.66501 0.0
O59 O 0.33943 0.36664 0.69796 0.0
O60 O 0.33076 0.33582 0.63054 0.0
C61 C 0.3656 0.38616 0.82565 0.0
C62 C 0.32603 0.35042 0.68608 0.0
Zn63 Zn 0.85176 0.1588 0.94022 0.0
Zn64 Zn 0.90321 0.10141 0.814 0.0
Zn65 Zn 0.87433 0.12748 0.88076 0.0
C66 C 0.86919 0.10644 0.69046 0.0
C67 C 0.92797 0.13657 0.84924 0.0
O68 O 0.86397 0.11576 0.01117 0.0
O69 O 0.85089 0.1472 0.06152 0.0
C70 C 0.82593 0.14022 0.81131 0.0
O71 O 0.86072 0.11837 0.7515 0.0
O72 O 0.88794 0.09784 0.70053 0.0
O73 O 0.93124 0.11745 0.82023 0.0
O74 O 0.90834 0.14271 0.87105 0.0
O75 O 0.8251 0.15444 0.87137 0.0
O76 O 0.84389 0.12939 0.79815 0.0
O77 O 0.89361 0.15901 0.89107 0.0
O78 O 0.86919 0.1852 0.91663 0.0
C79 C 0.88868 0.17954 0.90041 0.0
O80 O 0.87375 0.09762 0.96399 0.0
O81 O 0.89875 0.07729 0.89647 0.0
C82 C 0.85582 0.12726 0.07424 0.0
C83 C 0.88434 0.07938 0.95513 0.0
Zn84 Zn 0.09313 0.39162 0.79672 0.0
Zn85 Zn 0.15475 0.36368 0.94008 0.0
Zn86 Zn 0.12494 0.37949 0.85302 0.0
C87 C 0.14063 0.39674 0.04452 0.0
C88 C 0.12577 0.3294 0.91992 0.0
O89 O 0.13157 0.38685 0.71274 0.0
O90 O 0.09745 0.37841 0.67972 0.0
C91 C 0.11132 0.42851 0.85988 0.0
O92 O 0.12948 0.4005 0.97368 0.0
O93 O 0.15322 0.38031 0.04831 0.0
O94 O 0.1453 0.33228 0.94588 0.0
O95 O 0.11489 0.34566 0.88729 0.0
O96 O 0.09886 0.42298 0.79771 0.0
O97 O 0.12063 0.41335 0.90611 0.0
O98 O 0.09555 0.35638 0.86898 0.0
O99 O 0.06877 0.3808 0.86868 0.0
C100 C 0.07511 0.36134 0.88145 0.0
O101 O 0.15274 0.37754 0.75882 0.0
O102 O 0.17824 0.37236 0.85999 0.0
C103 C 0.1164 0.38408 0.65458 0.0
C104 C 0.17313 0.37624 0.78142 0.0
Zn105 Zn 0.91015 0.89743 0.20655 0.0
Zn106 Zn 0.85355 0.84769 0.0683 0.0
Zn107 Zn 0.87987 0.87579 0.13954 0.0
C108 C 0.85668 0.88398 0.95453 0.0
C109 C 0.89058 0.82412 0.08354 0.0
O110 O 0.86752 0.8843 0.27287 0.0
O111 O 0.89792 0.89933 0.32459 0.0
C112 C 0.8932 0.92455 0.07869 0.0
O113 O 0.87023 0.89096 0.01345 0.0
O114 O 0.84705 0.86573 0.96387 0.0
O115 O 0.87152 0.8211 0.05336 0.0
O116 O 0.896 0.84292 0.11684 0.0
O117 O 0.90774 0.92421 0.13773 0.0
O118 O 0.88166 0.90714 0.06356 0.0
O119 O 0.91197 0.85686 0.14809 0.0
O120 O 0.93691 0.88029 0.19743 0.0
C121 C 0.93201 0.86136 0.1703 0.0
O122 O 0.85 0.87405 0.22264 0.0
O123 O 0.83073 0.84763 0.15849 0.0
C124 C 0.87838 0.8931 0.33664 0.0
C125 C 0.83247 0.86217 0.21709 0.0
Zn126 Zn 0.3505 0.65811 0.45193 0.0
Zn127 Zn 0.40282 0.60105 0.32081 0.0
Zn128 Zn 0.37397 0.62776 0.38285 0.0
C129 C 0.36907 0.60414 0.19533 0.0
C130 C 0.42595 0.63839 0.33999 0.0
O131 O 0.36342 0.61497 0.51417 0.0
O132 O 0.3447 0.64345 0.56412 0.0
C133 C 0.32866 0.64372 0.30127 0.0
O134 O 0.36117 0.61787 0.25153 0.0
O135 O 0.38701 0.59442 0.21089 0.0
O136 O 0.42937 0.61923 0.31152 0.0
O137 O 0.4068 0.64383 0.3691 0.0
O138 O 0.32725 0.6576 0.36253 0.0
O139 O 0.34556 0.63108 0.29557 0.0
O140 O 0.39259 0.65974 0.39871 0.0
O141 O 0.36971 0.68376 0.45794 0.0
C142 C 0.38846 0.67927 0.42791 0.0
O143 O 0.37312 0.59724 0.46205 0.0
O144 O 0.40094 0.5778 0.40949 0.0
C145 C 0.35239 0.6244 0.57596 0.0
C146 C 0.38462 0.57941 0.45996 0.0
Zn147 Zn 0.64645 0.14806 0.54273 0.0
Zn148 Zn 0.59362 0.10073 0.69353 0.0
Zn149 Zn 0.62171 0.12099 0.61444 0.0
C150 C 0.57297 0.13847 0.68352 0.0
C151 C 0.59881 0.07755 0.54105 0.0
O152 O 0.65307 0.12112 0.69199 0.0
O153 O 0.67165 0.14685 0.62165 0.0
C154 C 0.61201 0.17374 0.56942 0.0
O155 O 0.59036 0.14074 0.63551 0.0
O156 O 0.57088 0.12153 0.73021 0.0
O157 O 0.58496 0.08018 0.60141 0.0
O158 O 0.61499 0.09115 0.53314 0.0
O159 O 0.63072 0.1758 0.53533 0.0
O160 O 0.6061 0.15494 0.60147 0.0
O161 O 0.62871 0.10624 0.4817 0.0
O162 O 0.64985 0.13282 0.43116 0.0
C163 C 0.64031 0.11465 0.41922 0.0
O164 O 0.63675 0.10988 0.74295 0.0
O165 O 0.6107 0.08728 0.78754 0.0
C166 C 0.67074 0.13258 0.68142 0.0
C167 C 0.62943 0.09567 0.79883 0.0
Zn168 Zn 0.9079 0.39659 0.80128 0.0
Zn169 Zn 0.8542 0.34612 0.94745 0.0
Zn170 Zn 0.87756 0.37525 0.87404 0.0
C171 C 0.85441 0.38287 0.0589 0.0
C172 C 0.89105 0.32395 0.93137 0.0
O173 O 0.8644 0.38274 0.74011 0.0
O174 O 0.89441 0.39773 0.68517 0.0
C175 C 0.89002 0.42401 0.92998 0.0
O176 O 0.86722 0.39079 -0.00053 0.0
O177 O 0.84659 0.36376 0.05076 0.0
O178 O 0.87262 0.32006 0.96541 0.0
O179 O 0.89496 0.34291 0.89625 0.0
O180 O 0.90452 0.42341 0.87099 0.0
O181 O 0.87866 0.40665 0.9472 0.0
O182 O 0.91068 0.35792 0.87072 0.0
O183 O 0.93526 0.37995 0.81014 0.0
C184 C 0.93065 0.36191 0.84616 0.0
O185 O 0.84726 0.37214 0.79292 0.0
O186 O 0.83076 0.34449 0.86003 0.0
C187 C 0.8748 0.3914 0.675 0.0
C188 C 0.83056 0.35923 0.80184 0.0
Zn189 Zn 0.39679 0.10677 0.66748 0.0
Zn190 Zn 0.35431 0.16052 0.50972 0.0
Zn191 Zn 0.37151 0.131 0.58879 0.0
C192 C 0.35181 0.12642 0.39255 0.0
C193 C 0.39154 0.18017 0.53336 0.0
O194 O 0.35407 0.12309 0.7154 0.0
O195 O 0.37713 0.09758 0.76171 0.0
C196 C 0.3863 0.08363 0.51998 0.0
O197 O 0.36261 0.11683 0.45496 0.0
O198 O 0.34508 0.14578 0.40376 0.0
O199 O 0.37479 0.18421 0.48764 0.0
O200 O 0.3928 0.16177 0.57585 0.0
O201 O 0.40118 0.08439 0.57761 0.0
O202 O 0.37284 0.09992 0.5115 0.0
O203 O 0.40555 0.14562 0.61417 0.0
O204 O 0.42298 0.12309 0.70405 0.0
C205 C 0.42274 0.14069 0.66061 0.0
O206 O 0.34023 0.1375 0.66212 0.0
O207 O 0.33056 0.16729 0.58977 0.0
C208 C 0.35953 0.10822 0.77192 0.0
C209 C 0.32648 0.15331 0.64843 0.0
Zn210 Zn 0.59271 0.60312 0.26621 0.0
Zn211 Zn 0.64586 0.65394 0.41138 0.0
Zn212 Zn 0.62243 0.62624 0.33533 0.0
C213 C 0.64616 0.61775 0.52108 0.0
C214 C 0.60988 0.67761 0.39684 0.0
O215 O 0.63509 0.61801 0.20162 0.0
O216 O 0.60476 0.60342 0.14718 0.0
C217 C 0.61234 0.57649 0.39063 0.0
O218 O 0.63244 0.61078 0.46263 0.0
O219 O 0.65525 0.63625 0.51193 0.0
O220 O 0.62784 0.67975 0.43727 0.0
O221 O 0.60564 0.65941 0.35599 0.0
O222 O 0.59828 0.57563 0.32987 0.0
O223 O 0.62181 0.59485 0.40974 0.0
O224 O 0.59037 0.64416 0.32764 0.0
O225 O 0.56563 0.61984 0.2834 0.0
C226 C 0.57032 0.63903 0.30863 0.0
O227 O 0.65201 0.62901 0.25362 0.0
O228 O 0.66813 0.65697 0.32014 0.0
C229 C 0.62438 0.60961 0.13652 0.0
C230 C 0.66837 0.64233 0.26158 0.0
Zn231 Zn 0.15194 0.84025 0.05707 0.0
Zn232 Zn 0.10266 0.89599 0.20151 0.0
Zn233 Zn 0.13022 0.87158 0.12419 0.0
C234 C 0.07861 0.86021 0.18385 0.0
C235 C 0.11534 0.91819 0.05112 0.0
O236 O 0.16144 0.8691 0.19955 0.0
O237 O 0.17821 0.84185 0.13108 0.0
C238 C 0.11468 0.81991 0.09029 0.0
O239 O 0.0969 0.85585 0.14436 0.0
O240 O 0.07641 0.87813 0.22436 0.0
O241 O 0.10081 0.91845 0.11 0.0
O242 O 0.12822 0.90148 0.0432 0.0
O243 O 0.13328 0.81422 0.06221 0.0
O244 O 0.11114 0.84 0.11387 0.0
O245 O 0.13889 0.88426 0.99176 0.0
O246 O 0.15442 0.854 0.9412 0.0
C247 C 0.14804 0.87351 0.92873 0.0
O248 O 0.1458 0.88089 0.25124 0.0
O249 O 0.12098 0.90414 0.30244 0.0
C250 C 0.17855 0.85691 0.18796 0.0
C251 C 0.13927 0.89455 0.31044 0.0
Zn252 Zn 0.84936 0.6582 0.05907 0.0
Zn253 Zn 0.89871 0.5999 0.19042 0.0
Zn254 Zn 0.87131 0.62669 0.12356 0.0
C255 C 0.92428 0.63406 0.14815 0.0
C256 C 0.87893 0.57793 0.0521 0.0
O257 O 0.84154 0.62977 0.205 0.0
O258 O 0.82566 0.65871 0.1442 0.0
C259 C 0.88734 0.67823 0.08364 0.0
O260 O 0.9048 0.64162 0.13307 0.0
O261 O 0.92698 0.61433 0.17078 0.0
O262 O 0.89169 0.57472 0.11607 0.0
O263 O 0.87033 0.59702 0.03893 0.0
O264 O 0.86875 0.68369 0.05437 0.0
O265 O 0.89084 0.65833 0.11016 0.0
O266 O 0.85992 0.61438 0.99423 0.0
O267 O 0.84158 0.64361 0.94811 0.0
C268 C 0.84809 0.62415 0.93574 0.0
O269 O 0.85813 0.61819 0.25573 0.0
O270 O 0.88645 0.59983 0.3096 0.0
C271 C 0.82515 0.64315 0.19873 0.0
C272 C 0.86762 0.60816 0.32015 0.0
Zn273 Zn 0.09632 0.1021 0.83104 0.0
Zn274 Zn 0.15686 0.14371 0.97428 0.0
Zn275 Zn 0.12789 0.1229 0.89435 0.0
C276 C 0.12337 0.17365 0.9539 0.0
C277 C 0.17604 0.13197 0.81852 0.0
O278 O 0.12526 0.09142 0.96734 0.0
O279 O 0.09791 0.07494 0.89798 0.0
C280 C 0.076 0.13906 0.87771 0.0
O281 O 0.11434 0.15642 0.9198 0.0
O282 O 0.14276 0.1726 0.98323 0.0
O283 O 0.18073 0.14028 0.89172 0.0
O284 O 0.15627 0.12544 0.80175 0.0
O285 O 0.07066 0.12026 0.85057 0.0
O286 O 0.09642 0.14356 0.89425 0.0
O287 O 0.13861 0.11396 0.75917 0.0
O288 O 0.10733 0.10002 0.7106 0.0
C289 C 0.12708 0.10535 0.6968 0.0
O290 O 0.13739 0.10567 0.02115 0.0
O291 O 0.16182 0.12795 0.0818 0.0
C292 C 0.11293 0.07443 0.95502 0.0
C293 C 0.15073 0.11049 0.08454 0.0
Zn294 Zn 0.59761 0.39694 0.70243 0.0
Zn295 Zn 0.65036 0.34727 0.56524 0.0
Zn296 Zn 0.62599 0.37509 0.63319 0.0
C297 C 0.64984 0.38292 0.45113 0.0
C298 C 0.61358 0.32392 0.57482 0.0
O299 O 0.63939 0.38276 0.76564 0.0
O300 O 0.60823 0.39446 0.82229 0.0
C301 C 0.61617 0.42518 0.58342 0.0
O302 O 0.6356 0.39006 0.50684 0.0
O303 O 0.6595 0.36485 0.464 0.0
O304 O 0.63218 0.3216 0.53991 0.0
O305 O 0.60867 0.34229 0.61302 0.0
O306 O 0.60375 0.42538 0.64937 0.0
O307 O 0.62453 0.40676 0.55736 0.0
O308 O 0.59319 0.35728 0.64044 0.0
O309 O 0.56939 0.38294 0.67962 0.0
C310 C 0.57321 0.36346 0.65598 0.0
O311 O 0.65681 0.37266 0.7136 0.0
O312 O 0.67319 0.34392 0.65397 0.0
C313 C 0.6282 0.38946 0.83216 0.0
C314 C 0.67341 0.35943 0.70877 0.0
Zn315 Zn 0.35712 0.84973 0.44761 0.0
Zn316 Zn 0.41199 0.90148 0.31706 0.0
Zn317 Zn 0.38149 0.87804 0.37677 0.0
C318 C 0.37802 0.90028 0.18983 0.0
C319 C 0.43372 0.86443 0.33764 0.0
O320 O 0.37286 0.89189 0.50853 0.0
O321 O 0.3526 0.86467 0.55967 0.0
C322 C 0.33408 0.86463 0.30225 0.0
O323 O 0.3683 0.88827 0.24758 0.0
O324 O 0.3972 0.90741 0.20414 0.0
O325 O 0.43868 0.88374 0.31562 0.0
O326 O 0.41374 0.85967 0.35972 0.0
O327 O 0.33286 0.85075 0.36345 0.0
O328 O 0.35152 0.87648 0.29327 0.0
O329 O 0.39846 0.84505 0.3912 0.0
O330 O 0.37442 0.82284 0.45415 0.0
C331 C 0.39322 0.82594 0.4221 0.0
O332 O 0.38285 0.90914 0.45528 0.0
O333 O 0.41122 0.92632 0.39649 0.0
C334 C 0.36149 0.88319 0.57103 0.0
C335 C 0.39519 0.92637 0.44865 0.0
H336 H 0.12245 0.60399 0.83053 0.0
H337 H 0.18911 0.62846 0.84714 0.0
H338 H 0.19371 0.62273 0.6881 0.0
H339 H 0.13401 0.56187 0.64739 0.0
H340 H 0.10766 0.56714 0.59691 0.0
H341 H 0.11049 0.5685 0.71425 0.0
H342 H 0.09516 0.60768 0.7179 0.0
H343 H 0.09157 0.60717 0.60121 0.0
H344 H 0.10769 0.62872 0.6512 0.0
H345 H 0.18775 0.6227 0.5251 0.0
H346 H 0.17291 0.62425 0.37417 0.0
H347 H 0.1112 0.59715 0.46683 0.0
C348 C 0.13852 0.60636 0.80197 0.0
C349 C 0.1556 0.61587 0.85121 0.0
C350 C 0.17593 0.62076 0.81032 0.0
C351 C 0.17871 0.61753 0.72011 0.0
C352 C 0.16113 0.60902 0.67225 0.0
C353 C 0.14162 0.60289 0.71227 0.0
C354 C 0.12435 0.59668 0.64529 0.0
C355 C 0.11884 0.57206 0.65126 0.0
C356 C 0.10349 0.61093 0.65448 0.0
C357 C 0.13663 0.60181 0.56185 0.0
C358 C 0.15791 0.60861 0.57813 0.0
C359 C 0.17135 0.61666 0.51126 0.0
C360 C 0.16278 0.61761 0.42564 0.0
C361 C 0.14101 0.61066 0.40805 0.0
C362 C 0.12804 0.60238 0.47734 0.0
H363 H 0.65674 0.87528 0.11319 0.0
H364 H 0.61371 0.9317 0.14273 0.0
H365 H 0.61207 0.93603 0.98195 0.0
H366 H 0.68694 0.89604 0.91901 0.0
H367 H 0.68841 0.86908 0.87012 0.0
H368 H 0.68793 0.87192 0.98771 0.0
H369 H 0.65402 0.84607 0.99493 0.0
H370 H 0.65438 0.84323 0.87758 0.0
H371 H 0.6298 0.85267 0.93169 0.0
H372 H 0.61224 0.93186 0.81433 0.0
H373 H 0.6151 0.91955 0.65916 0.0
H374 H 0.65862 0.86682 0.74244 0.0
C375 C 0.64739 0.88883 0.08586 0.0
C376 C 0.63525 0.90305 0.14065 0.0
C377 C 0.62296 0.92041 0.10204 0.0
C378 C 0.622 0.9231 0.01063 0.0
C379 C 0.63358 0.90842 0.95806 0.0
C380 C 0.64622 0.89174 0.99448 0.0
C381 C 0.65607 0.87738 0.92375 0.0
C382 C 0.68134 0.87869 0.92525 0.0
C383 C 0.64808 0.85343 0.93253 0.0
C384 C 0.64668 0.88825 0.8424 0.0
C385 C 0.63383 0.90622 0.86281 0.0
C386 C 0.62253 0.91795 0.79758 0.0
C387 C 0.62423 0.91089 0.70954 0.0
C388 C 0.63707 0.89224 0.68791 0.0
C389 C 0.64867 0.88121 0.75578 0.0
H390 H 0.37742 0.40116 0.33734 0.0
H391 H 0.3077 0.38832 0.36145 0.0
H392 H 0.30333 0.39127 0.20088 0.0
H393 H 0.37458 0.43768 0.13264 0.0
H394 H 0.39945 0.4252 0.09189 0.0
H395 H 0.39553 0.42852 0.20823 0.0
H396 H 0.40252 0.38677 0.22851 0.0
H397 H 0.40557 0.38307 0.11245 0.0
H398 H 0.3853 0.36729 0.17127 0.0
H399 H 0.30836 0.38706 0.03465 0.0
H400 H 0.322 0.38139 0.88236 0.0
H401 H 0.3883 0.39544 0.97337 0.0
C402 C 0.36104 0.40051 0.30922 0.0
C403 C 0.34286 0.39497 0.36154 0.0
C404 C 0.32177 0.39305 0.3222 0.0
C405 C 0.31917 0.39447 0.2309 0.0
C406 C 0.33781 0.39796 0.17989 0.0
C407 C 0.35827 0.40153 0.21806 0.0
C408 C 0.3762 0.40187 0.14978 0.0
C409 C 0.38707 0.42468 0.14535 0.0
C410 C 0.39338 0.38367 0.16655 0.0
C411 C 0.36281 0.39716 0.06824 0.0
C412 C 0.34068 0.39513 0.08576 0.0
C413 C 0.32564 0.38915 0.01994 0.0
C414 C 0.33349 0.38573 0.93381 0.0
C415 C 0.35615 0.38816 0.91508 0.0
C416 C 0.37076 0.39377 0.98411 0.0
H417 H 0.84901 0.13742 0.58876 0.0
H418 H 0.86679 0.06847 0.59911 0.0
H419 H 0.85871 0.06469 0.44145 0.0
H420 H 0.806 0.13236 0.40257 0.0
H421 H 0.81503 0.15815 0.35676 0.0
H422 H 0.81581 0.15393 0.47377 0.0
H423 H 0.85722 0.16404 0.47438 0.0
H424 H 0.85675 0.16782 0.35772 0.0
H425 H 0.87595 0.14871 0.40613 0.0
H426 H 0.85729 0.07015 0.28044 0.0
H427 H 0.86018 0.08419 0.12917 0.0
H428 H 0.84415 0.14974 0.22167 0.0
C429 C 0.84996 0.12132 0.55846 0.0
C430 C 0.85817 0.10316 0.6056 0.0
C431 C 0.86024 0.08249 0.56372 0.0
C432 C 0.85567 0.08019 0.47427 0.0
C433 C 0.84899 0.09872 0.42774 0.0
C434 C 0.84575 0.11885 0.46856 0.0
C435 C 0.84182 0.13685 0.40173 0.0
C436 C 0.81826 0.14585 0.40914 0.0
C437 C 0.85896 0.15543 0.41055 0.0
C438 C 0.84486 0.124 0.31753 0.0
C439 C 0.84848 0.10195 0.33373 0.0
C440 C 0.85392 0.0873 0.26669 0.0
C441 C 0.85579 0.09543 0.18091 0.0
C442 C 0.85249 0.11802 0.16312 0.0
C443 C 0.84656 0.1323 0.23254 0.0
H444 H 0.16839 0.40049 0.18338 0.0
H445 H 0.10257 0.41706 0.09544 0.0
H446 H 0.09106 0.42164 0.24932 0.0
H447 H 0.155 0.36664 0.33733 0.0
H448 H 0.1751 0.37358 0.42 0.0
H449 H 0.18084 0.37903 0.30669 0.0
H450 H 0.18753 0.42024 0.33957 0.0
H451 H 0.18269 0.41487 0.45423 0.0
H452 H 0.16702 0.43578 0.39813 0.0
H453 H 0.08416 0.41327 0.4041 0.0
H454 H 0.08308 0.3992 0.55402 0.0
H455 H 0.15367 0.38796 0.54859 0.0
C456 C 0.15188 0.40633 0.19655 0.0
C457 C 0.13631 0.40841 0.12769 0.0
C458 C 0.11479 0.41568 0.14696 0.0
C459 C 0.10811 0.41814 0.23442 0.0
C460 C 0.12332 0.4138 0.30116 0.0
C461 C 0.14502 0.4088 0.28346 0.0
C462 C 0.15726 0.40195 0.3663 0.0
C463 C 0.16764 0.37894 0.35693 0.0
C464 C 0.17466 0.41924 0.39104 0.0
C465 C 0.13859 0.40185 0.43186 0.0
C466 C 0.11931 0.40918 0.39286 0.0
C467 C 0.09927 0.40821 0.43601 0.0
C468 C 0.09885 0.39981 0.52111 0.0
C469 C 0.11835 0.39236 0.5634 0.0
C470 C 0.13858 0.39373 0.51843 0.0
H471 H 0.88869 0.90136 0.85161 0.0
H472 H 0.81858 0.88926 0.86454 0.0
H473 H 0.81533 0.89559 0.70529 0.0
H474 H 0.88753 0.94214 0.65911 0.0
H475 H 0.91239 0.93023 0.61564 0.0
H476 H 0.90806 0.93111 0.73249 0.0
H477 H 0.91431 0.88897 0.73949 0.0
H478 H 0.91799 0.88779 0.62285 0.0
H479 H 0.8972 0.87106 0.67417 0.0
H480 H 0.82104 0.89446 0.54251 0.0
H481 H 0.83503 0.89016 0.39123 0.0
H482 H 0.90133 0.90216 0.48519 0.0
C483 C 0.87252 0.90141 0.82151 0.0
C484 C 0.85383 0.89523 0.86996 0.0
C485 C 0.83301 0.89434 0.8282 0.0
C486 C 0.83103 0.89782 0.73778 0.0
C487 C 0.85003 0.90225 0.6902 0.0
C488 C 0.87035 0.90452 0.73088 0.0
C489 C 0.88863 0.90608 0.66407 0.0
C490 C 0.8998 0.92875 0.66806 0.0
C491 C 0.9055 0.88736 0.67589 0.0
C492 C 0.87557 0.90331 0.58021 0.0
C493 C 0.85332 0.90138 0.59615 0.0
C494 C 0.83839 0.89654 0.529 0.0
C495 C 0.84645 0.89386 0.44329 0.0
C496 C 0.86917 0.89591 0.42579 0.0
C497 C 0.88375 0.90084 0.4956 0.0
H498 H 0.33875 0.6453 0.72423 0.0
H499 H 0.36107 0.5818 0.63044 0.0
H500 H 0.36046 0.5676 0.78199 0.0
H501 H 0.37205 0.64743 0.90279 0.0
H502 H 0.35281 0.66103 0.97441 0.0
H503 H 0.35065 0.66466 0.85789 0.0
H504 H 0.3102 0.65117 0.86255 0.0
H505 H 0.3123 0.64735 0.97956 0.0
H506 H 0.30392 0.62479 0.9104 0.0
H507 H 0.36244 0.56212 0.94381 0.0
H508 H 0.36994 0.56633 0.1016 0.0
H509 H 0.34681 0.63376 0.09173 0.0
C510 C 0.3429 0.62817 0.73476 0.0
C511 C 0.34989 0.61456 0.6646 0.0
C512 C 0.35569 0.59249 0.68237 0.0
C513 C 0.35517 0.58427 0.76846 0.0
C514 C 0.34868 0.59834 0.8361 0.0
C515 C 0.34262 0.61985 0.82011 0.0
C516 C 0.33916 0.6325 0.90477 0.0
C517 C 0.35459 0.65257 0.91025 0.0
C518 C 0.31495 0.63935 0.91489 0.0
C519 C 0.34532 0.61506 0.97127 0.0
C520 C 0.35016 0.5953 0.93022 0.0
C521 C 0.3583 0.57735 0.97667 0.0
C522 C 0.36251 0.57992 0.06634 0.0
C523 C 0.35879 0.60034 0.10878 0.0
C524 C 0.34924 0.61783 0.06137 0.0
H525 H 0.65237 0.12406 0.90494 0.0
H526 H 0.62876 0.05698 0.88665 0.0
H527 H 0.63333 0.05243 0.04605 0.0
H528 H 0.69204 0.11367 0.09942 0.0
H529 H 0.68552 0.14033 0.14423 0.0
H530 H 0.68576 0.13629 0.0271 0.0
H531 H 0.64591 0.15127 0.01888 0.0
H532 H 0.64524 0.15477 0.13569 0.0
H533 H 0.62462 0.13813 0.0823 0.0
H534 H 0.63143 0.05824 0.21007 0.0
H535 H 0.62911 0.07254 0.36227 0.0
H536 H 0.6551 0.13508 0.2726 0.0
C537 C 0.64948 0.10805 0.93386 0.0
C538 C 0.64037 0.09086 0.88346 0.0
C539 C 0.63595 0.07033 0.92413 0.0
C540 C 0.63838 0.0676 0.01486 0.0
C541 C 0.6457 0.08542 0.06419 0.0
C542 C 0.65189 0.10504 0.02479 0.0
C543 C 0.65702 0.12235 0.0932 0.0
C544 C 0.68154 0.12852 0.09086 0.0
C545 C 0.64231 0.14281 0.08179 0.0
C546 C 0.6514 0.10986 0.17622 0.0
C547 C 0.6451 0.08851 0.15875 0.0
C548 C 0.63699 0.07475 0.22488 0.0
C549 C 0.63551 0.08301 0.31111 0.0
C550 C 0.6421 0.10481 0.33018 0.0
C551 C 0.6503 0.11816 0.26131 0.0
H552 H 0.88365 0.40505 0.16257 0.0
H553 H 0.81581 0.3837 0.14618 0.0
H554 H 0.81157 0.38901 0.30527 0.0
H555 H 0.89681 0.37675 0.33779 0.0
H556 H 0.91447 0.39642 0.39164 0.0
H557 H 0.91077 0.39765 0.27502 0.0
H558 H 0.89757 0.43808 0.28523 0.0
H559 H 0.90187 0.43728 0.40222 0.0
H560 H 0.87542 0.44514 0.35847 0.0
H561 H 0.8176 0.38663 0.46752 0.0
H562 H 0.83227 0.38241 0.61818 0.0
H563 H 0.89565 0.40633 0.52918 0.0
C564 C 0.86758 0.4029 0.19188 0.0
C565 C 0.85002 0.3942 0.14244 0.0
C566 C 0.8294 0.39061 0.1832 0.0
C567 C 0.82685 0.3935 0.27365 0.0
C568 C 0.84499 0.40032 0.32233 0.0
C569 C 0.86481 0.40565 0.28258 0.0
C570 C 0.88251 0.40979 0.35053 0.0
C571 C 0.90228 0.39422 0.33795 0.0
C572 C 0.88976 0.43402 0.34904 0.0
C573 C 0.86998 0.40447 0.4336 0.0
C574 C 0.8483 0.39933 0.41652 0.0
C575 C 0.83437 0.3914 0.48223 0.0
C576 C 0.84282 0.38891 0.5677 0.0
C577 C 0.86496 0.3943 0.58651 0.0
C578 C 0.87849 0.40238 0.5181 0.0
H579 H 0.33823 0.14847 0.24768 0.0
H580 H 0.35829 0.08339 0.33332 0.0
H581 H 0.35381 0.0699 0.18052 0.0
H582 H 0.29911 0.13193 0.072 0.0
H583 H 0.30792 0.15418 0.00231 0.0
H584 H 0.30844 0.15743 0.11984 0.0
H585 H 0.34989 0.16755 0.11386 0.0
H586 H 0.34936 0.16464 0.99679 0.0
H587 H 0.36882 0.149 0.0609 0.0
H588 H 0.35034 0.06482 0.01602 0.0
H589 H 0.35524 0.06945 0.857 0.0
H590 H 0.33989 0.13882 0.87956 0.0
C591 C 0.34118 0.13116 0.23561 0.0
C592 C 0.34826 0.11684 0.30364 0.0
C593 C 0.35256 0.09457 0.28316 0.0
C594 C 0.3499 0.0868 0.1965 0.0
C595 C 0.343 0.10155 0.13128 0.0
C596 C 0.33895 0.12335 0.15011 0.0
C597 C 0.33487 0.13676 0.0677 0.0
C598 C 0.31117 0.1456 0.06537 0.0
C599 C 0.35175 0.15558 0.05934 0.0
C600 C 0.33825 0.11935 0.99821 0.0
C601 C 0.3421 0.09898 0.0364 0.0
C602 C 0.34716 0.08063 0.98587 0.0
C603 C 0.34977 0.08343 0.89529 0.0
C604 C 0.34789 0.10452 0.85587 0.0
C605 C 0.34089 0.12246 0.9074 0.0
H606 H 0.60315 0.59548 0.98953 0.0
H607 H 0.66705 0.61761 0.08107 0.0
H608 H 0.68182 0.61297 0.93131 0.0
H609 H 0.62282 0.55599 0.82117 0.0
H610 H 0.60123 0.56334 0.74522 0.0
H611 H 0.59635 0.56451 0.86171 0.0
H612 H 0.58484 0.60538 0.85131 0.0
H613 H 0.58872 0.60429 0.73482 0.0
H614 H 0.60299 0.62478 0.79889 0.0
H615 H 0.68819 0.61027 0.77003 0.0
H616 H 0.68451 0.61573 0.61081 0.0
H617 H 0.61603 0.59629 0.62302 0.0
C618 C 0.62042 0.59894 0.97904 0.0
C619 C 0.63408 0.60665 0.04801 0.0
C620 C 0.65638 0.61143 0.03015 0.0
C621 C 0.66491 0.60865 0.94521 0.0
C622 C 0.6509 0.60103 0.87895 0.0
C623 C 0.62905 0.59645 0.89497 0.0
C624 C 0.61659 0.59144 0.81104 0.0
C625 C 0.60879 0.56739 0.80968 0.0
C626 C 0.59717 0.60743 0.79828 0.0
C627 C 0.63454 0.59524 0.74412 0.0
C628 C 0.6544 0.59995 0.78501 0.0
C629 C 0.67286 0.60624 0.73748 0.0
C630 C 0.67062 0.60922 0.64692 0.0
C631 C 0.65 0.60627 0.6049 0.0
C632 C 0.63208 0.59801 0.65322 0.0
H633 H 0.15689 0.86266 0.41416 0.0
H634 H 0.14506 0.93278 0.39846 0.0
H635 H 0.15105 0.93624 0.55784 0.0
H636 H 0.12648 0.85436 0.59101 0.0
H637 H 0.1432 0.83368 0.64355 0.0
H638 H 0.14452 0.83719 0.52682 0.0
H639 H 0.18662 0.84356 0.53473 0.0
H640 H 0.18563 0.83937 0.65168 0.0
H641 H 0.19753 0.8642 0.6078 0.0
H642 H 0.14905 0.93065 0.72099 0.0
H643 H 0.14444 0.91681 0.87264 0.0
H644 H 0.15758 0.85055 0.78107 0.0
C645 C 0.15698 0.87888 0.44367 0.0
C646 C 0.15091 0.8975 0.39433 0.0
C647 C 0.15006 0.91839 0.43541 0.0
C648 C 0.15332 0.92049 0.52597 0.0
C649 C 0.15756 0.90155 0.57441 0.0
C650 C 0.15995 0.88119 0.53441 0.0
C651 C 0.16148 0.86302 0.6019 0.0
C652 C 0.14281 0.84609 0.59007 0.0
C653 C 0.18417 0.85188 0.59886 0.0
C654 C 0.15859 0.87619 0.68531 0.0
C655 C 0.15651 0.89839 0.66863 0.0
C656 C 0.15134 0.91335 0.73518 0.0
C657 C 0.14855 0.90538 0.8211 0.0
C658 C 0.15093 0.88271 0.83943 0.0
C659 C 0.15611 0.8681 0.77014 0.0
H660 H 0.8746 0.598 0.83467 0.0
H661 H 0.81058 0.6293 0.84265 0.0
H662 H 0.80573 0.62262 0.6847 0.0
H663 H 0.89186 0.62179 0.65309 0.0
H664 H 0.90642 0.59897 0.6049 0.0
H665 H 0.90259 0.60005 0.72143 0.0
H666 H 0.88368 0.56187 0.71957 0.0
H667 H 0.8879 0.56036 0.60271 0.0
H668 H 0.86065 0.55711 0.64727 0.0
H669 H 0.81173 0.62165 0.52447 0.0
H670 H 0.82673 0.62251 0.37463 0.0
H671 H 0.88632 0.59086 0.46774 0.0
C672 C 0.85911 0.60229 0.8038 0.0
C673 C 0.84291 0.614 0.85046 0.0
C674 C 0.82313 0.62018 0.80774 0.0
C675 C 0.82021 0.61644 0.71804 0.0
C676 C 0.83712 0.60626 0.67206 0.0
C677 C 0.856 0.59876 0.71367 0.0
C678 C 0.87285 0.59109 0.64737 0.0
C679 C 0.8947 0.60374 0.65732 0.0
C680 C 0.87648 0.56612 0.65466 0.0
C681 C 0.86115 0.597 0.56266 0.0
C682 C 0.84041 0.60534 0.57816 0.0
C683 C 0.82764 0.61441 0.51104 0.0
C684 C 0.83631 0.61494 0.42585 0.0
C685 C 0.85751 0.60649 0.40839 0.0
C686 C 0.86984 0.59711 0.47802 0.0
H687 H 0.10357 0.09695 0.54895 0.0
H688 H 0.17058 0.10411 0.64345 0.0
H689 H 0.18431 0.09718 0.49324 0.0
H690 H 0.1152 0.05388 0.37991 0.0
H691 H 0.09535 0.06556 0.30526 0.0
H692 H 0.09108 0.0675 0.42199 0.0
H693 H 0.08784 0.10999 0.41019 0.0
H694 H 0.0916 0.10804 0.29385 0.0
H695 H 0.10962 0.12529 0.35811 0.0
H696 H 0.1902 0.09368 0.3316 0.0
H697 H 0.18785 0.10002 0.17241 0.0
H698 H 0.11688 0.0948 0.18322 0.0
C699 C 0.1212 0.09668 0.53875 0.0
C700 C 0.13605 0.1012 0.60812 0.0
C701 C 0.15892 0.10102 0.59132 0.0
C702 C 0.16683 0.09669 0.50645 0.0
C703 C 0.15164 0.0923 0.43965 0.0
C704 C 0.12928 0.09239 0.45501 0.0
C705 C 0.1162 0.0899 0.3709 0.0
C706 C 0.10372 0.0679 0.36947 0.0
C707 C 0.10041 0.10947 0.35749 0.0
C708 C 0.13464 0.08988 0.30453 0.0
C709 C 0.155 0.09042 0.34585 0.0
C710 C 0.17442 0.09281 0.29871 0.0
C711 C 0.17292 0.09626 0.20818 0.0
C712 C 0.15217 0.09762 0.16596 0.0
C713 C 0.13291 0.09309 0.21369 0.0
H714 H 0.61839 0.39987 0.34459 0.0
H715 H 0.68822 0.38646 0.36182 0.0
H716 H 0.69173 0.39148 0.20186 0.0
H717 H 0.60852 0.36969 0.16968 0.0
H718 H 0.58858 0.38722 0.1168 0.0
H719 H 0.59229 0.38868 0.23338 0.0
H720 H 0.60065 0.43043 0.22425 0.0
H721 H 0.59627 0.42935 0.10735 0.0
H722 H 0.62169 0.44017 0.15073 0.0
H723 H 0.68586 0.38928 0.03829 0.0
H724 H 0.67157 0.38471 0.88705 0.0
H725 H 0.60591 0.40002 0.97981 0.0
C726 C 0.63459 0.39933 0.31519 0.0
C727 C 0.65308 0.39325 0.36514 0.0
C728 C 0.67393 0.39156 0.32433 0.0
C729 C 0.67607 0.39431 0.23357 0.0
C730 C 0.65722 0.39897 0.18494 0.0
C731 C 0.63696 0.40205 0.22474 0.0
C732 C 0.6188 0.40421 0.15763 0.0
C733 C 0.60103 0.38639 0.17016 0.0
C734 C 0.60877 0.42743 0.16011 0.0
C735 C 0.63176 0.40053 0.07453 0.0
C736 C 0.65392 0.39781 0.09091 0.0
C737 C 0.66861 0.39202 0.02433 0.0
C738 C 0.66037 0.38924 0.93871 0.0
C739 C 0.63771 0.39211 0.92099 0.0
C740 C 0.62342 0.39796 0.99026 0.0
H741 H 0.35243 0.87371 0.08502 0.0
H742 H 0.38301 0.93804 0.09889 0.0
H743 H 0.37643 0.94352 0.94122 0.0
H744 H 0.37625 0.85771 0.89951 0.0
H745 H 0.35336 0.8432 0.8512 0.0
H746 H 0.35494 0.84636 0.96805 0.0
H747 H 0.31653 0.86482 0.97015 0.0
H748 H 0.31459 0.86133 0.85295 0.0
H749 H 0.31123 0.88825 0.90076 0.0
H750 H 0.37533 0.93831 0.7796 0.0
H751 H 0.37571 0.92413 0.62793 0.0
H752 H 0.34424 0.86413 0.71706 0.0
C753 C 0.35664 0.88936 0.0555 0.0
C754 C 0.36811 0.90548 0.10387 0.0
C755 C 0.37412 0.9255 0.06273 0.0
C756 C 0.37044 0.9288 0.97316 0.0
C757 C 0.36044 0.91203 0.92555 0.0
C758 C 0.35311 0.89289 0.96551 0.0
C759 C 0.34533 0.87642 0.89769 0.0
C760 C 0.35825 0.85466 0.90455 0.0
C761 C 0.32044 0.87248 0.90587 0.0
C762 C 0.35079 0.88872 0.81399 0.0
C763 C 0.35921 0.90934 0.83124 0.0
C764 C 0.36801 0.9225 0.76484 0.0
C765 C 0.36824 0.91432 0.67863 0.0
C766 C 0.35966 0.89324 0.65951 0.0
C767 C 0.35049 0.88058 0.72845 0.0
H768 H 0.09494 0.70458 0.95503 0.0
H769 H 0.08986 0.6918 0.23237 0.0
H770 H 0.07575 0.72936 0.25609 0.0
H771 H 0.12046 0.74785 0.96569 0.0
H772 H 0.10828 0.76381 0.87839 0.0
H773 H 0.10645 0.73456 0.87555 0.0
H774 H 0.06401 0.73678 0.86575 0.0
H775 H 0.06573 0.76642 0.86757 0.0
H776 H 0.04883 0.75223 0.94633 0.0
H777 H 0.07697 0.76969 0.25821 0.0
H778 H 0.09375 0.80639 0.23855 0.0
H779 H 0.09949 0.79446 0.96067 0.0
C780 C 0.08934 0.70942 0.01956 0.0
C781 C 0.09306 0.69547 0.0916 0.0
C782 C 0.08645 0.70214 0.17609 0.0
C783 C 0.07849 0.72354 0.18996 0.0
C784 C 0.07711 0.73789 0.11846 0.0
C785 C 0.08179 0.73084 0.03398 0.0
C786 C 0.08434 0.75008 0.9718 0.0
C787 C 0.10618 0.749 0.92015 0.0
C788 C 0.06454 0.75146 0.90919 0.0
C789 C 0.08398 0.76892 0.03655 0.0
C790 C 0.07833 0.76181 0.11989 0.0
C791 C 0.0806 0.77558 0.19289 0.0
C792 C 0.09015 0.79642 0.1814 0.0
C793 C 0.09763 0.80296 0.09793 0.0
C794 C 0.09333 0.78969 0.02446 0.0
H795 H 0.55456 0.856 0.4342 0.0
H796 H 0.55938 0.83747 0.16178 0.0
H797 H 0.52178 0.82235 0.16641 0.0
H798 H 0.50928 0.81195 0.50321 0.0
H799 H 0.49644 0.83265 0.57054 0.0
H800 H 0.52601 0.8319 0.55997 0.0
H801 H 0.52566 0.87261 0.51013 0.0
H802 H 0.49639 0.87343 0.51956 0.0
H803 H 0.50916 0.88045 0.41668 0.0
H804 H 0.48193 0.8216 0.18263 0.0
H805 H 0.44479 0.83686 0.20575 0.0
H806 H 0.46362 0.8581 0.46534 0.0
C807 C 0.5481 0.84727 0.37783 0.0
C808 C 0.55988 0.84725 0.29848 0.0
C809 C 0.55071 0.83703 0.22374 0.0
C810 C 0.52933 0.82841 0.22604 0.0
C811 C 0.51719 0.83044 0.30328 0.0
C812 C 0.52639 0.83941 0.37858 0.0
C813 C 0.50875 0.84498 0.44521 0.0
C814 C 0.51021 0.82944 0.52442 0.0
C815 C 0.51007 0.86929 0.47436 0.0
C816 C 0.48819 0.84035 0.39179 0.0
C817 C 0.49337 0.83076 0.31205 0.0
C818 C 0.47758 0.82827 0.24602 0.0
C819 C 0.45645 0.8369 0.25963 0.0
C820 C 0.45138 0.84797 0.33829 0.0
C821 C 0.46704 0.84878 0.40641 0.0
H822 H 0.40184 0.2984 0.41836 0.0
H823 H 0.4095 0.30975 0.69646 0.0
H824 H 0.42447 0.27229 0.71456 0.0
H825 H 0.37916 0.25218 0.42602 0.0
H826 H 0.39203 0.23852 0.33454 0.0
H827 H 0.39105 0.26784 0.33749 0.0
H828 H 0.43345 0.26966 0.32274 0.0
H829 H 0.43456 0.23999 0.31947 0.0
H830 H 0.45066 0.25491 0.39914 0.0
H831 H 0.42502 0.23155 0.71096 0.0
H832 H 0.41161 0.19375 0.68493 0.0
H833 H 0.40547 0.20785 0.40836 0.0
C834 C 0.40788 0.2933 0.48202 0.0
C835 C 0.4046 0.3068 0.55584 0.0
C836 C 0.4122 0.29971 0.6388 0.0
C837 C 0.42075 0.27841 0.64956 0.0
C838 C 0.42209 0.26465 0.57632 0.0
C839 C 0.4165 0.27213 0.49331 0.0
C840 C 0.41534 0.25337 0.42817 0.0
C841 C 0.39308 0.25296 0.37894 0.0
C842 C 0.43466 0.25456 0.36358 0.0
C843 C 0.41795 0.23397 0.4895 0.0
C844 C 0.42292 0.2407 0.57406 0.0
C845 C 0.42203 0.226 0.64458 0.0
C846 C 0.41447 0.20446 0.62934 0.0
C847 C 0.40772 0.19803 0.54447 0.0
C848 C 0.411 0.21243 0.47339 0.0
H849 H 0.9556 0.13427 0.98638 0.0
H850 H 0.94463 0.1683 0.7416 0.0
H851 H 0.98273 0.18279 0.74678 0.0
H852 H 0.99826 0.17575 0.08351 0.0
H853 H 0.01344 0.15315 0.13065 0.0
H854 H 0.98385 0.15175 0.12244 0.0
H855 H 0.98703 0.11496 0.03749 0.0
H856 H 0.01637 0.11623 0.04561 0.0
H857 H 0.0035 0.1139 0.93936 0.0
H858 H 0.02369 0.18388 0.75581 0.0
H859 H 0.0622 0.1713 0.76703 0.0
H860 H 0.04727 0.13819 0.00996 0.0
C861 C 0.96095 0.14586 0.93687 0.0
C862 C 0.94724 0.1507 0.86484 0.0
C863 C 0.95482 0.16497 0.79846 0.0
C864 C 0.97644 0.17323 0.80106 0.0
C865 C 0.99012 0.16723 0.87102 0.0
C866 C 0.98245 0.15416 0.93882 0.0
C867 C 0.00109 0.14683 0.99821 0.0
C868 C 0.99904 0.15752 0.08909 0.0
C869 C 0.00205 0.1215 0.0054 0.0
C870 C 0.02068 0.15601 0.94903 0.0
C871 C 0.01404 0.16836 0.87733 0.0
C872 C 0.02912 0.17517 0.81382 0.0
C873 C 0.05112 0.1682 0.82115 0.0
C874 C 0.05787 0.1547 0.89166 0.0
C875 C 0.0427 0.14955 0.95829 0.0
H876 H 0.13456 0.2985 0.04276 0.0
H877 H 0.09512 0.31048 0.81068 0.0
H878 H 0.08359 0.27134 0.80988 0.0
H879 H 0.156 0.25018 0.98289 0.0
H880 H 0.15542 0.23734 0.08939 0.0
H881 H 0.15662 0.26674 0.08101 0.0
H882 H 0.12133 0.27005 0.17542 0.0
H883 H 0.12001 0.24048 0.18407 0.0
H884 H 0.09672 0.25565 0.14258 0.0
H885 H 0.08335 0.22944 0.81713 0.0
H886 H 0.09359 0.19021 0.83486 0.0
H887 H 0.13059 0.2066 0.06868 0.0
C888 C 0.123 0.293 0.99325 0.0
C889 C 0.1158 0.30734 0.92663 0.0
C890 C 0.10071 0.29968 0.86267 0.0
C891 C 0.09406 0.2775 0.86186 0.0
C892 C 0.10216 0.26349 0.92697 0.0
C893 C 0.11594 0.27115 0.99261 0.0
C894 C 0.12417 0.25269 0.05019 0.0
C895 C 0.14954 0.25168 0.05077 0.0
C896 C 0.115 0.25485 0.1436 0.0
C897 C 0.1142 0.2332 0.00325 0.0
C898 C 0.1012 0.23962 0.93321 0.0
C899 C 0.09282 0.22424 0.87364 0.0
C900 C 0.09852 0.20194 0.88448 0.0
C901 C 0.11246 0.19537 0.95407 0.0
C902 C 0.11956 0.21113 0.01577 0.0
H903 H 0.04918 0.85053 0.30995 0.0
H904 H 0.06395 0.83906 0.03681 0.0
H905 H 0.02606 0.82552 0.01271 0.0
H906 H 0.00416 0.80373 0.32982 0.0
H907 H 0.98871 0.82123 0.40257 0.0
H908 H 0.0184 0.82163 0.40521 0.0
H909 H 0.01786 0.86381 0.38036 0.0
H910 H 0.9885 0.86351 0.37761 0.0
H911 H 0.00354 0.87477 0.28623 0.0
H912 H 0.98505 0.82591 0.00807 0.0
H913 H 0.94696 0.83969 0.02493 0.0
H914 H 0.95831 0.84929 0.30178 0.0
C915 C 0.04465 0.84399 0.24637 0.0
C916 C 0.0593 0.84567 0.17544 0.0
C917 C 0.05298 0.83751 0.09234 0.0
C918 C 0.03146 0.82978 0.07821 0.0
C919 C 0.01672 0.82985 0.14841 0.0
C920 C 0.02332 0.83615 0.2318 0.0
C921 C 0.00386 0.83861 0.29262 0.0
C922 C 0.00378 0.8202 0.36162 0.0
C923 C 0.00342 0.86153 0.33652 0.0
C924 C 0.98516 0.83561 0.2281 0.0
C925 C 0.99275 0.82957 0.14596 0.0
C926 C 0.97882 0.82973 0.07269 0.0
C927 C 0.95714 0.83747 0.08268 0.0
C928 C 0.94985 0.84511 0.16502 0.0
C929 C 0.96354 0.84286 0.23895 0.0
H930 H 0.39943 0.70724 0.55651 0.0
H931 H 0.41142 0.69277 0.28365 0.0
H932 H 0.42619 0.73033 0.26245 0.0
H933 H 0.37615 0.75311 0.53165 0.0
H934 H 0.38702 0.76796 0.62454 0.0
H935 H 0.38628 0.7386 0.62675 0.0
H936 H 0.42825 0.73724 0.65607 0.0
H937 H 0.42912 0.76692 0.65482 0.0
H938 H 0.44686 0.75136 0.58343 0.0
H939 H 0.42708 0.77146 0.2601 0.0
H940 H 0.41457 0.80995 0.27786 0.0
H941 H 0.40273 0.7981 0.55283 0.0
C942 C 0.40648 0.71168 0.49384 0.0
C943 C 0.40457 0.69728 0.42201 0.0
C944 C 0.41322 0.70352 0.33986 0.0
C945 C 0.42159 0.72488 0.3274 0.0
C946 C 0.42158 0.7395 0.39829 0.0
C947 C 0.4148 0.73286 0.48089 0.0
C948 C 0.41225 0.75226 0.54221 0.0
C949 C 0.38906 0.75301 0.58345 0.0
C950 C 0.4302 0.75192 0.61332 0.0
C951 C 0.41593 0.77103 0.47886 0.0
C952 C 0.42227 0.76348 0.397 0.0
C953 C 0.42301 0.77761 0.32463 0.0
C954 C 0.416 0.79953 0.33518 0.0
C955 C 0.40813 0.80689 0.41712 0.0
C956 C 0.40927 0.79283 0.49027 0.0
H957 H 0.54292 0.14735 0.80873 0.0
H958 H 0.55889 0.16103 0.53803 0.0
H959 H 0.52078 0.17372 0.51231 0.0
H960 H 0.49802 0.12156 0.77387 0.0
H961 H 0.48198 0.1312 0.86544 0.0
H962 H 0.51136 0.13159 0.87185 0.0
H963 H 0.5109 0.17337 0.90516 0.0
H964 H 0.48123 0.1731 0.90016 0.0
H965 H 0.49659 0.19189 0.8324 0.0
H966 H 0.47949 0.17371 0.50529 0.0
H967 H 0.44078 0.1616 0.51871 0.0
H968 H 0.45141 0.14752 0.79352 0.0
C969 C 0.53865 0.1542 0.74539 0.0
C970 C 0.55379 0.15335 0.67558 0.0
C971 C 0.54765 0.16193 0.59289 0.0
C972 C 0.52595 0.16911 0.57772 0.0
C973 C 0.51078 0.16798 0.64639 0.0
C974 C 0.51709 0.16124 0.72949 0.0
C975 C 0.49734 0.15755 0.788 0.0
C976 C 0.49718 0.13409 0.82687 0.0
C977 C 0.49646 0.17503 0.86072 0.0
C978 C 0.4789 0.16091 0.72261 0.0
C979 C 0.48682 0.16782 0.64217 0.0
C980 C 0.47305 0.16906 0.56871 0.0
C981 C 0.45103 0.16221 0.57686 0.0
C982 C 0.44313 0.15393 0.65751 0.0
C983 C 0.45701 0.15421 0.73166 0.0
H984 H 0.89343 0.20823 0.7684 0.0
H985 H 0.91868 0.19098 0.02393 0.0
H986 H 0.93406 0.22834 0.04053 0.0
H987 H 0.93932 0.25396 0.71718 0.0
H988 H 0.91848 0.26997 0.66213 0.0
H989 H 0.91812 0.24033 0.65462 0.0
H990 H 0.87801 0.24019 0.71098 0.0
H991 H 0.87829 0.26948 0.71987 0.0
H992 H 0.87181 0.25303 0.81475 0.0
H993 H 0.93266 0.2685 0.05404 0.0
H994 H 0.91775 0.30632 0.0564 0.0
H995 H 0.89602 0.29912 0.78837 0.0
C996 C 0.90363 0.21204 0.82472 0.0
C997 C 0.90533 0.19691 0.89419 0.0
C998 C 0.91779 0.20232 0.96924 0.0
C999 C 0.92651 0.22356 0.97908 0.0
C1000 C 0.92296 0.23894 0.91238 0.0
C1001 C 0.91248 0.23317 0.83483 0.0
C1002 C 0.90695 0.25335 0.78062 0.0
C1003 C 0.9216 0.25446 0.6988 0.0
C1004 C 0.88232 0.25404 0.75533 0.0
C1005 C 0.913 0.27136 0.84489 0.0
C1006 C 0.92303 0.26281 0.91922 0.0
C1007 C 0.92588 0.27556 0.99471 0.0
C1008 C 0.91738 0.29704 0.99577 0.0
C1009 C 0.90647 0.30558 0.9215 0.0
C1010 C 0.90527 0.29306 0.84413 0.0
H1011 H 0.59829 0.79695 0.54148 0.0
H1012 H 0.59309 0.81244 0.26582 0.0
H1013 H 0.5804 0.77449 0.23574 0.0
H1014 H 0.62508 0.75184 0.51636 0.0
H1015 H 0.61336 0.73608 0.60488 0.0
H1016 H 0.61301 0.76547 0.60967 0.0
H1017 H 0.57065 0.76511 0.62817 0.0
H1018 H 0.57088 0.73544 0.62401 0.0
H1019 H 0.55371 0.75081 0.54942 0.0
H1020 H 0.57861 0.73309 0.23081 0.0
H1021 H 0.59023 0.69432 0.24974 0.0
H1022 H 0.59918 0.70552 0.52737 0.0
C1023 C 0.5932 0.79262 0.47559 0.0
C1024 C 0.59605 0.8077 0.40631 0.0
C1025 C 0.59017 0.80139 0.32023 0.0
C1026 C 0.58309 0.77975 0.30269 0.0
C1027 C 0.58196 0.7647 0.37202 0.0
C1028 C 0.58661 0.77106 0.4573 0.0
C1029 C 0.5889 0.75137 0.51747 0.0
C1030 C 0.61142 0.75119 0.56466 0.0
C1031 C 0.5699 0.75064 0.58366 0.0
C1032 C 0.58694 0.73284 0.45169 0.0
C1033 C 0.58189 0.74069 0.36879 0.0
C1034 C 0.58196 0.72676 0.29579 0.0
C1035 C 0.58849 0.7047 0.30704 0.0
C1036 C 0.59544 0.69707 0.39015 0.0
C1037 C 0.59353 0.71099 0.46359 0.0
H1038 H 0.89306 0.705 0.22115 0.0
H1039 H 0.91597 0.69176 0.95891 0.0
H1040 H 0.93099 0.72941 0.9492 0.0
H1041 H 0.87024 0.75036 0.18134 0.0
H1042 H 0.87662 0.76563 0.27957 0.0
H1043 H 0.87659 0.73624 0.28235 0.0
H1044 H 0.91674 0.73598 0.33932 0.0
H1045 H 0.91684 0.76567 0.33807 0.0
H1046 H 0.93778 0.7506 0.27998 0.0
H1047 H 0.93072 0.76977 0.94661 0.0
H1048 H 0.91676 0.80792 0.95458 0.0
H1049 H 0.89465 0.7965 0.21942 0.0
C1050 C 0.90274 0.70969 0.16465 0.0
C1051 C 0.90403 0.69554 0.09181 0.0
C1052 C 0.91554 0.70227 0.01628 0.0
C1053 C 0.92403 0.72369 0.01032 0.0
C1054 C 0.92092 0.73807 0.08072 0.0
C1055 C 0.91102 0.73114 0.15775 0.0
C1056 C 0.90538 0.75054 0.21609 0.0
C1057 C 0.88077 0.75069 0.24108 0.0
C1058 C 0.92007 0.75071 0.29823 0.0
C1059 C 0.91118 0.76946 0.1558 0.0
C1060 C 0.92095 0.762 0.07939 0.0
C1061 C 0.92404 0.77593 0.00754 0.0
C1062 C 0.9161 0.79759 0.01241 0.0
C1063 C 0.90537 0.80509 0.08867 0.0
C1064 C 0.90376 0.79122 0.16222 0.0
H1065 H 0.60604 0.20345 0.44176 0.0
H1066 H 0.58888 0.18955 0.71087 0.0
H1067 H 0.57677 0.22821 0.72991 0.0
H1068 H 0.63232 0.24862 0.47887 0.0
H1069 H 0.62432 0.26371 0.38213 0.0
H1070 H 0.62386 0.2343 0.38083 0.0
H1071 H 0.58272 0.23473 0.33572 0.0
H1072 H 0.58309 0.26442 0.3363 0.0
H1073 H 0.56311 0.24975 0.40103 0.0
H1074 H 0.5766 0.26993 0.73028 0.0
H1075 H 0.58922 0.30848 0.7131 0.0
H1076 H 0.60703 0.29491 0.44426 0.0
C1077 C 0.59859 0.20833 0.5032 0.0
C1078 C 0.59807 0.1936 0.57444 0.0
C1079 C 0.58888 0.20051 0.65488 0.0
C1080 C 0.58205 0.22249 0.66616 0.0
C1081 C 0.58422 0.23715 0.59589 0.0
C1082 C 0.5919 0.23011 0.51518 0.0
C1083 C 0.59663 0.24927 0.45482 0.0
C1084 C 0.62069 0.24895 0.42247 0.0
C1085 C 0.58041 0.24956 0.37739 0.0
C1086 C 0.59237 0.2683 0.51629 0.0
C1087 C 0.58442 0.26117 0.59641 0.0
C1088 C 0.58218 0.27571 0.66701 0.0
C1089 C 0.58928 0.29763 0.65672 0.0
C1090 C 0.59893 0.30455 0.57711 0.0
C1091 C 0.59934 0.29002 0.50519 0.0
H1092 H 0.96044 0.34634 0.73162 0.0
H1093 H 0.94261 0.34554 0.00542 0.0
H1094 H 0.97987 0.33231 0.04389 0.0
H1095 H 0.0042 0.29784 0.74862 0.0
H1096 H 0.02086 0.31181 0.66844 0.0
H1097 H 0.99124 0.31284 0.6606 0.0
H1098 H 0.99287 0.35542 0.65857 0.0
H1099 H 0.02216 0.35453 0.66656 0.0
H1100 H 0.00659 0.36967 0.74697 0.0
H1101 H 0.02054 0.33335 0.05518 0.0
H1102 H 0.05881 0.3462 0.03635 0.0
H1103 H 0.05123 0.34282 0.75546 0.0
C1104 C 0.96412 0.34199 0.79892 0.0
C1105 C 0.94882 0.34665 0.86554 0.0
C1106 C 0.95406 0.34158 0.95345 0.0
C1107 C 0.97523 0.33409 0.97571 0.0
C1108 C 0.99068 0.33118 0.90888 0.0
C1109 C 0.98507 0.33424 0.82159 0.0
C1110 C 0.00523 0.33374 0.76341 0.0
C1111 C 0.00539 0.31281 0.70695 0.0
C1112 C 0.00679 0.35458 0.70574 0.0
C1113 C 0.02324 0.3329 0.83214 0.0
C1114 C 0.0146 0.33061 0.91568 0.0
C1115 C 0.02762 0.33403 0.99022 0.0
C1116 C 0.04944 0.34119 0.97921 0.0
C1117 C 0.05799 0.34466 0.89443 0.0
C1118 C 0.0452 0.33915 0.82061 0.0
H1119 H 0.45141 0.64882 0.20359 0.0
H1120 H 0.4424 0.66112 0.47984 0.0
H1121 H 0.4801 0.67624 0.48938 0.0
H1122 H 0.49672 0.62585 0.20986 0.0
H1123 H 0.51005 0.63709 0.11427 0.0
H1124 H 0.48077 0.63697 0.1202 0.0
H1125 H 0.47989 0.67911 0.09621 0.0
H1126 H 0.50953 0.67935 0.0896 0.0
H1127 H 0.49566 0.69693 0.16692 0.0
H1128 H 0.52069 0.67651 0.48066 0.0
H1129 H 0.55808 0.66186 0.45476 0.0
H1130 H 0.54148 0.64986 0.18361 0.0
C1131 C 0.45712 0.65597 0.26458 0.0
C1132 C 0.44434 0.654 0.34074 0.0
C1133 C 0.45203 0.66288 0.42058 0.0
C1134 C 0.47341 0.67155 0.42629 0.0
C1135 C 0.48652 0.67162 0.35106 0.0
C1136 C 0.47833 0.66467 0.27068 0.0
C1137 C 0.4965 0.66203 0.20392 0.0
C1138 C 0.49597 0.63913 0.15979 0.0
C1139 C 0.49532 0.68046 0.13512 0.0
C1140 C 0.51636 0.66499 0.26254 0.0
C1141 C 0.51042 0.67185 0.3459 0.0
C1142 C 0.52562 0.67198 0.41498 0.0
C1143 C 0.54685 0.66364 0.39994 0.0
C1144 C 0.55234 0.65497 0.31705 0.0
C1145 C 0.53748 0.6569 0.24682 0.0
H1146 H 0.45387 0.35211 0.78937 0.0
H1147 H 0.43937 0.34257 0.51463 0.0
H1148 H 0.47776 0.33039 0.48967 0.0
H1149 H 0.49892 0.37861 0.7642 0.0
H1150 H 0.51429 0.36787 0.856 0.0
H1151 H 0.48489 0.36739 0.85821 0.0
H1152 H 0.48532 0.32524 0.88363 0.0
H1153 H 0.51501 0.3256 0.88223 0.0
H1154 H 0.50011 0.30764 0.8091 0.0
H1155 H 0.51926 0.33034 0.48763 0.0
H1156 H 0.55777 0.34285 0.50854 0.0
H1157 H 0.5452 0.353 0.78411 0.0
C1158 C 0.45855 0.34618 0.7251 0.0
C1159 C 0.44375 0.34786 0.65427 0.0
C1160 C 0.45038 0.34079 0.57014 0.0
C1161 C 0.47221 0.33393 0.55553 0.0
C1162 C 0.48701 0.33399 0.62604 0.0
C1163 C 0.48021 0.33951 0.70987 0.0
C1164 C 0.49956 0.34247 0.77134 0.0
C1165 C 0.4994 0.36544 0.81477 0.0
C1166 C 0.50003 0.32414 0.84066 0.0
C1167 C 0.5184 0.33996 0.70761 0.0
C1168 C 0.51102 0.33418 0.62473 0.0
C1169 C 0.52527 0.3341 0.55278 0.0
C1170 C 0.54715 0.34113 0.56508 0.0
C1171 C 0.55431 0.34846 0.64826 0.0
C1172 C 0.54011 0.34681 0.72062 0.0
H1173 H 0.04404 0.62436 0.01777 0.0
H1174 H 0.05905 0.66481 0.24303 0.0
H1175 H 0.02082 0.67898 0.24304 0.0
H1176 H 0.99962 0.66299 0.91697 0.0
H1177 H 0.98392 0.63927 0.88328 0.0
H1178 H 0.01359 0.63818 0.88388 0.0
H1179 H 0.01222 0.60366 0.9836 0.0
H1180 H 0.98282 0.60464 0.98323 0.0
H1181 H 0.99753 0.60503 0.08606 0.0
H1182 H 0.97965 0.68032 0.24338 0.0
H1183 H 0.94071 0.66815 0.24523 0.0
H1184 H 0.95257 0.62743 0.01811 0.0
C1185 C 0.0394 0.63699 0.06431 0.0
C1186 C 0.05428 0.64389 0.12934 0.0
C1187 C 0.04787 0.65991 0.19121 0.0
C1188 C 0.0262 0.66799 0.19156 0.0
C1189 C 0.01143 0.66009 0.12856 0.0
C1190 C 0.01797 0.64521 0.06487 0.0
C1191 C 0.99857 0.63633 0.0139 0.0
C1192 C 0.99895 0.6447 0.91887 0.0
C1193 C 0.99774 0.61094 0.01708 0.0
C1194 C 0.97992 0.64668 0.06452 0.0
C1195 C 0.98754 0.66103 0.12834 0.0
C1196 C 0.97344 0.6698 0.19173 0.0
C1197 C 0.95136 0.66288 0.19239 0.0
C1198 C 0.94391 0.64725 0.13069 0.0
C1199 C 0.95799 0.63995 0.06392 0.0
H1200 H 0.14261 0.53966 0.10858 0.0
H1201 H 0.11025 0.5732 0.89382 0.0
H1202 H 0.10859 0.53835 0.81134 0.0
H1203 H 0.1727 0.49634 0.97296 0.0
H1204 H 0.1675 0.47547 0.05431 0.0
H1205 H 0.17132 0.50373 0.08728 0.0
H1206 H 0.13383 0.50255 0.16749 0.0
H1207 H 0.12964 0.47454 0.13324 0.0
H1208 H 0.10937 0.4952 0.10702 0.0
H1209 H 0.10476 0.50055 0.76348 0.0
H1210 H 0.09928 0.46098 0.74863 0.0
H1211 H 0.1326 0.45001 0.99757 0.0
C1212 C 0.13623 0.53978 0.04218 0.0
C1213 C 0.12763 0.55931 0.00498 0.0
C1214 C 0.11835 0.55884 0.92025 0.0
C1215 C 0.11705 0.53903 0.87372 0.0
C1216 C 0.12514 0.51997 0.91307 0.0
C1217 C 0.13473 0.52011 0.99514 0.0
C1218 C 0.13931 0.49686 0.02716 0.0
C1219 C 0.16419 0.49286 0.03592 0.0
C1220 C 0.12731 0.49202 0.11383 0.0
C1221 C 0.12969 0.48364 0.95213 0.0
C1222 C 0.12201 0.49744 0.88669 0.0
C1223 C 0.11105 0.48954 0.8134 0.0
C1224 C 0.10786 0.46694 0.80625 0.0
C1225 C 0.11547 0.45227 0.87227 0.0
C1226 C 0.12675 0.46075 0.94592 0.0
H1227 H 0.7108 0.83371 0.34481 0.0
H1228 H 0.69402 0.90192 0.29422 0.0
H1229 H 0.73351 0.9103 0.26986 0.0
H1230 H 0.75987 0.84324 0.46252 0.0
H1231 H 0.77441 0.82009 0.4167 0.0
H1232 H 0.74488 0.81928 0.42633 0.0
H1233 H 0.74085 0.81158 0.25967 0.0
H1234 H 0.77036 0.81152 0.25038 0.0
H1235 H 0.75415 0.82962 0.18239 0.0
H1236 H 0.77551 0.9112 0.25986 0.0
H1237 H 0.81493 0.90309 0.23415 0.0
H1238 H 0.8032 0.83431 0.29152 0.0
C1239 C 0.71536 0.85036 0.327 0.0
C1240 C 0.69941 0.86719 0.32137 0.0
C1241 C 0.70599 0.88874 0.29787 0.0
C1242 C 0.72839 0.89369 0.28527 0.0
C1243 C 0.74382 0.87685 0.29589 0.0
C1244 C 0.73746 0.85551 0.31399 0.0
C1245 C 0.75697 0.84016 0.31963 0.0
C1246 C 0.75915 0.83011 0.41178 0.0
C1247 C 0.7555 0.82217 0.24878 0.0
C1248 C 0.77545 0.85613 0.30154 0.0
C1249 C 0.76765 0.87731 0.28952 0.0
C1250 C 0.78177 0.8947 0.26947 0.0
C1251 C 0.80417 0.89003 0.25638 0.0
C1252 C 0.81207 0.86816 0.26279 0.0
C1253 C 0.79764 0.85123 0.28857 0.0
H1254 H 0.40804 0.45924 0.60914 0.0
H1255 H 0.34762 0.43866 0.48068 0.0
H1256 H 0.3388 0.47799 0.45049 0.0
H1257 H 0.38454 0.50626 0.71623 0.0
H1258 H 0.40944 0.52219 0.70701 0.0
H1259 H 0.41089 0.49264 0.71555 0.0
H1260 H 0.43314 0.49053 0.57058 0.0
H1261 H 0.43234 0.52003 0.5634 0.0
H1262 H 0.42233 0.50357 0.47338 0.0
H1263 H 0.33693 0.52064 0.43944 0.0
H1264 H 0.34517 0.56046 0.42564 0.0
H1265 H 0.40638 0.55108 0.56606 0.0
C1266 C 0.39296 0.46278 0.57379 0.0
C1267 C 0.3785 0.4458 0.5472 0.0
C1268 C 0.35905 0.45137 0.50095 0.0
C1269 C 0.35379 0.47366 0.48486 0.0
C1270 C 0.36803 0.48999 0.5165 0.0
C1271 C 0.38734 0.48461 0.55917 0.0
C1272 C 0.4002 0.50471 0.5868 0.0
C1273 C 0.40133 0.50654 0.68735 0.0
C1274 C 0.42336 0.50471 0.54603 0.0
C1275 C 0.38581 0.52252 0.54893 0.0
C1276 C 0.36695 0.5139 0.5109 0.0
C1277 C 0.35155 0.52745 0.46971 0.0
C1278 C 0.35619 0.55009 0.4633 0.0
C1279 C 0.3762 0.55872 0.49647 0.0
C1280 C 0.39076 0.54489 0.5422 0.0
H1281 H 0.79201 0.16764 0.77857 0.0
H1282 H 0.81159 0.09928 0.75794 0.0
H1283 H 0.77242 0.08867 0.73643 0.0
H1284 H 0.7456 0.15889 0.90542 0.0
H1285 H 0.72924 0.18015 0.85487 0.0
H1286 H 0.75876 0.18256 0.85732 0.0
H1287 H 0.76014 0.18632 0.68789 0.0
H1288 H 0.73057 0.18505 0.68546 0.0
H1289 H 0.7465 0.16606 0.62067 0.0
H1290 H 0.72969 0.08594 0.73046 0.0
H1291 H 0.68957 0.09221 0.71034 0.0
H1292 H 0.69965 0.16221 0.744 0.0
C1293 C 0.78818 0.15048 0.76661 0.0
C1294 C 0.8048 0.13429 0.76931 0.0
C1295 C 0.79912 0.112 0.75448 0.0
C1296 C 0.77688 0.10582 0.74384 0.0
C1297 C 0.76071 0.12217 0.74809 0.0
C1298 C 0.76628 0.14411 0.75699 0.0
C1299 C 0.74621 0.15869 0.76156 0.0
C1300 C 0.74489 0.17078 0.85005 0.0
C1301 C 0.74582 0.17498 0.68428 0.0
C1302 C 0.72827 0.14164 0.75359 0.0
C1303 C 0.73676 0.12059 0.74671 0.0
C1304 C 0.72296 0.10237 0.73594 0.0
C1305 C 0.70015 0.106 0.72628 0.0
C1306 C 0.69157 0.12766 0.72697 0.0
C1307 C 0.70575 0.14545 0.74494 0.0
H1308 H 0.90572 0.55261 0.95605 0.0
H1309 H 0.83885 0.55827 0.0493 0.0
H1310 H 0.83364 0.51811 0.02941 0.0
H1311 H 0.89553 0.50538 0.79646 0.0
H1312 H 0.92215 0.49401 0.8227 0.0
H1313 H 0.91803 0.52338 0.82476 0.0
H1314 H 0.9328 0.52388 0.98432 0.0
H1315 H 0.93579 0.49446 0.98497 0.0
H1316 H 0.91909 0.50772 0.06698 0.0
H1317 H 0.83864 0.47602 0.02461 0.0
H1318 H 0.85095 0.43731 0.0063 0.0
H1319 H 0.91521 0.46071 0.92518 0.0
C1320 C 0.88956 0.54555 0.96671 0.0
C1321 C 0.87251 0.55842 0.00195 0.0
C1322 C 0.85184 0.54867 0.01931 0.0
C1323 C 0.8489 0.52582 0.00972 0.0
C1324 C 0.86676 0.51322 0.98176 0.0
C1325 C 0.88647 0.52292 0.95771 0.0
C1326 C 0.90377 0.50592 0.93667 0.0
C1327 C 0.91025 0.50724 0.83938 0.0
C1328 C 0.92404 0.50815 0.99686 0.0
C1329 C 0.89112 0.48513 0.9562 0.0
C1330 C 0.86976 0.48947 0.98148 0.0
C1331 C 0.85527 0.47249 0.00366 0.0
C1332 C 0.8625 0.45055 0.99467 0.0
C1333 C 0.88404 0.44596 0.9644 0.0
C1334 C 0.89863 0.4636 0.94846 0.0
H1335 H 0.21108 0.10437 0.81037 0.0
H1336 H 0.18194 0.16244 0.69358 0.0
H1337 H 0.21864 0.17457 0.64464 0.0
H1338 H 0.25676 0.12764 0.89412 0.0
H1339 H 0.27648 0.10642 0.86913 0.0
H1340 H 0.24787 0.09948 0.88237 0.0
H1341 H 0.24642 0.08192 0.72778 0.0
H1342 H 0.27535 0.08773 0.71574 0.0
H1343 H 0.25601 0.09743 0.63467 0.0
H1344 H 0.25775 0.18502 0.64684 0.0
H1345 H 0.29786 0.18732 0.63983 0.0
H1346 H 0.30321 0.12012 0.73558 0.0
C1347 C 0.21234 0.11882 0.76912 0.0
C1348 C 0.19372 0.1323 0.75372 0.0
C1349 C 0.19593 0.15164 0.70336 0.0
C1350 C 0.21677 0.15885 0.67705 0.0
C1351 C 0.23502 0.14614 0.69974 0.0
C1352 C 0.23304 0.12595 0.74031 0.0
C1353 C 0.25559 0.11591 0.75814 0.0
C1354 C 0.25938 0.11214 0.8568 0.0
C1355 C 0.25852 0.09448 0.70594 0.0
C1356 C 0.27048 0.13401 0.72386 0.0
C1357 C 0.25808 0.15148 0.69314 0.0
C1358 C 0.26766 0.17108 0.66673 0.0
C1359 C 0.29056 0.17225 0.66412 0.0
C1360 C 0.3038 0.15363 0.68424 0.0
C1361 C 0.29363 0.13453 0.71855 0.0
H1362 H 0.60845 0.55534 0.54998 0.0
H1363 H 0.6357 0.54961 0.28901 0.0
H1364 H 0.64376 0.51037 0.3147 0.0
H1365 H 0.64781 0.51244 0.65417 0.0
H1366 H 0.62604 0.50344 0.72577 0.0
H1367 H 0.62747 0.5318 0.69136 0.0
H1368 H 0.58714 0.52834 0.63522 0.0
H1369 H 0.58634 0.49977 0.6652 0.0
H1370 H 0.58066 0.50781 0.55365 0.0
H1371 H 0.64342 0.47063 0.35932 0.0
H1372 H 0.63625 0.43401 0.42426 0.0
H1373 H 0.60887 0.46556 0.65436 0.0
C1374 C 0.61704 0.54598 0.50028 0.0
C1375 C 0.62185 0.55539 0.41827 0.0
C1376 C 0.63232 0.5426 0.35292 0.0
C1377 C 0.63692 0.52032 0.36677 0.0
C1378 C 0.63117 0.51111 0.44688 0.0
C1379 C 0.62188 0.5236 0.51334 0.0
C1380 C 0.61558 0.50921 0.59019 0.0
C1381 C 0.63008 0.51452 0.67016 0.0
C1382 C 0.59097 0.51142 0.61224 0.0
C1383 C 0.62103 0.48669 0.55344 0.0
C1384 C 0.6306 0.4881 0.47184 0.0
C1385 C 0.63621 0.46932 0.42391 0.0
C1386 C 0.63192 0.44853 0.46071 0.0
C1387 C 0.62167 0.44674 0.54337 0.0
C1388 C 0.6165 0.4662 0.59032 0.0
H1389 H 0.30543 0.83466 0.24022 0.0
H1390 H 0.31558 0.90479 0.26887 0.0
H1391 H 0.27548 0.911 0.25002 0.0
H1392 H 0.25847 0.83765 0.08083 0.0
H1393 H 0.24566 0.81408 0.13114 0.0
H1394 H 0.27519 0.81652 0.13046 0.0
H1395 H 0.27511 0.81195 0.29951 0.0
H1396 H 0.24554 0.81072 0.30142 0.0
H1397 H 0.2598 0.83113 0.36582 0.0
H1398 H 0.23304 0.90831 0.25058 0.0
H1399 H 0.19371 0.8978 0.23677 0.0
H1400 H 0.21279 0.82927 0.21522 0.0
C1401 C 0.29933 0.85141 0.23798 0.0
C1402 C 0.31351 0.86927 0.25478 0.0
C1403 C 0.30498 0.89095 0.25389 0.0
C1404 C 0.28219 0.89455 0.24491 0.0
C1405 C 0.26838 0.87629 0.23598 0.0
C1406 C 0.2768 0.85521 0.22964 0.0
C1407 C 0.25877 0.83816 0.22472 0.0
C1408 C 0.25956 0.82589 0.13654 0.0
C1409 C 0.25989 0.82205 0.3025 0.0
C1410 C 0.23879 0.85281 0.23098 0.0
C1411 C 0.24449 0.87476 0.23779 0.0
C1412 C 0.22846 0.89117 0.24442 0.0
C1413 C 0.20615 0.88503 0.23822 0.0
C1414 C 0.20023 0.86271 0.22529 0.0
C1415 C 0.2168 0.84645 0.22559 0.0
H1416 H 0.63564 0.95297 0.48008 0.0
H1417 H 0.56615 0.93867 0.45026 0.0
H1418 H 0.55756 0.97823 0.4617 0.0
H1419 H 0.62871 1.00025 0.63604 0.0
H1420 H 0.65119 0.01527 0.58763 0.0
H1421 H 0.65139 0.98563 0.5871 0.0
H1422 H 0.6563 0.98659 0.41837 0.0
H1423 H 0.65505 0.01622 0.41804 0.0
H1424 H 0.63612 1.00055 0.35168 0.0
H1425 H 0.55667 0.01878 0.45631 0.0
H1426 H 0.56227 0.05862 0.47539 0.0
H1427 H 0.6322 0.04789 0.51298 0.0
C1428 C 0.61859 0.95818 0.4801 0.0
C1429 C 0.60144 0.94285 0.46585 0.0
C1430 C 0.57939 0.95022 0.46264 0.0
C1431 C 0.57441 0.97264 0.46785 0.0
C1432 C 0.59171 0.98751 0.47608 0.0
C1433 C 0.6133 0.98068 0.48512 0.0
C1434 C 0.62865 1.00038 0.49225 0.0
C1435 C 0.64069 1.00039 0.58105 0.0
C1436 C 0.645 0.00095 0.41552 0.0
C1437 C 0.61227 0.01922 0.48565 0.0
C1438 C 0.59114 0.01128 0.47442 0.0
C1439 C 0.57311 0.02522 0.46588 0.0
C1440 C 0.57649 0.04786 0.47532 0.0
C1441 C 0.59767 0.05635 0.49436 0.0
C1442 C 0.61594 0.04191 0.49601 0.0
H1443 H 0.2076 0.40431 0.76183 0.0
H1444 H 0.18093 0.34193 0.67513 0.0
H1445 H 0.21855 0.32809 0.65042 0.0
H1446 H 0.2573 0.4032 0.60221 0.0
H1447 H 0.2743 0.41677 0.68276 0.0
H1448 H 0.2453 0.42285 0.67665 0.0
H1449 H 0.24212 0.41316 0.84132 0.0
H1450 H 0.27077 0.40572 0.847 0.0
H1451 H 0.25 0.38609 0.87833 0.0
H1452 H 0.25767 0.31798 0.6779 0.0
H1453 H 0.29787 0.31588 0.69084 0.0
H1454 H 0.30079 0.38626 0.7396 0.0
C1455 C 0.20968 0.38836 0.7312 0.0
C1456 C 0.19136 0.37425 0.71906 0.0
C1457 C 0.19467 0.35315 0.68249 0.0
C1458 C 0.21604 0.34499 0.67035 0.0
C1459 C 0.2338 0.35853 0.69173 0.0
C1460 C 0.23096 0.38021 0.71617 0.0
C1461 C 0.25302 0.39102 0.73642 0.0
C1462 C 0.25777 0.40956 0.67057 0.0
C1463 C 0.25401 0.3995 0.83141 0.0
C1464 C 0.26853 0.37171 0.72355 0.0
C1465 C 0.2569 0.35305 0.70002 0.0
C1466 C 0.26706 0.33267 0.69253 0.0
C1467 C 0.28994 0.33163 0.70152 0.0
C1468 C 0.30268 0.35096 0.71466 0.0
C1469 C 0.29166 0.37115 0.72974 0.0
H1470 H 0.91889 0.96081 0.08121 0.0
H1471 H 0.8545 0.93796 0.99792 0.0
H1472 H 0.84296 0.97678 0.97442 0.0
H1473 H 0.89935 0.0059 0.20528 0.0
H1474 H 0.92232 0.0234 0.17866 0.0
H1475 H 0.92586 0.99398 0.18188 0.0
H1476 H 0.94027 0.99381 0.02165 0.0
H1477 H 0.93773 0.02328 0.01971 0.0
H1478 H 0.92419 0.00693 0.93698 0.0
H1479 H 0.83865 0.01921 0.96705 0.0
H1480 H 0.84431 0.05943 0.95016 0.0
H1481 H 0.91081 0.05272 0.04825 0.0
C1482 C 0.90244 0.96381 0.05631 0.0
C1483 C 0.8876 0.94632 0.04126 0.0
C1484 C 0.86625 0.95108 0.00888 0.0
C1485 C 0.85946 0.97309 0.99687 0.0
C1486 C 0.87419 0.98997 0.01834 0.0
C1487 C 0.89535 0.98541 0.04601 0.0
C1488 C 0.90822 0.00607 0.06586 0.0
C1489 C 0.91429 0.0074 0.16372 0.0
C1490 C 0.9288 0.00762 0.00753 0.0
C1491 C 0.89131 0.02323 0.04228 0.0
C1492 C 0.87158 0.01379 0.01661 0.0
C1493 C 0.85396 0.02669 0.98788 0.0
C1494 C 0.85715 0.04955 0.98 0.0
C1495 C 0.87783 0.05907 -2e-05 0.0
C1496 C 0.89467 0.04586 0.03518 0.0
H1497 H 0.20592 0.67447 0.23294 0.0
H1498 H 0.1911 0.60465 0.22728 0.0
H1499 H 0.23095 0.59626 0.23243 0.0
H1500 H 0.25101 0.67216 0.09046 0.0
H1501 H 0.2668 0.69293 0.14681 0.0
H1502 H 0.23719 0.69352 0.15114 0.0
H1503 H 0.23793 0.69263 0.32143 0.0
H1504 H 0.2675 0.69326 0.31733 0.0
H1505 H 0.25371 0.67162 0.37652 0.0
H1506 H 0.27292 0.59598 0.22809 0.0
H1507 H 0.31254 0.60376 0.25018 0.0
H1508 H 0.29875 0.67371 0.24893 0.0
C1509 C 0.21101 0.65739 0.23546 0.0
C1510 C 0.19547 0.64022 0.23023 0.0
C1511 C 0.20276 0.61807 0.23268 0.0
C1512 C 0.22535 0.61316 0.23388 0.0
C1513 C 0.24026 0.6306 0.2323 0.0
C1514 C 0.23332 0.65225 0.23537 0.0
C1515 C 0.2524 0.66809 0.23334 0.0
C1516 C 0.25179 0.68252 0.1505 0.0
C1517 C 0.25293 0.68222 0.31714 0.0
C1518 C 0.2713 0.65202 0.23016 0.0
C1519 C 0.26407 0.63045 0.22802 0.0
C1520 C 0.27876 0.6128 0.22953 0.0
C1521 C 0.30126 0.61736 0.24052 0.0
C1522 C 0.30853 0.63933 0.25099 0.0
C1523 C 0.29355 0.65679 0.23999 0.0
H1524 H 0.42209 0.96055 0.4854 0.0
H1525 H 0.35331 0.94177 0.47967 0.0
H1526 H 0.34267 0.98119 0.48454 0.0
H1527 H 0.41673 0.00986 0.62403 0.0
H1528 H 0.43754 0.02406 0.56189 0.0
H1529 H 0.43855 0.99457 0.57226 0.0
H1530 H 0.43948 0.99164 0.40257 0.0
H1531 H 0.43731 0.02105 0.39163 0.0
H1532 H 0.41739 0.00344 0.33898 0.0
H1533 H 0.34028 0.02378 0.47768 0.0
H1534 H 0.34644 0.06411 0.48517 0.0
H1535 H 0.41686 0.05322 0.47867 0.0
C1536 C 0.40475 0.96466 0.48847 0.0
C1537 C 0.38852 0.9481 0.4831 0.0
C1538 C 0.36602 0.95418 0.48563 0.0
C1539 C 0.35986 0.97655 0.4868 0.0
C1540 C 0.37643 0.9925 0.48505 0.0
C1541 C 0.39842 0.98669 0.48775 0.0
C1542 C 0.41325 0.00654 0.48134 0.0
C1543 C 0.42734 0.0089 0.56484 0.0
C1544 C 0.4277 0.00559 0.39871 0.0
C1545 C 0.39628 0.02458 0.47431 0.0
C1546 C 0.37508 0.01634 0.47654 0.0
C1547 C 0.35683 0.03033 0.47542 0.0
C1548 C 0.36044 0.05324 0.4779 0.0
C1549 C 0.38212 0.06178 0.48098 0.0
C1550 C 0.4001 0.04719 0.47453 0.0
H1551 H 0.79298 0.67198 0.23936 0.0
H1552 H 0.80776 0.60225 0.22899 0.0
H1553 H 0.76787 0.59386 0.23111 0.0
H1554 H 0.74242 0.66848 0.37414 0.0
H1555 H 0.72983 0.69044 0.31241 0.0
H1556 H 0.75924 0.68976 0.32644 0.0
H1557 H 0.76335 0.6917 0.15729 0.0
H1558 H 0.73396 0.69108 0.14254 0.0
H1559 H 0.75093 0.67064 0.09015 0.0
H1560 H 0.72577 0.59381 0.21927 0.0
H1561 H 0.68585 0.60192 0.22355 0.0
H1562 H 0.70019 0.67179 0.22418 0.0
C1563 C 0.78785 0.6549 0.24138 0.0
C1564 C 0.80338 0.63776 0.2349 0.0
C1565 C 0.79609 0.61562 0.23582 0.0
C1566 C 0.77347 0.61074 0.23535 0.0
C1567 C 0.75856 0.62821 0.23381 0.0
C1568 C 0.76553 0.64983 0.23898 0.0
C1569 C 0.74658 0.66576 0.23162 0.0
C1570 C 0.74438 0.6794 0.31618 0.0
C1571 C 0.74886 0.68066 0.15058 0.0
C1572 C 0.72776 0.64981 0.22083 0.0
C1573 C 0.73486 0.6282 0.22221 0.0
C1574 C 0.72006 0.61068 0.21779 0.0
C1575 C 0.69741 0.61543 0.21839 0.0
C1576 C 0.68998 0.6375 0.22283 0.0
C1577 C 0.70541 0.65478 0.21898 0.0
H1578 H 0.08409 0.04193 0.99039 0.0
H1579 H 0.15357 0.05795 0.99839 0.0
H1580 H 0.16252 0.01824 0.01131 0.0
H1581 H 0.08645 0.99403 0.1405 0.0
H1582 H 0.06558 0.9799 0.07794 0.0
H1583 H 0.0656 0.00949 0.08307 0.0
H1584 H 0.06597 0.01052 0.91302 0.0
H1585 H 0.06717 0.98096 0.90739 0.0
H1586 H 0.08808 0.99727 0.85466 0.0
H1587 H 0.16339 0.97599 0.00795 0.0
H1588 H 0.15584 0.93603 0.01956 0.0
H1589 H 0.08586 0.94904 0.00225 0.0
C1590 C 0.10117 0.03714 0.99812 0.0
C1591 C 0.11815 0.05288 0.9937 0.0
C1592 C 0.14031 0.04609 0.00309 0.0
C1593 C 0.14553 0.02357 0.00892 0.0
C1594 C 0.12835 0.00832 0.00582 0.0
C1595 C 0.10659 0.01494 0.00315 0.0
C1596 C 0.09107 0.99561 0.99792 0.0
C1597 C 0.07631 0.9947 0.07973 0.0
C1598 C 0.07727 0.99614 0.9132 0.0
C1599 C 0.10742 0.97695 0.99654 0.0
C1600 C 0.12887 0.98447 0.001 0.0
C1601 C 0.14665 0.96996 0.00421 0.0
C1602 C 0.14225 0.94727 0.00893 0.0
C1603 C 0.12028 0.93949 0.00996 0.0
C1604 C 0.10282 0.95452 -0.00056 0.0
H1605 H 0.70517 0.3305 0.75542 0.0
H1606 H 0.69108 0.40027 0.7393 0.0
H1607 H 0.73097 0.40838 0.75064 0.0
H1608 H 0.75341 0.33417 0.9041 0.0
H1609 H 0.76696 0.31196 0.8475 0.0
H1610 H 0.73738 0.31278 0.85264 0.0
H1611 H 0.73611 0.31032 0.68289 0.0
H1612 H 0.76568 0.31063 0.67698 0.0
H1613 H 0.74988 0.33102 0.6185 0.0
H1614 H 0.77342 0.40811 0.74884 0.0
H1615 H 0.81325 0.39972 0.76111 0.0
H1616 H 0.79826 0.33001 0.76511 0.0
C1617 C 0.7104 0.34753 0.758 0.0
C1618 C 0.69503 0.36476 0.74787 0.0
C1619 C 0.70253 0.38684 0.74926 0.0
C1620 C 0.7252 0.39156 0.75406 0.0
C1621 C 0.74002 0.37401 0.7573 0.0
C1622 C 0.7328 0.35246 0.76139 0.0
C1623 C 0.75177 0.33639 0.76059 0.0
C1624 C 0.75242 0.32305 0.84631 0.0
C1625 C 0.75078 0.3212 0.67994 0.0
C1626 C 0.7709 0.35217 0.75456 0.0
C1627 C 0.76395 0.37383 0.75262 0.0
C1628 C 0.77899 0.3912 0.75019 0.0
C1629 C 0.80161 0.38629 0.75546 0.0
C1630 C 0.80886 0.36419 0.76258 0.0
C1631 C 0.79325 0.34703 0.75805 0.0
loop_
_geom_bond_atom_site_label_1
_geom_bond_atom_site_label_2
_geom_bond_distance
_geom_bond_site_symmetry_2
_ccdc_geom_bond_type
Zn0 O6 1.920 . S
Zn0 O12 1.898 . S
Zn0 O15 1.905 . S
Zn1 O9 1.905 . S
Zn1 O10 1.898 . S
Zn1 O18 1.920 1_554 S
Zn2 O5 2.080 . S
Zn2 O8 2.114 . S
Zn2 O11 2.120 . S
Zn2 O13 2.120 . S
Zn2 O14 2.114 . S
Zn2 O17 2.080 1_554 S
C3 O8 1.166 . S
C3 O9 1.182 . S
C4 O10 1.167 . S
C4 O11 1.299 . S
O5 Zn2 2.080 . S
O5 C19 1.305 . S
O6 Zn0 1.920 . S
O6 C19 1.234 . S
C7 O12 1.167 . S
C7 O13 1.299 . S
O8 Zn2 2.114 . S
O8 C3 1.166 . S
O9 Zn1 1.905 . S
O9 C3 1.182 . S
O10 Zn1 1.898 . S
O10 C4 1.167 . S
O11 Zn2 2.120 . S
O11 C4 1.299 . S
O12 Zn0 1.898 . S
O12 C7 1.167 . S
O13 Zn2 2.120 . S
O13 C7 1.299 . S
O14 Zn2 2.114 . S
O14 C16 1.166 . S
O15 Zn0 1.905 . S
O15 C16 1.182 . S
C16 O14 1.166 . S
C16 O15 1.182 . S
O17 Zn2 2.080 1_556 S
O17 C20 1.305 . S
O18 Zn1 1.920 1_556 S
O18 C20 1.234 . S
C19 O5 1.305 . S
C19 O6 1.234 . S
C20 O17 1.305 . S
C20 O18 1.234 . S
Zn21 O27 1.920 . S
Zn21 O33 1.898 . S
Zn21 O36 1.905 . S
Zn22 O30 1.905 . S
Zn22 O31 1.898 . S
Zn22 O39 1.920 . S
Zn23 O26 2.080 . S
Zn23 O29 2.114 . S
Zn23 O32 2.120 . S
Zn23 O34 2.120 . S
Zn23 O35 2.114 . S
Zn23 O38 2.080 . S
C24 O29 1.166 . S
C24 O30 1.182 . S
C25 O31 1.167 . S
C25 O32 1.299 . S
O26 Zn23 2.080 . S
O26 C40 1.305 . S
O27 Zn21 1.920 . S
O27 C40 1.234 . S
C28 O33 1.167 . S
C28 O34 1.299 . S
O29 Zn23 2.114 . S
O29 C24 1.166 . S
O30 Zn22 1.905 . S
O30 C24 1.182 . S
O31 Zn22 1.898 . S
O31 C25 1.167 . S
O32 Zn23 2.120 . S
O32 C25 1.299 . S
O33 Zn21 1.898 . S
O33 C28 1.167 . S
O34 Zn23 2.120 . S
O34 C28 1.299 . S
O35 Zn23 2.114 . S
O35 C37 1.166 . S
O36 Zn21 1.905 . S
O36 C37 1.182 . S
C37 O35 1.166 . S
C37 O36 1.182 . S
O38 Zn23 2.080 . S
O38 C41 1.305 . S
O39 Zn22 1.920 . S
O39 C41 1.234 . S
C40 O26 1.305 . S
C40 O27 1.234 . S
C41 O38 1.305 . S
C41 O39 1.234 . S
Zn42 O48 1.920 . S
Zn42 O54 1.898 . S
Zn42 O57 1.905 . S
Zn43 O51 1.905 . S
Zn43 O52 1.898 . S
Zn43 O60 1.920 . S
Zn44 O47 2.080 . S
Zn44 O50 2.114 . S
Zn44 O53 2.120 . S
Zn44 O55 2.120 . S
Zn44 O56 2.114 . S
Zn44 O59 2.080 . S
C45 O50 1.166 . S
C45 O51 1.182 . S
C46 O52 1.167 . S
C46 O53 1.299 . S
O47 Zn44 2.080 . S
O47 C61 1.305 . S
O48 Zn42 1.920 . S
O48 C61 1.234 . S
C49 O54 1.167 . S
C49 O55 1.299 . S
O50 Zn44 2.114 . S
O50 C45 1.166 . S
O51 Zn43 1.905 . S
O51 C45 1.182 . S
O52 Zn43 1.898 . S
O52 C46 1.167 . S
O53 Zn44 2.120 . S
O53 C46 1.299 . S
O54 Zn42 1.898 . S
O54 C49 1.167 . S
O55 Zn44 2.120 . S
O55 C49 1.299 . S
O56 Zn44 2.114 . S
O56 C58 1.166 . S
O57 Zn42 1.905 . S
O57 C58 1.182 . S
C58 O56 1.166 . S
C58 O57 1.182 . S
O59 Zn44 2.080 . S
O59 C62 1.305 . S
O60 Zn43 1.920 . S
O60 C62 1.234 . S
C61 O47 1.305 . S
C61 O48 1.234 . S
C62 O59 1.305 . S
C62 O60 1.234 . S
Zn63 O69 1.920 1_556 S
Zn63 O75 1.898 . S
Zn63 O78 1.905 . S
Zn64 O72 1.905 . S
Zn64 O73 1.898 . S
Zn64 O81 1.920 . S
Zn65 O68 2.080 1_556 S
Zn65 O71 2.114 . S
Zn65 O74 2.120 . S
Zn65 O76 2.120 . S
Zn65 O77 2.114 . S
Zn65 O80 2.080 . S
C66 O71 1.166 . S
C66 O72 1.182 . S
C67 O73 1.167 . S
C67 O74 1.299 . S
O68 Zn65 2.080 1_554 S
O68 C82 1.305 . S
O69 Zn63 1.920 1_554 S
O69 C82 1.234 . S
C70 O75 1.167 . S
C70 O76 1.299 . S
O71 Zn65 2.114 . S
O71 C66 1.166 . S
O72 Zn64 1.905 . S
O72 C66 1.182 . S
O73 Zn64 1.898 . S
O73 C67 1.167 . S
O74 Zn65 2.120 . S
O74 C67 1.299 . S
O75 Zn63 1.898 . S
O75 C70 1.167 . S
O76 Zn65 2.120 . S
O76 C70 1.299 . S
O77 Zn65 2.114 . S
O77 C79 1.166 . S
O78 Zn63 1.905 . S
O78 C79 1.182 . S
C79 O77 1.166 . S
C79 O78 1.182 . S
O80 Zn65 2.080 . S
O80 C83 1.305 . S
O81 Zn64 1.920 . S
O81 C83 1.234 . S
C82 O68 1.305 . S
C82 O69 1.234 . S
C83 O80 1.305 . S
C83 O81 1.234 . S
Zn84 O90 1.920 . S
Zn84 O96 1.898 . S
Zn84 O99 1.905 . S
Zn85 O93 1.905 1_556 S
Zn85 O94 1.898 . S
Zn85 O102 1.920 . S
Zn86 O89 2.080 . S
Zn86 O92 2.114 1_556 S
Zn86 O95 2.120 . S
Zn86 O97 2.120 . S
Zn86 O98 2.114 . S
Zn86 O101 2.080 . S
C87 O92 1.166 . S
C87 O93 1.182 . S
C88 O94 1.167 . S
C88 O95 1.299 . S
O89 Zn86 2.080 . S
O89 C103 1.305 . S
O90 Zn84 1.920 . S
O90 C103 1.234 . S
C91 O96 1.167 . S
C91 O97 1.299 . S
O92 Zn86 2.114 1_554 S
O92 C87 1.166 . S
O93 Zn85 1.905 1_554 S
O93 C87 1.182 . S
O94 Zn85 1.898 . S
O94 C88 1.167 . S
O95 Zn86 2.120 . S
O95 C88 1.299 . S
O96 Zn84 1.898 . S
O96 C91 1.167 . S
O97 Zn86 2.120 . S
O97 C91 1.299 . S
O98 Zn86 2.114 . S
O98 C100 1.166 . S
O99 Zn84 1.905 . S
O99 C100 1.182 . S
C100 O98 1.166 . S
C100 O99 1.182 . S
O101 Zn86 2.080 . S
O101 C104 1.305 . S
O102 Zn85 1.920 . S
O102 C104 1.234 . S
C103 O89 1.305 . S
C103 O90 1.234 . S
C104 O101 1.305 . S
C104 O102 1.234 . S
Zn105 O111 1.920 . S
Zn105 O117 1.898 . S
Zn105 O120 1.905 . S
Zn106 O114 1.905 1_554 S
Zn106 O115 1.898 . S
Zn106 O123 1.920 . S
Zn107 O110 2.080 . S
Zn107 O113 2.114 1_554 S
Zn107 O116 2.120 . S
Zn107 O118 2.120 . S
Zn107 O119 2.114 . S
Zn107 O122 2.080 . S
C108 O113 1.166 . S
C108 O114 1.182 . S
C109 O115 1.167 . S
C109 O116 1.299 . S
O110 Zn107 2.080 . S
O110 C124 1.305 . S
O111 Zn105 1.920 . S
O111 C124 1.234 . S
C112 O117 1.167 . S
C112 O118 1.299 . S
O113 Zn107 2.114 1_556 S
O113 C108 1.166 . S
O114 Zn106 1.905 1_556 S
O114 C108 1.182 . S
O115 Zn106 1.898 . S
O115 C109 1.167 . S
O116 Zn107 2.120 . S
O116 C109 1.299 . S
O117 Zn105 1.898 . S
O117 C112 1.167 . S
O118 Zn107 2.120 . S
O118 C112 1.299 . S
O119 Zn107 2.114 . S
O119 C121 1.166 . S
O120 Zn105 1.905 . S
O120 C121 1.182 . S
C121 O119 1.166 . S
C121 O120 1.182 . S
O122 Zn107 2.080 . S
O122 C125 1.305 . S
O123 Zn106 1.920 . S
O123 C125 1.234 . S
C124 O110 1.305 . S
C124 O111 1.234 . S
C125 O122 1.305 . S
C125 O123 1.234 . S
Zn126 O132 1.920 . S
Zn126 O138 1.898 . S
Zn126 O141 1.905 . S
Zn127 O135 1.905 . S
Zn127 O136 1.898 . S
Zn127 O144 1.920 . S
Zn128 O131 2.080 . S
Zn128 O134 2.114 . S
Zn128 O137 2.120 . S
Zn128 O139 2.120 . S
Zn128 O140 2.114 . S
Zn128 O143 2.080 . S
C129 O134 1.166 . S
C129 O135 1.182 . S
C130 O136 1.167 . S
C130 O137 1.299 . S
O131 Zn128 2.080 . S
O131 C145 1.305 . S
O132 Zn126 1.920 . S
O132 C145 1.234 . S
C133 O138 1.167 . S
C133 O139 1.299 . S
O134 Zn128 2.114 . S
O134 C129 1.166 . S
O135 Zn127 1.905 . S
O135 C129 1.182 . S
O136 Zn127 1.898 . S
O136 C130 1.167 . S
O137 Zn128 2.120 . S
O137 C130 1.299 . S
O138 Zn126 1.898 . S
O138 C133 1.167 . S
O139 Zn128 2.120 . S
O139 C133 1.299 . S
O140 Zn128 2.114 . S
O140 C142 1.166 . S
O141 Zn126 1.905 . S
O141 C142 1.182 . S
C142 O140 1.166 . S
C142 O141 1.182 . S
O143 Zn128 2.080 . S
O143 C146 1.305 . S
O144 Zn127 1.920 . S
O144 C146 1.234 . S
C145 O131 1.305 . S
C145 O132 1.234 . S
C146 O143 1.305 . S
C146 O144 1.234 . S
Zn147 O153 1.920 . S
Zn147 O159 1.898 . S
Zn147 O162 1.905 . S
Zn148 O156 1.905 . S
Zn148 O157 1.898 . S
Zn148 O165 1.920 . S
Zn149 O152 2.080 . S
Zn149 O155 2.114 . S
Zn149 O158 2.120 . S
Zn149 O160 2.120 . S
Zn149 O161 2.114 . S
Zn149 O164 2.080 . S
C150 O155 1.166 . S
C150 O156 1.182 . S
C151 O157 1.167 . S
C151 O158 1.299 . S
O152 Zn149 2.080 . S
O152 C166 1.305 . S
O153 Zn147 1.920 . S
O153 C166 1.234 . S
C154 O159 1.167 . S
C154 O160 1.299 . S
O155 Zn149 2.114 . S
O155 C150 1.166 . S
O156 Zn148 1.905 . S
O156 C150 1.182 . S
O157 Zn148 1.898 . S
O157 C151 1.167 . S
O158 Zn149 2.120 . S
O158 C151 1.299 . S
O159 Zn147 1.898 . S
O159 C154 1.167 . S
O160 Zn149 2.120 . S
O160 C154 1.299 . S
O161 Zn149 2.114 . S
O161 C163 1.166 . S
O162 Zn147 1.905 . S
O162 C163 1.182 . S
C163 O161 1.166 . S
C163 O162 1.182 . S
O164 Zn149 2.080 . S
O164 C167 1.305 . S
O165 Zn148 1.920 . S
O165 C167 1.234 . S
C166 O152 1.305 . S
C166 O153 1.234 . S
C167 O164 1.305 . S
C167 O165 1.234 . S
Zn168 O174 1.920 . S
Zn168 O180 1.898 . S
Zn168 O183 1.905 . S
Zn169 O177 1.905 1_556 S
Zn169 O178 1.898 . S
Zn169 O186 1.920 . S
Zn170 O173 2.080 . S
Zn170 O176 2.114 1_556 S
Zn170 O179 2.120 . S
Zn170 O181 2.120 . S
Zn170 O182 2.114 . S
Zn170 O185 2.080 . S
C171 O176 1.166 . S
C171 O177 1.182 . S
C172 O178 1.167 . S
C172 O179 1.299 . S
O173 Zn170 2.080 . S
O173 C187 1.305 . S
O174 Zn168 1.920 . S
O174 C187 1.234 . S
C175 O180 1.167 . S
C175 O181 1.299 . S
O176 Zn170 2.114 1_554 S
O176 C171 1.166 . S
O177 Zn169 1.905 1_554 S
O177 C171 1.182 . S
O178 Zn169 1.898 . S
O178 C172 1.167 . S
O179 Zn170 2.120 . S
O179 C172 1.299 . S
O180 Zn168 1.898 . S
O180 C175 1.167 . S
O181 Zn170 2.120 . S
O181 C175 1.299 . S
O182 Zn170 2.114 . S
O182 C184 1.166 . S
O183 Zn168 1.905 . S
O183 C184 1.182 . S
C184 O182 1.166 . S
C184 O183 1.182 . S
O185 Zn170 2.080 . S
O185 C188 1.305 . S
O186 Zn169 1.920 . S
O186 C188 1.234 . S
C187 O173 1.305 . S
C187 O174 1.234 . S
C188 O185 1.305 . S
C188 O186 1.234 . S
Zn189 O195 1.920 . S
Zn189 O201 1.898 . S
Zn189 O204 1.905 . S
Zn190 O198 1.905 . S
Zn190 O199 1.898 . S
Zn190 O207 1.920 . S
Zn191 O194 2.080 . S
Zn191 O197 2.114 . S
Zn191 O200 2.120 . S
Zn191 O202 2.120 . S
Zn191 O203 2.114 . S
Zn191 O206 2.080 . S
C192 O197 1.166 . S
C192 O198 1.182 . S
C193 O199 1.167 . S
C193 O200 1.299 . S
O194 Zn191 2.080 . S
O194 C208 1.305 . S
O195 Zn189 1.920 . S
O195 C208 1.234 . S
C196 O201 1.167 . S
C196 O202 1.299 . S
O197 Zn191 2.114 . S
O197 C192 1.166 . S
O198 Zn190 1.905 . S
O198 C192 1.182 . S
O199 Zn190 1.898 . S
O199 C193 1.167 . S
O200 Zn191 2.120 . S
O200 C193 1.299 . S
O201 Zn189 1.898 . S
O201 C196 1.167 . S
O202 Zn191 2.120 . S
O202 C196 1.299 . S
O203 Zn191 2.114 . S
O203 C205 1.166 . S
O204 Zn189 1.905 . S
O204 C205 1.182 . S
C205 O203 1.166 . S
C205 O204 1.182 . S
O206 Zn191 2.080 . S
O206 C209 1.305 . S
O207 Zn190 1.920 . S
O207 C209 1.234 . S
C208 O194 1.305 . S
C208 O195 1.234 . S
C209 O206 1.305 . S
C209 O207 1.234 . S
Zn210 O216 1.920 . S
Zn210 O222 1.898 . S
Zn210 O225 1.905 . S
Zn211 O219 1.905 . S
Zn211 O220 1.898 . S
Zn211 O228 1.920 . S
Zn212 O215 2.080 . S
Zn212 O218 2.114 . S
Zn212 O221 2.120 . S
Zn212 O223 2.120 . S
Zn212 O224 2.114 . S
Zn212 O227 2.080 . S
C213 O218 1.166 . S
C213 O219 1.182 . S
C214 O220 1.167 . S
C214 O221 1.299 . S
O215 Zn212 2.080 . S
O215 C229 1.305 . S
O216 Zn210 1.920 . S
O216 C229 1.234 . S
C217 O222 1.167 . S
C217 O223 1.299 . S
O218 Zn212 2.114 . S
O218 C213 1.166 . S
O219 Zn211 1.905 . S
O219 C213 1.182 . S
O220 Zn211 1.898 . S
O220 C214 1.167 . S
O221 Zn212 2.120 . S
O221 C214 1.299 . S
O222 Zn210 1.898 . S
O222 C217 1.167 . S
O223 Zn212 2.120 . S
O223 C217 1.299 . S
O224 Zn212 2.114 . S
O224 C226 1.166 . S
O225 Zn210 1.905 . S
O225 C226 1.182 . S
C226 O224 1.166 . S
C226 O225 1.182 . S
O227 Zn212 2.080 . S
O227 C230 1.305 . S
O228 Zn211 1.920 . S
O228 C230 1.234 . S
C229 O215 1.305 . S
C229 O216 1.234 . S
C230 O227 1.305 . S
C230 O228 1.234 . S
Zn231 O237 1.920 . S
Zn231 O243 1.898 . S
Zn231 O246 1.905 1_554 S
Zn232 O240 1.905 . S
Zn232 O241 1.898 . S
Zn232 O249 1.920 . S
Zn233 O236 2.080 . S
Zn233 O239 2.114 . S
Zn233 O242 2.120 . S
Zn233 O244 2.120 . S
Zn233 O245 2.114 1_554 S
Zn233 O248 2.080 . S
C234 O239 1.166 . S
C234 O240 1.182 . S
C235 O241 1.167 . S
C235 O242 1.299 . S
O236 Zn233 2.080 . S
O236 C250 1.305 . S
O237 Zn231 1.920 . S
O237 C250 1.234 . S
C238 O243 1.167 . S
C238 O244 1.299 . S
O239 Zn233 2.114 . S
O239 C234 1.166 . S
O240 Zn232 1.905 . S
O240 C234 1.182 . S
O241 Zn232 1.898 . S
O241 C235 1.167 . S
O242 Zn233 2.120 . S
O242 C235 1.299 . S
O243 Zn231 1.898 . S
O243 C238 1.167 . S
O244 Zn233 2.120 . S
O244 C238 1.299 . S
O245 Zn233 2.114 1_556 S
O245 C247 1.166 . S
O246 Zn231 1.905 1_556 S
O246 C247 1.182 . S
C247 O245 1.166 . S
C247 O246 1.182 . S
O248 Zn233 2.080 . S
O248 C251 1.305 . S
O249 Zn232 1.920 . S
O249 C251 1.234 . S
C250 O236 1.305 . S
C250 O237 1.234 . S
C251 O248 1.305 . S
C251 O249 1.234 . S
Zn252 O258 1.920 . S
Zn252 O264 1.898 . S
Zn252 O267 1.905 1_554 S
Zn253 O261 1.905 . S
Zn253 O262 1.898 . S
Zn253 O270 1.920 . S
Zn254 O257 2.080 . S
Zn254 O260 2.114 . S
Zn254 O263 2.120 . S
Zn254 O265 2.120 . S
Zn254 O266 2.114 1_554 S
Zn254 O269 2.080 . S
C255 O260 1.166 . S
C255 O261 1.182 . S
C256 O262 1.167 . S
C256 O263 1.299 . S
O257 Zn254 2.080 . S
O257 C271 1.305 . S
O258 Zn252 1.920 . S
O258 C271 1.234 . S
C259 O264 1.167 . S
C259 O265 1.299 . S
O260 Zn254 2.114 . S
O260 C255 1.166 . S
O261 Zn253 1.905 . S
O261 C255 1.182 . S
O262 Zn253 1.898 . S
O262 C256 1.167 . S
O263 Zn254 2.120 . S
O263 C256 1.299 . S
O264 Zn252 1.898 . S
O264 C259 1.167 . S
O265 Zn254 2.120 . S
O265 C259 1.299 . S
O266 Zn254 2.114 1_556 S
O266 C268 1.166 . S
O267 Zn252 1.905 1_556 S
O267 C268 1.182 . S
C268 O266 1.166 . S
C268 O267 1.182 . S
O269 Zn254 2.080 . S
O269 C272 1.305 . S
O270 Zn253 1.920 . S
O270 C272 1.234 . S
C271 O257 1.305 . S
C271 O258 1.234 . S
C272 O269 1.305 . S
C272 O270 1.234 . S
Zn273 O279 1.920 . S
Zn273 O285 1.898 . S
Zn273 O288 1.905 . S
Zn274 O282 1.905 . S
Zn274 O283 1.898 . S
Zn274 O291 1.920 1_556 S
Zn275 O278 2.080 . S
Zn275 O281 2.114 . S
Zn275 O284 2.120 . S
Zn275 O286 2.120 . S
Zn275 O287 2.114 . S
Zn275 O290 2.080 1_556 S
C276 O281 1.166 . S
C276 O282 1.182 . S
C277 O283 1.167 . S
C277 O284 1.299 . S
O278 Zn275 2.080 . S
O278 C292 1.305 . S
O279 Zn273 1.920 . S
O279 C292 1.234 . S
C280 O285 1.167 . S
C280 O286 1.299 . S
O281 Zn275 2.114 . S
O281 C276 1.166 . S
O282 Zn274 1.905 . S
O282 C276 1.182 . S
O283 Zn274 1.898 . S
O283 C277 1.167 . S
O284 Zn275 2.120 . S
O284 C277 1.299 . S
O285 Zn273 1.898 . S
O285 C280 1.167 . S
O286 Zn275 2.120 . S
O286 C280 1.299 . S
O287 Zn275 2.114 . S
O287 C289 1.166 . S
O288 Zn273 1.905 . S
O288 C289 1.182 . S
C289 O287 1.166 . S
C289 O288 1.182 . S
O290 Zn275 2.080 1_554 S
O290 C293 1.305 . S
O291 Zn274 1.920 1_554 S
O291 C293 1.234 . S
C292 O278 1.305 . S
C292 O279 1.234 . S
C293 O290 1.305 . S
C293 O291 1.234 . S
Zn294 O300 1.920 . S
Zn294 O306 1.898 . S
Zn294 O309 1.905 . S
Zn295 O303 1.905 . S
Zn295 O304 1.898 . S
Zn295 O312 1.920 . S
Zn296 O299 2.080 . S
Zn296 O302 2.114 . S
Zn296 O305 2.120 . S
Zn296 O307 2.120 . S
Zn296 O308 2.114 . S
Zn296 O311 2.080 . S
C297 O302 1.166 . S
C297 O303 1.182 . S
C298 O304 1.167 . S
C298 O305 1.299 . S
O299 Zn296 2.080 . S
O299 C313 1.305 . S
O300 Zn294 1.920 . S
O300 C313 1.234 . S
C301 O306 1.167 . S
C301 O307 1.299 . S
O302 Zn296 2.114 . S
O302 C297 1.166 . S
O303 Zn295 1.905 . S
O303 C297 1.182 . S
O304 Zn295 1.898 . S
O304 C298 1.167 . S
O305 Zn296 2.120 . S
O305 C298 1.299 . S
O306 Zn294 1.898 . S
O306 C301 1.167 . S
O307 Zn296 2.120 . S
O307 C301 1.299 . S
O308 Zn296 2.114 . S
O308 C310 1.166 . S
O309 Zn294 1.905 . S
O309 C310 1.182 . S
C310 O308 1.166 . S
C310 O309 1.182 . S
O311 Zn296 2.080 . S
O311 C314 1.305 . S
O312 Zn295 1.920 . S
O312 C314 1.234 . S
C313 O299 1.305 . S
C313 O300 1.234 . S
C314 O311 1.305 . S
C314 O312 1.234 . S
Zn315 O321 1.920 . S
Zn315 O327 1.898 . S
Zn315 O330 1.905 . S
Zn316 O324 1.905 . S
Zn316 O325 1.898 . S
Zn316 O333 1.920 . S
Zn317 O320 2.080 . S
Zn317 O323 2.114 . S
Zn317 O326 2.120 . S
Zn317 O328 2.120 . S
Zn317 O329 2.114 . S
Zn317 O332 2.080 . S
C318 O323 1.166 . S
C318 O324 1.182 . S
C319 O325 1.167 . S
C319 O326 1.299 . S
O320 Zn317 2.080 . S
O320 C334 1.305 . S
O321 Zn315 1.920 . S
O321 C334 1.234 . S
C322 O327 1.167 . S
C322 O328 1.299 . S
O323 Zn317 2.114 . S
O323 C318 1.166 . S
O324 Zn316 1.905 . S
O324 C318 1.182 . S
O325 Zn316 1.898 . S
O325 C319 1.167 . S
O326 Zn317 2.120 . S
O326 C319 1.299 . S
O327 Zn315 1.898 . S
O327 C322 1.167 . S
O328 Zn317 2.120 . S
O328 C322 1.299 . S
O329 Zn317 2.114 . S
O329 C331 1.166 . S
O330 Zn315 1.905 . S
O330 C331 1.182 . S
C331 O329 1.166 . S
C331 O330 1.182 . S
O332 Zn317 2.080 . S
O332 C335 1.305 . S
O333 Zn316 1.920 . S
O333 C335 1.234 . S
C334 O320 1.305 . S
C334 O321 1.234 . S
C335 O332 1.305 . S
C335 O333 1.234 . S
H336 C348 0.930 . S
H337 C350 0.930 . S
H338 C351 0.930 . S
H339 C355 0.959 . S
H340 C355 0.959 . S
H341 C355 0.961 . S
H342 C356 0.960 . S
H343 C356 0.961 . S
H344 C356 0.959 . S
H345 C359 0.929 . S
H346 C360 0.931 . S
H347 C362 0.930 . S
C348 H336 0.930 . S
C348 C349 1.399 . S
C348 C353 1.399 . S
C349 C348 1.399 . S
C349 C350 1.376 . S
C350 H337 0.930 . S
C350 C349 1.376 . S
C350 C351 1.388 . S
C351 H338 0.930 . S
C351 C350 1.388 . S
C351 C352 1.390 . S
C352 C351 1.390 . S
C352 C353 1.394 . S
C352 C358 1.465 . S
C353 C348 1.399 . S
C353 C352 1.394 . S
C353 C354 1.516 . S
C354 C353 1.516 . S
C354 C355 1.502 . S
C354 C356 1.561 . S
C354 C357 1.526 . S
C355 H339 0.959 . S
C355 H340 0.959 . S
C355 H341 0.961 . S
C355 C354 1.502 . S
C356 H342 0.960 . S
C356 H343 0.961 . S
C356 H344 0.959 . S
C356 C354 1.561 . S
C357 C354 1.526 . S
C357 C358 1.396 . S
C357 C362 1.390 . S
C358 C352 1.465 . S
C358 C357 1.396 . S
C358 C359 1.399 . S
C359 H345 0.929 . S
C359 C358 1.399 . S
C359 C360 1.385 . S
C360 H346 0.931 . S
C360 C359 1.385 . S
C360 C361 1.389 . S
C361 C360 1.389 . S
C361 C362 1.387 . S
C362 H347 0.930 . S
C362 C357 1.390 . S
C362 C361 1.387 . S
H363 C375 0.930 . S
H364 C377 0.930 . S
H365 C378 0.930 . S
H366 C382 0.959 . S
H367 C382 0.959 . S
H368 C382 0.961 . S
H369 C383 0.960 . S
H370 C383 0.961 . S
H371 C383 0.959 . S
H372 C386 0.929 . S
H373 C387 0.931 . S
H374 C389 0.930 . S
C375 H363 0.930 . S
C375 C376 1.399 . S
C375 C380 1.399 1_554 S
C376 C375 1.399 . S
C376 C377 1.376 . S
C377 H364 0.930 . S
C377 C376 1.376 . S
C377 C378 1.388 1_554 S
C378 H365 0.930 . S
C378 C377 1.388 1_556 S
C378 C379 1.390 . S
C379 C378 1.390 . S
C379 C380 1.394 . S
C379 C385 1.465 . S
C380 C375 1.399 1_556 S
C380 C379 1.394 . S
C380 C381 1.516 . S
C381 C380 1.516 . S
C381 C382 1.502 . S
C381 C383 1.561 . S
C381 C384 1.526 . S
C382 H366 0.959 . S
C382 H367 0.959 . S
C382 H368 0.961 . S
C382 C381 1.502 . S
C383 H369 0.960 . S
C383 H370 0.961 . S
C383 H371 0.959 . S
C383 C381 1.561 . S
C384 C381 1.526 . S
C384 C385 1.396 . S
C384 C389 1.390 . S
C385 C379 1.465 . S
C385 C384 1.396 . S
C385 C386 1.399 . S
C386 H372 0.929 . S
C386 C385 1.399 . S
C386 C387 1.385 . S
C387 H373 0.931 . S
C387 C386 1.385 . S
C387 C388 1.389 . S
C388 C387 1.389 . S
C388 C389 1.387 . S
C389 H374 0.930 . S
C389 C384 1.390 . S
C389 C388 1.387 . S
H390 C402 0.930 . S
H391 C404 0.930 . S
H392 C405 0.930 . S
H393 C409 0.959 . S
H394 C409 0.959 . S
H395 C409 0.961 . S
H396 C410 0.960 . S
H397 C410 0.961 . S
H398 C410 0.959 . S
H399 C413 0.929 . S
H400 C414 0.931 . S
H401 C416 0.930 . S
C402 H390 0.930 . S
C402 C403 1.399 . S
C402 C407 1.399 . S
C403 C402 1.399 . S
C403 C404 1.376 . S
C404 H391 0.930 . S
C404 C403 1.376 . S
C404 C405 1.388 . S
C405 H392 0.930 . S
C405 C404 1.388 . S
C405 C406 1.390 . S
C406 C405 1.390 . S
C406 C407 1.394 . S
C406 C412 1.465 . S
C407 C402 1.399 . S
C407 C406 1.394 . S
C407 C408 1.516 . S
C408 C407 1.516 . S
C408 C409 1.502 . S
C408 C410 1.561 . S
C408 C411 1.526 . S
C409 H393 0.959 . S
C409 H394 0.959 . S
C409 H395 0.961 . S
C409 C408 1.502 . S
C410 H396 0.960 . S
C410 H397 0.961 . S
C410 H398 0.959 . S
C410 C408 1.561 . S
C411 C408 1.526 . S
C411 C412 1.396 . S
C411 C416 1.390 1_554 S
C412 C406 1.465 . S
C412 C411 1.396 . S
C412 C413 1.399 . S
C413 H399 0.929 . S
C413 C412 1.399 . S
C413 C414 1.385 1_554 S
C414 H400 0.931 . S
C414 C413 1.385 1_556 S
C414 C415 1.389 . S
C415 C414 1.389 . S
C415 C416 1.387 . S
C416 H401 0.930 . S
C416 C411 1.390 1_556 S
C416 C415 1.387 . S
H417 C429 0.930 . S
H418 C431 0.930 . S
H419 C432 0.930 . S
H420 C436 0.959 . S
H421 C436 0.959 . S
H422 C436 0.961 . S
H423 C437 0.960 . S
H424 C437 0.961 . S
H425 C437 0.959 . S
H426 C440 0.929 . S
H427 C441 0.931 . S
H428 C443 0.930 . S
C429 H417 0.930 . S
C429 C430 1.399 . S
C429 C434 1.399 . S
C430 C429 1.399 . S
C430 C431 1.376 . S
C431 H418 0.930 . S
C431 C430 1.376 . S
C431 C432 1.388 . S
C432 H419 0.930 . S
C432 C431 1.388 . S
C432 C433 1.390 . S
C433 C432 1.390 . S
C433 C434 1.394 . S
C433 C439 1.465 . S
C434 C429 1.399 . S
C434 C433 1.394 . S
C434 C435 1.516 . S
C435 C434 1.516 . S
C435 C436 1.502 . S
C435 C437 1.561 . S
C435 C438 1.526 . S
C436 H420 0.959 . S
C436 H421 0.959 . S
C436 H422 0.961 . S
C436 C435 1.502 . S
C437 H423 0.960 . S
C437 H424 0.961 . S
C437 H425 0.959 . S
C437 C435 1.561 . S
C438 C435 1.526 . S
C438 C439 1.396 . S
C438 C443 1.390 . S
C439 C433 1.465 . S
C439 C438 1.396 . S
C439 C440 1.399 . S
C440 H426 0.929 . S
C440 C439 1.399 . S
C440 C441 1.385 . S
C441 H427 0.931 . S
C441 C440 1.385 . S
C441 C442 1.389 . S
C442 C441 1.389 . S
C442 C443 1.387 . S
C443 H428 0.930 . S
C443 C438 1.390 . S
C443 C442 1.387 . S
H444 C456 0.930 . S
H445 C458 0.930 . S
H446 C459 0.930 . S
H447 C463 0.959 . S
H448 C463 0.959 . S
H449 C463 0.961 . S
H450 C464 0.960 . S
H451 C464 0.961 . S
H452 C464 0.959 . S
H453 C467 0.929 . S
H454 C468 0.931 . S
H455 C470 0.930 . S
C456 H444 0.930 . S
C456 C457 1.399 . S
C456 C461 1.399 . S
C457 C456 1.399 . S
C457 C458 1.376 . S
C458 H445 0.930 . S
C458 C457 1.376 . S
C458 C459 1.388 . S
C459 H446 0.930 . S
C459 C458 1.388 . S
C459 C460 1.390 . S
C460 C459 1.390 . S
C460 C461 1.394 . S
C460 C466 1.465 . S
C461 C456 1.399 . S
C461 C460 1.394 . S
C461 C462 1.516 . S
C462 C461 1.516 . S
C462 C463 1.502 . S
C462 C464 1.561 . S
C462 C465 1.526 . S
C463 H447 0.959 . S
C463 H448 0.959 . S
C463 H449 0.961 . S
C463 C462 1.502 . S
C464 H450 0.960 . S
C464 H451 0.961 . S
C464 H452 0.959 . S
C464 C462 1.561 . S
C465 C462 1.526 . S
C465 C466 1.396 . S
C465 C470 1.390 . S
C466 C460 1.465 . S
C466 C465 1.396 . S
C466 C467 1.399 . S
C467 H453 0.929 . S
C467 C466 1.399 . S
C467 C468 1.385 . S
C468 H454 0.931 . S
C468 C467 1.385 . S
C468 C469 1.389 . S
C469 C468 1.389 . S
C469 C470 1.387 . S
C470 H455 0.930 . S
C470 C465 1.390 . S
C470 C469 1.387 . S
H471 C483 0.930 . S
H472 C485 0.930 . S
H473 C486 0.930 . S
H474 C490 0.959 . S
H475 C490 0.959 . S
H476 C490 0.961 . S
H477 C491 0.960 . S
H478 C491 0.961 . S
H479 C491 0.959 . S
H480 C494 0.929 . S
H481 C495 0.931 . S
H482 C497 0.930 . S
C483 H471 0.930 . S
C483 C484 1.399 . S
C483 C488 1.399 . S
C484 C483 1.399 . S
C484 C485 1.376 . S
C485 H472 0.930 . S
C485 C484 1.376 . S
C485 C486 1.388 . S
C486 H473 0.930 . S
C486 C485 1.388 . S
C486 C487 1.390 . S
C487 C486 1.390 . S
C487 C488 1.394 . S
C487 C493 1.465 . S
C488 C483 1.399 . S
C488 C487 1.394 . S
C488 C489 1.516 . S
C489 C488 1.516 . S
C489 C490 1.502 . S
C489 C491 1.561 . S
C489 C492 1.526 . S
C490 H474 0.959 . S
C490 H475 0.959 . S
C490 H476 0.961 . S
C490 C489 1.502 . S
C491 H477 0.960 . S
C491 H478 0.961 . S
C491 H479 0.959 . S
C491 C489 1.561 . S
C492 C489 1.526 . S
C492 C493 1.396 . S
C492 C497 1.390 . S
C493 C487 1.465 . S
C493 C492 1.396 . S
C493 C494 1.399 . S
C494 H480 0.929 . S
C494 C493 1.399 . S
C494 C495 1.385 . S
C495 H481 0.931 . S
C495 C494 1.385 . S
C495 C496 1.389 . S
C496 C495 1.389 . S
C496 C497 1.387 . S
C497 H482 0.930 . S
C497 C492 1.390 . S
C497 C496 1.387 . S
H498 C510 0.930 . S
H499 C512 0.930 . S
H500 C513 0.930 . S
H501 C517 0.959 . S
H502 C517 0.959 . S
H503 C517 0.961 . S
H504 C518 0.960 . S
H505 C518 0.961 . S
H506 C518 0.959 . S
H507 C521 0.929 . S
H508 C522 0.931 . S
H509 C524 0.930 . S
C510 H498 0.930 . S
C510 C511 1.399 . S
C510 C515 1.399 . S
C511 C510 1.399 . S
C511 C512 1.376 . S
C512 H499 0.930 . S
C512 C511 1.376 . S
C512 C513 1.388 . S
C513 H500 0.930 . S
C513 C512 1.388 . S
C513 C514 1.390 . S
C514 C513 1.390 . S
C514 C515 1.394 . S
C514 C520 1.465 . S
C515 C510 1.399 . S
C515 C514 1.394 . S
C515 C516 1.516 . S
C516 C515 1.516 . S
C516 C517 1.502 . S
C516 C518 1.561 . S
C516 C519 1.526 . S
C517 H501 0.959 . S
C517 H502 0.959 . S
C517 H503 0.961 . S
C517 C516 1.502 . S
C518 H504 0.960 . S
C518 H505 0.961 . S
C518 H506 0.959 . S
C518 C516 1.561 . S
C519 C516 1.526 . S
C519 C520 1.396 . S
C519 C524 1.390 1_556 S
C520 C514 1.465 . S
C520 C519 1.396 . S
C520 C521 1.399 . S
C521 H507 0.929 . S
C521 C520 1.399 . S
C521 C522 1.385 1_556 S
C522 H508 0.931 . S
C522 C521 1.385 1_554 S
C522 C523 1.389 . S
C523 C522 1.389 . S
C523 C524 1.387 . S
C524 H509 0.930 . S
C524 C519 1.390 1_554 S
C524 C523 1.387 . S
H525 C537 0.930 . S
H526 C539 0.930 . S
H527 C540 0.930 . S
H528 C544 0.959 . S
H529 C544 0.959 . S
H530 C544 0.961 . S
H531 C545 0.960 . S
H532 C545 0.961 . S
H533 C545 0.959 . S
H534 C548 0.929 . S
H535 C549 0.931 . S
H536 C551 0.930 . S
C537 H525 0.930 . S
C537 C538 1.399 . S
C537 C542 1.399 1_556 S
C538 C537 1.399 . S
C538 C539 1.376 . S
C539 H526 0.930 . S
C539 C538 1.376 . S
C539 C540 1.388 1_556 S
C540 H527 0.930 . S
C540 C539 1.388 1_554 S
C540 C541 1.390 . S
C541 C540 1.390 . S
C541 C542 1.394 . S
C541 C547 1.465 . S
C542 C537 1.399 1_554 S
C542 C541 1.394 . S
C542 C543 1.516 . S
C543 C542 1.516 . S
C543 C544 1.502 . S
C543 C545 1.561 . S
C543 C546 1.526 . S
C544 H528 0.959 . S
C544 H529 0.959 . S
C544 H530 0.961 . S
C544 C543 1.502 . S
C545 H531 0.960 . S
C545 H532 0.961 . S
C545 H533 0.959 . S
C545 C543 1.561 . S
C546 C543 1.526 . S
C546 C547 1.396 . S
C546 C551 1.390 . S
C547 C541 1.465 . S
C547 C546 1.396 . S
C547 C548 1.399 . S
C548 H534 0.929 . S
C548 C547 1.399 . S
C548 C549 1.385 . S
C549 H535 0.931 . S
C549 C548 1.385 . S
C549 C550 1.389 . S
C550 C549 1.389 . S
C550 C551 1.387 . S
C551 H536 0.930 . S
C551 C546 1.390 . S
C551 C550 1.387 . S
H552 C564 0.930 . S
H553 C566 0.930 . S
H554 C567 0.930 . S
H555 C571 0.959 . S
H556 C571 0.959 . S
H557 C571 0.961 . S
H558 C572 0.960 . S
H559 C572 0.961 . S
H560 C572 0.959 . S
H561 C575 0.929 . S
H562 C576 0.931 . S
H563 C578 0.930 . S
C564 H552 0.930 . S
C564 C565 1.399 . S
C564 C569 1.399 . S
C565 C564 1.399 . S
C565 C566 1.376 . S
C566 H553 0.930 . S
C566 C565 1.376 . S
C566 C567 1.388 . S
C567 H554 0.930 . S
C567 C566 1.388 . S
C567 C568 1.390 . S
C568 C567 1.390 . S
C568 C569 1.394 . S
C568 C574 1.465 . S
C569 C564 1.399 . S
C569 C568 1.394 . S
C569 C570 1.516 . S
C570 C569 1.516 . S
C570 C571 1.502 . S
C570 C572 1.561 . S
C570 C573 1.526 . S
C571 H555 0.959 . S
C571 H556 0.959 . S
C571 H557 0.961 . S
C571 C570 1.502 . S
C572 H558 0.960 . S
C572 H559 0.961 . S
C572 H560 0.959 . S
C572 C570 1.561 . S
C573 C570 1.526 . S
C573 C574 1.396 . S
C573 C578 1.390 . S
C574 C568 1.465 . S
C574 C573 1.396 . S
C574 C575 1.399 . S
C575 H561 0.929 . S
C575 C574 1.399 . S
C575 C576 1.385 . S
C576 H562 0.931 . S
C576 C575 1.385 . S
C576 C577 1.389 . S
C577 C576 1.389 . S
C577 C578 1.387 . S
C578 H563 0.930 . S
C578 C573 1.390 . S
C578 C577 1.387 . S
H579 C591 0.930 . S
H580 C593 0.930 . S
H581 C594 0.930 . S
H582 C598 0.959 . S
H583 C598 0.959 . S
H584 C598 0.961 . S
H585 C599 0.960 . S
H586 C599 0.961 . S
H587 C599 0.959 . S
H588 C602 0.929 . S
H589 C603 0.931 . S
H590 C605 0.930 . S
C591 H579 0.930 . S
C591 C592 1.399 . S
C591 C596 1.399 . S
C592 C591 1.399 . S
C592 C593 1.376 . S
C593 H580 0.930 . S
C593 C592 1.376 . S
C593 C594 1.388 . S
C594 H581 0.930 . S
C594 C593 1.388 . S
C594 C595 1.390 . S
C595 C594 1.390 . S
C595 C596 1.394 . S
C595 C601 1.465 . S
C596 C591 1.399 . S
C596 C595 1.394 . S
C596 C597 1.516 . S
C597 C596 1.516 . S
C597 C598 1.502 . S
C597 C599 1.561 . S
C597 C600 1.526 . S
C598 H582 0.959 . S
C598 H583 0.959 . S
C598 H584 0.961 . S
C598 C597 1.502 . S
C599 H585 0.960 . S
C599 H586 0.961 . S
C599 H587 0.959 . S
C599 C597 1.561 . S
C600 C597 1.526 . S
C600 C601 1.396 . S
C600 C605 1.390 1_554 S
C601 C595 1.465 . S
C601 C600 1.396 . S
C601 C602 1.399 . S
C602 H588 0.929 . S
C602 C601 1.399 . S
C602 C603 1.385 1_554 S
C603 H589 0.931 . S
C603 C602 1.385 1_556 S
C603 C604 1.389 . S
C604 C603 1.389 . S
C604 C605 1.387 . S
C605 H590 0.930 . S
C605 C600 1.390 1_556 S
C605 C604 1.387 . S
H606 C618 0.930 . S
H607 C620 0.930 . S
H608 C621 0.930 . S
H609 C625 0.959 . S
H610 C625 0.959 . S
H611 C625 0.961 . S
H612 C626 0.960 . S
H613 C626 0.961 . S
H614 C626 0.959 . S
H615 C629 0.929 . S
H616 C630 0.931 . S
H617 C632 0.930 . S
C618 H606 0.930 . S
C618 C619 1.399 . S
C618 C623 1.399 1_554 S
C619 C618 1.399 . S
C619 C620 1.376 . S
C620 H607 0.930 . S
C620 C619 1.376 . S
C620 C621 1.388 1_554 S
C621 H608 0.930 . S
C621 C620 1.388 1_556 S
C621 C622 1.390 . S
C622 C621 1.390 . S
C622 C623 1.394 . S
C622 C628 1.465 . S
C623 C618 1.399 1_556 S
C623 C622 1.394 . S
C623 C624 1.516 . S
C624 C623 1.516 . S
C624 C625 1.502 . S
C624 C626 1.561 . S
C624 C627 1.526 . S
C625 H609 0.959 . S
C625 H610 0.959 . S
C625 H611 0.961 . S
C625 C624 1.502 . S
C626 H612 0.960 . S
C626 H613 0.961 . S
C626 H614 0.959 . S
C626 C624 1.561 . S
C627 C624 1.526 . S
C627 C628 1.396 . S
C627 C632 1.390 . S
C628 C622 1.465 . S
C628 C627 1.396 . S
C628 C629 1.399 . S
C629 H615 0.929 . S
C629 C628 1.399 . S
C629 C630 1.385 . S
C630 H616 0.931 . S
C630 C629 1.385 . S
C630 C631 1.389 . S
C631 C630 1.389 . S
C631 C632 1.387 . S
C632 H617 0.930 . S
C632 C627 1.390 . S
C632 C631 1.387 . S
H633 C645 0.930 . S
H634 C647 0.930 . S
H635 C648 0.930 . S
H636 C652 0.959 . S
H637 C652 0.959 . S
H638 C652 0.961 . S
H639 C653 0.960 . S
H640 C653 0.961 . S
H641 C653 0.959 . S
H642 C656 0.929 . S
H643 C657 0.931 . S
H644 C659 0.930 . S
C645 H633 0.930 . S
C645 C646 1.399 . S
C645 C650 1.399 . S
C646 C645 1.399 . S
C646 C647 1.376 . S
C647 H634 0.930 . S
C647 C646 1.376 . S
C647 C648 1.388 . S
C648 H635 0.930 . S
C648 C647 1.388 . S
C648 C649 1.390 . S
C649 C648 1.390 . S
C649 C650 1.394 . S
C649 C655 1.465 . S
C650 C645 1.399 . S
C650 C649 1.394 . S
C650 C651 1.516 . S
C651 C650 1.516 . S
C651 C652 1.502 . S
C651 C653 1.561 . S
C651 C654 1.526 . S
C652 H636 0.959 . S
C652 H637 0.959 . S
C652 H638 0.961 . S
C652 C651 1.502 . S
C653 H639 0.960 . S
C653 H640 0.961 . S
C653 H641 0.959 . S
C653 C651 1.561 . S
C654 C651 1.526 . S
C654 C655 1.396 . S
C654 C659 1.390 . S
C655 C649 1.465 . S
C655 C654 1.396 . S
C655 C656 1.399 . S
C656 H642 0.929 . S
C656 C655 1.399 . S
C656 C657 1.385 . S
C657 H643 0.931 . S
C657 C656 1.385 . S
C657 C658 1.389 . S
C658 C657 1.389 . S
C658 C659 1.387 . S
C659 H644 0.930 . S
C659 C654 1.390 . S
C659 C658 1.387 . S
H660 C672 0.930 . S
H661 C674 0.930 . S
H662 C675 0.930 . S
H663 C679 0.959 . S
H664 C679 0.959 . S
H665 C679 0.961 . S
H666 C680 0.960 . S
H667 C680 0.961 . S
H668 C680 0.959 . S
H669 C683 0.929 . S
H670 C684 0.931 . S
H671 C686 0.930 . S
C672 H660 0.930 . S
C672 C673 1.399 . S
C672 C677 1.399 . S
C673 C672 1.399 . S
C673 C674 1.376 . S
C674 H661 0.930 . S
C674 C673 1.376 . S
C674 C675 1.388 . S
C675 H662 0.930 . S
C675 C674 1.388 . S
C675 C676 1.390 . S
C676 C675 1.390 . S
C676 C677 1.394 . S
C676 C682 1.465 . S
C677 C672 1.399 . S
C677 C676 1.394 . S
C677 C678 1.516 . S
C678 C677 1.516 . S
C678 C679 1.502 . S
C678 C680 1.561 . S
C678 C681 1.526 . S
C679 H663 0.959 . S
C679 H664 0.959 . S
C679 H665 0.961 . S
C679 C678 1.502 . S
C680 H666 0.960 . S
C680 H667 0.961 . S
C680 H668 0.959 . S
C680 C678 1.561 . S
C681 C678 1.526 . S
C681 C682 1.396 . S
C681 C686 1.390 . S
C682 C676 1.465 . S
C682 C681 1.396 . S
C682 C683 1.399 . S
C683 H669 0.929 . S
C683 C682 1.399 . S
C683 C684 1.385 . S
C684 H670 0.931 . S
C684 C683 1.385 . S
C684 C685 1.389 . S
C685 C684 1.389 . S
C685 C686 1.387 . S
C686 H671 0.930 . S
C686 C681 1.390 . S
C686 C685 1.387 . S
H687 C699 0.930 . S
H688 C701 0.930 . S
H689 C702 0.930 . S
H690 C706 0.959 . S
H691 C706 0.959 . S
H692 C706 0.961 . S
H693 C707 0.960 . S
H694 C707 0.961 . S
H695 C707 0.959 . S
H696 C710 0.929 . S
H697 C711 0.931 . S
H698 C713 0.930 . S
C699 H687 0.930 . S
C699 C700 1.399 . S
C699 C704 1.399 . S
C700 C699 1.399 . S
C700 C701 1.376 . S
C701 H688 0.930 . S
C701 C700 1.376 . S
C701 C702 1.388 . S
C702 H689 0.930 . S
C702 C701 1.388 . S
C702 C703 1.390 . S
C703 C702 1.390 . S
C703 C704 1.394 . S
C703 C709 1.465 . S
C704 C699 1.399 . S
C704 C703 1.394 . S
C704 C705 1.516 . S
C705 C704 1.516 . S
C705 C706 1.502 . S
C705 C707 1.561 . S
C705 C708 1.526 . S
C706 H690 0.959 . S
C706 H691 0.959 . S
C706 H692 0.961 . S
C706 C705 1.502 . S
C707 H693 0.960 . S
C707 H694 0.961 . S
C707 H695 0.959 . S
C707 C705 1.561 . S
C708 C705 1.526 . S
C708 C709 1.396 . S
C708 C713 1.390 . S
C709 C703 1.465 . S
C709 C708 1.396 . S
C709 C710 1.399 . S
C710 H696 0.929 . S
C710 C709 1.399 . S
C710 C711 1.385 . S
C711 H697 0.931 . S
C711 C710 1.385 . S
C711 C712 1.389 . S
C712 C711 1.389 . S
C712 C713 1.387 . S
C713 H698 0.930 . S
C713 C708 1.390 . S
C713 C712 1.387 . S
H714 C726 0.930 . S
H715 C728 0.930 . S
H716 C729 0.930 . S
H717 C733 0.959 . S
H718 C733 0.959 . S
H719 C733 0.961 . S
H720 C734 0.960 . S
H721 C734 0.961 . S
H722 C734 0.959 . S
H723 C737 0.929 . S
H724 C738 0.931 . S
H725 C740 0.930 . S
C726 H714 0.930 . S
C726 C727 1.399 . S
C726 C731 1.399 . S
C727 C726 1.399 . S
C727 C728 1.376 . S
C728 H715 0.930 . S
C728 C727 1.376 . S
C728 C729 1.388 . S
C729 H716 0.930 . S
C729 C728 1.388 . S
C729 C730 1.390 . S
C730 C729 1.390 . S
C730 C731 1.394 . S
C730 C736 1.465 . S
C731 C726 1.399 . S
C731 C730 1.394 . S
C731 C732 1.516 . S
C732 C731 1.516 . S
C732 C733 1.502 . S
C732 C734 1.561 . S
C732 C735 1.526 . S
C733 H717 0.959 . S
C733 H718 0.959 . S
C733 H719 0.961 . S
C733 C732 1.502 . S
C734 H720 0.960 . S
C734 H721 0.961 . S
C734 H722 0.959 . S
C734 C732 1.561 . S
C735 C732 1.526 . S
C735 C736 1.396 . S
C735 C740 1.390 1_554 S
C736 C730 1.465 . S
C736 C735 1.396 . S
C736 C737 1.399 . S
C737 H723 0.929 . S
C737 C736 1.399 . S
C737 C738 1.385 1_554 S
C738 H724 0.931 . S
C738 C737 1.385 1_556 S
C738 C739 1.389 . S
C739 C738 1.389 . S
C739 C740 1.387 . S
C740 H725 0.930 . S
C740 C735 1.390 1_556 S
C740 C739 1.387 . S
H741 C753 0.930 . S
H742 C755 0.930 . S
H743 C756 0.930 . S
H744 C760 0.959 . S
H745 C760 0.959 . S
H746 C760 0.961 . S
H747 C761 0.960 . S
H748 C761 0.961 . S
H749 C761 0.959 . S
H750 C764 0.929 . S
H751 C765 0.931 . S
H752 C767 0.930 . S
C753 H741 0.930 . S
C753 C754 1.399 . S
C753 C758 1.399 1_554 S
C754 C753 1.399 . S
C754 C755 1.376 . S
C755 H742 0.930 . S
C755 C754 1.376 . S
C755 C756 1.388 1_554 S
C756 H743 0.930 . S
C756 C755 1.388 1_556 S
C756 C757 1.390 . S
C757 C756 1.390 . S
C757 C758 1.394 . S
C757 C763 1.465 . S
C758 C753 1.399 1_556 S
C758 C757 1.394 . S
C758 C759 1.516 . S
C759 C758 1.516 . S
C759 C760 1.502 . S
C759 C761 1.561 . S
C759 C762 1.526 . S
C760 H744 0.959 . S
C760 H745 0.959 . S
C760 H746 0.961 . S
C760 C759 1.502 . S
C761 H747 0.960 . S
C761 H748 0.961 . S
C761 H749 0.959 . S
C761 C759 1.561 . S
C762 C759 1.526 . S
C762 C763 1.396 . S
C762 C767 1.390 . S
C763 C757 1.465 . S
C763 C762 1.396 . S
C763 C764 1.399 . S
C764 H750 0.929 . S
C764 C763 1.399 . S
C764 C765 1.385 . S
C765 H751 0.931 . S
C765 C764 1.385 . S
C765 C766 1.389 . S
C766 C765 1.389 . S
C766 C767 1.387 . S
C767 H752 0.930 . S
C767 C762 1.390 . S
C767 C766 1.387 . S
H768 C780 0.930 1_556 S
H769 C782 0.930 . S
H770 C783 0.930 . S
H771 C787 0.959 1_554 S
H772 C787 0.959 . S
H773 C787 0.961 . S
H774 C788 0.960 . S
H775 C788 0.961 . S
H776 C788 0.959 . S
H777 C791 0.929 . S
H778 C792 0.931 . S
H779 C794 0.930 1_556 S
C780 H768 0.930 1_554 S
C780 C781 1.399 . S
C780 C785 1.399 . S
C781 C780 1.399 . S
C781 C782 1.376 . S
C782 H769 0.930 . S
C782 C781 1.376 . S
C782 C783 1.388 . S
C783 H770 0.930 . S
C783 C782 1.388 . S
C783 C784 1.390 . S
C784 C783 1.390 . S
C784 C785 1.394 . S
C784 C790 1.465 . S
C785 C780 1.399 . S
C785 C784 1.394 . S
C785 C786 1.516 . S
C786 C785 1.516 . S
C786 C787 1.502 1_554 S
C786 C788 1.561 1_554 S
C786 C789 1.526 . S
C787 H771 0.959 1_556 S
C787 H772 0.959 . S
C787 H773 0.961 . S
C787 C786 1.502 1_556 S
C788 H774 0.960 . S
C788 H775 0.961 . S
C788 H776 0.959 . S
C788 C786 1.561 1_556 S
C789 C786 1.526 . S
C789 C790 1.396 . S
C789 C794 1.390 . S
C790 C784 1.465 . S
C790 C789 1.396 . S
C790 C791 1.399 . S
C791 H777 0.929 . S
C791 C790 1.399 . S
C791 C792 1.385 . S
C792 H778 0.931 . S
C792 C791 1.385 . S
C792 C793 1.389 . S
C793 C792 1.389 . S
C793 C794 1.387 . S
C794 H779 0.930 1_554 S
C794 C789 1.390 . S
C794 C793 1.387 . S
H795 C807 0.930 . S
H796 C809 0.930 . S
H797 C810 0.930 . S
H798 C814 0.959 . S
H799 C814 0.959 . S
H800 C814 0.961 . S
H801 C815 0.960 . S
H802 C815 0.961 . S
H803 C815 0.959 . S
H804 C818 0.929 . S
H805 C819 0.931 . S
H806 C821 0.930 . S
C807 H795 0.930 . S
C807 C808 1.399 . S
C807 C812 1.399 . S
C808 C807 1.399 . S
C808 C809 1.376 . S
C809 H796 0.930 . S
C809 C808 1.376 . S
C809 C810 1.388 . S
C810 H797 0.930 . S
C810 C809 1.388 . S
C810 C811 1.390 . S
C811 C810 1.390 . S
C811 C812 1.394 . S
C811 C817 1.465 . S
C812 C807 1.399 . S
C812 C811 1.394 . S
C812 C813 1.516 . S
C813 C812 1.516 . S
C813 C814 1.502 . S
C813 C815 1.561 . S
C813 C816 1.526 . S
C814 H798 0.959 . S
C814 H799 0.959 . S
C814 H800 0.961 . S
C814 C813 1.502 . S
C815 H801 0.960 . S
C815 H802 0.961 . S
C815 H803 0.959 . S
C815 C813 1.561 . S
C816 C813 1.526 . S
C816 C817 1.396 . S
C816 C821 1.390 . S
C817 C811 1.465 . S
C817 C816 1.396 . S
C817 C818 1.399 . S
C818 H804 0.929 . S
C818 C817 1.399 . S
C818 C819 1.385 . S
C819 H805 0.931 . S
C819 C818 1.385 . S
C819 C820 1.389 . S
C820 C819 1.389 . S
C820 C821 1.387 . S
C821 H806 0.930 . S
C821 C816 1.390 . S
C821 C820 1.387 . S
H822 C834 0.930 . S
H823 C836 0.930 . S
H824 C837 0.930 . S
H825 C841 0.959 . S
H826 C841 0.959 . S
H827 C841 0.961 . S
H828 C842 0.960 . S
H829 C842 0.961 . S
H830 C842 0.959 . S
H831 C845 0.929 . S
H832 C846 0.931 . S
H833 C848 0.930 . S
C834 H822 0.930 . S
C834 C835 1.399 . S
C834 C839 1.399 . S
C835 C834 1.399 . S
C835 C836 1.376 . S
C836 H823 0.930 . S
C836 C835 1.376 . S
C836 C837 1.388 . S
C837 H824 0.930 . S
C837 C836 1.388 . S
C837 C838 1.390 . S
C838 C837 1.390 . S
C838 C839 1.394 . S
C838 C844 1.465 . S
C839 C834 1.399 . S
C839 C838 1.394 . S
C839 C840 1.516 . S
C840 C839 1.516 . S
C840 C841 1.502 . S
C840 C842 1.561 . S
C840 C843 1.526 . S
C841 H825 0.959 . S
C841 H826 0.959 . S
C841 H827 0.961 . S
C841 C840 1.502 . S
C842 H828 0.960 . S
C842 H829 0.961 . S
C842 H830 0.959 . S
C842 C840 1.561 . S
C843 C840 1.526 . S
C843 C844 1.396 . S
C843 C848 1.390 . S
C844 C838 1.465 . S
C844 C843 1.396 . S
C844 C845 1.399 . S
C845 H831 0.929 . S
C845 C844 1.399 . S
C845 C846 1.385 . S
C846 H832 0.931 . S
C846 C845 1.385 . S
C846 C847 1.389 . S
C847 C846 1.389 . S
C847 C848 1.387 . S
C848 H833 0.930 . S
C848 C843 1.390 . S
C848 C847 1.387 . S
H849 C861 0.930 . S
H850 C863 0.930 . S
H851 C864 0.930 . S
H852 C868 0.963 . S
H853 C868 0.989 1_554 S
H854 C868 0.929 1_654 S
H855 C869 0.952 1_655 S
H856 C869 0.969 . S
H857 C869 0.960 . S
H858 C872 0.929 . S
H859 C873 0.931 . S
H860 C875 0.930 . S
C861 H849 0.930 . S
C861 C862 1.399 . S
C861 C866 1.399 . S
C862 C861 1.399 . S
C862 C863 1.376 . S
C863 H850 0.930 . S
C863 C862 1.376 . S
C863 C864 1.388 . S
C864 H851 0.930 . S
C864 C863 1.388 . S
C864 C865 1.390 . S
C865 C864 1.390 . S
C865 C866 1.394 . S
C865 C871 1.465 1_655 S
C866 C861 1.399 . S
C866 C865 1.394 . S
C866 C867 1.511 1_655 S
C867 C866 1.511 1_455 S
C867 C868 1.501 . S
C867 C869 1.561 1_556 S
C867 C870 1.531 . S
C868 H852 0.963 . S
C868 H853 0.989 1_556 S
C868 H854 0.929 1_456 S
C868 C867 1.501 . S
C869 H855 0.952 1_455 S
C869 H856 0.969 . S
C869 H857 0.960 . S
C869 C867 1.561 1_554 S
C870 C867 1.531 . S
C870 C871 1.396 . S
C870 C875 1.390 . S
C871 C865 1.465 1_455 S
C871 C870 1.396 . S
C871 C872 1.399 . S
C872 H858 0.929 . S
C872 C871 1.399 . S
C872 C873 1.385 . S
C873 H859 0.931 . S
C873 C872 1.385 . S
C873 C874 1.389 . S
C874 C873 1.389 . S
C874 C875 1.387 . S
C875 H860 0.930 . S
C875 C870 1.390 . S
C875 C874 1.387 . S
H876 C888 0.930 1_554 S
H877 C890 0.930 . S
H878 C891 0.930 . S
H879 C895 0.959 1_556 S
H880 C895 0.959 . S
H881 C895 0.961 . S
H882 C896 0.960 . S
H883 C896 0.961 . S
H884 C896 0.959 . S
H885 C899 0.929 . S
H886 C900 0.931 . S
H887 C902 0.930 1_554 S
C888 H876 0.930 1_556 S
C888 C889 1.399 . S
C888 C893 1.399 . S
C889 C888 1.399 . S
C889 C890 1.376 . S
C890 H877 0.930 . S
C890 C889 1.376 . S
C890 C891 1.388 . S
C891 H878 0.930 . S
C891 C890 1.388 . S
C891 C892 1.390 . S
C892 C891 1.390 . S
C892 C893 1.394 . S
C892 C898 1.465 . S
C893 C888 1.399 . S
C893 C892 1.394 . S
C893 C894 1.516 . S
C894 C893 1.516 . S
C894 C895 1.502 1_556 S
C894 C896 1.561 1_556 S
C894 C897 1.526 . S
C895 H879 0.959 1_554 S
C895 H880 0.959 . S
C895 H881 0.961 . S
C895 C894 1.502 1_554 S
C896 H882 0.960 . S
C896 H883 0.961 . S
C896 H884 0.959 . S
C896 C894 1.561 1_554 S
C897 C894 1.526 . S
C897 C898 1.396 . S
C897 C902 1.390 . S
C898 C892 1.465 . S
C898 C897 1.396 . S
C898 C899 1.399 . S
C899 H885 0.929 . S
C899 C898 1.399 . S
C899 C900 1.385 . S
C900 H886 0.931 . S
C900 C899 1.385 . S
C900 C901 1.389 . S
C901 C900 1.389 . S
C901 C902 1.387 . S
C902 H887 0.930 1_556 S
C902 C897 1.390 . S
C902 C901 1.387 . S
H903 C915 0.930 . S
H904 C917 0.930 . S
H905 C918 0.930 1_556 S
H906 C922 0.960 . S
H907 C922 0.964 . S
H908 C922 0.956 1_455 S
H909 C923 0.975 . S
H910 C923 0.948 1_655 S
H911 C923 0.956 1_655 S
H912 C926 0.929 1_556 S
H913 C927 0.931 . S
H914 C929 0.930 . S
C915 H903 0.930 . S
C915 C916 1.399 . S
C915 C920 1.399 . S
C916 C915 1.399 . S
C916 C917 1.376 . S
C917 H904 0.930 . S
C917 C916 1.376 . S
C917 C918 1.388 . S
C918 H905 0.930 1_554 S
C918 C917 1.388 . S
C918 C919 1.390 . S
C919 C918 1.390 . S
C919 C920 1.394 . S
C919 C925 1.465 1_455 S
C920 C915 1.399 . S
C920 C919 1.394 . S
C920 C921 1.528 . S
C921 C920 1.528 . S
C921 C922 1.501 1_455 S
C921 C923 1.561 . S
C921 C924 1.514 1_455 S
C922 H906 0.960 . S
C922 H907 0.964 . S
C922 H908 0.956 1_655 S
C922 C921 1.501 1_655 S
C923 H909 0.975 . S
C923 H910 0.948 1_455 S
C923 H911 0.956 1_455 S
C923 C921 1.561 . S
C924 C921 1.514 1_655 S
C924 C925 1.396 . S
C924 C929 1.390 . S
C925 C919 1.465 1_655 S
C925 C924 1.396 . S
C925 C926 1.399 . S
C926 H912 0.929 1_554 S
C926 C925 1.399 . S
C926 C927 1.385 . S
C927 H913 0.931 . S
C927 C926 1.385 . S
C927 C928 1.389 . S
C928 C927 1.389 . S
C928 C929 1.387 . S
C929 H914 0.930 . S
C929 C924 1.390 . S
C929 C928 1.387 . S
H930 C942 0.930 . S
H931 C944 0.930 . S
H932 C945 0.930 . S
H933 C949 0.959 . S
H934 C949 0.959 . S
H935 C949 0.961 . S
H936 C950 0.960 . S
H937 C950 0.961 . S
H938 C950 0.959 . S
H939 C953 0.929 . S
H940 C954 0.931 . S
H941 C956 0.930 . S
C942 H930 0.930 . S
C942 C943 1.399 . S
C942 C947 1.399 . S
C943 C942 1.399 . S
C943 C944 1.376 . S
C944 H931 0.930 . S
C944 C943 1.376 . S
C944 C945 1.388 . S
C945 H932 0.930 . S
C945 C944 1.388 . S
C945 C946 1.390 . S
C946 C945 1.390 . S
C946 C947 1.394 . S
C946 C952 1.465 . S
C947 C942 1.399 . S
C947 C946 1.394 . S
C947 C948 1.516 . S
C948 C947 1.516 . S
C948 C949 1.502 . S
C948 C950 1.561 . S
C948 C951 1.526 . S
C949 H933 0.959 . S
C949 H934 0.959 . S
C949 H935 0.961 . S
C949 C948 1.502 . S
C950 H936 0.960 . S
C950 H937 0.961 . S
C950 H938 0.959 . S
C950 C948 1.561 . S
C951 C948 1.526 . S
C951 C952 1.396 . S
C951 C956 1.390 . S
C952 C946 1.465 . S
C952 C951 1.396 . S
C952 C953 1.399 . S
C953 H939 0.929 . S
C953 C952 1.399 . S
C953 C954 1.385 . S
C954 H940 0.931 . S
C954 C953 1.385 . S
C954 C955 1.389 . S
C955 C954 1.389 . S
C955 C956 1.387 . S
C956 H941 0.930 . S
C956 C951 1.390 . S
C956 C955 1.387 . S
H957 C969 0.930 . S
H958 C971 0.930 . S
H959 C972 0.930 . S
H960 C976 0.959 . S
H961 C976 0.959 . S
H962 C976 0.961 . S
H963 C977 0.960 . S
H964 C977 0.961 . S
H965 C977 0.959 . S
H966 C980 0.929 . S
H967 C981 0.931 . S
H968 C983 0.930 . S
C969 H957 0.930 . S
C969 C970 1.399 . S
C969 C974 1.399 . S
C970 C969 1.399 . S
C970 C971 1.376 . S
C971 H958 0.930 . S
C971 C970 1.376 . S
C971 C972 1.388 . S
C972 H959 0.930 . S
C972 C971 1.388 . S
C972 C973 1.390 . S
C973 C972 1.390 . S
C973 C974 1.394 . S
C973 C979 1.465 . S
C974 C969 1.399 . S
C974 C973 1.394 . S
C974 C975 1.516 . S
C975 C974 1.516 . S
C975 C976 1.502 . S
C975 C977 1.561 . S
C975 C978 1.526 . S
C976 H960 0.959 . S
C976 H961 0.959 . S
C976 H962 0.961 . S
C976 C975 1.502 . S
C977 H963 0.960 . S
C977 H964 0.961 . S
C977 H965 0.959 . S
C977 C975 1.561 . S
C978 C975 1.526 . S
C978 C979 1.396 . S
C978 C983 1.390 . S
C979 C973 1.465 . S
C979 C978 1.396 . S
C979 C980 1.399 . S
C980 H966 0.929 . S
C980 C979 1.399 . S
C980 C981 1.385 . S
C981 H967 0.931 . S
C981 C980 1.385 . S
C981 C982 1.389 . S
C982 C981 1.389 . S
C982 C983 1.387 . S
C983 H968 0.930 . S
C983 C978 1.390 . S
C983 C982 1.387 . S
H984 C996 0.930 . S
H985 C998 0.930 1_554 S
H986 C999 0.930 1_554 S
H987 C1003 0.959 . S
H988 C1003 0.959 . S
H989 C1003 0.961 . S
H990 C1004 0.960 . S
H991 C1004 0.961 . S
H992 C1004 0.959 . S
H993 C1007 0.929 1_554 S
H994 C1008 0.931 1_554 S
H995 C1010 0.930 . S
C996 H984 0.930 . S
C996 C997 1.399 . S
C996 C1001 1.399 . S
C997 C996 1.399 . S
C997 C998 1.376 . S
C998 H985 0.930 1_556 S
C998 C997 1.376 . S
C998 C999 1.388 . S
C999 H986 0.930 1_556 S
C999 C998 1.388 . S
C999 C1000 1.390 . S
C1000 C999 1.390 . S
C1000 C1001 1.394 . S
C1000 C1006 1.465 . S
C1001 C996 1.399 . S
C1001 C1000 1.394 . S
C1001 C1002 1.516 . S
C1002 C1001 1.516 . S
C1002 C1003 1.502 . S
C1002 C1004 1.561 . S
C1002 C1005 1.526 . S
C1003 H987 0.959 . S
C1003 H988 0.959 . S
C1003 H989 0.961 . S
C1003 C1002 1.502 . S
C1004 H990 0.960 . S
C1004 H991 0.961 . S
C1004 H992 0.959 . S
C1004 C1002 1.561 . S
C1005 C1002 1.526 . S
C1005 C1006 1.396 . S
C1005 C1010 1.390 . S
C1006 C1000 1.465 . S
C1006 C1005 1.396 . S
C1006 C1007 1.399 . S
C1007 H993 0.929 1_556 S
C1007 C1006 1.399 . S
C1007 C1008 1.385 . S
C1008 H994 0.931 1_556 S
C1008 C1007 1.385 . S
C1008 C1009 1.389 . S
C1009 C1008 1.389 . S
C1009 C1010 1.387 . S
C1010 H995 0.930 . S
C1010 C1005 1.390 . S
C1010 C1009 1.387 . S
H1011 C1023 0.930 . S
H1012 C1025 0.930 . S
H1013 C1026 0.930 . S
H1014 C1030 0.959 . S
H1015 C1030 0.959 . S
H1016 C1030 0.961 . S
H1017 C1031 0.960 . S
H1018 C1031 0.961 . S
H1019 C1031 0.959 . S
H1020 C1034 0.929 . S
H1021 C1035 0.931 . S
H1022 C1037 0.930 . S
C1023 H1011 0.930 . S
C1023 C1024 1.399 . S
C1023 C1028 1.399 . S
C1024 C1023 1.399 . S
C1024 C1025 1.376 . S
C1025 H1012 0.930 . S
C1025 C1024 1.376 . S
C1025 C1026 1.388 . S
C1026 H1013 0.930 . S
C1026 C1025 1.388 . S
C1026 C1027 1.390 . S
C1027 C1026 1.390 . S
C1027 C1028 1.394 . S
C1027 C1033 1.465 . S
C1028 C1023 1.399 . S
C1028 C1027 1.394 . S
C1028 C1029 1.516 . S
C1029 C1028 1.516 . S
C1029 C1030 1.502 . S
C1029 C1031 1.561 . S
C1029 C1032 1.526 . S
C1030 H1014 0.959 . S
C1030 H1015 0.959 . S
C1030 H1016 0.961 . S
C1030 C1029 1.502 . S
C1031 H1017 0.960 . S
C1031 H1018 0.961 . S
C1031 H1019 0.959 . S
C1031 C1029 1.561 . S
C1032 C1029 1.526 . S
C1032 C1033 1.396 . S
C1032 C1037 1.390 . S
C1033 C1027 1.465 . S
C1033 C1032 1.396 . S
C1033 C1034 1.399 . S
C1034 H1020 0.929 . S
C1034 C1033 1.399 . S
C1034 C1035 1.385 . S
C1035 H1021 0.931 . S
C1035 C1034 1.385 . S
C1035 C1036 1.389 . S
C1036 C1035 1.389 . S
C1036 C1037 1.387 . S
C1037 H1022 0.930 . S
C1037 C1032 1.390 . S
C1037 C1036 1.387 . S
H1038 C1050 0.930 . S
H1039 C1052 0.930 1_556 S
H1040 C1053 0.930 . S
H1041 C1057 0.959 . S
H1042 C1057 0.959 . S
H1043 C1057 0.961 . S
H1044 C1058 0.960 . S
H1045 C1058 0.961 . S
H1046 C1058 0.959 . S
H1047 C1061 0.929 . S
H1048 C1062 0.931 1_556 S
H1049 C1064 0.930 . S
C1050 H1038 0.930 . S
C1050 C1051 1.399 . S
C1050 C1055 1.399 . S
C1051 C1050 1.399 . S
C1051 C1052 1.376 . S
C1052 H1039 0.930 1_554 S
C1052 C1051 1.376 . S
C1052 C1053 1.388 1_554 S
C1053 H1040 0.930 . S
C1053 C1052 1.388 1_556 S
C1053 C1054 1.390 1_556 S
C1054 C1053 1.390 1_554 S
C1054 C1055 1.394 . S
C1054 C1060 1.465 . S
C1055 C1050 1.399 . S
C1055 C1054 1.394 . S
C1055 C1056 1.516 . S
C1056 C1055 1.516 . S
C1056 C1057 1.502 . S
C1056 C1058 1.561 . S
C1056 C1059 1.526 . S
C1057 H1041 0.959 . S
C1057 H1042 0.959 . S
C1057 H1043 0.961 . S
C1057 C1056 1.502 . S
C1058 H1044 0.960 . S
C1058 H1045 0.961 . S
C1058 H1046 0.959 . S
C1058 C1056 1.561 . S
C1059 C1056 1.526 . S
C1059 C1060 1.396 . S
C1059 C1064 1.390 . S
C1060 C1054 1.465 . S
C1060 C1059 1.396 . S
C1060 C1061 1.399 1_554 S
C1061 H1047 0.929 . S
C1061 C1060 1.399 1_556 S
C1061 C1062 1.385 1_556 S
C1062 H1048 0.931 1_554 S
C1062 C1061 1.385 1_554 S
C1062 C1063 1.389 . S
C1063 C1062 1.389 . S
C1063 C1064 1.387 . S
C1064 H1049 0.930 . S
C1064 C1059 1.390 . S
C1064 C1063 1.387 . S
H1065 C1077 0.930 . S
H1066 C1079 0.930 . S
H1067 C1080 0.930 . S
H1068 C1084 0.959 . S
H1069 C1084 0.959 . S
H1070 C1084 0.961 . S
H1071 C1085 0.960 . S
H1072 C1085 0.961 . S
H1073 C1085 0.959 . S
H1074 C1088 0.929 . S
H1075 C1089 0.931 . S
H1076 C1091 0.930 . S
C1077 H1065 0.930 . S
C1077 C1078 1.399 . S
C1077 C1082 1.399 . S
C1078 C1077 1.399 . S
C1078 C1079 1.376 . S
C1079 H1066 0.930 . S
C1079 C1078 1.376 . S
C1079 C1080 1.388 . S
C1080 H1067 0.930 . S
C1080 C1079 1.388 . S
C1080 C1081 1.390 . S
C1081 C1080 1.390 . S
C1081 C1082 1.394 . S
C1081 C1087 1.465 . S
C1082 C1077 1.399 . S
C1082 C1081 1.394 . S
C1082 C1083 1.516 . S
C1083 C1082 1.516 . S
C1083 C1084 1.502 . S
C1083 C1085 1.561 . S
C1083 C1086 1.526 . S
C1084 H1068 0.959 . S
C1084 H1069 0.959 . S
C1084 H1070 0.961 . S
C1084 C1083 1.502 . S
C1085 H1071 0.960 . S
C1085 H1072 0.961 . S
C1085 H1073 0.959 . S
C1085 C1083 1.561 . S
C1086 C1083 1.526 . S
C1086 C1087 1.396 . S
C1086 C1091 1.390 . S
C1087 C1081 1.465 . S
C1087 C1086 1.396 . S
C1087 C1088 1.399 . S
C1088 H1074 0.929 . S
C1088 C1087 1.399 . S
C1088 C1089 1.385 . S
C1089 H1075 0.931 . S
C1089 C1088 1.385 . S
C1089 C1090 1.389 . S
C1090 C1089 1.389 . S
C1090 C1091 1.387 . S
C1091 H1076 0.930 . S
C1091 C1086 1.390 . S
C1091 C1090 1.387 . S
H1092 C1104 0.930 . S
H1093 C1106 0.930 . S
H1094 C1107 0.930 . S
H1095 C1111 0.962 . S
H1096 C1111 0.980 . S
H1097 C1111 0.938 1_655 S
H1098 C1112 0.965 1_655 S
H1099 C1112 0.956 . S
H1100 C1112 0.958 . S
H1101 C1115 0.929 . S
H1102 C1116 0.931 . S
H1103 C1118 0.930 . S
C1104 H1092 0.930 . S
C1104 C1105 1.399 . S
C1104 C1109 1.399 . S
C1105 C1104 1.399 . S
C1105 C1106 1.376 . S
C1106 H1093 0.930 . S
C1106 C1105 1.376 . S
C1106 C1107 1.388 . S
C1107 H1094 0.930 . S
C1107 C1106 1.388 . S
C1107 C1108 1.390 . S
C1108 C1107 1.390 . S
C1108 C1109 1.394 . S
C1108 C1114 1.465 1_655 S
C1109 C1104 1.399 . S
C1109 C1108 1.394 . S
C1109 C1110 1.517 1_655 S
C1110 C1109 1.517 1_455 S
C1110 C1111 1.502 . S
C1110 C1112 1.561 . S
C1110 C1113 1.525 . S
C1111 H1095 0.962 . S
C1111 H1096 0.980 . S
C1111 H1097 0.938 1_455 S
C1111 C1110 1.502 . S
C1112 H1098 0.965 1_455 S
C1112 H1099 0.956 . S
C1112 H1100 0.958 . S
C1112 C1110 1.561 . S
C1113 C1110 1.525 . S
C1113 C1114 1.396 . S
C1113 C1118 1.390 . S
C1114 C1108 1.465 1_455 S
C1114 C1113 1.396 . S
C1114 C1115 1.399 . S
C1115 H1101 0.929 . S
C1115 C1114 1.399 . S
C1115 C1116 1.385 . S
C1116 H1102 0.931 . S
C1116 C1115 1.385 . S
C1116 C1117 1.389 . S
C1117 C1116 1.389 . S
C1117 C1118 1.387 . S
C1118 H1103 0.930 . S
C1118 C1113 1.390 . S
C1118 C1117 1.387 . S
H1119 C1131 0.930 . S
H1120 C1133 0.930 . S
H1121 C1134 0.930 . S
H1122 C1138 0.959 . S
H1123 C1138 0.959 . S
H1124 C1138 0.961 . S
H1125 C1139 0.960 . S
H1126 C1139 0.961 . S
H1127 C1139 0.959 . S
H1128 C1142 0.929 . S
H1129 C1143 0.931 . S
H1130 C1145 0.930 . S
C1131 H1119 0.930 . S
C1131 C1132 1.399 . S
C1131 C1136 1.399 . S
C1132 C1131 1.399 . S
C1132 C1133 1.376 . S
C1133 H1120 0.930 . S
C1133 C1132 1.376 . S
C1133 C1134 1.388 . S
C1134 H1121 0.930 . S
C1134 C1133 1.388 . S
C1134 C1135 1.390 . S
C1135 C1134 1.390 . S
C1135 C1136 1.394 . S
C1135 C1141 1.465 . S
C1136 C1131 1.399 . S
C1136 C1135 1.394 . S
C1136 C1137 1.516 . S
C1137 C1136 1.516 . S
C1137 C1138 1.502 . S
C1137 C1139 1.561 . S
C1137 C1140 1.526 . S
C1138 H1122 0.959 . S
C1138 H1123 0.959 . S
C1138 H1124 0.961 . S
C1138 C1137 1.502 . S
C1139 H1125 0.960 . S
C1139 H1126 0.961 . S
C1139 H1127 0.959 . S
C1139 C1137 1.561 . S
C1140 C1137 1.526 . S
C1140 C1141 1.396 . S
C1140 C1145 1.390 . S
C1141 C1135 1.465 . S
C1141 C1140 1.396 . S
C1141 C1142 1.399 . S
C1142 H1128 0.929 . S
C1142 C1141 1.399 . S
C1142 C1143 1.385 . S
C1143 H1129 0.931 . S
C1143 C1142 1.385 . S
C1143 C1144 1.389 . S
C1144 C1143 1.389 . S
C1144 C1145 1.387 . S
C1145 H1130 0.930 . S
C1145 C1140 1.390 . S
C1145 C1144 1.387 . S
H1146 C1158 0.930 . S
H1147 C1160 0.930 . S
H1148 C1161 0.930 . S
H1149 C1165 0.959 . S
H1150 C1165 0.959 . S
H1151 C1165 0.961 . S
H1152 C1166 0.960 . S
H1153 C1166 0.961 . S
H1154 C1166 0.959 . S
H1155 C1169 0.929 . S
H1156 C1170 0.931 . S
H1157 C1172 0.930 . S
C1158 H1146 0.930 . S
C1158 C1159 1.399 . S
C1158 C1163 1.399 . S
C1159 C1158 1.399 . S
C1159 C1160 1.376 . S
C1160 H1147 0.930 . S
C1160 C1159 1.376 . S
C1160 C1161 1.388 . S
C1161 H1148 0.930 . S
C1161 C1160 1.388 . S
C1161 C1162 1.390 . S
C1162 C1161 1.390 . S
C1162 C1163 1.394 . S
C1162 C1168 1.465 . S
C1163 C1158 1.399 . S
C1163 C1162 1.394 . S
C1163 C1164 1.516 . S
C1164 C1163 1.516 . S
C1164 C1165 1.502 . S
C1164 C1166 1.561 . S
C1164 C1167 1.526 . S
C1165 H1149 0.959 . S
C1165 H1150 0.959 . S
C1165 H1151 0.961 . S
C1165 C1164 1.502 . S
C1166 H1152 0.960 . S
C1166 H1153 0.961 . S
C1166 H1154 0.959 . S
C1166 C1164 1.561 . S
C1167 C1164 1.526 . S
C1167 C1168 1.396 . S
C1167 C1172 1.390 . S
C1168 C1162 1.465 . S
C1168 C1167 1.396 . S
C1168 C1169 1.399 . S
C1169 H1155 0.929 . S
C1169 C1168 1.399 . S
C1169 C1170 1.385 . S
C1170 H1156 0.931 . S
C1170 C1169 1.385 . S
C1170 C1171 1.389 . S
C1171 C1170 1.389 . S
C1171 C1172 1.387 . S
C1172 H1157 0.930 . S
C1172 C1167 1.390 . S
C1172 C1171 1.387 . S
H1173 C1185 0.930 . S
H1174 C1187 0.930 . S
H1175 C1188 0.930 . S
H1176 C1192 0.959 1_554 S
H1177 C1192 0.959 . S
H1178 C1192 0.961 1_455 S
H1179 C1193 0.915 1_455 S
H1180 C1193 1.003 . S
H1181 C1193 0.964 . S
H1182 C1196 0.929 . S
H1183 C1197 0.931 . S
H1184 C1199 0.930 . S
C1185 H1173 0.930 . S
C1185 C1186 1.399 . S
C1185 C1190 1.399 . S
C1186 C1185 1.399 . S
C1186 C1187 1.376 . S
C1187 H1174 0.930 . S
C1187 C1186 1.376 . S
C1187 C1188 1.388 . S
C1188 H1175 0.930 . S
C1188 C1187 1.388 . S
C1188 C1189 1.390 . S
C1189 C1188 1.390 . S
C1189 C1190 1.394 . S
C1189 C1195 1.465 1_455 S
C1190 C1185 1.399 . S
C1190 C1189 1.394 . S
C1190 C1191 1.479 1_455 S
C1191 C1190 1.479 1_655 S
C1191 C1192 1.504 1_554 S
C1191 C1193 1.561 1_554 S
C1191 C1194 1.563 . S
C1192 H1176 0.959 1_556 S
C1192 H1177 0.959 . S
C1192 H1178 0.961 1_655 S
C1192 C1191 1.504 1_556 S
C1193 H1179 0.915 1_655 S
C1193 H1180 1.003 . S
C1193 H1181 0.964 . S
C1193 C1191 1.561 1_556 S
C1194 C1191 1.563 . S
C1194 C1195 1.396 . S
C1194 C1199 1.390 . S
C1195 C1189 1.465 1_655 S
C1195 C1194 1.396 . S
C1195 C1196 1.399 . S
C1196 H1182 0.929 . S
C1196 C1195 1.399 . S
C1196 C1197 1.385 . S
C1197 H1183 0.931 . S
C1197 C1196 1.385 . S
C1197 C1198 1.389 . S
C1198 C1197 1.389 . S
C1198 C1199 1.387 . S
C1199 H1184 0.930 . S
C1199 C1194 1.390 . S
C1199 C1198 1.387 . S
H1200 C1212 0.930 . S
H1201 C1214 0.930 . S
H1202 C1215 0.930 . S
H1203 C1219 0.959 . S
H1204 C1219 0.959 . S
H1205 C1219 0.961 . S
H1206 C1220 0.960 . S
H1207 C1220 0.961 . S
H1208 C1220 0.959 . S
H1209 C1223 0.929 . S
H1210 C1224 0.931 . S
H1211 C1226 0.932 . S
C1212 H1200 0.930 . S
C1212 C1213 1.399 . S
C1212 C1217 1.399 . S
C1213 C1212 1.399 . S
C1213 C1214 1.376 1_554 S
C1214 H1201 0.930 . S
C1214 C1213 1.376 1_556 S
C1214 C1215 1.388 . S
C1215 H1202 0.930 . S
C1215 C1214 1.388 . S
C1215 C1216 1.390 . S
C1216 C1215 1.390 . S
C1216 C1217 1.394 1_556 S
C1216 C1222 1.465 . S
C1217 C1212 1.399 . S
C1217 C1216 1.394 1_554 S
C1217 C1218 1.516 . S
C1218 C1217 1.516 . S
C1218 C1219 1.502 . S
C1218 C1220 1.561 . S
C1218 C1221 1.526 . S
C1219 H1203 0.959 . S
C1219 H1204 0.959 . S
C1219 H1205 0.961 . S
C1219 C1218 1.502 . S
C1220 H1206 0.960 . S
C1220 H1207 0.961 . S
C1220 H1208 0.959 . S
C1220 C1218 1.561 . S
C1221 C1218 1.526 . S
C1221 C1222 1.396 1_554 S
C1221 C1226 1.390 . S
C1222 C1216 1.465 . S
C1222 C1221 1.396 1_556 S
C1222 C1223 1.399 . S
C1223 H1209 0.929 . S
C1223 C1222 1.399 . S
C1223 C1224 1.385 . S
C1224 H1210 0.931 . S
C1224 C1223 1.385 . S
C1224 C1225 1.389 . S
C1225 C1224 1.389 . S
C1225 C1226 1.384 1_556 S
C1226 H1211 0.932 . S
C1226 C1221 1.390 . S
C1226 C1225 1.384 1_554 S
H1227 C1239 0.930 . S
H1228 C1241 0.930 . S
H1229 C1242 0.930 . S
H1230 C1246 0.959 . S
H1231 C1246 0.959 . S
H1232 C1246 0.961 . S
H1233 C1247 0.960 . S
H1234 C1247 0.961 . S
H1235 C1247 0.959 . S
H1236 C1250 0.929 . S
H1237 C1251 0.931 . S
H1238 C1253 0.930 . S
C1239 H1227 0.930 . S
C1239 C1240 1.399 . S
C1239 C1244 1.399 . S
C1240 C1239 1.399 . S
C1240 C1241 1.376 . S
C1241 H1228 0.930 . S
C1241 C1240 1.376 . S
C1241 C1242 1.388 . S
C1242 H1229 0.930 . S
C1242 C1241 1.388 . S
C1242 C1243 1.390 . S
C1243 C1242 1.390 . S
C1243 C1244 1.394 . S
C1243 C1249 1.465 . S
C1244 C1239 1.399 . S
C1244 C1243 1.394 . S
C1244 C1245 1.516 . S
C1245 C1244 1.516 . S
C1245 C1246 1.502 . S
C1245 C1247 1.561 . S
C1245 C1248 1.526 . S
C1246 H1230 0.959 . S
C1246 H1231 0.959 . S
C1246 H1232 0.961 . S
C1246 C1245 1.502 . S
C1247 H1233 0.960 . S
C1247 H1234 0.961 . S
C1247 H1235 0.959 . S
C1247 C1245 1.561 . S
C1248 C1245 1.526 . S
C1248 C1249 1.396 . S
C1248 C1253 1.390 . S
C1249 C1243 1.465 . S
C1249 C1248 1.396 . S
C1249 C1250 1.399 . S
C1250 H1236 0.929 . S
C1250 C1249 1.399 . S
C1250 C1251 1.385 . S
C1251 H1237 0.931 . S
C1251 C1250 1.385 . S
C1251 C1252 1.389 . S
C1252 C1251 1.389 . S
C1252 C1253 1.387 . S
C1253 H1238 0.930 . S
C1253 C1248 1.390 . S
C1253 C1252 1.387 . S
H1254 C1266 0.930 . S
H1255 C1268 0.930 . S
H1256 C1269 0.930 . S
H1257 C1273 0.959 . S
H1258 C1273 0.959 . S
H1259 C1273 0.961 . S
H1260 C1274 0.960 . S
H1261 C1274 0.961 . S
H1262 C1274 0.959 . S
H1263 C1277 0.929 . S
H1264 C1278 0.931 . S
H1265 C1280 0.930 . S
C1266 H1254 0.930 . S
C1266 C1267 1.399 . S
C1266 C1271 1.399 . S
C1267 C1266 1.399 . S
C1267 C1268 1.376 . S
C1268 H1255 0.930 . S
C1268 C1267 1.376 . S
C1268 C1269 1.388 . S
C1269 H1256 0.930 . S
C1269 C1268 1.388 . S
C1269 C1270 1.390 . S
C1270 C1269 1.390 . S
C1270 C1271 1.394 . S
C1270 C1276 1.465 . S
C1271 C1266 1.399 . S
C1271 C1270 1.394 . S
C1271 C1272 1.516 . S
C1272 C1271 1.516 . S
C1272 C1273 1.502 . S
C1272 C1274 1.561 . S
C1272 C1275 1.526 . S
C1273 H1257 0.959 . S
C1273 H1258 0.959 . S
C1273 H1259 0.961 . S
C1273 C1272 1.502 . S
C1274 H1260 0.960 . S
C1274 H1261 0.961 . S
C1274 H1262 0.959 . S
C1274 C1272 1.561 . S
C1275 C1272 1.526 . S
C1275 C1276 1.396 . S
C1275 C1280 1.390 . S
C1276 C1270 1.465 . S
C1276 C1275 1.396 . S
C1276 C1277 1.399 . S
C1277 H1263 0.929 . S
C1277 C1276 1.399 . S
C1277 C1278 1.385 . S
C1278 H1264 0.931 . S
C1278 C1277 1.385 . S
C1278 C1279 1.389 . S
C1279 C1278 1.389 . S
C1279 C1280 1.387 . S
C1280 H1265 0.930 . S
C1280 C1275 1.390 . S
C1280 C1279 1.387 . S
H1281 C1293 0.930 . S
H1282 C1295 0.930 . S
H1283 C1296 0.930 . S
H1284 C1300 0.959 . S
H1285 C1300 0.959 . S
H1286 C1300 0.961 . S
H1287 C1301 0.960 . S
H1288 C1301 0.961 . S
H1289 C1301 0.959 . S
H1290 C1304 0.929 . S
H1291 C1305 0.931 . S
H1292 C1307 0.930 . S
C1293 H1281 0.930 . S
C1293 C1294 1.399 . S
C1293 C1298 1.399 . S
C1294 C1293 1.399 . S
C1294 C1295 1.376 . S
C1295 H1282 0.930 . S
C1295 C1294 1.376 . S
C1295 C1296 1.388 . S
C1296 H1283 0.930 . S
C1296 C1295 1.388 . S
C1296 C1297 1.390 . S
C1297 C1296 1.390 . S
C1297 C1298 1.394 . S
C1297 C1303 1.465 . S
C1298 C1293 1.399 . S
C1298 C1297 1.394 . S
C1298 C1299 1.516 . S
C1299 C1298 1.516 . S
C1299 C1300 1.502 . S
C1299 C1301 1.561 . S
C1299 C1302 1.526 . S
C1300 H1284 0.959 . S
C1300 H1285 0.959 . S
C1300 H1286 0.961 . S
C1300 C1299 1.502 . S
C1301 H1287 0.960 . S
C1301 H1288 0.961 . S
C1301 H1289 0.959 . S
C1301 C1299 1.561 . S
C1302 C1299 1.526 . S
C1302 C1303 1.396 . S
C1302 C1307 1.390 . S
C1303 C1297 1.465 . S
C1303 C1302 1.396 . S
C1303 C1304 1.399 . S
C1304 H1290 0.929 . S
C1304 C1303 1.399 . S
C1304 C1305 1.385 . S
C1305 H1291 0.931 . S
C1305 C1304 1.385 . S
C1305 C1306 1.389 . S
C1306 C1305 1.389 . S
C1306 C1307 1.387 . S
C1307 H1292 0.930 . S
C1307 C1302 1.390 . S
C1307 C1306 1.387 . S
H1308 C1320 0.930 . S
H1309 C1322 0.930 . S
H1310 C1323 0.930 . S
H1311 C1327 0.959 . S
H1312 C1327 0.959 . S
H1313 C1327 0.961 . S
H1314 C1328 0.960 . S
H1315 C1328 0.961 . S
H1316 C1328 0.959 . S
H1317 C1331 0.929 . S
H1318 C1332 0.931 . S
H1319 C1334 0.930 . S
C1320 H1308 0.930 . S
C1320 C1321 1.399 1_556 S
C1320 C1325 1.399 . S
C1321 C1320 1.399 1_554 S
C1321 C1322 1.376 . S
C1322 H1309 0.930 . S
C1322 C1321 1.376 . S
C1322 C1323 1.388 . S
C1323 H1310 0.930 . S
C1323 C1322 1.388 . S
C1323 C1324 1.390 . S
C1324 C1323 1.390 . S
C1324 C1325 1.394 1_554 S
C1324 C1330 1.465 . S
C1325 C1320 1.399 . S
C1325 C1324 1.394 1_556 S
C1325 C1326 1.516 . S
C1326 C1325 1.516 . S
C1326 C1327 1.502 . S
C1326 C1328 1.561 . S
C1326 C1329 1.526 . S
C1327 H1311 0.959 . S
C1327 H1312 0.959 . S
C1327 H1313 0.961 . S
C1327 C1326 1.502 . S
C1328 H1314 0.960 . S
C1328 H1315 0.961 . S
C1328 H1316 0.959 . S
C1328 C1326 1.561 . S
C1329 C1326 1.526 . S
C1329 C1330 1.396 1_556 S
C1329 C1334 1.390 . S
C1330 C1324 1.465 . S
C1330 C1329 1.396 1_554 S
C1330 C1331 1.399 . S
C1331 H1317 0.929 . S
C1331 C1330 1.399 . S
C1331 C1332 1.385 . S
C1332 H1318 0.931 . S
C1332 C1331 1.385 . S
C1332 C1333 1.389 1_554 S
C1333 C1332 1.389 1_556 S
C1333 C1334 1.387 . S
C1334 H1319 0.930 . S
C1334 C1329 1.390 . S
C1334 C1333 1.387 . S
H1335 C1347 0.930 . S
H1336 C1349 0.930 . S
H1337 C1350 0.930 . S
H1338 C1354 0.959 . S
H1339 C1354 0.959 . S
H1340 C1354 0.961 . S
H1341 C1355 0.960 . S
H1342 C1355 0.961 . S
H1343 C1355 0.959 . S
H1344 C1358 0.929 . S
H1345 C1359 0.931 . S
H1346 C1361 0.930 . S
C1347 H1335 0.930 . S
C1347 C1348 1.399 . S
C1347 C1352 1.399 . S
C1348 C1347 1.399 . S
C1348 C1349 1.376 . S
C1349 H1336 0.930 . S
C1349 C1348 1.376 . S
C1349 C1350 1.388 . S
C1350 H1337 0.930 . S
C1350 C1349 1.388 . S
C1350 C1351 1.390 . S
C1351 C1350 1.390 . S
C1351 C1352 1.394 . S
C1351 C1357 1.465 . S
C1352 C1347 1.399 . S
C1352 C1351 1.394 . S
C1352 C1353 1.516 . S
C1353 C1352 1.516 . S
C1353 C1354 1.502 . S
C1353 C1355 1.561 . S
C1353 C1356 1.526 . S
C1354 H1338 0.959 . S
C1354 H1339 0.959 . S
C1354 H1340 0.961 . S
C1354 C1353 1.502 . S
C1355 H1341 0.960 . S
C1355 H1342 0.961 . S
C1355 H1343 0.959 . S
C1355 C1353 1.561 . S
C1356 C1353 1.526 . S
C1356 C1357 1.396 . S
C1356 C1361 1.390 . S
C1357 C1351 1.465 . S
C1357 C1356 1.396 . S
C1357 C1358 1.399 . S
C1358 H1344 0.929 . S
C1358 C1357 1.399 . S
C1358 C1359 1.385 . S
C1359 H1345 0.931 . S
C1359 C1358 1.385 . S
C1359 C1360 1.389 . S
C1360 C1359 1.389 . S
C1360 C1361 1.387 . S
C1361 H1346 0.930 . S
C1361 C1356 1.390 . S
C1361 C1360 1.387 . S
H1362 C1374 0.930 . S
H1363 C1376 0.930 . S
H1364 C1377 0.930 . S
H1365 C1381 0.959 . S
H1366 C1381 0.959 . S
H1367 C1381 0.961 . S
H1368 C1382 0.960 . S
H1369 C1382 0.961 . S
H1370 C1382 0.959 . S
H1371 C1385 0.929 . S
H1372 C1386 0.931 . S
H1373 C1388 0.930 . S
C1374 H1362 0.930 . S
C1374 C1375 1.399 . S
C1374 C1379 1.399 . S
C1375 C1374 1.399 . S
C1375 C1376 1.376 . S
C1376 H1363 0.930 . S
C1376 C1375 1.376 . S
C1376 C1377 1.388 . S
C1377 H1364 0.930 . S
C1377 C1376 1.388 . S
C1377 C1378 1.390 . S
C1378 C1377 1.390 . S
C1378 C1379 1.394 . S
C1378 C1384 1.465 . S
C1379 C1374 1.399 . S
C1379 C1378 1.394 . S
C1379 C1380 1.516 . S
C1380 C1379 1.516 . S
C1380 C1381 1.502 . S
C1380 C1382 1.561 . S
C1380 C1383 1.526 . S
C1381 H1365 0.959 . S
C1381 H1366 0.959 . S
C1381 H1367 0.961 . S
C1381 C1380 1.502 . S
C1382 H1368 0.960 . S
C1382 H1369 0.961 . S
C1382 H1370 0.959 . S
C1382 C1380 1.561 . S
C1383 C1380 1.526 . S
C1383 C1384 1.396 . S
C1383 C1388 1.390 . S
C1384 C1378 1.465 . S
C1384 C1383 1.396 . S
C1384 C1385 1.399 . S
C1385 H1371 0.929 . S
C1385 C1384 1.399 . S
C1385 C1386 1.385 . S
C1386 H1372 0.931 . S
C1386 C1385 1.385 . S
C1386 C1387 1.389 . S
C1387 C1386 1.389 . S
C1387 C1388 1.387 . S
C1388 H1373 0.930 . S
C1388 C1383 1.390 . S
C1388 C1387 1.387 . S
H1389 C1401 0.930 . S
H1390 C1403 0.930 . S
H1391 C1404 0.930 . S
H1392 C1408 0.959 . S
H1393 C1408 0.959 . S
H1394 C1408 0.961 . S
H1395 C1409 0.960 . S
H1396 C1409 0.961 . S
H1397 C1409 0.959 . S
H1398 C1412 0.929 . S
H1399 C1413 0.931 . S
H1400 C1415 0.930 . S
C1401 H1389 0.930 . S
C1401 C1402 1.399 . S
C1401 C1406 1.399 . S
C1402 C1401 1.399 . S
C1402 C1403 1.376 . S
C1403 H1390 0.930 . S
C1403 C1402 1.376 . S
C1403 C1404 1.388 . S
C1404 H1391 0.930 . S
C1404 C1403 1.388 . S
C1404 C1405 1.390 . S
C1405 C1404 1.390 . S
C1405 C1406 1.394 . S
C1405 C1411 1.465 . S
C1406 C1401 1.399 . S
C1406 C1405 1.394 . S
C1406 C1407 1.516 . S
C1407 C1406 1.516 . S
C1407 C1408 1.502 . S
C1407 C1409 1.561 . S
C1407 C1410 1.526 . S
C1408 H1392 0.959 . S
C1408 H1393 0.959 . S
C1408 H1394 0.961 . S
C1408 C1407 1.502 . S
C1409 H1395 0.960 . S
C1409 H1396 0.961 . S
C1409 H1397 0.959 . S
C1409 C1407 1.561 . S
C1410 C1407 1.526 . S
C1410 C1411 1.396 . S
C1410 C1415 1.390 . S
C1411 C1405 1.465 . S
C1411 C1410 1.396 . S
C1411 C1412 1.399 . S
C1412 H1398 0.929 . S
C1412 C1411 1.399 . S
C1412 C1413 1.385 . S
C1413 H1399 0.931 . S
C1413 C1412 1.385 . S
C1413 C1414 1.389 . S
C1414 C1413 1.389 . S
C1414 C1415 1.387 . S
C1415 H1400 0.930 . S
C1415 C1410 1.390 . S
C1415 C1414 1.387 . S
H1416 C1428 0.930 . S
H1417 C1430 0.930 . S
H1418 C1431 0.930 . S
H1419 C1435 0.959 . S
H1420 C1435 0.959 . S
H1421 C1435 0.961 1_565 S
H1422 C1436 0.960 . S
H1423 C1436 0.961 . S
H1424 C1436 0.959 . S
H1425 C1439 0.929 . S
H1426 C1440 0.931 . S
H1427 C1442 0.930 . S
C1428 H1416 0.930 . S
C1428 C1429 1.399 . S
C1428 C1433 1.399 . S
C1429 C1428 1.399 . S
C1429 C1430 1.376 . S
C1430 H1417 0.930 . S
C1430 C1429 1.376 . S
C1430 C1431 1.388 . S
C1431 H1418 0.930 . S
C1431 C1430 1.388 . S
C1431 C1432 1.390 . S
C1432 C1431 1.390 . S
C1432 C1433 1.394 . S
C1432 C1438 1.465 1_565 S
C1433 C1428 1.399 . S
C1433 C1432 1.394 . S
C1433 C1434 1.516 1_565 S
C1434 C1433 1.516 1_545 S
C1434 C1435 1.502 . S
C1434 C1436 1.561 . S
C1434 C1437 1.526 . S
C1435 H1419 0.959 . S
C1435 H1420 0.959 . S
C1435 H1421 0.961 1_545 S
C1435 C1434 1.502 . S
C1436 H1422 0.960 . S
C1436 H1423 0.961 . S
C1436 H1424 0.959 . S
C1436 C1434 1.561 . S
C1437 C1434 1.526 . S
C1437 C1438 1.396 . S
C1437 C1442 1.390 . S
C1438 C1432 1.465 1_545 S
C1438 C1437 1.396 . S
C1438 C1439 1.399 . S
C1439 H1425 0.929 . S
C1439 C1438 1.399 . S
C1439 C1440 1.385 . S
C1440 H1426 0.931 . S
C1440 C1439 1.385 . S
C1440 C1441 1.389 . S
C1441 C1440 1.389 . S
C1441 C1442 1.387 . S
C1442 H1427 0.930 . S
C1442 C1437 1.390 . S
C1442 C1441 1.387 . S
H1443 C1455 0.930 . S
H1444 C1457 0.930 . S
H1445 C1458 0.930 . S
H1446 C1462 0.959 . S
H1447 C1462 0.959 . S
H1448 C1462 0.961 . S
H1449 C1463 0.960 . S
H1450 C1463 0.961 . S
H1451 C1463 0.959 . S
H1452 C1466 0.929 . S
H1453 C1467 0.931 . S
H1454 C1469 0.930 . S
C1455 H1443 0.930 . S
C1455 C1456 1.399 . S
C1455 C1460 1.399 . S
C1456 C1455 1.399 . S
C1456 C1457 1.376 . S
C1457 H1444 0.930 . S
C1457 C1456 1.376 . S
C1457 C1458 1.388 . S
C1458 H1445 0.930 . S
C1458 C1457 1.388 . S
C1458 C1459 1.390 . S
C1459 C1458 1.390 . S
C1459 C1460 1.394 . S
C1459 C1465 1.465 . S
C1460 C1455 1.399 . S
C1460 C1459 1.394 . S
C1460 C1461 1.516 . S
C1461 C1460 1.516 . S
C1461 C1462 1.502 . S
C1461 C1463 1.561 . S
C1461 C1464 1.526 . S
C1462 H1446 0.959 . S
C1462 H1447 0.959 . S
C1462 H1448 0.961 . S
C1462 C1461 1.502 . S
C1463 H1449 0.960 . S
C1463 H1450 0.961 . S
C1463 H1451 0.959 . S
C1463 C1461 1.561 . S
C1464 C1461 1.526 . S
C1464 C1465 1.396 . S
C1464 C1469 1.390 . S
C1465 C1459 1.465 . S
C1465 C1464 1.396 . S
C1465 C1466 1.399 . S
C1466 H1452 0.929 . S
C1466 C1465 1.399 . S
C1466 C1467 1.385 . S
C1467 H1453 0.931 . S
C1467 C1466 1.385 . S
C1467 C1468 1.389 . S
C1468 C1467 1.389 . S
C1468 C1469 1.387 . S
C1469 H1454 0.930 . S
C1469 C1464 1.390 . S
C1469 C1468 1.387 . S
H1470 C1482 0.930 . S
H1471 C1484 0.930 . S
H1472 C1485 0.930 . S
H1473 C1489 0.959 . S
H1474 C1489 0.959 . S
H1475 C1489 0.961 1_565 S
H1476 C1490 0.960 1_565 S
H1477 C1490 0.961 . S
H1478 C1490 0.959 . S
H1479 C1493 0.929 . S
H1480 C1494 0.931 . S
H1481 C1496 0.930 . S
C1482 H1470 0.930 . S
C1482 C1483 1.399 . S
C1482 C1487 1.399 . S
C1483 C1482 1.399 . S
C1483 C1484 1.376 1_554 S
C1484 H1471 0.930 . S
C1484 C1483 1.376 1_556 S
C1484 C1485 1.388 . S
C1485 H1472 0.930 . S
C1485 C1484 1.388 . S
C1485 C1486 1.390 . S
C1486 C1485 1.390 . S
C1486 C1487 1.394 1_556 S
C1486 C1492 1.465 1_565 S
C1487 C1482 1.399 . S
C1487 C1486 1.394 1_554 S
C1487 C1488 1.516 1_565 S
C1488 C1487 1.516 1_545 S
C1488 C1489 1.502 . S
C1488 C1490 1.561 . S
C1488 C1491 1.526 . S
C1489 H1473 0.959 . S
C1489 H1474 0.959 . S
C1489 H1475 0.961 1_545 S
C1489 C1488 1.502 . S
C1490 H1476 0.960 1_545 S
C1490 H1477 0.961 . S
C1490 H1478 0.959 . S
C1490 C1488 1.561 . S
C1491 C1488 1.526 . S
C1491 C1492 1.396 1_554 S
C1491 C1496 1.390 . S
C1492 C1486 1.465 1_545 S
C1492 C1491 1.396 1_556 S
C1492 C1493 1.399 . S
C1493 H1479 0.929 . S
C1493 C1492 1.399 . S
C1493 C1494 1.385 . S
C1494 H1480 0.931 . S
C1494 C1493 1.385 . S
C1494 C1495 1.389 . S
C1495 C1494 1.389 . S
C1495 C1496 1.387 1_556 S
C1496 H1481 0.930 . S
C1496 C1491 1.390 . S
C1496 C1495 1.387 1_554 S
H1497 C1509 0.930 . S
H1498 C1511 0.930 . S
H1499 C1512 0.930 . S
H1500 C1516 0.959 . S
H1501 C1516 0.959 . S
H1502 C1516 0.961 . S
H1503 C1517 0.960 . S
H1504 C1517 0.961 . S
H1505 C1517 0.959 . S
H1506 C1520 0.929 . S
H1507 C1521 0.931 . S
H1508 C1523 0.930 . S
C1509 H1497 0.930 . S
C1509 C1510 1.399 . S
C1509 C1514 1.399 . S
C1510 C1509 1.399 . S
C1510 C1511 1.376 . S
C1511 H1498 0.930 . S
C1511 C1510 1.376 . S
C1511 C1512 1.388 . S
C1512 H1499 0.930 . S
C1512 C1511 1.388 . S
C1512 C1513 1.390 . S
C1513 C1512 1.390 . S
C1513 C1514 1.394 . S
C1513 C1519 1.465 . S
C1514 C1509 1.399 . S
C1514 C1513 1.394 . S
C1514 C1515 1.516 . S
C1515 C1514 1.516 . S
C1515 C1516 1.502 . S
C1515 C1517 1.561 . S
C1515 C1518 1.526 . S
C1516 H1500 0.959 . S
C1516 H1501 0.959 . S
C1516 H1502 0.961 . S
C1516 C1515 1.502 . S
C1517 H1503 0.960 . S
C1517 H1504 0.961 . S
C1517 H1505 0.959 . S
C1517 C1515 1.561 . S
C1518 C1515 1.526 . S
C1518 C1519 1.396 . S
C1518 C1523 1.390 . S
C1519 C1513 1.465 . S
C1519 C1518 1.396 . S
C1519 C1520 1.399 . S
C1520 H1506 0.929 . S
C1520 C1519 1.399 . S
C1520 C1521 1.385 . S
C1521 H1507 0.931 . S
C1521 C1520 1.385 . S
C1521 C1522 1.389 . S
C1522 C1521 1.389 . S
C1522 C1523 1.387 . S
C1523 H1508 0.930 . S
C1523 C1518 1.390 . S
C1523 C1522 1.387 . S
H1524 C1536 0.930 . S
H1525 C1538 0.930 . S
H1526 C1539 0.930 . S
H1527 C1543 0.954 1_565 S
H1528 C1543 0.959 . S
H1529 C1543 0.961 1_565 S
H1530 C1544 0.960 1_565 S
H1531 C1544 0.961 . S
H1532 C1544 0.959 . S
H1533 C1547 0.929 . S
H1534 C1548 0.931 . S
H1535 C1550 0.930 . S
C1536 H1524 0.930 . S
C1536 C1537 1.399 . S
C1536 C1541 1.399 . S
C1537 C1536 1.399 . S
C1537 C1538 1.376 . S
C1538 H1525 0.930 . S
C1538 C1537 1.376 . S
C1538 C1539 1.388 . S
C1539 H1526 0.930 . S
C1539 C1538 1.388 . S
C1539 C1540 1.390 . S
C1540 C1539 1.390 . S
C1540 C1541 1.394 . S
C1540 C1546 1.465 1_565 S
C1541 C1536 1.399 . S
C1541 C1540 1.394 . S
C1541 C1542 1.516 1_565 S
C1542 C1541 1.516 1_545 S
C1542 C1543 1.502 . S
C1542 C1544 1.561 . S
C1542 C1545 1.526 . S
C1543 H1527 0.954 1_545 S
C1543 H1528 0.959 . S
C1543 H1529 0.961 1_545 S
C1543 C1542 1.502 . S
C1544 H1530 0.960 1_545 S
C1544 H1531 0.961 . S
C1544 H1532 0.959 . S
C1544 C1542 1.561 . S
C1545 C1542 1.526 . S
C1545 C1546 1.396 . S
C1545 C1550 1.390 . S
C1546 C1540 1.465 1_545 S
C1546 C1545 1.396 . S
C1546 C1547 1.399 . S
C1547 H1533 0.929 . S
C1547 C1546 1.399 . S
C1547 C1548 1.385 . S
C1548 H1534 0.931 . S
C1548 C1547 1.385 . S
C1548 C1549 1.389 . S
C1549 C1548 1.389 . S
C1549 C1550 1.387 . S
C1550 H1535 0.930 . S
C1550 C1545 1.390 . S
C1550 C1549 1.387 . S
H1551 C1563 0.930 . S
H1552 C1565 0.930 . S
H1553 C1566 0.930 . S
H1554 C1570 0.959 . S
H1555 C1570 0.959 . S
H1556 C1570 0.961 . S
H1557 C1571 0.960 . S
H1558 C1571 0.961 . S
H1559 C1571 0.959 . S
H1560 C1574 0.929 . S
H1561 C1575 0.931 . S
H1562 C1577 0.930 . S
C1563 H1551 0.930 . S
C1563 C1564 1.399 . S
C1563 C1568 1.399 . S
C1564 C1563 1.399 . S
C1564 C1565 1.376 . S
C1565 H1552 0.930 . S
C1565 C1564 1.376 . S
C1565 C1566 1.388 . S
C1566 H1553 0.930 . S
C1566 C1565 1.388 . S
C1566 C1567 1.390 . S
C1567 C1566 1.390 . S
C1567 C1568 1.394 . S
C1567 C1573 1.465 . S
C1568 C1563 1.399 . S
C1568 C1567 1.394 . S
C1568 C1569 1.516 . S
C1569 C1568 1.516 . S
C1569 C1570 1.502 . S
C1569 C1571 1.561 . S
C1569 C1572 1.526 . S
C1570 H1554 0.959 . S
C1570 H1555 0.959 . S
C1570 H1556 0.961 . S
C1570 C1569 1.502 . S
C1571 H1557 0.960 . S
C1571 H1558 0.961 . S
C1571 H1559 0.959 . S
C1571 C1569 1.561 . S
C1572 C1569 1.526 . S
C1572 C1573 1.396 . S
C1572 C1577 1.390 . S
C1573 C1567 1.465 . S
C1573 C1572 1.396 . S
C1573 C1574 1.399 . S
C1574 H1560 0.929 . S
C1574 C1573 1.399 . S
C1574 C1575 1.385 . S
C1575 H1561 0.931 . S
C1575 C1574 1.385 . S
C1575 C1576 1.389 . S
C1576 C1575 1.389 . S
C1576 C1577 1.387 . S
C1577 H1562 0.930 . S
C1577 C1572 1.390 . S
C1577 C1576 1.387 . S
H1578 C1590 0.930 . S
H1579 C1592 0.930 . S
H1580 C1593 0.930 . S
H1581 C1597 0.959 . S
H1582 C1597 0.951 1_565 S
H1583 C1597 0.961 . S
H1584 C1598 0.960 . S
H1585 C1598 0.961 1_565 S
H1586 C1598 0.959 1_565 S
H1587 C1601 0.929 . S
H1588 C1602 0.931 . S
H1589 C1604 0.930 . S
C1590 H1578 0.930 . S
C1590 C1591 1.399 1_554 S
C1590 C1595 1.399 . S
C1591 C1590 1.399 1_556 S
C1591 C1592 1.376 . S
C1592 H1579 0.930 . S
C1592 C1591 1.376 . S
C1592 C1593 1.388 . S
C1593 H1580 0.930 . S
C1593 C1592 1.388 . S
C1593 C1594 1.390 . S
C1594 C1593 1.390 . S
C1594 C1595 1.394 1_556 S
C1594 C1600 1.465 1_545 S
C1595 C1590 1.399 . S
C1595 C1594 1.394 1_554 S
C1595 C1596 1.516 . S
C1596 C1595 1.516 . S
C1596 C1597 1.502 . S
C1596 C1598 1.561 . S
C1596 C1599 1.526 1_545 S
C1597 H1581 0.959 . S
C1597 H1582 0.951 1_545 S
C1597 H1583 0.961 . S
C1597 C1596 1.502 . S
C1598 H1584 0.960 . S
C1598 H1585 0.961 1_545 S
C1598 H1586 0.959 1_545 S
C1598 C1596 1.561 . S
C1599 C1596 1.526 1_565 S
C1599 C1600 1.396 1_554 S
C1599 C1604 1.390 . S
C1600 C1594 1.465 1_565 S
C1600 C1599 1.396 1_556 S
C1600 C1601 1.399 . S
C1601 H1587 0.929 . S
C1601 C1600 1.399 . S
C1601 C1602 1.385 . S
C1602 H1588 0.931 . S
C1602 C1601 1.385 . S
C1602 C1603 1.389 1_556 S
C1603 C1602 1.389 1_554 S
C1603 C1604 1.387 . S
C1604 H1589 0.930 . S
C1604 C1599 1.390 . S
C1604 C1603 1.387 . S
H1605 C1617 0.930 . S
H1606 C1619 0.930 . S
H1607 C1620 0.930 . S
H1608 C1624 0.959 . S
H1609 C1624 0.959 . S
H1610 C1624 0.961 . S
H1611 C1625 0.960 . S
H1612 C1625 0.961 . S
H1613 C1625 0.959 . S
H1614 C1628 0.929 . S
H1615 C1629 0.931 . S
H1616 C1631 0.930 . S
C1617 H1605 0.930 . S
C1617 C1618 1.399 . S
C1617 C1622 1.399 . S
C1618 C1617 1.399 . S
C1618 C1619 1.376 . S
C1619 H1606 0.930 . S
C1619 C1618 1.376 . S
C1619 C1620 1.388 . S
C1620 H1607 0.930 . S
C1620 C1619 1.388 . S
C1620 C1621 1.390 . S
C1621 C1620 1.390 . S
C1621 C1622 1.394 . S
C1621 C1627 1.465 . S
C1622 C1617 1.399 . S
C1622 C1621 1.394 . S
C1622 C1623 1.516 . S
C1623 C1622 1.516 . S
C1623 C1624 1.502 . S
C1623 C1625 1.561 . S
C1623 C1626 1.526 . S
C1624 H1608 0.959 . S
C1624 H1609 0.959 . S
C1624 H1610 0.961 . S
C1624 C1623 1.502 . S
C1625 H1611 0.960 . S
C1625 H1612 0.961 . S
C1625 H1613 0.959 . S
C1625 C1623 1.561 . S
C1626 C1623 1.526 . S
C1626 C1627 1.396 . S
C1626 C1631 1.390 . S
C1627 C1621 1.465 . S
C1627 C1626 1.396 . S
C1627 C1628 1.399 . S
C1628 H1614 0.929 . S
C1628 C1627 1.399 . S
C1628 C1629 1.385 . S
C1629 H1615 0.931 . S
C1629 C1628 1.385 . S
C1629 C1630 1.389 . S
C1630 C1629 1.389 . S
C1630 C1631 1.387 . S
C1631 H1616 0.930 . S
C1631 C1626 1.390 . S
C1631 C1630 1.387 . S
C349 C20 1.292 . S
C361 C16 1.321 . S
C376 C41 1.262 . S
C388 C37 1.372 . S
C403 C45 1.301 . S
C415 C61 1.362 . S
C430 C66 1.266 . S
C442 C82 1.371 . S
C457 C87 1.298 . S
C469 C103 1.311 . S
C484 C108 1.309 . S
C496 C124 1.355 . S
C511 C145 1.345 . S
C523 C129 1.322 . S
C538 C167 1.262 . S
C550 C163 1.373 . S
C565 C171 1.270 . S
C577 C187 1.361 . S
C592 C192 1.375 . S
C604 C208 1.284 . S
C619 C229 1.295 . S
C631 C213 1.287 . S
C646 C251 1.344 . S
C658 C247 1.353 . S
C673 C268 1.272 . S
C685 C272 1.363 . S
C700 C289 1.299 . S
C712 C293 1.286 . S
C727 C297 1.271 . S
C739 C313 1.361 . S
C754 C318 1.333 . S
C766 C334 1.360 . S
C781 C3 1.382 . S
C793 C238 1.359 . S
C808 C24 1.300 . S
C820 C319 1.304 . S
C835 C46 1.299 . S
C847 C193 1.279 . S
C862 C67 1.204 . S
C874 C280 1.218 . S
C889 C88 1.383 . S
C901 C276 1.385 . S
C916 C234 1.327 . S
C928 C121 1.350 . S
C943 C142 1.415 . S
C955 C331 1.403 . S
C970 C150 1.294 . S
C982 C205 1.283 . S
C997 C79 1.274 . S
C1009 C172 1.266 . S
C1024 C28 1.358 . S
C1036 C214 1.345 . S
C1051 C259 1.314 . S
C1063 C109 1.294 . S
C1078 C154 1.361 . S
C1090 C298 1.365 . S
C1105 C184 1.280 . S
C1117 C100 1.283 . S
C1132 C130 1.282 . S
C1144 C226 1.282 . S
C1159 C58 1.307 . S
C1171 C310 1.291 . S
C1186 C7 1.231 . S
C1198 C255 1.263 . S
C1213 C19 1.333 . S
C1225 C91 1.283 . S
C1240 C40 1.393 . S
C1252 C125 1.315 . S
C1267 C49 1.338 . S
C1279 C146 1.286 . S
C1294 C70 1.416 . S
C1306 C166 1.359 . S
C1321 C256 1.298 . S
C1333 C175 1.401 . S
C1348 C277 1.369 . S
C1360 C209 1.303 . S
C1375 C217 1.285 . S
C1387 C301 1.378 . S
C1402 C322 1.315 . S
C1414 C250 1.395 . S
C1429 C25 1.358 . S
C1441 C151 1.296 . S
C1456 C104 1.284 . S
C1468 C62 1.313 . S
C1483 C112 1.354 . S
C1495 C83 1.282 . S
C1510 C4 1.420 . S
C1522 C133 1.356 . S
C1537 C335 1.373 . S
C1549 C196 1.354 . S
C1564 C271 1.354 . S
C1576 C230 1.386 . S
C1591 C292 1.312 . S
C1603 C235 1.402 . S
C1618 C314 1.336 . S
C1630 C188 1.402 . S
