# Generated by pormake.
# Topology unx, (4)-cn, num edge types: 1
# Building blocks:
#     Node 0, Type 0, BuildingBlock: QUQFOY_clean_sbu_1, # of connection points: 4
#     Node 1, Type 0, BuildingBlock: QUQFOY_clean_sbu_1, # of connection points: 4
#     Node 2, Type 0, BuildingBlock: QUQFOY_clean_sbu_1, # of connection points: 4
#     Node 3, Type 0, BuildingBlock: QUQFOY_clean_sbu_1, # of connection points: 4
#     Node 4, Type 0, BuildingBlock: QUQFOY_clean_sbu_1, # of connection points: 4
#     Node 5, Type 0, BuildingBlock: QUQFOY_clean_sbu_1, # of connection points: 4
#     Node 6, Type 0, BuildingBlock: QUQFOY_clean_sbu_1, # of connection points: 4
#     Node 7, Type 0, BuildingBlock: QUQFOY_clean_sbu_1, # of connection points: 4
#     Node 8, Type 0, BuildingBlock: QUQFOY_clean_sbu_1, # of connection points: 4
#     Node 9, Type 0, BuildingBlock: QUQFOY_clean_sbu_1, # of connection points: 4
#     Node 10, Type 0, BuildingBlock: QUQFOY_clean_sbu_1, # of connection points: 4
#     Node 11, Type 0, BuildingBlock: QUQFOY_clean_sbu_1, # of connection points: 4
#     Node 12, Type 0, BuildingBlock: QUQFOY_clean_sbu_1, # of connection points: 4
#     Node 13, Type 0, BuildingBlock: QUQFOY_clean_sbu_1, # of connection points: 4
#     Node 14, Type 0, BuildingBlock: QUQFOY_clean_sbu_1, # of connection points: 4
#     Node 15, Type 0, BuildingBlock: QUQFOY_clean_sbu_1, # of connection points: 4
#     Node 16, Type 0, BuildingBlock: QUQFOY_clean_sbu_1, # of connection points: 4
#     Node 17, Type 0, BuildingBlock: QUQFOY_clean_sbu_1, # of connection points: 4
#     Node 18, Type 0, BuildingBlock: QUQFOY_clean_sbu_1, # of connection points: 4
#     Node 19, Type 0, BuildingBlock: QUQFOY_clean_sbu_1, # of connection points: 4
#     Node 20, Type 0, BuildingBlock: QUQFOY_clean_sbu_1, # of connection points: 4
#     Node 21, Type 0, BuildingBlock: QUQFOY_clean_sbu_1, # of connection points: 4
#     Node 22, Type 0, BuildingBlock: QUQFOY_clean_sbu_1, # of connection points: 4
#     Node 23, Type 0, BuildingBlock: QUQFOY_clean_sbu_1, # of connection points: 4
#     Node 24, Type 0, BuildingBlock: QUQFOY_clean_sbu_1, # of connection points: 4
#     Node 25, Type 0, BuildingBlock: QUQFOY_clean_sbu_1, # of connection points: 4
#     Node 26, Type 0, BuildingBlock: QUQFOY_clean_sbu_1, # of connection points: 4
#     Node 27, Type 0, BuildingBlock: QUQFOY_clean_sbu_1, # of connection points: 4
#     Node 28, Type 0, BuildingBlock: QUQFOY_clean_sbu_1, # of connection points: 4
#     Node 29, Type 0, BuildingBlock: QUQFOY_clean_sbu_1, # of connection points: 4
#     Node 30, Type 0, BuildingBlock: QUQFOY_clean_sbu_1, # of connection points: 4
#     Node 31, Type 0, BuildingBlock: QUQFOY_clean_sbu_1, # of connection points: 4
#     Node 32, Type 0, BuildingBlock: QUQFOY_clean_sbu_1, # of connection points: 4
#     Node 33, Type 0, BuildingBlock: QUQFOY_clean_sbu_1, # of connection points: 4
#     Node 34, Type 0, BuildingBlock: QUQFOY_clean_sbu_1, # of connection points: 4
#     Node 35, Type 0, BuildingBlock: QUQFOY_clean_sbu_1, # of connection points: 4
#     Node 36, Type 0, BuildingBlock: QUQFOY_clean_sbu_1, # of connection points: 4
#     Node 37, Type 0, BuildingBlock: QUQFOY_clean_sbu_1, # of connection points: 4
#     Node 38, Type 0, BuildingBlock: QUQFOY_clean_sbu_1, # of connection points: 4
#     Node 39, Type 0, BuildingBlock: QUQFOY_clean_sbu_1, # of connection points: 4
#     Node 40, Type 0, BuildingBlock: QUQFOY_clean_sbu_1, # of connection points: 4
#     Node 41, Type 0, BuildingBlock: QUQFOY_clean_sbu_1, # of connection points: 4
#     Node 42, Type 0, BuildingBlock: QUQFOY_clean_sbu_1, # of connection points: 4
#     Node 43, Type 0, BuildingBlock: QUQFOY_clean_sbu_1, # of connection points: 4
#     Node 44, Type 0, BuildingBlock: QUQFOY_clean_sbu_1, # of connection points: 4
#     Node 45, Type 0, BuildingBlock: QUQFOY_clean_sbu_1, # of connection points: 4
#     Node 46, Type 0, BuildingBlock: QUQFOY_clean_sbu_1, # of connection points: 4
#     Node 47, Type 0, BuildingBlock: QUQFOY_clean_sbu_1, # of connection points: 4
#     Edge 48, Type (0, 0), BuildingBlock: AJUNOK_clean_linker_0, # of connection points: 2
#     Edge 49, Type (0, 0), BuildingBlock: AJUNOK_clean_linker_0, # of connection points: 2
#     Edge 50, Type (0, 0), BuildingBlock: AJUNOK_clean_linker_0, # of connection points: 2
#     Edge 51, Type (0, 0), BuildingBlock: AJUNOK_clean_linker_0, # of connection points: 2
#     Edge 52, Type (0, 0), BuildingBlock: AJUNOK_clean_linker_0, # of connection points: 2
#     Edge 53, Type (0, 0), BuildingBlock: AJUNOK_clean_linker_0, # of connection points: 2
#     Edge 54, Type (0, 0), BuildingBlock: AJUNOK_clean_linker_0, # of connection points: 2
#     Edge 55, Type (0, 0), BuildingBlock: AJUNOK_clean_linker_0, # of connection points: 2
#     Edge 56, Type (0, 0), BuildingBlock: AJUNOK_clean_linker_0, # of connection points: 2
#     Edge 57, Type (0, 0), BuildingBlock: AJUNOK_clean_linker_0, # of connection points: 2
#     Edge 58, Type (0, 0), BuildingBlock: AJUNOK_clean_linker_0, # of connection points: 2
#     Edge 59, Type (0, 0), BuildingBlock: AJUNOK_clean_linker_0, # of connection points: 2
#     Edge 60, Type (0, 0), BuildingBlock: AJUNOK_clean_linker_0, # of connection points: 2
#     Edge 61, Type (0, 0), BuildingBlock: AJUNOK_clean_linker_0, # of connection points: 2
#     Edge 62, Type (0, 0), BuildingBlock: AJUNOK_clean_linker_0, # of connection points: 2
#     Edge 63, Type (0, 0), BuildingBlock: AJUNOK_clean_linker_0, # of connection points: 2
#     Edge 64, Type (0, 0), BuildingBlock: AJUNOK_clean_linker_0, # of connection points: 2
#     Edge 65, Type (0, 0), BuildingBlock: AJUNOK_clean_linker_0, # of connection points: 2
#     Edge 66, Type (0, 0), BuildingBlock: AJUNOK_clean_linker_0, # of connection points: 2
#     Edge 67, Type (0, 0), BuildingBlock: AJUNOK_clean_linker_0, # of connection points: 2
#     Edge 68, Type (0, 0), BuildingBlock: AJUNOK_clean_linker_0, # of connection points: 2
#     Edge 69, Type (0, 0), BuildingBlock: AJUNOK_clean_linker_0, # of connection points: 2
#     Edge 70, Type (0, 0), BuildingBlock: AJUNOK_clean_linker_0, # of connection points: 2
#     Edge 71, Type (0, 0), BuildingBlock: AJUNOK_clean_linker_0, # of connection points: 2
#     Edge 72, Type (0, 0), BuildingBlock: AJUNOK_clean_linker_0, # of connection points: 2
#     Edge 73, Type (0, 0), BuildingBlock: AJUNOK_clean_linker_0, # of connection points: 2
#     Edge 74, Type (0, 0), BuildingBlock: AJUNOK_clean_linker_0, # of connection points: 2
#     Edge 75, Type (0, 0), BuildingBlock: AJUNOK_clean_linker_0, # of connection points: 2
#     Edge 76, Type (0, 0), BuildingBlock: AJUNOK_clean_linker_0, # of connection points: 2
#     Edge 77, Type (0, 0), BuildingBlock: AJUNOK_clean_linker_0, # of connection points: 2
#     Edge 78, Type (0, 0), BuildingBlock: AJUNOK_clean_linker_0, # of connection points: 2
#     Edge 79, Type (0, 0), BuildingBlock: AJUNOK_clean_linker_0, # of connection points: 2
#     Edge 80, Type (0, 0), BuildingBlock: AJUNOK_clean_linker_0, # of connection points: 2
#     Edge 81, Type (0, 0), BuildingBlock: AJUNOK_clean_linker_0, # of connection points: 2
#     Edge 82, Type (0, 0), BuildingBlock: AJUNOK_clean_linker_0, # of connection points: 2
#     Edge 83, Type (0, 0), BuildingBlock: AJUNOK_clean_linker_0, # of connection points: 2
#     Edge 84, Type (0, 0), BuildingBlock: AJUNOK_clean_linker_0, # of connection points: 2
#     Edge 85, Type (0, 0), BuildingBlock: AJUNOK_clean_linker_0, # of connection points: 2
#     Edge 86, Type (0, 0), BuildingBlock: AJUNOK_clean_linker_0, # of connection points: 2
#     Edge 87, Type (0, 0), BuildingBlock: AJUNOK_clean_linker_0, # of connection points: 2
#     Edge 88, Type (0, 0), BuildingBlock: AJUNOK_clean_linker_0, # of connection points: 2
#     Edge 89, Type (0, 0), BuildingBlock: AJUNOK_clean_linker_0, # of connection points: 2
#     Edge 90, Type (0, 0), BuildingBlock: AJUNOK_clean_linker_0, # of connection points: 2
#     Edge 91, Type (0, 0), BuildingBlock: AJUNOK_clean_linker_0, # of connection points: 2
#     Edge 92, Type (0, 0), BuildingBlock: AJUNOK_clean_linker_0, # of connection points: 2
#     Edge 93, Type (0, 0), BuildingBlock: AJUNOK_clean_linker_0, # of connection points: 2
#     Edge 94, Type (0, 0), BuildingBlock: AJUNOK_clean_linker_0, # of connection points: 2
#     Edge 95, Type (0, 0), BuildingBlock: AJUNOK_clean_linker_0, # of connection points: 2
#     Edge 96, Type (0, 0), BuildingBlock: AJUNOK_clean_linker_0, # of connection points: 2
#     Edge 97, Type (0, 0), BuildingBlock: AJUNOK_clean_linker_0, # of connection points: 2
#     Edge 98, Type (0, 0), BuildingBlock: AJUNOK_clean_linker_0, # of connection points: 2
#     Edge 99, Type (0, 0), BuildingBlock: AJUNOK_clean_linker_0, # of connection points: 2
#     Edge 100, Type (0, 0), BuildingBlock: AJUNOK_clean_linker_0, # of connection points: 2
#     Edge 101, Type (0, 0), BuildingBlock: AJUNOK_clean_linker_0, # of connection points: 2
#     Edge 102, Type (0, 0), BuildingBlock: AJUNOK_clean_linker_0, # of connection points: 2
#     Edge 103, Type (0, 0), BuildingBlock: AJUNOK_clean_linker_0, # of connection points: 2
#     Edge 104, Type (0, 0), BuildingBlock: AJUNOK_clean_linker_0, # of connection points: 2
#     Edge 105, Type (0, 0), BuildingBlock: AJUNOK_clean_linker_0, # of connection points: 2
#     Edge 106, Type (0, 0), BuildingBlock: AJUNOK_clean_linker_0, # of connection points: 2
#     Edge 107, Type (0, 0), BuildingBlock: AJUNOK_clean_linker_0, # of connection points: 2
#     Edge 108, Type (0, 0), BuildingBlock: AJUNOK_clean_linker_0, # of connection points: 2
#     Edge 109, Type (0, 0), BuildingBlock: AJUNOK_clean_linker_0, # of connection points: 2
#     Edge 110, Type (0, 0), BuildingBlock: AJUNOK_clean_linker_0, # of connection points: 2
#     Edge 111, Type (0, 0), BuildingBlock: AJUNOK_clean_linker_0, # of connection points: 2
#     Edge 112, Type (0, 0), BuildingBlock: AJUNOK_clean_linker_0, # of connection points: 2
#     Edge 113, Type (0, 0), BuildingBlock: AJUNOK_clean_linker_0, # of connection points: 2
#     Edge 114, Type (0, 0), BuildingBlock: AJUNOK_clean_linker_0, # of connection points: 2
#     Edge 115, Type (0, 0), BuildingBlock: AJUNOK_clean_linker_0, # of connection points: 2
#     Edge 116, Type (0, 0), BuildingBlock: AJUNOK_clean_linker_0, # of connection points: 2
#     Edge 117, Type (0, 0), BuildingBlock: AJUNOK_clean_linker_0, # of connection points: 2
#     Edge 118, Type (0, 0), BuildingBlock: AJUNOK_clean_linker_0, # of connection points: 2
#     Edge 119, Type (0, 0), BuildingBlock: AJUNOK_clean_linker_0, # of connection points: 2
#     Edge 120, Type (0, 0), BuildingBlock: AJUNOK_clean_linker_0, # of connection points: 2
#     Edge 121, Type (0, 0), BuildingBlock: AJUNOK_clean_linker_0, # of connection points: 2
#     Edge 122, Type (0, 0), BuildingBlock: AJUNOK_clean_linker_0, # of connection points: 2
#     Edge 123, Type (0, 0), BuildingBlock: AJUNOK_clean_linker_0, # of connection points: 2
#     Edge 124, Type (0, 0), BuildingBlock: AJUNOK_clean_linker_0, # of connection points: 2
#     Edge 125, Type (0, 0), BuildingBlock: AJUNOK_clean_linker_0, # of connection points: 2
#     Edge 126, Type (0, 0), BuildingBlock: AJUNOK_clean_linker_0, # of connection points: 2
#     Edge 127, Type (0, 0), BuildingBlock: AJUNOK_clean_linker_0, # of connection points: 2
#     Edge 128, Type (0, 0), BuildingBlock: AJUNOK_clean_linker_0, # of connection points: 2
#     Edge 129, Type (0, 0), BuildingBlock: AJUNOK_clean_linker_0, # of connection points: 2
#     Edge 130, Type (0, 0), BuildingBlock: AJUNOK_clean_linker_0, # of connection points: 2
#     Edge 131, Type (0, 0), BuildingBlock: AJUNOK_clean_linker_0, # of connection points: 2
#     Edge 132, Type (0, 0), BuildingBlock: AJUNOK_clean_linker_0, # of connection points: 2
#     Edge 133, Type (0, 0), BuildingBlock: AJUNOK_clean_linker_0, # of connection points: 2
#     Edge 134, Type (0, 0), BuildingBlock: AJUNOK_clean_linker_0, # of connection points: 2
#     Edge 135, Type (0, 0), BuildingBlock: AJUNOK_clean_linker_0, # of connection points: 2
#     Edge 136, Type (0, 0), BuildingBlock: AJUNOK_clean_linker_0, # of connection points: 2
#     Edge 137, Type (0, 0), BuildingBlock: AJUNOK_clean_linker_0, # of connection points: 2
#     Edge 138, Type (0, 0), BuildingBlock: AJUNOK_clean_linker_0, # of connection points: 2
#     Edge 139, Type (0, 0), BuildingBlock: AJUNOK_clean_linker_0, # of connection points: 2
#     Edge 140, Type (0, 0), BuildingBlock: AJUNOK_clean_linker_0, # of connection points: 2
#     Edge 141, Type (0, 0), BuildingBlock: AJUNOK_clean_linker_0, # of connection points: 2
#     Edge 142, Type (0, 0), BuildingBlock: AJUNOK_clean_linker_0, # of connection points: 2
#     Edge 143, Type (0, 0), BuildingBlock: AJUNOK_clean_linker_0, # of connection points: 2
# Relax obj value: 0.319
# Max RMSD: 0.122
# Mean RMSD: 0.122
data_MOF--net-unx--node1-QUQFOY_clean_sbu_1--edge1-AJUNOK_clean_linker_0
_symmetry_space_group_name_H-M    P1
_symmetry_Int_Tables_number       1
_symmetry_cell_setting            triclinic
loop_
_symmetry_equiv_pos_as_xyz
'x, y, z'
_cell_length_a     46.671903
_cell_length_b     46.672891
_cell_length_c     46.602951
_cell_angle_alpha  89.98413
_cell_angle_beta   90.019422
_cell_angle_gamma 89.888664
loop_
_atom_site_label
_atom_site_type_symbol
_atom_site_fract_x
_atom_site_fract_y
_atom_site_fract_z
_atom_type_partial_charge
O0 O 0.15388 0.56929 0.18947 0.0
Cd1 Cd 0.13833 0.55949 0.2286 0.0
Cd2 Cd 0.11396 0.5269 0.19275 0.0
O3 O 0.15375 0.52557 0.1723 0.0
O4 O 0.16826 0.579 0.25175 0.0
O5 O 0.16556 0.53183 0.2471 0.0
C6 C 0.18055 0.55421 0.25383 0.0
C7 C 0.07362 0.49955 0.19779 0.0
C8 C 0.16327 0.55114 0.17161 0.0
C9 C 0.08414 0.57789 0.2097 0.0
O10 O 0.09489 0.56555 0.18803 0.0
O11 O 0.0965 0.57521 0.23403 0.0
O12 O 0.08457 0.50394 0.17269 0.0
O13 O 0.08937 0.50483 0.22007 0.0
O14 O 0.68633 0.34536 0.43196 0.0
Cd15 Cd 0.72705 0.35759 0.43937 0.0
Cd16 Cd 0.6948 0.38819 0.472 0.0
O17 O 0.6749 0.34859 0.47729 0.0
O18 O 0.74579 0.32606 0.41797 0.0
O19 O 0.74552 0.32827 0.46534 0.0
C20 C 0.74946 0.31333 0.44228 0.0
C21 C 0.69939 0.42796 0.49972 0.0
C22 C 0.6722 0.33615 0.45315 0.0
C23 C 0.71402 0.41197 0.41737 0.0
O24 O 0.69205 0.40633 0.43232 0.0
O25 O 0.73641 0.39648 0.41996 0.0
O26 O 0.67434 0.41769 0.49413 0.0
O27 O 0.72171 0.41218 0.4948 0.0
O28 O 0.83733 0.95158 0.69323 0.0
Cd29 Cd 0.84681 0.9469 0.73522 0.0
Cd30 Cd 0.89357 0.97998 0.706 0.0
O31 O 0.85938 0.99117 0.67992 0.0
O32 O 0.813 0.92249 0.74428 0.0
O33 O 0.81604 0.96725 0.75876 0.0
C34 C 0.80075 0.94452 0.75533 0.0
C35 C 0.94009 0.99733 0.70162 0.0
C36 C 0.84007 0.97234 0.67602 0.0
C37 C 0.89996 0.91718 0.72364 0.0
O38 O 0.90336 0.93771 0.70633 0.0
O39 O 0.8799 0.91778 0.74217 0.0
O40 O 0.9259 0.98845 0.6798 0.0
O41 O 0.92598 0.00184 0.72502 0.0
O42 O 0.31506 0.16394 0.95192 0.0
Cd43 Cd 0.27505 0.1485 0.94573 0.0
Cd44 Cd 0.3056 0.11177 0.98005 0.0
O45 O 0.32827 0.14718 0.99397 0.0
O46 O 0.26368 0.18062 0.92024 0.0
O47 O 0.24725 0.17614 0.96443 0.0
C48 C 0.25155 0.19219 0.94222 0.0
C49 C 0.29491 0.06702 0.99915 0.0
C50 C 0.33108 0.16535 0.97375 0.0
C51 C 0.29744 0.09681 0.92089 0.0
O52 O 0.31636 0.10293 0.93923 0.0
O53 O 0.27379 0.11065 0.92098 0.0
O54 O 0.32099 0.07595 0.99763 0.0
O55 O 0.27455 0.08512 0.99401 0.0
O56 O 0.09218 0.4423 0.80956 0.0
Cd57 Cd 0.10265 0.48408 0.80506 0.0
Cd58 Cd 0.14159 0.45225 0.77361 0.0
O59 O 0.10543 0.4277 0.76667 0.0
O60 O 0.06896 0.50069 0.82502 0.0
O61 O 0.07422 0.50153 0.77776 0.0
C62 C 0.05782 0.50428 0.79996 0.0
C63 C 0.18647 0.45015 0.75212 0.0
C64 C 0.08987 0.42483 0.78894 0.0
C65 C 0.15648 0.47461 0.83077 0.0
O66 O 0.15367 0.45273 0.81506 0.0
O67 O 0.13919 0.49558 0.82807 0.0
O68 O 0.17385 0.4273 0.76091 0.0
O69 O 0.17137 0.47333 0.75043 0.0
O70 O 0.81347 0.40375 0.06156 0.0
Cd71 Cd 0.80515 0.39521 0.02011 0.0
Cd72 Cd 0.77159 0.36125 0.05328 0.0
O73 O 0.76999 0.39895 0.07825 0.0
O74 O 0.82714 0.42867 0.00546 0.0
O75 O 0.78001 0.42664 0.00321 0.0
C76 C 0.8031 0.44183 0.00206 0.0
C77 C 0.74617 0.3191 0.052 0.0
C78 C 0.79457 0.41084 0.07955 0.0
C79 C 0.82911 0.34169 0.03062 0.0
O80 O 0.81141 0.34437 0.05104 0.0
O81 O 0.82776 0.35859 0.00916 0.0
O82 O 0.75465 0.32961 0.07612 0.0
O83 O 0.74661 0.33552 0.02963 0.0
O84 O 0.91028 0.06286 0.30719 0.0
Cd85 Cd 0.8983 0.02137 0.3099 0.0
Cd86 Cd 0.85999 0.04938 0.27489 0.0
O87 O 0.89578 0.07339 0.26355 0.0
O88 O 0.93141 0.0097 0.33408 0.0
O89 O 0.92706 0.99674 0.28871 0.0
C90 C 0.94313 0.99961 0.31115 0.0
C91 C 0.81587 0.04217 0.25257 0.0
C92 C 0.91234 0.07802 0.28481 0.0
C93 C 0.84394 0.0369 0.33349 0.0
O94 O 0.84798 0.05698 0.31572 0.0
O95 O 0.86038 0.01501 0.33309 0.0
O96 O 0.82646 0.06746 0.25552 0.0
O97 O 0.83226 0.02052 0.25807 0.0
O98 O 0.19767 0.09543 0.56302 0.0
Cd99 Cd 0.19721 0.10901 0.52179 0.0
Cd100 Cd 0.23011 0.1459 0.55717 0.0
O101 O 0.23847 0.11 0.58161 0.0
O102 O 0.1727 0.07704 0.50778 0.0
O103 O 0.21873 0.08029 0.49758 0.0
C104 C 0.19581 0.06481 0.49881 0.0
C105 C 0.25093 0.19145 0.55735 0.0
C106 C 0.21672 0.0936 0.58227 0.0
C107 C 0.17284 0.16268 0.53868 0.0
O108 O 0.18825 0.15621 0.56 0.0
O109 O 0.1747 0.14778 0.51577 0.0
O110 O 0.24354 0.17888 0.58078 0.0
O111 O 0.25138 0.17608 0.5343 0.0
O112 O 0.18917 0.83889 0.45133 0.0
Cd113 Cd 0.2314 0.84866 0.45096 0.0
Cd114 Cd 0.19963 0.89317 0.48111 0.0
O115 O 0.17351 0.85881 0.49127 0.0
O116 O 0.24378 0.81447 0.42852 0.0
O117 O 0.25233 0.81898 0.47487 0.0
C118 C 0.25145 0.80287 0.45236 0.0
C119 C 0.19857 0.9397 0.49976 0.0
C120 C 0.17115 0.84003 0.47159 0.0
C121 C 0.22149 0.90147 0.42148 0.0
O122 O 0.20055 0.90164 0.4387 0.0
O123 O 0.24169 0.88332 0.42457 0.0
O124 O 0.17559 0.92721 0.49119 0.0
O125 O 0.22136 0.92418 0.50234 0.0
O126 O 0.34422 0.45038 0.69104 0.0
Cd127 Cd 0.35656 0.44706 0.73249 0.0
Cd128 Cd 0.39875 0.48094 0.69978 0.0
O129 O 0.36337 0.49001 0.6738 0.0
O130 O 0.32303 0.42294 0.74325 0.0
O131 O 0.32754 0.46767 0.75744 0.0
C132 C 0.31135 0.44552 0.75394 0.0
C133 C 0.44518 0.50065 0.69988 0.0
C134 C 0.3444 0.47036 0.67271 0.0
C135 C 0.4091 0.41925 0.71768 0.0
O136 O 0.40872 0.43873 0.69878 0.0
O137 O 0.39177 0.42027 0.73878 0.0
O138 O 0.43301 0.49216 0.67663 0.0
O139 O 0.42917 0.50315 0.72234 0.0
O140 O 0.81099 0.65739 0.93944 0.0
Cd141 Cd 0.77124 0.64416 0.94971 0.0
Cd142 Cd 0.80521 0.60914 0.97821 0.0
O143 O 0.82945 0.64691 0.98149 0.0
O144 O 0.74921 0.67858 0.93707 0.0
O145 O 0.75701 0.66803 0.98278 0.0
C146 C 0.74902 0.68647 0.96363 0.0
C147 C 0.80209 0.56652 0.00351 0.0
C148 C 0.82965 0.66196 0.95856 0.0
C149 C 0.78209 0.59066 0.92305 0.0
O150 O 0.80454 0.59397 0.93785 0.0
O151 O 0.76063 0.6072 0.92695 0.0
O152 O 0.8266 0.57695 0.99618 0.0
O153 O 0.77979 0.58288 0.0013 0.0
O154 O 0.65325 0.06774 0.19429 0.0
Cd155 Cd 0.64532 0.05588 0.23495 0.0
Cd156 Cd 0.60848 0.02735 0.1993 0.0
O157 O 0.64515 0.02672 0.17333 0.0
O158 O 0.68112 0.07324 0.25053 0.0
O159 O 0.67441 0.02648 0.24927 0.0
C160 C 0.69174 0.04781 0.25232 0.0
C161 C 0.56633 0.00152 0.19628 0.0
C162 C 0.65808 0.05074 0.17386 0.0
C163 C 0.59224 0.08336 0.22895 0.0
O164 O 0.59259 0.06725 0.20707 0.0
O165 O 0.61068 0.07991 0.24889 0.0
O166 O 0.57658 0.01438 0.17412 0.0
O167 O 0.58264 0.99878 0.21854 0.0
O168 O 0.56474 0.18804 0.08909 0.0
Cd169 Cd 0.52516 0.19014 0.10671 0.0
Cd170 Cd 0.55788 0.2239 0.13618 0.0
O171 O 0.57501 0.23344 0.09608 0.0
O172 O 0.50277 0.17086 0.07585 0.0
O173 O 0.5038 0.21805 0.08176 0.0
C174 C 0.49829 0.19621 0.06551 0.0
C175 C 0.55372 0.24518 0.18075 0.0
C176 C 0.57779 0.21055 0.08134 0.0
C177 C 0.54762 0.16886 0.15889 0.0
O178 O 0.56761 0.18339 0.14789 0.0
O179 O 0.52261 0.17094 0.14789 0.0
O180 O 0.57823 0.2433 0.16801 0.0
O181 O 0.5309 0.24086 0.16555 0.0
O182 O 0.0624 0.81661 0.40072 0.0
Cd183 Cd 0.02055 0.80838 0.39302 0.0
Cd184 Cd 0.05283 0.775 0.35914 0.0
O185 O 0.07536 0.77173 0.39783 0.0
O186 O 0.00538 0.82981 0.42649 0.0
O187 O 0.00463 0.7825 0.42399 0.0
C188 C 0.00274 0.80549 0.43938 0.0
C189 C 0.05314 0.74865 0.31739 0.0
C190 C 0.07821 0.79633 0.40932 0.0
C191 C 0.02767 0.82901 0.33738 0.0
O192 O 0.05045 0.81493 0.342 0.0
O193 O 0.00676 0.82691 0.35485 0.0
O194 O 0.07674 0.75795 0.32834 0.0
O195 O 0.03039 0.74906 0.33324 0.0
O196 O 0.43309 0.31039 0.60179 0.0
Cd197 Cd 0.47324 0.29962 0.61284 0.0
Cd198 Cd 0.43827 0.26943 0.64455 0.0
O199 O 0.41467 0.26756 0.60591 0.0
O200 O 0.49266 0.31781 0.57913 0.0
O201 O 0.4899 0.27085 0.58482 0.0
C202 C 0.49541 0.29247 0.56838 0.0
C203 C 0.44509 0.24479 0.68686 0.0
C204 C 0.41444 0.29235 0.59426 0.0
C205 C 0.46021 0.32306 0.66694 0.0
O206 O 0.43761 0.30935 0.66094 0.0
O207 O 0.48276 0.31944 0.65178 0.0
O208 O 0.41953 0.24942 0.67718 0.0
O209 O 0.46643 0.24828 0.66943 0.0
O210 O 0.94741 0.68958 0.83713 0.0
Cd211 Cd 0.94962 0.73047 0.85147 0.0
Cd212 Cd 0.9801 0.69585 0.88885 0.0
O213 O 0.98883 0.67265 0.85202 0.0
O214 O 0.9276 0.7479 0.81948 0.0
O215 O 0.97451 0.75264 0.82403 0.0
C216 C 0.95188 0.75455 0.80813 0.0
C217 C 0.99937 0.69316 0.935 0.0
C218 C 0.96751 0.67149 0.83495 0.0
C219 C 0.92276 0.71505 0.90391 0.0
O220 O 0.93827 0.69342 0.89895 0.0
O221 O 0.92611 0.73775 0.88905 0.0
O222 O 0.99238 0.67056 0.92087 0.0
O223 O 0.00086 0.7169 0.92081 0.0
O224 O 0.05746 0.68485 0.09679 0.0
Cd225 Cd 0.01566 0.69109 0.10637 0.0
Cd226 Cd 0.04985 0.722 0.14783 0.0
O227 O 0.07641 0.72524 0.11209 0.0
O228 O 0.00085 0.66894 0.0731 0.0
O229 O 0.9972 0.7159 0.07555 0.0
C230 C 0.99553 0.69281 0.06037 0.0
C231 C 0.05448 0.74439 0.19245 0.0
C232 C 0.07715 0.70338 0.09568 0.0
C233 C 0.02171 0.66502 0.16129 0.0
O234 O 0.04323 0.68144 0.16147 0.0
O235 O 0.00265 0.66747 0.14186 0.0
O236 O 0.07567 0.73134 0.18058 0.0
O237 O 0.03231 0.74948 0.17663 0.0
O238 O 0.43429 0.82066 0.09787 0.0
Cd239 Cd 0.4731 0.81435 0.11628 0.0
Cd240 Cd 0.44222 0.78025 0.14154 0.0
O241 O 0.4238 0.77498 0.10109 0.0
O242 O 0.49907 0.8279 0.08535 0.0
O243 O 0.49195 0.78193 0.09527 0.0
C244 C 0.50098 0.80133 0.07754 0.0
C245 C 0.45743 0.75527 0.18092 0.0
C246 C 0.42018 0.79925 0.08897 0.0
C247 C 0.4506 0.83282 0.16982 0.0
O248 O 0.43053 0.81777 0.15949 0.0
O249 O 0.47524 0.83191 0.15782 0.0
O250 O 0.43126 0.75288 0.17196 0.0
O251 O 0.4762 0.76671 0.16394 0.0
O252 O 0.44296 0.19183 0.84775 0.0
Cd253 Cd 0.44609 0.23325 0.85879 0.0
Cd254 Cd 0.48259 0.19702 0.89362 0.0
O255 O 0.48492 0.17193 0.85592 0.0
O256 O 0.42273 0.24545 0.82482 0.0
O257 O 0.469 0.25383 0.82748 0.0
C258 C 0.44617 0.25209 0.8119 0.0
C259 C 0.50138 0.19455 0.94027 0.0
C260 C 0.46103 0.1724 0.84242 0.0
C261 C 0.42127 0.21518 0.90998 0.0
O262 O 0.44182 0.19793 0.90661 0.0
O263 O 0.42031 0.2384 0.89545 0.0
O264 O 0.49294 0.17189 0.92698 0.0
O265 O 0.5056 0.21724 0.92494 0.0
O266 O 0.56207 0.30006 0.40431 0.0
Cd267 Cd 0.51981 0.29746 0.3976 0.0
Cd268 Cd 0.54924 0.26758 0.35131 0.0
O269 O 0.57694 0.25927 0.38591 0.0
O270 O 0.50896 0.31663 0.43439 0.0
O271 O 0.50131 0.27062 0.42634 0.0
C272 C 0.50218 0.29179 0.44413 0.0
C273 C 0.54979 0.24659 0.30565 0.0
C274 C 0.57984 0.27966 0.4039 0.0
C275 C 0.52586 0.32839 0.34555 0.0
O276 O 0.54521 0.30975 0.34172 0.0
O277 O 0.50746 0.32542 0.36552 0.0
O278 O 0.57264 0.25686 0.31709 0.0
O279 O 0.52731 0.24443 0.32162 0.0
O280 O 0.15288 0.05774 0.69479 0.0
Cd281 Cd 0.14481 0.04928 0.73608 0.0
Cd282 Cd 0.10717 0.01961 0.70175 0.0
O283 O 0.14212 0.01704 0.67389 0.0
O284 O 0.17918 0.07069 0.74909 0.0
O285 O 0.17622 0.02364 0.75213 0.0
C286 C 0.19188 0.04641 0.7522 0.0
C287 C 0.0643 0.9947 0.70094 0.0
C288 C 0.15532 0.04087 0.67382 0.0
C289 C 0.09228 0.07743 0.72783 0.0
O290 O 0.09238 0.06033 0.70672 0.0
O291 O 0.11036 0.07442 0.74815 0.0
O292 O 0.07464 0.00586 0.67794 0.0
O293 O 0.08059 0.99332 0.7233 0.0
O294 O 0.69583 0.84493 0.93063 0.0
Cd295 Cd 0.73592 0.85346 0.94396 0.0
Cd296 Cd 0.70197 0.89229 0.97137 0.0
O297 O 0.6766 0.85556 0.97227 0.0
O298 O 0.755 0.81639 0.93414 0.0
O299 O 0.74471 0.82922 0.97876 0.0
C300 C 0.75246 0.8095 0.96085 0.0
C301 C 0.69718 0.93526 0.99582 0.0
C302 C 0.67627 0.84119 0.94898 0.0
C303 C 0.73323 0.90738 0.9169 0.0
O304 O 0.71045 0.9074 0.9316 0.0
O305 O 0.75223 0.88815 0.92114 0.0
O306 O 0.67577 0.92411 0.98249 0.0
O307 O 0.71955 0.91942 0.99996 0.0
O308 O 0.84081 0.45777 0.19344 0.0
Cd309 Cd 0.84959 0.44785 0.23464 0.0
Cd310 Cd 0.90162 0.48123 0.19973 0.0
O311 O 0.86907 0.48729 0.16977 0.0
O312 O 0.81588 0.42199 0.23751 0.0
O313 O 0.81731 0.46342 0.25973 0.0
C314 C 0.80248 0.44173 0.25118 0.0
C315 C 0.94864 0.49865 0.19642 0.0
C316 C 0.84625 0.4724 0.17134 0.0
C317 C 0.90441 0.41819 0.22393 0.0
O318 O 0.91013 0.43972 0.20855 0.0
O319 O 0.8823 0.4179 0.24001 0.0
O320 O 0.9365 0.48553 0.17548 0.0
O321 O 0.9325 0.50633 0.21757 0.0
O322 O 0.31369 0.65122 0.42923 0.0
Cd323 Cd 0.27479 0.6361 0.44133 0.0
Cd324 Cd 0.31071 0.61071 0.47266 0.0
O325 O 0.32887 0.65194 0.4735 0.0
O326 O 0.2511 0.66642 0.42358 0.0
O327 O 0.25786 0.66293 0.47062 0.0
C328 C 0.25028 0.67823 0.44867 0.0
C329 C 0.30639 0.57095 0.50148 0.0
C330 C 0.32926 0.66261 0.44827 0.0
C331 C 0.29046 0.58135 0.42282 0.0
O332 O 0.31311 0.59142 0.43387 0.0
O333 O 0.26685 0.59474 0.42626 0.0
O334 O 0.33132 0.58163 0.4958 0.0
O335 O 0.28398 0.58647 0.496 0.0
O336 O 0.09276 0.92848 0.31145 0.0
Cd337 Cd 0.10909 0.96855 0.31017 0.0
Cd338 Cd 0.13855 0.93942 0.27478 0.0
O339 O 0.09848 0.9221 0.26522 0.0
O340 O 0.07882 0.98892 0.33191 0.0
O341 O 0.0834 0.99143 0.28451 0.0
C342 C 0.0678 0.99508 0.30722 0.0
C343 C 0.17912 0.95276 0.25116 0.0
C344 C 0.08451 0.91718 0.28817 0.0
C345 C 0.16326 0.94923 0.32937 0.0
O346 O 0.15485 0.9287 0.3137 0.0
O347 O 0.14951 0.97287 0.32875 0.0
O348 O 0.16998 0.92665 0.24954 0.0
O349 O 0.16186 0.97232 0.26078 0.0
O350 O 0.81799 0.90892 0.56227 0.0
Cd351 Cd 0.81008 0.89434 0.52191 0.0
Cd352 Cd 0.77897 0.86578 0.55659 0.0
O353 O 0.77344 0.90529 0.57613 0.0
O354 O 0.82983 0.92549 0.50105 0.0
O355 O 0.78253 0.92144 0.50236 0.0
C356 C 0.80491 0.9371 0.49756 0.0
C357 C 0.75374 0.82404 0.55564 0.0
C358 C 0.79765 0.91764 0.57799 0.0
C359 C 0.83102 0.84008 0.53729 0.0
O360 O 0.81909 0.84944 0.55982 0.0
O361 O 0.82733 0.85361 0.51378 0.0
O362 O 0.75949 0.83643 0.57971 0.0
O363 O 0.75664 0.83862 0.53218 0.0
O364 O 0.90325 0.55699 0.7989 0.0
Cd365 Cd 0.88856 0.51666 0.80171 0.0
Cd366 Cd 0.85417 0.55457 0.76724 0.0
O367 O 0.88864 0.58246 0.76213 0.0
O368 O 0.92131 0.50567 0.82677 0.0
O369 O 0.91794 0.49117 0.78194 0.0
C370 C 0.93368 0.49544 0.80434 0.0
C371 C 0.80812 0.55204 0.74804 0.0
C372 C 0.90463 0.57958 0.78413 0.0
C373 C 0.83939 0.53926 0.82911 0.0
O374 O 0.84295 0.55679 0.80879 0.0
O375 O 0.85284 0.5154 0.82908 0.0
O376 O 0.81941 0.57617 0.75503 0.0
O377 O 0.82494 0.53013 0.74601 0.0
O378 O 0.21359 0.58916 0.06186 0.0
Cd379 Cd 0.20041 0.59751 0.02146 0.0
Cd380 Cd 0.23943 0.64509 0.04747 0.0
O381 O 0.25002 0.61446 0.0777 0.0
O382 O 0.1775 0.56169 0.02017 0.0
O383 O 0.21574 0.56795 0.99318 0.0
C384 C 0.19689 0.55084 0.00391 0.0
C385 C 0.25714 0.69189 0.0459 0.0
C386 C 0.23232 0.594 0.08079 0.0
C387 C 0.17288 0.65044 0.03871 0.0
O388 O 0.19735 0.65487 0.04926 0.0
O389 O 0.16901 0.62961 0.0214 0.0
O390 O 0.24951 0.68 0.06949 0.0
O391 O 0.26007 0.67554 0.02379 0.0
O392 O 0.18167 0.34079 0.93458 0.0
Cd393 Cd 0.22128 0.35767 0.93944 0.0
Cd394 Cd 0.18924 0.38664 0.97298 0.0
O395 O 0.17233 0.34572 0.98037 0.0
O396 O 0.24417 0.32749 0.92033 0.0
O397 O 0.24172 0.33264 0.96768 0.0
C398 C 0.24782 0.31681 0.94567 0.0
C399 C 0.19977 0.42708 0.99894 0.0
C400 C 0.16933 0.33177 0.95703 0.0
C401 C 0.20296 0.41151 0.91901 0.0
O402 O 0.18156 0.40293 0.93338 0.0
O403 O 0.22671 0.39817 0.9213 0.0
O404 O 0.17375 0.41771 0.99754 0.0
O405 O 0.22032 0.41056 0.99018 0.0
O406 O 0.34279 0.9417 0.19807 0.0
Cd407 Cd 0.34993 0.94695 0.24034 0.0
Cd408 Cd 0.39628 0.97719 0.20432 0.0
O409 O 0.36285 0.97775 0.17481 0.0
O410 O 0.31404 0.92655 0.25054 0.0
O411 O 0.31978 0.97269 0.25874 0.0
C412 C 0.30287 0.95092 0.25685 0.0
C413 C 0.44191 0.99629 0.1963 0.0
C414 C 0.34523 0.95699 0.17588 0.0
C415 C 0.40388 0.91871 0.23762 0.0
O416 O 0.40771 0.93788 0.21884 0.0
O417 O 0.38203 0.91951 0.25397 0.0
O418 O 0.43005 0.97938 0.17814 0.0
O419 O 0.42598 0.00633 0.2166 0.0
O420 O 0.80816 0.15478 0.44514 0.0
Cd421 Cd 0.76714 0.14231 0.44745 0.0
Cd422 Cd 0.80275 0.10709 0.47979 0.0
O423 O 0.82807 0.14344 0.48637 0.0
O424 O 0.7539 0.17347 0.4213 0.0
O425 O 0.74498 0.17402 0.46761 0.0
C426 C 0.74641 0.18786 0.44363 0.0
C427 C 0.79964 0.06183 0.50063 0.0
C428 C 0.82809 0.15794 0.46319 0.0
C429 C 0.78439 0.08931 0.42269 0.0
O430 O 0.80569 0.09534 0.43833 0.0
O431 O 0.76132 0.10394 0.42479 0.0
O432 O 0.8241 0.07364 0.4958 0.0
O433 O 0.77704 0.07779 0.49884 0.0
O434 O 0.66015 0.56365 0.68506 0.0
Cd435 Cd 0.64395 0.55854 0.7252 0.0
Cd436 Cd 0.61255 0.52728 0.69443 0.0
O437 O 0.65056 0.51926 0.67258 0.0
O438 O 0.67514 0.57451 0.74881 0.0
O439 O 0.66753 0.52773 0.74331 0.0
C440 C 0.68437 0.54843 0.75087 0.0
C441 C 0.5698 0.5038 0.70286 0.0
C442 C 0.66538 0.54199 0.66949 0.0
C443 C 0.59006 0.58058 0.70908 0.0
O444 O 0.59867 0.56733 0.68706 0.0
O445 O 0.60379 0.57754 0.73254 0.0
O446 O 0.58026 0.50575 0.67728 0.0
O447 O 0.5861 0.51056 0.72427 0.0
O448 O 0.56201 0.68411 0.59257 0.0
Cd449 Cd 0.52139 0.69244 0.60579 0.0
Cd450 Cd 0.55332 0.7234 0.63939 0.0
O451 O 0.57708 0.72767 0.60193 0.0
O452 O 0.5 0.67552 0.57339 0.0
O453 O 0.50495 0.72242 0.57981 0.0
C454 C 0.4983 0.70119 0.56325 0.0
C455 C 0.55025 0.75097 0.68029 0.0
C456 C 0.57935 0.70441 0.58779 0.0
C457 C 0.53106 0.66887 0.66024 0.0
O458 O 0.55354 0.68342 0.65608 0.0
O459 O 0.50967 0.67212 0.64361 0.0
O460 O 0.57478 0.74295 0.67044 0.0
O461 O 0.5279 0.74769 0.66422 0.0
O462 O 0.06379 0.29215 0.91185 0.0
Cd463 Cd 0.02366 0.30091 0.89789 0.0
Cd464 Cd 0.05413 0.26556 0.85759 0.0
O465 O 0.07776 0.25117 0.89275 0.0
O466 O 0.0141 0.32763 0.93014 0.0
O467 O 0.99646 0.28396 0.92723 0.0
C468 C 0.00109 0.30666 0.94237 0.0
C469 C 0.04613 0.24832 0.8107 0.0
C470 C 0.0803 0.27058 0.91192 0.0
C471 C 0.04603 0.32722 0.84757 0.0
O472 O 0.0637 0.30712 0.85146 0.0
O473 O 0.02244 0.32718 0.86138 0.0
O474 O 0.07163 0.25187 0.82067 0.0
O475 O 0.02507 0.25036 0.82857 0.0
O476 O 0.93811 0.18943 0.34913 0.0
Cd477 Cd 0.94422 0.23118 0.3582 0.0
Cd478 Cd 0.9784 0.19721 0.39454 0.0
O479 O 0.98204 0.17434 0.35552 0.0
O480 O 0.92208 0.24555 0.32449 0.0
O481 O 0.96889 0.25044 0.32781 0.0
C482 C 0.94607 0.25127 0.31213 0.0
C483 C 0.00193 0.19455 0.4384 0.0
C484 C 0.95831 0.17297 0.3419 0.0
C485 C 0.91966 0.21979 0.41143 0.0
O486 O 0.9377 0.19962 0.40919 0.0
O487 O 0.92097 0.24127 0.39459 0.0
O488 O 0.99279 0.17173 0.42584 0.0
O489 O 0.00296 0.21791 0.42349 0.0
O490 O 0.06799 0.19302 0.59337 0.0
Cd491 Cd 0.02748 0.18887 0.60767 0.0
Cd492 Cd 0.05485 0.22525 0.64244 0.0
O493 O 0.0748 0.23823 0.60448 0.0
O494 O 0.01418 0.16463 0.57513 0.0
O495 O 0.0016 0.21002 0.58001 0.0
C496 C 0.00392 0.18767 0.5637 0.0
C497 C 0.04297 0.24593 0.68628 0.0
C498 C 0.08031 0.21664 0.58859 0.0
C499 C 0.04885 0.16725 0.66076 0.0
O500 O 0.06761 0.18554 0.65384 0.0
O501 O 0.02515 0.16679 0.647 0.0
O502 O 0.06874 0.24745 0.67633 0.0
O503 O 0.02298 0.23691 0.66932 0.0
O504 O 0.43944 0.69395 0.34562 0.0
Cd505 Cd 0.44763 0.73571 0.35195 0.0
Cd506 Cd 0.47666 0.70185 0.39367 0.0
O507 O 0.47964 0.67359 0.35877 0.0
O508 O 0.4297 0.7474 0.31477 0.0
O509 O 0.47586 0.75265 0.32301 0.0
C510 C 0.45487 0.75272 0.30496 0.0
C511 C 0.49727 0.6979 0.43897 0.0
C512 C 0.45709 0.67362 0.34331 0.0
C513 C 0.41771 0.73068 0.40369 0.0
O514 O 0.43572 0.71049 0.40597 0.0
O515 O 0.42062 0.74965 0.3842 0.0
O516 O 0.48364 0.67694 0.42743 0.0
O517 O 0.50422 0.71913 0.42264 0.0
O518 O 0.55552 0.79893 0.91095 0.0
Cd519 Cd 0.51286 0.7985 0.90591 0.0
Cd520 Cd 0.54501 0.77128 0.85255 0.0
O521 O 0.57681 0.76681 0.88351 0.0
O522 O 0.50631 0.8186 0.9432 0.0
O523 O 0.49417 0.7735 0.93641 0.0
C524 C 0.49812 0.79462 0.9538 0.0
C525 C 0.55116 0.75689 0.80463 0.0
C526 C 0.57744 0.78452 0.90431 0.0
C527 C 0.51487 0.83175 0.85391 0.0
O528 O 0.5322 0.81232 0.84641 0.0
O529 O 0.49973 0.82898 0.87647 0.0
O530 O 0.5697 0.77227 0.81777 0.0
O531 O 0.53111 0.74562 0.81997 0.0
O532 O 0.59149 0.44321 0.31288 0.0
Cd533 Cd 0.60607 0.48284 0.30369 0.0
Cd534 Cd 0.6346 0.445 0.27308 0.0
O535 O 0.59676 0.4216 0.27139 0.0
O536 O 0.57479 0.50262 0.32457 0.0
O537 O 0.57796 0.50248 0.27717 0.0
C538 C 0.5626 0.50626 0.29997 0.0
C539 C 0.6776 0.44304 0.24811 0.0
C540 C 0.58541 0.42273 0.29623 0.0
C541 C 0.65882 0.46603 0.32701 0.0
O542 O 0.65031 0.44419 0.31344 0.0
O543 O 0.64565 0.48983 0.3238 0.0
O544 O 0.66495 0.42006 0.2566 0.0
O545 O 0.66301 0.46661 0.24861 0.0
O546 O 0.31249 0.40523 0.5637 0.0
Cd547 Cd 0.30497 0.3988 0.5216 0.0
Cd548 Cd 0.27161 0.3606 0.55527 0.0
O549 O 0.26888 0.39856 0.57962 0.0
O550 O 0.32844 0.43199 0.50848 0.0
O551 O 0.28141 0.43147 0.5047 0.0
C552 C 0.30499 0.44593 0.50425 0.0
C553 C 0.24882 0.3166 0.55725 0.0
C554 C 0.29273 0.41186 0.58097 0.0
C555 C 0.32753 0.34346 0.52841 0.0
O556 O 0.3119 0.34572 0.55045 0.0
O557 O 0.32553 0.36179 0.5082 0.0
O558 O 0.2589 0.32835 0.58015 0.0
O559 O 0.24608 0.33251 0.53468 0.0
O560 O 0.41334 0.0646 0.7982 0.0
Cd561 Cd 0.40271 0.023 0.80159 0.0
Cd562 Cd 0.36008 0.05229 0.76726 0.0
O563 O 0.39421 0.07925 0.75756 0.0
O564 O 0.43603 0.01456 0.82691 0.0
O565 O 0.43401 0.99944 0.78225 0.0
C566 C 0.44923 0.00466 0.80481 0.0
C567 C 0.31581 0.04628 0.74478 0.0
C568 C 0.41262 0.08209 0.77756 0.0
C569 C 0.34843 0.03719 0.82832 0.0
O570 O 0.34808 0.05588 0.80866 0.0
O571 O 0.36687 0.01692 0.82786 0.0
O572 O 0.32574 0.0714 0.7502 0.0
O573 O 0.33291 0.0247 0.74776 0.0
O574 O 0.69657 0.09585 0.05982 0.0
Cd575 Cd 0.69543 0.10563 0.01743 0.0
Cd576 Cd 0.72824 0.14831 0.04884 0.0
O577 O 0.73788 0.11346 0.07432 0.0
O578 O 0.67144 0.07217 0.00653 0.0
O579 O 0.71711 0.07575 0.99493 0.0
C580 C 0.69451 0.05998 0.99749 0.0
C581 C 0.74741 0.19443 0.05157 0.0
C582 C 0.71722 0.09596 0.07741 0.0
C583 C 0.66957 0.16001 0.02728 0.0
O584 O 0.68611 0.15807 0.04867 0.0
O585 O 0.67167 0.14205 0.00681 0.0
O586 O 0.73782 0.18147 0.07391 0.0
O587 O 0.75098 0.17934 0.02862 0.0
O588 O 0.94025 0.30291 0.09489 0.0
Cd589 Cd 0.9798 0.30359 0.11158 0.0
Cd590 Cd 0.94288 0.26979 0.14193 0.0
O591 O 0.91834 0.26267 0.10544 0.0
O592 O 0.99361 0.33077 0.08167 0.0
O593 O 0.00536 0.28502 0.08188 0.0
C594 C 0.00288 0.30877 0.06776 0.0
C595 C 0.94827 0.24895 0.18688 0.0
C596 C 0.91959 0.2859 0.09116 0.0
C597 C 0.95545 0.32649 0.16308 0.0
O598 O 0.9357 0.31066 0.15359 0.0
O599 O 0.98023 0.32537 0.15137 0.0
O600 O 0.92336 0.25157 0.17517 0.0
O601 O 0.97048 0.25288 0.1708 0.0
O602 O 0.93234 0.80018 0.5865 0.0
Cd603 Cd 0.97175 0.80449 0.6047 0.0
Cd604 Cd 0.94108 0.77065 0.63742 0.0
O605 O 0.92139 0.75643 0.60028 0.0
O606 O 0.99005 0.82756 0.57386 0.0
O607 O 0.99885 0.78135 0.58026 0.0
C608 C 0.00023 0.8038 0.56402 0.0
C609 C 0.94795 0.75239 0.68328 0.0
C610 C 0.91812 0.77731 0.58293 0.0
C611 C 0.94722 0.82874 0.65466 0.0
O612 O 0.92867 0.8112 0.64579 0.0
O613 O 0.97222 0.82783 0.64361 0.0
O614 O 0.92287 0.75319 0.67165 0.0
O615 O 0.96987 0.75683 0.66691 0.0
O616 O 0.59492 0.93794 0.8269 0.0
Cd617 Cd 0.61382 0.97471 0.81363 0.0
Cd618 Cd 0.63492 0.9365 0.78374 0.0
O619 O 0.59338 0.91975 0.78367 0.0
O620 O 0.58595 0.00315 0.82848 0.0
O621 O 0.58877 0.99069 0.78256 0.0
C622 C 0.57427 0.00228 0.80328 0.0
C623 C 0.67597 0.93848 0.75695 0.0
C624 C 0.58338 0.92094 0.80916 0.0
C625 C 0.66663 0.95331 0.83264 0.0
O626 O 0.65332 0.93188 0.82274 0.0
O627 O 0.65656 0.97831 0.8278 0.0
O628 O 0.66339 0.91426 0.76171 0.0
O629 O 0.66124 0.96174 0.76086 0.0
O630 O 0.30616 0.90668 0.06144 0.0
Cd631 Cd 0.30152 0.89839 0.01926 0.0
Cd632 Cd 0.27043 0.85949 0.04804 0.0
O633 O 0.26478 0.89158 0.07824 0.0
O634 O 0.31963 0.93411 0.00451 0.0
O635 O 0.27307 0.92563 0.00133 0.0
C636 C 0.29415 0.94344 0.99935 0.0
C637 C 0.24816 0.81553 0.04286 0.0
C638 C 0.28755 0.90626 0.08113 0.0
C639 C 0.32842 0.84471 0.02782 0.0
O640 O 0.31129 0.84574 0.04878 0.0
O641 O 0.32628 0.86301 0.00758 0.0
O642 O 0.25447 0.82549 0.06778 0.0
O643 O 0.24935 0.83278 0.02123 0.0
O644 O 0.4026 0.55896 0.31278 0.0
Cd645 Cd 0.39309 0.5172 0.30691 0.0
Cd646 Cd 0.35169 0.55034 0.27746 0.0
O647 O 0.38858 0.57419 0.27034 0.0
O648 O 0.42794 0.50055 0.32507 0.0
O649 O 0.42119 0.50167 0.27802 0.0
C650 C 0.43837 0.49825 0.29955 0.0
C651 C 0.30608 0.55326 0.25681 0.0
C652 C 0.40506 0.57633 0.29209 0.0
C653 C 0.33926 0.52422 0.33389 0.0
O654 O 0.34113 0.54695 0.31925 0.0
O655 O 0.35705 0.50387 0.32983 0.0
O656 O 0.31852 0.57556 0.26722 0.0
O657 O 0.32161 0.53057 0.25331 0.0
O658 O 0.71659 0.60274 0.55545 0.0
Cd659 Cd 0.69523 0.59852 0.51723 0.0
Cd660 Cd 0.73636 0.65393 0.56208 0.0
O661 O 0.74168 0.61946 0.5903 0.0
O662 O 0.67332 0.56272 0.5172 0.0
O663 O 0.71267 0.56862 0.4914 0.0
C664 C 0.69341 0.55166 0.50186 0.0
C665 C 0.75336 0.7001 0.56477 0.0
C666 C 0.72563 0.59961 0.58092 0.0
C667 C 0.67317 0.65387 0.52805 0.0
O668 O 0.69713 0.65398 0.54103 0.0
O669 O 0.66768 0.63295 0.51131 0.0
O670 O 0.73682 0.68961 0.58428 0.0
O671 O 0.76372 0.68279 0.54571 0.0
C672 C 0.22408 0.55587 0.11712 0.0
C673 C 0.22299 0.58505 0.10935 0.0
C674 C 0.20481 0.54446 0.13742 0.0
C675 C 0.18336 0.5618 0.14962 0.0
H676 H 0.23876 0.54152 0.10625 0.0
H677 H 0.2063 0.52199 0.14307 0.0
S678 S 0.16897 0.63833 0.13283 0.0
N679 N 0.19793 0.63033 0.11422 0.0
N680 N 0.16073 0.60885 0.15038 0.0
C681 C 0.182 0.59087 0.14162 0.0
C682 C 0.20216 0.60255 0.12212 0.0
C683 C 0.69336 0.45737 0.39891 0.0
C684 C 0.71044 0.43285 0.39399 0.0
C685 C 0.67929 0.47138 0.37623 0.0
C686 C 0.68189 0.46104 0.34812 0.0
H687 H 0.68855 0.46396 0.42069 0.0
H688 H 0.66391 0.48808 0.38117 0.0
S689 S 0.7284 0.40116 0.32353 0.0
N690 N 0.73249 0.40169 0.35871 0.0
N691 N 0.70668 0.4281 0.31601 0.0
C692 C 0.702 0.43903 0.34266 0.0
C693 C 0.71617 0.42483 0.36568 0.0
C694 C 0.79752 0.95626 0.64899 0.0
C695 C 0.82463 0.96959 0.64871 0.0
C696 C 0.7873 0.94143 0.62496 0.0
C697 C 0.80403 0.93944 0.60004 0.0
H698 H 0.78545 0.95484 0.66881 0.0
H699 H 0.76754 0.92943 0.62686 0.0
S700 S 0.87356 0.97587 0.58667 0.0
N701 N 0.86559 0.98392 0.6202 0.0
N702 N 0.84662 0.95628 0.57491 0.0
C703 C 0.82946 0.95573 0.59845 0.0
C704 C 0.83968 0.97092 0.62284 0.0
C705 C 0.30494 0.05973 0.84923 0.0
C706 C 0.33003 0.04318 0.85337 0.0
C707 C 0.29258 0.07535 0.87177 0.0
C708 C 0.30503 0.07493 0.89912 0.0
H709 H 0.29623 0.06258 0.82785 0.0
H710 H 0.27478 0.08955 0.86716 0.0
S711 S 0.36638 0.02936 0.92251 0.0
N712 N 0.36339 0.02309 0.88779 0.0
N713 N 0.34059 0.0523 0.93031 0.0
C714 C 0.32793 0.05561 0.90422 0.0
C715 C 0.34027 0.03961 0.8813 0.0
C716 C 0.17573 0.45494 0.90461 0.0
C717 C 0.1986 0.43582 0.8992 0.0
C718 C 0.16464 0.4725 0.88291 0.0
C719 C 0.17607 0.47125 0.8552 0.0
H720 H 0.16462 0.45447 0.92502 0.0
H721 H 0.14487 0.48404 0.88692 0.0
S722 S 0.2406 0.43088 0.83203 0.0
N723 N 0.23587 0.42129 0.86583 0.0
N724 N 0.21509 0.45444 0.82498 0.0
C725 C 0.20168 0.45576 0.85084 0.0
C726 C 0.21292 0.43781 0.87288 0.0
C727 C 0.82981 0.44638 0.09768 0.0
C728 C 0.80327 0.43222 0.10146 0.0
C729 C 0.84207 0.46302 0.11929 0.0
C730 C 0.82853 0.46589 0.14587 0.0
H731 H 0.84239 0.44312 0.07847 0.0
H732 H 0.86355 0.4712 0.11607 0.0
S733 S 0.75637 0.43818 0.16523 0.0
N734 N 0.76192 0.42596 0.13241 0.0
N735 N 0.78504 0.45716 0.17353 0.0
C736 C 0.80063 0.45442 0.14904 0.0
C737 C 0.78802 0.4375 0.12679 0.0
C738 C 0.7838 0.07458 0.37152 0.0
C739 C 0.78962 0.06781 0.40017 0.0
C740 C 0.79955 0.0616 0.34947 0.0
C741 C 0.82166 0.04169 0.35548 0.0
H742 H 0.7695 0.09213 0.36628 0.0
H743 H 0.79617 0.06919 0.32774 0.0
S744 S 0.83944 0.01156 0.42671 0.0
N745 N 0.8144 0.03576 0.43312 0.0
N746 N 0.84423 0.01174 0.39159 0.0
C747 C 0.82465 0.03181 0.38364 0.0
C748 C 0.80851 0.04487 0.40606 0.0
C749 C 0.21094 0.05221 0.61565 0.0
C750 C 0.20639 0.08133 0.60912 0.0
C751 C 0.19345 0.03804 0.63581 0.0
C752 C 0.17042 0.05249 0.64884 0.0
H753 H 0.22743 0.04022 0.60452 0.0
H754 H 0.19808 0.01598 0.6414 0.0
S755 S 0.1481 0.12789 0.63648 0.0
N756 N 0.17697 0.1236 0.61651 0.0
N757 N 0.14306 0.09677 0.65245 0.0
C758 C 0.16543 0.08134 0.64175 0.0
C759 C 0.18375 0.09585 0.62248 0.0
C760 C 0.10067 0.1984 0.54337 0.0
C761 C 0.10426 0.21551 0.56814 0.0
C762 C 0.1238 0.18346 0.53118 0.0
C763 C 0.15116 0.18543 0.5434 0.0
H764 H 0.07929 0.19373 0.53557 0.0
H765 H 0.1196 0.16807 0.51431 0.0
S766 S 0.17279 0.23321 0.6035 0.0
N767 N 0.13781 0.23771 0.60085 0.0
N768 N 0.18159 0.21069 0.57763 0.0
C769 C 0.15561 0.20597 0.56531 0.0
C770 C 0.13204 0.22092 0.57774 0.0
C771 C 0.03801 0.37543 0.8247 0.0
C772 C 0.05486 0.35069 0.82801 0.0
C773 C 0.04822 0.39889 0.8089 0.0
C774 C 0.07516 0.39796 0.7953 0.0
H775 H 0.01761 0.37734 0.83562 0.0
H776 H 0.03582 0.41855 0.80883 0.0
S777 S 0.12671 0.3378 0.79509 0.0
N778 N 0.09965 0.32652 0.8148 0.0
N779 N 0.11753 0.37018 0.78431 0.0
C780 C 0.09117 0.37276 0.79652 0.0
C781 C 0.08141 0.34926 0.81322 0.0
C782 C 0.86089 0.29879 0.03573 0.0
C783 C 0.8561 0.32842 0.03941 0.0
C784 C 0.88091 0.28401 0.05305 0.0
C785 C 0.89529 0.29836 0.07531 0.0
H786 H 0.84843 0.28691 0.02017 0.0
H787 H 0.88508 0.26152 0.0491 0.0
S788 S 0.88684 0.37493 0.09592 0.0
N789 N 0.86664 0.37102 0.06718 0.0
N790 N 0.90107 0.3431 0.10167 0.0
C791 C 0.88962 0.32771 0.07963 0.0
C792 C 0.87102 0.34282 0.06108 0.0
C793 C 0.96702 0.12533 0.31811 0.0
C794 C 0.95181 0.15123 0.31954 0.0
C795 C 0.956 0.10208 0.3025 0.0
C796 C 0.92965 0.10412 0.28772 0.0
H797 H 0.98601 0.12213 0.33109 0.0
H798 H 0.96665 0.0815 0.30444 0.0
S799 S 0.88457 0.16878 0.28002 0.0
N800 N 0.91139 0.17887 0.30075 0.0
N801 N 0.89101 0.13496 0.27201 0.0
C802 C 0.91625 0.1308 0.28601 0.0
C803 C 0.92723 0.15442 0.30191 0.0
C804 C 0.11916 0.83965 0.4639 0.0
C805 C 0.14457 0.82406 0.4669 0.0
C806 C 0.09708 0.82933 0.44657 0.0
C807 C 0.09944 0.80289 0.43196 0.0
H808 H 0.1176 0.86131 0.47215 0.0
H809 H 0.0789 0.8433 0.44297 0.0
S810 S 0.15935 0.75117 0.43878 0.0
N811 N 0.16932 0.77902 0.45822 0.0
N812 N 0.12726 0.75919 0.42603 0.0
C813 C 0.12328 0.78552 0.43781 0.0
C814 C 0.14596 0.79621 0.4553 0.0
C815 C 0.46352 0.37434 0.67834 0.0
C816 C 0.45689 0.34667 0.68744 0.0
C817 C 0.44945 0.39786 0.69033 0.0
C818 C 0.42852 0.39472 0.71203 0.0
H819 H 0.477 0.37768 0.6597 0.0
H820 H 0.45321 0.41846 0.68064 0.0
S821 S 0.40879 0.32666 0.74762 0.0
N822 N 0.43187 0.31726 0.72245 0.0
N823 N 0.40585 0.36189 0.74547 0.0
C824 C 0.42448 0.36741 0.72378 0.0
C825 C 0.43865 0.34329 0.71135 0.0
C826 C 0.90368 0.69159 0.94748 0.0
C827 C 0.8992 0.71082 0.92447 0.0
C828 C 0.8807 0.67777 0.96096 0.0
C829 C 0.85258 0.68265 0.95163 0.0
H830 H 0.92525 0.68521 0.95336 0.0
H831 H 0.88522 0.6613 0.97671 0.0
S832 S 0.8293 0.73588 0.89686 0.0
N833 N 0.86461 0.73783 0.89666 0.0
N834 N 0.82121 0.71177 0.92146 0.0
C835 C 0.84773 0.70444 0.93107 0.0
C836 C 0.87115 0.71868 0.91765 0.0
C837 C 0.58278 0.15329 0.196 0.0
C838 C 0.55501 0.15071 0.18411 0.0
C839 C 0.59324 0.13378 0.21621 0.0
C840 C 0.57665 0.11038 0.22483 0.0
H841 H 0.59757 0.16933 0.18818 0.0
H842 H 0.61572 0.13487 0.222 0.0
S843 S 0.50057 0.09741 0.20604 0.0
N844 N 0.50925 0.12614 0.18722 0.0
N845 N 0.52957 0.08841 0.22432 0.0
C846 C 0.5478 0.10945 0.21596 0.0
C847 C 0.53686 0.12974 0.19566 0.0
C848 C 0.02357 0.87985 0.32299 0.0
C849 C 0.02952 0.85146 0.31528 0.0
C850 C 0.03892 0.90233 0.31038 0.0
C851 C 0.06048 0.8969 0.28985 0.0
H852 H 0.0102 0.88446 0.34143 0.0
H853 H 0.03636 0.92366 0.31924 0.0
S854 S 0.07702 0.82706 0.25627 0.0
N855 N 0.05268 0.81975 0.28092 0.0
N856 N 0.08187 0.86209 0.25763 0.0
C857 C 0.06278 0.8693 0.27844 0.0
C858 C 0.04705 0.84645 0.29112 0.0
C859 C 0.39656 0.33043 0.56163 0.0
C860 C 0.39368 0.30209 0.57213 0.0
C861 C 0.37728 0.34213 0.54208 0.0
C862 C 0.35345 0.32657 0.53305 0.0
H863 H 0.41358 0.34434 0.56902 0.0
H864 H 0.3793 0.36464 0.53666 0.0
S865 S 0.33677 0.25101 0.55117 0.0
N866 N 0.3666 0.25774 0.56909 0.0
N867 N 0.32875 0.2808 0.53371 0.0
C868 C 0.35101 0.29772 0.5417 0.0
C869 C 0.37132 0.28532 0.56112 0.0
C870 C 0.93578 0.62367 0.77872 0.0
C871 C 0.9234 0.60231 0.79593 0.0
C872 C 0.95336 0.64488 0.79104 0.0
C873 C 0.95964 0.6448 0.82065 0.0
H874 H 0.93134 0.62439 0.75592 0.0
H875 H 0.9609 0.6623 0.77765 0.0
S876 S 0.93078 0.59539 0.87541 0.0
N877 N 0.91736 0.58395 0.84478 0.0
N878 N 0.95136 0.62273 0.86684 0.0
C879 C 0.94808 0.62324 0.83781 0.0
C880 C 0.92964 0.60234 0.82573 0.0
C881 C 0.12099 0.6651 0.03959 0.0
C882 C 0.14906 0.66875 0.04965 0.0
C883 C 0.09791 0.67874 0.05319 0.0
C884 C 0.102 0.69643 0.07743 0.0
H885 H 0.11661 0.65059 0.02199 0.0
H886 H 0.07644 0.67411 0.04564 0.0
S887 S 0.17125 0.71605 0.1104 0.0
N888 N 0.17975 0.69424 0.08385 0.0
N889 N 0.13608 0.71909 0.10925 0.0
C890 C 0.12995 0.70217 0.08631 0.0
C891 C 0.15354 0.68844 0.07251 0.0
C892 C 0.41777 0.84643 0.20969 0.0
C893 C 0.44387 0.85102 0.195 0.0
C894 C 0.40662 0.86686 0.22864 0.0
C895 C 0.42119 0.89261 0.23348 0.0
H896 H 0.40461 0.82796 0.20482 0.0
H897 H 0.38495 0.86404 0.23647 0.0
S898 S 0.49385 0.91131 0.20715 0.0
N899 N 0.48672 0.88029 0.19165 0.0
N900 N 0.46579 0.9188 0.22742 0.0
C901 C 0.44926 0.89535 0.22254 0.0
C902 C 0.46057 0.87459 0.20307 0.0
C903 C 0.39887 0.17532 0.93674 0.0
C904 C 0.39896 0.20498 0.93026 0.0
C905 C 0.37932 0.16335 0.95572 0.0
C906 C 0.35812 0.18015 0.96848 0.0
H907 H 0.41349 0.1606 0.92626 0.0
H908 H 0.37892 0.14021 0.95792 0.0
S909 S 0.35015 0.25895 0.96194 0.0
N910 N 0.37779 0.25132 0.94107 0.0
N911 N 0.33915 0.22812 0.9755 0.0
C912 C 0.35846 0.20994 0.96351 0.0
C913 C 0.37914 0.22249 0.94456 0.0
C914 C 0.6014 0.29938 0.44803 0.0
C915 C 0.60504 0.28324 0.42259 0.0
C916 C 0.62426 0.31424 0.46045 0.0
C917 C 0.65139 0.31316 0.44781 0.0
H918 H 0.58015 0.30316 0.45657 0.0
H919 H 0.61994 0.32888 0.47797 0.0
S920 S 0.67389 0.26743 0.38665 0.0
N921 N 0.63894 0.26241 0.38906 0.0
N922 N 0.6823 0.28958 0.41294 0.0
C923 C 0.65619 0.29361 0.42522 0.0
C924 C 0.63285 0.27869 0.41245 0.0
C925 C 0.70685 0.92081 0.84514 0.0
C926 C 0.69305 0.94745 0.84931 0.0
C927 C 0.72621 0.9098 0.86523 0.0
C928 C 0.73185 0.92473 0.89063 0.0
H929 H 0.70051 0.90699 0.82766 0.0
H930 H 0.73313 0.88773 0.8629 0.0
S931 S 0.70767 0.99842 0.90826 0.0
N932 N 0.6915 0.99112 0.87756 0.0
N933 N 0.72732 0.96996 0.91604 0.0
C934 C 0.72177 0.95317 0.8929 0.0
C935 C 0.70225 0.9646 0.87217 0.0
C936 C 0.29355 0.54127 0.35392 0.0
C937 C 0.31903 0.52536 0.35809 0.0
C938 C 0.28112 0.55684 0.37643 0.0
C939 C 0.29369 0.55645 0.40369 0.0
H940 H 0.28548 0.54487 0.33239 0.0
H941 H 0.26405 0.57184 0.37156 0.0
S942 S 0.35414 0.51058 0.42766 0.0
N943 N 0.35194 0.5048 0.39275 0.0
N944 N 0.32792 0.53308 0.43544 0.0
C945 C 0.31577 0.5365 0.40914 0.0
C946 C 0.32863 0.521 0.38616 0.0
C947 C 0.18652 0.95717 0.37682 0.0
C948 C 0.18671 0.94381 0.34992 0.0
C949 C 0.20227 0.94555 0.39957 0.0
C950 C 0.21834 0.92009 0.39613 0.0
H951 H 0.17198 0.97477 0.38114 0.0
H952 H 0.19917 0.95462 0.42077 0.0
S953 S 0.23353 0.88346 0.32744 0.0
N954 N 0.21043 0.90898 0.31903 0.0
N955 N 0.2392 0.88651 0.36231 0.0
C956 C 0.22241 0.90952 0.36835 0.0
C957 C 0.20659 0.92152 0.34507 0.0
C958 C 0.81021 0.57799 0.85104 0.0
C959 C 0.81998 0.54925 0.85235 0.0
C960 C 0.79324 0.58996 0.87243 0.0
C961 C 0.78595 0.57416 0.89672 0.0
H962 H 0.8166 0.59217 0.83381 0.0
H963 H 0.78834 0.61266 0.87129 0.0
S964 S 0.80336 0.49783 0.91052 0.0
N965 N 0.81847 0.50458 0.87914 0.0
N966 N 0.7878 0.528 0.92071 0.0
C967 C 0.79417 0.54513 0.89805 0.0
C968 C 0.81102 0.5325 0.87567 0.0
C969 C 0.84446 0.79573 0.56335 0.0
C970 C 0.84983 0.81475 0.54038 0.0
C971 C 0.8662 0.77825 0.5745 0.0
C972 C 0.89386 0.77938 0.56295 0.0
H973 H 0.82422 0.79656 0.57473 0.0
H974 H 0.86234 0.76711 0.59454 0.0
S975 S 0.91631 0.81829 0.49738 0.0
N976 N 0.88268 0.82827 0.50236 0.0
N977 N 0.92361 0.79521 0.52326 0.0
C978 C 0.89795 0.79432 0.537 0.0
C979 C 0.87586 0.81223 0.5257 0.0
C980 C 0.10114 0.28973 0.95662 0.0
C981 C 0.10503 0.27294 0.9316 0.0
C982 C 0.12333 0.30674 0.96755 0.0
C983 C 0.15015 0.30682 0.95414 0.0
H984 H 0.07983 0.29283 0.96536 0.0
H985 H 0.11848 0.32214 0.98427 0.0
S986 S 0.17423 0.25819 0.89591 0.0
N987 N 0.13962 0.25157 0.89917 0.0
N988 N 0.18178 0.28257 0.92043 0.0
C989 C 0.15567 0.28603 0.93287 0.0
C990 C 0.13297 0.26905 0.9215 0.0
C991 C 0.87802 0.18955 0.40937 0.0
C992 C 0.89268 0.2109 0.42444 0.0
C993 C 0.85897 0.17148 0.4232 0.0
C994 C 0.85268 0.17455 0.45258 0.0
H995 H 0.88291 0.18539 0.38699 0.0
H996 H 0.84884 0.15485 0.41051 0.0
S997 S 0.88413 0.22858 0.50145 0.0
N998 N 0.90008 0.23448 0.4703 0.0
N999 N 0.86157 0.20177 0.49616 0.0
C1000 C 0.86647 0.19641 0.46797 0.0
C1001 C 0.88697 0.21441 0.45386 0.0
C1002 C 0.5502 0.64982 0.70558 0.0
C1003 C 0.53338 0.6452 0.68083 0.0
C1004 C 0.56622 0.62753 0.7178 0.0
C1005 C 0.56557 0.60016 0.70555 0.0
H1006 H 0.55387 0.67145 0.71321 0.0
H1007 H 0.58161 0.63256 0.73445 0.0
S1008 S 0.51805 0.57538 0.64671 0.0
N1009 N 0.51199 0.6102 0.64891 0.0
N1010 N 0.54144 0.568 0.67226 0.0
C1011 C 0.54502 0.59437 0.68412 0.0
C1012 C 0.52888 0.61706 0.67165 0.0
C1013 C 0.40306 0.82845 0.04782 0.0
C1014 C 0.39931 0.80424 0.06565 0.0
C1015 C 0.38074 0.83911 0.0309 0.0
C1016 C 0.3537 0.82636 0.0319 0.0
H1017 H 0.42268 0.84078 0.04867 0.0
H1018 H 0.38371 0.85942 0.02004 0.0
S1019 S 0.33408 0.7596 0.07052 0.0
N1020 N 0.3679 0.76515 0.07935 0.0
N1021 N 0.3254 0.7858 0.04831 0.0
C1022 C 0.35063 0.80021 0.04682 0.0
C1023 C 0.37357 0.78904 0.06369 0.0
C1024 C 0.39155 0.71489 0.44693 0.0
C1025 C 0.39041 0.72554 0.41859 0.0
C1026 C 0.37059 0.69603 0.45744 0.0
C1027 C 0.34792 0.68701 0.43981 0.0
H1028 H 0.41037 0.71875 0.46 0.0
H1029 H 0.37345 0.68679 0.47858 0.0
S1030 S 0.33288 0.71264 0.3656 0.0
N1031 N 0.36299 0.72876 0.37463 0.0
N1032 N 0.32341 0.69375 0.39396 0.0
C1033 C 0.34496 0.70009 0.41254 0.0
C1034 C 0.36618 0.7194 0.40208 0.0
C1035 C 0.62589 0.82487 0.9546 0.0
C1036 C 0.65267 0.82162 0.94159 0.0
C1037 C 0.60204 0.81053 0.94375 0.0
C1038 C 0.60409 0.7923 0.91956 0.0
H1039 H 0.62287 0.83999 0.97198 0.0
H1040 H 0.58147 0.81544 0.95331 0.0
S1041 S 0.67102 0.77118 0.88257 0.0
N1042 N 0.68119 0.79488 0.90678 0.0
N1043 N 0.63601 0.768 0.88639 0.0
C1044 C 0.63131 0.78645 0.90844 0.0
C1045 C 0.65568 0.80119 0.9194 0.0
C1046 C 0.72625 0.57265 0.62753 0.0
C1047 C 0.71311 0.57799 0.60084 0.0
C1048 C 0.71184 0.55752 0.64921 0.0
C1049 C 0.68418 0.54648 0.64468 0.0
H1050 H 0.74695 0.5819 0.63242 0.0
H1051 H 0.72151 0.5563 0.67033 0.0
S1052 S 0.64021 0.55403 0.57938 0.0
N1053 N 0.67021 0.5712 0.57206 0.0
N1054 N 0.64472 0.54051 0.61174 0.0
C1055 C 0.67178 0.54954 0.61762 0.0
C1056 C 0.68584 0.56592 0.59595 0.0
C1057 C 0.30603 0.95833 0.13944 0.0
C1058 C 0.33115 0.94568 0.15031 0.0
C1059 C 0.28942 0.94402 0.11872 0.0
C1060 C 0.2974 0.91668 0.10892 0.0
H1061 H 0.29906 0.97907 0.14721 0.0
H1062 H 0.27088 0.95465 0.10966 0.0
S1063 S 0.35999 0.8738 0.13259 0.0
N1064 N 0.36222 0.90389 0.15108 0.0
N1065 N 0.33099 0.87706 0.11254 0.0
C1066 C 0.32176 0.90353 0.12065 0.0
C1067 C 0.33871 0.91807 0.14118 0.0
C1068 C 0.33653 0.46732 0.62021 0.0
C1069 C 0.32518 0.46615 0.64793 0.0
C1070 C 0.324 0.45148 0.59803 0.0
C1071 C 0.29976 0.43389 0.60278 0.0
H1072 H 0.35682 0.47785 0.61628 0.0
H1073 H 0.33485 0.45125 0.57751 0.0
S1074 S 0.25794 0.4298 0.67005 0.0
N1075 N 0.28515 0.45103 0.6778 0.0
N1076 N 0.26192 0.42088 0.63598 0.0
C1077 C 0.28609 0.43566 0.62942 0.0
C1078 C 0.29875 0.45197 0.65203 0.0
C1079 C 0.68463 0.04295 0.12752 0.0
C1080 C 0.67791 0.06054 0.15103 0.0
C1081 C 0.70097 0.05355 0.1046 0.0
C1082 C 0.71167 0.08177 0.10482 0.0
H1083 H 0.676 0.02147 0.12609 0.0
H1084 H 0.70356 0.04032 0.08566 0.0
S1085 S 0.70158 0.1362 0.16149 0.0
N1086 N 0.68433 0.10771 0.17318 0.0
N1087 N 0.71584 0.1265 0.13063 0.0
C1088 C 0.70699 0.09879 0.12896 0.0
C1089 C 0.68977 0.0885 0.15189 0.0
C1090 C 0.62684 0.21771 0.06224 0.0
C1091 C 0.59902 0.20735 0.05825 0.0
C1092 C 0.64991 0.20455 0.04825 0.0
C1093 C 0.64573 0.18059 0.03014 0.0
H1094 H 0.63124 0.2335 0.0787 0.0
H1095 H 0.67138 0.21108 0.05421 0.0
S1096 S 0.57596 0.15181 0.00619 0.0
N1097 N 0.56773 0.17688 0.02979 0.0
N1098 N 0.61129 0.15184 0.00392 0.0
C1099 C 0.61772 0.17335 0.02245 0.0
C1100 C 0.59423 0.18686 0.03654 0.0
C1101 C 0.53165 0.36205 0.30475 0.0
C1102 C 0.53318 0.35669 0.33448 0.0
C1103 C 0.54853 0.38351 0.29193 0.0
C1104 C 0.56791 0.3995 0.3085 0.0
H1105 H 0.51848 0.34859 0.29118 0.0
H1106 H 0.54681 0.38722 0.26905 0.0
S1107 S 0.58247 0.39063 0.3865 0.0
N1108 N 0.55644 0.36782 0.37957 0.0
N1109 N 0.58909 0.40683 0.35577 0.0
C1110 C 0.56964 0.394 0.33821 0.0
C1111 C 0.55197 0.37299 0.35116 0.0
C1112 C 0.42226 0.1516 0.81239 0.0
C1113 C 0.45139 0.15071 0.82109 0.0
C1114 C 0.41067 0.13144 0.7937 0.0
C1115 C 0.42747 0.10911 0.78306 0.0
H1116 H 0.4075 0.16729 0.82109 0.0
H1117 H 0.38772 0.13164 0.79005 0.0
S1118 S 0.50557 0.0993 0.79413 0.0
N1119 N 0.49758 0.12773 0.81375 0.0
N1120 N 0.47522 0.08872 0.77925 0.0
C1121 C 0.45697 0.10892 0.78959 0.0
C1122 C 0.46905 0.12985 0.80852 0.0
C1123 C 0.94892 0.39549 0.20497 0.0
C1124 C 0.92177 0.39225 0.21813 0.0
C1125 C 0.96149 0.37324 0.18907 0.0
C1126 C 0.9474 0.34696 0.18605 0.0
H1127 H 0.95937 0.41621 0.20478 0.0
H1128 H 0.981 0.37747 0.17723 0.0
S1129 S 0.87969 0.32525 0.22227 0.0
N1130 N 0.88389 0.35921 0.23113 0.0
N1131 N 0.90783 0.31695 0.20251 0.0
C1132 C 0.92224 0.34226 0.2024 0.0
C1133 C 0.90935 0.36501 0.21824 0.0
C1134 C 0.09354 0.1284 0.71633 0.0
C1135 C 0.0769 0.10437 0.72283 0.0
C1136 C 0.08341 0.14928 0.69737 0.0
C1137 C 0.05617 0.14702 0.68425 0.0
H1138 H 0.11572 0.12943 0.72318 0.0
H1139 H 0.09802 0.16635 0.69161 0.0
S1140 S 0.0019 0.09139 0.7001 0.0
N1141 N 0.03032 0.08163 0.7189 0.0
N1142 N 0.01083 0.12144 0.68363 0.0
C1143 C 0.03805 0.12485 0.69334 0.0
C1144 C 0.04852 0.10345 0.71264 0.0
C1145 C 0.54608 0.88272 0.80112 0.0
C1146 C 0.56003 0.90197 0.81961 0.0
C1147 C 0.52712 0.86202 0.812 0.0
C1148 C 0.52128 0.86006 0.84166 0.0
H1149 H 0.5511 0.88248 0.77843 0.0
H1150 H 0.51907 0.84576 0.79751 0.0
S1151 S 0.55045 0.90659 0.89887 0.0
N1152 N 0.56477 0.91891 0.869 0.0
N1153 N 0.52936 0.88013 0.88884 0.0
C1154 C 0.53307 0.88071 0.85989 0.0
C1155 C 0.55253 0.90153 0.84904 0.0
C1156 C 0.44815 0.59847 0.314 0.0
C1157 C 0.42336 0.60144 0.29686 0.0
C1158 C 0.46075 0.62225 0.3274 0.0
C1159 C 0.44859 0.64958 0.32436 0.0
H1160 H 0.45662 0.57735 0.31872 0.0
H1161 H 0.47865 0.61884 0.34181 0.0
S1162 S 0.38604 0.66877 0.27823 0.0
N1163 N 0.38958 0.63383 0.27444 0.0
N1164 N 0.41205 0.67842 0.30011 0.0
C1165 C 0.42529 0.65293 0.30508 0.0
C1166 C 0.41301 0.62886 0.29108 0.0
C1167 C 0.62153 0.66822 0.52937 0.0
C1168 C 0.65 0.67376 0.53754 0.0
C1169 C 0.59852 0.68047 0.54429 0.0
C1170 C 0.6031 0.69895 0.56771 0.0
H1171 H 0.61682 0.65259 0.51286 0.0
H1172 H 0.57696 0.67399 0.53862 0.0
S1173 S 0.67289 0.72505 0.59416 0.0
N1174 N 0.68111 0.70288 0.56778 0.0
N1175 N 0.63762 0.72544 0.59585 0.0
C1176 C 0.63113 0.70722 0.57407 0.0
C1177 C 0.65467 0.69472 0.55895 0.0
C1178 C 0.9099 0.84699 0.68823 0.0
C1179 C 0.93824 0.84901 0.67758 0.0
C1180 C 0.89859 0.86732 0.70708 0.0
C1181 C 0.91508 0.89061 0.71603 0.0
H1182 H 0.89555 0.83034 0.68082 0.0
H1183 H 0.87599 0.8663 0.71232 0.0
S1184 S 0.99206 0.90268 0.7003 0.0
N1185 N 0.98393 0.87362 0.68176 0.0
N1186 N 0.96231 0.91247 0.71687 0.0
C1187 C 0.9442 0.8915 0.70801 0.0
C1188 C 0.95588 0.87058 0.68884 0.0
C1189 C 0.0251 0.61276 0.16764 0.0
C1190 C 0.0239 0.63993 0.18027 0.0
C1191 C 0.04229 0.59126 0.17967 0.0
C1192 C 0.05885 0.59636 0.20456 0.0
H1193 H 0.01598 0.60925 0.14655 0.0
H1194 H 0.04483 0.57148 0.16774 0.0
S1195 S 0.05581 0.66125 0.24998 0.0
N1196 N 0.03491 0.6687 0.22234 0.0
N1197 N 0.06759 0.62826 0.24473 0.0
C1198 C 0.05407 0.62177 0.21975 0.0
C1199 C 0.03636 0.6436 0.20762 0.0
C1200 C 0.22833 0.57799 0.26011 0.0
C1201 C 0.2124 0.5525 0.25731 0.0
C1202 C 0.25838 0.57806 0.25863 0.0
C1203 C 0.27415 0.55267 0.25422 0.0
H1204 H 0.21751 0.59834 0.26291 0.0
H1205 H 0.26934 0.59834 0.2612 0.0
S1206 S 0.2432 0.47981 0.24633 0.0
N1207 N 0.21503 0.50088 0.25035 0.0
N1208 N 0.27142 0.50104 0.24776 0.0
C1209 C 0.25862 0.52692 0.25161 0.0
C1210 C 0.22788 0.52682 0.2532 0.0
C1211 C 0.68106 0.47356 0.51979 0.0
C1212 C 0.70197 0.45917 0.50373 0.0
C1213 C 0.67831 0.50334 0.51842 0.0
C1214 C 0.69614 0.52005 0.50065 0.0
H1215 H 0.6661 0.46159 0.53289 0.0
H1216 H 0.66182 0.51322 0.53142 0.0
S1217 S 0.75357 0.49242 0.45306 0.0
N1218 N 0.74051 0.46356 0.46882 0.0
N1219 N 0.73536 0.51977 0.46628 0.0
C1220 C 0.7174 0.50596 0.48457 0.0
C1221 C 0.72034 0.47549 0.48616 0.0
C1222 C 0.75233 0.96739 0.7492 0.0
C1223 C 0.76922 0.94437 0.75914 0.0
C1224 C 0.72222 0.96513 0.74742 0.0
C1225 C 0.70795 0.9396 0.75506 0.0
H1226 H 0.76249 0.98691 0.74186 0.0
H1227 H 0.71007 0.98346 0.73993 0.0
S1228 S 0.74281 0.87427 0.78501 0.0
N1229 N 0.7696 0.89638 0.77874 0.0
N1230 N 0.71365 0.89145 0.77464 0.0
C1231 C 0.72487 0.91669 0.76546 0.0
C1232 C 0.75528 0.91927 0.76773 0.0
C1233 C 0.29133 0.02045 0.97353 0.0
C1234 C 0.28943 0.03586 0.99948 0.0
C1235 C 0.29156 0.99031 0.97314 0.0
C1236 C 0.2891 0.97468 0.9987 0.0
H1237 H 0.29359 0.03181 0.95344 0.0
H1238 H 0.29455 0.97926 0.95292 0.0
S1239 S 0.28097 0.00486 0.0719 0.0
N1240 N 0.28355 0.03333 0.051 0.0
N1241 N 0.28291 0.97671 0.05045 0.0
C1242 C 0.28561 0.98986 0.0246 0.0
C1243 C 0.28595 0.0205 0.02497 0.0
C1244 C 0.2331 0.42455 0.74621 0.0
C1245 C 0.21825 0.45047 0.7502 0.0
C1246 C 0.26299 0.423 0.74893 0.0
C1247 C 0.27949 0.44726 0.75604 0.0
H1248 H 0.2215 0.40512 0.74115 0.0
H1249 H 0.27323 0.40255 0.74493 0.0
S1250 S 0.25077 0.52004 0.77087 0.0
N1251 N 0.22216 0.50083 0.76303 0.0
N1252 N 0.27833 0.49797 0.76812 0.0
C1253 C 0.26486 0.4733 0.76059 0.0
C1254 C 0.23433 0.47493 0.75756 0.0
C1255 C 0.7791 0.48936 0.9912 0.0
C1256 C 0.80211 0.47377 0.00305 0.0
C1257 C 0.77793 0.51953 0.9933 0.0
C1258 C 0.79948 0.53509 0.00773 0.0
H1259 H 0.76231 0.47829 0.97962 0.0
H1260 H 0.76081 0.5308 0.98235 0.0
S1261 S 0.86138 0.5043 0.04673 0.0
N1262 N 0.84516 0.47632 0.03247 0.0
N1263 N 0.84247 0.53247 0.03665 0.0
C1264 C 0.82154 0.51964 0.02099 0.0
C1265 C 0.82298 0.48917 0.01859 0.0
C1266 C 0.76822 0.02179 0.26718 0.0
C1267 C 0.78453 0.03904 0.2484 0.0
C1268 C 0.73803 0.024 0.26826 0.0
C1269 C 0.72335 0.04389 0.25093 0.0
H1270 H 0.77894 0.00768 0.28222 0.0
H1271 H 0.72629 0.01099 0.28348 0.0
S1272 S 0.7559 0.09012 0.19491 0.0
N1273 N 0.78348 0.07383 0.20993 0.0
N1274 N 0.72725 0.07819 0.21188 0.0
C1275 C 0.73942 0.05987 0.23099 0.0
C1276 C 0.76986 0.05744 0.22978 0.0
C1277 C 0.17273 0.01669 0.50444 0.0
C1278 C 0.19693 0.0329 0.4964 0.0
C1279 C 0.17387 0.98673 0.50672 0.0
C1280 C 0.19932 0.9715 0.50137 0.0
H1281 H 0.15267 0.02722 0.50956 0.0
H1282 H 0.15453 0.97537 0.51263 0.0
S1283 S 0.26838 0.00306 0.47776 0.0
N1284 N 0.24698 0.03097 0.48189 0.0
N1285 N 0.24905 0.97468 0.48616 0.0
C1286 C 0.22366 0.98724 0.49301 0.0
C1287 C 0.22246 0.01785 0.49046 0.0
C1288 C 0.24701 0.23909 0.5817 0.0
C1289 C 0.25281 0.22337 0.55652 0.0
C1290 C 0.24413 0.269 0.58134 0.0
C1291 C 0.24689 0.28477 0.55579 0.0
H1292 H 0.24408 0.22818 0.602 0.0
H1293 H 0.23997 0.27991 0.60143 0.0
S1294 S 0.26457 0.25452 0.48416 0.0
N1295 N 0.26263 0.22623 0.50535 0.0
N1296 N 0.25761 0.2825 0.50472 0.0
C1297 C 0.25316 0.26948 0.53042 0.0
C1298 C 0.25614 0.23887 0.5308 0.0
C1299 C 0.00997 0.52078 0.8168 0.0
C1300 C 0.02623 0.50463 0.79734 0.0
C1301 C 0.98026 0.51702 0.81909 0.0
C1302 C 0.96551 0.49662 0.80232 0.0
H1303 H 0.0204 0.53608 0.8308 0.0
H1304 H 0.96875 0.5305 0.83412 0.0
S1305 S 0.99864 0.44767 0.74913 0.0
N1306 N 0.02575 0.46674 0.76152 0.0
N1307 N 0.96976 0.45983 0.7657 0.0
C1308 C 0.9815 0.4805 0.78249 0.0
C1309 C 0.01187 0.48443 0.78007 0.0
C1310 C 0.73138 0.27171 0.07172 0.0
C1311 C 0.74362 0.28757 0.04929 0.0
C1312 C 0.73353 0.24174 0.07252 0.0
C1313 C 0.74839 0.2263 0.05114 0.0
H1314 H 0.72041 0.28261 0.08907 0.0
H1315 H 0.72313 0.23062 0.09005 0.0
S1316 S 0.78667 0.25801 0.9891 0.0
N1317 N 0.77263 0.28583 0.00595 0.0
N1318 N 0.7766 0.22947 0.00745 0.0
C1319 C 0.76098 0.24193 0.02866 0.0
C1320 C 0.7586 0.27253 0.02774 0.0
C1321 C 0.99179 0.01304 0.32907 0.0
C1322 C 0.97496 0.99745 0.30936 0.0
C1323 C 0.02178 0.01372 0.32712 0.0
C1324 C 0.03633 0.99918 0.30515 0.0
H1325 H 0.98175 0.0251 0.3462 0.0
H1326 H 0.03373 0.02532 0.3433 0.0
S1327 S 0.00281 0.95417 0.24868 0.0
N1328 N 0.97539 0.96663 0.26733 0.0
N1329 N 0.03179 0.96785 0.26368 0.0
C1330 C 0.01989 0.98374 0.28502 0.0
C1331 C 0.98924 0.98289 0.28712 0.0
C1332 C 0.26373 0.75606 0.42995 0.0
C1333 C 0.25388 0.77121 0.45402 0.0
C1334 C 0.26141 0.72619 0.42834 0.0
C1335 C 0.24912 0.71002 0.4507 0.0
H1336 H 0.2729 0.76745 0.41191 0.0
H1337 H 0.26972 0.71566 0.40938 0.0
S1338 S 0.21816 0.73951 0.51773 0.0
N1339 N 0.22999 0.76798 0.50031 0.0
N1340 N 0.2263 0.71157 0.4975 0.0
C1341 C 0.23932 0.72481 0.47508 0.0
C1342 C 0.24153 0.75544 0.47668 0.0
C1343 C 0.49177 0.51921 0.72108 0.0
C1344 C 0.47712 0.50117 0.70181 0.0
C1345 C 0.522 0.51864 0.72303 0.0
C1346 C 0.5385 0.4995 0.7063 0.0
H1347 H 0.4799 0.53439 0.73406 0.0
H1348 H 0.53257 0.53418 0.73666 0.0
S1349 S 0.51053 0.44487 0.65623 0.0
N1350 N 0.48177 0.46205 0.6676 0.0
N1351 N 0.53786 0.46025 0.6725 0.0
C1352 C 0.52401 0.48041 0.68837 0.0
C1353 C 0.49356 0.48142 0.68581 0.0
C1354 C 0.77536 0.73209 0.97056 0.0
C1355 C 0.74894 0.71752 0.97014 0.0
C1356 C 0.77672 0.76218 0.96913 0.0
C1357 C 0.75162 0.77876 0.96882 0.0
H1358 H 0.79516 0.72003 0.97036 0.0
H1359 H 0.79744 0.77243 0.96725 0.0
S1360 S 0.67716 0.75112 0.9721 0.0
N1361 N 0.69724 0.72193 0.97148 0.0
N1362 N 0.69961 0.77848 0.97148 0.0
C1363 C 0.72512 0.76447 0.97097 0.0
C1364 C 0.72377 0.73382 0.97106 0.0
C1365 C 0.48974 0.98812 0.17336 0.0
C1366 C 0.47364 0.99938 0.19638 0.0
C1367 C 0.5198 0.98741 0.17405 0.0
C1368 C 0.535 0.9972 0.19811 0.0
H1369 H 0.47907 0.97967 0.15454 0.0
H1370 H 0.53125 0.97941 0.15549 0.0
S1371 S 0.50356 0.02936 0.26381 0.0
N1372 N 0.47557 0.02117 0.24378 0.0
N1373 N 0.53197 0.01927 0.24525 0.0
C1374 C 0.51931 0.00832 0.22138 0.0
C1375 C 0.4887 0.00962 0.22045 0.0
C1376 C 0.52809 0.25575 0.22749 0.0
C1377 C 0.55241 0.24556 0.21274 0.0
C1378 C 0.52641 0.25437 0.25772 0.0
C1379 C 0.54877 0.24232 0.27415 0.0
H1380 H 0.51051 0.2653 0.21568 0.0
H1381 H 0.50803 0.26383 0.26832 0.0
S1382 S 0.6147 0.20834 0.24598 0.0
N1383 N 0.5979 0.22023 0.21716 0.0
N1384 N 0.59435 0.21752 0.27343 0.0
C1385 C 0.5724 0.23087 0.25962 0.0
C1386 C 0.57431 0.23249 0.22909 0.0
C1387 C 0.07583 0.73567 0.2707 0.0
C1388 C 0.05144 0.74472 0.28584 0.0
C1389 C 0.07692 0.73685 0.24065 0.0
C1390 C 0.05381 0.74755 0.22429 0.0
H1391 H 0.09444 0.72788 0.28223 0.0
H1392 H 0.09608 0.72893 0.2302 0.0
S1393 S 0.98578 0.77653 0.25381 0.0
N1394 N 0.00405 0.76626 0.28238 0.0
N1395 N 0.00615 0.7687 0.22592 0.0
C1396 C 0.02937 0.75715 0.23922 0.0
C1397 C 0.02813 0.75557 0.26991 0.0
C1398 C 0.52336 0.28064 0.49222 0.0
C1399 C 0.49919 0.28761 0.47538 0.0
C1400 C 0.52218 0.28128 0.52249 0.0
C1401 C 0.49679 0.28904 0.53671 0.0
H1402 H 0.54351 0.27553 0.48191 0.0
H1403 H 0.54135 0.27654 0.53473 0.0
S1404 S 0.42734 0.30662 0.50203 0.0
N1405 N 0.4492 0.30079 0.47488 0.0
N1406 N 0.44662 0.30186 0.53141 0.0
C1407 C 0.47238 0.29496 0.5199 0.0
C1408 C 0.47365 0.29431 0.4893 0.0
C1409 C 0.92737 0.76341 0.73136 0.0
C1410 C 0.95048 0.75264 0.71513 0.0
C1411 C 0.92891 0.76595 0.76126 0.0
C1412 C 0.95364 0.75787 0.77646 0.0
H1413 H 0.90778 0.77019 0.72087 0.0
H1414 H 0.91018 0.77363 0.77266 0.0
S1415 S 0.02026 0.72815 0.74441 0.0
N1416 N 0.99917 0.73419 0.71655 0.0
N1417 N 0.00194 0.73837 0.77297 0.0
C1418 C 0.97725 0.74759 0.76055 0.0
C1419 C 0.97569 0.74511 0.72989 0.0
C1420 C 0.00387 0.71798 0.98296 0.0
C1421 C 0.99971 0.69261 0.96706 0.0
C1422 C 0.00083 0.71842 0.01306 0.0
C1423 C 0.99333 0.69355 0.02848 0.0
H1424 H 0.00939 0.73773 0.9721 0.0
H1425 H 0.0052 0.73822 0.02435 0.0
S1426 S 0.978 0.62207 0.99719 0.0
N1427 N 0.98648 0.64218 0.96937 0.0
N1428 N 0.9804 0.64327 0.02538 0.0
C1429 C 0.98843 0.66829 0.0128 0.0
C1430 C 0.99177 0.66774 0.98232 0.0
C1431 C 0.44765 0.7303 0.25717 0.0
C1432 C 0.45966 0.75262 0.27347 0.0
C1433 C 0.44925 0.72987 0.22716 0.0
C1434 C 0.46323 0.75174 0.21206 0.0
H1435 H 0.43622 0.71325 0.26765 0.0
H1436 H 0.43834 0.71294 0.21562 0.0
S1437 S 0.4988 0.81513 0.24459 0.0
N1438 N 0.48675 0.79683 0.27244 0.0
N1439 N 0.48997 0.79637 0.21584 0.0
C1440 C 0.47662 0.77365 0.22815 0.0
C1441 C 0.47483 0.77402 0.2589 0.0
C1442 C 0.51424 0.21703 0.01848 0.0
C1443 C 0.49492 0.19959 0.0339 0.0
C1444 C 0.51657 0.21531 0.98829 0.0
C1445 C 0.49973 0.19599 0.97236 0.0
H1446 H 0.52885 0.23094 0.02995 0.0
H1447 H 0.53215 0.22865 0.97747 0.0
S1448 S 0.4416 0.15034 0.00216 0.0
N1449 N 0.45613 0.16545 0.03068 0.0
N1450 N 0.45978 0.16252 0.97432 0.0
C1451 C 0.47901 0.17992 0.98752 0.0
C1452 C 0.47679 0.18163 0.01814 0.0
C1453 C 0.27003 0.02336 0.76056 0.0
C1454 C 0.28442 0.04252 0.74211 0.0
C1455 C 0.24 0.02433 0.7638 0.0
C1456 C 0.22349 0.04476 0.74897 0.0
H1457 H 0.28218 0.00857 0.77374 0.0
H1458 H 0.2298 0.00971 0.77866 0.0
S1459 S 0.2504 0.0958 0.69402 0.0
N1460 N 0.27956 0.07989 0.70633 0.0
N1461 N 0.22341 0.08155 0.7119 0.0
C1462 C 0.23755 0.06272 0.72913 0.0
C1463 C 0.26794 0.06169 0.72587 0.0
C1464 C 0.6714 0.01188 0.00265 0.0
C1465 C 0.69585 0.02813 0.99554 0.0
C1466 C 0.67242 0.98189 0.00439 0.0
C1467 C 0.69802 0.96678 0.9996 0.0
H1468 H 0.65115 0.02236 0.00709 0.0
H1469 H 0.65284 0.97038 0.00913 0.0
S1470 S 0.768 0.99862 0.97929 0.0
N1471 N 0.74644 0.02646 0.98302 0.0
N1472 N 0.74835 0.97014 0.98655 0.0
C1473 C 0.72273 0.98262 0.99265 0.0
C1474 C 0.72163 0.01322 0.99048 0.0
C1475 C 0.75509 0.46728 0.25507 0.0
C1476 C 0.77058 0.44154 0.25191 0.0
C1477 C 0.7251 0.46807 0.25174 0.0
C1478 C 0.70938 0.44312 0.24521 0.0
H1479 H 0.76621 0.4871 0.25971 0.0
H1480 H 0.71411 0.48822 0.25529 0.0
S1481 S 0.73975 0.37042 0.23417 0.0
N1482 N 0.7678 0.39058 0.24149 0.0
N1483 N 0.71182 0.39212 0.23516 0.0
C1484 C 0.7247 0.41739 0.24166 0.0
C1485 C 0.75512 0.41657 0.2451 0.0
C1486 C 0.28154 0.49369 0.49338 0.0
C1487 C 0.30503 0.47795 0.50404 0.0
C1488 C 0.28107 0.5239 0.49452 0.0
C1489 C 0.30388 0.53956 0.50675 0.0
H1490 H 0.26366 0.48263 0.48357 0.0
H1491 H 0.26329 0.53507 0.48456 0.0
S1492 S 0.36833 0.50863 0.54149 0.0
N1493 N 0.35046 0.48056 0.52963 0.0
N1494 N 0.34914 0.53685 0.53212 0.0
C1495 C 0.32671 0.52402 0.5187 0.0
C1496 C 0.32741 0.49342 0.51724 0.0
C1497 C 0.22686 0.94148 0.23026 0.0
C1498 C 0.21041 0.95785 0.24941 0.0
C1499 C 0.25672 0.93985 0.23292 0.0
C1500 C 0.27139 0.95436 0.25498 0.0
H1501 H 0.21647 0.92889 0.21375 0.0
H1502 H 0.26841 0.92673 0.21771 0.0
S1503 S 0.23848 0.99983 0.31106 0.0
N1504 N 0.21112 0.98897 0.29138 0.0
N1505 N 0.26743 0.98602 0.29602 0.0
C1506 C 0.25547 0.97166 0.27369 0.0
C1507 C 0.22492 0.97336 0.27101 0.0
C1508 C 0.8209 0.01487 0.51454 0.0
C1509 C 0.79794 0.03005 0.50237 0.0
C1510 C 0.82325 0.98509 0.51163 0.0
C1511 C 0.80261 0.96891 0.49669 0.0
H1512 H 0.83767 0.02622 0.52589 0.0
H1513 H 0.84148 0.97462 0.52144 0.0
S1514 S 0.7399 0.99851 0.45789 0.0
N1515 N 0.75517 0.02686 0.47259 0.0
N1516 N 0.75917 0.97056 0.46811 0.0
C1517 C 0.77945 0.9837 0.48431 0.0
C1518 C 0.77718 0.01429 0.48698 0.0
C1519 C 0.76104 0.53165 0.73041 0.0
C1520 C 0.77652 0.54855 0.74996 0.0
C1521 C 0.73094 0.52948 0.73237 0.0
C1522 C 0.71553 0.54374 0.7542 0.0
H1523 H 0.77205 0.52107 0.7129 0.0
H1524 H 0.71954 0.51803 0.71568 0.0
S1525 S 0.74644 0.58576 0.81374 0.0
N1526 N 0.77435 0.57641 0.79405 0.0
N1527 N 0.71819 0.57212 0.79748 0.0
C1528 C 0.73096 0.55889 0.77488 0.0
C1529 C 0.76136 0.56131 0.77284 0.0
C1530 C 0.20862 0.47474 0.97683 0.0
C1531 C 0.20433 0.45826 0.00185 0.0
C1532 C 0.20683 0.50485 0.97736 0.0
C1533 C 0.20046 0.51933 0.00296 0.0
H1534 H 0.21217 0.46419 0.95645 0.0
H1535 H 0.20938 0.5167 0.95753 0.0
S1536 S 0.19323 0.4864 0.07517 0.0
N1537 N 0.19713 0.4588 0.0533 0.0
N1538 N 0.19436 0.51525 0.05468 0.0
C1539 C 0.1981 0.50314 0.02841 0.0
C1540 C 0.19981 0.4726 0.02778 0.0
C1541 C 0.23804 0.73849 0.06317 0.0
C1542 C 0.25538 0.72356 0.04341 0.0
C1543 C 0.23364 0.76802 0.06112 0.0
C1544 C 0.24652 0.78413 0.03932 0.0
H1545 H 0.22779 0.72731 0.08068 0.0
H1546 H 0.22091 0.77854 0.07748 0.0
S1547 S 0.29533 0.75605 0.98296 0.0
N1548 N 0.28595 0.72733 0.00143 0.0
N1549 N 0.27829 0.78331 0.99789 0.0
C1550 C 0.26367 0.76962 0.01903 0.0
C1551 C 0.26803 0.73926 0.02106 0.0
C1552 C 0.74315 0.749 0.58329 0.0
C1553 C 0.75586 0.73167 0.56209 0.0
C1554 C 0.74068 0.77864 0.57992 0.0
C1555 C 0.7511 0.79246 0.55533 0.0
H1556 H 0.73476 0.7396 0.60278 0.0
H1557 H 0.73105 0.79094 0.59712 0.0
S1558 S 0.78926 0.75763 0.49462 0.0
N1559 N 0.78062 0.73085 0.51611 0.0
N1560 N 0.77675 0.7869 0.51015 0.0
C1561 C 0.76454 0.77562 0.53409 0.0
C1562 C 0.76693 0.74521 0.53747 0.0
C1563 C 0.268 0.27063 0.92792 0.0
C1564 C 0.25171 0.28537 0.94848 0.0
C1565 C 0.26707 0.24069 0.92581 0.0
C1566 C 0.2495 0.22403 0.94394 0.0
H1567 H 0.28115 0.28243 0.91285 0.0
H1568 H 0.28051 0.23054 0.90981 0.0
S1569 S 0.20156 0.25233 1.00076 0.0
N1570 N 0.21691 0.28115 0.98713 0.0
N1571 N 0.21521 0.22478 0.98315 0.0
C1572 C 0.23331 0.23845 0.96491 0.0
C1573 C 0.23442 0.26908 0.9672 0.0
C1574 C 0.74369 0.26615 0.46805 0.0
C1575 C 0.75176 0.28143 0.44322 0.0
C1576 C 0.74084 0.23607 0.46781 0.0
C1577 C 0.74569 0.21995 0.44267 0.0
H1578 H 0.73879 0.27754 0.4877 0.0
H1579 H 0.73494 0.22539 0.48757 0.0
S1580 S 0.76856 0.24961 0.37218 0.0
N1581 N 0.76562 0.27792 0.39312 0.0
N1582 N 0.75989 0.22195 0.3924 0.0
C1583 C 0.75404 0.23506 0.41779 0.0
C1584 C 0.75722 0.26555 0.41815 0.0
C1585 C 0.53105 0.7385 0.75801 0.0
C1586 C 0.55079 0.75594 0.7727 0.0
C1587 C 0.52945 0.73872 0.72787 0.0
C1588 C 0.54751 0.75636 0.71136 0.0
H1589 H 0.51696 0.72434 0.76981 0.0
H1590 H 0.51492 0.72397 0.71739 0.0
S1591 S 0.60071 0.80814 0.73892 0.0
N1592 N 0.58718 0.79316 0.76799 0.0
N1593 N 0.58438 0.79272 0.71157 0.0
C1594 C 0.56668 0.7744 0.72564 0.0
C1595 C 0.56825 0.77442 0.75624 0.0
C1596 C 0.02858 0.22524 0.73385 0.0
C1597 C 0.03821 0.24892 0.71763 0.0
C1598 C 0.0301 0.22516 0.76416 0.0
C1599 C 0.04137 0.24875 0.77911 0.0
H1600 H 0.02137 0.20603 0.723 0.0
H1601 H 0.02358 0.20617 0.7758 0.0
S1602 S 0.06496 0.31745 0.74679 0.0
N1603 N 0.05658 0.29732 0.71893 0.0
N1604 N 0.05883 0.29757 0.77547 0.0
C1605 C 0.04934 0.27305 0.7631 0.0
C1606 C 0.04798 0.27303 0.73247 0.0
C1607 C 0.47513 0.7983 0.0313 0.0
C1608 C 0.50109 0.79501 0.04636 0.0
C1609 C 0.47371 0.79653 0.0013 0.0
C1610 C 0.49833 0.7908 0.98522 0.0
H1611 H 0.45587 0.80332 0.04285 0.0
H1612 H 0.4535 0.80072 0.99063 0.0
S1613 S 0.57137 0.77769 0.01392 0.0
N1614 N 0.55181 0.78412 0.04282 0.0
N1615 N 0.54925 0.77985 0.98628 0.0
C1616 C 0.52429 0.78597 0.99995 0.0
C1617 C 0.52572 0.78823 0.03059 0.0
C1618 C 0.92538 0.23948 0.2642 0.0
C1619 C 0.94754 0.25233 0.28017 0.0
C1620 C 0.92688 0.23674 0.23431 0.0
C1621 C 0.95039 0.2472 0.21872 0.0
H1622 H 0.90659 0.23112 0.27488 0.0
H1623 H 0.90903 0.22686 0.22324 0.0
S1624 S 0.01292 0.28555 0.24968 0.0
N1625 N 0.99332 0.27688 0.27789 0.0
N1626 N 0.99569 0.27289 0.22143 0.0
C1627 C 0.97264 0.26059 0.23425 0.0
C1628 C 0.97128 0.26297 0.26496 0.0
C1629 C 0.0125 0.16751 0.51453 0.0
C1630 C 0.00126 0.18975 0.53174 0.0
C1631 C 0.014 0.16985 0.48451 0.0
C1632 C 0.00475 0.19469 0.47021 0.0
H1633 H 0.02067 0.14809 0.52429 0.0
H1634 H 0.0223 0.15189 0.47234 0.0
S1635 S 0.97161 0.2585 0.50449 0.0
N1636 N 0.97949 0.23717 0.53168 0.0
N1637 N 0.98236 0.24151 0.47532 0.0
C1638 C 0.99327 0.21711 0.48696 0.0
C1639 C 0.99149 0.21464 0.51762 0.0
C1640 C 0.4292 0.22866 0.73545 0.0
C1641 C 0.44942 0.24308 0.7185 0.0
C1642 C 0.42842 0.23213 0.76538 0.0
C1643 C 0.44756 0.25053 0.77986 0.0
H1644 H 0.41328 0.21512 0.72538 0.0
H1645 H 0.4125 0.22017 0.7773 0.0
S1646 S 0.50424 0.29417 0.74535 0.0
N1647 N 0.48914 0.27682 0.71841 0.0
N1648 N 0.48752 0.28338 0.77467 0.0
C1649 C 0.4684 0.26465 0.76328 0.0
C1650 C 0.46937 0.26091 0.73267 0.0
C1651 C 0.4758 0.68814 0.5168 0.0
C1652 C 0.49561 0.70486 0.53191 0.0
C1653 C 0.477 0.68594 0.48686 0.0
C1654 C 0.49833 0.70004 0.47075 0.0
H1655 H 0.45966 0.67605 0.52829 0.0
H1656 H 0.4609 0.67299 0.47629 0.0
S1657 S 0.55622 0.74554 0.5004 0.0
N1658 N 0.53772 0.73533 0.52884 0.0
N1659 N 0.53987 0.7313 0.47237 0.0
C1660 C 0.51806 0.71727 0.48556 0.0
C1661 C 0.51674 0.71962 0.51618 0.0
C1662 C 0.48678 0.48119 0.31438 0.0
C1663 C 0.46991 0.49786 0.29585 0.0
C1664 C 0.51661 0.48454 0.31549 0.0
C1665 C 0.53086 0.50495 0.29837 0.0
H1666 H 0.47676 0.46581 0.32859 0.0
H1667 H 0.52868 0.47088 0.32993 0.0
S1668 S 0.4964 0.5553 0.24752 0.0
N1669 N 0.4695 0.53642 0.26068 0.0
N1670 N 0.52578 0.54235 0.26258 0.0
C1671 C 0.51438 0.52154 0.27941 0.0
C1672 C 0.48386 0.51813 0.27826 0.0
C1673 C 0.49638 0.98981 0.78243 0.0
C1674 C 0.48124 0.00475 0.80387 0.0
C1675 C 0.52655 0.99089 0.78088 0.0
C1676 C 0.54279 0.00723 0.80052 0.0
H1677 H 0.48491 0.9767 0.76709 0.0
H1678 H 0.53724 0.97773 0.76501 0.0
S1679 S 0.51338 0.05399 0.85776 0.0
N1680 N 0.4849 0.03905 0.84312 0.0
N1681 N 0.54113 0.04099 0.84006 0.0
C1682 C 0.52779 0.02352 0.82094 0.0
C1683 C 0.49721 0.02229 0.82268 0.0
C1684 C 0.02657 0.48586 0.17642 0.0
C1685 C 0.04201 0.49597 0.20024 0.0
C1686 C 0.99663 0.48775 0.17522 0.0
C1687 C 0.98055 0.5 0.19771 0.0
H1688 H 0.0378 0.47698 0.15812 0.0
H1689 H 0.98604 0.47938 0.15632 0.0
S1690 S 0.01047 0.53004 0.2651 0.0
N1691 N 0.03885 0.51894 0.24707 0.0
N1692 N 0.9825 0.52224 0.24486 0.0
C1693 C 0.99561 0.50997 0.22191 0.0
C1694 C 0.02628 0.50793 0.2232 0.0
C1695 C 0.01789 0.00521 0.72507 0.0
C1696 C 0.03299 0.99103 0.70308 0.0
C1697 C 0.98789 0.00795 0.72415 0.0
C1698 C 0.97194 0.99667 0.70115 0.0
H1699 H 0.02944 0.01543 0.74244 0.0
H1700 H 0.9772 0.01921 0.74143 0.0
S1701 S 0.0016 0.95509 0.63973 0.0
N1702 N 0.02999 0.96426 0.65872 0.0
N1703 N 0.9738 0.96865 0.65694 0.0
C1704 C 0.98693 0.98164 0.67949 0.0
C1705 C 0.01739 0.97901 0.68048 0.0
C1706 C 0.00783 0.28283 0.99006 0.0
C1707 C 0.99816 0.3066 0.97411 0.0
C1708 C 0.0106 0.28409 0.02015 0.0
C1709 C 0.00376 0.30918 0.0356 0.0
H1710 H 0.01429 0.26338 0.97912 0.0
H1711 H 0.01798 0.26513 0.03137 0.0
S1712 S 0.97517 0.37657 0.00366 0.0
N1713 N 0.98057 0.35538 0.97583 0.0
N1714 N 0.98508 0.35792 0.0321 0.0
C1715 C 0.99346 0.33291 0.01973 0.0
C1716 C 0.99085 0.33157 0.98913 0.0
C1717 C 0.99189 0.78069 0.48642 0.0
C1718 C 0.00322 0.80422 0.47135 0.0
C1719 C 0.99315 0.77941 0.51665 0.0
C1720 C 0.00609 0.80144 0.53282 0.0
H1721 H 0.98128 0.76358 0.47489 0.0
H1722 H 0.98252 0.76185 0.52747 0.0
S1723 S 0.04386 0.86467 0.50356 0.0
N1724 N 0.03115 0.8481 0.475 0.0
N1725 N 0.03346 0.84541 0.53137 0.0
C1726 C 0.01902 0.82402 0.51791 0.0
C1727 C 0.01759 0.82549 0.48733 0.0
loop_
_geom_bond_atom_site_label_1
_geom_bond_atom_site_label_2
_geom_bond_distance
_geom_bond_site_symmetry_2
_ccdc_geom_bond_type
O0 Cd1 2.223 . S
O0 C8 1.315 . S
Cd1 O0 2.223 . S
Cd1 O4 2.297 . S
Cd1 O5 2.439 . S
Cd1 O11 2.240 . S
Cd2 O3 2.240 . S
Cd2 O10 2.223 . S
Cd2 O12 2.297 . S
Cd2 O13 2.439 . S
O3 Cd2 2.240 . S
O3 C8 1.279 . S
O4 Cd1 2.297 . S
O4 C6 1.247 . S
O5 Cd1 2.439 . S
O5 C6 1.208 . S
C6 O4 1.247 . S
C6 O5 1.208 . S
C7 O12 1.247 . S
C7 O13 1.208 . S
C8 O0 1.315 . S
C8 O3 1.279 . S
C9 O10 1.315 . S
C9 O11 1.279 . S
O10 Cd2 2.223 . S
O10 C9 1.315 . S
O11 Cd1 2.240 . S
O11 C9 1.279 . S
O12 Cd2 2.297 . S
O12 C7 1.247 . S
O13 Cd2 2.439 . S
O13 C7 1.208 . S
O14 Cd15 2.223 . S
O14 C22 1.315 . S
Cd15 O14 2.223 . S
Cd15 O18 2.297 . S
Cd15 O19 2.439 . S
Cd15 O25 2.240 . S
Cd16 O17 2.240 . S
Cd16 O24 2.223 . S
Cd16 O26 2.297 . S
Cd16 O27 2.439 . S
O17 Cd16 2.240 . S
O17 C22 1.279 . S
O18 Cd15 2.297 . S
O18 C20 1.247 . S
O19 Cd15 2.439 . S
O19 C20 1.208 . S
C20 O18 1.247 . S
C20 O19 1.208 . S
C21 O26 1.247 . S
C21 O27 1.208 . S
C22 O14 1.315 . S
C22 O17 1.279 . S
C23 O24 1.315 . S
C23 O25 1.279 . S
O24 Cd16 2.223 . S
O24 C23 1.315 . S
O25 Cd15 2.240 . S
O25 C23 1.279 . S
O26 Cd16 2.297 . S
O26 C21 1.247 . S
O27 Cd16 2.439 . S
O27 C21 1.208 . S
O28 Cd29 2.223 . S
O28 C36 1.315 . S
Cd29 O28 2.223 . S
Cd29 O32 2.297 . S
Cd29 O33 2.439 . S
Cd29 O39 2.240 . S
Cd30 O31 2.240 . S
Cd30 O38 2.223 . S
Cd30 O40 2.297 . S
Cd30 O41 2.439 . S
O31 Cd30 2.240 . S
O31 C36 1.279 . S
O32 Cd29 2.297 . S
O32 C34 1.247 . S
O33 Cd29 2.439 . S
O33 C34 1.208 . S
C34 O32 1.247 . S
C34 O33 1.208 . S
C35 O40 1.247 1_545 S
C35 O41 1.208 1_545 S
C36 O28 1.315 . S
C36 O31 1.279 . S
C37 O38 1.315 . S
C37 O39 1.279 . S
O38 Cd30 2.223 . S
O38 C37 1.315 . S
O39 Cd29 2.240 . S
O39 C37 1.279 . S
O40 Cd30 2.297 . S
O40 C35 1.247 1_565 S
O41 Cd30 2.439 . S
O41 C35 1.208 1_565 S
O42 Cd43 2.223 . S
O42 C50 1.315 . S
Cd43 O42 2.223 . S
Cd43 O46 2.297 . S
Cd43 O47 2.439 . S
Cd43 O53 2.240 . S
Cd44 O45 2.240 . S
Cd44 O52 2.223 . S
Cd44 O54 2.297 . S
Cd44 O55 2.439 . S
O45 Cd44 2.240 . S
O45 C50 1.279 . S
O46 Cd43 2.297 . S
O46 C48 1.247 . S
O47 Cd43 2.439 . S
O47 C48 1.208 . S
C48 O46 1.247 . S
C48 O47 1.208 . S
C49 O54 1.247 1_554 S
C49 O55 1.208 1_554 S
C50 O42 1.315 . S
C50 O45 1.279 . S
C51 O52 1.315 . S
C51 O53 1.279 . S
O52 Cd44 2.223 . S
O52 C51 1.315 . S
O53 Cd43 2.240 . S
O53 C51 1.279 . S
O54 Cd44 2.297 . S
O54 C49 1.247 1_556 S
O55 Cd44 2.439 . S
O55 C49 1.208 1_556 S
O56 Cd57 2.223 . S
O56 C64 1.315 . S
Cd57 O56 2.223 . S
Cd57 O60 2.297 . S
Cd57 O61 2.439 . S
Cd57 O67 2.240 . S
Cd58 O59 2.240 . S
Cd58 O66 2.223 . S
Cd58 O68 2.297 . S
Cd58 O69 2.439 . S
O59 Cd58 2.240 . S
O59 C64 1.279 . S
O60 Cd57 2.297 . S
O60 C62 1.247 . S
O61 Cd57 2.439 . S
O61 C62 1.208 . S
C62 O60 1.247 . S
C62 O61 1.208 . S
C63 O68 1.247 . S
C63 O69 1.208 . S
C64 O56 1.315 . S
C64 O59 1.279 . S
C65 O66 1.315 . S
C65 O67 1.279 . S
O66 Cd58 2.223 . S
O66 C65 1.315 . S
O67 Cd57 2.240 . S
O67 C65 1.279 . S
O68 Cd58 2.297 . S
O68 C63 1.247 . S
O69 Cd58 2.439 . S
O69 C63 1.208 . S
O70 Cd71 2.223 . S
O70 C78 1.315 . S
Cd71 O70 2.223 . S
Cd71 O74 2.297 . S
Cd71 O75 2.439 . S
Cd71 O81 2.240 . S
Cd72 O73 2.240 . S
Cd72 O80 2.223 . S
Cd72 O82 2.297 . S
Cd72 O83 2.439 . S
O73 Cd72 2.240 . S
O73 C78 1.279 . S
O74 Cd71 2.297 . S
O74 C76 1.247 1_554 S
O75 Cd71 2.439 . S
O75 C76 1.208 1_554 S
C76 O74 1.247 1_556 S
C76 O75 1.208 1_556 S
C77 O82 1.247 . S
C77 O83 1.208 . S
C78 O70 1.315 . S
C78 O73 1.279 . S
C79 O80 1.315 . S
C79 O81 1.279 . S
O80 Cd72 2.223 . S
O80 C79 1.315 . S
O81 Cd71 2.240 . S
O81 C79 1.279 . S
O82 Cd72 2.297 . S
O82 C77 1.247 . S
O83 Cd72 2.439 . S
O83 C77 1.208 . S
O84 Cd85 2.223 . S
O84 C92 1.315 . S
Cd85 O84 2.223 . S
Cd85 O88 2.297 . S
Cd85 O89 2.439 . S
Cd85 O95 2.240 . S
Cd86 O87 2.240 . S
Cd86 O94 2.223 . S
Cd86 O96 2.297 . S
Cd86 O97 2.439 . S
O87 Cd86 2.240 . S
O87 C92 1.279 . S
O88 Cd85 2.297 . S
O88 C90 1.247 1_545 S
O89 Cd85 2.439 . S
O89 C90 1.208 1_545 S
C90 O88 1.247 1_565 S
C90 O89 1.208 1_565 S
C91 O96 1.247 . S
C91 O97 1.208 . S
C92 O84 1.315 . S
C92 O87 1.279 . S
C93 O94 1.315 . S
C93 O95 1.279 . S
O94 Cd86 2.223 . S
O94 C93 1.315 . S
O95 Cd85 2.240 . S
O95 C93 1.279 . S
O96 Cd86 2.297 . S
O96 C91 1.247 . S
O97 Cd86 2.439 . S
O97 C91 1.208 . S
O98 Cd99 2.223 . S
O98 C106 1.315 . S
Cd99 O98 2.223 . S
Cd99 O102 2.297 . S
Cd99 O103 2.439 . S
Cd99 O109 2.240 . S
Cd100 O101 2.240 . S
Cd100 O108 2.223 . S
Cd100 O110 2.297 . S
Cd100 O111 2.439 . S
O101 Cd100 2.240 . S
O101 C106 1.279 . S
O102 Cd99 2.297 . S
O102 C104 1.247 . S
O103 Cd99 2.439 . S
O103 C104 1.208 . S
C104 O102 1.247 . S
C104 O103 1.208 . S
C105 O110 1.247 . S
C105 O111 1.208 . S
C106 O98 1.315 . S
C106 O101 1.279 . S
C107 O108 1.315 . S
C107 O109 1.279 . S
O108 Cd100 2.223 . S
O108 C107 1.315 . S
O109 Cd99 2.240 . S
O109 C107 1.279 . S
O110 Cd100 2.297 . S
O110 C105 1.247 . S
O111 Cd100 2.439 . S
O111 C105 1.208 . S
O112 Cd113 2.223 . S
O112 C120 1.315 . S
Cd113 O112 2.223 . S
Cd113 O116 2.297 . S
Cd113 O117 2.439 . S
Cd113 O123 2.240 . S
Cd114 O115 2.240 . S
Cd114 O122 2.223 . S
Cd114 O124 2.297 . S
Cd114 O125 2.439 . S
O115 Cd114 2.240 . S
O115 C120 1.279 . S
O116 Cd113 2.297 . S
O116 C118 1.247 . S
O117 Cd113 2.439 . S
O117 C118 1.208 . S
C118 O116 1.247 . S
C118 O117 1.208 . S
C119 O124 1.247 . S
C119 O125 1.208 . S
C120 O112 1.315 . S
C120 O115 1.279 . S
C121 O122 1.315 . S
C121 O123 1.279 . S
O122 Cd114 2.223 . S
O122 C121 1.315 . S
O123 Cd113 2.240 . S
O123 C121 1.279 . S
O124 Cd114 2.297 . S
O124 C119 1.247 . S
O125 Cd114 2.439 . S
O125 C119 1.208 . S
O126 Cd127 2.223 . S
O126 C134 1.315 . S
Cd127 O126 2.223 . S
Cd127 O130 2.297 . S
Cd127 O131 2.439 . S
Cd127 O137 2.240 . S
Cd128 O129 2.240 . S
Cd128 O136 2.223 . S
Cd128 O138 2.297 . S
Cd128 O139 2.439 . S
O129 Cd128 2.240 . S
O129 C134 1.279 . S
O130 Cd127 2.297 . S
O130 C132 1.247 . S
O131 Cd127 2.439 . S
O131 C132 1.208 . S
C132 O130 1.247 . S
C132 O131 1.208 . S
C133 O138 1.247 . S
C133 O139 1.208 . S
C134 O126 1.315 . S
C134 O129 1.279 . S
C135 O136 1.315 . S
C135 O137 1.279 . S
O136 Cd128 2.223 . S
O136 C135 1.315 . S
O137 Cd127 2.240 . S
O137 C135 1.279 . S
O138 Cd128 2.297 . S
O138 C133 1.247 . S
O139 Cd128 2.439 . S
O139 C133 1.208 . S
O140 Cd141 2.223 . S
O140 C148 1.315 . S
Cd141 O140 2.223 . S
Cd141 O144 2.297 . S
Cd141 O145 2.439 . S
Cd141 O151 2.240 . S
Cd142 O143 2.240 . S
Cd142 O150 2.223 . S
Cd142 O152 2.297 . S
Cd142 O153 2.439 . S
O143 Cd142 2.240 . S
O143 C148 1.279 . S
O144 Cd141 2.297 . S
O144 C146 1.247 . S
O145 Cd141 2.439 . S
O145 C146 1.208 . S
C146 O144 1.247 . S
C146 O145 1.208 . S
C147 O152 1.247 1_554 S
C147 O153 1.208 1_554 S
C148 O140 1.315 . S
C148 O143 1.279 . S
C149 O150 1.315 . S
C149 O151 1.279 . S
O150 Cd142 2.223 . S
O150 C149 1.315 . S
O151 Cd141 2.240 . S
O151 C149 1.279 . S
O152 Cd142 2.297 . S
O152 C147 1.247 1_556 S
O153 Cd142 2.439 . S
O153 C147 1.208 1_556 S
O154 Cd155 2.223 . S
O154 C162 1.315 . S
Cd155 O154 2.223 . S
Cd155 O158 2.297 . S
Cd155 O159 2.439 . S
Cd155 O165 2.240 . S
Cd156 O157 2.240 . S
Cd156 O164 2.223 . S
Cd156 O166 2.297 . S
Cd156 O167 2.439 . S
O157 Cd156 2.240 . S
O157 C162 1.279 . S
O158 Cd155 2.297 . S
O158 C160 1.247 . S
O159 Cd155 2.439 . S
O159 C160 1.208 . S
C160 O158 1.247 . S
C160 O159 1.208 . S
C161 O166 1.247 1_565 S
C161 O167 1.208 1_565 S
C162 O154 1.315 . S
C162 O157 1.279 . S
C163 O164 1.315 . S
C163 O165 1.279 . S
O164 Cd156 2.223 . S
O164 C163 1.315 . S
O165 Cd155 2.240 . S
O165 C163 1.279 . S
O166 Cd156 2.297 . S
O166 C161 1.247 1_545 S
O167 Cd156 2.439 . S
O167 C161 1.208 1_545 S
O168 Cd169 2.223 . S
O168 C176 1.315 . S
Cd169 O168 2.223 . S
Cd169 O172 2.297 . S
Cd169 O173 2.439 . S
Cd169 O179 2.240 . S
Cd170 O171 2.240 . S
Cd170 O178 2.223 . S
Cd170 O180 2.297 . S
Cd170 O181 2.439 . S
O171 Cd170 2.240 . S
O171 C176 1.279 . S
O172 Cd169 2.297 . S
O172 C174 1.247 . S
O173 Cd169 2.439 . S
O173 C174 1.208 . S
C174 O172 1.247 . S
C174 O173 1.208 . S
C175 O180 1.247 . S
C175 O181 1.208 . S
C176 O168 1.315 . S
C176 O171 1.279 . S
C177 O178 1.315 . S
C177 O179 1.279 . S
O178 Cd170 2.223 . S
O178 C177 1.315 . S
O179 Cd169 2.240 . S
O179 C177 1.279 . S
O180 Cd170 2.297 . S
O180 C175 1.247 . S
O181 Cd170 2.439 . S
O181 C175 1.208 . S
O182 Cd183 2.223 . S
O182 C190 1.315 . S
Cd183 O182 2.223 . S
Cd183 O186 2.297 . S
Cd183 O187 2.439 . S
Cd183 O193 2.240 . S
Cd184 O185 2.240 . S
Cd184 O192 2.223 . S
Cd184 O194 2.297 . S
Cd184 O195 2.439 . S
O185 Cd184 2.240 . S
O185 C190 1.279 . S
O186 Cd183 2.297 . S
O186 C188 1.247 1_455 S
O187 Cd183 2.439 . S
O187 C188 1.208 1_455 S
C188 O186 1.247 1_655 S
C188 O187 1.208 1_655 S
C189 O194 1.247 . S
C189 O195 1.208 . S
C190 O182 1.315 . S
C190 O185 1.279 . S
C191 O192 1.315 . S
C191 O193 1.279 . S
O192 Cd184 2.223 . S
O192 C191 1.315 . S
O193 Cd183 2.240 . S
O193 C191 1.279 . S
O194 Cd184 2.297 . S
O194 C189 1.247 . S
O195 Cd184 2.439 . S
O195 C189 1.208 . S
O196 Cd197 2.223 . S
O196 C204 1.315 . S
Cd197 O196 2.223 . S
Cd197 O200 2.297 . S
Cd197 O201 2.439 . S
Cd197 O207 2.240 . S
Cd198 O199 2.240 . S
Cd198 O206 2.223 . S
Cd198 O208 2.297 . S
Cd198 O209 2.439 . S
O199 Cd198 2.240 . S
O199 C204 1.279 . S
O200 Cd197 2.297 . S
O200 C202 1.247 . S
O201 Cd197 2.439 . S
O201 C202 1.208 . S
C202 O200 1.247 . S
C202 O201 1.208 . S
C203 O208 1.247 . S
C203 O209 1.208 . S
C204 O196 1.315 . S
C204 O199 1.279 . S
C205 O206 1.315 . S
C205 O207 1.279 . S
O206 Cd198 2.223 . S
O206 C205 1.315 . S
O207 Cd197 2.240 . S
O207 C205 1.279 . S
O208 Cd198 2.297 . S
O208 C203 1.247 . S
O209 Cd198 2.439 . S
O209 C203 1.208 . S
O210 Cd211 2.223 . S
O210 C218 1.315 . S
Cd211 O210 2.223 . S
Cd211 O214 2.297 . S
Cd211 O215 2.439 . S
Cd211 O221 2.240 . S
Cd212 O213 2.240 . S
Cd212 O220 2.223 . S
Cd212 O222 2.297 . S
Cd212 O223 2.439 . S
O213 Cd212 2.240 . S
O213 C218 1.279 . S
O214 Cd211 2.297 . S
O214 C216 1.247 . S
O215 Cd211 2.439 . S
O215 C216 1.208 . S
C216 O214 1.247 . S
C216 O215 1.208 . S
C217 O222 1.247 1_455 S
C217 O223 1.208 1_455 S
C218 O210 1.315 . S
C218 O213 1.279 . S
C219 O220 1.315 . S
C219 O221 1.279 . S
O220 Cd212 2.223 . S
O220 C219 1.315 . S
O221 Cd211 2.240 . S
O221 C219 1.279 . S
O222 Cd212 2.297 . S
O222 C217 1.247 1_655 S
O223 Cd212 2.439 . S
O223 C217 1.208 1_655 S
O224 Cd225 2.223 . S
O224 C232 1.315 . S
Cd225 O224 2.223 . S
Cd225 O228 2.297 . S
Cd225 O229 2.439 . S
Cd225 O235 2.240 . S
Cd226 O227 2.240 . S
Cd226 O234 2.223 . S
Cd226 O236 2.297 . S
Cd226 O237 2.439 . S
O227 Cd226 2.240 . S
O227 C232 1.279 . S
O228 Cd225 2.297 . S
O228 C230 1.247 1_455 S
O229 Cd225 2.439 . S
O229 C230 1.208 1_455 S
C230 O228 1.247 1_655 S
C230 O229 1.208 1_655 S
C231 O236 1.247 . S
C231 O237 1.208 . S
C232 O224 1.315 . S
C232 O227 1.279 . S
C233 O234 1.315 . S
C233 O235 1.279 . S
O234 Cd226 2.223 . S
O234 C233 1.315 . S
O235 Cd225 2.240 . S
O235 C233 1.279 . S
O236 Cd226 2.297 . S
O236 C231 1.247 . S
O237 Cd226 2.439 . S
O237 C231 1.208 . S
O238 Cd239 2.223 . S
O238 C246 1.315 . S
Cd239 O238 2.223 . S
Cd239 O242 2.297 . S
Cd239 O243 2.439 . S
Cd239 O249 2.240 . S
Cd240 O241 2.240 . S
Cd240 O248 2.223 . S
Cd240 O250 2.297 . S
Cd240 O251 2.439 . S
O241 Cd240 2.240 . S
O241 C246 1.279 . S
O242 Cd239 2.297 . S
O242 C244 1.247 . S
O243 Cd239 2.439 . S
O243 C244 1.208 . S
C244 O242 1.247 . S
C244 O243 1.208 . S
C245 O250 1.247 . S
C245 O251 1.208 . S
C246 O238 1.315 . S
C246 O241 1.279 . S
C247 O248 1.315 . S
C247 O249 1.279 . S
O248 Cd240 2.223 . S
O248 C247 1.315 . S
O249 Cd239 2.240 . S
O249 C247 1.279 . S
O250 Cd240 2.297 . S
O250 C245 1.247 . S
O251 Cd240 2.439 . S
O251 C245 1.208 . S
O252 Cd253 2.223 . S
O252 C260 1.315 . S
Cd253 O252 2.223 . S
Cd253 O256 2.297 . S
Cd253 O257 2.439 . S
Cd253 O263 2.240 . S
Cd254 O255 2.240 . S
Cd254 O262 2.223 . S
Cd254 O264 2.297 . S
Cd254 O265 2.439 . S
O255 Cd254 2.240 . S
O255 C260 1.279 . S
O256 Cd253 2.297 . S
O256 C258 1.247 . S
O257 Cd253 2.439 . S
O257 C258 1.208 . S
C258 O256 1.247 . S
C258 O257 1.208 . S
C259 O264 1.247 . S
C259 O265 1.208 . S
C260 O252 1.315 . S
C260 O255 1.279 . S
C261 O262 1.315 . S
C261 O263 1.279 . S
O262 Cd254 2.223 . S
O262 C261 1.315 . S
O263 Cd253 2.240 . S
O263 C261 1.279 . S
O264 Cd254 2.297 . S
O264 C259 1.247 . S
O265 Cd254 2.439 . S
O265 C259 1.208 . S
O266 Cd267 2.223 . S
O266 C274 1.315 . S
Cd267 O266 2.223 . S
Cd267 O270 2.297 . S
Cd267 O271 2.439 . S
Cd267 O277 2.240 . S
Cd268 O269 2.240 . S
Cd268 O276 2.223 . S
Cd268 O278 2.297 . S
Cd268 O279 2.439 . S
O269 Cd268 2.240 . S
O269 C274 1.279 . S
O270 Cd267 2.297 . S
O270 C272 1.247 . S
O271 Cd267 2.439 . S
O271 C272 1.208 . S
C272 O270 1.247 . S
C272 O271 1.208 . S
C273 O278 1.247 . S
C273 O279 1.208 . S
C274 O266 1.315 . S
C274 O269 1.279 . S
C275 O276 1.315 . S
C275 O277 1.279 . S
O276 Cd268 2.223 . S
O276 C275 1.315 . S
O277 Cd267 2.240 . S
O277 C275 1.279 . S
O278 Cd268 2.297 . S
O278 C273 1.247 . S
O279 Cd268 2.439 . S
O279 C273 1.208 . S
O280 Cd281 2.223 . S
O280 C288 1.315 . S
Cd281 O280 2.223 . S
Cd281 O284 2.297 . S
Cd281 O285 2.439 . S
Cd281 O291 2.240 . S
Cd282 O283 2.240 . S
Cd282 O290 2.223 . S
Cd282 O292 2.297 . S
Cd282 O293 2.439 . S
O283 Cd282 2.240 . S
O283 C288 1.279 . S
O284 Cd281 2.297 . S
O284 C286 1.247 . S
O285 Cd281 2.439 . S
O285 C286 1.208 . S
C286 O284 1.247 . S
C286 O285 1.208 . S
C287 O292 1.247 1_565 S
C287 O293 1.208 1_565 S
C288 O280 1.315 . S
C288 O283 1.279 . S
C289 O290 1.315 . S
C289 O291 1.279 . S
O290 Cd282 2.223 . S
O290 C289 1.315 . S
O291 Cd281 2.240 . S
O291 C289 1.279 . S
O292 Cd282 2.297 . S
O292 C287 1.247 1_545 S
O293 Cd282 2.439 . S
O293 C287 1.208 1_545 S
O294 Cd295 2.223 . S
O294 C302 1.315 . S
Cd295 O294 2.223 . S
Cd295 O298 2.297 . S
Cd295 O299 2.439 . S
Cd295 O305 2.240 . S
Cd296 O297 2.240 . S
Cd296 O304 2.223 . S
Cd296 O306 2.297 . S
Cd296 O307 2.439 . S
O297 Cd296 2.240 . S
O297 C302 1.279 . S
O298 Cd295 2.297 . S
O298 C300 1.247 . S
O299 Cd295 2.439 . S
O299 C300 1.208 . S
C300 O298 1.247 . S
C300 O299 1.208 . S
C301 O306 1.247 1_554 S
C301 O307 1.208 1_554 S
C302 O294 1.315 . S
C302 O297 1.279 . S
C303 O304 1.315 . S
C303 O305 1.279 . S
O304 Cd296 2.223 . S
O304 C303 1.315 . S
O305 Cd295 2.240 . S
O305 C303 1.279 . S
O306 Cd296 2.297 . S
O306 C301 1.247 1_556 S
O307 Cd296 2.439 . S
O307 C301 1.208 1_556 S
O308 Cd309 2.223 . S
O308 C316 1.315 . S
Cd309 O308 2.223 . S
Cd309 O312 2.297 . S
Cd309 O313 2.439 . S
Cd309 O319 2.240 . S
Cd310 O311 2.240 . S
Cd310 O318 2.223 . S
Cd310 O320 2.297 . S
Cd310 O321 2.439 . S
O311 Cd310 2.240 . S
O311 C316 1.279 . S
O312 Cd309 2.297 . S
O312 C314 1.247 . S
O313 Cd309 2.439 . S
O313 C314 1.208 . S
C314 O312 1.247 . S
C314 O313 1.208 . S
C315 O320 1.247 . S
C315 O321 1.208 . S
C316 O308 1.315 . S
C316 O311 1.279 . S
C317 O318 1.315 . S
C317 O319 1.279 . S
O318 Cd310 2.223 . S
O318 C317 1.315 . S
O319 Cd309 2.240 . S
O319 C317 1.279 . S
O320 Cd310 2.297 . S
O320 C315 1.247 . S
O321 Cd310 2.439 . S
O321 C315 1.208 . S
O322 Cd323 2.223 . S
O322 C330 1.315 . S
Cd323 O322 2.223 . S
Cd323 O326 2.297 . S
Cd323 O327 2.439 . S
Cd323 O333 2.240 . S
Cd324 O325 2.240 . S
Cd324 O332 2.223 . S
Cd324 O334 2.297 . S
Cd324 O335 2.439 . S
O325 Cd324 2.240 . S
O325 C330 1.279 . S
O326 Cd323 2.297 . S
O326 C328 1.247 . S
O327 Cd323 2.439 . S
O327 C328 1.208 . S
C328 O326 1.247 . S
C328 O327 1.208 . S
C329 O334 1.247 . S
C329 O335 1.208 . S
C330 O322 1.315 . S
C330 O325 1.279 . S
C331 O332 1.315 . S
C331 O333 1.279 . S
O332 Cd324 2.223 . S
O332 C331 1.315 . S
O333 Cd323 2.240 . S
O333 C331 1.279 . S
O334 Cd324 2.297 . S
O334 C329 1.247 . S
O335 Cd324 2.439 . S
O335 C329 1.208 . S
O336 Cd337 2.223 . S
O336 C344 1.315 . S
Cd337 O336 2.223 . S
Cd337 O340 2.297 . S
Cd337 O341 2.439 . S
Cd337 O347 2.240 . S
Cd338 O339 2.240 . S
Cd338 O346 2.223 . S
Cd338 O348 2.297 . S
Cd338 O349 2.439 . S
O339 Cd338 2.240 . S
O339 C344 1.279 . S
O340 Cd337 2.297 . S
O340 C342 1.247 1_565 S
O341 Cd337 2.439 . S
O341 C342 1.208 1_565 S
C342 O340 1.247 1_545 S
C342 O341 1.208 1_545 S
C343 O348 1.247 . S
C343 O349 1.208 . S
C344 O336 1.315 . S
C344 O339 1.279 . S
C345 O346 1.315 . S
C345 O347 1.279 . S
O346 Cd338 2.223 . S
O346 C345 1.315 . S
O347 Cd337 2.240 . S
O347 C345 1.279 . S
O348 Cd338 2.297 . S
O348 C343 1.247 . S
O349 Cd338 2.439 . S
O349 C343 1.208 . S
O350 Cd351 2.223 . S
O350 C358 1.315 . S
Cd351 O350 2.223 . S
Cd351 O354 2.297 . S
Cd351 O355 2.439 . S
Cd351 O361 2.240 . S
Cd352 O353 2.240 . S
Cd352 O360 2.223 . S
Cd352 O362 2.297 . S
Cd352 O363 2.439 . S
O353 Cd352 2.240 . S
O353 C358 1.279 . S
O354 Cd351 2.297 . S
O354 C356 1.247 . S
O355 Cd351 2.439 . S
O355 C356 1.208 . S
C356 O354 1.247 . S
C356 O355 1.208 . S
C357 O362 1.247 . S
C357 O363 1.208 . S
C358 O350 1.315 . S
C358 O353 1.279 . S
C359 O360 1.315 . S
C359 O361 1.279 . S
O360 Cd352 2.223 . S
O360 C359 1.315 . S
O361 Cd351 2.240 . S
O361 C359 1.279 . S
O362 Cd352 2.297 . S
O362 C357 1.247 . S
O363 Cd352 2.439 . S
O363 C357 1.208 . S
O364 Cd365 2.223 . S
O364 C372 1.315 . S
Cd365 O364 2.223 . S
Cd365 O368 2.297 . S
Cd365 O369 2.439 . S
Cd365 O375 2.240 . S
Cd366 O367 2.240 . S
Cd366 O374 2.223 . S
Cd366 O376 2.297 . S
Cd366 O377 2.439 . S
O367 Cd366 2.240 . S
O367 C372 1.279 . S
O368 Cd365 2.297 . S
O368 C370 1.247 . S
O369 Cd365 2.439 . S
O369 C370 1.208 . S
C370 O368 1.247 . S
C370 O369 1.208 . S
C371 O376 1.247 . S
C371 O377 1.208 . S
C372 O364 1.315 . S
C372 O367 1.279 . S
C373 O374 1.315 . S
C373 O375 1.279 . S
O374 Cd366 2.223 . S
O374 C373 1.315 . S
O375 Cd365 2.240 . S
O375 C373 1.279 . S
O376 Cd366 2.297 . S
O376 C371 1.247 . S
O377 Cd366 2.439 . S
O377 C371 1.208 . S
O378 Cd379 2.223 . S
O378 C386 1.315 . S
Cd379 O378 2.223 . S
Cd379 O382 2.297 . S
Cd379 O383 2.439 . S
Cd379 O389 2.240 . S
Cd380 O381 2.240 . S
Cd380 O388 2.223 . S
Cd380 O390 2.297 . S
Cd380 O391 2.439 . S
O381 Cd380 2.240 . S
O381 C386 1.279 . S
O382 Cd379 2.297 . S
O382 C384 1.247 1_554 S
O383 Cd379 2.439 . S
O383 C384 1.208 1_554 S
C384 O382 1.247 1_556 S
C384 O383 1.208 1_556 S
C385 O390 1.247 . S
C385 O391 1.208 . S
C386 O378 1.315 . S
C386 O381 1.279 . S
C387 O388 1.315 . S
C387 O389 1.279 . S
O388 Cd380 2.223 . S
O388 C387 1.315 . S
O389 Cd379 2.240 . S
O389 C387 1.279 . S
O390 Cd380 2.297 . S
O390 C385 1.247 . S
O391 Cd380 2.439 . S
O391 C385 1.208 . S
O392 Cd393 2.223 . S
O392 C400 1.315 . S
Cd393 O392 2.223 . S
Cd393 O396 2.297 . S
Cd393 O397 2.439 . S
Cd393 O403 2.240 . S
Cd394 O395 2.240 . S
Cd394 O402 2.223 . S
Cd394 O404 2.297 . S
Cd394 O405 2.439 . S
O395 Cd394 2.240 . S
O395 C400 1.279 . S
O396 Cd393 2.297 . S
O396 C398 1.247 . S
O397 Cd393 2.439 . S
O397 C398 1.208 . S
C398 O396 1.247 . S
C398 O397 1.208 . S
C399 O404 1.247 1_554 S
C399 O405 1.208 1_554 S
C400 O392 1.315 . S
C400 O395 1.279 . S
C401 O402 1.315 . S
C401 O403 1.279 . S
O402 Cd394 2.223 . S
O402 C401 1.315 . S
O403 Cd393 2.240 . S
O403 C401 1.279 . S
O404 Cd394 2.297 . S
O404 C399 1.247 1_556 S
O405 Cd394 2.439 . S
O405 C399 1.208 1_556 S
O406 Cd407 2.223 . S
O406 C414 1.315 . S
Cd407 O406 2.223 . S
Cd407 O410 2.297 . S
Cd407 O411 2.439 . S
Cd407 O417 2.240 . S
Cd408 O409 2.240 . S
Cd408 O416 2.223 . S
Cd408 O418 2.297 . S
Cd408 O419 2.439 . S
O409 Cd408 2.240 . S
O409 C414 1.279 . S
O410 Cd407 2.297 . S
O410 C412 1.247 . S
O411 Cd407 2.439 . S
O411 C412 1.208 . S
C412 O410 1.247 . S
C412 O411 1.208 . S
C413 O418 1.247 1_545 S
C413 O419 1.208 1_545 S
C414 O406 1.315 . S
C414 O409 1.279 . S
C415 O416 1.315 . S
C415 O417 1.279 . S
O416 Cd408 2.223 . S
O416 C415 1.315 . S
O417 Cd407 2.240 . S
O417 C415 1.279 . S
O418 Cd408 2.297 . S
O418 C413 1.247 1_565 S
O419 Cd408 2.439 . S
O419 C413 1.208 1_565 S
O420 Cd421 2.223 . S
O420 C428 1.315 . S
Cd421 O420 2.223 . S
Cd421 O424 2.297 . S
Cd421 O425 2.439 . S
Cd421 O431 2.240 . S
Cd422 O423 2.240 . S
Cd422 O430 2.223 . S
Cd422 O432 2.297 . S
Cd422 O433 2.439 . S
O423 Cd422 2.240 . S
O423 C428 1.279 . S
O424 Cd421 2.297 . S
O424 C426 1.247 . S
O425 Cd421 2.439 . S
O425 C426 1.208 . S
C426 O424 1.247 . S
C426 O425 1.208 . S
C427 O432 1.247 . S
C427 O433 1.208 . S
C428 O420 1.315 . S
C428 O423 1.279 . S
C429 O430 1.315 . S
C429 O431 1.279 . S
O430 Cd422 2.223 . S
O430 C429 1.315 . S
O431 Cd421 2.240 . S
O431 C429 1.279 . S
O432 Cd422 2.297 . S
O432 C427 1.247 . S
O433 Cd422 2.439 . S
O433 C427 1.208 . S
O434 Cd435 2.223 . S
O434 C442 1.315 . S
Cd435 O434 2.223 . S
Cd435 O438 2.297 . S
Cd435 O439 2.439 . S
Cd435 O445 2.240 . S
Cd436 O437 2.240 . S
Cd436 O444 2.223 . S
Cd436 O446 2.297 . S
Cd436 O447 2.439 . S
O437 Cd436 2.240 . S
O437 C442 1.279 . S
O438 Cd435 2.297 . S
O438 C440 1.247 . S
O439 Cd435 2.439 . S
O439 C440 1.208 . S
C440 O438 1.247 . S
C440 O439 1.208 . S
C441 O446 1.247 . S
C441 O447 1.208 . S
C442 O434 1.315 . S
C442 O437 1.279 . S
C443 O444 1.315 . S
C443 O445 1.279 . S
O444 Cd436 2.223 . S
O444 C443 1.315 . S
O445 Cd435 2.240 . S
O445 C443 1.279 . S
O446 Cd436 2.297 . S
O446 C441 1.247 . S
O447 Cd436 2.439 . S
O447 C441 1.208 . S
O448 Cd449 2.223 . S
O448 C456 1.315 . S
Cd449 O448 2.223 . S
Cd449 O452 2.297 . S
Cd449 O453 2.439 . S
Cd449 O459 2.240 . S
Cd450 O451 2.240 . S
Cd450 O458 2.223 . S
Cd450 O460 2.297 . S
Cd450 O461 2.439 . S
O451 Cd450 2.240 . S
O451 C456 1.279 . S
O452 Cd449 2.297 . S
O452 C454 1.247 . S
O453 Cd449 2.439 . S
O453 C454 1.208 . S
C454 O452 1.247 . S
C454 O453 1.208 . S
C455 O460 1.247 . S
C455 O461 1.208 . S
C456 O448 1.315 . S
C456 O451 1.279 . S
C457 O458 1.315 . S
C457 O459 1.279 . S
O458 Cd450 2.223 . S
O458 C457 1.315 . S
O459 Cd449 2.240 . S
O459 C457 1.279 . S
O460 Cd450 2.297 . S
O460 C455 1.247 . S
O461 Cd450 2.439 . S
O461 C455 1.208 . S
O462 Cd463 2.223 . S
O462 C470 1.315 . S
Cd463 O462 2.223 . S
Cd463 O466 2.297 . S
Cd463 O467 2.439 . S
Cd463 O473 2.240 . S
Cd464 O465 2.240 . S
Cd464 O472 2.223 . S
Cd464 O474 2.297 . S
Cd464 O475 2.439 . S
O465 Cd464 2.240 . S
O465 C470 1.279 . S
O466 Cd463 2.297 . S
O466 C468 1.247 1_455 S
O467 Cd463 2.439 . S
O467 C468 1.208 1_455 S
C468 O466 1.247 1_655 S
C468 O467 1.208 1_655 S
C469 O474 1.247 . S
C469 O475 1.208 . S
C470 O462 1.315 . S
C470 O465 1.279 . S
C471 O472 1.315 . S
C471 O473 1.279 . S
O472 Cd464 2.223 . S
O472 C471 1.315 . S
O473 Cd463 2.240 . S
O473 C471 1.279 . S
O474 Cd464 2.297 . S
O474 C469 1.247 . S
O475 Cd464 2.439 . S
O475 C469 1.208 . S
O476 Cd477 2.223 . S
O476 C484 1.315 . S
Cd477 O476 2.223 . S
Cd477 O480 2.297 . S
Cd477 O481 2.439 . S
Cd477 O487 2.240 . S
Cd478 O479 2.240 . S
Cd478 O486 2.223 . S
Cd478 O488 2.297 . S
Cd478 O489 2.439 . S
O479 Cd478 2.240 . S
O479 C484 1.279 . S
O480 Cd477 2.297 . S
O480 C482 1.247 . S
O481 Cd477 2.439 . S
O481 C482 1.208 . S
C482 O480 1.247 . S
C482 O481 1.208 . S
C483 O488 1.247 1_455 S
C483 O489 1.208 1_455 S
C484 O476 1.315 . S
C484 O479 1.279 . S
C485 O486 1.315 . S
C485 O487 1.279 . S
O486 Cd478 2.223 . S
O486 C485 1.315 . S
O487 Cd477 2.240 . S
O487 C485 1.279 . S
O488 Cd478 2.297 . S
O488 C483 1.247 1_655 S
O489 Cd478 2.439 . S
O489 C483 1.208 1_655 S
O490 Cd491 2.223 . S
O490 C498 1.315 . S
Cd491 O490 2.223 . S
Cd491 O494 2.297 . S
Cd491 O495 2.439 . S
Cd491 O501 2.240 . S
Cd492 O493 2.240 . S
Cd492 O500 2.223 . S
Cd492 O502 2.297 . S
Cd492 O503 2.439 . S
O493 Cd492 2.240 . S
O493 C498 1.279 . S
O494 Cd491 2.297 . S
O494 C496 1.247 1_455 S
O495 Cd491 2.439 . S
O495 C496 1.208 1_455 S
C496 O494 1.247 1_655 S
C496 O495 1.208 1_655 S
C497 O502 1.247 . S
C497 O503 1.208 . S
C498 O490 1.315 . S
C498 O493 1.279 . S
C499 O500 1.315 . S
C499 O501 1.279 . S
O500 Cd492 2.223 . S
O500 C499 1.315 . S
O501 Cd491 2.240 . S
O501 C499 1.279 . S
O502 Cd492 2.297 . S
O502 C497 1.247 . S
O503 Cd492 2.439 . S
O503 C497 1.208 . S
O504 Cd505 2.223 . S
O504 C512 1.315 . S
Cd505 O504 2.223 . S
Cd505 O508 2.297 . S
Cd505 O509 2.439 . S
Cd505 O515 2.240 . S
Cd506 O507 2.240 . S
Cd506 O514 2.223 . S
Cd506 O516 2.297 . S
Cd506 O517 2.439 . S
O507 Cd506 2.240 . S
O507 C512 1.279 . S
O508 Cd505 2.297 . S
O508 C510 1.247 . S
O509 Cd505 2.439 . S
O509 C510 1.208 . S
C510 O508 1.247 . S
C510 O509 1.208 . S
C511 O516 1.247 . S
C511 O517 1.208 . S
C512 O504 1.315 . S
C512 O507 1.279 . S
C513 O514 1.315 . S
C513 O515 1.279 . S
O514 Cd506 2.223 . S
O514 C513 1.315 . S
O515 Cd505 2.240 . S
O515 C513 1.279 . S
O516 Cd506 2.297 . S
O516 C511 1.247 . S
O517 Cd506 2.439 . S
O517 C511 1.208 . S
O518 Cd519 2.223 . S
O518 C526 1.315 . S
Cd519 O518 2.223 . S
Cd519 O522 2.297 . S
Cd519 O523 2.439 . S
Cd519 O529 2.240 . S
Cd520 O521 2.240 . S
Cd520 O528 2.223 . S
Cd520 O530 2.297 . S
Cd520 O531 2.439 . S
O521 Cd520 2.240 . S
O521 C526 1.279 . S
O522 Cd519 2.297 . S
O522 C524 1.247 . S
O523 Cd519 2.439 . S
O523 C524 1.208 . S
C524 O522 1.247 . S
C524 O523 1.208 . S
C525 O530 1.247 . S
C525 O531 1.208 . S
C526 O518 1.315 . S
C526 O521 1.279 . S
C527 O528 1.315 . S
C527 O529 1.279 . S
O528 Cd520 2.223 . S
O528 C527 1.315 . S
O529 Cd519 2.240 . S
O529 C527 1.279 . S
O530 Cd520 2.297 . S
O530 C525 1.247 . S
O531 Cd520 2.439 . S
O531 C525 1.208 . S
O532 Cd533 2.223 . S
O532 C540 1.315 . S
Cd533 O532 2.223 . S
Cd533 O536 2.297 . S
Cd533 O537 2.439 . S
Cd533 O543 2.240 . S
Cd534 O535 2.240 . S
Cd534 O542 2.223 . S
Cd534 O544 2.297 . S
Cd534 O545 2.439 . S
O535 Cd534 2.240 . S
O535 C540 1.279 . S
O536 Cd533 2.297 . S
O536 C538 1.247 . S
O537 Cd533 2.439 . S
O537 C538 1.208 . S
C538 O536 1.247 . S
C538 O537 1.208 . S
C539 O544 1.247 . S
C539 O545 1.208 . S
C540 O532 1.315 . S
C540 O535 1.279 . S
C541 O542 1.315 . S
C541 O543 1.279 . S
O542 Cd534 2.223 . S
O542 C541 1.315 . S
O543 Cd533 2.240 . S
O543 C541 1.279 . S
O544 Cd534 2.297 . S
O544 C539 1.247 . S
O545 Cd534 2.439 . S
O545 C539 1.208 . S
O546 Cd547 2.223 . S
O546 C554 1.315 . S
Cd547 O546 2.223 . S
Cd547 O550 2.297 . S
Cd547 O551 2.439 . S
Cd547 O557 2.240 . S
Cd548 O549 2.240 . S
Cd548 O556 2.223 . S
Cd548 O558 2.297 . S
Cd548 O559 2.439 . S
O549 Cd548 2.240 . S
O549 C554 1.279 . S
O550 Cd547 2.297 . S
O550 C552 1.247 . S
O551 Cd547 2.439 . S
O551 C552 1.208 . S
C552 O550 1.247 . S
C552 O551 1.208 . S
C553 O558 1.247 . S
C553 O559 1.208 . S
C554 O546 1.315 . S
C554 O549 1.279 . S
C555 O556 1.315 . S
C555 O557 1.279 . S
O556 Cd548 2.223 . S
O556 C555 1.315 . S
O557 Cd547 2.240 . S
O557 C555 1.279 . S
O558 Cd548 2.297 . S
O558 C553 1.247 . S
O559 Cd548 2.439 . S
O559 C553 1.208 . S
O560 Cd561 2.223 . S
O560 C568 1.315 . S
Cd561 O560 2.223 . S
Cd561 O564 2.297 . S
Cd561 O565 2.439 . S
Cd561 O571 2.240 . S
Cd562 O563 2.240 . S
Cd562 O570 2.223 . S
Cd562 O572 2.297 . S
Cd562 O573 2.439 . S
O563 Cd562 2.240 . S
O563 C568 1.279 . S
O564 Cd561 2.297 . S
O564 C566 1.247 1_545 S
O565 Cd561 2.439 . S
O565 C566 1.208 1_545 S
C566 O564 1.247 1_565 S
C566 O565 1.208 1_565 S
C567 O572 1.247 . S
C567 O573 1.208 . S
C568 O560 1.315 . S
C568 O563 1.279 . S
C569 O570 1.315 . S
C569 O571 1.279 . S
O570 Cd562 2.223 . S
O570 C569 1.315 . S
O571 Cd561 2.240 . S
O571 C569 1.279 . S
O572 Cd562 2.297 . S
O572 C567 1.247 . S
O573 Cd562 2.439 . S
O573 C567 1.208 . S
O574 Cd575 2.223 . S
O574 C582 1.315 . S
Cd575 O574 2.223 . S
Cd575 O578 2.297 . S
Cd575 O579 2.439 . S
Cd575 O585 2.240 . S
Cd576 O577 2.240 . S
Cd576 O584 2.223 . S
Cd576 O586 2.297 . S
Cd576 O587 2.439 . S
O577 Cd576 2.240 . S
O577 C582 1.279 . S
O578 Cd575 2.297 . S
O578 C580 1.247 1_554 S
O579 Cd575 2.439 . S
O579 C580 1.208 1_554 S
C580 O578 1.247 1_556 S
C580 O579 1.208 1_556 S
C581 O586 1.247 . S
C581 O587 1.208 . S
C582 O574 1.315 . S
C582 O577 1.279 . S
C583 O584 1.315 . S
C583 O585 1.279 . S
O584 Cd576 2.223 . S
O584 C583 1.315 . S
O585 Cd575 2.240 . S
O585 C583 1.279 . S
O586 Cd576 2.297 . S
O586 C581 1.247 . S
O587 Cd576 2.439 . S
O587 C581 1.208 . S
O588 Cd589 2.223 . S
O588 C596 1.315 . S
Cd589 O588 2.223 . S
Cd589 O592 2.297 . S
Cd589 O593 2.439 . S
Cd589 O599 2.240 . S
Cd590 O591 2.240 . S
Cd590 O598 2.223 . S
Cd590 O600 2.297 . S
Cd590 O601 2.439 . S
O591 Cd590 2.240 . S
O591 C596 1.279 . S
O592 Cd589 2.297 . S
O592 C594 1.247 1_655 S
O593 Cd589 2.439 . S
O593 C594 1.208 1_655 S
C594 O592 1.247 1_455 S
C594 O593 1.208 1_455 S
C595 O600 1.247 . S
C595 O601 1.208 . S
C596 O588 1.315 . S
C596 O591 1.279 . S
C597 O598 1.315 . S
C597 O599 1.279 . S
O598 Cd590 2.223 . S
O598 C597 1.315 . S
O599 Cd589 2.240 . S
O599 C597 1.279 . S
O600 Cd590 2.297 . S
O600 C595 1.247 . S
O601 Cd590 2.439 . S
O601 C595 1.208 . S
O602 Cd603 2.223 . S
O602 C610 1.315 . S
Cd603 O602 2.223 . S
Cd603 O606 2.297 . S
Cd603 O607 2.439 . S
Cd603 O613 2.240 . S
Cd604 O605 2.240 . S
Cd604 O612 2.223 . S
Cd604 O614 2.297 . S
Cd604 O615 2.439 . S
O605 Cd604 2.240 . S
O605 C610 1.279 . S
O606 Cd603 2.297 . S
O606 C608 1.247 1_655 S
O607 Cd603 2.439 . S
O607 C608 1.208 1_655 S
C608 O606 1.247 1_455 S
C608 O607 1.208 1_455 S
C609 O614 1.247 . S
C609 O615 1.208 . S
C610 O602 1.315 . S
C610 O605 1.279 . S
C611 O612 1.315 . S
C611 O613 1.279 . S
O612 Cd604 2.223 . S
O612 C611 1.315 . S
O613 Cd603 2.240 . S
O613 C611 1.279 . S
O614 Cd604 2.297 . S
O614 C609 1.247 . S
O615 Cd604 2.439 . S
O615 C609 1.208 . S
O616 Cd617 2.223 . S
O616 C624 1.315 . S
Cd617 O616 2.223 . S
Cd617 O620 2.297 . S
Cd617 O621 2.439 . S
Cd617 O627 2.240 . S
Cd618 O619 2.240 . S
Cd618 O626 2.223 . S
Cd618 O628 2.297 . S
Cd618 O629 2.439 . S
O619 Cd618 2.240 . S
O619 C624 1.279 . S
O620 Cd617 2.297 . S
O620 C622 1.247 1_565 S
O621 Cd617 2.439 . S
O621 C622 1.208 1_565 S
C622 O620 1.247 1_545 S
C622 O621 1.208 1_545 S
C623 O628 1.247 . S
C623 O629 1.208 . S
C624 O616 1.315 . S
C624 O619 1.279 . S
C625 O626 1.315 . S
C625 O627 1.279 . S
O626 Cd618 2.223 . S
O626 C625 1.315 . S
O627 Cd617 2.240 . S
O627 C625 1.279 . S
O628 Cd618 2.297 . S
O628 C623 1.247 . S
O629 Cd618 2.439 . S
O629 C623 1.208 . S
O630 Cd631 2.223 . S
O630 C638 1.315 . S
Cd631 O630 2.223 . S
Cd631 O634 2.297 . S
Cd631 O635 2.439 . S
Cd631 O641 2.240 . S
Cd632 O633 2.240 . S
Cd632 O640 2.223 . S
Cd632 O642 2.297 . S
Cd632 O643 2.439 . S
O633 Cd632 2.240 . S
O633 C638 1.279 . S
O634 Cd631 2.297 . S
O634 C636 1.247 1_554 S
O635 Cd631 2.439 . S
O635 C636 1.208 1_554 S
C636 O634 1.247 1_556 S
C636 O635 1.208 1_556 S
C637 O642 1.247 . S
C637 O643 1.208 . S
C638 O630 1.315 . S
C638 O633 1.279 . S
C639 O640 1.315 . S
C639 O641 1.279 . S
O640 Cd632 2.223 . S
O640 C639 1.315 . S
O641 Cd631 2.240 . S
O641 C639 1.279 . S
O642 Cd632 2.297 . S
O642 C637 1.247 . S
O643 Cd632 2.439 . S
O643 C637 1.208 . S
O644 Cd645 2.223 . S
O644 C652 1.315 . S
Cd645 O644 2.223 . S
Cd645 O648 2.297 . S
Cd645 O649 2.439 . S
Cd645 O655 2.240 . S
Cd646 O647 2.240 . S
Cd646 O654 2.223 . S
Cd646 O656 2.297 . S
Cd646 O657 2.439 . S
O647 Cd646 2.240 . S
O647 C652 1.279 . S
O648 Cd645 2.297 . S
O648 C650 1.247 . S
O649 Cd645 2.439 . S
O649 C650 1.208 . S
C650 O648 1.247 . S
C650 O649 1.208 . S
C651 O656 1.247 . S
C651 O657 1.208 . S
C652 O644 1.315 . S
C652 O647 1.279 . S
C653 O654 1.315 . S
C653 O655 1.279 . S
O654 Cd646 2.223 . S
O654 C653 1.315 . S
O655 Cd645 2.240 . S
O655 C653 1.279 . S
O656 Cd646 2.297 . S
O656 C651 1.247 . S
O657 Cd646 2.439 . S
O657 C651 1.208 . S
O658 Cd659 2.223 . S
O658 C666 1.315 . S
Cd659 O658 2.223 . S
Cd659 O662 2.297 . S
Cd659 O663 2.439 . S
Cd659 O669 2.240 . S
Cd660 O661 2.240 . S
Cd660 O668 2.223 . S
Cd660 O670 2.297 . S
Cd660 O671 2.439 . S
O661 Cd660 2.240 . S
O661 C666 1.279 . S
O662 Cd659 2.297 . S
O662 C664 1.247 . S
O663 Cd659 2.439 . S
O663 C664 1.208 . S
C664 O662 1.247 . S
C664 O663 1.208 . S
C665 O670 1.247 . S
C665 O671 1.208 . S
C666 O658 1.315 . S
C666 O661 1.279 . S
C667 O668 1.315 . S
C667 O669 1.279 . S
O668 Cd660 2.223 . S
O668 C667 1.315 . S
O669 Cd659 2.240 . S
O669 C667 1.279 . S
O670 Cd660 2.297 . S
O670 C665 1.247 . S
O671 Cd660 2.439 . S
O671 C665 1.208 . S
C672 C673 1.369 . S
C672 C674 1.419 . S
C672 H676 0.930 . S
C673 C672 1.369 . S
C673 C682 1.429 . S
C674 C672 1.419 . S
C674 C675 1.363 . S
C674 H677 0.929 . S
C675 C674 1.363 . S
C675 C681 1.428 . S
H676 C672 0.930 . S
H677 C674 0.929 . S
S678 N679 1.613 . S
S678 N680 1.610 . S
N679 S678 1.613 . S
N679 C682 1.350 . S
N680 S678 1.610 . S
N680 C681 1.351 . S
C681 C675 1.428 . S
C681 N680 1.351 . S
C681 C682 1.434 . S
C682 C673 1.429 . S
C682 N679 1.350 . S
C682 C681 1.434 . S
C683 C684 1.369 . S
C683 C685 1.419 . S
C683 H687 0.930 . S
C684 C683 1.369 . S
C684 C693 1.429 . S
C685 C683 1.419 . S
C685 C686 1.363 . S
C685 H688 0.929 . S
C686 C685 1.363 . S
C686 C692 1.428 . S
H687 C683 0.930 . S
H688 C685 0.929 . S
S689 N690 1.613 . S
S689 N691 1.610 . S
N690 S689 1.613 . S
N690 C693 1.350 . S
N691 S689 1.610 . S
N691 C692 1.351 . S
C692 C686 1.428 . S
C692 N691 1.351 . S
C692 C693 1.434 . S
C693 C684 1.429 . S
C693 N690 1.350 . S
C693 C692 1.434 . S
C694 C695 1.369 . S
C694 C696 1.419 . S
C694 H698 0.930 . S
C695 C694 1.369 . S
C695 C704 1.429 . S
C696 C694 1.419 . S
C696 C697 1.363 . S
C696 H699 0.929 . S
C697 C696 1.363 . S
C697 C703 1.428 . S
H698 C694 0.930 . S
H699 C696 0.929 . S
S700 N701 1.613 . S
S700 N702 1.610 . S
N701 S700 1.613 . S
N701 C704 1.350 . S
N702 S700 1.610 . S
N702 C703 1.351 . S
C703 C697 1.428 . S
C703 N702 1.351 . S
C703 C704 1.434 . S
C704 C695 1.429 . S
C704 N701 1.350 . S
C704 C703 1.434 . S
C705 C706 1.369 . S
C705 C707 1.419 . S
C705 H709 0.930 . S
C706 C705 1.369 . S
C706 C715 1.429 . S
C707 C705 1.419 . S
C707 C708 1.363 . S
C707 H710 0.929 . S
C708 C707 1.363 . S
C708 C714 1.428 . S
H709 C705 0.930 . S
H710 C707 0.929 . S
S711 N712 1.613 . S
S711 N713 1.610 . S
N712 S711 1.613 . S
N712 C715 1.350 . S
N713 S711 1.610 . S
N713 C714 1.351 . S
C714 C708 1.428 . S
C714 N713 1.351 . S
C714 C715 1.434 . S
C715 C706 1.429 . S
C715 N712 1.350 . S
C715 C714 1.434 . S
C716 C717 1.369 . S
C716 C718 1.419 . S
C716 H720 0.930 . S
C717 C716 1.369 . S
C717 C726 1.429 . S
C718 C716 1.419 . S
C718 C719 1.363 . S
C718 H721 0.929 . S
C719 C718 1.363 . S
C719 C725 1.428 . S
H720 C716 0.930 . S
H721 C718 0.929 . S
S722 N723 1.613 . S
S722 N724 1.610 . S
N723 S722 1.613 . S
N723 C726 1.350 . S
N724 S722 1.610 . S
N724 C725 1.351 . S
C725 C719 1.428 . S
C725 N724 1.351 . S
C725 C726 1.434 . S
C726 C717 1.429 . S
C726 N723 1.350 . S
C726 C725 1.434 . S
C727 C728 1.369 . S
C727 C729 1.419 . S
C727 H731 0.930 . S
C728 C727 1.369 . S
C728 C737 1.429 . S
C729 C727 1.419 . S
C729 C730 1.363 . S
C729 H732 0.929 . S
C730 C729 1.363 . S
C730 C736 1.428 . S
H731 C727 0.930 . S
H732 C729 0.929 . S
S733 N734 1.613 . S
S733 N735 1.610 . S
N734 S733 1.613 . S
N734 C737 1.350 . S
N735 S733 1.610 . S
N735 C736 1.351 . S
C736 C730 1.428 . S
C736 N735 1.351 . S
C736 C737 1.434 . S
C737 C728 1.429 . S
C737 N734 1.350 . S
C737 C736 1.434 . S
C738 C739 1.369 . S
C738 C740 1.419 . S
C738 H742 0.930 . S
C739 C738 1.369 . S
C739 C748 1.429 . S
C740 C738 1.419 . S
C740 C741 1.363 . S
C740 H743 0.929 . S
C741 C740 1.363 . S
C741 C747 1.428 . S
H742 C738 0.930 . S
H743 C740 0.929 . S
S744 N745 1.613 . S
S744 N746 1.610 . S
N745 S744 1.613 . S
N745 C748 1.350 . S
N746 S744 1.610 . S
N746 C747 1.351 . S
C747 C741 1.428 . S
C747 N746 1.351 . S
C747 C748 1.434 . S
C748 C739 1.429 . S
C748 N745 1.350 . S
C748 C747 1.434 . S
C749 C750 1.369 . S
C749 C751 1.419 . S
C749 H753 0.930 . S
C750 C749 1.369 . S
C750 C759 1.429 . S
C751 C749 1.419 . S
C751 C752 1.363 . S
C751 H754 0.929 . S
C752 C751 1.363 . S
C752 C758 1.428 . S
H753 C749 0.930 . S
H754 C751 0.929 . S
S755 N756 1.613 . S
S755 N757 1.610 . S
N756 S755 1.613 . S
N756 C759 1.350 . S
N757 S755 1.610 . S
N757 C758 1.351 . S
C758 C752 1.428 . S
C758 N757 1.351 . S
C758 C759 1.434 . S
C759 C750 1.429 . S
C759 N756 1.350 . S
C759 C758 1.434 . S
C760 C761 1.369 . S
C760 C762 1.419 . S
C760 H764 0.930 . S
C761 C760 1.369 . S
C761 C770 1.429 . S
C762 C760 1.419 . S
C762 C763 1.363 . S
C762 H765 0.929 . S
C763 C762 1.363 . S
C763 C769 1.428 . S
H764 C760 0.930 . S
H765 C762 0.929 . S
S766 N767 1.613 . S
S766 N768 1.610 . S
N767 S766 1.613 . S
N767 C770 1.350 . S
N768 S766 1.610 . S
N768 C769 1.351 . S
C769 C763 1.428 . S
C769 N768 1.351 . S
C769 C770 1.434 . S
C770 C761 1.429 . S
C770 N767 1.350 . S
C770 C769 1.434 . S
C771 C772 1.369 . S
C771 C773 1.419 . S
C771 H775 0.930 . S
C772 C771 1.369 . S
C772 C781 1.429 . S
C773 C771 1.419 . S
C773 C774 1.363 . S
C773 H776 0.929 . S
C774 C773 1.363 . S
C774 C780 1.428 . S
H775 C771 0.930 . S
H776 C773 0.929 . S
S777 N778 1.613 . S
S777 N779 1.610 . S
N778 S777 1.613 . S
N778 C781 1.350 . S
N779 S777 1.610 . S
N779 C780 1.351 . S
C780 C774 1.428 . S
C780 N779 1.351 . S
C780 C781 1.434 . S
C781 C772 1.429 . S
C781 N778 1.350 . S
C781 C780 1.434 . S
C782 C783 1.369 . S
C782 C784 1.419 . S
C782 H786 0.930 . S
C783 C782 1.369 . S
C783 C792 1.429 . S
C784 C782 1.419 . S
C784 C785 1.363 . S
C784 H787 0.929 . S
C785 C784 1.363 . S
C785 C791 1.428 . S
H786 C782 0.930 . S
H787 C784 0.929 . S
S788 N789 1.613 . S
S788 N790 1.610 . S
N789 S788 1.613 . S
N789 C792 1.350 . S
N790 S788 1.610 . S
N790 C791 1.351 . S
C791 C785 1.428 . S
C791 N790 1.351 . S
C791 C792 1.434 . S
C792 C783 1.429 . S
C792 N789 1.350 . S
C792 C791 1.434 . S
C793 C794 1.369 . S
C793 C795 1.419 . S
C793 H797 0.930 . S
C794 C793 1.369 . S
C794 C803 1.429 . S
C795 C793 1.419 . S
C795 C796 1.363 . S
C795 H798 0.929 . S
C796 C795 1.363 . S
C796 C802 1.428 . S
H797 C793 0.930 . S
H798 C795 0.929 . S
S799 N800 1.613 . S
S799 N801 1.610 . S
N800 S799 1.613 . S
N800 C803 1.350 . S
N801 S799 1.610 . S
N801 C802 1.351 . S
C802 C796 1.428 . S
C802 N801 1.351 . S
C802 C803 1.434 . S
C803 C794 1.429 . S
C803 N800 1.350 . S
C803 C802 1.434 . S
C804 C805 1.369 . S
C804 C806 1.419 . S
C804 H808 0.930 . S
C805 C804 1.369 . S
C805 C814 1.429 . S
C806 C804 1.419 . S
C806 C807 1.363 . S
C806 H809 0.929 . S
C807 C806 1.363 . S
C807 C813 1.428 . S
H808 C804 0.930 . S
H809 C806 0.929 . S
S810 N811 1.613 . S
S810 N812 1.610 . S
N811 S810 1.613 . S
N811 C814 1.350 . S
N812 S810 1.610 . S
N812 C813 1.351 . S
C813 C807 1.428 . S
C813 N812 1.351 . S
C813 C814 1.434 . S
C814 C805 1.429 . S
C814 N811 1.350 . S
C814 C813 1.434 . S
C815 C816 1.369 . S
C815 C817 1.419 . S
C815 H819 0.930 . S
C816 C815 1.369 . S
C816 C825 1.429 . S
C817 C815 1.419 . S
C817 C818 1.363 . S
C817 H820 0.929 . S
C818 C817 1.363 . S
C818 C824 1.428 . S
H819 C815 0.930 . S
H820 C817 0.929 . S
S821 N822 1.613 . S
S821 N823 1.610 . S
N822 S821 1.613 . S
N822 C825 1.350 . S
N823 S821 1.610 . S
N823 C824 1.351 . S
C824 C818 1.428 . S
C824 N823 1.351 . S
C824 C825 1.434 . S
C825 C816 1.429 . S
C825 N822 1.350 . S
C825 C824 1.434 . S
C826 C827 1.369 . S
C826 C828 1.419 . S
C826 H830 0.930 . S
C827 C826 1.369 . S
C827 C836 1.429 . S
C828 C826 1.419 . S
C828 C829 1.363 . S
C828 H831 0.929 . S
C829 C828 1.363 . S
C829 C835 1.428 . S
H830 C826 0.930 . S
H831 C828 0.929 . S
S832 N833 1.613 . S
S832 N834 1.610 . S
N833 S832 1.613 . S
N833 C836 1.350 . S
N834 S832 1.610 . S
N834 C835 1.351 . S
C835 C829 1.428 . S
C835 N834 1.351 . S
C835 C836 1.434 . S
C836 C827 1.429 . S
C836 N833 1.350 . S
C836 C835 1.434 . S
C837 C838 1.369 . S
C837 C839 1.419 . S
C837 H841 0.930 . S
C838 C837 1.369 . S
C838 C847 1.429 . S
C839 C837 1.419 . S
C839 C840 1.363 . S
C839 H842 0.929 . S
C840 C839 1.363 . S
C840 C846 1.428 . S
H841 C837 0.930 . S
H842 C839 0.929 . S
S843 N844 1.613 . S
S843 N845 1.610 . S
N844 S843 1.613 . S
N844 C847 1.350 . S
N845 S843 1.610 . S
N845 C846 1.351 . S
C846 C840 1.428 . S
C846 N845 1.351 . S
C846 C847 1.434 . S
C847 C838 1.429 . S
C847 N844 1.350 . S
C847 C846 1.434 . S
C848 C849 1.369 . S
C848 C850 1.419 . S
C848 H852 0.930 . S
C849 C848 1.369 . S
C849 C858 1.429 . S
C850 C848 1.419 . S
C850 C851 1.363 . S
C850 H853 0.929 . S
C851 C850 1.363 . S
C851 C857 1.428 . S
H852 C848 0.930 . S
H853 C850 0.929 . S
S854 N855 1.613 . S
S854 N856 1.610 . S
N855 S854 1.613 . S
N855 C858 1.350 . S
N856 S854 1.610 . S
N856 C857 1.351 . S
C857 C851 1.428 . S
C857 N856 1.351 . S
C857 C858 1.434 . S
C858 C849 1.429 . S
C858 N855 1.350 . S
C858 C857 1.434 . S
C859 C860 1.369 . S
C859 C861 1.419 . S
C859 H863 0.930 . S
C860 C859 1.369 . S
C860 C869 1.429 . S
C861 C859 1.419 . S
C861 C862 1.363 . S
C861 H864 0.929 . S
C862 C861 1.363 . S
C862 C868 1.428 . S
H863 C859 0.930 . S
H864 C861 0.929 . S
S865 N866 1.613 . S
S865 N867 1.610 . S
N866 S865 1.613 . S
N866 C869 1.350 . S
N867 S865 1.610 . S
N867 C868 1.351 . S
C868 C862 1.428 . S
C868 N867 1.351 . S
C868 C869 1.434 . S
C869 C860 1.429 . S
C869 N866 1.350 . S
C869 C868 1.434 . S
C870 C871 1.369 . S
C870 C872 1.419 . S
C870 H874 0.930 . S
C871 C870 1.369 . S
C871 C880 1.429 . S
C872 C870 1.419 . S
C872 C873 1.363 . S
C872 H875 0.929 . S
C873 C872 1.363 . S
C873 C879 1.428 . S
H874 C870 0.930 . S
H875 C872 0.929 . S
S876 N877 1.613 . S
S876 N878 1.610 . S
N877 S876 1.613 . S
N877 C880 1.350 . S
N878 S876 1.610 . S
N878 C879 1.351 . S
C879 C873 1.428 . S
C879 N878 1.351 . S
C879 C880 1.434 . S
C880 C871 1.429 . S
C880 N877 1.350 . S
C880 C879 1.434 . S
C881 C882 1.369 . S
C881 C883 1.419 . S
C881 H885 0.930 . S
C882 C881 1.369 . S
C882 C891 1.429 . S
C883 C881 1.419 . S
C883 C884 1.363 . S
C883 H886 0.929 . S
C884 C883 1.363 . S
C884 C890 1.428 . S
H885 C881 0.930 . S
H886 C883 0.929 . S
S887 N888 1.613 . S
S887 N889 1.610 . S
N888 S887 1.613 . S
N888 C891 1.350 . S
N889 S887 1.610 . S
N889 C890 1.351 . S
C890 C884 1.428 . S
C890 N889 1.351 . S
C890 C891 1.434 . S
C891 C882 1.429 . S
C891 N888 1.350 . S
C891 C890 1.434 . S
C892 C893 1.369 . S
C892 C894 1.419 . S
C892 H896 0.930 . S
C893 C892 1.369 . S
C893 C902 1.429 . S
C894 C892 1.419 . S
C894 C895 1.363 . S
C894 H897 0.929 . S
C895 C894 1.363 . S
C895 C901 1.428 . S
H896 C892 0.930 . S
H897 C894 0.929 . S
S898 N899 1.613 . S
S898 N900 1.610 . S
N899 S898 1.613 . S
N899 C902 1.350 . S
N900 S898 1.610 . S
N900 C901 1.351 . S
C901 C895 1.428 . S
C901 N900 1.351 . S
C901 C902 1.434 . S
C902 C893 1.429 . S
C902 N899 1.350 . S
C902 C901 1.434 . S
C903 C904 1.369 . S
C903 C905 1.419 . S
C903 H907 0.930 . S
C904 C903 1.369 . S
C904 C913 1.429 . S
C905 C903 1.419 . S
C905 C906 1.363 . S
C905 H908 0.929 . S
C906 C905 1.363 . S
C906 C912 1.428 . S
H907 C903 0.930 . S
H908 C905 0.929 . S
S909 N910 1.613 . S
S909 N911 1.610 . S
N910 S909 1.613 . S
N910 C913 1.350 . S
N911 S909 1.610 . S
N911 C912 1.351 . S
C912 C906 1.428 . S
C912 N911 1.351 . S
C912 C913 1.434 . S
C913 C904 1.429 . S
C913 N910 1.350 . S
C913 C912 1.434 . S
C914 C915 1.369 . S
C914 C916 1.419 . S
C914 H918 0.930 . S
C915 C914 1.369 . S
C915 C924 1.429 . S
C916 C914 1.419 . S
C916 C917 1.363 . S
C916 H919 0.929 . S
C917 C916 1.363 . S
C917 C923 1.428 . S
H918 C914 0.930 . S
H919 C916 0.929 . S
S920 N921 1.613 . S
S920 N922 1.610 . S
N921 S920 1.613 . S
N921 C924 1.350 . S
N922 S920 1.610 . S
N922 C923 1.351 . S
C923 C917 1.428 . S
C923 N922 1.351 . S
C923 C924 1.434 . S
C924 C915 1.429 . S
C924 N921 1.350 . S
C924 C923 1.434 . S
C925 C926 1.369 . S
C925 C927 1.419 . S
C925 H929 0.930 . S
C926 C925 1.369 . S
C926 C935 1.429 . S
C927 C925 1.419 . S
C927 C928 1.363 . S
C927 H930 0.929 . S
C928 C927 1.363 . S
C928 C934 1.428 . S
H929 C925 0.930 . S
H930 C927 0.929 . S
S931 N932 1.613 . S
S931 N933 1.610 . S
N932 S931 1.613 . S
N932 C935 1.350 . S
N933 S931 1.610 . S
N933 C934 1.351 . S
C934 C928 1.428 . S
C934 N933 1.351 . S
C934 C935 1.434 . S
C935 C926 1.429 . S
C935 N932 1.350 . S
C935 C934 1.434 . S
C936 C937 1.369 . S
C936 C938 1.419 . S
C936 H940 0.930 . S
C937 C936 1.369 . S
C937 C946 1.429 . S
C938 C936 1.419 . S
C938 C939 1.363 . S
C938 H941 0.929 . S
C939 C938 1.363 . S
C939 C945 1.428 . S
H940 C936 0.930 . S
H941 C938 0.929 . S
S942 N943 1.613 . S
S942 N944 1.610 . S
N943 S942 1.613 . S
N943 C946 1.350 . S
N944 S942 1.610 . S
N944 C945 1.351 . S
C945 C939 1.428 . S
C945 N944 1.351 . S
C945 C946 1.434 . S
C946 C937 1.429 . S
C946 N943 1.350 . S
C946 C945 1.434 . S
C947 C948 1.369 . S
C947 C949 1.419 . S
C947 H951 0.930 . S
C948 C947 1.369 . S
C948 C957 1.429 . S
C949 C947 1.419 . S
C949 C950 1.363 . S
C949 H952 0.929 . S
C950 C949 1.363 . S
C950 C956 1.428 . S
H951 C947 0.930 . S
H952 C949 0.929 . S
S953 N954 1.613 . S
S953 N955 1.610 . S
N954 S953 1.613 . S
N954 C957 1.350 . S
N955 S953 1.610 . S
N955 C956 1.351 . S
C956 C950 1.428 . S
C956 N955 1.351 . S
C956 C957 1.434 . S
C957 C948 1.429 . S
C957 N954 1.350 . S
C957 C956 1.434 . S
C958 C959 1.369 . S
C958 C960 1.419 . S
C958 H962 0.930 . S
C959 C958 1.369 . S
C959 C968 1.429 . S
C960 C958 1.419 . S
C960 C961 1.363 . S
C960 H963 0.929 . S
C961 C960 1.363 . S
C961 C967 1.428 . S
H962 C958 0.930 . S
H963 C960 0.929 . S
S964 N965 1.613 . S
S964 N966 1.610 . S
N965 S964 1.613 . S
N965 C968 1.350 . S
N966 S964 1.610 . S
N966 C967 1.351 . S
C967 C961 1.428 . S
C967 N966 1.351 . S
C967 C968 1.434 . S
C968 C959 1.429 . S
C968 N965 1.350 . S
C968 C967 1.434 . S
C969 C970 1.369 . S
C969 C971 1.419 . S
C969 H973 0.930 . S
C970 C969 1.369 . S
C970 C979 1.429 . S
C971 C969 1.419 . S
C971 C972 1.363 . S
C971 H974 0.929 . S
C972 C971 1.363 . S
C972 C978 1.428 . S
H973 C969 0.930 . S
H974 C971 0.929 . S
S975 N976 1.613 . S
S975 N977 1.610 . S
N976 S975 1.613 . S
N976 C979 1.350 . S
N977 S975 1.610 . S
N977 C978 1.351 . S
C978 C972 1.428 . S
C978 N977 1.351 . S
C978 C979 1.434 . S
C979 C970 1.429 . S
C979 N976 1.350 . S
C979 C978 1.434 . S
C980 C981 1.369 . S
C980 C982 1.419 . S
C980 H984 0.930 . S
C981 C980 1.369 . S
C981 C990 1.429 . S
C982 C980 1.419 . S
C982 C983 1.363 . S
C982 H985 0.929 . S
C983 C982 1.363 . S
C983 C989 1.428 . S
H984 C980 0.930 . S
H985 C982 0.929 . S
S986 N987 1.613 . S
S986 N988 1.610 . S
N987 S986 1.613 . S
N987 C990 1.350 . S
N988 S986 1.610 . S
N988 C989 1.351 . S
C989 C983 1.428 . S
C989 N988 1.351 . S
C989 C990 1.434 . S
C990 C981 1.429 . S
C990 N987 1.350 . S
C990 C989 1.434 . S
C991 C992 1.369 . S
C991 C993 1.419 . S
C991 H995 0.930 . S
C992 C991 1.369 . S
C992 C1001 1.429 . S
C993 C991 1.419 . S
C993 C994 1.363 . S
C993 H996 0.929 . S
C994 C993 1.363 . S
C994 C1000 1.428 . S
H995 C991 0.930 . S
H996 C993 0.929 . S
S997 N998 1.613 . S
S997 N999 1.610 . S
N998 S997 1.613 . S
N998 C1001 1.350 . S
N999 S997 1.610 . S
N999 C1000 1.351 . S
C1000 C994 1.428 . S
C1000 N999 1.351 . S
C1000 C1001 1.434 . S
C1001 C992 1.429 . S
C1001 N998 1.350 . S
C1001 C1000 1.434 . S
C1002 C1003 1.369 . S
C1002 C1004 1.419 . S
C1002 H1006 0.930 . S
C1003 C1002 1.369 . S
C1003 C1012 1.429 . S
C1004 C1002 1.419 . S
C1004 C1005 1.363 . S
C1004 H1007 0.929 . S
C1005 C1004 1.363 . S
C1005 C1011 1.428 . S
H1006 C1002 0.930 . S
H1007 C1004 0.929 . S
S1008 N1009 1.613 . S
S1008 N1010 1.610 . S
N1009 S1008 1.613 . S
N1009 C1012 1.350 . S
N1010 S1008 1.610 . S
N1010 C1011 1.351 . S
C1011 C1005 1.428 . S
C1011 N1010 1.351 . S
C1011 C1012 1.434 . S
C1012 C1003 1.429 . S
C1012 N1009 1.350 . S
C1012 C1011 1.434 . S
C1013 C1014 1.369 . S
C1013 C1015 1.419 . S
C1013 H1017 0.930 . S
C1014 C1013 1.369 . S
C1014 C1023 1.429 . S
C1015 C1013 1.419 . S
C1015 C1016 1.363 . S
C1015 H1018 0.929 . S
C1016 C1015 1.363 . S
C1016 C1022 1.428 . S
H1017 C1013 0.930 . S
H1018 C1015 0.929 . S
S1019 N1020 1.613 . S
S1019 N1021 1.610 . S
N1020 S1019 1.613 . S
N1020 C1023 1.350 . S
N1021 S1019 1.610 . S
N1021 C1022 1.351 . S
C1022 C1016 1.428 . S
C1022 N1021 1.351 . S
C1022 C1023 1.434 . S
C1023 C1014 1.429 . S
C1023 N1020 1.350 . S
C1023 C1022 1.434 . S
C1024 C1025 1.369 . S
C1024 C1026 1.419 . S
C1024 H1028 0.930 . S
C1025 C1024 1.369 . S
C1025 C1034 1.429 . S
C1026 C1024 1.419 . S
C1026 C1027 1.363 . S
C1026 H1029 0.929 . S
C1027 C1026 1.363 . S
C1027 C1033 1.428 . S
H1028 C1024 0.930 . S
H1029 C1026 0.929 . S
S1030 N1031 1.613 . S
S1030 N1032 1.610 . S
N1031 S1030 1.613 . S
N1031 C1034 1.350 . S
N1032 S1030 1.610 . S
N1032 C1033 1.351 . S
C1033 C1027 1.428 . S
C1033 N1032 1.351 . S
C1033 C1034 1.434 . S
C1034 C1025 1.429 . S
C1034 N1031 1.350 . S
C1034 C1033 1.434 . S
C1035 C1036 1.369 . S
C1035 C1037 1.419 . S
C1035 H1039 0.930 . S
C1036 C1035 1.369 . S
C1036 C1045 1.429 . S
C1037 C1035 1.419 . S
C1037 C1038 1.363 . S
C1037 H1040 0.929 . S
C1038 C1037 1.363 . S
C1038 C1044 1.428 . S
H1039 C1035 0.930 . S
H1040 C1037 0.929 . S
S1041 N1042 1.613 . S
S1041 N1043 1.610 . S
N1042 S1041 1.613 . S
N1042 C1045 1.350 . S
N1043 S1041 1.610 . S
N1043 C1044 1.351 . S
C1044 C1038 1.428 . S
C1044 N1043 1.351 . S
C1044 C1045 1.434 . S
C1045 C1036 1.429 . S
C1045 N1042 1.350 . S
C1045 C1044 1.434 . S
C1046 C1047 1.369 . S
C1046 C1048 1.419 . S
C1046 H1050 0.930 . S
C1047 C1046 1.369 . S
C1047 C1056 1.429 . S
C1048 C1046 1.419 . S
C1048 C1049 1.363 . S
C1048 H1051 0.929 . S
C1049 C1048 1.363 . S
C1049 C1055 1.428 . S
H1050 C1046 0.930 . S
H1051 C1048 0.929 . S
S1052 N1053 1.613 . S
S1052 N1054 1.610 . S
N1053 S1052 1.613 . S
N1053 C1056 1.350 . S
N1054 S1052 1.610 . S
N1054 C1055 1.351 . S
C1055 C1049 1.428 . S
C1055 N1054 1.351 . S
C1055 C1056 1.434 . S
C1056 C1047 1.429 . S
C1056 N1053 1.350 . S
C1056 C1055 1.434 . S
C1057 C1058 1.369 . S
C1057 C1059 1.419 . S
C1057 H1061 0.930 . S
C1058 C1057 1.369 . S
C1058 C1067 1.429 . S
C1059 C1057 1.419 . S
C1059 C1060 1.363 . S
C1059 H1062 0.929 . S
C1060 C1059 1.363 . S
C1060 C1066 1.428 . S
H1061 C1057 0.930 . S
H1062 C1059 0.929 . S
S1063 N1064 1.613 . S
S1063 N1065 1.610 . S
N1064 S1063 1.613 . S
N1064 C1067 1.350 . S
N1065 S1063 1.610 . S
N1065 C1066 1.351 . S
C1066 C1060 1.428 . S
C1066 N1065 1.351 . S
C1066 C1067 1.434 . S
C1067 C1058 1.429 . S
C1067 N1064 1.350 . S
C1067 C1066 1.434 . S
C1068 C1069 1.369 . S
C1068 C1070 1.419 . S
C1068 H1072 0.930 . S
C1069 C1068 1.369 . S
C1069 C1078 1.429 . S
C1070 C1068 1.419 . S
C1070 C1071 1.363 . S
C1070 H1073 0.929 . S
C1071 C1070 1.363 . S
C1071 C1077 1.428 . S
H1072 C1068 0.930 . S
H1073 C1070 0.929 . S
S1074 N1075 1.613 . S
S1074 N1076 1.610 . S
N1075 S1074 1.613 . S
N1075 C1078 1.350 . S
N1076 S1074 1.610 . S
N1076 C1077 1.351 . S
C1077 C1071 1.428 . S
C1077 N1076 1.351 . S
C1077 C1078 1.434 . S
C1078 C1069 1.429 . S
C1078 N1075 1.350 . S
C1078 C1077 1.434 . S
C1079 C1080 1.369 . S
C1079 C1081 1.419 . S
C1079 H1083 0.930 . S
C1080 C1079 1.369 . S
C1080 C1089 1.429 . S
C1081 C1079 1.419 . S
C1081 C1082 1.363 . S
C1081 H1084 0.929 . S
C1082 C1081 1.363 . S
C1082 C1088 1.428 . S
H1083 C1079 0.930 . S
H1084 C1081 0.929 . S
S1085 N1086 1.613 . S
S1085 N1087 1.610 . S
N1086 S1085 1.613 . S
N1086 C1089 1.350 . S
N1087 S1085 1.610 . S
N1087 C1088 1.351 . S
C1088 C1082 1.428 . S
C1088 N1087 1.351 . S
C1088 C1089 1.434 . S
C1089 C1080 1.429 . S
C1089 N1086 1.350 . S
C1089 C1088 1.434 . S
C1090 C1091 1.369 . S
C1090 C1092 1.419 . S
C1090 H1094 0.930 . S
C1091 C1090 1.369 . S
C1091 C1100 1.429 . S
C1092 C1090 1.419 . S
C1092 C1093 1.363 . S
C1092 H1095 0.929 . S
C1093 C1092 1.363 . S
C1093 C1099 1.428 . S
H1094 C1090 0.930 . S
H1095 C1092 0.929 . S
S1096 N1097 1.613 . S
S1096 N1098 1.610 . S
N1097 S1096 1.613 . S
N1097 C1100 1.350 . S
N1098 S1096 1.610 . S
N1098 C1099 1.351 . S
C1099 C1093 1.428 . S
C1099 N1098 1.351 . S
C1099 C1100 1.434 . S
C1100 C1091 1.429 . S
C1100 N1097 1.350 . S
C1100 C1099 1.434 . S
C1101 C1102 1.369 . S
C1101 C1103 1.419 . S
C1101 H1105 0.930 . S
C1102 C1101 1.369 . S
C1102 C1111 1.429 . S
C1103 C1101 1.419 . S
C1103 C1104 1.363 . S
C1103 H1106 0.929 . S
C1104 C1103 1.363 . S
C1104 C1110 1.428 . S
H1105 C1101 0.930 . S
H1106 C1103 0.929 . S
S1107 N1108 1.613 . S
S1107 N1109 1.610 . S
N1108 S1107 1.613 . S
N1108 C1111 1.350 . S
N1109 S1107 1.610 . S
N1109 C1110 1.351 . S
C1110 C1104 1.428 . S
C1110 N1109 1.351 . S
C1110 C1111 1.434 . S
C1111 C1102 1.429 . S
C1111 N1108 1.350 . S
C1111 C1110 1.434 . S
C1112 C1113 1.369 . S
C1112 C1114 1.419 . S
C1112 H1116 0.930 . S
C1113 C1112 1.369 . S
C1113 C1122 1.429 . S
C1114 C1112 1.419 . S
C1114 C1115 1.363 . S
C1114 H1117 0.929 . S
C1115 C1114 1.363 . S
C1115 C1121 1.428 . S
H1116 C1112 0.930 . S
H1117 C1114 0.929 . S
S1118 N1119 1.613 . S
S1118 N1120 1.610 . S
N1119 S1118 1.613 . S
N1119 C1122 1.350 . S
N1120 S1118 1.610 . S
N1120 C1121 1.351 . S
C1121 C1115 1.428 . S
C1121 N1120 1.351 . S
C1121 C1122 1.434 . S
C1122 C1113 1.429 . S
C1122 N1119 1.350 . S
C1122 C1121 1.434 . S
C1123 C1124 1.369 . S
C1123 C1125 1.419 . S
C1123 H1127 0.930 . S
C1124 C1123 1.369 . S
C1124 C1133 1.429 . S
C1125 C1123 1.419 . S
C1125 C1126 1.363 . S
C1125 H1128 0.929 . S
C1126 C1125 1.363 . S
C1126 C1132 1.428 . S
H1127 C1123 0.930 . S
H1128 C1125 0.929 . S
S1129 N1130 1.613 . S
S1129 N1131 1.610 . S
N1130 S1129 1.613 . S
N1130 C1133 1.350 . S
N1131 S1129 1.610 . S
N1131 C1132 1.351 . S
C1132 C1126 1.428 . S
C1132 N1131 1.351 . S
C1132 C1133 1.434 . S
C1133 C1124 1.429 . S
C1133 N1130 1.350 . S
C1133 C1132 1.434 . S
C1134 C1135 1.369 . S
C1134 C1136 1.419 . S
C1134 H1138 0.930 . S
C1135 C1134 1.369 . S
C1135 C1144 1.429 . S
C1136 C1134 1.419 . S
C1136 C1137 1.363 . S
C1136 H1139 0.929 . S
C1137 C1136 1.363 . S
C1137 C1143 1.428 . S
H1138 C1134 0.930 . S
H1139 C1136 0.929 . S
S1140 N1141 1.613 . S
S1140 N1142 1.610 . S
N1141 S1140 1.613 . S
N1141 C1144 1.350 . S
N1142 S1140 1.610 . S
N1142 C1143 1.351 . S
C1143 C1137 1.428 . S
C1143 N1142 1.351 . S
C1143 C1144 1.434 . S
C1144 C1135 1.429 . S
C1144 N1141 1.350 . S
C1144 C1143 1.434 . S
C1145 C1146 1.369 . S
C1145 C1147 1.419 . S
C1145 H1149 0.930 . S
C1146 C1145 1.369 . S
C1146 C1155 1.429 . S
C1147 C1145 1.419 . S
C1147 C1148 1.363 . S
C1147 H1150 0.929 . S
C1148 C1147 1.363 . S
C1148 C1154 1.428 . S
H1149 C1145 0.930 . S
H1150 C1147 0.929 . S
S1151 N1152 1.613 . S
S1151 N1153 1.610 . S
N1152 S1151 1.613 . S
N1152 C1155 1.350 . S
N1153 S1151 1.610 . S
N1153 C1154 1.351 . S
C1154 C1148 1.428 . S
C1154 N1153 1.351 . S
C1154 C1155 1.434 . S
C1155 C1146 1.429 . S
C1155 N1152 1.350 . S
C1155 C1154 1.434 . S
C1156 C1157 1.369 . S
C1156 C1158 1.419 . S
C1156 H1160 0.930 . S
C1157 C1156 1.369 . S
C1157 C1166 1.429 . S
C1158 C1156 1.419 . S
C1158 C1159 1.363 . S
C1158 H1161 0.929 . S
C1159 C1158 1.363 . S
C1159 C1165 1.428 . S
H1160 C1156 0.930 . S
H1161 C1158 0.929 . S
S1162 N1163 1.613 . S
S1162 N1164 1.610 . S
N1163 S1162 1.613 . S
N1163 C1166 1.350 . S
N1164 S1162 1.610 . S
N1164 C1165 1.351 . S
C1165 C1159 1.428 . S
C1165 N1164 1.351 . S
C1165 C1166 1.434 . S
C1166 C1157 1.429 . S
C1166 N1163 1.350 . S
C1166 C1165 1.434 . S
C1167 C1168 1.369 . S
C1167 C1169 1.419 . S
C1167 H1171 0.930 . S
C1168 C1167 1.369 . S
C1168 C1177 1.429 . S
C1169 C1167 1.419 . S
C1169 C1170 1.363 . S
C1169 H1172 0.929 . S
C1170 C1169 1.363 . S
C1170 C1176 1.428 . S
H1171 C1167 0.930 . S
H1172 C1169 0.929 . S
S1173 N1174 1.613 . S
S1173 N1175 1.610 . S
N1174 S1173 1.613 . S
N1174 C1177 1.350 . S
N1175 S1173 1.610 . S
N1175 C1176 1.351 . S
C1176 C1170 1.428 . S
C1176 N1175 1.351 . S
C1176 C1177 1.434 . S
C1177 C1168 1.429 . S
C1177 N1174 1.350 . S
C1177 C1176 1.434 . S
C1178 C1179 1.369 . S
C1178 C1180 1.419 . S
C1178 H1182 0.930 . S
C1179 C1178 1.369 . S
C1179 C1188 1.429 . S
C1180 C1178 1.419 . S
C1180 C1181 1.363 . S
C1180 H1183 0.929 . S
C1181 C1180 1.363 . S
C1181 C1187 1.428 . S
H1182 C1178 0.930 . S
H1183 C1180 0.929 . S
S1184 N1185 1.613 . S
S1184 N1186 1.610 . S
N1185 S1184 1.613 . S
N1185 C1188 1.350 . S
N1186 S1184 1.610 . S
N1186 C1187 1.351 . S
C1187 C1181 1.428 . S
C1187 N1186 1.351 . S
C1187 C1188 1.434 . S
C1188 C1179 1.429 . S
C1188 N1185 1.350 . S
C1188 C1187 1.434 . S
C1189 C1190 1.369 . S
C1189 C1191 1.419 . S
C1189 H1193 0.930 . S
C1190 C1189 1.369 . S
C1190 C1199 1.429 . S
C1191 C1189 1.419 . S
C1191 C1192 1.363 . S
C1191 H1194 0.929 . S
C1192 C1191 1.363 . S
C1192 C1198 1.428 . S
H1193 C1189 0.930 . S
H1194 C1191 0.929 . S
S1195 N1196 1.613 . S
S1195 N1197 1.610 . S
N1196 S1195 1.613 . S
N1196 C1199 1.350 . S
N1197 S1195 1.610 . S
N1197 C1198 1.351 . S
C1198 C1192 1.428 . S
C1198 N1197 1.351 . S
C1198 C1199 1.434 . S
C1199 C1190 1.429 . S
C1199 N1196 1.350 . S
C1199 C1198 1.434 . S
C1200 C1201 1.369 . S
C1200 C1202 1.419 . S
C1200 H1204 0.930 . S
C1201 C1200 1.369 . S
C1201 C1210 1.429 . S
C1202 C1200 1.419 . S
C1202 C1203 1.363 . S
C1202 H1205 0.929 . S
C1203 C1202 1.363 . S
C1203 C1209 1.428 . S
H1204 C1200 0.930 . S
H1205 C1202 0.929 . S
S1206 N1207 1.613 . S
S1206 N1208 1.610 . S
N1207 S1206 1.613 . S
N1207 C1210 1.350 . S
N1208 S1206 1.610 . S
N1208 C1209 1.351 . S
C1209 C1203 1.428 . S
C1209 N1208 1.351 . S
C1209 C1210 1.434 . S
C1210 C1201 1.429 . S
C1210 N1207 1.350 . S
C1210 C1209 1.434 . S
C1211 C1212 1.369 . S
C1211 C1213 1.419 . S
C1211 H1215 0.930 . S
C1212 C1211 1.369 . S
C1212 C1221 1.429 . S
C1213 C1211 1.419 . S
C1213 C1214 1.363 . S
C1213 H1216 0.929 . S
C1214 C1213 1.363 . S
C1214 C1220 1.428 . S
H1215 C1211 0.930 . S
H1216 C1213 0.929 . S
S1217 N1218 1.613 . S
S1217 N1219 1.610 . S
N1218 S1217 1.613 . S
N1218 C1221 1.350 . S
N1219 S1217 1.610 . S
N1219 C1220 1.351 . S
C1220 C1214 1.428 . S
C1220 N1219 1.351 . S
C1220 C1221 1.434 . S
C1221 C1212 1.429 . S
C1221 N1218 1.350 . S
C1221 C1220 1.434 . S
C1222 C1223 1.369 1_545 S
C1222 C1224 1.419 . S
C1222 H1226 0.930 . S
C1223 C1222 1.369 1_565 S
C1223 C1232 1.429 . S
C1224 C1222 1.419 . S
C1224 C1225 1.363 1_545 S
C1224 H1227 0.929 . S
C1225 C1224 1.363 1_565 S
C1225 C1231 1.428 . S
H1226 C1222 0.930 . S
H1227 C1224 0.929 . S
S1228 N1229 1.613 . S
S1228 N1230 1.610 . S
N1229 S1228 1.613 . S
N1229 C1232 1.350 . S
N1230 S1228 1.610 . S
N1230 C1231 1.351 . S
C1231 C1225 1.428 . S
C1231 N1230 1.351 . S
C1231 C1232 1.434 . S
C1232 C1223 1.429 . S
C1232 N1229 1.350 . S
C1232 C1231 1.434 . S
C1233 C1234 1.369 1_556 S
C1233 C1235 1.419 1_545 S
C1233 H1237 0.930 . S
C1234 C1233 1.369 1_554 S
C1234 C1243 1.429 . S
C1235 C1233 1.419 1_565 S
C1235 C1236 1.363 . S
C1235 H1238 0.929 . S
C1236 C1235 1.363 . S
C1236 C1242 1.428 1_556 S
H1237 C1233 0.930 . S
H1238 C1235 0.929 . S
S1239 N1240 1.613 1_565 S
S1239 N1241 1.610 . S
N1240 S1239 1.613 1_545 S
N1240 C1243 1.350 . S
N1241 S1239 1.610 . S
N1241 C1242 1.351 . S
C1242 C1236 1.428 1_554 S
C1242 N1241 1.351 . S
C1242 C1243 1.434 1_565 S
C1243 C1234 1.429 . S
C1243 N1240 1.350 . S
C1243 C1242 1.434 1_545 S
C1244 C1245 1.369 . S
C1244 C1246 1.419 . S
C1244 H1248 0.930 . S
C1245 C1244 1.369 . S
C1245 C1254 1.429 . S
C1246 C1244 1.419 . S
C1246 C1247 1.363 . S
C1246 H1249 0.929 . S
C1247 C1246 1.363 . S
C1247 C1253 1.428 . S
H1248 C1244 0.930 . S
H1249 C1246 0.929 . S
S1250 N1251 1.613 . S
S1250 N1252 1.610 . S
N1251 S1250 1.613 . S
N1251 C1254 1.350 . S
N1252 S1250 1.610 . S
N1252 C1253 1.351 . S
C1253 C1247 1.428 . S
C1253 N1252 1.351 . S
C1253 C1254 1.434 . S
C1254 C1245 1.429 . S
C1254 N1251 1.350 . S
C1254 C1253 1.434 . S
C1255 C1256 1.369 . S
C1255 C1257 1.419 . S
C1255 H1259 0.930 . S
C1256 C1255 1.369 . S
C1256 C1265 1.429 1_556 S
C1257 C1255 1.419 . S
C1257 C1258 1.363 1_556 S
C1257 H1260 0.929 . S
C1258 C1257 1.363 1_554 S
C1258 C1264 1.428 . S
H1259 C1255 0.930 . S
H1260 C1257 0.929 . S
S1261 N1262 1.613 . S
S1261 N1263 1.610 . S
N1262 S1261 1.613 . S
N1262 C1265 1.350 . S
N1263 S1261 1.610 . S
N1263 C1264 1.351 . S
C1264 C1258 1.428 . S
C1264 N1263 1.351 . S
C1264 C1265 1.434 . S
C1265 C1256 1.429 1_554 S
C1265 N1262 1.350 . S
C1265 C1264 1.434 . S
C1266 C1267 1.369 . S
C1266 C1268 1.419 . S
C1266 H1270 0.930 1_545 S
C1267 C1266 1.369 . S
C1267 C1276 1.429 . S
C1268 C1266 1.419 . S
C1268 C1269 1.363 . S
C1268 H1271 0.929 1_545 S
C1269 C1268 1.363 . S
C1269 C1275 1.428 . S
H1270 C1266 0.930 1_565 S
H1271 C1268 0.929 1_565 S
S1272 N1273 1.613 . S
S1272 N1274 1.610 . S
N1273 S1272 1.613 . S
N1273 C1276 1.350 . S
N1274 S1272 1.610 . S
N1274 C1275 1.351 . S
C1275 C1269 1.428 . S
C1275 N1274 1.351 . S
C1275 C1276 1.434 . S
C1276 C1267 1.429 . S
C1276 N1273 1.350 . S
C1276 C1275 1.434 . S
C1277 C1278 1.369 . S
C1277 C1279 1.419 1_545 S
C1277 H1281 0.930 . S
C1278 C1277 1.369 . S
C1278 C1287 1.429 . S
C1279 C1277 1.419 1_565 S
C1279 C1280 1.363 . S
C1279 H1282 0.929 . S
C1280 C1279 1.363 . S
C1280 C1286 1.428 . S
H1281 C1277 0.930 . S
H1282 C1279 0.929 . S
S1283 N1284 1.613 1_565 S
S1283 N1285 1.610 . S
N1284 S1283 1.613 1_545 S
N1284 C1287 1.350 . S
N1285 S1283 1.610 . S
N1285 C1286 1.351 . S
C1286 C1280 1.428 . S
C1286 N1285 1.351 . S
C1286 C1287 1.434 1_565 S
C1287 C1278 1.429 . S
C1287 N1284 1.350 . S
C1287 C1286 1.434 1_545 S
C1288 C1289 1.369 . S
C1288 C1290 1.419 . S
C1288 H1292 0.930 . S
C1289 C1288 1.369 . S
C1289 C1298 1.429 . S
C1290 C1288 1.419 . S
C1290 C1291 1.363 . S
C1290 H1293 0.929 . S
C1291 C1290 1.363 . S
C1291 C1297 1.428 . S
H1292 C1288 0.930 . S
H1293 C1290 0.929 . S
S1294 N1295 1.613 . S
S1294 N1296 1.610 . S
N1295 S1294 1.613 . S
N1295 C1298 1.350 . S
N1296 S1294 1.610 . S
N1296 C1297 1.351 . S
C1297 C1291 1.428 . S
C1297 N1296 1.351 . S
C1297 C1298 1.434 . S
C1298 C1289 1.429 . S
C1298 N1295 1.350 . S
C1298 C1297 1.434 . S
C1299 C1300 1.369 . S
C1299 C1301 1.419 1_455 S
C1299 H1303 0.930 . S
C1300 C1299 1.369 . S
C1300 C1309 1.429 . S
C1301 C1299 1.419 1_655 S
C1301 C1302 1.363 . S
C1301 H1304 0.929 . S
C1302 C1301 1.363 . S
C1302 C1308 1.428 . S
H1303 C1299 0.930 . S
H1304 C1301 0.929 . S
S1305 N1306 1.613 . S
S1305 N1307 1.610 1_455 S
N1306 S1305 1.613 . S
N1306 C1309 1.350 . S
N1307 S1305 1.610 1_655 S
N1307 C1308 1.351 . S
C1308 C1302 1.428 . S
C1308 N1307 1.351 . S
C1308 C1309 1.434 1_655 S
C1309 C1300 1.429 . S
C1309 N1306 1.350 . S
C1309 C1308 1.434 1_455 S
C1310 C1311 1.369 . S
C1310 C1312 1.419 . S
C1310 H1314 0.930 . S
C1311 C1310 1.369 . S
C1311 C1320 1.429 . S
C1312 C1310 1.419 . S
C1312 C1313 1.363 . S
C1312 H1315 0.929 . S
C1313 C1312 1.363 . S
C1313 C1319 1.428 . S
H1314 C1310 0.930 . S
H1315 C1312 0.929 . S
S1316 N1317 1.613 . S
S1316 N1318 1.610 . S
N1317 S1316 1.613 . S
N1317 C1320 1.350 1_556 S
N1318 S1316 1.610 . S
N1318 C1319 1.351 1_556 S
C1319 C1313 1.428 . S
C1319 N1318 1.351 1_554 S
C1319 C1320 1.434 . S
C1320 C1311 1.429 . S
C1320 N1317 1.350 1_554 S
C1320 C1319 1.434 . S
C1321 C1322 1.369 1_545 S
C1321 C1323 1.419 1_655 S
C1321 H1325 0.930 . S
C1322 C1321 1.369 1_565 S
C1322 C1331 1.429 . S
C1323 C1321 1.419 1_455 S
C1323 C1324 1.363 . S
C1323 H1326 0.929 . S
C1324 C1323 1.363 . S
C1324 C1330 1.428 1_545 S
H1325 C1321 0.930 . S
H1326 C1323 0.929 . S
S1327 N1328 1.613 1_455 S
S1327 N1329 1.610 . S
N1328 S1327 1.613 1_655 S
N1328 C1331 1.350 . S
N1329 S1327 1.610 . S
N1329 C1330 1.351 . S
C1330 C1324 1.428 1_565 S
C1330 N1329 1.351 . S
C1330 C1331 1.434 1_455 S
C1331 C1322 1.429 . S
C1331 N1328 1.350 . S
C1331 C1330 1.434 1_655 S
C1332 C1333 1.369 . S
C1332 C1334 1.419 . S
C1332 H1336 0.930 . S
C1333 C1332 1.369 . S
C1333 C1342 1.429 . S
C1334 C1332 1.419 . S
C1334 C1335 1.363 . S
C1334 H1337 0.929 . S
C1335 C1334 1.363 . S
C1335 C1341 1.428 . S
H1336 C1332 0.930 . S
H1337 C1334 0.929 . S
S1338 N1339 1.613 . S
S1338 N1340 1.610 . S
N1339 S1338 1.613 . S
N1339 C1342 1.350 . S
N1340 S1338 1.610 . S
N1340 C1341 1.351 . S
C1341 C1335 1.428 . S
C1341 N1340 1.351 . S
C1341 C1342 1.434 . S
C1342 C1333 1.429 . S
C1342 N1339 1.350 . S
C1342 C1341 1.434 . S
C1343 C1344 1.369 . S
C1343 C1345 1.419 . S
C1343 H1347 0.930 . S
C1344 C1343 1.369 . S
C1344 C1353 1.429 . S
C1345 C1343 1.419 . S
C1345 C1346 1.363 . S
C1345 H1348 0.929 . S
C1346 C1345 1.363 . S
C1346 C1352 1.428 . S
H1347 C1343 0.930 . S
H1348 C1345 0.929 . S
S1349 N1350 1.613 . S
S1349 N1351 1.610 . S
N1350 S1349 1.613 . S
N1350 C1353 1.350 . S
N1351 S1349 1.610 . S
N1351 C1352 1.351 . S
C1352 C1346 1.428 . S
C1352 N1351 1.351 . S
C1352 C1353 1.434 . S
C1353 C1344 1.429 . S
C1353 N1350 1.350 . S
C1353 C1352 1.434 . S
C1354 C1355 1.369 . S
C1354 C1356 1.419 . S
C1354 H1358 0.930 . S
C1355 C1354 1.369 . S
C1355 C1364 1.429 . S
C1356 C1354 1.419 . S
C1356 C1357 1.363 . S
C1356 H1359 0.929 . S
C1357 C1356 1.363 . S
C1357 C1363 1.428 . S
H1358 C1354 0.930 . S
H1359 C1356 0.929 . S
S1360 N1361 1.613 . S
S1360 N1362 1.610 . S
N1361 S1360 1.613 . S
N1361 C1364 1.350 . S
N1362 S1360 1.610 . S
N1362 C1363 1.351 . S
C1363 C1357 1.428 . S
C1363 N1362 1.351 . S
C1363 C1364 1.434 . S
C1364 C1355 1.429 . S
C1364 N1361 1.350 . S
C1364 C1363 1.434 . S
C1365 C1366 1.369 1_565 S
C1365 C1367 1.419 . S
C1365 H1369 0.930 . S
C1366 C1365 1.369 1_545 S
C1366 C1375 1.429 . S
C1367 C1365 1.419 . S
C1367 C1368 1.363 . S
C1367 H1370 0.929 . S
C1368 C1367 1.363 . S
C1368 C1374 1.428 1_565 S
H1369 C1365 0.930 . S
H1370 C1367 0.929 . S
S1371 N1372 1.613 . S
S1371 N1373 1.610 . S
N1372 S1371 1.613 . S
N1372 C1375 1.350 . S
N1373 S1371 1.610 . S
N1373 C1374 1.351 . S
C1374 C1368 1.428 1_545 S
C1374 N1373 1.351 . S
C1374 C1375 1.434 . S
C1375 C1366 1.429 . S
C1375 N1372 1.350 . S
C1375 C1374 1.434 . S
C1376 C1377 1.369 . S
C1376 C1378 1.419 . S
C1376 H1380 0.930 . S
C1377 C1376 1.369 . S
C1377 C1386 1.429 . S
C1378 C1376 1.419 . S
C1378 C1379 1.363 . S
C1378 H1381 0.929 . S
C1379 C1378 1.363 . S
C1379 C1385 1.428 . S
H1380 C1376 0.930 . S
H1381 C1378 0.929 . S
S1382 N1383 1.613 . S
S1382 N1384 1.610 . S
N1383 S1382 1.613 . S
N1383 C1386 1.350 . S
N1384 S1382 1.610 . S
N1384 C1385 1.351 . S
C1385 C1379 1.428 . S
C1385 N1384 1.351 . S
C1385 C1386 1.434 . S
C1386 C1377 1.429 . S
C1386 N1383 1.350 . S
C1386 C1385 1.434 . S
C1387 C1388 1.369 . S
C1387 C1389 1.419 . S
C1387 H1391 0.930 . S
C1388 C1387 1.369 . S
C1388 C1397 1.429 1_455 S
C1389 C1387 1.419 . S
C1389 C1390 1.363 . S
C1389 H1392 0.929 . S
C1390 C1389 1.363 . S
C1390 C1396 1.428 1_455 S
H1391 C1387 0.930 . S
H1392 C1389 0.929 . S
S1393 N1394 1.613 . S
S1393 N1395 1.610 . S
N1394 S1393 1.613 . S
N1394 C1397 1.350 . S
N1395 S1393 1.610 . S
N1395 C1396 1.351 . S
C1396 C1390 1.428 1_655 S
C1396 N1395 1.351 . S
C1396 C1397 1.434 . S
C1397 C1388 1.429 1_655 S
C1397 N1394 1.350 . S
C1397 C1396 1.434 . S
C1398 C1399 1.369 . S
C1398 C1400 1.419 . S
C1398 H1402 0.930 . S
C1399 C1398 1.369 . S
C1399 C1408 1.429 . S
C1400 C1398 1.419 . S
C1400 C1401 1.363 . S
C1400 H1403 0.929 . S
C1401 C1400 1.363 . S
C1401 C1407 1.428 . S
H1402 C1398 0.930 . S
H1403 C1400 0.929 . S
S1404 N1405 1.613 . S
S1404 N1406 1.610 . S
N1405 S1404 1.613 . S
N1405 C1408 1.350 . S
N1406 S1404 1.610 . S
N1406 C1407 1.351 . S
C1407 C1401 1.428 . S
C1407 N1406 1.351 . S
C1407 C1408 1.434 . S
C1408 C1399 1.429 . S
C1408 N1405 1.350 . S
C1408 C1407 1.434 . S
C1409 C1410 1.369 . S
C1409 C1411 1.419 . S
C1409 H1413 0.930 . S
C1410 C1409 1.369 . S
C1410 C1419 1.429 1_655 S
C1411 C1409 1.419 . S
C1411 C1412 1.363 . S
C1411 H1414 0.929 . S
C1412 C1411 1.363 . S
C1412 C1418 1.428 1_655 S
H1413 C1409 0.930 . S
H1414 C1411 0.929 . S
S1415 N1416 1.613 . S
S1415 N1417 1.610 . S
N1416 S1415 1.613 . S
N1416 C1419 1.350 . S
N1417 S1415 1.610 . S
N1417 C1418 1.351 . S
C1418 C1412 1.428 1_455 S
C1418 N1417 1.351 . S
C1418 C1419 1.434 . S
C1419 C1410 1.429 1_455 S
C1419 N1416 1.350 . S
C1419 C1418 1.434 . S
C1420 C1421 1.369 . S
C1420 C1422 1.419 1_456 S
C1420 H1424 0.930 . S
C1421 C1420 1.369 . S
C1421 C1430 1.430 . S
C1422 C1420 1.419 1_654 S
C1422 C1423 1.363 . S
C1422 H1425 0.929 . S
C1423 C1422 1.363 . S
C1423 C1429 1.428 . S
H1424 C1420 0.930 . S
H1425 C1422 0.929 . S
S1426 N1427 1.613 . S
S1426 N1428 1.610 1_556 S
N1427 S1426 1.613 . S
N1427 C1430 1.349 1_655 S
N1428 S1426 1.610 1_554 S
N1428 C1429 1.351 . S
C1429 C1423 1.428 . S
C1429 N1428 1.351 . S
C1429 C1430 1.433 1_654 S
C1430 C1421 1.430 . S
C1430 N1427 1.349 1_455 S
C1430 C1429 1.433 1_456 S
C1431 C1432 1.369 . S
C1431 C1433 1.419 . S
C1431 H1435 0.930 . S
C1432 C1431 1.369 . S
C1432 C1441 1.429 . S
C1433 C1431 1.419 . S
C1433 C1434 1.363 . S
C1433 H1436 0.929 . S
C1434 C1433 1.363 . S
C1434 C1440 1.428 . S
H1435 C1431 0.930 . S
H1436 C1433 0.929 . S
S1437 N1438 1.613 . S
S1437 N1439 1.610 . S
N1438 S1437 1.613 . S
N1438 C1441 1.350 . S
N1439 S1437 1.610 . S
N1439 C1440 1.351 . S
C1440 C1434 1.428 . S
C1440 N1439 1.351 . S
C1440 C1441 1.434 . S
C1441 C1432 1.429 . S
C1441 N1438 1.350 . S
C1441 C1440 1.434 . S
C1442 C1443 1.369 . S
C1442 C1444 1.419 1_554 S
C1442 H1446 0.930 . S
C1443 C1442 1.369 . S
C1443 C1452 1.429 . S
C1444 C1442 1.419 1_556 S
C1444 C1445 1.363 . S
C1444 H1447 0.929 . S
C1445 C1444 1.363 . S
C1445 C1451 1.428 . S
H1446 C1442 0.930 . S
H1447 C1444 0.929 . S
S1448 N1449 1.613 1_556 S
S1448 N1450 1.610 . S
N1449 S1448 1.613 1_554 S
N1449 C1452 1.350 . S
N1450 S1448 1.610 . S
N1450 C1451 1.351 . S
C1451 C1445 1.428 . S
C1451 N1450 1.351 . S
C1451 C1452 1.434 1_556 S
C1452 C1443 1.429 . S
C1452 N1449 1.350 . S
C1452 C1451 1.434 1_554 S
C1453 C1454 1.369 . S
C1453 C1455 1.419 . S
C1453 H1457 0.930 1_545 S
C1454 C1453 1.369 . S
C1454 C1463 1.429 . S
C1455 C1453 1.419 . S
C1455 C1456 1.363 . S
C1455 H1458 0.929 1_545 S
C1456 C1455 1.363 . S
C1456 C1462 1.428 . S
H1457 C1453 0.930 1_565 S
H1458 C1455 0.929 1_565 S
S1459 N1460 1.613 . S
S1459 N1461 1.610 . S
N1460 S1459 1.613 . S
N1460 C1463 1.350 . S
N1461 S1459 1.610 . S
N1461 C1462 1.351 . S
C1462 C1456 1.428 . S
C1462 N1461 1.351 . S
C1462 C1463 1.434 . S
C1463 C1454 1.429 . S
C1463 N1460 1.350 . S
C1463 C1462 1.434 . S
C1464 C1465 1.369 1_554 S
C1464 C1466 1.419 1_545 S
C1464 H1468 0.930 . S
C1465 C1464 1.369 1_556 S
C1465 C1474 1.429 . S
C1466 C1464 1.419 1_565 S
C1466 C1467 1.363 . S
C1466 H1469 0.929 . S
C1467 C1466 1.363 . S
C1467 C1473 1.428 1_554 S
H1468 C1464 0.930 . S
H1469 C1466 0.929 . S
S1470 N1471 1.613 1_565 S
S1470 N1472 1.610 . S
N1471 S1470 1.613 1_545 S
N1471 C1474 1.350 . S
N1472 S1470 1.610 . S
N1472 C1473 1.351 . S
C1473 C1467 1.428 1_556 S
C1473 N1472 1.351 . S
C1473 C1474 1.434 1_565 S
C1474 C1465 1.429 . S
C1474 N1471 1.350 . S
C1474 C1473 1.434 1_545 S
C1475 C1476 1.369 . S
C1475 C1477 1.419 . S
C1475 H1479 0.930 . S
C1476 C1475 1.369 . S
C1476 C1485 1.429 . S
C1477 C1475 1.419 . S
C1477 C1478 1.363 . S
C1477 H1480 0.929 . S
C1478 C1477 1.363 . S
C1478 C1484 1.428 . S
H1479 C1475 0.930 . S
H1480 C1477 0.929 . S
S1481 N1482 1.613 . S
S1481 N1483 1.610 . S
N1482 S1481 1.613 . S
N1482 C1485 1.350 . S
N1483 S1481 1.610 . S
N1483 C1484 1.351 . S
C1484 C1478 1.428 . S
C1484 N1483 1.351 . S
C1484 C1485 1.434 . S
C1485 C1476 1.429 . S
C1485 N1482 1.350 . S
C1485 C1484 1.434 . S
C1486 C1487 1.369 . S
C1486 C1488 1.419 . S
C1486 H1490 0.930 . S
C1487 C1486 1.369 . S
C1487 C1496 1.429 . S
C1488 C1486 1.419 . S
C1488 C1489 1.363 . S
C1488 H1491 0.929 . S
C1489 C1488 1.363 . S
C1489 C1495 1.428 . S
H1490 C1486 0.930 . S
H1491 C1488 0.929 . S
S1492 N1493 1.613 . S
S1492 N1494 1.610 . S
N1493 S1492 1.613 . S
N1493 C1496 1.350 . S
N1494 S1492 1.610 . S
N1494 C1495 1.351 . S
C1495 C1489 1.428 . S
C1495 N1494 1.351 . S
C1495 C1496 1.434 . S
C1496 C1487 1.429 . S
C1496 N1493 1.350 . S
C1496 C1495 1.434 . S
C1497 C1498 1.369 . S
C1497 C1499 1.419 . S
C1497 H1501 0.930 . S
C1498 C1497 1.369 . S
C1498 C1507 1.429 . S
C1499 C1497 1.419 . S
C1499 C1500 1.363 . S
C1499 H1502 0.929 . S
C1500 C1499 1.363 . S
C1500 C1506 1.428 . S
H1501 C1497 0.930 . S
H1502 C1499 0.929 . S
S1503 N1504 1.613 . S
S1503 N1505 1.610 . S
N1504 S1503 1.613 . S
N1504 C1507 1.350 . S
N1505 S1503 1.610 . S
N1505 C1506 1.351 . S
C1506 C1500 1.428 . S
C1506 N1505 1.351 . S
C1506 C1507 1.434 . S
C1507 C1498 1.429 . S
C1507 N1504 1.350 . S
C1507 C1506 1.434 . S
C1508 C1509 1.369 . S
C1508 C1510 1.419 1_545 S
C1508 H1512 0.930 . S
C1509 C1508 1.369 . S
C1509 C1518 1.429 . S
C1510 C1508 1.419 1_565 S
C1510 C1511 1.363 . S
C1510 H1513 0.929 . S
C1511 C1510 1.363 . S
C1511 C1517 1.428 . S
H1512 C1508 0.930 . S
H1513 C1510 0.929 . S
S1514 N1515 1.613 . S
S1514 N1516 1.610 1_545 S
N1515 S1514 1.613 . S
N1515 C1518 1.350 . S
N1516 S1514 1.610 1_565 S
N1516 C1517 1.351 . S
C1517 C1511 1.428 . S
C1517 N1516 1.351 . S
C1517 C1518 1.434 1_565 S
C1518 C1509 1.429 . S
C1518 N1515 1.350 . S
C1518 C1517 1.434 1_545 S
C1519 C1520 1.369 . S
C1519 C1521 1.419 . S
C1519 H1523 0.930 . S
C1520 C1519 1.369 . S
C1520 C1529 1.429 . S
C1521 C1519 1.419 . S
C1521 C1522 1.363 . S
C1521 H1524 0.929 . S
C1522 C1521 1.363 . S
C1522 C1528 1.428 . S
H1523 C1519 0.930 . S
H1524 C1521 0.929 . S
S1525 N1526 1.613 . S
S1525 N1527 1.610 . S
N1526 S1525 1.613 . S
N1526 C1529 1.350 . S
N1527 S1525 1.610 . S
N1527 C1528 1.351 . S
C1528 C1522 1.428 . S
C1528 N1527 1.351 . S
C1528 C1529 1.434 . S
C1529 C1520 1.429 . S
C1529 N1526 1.350 . S
C1529 C1528 1.434 . S
C1530 C1531 1.369 1_556 S
C1530 C1532 1.419 . S
C1530 H1534 0.930 . S
C1531 C1530 1.369 1_554 S
C1531 C1540 1.429 . S
C1532 C1530 1.419 . S
C1532 C1533 1.363 . S
C1532 H1535 0.929 . S
C1533 C1532 1.363 . S
C1533 C1539 1.428 1_556 S
H1534 C1530 0.930 . S
H1535 C1532 0.929 . S
S1536 N1537 1.613 . S
S1536 N1538 1.610 . S
N1537 S1536 1.613 . S
N1537 C1540 1.350 . S
N1538 S1536 1.610 . S
N1538 C1539 1.351 . S
C1539 C1533 1.428 1_554 S
C1539 N1538 1.351 . S
C1539 C1540 1.434 . S
C1540 C1531 1.429 . S
C1540 N1537 1.350 . S
C1540 C1539 1.434 . S
C1541 C1542 1.369 . S
C1541 C1543 1.419 . S
C1541 H1545 0.930 . S
C1542 C1541 1.369 . S
C1542 C1551 1.429 . S
C1543 C1541 1.419 . S
C1543 C1544 1.363 . S
C1543 H1546 0.929 . S
C1544 C1543 1.363 . S
C1544 C1550 1.428 . S
H1545 C1541 0.930 . S
H1546 C1543 0.929 . S
S1547 N1548 1.613 . S
S1547 N1549 1.610 . S
N1548 S1547 1.613 . S
N1548 C1551 1.350 . S
N1549 S1547 1.610 . S
N1549 C1550 1.351 . S
C1550 C1544 1.428 . S
C1550 N1549 1.351 . S
C1550 C1551 1.434 . S
C1551 C1542 1.429 . S
C1551 N1548 1.350 . S
C1551 C1550 1.434 . S
C1552 C1553 1.369 . S
C1552 C1554 1.419 . S
C1552 H1556 0.930 . S
C1553 C1552 1.369 . S
C1553 C1562 1.429 . S
C1554 C1552 1.419 . S
C1554 C1555 1.363 . S
C1554 H1557 0.929 . S
C1555 C1554 1.363 . S
C1555 C1561 1.428 . S
H1556 C1552 0.930 . S
H1557 C1554 0.929 . S
S1558 N1559 1.613 . S
S1558 N1560 1.610 . S
N1559 S1558 1.613 . S
N1559 C1562 1.350 . S
N1560 S1558 1.610 . S
N1560 C1561 1.351 . S
C1561 C1555 1.428 . S
C1561 N1560 1.351 . S
C1561 C1562 1.434 . S
C1562 C1553 1.429 . S
C1562 N1559 1.350 . S
C1562 C1561 1.434 . S
C1563 C1564 1.369 . S
C1563 C1565 1.419 . S
C1563 H1567 0.930 . S
C1564 C1563 1.369 . S
C1564 C1573 1.429 . S
C1565 C1563 1.419 . S
C1565 C1566 1.363 . S
C1565 H1568 0.929 . S
C1566 C1565 1.363 . S
C1566 C1572 1.428 . S
H1567 C1563 0.930 . S
H1568 C1565 0.929 . S
S1569 N1570 1.613 . S
S1569 N1571 1.610 . S
N1570 S1569 1.613 . S
N1570 C1573 1.350 . S
N1571 S1569 1.610 . S
N1571 C1572 1.351 . S
C1572 C1566 1.428 . S
C1572 N1571 1.351 . S
C1572 C1573 1.434 . S
C1573 C1564 1.429 . S
C1573 N1570 1.350 . S
C1573 C1572 1.434 . S
C1574 C1575 1.369 . S
C1574 C1576 1.419 . S
C1574 H1578 0.930 . S
C1575 C1574 1.369 . S
C1575 C1584 1.429 . S
C1576 C1574 1.419 . S
C1576 C1577 1.363 . S
C1576 H1579 0.929 . S
C1577 C1576 1.363 . S
C1577 C1583 1.428 . S
H1578 C1574 0.930 . S
H1579 C1576 0.929 . S
S1580 N1581 1.613 . S
S1580 N1582 1.610 . S
N1581 S1580 1.613 . S
N1581 C1584 1.350 . S
N1582 S1580 1.610 . S
N1582 C1583 1.351 . S
C1583 C1577 1.428 . S
C1583 N1582 1.351 . S
C1583 C1584 1.434 . S
C1584 C1575 1.429 . S
C1584 N1581 1.350 . S
C1584 C1583 1.434 . S
C1585 C1586 1.369 . S
C1585 C1587 1.419 . S
C1585 H1589 0.930 . S
C1586 C1585 1.369 . S
C1586 C1595 1.429 . S
C1587 C1585 1.419 . S
C1587 C1588 1.363 . S
C1587 H1590 0.929 . S
C1588 C1587 1.363 . S
C1588 C1594 1.428 . S
H1589 C1585 0.930 . S
H1590 C1587 0.929 . S
S1591 N1592 1.613 . S
S1591 N1593 1.610 . S
N1592 S1591 1.613 . S
N1592 C1595 1.350 . S
N1593 S1591 1.610 . S
N1593 C1594 1.351 . S
C1594 C1588 1.428 . S
C1594 N1593 1.351 . S
C1594 C1595 1.434 . S
C1595 C1586 1.429 . S
C1595 N1592 1.350 . S
C1595 C1594 1.434 . S
C1596 C1597 1.369 . S
C1596 C1598 1.419 . S
C1596 H1600 0.930 . S
C1597 C1596 1.369 . S
C1597 C1606 1.429 . S
C1598 C1596 1.419 . S
C1598 C1599 1.363 . S
C1598 H1601 0.929 . S
C1599 C1598 1.363 . S
C1599 C1605 1.428 . S
H1600 C1596 0.930 . S
H1601 C1598 0.929 . S
S1602 N1603 1.613 . S
S1602 N1604 1.610 . S
N1603 S1602 1.613 . S
N1603 C1606 1.350 . S
N1604 S1602 1.610 . S
N1604 C1605 1.351 . S
C1605 C1599 1.428 . S
C1605 N1604 1.351 . S
C1605 C1606 1.434 . S
C1606 C1597 1.429 . S
C1606 N1603 1.350 . S
C1606 C1605 1.434 . S
C1607 C1608 1.369 . S
C1607 C1609 1.419 1_554 S
C1607 H1611 0.930 . S
C1608 C1607 1.369 . S
C1608 C1617 1.429 . S
C1609 C1607 1.419 1_556 S
C1609 C1610 1.363 . S
C1609 H1612 0.929 . S
C1610 C1609 1.363 . S
C1610 C1616 1.428 . S
H1611 C1607 0.930 . S
H1612 C1609 0.929 . S
S1613 N1614 1.613 1_556 S
S1613 N1615 1.610 . S
N1614 S1613 1.613 1_554 S
N1614 C1617 1.350 . S
N1615 S1613 1.610 . S
N1615 C1616 1.351 . S
C1616 C1610 1.428 . S
C1616 N1615 1.351 . S
C1616 C1617 1.434 1_556 S
C1617 C1608 1.429 . S
C1617 N1614 1.350 . S
C1617 C1616 1.434 1_554 S
C1618 C1619 1.369 . S
C1618 C1620 1.419 . S
C1618 H1622 0.930 . S
C1619 C1618 1.369 . S
C1619 C1628 1.429 . S
C1620 C1618 1.419 . S
C1620 C1621 1.363 . S
C1620 H1623 0.929 . S
C1621 C1620 1.363 . S
C1621 C1627 1.428 . S
H1622 C1618 0.930 . S
H1623 C1620 0.929 . S
S1624 N1625 1.613 . S
S1624 N1626 1.610 . S
N1625 S1624 1.613 . S
N1625 C1628 1.350 1_455 S
N1626 S1624 1.610 . S
N1626 C1627 1.351 1_455 S
C1627 C1621 1.428 . S
C1627 N1626 1.351 1_655 S
C1627 C1628 1.434 . S
C1628 C1619 1.429 . S
C1628 N1625 1.350 1_655 S
C1628 C1627 1.434 . S
C1629 C1630 1.369 1_455 S
C1629 C1631 1.419 . S
C1629 H1633 0.930 . S
C1630 C1629 1.369 1_655 S
C1630 C1639 1.429 . S
C1631 C1629 1.419 . S
C1631 C1632 1.363 . S
C1631 H1634 0.929 . S
C1632 C1631 1.363 . S
C1632 C1638 1.428 1_455 S
H1633 C1629 0.930 . S
H1634 C1631 0.929 . S
S1635 N1636 1.613 . S
S1635 N1637 1.610 . S
N1636 S1635 1.613 . S
N1636 C1639 1.350 . S
N1637 S1635 1.610 . S
N1637 C1638 1.351 . S
C1638 C1632 1.428 1_655 S
C1638 N1637 1.351 . S
C1638 C1639 1.434 . S
C1639 C1630 1.429 . S
C1639 N1636 1.350 . S
C1639 C1638 1.434 . S
C1640 C1641 1.369 . S
C1640 C1642 1.419 . S
C1640 H1644 0.930 . S
C1641 C1640 1.369 . S
C1641 C1650 1.429 . S
C1642 C1640 1.419 . S
C1642 C1643 1.363 . S
C1642 H1645 0.929 . S
C1643 C1642 1.363 . S
C1643 C1649 1.428 . S
H1644 C1640 0.930 . S
H1645 C1642 0.929 . S
S1646 N1647 1.613 . S
S1646 N1648 1.610 . S
N1647 S1646 1.613 . S
N1647 C1650 1.350 . S
N1648 S1646 1.610 . S
N1648 C1649 1.351 . S
C1649 C1643 1.428 . S
C1649 N1648 1.351 . S
C1649 C1650 1.434 . S
C1650 C1641 1.429 . S
C1650 N1647 1.350 . S
C1650 C1649 1.434 . S
C1651 C1652 1.369 . S
C1651 C1653 1.419 . S
C1651 H1655 0.930 . S
C1652 C1651 1.369 . S
C1652 C1661 1.429 . S
C1653 C1651 1.419 . S
C1653 C1654 1.363 . S
C1653 H1656 0.929 . S
C1654 C1653 1.363 . S
C1654 C1660 1.428 . S
H1655 C1651 0.930 . S
H1656 C1653 0.929 . S
S1657 N1658 1.613 . S
S1657 N1659 1.610 . S
N1658 S1657 1.613 . S
N1658 C1661 1.350 . S
N1659 S1657 1.610 . S
N1659 C1660 1.351 . S
C1660 C1654 1.428 . S
C1660 N1659 1.351 . S
C1660 C1661 1.434 . S
C1661 C1652 1.429 . S
C1661 N1658 1.350 . S
C1661 C1660 1.434 . S
C1662 C1663 1.369 . S
C1662 C1664 1.419 . S
C1662 H1666 0.930 . S
C1663 C1662 1.369 . S
C1663 C1672 1.429 . S
C1664 C1662 1.419 . S
C1664 C1665 1.363 . S
C1664 H1667 0.929 . S
C1665 C1664 1.363 . S
C1665 C1671 1.428 . S
H1666 C1662 0.930 . S
H1667 C1664 0.929 . S
S1668 N1669 1.613 . S
S1668 N1670 1.610 . S
N1669 S1668 1.613 . S
N1669 C1672 1.350 . S
N1670 S1668 1.610 . S
N1670 C1671 1.351 . S
C1671 C1665 1.428 . S
C1671 N1670 1.351 . S
C1671 C1672 1.434 . S
C1672 C1663 1.429 . S
C1672 N1669 1.350 . S
C1672 C1671 1.434 . S
C1673 C1674 1.369 . S
C1673 C1675 1.419 . S
C1673 H1677 0.930 . S
C1674 C1673 1.369 . S
C1674 C1683 1.429 1_565 S
C1675 C1673 1.419 . S
C1675 C1676 1.363 1_565 S
C1675 H1678 0.929 . S
C1676 C1675 1.363 1_545 S
C1676 C1682 1.428 . S
H1677 C1673 0.930 . S
H1678 C1675 0.929 . S
S1679 N1680 1.613 . S
S1679 N1681 1.610 . S
N1680 S1679 1.613 . S
N1680 C1683 1.350 . S
N1681 S1679 1.610 . S
N1681 C1682 1.351 . S
C1682 C1676 1.428 . S
C1682 N1681 1.351 . S
C1682 C1683 1.434 . S
C1683 C1674 1.429 1_545 S
C1683 N1680 1.350 . S
C1683 C1682 1.434 . S
C1684 C1685 1.369 . S
C1684 C1686 1.419 1_455 S
C1684 H1688 0.930 . S
C1685 C1684 1.369 . S
C1685 C1694 1.429 . S
C1686 C1684 1.419 1_655 S
C1686 C1687 1.363 . S
C1686 H1689 0.929 . S
C1687 C1686 1.363 . S
C1687 C1693 1.428 . S
H1688 C1684 0.930 . S
H1689 C1686 0.929 . S
S1690 N1691 1.613 . S
S1690 N1692 1.610 1_455 S
N1691 S1690 1.613 . S
N1691 C1694 1.350 . S
N1692 S1690 1.610 1_655 S
N1692 C1693 1.351 . S
C1693 C1687 1.428 . S
C1693 N1692 1.351 . S
C1693 C1694 1.434 1_655 S
C1694 C1685 1.429 . S
C1694 N1691 1.350 . S
C1694 C1693 1.434 1_455 S
C1695 C1696 1.369 1_545 S
C1695 C1697 1.419 1_455 S
C1695 H1699 0.930 . S
C1696 C1695 1.369 1_565 S
C1696 C1705 1.429 . S
C1697 C1695 1.419 1_655 S
C1697 C1698 1.363 . S
C1697 H1700 0.929 . S
C1698 C1697 1.363 . S
C1698 C1704 1.428 1_545 S
H1699 C1695 0.930 . S
H1700 C1697 0.929 . S
S1701 N1702 1.613 1_655 S
S1701 N1703 1.610 . S
N1702 S1701 1.613 1_455 S
N1702 C1705 1.350 . S
N1703 S1701 1.610 . S
N1703 C1704 1.351 . S
C1704 C1698 1.428 1_565 S
C1704 N1703 1.351 . S
C1704 C1705 1.434 1_655 S
C1705 C1696 1.429 . S
C1705 N1702 1.350 . S
C1705 C1704 1.434 1_455 S
C1706 C1707 1.369 1_455 S
C1706 C1708 1.419 1_556 S
C1706 H1710 0.930 . S
C1707 C1706 1.369 1_655 S
C1707 C1716 1.429 . S
C1708 C1706 1.419 1_554 S
C1708 C1709 1.363 . S
C1708 H1711 0.929 . S
C1709 C1708 1.363 . S
C1709 C1715 1.428 1_455 S
H1710 C1706 0.930 . S
H1711 C1708 0.929 . S
S1712 N1713 1.613 1_554 S
S1712 N1714 1.610 . S
N1713 S1712 1.613 1_556 S
N1713 C1716 1.350 . S
N1714 S1712 1.610 . S
N1714 C1715 1.351 . S
C1715 C1709 1.428 1_655 S
C1715 N1714 1.351 . S
C1715 C1716 1.434 1_554 S
C1716 C1707 1.429 . S
C1716 N1713 1.350 . S
C1716 C1715 1.434 1_556 S
C1717 C1718 1.369 . S
C1717 C1719 1.419 . S
C1717 H1721 0.930 . S
C1718 C1717 1.369 . S
C1718 C1727 1.429 1_655 S
C1719 C1717 1.419 . S
C1719 C1720 1.363 1_655 S
C1719 H1722 0.929 . S
C1720 C1719 1.363 1_455 S
C1720 C1726 1.428 . S
H1721 C1717 0.930 . S
H1722 C1719 0.929 . S
S1723 N1724 1.613 . S
S1723 N1725 1.610 . S
N1724 S1723 1.613 . S
N1724 C1727 1.350 . S
N1725 S1723 1.610 . S
N1725 C1726 1.351 . S
C1726 C1720 1.428 . S
C1726 N1725 1.351 . S
C1726 C1727 1.434 . S
C1727 C1718 1.429 1_455 S
C1727 N1724 1.350 . S
C1727 C1726 1.434 . S
C673 C386 1.064 . S
C675 C8 1.061 . S
C684 C23 1.067 . S
C686 C541 1.059 . S
C695 C36 1.070 . S
C697 C358 1.060 . S
C706 C569 1.070 . S
C708 C51 1.059 . S
C717 C401 1.070 . S
C719 C65 1.061 . S
C728 C78 1.068 . S
C730 C316 1.063 . S
C739 C429 1.058 . S
C741 C93 1.068 . S
C750 C106 1.065 . S
C752 C288 1.061 . S
C761 C498 1.070 . S
C763 C107 1.059 . S
C772 C471 1.059 . S
C774 C64 1.065 . S
C783 C79 1.065 . S
C785 C596 1.060 . S
C794 C484 1.058 . S
C796 C92 1.066 . S
C805 C120 1.061 . S
C807 C190 1.068 . S
C816 C205 1.058 . S
C818 C135 1.069 . S
C827 C219 1.070 . S
C829 C148 1.062 . S
C838 C177 1.065 . S
C840 C163 1.066 . S
C849 C191 1.058 . S
C851 C344 1.068 . S
C860 C204 1.066 . S
C862 C555 1.065 . S
C871 C372 1.061 . S
C873 C218 1.064 . S
C882 C387 1.057 . S
C884 C232 1.068 . S
C893 C247 1.065 . S
C895 C415 1.066 . S
C904 C261 1.065 . S
C906 C50 1.066 . S
C915 C274 1.068 . S
C917 C22 1.059 . S
C926 C625 1.065 . S
C928 C303 1.066 . S
C937 C653 1.070 . S
C939 C331 1.059 . S
C948 C345 1.058 . S
C950 C121 1.067 . S
C959 C373 1.067 . S
C961 C149 1.065 . S
C970 C359 1.068 . S
C972 C610 1.064 . S
C981 C470 1.070 . S
C983 C400 1.061 . S
C992 C485 1.064 . S
C994 C428 1.067 . S
C1003 C457 1.070 . S
C1005 C443 1.059 . S
C1014 C246 1.068 . S
C1016 C639 1.064 . S
C1025 C513 1.069 . S
C1027 C330 1.059 . S
C1036 C302 1.058 . S
C1038 C526 1.067 . S
C1047 C666 1.059 . S
C1049 C442 1.065 . S
C1058 C414 1.063 . S
C1060 C638 1.062 . S
C1069 C134 1.058 . S
C1071 C554 1.068 . S
C1080 C162 1.058 . S
C1082 C582 1.067 . S
C1091 C176 1.057 . S
C1093 C583 1.068 . S
C1102 C275 1.065 . S
C1104 C540 1.061 . S
C1113 C260 1.068 . S
C1115 C568 1.064 . S
C1124 C317 1.069 . S
C1126 C597 1.059 . S
C1135 C289 1.063 . S
C1137 C499 1.068 . S
C1146 C624 1.060 . S
C1148 C527 1.064 . S
C1157 C652 1.070 . S
C1159 C512 1.060 . S
C1168 C667 1.058 . S
C1170 C456 1.066 . S
C1179 C611 1.067 . S
C1181 C37 1.064 . S
C1190 C233 1.061 . S
C1192 C9 1.068 . S
C1201 C6 1.605 . S
C1203 C651 1.602 . S
C1212 C21 1.596 . S
C1214 C664 1.603 . S
C1223 C34 1.594 . S
C1225 C623 1.595 . S
C1234 C49 1.602 . S
C1236 C636 1.594 . S
C1245 C63 1.603 . S
C1247 C132 1.603 . S
C1256 C76 1.593 . S
C1258 C147 1.602 . S
C1267 C91 1.597 . S
C1269 C160 1.594 . S
C1278 C104 1.606 . S
C1280 C119 1.599 . S
C1289 C105 1.606 . S
C1291 C553 1.600 . S
C1300 C62 1.595 . S
C1302 C370 1.603 . S
C1311 C77 1.599 . S
C1313 C581 1.604 . S
C1322 C90 1.604 . S
C1324 C342 1.596 . S
C1333 C118 1.597 . S
C1335 C328 1.604 . S
C1344 C133 1.594 . S
C1346 C441 1.602 . S
C1355 C146 1.602 . S
C1357 C300 1.594 . S
C1366 C413 1.604 . S
C1368 C161 1.595 . S
C1377 C175 1.592 . S
C1379 C273 1.600 . S
C1388 C189 1.603 . S
C1390 C231 1.604 . S
C1399 C272 1.601 . S
C1401 C202 1.594 . S
C1410 C609 1.606 . S
C1412 C216 1.598 . S
C1421 C217 1.592 . S
C1423 C230 1.597 . S
C1432 C510 1.603 . S
C1434 C245 1.595 . S
C1443 C174 1.598 . S
C1445 C259 1.593 . S
C1454 C567 1.597 . S
C1456 C286 1.594 . S
C1465 C580 1.606 . S
C1467 C301 1.600 . S
C1476 C314 1.592 . S
C1478 C539 1.597 . S
C1487 C552 1.592 . S
C1489 C329 1.601 . S
C1498 C343 1.596 . S
C1500 C412 1.604 . S
C1509 C427 1.599 . S
C1511 C356 1.604 . S
C1520 C371 1.595 . S
C1522 C440 1.603 . S
C1531 C399 1.602 . S
C1533 C384 1.594 . S
C1542 C385 1.602 . S
C1544 C637 1.594 . S
C1553 C665 1.605 . S
C1555 C357 1.597 . S
C1564 C398 1.597 . S
C1566 C48 1.604 . S
C1575 C20 1.593 . S
C1577 C426 1.596 . S
C1586 C525 1.593 . S
C1588 C455 1.602 . S
C1597 C497 1.600 . S
C1599 C469 1.594 . S
C1608 C244 1.601 . S
C1610 C524 1.594 . S
C1619 C482 1.605 . S
C1621 C595 1.596 . S
C1630 C496 1.605 . S
C1632 C483 1.597 . S
C1641 C203 1.594 . S
C1643 C258 1.602 . S
C1652 C454 1.595 . S
C1654 C511 1.603 . S
C1663 C650 1.597 . S
C1665 C538 1.604 . S
C1674 C566 1.594 . S
C1676 C622 1.602 . S
C1685 C7 1.603 . S
C1687 C315 1.603 . S
C1696 C287 1.597 . S
C1698 C35 1.594 . S
C1707 C468 1.594 . S
C1709 C594 1.595 . S
C1718 C188 1.593 . S
C1720 C608 1.601 . S
