# Generated by pormake.
# Topology sof, (5)-cn, num edge types: 1
# Building blocks:
#     Node 0, Type 0, BuildingBlock: XOMCOT_clean_sbu_1, # of connection points: 5
#     Node 1, Type 0, BuildingBlock: XOMCOT_clean_sbu_1, # of connection points: 5
#     Node 2, Type 0, BuildingBlock: XOMCOT_clean_sbu_1, # of connection points: 5
#     Node 3, Type 0, BuildingBlock: XOMCOT_clean_sbu_1, # of connection points: 5
#     Node 4, Type 0, BuildingBlock: XOMCOT_clean_sbu_1, # of connection points: 5
#     Node 5, Type 0, BuildingBlock: XOMCOT_clean_sbu_1, # of connection points: 5
#     Node 6, Type 0, BuildingBlock: XOMCOT_clean_sbu_1, # of connection points: 5
#     Node 7, Type 0, BuildingBlock: XOMCOT_clean_sbu_1, # of connection points: 5
#     Edge 8, Type (0, 0), BuildingBlock: XIVTED_clean_linker_0, # of connection points: 2
#     Edge 9, Type (0, 0), BuildingBlock: XIVTED_clean_linker_0, # of connection points: 2
#     Edge 10, Type (0, 0), BuildingBlock: XIVTED_clean_linker_0, # of connection points: 2
#     Edge 11, Type (0, 0), BuildingBlock: XIVTED_clean_linker_0, # of connection points: 2
#     Edge 12, Type (0, 0), BuildingBlock: XIVTED_clean_linker_0, # of connection points: 2
#     Edge 13, Type (0, 0), BuildingBlock: XIVTED_clean_linker_0, # of connection points: 2
#     Edge 14, Type (0, 0), BuildingBlock: XIVTED_clean_linker_0, # of connection points: 2
#     Edge 15, Type (0, 0), BuildingBlock: XIVTED_clean_linker_0, # of connection points: 2
#     Edge 16, Type (0, 0), BuildingBlock: XIVTED_clean_linker_0, # of connection points: 2
#     Edge 17, Type (0, 0), BuildingBlock: XIVTED_clean_linker_0, # of connection points: 2
#     Edge 18, Type (0, 0), BuildingBlock: XIVTED_clean_linker_0, # of connection points: 2
#     Edge 19, Type (0, 0), BuildingBlock: XIVTED_clean_linker_0, # of connection points: 2
#     Edge 20, Type (0, 0), BuildingBlock: XIVTED_clean_linker_0, # of connection points: 2
#     Edge 21, Type (0, 0), BuildingBlock: XIVTED_clean_linker_0, # of connection points: 2
#     Edge 22, Type (0, 0), BuildingBlock: XIVTED_clean_linker_0, # of connection points: 2
#     Edge 23, Type (0, 0), BuildingBlock: XIVTED_clean_linker_0, # of connection points: 2
#     Edge 24, Type (0, 0), BuildingBlock: XIVTED_clean_linker_0, # of connection points: 2
#     Edge 25, Type (0, 0), BuildingBlock: XIVTED_clean_linker_0, # of connection points: 2
#     Edge 26, Type (0, 0), BuildingBlock: XIVTED_clean_linker_0, # of connection points: 2
#     Edge 27, Type (0, 0), BuildingBlock: XIVTED_clean_linker_0, # of connection points: 2
# Relax obj value: 0.150
# Max RMSD: 0.158
# Mean RMSD: 0.158
data_MOF--net-sof--node1-XOMCOT_clean_sbu_1--edge1-XIVTED_clean_linker_0
_symmetry_space_group_name_H-M    P1
_symmetry_Int_Tables_number       1
_symmetry_cell_setting            triclinic
loop_
_symmetry_equiv_pos_as_xyz
'x, y, z'
_cell_length_a     57.361277
_cell_length_b     17.613683
_cell_length_c     48.868399
_cell_angle_alpha  89.996091
_cell_angle_beta   89.989297
_cell_angle_gamma 90.023912
loop_
_atom_site_label
_atom_site_type_symbol
_atom_site_fract_x
_atom_site_fract_y
_atom_site_fract_z
_atom_type_partial_charge
C0 C 0.10891 0.15942 0.09462 0.0
C1 C 0.11029 0.23709 0.09189 0.0
N2 N 0.09274 0.26854 0.10634 0.0
N3 N 0.09071 0.14203 0.11091 0.0
C4 C 0.081 0.20947 0.11731 0.0
H5 H 0.12064 0.11839 0.08562 0.0
Co6 Co 0.08141 0.04612 0.12243 0.0
C7 C 0.06849 0.06875 0.18113 0.0
O8 O 0.07724 1.00204 0.18742 0.0
N9 N 0.07139 0.94869 0.1333 0.0
C10 C 0.04734 0.85516 0.14553 0.0
C11 C 0.05016 0.93256 0.14384 0.0
C12 C 0.08081 0.87981 0.12806 0.0
N13 N 0.06663 0.82212 0.1354 0.0
O14 O 0.05243 0.05874 0.10369 0.0
H15 H 0.03711 0.97453 0.14894 0.0
H16 H 0.09734 0.87115 0.11813 0.0
O17 O 0.06888 0.09135 0.15623 0.0
C18 C 0.05555 0.03472 0.07933 0.0
O19 O 0.07649 0.01112 0.07247 0.0
N20 N 0.11111 0.03199 0.13784 0.0
C21 C 0.15905 0.0203 0.14679 0.0
C22 C 0.14507 0.06348 0.16448 0.0
C23 C 0.12108 0.06996 0.1593 0.0
C24 C 0.12465 0.9907 0.12049 0.0
C25 C 0.1484 0.98239 0.12495 0.0
H26 H 0.11115 0.10962 0.17138 0.0
H27 H 0.1172 0.96817 0.10189 0.0
H28 H 0.06543 0.21501 0.12956 0.0
H29 H 0.12355 0.26783 0.0807 0.0
H30 H 0.03183 0.82564 0.1523 0.0
H31 H 0.1528 0.09586 0.18099 0.0
H32 H 0.15853 0.94933 0.11053 0.0
C33 C 0.38297 0.85006 0.09361 0.0
C34 C 0.38133 0.7725 0.09073 0.0
N35 N 0.39882 0.74012 0.10499 0.0
N36 N 0.40129 0.8666 0.10981 0.0
C37 C 0.41078 0.79865 0.11605 0.0
H38 H 0.37137 0.89164 0.08472 0.0
Co39 Co 0.41089 0.96257 0.12116 0.0
C40 C 0.42426 0.93993 0.17965 0.0
O41 O 0.4156 0.00674 0.18599 0.0
N42 N 0.42119 0.06013 0.13186 0.0
C43 C 0.44554 0.15288 0.14406 0.0
C44 C 0.44257 0.0756 0.14209 0.0
C45 C 0.41183 0.12943 0.12707 0.0
N46 N 0.42619 0.18667 0.13443 0.0
O47 O 0.43965 0.94936 0.10202 0.0
H48 H 0.45559 0.03323 0.14687 0.0
H49 H 0.39517 0.13875 0.11754 0.0
O50 O 0.42367 0.91719 0.15478 0.0
C51 C 0.43636 0.97301 0.07765 0.0
O52 O 0.41539 0.99673 0.07098 0.0
N53 N 0.38138 0.97727 0.13698 0.0
C54 C 0.33359 0.99084 0.14683 0.0
C55 C 0.34763 0.94652 0.1641 0.0
C56 C 0.37152 0.93917 0.15849 0.0
C57 C 0.36779 0.01941 0.11997 0.0
C58 C 0.34414 0.02877 0.1249 0.0
H59 H 0.38146 0.89887 0.17028 0.0
H60 H 0.37511 0.04208 0.10131 0.0
H61 H 0.42638 0.79236 0.12821 0.0
H62 H 0.36794 0.74248 0.0795 0.0
H63 H 0.46118 0.18185 0.15074 0.0
H64 H 0.33999 0.91409 0.18067 0.0
H65 H 0.33401 0.06287 0.11081 0.0
C66 C 0.1119 0.34949 0.41983 0.0
C67 C 0.11355 0.27194 0.42271 0.0
N68 N 0.09572 0.23959 0.409 0.0
N69 N 0.09324 0.36607 0.40418 0.0
C70 C 0.08357 0.29814 0.39827 0.0
H71 H 0.12373 0.39104 0.42835 0.0
Co72 Co 0.08345 0.46205 0.39302 0.0
C73 C 0.069 0.43897 0.3349 0.0
O74 O 0.07744 0.5059 0.32832 0.0
N75 N 0.07296 0.55956 0.38252 0.0
C76 C 0.04837 0.65223 0.37097 0.0
C77 C 0.05139 0.57495 0.37286 0.0
C78 C 0.0824 0.6289 0.38706 0.0
N79 N 0.0679 0.68609 0.38009 0.0
O80 O 0.05513 0.44908 0.41297 0.0
H81 H 0.03828 0.53253 0.36844 0.0
H82 H 0.09924 0.63827 0.39616 0.0
O83 O 0.07003 0.41643 0.35978 0.0
C84 C 0.05912 0.47237 0.43725 0.0
O85 O 0.08032 0.49535 0.44323 0.0
N86 N 0.1126 0.47664 0.3764 0.0
C87 C 0.16027 0.48845 0.36597 0.0
C88 C 0.14596 0.44481 0.34882 0.0
C89 C 0.1221 0.43829 0.35474 0.0
C90 C 0.12647 0.5186 0.39317 0.0
C91 C 0.15009 0.52699 0.38797 0.0
H92 H 0.11193 0.39818 0.34313 0.0
H93 H 0.11942 0.54141 0.41195 0.0
H94 H 0.0677 0.29187 0.3866 0.0
H95 H 0.12716 0.24189 0.43354 0.0
H96 H 0.0326 0.68114 0.36472 0.0
H97 H 0.15337 0.412 0.33222 0.0
H98 H 0.16055 0.56029 0.402 0.0
C99 C 0.38263 0.66144 0.41873 0.0
C100 C 0.38099 0.73901 0.42158 0.0
N101 N 0.39888 0.77128 0.40795 0.0
N102 N 0.40134 0.64478 0.40317 0.0
C103 C 0.41105 0.71268 0.39728 0.0
H104 H 0.37076 0.61994 0.42721 0.0
Co105 Co 0.41122 0.54879 0.39215 0.0
C106 C 0.42553 0.57135 0.33398 0.0
O107 O 0.41717 0.50418 0.32756 0.0
N108 N 0.42182 0.45128 0.38177 0.0
C109 C 0.44651 0.35881 0.37029 0.0
C110 C 0.44341 0.43607 0.37214 0.0
C111 C 0.41244 0.38185 0.38635 0.0
N112 N 0.42701 0.32478 0.37942 0.0
O113 O 0.43953 0.5623 0.41207 0.0
H114 H 0.45648 0.47861 0.36768 0.0
H115 H 0.3956 0.37231 0.39542 0.0
O116 O 0.42455 0.59422 0.35882 0.0
C117 C 0.43555 0.53904 0.43635 0.0
O118 O 0.41436 0.51583 0.44232 0.0
N119 N 0.38207 0.53367 0.37559 0.0
C120 C 0.33447 0.51982 0.36495 0.0
C121 C 0.34868 0.56411 0.34787 0.0
C122 C 0.37249 0.57162 0.35389 0.0
C123 C 0.3683 0.4914 0.39236 0.0
C124 C 0.34474 0.48186 0.38703 0.0
H125 H 0.38256 0.61201 0.34227 0.0
H126 H 0.37537 0.46896 0.41119 0.0
H127 H 0.42697 0.71886 0.38569 0.0
H128 H 0.36736 0.76911 0.43236 0.0
H129 H 0.46231 0.33003 0.36405 0.0
H130 H 0.34122 0.59651 0.3312 0.0
H131 H 0.33442 0.44788 0.40099 0.0
C132 C 0.87658 0.8464 0.91683 0.0
C133 C 0.8747 0.76887 0.91964 0.0
N134 N 0.89319 0.7363 0.90729 0.0
N135 N 0.89606 0.86266 0.90259 0.0
C136 C 0.90597 0.79467 0.89742 0.0
H137 H 0.86434 0.88821 0.92431 0.0
Co138 Co 0.90627 0.95849 0.89218 0.0
C139 C 0.92426 0.93648 0.83542 0.0
O140 O 0.916 1.00334 0.82845 0.0
N141 N 0.91715 0.05622 0.88261 0.0
C142 C 0.94229 0.1492 0.87308 0.0
C143 C 0.93922 0.07193 0.87467 0.0
C144 C 0.90746 0.12542 0.88659 0.0
N145 N 0.92228 0.18279 0.88075 0.0
O146 O 0.93345 0.94616 0.91422 0.0
H147 H 0.95259 0.02971 0.87123 0.0
H148 H 0.89021 0.13452 0.89458 0.0
O149 O 0.92195 0.91331 0.86013 0.0
C150 C 0.92957 0.97006 0.93842 0.0
O151 O 0.90852 0.99446 0.94439 0.0
N152 N 0.87819 0.97163 0.87275 0.0
C153 C 0.83264 0.98641 0.85325 0.0
C154 C 0.84844 0.93739 0.84033 0.0
C155 C 0.87105 0.92974 0.8507 0.0
C156 C 0.86257 0.01596 0.88635 0.0
C157 C 0.83997 0.02587 0.87659 0.0
H158 H 0.88213 0.88689 0.84185 0.0
H159 H 0.86726 0.04041 0.90585 0.0
H160 H 0.92239 0.78822 0.88687 0.0
H161 H 0.86048 0.73898 0.92943 0.0
H162 H 0.95835 0.1783 0.86806 0.0
H163 H 0.84318 0.9036 0.82287 0.0
H164 H 0.82795 0.06082 0.88815 0.0
C165 C 0.61717 0.15791 0.91698 0.0
C166 C 0.61884 0.23555 0.91961 0.0
N167 N 0.60017 0.26725 0.90734 0.0
N168 N 0.59765 0.14087 0.90294 0.0
C169 C 0.5875 0.20839 0.89774 0.0
H170 H 0.62958 0.1166 0.92442 0.0
Co171 Co 0.58753 0.0451 0.89266 0.0
C172 C 0.56939 0.06624 0.8359 0.0
O173 O 0.57765 0.99932 0.82901 0.0
N174 N 0.57674 0.94746 0.88324 0.0
C175 C 0.55177 0.85375 0.87416 0.0
C176 C 0.5547 0.93113 0.87539 0.0
C177 C 0.58656 0.87866 0.88752 0.0
N178 N 0.57184 0.82089 0.88197 0.0
O179 O 0.56036 0.0573 0.91475 0.0
H180 H 0.54124 0.97299 0.87183 0.0
H181 H 0.60382 0.87016 0.89557 0.0
O182 O 0.57177 0.08981 0.86054 0.0
C183 C 0.56437 0.03383 0.93898 0.0
O184 O 0.58549 0.01001 0.94489 0.0
N185 N 0.61562 0.03208 0.87318 0.0
C186 C 0.66114 0.01742 0.85359 0.0
C187 C 0.64526 0.0659 0.84055 0.0
C188 C 0.62266 0.07349 0.85097 0.0
C189 C 0.63134 0.98841 0.8869 0.0
C190 C 0.65392 0.97854 0.8771 0.0
H191 H 0.61151 0.11594 0.842 0.0
H192 H 0.62672 0.96446 0.90652 0.0
H193 H 0.57099 0.21413 0.88733 0.0
H194 H 0.63303 0.26611 0.92918 0.0
H195 H 0.53576 0.82413 0.86931 0.0
H196 H 0.65045 0.09928 0.82296 0.0
H197 H 0.66601 0.94408 0.88874 0.0
C198 C 0.88111 0.66027 0.59704 0.0
C199 C 0.87939 0.73783 0.59426 0.0
N200 N 0.89724 0.7702 0.60793 0.0
N201 N 0.89983 0.64372 0.61259 0.0
C202 C 0.90946 0.71166 0.61857 0.0
H203 H 0.86931 0.61869 0.58849 0.0
Co204 Co 0.90981 0.54769 0.62337 0.0
C205 C 0.92453 0.5692 0.6814 0.0
O206 O 0.91606 0.50212 0.68773 0.0
N207 N 0.92051 0.45011 0.63348 0.0
C208 C 0.9453 0.35763 0.64462 0.0
C209 C 0.9422 0.43488 0.6428 0.0
C210 C 0.91107 0.38071 0.62907 0.0
N211 N 0.9257 0.32364 0.6358 0.0
O212 O 0.93799 0.56156 0.60322 0.0
H213 H 0.95531 0.47741 0.64709 0.0
H214 H 0.89413 0.37116 0.62028 0.0
O215 O 0.9234 0.5926 0.65663 0.0
C216 C 0.93394 0.53898 0.57887 0.0
O217 O 0.91273 0.516 0.57289 0.0
N218 N 0.88078 0.53232 0.64018 0.0
C219 C 0.83324 0.5184 0.65127 0.0
C220 C 0.84757 0.56256 0.66825 0.0
C221 C 0.87135 0.57011 0.66201 0.0
C222 C 0.8669 0.49022 0.6235 0.0
C223 C 0.84337 0.48062 0.62905 0.0
H224 H 0.88151 0.61038 0.67357 0.0
H225 H 0.87384 0.46791 0.60459 0.0
H226 H 0.92536 0.71794 0.63018 0.0
H227 H 0.86575 0.76786 0.58347 0.0
H228 H 0.96115 0.32882 0.65066 0.0
H229 H 0.84023 0.59482 0.68503 0.0
H230 H 0.83297 0.44669 0.61517 0.0
C231 C 0.61049 0.34707 0.59901 0.0
C232 C 0.61197 0.26942 0.5964 0.0
N233 N 0.5941 0.23793 0.61028 0.0
N234 N 0.5919 0.36443 0.61466 0.0
C235 C 0.58209 0.29697 0.62084 0.0
H236 H 0.62237 0.38814 0.59029 0.0
Co237 Co 0.58214 0.46042 0.62549 0.0
C238 C 0.56776 0.43972 0.68371 0.0
O239 O 0.57625 0.50693 0.68982 0.0
N240 N 0.57166 0.55788 0.63563 0.0
C241 C 0.54709 0.65112 0.64658 0.0
C242 C 0.55004 0.57376 0.64505 0.0
C243 C 0.58121 0.62687 0.63089 0.0
N244 N 0.56672 0.68435 0.63747 0.0
O245 O 0.55379 0.44687 0.60561 0.0
H246 H 0.53686 0.53161 0.64954 0.0
H247 H 0.59812 0.63577 0.62191 0.0
O248 O 0.56875 0.41589 0.65899 0.0
C249 C 0.55779 0.46971 0.58128 0.0
O250 O 0.57899 0.49261 0.57524 0.0
N251 N 0.61133 0.47545 0.64197 0.0
C252 C 0.65907 0.48685 0.65208 0.0
C253 C 0.64474 0.44424 0.66956 0.0
C254 C 0.62085 0.43788 0.6638 0.0
C255 C 0.62521 0.51646 0.6249 0.0
C256 C 0.64887 0.52464 0.62993 0.0
H257 H 0.61067 0.39842 0.67569 0.0
H258 H 0.61814 0.5386 0.60603 0.0
H259 H 0.56622 0.29139 0.63257 0.0
H260 H 0.62548 0.23871 0.58562 0.0
H261 H 0.53132 0.68048 0.65256 0.0
H262 H 0.65217 0.41201 0.6863 0.0
H263 H 0.65933 0.55712 0.61565 0.0
H264 H 0.18982 0.0408 0.10534 0.0
H265 H 0.30652 0.00505 0.19347 0.0
H266 H 0.18703 1.0032 0.19253 0.0
H267 H 0.30188 0.97706 0.1059 0.0
H268 H 0.26362 0.01439 0.19543 0.0
H269 H 0.23195 0.0325 0.10698 0.0
C270 C 0.19812 0.03022 0.12488 0.0
C271 C 0.18486 0.02084 0.14874 0.0
C272 C 0.27213 0.00616 0.17587 0.0
C273 C 0.23347 0.01201 0.15086 0.0
C274 C 0.29651 1.00058 0.17475 0.0
C275 C 0.30781 0.99192 0.14941 0.0
C276 C 0.25916 1.00312 0.15149 0.0
C277 C 0.29404 0.98609 0.12579 0.0
C278 C 0.22225 0.02566 0.12583 0.0
C279 C 0.19666 0.01013 0.17364 0.0
N280 N 0.27058 0.99228 0.12742 0.0
N281 N 0.22041 0.00551 0.17408 0.0
H282 H 0.3076 0.50302 0.31827 0.0
H283 H 0.19135 0.4647 0.40671 0.0
H284 H 0.30271 0.53712 0.40554 0.0
H285 H 0.18773 0.50739 0.31987 0.0
H286 H 0.23346 0.47338 0.40458 0.0
H287 H 0.26468 0.49275 0.31629 0.0
C288 C 0.29753 0.5087 0.33691 0.0
C289 C 0.30873 0.51917 0.3622 0.0
C290 C 0.22357 0.48123 0.38591 0.0
C291 C 0.26016 0.50686 0.36012 0.0
C292 C 0.19948 0.47636 0.38714 0.0
C293 C 0.18601 0.48725 0.36355 0.0
C294 C 0.23454 0.49675 0.36087 0.0
C295 C 0.19755 0.49939 0.33856 0.0
C296 C 0.27315 0.5026 0.33577 0.0
C297 C 0.29492 0.52666 0.38572 0.0
N298 N 0.22129 0.50438 0.33785 0.0
N299 N 0.27149 0.51978 0.3841 0.0
H300 H 0.80345 0.86946 0.8395 0.0
H301 H 0.69027 0.13422 0.83943 0.0
H302 H 0.8055 0.11321 0.84787 0.0
H303 H 0.68829 0.89062 0.84838 0.0
H304 H 0.73237 0.12707 0.83183 0.0
H305 H 0.76134 0.87655 0.83205 0.0
C306 C 0.79511 0.92461 0.83918 0.0
C307 C 0.80793 0.99083 0.84455 0.0
C308 C 0.72267 0.07509 0.83509 0.0
C309 C 0.75976 0.99925 0.83641 0.0
C310 C 0.69862 0.07908 0.83922 0.0
C311 C 0.68583 0.01293 0.84479 0.0
C312 C 0.73398 0.00445 0.83647 0.0
C313 C 0.69759 0.94307 0.84456 0.0
C314 C 0.77105 0.92857 0.83515 0.0
C315 C 0.79618 0.06071 0.84421 0.0
N316 N 0.72103 0.94069 0.84071 0.0
N317 N 0.77273 0.06306 0.84046 0.0
H318 H 0.6899 0.46019 0.61132 0.0
H319 H 0.80675 0.50203 0.69829 0.0
H320 H 0.68677 0.50787 0.69784 0.0
H321 H 0.80112 0.53491 0.61102 0.0
H322 H 0.76386 0.49151 0.7008 0.0
H323 H 0.73204 0.46867 0.61305 0.0
C324 C 0.69815 0.47286 0.63073 0.0
C325 C 0.68481 0.48526 0.65434 0.0
C326 C 0.77216 0.50114 0.6812 0.0
C327 C 0.73336 0.49459 0.65656 0.0
C328 C 0.79653 0.50738 0.67977 0.0
C329 C 0.80752 0.51757 0.65432 0.0
C330 C 0.75897 0.50492 0.657 0.0
C331 C 0.79351 0.52463 0.63096 0.0
C332 C 0.72225 0.47764 0.63173 0.0
C333 C 0.6965 0.4987 0.67914 0.0
N334 N 0.77009 0.51758 0.63286 0.0
N335 N 0.72024 0.5036 0.67963 0.0
H336 H 0.00856 0.06316 0.08635 0.0
H337 H 0.97634 0.93941 0.93258 0.0
H338 H 0.05902 0.99147 0.0261 0.0
H339 H 0.92539 0.015 0.99161 0.0
H340 H 0.00686 0.95634 0.96708 0.0
H341 H 0.97762 0.04588 0.05215 0.0
C342 C 0.01314 0.04421 0.06596 0.0
C343 C 0.0364 0.02871 0.05912 0.0
C344 C 0.98898 0.96907 0.9725 0.0
C345 C 0.00121 0.00833 0.02002 0.0
C346 C 0.97156 0.95914 0.95281 0.0
C347 C 0.94829 0.97583 0.95918 0.0
C348 C 0.98309 0.99587 0.99875 0.0
C349 C 0.94311 1.00152 0.98574 0.0
C350 C 0.9955 0.03411 0.04647 0.0
C351 C 0.04134 0.004 0.03239 0.0
N352 N 0.96035 0.01085 1.0045 0.0
N353 N 0.02394 0.9945 0.01391 0.0
H354 H 0.43242 0.01358 0.02418 0.0
H355 H 0.56891 0.9908 0.99233 0.0
H356 H 0.48349 0.94629 0.08435 0.0
H357 H 0.51741 0.06201 0.93328 0.0
H358 H 0.53812 0.97422 0.02621 0.0
H359 H 0.46337 0.02985 0.99074 0.0
C360 C 0.45019 1.00193 0.0304 0.0
C361 C 0.45535 0.97859 0.05722 0.0
C362 C 0.53353 0.99364 1.00589 0.0
C363 C 0.49108 0.99758 0.01873 0.0
C364 C 0.55111 1.00329 0.98648 0.0
C365 C 0.54574 0.02786 0.95985 0.0
C366 C 0.51031 0.00848 0.9987 0.0
C367 C 0.52236 0.04315 0.95355 0.0
C368 C 0.46789 0.01141 0.0112 0.0
C369 C 0.47871 0.96423 0.06392 0.0
N370 N 0.50551 0.03302 0.97282 0.0
N371 N 0.49574 0.97413 0.0448 0.0
H372 H 0.06455 0.51041 0.4908 0.0
H373 H 0.92844 0.50219 0.5252 0.0
H374 H 0.01172 0.45008 0.43177 0.0
H375 H 0.98133 0.56127 0.58431 0.0
H376 H 0.95858 0.48435 0.49078 0.0
H377 H 0.03439 0.52872 0.52515 0.0
C378 C 0.04656 0.50069 0.48504 0.0
C379 C 0.04066 0.47873 0.45827 0.0
C380 C 0.96365 0.50137 0.51122 0.0
C381 C 0.00589 0.50012 0.49775 0.0
C382 C 0.94643 0.51175 0.53097 0.0
C383 C 0.95237 0.53317 0.55778 0.0
C384 C 0.9871 0.51232 0.51823 0.0
C385 C 0.97597 0.5449 0.56391 0.0
C386 C 0.02933 0.51134 0.50474 0.0
C387 C 0.01706 0.46685 0.45214 0.0
N388 N 0.9925 0.53409 0.54429 0.0
N389 N 0.00052 0.47791 0.47173 0.0
H390 H 0.48286 0.56311 0.43098 0.0
H391 H 0.51046 0.4459 0.58669 0.0
H392 H 0.43015 0.4998 0.4898 0.0
H393 H 0.56318 0.50849 0.52779 0.0
H394 H 0.48064 0.46438 0.55131 0.0
H395 H 0.51268 0.54456 0.46636 0.0
C396 C 0.47755 0.54581 0.45132 0.0
C397 C 0.454 0.53291 0.4574 0.0
C398 C 0.49876 0.47388 0.54616 0.0
C399 C 0.48791 0.51102 0.49788 0.0
C400 C 0.51577 0.46303 0.56633 0.0
C401 C 0.53932 0.47576 0.56024 0.0
C402 C 0.50541 0.49757 0.51975 0.0
C403 C 0.54522 0.49823 0.5335 0.0
C404 C 0.49455 0.53492 0.4715 0.0
C405 C 0.44811 0.51021 0.48411 0.0
N406 N 0.52841 0.50852 0.51432 0.0
N407 N 0.46491 0.49989 0.50329 0.0
H408 H 0.05909 0.2866 0.33922 0.0
H409 H 0.05755 0.22039 0.17713 0.0
H410 H 0.06481 0.46729 0.27998 0.0
H411 H 0.06581 0.0403 0.23618 0.0
H412 H 0.05301 0.31094 0.21461 0.0
H413 H 0.05431 0.19577 0.30187 0.0
C414 C 0.05907 0.30745 0.31842 0.0
C415 C 0.06269 0.38476 0.31282 0.0
C416 C 0.0556 0.25149 0.21936 0.0
C417 C 0.0572 0.28077 0.26981 0.0
C418 C 0.05816 0.19961 0.19792 0.0
C419 C 0.06242 0.1226 0.20341 0.0
C420 C 0.05715 0.22622 0.24657 0.0
C421 C 0.0628 0.09917 0.2309 0.0
C422 C 0.0564 0.2554 0.29706 0.0
C423 C 0.06231 0.40822 0.28533 0.0
N424 N 0.06038 0.15077 0.25142 0.0
N425 N 0.05981 0.35645 0.26489 0.0
H426 H 0.43509 0.72403 0.33795 0.0
H427 H 0.43497 0.78806 0.17572 0.0
H428 H 0.42952 0.54238 0.27908 0.0
H429 H 0.42763 0.96904 0.2346 0.0
H430 H 0.43999 0.69803 0.21328 0.0
H431 H 0.43942 0.81448 0.3004 0.0
C432 C 0.43506 0.7029 0.31719 0.0
C433 C 0.43161 0.62541 0.31175 0.0
C434 C 0.43749 0.75756 0.21798 0.0
C435 C 0.43657 0.72897 0.26851 0.0
C436 C 0.43467 0.80915 0.19649 0.0
C437 C 0.43054 0.88628 0.20192 0.0
C438 C 0.43632 0.78321 0.24517 0.0
C439 C 0.43052 0.91008 0.22937 0.0
C440 C 0.43748 0.75472 0.2957 0.0
C441 C 0.43189 0.6016 0.28431 0.0
N442 N 0.43318 0.85874 0.24993 0.0
N443 N 0.43413 0.65316 0.26375 0.0
H444 H 0.93355 0.78364 0.83981 0.0
H445 H 0.93559 0.72088 0.67758 0.0
H446 H 0.93056 0.96585 0.78088 0.0
H447 H 0.92817 0.53936 0.73626 0.0
H448 H 0.94077 0.81045 0.71525 0.0
H449 H 0.93869 0.69327 0.80237 0.0
C450 C 0.93429 0.80491 0.81907 0.0
C451 C 0.93126 0.88252 0.81355 0.0
C452 C 0.93825 0.75089 0.71988 0.0
C453 C 0.9371 0.77908 0.77045 0.0
C454 C 0.93532 0.69957 0.69833 0.0
C455 C 0.93109 0.62245 0.70368 0.0
C456 C 0.93703 0.725 0.74705 0.0
C457 C 0.93113 0.59834 0.7311 0.0
C458 C 0.93716 0.75314 0.79765 0.0
C459 C 0.93256 0.90653 0.78617 0.0
N460 N 0.93383 0.64945 0.75172 0.0
N461 N 0.93517 0.85501 0.76566 0.0
H462 H 0.56207 0.03514 0.78168 0.0
H463 H 0.56368 0.47131 0.73839 0.0
H464 H 0.56082 0.21962 0.83973 0.0
H465 H 0.55771 0.28716 0.68059 0.0
H466 H 0.55878 0.38076 0.77578 0.0
H467 H 0.55651 0.12632 0.74464 0.0
C468 C 0.56033 0.09475 0.78673 0.0
C469 C 0.56224 0.1197 0.81394 0.0
C470 C 0.55828 0.36018 0.75491 0.0
C471 C 0.5561 0.22485 0.77142 0.0
C472 C 0.56108 0.41194 0.73348 0.0
C473 C 0.56143 0.38684 0.7062 0.0
C474 C 0.55599 0.28242 0.7491 0.0
C475 C 0.55779 0.30919 0.70122 0.0
C476 C 0.55718 0.14688 0.7655 0.0
C477 C 0.55967 0.19768 0.81914 0.0
N478 N 0.55551 0.2597 0.72244 0.0
N479 N 0.55704 0.24751 0.79807 0.0
H480 H 0.09266 0.75667 0.09537 0.0
H481 H 0.06914 0.33428 0.14848 0.0
H482 H 0.04913 0.70472 0.16492 0.0
H483 H 0.10606 0.38615 0.07377 0.0
H484 H 0.06226 0.46934 0.15541 0.0
H485 H 0.09885 0.62126 0.08812 0.0
C486 C 0.08454 0.71685 0.10928 0.0
C487 C 0.07045 0.74221 0.13092 0.0
C488 C 0.07181 0.45116 0.13745 0.0
C489 C 0.07724 0.58662 0.12248 0.0
C490 C 0.07563 0.37378 0.13336 0.0
C491 C 0.08817 0.34832 0.11041 0.0
C492 C 0.08064 0.50382 0.11855 0.0
C493 C 0.09655 0.40288 0.09189 0.0
C494 C 0.08794 0.63938 0.10498 0.0
C495 C 0.05998 0.68768 0.14789 0.0
N496 N 0.09265 0.47795 0.09639 0.0
N497 N 0.06364 0.61246 0.14336 0.0
H498 H 0.44445 0.30229 0.16426 0.0
H499 H 0.38482 0.62415 0.07204 0.0
H500 H 0.39956 0.25488 0.09552 0.0
H501 H 0.42281 0.67179 0.14635 0.0
H502 H 0.39144 0.48889 0.0793 0.0
H503 H 0.43833 0.43826 0.15688 0.0
C504 C 0.43335 0.32044 0.14759 0.0
C505 C 0.42244 0.26695 0.13057 0.0
C506 C 0.39835 0.52898 0.09401 0.0
C507 C 0.41529 0.42253 0.12201 0.0
C508 C 0.39449 0.60641 0.08993 0.0
C509 C 0.40322 0.65997 0.1086 0.0
C510 C 0.41109 0.50454 0.11691 0.0
C511 C 0.41598 0.6331 0.13118 0.0
C512 C 0.42978 0.39806 0.14345 0.0
C513 C 0.40804 0.2938 0.10943 0.0
N514 N 0.4195 0.55739 0.1347 0.0
N515 N 0.40494 0.36958 0.10572 0.0
H516 H 0.11034 0.12362 0.44157 0.0
H517 H 0.04907 0.80171 0.35079 0.0
H518 H 0.07089 0.17127 0.36832 0.0
H519 H 0.09521 0.7543 0.41837 0.0
H520 H 0.05527 0.93769 0.35809 0.0
H521 H 0.10359 0.98833 0.43446 0.0
C522 C 0.10032 0.10587 0.42395 0.0
C523 C 0.09122 0.15944 0.40553 0.0
C524 C 0.06408 0.89749 0.37128 0.0
C525 C 0.08321 0.00399 0.39739 0.0
C526 C 0.06045 0.81987 0.36719 0.0
C527 C 0.07169 0.76638 0.3839 0.0
C528 C 0.07893 0.92197 0.39237 0.0
C529 C 0.08646 0.79323 0.40469 0.0
C530 C 0.09639 0.02844 0.41996 0.0
C531 C 0.07802 0.13257 0.3833 0.0
N532 N 0.0896 0.86902 0.40836 0.0
N533 N 0.07444 0.05686 0.37985 0.0
H534 H 0.38423 0.8872 0.44051 0.0
H535 H 0.44596 0.20923 0.35017 0.0
H536 H 0.42393 0.8396 0.36744 0.0
H537 H 0.39967 0.25644 0.41764 0.0
H538 H 0.43973 0.07322 0.3574 0.0
H539 H 0.39112 0.02245 0.43354 0.0
C540 C 0.39433 0.90495 0.42295 0.0
C541 C 0.40346 0.85141 0.40454 0.0
C542 C 0.4309 0.11339 0.37058 0.0
C543 C 0.41164 0.00683 0.39656 0.0
C544 C 0.43454 0.19102 0.36654 0.0
C545 C 0.42326 0.24447 0.38323 0.0
C546 C 0.41597 0.08885 0.39161 0.0
C547 C 0.40844 0.21756 0.40397 0.0
C548 C 0.39835 0.98237 0.41904 0.0
C549 C 0.41678 0.87828 0.3824 0.0
N550 N 0.40528 0.14176 0.4076 0.0
N551 N 0.42043 0.95399 0.37903 0.0
H552 H 0.87679 0.62061 0.93881 0.0
H553 H 0.94258 0.29832 0.85281 0.0
H554 H 0.91999 0.66768 0.86846 0.0
H555 H 0.89293 0.25098 0.9169 0.0
H556 H 0.93602 0.43426 0.85957 0.0
H557 H 0.8838 0.48523 0.93228 0.0
C558 C 0.88769 0.60271 0.92194 0.0
C559 C 0.89777 0.65612 0.90417 0.0
C560 C 0.92652 0.3941 0.87211 0.0
C561 C 0.90607 0.50063 0.89671 0.0
C562 C 0.93035 0.3165 0.86834 0.0
C563 C 0.91825 0.26305 0.88423 0.0
C564 C 0.91057 0.4186 0.89206 0.0
C565 C 0.90238 0.2899 0.90387 0.0
C566 C 0.89176 0.52523 0.91828 0.0
C567 C 0.91207 0.62909 0.88292 0.0
N568 N 0.89906 0.36571 0.90727 0.0
N569 N 0.91577 0.55336 0.87979 0.0
H570 H 0.60112 0.75537 0.91875 0.0
H571 H 0.57325 0.33345 0.86818 0.0
H572 H 0.55202 0.70368 0.85452 0.0
H573 H 0.61621 0.38445 0.93836 0.0
H574 H 0.5659 0.46857 0.86222 0.0
H575 H 0.60792 0.61988 0.92515 0.0
C576 C 0.5919 0.71559 0.90582 0.0
C577 C 0.57605 0.74101 0.88594 0.0
C578 C 0.57688 0.45019 0.87898 0.0
C579 C 0.58356 0.58543 0.89342 0.0
C580 C 0.58099 0.37278 0.88252 0.0
C581 C 0.59535 0.34707 0.90389 0.0
C582 C 0.58726 0.50264 0.89684 0.0
C583 C 0.60525 0.4014 0.92143 0.0
C584 C 0.59565 0.6381 0.90965 0.0
C585 C 0.56423 0.68657 0.87021 0.0
N586 N 0.60104 0.47653 0.9175 0.0
N587 N 0.56827 0.61136 0.87423 0.0
H588 H 0.88254 0.88597 0.57534 0.0
H589 H 0.94482 0.20823 0.66495 0.0
H590 H 0.9223 0.83865 0.64839 0.0
H591 H 0.89803 0.25524 0.59796 0.0
H592 H 0.93845 0.0722 0.65793 0.0
H593 H 0.88948 0.02121 0.58219 0.0
C594 C 0.89266 0.90378 0.59287 0.0
C595 C 0.9018 0.85033 0.6113 0.0
C596 C 0.92954 0.11233 0.64481 0.0
C597 C 0.91004 0.00574 0.61913 0.0
C598 C 0.93326 0.18997 0.64874 0.0
C599 C 0.92188 0.24334 0.63211 0.0
C600 C 0.91445 0.08775 0.62397 0.0
C601 C 0.90689 0.21639 0.61156 0.0
C602 C 0.89671 0.9812 0.59671 0.0
C603 C 0.91514 0.87728 0.63341 0.0
N604 N 0.90366 0.14059 0.60805 0.0
N605 N 0.91883 0.95298 0.6367 0.0
H606 H 0.59402 0.75006 0.59871 0.0
H607 H 0.56935 0.17193 0.65146 0.0
H608 H 0.54825 0.80145 0.66628 0.0
H609 H 0.60816 0.12061 0.57805 0.0
H610 H 0.56212 0.03682 0.6579 0.0
H611 H 0.60052 0.88551 0.59191 0.0
C612 C 0.58547 0.78979 0.61228 0.0
C613 C 0.57067 0.76428 0.63324 0.0
C614 C 0.57216 0.05515 0.64034 0.0
C615 C 0.57782 0.91988 0.62532 0.0
C616 C 0.57619 0.13254 0.63652 0.0
C617 C 0.58936 0.15815 0.61409 0.0
C618 C 0.58142 1.00266 0.62167 0.0
C619 C 0.59816 0.10376 0.59579 0.0
C620 C 0.58905 0.86727 0.60824 0.0
C621 C 0.55966 0.81865 0.64978 0.0
N622 N 0.59405 0.02869 0.60001 0.0
N623 N 0.56352 0.89389 0.64553 0.0
loop_
_geom_bond_atom_site_label_1
_geom_bond_atom_site_label_2
_geom_bond_distance
_geom_bond_site_symmetry_2
_ccdc_geom_bond_type
C0 C1 1.351 . S
C0 N3 1.368 . S
C0 H5 0.931 . S
C1 C0 1.351 . S
C1 N2 1.373 . S
C1 H29 0.930 . S
N2 C1 1.373 . S
N2 C4 1.340 . S
N3 C0 1.368 . S
N3 C4 1.321 . S
N3 Co6 2.135 . S
C4 N2 1.340 . S
C4 N3 1.321 . S
C4 H28 0.930 . S
H5 C0 0.931 . S
Co6 N3 2.135 . S
Co6 N9 2.121 1_545 S
Co6 O14 2.055 . S
Co6 O17 2.039 . S
Co6 N20 2.140 . S
C7 O8 1.227 . S
C7 O17 1.265 . S
O8 C7 1.227 . S
N9 Co6 2.121 1_565 S
N9 C11 1.375 . S
N9 C12 1.313 . S
C10 C11 1.338 . S
C10 N13 1.377 . S
C10 H30 0.930 . S
C11 N9 1.375 . S
C11 C10 1.338 . S
C11 H15 0.931 . S
C12 N9 1.313 . S
C12 N13 1.344 . S
C12 H16 0.930 . S
N13 C10 1.377 . S
N13 C12 1.344 . S
O14 Co6 2.055 . S
O14 C18 1.253 . S
H15 C11 0.931 . S
H16 C12 0.930 . S
O17 Co6 2.039 . S
O17 C7 1.265 . S
C18 O14 1.253 . S
C18 O19 1.227 . S
O19 C18 1.227 . S
N20 Co6 2.140 . S
N20 C23 1.346 . S
N20 C24 1.345 . S
C21 C22 1.387 . S
C21 C25 1.391 . S
C22 C21 1.387 . S
C22 C23 1.369 . S
C22 H31 0.929 . S
C23 N20 1.346 . S
C23 C22 1.369 . S
C23 H26 0.928 . S
C24 N20 1.345 . S
C24 C25 1.371 . S
C24 H27 0.931 1_545 S
C25 C21 1.391 . S
C25 C24 1.371 . S
C25 H32 0.930 1_545 S
H26 C23 0.928 . S
H27 C24 0.931 1_565 S
H28 C4 0.930 . S
H29 C1 0.930 . S
H30 C10 0.930 . S
H31 C22 0.929 . S
H32 C25 0.930 1_565 S
C33 C34 1.351 . S
C33 N36 1.368 . S
C33 H38 0.931 . S
C34 C33 1.351 . S
C34 N35 1.373 . S
C34 H62 0.930 . S
N35 C34 1.373 . S
N35 C37 1.340 . S
N36 C33 1.368 . S
N36 C37 1.321 . S
N36 Co39 2.135 . S
C37 N35 1.340 . S
C37 N36 1.321 . S
C37 H61 0.930 . S
H38 C33 0.931 . S
Co39 N36 2.135 . S
Co39 N42 2.121 1_565 S
Co39 O47 2.055 . S
Co39 O50 2.039 . S
Co39 N53 2.140 . S
C40 O41 1.227 . S
C40 O50 1.265 . S
O41 C40 1.227 . S
N42 Co39 2.121 1_545 S
N42 C44 1.375 . S
N42 C45 1.313 . S
C43 C44 1.338 . S
C43 N46 1.377 . S
C43 H63 0.930 . S
C44 N42 1.375 . S
C44 C43 1.338 . S
C44 H48 0.931 . S
C45 N42 1.313 . S
C45 N46 1.344 . S
C45 H49 0.930 . S
N46 C43 1.377 . S
N46 C45 1.344 . S
O47 Co39 2.055 . S
O47 C51 1.253 . S
H48 C44 0.931 . S
H49 C45 0.930 . S
O50 Co39 2.039 . S
O50 C40 1.265 . S
C51 O47 1.253 . S
C51 O52 1.227 . S
O52 C51 1.227 . S
N53 Co39 2.140 . S
N53 C56 1.346 . S
N53 C57 1.345 . S
C54 C55 1.387 . S
C54 C58 1.391 . S
C55 C54 1.387 . S
C55 C56 1.369 . S
C55 H64 0.929 . S
C56 N53 1.346 . S
C56 C55 1.369 . S
C56 H59 0.928 . S
C57 N53 1.345 . S
C57 C58 1.371 . S
C57 H60 0.931 1_565 S
C58 C54 1.391 . S
C58 C57 1.371 . S
C58 H65 0.930 1_565 S
H59 C56 0.928 . S
H60 C57 0.931 1_545 S
H61 C37 0.930 . S
H62 C34 0.930 . S
H63 C43 0.930 . S
H64 C55 0.929 . S
H65 C58 0.930 1_545 S
C66 C67 1.351 . S
C66 N69 1.368 . S
C66 H71 0.931 . S
C67 C66 1.351 . S
C67 N68 1.373 . S
C67 H95 0.930 . S
N68 C67 1.373 . S
N68 C70 1.340 . S
N69 C66 1.368 . S
N69 C70 1.321 . S
N69 Co72 2.135 . S
C70 N68 1.340 . S
C70 N69 1.321 . S
C70 H94 0.930 . S
H71 C66 0.931 . S
Co72 N69 2.135 . S
Co72 N75 2.121 . S
Co72 O80 2.055 . S
Co72 O83 2.039 . S
Co72 N86 2.140 . S
C73 O74 1.227 . S
C73 O83 1.265 . S
O74 C73 1.227 . S
N75 Co72 2.121 . S
N75 C77 1.375 . S
N75 C78 1.313 . S
C76 C77 1.338 . S
C76 N79 1.377 . S
C76 H96 0.930 . S
C77 N75 1.375 . S
C77 C76 1.338 . S
C77 H81 0.931 . S
C78 N75 1.313 . S
C78 N79 1.344 . S
C78 H82 0.930 . S
N79 C76 1.377 . S
N79 C78 1.344 . S
O80 Co72 2.055 . S
O80 C84 1.253 . S
H81 C77 0.931 . S
H82 C78 0.930 . S
O83 Co72 2.039 . S
O83 C73 1.265 . S
C84 O80 1.253 . S
C84 O85 1.227 . S
O85 C84 1.227 . S
N86 Co72 2.140 . S
N86 C89 1.346 . S
N86 C90 1.345 . S
C87 C88 1.387 . S
C87 C91 1.391 . S
C88 C87 1.387 . S
C88 C89 1.369 . S
C88 H97 0.929 . S
C89 N86 1.346 . S
C89 C88 1.369 . S
C89 H92 0.928 . S
C90 N86 1.345 . S
C90 C91 1.371 . S
C90 H93 0.931 . S
C91 C87 1.391 . S
C91 C90 1.371 . S
C91 H98 0.930 . S
H92 C89 0.928 . S
H93 C90 0.931 . S
H94 C70 0.930 . S
H95 C67 0.930 . S
H96 C76 0.930 . S
H97 C88 0.929 . S
H98 C91 0.930 . S
C99 C100 1.351 . S
C99 N102 1.368 . S
C99 H104 0.931 . S
C100 C99 1.351 . S
C100 N101 1.373 . S
C100 H128 0.930 . S
N101 C100 1.373 . S
N101 C103 1.340 . S
N102 C99 1.368 . S
N102 C103 1.321 . S
N102 Co105 2.135 . S
C103 N101 1.340 . S
C103 N102 1.321 . S
C103 H127 0.930 . S
H104 C99 0.931 . S
Co105 N102 2.135 . S
Co105 N108 2.121 . S
Co105 O113 2.055 . S
Co105 O116 2.039 . S
Co105 N119 2.140 . S
C106 O107 1.227 . S
C106 O116 1.265 . S
O107 C106 1.227 . S
N108 Co105 2.121 . S
N108 C110 1.375 . S
N108 C111 1.313 . S
C109 C110 1.338 . S
C109 N112 1.377 . S
C109 H129 0.930 . S
C110 N108 1.375 . S
C110 C109 1.338 . S
C110 H114 0.931 . S
C111 N108 1.313 . S
C111 N112 1.344 . S
C111 H115 0.930 . S
N112 C109 1.377 . S
N112 C111 1.344 . S
O113 Co105 2.055 . S
O113 C117 1.253 . S
H114 C110 0.931 . S
H115 C111 0.930 . S
O116 Co105 2.039 . S
O116 C106 1.265 . S
C117 O113 1.253 . S
C117 O118 1.227 . S
O118 C117 1.227 . S
N119 Co105 2.140 . S
N119 C122 1.346 . S
N119 C123 1.345 . S
C120 C121 1.387 . S
C120 C124 1.391 . S
C121 C120 1.387 . S
C121 C122 1.369 . S
C121 H130 0.929 . S
C122 N119 1.346 . S
C122 C121 1.369 . S
C122 H125 0.928 . S
C123 N119 1.345 . S
C123 C124 1.371 . S
C123 H126 0.931 . S
C124 C120 1.391 . S
C124 C123 1.371 . S
C124 H131 0.930 . S
H125 C122 0.928 . S
H126 C123 0.931 . S
H127 C103 0.930 . S
H128 C100 0.930 . S
H129 C109 0.930 . S
H130 C121 0.929 . S
H131 C124 0.930 . S
C132 C133 1.351 . S
C132 N135 1.368 . S
C132 H137 0.931 . S
C133 C132 1.351 . S
C133 N134 1.373 . S
C133 H161 0.930 . S
N134 C133 1.373 . S
N134 C136 1.340 . S
N135 C132 1.368 . S
N135 C136 1.321 . S
N135 Co138 2.135 . S
C136 N134 1.340 . S
C136 N135 1.321 . S
C136 H160 0.930 . S
H137 C132 0.931 . S
Co138 N135 2.135 . S
Co138 N141 2.121 1_565 S
Co138 O146 2.055 . S
Co138 O149 2.039 . S
Co138 N152 2.140 . S
C139 O140 1.227 . S
C139 O149 1.265 . S
O140 C139 1.227 . S
N141 Co138 2.121 1_545 S
N141 C143 1.375 . S
N141 C144 1.313 . S
C142 C143 1.338 . S
C142 N145 1.377 . S
C142 H162 0.930 . S
C143 N141 1.375 . S
C143 C142 1.338 . S
C143 H147 0.931 . S
C144 N141 1.313 . S
C144 N145 1.344 . S
C144 H148 0.930 . S
N145 C142 1.377 . S
N145 C144 1.344 . S
O146 Co138 2.055 . S
O146 C150 1.253 . S
H147 C143 0.931 . S
H148 C144 0.930 . S
O149 Co138 2.039 . S
O149 C139 1.265 . S
C150 O146 1.253 . S
C150 O151 1.227 . S
O151 C150 1.227 . S
N152 Co138 2.140 . S
N152 C155 1.346 . S
N152 C156 1.345 . S
C153 C154 1.387 . S
C153 C157 1.391 . S
C154 C153 1.387 . S
C154 C155 1.369 . S
C154 H163 0.929 . S
C155 N152 1.346 . S
C155 C154 1.369 . S
C155 H158 0.928 . S
C156 N152 1.345 . S
C156 C157 1.371 . S
C156 H159 0.931 1_565 S
C157 C153 1.391 . S
C157 C156 1.371 . S
C157 H164 0.930 1_565 S
H158 C155 0.928 . S
H159 C156 0.931 1_545 S
H160 C136 0.930 . S
H161 C133 0.930 . S
H162 C142 0.930 . S
H163 C154 0.929 . S
H164 C157 0.930 1_545 S
C165 C166 1.351 . S
C165 N168 1.368 . S
C165 H170 0.931 . S
C166 C165 1.351 . S
C166 N167 1.373 . S
C166 H194 0.930 . S
N167 C166 1.373 . S
N167 C169 1.340 . S
N168 C165 1.368 . S
N168 C169 1.321 . S
N168 Co171 2.135 . S
C169 N167 1.340 . S
C169 N168 1.321 . S
C169 H193 0.930 . S
H170 C165 0.931 . S
Co171 N168 2.135 . S
Co171 N174 2.121 1_545 S
Co171 O179 2.055 . S
Co171 O182 2.039 . S
Co171 N185 2.140 . S
C172 O173 1.227 . S
C172 O182 1.265 . S
O173 C172 1.227 . S
N174 Co171 2.121 1_565 S
N174 C176 1.375 . S
N174 C177 1.313 . S
C175 C176 1.338 . S
C175 N178 1.377 . S
C175 H195 0.930 . S
C176 N174 1.375 . S
C176 C175 1.338 . S
C176 H180 0.931 . S
C177 N174 1.313 . S
C177 N178 1.344 . S
C177 H181 0.930 . S
N178 C175 1.377 . S
N178 C177 1.344 . S
O179 Co171 2.055 . S
O179 C183 1.253 . S
H180 C176 0.931 . S
H181 C177 0.930 . S
O182 Co171 2.039 . S
O182 C172 1.265 . S
C183 O179 1.253 . S
C183 O184 1.227 . S
O184 C183 1.227 . S
N185 Co171 2.140 . S
N185 C188 1.346 . S
N185 C189 1.345 . S
C186 C187 1.387 . S
C186 C190 1.391 . S
C187 C186 1.387 . S
C187 C188 1.369 . S
C187 H196 0.929 . S
C188 N185 1.346 . S
C188 C187 1.369 . S
C188 H191 0.928 . S
C189 N185 1.345 . S
C189 C190 1.371 . S
C189 H192 0.931 1_545 S
C190 C186 1.391 . S
C190 C189 1.371 . S
C190 H197 0.930 1_545 S
H191 C188 0.928 . S
H192 C189 0.931 1_565 S
H193 C169 0.930 . S
H194 C166 0.930 . S
H195 C175 0.930 . S
H196 C187 0.929 . S
H197 C190 0.930 1_565 S
C198 C199 1.351 . S
C198 N201 1.368 . S
C198 H203 0.931 . S
C199 C198 1.351 . S
C199 N200 1.373 . S
C199 H227 0.930 . S
N200 C199 1.373 . S
N200 C202 1.340 . S
N201 C198 1.368 . S
N201 C202 1.321 . S
N201 Co204 2.135 . S
C202 N200 1.340 . S
C202 N201 1.321 . S
C202 H226 0.930 . S
H203 C198 0.931 . S
Co204 N201 2.135 . S
Co204 N207 2.121 . S
Co204 O212 2.055 . S
Co204 O215 2.039 . S
Co204 N218 2.140 . S
C205 O206 1.227 . S
C205 O215 1.265 . S
O206 C205 1.227 . S
N207 Co204 2.121 . S
N207 C209 1.375 . S
N207 C210 1.313 . S
C208 C209 1.338 . S
C208 N211 1.377 . S
C208 H228 0.930 . S
C209 N207 1.375 . S
C209 C208 1.338 . S
C209 H213 0.931 . S
C210 N207 1.313 . S
C210 N211 1.344 . S
C210 H214 0.930 . S
N211 C208 1.377 . S
N211 C210 1.344 . S
O212 Co204 2.055 . S
O212 C216 1.253 . S
H213 C209 0.931 . S
H214 C210 0.930 . S
O215 Co204 2.039 . S
O215 C205 1.265 . S
C216 O212 1.253 . S
C216 O217 1.227 . S
O217 C216 1.227 . S
N218 Co204 2.140 . S
N218 C221 1.346 . S
N218 C222 1.345 . S
C219 C220 1.387 . S
C219 C223 1.391 . S
C220 C219 1.387 . S
C220 C221 1.369 . S
C220 H229 0.929 . S
C221 N218 1.346 . S
C221 C220 1.369 . S
C221 H224 0.928 . S
C222 N218 1.345 . S
C222 C223 1.371 . S
C222 H225 0.931 . S
C223 C219 1.391 . S
C223 C222 1.371 . S
C223 H230 0.930 . S
H224 C221 0.928 . S
H225 C222 0.931 . S
H226 C202 0.930 . S
H227 C199 0.930 . S
H228 C208 0.930 . S
H229 C220 0.929 . S
H230 C223 0.930 . S
C231 C232 1.351 . S
C231 N234 1.368 . S
C231 H236 0.931 . S
C232 C231 1.351 . S
C232 N233 1.373 . S
C232 H260 0.930 . S
N233 C232 1.373 . S
N233 C235 1.340 . S
N234 C231 1.368 . S
N234 C235 1.321 . S
N234 Co237 2.135 . S
C235 N233 1.340 . S
C235 N234 1.321 . S
C235 H259 0.930 . S
H236 C231 0.931 . S
Co237 N234 2.135 . S
Co237 N240 2.121 . S
Co237 O245 2.055 . S
Co237 O248 2.039 . S
Co237 N251 2.140 . S
C238 O239 1.227 . S
C238 O248 1.265 . S
O239 C238 1.227 . S
N240 Co237 2.121 . S
N240 C242 1.375 . S
N240 C243 1.313 . S
C241 C242 1.338 . S
C241 N244 1.377 . S
C241 H261 0.930 . S
C242 N240 1.375 . S
C242 C241 1.338 . S
C242 H246 0.931 . S
C243 N240 1.313 . S
C243 N244 1.344 . S
C243 H247 0.930 . S
N244 C241 1.377 . S
N244 C243 1.344 . S
O245 Co237 2.055 . S
O245 C249 1.253 . S
H246 C242 0.931 . S
H247 C243 0.930 . S
O248 Co237 2.039 . S
O248 C238 1.265 . S
C249 O245 1.253 . S
C249 O250 1.227 . S
O250 C249 1.227 . S
N251 Co237 2.140 . S
N251 C254 1.346 . S
N251 C255 1.345 . S
C252 C253 1.387 . S
C252 C256 1.391 . S
C253 C252 1.387 . S
C253 C254 1.369 . S
C253 H262 0.929 . S
C254 N251 1.346 . S
C254 C253 1.369 . S
C254 H257 0.928 . S
C255 N251 1.345 . S
C255 C256 1.371 . S
C255 H258 0.931 . S
C256 C252 1.391 . S
C256 C255 1.371 . S
C256 H263 0.930 . S
H257 C254 0.928 . S
H258 C255 0.931 . S
H259 C235 0.930 . S
H260 C232 0.930 . S
H261 C241 0.930 . S
H262 C253 0.929 . S
H263 C256 0.930 . S
H264 C270 0.930 1_565 S
H265 C274 0.930 1_545 S
H266 C279 0.929 . S
H267 C277 0.929 . S
H268 C272 0.929 . S
H269 C278 0.929 . S
C270 H264 0.930 1_545 S
C270 C271 1.367 . S
C270 C278 1.378 1_545 S
C271 C270 1.367 . S
C271 C279 1.433 . S
C272 H268 0.929 . S
C272 C274 1.378 1_545 S
C272 C276 1.350 1_545 S
C273 C276 1.463 1_545 S
C273 C278 1.350 1_545 S
C273 N281 1.427 . S
C274 H265 0.930 1_565 S
C274 C272 1.378 1_565 S
C274 C275 1.367 . S
C275 C274 1.367 . S
C275 C277 1.433 . S
C276 C272 1.350 1_565 S
C276 C273 1.463 1_565 S
C276 N280 1.427 . S
C277 H267 0.929 . S
C277 C275 1.433 . S
C277 N280 1.384 . S
C278 H269 0.929 . S
C278 C270 1.378 1_565 S
C278 C273 1.350 1_565 S
C279 H266 0.929 . S
C279 C271 1.433 . S
C279 N281 1.384 . S
N280 C276 1.427 . S
N280 C277 1.384 . S
N281 C273 1.427 . S
N281 C279 1.384 . S
H282 C288 0.930 . S
H283 C292 0.930 . S
H284 C297 0.929 . S
H285 C295 0.929 . S
H286 C290 0.929 . S
H287 C296 0.929 . S
C288 H282 0.930 . S
C288 C289 1.367 . S
C288 C296 1.378 . S
C289 C288 1.367 . S
C289 C297 1.433 . S
C290 H286 0.929 . S
C290 C292 1.378 . S
C290 C294 1.350 . S
C291 C294 1.463 . S
C291 C296 1.350 . S
C291 N299 1.427 . S
C292 H283 0.930 . S
C292 C290 1.378 . S
C292 C293 1.367 . S
C293 C292 1.367 . S
C293 C295 1.433 . S
C294 C290 1.350 . S
C294 C291 1.463 . S
C294 N298 1.427 . S
C295 H285 0.929 . S
C295 C293 1.433 . S
C295 N298 1.384 . S
C296 H287 0.929 . S
C296 C288 1.378 . S
C296 C291 1.350 . S
C297 H284 0.929 . S
C297 C289 1.433 . S
C297 N299 1.384 . S
N298 C294 1.427 . S
N298 C295 1.384 . S
N299 C291 1.427 . S
N299 C297 1.384 . S
H300 C306 0.930 . S
H301 C310 0.930 . S
H302 C315 0.929 . S
H303 C313 0.929 . S
H304 C308 0.929 . S
H305 C314 0.929 . S
C306 H300 0.930 . S
C306 C307 1.367 . S
C306 C314 1.378 . S
C307 C306 1.367 . S
C307 C315 1.433 1_565 S
C308 H304 0.929 . S
C308 C310 1.378 . S
C308 C312 1.350 . S
C309 C312 1.463 1_565 S
C309 C314 1.350 . S
C309 N317 1.427 1_565 S
C310 H301 0.930 . S
C310 C308 1.378 . S
C310 C311 1.367 . S
C311 C310 1.367 . S
C311 C313 1.433 1_545 S
C312 C308 1.350 . S
C312 C309 1.463 1_545 S
C312 N316 1.427 1_545 S
C313 H303 0.929 . S
C313 C311 1.433 1_565 S
C313 N316 1.384 . S
C314 H305 0.929 . S
C314 C306 1.378 . S
C314 C309 1.350 . S
C315 H302 0.929 . S
C315 C307 1.433 1_545 S
C315 N317 1.384 . S
N316 C312 1.427 1_565 S
N316 C313 1.384 . S
N317 C309 1.427 1_545 S
N317 C315 1.384 . S
H318 C324 0.930 . S
H319 C328 0.930 . S
H320 C333 0.929 . S
H321 C331 0.929 . S
H322 C326 0.929 . S
H323 C332 0.929 . S
C324 H318 0.930 . S
C324 C325 1.367 . S
C324 C332 1.378 . S
C325 C324 1.367 . S
C325 C333 1.433 . S
C326 H322 0.929 . S
C326 C328 1.378 . S
C326 C330 1.350 . S
C327 C330 1.463 . S
C327 C332 1.350 . S
C327 N335 1.427 . S
C328 H319 0.930 . S
C328 C326 1.378 . S
C328 C329 1.367 . S
C329 C328 1.367 . S
C329 C331 1.433 . S
C330 C326 1.350 . S
C330 C327 1.463 . S
C330 N334 1.427 . S
C331 H321 0.929 . S
C331 C329 1.433 . S
C331 N334 1.384 . S
C332 H323 0.929 . S
C332 C324 1.378 . S
C332 C327 1.350 . S
C333 H320 0.929 . S
C333 C325 1.433 . S
C333 N335 1.384 . S
N334 C330 1.427 . S
N334 C331 1.384 . S
N335 C327 1.427 . S
N335 C333 1.384 . S
H336 C342 0.930 . S
H337 C346 0.930 . S
H338 C351 0.929 . S
H339 C349 0.929 . S
H340 C344 0.929 1_455 S
H341 C350 0.929 1_655 S
C342 H336 0.930 . S
C342 C343 1.367 . S
C342 C350 1.378 . S
C343 C342 1.367 . S
C343 C351 1.433 1_545 S
C344 H340 0.929 1_655 S
C344 C346 1.378 . S
C344 C348 1.350 . S
C345 C348 1.463 1_444 S
C345 C350 1.350 . S
C345 N353 1.427 1_545 S
C346 H337 0.930 . S
C346 C344 1.378 . S
C346 C347 1.367 . S
C347 C346 1.367 . S
C347 C349 1.433 1_565 S
C348 C344 1.350 . S
C348 C345 1.463 1_666 S
C348 N352 1.427 1_565 S
C349 H339 0.929 . S
C349 C347 1.433 1_545 S
C349 N352 1.384 . S
C350 H341 0.929 1_455 S
C350 C342 1.378 . S
C350 C345 1.350 . S
C351 H338 0.929 . S
C351 C343 1.433 1_565 S
C351 N353 1.384 . S
N352 C348 1.427 1_545 S
N352 C349 1.384 . S
N353 C345 1.427 1_565 S
N353 C351 1.384 . S
H354 C360 0.930 . S
H355 C364 0.930 . S
H356 C369 0.929 . S
H357 C367 0.929 . S
H358 C362 0.929 . S
H359 C368 0.929 . S
C360 H354 0.930 . S
C360 C361 1.367 1_545 S
C360 C368 1.378 . S
C361 C360 1.367 1_565 S
C361 C369 1.433 . S
C362 H358 0.929 . S
C362 C364 1.378 . S
C362 C366 1.350 1_565 S
C363 C366 1.463 1_564 S
C363 C368 1.350 1_565 S
C363 N371 1.427 . S
C364 H355 0.930 . S
C364 C362 1.378 . S
C364 C365 1.367 1_565 S
C365 C364 1.367 1_545 S
C365 C367 1.433 . S
C366 C362 1.350 1_545 S
C366 C363 1.463 1_546 S
C366 N370 1.427 . S
C367 H357 0.929 . S
C367 C365 1.433 . S
C367 N370 1.384 . S
C368 H359 0.929 . S
C368 C360 1.378 . S
C368 C363 1.350 1_545 S
C369 H356 0.929 . S
C369 C361 1.433 . S
C369 N371 1.384 . S
N370 C366 1.427 . S
N370 C367 1.384 . S
N371 C363 1.427 . S
N371 C369 1.384 . S
H372 C378 0.930 . S
H373 C382 0.930 . S
H374 C387 0.929 . S
H375 C385 0.929 . S
H376 C380 0.929 . S
H377 C386 0.929 . S
C378 H372 0.930 . S
C378 C379 1.367 . S
C378 C386 1.378 . S
C379 C378 1.367 . S
C379 C387 1.433 . S
C380 H376 0.929 . S
C380 C382 1.378 . S
C380 C384 1.350 . S
C381 C384 1.463 1_455 S
C381 C386 1.350 . S
C381 N389 1.427 . S
C382 H373 0.930 . S
C382 C380 1.378 . S
C382 C383 1.367 . S
C383 C382 1.367 . S
C383 C385 1.433 . S
C384 C380 1.350 . S
C384 C381 1.463 1_655 S
C384 N388 1.427 . S
C385 H375 0.929 . S
C385 C383 1.433 . S
C385 N388 1.384 . S
C386 H377 0.929 . S
C386 C378 1.378 . S
C386 C381 1.350 . S
C387 H374 0.929 . S
C387 C379 1.433 . S
C387 N389 1.384 . S
N388 C384 1.427 . S
N388 C385 1.384 . S
N389 C381 1.427 . S
N389 C387 1.384 . S
H390 C396 0.930 . S
H391 C400 0.930 . S
H392 C405 0.929 . S
H393 C403 0.929 . S
H394 C398 0.929 . S
H395 C404 0.929 . S
C396 H390 0.930 . S
C396 C397 1.367 . S
C396 C404 1.378 . S
C397 C396 1.367 . S
C397 C405 1.433 . S
C398 H394 0.929 . S
C398 C400 1.378 . S
C398 C402 1.350 . S
C399 C402 1.463 . S
C399 C404 1.350 . S
C399 N407 1.427 . S
C400 H391 0.930 . S
C400 C398 1.378 . S
C400 C401 1.367 . S
C401 C400 1.367 . S
C401 C403 1.433 . S
C402 C398 1.350 . S
C402 C399 1.463 . S
C402 N406 1.427 . S
C403 H393 0.929 . S
C403 C401 1.433 . S
C403 N406 1.384 . S
C404 H395 0.929 . S
C404 C396 1.378 . S
C404 C399 1.350 . S
C405 H392 0.929 . S
C405 C397 1.433 . S
C405 N407 1.384 . S
N406 C402 1.427 . S
N406 C403 1.384 . S
N407 C399 1.427 . S
N407 C405 1.384 . S
H408 C414 0.930 . S
H409 C418 0.930 . S
H410 C423 0.929 . S
H411 C421 0.929 . S
H412 C416 0.929 . S
H413 C422 0.929 . S
C414 H408 0.930 . S
C414 C415 1.367 . S
C414 C422 1.378 . S
C415 C414 1.367 . S
C415 C423 1.433 . S
C416 H412 0.929 . S
C416 C418 1.378 . S
C416 C420 1.350 . S
C417 C420 1.463 . S
C417 C422 1.350 . S
C417 N425 1.427 . S
C418 H409 0.930 . S
C418 C416 1.378 . S
C418 C419 1.367 . S
C419 C418 1.367 . S
C419 C421 1.433 . S
C420 C416 1.350 . S
C420 C417 1.463 . S
C420 N424 1.427 . S
C421 H411 0.929 . S
C421 C419 1.433 . S
C421 N424 1.384 . S
C422 H413 0.929 . S
C422 C414 1.378 . S
C422 C417 1.350 . S
C423 H410 0.929 . S
C423 C415 1.433 . S
C423 N425 1.384 . S
N424 C420 1.427 . S
N424 C421 1.384 . S
N425 C417 1.427 . S
N425 C423 1.384 . S
H426 C432 0.930 . S
H427 C436 0.930 . S
H428 C441 0.929 . S
H429 C439 0.929 . S
H430 C434 0.929 . S
H431 C440 0.929 . S
C432 H426 0.930 . S
C432 C433 1.367 . S
C432 C440 1.378 . S
C433 C432 1.367 . S
C433 C441 1.433 . S
C434 H430 0.929 . S
C434 C436 1.378 . S
C434 C438 1.350 . S
C435 C438 1.463 . S
C435 C440 1.350 . S
C435 N443 1.427 . S
C436 H427 0.930 . S
C436 C434 1.378 . S
C436 C437 1.367 . S
C437 C436 1.367 . S
C437 C439 1.433 . S
C438 C434 1.350 . S
C438 C435 1.463 . S
C438 N442 1.427 . S
C439 H429 0.929 . S
C439 C437 1.433 . S
C439 N442 1.384 . S
C440 H431 0.929 . S
C440 C432 1.378 . S
C440 C435 1.350 . S
C441 H428 0.929 . S
C441 C433 1.433 . S
C441 N443 1.384 . S
N442 C438 1.427 . S
N442 C439 1.384 . S
N443 C435 1.427 . S
N443 C441 1.384 . S
H444 C450 0.930 . S
H445 C454 0.930 . S
H446 C459 0.929 . S
H447 C457 0.929 . S
H448 C452 0.929 . S
H449 C458 0.929 . S
C450 H444 0.930 . S
C450 C451 1.367 . S
C450 C458 1.378 . S
C451 C450 1.367 . S
C451 C459 1.433 . S
C452 H448 0.929 . S
C452 C454 1.378 . S
C452 C456 1.350 . S
C453 C456 1.463 . S
C453 C458 1.350 . S
C453 N461 1.427 . S
C454 H445 0.930 . S
C454 C452 1.378 . S
C454 C455 1.367 . S
C455 C454 1.367 . S
C455 C457 1.433 . S
C456 C452 1.350 . S
C456 C453 1.463 . S
C456 N460 1.427 . S
C457 H447 0.929 . S
C457 C455 1.433 . S
C457 N460 1.384 . S
C458 H449 0.929 . S
C458 C450 1.378 . S
C458 C453 1.350 . S
C459 H446 0.929 . S
C459 C451 1.433 . S
C459 N461 1.384 . S
N460 C456 1.427 . S
N460 C457 1.384 . S
N461 C453 1.427 . S
N461 C459 1.384 . S
H462 C468 0.930 . S
H463 C472 0.930 . S
H464 C477 0.929 . S
H465 C475 0.929 . S
H466 C470 0.929 . S
H467 C476 0.929 . S
C468 H462 0.930 . S
C468 C469 1.367 . S
C468 C476 1.378 . S
C469 C468 1.367 . S
C469 C477 1.433 . S
C470 H466 0.929 . S
C470 C472 1.378 . S
C470 C474 1.350 . S
C471 C474 1.463 . S
C471 C476 1.350 . S
C471 N479 1.427 . S
C472 H463 0.930 . S
C472 C470 1.378 . S
C472 C473 1.367 . S
C473 C472 1.367 . S
C473 C475 1.433 . S
C474 C470 1.350 . S
C474 C471 1.463 . S
C474 N478 1.427 . S
C475 H465 0.929 . S
C475 C473 1.433 . S
C475 N478 1.384 . S
C476 H467 0.929 . S
C476 C468 1.378 . S
C476 C471 1.350 . S
C477 H464 0.929 . S
C477 C469 1.433 . S
C477 N479 1.384 . S
N478 C474 1.427 . S
N478 C475 1.384 . S
N479 C471 1.427 . S
N479 C477 1.384 . S
H480 C486 0.930 . S
H481 C490 0.930 . S
H482 C495 0.929 . S
H483 C493 0.929 . S
H484 C488 0.929 . S
H485 C494 0.929 . S
C486 H480 0.930 . S
C486 C487 1.367 . S
C486 C494 1.378 . S
C487 C486 1.367 . S
C487 C495 1.433 . S
C488 H484 0.929 . S
C488 C490 1.378 . S
C488 C492 1.350 . S
C489 C492 1.463 . S
C489 C494 1.350 . S
C489 N497 1.427 . S
C490 H481 0.930 . S
C490 C488 1.378 . S
C490 C491 1.367 . S
C491 C490 1.367 . S
C491 C493 1.433 . S
C492 C488 1.350 . S
C492 C489 1.463 . S
C492 N496 1.427 . S
C493 H483 0.929 . S
C493 C491 1.433 . S
C493 N496 1.384 . S
C494 H485 0.929 . S
C494 C486 1.378 . S
C494 C489 1.350 . S
C495 H482 0.929 . S
C495 C487 1.433 . S
C495 N497 1.384 . S
N496 C492 1.427 . S
N496 C493 1.384 . S
N497 C489 1.427 . S
N497 C495 1.384 . S
H498 C504 0.930 . S
H499 C508 0.930 . S
H500 C513 0.929 . S
H501 C511 0.929 . S
H502 C506 0.929 . S
H503 C512 0.929 . S
C504 H498 0.930 . S
C504 C505 1.367 . S
C504 C512 1.378 . S
C505 C504 1.367 . S
C505 C513 1.433 . S
C506 H502 0.929 . S
C506 C508 1.378 . S
C506 C510 1.350 . S
C507 C510 1.463 . S
C507 C512 1.350 . S
C507 N515 1.427 . S
C508 H499 0.930 . S
C508 C506 1.378 . S
C508 C509 1.367 . S
C509 C508 1.367 . S
C509 C511 1.433 . S
C510 C506 1.350 . S
C510 C507 1.463 . S
C510 N514 1.427 . S
C511 H501 0.929 . S
C511 C509 1.433 . S
C511 N514 1.384 . S
C512 H503 0.929 . S
C512 C504 1.378 . S
C512 C507 1.350 . S
C513 H500 0.929 . S
C513 C505 1.433 . S
C513 N515 1.384 . S
N514 C510 1.427 . S
N514 C511 1.384 . S
N515 C507 1.427 . S
N515 C513 1.384 . S
H516 C522 0.930 . S
H517 C526 0.930 . S
H518 C531 0.929 . S
H519 C529 0.929 . S
H520 C524 0.929 . S
H521 C530 0.929 . S
C522 H516 0.930 . S
C522 C523 1.367 . S
C522 C530 1.378 1_545 S
C523 C522 1.367 . S
C523 C531 1.433 . S
C524 H520 0.929 . S
C524 C526 1.378 . S
C524 C528 1.350 . S
C525 C528 1.463 . S
C525 C530 1.350 . S
C525 N533 1.427 . S
C526 H517 0.930 . S
C526 C524 1.378 . S
C526 C527 1.367 . S
C527 C526 1.367 . S
C527 C529 1.433 . S
C528 C524 1.350 . S
C528 C525 1.463 . S
C528 N532 1.427 . S
C529 H519 0.929 . S
C529 C527 1.433 . S
C529 N532 1.384 . S
C530 H521 0.929 . S
C530 C522 1.378 1_565 S
C530 C525 1.350 . S
C531 H518 0.929 . S
C531 C523 1.433 . S
C531 N533 1.384 1_545 S
N532 C528 1.427 . S
N532 C529 1.384 . S
N533 C525 1.427 . S
N533 C531 1.384 1_565 S
H534 C540 0.930 . S
H535 C544 0.930 . S
H536 C549 0.929 . S
H537 C547 0.929 . S
H538 C542 0.929 . S
H539 C548 0.929 . S
C540 H534 0.930 . S
C540 C541 1.367 . S
C540 C548 1.378 1_565 S
C541 C540 1.367 . S
C541 C549 1.433 . S
C542 H538 0.929 . S
C542 C544 1.378 . S
C542 C546 1.350 . S
C543 C546 1.463 . S
C543 C548 1.350 . S
C543 N551 1.427 . S
C544 H535 0.930 . S
C544 C542 1.378 . S
C544 C545 1.367 . S
C545 C544 1.367 . S
C545 C547 1.433 . S
C546 C542 1.350 . S
C546 C543 1.463 . S
C546 N550 1.427 . S
C547 H537 0.929 . S
C547 C545 1.433 . S
C547 N550 1.384 . S
C548 H539 0.929 . S
C548 C540 1.378 1_545 S
C548 C543 1.350 . S
C549 H536 0.929 . S
C549 C541 1.433 . S
C549 N551 1.384 1_565 S
N550 C546 1.427 . S
N550 C547 1.384 . S
N551 C543 1.427 . S
N551 C549 1.384 1_545 S
H552 C558 0.930 . S
H553 C562 0.930 . S
H554 C567 0.929 . S
H555 C565 0.929 . S
H556 C560 0.929 . S
H557 C566 0.929 . S
C558 H552 0.930 . S
C558 C559 1.367 . S
C558 C566 1.378 . S
C559 C558 1.367 . S
C559 C567 1.433 . S
C560 H556 0.929 . S
C560 C562 1.378 . S
C560 C564 1.350 . S
C561 C564 1.463 . S
C561 C566 1.350 . S
C561 N569 1.427 . S
C562 H553 0.930 . S
C562 C560 1.378 . S
C562 C563 1.367 . S
C563 C562 1.367 . S
C563 C565 1.433 . S
C564 C560 1.350 . S
C564 C561 1.463 . S
C564 N568 1.427 . S
C565 H555 0.929 . S
C565 C563 1.433 . S
C565 N568 1.384 . S
C566 H557 0.929 . S
C566 C558 1.378 . S
C566 C561 1.350 . S
C567 H554 0.929 . S
C567 C559 1.433 . S
C567 N569 1.384 . S
N568 C564 1.427 . S
N568 C565 1.384 . S
N569 C561 1.427 . S
N569 C567 1.384 . S
H570 C576 0.930 . S
H571 C580 0.930 . S
H572 C585 0.929 . S
H573 C583 0.929 . S
H574 C578 0.929 . S
H575 C584 0.929 . S
C576 H570 0.930 . S
C576 C577 1.367 . S
C576 C584 1.378 . S
C577 C576 1.367 . S
C577 C585 1.433 . S
C578 H574 0.929 . S
C578 C580 1.378 . S
C578 C582 1.350 . S
C579 C582 1.463 . S
C579 C584 1.350 . S
C579 N587 1.427 . S
C580 H571 0.930 . S
C580 C578 1.378 . S
C580 C581 1.367 . S
C581 C580 1.367 . S
C581 C583 1.433 . S
C582 C578 1.350 . S
C582 C579 1.463 . S
C582 N586 1.427 . S
C583 H573 0.929 . S
C583 C581 1.433 . S
C583 N586 1.384 . S
C584 H575 0.929 . S
C584 C576 1.378 . S
C584 C579 1.350 . S
C585 H572 0.929 . S
C585 C577 1.433 . S
C585 N587 1.384 . S
N586 C582 1.427 . S
N586 C583 1.384 . S
N587 C579 1.427 . S
N587 C585 1.384 . S
H588 C594 0.930 . S
H589 C598 0.930 . S
H590 C603 0.929 . S
H591 C601 0.929 . S
H592 C596 0.929 . S
H593 C602 0.929 . S
C594 H588 0.930 . S
C594 C595 1.367 . S
C594 C602 1.378 1_565 S
C595 C594 1.367 . S
C595 C603 1.433 . S
C596 H592 0.929 . S
C596 C598 1.378 . S
C596 C600 1.350 . S
C597 C600 1.463 . S
C597 C602 1.350 . S
C597 N605 1.427 . S
C598 H589 0.930 . S
C598 C596 1.378 . S
C598 C599 1.367 . S
C599 C598 1.367 . S
C599 C601 1.433 . S
C600 C596 1.350 . S
C600 C597 1.463 . S
C600 N604 1.427 . S
C601 H591 0.929 . S
C601 C599 1.433 . S
C601 N604 1.384 . S
C602 H593 0.929 . S
C602 C594 1.378 1_545 S
C602 C597 1.350 . S
C603 H590 0.929 . S
C603 C595 1.433 . S
C603 N605 1.384 1_565 S
N604 C600 1.427 . S
N604 C601 1.384 . S
N605 C597 1.427 . S
N605 C603 1.384 1_545 S
H606 C612 0.930 . S
H607 C616 0.930 . S
H608 C621 0.929 . S
H609 C619 0.929 . S
H610 C614 0.929 . S
H611 C620 0.929 . S
C612 H606 0.930 . S
C612 C613 1.367 . S
C612 C620 1.378 . S
C613 C612 1.367 . S
C613 C621 1.433 . S
C614 H610 0.929 . S
C614 C616 1.378 1_565 S
C614 C618 1.350 . S
C615 C618 1.463 . S
C615 C620 1.350 . S
C615 N623 1.427 . S
C616 H607 0.930 . S
C616 C614 1.378 1_545 S
C616 C617 1.367 . S
C617 C616 1.367 . S
C617 C619 1.433 . S
C618 C614 1.350 . S
C618 C615 1.463 . S
C618 N622 1.427 . S
C619 H609 0.929 . S
C619 C617 1.433 . S
C619 N622 1.384 1_545 S
C620 H611 0.929 . S
C620 C612 1.378 . S
C620 C615 1.350 . S
C621 H608 0.929 . S
C621 C613 1.433 . S
C621 N623 1.384 . S
N622 C618 1.427 . S
N622 C619 1.384 1_565 S
N623 C615 1.427 . S
N623 C621 1.384 . S
C271 C21 1.527 . S
C275 C54 1.523 . S
C289 C120 1.524 . S
C293 C87 1.530 . S
C307 C153 1.530 . S
C311 C186 1.529 . S
C325 C252 1.529 . S
C329 C219 1.524 . S
C343 C18 1.154 . S
C347 C150 1.154 . S
C361 C51 1.151 . S
C365 C183 1.151 . S
C379 C84 1.152 . S
C383 C216 1.152 . S
C397 C117 1.155 . S
C401 C249 1.155 . S
C415 C73 1.425 . S
C419 C7 1.416 . S
C433 C106 1.417 . S
C437 C40 1.416 . S
C451 C139 1.418 . S
C455 C205 1.415 . S
C469 C172 1.419 . S
C473 C238 1.428 . S
C487 N13 1.289 . S
C491 N2 1.287 . S
C505 N46 1.282 . S
C509 N35 1.280 . S
C523 N68 1.278 . S
C527 N79 1.280 . S
C541 N101 1.279 . S
C545 N112 1.281 . S
C559 N134 1.282 . S
C563 N145 1.284 . S
C577 N178 1.292 . S
C581 N167 1.290 . S
C595 N200 1.279 . S
C599 N211 1.281 . S
C613 N244 1.292 . S
C617 N233 1.290 . S
