# Generated by pormake.
# Topology uow, (4)-cn, num edge types: 1
# Building blocks:
#     Node 0, Type 0, BuildingBlock: CEKHIL_clean_sbu_0, # of connection points: 4
#     Node 1, Type 0, BuildingBlock: CEKHIL_clean_sbu_0, # of connection points: 4
#     Node 2, Type 0, BuildingBlock: CEKHIL_clean_sbu_0, # of connection points: 4
#     Node 3, Type 0, BuildingBlock: CEKHIL_clean_sbu_0, # of connection points: 4
#     Node 4, Type 0, BuildingBlock: CEKHIL_clean_sbu_0, # of connection points: 4
#     Node 5, Type 0, BuildingBlock: CEKHIL_clean_sbu_0, # of connection points: 4
#     Node 6, Type 0, BuildingBlock: CEKHIL_clean_sbu_0, # of connection points: 4
#     Node 7, Type 0, BuildingBlock: CEKHIL_clean_sbu_0, # of connection points: 4
#     Node 8, Type 0, BuildingBlock: CEKHIL_clean_sbu_0, # of connection points: 4
#     Node 9, Type 0, BuildingBlock: CEKHIL_clean_sbu_0, # of connection points: 4
#     Node 10, Type 0, BuildingBlock: CEKHIL_clean_sbu_0, # of connection points: 4
#     Node 11, Type 0, BuildingBlock: CEKHIL_clean_sbu_0, # of connection points: 4
#     Node 12, Type 0, BuildingBlock: CEKHIL_clean_sbu_0, # of connection points: 4
#     Node 13, Type 0, BuildingBlock: CEKHIL_clean_sbu_0, # of connection points: 4
#     Node 14, Type 0, BuildingBlock: CEKHIL_clean_sbu_0, # of connection points: 4
#     Node 15, Type 0, BuildingBlock: CEKHIL_clean_sbu_0, # of connection points: 4
#     Node 16, Type 0, BuildingBlock: CEKHIL_clean_sbu_0, # of connection points: 4
#     Node 17, Type 0, BuildingBlock: CEKHIL_clean_sbu_0, # of connection points: 4
#     Node 18, Type 0, BuildingBlock: CEKHIL_clean_sbu_0, # of connection points: 4
#     Node 19, Type 0, BuildingBlock: CEKHIL_clean_sbu_0, # of connection points: 4
#     Node 20, Type 0, BuildingBlock: CEKHIL_clean_sbu_0, # of connection points: 4
#     Node 21, Type 0, BuildingBlock: CEKHIL_clean_sbu_0, # of connection points: 4
#     Node 22, Type 0, BuildingBlock: CEKHIL_clean_sbu_0, # of connection points: 4
#     Node 23, Type 0, BuildingBlock: CEKHIL_clean_sbu_0, # of connection points: 4
#     Node 24, Type 0, BuildingBlock: CEKHIL_clean_sbu_0, # of connection points: 4
#     Node 25, Type 0, BuildingBlock: CEKHIL_clean_sbu_0, # of connection points: 4
#     Node 26, Type 0, BuildingBlock: CEKHIL_clean_sbu_0, # of connection points: 4
#     Node 27, Type 0, BuildingBlock: CEKHIL_clean_sbu_0, # of connection points: 4
#     Node 28, Type 0, BuildingBlock: CEKHIL_clean_sbu_0, # of connection points: 4
#     Node 29, Type 0, BuildingBlock: CEKHIL_clean_sbu_0, # of connection points: 4
#     Node 30, Type 0, BuildingBlock: CEKHIL_clean_sbu_0, # of connection points: 4
#     Node 31, Type 0, BuildingBlock: CEKHIL_clean_sbu_0, # of connection points: 4
#     Edge 32, Type (0, 0), BuildingBlock: TEMPAE_clean_linker_10, # of connection points: 2
#     Edge 33, Type (0, 0), BuildingBlock: TEMPAE_clean_linker_10, # of connection points: 2
#     Edge 34, Type (0, 0), BuildingBlock: TEMPAE_clean_linker_10, # of connection points: 2
#     Edge 35, Type (0, 0), BuildingBlock: TEMPAE_clean_linker_10, # of connection points: 2
#     Edge 36, Type (0, 0), BuildingBlock: TEMPAE_clean_linker_10, # of connection points: 2
#     Edge 37, Type (0, 0), BuildingBlock: TEMPAE_clean_linker_10, # of connection points: 2
#     Edge 38, Type (0, 0), BuildingBlock: TEMPAE_clean_linker_10, # of connection points: 2
#     Edge 39, Type (0, 0), BuildingBlock: TEMPAE_clean_linker_10, # of connection points: 2
#     Edge 40, Type (0, 0), BuildingBlock: TEMPAE_clean_linker_10, # of connection points: 2
#     Edge 41, Type (0, 0), BuildingBlock: TEMPAE_clean_linker_10, # of connection points: 2
#     Edge 42, Type (0, 0), BuildingBlock: TEMPAE_clean_linker_10, # of connection points: 2
#     Edge 43, Type (0, 0), BuildingBlock: TEMPAE_clean_linker_10, # of connection points: 2
#     Edge 44, Type (0, 0), BuildingBlock: TEMPAE_clean_linker_10, # of connection points: 2
#     Edge 45, Type (0, 0), BuildingBlock: TEMPAE_clean_linker_10, # of connection points: 2
#     Edge 46, Type (0, 0), BuildingBlock: TEMPAE_clean_linker_10, # of connection points: 2
#     Edge 47, Type (0, 0), BuildingBlock: TEMPAE_clean_linker_10, # of connection points: 2
#     Edge 48, Type (0, 0), BuildingBlock: TEMPAE_clean_linker_10, # of connection points: 2
#     Edge 49, Type (0, 0), BuildingBlock: TEMPAE_clean_linker_10, # of connection points: 2
#     Edge 50, Type (0, 0), BuildingBlock: TEMPAE_clean_linker_10, # of connection points: 2
#     Edge 51, Type (0, 0), BuildingBlock: TEMPAE_clean_linker_10, # of connection points: 2
#     Edge 52, Type (0, 0), BuildingBlock: TEMPAE_clean_linker_10, # of connection points: 2
#     Edge 53, Type (0, 0), BuildingBlock: TEMPAE_clean_linker_10, # of connection points: 2
#     Edge 54, Type (0, 0), BuildingBlock: TEMPAE_clean_linker_10, # of connection points: 2
#     Edge 55, Type (0, 0), BuildingBlock: TEMPAE_clean_linker_10, # of connection points: 2
#     Edge 56, Type (0, 0), BuildingBlock: TEMPAE_clean_linker_10, # of connection points: 2
#     Edge 57, Type (0, 0), BuildingBlock: TEMPAE_clean_linker_10, # of connection points: 2
#     Edge 58, Type (0, 0), BuildingBlock: TEMPAE_clean_linker_10, # of connection points: 2
#     Edge 59, Type (0, 0), BuildingBlock: TEMPAE_clean_linker_10, # of connection points: 2
#     Edge 60, Type (0, 0), BuildingBlock: TEMPAE_clean_linker_10, # of connection points: 2
#     Edge 61, Type (0, 0), BuildingBlock: TEMPAE_clean_linker_10, # of connection points: 2
#     Edge 62, Type (0, 0), BuildingBlock: TEMPAE_clean_linker_10, # of connection points: 2
#     Edge 63, Type (0, 0), BuildingBlock: TEMPAE_clean_linker_10, # of connection points: 2
#     Edge 64, Type (0, 0), BuildingBlock: TEMPAE_clean_linker_10, # of connection points: 2
#     Edge 65, Type (0, 0), BuildingBlock: TEMPAE_clean_linker_10, # of connection points: 2
#     Edge 66, Type (0, 0), BuildingBlock: TEMPAE_clean_linker_10, # of connection points: 2
#     Edge 67, Type (0, 0), BuildingBlock: TEMPAE_clean_linker_10, # of connection points: 2
#     Edge 68, Type (0, 0), BuildingBlock: TEMPAE_clean_linker_10, # of connection points: 2
#     Edge 69, Type (0, 0), BuildingBlock: TEMPAE_clean_linker_10, # of connection points: 2
#     Edge 70, Type (0, 0), BuildingBlock: TEMPAE_clean_linker_10, # of connection points: 2
#     Edge 71, Type (0, 0), BuildingBlock: TEMPAE_clean_linker_10, # of connection points: 2
#     Edge 72, Type (0, 0), BuildingBlock: TEMPAE_clean_linker_10, # of connection points: 2
#     Edge 73, Type (0, 0), BuildingBlock: TEMPAE_clean_linker_10, # of connection points: 2
#     Edge 74, Type (0, 0), BuildingBlock: TEMPAE_clean_linker_10, # of connection points: 2
#     Edge 75, Type (0, 0), BuildingBlock: TEMPAE_clean_linker_10, # of connection points: 2
#     Edge 76, Type (0, 0), BuildingBlock: TEMPAE_clean_linker_10, # of connection points: 2
#     Edge 77, Type (0, 0), BuildingBlock: TEMPAE_clean_linker_10, # of connection points: 2
#     Edge 78, Type (0, 0), BuildingBlock: TEMPAE_clean_linker_10, # of connection points: 2
#     Edge 79, Type (0, 0), BuildingBlock: TEMPAE_clean_linker_10, # of connection points: 2
#     Edge 80, Type (0, 0), BuildingBlock: TEMPAE_clean_linker_10, # of connection points: 2
#     Edge 81, Type (0, 0), BuildingBlock: TEMPAE_clean_linker_10, # of connection points: 2
#     Edge 82, Type (0, 0), BuildingBlock: TEMPAE_clean_linker_10, # of connection points: 2
#     Edge 83, Type (0, 0), BuildingBlock: TEMPAE_clean_linker_10, # of connection points: 2
#     Edge 84, Type (0, 0), BuildingBlock: TEMPAE_clean_linker_10, # of connection points: 2
#     Edge 85, Type (0, 0), BuildingBlock: TEMPAE_clean_linker_10, # of connection points: 2
#     Edge 86, Type (0, 0), BuildingBlock: TEMPAE_clean_linker_10, # of connection points: 2
#     Edge 87, Type (0, 0), BuildingBlock: TEMPAE_clean_linker_10, # of connection points: 2
#     Edge 88, Type (0, 0), BuildingBlock: TEMPAE_clean_linker_10, # of connection points: 2
#     Edge 89, Type (0, 0), BuildingBlock: TEMPAE_clean_linker_10, # of connection points: 2
#     Edge 90, Type (0, 0), BuildingBlock: TEMPAE_clean_linker_10, # of connection points: 2
#     Edge 91, Type (0, 0), BuildingBlock: TEMPAE_clean_linker_10, # of connection points: 2
#     Edge 92, Type (0, 0), BuildingBlock: TEMPAE_clean_linker_10, # of connection points: 2
#     Edge 93, Type (0, 0), BuildingBlock: TEMPAE_clean_linker_10, # of connection points: 2
#     Edge 94, Type (0, 0), BuildingBlock: TEMPAE_clean_linker_10, # of connection points: 2
#     Edge 95, Type (0, 0), BuildingBlock: TEMPAE_clean_linker_10, # of connection points: 2
# Relax obj value: 0.098
# Max RMSD: 0.128
# Mean RMSD: 0.128
data_MOF--net-uow--node1-CEKHIL_clean_sbu_0--edge1-TEMPAE_clean_linker_10
_symmetry_space_group_name_H-M    P1
_symmetry_Int_Tables_number       1
_symmetry_cell_setting            triclinic
loop_
_symmetry_equiv_pos_as_xyz
'x, y, z'
_cell_length_a     62.519092
_cell_length_b     62.540618
_cell_length_c     40.341641
_cell_angle_alpha  89.978261
_cell_angle_beta   89.987132
_cell_angle_gamma 90.020101
loop_
_atom_site_label
_atom_site_type_symbol
_atom_site_fract_x
_atom_site_fract_y
_atom_site_fract_z
_atom_type_partial_charge
Co0 Co 0.03463 0.39269 0.28289 0.0
O1 O 0.02623 0.4208 0.26958 0.0
O2 O 0.05797 0.41247 0.29047 0.0
C3 C 0.00453 0.3841 0.31045 0.0
O4 O 0.04842 0.36542 0.30011 0.0
Co5 Co 0.00884 0.35349 0.25658 0.0
O6 O 0.02671 0.33758 0.28904 0.0
C7 C 0.03897 0.37582 0.21262 0.0
C8 C 0.04523 0.42695 0.27829 0.0
C9 C 0.0434 0.3455 0.30249 0.0
O10 O 0.04605 0.38671 0.23727 0.0
O11 O 0.02271 0.36343 0.21446 0.0
O12 O 0.01916 0.3956 0.32488 0.0
O13 O 0.00753 0.38058 0.27934 0.0
Co14 Co 0.86071 0.78476 0.5284 0.0
O15 O 0.83455 0.77763 0.50658 0.0
O16 O 0.84007 0.80736 0.53536 0.0
C17 C 0.86656 0.75283 0.55236 0.0
O18 O 0.88558 0.79706 0.55457 0.0
Co19 Co 0.90258 0.76077 0.50862 0.0
O20 O 0.91468 0.77641 0.54717 0.0
C21 C 0.88456 0.79369 0.46458 0.0
C22 C 0.82727 0.79578 0.51733 0.0
C23 C 0.90512 0.79206 0.56104 0.0
O24 O 0.87126 0.79932 0.4872 0.0
O25 O 0.89678 0.77733 0.46698 0.0
O26 O 0.85354 0.76642 0.56607 0.0
O27 O 0.87334 0.75799 0.52327 0.0
Co28 Co 0.45537 0.60564 0.78438 0.0
O29 O 0.45885 0.57675 0.76985 0.0
O30 O 0.42925 0.59 0.79266 0.0
C31 C 0.48672 0.60925 0.81114 0.0
O32 O 0.44622 0.63427 0.80296 0.0
Co33 Co 0.48616 0.64117 0.75878 0.0
O34 O 0.47125 0.65918 0.7922 0.0
C35 C 0.45282 0.62401 0.7148 0.0
C36 C 0.43923 0.57391 0.7794 0.0
C37 C 0.45384 0.65327 0.80597 0.0
O38 O 0.44444 0.61394 0.73933 0.0
O39 O 0.47067 0.63398 0.71667 0.0
O40 O 0.47072 0.59977 0.82564 0.0
O41 O 0.48398 0.61359 0.78017 0.0
Co42 Co 0.64109 0.20991 0.03338 0.0
O43 O 0.66723 0.21697 0.01139 0.0
O44 O 0.66186 0.18733 0.04038 0.0
C45 C 0.63544 0.2421 0.05676 0.0
O46 O 0.61617 0.19776 0.05985 0.0
Co47 Co 0.59932 0.23408 0.0134 0.0
O48 O 0.58722 0.21859 0.0521 0.0
C49 C 0.6175 0.20129 0.96935 0.0
C50 C 0.67463 0.19889 0.02221 0.0
C51 C 0.59665 0.20295 0.06624 0.0
O52 O 0.63044 0.19526 0.99223 0.0
O53 O 0.60555 0.21785 0.97166 0.0
O54 O 0.6483 0.22851 0.07084 0.0
O55 O 0.62857 0.23666 0.02789 0.0
Co56 Co 0.0458 0.6107 0.20679 0.0
O57 O 0.03923 0.58372 0.22672 0.0
O58 O 0.0697 0.59139 0.20085 0.0
C59 C 0.01445 0.61561 0.18029 0.0
O60 O 0.05785 0.63675 0.18319 0.0
Co61 Co 0.01905 0.65085 0.22659 0.0
O62 O 0.03588 0.66484 0.19085 0.0
C63 C 0.05065 0.63296 0.27295 0.0
C64 C 0.05816 0.57775 0.21738 0.0
C65 C 0.05239 0.65629 0.17777 0.0
O66 O 0.05817 0.62093 0.24994 0.0
O67 O 0.03369 0.64424 0.26965 0.0
O68 O 0.02917 0.60363 0.16707 0.0
O69 O 0.01828 0.62192 0.2101 0.0
Co70 Co 0.63865 0.78216 0.47008 0.0
O71 O 0.66477 0.77528 0.49227 0.0
O72 O 0.65917 0.80487 0.46318 0.0
C73 C 0.63298 0.75016 0.44626 0.0
O74 O 0.61388 0.79428 0.4435 0.0
Co75 Co 0.59674 0.75819 0.48969 0.0
O76 O 0.58477 0.77361 0.45084 0.0
C77 C 0.61405 0.7918 0.53311 0.0
C78 C 0.67198 0.79345 0.48145 0.0
C79 C 0.59437 0.78923 0.43692 0.0
O80 O 0.62783 0.7969 0.51089 0.0
O81 O 0.60167 0.77555 0.53082 0.0
O82 O 0.64609 0.76375 0.43271 0.0
O83 O 0.62604 0.75533 0.47527 0.0
Co84 Co 0.45793 0.39138 0.72013 0.0
O85 O 0.46434 0.41973 0.7346 0.0
O86 O 0.43454 0.41017 0.70849 0.0
C87 C 0.49025 0.38443 0.69822 0.0
O88 O 0.44632 0.36383 0.70059 0.0
Co89 Co 0.48301 0.35256 0.74912 0.0
O90 O 0.4678 0.33629 0.71393 0.0
C91 C 0.44934 0.37355 0.78862 0.0
C92 C 0.44594 0.42511 0.72233 0.0
C93 C 0.45179 0.34405 0.69844 0.0
O94 O 0.44362 0.38474 0.76346 0.0
O95 O 0.46594 0.36156 0.78888 0.0
O96 O 0.47618 0.3951 0.68116 0.0
O97 O 0.48505 0.3803 0.72844 0.0
Co98 Co 0.86098 0.21073 0.96035 0.0
O99 O 0.83596 0.21667 0.98603 0.0
O100 O 0.84106 0.18711 0.95675 0.0
C101 C 0.86344 0.24292 0.93562 0.0
O102 O 0.88475 0.19945 0.93044 0.0
Co103 Co 0.90275 0.23717 0.97185 0.0
O104 O 0.91207 0.22288 0.93054 0.0
C105 C 0.8914 0.20181 0.01733 0.0
C106 C 0.82886 0.19817 0.97648 0.0
C107 C 0.90298 0.20606 0.91955 0.0
O108 O 0.87483 0.19705 -0.0 0.0
O109 O 0.90368 0.21771 0.01118 0.0
O110 O 0.85053 0.2285 0.92383 0.0
O111 O 0.87243 0.2382 0.9634 0.0
Co112 Co 0.964 0.61056 0.72276 0.0
O113 O 0.97064 0.58432 0.7449 0.0
O114 O 0.94135 0.59013 0.71518 0.0
C115 C 0.9962 0.61623 0.69936 0.0
O116 O 0.95212 0.63532 0.69602 0.0
Co117 Co 0.98781 0.65244 0.74268 0.0
O118 O 0.97275 0.66441 0.70347 0.0
C119 C 0.95368 0.63533 0.78548 0.0
C120 C 0.95261 0.57717 0.73339 0.0
C121 C 0.95723 0.65479 0.68937 0.0
O122 O 0.94888 0.62137 0.76337 0.0
O123 O 0.96992 0.64775 0.78337 0.0
O124 O 0.98266 0.60315 0.68567 0.0
O125 O 0.99088 0.62315 0.72834 0.0
Co126 Co 0.14318 0.21003 0.45469 0.0
O127 O 0.1718 0.21796 0.46631 0.0
O128 O 0.16201 0.18598 0.44765 0.0
C129 C 0.13493 0.23983 0.42604 0.0
O130 O 0.11556 0.19639 0.43902 0.0
Co131 Co 0.10443 0.23666 0.48019 0.0
O132 O 0.08776 0.21816 0.44951 0.0
C133 C 0.12685 0.2074 0.5255 0.0
C134 C 0.17706 0.19856 0.45834 0.0
C135 C 0.09562 0.20121 0.43683 0.0
O136 O 0.13759 0.19972 0.50111 0.0
O137 O 0.1145 0.22364 0.52289 0.0
O138 O 0.14583 0.22463 0.4119 0.0
O139 O 0.1316 0.23743 0.45735 0.0
Co140 Co 0.53324 0.38703 0.21603 0.0
O141 O 0.52532 0.41348 0.23653 0.0
O142 O 0.55623 0.40746 0.21121 0.0
C143 C 0.50232 0.38136 0.18883 0.0
O144 O 0.54674 0.362 0.19148 0.0
Co145 Co 0.50823 0.34498 0.23182 0.0
O146 O 0.52509 0.33333 0.1944 0.0
C147 C 0.54084 0.36122 0.2786 0.0
C148 C 0.54395 0.42057 0.22748 0.0
C149 C 0.54176 0.34271 0.1834 0.0
O150 O 0.54572 0.37666 0.25902 0.0
O151 O 0.52578 0.34782 0.27303 0.0
O152 O 0.51668 0.39409 0.17637 0.0
O153 O 0.50618 0.3745 0.21835 0.0
Co154 Co 0.36336 0.79258 0.96471 0.0
O155 O 0.33576 0.78408 0.97993 0.0
O156 O 0.34333 0.81579 0.95821 0.0
C157 C 0.37118 0.76259 0.93663 0.0
O158 O 0.39007 0.80637 0.94562 0.0
Co159 Co 0.40324 0.7669 0.98867 0.0
O160 O 0.41814 0.7846 0.95486 0.0
C161 C 0.38211 0.79715 0.03377 0.0
C162 C 0.32925 0.80298 0.97134 0.0
C163 C 0.40987 0.80126 0.94184 0.0
O164 O 0.37053 0.80406 0.00979 0.0
O165 O 0.39455 0.78097 0.03129 0.0
O166 O 0.35925 0.7772 0.92303 0.0
O167 O 0.3756 0.76552 0.96751 0.0
Co168 Co 0.9611 0.3866 0.76798 0.0
O169 O 0.96913 0.41316 0.74805 0.0
O170 O 0.93885 0.40752 0.77538 0.0
C171 C 0.99251 0.37949 0.79282 0.0
O172 O 0.94775 0.36144 0.79216 0.0
Co173 Co 0.98435 0.34468 0.74667 0.0
O174 O 0.96763 0.33195 0.78363 0.0
C175 C 0.95196 0.36404 0.70298 0.0
C176 C 0.951 0.42056 0.75872 0.0
C177 C 0.95201 0.3416 0.79744 0.0
O178 O 0.94686 0.3774 0.72579 0.0
O179 O 0.96783 0.35118 0.70521 0.0
O180 O 0.97893 0.39246 0.80665 0.0
O181 O 0.98773 0.37344 0.76317 0.0
Co182 Co 0.35716 0.2097 0.53736 0.0
O183 O 0.32811 0.2158 0.52583 0.0
O184 O 0.33996 0.18436 0.54396 0.0
C185 C 0.36362 0.23955 0.56677 0.0
O186 O 0.38572 0.19795 0.55279 0.0
Co187 Co 0.39374 0.23922 0.51169 0.0
O188 O 0.41161 0.22206 0.54261 0.0
C189 C 0.37375 0.20834 0.4664 0.0
C190 C 0.32414 0.19604 0.53348 0.0
C191 C 0.40518 0.20447 0.55518 0.0
O192 O 0.36341 0.2001 0.49078 0.0
O193 O 0.38501 0.22536 0.46894 0.0
O194 O 0.35358 0.2236 0.58044 0.0
O195 O 0.36688 0.23785 0.53531 0.0
Co196 Co 0.53665 0.61057 0.26869 0.0
O197 O 0.5297 0.58472 0.24571 0.0
O198 O 0.55869 0.58949 0.27655 0.0
C199 C 0.50421 0.61663 0.29107 0.0
O200 O 0.54868 0.63482 0.29648 0.0
Co201 Co 0.51401 0.65313 0.24899 0.0
O202 O 0.52857 0.66428 0.28919 0.0
C203 C 0.54805 0.63546 0.20655 0.0
C204 C 0.54735 0.57698 0.25768 0.0
C205 C 0.54372 0.65426 0.30359 0.0
O206 O 0.55252 0.62141 0.22872 0.0
O207 O 0.53201 0.64813 0.20852 0.0
O208 O 0.5173 0.6032 0.30496 0.0
O209 O 0.51012 0.62377 0.26249 0.0
Co210 Co 0.14503 0.79364 0.02727 0.0
O211 O 0.17222 0.78968 0.00658 0.0
O212 O 0.16283 0.8183 0.03591 0.0
C213 C 0.14182 0.76107 0.05044 0.0
O214 O 0.11846 0.80299 0.05216 0.0
Co215 Co 0.10634 0.76574 0.00459 0.0
O216 O 0.09154 0.77997 0.04221 0.0
C217 C 0.12211 0.80055 0.96206 0.0
C218 C 0.17704 0.80848 0.01796 0.0
C219 C 0.09927 0.79623 0.05706 0.0
O220 O 0.13397 0.80741 0.98574 0.0
O221 O 0.11166 0.78295 0.96342 0.0
O222 O 0.15316 0.77576 0.06502 0.0
O223 O 0.13534 0.76575 0.02099 0.0
Co224 Co 0.54444 0.89273 0.78083 0.0
O225 O 0.53831 0.92009 0.76222 0.0
O226 O 0.56904 0.91132 0.7863 0.0
C227 C 0.51352 0.88838 0.80855 0.0
O228 O 0.55592 0.86573 0.80267 0.0
Co229 Co 0.51567 0.85432 0.75934 0.0
O230 O 0.53281 0.83877 0.79308 0.0
C231 C 0.54776 0.87159 0.71343 0.0
C232 C 0.5576 0.92546 0.7706 0.0
C233 C 0.54977 0.8462 0.80643 0.0
O234 O 0.55578 0.88289 0.73689 0.0
O235 O 0.53034 0.86098 0.71633 0.0
O236 O 0.52885 0.89967 0.82154 0.0
O237 O 0.51652 0.88259 0.77826 0.0
Co238 Co 0.35758 0.28306 0.02463 0.0
O239 O 0.33031 0.27531 0.00682 0.0
O240 O 0.33717 0.3055 0.03365 0.0
C241 C 0.36547 0.2516 0.04873 0.0
O242 O 0.38356 0.29613 0.04696 0.0
Co243 Co 0.39866 0.25988 -0.0003 0.0
O244 O 0.41261 0.27607 0.03617 0.0
C245 C 0.37828 0.29278 0.95816 0.0
C246 C 0.32348 0.29356 0.01792 0.0
C247 C 0.40349 0.29164 0.05089 0.0
O248 O 0.36548 0.29748 0.98193 0.0
O249 O 0.39129 0.27698 0.95916 0.0
O250 O 0.35291 0.26513 0.06357 0.0
O251 O 0.37048 0.2564 0.0186 0.0
Co252 Co 0.96218 0.10904 0.27678 0.0
O253 O 0.96911 0.0838 0.25218 0.0
O254 O 0.93898 0.08875 0.28022 0.0
C255 C 0.99381 0.11278 0.30278 0.0
O256 O 0.94971 0.1327 0.30542 0.0
Co257 Co 0.98737 0.15157 0.26561 0.0
O258 O 0.97211 0.16083 0.30614 0.0
C259 C 0.95274 0.13901 0.21951 0.0
C260 C 0.95059 0.0765 0.26137 0.0
C261 C 0.9554 0.15119 0.31634 0.0
O262 O 0.94872 0.12204 0.23631 0.0
O263 O 0.96784 0.15212 0.22631 0.0
O264 O 0.9796 0.09953 0.31426 0.0
O265 O 0.98936 0.12133 0.27453 0.0
Co266 Co 0.13814 0.71422 0.52714 0.0
O267 O 0.16444 0.72197 0.50597 0.0
O268 O 0.15904 0.69176 0.53348 0.0
C269 C 0.13176 0.74575 0.5522 0.0
O270 O 0.1133 0.70122 0.55273 0.0
Co271 Co 0.09605 0.73788 0.50771 0.0
O272 O 0.0841 0.7218 0.54594 0.0
C273 C 0.11468 0.70593 0.46262 0.0
C274 C 0.1719 0.70377 0.51621 0.0
C275 C 0.09375 0.70607 0.55944 0.0
O276 O 0.12797 0.70016 0.48519 0.0
O277 O 0.10219 0.72204 0.46553 0.0
O278 O 0.14487 0.73209 0.56555 0.0
O279 O 0.12516 0.74093 0.52287 0.0
Co280 Co 0.54334 0.11256 0.71334 0.0
O281 O 0.53477 0.08568 0.7315 0.0
O282 O 0.56633 0.09208 0.70843 0.0
C283 C 0.51314 0.11958 0.68506 0.0
O284 O 0.55731 0.13832 0.69155 0.0
Co285 Co 0.5182 0.15358 0.7338 0.0
O286 O 0.53625 0.16712 0.6991 0.0
C287 C 0.54811 0.13361 0.78067 0.0
C288 C 0.55362 0.07873 0.72348 0.0
C289 C 0.55266 0.15811 0.68648 0.0
O290 O 0.55512 0.12137 0.75756 0.0
O291 O 0.53195 0.14599 0.77716 0.0
O292 O 0.52753 0.10701 0.67233 0.0
O293 O 0.5164 0.12516 0.71539 0.0
Co294 Co 0.13582 0.29035 0.97232 0.0
O295 O 0.16141 0.28507 0.99688 0.0
O296 O 0.15596 0.31333 0.96463 0.0
C297 C 0.13179 0.2574 0.95083 0.0
O298 O 0.11145 0.30063 0.94304 0.0
Co299 Co 0.09424 0.26566 0.99146 0.0
O300 O 0.08307 0.27894 0.95022 0.0
C301 C 0.10955 0.30106 0.03326 0.0
C302 C 0.16849 0.30293 0.98473 0.0
C303 C 0.09243 0.29439 0.93548 0.0
O304 O 0.12344 0.30616 0.01118 0.0
O305 O 0.09792 0.28424 0.0316 0.0
O306 O 0.14487 0.27093 0.9371 0.0
O307 O 0.12393 0.2633 0.97893 0.0
Co308 Co 0.9622 0.88768 0.21623 0.0
O309 O 0.96975 0.91481 0.23449 0.0
O310 O 0.93912 0.90778 0.20893 0.0
C311 C 0.99336 0.88107 0.19039 0.0
O312 O 0.94939 0.86149 0.194 0.0
Co313 Co 0.98752 0.84722 0.23898 0.0
O314 O 0.97091 0.8332 0.20305 0.0
C315 C 0.95578 0.8669 0.28333 0.0
C316 C 0.95117 0.92145 0.22457 0.0
C317 C 0.95463 0.84179 0.18939 0.0
O318 O 0.9492 0.87895 0.25965 0.0
O319 O 0.97227 0.85485 0.2811 0.0
O320 O 0.97914 0.89326 0.17639 0.0
O321 O 0.98927 0.87561 0.22054 0.0
Co322 Co 0.36139 0.70988 0.46763 0.0
O323 O 0.33573 0.71668 0.4912 0.0
O324 O 0.3403 0.68764 0.46047 0.0
C325 C 0.36688 0.74238 0.4451 0.0
O326 O 0.38566 0.69811 0.43936 0.0
Co327 Co 0.40374 0.73333 0.48662 0.0
O328 O 0.41473 0.71891 0.44621 0.0
C329 C 0.38653 0.69947 0.52981 0.0
C330 C 0.32796 0.69895 0.47967 0.0
C331 C 0.40497 0.70353 0.43194 0.0
O332 O 0.37274 0.69434 0.50758 0.0
O333 O 0.39876 0.71584 0.52758 0.0
O334 O 0.35354 0.72912 0.43135 0.0
O335 O 0.37426 0.73651 0.47351 0.0
Co336 Co 0.46216 0.11241 0.22605 0.0
O337 O 0.46806 0.08714 0.25124 0.0
O338 O 0.43967 0.09163 0.21904 0.0
C339 C 0.4951 0.11691 0.20449 0.0
O340 O 0.4512 0.13612 0.19606 0.0
Co341 Co 0.48583 0.1549 0.24325 0.0
O342 O 0.47213 0.16517 0.20178 0.0
C343 C 0.45073 0.13953 0.2858 0.0
C344 C 0.4504 0.07946 0.23926 0.0
C345 C 0.45684 0.15518 0.18768 0.0
O346 O 0.44606 0.12495 0.26458 0.0
O347 O 0.46721 0.15161 0.28345 0.0
O348 O 0.48185 0.10343 0.19106 0.0
O349 O 0.48893 0.12505 0.23224 0.0
Co350 Co 0.64267 0.70402 0.95396 0.0
O351 O 0.6714 0.71047 0.96708 0.0
O352 O 0.66073 0.67952 0.94553 0.0
C353 C 0.63598 0.73508 0.9275 0.0
O354 O 0.61469 0.69195 0.93657 0.0
Co355 Co 0.60466 0.73142 0.98033 0.0
O356 O 0.58764 0.7145 0.94799 0.0
C357 C 0.6256 0.70014 0.0241 0.0
C358 C 0.67606 0.69118 0.95769 0.0
C359 C 0.59495 0.69761 0.93434 0.0
O360 O 0.63609 0.69252 -0.00061 0.0
O361 O 0.61408 0.71702 0.0223 0.0
O362 O 0.64644 0.71994 0.91244 0.0
O363 O 0.63213 0.73173 0.95844 0.0
Co364 Co 0.03558 0.89195 0.71808 0.0
O365 O 0.02801 0.91884 0.73735 0.0
O366 O 0.0581 0.91254 0.70994 0.0
C367 C 0.00391 0.88486 0.694 0.0
O368 O 0.04834 0.86629 0.69427 0.0
Co369 Co 0.01186 0.85065 0.74119 0.0
O370 O 0.02769 0.83742 0.70374 0.0
C371 C 0.04439 0.87043 0.78404 0.0
C372 C 0.04622 0.92592 0.72646 0.0
C373 C 0.04338 0.84655 0.68927 0.0
O374 O 0.0499 0.88306 0.76044 0.0
O375 O 0.02821 0.8579 0.78245 0.0
O376 O 0.0175 0.89753 0.67948 0.0
O377 O 0.00887 0.87922 0.72375 0.0
Co378 Co 0.85434 0.28482 0.46105 0.0
O379 O 0.82656 0.2783 0.47783 0.0
O380 O 0.83515 0.30831 0.45168 0.0
C381 C 0.86062 0.25293 0.43734 0.0
O382 O 0.88128 0.29668 0.43982 0.0
Co383 Co 0.89385 0.25923 0.48654 0.0
O384 O 0.90924 0.27524 0.45122 0.0
C385 C 0.87411 0.29228 0.52856 0.0
C386 C 0.82072 0.2969 0.4668 0.0
C387 C 0.90106 0.29137 0.43657 0.0
O388 O 0.86239 0.29847 0.50426 0.0
O389 O 0.88597 0.2756 0.52754 0.0
O390 O 0.84933 0.26721 0.42175 0.0
O391 O 0.86561 0.25758 0.46747 0.0
Co392 Co 0.46355 0.88926 0.2812 0.0
O393 O 0.47124 0.91587 0.26109 0.0
O394 O 0.44133 0.9102 0.28929 0.0
C395 C 0.49537 0.88221 0.30486 0.0
O396 O 0.45075 0.86392 0.30583 0.0
Co397 Co 0.48694 0.84759 0.25877 0.0
O398 O 0.47112 0.83483 0.29664 0.0
C399 C 0.45412 0.86706 0.21606 0.0
C400 C 0.45325 0.92329 0.27227 0.0
C401 C 0.45557 0.84419 0.3111 0.0
O402 O 0.44881 0.88 0.23935 0.0
O403 O 0.47029 0.85454 0.21769 0.0
O404 O 0.48198 0.89509 0.31934 0.0
O405 O 0.49012 0.8763 0.27537 0.0
Co406 Co 0.85749 0.70698 0.03421 0.0
O407 O 0.82885 0.71389 0.02145 0.0
O408 O 0.83918 0.68245 0.04154 0.0
C409 C 0.86433 0.7374 0.06206 0.0
O410 O 0.8855 0.69459 0.05113 0.0
Co411 Co 0.89533 0.73496 0.00849 0.0
O412 O 0.91221 0.71777 0.04066 0.0
C413 C 0.87501 0.70369 0.96407 0.0
C414 C 0.82393 0.69452 0.03007 0.0
C415 C 0.90514 0.70057 0.05372 0.0
O416 O 0.86407 0.69617 0.98839 0.0
O417 O 0.88667 0.72046 0.96623 0.0
O418 O 0.8538 0.72201 0.0764 0.0
O419 O 0.86806 0.73474 0.03093 0.0
Co420 Co 0.04163 0.11485 0.7709 0.0
O421 O 0.03581 0.0893 0.74648 0.0
O422 O 0.06399 0.09408 0.77905 0.0
C423 C 0.00844 0.11952 0.79141 0.0
O424 O 0.05243 0.13898 0.80023 0.0
Co425 Co 0.01811 0.15706 0.75181 0.0
O426 O 0.03167 0.168 0.79296 0.0
C427 C 0.05316 0.14073 0.71001 0.0
C428 C 0.05335 0.08172 0.75899 0.0
C429 C 0.04682 0.1582 0.80773 0.0
O430 O 0.05797 0.12675 0.73211 0.0
O431 O 0.03661 0.15274 0.71171 0.0
O432 O 0.02163 0.10642 0.80585 0.0
O433 O 0.01492 0.12735 0.76361 0.0
Co434 Co 0.63912 0.2957 0.53434 0.0
O435 O 0.66325 0.29213 0.5058 0.0
O436 O 0.65843 0.31958 0.53997 0.0
C437 C 0.63826 0.26213 0.55445 0.0
O438 O 0.61625 0.30453 0.56747 0.0
Co439 Co 0.59748 0.26918 0.52296 0.0
O440 O 0.58949 0.28051 0.56703 0.0
C441 C 0.60633 0.30753 0.48214 0.0
C442 C 0.67005 0.31023 0.51749 0.0
C443 C 0.59863 0.29696 0.57914 0.0
O444 O 0.62367 0.31133 0.49811 0.0
O445 O 0.59432 0.29129 0.48735 0.0
O446 O 0.65126 0.27614 0.56714 0.0
O447 O 0.62814 0.26821 0.52825 0.0
C448 C 0.04265 0.36852 0.15236 0.0
C449 C 0.05209 0.37459 0.18236 0.0
C450 C 0.05521 0.36122 0.12597 0.0
C451 C 0.07763 0.3596 0.13013 0.0
C452 C 0.08741 0.36804 0.1589 0.0
C453 C 0.07446 0.37563 0.18472 0.0
C454 C 0.04424 0.35307 0.09512 0.0
C455 C 0.11128 0.36684 0.16408 0.0
C456 C 0.0971 0.30871 0.09046 0.0
C457 C 0.10525 0.31623 0.06035 0.0
C458 C 0.08955 0.32293 0.11449 0.0
C459 C 0.08979 0.34519 0.1079 0.0
C460 C 0.09933 0.35297 0.07847 0.0
C461 C 0.10711 0.33833 0.05503 0.0
C462 C 0.08004 0.314 0.14604 0.0
C463 C 0.0999 0.37654 0.07056 0.0
H464 H 0.02536 0.3681 0.15029 0.0
H465 H 0.08185 0.38046 0.20786 0.0
H466 H 0.05298 0.35824 0.07258 0.0
H467 H 0.04413 0.33532 0.09545 0.0
H468 H 0.02743 0.35874 0.09341 0.0
H469 H 0.11671 0.37827 0.1834 0.0
H470 H 0.11559 0.35045 0.17223 0.0
H471 H 0.12005 0.37016 0.14074 0.0
H472 H 0.09596 0.29163 0.09477 0.0
H473 H 0.11342 0.34418 0.03168 0.0
H474 H 0.06247 0.31656 0.14601 0.0
H475 H 0.08667 0.32241 0.16795 0.0
H476 H 0.08314 0.2966 0.14883 0.0
H477 H 0.08399 0.38157 0.06121 0.0
H478 H 0.11199 0.38026 0.05121 0.0
H479 H 0.10344 0.38617 0.09299 0.0
C480 C 0.95123 0.85771 0.34277 0.0
C481 C 0.94217 0.86443 0.31283 0.0
C482 C 0.93832 0.85028 0.36863 0.0
C483 C 0.91589 0.8492 0.36401 0.0
C484 C 0.90653 0.85791 0.3351 0.0
C485 C 0.91985 0.86561 0.3098 0.0
C486 C 0.94886 0.84173 0.3996 0.0
C487 C 0.88269 0.85715 0.32938 0.0
C488 C 0.8953 0.79969 0.40612 0.0
C489 C 0.88787 0.80802 0.43615 0.0
C490 C 0.90273 0.81323 0.38107 0.0
C491 C 0.90312 0.8356 0.3866 0.0
C492 C 0.89405 0.8442 0.41581 0.0
C493 C 0.88634 0.83024 0.44027 0.0
C494 C 0.91173 0.80346 0.34979 0.0
C495 C 0.89416 0.86793 0.42256 0.0
H496 H 0.96849 0.85715 0.3453 0.0
H497 H 0.91279 0.87088 0.28665 0.0
H498 H 0.94032 0.84739 0.42205 0.0
H499 H 0.94813 0.824 0.39948 0.0
H500 H 0.9659 0.84662 0.40139 0.0
H501 H 0.87765 0.86858 0.3098 0.0
H502 H 0.87811 0.8408 0.32138 0.0
H503 H 0.87378 0.86075 0.35249 0.0
H504 H 0.89618 0.7825 0.40279 0.0
H505 H 0.8806 0.83671 0.46355 0.0
H506 H 0.9294 0.80516 0.34974 0.0
H507 H 0.90551 0.81191 0.32761 0.0
H508 H 0.90776 0.78621 0.34759 0.0
H509 H 0.91035 0.87278 0.43095 0.0
H510 H 0.88252 0.87232 0.44222 0.0
H511 H 0.89043 0.87717 0.39981 0.0
C512 C 0.41761 0.62691 0.68614 0.0
C513 C 0.44003 0.62682 0.6844 0.0
C514 C 0.40534 0.63493 0.65983 0.0
C515 C 0.41581 0.64269 0.63117 0.0
C516 C 0.43822 0.64027 0.62787 0.0
C517 C 0.45011 0.63253 0.65469 0.0
C518 C 0.38146 0.63705 0.66417 0.0
C519 C 0.44992 0.64778 0.59724 0.0
C520 C 0.38786 0.6627 0.55381 0.0
C521 C 0.39003 0.68487 0.55793 0.0
C522 C 0.39508 0.64851 0.57835 0.0
C523 C 0.40433 0.65681 0.60764 0.0
C524 C 0.4049 0.67919 0.61294 0.0
C525 C 0.39792 0.69295 0.58785 0.0
C526 C 0.39422 0.62477 0.5718 0.0
C527 C 0.41418 0.6887 0.64423 0.0
H528 H 0.4097 0.62237 0.70902 0.0
H529 H 0.46742 0.63206 0.65304 0.0
H530 H 0.37759 0.65379 0.67106 0.0
H531 H 0.3729 0.63341 0.64076 0.0
H532 H 0.37535 0.62634 0.68401 0.0
H533 H 0.46663 0.64176 0.59642 0.0
H534 H 0.44148 0.64247 0.57451 0.0
H535 H 0.45038 0.66552 0.59694 0.0
H536 H 0.3818 0.65642 0.53059 0.0
H537 H 0.39933 0.7101 0.59121 0.0
H538 H 0.38964 0.61583 0.59447 0.0
H539 H 0.41032 0.61914 0.56423 0.0
H540 H 0.38276 0.6208 0.55167 0.0
H541 H 0.40713 0.68092 0.66641 0.0
H542 H 0.41137 0.7062 0.64592 0.0
H543 H 0.43169 0.68582 0.64488 0.0
C544 C 0.58306 0.13299 0.81029 0.0
C545 C 0.56078 0.13565 0.81126 0.0
C546 C 0.59587 0.13971 0.83684 0.0
C547 C 0.58603 0.14895 0.86497 0.0
C548 C 0.56344 0.14948 0.86743 0.0
C549 C 0.55107 0.14301 0.84034 0.0
C550 C 0.61988 0.13879 0.83337 0.0
C551 C 0.55233 0.15866 0.89747 0.0
C552 C 0.61398 0.16511 0.94422 0.0
C553 C 0.61429 0.18739 0.94042 0.0
C554 C 0.60613 0.15194 0.91882 0.0
C555 C 0.59885 0.1614 0.88903 0.0
C556 C 0.60113 0.1837 0.88403 0.0
C557 C 0.60861 0.19647 0.90999 0.0
C558 C 0.60395 0.12825 0.92504 0.0
C559 C 0.59409 0.19434 0.85223 0.0
H560 H 0.59063 0.12722 0.78783 0.0
H561 H 0.53382 0.14471 0.84133 0.0
H562 H 0.62593 0.15484 0.82631 0.0
H563 H 0.62757 0.13432 0.85716 0.0
H564 H 0.62487 0.12722 0.81396 0.0
H565 H 0.53493 0.15506 0.89755 0.0
H566 H 0.5595 0.15227 0.92059 0.0
H567 H 0.55439 0.17629 0.89774 0.0
H568 H 0.61833 0.1581 0.96786 0.0
H569 H 0.60914 0.2137 0.90699 0.0
H570 H 0.60794 0.1189 0.90251 0.0
H571 H 0.58711 0.12458 0.93166 0.0
H572 H 0.61436 0.12286 0.94574 0.0
H573 H 0.60048 0.1856 0.83045 0.0
H574 H 0.59942 0.21126 0.85077 0.0
H575 H 0.57637 0.194 0.85057 0.0
C576 C 0.05312 0.64175 0.33282 0.0
C577 C 0.06336 0.63614 0.30324 0.0
C578 C 0.06485 0.6494 0.35985 0.0
C579 C 0.08728 0.65193 0.35681 0.0
C580 C 0.09789 0.64454 0.32804 0.0
C581 C 0.08576 0.63652 0.30156 0.0
C582 C 0.053 0.65652 0.39055 0.0
C583 C 0.12176 0.64693 0.3239 0.0
C584 C 0.10449 0.70107 0.40362 0.0
C585 C 0.11194 0.6922 0.43329 0.0
C586 C 0.09804 0.68797 0.37737 0.0
C587 C 0.09867 0.66547 0.38124 0.0
C588 C 0.10759 0.65642 0.41025 0.0
C589 C 0.11431 0.66996 0.43595 0.0
C590 C 0.08913 0.69825 0.34642 0.0
C591 C 0.10847 0.63252 0.4153 0.0
H592 H 0.03581 0.64112 0.33428 0.0
H593 H 0.09371 0.63215 0.27865 0.0
H594 H 0.06124 0.65076 0.4132 0.0
H595 H 0.05269 0.67425 0.39153 0.0
H596 H 0.03623 0.65062 0.3909 0.0
H597 H 0.12799 0.6366 0.30369 0.0
H598 H 0.12552 0.66381 0.31769 0.0
H599 H 0.13029 0.64297 0.34721 0.0
H600 H 0.10294 0.71828 0.40139 0.0
H601 H 0.12005 0.66306 0.45895 0.0
H602 H 0.07159 0.69559 0.34532 0.0
H603 H 0.09625 0.69089 0.32397 0.0
H604 H 0.09216 0.71575 0.34572 0.0
H605 H 0.09227 0.6266 0.42179 0.0
H606 H 0.11959 0.62807 0.43564 0.0
H607 H 0.11351 0.62424 0.39228 0.0
C608 C 0.61346 0.82871 0.55626 0.0
C609 C 0.61054 0.80665 0.56085 0.0
C610 C 0.6063 0.84336 0.58009 0.0
C611 C 0.59636 0.83564 0.60921 0.0
C612 C 0.59503 0.81335 0.6151 0.0
C613 C 0.60195 0.79911 0.59064 0.0
C614 C 0.6079 0.86699 0.57288 0.0
C615 C 0.58504 0.80449 0.64634 0.0
C616 C 0.58307 0.86726 0.68593 0.0
C617 C 0.5607 0.86795 0.68352 0.0
C618 C 0.59539 0.85835 0.66042 0.0
C619 C 0.585 0.85037 0.63186 0.0
C620 C 0.56271 0.85338 0.62776 0.0
C621 C 0.55076 0.86193 0.65389 0.0
C622 C 0.61913 0.85551 0.66561 0.0
C623 C 0.55117 0.84572 0.5971 0.0
H624 H 0.62005 0.83459 0.53312 0.0
H625 H 0.59996 0.78205 0.59435 0.0
H626 H 0.59207 0.87296 0.56459 0.0
H627 H 0.61239 0.87609 0.59542 0.0
H628 H 0.61975 0.87041 0.55304 0.0
H629 H 0.58741 0.78695 0.6487 0.0
H630 H 0.59193 0.8124 0.66852 0.0
H631 H 0.5676 0.80779 0.64623 0.0
H632 H 0.59083 0.87198 0.70883 0.0
H633 H 0.53348 0.86282 0.65183 0.0
H634 H 0.62811 0.85851 0.64236 0.0
H635 H 0.62234 0.83876 0.67323 0.0
H636 H 0.62532 0.86631 0.68524 0.0
H637 H 0.56007 0.8504 0.57443 0.0
H638 H 0.53467 0.85223 0.59553 0.0
H639 H 0.55017 0.828 0.5975 0.0
C640 C 0.38965 0.30135 0.90061 0.0
C641 C 0.38034 0.30799 0.93041 0.0
C642 C 0.39641 0.31632 0.87707 0.0
C643 C 0.39406 0.33843 0.88384 0.0
C644 C 0.38279 0.34515 0.91237 0.0
C645 C 0.37593 0.32977 0.93535 0.0
C646 C 0.40781 0.30847 0.84637 0.0
C647 C 0.37971 0.36853 0.92026 0.0
C648 C 0.44215 0.36552 0.84778 0.0
C649 C 0.43437 0.37136 0.81656 0.0
C650 C 0.42844 0.35698 0.87176 0.0
C651 C 0.40657 0.35391 0.86392 0.0
C652 C 0.39821 0.36215 0.83396 0.0
C653 C 0.41227 0.37096 0.81056 0.0
C654 C 0.43786 0.34908 0.90399 0.0
C655 C 0.37493 0.35952 0.82496 0.0
H656 H 0.39271 0.2845 0.89647 0.0
H657 H 0.36862 0.33501 0.95833 0.0
H658 H 0.40166 0.31678 0.82402 0.0
H659 H 0.42514 0.3121 0.8484 0.0
H660 H 0.40592 0.29096 0.8428 0.0
H661 H 0.36619 0.37099 0.93772 0.0
H662 H 0.39446 0.37481 0.93209 0.0
H663 H 0.37677 0.37803 0.89749 0.0
H664 H 0.4592 0.3662 0.8526 0.0
H665 H 0.40618 0.37559 0.78644 0.0
H666 H 0.4389 0.33136 0.90342 0.0
H667 H 0.4275 0.35358 0.92518 0.0
H668 H 0.45416 0.35558 0.90833 0.0
H669 H 0.37236 0.34321 0.8149 0.0
H670 H 0.36997 0.37125 0.80575 0.0
H671 H 0.36448 0.36139 0.847 0.0
C672 C 0.91893 0.18458 0.0522 0.0
C673 C 0.89727 0.18792 0.04523 0.0
C674 C 0.92523 0.17296 0.08007 0.0
C675 C 0.90943 0.16491 0.10189 0.0
C676 C 0.88748 0.16724 0.09408 0.0
C677 C 0.88161 0.17862 0.06548 0.0
C678 C 0.94883 0.17044 0.08716 0.0
C679 C 0.87023 0.159 0.11694 0.0
C680 C 0.93292 0.12914 0.1681 0.0
C681 C 0.93872 0.14448 0.19169 0.0
C682 C 0.92188 0.13521 0.13929 0.0
C683 C 0.91625 0.15696 0.13477 0.0
C684 C 0.92048 0.17204 0.16007 0.0
C685 C 0.93196 0.16565 0.18804 0.0
C686 C 0.91776 0.11875 0.11272 0.0
C687 C 0.91427 0.19528 0.15657 0.0
H688 H 0.93102 0.1914 0.03606 0.0
H689 H 0.86484 0.18114 0.05988 0.0
H690 H 0.95328 0.18047 0.10879 0.0
H691 H 0.9526 0.1536 0.09351 0.0
H692 H 0.95891 0.17532 0.06576 0.0
H693 H 0.85435 0.1586 0.1046 0.0
H694 H 0.87415 0.14273 0.12603 0.0
H695 H 0.8691 0.16962 0.1389 0.0
H696 H 0.93809 0.11271 0.17124 0.0
H697 H 0.93611 0.17736 0.2068 0.0
H698 H 0.92944 0.121 0.0923 0.0
H699 H 0.90152 0.1207 0.10205 0.0
H700 H 0.91943 0.10219 0.12234 0.0
H701 H 0.92469 0.20304 0.13783 0.0
H702 H 0.91592 0.20414 0.1803 0.0
H703 H 0.8975 0.19673 0.14785 0.0
C704 C 0.91648 0.6364 0.80772 0.0
C705 C 0.93853 0.63903 0.81284 0.0
C706 C 0.90163 0.64388 0.8311 0.0
C707 C 0.90914 0.65386 0.86032 0.0
C708 C 0.9314 0.65489 0.86676 0.0
C709 C 0.94583 0.64766 0.84275 0.0
C710 C 0.87807 0.64255 0.82329 0.0
C711 C 0.94006 0.66491 0.89809 0.0
C712 C 0.88346 0.70017 0.90411 0.0
C713 C 0.87735 0.69055 0.93398 0.0
C714 C 0.89173 0.68788 0.8781 0.0
C715 C 0.89431 0.66557 0.8825 0.0
C716 C 0.88601 0.65552 0.91116 0.0
C717 C 0.87741 0.66817 0.93658 0.0
C718 C 0.89972 0.6991 0.84735 0.0
C719 C 0.88831 0.63176 0.91666 0.0
H720 H 0.91077 0.6298 0.7845 0.0
H721 H 0.96288 0.64945 0.84688 0.0
H722 H 0.86862 0.63849 0.8457 0.0
H723 H 0.87245 0.65835 0.81431 0.0
H724 H 0.87471 0.6305 0.80373 0.0
H725 H 0.95755 0.66234 0.90089 0.0
H726 H 0.93697 0.68238 0.89771 0.0
H727 H 0.93185 0.65821 0.92015 0.0
H728 H 0.88308 0.71744 0.90187 0.0
H729 H 0.87263 0.66065 0.95964 0.0
H730 H 0.89508 0.69013 0.82476 0.0
H731 H 0.91745 0.69989 0.84799 0.0
H732 H 0.89343 0.71567 0.84542 0.0
H733 H 0.88537 0.62274 0.89344 0.0
H734 H 0.87716 0.62589 0.93609 0.0
H735 H 0.9049 0.62824 0.92477 0.0
C736 C 0.11987 0.20525 0.58608 0.0
C737 C 0.12577 0.19505 0.55659 0.0
C738 C 0.11276 0.19339 0.61337 0.0
C739 C 0.11112 0.17088 0.61068 0.0
C740 C 0.11937 0.16038 0.58237 0.0
C741 C 0.12679 0.17265 0.55562 0.0
C742 C 0.1048 0.20515 0.64364 0.0
C743 C 0.11813 0.1364 0.57872 0.0
C744 C 0.09035 0.14299 0.68773 0.0
C745 C 0.06822 0.14459 0.68259 0.0
C746 C 0.10483 0.15041 0.66371 0.0
C747 C 0.09686 0.15928 0.63391 0.0
C748 C 0.07455 0.15929 0.62765 0.0
C749 C 0.06051 0.15214 0.65224 0.0
C750 C 0.12846 0.15015 0.67133 0.0
C751 C 0.06539 0.16811 0.59579 0.0
H752 H 0.11946 0.22258 0.58708 0.0
H753 H 0.13147 0.16467 0.53289 0.0
H754 H 0.08705 0.20527 0.64358 0.0
H755 H 0.1101 0.19698 0.66662 0.0
H756 H 0.11051 0.22197 0.64423 0.0
H757 H 0.12931 0.13048 0.55938 0.0
H758 H 0.12177 0.12826 0.60248 0.0
H759 H 0.10163 0.13186 0.5714 0.0
H760 H 0.09634 0.1372 0.71131 0.0
H761 H 0.04339 0.15309 0.64812 0.0
H762 H 0.13348 0.16631 0.67961 0.0
H763 H 0.13798 0.14609 0.649 0.0
H764 H 0.13234 0.13858 0.69135 0.0
H765 H 0.06794 0.18566 0.59485 0.0
H766 H 0.04797 0.16493 0.59347 0.0
H767 H 0.07366 0.16101 0.57409 0.0
C768 C 0.57814 0.32795 0.45323 0.0
C769 C 0.59974 0.3225 0.45615 0.0
C770 C 0.57078 0.33932 0.42569 0.0
C771 C 0.58533 0.34466 0.40011 0.0
C772 C 0.60748 0.34081 0.40436 0.0
C773 C 0.61451 0.32988 0.43271 0.0
C774 C 0.54712 0.34372 0.42256 0.0
C775 C 0.62345 0.34623 0.3776 0.0
C776 C 0.55887 0.33669 0.31741 0.0
C777 C 0.554 0.35768 0.30818 0.0
C778 C 0.57037 0.33245 0.34629 0.0
C779 C 0.57669 0.34965 0.36688 0.0
C780 C 0.57258 0.371 0.35705 0.0
C781 C 0.5614 0.3748 0.32741 0.0
C782 C 0.57489 0.30944 0.35545 0.0
C783 C 0.57887 0.38968 0.37858 0.0
H784 H 0.56686 0.32259 0.4719 0.0
H785 H 0.63127 0.32575 0.4353 0.0
H786 H 0.5443 0.36003 0.41268 0.0
H787 H 0.53993 0.33217 0.4049 0.0
H788 H 0.53872 0.34213 0.44671 0.0
H789 H 0.64008 0.34648 0.38731 0.0
H790 H 0.62252 0.33401 0.35771 0.0
H791 H 0.61983 0.36197 0.36623 0.0
H792 H 0.55352 0.3235 0.30205 0.0
H793 H 0.55767 0.39105 0.32003 0.0
H794 H 0.56536 0.30497 0.37761 0.0
H795 H 0.59202 0.30737 0.36183 0.0
H796 H 0.57084 0.2982 0.33509 0.0
H797 H 0.56767 0.39078 0.39984 0.0
H798 H 0.57831 0.40504 0.36475 0.0
H799 H 0.59518 0.38748 0.38885 0.0
C800 C 0.41733 0.86532 0.19264 0.0
C801 C 0.43952 0.86429 0.18782 0.0
C802 C 0.40322 0.85763 0.16836 0.0
C803 C 0.41165 0.84908 0.13866 0.0
C804 C 0.43393 0.85006 0.13245 0.0
C805 C 0.44763 0.85746 0.1573 0.0
C806 C 0.37958 0.85694 0.17584 0.0
C807 C 0.44351 0.84164 0.10064 0.0
C808 C 0.39069 0.801 0.09362 0.0
C809 C 0.38376 0.81028 0.06395 0.0
C810 C 0.39765 0.81377 0.11996 0.0
C811 C 0.39806 0.83628 0.11608 0.0
C812 C 0.38898 0.84576 0.08756 0.0
C813 C 0.38174 0.83259 0.06179 0.0
C814 C 0.40655 0.80307 0.15055 0.0
C815 C 0.38895 0.86969 0.08266 0.0
H816 H 0.41103 0.87057 0.21632 0.0
H817 H 0.4648 0.85694 0.15347 0.0
H818 H 0.36994 0.86036 0.15337 0.0
H819 H 0.37525 0.84068 0.18454 0.0
H820 H 0.37516 0.86854 0.19554 0.0
H821 H 0.46067 0.84598 0.09807 0.0
H822 H 0.44216 0.82395 0.10011 0.0
H823 H 0.4347 0.84797 0.07889 0.0
H824 H 0.39186 0.78375 0.09553 0.0
H825 H 0.37627 0.83984 0.0389 0.0
H826 H 0.40083 0.81124 0.17328 0.0
H827 H 0.42427 0.80415 0.15022 0.0
H828 H 0.402 0.78592 0.15192 0.0
H829 H 0.38534 0.87816 0.10615 0.0
H830 H 0.37715 0.87464 0.06355 0.0
H831 H 0.40507 0.87487 0.07435 0.0
C832 C 0.94477 0.3524 0.64519 0.0
C833 C 0.93726 0.36124 0.67482 0.0
C834 C 0.9305 0.34517 0.62099 0.0
C835 C 0.9082 0.34649 0.62697 0.0
C836 C 0.90053 0.35709 0.65552 0.0
C837 C 0.91522 0.36451 0.67913 0.0
C838 C 0.93932 0.3345 0.5903 0.0
C839 C 0.87691 0.35891 0.66268 0.0
C840 C 0.87677 0.3289 0.55213 0.0
C841 C 0.87677 0.30669 0.55705 0.0
C842 C 0.88527 0.34264 0.57622 0.0
C843 C 0.89356 0.33384 0.60584 0.0
C844 C 0.89112 0.31173 0.61247 0.0
C845 C 0.88294 0.29835 0.58777 0.0
C846 C 0.88741 0.36614 0.56838 0.0
C847 C 0.89912 0.30185 0.6443 0.0
H848 H 0.96182 0.35018 0.64163 0.0
H849 H 0.90934 0.37138 0.70207 0.0
H850 H 0.93644 0.31701 0.59176 0.0
H851 H 0.93109 0.34052 0.56781 0.0
H852 H 0.95679 0.3372 0.58745 0.0
H853 H 0.87353 0.3717 0.68106 0.0
H854 H 0.86769 0.36221 0.63976 0.0
H855 H 0.87107 0.34353 0.67299 0.0
H856 H 0.87194 0.3354 0.52836 0.0
H857 H 0.88259 0.2812 0.59174 0.0
H858 H 0.90388 0.36938 0.55943 0.0
H859 H 0.88471 0.37608 0.59076 0.0
H860 H 0.876 0.37116 0.54875 0.0
H861 H 0.91687 0.30139 0.64397 0.0
H862 H 0.89312 0.28527 0.64768 0.0
H863 H 0.89415 0.31157 0.66596 0.0
C864 C 0.4429 0.15234 0.34274 0.0
C865 C 0.43545 0.1441 0.31266 0.0
C866 C 0.42862 0.16001 0.36663 0.0
C867 C 0.40637 0.15985 0.35988 0.0
C868 C 0.39867 0.15046 0.3303 0.0
C869 C 0.41337 0.1425 0.30705 0.0
C870 C 0.43747 0.16937 0.39832 0.0
C871 C 0.37512 0.15014 0.32211 0.0
C872 C 0.37512 0.17341 0.43688 0.0
C873 C 0.37579 0.19582 0.43557 0.0
C874 C 0.38323 0.16108 0.41071 0.0
C875 C 0.39181 0.17151 0.38257 0.0
C876 C 0.38994 0.19398 0.37943 0.0
C877 C 0.38214 0.20592 0.40618 0.0
C878 C 0.38477 0.13715 0.41488 0.0
C879 C 0.39822 0.20563 0.34926 0.0
H880 H 0.45997 0.15336 0.34719 0.0
H881 H 0.4076 0.13623 0.28364 0.0
H882 H 0.43482 0.18691 0.39854 0.0
H883 H 0.42904 0.16257 0.42011 0.0
H884 H 0.45488 0.16633 0.40112 0.0
H885 H 0.37144 0.13856 0.30202 0.0
H886 H 0.3654 0.14607 0.34422 0.0
H887 H 0.37016 0.16629 0.31372 0.0
H888 H 0.37009 0.16548 0.45949 0.0
H889 H 0.38229 0.22324 0.40486 0.0
H890 H 0.40128 0.13291 0.42254 0.0
H891 H 0.38141 0.12877 0.39122 0.0
H892 H 0.37353 0.1312 0.43413 0.0
H893 H 0.41597 0.206 0.34999 0.0
H894 H 0.39231 0.22236 0.34814 0.0
H895 H 0.39341 0.19722 0.32623 0.0
C896 C 0.58514 0.63533 0.18355 0.0
C897 C 0.56315 0.63869 0.17894 0.0
C898 C 0.59999 0.64207 0.1596 0.0
C899 C 0.59252 0.6521 0.13037 0.0
C900 C 0.57024 0.65392 0.12455 0.0
C901 C 0.55584 0.64737 0.14906 0.0
C902 C 0.62357 0.63986 0.16675 0.0
C903 C 0.56159 0.66405 0.09329 0.0
C904 C 0.61879 0.69719 0.08459 0.0
C905 C 0.62376 0.68722 0.0545 0.0
C906 C 0.61088 0.68532 0.11133 0.0
C907 C 0.60749 0.66308 0.10748 0.0
C908 C 0.61479 0.6526 0.07853 0.0
C909 C 0.62304 0.66485 0.05233 0.0
C910 C 0.60399 0.69699 0.1423 0.0
C911 C 0.6117 0.62889 0.07366 0.0
H912 H 0.59085 0.62865 0.20672 0.0
H913 H 0.53883 0.64971 0.1453 0.0
H914 H 0.63263 0.63559 0.14405 0.0
H915 H 0.62985 0.65539 0.17579 0.0
H916 H 0.62669 0.62759 0.18608 0.0
H917 H 0.54396 0.66225 0.09114 0.0
H918 H 0.56546 0.68137 0.09315 0.0
H919 H 0.56916 0.6568 0.07111 0.0
H920 H 0.61973 0.71446 0.08648 0.0
H921 H 0.62698 0.65705 0.02911 0.0
H922 H 0.60878 0.68796 0.16478 0.0
H923 H 0.5863 0.69844 0.14255 0.0
H924 H 0.61096 0.71331 0.14365 0.0
H925 H 0.61483 0.61998 0.09694 0.0
H926 H 0.62229 0.62255 0.05385 0.0
H927 H 0.59487 0.62577 0.0664 0.0
C928 C 0.05081 0.86027 0.84271 0.0
C929 C 0.05881 0.86808 0.81265 0.0
C930 C 0.06469 0.85334 0.86767 0.0
C931 C 0.08704 0.85393 0.86209 0.0
C932 C 0.09523 0.8636 0.83305 0.0
C933 C 0.08095 0.87072 0.80863 0.0
C934 C 0.05533 0.84367 0.89879 0.0
C935 C 0.11896 0.86464 0.82633 0.0
C936 C 0.11823 0.83697 0.93773 0.0
C937 C 0.11813 0.8147 0.93356 0.0
C938 C 0.10968 0.85043 0.91329 0.0
C939 C 0.10116 0.84129 0.88408 0.0
C940 C 0.10315 0.81904 0.87837 0.0
C941 C 0.11145 0.80596 0.90337 0.0
C942 C 0.10801 0.87409 0.92014 0.0
C943 C 0.0948 0.80875 0.84706 0.0
H944 H 0.03368 0.85857 0.84605 0.0
H945 H 0.08719 0.87682 0.7854 0.0
H946 H 0.05764 0.82608 0.89834 0.0
H947 H 0.06362 0.84993 0.92107 0.0
H948 H 0.03794 0.847 0.9012 0.0
H949 H 0.12282 0.87673 0.80704 0.0
H950 H 0.12802 0.86848 0.8492 0.0
H951 H 0.12453 0.84881 0.81741 0.0
H952 H 0.12348 0.84379 0.96106 0.0
H953 H 0.11174 0.78877 0.8999 0.0
H954 H 0.09157 0.87782 0.92878 0.0
H955 H 0.11098 0.88358 0.89737 0.0
H956 H 0.11944 0.87922 0.93965 0.0
H957 H 0.07705 0.80897 0.84731 0.0
H958 H 0.10017 0.79189 0.84456 0.0
H959 H 0.10016 0.81781 0.82493 0.0
C960 C 0.0787 0.33732 0.32924 0.0
C961 C 0.05793 0.33085 0.32059 0.0
C962 C 0.09277 0.32327 0.3454 0.0
C963 C 0.08584 0.30234 0.35335 0.0
C964 C 0.06491 0.29573 0.34481 0.0
C965 C 0.05124 0.31003 0.32848 0.0
C966 C 0.11502 0.33082 0.35405 0.0
C967 C 0.05686 0.2736 0.35321 0.0
C968 C 0.1252 0.2577 0.37252 0.0
C969 C 0.1241 0.25694 0.40719 0.0
C970 C 0.11335 0.2729 0.35459 0.0
C971 C 0.10009 0.28753 0.37182 0.0
C972 C 0.09948 0.28721 0.40686 0.0
C973 C 0.11154 0.27198 0.4241 0.0
C974 C 0.1145 0.27289 0.31721 0.0
C975 C 0.08548 0.30248 0.42614 0.0
H976 H 0.08407 0.35331 0.32306 0.0
H977 H 0.03521 0.30488 0.32204 0.0
H978 H 0.11733 0.33031 0.38131 0.0
H979 H 0.12709 0.31998 0.34291 0.0
H980 H 0.11816 0.34736 0.34529 0.0
H981 H 0.04024 0.27086 0.34443 0.0
H982 H 0.06741 0.26135 0.34191 0.0
H983 H 0.05729 0.27114 0.38044 0.0
H984 H 0.13492 0.24614 0.35935 0.0
H985 H 0.11071 0.27156 0.45092 0.0
H986 H 0.11826 0.28916 0.30794 0.0
H987 H 0.09873 0.26831 0.30681 0.0
H988 H 0.12676 0.26159 0.3077 0.0
H989 H 0.08906 0.31923 0.41897 0.0
H990 H 0.08765 0.30085 0.45336 0.0
H991 H 0.06843 0.29946 0.42014 0.0
C992 C 0.93846 0.80009 0.593 0.0
C993 C 0.91761 0.80589 0.58374 0.0
C994 C 0.95124 0.81385 0.61194 0.0
C995 C 0.94298 0.8339 0.62193 0.0
C996 C 0.92178 0.83964 0.61355 0.0
C997 C 0.90931 0.82554 0.59458 0.0
C998 C 0.97376 0.8071 0.62065 0.0
C999 C 0.91244 0.86087 0.62395 0.0
C1000 C 0.97258 0.86032 0.69281 0.0
C1001 C 0.98653 0.87405 0.67582 0.0
C1002 C 0.9577 0.84775 0.67566 0.0
C1003 C 0.9568 0.84893 0.64068 0.0
C1004 C 0.97019 0.86347 0.62349 0.0
C1005 C 0.98491 0.87591 0.64131 0.0
C1006 C 0.94361 0.83252 0.69486 0.0
C1007 C 0.96965 0.86517 0.58616 0.0
H1008 H 0.94499 0.78489 0.58499 0.0
H1009 H 0.89324 0.8302 0.58756 0.0
H1010 H 0.9854 0.8184 0.60949 0.0
H1011 H 0.97609 0.80764 0.6479 0.0
H1012 H 0.97753 0.79071 0.61181 0.0
H1013 H 0.89538 0.86251 0.6167 0.0
H1014 H 0.91373 0.86283 0.65121 0.0
H1015 H 0.92166 0.87408 0.6124 0.0
H1016 H 0.97369 0.85892 0.71954 0.0
H1017 H 0.99567 0.8865 0.62808 0.0
H1018 H 0.94812 0.8158 0.68893 0.0
H1019 H 0.92663 0.8346 0.68758 0.0
H1020 H 0.94499 0.83485 0.72208 0.0
H1021 H 0.97526 0.84993 0.57507 0.0
H1022 H 0.97991 0.87836 0.57678 0.0
H1023 H 0.95303 0.86783 0.57746 0.0
C1024 C 0.37989 0.74515 0.88258 0.0
C1025 C 0.38183 0.74574 0.91716 0.0
C1026 C 0.39123 0.73004 0.86383 0.0
C1027 C 0.40474 0.71524 0.88017 0.0
C1028 C 0.40645 0.71555 0.91511 0.0
C1029 C 0.39495 0.7308 0.9332 0.0
C1030 C 0.38903 0.73011 0.82655 0.0
C1031 C 0.42066 0.69997 0.93338 0.0
C1032 C 0.42071 0.66416 0.83628 0.0
C1033 C 0.44144 0.66911 0.8253 0.0
C1034 C 0.4085 0.67912 0.85387 0.0
C1035 C 0.41726 0.69948 0.86078 0.0
C1036 C 0.43817 0.70461 0.8499 0.0
C1037 C 0.45001 0.68936 0.83224 0.0
C1038 C 0.38624 0.67313 0.86512 0.0
C1039 C 0.44805 0.72617 0.85704 0.0
H1040 H 0.3698 0.75672 0.8701 0.0
H1041 H 0.39646 0.73117 0.95996 0.0
H1042 H 0.40481 0.7333 0.81497 0.0
H1043 H 0.38366 0.71418 0.81778 0.0
H1044 H 0.37749 0.74236 0.81774 0.0
H1045 H 0.41994 0.70215 0.96069 0.0
H1046 H 0.4159 0.68331 0.92744 0.0
H1047 H 0.43749 0.70199 0.92522 0.0
H1048 H 0.41388 0.64861 0.83094 0.0
H1049 H 0.46603 0.69332 0.82395 0.0
H1050 H 0.37442 0.68458 0.85486 0.0
H1051 H 0.38518 0.6741 0.89253 0.0
H1052 H 0.38167 0.65672 0.8573 0.0
H1053 H 0.43791 0.73904 0.84653 0.0
H1054 H 0.46442 0.72769 0.84659 0.0
H1055 H 0.44888 0.7288 0.8842 0.0
C1056 C 0.56296 0.19534 0.09755 0.0
C1057 C 0.58402 0.18954 0.08945 0.0
C1058 C 0.55011 0.18213 0.11731 0.0
C1059 C 0.5585 0.16264 0.12946 0.0
C1060 C 0.57987 0.15687 0.12215 0.0
C1061 C 0.59239 0.1704 0.1022 0.0
C1062 C 0.52738 0.18888 0.12467 0.0
C1063 C 0.58936 0.13626 0.1349 0.0
C1064 C 0.52739 0.14018 0.20208 0.0
C1065 C 0.51345 0.12593 0.18617 0.0
C1066 C 0.54302 0.15137 0.18418 0.0
C1067 C 0.54461 0.14832 0.14952 0.0
C1068 C 0.53135 0.13309 0.13362 0.0
C1069 C 0.51594 0.12199 0.15221 0.0
C1070 C 0.557 0.16732 0.20208 0.0
C1071 C 0.53257 0.12942 0.09668 0.0
H1072 H 0.55631 0.21013 0.08805 0.0
H1073 H 0.60862 0.16574 0.09611 0.0
H1074 H 0.51604 0.17684 0.11473 0.0
H1075 H 0.52481 0.18972 0.15185 0.0
H1076 H 0.5234 0.2047 0.11374 0.0
H1077 H 0.6065 0.13452 0.12816 0.0
H1078 H 0.58785 0.13546 0.16227 0.0
H1079 H 0.5804 0.12246 0.12459 0.0
H1080 H 0.52563 0.14314 0.22841 0.0
H1081 H 0.50521 0.11098 0.13981 0.0
H1082 H 0.55241 0.18378 0.19463 0.0
H1083 H 0.57402 0.16506 0.19516 0.0
H1084 H 0.55549 0.16599 0.22944 0.0
H1085 H 0.52677 0.14387 0.08349 0.0
H1086 H 0.52275 0.11554 0.0887 0.0
H1087 H 0.54937 0.12671 0.08891 0.0
C1088 C 0.05998 0.69054 0.14791 0.0
C1089 C 0.06653 0.66992 0.15717 0.0
C1090 C 0.07369 0.70422 0.13039 0.0
C1091 C 0.09449 0.69714 0.12195 0.0
C1092 C 0.10114 0.67628 0.13077 0.0
C1093 C 0.08706 0.66288 0.1482 0.0
C1094 C 0.06596 0.72633 0.12116 0.0
C1095 C 0.12323 0.66824 0.12216 0.0
C1096 C 0.12029 0.72765 0.05148 0.0
C1097 C 0.13255 0.74281 0.06863 0.0
C1098 C 0.10854 0.71206 0.06851 0.0
C1099 C 0.10909 0.71163 0.10355 0.0
C1100 C 0.12235 0.72617 0.12096 0.0
C1101 C 0.13398 0.74161 0.10324 0.0
C1102 C 0.09466 0.69678 0.04906 0.0
C1103 C 0.12338 0.72613 0.15835 0.0
H1104 H 0.04414 0.69612 0.15458 0.0
H1105 H 0.09233 0.64704 0.15537 0.0
H1106 H 0.07647 0.73859 0.13256 0.0
H1107 H 0.06682 0.72854 0.0939 0.0
H1108 H 0.04925 0.7293 0.12932 0.0
H1109 H 0.12585 0.6515 0.13045 0.0
H1110 H 0.12577 0.66907 0.09498 0.0
H1111 H 0.13549 0.67859 0.1339 0.0
H1112 H 0.11925 0.72842 0.02468 0.0
H1113 H 0.14343 0.75331 0.1166 0.0
H1114 H 0.07756 0.70028 0.05403 0.0
H1115 H 0.09767 0.68006 0.05699 0.0
H1116 H 0.09747 0.69798 0.02193 0.0
H1117 H 0.10773 0.73124 0.1686 0.0
H1118 H 0.13596 0.73705 0.16794 0.0
H1119 H 0.12657 0.70975 0.1677 0.0
C1120 C 0.5144 0.87311 0.35745 0.0
C1121 C 0.51282 0.87146 0.32292 0.0
C1122 C 0.52915 0.86062 0.37513 0.0
C1123 C 0.54264 0.8463 0.35775 0.0
C1124 C 0.54181 0.84535 0.32275 0.0
C1125 C 0.52687 0.85793 0.30576 0.0
C1126 C 0.52961 0.86204 0.41249 0.0
C1127 C 0.55603 0.83038 0.30336 0.0
C1128 C 0.59014 0.82285 0.40371 0.0
C1129 C 0.58192 0.80307 0.41418 0.0
C1130 C 0.57766 0.837 0.38489 0.0
C1131 C 0.5565 0.8312 0.3763 0.0
C1132 C 0.54833 0.81102 0.38588 0.0
C1133 C 0.56114 0.7972 0.40468 0.0
C1134 C 0.5869 0.85837 0.37492 0.0
C1135 C 0.52587 0.8042 0.37692 0.0
H1136 H 0.50355 0.88353 0.37081 0.0
H1137 H 0.52579 0.85671 0.279 0.0
H1138 H 0.52405 0.84669 0.42329 0.0
H1139 H 0.5462 0.86473 0.42131 0.0
H1140 H 0.51927 0.8751 0.42205 0.0
H1141 H 0.5547 0.83292 0.27618 0.0
H1142 H 0.57298 0.83251 0.31077 0.0
H1143 H 0.5516 0.81358 0.30895 0.0
H1144 H 0.60616 0.82757 0.41094 0.0
H1145 H 0.55467 0.7819 0.41241 0.0
H1146 H 0.57762 0.87143 0.38674 0.0
H1147 H 0.58561 0.86057 0.34771 0.0
H1148 H 0.60395 0.86004 0.38222 0.0
H1149 H 0.51414 0.81534 0.38823 0.0
H1150 H 0.52217 0.78771 0.38545 0.0
H1151 H 0.5236 0.80494 0.34967 0.0
C1152 C 0.37322 0.2563 0.62111 0.0
C1153 C 0.37426 0.2564 0.58642 0.0
C1154 C 0.38499 0.27111 0.63988 0.0
C1155 C 0.39814 0.28622 0.62347 0.0
C1156 C 0.39877 0.28674 0.58843 0.0
C1157 C 0.38673 0.27189 0.57034 0.0
C1158 C 0.38378 0.27024 0.67723 0.0
C1159 C 0.41266 0.30257 0.57004 0.0
C1160 C 0.41754 0.33556 0.66919 0.0
C1161 C 0.4383 0.32945 0.6785 0.0
C1162 C 0.40419 0.32155 0.65163 0.0
C1163 C 0.41185 0.30104 0.64283 0.0
C1164 C 0.43284 0.29483 0.65184 0.0
C1165 C 0.44577 0.30908 0.66972 0.0
C1166 C 0.38184 0.32864 0.64262 0.0
C1167 C 0.44165 0.27317 0.6425 0.0
H1168 H 0.36357 0.24437 0.63364 0.0
H1169 H 0.38753 0.27213 0.54351 0.0
H1170 H 0.39966 0.26594 0.68751 0.0
H1171 H 0.37951 0.28619 0.68727 0.0
H1172 H 0.37184 0.25838 0.68611 0.0
H1173 H 0.4108 0.30131 0.54273 0.0
H1174 H 0.40866 0.31912 0.57771 0.0
H1175 H 0.42971 0.29982 0.57637 0.0
H1176 H 0.41155 0.35119 0.67611 0.0
H1177 H 0.46181 0.30426 0.67669 0.0
H1178 H 0.36995 0.31735 0.65316 0.0
H1179 H 0.37981 0.32843 0.61531 0.0
H1180 H 0.37818 0.34498 0.6518 0.0
H1181 H 0.43147 0.26036 0.65316 0.0
H1182 H 0.45832 0.27083 0.6513 0.0
H1183 H 0.44136 0.27122 0.61516 0.0
C1184 C 0.97408 0.13951 0.78995 0.0
C1185 C 0.98941 0.1282 0.80824 0.0
C1186 C 0.95743 0.15048 0.80584 0.0
C1187 C 0.95639 0.15043 0.84086 0.0
C1188 C 0.97121 0.13812 0.85937 0.0
C1189 C 0.98748 0.12698 0.84277 0.0
C1190 C 0.94171 0.16309 0.78522 0.0
C1191 C 0.97074 0.13784 0.89679 0.0
C1192 C 0.93506 0.19972 0.88399 0.0
C1193 C 0.91518 0.19262 0.89589 0.0
C1194 C 0.94836 0.18626 0.86549 0.0
C1195 C 0.94154 0.1652 0.85824 0.0
C1196 C 0.92107 0.15822 0.86863 0.0
C1197 C 0.90813 0.172 0.88746 0.0
C1198 C 0.97009 0.19434 0.85481 0.0
C1199 C 0.91317 0.13597 0.86085 0.0
H1200 H 0.97545 0.14031 0.76318 0.0
H1201 H 0.99936 0.11829 0.85697 0.0
H1202 H 0.9251 0.16007 0.7937 0.0
H1203 H 0.94488 0.18043 0.78824 0.0
H1204 H 0.94287 0.15909 0.75845 0.0
H1205 H 0.98204 0.12594 0.90733 0.0
H1206 H 0.97511 0.1539 0.90635 0.0
H1207 H 0.9544 0.13418 0.90586 0.0
H1208 H 0.94063 0.21567 0.89003 0.0
H1209 H 0.89279 0.16636 0.89643 0.0
H1210 H 0.97196 0.19271 0.82759 0.0
H1211 H 0.98281 0.18455 0.86657 0.0
H1212 H 0.9727 0.21135 0.86162 0.0
H1213 H 0.91498 0.13255 0.83401 0.0
H1214 H 0.89614 0.13371 0.8679 0.0
H1215 H 0.92297 0.12406 0.87445 0.0
C1216 C 0.94947 0.68785 0.65662 0.0
C1217 C 0.94359 0.66709 0.66619 0.0
C1218 C 0.93585 0.70044 0.63715 0.0
C1219 C 0.91586 0.69208 0.62699 0.0
C1220 C 0.91005 0.67096 0.63573 0.0
C1221 C 0.924 0.65869 0.65521 0.0
C1222 C 0.94266 0.72288 0.62804 0.0
C1223 C 0.88888 0.66152 0.62517 0.0
C1224 C 0.87428 0.73394 0.60557 0.0
C1225 C 0.87666 0.73531 0.57111 0.0
C1226 C 0.88637 0.71927 0.62404 0.0
C1227 C 0.90102 0.70567 0.60754 0.0
C1228 C 0.90261 0.70622 0.57259 0.0
C1229 C 0.89041 0.72108 0.55479 0.0
C1230 C 0.88424 0.71907 0.66133 0.0
C1231 C 0.91794 0.69186 0.55412 0.0
H1232 H 0.96461 0.69445 0.66477 0.0
H1233 H 0.91928 0.64269 0.66248 0.0
H1234 H 0.94241 0.72492 0.60072 0.0
H1235 H 0.93123 0.73461 0.63861 0.0
H1236 H 0.95896 0.72677 0.63719 0.0
H1237 H 0.88717 0.64454 0.63281 0.0
H1238 H 0.87558 0.67084 0.63624 0.0
H1239 H 0.88713 0.66254 0.59785 0.0
H1240 H 0.86367 0.74492 0.61826 0.0
H1241 H 0.89218 0.722 0.52809 0.0
H1242 H 0.89932 0.72489 0.67269 0.0
H1243 H 0.88157 0.70253 0.67037 0.0
H1244 H 0.87088 0.72933 0.67009 0.0
H1245 H 0.93463 0.69645 0.56017 0.0
H1246 H 0.91579 0.69288 0.52683 0.0
H1247 H 0.91578 0.67499 0.56192 0.0
C1248 C 0.0114 0.11828 0.35786 0.0
C1249 C 0.0111 0.12163 0.32352 0.0
C1250 C 0.02587 0.12945 0.37811 0.0
C1251 C 0.04027 0.1442 0.36353 0.0
C1252 C 0.04072 0.14677 0.3287 0.0
C1253 C 0.02614 0.13543 0.30914 0.0
C1254 C 0.02506 0.12623 0.41518 0.0
C1255 C 0.0559 0.16227 0.31218 0.0
C1256 C 0.06002 0.19217 0.41201 0.0
C1257 C 0.08116 0.18625 0.41922 0.0
C1258 C 0.04635 0.17834 0.39472 0.0
C1259 C 0.05396 0.15806 0.38453 0.0
C1260 C 0.07507 0.15175 0.39242 0.0
C1261 C 0.08845 0.16595 0.40957 0.0
C1262 C 0.02392 0.18566 0.38657 0.0
C1263 C 0.08367 0.13019 0.3821 0.0
H1264 H 0.99976 0.10766 0.36907 0.0
H1265 H 0.02605 0.13794 0.28254 0.0
H1266 H 0.04135 0.12329 0.4251 0.0
H1267 H 0.01892 0.14096 0.42719 0.0
H1268 H 0.01456 0.11265 0.42229 0.0
H1269 H 0.05514 0.16135 0.28471 0.0
H1270 H 0.05193 0.17884 0.31984 0.0
H1271 H 0.07258 0.15908 0.32013 0.0
H1272 H 0.05422 0.20779 0.41937 0.0
H1273 H 0.10468 0.16111 0.41529 0.0
H1274 H 0.01207 0.1738 0.3956 0.0
H1275 H 0.02198 0.18685 0.35929 0.0
H1276 H 0.02012 0.20147 0.39767 0.0
H1277 H 0.07279 0.11729 0.39061 0.0
H1278 H 0.09991 0.12711 0.39218 0.0
H1279 H 0.08441 0.12927 0.35466 0.0
C1280 C 0.61284 0.27474 0.05731 0.0
C1281 C 0.62578 0.26024 0.07464 0.0
C1282 C 0.60081 0.29019 0.07411 0.0
C1283 C 0.6017 0.29108 0.1091 0.0
C1284 C 0.6157 0.27731 0.12663 0.0
C1285 C 0.62766 0.26203 0.10912 0.0
C1286 C 0.58617 0.30466 0.05452 0.0
C1287 C 0.61708 0.27785 0.16397 0.0
C1288 C 0.57674 0.33849 0.15352 0.0
C1289 C 0.5567 0.33016 0.16253 0.0
C1290 C 0.59161 0.326 0.13603 0.0
C1291 C 0.58629 0.30473 0.12739 0.0
C1292 C 0.56598 0.29637 0.13586 0.0
C1293 C 0.55144 0.30918 0.15323 0.0
C1294 C 0.61309 0.33544 0.12716 0.0
C1295 C 0.55967 0.27375 0.12692 0.0
H1296 H 0.61151 0.27353 0.03058 0.0
H1297 H 0.63766 0.25085 0.12259 0.0
H1298 H 0.56928 0.30017 0.05933 0.0
H1299 H 0.58819 0.32153 0.06242 0.0
H1300 H 0.58914 0.3036 0.02742 0.0
H1301 H 0.63042 0.26786 0.17353 0.0
H1302 H 0.6193 0.29449 0.17284 0.0
H1303 H 0.60188 0.27184 0.17471 0.0
H1304 H 0.581 0.35465 0.16062 0.0
H1305 H 0.536 0.30257 0.15992 0.0
H1306 H 0.61566 0.33454 0.09999 0.0
H1307 H 0.62603 0.32604 0.13906 0.0
H1308 H 0.61459 0.35239 0.13508 0.0
H1309 H 0.56052 0.27152 0.09967 0.0
H1310 H 0.54323 0.2697 0.13531 0.0
H1311 H 0.57101 0.26225 0.1383 0.0
C1312 C 0.41704 0.83613 0.91323 0.0
C1313 C 0.42393 0.8156 0.92236 0.0
C1314 C 0.43051 0.84998 0.89549 0.0
C1315 C 0.45125 0.84305 0.8865 0.0
C1316 C 0.45829 0.82236 0.89558 0.0
C1317 C 0.44458 0.80892 0.91345 0.0
C1318 C 0.42255 0.87199 0.88628 0.0
C1319 C 0.48027 0.81434 0.88618 0.0
C1320 C 0.48033 0.86668 0.81293 0.0
C1321 C 0.49596 0.87925 0.82845 0.0
C1322 C 0.46509 0.8555 0.83154 0.0
C1323 C 0.46546 0.85701 0.86651 0.0
C1324 C 0.48052 0.87053 0.88227 0.0
C1325 C 0.49565 0.88153 0.86299 0.0
C1326 C 0.44927 0.84126 0.81382 0.0
C1327 C 0.48128 0.8726 0.91954 0.0
H1328 H 0.40118 0.84149 0.92018 0.0
H1329 H 0.45004 0.79307 0.92027 0.0
H1330 H 0.43355 0.88435 0.89618 0.0
H1331 H 0.42235 0.87377 0.85892 0.0
H1332 H 0.4062 0.87515 0.8959 0.0
H1333 H 0.4834 0.79794 0.89557 0.0
H1334 H 0.48201 0.81426 0.8588 0.0
H1335 H 0.49272 0.82522 0.89619 0.0
H1336 H 0.48041 0.865 0.78619 0.0
H1337 H 0.50769 0.89126 0.87508 0.0
H1338 H 0.43275 0.84479 0.82218 0.0
H1339 H 0.45261 0.82429 0.81998 0.0
H1340 H 0.45003 0.84316 0.78647 0.0
H1341 H 0.46513 0.87617 0.92948 0.0
H1342 H 0.49249 0.88534 0.92772 0.0
H1343 H 0.4865 0.85721 0.93057 0.0
C1344 C 0.88431 0.27649 0.93062 0.0
C1345 C 0.87159 0.26083 0.9155 0.0
C1346 C 0.89559 0.29145 0.91165 0.0
C1347 C 0.89411 0.29068 0.87669 0.0
C1348 C 0.88017 0.2758 0.86135 0.0
C1349 C 0.869 0.26101 0.88102 0.0
C1350 C 0.91016 0.30715 0.92895 0.0
C1351 C 0.87812 0.2746 0.82412 0.0
C1352 C 0.91728 0.33706 0.82767 0.0
C1353 C 0.93746 0.32901 0.81887 0.0
C1354 C 0.90284 0.3247 0.8462 0.0
C1355 C 0.90881 0.30389 0.85634 0.0
C1356 C 0.92922 0.29575 0.84788 0.0
C1357 C 0.94327 0.30839 0.8292 0.0
C1358 C 0.88117 0.33382 0.85473 0.0
C1359 C 0.93623 0.27367 0.85855 0.0
H1360 H 0.88619 0.27649 0.95734 0.0
H1361 H 0.85918 0.2489 0.86926 0.0
H1362 H 0.92707 0.30293 0.9238 0.0
H1363 H 0.9075 0.32357 0.91941 0.0
H1364 H 0.90773 0.3072 0.95623 0.0
H1365 H 0.86473 0.26407 0.81631 0.0
H1366 H 0.87559 0.29077 0.81349 0.0
H1367 H 0.89318 0.26823 0.81343 0.0
H1368 H 0.91258 0.35291 0.81959 0.0
H1369 H 0.95884 0.30205 0.82263 0.0
H1370 H 0.87908 0.33427 0.88203 0.0
H1371 H 0.86839 0.32338 0.84462 0.0
H1372 H 0.87894 0.35023 0.84479 0.0
H1373 H 0.93596 0.27247 0.88599 0.0
H1374 H 0.95259 0.26968 0.84975 0.0
H1375 H 0.92495 0.26149 0.84882 0.0
C1376 C 0.48133 0.14326 0.68046 0.0
C1377 C 0.49615 0.12968 0.66507 0.0
C1378 C 0.46616 0.15452 0.66186 0.0
C1379 C 0.46577 0.15212 0.62701 0.0
C1380 C 0.4803 0.13799 0.61135 0.0
C1381 C 0.49536 0.12689 0.63063 0.0
C1382 C 0.45089 0.16942 0.67946 0.0
C1383 C 0.48029 0.13503 0.57421 0.0
C1384 C 0.41512 0.17026 0.58358 0.0
C1385 C 0.42085 0.19084 0.57286 0.0
C1386 C 0.42976 0.15725 0.60053 0.0
C1387 C 0.45058 0.16503 0.60704 0.0
C1388 C 0.45658 0.18566 0.59597 0.0
C1389 C 0.44165 0.1983 0.57899 0.0
C1390 C 0.42283 0.13531 0.61195 0.0
C1391 C 0.47864 0.19453 0.60261 0.0
H1392 H 0.48182 0.14541 0.70711 0.0
H1393 H 0.50681 0.11643 0.61864 0.0
H1394 H 0.45361 0.18608 0.671 0.0
H1395 H 0.43413 0.16521 0.67325 0.0
H1396 H 0.4528 0.16888 0.70683 0.0
H1397 H 0.49187 0.12264 0.56606 0.0
H1398 H 0.46408 0.13044 0.56556 0.0
H1399 H 0.48443 0.15036 0.56193 0.0
H1400 H 0.39915 0.16426 0.57881 0.0
H1401 H 0.44627 0.21416 0.57084 0.0
H1402 H 0.42329 0.1345 0.63941 0.0
H1403 H 0.43405 0.123 0.60248 0.0
H1404 H 0.40641 0.13123 0.60355 0.0
H1405 H 0.48126 0.19591 0.62973 0.0
H1406 H 0.48104 0.21053 0.59123 0.0
H1407 H 0.491 0.18349 0.59282 0.0
C1408 C 0.62624 0.73103 0.39297 0.0
C1409 C 0.62295 0.73271 0.42722 0.0
C1410 C 0.61434 0.71651 0.37395 0.0
C1411 C 0.59892 0.70336 0.38966 0.0
C1412 C 0.59641 0.70418 0.42447 0.0
C1413 C 0.60845 0.71888 0.44285 0.0
C1414 C 0.61747 0.71604 0.33684 0.0
C1415 C 0.58023 0.69031 0.44213 0.0
C1416 C 0.55145 0.68695 0.33723 0.0
C1417 C 0.55702 0.66607 0.32787 0.0
C1418 C 0.56481 0.69909 0.3578 0.0
C1419 C 0.5842 0.69013 0.36938 0.0
C1420 C 0.58964 0.66887 0.36094 0.0
C1421 C 0.57598 0.65707 0.34028 0.0
C1422 C 0.55839 0.72171 0.36648 0.0
C1423 C 0.61015 0.6588 0.37305 0.0
H1424 H 0.63745 0.74168 0.3808 0.0
H1425 H 0.60598 0.72002 0.46939 0.0
H1426 H 0.61993 0.69939 0.32819 0.0
H1427 H 0.60288 0.72221 0.32442 0.0
H1428 H 0.63133 0.72589 0.32883 0.0
H1429 H 0.58179 0.6913 0.46951 0.0
H1430 H 0.56384 0.6954 0.43516 0.0
H1431 H 0.58203 0.67336 0.43449 0.0
H1432 H 0.53679 0.69403 0.32801 0.0
H1433 H 0.58044 0.64095 0.33324 0.0
H1434 H 0.57042 0.73312 0.35662 0.0
H1435 H 0.55799 0.72376 0.39379 0.0
H1436 H 0.54246 0.72605 0.3563 0.0
H1437 H 0.62405 0.66761 0.36276 0.0
H1438 H 0.61149 0.64172 0.36574 0.0
H1439 H 0.61118 0.65991 0.40045 0.0
C1440 C 0.09146 0.8289 0.09077 0.0
C1441 C 0.08506 0.80874 0.07909 0.0
C1442 C 0.0775 0.8417 0.10936 0.0
C1443 C 0.0567 0.83412 0.11656 0.0
C1444 C 0.05028 0.81362 0.10555 0.0
C1445 C 0.06454 0.80117 0.08694 0.0
C1446 C 0.08486 0.86349 0.1208 0.0
C1447 C 0.02824 0.80495 0.11302 0.0
C1448 C 0.02534 0.85749 0.18815 0.0
C1449 C 0.01081 0.87084 0.17164 0.0
C1450 C 0.04072 0.84583 0.17056 0.0
C1451 C 0.04157 0.84759 0.13564 0.0
C1452 C 0.0274 0.86158 0.1189 0.0
C1453 C 0.01216 0.87309 0.13716 0.0
C1454 C 0.05561 0.83112 0.18925 0.0
C1455 C 0.0279 0.86387 0.08165 0.0
H1456 H 0.10724 0.83495 0.08479 0.0
H1457 H 0.05946 0.78559 0.07819 0.0
H1458 H 0.07449 0.87604 0.10989 0.0
H1459 H 0.0834 0.86475 0.14813 0.0
H1460 H 0.10171 0.86684 0.11372 0.0
H1461 H 0.0259 0.78851 0.10321 0.0
H1462 H 0.02548 0.8047 0.14018 0.0
H1463 H 0.01591 0.81554 0.10198 0.0
H1464 H 0.02443 0.85578 0.21485 0.0
H1465 H 0.00093 0.88337 0.12432 0.0
H1466 H 0.07249 0.83483 0.18297 0.0
H1467 H 0.05261 0.81431 0.18181 0.0
H1468 H 0.05358 0.83241 0.21654 0.0
H1469 H 0.04426 0.8681 0.07326 0.0
H1470 H 0.01659 0.87626 0.07261 0.0
H1471 H 0.02369 0.84838 0.06994 0.0
C1472 C 0.6292 0.75624 0.87573 0.0
C1473 C 0.62613 0.75329 0.90984 0.0
C1474 C 0.61835 0.77255 0.85864 0.0
C1475 C 0.60397 0.78598 0.87608 0.0
C1476 C 0.60138 0.78347 0.91068 0.0
C1477 C 0.6126 0.76727 0.92714 0.0
C1478 C 0.6217 0.77495 0.82177 0.0
C1479 C 0.58605 0.7973 0.93012 0.0
C1480 C 0.5835 0.83759 0.8376 0.0
C1481 C 0.56348 0.83116 0.82538 0.0
C1482 C 0.59703 0.823 0.85382 0.0
C1483 C 0.59034 0.80154 0.85795 0.0
C1484 C 0.57014 0.79499 0.84588 0.0
C1485 C 0.55697 0.80985 0.82982 0.0
C1486 C 0.61846 0.83053 0.86649 0.0
C1487 C 0.56238 0.77225 0.84999 0.0
H1488 H 0.63974 0.74556 0.86229 0.0
H1489 H 0.61026 0.76522 0.95356 0.0
H1490 H 0.60678 0.77063 0.80849 0.0
H1491 H 0.62541 0.79183 0.81552 0.0
H1492 H 0.63486 0.76463 0.81247 0.0
H1493 H 0.58684 0.79414 0.95719 0.0
H1494 H 0.58952 0.81446 0.92573 0.0
H1495 H 0.56944 0.7943 0.9216 0.0
H1496 H 0.58875 0.85396 0.83421 0.0
H1497 H 0.54156 0.80465 0.82051 0.0
H1498 H 0.63144 0.82076 0.85543 0.0
H1499 H 0.61932 0.82835 0.89375 0.0
H1500 H 0.62149 0.84763 0.86069 0.0
H1501 H 0.57384 0.76102 0.83827 0.0
H1502 H 0.54634 0.76967 0.8388 0.0
H1503 H 0.56153 0.76811 0.8767 0.0
C1504 C 0.48487 0.37424 0.13414 0.0
C1505 C 0.4853 0.37157 0.16861 0.0
C1506 C 0.47046 0.36256 0.11453 0.0
C1507 C 0.45623 0.34797 0.12988 0.0
C1508 C 0.45594 0.34601 0.1648 0.0
C1509 C 0.47047 0.35786 0.18373 0.0
C1510 C 0.4711 0.36512 0.07733 0.0
C1511 C 0.44097 0.33066 0.18208 0.0
C1512 C 0.40884 0.32577 0.08226 0.0
C1513 C 0.41669 0.30581 0.07199 0.0
C1514 C 0.42161 0.33981 0.10081 0.0
C1515 C 0.44265 0.33365 0.10948 0.0
C1516 C 0.45061 0.31348 0.09949 0.0
C1517 C 0.43756 0.29982 0.08081 0.0
C1518 C 0.41265 0.36123 0.11102 0.0
C1519 C 0.47293 0.30629 0.10859 0.0
H1520 H 0.49632 0.38482 0.12236 0.0
H1521 H 0.47063 0.35587 0.21043 0.0
H1522 H 0.477 0.35013 0.06584 0.0
H1523 H 0.45479 0.36809 0.06752 0.0
H1524 H 0.48171 0.37846 0.0695 0.0
H1525 H 0.44171 0.33216 0.2095 0.0
H1526 H 0.42425 0.33344 0.17398 0.0
H1527 H 0.44517 0.31399 0.17526 0.0
H1528 H 0.3928 0.33062 0.07538 0.0
H1529 H 0.44374 0.28441 0.07311 0.0
H1530 H 0.42292 0.37428 0.10128 0.0
H1531 H 0.41265 0.36261 0.13844 0.0
H1532 H 0.39607 0.36372 0.10191 0.0
H1533 H 0.48487 0.31781 0.09883 0.0
H1534 H 0.47673 0.29015 0.09872 0.0
H1535 H 0.47473 0.30596 0.13595 0.0
C1536 C 0.88063 0.21868 0.43928 0.0
C1537 C 0.87068 0.23466 0.42043 0.0
C1538 C 0.89298 0.20278 0.42411 0.0
C1539 C 0.89556 0.20306 0.3893 0.0
C1540 C 0.88463 0.21851 0.36998 0.0
C1541 C 0.87218 0.23412 0.38582 0.0
C1542 C 0.90417 0.18641 0.44548 0.0
C1543 C 0.88708 0.21931 0.33276 0.0
C1544 C 0.94728 0.18244 0.3527 0.0
C1545 C 0.9408 0.16294 0.33875 0.0
C1546 C 0.93279 0.19538 0.36992 0.0
C1547 C 0.91131 0.18861 0.37343 0.0
C1548 C 0.90487 0.1685 0.36085 0.0
C1549 C 0.91972 0.15587 0.34365 0.0
C1550 C 0.9403 0.21667 0.38329 0.0
C1551 C 0.88212 0.16073 0.36444 0.0
H1552 H 0.87933 0.21898 0.46608 0.0
H1553 H 0.86452 0.24649 0.37122 0.0
H1554 H 0.90165 0.17009 0.43547 0.0
H1555 H 0.92164 0.18953 0.44531 0.0
H1556 H 0.89849 0.18682 0.47157 0.0
H1557 H 0.87607 0.23107 0.32115 0.0
H1558 H 0.90376 0.22382 0.3264 0.0
H1559 H 0.88402 0.20333 0.32182 0.0
H1560 H 0.96358 0.18795 0.34934 0.0
H1561 H 0.91455 0.14083 0.33296 0.0
H1562 H 0.93668 0.21788 0.41015 0.0
H1563 H 0.93161 0.22983 0.37067 0.0
H1564 H 0.95774 0.21915 0.37968 0.0
H1565 H 0.87692 0.16176 0.39069 0.0
H1566 H 0.88014 0.14398 0.35581 0.0
H1567 H 0.8713 0.17113 0.34977 0.0
C1568 C 0.06046 0.69772 0.59137 0.0
C1569 C 0.08146 0.69222 0.58245 0.0
C1570 C 0.04805 0.68419 0.61131 0.0
C1571 C 0.05683 0.66468 0.62272 0.0
C1572 C 0.07813 0.65919 0.61447 0.0
C1573 C 0.09021 0.67304 0.59442 0.0
C1574 C 0.02539 0.69064 0.61971 0.0
C1575 C 0.08801 0.63854 0.62634 0.0
C1576 C 0.02765 0.64063 0.69609 0.0
C1577 C 0.01376 0.62622 0.68041 0.0
C1578 C 0.04253 0.65253 0.67777 0.0
C1579 C 0.04345 0.65001 0.64295 0.0
C1580 C 0.0302 0.63471 0.62719 0.0
C1581 C 0.01553 0.62293 0.64617 0.0
C1582 C 0.0565 0.66857 0.69548 0.0
C1583 C 0.03072 0.63158 0.59009 0.0
H1584 H 0.05354 0.71253 0.58245 0.0
H1585 H 0.1064 0.66861 0.58769 0.0
H1586 H 0.014 0.6786 0.60986 0.0
H1587 H 0.02324 0.69114 0.647 0.0
H1588 H 0.0211 0.70654 0.60937 0.0
H1589 H 0.10502 0.63699 0.61877 0.0
H1590 H 0.08705 0.6375 0.65376 0.0
H1591 H 0.07895 0.62476 0.61618 0.0
H1592 H 0.02644 0.64312 0.72262 0.0
H1593 H 0.00484 0.6118 0.63393 0.0
H1594 H 0.05161 0.68501 0.68844 0.0
H1595 H 0.07346 0.66659 0.68798 0.0
H1596 H 0.05539 0.66705 0.72287 0.0
H1597 H 0.0246 0.64618 0.57766 0.0
H1598 H 0.02085 0.61775 0.58206 0.0
H1599 H 0.04739 0.6291 0.58148 0.0
C1600 C 0.61808 0.22801 0.55691 0.0
C1601 C 0.63118 0.24302 0.57281 0.0
C1602 C 0.60756 0.21203 0.57496 0.0
C1603 C 0.6102 0.21113 0.60975 0.0
C1604 C 0.62466 0.22524 0.62561 0.0
C1605 C 0.63507 0.24106 0.60687 0.0
C1606 C 0.5924 0.19719 0.55707 0.0
C1607 C 0.62795 0.22468 0.66267 0.0
C1608 C 0.56183 0.19251 0.65825 0.0
C1609 C 0.56735 0.17137 0.66621 0.0
C1610 C 0.57577 0.2056 0.64017 0.0
C1611 C 0.59576 0.19739 0.62974 0.0
C1612 C 0.60148 0.1761 0.63755 0.0
C1613 C 0.58718 0.1633 0.65567 0.0
C1614 C 0.56903 0.22824 0.63215 0.0
C1615 C 0.62269 0.16688 0.62679 0.0
H1616 H 0.61521 0.22936 0.53049 0.0
H1617 H 0.64521 0.25263 0.61924 0.0
H1618 H 0.59498 0.1804 0.565 0.0
H1619 H 0.57567 0.20148 0.56342 0.0
H1620 H 0.59427 0.19813 0.52972 0.0
H1621 H 0.64188 0.2345 0.67048 0.0
H1622 H 0.61344 0.23096 0.67519 0.0
H1623 H 0.63035 0.20803 0.67136 0.0
H1624 H 0.54656 0.19892 0.66617 0.0
H1625 H 0.59166 0.14704 0.66181 0.0
H1626 H 0.56852 0.23053 0.60488 0.0
H1627 H 0.5809 0.23974 0.64216 0.0
H1628 H 0.55306 0.23226 0.64249 0.0
H1629 H 0.62399 0.16735 0.59938 0.0
H1630 H 0.62484 0.1501 0.63519 0.0
H1631 H 0.63598 0.1767 0.63684 0.0
C1632 C 0.02411 0.35527 0.79559 0.0
C1633 C 0.00997 0.36926 0.81162 0.0
C1634 C 0.03936 0.34363 0.81358 0.0
C1635 C 0.04035 0.34599 0.84842 0.0
C1636 C 0.02666 0.3607 0.86458 0.0
C1637 C 0.01165 0.37224 0.84593 0.0
C1638 C 0.05381 0.32822 0.79548 0.0
C1639 C 0.02722 0.36359 0.90174 0.0
C1640 C 0.05967 0.29966 0.9009 0.0
C1641 C 0.08012 0.30659 0.91042 0.0
C1642 C 0.04679 0.31212 0.88007 0.0
C1643 C 0.05457 0.33197 0.8683 0.0
C1644 C 0.0755 0.33869 0.87662 0.0
C1645 C 0.08805 0.32592 0.89762 0.0
C1646 C 0.02456 0.30436 0.87159 0.0
C1647 C 0.08437 0.35968 0.86423 0.0
H1648 H 0.02295 0.35302 0.76901 0.0
H1649 H 0.00075 0.38304 0.85842 0.0
H1650 H 0.07074 0.33099 0.8025 0.0
H1651 H 0.04976 0.31158 0.8027 0.0
H1652 H 0.05232 0.32966 0.76813 0.0
H1653 H 0.01649 0.37665 0.91021 0.0
H1654 H 0.02224 0.34851 0.91404 0.0
H1655 H 0.04375 0.36718 0.91006 0.0
H1656 H 0.05343 0.28468 0.91037 0.0
H1657 H 0.10384 0.33141 0.90472 0.0
H1658 H 0.02233 0.30406 0.84431 0.0
H1659 H 0.0125 0.31556 0.8819 0.0
H1660 H 0.0213 0.28811 0.88151 0.0
H1661 H 0.0828 0.36071 0.83689 0.0
H1662 H 0.10147 0.36186 0.87095 0.0
H1663 H 0.07504 0.3731 0.87493 0.0
C1664 C 0.87414 0.75526 0.11545 0.0
C1665 C 0.87465 0.75487 0.08074 0.0
C1666 C 0.88591 0.77057 0.13322 0.0
C1667 C 0.89844 0.78573 0.11577 0.0
C1668 C 0.8983 0.78591 0.08072 0.0
C1669 C 0.88638 0.7705 0.06364 0.0
C1670 C 0.88561 0.76999 0.17062 0.0
C1671 C 0.91146 0.80182 0.06124 0.0
C1672 C 0.91972 0.83458 0.16098 0.0
C1673 C 0.94056 0.82803 0.16896 0.0
C1674 C 0.90576 0.82096 0.14372 0.0
C1675 C 0.91289 0.80043 0.13403 0.0
C1676 C 0.93403 0.79389 0.14143 0.0
C1677 C 0.94758 0.80774 0.15886 0.0
C1678 C 0.8833 0.82842 0.13626 0.0
C1679 C 0.9423 0.77218 0.13113 0.0
H1680 H 0.86507 0.74323 0.12875 0.0
H1681 H 0.88671 0.77037 0.03678 0.0
H1682 H 0.90167 0.76547 0.17999 0.0
H1683 H 0.88187 0.78607 0.18068 0.0
H1684 H 0.87372 0.75838 0.1804 0.0
H1685 H 0.90841 0.80078 0.03415 0.0
H1686 H 0.90797 0.81834 0.0696 0.0
H1687 H 0.92872 0.79887 0.0657 0.0
H1688 H 0.91411 0.85017 0.16884 0.0
H1689 H 0.96369 0.80259 0.16472 0.0
H1690 H 0.87156 0.81752 0.1481 0.0
H1691 H 0.88034 0.8279 0.10916 0.0
H1692 H 0.8803 0.84495 0.14521 0.0
H1693 H 0.9324 0.75943 0.14258 0.0
H1694 H 0.95924 0.76965 0.13846 0.0
H1695 H 0.94101 0.77032 0.10385 0.0
C1696 C 0.40847 0.67159 0.39455 0.0
C1697 C 0.41705 0.6906 0.40745 0.0
C1698 C 0.42066 0.65831 0.37377 0.0
C1699 C 0.44192 0.66418 0.3658 0.0
C1700 C 0.45042 0.68365 0.37782 0.0
C1701 C 0.43789 0.69663 0.39839 0.0
C1702 C 0.41103 0.63774 0.3611 0.0
C1703 C 0.47303 0.69051 0.36978 0.0
C1704 C 0.48398 0.62299 0.34351 0.0
C1705 C 0.48631 0.62648 0.3094 0.0
C1706 C 0.46888 0.63451 0.362 0.0
C1707 C 0.45571 0.64973 0.34587 0.0
C1708 C 0.4572 0.65244 0.31113 0.0
C1709 C 0.47256 0.64083 0.29331 0.0
C1710 C 0.46782 0.63124 0.39906 0.0
C1711 C 0.44329 0.66835 0.29301 0.0
H1712 H 0.39239 0.66679 0.40131 0.0
H1713 H 0.44467 0.71135 0.40794 0.0
H1714 H 0.41269 0.63678 0.33376 0.0
H1715 H 0.41977 0.62392 0.37175 0.0
H1716 H 0.39383 0.63622 0.36763 0.0
H1717 H 0.47698 0.70647 0.38019 0.0
H1718 H 0.48453 0.67866 0.37986 0.0
H1719 H 0.47538 0.69105 0.34254 0.0
H1720 H 0.49457 0.6119 0.35606 0.0
H1721 H 0.4742 0.64346 0.26687 0.0
H1722 H 0.45107 0.62837 0.40698 0.0
H1723 H 0.47344 0.64591 0.41183 0.0
H1724 H 0.47783 0.61758 0.40738 0.0
H1725 H 0.42627 0.66622 0.30006 0.0
H1726 H 0.44473 0.66681 0.26566 0.0
H1727 H 0.44799 0.68482 0.30014 0.0
C1728 C 0.4502 0.18728 0.1521 0.0
C1729 C 0.44396 0.1668 0.16262 0.0
C1730 C 0.43697 0.19961 0.13159 0.0
C1731 C 0.41702 0.19125 0.12123 0.0
C1732 C 0.41103 0.17026 0.13043 0.0
C1733 C 0.42458 0.15826 0.15103 0.0
C1734 C 0.44398 0.22191 0.12209 0.0
C1735 C 0.38995 0.16078 0.11958 0.0
C1736 C 0.37492 0.23294 0.10142 0.0
C1737 C 0.37669 0.23446 0.06689 0.0
C1738 C 0.38749 0.2184 0.11934 0.0
C1739 C 0.40205 0.20502 0.10224 0.0
C1740 C 0.40321 0.20583 0.06724 0.0
C1741 C 0.39054 0.22061 0.04997 0.0
C1742 C 0.38583 0.218 0.15669 0.0
C1743 C 0.41843 0.1917 0.04815 0.0
H1744 H 0.46522 0.19397 0.16061 0.0
H1745 H 0.41961 0.14245 0.1589 0.0
H1746 H 0.4433 0.22396 0.0948 0.0
H1747 H 0.43291 0.23381 0.13314 0.0
H1748 H 0.46048 0.22555 0.1306 0.0
H1749 H 0.38847 0.14364 0.12649 0.0
H1750 H 0.37661 0.16972 0.13126 0.0
H1751 H 0.38805 0.16229 0.09234 0.0
H1752 H 0.36425 0.24362 0.11461 0.0
H1753 H 0.39189 0.22166 0.02323 0.0
H1754 H 0.40118 0.2234 0.1677 0.0
H1755 H 0.3829 0.20146 0.16551 0.0
H1756 H 0.37282 0.22848 0.16605 0.0
H1757 H 0.43516 0.19627 0.05397 0.0
H1758 H 0.41605 0.19297 0.02093 0.0
H1759 H 0.41637 0.17476 0.05563 0.0
C1760 C 0.52042 0.63039 0.813 0.0
C1761 C 0.50458 0.61885 0.82993 0.0
C1762 C 0.53593 0.6421 0.83025 0.0
C1763 C 0.53572 0.64212 0.86531 0.0
C1764 C 0.5204 0.62969 0.88259 0.0
C1765 C 0.50494 0.6182 0.86465 0.0
C1766 C 0.55198 0.65518 0.81092 0.0
C1767 C 0.51984 0.62917 0.91999 0.0
C1768 C 0.58568 0.66236 0.90862 0.0
C1769 C 0.57989 0.68347 0.91635 0.0
C1770 C 0.57133 0.64857 0.89256 0.0
C1771 C 0.55079 0.65613 0.8837 0.0
C1772 C 0.54485 0.67742 0.89132 0.0
C1773 C 0.55943 0.69079 0.90768 0.0
C1774 C 0.57814 0.62592 0.88504 0.0
C1775 C 0.52313 0.68612 0.88192 0.0
H1776 H 0.52033 0.63084 0.78615 0.0
H1777 H 0.49274 0.60929 0.87785 0.0
H1778 H 0.54944 0.67243 0.81598 0.0
H1779 H 0.56849 0.65121 0.81891 0.0
H1780 H 0.55072 0.65251 0.78377 0.0
H1781 H 0.50814 0.61731 0.9296 0.0
H1782 H 0.5359 0.62525 0.92998 0.0
H1783 H 0.51544 0.64519 0.92959 0.0
H1784 H 0.60138 0.65648 0.91548 0.0
H1785 H 0.55483 0.70708 0.91347 0.0
H1786 H 0.5779 0.62317 0.85787 0.0
H1787 H 0.5667 0.61446 0.8963 0.0
H1788 H 0.59444 0.62232 0.89446 0.0
H1789 H 0.52099 0.68527 0.85464 0.0
H1790 H 0.52093 0.70298 0.8899 0.0
H1791 H 0.51035 0.67624 0.8933 0.0
C1792 C 0.07664 0.84139 0.65531 0.0
C1793 C 0.05705 0.83345 0.66713 0.0
C1794 C 0.09027 0.82857 0.63607 0.0
C1795 C 0.08413 0.80736 0.62841 0.0
C1796 C 0.06425 0.79937 0.63974 0.0
C1797 C 0.05097 0.8125 0.65893 0.0
C1798 C 0.11134 0.8376 0.62429 0.0
C1799 C 0.05708 0.77685 0.63188 0.0
C1800 C 0.10767 0.77737 0.55548 0.0
C1801 C 0.12176 0.76322 0.5713 0.0
C1802 C 0.09596 0.79245 0.57364 0.0
C1803 C 0.09838 0.79336 0.60847 0.0
C1804 C 0.11328 0.77975 0.62444 0.0
C1805 C 0.12484 0.76483 0.6056 0.0
C1806 C 0.08032 0.80677 0.55571 0.0
C1807 C 0.11628 0.78027 0.66156 0.0
H1808 H 0.08153 0.85752 0.66155 0.0
H1809 H 0.03584 0.80622 0.66774 0.0
H1810 H 0.12473 0.82802 0.63452 0.0
H1811 H 0.11238 0.83658 0.59688 0.0
H1812 H 0.11356 0.85455 0.6318 0.0
H1813 H 0.04104 0.77317 0.64228 0.0
H1814 H 0.05654 0.77447 0.60464 0.0
H1815 H 0.06875 0.7652 0.64202 0.0
H1816 H 0.10533 0.77627 0.52891 0.0
H1817 H 0.13572 0.75392 0.61794 0.0
H1818 H 0.08295 0.82371 0.56274 0.0
H1819 H 0.06375 0.80253 0.56307 0.0
H1820 H 0.08167 0.80532 0.52834 0.0
H1821 H 0.11936 0.79686 0.67002 0.0
H1822 H 0.12971 0.76993 0.66981 0.0
H1823 H 0.10141 0.77475 0.67392 0.0
C1824 C 0.93605 0.29867 0.40854 0.0
C1825 C 0.91527 0.30534 0.41669 0.0
C1826 C 0.9501 0.31223 0.39142 0.0
C1827 C 0.94326 0.333 0.38238 0.0
C1828 C 0.92229 0.3398 0.39026 0.0
C1829 C 0.90851 0.32585 0.4072 0.0
C1830 C 0.9723 0.30434 0.38308 0.0
C1831 C 0.91448 0.36187 0.38107 0.0
C1832 C 0.98689 0.37355 0.36372 0.0
C1833 C 0.98772 0.37264 0.32905 0.0
C1834 C 0.97212 0.36108 0.38148 0.0
C1835 C 0.95797 0.34742 0.36405 0.0
C1836 C 0.95837 0.34693 0.32901 0.0
C1837 C 0.9732 0.3596 0.31195 0.0
C1838 C 0.97202 0.36209 0.41887 0.0
C1839 C 0.94355 0.33255 0.30956 0.0
H1840 H 0.9414 0.28283 0.41564 0.0
H1841 H 0.89255 0.33123 0.41356 0.0
H1842 H 0.97487 0.30497 0.35588 0.0
H1843 H 0.98445 0.31491 0.39465 0.0
H1844 H 0.97509 0.2877 0.39169 0.0
H1845 H 0.89773 0.36473 0.38912 0.0
H1846 H 0.92491 0.37415 0.39259 0.0
H1847 H 0.91543 0.36413 0.35384 0.0
H1848 H 0.99809 0.38362 0.37703 0.0
H1849 H 0.97369 0.35891 0.28511 0.0
H1850 H 0.97666 0.34632 0.4292 0.0
H1851 H 0.95568 0.3657 0.42802 0.0
H1852 H 0.9832 0.3744 0.42857 0.0
H1853 H 0.94685 0.31559 0.31577 0.0
H1854 H 0.94535 0.33467 0.28236 0.0
H1855 H 0.92667 0.33581 0.31638 0.0
C1856 C 0.42229 0.83941 0.34516 0.0
C1857 C 0.44178 0.83127 0.33335 0.0
C1858 C 0.40844 0.82666 0.36418 0.0
C1859 C 0.41426 0.80533 0.37158 0.0
C1860 C 0.43408 0.79716 0.36035 0.0
C1861 C 0.44759 0.81022 0.34143 0.0
C1862 C 0.38744 0.83589 0.3759 0.0
C1863 C 0.4409 0.77449 0.36791 0.0
C1864 C 0.39042 0.77444 0.44332 0.0
C1865 C 0.37647 0.76046 0.42689 0.0
C1866 C 0.40204 0.78991 0.42579 0.0
C1867 C 0.39971 0.79133 0.39099 0.0
C1868 C 0.38484 0.77797 0.37447 0.0
C1869 C 0.37331 0.76269 0.39268 0.0
C1870 C 0.41763 0.80397 0.44432 0.0
C1871 C 0.38195 0.77902 0.33735 0.0
H1872 H 0.41761 0.85562 0.33902 0.0
H1873 H 0.46265 0.80378 0.33263 0.0
H1874 H 0.37397 0.82669 0.36508 0.0
H1875 H 0.38616 0.83448 0.40324 0.0
H1876 H 0.38558 0.85297 0.36891 0.0
H1877 H 0.45696 0.77069 0.35769 0.0
H1878 H 0.44125 0.77187 0.39511 0.0
H1879 H 0.42915 0.76306 0.35738 0.0
H1880 H 0.39278 0.77286 0.46983 0.0
H1881 H 0.36254 0.75191 0.37989 0.0
H1882 H 0.4153 0.82098 0.43742 0.0
H1883 H 0.43423 0.79957 0.4374 0.0
H1884 H 0.41593 0.8024 0.47162 0.0
H1885 H 0.37922 0.79576 0.32932 0.0
H1886 H 0.36834 0.76903 0.32874 0.0
H1887 H 0.39673 0.77335 0.32494 0.0
C1888 C 0.98111 0.63716 0.17729 0.0
C1889 C 0.99656 0.62474 0.16106 0.0
C1890 C 0.96533 0.6481 0.15944 0.0
C1891 C 0.96498 0.6466 0.12446 0.0
C1892 C 0.97999 0.63337 0.10797 0.0
C1893 C 0.99564 0.62255 0.12652 0.0
C1894 C 0.94957 0.66198 0.17796 0.0
C1895 C 0.98005 0.63135 0.07069 0.0
C1896 C 0.91458 0.66581 0.08112 0.0
C1897 C 0.9204 0.68665 0.07177 0.0
C1898 C 0.92908 0.65239 0.09766 0.0
C1899 C 0.94981 0.66003 0.10524 0.0
C1900 C 0.95581 0.68099 0.0958 0.0
C1901 C 0.94107 0.69402 0.07914 0.0
C1902 C 0.92216 0.63009 0.10728 0.0
C1903 C 0.97775 0.68978 0.10367 0.0
H1904 H 0.98165 0.63879 0.20403 0.0
H1905 H 0.00756 0.61297 0.11387 0.0
H1906 H 0.95217 0.679 0.1713 0.0
H1907 H 0.93296 0.65783 0.17077 0.0
H1908 H 0.95113 0.66032 0.20527 0.0
H1909 H 0.99155 0.61906 0.06189 0.0
H1910 H 0.96384 0.62716 0.06159 0.0
H1911 H 0.98443 0.64694 0.05942 0.0
H1912 H 0.89872 0.65989 0.07534 0.0
H1913 H 0.94573 0.71008 0.07212 0.0
H1914 H 0.92259 0.62835 0.13464 0.0
H1915 H 0.93342 0.61815 0.09684 0.0
H1916 H 0.90576 0.62629 0.09849 0.0
H1917 H 0.98018 0.69009 0.13091 0.0
H1918 H 0.98009 0.70622 0.09389 0.0
H1919 H 0.99027 0.67925 0.09303 0.0
C1920 C 0.1263 0.23714 0.89823 0.0
C1921 C 0.12264 0.23922 0.93233 0.0
C1922 C 0.11503 0.222 0.87945 0.0
C1923 C 0.0999 0.20857 0.89528 0.0
C1924 C 0.09712 0.20974 0.93003 0.0
C1925 C 0.10849 0.22513 0.94815 0.0
C1926 C 0.1184 0.22124 0.8424 0.0
C1927 C 0.08131 0.19555 0.94784 0.0
C1928 C 0.05324 0.19086 0.84212 0.0
C1929 C 0.05944 0.17014 0.83276 0.0
C1930 C 0.06607 0.20331 0.86304 0.0
C1931 C 0.08557 0.19484 0.87506 0.0
C1932 C 0.0916 0.1737 0.86679 0.0
C1933 C 0.07845 0.16158 0.84571 0.0
C1934 C 0.05905 0.22579 0.87145 0.0
C1935 C 0.11222 0.16413 0.87938 0.0
H1936 H 0.13723 0.24799 0.88589 0.0
H1937 H 0.10574 0.22659 0.97458 0.0
H1938 H 0.12131 0.20457 0.83418 0.0
H1939 H 0.10375 0.22694 0.82964 0.0
H1940 H 0.13207 0.23134 0.83436 0.0
H1941 H 0.08287 0.19671 0.97522 0.0
H1942 H 0.06479 0.20022 0.94087 0.0
H1943 H 0.08352 0.17862 0.94037 0.0
H1944 H 0.03852 0.1976 0.83251 0.0
H1945 H 0.08341 0.14561 0.8387 0.0
H1946 H 0.07082 0.23746 0.86159 0.0
H1947 H 0.05847 0.22794 0.89873 0.0
H1948 H 0.04306 0.22969 0.86107 0.0
H1949 H 0.126 0.17301 0.86885 0.0
H1950 H 0.11385 0.14699 0.87266 0.0
H1951 H 0.11317 0.16566 0.90674 0.0
C1952 C 0.59267 0.33066 0.61133 0.0
C1953 C 0.58666 0.30954 0.60408 0.0
C1954 C 0.57907 0.34416 0.62939 0.0
C1955 C 0.55905 0.33632 0.64034 0.0
C1956 C 0.55358 0.31462 0.63516 0.0
C1957 C 0.56751 0.30146 0.61724 0.0
C1958 C 0.58555 0.36713 0.63501 0.0
C1959 C 0.53243 0.30562 0.64675 0.0
C1960 C 0.52473 0.36497 0.70347 0.0
C1961 C 0.50927 0.37455 0.68312 0.0
C1962 C 0.5417 0.3533 0.68984 0.0
C1963 C 0.54306 0.35102 0.65506 0.0
C1964 C 0.52802 0.36143 0.63431 0.0
C1965 C 0.51131 0.3732 0.64864 0.0
C1966 C 0.55759 0.34266 0.71269 0.0
C1967 C 0.52896 0.35928 0.59706 0.0
H1968 H 0.60748 0.33703 0.60144 0.0
H1969 H 0.56285 0.28509 0.61218 0.0
H1970 H 0.57561 0.37775 0.61925 0.0
H1971 H 0.58275 0.37181 0.66117 0.0
H1972 H 0.60265 0.36996 0.62886 0.0
H1973 H 0.53133 0.28806 0.64295 0.0
H1974 H 0.52995 0.30909 0.67343 0.0
H1975 H 0.51919 0.31338 0.63292 0.0
H1976 H 0.52328 0.36615 0.73019 0.0
H1977 H 0.49937 0.38058 0.63287 0.0
H1978 H 0.57419 0.3461 0.70456 0.0
H1979 H 0.55539 0.32507 0.71175 0.0
H1980 H 0.5557 0.34797 0.73881 0.0
H1981 H 0.5451 0.36367 0.58785 0.0
H1982 H 0.51693 0.36949 0.58441 0.0
H1983 H 0.52604 0.34239 0.58997 0.0
C1984 C 0.07366 0.45502 0.27155 0.0
C1985 C 0.05198 0.44929 0.27273 0.0
C1986 C 0.07982 0.47599 0.26316 0.0
C1987 C 0.06389 0.4914 0.25598 0.0
C1988 C 0.042 0.48574 0.25812 0.0
C1989 C 0.03636 0.46478 0.26637 0.0
C1990 C 0.10329 0.48148 0.26113 0.0
C1991 C 0.02443 0.50174 0.25118 0.0
C1992 C 0.06729 0.55125 0.26029 0.0
C1993 C 0.06602 0.55654 0.22668 0.0
C1994 C 0.06942 0.52992 0.27033 0.0
C1995 C 0.06951 0.51358 0.24607 0.0
C1996 C 0.07021 0.5191 0.21198 0.0
C1997 C 0.06857 0.54067 0.20263 0.0
C1998 C 0.06923 0.5248 0.3069 0.0
C1999 C 0.0703 0.50216 0.18535 0.0
H2000 H 0.08579 0.44301 0.27625 0.0
H2001 H 0.01957 0.46047 0.26752 0.0
H2002 H 0.10783 0.48403 0.23484 0.0
H2003 H 0.10667 0.49657 0.2746 0.0
H2004 H 0.11354 0.46859 0.27148 0.0
H2005 H 0.00821 0.49472 0.25409 0.0
H2006 H 0.02584 0.51555 0.26829 0.0
H2007 H 0.02598 0.50796 0.22553 0.0
H2008 H 0.06538 0.5637 0.27877 0.0
H2009 H 0.06745 0.54492 0.17662 0.0
H2010 H 0.08043 0.51156 0.31263 0.0
H2011 H 0.05294 0.51958 0.31426 0.0
H2012 H 0.07364 0.53894 0.32211 0.0
H2013 H 0.08171 0.48919 0.19158 0.0
H2014 H 0.07458 0.50887 0.16072 0.0
H2015 H 0.05413 0.49492 0.18357 0.0
C2016 C 0.79459 0.8179 0.52843 0.0
C2017 C 0.8052 0.80236 0.50956 0.0
C2018 C 0.77264 0.82175 0.52379 0.0
C2019 C 0.76128 0.80976 0.49975 0.0
C2020 C 0.77241 0.79539 0.47886 0.0
C2021 C 0.7942 0.79183 0.48411 0.0
C2022 C 0.76138 0.83748 0.54612 0.0
C2023 C 0.76098 0.78247 0.45261 0.0
C2024 C 0.70552 0.78908 0.51352 0.0
C2025 C 0.69395 0.80032 0.48943 0.0
C2026 C 0.72718 0.79333 0.519 0.0
C2027 C 0.73757 0.80917 0.4998 0.0
C2028 C 0.72561 0.82172 0.4772 0.0
C2029 C 0.70383 0.81712 0.47222 0.0
C2030 C 0.73927 0.77971 0.54363 0.0
C2031 C 0.73607 0.839 0.45673 0.0
H2032 H 0.80314 0.82624 0.54791 0.0
H2033 H 0.80247 0.78014 0.46896 0.0
H2034 H 0.7493 0.84683 0.53213 0.0
H2035 H 0.75284 0.82864 0.56596 0.0
H2036 H 0.77282 0.8487 0.558 0.0
H2037 H 0.7723 0.77381 0.43617 0.0
H2038 H 0.75038 0.77056 0.4647 0.0
H2039 H 0.75078 0.79297 0.4371 0.0
H2040 H 0.69784 0.77637 0.52739 0.0
H2041 H 0.69485 0.82603 0.45385 0.0
H2042 H 0.74896 0.78989 0.56038 0.0
H2043 H 0.75043 0.76899 0.53018 0.0
H2044 H 0.72842 0.76968 0.55896 0.0
H2045 H 0.74773 0.84822 0.47175 0.0
H2046 H 0.72409 0.85021 0.44617 0.0
H2047 H 0.74497 0.83156 0.43593 0.0
C2048 C 0.41708 0.45205 0.73209 0.0
C2049 C 0.43852 0.44729 0.7252 0.0
C2050 C 0.41092 0.47303 0.74027 0.0
C2051 C 0.42661 0.48938 0.741 0.0
C2052 C 0.44798 0.48472 0.73177 0.0
C2053 C 0.45367 0.46369 0.72433 0.0
C2054 C 0.38803 0.47734 0.74999 0.0
C2055 C 0.46516 0.50175 0.73134 0.0
C2056 C 0.42128 0.54899 0.74128 0.0
C2057 C 0.42874 0.55346 0.7732 0.0
C2058 C 0.4175 0.52785 0.73138 0.0
C2059 C 0.42175 0.51103 0.75391 0.0
C2060 C 0.4268 0.5158 0.78736 0.0
C2061 C 0.43043 0.5371 0.79659 0.0
C2062 C 0.41161 0.52347 0.69577 0.0
C2063 C 0.43105 0.49833 0.81231 0.0
H2064 H 0.4054 0.43924 0.7329 0.0
H2065 H 0.47021 0.45995 0.71861 0.0
H2066 H 0.38681 0.47765 0.77742 0.0
H2067 H 0.38256 0.4931 0.74064 0.0
H2068 H 0.37709 0.46472 0.74058 0.0
H2069 H 0.48057 0.4957 0.72137 0.0
H2070 H 0.46 0.51554 0.716 0.0
H2071 H 0.46794 0.50771 0.75688 0.0
H2072 H 0.42006 0.56184 0.7233 0.0
H2073 H 0.43632 0.54075 0.82124 0.0
H2074 H 0.40054 0.50966 0.69387 0.0
H2075 H 0.4263 0.51949 0.68161 0.0
H2076 H 0.40402 0.53764 0.684 0.0
H2077 H 0.41902 0.48537 0.81002 0.0
H2078 H 0.43082 0.5045 0.83812 0.0
H2079 H 0.44703 0.49126 0.80748 0.0
C2080 C 0.7975 0.20092 0.01386 0.0
C2081 C 0.80746 0.19085 0.98697 0.0
C2082 C 0.77598 0.19709 0.02124 0.0
C2083 C 0.76407 0.18293 0.00105 0.0
C2084 C 0.77453 0.17122 0.97573 0.0
C2085 C 0.79622 0.17533 0.96895 0.0
C2086 C 0.76556 0.2097 0.0488 0.0
C2087 C 0.76247 0.15567 0.95413 0.0
C2088 C 0.70689 0.17555 0.03089 0.0
C2089 C 0.69671 0.19234 0.0141 0.0
C2090 C 0.72867 0.17112 0.02531 0.0
C2091 C 0.74034 0.18384 0.00255 0.0
C2092 C 0.72969 0.19985 0.98404 0.0
C2093 C 0.70806 0.20388 0.99007 0.0
C2094 C 0.73939 0.15368 0.04509 0.0
C2095 C 0.74144 0.21371 0.95931 0.0
H2096 H 0.80628 0.21259 0.02835 0.0
H2097 H 0.80397 0.16731 0.94836 0.0
H2098 H 0.75485 0.22201 0.03796 0.0
H2099 H 0.75562 0.19911 0.06457 0.0
H2100 H 0.77752 0.21788 0.06475 0.0
H2101 H 0.77346 0.14463 0.94089 0.0
H2102 H 0.75101 0.14611 0.96903 0.0
H2103 H 0.75312 0.16466 0.93537 0.0
H2104 H 0.69811 0.16643 0.04926 0.0
H2105 H 0.70018 0.21662 0.97654 0.0
H2106 H 0.74849 0.16095 0.06583 0.0
H2107 H 0.75091 0.14464 0.02956 0.0
H2108 H 0.72755 0.14233 0.05572 0.0
H2109 H 0.75313 0.224 0.97252 0.0
H2110 H 0.73045 0.22419 0.94502 0.0
H2111 H 0.75053 0.20365 0.94159 0.0
C2112 C 0.95681 0.45496 0.72951 0.0
C2113 C 0.94506 0.44302 0.75256 0.0
C2114 C 0.95344 0.47692 0.72582 0.0
C2115 C 0.938 0.48724 0.74585 0.0
C2116 C 0.92502 0.47505 0.76755 0.0
C2117 C 0.9287 0.45297 0.77067 0.0
C2118 C 0.96747 0.48928 0.70205 0.0
C2119 C 0.90821 0.48548 0.78897 0.0
C2120 C 0.95647 0.54319 0.76456 0.0
C2121 C 0.9459 0.55497 0.74001 0.0
C2122 C 0.95263 0.52132 0.76851 0.0
C2123 C 0.93795 0.51094 0.7472 0.0
C2124 C 0.92602 0.52305 0.72401 0.0
C2125 C 0.93013 0.54504 0.7207 0.0
C2126 C 0.96551 0.50904 0.79387 0.0
C2127 C 0.91004 0.51257 0.70117 0.0
H2128 H 0.9692 0.44726 0.71499 0.0
H2129 H 0.91945 0.44372 0.78831 0.0
H2130 H 0.9576 0.49975 0.68598 0.0
H2131 H 0.97852 0.49972 0.71626 0.0
H2132 H 0.97717 0.4786 0.686 0.0
H2133 H 0.8968 0.47358 0.79926 0.0
H2134 H 0.91609 0.49379 0.80997 0.0
H2135 H 0.89914 0.49765 0.77474 0.0
H2136 H 0.96838 0.55091 0.77999 0.0
H2137 H 0.92177 0.55417 0.70188 0.0
H2138 H 0.97724 0.49863 0.78098 0.0
H2139 H 0.95494 0.49856 0.80881 0.0
H2140 H 0.97439 0.5198 0.81092 0.0
H2141 H 0.91871 0.50407 0.68111 0.0
H2142 H 0.89917 0.52447 0.6896 0.0
H2143 H 0.90031 0.50056 0.71468 0.0
C2144 C 0.28532 0.19639 0.54396 0.0
C2145 C 0.30279 0.18728 0.52769 0.0
C2146 C 0.26446 0.19257 0.53288 0.0
C2147 C 0.26121 0.18003 0.50406 0.0
C2148 C 0.27876 0.1694 0.48919 0.0
C2149 C 0.29946 0.17305 0.50144 0.0
C2150 C 0.24612 0.20366 0.55012 0.0
C2151 C 0.27602 0.15602 0.45837 0.0
C2152 C 0.20282 0.17221 0.48158 0.0
C2153 C 0.19899 0.19107 0.46382 0.0
C2154 C 0.22344 0.16748 0.49337 0.0
C2155 C 0.24045 0.18175 0.48639 0.0
C2156 C 0.23685 0.19976 0.46581 0.0
C2157 C 0.21605 0.20441 0.45531 0.0
C2158 C 0.22655 0.14828 0.5155 0.0
C2159 C 0.25466 0.21504 0.45687 0.0
H2160 H 0.28808 0.20745 0.56422 0.0
H2161 H 0.31315 0.16626 0.48871 0.0
H2162 H 0.24075 0.21745 0.53491 0.0
H2163 H 0.23232 0.19265 0.55297 0.0
H2164 H 0.25078 0.20971 0.57499 0.0
H2165 H 0.28994 0.14531 0.45425 0.0
H2166 H 0.26127 0.1462 0.45973 0.0
H2167 H 0.2745 0.16675 0.43657 0.0
H2168 H 0.18947 0.16203 0.48836 0.0
H2169 H 0.21296 0.21893 0.44138 0.0
H2170 H 0.22693 0.15362 0.54172 0.0
H2171 H 0.24197 0.1402 0.51023 0.0
H2172 H 0.21334 0.13653 0.51268 0.0
H2173 H 0.25936 0.22435 0.47912 0.0
H2174 H 0.24982 0.22645 0.43714 0.0
H2175 H 0.26897 0.20612 0.44829 0.0
C2176 C 0.54342 0.54364 0.22499 0.0
C2177 C 0.55348 0.55465 0.25088 0.0
C2178 C 0.54646 0.52166 0.2207 0.0
C2179 C 0.55975 0.51038 0.24306 0.0
C2180 C 0.57123 0.52167 0.26774 0.0
C2181 C 0.56798 0.54379 0.27135 0.0
C2182 C 0.53415 0.5103 0.19371 0.0
C2183 C 0.58573 0.51022 0.29178 0.0
C2184 C 0.53803 0.4549 0.25693 0.0
C2185 C 0.55033 0.44279 0.2348 0.0
C2186 C 0.54203 0.47669 0.2616 0.0
C2187 C 0.55868 0.48667 0.24354 0.0
C2188 C 0.57208 0.47426 0.22279 0.0
C2189 C 0.56774 0.45236 0.21866 0.0
C2190 C 0.5275 0.48928 0.28429 0.0
C2191 C 0.59013 0.4843 0.20344 0.0
H2192 H 0.5325 0.55207 0.20871 0.0
H2193 H 0.57593 0.55232 0.29124 0.0
H2194 H 0.54486 0.49955 0.1795 0.0
H2195 H 0.52146 0.50026 0.20504 0.0
H2196 H 0.52649 0.52165 0.17617 0.0
H2197 H 0.59657 0.52148 0.30487 0.0
H2198 H 0.57588 0.50181 0.31059 0.0
H2199 H 0.59552 0.49799 0.27886 0.0
H2200 H 0.52478 0.44749 0.26993 0.0
H2201 H 0.57741 0.44299 0.20173 0.0
H2202 H 0.51751 0.50034 0.26934 0.0
H2203 H 0.53706 0.49914 0.30168 0.0
H2204 H 0.51672 0.47879 0.29895 0.0
H2205 H 0.58346 0.49327 0.18208 0.0
H2206 H 0.60145 0.47211 0.19379 0.0
H2207 H 0.5991 0.49586 0.219 0.0
C2208 C 0.21153 0.82492 0.03504 0.0
C2209 C 0.19779 0.81799 0.00991 0.0
C2210 C 0.23329 0.82843 0.02827 0.0
C2211 C 0.24106 0.82519 0.99563 0.0
C2212 C 0.2265 0.82104 0.96957 0.0
C2213 C 0.20504 0.81709 0.97716 0.0
C2214 C 0.24829 0.83301 0.05668 0.0
C2215 C 0.23397 0.81811 0.93427 0.0
C2216 C 0.30007 0.83058 0.9737 0.0
C2217 C 0.30685 0.80932 0.97718 0.0
C2218 C 0.27871 0.8363 0.98017 0.0
C2219 C 0.26401 0.82035 0.99028 0.0
C2220 C 0.2709 0.7989 0.99385 0.0
C2221 C 0.29218 0.7937 0.98729 0.0
C2222 C 0.27192 0.85933 0.97641 0.0
C2223 C 0.25572 0.78127 0.00418 0.0
H2224 H 0.20575 0.82568 0.06036 0.0
H2225 H 0.19416 0.81206 0.95772 0.0
H2226 H 0.25636 0.81796 0.06416 0.0
H2227 H 0.26086 0.84455 0.04919 0.0
H2228 H 0.23962 0.83945 0.07855 0.0
H2229 H 0.22054 0.81957 0.91639 0.0
H2230 H 0.24644 0.83002 0.92778 0.0
H2231 H 0.2411 0.80196 0.93151 0.0
H2232 H 0.31145 0.84272 0.96617 0.0
H2233 H 0.29729 0.77723 0.98995 0.0
H2234 H 0.26804 0.86605 0.00113 0.0
H2235 H 0.25725 0.86049 0.96105 0.0
H2236 H 0.28464 0.86931 0.96497 0.0
H2237 H 0.24812 0.78527 0.02824 0.0
H2238 H 0.26386 0.76557 0.00673 0.0
H2239 H 0.24278 0.77959 0.98555 0.0
C2240 C 0.55891 0.95565 0.73143 0.0
C2241 C 0.56575 0.94668 0.76137 0.0
C2242 C 0.56254 0.97721 0.72433 0.0
C2243 C 0.5729 0.99018 0.74815 0.0
C2244 C 0.58168 0.98071 0.77705 0.0
C2245 C 0.57808 0.95887 0.7833 0.0
C2246 C 0.55328 0.98651 0.69289 0.0
C2247 C 0.59308 0.99398 0.80277 0.0
C2248 C 0.57944 0.04796 0.72082 0.0
C2249 C 0.56008 0.0567 0.73202 0.0
C2250 C 0.5847 0.02653 0.72763 0.0
C2251 C 0.57018 0.01371 0.74587 0.0
C2252 C 0.55118 0.02286 0.7586 0.0
C2253 C 0.54638 0.04418 0.75149 0.0
C2254 C 0.60521 0.01739 0.71398 0.0
C2255 C 0.53525 0.00983 0.77831 0.0
H2256 H 0.54975 0.94601 0.71416 0.0
H2257 H 0.58349 0.9518 0.80637 0.0
H2258 H 0.53878 0.99595 0.699 0.0
H2259 H 0.56488 0.99745 0.68085 0.0
H2260 H 0.54872 0.97388 0.67486 0.0
H2261 H 0.6029 0.98389 0.81958 0.0
H2262 H 0.60354 0.00611 0.7909 0.0
H2263 H 0.5811 0.00264 0.81797 0.0
H2264 H 0.5902 0.05766 0.70606 0.0
H2265 H 0.53155 0.05091 0.76069 0.0
H2266 H 0.60161 0.00767 0.69168 0.0
H2267 H 0.613 0.00672 0.73235 0.0
H2268 H 0.61666 0.03017 0.70678 0.0
H2269 H 0.52805 0.99739 0.76215 0.0
H2270 H 0.52213 0.01979 0.78862 0.0
H2271 H 0.54336 0.00153 0.79909 0.0
C2272 C 0.29348 0.31995 0.02401 0.0
C2273 C 0.30111 0.30023 0.01242 0.0
C2274 C 0.27192 0.32573 0.0197 0.0
C2275 C 0.25782 0.31134 0.00371 0.0
C2276 C 0.26569 0.29177 0.99098 0.0
C2277 C 0.28721 0.2865 0.99547 0.0
C2278 C 0.26411 0.34682 0.03324 0.0
C2279 C 0.25121 0.27593 0.97372 0.0
C2280 C 0.19963 0.30352 0.0225 0.0
C2281 C 0.19027 0.31017 0.99272 0.0
C2282 C 0.22155 0.30611 0.02806 0.0
C2283 C 0.23442 0.31523 0.0029 0.0
C2284 C 0.22469 0.32393 0.97418 0.0
C2285 C 0.20256 0.32137 0.96946 0.0
C2286 C 0.23119 0.29703 0.05937 0.0
C2287 C 0.23785 0.33403 0.94702 0.0
H2288 H 0.30423 0.33072 0.03687 0.0
H2289 H 0.29303 0.27132 0.98617 0.0
H2290 H 0.25369 0.35502 0.01497 0.0
H2291 H 0.2544 0.34394 0.05582 0.0
H2292 H 0.27756 0.35762 0.03986 0.0
H2293 H 0.26013 0.26203 0.9636 0.0
H2294 H 0.23903 0.26989 0.99142 0.0
H2295 H 0.24257 0.28383 0.95306 0.0
H2296 H 0.18999 0.29526 0.04082 0.0
H2297 H 0.19526 0.32668 0.94651 0.0
H2298 H 0.24324 0.30813 0.06986 0.0
H2299 H 0.23946 0.28179 0.05351 0.0
H2300 H 0.21885 0.29377 0.07854 0.0
H2301 H 0.25082 0.34407 0.9575 0.0
H2302 H 0.22786 0.34399 0.93028 0.0
H2303 H 0.24546 0.32126 0.93199 0.0
C2304 C 0.9273 0.04424 0.26871 0.0
C2305 C 0.94371 0.05484 0.25163 0.0
C2306 C 0.92317 0.02248 0.26285 0.0
C2307 C 0.93576 0.01128 0.2394 0.0
C2308 C 0.95095 0.02248 0.22002 0.0
C2309 C 0.95479 0.0441 0.22648 0.0
C2310 C 0.90658 0.01115 0.28358 0.0
C2311 C 0.96451 0.01122 0.19441 0.0
C2312 C 0.95537 0.95537 0.25542 0.0
C2313 C 0.94451 0.94365 0.2311 0.0
C2314 C 0.95142 0.97715 0.25991 0.0
C2315 C 0.93632 0.98756 0.23938 0.0
C2316 C 0.92422 0.97555 0.21625 0.0
C2317 C 0.92845 0.95359 0.21239 0.0
C2318 C 0.96448 0.98927 0.28524 0.0
C2319 C 0.9078 0.98605 0.19423 0.0
H2320 H 0.9185 0.05258 0.28792 0.0
H2321 H 0.96718 0.05238 0.21269 0.0
H2322 H 0.89748 0.99945 0.26849 0.0
H2323 H 0.91466 0.00219 0.30374 0.0
H2324 H 0.89518 0.0226 0.29504 0.0
H2325 H 0.97349 0.02266 0.17857 0.0
H2326 H 0.97621 0.00066 0.20707 0.0
H2327 H 0.95444 0.00101 0.17825 0.0
H2328 H 0.96749 0.94762 0.27042 0.0
H2329 H 0.91991 0.9445 0.19375 0.0
H2330 H 0.95391 0.999 0.30134 0.0
H2331 H 0.97555 0.00039 0.27237 0.0
H2332 H 0.97411 0.97845 0.30121 0.0
H2333 H 0.89834 0.99805 0.2082 0.0
H2334 H 0.89671 0.97415 0.18316 0.0
H2335 H 0.91606 0.99457 0.17377 0.0
C2336 C 0.29418 0.67893 0.46685 0.0
C2337 C 0.30577 0.69272 0.48753 0.0
C2338 C 0.27208 0.67596 0.47155 0.0
C2339 C 0.26157 0.68696 0.49758 0.0
C2340 C 0.27364 0.69939 0.52013 0.0
C2341 C 0.29556 0.70219 0.51472 0.0
C2342 C 0.25979 0.66235 0.44726 0.0
C2343 C 0.26315 0.71116 0.54852 0.0
C2344 C 0.20631 0.71014 0.48704 0.0
C2345 C 0.19416 0.69749 0.50868 0.0
C2346 C 0.228 0.70593 0.48162 0.0
C2347 C 0.23787 0.68864 0.49832 0.0
C2348 C 0.22543 0.67501 0.5187 0.0
C2349 C 0.20364 0.67963 0.52371 0.0
C2350 C 0.24062 0.72081 0.45948 0.0
C2351 C 0.23534 0.65628 0.53659 0.0
H2352 H 0.30209 0.67145 0.44594 0.0
H2353 H 0.30457 0.71252 0.53117 0.0
H2354 H 0.24766 0.65246 0.46023 0.0
H2355 H 0.25117 0.67287 0.42959 0.0
H2356 H 0.27053 0.65168 0.43286 0.0
H2357 H 0.27506 0.71797 0.566 0.0
H2358 H 0.25327 0.72443 0.53859 0.0
H2359 H 0.25236 0.70033 0.56248 0.0
H2360 H 0.19902 0.72378 0.47493 0.0
H2361 H 0.19426 0.66967 0.54023 0.0
H2362 H 0.24988 0.71153 0.44095 0.0
H2363 H 0.25224 0.73 0.47462 0.0
H2364 H 0.2302 0.73233 0.44611 0.0
H2365 H 0.24635 0.6474 0.52 0.0
H2366 H 0.22302 0.64506 0.54618 0.0
H2367 H 0.24489 0.66221 0.55786 0.0
C2368 C 0.42963 0.04613 0.2268 0.0
C2369 C 0.44368 0.05745 0.24741 0.0
C2370 C 0.42624 0.02411 0.23152 0.0
C2371 C 0.43711 0.01339 0.25747 0.0
C2372 C 0.44973 0.02524 0.28007 0.0
C2373 C 0.45294 0.0471 0.27465 0.0
C2374 C 0.41241 0.01208 0.20721 0.0
C2375 C 0.46137 0.01451 0.30836 0.0
C2376 C 0.42948 0.95513 0.28165 0.0
C2377 C 0.44717 0.94575 0.26598 0.0
C2378 C 0.42506 0.97704 0.27763 0.0
C2379 C 0.43874 0.9897 0.25765 0.0
C2380 C 0.4559 0.97999 0.24043 0.0
C2381 C 0.45988 0.95818 0.24482 0.0
C2382 C 0.40645 0.98679 0.29602 0.0
C2383 C 0.47084 0.99285 0.2187 0.0
H2384 H 0.42228 0.05415 0.20588 0.0
H2385 H 0.46348 0.05591 0.29105 0.0
H2386 H 0.42277 0.00341 0.18939 0.0
H2387 H 0.40241 2e-05 0.22014 0.0
H2388 H 0.40182 0.023 0.19299 0.0
H2389 H 0.46815 0.02629 0.3261 0.0
H2390 H 0.45047 0.00365 0.32205 0.0
H2391 H 0.47466 0.00468 0.29837 0.0
H2392 H 0.41949 0.94554 0.29782 0.0
H2393 H 0.4734 0.95099 0.23223 0.0
H2394 H 0.39767 0.99823 0.28 0.0
H2395 H 0.4125 0.99582 0.31774 0.0
H2396 H 0.3951 0.97441 0.30504 0.0
H2397 H 0.46159 0.00228 0.20035 0.0
H2398 H 0.4824 0.98259 0.20513 0.0
H2399 H 0.47999 0.00431 0.23418 0.0
C2400 C 0.78498 0.69992 0.03418 0.0
C2401 C 0.80204 0.68674 0.02511 0.0
C2402 C 0.76413 0.69531 0.0239 0.0
C2403 C 0.76042 0.67746 0.00305 0.0
C2404 C 0.77744 0.66331 0.99553 0.0
C2405 C 0.79815 0.66804 0.00701 0.0
C2406 C 0.74635 0.71048 0.03337 0.0
C2407 C 0.7742 0.64426 0.97317 0.0
C2408 C 0.70127 0.66856 0.98938 0.0
C2409 C 0.6976 0.6828 0.96324 0.0
C2410 C 0.72212 0.66498 0.0011 0.0
C2411 C 0.73947 0.67575 0.98588 0.0
C2412 C 0.73585 0.6884 0.95726 0.0
C2413 C 0.71485 0.69211 0.94667 0.0
C2414 C 0.72524 0.65148 0.03171 0.0
C2415 C 0.75396 0.69969 0.93971 0.0
H2416 H 0.78811 0.71435 0.0483 0.0
H2417 H 0.8115 0.658 -0.00023 0.0
H2418 H 0.74141 0.71987 0.01131 0.0
H2419 H 0.73215 0.70147 0.04219 0.0
H2420 H 0.75133 0.72184 0.05309 0.0
H2421 H 0.78751 0.63258 0.97546 0.0
H2422 H 0.75889 0.63604 0.97873 0.0
H2423 H 0.7735 0.64978 0.94705 0.0
H2424 H 0.68775 0.6616 0.00234 0.0
H2425 H 0.71183 0.70319 0.92651 0.0
H2426 H 0.72711 0.66211 0.05354 0.0
H2427 H 0.73994 0.64163 0.02976 0.0
H2428 H 0.71135 0.64078 0.03621 0.0
H2429 H 0.75945 0.7134 0.95497 0.0
H2430 H 0.74901 0.70587 0.91505 0.0
H2431 H 0.76776 0.68876 0.93635 0.0
C2432 C 0.0518 0.04965 0.72306 0.0
C2433 C 0.06 0.05965 0.75139 0.0
C2434 C 0.05448 0.0277 0.71796 0.0
C2435 C 0.06543 0.01542 0.74202 0.0
C2436 C 0.07541 0.02574 0.76919 0.0
C2437 C 0.07261 0.04788 0.77354 0.0
C2438 C 0.04386 0.01742 0.68834 0.0
C2439 C 0.08748 0.01322 0.79509 0.0
C2440 C 0.0396 0.96133 0.75225 0.0
C2441 C 0.05275 0.94826 0.73277 0.0
C2442 C 0.04432 0.98297 0.75692 0.0
C2443 C 0.06272 0.99183 0.74175 0.0
C2444 C 0.07672 0.97851 0.72346 0.0
C2445 C 0.07152 0.9568 0.71907 0.0
C2446 C 0.02897 0.99657 0.77675 0.0
C2447 C 0.09663 0.98734 0.70731 0.0
H2448 H 0.0424 0.05884 0.70551 0.0
H2449 H 0.07913 0.05564 0.79534 0.0
H2450 H 0.05491 0.00601 0.6761 0.0
H2451 H 0.02964 0.00825 0.69669 0.0
H2452 H 0.03858 0.02943 0.66977 0.0
H2453 H 0.09787 0.02373 0.81038 0.0
H2454 H 0.07591 0.00514 0.81178 0.0
H2455 H 0.09748 0.00064 0.78345 0.0
H2456 H 0.0252 0.9548 0.7633 0.0
H2457 H 0.08187 0.94669 0.70426 0.0
H2458 H 0.02119 0.00842 0.76019 0.0
H2459 H 0.0377 0.0056 0.79616 0.0
H2460 H 0.01627 0.98691 0.78888 0.0
H2461 H 0.09209 0.9967 0.68504 0.0
H2462 H 0.10774 0.97443 0.69952 0.0
H2463 H 0.10517 0.9983 0.72439 0.0
C2464 C 0.69733 0.31494 0.4738 0.0
C2465 C 0.69066 0.31887 0.50634 0.0
C2466 C 0.7187 0.31783 0.46461 0.0
C2467 C 0.73372 0.32418 0.4889 0.0
C2468 C 0.72651 0.33075 0.52061 0.0
C2469 C 0.70487 0.32811 0.52898 0.0
C2470 C 0.72557 0.31139 0.43016 0.0
C2471 C 0.742 0.33799 0.54698 0.0
C2472 C 0.78378 0.29066 0.48666 0.0
C2473 C 0.79868 0.30454 0.47224 0.0
C2474 C 0.76281 0.29717 0.49272 0.0
C2475 C 0.75645 0.31819 0.48414 0.0
C2476 C 0.7714 0.33244 0.46974 0.0
C2477 C 0.79247 0.32543 0.46397 0.0
C2478 C 0.74735 0.28131 0.50789 0.0
C2479 C 0.76524 0.35502 0.46065 0.0
H2480 H 0.68611 0.30828 0.45608 0.0
H2481 H 0.69957 0.33136 0.55408 0.0
H2482 H 0.73809 0.32232 0.42054 0.0
H2483 H 0.73245 0.29503 0.43098 0.0
H2484 H 0.71189 0.31131 0.4126 0.0
H2485 H 0.73375 0.34675 0.56723 0.0
H2486 H 0.75001 0.32379 0.55786 0.0
H2487 H 0.75458 0.34841 0.53627 0.0
H2488 H 0.78847 0.2745 0.49314 0.0
H2489 H 0.80403 0.33628 0.45311 0.0
H2490 H 0.734 0.27817 0.49044 0.0
H2491 H 0.74036 0.28797 0.53096 0.0
H2492 H 0.7551 0.26581 0.51395 0.0
H2493 H 0.7499 0.35525 0.44683 0.0
H2494 H 0.77771 0.363 0.44542 0.0
H2495 H 0.76287 0.36448 0.4836 0.0
loop_
_geom_bond_atom_site_label_1
_geom_bond_atom_site_label_2
_geom_bond_distance
_geom_bond_site_symmetry_2
_ccdc_geom_bond_type
Co0 O1 2.216 . S
Co0 O2 2.091 . S
Co0 O4 2.004 . S
Co0 O10 2.021 . S
Co0 O12 2.137 . S
Co0 O13 2.244 . S
O1 Co0 2.216 . S
O1 C8 1.247 . S
O2 Co0 2.091 . S
O2 C8 1.261 . S
C3 O12 1.247 . S
C3 O13 1.272 . S
O4 Co0 2.004 . S
O4 C9 1.259 . S
Co5 O6 2.061 . S
Co5 O11 2.052 . S
Co5 O13 2.135 . S
O6 Co5 2.061 . S
O6 C9 1.235 . S
C7 O10 1.238 . S
C7 O11 1.241 . S
C8 O1 1.247 . S
C8 O2 1.261 . S
C9 O4 1.259 . S
C9 O6 1.235 . S
O10 Co0 2.021 . S
O10 C7 1.238 . S
O11 Co5 2.052 . S
O11 C7 1.241 . S
O12 Co0 2.137 . S
O12 C3 1.247 . S
O13 Co0 2.244 . S
O13 C3 1.272 . S
O13 Co5 2.135 . S
Co14 O15 2.216 . S
Co14 O16 2.091 . S
Co14 O18 2.004 . S
Co14 O24 2.021 . S
Co14 O26 2.137 . S
Co14 O27 2.244 . S
O15 Co14 2.216 . S
O15 C22 1.247 . S
O16 Co14 2.091 . S
O16 C22 1.261 . S
C17 O26 1.247 . S
C17 O27 1.272 . S
O18 Co14 2.004 . S
O18 C23 1.259 . S
Co19 O20 2.061 . S
Co19 O25 2.052 . S
Co19 O27 2.135 . S
O20 Co19 2.061 . S
O20 C23 1.235 . S
C21 O24 1.238 . S
C21 O25 1.241 . S
C22 O15 1.247 . S
C22 O16 1.261 . S
C23 O18 1.259 . S
C23 O20 1.235 . S
O24 Co14 2.021 . S
O24 C21 1.238 . S
O25 Co19 2.052 . S
O25 C21 1.241 . S
O26 Co14 2.137 . S
O26 C17 1.247 . S
O27 Co14 2.244 . S
O27 C17 1.272 . S
O27 Co19 2.135 . S
Co28 O29 2.216 . S
Co28 O30 2.091 . S
Co28 O32 2.004 . S
Co28 O38 2.021 . S
Co28 O40 2.137 . S
Co28 O41 2.244 . S
O29 Co28 2.216 . S
O29 C36 1.247 . S
O30 Co28 2.091 . S
O30 C36 1.261 . S
C31 O40 1.247 . S
C31 O41 1.272 . S
O32 Co28 2.004 . S
O32 C37 1.259 . S
Co33 O34 2.061 . S
Co33 O39 2.052 . S
Co33 O41 2.135 . S
O34 Co33 2.061 . S
O34 C37 1.235 . S
C35 O38 1.238 . S
C35 O39 1.241 . S
C36 O29 1.247 . S
C36 O30 1.261 . S
C37 O32 1.259 . S
C37 O34 1.235 . S
O38 Co28 2.021 . S
O38 C35 1.238 . S
O39 Co33 2.052 . S
O39 C35 1.241 . S
O40 Co28 2.137 . S
O40 C31 1.247 . S
O41 Co28 2.244 . S
O41 C31 1.272 . S
O41 Co33 2.135 . S
Co42 O43 2.216 . S
Co42 O44 2.091 . S
Co42 O46 2.004 . S
Co42 O52 2.021 . S
Co42 O54 2.137 . S
Co42 O55 2.244 . S
O43 Co42 2.216 . S
O43 C50 1.247 . S
O44 Co42 2.091 . S
O44 C50 1.261 . S
C45 O54 1.247 . S
C45 O55 1.272 . S
O46 Co42 2.004 . S
O46 C51 1.259 . S
Co47 O48 2.061 . S
Co47 O53 2.052 1_554 S
Co47 O55 2.135 . S
O48 Co47 2.061 . S
O48 C51 1.235 . S
C49 O52 1.238 1_556 S
C49 O53 1.241 . S
C50 O43 1.247 . S
C50 O44 1.261 . S
C51 O46 1.259 . S
C51 O48 1.235 . S
O52 Co42 2.021 . S
O52 C49 1.238 1_554 S
O53 Co47 2.052 1_556 S
O53 C49 1.241 . S
O54 Co42 2.137 . S
O54 C45 1.247 . S
O55 Co42 2.244 . S
O55 C45 1.272 . S
O55 Co47 2.135 . S
Co56 O57 2.216 . S
Co56 O58 2.091 . S
Co56 O60 2.004 . S
Co56 O66 2.021 . S
Co56 O68 2.137 . S
Co56 O69 2.244 . S
O57 Co56 2.216 . S
O57 C64 1.247 . S
O58 Co56 2.091 . S
O58 C64 1.261 . S
C59 O68 1.247 . S
C59 O69 1.272 . S
O60 Co56 2.004 . S
O60 C65 1.259 . S
Co61 O62 2.061 . S
Co61 O67 2.052 . S
Co61 O69 2.135 . S
O62 Co61 2.061 . S
O62 C65 1.235 . S
C63 O66 1.238 . S
C63 O67 1.241 . S
C64 O57 1.247 . S
C64 O58 1.261 . S
C65 O60 1.259 . S
C65 O62 1.235 . S
O66 Co56 2.021 . S
O66 C63 1.238 . S
O67 Co61 2.052 . S
O67 C63 1.241 . S
O68 Co56 2.137 . S
O68 C59 1.247 . S
O69 Co56 2.244 . S
O69 C59 1.272 . S
O69 Co61 2.135 . S
Co70 O71 2.216 . S
Co70 O72 2.091 . S
Co70 O74 2.004 . S
Co70 O80 2.021 . S
Co70 O82 2.137 . S
Co70 O83 2.244 . S
O71 Co70 2.216 . S
O71 C78 1.247 . S
O72 Co70 2.091 . S
O72 C78 1.261 . S
C73 O82 1.247 . S
C73 O83 1.272 . S
O74 Co70 2.004 . S
O74 C79 1.259 . S
Co75 O76 2.061 . S
Co75 O81 2.052 . S
Co75 O83 2.135 . S
O76 Co75 2.061 . S
O76 C79 1.235 . S
C77 O80 1.238 . S
C77 O81 1.241 . S
C78 O71 1.247 . S
C78 O72 1.261 . S
C79 O74 1.259 . S
C79 O76 1.235 . S
O80 Co70 2.021 . S
O80 C77 1.238 . S
O81 Co75 2.052 . S
O81 C77 1.241 . S
O82 Co70 2.137 . S
O82 C73 1.247 . S
O83 Co70 2.244 . S
O83 C73 1.272 . S
O83 Co75 2.135 . S
Co84 O85 2.216 . S
Co84 O86 2.091 . S
Co84 O88 2.004 . S
Co84 O94 2.021 . S
Co84 O96 2.137 . S
Co84 O97 2.244 . S
O85 Co84 2.216 . S
O85 C92 1.247 . S
O86 Co84 2.091 . S
O86 C92 1.261 . S
C87 O96 1.247 . S
C87 O97 1.272 . S
O88 Co84 2.004 . S
O88 C93 1.259 . S
Co89 O90 2.061 . S
Co89 O95 2.052 . S
Co89 O97 2.135 . S
O90 Co89 2.061 . S
O90 C93 1.235 . S
C91 O94 1.238 . S
C91 O95 1.241 . S
C92 O85 1.247 . S
C92 O86 1.261 . S
C93 O88 1.259 . S
C93 O90 1.235 . S
O94 Co84 2.021 . S
O94 C91 1.238 . S
O95 Co89 2.052 . S
O95 C91 1.241 . S
O96 Co84 2.137 . S
O96 C87 1.247 . S
O97 Co84 2.244 . S
O97 C87 1.272 . S
O97 Co89 2.135 . S
Co98 O99 2.216 . S
Co98 O100 2.091 . S
Co98 O102 2.004 . S
Co98 O108 2.021 . S
Co98 O110 2.137 . S
Co98 O111 2.244 . S
O99 Co98 2.216 . S
O99 C106 1.247 . S
O100 Co98 2.091 . S
O100 C106 1.261 . S
C101 O110 1.247 . S
C101 O111 1.272 . S
O102 Co98 2.004 . S
O102 C107 1.259 . S
Co103 O104 2.061 . S
Co103 O109 2.052 1_556 S
Co103 O111 2.135 . S
O104 Co103 2.061 . S
O104 C107 1.235 . S
C105 O108 1.238 1_554 S
C105 O109 1.241 . S
C106 O99 1.247 . S
C106 O100 1.261 . S
C107 O102 1.259 . S
C107 O104 1.235 . S
O108 Co98 2.021 . S
O108 C105 1.238 1_556 S
O109 Co103 2.052 1_554 S
O109 C105 1.241 . S
O110 Co98 2.137 . S
O110 C101 1.247 . S
O111 Co98 2.244 . S
O111 C101 1.272 . S
O111 Co103 2.135 . S
Co112 O113 2.216 . S
Co112 O114 2.091 . S
Co112 O116 2.004 . S
Co112 O122 2.021 . S
Co112 O124 2.137 . S
Co112 O125 2.244 . S
O113 Co112 2.216 . S
O113 C120 1.247 . S
O114 Co112 2.091 . S
O114 C120 1.261 . S
C115 O124 1.247 . S
C115 O125 1.272 . S
O116 Co112 2.004 . S
O116 C121 1.259 . S
Co117 O118 2.061 . S
Co117 O123 2.052 . S
Co117 O125 2.135 . S
O118 Co117 2.061 . S
O118 C121 1.235 . S
C119 O122 1.238 . S
C119 O123 1.241 . S
C120 O113 1.247 . S
C120 O114 1.261 . S
C121 O116 1.259 . S
C121 O118 1.235 . S
O122 Co112 2.021 . S
O122 C119 1.238 . S
O123 Co117 2.052 . S
O123 C119 1.241 . S
O124 Co112 2.137 . S
O124 C115 1.247 . S
O125 Co112 2.244 . S
O125 C115 1.272 . S
O125 Co117 2.135 . S
Co126 O127 2.216 . S
Co126 O128 2.091 . S
Co126 O130 2.004 . S
Co126 O136 2.021 . S
Co126 O138 2.137 . S
Co126 O139 2.244 . S
O127 Co126 2.216 . S
O127 C134 1.247 . S
O128 Co126 2.091 . S
O128 C134 1.261 . S
C129 O138 1.247 . S
C129 O139 1.272 . S
O130 Co126 2.004 . S
O130 C135 1.259 . S
Co131 O132 2.061 . S
Co131 O137 2.052 . S
Co131 O139 2.135 . S
O132 Co131 2.061 . S
O132 C135 1.235 . S
C133 O136 1.238 . S
C133 O137 1.241 . S
C134 O127 1.247 . S
C134 O128 1.261 . S
C135 O130 1.259 . S
C135 O132 1.235 . S
O136 Co126 2.021 . S
O136 C133 1.238 . S
O137 Co131 2.052 . S
O137 C133 1.241 . S
O138 Co126 2.137 . S
O138 C129 1.247 . S
O139 Co126 2.244 . S
O139 C129 1.272 . S
O139 Co131 2.135 . S
Co140 O141 2.216 . S
Co140 O142 2.091 . S
Co140 O144 2.004 . S
Co140 O150 2.021 . S
Co140 O152 2.137 . S
Co140 O153 2.244 . S
O141 Co140 2.216 . S
O141 C148 1.247 . S
O142 Co140 2.091 . S
O142 C148 1.261 . S
C143 O152 1.247 . S
C143 O153 1.272 . S
O144 Co140 2.004 . S
O144 C149 1.259 . S
Co145 O146 2.061 . S
Co145 O151 2.052 . S
Co145 O153 2.135 . S
O146 Co145 2.061 . S
O146 C149 1.235 . S
C147 O150 1.238 . S
C147 O151 1.241 . S
C148 O141 1.247 . S
C148 O142 1.261 . S
C149 O144 1.259 . S
C149 O146 1.235 . S
O150 Co140 2.021 . S
O150 C147 1.238 . S
O151 Co145 2.052 . S
O151 C147 1.241 . S
O152 Co140 2.137 . S
O152 C143 1.247 . S
O153 Co140 2.244 . S
O153 C143 1.272 . S
O153 Co145 2.135 . S
Co154 O155 2.216 . S
Co154 O156 2.091 . S
Co154 O158 2.004 . S
Co154 O164 2.021 . S
Co154 O166 2.137 . S
Co154 O167 2.244 . S
O155 Co154 2.216 . S
O155 C162 1.247 . S
O156 Co154 2.091 . S
O156 C162 1.261 . S
C157 O166 1.247 . S
C157 O167 1.272 . S
O158 Co154 2.004 . S
O158 C163 1.259 . S
Co159 O160 2.061 . S
Co159 O165 2.052 1_556 S
Co159 O167 2.135 . S
O160 Co159 2.061 . S
O160 C163 1.235 . S
C161 O164 1.238 1_554 S
C161 O165 1.241 . S
C162 O155 1.247 . S
C162 O156 1.261 . S
C163 O158 1.259 . S
C163 O160 1.235 . S
O164 Co154 2.021 . S
O164 C161 1.238 1_556 S
O165 Co159 2.052 1_554 S
O165 C161 1.241 . S
O166 Co154 2.137 . S
O166 C157 1.247 . S
O167 Co154 2.244 . S
O167 C157 1.272 . S
O167 Co159 2.135 . S
Co168 O169 2.216 . S
Co168 O170 2.091 . S
Co168 O172 2.004 . S
Co168 O178 2.021 . S
Co168 O180 2.137 . S
Co168 O181 2.244 . S
O169 Co168 2.216 . S
O169 C176 1.247 . S
O170 Co168 2.091 . S
O170 C176 1.261 . S
C171 O180 1.247 . S
C171 O181 1.272 . S
O172 Co168 2.004 . S
O172 C177 1.259 . S
Co173 O174 2.061 . S
Co173 O179 2.052 . S
Co173 O181 2.135 . S
O174 Co173 2.061 . S
O174 C177 1.235 . S
C175 O178 1.238 . S
C175 O179 1.241 . S
C176 O169 1.247 . S
C176 O170 1.261 . S
C177 O172 1.259 . S
C177 O174 1.235 . S
O178 Co168 2.021 . S
O178 C175 1.238 . S
O179 Co173 2.052 . S
O179 C175 1.241 . S
O180 Co168 2.137 . S
O180 C171 1.247 . S
O181 Co168 2.244 . S
O181 C171 1.272 . S
O181 Co173 2.135 . S
Co182 O183 2.216 . S
Co182 O184 2.091 . S
Co182 O186 2.004 . S
Co182 O192 2.021 . S
Co182 O194 2.137 . S
Co182 O195 2.244 . S
O183 Co182 2.216 . S
O183 C190 1.247 . S
O184 Co182 2.091 . S
O184 C190 1.261 . S
C185 O194 1.247 . S
C185 O195 1.272 . S
O186 Co182 2.004 . S
O186 C191 1.259 . S
Co187 O188 2.061 . S
Co187 O193 2.052 . S
Co187 O195 2.135 . S
O188 Co187 2.061 . S
O188 C191 1.235 . S
C189 O192 1.238 . S
C189 O193 1.241 . S
C190 O183 1.247 . S
C190 O184 1.261 . S
C191 O186 1.259 . S
C191 O188 1.235 . S
O192 Co182 2.021 . S
O192 C189 1.238 . S
O193 Co187 2.052 . S
O193 C189 1.241 . S
O194 Co182 2.137 . S
O194 C185 1.247 . S
O195 Co182 2.244 . S
O195 C185 1.272 . S
O195 Co187 2.135 . S
Co196 O197 2.216 . S
Co196 O198 2.091 . S
Co196 O200 2.004 . S
Co196 O206 2.021 . S
Co196 O208 2.137 . S
Co196 O209 2.244 . S
O197 Co196 2.216 . S
O197 C204 1.247 . S
O198 Co196 2.091 . S
O198 C204 1.261 . S
C199 O208 1.247 . S
C199 O209 1.272 . S
O200 Co196 2.004 . S
O200 C205 1.259 . S
Co201 O202 2.061 . S
Co201 O207 2.052 . S
Co201 O209 2.135 . S
O202 Co201 2.061 . S
O202 C205 1.235 . S
C203 O206 1.238 . S
C203 O207 1.241 . S
C204 O197 1.247 . S
C204 O198 1.261 . S
C205 O200 1.259 . S
C205 O202 1.235 . S
O206 Co196 2.021 . S
O206 C203 1.238 . S
O207 Co201 2.052 . S
O207 C203 1.241 . S
O208 Co196 2.137 . S
O208 C199 1.247 . S
O209 Co196 2.244 . S
O209 C199 1.272 . S
O209 Co201 2.135 . S
Co210 O211 2.216 . S
Co210 O212 2.091 . S
Co210 O214 2.004 . S
Co210 O220 2.021 . S
Co210 O222 2.137 . S
Co210 O223 2.244 . S
O211 Co210 2.216 . S
O211 C218 1.247 . S
O212 Co210 2.091 . S
O212 C218 1.261 . S
C213 O222 1.247 . S
C213 O223 1.272 . S
O214 Co210 2.004 . S
O214 C219 1.259 . S
Co215 O216 2.061 . S
Co215 O221 2.052 1_554 S
Co215 O223 2.135 . S
O216 Co215 2.061 . S
O216 C219 1.235 . S
C217 O220 1.238 1_556 S
C217 O221 1.241 . S
C218 O211 1.247 . S
C218 O212 1.261 . S
C219 O214 1.259 . S
C219 O216 1.235 . S
O220 Co210 2.021 . S
O220 C217 1.238 1_554 S
O221 Co215 2.052 1_556 S
O221 C217 1.241 . S
O222 Co210 2.137 . S
O222 C213 1.247 . S
O223 Co210 2.244 . S
O223 C213 1.272 . S
O223 Co215 2.135 . S
Co224 O225 2.216 . S
Co224 O226 2.091 . S
Co224 O228 2.004 . S
Co224 O234 2.021 . S
Co224 O236 2.137 . S
Co224 O237 2.244 . S
O225 Co224 2.216 . S
O225 C232 1.247 . S
O226 Co224 2.091 . S
O226 C232 1.261 . S
C227 O236 1.247 . S
C227 O237 1.272 . S
O228 Co224 2.004 . S
O228 C233 1.259 . S
Co229 O230 2.061 . S
Co229 O235 2.052 . S
Co229 O237 2.135 . S
O230 Co229 2.061 . S
O230 C233 1.235 . S
C231 O234 1.238 . S
C231 O235 1.241 . S
C232 O225 1.247 . S
C232 O226 1.261 . S
C233 O228 1.259 . S
C233 O230 1.235 . S
O234 Co224 2.021 . S
O234 C231 1.238 . S
O235 Co229 2.052 . S
O235 C231 1.241 . S
O236 Co224 2.137 . S
O236 C227 1.247 . S
O237 Co224 2.244 . S
O237 C227 1.272 . S
O237 Co229 2.135 . S
Co238 O239 2.216 . S
Co238 O240 2.091 . S
Co238 O242 2.004 . S
Co238 O248 2.021 . S
Co238 O250 2.137 . S
Co238 O251 2.244 . S
O239 Co238 2.216 . S
O239 C246 1.247 . S
O240 Co238 2.091 . S
O240 C246 1.261 . S
C241 O250 1.247 . S
C241 O251 1.272 . S
O242 Co238 2.004 . S
O242 C247 1.259 . S
Co243 O244 2.061 . S
Co243 O249 2.052 1_554 S
Co243 O251 2.135 . S
O244 Co243 2.061 . S
O244 C247 1.235 . S
C245 O248 1.238 1_556 S
C245 O249 1.241 . S
C246 O239 1.247 . S
C246 O240 1.261 . S
C247 O242 1.259 . S
C247 O244 1.235 . S
O248 Co238 2.021 . S
O248 C245 1.238 1_554 S
O249 Co243 2.052 1_556 S
O249 C245 1.241 . S
O250 Co238 2.137 . S
O250 C241 1.247 . S
O251 Co238 2.244 . S
O251 C241 1.272 . S
O251 Co243 2.135 . S
Co252 O253 2.216 . S
Co252 O254 2.091 . S
Co252 O256 2.004 . S
Co252 O262 2.021 . S
Co252 O264 2.137 . S
Co252 O265 2.244 . S
O253 Co252 2.216 . S
O253 C260 1.247 . S
O254 Co252 2.091 . S
O254 C260 1.261 . S
C255 O264 1.247 . S
C255 O265 1.272 . S
O256 Co252 2.004 . S
O256 C261 1.259 . S
Co257 O258 2.061 . S
Co257 O263 2.052 . S
Co257 O265 2.135 . S
O258 Co257 2.061 . S
O258 C261 1.235 . S
C259 O262 1.238 . S
C259 O263 1.241 . S
C260 O253 1.247 . S
C260 O254 1.261 . S
C261 O256 1.259 . S
C261 O258 1.235 . S
O262 Co252 2.021 . S
O262 C259 1.238 . S
O263 Co257 2.052 . S
O263 C259 1.241 . S
O264 Co252 2.137 . S
O264 C255 1.247 . S
O265 Co252 2.244 . S
O265 C255 1.272 . S
O265 Co257 2.135 . S
Co266 O267 2.216 . S
Co266 O268 2.091 . S
Co266 O270 2.004 . S
Co266 O276 2.021 . S
Co266 O278 2.137 . S
Co266 O279 2.244 . S
O267 Co266 2.216 . S
O267 C274 1.247 . S
O268 Co266 2.091 . S
O268 C274 1.261 . S
C269 O278 1.247 . S
C269 O279 1.272 . S
O270 Co266 2.004 . S
O270 C275 1.259 . S
Co271 O272 2.061 . S
Co271 O277 2.052 . S
Co271 O279 2.135 . S
O272 Co271 2.061 . S
O272 C275 1.235 . S
C273 O276 1.238 . S
C273 O277 1.241 . S
C274 O267 1.247 . S
C274 O268 1.261 . S
C275 O270 1.259 . S
C275 O272 1.235 . S
O276 Co266 2.021 . S
O276 C273 1.238 . S
O277 Co271 2.052 . S
O277 C273 1.241 . S
O278 Co266 2.137 . S
O278 C269 1.247 . S
O279 Co266 2.244 . S
O279 C269 1.272 . S
O279 Co271 2.135 . S
Co280 O281 2.216 . S
Co280 O282 2.091 . S
Co280 O284 2.004 . S
Co280 O290 2.021 . S
Co280 O292 2.137 . S
Co280 O293 2.244 . S
O281 Co280 2.216 . S
O281 C288 1.247 . S
O282 Co280 2.091 . S
O282 C288 1.261 . S
C283 O292 1.247 . S
C283 O293 1.272 . S
O284 Co280 2.004 . S
O284 C289 1.259 . S
Co285 O286 2.061 . S
Co285 O291 2.052 . S
Co285 O293 2.135 . S
O286 Co285 2.061 . S
O286 C289 1.235 . S
C287 O290 1.238 . S
C287 O291 1.241 . S
C288 O281 1.247 . S
C288 O282 1.261 . S
C289 O284 1.259 . S
C289 O286 1.235 . S
O290 Co280 2.021 . S
O290 C287 1.238 . S
O291 Co285 2.052 . S
O291 C287 1.241 . S
O292 Co280 2.137 . S
O292 C283 1.247 . S
O293 Co280 2.244 . S
O293 C283 1.272 . S
O293 Co285 2.135 . S
Co294 O295 2.216 . S
Co294 O296 2.091 . S
Co294 O298 2.004 . S
Co294 O304 2.021 . S
Co294 O306 2.137 . S
Co294 O307 2.244 . S
O295 Co294 2.216 . S
O295 C302 1.247 . S
O296 Co294 2.091 . S
O296 C302 1.261 . S
C297 O306 1.247 . S
C297 O307 1.272 . S
O298 Co294 2.004 . S
O298 C303 1.259 . S
Co299 O300 2.061 . S
Co299 O305 2.052 1_556 S
Co299 O307 2.135 . S
O300 Co299 2.061 . S
O300 C303 1.235 . S
C301 O304 1.238 1_554 S
C301 O305 1.241 . S
C302 O295 1.247 . S
C302 O296 1.261 . S
C303 O298 1.259 . S
C303 O300 1.235 . S
O304 Co294 2.021 . S
O304 C301 1.238 1_556 S
O305 Co299 2.052 1_554 S
O305 C301 1.241 . S
O306 Co294 2.137 . S
O306 C297 1.247 . S
O307 Co294 2.244 . S
O307 C297 1.272 . S
O307 Co299 2.135 . S
Co308 O309 2.216 . S
Co308 O310 2.091 . S
Co308 O312 2.004 . S
Co308 O318 2.021 . S
Co308 O320 2.137 . S
Co308 O321 2.244 . S
O309 Co308 2.216 . S
O309 C316 1.247 . S
O310 Co308 2.091 . S
O310 C316 1.261 . S
C311 O320 1.247 . S
C311 O321 1.272 . S
O312 Co308 2.004 . S
O312 C317 1.259 . S
Co313 O314 2.061 . S
Co313 O319 2.052 . S
Co313 O321 2.135 . S
O314 Co313 2.061 . S
O314 C317 1.235 . S
C315 O318 1.238 . S
C315 O319 1.241 . S
C316 O309 1.247 . S
C316 O310 1.261 . S
C317 O312 1.259 . S
C317 O314 1.235 . S
O318 Co308 2.021 . S
O318 C315 1.238 . S
O319 Co313 2.052 . S
O319 C315 1.241 . S
O320 Co308 2.137 . S
O320 C311 1.247 . S
O321 Co308 2.244 . S
O321 C311 1.272 . S
O321 Co313 2.135 . S
Co322 O323 2.216 . S
Co322 O324 2.091 . S
Co322 O326 2.004 . S
Co322 O332 2.021 . S
Co322 O334 2.137 . S
Co322 O335 2.244 . S
O323 Co322 2.216 . S
O323 C330 1.247 . S
O324 Co322 2.091 . S
O324 C330 1.261 . S
C325 O334 1.247 . S
C325 O335 1.272 . S
O326 Co322 2.004 . S
O326 C331 1.259 . S
Co327 O328 2.061 . S
Co327 O333 2.052 . S
Co327 O335 2.135 . S
O328 Co327 2.061 . S
O328 C331 1.235 . S
C329 O332 1.238 . S
C329 O333 1.241 . S
C330 O323 1.247 . S
C330 O324 1.261 . S
C331 O326 1.259 . S
C331 O328 1.235 . S
O332 Co322 2.021 . S
O332 C329 1.238 . S
O333 Co327 2.052 . S
O333 C329 1.241 . S
O334 Co322 2.137 . S
O334 C325 1.247 . S
O335 Co322 2.244 . S
O335 C325 1.272 . S
O335 Co327 2.135 . S
Co336 O337 2.216 . S
Co336 O338 2.091 . S
Co336 O340 2.004 . S
Co336 O346 2.021 . S
Co336 O348 2.137 . S
Co336 O349 2.244 . S
O337 Co336 2.216 . S
O337 C344 1.247 . S
O338 Co336 2.091 . S
O338 C344 1.261 . S
C339 O348 1.247 . S
C339 O349 1.272 . S
O340 Co336 2.004 . S
O340 C345 1.259 . S
Co341 O342 2.061 . S
Co341 O347 2.052 . S
Co341 O349 2.135 . S
O342 Co341 2.061 . S
O342 C345 1.235 . S
C343 O346 1.238 . S
C343 O347 1.241 . S
C344 O337 1.247 . S
C344 O338 1.261 . S
C345 O340 1.259 . S
C345 O342 1.235 . S
O346 Co336 2.021 . S
O346 C343 1.238 . S
O347 Co341 2.052 . S
O347 C343 1.241 . S
O348 Co336 2.137 . S
O348 C339 1.247 . S
O349 Co336 2.244 . S
O349 C339 1.272 . S
O349 Co341 2.135 . S
Co350 O351 2.216 . S
Co350 O352 2.091 . S
Co350 O354 2.004 . S
Co350 O360 2.021 . S
Co350 O362 2.137 . S
Co350 O363 2.244 . S
O351 Co350 2.216 . S
O351 C358 1.247 . S
O352 Co350 2.091 . S
O352 C358 1.261 . S
C353 O362 1.247 . S
C353 O363 1.272 . S
O354 Co350 2.004 . S
O354 C359 1.259 . S
Co355 O356 2.061 . S
Co355 O361 2.052 1_556 S
Co355 O363 2.135 . S
O356 Co355 2.061 . S
O356 C359 1.235 . S
C357 O360 1.238 1_554 S
C357 O361 1.241 . S
C358 O351 1.247 . S
C358 O352 1.261 . S
C359 O354 1.259 . S
C359 O356 1.235 . S
O360 Co350 2.021 . S
O360 C357 1.238 1_556 S
O361 Co355 2.052 1_554 S
O361 C357 1.241 . S
O362 Co350 2.137 . S
O362 C353 1.247 . S
O363 Co350 2.244 . S
O363 C353 1.272 . S
O363 Co355 2.135 . S
Co364 O365 2.216 . S
Co364 O366 2.091 . S
Co364 O368 2.004 . S
Co364 O374 2.021 . S
Co364 O376 2.137 . S
Co364 O377 2.244 . S
O365 Co364 2.216 . S
O365 C372 1.247 . S
O366 Co364 2.091 . S
O366 C372 1.261 . S
C367 O376 1.247 . S
C367 O377 1.272 . S
O368 Co364 2.004 . S
O368 C373 1.259 . S
Co369 O370 2.061 . S
Co369 O375 2.052 . S
Co369 O377 2.135 . S
O370 Co369 2.061 . S
O370 C373 1.235 . S
C371 O374 1.238 . S
C371 O375 1.241 . S
C372 O365 1.247 . S
C372 O366 1.261 . S
C373 O368 1.259 . S
C373 O370 1.235 . S
O374 Co364 2.021 . S
O374 C371 1.238 . S
O375 Co369 2.052 . S
O375 C371 1.241 . S
O376 Co364 2.137 . S
O376 C367 1.247 . S
O377 Co364 2.244 . S
O377 C367 1.272 . S
O377 Co369 2.135 . S
Co378 O379 2.216 . S
Co378 O380 2.091 . S
Co378 O382 2.004 . S
Co378 O388 2.021 . S
Co378 O390 2.137 . S
Co378 O391 2.244 . S
O379 Co378 2.216 . S
O379 C386 1.247 . S
O380 Co378 2.091 . S
O380 C386 1.261 . S
C381 O390 1.247 . S
C381 O391 1.272 . S
O382 Co378 2.004 . S
O382 C387 1.259 . S
Co383 O384 2.061 . S
Co383 O389 2.052 . S
Co383 O391 2.135 . S
O384 Co383 2.061 . S
O384 C387 1.235 . S
C385 O388 1.238 . S
C385 O389 1.241 . S
C386 O379 1.247 . S
C386 O380 1.261 . S
C387 O382 1.259 . S
C387 O384 1.235 . S
O388 Co378 2.021 . S
O388 C385 1.238 . S
O389 Co383 2.052 . S
O389 C385 1.241 . S
O390 Co378 2.137 . S
O390 C381 1.247 . S
O391 Co378 2.244 . S
O391 C381 1.272 . S
O391 Co383 2.135 . S
Co392 O393 2.216 . S
Co392 O394 2.091 . S
Co392 O396 2.004 . S
Co392 O402 2.021 . S
Co392 O404 2.137 . S
Co392 O405 2.244 . S
O393 Co392 2.216 . S
O393 C400 1.247 . S
O394 Co392 2.091 . S
O394 C400 1.261 . S
C395 O404 1.247 . S
C395 O405 1.272 . S
O396 Co392 2.004 . S
O396 C401 1.259 . S
Co397 O398 2.061 . S
Co397 O403 2.052 . S
Co397 O405 2.135 . S
O398 Co397 2.061 . S
O398 C401 1.235 . S
C399 O402 1.238 . S
C399 O403 1.241 . S
C400 O393 1.247 . S
C400 O394 1.261 . S
C401 O396 1.259 . S
C401 O398 1.235 . S
O402 Co392 2.021 . S
O402 C399 1.238 . S
O403 Co397 2.052 . S
O403 C399 1.241 . S
O404 Co392 2.137 . S
O404 C395 1.247 . S
O405 Co392 2.244 . S
O405 C395 1.272 . S
O405 Co397 2.135 . S
Co406 O407 2.216 . S
Co406 O408 2.091 . S
Co406 O410 2.004 . S
Co406 O416 2.021 . S
Co406 O418 2.137 . S
Co406 O419 2.244 . S
O407 Co406 2.216 . S
O407 C414 1.247 . S
O408 Co406 2.091 . S
O408 C414 1.261 . S
C409 O418 1.247 . S
C409 O419 1.272 . S
O410 Co406 2.004 . S
O410 C415 1.259 . S
Co411 O412 2.061 . S
Co411 O417 2.052 1_554 S
Co411 O419 2.135 . S
O412 Co411 2.061 . S
O412 C415 1.235 . S
C413 O416 1.238 1_556 S
C413 O417 1.241 . S
C414 O407 1.247 . S
C414 O408 1.261 . S
C415 O410 1.259 . S
C415 O412 1.235 . S
O416 Co406 2.021 . S
O416 C413 1.238 1_554 S
O417 Co411 2.052 1_556 S
O417 C413 1.241 . S
O418 Co406 2.137 . S
O418 C409 1.247 . S
O419 Co406 2.244 . S
O419 C409 1.272 . S
O419 Co411 2.135 . S
Co420 O421 2.216 . S
Co420 O422 2.091 . S
Co420 O424 2.004 . S
Co420 O430 2.021 . S
Co420 O432 2.137 . S
Co420 O433 2.244 . S
O421 Co420 2.216 . S
O421 C428 1.247 . S
O422 Co420 2.091 . S
O422 C428 1.261 . S
C423 O432 1.247 . S
C423 O433 1.272 . S
O424 Co420 2.004 . S
O424 C429 1.259 . S
Co425 O426 2.061 . S
Co425 O431 2.052 . S
Co425 O433 2.135 . S
O426 Co425 2.061 . S
O426 C429 1.235 . S
C427 O430 1.238 . S
C427 O431 1.241 . S
C428 O421 1.247 . S
C428 O422 1.261 . S
C429 O424 1.259 . S
C429 O426 1.235 . S
O430 Co420 2.021 . S
O430 C427 1.238 . S
O431 Co425 2.052 . S
O431 C427 1.241 . S
O432 Co420 2.137 . S
O432 C423 1.247 . S
O433 Co420 2.244 . S
O433 C423 1.272 . S
O433 Co425 2.135 . S
Co434 O435 2.216 . S
Co434 O436 2.091 . S
Co434 O438 2.004 . S
Co434 O444 2.021 . S
Co434 O446 2.137 . S
Co434 O447 2.244 . S
O435 Co434 2.216 . S
O435 C442 1.247 . S
O436 Co434 2.091 . S
O436 C442 1.261 . S
C437 O446 1.247 . S
C437 O447 1.272 . S
O438 Co434 2.004 . S
O438 C443 1.259 . S
Co439 O440 2.061 . S
Co439 O445 2.052 . S
Co439 O447 2.135 . S
O440 Co439 2.061 . S
O440 C443 1.235 . S
C441 O444 1.238 . S
C441 O445 1.241 . S
C442 O435 1.247 . S
C442 O436 1.261 . S
C443 O438 1.259 . S
C443 O440 1.235 . S
O444 Co434 2.021 . S
O444 C441 1.238 . S
O445 Co439 2.052 . S
O445 C441 1.241 . S
O446 Co434 2.137 . S
O446 C437 1.247 . S
O447 Co434 2.244 . S
O447 C437 1.272 . S
O447 Co439 2.135 . S
C448 C449 1.391 . S
C448 C450 1.394 . S
C448 H464 0.931 . S
C449 C448 1.391 . S
C449 C453 1.376 . S
C450 C448 1.394 . S
C450 C451 1.369 . S
C450 C454 1.531 . S
C451 C450 1.369 . S
C451 C452 1.410 . S
C451 C459 1.503 . S
C452 C451 1.410 . S
C452 C453 1.392 . S
C452 C455 1.511 . S
C453 C449 1.376 . S
C453 C452 1.392 . S
C453 H465 0.929 . S
C454 C450 1.531 . S
C454 H466 0.960 . S
C454 H467 0.962 . S
C454 H468 0.960 . S
C455 C452 1.511 . S
C455 H469 0.961 . S
C455 H470 0.961 . S
C455 H471 0.961 . S
C456 C457 1.370 . S
C456 C458 1.363 . S
C456 H472 0.931 . S
C457 C456 1.370 . S
C457 C461 1.408 . S
C458 C456 1.363 . S
C458 C459 1.370 . S
C458 C462 1.524 . S
C459 C451 1.503 . S
C459 C458 1.370 . S
C459 C460 1.403 . S
C460 C459 1.403 . S
C460 C461 1.404 . S
C460 C463 1.539 . S
C461 C457 1.408 . S
C461 C460 1.404 . S
C461 H473 0.930 . S
C462 C458 1.524 . S
C462 H474 0.956 . S
C462 H475 0.961 . S
C462 H476 0.961 . S
C463 C460 1.539 . S
C463 H477 0.958 . S
C463 H478 0.961 . S
C463 H479 0.960 . S
H464 C448 0.931 . S
H465 C453 0.929 . S
H466 C454 0.960 . S
H467 C454 0.962 . S
H468 C454 0.960 . S
H469 C455 0.961 . S
H470 C455 0.961 . S
H471 C455 0.961 . S
H472 C456 0.931 . S
H473 C461 0.930 . S
H474 C462 0.956 . S
H475 C462 0.961 . S
H476 C462 0.961 . S
H477 C463 0.958 . S
H478 C463 0.961 . S
H479 C463 0.960 . S
C480 C481 1.391 . S
C480 C482 1.394 . S
C480 H496 0.931 . S
C481 C480 1.391 . S
C481 C485 1.376 . S
C482 C480 1.394 . S
C482 C483 1.369 . S
C482 C486 1.531 . S
C483 C482 1.369 . S
C483 C484 1.410 . S
C483 C491 1.503 . S
C484 C483 1.410 . S
C484 C485 1.392 . S
C484 C487 1.511 . S
C485 C481 1.376 . S
C485 C484 1.392 . S
C485 H497 0.929 . S
C486 C482 1.531 . S
C486 H498 0.960 . S
C486 H499 0.962 . S
C486 H500 0.960 . S
C487 C484 1.511 . S
C487 H501 0.961 . S
C487 H502 0.961 . S
C487 H503 0.961 . S
C488 C489 1.370 . S
C488 C490 1.363 . S
C488 H504 0.931 . S
C489 C488 1.370 . S
C489 C493 1.408 . S
C490 C488 1.363 . S
C490 C491 1.370 . S
C490 C494 1.524 . S
C491 C483 1.503 . S
C491 C490 1.370 . S
C491 C492 1.403 . S
C492 C491 1.403 . S
C492 C493 1.404 . S
C492 C495 1.539 . S
C493 C489 1.408 . S
C493 C492 1.404 . S
C493 H505 0.930 . S
C494 C490 1.524 . S
C494 H506 0.956 . S
C494 H507 0.961 . S
C494 H508 0.961 . S
C495 C492 1.539 . S
C495 H509 0.958 . S
C495 H510 0.961 . S
C495 H511 0.960 . S
H496 C480 0.931 . S
H497 C485 0.929 . S
H498 C486 0.960 . S
H499 C486 0.962 . S
H500 C486 0.960 . S
H501 C487 0.961 . S
H502 C487 0.961 . S
H503 C487 0.961 . S
H504 C488 0.931 . S
H505 C493 0.930 . S
H506 C494 0.956 . S
H507 C494 0.961 . S
H508 C494 0.961 . S
H509 C495 0.958 . S
H510 C495 0.961 . S
H511 C495 0.960 . S
C512 C513 1.391 . S
C512 C514 1.394 . S
C512 H528 0.931 . S
C513 C512 1.391 . S
C513 C517 1.376 . S
C514 C512 1.394 . S
C514 C515 1.369 . S
C514 C518 1.531 . S
C515 C514 1.369 . S
C515 C516 1.410 . S
C515 C523 1.503 . S
C516 C515 1.410 . S
C516 C517 1.392 . S
C516 C519 1.511 . S
C517 C513 1.376 . S
C517 C516 1.392 . S
C517 H529 0.929 . S
C518 C514 1.531 . S
C518 H530 0.960 . S
C518 H531 0.962 . S
C518 H532 0.960 . S
C519 C516 1.511 . S
C519 H533 0.961 . S
C519 H534 0.961 . S
C519 H535 0.961 . S
C520 C521 1.370 . S
C520 C522 1.363 . S
C520 H536 0.931 . S
C521 C520 1.370 . S
C521 C525 1.408 . S
C522 C520 1.363 . S
C522 C523 1.370 . S
C522 C526 1.524 . S
C523 C515 1.503 . S
C523 C522 1.370 . S
C523 C524 1.403 . S
C524 C523 1.403 . S
C524 C525 1.404 . S
C524 C527 1.539 . S
C525 C521 1.408 . S
C525 C524 1.404 . S
C525 H537 0.930 . S
C526 C522 1.524 . S
C526 H538 0.956 . S
C526 H539 0.961 . S
C526 H540 0.961 . S
C527 C524 1.539 . S
C527 H541 0.958 . S
C527 H542 0.961 . S
C527 H543 0.960 . S
H528 C512 0.931 . S
H529 C517 0.929 . S
H530 C518 0.960 . S
H531 C518 0.962 . S
H532 C518 0.960 . S
H533 C519 0.961 . S
H534 C519 0.961 . S
H535 C519 0.961 . S
H536 C520 0.931 . S
H537 C525 0.930 . S
H538 C526 0.956 . S
H539 C526 0.961 . S
H540 C526 0.961 . S
H541 C527 0.958 . S
H542 C527 0.961 . S
H543 C527 0.960 . S
C544 C545 1.391 . S
C544 C546 1.394 . S
C544 H560 0.931 . S
C545 C544 1.391 . S
C545 C549 1.376 . S
C546 C544 1.394 . S
C546 C547 1.369 . S
C546 C550 1.531 . S
C547 C546 1.369 . S
C547 C548 1.410 . S
C547 C555 1.503 . S
C548 C547 1.410 . S
C548 C549 1.392 . S
C548 C551 1.511 . S
C549 C545 1.376 . S
C549 C548 1.392 . S
C549 H561 0.929 . S
C550 C546 1.531 . S
C550 H562 0.960 . S
C550 H563 0.962 . S
C550 H564 0.960 . S
C551 C548 1.511 . S
C551 H565 0.961 . S
C551 H566 0.961 . S
C551 H567 0.961 . S
C552 C553 1.370 . S
C552 C554 1.363 . S
C552 H568 0.931 . S
C553 C552 1.370 . S
C553 C557 1.408 . S
C554 C552 1.363 . S
C554 C555 1.370 . S
C554 C558 1.524 . S
C555 C547 1.503 . S
C555 C554 1.370 . S
C555 C556 1.403 . S
C556 C555 1.403 . S
C556 C557 1.404 . S
C556 C559 1.539 . S
C557 C553 1.408 . S
C557 C556 1.404 . S
C557 H569 0.930 . S
C558 C554 1.524 . S
C558 H570 0.956 . S
C558 H571 0.961 . S
C558 H572 0.961 . S
C559 C556 1.539 . S
C559 H573 0.958 . S
C559 H574 0.961 . S
C559 H575 0.960 . S
H560 C544 0.931 . S
H561 C549 0.929 . S
H562 C550 0.960 . S
H563 C550 0.962 . S
H564 C550 0.960 . S
H565 C551 0.961 . S
H566 C551 0.961 . S
H567 C551 0.961 . S
H568 C552 0.931 . S
H569 C557 0.930 . S
H570 C558 0.956 . S
H571 C558 0.961 . S
H572 C558 0.961 . S
H573 C559 0.958 . S
H574 C559 0.961 . S
H575 C559 0.960 . S
C576 C577 1.391 . S
C576 C578 1.394 . S
C576 H592 0.931 . S
C577 C576 1.391 . S
C577 C581 1.376 . S
C578 C576 1.394 . S
C578 C579 1.369 . S
C578 C582 1.531 . S
C579 C578 1.369 . S
C579 C580 1.410 . S
C579 C587 1.503 . S
C580 C579 1.410 . S
C580 C581 1.392 . S
C580 C583 1.511 . S
C581 C577 1.376 . S
C581 C580 1.392 . S
C581 H593 0.929 . S
C582 C578 1.531 . S
C582 H594 0.960 . S
C582 H595 0.962 . S
C582 H596 0.960 . S
C583 C580 1.511 . S
C583 H597 0.961 . S
C583 H598 0.961 . S
C583 H599 0.961 . S
C584 C585 1.370 . S
C584 C586 1.363 . S
C584 H600 0.931 . S
C585 C584 1.370 . S
C585 C589 1.408 . S
C586 C584 1.363 . S
C586 C587 1.370 . S
C586 C590 1.524 . S
C587 C579 1.503 . S
C587 C586 1.370 . S
C587 C588 1.403 . S
C588 C587 1.403 . S
C588 C589 1.404 . S
C588 C591 1.539 . S
C589 C585 1.408 . S
C589 C588 1.404 . S
C589 H601 0.930 . S
C590 C586 1.524 . S
C590 H602 0.956 . S
C590 H603 0.961 . S
C590 H604 0.961 . S
C591 C588 1.539 . S
C591 H605 0.958 . S
C591 H606 0.961 . S
C591 H607 0.960 . S
H592 C576 0.931 . S
H593 C581 0.929 . S
H594 C582 0.960 . S
H595 C582 0.962 . S
H596 C582 0.960 . S
H597 C583 0.961 . S
H598 C583 0.961 . S
H599 C583 0.961 . S
H600 C584 0.931 . S
H601 C589 0.930 . S
H602 C590 0.956 . S
H603 C590 0.961 . S
H604 C590 0.961 . S
H605 C591 0.958 . S
H606 C591 0.961 . S
H607 C591 0.960 . S
C608 C609 1.391 . S
C608 C610 1.394 . S
C608 H624 0.931 . S
C609 C608 1.391 . S
C609 C613 1.376 . S
C610 C608 1.394 . S
C610 C611 1.369 . S
C610 C614 1.531 . S
C611 C610 1.369 . S
C611 C612 1.410 . S
C611 C619 1.503 . S
C612 C611 1.410 . S
C612 C613 1.392 . S
C612 C615 1.511 . S
C613 C609 1.376 . S
C613 C612 1.392 . S
C613 H625 0.929 . S
C614 C610 1.531 . S
C614 H626 0.960 . S
C614 H627 0.962 . S
C614 H628 0.960 . S
C615 C612 1.511 . S
C615 H629 0.961 . S
C615 H630 0.961 . S
C615 H631 0.961 . S
C616 C617 1.370 . S
C616 C618 1.363 . S
C616 H632 0.931 . S
C617 C616 1.370 . S
C617 C621 1.408 . S
C618 C616 1.363 . S
C618 C619 1.370 . S
C618 C622 1.524 . S
C619 C611 1.503 . S
C619 C618 1.370 . S
C619 C620 1.403 . S
C620 C619 1.403 . S
C620 C621 1.404 . S
C620 C623 1.539 . S
C621 C617 1.408 . S
C621 C620 1.404 . S
C621 H633 0.930 . S
C622 C618 1.524 . S
C622 H634 0.956 . S
C622 H635 0.961 . S
C622 H636 0.961 . S
C623 C620 1.539 . S
C623 H637 0.958 . S
C623 H638 0.961 . S
C623 H639 0.960 . S
H624 C608 0.931 . S
H625 C613 0.929 . S
H626 C614 0.960 . S
H627 C614 0.962 . S
H628 C614 0.960 . S
H629 C615 0.961 . S
H630 C615 0.961 . S
H631 C615 0.961 . S
H632 C616 0.931 . S
H633 C621 0.930 . S
H634 C622 0.956 . S
H635 C622 0.961 . S
H636 C622 0.961 . S
H637 C623 0.958 . S
H638 C623 0.961 . S
H639 C623 0.960 . S
C640 C641 1.391 . S
C640 C642 1.394 . S
C640 H656 0.931 . S
C641 C640 1.391 . S
C641 C645 1.376 . S
C642 C640 1.394 . S
C642 C643 1.369 . S
C642 C646 1.531 . S
C643 C642 1.369 . S
C643 C644 1.410 . S
C643 C651 1.503 . S
C644 C643 1.410 . S
C644 C645 1.392 . S
C644 C647 1.511 . S
C645 C641 1.376 . S
C645 C644 1.392 . S
C645 H657 0.929 . S
C646 C642 1.531 . S
C646 H658 0.960 . S
C646 H659 0.962 . S
C646 H660 0.960 . S
C647 C644 1.511 . S
C647 H661 0.961 . S
C647 H662 0.961 . S
C647 H663 0.961 . S
C648 C649 1.370 . S
C648 C650 1.363 . S
C648 H664 0.931 . S
C649 C648 1.370 . S
C649 C653 1.408 . S
C650 C648 1.363 . S
C650 C651 1.370 . S
C650 C654 1.524 . S
C651 C643 1.503 . S
C651 C650 1.370 . S
C651 C652 1.403 . S
C652 C651 1.403 . S
C652 C653 1.404 . S
C652 C655 1.539 . S
C653 C649 1.408 . S
C653 C652 1.404 . S
C653 H665 0.930 . S
C654 C650 1.524 . S
C654 H666 0.956 . S
C654 H667 0.961 . S
C654 H668 0.961 . S
C655 C652 1.539 . S
C655 H669 0.958 . S
C655 H670 0.961 . S
C655 H671 0.960 . S
H656 C640 0.931 . S
H657 C645 0.929 . S
H658 C646 0.960 . S
H659 C646 0.962 . S
H660 C646 0.960 . S
H661 C647 0.961 . S
H662 C647 0.961 . S
H663 C647 0.961 . S
H664 C648 0.931 . S
H665 C653 0.930 . S
H666 C654 0.956 . S
H667 C654 0.961 . S
H668 C654 0.961 . S
H669 C655 0.958 . S
H670 C655 0.961 . S
H671 C655 0.960 . S
C672 C673 1.391 . S
C672 C674 1.394 . S
C672 H688 0.931 . S
C673 C672 1.391 . S
C673 C677 1.376 . S
C674 C672 1.394 . S
C674 C675 1.369 . S
C674 C678 1.531 . S
C675 C674 1.369 . S
C675 C676 1.410 . S
C675 C683 1.503 . S
C676 C675 1.410 . S
C676 C677 1.392 . S
C676 C679 1.511 . S
C677 C673 1.376 . S
C677 C676 1.392 . S
C677 H689 0.929 . S
C678 C674 1.531 . S
C678 H690 0.960 . S
C678 H691 0.962 . S
C678 H692 0.960 . S
C679 C676 1.511 . S
C679 H693 0.961 . S
C679 H694 0.961 . S
C679 H695 0.961 . S
C680 C681 1.370 . S
C680 C682 1.363 . S
C680 H696 0.931 . S
C681 C680 1.370 . S
C681 C685 1.408 . S
C682 C680 1.363 . S
C682 C683 1.370 . S
C682 C686 1.524 . S
C683 C675 1.503 . S
C683 C682 1.370 . S
C683 C684 1.403 . S
C684 C683 1.403 . S
C684 C685 1.404 . S
C684 C687 1.539 . S
C685 C681 1.408 . S
C685 C684 1.404 . S
C685 H697 0.930 . S
C686 C682 1.524 . S
C686 H698 0.956 . S
C686 H699 0.961 . S
C686 H700 0.961 . S
C687 C684 1.539 . S
C687 H701 0.958 . S
C687 H702 0.961 . S
C687 H703 0.960 . S
H688 C672 0.931 . S
H689 C677 0.929 . S
H690 C678 0.960 . S
H691 C678 0.962 . S
H692 C678 0.960 . S
H693 C679 0.961 . S
H694 C679 0.961 . S
H695 C679 0.961 . S
H696 C680 0.931 . S
H697 C685 0.930 . S
H698 C686 0.956 . S
H699 C686 0.961 . S
H700 C686 0.961 . S
H701 C687 0.958 . S
H702 C687 0.961 . S
H703 C687 0.960 . S
C704 C705 1.391 . S
C704 C706 1.394 . S
C704 H720 0.931 . S
C705 C704 1.391 . S
C705 C709 1.376 . S
C706 C704 1.394 . S
C706 C707 1.369 . S
C706 C710 1.531 . S
C707 C706 1.369 . S
C707 C708 1.410 . S
C707 C715 1.503 . S
C708 C707 1.410 . S
C708 C709 1.392 . S
C708 C711 1.511 . S
C709 C705 1.376 . S
C709 C708 1.392 . S
C709 H721 0.929 . S
C710 C706 1.531 . S
C710 H722 0.960 . S
C710 H723 0.962 . S
C710 H724 0.960 . S
C711 C708 1.511 . S
C711 H725 0.961 . S
C711 H726 0.961 . S
C711 H727 0.961 . S
C712 C713 1.370 . S
C712 C714 1.363 . S
C712 H728 0.931 . S
C713 C712 1.370 . S
C713 C717 1.408 . S
C714 C712 1.363 . S
C714 C715 1.370 . S
C714 C718 1.524 . S
C715 C707 1.503 . S
C715 C714 1.370 . S
C715 C716 1.403 . S
C716 C715 1.403 . S
C716 C717 1.404 . S
C716 C719 1.539 . S
C717 C713 1.408 . S
C717 C716 1.404 . S
C717 H729 0.930 . S
C718 C714 1.524 . S
C718 H730 0.956 . S
C718 H731 0.961 . S
C718 H732 0.961 . S
C719 C716 1.539 . S
C719 H733 0.958 . S
C719 H734 0.961 . S
C719 H735 0.960 . S
H720 C704 0.931 . S
H721 C709 0.929 . S
H722 C710 0.960 . S
H723 C710 0.962 . S
H724 C710 0.960 . S
H725 C711 0.961 . S
H726 C711 0.961 . S
H727 C711 0.961 . S
H728 C712 0.931 . S
H729 C717 0.930 . S
H730 C718 0.956 . S
H731 C718 0.961 . S
H732 C718 0.961 . S
H733 C719 0.958 . S
H734 C719 0.961 . S
H735 C719 0.960 . S
C736 C737 1.391 . S
C736 C738 1.394 . S
C736 H752 0.931 . S
C737 C736 1.391 . S
C737 C741 1.376 . S
C738 C736 1.394 . S
C738 C739 1.369 . S
C738 C742 1.531 . S
C739 C738 1.369 . S
C739 C740 1.410 . S
C739 C747 1.503 . S
C740 C739 1.410 . S
C740 C741 1.392 . S
C740 C743 1.511 . S
C741 C737 1.376 . S
C741 C740 1.392 . S
C741 H753 0.929 . S
C742 C738 1.531 . S
C742 H754 0.960 . S
C742 H755 0.962 . S
C742 H756 0.960 . S
C743 C740 1.511 . S
C743 H757 0.961 . S
C743 H758 0.961 . S
C743 H759 0.961 . S
C744 C745 1.370 . S
C744 C746 1.363 . S
C744 H760 0.931 . S
C745 C744 1.370 . S
C745 C749 1.408 . S
C746 C744 1.363 . S
C746 C747 1.370 . S
C746 C750 1.524 . S
C747 C739 1.503 . S
C747 C746 1.370 . S
C747 C748 1.403 . S
C748 C747 1.403 . S
C748 C749 1.404 . S
C748 C751 1.539 . S
C749 C745 1.408 . S
C749 C748 1.404 . S
C749 H761 0.930 . S
C750 C746 1.524 . S
C750 H762 0.956 . S
C750 H763 0.961 . S
C750 H764 0.961 . S
C751 C748 1.539 . S
C751 H765 0.958 . S
C751 H766 0.961 . S
C751 H767 0.960 . S
H752 C736 0.931 . S
H753 C741 0.929 . S
H754 C742 0.960 . S
H755 C742 0.962 . S
H756 C742 0.960 . S
H757 C743 0.961 . S
H758 C743 0.961 . S
H759 C743 0.961 . S
H760 C744 0.931 . S
H761 C749 0.930 . S
H762 C750 0.956 . S
H763 C750 0.961 . S
H764 C750 0.961 . S
H765 C751 0.958 . S
H766 C751 0.961 . S
H767 C751 0.960 . S
C768 C769 1.391 . S
C768 C770 1.394 . S
C768 H784 0.931 . S
C769 C768 1.391 . S
C769 C773 1.376 . S
C770 C768 1.394 . S
C770 C771 1.369 . S
C770 C774 1.531 . S
C771 C770 1.369 . S
C771 C772 1.410 . S
C771 C779 1.503 . S
C772 C771 1.410 . S
C772 C773 1.392 . S
C772 C775 1.511 . S
C773 C769 1.376 . S
C773 C772 1.392 . S
C773 H785 0.929 . S
C774 C770 1.531 . S
C774 H786 0.960 . S
C774 H787 0.962 . S
C774 H788 0.960 . S
C775 C772 1.511 . S
C775 H789 0.961 . S
C775 H790 0.961 . S
C775 H791 0.961 . S
C776 C777 1.370 . S
C776 C778 1.363 . S
C776 H792 0.931 . S
C777 C776 1.370 . S
C777 C781 1.408 . S
C778 C776 1.363 . S
C778 C779 1.370 . S
C778 C782 1.524 . S
C779 C771 1.503 . S
C779 C778 1.370 . S
C779 C780 1.403 . S
C780 C779 1.403 . S
C780 C781 1.404 . S
C780 C783 1.539 . S
C781 C777 1.408 . S
C781 C780 1.404 . S
C781 H793 0.930 . S
C782 C778 1.524 . S
C782 H794 0.956 . S
C782 H795 0.961 . S
C782 H796 0.961 . S
C783 C780 1.539 . S
C783 H797 0.958 . S
C783 H798 0.961 . S
C783 H799 0.960 . S
H784 C768 0.931 . S
H785 C773 0.929 . S
H786 C774 0.960 . S
H787 C774 0.962 . S
H788 C774 0.960 . S
H789 C775 0.961 . S
H790 C775 0.961 . S
H791 C775 0.961 . S
H792 C776 0.931 . S
H793 C781 0.930 . S
H794 C782 0.956 . S
H795 C782 0.961 . S
H796 C782 0.961 . S
H797 C783 0.958 . S
H798 C783 0.961 . S
H799 C783 0.960 . S
C800 C801 1.391 . S
C800 C802 1.394 . S
C800 H816 0.931 . S
C801 C800 1.391 . S
C801 C805 1.376 . S
C802 C800 1.394 . S
C802 C803 1.369 . S
C802 C806 1.531 . S
C803 C802 1.369 . S
C803 C804 1.410 . S
C803 C811 1.503 . S
C804 C803 1.410 . S
C804 C805 1.392 . S
C804 C807 1.511 . S
C805 C801 1.376 . S
C805 C804 1.392 . S
C805 H817 0.929 . S
C806 C802 1.531 . S
C806 H818 0.960 . S
C806 H819 0.962 . S
C806 H820 0.960 . S
C807 C804 1.511 . S
C807 H821 0.961 . S
C807 H822 0.961 . S
C807 H823 0.961 . S
C808 C809 1.370 . S
C808 C810 1.363 . S
C808 H824 0.931 . S
C809 C808 1.370 . S
C809 C813 1.408 . S
C810 C808 1.363 . S
C810 C811 1.370 . S
C810 C814 1.524 . S
C811 C803 1.503 . S
C811 C810 1.370 . S
C811 C812 1.403 . S
C812 C811 1.403 . S
C812 C813 1.404 . S
C812 C815 1.539 . S
C813 C809 1.408 . S
C813 C812 1.404 . S
C813 H825 0.930 . S
C814 C810 1.524 . S
C814 H826 0.956 . S
C814 H827 0.961 . S
C814 H828 0.961 . S
C815 C812 1.539 . S
C815 H829 0.958 . S
C815 H830 0.961 . S
C815 H831 0.960 . S
H816 C800 0.931 . S
H817 C805 0.929 . S
H818 C806 0.960 . S
H819 C806 0.962 . S
H820 C806 0.960 . S
H821 C807 0.961 . S
H822 C807 0.961 . S
H823 C807 0.961 . S
H824 C808 0.931 . S
H825 C813 0.930 . S
H826 C814 0.956 . S
H827 C814 0.961 . S
H828 C814 0.961 . S
H829 C815 0.958 . S
H830 C815 0.961 . S
H831 C815 0.960 . S
C832 C833 1.391 . S
C832 C834 1.394 . S
C832 H848 0.931 . S
C833 C832 1.391 . S
C833 C837 1.376 . S
C834 C832 1.394 . S
C834 C835 1.369 . S
C834 C838 1.531 . S
C835 C834 1.369 . S
C835 C836 1.410 . S
C835 C843 1.503 . S
C836 C835 1.410 . S
C836 C837 1.392 . S
C836 C839 1.511 . S
C837 C833 1.376 . S
C837 C836 1.392 . S
C837 H849 0.929 . S
C838 C834 1.531 . S
C838 H850 0.960 . S
C838 H851 0.962 . S
C838 H852 0.960 . S
C839 C836 1.511 . S
C839 H853 0.961 . S
C839 H854 0.961 . S
C839 H855 0.961 . S
C840 C841 1.370 . S
C840 C842 1.363 . S
C840 H856 0.931 . S
C841 C840 1.370 . S
C841 C845 1.408 . S
C842 C840 1.363 . S
C842 C843 1.370 . S
C842 C846 1.524 . S
C843 C835 1.503 . S
C843 C842 1.370 . S
C843 C844 1.403 . S
C844 C843 1.403 . S
C844 C845 1.404 . S
C844 C847 1.539 . S
C845 C841 1.408 . S
C845 C844 1.404 . S
C845 H857 0.930 . S
C846 C842 1.524 . S
C846 H858 0.956 . S
C846 H859 0.961 . S
C846 H860 0.961 . S
C847 C844 1.539 . S
C847 H861 0.958 . S
C847 H862 0.961 . S
C847 H863 0.960 . S
H848 C832 0.931 . S
H849 C837 0.929 . S
H850 C838 0.960 . S
H851 C838 0.962 . S
H852 C838 0.960 . S
H853 C839 0.961 . S
H854 C839 0.961 . S
H855 C839 0.961 . S
H856 C840 0.931 . S
H857 C845 0.930 . S
H858 C846 0.956 . S
H859 C846 0.961 . S
H860 C846 0.961 . S
H861 C847 0.958 . S
H862 C847 0.961 . S
H863 C847 0.960 . S
C864 C865 1.391 . S
C864 C866 1.394 . S
C864 H880 0.931 . S
C865 C864 1.391 . S
C865 C869 1.376 . S
C866 C864 1.394 . S
C866 C867 1.369 . S
C866 C870 1.531 . S
C867 C866 1.369 . S
C867 C868 1.410 . S
C867 C875 1.503 . S
C868 C867 1.410 . S
C868 C869 1.392 . S
C868 C871 1.511 . S
C869 C865 1.376 . S
C869 C868 1.392 . S
C869 H881 0.929 . S
C870 C866 1.531 . S
C870 H882 0.960 . S
C870 H883 0.962 . S
C870 H884 0.960 . S
C871 C868 1.511 . S
C871 H885 0.961 . S
C871 H886 0.961 . S
C871 H887 0.961 . S
C872 C873 1.370 . S
C872 C874 1.363 . S
C872 H888 0.931 . S
C873 C872 1.370 . S
C873 C877 1.408 . S
C874 C872 1.363 . S
C874 C875 1.370 . S
C874 C878 1.524 . S
C875 C867 1.503 . S
C875 C874 1.370 . S
C875 C876 1.403 . S
C876 C875 1.403 . S
C876 C877 1.404 . S
C876 C879 1.539 . S
C877 C873 1.408 . S
C877 C876 1.404 . S
C877 H889 0.930 . S
C878 C874 1.524 . S
C878 H890 0.956 . S
C878 H891 0.961 . S
C878 H892 0.961 . S
C879 C876 1.539 . S
C879 H893 0.958 . S
C879 H894 0.961 . S
C879 H895 0.960 . S
H880 C864 0.931 . S
H881 C869 0.929 . S
H882 C870 0.960 . S
H883 C870 0.962 . S
H884 C870 0.960 . S
H885 C871 0.961 . S
H886 C871 0.961 . S
H887 C871 0.961 . S
H888 C872 0.931 . S
H889 C877 0.930 . S
H890 C878 0.956 . S
H891 C878 0.961 . S
H892 C878 0.961 . S
H893 C879 0.958 . S
H894 C879 0.961 . S
H895 C879 0.960 . S
C896 C897 1.391 . S
C896 C898 1.394 . S
C896 H912 0.931 . S
C897 C896 1.391 . S
C897 C901 1.376 . S
C898 C896 1.394 . S
C898 C899 1.369 . S
C898 C902 1.531 . S
C899 C898 1.369 . S
C899 C900 1.410 . S
C899 C907 1.503 . S
C900 C899 1.410 . S
C900 C901 1.392 . S
C900 C903 1.511 . S
C901 C897 1.376 . S
C901 C900 1.392 . S
C901 H913 0.929 . S
C902 C898 1.531 . S
C902 H914 0.960 . S
C902 H915 0.962 . S
C902 H916 0.960 . S
C903 C900 1.511 . S
C903 H917 0.961 . S
C903 H918 0.961 . S
C903 H919 0.961 . S
C904 C905 1.370 . S
C904 C906 1.363 . S
C904 H920 0.931 . S
C905 C904 1.370 . S
C905 C909 1.408 . S
C906 C904 1.363 . S
C906 C907 1.370 . S
C906 C910 1.524 . S
C907 C899 1.503 . S
C907 C906 1.370 . S
C907 C908 1.403 . S
C908 C907 1.403 . S
C908 C909 1.404 . S
C908 C911 1.539 . S
C909 C905 1.408 . S
C909 C908 1.404 . S
C909 H921 0.930 . S
C910 C906 1.524 . S
C910 H922 0.956 . S
C910 H923 0.961 . S
C910 H924 0.961 . S
C911 C908 1.539 . S
C911 H925 0.958 . S
C911 H926 0.961 . S
C911 H927 0.960 . S
H912 C896 0.931 . S
H913 C901 0.929 . S
H914 C902 0.960 . S
H915 C902 0.962 . S
H916 C902 0.960 . S
H917 C903 0.961 . S
H918 C903 0.961 . S
H919 C903 0.961 . S
H920 C904 0.931 . S
H921 C909 0.930 . S
H922 C910 0.956 . S
H923 C910 0.961 . S
H924 C910 0.961 . S
H925 C911 0.958 . S
H926 C911 0.961 . S
H927 C911 0.960 . S
C928 C929 1.391 . S
C928 C930 1.394 . S
C928 H944 0.931 . S
C929 C928 1.391 . S
C929 C933 1.376 . S
C930 C928 1.394 . S
C930 C931 1.369 . S
C930 C934 1.531 . S
C931 C930 1.369 . S
C931 C932 1.410 . S
C931 C939 1.503 . S
C932 C931 1.410 . S
C932 C933 1.392 . S
C932 C935 1.511 . S
C933 C929 1.376 . S
C933 C932 1.392 . S
C933 H945 0.929 . S
C934 C930 1.531 . S
C934 H946 0.960 . S
C934 H947 0.962 . S
C934 H948 0.960 . S
C935 C932 1.511 . S
C935 H949 0.961 . S
C935 H950 0.961 . S
C935 H951 0.961 . S
C936 C937 1.370 . S
C936 C938 1.363 . S
C936 H952 0.931 . S
C937 C936 1.370 . S
C937 C941 1.408 . S
C938 C936 1.363 . S
C938 C939 1.370 . S
C938 C942 1.524 . S
C939 C931 1.503 . S
C939 C938 1.370 . S
C939 C940 1.403 . S
C940 C939 1.403 . S
C940 C941 1.404 . S
C940 C943 1.539 . S
C941 C937 1.408 . S
C941 C940 1.404 . S
C941 H953 0.930 . S
C942 C938 1.524 . S
C942 H954 0.956 . S
C942 H955 0.961 . S
C942 H956 0.961 . S
C943 C940 1.539 . S
C943 H957 0.958 . S
C943 H958 0.961 . S
C943 H959 0.960 . S
H944 C928 0.931 . S
H945 C933 0.929 . S
H946 C934 0.960 . S
H947 C934 0.962 . S
H948 C934 0.960 . S
H949 C935 0.961 . S
H950 C935 0.961 . S
H951 C935 0.961 . S
H952 C936 0.931 . S
H953 C941 0.930 . S
H954 C942 0.956 . S
H955 C942 0.961 . S
H956 C942 0.961 . S
H957 C943 0.958 . S
H958 C943 0.961 . S
H959 C943 0.960 . S
C960 C961 1.391 . S
C960 C962 1.394 . S
C960 H976 0.931 . S
C961 C960 1.391 . S
C961 C965 1.376 . S
C962 C960 1.394 . S
C962 C963 1.369 . S
C962 C966 1.531 . S
C963 C962 1.369 . S
C963 C964 1.410 . S
C963 C971 1.503 . S
C964 C963 1.410 . S
C964 C965 1.392 . S
C964 C967 1.511 . S
C965 C961 1.376 . S
C965 C964 1.392 . S
C965 H977 0.929 . S
C966 C962 1.531 . S
C966 H978 0.960 . S
C966 H979 0.962 . S
C966 H980 0.960 . S
C967 C964 1.511 . S
C967 H981 0.961 . S
C967 H982 0.961 . S
C967 H983 0.961 . S
C968 C969 1.370 . S
C968 C970 1.363 . S
C968 H984 0.931 . S
C969 C968 1.370 . S
C969 C973 1.408 . S
C970 C968 1.363 . S
C970 C971 1.370 . S
C970 C974 1.524 . S
C971 C963 1.503 . S
C971 C970 1.370 . S
C971 C972 1.403 . S
C972 C971 1.403 . S
C972 C973 1.404 . S
C972 C975 1.539 . S
C973 C969 1.408 . S
C973 C972 1.404 . S
C973 H985 0.930 . S
C974 C970 1.524 . S
C974 H986 0.956 . S
C974 H987 0.961 . S
C974 H988 0.961 . S
C975 C972 1.539 . S
C975 H989 0.958 . S
C975 H990 0.961 . S
C975 H991 0.960 . S
H976 C960 0.931 . S
H977 C965 0.929 . S
H978 C966 0.960 . S
H979 C966 0.962 . S
H980 C966 0.960 . S
H981 C967 0.961 . S
H982 C967 0.961 . S
H983 C967 0.961 . S
H984 C968 0.931 . S
H985 C973 0.930 . S
H986 C974 0.956 . S
H987 C974 0.961 . S
H988 C974 0.961 . S
H989 C975 0.958 . S
H990 C975 0.961 . S
H991 C975 0.960 . S
C992 C993 1.391 . S
C992 C994 1.394 . S
C992 H1008 0.931 . S
C993 C992 1.391 . S
C993 C997 1.376 . S
C994 C992 1.394 . S
C994 C995 1.369 . S
C994 C998 1.531 . S
C995 C994 1.369 . S
C995 C996 1.410 . S
C995 C1003 1.503 . S
C996 C995 1.410 . S
C996 C997 1.392 . S
C996 C999 1.511 . S
C997 C993 1.376 . S
C997 C996 1.392 . S
C997 H1009 0.929 . S
C998 C994 1.531 . S
C998 H1010 0.960 . S
C998 H1011 0.962 . S
C998 H1012 0.960 . S
C999 C996 1.511 . S
C999 H1013 0.961 . S
C999 H1014 0.961 . S
C999 H1015 0.961 . S
C1000 C1001 1.354 1_655 S
C1000 C1002 1.384 . S
C1000 H1016 0.926 1_655 S
C1001 C1000 1.354 1_455 S
C1001 C1005 1.408 . S
C1002 C1000 1.384 . S
C1002 C1003 1.370 . S
C1002 C1006 1.524 . S
C1003 C995 1.503 . S
C1003 C1002 1.370 . S
C1003 C1004 1.403 . S
C1004 C1003 1.403 . S
C1004 C1005 1.404 1_655 S
C1004 C1007 1.539 . S
C1005 C1001 1.408 . S
C1005 C1004 1.404 1_455 S
C1005 H1017 0.930 . S
C1006 C1002 1.524 . S
C1006 H1018 0.956 . S
C1006 H1019 0.961 . S
C1006 H1020 0.961 . S
C1007 C1004 1.539 . S
C1007 H1021 0.958 . S
C1007 H1022 0.961 . S
C1007 H1023 0.960 . S
H1008 C992 0.931 . S
H1009 C997 0.929 . S
H1010 C998 0.960 . S
H1011 C998 0.962 . S
H1012 C998 0.960 . S
H1013 C999 0.961 . S
H1014 C999 0.961 . S
H1015 C999 0.961 . S
H1016 C1000 0.926 1_455 S
H1017 C1005 0.930 . S
H1018 C1006 0.956 . S
H1019 C1006 0.961 . S
H1020 C1006 0.961 . S
H1021 C1007 0.958 . S
H1022 C1007 0.961 . S
H1023 C1007 0.960 . S
C1024 C1025 1.391 . S
C1024 C1026 1.394 . S
C1024 H1040 0.931 . S
C1025 C1024 1.391 . S
C1025 C1029 1.376 . S
C1026 C1024 1.394 . S
C1026 C1027 1.369 . S
C1026 C1030 1.531 . S
C1027 C1026 1.369 . S
C1027 C1028 1.410 . S
C1027 C1035 1.503 . S
C1028 C1027 1.410 . S
C1028 C1029 1.392 . S
C1028 C1031 1.511 . S
C1029 C1025 1.376 . S
C1029 C1028 1.392 . S
C1029 H1041 0.929 . S
C1030 C1026 1.531 . S
C1030 H1042 0.960 . S
C1030 H1043 0.962 . S
C1030 H1044 0.960 . S
C1031 C1028 1.511 . S
C1031 H1045 0.961 . S
C1031 H1046 0.961 . S
C1031 H1047 0.961 . S
C1032 C1033 1.370 . S
C1032 C1034 1.363 . S
C1032 H1048 0.931 . S
C1033 C1032 1.370 . S
C1033 C1037 1.408 . S
C1034 C1032 1.363 . S
C1034 C1035 1.370 . S
C1034 C1038 1.524 . S
C1035 C1027 1.503 . S
C1035 C1034 1.370 . S
C1035 C1036 1.403 . S
C1036 C1035 1.403 . S
C1036 C1037 1.404 . S
C1036 C1039 1.539 . S
C1037 C1033 1.408 . S
C1037 C1036 1.404 . S
C1037 H1049 0.930 . S
C1038 C1034 1.524 . S
C1038 H1050 0.956 . S
C1038 H1051 0.961 . S
C1038 H1052 0.961 . S
C1039 C1036 1.539 . S
C1039 H1053 0.958 . S
C1039 H1054 0.961 . S
C1039 H1055 0.960 . S
H1040 C1024 0.931 . S
H1041 C1029 0.929 . S
H1042 C1030 0.960 . S
H1043 C1030 0.962 . S
H1044 C1030 0.960 . S
H1045 C1031 0.961 . S
H1046 C1031 0.961 . S
H1047 C1031 0.961 . S
H1048 C1032 0.931 . S
H1049 C1037 0.930 . S
H1050 C1038 0.956 . S
H1051 C1038 0.961 . S
H1052 C1038 0.961 . S
H1053 C1039 0.958 . S
H1054 C1039 0.961 . S
H1055 C1039 0.960 . S
C1056 C1057 1.391 . S
C1056 C1058 1.394 . S
C1056 H1072 0.931 . S
C1057 C1056 1.391 . S
C1057 C1061 1.376 . S
C1058 C1056 1.394 . S
C1058 C1059 1.369 . S
C1058 C1062 1.531 . S
C1059 C1058 1.369 . S
C1059 C1060 1.410 . S
C1059 C1067 1.503 . S
C1060 C1059 1.410 . S
C1060 C1061 1.392 . S
C1060 C1063 1.511 . S
C1061 C1057 1.376 . S
C1061 C1060 1.392 . S
C1061 H1073 0.929 . S
C1062 C1058 1.531 . S
C1062 H1074 0.960 . S
C1062 H1075 0.962 . S
C1062 H1076 0.960 . S
C1063 C1060 1.511 . S
C1063 H1077 0.961 . S
C1063 H1078 0.961 . S
C1063 H1079 0.961 . S
C1064 C1065 1.370 . S
C1064 C1066 1.363 . S
C1064 H1080 0.931 . S
C1065 C1064 1.370 . S
C1065 C1069 1.408 . S
C1066 C1064 1.363 . S
C1066 C1067 1.370 . S
C1066 C1070 1.524 . S
C1067 C1059 1.503 . S
C1067 C1066 1.370 . S
C1067 C1068 1.403 . S
C1068 C1067 1.403 . S
C1068 C1069 1.404 . S
C1068 C1071 1.539 . S
C1069 C1065 1.408 . S
C1069 C1068 1.404 . S
C1069 H1081 0.930 . S
C1070 C1066 1.524 . S
C1070 H1082 0.956 . S
C1070 H1083 0.961 . S
C1070 H1084 0.961 . S
C1071 C1068 1.539 . S
C1071 H1085 0.958 . S
C1071 H1086 0.961 . S
C1071 H1087 0.960 . S
H1072 C1056 0.931 . S
H1073 C1061 0.929 . S
H1074 C1062 0.960 . S
H1075 C1062 0.962 . S
H1076 C1062 0.960 . S
H1077 C1063 0.961 . S
H1078 C1063 0.961 . S
H1079 C1063 0.961 . S
H1080 C1064 0.931 . S
H1081 C1069 0.930 . S
H1082 C1070 0.956 . S
H1083 C1070 0.961 . S
H1084 C1070 0.961 . S
H1085 C1071 0.958 . S
H1086 C1071 0.961 . S
H1087 C1071 0.960 . S
C1088 C1089 1.391 . S
C1088 C1090 1.394 . S
C1088 H1104 0.931 . S
C1089 C1088 1.391 . S
C1089 C1093 1.376 . S
C1090 C1088 1.394 . S
C1090 C1091 1.369 . S
C1090 C1094 1.531 . S
C1091 C1090 1.369 . S
C1091 C1092 1.410 . S
C1091 C1099 1.503 . S
C1092 C1091 1.410 . S
C1092 C1093 1.392 . S
C1092 C1095 1.511 . S
C1093 C1089 1.376 . S
C1093 C1092 1.392 . S
C1093 H1105 0.929 . S
C1094 C1090 1.531 . S
C1094 H1106 0.960 . S
C1094 H1107 0.962 . S
C1094 H1108 0.960 . S
C1095 C1092 1.511 . S
C1095 H1109 0.961 . S
C1095 H1110 0.961 . S
C1095 H1111 0.961 . S
C1096 C1097 1.370 . S
C1096 C1098 1.363 . S
C1096 H1112 0.931 . S
C1097 C1096 1.370 . S
C1097 C1101 1.408 . S
C1098 C1096 1.363 . S
C1098 C1099 1.370 . S
C1098 C1102 1.524 . S
C1099 C1091 1.503 . S
C1099 C1098 1.370 . S
C1099 C1100 1.403 . S
C1100 C1099 1.403 . S
C1100 C1101 1.404 . S
C1100 C1103 1.539 . S
C1101 C1097 1.408 . S
C1101 C1100 1.404 . S
C1101 H1113 0.930 . S
C1102 C1098 1.524 . S
C1102 H1114 0.956 . S
C1102 H1115 0.961 . S
C1102 H1116 0.961 . S
C1103 C1100 1.539 . S
C1103 H1117 0.958 . S
C1103 H1118 0.961 . S
C1103 H1119 0.960 . S
H1104 C1088 0.931 . S
H1105 C1093 0.929 . S
H1106 C1094 0.960 . S
H1107 C1094 0.962 . S
H1108 C1094 0.960 . S
H1109 C1095 0.961 . S
H1110 C1095 0.961 . S
H1111 C1095 0.961 . S
H1112 C1096 0.931 . S
H1113 C1101 0.930 . S
H1114 C1102 0.956 . S
H1115 C1102 0.961 . S
H1116 C1102 0.961 . S
H1117 C1103 0.958 . S
H1118 C1103 0.961 . S
H1119 C1103 0.960 . S
C1120 C1121 1.391 . S
C1120 C1122 1.394 . S
C1120 H1136 0.931 . S
C1121 C1120 1.391 . S
C1121 C1125 1.376 . S
C1122 C1120 1.394 . S
C1122 C1123 1.369 . S
C1122 C1126 1.531 . S
C1123 C1122 1.369 . S
C1123 C1124 1.410 . S
C1123 C1131 1.503 . S
C1124 C1123 1.410 . S
C1124 C1125 1.392 . S
C1124 C1127 1.511 . S
C1125 C1121 1.376 . S
C1125 C1124 1.392 . S
C1125 H1137 0.929 . S
C1126 C1122 1.531 . S
C1126 H1138 0.960 . S
C1126 H1139 0.962 . S
C1126 H1140 0.960 . S
C1127 C1124 1.511 . S
C1127 H1141 0.961 . S
C1127 H1142 0.961 . S
C1127 H1143 0.961 . S
C1128 C1129 1.370 . S
C1128 C1130 1.363 . S
C1128 H1144 0.931 . S
C1129 C1128 1.370 . S
C1129 C1133 1.408 . S
C1130 C1128 1.363 . S
C1130 C1131 1.370 . S
C1130 C1134 1.524 . S
C1131 C1123 1.503 . S
C1131 C1130 1.370 . S
C1131 C1132 1.403 . S
C1132 C1131 1.403 . S
C1132 C1133 1.404 . S
C1132 C1135 1.539 . S
C1133 C1129 1.408 . S
C1133 C1132 1.404 . S
C1133 H1145 0.930 . S
C1134 C1130 1.524 . S
C1134 H1146 0.956 . S
C1134 H1147 0.961 . S
C1134 H1148 0.961 . S
C1135 C1132 1.539 . S
C1135 H1149 0.958 . S
C1135 H1150 0.961 . S
C1135 H1151 0.960 . S
H1136 C1120 0.931 . S
H1137 C1125 0.929 . S
H1138 C1126 0.960 . S
H1139 C1126 0.962 . S
H1140 C1126 0.960 . S
H1141 C1127 0.961 . S
H1142 C1127 0.961 . S
H1143 C1127 0.961 . S
H1144 C1128 0.931 . S
H1145 C1133 0.930 . S
H1146 C1134 0.956 . S
H1147 C1134 0.961 . S
H1148 C1134 0.961 . S
H1149 C1135 0.958 . S
H1150 C1135 0.961 . S
H1151 C1135 0.960 . S
C1152 C1153 1.391 . S
C1152 C1154 1.394 . S
C1152 H1168 0.931 . S
C1153 C1152 1.391 . S
C1153 C1157 1.376 . S
C1154 C1152 1.394 . S
C1154 C1155 1.369 . S
C1154 C1158 1.531 . S
C1155 C1154 1.369 . S
C1155 C1156 1.410 . S
C1155 C1163 1.503 . S
C1156 C1155 1.410 . S
C1156 C1157 1.392 . S
C1156 C1159 1.511 . S
C1157 C1153 1.376 . S
C1157 C1156 1.392 . S
C1157 H1169 0.929 . S
C1158 C1154 1.531 . S
C1158 H1170 0.960 . S
C1158 H1171 0.962 . S
C1158 H1172 0.960 . S
C1159 C1156 1.511 . S
C1159 H1173 0.961 . S
C1159 H1174 0.961 . S
C1159 H1175 0.961 . S
C1160 C1161 1.370 . S
C1160 C1162 1.363 . S
C1160 H1176 0.931 . S
C1161 C1160 1.370 . S
C1161 C1165 1.408 . S
C1162 C1160 1.363 . S
C1162 C1163 1.370 . S
C1162 C1166 1.524 . S
C1163 C1155 1.503 . S
C1163 C1162 1.370 . S
C1163 C1164 1.403 . S
C1164 C1163 1.403 . S
C1164 C1165 1.404 . S
C1164 C1167 1.539 . S
C1165 C1161 1.408 . S
C1165 C1164 1.404 . S
C1165 H1177 0.930 . S
C1166 C1162 1.524 . S
C1166 H1178 0.956 . S
C1166 H1179 0.961 . S
C1166 H1180 0.961 . S
C1167 C1164 1.539 . S
C1167 H1181 0.958 . S
C1167 H1182 0.961 . S
C1167 H1183 0.960 . S
H1168 C1152 0.931 . S
H1169 C1157 0.929 . S
H1170 C1158 0.960 . S
H1171 C1158 0.962 . S
H1172 C1158 0.960 . S
H1173 C1159 0.961 . S
H1174 C1159 0.961 . S
H1175 C1159 0.961 . S
H1176 C1160 0.931 . S
H1177 C1165 0.930 . S
H1178 C1166 0.956 . S
H1179 C1166 0.961 . S
H1180 C1166 0.961 . S
H1181 C1167 0.958 . S
H1182 C1167 0.961 . S
H1183 C1167 0.960 . S
C1184 C1185 1.391 1_655 S
C1184 C1186 1.394 . S
C1184 H1200 0.931 . S
C1185 C1184 1.391 1_455 S
C1185 C1189 1.376 . S
C1186 C1184 1.394 . S
C1186 C1187 1.369 . S
C1186 C1190 1.531 . S
C1187 C1186 1.369 . S
C1187 C1188 1.410 . S
C1187 C1195 1.503 . S
C1188 C1187 1.410 . S
C1188 C1189 1.392 1_655 S
C1188 C1191 1.511 . S
C1189 C1185 1.376 . S
C1189 C1188 1.392 1_455 S
C1189 H1201 0.929 . S
C1190 C1186 1.531 . S
C1190 H1202 0.960 . S
C1190 H1203 0.962 . S
C1190 H1204 0.960 . S
C1191 C1188 1.511 . S
C1191 H1205 0.961 1_655 S
C1191 H1206 0.961 . S
C1191 H1207 0.961 . S
C1192 C1193 1.370 . S
C1192 C1194 1.363 . S
C1192 H1208 0.931 . S
C1193 C1192 1.370 . S
C1193 C1197 1.408 . S
C1194 C1192 1.363 . S
C1194 C1195 1.370 . S
C1194 C1198 1.524 . S
C1195 C1187 1.503 . S
C1195 C1194 1.370 . S
C1195 C1196 1.403 . S
C1196 C1195 1.403 . S
C1196 C1197 1.404 . S
C1196 C1199 1.539 . S
C1197 C1193 1.408 . S
C1197 C1196 1.404 . S
C1197 H1209 0.930 . S
C1198 C1194 1.524 . S
C1198 H1210 0.956 . S
C1198 H1211 0.961 . S
C1198 H1212 0.961 . S
C1199 C1196 1.539 . S
C1199 H1213 0.958 . S
C1199 H1214 0.961 . S
C1199 H1215 0.960 . S
H1200 C1184 0.931 . S
H1201 C1189 0.929 . S
H1202 C1190 0.960 . S
H1203 C1190 0.962 . S
H1204 C1190 0.960 . S
H1205 C1191 0.961 1_455 S
H1206 C1191 0.961 . S
H1207 C1191 0.961 . S
H1208 C1192 0.931 . S
H1209 C1197 0.930 . S
H1210 C1198 0.956 . S
H1211 C1198 0.961 . S
H1212 C1198 0.961 . S
H1213 C1199 0.958 . S
H1214 C1199 0.961 . S
H1215 C1199 0.960 . S
C1216 C1217 1.391 . S
C1216 C1218 1.394 . S
C1216 H1232 0.931 . S
C1217 C1216 1.391 . S
C1217 C1221 1.376 . S
C1218 C1216 1.394 . S
C1218 C1219 1.369 . S
C1218 C1222 1.531 . S
C1219 C1218 1.369 . S
C1219 C1220 1.410 . S
C1219 C1227 1.503 . S
C1220 C1219 1.410 . S
C1220 C1221 1.392 . S
C1220 C1223 1.511 . S
C1221 C1217 1.376 . S
C1221 C1220 1.392 . S
C1221 H1233 0.929 . S
C1222 C1218 1.531 . S
C1222 H1234 0.960 . S
C1222 H1235 0.962 . S
C1222 H1236 0.960 . S
C1223 C1220 1.511 . S
C1223 H1237 0.961 . S
C1223 H1238 0.961 . S
C1223 H1239 0.961 . S
C1224 C1225 1.370 . S
C1224 C1226 1.363 . S
C1224 H1240 0.931 . S
C1225 C1224 1.370 . S
C1225 C1229 1.408 . S
C1226 C1224 1.363 . S
C1226 C1227 1.370 . S
C1226 C1230 1.524 . S
C1227 C1219 1.503 . S
C1227 C1226 1.370 . S
C1227 C1228 1.403 . S
C1228 C1227 1.403 . S
C1228 C1229 1.404 . S
C1228 C1231 1.539 . S
C1229 C1225 1.408 . S
C1229 C1228 1.404 . S
C1229 H1241 0.930 . S
C1230 C1226 1.524 . S
C1230 H1242 0.956 . S
C1230 H1243 0.961 . S
C1230 H1244 0.961 . S
C1231 C1228 1.539 . S
C1231 H1245 0.958 . S
C1231 H1246 0.961 . S
C1231 H1247 0.960 . S
H1232 C1216 0.931 . S
H1233 C1221 0.929 . S
H1234 C1222 0.960 . S
H1235 C1222 0.962 . S
H1236 C1222 0.960 . S
H1237 C1223 0.961 . S
H1238 C1223 0.961 . S
H1239 C1223 0.961 . S
H1240 C1224 0.931 . S
H1241 C1229 0.930 . S
H1242 C1230 0.956 . S
H1243 C1230 0.961 . S
H1244 C1230 0.961 . S
H1245 C1231 0.958 . S
H1246 C1231 0.961 . S
H1247 C1231 0.960 . S
C1248 C1249 1.391 . S
C1248 C1250 1.394 1_655 S
C1248 H1264 0.931 . S
C1249 C1248 1.391 . S
C1249 C1253 1.376 1_655 S
C1250 C1248 1.394 1_455 S
C1250 C1251 1.369 . S
C1250 C1254 1.531 . S
C1251 C1250 1.369 . S
C1251 C1252 1.410 . S
C1251 C1259 1.503 . S
C1252 C1251 1.410 . S
C1252 C1253 1.392 . S
C1252 C1255 1.511 . S
C1253 C1249 1.376 1_455 S
C1253 C1252 1.392 . S
C1253 H1265 0.929 . S
C1254 C1250 1.531 . S
C1254 H1266 0.960 . S
C1254 H1267 0.962 . S
C1254 H1268 0.960 1_455 S
C1255 C1252 1.511 . S
C1255 H1269 0.961 . S
C1255 H1270 0.961 . S
C1255 H1271 0.961 . S
C1256 C1257 1.370 . S
C1256 C1258 1.363 . S
C1256 H1272 0.931 . S
C1257 C1256 1.370 . S
C1257 C1261 1.408 . S
C1258 C1256 1.363 . S
C1258 C1259 1.370 . S
C1258 C1262 1.524 . S
C1259 C1251 1.503 . S
C1259 C1258 1.370 . S
C1259 C1260 1.403 . S
C1260 C1259 1.403 . S
C1260 C1261 1.404 . S
C1260 C1263 1.539 . S
C1261 C1257 1.408 . S
C1261 C1260 1.404 . S
C1261 H1273 0.930 . S
C1262 C1258 1.524 . S
C1262 H1274 0.956 . S
C1262 H1275 0.961 . S
C1262 H1276 0.961 . S
C1263 C1260 1.539 . S
C1263 H1277 0.958 . S
C1263 H1278 0.961 . S
C1263 H1279 0.960 . S
H1264 C1248 0.931 . S
H1265 C1253 0.929 . S
H1266 C1254 0.960 . S
H1267 C1254 0.962 . S
H1268 C1254 0.960 1_655 S
H1269 C1255 0.961 . S
H1270 C1255 0.961 . S
H1271 C1255 0.961 . S
H1272 C1256 0.931 . S
H1273 C1261 0.930 . S
H1274 C1262 0.956 . S
H1275 C1262 0.961 . S
H1276 C1262 0.961 . S
H1277 C1263 0.958 . S
H1278 C1263 0.961 . S
H1279 C1263 0.960 . S
C1280 C1281 1.391 . S
C1280 C1282 1.394 . S
C1280 H1296 0.931 . S
C1281 C1280 1.391 . S
C1281 C1285 1.376 . S
C1282 C1280 1.394 . S
C1282 C1283 1.369 . S
C1282 C1286 1.531 . S
C1283 C1282 1.369 . S
C1283 C1284 1.410 . S
C1283 C1291 1.503 . S
C1284 C1283 1.410 . S
C1284 C1285 1.392 . S
C1284 C1287 1.511 . S
C1285 C1281 1.376 . S
C1285 C1284 1.392 . S
C1285 H1297 0.929 . S
C1286 C1282 1.531 . S
C1286 H1298 0.960 . S
C1286 H1299 0.962 . S
C1286 H1300 0.960 . S
C1287 C1284 1.511 . S
C1287 H1301 0.961 . S
C1287 H1302 0.961 . S
C1287 H1303 0.961 . S
C1288 C1289 1.370 . S
C1288 C1290 1.363 . S
C1288 H1304 0.931 . S
C1289 C1288 1.370 . S
C1289 C1293 1.408 . S
C1290 C1288 1.363 . S
C1290 C1291 1.370 . S
C1290 C1294 1.524 . S
C1291 C1283 1.503 . S
C1291 C1290 1.370 . S
C1291 C1292 1.403 . S
C1292 C1291 1.403 . S
C1292 C1293 1.404 . S
C1292 C1295 1.539 . S
C1293 C1289 1.408 . S
C1293 C1292 1.404 . S
C1293 H1305 0.930 . S
C1294 C1290 1.524 . S
C1294 H1306 0.956 . S
C1294 H1307 0.961 . S
C1294 H1308 0.961 . S
C1295 C1292 1.539 . S
C1295 H1309 0.958 . S
C1295 H1310 0.961 . S
C1295 H1311 0.960 . S
H1296 C1280 0.931 . S
H1297 C1285 0.929 . S
H1298 C1286 0.960 . S
H1299 C1286 0.962 . S
H1300 C1286 0.960 . S
H1301 C1287 0.961 . S
H1302 C1287 0.961 . S
H1303 C1287 0.961 . S
H1304 C1288 0.931 . S
H1305 C1293 0.930 . S
H1306 C1294 0.956 . S
H1307 C1294 0.961 . S
H1308 C1294 0.961 . S
H1309 C1295 0.958 . S
H1310 C1295 0.961 . S
H1311 C1295 0.960 . S
C1312 C1313 1.391 . S
C1312 C1314 1.394 . S
C1312 H1328 0.931 . S
C1313 C1312 1.391 . S
C1313 C1317 1.376 . S
C1314 C1312 1.394 . S
C1314 C1315 1.369 . S
C1314 C1318 1.531 . S
C1315 C1314 1.369 . S
C1315 C1316 1.410 . S
C1315 C1323 1.503 . S
C1316 C1315 1.410 . S
C1316 C1317 1.392 . S
C1316 C1319 1.511 . S
C1317 C1313 1.376 . S
C1317 C1316 1.392 . S
C1317 H1329 0.929 . S
C1318 C1314 1.531 . S
C1318 H1330 0.960 . S
C1318 H1331 0.962 . S
C1318 H1332 0.960 . S
C1319 C1316 1.511 . S
C1319 H1333 0.961 . S
C1319 H1334 0.961 . S
C1319 H1335 0.961 . S
C1320 C1321 1.370 . S
C1320 C1322 1.363 . S
C1320 H1336 0.931 . S
C1321 C1320 1.370 . S
C1321 C1325 1.408 . S
C1322 C1320 1.363 . S
C1322 C1323 1.370 . S
C1322 C1326 1.524 . S
C1323 C1315 1.503 . S
C1323 C1322 1.370 . S
C1323 C1324 1.403 . S
C1324 C1323 1.403 . S
C1324 C1325 1.404 . S
C1324 C1327 1.539 . S
C1325 C1321 1.408 . S
C1325 C1324 1.404 . S
C1325 H1337 0.930 . S
C1326 C1322 1.524 . S
C1326 H1338 0.956 . S
C1326 H1339 0.961 . S
C1326 H1340 0.961 . S
C1327 C1324 1.539 . S
C1327 H1341 0.958 . S
C1327 H1342 0.961 . S
C1327 H1343 0.960 . S
H1328 C1312 0.931 . S
H1329 C1317 0.929 . S
H1330 C1318 0.960 . S
H1331 C1318 0.962 . S
H1332 C1318 0.960 . S
H1333 C1319 0.961 . S
H1334 C1319 0.961 . S
H1335 C1319 0.961 . S
H1336 C1320 0.931 . S
H1337 C1325 0.930 . S
H1338 C1326 0.956 . S
H1339 C1326 0.961 . S
H1340 C1326 0.961 . S
H1341 C1327 0.958 . S
H1342 C1327 0.961 . S
H1343 C1327 0.960 . S
C1344 C1345 1.391 . S
C1344 C1346 1.394 . S
C1344 H1360 0.931 . S
C1345 C1344 1.391 . S
C1345 C1349 1.376 . S
C1346 C1344 1.394 . S
C1346 C1347 1.369 . S
C1346 C1350 1.531 . S
C1347 C1346 1.369 . S
C1347 C1348 1.410 . S
C1347 C1355 1.503 . S
C1348 C1347 1.410 . S
C1348 C1349 1.392 . S
C1348 C1351 1.511 . S
C1349 C1345 1.376 . S
C1349 C1348 1.392 . S
C1349 H1361 0.929 . S
C1350 C1346 1.531 . S
C1350 H1362 0.960 . S
C1350 H1363 0.962 . S
C1350 H1364 0.960 . S
C1351 C1348 1.511 . S
C1351 H1365 0.961 . S
C1351 H1366 0.961 . S
C1351 H1367 0.961 . S
C1352 C1353 1.370 . S
C1352 C1354 1.363 . S
C1352 H1368 0.931 . S
C1353 C1352 1.370 . S
C1353 C1357 1.408 . S
C1354 C1352 1.363 . S
C1354 C1355 1.370 . S
C1354 C1358 1.524 . S
C1355 C1347 1.503 . S
C1355 C1354 1.370 . S
C1355 C1356 1.403 . S
C1356 C1355 1.403 . S
C1356 C1357 1.404 . S
C1356 C1359 1.539 . S
C1357 C1353 1.408 . S
C1357 C1356 1.404 . S
C1357 H1369 0.930 . S
C1358 C1354 1.524 . S
C1358 H1370 0.956 . S
C1358 H1371 0.961 . S
C1358 H1372 0.961 . S
C1359 C1356 1.539 . S
C1359 H1373 0.958 . S
C1359 H1374 0.961 . S
C1359 H1375 0.960 . S
H1360 C1344 0.931 . S
H1361 C1349 0.929 . S
H1362 C1350 0.960 . S
H1363 C1350 0.962 . S
H1364 C1350 0.960 . S
H1365 C1351 0.961 . S
H1366 C1351 0.961 . S
H1367 C1351 0.961 . S
H1368 C1352 0.931 . S
H1369 C1357 0.930 . S
H1370 C1358 0.956 . S
H1371 C1358 0.961 . S
H1372 C1358 0.961 . S
H1373 C1359 0.958 . S
H1374 C1359 0.961 . S
H1375 C1359 0.960 . S
C1376 C1377 1.391 . S
C1376 C1378 1.394 . S
C1376 H1392 0.931 . S
C1377 C1376 1.391 . S
C1377 C1381 1.376 . S
C1378 C1376 1.394 . S
C1378 C1379 1.369 . S
C1378 C1382 1.531 . S
C1379 C1378 1.369 . S
C1379 C1380 1.410 . S
C1379 C1387 1.503 . S
C1380 C1379 1.410 . S
C1380 C1381 1.392 . S
C1380 C1383 1.511 . S
C1381 C1377 1.376 . S
C1381 C1380 1.392 . S
C1381 H1393 0.929 . S
C1382 C1378 1.531 . S
C1382 H1394 0.960 . S
C1382 H1395 0.962 . S
C1382 H1396 0.960 . S
C1383 C1380 1.511 . S
C1383 H1397 0.961 . S
C1383 H1398 0.961 . S
C1383 H1399 0.961 . S
C1384 C1385 1.370 . S
C1384 C1386 1.363 . S
C1384 H1400 0.931 . S
C1385 C1384 1.370 . S
C1385 C1389 1.408 . S
C1386 C1384 1.363 . S
C1386 C1387 1.370 . S
C1386 C1390 1.524 . S
C1387 C1379 1.503 . S
C1387 C1386 1.370 . S
C1387 C1388 1.403 . S
C1388 C1387 1.403 . S
C1388 C1389 1.404 . S
C1388 C1391 1.539 . S
C1389 C1385 1.408 . S
C1389 C1388 1.404 . S
C1389 H1401 0.930 . S
C1390 C1386 1.524 . S
C1390 H1402 0.956 . S
C1390 H1403 0.961 . S
C1390 H1404 0.961 . S
C1391 C1388 1.539 . S
C1391 H1405 0.958 . S
C1391 H1406 0.961 . S
C1391 H1407 0.960 . S
H1392 C1376 0.931 . S
H1393 C1381 0.929 . S
H1394 C1382 0.960 . S
H1395 C1382 0.962 . S
H1396 C1382 0.960 . S
H1397 C1383 0.961 . S
H1398 C1383 0.961 . S
H1399 C1383 0.961 . S
H1400 C1384 0.931 . S
H1401 C1389 0.930 . S
H1402 C1390 0.956 . S
H1403 C1390 0.961 . S
H1404 C1390 0.961 . S
H1405 C1391 0.958 . S
H1406 C1391 0.961 . S
H1407 C1391 0.960 . S
C1408 C1409 1.391 . S
C1408 C1410 1.394 . S
C1408 H1424 0.931 . S
C1409 C1408 1.391 . S
C1409 C1413 1.376 . S
C1410 C1408 1.394 . S
C1410 C1411 1.369 . S
C1410 C1414 1.531 . S
C1411 C1410 1.369 . S
C1411 C1412 1.410 . S
C1411 C1419 1.503 . S
C1412 C1411 1.410 . S
C1412 C1413 1.392 . S
C1412 C1415 1.511 . S
C1413 C1409 1.376 . S
C1413 C1412 1.392 . S
C1413 H1425 0.929 . S
C1414 C1410 1.531 . S
C1414 H1426 0.960 . S
C1414 H1427 0.962 . S
C1414 H1428 0.960 . S
C1415 C1412 1.511 . S
C1415 H1429 0.961 . S
C1415 H1430 0.961 . S
C1415 H1431 0.961 . S
C1416 C1417 1.370 . S
C1416 C1418 1.363 . S
C1416 H1432 0.931 . S
C1417 C1416 1.370 . S
C1417 C1421 1.408 . S
C1418 C1416 1.363 . S
C1418 C1419 1.370 . S
C1418 C1422 1.524 . S
C1419 C1411 1.503 . S
C1419 C1418 1.370 . S
C1419 C1420 1.403 . S
C1420 C1419 1.403 . S
C1420 C1421 1.404 . S
C1420 C1423 1.539 . S
C1421 C1417 1.408 . S
C1421 C1420 1.404 . S
C1421 H1433 0.930 . S
C1422 C1418 1.524 . S
C1422 H1434 0.956 . S
C1422 H1435 0.961 . S
C1422 H1436 0.961 . S
C1423 C1420 1.539 . S
C1423 H1437 0.958 . S
C1423 H1438 0.961 . S
C1423 H1439 0.960 . S
H1424 C1408 0.931 . S
H1425 C1413 0.929 . S
H1426 C1414 0.960 . S
H1427 C1414 0.962 . S
H1428 C1414 0.960 . S
H1429 C1415 0.961 . S
H1430 C1415 0.961 . S
H1431 C1415 0.961 . S
H1432 C1416 0.931 . S
H1433 C1421 0.930 . S
H1434 C1422 0.956 . S
H1435 C1422 0.961 . S
H1436 C1422 0.961 . S
H1437 C1423 0.958 . S
H1438 C1423 0.961 . S
H1439 C1423 0.960 . S
C1440 C1441 1.391 . S
C1440 C1442 1.394 . S
C1440 H1456 0.931 . S
C1441 C1440 1.391 . S
C1441 C1445 1.376 . S
C1442 C1440 1.394 . S
C1442 C1443 1.369 . S
C1442 C1446 1.531 . S
C1443 C1442 1.369 . S
C1443 C1444 1.410 . S
C1443 C1451 1.503 . S
C1444 C1443 1.410 . S
C1444 C1445 1.392 . S
C1444 C1447 1.511 . S
C1445 C1441 1.376 . S
C1445 C1444 1.392 . S
C1445 H1457 0.929 . S
C1446 C1442 1.531 . S
C1446 H1458 0.960 . S
C1446 H1459 0.962 . S
C1446 H1460 0.960 . S
C1447 C1444 1.511 . S
C1447 H1461 0.961 . S
C1447 H1462 0.961 . S
C1447 H1463 0.961 . S
C1448 C1449 1.373 . S
C1448 C1450 1.359 1_655 S
C1448 H1464 0.932 . S
C1449 C1448 1.373 . S
C1449 C1453 1.408 . S
C1450 C1448 1.359 1_455 S
C1450 C1451 1.370 . S
C1450 C1454 1.524 . S
C1451 C1443 1.503 . S
C1451 C1450 1.370 . S
C1451 C1452 1.403 . S
C1452 C1451 1.403 . S
C1452 C1453 1.404 1_455 S
C1452 C1455 1.539 . S
C1453 C1449 1.408 . S
C1453 C1452 1.404 1_655 S
C1453 H1465 0.930 . S
C1454 C1450 1.524 . S
C1454 H1466 0.956 . S
C1454 H1467 0.961 . S
C1454 H1468 0.961 . S
C1455 C1452 1.539 . S
C1455 H1469 0.958 . S
C1455 H1470 0.961 . S
C1455 H1471 0.960 . S
H1456 C1440 0.931 . S
H1457 C1445 0.929 . S
H1458 C1446 0.960 . S
H1459 C1446 0.962 . S
H1460 C1446 0.960 . S
H1461 C1447 0.961 . S
H1462 C1447 0.961 . S
H1463 C1447 0.961 . S
H1464 C1448 0.932 . S
H1465 C1453 0.930 . S
H1466 C1454 0.956 . S
H1467 C1454 0.961 . S
H1468 C1454 0.961 . S
H1469 C1455 0.958 . S
H1470 C1455 0.961 . S
H1471 C1455 0.960 . S
C1472 C1473 1.391 . S
C1472 C1474 1.394 . S
C1472 H1488 0.931 . S
C1473 C1472 1.391 . S
C1473 C1477 1.376 . S
C1474 C1472 1.394 . S
C1474 C1475 1.369 . S
C1474 C1478 1.531 . S
C1475 C1474 1.369 . S
C1475 C1476 1.410 . S
C1475 C1483 1.503 . S
C1476 C1475 1.410 . S
C1476 C1477 1.392 . S
C1476 C1479 1.511 . S
C1477 C1473 1.376 . S
C1477 C1476 1.392 . S
C1477 H1489 0.929 . S
C1478 C1474 1.531 . S
C1478 H1490 0.960 . S
C1478 H1491 0.962 . S
C1478 H1492 0.960 . S
C1479 C1476 1.511 . S
C1479 H1493 0.961 . S
C1479 H1494 0.961 . S
C1479 H1495 0.961 . S
C1480 C1481 1.370 . S
C1480 C1482 1.363 . S
C1480 H1496 0.931 . S
C1481 C1480 1.370 . S
C1481 C1485 1.408 . S
C1482 C1480 1.363 . S
C1482 C1483 1.370 . S
C1482 C1486 1.524 . S
C1483 C1475 1.503 . S
C1483 C1482 1.370 . S
C1483 C1484 1.403 . S
C1484 C1483 1.403 . S
C1484 C1485 1.404 . S
C1484 C1487 1.539 . S
C1485 C1481 1.408 . S
C1485 C1484 1.404 . S
C1485 H1497 0.930 . S
C1486 C1482 1.524 . S
C1486 H1498 0.956 . S
C1486 H1499 0.961 . S
C1486 H1500 0.961 . S
C1487 C1484 1.539 . S
C1487 H1501 0.958 . S
C1487 H1502 0.961 . S
C1487 H1503 0.960 . S
H1488 C1472 0.931 . S
H1489 C1477 0.929 . S
H1490 C1478 0.960 . S
H1491 C1478 0.962 . S
H1492 C1478 0.960 . S
H1493 C1479 0.961 . S
H1494 C1479 0.961 . S
H1495 C1479 0.961 . S
H1496 C1480 0.931 . S
H1497 C1485 0.930 . S
H1498 C1486 0.956 . S
H1499 C1486 0.961 . S
H1500 C1486 0.961 . S
H1501 C1487 0.958 . S
H1502 C1487 0.961 . S
H1503 C1487 0.960 . S
C1504 C1505 1.391 . S
C1504 C1506 1.394 . S
C1504 H1520 0.931 . S
C1505 C1504 1.391 . S
C1505 C1509 1.376 . S
C1506 C1504 1.394 . S
C1506 C1507 1.369 . S
C1506 C1510 1.531 . S
C1507 C1506 1.369 . S
C1507 C1508 1.410 . S
C1507 C1515 1.503 . S
C1508 C1507 1.410 . S
C1508 C1509 1.392 . S
C1508 C1511 1.511 . S
C1509 C1505 1.376 . S
C1509 C1508 1.392 . S
C1509 H1521 0.929 . S
C1510 C1506 1.531 . S
C1510 H1522 0.960 . S
C1510 H1523 0.962 . S
C1510 H1524 0.960 . S
C1511 C1508 1.511 . S
C1511 H1525 0.961 . S
C1511 H1526 0.961 . S
C1511 H1527 0.961 . S
C1512 C1513 1.370 . S
C1512 C1514 1.363 . S
C1512 H1528 0.931 . S
C1513 C1512 1.370 . S
C1513 C1517 1.408 . S
C1514 C1512 1.363 . S
C1514 C1515 1.370 . S
C1514 C1518 1.524 . S
C1515 C1507 1.503 . S
C1515 C1514 1.370 . S
C1515 C1516 1.403 . S
C1516 C1515 1.403 . S
C1516 C1517 1.404 . S
C1516 C1519 1.539 . S
C1517 C1513 1.408 . S
C1517 C1516 1.404 . S
C1517 H1529 0.930 . S
C1518 C1514 1.524 . S
C1518 H1530 0.956 . S
C1518 H1531 0.961 . S
C1518 H1532 0.961 . S
C1519 C1516 1.539 . S
C1519 H1533 0.958 . S
C1519 H1534 0.961 . S
C1519 H1535 0.960 . S
H1520 C1504 0.931 . S
H1521 C1509 0.929 . S
H1522 C1510 0.960 . S
H1523 C1510 0.962 . S
H1524 C1510 0.960 . S
H1525 C1511 0.961 . S
H1526 C1511 0.961 . S
H1527 C1511 0.961 . S
H1528 C1512 0.931 . S
H1529 C1517 0.930 . S
H1530 C1518 0.956 . S
H1531 C1518 0.961 . S
H1532 C1518 0.961 . S
H1533 C1519 0.958 . S
H1534 C1519 0.961 . S
H1535 C1519 0.960 . S
C1536 C1537 1.391 . S
C1536 C1538 1.394 . S
C1536 H1552 0.931 . S
C1537 C1536 1.391 . S
C1537 C1541 1.376 . S
C1538 C1536 1.394 . S
C1538 C1539 1.369 . S
C1538 C1542 1.531 . S
C1539 C1538 1.369 . S
C1539 C1540 1.410 . S
C1539 C1547 1.503 . S
C1540 C1539 1.410 . S
C1540 C1541 1.392 . S
C1540 C1543 1.511 . S
C1541 C1537 1.376 . S
C1541 C1540 1.392 . S
C1541 H1553 0.929 . S
C1542 C1538 1.531 . S
C1542 H1554 0.960 . S
C1542 H1555 0.962 . S
C1542 H1556 0.960 . S
C1543 C1540 1.511 . S
C1543 H1557 0.961 . S
C1543 H1558 0.961 . S
C1543 H1559 0.961 . S
C1544 C1545 1.370 . S
C1544 C1546 1.363 . S
C1544 H1560 0.931 . S
C1545 C1544 1.370 . S
C1545 C1549 1.408 . S
C1546 C1544 1.363 . S
C1546 C1547 1.370 . S
C1546 C1550 1.524 . S
C1547 C1539 1.503 . S
C1547 C1546 1.370 . S
C1547 C1548 1.403 . S
C1548 C1547 1.403 . S
C1548 C1549 1.404 . S
C1548 C1551 1.539 . S
C1549 C1545 1.408 . S
C1549 C1548 1.404 . S
C1549 H1561 0.930 . S
C1550 C1546 1.524 . S
C1550 H1562 0.956 . S
C1550 H1563 0.961 . S
C1550 H1564 0.961 . S
C1551 C1548 1.539 . S
C1551 H1565 0.958 . S
C1551 H1566 0.961 . S
C1551 H1567 0.960 . S
H1552 C1536 0.931 . S
H1553 C1541 0.929 . S
H1554 C1542 0.960 . S
H1555 C1542 0.962 . S
H1556 C1542 0.960 . S
H1557 C1543 0.961 . S
H1558 C1543 0.961 . S
H1559 C1543 0.961 . S
H1560 C1544 0.931 . S
H1561 C1549 0.930 . S
H1562 C1550 0.956 . S
H1563 C1550 0.961 . S
H1564 C1550 0.961 . S
H1565 C1551 0.958 . S
H1566 C1551 0.961 . S
H1567 C1551 0.960 . S
C1568 C1569 1.391 . S
C1568 C1570 1.394 . S
C1568 H1584 0.931 . S
C1569 C1568 1.391 . S
C1569 C1573 1.376 . S
C1570 C1568 1.394 . S
C1570 C1571 1.369 . S
C1570 C1574 1.531 . S
C1571 C1570 1.369 . S
C1571 C1572 1.410 . S
C1571 C1579 1.503 . S
C1572 C1571 1.410 . S
C1572 C1573 1.392 . S
C1572 C1575 1.511 . S
C1573 C1569 1.376 . S
C1573 C1572 1.392 . S
C1573 H1585 0.929 . S
C1574 C1570 1.531 . S
C1574 H1586 0.960 . S
C1574 H1587 0.962 . S
C1574 H1588 0.960 . S
C1575 C1572 1.511 . S
C1575 H1589 0.961 . S
C1575 H1590 0.961 . S
C1575 H1591 0.961 . S
C1576 C1577 1.370 1_455 S
C1576 C1578 1.363 . S
C1576 H1592 0.932 . S
C1577 C1576 1.370 1_655 S
C1577 C1581 1.408 . S
C1578 C1576 1.363 . S
C1578 C1579 1.370 . S
C1578 C1582 1.524 . S
C1579 C1571 1.503 . S
C1579 C1578 1.370 . S
C1579 C1580 1.403 . S
C1580 C1579 1.403 . S
C1580 C1581 1.404 1_455 S
C1580 C1583 1.539 . S
C1581 C1577 1.408 . S
C1581 C1580 1.404 1_655 S
C1581 H1593 0.930 . S
C1582 C1578 1.524 . S
C1582 H1594 0.956 . S
C1582 H1595 0.961 . S
C1582 H1596 0.961 . S
C1583 C1580 1.539 . S
C1583 H1597 0.958 . S
C1583 H1598 0.961 . S
C1583 H1599 0.960 . S
H1584 C1568 0.931 . S
H1585 C1573 0.929 . S
H1586 C1574 0.960 . S
H1587 C1574 0.962 . S
H1588 C1574 0.960 . S
H1589 C1575 0.961 . S
H1590 C1575 0.961 . S
H1591 C1575 0.961 . S
H1592 C1576 0.932 . S
H1593 C1581 0.930 . S
H1594 C1582 0.956 . S
H1595 C1582 0.961 . S
H1596 C1582 0.961 . S
H1597 C1583 0.958 . S
H1598 C1583 0.961 . S
H1599 C1583 0.960 . S
C1600 C1601 1.391 . S
C1600 C1602 1.394 . S
C1600 H1616 0.931 . S
C1601 C1600 1.391 . S
C1601 C1605 1.376 . S
C1602 C1600 1.394 . S
C1602 C1603 1.369 . S
C1602 C1606 1.531 . S
C1603 C1602 1.369 . S
C1603 C1604 1.410 . S
C1603 C1611 1.503 . S
C1604 C1603 1.410 . S
C1604 C1605 1.392 . S
C1604 C1607 1.511 . S
C1605 C1601 1.376 . S
C1605 C1604 1.392 . S
C1605 H1617 0.929 . S
C1606 C1602 1.531 . S
C1606 H1618 0.960 . S
C1606 H1619 0.962 . S
C1606 H1620 0.960 . S
C1607 C1604 1.511 . S
C1607 H1621 0.961 . S
C1607 H1622 0.961 . S
C1607 H1623 0.961 . S
C1608 C1609 1.370 . S
C1608 C1610 1.363 . S
C1608 H1624 0.931 . S
C1609 C1608 1.370 . S
C1609 C1613 1.408 . S
C1610 C1608 1.363 . S
C1610 C1611 1.370 . S
C1610 C1614 1.524 . S
C1611 C1603 1.503 . S
C1611 C1610 1.370 . S
C1611 C1612 1.403 . S
C1612 C1611 1.403 . S
C1612 C1613 1.404 . S
C1612 C1615 1.539 . S
C1613 C1609 1.408 . S
C1613 C1612 1.404 . S
C1613 H1625 0.930 . S
C1614 C1610 1.524 . S
C1614 H1626 0.956 . S
C1614 H1627 0.961 . S
C1614 H1628 0.961 . S
C1615 C1612 1.539 . S
C1615 H1629 0.958 . S
C1615 H1630 0.961 . S
C1615 H1631 0.960 . S
H1616 C1600 0.931 . S
H1617 C1605 0.929 . S
H1618 C1606 0.960 . S
H1619 C1606 0.962 . S
H1620 C1606 0.960 . S
H1621 C1607 0.961 . S
H1622 C1607 0.961 . S
H1623 C1607 0.961 . S
H1624 C1608 0.931 . S
H1625 C1613 0.930 . S
H1626 C1614 0.956 . S
H1627 C1614 0.961 . S
H1628 C1614 0.961 . S
H1629 C1615 0.958 . S
H1630 C1615 0.961 . S
H1631 C1615 0.960 . S
C1632 C1633 1.391 1_455 S
C1632 C1634 1.394 . S
C1632 H1648 0.931 . S
C1633 C1632 1.391 1_655 S
C1633 C1637 1.376 . S
C1634 C1632 1.394 . S
C1634 C1635 1.369 . S
C1634 C1638 1.531 . S
C1635 C1634 1.369 . S
C1635 C1636 1.410 . S
C1635 C1643 1.503 . S
C1636 C1635 1.410 . S
C1636 C1637 1.392 1_455 S
C1636 C1639 1.511 . S
C1637 C1633 1.376 . S
C1637 C1636 1.392 1_655 S
C1637 H1649 0.929 . S
C1638 C1634 1.531 . S
C1638 H1650 0.960 . S
C1638 H1651 0.962 . S
C1638 H1652 0.960 . S
C1639 C1636 1.511 . S
C1639 H1653 0.961 1_455 S
C1639 H1654 0.961 . S
C1639 H1655 0.961 . S
C1640 C1641 1.370 . S
C1640 C1642 1.363 . S
C1640 H1656 0.931 . S
C1641 C1640 1.370 . S
C1641 C1645 1.408 . S
C1642 C1640 1.363 . S
C1642 C1643 1.370 . S
C1642 C1646 1.524 . S
C1643 C1635 1.503 . S
C1643 C1642 1.370 . S
C1643 C1644 1.403 . S
C1644 C1643 1.403 . S
C1644 C1645 1.404 . S
C1644 C1647 1.539 . S
C1645 C1641 1.408 . S
C1645 C1644 1.404 . S
C1645 H1657 0.930 . S
C1646 C1642 1.524 . S
C1646 H1658 0.956 . S
C1646 H1659 0.961 . S
C1646 H1660 0.961 . S
C1647 C1644 1.539 . S
C1647 H1661 0.958 . S
C1647 H1662 0.961 . S
C1647 H1663 0.960 . S
H1648 C1632 0.931 . S
H1649 C1637 0.929 . S
H1650 C1638 0.960 . S
H1651 C1638 0.962 . S
H1652 C1638 0.960 . S
H1653 C1639 0.961 1_655 S
H1654 C1639 0.961 . S
H1655 C1639 0.961 . S
H1656 C1640 0.931 . S
H1657 C1645 0.930 . S
H1658 C1646 0.956 . S
H1659 C1646 0.961 . S
H1660 C1646 0.961 . S
H1661 C1647 0.958 . S
H1662 C1647 0.961 . S
H1663 C1647 0.960 . S
C1664 C1665 1.391 . S
C1664 C1666 1.394 . S
C1664 H1680 0.931 . S
C1665 C1664 1.391 . S
C1665 C1669 1.376 . S
C1666 C1664 1.394 . S
C1666 C1667 1.369 . S
C1666 C1670 1.531 . S
C1667 C1666 1.369 . S
C1667 C1668 1.410 . S
C1667 C1675 1.503 . S
C1668 C1667 1.410 . S
C1668 C1669 1.392 . S
C1668 C1671 1.511 . S
C1669 C1665 1.376 . S
C1669 C1668 1.392 . S
C1669 H1681 0.929 . S
C1670 C1666 1.531 . S
C1670 H1682 0.960 . S
C1670 H1683 0.962 . S
C1670 H1684 0.960 . S
C1671 C1668 1.511 . S
C1671 H1685 0.961 . S
C1671 H1686 0.961 . S
C1671 H1687 0.961 . S
C1672 C1673 1.370 . S
C1672 C1674 1.363 . S
C1672 H1688 0.931 . S
C1673 C1672 1.370 . S
C1673 C1677 1.408 . S
C1674 C1672 1.363 . S
C1674 C1675 1.370 . S
C1674 C1678 1.524 . S
C1675 C1667 1.503 . S
C1675 C1674 1.370 . S
C1675 C1676 1.403 . S
C1676 C1675 1.403 . S
C1676 C1677 1.404 . S
C1676 C1679 1.539 . S
C1677 C1673 1.408 . S
C1677 C1676 1.404 . S
C1677 H1689 0.930 . S
C1678 C1674 1.524 . S
C1678 H1690 0.956 . S
C1678 H1691 0.961 . S
C1678 H1692 0.961 . S
C1679 C1676 1.539 . S
C1679 H1693 0.958 . S
C1679 H1694 0.961 . S
C1679 H1695 0.960 . S
H1680 C1664 0.931 . S
H1681 C1669 0.929 . S
H1682 C1670 0.960 . S
H1683 C1670 0.962 . S
H1684 C1670 0.960 . S
H1685 C1671 0.961 . S
H1686 C1671 0.961 . S
H1687 C1671 0.961 . S
H1688 C1672 0.931 . S
H1689 C1677 0.930 . S
H1690 C1678 0.956 . S
H1691 C1678 0.961 . S
H1692 C1678 0.961 . S
H1693 C1679 0.958 . S
H1694 C1679 0.961 . S
H1695 C1679 0.960 . S
C1696 C1697 1.391 . S
C1696 C1698 1.394 . S
C1696 H1712 0.931 . S
C1697 C1696 1.391 . S
C1697 C1701 1.376 . S
C1698 C1696 1.394 . S
C1698 C1699 1.369 . S
C1698 C1702 1.531 . S
C1699 C1698 1.369 . S
C1699 C1700 1.410 . S
C1699 C1707 1.503 . S
C1700 C1699 1.410 . S
C1700 C1701 1.392 . S
C1700 C1703 1.511 . S
C1701 C1697 1.376 . S
C1701 C1700 1.392 . S
C1701 H1713 0.929 . S
C1702 C1698 1.531 . S
C1702 H1714 0.960 . S
C1702 H1715 0.962 . S
C1702 H1716 0.960 . S
C1703 C1700 1.511 . S
C1703 H1717 0.961 . S
C1703 H1718 0.961 . S
C1703 H1719 0.961 . S
C1704 C1705 1.370 . S
C1704 C1706 1.363 . S
C1704 H1720 0.931 . S
C1705 C1704 1.370 . S
C1705 C1709 1.408 . S
C1706 C1704 1.363 . S
C1706 C1707 1.370 . S
C1706 C1710 1.524 . S
C1707 C1699 1.503 . S
C1707 C1706 1.370 . S
C1707 C1708 1.403 . S
C1708 C1707 1.403 . S
C1708 C1709 1.404 . S
C1708 C1711 1.539 . S
C1709 C1705 1.408 . S
C1709 C1708 1.404 . S
C1709 H1721 0.930 . S
C1710 C1706 1.524 . S
C1710 H1722 0.956 . S
C1710 H1723 0.961 . S
C1710 H1724 0.961 . S
C1711 C1708 1.539 . S
C1711 H1725 0.958 . S
C1711 H1726 0.961 . S
C1711 H1727 0.960 . S
H1712 C1696 0.931 . S
H1713 C1701 0.929 . S
H1714 C1702 0.960 . S
H1715 C1702 0.962 . S
H1716 C1702 0.960 . S
H1717 C1703 0.961 . S
H1718 C1703 0.961 . S
H1719 C1703 0.961 . S
H1720 C1704 0.931 . S
H1721 C1709 0.930 . S
H1722 C1710 0.956 . S
H1723 C1710 0.961 . S
H1724 C1710 0.961 . S
H1725 C1711 0.958 . S
H1726 C1711 0.961 . S
H1727 C1711 0.960 . S
C1728 C1729 1.391 . S
C1728 C1730 1.394 . S
C1728 H1744 0.931 . S
C1729 C1728 1.391 . S
C1729 C1733 1.376 . S
C1730 C1728 1.394 . S
C1730 C1731 1.369 . S
C1730 C1734 1.531 . S
C1731 C1730 1.369 . S
C1731 C1732 1.410 . S
C1731 C1739 1.503 . S
C1732 C1731 1.410 . S
C1732 C1733 1.392 . S
C1732 C1735 1.511 . S
C1733 C1729 1.376 . S
C1733 C1732 1.392 . S
C1733 H1745 0.929 . S
C1734 C1730 1.531 . S
C1734 H1746 0.960 . S
C1734 H1747 0.962 . S
C1734 H1748 0.960 . S
C1735 C1732 1.511 . S
C1735 H1749 0.961 . S
C1735 H1750 0.961 . S
C1735 H1751 0.961 . S
C1736 C1737 1.370 . S
C1736 C1738 1.363 . S
C1736 H1752 0.931 . S
C1737 C1736 1.370 . S
C1737 C1741 1.408 . S
C1738 C1736 1.363 . S
C1738 C1739 1.370 . S
C1738 C1742 1.524 . S
C1739 C1731 1.503 . S
C1739 C1738 1.370 . S
C1739 C1740 1.403 . S
C1740 C1739 1.403 . S
C1740 C1741 1.404 . S
C1740 C1743 1.539 . S
C1741 C1737 1.408 . S
C1741 C1740 1.404 . S
C1741 H1753 0.930 . S
C1742 C1738 1.524 . S
C1742 H1754 0.956 . S
C1742 H1755 0.961 . S
C1742 H1756 0.961 . S
C1743 C1740 1.539 . S
C1743 H1757 0.958 . S
C1743 H1758 0.961 . S
C1743 H1759 0.960 . S
H1744 C1728 0.931 . S
H1745 C1733 0.929 . S
H1746 C1734 0.960 . S
H1747 C1734 0.962 . S
H1748 C1734 0.960 . S
H1749 C1735 0.961 . S
H1750 C1735 0.961 . S
H1751 C1735 0.961 . S
H1752 C1736 0.931 . S
H1753 C1741 0.930 . S
H1754 C1742 0.956 . S
H1755 C1742 0.961 . S
H1756 C1742 0.961 . S
H1757 C1743 0.958 . S
H1758 C1743 0.961 . S
H1759 C1743 0.960 . S
C1760 C1761 1.391 . S
C1760 C1762 1.394 . S
C1760 H1776 0.931 . S
C1761 C1760 1.391 . S
C1761 C1765 1.376 . S
C1762 C1760 1.394 . S
C1762 C1763 1.369 . S
C1762 C1766 1.531 . S
C1763 C1762 1.369 . S
C1763 C1764 1.410 . S
C1763 C1771 1.503 . S
C1764 C1763 1.410 . S
C1764 C1765 1.392 . S
C1764 C1767 1.511 . S
C1765 C1761 1.376 . S
C1765 C1764 1.392 . S
C1765 H1777 0.929 . S
C1766 C1762 1.531 . S
C1766 H1778 0.960 . S
C1766 H1779 0.962 . S
C1766 H1780 0.960 . S
C1767 C1764 1.511 . S
C1767 H1781 0.961 . S
C1767 H1782 0.961 . S
C1767 H1783 0.961 . S
C1768 C1769 1.370 . S
C1768 C1770 1.363 . S
C1768 H1784 0.931 . S
C1769 C1768 1.370 . S
C1769 C1773 1.408 . S
C1770 C1768 1.363 . S
C1770 C1771 1.370 . S
C1770 C1774 1.524 . S
C1771 C1763 1.503 . S
C1771 C1770 1.370 . S
C1771 C1772 1.403 . S
C1772 C1771 1.403 . S
C1772 C1773 1.404 . S
C1772 C1775 1.539 . S
C1773 C1769 1.408 . S
C1773 C1772 1.404 . S
C1773 H1785 0.930 . S
C1774 C1770 1.524 . S
C1774 H1786 0.956 . S
C1774 H1787 0.961 . S
C1774 H1788 0.961 . S
C1775 C1772 1.539 . S
C1775 H1789 0.958 . S
C1775 H1790 0.961 . S
C1775 H1791 0.960 . S
H1776 C1760 0.931 . S
H1777 C1765 0.929 . S
H1778 C1766 0.960 . S
H1779 C1766 0.962 . S
H1780 C1766 0.960 . S
H1781 C1767 0.961 . S
H1782 C1767 0.961 . S
H1783 C1767 0.961 . S
H1784 C1768 0.931 . S
H1785 C1773 0.930 . S
H1786 C1774 0.956 . S
H1787 C1774 0.961 . S
H1788 C1774 0.961 . S
H1789 C1775 0.958 . S
H1790 C1775 0.961 . S
H1791 C1775 0.960 . S
C1792 C1793 1.391 . S
C1792 C1794 1.394 . S
C1792 H1808 0.931 . S
C1793 C1792 1.391 . S
C1793 C1797 1.376 . S
C1794 C1792 1.394 . S
C1794 C1795 1.369 . S
C1794 C1798 1.531 . S
C1795 C1794 1.369 . S
C1795 C1796 1.410 . S
C1795 C1803 1.503 . S
C1796 C1795 1.410 . S
C1796 C1797 1.392 . S
C1796 C1799 1.511 . S
C1797 C1793 1.376 . S
C1797 C1796 1.392 . S
C1797 H1809 0.929 . S
C1798 C1794 1.531 . S
C1798 H1810 0.960 . S
C1798 H1811 0.962 . S
C1798 H1812 0.960 . S
C1799 C1796 1.511 . S
C1799 H1813 0.961 . S
C1799 H1814 0.961 . S
C1799 H1815 0.961 . S
C1800 C1801 1.370 . S
C1800 C1802 1.363 . S
C1800 H1816 0.931 . S
C1801 C1800 1.370 . S
C1801 C1805 1.408 . S
C1802 C1800 1.363 . S
C1802 C1803 1.370 . S
C1802 C1806 1.524 . S
C1803 C1795 1.503 . S
C1803 C1802 1.370 . S
C1803 C1804 1.403 . S
C1804 C1803 1.403 . S
C1804 C1805 1.404 . S
C1804 C1807 1.539 . S
C1805 C1801 1.408 . S
C1805 C1804 1.404 . S
C1805 H1817 0.930 . S
C1806 C1802 1.524 . S
C1806 H1818 0.956 . S
C1806 H1819 0.961 . S
C1806 H1820 0.961 . S
C1807 C1804 1.539 . S
C1807 H1821 0.958 . S
C1807 H1822 0.961 . S
C1807 H1823 0.960 . S
H1808 C1792 0.931 . S
H1809 C1797 0.929 . S
H1810 C1798 0.960 . S
H1811 C1798 0.962 . S
H1812 C1798 0.960 . S
H1813 C1799 0.961 . S
H1814 C1799 0.961 . S
H1815 C1799 0.961 . S
H1816 C1800 0.931 . S
H1817 C1805 0.930 . S
H1818 C1806 0.956 . S
H1819 C1806 0.961 . S
H1820 C1806 0.961 . S
H1821 C1807 0.958 . S
H1822 C1807 0.961 . S
H1823 C1807 0.960 . S
C1824 C1825 1.391 . S
C1824 C1826 1.394 . S
C1824 H1840 0.931 . S
C1825 C1824 1.391 . S
C1825 C1829 1.376 . S
C1826 C1824 1.394 . S
C1826 C1827 1.369 . S
C1826 C1830 1.531 . S
C1827 C1826 1.369 . S
C1827 C1828 1.410 . S
C1827 C1835 1.503 . S
C1828 C1827 1.410 . S
C1828 C1829 1.392 . S
C1828 C1831 1.511 . S
C1829 C1825 1.376 . S
C1829 C1828 1.392 . S
C1829 H1841 0.929 . S
C1830 C1826 1.531 . S
C1830 H1842 0.960 . S
C1830 H1843 0.962 . S
C1830 H1844 0.960 . S
C1831 C1828 1.511 . S
C1831 H1845 0.961 . S
C1831 H1846 0.961 . S
C1831 H1847 0.961 . S
C1832 C1833 1.370 . S
C1832 C1834 1.363 1_455 S
C1832 H1848 0.931 . S
C1833 C1832 1.370 . S
C1833 C1837 1.408 . S
C1834 C1832 1.363 1_655 S
C1834 C1835 1.370 . S
C1834 C1838 1.524 . S
C1835 C1827 1.503 . S
C1835 C1834 1.370 . S
C1835 C1836 1.403 . S
C1836 C1835 1.403 . S
C1836 C1837 1.404 1_655 S
C1836 C1839 1.539 . S
C1837 C1833 1.408 . S
C1837 C1836 1.404 1_455 S
C1837 H1849 0.930 . S
C1838 C1834 1.524 . S
C1838 H1850 0.956 . S
C1838 H1851 0.961 . S
C1838 H1852 0.961 . S
C1839 C1836 1.539 . S
C1839 H1853 0.958 . S
C1839 H1854 0.961 . S
C1839 H1855 0.960 . S
H1840 C1824 0.931 . S
H1841 C1829 0.929 . S
H1842 C1830 0.960 . S
H1843 C1830 0.962 . S
H1844 C1830 0.960 . S
H1845 C1831 0.961 . S
H1846 C1831 0.961 . S
H1847 C1831 0.961 . S
H1848 C1832 0.931 . S
H1849 C1837 0.930 . S
H1850 C1838 0.956 . S
H1851 C1838 0.961 . S
H1852 C1838 0.961 . S
H1853 C1839 0.958 . S
H1854 C1839 0.961 . S
H1855 C1839 0.960 . S
C1856 C1857 1.391 . S
C1856 C1858 1.394 . S
C1856 H1872 0.931 . S
C1857 C1856 1.391 . S
C1857 C1861 1.376 . S
C1858 C1856 1.394 . S
C1858 C1859 1.369 . S
C1858 C1862 1.531 . S
C1859 C1858 1.369 . S
C1859 C1860 1.410 . S
C1859 C1867 1.503 . S
C1860 C1859 1.410 . S
C1860 C1861 1.392 . S
C1860 C1863 1.511 . S
C1861 C1857 1.376 . S
C1861 C1860 1.392 . S
C1861 H1873 0.929 . S
C1862 C1858 1.531 . S
C1862 H1874 0.960 . S
C1862 H1875 0.962 . S
C1862 H1876 0.960 . S
C1863 C1860 1.511 . S
C1863 H1877 0.961 . S
C1863 H1878 0.961 . S
C1863 H1879 0.961 . S
C1864 C1865 1.370 . S
C1864 C1866 1.363 . S
C1864 H1880 0.931 . S
C1865 C1864 1.370 . S
C1865 C1869 1.408 . S
C1866 C1864 1.363 . S
C1866 C1867 1.370 . S
C1866 C1870 1.524 . S
C1867 C1859 1.503 . S
C1867 C1866 1.370 . S
C1867 C1868 1.403 . S
C1868 C1867 1.403 . S
C1868 C1869 1.404 . S
C1868 C1871 1.539 . S
C1869 C1865 1.408 . S
C1869 C1868 1.404 . S
C1869 H1881 0.930 . S
C1870 C1866 1.524 . S
C1870 H1882 0.956 . S
C1870 H1883 0.961 . S
C1870 H1884 0.961 . S
C1871 C1868 1.539 . S
C1871 H1885 0.958 . S
C1871 H1886 0.961 . S
C1871 H1887 0.960 . S
H1872 C1856 0.931 . S
H1873 C1861 0.929 . S
H1874 C1862 0.960 . S
H1875 C1862 0.962 . S
H1876 C1862 0.960 . S
H1877 C1863 0.961 . S
H1878 C1863 0.961 . S
H1879 C1863 0.961 . S
H1880 C1864 0.931 . S
H1881 C1869 0.930 . S
H1882 C1870 0.956 . S
H1883 C1870 0.961 . S
H1884 C1870 0.961 . S
H1885 C1871 0.958 . S
H1886 C1871 0.961 . S
H1887 C1871 0.960 . S
C1888 C1889 1.377 1_655 S
C1888 C1890 1.411 . S
C1888 H1904 0.927 1_655 S
C1889 C1888 1.377 1_455 S
C1889 C1893 1.376 . S
C1890 C1888 1.411 . S
C1890 C1891 1.369 . S
C1890 C1894 1.531 . S
C1891 C1890 1.369 . S
C1891 C1892 1.410 . S
C1891 C1899 1.503 . S
C1892 C1891 1.410 . S
C1892 C1893 1.392 1_655 S
C1892 C1895 1.511 . S
C1893 C1889 1.376 . S
C1893 C1892 1.392 1_455 S
C1893 H1905 0.929 . S
C1894 C1890 1.531 . S
C1894 H1906 0.960 . S
C1894 H1907 0.962 . S
C1894 H1908 0.960 . S
C1895 C1892 1.511 . S
C1895 H1909 0.961 . S
C1895 H1910 0.961 . S
C1895 H1911 0.961 . S
C1896 C1897 1.370 . S
C1896 C1898 1.363 . S
C1896 H1912 0.931 . S
C1897 C1896 1.370 . S
C1897 C1901 1.408 . S
C1898 C1896 1.363 . S
C1898 C1899 1.370 . S
C1898 C1902 1.524 . S
C1899 C1891 1.503 . S
C1899 C1898 1.370 . S
C1899 C1900 1.403 . S
C1900 C1899 1.403 . S
C1900 C1901 1.404 . S
C1900 C1903 1.539 . S
C1901 C1897 1.408 . S
C1901 C1900 1.404 . S
C1901 H1913 0.930 . S
C1902 C1898 1.524 . S
C1902 H1914 0.956 . S
C1902 H1915 0.961 . S
C1902 H1916 0.961 . S
C1903 C1900 1.539 . S
C1903 H1917 0.958 . S
C1903 H1918 0.961 . S
C1903 H1919 0.960 . S
H1904 C1888 0.927 1_455 S
H1905 C1893 0.929 . S
H1906 C1894 0.960 . S
H1907 C1894 0.962 . S
H1908 C1894 0.960 . S
H1909 C1895 0.961 . S
H1910 C1895 0.961 . S
H1911 C1895 0.961 . S
H1912 C1896 0.931 . S
H1913 C1901 0.930 . S
H1914 C1902 0.956 . S
H1915 C1902 0.961 . S
H1916 C1902 0.961 . S
H1917 C1903 0.958 . S
H1918 C1903 0.961 . S
H1919 C1903 0.960 . S
C1920 C1921 1.391 . S
C1920 C1922 1.394 . S
C1920 H1936 0.931 . S
C1921 C1920 1.391 . S
C1921 C1925 1.376 . S
C1922 C1920 1.394 . S
C1922 C1923 1.369 . S
C1922 C1926 1.531 . S
C1923 C1922 1.369 . S
C1923 C1924 1.410 . S
C1923 C1931 1.503 . S
C1924 C1923 1.410 . S
C1924 C1925 1.392 . S
C1924 C1927 1.511 . S
C1925 C1921 1.376 . S
C1925 C1924 1.392 . S
C1925 H1937 0.929 . S
C1926 C1922 1.531 . S
C1926 H1938 0.960 . S
C1926 H1939 0.962 . S
C1926 H1940 0.960 . S
C1927 C1924 1.511 . S
C1927 H1941 0.961 . S
C1927 H1942 0.961 . S
C1927 H1943 0.961 . S
C1928 C1929 1.370 . S
C1928 C1930 1.363 . S
C1928 H1944 0.931 . S
C1929 C1928 1.370 . S
C1929 C1933 1.408 . S
C1930 C1928 1.363 . S
C1930 C1931 1.370 . S
C1930 C1934 1.524 . S
C1931 C1923 1.503 . S
C1931 C1930 1.370 . S
C1931 C1932 1.403 . S
C1932 C1931 1.403 . S
C1932 C1933 1.404 . S
C1932 C1935 1.539 . S
C1933 C1929 1.408 . S
C1933 C1932 1.404 . S
C1933 H1945 0.930 . S
C1934 C1930 1.524 . S
C1934 H1946 0.956 . S
C1934 H1947 0.961 . S
C1934 H1948 0.961 . S
C1935 C1932 1.539 . S
C1935 H1949 0.958 . S
C1935 H1950 0.961 . S
C1935 H1951 0.960 . S
H1936 C1920 0.931 . S
H1937 C1925 0.929 . S
H1938 C1926 0.960 . S
H1939 C1926 0.962 . S
H1940 C1926 0.960 . S
H1941 C1927 0.961 . S
H1942 C1927 0.961 . S
H1943 C1927 0.961 . S
H1944 C1928 0.931 . S
H1945 C1933 0.930 . S
H1946 C1934 0.956 . S
H1947 C1934 0.961 . S
H1948 C1934 0.961 . S
H1949 C1935 0.958 . S
H1950 C1935 0.961 . S
H1951 C1935 0.960 . S
C1952 C1953 1.391 . S
C1952 C1954 1.394 . S
C1952 H1968 0.931 . S
C1953 C1952 1.391 . S
C1953 C1957 1.376 . S
C1954 C1952 1.394 . S
C1954 C1955 1.369 . S
C1954 C1958 1.531 . S
C1955 C1954 1.369 . S
C1955 C1956 1.410 . S
C1955 C1963 1.503 . S
C1956 C1955 1.410 . S
C1956 C1957 1.392 . S
C1956 C1959 1.511 . S
C1957 C1953 1.376 . S
C1957 C1956 1.392 . S
C1957 H1969 0.929 . S
C1958 C1954 1.531 . S
C1958 H1970 0.960 . S
C1958 H1971 0.962 . S
C1958 H1972 0.960 . S
C1959 C1956 1.511 . S
C1959 H1973 0.961 . S
C1959 H1974 0.961 . S
C1959 H1975 0.961 . S
C1960 C1961 1.370 . S
C1960 C1962 1.363 . S
C1960 H1976 0.931 . S
C1961 C1960 1.370 . S
C1961 C1965 1.408 . S
C1962 C1960 1.363 . S
C1962 C1963 1.370 . S
C1962 C1966 1.524 . S
C1963 C1955 1.503 . S
C1963 C1962 1.370 . S
C1963 C1964 1.403 . S
C1964 C1963 1.403 . S
C1964 C1965 1.404 . S
C1964 C1967 1.539 . S
C1965 C1961 1.408 . S
C1965 C1964 1.404 . S
C1965 H1977 0.930 . S
C1966 C1962 1.524 . S
C1966 H1978 0.956 . S
C1966 H1979 0.961 . S
C1966 H1980 0.961 . S
C1967 C1964 1.539 . S
C1967 H1981 0.958 . S
C1967 H1982 0.961 . S
C1967 H1983 0.960 . S
H1968 C1952 0.931 . S
H1969 C1957 0.929 . S
H1970 C1958 0.960 . S
H1971 C1958 0.962 . S
H1972 C1958 0.960 . S
H1973 C1959 0.961 . S
H1974 C1959 0.961 . S
H1975 C1959 0.961 . S
H1976 C1960 0.931 . S
H1977 C1965 0.930 . S
H1978 C1966 0.956 . S
H1979 C1966 0.961 . S
H1980 C1966 0.961 . S
H1981 C1967 0.958 . S
H1982 C1967 0.961 . S
H1983 C1967 0.960 . S
C1984 C1985 1.391 . S
C1984 C1986 1.394 . S
C1984 H2000 0.931 . S
C1985 C1984 1.391 . S
C1985 C1989 1.376 . S
C1986 C1984 1.394 . S
C1986 C1987 1.369 . S
C1986 C1990 1.531 . S
C1987 C1986 1.369 . S
C1987 C1988 1.410 . S
C1987 C1995 1.503 . S
C1988 C1987 1.410 . S
C1988 C1989 1.392 . S
C1988 C1991 1.511 . S
C1989 C1985 1.376 . S
C1989 C1988 1.392 . S
C1989 H2001 0.929 . S
C1990 C1986 1.531 . S
C1990 H2002 0.960 . S
C1990 H2003 0.962 . S
C1990 H2004 0.960 . S
C1991 C1988 1.511 . S
C1991 H2005 0.961 . S
C1991 H2006 0.961 . S
C1991 H2007 0.961 . S
C1992 C1993 1.370 . S
C1992 C1994 1.363 . S
C1992 H2008 0.931 . S
C1993 C1992 1.370 . S
C1993 C1997 1.408 . S
C1994 C1992 1.363 . S
C1994 C1995 1.370 . S
C1994 C1998 1.524 . S
C1995 C1987 1.503 . S
C1995 C1994 1.370 . S
C1995 C1996 1.403 . S
C1996 C1995 1.403 . S
C1996 C1997 1.404 . S
C1996 C1999 1.539 . S
C1997 C1993 1.408 . S
C1997 C1996 1.404 . S
C1997 H2009 0.930 . S
C1998 C1994 1.524 . S
C1998 H2010 0.956 . S
C1998 H2011 0.961 . S
C1998 H2012 0.961 . S
C1999 C1996 1.539 . S
C1999 H2013 0.958 . S
C1999 H2014 0.961 . S
C1999 H2015 0.960 . S
H2000 C1984 0.931 . S
H2001 C1989 0.929 . S
H2002 C1990 0.960 . S
H2003 C1990 0.962 . S
H2004 C1990 0.960 . S
H2005 C1991 0.961 . S
H2006 C1991 0.961 . S
H2007 C1991 0.961 . S
H2008 C1992 0.931 . S
H2009 C1997 0.930 . S
H2010 C1998 0.956 . S
H2011 C1998 0.961 . S
H2012 C1998 0.961 . S
H2013 C1999 0.958 . S
H2014 C1999 0.961 . S
H2015 C1999 0.960 . S
C2016 C2017 1.391 . S
C2016 C2018 1.394 . S
C2016 H2032 0.931 . S
C2017 C2016 1.391 . S
C2017 C2021 1.376 . S
C2018 C2016 1.394 . S
C2018 C2019 1.369 . S
C2018 C2022 1.531 . S
C2019 C2018 1.369 . S
C2019 C2020 1.410 . S
C2019 C2027 1.503 . S
C2020 C2019 1.410 . S
C2020 C2021 1.392 . S
C2020 C2023 1.511 . S
C2021 C2017 1.376 . S
C2021 C2020 1.392 . S
C2021 H2033 0.929 . S
C2022 C2018 1.531 . S
C2022 H2034 0.960 . S
C2022 H2035 0.962 . S
C2022 H2036 0.960 . S
C2023 C2020 1.511 . S
C2023 H2037 0.961 . S
C2023 H2038 0.961 . S
C2023 H2039 0.961 . S
C2024 C2025 1.370 . S
C2024 C2026 1.363 . S
C2024 H2040 0.931 . S
C2025 C2024 1.370 . S
C2025 C2029 1.408 . S
C2026 C2024 1.363 . S
C2026 C2027 1.370 . S
C2026 C2030 1.524 . S
C2027 C2019 1.503 . S
C2027 C2026 1.370 . S
C2027 C2028 1.403 . S
C2028 C2027 1.403 . S
C2028 C2029 1.404 . S
C2028 C2031 1.539 . S
C2029 C2025 1.408 . S
C2029 C2028 1.404 . S
C2029 H2041 0.930 . S
C2030 C2026 1.524 . S
C2030 H2042 0.956 . S
C2030 H2043 0.961 . S
C2030 H2044 0.961 . S
C2031 C2028 1.539 . S
C2031 H2045 0.958 . S
C2031 H2046 0.961 . S
C2031 H2047 0.960 . S
H2032 C2016 0.931 . S
H2033 C2021 0.929 . S
H2034 C2022 0.960 . S
H2035 C2022 0.962 . S
H2036 C2022 0.960 . S
H2037 C2023 0.961 . S
H2038 C2023 0.961 . S
H2039 C2023 0.961 . S
H2040 C2024 0.931 . S
H2041 C2029 0.930 . S
H2042 C2030 0.956 . S
H2043 C2030 0.961 . S
H2044 C2030 0.961 . S
H2045 C2031 0.958 . S
H2046 C2031 0.961 . S
H2047 C2031 0.960 . S
C2048 C2049 1.391 . S
C2048 C2050 1.394 . S
C2048 H2064 0.931 . S
C2049 C2048 1.391 . S
C2049 C2053 1.376 . S
C2050 C2048 1.394 . S
C2050 C2051 1.369 . S
C2050 C2054 1.531 . S
C2051 C2050 1.369 . S
C2051 C2052 1.410 . S
C2051 C2059 1.503 . S
C2052 C2051 1.410 . S
C2052 C2053 1.392 . S
C2052 C2055 1.511 . S
C2053 C2049 1.376 . S
C2053 C2052 1.392 . S
C2053 H2065 0.929 . S
C2054 C2050 1.531 . S
C2054 H2066 0.960 . S
C2054 H2067 0.962 . S
C2054 H2068 0.960 . S
C2055 C2052 1.511 . S
C2055 H2069 0.961 . S
C2055 H2070 0.961 . S
C2055 H2071 0.961 . S
C2056 C2057 1.370 . S
C2056 C2058 1.363 . S
C2056 H2072 0.931 . S
C2057 C2056 1.370 . S
C2057 C2061 1.408 . S
C2058 C2056 1.363 . S
C2058 C2059 1.370 . S
C2058 C2062 1.524 . S
C2059 C2051 1.503 . S
C2059 C2058 1.370 . S
C2059 C2060 1.403 . S
C2060 C2059 1.403 . S
C2060 C2061 1.404 . S
C2060 C2063 1.539 . S
C2061 C2057 1.408 . S
C2061 C2060 1.404 . S
C2061 H2073 0.930 . S
C2062 C2058 1.524 . S
C2062 H2074 0.956 . S
C2062 H2075 0.961 . S
C2062 H2076 0.961 . S
C2063 C2060 1.539 . S
C2063 H2077 0.958 . S
C2063 H2078 0.961 . S
C2063 H2079 0.960 . S
H2064 C2048 0.931 . S
H2065 C2053 0.929 . S
H2066 C2054 0.960 . S
H2067 C2054 0.962 . S
H2068 C2054 0.960 . S
H2069 C2055 0.961 . S
H2070 C2055 0.961 . S
H2071 C2055 0.961 . S
H2072 C2056 0.931 . S
H2073 C2061 0.930 . S
H2074 C2062 0.956 . S
H2075 C2062 0.961 . S
H2076 C2062 0.961 . S
H2077 C2063 0.958 . S
H2078 C2063 0.961 . S
H2079 C2063 0.960 . S
C2080 C2081 1.393 . S
C2080 C2082 1.393 1_556 S
C2080 H2096 0.929 1_556 S
C2081 C2080 1.393 . S
C2081 C2085 1.376 . S
C2082 C2080 1.393 1_554 S
C2082 C2083 1.369 1_554 S
C2082 C2086 1.531 . S
C2083 C2082 1.369 1_556 S
C2083 C2084 1.410 . S
C2083 C2091 1.503 1_556 S
C2084 C2083 1.410 . S
C2084 C2085 1.392 . S
C2084 C2087 1.511 . S
C2085 C2081 1.376 . S
C2085 C2084 1.392 . S
C2085 H2097 0.929 . S
C2086 C2082 1.531 . S
C2086 H2098 0.960 . S
C2086 H2099 0.962 . S
C2086 H2100 0.960 . S
C2087 C2084 1.511 . S
C2087 H2101 0.961 . S
C2087 H2102 0.961 . S
C2087 H2103 0.961 . S
C2088 C2089 1.370 . S
C2088 C2090 1.363 . S
C2088 H2104 0.931 . S
C2089 C2088 1.370 . S
C2089 C2093 1.408 . S
C2090 C2088 1.363 . S
C2090 C2091 1.370 . S
C2090 C2094 1.524 . S
C2091 C2083 1.503 1_554 S
C2091 C2090 1.370 . S
C2091 C2092 1.403 . S
C2092 C2091 1.403 . S
C2092 C2093 1.404 . S
C2092 C2095 1.539 . S
C2093 C2089 1.408 . S
C2093 C2092 1.404 . S
C2093 H2105 0.930 . S
C2094 C2090 1.524 . S
C2094 H2106 0.956 . S
C2094 H2107 0.961 1_554 S
C2094 H2108 0.961 . S
C2095 C2092 1.539 . S
C2095 H2109 0.958 . S
C2095 H2110 0.961 1_554 S
C2095 H2111 0.960 1_554 S
H2096 C2080 0.929 1_554 S
H2097 C2085 0.929 . S
H2098 C2086 0.960 . S
H2099 C2086 0.962 . S
H2100 C2086 0.960 . S
H2101 C2087 0.961 . S
H2102 C2087 0.961 . S
H2103 C2087 0.961 . S
H2104 C2088 0.931 . S
H2105 C2093 0.930 . S
H2106 C2094 0.956 . S
H2107 C2094 0.961 1_556 S
H2108 C2094 0.961 . S
H2109 C2095 0.958 . S
H2110 C2095 0.961 1_556 S
H2111 C2095 0.960 1_556 S
C2112 C2113 1.391 . S
C2112 C2114 1.394 . S
C2112 H2128 0.931 . S
C2113 C2112 1.391 . S
C2113 C2117 1.376 . S
C2114 C2112 1.394 . S
C2114 C2115 1.369 . S
C2114 C2118 1.531 . S
C2115 C2114 1.369 . S
C2115 C2116 1.410 . S
C2115 C2123 1.503 . S
C2116 C2115 1.410 . S
C2116 C2117 1.392 . S
C2116 C2119 1.511 . S
C2117 C2113 1.376 . S
C2117 C2116 1.392 . S
C2117 H2129 0.929 . S
C2118 C2114 1.531 . S
C2118 H2130 0.960 . S
C2118 H2131 0.962 . S
C2118 H2132 0.960 . S
C2119 C2116 1.511 . S
C2119 H2133 0.961 . S
C2119 H2134 0.961 . S
C2119 H2135 0.961 . S
C2120 C2121 1.370 . S
C2120 C2122 1.363 . S
C2120 H2136 0.931 . S
C2121 C2120 1.370 . S
C2121 C2125 1.408 . S
C2122 C2120 1.363 . S
C2122 C2123 1.370 . S
C2122 C2126 1.524 . S
C2123 C2115 1.503 . S
C2123 C2122 1.370 . S
C2123 C2124 1.403 . S
C2124 C2123 1.403 . S
C2124 C2125 1.404 . S
C2124 C2127 1.539 . S
C2125 C2121 1.408 . S
C2125 C2124 1.404 . S
C2125 H2137 0.930 . S
C2126 C2122 1.524 . S
C2126 H2138 0.956 . S
C2126 H2139 0.961 . S
C2126 H2140 0.961 . S
C2127 C2124 1.539 . S
C2127 H2141 0.958 . S
C2127 H2142 0.961 . S
C2127 H2143 0.960 . S
H2128 C2112 0.931 . S
H2129 C2117 0.929 . S
H2130 C2118 0.960 . S
H2131 C2118 0.962 . S
H2132 C2118 0.960 . S
H2133 C2119 0.961 . S
H2134 C2119 0.961 . S
H2135 C2119 0.961 . S
H2136 C2120 0.931 . S
H2137 C2125 0.930 . S
H2138 C2126 0.956 . S
H2139 C2126 0.961 . S
H2140 C2126 0.961 . S
H2141 C2127 0.958 . S
H2142 C2127 0.961 . S
H2143 C2127 0.960 . S
C2144 C2145 1.391 . S
C2144 C2146 1.394 . S
C2144 H2160 0.931 . S
C2145 C2144 1.391 . S
C2145 C2149 1.376 . S
C2146 C2144 1.394 . S
C2146 C2147 1.369 . S
C2146 C2150 1.531 . S
C2147 C2146 1.369 . S
C2147 C2148 1.410 . S
C2147 C2155 1.503 . S
C2148 C2147 1.410 . S
C2148 C2149 1.392 . S
C2148 C2151 1.511 . S
C2149 C2145 1.376 . S
C2149 C2148 1.392 . S
C2149 H2161 0.929 . S
C2150 C2146 1.531 . S
C2150 H2162 0.960 . S
C2150 H2163 0.962 . S
C2150 H2164 0.960 . S
C2151 C2148 1.511 . S
C2151 H2165 0.961 . S
C2151 H2166 0.961 . S
C2151 H2167 0.961 . S
C2152 C2153 1.370 . S
C2152 C2154 1.363 . S
C2152 H2168 0.931 . S
C2153 C2152 1.370 . S
C2153 C2157 1.408 . S
C2154 C2152 1.363 . S
C2154 C2155 1.370 . S
C2154 C2158 1.524 . S
C2155 C2147 1.503 . S
C2155 C2154 1.370 . S
C2155 C2156 1.403 . S
C2156 C2155 1.403 . S
C2156 C2157 1.404 . S
C2156 C2159 1.539 . S
C2157 C2153 1.408 . S
C2157 C2156 1.404 . S
C2157 H2169 0.930 . S
C2158 C2154 1.524 . S
C2158 H2170 0.956 . S
C2158 H2171 0.961 . S
C2158 H2172 0.961 . S
C2159 C2156 1.539 . S
C2159 H2173 0.958 . S
C2159 H2174 0.961 . S
C2159 H2175 0.960 . S
H2160 C2144 0.931 . S
H2161 C2149 0.929 . S
H2162 C2150 0.960 . S
H2163 C2150 0.962 . S
H2164 C2150 0.960 . S
H2165 C2151 0.961 . S
H2166 C2151 0.961 . S
H2167 C2151 0.961 . S
H2168 C2152 0.931 . S
H2169 C2157 0.930 . S
H2170 C2158 0.956 . S
H2171 C2158 0.961 . S
H2172 C2158 0.961 . S
H2173 C2159 0.958 . S
H2174 C2159 0.961 . S
H2175 C2159 0.960 . S
C2176 C2177 1.391 . S
C2176 C2178 1.394 . S
C2176 H2192 0.931 . S
C2177 C2176 1.391 . S
C2177 C2181 1.376 . S
C2178 C2176 1.394 . S
C2178 C2179 1.369 . S
C2178 C2182 1.531 . S
C2179 C2178 1.369 . S
C2179 C2180 1.410 . S
C2179 C2187 1.503 . S
C2180 C2179 1.410 . S
C2180 C2181 1.392 . S
C2180 C2183 1.511 . S
C2181 C2177 1.376 . S
C2181 C2180 1.392 . S
C2181 H2193 0.929 . S
C2182 C2178 1.531 . S
C2182 H2194 0.960 . S
C2182 H2195 0.962 . S
C2182 H2196 0.960 . S
C2183 C2180 1.511 . S
C2183 H2197 0.961 . S
C2183 H2198 0.961 . S
C2183 H2199 0.961 . S
C2184 C2185 1.370 . S
C2184 C2186 1.363 . S
C2184 H2200 0.931 . S
C2185 C2184 1.370 . S
C2185 C2189 1.408 . S
C2186 C2184 1.363 . S
C2186 C2187 1.370 . S
C2186 C2190 1.524 . S
C2187 C2179 1.503 . S
C2187 C2186 1.370 . S
C2187 C2188 1.403 . S
C2188 C2187 1.403 . S
C2188 C2189 1.404 . S
C2188 C2191 1.539 . S
C2189 C2185 1.408 . S
C2189 C2188 1.404 . S
C2189 H2201 0.930 . S
C2190 C2186 1.524 . S
C2190 H2202 0.956 . S
C2190 H2203 0.961 . S
C2190 H2204 0.961 . S
C2191 C2188 1.539 . S
C2191 H2205 0.958 . S
C2191 H2206 0.961 . S
C2191 H2207 0.960 . S
H2192 C2176 0.931 . S
H2193 C2181 0.929 . S
H2194 C2182 0.960 . S
H2195 C2182 0.962 . S
H2196 C2182 0.960 . S
H2197 C2183 0.961 . S
H2198 C2183 0.961 . S
H2199 C2183 0.961 . S
H2200 C2184 0.931 . S
H2201 C2189 0.930 . S
H2202 C2190 0.956 . S
H2203 C2190 0.961 . S
H2204 C2190 0.961 . S
H2205 C2191 0.958 . S
H2206 C2191 0.961 . S
H2207 C2191 0.960 . S
C2208 C2209 1.391 . S
C2208 C2210 1.394 . S
C2208 H2224 0.931 . S
C2209 C2208 1.391 . S
C2209 C2213 1.380 1_554 S
C2210 C2208 1.394 . S
C2210 C2211 1.369 . S
C2210 C2214 1.531 . S
C2211 C2210 1.369 . S
C2211 C2212 1.410 1_554 S
C2211 C2219 1.503 1_554 S
C2212 C2211 1.410 1_556 S
C2212 C2213 1.391 . S
C2212 C2215 1.511 . S
C2213 C2209 1.380 1_556 S
C2213 C2212 1.391 . S
C2213 H2225 0.927 . S
C2214 C2210 1.531 . S
C2214 H2226 0.960 . S
C2214 H2227 0.962 . S
C2214 H2228 0.960 . S
C2215 C2212 1.511 . S
C2215 H2229 0.961 . S
C2215 H2230 0.961 . S
C2215 H2231 0.961 . S
C2216 C2217 1.370 . S
C2216 C2218 1.363 . S
C2216 H2232 0.931 . S
C2217 C2216 1.370 . S
C2217 C2221 1.408 . S
C2218 C2216 1.363 . S
C2218 C2219 1.370 . S
C2218 C2222 1.520 1_556 S
C2219 C2211 1.503 1_556 S
C2219 C2218 1.370 . S
C2219 C2220 1.403 . S
C2220 C2219 1.403 . S
C2220 C2221 1.404 . S
C2220 C2223 1.539 . S
C2221 C2217 1.408 . S
C2221 C2220 1.404 . S
C2221 H2233 0.930 . S
C2222 C2218 1.520 1_554 S
C2222 H2234 0.972 . S
C2222 H2235 0.953 1_554 S
C2222 H2236 0.957 1_554 S
C2223 C2220 1.539 . S
C2223 H2237 0.958 1_556 S
C2223 H2238 0.961 . S
C2223 H2239 0.960 . S
H2224 C2208 0.931 . S
H2225 C2213 0.927 . S
H2226 C2214 0.960 . S
H2227 C2214 0.962 . S
H2228 C2214 0.960 . S
H2229 C2215 0.961 . S
H2230 C2215 0.961 . S
H2231 C2215 0.961 . S
H2232 C2216 0.931 . S
H2233 C2221 0.930 . S
H2234 C2222 0.972 . S
H2235 C2222 0.953 1_556 S
H2236 C2222 0.957 1_556 S
H2237 C2223 0.958 1_554 S
H2238 C2223 0.961 . S
H2239 C2223 0.960 . S
C2240 C2241 1.391 . S
C2240 C2242 1.394 . S
C2240 H2256 0.931 . S
C2241 C2240 1.391 . S
C2241 C2245 1.376 . S
C2242 C2240 1.394 . S
C2242 C2243 1.369 . S
C2242 C2246 1.531 . S
C2243 C2242 1.369 . S
C2243 C2244 1.410 . S
C2243 C2251 1.503 1_565 S
C2244 C2243 1.410 . S
C2244 C2245 1.392 . S
C2244 C2247 1.511 1_565 S
C2245 C2241 1.376 . S
C2245 C2244 1.392 . S
C2245 H2257 0.929 . S
C2246 C2242 1.531 . S
C2246 H2258 0.960 . S
C2246 H2259 0.962 . S
C2246 H2260 0.960 . S
C2247 C2244 1.511 1_545 S
C2247 H2261 0.961 . S
C2247 H2262 0.961 . S
C2247 H2263 0.961 . S
C2248 C2249 1.370 . S
C2248 C2250 1.363 . S
C2248 H2264 0.931 . S
C2249 C2248 1.370 . S
C2249 C2253 1.408 . S
C2250 C2248 1.363 . S
C2250 C2251 1.370 . S
C2250 C2254 1.524 . S
C2251 C2243 1.503 1_545 S
C2251 C2250 1.370 . S
C2251 C2252 1.403 . S
C2252 C2251 1.403 . S
C2252 C2253 1.404 . S
C2252 C2255 1.539 . S
C2253 C2249 1.408 . S
C2253 C2252 1.404 . S
C2253 H2265 0.930 . S
C2254 C2250 1.524 . S
C2254 H2266 0.956 1_545 S
C2254 H2267 0.966 . S
C2254 H2268 0.961 . S
C2255 C2252 1.539 . S
C2255 H2269 0.958 . S
C2255 H2270 0.961 . S
C2255 H2271 0.960 . S
H2256 C2240 0.931 . S
H2257 C2245 0.929 . S
H2258 C2246 0.960 . S
H2259 C2246 0.962 . S
H2260 C2246 0.960 . S
H2261 C2247 0.961 . S
H2262 C2247 0.961 . S
H2263 C2247 0.961 . S
H2264 C2248 0.931 . S
H2265 C2253 0.930 . S
H2266 C2254 0.956 1_565 S
H2267 C2254 0.966 . S
H2268 C2254 0.961 . S
H2269 C2255 0.958 . S
H2270 C2255 0.961 . S
H2271 C2255 0.960 . S
C2272 C2273 1.391 . S
C2272 C2274 1.394 1_554 S
C2272 H2288 0.931 . S
C2273 C2272 1.391 . S
C2273 C2277 1.376 . S
C2274 C2272 1.394 1_556 S
C2274 C2275 1.368 1_556 S
C2274 C2278 1.531 . S
C2275 C2274 1.368 1_554 S
C2275 C2276 1.416 . S
C2275 C2283 1.499 1_554 S
C2276 C2275 1.416 . S
C2276 C2277 1.392 . S
C2276 C2279 1.511 . S
C2277 C2273 1.376 . S
C2277 C2276 1.392 . S
C2277 H2289 0.929 . S
C2278 C2274 1.531 . S
C2278 H2290 0.960 . S
C2278 H2291 0.962 . S
C2278 H2292 0.960 . S
C2279 C2276 1.511 . S
C2279 H2293 0.961 . S
C2279 H2294 0.961 . S
C2279 H2295 0.982 . S
C2280 C2281 1.370 . S
C2280 C2282 1.363 1_556 S
C2280 H2296 0.931 1_556 S
C2281 C2280 1.370 . S
C2281 C2285 1.408 . S
C2282 C2280 1.363 1_554 S
C2282 C2283 1.370 1_554 S
C2282 C2286 1.524 . S
C2283 C2275 1.499 1_556 S
C2283 C2282 1.370 1_556 S
C2283 C2284 1.403 . S
C2284 C2283 1.403 . S
C2284 C2285 1.404 . S
C2284 C2287 1.539 . S
C2285 C2281 1.408 . S
C2285 C2284 1.404 . S
C2285 H2297 0.930 . S
C2286 C2282 1.524 . S
C2286 H2298 0.956 . S
C2286 H2299 0.961 . S
C2286 H2300 0.961 . S
C2287 C2284 1.539 . S
C2287 H2301 0.958 . S
C2287 H2302 0.961 . S
C2287 H2303 0.960 . S
H2288 C2272 0.931 . S
H2289 C2277 0.929 . S
H2290 C2278 0.960 . S
H2291 C2278 0.962 . S
H2292 C2278 0.960 . S
H2293 C2279 0.961 . S
H2294 C2279 0.961 . S
H2295 C2279 0.982 . S
H2296 C2280 0.931 1_554 S
H2297 C2285 0.930 . S
H2298 C2286 0.956 . S
H2299 C2286 0.961 . S
H2300 C2286 0.961 . S
H2301 C2287 0.958 . S
H2302 C2287 0.961 . S
H2303 C2287 0.960 . S
C2304 C2305 1.391 . S
C2304 C2306 1.394 . S
C2304 H2320 0.931 . S
C2305 C2304 1.391 . S
C2305 C2309 1.376 . S
C2306 C2304 1.394 . S
C2306 C2307 1.369 . S
C2306 C2310 1.554 . S
C2307 C2306 1.369 . S
C2307 C2308 1.410 . S
C2307 C2315 1.503 1_545 S
C2308 C2307 1.410 . S
C2308 C2309 1.392 . S
C2308 C2311 1.511 . S
C2309 C2305 1.376 . S
C2309 C2308 1.392 . S
C2309 H2321 0.929 . S
C2310 C2306 1.554 . S
C2310 H2322 0.940 1_545 S
C2310 H2323 0.944 1_545 S
C2310 H2324 0.977 . S
C2311 C2308 1.511 . S
C2311 H2325 0.961 . S
C2311 H2326 0.961 . S
C2311 H2327 0.961 . S
C2312 C2313 1.370 . S
C2312 C2314 1.363 . S
C2312 H2328 0.931 . S
C2313 C2312 1.370 . S
C2313 C2317 1.408 . S
C2314 C2312 1.363 . S
C2314 C2315 1.370 . S
C2314 C2318 1.524 . S
C2315 C2307 1.503 1_565 S
C2315 C2314 1.370 . S
C2315 C2316 1.403 . S
C2316 C2315 1.403 . S
C2316 C2317 1.404 . S
C2316 C2319 1.537 . S
C2317 C2313 1.408 . S
C2317 C2316 1.404 . S
C2317 H2329 0.930 . S
C2318 C2314 1.524 . S
C2318 H2330 0.956 . S
C2318 H2331 0.961 . S
C2318 H2332 0.961 . S
C2319 C2316 1.537 . S
C2319 H2333 0.957 . S
C2319 H2334 0.960 . S
C2319 H2335 0.963 1_565 S
H2320 C2304 0.931 . S
H2321 C2309 0.929 . S
H2322 C2310 0.940 1_565 S
H2323 C2310 0.944 1_565 S
H2324 C2310 0.977 . S
H2325 C2311 0.961 . S
H2326 C2311 0.961 . S
H2327 C2311 0.961 . S
H2328 C2312 0.931 . S
H2329 C2317 0.930 . S
H2330 C2318 0.956 . S
H2331 C2318 0.961 . S
H2332 C2318 0.961 . S
H2333 C2319 0.957 . S
H2334 C2319 0.960 . S
H2335 C2319 0.963 1_545 S
C2336 C2337 1.391 . S
C2336 C2338 1.394 . S
C2336 H2352 0.931 . S
C2337 C2336 1.391 . S
C2337 C2341 1.376 . S
C2338 C2336 1.394 . S
C2338 C2339 1.369 . S
C2338 C2342 1.531 . S
C2339 C2338 1.369 . S
C2339 C2340 1.410 . S
C2339 C2347 1.503 . S
C2340 C2339 1.410 . S
C2340 C2341 1.392 . S
C2340 C2343 1.511 . S
C2341 C2337 1.376 . S
C2341 C2340 1.392 . S
C2341 H2353 0.929 . S
C2342 C2338 1.531 . S
C2342 H2354 0.960 . S
C2342 H2355 0.962 . S
C2342 H2356 0.960 . S
C2343 C2340 1.511 . S
C2343 H2357 0.961 . S
C2343 H2358 0.961 . S
C2343 H2359 0.961 . S
C2344 C2345 1.370 . S
C2344 C2346 1.363 . S
C2344 H2360 0.931 . S
C2345 C2344 1.370 . S
C2345 C2349 1.408 . S
C2346 C2344 1.363 . S
C2346 C2347 1.370 . S
C2346 C2350 1.524 . S
C2347 C2339 1.503 . S
C2347 C2346 1.370 . S
C2347 C2348 1.403 . S
C2348 C2347 1.403 . S
C2348 C2349 1.404 . S
C2348 C2351 1.539 . S
C2349 C2345 1.408 . S
C2349 C2348 1.404 . S
C2349 H2361 0.930 . S
C2350 C2346 1.524 . S
C2350 H2362 0.956 . S
C2350 H2363 0.961 . S
C2350 H2364 0.961 . S
C2351 C2348 1.539 . S
C2351 H2365 0.958 . S
C2351 H2366 0.961 . S
C2351 H2367 0.960 . S
H2352 C2336 0.931 . S
H2353 C2341 0.929 . S
H2354 C2342 0.960 . S
H2355 C2342 0.962 . S
H2356 C2342 0.960 . S
H2357 C2343 0.961 . S
H2358 C2343 0.961 . S
H2359 C2343 0.961 . S
H2360 C2344 0.931 . S
H2361 C2349 0.930 . S
H2362 C2350 0.956 . S
H2363 C2350 0.961 . S
H2364 C2350 0.961 . S
H2365 C2351 0.958 . S
H2366 C2351 0.961 . S
H2367 C2351 0.960 . S
C2368 C2369 1.391 . S
C2368 C2370 1.394 . S
C2368 H2384 0.931 . S
C2369 C2368 1.391 . S
C2369 C2373 1.376 . S
C2370 C2368 1.394 . S
C2370 C2371 1.369 . S
C2370 C2374 1.531 1_545 S
C2371 C2370 1.369 . S
C2371 C2372 1.410 . S
C2371 C2379 1.503 1_545 S
C2372 C2371 1.410 . S
C2372 C2373 1.392 . S
C2372 C2375 1.511 . S
C2373 C2369 1.376 . S
C2373 C2372 1.392 . S
C2373 H2385 0.929 . S
C2374 C2370 1.531 1_565 S
C2374 H2386 0.960 . S
C2374 H2387 0.962 . S
C2374 H2388 0.960 1_565 S
C2375 C2372 1.511 . S
C2375 H2389 0.961 . S
C2375 H2390 0.961 . S
C2375 H2391 0.961 . S
C2376 C2377 1.370 . S
C2376 C2378 1.363 . S
C2376 H2392 0.931 . S
C2377 C2376 1.370 . S
C2377 C2381 1.408 . S
C2378 C2376 1.363 . S
C2378 C2379 1.370 . S
C2378 C2382 1.524 . S
C2379 C2371 1.503 1_565 S
C2379 C2378 1.370 . S
C2379 C2380 1.403 . S
C2380 C2379 1.403 . S
C2380 C2381 1.404 . S
C2380 C2383 1.539 . S
C2381 C2377 1.408 . S
C2381 C2380 1.404 . S
C2381 H2393 0.930 . S
C2382 C2378 1.524 . S
C2382 H2394 0.956 . S
C2382 H2395 0.971 . S
C2382 H2396 0.961 . S
C2383 C2380 1.539 . S
C2383 H2397 0.958 . S
C2383 H2398 0.961 . S
C2383 H2399 0.960 1_565 S
H2384 C2368 0.931 . S
H2385 C2373 0.929 . S
H2386 C2374 0.960 . S
H2387 C2374 0.962 . S
H2388 C2374 0.960 1_545 S
H2389 C2375 0.961 . S
H2390 C2375 0.961 . S
H2391 C2375 0.961 . S
H2392 C2376 0.931 . S
H2393 C2381 0.930 . S
H2394 C2382 0.956 . S
H2395 C2382 0.971 . S
H2396 C2382 0.961 . S
H2397 C2383 0.958 . S
H2398 C2383 0.961 . S
H2399 C2383 0.960 1_545 S
C2400 C2401 1.391 . S
C2400 C2402 1.394 . S
C2400 H2416 0.931 . S
C2401 C2400 1.391 . S
C2401 C2405 1.376 . S
C2402 C2400 1.394 . S
C2402 C2403 1.386 . S
C2402 C2406 1.531 . S
C2403 C2402 1.386 . S
C2403 C2404 1.406 1_554 S
C2403 C2411 1.493 1_554 S
C2404 C2403 1.406 1_556 S
C2404 C2405 1.392 1_556 S
C2404 C2407 1.511 . S
C2405 C2401 1.376 . S
C2405 C2404 1.392 1_554 S
C2405 H2417 0.929 . S
C2406 C2402 1.531 . S
C2406 H2418 0.960 . S
C2406 H2419 0.962 . S
C2406 H2420 0.960 . S
C2407 C2404 1.511 . S
C2407 H2421 0.961 . S
C2407 H2422 0.961 . S
C2407 H2423 0.961 . S
C2408 C2409 1.370 . S
C2408 C2410 1.363 1_556 S
C2408 H2424 0.931 1_556 S
C2409 C2408 1.370 . S
C2409 C2413 1.408 . S
C2410 C2408 1.363 1_554 S
C2410 C2411 1.370 1_554 S
C2410 C2414 1.524 . S
C2411 C2403 1.493 1_556 S
C2411 C2410 1.370 1_556 S
C2411 C2412 1.403 . S
C2412 C2411 1.403 . S
C2412 C2413 1.404 . S
C2412 C2415 1.539 . S
C2413 C2409 1.408 . S
C2413 C2412 1.404 . S
C2413 H2425 0.930 . S
C2414 C2410 1.524 . S
C2414 H2426 0.956 . S
C2414 H2427 0.961 . S
C2414 H2428 0.961 . S
C2415 C2412 1.539 . S
C2415 H2429 0.958 . S
C2415 H2430 0.961 . S
C2415 H2431 0.960 . S
H2416 C2400 0.931 . S
H2417 C2405 0.929 . S
H2418 C2406 0.960 . S
H2419 C2406 0.962 . S
H2420 C2406 0.960 . S
H2421 C2407 0.961 . S
H2422 C2407 0.961 . S
H2423 C2407 0.961 . S
H2424 C2408 0.931 1_554 S
H2425 C2413 0.930 . S
H2426 C2414 0.956 . S
H2427 C2414 0.961 . S
H2428 C2414 0.961 . S
H2429 C2415 0.958 . S
H2430 C2415 0.961 . S
H2431 C2415 0.960 . S
C2432 C2433 1.391 . S
C2432 C2434 1.394 . S
C2432 H2448 0.931 . S
C2433 C2432 1.391 . S
C2433 C2437 1.376 . S
C2434 C2432 1.394 . S
C2434 C2435 1.369 . S
C2434 C2438 1.531 . S
C2435 C2434 1.369 . S
C2435 C2436 1.410 . S
C2435 C2443 1.503 1_545 S
C2436 C2435 1.410 . S
C2436 C2437 1.392 . S
C2436 C2439 1.511 1_545 S
C2437 C2433 1.376 . S
C2437 C2436 1.392 . S
C2437 H2449 0.929 . S
C2438 C2434 1.531 . S
C2438 H2450 0.960 . S
C2438 H2451 0.962 . S
C2438 H2452 0.960 . S
C2439 C2436 1.511 1_565 S
C2439 H2453 0.959 . S
C2439 H2454 0.961 . S
C2439 H2455 0.961 . S
C2440 C2441 1.370 . S
C2440 C2442 1.363 . S
C2440 H2456 0.931 . S
C2441 C2440 1.370 . S
C2441 C2445 1.408 . S
C2442 C2440 1.363 . S
C2442 C2443 1.370 . S
C2442 C2446 1.524 . S
C2443 C2435 1.503 1_565 S
C2443 C2442 1.370 . S
C2443 C2444 1.403 . S
C2444 C2443 1.403 . S
C2444 C2445 1.404 . S
C2444 C2447 1.539 . S
C2445 C2441 1.408 . S
C2445 C2444 1.404 . S
C2445 H2457 0.930 . S
C2446 C2442 1.524 . S
C2446 H2458 0.956 1_565 S
C2446 H2459 0.961 1_565 S
C2446 H2460 0.961 . S
C2447 C2444 1.539 . S
C2447 H2461 0.958 . S
C2447 H2462 0.961 . S
C2447 H2463 0.960 . S
H2448 C2432 0.931 . S
H2449 C2437 0.929 . S
H2450 C2438 0.960 . S
H2451 C2438 0.962 . S
H2452 C2438 0.960 . S
H2453 C2439 0.959 . S
H2454 C2439 0.961 . S
H2455 C2439 0.961 . S
H2456 C2440 0.931 . S
H2457 C2445 0.930 . S
H2458 C2446 0.956 1_545 S
H2459 C2446 0.961 1_545 S
H2460 C2446 0.961 . S
H2461 C2447 0.958 . S
H2462 C2447 0.961 . S
H2463 C2447 0.960 . S
C2464 C2465 1.391 . S
C2464 C2466 1.394 . S
C2464 H2480 0.931 . S
C2465 C2464 1.391 . S
C2465 C2469 1.376 . S
C2466 C2464 1.394 . S
C2466 C2467 1.369 . S
C2466 C2470 1.531 . S
C2467 C2466 1.369 . S
C2467 C2468 1.410 . S
C2467 C2475 1.503 . S
C2468 C2467 1.410 . S
C2468 C2469 1.392 . S
C2468 C2471 1.511 . S
C2469 C2465 1.376 . S
C2469 C2468 1.392 . S
C2469 H2481 0.929 . S
C2470 C2466 1.531 . S
C2470 H2482 0.960 . S
C2470 H2483 0.962 . S
C2470 H2484 0.960 . S
C2471 C2468 1.511 . S
C2471 H2485 0.961 . S
C2471 H2486 0.961 . S
C2471 H2487 0.961 . S
C2472 C2473 1.370 . S
C2472 C2474 1.363 . S
C2472 H2488 0.931 . S
C2473 C2472 1.370 . S
C2473 C2477 1.408 . S
C2474 C2472 1.363 . S
C2474 C2475 1.370 . S
C2474 C2478 1.524 . S
C2475 C2467 1.503 . S
C2475 C2474 1.370 . S
C2475 C2476 1.403 . S
C2476 C2475 1.403 . S
C2476 C2477 1.404 . S
C2476 C2479 1.539 . S
C2477 C2473 1.408 . S
C2477 C2476 1.404 . S
C2477 H2489 0.930 . S
C2478 C2474 1.524 . S
C2478 H2490 0.956 . S
C2478 H2491 0.961 . S
C2478 H2492 0.961 . S
C2479 C2476 1.539 . S
C2479 H2493 0.958 . S
C2479 H2494 0.961 . S
C2479 H2495 0.960 . S
H2480 C2464 0.931 . S
H2481 C2469 0.929 . S
H2482 C2470 0.960 . S
H2483 C2470 0.962 . S
H2484 C2470 0.960 . S
H2485 C2471 0.961 . S
H2486 C2471 0.961 . S
H2487 C2471 0.961 . S
H2488 C2472 0.931 . S
H2489 C2477 0.930 . S
H2490 C2478 0.956 . S
H2491 C2478 0.961 . S
H2492 C2478 0.961 . S
H2493 C2479 0.958 . S
H2494 C2479 0.961 . S
H2495 C2479 0.960 . S
C449 C7 1.362 . S
C457 C301 1.351 . S
C481 C315 1.361 . S
C489 C21 1.351 . S
C513 C35 1.315 . S
C521 C329 1.337 . S
C545 C287 1.311 . S
C553 C49 1.329 . S
C577 C63 1.364 . S
C585 C273 1.349 . S
C609 C77 1.326 . S
C617 C231 1.343 . S
C641 C245 1.355 . S
C649 C91 1.341 . S
C673 C105 1.342 . S
C681 C259 1.335 . S
C705 C119 1.364 . S
C713 C413 1.348 . S
C737 C133 1.314 . S
C745 C427 1.329 . S
C769 C441 1.340 . S
C777 C147 1.350 . S
C801 C399 1.357 . S
C809 C161 1.338 . S
C833 C175 1.328 . S
C841 C385 1.347 . S
C865 C343 1.311 . S
C873 C189 1.337 . S
C897 C203 1.364 . S
C905 C357 1.348 . S
C929 C371 1.312 . S
C937 C217 1.339 . S
C961 C9 1.277 . S
C969 C129 1.378 . S
C993 C23 1.314 . S
C1001 C367 1.380 . S
C1025 C157 1.370 . S
C1033 C37 1.301 . S
C1057 C51 1.343 . S
C1065 C339 1.382 . S
C1089 C65 1.290 . S
C1097 C213 1.378 . S
C1121 C395 1.378 . S
C1129 C79 1.319 . S
C1153 C185 1.370 . S
C1161 C93 1.301 . S
C1185 C423 1.375 . S
C1193 C107 1.316 . S
C1217 C121 1.334 . S
C1225 C17 1.382 . S
C1249 C255 1.377 . S
C1257 C135 1.327 . S
C1281 C45 1.373 . S
C1289 C149 1.314 . S
C1313 C163 1.315 . S
C1321 C227 1.379 . S
C1345 C101 1.378 . S
C1353 C177 1.313 . S
C1377 C283 1.372 . S
C1385 C191 1.301 . S
C1409 C73 1.381 . S
C1417 C205 1.323 . S
C1441 C219 1.319 . S
C1449 C311 1.379 . S
C1473 C353 1.373 . S
C1481 C233 1.309 . S
C1505 C143 1.377 . S
C1513 C247 1.316 . S
C1537 C381 1.373 . S
C1545 C261 1.309 . S
C1569 C275 1.305 . S
C1577 C115 1.379 . S
C1601 C437 1.382 . S
C1609 C289 1.330 . S
C1633 C171 1.378 . S
C1641 C303 1.324 . S
C1665 C409 1.370 . S
C1673 C317 1.301 . S
C1697 C331 1.331 . S
C1705 C199 1.381 . S
C1729 C345 1.350 . S
C1737 C241 1.382 . S
C1761 C31 1.370 . S
C1769 C359 1.302 . S
C1793 C373 1.286 . S
C1801 C269 1.378 . S
C1825 C387 1.302 . S
C1833 C3 1.380 . S
C1857 C401 1.277 . S
C1865 C325 1.377 . S
C1889 C59 1.371 . S
C1897 C415 1.301 . S
C1921 C297 1.378 . S
C1929 C429 1.328 . S
C1953 C443 1.276 . S
C1961 C87 1.378 . S
C1985 C8 1.270 . S
C1993 C64 1.297 . S
C2017 C22 1.292 . S
C2025 C78 1.298 . S
C2049 C92 1.270 . S
C2057 C36 1.298 . S
C2081 C106 1.284 . S
C2089 C50 1.288 . S
C2113 C176 1.273 . S
C2121 C120 1.301 . S
C2145 C190 1.273 . S
C2153 C134 1.297 . S
C2177 C204 1.290 . S
C2185 C148 1.296 . S
C2209 C218 1.281 . S
C2217 C162 1.292 . S
C2241 C232 1.287 . S
C2249 C288 1.287 . S
C2273 C246 1.270 . S
C2281 C302 1.298 . S
C2305 C260 1.281 . S
C2313 C316 1.300 . S
C2337 C330 1.294 . S
C2345 C274 1.297 . S
C2369 C344 1.276 . S
C2377 C400 1.295 . S
C2401 C414 1.270 . S
C2409 C358 1.299 . S
C2433 C428 1.303 . S
C2441 C372 1.290 . S
C2465 C442 1.303 . S
C2473 C386 1.290 . S
