# Generated by pormake.
# Topology vbd, (5)-cn, num edge types: 1
# Building blocks:
#     Node 0, Type 0, BuildingBlock: XOMCOT_clean_sbu_0, # of connection points: 5
#     Node 1, Type 0, BuildingBlock: XOMCOT_clean_sbu_0, # of connection points: 5
#     Node 2, Type 0, BuildingBlock: XOMCOT_clean_sbu_0, # of connection points: 5
#     Node 3, Type 0, BuildingBlock: XOMCOT_clean_sbu_0, # of connection points: 5
#     Node 4, Type 0, BuildingBlock: XOMCOT_clean_sbu_0, # of connection points: 5
#     Node 5, Type 0, BuildingBlock: XOMCOT_clean_sbu_0, # of connection points: 5
#     Node 6, Type 0, BuildingBlock: XOMCOT_clean_sbu_0, # of connection points: 5
#     Node 7, Type 0, BuildingBlock: XOMCOT_clean_sbu_0, # of connection points: 5
#     Node 8, Type 0, BuildingBlock: XOMCOT_clean_sbu_0, # of connection points: 5
#     Node 9, Type 0, BuildingBlock: XOMCOT_clean_sbu_0, # of connection points: 5
#     Node 10, Type 0, BuildingBlock: XOMCOT_clean_sbu_0, # of connection points: 5
#     Node 11, Type 0, BuildingBlock: XOMCOT_clean_sbu_0, # of connection points: 5
#     Node 12, Type 0, BuildingBlock: XOMCOT_clean_sbu_0, # of connection points: 5
#     Node 13, Type 0, BuildingBlock: XOMCOT_clean_sbu_0, # of connection points: 5
#     Node 14, Type 0, BuildingBlock: XOMCOT_clean_sbu_0, # of connection points: 5
#     Node 15, Type 0, BuildingBlock: XOMCOT_clean_sbu_0, # of connection points: 5
#     Node 16, Type 0, BuildingBlock: XOMCOT_clean_sbu_0, # of connection points: 5
#     Node 17, Type 0, BuildingBlock: XOMCOT_clean_sbu_0, # of connection points: 5
#     Node 18, Type 0, BuildingBlock: XOMCOT_clean_sbu_0, # of connection points: 5
#     Node 19, Type 0, BuildingBlock: XOMCOT_clean_sbu_0, # of connection points: 5
#     Node 20, Type 0, BuildingBlock: XOMCOT_clean_sbu_0, # of connection points: 5
#     Node 21, Type 0, BuildingBlock: XOMCOT_clean_sbu_0, # of connection points: 5
#     Node 22, Type 0, BuildingBlock: XOMCOT_clean_sbu_0, # of connection points: 5
#     Node 23, Type 0, BuildingBlock: XOMCOT_clean_sbu_0, # of connection points: 5
#     Node 24, Type 0, BuildingBlock: XOMCOT_clean_sbu_0, # of connection points: 5
#     Node 25, Type 0, BuildingBlock: XOMCOT_clean_sbu_0, # of connection points: 5
#     Node 26, Type 0, BuildingBlock: XOMCOT_clean_sbu_0, # of connection points: 5
#     Node 27, Type 0, BuildingBlock: XOMCOT_clean_sbu_0, # of connection points: 5
#     Node 28, Type 0, BuildingBlock: XOMCOT_clean_sbu_0, # of connection points: 5
#     Node 29, Type 0, BuildingBlock: XOMCOT_clean_sbu_0, # of connection points: 5
#     Node 30, Type 0, BuildingBlock: XOMCOT_clean_sbu_0, # of connection points: 5
#     Node 31, Type 0, BuildingBlock: XOMCOT_clean_sbu_0, # of connection points: 5
#     Edge 32, Type (0, 0), BuildingBlock: CIFDUS_clean_linker_0, # of connection points: 2
#     Edge 33, Type (0, 0), BuildingBlock: CIFDUS_clean_linker_0, # of connection points: 2
#     Edge 34, Type (0, 0), BuildingBlock: CIFDUS_clean_linker_0, # of connection points: 2
#     Edge 35, Type (0, 0), BuildingBlock: CIFDUS_clean_linker_0, # of connection points: 2
#     Edge 36, Type (0, 0), BuildingBlock: CIFDUS_clean_linker_0, # of connection points: 2
#     Edge 37, Type (0, 0), BuildingBlock: CIFDUS_clean_linker_0, # of connection points: 2
#     Edge 38, Type (0, 0), BuildingBlock: CIFDUS_clean_linker_0, # of connection points: 2
#     Edge 39, Type (0, 0), BuildingBlock: CIFDUS_clean_linker_0, # of connection points: 2
#     Edge 40, Type (0, 0), BuildingBlock: CIFDUS_clean_linker_0, # of connection points: 2
#     Edge 41, Type (0, 0), BuildingBlock: CIFDUS_clean_linker_0, # of connection points: 2
#     Edge 42, Type (0, 0), BuildingBlock: CIFDUS_clean_linker_0, # of connection points: 2
#     Edge 43, Type (0, 0), BuildingBlock: CIFDUS_clean_linker_0, # of connection points: 2
#     Edge 44, Type (0, 0), BuildingBlock: CIFDUS_clean_linker_0, # of connection points: 2
#     Edge 45, Type (0, 0), BuildingBlock: CIFDUS_clean_linker_0, # of connection points: 2
#     Edge 46, Type (0, 0), BuildingBlock: CIFDUS_clean_linker_0, # of connection points: 2
#     Edge 47, Type (0, 0), BuildingBlock: CIFDUS_clean_linker_0, # of connection points: 2
#     Edge 48, Type (0, 0), BuildingBlock: CIFDUS_clean_linker_0, # of connection points: 2
#     Edge 49, Type (0, 0), BuildingBlock: CIFDUS_clean_linker_0, # of connection points: 2
#     Edge 50, Type (0, 0), BuildingBlock: CIFDUS_clean_linker_0, # of connection points: 2
#     Edge 51, Type (0, 0), BuildingBlock: CIFDUS_clean_linker_0, # of connection points: 2
#     Edge 52, Type (0, 0), BuildingBlock: CIFDUS_clean_linker_0, # of connection points: 2
#     Edge 53, Type (0, 0), BuildingBlock: CIFDUS_clean_linker_0, # of connection points: 2
#     Edge 54, Type (0, 0), BuildingBlock: CIFDUS_clean_linker_0, # of connection points: 2
#     Edge 55, Type (0, 0), BuildingBlock: CIFDUS_clean_linker_0, # of connection points: 2
#     Edge 56, Type (0, 0), BuildingBlock: CIFDUS_clean_linker_0, # of connection points: 2
#     Edge 57, Type (0, 0), BuildingBlock: CIFDUS_clean_linker_0, # of connection points: 2
#     Edge 58, Type (0, 0), BuildingBlock: CIFDUS_clean_linker_0, # of connection points: 2
#     Edge 59, Type (0, 0), BuildingBlock: CIFDUS_clean_linker_0, # of connection points: 2
#     Edge 60, Type (0, 0), BuildingBlock: CIFDUS_clean_linker_0, # of connection points: 2
#     Edge 61, Type (0, 0), BuildingBlock: CIFDUS_clean_linker_0, # of connection points: 2
#     Edge 62, Type (0, 0), BuildingBlock: CIFDUS_clean_linker_0, # of connection points: 2
#     Edge 63, Type (0, 0), BuildingBlock: CIFDUS_clean_linker_0, # of connection points: 2
#     Edge 64, Type (0, 0), BuildingBlock: CIFDUS_clean_linker_0, # of connection points: 2
#     Edge 65, Type (0, 0), BuildingBlock: CIFDUS_clean_linker_0, # of connection points: 2
#     Edge 66, Type (0, 0), BuildingBlock: CIFDUS_clean_linker_0, # of connection points: 2
#     Edge 67, Type (0, 0), BuildingBlock: CIFDUS_clean_linker_0, # of connection points: 2
#     Edge 68, Type (0, 0), BuildingBlock: CIFDUS_clean_linker_0, # of connection points: 2
#     Edge 69, Type (0, 0), BuildingBlock: CIFDUS_clean_linker_0, # of connection points: 2
#     Edge 70, Type (0, 0), BuildingBlock: CIFDUS_clean_linker_0, # of connection points: 2
#     Edge 71, Type (0, 0), BuildingBlock: CIFDUS_clean_linker_0, # of connection points: 2
#     Edge 72, Type (0, 0), BuildingBlock: CIFDUS_clean_linker_0, # of connection points: 2
#     Edge 73, Type (0, 0), BuildingBlock: CIFDUS_clean_linker_0, # of connection points: 2
#     Edge 74, Type (0, 0), BuildingBlock: CIFDUS_clean_linker_0, # of connection points: 2
#     Edge 75, Type (0, 0), BuildingBlock: CIFDUS_clean_linker_0, # of connection points: 2
#     Edge 76, Type (0, 0), BuildingBlock: CIFDUS_clean_linker_0, # of connection points: 2
#     Edge 77, Type (0, 0), BuildingBlock: CIFDUS_clean_linker_0, # of connection points: 2
#     Edge 78, Type (0, 0), BuildingBlock: CIFDUS_clean_linker_0, # of connection points: 2
#     Edge 79, Type (0, 0), BuildingBlock: CIFDUS_clean_linker_0, # of connection points: 2
#     Edge 80, Type (0, 0), BuildingBlock: CIFDUS_clean_linker_0, # of connection points: 2
#     Edge 81, Type (0, 0), BuildingBlock: CIFDUS_clean_linker_0, # of connection points: 2
#     Edge 82, Type (0, 0), BuildingBlock: CIFDUS_clean_linker_0, # of connection points: 2
#     Edge 83, Type (0, 0), BuildingBlock: CIFDUS_clean_linker_0, # of connection points: 2
#     Edge 84, Type (0, 0), BuildingBlock: CIFDUS_clean_linker_0, # of connection points: 2
#     Edge 85, Type (0, 0), BuildingBlock: CIFDUS_clean_linker_0, # of connection points: 2
#     Edge 86, Type (0, 0), BuildingBlock: CIFDUS_clean_linker_0, # of connection points: 2
#     Edge 87, Type (0, 0), BuildingBlock: CIFDUS_clean_linker_0, # of connection points: 2
#     Edge 88, Type (0, 0), BuildingBlock: CIFDUS_clean_linker_0, # of connection points: 2
#     Edge 89, Type (0, 0), BuildingBlock: CIFDUS_clean_linker_0, # of connection points: 2
#     Edge 90, Type (0, 0), BuildingBlock: CIFDUS_clean_linker_0, # of connection points: 2
#     Edge 91, Type (0, 0), BuildingBlock: CIFDUS_clean_linker_0, # of connection points: 2
#     Edge 92, Type (0, 0), BuildingBlock: CIFDUS_clean_linker_0, # of connection points: 2
#     Edge 93, Type (0, 0), BuildingBlock: CIFDUS_clean_linker_0, # of connection points: 2
#     Edge 94, Type (0, 0), BuildingBlock: CIFDUS_clean_linker_0, # of connection points: 2
#     Edge 95, Type (0, 0), BuildingBlock: CIFDUS_clean_linker_0, # of connection points: 2
#     Edge 96, Type (0, 0), BuildingBlock: CIFDUS_clean_linker_0, # of connection points: 2
#     Edge 97, Type (0, 0), BuildingBlock: CIFDUS_clean_linker_0, # of connection points: 2
#     Edge 98, Type (0, 0), BuildingBlock: CIFDUS_clean_linker_0, # of connection points: 2
#     Edge 99, Type (0, 0), BuildingBlock: CIFDUS_clean_linker_0, # of connection points: 2
#     Edge 100, Type (0, 0), BuildingBlock: CIFDUS_clean_linker_0, # of connection points: 2
#     Edge 101, Type (0, 0), BuildingBlock: CIFDUS_clean_linker_0, # of connection points: 2
#     Edge 102, Type (0, 0), BuildingBlock: CIFDUS_clean_linker_0, # of connection points: 2
#     Edge 103, Type (0, 0), BuildingBlock: CIFDUS_clean_linker_0, # of connection points: 2
#     Edge 104, Type (0, 0), BuildingBlock: CIFDUS_clean_linker_0, # of connection points: 2
#     Edge 105, Type (0, 0), BuildingBlock: CIFDUS_clean_linker_0, # of connection points: 2
#     Edge 106, Type (0, 0), BuildingBlock: CIFDUS_clean_linker_0, # of connection points: 2
#     Edge 107, Type (0, 0), BuildingBlock: CIFDUS_clean_linker_0, # of connection points: 2
#     Edge 108, Type (0, 0), BuildingBlock: CIFDUS_clean_linker_0, # of connection points: 2
#     Edge 109, Type (0, 0), BuildingBlock: CIFDUS_clean_linker_0, # of connection points: 2
#     Edge 110, Type (0, 0), BuildingBlock: CIFDUS_clean_linker_0, # of connection points: 2
#     Edge 111, Type (0, 0), BuildingBlock: CIFDUS_clean_linker_0, # of connection points: 2
# Relax obj value: 0.070
# Max RMSD: 0.129
# Mean RMSD: 0.125
data_MOF--net-vbd--node1-XOMCOT_clean_sbu_0--edge1-CIFDUS_clean_linker_0
_symmetry_space_group_name_H-M    P1
_symmetry_Int_Tables_number       1
_symmetry_cell_setting            triclinic
loop_
_symmetry_equiv_pos_as_xyz
'x, y, z'
_cell_length_a     93.833652
_cell_length_b     21.264141
_cell_length_c     59.937833
_cell_angle_alpha  89.670608
_cell_angle_beta   90.304062
_cell_angle_gamma 89.87232
loop_
_atom_site_label
_atom_site_type_symbol
_atom_site_fract_x
_atom_site_fract_y
_atom_site_fract_z
_atom_type_partial_charge
Co0 Co 0.0419 0.28463 0.03588 0.0
C1 C 0.04341 0.32638 0.98808 0.0
C2 C 0.02871 0.25067 0.99229 0.0
C3 C 0.02834 0.26968 0.97027 0.0
N4 N 0.0386 0.28442 1.00346 0.0
N5 N 0.03756 0.31747 0.96765 0.0
H6 H 0.05041 0.36516 0.99188 0.0
H7 H 0.02149 0.21726 0.99975 0.0
C8 C 0.03587 0.14599 0.02859 0.0
O9 O 0.04416 0.14261 1.01104 0.0
N10 N 0.04485 0.28584 0.06808 0.0
C11 C 0.05357 0.32443 0.07954 0.0
C12 C 0.05405 0.30504 0.10158 0.0
C13 C 0.04014 0.24368 0.08335 0.0
N14 N 0.04571 0.25385 0.10385 0.0
C15 C 0.0711 0.28632 0.02004 0.0
C16 C 0.08002 0.17974 0.04284 0.0
C17 C 0.08997 0.21147 0.02949 0.0
C18 C 0.0852 0.26537 1.01786 0.0
C19 C 0.06594 0.20154 0.04416 0.0
N20 N 0.06149 0.25362 0.0325 0.0
H21 H 0.0681 0.32986 1.01213 0.0
H22 H 0.05872 0.17701 0.05511 0.0
H23 H 0.05968 0.36225 0.07221 0.0
H24 H 0.03311 0.20501 0.07955 0.0
O25 O 0.04462 0.3755 0.03448 0.0
O26 O 0.02398 0.32721 0.03938 0.0
O27 O 0.03418 0.19733 0.03902 0.0
C28 C 0.03083 0.37975 0.03713 0.0
H29 H 0.02112 0.2526 0.95753 0.0
H30 H 0.06066 0.32483 0.11461 0.0
H31 H 0.08311 0.13935 0.05283 0.0
H32 H 0.09228 0.29202 1.00724 0.0
Co33 Co 0.21926 0.04602 0.03188 0.0
C34 C 0.21876 0.08363 0.08122 0.0
C35 C 0.23463 0.01516 0.07322 0.0
C36 C 0.2359 0.02957 0.09548 0.0
N37 N 0.22368 0.04778 0.0641 0.0
N38 N 0.22594 0.07273 0.10062 0.0
H39 H 0.21035 0.11779 0.07987 0.0
H40 H 0.24158 0.98404 0.06408 0.0
C41 C 0.21912 0.9091 0.04561 0.0
O42 O 0.21034 0.92055 0.06211 0.0
N43 N 0.21543 0.04334 0.99984 0.0
C44 C 0.2066 0.08164 0.98833 0.0
C45 C 0.20603 0.06216 0.96642 0.0
C46 C 0.22018 0.00119 0.98467 0.0
N47 N 0.21457 0.01134 0.96397 0.0
C48 C 0.19263 0.09669 0.045 0.0
C49 C 0.17511 0.0046 0.02799 0.0
C50 C 0.16889 0.06077 0.03577 0.0
C51 C 0.17797 0.10557 0.04519 0.0
C52 C 0.19007 0.9966 0.02877 0.0
N53 N 0.19868 0.0428 0.03714 0.0
H54 H 0.1991 0.13609 0.04973 0.0
H55 H 0.19472 0.95532 0.02128 0.0
H56 H 0.20068 0.12022 0.99549 0.0
H57 H 0.22755 0.96372 0.98883 0.0
O58 O 0.22116 0.13601 0.03023 0.0
O59 O 0.23894 0.0682 0.02621 0.0
O60 O 0.22222 0.95224 0.03163 0.0
C61 C 0.23465 0.12636 0.02696 0.0
H62 H 0.24393 0.01127 0.10681 0.0
H63 H 0.19946 0.08319 0.95352 0.0
H64 H 0.16861 0.96866 0.02031 0.0
H65 H 0.17388 0.14921 0.05186 0.0
Co66 Co 0.04044 0.0446 0.28848 0.0
C67 C 0.04205 0.00919 0.33749 0.0
C68 C 0.02543 0.07524 0.32996 0.0
C69 C 0.02485 0.06077 0.35231 0.0
N70 N 0.03656 0.04505 0.32063 0.0
N71 N 0.03527 0.01916 0.35708 0.0
H72 H 0.05036 0.97468 0.33553 0.0
H73 H 0.01784 0.10421 0.32095 0.0
C74 C 0.03624 0.18251 0.29837 0.0
O75 O 0.04346 0.17901 0.31717 0.0
N76 N 0.04378 0.04392 0.25647 0.0
C77 C 0.05198 0.00327 0.24507 0.0
C78 C 0.05275 0.02321 0.22312 0.0
C79 C 0.03967 0.08783 0.24131 0.0
N80 N 0.04511 0.07672 0.22087 0.0
C81 C 0.06982 0.02606 0.30339 0.0
C82 C 0.07999 0.13551 0.28422 0.0
C83 C 0.08961 0.09757 0.29623 0.0
C84 C 0.0843 0.04164 0.30576 0.0
C85 C 0.06567 0.11893 0.28268 0.0
N86 N 0.06054 0.06595 0.29284 0.0
H87 H 0.06622 0.98107 0.30945 0.0
H88 H 0.05882 0.14815 0.27249 0.0
H89 H 0.05747 0.96335 0.25237 0.0
H90 H 0.03309 0.12806 0.24514 0.0
O91 O 0.04078 0.95284 0.28939 0.0
O92 O 0.02172 0.01271 0.28356 0.0
O93 O 0.0348 0.13488 0.28586 0.0
C94 C 0.02705 0.9568 0.28565 0.0
H95 H 0.01692 0.07723 0.36397 0.0
H96 H 0.05905 0.00177 0.21011 0.0
H97 H 0.0835 0.17712 0.27535 0.0
H98 H 0.09124 0.0097 0.31484 0.0
Co99 Co 0.2167 0.30578 0.27794 0.0
C100 C 0.21502 0.34615 0.32608 0.0
C101 C 0.23332 0.28929 0.31963 0.0
C102 C 0.23408 0.31019 0.34134 0.0
N103 N 0.22119 0.31058 0.31002 0.0
N104 N 0.22255 0.34629 0.34552 0.0
H105 H 0.20561 0.37399 0.32341 0.0
H106 H 0.24146 0.26272 0.3111 0.0
C107 C 0.22218 0.1738 0.29217 0.0
O108 O 0.21369 0.18217 0.30928 0.0
N109 N 0.21246 0.30274 0.24609 0.0
C110 C 0.20245 0.3383 0.23595 0.0
C111 C 0.2019 0.32303 0.21371 0.0
C112 C 0.21788 0.26579 0.22976 0.0
N113 N 0.21161 0.27754 0.20963 0.0
C114 C 0.18752 0.32429 0.29248 0.0
C115 C 0.17764 0.20841 0.27878 0.0
C116 C 0.16809 0.24884 0.2896 0.0
C117 C 0.17327 0.30793 0.29631 0.0
C118 C 0.19184 0.22613 0.27576 0.0
N119 N 0.19686 0.28223 0.28356 0.0
H120 H 0.19088 0.37162 0.29603 0.0
H121 H 0.19866 0.1951 0.26644 0.0
H122 H 0.19582 0.37246 0.24428 0.0
H123 H 0.22624 0.23144 0.2325 0.0
O124 O 0.21552 0.39739 0.27739 0.0
O125 O 0.23501 0.34063 0.27171 0.0
O126 O 0.22328 0.21624 0.2772 0.0
C127 C 0.22922 0.39567 0.27355 0.0
H128 H 0.24288 0.30184 0.35271 0.0
H129 H 0.19461 0.3432 0.20157 0.0
H130 H 0.17415 0.16395 0.27199 0.0
H131 H 0.16642 0.34191 0.3043 0.0
Co132 Co 0.96603 0.76816 0.03741 0.0
C133 C 0.96467 0.72773 0.08551 0.0
C134 C 0.98085 0.79651 0.07974 0.0
C135 C 0.98159 0.77802 0.10174 0.0
N136 N 0.96986 0.76706 0.06959 0.0
N137 N 0.97145 0.73458 0.10535 0.0
H138 H 0.95673 0.6921 0.0825 0.0
H139 H 0.98848 0.8265 0.07147 0.0
C140 C 0.97275 0.90542 0.04639 0.0
O141 O 0.96525 0.90657 0.06483 0.0
N142 N 0.96273 0.76893 1.00537 0.0
C143 C 0.9529 0.73599 0.99392 0.0
C144 C 0.95274 0.75686 0.97202 0.0
C145 C 0.96846 0.80895 0.99029 0.0
N146 N 0.96245 0.80322 0.96986 0.0
C147 C 0.93666 0.76181 0.05237 0.0
C148 C 0.92792 0.87386 0.033 0.0
C149 C 0.9178 0.83829 0.04472 0.0
C150 C 0.92241 0.78132 0.05444 0.0
C151 C 0.94203 0.85281 0.03142 0.0
N152 N 0.94643 0.79824 0.04157 0.0
H153 H 0.93966 0.71635 0.05885 0.0
H154 H 0.94929 0.87978 0.02128 0.0
H155 H 0.94585 0.70143 1.00121 0.0
H156 H 0.97662 0.84298 0.99426 0.0
O157 O 0.96339 0.67729 0.03831 0.0
O158 O 0.98395 0.72604 0.03306 0.0
O159 O 0.97364 0.85586 0.03469 0.0
C160 C 0.97715 0.67332 0.03526 0.0
H161 H 0.98961 0.79207 0.11375 0.0
H162 H 0.94548 0.74164 0.95906 0.0
H163 H 0.92489 0.91677 0.02437 0.0
H164 H 0.91508 0.7515 0.06348 0.0
Co165 Co 0.79078 0.05435 0.03759 0.0
C166 C 0.79352 0.10381 0.08361 0.0
C167 C 0.78083 0.01993 0.08251 0.0
C168 C 0.78137 0.04066 0.10419 0.0
N169 N 0.78853 0.05922 0.06964 0.0
N170 N 0.78929 0.09346 0.10485 0.0
H171 H 0.79994 0.14331 0.0783 0.0
H172 H 0.7749 0.97981 0.07658 0.0
C173 C 0.79128 0.91235 0.03152 0.0
O174 O 0.80358 0.91457 0.02117 0.0
N175 N 0.79254 0.0496 1.00511 0.0
C176 C 0.79848 0.09203 0.99113 0.0
C177 C 0.79784 0.06949 0.96962 0.0
C178 C 0.78752 0.00409 0.99151 0.0
N179 N 0.7911 0.01364 0.97 0.0
C180 C 0.82136 0.0711 0.03177 0.0
C181 C 0.82959 0.96995 0.05804 0.0
C182 C 0.84012 0.00224 0.04604 0.0
C183 C 0.83583 0.05468 0.03327 0.0
C184 C 0.81527 0.98829 0.05619 0.0
N185 N 0.81115 0.03578 0.04203 0.0
H186 H 0.81845 0.11242 0.02238 0.0
H187 H 0.80741 0.96275 0.0657 0.0
H188 H 0.80294 0.13671 0.99598 0.0
H189 H 0.78104 0.96515 0.9969 0.0
O190 O 0.79095 0.14603 0.0358 0.0
O191 O 0.77166 0.08666 0.03382 0.0
O192 O 0.78553 0.96252 0.03895 0.0
C193 C 0.7771 0.14275 0.03383 0.0
H194 H 0.77585 0.01998 0.11824 0.0
H195 H 0.80235 0.09166 0.95498 0.0
H196 H 0.83238 0.93079 0.06885 0.0
H197 H 0.84355 0.08228 0.02412 0.0
Co198 Co 0.96883 0.03182 0.78688 0.0
C199 C 0.96486 0.07892 0.74037 0.0
C200 C 0.97936 0.00077 0.74192 0.0
C201 C 0.97822 0.02036 0.72009 0.0
N202 N 0.97088 0.03702 0.75465 0.0
N203 N 0.96916 0.06956 0.71914 0.0
H204 H 0.95764 0.11591 0.74541 0.0
H205 H 0.98621 0.96353 0.74797 0.0
C206 C 0.97245 0.88845 0.7896 0.0
O207 O 0.95971 0.87772 0.79777 0.0
N208 N 0.96711 0.02689 0.81957 0.0
C209 C 0.96292 0.0736 0.8333 0.0
C210 C 0.96238 0.05124 0.8549 0.0
C211 C 0.96947 0.97729 0.83345 0.0
N212 N 0.96639 0.99041 0.85494 0.0
C213 C 0.93857 0.03155 0.79514 0.0
C214 C 0.93197 0.93475 0.76629 0.0
C215 C 0.92121 0.95883 0.77999 0.0
C216 C 0.92457 0.00921 0.79406 0.0
C217 C 0.94579 0.95889 0.76775 0.0
N218 N 0.94915 0.00415 0.783 0.0
H219 H 0.9409 0.07054 0.80594 0.0
H220 H 0.95394 0.93905 0.75724 0.0
H221 H 0.96 0.12062 0.82805 0.0
H222 H 0.97368 0.93263 0.82843 0.0
O223 O 0.96613 0.12233 0.78755 0.0
O224 O 0.98692 0.07296 0.79015 0.0
O225 O 0.97672 0.94428 0.78579 0.0
C226 C 0.97999 0.12584 0.7891 0.0
H227 H 0.98411 0.00166 0.70612 0.0
H228 H 0.95882 0.07723 0.86931 0.0
H229 H 0.92976 0.8971 0.75469 0.0
H230 H 0.91656 0.03005 0.80467 0.0
Co231 Co 0.79153 0.77888 0.79147 0.0
C232 C 0.79563 0.7382 0.74433 0.0
C233 C 0.77978 0.81015 0.747 0.0
C234 C 0.78046 0.79181 0.7251 0.0
N235 N 0.7897 0.77844 0.75905 0.0
N236 N 0.79041 0.74649 0.72349 0.0
H237 H 0.80287 0.70071 0.74885 0.0
H238 H 0.77184 0.84143 0.75377 0.0
C239 C 0.78649 0.91553 0.78073 0.0
O240 O 0.79682 0.91495 0.76599 0.0
N241 N 0.79284 0.77918 0.82374 0.0
C242 C 0.80155 0.74367 0.8366 0.0
C243 C 0.80103 0.76574 0.8582 0.0
C244 C 0.78708 0.82185 0.83766 0.0
N245 N 0.79205 0.81536 0.85872 0.0
C246 C 0.82148 0.77632 0.77924 0.0
C247 C 0.82859 0.88708 0.8004 0.0
C248 C 0.83902 0.85692 0.78761 0.0
C249 C 0.83537 0.79985 0.77736 0.0
C250 C 0.81486 0.86226 0.80165 0.0
N251 N 0.81118 0.80926 0.79019 0.0
H252 H 0.81912 0.73129 0.77209 0.0
H253 H 0.80713 0.88641 0.81178 0.0
H254 H 0.80844 0.70685 0.83047 0.0
H255 H 0.77991 0.85894 0.83239 0.0
O256 O 0.79448 0.68835 0.79125 0.0
O257 O 0.77354 0.73645 0.79318 0.0
O258 O 0.78368 0.86648 0.79218 0.0
C259 C 0.78061 0.68402 0.79213 0.0
H260 H 0.77344 0.80714 0.71174 0.0
H261 H 0.8075 0.74936 0.87207 0.0
H262 H 0.83099 0.92957 0.80954 0.0
H263 H 0.84309 0.77382 0.76771 0.0
Co264 Co 0.04105 0.77769 0.53356 0.0
C265 C 0.04245 0.81738 0.48552 0.0
C266 C 0.02908 0.73664 0.49015 0.0
C267 C 0.02924 0.75177 0.46781 0.0
N268 N 0.03749 0.77721 0.50136 0.0
N269 N 0.03758 0.80259 0.46487 0.0
H270 H 0.0495 0.8564 0.48896 0.0
H271 H 0.02308 0.69867 0.49753 0.0
C272 C 0.03578 0.63898 0.54399 0.0
O273 O 0.04808 0.63083 0.55421 0.0
N274 N 0.0444 0.77938 0.56609 0.0
C275 C 0.05183 0.82403 0.57705 0.0
C276 C 0.05176 0.81129 0.59956 0.0
C277 C 0.03943 0.74121 0.58263 0.0
N278 N 0.04403 0.75894 0.60317 0.0
C279 C 0.07204 0.77236 0.53637 0.0
C280 C 0.07478 0.65841 0.51473 0.0
C281 C 0.0869 0.68487 0.52461 0.0
C282 C 0.08551 0.74381 0.53484 0.0
C283 C 0.06162 0.68915 0.51623 0.0
N284 N 0.06015 0.74325 0.52827 0.0
H285 H 0.07122 0.81759 0.54423 0.0
H286 H 0.05247 0.66781 0.50836 0.0
H287 H 0.05692 0.86414 0.56937 0.0
H288 H 0.03219 0.70262 0.58008 0.0
O289 O 0.04435 0.86831 0.53176 0.0
O290 O 0.02354 0.82248 0.53771 0.0
O291 O 0.03231 0.69222 0.5358 0.0
C292 C 0.03062 0.87411 0.53487 0.0
H293 H 0.02335 0.72815 0.45474 0.0
H294 H 0.05719 0.83825 0.61227 0.0
H295 H 0.07545 0.61403 0.50601 0.0
H296 H 0.09468 0.76676 0.5422 0.0
Co297 Co 0.2176 0.5409 0.53348 0.0
C298 C 0.21782 0.58571 0.58179 0.0
C299 C 0.22908 0.49945 0.57712 0.0
C300 C 0.2303 0.51632 0.59914 0.0
N301 N 0.22076 0.54136 0.56611 0.0
N302 N 0.22315 0.57054 0.60224 0.0
H303 H 0.21257 0.62977 0.57841 0.0
H304 H 0.23467 0.46075 0.56954 0.0
C305 C 0.21582 0.40096 0.54421 0.0
O306 O 0.20541 0.40911 0.55847 0.0
N307 N 0.21512 0.53984 0.50113 0.0
C308 C 0.20778 0.58185 0.48872 0.0
C309 C 0.20813 0.56346 0.4667 0.0
C310 C 0.21987 0.49649 0.48642 0.0
N311 N 0.2157 0.50943 0.46511 0.0
C312 C 0.19072 0.58959 0.54606 0.0
C313 C 0.1737 0.50893 0.5219 0.0
C314 C 0.16768 0.56416 0.53065 0.0
C315 C 0.17631 0.60274 0.54368 0.0
C316 C 0.18841 0.49662 0.5251 0.0
N317 N 0.19683 0.53783 0.5367 0.0
H318 H 0.19711 0.62564 0.55333 0.0
H319 H 0.19319 0.45708 0.51669 0.0
H320 H 0.2024 0.62279 0.49527 0.0
H321 H 0.22608 0.45581 0.49133 0.0
O322 O 0.21949 0.6308 0.53253 0.0
O323 O 0.23745 0.56303 0.52988 0.0
O324 O 0.22048 0.44715 0.53278 0.0
C325 C 0.23308 0.62114 0.53038 0.0
H326 H 0.23657 0.4918 0.61166 0.0
H327 H 0.20318 0.58862 0.45297 0.0
H328 H 0.16741 0.47817 0.51144 0.0
H329 H 0.17216 0.64608 0.55058 0.0
Co330 Co 0.04289 0.51546 0.78029 0.0
C331 C 0.04423 0.46984 0.82762 0.0
C332 C 0.03148 0.55323 0.82441 0.0
C333 C 0.03125 0.53374 0.84635 0.0
N334 N 0.03973 0.51357 0.81257 0.0
N335 N 0.03919 0.48111 0.84837 0.0
H336 H 0.05086 0.42994 0.82345 0.0
H337 H 0.02567 0.59293 0.81765 0.0
C338 C 0.03797 0.65533 0.77212 0.0
O339 O 0.05045 0.66411 0.76277 0.0
N340 N 0.04569 0.51602 0.74764 0.0
C341 C 0.05209 0.46982 0.73595 0.0
C342 C 0.05156 0.48392 0.71356 0.0
C343 C 0.0409 0.55683 0.73164 0.0
N344 N 0.04457 0.53878 0.71074 0.0
C345 C 0.07366 0.52242 0.77547 0.0
C346 C 0.07733 0.62625 0.80247 0.0
C347 C 0.08914 0.60286 0.79092 0.0
C348 C 0.08721 0.54937 0.77762 0.0
C349 C 0.06396 0.5983 0.79967 0.0
N350 N 0.06208 0.54872 0.7855 0.0
H351 H 0.07255 0.48043 0.7657 0.0
H352 H 0.055 0.61822 0.80838 0.0
H353 H 0.0568 0.4278 0.74305 0.0
H354 H 0.03436 0.59749 0.73482 0.0
O355 O 0.04636 0.42509 0.78131 0.0
O356 O 0.02536 0.47105 0.77617 0.0
O357 O 0.03423 0.6012 0.77902 0.0
C358 C 0.03259 0.4194 0.77865 0.0
H359 H 0.02517 0.55505 0.85962 0.0
H360 H 0.05613 0.45596 0.70036 0.0
H361 H 0.07829 0.66712 0.81307 0.0
H362 H 0.09613 0.52826 0.76902 0.0
Co363 Co 0.21546 0.82029 0.77514 0.0
C364 C 0.21308 0.8579 0.8234 0.0
C365 C 0.22977 0.79125 0.81811 0.0
C366 C 0.23031 0.81036 0.84003 0.0
N367 N 0.21866 0.81932 0.80765 0.0
N368 N 0.21983 0.85261 0.84346 0.0
H369 H 0.20485 0.89213 0.82002 0.0
H370 H 0.23759 0.7618 0.81006 0.0
C371 C 0.22086 0.68328 0.78471 0.0
O372 O 0.21312 0.68486 0.8029 0.0
N373 N 0.21266 0.82284 0.74288 0.0
C374 C 0.20387 0.86251 0.73186 0.0
C375 C 0.20389 0.84746 0.70953 0.0
C376 C 0.21788 0.78386 0.72702 0.0
N377 N 0.21265 0.79783 0.70643 0.0
C378 C 0.18543 0.82821 0.78858 0.0
C379 C 0.17755 0.71927 0.76678 0.0
C380 C 0.16706 0.75302 0.77808 0.0
C381 C 0.17112 0.80817 0.78924 0.0
C382 C 0.19157 0.7404 0.76671 0.0
N383 N 0.19558 0.79325 0.77801 0.0
H384 H 0.18814 0.87287 0.79579 0.0
H385 H 0.1991 0.71469 0.75674 0.0
H386 H 0.19756 0.89882 0.73963 0.0
H387 H 0.22524 0.74577 0.73046 0.0
O388 O 0.21407 0.9121 0.7764 0.0
O389 O 0.23383 0.85651 0.77154 0.0
O390 O 0.22229 0.73172 0.77244 0.0
C391 C 0.22789 0.91109 0.77349 0.0
H392 H 0.23844 0.79721 0.85208 0.0
H393 H 0.19751 0.87005 0.69668 0.0
H394 H 0.17493 0.67685 0.75773 0.0
H395 H 0.16325 0.83672 0.79762 0.0
Co396 Co 0.96634 0.26361 0.53265 0.0
C397 C 0.96315 0.22041 0.57959 0.0
C398 C 0.97754 0.29842 0.57709 0.0
C399 C 0.9768 0.28005 0.59909 0.0
N400 N 0.9689 0.26136 0.56485 0.0
N401 N 0.96782 0.23088 0.60063 0.0
H402 H 0.95591 0.18309 0.57498 0.0
H403 H 0.98425 0.33529 0.57058 0.0
C404 C 0.97064 0.40475 0.52573 0.0
O405 O 0.95832 0.41329 0.51561 0.0
N406 N 0.96409 0.26489 0.50006 0.0
C407 C 0.95807 0.21921 0.4876 0.0
C408 C 0.95871 0.23569 0.46542 0.0
C409 C 0.96881 0.30751 0.48488 0.0
N410 N 0.96539 0.29145 0.46371 0.0
C411 C 0.93555 0.26751 0.52617 0.0
C412 C 0.93099 0.37211 0.5524 0.0
C413 C 0.91948 0.34801 0.54013 0.0
C414 C 0.92183 0.29373 0.5274 0.0
C415 C 0.94447 0.34436 0.55077 0.0
N416 N 0.94684 0.29481 0.53681 0.0
H417 H 0.93703 0.22554 0.51651 0.0
H418 H 0.95315 0.36444 0.56022 0.0
H419 H 0.95346 0.17631 0.49405 0.0
H420 H 0.97508 0.34834 0.48883 0.0
O421 O 0.96348 0.17278 0.53307 0.0
O422 O 0.98424 0.22096 0.52934 0.0
O423 O 0.97451 0.35036 0.53236 0.0
C424 C 0.97732 0.16847 0.53095 0.0
H425 H 0.98294 0.29942 0.61276 0.0
H426 H 0.95435 0.20911 0.45164 0.0
H427 H 0.92964 0.4125 0.56311 0.0
H428 H 0.91324 0.27252 0.51796 0.0
Co429 Co 0.79013 0.54195 0.53945 0.0
C430 C 0.79443 0.59137 0.58521 0.0
C431 C 0.7809 0.51012 0.585 0.0
C432 C 0.78217 0.53069 0.60656 0.0
N433 N 0.78869 0.54768 0.57161 0.0
N434 N 0.79062 0.58179 0.60668 0.0
H435 H 0.80105 0.6298 0.57952 0.0
H436 H 0.7744 0.47132 0.57956 0.0
C437 C 0.78832 0.39788 0.53631 0.0
O438 O 0.8005 0.39068 0.52588 0.0
N439 N 0.79111 0.53656 0.50688 0.0
C440 C 0.79578 0.58149 0.49267 0.0
C441 C 0.79521 0.55904 0.47117 0.0
C442 C 0.78715 0.48856 0.49348 0.0
N443 N 0.7899 0.50027 0.47177 0.0
C444 C 0.82067 0.54541 0.52981 0.0
C445 C 0.82773 0.44772 0.55846 0.0
C446 C 0.83822 0.47053 0.54398 0.0
C447 C 0.83467 0.52174 0.53008 0.0
C448 C 0.81396 0.4727 0.5577 0.0
N449 N 0.81029 0.51842 0.54258 0.0
H450 H 0.81819 0.58465 0.51904 0.0
H451 H 0.80605 0.4527 0.56862 0.0
H452 H 0.79963 0.62733 0.4975 0.0
H453 H 0.78196 0.4463 0.49905 0.0
O454 O 0.79098 0.63385 0.53767 0.0
O455 O 0.77129 0.57667 0.537 0.0
O456 O 0.78382 0.45234 0.54161 0.0
C457 C 0.77705 0.63196 0.53702 0.0
H458 H 0.77674 0.51136 0.62094 0.0
H459 H 0.79886 0.58331 0.45635 0.0
H460 H 0.83006 0.40981 0.57008 0.0
H461 H 0.84249 0.54196 0.51893 0.0
Co462 Co 0.96819 0.55282 0.29416 0.0
C463 C 0.96705 0.59143 0.24611 0.0
C464 C 0.98069 0.51189 0.25109 0.0
C465 C 0.98118 0.52906 0.22889 0.0
N466 N 0.97133 0.54922 0.26186 0.0
N467 N 0.97262 0.57923 0.22582 0.0
H468 H 0.96072 0.63268 0.24953 0.0
H469 H 0.98747 0.47713 0.25896 0.0
C470 C 0.97092 0.41253 0.28725 0.0
O471 O 0.96272 0.41336 0.26941 0.0
N472 N 0.96541 0.55772 0.32616 0.0
C473 C 0.95706 0.5993 0.33682 0.0
C474 C 0.95689 0.58414 0.3592 0.0
C475 C 0.97023 0.51786 0.34219 0.0
N476 N 0.9651 0.53268 0.36255 0.0
C477 C 0.93887 0.56714 0.278 0.0
C478 C 0.92863 0.46292 0.30055 0.0
C479 C 0.91932 0.49601 0.28639 0.0
C480 C 0.92457 0.54928 0.27519 0.0
C481 C 0.94277 0.48192 0.30269 0.0
N482 N 0.94798 0.53187 0.29081 0.0
H483 H 0.94247 0.60985 0.2702 0.0
H484 H 0.94955 0.45599 0.31409 0.0
H485 H 0.95111 0.63669 0.32874 0.0
H486 H 0.97713 0.47815 0.33903 0.0
O487 O 0.96812 0.64452 0.29215 0.0
O488 O 0.98709 0.58399 0.29779 0.0
O489 O 0.97357 0.46252 0.29797 0.0
C490 C 0.98189 0.64004 0.29535 0.0
H491 H 0.98806 0.50907 0.21633 0.0
H492 H 0.95066 0.60751 0.37185 0.0
H493 H 0.92508 0.42188 0.30974 0.0
H494 H 0.91762 0.57758 0.26469 0.0
Co495 Co 0.79176 0.28762 0.29024 0.0
C496 C 0.79568 0.25122 0.24272 0.0
C497 C 0.78113 0.32808 0.24586 0.0
C498 C 0.78139 0.31013 0.22386 0.0
N499 N 0.79049 0.29275 0.25771 0.0
N500 N 0.79049 0.26153 0.22194 0.0
H501 H 0.80227 0.21125 0.24707 0.0
H502 H 0.77366 0.36118 0.25285 0.0
C503 C 0.78793 0.42686 0.2832 0.0
O504 O 0.79756 0.42794 0.26738 0.0
N505 N 0.79249 0.28168 0.32254 0.0
C506 C 0.80152 0.24634 0.33488 0.0
C507 C 0.80054 0.26469 0.35688 0.0
C508 C 0.786 0.32021 0.3372 0.0
N509 N 0.7909 0.31174 0.35826 0.0
C510 C 0.82194 0.28797 0.27824 0.0
C511 C 0.82916 0.3871 0.30573 0.0
C512 C 0.8398 0.35977 0.2927 0.0
C513 C 0.83608 0.30963 0.27874 0.0
C514 C 0.81521 0.36496 0.30443 0.0
N515 N 0.81158 0.31676 0.29048 0.0
H516 H 0.8195 0.24721 0.26843 0.0
H517 H 0.80733 0.38663 0.31495 0.0
H518 H 0.809 0.21274 0.32815 0.0
H519 H 0.77839 0.35608 0.33241 0.0
O520 O 0.79424 0.19702 0.28816 0.0
O521 O 0.77352 0.2469 0.29025 0.0
O522 O 0.78456 0.37587 0.29303 0.0
C523 C 0.78033 0.19401 0.28839 0.0
H524 H 0.7745 0.32786 0.21069 0.0
H525 H 0.80721 0.24795 0.37047 0.0
H526 H 0.83161 0.4255 0.31691 0.0
H527 H 0.8441 0.2861 0.26888 0.0
Co528 Co 0.54098 0.28824 0.54082 0.0
C529 C 0.54403 0.31411 0.4911 0.0
C530 C 0.5249 0.26464 0.49953 0.0
C531 C 0.52486 0.27573 0.47692 0.0
N532 N 0.53712 0.28656 0.50855 0.0
N533 N 0.53682 0.30703 0.47156 0.0
H534 H 0.55386 0.34002 0.49255 0.0
H535 H 0.51635 0.24323 0.5089 0.0
C536 C 0.53297 0.15386 0.53182 0.0
O537 O 0.5404 0.15361 0.5133 0.0
N538 N 0.54449 0.29081 0.57295 0.0
C539 C 0.5533 0.33103 0.58343 0.0
C540 C 0.55369 0.31627 0.60585 0.0
C541 C 0.53972 0.25161 0.58923 0.0
N542 N 0.54519 0.26617 0.60956 0.0
C543 C 0.57075 0.29551 0.52876 0.0
C544 C 0.57838 0.17849 0.54548 0.0
C545 C 0.58902 0.21713 0.53673 0.0
C546 C 0.58509 0.27654 0.52837 0.0
C547 C 0.56429 0.19979 0.54607 0.0
N548 N 0.56045 0.25682 0.53712 0.0
H549 H 0.56804 0.34244 0.52324 0.0
H550 H 0.55669 0.17113 0.55485 0.0
H551 H 0.55933 0.36775 0.57527 0.0
H552 H 0.53244 0.21319 0.58638 0.0
O553 O 0.54374 0.37896 0.53855 0.0
O554 O 0.52319 0.33125 0.54477 0.0
O555 O 0.53293 0.20167 0.5445 0.0
C556 C 0.53001 0.38347 0.54169 0.0
H557 H 0.5164 0.26381 0.46535 0.0
H558 H 0.56013 0.33947 0.61836 0.0
H559 H 0.58104 0.13344 0.55297 0.0
H560 H 0.59307 0.30856 0.52199 0.0
Co561 Co 0.71825 0.03526 0.53474 0.0
C562 C 0.71534 0.07965 0.58163 0.0
C563 C 0.73235 0.01317 0.57822 0.0
C564 C 0.73262 0.03647 0.59964 0.0
N565 N 0.72136 0.03941 0.56695 0.0
N566 N 0.72195 0.07867 0.60181 0.0
H567 H 0.70666 0.11094 0.57742 0.0
H568 H 0.74007 0.9814 0.57105 0.0
C569 C 0.71783 0.90026 0.55075 0.0
O570 O 0.71157 0.91406 0.56965 0.0
N571 N 0.7153 0.03294 0.50271 0.0
C572 C 0.7091 0.07808 0.49013 0.0
C573 C 0.70894 0.05892 0.46823 0.0
C574 C 0.71892 0.98707 0.48827 0.0
N575 N 0.71508 0.00154 0.46701 0.0
C576 C 0.69246 0.10468 0.53903 0.0
C577 C 0.67332 0.00661 0.53864 0.0
C578 C 0.66797 0.06871 0.53896 0.0
C579 C 0.67794 0.11764 0.53901 0.0
C580 C 0.68815 0.99554 0.53812 0.0
N581 N 0.69758 0.0445 0.53851 0.0
H582 H 0.69955 0.14434 0.53892 0.0
H583 H 0.6919 0.94774 0.53691 0.0
H584 H 0.70509 0.12226 0.49636 0.0
H585 H 0.72419 0.9439 0.49325 0.0
O586 O 0.72333 0.12266 0.53287 0.0
O587 O 0.7386 0.04362 0.53014 0.0
O588 O 0.71848 0.94059 0.53499 0.0
C589 C 0.7364 0.10387 0.53049 0.0
H590 H 0.74059 0.02565 0.61221 0.0
H591 H 0.70486 0.08602 0.45425 0.0
H592 H 0.66618 0.96675 0.5386 0.0
H593 H 0.67469 0.16645 0.53832 0.0
Co594 Co 0.54185 0.01785 0.78469 0.0
C595 C 0.5449 0.97781 0.8328 0.0
C596 C 0.53059 0.05549 0.82904 0.0
C597 C 0.5307 0.03718 0.85111 0.0
N598 N 0.5399 0.01997 0.81745 0.0
N599 N 0.53966 0.98809 0.85353 0.0
H600 H 0.55157 0.93806 0.82877 0.0
H601 H 0.5233 0.08946 0.82188 0.0
C602 C 0.53706 0.15612 0.79209 0.0
O603 O 0.54748 0.15727 0.80683 0.0
N604 N 0.54342 0.01436 0.75212 0.0
C605 C 0.55063 0.97024 0.74068 0.0
C606 C 0.55028 0.98522 0.71831 0.0
C607 C 0.53887 0.05614 0.73634 0.0
N608 N 0.54297 0.03941 0.71551 0.0
C609 C 0.57169 0.01779 0.79849 0.0
C610 C 0.57951 0.11838 0.77181 0.0
C611 C 0.58995 0.089 0.78497 0.0
C612 C 0.58592 0.03831 0.79859 0.0
C613 C 0.56545 0.09733 0.77255 0.0
N614 N 0.56155 0.04815 0.786 0.0
H615 H 0.56901 0.97643 0.80795 0.0
H616 H 0.55772 0.12064 0.762 0.0
H617 H 0.55618 0.93069 0.74811 0.0
H618 H 0.53294 0.09853 0.73995 0.0
O619 O 0.54471 0.92727 0.78659 0.0
O620 O 0.52384 0.97543 0.78314 0.0
O621 O 0.53401 0.10535 0.78196 0.0
C622 C 0.53085 0.92301 0.78517 0.0
H623 H 0.52389 0.05558 0.86407 0.0
H624 H 0.55553 0.95944 0.70516 0.0
H625 H 0.58221 0.15738 0.76093 0.0
H626 H 0.59377 0.01336 0.80857 0.0
Co627 Co 0.71737 0.29483 0.78506 0.0
C628 C 0.71617 0.33235 0.83379 0.0
C629 C 0.73277 0.26644 0.82666 0.0
C630 C 0.73363 0.28174 0.84882 0.0
N631 N 0.72146 0.29588 0.8172 0.0
N632 N 0.72322 0.32321 0.85335 0.0
H633 H 0.70786 0.36696 0.8316 0.0
H634 H 0.74042 0.23799 0.81784 0.0
C635 C 0.72294 0.15957 0.79593 0.0
O636 O 0.7135 0.16231 0.81203 0.0
N637 N 0.71406 0.29343 0.753 0.0
C638 C 0.70359 0.32297 0.7416 0.0
C639 C 0.70357 0.30158 0.71987 0.0
C640 C 0.72033 0.25501 0.73803 0.0
N641 N 0.71404 0.25833 0.71763 0.0
C642 C 0.68822 0.29883 0.80124 0.0
C643 C 0.67951 0.1896 0.78045 0.0
C644 C 0.66969 0.22214 0.79361 0.0
C645 C 0.67418 0.27772 0.804 0.0
C646 C 0.69344 0.21186 0.77838 0.0
N647 N 0.69787 0.2646 0.78938 0.0
H648 H 0.69114 0.34369 0.80804 0.0
H649 H 0.70064 0.18667 0.76764 0.0
H650 H 0.69602 0.35525 0.74886 0.0
H651 H 0.72906 0.22383 0.7422 0.0
O652 O 0.71437 0.38517 0.78556 0.0
O653 O 0.73513 0.33745 0.78048 0.0
O654 O 0.72508 0.20712 0.78337 0.0
C655 C 0.72811 0.38974 0.78267 0.0
H656 H 0.74179 0.26617 0.86046 0.0
H657 H 0.6959 0.31456 0.7071 0.0
H658 H 0.67649 0.14695 0.77184 0.0
H659 H 0.66679 0.30568 0.81362 0.0
Co660 Co 0.4646 0.76829 0.53295 0.0
C661 C 0.4626 0.74114 0.58267 0.0
C662 C 0.47872 0.80846 0.57464 0.0
C663 C 0.47903 0.79797 0.59728 0.0
N664 N 0.468 0.77519 0.56533 0.0
N665 N 0.46893 0.7556 0.60241 0.0
H666 H 0.4547 0.70465 0.58097 0.0
H667 H 0.48635 0.83647 0.56553 0.0
C668 C 0.47017 0.90661 0.53811 0.0
O669 O 0.46155 0.90955 0.55527 0.0
N670 N 0.46172 0.76073 0.50075 0.0
C671 C 0.45304 0.71949 0.49049 0.0
C672 C 0.45281 0.73263 0.46792 0.0
C673 C 0.46662 0.79861 0.48416 0.0
N674 N 0.46126 0.78269 0.46391 0.0
C675 C 0.43504 0.76989 0.5482 0.0
C676 C 0.42696 0.87189 0.5222 0.0
C677 C 0.41675 0.84367 0.53588 0.0
C678 C 0.42092 0.79208 0.5491 0.0
C679 C 0.4409 0.84906 0.52206 0.0
N680 N 0.44499 0.79957 0.53533 0.0
H681 H 0.43777 0.72767 0.55722 0.0
H682 H 0.44834 0.87086 0.51078 0.0
H683 H 0.4469 0.68364 0.49892 0.0
H684 H 0.47375 0.83769 0.4868 0.0
O685 O 0.46199 0.67799 0.53672 0.0
O686 O 0.48256 0.7259 0.53055 0.0
O687 O 0.47217 0.85512 0.52787 0.0
C688 C 0.47579 0.67376 0.53416 0.0
H689 H 0.48661 0.81767 0.60898 0.0
H690 H 0.44639 0.70877 0.45553 0.0
H691 H 0.42417 0.91127 0.51147 0.0
H692 H 0.41322 0.76765 0.55937 0.0
Co693 Co 0.28815 0.03793 0.54597 0.0
C694 C 0.29089 0.07845 0.594 0.0
C695 C 0.2792 0.99273 0.59055 0.0
C696 C 0.27966 0.0081 0.61276 0.0
N697 N 0.28673 0.03521 0.57865 0.0
N698 N 0.28701 0.06194 0.61498 0.0
H699 H 0.29623 0.12201 0.58997 0.0
H700 H 0.27303 0.95467 0.58366 0.0
C701 C 0.28789 0.89661 0.55306 0.0
O702 O 0.29862 0.89916 0.5672 0.0
N703 N 0.28903 0.04073 0.51346 0.0
C704 C 0.29646 0.08206 0.50101 0.0
C705 C 0.29618 0.06275 0.47905 0.0
C706 C 0.28425 0.99716 0.49884 0.0
N707 N 0.28863 0.00893 0.47773 0.0
C708 C 0.31795 0.04925 0.55994 0.0
C709 C 0.32776 0.95129 0.534 0.0
C710 C 0.33738 0.98079 0.54847 0.0
C711 C 0.33234 0.03108 0.56136 0.0
C712 C 0.31354 0.97051 0.53323 0.0
N713 N 0.30856 0.01722 0.54676 0.0
H714 H 0.31447 0.08929 0.56935 0.0
H715 H 0.30644 0.94603 0.52208 0.0
H716 H 0.30234 0.12157 0.50759 0.0
H717 H 0.27821 0.95609 0.50361 0.0
O718 O 0.28857 0.12944 0.54671 0.0
O719 O 0.26904 0.07129 0.54479 0.0
O720 O 0.28287 0.94668 0.54415 0.0
C721 C 0.27467 0.12695 0.54558 0.0
H722 H 0.27437 0.98325 0.62617 0.0
H723 H 0.30188 0.08452 0.46539 0.0
H724 H 0.33108 0.91234 0.52367 0.0
H725 H 0.33948 0.05667 0.57226 0.0
Co726 Co 0.46709 0.03085 0.28883 0.0
C727 C 0.4646 0.06005 0.23914 0.0
C728 C 0.48169 0.99707 0.24732 0.0
C729 C 0.48187 0.00804 0.22473 0.0
N730 N 0.47054 0.02752 0.2565 0.0
N731 N 0.47115 0.04765 0.2195 0.0
H732 H 0.45609 0.09384 0.24068 0.0
H733 H 0.4896 0.97037 0.25655 0.0
C734 C 0.47199 0.89378 0.28023 0.0
O735 O 0.46247 0.89573 0.26407 0.0
N736 N 0.46414 0.03422 0.32109 0.0
C737 C 0.45683 0.07902 0.33202 0.0
C738 C 0.45644 0.06376 0.35439 0.0
C739 C 0.46795 0.99174 0.33709 0.0
N740 N 0.46337 0.00876 0.35762 0.0
C741 C 0.43772 0.04217 0.27473 0.0
C742 C 0.42801 0.93531 0.29618 0.0
C743 C 0.41813 0.97245 0.28431 0.0
C744 C 0.42326 0.02655 0.27343 0.0
C745 C 0.44242 0.95214 0.29673 0.0
N746 N 0.44726 0.00404 0.28552 0.0
H747 H 0.4411 0.08643 0.2678 0.0
H748 H 0.4496 0.92422 0.30686 0.0
H749 H 0.45183 0.11947 0.32425 0.0
H750 H 0.47387 0.94907 0.33387 0.0
O751 O 0.46481 0.12145 0.28648 0.0
O752 O 0.48528 0.07175 0.29227 0.0
O753 O 0.47428 0.94227 0.29213 0.0
C754 C 0.47858 0.12471 0.28931 0.0
H755 H 0.48974 0.99058 0.21314 0.0
H756 H 0.45105 0.09025 0.36721 0.0
H757 H 0.42463 0.89462 0.30569 0.0
H758 H 0.41617 0.05744 0.26419 0.0
Co759 Co 0.28839 0.79173 0.29408 0.0
C760 C 0.29087 0.74409 0.24721 0.0
C761 C 0.27654 0.82208 0.24933 0.0
C762 C 0.27645 0.80063 0.22769 0.0
N763 N 0.286 0.78831 0.26156 0.0
N764 N 0.28544 0.7514 0.22638 0.0
H765 H 0.29754 0.70492 0.25201 0.0
H766 H 0.26943 0.85744 0.25586 0.0
C767 C 0.28606 0.92901 0.28137 0.0
O768 O 0.29569 0.92306 0.26567 0.0
N769 N 0.29036 0.79453 0.32642 0.0
C770 C 0.29745 0.75296 0.33943 0.0
C771 C 0.29734 0.77413 0.36116 0.0
C772 C 0.28607 0.84048 0.34045 0.0
N773 N 0.29026 0.82941 0.36177 0.0
C774 C 0.31783 0.76763 0.28219 0.0
C775 C 0.32871 0.87683 0.30027 0.0
C776 C 0.33811 0.83607 0.28928 0.0
C777 C 0.33243 0.78036 0.28037 0.0
C778 C 0.31418 0.86272 0.30139 0.0
N779 N 0.30876 0.80992 0.29163 0.0
H780 H 0.31395 0.72297 0.27648 0.0
H781 H 0.30735 0.89412 0.31054 0.0
H782 H 0.30274 0.71115 0.33343 0.0
H783 H 0.2802 0.88181 0.33519 0.0
O784 O 0.28843 0.70018 0.29478 0.0
O785 O 0.26931 0.76136 0.29721 0.0
O786 O 0.28307 0.8828 0.29409 0.0
C787 C 0.27459 0.70505 0.2964 0.0
H788 H 0.26959 0.81727 0.21433 0.0
H789 H 0.30262 0.75189 0.37524 0.0
H790 H 0.33253 0.91888 0.30842 0.0
H791 H 0.33916 0.74655 0.27203 0.0
Co792 Co 0.54189 0.79204 0.04197 0.0
C793 C 0.54398 0.83864 0.9947 0.0
C794 C 0.53216 0.7527 0.99684 0.0
C795 C 0.53243 0.77198 0.97486 0.0
N796 N 0.53949 0.79415 1.00941 0.0
N797 N 0.53979 0.82618 0.97346 0.0
H798 H 0.55006 0.87968 0.99941 0.0
H799 H 0.52667 0.71167 1.00306 0.0
C800 C 0.53752 0.65109 0.04936 0.0
O801 O 0.54992 0.6424 0.05922 0.0
N802 N 0.54407 0.79102 0.0749 0.0
C803 C 0.54977 0.83816 0.08704 0.0
C804 C 0.54933 0.82302 0.10934 0.0
C805 C 0.53984 0.74827 0.0906 0.0
N806 N 0.54314 0.76634 0.11173 0.0
C807 C 0.57244 0.79402 0.04772 0.0
C808 C 0.57835 0.68968 0.02196 0.0
C809 C 0.58971 0.72047 0.03256 0.0
C810 C 0.58655 0.77367 0.04545 0.0
C811 C 0.56437 0.71184 0.02462 0.0
N812 N 0.56147 0.76206 0.03805 0.0
H813 H 0.57042 0.83618 0.05703 0.0
H814 H 0.55585 0.68813 1.0159 0.0
H815 H 0.55399 0.88149 0.08033 0.0
H816 H 0.53398 0.70596 0.08705 0.0
O817 O 0.54472 0.88276 0.04142 0.0
O818 O 0.52394 0.83468 0.04499 0.0
O819 O 0.53373 0.70533 0.04247 0.0
C820 C 0.53089 0.88715 0.0433 0.0
H821 H 0.52708 0.74911 0.96107 0.0
H822 H 0.55347 0.85153 0.12279 0.0
H823 H 0.58026 0.64955 1.01134 0.0
H824 H 0.59491 0.79953 0.05384 0.0
Co825 Co 0.71788 0.55863 0.02872 0.0
C826 C 0.72036 0.60832 0.07502 0.0
C827 C 0.72493 0.50997 0.07498 0.0
C828 C 0.72538 0.53116 0.09672 0.0
N829 N 0.72132 0.55809 0.06124 0.0
N830 N 0.72232 0.59311 0.09675 0.0
H831 H 0.71807 0.65556 0.06934 0.0
H832 H 0.72717 0.46245 0.07002 0.0
C833 C 0.71745 0.41453 0.0339 0.0
O834 O 0.70547 0.41446 0.04512 0.0
N835 N 0.71453 0.56127 0.99669 0.0
C836 C 0.70617 0.60403 0.98632 0.0
C837 C 0.7055 0.59026 0.964 0.0
C838 C 0.71886 0.52171 0.98042 0.0
N839 N 0.71347 0.53854 0.96016 0.0
C840 C 0.69076 0.59215 0.04594 0.0
C841 C 0.6742 0.51603 0.01921 0.0
C842 C 0.66755 0.56363 0.03163 0.0
C843 C 0.67605 0.59999 0.04573 0.0
C844 C 0.68917 0.50925 0.02007 0.0
N845 N 0.69732 0.54796 0.03311 0.0
H846 H 0.69682 0.62598 0.0551 0.0
H847 H 0.69423 0.47584 1.00911 0.0
H848 H 0.70057 0.64175 0.99459 0.0
H849 H 0.72572 0.48153 0.98333 0.0
O850 O 0.7183 0.64934 0.02882 0.0
O851 O 0.73716 0.58782 0.02436 0.0
O852 O 0.72267 0.46607 0.02668 0.0
C853 C 0.732 0.64441 0.02609 0.0
H854 H 0.72742 0.50249 0.11136 0.0
H855 H 0.69921 0.61546 0.95167 0.0
H856 H 0.66804 0.48702 1.00795 0.0
H857 H 0.67143 0.63695 0.05577 0.0
Co858 Co 0.54223 0.51505 0.28754 0.0
C859 C 0.54562 0.48239 0.33687 0.0
C860 C 0.52686 0.53635 0.32942 0.0
C861 C 0.52698 0.52281 0.35187 0.0
N862 N 0.53876 0.51307 0.3199 0.0
N863 N 0.53871 0.48876 0.35659 0.0
H864 H 0.55518 0.45469 0.33496 0.0
H865 H 0.51837 0.56026 0.3205 0.0
C866 C 0.5354 0.64841 0.29917 0.0
O867 O 0.54455 0.64516 0.31583 0.0
N868 N 0.54535 0.51619 0.25528 0.0
C869 C 0.55405 0.47645 0.24442 0.0
C870 C 0.55416 0.49215 0.22212 0.0
C871 C 0.54039 0.55641 0.23927 0.0
N872 N 0.54559 0.54244 0.21873 0.0
C873 C 0.57203 0.50523 0.29965 0.0
C874 C 0.57995 0.6221 0.28348 0.0
C875 C 0.59047 0.58249 0.29236 0.0
C876 C 0.58642 0.52307 0.30032 0.0
C877 C 0.5658 0.6018 0.28254 0.0
N878 N 0.56181 0.54502 0.29139 0.0
H879 H 0.56923 0.45827 0.30487 0.0
H880 H 0.55819 0.63118 0.27383 0.0
H881 H 0.56017 0.43917 0.25225 0.0
H882 H 0.53317 0.59499 0.2425 0.0
O883 O 0.54515 0.42433 0.28839 0.0
O884 O 0.5244 0.47214 0.28328 0.0
O885 O 0.53412 0.60252 0.28569 0.0
C886 C 0.5314 0.41974 0.28546 0.0
H887 H 0.5188 0.53507 0.36376 0.0
H888 H 0.56044 0.4692 0.20944 0.0
H889 H 0.58275 0.66726 0.27629 0.0
H890 H 0.59434 0.49031 0.30664 0.0
Co891 Co 0.71634 0.8093 0.27965 0.0
C892 C 0.71351 0.84195 0.32814 0.0
C893 C 0.73415 0.8061 0.31979 0.0
C894 C 0.73441 0.82457 0.3417 0.0
N895 N 0.721 0.81585 0.31128 0.0
N896 N 0.72144 0.84734 0.34704 0.0
H897 H 0.70272 0.85884 0.32646 0.0
H898 H 0.74315 0.78892 0.31038 0.0
C899 C 0.72666 0.68031 0.29323 0.0
O900 O 0.7211 0.68538 0.3132 0.0
N901 N 0.7122 0.80305 0.24808 0.0
C902 C 0.7009 0.82683 0.23698 0.0
C903 C 0.70121 0.80518 0.21532 0.0
C904 C 0.71929 0.76788 0.23306 0.0
N905 N 0.71276 0.76773 0.21286 0.0
C906 C 0.68667 0.82021 0.29164 0.0
C907 C 0.67957 0.69537 0.28579 0.0
C908 C 0.6687 0.73734 0.29193 0.0
C909 C 0.67251 0.80091 0.29465 0.0
C910 C 0.69345 0.71696 0.28228 0.0
N911 N 0.69707 0.77831 0.28599 0.0
H912 H 0.68918 0.86947 0.29335 0.0
H913 H 0.70105 0.68382 0.2759 0.0
H914 H 0.69272 0.85596 0.24432 0.0
H915 H 0.72894 0.74217 0.23698 0.0
O916 O 0.71314 0.89989 0.27888 0.0
O917 O 0.73379 0.85245 0.27305 0.0
O918 O 0.72473 0.72277 0.27846 0.0
C919 C 0.72678 0.9047 0.2751 0.0
H920 H 0.74371 0.8244 0.35245 0.0
H921 H 0.69318 0.81431 0.20269 0.0
H922 H 0.6775 0.64583 0.28348 0.0
H923 H 0.66461 0.83627 0.29852 0.0
Co924 Co 0.46721 0.27768 0.03947 0.0
C925 C 0.46409 0.23532 0.08735 0.0
C926 C 0.47979 0.30771 0.08327 0.0
C927 C 0.47903 0.29242 0.10552 0.0
N928 N 0.4703 0.27288 0.07177 0.0
N929 N 0.46922 0.24694 0.10814 0.0
H930 H 0.45597 0.20082 0.08363 0.0
H931 H 0.48697 0.34174 0.07609 0.0
C932 C 0.4713 0.41997 0.03508 0.0
O933 O 0.4585 0.43035 0.02683 0.0
N934 N 0.46461 0.28223 1.00667 0.0
C935 C 0.45936 0.23634 0.99345 0.0
C936 C 0.45921 0.25656 0.97154 0.0
C937 C 0.46803 0.32907 0.99206 0.0
N938 N 0.46458 0.31521 0.97062 0.0
C939 C 0.4366 0.28246 0.03297 0.0
C940 C 0.43146 0.37822 0.06292 0.0
C941 C 0.42003 0.35542 0.05015 0.0
C942 C 0.42274 0.30607 0.03529 0.0
C943 C 0.44518 0.35363 0.05995 0.0
N944 N 0.44775 0.30805 0.04445 0.0
H945 H 0.43831 0.24341 0.02194 0.0
H946 H 0.45383 0.3728 0.0697 0.0
H947 H 0.45565 0.19106 0.99924 0.0
H948 H 0.47335 0.37187 0.99659 0.0
O949 O 0.46417 0.18716 0.03924 0.0
O950 O 0.485 0.23478 0.03528 0.0
O951 O 0.47546 0.36443 0.0398 0.0
C952 C 0.47797 0.18247 0.03684 0.0
H953 H 0.48544 0.31225 0.11879 0.0
H954 H 0.4551 0.23049 0.95746 0.0
H955 H 0.42991 0.41596 0.07473 0.0
H956 H 0.41418 0.28534 0.02565 0.0
Co957 Co 0.29047 0.54281 0.04189 0.0
C958 C 0.29336 0.58759 0.08893 0.0
C959 C 0.28228 0.49999 0.08729 0.0
C960 C 0.28213 0.52042 0.10902 0.0
N961 N 0.28969 0.54105 0.07459 0.0
N962 N 0.28904 0.57574 0.11007 0.0
H963 H 0.29844 0.63092 0.08386 0.0
H964 H 0.2763 0.46036 0.08115 0.0
C965 C 0.28975 0.40148 0.0491 0.0
O966 O 0.30078 0.40327 0.06267 0.0
N967 N 0.29082 0.54545 1.00937 0.0
C968 C 0.29782 0.58786 0.99676 0.0
C969 C 0.29748 0.56868 0.97483 0.0
C970 C 0.28622 0.50124 0.99484 0.0
N971 N 0.29033 0.51381 0.97367 0.0
C972 C 0.32065 0.55234 0.05434 0.0
C973 C 0.32962 0.45628 0.0268 0.0
C974 C 0.33982 0.48683 0.03994 0.0
C975 C 0.33517 0.53551 0.05393 0.0
C976 C 0.31534 0.47404 0.02784 0.0
N977 N 0.31083 0.52067 0.04178 0.0
H978 H 0.31741 0.59139 0.06449 0.0
H979 H 0.30786 0.44913 1.01745 0.0
H980 H 0.30352 0.62805 1.00321 0.0
H981 H 0.28062 0.45905 0.99972 0.0
O982 O 0.29122 0.63442 0.0424 0.0
O983 O 0.27148 0.57759 0.04153 0.0
O984 O 0.28474 0.45193 0.04046 0.0
C985 C 0.2773 0.63288 0.04201 0.0
H986 H 0.27641 0.49863 0.12266 0.0
H987 H 0.30292 0.59122 0.96107 0.0
H988 H 0.33261 0.41815 1.01586 0.0
H989 H 0.34273 0.56132 0.06406 0.0
Co990 Co 0.46711 0.53405 0.7849 0.0
C991 C 0.46362 0.57064 0.73588 0.0
C992 C 0.483 0.52091 0.74322 0.0
C993 C 0.48281 0.53553 0.72086 0.0
N994 N 0.47081 0.54097 0.75272 0.0
N995 N 0.47069 0.56689 0.71622 0.0
H996 H 0.45364 0.59523 0.73779 0.0
H997 H 0.49164 0.49786 0.75208 0.0
C998 C 0.47432 0.40275 0.7706 0.0
O999 O 0.46566 0.40797 0.75338 0.0
N1000 N 0.46385 0.52723 0.81705 0.0
C1001 C 0.45588 0.56646 0.82944 0.0
C1002 C 0.45559 0.54455 0.85115 0.0
C1003 C 0.46819 0.48151 0.8315 0.0
N1004 N 0.46329 0.49095 0.85252 0.0
C1005 C 0.43751 0.54822 0.77287 0.0
C1006 C 0.42917 0.42731 0.78363 0.0
C1007 C 0.41874 0.46943 0.77561 0.0
C1008 C 0.42316 0.53112 0.77054 0.0
C1009 C 0.44329 0.44697 0.78635 0.0
N1010 N 0.44751 0.50587 0.77998 0.0
H1011 H 0.44048 0.59635 0.76955 0.0
H1012 H 0.4507 0.41466 0.79407 0.0
H1013 H 0.45036 0.60753 0.82306 0.0
H1014 H 0.47473 0.44188 0.8268 0.0
O1015 O 0.46435 0.62467 0.78587 0.0
O1016 O 0.485 0.57549 0.79033 0.0
O1017 O 0.47508 0.44644 0.78503 0.0
C1018 C 0.47809 0.62833 0.78902 0.0
H1019 H 0.49115 0.52552 0.70896 0.0
H1020 H 0.4497 0.56542 0.86472 0.0
H1021 H 0.42657 0.37927 0.78797 0.0
H1022 H 0.41561 0.56688 0.76535 0.0
Co1023 Co 0.28858 0.30441 0.78983 0.0
C1024 C 0.29069 0.27129 0.741 0.0
C1025 C 0.27271 0.3297 0.74853 0.0
C1026 C 0.27227 0.31559 0.7262 0.0
N1027 N 0.28448 0.30377 0.75782 0.0
N1028 N 0.28353 0.27874 0.72145 0.0
H1029 H 0.29993 0.24148 0.74297 0.0
H1030 H 0.26474 0.35597 0.75755 0.0
C1031 C 0.28435 0.44098 0.77759 0.0
O1032 O 0.29084 0.43437 0.75837 0.0
N1033 N 0.29218 0.30508 0.82175 0.0
C1034 C 0.30055 0.2656 0.83363 0.0
C1035 C 0.30093 0.28557 0.85555 0.0
C1036 C 0.28756 0.34826 0.83653 0.0
N1037 N 0.29282 0.33785 0.85727 0.0
C1038 C 0.31768 0.274 0.77817 0.0
C1039 C 0.32915 0.38951 0.78922 0.0
C1040 C 0.33827 0.3422 0.78176 0.0
C1041 C 0.33244 0.28347 0.77644 0.0
C1042 C 0.31459 0.3776 0.79131 0.0
N1043 N 0.30885 0.32127 0.785 0.0
H1044 H 0.31341 0.22797 0.77468 0.0
H1045 H 0.30817 0.41335 0.799 0.0
H1046 H 0.30631 0.22617 0.82674 0.0
H1047 H 0.28057 0.387 0.83226 0.0
O1048 O 0.28825 0.21289 0.7897 0.0
O1049 O 0.2696 0.27503 0.79521 0.0
O1050 O 0.28359 0.39568 0.79147 0.0
C1051 C 0.27458 0.21849 0.79322 0.0
H1052 H 0.26395 0.32899 0.71453 0.0
H1053 H 0.30715 0.26478 0.86895 0.0
H1054 H 0.33334 0.43462 0.79439 0.0
H1055 H 0.33925 0.24515 0.77121 0.0
H1056 H 0.04441 0.0419 0.17765 0.0
H1057 H 0.04435 0.2039 0.22051 0.0
H1058 H 0.04431 0.27368 0.18796 0.0
H1059 H 0.045 0.28894 0.14704 0.0
H1060 H 0.04442 0.12695 0.10423 0.0
H1061 H 0.04393 0.05719 0.13676 0.0
C1062 C 0.04438 0.09247 0.17981 0.0
C1063 C 0.0444 0.11753 0.2015 0.0
C1064 C 0.04423 0.13243 0.16095 0.0
C1065 C 0.04418 0.18327 0.20404 0.0
C1066 C 0.04425 0.22327 0.18541 0.0
C1067 C 0.04474 0.23837 0.1449 0.0
C1068 C 0.04471 0.21325 0.12322 0.0
C1069 C 0.04437 0.19844 0.16376 0.0
C1070 C 0.04423 0.14757 0.12068 0.0
C1071 C 0.04406 0.1076 0.13931 0.0
H1072 H 0.21614 0.19039 0.10931 0.0
H1073 H 0.23136 0.02071 0.14118 0.0
H1074 H 0.22887 0.06926 0.17777 0.0
H1075 H 0.22198 0.16008 0.20118 0.0
H1076 H 0.20718 0.33008 0.16887 0.0
H1077 H 0.20975 0.28142 0.13251 0.0
C1078 C 0.21879 0.1638 0.12424 0.0
C1079 C 0.22394 0.10174 0.12229 0.0
C1080 C 0.21739 0.19224 0.1454 0.0
C1081 C 0.22752 0.06865 0.142 0.0
C1082 C 0.22605 0.09639 0.16303 0.0
C1083 C 0.21945 0.1867 0.1862 0.0
C1084 C 0.21421 0.24873 0.18806 0.0
C1085 C 0.22102 0.15831 0.16501 0.0
C1086 C 0.21094 0.28201 0.16825 0.0
C1087 C 0.21248 0.25424 0.14728 0.0
H1088 H 0.97064 0.0179 0.8984 0.0
H1089 H 0.96154 0.86476 0.85374 0.0
H1090 H 0.95982 0.79235 0.8854 0.0
H1091 H 0.96008 0.77298 0.92617 0.0
H1092 H 0.96913 0.92676 0.97049 0.0
H1093 H 0.9717 0.99799 0.93882 0.0
C1094 C 0.96826 0.96873 0.89559 0.0
C1095 C 0.96619 0.94708 0.87366 0.0
C1096 C 0.96727 0.92723 0.91392 0.0
C1097 C 0.96334 0.88281 0.87036 0.0
C1098 C 0.96225 0.84134 0.88851 0.0
C1099 C 0.96262 0.82206 0.92885 0.0
C1100 C 0.96448 0.84425 0.95078 0.0
C1101 C 0.96407 0.86308 0.91041 0.0
C1102 C 0.9679 0.90799 0.9539 0.0
C1103 C 0.96925 0.949 0.93574 0.0
H1104 H 0.79167 0.78832 0.90266 0.0
H1105 H 0.78861 0.94144 0.85542 0.0
H1106 H 0.7873 0.01683 0.88587 0.0
H1107 H 0.78829 0.03995 0.92608 0.0
H1108 H 0.79125 0.88674 0.97335 0.0
H1109 H 0.7912 0.81105 0.94294 0.0
C1110 C 0.79067 0.83818 0.8991 0.0
C1111 C 0.79026 0.85911 0.87681 0.0
C1112 C 0.78992 0.88141 0.91674 0.0
C1113 C 0.78878 0.92388 0.8724 0.0
C1114 C 0.78814 0.96715 0.88983 0.0
C1115 C 0.78888 0.99001 0.92969 0.0
C1116 C 0.78982 0.96924 0.95197 0.0
C1117 C 0.78888 0.94655 0.91207 0.0
C1118 C 0.79037 0.90417 0.95639 0.0
C1119 C 0.79045 0.86076 0.93898 0.0
H1120 H 0.04061 0.6341 0.6111 0.0
H1121 H 0.04299 0.81375 0.64384 0.0
H1122 H 0.0424 0.7619 0.68026 0.0
H1123 H 0.04295 0.66463 0.70313 0.0
H1124 H 0.04076 0.48506 0.6703 0.0
H1125 H 0.03941 0.5373 0.63401 0.0
C1126 C 0.04075 0.66196 0.62618 0.0
C1127 C 0.04198 0.72791 0.62457 0.0
C1128 C 0.04056 0.63163 0.64725 0.0
C1129 C 0.04229 0.76298 0.64444 0.0
C1130 C 0.0419 0.7333 0.66536 0.0
C1131 C 0.04193 0.637 0.68807 0.0
C1132 C 0.04211 0.5708 0.68959 0.0
C1133 C 0.04131 0.66752 0.66703 0.0
C1134 C 0.04091 0.53593 0.66974 0.0
C1135 C 0.04009 0.56584 0.6489 0.0
H1136 H 0.21821 0.69587 0.60814 0.0
H1137 H 0.22504 0.52186 0.64408 0.0
H1138 H 0.22318 0.57697 0.67941 0.0
H1139 H 0.21894 0.67431 0.70058 0.0
H1140 H 0.21169 0.84802 0.6648 0.0
H1141 H 0.2142 0.79347 0.62932 0.0
C1142 C 0.2192 0.66979 0.62364 0.0
C1143 C 0.22186 0.60444 0.62316 0.0
C1144 C 0.218 0.70187 0.64416 0.0
C1145 C 0.22325 0.57212 0.64367 0.0
C1146 C 0.2221 0.60363 0.66403 0.0
C1147 C 0.21807 0.7004 0.68505 0.0
C1148 C 0.21506 0.76537 0.68553 0.0
C1149 C 0.21946 0.66852 0.66454 0.0
C1150 C 0.21381 0.79797 0.66508 0.0
C1151 C 0.21529 0.76677 0.64469 0.0
H1152 H 0.96911 0.40731 0.36729 0.0
H1153 H 0.96451 0.57905 0.40448 0.0
H1154 H 0.96516 0.51961 0.43949 0.0
H1155 H 0.96556 0.41799 0.45952 0.0
H1156 H 0.96971 0.24629 0.42219 0.0
H1157 H 0.97087 0.30636 0.38738 0.0
C1158 C 0.96849 0.43188 0.38304 0.0
C1159 C 0.9667 0.49767 0.38319 0.0
C1160 C 0.96872 0.39724 0.40315 0.0
C1161 C 0.9657 0.52846 0.40384 0.0
C1162 C 0.96612 0.49448 0.42389 0.0
C1163 C 0.96696 0.39383 0.4438 0.0
C1164 C 0.96748 0.32763 0.4435 0.0
C1165 C 0.96741 0.42873 0.42376 0.0
C1166 C 0.9691 0.29707 0.4229 0.0
C1167 C 0.96979 0.33144 0.40297 0.0
H1168 H 0.79283 0.28098 0.40203 0.0
H1169 H 0.78393 0.43541 0.35716 0.0
H1170 H 0.78215 0.5071 0.38844 0.0
H1171 H 0.78449 0.52774 0.42861 0.0
H1172 H 0.7933 0.37392 0.47379 0.0
H1173 H 0.79367 0.30055 0.44259 0.0
C1174 C 0.79046 0.33026 0.39913 0.0
C1175 C 0.7886 0.35256 0.37713 0.0
C1176 C 0.78948 0.3716 0.41735 0.0
C1177 C 0.78531 0.41653 0.37377 0.0
C1178 C 0.78438 0.45785 0.39172 0.0
C1179 C 0.78645 0.47815 0.4316 0.0
C1180 C 0.78894 0.45653 0.45349 0.0
C1181 C 0.78666 0.43615 0.41356 0.0
C1182 C 0.79124 0.39185 0.45715 0.0
C1183 C 0.79155 0.34986 0.43927 0.0
H1184 H 0.54318 0.1658 0.70887 0.0
H1185 H 0.53896 0.98907 0.67472 0.0
H1186 H 0.53834 0.04372 0.63874 0.0
H1187 H 0.54053 0.14161 0.61657 0.0
H1188 H 0.54554 0.31815 0.65066 0.0
H1189 H 0.54428 0.26433 0.68671 0.0
C1190 C 0.5419 0.13943 0.69357 0.0
C1191 C 0.54115 0.07325 0.69458 0.0
C1192 C 0.54182 0.17129 0.67277 0.0
C1193 C 0.53969 0.03987 0.67448 0.0
C1194 C 0.53932 0.07117 0.65385 0.0
C1195 C 0.54114 0.16839 0.63188 0.0
C1196 C 0.54321 0.23402 0.63077 0.0
C1197 C 0.54061 0.13684 0.65271 0.0
C1198 C 0.54414 0.26765 0.6509 0.0
C1199 C 0.54337 0.23685 0.6716 0.0
H1200 H 0.70686 0.28197 0.67435 0.0
H1201 H 0.72742 0.14451 0.71704 0.0
H1202 H 0.73165 0.07731 0.68505 0.0
H1203 H 0.72916 0.0557 0.64498 0.0
H1204 H 0.70857 0.19259 0.60217 0.0
H1205 H 0.70437 0.26027 0.63416 0.0
C1206 C 0.71219 0.23722 0.67677 0.0
C1207 C 0.71683 0.21908 0.69834 0.0
C1208 C 0.71448 0.19796 0.6582 0.0
C1209 C 0.7239 0.16087 0.70081 0.0
C1210 C 0.72624 0.12185 0.68245 0.0
C1211 C 0.72385 0.10049 0.64253 0.0
C1212 C 0.7192 0.11843 0.62096 0.0
C1213 C 0.72156 0.13978 0.66106 0.0
C1214 C 0.71212 0.17656 0.61843 0.0
C1215 C 0.7098 0.21577 0.63678 0.0
H1216 H 0.46528 0.90753 0.45674 0.0
H1217 H 0.46105 0.73028 0.42287 0.0
H1218 H 0.4622 0.78394 0.38674 0.0
H1219 H 0.46318 0.8824 0.36447 0.0
H1220 H 0.4666 0.05969 0.3985 0.0
H1221 H 0.46711 0.00536 0.43453 0.0
C1222 C 0.46482 0.88055 0.44147 0.0
C1223 C 0.46305 0.81475 0.44265 0.0
C1224 C 0.46527 0.91198 0.42062 0.0
C1225 C 0.46226 0.78089 0.42256 0.0
C1226 C 0.46295 0.81161 0.40183 0.0
C1227 C 0.46424 0.90899 0.37976 0.0
C1228 C 0.46481 0.97522 0.37869 0.0
C1229 C 0.46428 0.87729 0.4006 0.0
C1230 C 0.46598 0.00886 0.39878 0.0
C1231 C 0.46631 0.97774 0.41944 0.0
H1232 H 0.28822 0.79559 0.4052 0.0
H1233 H 0.28914 0.95684 0.3613 0.0
H1234 H 0.28815 0.02706 0.39338 0.0
H1235 H 0.28803 0.043 0.43417 0.0
H1236 H 0.28701 0.88154 0.478 0.0
H1237 H 0.28694 0.81154 0.44589 0.0
C1238 C 0.28821 0.84608 0.40266 0.0
C1239 C 0.28881 0.87069 0.38078 0.0
C1240 C 0.28761 0.88636 0.42125 0.0
C1241 C 0.28855 0.93639 0.37785 0.0
C1242 C 0.28808 0.97669 0.39624 0.0
C1243 C 0.28777 0.99251 0.43668 0.0
C1244 C 0.28755 0.96786 0.45858 0.0
C1245 C 0.28775 0.95226 0.41805 0.0
C1246 C 0.28701 0.90215 0.46145 0.0
C1247 C 0.28708 0.86191 0.44304 0.0
H1248 H 0.54345 0.63991 0.11898 0.0
H1249 H 0.53843 0.81755 0.15233 0.0
H1250 H 0.53786 0.76411 0.18844 0.0
H1251 H 0.54043 0.66697 0.21119 0.0
H1252 H 0.5456 0.48948 0.17779 0.0
H1253 H 0.54437 0.54213 0.14158 0.0
C1254 C 0.542 0.66681 0.1341 0.0
C1255 C 0.54113 0.73298 0.13275 0.0
C1256 C 0.54182 0.63562 0.15507 0.0
C1257 C 0.53937 0.76682 0.15272 0.0
C1258 C 0.539 0.73618 0.17348 0.0
C1259 C 0.54107 0.63973 0.196 0.0
C1260 C 0.54327 0.57416 0.19742 0.0
C1261 C 0.54048 0.67062 0.17497 0.0
C1262 C 0.54416 0.53998 0.17738 0.0
C1263 C 0.54341 0.57012 0.15655 0.0
H1264 H 0.73242 0.57658 0.139 0.0
H1265 H 0.7068 0.70124 0.09808 0.0
H1266 H 0.70226 0.76753 0.13008 0.0
H1267 H 0.70481 0.78931 0.16997 0.0
H1268 H 0.72934 0.66237 0.21157 0.0
H1269 H 0.73501 0.59865 0.17917 0.0
C1270 C 0.72581 0.61806 0.13703 0.0
C1271 C 0.72008 0.63349 0.11587 0.0
C1272 C 0.72298 0.65598 0.15575 0.0
C1273 C 0.71164 0.68818 0.11384 0.0
C1274 C 0.7089 0.72616 0.13228 0.0
C1275 C 0.71133 0.74757 0.17208 0.0
C1276 C 0.71657 0.73112 0.19341 0.0
C1277 C 0.71441 0.71034 0.15335 0.0
C1278 C 0.72523 0.67715 0.19549 0.0
C1279 C 0.72843 0.64017 0.1769 0.0
H1280 H 0.4632 0.52607 0.89597 0.0
H1281 H 0.467 0.36414 0.85343 0.0
H1282 H 0.46823 0.29535 0.88624 0.0
H1283 H 0.46729 0.28042 0.9272 0.0
H1284 H 0.46356 0.44278 0.96962 0.0
H1285 H 0.46331 0.51161 0.93687 0.0
C1286 C 0.46427 0.47573 0.89383 0.0
C1287 C 0.46492 0.45062 0.87207 0.0
C1288 C 0.46498 0.43625 0.91287 0.0
C1289 C 0.46658 0.38515 0.86982 0.0
C1290 C 0.4672 0.34562 0.88865 0.0
C1291 C 0.46641 0.33083 0.92933 0.0
C1292 C 0.46539 0.35597 0.95107 0.0
C1293 C 0.46626 0.3705 0.91028 0.0
C1294 C 0.4645 0.42175 0.95329 0.0
C1295 C 0.46426 0.46129 0.93448 0.0
H1296 H 0.28858 0.54829 0.93036 0.0
H1297 H 0.29053 0.38623 0.97382 0.0
H1298 H 0.2912 0.3168 0.9415 0.0
H1299 H 0.29227 0.30211 0.90062 0.0
H1300 H 0.29004 0.46444 0.85732 0.0
H1301 H 0.28846 0.53342 0.88963 0.0
C1302 C 0.28912 0.49778 0.93274 0.0
C1303 C 0.28953 0.47271 0.95454 0.0
C1304 C 0.28952 0.45802 0.91403 0.0
C1305 C 0.29003 0.40696 0.9573 0.0
C1306 C 0.29054 0.36715 0.93878 0.0
C1307 C 0.29144 0.35257 0.89831 0.0
C1308 C 0.2913 0.37794 0.87653 0.0
C1309 C 0.29045 0.39214 0.91705 0.0
C1310 C 0.29002 0.44348 0.87382 0.0
C1311 C 0.2892 0.48307 0.89232 0.0
H1312 H 0.03822 0.27748 0.92507 0.0
H1313 H 0.04065 0.44382 0.96559 0.0
H1314 H 0.04194 0.50961 0.93201 0.0
H1315 H 0.04126 0.52023 0.89095 0.0
H1316 H 0.03967 0.35392 0.85032 0.0
H1317 H 0.03931 0.28774 0.88391 0.0
C1318 C 0.03908 0.32813 0.92648 0.0
C1319 C 0.03927 0.35572 0.94781 0.0
C1320 C 0.03997 0.36563 0.90704 0.0
C1321 C 0.04059 0.42137 0.94942 0.0
C1322 C 0.04125 0.45902 0.9302 0.0
C1323 C 0.04091 0.46947 0.8895 0.0
C1324 C 0.04042 0.44208 0.86814 0.0
C1325 C 0.0408 0.43176 0.90892 0.0
C1326 C 0.04017 0.37617 0.86651 0.0
C1327 C 0.03986 0.33835 0.88573 0.0
H1328 H 0.2267 0.81914 0.886 0.0
H1329 H 0.20787 0.96908 0.84692 0.0
H1330 H 0.20467 0.0312 0.88063 0.0
H1331 H 0.20764 0.04444 0.92111 0.0
H1332 H 0.22619 0.89383 0.96037 0.0
H1333 H 0.22939 0.83197 0.92671 0.0
C1334 C 0.22196 0.86554 0.88476 0.0
C1335 C 0.21754 0.88891 0.86367 0.0
C1336 C 0.2202 0.9015 0.90434 0.0
C1337 C 0.21123 0.94901 0.86272 0.0
C1338 C 0.20948 0.98497 0.88208 0.0
C1339 C 0.21228 0.99796 0.92255 0.0
C1340 C 0.21664 0.97462 0.94371 0.0
C1341 C 0.21395 0.96182 0.903 0.0
C1342 C 0.22283 0.91417 0.94463 0.0
C1343 C 0.2246 0.87825 0.92527 0.0
H1344 H 0.04129 0.89664 0.36534 0.0
H1345 H 0.03418 0.07477 0.39724 0.0
H1346 H 0.0357 0.02442 0.434 0.0
H1347 H 0.03723 0.9279 0.45719 0.0
H1348 H 0.04266 0.74889 0.42515 0.0
H1349 H 0.04378 0.80067 0.38862 0.0
C1350 C 0.04033 0.92441 0.38037 0.0
C1351 C 0.03764 0.9894 0.37856 0.0
C1352 C 0.04083 0.89469 0.40152 0.0
C1353 C 0.03617 0.02465 0.39821 0.0
C1354 C 0.03705 0.99586 0.41924 0.0
C1355 C 0.03892 0.90059 0.44222 0.0
C1356 C 0.03991 0.83468 0.44387 0.0
C1357 C 0.03912 0.93068 0.42114 0.0
C1358 C 0.04184 0.79964 0.42428 0.0
C1359 C 0.04246 0.82926 0.40338 0.0
H1360 H 0.23457 0.33006 0.38677 0.0
H1361 H 0.20365 0.4432 0.35086 0.0
H1362 H 0.19867 0.50179 0.38456 0.0
H1363 H 0.20303 0.52231 0.42418 0.0
H1364 H 0.23479 0.41326 0.45984 0.0
H1365 H 0.23938 0.35254 0.42635 0.0
C1366 C 0.22682 0.36779 0.38608 0.0
C1367 C 0.21955 0.38131 0.36584 0.0
C1368 C 0.22408 0.40251 0.40566 0.0
C1369 C 0.20939 0.43027 0.36588 0.0
C1370 C 0.20655 0.46446 0.38528 0.0
C1371 C 0.21107 0.48583 0.42481 0.0
C1372 C 0.2185 0.47321 0.44498 0.0
C1373 C 0.21384 0.45116 0.40527 0.0
C1374 C 0.22872 0.42446 0.44497 0.0
C1375 C 0.23143 0.38956 0.42565 0.0
H1376 H 0.97229 0.77713 0.14742 0.0
H1377 H 0.96727 0.60902 0.1085 0.0
H1378 H 0.96702 0.54514 0.1427 0.0
H1379 H 0.96941 0.53696 0.18386 0.0
H1380 H 0.97316 0.70587 0.22272 0.0
H1381 H 0.9727 0.76974 0.18858 0.0
C1382 C 0.97104 0.72653 0.14652 0.0
C1383 C 0.96985 0.69774 0.1255 0.0
C1384 C 0.97074 0.69036 0.16628 0.0
C1385 C 0.96808 0.63223 0.12448 0.0
C1386 C 0.96804 0.59574 0.14404 0.0
C1387 C 0.97006 0.58778 0.18475 0.0
C1388 C 0.97138 0.61673 0.20574 0.0
C1389 C 0.96954 0.6242 0.16502 0.0
C1390 C 0.97204 0.68263 0.20678 0.0
C1391 C 0.97184 0.71908 0.18726 0.0
H1392 H 0.79126 0.29999 0.17918 0.0
H1393 H 0.79327 0.13491 0.22115 0.0
H1394 H 0.79397 0.06779 0.18821 0.0
H1395 H 0.79248 0.0558 0.14745 0.0
H1396 H 0.79059 0.22052 0.10532 0.0
H1397 H 0.79152 0.28813 0.13822 0.0
C1398 C 0.79193 0.24933 0.18104 0.0
C1399 C 0.79217 0.22246 0.20255 0.0
C1400 C 0.79232 0.21104 0.16199 0.0
C1401 C 0.79322 0.15679 0.2048 0.0
C1402 C 0.79352 0.11837 0.18596 0.0
C1403 C 0.79234 0.10651 0.14552 0.0
C1404 C 0.79136 0.13314 0.12402 0.0
C1405 C 0.79285 0.14494 0.16449 0.0
C1406 C 0.79143 0.19893 0.12168 0.0
C1407 C 0.79186 0.23755 0.14049 0.0
H1408 H 0.96569 0.2717 0.64286 0.0
H1409 H 0.96488 0.10462 0.60254 0.0
H1410 H 0.96407 0.03902 0.63618 0.0
H1411 H 0.96577 0.0292 0.6771 0.0
H1412 H 0.9664 0.19604 0.71751 0.0
H1413 H 0.96495 0.26193 0.68391 0.0
C1414 C 0.96521 0.22094 0.64151 0.0
C1415 C 0.96546 0.19298 0.62028 0.0
C1416 C 0.96478 0.18361 0.66093 0.0
C1417 C 0.96461 0.12721 0.61867 0.0
C1418 C 0.96426 0.08972 0.63791 0.0
C1419 C 0.96545 0.08 0.67849 0.0
C1420 C 0.96632 0.10782 0.69969 0.0
C1421 C 0.96466 0.11738 0.65911 0.0
C1422 C 0.96567 0.17362 0.70138 0.0
C1423 C 0.96495 0.21123 0.68216 0.0
H1424 H 0.79152 0.78657 0.68106 0.0
H1425 H 0.79508 0.62114 0.72259 0.0
H1426 H 0.79687 0.55505 0.68948 0.0
H1427 H 0.79521 0.54377 0.64874 0.0
H1428 H 0.7916 0.70875 0.60705 0.0
H1429 H 0.79225 0.77597 0.64009 0.0
C1430 C 0.7928 0.73609 0.68276 0.0
C1431 C 0.79306 0.70861 0.70415 0.0
C1432 C 0.79379 0.69851 0.66365 0.0
C1433 C 0.79495 0.64331 0.70629 0.0
C1434 C 0.79587 0.60553 0.68737 0.0
C1435 C 0.79472 0.5945 0.64697 0.0
C1436 C 0.79322 0.6214 0.62561 0.0
C1437 C 0.79499 0.63252 0.666 0.0
C1438 C 0.79283 0.68714 0.62335 0.0
C1439 C 0.79308 0.72545 0.64223 0.0
H1440 H 0.53989 0.36647 0.36875 0.0
H1441 H 0.54421 0.55465 0.39362 0.0
H1442 H 0.54587 0.5145 0.43201 0.0
H1443 H 0.54348 0.42595 0.459 0.0
H1444 H 0.537 0.23886 0.43406 0.0
H1445 H 0.53892 0.27734 0.3956 0.0
C1446 C 0.54159 0.39822 0.38259 0.0
C1447 C 0.54219 0.46335 0.37838 0.0
C1448 C 0.54198 0.37473 0.40475 0.0
C1449 C 0.54393 0.50434 0.3965 0.0
C1450 C 0.54478 0.48135 0.41845 0.0
C1451 C 0.54285 0.39364 0.4451 0.0
C1452 C 0.54024 0.32948 0.44937 0.0
C1453 C 0.54347 0.41669 0.42289 0.0
C1454 C 0.53908 0.28831 0.43117 0.0
C1455 C 0.54012 0.31039 0.40917 0.0
H1456 H 0.70051 0.01 0.4279 0.0
H1457 H 0.73474 0.9092 0.46078 0.0
H1458 H 0.73906 0.84971 0.42685 0.0
H1459 H 0.73378 0.82884 0.38747 0.0
H1460 H 0.70043 0.9336 0.35395 0.0
H1461 H 0.69509 0.98843 0.38854 0.0
C1462 C 0.709 0.97546 0.42769 0.0
C1463 C 0.71732 0.96473 0.44705 0.0
C1464 C 0.71159 0.94185 0.40795 0.0
C1465 C 0.72805 0.91844 0.44637 0.0
C1466 C 0.7306 0.88451 0.42686 0.0
C1467 C 0.7254 0.86393 0.38759 0.0
C1468 C 0.71762 0.87708 0.36788 0.0
C1469 C 0.72254 0.89626 0.40749 0.0
C1470 C 0.70656 0.92178 0.36873 0.0
C1471 C 0.70355 0.95364 0.38854 0.0
H1472 H 0.54009 0.02861 0.89617 0.0
H1473 H 0.54311 0.86156 0.85609 0.0
H1474 H 0.54406 0.79644 0.88987 0.0
H1475 H 0.54274 0.78643 0.93095 0.0
H1476 H 0.54021 0.95351 0.9711 0.0
H1477 H 0.54047 0.01899 0.93736 0.0
C1478 C 0.54101 0.97795 0.89486 0.0
C1479 C 0.54146 0.95011 0.87353 0.0
C1480 C 0.54161 0.94074 0.91444 0.0
C1481 C 0.54287 0.88439 0.87218 0.0
C1482 C 0.54331 0.84706 0.89154 0.0
C1483 C 0.5423 0.8372 0.93231 0.0
C1484 C 0.54136 0.8649 0.95361 0.0
C1485 C 0.5425 0.87461 0.91277 0.0
C1486 C 0.54104 0.93087 0.95503 0.0
C1487 C 0.54109 0.96834 0.93568 0.0
H1488 H 0.71959 0.41561 0.95269 0.0
H1489 H 0.71114 0.59191 0.91911 0.0
H1490 H 0.71245 0.54024 0.88306 0.0
H1491 H 0.71629 0.44479 0.86061 0.0
H1492 H 0.72572 0.26956 0.89395 0.0
H1493 H 0.72381 0.32061 0.93027 0.0
C1494 C 0.71817 0.44289 0.93752 0.0
C1495 C 0.71514 0.50766 0.93882 0.0
C1496 C 0.71906 0.41286 0.91663 0.0
C1497 C 0.71322 0.54188 0.91881 0.0
C1498 C 0.71403 0.51238 0.89807 0.0
C1499 C 0.71774 0.41781 0.87585 0.0
C1500 C 0.72108 0.35345 0.87459 0.0
C1501 C 0.71687 0.44781 0.89673 0.0
C1502 C 0.7232 0.31924 0.8945 0.0
C1503 C 0.72211 0.34842 0.91528 0.0
H1504 H 0.46532 0.63327 0.61418 0.0
H1505 H 0.46743 0.82087 0.64055 0.0
H1506 H 0.4663 0.77943 0.67867 0.0
H1507 H 0.46705 0.68879 0.70486 0.0
H1508 H 0.46698 0.50111 0.67863 0.0
H1509 H 0.46479 0.54261 0.64048 0.0
C1510 C 0.46524 0.66491 0.6283 0.0
C1511 C 0.46642 0.73014 0.62452 0.0
C1512 C 0.46501 0.64042 0.65033 0.0
C1513 C 0.46657 0.77054 0.64303 0.0
C1514 C 0.46594 0.74682 0.66485 0.0
C1515 C 0.46617 0.65728 0.69077 0.0
C1516 C 0.46693 0.59199 0.69451 0.0
C1517 C 0.46547 0.68176 0.66878 0.0
C1518 C 0.46622 0.55148 0.67609 0.0
C1519 C 0.46506 0.57527 0.65429 0.0
H1520 H 0.28493 0.18719 0.62191 0.0
H1521 H 0.29371 0.01068 0.65479 0.0
H1522 H 0.29489 0.06334 0.69093 0.0
H1523 H 0.29144 0.15867 0.71371 0.0
H1524 H 0.2811 0.33392 0.68111 0.0
H1525 H 0.28262 0.28358 0.64458 0.0
C1526 C 0.28736 0.16067 0.63697 0.0
C1527 C 0.28923 0.09514 0.63569 0.0
C1528 C 0.28764 0.19117 0.65784 0.0
C1529 C 0.29214 0.06111 0.65539 0.0
C1530 C 0.29282 0.09121 0.67606 0.0
C1531 C 0.28981 0.18589 0.69856 0.0
C1532 C 0.2862 0.24994 0.70009 0.0
C1533 C 0.2903 0.15607 0.67759 0.0
C1534 C 0.28384 0.2845 0.68033 0.0
C1535 C 0.2847 0.2557 0.65944 0.0
H1536 H 0.46386 0.1675 0.20874 0.0
H1537 H 0.47251 0.98569 0.18054 0.0
H1538 H 0.47087 0.02989 0.14286 0.0
H1539 H 0.46931 0.12278 0.11777 0.0
H1540 H 0.46233 0.30555 0.14611 0.0
H1541 H 0.46073 0.25917 0.18351 0.0
C1542 C 0.46509 0.13749 0.19432 0.0
C1543 C 0.46834 0.07337 0.19748 0.0
C1544 C 0.46448 0.16371 0.17259 0.0
C1545 C 0.47012 0.03526 0.17857 0.0
C1546 C 0.46917 0.06053 0.15699 0.0
C1547 C 0.46707 0.15193 0.13212 0.0
C1548 C 0.4658 0.21739 0.12921 0.0
C1549 C 0.46668 0.125 0.15374 0.0
C1550 C 0.46325 0.25502 0.14799 0.0
C1551 C 0.46242 0.22852 0.16938 0.0
H1552 H 0.28601 0.7868 0.18317 0.0
H1553 H 0.28916 0.625 0.22656 0.0
H1554 H 0.29113 0.55607 0.19417 0.0
H1555 H 0.29102 0.54134 0.15335 0.0
H1556 H 0.28812 0.70325 0.10994 0.0
H1557 H 0.28713 0.77248 0.14233 0.0
C1558 C 0.28715 0.73644 0.18549 0.0
C1559 C 0.2874 0.71113 0.20727 0.0
C1560 C 0.28834 0.6971 0.16674 0.0
C1561 C 0.28908 0.64582 0.21004 0.0
C1562 C 0.29012 0.60634 0.19149 0.0
C1563 C 0.2902 0.5918 0.151 0.0
C1564 C 0.28961 0.61693 0.12919 0.0
C1565 C 0.28964 0.63137 0.16976 0.0
C1566 C 0.28875 0.68256 0.12646 0.0
C1567 C 0.28808 0.72219 0.14501 0.0
H1568 H 0.10134 0.09119 0.03325 0.0
H1569 H 0.11369 0.28565 0.02449 0.0
H1570 H 0.13851 0.25476 0.02334 0.0
H1571 H 0.15691 0.17462 0.02592 0.0
H1572 H 0.14558 0.98141 0.03908 0.0
H1573 H 0.12025 0.0099 0.0371 0.0
C1574 C 0.10941 0.12711 0.0313 0.0
C1575 C 0.10534 0.19099 0.02869 0.0
C1576 C 0.12395 0.10928 0.03141 0.0
C1577 C 0.11618 0.23608 0.02588 0.0
C1578 C 0.13051 0.21854 0.02546 0.0
C1579 C 0.14899 0.13849 0.02878 0.0
C1580 C 0.15332 0.07592 0.03312 0.0
C1581 C 0.13452 0.15552 0.02838 0.0
C1582 C 0.14269 0.02988 0.03572 0.0
C1583 C 0.12817 0.04631 0.03475 0.0
H1584 H 0.10116 0.21599 0.29734 0.0
H1585 H 0.11323 0.01971 0.29827 0.0
H1586 H 0.13829 0.04935 0.29826 0.0
H1587 H 0.15684 0.13056 0.29606 0.0
H1588 H 0.14439 0.32585 0.28984 0.0
H1589 H 0.11954 0.29652 0.2938 0.0
C1590 C 0.10919 0.17928 0.29721 0.0
C1591 C 0.10507 0.11541 0.29763 0.0
C1592 C 0.12364 0.19649 0.29624 0.0
C1593 C 0.11586 0.06923 0.29826 0.0
C1594 C 0.13028 0.08615 0.29801 0.0
C1595 C 0.14875 0.16695 0.29526 0.0
C1596 C 0.15276 0.23065 0.29266 0.0
C1597 C 0.1343 0.14963 0.29666 0.0
C1598 C 0.14191 0.27664 0.29228 0.0
C1599 C 0.12758 0.25985 0.29432 0.0
H1600 H 0.85069 0.88209 0.04515 0.0
H1601 H 0.86409 0.07574 0.04871 0.0
H1602 H 0.88903 0.0425 0.04899 0.0
H1603 H 0.90715 0.95854 0.04811 0.0
H1604 H 0.89369 0.76496 0.04345 0.0
H1605 H 0.86883 0.79809 0.04436 0.0
C1606 C 0.85905 0.91708 0.04622 0.0
C1607 C 0.85541 0.9815 0.04687 0.0
C1608 C 0.87345 0.89761 0.04631 0.0
C1609 C 0.86648 0.02597 0.04791 0.0
C1610 C 0.88079 0.00694 0.04818 0.0
C1611 C 0.89882 0.92343 0.04712 0.0
C1612 C 0.90249 0.85906 0.04579 0.0
C1613 C 0.88442 0.94289 0.04727 0.0
C1614 C 0.89138 0.81466 0.0449 0.0
C1615 C 0.87707 0.83363 0.04522 0.0
H1616 H 0.89546 0.0188 0.77986 0.0
H1617 H 0.91451 0.83403 0.78075 0.0
H1618 H 0.89092 0.78601 0.78279 0.0
H1619 H 0.86489 0.79652 0.78579 0.0
H1620 H 0.84585 0.98157 0.7836 0.0
H1621 H 0.86937 0.02912 0.7811 0.0
C1622 C 0.89444 0.96803 0.78054 0.0
C1623 C 0.90675 0.93014 0.78019 0.0
C1624 C 0.88082 0.94065 0.7817 0.0
C1625 C 0.90522 0.86434 0.78077 0.0
C1626 C 0.89172 0.83681 0.78208 0.0
C1627 C 0.86583 0.8472 0.78447 0.0
C1628 C 0.85351 0.88517 0.78515 0.0
C1629 C 0.87944 0.87449 0.78268 0.0
C1630 C 0.85508 0.95094 0.78366 0.0
C1631 C 0.86856 0.97833 0.78205 0.0
H1632 H 0.11291 0.7286 0.51192 0.0
H1633 H 0.09196 0.56341 0.53747 0.0
H1634 H 0.11486 0.50804 0.53982 0.0
H1635 H 0.14136 0.50936 0.53702 0.0
H1636 H 0.16179 0.67468 0.51038 0.0
H1637 H 0.13876 0.72646 0.50574 0.0
C1638 C 0.11337 0.68041 0.51792 0.0
C1639 C 0.10077 0.65043 0.5247 0.0
C1640 C 0.12655 0.64863 0.51898 0.0
C1641 C 0.10151 0.58757 0.53213 0.0
C1642 C 0.11462 0.55589 0.53352 0.0
C1643 C 0.14068 0.55611 0.52976 0.0
C1644 C 0.15329 0.58828 0.52423 0.0
C1645 C 0.12728 0.58616 0.52725 0.0
C1646 C 0.15225 0.64909 0.51493 0.0
C1647 C 0.13908 0.67892 0.51236 0.0
H1648 H 0.14803 0.73778 0.81233 0.0
H1649 H 0.15231 0.71813 0.7411 0.0
H1650 H 0.12879 0.67009 0.73882 0.0
H1651 H 0.10732 0.62973 0.75703 0.0
H1652 H 0.10264 0.64861 0.8282 0.0
H1653 H 0.12581 0.70096 0.83051 0.0
C1654 C 0.1437 0.72377 0.79631 0.0
C1655 C 0.15199 0.73107 0.77695 0.0
C1656 C 0.13011 0.69546 0.79511 0.0
C1657 C 0.14624 0.71233 0.7563 0.0
C1658 C 0.13278 0.6848 0.75496 0.0
C1659 C 0.11141 0.64489 0.77308 0.0
C1660 C 0.10328 0.63469 0.79242 0.0
C1661 C 0.12471 0.67513 0.77428 0.0
C1662 C 0.10863 0.65596 0.81302 0.0
C1663 C 0.12191 0.68583 0.81436 0.0
H1664 H 0.86474 0.52468 0.54112 0.0
H1665 H 0.84375 0.34457 0.54428 0.0
H1666 H 0.86673 0.29102 0.54333 0.0
H1667 H 0.89292 0.29467 0.54202 0.0
H1668 H 0.91404 0.47446 0.53867 0.0
H1669 H 0.89103 0.52825 0.53932 0.0
C1670 C 0.86519 0.47373 0.54145 0.0
C1671 C 0.85247 0.43893 0.54294 0.0
C1672 C 0.87853 0.44291 0.54095 0.0
C1673 C 0.85333 0.37279 0.54352 0.0
C1674 C 0.8665 0.34197 0.54285 0.0
C1675 C 0.89251 0.3456 0.54126 0.0
C1676 C 0.90528 0.38024 0.54039 0.0
C1677 C 0.87919 0.37646 0.54165 0.0
C1678 C 0.90444 0.44638 0.53969 0.0
C1679 C 0.89126 0.47731 0.53992 0.0
H1680 H 0.90113 0.45734 0.31886 0.0
H1681 H 0.90373 0.48632 0.24774 0.0
H1682 H 0.87957 0.44471 0.24313 0.0
H1683 H 0.85768 0.39834 0.25946 0.0
H1684 H 0.85527 0.37228 0.33072 0.0
H1685 H 0.87942 0.41326 0.3351 0.0
C1686 C 0.89645 0.45432 0.30232 0.0
C1687 C 0.90429 0.47463 0.28367 0.0
C1688 C 0.88259 0.43031 0.29981 0.0
C1689 C 0.89791 0.4715 0.26241 0.0
C1690 C 0.88413 0.44724 0.25975 0.0
C1691 C 0.86253 0.40128 0.27588 0.0
C1692 C 0.85474 0.38211 0.29474 0.0
C1693 C 0.87639 0.42609 0.27832 0.0
C1694 C 0.86105 0.38692 0.31598 0.0
C1695 C 0.87485 0.41038 0.31849 0.0
H1696 H 0.60133 0.10774 0.52251 0.0
H1697 H 0.61076 0.2825 0.55552 0.0
H1698 H 0.6355 0.24939 0.56092 0.0
H1699 H 0.65425 0.17109 0.55673 0.0
H1700 H 0.64592 0.00105 0.51974 0.0
H1701 H 0.62085 0.03062 0.51646 0.0
C1702 C 0.60886 0.13855 0.53078 0.0
C1703 C 0.60424 0.1977 0.53851 0.0
C1704 C 0.6232 0.1196 0.53347 0.0
C1705 C 0.61409 0.23722 0.54917 0.0
C1706 C 0.62821 0.21807 0.55241 0.0
C1707 C 0.64715 0.14065 0.54748 0.0
C1708 C 0.65229 0.0839 0.5383 0.0
C1709 C 0.63288 0.15944 0.5446 0.0
C1710 C 0.64247 0.04455 0.5273 0.0
C1711 C 0.62808 0.06185 0.52514 0.0
H1712 H 0.65207 0.18006 0.76076 0.0
H1713 H 0.65383 0.21207 0.83167 0.0
H1714 H 0.62958 0.17117 0.8356 0.0
H1715 H 0.60769 0.12629 0.81867 0.0
H1716 H 0.60586 0.09902 0.74751 0.0
H1717 H 0.63031 0.13708 0.74389 0.0
C1718 C 0.64718 0.17772 0.7771 0.0
C1719 C 0.65479 0.19882 0.79591 0.0
C1720 C 0.63321 0.15467 0.77918 0.0
C1721 C 0.64818 0.19652 0.8169 0.0
C1722 C 0.63434 0.17281 0.81917 0.0
C1723 C 0.61273 0.12832 0.80244 0.0
C1724 C 0.60503 0.10966 0.78339 0.0
C1725 C 0.62673 0.15165 0.80042 0.0
C1726 C 0.61158 0.11326 0.76239 0.0
C1727 C 0.62555 0.13503 0.76031 0.0
H1728 H 0.39956 0.8775 0.57065 0.0
H1729 H 0.40034 0.86149 0.49899 0.0
H1730 H 0.37616 0.90358 0.49652 0.0
H1731 H 0.35487 0.94619 0.5145 0.0
H1732 H 0.35381 0.96436 0.58609 0.0
H1733 H 0.37802 0.9216 0.5888 0.0
C1734 C 0.39435 0.88283 0.55456 0.0
C1735 C 0.40173 0.86628 0.53503 0.0
C1736 C 0.38045 0.90818 0.55322 0.0
C1737 C 0.39492 0.87415 0.51424 0.0
C1738 C 0.38109 0.89824 0.51282 0.0
C1739 C 0.35989 0.94051 0.53073 0.0
C1740 C 0.35246 0.95831 0.55006 0.0
C1741 C 0.37377 0.9157 0.53216 0.0
C1742 C 0.35929 0.95168 0.5709 0.0
C1743 C 0.37311 0.92671 0.57248 0.0
H1744 H 0.3507 0.95179 0.28509 0.0
H1745 H 0.36091 0.75397 0.2901 0.0
H1746 H 0.38621 0.77832 0.28775 0.0
H1747 H 0.40557 0.85564 0.285 0.0
H1748 H 0.39528 0.05385 0.2839 0.0
H1749 H 0.37 0.02904 0.28401 0.0
C1750 C 0.3584 0.91379 0.28599 0.0
C1751 C 0.35369 0.85096 0.28774 0.0
C1752 C 0.37303 0.92814 0.28526 0.0
C1753 C 0.36402 0.80272 0.28833 0.0
C1754 C 0.37857 0.81662 0.2872 0.0
C1755 C 0.39786 0.89365 0.28504 0.0
C1756 C 0.40254 0.9567 0.28427 0.0
C1757 C 0.38322 0.87919 0.28577 0.0
C1758 C 0.39219 0.00484 0.28394 0.0
C1759 C 0.37765 0.99074 0.28424 0.0
H1760 H 0.60031 0.59942 0.03223 0.0
H1761 H 0.61318 0.79361 0.02619 0.0
H1762 H 0.63804 0.76152 0.02409 0.0
H1763 H 0.65629 0.67966 0.02558 0.0
H1764 H 0.64418 0.48499 0.03173 0.0
H1765 H 0.6189 0.51566 0.03147 0.0
C1766 C 0.60854 0.63464 0.0302 0.0
C1767 C 0.6048 0.6991 0.02975 0.0
C1768 C 0.62298 0.61577 0.02895 0.0
C1769 C 0.61568 0.74391 0.02715 0.0
C1770 C 0.62994 0.72558 0.02578 0.0
C1771 C 0.64812 0.64379 0.02688 0.0
C1772 C 0.65214 0.58013 0.02902 0.0
C1773 C 0.63372 0.66185 0.02702 0.0
C1774 C 0.6414 0.53426 0.03009 0.0
C1775 C 0.62695 0.55191 0.03009 0.0
H1776 H 0.65511 0.63701 0.27188 0.0
H1777 H 0.64768 0.7871 0.31886 0.0
H1778 H 0.62303 0.75386 0.32263 0.0
H1779 H 0.60329 0.6819 0.31268 0.0
H1780 H 0.61162 0.52551 0.26926 0.0
H1781 H 0.63632 0.56019 0.26472 0.0
C1782 C 0.64834 0.66204 0.2834 0.0
C1783 C 0.65356 0.71528 0.29488 0.0
C1784 C 0.63424 0.64111 0.2863 0.0
C1785 C 0.64414 0.74717 0.30922 0.0
C1786 C 0.62998 0.72772 0.31164 0.0
C1787 C 0.6106 0.65529 0.30239 0.0
C1788 C 0.6057 0.60125 0.2913 0.0
C1789 C 0.62488 0.67487 0.30022 0.0
C1790 C 0.61521 0.56696 0.27806 0.0
C1791 C 0.6293 0.58699 0.27539 0.0
H1792 H 0.35915 0.46805 0.07398 0.0
H1793 H 0.35496 0.46233 1.0023 0.0
H1794 H 0.37914 0.4214 0.99919 0.0
H1795 H 0.40133 0.38422 1.01666 0.0
H1796 H 0.40589 0.38959 0.08825 0.0
H1797 H 0.38193 0.43415 0.0915 0.0
C1798 C 0.36361 0.45861 0.05768 0.0
C1799 C 0.35513 0.46776 0.03843 0.0
C1800 C 0.37761 0.43466 0.05597 0.0
C1801 C 0.3611 0.45483 1.01744 0.0
C1802 C 0.37497 0.4315 1.01562 0.0
C1803 C 0.39706 0.39472 0.033 0.0
C1804 C 0.40542 0.38308 0.05217 0.0
C1805 C 0.38326 0.42038 0.03476 0.0
C1806 C 0.39977 0.3983 0.07318 0.0
C1807 C 0.38602 0.42364 0.07506 0.0
H1808 H 0.40399 0.37835 0.79914 0.0
H1809 H 0.39844 0.51562 0.74622 0.0
H1810 H 0.37334 0.48877 0.74357 0.0
H1811 H 0.3526 0.4277 0.75668 0.0
H1812 H 0.3587 0.28317 0.80647 0.0
H1813 H 0.38405 0.30987 0.80927 0.0
C1814 C 0.39751 0.40176 0.7866 0.0
C1815 C 0.40338 0.44999 0.77317 0.0
C1816 C 0.38309 0.38435 0.78445 0.0
C1817 C 0.39438 0.47987 0.75741 0.0
C1818 C 0.37996 0.46401 0.75563 0.0
C1819 C 0.35957 0.40166 0.76791 0.0
C1820 C 0.35386 0.35356 0.78135 0.0
C1821 C 0.37416 0.41669 0.76917 0.0
C1822 C 0.36292 0.32001 0.79585 0.0
C1823 C 0.37738 0.33557 0.79754 0.0
H1824 H 1.00229 0.39745 0.04107 0.0
H1825 H 0.04166 0.49855 0.03171 0.0
H1826 H 0.02842 0.59789 0.02988 0.0
H1827 H 0.0057 0.65576 0.03095 0.0
H1828 H 0.96636 0.55449 0.04037 0.0
H1829 H 0.97959 0.4552 0.04204 0.0
C1830 C 0.00802 0.44119 0.03869 0.0
C1831 C 0.02299 0.4405 0.03661 0.0
C1832 C 1.00033 0.49799 0.03756 0.0
C1833 C 0.03018 0.49769 0.03345 0.0
C1834 C 0.0226 0.55448 0.03235 0.0
C1835 C 0.99998 0.61197 0.03328 0.0
C1836 C 0.98501 0.61262 0.03546 0.0
C1837 C 0.00768 0.55515 0.03435 0.0
C1838 C 0.97783 0.5554 0.03856 0.0
C1839 C 0.98541 0.49862 0.03957 0.0
H1840 H 0.24923 0.64261 0.05272 0.0
H1841 H 0.28524 0.75281 0.03126 0.0
H1842 H 0.27018 0.84691 0.02948 0.0
H1843 H 0.24678 0.89765 0.03373 0.0
H1844 H 0.21118 0.79005 0.05816 0.0
H1845 H 0.22603 0.6948 0.05886 0.0
C1846 C 0.25379 0.68725 0.04765 0.0
C1847 C 0.26834 0.69058 0.04195 0.0
C1848 C 0.2451 0.74139 0.04705 0.0
C1849 C 0.27411 0.74893 0.03572 0.0
C1850 C 0.26548 0.80268 0.03462 0.0
C1851 C 0.24223 0.85322 0.03905 0.0
C1852 C 0.22781 0.85065 0.04557 0.0
C1853 C 0.25095 0.79939 0.04013 0.0
C1854 C 0.22219 0.79312 0.05294 0.0
C1855 C 0.23069 0.73877 0.05337 0.0
H1856 H 0.03204 0.83708 0.30059 0.0
H1857 H 1.00025 0.95427 0.26873 0.0
H1858 H 0.98321 0.86811 0.26948 0.0
H1859 H 0.97706 0.7592 0.27968 0.0
H1860 H 0.00887 0.64208 0.31156 0.0
H1861 H 0.02596 0.72795 0.31049 0.0
C1862 C 0.02144 0.84339 0.29362 0.0
C1863 C 0.01745 0.90187 0.28462 0.0
C1864 C 0.01156 0.79371 0.29433 0.0
C1865 C 1.00361 0.90965 0.27583 0.0
C1866 C 0.9938 0.86044 0.27629 0.0
C1867 C 0.98769 0.75282 0.28654 0.0
C1868 C 0.99164 0.69451 0.29572 0.0
C1869 C 0.9976 0.80237 0.28569 0.0
C1870 C 0.00553 0.68659 0.30434 0.0
C1871 C 0.01536 0.73564 0.30372 0.0
H1872 H 0.22441 0.50799 0.29396 0.0
H1873 H 0.25508 0.40752 0.2543 0.0
H1874 H 0.27226 0.49239 0.25894 0.0
H1875 H 0.27892 0.59431 0.27512 0.0
H1876 H 0.24823 0.69583 0.31434 0.0
H1877 H 0.23089 0.61139 0.30942 0.0
C1878 C 0.23476 0.50538 0.28601 0.0
C1879 C 0.23844 0.45184 0.27371 0.0
C1880 C 0.24473 0.55397 0.2891 0.0
C1881 C 0.25198 0.44845 0.26382 0.0
C1882 C 0.26187 0.49674 0.26659 0.0
C1883 C 0.26851 0.59731 0.28285 0.0
C1884 C 0.26491 0.65058 0.29533 0.0
C1885 C 0.25846 0.54928 0.27949 0.0
C1886 C 0.25127 0.65485 0.30479 0.0
C1887 C 0.24131 0.60682 0.30188 0.0
H1888 H 0.74823 0.14863 0.03826 0.0
H1889 H 0.78505 0.26472 0.02606 0.0
H1890 H 0.76975 0.35801 0.02378 0.0
H1891 H 0.74602 0.40697 0.02607 0.0
H1892 H 0.70932 0.29189 0.0403 0.0
H1893 H 0.72445 0.19788 0.04083 0.0
C1894 C 0.75292 0.19431 0.03501 0.0
C1895 C 0.76781 0.19952 0.03226 0.0
C1896 C 0.74406 0.24795 0.03406 0.0
C1897 C 0.77367 0.25924 0.02826 0.0
C1898 C 0.76491 0.31263 0.02692 0.0
C1899 C 0.74127 0.3613 0.02909 0.0
C1900 C 0.72647 0.35668 0.033 0.0
C1901 C 0.7501 0.3076 0.02987 0.0
C1902 C 0.72062 0.29701 0.0372 0.0
C1903 C 0.72929 0.24319 0.03754 0.0
H1904 H 0.00867 0.14353 0.79019 0.0
H1905 H 0.96874 0.24398 0.78499 0.0
H1906 H 0.98162 0.34307 0.78067 0.0
H1907 H 0.00409 0.40069 0.77796 0.0
H1908 H 0.04412 0.30129 0.78344 0.0
H1909 H 0.03128 0.20176 0.78786 0.0
C1910 C 1.00276 0.18714 0.78825 0.0
C1911 C 0.98774 0.18637 0.78798 0.0
C1912 C 0.01025 0.24386 0.78562 0.0
C1913 C 0.98028 0.24326 0.78536 0.0
C1914 C 0.98765 0.29989 0.78279 0.0
C1915 C 0.01005 0.35727 0.77999 0.0
C1916 C 0.02507 0.35836 0.78021 0.0
C1917 C 1.00261 0.30064 0.78277 0.0
C1918 C 0.03258 0.30169 0.78307 0.0
C1919 C 0.02523 0.24487 0.78568 0.0
H1920 H 0.7567 0.40828 0.78155 0.0
H1921 H 0.71671 0.50773 0.78655 0.0
H1922 H 0.72952 0.60725 0.79031 0.0
H1923 H 0.75203 0.66554 0.79257 0.0
H1924 H 0.79204 0.56611 0.78785 0.0
H1925 H 0.77923 0.46665 0.78376 0.0
C1926 C 0.75076 0.45174 0.78332 0.0
C1927 C 0.73574 0.45058 0.78366 0.0
C1928 C 0.7582 0.50859 0.7857 0.0
C1929 C 0.72824 0.50731 0.78613 0.0
C1930 C 0.73557 0.56418 0.78836 0.0
C1931 C 0.75798 0.62212 0.79073 0.0
C1932 C 0.77299 0.62324 0.79061 0.0
C1933 C 0.75054 0.56529 0.78828 0.0
C1934 C 0.7805 0.56654 0.78812 0.0
C1935 C 0.77317 0.50971 0.7857 0.0
H1936 H 0.00588 0.15047 0.5272 0.0
H1937 H 0.96638 0.04999 0.53616 0.0
H1938 H 0.97954 0.95064 0.53855 0.0
H1939 H 1.00217 0.89281 0.53837 0.0
H1940 H 0.04173 0.99261 0.52923 0.0
H1941 H 0.02859 0.09225 0.52678 0.0
C1942 C 1.00011 0.10684 0.5296 0.0
C1943 C 0.98512 0.1077 0.53145 0.0
C1944 C 0.00777 0.05001 0.53105 0.0
C1945 C 0.97787 0.0507 0.5346 0.0
C1946 C 0.98541 0.99392 0.53603 0.0
C1947 C 0.00797 0.93632 0.53592 0.0
C1948 C 0.02296 0.93523 0.53408 0.0
C1949 C 1.00035 0.99311 0.53437 0.0
C1950 C 0.03024 0.99211 0.53079 0.0
C1951 C 0.02271 0.04902 0.52933 0.0
H1952 H 0.24628 0.13554 0.55443 0.0
H1953 H 0.28254 0.24666 0.53464 0.0
H1954 H 0.26731 0.33981 0.53132 0.0
H1955 H 0.24381 0.38954 0.53399 0.0
H1956 H 0.20771 0.28139 0.55638 0.0
H1957 H 0.22274 0.18686 0.55857 0.0
C1958 C 0.25085 0.1802 0.54941 0.0
C1959 C 0.26555 0.18409 0.54469 0.0
C1960 C 0.24204 0.23384 0.54788 0.0
C1961 C 0.27131 0.2424 0.53843 0.0
C1962 C 0.26258 0.2956 0.53644 0.0
C1963 C 0.23914 0.3452 0.53916 0.0
C1964 C 0.22455 0.34242 0.54472 0.0
C1965 C 0.24794 0.2918 0.54104 0.0
C1966 C 0.21884 0.28479 0.55187 0.0
C1967 C 0.22746 0.23082 0.55317 0.0
H1968 H 0.27776 0.10818 0.77137 0.0
H1969 H 0.24885 0.21028 0.81354 0.0
H1970 H 0.23116 0.12653 0.81009 0.0
H1971 H 0.22388 0.02315 0.79499 0.0
H1972 H 0.25287 0.92345 0.75213 0.0
H1973 H 0.27031 0.00741 0.75553 0.0
C1974 C 0.26766 0.11154 0.78004 0.0
C1975 C 0.26468 0.1647 0.79292 0.0
C1976 C 0.2574 0.06404 0.77751 0.0
C1977 C 0.25142 0.16935 0.80365 0.0
C1978 C 0.24126 0.1217 0.80158 0.0
C1979 C 0.2339 0.02061 0.78611 0.0
C1980 C 0.23706 0.96738 0.77329 0.0
C1981 C 0.24407 0.06893 0.78839 0.0
C1982 C 0.2502 0.96404 0.76213 0.0
C1983 C 0.26023 0.01185 0.76415 0.0
H1984 H 0.74365 0.89072 0.53113 0.0
H1985 H 0.71258 0.78265 0.56757 0.0
H1986 H 0.72815 0.68992 0.56597 0.0
H1987 H 0.75069 0.64033 0.5546 0.0
H1988 H 0.78275 0.75078 0.52129 0.0
H1989 H 0.76675 0.84241 0.5214 0.0
C1990 C 0.74022 0.8466 0.5385 0.0
C1991 C 0.72684 0.84306 0.54909 0.0
C1992 C 0.74947 0.79436 0.53823 0.0
C1993 C 0.72273 0.78627 0.55915 0.0
C1994 C 0.73166 0.73342 0.55827 0.0
C1995 C 0.75417 0.68447 0.5473 0.0
C1996 C 0.76784 0.68871 0.53772 0.0
C1997 C 0.74506 0.73702 0.54792 0.0
C1998 C 0.7723 0.74641 0.52874 0.0
C1999 C 0.76313 0.79862 0.52874 0.0
H2000 H 0.75162 0.17812 0.28767 0.0
H2001 H 0.79124 0.07607 0.28194 0.0
H2002 H 0.77804 0.97842 0.276 0.0
H2003 H 0.75534 0.92208 0.27312 0.0
H2004 H 0.71568 0.02339 0.27952 0.0
H2005 H 0.72885 0.1218 0.28423 0.0
C2006 C 0.7574 0.13451 0.28517 0.0
C2007 C 0.77243 0.13435 0.28539 0.0
C2008 C 0.74973 0.07866 0.28173 0.0
C2009 C 0.77971 0.07747 0.28201 0.0
C2010 C 0.77215 0.02168 0.27853 0.0
C2011 C 0.74954 0.96573 0.27532 0.0
C2012 C 0.73451 0.96539 0.27586 0.0
C2013 C 0.75718 0.02176 0.27839 0.0
C2014 C 0.72721 0.02237 0.27892 0.0
C2015 C 0.73475 0.07856 0.28172 0.0
H2016 H 0.50151 0.40065 0.54595 0.0
H2017 H 0.54065 0.50188 0.53454 0.0
H2018 H 0.5272 0.60034 0.53106 0.0
H2019 H 0.50436 0.65698 0.53081 0.0
H2020 H 0.46521 0.55565 0.54207 0.0
H2021 H 0.47869 0.45739 0.54595 0.0
C2022 C 0.50715 0.44426 0.5428 0.0
C2023 C 0.52211 0.4439 0.54056 0.0
C2024 C 0.49934 0.50042 0.54067 0.0
C2025 C 0.52918 0.50084 0.53641 0.0
C2026 C 0.52148 0.55707 0.53436 0.0
C2027 C 0.49873 0.61342 0.53407 0.0
C2028 C 0.48376 0.61365 0.53607 0.0
C2029 C 0.50656 0.55732 0.53635 0.0
C2030 C 0.4767 0.55678 0.54038 0.0
C2031 C 0.48441 0.50064 0.54264 0.0
H2032 H 0.50225 0.90494 0.78415 0.0
H2033 H 0.54217 0.80461 0.78943 0.0
H2034 H 0.52928 0.70483 0.79193 0.0
H2035 H 0.5067 0.64629 0.79204 0.0
H2036 H 0.46682 0.74693 0.78648 0.0
H2037 H 0.47971 0.8467 0.78484 0.0
C2038 C 0.50817 0.86128 0.78582 0.0
C2039 C 0.52318 0.86223 0.78649 0.0
C2040 C 0.50069 0.80426 0.7873 0.0
C2041 C 0.53063 0.8052 0.78878 0.0
C2042 C 0.52326 0.74817 0.79025 0.0
C2043 C 0.5008 0.69006 0.79062 0.0
C2044 C 0.48579 0.68912 0.78943 0.0
C2045 C 0.50829 0.74716 0.78948 0.0
C2046 C 0.47835 0.74628 0.78749 0.0
C2047 C 0.48572 0.80333 0.78648 0.0
H2048 H 0.5029 0.40083 0.28181 0.0
H2049 H 0.54273 0.30143 0.29028 0.0
H2050 H 0.52986 0.20151 0.29245 0.0
H2051 H 0.50726 0.14265 0.29228 0.0
H2052 H 0.46751 0.24277 0.28391 0.0
H2053 H 0.48041 0.34227 0.28146 0.0
C2054 C 0.50881 0.35732 0.28404 0.0
C2055 C 0.52379 0.35866 0.28583 0.0
C2056 C 0.50134 0.30022 0.2854 0.0
C2057 C 0.53122 0.30178 0.28879 0.0
C2058 C 0.52386 0.24465 0.29008 0.0
C2059 C 0.5014 0.18625 0.28999 0.0
C2060 C 0.48641 0.18521 0.28836 0.0
C2061 C 0.50891 0.24334 0.2885 0.0
C2062 C 0.47902 0.24216 0.28528 0.0
C2063 C 0.4864 0.29909 0.28384 0.0
H2064 H 0.50655 0.16372 0.03495 0.0
H2065 H 0.46669 0.06404 0.04037 0.0
H2066 H 0.47964 0.96417 0.04323 0.0
H2067 H 0.50225 0.90559 0.04458 0.0
H2068 H 0.5421 0.00544 0.03926 0.0
H2069 H 0.52914 0.10517 0.03613 0.0
C2070 C 0.50066 0.12015 0.03663 0.0
C2071 C 0.48564 0.12138 0.03737 0.0
C2072 C 0.50818 0.06309 0.03845 0.0
C2073 C 0.47822 0.06446 0.03967 0.0
C2074 C 0.48563 0.00738 0.04138 0.0
C2075 C 0.50813 0.94916 0.04282 0.0
C2076 C 0.52316 0.94804 0.04226 0.0
C2077 C 0.50061 0.0062 0.0409 0.0
C2078 C 0.53056 0.00495 0.03985 0.0
C2079 C 0.52315 0.06196 0.03799 0.0
H2080 H 0.99217 0.96143 0.07312 0.0
H2081 H 0.97551 0.96037 1.00611 0.0
H2082 H 0.99473 0.02973 0.99369 0.0
H2083 H 0.01655 0.08964 1.00199 0.0
H2084 H 0.03309 0.09171 0.0691 0.0
H2085 H 0.01394 0.02196 0.08147 0.0
C2086 C 0.99261 0.97783 0.05596 0.0
C2087 C 0.98242 0.95696 0.04051 0.0
C2088 C 1.0039 0.01632 0.04891 0.0
C2089 C 0.98325 0.97664 0.01818 0.0
C2090 C 0.99428 0.0157 1.01109 0.0
C2091 C 0.0161 0.07337 0.01916 0.0
C2092 C 0.02627 0.09437 0.03459 0.0
C2093 C 0.00481 0.035 0.02623 0.0
C2094 C 0.02541 0.07508 0.05697 0.0
C2095 C 0.0144 0.03585 0.06406 0.0
H2096 H 0.26168 0.13177 0.04325 0.0
H2097 H 0.22941 0.24065 1.00897 0.0
H2098 H 0.24428 0.33444 1.01132 0.0
H2099 H 0.2653 0.3869 0.02572 0.0
H2100 H 0.29716 0.28177 0.06252 0.0
H2101 H 0.28359 0.18486 0.05662 0.0
C2102 C 0.25809 0.17588 0.03595 0.0
C2103 C 0.24455 0.17965 0.02586 0.0
C2104 C 0.26649 0.23022 0.03811 0.0
C2105 C 0.23982 0.23699 1.0168 0.0
C2106 C 0.24828 0.29054 0.01821 0.0
C2107 C 0.2694 0.34284 0.03236 0.0
C2108 C 0.2822 0.34174 0.04469 0.0
C2109 C 0.26146 0.28797 0.02927 0.0
C2110 C 0.28729 0.28404 0.0531 0.0
C2111 C 0.27954 0.22862 0.04971 0.0
H2112 H 0.98907 0.35868 0.25866 0.0
H2113 H 0.97506 0.35474 0.32696 0.0
H2114 H 0.99542 0.2883 0.33739 0.0
H2115 H 0.01765 0.23416 0.32707 0.0
H2116 H 0.03198 0.24138 0.25893 0.0
H2117 H 0.01143 0.30625 0.24849 0.0
C2118 C 0.99031 0.34162 0.27566 0.0
C2119 C 0.98049 0.35971 0.29195 0.0
C2120 C 1.0024 0.30647 0.28169 0.0
C2121 C 0.98238 0.33959 0.31411 0.0
C2122 C 0.99412 0.30273 0.32013 0.0
C2123 C 0.01645 0.25171 0.31013 0.0
C2124 C 0.02637 0.23449 0.29385 0.0
C2125 C 0.00437 0.28708 0.30414 0.0
C2126 C 0.02454 0.25536 0.27175 0.0
C2127 C 0.0127 0.29148 0.26573 0.0
H2128 H 0.24485 0.1589 0.26467 0.0
H2129 H 0.22313 0.07236 0.32029 0.0
H2130 H 0.24173 0.99205 0.32278 0.0
H2131 H 0.26395 0.94729 0.30942 0.0
H2132 H 0.28573 0.03221 0.25355 0.0
H2133 H 0.26735 0.11399 0.25136 0.0
C2134 C 0.24408 0.12215 0.27722 0.0
C2135 C 0.23255 0.12142 0.29222 0.0
C2136 C 0.2549 0.07678 0.27878 0.0
C2137 C 0.23183 0.07381 0.30849 0.0
C2138 C 0.2425 0.02816 0.31001 0.0
C2139 C 0.26482 0.98387 0.29682 0.0
C2140 C 0.27624 0.98354 0.28164 0.0
C2141 C 0.25411 0.02955 0.29535 0.0
C2142 C 0.27711 0.03148 0.2655 0.0
C2143 C 0.26654 0.07789 0.26413 0.0
H2144 H 0.7607 0.64986 0.01914 0.0
H2145 H 0.72419 0.76415 0.03567 0.0
H2146 H 0.73948 0.85573 0.03988 0.0
H2147 H 0.76299 0.90333 0.03908 0.0
H2148 H 0.79971 0.79225 0.02118 0.0
H2149 H 0.78454 0.69909 1.01752 0.0
C2150 C 0.75611 0.69492 0.02354 0.0
C2151 C 0.74132 0.70019 0.02705 0.0
C2152 C 0.76498 0.74771 0.02589 0.0
C2153 C 0.73551 0.75883 0.03275 0.0
C2154 C 0.74425 0.81121 0.03528 0.0
C2155 C 0.76776 0.85871 0.03456 0.0
C2156 C 0.7825 0.85466 0.03061 0.0
C2157 C 0.75898 0.80609 0.03201 0.0
C2158 C 0.7884 0.79656 0.02443 0.0
C2159 C 0.77973 0.74338 0.02226 0.0
H2160 H 0.99969 0.89842 0.77515 0.0
H2161 H 0.96873 0.76271 0.79802 0.0
H2162 H 0.98643 0.67889 0.79438 0.0
H2163 H 0.01053 0.64514 0.78522 0.0
H2164 H 0.04151 0.78051 0.76218 0.0
H2165 H 0.0237 0.86429 0.76527 0.0
C2166 C 0.99671 0.85051 0.77923 0.0
C2167 C 0.98285 0.83685 0.78684 0.0
C2168 C 0.0069 0.80285 0.77711 0.0
C2169 C 0.97928 0.7745 0.79213 0.0
C2170 C 0.98941 0.72665 0.79007 0.0
C2171 C 0.01348 0.69295 0.78089 0.0
C2172 C 0.0274 0.70666 0.77359 0.0
C2173 C 1.00324 0.74047 0.78268 0.0
C2174 C 0.0309 0.76877 0.76788 0.0
C2175 C 0.02073 0.81657 0.76966 0.0
H2176 H 0.76306 0.92432 0.8067 0.0
H2177 H 0.78696 0.02544 0.75663 0.0
H2178 H 0.76885 0.10835 0.75617 0.0
H2179 H 0.74627 0.15084 0.76966 0.0
H2180 H 0.7225 0.04968 0.81986 0.0
H2181 H 0.74056 0.96671 0.82018 0.0
C2182 C 0.76442 0.96461 0.79575 0.0
C2183 C 0.77638 0.9687 0.78172 0.0
C2184 C 0.75393 0.01141 0.79536 0.0
C2185 C 0.77789 0.02125 0.76765 0.0
C2186 C 0.7675 0.06843 0.76728 0.0
C2187 C 0.74494 0.11045 0.78058 0.0
C2188 C 0.73302 0.10638 0.79471 0.0
C2189 C 0.75544 0.06364 0.78094 0.0
C2190 C 0.73154 0.05386 0.80879 0.0
C2191 C 0.74189 0.00663 0.80907 0.0
H2192 H 0.00871 0.64789 0.52841 0.0
H2193 H 0.03893 0.51543 0.55655 0.0
H2194 H 0.02118 0.43171 0.55354 0.0
H2195 H 0.99748 0.39666 0.54236 0.0
H2196 H 0.96726 0.52899 0.51414 0.0
H2197 H 0.9849 0.61302 0.51761 0.0
C2198 C 0.01151 0.6007 0.53383 0.0
C2199 C 0.0252 0.5878 0.54257 0.0
C2200 C 1.00131 0.55312 0.53201 0.0
C2201 C 0.02851 0.52654 0.54973 0.0
C2202 C 0.01837 0.47876 0.54799 0.0
C2203 C 0.99463 0.4439 0.53707 0.0
C2204 C 0.981 0.45657 0.52806 0.0
C2205 C 0.00478 0.49161 0.5391 0.0
C2206 C 0.97764 0.51799 0.52114 0.0
C2207 C 0.98772 0.56596 0.52312 0.0
H2208 H 0.25986 0.62693 0.54769 0.0
H2209 H 0.22805 0.73497 0.51203 0.0
H2210 H 0.24293 0.82864 0.51438 0.0
H2211 H 0.2638 0.8812 0.529 0.0
H2212 H 0.29522 0.77738 0.56717 0.0
H2213 H 0.28167 0.6803 0.5614 0.0
C2214 C 0.25637 0.67085 0.54014 0.0
C2215 C 0.24296 0.67447 0.52966 0.0
C2216 C 0.26479 0.72513 0.54224 0.0
C2217 C 0.23835 0.7315 0.52021 0.0
C2218 C 0.24682 0.78495 0.52159 0.0
C2219 C 0.26782 0.8374 0.53595 0.0
C2220 C 0.28048 0.83666 0.54862 0.0
C2221 C 0.25989 0.78257 0.53298 0.0
C2222 C 0.28546 0.7793 0.55746 0.0
C2223 C 0.27772 0.72383 0.55416 0.0
H2224 H 0.26673 0.49701 0.74784 0.0
H2225 H 0.27991 0.4997 0.81682 0.0
H2226 H 0.26015 0.57004 0.82585 0.0
H2227 H 0.2387 0.62839 0.81421 0.0
H2228 H 0.22572 0.62728 0.74516 0.0
H2229 H 0.24553 0.55701 0.73606 0.0
C2230 C 0.26547 0.51456 0.76469 0.0
C2231 C 0.27481 0.49433 0.78161 0.0
C2232 C 0.25384 0.55328 0.76984 0.0
C2233 C 0.27288 0.51558 0.80353 0.0
C2234 C 0.26151 0.55503 0.80874 0.0
C2235 C 0.24004 0.61125 0.79733 0.0
C2236 C 0.23067 0.63123 0.78045 0.0
C2237 C 0.25175 0.57309 0.79212 0.0
C2238 C 0.23272 0.61104 0.75844 0.0
C2239 C 0.24413 0.57172 0.7532 0.0
H2240 H 0.73572 0.21984 0.54697 0.0
H2241 H 0.76343 0.08858 0.51391 0.0
H2242 H 0.78261 0.16724 0.5136 0.0
H2243 H 0.79098 0.27574 0.52181 0.0
H2244 H 0.76237 0.40257 0.55582 0.0
H2245 H 0.74422 0.32281 0.55695 0.0
C2246 C 0.74594 0.20845 0.53959 0.0
C2247 C 0.74815 0.1493 0.53015 0.0
C2248 C 0.75681 0.25298 0.53982 0.0
C2249 C 0.76152 0.13439 0.52113 0.0
C2250 C 0.77245 0.17922 0.52098 0.0
C2251 C 0.78084 0.28552 0.52968 0.0
C2252 C 0.77815 0.34534 0.53868 0.0
C2253 C 0.77018 0.23902 0.53019 0.0
C2254 C 0.7649 0.35717 0.54881 0.0
C2255 C 0.75438 0.31162 0.54938 0.0
H2256 H 0.77086 0.48796 0.25411 0.0
H2257 H 0.78464 0.4843 0.32264 0.0
H2258 H 0.76594 0.55965 0.33258 0.0
H2259 H 0.74514 0.62362 0.32171 0.0
H2260 H 0.73134 0.62699 0.25297 0.0
H2261 H 0.75038 0.55389 0.24305 0.0
C2262 C 0.76993 0.50515 0.27105 0.0
C2263 C 0.77906 0.48179 0.2877 0.0
C2264 C 0.75896 0.54701 0.27661 0.0
C2265 C 0.77765 0.50248 0.30972 0.0
C2266 C 0.76693 0.54499 0.31536 0.0
C2267 C 0.74619 0.6074 0.30466 0.0
C2268 C 0.73682 0.62981 0.28813 0.0
C2269 C 0.75734 0.56657 0.29902 0.0
C2270 C 0.73844 0.60986 0.26597 0.0
C2271 C 0.74936 0.5685 0.26027 0.0
H2272 H 0.51766 0.08694 0.50189 0.0
H2273 H 0.52447 0.11237 0.57246 0.0
H2274 H 0.50445 0.0431 0.58074 0.0
H2275 H 0.48489 0.97561 0.56787 0.0
H2276 H 0.47832 0.94827 0.49739 0.0
H2277 H 0.49812 0.01911 0.48901 0.0
C2278 C 0.51491 0.07623 0.51905 0.0
C2279 C 0.52254 0.10416 0.53655 0.0
C2280 C 0.50321 0.03737 0.52367 0.0
C2281 C 0.51872 0.09119 0.55874 0.0
C2282 C 0.50722 0.05199 0.56348 0.0
C2283 C 0.48762 0.9865 0.55071 0.0
C2284 C 0.48012 0.95787 0.53324 0.0
C2285 C 0.49927 0.02552 0.54608 0.0
C2286 C 0.48395 0.97051 0.51105 0.0
C2287 C 0.49531 0.01045 0.50627 0.0
H2288 H 0.51462 0.16642 0.76356 0.0
H2289 H 0.53717 0.26672 0.81528 0.0
H2290 H 0.51939 0.35077 0.81355 0.0
H2291 H 0.49725 0.39404 0.79811 0.0
H2292 H 0.4748 0.29442 0.74613 0.0
H2293 H 0.49275 0.21087 0.7475 0.0
C2294 C 0.51574 0.2068 0.77439 0.0
C2295 C 0.52722 0.21014 0.78959 0.0
C2296 C 0.50542 0.25451 0.77347 0.0
C2297 C 0.52848 0.26297 0.80341 0.0
C2298 C 0.51827 0.31086 0.80252 0.0
C2299 C 0.49619 0.35387 0.78715 0.0
C2300 C 0.48462 0.35021 0.77214 0.0
C2301 C 0.50663 0.30669 0.7878 0.0
C2302 C 0.48355 0.29822 0.7579 0.0
C2303 C 0.49383 0.2506 0.75863 0.0
H2304 H 0.49484 0.88338 0.308 0.0
H2305 H 0.47181 0.7839 0.2566 0.0
H2306 H 0.48976 0.70048 0.25739 0.0
H2307 H 0.51218 0.65722 0.27207 0.0
H2308 H 0.53519 0.75697 0.32341 0.0
H2309 H 0.51709 0.83975 0.3229 0.0
C2310 C 0.49364 0.84326 0.29706 0.0
C2311 C 0.48195 0.83995 0.28225 0.0
C2312 C 0.5041 0.79606 0.29735 0.0
C2313 C 0.48065 0.78761 0.2682 0.0
C2314 C 0.49096 0.74007 0.26855 0.0
C2315 C 0.51332 0.69727 0.28306 0.0
C2316 C 0.52509 0.70101 0.2977 0.0
C2317 C 0.5028 0.7442 0.28289 0.0
C2318 C 0.52629 0.75301 0.31193 0.0
C2319 C 0.51591 0.80021 0.31172 0.0
H2320 H 0.51012 0.66113 0.03532 0.0
H2321 H 0.54094 0.52639 0.06026 0.0
H2322 H 0.52296 0.44337 0.05814 0.0
H2323 H 0.49876 0.40982 0.04906 0.0
H2324 H 0.46784 0.54495 0.0247 0.0
H2325 H 0.48583 0.62784 0.02675 0.0
C2326 C 0.51299 0.6136 0.04026 0.0
C2327 C 0.52692 0.59992 0.04788 0.0
C2328 C 0.50262 0.56653 0.03915 0.0
C2329 C 0.53034 0.53815 0.05432 0.0
C2330 C 0.52006 0.49077 0.05312 0.0
C2331 C 0.49584 0.45742 0.04433 0.0
C2332 C 0.48189 0.47117 0.03681 0.0
C2333 C 0.50619 0.50457 0.04558 0.0
C2334 C 0.47844 0.53309 0.03059 0.0
C2335 C 0.48873 0.58041 0.03173 0.0
loop_
_geom_bond_atom_site_label_1
_geom_bond_atom_site_label_2
_geom_bond_distance
_geom_bond_site_symmetry_2
_ccdc_geom_bond_type
Co0 N4 2.148 1_554 S
Co0 N10 2.128 . S
Co0 N20 2.194 . S
Co0 O25 2.351 . S
Co0 O26 2.155 . S
Co0 O27 2.096 . S
C1 N4 1.301 . S
C1 N5 1.328 . S
C1 H6 0.930 . S
C2 C3 1.333 . S
C2 N4 1.317 . S
C2 H7 0.930 . S
C3 C2 1.333 . S
C3 N5 1.350 . S
C3 H29 0.931 . S
N4 Co0 2.148 1_556 S
N4 C1 1.301 . S
N4 C2 1.317 . S
N5 C1 1.328 . S
N5 C3 1.350 . S
H6 C1 0.930 . S
H7 C2 0.930 . S
C8 O9 1.224 . S
C8 O27 1.247 . S
O9 C8 1.224 . S
N10 Co0 2.128 . S
N10 C11 1.355 . S
N10 C13 1.311 . S
C11 N10 1.355 . S
C11 C12 1.363 . S
C11 H23 0.929 . S
C12 C11 1.363 . S
C12 N14 1.375 . S
C12 H30 0.931 . S
C13 N10 1.311 . S
C13 N14 1.347 . S
C13 H24 0.929 . S
N14 C12 1.375 . S
N14 C13 1.347 . S
C15 C18 1.365 . S
C15 N20 1.328 . S
C15 H21 0.929 . S
C16 C17 1.362 . S
C16 C19 1.378 . S
C16 H31 0.929 . S
C17 C16 1.362 . S
C17 C18 1.366 . S
C18 C15 1.365 . S
C18 C17 1.366 . S
C18 H32 0.930 . S
C19 C16 1.378 . S
C19 N20 1.315 . S
C19 H22 0.930 . S
N20 Co0 2.194 . S
N20 C15 1.328 . S
N20 C19 1.315 . S
H21 C15 0.929 . S
H22 C19 0.930 . S
H23 C11 0.929 . S
H24 C13 0.929 . S
O25 Co0 2.351 . S
O25 C28 1.244 . S
O26 Co0 2.155 . S
O26 C28 1.240 . S
O27 Co0 2.096 . S
O27 C8 1.247 . S
C28 O25 1.244 . S
C28 O26 1.240 . S
H29 C3 0.931 . S
H30 C12 0.931 . S
H31 C16 0.929 . S
H32 C18 0.930 . S
Co33 N37 2.148 . S
Co33 N43 2.128 1_554 S
Co33 N53 2.194 . S
Co33 O58 2.351 . S
Co33 O59 2.155 . S
Co33 O60 2.096 1_545 S
C34 N37 1.301 . S
C34 N38 1.328 . S
C34 H39 0.930 . S
C35 C36 1.333 . S
C35 N37 1.317 . S
C35 H40 0.930 1_545 S
C36 C35 1.333 . S
C36 N38 1.350 . S
C36 H62 0.931 . S
N37 Co33 2.148 . S
N37 C34 1.301 . S
N37 C35 1.317 . S
N38 C34 1.328 . S
N38 C36 1.350 . S
H39 C34 0.930 . S
H40 C35 0.930 1_565 S
C41 O42 1.224 . S
C41 O60 1.247 . S
O42 C41 1.224 . S
N43 Co33 2.128 1_556 S
N43 C44 1.355 . S
N43 C46 1.311 . S
C44 N43 1.355 . S
C44 C45 1.363 . S
C44 H56 0.929 . S
C45 C44 1.363 . S
C45 N47 1.375 . S
C45 H63 0.931 . S
C46 N43 1.311 . S
C46 N47 1.347 . S
C46 H57 0.929 1_545 S
N47 C45 1.375 . S
N47 C46 1.347 . S
C48 C51 1.365 . S
C48 N53 1.328 . S
C48 H54 0.929 . S
C49 C50 1.362 . S
C49 C52 1.378 . S
C49 H64 0.929 1_545 S
C50 C49 1.362 . S
C50 C51 1.366 . S
C51 C48 1.365 . S
C51 C50 1.366 . S
C51 H65 0.930 . S
C52 C49 1.378 . S
C52 N53 1.315 . S
C52 H55 0.930 1_545 S
N53 Co33 2.194 . S
N53 C48 1.328 . S
N53 C52 1.315 . S
H54 C48 0.929 . S
H55 C52 0.930 1_565 S
H56 C44 0.929 . S
H57 C46 0.929 1_565 S
O58 Co33 2.351 . S
O58 C61 1.244 . S
O59 Co33 2.155 . S
O59 C61 1.240 . S
O60 Co33 2.096 1_565 S
O60 C41 1.247 . S
C61 O58 1.244 . S
C61 O59 1.240 . S
H62 C36 0.931 . S
H63 C45 0.931 . S
H64 C49 0.929 1_565 S
H65 C51 0.930 . S
Co66 N70 2.148 . S
Co66 N76 2.128 . S
Co66 N86 2.194 . S
Co66 O91 2.351 1_545 S
Co66 O92 2.155 1_545 S
Co66 O93 2.096 . S
C67 N70 1.301 . S
C67 N71 1.328 . S
C67 H72 0.930 1_545 S
C68 C69 1.333 . S
C68 N70 1.317 . S
C68 H73 0.930 . S
C69 C68 1.333 . S
C69 N71 1.350 . S
C69 H95 0.931 . S
N70 Co66 2.148 . S
N70 C67 1.301 . S
N70 C68 1.317 . S
N71 C67 1.328 . S
N71 C69 1.350 . S
H72 C67 0.930 1_565 S
H73 C68 0.930 . S
C74 O75 1.224 . S
C74 O93 1.247 . S
O75 C74 1.224 . S
N76 Co66 2.128 . S
N76 C77 1.355 . S
N76 C79 1.311 . S
C77 N76 1.355 . S
C77 C78 1.363 . S
C77 H89 0.929 . S
C78 C77 1.363 . S
C78 N80 1.375 . S
C78 H96 0.931 . S
C79 N76 1.311 . S
C79 N80 1.347 . S
C79 H90 0.929 . S
N80 C78 1.375 . S
N80 C79 1.347 . S
C81 C84 1.365 . S
C81 N86 1.328 . S
C81 H87 0.929 1_545 S
C82 C83 1.362 . S
C82 C85 1.378 . S
C82 H97 0.929 . S
C83 C82 1.362 . S
C83 C84 1.366 . S
C84 C81 1.365 . S
C84 C83 1.366 . S
C84 H98 0.930 1_545 S
C85 C82 1.378 . S
C85 N86 1.315 . S
C85 H88 0.930 . S
N86 Co66 2.194 . S
N86 C81 1.328 . S
N86 C85 1.315 . S
H87 C81 0.929 1_565 S
H88 C85 0.930 . S
H89 C77 0.929 . S
H90 C79 0.929 . S
O91 Co66 2.351 1_565 S
O91 C94 1.244 . S
O92 Co66 2.155 1_565 S
O92 C94 1.240 . S
O93 Co66 2.096 . S
O93 C74 1.247 . S
C94 O91 1.244 . S
C94 O92 1.240 . S
H95 C69 0.931 . S
H96 C78 0.931 . S
H97 C82 0.929 . S
H98 C84 0.930 1_565 S
Co99 N103 2.148 . S
Co99 N109 2.128 . S
Co99 N119 2.194 . S
Co99 O124 2.351 . S
Co99 O125 2.155 . S
Co99 O126 2.096 . S
C100 N103 1.301 . S
C100 N104 1.328 . S
C100 H105 0.930 . S
C101 C102 1.333 . S
C101 N103 1.317 . S
C101 H106 0.930 . S
C102 C101 1.333 . S
C102 N104 1.350 . S
C102 H128 0.931 . S
N103 Co99 2.148 . S
N103 C100 1.301 . S
N103 C101 1.317 . S
N104 C100 1.328 . S
N104 C102 1.350 . S
H105 C100 0.930 . S
H106 C101 0.930 . S
C107 O108 1.224 . S
C107 O126 1.247 . S
O108 C107 1.224 . S
N109 Co99 2.128 . S
N109 C110 1.355 . S
N109 C112 1.311 . S
C110 N109 1.355 . S
C110 C111 1.363 . S
C110 H122 0.929 . S
C111 C110 1.363 . S
C111 N113 1.375 . S
C111 H129 0.931 . S
C112 N109 1.311 . S
C112 N113 1.347 . S
C112 H123 0.929 . S
N113 C111 1.375 . S
N113 C112 1.347 . S
C114 C117 1.365 . S
C114 N119 1.328 . S
C114 H120 0.929 . S
C115 C116 1.362 . S
C115 C118 1.378 . S
C115 H130 0.929 . S
C116 C115 1.362 . S
C116 C117 1.366 . S
C117 C114 1.365 . S
C117 C116 1.366 . S
C117 H131 0.930 . S
C118 C115 1.378 . S
C118 N119 1.315 . S
C118 H121 0.930 . S
N119 Co99 2.194 . S
N119 C114 1.328 . S
N119 C118 1.315 . S
H120 C114 0.929 . S
H121 C118 0.930 . S
H122 C110 0.929 . S
H123 C112 0.929 . S
O124 Co99 2.351 . S
O124 C127 1.244 . S
O125 Co99 2.155 . S
O125 C127 1.240 . S
O126 Co99 2.096 . S
O126 C107 1.247 . S
C127 O124 1.244 . S
C127 O125 1.240 . S
H128 C102 0.931 . S
H129 C111 0.931 . S
H130 C115 0.929 . S
H131 C117 0.930 . S
Co132 N136 2.148 . S
Co132 N142 2.128 1_554 S
Co132 N152 2.194 . S
Co132 O157 2.351 . S
Co132 O158 2.155 . S
Co132 O159 2.096 . S
C133 N136 1.301 . S
C133 N137 1.328 . S
C133 H138 0.930 . S
C134 C135 1.333 . S
C134 N136 1.317 . S
C134 H139 0.930 . S
C135 C134 1.333 . S
C135 N137 1.350 . S
C135 H161 0.931 . S
N136 Co132 2.148 . S
N136 C133 1.301 . S
N136 C134 1.317 . S
N137 C133 1.328 . S
N137 C135 1.350 . S
H138 C133 0.930 . S
H139 C134 0.930 . S
C140 O141 1.224 . S
C140 O159 1.247 . S
O141 C140 1.224 . S
N142 Co132 2.128 1_556 S
N142 C143 1.355 . S
N142 C145 1.311 . S
C143 N142 1.355 . S
C143 C144 1.363 . S
C143 H155 0.929 . S
C144 C143 1.363 . S
C144 N146 1.375 . S
C144 H162 0.931 . S
C145 N142 1.311 . S
C145 N146 1.347 . S
C145 H156 0.929 . S
N146 C144 1.375 . S
N146 C145 1.347 . S
C147 C150 1.365 . S
C147 N152 1.328 . S
C147 H153 0.929 . S
C148 C149 1.362 . S
C148 C151 1.378 . S
C148 H163 0.929 . S
C149 C148 1.362 . S
C149 C150 1.366 . S
C150 C147 1.365 . S
C150 C149 1.366 . S
C150 H164 0.930 . S
C151 C148 1.378 . S
C151 N152 1.315 . S
C151 H154 0.930 . S
N152 Co132 2.194 . S
N152 C147 1.328 . S
N152 C151 1.315 . S
H153 C147 0.929 . S
H154 C151 0.930 . S
H155 C143 0.929 . S
H156 C145 0.929 . S
O157 Co132 2.351 . S
O157 C160 1.244 . S
O158 Co132 2.155 . S
O158 C160 1.240 . S
O159 Co132 2.096 . S
O159 C140 1.247 . S
C160 O157 1.244 . S
C160 O158 1.240 . S
H161 C135 0.931 . S
H162 C144 0.931 . S
H163 C148 0.929 . S
H164 C150 0.930 . S
Co165 N169 2.148 . S
Co165 N175 2.128 1_554 S
Co165 N185 2.194 . S
Co165 O190 2.351 . S
Co165 O191 2.155 . S
Co165 O192 2.096 1_545 S
C166 N169 1.301 . S
C166 N170 1.328 . S
C166 H171 0.930 . S
C167 C168 1.333 1_565 S
C167 N169 1.317 1_565 S
C167 H172 0.930 . S
C168 C167 1.333 1_545 S
C168 N170 1.350 . S
C168 H194 0.931 1_545 S
N169 Co165 2.148 . S
N169 C166 1.301 . S
N169 C167 1.317 1_545 S
N170 C166 1.328 . S
N170 C168 1.350 . S
H171 C166 0.930 . S
H172 C167 0.930 . S
C173 O174 1.224 . S
C173 O192 1.247 . S
O174 C173 1.224 . S
N175 Co165 2.128 1_556 S
N175 C176 1.355 . S
N175 C178 1.311 1_545 S
C176 N175 1.355 . S
C176 C177 1.363 . S
C176 H188 0.929 . S
C177 C176 1.363 . S
C177 N179 1.375 1_545 S
C177 H195 0.931 . S
C178 N175 1.311 1_565 S
C178 N179 1.347 . S
C178 H189 0.929 . S
N179 C177 1.375 1_565 S
N179 C178 1.347 . S
C180 C183 1.365 . S
C180 N185 1.328 . S
C180 H186 0.929 . S
C181 C182 1.362 . S
C181 C184 1.378 . S
C181 H196 0.929 . S
C182 C181 1.362 . S
C182 C183 1.366 1_565 S
C183 C180 1.365 . S
C183 C182 1.366 1_545 S
C183 H197 0.930 . S
C184 C181 1.378 . S
C184 N185 1.315 1_565 S
C184 H187 0.930 . S
N185 Co165 2.194 . S
N185 C180 1.328 . S
N185 C184 1.315 1_545 S
H186 C180 0.929 . S
H187 C184 0.930 . S
H188 C176 0.929 . S
H189 C178 0.929 . S
O190 Co165 2.351 . S
O190 C193 1.244 . S
O191 Co165 2.155 . S
O191 C193 1.240 . S
O192 Co165 2.096 1_565 S
O192 C173 1.247 . S
C193 O190 1.244 . S
C193 O191 1.240 . S
H194 C168 0.931 1_565 S
H195 C177 0.931 . S
H196 C181 0.929 . S
H197 C183 0.930 . S
Co198 N202 2.148 . S
Co198 N208 2.128 . S
Co198 N218 2.194 . S
Co198 O223 2.351 . S
Co198 O224 2.155 . S
Co198 O225 2.096 1_545 S
C199 N202 1.301 . S
C199 N203 1.328 . S
C199 H204 0.930 . S
C200 C201 1.333 1_565 S
C200 N202 1.317 1_565 S
C200 H205 0.930 . S
C201 C200 1.333 1_545 S
C201 N203 1.350 . S
C201 H227 0.931 1_545 S
N202 Co198 2.148 . S
N202 C199 1.301 . S
N202 C200 1.317 1_545 S
N203 C199 1.328 . S
N203 C201 1.350 . S
H204 C199 0.930 . S
H205 C200 0.930 . S
C206 O207 1.224 . S
C206 O225 1.247 . S
O207 C206 1.224 . S
N208 Co198 2.128 . S
N208 C209 1.355 . S
N208 C211 1.311 1_545 S
C209 N208 1.355 . S
C209 C210 1.363 . S
C209 H221 0.929 . S
C210 C209 1.363 . S
C210 N212 1.375 1_545 S
C210 H228 0.931 . S
C211 N208 1.311 1_565 S
C211 N212 1.347 . S
C211 H222 0.929 . S
N212 C210 1.375 1_565 S
N212 C211 1.347 . S
C213 C216 1.365 . S
C213 N218 1.328 . S
C213 H219 0.929 . S
C214 C215 1.362 . S
C214 C217 1.378 . S
C214 H229 0.929 . S
C215 C214 1.362 . S
C215 C216 1.366 1_565 S
C216 C213 1.365 . S
C216 C215 1.366 1_545 S
C216 H230 0.930 . S
C217 C214 1.378 . S
C217 N218 1.315 1_565 S
C217 H220 0.930 . S
N218 Co198 2.194 . S
N218 C213 1.328 . S
N218 C217 1.315 1_545 S
H219 C213 0.929 . S
H220 C217 0.930 . S
H221 C209 0.929 . S
H222 C211 0.929 . S
O223 Co198 2.351 . S
O223 C226 1.244 . S
O224 Co198 2.155 . S
O224 C226 1.240 . S
O225 Co198 2.096 1_565 S
O225 C206 1.247 . S
C226 O223 1.244 . S
C226 O224 1.240 . S
H227 C201 0.931 1_565 S
H228 C210 0.931 . S
H229 C214 0.929 . S
H230 C216 0.930 . S
Co231 N235 2.148 . S
Co231 N241 2.128 . S
Co231 N251 2.194 . S
Co231 O256 2.351 . S
Co231 O257 2.155 . S
Co231 O258 2.096 . S
C232 N235 1.301 . S
C232 N236 1.328 . S
C232 H237 0.930 . S
C233 C234 1.333 . S
C233 N235 1.317 . S
C233 H238 0.930 . S
C234 C233 1.333 . S
C234 N236 1.350 . S
C234 H260 0.931 . S
N235 Co231 2.148 . S
N235 C232 1.301 . S
N235 C233 1.317 . S
N236 C232 1.328 . S
N236 C234 1.350 . S
H237 C232 0.930 . S
H238 C233 0.930 . S
C239 O240 1.224 . S
C239 O258 1.247 . S
O240 C239 1.224 . S
N241 Co231 2.128 . S
N241 C242 1.355 . S
N241 C244 1.311 . S
C242 N241 1.355 . S
C242 C243 1.363 . S
C242 H254 0.929 . S
C243 C242 1.363 . S
C243 N245 1.375 . S
C243 H261 0.931 . S
C244 N241 1.311 . S
C244 N245 1.347 . S
C244 H255 0.929 . S
N245 C243 1.375 . S
N245 C244 1.347 . S
C246 C249 1.365 . S
C246 N251 1.328 . S
C246 H252 0.929 . S
C247 C248 1.362 . S
C247 C250 1.378 . S
C247 H262 0.929 . S
C248 C247 1.362 . S
C248 C249 1.366 . S
C249 C246 1.365 . S
C249 C248 1.366 . S
C249 H263 0.930 . S
C250 C247 1.378 . S
C250 N251 1.315 . S
C250 H253 0.930 . S
N251 Co231 2.194 . S
N251 C246 1.328 . S
N251 C250 1.315 . S
H252 C246 0.929 . S
H253 C250 0.930 . S
H254 C242 0.929 . S
H255 C244 0.929 . S
O256 Co231 2.351 . S
O256 C259 1.244 . S
O257 Co231 2.155 . S
O257 C259 1.240 . S
O258 Co231 2.096 . S
O258 C239 1.247 . S
C259 O256 1.244 . S
C259 O257 1.240 . S
H260 C234 0.931 . S
H261 C243 0.931 . S
H262 C247 0.929 . S
H263 C249 0.930 . S
Co264 N268 2.148 . S
Co264 N274 2.128 . S
Co264 N284 2.194 . S
Co264 O289 2.351 . S
Co264 O290 2.155 . S
Co264 O291 2.096 . S
C265 N268 1.301 . S
C265 N269 1.328 . S
C265 H270 0.930 . S
C266 C267 1.333 . S
C266 N268 1.317 . S
C266 H271 0.930 . S
C267 C266 1.333 . S
C267 N269 1.350 . S
C267 H293 0.931 . S
N268 Co264 2.148 . S
N268 C265 1.301 . S
N268 C266 1.317 . S
N269 C265 1.328 . S
N269 C267 1.350 . S
H270 C265 0.930 . S
H271 C266 0.930 . S
C272 O273 1.224 . S
C272 O291 1.247 . S
O273 C272 1.224 . S
N274 Co264 2.128 . S
N274 C275 1.355 . S
N274 C277 1.311 . S
C275 N274 1.355 . S
C275 C276 1.363 . S
C275 H287 0.929 . S
C276 C275 1.363 . S
C276 N278 1.375 . S
C276 H294 0.931 . S
C277 N274 1.311 . S
C277 N278 1.347 . S
C277 H288 0.929 . S
N278 C276 1.375 . S
N278 C277 1.347 . S
C279 C282 1.365 . S
C279 N284 1.328 . S
C279 H285 0.929 . S
C280 C281 1.362 . S
C280 C283 1.378 . S
C280 H295 0.929 . S
C281 C280 1.362 . S
C281 C282 1.366 . S
C282 C279 1.365 . S
C282 C281 1.366 . S
C282 H296 0.930 . S
C283 C280 1.378 . S
C283 N284 1.315 . S
C283 H286 0.930 . S
N284 Co264 2.194 . S
N284 C279 1.328 . S
N284 C283 1.315 . S
H285 C279 0.929 . S
H286 C283 0.930 . S
H287 C275 0.929 . S
H288 C277 0.929 . S
O289 Co264 2.351 . S
O289 C292 1.244 . S
O290 Co264 2.155 . S
O290 C292 1.240 . S
O291 Co264 2.096 . S
O291 C272 1.247 . S
C292 O289 1.244 . S
C292 O290 1.240 . S
H293 C267 0.931 . S
H294 C276 0.931 . S
H295 C280 0.929 . S
H296 C282 0.930 . S
Co297 N301 2.148 . S
Co297 N307 2.128 . S
Co297 N317 2.194 . S
Co297 O322 2.351 . S
Co297 O323 2.155 . S
Co297 O324 2.096 . S
C298 N301 1.301 . S
C298 N302 1.328 . S
C298 H303 0.930 . S
C299 C300 1.333 . S
C299 N301 1.317 . S
C299 H304 0.930 . S
C300 C299 1.333 . S
C300 N302 1.350 . S
C300 H326 0.931 . S
N301 Co297 2.148 . S
N301 C298 1.301 . S
N301 C299 1.317 . S
N302 C298 1.328 . S
N302 C300 1.350 . S
H303 C298 0.930 . S
H304 C299 0.930 . S
C305 O306 1.224 . S
C305 O324 1.247 . S
O306 C305 1.224 . S
N307 Co297 2.128 . S
N307 C308 1.355 . S
N307 C310 1.311 . S
C308 N307 1.355 . S
C308 C309 1.363 . S
C308 H320 0.929 . S
C309 C308 1.363 . S
C309 N311 1.375 . S
C309 H327 0.931 . S
C310 N307 1.311 . S
C310 N311 1.347 . S
C310 H321 0.929 . S
N311 C309 1.375 . S
N311 C310 1.347 . S
C312 C315 1.365 . S
C312 N317 1.328 . S
C312 H318 0.929 . S
C313 C314 1.362 . S
C313 C316 1.378 . S
C313 H328 0.929 . S
C314 C313 1.362 . S
C314 C315 1.366 . S
C315 C312 1.365 . S
C315 C314 1.366 . S
C315 H329 0.930 . S
C316 C313 1.378 . S
C316 N317 1.315 . S
C316 H319 0.930 . S
N317 Co297 2.194 . S
N317 C312 1.328 . S
N317 C316 1.315 . S
H318 C312 0.929 . S
H319 C316 0.930 . S
H320 C308 0.929 . S
H321 C310 0.929 . S
O322 Co297 2.351 . S
O322 C325 1.244 . S
O323 Co297 2.155 . S
O323 C325 1.240 . S
O324 Co297 2.096 . S
O324 C305 1.247 . S
C325 O322 1.244 . S
C325 O323 1.240 . S
H326 C300 0.931 . S
H327 C309 0.931 . S
H328 C313 0.929 . S
H329 C315 0.930 . S
Co330 N334 2.148 . S
Co330 N340 2.128 . S
Co330 N350 2.194 . S
Co330 O355 2.351 . S
Co330 O356 2.155 . S
Co330 O357 2.096 . S
C331 N334 1.301 . S
C331 N335 1.328 . S
C331 H336 0.930 . S
C332 C333 1.333 . S
C332 N334 1.317 . S
C332 H337 0.930 . S
C333 C332 1.333 . S
C333 N335 1.350 . S
C333 H359 0.931 . S
N334 Co330 2.148 . S
N334 C331 1.301 . S
N334 C332 1.317 . S
N335 C331 1.328 . S
N335 C333 1.350 . S
H336 C331 0.930 . S
H337 C332 0.930 . S
C338 O339 1.224 . S
C338 O357 1.247 . S
O339 C338 1.224 . S
N340 Co330 2.128 . S
N340 C341 1.355 . S
N340 C343 1.311 . S
C341 N340 1.355 . S
C341 C342 1.363 . S
C341 H353 0.929 . S
C342 C341 1.363 . S
C342 N344 1.375 . S
C342 H360 0.931 . S
C343 N340 1.311 . S
C343 N344 1.347 . S
C343 H354 0.929 . S
N344 C342 1.375 . S
N344 C343 1.347 . S
C345 C348 1.365 . S
C345 N350 1.328 . S
C345 H351 0.929 . S
C346 C347 1.362 . S
C346 C349 1.378 . S
C346 H361 0.929 . S
C347 C346 1.362 . S
C347 C348 1.366 . S
C348 C345 1.365 . S
C348 C347 1.366 . S
C348 H362 0.930 . S
C349 C346 1.378 . S
C349 N350 1.315 . S
C349 H352 0.930 . S
N350 Co330 2.194 . S
N350 C345 1.328 . S
N350 C349 1.315 . S
H351 C345 0.929 . S
H352 C349 0.930 . S
H353 C341 0.929 . S
H354 C343 0.929 . S
O355 Co330 2.351 . S
O355 C358 1.244 . S
O356 Co330 2.155 . S
O356 C358 1.240 . S
O357 Co330 2.096 . S
O357 C338 1.247 . S
C358 O355 1.244 . S
C358 O356 1.240 . S
H359 C333 0.931 . S
H360 C342 0.931 . S
H361 C346 0.929 . S
H362 C348 0.930 . S
Co363 N367 2.148 . S
Co363 N373 2.128 . S
Co363 N383 2.194 . S
Co363 O388 2.351 . S
Co363 O389 2.155 . S
Co363 O390 2.096 . S
C364 N367 1.301 . S
C364 N368 1.328 . S
C364 H369 0.930 . S
C365 C366 1.333 . S
C365 N367 1.317 . S
C365 H370 0.930 . S
C366 C365 1.333 . S
C366 N368 1.350 . S
C366 H392 0.931 . S
N367 Co363 2.148 . S
N367 C364 1.301 . S
N367 C365 1.317 . S
N368 C364 1.328 . S
N368 C366 1.350 . S
H369 C364 0.930 . S
H370 C365 0.930 . S
C371 O372 1.224 . S
C371 O390 1.247 . S
O372 C371 1.224 . S
N373 Co363 2.128 . S
N373 C374 1.355 . S
N373 C376 1.311 . S
C374 N373 1.355 . S
C374 C375 1.363 . S
C374 H386 0.929 . S
C375 C374 1.363 . S
C375 N377 1.375 . S
C375 H393 0.931 . S
C376 N373 1.311 . S
C376 N377 1.347 . S
C376 H387 0.929 . S
N377 C375 1.375 . S
N377 C376 1.347 . S
C378 C381 1.365 . S
C378 N383 1.328 . S
C378 H384 0.929 . S
C379 C380 1.362 . S
C379 C382 1.378 . S
C379 H394 0.929 . S
C380 C379 1.362 . S
C380 C381 1.366 . S
C381 C378 1.365 . S
C381 C380 1.366 . S
C381 H395 0.930 . S
C382 C379 1.378 . S
C382 N383 1.315 . S
C382 H385 0.930 . S
N383 Co363 2.194 . S
N383 C378 1.328 . S
N383 C382 1.315 . S
H384 C378 0.929 . S
H385 C382 0.930 . S
H386 C374 0.929 . S
H387 C376 0.929 . S
O388 Co363 2.351 . S
O388 C391 1.244 . S
O389 Co363 2.155 . S
O389 C391 1.240 . S
O390 Co363 2.096 . S
O390 C371 1.247 . S
C391 O388 1.244 . S
C391 O389 1.240 . S
H392 C366 0.931 . S
H393 C375 0.931 . S
H394 C379 0.929 . S
H395 C381 0.930 . S
Co396 N400 2.148 . S
Co396 N406 2.128 . S
Co396 N416 2.194 . S
Co396 O421 2.351 . S
Co396 O422 2.155 . S
Co396 O423 2.096 . S
C397 N400 1.301 . S
C397 N401 1.328 . S
C397 H402 0.930 . S
C398 C399 1.333 . S
C398 N400 1.317 . S
C398 H403 0.930 . S
C399 C398 1.333 . S
C399 N401 1.350 . S
C399 H425 0.931 . S
N400 Co396 2.148 . S
N400 C397 1.301 . S
N400 C398 1.317 . S
N401 C397 1.328 . S
N401 C399 1.350 . S
H402 C397 0.930 . S
H403 C398 0.930 . S
C404 O405 1.224 . S
C404 O423 1.247 . S
O405 C404 1.224 . S
N406 Co396 2.128 . S
N406 C407 1.355 . S
N406 C409 1.311 . S
C407 N406 1.355 . S
C407 C408 1.363 . S
C407 H419 0.929 . S
C408 C407 1.363 . S
C408 N410 1.375 . S
C408 H426 0.931 . S
C409 N406 1.311 . S
C409 N410 1.347 . S
C409 H420 0.929 . S
N410 C408 1.375 . S
N410 C409 1.347 . S
C411 C414 1.365 . S
C411 N416 1.328 . S
C411 H417 0.929 . S
C412 C413 1.362 . S
C412 C415 1.378 . S
C412 H427 0.929 . S
C413 C412 1.362 . S
C413 C414 1.366 . S
C414 C411 1.365 . S
C414 C413 1.366 . S
C414 H428 0.930 . S
C415 C412 1.378 . S
C415 N416 1.315 . S
C415 H418 0.930 . S
N416 Co396 2.194 . S
N416 C411 1.328 . S
N416 C415 1.315 . S
H417 C411 0.929 . S
H418 C415 0.930 . S
H419 C407 0.929 . S
H420 C409 0.929 . S
O421 Co396 2.351 . S
O421 C424 1.244 . S
O422 Co396 2.155 . S
O422 C424 1.240 . S
O423 Co396 2.096 . S
O423 C404 1.247 . S
C424 O421 1.244 . S
C424 O422 1.240 . S
H425 C399 0.931 . S
H426 C408 0.931 . S
H427 C412 0.929 . S
H428 C414 0.930 . S
Co429 N433 2.148 . S
Co429 N439 2.128 . S
Co429 N449 2.194 . S
Co429 O454 2.351 . S
Co429 O455 2.155 . S
Co429 O456 2.096 . S
C430 N433 1.301 . S
C430 N434 1.328 . S
C430 H435 0.930 . S
C431 C432 1.333 . S
C431 N433 1.317 . S
C431 H436 0.930 . S
C432 C431 1.333 . S
C432 N434 1.350 . S
C432 H458 0.931 . S
N433 Co429 2.148 . S
N433 C430 1.301 . S
N433 C431 1.317 . S
N434 C430 1.328 . S
N434 C432 1.350 . S
H435 C430 0.930 . S
H436 C431 0.930 . S
C437 O438 1.224 . S
C437 O456 1.247 . S
O438 C437 1.224 . S
N439 Co429 2.128 . S
N439 C440 1.355 . S
N439 C442 1.311 . S
C440 N439 1.355 . S
C440 C441 1.363 . S
C440 H452 0.929 . S
C441 C440 1.363 . S
C441 N443 1.375 . S
C441 H459 0.931 . S
C442 N439 1.311 . S
C442 N443 1.347 . S
C442 H453 0.929 . S
N443 C441 1.375 . S
N443 C442 1.347 . S
C444 C447 1.365 . S
C444 N449 1.328 . S
C444 H450 0.929 . S
C445 C446 1.362 . S
C445 C448 1.378 . S
C445 H460 0.929 . S
C446 C445 1.362 . S
C446 C447 1.366 . S
C447 C444 1.365 . S
C447 C446 1.366 . S
C447 H461 0.930 . S
C448 C445 1.378 . S
C448 N449 1.315 . S
C448 H451 0.930 . S
N449 Co429 2.194 . S
N449 C444 1.328 . S
N449 C448 1.315 . S
H450 C444 0.929 . S
H451 C448 0.930 . S
H452 C440 0.929 . S
H453 C442 0.929 . S
O454 Co429 2.351 . S
O454 C457 1.244 . S
O455 Co429 2.155 . S
O455 C457 1.240 . S
O456 Co429 2.096 . S
O456 C437 1.247 . S
C457 O454 1.244 . S
C457 O455 1.240 . S
H458 C432 0.931 . S
H459 C441 0.931 . S
H460 C445 0.929 . S
H461 C447 0.930 . S
Co462 N466 2.148 . S
Co462 N472 2.128 . S
Co462 N482 2.194 . S
Co462 O487 2.351 . S
Co462 O488 2.155 . S
Co462 O489 2.096 . S
C463 N466 1.301 . S
C463 N467 1.328 . S
C463 H468 0.930 . S
C464 C465 1.333 . S
C464 N466 1.317 . S
C464 H469 0.930 . S
C465 C464 1.333 . S
C465 N467 1.350 . S
C465 H491 0.931 . S
N466 Co462 2.148 . S
N466 C463 1.301 . S
N466 C464 1.317 . S
N467 C463 1.328 . S
N467 C465 1.350 . S
H468 C463 0.930 . S
H469 C464 0.930 . S
C470 O471 1.224 . S
C470 O489 1.247 . S
O471 C470 1.224 . S
N472 Co462 2.128 . S
N472 C473 1.355 . S
N472 C475 1.311 . S
C473 N472 1.355 . S
C473 C474 1.363 . S
C473 H485 0.929 . S
C474 C473 1.363 . S
C474 N476 1.375 . S
C474 H492 0.931 . S
C475 N472 1.311 . S
C475 N476 1.347 . S
C475 H486 0.929 . S
N476 C474 1.375 . S
N476 C475 1.347 . S
C477 C480 1.365 . S
C477 N482 1.328 . S
C477 H483 0.929 . S
C478 C479 1.362 . S
C478 C481 1.378 . S
C478 H493 0.929 . S
C479 C478 1.362 . S
C479 C480 1.366 . S
C480 C477 1.365 . S
C480 C479 1.366 . S
C480 H494 0.930 . S
C481 C478 1.378 . S
C481 N482 1.315 . S
C481 H484 0.930 . S
N482 Co462 2.194 . S
N482 C477 1.328 . S
N482 C481 1.315 . S
H483 C477 0.929 . S
H484 C481 0.930 . S
H485 C473 0.929 . S
H486 C475 0.929 . S
O487 Co462 2.351 . S
O487 C490 1.244 . S
O488 Co462 2.155 . S
O488 C490 1.240 . S
O489 Co462 2.096 . S
O489 C470 1.247 . S
C490 O487 1.244 . S
C490 O488 1.240 . S
H491 C465 0.931 . S
H492 C474 0.931 . S
H493 C478 0.929 . S
H494 C480 0.930 . S
Co495 N499 2.148 . S
Co495 N505 2.128 . S
Co495 N515 2.194 . S
Co495 O520 2.351 . S
Co495 O521 2.155 . S
Co495 O522 2.096 . S
C496 N499 1.301 . S
C496 N500 1.328 . S
C496 H501 0.930 . S
C497 C498 1.333 . S
C497 N499 1.317 . S
C497 H502 0.930 . S
C498 C497 1.333 . S
C498 N500 1.350 . S
C498 H524 0.931 . S
N499 Co495 2.148 . S
N499 C496 1.301 . S
N499 C497 1.317 . S
N500 C496 1.328 . S
N500 C498 1.350 . S
H501 C496 0.930 . S
H502 C497 0.930 . S
C503 O504 1.224 . S
C503 O522 1.247 . S
O504 C503 1.224 . S
N505 Co495 2.128 . S
N505 C506 1.355 . S
N505 C508 1.311 . S
C506 N505 1.355 . S
C506 C507 1.363 . S
C506 H518 0.929 . S
C507 C506 1.363 . S
C507 N509 1.375 . S
C507 H525 0.931 . S
C508 N505 1.311 . S
C508 N509 1.347 . S
C508 H519 0.929 . S
N509 C507 1.375 . S
N509 C508 1.347 . S
C510 C513 1.365 . S
C510 N515 1.328 . S
C510 H516 0.929 . S
C511 C512 1.362 . S
C511 C514 1.378 . S
C511 H526 0.929 . S
C512 C511 1.362 . S
C512 C513 1.366 . S
C513 C510 1.365 . S
C513 C512 1.366 . S
C513 H527 0.930 . S
C514 C511 1.378 . S
C514 N515 1.315 . S
C514 H517 0.930 . S
N515 Co495 2.194 . S
N515 C510 1.328 . S
N515 C514 1.315 . S
H516 C510 0.929 . S
H517 C514 0.930 . S
H518 C506 0.929 . S
H519 C508 0.929 . S
O520 Co495 2.351 . S
O520 C523 1.244 . S
O521 Co495 2.155 . S
O521 C523 1.240 . S
O522 Co495 2.096 . S
O522 C503 1.247 . S
C523 O520 1.244 . S
C523 O521 1.240 . S
H524 C498 0.931 . S
H525 C507 0.931 . S
H526 C511 0.929 . S
H527 C513 0.930 . S
Co528 N532 2.148 . S
Co528 N538 2.128 . S
Co528 N548 2.194 . S
Co528 O553 2.351 . S
Co528 O554 2.155 . S
Co528 O555 2.096 . S
C529 N532 1.301 . S
C529 N533 1.328 . S
C529 H534 0.930 . S
C530 C531 1.333 . S
C530 N532 1.317 . S
C530 H535 0.930 . S
C531 C530 1.333 . S
C531 N533 1.350 . S
C531 H557 0.931 . S
N532 Co528 2.148 . S
N532 C529 1.301 . S
N532 C530 1.317 . S
N533 C529 1.328 . S
N533 C531 1.350 . S
H534 C529 0.930 . S
H535 C530 0.930 . S
C536 O537 1.224 . S
C536 O555 1.247 . S
O537 C536 1.224 . S
N538 Co528 2.128 . S
N538 C539 1.355 . S
N538 C541 1.311 . S
C539 N538 1.355 . S
C539 C540 1.363 . S
C539 H551 0.929 . S
C540 C539 1.363 . S
C540 N542 1.375 . S
C540 H558 0.931 . S
C541 N538 1.311 . S
C541 N542 1.347 . S
C541 H552 0.929 . S
N542 C540 1.375 . S
N542 C541 1.347 . S
C543 C546 1.365 . S
C543 N548 1.328 . S
C543 H549 0.929 . S
C544 C545 1.362 . S
C544 C547 1.378 . S
C544 H559 0.929 . S
C545 C544 1.362 . S
C545 C546 1.366 . S
C546 C543 1.365 . S
C546 C545 1.366 . S
C546 H560 0.930 . S
C547 C544 1.378 . S
C547 N548 1.315 . S
C547 H550 0.930 . S
N548 Co528 2.194 . S
N548 C543 1.328 . S
N548 C547 1.315 . S
H549 C543 0.929 . S
H550 C547 0.930 . S
H551 C539 0.929 . S
H552 C541 0.929 . S
O553 Co528 2.351 . S
O553 C556 1.244 . S
O554 Co528 2.155 . S
O554 C556 1.240 . S
O555 Co528 2.096 . S
O555 C536 1.247 . S
C556 O553 1.244 . S
C556 O554 1.240 . S
H557 C531 0.931 . S
H558 C540 0.931 . S
H559 C544 0.929 . S
H560 C546 0.930 . S
Co561 N565 2.148 . S
Co561 N571 2.128 . S
Co561 N581 2.194 . S
Co561 O586 2.351 . S
Co561 O587 2.155 . S
Co561 O588 2.096 1_545 S
C562 N565 1.301 . S
C562 N566 1.328 . S
C562 H567 0.930 . S
C563 C564 1.333 . S
C563 N565 1.317 . S
C563 H568 0.930 1_545 S
C564 C563 1.333 . S
C564 N566 1.350 . S
C564 H590 0.931 . S
N565 Co561 2.148 . S
N565 C562 1.301 . S
N565 C563 1.317 . S
N566 C562 1.328 . S
N566 C564 1.350 . S
H567 C562 0.930 . S
H568 C563 0.930 1_565 S
C569 O570 1.224 . S
C569 O588 1.247 . S
O570 C569 1.224 . S
N571 Co561 2.128 . S
N571 C572 1.355 . S
N571 C574 1.311 . S
C572 N571 1.355 . S
C572 C573 1.363 . S
C572 H584 0.929 . S
C573 C572 1.363 . S
C573 N575 1.375 . S
C573 H591 0.931 . S
C574 N571 1.311 . S
C574 N575 1.347 . S
C574 H585 0.929 1_545 S
N575 C573 1.375 . S
N575 C574 1.347 . S
C576 C579 1.365 . S
C576 N581 1.328 . S
C576 H582 0.929 . S
C577 C578 1.362 . S
C577 C580 1.378 . S
C577 H592 0.929 1_545 S
C578 C577 1.362 . S
C578 C579 1.366 . S
C579 C576 1.365 . S
C579 C578 1.366 . S
C579 H593 0.930 . S
C580 C577 1.378 . S
C580 N581 1.315 . S
C580 H583 0.930 1_545 S
N581 Co561 2.194 . S
N581 C576 1.328 . S
N581 C580 1.315 . S
H582 C576 0.929 . S
H583 C580 0.930 1_565 S
H584 C572 0.929 . S
H585 C574 0.929 1_565 S
O586 Co561 2.351 . S
O586 C589 1.244 . S
O587 Co561 2.155 . S
O587 C589 1.240 . S
O588 Co561 2.096 1_565 S
O588 C569 1.247 . S
C589 O586 1.244 . S
C589 O587 1.240 . S
H590 C564 0.931 . S
H591 C573 0.931 . S
H592 C577 0.929 1_565 S
H593 C579 0.930 . S
Co594 N598 2.148 . S
Co594 N604 2.128 . S
Co594 N614 2.194 . S
Co594 O619 2.351 1_545 S
Co594 O620 2.155 1_545 S
Co594 O621 2.096 . S
C595 N598 1.301 . S
C595 N599 1.328 . S
C595 H600 0.930 1_545 S
C596 C597 1.333 . S
C596 N598 1.317 . S
C596 H601 0.930 . S
C597 C596 1.333 . S
C597 N599 1.350 . S
C597 H623 0.931 . S
N598 Co594 2.148 . S
N598 C595 1.301 . S
N598 C596 1.317 . S
N599 C595 1.328 . S
N599 C597 1.350 . S
H600 C595 0.930 1_565 S
H601 C596 0.930 . S
C602 O603 1.224 . S
C602 O621 1.247 . S
O603 C602 1.224 . S
N604 Co594 2.128 . S
N604 C605 1.355 . S
N604 C607 1.311 . S
C605 N604 1.355 . S
C605 C606 1.363 . S
C605 H617 0.929 . S
C606 C605 1.363 . S
C606 N608 1.375 . S
C606 H624 0.931 . S
C607 N604 1.311 . S
C607 N608 1.347 . S
C607 H618 0.929 . S
N608 C606 1.375 . S
N608 C607 1.347 . S
C609 C612 1.365 . S
C609 N614 1.328 . S
C609 H615 0.929 1_545 S
C610 C611 1.362 . S
C610 C613 1.378 . S
C610 H625 0.929 . S
C611 C610 1.362 . S
C611 C612 1.366 . S
C612 C609 1.365 . S
C612 C611 1.366 . S
C612 H626 0.930 1_545 S
C613 C610 1.378 . S
C613 N614 1.315 . S
C613 H616 0.930 . S
N614 Co594 2.194 . S
N614 C609 1.328 . S
N614 C613 1.315 . S
H615 C609 0.929 1_565 S
H616 C613 0.930 . S
H617 C605 0.929 . S
H618 C607 0.929 . S
O619 Co594 2.351 1_565 S
O619 C622 1.244 . S
O620 Co594 2.155 1_565 S
O620 C622 1.240 . S
O621 Co594 2.096 . S
O621 C602 1.247 . S
C622 O619 1.244 . S
C622 O620 1.240 . S
H623 C597 0.931 . S
H624 C606 0.931 . S
H625 C610 0.929 . S
H626 C612 0.930 1_565 S
Co627 N631 2.148 . S
Co627 N637 2.128 . S
Co627 N647 2.194 . S
Co627 O652 2.351 . S
Co627 O653 2.155 . S
Co627 O654 2.096 . S
C628 N631 1.301 . S
C628 N632 1.328 . S
C628 H633 0.930 . S
C629 C630 1.333 . S
C629 N631 1.317 . S
C629 H634 0.930 . S
C630 C629 1.333 . S
C630 N632 1.350 . S
C630 H656 0.931 . S
N631 Co627 2.148 . S
N631 C628 1.301 . S
N631 C629 1.317 . S
N632 C628 1.328 . S
N632 C630 1.350 . S
H633 C628 0.930 . S
H634 C629 0.930 . S
C635 O636 1.224 . S
C635 O654 1.247 . S
O636 C635 1.224 . S
N637 Co627 2.128 . S
N637 C638 1.355 . S
N637 C640 1.311 . S
C638 N637 1.355 . S
C638 C639 1.363 . S
C638 H650 0.929 . S
C639 C638 1.363 . S
C639 N641 1.375 . S
C639 H657 0.931 . S
C640 N637 1.311 . S
C640 N641 1.347 . S
C640 H651 0.929 . S
N641 C639 1.375 . S
N641 C640 1.347 . S
C642 C645 1.365 . S
C642 N647 1.328 . S
C642 H648 0.929 . S
C643 C644 1.362 . S
C643 C646 1.378 . S
C643 H658 0.929 . S
C644 C643 1.362 . S
C644 C645 1.366 . S
C645 C642 1.365 . S
C645 C644 1.366 . S
C645 H659 0.930 . S
C646 C643 1.378 . S
C646 N647 1.315 . S
C646 H649 0.930 . S
N647 Co627 2.194 . S
N647 C642 1.328 . S
N647 C646 1.315 . S
H648 C642 0.929 . S
H649 C646 0.930 . S
H650 C638 0.929 . S
H651 C640 0.929 . S
O652 Co627 2.351 . S
O652 C655 1.244 . S
O653 Co627 2.155 . S
O653 C655 1.240 . S
O654 Co627 2.096 . S
O654 C635 1.247 . S
C655 O652 1.244 . S
C655 O653 1.240 . S
H656 C630 0.931 . S
H657 C639 0.931 . S
H658 C643 0.929 . S
H659 C645 0.930 . S
Co660 N664 2.148 . S
Co660 N670 2.128 . S
Co660 N680 2.194 . S
Co660 O685 2.351 . S
Co660 O686 2.155 . S
Co660 O687 2.096 . S
C661 N664 1.301 . S
C661 N665 1.328 . S
C661 H666 0.930 . S
C662 C663 1.333 . S
C662 N664 1.317 . S
C662 H667 0.930 . S
C663 C662 1.333 . S
C663 N665 1.350 . S
C663 H689 0.931 . S
N664 Co660 2.148 . S
N664 C661 1.301 . S
N664 C662 1.317 . S
N665 C661 1.328 . S
N665 C663 1.350 . S
H666 C661 0.930 . S
H667 C662 0.930 . S
C668 O669 1.224 . S
C668 O687 1.247 . S
O669 C668 1.224 . S
N670 Co660 2.128 . S
N670 C671 1.355 . S
N670 C673 1.311 . S
C671 N670 1.355 . S
C671 C672 1.363 . S
C671 H683 0.929 . S
C672 C671 1.363 . S
C672 N674 1.375 . S
C672 H690 0.931 . S
C673 N670 1.311 . S
C673 N674 1.347 . S
C673 H684 0.929 . S
N674 C672 1.375 . S
N674 C673 1.347 . S
C675 C678 1.365 . S
C675 N680 1.328 . S
C675 H681 0.929 . S
C676 C677 1.362 . S
C676 C679 1.378 . S
C676 H691 0.929 . S
C677 C676 1.362 . S
C677 C678 1.366 . S
C678 C675 1.365 . S
C678 C677 1.366 . S
C678 H692 0.930 . S
C679 C676 1.378 . S
C679 N680 1.315 . S
C679 H682 0.930 . S
N680 Co660 2.194 . S
N680 C675 1.328 . S
N680 C679 1.315 . S
H681 C675 0.929 . S
H682 C679 0.930 . S
H683 C671 0.929 . S
H684 C673 0.929 . S
O685 Co660 2.351 . S
O685 C688 1.244 . S
O686 Co660 2.155 . S
O686 C688 1.240 . S
O687 Co660 2.096 . S
O687 C668 1.247 . S
C688 O685 1.244 . S
C688 O686 1.240 . S
H689 C663 0.931 . S
H690 C672 0.931 . S
H691 C676 0.929 . S
H692 C678 0.930 . S
Co693 N697 2.148 . S
Co693 N703 2.128 . S
Co693 N713 2.194 . S
Co693 O718 2.351 . S
Co693 O719 2.155 . S
Co693 O720 2.096 1_545 S
C694 N697 1.301 . S
C694 N698 1.328 . S
C694 H699 0.930 . S
C695 C696 1.333 1_565 S
C695 N697 1.317 1_565 S
C695 H700 0.930 . S
C696 C695 1.333 1_545 S
C696 N698 1.350 . S
C696 H722 0.931 1_545 S
N697 Co693 2.148 . S
N697 C694 1.301 . S
N697 C695 1.317 1_545 S
N698 C694 1.328 . S
N698 C696 1.350 . S
H699 C694 0.930 . S
H700 C695 0.930 . S
C701 O702 1.224 . S
C701 O720 1.247 . S
O702 C701 1.224 . S
N703 Co693 2.128 . S
N703 C704 1.355 . S
N703 C706 1.311 1_545 S
C704 N703 1.355 . S
C704 C705 1.363 . S
C704 H716 0.929 . S
C705 C704 1.363 . S
C705 N707 1.375 1_545 S
C705 H723 0.931 . S
C706 N703 1.311 1_565 S
C706 N707 1.347 . S
C706 H717 0.929 . S
N707 C705 1.375 1_565 S
N707 C706 1.347 . S
C708 C711 1.365 . S
C708 N713 1.328 . S
C708 H714 0.929 . S
C709 C710 1.362 . S
C709 C712 1.378 . S
C709 H724 0.929 . S
C710 C709 1.362 . S
C710 C711 1.366 1_565 S
C711 C708 1.365 . S
C711 C710 1.366 1_545 S
C711 H725 0.930 . S
C712 C709 1.378 . S
C712 N713 1.315 1_565 S
C712 H715 0.930 . S
N713 Co693 2.194 . S
N713 C708 1.328 . S
N713 C712 1.315 1_545 S
H714 C708 0.929 . S
H715 C712 0.930 . S
H716 C704 0.929 . S
H717 C706 0.929 . S
O718 Co693 2.351 . S
O718 C721 1.244 . S
O719 Co693 2.155 . S
O719 C721 1.240 . S
O720 Co693 2.096 1_565 S
O720 C701 1.247 . S
C721 O718 1.244 . S
C721 O719 1.240 . S
H722 C696 0.931 1_565 S
H723 C705 0.931 . S
H724 C709 0.929 . S
H725 C711 0.930 . S
Co726 N730 2.148 . S
Co726 N736 2.128 . S
Co726 N746 2.194 . S
Co726 O751 2.351 . S
Co726 O752 2.155 . S
Co726 O753 2.096 1_545 S
C727 N730 1.301 . S
C727 N731 1.328 . S
C727 H732 0.930 . S
C728 C729 1.333 1_565 S
C728 N730 1.317 1_565 S
C728 H733 0.930 . S
C729 C728 1.333 1_545 S
C729 N731 1.350 . S
C729 H755 0.931 1_545 S
N730 Co726 2.148 . S
N730 C727 1.301 . S
N730 C728 1.317 1_545 S
N731 C727 1.328 . S
N731 C729 1.350 . S
H732 C727 0.930 . S
H733 C728 0.930 . S
C734 O735 1.224 . S
C734 O753 1.247 . S
O735 C734 1.224 . S
N736 Co726 2.128 . S
N736 C737 1.355 . S
N736 C739 1.311 1_545 S
C737 N736 1.355 . S
C737 C738 1.363 . S
C737 H749 0.929 . S
C738 C737 1.363 . S
C738 N740 1.375 1_545 S
C738 H756 0.931 . S
C739 N736 1.311 1_565 S
C739 N740 1.347 . S
C739 H750 0.929 . S
N740 C738 1.375 1_565 S
N740 C739 1.347 . S
C741 C744 1.365 . S
C741 N746 1.328 . S
C741 H747 0.929 . S
C742 C743 1.362 . S
C742 C745 1.378 . S
C742 H757 0.929 . S
C743 C742 1.362 . S
C743 C744 1.366 1_565 S
C744 C741 1.365 . S
C744 C743 1.366 1_545 S
C744 H758 0.930 . S
C745 C742 1.378 . S
C745 N746 1.315 1_565 S
C745 H748 0.930 . S
N746 Co726 2.194 . S
N746 C741 1.328 . S
N746 C745 1.315 1_545 S
H747 C741 0.929 . S
H748 C745 0.930 . S
H749 C737 0.929 . S
H750 C739 0.929 . S
O751 Co726 2.351 . S
O751 C754 1.244 . S
O752 Co726 2.155 . S
O752 C754 1.240 . S
O753 Co726 2.096 1_565 S
O753 C734 1.247 . S
C754 O751 1.244 . S
C754 O752 1.240 . S
H755 C729 0.931 1_565 S
H756 C738 0.931 . S
H757 C742 0.929 . S
H758 C744 0.930 . S
Co759 N763 2.148 . S
Co759 N769 2.128 . S
Co759 N779 2.194 . S
Co759 O784 2.351 . S
Co759 O785 2.155 . S
Co759 O786 2.096 . S
C760 N763 1.301 . S
C760 N764 1.328 . S
C760 H765 0.930 . S
C761 C762 1.333 . S
C761 N763 1.317 . S
C761 H766 0.930 . S
C762 C761 1.333 . S
C762 N764 1.350 . S
C762 H788 0.931 . S
N763 Co759 2.148 . S
N763 C760 1.301 . S
N763 C761 1.317 . S
N764 C760 1.328 . S
N764 C762 1.350 . S
H765 C760 0.930 . S
H766 C761 0.930 . S
C767 O768 1.224 . S
C767 O786 1.247 . S
O768 C767 1.224 . S
N769 Co759 2.128 . S
N769 C770 1.355 . S
N769 C772 1.311 . S
C770 N769 1.355 . S
C770 C771 1.363 . S
C770 H782 0.929 . S
C771 C770 1.363 . S
C771 N773 1.375 . S
C771 H789 0.931 . S
C772 N769 1.311 . S
C772 N773 1.347 . S
C772 H783 0.929 . S
N773 C771 1.375 . S
N773 C772 1.347 . S
C774 C777 1.365 . S
C774 N779 1.328 . S
C774 H780 0.929 . S
C775 C776 1.362 . S
C775 C778 1.378 . S
C775 H790 0.929 . S
C776 C775 1.362 . S
C776 C777 1.366 . S
C777 C774 1.365 . S
C777 C776 1.366 . S
C777 H791 0.930 . S
C778 C775 1.378 . S
C778 N779 1.315 . S
C778 H781 0.930 . S
N779 Co759 2.194 . S
N779 C774 1.328 . S
N779 C778 1.315 . S
H780 C774 0.929 . S
H781 C778 0.930 . S
H782 C770 0.929 . S
H783 C772 0.929 . S
O784 Co759 2.351 . S
O784 C787 1.244 . S
O785 Co759 2.155 . S
O785 C787 1.240 . S
O786 Co759 2.096 . S
O786 C767 1.247 . S
C787 O784 1.244 . S
C787 O785 1.240 . S
H788 C762 0.931 . S
H789 C771 0.931 . S
H790 C775 0.929 . S
H791 C777 0.930 . S
Co792 N796 2.148 1_554 S
Co792 N802 2.128 . S
Co792 N812 2.194 . S
Co792 O817 2.351 . S
Co792 O818 2.155 . S
Co792 O819 2.096 . S
C793 N796 1.301 . S
C793 N797 1.328 . S
C793 H798 0.930 . S
C794 C795 1.333 . S
C794 N796 1.317 . S
C794 H799 0.930 . S
C795 C794 1.333 . S
C795 N797 1.350 . S
C795 H821 0.931 . S
N796 Co792 2.148 1_556 S
N796 C793 1.301 . S
N796 C794 1.317 . S
N797 C793 1.328 . S
N797 C795 1.350 . S
H798 C793 0.930 . S
H799 C794 0.930 . S
C800 O801 1.224 . S
C800 O819 1.247 . S
O801 C800 1.224 . S
N802 Co792 2.128 . S
N802 C803 1.355 . S
N802 C805 1.311 . S
C803 N802 1.355 . S
C803 C804 1.363 . S
C803 H815 0.929 . S
C804 C803 1.363 . S
C804 N806 1.375 . S
C804 H822 0.931 . S
C805 N802 1.311 . S
C805 N806 1.347 . S
C805 H816 0.929 . S
N806 C804 1.375 . S
N806 C805 1.347 . S
C807 C810 1.365 . S
C807 N812 1.328 . S
C807 H813 0.929 . S
C808 C809 1.362 . S
C808 C811 1.378 . S
C808 H823 0.929 . S
C809 C808 1.362 . S
C809 C810 1.366 . S
C810 C807 1.365 . S
C810 C809 1.366 . S
C810 H824 0.930 . S
C811 C808 1.378 . S
C811 N812 1.315 . S
C811 H814 0.930 . S
N812 Co792 2.194 . S
N812 C807 1.328 . S
N812 C811 1.315 . S
H813 C807 0.929 . S
H814 C811 0.930 . S
H815 C803 0.929 . S
H816 C805 0.929 . S
O817 Co792 2.351 . S
O817 C820 1.244 . S
O818 Co792 2.155 . S
O818 C820 1.240 . S
O819 Co792 2.096 . S
O819 C800 1.247 . S
C820 O817 1.244 . S
C820 O818 1.240 . S
H821 C795 0.931 . S
H822 C804 0.931 . S
H823 C808 0.929 . S
H824 C810 0.930 . S
Co825 N829 2.148 . S
Co825 N835 2.128 1_554 S
Co825 N845 2.194 . S
Co825 O850 2.351 . S
Co825 O851 2.155 . S
Co825 O852 2.096 . S
C826 N829 1.301 . S
C826 N830 1.328 . S
C826 H831 0.930 . S
C827 C828 1.333 . S
C827 N829 1.317 . S
C827 H832 0.930 . S
C828 C827 1.333 . S
C828 N830 1.350 . S
C828 H854 0.931 . S
N829 Co825 2.148 . S
N829 C826 1.301 . S
N829 C827 1.317 . S
N830 C826 1.328 . S
N830 C828 1.350 . S
H831 C826 0.930 . S
H832 C827 0.930 . S
C833 O834 1.224 . S
C833 O852 1.247 . S
O834 C833 1.224 . S
N835 Co825 2.128 1_556 S
N835 C836 1.355 . S
N835 C838 1.311 . S
C836 N835 1.355 . S
C836 C837 1.363 . S
C836 H848 0.929 . S
C837 C836 1.363 . S
C837 N839 1.375 . S
C837 H855 0.931 . S
C838 N835 1.311 . S
C838 N839 1.347 . S
C838 H849 0.929 . S
N839 C837 1.375 . S
N839 C838 1.347 . S
C840 C843 1.365 . S
C840 N845 1.328 . S
C840 H846 0.929 . S
C841 C842 1.362 . S
C841 C844 1.378 . S
C841 H856 0.929 . S
C842 C841 1.362 . S
C842 C843 1.366 . S
C843 C840 1.365 . S
C843 C842 1.366 . S
C843 H857 0.930 . S
C844 C841 1.378 . S
C844 N845 1.315 . S
C844 H847 0.930 . S
N845 Co825 2.194 . S
N845 C840 1.328 . S
N845 C844 1.315 . S
H846 C840 0.929 . S
H847 C844 0.930 . S
H848 C836 0.929 . S
H849 C838 0.929 . S
O850 Co825 2.351 . S
O850 C853 1.244 . S
O851 Co825 2.155 . S
O851 C853 1.240 . S
O852 Co825 2.096 . S
O852 C833 1.247 . S
C853 O850 1.244 . S
C853 O851 1.240 . S
H854 C828 0.931 . S
H855 C837 0.931 . S
H856 C841 0.929 . S
H857 C843 0.930 . S
Co858 N862 2.148 . S
Co858 N868 2.128 . S
Co858 N878 2.194 . S
Co858 O883 2.351 . S
Co858 O884 2.155 . S
Co858 O885 2.096 . S
C859 N862 1.301 . S
C859 N863 1.328 . S
C859 H864 0.930 . S
C860 C861 1.333 . S
C860 N862 1.317 . S
C860 H865 0.930 . S
C861 C860 1.333 . S
C861 N863 1.350 . S
C861 H887 0.931 . S
N862 Co858 2.148 . S
N862 C859 1.301 . S
N862 C860 1.317 . S
N863 C859 1.328 . S
N863 C861 1.350 . S
H864 C859 0.930 . S
H865 C860 0.930 . S
C866 O867 1.224 . S
C866 O885 1.247 . S
O867 C866 1.224 . S
N868 Co858 2.128 . S
N868 C869 1.355 . S
N868 C871 1.311 . S
C869 N868 1.355 . S
C869 C870 1.363 . S
C869 H881 0.929 . S
C870 C869 1.363 . S
C870 N872 1.375 . S
C870 H888 0.931 . S
C871 N868 1.311 . S
C871 N872 1.347 . S
C871 H882 0.929 . S
N872 C870 1.375 . S
N872 C871 1.347 . S
C873 C876 1.365 . S
C873 N878 1.328 . S
C873 H879 0.929 . S
C874 C875 1.362 . S
C874 C877 1.378 . S
C874 H889 0.929 . S
C875 C874 1.362 . S
C875 C876 1.366 . S
C876 C873 1.365 . S
C876 C875 1.366 . S
C876 H890 0.930 . S
C877 C874 1.378 . S
C877 N878 1.315 . S
C877 H880 0.930 . S
N878 Co858 2.194 . S
N878 C873 1.328 . S
N878 C877 1.315 . S
H879 C873 0.929 . S
H880 C877 0.930 . S
H881 C869 0.929 . S
H882 C871 0.929 . S
O883 Co858 2.351 . S
O883 C886 1.244 . S
O884 Co858 2.155 . S
O884 C886 1.240 . S
O885 Co858 2.096 . S
O885 C866 1.247 . S
C886 O883 1.244 . S
C886 O884 1.240 . S
H887 C861 0.931 . S
H888 C870 0.931 . S
H889 C874 0.929 . S
H890 C876 0.930 . S
Co891 N895 2.148 . S
Co891 N901 2.128 . S
Co891 N911 2.194 . S
Co891 O916 2.351 . S
Co891 O917 2.155 . S
Co891 O918 2.096 . S
C892 N895 1.301 . S
C892 N896 1.328 . S
C892 H897 0.930 . S
C893 C894 1.333 . S
C893 N895 1.317 . S
C893 H898 0.930 . S
C894 C893 1.333 . S
C894 N896 1.350 . S
C894 H920 0.931 . S
N895 Co891 2.148 . S
N895 C892 1.301 . S
N895 C893 1.317 . S
N896 C892 1.328 . S
N896 C894 1.350 . S
H897 C892 0.930 . S
H898 C893 0.930 . S
C899 O900 1.224 . S
C899 O918 1.247 . S
O900 C899 1.224 . S
N901 Co891 2.128 . S
N901 C902 1.355 . S
N901 C904 1.311 . S
C902 N901 1.355 . S
C902 C903 1.363 . S
C902 H914 0.929 . S
C903 C902 1.363 . S
C903 N905 1.375 . S
C903 H921 0.931 . S
C904 N901 1.311 . S
C904 N905 1.347 . S
C904 H915 0.929 . S
N905 C903 1.375 . S
N905 C904 1.347 . S
C906 C909 1.365 . S
C906 N911 1.328 . S
C906 H912 0.929 . S
C907 C908 1.362 . S
C907 C910 1.378 . S
C907 H922 0.929 . S
C908 C907 1.362 . S
C908 C909 1.366 . S
C909 C906 1.365 . S
C909 C908 1.366 . S
C909 H923 0.930 . S
C910 C907 1.378 . S
C910 N911 1.315 . S
C910 H913 0.930 . S
N911 Co891 2.194 . S
N911 C906 1.328 . S
N911 C910 1.315 . S
H912 C906 0.929 . S
H913 C910 0.930 . S
H914 C902 0.929 . S
H915 C904 0.929 . S
O916 Co891 2.351 . S
O916 C919 1.244 . S
O917 Co891 2.155 . S
O917 C919 1.240 . S
O918 Co891 2.096 . S
O918 C899 1.247 . S
C919 O916 1.244 . S
C919 O917 1.240 . S
H920 C894 0.931 . S
H921 C903 0.931 . S
H922 C907 0.929 . S
H923 C909 0.930 . S
Co924 N928 2.148 . S
Co924 N934 2.128 1_554 S
Co924 N944 2.194 . S
Co924 O949 2.351 . S
Co924 O950 2.155 . S
Co924 O951 2.096 . S
C925 N928 1.301 . S
C925 N929 1.328 . S
C925 H930 0.930 . S
C926 C927 1.333 . S
C926 N928 1.317 . S
C926 H931 0.930 . S
C927 C926 1.333 . S
C927 N929 1.350 . S
C927 H953 0.931 . S
N928 Co924 2.148 . S
N928 C925 1.301 . S
N928 C926 1.317 . S
N929 C925 1.328 . S
N929 C927 1.350 . S
H930 C925 0.930 . S
H931 C926 0.930 . S
C932 O933 1.224 . S
C932 O951 1.247 . S
O933 C932 1.224 . S
N934 Co924 2.128 1_556 S
N934 C935 1.355 . S
N934 C937 1.311 . S
C935 N934 1.355 . S
C935 C936 1.363 . S
C935 H947 0.929 . S
C936 C935 1.363 . S
C936 N938 1.375 . S
C936 H954 0.931 . S
C937 N934 1.311 . S
C937 N938 1.347 . S
C937 H948 0.929 . S
N938 C936 1.375 . S
N938 C937 1.347 . S
C939 C942 1.365 . S
C939 N944 1.328 . S
C939 H945 0.929 . S
C940 C941 1.362 . S
C940 C943 1.378 . S
C940 H955 0.929 . S
C941 C940 1.362 . S
C941 C942 1.366 . S
C942 C939 1.365 . S
C942 C941 1.366 . S
C942 H956 0.930 . S
C943 C940 1.378 . S
C943 N944 1.315 . S
C943 H946 0.930 . S
N944 Co924 2.194 . S
N944 C939 1.328 . S
N944 C943 1.315 . S
H945 C939 0.929 . S
H946 C943 0.930 . S
H947 C935 0.929 . S
H948 C937 0.929 . S
O949 Co924 2.351 . S
O949 C952 1.244 . S
O950 Co924 2.155 . S
O950 C952 1.240 . S
O951 Co924 2.096 . S
O951 C932 1.247 . S
C952 O949 1.244 . S
C952 O950 1.240 . S
H953 C927 0.931 . S
H954 C936 0.931 . S
H955 C940 0.929 . S
H956 C942 0.930 . S
Co957 N961 2.148 . S
Co957 N967 2.128 1_554 S
Co957 N977 2.194 . S
Co957 O982 2.351 . S
Co957 O983 2.155 . S
Co957 O984 2.096 . S
C958 N961 1.301 . S
C958 N962 1.328 . S
C958 H963 0.930 . S
C959 C960 1.333 . S
C959 N961 1.317 . S
C959 H964 0.930 . S
C960 C959 1.333 . S
C960 N962 1.350 . S
C960 H986 0.931 . S
N961 Co957 2.148 . S
N961 C958 1.301 . S
N961 C959 1.317 . S
N962 C958 1.328 . S
N962 C960 1.350 . S
H963 C958 0.930 . S
H964 C959 0.930 . S
C965 O966 1.224 . S
C965 O984 1.247 . S
O966 C965 1.224 . S
N967 Co957 2.128 1_556 S
N967 C968 1.355 . S
N967 C970 1.311 . S
C968 N967 1.355 . S
C968 C969 1.363 . S
C968 H980 0.929 . S
C969 C968 1.363 . S
C969 N971 1.375 . S
C969 H987 0.931 . S
C970 N967 1.311 . S
C970 N971 1.347 . S
C970 H981 0.929 . S
N971 C969 1.375 . S
N971 C970 1.347 . S
C972 C975 1.365 . S
C972 N977 1.328 . S
C972 H978 0.929 . S
C973 C974 1.362 . S
C973 C976 1.378 . S
C973 H988 0.929 . S
C974 C973 1.362 . S
C974 C975 1.366 . S
C975 C972 1.365 . S
C975 C974 1.366 . S
C975 H989 0.930 . S
C976 C973 1.378 . S
C976 N977 1.315 . S
C976 H979 0.930 . S
N977 Co957 2.194 . S
N977 C972 1.328 . S
N977 C976 1.315 . S
H978 C972 0.929 . S
H979 C976 0.930 . S
H980 C968 0.929 . S
H981 C970 0.929 . S
O982 Co957 2.351 . S
O982 C985 1.244 . S
O983 Co957 2.155 . S
O983 C985 1.240 . S
O984 Co957 2.096 . S
O984 C965 1.247 . S
C985 O982 1.244 . S
C985 O983 1.240 . S
H986 C960 0.931 . S
H987 C969 0.931 . S
H988 C973 0.929 . S
H989 C975 0.930 . S
Co990 N994 2.148 . S
Co990 N1000 2.128 . S
Co990 N1010 2.194 . S
Co990 O1015 2.351 . S
Co990 O1016 2.155 . S
Co990 O1017 2.096 . S
C991 N994 1.301 . S
C991 N995 1.328 . S
C991 H996 0.930 . S
C992 C993 1.333 . S
C992 N994 1.317 . S
C992 H997 0.930 . S
C993 C992 1.333 . S
C993 N995 1.350 . S
C993 H1019 0.931 . S
N994 Co990 2.148 . S
N994 C991 1.301 . S
N994 C992 1.317 . S
N995 C991 1.328 . S
N995 C993 1.350 . S
H996 C991 0.930 . S
H997 C992 0.930 . S
C998 O999 1.224 . S
C998 O1017 1.247 . S
O999 C998 1.224 . S
N1000 Co990 2.128 . S
N1000 C1001 1.355 . S
N1000 C1003 1.311 . S
C1001 N1000 1.355 . S
C1001 C1002 1.363 . S
C1001 H1013 0.929 . S
C1002 C1001 1.363 . S
C1002 N1004 1.375 . S
C1002 H1020 0.931 . S
C1003 N1000 1.311 . S
C1003 N1004 1.347 . S
C1003 H1014 0.929 . S
N1004 C1002 1.375 . S
N1004 C1003 1.347 . S
C1005 C1008 1.365 . S
C1005 N1010 1.328 . S
C1005 H1011 0.929 . S
C1006 C1007 1.362 . S
C1006 C1009 1.378 . S
C1006 H1021 0.929 . S
C1007 C1006 1.362 . S
C1007 C1008 1.366 . S
C1008 C1005 1.365 . S
C1008 C1007 1.366 . S
C1008 H1022 0.930 . S
C1009 C1006 1.378 . S
C1009 N1010 1.315 . S
C1009 H1012 0.930 . S
N1010 Co990 2.194 . S
N1010 C1005 1.328 . S
N1010 C1009 1.315 . S
H1011 C1005 0.929 . S
H1012 C1009 0.930 . S
H1013 C1001 0.929 . S
H1014 C1003 0.929 . S
O1015 Co990 2.351 . S
O1015 C1018 1.244 . S
O1016 Co990 2.155 . S
O1016 C1018 1.240 . S
O1017 Co990 2.096 . S
O1017 C998 1.247 . S
C1018 O1015 1.244 . S
C1018 O1016 1.240 . S
H1019 C993 0.931 . S
H1020 C1002 0.931 . S
H1021 C1006 0.929 . S
H1022 C1008 0.930 . S
Co1023 N1027 2.148 . S
Co1023 N1033 2.128 . S
Co1023 N1043 2.194 . S
Co1023 O1048 2.351 . S
Co1023 O1049 2.155 . S
Co1023 O1050 2.096 . S
C1024 N1027 1.301 . S
C1024 N1028 1.328 . S
C1024 H1029 0.930 . S
C1025 C1026 1.333 . S
C1025 N1027 1.317 . S
C1025 H1030 0.930 . S
C1026 C1025 1.333 . S
C1026 N1028 1.350 . S
C1026 H1052 0.931 . S
N1027 Co1023 2.148 . S
N1027 C1024 1.301 . S
N1027 C1025 1.317 . S
N1028 C1024 1.328 . S
N1028 C1026 1.350 . S
H1029 C1024 0.930 . S
H1030 C1025 0.930 . S
C1031 O1032 1.224 . S
C1031 O1050 1.247 . S
O1032 C1031 1.224 . S
N1033 Co1023 2.128 . S
N1033 C1034 1.355 . S
N1033 C1036 1.311 . S
C1034 N1033 1.355 . S
C1034 C1035 1.363 . S
C1034 H1046 0.929 . S
C1035 C1034 1.363 . S
C1035 N1037 1.375 . S
C1035 H1053 0.931 . S
C1036 N1033 1.311 . S
C1036 N1037 1.347 . S
C1036 H1047 0.929 . S
N1037 C1035 1.375 . S
N1037 C1036 1.347 . S
C1038 C1041 1.365 . S
C1038 N1043 1.328 . S
C1038 H1044 0.929 . S
C1039 C1040 1.362 . S
C1039 C1042 1.378 . S
C1039 H1054 0.929 . S
C1040 C1039 1.362 . S
C1040 C1041 1.366 . S
C1041 C1038 1.365 . S
C1041 C1040 1.366 . S
C1041 H1055 0.930 . S
C1042 C1039 1.378 . S
C1042 N1043 1.315 . S
C1042 H1045 0.930 . S
N1043 Co1023 2.194 . S
N1043 C1038 1.328 . S
N1043 C1042 1.315 . S
H1044 C1038 0.929 . S
H1045 C1042 0.930 . S
H1046 C1034 0.929 . S
H1047 C1036 0.929 . S
O1048 Co1023 2.351 . S
O1048 C1051 1.244 . S
O1049 Co1023 2.155 . S
O1049 C1051 1.240 . S
O1050 Co1023 2.096 . S
O1050 C1031 1.247 . S
C1051 O1048 1.244 . S
C1051 O1049 1.240 . S
H1052 C1026 0.931 . S
H1053 C1035 0.931 . S
H1054 C1039 0.929 . S
H1055 C1041 0.930 . S
H1056 C1062 0.930 . S
H1057 C1065 0.930 . S
H1058 C1066 0.930 . S
H1059 C1067 0.930 . S
H1060 C1070 0.930 . S
H1061 C1071 0.930 . S
C1062 H1056 0.930 . S
C1062 C1063 1.355 . S
C1062 C1064 1.415 . S
C1063 C1062 1.355 . S
C1063 C1065 1.419 . S
C1064 C1062 1.415 . S
C1064 C1069 1.425 . S
C1064 C1071 1.409 . S
C1065 H1057 0.930 . S
C1065 C1063 1.419 . S
C1065 C1066 1.362 . S
C1066 H1058 0.930 . S
C1066 C1065 1.362 . S
C1066 C1069 1.409 . S
C1067 H1059 0.930 . S
C1067 C1068 1.355 . S
C1067 C1069 1.415 . S
C1068 C1067 1.355 . S
C1068 C1070 1.419 . S
C1069 C1064 1.425 . S
C1069 C1066 1.409 . S
C1069 C1067 1.415 . S
C1070 H1060 0.930 . S
C1070 C1068 1.419 . S
C1070 C1071 1.362 . S
C1071 H1061 0.930 . S
C1071 C1064 1.409 . S
C1071 C1070 1.362 . S
H1072 C1078 0.930 . S
H1073 C1081 0.930 . S
H1074 C1082 0.930 . S
H1075 C1083 0.930 . S
H1076 C1086 0.930 . S
H1077 C1087 0.930 . S
C1078 H1072 0.930 . S
C1078 C1079 1.355 . S
C1078 C1080 1.415 . S
C1079 C1078 1.355 . S
C1079 C1081 1.419 . S
C1080 C1078 1.415 . S
C1080 C1085 1.425 . S
C1080 C1087 1.409 . S
C1081 H1073 0.930 . S
C1081 C1079 1.419 . S
C1081 C1082 1.362 . S
C1082 H1074 0.930 . S
C1082 C1081 1.362 . S
C1082 C1085 1.409 . S
C1083 H1075 0.930 . S
C1083 C1084 1.355 . S
C1083 C1085 1.415 . S
C1084 C1083 1.355 . S
C1084 C1086 1.419 . S
C1085 C1080 1.425 . S
C1085 C1082 1.409 . S
C1085 C1083 1.415 . S
C1086 H1076 0.930 . S
C1086 C1084 1.419 . S
C1086 C1087 1.362 . S
C1087 H1077 0.930 . S
C1087 C1080 1.409 . S
C1087 C1086 1.362 . S
H1088 C1094 0.930 1_545 S
H1089 C1097 0.930 . S
H1090 C1098 0.930 . S
H1091 C1099 0.930 . S
H1092 C1102 0.930 . S
H1093 C1103 0.930 1_545 S
C1094 H1088 0.930 1_565 S
C1094 C1095 1.355 . S
C1094 C1096 1.415 . S
C1095 C1094 1.355 . S
C1095 C1097 1.419 . S
C1096 C1094 1.415 . S
C1096 C1101 1.425 . S
C1096 C1103 1.409 . S
C1097 H1089 0.930 . S
C1097 C1095 1.419 . S
C1097 C1098 1.362 . S
C1098 H1090 0.930 . S
C1098 C1097 1.362 . S
C1098 C1101 1.409 . S
C1099 H1091 0.930 . S
C1099 C1100 1.355 . S
C1099 C1101 1.415 . S
C1100 C1099 1.355 . S
C1100 C1102 1.419 . S
C1101 C1096 1.425 . S
C1101 C1098 1.409 . S
C1101 C1099 1.415 . S
C1102 H1092 0.930 . S
C1102 C1100 1.419 . S
C1102 C1103 1.362 . S
C1103 H1093 0.930 1_565 S
C1103 C1096 1.409 . S
C1103 C1102 1.362 . S
H1104 C1110 0.930 . S
H1105 C1113 0.930 . S
H1106 C1114 0.930 . S
H1107 C1115 0.930 . S
H1108 C1118 0.930 . S
H1109 C1119 0.930 . S
C1110 H1104 0.930 . S
C1110 C1111 1.355 . S
C1110 C1112 1.415 . S
C1111 C1110 1.355 . S
C1111 C1113 1.419 . S
C1112 C1110 1.415 . S
C1112 C1117 1.425 . S
C1112 C1119 1.409 . S
C1113 H1105 0.930 . S
C1113 C1111 1.419 . S
C1113 C1114 1.362 . S
C1114 H1106 0.930 . S
C1114 C1113 1.362 . S
C1114 C1117 1.409 . S
C1115 H1107 0.930 . S
C1115 C1116 1.355 . S
C1115 C1117 1.415 . S
C1116 C1115 1.355 . S
C1116 C1118 1.419 . S
C1117 C1112 1.425 . S
C1117 C1114 1.409 . S
C1117 C1115 1.415 . S
C1118 H1108 0.930 . S
C1118 C1116 1.419 . S
C1118 C1119 1.362 . S
C1119 H1109 0.930 . S
C1119 C1112 1.409 . S
C1119 C1118 1.362 . S
H1120 C1126 0.930 . S
H1121 C1129 0.930 . S
H1122 C1130 0.930 . S
H1123 C1131 0.930 . S
H1124 C1134 0.930 . S
H1125 C1135 0.930 . S
C1126 H1120 0.930 . S
C1126 C1127 1.355 . S
C1126 C1128 1.415 . S
C1127 C1126 1.355 . S
C1127 C1129 1.419 . S
C1128 C1126 1.415 . S
C1128 C1133 1.425 . S
C1128 C1135 1.409 . S
C1129 H1121 0.930 . S
C1129 C1127 1.419 . S
C1129 C1130 1.362 . S
C1130 H1122 0.930 . S
C1130 C1129 1.362 . S
C1130 C1133 1.409 . S
C1131 H1123 0.930 . S
C1131 C1132 1.355 . S
C1131 C1133 1.415 . S
C1132 C1131 1.355 . S
C1132 C1134 1.419 . S
C1133 C1128 1.425 . S
C1133 C1130 1.409 . S
C1133 C1131 1.415 . S
C1134 H1124 0.930 . S
C1134 C1132 1.419 . S
C1134 C1135 1.362 . S
C1135 H1125 0.930 . S
C1135 C1128 1.409 . S
C1135 C1134 1.362 . S
H1136 C1142 0.930 . S
H1137 C1145 0.930 . S
H1138 C1146 0.930 . S
H1139 C1147 0.930 . S
H1140 C1150 0.930 . S
H1141 C1151 0.930 . S
C1142 H1136 0.930 . S
C1142 C1143 1.355 . S
C1142 C1144 1.415 . S
C1143 C1142 1.355 . S
C1143 C1145 1.419 . S
C1144 C1142 1.415 . S
C1144 C1149 1.425 . S
C1144 C1151 1.409 . S
C1145 H1137 0.930 . S
C1145 C1143 1.419 . S
C1145 C1146 1.362 . S
C1146 H1138 0.930 . S
C1146 C1145 1.362 . S
C1146 C1149 1.409 . S
C1147 H1139 0.930 . S
C1147 C1148 1.355 . S
C1147 C1149 1.415 . S
C1148 C1147 1.355 . S
C1148 C1150 1.419 . S
C1149 C1144 1.425 . S
C1149 C1146 1.409 . S
C1149 C1147 1.415 . S
C1150 H1140 0.930 . S
C1150 C1148 1.419 . S
C1150 C1151 1.362 . S
C1151 H1141 0.930 . S
C1151 C1144 1.409 . S
C1151 C1150 1.362 . S
H1152 C1158 0.930 . S
H1153 C1161 0.930 . S
H1154 C1162 0.930 . S
H1155 C1163 0.930 . S
H1156 C1166 0.930 . S
H1157 C1167 0.930 . S
C1158 H1152 0.930 . S
C1158 C1159 1.355 . S
C1158 C1160 1.415 . S
C1159 C1158 1.355 . S
C1159 C1161 1.419 . S
C1160 C1158 1.415 . S
C1160 C1165 1.425 . S
C1160 C1167 1.409 . S
C1161 H1153 0.930 . S
C1161 C1159 1.419 . S
C1161 C1162 1.362 . S
C1162 H1154 0.930 . S
C1162 C1161 1.362 . S
C1162 C1165 1.409 . S
C1163 H1155 0.930 . S
C1163 C1164 1.355 . S
C1163 C1165 1.415 . S
C1164 C1163 1.355 . S
C1164 C1166 1.419 . S
C1165 C1160 1.425 . S
C1165 C1162 1.409 . S
C1165 C1163 1.415 . S
C1166 H1156 0.930 . S
C1166 C1164 1.419 . S
C1166 C1167 1.362 . S
C1167 H1157 0.930 . S
C1167 C1160 1.409 . S
C1167 C1166 1.362 . S
H1168 C1174 0.930 . S
H1169 C1177 0.930 . S
H1170 C1178 0.930 . S
H1171 C1179 0.930 . S
H1172 C1182 0.930 . S
H1173 C1183 0.930 . S
C1174 H1168 0.930 . S
C1174 C1175 1.355 . S
C1174 C1176 1.415 . S
C1175 C1174 1.355 . S
C1175 C1177 1.419 . S
C1176 C1174 1.415 . S
C1176 C1181 1.425 . S
C1176 C1183 1.409 . S
C1177 H1169 0.930 . S
C1177 C1175 1.419 . S
C1177 C1178 1.362 . S
C1178 H1170 0.930 . S
C1178 C1177 1.362 . S
C1178 C1181 1.409 . S
C1179 H1171 0.930 . S
C1179 C1180 1.355 . S
C1179 C1181 1.415 . S
C1180 C1179 1.355 . S
C1180 C1182 1.419 . S
C1181 C1176 1.425 . S
C1181 C1178 1.409 . S
C1181 C1179 1.415 . S
C1182 H1172 0.930 . S
C1182 C1180 1.419 . S
C1182 C1183 1.362 . S
C1183 H1173 0.930 . S
C1183 C1176 1.409 . S
C1183 C1182 1.362 . S
H1184 C1190 0.930 . S
H1185 C1193 0.930 . S
H1186 C1194 0.930 . S
H1187 C1195 0.930 . S
H1188 C1198 0.930 . S
H1189 C1199 0.930 . S
C1190 H1184 0.930 . S
C1190 C1191 1.355 . S
C1190 C1192 1.415 . S
C1191 C1190 1.355 . S
C1191 C1193 1.419 . S
C1192 C1190 1.415 . S
C1192 C1197 1.425 . S
C1192 C1199 1.409 . S
C1193 H1185 0.930 . S
C1193 C1191 1.419 . S
C1193 C1194 1.362 . S
C1194 H1186 0.930 . S
C1194 C1193 1.362 . S
C1194 C1197 1.409 . S
C1195 H1187 0.930 . S
C1195 C1196 1.355 . S
C1195 C1197 1.415 . S
C1196 C1195 1.355 . S
C1196 C1198 1.419 . S
C1197 C1192 1.425 . S
C1197 C1194 1.409 . S
C1197 C1195 1.415 . S
C1198 H1188 0.930 . S
C1198 C1196 1.419 . S
C1198 C1199 1.362 . S
C1199 H1189 0.930 . S
C1199 C1192 1.409 . S
C1199 C1198 1.362 . S
H1200 C1206 0.930 . S
H1201 C1209 0.930 . S
H1202 C1210 0.930 . S
H1203 C1211 0.930 . S
H1204 C1214 0.930 . S
H1205 C1215 0.930 . S
C1206 H1200 0.930 . S
C1206 C1207 1.355 . S
C1206 C1208 1.415 . S
C1207 C1206 1.355 . S
C1207 C1209 1.419 . S
C1208 C1206 1.415 . S
C1208 C1213 1.425 . S
C1208 C1215 1.409 . S
C1209 H1201 0.930 . S
C1209 C1207 1.419 . S
C1209 C1210 1.362 . S
C1210 H1202 0.930 . S
C1210 C1209 1.362 . S
C1210 C1213 1.409 . S
C1211 H1203 0.930 . S
C1211 C1212 1.355 . S
C1211 C1213 1.415 . S
C1212 C1211 1.355 . S
C1212 C1214 1.419 . S
C1213 C1208 1.425 . S
C1213 C1210 1.409 . S
C1213 C1211 1.415 . S
C1214 H1204 0.930 . S
C1214 C1212 1.419 . S
C1214 C1215 1.362 . S
C1215 H1205 0.930 . S
C1215 C1208 1.409 . S
C1215 C1214 1.362 . S
H1216 C1222 0.930 . S
H1217 C1225 0.930 . S
H1218 C1226 0.930 . S
H1219 C1227 0.930 . S
H1220 C1230 0.930 1_545 S
H1221 C1231 0.930 1_545 S
C1222 H1216 0.930 . S
C1222 C1223 1.355 . S
C1222 C1224 1.415 . S
C1223 C1222 1.355 . S
C1223 C1225 1.419 . S
C1224 C1222 1.415 . S
C1224 C1229 1.425 . S
C1224 C1231 1.409 . S
C1225 H1217 0.930 . S
C1225 C1223 1.419 . S
C1225 C1226 1.362 . S
C1226 H1218 0.930 . S
C1226 C1225 1.362 . S
C1226 C1229 1.409 . S
C1227 H1219 0.930 . S
C1227 C1228 1.355 . S
C1227 C1229 1.415 . S
C1228 C1227 1.355 . S
C1228 C1230 1.419 . S
C1229 C1224 1.425 . S
C1229 C1226 1.409 . S
C1229 C1227 1.415 . S
C1230 H1220 0.930 1_565 S
C1230 C1228 1.419 . S
C1230 C1231 1.362 . S
C1231 H1221 0.930 1_565 S
C1231 C1224 1.409 . S
C1231 C1230 1.362 . S
H1232 C1238 0.930 . S
H1233 C1241 0.930 . S
H1234 C1242 0.930 . S
H1235 C1243 0.930 . S
H1236 C1246 0.930 . S
H1237 C1247 0.930 . S
C1238 H1232 0.930 . S
C1238 C1239 1.355 . S
C1238 C1240 1.415 . S
C1239 C1238 1.355 . S
C1239 C1241 1.419 . S
C1240 C1238 1.415 . S
C1240 C1245 1.425 . S
C1240 C1247 1.409 . S
C1241 H1233 0.930 . S
C1241 C1239 1.419 . S
C1241 C1242 1.362 . S
C1242 H1234 0.930 . S
C1242 C1241 1.362 . S
C1242 C1245 1.409 . S
C1243 H1235 0.930 . S
C1243 C1244 1.355 . S
C1243 C1245 1.415 . S
C1244 C1243 1.355 . S
C1244 C1246 1.419 . S
C1245 C1240 1.425 . S
C1245 C1242 1.409 . S
C1245 C1243 1.415 . S
C1246 H1236 0.930 . S
C1246 C1244 1.419 . S
C1246 C1247 1.362 . S
C1247 H1237 0.930 . S
C1247 C1240 1.409 . S
C1247 C1246 1.362 . S
H1248 C1254 0.930 . S
H1249 C1257 0.930 . S
H1250 C1258 0.930 . S
H1251 C1259 0.930 . S
H1252 C1262 0.930 . S
H1253 C1263 0.930 . S
C1254 H1248 0.930 . S
C1254 C1255 1.355 . S
C1254 C1256 1.415 . S
C1255 C1254 1.355 . S
C1255 C1257 1.419 . S
C1256 C1254 1.415 . S
C1256 C1261 1.425 . S
C1256 C1263 1.409 . S
C1257 H1249 0.930 . S
C1257 C1255 1.419 . S
C1257 C1258 1.362 . S
C1258 H1250 0.930 . S
C1258 C1257 1.362 . S
C1258 C1261 1.409 . S
C1259 H1251 0.930 . S
C1259 C1260 1.355 . S
C1259 C1261 1.415 . S
C1260 C1259 1.355 . S
C1260 C1262 1.419 . S
C1261 C1256 1.425 . S
C1261 C1258 1.409 . S
C1261 C1259 1.415 . S
C1262 H1252 0.930 . S
C1262 C1260 1.419 . S
C1262 C1263 1.362 . S
C1263 H1253 0.930 . S
C1263 C1256 1.409 . S
C1263 C1262 1.362 . S
H1264 C1270 0.930 . S
H1265 C1273 0.930 . S
H1266 C1274 0.930 . S
H1267 C1275 0.930 . S
H1268 C1278 0.930 . S
H1269 C1279 0.930 . S
C1270 H1264 0.930 . S
C1270 C1271 1.355 . S
C1270 C1272 1.415 . S
C1271 C1270 1.355 . S
C1271 C1273 1.419 . S
C1272 C1270 1.415 . S
C1272 C1277 1.425 . S
C1272 C1279 1.409 . S
C1273 H1265 0.930 . S
C1273 C1271 1.419 . S
C1273 C1274 1.362 . S
C1274 H1266 0.930 . S
C1274 C1273 1.362 . S
C1274 C1277 1.409 . S
C1275 H1267 0.930 . S
C1275 C1276 1.355 . S
C1275 C1277 1.415 . S
C1276 C1275 1.355 . S
C1276 C1278 1.419 . S
C1277 C1272 1.425 . S
C1277 C1274 1.409 . S
C1277 C1275 1.415 . S
C1278 H1268 0.930 . S
C1278 C1276 1.419 . S
C1278 C1279 1.362 . S
C1279 H1269 0.930 . S
C1279 C1272 1.409 . S
C1279 C1278 1.362 . S
H1280 C1286 0.930 . S
H1281 C1289 0.930 . S
H1282 C1290 0.930 . S
H1283 C1291 0.930 . S
H1284 C1294 0.930 . S
H1285 C1295 0.930 . S
C1286 H1280 0.930 . S
C1286 C1287 1.355 . S
C1286 C1288 1.415 . S
C1287 C1286 1.355 . S
C1287 C1289 1.419 . S
C1288 C1286 1.415 . S
C1288 C1293 1.425 . S
C1288 C1295 1.409 . S
C1289 H1281 0.930 . S
C1289 C1287 1.419 . S
C1289 C1290 1.362 . S
C1290 H1282 0.930 . S
C1290 C1289 1.362 . S
C1290 C1293 1.409 . S
C1291 H1283 0.930 . S
C1291 C1292 1.355 . S
C1291 C1293 1.415 . S
C1292 C1291 1.355 . S
C1292 C1294 1.419 . S
C1293 C1288 1.425 . S
C1293 C1290 1.409 . S
C1293 C1291 1.415 . S
C1294 H1284 0.930 . S
C1294 C1292 1.419 . S
C1294 C1295 1.362 . S
C1295 H1285 0.930 . S
C1295 C1288 1.409 . S
C1295 C1294 1.362 . S
H1296 C1302 0.930 . S
H1297 C1305 0.930 . S
H1298 C1306 0.930 . S
H1299 C1307 0.930 . S
H1300 C1310 0.930 . S
H1301 C1311 0.930 . S
C1302 H1296 0.930 . S
C1302 C1303 1.355 . S
C1302 C1304 1.415 . S
C1303 C1302 1.355 . S
C1303 C1305 1.419 . S
C1304 C1302 1.415 . S
C1304 C1309 1.425 . S
C1304 C1311 1.409 . S
C1305 H1297 0.930 . S
C1305 C1303 1.419 . S
C1305 C1306 1.362 . S
C1306 H1298 0.930 . S
C1306 C1305 1.362 . S
C1306 C1309 1.409 . S
C1307 H1299 0.930 . S
C1307 C1308 1.355 . S
C1307 C1309 1.415 . S
C1308 C1307 1.355 . S
C1308 C1310 1.419 . S
C1309 C1304 1.425 . S
C1309 C1306 1.409 . S
C1309 C1307 1.415 . S
C1310 H1300 0.930 . S
C1310 C1308 1.419 . S
C1310 C1311 1.362 . S
C1311 H1301 0.930 . S
C1311 C1304 1.409 . S
C1311 C1310 1.362 . S
H1312 C1318 0.930 . S
H1313 C1321 0.930 . S
H1314 C1322 0.930 . S
H1315 C1323 0.930 . S
H1316 C1326 0.930 . S
H1317 C1327 0.930 . S
C1318 H1312 0.930 . S
C1318 C1319 1.355 . S
C1318 C1320 1.415 . S
C1319 C1318 1.355 . S
C1319 C1321 1.419 . S
C1320 C1318 1.415 . S
C1320 C1325 1.425 . S
C1320 C1327 1.409 . S
C1321 H1313 0.930 . S
C1321 C1319 1.419 . S
C1321 C1322 1.362 . S
C1322 H1314 0.930 . S
C1322 C1321 1.362 . S
C1322 C1325 1.409 . S
C1323 H1315 0.930 . S
C1323 C1324 1.355 . S
C1323 C1325 1.415 . S
C1324 C1323 1.355 . S
C1324 C1326 1.419 . S
C1325 C1320 1.425 . S
C1325 C1322 1.409 . S
C1325 C1323 1.415 . S
C1326 H1316 0.930 . S
C1326 C1324 1.419 . S
C1326 C1327 1.362 . S
C1327 H1317 0.930 . S
C1327 C1320 1.409 . S
C1327 C1326 1.362 . S
H1328 C1334 0.930 . S
H1329 C1337 0.930 . S
H1330 C1338 0.930 . S
H1331 C1339 0.930 . S
H1332 C1342 0.930 . S
H1333 C1343 0.930 1_545 S
C1334 H1328 0.930 . S
C1334 C1335 1.355 . S
C1334 C1336 1.415 . S
C1335 C1334 1.355 . S
C1335 C1337 1.419 . S
C1336 C1334 1.415 . S
C1336 C1341 1.425 . S
C1336 C1343 1.409 . S
C1337 H1329 0.930 . S
C1337 C1335 1.419 . S
C1337 C1338 1.362 . S
C1338 H1330 0.930 . S
C1338 C1337 1.362 . S
C1338 C1341 1.409 . S
C1339 H1331 0.930 . S
C1339 C1340 1.355 . S
C1339 C1341 1.415 . S
C1340 C1339 1.355 . S
C1340 C1342 1.419 1_565 S
C1341 C1336 1.425 . S
C1341 C1338 1.409 . S
C1341 C1339 1.415 . S
C1342 H1332 0.930 . S
C1342 C1340 1.419 1_545 S
C1342 C1343 1.362 1_545 S
C1343 H1333 0.930 1_565 S
C1343 C1336 1.409 . S
C1343 C1342 1.362 1_565 S
H1344 C1350 0.930 . S
H1345 C1353 0.930 . S
H1346 C1354 0.930 . S
H1347 C1355 0.930 . S
H1348 C1358 0.930 . S
H1349 C1359 0.930 . S
C1350 H1344 0.930 . S
C1350 C1351 1.355 . S
C1350 C1352 1.415 . S
C1351 C1350 1.355 . S
C1351 C1353 1.419 1_565 S
C1352 C1350 1.415 . S
C1352 C1357 1.425 . S
C1352 C1359 1.409 . S
C1353 H1345 0.930 . S
C1353 C1351 1.419 1_545 S
C1353 C1354 1.362 1_545 S
C1354 H1346 0.930 . S
C1354 C1353 1.362 1_565 S
C1354 C1357 1.409 . S
C1355 H1347 0.930 . S
C1355 C1356 1.355 . S
C1355 C1357 1.415 . S
C1356 C1355 1.355 . S
C1356 C1358 1.419 . S
C1357 C1352 1.425 . S
C1357 C1354 1.409 . S
C1357 C1355 1.415 . S
C1358 H1348 0.930 . S
C1358 C1356 1.419 . S
C1358 C1359 1.362 . S
C1359 H1349 0.930 . S
C1359 C1352 1.409 . S
C1359 C1358 1.362 . S
H1360 C1366 0.930 . S
H1361 C1369 0.930 . S
H1362 C1370 0.930 . S
H1363 C1371 0.930 . S
H1364 C1374 0.930 . S
H1365 C1375 0.930 . S
C1366 H1360 0.930 . S
C1366 C1367 1.355 . S
C1366 C1368 1.415 . S
C1367 C1366 1.355 . S
C1367 C1369 1.419 . S
C1368 C1366 1.415 . S
C1368 C1373 1.425 . S
C1368 C1375 1.409 . S
C1369 H1361 0.930 . S
C1369 C1367 1.419 . S
C1369 C1370 1.362 . S
C1370 H1362 0.930 . S
C1370 C1369 1.362 . S
C1370 C1373 1.409 . S
C1371 H1363 0.930 . S
C1371 C1372 1.355 . S
C1371 C1373 1.415 . S
C1372 C1371 1.355 . S
C1372 C1374 1.419 . S
C1373 C1368 1.425 . S
C1373 C1370 1.409 . S
C1373 C1371 1.415 . S
C1374 H1364 0.930 . S
C1374 C1372 1.419 . S
C1374 C1375 1.362 . S
C1375 H1365 0.930 . S
C1375 C1368 1.409 . S
C1375 C1374 1.362 . S
H1376 C1382 0.930 . S
H1377 C1385 0.930 . S
H1378 C1386 0.930 . S
H1379 C1387 0.930 . S
H1380 C1390 0.930 . S
H1381 C1391 0.930 . S
C1382 H1376 0.930 . S
C1382 C1383 1.355 . S
C1382 C1384 1.415 . S
C1383 C1382 1.355 . S
C1383 C1385 1.419 . S
C1384 C1382 1.415 . S
C1384 C1389 1.425 . S
C1384 C1391 1.409 . S
C1385 H1377 0.930 . S
C1385 C1383 1.419 . S
C1385 C1386 1.362 . S
C1386 H1378 0.930 . S
C1386 C1385 1.362 . S
C1386 C1389 1.409 . S
C1387 H1379 0.930 . S
C1387 C1388 1.355 . S
C1387 C1389 1.415 . S
C1388 C1387 1.355 . S
C1388 C1390 1.419 . S
C1389 C1384 1.425 . S
C1389 C1386 1.409 . S
C1389 C1387 1.415 . S
C1390 H1380 0.930 . S
C1390 C1388 1.419 . S
C1390 C1391 1.362 . S
C1391 H1381 0.930 . S
C1391 C1384 1.409 . S
C1391 C1390 1.362 . S
H1392 C1398 0.930 . S
H1393 C1401 0.930 . S
H1394 C1402 0.930 . S
H1395 C1403 0.930 . S
H1396 C1406 0.930 . S
H1397 C1407 0.930 . S
C1398 H1392 0.930 . S
C1398 C1399 1.355 . S
C1398 C1400 1.415 . S
C1399 C1398 1.355 . S
C1399 C1401 1.419 . S
C1400 C1398 1.415 . S
C1400 C1405 1.425 . S
C1400 C1407 1.409 . S
C1401 H1393 0.930 . S
C1401 C1399 1.419 . S
C1401 C1402 1.362 . S
C1402 H1394 0.930 . S
C1402 C1401 1.362 . S
C1402 C1405 1.409 . S
C1403 H1395 0.930 . S
C1403 C1404 1.355 . S
C1403 C1405 1.415 . S
C1404 C1403 1.355 . S
C1404 C1406 1.419 . S
C1405 C1400 1.425 . S
C1405 C1402 1.409 . S
C1405 C1403 1.415 . S
C1406 H1396 0.930 . S
C1406 C1404 1.419 . S
C1406 C1407 1.362 . S
C1407 H1397 0.930 . S
C1407 C1400 1.409 . S
C1407 C1406 1.362 . S
H1408 C1414 0.930 . S
H1409 C1417 0.930 . S
H1410 C1418 0.930 . S
H1411 C1419 0.930 . S
H1412 C1422 0.930 . S
H1413 C1423 0.930 . S
C1414 H1408 0.930 . S
C1414 C1415 1.355 . S
C1414 C1416 1.415 . S
C1415 C1414 1.355 . S
C1415 C1417 1.419 . S
C1416 C1414 1.415 . S
C1416 C1421 1.425 . S
C1416 C1423 1.409 . S
C1417 H1409 0.930 . S
C1417 C1415 1.419 . S
C1417 C1418 1.362 . S
C1418 H1410 0.930 . S
C1418 C1417 1.362 . S
C1418 C1421 1.409 . S
C1419 H1411 0.930 . S
C1419 C1420 1.355 . S
C1419 C1421 1.415 . S
C1420 C1419 1.355 . S
C1420 C1422 1.419 . S
C1421 C1416 1.425 . S
C1421 C1418 1.409 . S
C1421 C1419 1.415 . S
C1422 H1412 0.930 . S
C1422 C1420 1.419 . S
C1422 C1423 1.362 . S
C1423 H1413 0.930 . S
C1423 C1416 1.409 . S
C1423 C1422 1.362 . S
H1424 C1430 0.930 . S
H1425 C1433 0.930 . S
H1426 C1434 0.930 . S
H1427 C1435 0.930 . S
H1428 C1438 0.930 . S
H1429 C1439 0.930 . S
C1430 H1424 0.930 . S
C1430 C1431 1.355 . S
C1430 C1432 1.415 . S
C1431 C1430 1.355 . S
C1431 C1433 1.419 . S
C1432 C1430 1.415 . S
C1432 C1437 1.425 . S
C1432 C1439 1.409 . S
C1433 H1425 0.930 . S
C1433 C1431 1.419 . S
C1433 C1434 1.362 . S
C1434 H1426 0.930 . S
C1434 C1433 1.362 . S
C1434 C1437 1.409 . S
C1435 H1427 0.930 . S
C1435 C1436 1.355 . S
C1435 C1437 1.415 . S
C1436 C1435 1.355 . S
C1436 C1438 1.419 . S
C1437 C1432 1.425 . S
C1437 C1434 1.409 . S
C1437 C1435 1.415 . S
C1438 H1428 0.930 . S
C1438 C1436 1.419 . S
C1438 C1439 1.362 . S
C1439 H1429 0.930 . S
C1439 C1432 1.409 . S
C1439 C1438 1.362 . S
H1440 C1446 0.930 . S
H1441 C1449 0.930 . S
H1442 C1450 0.930 . S
H1443 C1451 0.930 . S
H1444 C1454 0.930 . S
H1445 C1455 0.930 . S
C1446 H1440 0.930 . S
C1446 C1447 1.355 . S
C1446 C1448 1.415 . S
C1447 C1446 1.355 . S
C1447 C1449 1.419 . S
C1448 C1446 1.415 . S
C1448 C1453 1.425 . S
C1448 C1455 1.409 . S
C1449 H1441 0.930 . S
C1449 C1447 1.419 . S
C1449 C1450 1.362 . S
C1450 H1442 0.930 . S
C1450 C1449 1.362 . S
C1450 C1453 1.409 . S
C1451 H1443 0.930 . S
C1451 C1452 1.355 . S
C1451 C1453 1.415 . S
C1452 C1451 1.355 . S
C1452 C1454 1.419 . S
C1453 C1448 1.425 . S
C1453 C1450 1.409 . S
C1453 C1451 1.415 . S
C1454 H1444 0.930 . S
C1454 C1452 1.419 . S
C1454 C1455 1.362 . S
C1455 H1445 0.930 . S
C1455 C1448 1.409 . S
C1455 C1454 1.362 . S
H1456 C1462 0.930 . S
H1457 C1465 0.930 . S
H1458 C1466 0.930 . S
H1459 C1467 0.930 . S
H1460 C1470 0.930 . S
H1461 C1471 0.930 . S
C1462 H1456 0.930 . S
C1462 C1463 1.355 . S
C1462 C1464 1.415 . S
C1463 C1462 1.355 . S
C1463 C1465 1.419 . S
C1464 C1462 1.415 . S
C1464 C1469 1.425 . S
C1464 C1471 1.409 . S
C1465 H1457 0.930 . S
C1465 C1463 1.419 . S
C1465 C1466 1.362 . S
C1466 H1458 0.930 . S
C1466 C1465 1.362 . S
C1466 C1469 1.409 . S
C1467 H1459 0.930 . S
C1467 C1468 1.355 . S
C1467 C1469 1.415 . S
C1468 C1467 1.355 . S
C1468 C1470 1.419 . S
C1469 C1464 1.425 . S
C1469 C1466 1.409 . S
C1469 C1467 1.415 . S
C1470 H1460 0.930 . S
C1470 C1468 1.419 . S
C1470 C1471 1.362 . S
C1471 H1461 0.930 . S
C1471 C1464 1.409 . S
C1471 C1470 1.362 . S
H1472 C1478 0.930 1_545 S
H1473 C1481 0.930 . S
H1474 C1482 0.930 . S
H1475 C1483 0.930 . S
H1476 C1486 0.930 . S
H1477 C1487 0.916 1_545 S
C1478 H1472 0.930 1_565 S
C1478 C1479 1.355 . S
C1478 C1480 1.415 . S
C1479 C1478 1.355 . S
C1479 C1481 1.419 . S
C1480 C1478 1.415 . S
C1480 C1485 1.425 . S
C1480 C1487 1.409 . S
C1481 H1473 0.930 . S
C1481 C1479 1.419 . S
C1481 C1482 1.362 . S
C1482 H1474 0.930 . S
C1482 C1481 1.362 . S
C1482 C1485 1.409 . S
C1483 H1475 0.930 . S
C1483 C1484 1.355 . S
C1483 C1485 1.415 . S
C1484 C1483 1.355 . S
C1484 C1486 1.419 . S
C1485 C1480 1.425 . S
C1485 C1482 1.409 . S
C1485 C1483 1.415 . S
C1486 H1476 0.930 . S
C1486 C1484 1.419 . S
C1486 C1487 1.362 . S
C1487 H1477 0.916 1_565 S
C1487 C1480 1.409 . S
C1487 C1486 1.362 . S
H1488 C1494 0.930 . S
H1489 C1497 0.930 . S
H1490 C1498 0.930 . S
H1491 C1499 0.930 . S
H1492 C1502 0.930 . S
H1493 C1503 0.930 . S
C1494 H1488 0.930 . S
C1494 C1495 1.355 . S
C1494 C1496 1.415 . S
C1495 C1494 1.355 . S
C1495 C1497 1.419 . S
C1496 C1494 1.415 . S
C1496 C1501 1.425 . S
C1496 C1503 1.409 . S
C1497 H1489 0.930 . S
C1497 C1495 1.419 . S
C1497 C1498 1.362 . S
C1498 H1490 0.930 . S
C1498 C1497 1.362 . S
C1498 C1501 1.409 . S
C1499 H1491 0.930 . S
C1499 C1500 1.355 . S
C1499 C1501 1.415 . S
C1500 C1499 1.355 . S
C1500 C1502 1.419 . S
C1501 C1496 1.425 . S
C1501 C1498 1.409 . S
C1501 C1499 1.415 . S
C1502 H1492 0.930 . S
C1502 C1500 1.419 . S
C1502 C1503 1.362 . S
C1503 H1493 0.930 . S
C1503 C1496 1.409 . S
C1503 C1502 1.362 . S
H1504 C1510 0.930 . S
H1505 C1513 0.930 . S
H1506 C1514 0.930 . S
H1507 C1515 0.930 . S
H1508 C1518 0.930 . S
H1509 C1519 0.930 . S
C1510 H1504 0.930 . S
C1510 C1511 1.355 . S
C1510 C1512 1.415 . S
C1511 C1510 1.355 . S
C1511 C1513 1.419 . S
C1512 C1510 1.415 . S
C1512 C1517 1.425 . S
C1512 C1519 1.409 . S
C1513 H1505 0.930 . S
C1513 C1511 1.419 . S
C1513 C1514 1.362 . S
C1514 H1506 0.930 . S
C1514 C1513 1.362 . S
C1514 C1517 1.409 . S
C1515 H1507 0.930 . S
C1515 C1516 1.355 . S
C1515 C1517 1.415 . S
C1516 C1515 1.355 . S
C1516 C1518 1.419 . S
C1517 C1512 1.425 . S
C1517 C1514 1.409 . S
C1517 C1515 1.415 . S
C1518 H1508 0.930 . S
C1518 C1516 1.419 . S
C1518 C1519 1.362 . S
C1519 H1509 0.930 . S
C1519 C1512 1.409 . S
C1519 C1518 1.362 . S
H1520 C1526 0.930 . S
H1521 C1529 0.930 . S
H1522 C1530 0.930 . S
H1523 C1531 0.930 . S
H1524 C1534 0.930 . S
H1525 C1535 0.930 . S
C1526 H1520 0.930 . S
C1526 C1527 1.355 . S
C1526 C1528 1.415 . S
C1527 C1526 1.355 . S
C1527 C1529 1.419 . S
C1528 C1526 1.415 . S
C1528 C1533 1.425 . S
C1528 C1535 1.409 . S
C1529 H1521 0.930 . S
C1529 C1527 1.419 . S
C1529 C1530 1.362 . S
C1530 H1522 0.930 . S
C1530 C1529 1.362 . S
C1530 C1533 1.409 . S
C1531 H1523 0.930 . S
C1531 C1532 1.355 . S
C1531 C1533 1.415 . S
C1532 C1531 1.355 . S
C1532 C1534 1.419 . S
C1533 C1528 1.425 . S
C1533 C1530 1.409 . S
C1533 C1531 1.415 . S
C1534 H1524 0.930 . S
C1534 C1532 1.419 . S
C1534 C1535 1.362 . S
C1535 H1525 0.930 . S
C1535 C1528 1.409 . S
C1535 C1534 1.362 . S
H1536 C1542 0.930 . S
H1537 C1545 0.930 . S
H1538 C1546 0.930 . S
H1539 C1547 0.930 . S
H1540 C1550 0.930 . S
H1541 C1551 0.930 . S
C1542 H1536 0.930 . S
C1542 C1543 1.355 . S
C1542 C1544 1.415 . S
C1543 C1542 1.355 . S
C1543 C1545 1.419 . S
C1544 C1542 1.415 . S
C1544 C1549 1.425 . S
C1544 C1551 1.409 . S
C1545 H1537 0.930 . S
C1545 C1543 1.419 . S
C1545 C1546 1.362 . S
C1546 H1538 0.930 . S
C1546 C1545 1.362 . S
C1546 C1549 1.409 . S
C1547 H1539 0.930 . S
C1547 C1548 1.355 . S
C1547 C1549 1.415 . S
C1548 C1547 1.355 . S
C1548 C1550 1.419 . S
C1549 C1544 1.425 . S
C1549 C1546 1.409 . S
C1549 C1547 1.415 . S
C1550 H1540 0.930 . S
C1550 C1548 1.419 . S
C1550 C1551 1.362 . S
C1551 H1541 0.930 . S
C1551 C1544 1.409 . S
C1551 C1550 1.362 . S
H1552 C1558 0.930 . S
H1553 C1561 0.930 . S
H1554 C1562 0.930 . S
H1555 C1563 0.930 . S
H1556 C1566 0.930 . S
H1557 C1567 0.930 . S
C1558 H1552 0.930 . S
C1558 C1559 1.355 . S
C1558 C1560 1.415 . S
C1559 C1558 1.355 . S
C1559 C1561 1.419 . S
C1560 C1558 1.415 . S
C1560 C1565 1.425 . S
C1560 C1567 1.409 . S
C1561 H1553 0.930 . S
C1561 C1559 1.419 . S
C1561 C1562 1.362 . S
C1562 H1554 0.930 . S
C1562 C1561 1.362 . S
C1562 C1565 1.409 . S
C1563 H1555 0.930 . S
C1563 C1564 1.355 . S
C1563 C1565 1.415 . S
C1564 C1563 1.355 . S
C1564 C1566 1.419 . S
C1565 C1560 1.425 . S
C1565 C1562 1.409 . S
C1565 C1563 1.415 . S
C1566 H1556 0.930 . S
C1566 C1564 1.419 . S
C1566 C1567 1.362 . S
C1567 H1557 0.930 . S
C1567 C1560 1.409 . S
C1567 C1566 1.362 . S
H1568 C1574 0.930 . S
H1569 C1577 0.930 . S
H1570 C1578 0.930 . S
H1571 C1579 0.930 . S
H1572 C1582 0.930 . S
H1573 C1583 0.930 . S
C1574 H1568 0.930 . S
C1574 C1575 1.355 . S
C1574 C1576 1.415 . S
C1575 C1574 1.355 . S
C1575 C1577 1.419 . S
C1576 C1574 1.415 . S
C1576 C1581 1.425 . S
C1576 C1583 1.409 . S
C1577 H1569 0.930 . S
C1577 C1575 1.419 . S
C1577 C1578 1.362 . S
C1578 H1570 0.930 . S
C1578 C1577 1.362 . S
C1578 C1581 1.409 . S
C1579 H1571 0.930 . S
C1579 C1580 1.355 . S
C1579 C1581 1.415 . S
C1580 C1579 1.355 . S
C1580 C1582 1.419 . S
C1581 C1576 1.425 . S
C1581 C1578 1.409 . S
C1581 C1579 1.415 . S
C1582 H1572 0.930 . S
C1582 C1580 1.419 . S
C1582 C1583 1.362 . S
C1583 H1573 0.930 . S
C1583 C1576 1.409 . S
C1583 C1582 1.362 . S
H1584 C1590 0.930 . S
H1585 C1593 0.930 . S
H1586 C1594 0.930 . S
H1587 C1595 0.930 . S
H1588 C1598 0.930 . S
H1589 C1599 0.930 . S
C1590 H1584 0.930 . S
C1590 C1591 1.355 . S
C1590 C1592 1.415 . S
C1591 C1590 1.355 . S
C1591 C1593 1.419 . S
C1592 C1590 1.415 . S
C1592 C1597 1.425 . S
C1592 C1599 1.409 . S
C1593 H1585 0.930 . S
C1593 C1591 1.419 . S
C1593 C1594 1.362 . S
C1594 H1586 0.930 . S
C1594 C1593 1.362 . S
C1594 C1597 1.409 . S
C1595 H1587 0.930 . S
C1595 C1596 1.355 . S
C1595 C1597 1.415 . S
C1596 C1595 1.355 . S
C1596 C1598 1.419 . S
C1597 C1592 1.425 . S
C1597 C1594 1.409 . S
C1597 C1595 1.415 . S
C1598 H1588 0.930 . S
C1598 C1596 1.419 . S
C1598 C1599 1.362 . S
C1599 H1589 0.930 . S
C1599 C1592 1.409 . S
C1599 C1598 1.362 . S
H1600 C1606 0.930 . S
H1601 C1609 0.930 1_545 S
H1602 C1610 0.930 . S
H1603 C1611 0.930 . S
H1604 C1614 0.930 1_556 S
H1605 C1615 0.930 1_556 S
C1606 H1600 0.930 . S
C1606 C1607 1.355 . S
C1606 C1608 1.415 . S
C1607 C1606 1.355 . S
C1607 C1609 1.419 . S
C1608 C1606 1.415 . S
C1608 C1613 1.425 . S
C1608 C1615 1.409 . S
C1609 H1601 0.930 1_565 S
C1609 C1607 1.419 . S
C1609 C1610 1.362 . S
C1610 H1602 0.930 . S
C1610 C1609 1.362 . S
C1610 C1613 1.409 . S
C1611 H1603 0.930 . S
C1611 C1612 1.355 . S
C1611 C1613 1.415 . S
C1612 C1611 1.355 . S
C1612 C1614 1.419 . S
C1613 C1608 1.425 . S
C1613 C1610 1.409 . S
C1613 C1611 1.415 . S
C1614 H1604 0.930 1_554 S
C1614 C1612 1.419 . S
C1614 C1615 1.362 . S
C1615 H1605 0.930 1_554 S
C1615 C1608 1.409 . S
C1615 C1614 1.362 . S
H1616 C1622 0.930 1_545 S
H1617 C1625 0.930 . S
H1618 C1626 0.930 . S
H1619 C1627 0.930 . S
H1620 C1630 0.930 . S
H1621 C1631 0.930 . S
C1622 H1616 0.930 1_565 S
C1622 C1623 1.355 . S
C1622 C1624 1.415 . S
C1623 C1622 1.355 . S
C1623 C1625 1.419 . S
C1624 C1622 1.415 . S
C1624 C1629 1.425 . S
C1624 C1631 1.409 . S
C1625 H1617 0.930 . S
C1625 C1623 1.419 . S
C1625 C1626 1.362 . S
C1626 H1618 0.930 . S
C1626 C1625 1.362 . S
C1626 C1629 1.409 . S
C1627 H1619 0.930 . S
C1627 C1628 1.355 . S
C1627 C1629 1.415 . S
C1628 C1627 1.355 . S
C1628 C1630 1.419 . S
C1629 C1624 1.425 . S
C1629 C1626 1.409 . S
C1629 C1627 1.415 . S
C1630 H1620 0.930 . S
C1630 C1628 1.419 . S
C1630 C1631 1.362 . S
C1631 H1621 0.930 . S
C1631 C1624 1.409 . S
C1631 C1630 1.362 . S
H1632 C1638 0.930 . S
H1633 C1641 0.930 . S
H1634 C1642 0.930 . S
H1635 C1643 0.930 . S
H1636 C1646 0.930 . S
H1637 C1647 0.930 . S
C1638 H1632 0.930 . S
C1638 C1639 1.355 . S
C1638 C1640 1.415 . S
C1639 C1638 1.355 . S
C1639 C1641 1.419 . S
C1640 C1638 1.415 . S
C1640 C1645 1.425 . S
C1640 C1647 1.409 . S
C1641 H1633 0.930 . S
C1641 C1639 1.419 . S
C1641 C1642 1.362 . S
C1642 H1634 0.930 . S
C1642 C1641 1.362 . S
C1642 C1645 1.409 . S
C1643 H1635 0.930 . S
C1643 C1644 1.355 . S
C1643 C1645 1.415 . S
C1644 C1643 1.355 . S
C1644 C1646 1.419 . S
C1645 C1640 1.425 . S
C1645 C1642 1.409 . S
C1645 C1643 1.415 . S
C1646 H1636 0.930 . S
C1646 C1644 1.419 . S
C1646 C1647 1.362 . S
C1647 H1637 0.930 . S
C1647 C1640 1.409 . S
C1647 C1646 1.362 . S
H1648 C1654 0.930 . S
H1649 C1657 0.930 . S
H1650 C1658 0.930 . S
H1651 C1659 0.930 . S
H1652 C1662 0.930 . S
H1653 C1663 0.930 . S
C1654 H1648 0.930 . S
C1654 C1655 1.355 . S
C1654 C1656 1.415 . S
C1655 C1654 1.355 . S
C1655 C1657 1.419 . S
C1656 C1654 1.415 . S
C1656 C1661 1.425 . S
C1656 C1663 1.409 . S
C1657 H1649 0.930 . S
C1657 C1655 1.419 . S
C1657 C1658 1.362 . S
C1658 H1650 0.930 . S
C1658 C1657 1.362 . S
C1658 C1661 1.409 . S
C1659 H1651 0.930 . S
C1659 C1660 1.355 . S
C1659 C1661 1.415 . S
C1660 C1659 1.355 . S
C1660 C1662 1.419 . S
C1661 C1656 1.425 . S
C1661 C1658 1.409 . S
C1661 C1659 1.415 . S
C1662 H1652 0.930 . S
C1662 C1660 1.419 . S
C1662 C1663 1.362 . S
C1663 H1653 0.930 . S
C1663 C1656 1.409 . S
C1663 C1662 1.362 . S
H1664 C1670 0.930 . S
H1665 C1673 0.930 . S
H1666 C1674 0.930 . S
H1667 C1675 0.930 . S
H1668 C1678 0.930 . S
H1669 C1679 0.930 . S
C1670 H1664 0.930 . S
C1670 C1671 1.355 . S
C1670 C1672 1.415 . S
C1671 C1670 1.355 . S
C1671 C1673 1.419 . S
C1672 C1670 1.415 . S
C1672 C1677 1.425 . S
C1672 C1679 1.409 . S
C1673 H1665 0.930 . S
C1673 C1671 1.419 . S
C1673 C1674 1.362 . S
C1674 H1666 0.930 . S
C1674 C1673 1.362 . S
C1674 C1677 1.409 . S
C1675 H1667 0.930 . S
C1675 C1676 1.355 . S
C1675 C1677 1.415 . S
C1676 C1675 1.355 . S
C1676 C1678 1.419 . S
C1677 C1672 1.425 . S
C1677 C1674 1.409 . S
C1677 C1675 1.415 . S
C1678 H1668 0.930 . S
C1678 C1676 1.419 . S
C1678 C1679 1.362 . S
C1679 H1669 0.930 . S
C1679 C1672 1.409 . S
C1679 C1678 1.362 . S
H1680 C1686 0.930 . S
H1681 C1689 0.930 . S
H1682 C1690 0.930 . S
H1683 C1691 0.930 . S
H1684 C1694 0.930 . S
H1685 C1695 0.930 . S
C1686 H1680 0.930 . S
C1686 C1687 1.355 . S
C1686 C1688 1.415 . S
C1687 C1686 1.355 . S
C1687 C1689 1.419 . S
C1688 C1686 1.415 . S
C1688 C1693 1.425 . S
C1688 C1695 1.409 . S
C1689 H1681 0.930 . S
C1689 C1687 1.419 . S
C1689 C1690 1.362 . S
C1690 H1682 0.930 . S
C1690 C1689 1.362 . S
C1690 C1693 1.409 . S
C1691 H1683 0.930 . S
C1691 C1692 1.355 . S
C1691 C1693 1.415 . S
C1692 C1691 1.355 . S
C1692 C1694 1.419 . S
C1693 C1688 1.425 . S
C1693 C1690 1.409 . S
C1693 C1691 1.415 . S
C1694 H1684 0.930 . S
C1694 C1692 1.419 . S
C1694 C1695 1.362 . S
C1695 H1685 0.930 . S
C1695 C1688 1.409 . S
C1695 C1694 1.362 . S
H1696 C1702 0.930 . S
H1697 C1705 0.930 . S
H1698 C1706 0.930 . S
H1699 C1707 0.930 . S
H1700 C1710 0.930 . S
H1701 C1711 0.930 . S
C1702 H1696 0.930 . S
C1702 C1703 1.355 . S
C1702 C1704 1.415 . S
C1703 C1702 1.355 . S
C1703 C1705 1.419 . S
C1704 C1702 1.415 . S
C1704 C1709 1.425 . S
C1704 C1711 1.409 . S
C1705 H1697 0.930 . S
C1705 C1703 1.419 . S
C1705 C1706 1.362 . S
C1706 H1698 0.930 . S
C1706 C1705 1.362 . S
C1706 C1709 1.409 . S
C1707 H1699 0.930 . S
C1707 C1708 1.355 . S
C1707 C1709 1.415 . S
C1708 C1707 1.355 . S
C1708 C1710 1.419 . S
C1709 C1704 1.425 . S
C1709 C1706 1.409 . S
C1709 C1707 1.415 . S
C1710 H1700 0.930 . S
C1710 C1708 1.419 . S
C1710 C1711 1.362 . S
C1711 H1701 0.930 . S
C1711 C1704 1.409 . S
C1711 C1710 1.362 . S
H1712 C1718 0.930 . S
H1713 C1721 0.930 . S
H1714 C1722 0.930 . S
H1715 C1723 0.930 . S
H1716 C1726 0.930 . S
H1717 C1727 0.930 . S
C1718 H1712 0.930 . S
C1718 C1719 1.355 . S
C1718 C1720 1.415 . S
C1719 C1718 1.355 . S
C1719 C1721 1.419 . S
C1720 C1718 1.415 . S
C1720 C1725 1.425 . S
C1720 C1727 1.409 . S
C1721 H1713 0.930 . S
C1721 C1719 1.419 . S
C1721 C1722 1.362 . S
C1722 H1714 0.930 . S
C1722 C1721 1.362 . S
C1722 C1725 1.409 . S
C1723 H1715 0.930 . S
C1723 C1724 1.355 . S
C1723 C1725 1.415 . S
C1724 C1723 1.355 . S
C1724 C1726 1.419 . S
C1725 C1720 1.425 . S
C1725 C1722 1.409 . S
C1725 C1723 1.415 . S
C1726 H1716 0.930 . S
C1726 C1724 1.419 . S
C1726 C1727 1.362 . S
C1727 H1717 0.930 . S
C1727 C1720 1.409 . S
C1727 C1726 1.362 . S
H1728 C1734 0.930 . S
H1729 C1737 0.930 . S
H1730 C1738 0.930 . S
H1731 C1739 0.930 1_545 S
H1732 C1742 0.930 . S
H1733 C1743 0.930 . S
C1734 H1728 0.930 . S
C1734 C1735 1.355 . S
C1734 C1736 1.415 . S
C1735 C1734 1.355 . S
C1735 C1737 1.419 . S
C1736 C1734 1.415 . S
C1736 C1741 1.425 . S
C1736 C1743 1.409 . S
C1737 H1729 0.930 . S
C1737 C1735 1.419 . S
C1737 C1738 1.362 . S
C1738 H1730 0.930 . S
C1738 C1737 1.362 . S
C1738 C1741 1.409 . S
C1739 H1731 0.930 1_565 S
C1739 C1740 1.355 . S
C1739 C1741 1.415 . S
C1740 C1739 1.355 . S
C1740 C1742 1.419 . S
C1741 C1736 1.425 . S
C1741 C1738 1.409 . S
C1741 C1739 1.415 . S
C1742 H1732 0.930 . S
C1742 C1740 1.419 . S
C1742 C1743 1.362 . S
C1743 H1733 0.930 . S
C1743 C1736 1.409 . S
C1743 C1742 1.362 . S
H1744 C1750 0.930 . S
H1745 C1753 0.930 . S
H1746 C1754 0.930 . S
H1747 C1755 0.930 . S
H1748 C1758 0.930 . S
H1749 C1759 0.930 1_545 S
C1750 H1744 0.930 . S
C1750 C1751 1.355 . S
C1750 C1752 1.415 . S
C1751 C1750 1.355 . S
C1751 C1753 1.419 . S
C1752 C1750 1.415 . S
C1752 C1757 1.425 . S
C1752 C1759 1.409 . S
C1753 H1745 0.930 . S
C1753 C1751 1.419 . S
C1753 C1754 1.362 . S
C1754 H1746 0.930 . S
C1754 C1753 1.362 . S
C1754 C1757 1.409 . S
C1755 H1747 0.930 . S
C1755 C1756 1.355 . S
C1755 C1757 1.415 . S
C1756 C1755 1.355 . S
C1756 C1758 1.419 1_565 S
C1757 C1752 1.425 . S
C1757 C1754 1.409 . S
C1757 C1755 1.415 . S
C1758 H1748 0.930 . S
C1758 C1756 1.419 1_545 S
C1758 C1759 1.362 1_545 S
C1759 H1749 0.930 1_565 S
C1759 C1752 1.409 . S
C1759 C1758 1.362 1_565 S
H1760 C1766 0.930 . S
H1761 C1769 0.930 . S
H1762 C1770 0.930 . S
H1763 C1771 0.930 . S
H1764 C1774 0.930 . S
H1765 C1775 0.930 . S
C1766 H1760 0.930 . S
C1766 C1767 1.355 . S
C1766 C1768 1.415 . S
C1767 C1766 1.355 . S
C1767 C1769 1.419 . S
C1768 C1766 1.415 . S
C1768 C1773 1.425 . S
C1768 C1775 1.409 . S
C1769 H1761 0.930 . S
C1769 C1767 1.419 . S
C1769 C1770 1.362 . S
C1770 H1762 0.930 . S
C1770 C1769 1.362 . S
C1770 C1773 1.409 . S
C1771 H1763 0.930 . S
C1771 C1772 1.355 . S
C1771 C1773 1.415 . S
C1772 C1771 1.355 . S
C1772 C1774 1.419 . S
C1773 C1768 1.425 . S
C1773 C1770 1.409 . S
C1773 C1771 1.415 . S
C1774 H1764 0.930 . S
C1774 C1772 1.419 . S
C1774 C1775 1.362 . S
C1775 H1765 0.930 . S
C1775 C1768 1.409 . S
C1775 C1774 1.362 . S
H1776 C1782 0.930 . S
H1777 C1785 0.930 . S
H1778 C1786 0.930 . S
H1779 C1787 0.930 . S
H1780 C1790 0.930 . S
H1781 C1791 0.930 . S
C1782 H1776 0.930 . S
C1782 C1783 1.355 . S
C1782 C1784 1.415 . S
C1783 C1782 1.355 . S
C1783 C1785 1.419 . S
C1784 C1782 1.415 . S
C1784 C1789 1.425 . S
C1784 C1791 1.409 . S
C1785 H1777 0.930 . S
C1785 C1783 1.419 . S
C1785 C1786 1.362 . S
C1786 H1778 0.930 . S
C1786 C1785 1.362 . S
C1786 C1789 1.409 . S
C1787 H1779 0.930 . S
C1787 C1788 1.355 . S
C1787 C1789 1.415 . S
C1788 C1787 1.355 . S
C1788 C1790 1.419 . S
C1789 C1784 1.425 . S
C1789 C1786 1.409 . S
C1789 C1787 1.415 . S
C1790 H1780 0.930 . S
C1790 C1788 1.419 . S
C1790 C1791 1.362 . S
C1791 H1781 0.930 . S
C1791 C1784 1.409 . S
C1791 C1790 1.362 . S
H1792 C1798 0.930 . S
H1793 C1801 0.930 1_556 S
H1794 C1802 0.930 . S
H1795 C1803 0.930 1_556 S
H1796 C1806 0.930 . S
H1797 C1807 0.930 . S
C1798 H1792 0.930 . S
C1798 C1799 1.355 . S
C1798 C1800 1.415 . S
C1799 C1798 1.355 . S
C1799 C1801 1.419 . S
C1800 C1798 1.415 . S
C1800 C1805 1.425 . S
C1800 C1807 1.409 . S
C1801 H1793 0.930 1_554 S
C1801 C1799 1.419 . S
C1801 C1802 1.362 1_554 S
C1802 H1794 0.930 . S
C1802 C1801 1.362 1_556 S
C1802 C1805 1.409 1_556 S
C1803 H1795 0.930 1_554 S
C1803 C1804 1.355 . S
C1803 C1805 1.415 . S
C1804 C1803 1.355 . S
C1804 C1806 1.419 . S
C1805 C1800 1.425 . S
C1805 C1802 1.409 1_554 S
C1805 C1803 1.415 . S
C1806 H1796 0.930 . S
C1806 C1804 1.419 . S
C1806 C1807 1.362 . S
C1807 H1797 0.930 . S
C1807 C1800 1.409 . S
C1807 C1806 1.362 . S
H1808 C1814 0.930 . S
H1809 C1817 0.930 . S
H1810 C1818 0.930 . S
H1811 C1819 0.930 . S
H1812 C1822 0.930 . S
H1813 C1823 0.930 . S
C1814 H1808 0.930 . S
C1814 C1815 1.355 . S
C1814 C1816 1.415 . S
C1815 C1814 1.355 . S
C1815 C1817 1.419 . S
C1816 C1814 1.415 . S
C1816 C1821 1.425 . S
C1816 C1823 1.409 . S
C1817 H1809 0.930 . S
C1817 C1815 1.419 . S
C1817 C1818 1.362 . S
C1818 H1810 0.930 . S
C1818 C1817 1.362 . S
C1818 C1821 1.409 . S
C1819 H1811 0.930 . S
C1819 C1820 1.355 . S
C1819 C1821 1.415 . S
C1820 C1819 1.355 . S
C1820 C1822 1.419 . S
C1821 C1816 1.425 . S
C1821 C1818 1.409 . S
C1821 C1819 1.415 . S
C1822 H1812 0.930 . S
C1822 C1820 1.419 . S
C1822 C1823 1.362 . S
C1823 H1813 0.930 . S
C1823 C1816 1.409 . S
C1823 C1822 1.362 . S
H1824 C1830 0.936 . S
H1825 C1833 0.930 . S
H1826 C1834 0.930 . S
H1827 C1835 0.930 . S
H1828 C1838 0.930 . S
H1829 C1839 0.930 . S
C1830 H1824 0.936 . S
C1830 C1831 1.355 . S
C1830 C1832 1.415 1_455 S
C1831 C1830 1.355 . S
C1831 C1833 1.419 . S
C1832 C1830 1.415 1_655 S
C1832 C1837 1.425 1_655 S
C1832 C1839 1.409 . S
C1833 H1825 0.930 . S
C1833 C1831 1.419 . S
C1833 C1834 1.362 . S
C1834 H1826 0.930 . S
C1834 C1833 1.362 . S
C1834 C1837 1.409 . S
C1835 H1827 0.930 . S
C1835 C1836 1.355 . S
C1835 C1837 1.415 1_655 S
C1836 C1835 1.355 . S
C1836 C1838 1.419 . S
C1837 C1832 1.425 1_455 S
C1837 C1834 1.409 . S
C1837 C1835 1.415 1_455 S
C1838 H1828 0.930 . S
C1838 C1836 1.419 . S
C1838 C1839 1.362 . S
C1839 H1829 0.930 . S
C1839 C1832 1.409 . S
C1839 C1838 1.362 . S
H1840 C1846 0.930 . S
H1841 C1849 0.930 . S
H1842 C1850 0.930 . S
H1843 C1851 0.930 . S
H1844 C1854 0.930 . S
H1845 C1855 0.930 . S
C1846 H1840 0.930 . S
C1846 C1847 1.355 . S
C1846 C1848 1.415 . S
C1847 C1846 1.355 . S
C1847 C1849 1.419 . S
C1848 C1846 1.415 . S
C1848 C1853 1.425 . S
C1848 C1855 1.409 . S
C1849 H1841 0.930 . S
C1849 C1847 1.419 . S
C1849 C1850 1.362 . S
C1850 H1842 0.930 . S
C1850 C1849 1.362 . S
C1850 C1853 1.409 . S
C1851 H1843 0.930 . S
C1851 C1852 1.355 . S
C1851 C1853 1.415 . S
C1852 C1851 1.355 . S
C1852 C1854 1.419 . S
C1853 C1848 1.425 . S
C1853 C1850 1.409 . S
C1853 C1851 1.415 . S
C1854 H1844 0.930 . S
C1854 C1852 1.419 . S
C1854 C1855 1.362 . S
C1855 H1845 0.930 . S
C1855 C1848 1.409 . S
C1855 C1854 1.362 . S
H1856 C1862 0.930 . S
H1857 C1865 0.930 . S
H1858 C1866 0.930 . S
H1859 C1867 0.930 . S
H1860 C1870 0.930 . S
H1861 C1871 0.930 . S
C1862 H1856 0.930 . S
C1862 C1863 1.355 . S
C1862 C1864 1.415 . S
C1863 C1862 1.355 . S
C1863 C1865 1.419 . S
C1864 C1862 1.415 . S
C1864 C1869 1.425 1_455 S
C1864 C1871 1.409 . S
C1865 H1857 0.930 . S
C1865 C1863 1.419 . S
C1865 C1866 1.362 1_455 S
C1866 H1858 0.930 . S
C1866 C1865 1.362 1_655 S
C1866 C1869 1.409 . S
C1867 H1859 0.930 . S
C1867 C1868 1.355 . S
C1867 C1869 1.415 . S
C1868 C1867 1.355 . S
C1868 C1870 1.419 . S
C1869 C1864 1.425 1_655 S
C1869 C1866 1.409 . S
C1869 C1867 1.415 . S
C1870 H1860 0.930 . S
C1870 C1868 1.419 . S
C1870 C1871 1.362 1_655 S
C1871 H1861 0.930 . S
C1871 C1864 1.409 . S
C1871 C1870 1.362 1_455 S
H1872 C1878 0.930 . S
H1873 C1881 0.930 . S
H1874 C1882 0.930 . S
H1875 C1883 0.930 . S
H1876 C1886 0.930 . S
H1877 C1887 0.930 . S
C1878 H1872 0.930 . S
C1878 C1879 1.355 . S
C1878 C1880 1.415 . S
C1879 C1878 1.355 . S
C1879 C1881 1.419 . S
C1880 C1878 1.415 . S
C1880 C1885 1.425 . S
C1880 C1887 1.409 . S
C1881 H1873 0.930 . S
C1881 C1879 1.419 . S
C1881 C1882 1.362 . S
C1882 H1874 0.930 . S
C1882 C1881 1.362 . S
C1882 C1885 1.409 . S
C1883 H1875 0.930 . S
C1883 C1884 1.355 . S
C1883 C1885 1.415 . S
C1884 C1883 1.355 . S
C1884 C1886 1.419 . S
C1885 C1880 1.425 . S
C1885 C1882 1.409 . S
C1885 C1883 1.415 . S
C1886 H1876 0.930 . S
C1886 C1884 1.419 . S
C1886 C1887 1.362 . S
C1887 H1877 0.930 . S
C1887 C1880 1.409 . S
C1887 C1886 1.362 . S
H1888 C1894 0.930 1_556 S
H1889 C1897 0.930 . S
H1890 C1898 0.930 . S
H1891 C1899 0.930 . S
H1892 C1902 0.930 . S
H1893 C1903 0.930 . S
C1894 H1888 0.930 1_554 S
C1894 C1895 1.355 . S
C1894 C1896 1.415 . S
C1895 C1894 1.355 . S
C1895 C1897 1.419 . S
C1896 C1894 1.415 . S
C1896 C1901 1.425 . S
C1896 C1903 1.409 1_554 S
C1897 H1889 0.930 . S
C1897 C1895 1.419 . S
C1897 C1898 1.362 . S
C1898 H1890 0.930 . S
C1898 C1897 1.362 . S
C1898 C1901 1.409 . S
C1899 H1891 0.930 . S
C1899 C1900 1.355 . S
C1899 C1901 1.415 . S
C1900 C1899 1.355 . S
C1900 C1902 1.419 1_554 S
C1901 C1896 1.425 . S
C1901 C1898 1.409 . S
C1901 C1899 1.415 . S
C1902 H1892 0.930 . S
C1902 C1900 1.419 1_556 S
C1902 C1903 1.362 . S
C1903 H1893 0.930 . S
C1903 C1896 1.409 1_556 S
C1903 C1902 1.362 . S
H1904 C1910 0.930 . S
H1905 C1913 0.930 . S
H1906 C1914 0.930 . S
H1907 C1915 0.930 . S
H1908 C1918 0.930 . S
H1909 C1919 0.930 . S
C1910 H1904 0.930 . S
C1910 C1911 1.355 . S
C1910 C1912 1.415 1_655 S
C1911 C1910 1.355 . S
C1911 C1913 1.419 . S
C1912 C1910 1.415 1_455 S
C1912 C1917 1.425 1_455 S
C1912 C1919 1.409 . S
C1913 H1905 0.930 . S
C1913 C1911 1.419 . S
C1913 C1914 1.362 . S
C1914 H1906 0.930 . S
C1914 C1913 1.362 . S
C1914 C1917 1.409 . S
C1915 H1907 0.930 . S
C1915 C1916 1.355 . S
C1915 C1917 1.415 1_455 S
C1916 C1915 1.355 . S
C1916 C1918 1.419 . S
C1917 C1912 1.425 1_655 S
C1917 C1914 1.409 . S
C1917 C1915 1.415 1_655 S
C1918 H1908 0.930 . S
C1918 C1916 1.419 . S
C1918 C1919 1.362 . S
C1919 H1909 0.930 . S
C1919 C1912 1.409 . S
C1919 C1918 1.362 . S
H1920 C1926 0.930 . S
H1921 C1929 0.930 . S
H1922 C1930 0.930 . S
H1923 C1931 0.930 . S
H1924 C1934 0.930 . S
H1925 C1935 0.930 . S
C1926 H1920 0.930 . S
C1926 C1927 1.355 . S
C1926 C1928 1.415 . S
C1927 C1926 1.355 . S
C1927 C1929 1.419 . S
C1928 C1926 1.415 . S
C1928 C1933 1.425 . S
C1928 C1935 1.409 . S
C1929 H1921 0.930 . S
C1929 C1927 1.419 . S
C1929 C1930 1.362 . S
C1930 H1922 0.930 . S
C1930 C1929 1.362 . S
C1930 C1933 1.409 . S
C1931 H1923 0.930 . S
C1931 C1932 1.355 . S
C1931 C1933 1.415 . S
C1932 C1931 1.355 . S
C1932 C1934 1.419 . S
C1933 C1928 1.425 . S
C1933 C1930 1.409 . S
C1933 C1931 1.415 . S
C1934 H1924 0.930 . S
C1934 C1932 1.419 . S
C1934 C1935 1.362 . S
C1935 H1925 0.930 . S
C1935 C1928 1.409 . S
C1935 C1934 1.362 . S
H1936 C1942 0.930 . S
H1937 C1945 0.930 . S
H1938 C1946 0.930 1_455 S
H1939 C1947 0.930 . S
H1940 C1950 0.930 . S
H1941 C1951 0.930 1_655 S
C1942 H1936 0.930 . S
C1942 C1943 1.355 . S
C1942 C1944 1.415 . S
C1943 C1942 1.355 . S
C1943 C1945 1.419 . S
C1944 C1942 1.415 . S
C1944 C1949 1.425 1_655 S
C1944 C1951 1.409 1_655 S
C1945 H1937 0.930 . S
C1945 C1943 1.419 . S
C1945 C1946 1.362 . S
C1946 H1938 0.930 1_655 S
C1946 C1945 1.362 . S
C1946 C1949 1.409 1_655 S
C1947 H1939 0.930 . S
C1947 C1948 1.355 . S
C1947 C1949 1.415 1_565 S
C1948 C1947 1.355 . S
C1948 C1950 1.419 . S
C1949 C1944 1.425 1_455 S
C1949 C1946 1.409 1_455 S
C1949 C1947 1.415 1_545 S
C1950 H1940 0.930 . S
C1950 C1948 1.419 . S
C1950 C1951 1.362 1_565 S
C1951 H1941 0.930 1_455 S
C1951 C1944 1.409 1_455 S
C1951 C1950 1.362 1_545 S
H1952 C1958 0.930 . S
H1953 C1961 0.930 . S
H1954 C1962 0.930 . S
H1955 C1963 0.930 . S
H1956 C1966 0.930 . S
H1957 C1967 0.930 . S
C1958 H1952 0.930 . S
C1958 C1959 1.355 . S
C1958 C1960 1.415 . S
C1959 C1958 1.355 . S
C1959 C1961 1.419 . S
C1960 C1958 1.415 . S
C1960 C1965 1.425 . S
C1960 C1967 1.409 . S
C1961 H1953 0.930 . S
C1961 C1959 1.419 . S
C1961 C1962 1.362 . S
C1962 H1954 0.930 . S
C1962 C1961 1.362 . S
C1962 C1965 1.409 . S
C1963 H1955 0.930 . S
C1963 C1964 1.355 . S
C1963 C1965 1.415 . S
C1964 C1963 1.355 . S
C1964 C1966 1.419 . S
C1965 C1960 1.425 . S
C1965 C1962 1.409 . S
C1965 C1963 1.415 . S
C1966 H1956 0.930 . S
C1966 C1964 1.419 . S
C1966 C1967 1.362 . S
C1967 H1957 0.930 . S
C1967 C1960 1.409 . S
C1967 C1966 1.362 . S
H1968 C1974 0.930 . S
H1969 C1977 0.930 . S
H1970 C1978 0.930 . S
H1971 C1979 0.932 . S
H1972 C1982 0.930 . S
H1973 C1983 0.930 . S
C1974 H1968 0.930 . S
C1974 C1975 1.355 . S
C1974 C1976 1.415 . S
C1975 C1974 1.355 . S
C1975 C1977 1.419 . S
C1976 C1974 1.415 . S
C1976 C1981 1.425 . S
C1976 C1983 1.409 1_545 S
C1977 H1969 0.930 . S
C1977 C1975 1.419 . S
C1977 C1978 1.362 . S
C1978 H1970 0.930 . S
C1978 C1977 1.362 . S
C1978 C1981 1.409 . S
C1979 H1971 0.932 . S
C1979 C1980 1.346 1_545 S
C1979 C1981 1.421 . S
C1980 C1979 1.346 1_565 S
C1980 C1982 1.419 . S
C1981 C1976 1.425 . S
C1981 C1978 1.409 . S
C1981 C1979 1.421 . S
C1982 H1972 0.930 . S
C1982 C1980 1.419 . S
C1982 C1983 1.362 . S
C1983 H1973 0.930 . S
C1983 C1976 1.409 1_565 S
C1983 C1982 1.362 . S
H1984 C1990 0.930 . S
H1985 C1993 0.930 . S
H1986 C1994 0.930 . S
H1987 C1995 0.930 . S
H1988 C1998 0.930 . S
H1989 C1999 0.930 . S
C1990 H1984 0.930 . S
C1990 C1991 1.355 . S
C1990 C1992 1.415 . S
C1991 C1990 1.355 . S
C1991 C1993 1.419 . S
C1992 C1990 1.415 . S
C1992 C1997 1.425 . S
C1992 C1999 1.409 . S
C1993 H1985 0.930 . S
C1993 C1991 1.419 . S
C1993 C1994 1.362 . S
C1994 H1986 0.930 . S
C1994 C1993 1.362 . S
C1994 C1997 1.409 . S
C1995 H1987 0.930 . S
C1995 C1996 1.355 . S
C1995 C1997 1.415 . S
C1996 C1995 1.355 . S
C1996 C1998 1.419 . S
C1997 C1992 1.425 . S
C1997 C1994 1.409 . S
C1997 C1995 1.415 . S
C1998 H1988 0.930 . S
C1998 C1996 1.419 . S
C1998 C1999 1.362 . S
C1999 H1989 0.930 . S
C1999 C1992 1.409 . S
C1999 C1998 1.362 . S
H2000 C2006 0.930 . S
H2001 C2009 0.930 . S
H2002 C2010 0.930 1_565 S
H2003 C2011 0.930 . S
H2004 C2014 0.930 . S
H2005 C2015 0.930 . S
C2006 H2000 0.930 . S
C2006 C2007 1.355 . S
C2006 C2008 1.415 . S
C2007 C2006 1.355 . S
C2007 C2009 1.419 . S
C2008 C2006 1.415 . S
C2008 C2013 1.425 . S
C2008 C2015 1.409 . S
C2009 H2001 0.930 . S
C2009 C2007 1.419 . S
C2009 C2010 1.362 . S
C2010 H2002 0.930 1_545 S
C2010 C2009 1.362 . S
C2010 C2013 1.409 . S
C2011 H2003 0.930 . S
C2011 C2012 1.355 . S
C2011 C2013 1.415 1_565 S
C2012 C2011 1.355 . S
C2012 C2014 1.419 1_565 S
C2013 C2008 1.425 . S
C2013 C2010 1.409 . S
C2013 C2011 1.415 1_545 S
C2014 H2004 0.930 . S
C2014 C2012 1.419 1_545 S
C2014 C2015 1.362 . S
C2015 H2005 0.930 . S
C2015 C2008 1.409 . S
C2015 C2014 1.362 . S
H2016 C2022 0.930 . S
H2017 C2025 0.930 . S
H2018 C2026 0.930 . S
H2019 C2027 0.930 . S
H2020 C2030 0.930 . S
H2021 C2031 0.930 . S
C2022 H2016 0.930 . S
C2022 C2023 1.355 . S
C2022 C2024 1.415 . S
C2023 C2022 1.355 . S
C2023 C2025 1.419 . S
C2024 C2022 1.415 . S
C2024 C2029 1.425 . S
C2024 C2031 1.409 . S
C2025 H2017 0.930 . S
C2025 C2023 1.419 . S
C2025 C2026 1.362 . S
C2026 H2018 0.930 . S
C2026 C2025 1.362 . S
C2026 C2029 1.409 . S
C2027 H2019 0.930 . S
C2027 C2028 1.355 . S
C2027 C2029 1.415 . S
C2028 C2027 1.355 . S
C2028 C2030 1.419 . S
C2029 C2024 1.425 . S
C2029 C2026 1.409 . S
C2029 C2027 1.415 . S
C2030 H2020 0.930 . S
C2030 C2028 1.419 . S
C2030 C2031 1.362 . S
C2031 H2021 0.930 . S
C2031 C2024 1.409 . S
C2031 C2030 1.362 . S
H2032 C2038 0.930 . S
H2033 C2041 0.930 . S
H2034 C2042 0.930 . S
H2035 C2043 0.930 . S
H2036 C2046 0.930 . S
H2037 C2047 0.930 . S
C2038 H2032 0.930 . S
C2038 C2039 1.355 . S
C2038 C2040 1.415 . S
C2039 C2038 1.355 . S
C2039 C2041 1.419 . S
C2040 C2038 1.415 . S
C2040 C2045 1.425 . S
C2040 C2047 1.409 . S
C2041 H2033 0.930 . S
C2041 C2039 1.419 . S
C2041 C2042 1.362 . S
C2042 H2034 0.930 . S
C2042 C2041 1.362 . S
C2042 C2045 1.409 . S
C2043 H2035 0.930 . S
C2043 C2044 1.355 . S
C2043 C2045 1.415 . S
C2044 C2043 1.355 . S
C2044 C2046 1.419 . S
C2045 C2040 1.425 . S
C2045 C2042 1.409 . S
C2045 C2043 1.415 . S
C2046 H2036 0.930 . S
C2046 C2044 1.419 . S
C2046 C2047 1.362 . S
C2047 H2037 0.930 . S
C2047 C2040 1.409 . S
C2047 C2046 1.362 . S
H2048 C2054 0.930 . S
H2049 C2057 0.930 . S
H2050 C2058 0.930 . S
H2051 C2059 0.930 . S
H2052 C2062 0.930 . S
H2053 C2063 0.930 . S
C2054 H2048 0.930 . S
C2054 C2055 1.355 . S
C2054 C2056 1.415 . S
C2055 C2054 1.355 . S
C2055 C2057 1.419 . S
C2056 C2054 1.415 . S
C2056 C2061 1.425 . S
C2056 C2063 1.409 . S
C2057 H2049 0.930 . S
C2057 C2055 1.419 . S
C2057 C2058 1.362 . S
C2058 H2050 0.930 . S
C2058 C2057 1.362 . S
C2058 C2061 1.409 . S
C2059 H2051 0.930 . S
C2059 C2060 1.355 . S
C2059 C2061 1.415 . S
C2060 C2059 1.355 . S
C2060 C2062 1.419 . S
C2061 C2056 1.425 . S
C2061 C2058 1.409 . S
C2061 C2059 1.415 . S
C2062 H2052 0.930 . S
C2062 C2060 1.419 . S
C2062 C2063 1.362 . S
C2063 H2053 0.930 . S
C2063 C2056 1.409 . S
C2063 C2062 1.362 . S
H2064 C2070 0.930 . S
H2065 C2073 0.930 . S
H2066 C2074 0.930 1_565 S
H2067 C2075 0.930 . S
H2068 C2078 0.930 . S
H2069 C2079 0.930 . S
C2070 H2064 0.930 . S
C2070 C2071 1.355 . S
C2070 C2072 1.415 . S
C2071 C2070 1.355 . S
C2071 C2073 1.419 . S
C2072 C2070 1.415 . S
C2072 C2077 1.425 . S
C2072 C2079 1.409 . S
C2073 H2065 0.930 . S
C2073 C2071 1.419 . S
C2073 C2074 1.362 . S
C2074 H2066 0.930 1_545 S
C2074 C2073 1.362 . S
C2074 C2077 1.409 . S
C2075 H2067 0.930 . S
C2075 C2076 1.355 . S
C2075 C2077 1.415 1_565 S
C2076 C2075 1.355 . S
C2076 C2078 1.419 1_565 S
C2077 C2072 1.425 . S
C2077 C2074 1.409 . S
C2077 C2075 1.415 1_545 S
C2078 H2068 0.930 . S
C2078 C2076 1.419 1_545 S
C2078 C2079 1.362 . S
C2079 H2069 0.930 . S
C2079 C2072 1.409 . S
C2079 C2078 1.362 . S
H2080 C2086 0.930 . S
H2081 C2089 0.931 . S
H2082 C2090 0.930 . S
H2083 C2091 0.930 . S
H2084 C2094 0.930 . S
H2085 C2095 0.930 . S
C2086 H2080 0.930 . S
C2086 C2087 1.355 1_545 S
C2086 C2088 1.415 . S
C2087 C2086 1.355 1_565 S
C2087 C2089 1.419 . S
C2088 C2086 1.415 . S
C2088 C2093 1.425 1_655 S
C2088 C2095 1.409 . S
C2089 H2081 0.931 . S
C2089 C2087 1.419 . S
C2089 C2090 1.362 1_655 S
C2090 H2082 0.930 . S
C2090 C2089 1.362 1_455 S
C2090 C2093 1.409 1_565 S
C2091 H2083 0.930 . S
C2091 C2092 1.355 . S
C2091 C2093 1.415 . S
C2092 C2091 1.355 . S
C2092 C2094 1.419 . S
C2093 C2088 1.425 1_455 S
C2093 C2090 1.409 1_545 S
C2093 C2091 1.415 . S
C2094 H2084 0.930 . S
C2094 C2092 1.419 . S
C2094 C2095 1.362 1_455 S
C2095 H2085 0.930 . S
C2095 C2088 1.409 . S
C2095 C2094 1.362 1_655 S
H2096 C2102 0.930 . S
H2097 C2105 0.930 1_556 S
H2098 C2106 0.930 1_556 S
H2099 C2107 0.930 . S
H2100 C2110 0.930 . S
H2101 C2111 0.930 . S
C2102 H2096 0.930 . S
C2102 C2103 1.355 . S
C2102 C2104 1.415 . S
C2103 C2102 1.355 . S
C2103 C2105 1.419 . S
C2104 C2102 1.415 . S
C2104 C2109 1.425 . S
C2104 C2111 1.409 . S
C2105 H2097 0.930 1_554 S
C2105 C2103 1.419 . S
C2105 C2106 1.362 . S
C2106 H2098 0.930 1_554 S
C2106 C2105 1.362 . S
C2106 C2109 1.409 . S
C2107 H2099 0.930 . S
C2107 C2108 1.355 . S
C2107 C2109 1.415 . S
C2108 C2107 1.355 . S
C2108 C2110 1.419 . S
C2109 C2104 1.425 . S
C2109 C2106 1.409 . S
C2109 C2107 1.415 . S
C2110 H2100 0.930 . S
C2110 C2108 1.419 . S
C2110 C2111 1.362 . S
C2111 H2101 0.930 . S
C2111 C2104 1.409 . S
C2111 C2110 1.362 . S
H2112 C2118 0.930 . S
H2113 C2121 0.930 . S
H2114 C2122 0.930 . S
H2115 C2123 0.930 . S
H2116 C2126 0.931 . S
H2117 C2127 0.930 . S
C2118 H2112 0.930 . S
C2118 C2119 1.355 . S
C2118 C2120 1.415 . S
C2119 C2118 1.355 . S
C2119 C2121 1.419 . S
C2120 C2118 1.415 . S
C2120 C2125 1.425 1_655 S
C2120 C2127 1.409 . S
C2121 H2113 0.930 . S
C2121 C2119 1.419 . S
C2121 C2122 1.362 1_655 S
C2122 H2114 0.930 . S
C2122 C2121 1.362 1_455 S
C2122 C2125 1.409 . S
C2123 H2115 0.930 . S
C2123 C2124 1.355 . S
C2123 C2125 1.415 . S
C2124 C2123 1.355 . S
C2124 C2126 1.419 . S
C2125 C2120 1.425 1_455 S
C2125 C2122 1.409 . S
C2125 C2123 1.415 . S
C2126 H2116 0.931 . S
C2126 C2124 1.419 . S
C2126 C2127 1.362 1_455 S
C2127 H2117 0.930 . S
C2127 C2120 1.409 . S
C2127 C2126 1.362 1_655 S
H2128 C2134 0.930 . S
H2129 C2137 0.930 . S
H2130 C2138 0.930 1_565 S
H2131 C2139 0.930 . S
H2132 C2142 0.930 . S
H2133 C2143 0.930 . S
C2134 H2128 0.930 . S
C2134 C2135 1.355 . S
C2134 C2136 1.415 . S
C2135 C2134 1.355 . S
C2135 C2137 1.419 . S
C2136 C2134 1.415 . S
C2136 C2141 1.425 . S
C2136 C2143 1.409 . S
C2137 H2129 0.930 . S
C2137 C2135 1.419 . S
C2137 C2138 1.362 . S
C2138 H2130 0.930 1_545 S
C2138 C2137 1.362 . S
C2138 C2141 1.409 . S
C2139 H2131 0.930 . S
C2139 C2140 1.355 . S
C2139 C2141 1.415 1_565 S
C2140 C2139 1.355 . S
C2140 C2142 1.419 . S
C2141 C2136 1.425 . S
C2141 C2138 1.409 . S
C2141 C2139 1.415 1_545 S
C2142 H2132 0.930 . S
C2142 C2140 1.419 . S
C2142 C2143 1.362 1_565 S
C2143 H2133 0.930 . S
C2143 C2136 1.409 . S
C2143 C2142 1.362 1_545 S
H2144 C2150 0.930 . S
H2145 C2153 0.930 1_556 S
H2146 C2154 0.930 1_556 S
H2147 C2155 0.930 . S
H2148 C2158 0.930 . S
H2149 C2159 0.930 . S
C2150 H2144 0.930 . S
C2150 C2151 1.355 . S
C2150 C2152 1.415 . S
C2151 C2150 1.355 . S
C2151 C2153 1.419 . S
C2152 C2150 1.415 . S
C2152 C2157 1.425 . S
C2152 C2159 1.409 . S
C2153 H2145 0.930 1_554 S
C2153 C2151 1.419 . S
C2153 C2154 1.362 . S
C2154 H2146 0.930 1_554 S
C2154 C2153 1.362 . S
C2154 C2157 1.409 . S
C2155 H2147 0.930 . S
C2155 C2156 1.355 . S
C2155 C2157 1.415 . S
C2156 C2155 1.355 . S
C2156 C2158 1.419 . S
C2157 C2152 1.425 . S
C2157 C2154 1.409 . S
C2157 C2155 1.415 . S
C2158 H2148 0.930 . S
C2158 C2156 1.419 . S
C2158 C2159 1.362 . S
C2159 H2149 0.930 . S
C2159 C2152 1.409 . S
C2159 C2158 1.362 . S
H2160 C2166 0.930 . S
H2161 C2169 0.930 . S
H2162 C2170 0.944 . S
H2163 C2171 0.930 . S
H2164 C2174 0.930 . S
H2165 C2175 0.942 . S
C2166 H2160 0.930 . S
C2166 C2167 1.355 . S
C2166 C2168 1.415 . S
C2167 C2166 1.355 . S
C2167 C2169 1.419 . S
C2168 C2166 1.415 . S
C2168 C2173 1.425 1_655 S
C2168 C2175 1.414 . S
C2169 H2161 0.930 . S
C2169 C2167 1.419 . S
C2169 C2170 1.343 1_655 S
C2170 H2162 0.944 . S
C2170 C2169 1.343 1_455 S
C2170 C2173 1.415 . S
C2171 H2163 0.930 . S
C2171 C2172 1.355 . S
C2171 C2173 1.415 . S
C2172 C2171 1.355 . S
C2172 C2174 1.419 . S
C2173 C2168 1.425 1_455 S
C2173 C2170 1.415 . S
C2173 C2171 1.415 . S
C2174 H2164 0.930 . S
C2174 C2172 1.419 . S
C2174 C2175 1.347 1_455 S
C2175 H2165 0.942 . S
C2175 C2168 1.414 . S
C2175 C2174 1.347 1_655 S
H2176 C2182 0.930 . S
H2177 C2185 0.930 1_565 S
H2178 C2186 0.930 . S
H2179 C2187 0.930 . S
H2180 C2190 0.930 . S
H2181 C2191 0.930 1_565 S
C2182 H2176 0.930 . S
C2182 C2183 1.355 . S
C2182 C2184 1.415 1_565 S
C2183 C2182 1.355 . S
C2183 C2185 1.419 1_565 S
C2184 C2182 1.415 1_545 S
C2184 C2189 1.425 . S
C2184 C2191 1.409 . S
C2185 H2177 0.930 1_545 S
C2185 C2183 1.419 1_545 S
C2185 C2186 1.362 . S
C2186 H2178 0.930 . S
C2186 C2185 1.362 . S
C2186 C2189 1.409 . S
C2187 H2179 0.930 . S
C2187 C2188 1.355 . S
C2187 C2189 1.415 . S
C2188 C2187 1.355 . S
C2188 C2190 1.419 . S
C2189 C2184 1.425 . S
C2189 C2186 1.409 . S
C2189 C2187 1.415 . S
C2190 H2180 0.930 . S
C2190 C2188 1.419 . S
C2190 C2191 1.362 . S
C2191 H2181 0.930 1_545 S
C2191 C2184 1.409 . S
C2191 C2190 1.362 . S
H2192 C2198 0.930 . S
H2193 C2201 0.930 . S
H2194 C2202 0.930 . S
H2195 C2203 0.930 . S
H2196 C2206 0.930 . S
H2197 C2207 0.930 . S
C2198 H2192 0.930 . S
C2198 C2199 1.355 . S
C2198 C2200 1.415 . S
C2199 C2198 1.355 . S
C2199 C2201 1.419 . S
C2200 C2198 1.415 . S
C2200 C2205 1.425 1_455 S
C2200 C2207 1.409 . S
C2201 H2193 0.930 . S
C2201 C2199 1.419 . S
C2201 C2202 1.362 1_455 S
C2202 H2194 0.930 . S
C2202 C2201 1.362 1_655 S
C2202 C2205 1.409 . S
C2203 H2195 0.930 . S
C2203 C2204 1.355 . S
C2203 C2205 1.415 . S
C2204 C2203 1.355 . S
C2204 C2206 1.419 . S
C2205 C2200 1.425 1_655 S
C2205 C2202 1.409 . S
C2205 C2203 1.415 . S
C2206 H2196 0.930 . S
C2206 C2204 1.419 . S
C2206 C2207 1.362 1_655 S
C2207 H2197 0.930 . S
C2207 C2200 1.409 . S
C2207 C2206 1.362 1_455 S
H2208 C2214 0.930 . S
H2209 C2217 0.930 . S
H2210 C2218 0.930 . S
H2211 C2219 0.930 . S
H2212 C2222 0.930 . S
H2213 C2223 0.930 . S
C2214 H2208 0.930 . S
C2214 C2215 1.355 . S
C2214 C2216 1.415 . S
C2215 C2214 1.355 . S
C2215 C2217 1.419 . S
C2216 C2214 1.415 . S
C2216 C2221 1.425 . S
C2216 C2223 1.409 . S
C2217 H2209 0.930 . S
C2217 C2215 1.419 . S
C2217 C2218 1.362 . S
C2218 H2210 0.930 . S
C2218 C2217 1.362 . S
C2218 C2221 1.409 . S
C2219 H2211 0.930 . S
C2219 C2220 1.355 . S
C2219 C2221 1.415 . S
C2220 C2219 1.355 . S
C2220 C2222 1.419 . S
C2221 C2216 1.425 . S
C2221 C2218 1.409 . S
C2221 C2219 1.415 . S
C2222 H2212 0.930 . S
C2222 C2220 1.419 . S
C2222 C2223 1.362 . S
C2223 H2213 0.930 . S
C2223 C2216 1.409 . S
C2223 C2222 1.362 . S
H2224 C2230 0.930 . S
H2225 C2233 0.930 . S
H2226 C2234 0.930 . S
H2227 C2235 0.930 . S
H2228 C2238 0.930 . S
H2229 C2239 0.930 . S
C2230 H2224 0.930 . S
C2230 C2231 1.355 . S
C2230 C2232 1.415 . S
C2231 C2230 1.355 . S
C2231 C2233 1.419 . S
C2232 C2230 1.415 . S
C2232 C2237 1.425 . S
C2232 C2239 1.409 . S
C2233 H2225 0.930 . S
C2233 C2231 1.419 . S
C2233 C2234 1.362 . S
C2234 H2226 0.930 . S
C2234 C2233 1.362 . S
C2234 C2237 1.409 . S
C2235 H2227 0.930 . S
C2235 C2236 1.355 . S
C2235 C2237 1.415 . S
C2236 C2235 1.355 . S
C2236 C2238 1.419 . S
C2237 C2232 1.425 . S
C2237 C2234 1.409 . S
C2237 C2235 1.415 . S
C2238 H2228 0.930 . S
C2238 C2236 1.419 . S
C2238 C2239 1.362 . S
C2239 H2229 0.930 . S
C2239 C2232 1.409 . S
C2239 C2238 1.362 . S
H2240 C2246 0.930 . S
H2241 C2249 0.930 . S
H2242 C2250 0.930 . S
H2243 C2251 0.930 . S
H2244 C2254 0.930 . S
H2245 C2255 0.930 . S
C2246 H2240 0.930 . S
C2246 C2247 1.355 . S
C2246 C2248 1.415 . S
C2247 C2246 1.355 . S
C2247 C2249 1.419 . S
C2248 C2246 1.415 . S
C2248 C2253 1.425 . S
C2248 C2255 1.409 . S
C2249 H2241 0.930 . S
C2249 C2247 1.419 . S
C2249 C2250 1.362 . S
C2250 H2242 0.930 . S
C2250 C2249 1.362 . S
C2250 C2253 1.409 . S
C2251 H2243 0.930 . S
C2251 C2252 1.355 . S
C2251 C2253 1.415 . S
C2252 C2251 1.355 . S
C2252 C2254 1.419 . S
C2253 C2248 1.425 . S
C2253 C2250 1.409 . S
C2253 C2251 1.415 . S
C2254 H2244 0.930 . S
C2254 C2252 1.419 . S
C2254 C2255 1.362 . S
C2255 H2245 0.930 . S
C2255 C2248 1.409 . S
C2255 C2254 1.362 . S
H2256 C2262 0.930 . S
H2257 C2265 0.930 . S
H2258 C2266 0.930 . S
H2259 C2267 0.930 . S
H2260 C2270 0.930 . S
H2261 C2271 0.930 . S
C2262 H2256 0.930 . S
C2262 C2263 1.355 . S
C2262 C2264 1.415 . S
C2263 C2262 1.355 . S
C2263 C2265 1.419 . S
C2264 C2262 1.415 . S
C2264 C2269 1.425 . S
C2264 C2271 1.409 . S
C2265 H2257 0.930 . S
C2265 C2263 1.419 . S
C2265 C2266 1.362 . S
C2266 H2258 0.930 . S
C2266 C2265 1.362 . S
C2266 C2269 1.409 . S
C2267 H2259 0.930 . S
C2267 C2268 1.355 . S
C2267 C2269 1.415 . S
C2268 C2267 1.355 . S
C2268 C2270 1.419 . S
C2269 C2264 1.425 . S
C2269 C2266 1.409 . S
C2269 C2267 1.415 . S
C2270 H2260 0.930 . S
C2270 C2268 1.419 . S
C2270 C2271 1.362 . S
C2271 H2261 0.930 . S
C2271 C2264 1.409 . S
C2271 C2270 1.362 . S
H2272 C2278 0.930 . S
H2273 C2281 0.930 . S
H2274 C2282 0.930 . S
H2275 C2283 0.930 . S
H2276 C2286 0.930 . S
H2277 C2287 0.930 . S
C2278 H2272 0.930 . S
C2278 C2279 1.355 . S
C2278 C2280 1.415 . S
C2279 C2278 1.355 . S
C2279 C2281 1.419 . S
C2280 C2278 1.415 . S
C2280 C2285 1.425 . S
C2280 C2287 1.409 1_545 S
C2281 H2273 0.930 . S
C2281 C2279 1.419 . S
C2281 C2282 1.362 . S
C2282 H2274 0.930 . S
C2282 C2281 1.362 . S
C2282 C2285 1.409 . S
C2283 H2275 0.930 . S
C2283 C2284 1.355 1_545 S
C2283 C2285 1.415 . S
C2284 C2283 1.355 1_565 S
C2284 C2286 1.419 . S
C2285 C2280 1.425 . S
C2285 C2282 1.409 . S
C2285 C2283 1.415 . S
C2286 H2276 0.930 . S
C2286 C2284 1.419 . S
C2286 C2287 1.362 . S
C2287 H2277 0.930 . S
C2287 C2280 1.409 1_565 S
C2287 C2286 1.362 . S
H2288 C2294 0.930 . S
H2289 C2297 0.930 . S
H2290 C2298 0.930 . S
H2291 C2299 0.930 . S
H2292 C2302 0.930 . S
H2293 C2303 0.930 . S
C2294 H2288 0.930 . S
C2294 C2295 1.355 . S
C2294 C2296 1.415 . S
C2295 C2294 1.355 . S
C2295 C2297 1.419 . S
C2296 C2294 1.415 . S
C2296 C2301 1.425 . S
C2296 C2303 1.409 . S
C2297 H2289 0.930 . S
C2297 C2295 1.419 . S
C2297 C2298 1.362 . S
C2298 H2290 0.930 . S
C2298 C2297 1.362 . S
C2298 C2301 1.409 . S
C2299 H2291 0.930 . S
C2299 C2300 1.355 . S
C2299 C2301 1.415 . S
C2300 C2299 1.355 . S
C2300 C2302 1.419 . S
C2301 C2296 1.425 . S
C2301 C2298 1.409 . S
C2301 C2299 1.415 . S
C2302 H2292 0.930 . S
C2302 C2300 1.419 . S
C2302 C2303 1.362 . S
C2303 H2293 0.930 . S
C2303 C2296 1.409 . S
C2303 C2302 1.362 . S
H2304 C2310 0.930 . S
H2305 C2313 0.930 . S
H2306 C2314 0.930 . S
H2307 C2315 0.930 . S
H2308 C2318 0.930 . S
H2309 C2319 0.930 . S
C2310 H2304 0.930 . S
C2310 C2311 1.355 . S
C2310 C2312 1.415 . S
C2311 C2310 1.355 . S
C2311 C2313 1.419 . S
C2312 C2310 1.415 . S
C2312 C2317 1.425 . S
C2312 C2319 1.409 . S
C2313 H2305 0.930 . S
C2313 C2311 1.419 . S
C2313 C2314 1.362 . S
C2314 H2306 0.930 . S
C2314 C2313 1.362 . S
C2314 C2317 1.409 . S
C2315 H2307 0.930 . S
C2315 C2316 1.355 . S
C2315 C2317 1.415 . S
C2316 C2315 1.355 . S
C2316 C2318 1.419 . S
C2317 C2312 1.425 . S
C2317 C2314 1.409 . S
C2317 C2315 1.415 . S
C2318 H2308 0.930 . S
C2318 C2316 1.419 . S
C2318 C2319 1.362 . S
C2319 H2309 0.930 . S
C2319 C2312 1.409 . S
C2319 C2318 1.362 . S
H2320 C2326 0.930 . S
H2321 C2329 0.930 . S
H2322 C2330 0.930 . S
H2323 C2331 0.930 . S
H2324 C2334 0.930 . S
H2325 C2335 0.930 . S
C2326 H2320 0.930 . S
C2326 C2327 1.355 . S
C2326 C2328 1.415 . S
C2327 C2326 1.355 . S
C2327 C2329 1.419 . S
C2328 C2326 1.415 . S
C2328 C2333 1.425 . S
C2328 C2335 1.409 . S
C2329 H2321 0.930 . S
C2329 C2327 1.419 . S
C2329 C2330 1.362 . S
C2330 H2322 0.930 . S
C2330 C2329 1.362 . S
C2330 C2333 1.409 . S
C2331 H2323 0.930 . S
C2331 C2332 1.355 . S
C2331 C2333 1.415 . S
C2332 C2331 1.355 . S
C2332 C2334 1.419 . S
C2333 C2328 1.425 . S
C2333 C2330 1.409 . S
C2333 C2331 1.415 . S
C2334 H2324 0.930 . S
C2334 C2332 1.419 . S
C2334 C2335 1.362 . S
C2335 H2325 0.930 . S
C2335 C2328 1.409 . S
C2335 C2334 1.362 . S
C1063 N80 1.501 . S
C1068 N14 1.539 . S
C1079 N38 1.508 . S
C1084 N113 1.500 . S
C1095 N212 1.577 . S
C1100 N146 1.558 . S
C1111 N245 1.528 . S
C1116 N179 1.492 . S
C1127 N278 1.517 . S
C1132 N344 1.496 . S
C1143 N302 1.508 . S
C1148 N377 1.501 . S
C1159 N476 1.516 . S
C1164 N410 1.542 . S
C1175 N509 1.545 . S
C1180 N443 1.507 . S
C1191 N608 1.517 . S
C1196 N542 1.498 . S
C1207 N641 1.527 . S
C1212 N566 1.544 . S
C1223 N674 1.533 . S
C1228 N740 1.516 . S
C1239 N773 1.499 . S
C1244 N707 1.533 . S
C1255 N806 1.521 . S
C1260 N872 1.496 . S
C1271 N830 1.531 . S
C1276 N905 1.534 . S
C1287 N1004 1.572 . S
C1292 N938 1.570 . S
C1303 N971 1.543 . S
C1308 N1037 1.509 . S
C1319 N5 1.502 . S
C1324 N335 1.485 . S
C1335 N368 1.503 . S
C1340 N47 1.500 1_565 S
C1351 N71 1.474 1_565 S
C1356 N269 1.503 . S
C1367 N104 1.507 . S
C1372 N311 1.513 . S
C1383 N137 1.482 . S
C1388 N467 1.487 . S
C1399 N500 1.503 . S
C1404 N170 1.529 . S
C1415 N401 1.495 . S
C1420 N203 1.472 . S
C1431 N236 1.509 . S
C1436 N434 1.526 . S
C1447 N863 1.480 . S
C1452 N533 1.495 . S
C1463 N575 1.496 1_565 S
C1468 N896 1.491 . S
C1479 N599 1.494 1_565 S
C1484 N797 1.495 . S
C1495 N839 1.508 . S
C1500 N632 1.512 . S
C1511 N665 1.489 . S
C1516 N995 1.471 . S
C1527 N698 1.525 . S
C1532 N1028 1.501 . S
C1543 N731 1.491 . S
C1548 N929 1.470 . S
C1559 N764 1.503 . S
C1564 N962 1.529 . S
C1575 C17 1.577 . S
C1580 C50 1.569 . S
C1591 C83 1.565 . S
C1596 C116 1.561 . S
C1607 C182 1.548 . S
C1612 C149 1.557 . S
C1623 C215 1.546 . S
C1628 C248 1.539 . S
C1639 C281 1.539 . S
C1644 C314 1.519 . S
C1655 C380 1.529 . S
C1660 C347 1.530 . S
C1671 C446 1.531 . S
C1676 C413 1.529 . S
C1687 C479 1.531 . S
C1692 C512 1.535 . S
C1703 C545 1.571 . S
C1708 C578 1.563 . S
C1719 C644 1.544 . S
C1724 C611 1.552 . S
C1735 C677 1.544 . S
C1740 C710 1.536 . S
C1751 C776 1.564 . S
C1756 C743 1.568 . S
C1767 C809 1.577 . S
C1772 C842 1.570 . S
C1783 C908 1.565 . S
C1788 C875 1.567 . S
C1799 C974 1.552 . S
C1804 C941 1.545 . S
C1815 C1007 1.543 . S
C1820 C1040 1.550 . S
C1831 C28 1.557 . S
C1836 C160 1.557 . S
C1847 C985 1.531 . S
C1852 C41 1.548 . S
C1863 C94 1.517 . S
C1868 C490 1.517 . S
C1879 C127 1.537 . S
C1884 C787 1.537 . S
C1895 C193 1.575 . S
C1900 C833 1.580 . S
C1911 C226 1.556 . S
C1916 C358 1.556 . S
C1927 C655 1.562 . S
C1932 C259 1.562 . S
C1943 C424 1.528 . S
C1948 C292 1.528 . S
C1959 C721 1.580 . S
C1964 C305 1.586 . S
C1975 C1051 1.527 . S
C1980 C391 1.527 . S
C1991 C569 1.581 . S
C1996 C457 1.576 . S
C2007 C523 1.575 . S
C2012 C919 1.575 . S
C2023 C556 1.546 . S
C2028 C688 1.546 . S
C2039 C622 1.562 . S
C2044 C1018 1.562 . S
C2055 C886 1.541 . S
C2060 C754 1.541 . S
C2071 C952 1.563 . S
C2076 C820 1.563 . S
C2087 C140 0.657 . S
C2092 C8 0.657 . S
C2103 C61 0.655 . S
C2108 C965 0.672 . S
C2119 C470 0.660 . S
C2124 C74 0.659 . S
C2135 C107 0.635 . S
C2140 C767 0.635 . S
C2151 C853 0.670 . S
C2156 C173 0.655 . S
C2167 C206 0.686 . S
C2172 C338 0.687 . S
C2183 C239 0.658 . S
C2188 C635 0.658 . S
C2199 C272 0.644 . S
C2204 C404 0.644 . S
C2215 C325 0.658 . S
C2220 C701 0.640 . S
C2231 C1031 0.629 . S
C2236 C371 0.630 . S
C2247 C589 0.629 . S
C2252 C437 0.635 . S
C2263 C503 0.653 . S
C2268 C899 0.653 . S
C2279 C536 0.676 . S
C2284 C668 0.676 . S
C2295 C602 0.649 . S
C2300 C998 0.649 . S
C2311 C734 0.665 . S
C2316 C866 0.665 . S
C2327 C800 0.656 . S
C2332 C932 0.657 . S
