# Generated by pormake.
# Topology lhb, (8)-cn, num edge types: 1
# Building blocks:
#     Node 0, Type 0, BuildingBlock: LIZSOE_clean_sbu_0, # of connection points: 8
#     Node 1, Type 0, BuildingBlock: LIZSOE_clean_sbu_0, # of connection points: 8
#     Node 2, Type 0, BuildingBlock: LIZSOE_clean_sbu_0, # of connection points: 8
#     Node 3, Type 0, BuildingBlock: LIZSOE_clean_sbu_0, # of connection points: 8
#     Node 4, Type 0, BuildingBlock: LIZSOE_clean_sbu_0, # of connection points: 8
#     Node 5, Type 0, BuildingBlock: LIZSOE_clean_sbu_0, # of connection points: 8
#     Node 6, Type 0, BuildingBlock: LIZSOE_clean_sbu_0, # of connection points: 8
#     Node 7, Type 0, BuildingBlock: LIZSOE_clean_sbu_0, # of connection points: 8
#     Edge 8, Type (0, 0), BuildingBlock: OJICUG_clean_linker_0, # of connection points: 2
#     Edge 9, Type (0, 0), BuildingBlock: OJICUG_clean_linker_0, # of connection points: 2
#     Edge 10, Type (0, 0), BuildingBlock: OJICUG_clean_linker_0, # of connection points: 2
#     Edge 11, Type (0, 0), BuildingBlock: OJICUG_clean_linker_0, # of connection points: 2
#     Edge 12, Type (0, 0), BuildingBlock: OJICUG_clean_linker_0, # of connection points: 2
#     Edge 13, Type (0, 0), BuildingBlock: OJICUG_clean_linker_0, # of connection points: 2
#     Edge 14, Type (0, 0), BuildingBlock: OJICUG_clean_linker_0, # of connection points: 2
#     Edge 15, Type (0, 0), BuildingBlock: OJICUG_clean_linker_0, # of connection points: 2
#     Edge 16, Type (0, 0), BuildingBlock: OJICUG_clean_linker_0, # of connection points: 2
#     Edge 17, Type (0, 0), BuildingBlock: OJICUG_clean_linker_0, # of connection points: 2
#     Edge 18, Type (0, 0), BuildingBlock: OJICUG_clean_linker_0, # of connection points: 2
#     Edge 19, Type (0, 0), BuildingBlock: OJICUG_clean_linker_0, # of connection points: 2
#     Edge 20, Type (0, 0), BuildingBlock: OJICUG_clean_linker_0, # of connection points: 2
#     Edge 21, Type (0, 0), BuildingBlock: OJICUG_clean_linker_0, # of connection points: 2
#     Edge 22, Type (0, 0), BuildingBlock: OJICUG_clean_linker_0, # of connection points: 2
#     Edge 23, Type (0, 0), BuildingBlock: OJICUG_clean_linker_0, # of connection points: 2
#     Edge 24, Type (0, 0), BuildingBlock: OJICUG_clean_linker_0, # of connection points: 2
#     Edge 25, Type (0, 0), BuildingBlock: OJICUG_clean_linker_0, # of connection points: 2
#     Edge 26, Type (0, 0), BuildingBlock: OJICUG_clean_linker_0, # of connection points: 2
#     Edge 27, Type (0, 0), BuildingBlock: OJICUG_clean_linker_0, # of connection points: 2
#     Edge 28, Type (0, 0), BuildingBlock: OJICUG_clean_linker_0, # of connection points: 2
#     Edge 29, Type (0, 0), BuildingBlock: OJICUG_clean_linker_0, # of connection points: 2
#     Edge 30, Type (0, 0), BuildingBlock: OJICUG_clean_linker_0, # of connection points: 2
#     Edge 31, Type (0, 0), BuildingBlock: OJICUG_clean_linker_0, # of connection points: 2
#     Edge 32, Type (0, 0), BuildingBlock: OJICUG_clean_linker_0, # of connection points: 2
#     Edge 33, Type (0, 0), BuildingBlock: OJICUG_clean_linker_0, # of connection points: 2
#     Edge 34, Type (0, 0), BuildingBlock: OJICUG_clean_linker_0, # of connection points: 2
#     Edge 35, Type (0, 0), BuildingBlock: OJICUG_clean_linker_0, # of connection points: 2
#     Edge 36, Type (0, 0), BuildingBlock: OJICUG_clean_linker_0, # of connection points: 2
#     Edge 37, Type (0, 0), BuildingBlock: OJICUG_clean_linker_0, # of connection points: 2
#     Edge 38, Type (0, 0), BuildingBlock: OJICUG_clean_linker_0, # of connection points: 2
#     Edge 39, Type (0, 0), BuildingBlock: OJICUG_clean_linker_0, # of connection points: 2
# Relax obj value: 0.177
# Max RMSD: 0.225
# Mean RMSD: 0.225
data_MOF--net-lhb--node1-LIZSOE_clean_sbu_0--edge1-OJICUG_clean_linker_0
_symmetry_space_group_name_H-M    P1
_symmetry_Int_Tables_number       1
_symmetry_cell_setting            triclinic
loop_
_symmetry_equiv_pos_as_xyz
'x, y, z'
_cell_length_a     34.617101
_cell_length_b     10.970886
_cell_length_c     28.697968
_cell_angle_alpha  90.186265
_cell_angle_beta   90.599519
_cell_angle_gamma 90.0392
loop_
_atom_site_label
_atom_site_type_symbol
_atom_site_fract_x
_atom_site_fract_y
_atom_site_fract_z
_atom_type_partial_charge
Co0 Co 0.09193 0.30977 0.07713 0.0
N1 N 0.13563 0.38904 1.06464 0.0
C2 C 0.13062 0.48538 1.03608 0.0
N3 N 0.19247 0.45003 1.03887 0.0
C4 C 0.17385 0.37141 1.06681 0.0
C5 C 0.16566 0.52294 1.01985 0.0
Co6 Co 0.96293 0.89662 1.05993 0.0
N7 N 0.91598 0.8516 1.03879 0.0
N8 N 0.85432 0.81482 1.02312 0.0
C9 C 0.87449 0.78324 0.98535 0.0
C10 C 0.91264 0.80417 0.99543 0.0
C11 C 0.87995 0.85263 1.05541 0.0
Co12 Co 0.02876 0.08987 0.08854 0.0
C13 C 0.99748 0.83079 0.1095 0.0
H14 H 0.9365 0.79105 0.97191 0.0
O15 O 0.04588 0.26176 0.08976 0.0
O16 O 0.99006 0.10909 0.1409 0.0
O17 O 0.07166 1.04895 0.13702 0.0
O18 O 0.0656 1.04425 1.03614 0.0
O19 O 0.10251 0.20579 1.02534 0.0
O20 O 0.94186 1.02944 0.09846 0.0
O21 O 1.01086 0.91556 0.08138 0.0
O22 O 0.96608 0.99954 1.00674 0.0
O23 O 0.11491 0.19412 0.11738 0.0
O24 O 0.08283 0.39511 0.12786 0.0
O25 O 0.9885 0.15999 1.04289 0.0
O26 O 0.96086 0.80824 0.10935 0.0
C27 C 0.10497 0.10342 0.1423 0.0
C28 C 0.86918 0.89042 0.10356 0.0
H29 H 0.89156 0.86044 0.12868 0.0
H30 H 0.86625 0.99093 0.10435 0.0
H31 H 0.84112 0.84996 0.11373 0.0
C32 C 0.95454 1.07371 0.13712 0.0
C33 C 0.09349 0.09648 1.01537 0.0
H34 H 0.10274 0.51938 1.02483 0.0
H35 H 0.22505 0.2888 0.09769 0.0
H36 H 0.18537 0.18587 0.08532 0.0
H37 H 0.18272 0.29184 0.13328 0.0
C38 C 0.19317 0.27882 0.09727 0.0
C39 C 0.04881 0.35019 0.12046 0.0
C40 C 0.96776 0.11417 1.01043 0.0
H41 H 0.17079 0.59077 0.99327 0.0
H42 H 0.86236 0.75491 0.95217 0.0
Co43 Co 0.21809 0.53552 0.3209 0.0
N44 N 0.16925 0.59968 0.31097 0.0
C45 C 0.15425 0.67223 0.34411 0.0
N46 N 0.10702 0.63155 0.29488 0.0
C47 C 0.14017 0.58062 0.28014 0.0
C48 C 0.11599 0.69107 0.33458 0.0
Co49 Co 0.34635 0.10753 0.32756 0.0
N50 N 0.39527 1.04571 0.32869 0.0
N51 N 0.45868 1.01358 0.32452 0.0
C52 C 0.44084 0.90612 0.31802 0.0
C53 C 0.40175 0.92625 0.32064 0.0
C54 C 0.43075 0.09703 0.33117 0.0
Co55 Co 0.28004 0.32452 0.3334 0.0
C56 C 0.2958 1.0539 0.35705 0.0
H57 H 0.37927 0.85916 0.31491 0.0
O58 O 0.26526 0.49757 0.33213 0.0
O59 O 0.31684 0.35767 0.38977 0.0
O60 O 0.23507 0.29748 0.38183 0.0
O61 O 0.24636 0.27388 0.27873 0.0
O62 O 0.19656 0.3823 0.297 0.0
O63 O 0.35864 0.20737 0.37663 0.0
O64 O 0.29695 0.14926 0.32955 0.0
O65 O 0.36307 0.22554 0.28357 0.0
O66 O 0.20446 0.48181 0.3786 0.0
O67 O 0.23579 0.56955 0.26436 0.0
O68 O 0.32156 0.37814 0.28774 0.0
O69 O 0.32856 1.00502 0.36902 0.0
C70 C 0.21018 0.37848 0.39767 0.0
C71 C 0.4392 0.22895 0.34234 0.0
H72 H 0.45347 0.23282 0.37695 0.0
H73 H 0.41364 0.28834 0.34156 0.0
H74 H 0.46017 0.26925 0.31817 0.0
C75 C 0.34791 0.29761 0.4004 0.0
C76 C 0.21023 0.28961 0.27697 0.0
H77 H 0.16957 0.70126 0.37527 0.0
H78 H 0.12766 0.43615 0.23108 0.0
H79 H 0.13198 0.58299 0.20616 0.0
H80 H 0.17493 0.50296 0.22459 0.0
C81 C 0.14443 0.5217 0.2331 0.0
C82 C 0.24839 0.58491 0.30703 0.0
C83 C 0.35263 0.33204 0.27172 0.0
H84 H 0.09541 0.73363 0.35768 0.0
H85 H 0.45496 0.82126 0.30912 0.0
Co86 Co 0.72347 1.0254 0.31023 0.0
N87 N 0.67657 0.08659 0.2886 0.0
C88 C 0.66481 1.07818 0.2437 0.0
N89 N 0.61344 0.12247 0.28455 0.0
C90 C 0.64501 0.11967 0.31238 0.0
C91 C 0.62596 0.09918 0.24121 0.0
Co92 Co 0.84563 0.58668 0.31296 0.0
N93 N 0.89181 0.5122 0.30238 0.0
N94 N 0.95377 0.46803 0.28992 0.0
C95 C 0.93307 0.42684 0.25333 0.0
C96 C 0.89498 0.45282 0.26138 0.0
C97 C 0.928 0.51502 0.31997 0.0
Co98 Co 0.78266 0.80964 0.32818 0.0
C99 C 0.79814 0.53825 0.3499 0.0
H100 H 0.8714 0.44047 0.23679 0.0
O101 O 0.76888 0.98384 0.32919 0.0
O102 O 0.82279 0.83411 0.38216 0.0
O103 O 0.73725 0.79135 0.37718 0.0
O104 O 0.74797 0.75434 0.2741 0.0
O105 O 0.70165 0.87854 0.286 0.0
O106 O 0.86521 0.68831 0.36105 0.0
O107 O 0.79819 0.63536 0.32344 0.0
O108 O 0.86052 0.70584 0.26852 0.0
O109 O 0.70388 0.97102 0.36594 0.0
O110 O 0.74816 1.05412 0.25698 0.0
O111 O 0.82316 0.86422 0.28212 0.0
O112 O 0.83102 0.48364 0.35623 0.0
C113 C 0.71034 0.87231 0.38867 0.0
C114 C 0.9392 0.57055 0.36568 0.0
H115 H 0.94275 0.66969 0.36044 0.0
H116 H 0.96719 0.53323 0.37833 0.0
H117 H 0.91678 0.55234 0.39208 0.0
C118 C 0.85545 0.77595 0.38772 0.0
C119 C 0.71265 0.77949 0.26945 0.0
H120 H 0.6824 1.04537 0.21538 0.0
H121 H 0.62267 0.22592 0.36927 0.0
H122 H 0.63972 1.07751 0.38507 0.0
H123 H 0.67417 0.19521 0.37257 0.0
C124 C 0.6455 0.15714 0.36272 0.0
C125 C 0.75493 1.0706 0.30146 0.0
C126 C 0.85199 0.81679 0.26183 0.0
H127 H 0.60764 0.08407 0.21089 0.0
H128 H 0.94503 0.39405 0.2209 0.0
Co129 Co 0.09792 0.76692 0.59068 0.0
N130 N 0.14498 0.84042 0.5862 0.0
C131 C 0.14616 0.94357 0.56075 0.0
N132 N 0.20619 0.88568 0.57016 0.0
C133 C 0.18223 0.80859 0.59206 0.0
C134 C 0.18376 0.9711 0.55044 0.0
Co135 Co 0.96168 0.37418 0.55323 0.0
N136 N 0.91336 0.34721 0.52842 0.0
N137 N 0.85064 0.34389 0.51052 0.0
C138 C 0.87007 0.3227 0.47118 0.0
C139 C 0.90869 0.32335 0.48242 0.0
C140 C 0.87716 0.35433 0.54494 0.0
Co141 Co 0.03042 0.5516 0.59074 0.0
C142 C 0.99327 0.29263 0.60313 0.0
H143 H 0.93214 0.31339 0.45808 0.0
O144 O 0.05046 0.72166 0.59569 0.0
O145 O 0.9902 0.56665 0.64203 0.0
O146 O 0.07211 0.49529 0.64025 0.0
O147 O 0.0685 0.51208 0.53868 0.0
O148 O 0.11276 0.65856 0.54246 0.0
O149 O 0.94193 0.50107 0.59587 0.0
O150 O 1.00964 0.37966 0.57827 0.0
O151 O 0.96939 0.48612 0.50399 0.0
O152 O 0.11431 0.65129 0.63356 0.0
O153 O 0.08284 0.85686 0.63853 0.0
O154 O 0.99165 0.63589 0.54602 0.0
O155 O 0.95651 0.27383 0.59855 0.0
C156 C 0.10427 0.55138 0.65216 0.0
C157 C 0.86709 0.37095 0.5951 0.0
H158 H 0.88954 0.33183 0.61818 0.0
H159 H 0.86396 0.46969 0.60205 0.0
H160 H 0.83907 0.32655 0.60285 0.0
C161 C 0.95424 0.53703 0.63597 0.0
C162 C 0.1009 0.55725 0.52613 0.0
H163 H 0.12094 0.98977 0.54708 0.0
H164 H 0.22755 0.69666 0.62241 0.0
H165 H 0.18299 0.61857 0.60801 0.0
H166 H 0.18518 0.72251 0.65677 0.0
C167 C 0.19562 0.70466 0.62114 0.0
C168 C 0.04976 0.81381 0.62484 0.0
C169 C 0.9716 0.59911 0.51124 0.0
H170 H 0.1936 1.04136 0.52693 0.0
H171 H 0.85731 0.31408 0.4367 0.0
Co172 Co 0.21088 0.99657 0.79306 0.0
N173 N 0.16596 1.03652 0.76616 0.0
C174 C 0.16207 1.0328 0.71939 0.0
N175 N 0.10638 0.0919 0.74692 0.0
C176 C 0.13201 1.0769 0.78196 0.0
C177 C 0.12512 1.06502 0.70748 0.0
Co178 Co 0.35929 0.68299 0.85873 0.0
N179 N 0.41145 0.68749 0.86104 0.0
N180 N 0.47016 0.66122 0.8913 0.0
C181 C 0.46877 0.77129 0.87059 0.0
C182 C 0.43299 0.78701 0.85211 0.0
C183 C 0.43524 0.61038 0.88386 0.0
Co184 Co 0.27842 0.82012 0.84076 0.0
C185 C 0.31912 0.55336 0.84599 0.0
H186 H 0.42301 0.8691 0.83516 0.0
O187 O 0.25598 0.97809 0.81841 0.0
O188 O 0.3072 0.89881 0.89834 0.0
O189 O 0.23149 0.80842 0.88578 0.0
O190 O 0.24837 0.71352 0.79221 0.0
O191 O 0.20342 0.84177 0.76963 0.0
O192 O 0.35942 0.85062 0.86698 0.0
O193 O 0.30591 0.66108 0.86051 0.0
O194 O 0.36183 0.71089 0.79344 0.0
O195 O 0.18911 0.9381 0.84984 0.0
O196 O 0.21738 0.14087 0.81759 0.0
O197 O 0.32067 0.86315 0.79218 0.0
O198 O 0.35599 0.53313 0.84664 0.0
C199 C 0.1988 0.86955 0.88418 0.0
C200 C 0.42414 0.48411 0.89886 0.0
H201 H 0.3955 0.48417 0.91558 0.0
H202 H 0.44571 0.44479 0.92321 0.0
H203 H 0.42216 0.42437 0.86765 0.0
C204 C 0.34391 0.88605 0.90292 0.0
C205 C 0.21652 0.73512 0.77043 0.0
H206 H 0.18428 1.00238 0.69579 0.0
H207 H 0.09846 0.15932 0.8367 0.0
H208 H 0.11315 1.00475 0.84686 0.0
H209 H 0.14794 0.12681 0.8526 0.0
C210 C 0.12251 0.09352 0.83252 0.0
C211 C 0.24937 0.09185 0.83127 0.0
C212 C 0.35009 0.80869 0.77486 0.0
H213 H 0.112 1.05894 0.67316 0.0
H214 H 0.49255 0.83488 0.86759 0.0
Co215 Co 0.84508 0.11501 0.82189 0.0
N216 N 0.89168 1.05541 0.80665 0.0
C217 C 0.89145 0.97357 0.77143 0.0
N218 N 0.95198 1.00655 0.78902 0.0
C219 C 0.92913 1.07114 0.81757 0.0
C220 C 0.92847 0.94395 0.76026 0.0
Co221 Co 0.71343 0.53447 0.81188 0.0
N222 N 0.66525 0.59533 0.80608 0.0
N223 N 0.60514 0.63645 0.82703 0.0
C224 C 0.60485 0.60658 0.78143 0.0
C225 C 0.64205 0.58301 0.76841 0.0
C226 C 0.64227 0.6347 0.84079 0.0
Co227 Co 0.77935 0.31957 0.83475 0.0
C228 C 0.76107 0.59593 0.84547 0.0
H229 H 0.65096 0.5466 0.73514 0.0
O230 O 0.79717 0.14492 0.83783 0.0
O231 O 0.73695 0.29812 0.88649 0.0
O232 O 0.81938 0.36089 0.88592 0.0
O233 O 0.81913 0.36569 0.78549 0.0
O234 O 0.84417 0.19241 0.7624 0.0
O235 O 0.6983 0.45178 0.86479 0.0
O236 O 0.76231 0.49203 0.82272 0.0
O237 O 0.69764 0.39682 0.77778 0.0
O238 O 0.86686 0.26111 0.85043 0.0
O239 O 0.84523 1.05367 0.87827 0.0
O240 O 0.74126 0.25149 0.78535 0.0
O241 O 0.72925 0.65643 0.84428 0.0
C242 C 0.85489 0.32344 0.88505 0.0
C243 C 0.65547 0.67109 0.88951 0.0
H244 H 0.68422 0.64027 0.90067 0.0
H245 H 0.63559 0.6359 0.91592 0.0
H246 H 0.65512 0.77201 0.89208 0.0
C247 C 0.70623 0.36576 0.89231 0.0
C248 C 0.84139 0.30715 0.75828 0.0
H249 H 0.86581 0.94322 0.75301 0.0
H250 H 0.97389 0.12229 0.8668 0.0
H251 H 0.94202 0.2434 0.84826 0.0
H252 H 0.92504 0.12682 0.88784 0.0
C253 C 0.94357 0.14553 0.85757 0.0
C254 C 0.80879 1.06343 0.86877 0.0
C255 C 0.70862 0.28917 0.76961 0.0
H256 H 0.93752 0.88904 0.73091 0.0
H257 H 0.57916 0.58995 0.76049 0.0
Co258 Co 0.58981 0.29034 0.57167 0.0
N259 N 0.63487 0.37289 0.56669 0.0
C260 C 0.63337 0.47697 0.54187 0.0
N261 N 0.69449 0.42796 0.54764 0.0
C262 C 0.67268 0.34627 0.57058 0.0
C263 C 0.67004 0.51113 0.52999 0.0
Co264 Co 0.46888 0.845 0.55606 0.0
N265 N 0.42181 0.78489 0.53256 0.0
N266 N 0.35827 0.75538 0.52488 0.0
C267 C 0.37276 0.77388 0.48226 0.0
C268 C 0.41179 0.79099 0.48696 0.0
C269 C 0.38878 0.75716 0.55452 0.0
Co270 Co 0.52822 1.0611 0.57852 0.0
C271 C 0.50052 0.80088 0.54761 0.0
H272 H 0.43073 0.82028 0.45945 0.0
O273 O 0.54303 0.2355 0.57702 0.0
O274 O 0.48272 1.07348 0.62746 0.0
O275 O 0.56781 1.03229 0.63295 0.0
O276 O 0.56975 1.01523 0.53153 0.0
O277 O 0.6091 0.17383 0.52763 0.0
O278 O 0.44865 0.89698 0.6121 0.0
O279 O 0.51444 0.88617 0.57626 0.0
O280 O 0.44782 0.99257 0.53357 0.0
O281 O 0.60756 0.19141 0.61972 0.0
O282 O 0.571 0.38896 0.61477 0.0
O283 O 0.49352 0.12173 0.52581 0.0
O284 O 0.49438 0.81887 0.50311 0.0
C285 C 0.59863 0.09694 0.64274 0.0
C286 C 0.386 0.73064 0.60564 0.0
H287 H 0.41349 0.69137 0.61898 0.0
H288 H 0.37972 0.81566 0.62501 0.0
H289 H 0.36199 0.66593 0.61206 0.0
C290 C 0.45537 0.99254 0.63693 0.0
C291 C 0.60042 1.06507 0.51612 0.0
H292 H 0.60688 0.51923 0.5298 0.0
H293 H 0.72036 0.23705 0.5978 0.0
H294 H 0.67478 0.15773 0.59089 0.0
H295 H 0.68144 0.26702 0.63678 0.0
C296 C 0.68855 0.24554 0.60015 0.0
C297 C 0.53938 0.33258 0.60329 0.0
C298 C 0.45838 0.09515 0.52035 0.0
H299 H 0.6779 0.58482 0.5069 0.0
H300 H 0.35576 0.78971 0.45095 0.0
Co301 Co 0.59198 0.79555 1.07119 0.0
N302 N 0.63738 0.86391 1.05839 0.0
C303 C 0.63678 0.93938 1.0214 0.0
N304 N 0.69734 0.91477 1.04079 0.0
C305 C 0.67471 0.85338 1.07046 0.0
C306 C 0.67378 0.97028 1.01017 0.0
Co307 Co 0.45553 0.3958 1.05983 0.0
N308 N 0.40804 0.35217 1.04091 0.0
N309 N 0.34676 0.34367 1.01857 0.0
C310 C 0.36773 0.29077 0.98508 0.0
C311 C 0.40552 0.29506 0.99926 0.0
C312 C 0.37153 0.37515 1.05308 0.0
Co313 Co 0.5249 0.58422 0.0848 0.0
C314 C 0.49217 0.32538 0.10636 0.0
H315 H 0.43015 0.26693 0.97898 0.0
O316 O 0.54478 0.75466 0.08395 0.0
O317 O 0.48752 0.60822 0.13874 0.0
O318 O 0.5686 0.53963 0.13276 0.0
O319 O 0.56062 0.52969 1.03135 0.0
O320 O 0.60373 0.67672 1.0258 0.0
O321 O 0.43698 0.52556 0.10073 0.0
O322 O 0.50434 0.4123 0.07835 0.0
O323 O 0.45552 0.50391 1.00821 0.0
O324 O 0.61148 0.68875 0.11619 0.0
O325 O 0.58194 0.89684 0.11674 0.0
O326 O 0.4833 0.66011 1.04141 0.0
O327 O 0.45556 0.30317 0.1083 0.0
C328 C 0.60143 0.59654 0.14001 0.0
C329 C 0.35985 0.4225 0.09983 0.0
H330 H 0.37941 0.38508 0.12703 0.0
H331 H 0.36177 0.52338 0.10002 0.0
H332 H 0.32975 0.39573 0.10795 0.0
C333 C 0.45174 0.57289 0.13768 0.0
C334 C 0.59235 0.57077 1.0149 0.0
H335 H 0.61097 0.96273 1.00182 0.0
H336 H 0.71991 0.80447 0.11957 0.0
H337 H 0.68776 0.6829 0.10204 0.0
H338 H 0.67152 0.80033 0.14187 0.0
C339 C 0.68947 0.7811 0.11094 0.0
C340 C 0.54801 0.84881 0.11212 0.0
C341 C 0.45799 0.61819 1.01295 0.0
H342 H 0.68289 1.01975 0.97958 0.0
H343 H 0.35679 0.25982 0.95158 0.0
C344 C 0.11714 0.14955 0.22629 0.0
C345 C 0.1299 0.09214 0.18526 0.0
H346 H 0.13237 0.25337 0.28754 0.0
C347 C 0.17028 0.07873 0.18019 0.0
H348 H 0.08653 0.16424 0.23146 0.0
C349 C 0.19673 0.13549 0.21141 0.0
C350 C 0.18359 0.20667 0.249 0.0
H351 H 0.18144 1.03626 0.149 0.0
H352 H 0.22728 0.13169 0.20381 0.0
C353 C 0.14355 0.20465 0.25777 0.0
C354 C 0.94435 0.93139 0.20363 0.0
C355 C 0.93221 1.03619 0.17943 0.0
H356 H 0.92814 0.77664 0.2445 0.0
C357 C 0.89393 1.07612 0.18655 0.0
H358 H 0.97345 0.89756 0.1994 0.0
C359 C 0.86801 1.00812 0.21429 0.0
C360 C 0.87926 0.89589 0.23425 0.0
H361 H 0.88323 0.15527 0.16803 0.0
H362 H 0.83858 1.03997 0.21788 0.0
C363 C 0.91814 0.86091 0.22931 0.0
C364 C 0.1172 0.40438 0.46086 0.0
C365 C 0.12885 0.48335 0.4972 0.0
H366 H 0.1349 0.30075 0.40077 0.0
C367 C 0.16885 0.49233 0.50651 0.0
H368 H 0.08678 0.39353 0.45266 0.0
C369 C 0.19632 0.43259 0.47881 0.0
C370 C 0.18516 0.3644 0.43934 0.0
H371 H 0.17928 0.55024 0.53433 0.0
H372 H 0.22662 0.45281 0.48492 0.0
C373 C 0.14495 0.34754 0.43192 0.0
C374 C 0.92001 0.82016 0.42648 0.0
C375 C 0.88087 0.78415 0.43067 0.0
H376 H 0.97953 0.79033 0.44764 0.0
C377 C 0.87219 0.70602 0.46795 0.0
H378 H 0.92834 0.87715 0.39751 0.0
C379 C 0.90161 0.65527 0.49629 0.0
C380 C 0.94106 0.67952 0.48854 0.0
H381 H 0.84291 0.67312 0.47197 0.0
H382 H 0.8935 0.59076 0.52275 0.0
C383 C 0.94969 0.76846 0.45486 0.0
C384 C 0.16806 0.49399 0.69033 0.0
C385 C 0.1285 0.52616 0.69521 0.0
H386 H 0.22768 0.53278 0.70966 0.0
C387 C 0.11959 0.5978 0.73442 0.0
H388 H 0.17662 0.4402 0.66047 0.0
C389 C 0.14883 0.65373 0.76163 0.0
C390 C 0.18857 0.63813 0.75198 0.0
H391 H 0.09003 0.62678 0.73975 0.0
H392 H 0.14007 0.71937 0.78778 0.0
C393 C 0.19776 0.54881 0.7184 0.0
C394 C 0.90878 0.32795 0.72483 0.0
C395 C 0.87116 0.37551 0.72988 0.0
H396 H 0.96531 0.34806 0.69548 0.0
C397 C 0.86391 0.49137 0.71026 0.0
H398 H 0.91623 0.24119 0.74026 0.0
C399 C 0.89222 0.55177 0.68322 0.0
C400 C 0.92922 0.5007 0.67649 0.0
H401 H 0.83573 0.5329 0.71402 0.0
H402 H 0.8844 0.63518 0.66539 0.0
C403 C 0.93736 0.39048 0.69958 0.0
C404 C 0.13444 0.86505 0.92593 0.0
C405 C 0.17441 0.89274 0.92647 0.0
H406 H 0.07767 0.90437 0.9532 0.0
C407 C 0.18694 0.98302 0.95817 0.0
H408 H 0.12318 0.8003 0.90065 0.0
C409 C 0.16059 1.04707 0.98633 0.0
C410 C 0.12055 1.02313 0.98473 0.0
H411 H 0.21694 1.01143 0.95852 0.0
H412 H 0.17157 0.11757 1.00916 0.0
C413 C 0.10807 0.92718 0.95532 0.0
C414 C 0.86972 0.21396 0.95948 0.0
C415 C 0.87926 0.30888 0.92872 0.0
H416 H 0.88989 1.07708 1.00715 0.0
C417 C 0.91778 0.35248 0.9308 0.0
H418 H 0.84072 0.17685 0.95917 0.0
C419 C 0.94631 0.29545 0.95937 0.0
C420 C 0.93743 0.19035 0.9854 0.0
H421 H 0.92669 0.42363 0.90715 0.0
H422 H 0.97586 0.32758 0.95808 0.0
C423 C 0.89831 0.15455 0.98647 0.0
C424 C 0.69019 0.1132 0.71334 0.0
C425 C 0.6798 0.20633 0.74478 0.0
H426 H 0.67142 0.99717 0.65652 0.0
C427 C 0.63988 0.22781 0.75063 0.0
H428 H 0.72039 0.09248 0.70796 0.0
C429 C 0.61175 0.16897 0.72277 0.0
C430 C 0.62217 0.08815 0.68686 0.0
H431 H 0.63026 0.29612 0.77526 0.0
H432 H 0.58205 0.19922 0.7254 0.0
C433 C 0.66178 1.05605 0.68444 0.0
C434 C 0.39473 1.02962 0.68401 0.0
C435 C 0.4333 0.9872 0.68154 0.0
H436 H 0.33836 1.01055 0.71551 0.0
C437 C 0.44354 0.89043 0.7112 0.0
H438 H 0.3848 0.09888 0.65991 0.0
C439 C 0.41621 0.83208 0.73916 0.0
C440 C 0.37761 0.87278 0.7419 0.0
H441 H 0.47205 0.8501 0.70882 0.0
H442 H 0.42561 0.75224 0.75814 0.0
C443 C 0.36761 0.97575 0.71481 0.0
C444 C 0.66103 0.50051 0.99899 0.0
C445 C 0.62099 0.48939 0.98905 0.0
H446 H 0.71954 0.46208 0.9788 0.0
C447 C 0.61051 0.4067 0.95337 0.0
H448 H 0.67067 0.56141 1.02651 0.0
C449 C 0.63914 0.34836 0.92575 0.0
C450 C 0.6794 0.36619 0.93372 0.0
H451 H 0.58032 0.39441 0.94435 0.0
H452 H 0.62968 0.29774 0.89523 0.0
C453 C 0.68944 0.43999 0.97228 0.0
C454 C 0.3883 0.65274 0.9844 0.0
C455 C 0.42594 0.69956 0.99236 0.0
H456 H 0.33198 0.67503 0.95278 0.0
C457 C 0.43148 0.82304 0.98047 0.0
H458 H 0.38207 0.55984 0.9934 0.0
C459 C 0.40199 0.89116 0.95725 0.0
C460 C 0.36518 0.8406 0.94613 0.0
H461 H 0.45947 0.86486 0.98624 0.0
H462 H 0.4092 0.98098 0.94439 0.0
C463 C 0.35875 0.72083 0.96185 0.0
C464 C 0.6652 0.55611 0.18066 0.0
C465 C 0.62555 0.58686 0.18382 0.0
H466 H 0.72382 0.59196 0.20384 0.0
C467 C 0.61525 0.66482 0.22076 0.0
H468 H 0.67477 0.49967 0.15198 0.0
C469 C 0.64345 0.72113 0.24946 0.0
C470 C 0.68339 0.70053 0.24322 0.0
H471 H 0.58553 0.69454 0.22391 0.0
H472 H 0.63384 0.78707 0.27503 0.0
C473 C 0.69365 0.61147 0.20997 0.0
C474 C 0.3681 0.5183 0.22073 0.0
C475 C 0.37928 0.40662 0.24124 0.0
H476 H 0.38239 0.66106 0.17209 0.0
C477 C 0.4173 0.36642 0.23293 0.0
H478 H 0.33925 0.55341 0.22609 0.0
C479 C 0.44288 0.43297 0.20496 0.0
C480 C 0.43092 0.53907 0.18154 0.0
H481 H 0.42713 0.28054 0.24689 0.0
H482 H 0.47116 0.39499 0.19841 0.0
C483 C 0.39324 0.58204 0.19055 0.0
C484 C 0.66921 1.01187 0.49436 0.0
C485 C 0.62931 0.99088 0.48834 0.0
H486 H 0.72688 0.97953 0.47072 0.0
C487 C 0.61839 0.89932 0.45609 0.0
H488 H 0.67916 0.07931 0.51904 0.0
C489 C 0.64631 0.84122 0.42758 0.0
C490 C 0.6862 0.86877 0.43172 0.0
H491 H 0.58808 0.87904 0.45041 0.0
H492 H 0.63628 0.7835 0.39925 0.0
C493 C 0.69699 0.95094 0.46736 0.0
C494 C 0.38884 0.15458 0.50441 0.0
C495 C 0.42856 0.17885 0.49826 0.0
H496 H 0.33065 0.18471 0.48084 0.0
C497 C 0.43809 0.27819 0.46961 0.0
H498 H 0.37981 0.08105 0.52694 0.0
C499 C 0.40913 0.34117 0.44395 0.0
C500 C 0.3699 0.30547 0.44544 0.0
H501 H 0.46804 0.3005 0.46363 0.0
H502 H 0.41814 0.40717 0.41826 0.0
C503 C 0.36014 0.21746 0.47896 0.0
C504 C 1.02057 0.64385 1.07278 0.0
C505 C 1.01696 0.71302 0.11383 0.0
H506 H 0.02762 0.46716 1.04238 0.0
C507 C 1.01472 0.65136 0.15653 0.0
H508 H 1.01969 0.6879 1.03903 0.0
C509 C 1.01802 0.52429 0.15838 0.0
C510 C 1.02302 0.4555 0.1175 0.0
H511 H 1.00928 0.70165 0.18826 0.0
H512 H 1.01961 0.48016 0.19192 0.0
C513 C 1.02256 0.5167 0.07449 0.0
C514 C 0.24716 0.81208 0.29137 0.0
C515 C 0.25314 0.71508 0.32278 0.0
H516 H 0.25329 1.0032 0.27895 0.0
C517 C 0.2602 0.74302 0.36988 0.0
H518 H 0.23984 0.79465 0.25518 0.0
C519 C 0.26563 0.8641 0.38404 0.0
C520 C 0.26592 0.95905 0.35098 0.0
H521 H 0.26292 0.67118 0.39551 0.0
H522 H 0.27504 0.88142 0.4196 0.0
C523 C 0.2534 0.93289 0.30536 0.0
C524 C 0.74993 0.29758 0.28626 0.0
C525 C 0.75723 0.20161 0.31772 0.0
H526 H 0.75369 0.48896 0.27366 0.0
C527 C 0.76335 0.23082 0.36492 0.0
H528 H 0.74294 0.27915 0.25006 0.0
C529 C 0.76733 0.35277 0.37886 0.0
C530 C 0.76706 0.44699 0.34563 0.0
H531 H 0.76687 0.15963 0.39068 0.0
H532 H 0.77681 0.37203 0.41412 0.0
C533 C 0.75442 0.41911 0.30021 0.0
C534 C 1.00676 0.97848 0.65119 0.0
C535 C 1.02527 0.91959 0.61437 0.0
H536 H 0.98371 0.14567 0.67752 0.0
C537 C 0.03555 0.98897 0.57513 0.0
H538 H 0.99865 0.92735 0.68163 0.0
C539 C 0.02998 0.11537 0.57427 0.0
C540 C 1.01257 0.17521 0.61189 0.0
H541 H 0.05076 0.94651 0.54654 0.0
H542 H 0.03763 0.16538 0.5432 0.0
C543 C 1.00007 0.10431 0.64977 0.0
C544 C 0.30114 0.22961 0.81023 0.0
C545 C 0.27777 0.18453 0.84577 0.0
H546 H 0.32807 0.38502 0.77966 0.0
C547 C 0.26599 0.26712 0.88087 0.0
H548 H 0.30934 0.17101 0.7815 0.0
C549 C 0.27585 0.39182 0.87931 0.0
C550 C 0.29715 0.43767 0.84194 0.0
H551 H 0.24624 0.23664 0.90743 0.0
H552 H 0.26739 0.45152 0.90756 0.0
C553 C 0.30998 0.35403 0.80787 0.0
C554 C 0.79256 0.73433 0.89793 0.0
C555 C 0.79339 0.67833 0.85382 0.0
H556 H 0.79116 0.90293 0.93629 0.0
C557 C 0.80142 0.75236 0.81516 0.0
H558 H 0.78607 0.68007 0.92829 0.0
C559 C 0.80064 0.87977 0.81929 0.0
C560 C 0.79552 0.93637 0.86287 0.0
H561 H 0.80207 0.71279 0.7805 0.0
H562 H 0.80485 0.93442 0.78843 0.0
C563 C 0.79292 0.86173 0.90225 0.0
C564 C 0.50122 0.5739 0.53042 0.0
C565 C 0.50249 0.66962 0.56319 0.0
H566 H 0.50962 0.38389 0.51845 0.0
C567 C 0.50189 0.64012 0.61078 0.0
H568 H 0.50001 0.59264 0.49341 0.0
C569 C 0.50446 0.51841 0.62515 0.0
C570 C 0.50968 0.42442 0.5922 0.0
H571 H 0.50088 0.71125 0.63699 0.0
H572 H 0.5083 0.49989 0.66198 0.0
C573 C 0.50476 0.45269 0.5448 0.0
C574 C 0.51761 1.01187 1.06825 0.0
C575 C 0.52036 0.94962 0.11099 0.0
H576 H 0.51171 0.1839 1.0336 0.0
C577 C 0.51612 1.01716 0.15236 0.0
H578 H 0.52205 0.96354 1.03573 0.0
C579 C 0.51145 0.14396 0.15096 0.0
C580 C 0.51183 0.20708 0.10857 0.0
H581 H 0.51937 0.97293 0.18589 0.0
H582 H 0.50639 0.19352 0.1828 0.0
C583 C 0.51425 0.13906 1.06709 0.0
C584 C 0.29655 0.49839 1.02643 0.0
C585 C 0.30764 0.37959 1.01404 0.0
H586 H 0.24919 0.61416 1.04455 0.0
C587 C 0.28011 0.29405 1.0 0.0
H588 H 0.31784 0.56693 1.03541 0.0
C589 C 0.24139 0.32264 1.00372 0.0
C590 C 0.23047 0.43542 1.02237 0.0
H591 H 0.28855 0.20331 0.98917 0.0
H592 H 0.22 0.25404 0.99553 0.0
C593 C 0.25776 0.52611 1.03099 0.0
C594 C 0.80214 0.96128 1.02923 0.0
C595 C 0.8144 0.84021 1.02388 0.0
H596 H 0.75368 0.07977 1.03866 0.0
C597 C 0.78791 0.7449 1.02155 0.0
H598 H 0.82282 1.03519 1.03073 0.0
C599 C 0.74896 0.7704 1.02568 0.0
C600 C 0.73682 0.89091 1.03296 0.0
H601 H 0.79753 0.65161 1.01736 0.0
H602 H 0.72828 0.69647 1.02417 0.0
C603 C 0.76321 0.98672 1.03355 0.0
C604 C 0.03874 0.67331 0.28312 0.0
C605 C 0.06895 0.58937 0.2847 0.0
H606 H 0.97786 0.69865 0.28471 0.0
C607 C 0.06082 0.46373 0.28617 0.0
H608 H 0.04462 0.7703 0.28325 0.0
C609 C 1.02279 0.42268 0.28654 0.0
C610 C 0.9928 0.50735 0.28665 0.0
H611 H 0.08375 0.39796 0.29012 0.0
H612 H 1.01673 0.32602 0.28866 0.0
C613 C 1.00088 0.63249 0.28428 0.0
C614 C 0.31293 0.88809 0.56566 0.0
C615 C 0.31969 0.78659 0.5368 0.0
H616 H 0.27032 0.99979 0.59879 0.0
C617 C 0.28866 0.72395 0.51641 0.0
H618 H 0.33672 0.94092 0.57989 0.0
C619 C 0.25109 0.75929 0.52649 0.0
C620 C 0.24452 0.85787 0.55665 0.0
H621 H 0.29363 0.64796 0.49305 0.0
H622 H 0.22705 0.70953 0.51129 0.0
C623 C 0.27539 0.92327 0.57572 0.0
C624 C 0.78332 0.28234 0.50238 0.0
C625 C 0.81068 0.37109 0.51395 0.0
H626 H 0.72355 0.23419 0.50324 0.0
C627 C 0.79909 0.48357 0.53256 0.0
H628 H 0.79211 0.19593 0.48753 0.0
C629 C 0.76046 0.50423 0.54239 0.0
C630 C 0.73344 0.41236 0.53363 0.0
H631 H 0.8202 0.55324 0.541 0.0
H632 H 0.7518 0.58929 0.55843 0.0
C633 C 0.74464 0.3036 0.51174 0.0
C634 C 1.0042 0.14885 0.77286 0.0
C635 C 0.99146 1.02884 0.78001 0.0
H636 H 0.05215 0.26276 0.755 0.0
C637 C 1.01633 0.93045 0.77353 0.0
H638 H 0.98475 0.22531 0.77666 0.0
C639 C 0.05389 0.95187 0.7598 0.0
C640 C 0.06657 1.07167 0.75293 0.0
H641 H 1.00641 0.83779 0.77849 0.0
H642 H 0.07355 0.87588 0.75563 0.0
C643 C 0.04192 0.17027 0.75949 0.0
C644 C 0.55072 0.51345 0.85248 0.0
C645 C 0.5737 0.61783 0.85764 0.0
H646 H 0.49613 0.43596 0.86611 0.0
C647 C 0.56658 0.69953 0.89421 0.0
H648 H 0.55748 0.44437 0.82678 0.0
C649 C 0.53407 0.68377 0.92131 0.0
C650 C 0.50543 0.6043 0.90456 0.0
H651 H 0.5846 0.77889 0.89992 0.0
H652 H 0.52657 0.75576 0.94552 0.0
C653 C 0.51662 0.505 0.87702 0.0
C654 C 0.56574 1.01813 0.33318 0.0
C655 C 0.5745 0.10358 0.29831 0.0
H656 H 0.52079 0.92293 0.36921 0.0
C657 C 0.54486 0.15454 0.27155 0.0
H658 H 0.58835 0.97181 0.35238 0.0
C659 C 0.50698 0.11984 0.27899 0.0
C660 C 0.49806 1.03916 0.31497 0.0
H661 H 0.55144 0.21827 0.24403 0.0
H662 H 0.48427 0.15674 0.25711 0.0
C663 C 0.52749 0.98723 0.34189 0.0
loop_
_geom_bond_atom_site_label_1
_geom_bond_atom_site_label_2
_geom_bond_distance
_geom_bond_site_symmetry_2
_ccdc_geom_bond_type
Co0 N1 2.034 . S
Co0 O15 2.262 . S
Co0 O19 1.958 . S
Co0 O23 1.950 1_556 S
Co0 O24 2.057 . S
N1 Co0 2.034 . S
N1 C2 1.366 . S
N1 C4 1.332 1_556 S
C2 N1 1.366 . S
C2 C5 1.377 . S
C2 H34 0.931 . S
N3 C4 1.346 . S
N3 C5 1.337 1_554 S
C4 N1 1.332 1_554 S
C4 N3 1.346 . S
C4 C38 1.361 . S
C5 C2 1.377 . S
C5 N3 1.337 1_556 S
C5 H41 0.930 . S
Co6 N7 2.034 . S
Co6 O20 1.950 1_556 S
Co6 O21 2.262 . S
Co6 O22 1.958 . S
Co6 O26 2.057 . S
N7 Co6 2.034 . S
N7 C10 1.366 . S
N7 C11 1.332 1_556 S
N8 C9 1.337 1_554 S
N8 C11 1.346 . S
C9 N8 1.337 1_556 S
C9 C10 1.377 . S
C9 H42 0.930 . S
C10 N7 1.366 . S
C10 C9 1.377 . S
C10 H14 0.931 . S
C11 N7 1.332 1_554 S
C11 N8 1.346 . S
C11 C28 1.361 . S
Co12 O15 2.097 . S
Co12 O16 2.065 1_456 S
Co12 O17 2.065 1_546 S
Co12 O18 2.042 1_545 S
Co12 O21 2.097 1_445 S
Co12 O25 2.042 1_455 S
C13 O21 1.253 . S
C13 O26 1.263 . S
H14 C10 0.931 . S
O15 Co0 2.262 . S
O15 Co12 2.097 . S
O15 C39 1.253 . S
O16 Co12 2.065 1_654 S
O16 C32 1.221 . S
O17 Co12 2.065 1_564 S
O17 C27 1.221 . S
O18 Co12 2.042 1_565 S
O18 C33 1.237 . S
O19 Co0 1.958 . S
O19 C33 1.278 1_545 S
O20 Co6 1.950 1_554 S
O20 C32 1.277 1_565 S
O21 Co6 2.262 . S
O21 Co12 2.097 1_665 S
O21 C13 1.253 . S
O22 Co6 1.958 . S
O22 C40 1.278 1_565 S
O23 Co0 1.950 1_554 S
O23 C27 1.277 1_545 S
O24 Co0 2.057 . S
O24 C39 1.263 . S
O25 Co12 2.042 1_655 S
O25 C40 1.237 . S
O26 Co6 2.057 . S
O26 C13 1.263 . S
C27 O17 1.221 . S
C27 O23 1.277 1_565 S
C28 C11 1.361 . S
C28 H29 0.960 . S
C28 H30 0.961 . S
C28 H31 0.961 . S
H29 C28 0.960 . S
H30 C28 0.961 . S
H31 C28 0.961 . S
C32 O16 1.221 . S
C32 O20 1.277 1_545 S
C33 O18 1.237 . S
C33 O19 1.278 1_565 S
H34 C2 0.931 . S
H35 C38 0.961 . S
H36 C38 0.961 . S
H37 C38 0.960 . S
C38 C4 1.361 . S
C38 H35 0.961 . S
C38 H36 0.961 . S
C38 H37 0.960 . S
C39 O15 1.253 . S
C39 O24 1.263 . S
C40 O22 1.278 1_545 S
C40 O25 1.237 . S
H41 C5 0.930 . S
H42 C9 0.930 . S
Co43 N44 2.034 . S
Co43 O58 2.262 . S
Co43 O62 1.958 . S
Co43 O66 1.950 . S
Co43 O67 2.057 . S
N44 Co43 2.034 . S
N44 C45 1.366 . S
N44 C47 1.332 . S
C45 N44 1.366 . S
C45 C48 1.377 . S
C45 H77 0.931 . S
N46 C47 1.346 . S
N46 C48 1.337 . S
C47 N44 1.332 . S
C47 N46 1.346 . S
C47 C81 1.361 . S
C48 C45 1.377 . S
C48 N46 1.337 . S
C48 H84 0.930 . S
Co49 N50 2.034 . S
Co49 O63 1.950 . S
Co49 O64 2.262 . S
Co49 O65 1.958 . S
Co49 O69 2.057 1_545 S
N50 Co49 2.034 . S
N50 C53 1.366 . S
N50 C54 1.332 1_545 S
N51 C52 1.337 . S
N51 C54 1.346 . S
C52 N51 1.337 . S
C52 C53 1.377 1_565 S
C52 H85 0.930 . S
C53 N50 1.366 . S
C53 C52 1.377 1_545 S
C53 H57 0.931 . S
C54 N50 1.332 1_565 S
C54 N51 1.346 . S
C54 C71 1.361 . S
Co55 O58 2.097 . S
Co55 O59 2.065 . S
Co55 O60 2.065 . S
Co55 O61 2.042 . S
Co55 O64 2.097 . S
Co55 O68 2.042 . S
C56 O64 1.253 1_565 S
C56 O69 1.263 . S
H57 C53 0.931 . S
O58 Co43 2.262 . S
O58 Co55 2.097 . S
O58 C82 1.253 . S
O59 Co55 2.065 . S
O59 C75 1.221 . S
O60 Co55 2.065 . S
O60 C70 1.221 . S
O61 Co55 2.042 . S
O61 C76 1.237 . S
O62 Co43 1.958 . S
O62 C76 1.278 . S
O63 Co49 1.950 . S
O63 C75 1.277 . S
O64 Co49 2.262 . S
O64 Co55 2.097 . S
O64 C56 1.253 1_545 S
O65 Co49 1.958 . S
O65 C83 1.278 . S
O66 Co43 1.950 . S
O66 C70 1.277 . S
O67 Co43 2.057 . S
O67 C82 1.263 . S
O68 Co55 2.042 . S
O68 C83 1.237 . S
O69 Co49 2.057 1_565 S
O69 C56 1.263 . S
C70 O60 1.221 . S
C70 O66 1.277 . S
C71 C54 1.361 . S
C71 H72 0.960 . S
C71 H73 0.961 . S
C71 H74 0.961 . S
H72 C71 0.960 . S
H73 C71 0.961 . S
H74 C71 0.961 . S
C75 O59 1.221 . S
C75 O63 1.277 . S
C76 O61 1.237 . S
C76 O62 1.278 . S
H77 C45 0.931 . S
H78 C81 0.961 . S
H79 C81 0.961 . S
H80 C81 0.960 . S
C81 C47 1.361 . S
C81 H78 0.961 . S
C81 H79 0.961 . S
C81 H80 0.960 . S
C82 O58 1.253 . S
C82 O67 1.263 . S
C83 O65 1.278 . S
C83 O68 1.237 . S
H84 C48 0.930 . S
H85 C52 0.930 . S
Co86 N87 2.034 . S
Co86 O101 2.262 . S
Co86 O105 1.958 . S
Co86 O109 1.950 . S
Co86 O110 2.057 1_565 S
N87 Co86 2.034 . S
N87 C88 1.366 . S
N87 C90 1.332 1_565 S
C88 N87 1.366 . S
C88 C91 1.377 1_565 S
C88 H120 0.931 . S
N89 C90 1.346 . S
N89 C91 1.337 . S
C90 N87 1.332 1_545 S
C90 N89 1.346 . S
C90 C124 1.361 . S
C91 C88 1.377 1_545 S
C91 N89 1.337 . S
C91 H127 0.930 . S
Co92 N93 2.034 . S
Co92 O106 1.950 . S
Co92 O107 2.262 . S
Co92 O108 1.958 . S
Co92 O112 2.057 . S
N93 Co92 2.034 . S
N93 C96 1.366 . S
N93 C97 1.332 . S
N94 C95 1.337 . S
N94 C97 1.346 . S
C95 N94 1.337 . S
C95 C96 1.377 . S
C95 H128 0.930 . S
C96 N93 1.366 . S
C96 C95 1.377 . S
C96 H100 0.931 . S
C97 N93 1.332 . S
C97 N94 1.346 . S
C97 C114 1.361 . S
Co98 O101 2.097 . S
Co98 O102 2.065 . S
Co98 O103 2.065 . S
Co98 O104 2.042 . S
Co98 O107 2.097 . S
Co98 O111 2.042 . S
C99 O107 1.253 . S
C99 O112 1.263 . S
H100 C96 0.931 . S
O101 Co86 2.262 . S
O101 Co98 2.097 . S
O101 C125 1.253 1_565 S
O102 Co98 2.065 . S
O102 C118 1.221 . S
O103 Co98 2.065 . S
O103 C113 1.221 . S
O104 Co98 2.042 . S
O104 C119 1.237 . S
O105 Co86 1.958 . S
O105 C119 1.278 . S
O106 Co92 1.950 . S
O106 C118 1.277 . S
O107 Co92 2.262 . S
O107 Co98 2.097 . S
O107 C99 1.253 . S
O108 Co92 1.958 . S
O108 C126 1.278 . S
O109 Co86 1.950 . S
O109 C113 1.277 . S
O110 Co86 2.057 1_545 S
O110 C125 1.263 . S
O111 Co98 2.042 . S
O111 C126 1.237 . S
O112 Co92 2.057 . S
O112 C99 1.263 . S
C113 O103 1.221 . S
C113 O109 1.277 . S
C114 C97 1.361 . S
C114 H115 0.960 . S
C114 H116 0.961 . S
C114 H117 0.961 . S
H115 C114 0.960 . S
H116 C114 0.961 . S
H117 C114 0.961 . S
C118 O102 1.221 . S
C118 O106 1.277 . S
C119 O104 1.237 . S
C119 O105 1.278 . S
H120 C88 0.931 . S
H121 C124 0.961 . S
H122 C124 0.961 . S
H123 C124 0.960 . S
C124 C90 1.361 . S
C124 H121 0.961 . S
C124 H122 0.961 . S
C124 H123 0.960 . S
C125 O101 1.253 1_545 S
C125 O110 1.263 . S
C126 O108 1.278 . S
C126 O111 1.237 . S
H127 C91 0.930 . S
H128 C95 0.930 . S
Co129 N130 2.034 . S
Co129 O144 2.262 . S
Co129 O148 1.958 . S
Co129 O152 1.950 . S
Co129 O153 2.057 . S
N130 Co129 2.034 . S
N130 C131 1.366 . S
N130 C133 1.332 . S
C131 N130 1.366 . S
C131 C134 1.377 . S
C131 H163 0.931 . S
N132 C133 1.346 . S
N132 C134 1.337 . S
C133 N130 1.332 . S
C133 N132 1.346 . S
C133 C167 1.361 . S
C134 C131 1.377 . S
C134 N132 1.337 . S
C134 H170 0.930 . S
Co135 N136 2.034 . S
Co135 O149 1.950 . S
Co135 O150 2.262 . S
Co135 O151 1.958 . S
Co135 O155 2.057 . S
N136 Co135 2.034 . S
N136 C139 1.366 . S
N136 C140 1.332 . S
N137 C138 1.337 . S
N137 C140 1.346 . S
C138 N137 1.337 . S
C138 C139 1.377 . S
C138 H171 0.930 . S
C139 N136 1.366 . S
C139 C138 1.377 . S
C139 H143 0.931 . S
C140 N136 1.332 . S
C140 N137 1.346 . S
C140 C157 1.361 . S
Co141 O144 2.097 . S
Co141 O145 2.065 1_455 S
Co141 O146 2.065 . S
Co141 O147 2.042 . S
Co141 O150 2.097 1_455 S
Co141 O154 2.042 1_455 S
C142 O150 1.253 . S
C142 O155 1.263 . S
H143 C139 0.931 . S
O144 Co129 2.262 . S
O144 Co141 2.097 . S
O144 C168 1.253 . S
O145 Co141 2.065 1_655 S
O145 C161 1.221 . S
O146 Co141 2.065 . S
O146 C156 1.221 . S
O147 Co141 2.042 . S
O147 C162 1.237 . S
O148 Co129 1.958 . S
O148 C162 1.278 . S
O149 Co135 1.950 . S
O149 C161 1.277 . S
O150 Co135 2.262 . S
O150 Co141 2.097 1_655 S
O150 C142 1.253 . S
O151 Co135 1.958 . S
O151 C169 1.278 . S
O152 Co129 1.950 . S
O152 C156 1.277 . S
O153 Co129 2.057 . S
O153 C168 1.263 . S
O154 Co141 2.042 1_655 S
O154 C169 1.237 . S
O155 Co135 2.057 . S
O155 C142 1.263 . S
C156 O146 1.221 . S
C156 O152 1.277 . S
C157 C140 1.361 . S
C157 H158 0.960 . S
C157 H159 0.961 . S
C157 H160 0.961 . S
H158 C157 0.960 . S
H159 C157 0.961 . S
H160 C157 0.961 . S
C161 O145 1.221 . S
C161 O149 1.277 . S
C162 O147 1.237 . S
C162 O148 1.278 . S
H163 C131 0.931 . S
H164 C167 0.961 . S
H165 C167 0.961 . S
H166 C167 0.960 . S
C167 C133 1.361 . S
C167 H164 0.961 . S
C167 H165 0.961 . S
C167 H166 0.960 . S
C168 O144 1.253 . S
C168 O153 1.263 . S
C169 O151 1.278 . S
C169 O154 1.237 . S
H170 C134 0.930 . S
H171 C138 0.930 . S
Co172 N173 2.034 . S
Co172 O187 2.262 . S
Co172 O191 1.958 . S
Co172 O195 1.950 . S
Co172 O196 2.057 1_565 S
N173 Co172 2.034 . S
N173 C174 1.366 . S
N173 C176 1.332 1_565 S
C174 N173 1.366 . S
C174 C177 1.377 1_565 S
C174 H206 0.931 . S
N175 C176 1.346 . S
N175 C177 1.337 . S
C176 N173 1.332 1_545 S
C176 N175 1.346 . S
C176 C210 1.361 . S
C177 C174 1.377 1_545 S
C177 N175 1.337 . S
C177 H213 0.930 . S
Co178 N179 2.034 . S
Co178 O192 1.950 . S
Co178 O193 2.262 . S
Co178 O194 1.958 . S
Co178 O198 2.057 . S
N179 Co178 2.034 . S
N179 C182 1.366 . S
N179 C183 1.332 . S
N180 C181 1.337 . S
N180 C183 1.346 . S
C181 N180 1.337 . S
C181 C182 1.377 . S
C181 H214 0.930 . S
C182 N179 1.366 . S
C182 C181 1.377 . S
C182 H186 0.931 . S
C183 N179 1.332 . S
C183 N180 1.346 . S
C183 C200 1.361 . S
Co184 O187 2.097 . S
Co184 O188 2.065 . S
Co184 O189 2.065 . S
Co184 O190 2.042 . S
Co184 O193 2.097 . S
Co184 O197 2.042 . S
C185 O193 1.253 . S
C185 O198 1.263 . S
H186 C182 0.931 . S
O187 Co172 2.262 . S
O187 Co184 2.097 . S
O187 C211 1.253 1_565 S
O188 Co184 2.065 . S
O188 C204 1.221 . S
O189 Co184 2.065 . S
O189 C199 1.221 . S
O190 Co184 2.042 . S
O190 C205 1.237 . S
O191 Co172 1.958 . S
O191 C205 1.278 . S
O192 Co178 1.950 . S
O192 C204 1.277 . S
O193 Co178 2.262 . S
O193 Co184 2.097 . S
O193 C185 1.253 . S
O194 Co178 1.958 . S
O194 C212 1.278 . S
O195 Co172 1.950 . S
O195 C199 1.277 . S
O196 Co172 2.057 1_545 S
O196 C211 1.263 . S
O197 Co184 2.042 . S
O197 C212 1.237 . S
O198 Co178 2.057 . S
O198 C185 1.263 . S
C199 O189 1.221 . S
C199 O195 1.277 . S
C200 C183 1.361 . S
C200 H201 0.960 . S
C200 H202 0.961 . S
C200 H203 0.961 . S
H201 C200 0.960 . S
H202 C200 0.961 . S
H203 C200 0.961 . S
C204 O188 1.221 . S
C204 O192 1.277 . S
C205 O190 1.237 . S
C205 O191 1.278 . S
H206 C174 0.931 . S
H207 C210 0.961 . S
H208 C210 0.961 . S
H209 C210 0.960 . S
C210 C176 1.361 . S
C210 H207 0.961 . S
C210 H208 0.961 . S
C210 H209 0.960 . S
C211 O187 1.253 1_545 S
C211 O196 1.263 . S
C212 O194 1.278 . S
C212 O197 1.237 . S
H213 C177 0.930 . S
H214 C181 0.930 . S
Co215 N216 2.034 . S
Co215 O230 2.262 . S
Co215 O234 1.958 . S
Co215 O238 1.950 . S
Co215 O239 2.057 1_545 S
N216 Co215 2.034 . S
N216 C217 1.366 . S
N216 C219 1.332 1_545 S
C217 N216 1.366 . S
C217 C220 1.377 1_545 S
C217 H249 0.931 . S
N218 C219 1.346 . S
N218 C220 1.337 . S
C219 N216 1.332 1_565 S
C219 N218 1.346 . S
C219 C253 1.361 . S
C220 C217 1.377 1_565 S
C220 N218 1.337 . S
C220 H256 0.930 . S
Co221 N222 2.034 . S
Co221 O235 1.950 . S
Co221 O236 2.262 . S
Co221 O237 1.958 . S
Co221 O241 2.057 . S
N222 Co221 2.034 . S
N222 C225 1.366 . S
N222 C226 1.332 . S
N223 C224 1.337 . S
N223 C226 1.346 . S
C224 N223 1.337 . S
C224 C225 1.377 . S
C224 H257 0.930 . S
C225 N222 1.366 . S
C225 C224 1.377 . S
C225 H229 0.931 . S
C226 N222 1.332 . S
C226 N223 1.346 . S
C226 C243 1.361 . S
Co227 O230 2.097 . S
Co227 O231 2.065 . S
Co227 O232 2.065 . S
Co227 O233 2.042 . S
Co227 O236 2.097 . S
Co227 O240 2.042 . S
C228 O236 1.253 . S
C228 O241 1.263 . S
H229 C225 0.931 . S
O230 Co215 2.262 . S
O230 Co227 2.097 . S
O230 C254 1.253 1_545 S
O231 Co227 2.065 . S
O231 C247 1.221 . S
O232 Co227 2.065 . S
O232 C242 1.221 . S
O233 Co227 2.042 . S
O233 C248 1.237 . S
O234 Co215 1.958 . S
O234 C248 1.278 . S
O235 Co221 1.950 . S
O235 C247 1.277 . S
O236 Co221 2.262 . S
O236 Co227 2.097 . S
O236 C228 1.253 . S
O237 Co221 1.958 . S
O237 C255 1.278 . S
O238 Co215 1.950 . S
O238 C242 1.277 . S
O239 Co215 2.057 1_565 S
O239 C254 1.263 . S
O240 Co227 2.042 . S
O240 C255 1.237 . S
O241 Co221 2.057 . S
O241 C228 1.263 . S
C242 O232 1.221 . S
C242 O238 1.277 . S
C243 C226 1.361 . S
C243 H244 0.960 . S
C243 H245 0.961 . S
C243 H246 0.961 . S
H244 C243 0.960 . S
H245 C243 0.961 . S
H246 C243 0.961 . S
C247 O231 1.221 . S
C247 O235 1.277 . S
C248 O233 1.237 . S
C248 O234 1.278 . S
H249 C217 0.931 . S
H250 C253 0.961 . S
H251 C253 0.961 . S
H252 C253 0.960 . S
C253 C219 1.361 . S
C253 H250 0.961 . S
C253 H251 0.961 . S
C253 H252 0.960 . S
C254 O230 1.253 1_565 S
C254 O239 1.263 . S
C255 O237 1.278 . S
C255 O240 1.237 . S
H256 C220 0.930 . S
H257 C224 0.930 . S
Co258 N259 2.034 . S
Co258 O273 2.262 . S
Co258 O277 1.958 . S
Co258 O281 1.950 . S
Co258 O282 2.057 . S
N259 Co258 2.034 . S
N259 C260 1.366 . S
N259 C262 1.332 . S
C260 N259 1.366 . S
C260 C263 1.377 . S
C260 H292 0.931 . S
N261 C262 1.346 . S
N261 C263 1.337 . S
C262 N259 1.332 . S
C262 N261 1.346 . S
C262 C296 1.361 . S
C263 C260 1.377 . S
C263 N261 1.337 . S
C263 H299 0.930 . S
Co264 N265 2.034 . S
Co264 O278 1.950 . S
Co264 O279 2.262 . S
Co264 O280 1.958 . S
Co264 O284 2.057 . S
N265 Co264 2.034 . S
N265 C268 1.366 . S
N265 C269 1.332 . S
N266 C267 1.337 . S
N266 C269 1.346 . S
C267 N266 1.337 . S
C267 C268 1.377 . S
C267 H300 0.930 . S
C268 N265 1.366 . S
C268 C267 1.377 . S
C268 H272 0.931 . S
C269 N265 1.332 . S
C269 N266 1.346 . S
C269 C286 1.361 . S
Co270 O273 2.097 . S
Co270 O274 2.065 . S
Co270 O275 2.065 1_545 S
Co270 O276 2.042 1_545 S
Co270 O279 2.097 1_545 S
Co270 O283 2.042 . S
C271 O279 1.253 . S
C271 O284 1.263 . S
H272 C268 0.931 . S
O273 Co258 2.262 . S
O273 Co270 2.097 . S
O273 C297 1.253 . S
O274 Co270 2.065 . S
O274 C290 1.221 . S
O275 Co270 2.065 1_565 S
O275 C285 1.221 . S
O276 Co270 2.042 1_565 S
O276 C291 1.237 . S
O277 Co258 1.958 . S
O277 C291 1.278 1_545 S
O278 Co264 1.950 . S
O278 C290 1.277 1_565 S
O279 Co264 2.262 . S
O279 Co270 2.097 1_565 S
O279 C271 1.253 . S
O280 Co264 1.958 . S
O280 C298 1.278 1_565 S
O281 Co258 1.950 . S
O281 C285 1.277 1_545 S
O282 Co258 2.057 . S
O282 C297 1.263 . S
O283 Co270 2.042 . S
O283 C298 1.237 . S
O284 Co264 2.057 . S
O284 C271 1.263 . S
C285 O275 1.221 . S
C285 O281 1.277 1_565 S
C286 C269 1.361 . S
C286 H287 0.960 . S
C286 H288 0.961 . S
C286 H289 0.961 . S
H287 C286 0.960 . S
H288 C286 0.961 . S
H289 C286 0.961 . S
C290 O274 1.221 . S
C290 O278 1.277 1_545 S
C291 O276 1.237 . S
C291 O277 1.278 1_565 S
H292 C260 0.931 . S
H293 C296 0.961 . S
H294 C296 0.961 . S
H295 C296 0.960 . S
C296 C262 1.361 . S
C296 H293 0.961 . S
C296 H294 0.961 . S
C296 H295 0.960 . S
C297 O273 1.253 . S
C297 O282 1.263 . S
C298 O280 1.278 1_545 S
C298 O283 1.237 . S
H299 C263 0.930 . S
H300 C267 0.930 . S
Co301 N302 2.034 . S
Co301 O316 2.262 . S
Co301 O320 1.958 . S
Co301 O324 1.950 1_556 S
Co301 O325 2.057 . S
N302 Co301 2.034 . S
N302 C303 1.366 . S
N302 C305 1.332 1_556 S
C303 N302 1.366 . S
C303 C306 1.377 . S
C303 H335 0.931 . S
N304 C305 1.346 . S
N304 C306 1.337 1_554 S
C305 N302 1.332 1_554 S
C305 N304 1.346 . S
C305 C339 1.361 . S
C306 C303 1.377 . S
C306 N304 1.337 1_556 S
C306 H342 0.930 . S
Co307 N308 2.034 . S
Co307 O321 1.950 1_556 S
Co307 O322 2.262 . S
Co307 O323 1.958 . S
Co307 O327 2.057 . S
N308 Co307 2.034 . S
N308 C311 1.366 . S
N308 C312 1.332 1_556 S
N309 C310 1.337 1_554 S
N309 C312 1.346 . S
C310 N309 1.337 1_556 S
C310 C311 1.377 . S
C310 H343 0.930 . S
C311 N308 1.366 . S
C311 C310 1.377 . S
C311 H315 0.931 . S
C312 N308 1.332 1_554 S
C312 N309 1.346 . S
C312 C329 1.361 . S
Co313 O316 2.097 . S
Co313 O317 2.065 1_556 S
Co313 O318 2.065 1_556 S
Co313 O319 2.042 . S
Co313 O322 2.097 . S
Co313 O326 2.042 . S
C314 O322 1.253 . S
C314 O327 1.263 . S
H315 C311 0.931 . S
O316 Co301 2.262 . S
O316 Co313 2.097 . S
O316 C340 1.253 . S
O317 Co313 2.065 1_554 S
O317 C333 1.221 . S
O318 Co313 2.065 1_554 S
O318 C328 1.221 . S
O319 Co313 2.042 . S
O319 C334 1.237 . S
O320 Co301 1.958 . S
O320 C334 1.278 . S
O321 Co307 1.950 1_554 S
O321 C333 1.277 . S
O322 Co307 2.262 . S
O322 Co313 2.097 . S
O322 C314 1.253 . S
O323 Co307 1.958 . S
O323 C341 1.278 . S
O324 Co301 1.950 1_554 S
O324 C328 1.277 . S
O325 Co301 2.057 . S
O325 C340 1.263 . S
O326 Co313 2.042 . S
O326 C341 1.237 . S
O327 Co307 2.057 . S
O327 C314 1.263 . S
C328 O318 1.221 . S
C328 O324 1.277 . S
C329 C312 1.361 . S
C329 H330 0.960 . S
C329 H331 0.961 . S
C329 H332 0.961 . S
H330 C329 0.960 . S
H331 C329 0.961 . S
H332 C329 0.961 . S
C333 O317 1.221 . S
C333 O321 1.277 . S
C334 O319 1.237 . S
C334 O320 1.278 . S
H335 C303 0.931 . S
H336 C339 0.961 . S
H337 C339 0.961 . S
H338 C339 0.960 . S
C339 C305 1.361 . S
C339 H336 0.961 . S
C339 H337 0.961 . S
C339 H338 0.960 . S
C340 O316 1.253 . S
C340 O325 1.263 . S
C341 O323 1.278 . S
C341 O326 1.237 . S
H342 C306 0.930 . S
H343 C310 0.930 . S
C344 C345 1.387 . S
C344 H348 0.950 . S
C344 C353 1.390 . S
C345 C344 1.387 . S
C345 C347 1.387 1_545 S
H346 C353 0.950 . S
C347 C345 1.387 1_565 S
C347 C349 1.390 1_565 S
C347 H351 0.950 . S
H348 C344 0.950 . S
C349 C347 1.390 1_545 S
C349 C350 1.387 . S
C349 H352 0.950 . S
C350 C349 1.387 . S
C350 C353 1.387 . S
H351 C347 0.950 . S
H352 C349 0.950 . S
C353 C344 1.390 . S
C353 H346 0.950 . S
C353 C350 1.387 . S
C354 C355 1.387 . S
C354 H358 0.950 1_565 S
C354 C363 1.390 . S
C355 C354 1.387 . S
C355 C357 1.387 . S
H356 C363 0.950 . S
C357 C355 1.387 . S
C357 C359 1.390 . S
C357 H361 0.950 . S
H358 C354 0.950 1_545 S
C359 C357 1.390 . S
C359 C360 1.387 . S
C359 H362 0.950 . S
C360 C359 1.387 . S
C360 C363 1.387 . S
H361 C357 0.950 . S
H362 C359 0.950 . S
C363 C354 1.390 . S
C363 H356 0.950 . S
C363 C360 1.387 . S
C364 C365 1.387 . S
C364 H368 0.950 . S
C364 C373 1.390 . S
C365 C364 1.387 . S
C365 C367 1.387 . S
H366 C373 0.950 . S
C367 C365 1.387 . S
C367 C369 1.390 . S
C367 H371 0.950 . S
H368 C364 0.950 . S
C369 C367 1.390 . S
C369 C370 1.387 . S
C369 H372 0.950 . S
C370 C369 1.387 . S
C370 C373 1.387 . S
H371 C367 0.950 . S
H372 C369 0.950 . S
C373 C364 1.390 . S
C373 H366 0.950 . S
C373 C370 1.387 . S
C374 C375 1.387 . S
C374 H378 0.950 . S
C374 C383 1.390 . S
C375 C374 1.387 . S
C375 C377 1.387 . S
H376 C383 0.950 . S
C377 C375 1.387 . S
C377 C379 1.390 . S
C377 H381 0.950 . S
H378 C374 0.950 . S
C379 C377 1.390 . S
C379 C380 1.387 . S
C379 H382 0.950 . S
C380 C379 1.387 . S
C380 C383 1.387 . S
H381 C377 0.950 . S
H382 C379 0.950 . S
C383 C374 1.390 . S
C383 H376 0.950 . S
C383 C380 1.387 . S
C384 C385 1.387 . S
C384 H388 0.950 . S
C384 C393 1.390 . S
C385 C384 1.387 . S
C385 C387 1.387 . S
H386 C393 0.950 . S
C387 C385 1.387 . S
C387 C389 1.390 . S
C387 H391 0.950 . S
H388 C384 0.950 . S
C389 C387 1.390 . S
C389 C390 1.387 . S
C389 H392 0.950 . S
C390 C389 1.387 . S
C390 C393 1.387 . S
H391 C387 0.950 . S
H392 C389 0.950 . S
C393 C384 1.390 . S
C393 H386 0.950 . S
C393 C390 1.387 . S
C394 C395 1.387 . S
C394 H398 0.950 . S
C394 C403 1.390 . S
C395 C394 1.387 . S
C395 C397 1.387 . S
H396 C403 0.950 . S
C397 C395 1.387 . S
C397 C399 1.390 . S
C397 H401 0.950 . S
H398 C394 0.950 . S
C399 C397 1.390 . S
C399 C400 1.387 . S
C399 H402 0.950 . S
C400 C399 1.387 . S
C400 C403 1.387 . S
H401 C397 0.950 . S
H402 C399 0.950 . S
C403 C394 1.390 . S
C403 H396 0.950 . S
C403 C400 1.387 . S
C404 C405 1.387 . S
C404 H408 0.950 . S
C404 C413 1.390 . S
C405 C404 1.387 . S
C405 C407 1.387 . S
H406 C413 0.950 . S
C407 C405 1.387 . S
C407 C409 1.390 . S
C407 H411 0.950 . S
H408 C404 0.950 . S
C409 C407 1.390 . S
C409 C410 1.387 . S
C409 H412 0.950 1_565 S
C410 C409 1.387 . S
C410 C413 1.387 . S
H411 C407 0.950 . S
H412 C409 0.950 1_545 S
C413 C404 1.390 . S
C413 H406 0.950 . S
C413 C410 1.387 . S
C414 C415 1.387 . S
C414 H418 0.950 . S
C414 C423 1.390 . S
C415 C414 1.387 . S
C415 C417 1.387 . S
H416 C423 0.950 1_565 S
C417 C415 1.387 . S
C417 C419 1.390 . S
C417 H421 0.950 . S
H418 C414 0.950 . S
C419 C417 1.390 . S
C419 C420 1.387 . S
C419 H422 0.950 . S
C420 C419 1.387 . S
C420 C423 1.387 . S
H421 C417 0.950 . S
H422 C419 0.950 . S
C423 C414 1.390 . S
C423 H416 0.950 1_545 S
C423 C420 1.387 . S
C424 C425 1.387 . S
C424 H428 0.950 . S
C424 C433 1.390 1_545 S
C425 C424 1.387 . S
C425 C427 1.387 . S
H426 C433 0.950 . S
C427 C425 1.387 . S
C427 C429 1.390 . S
C427 H431 0.950 . S
H428 C424 0.950 . S
C429 C427 1.390 . S
C429 C430 1.387 . S
C429 H432 0.950 . S
C430 C429 1.387 . S
C430 C433 1.387 1_545 S
H431 C427 0.950 . S
H432 C429 0.950 . S
C433 C424 1.390 1_565 S
C433 H426 0.950 . S
C433 C430 1.387 1_565 S
C434 C435 1.387 . S
C434 H438 0.950 1_565 S
C434 C443 1.390 . S
C435 C434 1.387 . S
C435 C437 1.387 . S
H436 C443 0.950 . S
C437 C435 1.387 . S
C437 C439 1.390 . S
C437 H441 0.950 . S
H438 C434 0.950 1_545 S
C439 C437 1.390 . S
C439 C440 1.387 . S
C439 H442 0.950 . S
C440 C439 1.387 . S
C440 C443 1.387 . S
H441 C437 0.950 . S
H442 C439 0.950 . S
C443 C434 1.390 . S
C443 H436 0.950 . S
C443 C440 1.387 . S
C444 C445 1.387 . S
C444 H448 0.950 . S
C444 C453 1.390 . S
C445 C444 1.387 . S
C445 C447 1.387 . S
H446 C453 0.950 . S
C447 C445 1.387 . S
C447 C449 1.390 . S
C447 H451 0.950 . S
H448 C444 0.950 . S
C449 C447 1.390 . S
C449 C450 1.387 . S
C449 H452 0.950 . S
C450 C449 1.387 . S
C450 C453 1.387 . S
H451 C447 0.950 . S
H452 C449 0.950 . S
C453 C444 1.390 . S
C453 H446 0.950 . S
C453 C450 1.387 . S
C454 C455 1.387 . S
C454 H458 0.950 . S
C454 C463 1.390 . S
C455 C454 1.387 . S
C455 C457 1.387 . S
H456 C463 0.950 . S
C457 C455 1.387 . S
C457 C459 1.390 . S
C457 H461 0.950 . S
H458 C454 0.950 . S
C459 C457 1.390 . S
C459 C460 1.387 . S
C459 H462 0.950 . S
C460 C459 1.387 . S
C460 C463 1.387 . S
H461 C457 0.950 . S
H462 C459 0.950 . S
C463 C454 1.390 . S
C463 H456 0.950 . S
C463 C460 1.387 . S
C464 C465 1.387 . S
C464 H468 0.950 . S
C464 C473 1.390 . S
C465 C464 1.387 . S
C465 C467 1.387 . S
H466 C473 0.950 . S
C467 C465 1.387 . S
C467 C469 1.390 . S
C467 H471 0.950 . S
H468 C464 0.950 . S
C469 C467 1.390 . S
C469 C470 1.387 . S
C469 H472 0.950 . S
C470 C469 1.387 . S
C470 C473 1.387 . S
H471 C467 0.950 . S
H472 C469 0.950 . S
C473 C464 1.390 . S
C473 H466 0.950 . S
C473 C470 1.387 . S
C474 C475 1.387 . S
C474 H478 0.950 . S
C474 C483 1.390 . S
C475 C474 1.387 . S
C475 C477 1.387 . S
H476 C483 0.950 . S
C477 C475 1.387 . S
C477 C479 1.390 . S
C477 H481 0.950 . S
H478 C474 0.950 . S
C479 C477 1.390 . S
C479 C480 1.387 . S
C479 H482 0.950 . S
C480 C479 1.387 . S
C480 C483 1.387 . S
H481 C477 0.950 . S
H482 C479 0.950 . S
C483 C474 1.390 . S
C483 H476 0.950 . S
C483 C480 1.387 . S
C484 C485 1.387 . S
C484 H488 0.950 1_565 S
C484 C493 1.390 . S
C485 C484 1.387 . S
C485 C487 1.387 . S
H486 C493 0.950 . S
C487 C485 1.387 . S
C487 C489 1.390 . S
C487 H491 0.950 . S
H488 C484 0.950 1_545 S
C489 C487 1.390 . S
C489 C490 1.387 . S
C489 H492 0.950 . S
C490 C489 1.387 . S
C490 C493 1.387 . S
H491 C487 0.950 . S
H492 C489 0.950 . S
C493 C484 1.390 . S
C493 H486 0.950 . S
C493 C490 1.387 . S
C494 C495 1.387 . S
C494 H498 0.950 . S
C494 C503 1.390 . S
C495 C494 1.387 . S
C495 C497 1.387 . S
H496 C503 0.950 . S
C497 C495 1.387 . S
C497 C499 1.390 . S
C497 H501 0.950 . S
H498 C494 0.950 . S
C499 C497 1.390 . S
C499 C500 1.387 . S
C499 H502 0.950 . S
C500 C499 1.387 . S
C500 C503 1.387 . S
H501 C497 0.950 . S
H502 C499 0.950 . S
C503 C494 1.390 . S
C503 H496 0.950 . S
C503 C500 1.387 . S
C504 C505 1.388 . S
C504 H508 0.951 . S
C504 C513 1.389 1_655 S
C505 C504 1.388 . S
C505 C507 1.388 1_556 S
H506 C513 0.950 . S
C507 C505 1.388 1_554 S
C507 C509 1.389 1_655 S
C507 H511 0.951 . S
H508 C504 0.951 . S
C509 C507 1.389 1_455 S
C509 C510 1.387 1_554 S
C509 H512 0.950 . S
C510 C509 1.387 1_556 S
C510 C513 1.387 . S
H511 C507 0.951 . S
H512 C509 0.950 . S
C513 C504 1.389 1_455 S
C513 H506 0.950 . S
C513 C510 1.387 . S
C514 C515 1.387 . S
C514 H518 0.950 . S
C514 C523 1.390 . S
C515 C514 1.387 . S
C515 C517 1.387 . S
H516 C523 0.950 . S
C517 C515 1.387 . S
C517 C519 1.390 . S
C517 H521 0.950 . S
H518 C514 0.950 . S
C519 C517 1.390 . S
C519 C520 1.387 . S
C519 H522 0.950 . S
C520 C519 1.387 . S
C520 C523 1.387 . S
H521 C517 0.950 . S
H522 C519 0.950 . S
C523 C514 1.390 . S
C523 H516 0.950 . S
C523 C520 1.387 . S
C524 C525 1.387 . S
C524 H528 0.950 . S
C524 C533 1.390 . S
C525 C524 1.387 . S
C525 C527 1.387 . S
H526 C533 0.950 . S
C527 C525 1.387 . S
C527 C529 1.390 . S
C527 H531 0.950 . S
H528 C524 0.950 . S
C529 C527 1.390 . S
C529 C530 1.387 . S
C529 H532 0.950 . S
C530 C529 1.387 . S
C530 C533 1.387 . S
H531 C527 0.950 . S
H532 C529 0.950 . S
C533 C524 1.390 . S
C533 H526 0.950 . S
C533 C530 1.387 . S
C534 C535 1.387 . S
C534 H538 0.950 . S
C534 C543 1.390 1_465 S
C535 C534 1.387 . S
C535 C537 1.387 . S
H536 C543 0.950 . S
C537 C535 1.387 . S
C537 C539 1.390 1_465 S
C537 H541 0.950 . S
H538 C534 0.950 . S
C539 C537 1.390 1_645 S
C539 C540 1.388 . S
C539 H542 0.950 . S
C540 C539 1.388 . S
C540 C543 1.388 . S
H541 C537 0.950 . S
H542 C539 0.950 . S
C543 C534 1.390 1_645 S
C543 H536 0.950 . S
C543 C540 1.388 . S
C544 C545 1.387 . S
C544 H548 0.950 . S
C544 C553 1.390 . S
C545 C544 1.387 . S
C545 C547 1.387 . S
H546 C553 0.950 . S
C547 C545 1.387 . S
C547 C549 1.390 . S
C547 H551 0.950 . S
H548 C544 0.950 . S
C549 C547 1.390 . S
C549 C550 1.387 . S
C549 H552 0.950 . S
C550 C549 1.387 . S
C550 C553 1.387 . S
H551 C547 0.950 . S
H552 C549 0.950 . S
C553 C544 1.390 . S
C553 H546 0.950 . S
C553 C550 1.387 . S
C554 C555 1.387 . S
C554 H558 0.950 . S
C554 C563 1.390 . S
C555 C554 1.387 . S
C555 C557 1.387 . S
H556 C563 0.950 . S
C557 C555 1.387 . S
C557 C559 1.390 . S
C557 H561 0.950 . S
H558 C554 0.950 . S
C559 C557 1.390 . S
C559 C560 1.387 . S
C559 H562 0.950 . S
C560 C559 1.387 . S
C560 C563 1.387 . S
H561 C557 0.950 . S
H562 C559 0.950 . S
C563 C554 1.390 . S
C563 H556 0.950 . S
C563 C560 1.387 . S
C564 C565 1.387 . S
C564 H568 0.950 . S
C564 C573 1.390 . S
C565 C564 1.387 . S
C565 C567 1.387 . S
H566 C573 0.950 . S
C567 C565 1.387 . S
C567 C569 1.390 . S
C567 H571 0.950 . S
H568 C564 0.950 . S
C569 C567 1.390 . S
C569 C570 1.387 . S
C569 H572 0.950 . S
C570 C569 1.387 . S
C570 C573 1.387 . S
H571 C567 0.950 . S
H572 C569 0.950 . S
C573 C564 1.390 . S
C573 H566 0.950 . S
C573 C570 1.387 . S
C574 C575 1.387 . S
C574 H578 0.950 . S
C574 C583 1.390 1_565 S
C575 C574 1.387 . S
C575 C577 1.387 1_556 S
H576 C583 0.950 . S
C577 C575 1.387 1_554 S
C577 C579 1.390 1_565 S
C577 H581 0.950 . S
H578 C574 0.950 . S
C579 C577 1.390 1_545 S
C579 C580 1.387 1_554 S
C579 H582 0.950 . S
C580 C579 1.387 1_556 S
C580 C583 1.387 . S
H581 C577 0.950 . S
H582 C579 0.950 . S
C583 C574 1.390 1_545 S
C583 H576 0.950 . S
C583 C580 1.387 . S
C584 C585 1.387 . S
C584 H588 0.950 . S
C584 C593 1.390 . S
C585 C584 1.387 . S
C585 C587 1.387 1_554 S
H586 C593 0.950 . S
C587 C585 1.387 1_556 S
C587 C589 1.390 . S
C587 H591 0.950 . S
H588 C584 0.950 . S
C589 C587 1.390 . S
C589 C590 1.387 1_556 S
C589 H592 0.950 . S
C590 C589 1.387 1_554 S
C590 C593 1.387 . S
H591 C587 0.950 . S
H592 C589 0.950 . S
C593 C584 1.390 . S
C593 H586 0.950 . S
C593 C590 1.387 . S
C594 C595 1.387 1_556 S
C594 H598 0.950 . S
C594 C603 1.390 . S
C595 C594 1.387 1_554 S
C595 C597 1.387 . S
H596 C603 0.950 . S
C597 C595 1.387 . S
C597 C599 1.390 . S
C597 H601 0.950 . S
H598 C594 0.950 . S
C599 C597 1.390 . S
C599 C600 1.387 . S
C599 H602 0.950 . S
C600 C599 1.387 . S
C600 C603 1.387 1_554 S
H601 C597 0.950 . S
H602 C599 0.950 . S
C603 C594 1.390 . S
C603 H596 0.950 . S
C603 C600 1.387 1_556 S
C604 C605 1.387 . S
C604 H608 0.950 . S
C604 C613 1.390 1_455 S
C605 C604 1.387 . S
C605 C607 1.387 . S
H606 C613 0.950 . S
C607 C605 1.387 . S
C607 C609 1.390 1_455 S
C607 H611 0.950 . S
H608 C604 0.950 . S
C609 C607 1.390 1_655 S
C609 C610 1.387 . S
C609 H612 0.950 . S
C610 C609 1.387 . S
C610 C613 1.387 . S
H611 C607 0.950 . S
H612 C609 0.950 . S
C613 C604 1.390 1_655 S
C613 H606 0.950 . S
C613 C610 1.387 . S
C614 C615 1.387 . S
C614 H618 0.950 . S
C614 C623 1.390 . S
C615 C614 1.387 . S
C615 C617 1.387 . S
H616 C623 0.950 . S
C617 C615 1.387 . S
C617 C619 1.390 . S
C617 H621 0.950 . S
H618 C614 0.950 . S
C619 C617 1.390 . S
C619 C620 1.387 . S
C619 H622 0.950 . S
C620 C619 1.387 . S
C620 C623 1.387 . S
H621 C617 0.950 . S
H622 C619 0.950 . S
C623 C614 1.390 . S
C623 H616 0.950 . S
C623 C620 1.387 . S
C624 C625 1.387 . S
C624 H628 0.950 . S
C624 C633 1.390 . S
C625 C624 1.387 . S
C625 C627 1.387 . S
H626 C633 0.950 . S
C627 C625 1.387 . S
C627 C629 1.390 . S
C627 H631 0.950 . S
H628 C624 0.950 . S
C629 C627 1.390 . S
C629 C630 1.387 . S
C629 H632 0.950 . S
C630 C629 1.387 . S
C630 C633 1.387 . S
H631 C627 0.950 . S
H632 C629 0.950 . S
C633 C624 1.390 . S
C633 H626 0.950 . S
C633 C630 1.387 . S
C634 C635 1.387 . S
C634 H638 0.950 . S
C634 C643 1.390 1_665 S
C635 C634 1.387 . S
C635 C637 1.387 . S
H636 C643 0.950 . S
C637 C635 1.387 . S
C637 C639 1.390 1_665 S
C637 H641 0.950 . S
H638 C634 0.950 . S
C639 C637 1.390 1_445 S
C639 C640 1.387 . S
C639 H642 0.950 . S
C640 C639 1.387 . S
C640 C643 1.387 . S
H641 C637 0.950 . S
H642 C639 0.950 . S
C643 C634 1.390 1_445 S
C643 H636 0.950 . S
C643 C640 1.387 . S
C644 C645 1.387 . S
C644 H648 0.950 . S
C644 C653 1.390 . S
C645 C644 1.387 . S
C645 C647 1.387 . S
H646 C653 0.950 . S
C647 C645 1.387 . S
C647 C649 1.390 . S
C647 H651 0.950 . S
H648 C644 0.950 . S
C649 C647 1.390 . S
C649 C650 1.387 . S
C649 H652 0.950 . S
C650 C649 1.387 . S
C650 C653 1.387 . S
H651 C647 0.950 . S
H652 C649 0.950 . S
C653 C644 1.390 . S
C653 H646 0.950 . S
C653 C650 1.387 . S
C654 C655 1.387 . S
C654 H658 0.950 . S
C654 C663 1.390 1_545 S
C655 C654 1.387 . S
C655 C657 1.387 . S
H656 C663 0.950 . S
C657 C655 1.387 . S
C657 C659 1.390 1_545 S
C657 H661 0.950 . S
H658 C654 0.950 . S
C659 C657 1.390 1_565 S
C659 C660 1.387 . S
C659 H662 0.950 . S
C660 C659 1.387 . S
C660 C663 1.387 . S
H661 C657 0.950 . S
H662 C659 0.950 . S
C663 C654 1.390 1_565 S
C663 H656 0.950 . S
C663 C660 1.387 . S
C345 C27 1.937 1_545 S
C350 C76 2.177 . S
C355 C32 1.937 1_565 S
C360 C126 2.180 . S
C365 C162 2.179 . S
C370 C70 1.938 . S
C375 C118 1.937 . S
C380 C169 2.181 . S
C385 C156 1.938 . S
C390 C205 2.180 . S
C395 C248 2.179 . S
C400 C161 1.936 . S
C405 C199 1.936 . S
C410 C33 2.181 . S
C415 C242 1.939 . S
C420 C40 2.183 . S
C425 C255 2.182 . S
C430 C285 1.938 1_545 S
C435 C290 1.938 1_565 S
C440 C212 2.182 . S
C445 C334 2.181 . S
C450 C247 1.942 . S
C455 C341 2.181 . S
C460 C204 1.940 . S
C465 C328 1.938 . S
C470 C119 2.178 . S
C475 C83 2.181 . S
C480 C333 1.938 . S
C485 C291 2.181 . S
C490 C113 1.938 . S
C495 C298 2.181 . S
C500 C75 1.939 . S
C505 C13 1.898 . S
C510 C39 1.898 . S
C515 C82 1.902 . S
C520 C56 1.902 . S
C525 C125 1.902 . S
C530 C99 1.902 . S
C535 C168 1.902 . S
C540 C142 1.902 . S
C545 C211 1.902 . S
C550 C185 1.902 . S
C555 C228 1.898 . S
C560 C254 1.898 . S
C565 C271 1.898 . S
C570 C297 1.898 . S
C575 C340 1.898 . S
C580 C314 1.898 . S
C585 N309 1.264 . S
C590 N3 1.264 . S
C595 N8 1.257 . S
C600 N304 1.257 . S
C605 N46 1.257 . S
C610 N94 1.257 . S
C615 N266 1.264 . S
C620 N132 1.264 . S
C625 N137 1.257 . S
C630 N261 1.257 . S
C635 N218 1.264 . S
C640 N175 1.264 . S
C645 N223 1.264 . S
C650 N180 1.264 . S
C655 N89 1.257 . S
C660 N51 1.257 . S
