# Generated by pormake.
# Topology umx, (4)-cn, num edge types: 1
# Building blocks:
#     Node 0, Type 0, BuildingBlock: NAWXER_clean_sbu_0, # of connection points: 4
#     Node 1, Type 0, BuildingBlock: NAWXER_clean_sbu_0, # of connection points: 4
#     Node 2, Type 0, BuildingBlock: NAWXER_clean_sbu_0, # of connection points: 4
#     Node 3, Type 0, BuildingBlock: NAWXER_clean_sbu_0, # of connection points: 4
#     Node 4, Type 0, BuildingBlock: NAWXER_clean_sbu_0, # of connection points: 4
#     Node 5, Type 0, BuildingBlock: NAWXER_clean_sbu_0, # of connection points: 4
#     Node 6, Type 0, BuildingBlock: NAWXER_clean_sbu_0, # of connection points: 4
#     Node 7, Type 0, BuildingBlock: NAWXER_clean_sbu_0, # of connection points: 4
#     Edge 8, Type (0, 0), BuildingBlock: ZUJKAS_clean_linker_0, # of connection points: 2
#     Edge 9, Type (0, 0), BuildingBlock: ZUJKAS_clean_linker_0, # of connection points: 2
#     Edge 10, Type (0, 0), BuildingBlock: ZUJKAS_clean_linker_0, # of connection points: 2
#     Edge 11, Type (0, 0), BuildingBlock: ZUJKAS_clean_linker_0, # of connection points: 2
#     Edge 12, Type (0, 0), BuildingBlock: ZUJKAS_clean_linker_0, # of connection points: 2
#     Edge 13, Type (0, 0), BuildingBlock: ZUJKAS_clean_linker_0, # of connection points: 2
#     Edge 14, Type (0, 0), BuildingBlock: ZUJKAS_clean_linker_0, # of connection points: 2
#     Edge 15, Type (0, 0), BuildingBlock: ZUJKAS_clean_linker_0, # of connection points: 2
#     Edge 16, Type (0, 0), BuildingBlock: ZUJKAS_clean_linker_0, # of connection points: 2
#     Edge 17, Type (0, 0), BuildingBlock: ZUJKAS_clean_linker_0, # of connection points: 2
#     Edge 18, Type (0, 0), BuildingBlock: ZUJKAS_clean_linker_0, # of connection points: 2
#     Edge 19, Type (0, 0), BuildingBlock: ZUJKAS_clean_linker_0, # of connection points: 2
#     Edge 20, Type (0, 0), BuildingBlock: ZUJKAS_clean_linker_0, # of connection points: 2
#     Edge 21, Type (0, 0), BuildingBlock: ZUJKAS_clean_linker_0, # of connection points: 2
#     Edge 22, Type (0, 0), BuildingBlock: ZUJKAS_clean_linker_0, # of connection points: 2
#     Edge 23, Type (0, 0), BuildingBlock: ZUJKAS_clean_linker_0, # of connection points: 2
# Relax obj value: 0.027
# Max RMSD: 0.221
# Mean RMSD: 0.220
data_MOF--net-umx--node1-NAWXER_clean_sbu_0--edge1-ZUJKAS_clean_linker_0
_symmetry_space_group_name_H-M    P1
_symmetry_Int_Tables_number       1
_symmetry_cell_setting            triclinic
loop_
_symmetry_equiv_pos_as_xyz
'x, y, z'
_cell_length_a     50.473986
_cell_length_b     50.470119
_cell_length_c     38.244641
_cell_angle_alpha  95.765012
_cell_angle_beta   95.697341
_cell_angle_gamma 89.98059
loop_
_atom_site_label
_atom_site_type_symbol
_atom_site_fract_x
_atom_site_fract_y
_atom_site_fract_z
_atom_type_partial_charge
C0 C 0.21999 0.42022 0.01587 0.0
C1 C 0.13408 0.46289 0.0133 0.0
O2 O 0.1968 0.41 0.01101 0.0
Zn3 Zn 0.17733 0.44225 0.01381 0.0
O4 O 0.22273 0.44567 0.02045 0.0
Zn5 Zn 0.19628 0.47954 0.02254 0.0
O6 O 0.2057 0.49655 0.06945 0.0
O7 O 0.18563 0.45766 0.06863 0.0
O8 O 0.15303 0.48027 0.01854 0.0
O9 O 0.13961 0.43835 0.00872 0.0
O10 O 0.18527 0.45947 0.96657 0.0
O11 O 0.20493 0.49823 0.98358 0.0
C12 C 0.19652 0.47859 0.08605 0.0
C13 C 0.19595 0.48092 0.95887 0.0
C14 C 0.51472 0.19631 0.46402 0.0
C15 C 0.51898 0.20102 0.59228 0.0
O16 O 0.49774 0.20574 0.48418 0.0
Zn17 Zn 0.51718 0.19889 0.52819 0.0
O18 O 0.53632 0.18638 0.47752 0.0
Zn19 Zn 0.55433 0.18043 0.52971 0.0
O20 O 0.55824 0.14287 0.52721 0.0
O21 O 0.51634 0.15558 0.52588 0.0
O22 O 0.53949 0.18964 0.58048 0.0
O23 O 0.50114 0.20993 0.57085 0.0
O24 O 0.55097 0.22574 0.53155 0.0
O25 O 0.5866 0.20048 0.5336 0.0
C26 C 0.53371 0.13694 0.52572 0.0
C27 C 0.57639 0.22342 0.53346 0.0
C28 C 0.86108 0.53575 0.03855 0.0
C29 C 0.77398 0.57577 0.03922 0.0
O30 O 0.8426 0.51787 0.03334 0.0
Zn31 Zn 0.79937 0.51729 0.03021 0.0
O32 O 0.85492 0.56009 0.04375 0.0
Zn33 Zn 0.8173 0.55507 0.0394 0.0
O34 O 0.81076 0.53677 0.08638 0.0
O35 O 0.79196 0.49766 0.0689 0.0
O36 O 0.79686 0.58667 0.04356 0.0
O37 O 0.77196 0.55028 0.034 0.0
O38 O 0.7898 0.50073 0.98308 0.0
O39 O 0.80876 0.54023 0.98443 0.0
C40 C 0.80087 0.51484 0.09381 0.0
C41 C 0.79829 0.51921 0.96674 0.0
C42 C 0.47814 0.7994 0.46169 0.0
C43 C 0.48199 0.80307 0.59001 0.0
O44 O 0.45703 0.80947 0.47349 0.0
Zn45 Zn 0.44192 0.81797 0.5242 0.0
O46 O 0.49654 0.79152 0.48322 0.0
Zn47 Zn 0.47984 0.80108 0.52584 0.0
O48 O 0.44706 0.77281 0.52175 0.0
O49 O 0.41047 0.79672 0.51992 0.0
O50 O 0.49943 0.7946 0.56997 0.0
O51 O 0.46002 0.81221 0.57639 0.0
O52 O 0.43657 0.85542 0.52688 0.0
O53 O 0.47893 0.84431 0.52861 0.0
C54 C 0.42156 0.77416 0.51975 0.0
C55 C 0.46088 0.86228 0.52869 0.0
C56 C 0.19524 0.51574 0.46379 0.0
C57 C 0.20091 0.51972 0.5922 0.0
O58 O 0.18615 0.53766 0.47772 0.0
Zn59 Zn 0.18105 0.55577 0.53018 0.0
O60 O 0.20412 0.49833 0.4836 0.0
Zn61 Zn 0.19823 0.51797 0.52795 0.0
O62 O 0.15506 0.51853 0.52619 0.0
O63 O 0.14358 0.5608 0.52848 0.0
O64 O 0.20862 0.50141 0.57037 0.0
O65 O 0.19048 0.54078 0.58071 0.0
O66 O 0.202 0.58738 0.53355 0.0
O67 O 0.22615 0.55096 0.53071 0.0
C68 C 0.13695 0.53642 0.52663 0.0
C69 C 0.22458 0.57645 0.5326 0.0
C70 C 0.42039 0.2213 0.01566 0.0
C71 C 0.46428 0.13603 0.01393 0.0
O72 O 0.44577 0.22442 0.02086 0.0
Zn73 Zn 0.48 0.19855 0.02331 0.0
O74 O 0.41054 0.19797 0.01023 0.0
Zn75 Zn 0.44309 0.17893 0.01383 0.0
O76 O 0.45775 0.18758 0.06887 0.0
O77 O 0.49644 0.20818 0.07046 0.0
O78 O 0.43968 0.14123 0.00901 0.0
O79 O 0.48141 0.15522 0.01932 0.0
O80 O 0.49878 0.20793 0.98478 0.0
O81 O 0.46094 0.18665 0.967 0.0
C82 C 0.47837 0.19878 0.08667 0.0
C83 C 0.48217 0.19804 0.9598 0.0
C84 C 0.80318 0.48227 0.58956 0.0
C85 C 0.79828 0.47694 0.46104 0.0
O86 O 0.7941 0.49933 0.56931 0.0
Zn87 Zn 0.80073 0.47947 0.52536 0.0
O88 O 0.81284 0.46047 0.57614 0.0
Zn89 Zn 0.8187 0.44205 0.52409 0.0
O90 O 0.85628 0.43786 0.52632 0.0
O91 O 0.84392 0.47985 0.5277 0.0
O92 O 0.80908 0.45626 0.47311 0.0
O93 O 0.79019 0.49536 0.48242 0.0
O94 O 0.77352 0.44589 0.52284 0.0
O95 O 0.79849 0.41001 0.52107 0.0
C96 C 0.86242 0.46234 0.52782 0.0
C97 C 0.77565 0.42045 0.52146 0.0
C98 C 0.57704 0.77574 0.03966 0.0
C99 C 0.5382 0.86336 0.03901 0.0
O100 O 0.58823 0.79848 0.04363 0.0
Zn101 Zn 0.5569 0.8193 0.03966 0.0
O102 O 0.55153 0.77404 0.0347 0.0
Zn103 Zn 0.51891 0.8019 0.03105 0.0
O104 O 0.50198 0.79235 0.98414 0.0
O105 O 0.54168 0.81072 0.98481 0.0
O106 O 0.52006 0.84513 0.03407 0.0
O107 O 0.56246 0.85685 0.04386 0.0
O108 O 0.5388 0.81316 0.08699 0.0
O109 O 0.49936 0.79495 0.07 0.0
C110 C 0.52043 0.80048 0.96746 0.0
C111 C 0.5168 0.80363 0.09472 0.0
H112 H 0.17685 0.4448 0.1289 0.0
H113 H 0.17751 0.45077 0.19316 0.0
H114 H 0.21929 0.52558 0.19611 0.0
H115 H 0.21891 0.51974 0.13169 0.0
H116 H 0.24036 0.49142 0.24745 0.0
H117 H 0.13114 0.50512 0.24751 0.0
H118 H 0.14085 0.4756 0.22176 0.0
H119 H 0.14834 0.50779 0.20879 0.0
C120 C 0.18624 0.46253 0.14314 0.0
C121 C 0.1977 0.48188 0.1251 0.0
C122 C 0.18648 0.46594 0.17987 0.0
C123 C 0.19811 0.48878 0.19927 0.0
C124 C 0.2101 0.50787 0.18153 0.0
H125 H 0.17757 0.54902 0.41459 0.0
H126 H 0.17914 0.54216 0.35071 0.0
C127 C 0.20982 0.50451 0.14473 0.0
C128 C 0.19764 0.49277 0.2381 0.0
H129 H 0.15562 0.50127 0.3029 0.0
C130 C 0.22186 0.49362 0.25964 0.0
C131 C 0.17347 0.4959 0.2538 0.0
C132 C 0.14695 0.49631 0.23185 0.0
C133 C 0.22254 0.49717 0.29662 0.0
C134 C 0.19832 0.49962 0.31234 0.0
C135 C 0.17413 0.49912 0.29075 0.0
C136 C 0.19763 0.50351 0.35116 0.0
C137 C 0.24915 0.49875 0.31855 0.0
C138 C 0.20722 0.48388 0.37256 0.0
C139 C 0.20635 0.48771 0.40917 0.0
C140 C 0.19576 0.51123 0.42498 0.0
C141 C 0.1859 0.5307 0.40334 0.0
C142 C 0.18677 0.52682 0.3668 0.0
H143 H 0.26566 0.50279 0.30259 0.0
H144 H 0.24921 0.51458 0.34093 0.0
H145 H 0.25311 0.47947 0.32961 0.0
H146 H 0.21523 0.46551 0.36092 0.0
H147 H 0.21401 0.47228 0.42505 0.0
H148 H 0.48877 0.23637 0.62976 0.0
H149 H 0.48417 0.23973 0.69319 0.0
H150 H 0.5365 0.17273 0.70384 0.0
H151 H 0.54222 0.17024 0.64099 0.0
H152 H 0.46401 0.20767 0.73167 0.0
H153 H 0.56966 0.22196 0.78308 0.0
H154 H 0.55834 0.22366 0.73715 0.0
H155 H 0.5653 0.19194 0.75383 0.0
C156 C 0.49949 0.22255 0.64576 0.0
C157 C 0.51605 0.20321 0.63052 0.0
C158 C 0.49685 0.22447 0.682 0.0
C159 C 0.51046 0.20687 0.70358 0.0
C160 C 0.52656 0.18718 0.68814 0.0
H161 H 0.46148 0.16614 0.90188 0.0
H162 H 0.46857 0.16945 0.84023 0.0
C163 C 0.52964 0.18562 0.6521 0.0
C164 C 0.50679 0.2082 0.74183 0.0
H165 H 0.54047 0.20774 0.82374 0.0
C166 C 0.48076 0.208 0.75181 0.0
C167 C 0.52857 0.20923 0.76834 0.0
C168 C 0.557 0.21202 0.76006 0.0
C169 C 0.47591 0.20796 0.78731 0.0
C170 C 0.4977 0.20693 0.81351 0.0
C171 C 0.52373 0.20802 0.80367 0.0
C172 C 0.49397 0.20451 0.85114 0.0
C173 C 0.44745 0.20947 0.79626 0.0
C174 C 0.50696 0.22224 0.87812 0.0
C175 C 0.50357 0.21987 0.91354 0.0
C176 C 0.48685 0.19991 0.92259 0.0
C177 C 0.47417 0.18197 0.89565 0.0
C178 C 0.47802 0.184 0.86035 0.0
H179 H 0.43461 0.21942 0.77626 0.0
H180 H 0.43946 0.18901 0.79638 0.0
H181 H 0.44594 0.22049 0.8226 0.0
H182 H 0.51954 0.23811 0.87175 0.0
H183 H 0.51357 0.234 0.93376 0.0
H184 H 0.7771 0.51813 0.42608 0.0
H185 H 0.77575 0.523 0.36288 0.0
H186 H 0.81329 0.44666 0.34591 0.0
H187 H 0.81496 0.44169 0.40896 0.0
H188 H 0.83734 0.4873 0.31534 0.0
H189 H 0.72792 0.48427 0.27987 0.0
H190 H 0.73905 0.50808 0.3165 0.0
H191 H 0.74332 0.47313 0.32044 0.0
C192 C 0.78487 0.50227 0.40887 0.0
C193 C 0.79613 0.47951 0.4226 0.0
C194 C 0.78394 0.50502 0.37273 0.0
C195 C 0.79414 0.48504 0.34968 0.0
C196 C 0.80521 0.46225 0.36325 0.0
H197 H 0.77915 0.47183 0.1195 0.0
H198 H 0.77766 0.46397 0.18148 0.0
C199 C 0.80612 0.45945 0.39931 0.0
C200 C 0.79452 0.48842 0.31168 0.0
H201 H 0.7546 0.4966 0.23611 0.0
C202 C 0.81926 0.48923 0.29797 0.0
C203 C 0.77088 0.49065 0.28904 0.0
C204 C 0.74375 0.48876 0.30203 0.0
C205 C 0.82102 0.49272 0.26234 0.0
C206 C 0.79743 0.49579 0.23995 0.0
C207 C 0.77265 0.49444 0.25345 0.0
C208 C 0.79814 0.50065 0.2025 0.0
C209 C 0.84812 0.49284 0.24884 0.0
C210 C 0.80987 0.52401 0.19388 0.0
C211 C 0.81075 0.52857 0.15859 0.0
C212 C 0.79983 0.50987 0.13119 0.0
C213 C 0.78784 0.48658 0.13994 0.0
C214 C 0.78691 0.48208 0.17532 0.0
H215 H 0.86343 0.48377 0.26677 0.0
H216 H 0.84761 0.48188 0.22211 0.0
H217 H 0.85429 0.51371 0.24698 0.0
H218 H 0.81825 0.53879 0.2145 0.0
H219 H 0.82001 0.54678 0.15284 0.0
H220 H 0.55518 0.81818 0.92428 0.0
H221 H 0.54916 0.81751 0.86001 0.0
H222 H 0.47265 0.77908 0.85767 0.0
H223 H 0.47851 0.77947 0.92207 0.0
H224 H 0.50576 0.7565 0.80567 0.0
H225 H 0.49665 0.8663 0.80671 0.0
H226 H 0.52575 0.85524 0.832 0.0
H227 H 0.49333 0.84917 0.84531 0.0
C228 C 0.53708 0.8095 0.91016 0.0
C229 C 0.51724 0.79901 0.92837 0.0
C230 C 0.53364 0.80925 0.87343 0.0
C231 C 0.5103 0.7986 0.8542 0.0
C232 C 0.49075 0.78751 0.87211 0.0
H233 H 0.44938 0.82123 0.6399 0.0
H234 H 0.45655 0.81925 0.7037 0.0
C235 C 0.49413 0.78779 0.9089 0.0
C236 C 0.50621 0.79925 0.81541 0.0
H237 H 0.49893 0.84167 0.75103 0.0
C238 C 0.50425 0.77508 0.79366 0.0
C239 C 0.50396 0.82356 0.79993 0.0
C240 C 0.50479 0.85008 0.82212 0.0
C241 C 0.50043 0.77459 0.75671 0.0
C242 C 0.49881 0.79891 0.74122 0.0
C243 C 0.50043 0.82306 0.76301 0.0
C244 C 0.49468 0.79979 0.70245 0.0
C245 C 0.49768 0.74808 0.73456 0.0
C246 C 0.51391 0.78976 0.68065 0.0
C247 C 0.50991 0.79089 0.6441 0.0
C248 C 0.48661 0.80215 0.62875 0.0
C249 C 0.46752 0.81238 0.65079 0.0
C250 C 0.47157 0.81129 0.68728 0.0
H251 H 0.49334 0.73166 0.7505 0.0
H252 H 0.48157 0.74864 0.71265 0.0
H253 H 0.51659 0.7435 0.72281 0.0
H254 H 0.5321 0.78122 0.69193 0.0
H255 H 0.52505 0.78291 0.6279 0.0
H256 H 0.82116 0.44977 0.63956 0.0
H257 H 0.81877 0.45694 0.70325 0.0
H258 H 0.78102 0.53259 0.69129 0.0
H259 H 0.78306 0.5255 0.6273 0.0
H260 H 0.8409 0.49858 0.751 0.0
H261 H 0.73074 0.49448 0.74899 0.0
H262 H 0.74788 0.48289 0.71117 0.0
H263 H 0.74312 0.51792 0.722 0.0
C264 C 0.8123 0.46794 0.65038 0.0
C265 C 0.80221 0.48703 0.62827 0.0
C266 C 0.81096 0.47199 0.68682 0.0
C267 C 0.7994 0.49511 0.70191 0.0
C268 C 0.78958 0.51438 0.68007 0.0
H269 H 0.81678 0.55407 0.92437 0.0
H270 H 0.81649 0.54852 0.86013 0.0
C271 C 0.79091 0.51036 0.64354 0.0
C272 C 0.7982 0.49916 0.74064 0.0
H273 H 0.75526 0.50636 0.80452 0.0
C274 C 0.82219 0.5003 0.76272 0.0
C275 C 0.77374 0.50105 0.75581 0.0
C276 C 0.74736 0.4988 0.73336 0.0
C277 C 0.82239 0.50356 0.79962 0.0
C278 C 0.79795 0.50608 0.81478 0.0
C279 C 0.77394 0.50464 0.79275 0.0
C280 C 0.79701 0.50992 0.85353 0.0
C281 C 0.84872 0.50382 0.82211 0.0
C282 C 0.78548 0.49036 0.87098 0.0
C283 C 0.78555 0.49347 0.90776 0.0
C284 C 0.797 0.51631 0.92767 0.0
C285 C 0.80791 0.53617 0.90991 0.0
C286 C 0.80788 0.533 0.87319 0.0
H287 H 0.86496 0.49554 0.80681 0.0
H288 H 0.85416 0.52465 0.83241 0.0
H289 H 0.84739 0.49219 0.84504 0.0
H290 H 0.77688 0.47246 0.8562 0.0
H291 H 0.7769 0.47785 0.92058 0.0
H292 H 0.47321 0.78347 0.12091 0.0
H293 H 0.46572 0.78199 0.183 0.0
H294 H 0.54215 0.81954 0.21526 0.0
H295 H 0.54977 0.82132 0.15345 0.0
H296 H 0.49739 0.75733 0.23646 0.0
H297 H 0.48975 0.86659 0.26954 0.0
H298 H 0.48706 0.85121 0.2246 0.0
H299 H 0.51917 0.85621 0.24927 0.0
C300 C 0.4884 0.7915 0.1412 0.0
C301 C 0.51203 0.80266 0.13219 0.0
C302 C 0.48409 0.79058 0.17664 0.0
C303 C 0.50323 0.80096 0.20367 0.0
C304 C 0.52693 0.81184 0.19479 0.0
H305 H 0.51933 0.77792 0.4269 0.0
H306 H 0.52478 0.77713 0.36387 0.0
C307 C 0.53128 0.81274 0.15941 0.0
C308 C 0.49857 0.8002 0.24119 0.0
H309 H 0.49193 0.83993 0.31744 0.0
C310 C 0.4961 0.77536 0.25418 0.0
C311 C 0.49665 0.82377 0.2641 0.0
C312 C 0.49805 0.85099 0.2512 0.0
C313 C 0.49223 0.77349 0.28973 0.0
C314 C 0.49106 0.79707 0.31284 0.0
C315 C 0.49307 0.82189 0.29969 0.0
C316 C 0.48739 0.79652 0.35071 0.0
C317 C 0.48909 0.74635 0.3022 0.0
C318 C 0.46472 0.80795 0.36422 0.0
C319 C 0.46156 0.80848 0.40015 0.0
C320 C 0.48115 0.79779 0.42339 0.0
C321 C 0.50383 0.78625 0.40973 0.0
C322 C 0.50693 0.78565 0.3737 0.0
H323 H 0.48438 0.73076 0.27978 0.0
H324 H 0.50799 0.74091 0.31707 0.0
H325 H 0.4731 0.74641 0.32018 0.0
H326 H 0.44948 0.81654 0.34692 0.0
H327 H 0.44388 0.81758 0.40975 0.0
H328 H 0.17753 0.44827 0.90018 0.0
H329 H 0.18053 0.45519 0.83839 0.0
H330 H 0.22111 0.53013 0.87064 0.0
H331 H 0.21843 0.52332 0.9327 0.0
H332 H 0.15977 0.49759 0.80243 0.0
H333 H 0.26962 0.49114 0.80181 0.0
H334 H 0.2522 0.47962 0.83654 0.0
H335 H 0.2584 0.51458 0.83563 0.0
C336 C 0.1872 0.4662 0.89422 0.0
C337 C 0.19781 0.48522 0.92143 0.0
C338 C 0.18888 0.47011 0.85887 0.0
C339 C 0.20134 0.49299 0.84998 0.0
C340 C 0.21184 0.5121 0.87698 0.0
H341 H 0.18466 0.55449 0.64514 0.0
H342 H 0.18552 0.54822 0.70776 0.0
C343 C 0.21014 0.50824 0.91242 0.0
C344 C 0.20249 0.49715 0.81236 0.0
H345 H 0.24533 0.50416 0.75005 0.0
C346 C 0.17846 0.49901 0.79095 0.0
C347 C 0.22692 0.49869 0.79742 0.0
C348 C 0.25329 0.49568 0.81888 0.0
C349 C 0.17818 0.5027 0.75504 0.0
C350 C 0.20261 0.50491 0.7403 0.0
C351 C 0.22666 0.50269 0.76156 0.0
C352 C 0.20347 0.50928 0.70272 0.0
C353 C 0.15175 0.50377 0.73302 0.0
C354 C 0.21402 0.48978 0.67935 0.0
C355 C 0.21364 0.49331 0.64348 0.0
C356 C 0.20283 0.5165 0.63045 0.0
C357 C 0.19299 0.53632 0.65422 0.0
C358 C 0.19335 0.53275 0.69001 0.0
H359 H 0.1353 0.49556 0.74607 0.0
H360 H 0.14709 0.52481 0.72901 0.0
H361 H 0.15247 0.49251 0.70666 0.0
H362 H 0.22203 0.47157 0.68874 0.0
H363 H 0.22145 0.4777 0.62593 0.0
H364 H 0.47208 0.2173 0.42633 0.0
H365 H 0.46458 0.21825 0.36219 0.0
H366 H 0.53905 0.17818 0.35005 0.0
H367 H 0.54665 0.17691 0.41392 0.0
H368 H 0.49721 0.24141 0.31676 0.0
H369 H 0.48459 0.13233 0.28244 0.0
H370 H 0.4827 0.14808 0.32663 0.0
H371 H 0.51453 0.14194 0.31025 0.0
C372 C 0.48682 0.20858 0.41001 0.0
C373 C 0.5099 0.19689 0.42526 0.0
C374 C 0.48252 0.2092 0.3734 0.0
C375 C 0.5011 0.19798 0.3514 0.0
C376 C 0.52424 0.18653 0.36653 0.0
H377 H 0.51951 0.22038 0.13299 0.0
H378 H 0.5243 0.22122 0.19742 0.0
C379 C 0.52859 0.18593 0.40308 0.0
C380 C 0.49653 0.19856 0.31264 0.0
H381 H 0.48869 0.15846 0.2349 0.0
C382 C 0.49522 0.22331 0.29882 0.0
C383 C 0.49367 0.17489 0.28938 0.0
C384 C 0.49369 0.14778 0.30284 0.0
C385 C 0.49166 0.22501 0.26222 0.0
C386 C 0.48968 0.20132 0.23895 0.0
C387 C 0.49046 0.17659 0.25282 0.0
C388 C 0.48651 0.20165 0.20006 0.0
C389 C 0.48972 0.25211 0.24879 0.0
C390 C 0.46388 0.19 0.18018 0.0
C391 C 0.46114 0.18935 0.1434 0.0
C392 C 0.48108 0.20022 0.12574 0.0
C393 C 0.50373 0.21194 0.14576 0.0
C394 C 0.50644 0.21258 0.1826 0.0
H395 H 0.48492 0.26779 0.26969 0.0
H396 H 0.50912 0.25737 0.23985 0.0
H397 H 0.47428 0.25216 0.22598 0.0
H398 H 0.44833 0.18135 0.19315 0.0
H399 H 0.44346 0.18014 0.12883 0.0
H400 H 0.9047 0.56868 0.04817 0.0
H401 H 0.95111 0.55649 0.04305 0.0
H402 H 0.92794 0.4738 0.02111 0.0
H403 H 0.88135 0.48578 0.02577 0.0
H404 H 0.98338 0.52166 0.0814 0.0
H405 H 0.97028 0.48754 0.938 0.0
H406 H 0.94567 0.50712 0.95987 0.0
H407 H 0.94816 0.47203 0.96402 0.0
C408 C 0.90943 0.54788 0.04229 0.0
C409 C 0.8893 0.5282 0.03717 0.0
C410 C 0.93596 0.54098 0.03939 0.0
C411 C 0.94283 0.51433 0.03114 0.0
C412 C 0.92292 0.49455 0.0268 0.0
H413 H 0.08965 0.4311 1.00322 0.0
H414 H 0.04351 0.4445 1.00756 0.0
C415 C 0.89635 0.50142 0.02969 0.0
C416 C 0.97091 0.50728 0.02737 0.0
H417 H 0.01235 0.47985 0.9686 0.0
C418 C 0.98978 0.51263 0.05673 0.0
C419 C 0.9791 0.49556 0.99509 0.0
C420 C 0.95983 0.49041 0.96232 0.0
C421 C 0.01664 0.50603 0.05489 0.0
C422 C 0.02481 0.4942 0.02265 0.0
C423 C 0.00596 0.48895 0.99325 0.0
C424 C 0.05276 0.4865 0.01912 0.0
C425 C 0.03592 0.51115 0.08767 0.0
C426 C 0.07315 0.50579 0.02352 0.0
C427 C 0.09959 0.49822 0.02108 0.0
C428 C 0.10603 0.47122 0.01403 0.0
C429 C 0.08541 0.45205 0.00879 0.0
C430 C 0.05903 0.45965 0.01124 0.0
H431 H 0.02546 0.51447 0.11195 0.0
H432 H 0.04976 0.4942 0.0904 0.0
H433 H 0.04794 0.52924 0.0857 0.0
H434 H 0.06861 0.52669 0.02896 0.0
H435 H 0.11498 0.51348 0.02508 0.0
H436 H 0.5107 0.88406 0.53009 0.0
H437 H 0.52234 0.93116 0.53024 0.0
H438 H 0.4394 0.95182 0.5294 0.0
H439 H 0.42754 0.90494 0.52962 0.0
H440 H 0.50419 0.9653 0.47869 0.0
H441 H 0.47564 0.00215 0.61144 0.0
H442 H 0.48045 0.96727 0.59818 0.0
H443 H 0.45018 0.98331 0.58342 0.0
C444 C 0.49495 0.89864 0.53023 0.0
C445 C 0.4682 0.89076 0.52996 0.0
C446 C 0.50164 0.92551 0.53026 0.0
C447 C 0.48175 0.94493 0.53028 0.0
C448 C 0.45507 0.93716 0.53006 0.0
H449 H 0.48317 0.11684 0.52471 0.0
H450 H 0.46997 0.07007 0.52413 0.0
C451 C 0.44835 0.91033 0.53 0.0
C452 C 0.48879 0.97324 0.52917 0.0
H453 H 0.48675 0.03481 0.57472 0.0
C454 C 0.5005 0.98051 0.49972 0.0
C455 C 0.48375 0.99298 0.55659 0.0
C456 C 0.47202 0.9861 0.58937 0.0
C457 C 0.50709 0.00712 0.49676 0.0
C458 C 0.50222 0.02684 0.52428 0.0
C459 C 0.49036 0.0196 0.55364 0.0
C460 C 0.51007 0.05499 0.52365 0.0
C461 C 0.5188 0.01398 0.46396 0.0
C462 C 0.53698 0.06191 0.52388 0.0
C463 C 0.54458 0.08851 0.52418 0.0
C464 C 0.52539 0.10874 0.5245 0.0
C465 C 0.49841 0.10174 0.52435 0.0
C466 C 0.49084 0.07507 0.52407 0.0
H467 H 0.51459 0.99818 0.44167 0.0
H468 H 0.51089 0.03313 0.45559 0.0
H469 H 0.54074 0.01605 0.46962 0.0
H470 H 0.55217 0.04675 0.52428 0.0
H471 H 0.56554 0.09321 0.52448 0.0
H472 H 0.11569 0.48635 0.52487 0.0
H473 H 0.0687 0.47418 0.52451 0.0
H474 H 0.04723 0.55698 0.52658 0.0
H475 H 0.09399 0.56937 0.52659 0.0
H476 H 0.03402 0.49147 0.57593 0.0
H477 H 0.99778 0.52083 0.44349 0.0
H478 H 0.03264 0.51626 0.45706 0.0
H479 H 0.01623 0.54629 0.47202 0.0
C480 C 0.10096 0.50196 0.525 0.0
C481 C 0.10857 0.52882 0.52562 0.0
C482 C 0.07416 0.49497 0.52484 0.0
C483 C 0.05454 0.51466 0.52504 0.0
C484 C 0.06205 0.54146 0.52574 0.0
H485 H 0.88279 0.51279 0.52942 0.0
H486 H 0.92962 0.52581 0.5303 0.0
C487 C 0.08881 0.54849 0.52593 0.0
C488 C 0.02627 0.50729 0.52572 0.0
H489 H 0.96493 0.50926 0.4797 0.0
C490 C 0.0189 0.49523 0.55484 0.0
C491 C 0.00666 0.51238 0.49823 0.0
C492 C 0.01367 0.52444 0.46575 0.0
C493 C 0.99228 0.48841 0.55745 0.0
C494 C 0.97268 0.49341 0.52988 0.0
C495 C 0.98004 0.50555 0.50081 0.0
C496 C 0.94449 0.4856 0.53028 0.0
C497 C 0.98529 0.47637 0.58994 0.0
C498 C 0.93744 0.45869 0.52968 0.0
C499 C 0.91079 0.45119 0.52921 0.0
C500 C 0.89066 0.47048 0.5291 0.0
C501 C 0.89781 0.49746 0.5296 0.0
C502 C 0.92452 0.50493 0.53006 0.0
H503 H 0.00101 0.48036 0.61234 0.0
H504 H 0.96611 0.48423 0.59835 0.0
H505 H 0.98317 0.45446 0.58387 0.0
H506 H 0.95253 0.44343 0.52913 0.0
H507 H 0.90597 0.43023 0.52864 0.0
H508 H 0.48851 0.88433 0.02681 0.0
H509 H 0.47714 0.93111 0.02244 0.0
H510 H 0.56008 0.9532 0.04454 0.0
H511 H 0.57172 0.90655 0.04859 0.0
H512 H 0.48745 0.97537 0.07358 0.0
H513 H 0.5371 0.98632 0.9524 0.0
H514 H 0.52996 0.95425 0.96661 0.0
H515 H 0.55795 0.97373 0.98774 0.0
C516 C 0.50435 0.89913 0.03077 0.0
C517 C 0.53104 0.89169 0.03784 0.0
C518 C 0.49781 0.92582 0.02825 0.0
C519 C 0.51784 0.94548 0.03258 0.0
C520 C 0.54441 0.93822 0.04039 0.0
H521 H 0.515 0.11744 0.02667 0.0
H522 H 0.52848 0.07121 0.03165 0.0
C523 C 0.55098 0.91157 0.0429 0.0
C524 C 0.51087 0.97364 0.02935 0.0
H525 H 0.51996 0.02558 0.98092 0.0
C526 C 0.49447 0.98636 0.05328 0.0
C527 C 0.5202 0.98786 1.00289 0.0
C528 C 0.53709 0.97484 0.97572 0.0
C529 C 0.48732 0.01309 0.05168 0.0
C530 C 0.49647 0.02724 0.02505 0.0
C531 C 0.51304 0.01461 1.00129 0.0
C532 C 0.48848 0.05502 0.02097 0.0
C533 C 0.47035 0.02607 0.07878 0.0
C534 C 0.46165 0.06103 0.01252 0.0
C535 C 0.45389 0.08731 0.00962 0.0
C536 C 0.47288 0.10809 0.01496 0.0
C537 C 0.49989 0.10191 0.0225 0.0
C538 C 0.50763 0.07554 0.02537 0.0
H539 H 0.47077 0.01488 0.1024 0.0
H540 H 0.47707 0.04687 0.08738 0.0
H541 H 0.4494 0.02662 0.06692 0.0
H542 H 0.44666 0.04536 0.00832 0.0
H543 H 0.43295 0.09133 1.00356 0.0
H544 H 0.27272 0.435 0.02546 0.0
H545 H 0.31142 0.4056 0.02807 0.0
H546 H 0.25916 0.33697 0.01078 0.0
H547 H 0.22052 0.36596 0.00837 0.0
H548 H 0.29983 0.33692 0.06929 0.0
H549 H 0.33962 0.35818 0.94405 0.0
H550 H 0.33279 0.38618 0.97474 0.0
H551 H 0.3058 0.36579 0.95287 0.0
C552 C 0.26949 0.41364 0.02206 0.0
C553 C 0.24354 0.40281 0.01668 0.0
C554 C 0.2916 0.39692 0.02342 0.0
C555 C 0.28806 0.36918 0.01933 0.0
C556 C 0.26224 0.35836 0.01393 0.0
H557 H 0.36612 0.22108 0.00905 0.0
H558 H 0.33664 0.25934 0.01234 0.0
C559 C 0.24019 0.37498 0.01252 0.0
C560 C 0.31102 0.35109 0.02152 0.0
H561 H 0.36185 0.32591 0.9761 0.0
C562 C 0.31357 0.33468 0.04914 0.0
C563 C 0.32898 0.34845 0.99531 0.0
C564 C 0.32674 0.36543 0.96487 0.0
C565 C 0.33314 0.31505 0.05065 0.0
C566 C 0.35026 0.3115 0.0235 0.0
C567 C 0.34856 0.3287 0.99676 0.0
C568 C 0.36848 0.28865 0.02098 0.0
C569 C 0.33507 0.29794 0.08096 0.0
C570 C 0.39614 0.29258 0.02382 0.0
C571 C 0.41314 0.2707 0.02189 0.0
C572 C 0.40265 0.2446 0.01676 0.0
C573 C 0.37487 0.24088 0.01319 0.0
C574 C 0.35798 0.2627 0.01524 0.0
H575 H 0.32603 0.30781 0.10415 0.0
H576 H 0.32419 0.27891 0.07248 0.0
H577 H 0.35613 0.29324 0.08918 0.0
H578 H 0.40454 0.31253 0.02799 0.0
H579 H 0.43444 0.27422 0.0246 0.0
H580 H 0.72342 0.43562 0.52141 0.0
H581 H 0.68477 0.40712 0.52601 0.0
H582 H 0.73571 0.33859 0.52772 0.0
H583 H 0.77427 0.36663 0.52312 0.0
H584 H 0.66646 0.35828 0.47951 0.0
H585 H 0.69543 0.34065 0.61897 0.0
H586 H 0.70817 0.36837 0.59901 0.0
H587 H 0.72178 0.33569 0.59072 0.0
C588 C 0.72636 0.41446 0.52261 0.0
C589 C 0.75194 0.4034 0.5221 0.0
C590 C 0.70428 0.39826 0.52525 0.0
C591 C 0.70757 0.37092 0.52774 0.0
C592 C 0.73292 0.35976 0.52637 0.0
H593 H 0.63062 0.225 0.53829 0.0
H594 H 0.65938 0.26378 0.53822 0.0
C595 C 0.7549 0.37582 0.52358 0.0
C596 C 0.68473 0.35364 0.53177 0.0
H597 H 0.66312 0.3107 0.58645 0.0
C598 C 0.66533 0.3482 0.50307 0.0
C599 C 0.68342 0.34072 0.56266 0.0
C600 C 0.70316 0.34679 0.59476 0.0
C601 C 0.64551 0.32876 0.50363 0.0
C602 C 0.64503 0.31487 0.5339 0.0
C603 C 0.66366 0.32134 0.56324 0.0
C604 C 0.62707 0.29185 0.5345 0.0
C605 C 0.62618 0.32218 0.47121 0.0
C606 C 0.59937 0.29491 0.53284 0.0
C607 C 0.58278 0.2727 0.53284 0.0
C608 C 0.59372 0.24716 0.53461 0.0
C609 C 0.62153 0.24435 0.53682 0.0
C610 C 0.63801 0.26649 0.53683 0.0
H611 H 0.63196 0.33173 0.4481 0.0
H612 H 0.62485 0.30031 0.46414 0.0
H613 H 0.60608 0.32929 0.47679 0.0
H614 H 0.59061 0.31443 0.53157 0.0
H615 H 0.56144 0.27554 0.53124 0.0
H616 H 0.72165 0.55956 0.02869 0.0
H617 H 0.68211 0.58776 0.03064 0.0
H618 H 0.73249 0.65754 0.05404 0.0
H619 H 0.77193 0.62975 0.05239 0.0
H620 H 0.68977 0.65353 0.09899 0.0
H621 H 0.65584 0.63897 0.95501 0.0
H622 H 0.66254 0.60983 0.9779 0.0
H623 H 0.68942 0.63165 0.97202 0.0
C624 C 0.72428 0.58092 0.03422 0.0
C625 C 0.74993 0.59243 0.04029 0.0
C626 C 0.70169 0.59696 0.0352 0.0
C627 C 0.70448 0.62468 0.04222 0.0
C628 C 0.73 0.63615 0.04855 0.0
H629 H 0.63074 0.77312 0.05528 0.0
H630 H 0.65803 0.73341 0.05777 0.0
C631 C 0.75251 0.62022 0.04751 0.0
C632 C 0.68104 0.64214 0.04325 0.0
H633 H 0.63292 0.67029 0.9901 0.0
C634 C 0.67706 0.65693 0.07531 0.0
C635 C 0.66442 0.64629 0.01233 0.0
C636 C 0.66818 0.63101 0.97723 0.0
C637 C 0.65759 0.67668 0.07699 0.0
C638 C 0.64209 0.68199 0.04567 0.0
C639 C 0.64497 0.66615 0.014 0.0
C640 C 0.62501 0.70571 0.0446 0.0
C641 C 0.65425 0.69219 0.11207 0.0
C642 C 0.59744 0.70322 0.03557 0.0
C643 C 0.58169 0.72598 0.03406 0.0
C644 C 0.59339 0.75151 0.04115 0.0
C645 C 0.62107 0.75379 0.04978 0.0
C646 C 0.6367 0.73112 0.05144 0.0
H647 H 0.66145 0.68078 0.13447 0.0
H648 H 0.66611 0.71092 0.11447 0.0
H649 H 0.63308 0.69748 0.1143 0.0
H650 H 0.58815 0.68371 0.02989 0.0
H651 H 0.56043 0.72357 0.02721 0.0
H652 H 0.36742 0.77058 0.5134 0.0
H653 H 0.33997 0.73085 0.51319 0.0
H654 H 0.41046 0.68271 0.52203 0.0
H655 H 0.43834 0.72261 0.52264 0.0
H656 H 0.33842 0.68339 0.46552 0.0
H657 H 0.36863 0.66491 0.60516 0.0
H658 H 0.37476 0.69643 0.58873 0.0
H659 H 0.39463 0.66809 0.57685 0.0
C660 C 0.37718 0.75158 0.51527 0.0
C661 C 0.40509 0.74978 0.51821 0.0
C662 C 0.36144 0.7289 0.51508 0.0
C663 C 0.37323 0.70396 0.51796 0.0
C664 C 0.40105 0.70189 0.52029 0.0
H665 H 0.27651 0.56027 0.53234 0.0
H666 H 0.31566 0.58801 0.52734 0.0
C667 C 0.41689 0.72466 0.52045 0.0
C668 C 0.35597 0.68043 0.51864 0.0
H669 H 0.3343 0.638 0.57414 0.0
C670 C 0.33779 0.67317 0.48906 0.0
C671 C 0.35534 0.66709 0.54937 0.0
C672 C 0.37423 0.6745 0.582 0.0
C673 C 0.31817 0.6537 0.48993 0.0
C674 C 0.31658 0.64147 0.5213 0.0
C675 C 0.33566 0.64756 0.55021 0.0
C676 C 0.29351 0.62461 0.52567 0.0
C677 C 0.2987 0.64695 0.4577 0.0
C678 C 0.2684 0.63625 0.52719 0.0
C679 C 0.24615 0.62064 0.53025 0.0
C680 C 0.24861 0.59302 0.53179 0.0
C681 C 0.27397 0.58147 0.5311 0.0
C682 C 0.29632 0.59723 0.52823 0.0
H683 H 0.30653 0.65278 0.4334 0.0
H684 H 0.29399 0.62529 0.45403 0.0
H685 H 0.27989 0.65785 0.4612 0.0
H686 H 0.26599 0.65746 0.52572 0.0
H687 H 0.22697 0.6302 0.53081 0.0
loop_
_geom_bond_atom_site_label_1
_geom_bond_atom_site_label_2
_geom_bond_distance
_geom_bond_site_symmetry_2
_ccdc_geom_bond_type
C0 O2 1.247 . S
C0 O4 1.258 . S
C1 O8 1.247 . S
C1 O9 1.258 . S
O2 C0 1.247 . S
O2 Zn3 2.028 . S
Zn3 O2 2.028 . S
Zn3 O7 2.035 . S
Zn3 O9 2.035 . S
Zn3 O10 2.028 1_554 S
O4 C0 1.258 . S
O4 Zn5 2.035 . S
Zn5 O4 2.035 . S
Zn5 O6 2.028 . S
Zn5 O8 2.028 . S
Zn5 O11 2.035 1_554 S
O6 Zn5 2.028 . S
O6 C12 1.247 . S
O7 Zn3 2.035 . S
O7 C12 1.258 . S
O8 C1 1.247 . S
O8 Zn5 2.028 . S
O9 C1 1.258 . S
O9 Zn3 2.035 . S
O10 Zn3 2.028 1_556 S
O10 C13 1.247 . S
O11 Zn5 2.035 1_556 S
O11 C13 1.258 . S
C12 O6 1.247 . S
C12 O7 1.258 . S
C13 O10 1.247 . S
C13 O11 1.258 . S
C14 O16 1.247 . S
C14 O18 1.258 . S
C15 O22 1.247 . S
C15 O23 1.258 . S
O16 C14 1.247 . S
O16 Zn17 2.028 . S
Zn17 O16 2.028 . S
Zn17 O21 2.035 . S
Zn17 O23 2.035 . S
Zn17 O24 2.028 . S
O18 C14 1.258 . S
O18 Zn19 2.035 . S
Zn19 O18 2.035 . S
Zn19 O20 2.028 . S
Zn19 O22 2.028 . S
Zn19 O25 2.035 . S
O20 Zn19 2.028 . S
O20 C26 1.247 . S
O21 Zn17 2.035 . S
O21 C26 1.258 . S
O22 C15 1.247 . S
O22 Zn19 2.028 . S
O23 C15 1.258 . S
O23 Zn17 2.035 . S
O24 Zn17 2.028 . S
O24 C27 1.247 . S
O25 Zn19 2.035 . S
O25 C27 1.258 . S
C26 O20 1.247 . S
C26 O21 1.258 . S
C27 O24 1.247 . S
C27 O25 1.258 . S
C28 O30 1.247 . S
C28 O32 1.258 . S
C29 O36 1.247 . S
C29 O37 1.258 . S
O30 C28 1.247 . S
O30 Zn31 2.028 . S
Zn31 O30 2.028 . S
Zn31 O35 2.035 . S
Zn31 O37 2.035 . S
Zn31 O38 2.028 1_554 S
O32 C28 1.258 . S
O32 Zn33 2.035 . S
Zn33 O32 2.035 . S
Zn33 O34 2.028 . S
Zn33 O36 2.028 . S
Zn33 O39 2.035 1_554 S
O34 Zn33 2.028 . S
O34 C40 1.247 . S
O35 Zn31 2.035 . S
O35 C40 1.258 . S
O36 C29 1.247 . S
O36 Zn33 2.028 . S
O37 C29 1.258 . S
O37 Zn31 2.035 . S
O38 Zn31 2.028 1_556 S
O38 C41 1.247 . S
O39 Zn33 2.035 1_556 S
O39 C41 1.258 . S
C40 O34 1.247 . S
C40 O35 1.258 . S
C41 O38 1.247 . S
C41 O39 1.258 . S
C42 O44 1.247 . S
C42 O46 1.258 . S
C43 O50 1.247 . S
C43 O51 1.258 . S
O44 C42 1.247 . S
O44 Zn45 2.028 . S
Zn45 O44 2.028 . S
Zn45 O49 2.035 . S
Zn45 O51 2.035 . S
Zn45 O52 2.028 . S
O46 C42 1.258 . S
O46 Zn47 2.035 . S
Zn47 O46 2.035 . S
Zn47 O48 2.028 . S
Zn47 O50 2.028 . S
Zn47 O53 2.035 . S
O48 Zn47 2.028 . S
O48 C54 1.247 . S
O49 Zn45 2.035 . S
O49 C54 1.258 . S
O50 C43 1.247 . S
O50 Zn47 2.028 . S
O51 C43 1.258 . S
O51 Zn45 2.035 . S
O52 Zn45 2.028 . S
O52 C55 1.247 . S
O53 Zn47 2.035 . S
O53 C55 1.258 . S
C54 O48 1.247 . S
C54 O49 1.258 . S
C55 O52 1.247 . S
C55 O53 1.258 . S
C56 O58 1.247 . S
C56 O60 1.258 . S
C57 O64 1.247 . S
C57 O65 1.258 . S
O58 C56 1.247 . S
O58 Zn59 2.028 . S
Zn59 O58 2.028 . S
Zn59 O63 2.035 . S
Zn59 O65 2.035 . S
Zn59 O66 2.028 . S
O60 C56 1.258 . S
O60 Zn61 2.035 . S
Zn61 O60 2.035 . S
Zn61 O62 2.028 . S
Zn61 O64 2.028 . S
Zn61 O67 2.035 . S
O62 Zn61 2.028 . S
O62 C68 1.247 . S
O63 Zn59 2.035 . S
O63 C68 1.258 . S
O64 C57 1.247 . S
O64 Zn61 2.028 . S
O65 C57 1.258 . S
O65 Zn59 2.035 . S
O66 Zn59 2.028 . S
O66 C69 1.247 . S
O67 Zn61 2.035 . S
O67 C69 1.258 . S
C68 O62 1.247 . S
C68 O63 1.258 . S
C69 O66 1.247 . S
C69 O67 1.258 . S
C70 O72 1.247 . S
C70 O74 1.258 . S
C71 O78 1.247 . S
C71 O79 1.258 . S
O72 C70 1.247 . S
O72 Zn73 2.028 . S
Zn73 O72 2.028 . S
Zn73 O77 2.035 . S
Zn73 O79 2.035 . S
Zn73 O80 2.028 1_554 S
O74 C70 1.258 . S
O74 Zn75 2.035 . S
Zn75 O74 2.035 . S
Zn75 O76 2.028 . S
Zn75 O78 2.028 . S
Zn75 O81 2.035 1_554 S
O76 Zn75 2.028 . S
O76 C82 1.247 . S
O77 Zn73 2.035 . S
O77 C82 1.258 . S
O78 C71 1.247 . S
O78 Zn75 2.028 . S
O79 C71 1.258 . S
O79 Zn73 2.035 . S
O80 Zn73 2.028 1_556 S
O80 C83 1.247 . S
O81 Zn75 2.035 1_556 S
O81 C83 1.258 . S
C82 O76 1.247 . S
C82 O77 1.258 . S
C83 O80 1.247 . S
C83 O81 1.258 . S
C84 O86 1.247 . S
C84 O88 1.258 . S
C85 O92 1.247 . S
C85 O93 1.258 . S
O86 C84 1.247 . S
O86 Zn87 2.028 . S
Zn87 O86 2.028 . S
Zn87 O91 2.035 . S
Zn87 O93 2.035 . S
Zn87 O94 2.028 . S
O88 C84 1.258 . S
O88 Zn89 2.035 . S
Zn89 O88 2.035 . S
Zn89 O90 2.028 . S
Zn89 O92 2.028 . S
Zn89 O95 2.035 . S
O90 Zn89 2.028 . S
O90 C96 1.247 . S
O91 Zn87 2.035 . S
O91 C96 1.258 . S
O92 C85 1.247 . S
O92 Zn89 2.028 . S
O93 C85 1.258 . S
O93 Zn87 2.035 . S
O94 Zn87 2.028 . S
O94 C97 1.247 . S
O95 Zn89 2.035 . S
O95 C97 1.258 . S
C96 O90 1.247 . S
C96 O91 1.258 . S
C97 O94 1.247 . S
C97 O95 1.258 . S
C98 O100 1.247 . S
C98 O102 1.258 . S
C99 O106 1.247 . S
C99 O107 1.258 . S
O100 C98 1.247 . S
O100 Zn101 2.028 . S
Zn101 O100 2.028 . S
Zn101 O105 2.035 1_554 S
Zn101 O107 2.035 . S
Zn101 O108 2.028 . S
O102 C98 1.258 . S
O102 Zn103 2.035 . S
Zn103 O102 2.035 . S
Zn103 O104 2.028 1_554 S
Zn103 O106 2.028 . S
Zn103 O109 2.035 . S
O104 Zn103 2.028 1_556 S
O104 C110 1.247 . S
O105 Zn101 2.035 1_556 S
O105 C110 1.258 . S
O106 C99 1.247 . S
O106 Zn103 2.028 . S
O107 C99 1.258 . S
O107 Zn101 2.035 . S
O108 Zn101 2.028 . S
O108 C111 1.247 . S
O109 Zn103 2.035 . S
O109 C111 1.258 . S
C110 O104 1.247 . S
C110 O105 1.258 . S
C111 O108 1.247 . S
C111 O109 1.258 . S
H112 C120 0.929 . S
H113 C122 0.930 . S
H114 C124 0.930 . S
H115 C127 0.929 . S
H116 C130 0.930 . S
H117 C132 0.960 . S
H118 C132 0.960 . S
H119 C132 0.960 . S
C120 H112 0.929 . S
C120 C121 1.377 . S
C120 C122 1.384 . S
C121 C120 1.377 . S
C121 C127 1.390 . S
C122 H113 0.930 . S
C122 C120 1.384 . S
C122 C123 1.372 . S
C123 C122 1.372 . S
C123 C124 1.400 . S
C123 C128 1.490 . S
C124 H114 0.930 . S
C124 C123 1.400 . S
C124 C127 1.386 . S
H125 C141 0.930 . S
H126 C142 0.931 . S
C127 H115 0.929 . S
C127 C121 1.390 . S
C127 C124 1.386 . S
C128 C123 1.490 . S
C128 C130 1.395 . S
C128 C131 1.403 . S
H129 C135 0.930 . S
C130 H116 0.930 . S
C130 C128 1.395 . S
C130 C133 1.403 . S
C131 C128 1.403 . S
C131 C132 1.524 . S
C131 C135 1.400 . S
C132 H117 0.960 . S
C132 H118 0.960 . S
C132 H119 0.960 . S
C132 C131 1.524 . S
C133 C130 1.403 . S
C133 C134 1.392 . S
C133 C137 1.495 . S
C134 C133 1.392 . S
C134 C135 1.385 . S
C134 C136 1.478 . S
C135 H129 0.930 . S
C135 C131 1.400 . S
C135 C134 1.385 . S
C136 C134 1.478 . S
C136 C138 1.381 . S
C136 C142 1.383 . S
C137 C133 1.495 . S
C137 H143 0.959 . S
C137 H144 0.961 . S
C137 H145 0.960 . S
C138 C136 1.381 . S
C138 C139 1.394 . S
C138 H146 0.930 . S
C139 C138 1.394 . S
C139 C140 1.383 . S
C139 H147 0.929 . S
C140 C139 1.383 . S
C140 C141 1.377 . S
C141 H125 0.930 . S
C141 C140 1.377 . S
C141 C142 1.379 . S
C142 H126 0.931 . S
C142 C136 1.383 . S
C142 C141 1.379 . S
H143 C137 0.959 . S
H144 C137 0.961 . S
H145 C137 0.960 . S
H146 C138 0.930 . S
H147 C139 0.929 . S
H148 C156 0.929 . S
H149 C158 0.930 . S
H150 C160 0.930 . S
H151 C163 0.929 . S
H152 C166 0.930 . S
H153 C168 0.960 . S
H154 C168 0.960 . S
H155 C168 0.960 . S
C156 H148 0.929 . S
C156 C157 1.377 . S
C156 C158 1.384 . S
C157 C156 1.377 . S
C157 C163 1.390 . S
C158 H149 0.930 . S
C158 C156 1.384 . S
C158 C159 1.372 . S
C159 C158 1.372 . S
C159 C160 1.400 . S
C159 C164 1.490 . S
C160 H150 0.930 . S
C160 C159 1.400 . S
C160 C163 1.386 . S
H161 C177 0.930 . S
H162 C178 0.931 . S
C163 H151 0.929 . S
C163 C157 1.390 . S
C163 C160 1.386 . S
C164 C159 1.490 . S
C164 C166 1.395 . S
C164 C167 1.403 . S
H165 C171 0.930 . S
C166 H152 0.930 . S
C166 C164 1.395 . S
C166 C169 1.403 . S
C167 C164 1.403 . S
C167 C168 1.524 . S
C167 C171 1.400 . S
C168 H153 0.960 . S
C168 H154 0.960 . S
C168 H155 0.960 . S
C168 C167 1.524 . S
C169 C166 1.403 . S
C169 C170 1.392 . S
C169 C173 1.495 . S
C170 C169 1.392 . S
C170 C171 1.385 . S
C170 C172 1.478 . S
C171 H165 0.930 . S
C171 C167 1.400 . S
C171 C170 1.385 . S
C172 C170 1.478 . S
C172 C174 1.381 . S
C172 C178 1.383 . S
C173 C169 1.495 . S
C173 H179 0.959 . S
C173 H180 0.961 . S
C173 H181 0.960 . S
C174 C172 1.381 . S
C174 C175 1.394 . S
C174 H182 0.930 . S
C175 C174 1.394 . S
C175 C176 1.383 . S
C175 H183 0.929 . S
C176 C175 1.383 . S
C176 C177 1.377 . S
C177 H161 0.930 . S
C177 C176 1.377 . S
C177 C178 1.379 . S
C178 H162 0.931 . S
C178 C172 1.383 . S
C178 C177 1.379 . S
H179 C173 0.959 . S
H180 C173 0.961 . S
H181 C173 0.960 . S
H182 C174 0.930 . S
H183 C175 0.929 . S
H184 C192 0.929 . S
H185 C194 0.930 . S
H186 C196 0.930 . S
H187 C199 0.929 . S
H188 C202 0.930 . S
H189 C204 0.960 . S
H190 C204 0.960 . S
H191 C204 0.960 . S
C192 H184 0.929 . S
C192 C193 1.377 . S
C192 C194 1.384 . S
C193 C192 1.377 . S
C193 C199 1.390 . S
C194 H185 0.930 . S
C194 C192 1.384 . S
C194 C195 1.372 . S
C195 C194 1.372 . S
C195 C196 1.400 . S
C195 C200 1.490 . S
C196 H186 0.930 . S
C196 C195 1.400 . S
C196 C199 1.386 . S
H197 C213 0.930 . S
H198 C214 0.931 . S
C199 H187 0.929 . S
C199 C193 1.390 . S
C199 C196 1.386 . S
C200 C195 1.490 . S
C200 C202 1.395 . S
C200 C203 1.403 . S
H201 C207 0.930 . S
C202 H188 0.930 . S
C202 C200 1.395 . S
C202 C205 1.403 . S
C203 C200 1.403 . S
C203 C204 1.524 . S
C203 C207 1.400 . S
C204 H189 0.960 . S
C204 H190 0.960 . S
C204 H191 0.960 . S
C204 C203 1.524 . S
C205 C202 1.403 . S
C205 C206 1.392 . S
C205 C209 1.495 . S
C206 C205 1.392 . S
C206 C207 1.385 . S
C206 C208 1.478 . S
C207 H201 0.930 . S
C207 C203 1.400 . S
C207 C206 1.385 . S
C208 C206 1.478 . S
C208 C210 1.381 . S
C208 C214 1.383 . S
C209 C205 1.495 . S
C209 H215 0.959 . S
C209 H216 0.961 . S
C209 H217 0.960 . S
C210 C208 1.381 . S
C210 C211 1.394 . S
C210 H218 0.930 . S
C211 C210 1.394 . S
C211 C212 1.383 . S
C211 H219 0.929 . S
C212 C211 1.383 . S
C212 C213 1.377 . S
C213 H197 0.930 . S
C213 C212 1.377 . S
C213 C214 1.379 . S
C214 H198 0.931 . S
C214 C208 1.383 . S
C214 C213 1.379 . S
H215 C209 0.959 . S
H216 C209 0.961 . S
H217 C209 0.960 . S
H218 C210 0.930 . S
H219 C211 0.929 . S
H220 C228 0.929 . S
H221 C230 0.930 . S
H222 C232 0.930 . S
H223 C235 0.929 . S
H224 C238 0.930 . S
H225 C240 0.960 . S
H226 C240 0.960 . S
H227 C240 0.960 . S
C228 H220 0.929 . S
C228 C229 1.377 . S
C228 C230 1.384 . S
C229 C228 1.377 . S
C229 C235 1.390 . S
C230 H221 0.930 . S
C230 C228 1.384 . S
C230 C231 1.372 . S
C231 C230 1.372 . S
C231 C232 1.400 . S
C231 C236 1.490 . S
C232 H222 0.930 . S
C232 C231 1.400 . S
C232 C235 1.386 . S
H233 C249 0.930 . S
H234 C250 0.931 . S
C235 H223 0.929 . S
C235 C229 1.390 . S
C235 C232 1.386 . S
C236 C231 1.490 . S
C236 C238 1.395 . S
C236 C239 1.403 . S
H237 C243 0.930 . S
C238 H224 0.930 . S
C238 C236 1.395 . S
C238 C241 1.403 . S
C239 C236 1.403 . S
C239 C240 1.524 . S
C239 C243 1.400 . S
C240 H225 0.960 . S
C240 H226 0.960 . S
C240 H227 0.960 . S
C240 C239 1.524 . S
C241 C238 1.403 . S
C241 C242 1.392 . S
C241 C245 1.495 . S
C242 C241 1.392 . S
C242 C243 1.385 . S
C242 C244 1.478 . S
C243 H237 0.930 . S
C243 C239 1.400 . S
C243 C242 1.385 . S
C244 C242 1.478 . S
C244 C246 1.381 . S
C244 C250 1.383 . S
C245 C241 1.495 . S
C245 H251 0.959 . S
C245 H252 0.961 . S
C245 H253 0.960 . S
C246 C244 1.381 . S
C246 C247 1.394 . S
C246 H254 0.930 . S
C247 C246 1.394 . S
C247 C248 1.383 . S
C247 H255 0.929 . S
C248 C247 1.383 . S
C248 C249 1.377 . S
C249 H233 0.930 . S
C249 C248 1.377 . S
C249 C250 1.379 . S
C250 H234 0.931 . S
C250 C244 1.383 . S
C250 C249 1.379 . S
H251 C245 0.959 . S
H252 C245 0.961 . S
H253 C245 0.960 . S
H254 C246 0.930 . S
H255 C247 0.929 . S
H256 C264 0.929 . S
H257 C266 0.930 . S
H258 C268 0.930 . S
H259 C271 0.929 . S
H260 C274 0.930 . S
H261 C276 0.960 . S
H262 C276 0.960 . S
H263 C276 0.960 . S
C264 H256 0.929 . S
C264 C265 1.377 . S
C264 C266 1.384 . S
C265 C264 1.377 . S
C265 C271 1.390 . S
C266 H257 0.930 . S
C266 C264 1.384 . S
C266 C267 1.372 . S
C267 C266 1.372 . S
C267 C268 1.400 . S
C267 C272 1.490 . S
C268 H258 0.930 . S
C268 C267 1.400 . S
C268 C271 1.386 . S
H269 C285 0.930 . S
H270 C286 0.931 . S
C271 H259 0.929 . S
C271 C265 1.390 . S
C271 C268 1.386 . S
C272 C267 1.490 . S
C272 C274 1.395 . S
C272 C275 1.403 . S
H273 C279 0.930 . S
C274 H260 0.930 . S
C274 C272 1.395 . S
C274 C277 1.403 . S
C275 C272 1.403 . S
C275 C276 1.524 . S
C275 C279 1.400 . S
C276 H261 0.960 . S
C276 H262 0.960 . S
C276 H263 0.960 . S
C276 C275 1.524 . S
C277 C274 1.403 . S
C277 C278 1.392 . S
C277 C281 1.495 . S
C278 C277 1.392 . S
C278 C279 1.385 . S
C278 C280 1.478 . S
C279 H273 0.930 . S
C279 C275 1.400 . S
C279 C278 1.385 . S
C280 C278 1.478 . S
C280 C282 1.381 . S
C280 C286 1.383 . S
C281 C277 1.495 . S
C281 H287 0.959 . S
C281 H288 0.961 . S
C281 H289 0.960 . S
C282 C280 1.381 . S
C282 C283 1.394 . S
C282 H290 0.930 . S
C283 C282 1.394 . S
C283 C284 1.383 . S
C283 H291 0.929 . S
C284 C283 1.383 . S
C284 C285 1.377 . S
C285 H269 0.930 . S
C285 C284 1.377 . S
C285 C286 1.379 . S
C286 H270 0.931 . S
C286 C280 1.383 . S
C286 C285 1.379 . S
H287 C281 0.959 . S
H288 C281 0.961 . S
H289 C281 0.960 . S
H290 C282 0.930 . S
H291 C283 0.929 . S
H292 C300 0.929 . S
H293 C302 0.930 . S
H294 C304 0.930 . S
H295 C307 0.929 . S
H296 C310 0.930 . S
H297 C312 0.960 . S
H298 C312 0.960 . S
H299 C312 0.960 . S
C300 H292 0.929 . S
C300 C301 1.377 . S
C300 C302 1.384 . S
C301 C300 1.377 . S
C301 C307 1.390 . S
C302 H293 0.930 . S
C302 C300 1.384 . S
C302 C303 1.372 . S
C303 C302 1.372 . S
C303 C304 1.400 . S
C303 C308 1.490 . S
C304 H294 0.930 . S
C304 C303 1.400 . S
C304 C307 1.386 . S
H305 C321 0.930 . S
H306 C322 0.931 . S
C307 H295 0.929 . S
C307 C301 1.390 . S
C307 C304 1.386 . S
C308 C303 1.490 . S
C308 C310 1.395 . S
C308 C311 1.403 . S
H309 C315 0.930 . S
C310 H296 0.930 . S
C310 C308 1.395 . S
C310 C313 1.403 . S
C311 C308 1.403 . S
C311 C312 1.524 . S
C311 C315 1.400 . S
C312 H297 0.960 . S
C312 H298 0.960 . S
C312 H299 0.960 . S
C312 C311 1.524 . S
C313 C310 1.403 . S
C313 C314 1.392 . S
C313 C317 1.495 . S
C314 C313 1.392 . S
C314 C315 1.385 . S
C314 C316 1.478 . S
C315 H309 0.930 . S
C315 C311 1.400 . S
C315 C314 1.385 . S
C316 C314 1.478 . S
C316 C318 1.381 . S
C316 C322 1.383 . S
C317 C313 1.495 . S
C317 H323 0.959 . S
C317 H324 0.961 . S
C317 H325 0.960 . S
C318 C316 1.381 . S
C318 C319 1.394 . S
C318 H326 0.930 . S
C319 C318 1.394 . S
C319 C320 1.383 . S
C319 H327 0.929 . S
C320 C319 1.383 . S
C320 C321 1.377 . S
C321 H305 0.930 . S
C321 C320 1.377 . S
C321 C322 1.379 . S
C322 H306 0.931 . S
C322 C316 1.383 . S
C322 C321 1.379 . S
H323 C317 0.959 . S
H324 C317 0.961 . S
H325 C317 0.960 . S
H326 C318 0.930 . S
H327 C319 0.929 . S
H328 C336 0.929 . S
H329 C338 0.930 . S
H330 C340 0.930 . S
H331 C343 0.929 . S
H332 C346 0.930 . S
H333 C348 0.960 . S
H334 C348 0.960 . S
H335 C348 0.960 . S
C336 H328 0.929 . S
C336 C337 1.377 . S
C336 C338 1.384 . S
C337 C336 1.377 . S
C337 C343 1.390 . S
C338 H329 0.930 . S
C338 C336 1.384 . S
C338 C339 1.372 . S
C339 C338 1.372 . S
C339 C340 1.400 . S
C339 C344 1.490 . S
C340 H330 0.930 . S
C340 C339 1.400 . S
C340 C343 1.386 . S
H341 C357 0.930 . S
H342 C358 0.931 . S
C343 H331 0.929 . S
C343 C337 1.390 . S
C343 C340 1.386 . S
C344 C339 1.490 . S
C344 C346 1.395 . S
C344 C347 1.403 . S
H345 C351 0.930 . S
C346 H332 0.930 . S
C346 C344 1.395 . S
C346 C349 1.403 . S
C347 C344 1.403 . S
C347 C348 1.524 . S
C347 C351 1.400 . S
C348 H333 0.960 . S
C348 H334 0.960 . S
C348 H335 0.960 . S
C348 C347 1.524 . S
C349 C346 1.403 . S
C349 C350 1.392 . S
C349 C353 1.495 . S
C350 C349 1.392 . S
C350 C351 1.385 . S
C350 C352 1.478 . S
C351 H345 0.930 . S
C351 C347 1.400 . S
C351 C350 1.385 . S
C352 C350 1.478 . S
C352 C354 1.381 . S
C352 C358 1.383 . S
C353 C349 1.495 . S
C353 H359 0.959 . S
C353 H360 0.961 . S
C353 H361 0.960 . S
C354 C352 1.381 . S
C354 C355 1.394 . S
C354 H362 0.930 . S
C355 C354 1.394 . S
C355 C356 1.383 . S
C355 H363 0.929 . S
C356 C355 1.383 . S
C356 C357 1.377 . S
C357 H341 0.930 . S
C357 C356 1.377 . S
C357 C358 1.379 . S
C358 H342 0.931 . S
C358 C352 1.383 . S
C358 C357 1.379 . S
H359 C353 0.959 . S
H360 C353 0.961 . S
H361 C353 0.960 . S
H362 C354 0.930 . S
H363 C355 0.929 . S
H364 C372 0.929 . S
H365 C374 0.930 . S
H366 C376 0.930 . S
H367 C379 0.929 . S
H368 C382 0.930 . S
H369 C384 0.960 . S
H370 C384 0.960 . S
H371 C384 0.960 . S
C372 H364 0.929 . S
C372 C373 1.377 . S
C372 C374 1.384 . S
C373 C372 1.377 . S
C373 C379 1.390 . S
C374 H365 0.930 . S
C374 C372 1.384 . S
C374 C375 1.372 . S
C375 C374 1.372 . S
C375 C376 1.400 . S
C375 C380 1.490 . S
C376 H366 0.930 . S
C376 C375 1.400 . S
C376 C379 1.386 . S
H377 C393 0.930 . S
H378 C394 0.931 . S
C379 H367 0.929 . S
C379 C373 1.390 . S
C379 C376 1.386 . S
C380 C375 1.490 . S
C380 C382 1.395 . S
C380 C383 1.403 . S
H381 C387 0.930 . S
C382 H368 0.930 . S
C382 C380 1.395 . S
C382 C385 1.403 . S
C383 C380 1.403 . S
C383 C384 1.524 . S
C383 C387 1.400 . S
C384 H369 0.960 . S
C384 H370 0.960 . S
C384 H371 0.960 . S
C384 C383 1.524 . S
C385 C382 1.403 . S
C385 C386 1.392 . S
C385 C389 1.495 . S
C386 C385 1.392 . S
C386 C387 1.385 . S
C386 C388 1.478 . S
C387 H381 0.930 . S
C387 C383 1.400 . S
C387 C386 1.385 . S
C388 C386 1.478 . S
C388 C390 1.381 . S
C388 C394 1.383 . S
C389 C385 1.495 . S
C389 H395 0.959 . S
C389 H396 0.961 . S
C389 H397 0.960 . S
C390 C388 1.381 . S
C390 C391 1.394 . S
C390 H398 0.930 . S
C391 C390 1.394 . S
C391 C392 1.383 . S
C391 H399 0.929 . S
C392 C391 1.383 . S
C392 C393 1.377 . S
C393 H377 0.930 . S
C393 C392 1.377 . S
C393 C394 1.379 . S
C394 H378 0.931 . S
C394 C388 1.383 . S
C394 C393 1.379 . S
H395 C389 0.959 . S
H396 C389 0.961 . S
H397 C389 0.960 . S
H398 C390 0.930 . S
H399 C391 0.929 . S
H400 C408 0.929 . S
H401 C410 0.930 . S
H402 C412 0.930 1_556 S
H403 C415 0.929 1_556 S
H404 C418 0.930 . S
H405 C420 0.960 . S
H406 C420 0.960 . S
H407 C420 0.960 . S
C408 H400 0.929 . S
C408 C409 1.377 . S
C408 C410 1.384 . S
C409 C408 1.377 . S
C409 C415 1.390 . S
C410 H401 0.930 . S
C410 C408 1.384 . S
C410 C411 1.372 . S
C411 C410 1.372 . S
C411 C412 1.400 . S
C411 C416 1.490 . S
C412 H402 0.930 1_554 S
C412 C411 1.400 . S
C412 C415 1.386 . S
H413 C429 0.930 1_556 S
H414 C430 0.931 1_556 S
C415 H403 0.929 1_554 S
C415 C409 1.390 . S
C415 C412 1.386 . S
C416 C411 1.490 . S
C416 C418 1.395 . S
C416 C419 1.403 1_554 S
H417 C423 0.930 . S
C418 H404 0.930 . S
C418 C416 1.395 . S
C418 C421 1.403 1_655 S
C419 C416 1.403 1_556 S
C419 C420 1.524 . S
C419 C423 1.400 1_655 S
C420 H405 0.960 . S
C420 H406 0.960 . S
C420 H407 0.960 . S
C420 C419 1.524 . S
C421 C418 1.403 1_455 S
C421 C422 1.392 . S
C421 C425 1.495 . S
C422 C421 1.392 . S
C422 C423 1.385 1_554 S
C422 C424 1.478 . S
C423 H417 0.930 . S
C423 C419 1.400 1_455 S
C423 C422 1.385 1_556 S
C424 C422 1.478 . S
C424 C426 1.381 . S
C424 C430 1.383 . S
C425 C421 1.495 . S
C425 H431 0.959 . S
C425 H432 0.961 . S
C425 H433 0.960 . S
C426 C424 1.381 . S
C426 C427 1.394 . S
C426 H434 0.930 . S
C427 C426 1.394 . S
C427 C428 1.383 . S
C427 H435 0.929 . S
C428 C427 1.383 . S
C428 C429 1.377 . S
C429 H413 0.930 1_554 S
C429 C428 1.377 . S
C429 C430 1.379 . S
C430 H414 0.931 1_554 S
C430 C424 1.383 . S
C430 C429 1.379 . S
H431 C425 0.959 . S
H432 C425 0.961 . S
H433 C425 0.960 . S
H434 C426 0.930 . S
H435 C427 0.929 . S
H436 C444 0.929 . S
H437 C446 0.930 . S
H438 C448 0.930 . S
H439 C451 0.929 . S
H440 C454 0.930 . S
H441 C456 0.960 . S
H442 C456 0.960 . S
H443 C456 0.960 . S
C444 H436 0.929 . S
C444 C445 1.377 . S
C444 C446 1.384 . S
C445 C444 1.377 . S
C445 C451 1.390 . S
C446 H437 0.930 . S
C446 C444 1.384 . S
C446 C447 1.372 . S
C447 C446 1.372 . S
C447 C448 1.400 . S
C447 C452 1.490 . S
C448 H438 0.930 . S
C448 C447 1.400 . S
C448 C451 1.386 . S
H449 C465 0.930 . S
H450 C466 0.931 . S
C451 H439 0.929 . S
C451 C445 1.390 . S
C451 C448 1.386 . S
C452 C447 1.490 . S
C452 C454 1.395 . S
C452 C455 1.403 . S
H453 C459 0.930 . S
C454 H440 0.930 . S
C454 C452 1.395 . S
C454 C457 1.403 1_565 S
C455 C452 1.403 . S
C455 C456 1.524 . S
C455 C459 1.400 1_565 S
C456 H441 0.960 . S
C456 H442 0.960 . S
C456 H443 0.960 . S
C456 C455 1.524 . S
C457 C454 1.403 1_545 S
C457 C458 1.392 . S
C457 C461 1.495 . S
C458 C457 1.392 . S
C458 C459 1.385 . S
C458 C460 1.478 . S
C459 H453 0.930 . S
C459 C455 1.400 1_545 S
C459 C458 1.385 . S
C460 C458 1.478 . S
C460 C462 1.381 . S
C460 C466 1.383 . S
C461 C457 1.495 . S
C461 H467 0.959 . S
C461 H468 0.961 . S
C461 H469 0.960 . S
C462 C460 1.381 . S
C462 C463 1.394 . S
C462 H470 0.930 . S
C463 C462 1.394 . S
C463 C464 1.383 . S
C463 H471 0.929 . S
C464 C463 1.383 . S
C464 C465 1.377 . S
C465 H449 0.930 . S
C465 C464 1.377 . S
C465 C466 1.379 . S
C466 H450 0.931 . S
C466 C460 1.383 . S
C466 C465 1.379 . S
H467 C461 0.959 . S
H468 C461 0.961 . S
H469 C461 0.960 . S
H470 C462 0.930 . S
H471 C463 0.929 . S
H472 C480 0.929 . S
H473 C482 0.930 . S
H474 C484 0.930 . S
H475 C487 0.929 . S
H476 C490 0.930 . S
H477 C492 0.960 . S
H478 C492 0.960 . S
H479 C492 0.960 . S
C480 H472 0.929 . S
C480 C481 1.377 . S
C480 C482 1.384 . S
C481 C480 1.377 . S
C481 C487 1.390 . S
C482 H473 0.930 . S
C482 C480 1.384 . S
C482 C483 1.372 . S
C483 C482 1.372 . S
C483 C484 1.400 . S
C483 C488 1.490 . S
C484 H474 0.930 . S
C484 C483 1.400 . S
C484 C487 1.386 . S
H485 C501 0.930 . S
H486 C502 0.931 . S
C487 H475 0.929 . S
C487 C481 1.390 . S
C487 C484 1.386 . S
C488 C483 1.490 . S
C488 C490 1.395 . S
C488 C491 1.403 . S
H489 C495 0.930 . S
C490 H476 0.930 . S
C490 C488 1.395 . S
C490 C493 1.403 1_455 S
C491 C488 1.403 . S
C491 C492 1.524 . S
C491 C495 1.400 1_455 S
C492 H477 0.960 . S
C492 H478 0.960 . S
C492 H479 0.960 . S
C492 C491 1.524 . S
C493 C490 1.403 1_655 S
C493 C494 1.392 . S
C493 C497 1.495 . S
C494 C493 1.392 . S
C494 C495 1.385 . S
C494 C496 1.478 . S
C495 H489 0.930 . S
C495 C491 1.400 1_655 S
C495 C494 1.385 . S
C496 C494 1.478 . S
C496 C498 1.381 . S
C496 C502 1.383 . S
C497 C493 1.495 . S
C497 H503 0.959 . S
C497 H504 0.961 . S
C497 H505 0.960 . S
C498 C496 1.381 . S
C498 C499 1.394 . S
C498 H506 0.930 . S
C499 C498 1.394 . S
C499 C500 1.383 . S
C499 H507 0.929 . S
C500 C499 1.383 . S
C500 C501 1.377 . S
C501 H485 0.930 . S
C501 C500 1.377 . S
C501 C502 1.379 . S
C502 H486 0.931 . S
C502 C496 1.383 . S
C502 C501 1.379 . S
H503 C497 0.959 . S
H504 C497 0.961 . S
H505 C497 0.960 . S
H506 C498 0.930 . S
H507 C499 0.929 . S
H508 C516 0.929 . S
H509 C518 0.930 . S
H510 C520 0.930 1_556 S
H511 C523 0.929 1_556 S
H512 C526 0.930 . S
H513 C528 0.960 . S
H514 C528 0.960 . S
H515 C528 0.960 . S
C516 H508 0.929 . S
C516 C517 1.377 . S
C516 C518 1.384 . S
C517 C516 1.377 . S
C517 C523 1.390 . S
C518 H509 0.930 . S
C518 C516 1.384 . S
C518 C519 1.372 . S
C519 C518 1.372 . S
C519 C520 1.400 . S
C519 C524 1.490 . S
C520 H510 0.930 1_554 S
C520 C519 1.400 . S
C520 C523 1.386 . S
H521 C537 0.930 . S
H522 C538 0.931 . S
C523 H511 0.929 1_554 S
C523 C517 1.390 . S
C523 C520 1.386 . S
C524 C519 1.490 . S
C524 C526 1.395 . S
C524 C527 1.403 1_554 S
H525 C531 0.930 . S
C526 H512 0.930 . S
C526 C524 1.395 . S
C526 C529 1.403 1_565 S
C527 C524 1.403 1_556 S
C527 C528 1.524 . S
C527 C531 1.400 1_565 S
C528 H513 0.960 . S
C528 H514 0.960 . S
C528 H515 0.960 . S
C528 C527 1.524 . S
C529 C526 1.403 1_545 S
C529 C530 1.392 . S
C529 C533 1.495 . S
C530 C529 1.392 . S
C530 C531 1.385 1_554 S
C530 C532 1.478 . S
C531 H525 0.930 . S
C531 C527 1.400 1_545 S
C531 C530 1.385 1_556 S
C532 C530 1.478 . S
C532 C534 1.381 . S
C532 C538 1.383 . S
C533 C529 1.495 . S
C533 H539 0.959 . S
C533 H540 0.961 . S
C533 H541 0.960 . S
C534 C532 1.381 . S
C534 C535 1.394 . S
C534 H542 0.930 . S
C535 C534 1.394 . S
C535 C536 1.383 . S
C535 H543 0.929 . S
C536 C535 1.383 . S
C536 C537 1.377 . S
C537 H521 0.930 . S
C537 C536 1.377 . S
C537 C538 1.379 . S
C538 H522 0.931 . S
C538 C532 1.383 . S
C538 C537 1.379 . S
H539 C533 0.959 . S
H540 C533 0.961 . S
H541 C533 0.960 . S
H542 C534 0.930 . S
H543 C535 0.929 . S
H544 C552 0.929 . S
H545 C554 0.930 . S
H546 C556 0.930 . S
H547 C559 0.929 . S
H548 C562 0.930 . S
H549 C564 0.960 . S
H550 C564 0.960 . S
H551 C564 0.960 . S
C552 H544 0.929 . S
C552 C553 1.377 . S
C552 C554 1.384 . S
C553 C552 1.377 . S
C553 C559 1.390 1_554 S
C554 H545 0.930 . S
C554 C552 1.384 . S
C554 C555 1.372 . S
C555 C554 1.372 . S
C555 C556 1.400 1_554 S
C555 C560 1.490 . S
C556 H546 0.930 . S
C556 C555 1.400 1_556 S
C556 C559 1.386 . S
H557 C573 0.930 . S
H558 C574 0.931 . S
C559 H547 0.929 . S
C559 C553 1.390 1_556 S
C559 C556 1.386 . S
C560 C555 1.490 . S
C560 C562 1.395 . S
C560 C563 1.403 1_554 S
H561 C567 0.930 . S
C562 H548 0.930 . S
C562 C560 1.395 . S
C562 C565 1.403 . S
C563 C560 1.403 1_556 S
C563 C564 1.524 . S
C563 C567 1.400 . S
C564 H549 0.960 . S
C564 H550 0.960 . S
C564 H551 0.960 . S
C564 C563 1.524 . S
C565 C562 1.403 . S
C565 C566 1.392 . S
C565 C569 1.495 . S
C566 C565 1.392 . S
C566 C567 1.385 1_554 S
C566 C568 1.478 . S
C567 H561 0.930 . S
C567 C563 1.400 . S
C567 C566 1.385 1_556 S
C568 C566 1.478 . S
C568 C570 1.381 . S
C568 C574 1.383 1_554 S
C569 C565 1.495 . S
C569 H575 0.959 . S
C569 H576 0.961 . S
C569 H577 0.960 . S
C570 C568 1.381 . S
C570 C571 1.394 . S
C570 H578 0.930 . S
C571 C570 1.394 . S
C571 C572 1.383 . S
C571 H579 0.929 . S
C572 C571 1.383 . S
C572 C573 1.377 1_554 S
C573 H557 0.930 . S
C573 C572 1.377 1_556 S
C573 C574 1.379 . S
C574 H558 0.931 . S
C574 C568 1.383 1_556 S
C574 C573 1.379 . S
H575 C569 0.959 . S
H576 C569 0.961 . S
H577 C569 0.960 . S
H578 C570 0.930 . S
H579 C571 0.929 . S
H580 C588 0.929 . S
H581 C590 0.930 . S
H582 C592 0.930 . S
H583 C595 0.929 . S
H584 C598 0.930 . S
H585 C600 0.960 . S
H586 C600 0.960 . S
H587 C600 0.960 . S
C588 H580 0.929 . S
C588 C589 1.377 . S
C588 C590 1.384 . S
C589 C588 1.377 . S
C589 C595 1.390 . S
C590 H581 0.930 . S
C590 C588 1.384 . S
C590 C591 1.372 . S
C591 C590 1.372 . S
C591 C592 1.400 . S
C591 C596 1.490 . S
C592 H582 0.930 . S
C592 C591 1.400 . S
C592 C595 1.386 . S
H593 C609 0.930 . S
H594 C610 0.931 . S
C595 H583 0.929 . S
C595 C589 1.390 . S
C595 C592 1.386 . S
C596 C591 1.490 . S
C596 C598 1.395 . S
C596 C599 1.403 . S
H597 C603 0.930 . S
C598 H584 0.930 . S
C598 C596 1.395 . S
C598 C601 1.403 . S
C599 C596 1.403 . S
C599 C600 1.524 . S
C599 C603 1.400 . S
C600 H585 0.960 . S
C600 H586 0.960 . S
C600 H587 0.960 . S
C600 C599 1.524 . S
C601 C598 1.403 . S
C601 C602 1.392 . S
C601 C605 1.495 . S
C602 C601 1.392 . S
C602 C603 1.385 . S
C602 C604 1.478 . S
C603 H597 0.930 . S
C603 C599 1.400 . S
C603 C602 1.385 . S
C604 C602 1.478 . S
C604 C606 1.381 . S
C604 C610 1.383 . S
C605 C601 1.495 . S
C605 H611 0.959 . S
C605 H612 0.961 . S
C605 H613 0.960 . S
C606 C604 1.381 . S
C606 C607 1.394 . S
C606 H614 0.930 . S
C607 C606 1.394 . S
C607 C608 1.383 . S
C607 H615 0.929 . S
C608 C607 1.383 . S
C608 C609 1.377 . S
C609 H593 0.930 . S
C609 C608 1.377 . S
C609 C610 1.379 . S
C610 H594 0.931 . S
C610 C604 1.383 . S
C610 C609 1.379 . S
H611 C605 0.959 . S
H612 C605 0.961 . S
H613 C605 0.960 . S
H614 C606 0.930 . S
H615 C607 0.929 . S
H616 C624 0.929 . S
H617 C626 0.930 . S
H618 C628 0.930 1_556 S
H619 C631 0.929 1_556 S
H620 C634 0.930 . S
H621 C636 0.960 . S
H622 C636 0.960 . S
H623 C636 0.960 . S
C624 H616 0.929 . S
C624 C625 1.377 . S
C624 C626 1.384 . S
C625 C624 1.377 . S
C625 C631 1.390 . S
C626 H617 0.930 . S
C626 C624 1.384 . S
C626 C627 1.372 . S
C627 C626 1.372 . S
C627 C628 1.400 . S
C627 C632 1.490 . S
C628 H618 0.930 1_554 S
C628 C627 1.400 . S
C628 C631 1.386 . S
H629 C645 0.930 . S
H630 C646 0.931 . S
C631 H619 0.929 1_554 S
C631 C625 1.390 . S
C631 C628 1.386 . S
C632 C627 1.490 . S
C632 C634 1.395 . S
C632 C635 1.403 . S
H633 C639 0.930 1_556 S
C634 H620 0.930 . S
C634 C632 1.395 . S
C634 C637 1.403 . S
C635 C632 1.403 . S
C635 C636 1.524 1_554 S
C635 C639 1.400 . S
C636 H621 0.960 . S
C636 H622 0.960 . S
C636 H623 0.960 . S
C636 C635 1.524 1_556 S
C637 C634 1.403 . S
C637 C638 1.392 . S
C637 C641 1.495 . S
C638 C637 1.392 . S
C638 C639 1.385 . S
C638 C640 1.478 . S
C639 H633 0.930 1_554 S
C639 C635 1.400 . S
C639 C638 1.385 . S
C640 C638 1.478 . S
C640 C642 1.381 . S
C640 C646 1.383 . S
C641 C637 1.495 . S
C641 H647 0.959 . S
C641 H648 0.961 . S
C641 H649 0.960 . S
C642 C640 1.381 . S
C642 C643 1.394 . S
C642 H650 0.930 . S
C643 C642 1.394 . S
C643 C644 1.383 . S
C643 H651 0.929 . S
C644 C643 1.383 . S
C644 C645 1.377 . S
C645 H629 0.930 . S
C645 C644 1.377 . S
C645 C646 1.379 . S
C646 H630 0.931 . S
C646 C640 1.383 . S
C646 C645 1.379 . S
H647 C641 0.959 . S
H648 C641 0.961 . S
H649 C641 0.960 . S
H650 C642 0.930 . S
H651 C643 0.929 . S
H652 C660 0.929 . S
H653 C662 0.930 . S
H654 C664 0.930 . S
H655 C667 0.929 . S
H656 C670 0.930 . S
H657 C672 0.960 . S
H658 C672 0.960 . S
H659 C672 0.960 . S
C660 H652 0.929 . S
C660 C661 1.377 . S
C660 C662 1.384 . S
C661 C660 1.377 . S
C661 C667 1.390 . S
C662 H653 0.930 . S
C662 C660 1.384 . S
C662 C663 1.372 . S
C663 C662 1.372 . S
C663 C664 1.400 . S
C663 C668 1.490 . S
C664 H654 0.930 . S
C664 C663 1.400 . S
C664 C667 1.386 . S
H665 C681 0.930 . S
H666 C682 0.931 . S
C667 H655 0.929 . S
C667 C661 1.390 . S
C667 C664 1.386 . S
C668 C663 1.490 . S
C668 C670 1.395 . S
C668 C671 1.403 . S
H669 C675 0.930 . S
C670 H656 0.930 . S
C670 C668 1.395 . S
C670 C673 1.403 . S
C671 C668 1.403 . S
C671 C672 1.524 . S
C671 C675 1.400 . S
C672 H657 0.960 . S
C672 H658 0.960 . S
C672 H659 0.960 . S
C672 C671 1.524 . S
C673 C670 1.403 . S
C673 C674 1.392 . S
C673 C677 1.495 . S
C674 C673 1.392 . S
C674 C675 1.385 . S
C674 C676 1.478 . S
C675 H669 0.930 . S
C675 C671 1.400 . S
C675 C674 1.385 . S
C676 C674 1.478 . S
C676 C678 1.381 . S
C676 C682 1.383 . S
C677 C673 1.495 . S
C677 H683 0.959 . S
C677 H684 0.961 . S
C677 H685 0.960 . S
C678 C676 1.381 . S
C678 C679 1.394 . S
C678 H686 0.930 . S
C679 C678 1.394 . S
C679 C680 1.383 . S
C679 H687 0.929 . S
C680 C679 1.383 . S
C680 C681 1.377 . S
C681 H665 0.930 . S
C681 C680 1.377 . S
C681 C682 1.379 . S
C682 H666 0.931 . S
C682 C676 1.383 . S
C682 C681 1.379 . S
H683 C677 0.959 . S
H684 C677 0.961 . S
H685 C677 0.960 . S
H686 C678 0.930 . S
H687 C679 0.929 . S
C121 C12 1.549 . S
C140 C56 1.533 . S
C157 C15 1.564 . S
C176 C83 1.564 . S
C193 C85 1.562 . S
C212 C40 1.544 . S
C229 C110 1.550 . S
C248 C43 1.544 . S
C265 C84 1.544 . S
C284 C41 1.541 . S
C301 C111 1.555 . S
C320 C42 1.563 . S
C337 C13 1.558 . S
C356 C57 1.565 . S
C373 C14 1.542 . S
C392 C82 1.540 . S
C409 C28 2.017 . S
C428 C1 2.016 . S
C445 C55 2.018 . S
C464 C26 2.002 . S
C481 C68 2.023 . S
C500 C96 2.013 . S
C517 C99 2.023 . S
C536 C71 2.018 . S
C553 C0 1.979 . S
C572 C70 1.962 . S
C589 C97 1.972 . S
C608 C27 1.981 . S
C625 C29 1.981 . S
C644 C98 1.974 . S
C661 C54 1.974 . S
C680 C69 1.954 . S
