# Generated by pormake.
# Topology acs-i, (5)-cn, num edge types: 1
# Building blocks:
#     Node 0, Type 0, BuildingBlock: XOMCOT_clean_sbu_1, # of connection points: 5
#     Node 1, Type 0, BuildingBlock: XOMCOT_clean_sbu_1, # of connection points: 5
#     Node 2, Type 0, BuildingBlock: XOMCOT_clean_sbu_1, # of connection points: 5
#     Node 3, Type 0, BuildingBlock: XOMCOT_clean_sbu_1, # of connection points: 5
#     Node 4, Type 0, BuildingBlock: XOMCOT_clean_sbu_1, # of connection points: 5
#     Node 5, Type 0, BuildingBlock: XOMCOT_clean_sbu_1, # of connection points: 5
#     Node 6, Type 0, BuildingBlock: XOMCOT_clean_sbu_1, # of connection points: 5
#     Node 7, Type 0, BuildingBlock: XOMCOT_clean_sbu_1, # of connection points: 5
#     Node 8, Type 0, BuildingBlock: XOMCOT_clean_sbu_1, # of connection points: 5
#     Node 9, Type 0, BuildingBlock: XOMCOT_clean_sbu_1, # of connection points: 5
#     Node 10, Type 0, BuildingBlock: XOMCOT_clean_sbu_1, # of connection points: 5
#     Node 11, Type 0, BuildingBlock: XOMCOT_clean_sbu_1, # of connection points: 5
#     Edge 12, Type (0, 0), BuildingBlock: MIFKUJ_clean_linker_0, # of connection points: 2
#     Edge 13, Type (0, 0), BuildingBlock: MIFKUJ_clean_linker_0, # of connection points: 2
#     Edge 14, Type (0, 0), BuildingBlock: MIFKUJ_clean_linker_0, # of connection points: 2
#     Edge 15, Type (0, 0), BuildingBlock: MIFKUJ_clean_linker_0, # of connection points: 2
#     Edge 16, Type (0, 0), BuildingBlock: MIFKUJ_clean_linker_0, # of connection points: 2
#     Edge 17, Type (0, 0), BuildingBlock: MIFKUJ_clean_linker_0, # of connection points: 2
#     Edge 18, Type (0, 0), BuildingBlock: MIFKUJ_clean_linker_0, # of connection points: 2
#     Edge 19, Type (0, 0), BuildingBlock: MIFKUJ_clean_linker_0, # of connection points: 2
#     Edge 20, Type (0, 0), BuildingBlock: MIFKUJ_clean_linker_0, # of connection points: 2
#     Edge 21, Type (0, 0), BuildingBlock: MIFKUJ_clean_linker_0, # of connection points: 2
#     Edge 22, Type (0, 0), BuildingBlock: MIFKUJ_clean_linker_0, # of connection points: 2
#     Edge 23, Type (0, 0), BuildingBlock: MIFKUJ_clean_linker_0, # of connection points: 2
#     Edge 24, Type (0, 0), BuildingBlock: MIFKUJ_clean_linker_0, # of connection points: 2
#     Edge 25, Type (0, 0), BuildingBlock: MIFKUJ_clean_linker_0, # of connection points: 2
#     Edge 26, Type (0, 0), BuildingBlock: MIFKUJ_clean_linker_0, # of connection points: 2
#     Edge 27, Type (0, 0), BuildingBlock: MIFKUJ_clean_linker_0, # of connection points: 2
#     Edge 28, Type (0, 0), BuildingBlock: MIFKUJ_clean_linker_0, # of connection points: 2
#     Edge 29, Type (0, 0), BuildingBlock: MIFKUJ_clean_linker_0, # of connection points: 2
#     Edge 30, Type (0, 0), BuildingBlock: MIFKUJ_clean_linker_0, # of connection points: 2
#     Edge 31, Type (0, 0), BuildingBlock: MIFKUJ_clean_linker_0, # of connection points: 2
#     Edge 32, Type (0, 0), BuildingBlock: MIFKUJ_clean_linker_0, # of connection points: 2
#     Edge 33, Type (0, 0), BuildingBlock: MIFKUJ_clean_linker_0, # of connection points: 2
#     Edge 34, Type (0, 0), BuildingBlock: MIFKUJ_clean_linker_0, # of connection points: 2
#     Edge 35, Type (0, 0), BuildingBlock: MIFKUJ_clean_linker_0, # of connection points: 2
#     Edge 36, Type (0, 0), BuildingBlock: MIFKUJ_clean_linker_0, # of connection points: 2
#     Edge 37, Type (0, 0), BuildingBlock: MIFKUJ_clean_linker_0, # of connection points: 2
#     Edge 38, Type (0, 0), BuildingBlock: MIFKUJ_clean_linker_0, # of connection points: 2
#     Edge 39, Type (0, 0), BuildingBlock: MIFKUJ_clean_linker_0, # of connection points: 2
#     Edge 40, Type (0, 0), BuildingBlock: MIFKUJ_clean_linker_0, # of connection points: 2
#     Edge 41, Type (0, 0), BuildingBlock: MIFKUJ_clean_linker_0, # of connection points: 2
# Relax obj value: 0.851
# Max RMSD: 0.195
# Mean RMSD: 0.195
data_MOF--net-acs-i--node1-XOMCOT_clean_sbu_1--edge1-MIFKUJ_clean_linker_0
_symmetry_space_group_name_H-M    P1
_symmetry_Int_Tables_number       1
_symmetry_cell_setting            triclinic
loop_
_symmetry_equiv_pos_as_xyz
'x, y, z'
_cell_length_a     55.724333
_cell_length_b     55.703011
_cell_length_c     58.795306
_cell_angle_alpha  89.965175
_cell_angle_beta   89.98928
_cell_angle_gamma 119.98982
loop_
_atom_site_label
_atom_site_type_symbol
_atom_site_fract_x
_atom_site_fract_y
_atom_site_fract_z
_atom_type_partial_charge
C0 C 0.32509 0.47217 0.11459 0.0
C1 C 0.34003 0.4996 0.1081 0.0
N2 N 0.34954 0.5152 0.12703 0.0
N3 N 0.3258 0.47065 0.13745 0.0
C4 C 0.34049 0.49717 0.14452 0.0
H5 H 0.31473 0.45445 0.10343 0.0
Co6 Co 0.30947 0.43925 0.1557 0.0
C7 C 0.35971 0.459 0.18716 0.0
O8 O 0.36778 0.44146 0.1811 0.0
N9 N 0.2921 0.40772 0.17403 0.0
C10 C 0.28017 0.37117 0.19631 0.0
C11 C 0.30186 0.39336 0.18548 0.0
C12 C 0.26456 0.39356 0.17774 0.0
N13 N 0.2567 0.37137 0.19131 0.0
O14 O 0.28962 0.45435 0.17044 0.0
H15 H 0.32318 0.39829 0.18581 0.0
H16 H 0.2505 0.39988 0.17113 0.0
O17 O 0.33848 0.45807 0.17807 0.0
C18 C 0.26954 0.45357 0.15955 0.0
O19 O 0.26116 0.43904 0.14068 0.0
N20 N 0.32868 0.42482 0.13993 0.0
C21 C 0.35048 0.40716 0.10545 0.0
C22 C 0.36711 0.43252 0.11647 0.0
C23 C 0.35577 0.44101 0.13365 0.0
C24 C 0.31271 0.39942 0.13029 0.0
C25 C 0.3234 0.38992 0.1134 0.0
H26 H 0.36807 0.46171 0.14041 0.0
H27 H 0.29097 0.38719 0.13452 0.0
H28 H 0.34492 0.50318 0.1622 0.0
H29 H 0.34359 0.50746 0.09085 0.0
H30 H 0.28163 0.35622 0.20713 0.0
H31 H 0.38793 0.44678 0.11065 0.0
H32 H 0.30992 0.37 0.1056 0.0
C33 C 0.80407 0.28808 0.62374 0.0
C34 C 0.79194 0.30433 0.62115 0.0
N35 N 0.81025 0.3302 0.62805 0.0
N36 N 0.82963 0.30358 0.63266 0.0
C37 C 0.83288 0.32919 0.63443 0.0
H38 H 0.79431 0.26615 0.62031 0.0
Co39 Co 0.85404 0.29296 0.64477 0.0
C40 C 0.86969 0.3236 0.68873 0.0
O41 O 0.87159 0.30426 0.69999 0.0
N42 N 0.87899 0.28298 0.65699 0.0
C43 C 0.91714 0.28552 0.67147 0.0
C44 C 0.9065 0.29981 0.66026 0.0
C45 C 0.87359 0.25853 0.66606 0.0
N46 N 0.89634 0.25952 0.6751 0.0
O47 O 0.82475 0.26762 0.6643 0.0
H48 H 0.91798 0.32155 0.6559 0.0
H49 H 0.85307 0.24076 0.66753 0.0
O50 O 0.86418 0.32096 0.66757 0.0
C51 C 0.80808 0.24363 0.65645 0.0
O52 O 0.81543 0.23535 0.63814 0.0
N53 N 0.88103 0.31692 0.62451 0.0
C54 C 0.90978 0.34784 0.58683 0.0
C55 C 0.91099 0.36105 0.6074 0.0
C56 C 0.89667 0.3451 0.62629 0.0
C57 C 0.88084 0.30374 0.60499 0.0
C58 C 0.89531 0.31884 0.58591 0.0
H59 H 0.89713 0.35559 0.64185 0.0
H60 H 0.8681 0.28143 0.60394 0.0
H61 H 0.85092 0.34664 0.64172 0.0
H62 H 0.77111 0.29751 0.61529 0.0
H63 H 0.93824 0.29396 0.67736 0.0
H64 H 0.9222 0.38345 0.60864 0.0
H65 H 0.89386 0.30802 0.5702 0.0
C66 C 0.51901 0.85008 0.10481 0.0
C67 C 0.49172 0.84255 0.10112 0.0
N68 N 0.47821 0.83441 0.12113 0.0
N69 N 0.52265 0.84713 0.1271 0.0
C70 C 0.49731 0.83705 0.1365 0.0
H71 H 0.53543 0.85834 0.09228 0.0
Co72 Co 0.55628 0.85841 0.14151 0.0
C73 C 0.54677 0.88266 0.18453 0.0
O74 O 0.56954 0.90681 0.18319 0.0
N75 N 0.59081 0.86971 0.15578 0.0
C76 C 0.63306 0.8943 0.17088 0.0
C77 C 0.61055 0.89531 0.16259 0.0
C78 C 0.60232 0.85373 0.15974 0.0
N79 N 0.62785 0.86813 0.16888 0.0
O80 O 0.54252 0.82106 0.15111 0.0
H81 H 0.60938 0.914 0.16101 0.0
H82 H 0.59216 0.83176 0.15639 0.0
O83 O 0.5412 0.86427 0.16937 0.0
C84 C 0.5426 0.80421 0.13657 0.0
O85 O 0.55442 0.81387 0.11674 0.0
N86 N 0.56888 0.89435 0.13078 0.0
C87 C 0.58572 0.94355 0.10732 0.0
C88 C 0.56309 0.93326 0.12221 0.0
C89 C 0.5549 0.90846 0.1338 0.0
C90 C 0.59053 0.90383 0.11597 0.0
C91 C 0.59972 0.92875 0.10446 0.0
H92 H 0.53646 0.89988 0.14419 0.0
H93 H 0.60033 0.89161 0.11272 0.0
H94 H 0.49312 0.83294 0.15447 0.0
H95 H 0.48264 0.84348 0.08511 0.0
H96 H 0.65187 0.91148 0.17769 0.0
H97 H 0.55138 0.94385 0.12431 0.0
H98 H 0.6167 0.93562 0.0925 0.0
C99 C 0.68148 0.50905 0.59687 0.0
C100 C 0.66251 0.48114 0.59549 0.0
N101 N 0.65226 0.472 0.61649 0.0
N102 N 0.68287 0.51741 0.61856 0.0
C103 C 0.66519 0.49431 0.63014 0.0
H104 H 0.69281 0.52261 0.58286 0.0
Co105 Co 0.70287 0.55367 0.62882 0.0
C106 C 0.66765 0.55191 0.66882 0.0
O107 O 0.66783 0.57503 0.66417 0.0
N108 N 0.72379 0.59091 0.63895 0.0
C109 C 0.73873 0.63506 0.64841 0.0
C110 C 0.71725 0.61132 0.63913 0.0
C111 C 0.74969 0.60324 0.64764 0.0
N112 N 0.75916 0.62985 0.65344 0.0
O113 O 0.72641 0.5437 0.64438 0.0
H114 H 0.6979 0.6092 0.63327 0.0
H115 H 0.76135 0.59289 0.65069 0.0
O116 O 0.68035 0.54348 0.65598 0.0
C117 C 0.7467 0.5442 0.63407 0.0
O118 O 0.7538 0.55567 0.61384 0.0
N119 N 0.67909 0.56162 0.61242 0.0
C120 C 0.64499 0.56657 0.58049 0.0
C121 C 0.63367 0.55022 0.59997 0.0
C122 C 0.65105 0.54766 0.61557 0.0
C123 C 0.69052 0.57782 0.59371 0.0
C124 C 0.67386 0.58083 0.57761 0.0
H125 H 0.64168 0.53306 0.62933 0.0
H126 H 0.71261 0.58752 0.59086 0.0
H127 H 0.66079 0.49397 0.64806 0.0
H128 H 0.65636 0.46869 0.58018 0.0
H129 H 0.73917 0.65443 0.65152 0.0
H130 H 0.6115 0.53876 0.60279 0.0
H131 H 0.68341 0.59312 0.56253 0.0
C132 C 0.17261 0.67208 0.1014 0.0
C133 C 0.18885 0.65992 0.09965 0.0
N134 N 0.1982 0.65873 0.1206 0.0
N135 N 0.17143 0.67813 0.12339 0.0
C136 C 0.18818 0.67107 0.13433 0.0
H137 H 0.16033 0.67381 0.08795 0.0
Co138 Co 0.14627 0.68554 0.13802 0.0
C139 C 0.14756 0.66632 0.18414 0.0
O140 O 0.15125 0.6899 0.19225 0.0
N141 N 0.12078 0.6927 0.15286 0.0
C142 C 0.08328 0.68669 0.17118 0.0
C143 C 0.09479 0.67377 0.15926 0.0
C144 C 0.12453 0.71696 0.16106 0.0
N145 N 0.10211 0.71391 0.17253 0.0
O146 O 0.1768 0.71592 0.15275 0.0
H147 H 0.0851 0.65172 0.15627 0.0
H148 H 0.14401 0.73618 0.15992 0.0
O149 O 0.14375 0.66139 0.16288 0.0
C150 C 0.1917 0.73782 0.1413 0.0
O151 O 0.18227 0.74099 0.1217 0.0
N152 N 0.11759 0.65625 0.12234 0.0
C153 C 0.08296 0.61776 0.09047 0.0
C154 C 0.09515 0.60997 0.10763 0.0
C155 C 0.11244 0.62958 0.12353 0.0
C156 C 0.10508 0.66391 0.10633 0.0
C157 C 0.08739 0.64486 0.09033 0.0
H158 H 0.12315 0.62377 0.1357 0.0
H159 H 0.11005 0.6853 0.10529 0.0
H160 H 0.19109 0.67315 0.15248 0.0
H161 H 0.1915 0.65071 0.08437 0.0
H162 H 0.06299 0.67649 0.179 0.0
H163 H 0.09226 0.58924 0.10816 0.0
H164 H 0.07873 0.65179 0.0771 0.0
C165 C 0.50041 0.18158 0.59816 0.0
C166 C 0.52842 0.19097 0.5989 0.0
N167 N 0.53377 0.1807 0.61778 0.0
N168 N 0.48821 0.16551 0.61647 0.0
C169 C 0.50905 0.16541 0.6281 0.0
H170 H 0.48947 0.18564 0.58488 0.0
Co171 Co 0.45044 0.14631 0.62193 0.0
C172 C 0.44481 0.11471 0.66482 0.0
O173 O 0.42215 0.09243 0.65803 0.0
N174 N 0.41199 0.12732 0.62704 0.0
C175 C 0.36594 0.10282 0.62405 0.0
C176 C 0.39067 0.11179 0.61282 0.0
C177 C 0.39957 0.12804 0.64652 0.0
N178 N 0.37172 0.11287 0.64533 0.0
O179 O 0.45356 0.17865 0.63545 0.0
H180 H 0.39247 0.10738 0.59527 0.0
H181 H 0.41085 0.13983 0.66133 0.0
O182 O 0.45685 0.13576 0.65175 0.0
C183 C 0.45027 0.19569 0.62337 0.0
O184 O 0.44152 0.18886 0.60234 0.0
N185 N 0.44873 0.11558 0.60758 0.0
C186 C 0.4514 0.07716 0.57919 0.0
C187 C 0.46075 0.0802 0.60162 0.0
C188 C 0.45943 0.0998 0.61559 0.0
C189 C 0.44112 0.11381 0.58538 0.0
C190 C 0.44154 0.09421 0.57103 0.0
H191 H 0.46853 0.10315 0.63227 0.0
H192 H 0.43543 0.12834 0.57862 0.0
H193 H 0.50619 0.15406 0.64372 0.0
H194 H 0.54351 0.20376 0.58622 0.0
H195 H 0.34539 0.0899 0.61714 0.0
H196 H 0.46955 0.06806 0.60806 0.0
H197 H 0.43534 0.09318 0.55342 0.0
C198 C 0.5017 0.71917 0.39154 0.0
C199 C 0.47402 0.70412 0.39689 0.0
N200 N 0.46268 0.68037 0.38489 0.0
N201 N 0.5078 0.7049 0.37634 0.0
C202 C 0.48358 0.68127 0.37266 0.0
H203 H 0.51664 0.73873 0.39902 0.0
Co204 Co 0.5434 0.71459 0.36695 0.0
C205 C 0.51336 0.69898 0.32383 0.0
O206 O 0.50419 0.71617 0.3279 0.0
N207 N 0.57903 0.72459 0.35846 0.0
C208 C 0.6247 0.74319 0.36035 0.0
C209 C 0.60097 0.7359 0.37263 0.0
C210 C 0.58964 0.72476 0.33783 0.0
N211 N 0.61735 0.73582 0.33856 0.0
O212 O 0.54788 0.7479 0.35438 0.0
H213 H 0.59983 0.73966 0.39053 0.0
H214 H 0.57768 0.71866 0.32228 0.0
O215 O 0.52908 0.69634 0.33814 0.0
C216 C 0.55813 0.77071 0.36505 0.0
O217 O 0.56917 0.77267 0.3852 0.0
N218 N 0.53906 0.68214 0.37967 0.0
C219 C 0.53147 0.63489 0.40195 0.0
C220 C 0.5366 0.63794 0.3785 0.0
C221 C 0.54028 0.66183 0.36759 0.0
C222 C 0.53467 0.67972 0.40253 0.0
C223 C 0.53038 0.65605 0.41397 0.0
H224 H 0.5446 0.66418 0.34955 0.0
H225 H 0.53451 0.69632 0.41192 0.0
H226 H 0.4816 0.66442 0.36215 0.0
H227 H 0.46312 0.71003 0.40885 0.0
H228 H 0.64577 0.75412 0.36666 0.0
H229 H 0.53812 0.62222 0.36881 0.0
H230 H 0.52728 0.6548 0.43221 0.0
C231 C 0.84917 0.49947 0.89723 0.0
C232 C 0.83914 0.47126 0.89632 0.0
N233 N 0.83182 0.46297 0.87466 0.0
N234 N 0.84813 0.50865 0.87622 0.0
C235 C 0.83699 0.48586 0.86304 0.0
H236 H 0.85751 0.5126 0.91203 0.0
Co237 Co 0.86096 0.54494 0.86718 0.0
C238 C 0.88204 0.54204 0.81988 0.0
O239 O 0.90701 0.56358 0.82236 0.0
N240 N 0.8731 0.58178 0.85885 0.0
C241 C 0.88222 0.62552 0.86168 0.0
C242 C 0.87578 0.6017 0.87349 0.0
C243 C 0.87722 0.59383 0.83821 0.0
N244 N 0.8835 0.62047 0.83953 0.0
O245 O 0.82407 0.5351 0.85999 0.0
H246 H 0.87182 0.59872 0.89156 0.0
H247 H 0.87334 0.58299 0.82225 0.0
O248 O 0.86446 0.53484 0.83604 0.0
C249 C 0.80798 0.54039 0.8715 0.0
O250 O 0.81737 0.55649 0.88944 0.0
N251 N 0.89721 0.55346 0.87485 0.0
C252 C 0.94517 0.55852 0.89439 0.0
C253 C 0.93243 0.54056 0.87606 0.0
C254 C 0.90826 0.53804 0.86675 0.0
C255 C 0.90963 0.57129 0.89249 0.0
C256 C 0.93382 0.57447 0.90226 0.0
H257 H 0.89744 0.52211 0.85417 0.0
H258 H 0.89977 0.58156 0.90034 0.0
H259 H 0.83286 0.48589 0.84515 0.0
H260 H 0.83835 0.45814 0.91022 0.0
H261 H 0.88468 0.6446 0.86864 0.0
H262 H 0.94023 0.52749 0.86974 0.0
H263 H 0.9423 0.58775 0.917 0.0
C264 C 0.3329 0.86006 0.38919 0.0
C265 C 0.35291 0.8527 0.3922 0.0
N266 N 0.36062 0.84847 0.37153 0.0
N267 N 0.32825 0.86061 0.36676 0.0
C268 C 0.34518 0.85315 0.35652 0.0
H269 H 0.32328 0.86588 0.4024 0.0
Co270 Co 0.30676 0.87379 0.35376 0.0
C271 C 0.32877 0.8865 0.30539 0.0
O272 O 0.32643 0.90857 0.30235 0.0
N273 N 0.28452 0.88729 0.3412 0.0
C274 C 0.26878 0.9137 0.3263 0.0
C275 C 0.29155 0.91347 0.33508 0.0
C276 C 0.25714 0.87231 0.33655 0.0
N277 N 0.24717 0.88778 0.32748 0.0
O278 O 0.27883 0.83648 0.34825 0.0
H279 H 0.31213 0.93132 0.33611 0.0
H280 H 0.24467 0.85016 0.33878 0.0
O281 O 0.32156 0.87338 0.32418 0.0
C282 C 0.26282 0.8211 0.36394 0.0
O283 O 0.26336 0.83204 0.38386 0.0
N284 N 0.3352 0.90969 0.36013 0.0
C285 C 0.37907 0.95571 0.38057 0.0
C286 C 0.38352 0.94386 0.36121 0.0
C287 C 0.36135 0.92062 0.35137 0.0
C288 C 0.33023 0.92181 0.37821 0.0
C289 C 0.35187 0.94504 0.38861 0.0
H290 H 0.36593 0.91021 0.33809 0.0
H291 H 0.30968 0.91223 0.38553 0.0
H292 H 0.34758 0.85286 0.33835 0.0
H293 H 0.36161 0.85135 0.40829 0.0
H294 H 0.26827 0.93133 0.31909 0.0
H295 H 0.40423 0.9513 0.35466 0.0
H296 H 0.3476 0.95309 0.4039 0.0
C297 C 0.47613 0.3229 0.87876 0.0
C298 C 0.50328 0.34112 0.88432 0.0
N299 N 0.5175 0.35234 0.86495 0.0
N300 N 0.47319 0.32268 0.85602 0.0
C301 C 0.49877 0.34059 0.84805 0.0
H302 H 0.45938 0.31105 0.89054 0.0
Co303 Co 0.43975 0.30266 0.84072 0.0
C304 C 0.44961 0.34036 0.80036 0.0
O305 O 0.42675 0.34143 0.80256 0.0
N306 N 0.40533 0.28169 0.82569 0.0
C307 C 0.36317 0.26639 0.81127 0.0
C308 C 0.38575 0.28854 0.82095 0.0
C309 C 0.39365 0.25493 0.81912 0.0
N310 N 0.36806 0.24508 0.81013 0.0
O311 O 0.4531 0.27992 0.82837 0.0
H312 H 0.3871 0.30811 0.82488 0.0
H313 H 0.40354 0.24269 0.82132 0.0
O314 O 0.45533 0.3265 0.81442 0.0
C315 C 0.45365 0.26222 0.84171 0.0
O316 O 0.4417 0.25817 0.86173 0.0
N317 N 0.42774 0.32496 0.85426 0.0
C318 C 0.41481 0.3547 0.88487 0.0
C319 C 0.43606 0.36861 0.86892 0.0
C320 C 0.44225 0.35327 0.85366 0.0
C321 C 0.40677 0.31122 0.86944 0.0
C322 C 0.39955 0.32568 0.88458 0.0
H323 H 0.46007 0.36412 0.84269 0.0
H324 H 0.39655 0.28886 0.87055 0.0
H325 H 0.50357 0.34499 0.83022 0.0
H326 H 0.51163 0.34627 0.90137 0.0
H327 H 0.34473 0.26629 0.80542 0.0
H328 H 0.44864 0.391 0.86907 0.0
H329 H 0.38359 0.31422 0.89712 0.0
C330 C 0.12379 0.49164 0.40922 0.0
C331 C 0.13018 0.51889 0.40946 0.0
N332 N 0.14164 0.53049 0.38926 0.0
N333 N 0.13114 0.486 0.389 0.0
C334 C 0.14207 0.51003 0.37724 0.0
H335 H 0.11437 0.47676 0.42286 0.0
Co336 Co 0.12594 0.45162 0.38069 0.0
C337 C 0.1486 0.4659 0.33442 0.0
O338 O 0.16751 0.45919 0.33915 0.0
N339 N 0.12079 0.41716 0.37313 0.0
C340 C 0.1202 0.37721 0.37609 0.0
C341 C 0.12602 0.40125 0.38719 0.0
C342 C 0.11136 0.40234 0.3538 0.0
N343 N 0.1111 0.37799 0.355 0.0
O344 O 0.16475 0.46591 0.383 0.0
H345 H 0.13394 0.40701 0.4043 0.0
H346 H 0.10587 0.40978 0.3388 0.0
O347 O 0.13034 0.46251 0.34911 0.0
C348 C 0.17827 0.47199 0.40153 0.0
O349 O 0.16494 0.46719 0.42094 0.0
N350 N 0.08796 0.43797 0.37917 0.0
C351 C 0.0331 0.42334 0.38674 0.0
C352 C 0.04879 0.44314 0.37018 0.0
C353 C 0.0763 0.45008 0.3665 0.0
C354 C 0.07264 0.41782 0.39456 0.0
C355 C 0.04503 0.40986 0.39835 0.0
H356 H 0.08873 0.46666 0.35478 0.0
H357 H 0.08237 0.40916 0.40505 0.0
H358 H 0.14983 0.51234 0.36008 0.0
H359 H 0.12691 0.52932 0.42363 0.0
H360 H 0.12313 0.3608 0.38288 0.0
H361 H 0.0404 0.45428 0.36116 0.0
H362 H 0.03397 0.39508 0.41179 0.0
C363 C 0.69584 0.1862 0.8711 0.0
C364 C 0.68444 0.20301 0.87415 0.0
N365 N 0.67125 0.20259 0.85483 0.0
N366 N 0.68913 0.17481 0.85017 0.0
C367 C 0.67469 0.18565 0.84061 0.0
H368 H 0.70709 0.18151 0.88365 0.0
Co369 Co 0.69566 0.1482 0.83715 0.0
C370 C 0.63747 0.11007 0.8199 0.0
O371 O 0.63379 0.08803 0.83108 0.0
N372 N 0.70342 0.12219 0.82368 0.0
C373 C 0.70659 0.09134 0.80173 0.0
C374 C 0.68981 0.10161 0.80842 0.0
C375 C 0.72843 0.1241 0.82565 0.0
N376 N 0.73109 0.10571 0.81248 0.0
O377 O 0.7126 0.17282 0.81215 0.0
H378 H 0.66997 0.09559 0.80096 0.0
H379 H 0.74515 0.14012 0.83546 0.0
O380 O 0.66043 0.13281 0.82131 0.0
C381 C 0.73812 0.19092 0.81388 0.0
O382 O 0.75262 0.18811 0.8302 0.0
N383 N 0.67962 0.12527 0.86275 0.0
C384 C 0.66215 0.10016 0.90526 0.0
C385 C 0.64571 0.10783 0.89269 0.0
C386 C 0.65498 0.12068 0.87162 0.0
C387 C 0.69587 0.11798 0.87485 0.0
C388 C 0.68735 0.10502 0.89595 0.0
H389 H 0.64295 0.12827 0.86301 0.0
H390 H 0.71622 0.12341 0.86882 0.0
H391 H 0.66555 0.18013 0.82389 0.0
H392 H 0.68497 0.21387 0.88957 0.0
H393 H 0.70168 0.0758 0.78875 0.0
H394 H 0.62649 0.1052 0.89954 0.0
H395 H 0.70076 0.09951 0.90513 0.0
H396 H 0.36668 0.34999 0.90052 0.0
H397 H 0.3594 0.3644 0.93797 0.0
H398 H 0.44736 0.4053 0.95085 0.0
H399 H 0.45473 0.39133 0.91328 0.0
H400 H 0.37079 0.3446 0.97505 0.0
H401 H 0.46349 0.45345 0.99383 0.0
H402 H 0.49403 0.49723 0.97372 0.0
H403 H 0.42993 0.47893 0.9248 0.0
H404 H 0.3989 0.43525 0.94478 0.0
H405 H 0.40264 0.41724 0.09382 0.0
H406 H 0.4182 0.41158 0.05617 0.0
H407 H 0.33497 0.37764 0.03055 0.0
H408 H 0.31947 0.38396 0.06746 0.0
H409 H 0.41411 0.43542 0.0145 0.0
H410 H 0.32228 0.32543 0.99456 0.0
H411 H 0.29168 0.28187 0.01488 0.0
H412 H 0.35401 0.30265 0.06603 0.0
H413 H 0.38514 0.34612 0.04585 0.0
C414 C 0.38449 0.36286 0.91108 0.0
C415 C 0.41121 0.3695 0.90416 0.0
C416 C 0.38034 0.37097 0.93245 0.0
C417 C 0.40282 0.3857 0.94722 0.0
C418 C 0.42977 0.3942 0.93963 0.0
C419 C 0.43396 0.38628 0.91814 0.0
C420 C 0.39758 0.38875 0.9714 0.0
C421 C 0.37996 0.36453 0.98357 0.0
C422 C 0.41063 0.41459 0.98274 0.0
C423 C 0.429 0.44092 0.97067 0.0
C424 C 0.4559 0.45881 0.97882 0.0
C425 C 0.47329 0.48361 0.96744 0.0
C426 C 0.46396 0.49081 0.94795 0.0
C427 C 0.43718 0.47327 0.93984 0.0
C428 C 0.4197 0.44846 0.95116 0.0
C429 C 0.38766 0.40846 0.08018 0.0
C430 C 0.35974 0.40081 0.08376 0.0
C431 C 0.39658 0.40527 0.05874 0.0
C432 C 0.37765 0.39405 0.04074 0.0
C433 C 0.34978 0.38595 0.04437 0.0
C434 C 0.34092 0.38933 0.06561 0.0
C435 C 0.38669 0.39139 0.01778 0.0
C436 C 0.40512 0.41554 0.00592 0.0
C437 C 0.37444 0.36548 0.00664 0.0
C438 C 0.35596 0.33917 0.01876 0.0
C439 C 0.32952 0.32065 0.01008 0.0
C440 C 0.31206 0.29598 0.02159 0.0
C441 C 0.32086 0.28953 0.04177 0.0
C442 C 0.34717 0.30771 0.05045 0.0
C443 C 0.36472 0.3324 0.039 0.0
H444 H 0.30731 0.27043 0.05066 0.0
H445 H 0.47746 0.51 0.93916 0.0
H446 H 0.89855 0.38587 0.56828 0.0
H447 H 0.91307 0.40792 0.5307 0.0
H448 H 0.96113 0.36753 0.52061 0.0
H449 H 0.94627 0.34511 0.55786 0.0
H450 H 0.98826 0.42544 0.50776 0.0
H451 H 0.90096 0.33787 0.49932 0.0
H452 H 0.85142 0.30652 0.50756 0.0
H453 H 0.83244 0.36776 0.48299 0.0
H454 H 0.88198 0.39963 0.47492 0.0
H455 H 0.98497 0.37572 0.39663 0.0
H456 H 0.95341 0.37215 0.42685 0.0
H457 H 0.99106 0.46117 0.42804 0.0
H458 H 0.02316 0.4649 0.39821 0.0
H459 H 0.91822 0.38944 0.4459 0.0
H460 H 0.01503 0.48006 0.48035 0.0
H461 H 0.06513 0.50842 0.47229 0.0
H462 H 0.06542 0.43698 0.44524 0.0
H463 H 0.01535 0.40821 0.45327 0.0
C464 C 0.91265 0.3822 0.55815 0.0
C465 C 0.92145 0.36395 0.56581 0.0
C466 C 0.92076 0.39464 0.53674 0.0
C467 C 0.93807 0.38924 0.523 0.0
C468 C 0.94782 0.37196 0.53109 0.0
C469 C 0.93934 0.35918 0.55226 0.0
C470 C 0.94502 0.4001 0.49959 0.0
C471 C 0.97288 0.41813 0.49431 0.0
C472 C 0.92489 0.39047 0.48211 0.0
C473 C 0.89517 0.37125 0.48681 0.0
C474 C 0.88625 0.34474 0.49588 0.0
C475 C 0.85817 0.32686 0.50048 0.0
C476 C 0.8388 0.33518 0.49588 0.0
C477 C 0.84747 0.36137 0.4866 0.0
C478 C 0.87554 0.37934 0.48201 0.0
C479 C 0.98555 0.39444 0.40252 0.0
C480 C 0.00703 0.42058 0.39567 0.0
C481 C 0.9674 0.39239 0.41973 0.0
C482 C 0.97059 0.41647 0.43014 0.0
C483 C 0.9886 0.44238 0.42039 0.0
C484 C 0.00689 0.44446 0.40324 0.0
C485 C 0.96155 0.41454 0.45404 0.0
C486 C 0.9334 0.39794 0.45948 0.0
C487 C 0.98143 0.42528 0.47176 0.0
C488 C 0.01153 0.44214 0.46722 0.0
C489 C 0.02585 0.47044 0.47273 0.0
C490 C 0.05419 0.48657 0.46815 0.0
C491 C 0.06841 0.47452 0.45819 0.0
C492 C 0.05434 0.44629 0.45287 0.0
C493 C 0.026 0.43007 0.45744 0.0
H494 H 0.09035 0.48705 0.45471 0.0
H495 H 0.81708 0.32131 0.49944 0.0
H496 H 0.69507 0.11303 0.94284 0.0
H497 H 0.68196 0.09269 0.98078 0.0
H498 H 0.59742 0.04168 0.95852 0.0
H499 H 0.61045 0.06164 0.9203 0.0
H500 H 0.60242 0.06482 0.00245 0.0
H501 H 0.63637 0.01378 0.95982 0.0
H502 H 0.67033 0.009 0.93621 0.0
H503 H 0.73114 0.04587 0.98914 0.0
H504 H 0.69763 0.05124 0.01294 0.0
H505 H 0.55129 0.95161 0.07978 0.0
H506 H 0.56482 0.98599 0.04947 0.0
H507 H 0.65005 0.02413 0.0714 0.0
H508 H 0.63658 0.98905 0.10126 0.0
H509 H 0.64665 0.0116 0.02904 0.0
H510 H 0.61106 0.05826 0.07373 0.0
H511 H 0.57707 0.06301 0.09729 0.0
H512 H 0.51957 0.03489 0.0416 0.0
H513 H 0.55306 0.02959 0.01778 0.0
C514 C 0.67372 0.09735 0.94595 0.0
C515 C 0.65387 0.08859 0.92849 0.0
C516 C 0.66623 0.08598 0.96767 0.0
C517 C 0.6388 0.0656 0.97232 0.0
C518 C 0.61869 0.05749 0.95522 0.0
C519 C 0.62617 0.06885 0.93342 0.0
C520 C 0.63158 0.05139 0.99456 0.0
C521 C 0.61187 0.05299 0.00832 0.0
C522 C 0.6445 0.0366 0.00227 0.0
C523 C 0.6646 0.03319 0.98804 0.0
C524 C 0.65706 0.02107 0.96634 0.0
C525 C 0.67621 0.01823 0.95294 0.0
C526 C 0.70291 0.0272 0.96114 0.0
C527 C 0.71047 0.03897 0.98279 0.0
C528 C 0.69141 0.04191 0.99625 0.0
C529 C 0.57276 0.96789 0.07854 0.0
C530 C 0.59296 0.96774 0.09269 0.0
C531 C 0.58049 0.98759 0.06126 0.0
C532 C 0.60847 0.00773 0.05818 0.0
C533 C 0.62836 0.00873 0.07342 0.0
C534 C 0.62069 0.98878 0.09046 0.0
C535 C 0.61742 0.02496 0.03731 0.0
C536 C 0.63741 0.02377 0.02358 0.0
C537 C 0.60473 0.04012 0.02975 0.0
C538 C 0.58453 0.04333 0.04401 0.0
C539 C 0.59109 0.05288 0.06655 0.0
C540 C 0.57192 0.05571 0.07994 0.0
C541 C 0.54616 0.04921 0.07096 0.0
C542 C 0.53953 0.03991 0.04854 0.0
C543 C 0.55862 0.03703 0.03507 0.0
H544 H 0.53134 0.05141 0.08136 0.0
H545 H 0.7177 0.02498 0.95074 0.0
H546 H 0.59641 0.52335 0.56453 0.0
H547 H 0.56727 0.52428 0.53387 0.0
H548 H 0.62388 0.61173 0.52443 0.0
H549 H 0.65244 0.61123 0.55568 0.0
H550 H 0.57223 0.60108 0.5228 0.0
H551 H 0.62512 0.56235 0.49 0.0
H552 H 0.64126 0.52852 0.4871 0.0
H553 H 0.55746 0.46271 0.4777 0.0
H554 H 0.54079 0.49615 0.48085 0.0
H555 H 0.56878 0.6172 0.39971 0.0
H556 H 0.57665 0.59103 0.42914 0.0
H557 H 0.50115 0.57479 0.46277 0.0
H558 H 0.49345 0.60147 0.43349 0.0
H559 H 0.55444 0.54278 0.45407 0.0
H560 H 0.51803 0.59666 0.51616 0.0
H561 H 0.50783 0.63501 0.51687 0.0
H562 H 0.56871 0.67751 0.46479 0.0
H563 H 0.57937 0.63952 0.46395 0.0
C564 C 0.60238 0.54289 0.5562 0.0
C565 C 0.62673 0.56727 0.56253 0.0
C566 C 0.58586 0.54329 0.53853 0.0
C567 C 0.59357 0.56799 0.52676 0.0
C568 C 0.61758 0.59243 0.53331 0.0
C569 C 0.634 0.59208 0.55103 0.0
C570 C 0.57705 0.56866 0.50737 0.0
C571 C 0.56801 0.58803 0.50793 0.0
C572 C 0.57168 0.55174 0.48791 0.0
C573 C 0.58169 0.53168 0.48594 0.0
C574 C 0.61012 0.54063 0.4875 0.0
C575 C 0.61937 0.52154 0.48578 0.0
C576 C 0.60039 0.49347 0.4823 0.0
C577 C 0.57213 0.48445 0.48045 0.0
C578 C 0.56277 0.50346 0.48219 0.0
C579 C 0.55322 0.607 0.41281 0.0
C580 C 0.53086 0.61181 0.41472 0.0
C581 C 0.5577 0.59198 0.4296 0.0
C582 C 0.53982 0.58161 0.44838 0.0
C583 C 0.51538 0.58304 0.44855 0.0
C584 C 0.51105 0.59832 0.4319 0.0
C585 C 0.54999 0.57538 0.46951 0.0
C586 C 0.55788 0.5551 0.46928 0.0
C587 C 0.55509 0.59199 0.48912 0.0
C588 C 0.54923 0.61516 0.48984 0.0
C589 C 0.52926 0.61424 0.50493 0.0
C590 C 0.52339 0.63589 0.50534 0.0
C591 C 0.53754 0.65863 0.49082 0.0
C592 C 0.55771 0.65986 0.47597 0.0
C593 C 0.56365 0.63827 0.47551 0.0
H594 H 0.53293 0.67534 0.49112 0.0
H595 H 0.60758 0.47872 0.48096 0.0
H596 H 0.03371 0.60642 0.07172 0.0
H597 H 0.01401 0.58238 0.03593 0.0
H598 H 0.07997 0.56347 0.02964 0.0
H599 H 0.09999 0.58788 0.06542 0.0
H600 H 0.0755 0.58845 0.99216 0.0
H601 H 0.01502 0.51046 0.03548 0.0
H602 H 0.98302 0.48399 0.06663 0.0
H603 H 0.92489 0.50757 0.0428 0.0
H604 H 0.9567 0.53454 0.01171 0.0
H605 H 0.94826 0.51283 0.90665 0.0
H606 H 0.97856 0.51052 0.93546 0.0
H607 H 0.02105 0.59958 0.94208 0.0
H608 H 0.99156 0.60209 0.9127 0.0
H609 H 0.97591 0.52372 0.97707 0.0
H610 H 0.08291 0.62558 0.96446 0.0
H611 H 0.11527 0.65044 0.93309 0.0
H612 H 0.08165 0.575 0.8946 0.0
H613 H 0.04934 0.54954 0.92587 0.0
C614 C 0.04365 0.59663 0.06293 0.0
C615 C 0.06834 0.59901 0.07126 0.0
C616 C 0.03231 0.58273 0.04259 0.0
C617 C 0.04546 0.57099 0.03023 0.0
C618 C 0.06946 0.57226 0.03902 0.0
C619 C 0.08073 0.58603 0.05949 0.0
C620 C 0.03574 0.56053 0.00699 0.0
C621 C 0.05383 0.57395 0.98874 0.0
C622 C 0.00771 0.54088 0.00261 0.0
C623 C 0.98832 0.52457 0.02123 0.0
C624 C 0.99548 0.51013 0.03694 0.0
C625 C 0.97736 0.49502 0.05459 0.0
C626 C 0.95194 0.49409 0.05669 0.0
C627 C 0.94458 0.50827 0.04113 0.0
C628 C 0.96263 0.52342 0.02345 0.0
C629 C 0.96484 0.53202 0.91353 0.0
C630 C 0.96738 0.55767 0.90759 0.0
C631 C 0.98203 0.53063 0.93011 0.0
C632 C 0.00205 0.55483 0.94096 0.0
C633 C 0.00604 0.58062 0.93374 0.0
C634 C 0.98895 0.58204 0.91713 0.0
C635 C 0.01525 0.55316 0.96231 0.0
C636 C 0.9978 0.53748 0.98027 0.0
C637 C 0.04393 0.57044 0.96634 0.0
C638 C 0.06362 0.58563 0.94756 0.0
C639 C 0.08254 0.61421 0.9494 0.0
C640 C 0.10085 0.62843 0.9316 0.0
C641 C 0.1005 0.61432 0.91186 0.0
C642 C 0.08186 0.58593 0.90989 0.0
C643 C 0.06351 0.57159 0.92764 0.0
H644 H 0.11468 0.62538 0.89809 0.0
H645 H 0.93794 0.48239 0.07038 0.0
H646 H 0.42545 0.95343 0.39157 0.0
H647 H 0.45688 0.97748 0.42305 0.0
H648 H 0.41659 0.02548 0.43398 0.0
H649 H 0.38553 0.00204 0.4021 0.0
H650 H 0.4721 0.05377 0.4474 0.0
H651 H 0.38779 0.96213 0.45629 0.0
H652 H 0.3599 0.91285 0.44546 0.0
H653 H 0.42721 0.89994 0.4638 0.0
H654 H 0.45564 0.94931 0.47437 0.0
H655 H 0.40965 0.03332 0.55783 0.0
H656 H 0.41383 0.01047 0.52387 0.0
H657 H 0.50293 0.05677 0.52988 0.0
H658 H 0.49867 0.07957 0.56418 0.0
H659 H 0.43891 0.98116 0.50729 0.0
H660 H 0.5245 0.08494 0.47645 0.0
H661 H 0.54722 0.13459 0.48651 0.0
H662 H 0.47019 0.12311 0.51266 0.0
H663 H 0.44701 0.07355 0.50241 0.0
C664 C 0.42412 0.97005 0.39994 0.0
C665 C 0.40267 0.97554 0.39469 0.0
C666 C 0.4421 0.98371 0.41798 0.0
C667 C 0.43866 0.00281 0.43105 0.0
C668 C 0.4195 0.01071 0.4241 0.0
C669 C 0.40157 0.99712 0.40605 0.0
C670 C 0.45003 0.00994 0.45431 0.0
C671 C 0.46566 0.03792 0.46044 0.0
C672 C 0.44131 0.9892 0.47132 0.0
C673 C 0.42387 0.95936 0.46592 0.0
C674 C 0.39661 0.94875 0.45798 0.0
C675 C 0.38074 0.92084 0.45185 0.0
C676 C 0.3918 0.90328 0.4539 0.0
C677 C 0.4187 0.91358 0.46219 0.0
C678 C 0.4347 0.94151 0.46824 0.0
C679 C 0.43003 0.03769 0.5524 0.0
C680 C 0.45384 0.05814 0.56333 0.0
C681 C 0.43244 0.02458 0.53311 0.0
C682 C 0.4587 0.03216 0.5243 0.0
C683 C 0.48252 0.05068 0.53648 0.0
C684 C 0.48008 0.06362 0.556 0.0
C685 C 0.46049 0.02502 0.50042 0.0
C686 C 0.447 0.997 0.49418 0.0
C687 C 0.47071 0.04572 0.48333 0.0
C688 C 0.48419 0.07559 0.48892 0.0
C689 C 0.51245 0.09309 0.48426 0.0
C690 C 0.52538 0.12119 0.48999 0.0
C691 C 0.51018 0.13198 0.50028 0.0
C692 C 0.48196 0.11473 0.50473 0.0
C693 C 0.46892 0.08666 0.49895 0.0
H694 H 0.52025 0.15371 0.50477 0.0
H695 H 0.37951 0.8817 0.4491 0.0
H696 H 0.29665 0.50122 0.18438 0.0
H697 H 0.2858 0.53871 0.18581 0.0
H698 H 0.21093 0.4886 0.14763 0.0
H699 H 0.22187 0.45127 0.14576 0.0
H700 H 0.28233 0.56401 0.14621 0.0
H701 H 0.16307 0.50701 0.16525 0.0
H702 H 0.12968 0.47089 0.19118 0.0
H703 H 0.19556 0.48644 0.23736 0.0
H704 H 0.2293 0.52282 0.21186 0.0
H705 H 0.21455 0.62892 0.09413 0.0
H706 H 0.22912 0.59674 0.10726 0.0
H707 H 0.22057 0.6157 0.1767 0.0
H708 H 0.20844 0.64912 0.16436 0.0
H709 H 0.19487 0.56021 0.16948 0.0
H710 H 0.28724 0.63796 0.16054 0.0
H711 H 0.32411 0.67863 0.1404 0.0
H712 H 0.3157 0.62753 0.0829 0.0
H713 H 0.27948 0.58639 0.10306 0.0
C714 C 0.27748 0.49789 0.17686 0.0
C715 C 0.26013 0.4734 0.16484 0.0
C716 C 0.27141 0.51937 0.1776 0.0
C717 C 0.24762 0.51638 0.1668 0.0
C718 C 0.22931 0.49121 0.15619 0.0
C719 C 0.23561 0.46995 0.15507 0.0
C720 C 0.2435 0.54043 0.164 0.0
C721 C 0.26331 0.56326 0.1515 0.0
C722 C 0.21896 0.53969 0.17127 0.0
C723 C 0.19877 0.51746 0.18648 0.0
C724 C 0.17044 0.50275 0.18094 0.0
C725 C 0.15145 0.48223 0.19558 0.0
C726 C 0.1605 0.47635 0.21589 0.0
C727 C 0.18858 0.49096 0.2216 0.0
C728 C 0.20766 0.51143 0.207 0.0
C729 C 0.21631 0.62686 0.11222 0.0
C730 C 0.20983 0.64186 0.12797 0.0
C731 C 0.22468 0.60834 0.1197 0.0
C732 C 0.22622 0.60403 0.14303 0.0
C733 C 0.22008 0.61901 0.1587 0.0
C734 C 0.21269 0.63813 0.15135 0.0
C735 C 0.23327 0.58317 0.15109 0.0
C736 C 0.21394 0.56093 0.1644 0.0
C737 C 0.25862 0.58484 0.14529 0.0
C738 C 0.28071 0.60922 0.13325 0.0
C739 C 0.29342 0.63542 0.14365 0.0
C740 C 0.31433 0.65848 0.13231 0.0
C741 C 0.32236 0.65563 0.11043 0.0
C742 C 0.30968 0.62964 0.09994 0.0
C743 C 0.28913 0.60641 0.11138 0.0
H744 H 0.33833 0.67355 0.10157 0.0
H745 H 0.14576 0.46048 0.2272 0.0
H746 H 0.54274 0.14563 0.64385 0.0
H747 H 0.58741 0.15164 0.65565 0.0
H748 H 0.62931 0.2297 0.61995 0.0
H749 H 0.58474 0.22386 0.60805 0.0
H750 H 0.6513 0.19706 0.61045 0.0
H751 H 0.62358 0.22721 0.67883 0.0
H752 H 0.58889 0.21817 0.70867 0.0
H753 H 0.59195 0.14605 0.73 0.0
H754 H 0.62666 0.15464 0.70032 0.0
H755 H 0.78099 0.26526 0.68028 0.0
H756 H 0.73119 0.24819 0.67944 0.0
H757 H 0.71779 0.17429 0.64481 0.0
H758 H 0.76761 0.1914 0.6452 0.0
H759 H 0.67984 0.20105 0.69099 0.0
H760 H 0.67745 0.16399 0.60133 0.0
H761 H 0.70797 0.17045 0.56866 0.0
H762 H 0.7616 0.25522 0.58789 0.0
H763 H 0.73164 0.24906 0.62103 0.0
C764 C 0.56141 0.16427 0.63873 0.0
C765 C 0.56011 0.18434 0.62503 0.0
C766 C 0.58695 0.16763 0.64548 0.0
C767 C 0.61167 0.19123 0.63885 0.0
C768 C 0.61046 0.2113 0.62523 0.0
C769 C 0.58496 0.20789 0.61838 0.0
C770 C 0.63895 0.19481 0.64543 0.0
C771 C 0.65746 0.19784 0.62807 0.0
C772 C 0.64687 0.19547 0.66841 0.0
C773 C 0.62767 0.19155 0.68735 0.0
C774 C 0.61698 0.20953 0.68999 0.0
C775 C 0.5973 0.20446 0.70687 0.0
C776 C 0.58827 0.18155 0.72124 0.0
C777 C 0.59909 0.16384 0.71894 0.0
C778 C 0.61884 0.16885 0.70215 0.0
C779 C 0.76739 0.24491 0.67322 0.0
C780 C 0.7783 0.22987 0.66246 0.0
C781 C 0.73888 0.2352 0.67273 0.0
C782 C 0.72088 0.21027 0.66162 0.0
C783 C 0.7314 0.19381 0.65314 0.0
C784 C 0.75988 0.20358 0.65345 0.0
C785 C 0.69228 0.20368 0.65592 0.0
C786 C 0.67354 0.20004 0.67341 0.0
C787 C 0.68391 0.20222 0.63299 0.0
C788 C 0.70251 0.20601 0.61366 0.0
C789 C 0.69586 0.18396 0.59864 0.0
C790 C 0.71309 0.18754 0.58013 0.0
C791 C 0.73684 0.21319 0.57634 0.0
C792 C 0.74341 0.23531 0.59108 0.0
C793 C 0.7264 0.23176 0.60977 0.0
H794 H 0.75007 0.21599 0.56193 0.0
H795 H 0.57282 0.17746 0.7341 0.0
H796 H 0.50536 0.77596 0.17065 0.0
H797 H 0.47413 0.72574 0.17311 0.0
H798 H 0.51362 0.71415 0.11438 0.0
H799 H 0.54457 0.76411 0.11165 0.0
H800 H 0.4587 0.69328 0.10839 0.0
H801 H 0.51731 0.68621 0.16733 0.0
H802 H 0.54147 0.69595 0.20433 0.0
H803 H 0.46582 0.67525 0.23907 0.0
H804 H 0.44109 0.66473 0.20241 0.0
H805 H 0.3899 0.54808 0.09761 0.0
H806 H 0.42315 0.5974 0.10213 0.0
H807 H 0.38288 0.59846 0.16456 0.0
H808 H 0.35001 0.54887 0.16032 0.0
H809 H 0.43606 0.62529 0.17071 0.0
H810 H 0.376 0.62665 0.11389 0.0
H811 H 0.34957 0.61296 0.07806 0.0
H812 H 0.42523 0.64652 0.0399 0.0
H813 H 0.45216 0.65941 0.07552 0.0
C814 C 0.50779 0.76264 0.15859 0.0
C815 C 0.52712 0.77399 0.14073 0.0
C816 C 0.49003 0.73393 0.1601 0.0
C817 C 0.49151 0.71622 0.14389 0.0
C818 C 0.51207 0.72746 0.12702 0.0
C819 C 0.52968 0.75604 0.12544 0.0
C820 C 0.46933 0.68682 0.14219 0.0
C821 C 0.45403 0.67829 0.12189 0.0
C822 C 0.4623 0.66764 0.16023 0.0
C823 C 0.47747 0.6751 0.18213 0.0
C824 C 0.50592 0.68401 0.18286 0.0
C825 C 0.51967 0.68952 0.20377 0.0
C826 C 0.50527 0.68651 0.224 0.0
C827 C 0.477 0.6777 0.2234 0.0
C828 C 0.46307 0.67181 0.20259 0.0
C829 C 0.38787 0.55896 0.11205 0.0
C830 C 0.3674 0.54471 0.12858 0.0
C831 C 0.40687 0.58715 0.11466 0.0
C832 C 0.40534 0.60176 0.13357 0.0
C833 C 0.38452 0.58763 0.14987 0.0
C834 C 0.36576 0.55935 0.14743 0.0
C835 C 0.426 0.63156 0.13661 0.0
C836 C 0.44075 0.64024 0.15718 0.0
C837 C 0.43227 0.65107 0.11894 0.0
C838 C 0.41612 0.64381 0.09744 0.0
C839 C 0.38703 0.63094 0.09788 0.0
C840 C 0.37194 0.62334 0.0776 0.0
C841 C 0.3857 0.62898 0.05672 0.0
C842 C 0.4146 0.64218 0.05609 0.0
C843 C 0.42979 0.64957 0.07633 0.0
H844 H 0.37397 0.62311 0.04104 0.0
H845 H 0.51596 0.6908 0.24015 0.0
H846 H 0.80034 0.55595 0.63154 0.0
H847 H 0.81741 0.5238 0.63905 0.0
H848 H 0.73551 0.46174 0.66098 0.0
H849 H 0.71916 0.49453 0.65526 0.0
H850 H 0.76953 0.45234 0.68195 0.0
H851 H 0.7592 0.46949 0.60311 0.0
H852 H 0.76787 0.49815 0.56875 0.0
H853 H 0.85461 0.52478 0.57239 0.0
H854 H 0.84647 0.4965 0.60696 0.0
H855 H 0.76191 0.32866 0.63806 0.0
H856 H 0.75582 0.36845 0.64628 0.0
H857 H 0.84317 0.42384 0.63537 0.0
H858 H 0.84918 0.38442 0.62643 0.0
H859 H 0.81159 0.43927 0.61207 0.0
H860 H 0.81582 0.41374 0.691 0.0
H861 H 0.80091 0.38062 0.72321 0.0
H862 H 0.71733 0.36354 0.71527 0.0
H863 H 0.73172 0.39662 0.68331 0.0
C864 C 0.78632 0.53571 0.63863 0.0
C865 C 0.75845 0.52749 0.6426 0.0
C866 C 0.79598 0.5173 0.64278 0.0
C867 C 0.7775 0.48997 0.64978 0.0
C868 C 0.75018 0.48259 0.65545 0.0
C869 C 0.7408 0.50133 0.65211 0.0
C870 C 0.78535 0.46813 0.64846 0.0
C871 C 0.77871 0.44949 0.66665 0.0
C872 C 0.79736 0.46428 0.62854 0.0
C873 C 0.80229 0.48117 0.60772 0.0
C874 C 0.78014 0.48158 0.59663 0.0
C875 C 0.78495 0.49774 0.57713 0.0
C876 C 0.81179 0.51334 0.56843 0.0
C877 C 0.83385 0.51274 0.57918 0.0
C878 C 0.82916 0.49665 0.59872 0.0
C879 C 0.77971 0.34934 0.63718 0.0
C880 C 0.806 0.3534 0.63152 0.0
C881 C 0.77632 0.37201 0.6423 0.0
C882 C 0.79917 0.39906 0.64188 0.0
C883 C 0.82534 0.40312 0.63606 0.0
C884 C 0.82872 0.38057 0.63094 0.0
C885 C 0.79552 0.42337 0.64542 0.0
C886 C 0.80292 0.44244 0.62755 0.0
C887 C 0.78334 0.42696 0.66528 0.0
C888 C 0.77481 0.40735 0.68464 0.0
C889 C 0.79427 0.40272 0.69607 0.0
C890 C 0.78592 0.38397 0.71421 0.0
C891 C 0.75817 0.3697 0.72099 0.0
C892 C 0.73878 0.37445 0.70989 0.0
C893 C 0.74704 0.39328 0.69184 0.0
H894 H 0.75176 0.35516 0.735 0.0
H895 H 0.81548 0.52584 0.55333 0.0
H896 H 0.44964 0.85658 0.10195 0.0
H897 H 0.40182 0.84467 0.11046 0.0
H898 H 0.39541 0.78398 0.15933 0.0
H899 H 0.44338 0.79612 0.1511 0.0
H900 H 0.35188 0.76564 0.12426 0.0
H901 H 0.40217 0.83834 0.17807 0.0
H902 H 0.43678 0.88534 0.19057 0.0
H903 H 0.39474 0.91943 0.15307 0.0
H904 H 0.36053 0.87282 0.13948 0.0
H905 H 0.22223 0.72519 0.17014 0.0
H906 H 0.27262 0.74669 0.17074 0.0
H907 H 0.2797 0.80976 0.12423 0.0
H908 H 0.2291 0.78804 0.12311 0.0
H909 H 0.32337 0.82876 0.15894 0.0
H910 H 0.28292 0.76527 0.09905 0.0
H911 H 0.25159 0.72267 0.07805 0.0
H912 H 0.276 0.67592 0.12052 0.0
H913 H 0.30749 0.71833 0.14199 0.0
C914 C 0.43796 0.84065 0.11443 0.0
C915 C 0.45005 0.82711 0.12578 0.0
C916 C 0.41082 0.83407 0.11942 0.0
C917 C 0.39529 0.81363 0.13562 0.0
C918 C 0.40722 0.79994 0.14687 0.0
C919 C 0.43451 0.80687 0.14219 0.0
C920 C 0.36604 0.80542 0.13987 0.0
C921 C 0.34567 0.77917 0.13241 0.0
C922 C 0.35812 0.82381 0.14937 0.0
C923 C 0.37891 0.85197 0.15746 0.0
C924 C 0.40055 0.85586 0.1721 0.0
C925 C 0.42006 0.88245 0.17947 0.0
C926 C 0.41793 0.90532 0.17265 0.0
C927 C 0.39636 0.90168 0.15835 0.0
C928 C 0.37694 0.87517 0.15075 0.0
C929 C 0.23444 0.7441 0.16054 0.0
C930 C 0.22165 0.75474 0.14634 0.0
C931 C 0.26326 0.75629 0.16086 0.0
C932 C 0.27976 0.77956 0.14731 0.0
C933 C 0.26725 0.79178 0.13479 0.0
C934 C 0.23836 0.77932 0.13414 0.0
C935 C 0.30943 0.7887 0.14402 0.0
C936 C 0.32975 0.81512 0.15131 0.0
C937 C 0.31752 0.77089 0.13382 0.0
C938 C 0.2973 0.7449 0.12228 0.0
C939 C 0.28128 0.74583 0.10418 0.0
C940 C 0.26368 0.72179 0.09209 0.0
C941 C 0.2621 0.69672 0.09781 0.0
C942 C 0.27758 0.69548 0.116 0.0
C943 C 0.29527 0.7195 0.12816 0.0
H944 H 0.24894 0.67831 0.08806 0.0
H945 H 0.43299 0.92587 0.17847 0.0
H946 H 0.60898 0.43682 0.59028 0.0
H947 H 0.57011 0.39189 0.60147 0.0
H948 H 0.60542 0.40134 0.6684 0.0
H949 H 0.64464 0.44634 0.65719 0.0
H950 H 0.58847 0.34978 0.64899 0.0
H951 H 0.55232 0.40913 0.66245 0.0
H952 H 0.54146 0.44594 0.65387 0.0
H953 H 0.48642 0.39633 0.6006 0.0
H954 H 0.49786 0.35969 0.60802 0.0
H955 H 0.47245 0.21753 0.66505 0.0
H956 H 0.50115 0.26668 0.67443 0.0
H957 H 0.48473 0.28861 0.60819 0.0
H958 H 0.45553 0.23972 0.59892 0.0
H959 H 0.49076 0.32672 0.63927 0.0
H960 H 0.54065 0.27832 0.61745 0.0
H961 H 0.55341 0.24222 0.62253 0.0
H962 H 0.58223 0.27157 0.69012 0.0
H963 H 0.56947 0.30788 0.68544 0.0
C964 C 0.60863 0.42925 0.6073 0.0
C965 C 0.62991 0.44506 0.62282 0.0
C966 C 0.58624 0.40374 0.61377 0.0
C967 C 0.58473 0.39351 0.63586 0.0
C968 C 0.60612 0.40901 0.65134 0.0
C969 C 0.62843 0.43469 0.64493 0.0
C970 C 0.56129 0.366 0.64221 0.0
C971 C 0.56708 0.34487 0.64747 0.0
C972 C 0.53342 0.35968 0.64008 0.0
C973 C 0.52617 0.38162 0.63572 0.0
C974 C 0.5382 0.40615 0.64868 0.0
C975 C 0.53196 0.42704 0.64401 0.0
C976 C 0.51326 0.42346 0.62674 0.0
C977 C 0.50088 0.39906 0.614 0.0
C978 C 0.50731 0.37824 0.61838 0.0
C979 C 0.47433 0.23283 0.65271 0.0
C980 C 0.46216 0.22473 0.63104 0.0
C981 C 0.49079 0.26092 0.6581 0.0
C982 C 0.49561 0.28129 0.64181 0.0
C983 C 0.48142 0.27326 0.621 0.0
C984 C 0.46479 0.24523 0.61567 0.0
C985 C 0.51808 0.31043 0.64482 0.0
C986 C 0.51214 0.33187 0.64145 0.0
C987 C 0.54589 0.31712 0.64845 0.0
C988 C 0.55382 0.29555 0.6512 0.0
C989 C 0.54958 0.27697 0.63343 0.0
C990 C 0.55682 0.25648 0.63624 0.0
C991 C 0.56849 0.25446 0.65667 0.0
C992 C 0.57311 0.27309 0.67432 0.0
C993 C 0.56591 0.29366 0.6716 0.0
H994 H 0.57404 0.23854 0.65881 0.0
H995 H 0.50833 0.4396 0.62327 0.0
H996 H 0.40667 0.86271 0.39663 0.0
H997 H 0.44573 0.85668 0.3861 0.0
H998 H 0.40536 0.8188 0.32284 0.0
H999 H 0.36578 0.82381 0.3336 0.0
H1000 H 0.42539 0.7898 0.34303 0.0
H1001 H 0.45811 0.88263 0.32382 0.0
H1002 H 0.46849 0.93078 0.3284 0.0
H1003 H 0.52796 0.94396 0.38037 0.0
H1004 H 0.5173 0.89556 0.37667 0.0
H1005 H 0.54415 0.77871 0.3224 0.0
H1006 H 0.51766 0.80161 0.31302 0.0
H1007 H 0.52464 0.82906 0.38248 0.0
H1008 H 0.55208 0.8073 0.39178 0.0
H1009 H 0.52292 0.86642 0.34759 0.0
H1010 H 0.45052 0.76263 0.37547 0.0
H1011 H 0.43548 0.71291 0.37203 0.0
H1012 H 0.45401 0.72333 0.30062 0.0
H1013 H 0.46772 0.77283 0.30347 0.0
C1014 C 0.40591 0.85277 0.38062 0.0
C1015 C 0.38308 0.84373 0.36598 0.0
C1016 C 0.42844 0.84973 0.37447 0.0
C1017 C 0.42862 0.83774 0.35351 0.0
C1018 C 0.40571 0.82832 0.339 0.0
C1019 C 0.38317 0.83131 0.34516 0.0
C1020 C 0.45217 0.8338 0.34738 0.0
C1021 C 0.44667 0.80673 0.34339 0.0
C1022 C 0.47994 0.85591 0.34782 0.0
C1023 C 0.48671 0.88524 0.35006 0.0
C1024 C 0.47314 0.89563 0.33646 0.0
C1025 C 0.47907 0.92301 0.33891 0.0
C1026 C 0.49884 0.94042 0.3547 0.0
C1027 C 0.51266 0.93045 0.36812 0.0
C1028 C 0.50666 0.903 0.36586 0.0
C1029 C 0.54085 0.79047 0.33547 0.0
C1030 C 0.54974 0.79083 0.35792 0.0
C1031 C 0.52555 0.80333 0.33012 0.0
C1032 C 0.51846 0.81616 0.34725 0.0
C1033 C 0.52978 0.81907 0.36906 0.0
C1034 C 0.54549 0.80663 0.37435 0.0
C1035 C 0.49593 0.82247 0.34383 0.0
C1036 C 0.50156 0.84984 0.34634 0.0
C1037 C 0.46818 0.80082 0.34158 0.0
C1038 C 0.46073 0.77142 0.33979 0.0
C1039 C 0.45151 0.75428 0.35908 0.0
C1040 C 0.44312 0.72615 0.35722 0.0
C1041 C 0.44426 0.71506 0.33621 0.0
C1042 C 0.45335 0.73199 0.31692 0.0
C1043 C 0.46126 0.76004 0.31862 0.0
H1044 H 0.43787 0.6933 0.33484 0.0
H1045 H 0.50349 0.96165 0.35651 0.0
H1046 H 0.77867 0.48755 0.85646 0.0
H1047 H 0.7287 0.45937 0.85195 0.0
H1048 H 0.71974 0.52952 0.87058 0.0
H1049 H 0.76991 0.55722 0.87686 0.0
H1050 H 0.68264 0.48854 0.8905 0.0
H1051 H 0.71269 0.50184 0.81371 0.0
H1052 H 0.73967 0.50229 0.78034 0.0
H1053 H 0.7042 0.41406 0.78526 0.0
H1054 H 0.67731 0.41308 0.8189 0.0
H1055 H 0.54225 0.38887 0.8301 0.0
H1056 H 0.59104 0.4247 0.82726 0.0
H1057 H 0.60714 0.39889 0.89192 0.0
H1058 H 0.5586 0.36321 0.89493 0.0
H1059 H 0.63859 0.42397 0.82582 0.0
H1060 H 0.65265 0.45314 0.92188 0.0
H1061 H 0.62479 0.45516 0.95366 0.0
H1062 H 0.57137 0.46457 0.90634 0.0
H1063 H 0.59913 0.46303 0.87431 0.0
C1064 C 0.76605 0.49704 0.85935 0.0
C1065 C 0.77805 0.52459 0.86685 0.0
C1066 C 0.73745 0.48095 0.85661 0.0
C1067 C 0.72032 0.4924 0.86036 0.0
C1068 C 0.73244 0.52017 0.86749 0.0
C1069 C 0.76106 0.53604 0.871 0.0
C1070 C 0.68971 0.47484 0.85817 0.0
C1071 C 0.6731 0.47465 0.87621 0.0
C1072 C 0.67698 0.45697 0.83934 0.0
C1073 C 0.69306 0.45743 0.81898 0.0
C1074 C 0.71078 0.48254 0.80781 0.0
C1075 C 0.72604 0.48289 0.78881 0.0
C1076 C 0.7237 0.45823 0.78072 0.0
C1077 C 0.70601 0.43315 0.79156 0.0
C1078 C 0.6907 0.43269 0.81058 0.0
C1079 C 0.55616 0.39068 0.84367 0.0
C1080 C 0.54634 0.37326 0.8629 0.0
C1081 C 0.58407 0.41123 0.84201 0.0
C1082 C 0.60263 0.41479 0.85956 0.0
C1083 C 0.59305 0.39697 0.87843 0.0
C1084 C 0.56521 0.37661 0.88018 0.0
C1085 C 0.63203 0.43719 0.85846 0.0
C1086 C 0.64829 0.43824 0.83985 0.0
C1087 C 0.64443 0.45635 0.87647 0.0
C1088 C 0.62788 0.45777 0.89569 0.0
C1089 C 0.63506 0.45581 0.91826 0.0
C1090 C 0.61926 0.45683 0.93632 0.0
C1091 C 0.59629 0.45993 0.93202 0.0
C1092 C 0.58912 0.4621 0.90965 0.0
C1093 C 0.60486 0.46112 0.89154 0.0
H1094 H 0.58408 0.46068 0.94602 0.0
H1095 H 0.73557 0.45854 0.76603 0.0
H1096 H 0.17632 0.55802 0.35387 0.0
H1097 H 0.19455 0.6063 0.34313 0.0
H1098 H 0.14766 0.61587 0.39714 0.0
H1099 H 0.12892 0.56752 0.40781 0.0
H1100 H 0.14556 0.64134 0.35827 0.0
H1101 H 0.21628 0.63785 0.40416 0.0
H1102 H 0.25093 0.62459 0.41481 0.0
H1103 H 0.29178 0.65421 0.35051 0.0
H1104 H 0.25726 0.6675 0.33942 0.0
H1105 H 0.21985 0.78321 0.38989 0.0
H1106 H 0.19643 0.73265 0.38689 0.0
H1107 H 0.24603 0.73985 0.32819 0.0
H1108 H 0.2693 0.79043 0.33086 0.0
H1109 H 0.24707 0.70539 0.36241 0.0
H1110 H 0.18219 0.71726 0.31991 0.0
H1111 H 0.15129 0.73574 0.31135 0.0
H1112 H 0.09971 0.69123 0.36818 0.0
H1113 H 0.13103 0.67339 0.37773 0.0
C1114 C 0.16971 0.57021 0.36348 0.0
C1115 C 0.15153 0.55877 0.38212 0.0
C1116 C 0.18027 0.59794 0.3573 0.0
C1117 C 0.17278 0.6148 0.36954 0.0
C1118 C 0.15385 0.60326 0.38754 0.0
C1119 C 0.14337 0.57559 0.39378 0.0
C1120 C 0.18529 0.64473 0.36425 0.0
C1121 C 0.16774 0.6554 0.35928 0.0
C1122 C 0.21431 0.66291 0.36477 0.0
C1123 C 0.23407 0.65345 0.37089 0.0
C1124 C 0.23247 0.64125 0.39219 0.0
C1125 C 0.25219 0.63391 0.39837 0.0
C1126 C 0.27368 0.6388 0.38343 0.0
C1127 C 0.27525 0.65064 0.36213 0.0
C1128 C 0.25562 0.65807 0.35589 0.0
C1129 C 0.22546 0.77403 0.37613 0.0
C1130 C 0.24642 0.79077 0.36064 0.0
C1131 C 0.21203 0.74517 0.3744 0.0
C1132 C 0.21951 0.73257 0.3573 0.0
C1133 C 0.23996 0.74922 0.34148 0.0
C1134 C 0.25312 0.77809 0.34298 0.0
C1135 C 0.20732 0.70208 0.35708 0.0
C1136 C 0.22493 0.6913 0.36098 0.0
C1137 C 0.17841 0.68387 0.35549 0.0
C1138 C 0.15917 0.69417 0.34968 0.0
C1139 C 0.16444 0.71163 0.33077 0.0
C1140 C 0.14682 0.72198 0.32572 0.0
C1141 C 0.12348 0.7146 0.33916 0.0
C1142 C 0.1178 0.69692 0.35777 0.0
C1143 C 0.13554 0.68674 0.36305 0.0
H1144 H 0.1098 0.72256 0.33516 0.0
H1145 H 0.28901 0.63325 0.38829 0.0
H1146 H 0.63553 0.20364 0.88524 0.0
H1147 H 0.59778 0.21285 0.8769 0.0
H1148 H 0.62606 0.23283 0.80752 0.0
H1149 H 0.66381 0.22346 0.81582 0.0
H1150 H 0.60874 0.26907 0.82929 0.0
H1151 H 0.57858 0.17342 0.8162 0.0
H1152 H 0.57152 0.12743 0.82637 0.0
H1153 H 0.51698 0.1208 0.88056 0.0
H1154 H 0.52449 0.16723 0.87136 0.0
H1155 H 0.48527 0.26986 0.80365 0.0
H1156 H 0.521 0.25689 0.79898 0.0
H1157 H 0.4992 0.21605 0.86429 0.0
H1158 H 0.46309 0.22808 0.86873 0.0
H1159 H 0.51361 0.18858 0.83691 0.0
H1160 H 0.55144 0.28462 0.85785 0.0
H1161 H 0.56026 0.33218 0.85316 0.0
H1162 H 0.60062 0.33907 0.78931 0.0
H1163 H 0.59161 0.29112 0.7935 0.0
C1164 C 0.6341 0.2107 0.86841 0.0
C1165 C 0.65246 0.2128 0.85115 0.0
C1166 C 0.61244 0.2157 0.8636 0.0
C1167 C 0.60901 0.22312 0.84153 0.0
C1168 C 0.62835 0.22698 0.82461 0.0
C1169 C 0.64979 0.22161 0.82935 0.0
C1170 C 0.58431 0.22532 0.83594 0.0
C1171 C 0.58792 0.2514 0.83048 0.0
C1172 C 0.55723 0.20223 0.83787 0.0
C1173 C 0.55228 0.17401 0.84316 0.0
C1174 C 0.56529 0.16233 0.83044 0.0
C1175 C 0.56119 0.13614 0.83601 0.0
C1176 C 0.54377 0.12117 0.85402 0.0
C1177 C 0.53045 0.1324 0.86657 0.0
C1178 C 0.53467 0.15869 0.86122 0.0
C1179 C 0.48769 0.25757 0.81677 0.0
C1180 C 0.47162 0.25036 0.83673 0.0
C1181 C 0.50822 0.25032 0.81413 0.0
C1182 C 0.51323 0.23607 0.83153 0.0
C1183 C 0.49584 0.22714 0.85066 0.0
C1184 C 0.47522 0.23416 0.85322 0.0
C1185 C 0.53795 0.23257 0.8311 0.0
C1186 C 0.5344 0.20618 0.8353 0.0
C1187 C 0.56511 0.25546 0.8285 0.0
C1188 C 0.57053 0.2842 0.82584 0.0
C1189 C 0.562 0.29619 0.84272 0.0
C1190 C 0.56706 0.32325 0.84015 0.0
C1191 C 0.58093 0.33871 0.82091 0.0
C1192 C 0.58981 0.32707 0.80418 0.0
C1193 C 0.58472 0.29993 0.80663 0.0
H1194 H 0.58487 0.35971 0.819 0.0
H1195 H 0.5406 0.10087 0.85826 0.0
H1196 H 0.42984 0.66309 0.42202 0.0
H1197 H 0.3821 0.62465 0.42426 0.0
H1198 H 0.38385 0.60881 0.35267 0.0
H1199 H 0.43201 0.64694 0.35048 0.0
H1200 H 0.33548 0.60821 0.36628 0.0
H1201 H 0.38815 0.5654 0.38833 0.0
H1202 H 0.42464 0.56247 0.40986 0.0
H1203 H 0.38393 0.56 0.47257 0.0
H1204 H 0.34755 0.56349 0.45134 0.0
H1205 H 0.21176 0.48098 0.36485 0.0
H1206 H 0.26144 0.51301 0.36216 0.0
H1207 H 0.26404 0.53146 0.43365 0.0
H1208 H 0.21413 0.49916 0.43655 0.0
H1209 H 0.31072 0.5296 0.41913 0.0
H1210 H 0.25671 0.5705 0.39678 0.0
H1211 H 0.22049 0.5733 0.37524 0.0
H1212 H 0.2634 0.58001 0.31279 0.0
H1213 H 0.29971 0.57645 0.33404 0.0
C1214 C 0.42002 0.65143 0.40677 0.0
C1215 C 0.43456 0.65791 0.38609 0.0
C1216 C 0.39284 0.6294 0.40808 0.0
C1217 C 0.37963 0.61364 0.38869 0.0
C1218 C 0.39386 0.62049 0.36787 0.0
C1219 C 0.42129 0.64219 0.36665 0.0
C1220 C 0.35095 0.59001 0.3903 0.0
C1221 C 0.3301 0.59078 0.37752 0.0
C1222 C 0.34393 0.56765 0.40539 0.0
C1223 C 0.3654 0.56506 0.41826 0.0
C1224 C 0.38721 0.56452 0.40671 0.0
C1225 C 0.40781 0.56271 0.41885 0.0
C1226 C 0.40666 0.56114 0.44258 0.0
C1227 C 0.38483 0.56127 0.45419 0.0
C1228 C 0.36421 0.56315 0.44211 0.0
C1229 C 0.22287 0.49152 0.38009 0.0
C1230 C 0.20888 0.48789 0.40083 0.0
C1231 C 0.25131 0.50979 0.37852 0.0
C1232 C 0.26627 0.52495 0.39761 0.0
C1233 C 0.2528 0.51999 0.4187 0.0
C1234 C 0.22427 0.5016 0.42031 0.0
C1235 C 0.29524 0.54774 0.39506 0.0
C1236 C 0.31611 0.5469 0.40774 0.0
C1237 C 0.30225 0.57007 0.37987 0.0
C1238 C 0.28078 0.57282 0.36701 0.0
C1239 C 0.25828 0.57216 0.37843 0.0
C1240 C 0.23767 0.57385 0.36624 0.0
C1241 C 0.23951 0.57671 0.3426 0.0
C1242 C 0.26199 0.57779 0.33111 0.0
C1243 C 0.28259 0.57589 0.34323 0.0
H1244 H 0.22363 0.57823 0.3332 0.0
H1245 H 0.42263 0.55975 0.45197 0.0
H1246 H 0.79164 0.23018 0.80572 0.0
H1247 H 0.80909 0.27994 0.80604 0.0
H1248 H 0.7254 0.26505 0.80279 0.0
H1249 H 0.70792 0.21526 0.80127 0.0
H1250 H 0.76241 0.31776 0.78744 0.0
H1251 H 0.74972 0.2604 0.85282 0.0
H1252 H 0.75585 0.22635 0.87514 0.0
H1253 H 0.84388 0.28135 0.87597 0.0
H1254 H 0.83833 0.31563 0.8534 0.0
H1255 H 0.79912 0.4132 0.89451 0.0
H1256 H 0.78278 0.36744 0.87733 0.0
H1257 H 0.82887 0.40652 0.81634 0.0
H1258 H 0.84469 0.45206 0.83314 0.0
H1259 H 0.80909 0.34216 0.86276 0.0
H1260 H 0.79947 0.37572 0.77286 0.0
H1261 H 0.79119 0.4117 0.7565 0.0
H1262 H 0.73612 0.40098 0.81156 0.0
H1263 H 0.7452 0.3659 0.82881 0.0
C1264 C 0.77705 0.23754 0.80384 0.0
C1265 C 0.74842 0.21888 0.80428 0.0
C1266 C 0.78704 0.26604 0.80403 0.0
C1267 C 0.76848 0.27616 0.8053 0.0
C1268 C 0.7401 0.25771 0.80211 0.0
C1269 C 0.73011 0.22915 0.80137 0.0
C1270 C 0.77774 0.30391 0.81528 0.0
C1271 C 0.77277 0.32316 0.80379 0.0
C1272 C 0.7903 0.31067 0.83709 0.0
C1273 C 0.79365 0.2904 0.85114 0.0
C1274 C 0.7704 0.26517 0.85766 0.0
C1275 C 0.77376 0.24584 0.87036 0.0
C1276 C 0.80023 0.25163 0.87689 0.0
C1277 C 0.8234 0.27685 0.87083 0.0
C1278 C 0.82016 0.29624 0.85808 0.0
C1279 C 0.80572 0.41191 0.87746 0.0
C1280 C 0.82283 0.43608 0.86506 0.0
C1281 C 0.7964 0.38586 0.86765 0.0
C1282 C 0.80423 0.38366 0.84537 0.0
C1283 C 0.82197 0.40781 0.83326 0.0
C1284 C 0.831 0.43377 0.84291 0.0
C1285 C 0.79426 0.35614 0.83482 0.0
C1286 C 0.79896 0.33687 0.84629 0.0
C1287 C 0.78053 0.34908 0.81355 0.0
C1288 C 0.77299 0.36811 0.80206 0.0
C1289 C 0.78546 0.38084 0.78136 0.0
C1290 C 0.78074 0.4012 0.772 0.0
C1291 C 0.76287 0.40836 0.78281 0.0
C1292 C 0.74986 0.39534 0.80312 0.0
C1293 C 0.75495 0.37537 0.81279 0.0
H1294 H 0.75925 0.42412 0.77551 0.0
H1295 H 0.80278 0.23662 0.88671 0.0
H1296 H 0.0803 0.36963 0.31692 0.0
H1297 H 0.08395 0.34851 0.28161 0.0
H1298 H 0.13773 0.32463 0.31515 0.0
H1299 H 0.13422 0.34552 0.35012 0.0
H1300 H 0.13174 0.37135 0.26187 0.0
H1301 H 0.14371 0.27618 0.28913 0.0
H1302 H 0.1182 0.2339 0.31228 0.0
H1303 H 0.04344 0.23743 0.30441 0.0
H1304 H 0.06834 0.27949 0.2809 0.0
H1305 H 0.24445 0.34639 0.23257 0.0
H1306 H 0.20056 0.3287 0.25267 0.0
H1307 H 0.16357 0.34153 0.19286 0.0
H1308 H 0.20742 0.35891 0.17247 0.0
H1309 H 0.14394 0.29009 0.24906 0.0
H1310 H 0.13125 0.37827 0.21284 0.0
H1311 H 0.15751 0.42335 0.1932 0.0
H1312 H 0.23315 0.43518 0.22267 0.0
H1313 H 0.20729 0.39046 0.24279 0.0
C1314 C 0.09235 0.35927 0.31688 0.0
C1315 C 0.10753 0.3599 0.33621 0.0
C1316 C 0.09418 0.34697 0.29674 0.0
C1317 C 0.11114 0.335 0.29566 0.0
C1318 C 0.12407 0.33323 0.31557 0.0
C1319 C 0.1222 0.34544 0.33566 0.0
C1320 C 0.12064 0.33031 0.27341 0.0
C1321 C 0.13338 0.35305 0.25858 0.0
C1322 C 0.12312 0.30663 0.26921 0.0
C1323 C 0.10797 0.28111 0.28322 0.0
C1324 C 0.12178 0.26785 0.29214 0.0
C1325 C 0.10743 0.24393 0.30539 0.0
C1326 C 0.07922 0.233 0.30983 0.0
C1327 C 0.0653 0.24595 0.30101 0.0
C1328 C 0.07954 0.26987 0.28774 0.0
C1329 C 0.22675 0.34449 0.22339 0.0
C1330 C 0.22961 0.35478 0.20114 0.0
C1331 C 0.20162 0.33431 0.2349 0.0
C1332 C 0.17903 0.33433 0.22435 0.0
C1333 C 0.1809 0.34171 0.20136 0.0
C1334 C 0.20603 0.35186 0.18983 0.0
C1335 C 0.15601 0.33165 0.23864 0.0
C1336 C 0.14093 0.30766 0.25183 0.0
C1337 C 0.15141 0.35426 0.24151 0.0
C1338 C 0.16738 0.38077 0.22894 0.0
C1339 C 0.1535 0.39045 0.21502 0.0
C1340 C 0.1683 0.41596 0.20388 0.0
C1341 C 0.19698 0.43206 0.20665 0.0
C1342 C 0.21095 0.42263 0.22049 0.0
C1343 C 0.19623 0.39719 0.23174 0.0
H1344 H 0.20832 0.45194 0.19826 0.0
H1345 H 0.06816 0.21448 0.32009 0.0
H1346 H 0.74397 0.09013 0.77257 0.0
H1347 H 0.79032 0.10709 0.7582 0.0
H1348 H 0.82429 0.14285 0.82366 0.0
H1349 H 0.77748 0.12535 0.83844 0.0
H1350 H 0.83596 0.18119 0.79216 0.0
H1351 H 0.84805 0.10392 0.79692 0.0
H1352 H 0.8359 0.05493 0.79497 0.0
H1353 H 0.82354 0.05461 0.72288 0.0
H1354 H 0.83517 0.10345 0.72438 0.0
H1355 H 0.92866 0.26857 0.71226 0.0
H1356 H 0.91949 0.23517 0.74267 0.0
H1357 H 0.85414 0.17095 0.70256 0.0
H1358 H 0.86378 0.20405 0.67189 0.0
H1359 H 0.87621 0.14908 0.73241 0.0
H1360 H 0.84016 0.21325 0.73298 0.0
H1361 H 0.84444 0.25952 0.7331 0.0
H1362 H 0.89438 0.28097 0.79344 0.0
H1363 H 0.8906 0.23483 0.79349 0.0
C1364 C 0.76105 0.10041 0.78434 0.0
C1365 C 0.75698 0.10737 0.80644 0.0
C1366 C 0.78777 0.10999 0.77608 0.0
C1367 C 0.81087 0.1266 0.78976 0.0
C1368 C 0.80675 0.13023 0.81276 0.0
C1369 C 0.77997 0.12052 0.82108 0.0
C1370 C 0.83735 0.14601 0.77842 0.0
C1371 C 0.84568 0.17426 0.77981 0.0
C1372 C 0.84956 0.13694 0.76194 0.0
C1373 C 0.84257 0.10749 0.76079 0.0
C1374 C 0.84261 0.0934 0.78065 0.0
C1375 C 0.83582 0.06563 0.77962 0.0
C1376 C 0.82898 0.05168 0.75882 0.0
C1377 C 0.82892 0.06547 0.73898 0.0
C1378 C 0.83569 0.09324 0.73991 0.0
C1379 C 0.91318 0.24709 0.7095 0.0
C1380 C 0.89636 0.23902 0.68997 0.0
C1381 C 0.90796 0.22802 0.72692 0.0
C1382 C 0.88575 0.20077 0.72505 0.0
C1383 C 0.87131 0.19191 0.70441 0.0
C1384 C 0.87657 0.21092 0.687 0.0
C1385 C 0.87328 0.18356 0.74556 0.0
C1386 C 0.86763 0.15601 0.74573 0.0
C1387 C 0.86276 0.19295 0.76322 0.0
C1388 C 0.86553 0.22085 0.76301 0.0
C1389 C 0.85229 0.22796 0.74613 0.0
C1390 C 0.85458 0.25412 0.74619 0.0
C1391 C 0.86979 0.27324 0.7632 0.0
C1392 C 0.88271 0.26618 0.78022 0.0
C1393 C 0.88053 0.24005 0.7802 0.0
H1394 H 0.87148 0.29346 0.76326 0.0
H1395 H 0.82371 0.03017 0.75806 0.0
H1396 H 0.63402 0.82728 0.15006 0.0
H1397 H 0.65288 0.80115 0.16914 0.0
H1398 H 0.67633 0.85676 0.22646 0.0
H1399 H 0.65849 0.88331 0.20712 0.0
H1400 H 0.70958 0.83337 0.2232 0.0
H1401 H 0.60692 0.80029 0.22146 0.0
H1402 H 0.56431 0.78486 0.19879 0.0
H1403 H 0.57764 0.72381 0.16568 0.0
H1404 H 0.62029 0.73891 0.18816 0.0
H1405 H 0.65866 0.7871 0.32951 0.0
H1406 H 0.67918 0.80419 0.29233 0.0
H1407 H 0.63708 0.72039 0.26634 0.0
H1408 H 0.61486 0.70375 0.30349 0.0
H1409 H 0.62292 0.7468 0.24256 0.0
H1410 H 0.71249 0.76755 0.262 0.0
H1411 H 0.75478 0.78331 0.28491 0.0
H1412 H 0.76896 0.86648 0.28408 0.0
H1413 H 0.72656 0.85123 0.26149 0.0
C1414 C 0.64401 0.83433 0.16643 0.0
C1415 C 0.64424 0.85681 0.17744 0.0
C1416 C 0.65493 0.81955 0.17723 0.0
C1417 C 0.66534 0.8266 0.19945 0.0
C1418 C 0.66836 0.85091 0.20932 0.0
C1419 C 0.65798 0.86598 0.19834 0.0
C1420 C 0.66689 0.80609 0.21446 0.0
C1421 C 0.69089 0.81417 0.2274 0.0
C1422 C 0.64281 0.78046 0.21917 0.0
C1423 C 0.61672 0.77076 0.20634 0.0
C1424 C 0.60065 0.78352 0.20939 0.0
C1425 C 0.57657 0.77488 0.19656 0.0
C1426 C 0.56836 0.75342 0.18079 0.0
C1427 C 0.58412 0.74049 0.17785 0.0
C1428 C 0.60816 0.74899 0.19068 0.0
C1429 C 0.65472 0.77232 0.31605 0.0
C1430 C 0.63515 0.74426 0.3191 0.0
C1431 C 0.66668 0.78201 0.29475 0.0
C1432 C 0.65988 0.76363 0.2763 0.0
C1433 C 0.6426 0.73506 0.28018 0.0
C1434 C 0.62995 0.72551 0.30133 0.0
C1435 C 0.66527 0.77482 0.25271 0.0
C1436 C 0.64238 0.76504 0.23803 0.0
C1437 C 0.69051 0.79866 0.24642 0.0
C1438 C 0.71627 0.80818 0.25994 0.0
C1439 C 0.72454 0.78919 0.26676 0.0
C1440 C 0.74856 0.79804 0.27971 0.0
C1441 C 0.76456 0.82588 0.28592 0.0
C1442 C 0.75659 0.84493 0.27919 0.0
C1443 C 0.73259 0.8362 0.26624 0.0
H1444 H 0.78313 0.83268 0.29597 0.0
H1445 H 0.54969 0.74664 0.17096 0.0
H1446 H 0.76461 0.66022 0.69074 0.0
H1447 H 0.80252 0.67647 0.71816 0.0
H1448 H 0.84774 0.65327 0.67201 0.0
H1449 H 0.80937 0.63631 0.64491 0.0
H1450 H 0.83666 0.62529 0.70961 0.0
H1451 H 0.87605 0.72084 0.69224 0.0
H1452 H 0.8769 0.76471 0.68432 0.0
H1453 H 0.84514 0.76328 0.75114 0.0
H1454 H 0.84369 0.71918 0.75938 0.0
H1455 H 0.914 0.6285 0.80205 0.0
H1456 H 0.90947 0.64807 0.76605 0.0
H1457 H 0.85239 0.66879 0.79793 0.0
H1458 H 0.85788 0.65022 0.8341 0.0
H1459 H 0.88019 0.70441 0.76328 0.0
H1460 H 0.83052 0.60486 0.7764 0.0
H1461 H 0.82684 0.5597 0.78469 0.0
H1462 H 0.87464 0.56748 0.72502 0.0
H1463 H 0.87921 0.61305 0.71669 0.0
C1464 C 0.78318 0.65975 0.68612 0.0
C1465 C 0.78408 0.64672 0.66599 0.0
C1466 C 0.80491 0.66912 0.70174 0.0
C1467 C 0.82795 0.66595 0.69719 0.0
C1468 C 0.83013 0.6558 0.6759 0.0
C1469 C 0.80826 0.64611 0.66048 0.0
C1470 C 0.84613 0.66726 0.71609 0.0
C1471 C 0.84696 0.643 0.7209 0.0
C1472 C 0.8588 0.68998 0.73123 0.0
C1473 C 0.85965 0.71657 0.72639 0.0
C1474 C 0.86905 0.72975 0.7052 0.0
C1475 C 0.86968 0.7547 0.70066 0.0
C1476 C 0.86105 0.76676 0.7172 0.0
C1477 C 0.85182 0.75392 0.73834 0.0
C1478 C 0.85115 0.72897 0.74298 0.0
C1479 C 0.90131 0.63818 0.80143 0.0
C1480 C 0.88594 0.6376 0.82052 0.0
C1481 C 0.89875 0.64935 0.78097 0.0
C1482 C 0.88005 0.6592 0.77924 0.0
C1483 C 0.86687 0.66121 0.79892 0.0
C1484 C 0.86991 0.65055 0.81952 0.0
C1485 C 0.87027 0.66242 0.75669 0.0
C1486 C 0.87073 0.68724 0.75142 0.0
C1487 C 0.8584 0.64006 0.74111 0.0
C1488 C 0.85558 0.61258 0.74612 0.0
C1489 C 0.84048 0.59707 0.76517 0.0
C1490 C 0.83823 0.5714 0.76987 0.0
C1491 C 0.85059 0.56078 0.75543 0.0
C1492 C 0.86519 0.5758 0.73624 0.0
C1493 C 0.86767 0.60157 0.73155 0.0
H1494 H 0.84876 0.54087 0.75905 0.0
H1495 H 0.86155 0.78607 0.71365 0.0
H1496 H 0.23614 0.90171 0.28661 0.0
H1497 H 0.19352 0.87514 0.26508 0.0
H1498 H 0.15484 0.82309 0.32369 0.0
H1499 H 0.19825 0.84909 0.34486 0.0
H1500 H 0.15264 0.79284 0.29163 0.0
H1501 H 0.12661 0.86082 0.29555 0.0
H1502 H 0.13141 0.90725 0.29515 0.0
H1503 H 0.15544 0.9171 0.22487 0.0
H1504 H 0.15123 0.87091 0.22489 0.0
H1505 H 0.06777 0.70409 0.20875 0.0
H1506 H 0.07398 0.73698 0.23844 0.0
H1507 H 0.14088 0.80247 0.20047 0.0
H1508 H 0.134 0.77 0.17002 0.0
H1509 H 0.11306 0.82186 0.22896 0.0
H1510 H 0.15722 0.76328 0.23429 0.0
H1511 H 0.15378 0.71734 0.23446 0.0
H1512 H 0.09383 0.69072 0.28838 0.0
H1513 H 0.09707 0.73661 0.28855 0.0
C1514 C 0.21819 0.88527 0.29511 0.0
C1515 C 0.22042 0.87714 0.31721 0.0
C1516 C 0.19367 0.87014 0.28286 0.0
C1517 C 0.17077 0.84703 0.29272 0.0
C1518 C 0.1722 0.84073 0.31566 0.0
C1519 C 0.19694 0.85551 0.32773 0.0
C1520 C 0.14832 0.82649 0.27788 0.0
C1521 C 0.14317 0.79911 0.27853 0.0
C1522 C 0.13609 0.83446 0.26049 0.0
C1523 C 0.13862 0.86231 0.26025 0.0
C1524 C 0.13308 0.87292 0.28003 0.0
C1525 C 0.13568 0.89922 0.27987 0.0
C1526 C 0.14372 0.91512 0.26 0.0
C1527 C 0.14916 0.90474 0.24024 0.0
C1528 C 0.1466 0.87846 0.2403 0.0
C1529 C 0.08312 0.72562 0.20613 0.0
C1530 C 0.10112 0.73413 0.18725 0.0
C1531 C 0.08659 0.74444 0.22323 0.0
C1532 C 0.10831 0.77194 0.22188 0.0
C1533 C 0.12411 0.78124 0.20191 0.0
C1534 C 0.12046 0.7625 0.18467 0.0
C1535 C 0.11859 0.78913 0.24261 0.0
C1536 C 0.12156 0.81565 0.24287 0.0
C1537 C 0.12874 0.78049 0.26104 0.0
C1538 C 0.12724 0.75319 0.26133 0.0
C1539 C 0.14332 0.74759 0.24617 0.0
C1540 C 0.14141 0.72159 0.2462 0.0
C1541 C 0.12354 0.70109 0.26138 0.0
C1542 C 0.1076 0.70659 0.27659 0.0
C1543 C 0.10954 0.73261 0.27669 0.0
H1544 H 0.12207 0.68097 0.26138 0.0
H1545 H 0.14573 0.93547 0.25991 0.0
H1546 H 0.37939 0.10981 0.69012 0.0
H1547 H 0.35127 0.11181 0.72074 0.0
H1548 H 0.29185 0.10855 0.67188 0.0
H1549 H 0.32078 0.1074 0.6409 0.0
H1550 H 0.3092 0.15206 0.69677 0.0
H1551 H 0.2694 0.05922 0.71614 0.0
H1552 H 0.26479 0.01333 0.72217 0.0
H1553 H 0.324 0.04612 0.77655 0.0
H1554 H 0.32936 0.09231 0.77066 0.0
H1555 H 0.31363 0.22205 0.7977 0.0
H1556 H 0.2875 0.18094 0.7742 0.0
H1557 H 0.35573 0.16519 0.77642 0.0
H1558 H 0.38224 0.20622 0.79915 0.0
H1559 H 0.30297 0.11588 0.77494 0.0
H1560 H 0.35628 0.20848 0.73575 0.0
H1561 H 0.36378 0.25546 0.72874 0.0
H1562 H 0.2779 0.22087 0.7113 0.0
H1563 H 0.26993 0.17371 0.71843 0.0
C1564 C 0.36012 0.10907 0.68592 0.0
C1565 C 0.35255 0.10909 0.66319 0.0
C1566 C 0.34368 0.10962 0.70347 0.0
C1567 C 0.31916 0.11 0.69869 0.0
C1568 C 0.31052 0.10802 0.67598 0.0
C1569 C 0.32706 0.10741 0.65832 0.0
C1570 C 0.30665 0.11849 0.71698 0.0
C1571 C 0.30647 0.14336 0.71373 0.0
C1572 C 0.30275 0.10713 0.73912 0.0
C1573 C 0.29964 0.07932 0.74301 0.0
C1574 C 0.28152 0.05671 0.72935 0.0
C1575 C 0.27878 0.03061 0.73274 0.0
C1576 C 0.29405 0.0268 0.74976 0.0
C1577 C 0.3121 0.04908 0.76343 0.0
C1578 C 0.31492 0.07523 0.76012 0.0
C1579 C 0.32311 0.2098 0.79345 0.0
C1580 C 0.3506 0.21825 0.79989 0.0
C1581 C 0.30786 0.18601 0.78027 0.0
C1582 C 0.31977 0.17019 0.77349 0.0
C1583 C 0.34607 0.17705 0.78163 0.0
C1584 C 0.36138 0.20084 0.79459 0.0
C1585 C 0.30813 0.1502 0.75456 0.0
C1586 C 0.3037 0.12333 0.75777 0.0
C1587 C 0.30765 0.15954 0.7323 0.0
C1588 C 0.31247 0.18774 0.7278 0.0
C1589 C 0.33902 0.21097 0.73048 0.0
C1590 C 0.34335 0.23759 0.7265 0.0
C1591 C 0.32131 0.24115 0.71963 0.0
C1592 C 0.29493 0.21809 0.71667 0.0
C1593 C 0.29049 0.19142 0.72068 0.0
H1594 H 0.32469 0.26178 0.71655 0.0
H1595 H 0.29191 0.00658 0.75235 0.0
H1596 H 0.46215 0.67785 0.30518 0.0
H1597 H 0.4396 0.63841 0.27918 0.0
H1598 H 0.51542 0.63577 0.27388 0.0
H1599 H 0.53788 0.67464 0.30063 0.0
H1600 H 0.48033 0.62469 0.23086 0.0
H1601 H 0.48061 0.59731 0.30751 0.0
H1602 H 0.47497 0.59934 0.34888 0.0
H1603 H 0.38801 0.569 0.33985 0.0
H1604 H 0.39344 0.56829 0.29823 0.0
H1605 H 0.41495 0.48122 0.19644 0.0
H1606 H 0.44461 0.52358 0.21811 0.0
H1607 H 0.37362 0.53227 0.2333 0.0
H1608 H 0.34401 0.4904 0.21143 0.0
H1609 H 0.4099 0.54039 0.27127 0.0
H1610 H 0.41229 0.5644 0.19195 0.0
H1611 H 0.422 0.56226 0.15147 0.0
H1612 H 0.50875 0.59902 0.16581 0.0
H1613 H 0.49945 0.59929 0.20674 0.0
C1614 C 0.4742 0.6693 0.29806 0.0
C1615 C 0.50164 0.67904 0.30501 0.0
C1616 C 0.46131 0.64681 0.28325 0.0
C1617 C 0.47588 0.63423 0.27481 0.0
C1618 C 0.50395 0.64535 0.28024 0.0
C1619 C 0.51666 0.66738 0.29556 0.0
C1620 C 0.46075 0.60742 0.26292 0.0
C1621 C 0.46515 0.60612 0.23962 0.0
C1622 C 0.44114 0.58336 0.27462 0.0
C1623 C 0.43755 0.58329 0.29967 0.0
C1624 C 0.46037 0.5916 0.31428 0.0
C1625 C 0.45723 0.59255 0.33778 0.0
C1626 C 0.43121 0.5846 0.34696 0.0
C1627 C 0.40824 0.57552 0.33267 0.0
C1628 C 0.41136 0.57495 0.3091 0.0
C1629 C 0.40563 0.49196 0.20467 0.0
C1630 C 0.37719 0.48254 0.20225 0.0
C1631 C 0.4226 0.51618 0.21691 0.0
C1632 C 0.41127 0.53106 0.22711 0.0
C1633 C 0.38271 0.52105 0.22551 0.0
C1634 C 0.36586 0.49717 0.21299 0.0
C1635 C 0.42908 0.55755 0.23895 0.0
C1636 C 0.42516 0.55884 0.26239 0.0
C1637 C 0.44957 0.5814 0.22737 0.0
C1638 C 0.45505 0.58133 0.20262 0.0
C1639 C 0.43338 0.57148 0.18664 0.0
C1640 C 0.43883 0.57069 0.16354 0.0
C1641 C 0.46595 0.58071 0.15601 0.0
C1642 C 0.48772 0.59125 0.17164 0.0
C1643 C 0.48234 0.59147 0.19484 0.0
H1644 H 0.47009 0.58028 0.13808 0.0
H1645 H 0.42891 0.5854 0.36516 0.0
H1646 H 0.91734 0.54349 0.78672 0.0
H1647 H 0.9084 0.50661 0.75959 0.0
H1648 H 0.82354 0.4604 0.78213 0.0
H1649 H 0.83169 0.49792 0.80811 0.0
H1650 H 0.86069 0.43558 0.78816 0.0
H1651 H 0.82068 0.467 0.73535 0.0
H1652 H 0.81314 0.49814 0.71034 0.0
H1653 H 0.8863 0.51685 0.6724 0.0
H1654 H 0.89458 0.48616 0.69746 0.0
H1655 H 0.83684 0.34516 0.67974 0.0
H1656 H 0.83575 0.38314 0.69842 0.0
H1657 H 0.90002 0.39192 0.7445 0.0
H1658 H 0.90117 0.35327 0.72532 0.0
H1659 H 0.86575 0.43308 0.70414 0.0
H1660 H 0.88971 0.41525 0.79876 0.0
H1661 H 0.88392 0.37654 0.8229 0.0
H1662 H 0.82227 0.31834 0.77717 0.0
H1663 H 0.82651 0.35652 0.75346 0.0
C1664 C 0.89656 0.52591 0.78543 0.0
C1665 C 0.87551 0.52314 0.80023 0.0
C1666 C 0.89148 0.50487 0.7699 0.0
C1667 C 0.86541 0.48073 0.76912 0.0
C1668 C 0.84383 0.47883 0.78262 0.0
C1669 C 0.84868 0.50014 0.79769 0.0
C1670 C 0.86219 0.45615 0.7569 0.0
C1671 C 0.86157 0.43469 0.76979 0.0
C1672 C 0.86237 0.45492 0.73297 0.0
C1673 C 0.85856 0.47467 0.71859 0.0
C1674 C 0.8355 0.47819 0.72198 0.0
C1675 C 0.83099 0.49563 0.70771 0.0
C1676 C 0.8493 0.50956 0.68986 0.0
C1677 C 0.87219 0.50611 0.68629 0.0
C1678 C 0.87681 0.4887 0.70053 0.0
C1679 C 0.85115 0.35546 0.69354 0.0
C1680 C 0.86943 0.34659 0.70083 0.0
C1681 C 0.85029 0.37711 0.70446 0.0
C1682 C 0.86742 0.39028 0.72321 0.0
C1683 C 0.88614 0.38175 0.73036 0.0
C1684 C 0.88685 0.35974 0.71944 0.0
C1685 C 0.86493 0.41232 0.73541 0.0
C1686 C 0.86462 0.43349 0.72254 0.0
C1687 C 0.86212 0.41227 0.7594 0.0
C1688 C 0.85888 0.38894 0.77398 0.0
C1689 C 0.87473 0.39422 0.79392 0.0
C1690 C 0.87162 0.37232 0.80763 0.0
C1691 C 0.85285 0.34498 0.80154 0.0
C1692 C 0.83688 0.33949 0.78189 0.0
C1693 C 0.83959 0.36129 0.76833 0.0
H1694 H 0.85067 0.32806 0.81204 0.0
H1695 H 0.84568 0.52294 0.67875 0.0
H1696 H 0.54257 0.92208 0.20874 0.0
H1697 H 0.50383 0.91588 0.23206 0.0
H1698 H 0.46311 0.82739 0.2216 0.0
H1699 H 0.50159 0.83366 0.19741 0.0
H1700 H 0.4275 0.84205 0.21549 0.0
H1701 H 0.4864 0.85627 0.2774 0.0
H1702 H 0.5295 0.87671 0.29988 0.0
H1703 H 0.53249 0.95525 0.30008 0.0
H1704 H 0.48942 0.93528 0.27751 0.0
H1705 H 0.32731 0.83744 0.29838 0.0
H1706 H 0.36285 0.83072 0.27964 0.0
H1707 H 0.40723 0.91714 0.26093 0.0
H1708 H 0.37177 0.924 0.27946 0.0
H1709 H 0.4383 0.89481 0.28636 0.0
H1710 H 0.37464 0.8741 0.2226 0.0
H1711 H 0.32889 0.84723 0.2044 0.0
H1712 H 0.33311 0.77272 0.21142 0.0
H1713 H 0.37859 0.79902 0.23024 0.0
C1714 C 0.52564 0.90124 0.21173 0.0
C1715 C 0.52511 0.87838 0.20118 0.0
C1716 C 0.5035 0.89766 0.22522 0.0
C1717 C 0.48062 0.87109 0.22894 0.0
C1718 C 0.48049 0.84809 0.21903 0.0
C1719 C 0.50251 0.8517 0.20524 0.0
C1720 C 0.45605 0.86796 0.24148 0.0
C1721 C 0.42982 0.85319 0.23121 0.0
C1722 C 0.4588 0.88203 0.2622 0.0
C1723 C 0.48481 0.89433 0.27563 0.0
C1724 C 0.49637 0.87796 0.28209 0.0
C1725 C 0.52076 0.88944 0.29489 0.0
C1726 C 0.53377 0.91729 0.30135 0.0
C1727 C 0.52244 0.93371 0.29499 0.0
C1728 C 0.49797 0.92229 0.28228 0.0
C1729 C 0.34436 0.85485 0.28983 0.0
C1730 C 0.3468 0.88124 0.29033 0.0
C1731 C 0.36463 0.85099 0.27925 0.0
C1732 C 0.38766 0.8735 0.26912 0.0
C1733 C 0.3896 0.89959 0.2688 0.0
C1734 C 0.36918 0.90339 0.27913 0.0
C1735 C 0.41041 0.87028 0.25961 0.0
C1736 C 0.43611 0.88356 0.27072 0.0
C1737 C 0.40689 0.85409 0.24007 0.0
C1738 C 0.37977 0.83845 0.22833 0.0
C1739 C 0.36561 0.85191 0.22065 0.0
C1740 C 0.33974 0.83678 0.21019 0.0
C1741 C 0.32792 0.80821 0.20708 0.0
C1742 C 0.34216 0.79479 0.21408 0.0
C1743 C 0.36798 0.8098 0.22466 0.0
H1744 H 0.30785 0.79652 0.19904 0.0
H1745 H 0.55257 0.9261 0.31135 0.0
H1746 H 0.44897 0.37941 0.77253 0.0
H1747 H 0.48639 0.41246 0.74808 0.0
H1748 H 0.53515 0.37449 0.76524 0.0
H1749 H 0.49776 0.3412 0.78955 0.0
H1750 H 0.56355 0.42869 0.77246 0.0
H1751 H 0.51498 0.37106 0.7101 0.0
H1752 H 0.47611 0.34204 0.68445 0.0
H1753 H 0.46406 0.41107 0.671 0.0
H1754 H 0.50292 0.44052 0.69657 0.0
H1755 H 0.66959 0.50933 0.68984 0.0
H1756 H 0.63296 0.47213 0.71242 0.0
H1757 H 0.5839 0.51209 0.70737 0.0
H1758 H 0.62048 0.54945 0.68482 0.0
H1759 H 0.55679 0.45515 0.6932 0.0
H1760 H 0.61199 0.51287 0.75604 0.0
H1761 H 0.65415 0.53818 0.77939 0.0
H1762 H 0.65623 0.46292 0.78973 0.0
H1763 H 0.61456 0.43737 0.76623 0.0
C1764 C 0.46745 0.37777 0.77081 0.0
C1765 C 0.47061 0.35803 0.78335 0.0
C1766 C 0.48877 0.39659 0.75672 0.0
C1767 C 0.51355 0.39593 0.75487 0.0
C1768 C 0.51623 0.37542 0.76653 0.0
C1769 C 0.49489 0.35652 0.78051 0.0
C1770 C 0.53758 0.41839 0.74276 0.0
C1771 C 0.56223 0.43418 0.75497 0.0
C1772 C 0.53574 0.42569 0.72008 0.0
C1773 C 0.51162 0.40788 0.70546 0.0
C1774 C 0.50379 0.37994 0.70191 0.0
C1775 C 0.48185 0.36346 0.6873 0.0
C1776 C 0.46753 0.37467 0.6762 0.0
C1777 C 0.4751 0.40238 0.67969 0.0
C1778 C 0.49713 0.41901 0.69419 0.0
C1779 C 0.65119 0.51043 0.69388 0.0
C1780 C 0.64782 0.53223 0.68553 0.0
C1781 C 0.63035 0.48921 0.70679 0.0
C1782 C 0.60579 0.48942 0.71147 0.0
C1783 C 0.60277 0.51165 0.70387 0.0
C1784 C 0.62374 0.53305 0.69117 0.0
C1785 C 0.58252 0.46556 0.72299 0.0
C1786 C 0.55805 0.44954 0.71063 0.0
C1787 C 0.58484 0.45756 0.74532 0.0
C1788 C 0.61032 0.47326 0.75912 0.0
C1789 C 0.62167 0.50181 0.76307 0.0
C1790 C 0.64548 0.51621 0.77641 0.0
C1791 C 0.65798 0.50223 0.78604 0.0
C1792 C 0.64669 0.47384 0.78232 0.0
C1793 C 0.62297 0.45938 0.76897 0.0
H1794 H 0.67635 0.51339 0.79642 0.0
H1795 H 0.45064 0.36192 0.6648 0.0
H1796 H 0.14885 0.66637 0.23056 0.0
H1797 H 0.15519 0.63485 0.2555 0.0
H1798 H 0.16108 0.5914 0.19698 0.0
H1799 H 0.15418 0.62252 0.17189 0.0
H1800 H 0.12184 0.581 0.25971 0.0
H1801 H 0.21225 0.56744 0.21729 0.0
H1802 H 0.25873 0.59643 0.20101 0.0
H1803 H 0.25865 0.66983 0.22301 0.0
H1804 H 0.21314 0.6414 0.24091 0.0
H1805 H 0.10989 0.46004 0.30354 0.0
H1806 H 0.11411 0.49468 0.27569 0.0
H1807 H 0.19911 0.54829 0.2962 0.0
H1808 H 0.19542 0.51273 0.32264 0.0
H1809 H 0.19659 0.55752 0.25546 0.0
H1810 H 0.14345 0.55341 0.31874 0.0
H1811 H 0.10658 0.53131 0.34765 0.0
H1812 H 0.04466 0.50795 0.29577 0.0
H1813 H 0.08116 0.52946 0.2665 0.0
C1814 C 0.15146 0.6501 0.22298 0.0
C1815 C 0.15078 0.64683 0.19925 0.0
C1816 C 0.1552 0.63218 0.23725 0.0
C1817 C 0.15881 0.6109 0.2281 0.0
C1818 C 0.15863 0.60784 0.2044 0.0
C1819 C 0.15441 0.6255 0.19011 0.0
C1820 C 0.16024 0.59045 0.24339 0.0
C1821 C 0.13821 0.57588 0.25865 0.0
C1822 C 0.18224 0.58454 0.24271 0.0
C1823 C 0.20862 0.60206 0.23009 0.0
C1824 C 0.22206 0.58975 0.21875 0.0
C1825 C 0.24851 0.60611 0.20949 0.0
C1826 C 0.2616 0.63496 0.2109 0.0
C1827 C 0.24838 0.64747 0.22177 0.0
C1828 C 0.22222 0.63118 0.23156 0.0
C1829 C 0.12966 0.47889 0.30145 0.0
C1830 C 0.15239 0.48381 0.31493 0.0
C1831 C 0.13201 0.4988 0.2858 0.0
C1832 C 0.15668 0.52449 0.28431 0.0
C1833 C 0.17984 0.52872 0.29701 0.0
C1834 C 0.17777 0.50839 0.31207 0.0
C1835 C 0.15775 0.54754 0.27077 0.0
C1836 C 0.18018 0.56259 0.25604 0.0
C1837 C 0.13713 0.55517 0.27285 0.0
C1838 C 0.11505 0.54285 0.29042 0.0
C1839 C 0.12196 0.54348 0.31351 0.0
C1840 C 0.10116 0.53104 0.32995 0.0
C1841 C 0.07332 0.51819 0.32354 0.0
C1842 C 0.06624 0.51787 0.3007 0.0
C1843 C 0.08698 0.53019 0.28417 0.0
H1844 H 0.05723 0.50852 0.33629 0.0
H1845 H 0.28197 0.64762 0.20355 0.0
H1846 H 0.58488 0.06626 0.81398 0.0
H1847 H 0.54759 0.06539 0.79127 0.0
H1848 H 0.60171 0.15066 0.77202 0.0
H1849 H 0.6391 0.15153 0.79397 0.0
H1850 H 0.54978 0.1401 0.78544 0.0
H1851 H 0.59024 0.10112 0.73559 0.0
H1852 H 0.60542 0.06812 0.72458 0.0
H1853 H 0.52223 0.00041 0.73226 0.0
H1854 H 0.50659 0.03303 0.7436 0.0
H1855 H 0.49086 0.15761 0.68412 0.0
H1856 H 0.51811 0.15523 0.71556 0.0
H1857 H 0.4581 0.06867 0.72501 0.0
H1858 H 0.43088 0.07072 0.69322 0.0
H1859 H 0.50892 0.0766 0.71984 0.0
H1860 H 0.46711 0.11696 0.76386 0.0
H1861 H 0.45207 0.14975 0.7758 0.0
H1862 H 0.53687 0.21473 0.78097 0.0
H1863 H 0.5525 0.18252 0.76886 0.0
C1864 C 0.58888 0.08477 0.80481 0.0
C1865 C 0.61494 0.109 0.8059 0.0
C1866 C 0.56757 0.08423 0.79187 0.0
C1867 C 0.572 0.10793 0.77993 0.0
C1868 C 0.5979 0.13215 0.78111 0.0
C1869 C 0.61924 0.13261 0.79378 0.0
C1870 C 0.54984 0.10757 0.76591 0.0
C1871 C 0.54087 0.12641 0.77101 0.0
C1872 C 0.53787 0.08909 0.74749 0.0
C1873 C 0.5473 0.06949 0.7407 0.0
C1874 C 0.57521 0.07919 0.73512 0.0
C1875 C 0.5839 0.06055 0.72878 0.0
C1876 C 0.56482 0.03218 0.72779 0.0
C1877 C 0.53699 0.02239 0.73308 0.0
C1878 C 0.5282 0.04094 0.73945 0.0
C1879 C 0.48321 0.13812 0.69307 0.0
C1880 C 0.45891 0.11421 0.68595 0.0
C1881 C 0.49872 0.13689 0.7112 0.0
C1882 C 0.49008 0.11179 0.72267 0.0
C1883 C 0.4651 0.08824 0.71636 0.0
C1884 C 0.44957 0.08945 0.6982 0.0
C1885 C 0.50878 0.10939 0.73923 0.0
C1886 C 0.51734 0.0901 0.73451 0.0
C1887 C 0.52033 0.12754 0.75802 0.0
C1888 C 0.51099 0.1473 0.76489 0.0
C1889 C 0.48259 0.13833 0.76715 0.0
C1890 C 0.47395 0.15682 0.77411 0.0
C1891 C 0.49349 0.18434 0.77903 0.0
C1892 C 0.52173 0.19343 0.77706 0.0
C1893 C 0.53049 0.17503 0.77014 0.0
H1894 H 0.48674 0.19858 0.78446 0.0
H1895 H 0.57158 0.01778 0.72287 0.0
loop_
_geom_bond_atom_site_label_1
_geom_bond_atom_site_label_2
_geom_bond_distance
_geom_bond_site_symmetry_2
_ccdc_geom_bond_type
C0 C1 1.351 . S
C0 N3 1.368 . S
C0 H5 0.931 . S
C1 C0 1.351 . S
C1 N2 1.373 . S
C1 H29 0.930 . S
N2 C1 1.373 . S
N2 C4 1.340 . S
N3 C0 1.368 . S
N3 C4 1.321 . S
N3 Co6 2.135 . S
C4 N2 1.340 . S
C4 N3 1.321 . S
C4 H28 0.930 . S
H5 C0 0.931 . S
Co6 N3 2.135 . S
Co6 N9 2.121 . S
Co6 O14 2.055 . S
Co6 O17 2.039 . S
Co6 N20 2.140 . S
C7 O8 1.227 . S
C7 O17 1.265 . S
O8 C7 1.227 . S
N9 Co6 2.121 . S
N9 C11 1.375 . S
N9 C12 1.313 . S
C10 C11 1.338 . S
C10 N13 1.377 . S
C10 H30 0.930 . S
C11 N9 1.375 . S
C11 C10 1.338 . S
C11 H15 0.931 . S
C12 N9 1.313 . S
C12 N13 1.344 . S
C12 H16 0.930 . S
N13 C10 1.377 . S
N13 C12 1.344 . S
O14 Co6 2.055 . S
O14 C18 1.253 . S
H15 C11 0.931 . S
H16 C12 0.930 . S
O17 Co6 2.039 . S
O17 C7 1.265 . S
C18 O14 1.253 . S
C18 O19 1.227 . S
O19 C18 1.227 . S
N20 Co6 2.140 . S
N20 C23 1.346 . S
N20 C24 1.345 . S
C21 C22 1.387 . S
C21 C25 1.391 . S
C22 C21 1.387 . S
C22 C23 1.369 . S
C22 H31 0.929 . S
C23 N20 1.346 . S
C23 C22 1.369 . S
C23 H26 0.928 . S
C24 N20 1.345 . S
C24 C25 1.371 . S
C24 H27 0.931 . S
C25 C21 1.391 . S
C25 C24 1.371 . S
C25 H32 0.930 . S
H26 C23 0.928 . S
H27 C24 0.931 . S
H28 C4 0.930 . S
H29 C1 0.930 . S
H30 C10 0.930 . S
H31 C22 0.929 . S
H32 C25 0.930 . S
C33 C34 1.351 . S
C33 N36 1.368 . S
C33 H38 0.931 . S
C34 C33 1.351 . S
C34 N35 1.373 . S
C34 H62 0.930 . S
N35 C34 1.373 . S
N35 C37 1.340 . S
N36 C33 1.368 . S
N36 C37 1.321 . S
N36 Co39 2.135 . S
C37 N35 1.340 . S
C37 N36 1.321 . S
C37 H61 0.930 . S
H38 C33 0.931 . S
Co39 N36 2.135 . S
Co39 N42 2.121 . S
Co39 O47 2.055 . S
Co39 O50 2.039 . S
Co39 N53 2.140 . S
C40 O41 1.227 . S
C40 O50 1.265 . S
O41 C40 1.227 . S
N42 Co39 2.121 . S
N42 C44 1.375 . S
N42 C45 1.313 . S
C43 C44 1.338 . S
C43 N46 1.377 . S
C43 H63 0.930 . S
C44 N42 1.375 . S
C44 C43 1.338 . S
C44 H48 0.931 . S
C45 N42 1.313 . S
C45 N46 1.344 . S
C45 H49 0.930 . S
N46 C43 1.377 . S
N46 C45 1.344 . S
O47 Co39 2.055 . S
O47 C51 1.253 . S
H48 C44 0.931 . S
H49 C45 0.930 . S
O50 Co39 2.039 . S
O50 C40 1.265 . S
C51 O47 1.253 . S
C51 O52 1.227 . S
O52 C51 1.227 . S
N53 Co39 2.140 . S
N53 C56 1.346 . S
N53 C57 1.345 . S
C54 C55 1.387 . S
C54 C58 1.391 . S
C55 C54 1.387 . S
C55 C56 1.369 . S
C55 H64 0.929 . S
C56 N53 1.346 . S
C56 C55 1.369 . S
C56 H59 0.928 . S
C57 N53 1.345 . S
C57 C58 1.371 . S
C57 H60 0.931 . S
C58 C54 1.391 . S
C58 C57 1.371 . S
C58 H65 0.930 . S
H59 C56 0.928 . S
H60 C57 0.931 . S
H61 C37 0.930 . S
H62 C34 0.930 . S
H63 C43 0.930 . S
H64 C55 0.929 . S
H65 C58 0.930 . S
C66 C67 1.351 . S
C66 N69 1.368 . S
C66 H71 0.931 . S
C67 C66 1.351 . S
C67 N68 1.373 . S
C67 H95 0.930 . S
N68 C67 1.373 . S
N68 C70 1.340 . S
N69 C66 1.368 . S
N69 C70 1.321 . S
N69 Co72 2.135 . S
C70 N68 1.340 . S
C70 N69 1.321 . S
C70 H94 0.930 . S
H71 C66 0.931 . S
Co72 N69 2.135 . S
Co72 N75 2.121 . S
Co72 O80 2.055 . S
Co72 O83 2.039 . S
Co72 N86 2.140 . S
C73 O74 1.227 . S
C73 O83 1.265 . S
O74 C73 1.227 . S
N75 Co72 2.121 . S
N75 C77 1.375 . S
N75 C78 1.313 . S
C76 C77 1.338 . S
C76 N79 1.377 . S
C76 H96 0.930 . S
C77 N75 1.375 . S
C77 C76 1.338 . S
C77 H81 0.931 . S
C78 N75 1.313 . S
C78 N79 1.344 . S
C78 H82 0.930 . S
N79 C76 1.377 . S
N79 C78 1.344 . S
O80 Co72 2.055 . S
O80 C84 1.253 . S
H81 C77 0.931 . S
H82 C78 0.930 . S
O83 Co72 2.039 . S
O83 C73 1.265 . S
C84 O80 1.253 . S
C84 O85 1.227 . S
O85 C84 1.227 . S
N86 Co72 2.140 . S
N86 C89 1.346 . S
N86 C90 1.345 . S
C87 C88 1.387 . S
C87 C91 1.391 . S
C88 C87 1.387 . S
C88 C89 1.369 . S
C88 H97 0.929 . S
C89 N86 1.346 . S
C89 C88 1.369 . S
C89 H92 0.928 . S
C90 N86 1.345 . S
C90 C91 1.371 . S
C90 H93 0.931 . S
C91 C87 1.391 . S
C91 C90 1.371 . S
C91 H98 0.930 . S
H92 C89 0.928 . S
H93 C90 0.931 . S
H94 C70 0.930 . S
H95 C67 0.930 . S
H96 C76 0.930 . S
H97 C88 0.929 . S
H98 C91 0.930 . S
C99 C100 1.351 . S
C99 N102 1.368 . S
C99 H104 0.931 . S
C100 C99 1.351 . S
C100 N101 1.373 . S
C100 H128 0.930 . S
N101 C100 1.373 . S
N101 C103 1.340 . S
N102 C99 1.368 . S
N102 C103 1.321 . S
N102 Co105 2.135 . S
C103 N101 1.340 . S
C103 N102 1.321 . S
C103 H127 0.930 . S
H104 C99 0.931 . S
Co105 N102 2.135 . S
Co105 N108 2.121 . S
Co105 O113 2.055 . S
Co105 O116 2.039 . S
Co105 N119 2.140 . S
C106 O107 1.227 . S
C106 O116 1.265 . S
O107 C106 1.227 . S
N108 Co105 2.121 . S
N108 C110 1.375 . S
N108 C111 1.313 . S
C109 C110 1.338 . S
C109 N112 1.377 . S
C109 H129 0.930 . S
C110 N108 1.375 . S
C110 C109 1.338 . S
C110 H114 0.931 . S
C111 N108 1.313 . S
C111 N112 1.344 . S
C111 H115 0.930 . S
N112 C109 1.377 . S
N112 C111 1.344 . S
O113 Co105 2.055 . S
O113 C117 1.253 . S
H114 C110 0.931 . S
H115 C111 0.930 . S
O116 Co105 2.039 . S
O116 C106 1.265 . S
C117 O113 1.253 . S
C117 O118 1.227 . S
O118 C117 1.227 . S
N119 Co105 2.140 . S
N119 C122 1.346 . S
N119 C123 1.345 . S
C120 C121 1.387 . S
C120 C124 1.391 . S
C121 C120 1.387 . S
C121 C122 1.369 . S
C121 H130 0.929 . S
C122 N119 1.346 . S
C122 C121 1.369 . S
C122 H125 0.928 . S
C123 N119 1.345 . S
C123 C124 1.371 . S
C123 H126 0.931 . S
C124 C120 1.391 . S
C124 C123 1.371 . S
C124 H131 0.930 . S
H125 C122 0.928 . S
H126 C123 0.931 . S
H127 C103 0.930 . S
H128 C100 0.930 . S
H129 C109 0.930 . S
H130 C121 0.929 . S
H131 C124 0.930 . S
C132 C133 1.351 . S
C132 N135 1.368 . S
C132 H137 0.931 . S
C133 C132 1.351 . S
C133 N134 1.373 . S
C133 H161 0.930 . S
N134 C133 1.373 . S
N134 C136 1.340 . S
N135 C132 1.368 . S
N135 C136 1.321 . S
N135 Co138 2.135 . S
C136 N134 1.340 . S
C136 N135 1.321 . S
C136 H160 0.930 . S
H137 C132 0.931 . S
Co138 N135 2.135 . S
Co138 N141 2.121 . S
Co138 O146 2.055 . S
Co138 O149 2.039 . S
Co138 N152 2.140 . S
C139 O140 1.227 . S
C139 O149 1.265 . S
O140 C139 1.227 . S
N141 Co138 2.121 . S
N141 C143 1.375 . S
N141 C144 1.313 . S
C142 C143 1.338 . S
C142 N145 1.377 . S
C142 H162 0.930 . S
C143 N141 1.375 . S
C143 C142 1.338 . S
C143 H147 0.931 . S
C144 N141 1.313 . S
C144 N145 1.344 . S
C144 H148 0.930 . S
N145 C142 1.377 . S
N145 C144 1.344 . S
O146 Co138 2.055 . S
O146 C150 1.253 . S
H147 C143 0.931 . S
H148 C144 0.930 . S
O149 Co138 2.039 . S
O149 C139 1.265 . S
C150 O146 1.253 . S
C150 O151 1.227 . S
O151 C150 1.227 . S
N152 Co138 2.140 . S
N152 C155 1.346 . S
N152 C156 1.345 . S
C153 C154 1.387 . S
C153 C157 1.391 . S
C154 C153 1.387 . S
C154 C155 1.369 . S
C154 H163 0.929 . S
C155 N152 1.346 . S
C155 C154 1.369 . S
C155 H158 0.928 . S
C156 N152 1.345 . S
C156 C157 1.371 . S
C156 H159 0.931 . S
C157 C153 1.391 . S
C157 C156 1.371 . S
C157 H164 0.930 . S
H158 C155 0.928 . S
H159 C156 0.931 . S
H160 C136 0.930 . S
H161 C133 0.930 . S
H162 C142 0.930 . S
H163 C154 0.929 . S
H164 C157 0.930 . S
C165 C166 1.351 . S
C165 N168 1.368 . S
C165 H170 0.931 . S
C166 C165 1.351 . S
C166 N167 1.373 . S
C166 H194 0.930 . S
N167 C166 1.373 . S
N167 C169 1.340 . S
N168 C165 1.368 . S
N168 C169 1.321 . S
N168 Co171 2.135 . S
C169 N167 1.340 . S
C169 N168 1.321 . S
C169 H193 0.930 . S
H170 C165 0.931 . S
Co171 N168 2.135 . S
Co171 N174 2.121 . S
Co171 O179 2.055 . S
Co171 O182 2.039 . S
Co171 N185 2.140 . S
C172 O173 1.227 . S
C172 O182 1.265 . S
O173 C172 1.227 . S
N174 Co171 2.121 . S
N174 C176 1.375 . S
N174 C177 1.313 . S
C175 C176 1.338 . S
C175 N178 1.377 . S
C175 H195 0.930 . S
C176 N174 1.375 . S
C176 C175 1.338 . S
C176 H180 0.931 . S
C177 N174 1.313 . S
C177 N178 1.344 . S
C177 H181 0.930 . S
N178 C175 1.377 . S
N178 C177 1.344 . S
O179 Co171 2.055 . S
O179 C183 1.253 . S
H180 C176 0.931 . S
H181 C177 0.930 . S
O182 Co171 2.039 . S
O182 C172 1.265 . S
C183 O179 1.253 . S
C183 O184 1.227 . S
O184 C183 1.227 . S
N185 Co171 2.140 . S
N185 C188 1.346 . S
N185 C189 1.345 . S
C186 C187 1.387 . S
C186 C190 1.391 . S
C187 C186 1.387 . S
C187 C188 1.369 . S
C187 H196 0.929 . S
C188 N185 1.346 . S
C188 C187 1.369 . S
C188 H191 0.928 . S
C189 N185 1.345 . S
C189 C190 1.371 . S
C189 H192 0.931 . S
C190 C186 1.391 . S
C190 C189 1.371 . S
C190 H197 0.930 . S
H191 C188 0.928 . S
H192 C189 0.931 . S
H193 C169 0.930 . S
H194 C166 0.930 . S
H195 C175 0.930 . S
H196 C187 0.929 . S
H197 C190 0.930 . S
C198 C199 1.351 . S
C198 N201 1.368 . S
C198 H203 0.931 . S
C199 C198 1.351 . S
C199 N200 1.373 . S
C199 H227 0.930 . S
N200 C199 1.373 . S
N200 C202 1.340 . S
N201 C198 1.368 . S
N201 C202 1.321 . S
N201 Co204 2.135 . S
C202 N200 1.340 . S
C202 N201 1.321 . S
C202 H226 0.930 . S
H203 C198 0.931 . S
Co204 N201 2.135 . S
Co204 N207 2.121 . S
Co204 O212 2.055 . S
Co204 O215 2.039 . S
Co204 N218 2.140 . S
C205 O206 1.227 . S
C205 O215 1.265 . S
O206 C205 1.227 . S
N207 Co204 2.121 . S
N207 C209 1.375 . S
N207 C210 1.313 . S
C208 C209 1.338 . S
C208 N211 1.377 . S
C208 H228 0.930 . S
C209 N207 1.375 . S
C209 C208 1.338 . S
C209 H213 0.931 . S
C210 N207 1.313 . S
C210 N211 1.344 . S
C210 H214 0.930 . S
N211 C208 1.377 . S
N211 C210 1.344 . S
O212 Co204 2.055 . S
O212 C216 1.253 . S
H213 C209 0.931 . S
H214 C210 0.930 . S
O215 Co204 2.039 . S
O215 C205 1.265 . S
C216 O212 1.253 . S
C216 O217 1.227 . S
O217 C216 1.227 . S
N218 Co204 2.140 . S
N218 C221 1.346 . S
N218 C222 1.345 . S
C219 C220 1.387 . S
C219 C223 1.391 . S
C220 C219 1.387 . S
C220 C221 1.369 . S
C220 H229 0.929 . S
C221 N218 1.346 . S
C221 C220 1.369 . S
C221 H224 0.928 . S
C222 N218 1.345 . S
C222 C223 1.371 . S
C222 H225 0.931 . S
C223 C219 1.391 . S
C223 C222 1.371 . S
C223 H230 0.930 . S
H224 C221 0.928 . S
H225 C222 0.931 . S
H226 C202 0.930 . S
H227 C199 0.930 . S
H228 C208 0.930 . S
H229 C220 0.929 . S
H230 C223 0.930 . S
C231 C232 1.351 . S
C231 N234 1.368 . S
C231 H236 0.931 . S
C232 C231 1.351 . S
C232 N233 1.373 . S
C232 H260 0.930 . S
N233 C232 1.373 . S
N233 C235 1.340 . S
N234 C231 1.368 . S
N234 C235 1.321 . S
N234 Co237 2.135 . S
C235 N233 1.340 . S
C235 N234 1.321 . S
C235 H259 0.930 . S
H236 C231 0.931 . S
Co237 N234 2.135 . S
Co237 N240 2.121 . S
Co237 O245 2.055 . S
Co237 O248 2.039 . S
Co237 N251 2.140 . S
C238 O239 1.227 . S
C238 O248 1.265 . S
O239 C238 1.227 . S
N240 Co237 2.121 . S
N240 C242 1.375 . S
N240 C243 1.313 . S
C241 C242 1.338 . S
C241 N244 1.377 . S
C241 H261 0.930 . S
C242 N240 1.375 . S
C242 C241 1.338 . S
C242 H246 0.931 . S
C243 N240 1.313 . S
C243 N244 1.344 . S
C243 H247 0.930 . S
N244 C241 1.377 . S
N244 C243 1.344 . S
O245 Co237 2.055 . S
O245 C249 1.253 . S
H246 C242 0.931 . S
H247 C243 0.930 . S
O248 Co237 2.039 . S
O248 C238 1.265 . S
C249 O245 1.253 . S
C249 O250 1.227 . S
O250 C249 1.227 . S
N251 Co237 2.140 . S
N251 C254 1.346 . S
N251 C255 1.345 . S
C252 C253 1.387 . S
C252 C256 1.391 . S
C253 C252 1.387 . S
C253 C254 1.369 . S
C253 H262 0.929 . S
C254 N251 1.346 . S
C254 C253 1.369 . S
C254 H257 0.928 . S
C255 N251 1.345 . S
C255 C256 1.371 . S
C255 H258 0.931 . S
C256 C252 1.391 . S
C256 C255 1.371 . S
C256 H263 0.930 . S
H257 C254 0.928 . S
H258 C255 0.931 . S
H259 C235 0.930 . S
H260 C232 0.930 . S
H261 C241 0.930 . S
H262 C253 0.929 . S
H263 C256 0.930 . S
C264 C265 1.351 . S
C264 N267 1.368 . S
C264 H269 0.931 . S
C265 C264 1.351 . S
C265 N266 1.373 . S
C265 H293 0.930 . S
N266 C265 1.373 . S
N266 C268 1.340 . S
N267 C264 1.368 . S
N267 C268 1.321 . S
N267 Co270 2.135 . S
C268 N266 1.340 . S
C268 N267 1.321 . S
C268 H292 0.930 . S
H269 C264 0.931 . S
Co270 N267 2.135 . S
Co270 N273 2.121 . S
Co270 O278 2.055 . S
Co270 O281 2.039 . S
Co270 N284 2.140 . S
C271 O272 1.227 . S
C271 O281 1.265 . S
O272 C271 1.227 . S
N273 Co270 2.121 . S
N273 C275 1.375 . S
N273 C276 1.313 . S
C274 C275 1.338 . S
C274 N277 1.377 . S
C274 H294 0.930 . S
C275 N273 1.375 . S
C275 C274 1.338 . S
C275 H279 0.931 . S
C276 N273 1.313 . S
C276 N277 1.344 . S
C276 H280 0.930 . S
N277 C274 1.377 . S
N277 C276 1.344 . S
O278 Co270 2.055 . S
O278 C282 1.253 . S
H279 C275 0.931 . S
H280 C276 0.930 . S
O281 Co270 2.039 . S
O281 C271 1.265 . S
C282 O278 1.253 . S
C282 O283 1.227 . S
O283 C282 1.227 . S
N284 Co270 2.140 . S
N284 C287 1.346 . S
N284 C288 1.345 . S
C285 C286 1.387 . S
C285 C289 1.391 . S
C286 C285 1.387 . S
C286 C287 1.369 . S
C286 H295 0.929 . S
C287 N284 1.346 . S
C287 C286 1.369 . S
C287 H290 0.928 . S
C288 N284 1.345 . S
C288 C289 1.371 . S
C288 H291 0.931 . S
C289 C285 1.391 . S
C289 C288 1.371 . S
C289 H296 0.930 . S
H290 C287 0.928 . S
H291 C288 0.931 . S
H292 C268 0.930 . S
H293 C265 0.930 . S
H294 C274 0.930 . S
H295 C286 0.929 . S
H296 C289 0.930 . S
C297 C298 1.351 . S
C297 N300 1.368 . S
C297 H302 0.931 . S
C298 C297 1.351 . S
C298 N299 1.373 . S
C298 H326 0.930 . S
N299 C298 1.373 . S
N299 C301 1.340 . S
N300 C297 1.368 . S
N300 C301 1.321 . S
N300 Co303 2.135 . S
C301 N299 1.340 . S
C301 N300 1.321 . S
C301 H325 0.930 . S
H302 C297 0.931 . S
Co303 N300 2.135 . S
Co303 N306 2.121 . S
Co303 O311 2.055 . S
Co303 O314 2.039 . S
Co303 N317 2.140 . S
C304 O305 1.227 . S
C304 O314 1.265 . S
O305 C304 1.227 . S
N306 Co303 2.121 . S
N306 C308 1.375 . S
N306 C309 1.313 . S
C307 C308 1.338 . S
C307 N310 1.377 . S
C307 H327 0.930 . S
C308 N306 1.375 . S
C308 C307 1.338 . S
C308 H312 0.931 . S
C309 N306 1.313 . S
C309 N310 1.344 . S
C309 H313 0.930 . S
N310 C307 1.377 . S
N310 C309 1.344 . S
O311 Co303 2.055 . S
O311 C315 1.253 . S
H312 C308 0.931 . S
H313 C309 0.930 . S
O314 Co303 2.039 . S
O314 C304 1.265 . S
C315 O311 1.253 . S
C315 O316 1.227 . S
O316 C315 1.227 . S
N317 Co303 2.140 . S
N317 C320 1.346 . S
N317 C321 1.345 . S
C318 C319 1.387 . S
C318 C322 1.391 . S
C319 C318 1.387 . S
C319 C320 1.369 . S
C319 H328 0.929 . S
C320 N317 1.346 . S
C320 C319 1.369 . S
C320 H323 0.928 . S
C321 N317 1.345 . S
C321 C322 1.371 . S
C321 H324 0.931 . S
C322 C318 1.391 . S
C322 C321 1.371 . S
C322 H329 0.930 . S
H323 C320 0.928 . S
H324 C321 0.931 . S
H325 C301 0.930 . S
H326 C298 0.930 . S
H327 C307 0.930 . S
H328 C319 0.929 . S
H329 C322 0.930 . S
C330 C331 1.351 . S
C330 N333 1.368 . S
C330 H335 0.931 . S
C331 C330 1.351 . S
C331 N332 1.373 . S
C331 H359 0.930 . S
N332 C331 1.373 . S
N332 C334 1.340 . S
N333 C330 1.368 . S
N333 C334 1.321 . S
N333 Co336 2.135 . S
C334 N332 1.340 . S
C334 N333 1.321 . S
C334 H358 0.930 . S
H335 C330 0.931 . S
Co336 N333 2.135 . S
Co336 N339 2.121 . S
Co336 O344 2.055 . S
Co336 O347 2.039 . S
Co336 N350 2.140 . S
C337 O338 1.227 . S
C337 O347 1.265 . S
O338 C337 1.227 . S
N339 Co336 2.121 . S
N339 C341 1.375 . S
N339 C342 1.313 . S
C340 C341 1.338 . S
C340 N343 1.377 . S
C340 H360 0.930 . S
C341 N339 1.375 . S
C341 C340 1.338 . S
C341 H345 0.931 . S
C342 N339 1.313 . S
C342 N343 1.344 . S
C342 H346 0.930 . S
N343 C340 1.377 . S
N343 C342 1.344 . S
O344 Co336 2.055 . S
O344 C348 1.253 . S
H345 C341 0.931 . S
H346 C342 0.930 . S
O347 Co336 2.039 . S
O347 C337 1.265 . S
C348 O344 1.253 . S
C348 O349 1.227 . S
O349 C348 1.227 . S
N350 Co336 2.140 . S
N350 C353 1.346 . S
N350 C354 1.345 . S
C351 C352 1.387 . S
C351 C355 1.391 . S
C352 C351 1.387 . S
C352 C353 1.369 . S
C352 H361 0.929 . S
C353 N350 1.346 . S
C353 C352 1.369 . S
C353 H356 0.928 . S
C354 N350 1.345 . S
C354 C355 1.371 . S
C354 H357 0.931 . S
C355 C351 1.391 . S
C355 C354 1.371 . S
C355 H362 0.930 . S
H356 C353 0.928 . S
H357 C354 0.931 . S
H358 C334 0.930 . S
H359 C331 0.930 . S
H360 C340 0.930 . S
H361 C352 0.929 . S
H362 C355 0.930 . S
C363 C364 1.351 . S
C363 N366 1.368 . S
C363 H368 0.931 . S
C364 C363 1.351 . S
C364 N365 1.373 . S
C364 H392 0.930 . S
N365 C364 1.373 . S
N365 C367 1.340 . S
N366 C363 1.368 . S
N366 C367 1.321 . S
N366 Co369 2.135 . S
C367 N365 1.340 . S
C367 N366 1.321 . S
C367 H391 0.930 . S
H368 C363 0.931 . S
Co369 N366 2.135 . S
Co369 N372 2.121 . S
Co369 O377 2.055 . S
Co369 O380 2.039 . S
Co369 N383 2.140 . S
C370 O371 1.227 . S
C370 O380 1.265 . S
O371 C370 1.227 . S
N372 Co369 2.121 . S
N372 C374 1.375 . S
N372 C375 1.313 . S
C373 C374 1.338 . S
C373 N376 1.377 . S
C373 H393 0.930 . S
C374 N372 1.375 . S
C374 C373 1.338 . S
C374 H378 0.931 . S
C375 N372 1.313 . S
C375 N376 1.344 . S
C375 H379 0.930 . S
N376 C373 1.377 . S
N376 C375 1.344 . S
O377 Co369 2.055 . S
O377 C381 1.253 . S
H378 C374 0.931 . S
H379 C375 0.930 . S
O380 Co369 2.039 . S
O380 C370 1.265 . S
C381 O377 1.253 . S
C381 O382 1.227 . S
O382 C381 1.227 . S
N383 Co369 2.140 . S
N383 C386 1.346 . S
N383 C387 1.345 . S
C384 C385 1.387 . S
C384 C388 1.391 . S
C385 C384 1.387 . S
C385 C386 1.369 . S
C385 H394 0.929 . S
C386 N383 1.346 . S
C386 C385 1.369 . S
C386 H389 0.928 . S
C387 N383 1.345 . S
C387 C388 1.371 . S
C387 H390 0.931 . S
C388 C384 1.391 . S
C388 C387 1.371 . S
C388 H395 0.930 . S
H389 C386 0.928 . S
H390 C387 0.931 . S
H391 C367 0.930 . S
H392 C364 0.930 . S
H393 C373 0.930 . S
H394 C385 0.929 . S
H395 C388 0.930 . S
H396 C414 0.951 . S
H397 C416 0.951 . S
H398 C418 0.950 . S
H399 C419 0.950 . S
H400 C421 0.952 . S
H401 C424 0.950 . S
H402 C425 0.950 . S
H403 C427 0.950 . S
H404 C428 0.950 . S
H405 C429 0.951 . S
H406 C431 0.951 . S
H407 C433 0.950 . S
H408 C434 0.950 . S
H409 C436 0.952 . S
H410 C439 0.950 . S
H411 C440 0.950 . S
H412 C442 0.950 . S
H413 C443 0.950 . S
C414 H396 0.951 . S
C414 C415 1.366 . S
C414 C416 1.388 . S
C415 C414 1.366 . S
C415 C419 1.385 . S
C416 H397 0.951 . S
C416 C414 1.388 . S
C416 C417 1.366 . S
C417 C416 1.366 . S
C417 C418 1.414 . S
C417 C420 1.499 . S
C418 H398 0.950 . S
C418 C417 1.414 . S
C418 C419 1.374 . S
C419 H399 0.950 . S
C419 C415 1.385 . S
C419 C418 1.374 . S
C420 C417 1.499 . S
C420 C421 1.407 . S
C420 C422 1.389 . S
C421 H400 0.952 . S
C421 C420 1.407 . S
C421 C437 1.343 1_556 S
C422 C420 1.389 . S
C422 C423 1.524 . S
C422 C436 1.343 1_556 S
C423 C422 1.524 . S
C423 C424 1.397 . S
C423 C428 1.363 . S
C424 H401 0.950 . S
C424 C423 1.397 . S
C424 C425 1.334 . S
C425 H402 0.950 . S
C425 C424 1.334 . S
C425 C426 1.287 . S
C426 C425 1.287 . S
C426 C427 1.524 . S
C426 H445 0.913 . S
C427 H403 0.950 . S
C427 C426 1.524 . S
C427 C428 1.415 . S
C428 H404 0.950 . S
C428 C423 1.363 . S
C428 C427 1.415 . S
C429 H405 0.951 . S
C429 C430 1.366 . S
C429 C431 1.388 . S
C430 C429 1.366 . S
C430 C434 1.385 . S
C431 H406 0.951 . S
C431 C429 1.388 . S
C431 C432 1.366 . S
C432 C431 1.366 . S
C432 C433 1.414 . S
C432 C435 1.499 . S
C433 H407 0.950 . S
C433 C432 1.414 . S
C433 C434 1.374 . S
C434 H408 0.950 . S
C434 C430 1.385 . S
C434 C433 1.374 . S
C435 C432 1.499 . S
C435 C436 1.406 . S
C435 C437 1.389 . S
C436 H409 0.952 . S
C436 C422 1.343 1_554 S
C436 C435 1.406 . S
C437 C421 1.343 1_554 S
C437 C435 1.389 . S
C437 C438 1.524 . S
C438 C437 1.524 . S
C438 C439 1.397 . S
C438 C443 1.363 . S
C439 H410 0.950 . S
C439 C438 1.397 . S
C439 C440 1.334 . S
C440 H411 0.950 . S
C440 C439 1.334 . S
C440 C441 1.287 . S
C441 C440 1.287 . S
C441 C442 1.524 . S
C441 H444 0.999 . S
C442 H412 0.950 . S
C442 C441 1.524 . S
C442 C443 1.415 . S
C443 H413 0.950 . S
C443 C438 1.363 . S
C443 C442 1.415 . S
H444 C441 0.999 . S
H445 C426 0.913 . S
H446 C464 0.951 . S
H447 C466 0.951 . S
H448 C468 0.950 . S
H449 C469 0.950 . S
H450 C471 0.950 . S
H451 C474 0.950 . S
H452 C475 0.950 . S
H453 C477 0.950 . S
H454 C478 0.950 . S
H455 C479 0.951 . S
H456 C481 0.951 . S
H457 C483 0.950 . S
H458 C484 0.950 . S
H459 C486 0.950 . S
H460 C489 0.950 . S
H461 C490 0.950 . S
H462 C492 0.950 . S
H463 C493 0.950 . S
C464 H446 0.951 . S
C464 C465 1.366 . S
C464 C466 1.388 . S
C465 C464 1.366 . S
C465 C469 1.385 . S
C466 H447 0.951 . S
C466 C464 1.388 . S
C466 C467 1.366 . S
C467 C466 1.366 . S
C467 C468 1.414 . S
C467 C470 1.499 . S
C468 H448 0.950 . S
C468 C467 1.414 . S
C468 C469 1.374 . S
C469 H449 0.950 . S
C469 C465 1.385 . S
C469 C468 1.374 . S
C470 C467 1.499 . S
C470 C471 1.373 1_655 S
C470 C472 1.389 . S
C471 H450 0.950 . S
C471 C470 1.373 1_455 S
C471 C487 1.377 . S
C472 C470 1.389 . S
C472 C473 1.524 . S
C472 C486 1.377 . S
C473 C472 1.524 . S
C473 C474 1.397 . S
C473 C478 1.363 . S
C474 H451 0.950 . S
C474 C473 1.397 . S
C474 C475 1.334 . S
C475 H452 0.950 . S
C475 C474 1.334 . S
C475 C476 1.287 . S
C476 C475 1.287 . S
C476 C477 1.524 . S
C476 H495 0.913 . S
C477 H453 0.950 . S
C477 C476 1.524 . S
C477 C478 1.415 . S
C478 H454 0.950 . S
C478 C473 1.363 . S
C478 C477 1.415 . S
C479 H455 0.951 . S
C479 C480 1.366 . S
C479 C481 1.388 . S
C480 C479 1.366 . S
C480 C484 1.385 . S
C481 H456 0.951 . S
C481 C479 1.388 . S
C481 C482 1.366 . S
C482 C481 1.366 . S
C482 C483 1.414 . S
C482 C485 1.499 . S
C483 H457 0.950 . S
C483 C482 1.414 . S
C483 C484 1.374 . S
C484 H458 0.950 . S
C484 C480 1.385 . S
C484 C483 1.374 . S
C485 C482 1.499 . S
C485 C486 1.373 1_455 S
C485 C487 1.389 . S
C486 H459 0.950 . S
C486 C472 1.377 . S
C486 C485 1.373 1_655 S
C487 C471 1.377 . S
C487 C485 1.389 . S
C487 C488 1.524 . S
C488 C487 1.524 . S
C488 C489 1.397 . S
C488 C493 1.363 . S
C489 H460 0.950 . S
C489 C488 1.397 . S
C489 C490 1.334 . S
C490 H461 0.950 . S
C490 C489 1.334 . S
C490 C491 1.287 . S
C491 C490 1.287 . S
C491 C492 1.524 . S
C491 H494 0.999 . S
C492 H462 0.950 . S
C492 C491 1.524 . S
C492 C493 1.415 . S
C493 H463 0.950 . S
C493 C488 1.363 . S
C493 C492 1.415 . S
H494 C491 0.999 . S
H495 C476 0.913 . S
H496 C514 0.951 . S
H497 C516 0.951 . S
H498 C518 0.950 . S
H499 C519 0.950 . S
H500 C521 0.950 . S
H501 C524 0.950 . S
H502 C525 0.950 . S
H503 C527 0.950 1_545 S
H504 C528 0.960 . S
H505 C529 0.951 . S
H506 C531 0.951 . S
H507 C533 0.950 . S
H508 C534 0.950 . S
H509 C536 0.950 . S
H510 C539 0.950 . S
H511 C540 0.950 . S
H512 C542 0.951 1_565 S
H513 C543 0.961 . S
C514 H496 0.951 . S
C514 C515 1.366 . S
C514 C516 1.388 . S
C515 C514 1.366 . S
C515 C519 1.385 . S
C516 H497 0.951 . S
C516 C514 1.388 . S
C516 C517 1.366 . S
C517 C516 1.366 . S
C517 C518 1.414 . S
C517 C520 1.499 . S
C518 H498 0.950 . S
C518 C517 1.414 . S
C518 C519 1.374 . S
C519 H499 0.950 . S
C519 C515 1.385 . S
C519 C518 1.374 . S
C520 C517 1.499 . S
C520 C521 1.373 . S
C520 C522 1.373 1_545 S
C521 H500 0.950 . S
C521 C520 1.373 . S
C521 C537 1.384 1_556 S
C522 C520 1.373 1_565 S
C522 C523 1.535 . S
C522 C536 1.385 1_556 S
C523 C522 1.535 . S
C523 C524 1.397 . S
C523 C528 1.375 1_565 S
C524 H501 0.950 . S
C524 C523 1.397 . S
C524 C525 1.334 . S
C525 H502 0.950 . S
C525 C524 1.334 . S
C525 C526 1.287 . S
C526 C525 1.287 . S
C526 C527 1.524 . S
C526 H545 0.913 . S
C527 H503 0.950 1_565 S
C527 C526 1.524 . S
C527 C528 1.394 1_565 S
C528 H504 0.960 . S
C528 C523 1.375 1_545 S
C528 C527 1.394 1_545 S
C529 H505 0.951 . S
C529 C530 1.366 . S
C529 C531 1.388 . S
C530 C529 1.366 . S
C530 C534 1.385 . S
C531 H506 0.951 . S
C531 C529 1.388 . S
C531 C532 1.366 . S
C532 C531 1.366 . S
C532 C533 1.414 . S
C532 C535 1.499 . S
C533 H507 0.950 . S
C533 C532 1.414 . S
C533 C534 1.374 . S
C534 H508 0.950 . S
C534 C530 1.385 . S
C534 C533 1.374 . S
C535 C532 1.499 . S
C535 C536 1.373 . S
C535 C537 1.375 1_565 S
C536 H509 0.950 . S
C536 C522 1.385 1_554 S
C536 C535 1.373 . S
C537 C521 1.384 1_554 S
C537 C535 1.375 1_545 S
C537 C538 1.533 . S
C538 C537 1.533 . S
C538 C539 1.397 . S
C538 C543 1.376 1_545 S
C539 H510 0.950 . S
C539 C538 1.397 . S
C539 C540 1.334 . S
C540 H511 0.950 . S
C540 C539 1.334 . S
C540 C541 1.287 . S
C541 C540 1.287 . S
C541 C542 1.524 . S
C541 H544 0.999 . S
C542 H512 0.951 1_545 S
C542 C541 1.524 . S
C542 C543 1.393 1_545 S
C543 H513 0.961 . S
C543 C538 1.376 1_565 S
C543 C542 1.393 1_565 S
H544 C541 0.999 . S
H545 C526 0.913 . S
H546 C564 0.951 . S
H547 C566 0.951 . S
H548 C568 0.950 . S
H549 C569 0.950 . S
H550 C571 0.950 . S
H551 C574 0.950 . S
H552 C575 0.950 . S
H553 C577 0.950 . S
H554 C578 0.950 . S
H555 C579 0.951 . S
H556 C581 0.951 . S
H557 C583 0.950 . S
H558 C584 0.950 . S
H559 C586 0.950 . S
H560 C589 0.950 . S
H561 C590 0.950 . S
H562 C592 0.950 . S
H563 C593 0.950 . S
C564 H546 0.951 . S
C564 C565 1.366 . S
C564 C566 1.388 . S
C565 C564 1.366 . S
C565 C569 1.385 . S
C566 H547 0.951 . S
C566 C564 1.388 . S
C566 C567 1.366 . S
C567 C566 1.366 . S
C567 C568 1.414 . S
C567 C570 1.499 . S
C568 H548 0.950 . S
C568 C567 1.414 . S
C568 C569 1.374 . S
C569 H549 0.950 . S
C569 C565 1.385 . S
C569 C568 1.374 . S
C570 C567 1.499 . S
C570 C571 1.373 . S
C570 C572 1.389 . S
C571 H550 0.950 . S
C571 C570 1.373 . S
C571 C587 1.377 . S
C572 C570 1.389 . S
C572 C573 1.524 . S
C572 C586 1.377 . S
C573 C572 1.524 . S
C573 C574 1.397 . S
C573 C578 1.363 . S
C574 H551 0.950 . S
C574 C573 1.397 . S
C574 C575 1.334 . S
C575 H552 0.950 . S
C575 C574 1.334 . S
C575 C576 1.287 . S
C576 C575 1.287 . S
C576 C577 1.524 . S
C576 H595 0.913 . S
C577 H553 0.950 . S
C577 C576 1.524 . S
C577 C578 1.415 . S
C578 H554 0.950 . S
C578 C573 1.363 . S
C578 C577 1.415 . S
C579 H555 0.951 . S
C579 C580 1.366 . S
C579 C581 1.388 . S
C580 C579 1.366 . S
C580 C584 1.385 . S
C581 H556 0.951 . S
C581 C579 1.388 . S
C581 C582 1.366 . S
C582 C581 1.366 . S
C582 C583 1.414 . S
C582 C585 1.499 . S
C583 H557 0.950 . S
C583 C582 1.414 . S
C583 C584 1.374 . S
C584 H558 0.950 . S
C584 C580 1.385 . S
C584 C583 1.374 . S
C585 C582 1.499 . S
C585 C586 1.373 . S
C585 C587 1.389 . S
C586 H559 0.950 . S
C586 C572 1.377 . S
C586 C585 1.373 . S
C587 C571 1.377 . S
C587 C585 1.389 . S
C587 C588 1.524 . S
C588 C587 1.524 . S
C588 C589 1.397 . S
C588 C593 1.363 . S
C589 H560 0.950 . S
C589 C588 1.397 . S
C589 C590 1.334 . S
C590 H561 0.950 . S
C590 C589 1.334 . S
C590 C591 1.287 . S
C591 C590 1.287 . S
C591 C592 1.524 . S
C591 H594 0.999 . S
C592 H562 0.950 . S
C592 C591 1.524 . S
C592 C593 1.415 . S
C593 H563 0.950 . S
C593 C588 1.363 . S
C593 C592 1.415 . S
H594 C591 0.999 . S
H595 C576 0.913 . S
H596 C614 0.951 . S
H597 C616 0.951 . S
H598 C618 0.950 . S
H599 C619 0.950 . S
H600 C621 0.953 . S
H601 C624 0.950 . S
H602 C625 0.950 . S
H603 C627 0.950 . S
H604 C628 0.950 . S
H605 C629 0.951 . S
H606 C631 0.951 . S
H607 C633 0.950 . S
H608 C634 0.950 . S
H609 C636 0.953 . S
H610 C639 0.950 . S
H611 C640 0.950 . S
H612 C642 0.950 . S
H613 C643 0.950 . S
C614 H596 0.951 . S
C614 C615 1.366 . S
C614 C616 1.388 . S
C615 C614 1.366 . S
C615 C619 1.385 . S
C616 H597 0.951 . S
C616 C614 1.388 . S
C616 C617 1.366 . S
C617 C616 1.366 . S
C617 C618 1.414 . S
C617 C620 1.499 . S
C618 H598 0.950 . S
C618 C617 1.414 . S
C618 C619 1.374 . S
C619 H599 0.950 . S
C619 C615 1.385 . S
C619 C618 1.374 . S
C620 C617 1.499 . S
C620 C621 1.418 . S
C620 C622 1.389 1_455 S
C621 H600 0.953 . S
C621 C620 1.418 . S
C621 C637 1.331 1_554 S
C622 C620 1.389 1_655 S
C622 C623 1.524 . S
C622 C636 1.333 1_554 S
C623 C622 1.524 . S
C623 C624 1.397 . S
C623 C628 1.363 . S
C624 H601 0.950 . S
C624 C623 1.397 . S
C624 C625 1.334 . S
C625 H602 0.950 . S
C625 C624 1.334 . S
C625 C626 1.287 . S
C626 C625 1.287 . S
C626 C627 1.524 . S
C626 H645 0.913 . S
C627 H603 0.950 . S
C627 C626 1.524 . S
C627 C628 1.415 . S
C628 H604 0.950 . S
C628 C623 1.363 . S
C628 C627 1.415 . S
C629 H605 0.951 . S
C629 C630 1.366 . S
C629 C631 1.388 . S
C630 C629 1.366 . S
C630 C634 1.385 . S
C631 H606 0.951 . S
C631 C629 1.388 . S
C631 C632 1.366 . S
C632 C631 1.366 . S
C632 C633 1.414 . S
C632 C635 1.499 . S
C633 H607 0.950 . S
C633 C632 1.414 . S
C633 C634 1.374 . S
C634 H608 0.950 . S
C634 C630 1.385 . S
C634 C633 1.374 . S
C635 C632 1.499 . S
C635 C636 1.415 . S
C635 C637 1.389 1_655 S
C636 H609 0.953 . S
C636 C622 1.333 1_556 S
C636 C635 1.415 . S
C637 C621 1.331 1_556 S
C637 C635 1.389 1_455 S
C637 C638 1.524 . S
C638 C637 1.524 . S
C638 C639 1.397 . S
C638 C643 1.363 . S
C639 H610 0.950 . S
C639 C638 1.397 . S
C639 C640 1.334 . S
C640 H611 0.950 . S
C640 C639 1.334 . S
C640 C641 1.287 . S
C641 C640 1.287 . S
C641 C642 1.524 . S
C641 H644 0.999 . S
C642 H612 0.950 . S
C642 C641 1.524 . S
C642 C643 1.415 . S
C643 H613 0.950 . S
C643 C638 1.363 . S
C643 C642 1.415 . S
H644 C641 0.999 . S
H645 C626 0.913 . S
H646 C664 0.951 . S
H647 C666 0.951 . S
H648 C668 0.950 . S
H649 C669 0.950 . S
H650 C671 0.950 . S
H651 C674 0.950 . S
H652 C675 0.950 . S
H653 C677 0.950 . S
H654 C678 0.950 . S
H655 C679 0.951 . S
H656 C681 0.951 . S
H657 C683 0.950 . S
H658 C684 0.950 . S
H659 C686 0.950 . S
H660 C689 0.950 . S
H661 C690 0.950 . S
H662 C692 0.950 . S
H663 C693 0.950 . S
C664 H646 0.951 . S
C664 C665 1.366 . S
C664 C666 1.388 . S
C665 C664 1.366 . S
C665 C669 1.385 . S
C666 H647 0.951 . S
C666 C664 1.388 . S
C666 C667 1.366 . S
C667 C666 1.366 . S
C667 C668 1.414 . S
C667 C670 1.499 . S
C668 H648 0.950 . S
C668 C667 1.414 . S
C668 C669 1.374 . S
C669 H649 0.950 . S
C669 C665 1.385 . S
C669 C668 1.374 . S
C670 C667 1.499 . S
C670 C671 1.373 1_565 S
C670 C672 1.389 . S
C671 H650 0.950 . S
C671 C670 1.373 1_545 S
C671 C687 1.377 . S
C672 C670 1.389 . S
C672 C673 1.524 . S
C672 C686 1.377 . S
C673 C672 1.524 . S
C673 C674 1.397 . S
C673 C678 1.363 . S
C674 H651 0.950 . S
C674 C673 1.397 . S
C674 C675 1.334 . S
C675 H652 0.950 . S
C675 C674 1.334 . S
C675 C676 1.287 . S
C676 C675 1.287 . S
C676 C677 1.524 . S
C676 H695 0.913 . S
C677 H653 0.950 . S
C677 C676 1.524 . S
C677 C678 1.415 . S
C678 H654 0.950 . S
C678 C673 1.363 . S
C678 C677 1.415 . S
C679 H655 0.951 . S
C679 C680 1.366 . S
C679 C681 1.388 . S
C680 C679 1.366 . S
C680 C684 1.385 . S
C681 H656 0.951 . S
C681 C679 1.388 . S
C681 C682 1.366 . S
C682 C681 1.366 . S
C682 C683 1.414 . S
C682 C685 1.499 . S
C683 H657 0.950 . S
C683 C682 1.414 . S
C683 C684 1.374 . S
C684 H658 0.950 . S
C684 C680 1.385 . S
C684 C683 1.374 . S
C685 C682 1.499 . S
C685 C686 1.373 1_545 S
C685 C687 1.389 . S
C686 H659 0.950 . S
C686 C672 1.377 . S
C686 C685 1.373 1_565 S
C687 C671 1.377 . S
C687 C685 1.389 . S
C687 C688 1.524 . S
C688 C687 1.524 . S
C688 C689 1.397 . S
C688 C693 1.363 . S
C689 H660 0.950 . S
C689 C688 1.397 . S
C689 C690 1.334 . S
C690 H661 0.950 . S
C690 C689 1.334 . S
C690 C691 1.287 . S
C691 C690 1.287 . S
C691 C692 1.524 . S
C691 H694 0.999 . S
C692 H662 0.950 . S
C692 C691 1.524 . S
C692 C693 1.415 . S
C693 H663 0.950 . S
C693 C688 1.363 . S
C693 C692 1.415 . S
H694 C691 0.999 . S
H695 C676 0.913 . S
H696 C714 0.951 . S
H697 C716 0.951 . S
H698 C718 0.950 . S
H699 C719 0.950 . S
H700 C721 0.950 . S
H701 C724 0.950 . S
H702 C725 0.950 . S
H703 C727 0.950 . S
H704 C728 0.950 . S
H705 C729 0.951 . S
H706 C731 0.951 . S
H707 C733 0.950 . S
H708 C734 0.950 . S
H709 C736 0.950 . S
H710 C739 0.950 . S
H711 C740 0.950 . S
H712 C742 0.950 . S
H713 C743 0.950 . S
C714 H696 0.951 . S
C714 C715 1.366 . S
C714 C716 1.388 . S
C715 C714 1.366 . S
C715 C719 1.385 . S
C716 H697 0.951 . S
C716 C714 1.388 . S
C716 C717 1.366 . S
C717 C716 1.366 . S
C717 C718 1.414 . S
C717 C720 1.499 . S
C718 H698 0.950 . S
C718 C717 1.414 . S
C718 C719 1.374 . S
C719 H699 0.950 . S
C719 C715 1.385 . S
C719 C718 1.374 . S
C720 C717 1.499 . S
C720 C721 1.373 . S
C720 C722 1.389 . S
C721 H700 0.950 . S
C721 C720 1.373 . S
C721 C737 1.377 . S
C722 C720 1.389 . S
C722 C723 1.524 . S
C722 C736 1.377 . S
C723 C722 1.524 . S
C723 C724 1.397 . S
C723 C728 1.363 . S
C724 H701 0.950 . S
C724 C723 1.397 . S
C724 C725 1.334 . S
C725 H702 0.950 . S
C725 C724 1.334 . S
C725 C726 1.287 . S
C726 C725 1.287 . S
C726 C727 1.524 . S
C726 H745 0.913 . S
C727 H703 0.950 . S
C727 C726 1.524 . S
C727 C728 1.415 . S
C728 H704 0.950 . S
C728 C723 1.363 . S
C728 C727 1.415 . S
C729 H705 0.951 . S
C729 C730 1.366 . S
C729 C731 1.388 . S
C730 C729 1.366 . S
C730 C734 1.385 . S
C731 H706 0.951 . S
C731 C729 1.388 . S
C731 C732 1.366 . S
C732 C731 1.366 . S
C732 C733 1.414 . S
C732 C735 1.499 . S
C733 H707 0.950 . S
C733 C732 1.414 . S
C733 C734 1.374 . S
C734 H708 0.950 . S
C734 C730 1.385 . S
C734 C733 1.374 . S
C735 C732 1.499 . S
C735 C736 1.373 . S
C735 C737 1.389 . S
C736 H709 0.950 . S
C736 C722 1.377 . S
C736 C735 1.373 . S
C737 C721 1.377 . S
C737 C735 1.389 . S
C737 C738 1.524 . S
C738 C737 1.524 . S
C738 C739 1.397 . S
C738 C743 1.363 . S
C739 H710 0.950 . S
C739 C738 1.397 . S
C739 C740 1.334 . S
C740 H711 0.950 . S
C740 C739 1.334 . S
C740 C741 1.287 . S
C741 C740 1.287 . S
C741 C742 1.524 . S
C741 H744 0.999 . S
C742 H712 0.950 . S
C742 C741 1.524 . S
C742 C743 1.415 . S
C743 H713 0.950 . S
C743 C738 1.363 . S
C743 C742 1.415 . S
H744 C741 0.999 . S
H745 C726 0.913 . S
H746 C764 0.951 . S
H747 C766 0.951 . S
H748 C768 0.950 . S
H749 C769 0.950 . S
H750 C771 0.950 . S
H751 C774 0.950 . S
H752 C775 0.950 . S
H753 C777 0.950 . S
H754 C778 0.950 . S
H755 C779 0.951 . S
H756 C781 0.951 . S
H757 C783 0.950 . S
H758 C784 0.950 . S
H759 C786 0.950 . S
H760 C789 0.950 . S
H761 C790 0.950 . S
H762 C792 0.950 . S
H763 C793 0.950 . S
C764 H746 0.951 . S
C764 C765 1.366 . S
C764 C766 1.388 . S
C765 C764 1.366 . S
C765 C769 1.385 . S
C766 H747 0.951 . S
C766 C764 1.388 . S
C766 C767 1.366 . S
C767 C766 1.366 . S
C767 C768 1.414 . S
C767 C770 1.499 . S
C768 H748 0.950 . S
C768 C767 1.414 . S
C768 C769 1.374 . S
C769 H749 0.950 . S
C769 C765 1.385 . S
C769 C768 1.374 . S
C770 C767 1.499 . S
C770 C771 1.373 . S
C770 C772 1.389 . S
C771 H750 0.950 . S
C771 C770 1.373 . S
C771 C787 1.377 . S
C772 C770 1.389 . S
C772 C773 1.524 . S
C772 C786 1.377 . S
C773 C772 1.524 . S
C773 C774 1.397 . S
C773 C778 1.363 . S
C774 H751 0.950 . S
C774 C773 1.397 . S
C774 C775 1.334 . S
C775 H752 0.950 . S
C775 C774 1.334 . S
C775 C776 1.287 . S
C776 C775 1.287 . S
C776 C777 1.524 . S
C776 H795 0.913 . S
C777 H753 0.950 . S
C777 C776 1.524 . S
C777 C778 1.415 . S
C778 H754 0.950 . S
C778 C773 1.363 . S
C778 C777 1.415 . S
C779 H755 0.951 . S
C779 C780 1.366 . S
C779 C781 1.388 . S
C780 C779 1.366 . S
C780 C784 1.385 . S
C781 H756 0.951 . S
C781 C779 1.388 . S
C781 C782 1.366 . S
C782 C781 1.366 . S
C782 C783 1.414 . S
C782 C785 1.499 . S
C783 H757 0.950 . S
C783 C782 1.414 . S
C783 C784 1.374 . S
C784 H758 0.950 . S
C784 C780 1.385 . S
C784 C783 1.374 . S
C785 C782 1.499 . S
C785 C786 1.373 . S
C785 C787 1.389 . S
C786 H759 0.950 . S
C786 C772 1.377 . S
C786 C785 1.373 . S
C787 C771 1.377 . S
C787 C785 1.389 . S
C787 C788 1.524 . S
C788 C787 1.524 . S
C788 C789 1.397 . S
C788 C793 1.363 . S
C789 H760 0.950 . S
C789 C788 1.397 . S
C789 C790 1.334 . S
C790 H761 0.950 . S
C790 C789 1.334 . S
C790 C791 1.287 . S
C791 C790 1.287 . S
C791 C792 1.524 . S
C791 H794 0.999 . S
C792 H762 0.950 . S
C792 C791 1.524 . S
C792 C793 1.415 . S
C793 H763 0.950 . S
C793 C788 1.363 . S
C793 C792 1.415 . S
H794 C791 0.999 . S
H795 C776 0.913 . S
H796 C814 0.951 . S
H797 C816 0.951 . S
H798 C818 0.950 . S
H799 C819 0.950 . S
H800 C821 0.950 . S
H801 C824 0.950 . S
H802 C825 0.950 . S
H803 C827 0.950 . S
H804 C828 0.950 . S
H805 C829 0.951 . S
H806 C831 0.951 . S
H807 C833 0.950 . S
H808 C834 0.950 . S
H809 C836 0.950 . S
H810 C839 0.950 . S
H811 C840 0.950 . S
H812 C842 0.950 . S
H813 C843 0.950 . S
C814 H796 0.951 . S
C814 C815 1.366 . S
C814 C816 1.388 . S
C815 C814 1.366 . S
C815 C819 1.385 . S
C816 H797 0.951 . S
C816 C814 1.388 . S
C816 C817 1.366 . S
C817 C816 1.366 . S
C817 C818 1.414 . S
C817 C820 1.499 . S
C818 H798 0.950 . S
C818 C817 1.414 . S
C818 C819 1.374 . S
C819 H799 0.950 . S
C819 C815 1.385 . S
C819 C818 1.374 . S
C820 C817 1.499 . S
C820 C821 1.373 . S
C820 C822 1.389 . S
C821 H800 0.950 . S
C821 C820 1.373 . S
C821 C837 1.377 . S
C822 C820 1.389 . S
C822 C823 1.524 . S
C822 C836 1.377 . S
C823 C822 1.524 . S
C823 C824 1.397 . S
C823 C828 1.363 . S
C824 H801 0.950 . S
C824 C823 1.397 . S
C824 C825 1.334 . S
C825 H802 0.950 . S
C825 C824 1.334 . S
C825 C826 1.287 . S
C826 C825 1.287 . S
C826 C827 1.524 . S
C826 H845 0.913 . S
C827 H803 0.950 . S
C827 C826 1.524 . S
C827 C828 1.415 . S
C828 H804 0.950 . S
C828 C823 1.363 . S
C828 C827 1.415 . S
C829 H805 0.951 . S
C829 C830 1.366 . S
C829 C831 1.388 . S
C830 C829 1.366 . S
C830 C834 1.385 . S
C831 H806 0.951 . S
C831 C829 1.388 . S
C831 C832 1.366 . S
C832 C831 1.366 . S
C832 C833 1.414 . S
C832 C835 1.499 . S
C833 H807 0.950 . S
C833 C832 1.414 . S
C833 C834 1.374 . S
C834 H808 0.950 . S
C834 C830 1.385 . S
C834 C833 1.374 . S
C835 C832 1.499 . S
C835 C836 1.373 . S
C835 C837 1.389 . S
C836 H809 0.950 . S
C836 C822 1.377 . S
C836 C835 1.373 . S
C837 C821 1.377 . S
C837 C835 1.389 . S
C837 C838 1.524 . S
C838 C837 1.524 . S
C838 C839 1.397 . S
C838 C843 1.363 . S
C839 H810 0.950 . S
C839 C838 1.397 . S
C839 C840 1.334 . S
C840 H811 0.950 . S
C840 C839 1.334 . S
C840 C841 1.287 . S
C841 C840 1.287 . S
C841 C842 1.524 . S
C841 H844 0.999 . S
C842 H812 0.950 . S
C842 C841 1.524 . S
C842 C843 1.415 . S
C843 H813 0.950 . S
C843 C838 1.363 . S
C843 C842 1.415 . S
H844 C841 0.999 . S
H845 C826 0.913 . S
H846 C864 0.951 . S
H847 C866 0.951 . S
H848 C868 0.950 . S
H849 C869 0.950 . S
H850 C871 0.950 . S
H851 C874 0.950 . S
H852 C875 0.950 . S
H853 C877 0.950 . S
H854 C878 0.950 . S
H855 C879 0.951 . S
H856 C881 0.951 . S
H857 C883 0.950 . S
H858 C884 0.950 . S
H859 C886 0.950 . S
H860 C889 0.950 . S
H861 C890 0.950 . S
H862 C892 0.950 . S
H863 C893 0.950 . S
C864 H846 0.951 . S
C864 C865 1.366 . S
C864 C866 1.388 . S
C865 C864 1.366 . S
C865 C869 1.385 . S
C866 H847 0.951 . S
C866 C864 1.388 . S
C866 C867 1.366 . S
C867 C866 1.366 . S
C867 C868 1.414 . S
C867 C870 1.499 . S
C868 H848 0.950 . S
C868 C867 1.414 . S
C868 C869 1.374 . S
C869 H849 0.950 . S
C869 C865 1.385 . S
C869 C868 1.374 . S
C870 C867 1.499 . S
C870 C871 1.373 . S
C870 C872 1.389 . S
C871 H850 0.950 . S
C871 C870 1.373 . S
C871 C887 1.377 . S
C872 C870 1.389 . S
C872 C873 1.524 . S
C872 C886 1.377 . S
C873 C872 1.524 . S
C873 C874 1.397 . S
C873 C878 1.363 . S
C874 H851 0.950 . S
C874 C873 1.397 . S
C874 C875 1.334 . S
C875 H852 0.950 . S
C875 C874 1.334 . S
C875 C876 1.287 . S
C876 C875 1.287 . S
C876 C877 1.524 . S
C876 H895 0.913 . S
C877 H853 0.950 . S
C877 C876 1.524 . S
C877 C878 1.415 . S
C878 H854 0.950 . S
C878 C873 1.363 . S
C878 C877 1.415 . S
C879 H855 0.951 . S
C879 C880 1.366 . S
C879 C881 1.388 . S
C880 C879 1.366 . S
C880 C884 1.385 . S
C881 H856 0.951 . S
C881 C879 1.388 . S
C881 C882 1.366 . S
C882 C881 1.366 . S
C882 C883 1.414 . S
C882 C885 1.499 . S
C883 H857 0.950 . S
C883 C882 1.414 . S
C883 C884 1.374 . S
C884 H858 0.950 . S
C884 C880 1.385 . S
C884 C883 1.374 . S
C885 C882 1.499 . S
C885 C886 1.373 . S
C885 C887 1.389 . S
C886 H859 0.950 . S
C886 C872 1.377 . S
C886 C885 1.373 . S
C887 C871 1.377 . S
C887 C885 1.389 . S
C887 C888 1.524 . S
C888 C887 1.524 . S
C888 C889 1.397 . S
C888 C893 1.363 . S
C889 H860 0.950 . S
C889 C888 1.397 . S
C889 C890 1.334 . S
C890 H861 0.950 . S
C890 C889 1.334 . S
C890 C891 1.287 . S
C891 C890 1.287 . S
C891 C892 1.524 . S
C891 H894 0.999 . S
C892 H862 0.950 . S
C892 C891 1.524 . S
C892 C893 1.415 . S
C893 H863 0.950 . S
C893 C888 1.363 . S
C893 C892 1.415 . S
H894 C891 0.999 . S
H895 C876 0.913 . S
H896 C914 0.951 . S
H897 C916 0.951 . S
H898 C918 0.950 . S
H899 C919 0.950 . S
H900 C921 0.950 . S
H901 C924 0.950 . S
H902 C925 0.950 . S
H903 C927 0.950 . S
H904 C928 0.950 . S
H905 C929 0.951 . S
H906 C931 0.951 . S
H907 C933 0.950 . S
H908 C934 0.950 . S
H909 C936 0.950 . S
H910 C939 0.950 . S
H911 C940 0.950 . S
H912 C942 0.950 . S
H913 C943 0.950 . S
C914 H896 0.951 . S
C914 C915 1.366 . S
C914 C916 1.388 . S
C915 C914 1.366 . S
C915 C919 1.385 . S
C916 H897 0.951 . S
C916 C914 1.388 . S
C916 C917 1.366 . S
C917 C916 1.366 . S
C917 C918 1.414 . S
C917 C920 1.499 . S
C918 H898 0.950 . S
C918 C917 1.414 . S
C918 C919 1.374 . S
C919 H899 0.950 . S
C919 C915 1.385 . S
C919 C918 1.374 . S
C920 C917 1.499 . S
C920 C921 1.373 . S
C920 C922 1.389 . S
C921 H900 0.950 . S
C921 C920 1.373 . S
C921 C937 1.377 . S
C922 C920 1.389 . S
C922 C923 1.524 . S
C922 C936 1.377 . S
C923 C922 1.524 . S
C923 C924 1.397 . S
C923 C928 1.363 . S
C924 H901 0.950 . S
C924 C923 1.397 . S
C924 C925 1.334 . S
C925 H902 0.950 . S
C925 C924 1.334 . S
C925 C926 1.287 . S
C926 C925 1.287 . S
C926 C927 1.524 . S
C926 H945 0.913 . S
C927 H903 0.950 . S
C927 C926 1.524 . S
C927 C928 1.415 . S
C928 H904 0.950 . S
C928 C923 1.363 . S
C928 C927 1.415 . S
C929 H905 0.951 . S
C929 C930 1.366 . S
C929 C931 1.388 . S
C930 C929 1.366 . S
C930 C934 1.385 . S
C931 H906 0.951 . S
C931 C929 1.388 . S
C931 C932 1.366 . S
C932 C931 1.366 . S
C932 C933 1.414 . S
C932 C935 1.499 . S
C933 H907 0.950 . S
C933 C932 1.414 . S
C933 C934 1.374 . S
C934 H908 0.950 . S
C934 C930 1.385 . S
C934 C933 1.374 . S
C935 C932 1.499 . S
C935 C936 1.373 . S
C935 C937 1.389 . S
C936 H909 0.950 . S
C936 C922 1.377 . S
C936 C935 1.373 . S
C937 C921 1.377 . S
C937 C935 1.389 . S
C937 C938 1.524 . S
C938 C937 1.524 . S
C938 C939 1.397 . S
C938 C943 1.363 . S
C939 H910 0.950 . S
C939 C938 1.397 . S
C939 C940 1.334 . S
C940 H911 0.950 . S
C940 C939 1.334 . S
C940 C941 1.287 . S
C941 C940 1.287 . S
C941 C942 1.524 . S
C941 H944 0.999 . S
C942 H912 0.950 . S
C942 C941 1.524 . S
C942 C943 1.415 . S
C943 H913 0.950 . S
C943 C938 1.363 . S
C943 C942 1.415 . S
H944 C941 0.999 . S
H945 C926 0.913 . S
H946 C964 0.951 . S
H947 C966 0.951 . S
H948 C968 0.950 . S
H949 C969 0.950 . S
H950 C971 0.950 . S
H951 C974 0.950 . S
H952 C975 0.950 . S
H953 C977 0.950 . S
H954 C978 0.950 . S
H955 C979 0.951 . S
H956 C981 0.951 . S
H957 C983 0.950 . S
H958 C984 0.950 . S
H959 C986 0.950 . S
H960 C989 0.950 . S
H961 C990 0.950 . S
H962 C992 0.950 . S
H963 C993 0.950 . S
C964 H946 0.951 . S
C964 C965 1.366 . S
C964 C966 1.388 . S
C965 C964 1.366 . S
C965 C969 1.385 . S
C966 H947 0.951 . S
C966 C964 1.388 . S
C966 C967 1.366 . S
C967 C966 1.366 . S
C967 C968 1.414 . S
C967 C970 1.499 . S
C968 H948 0.950 . S
C968 C967 1.414 . S
C968 C969 1.374 . S
C969 H949 0.950 . S
C969 C965 1.385 . S
C969 C968 1.374 . S
C970 C967 1.499 . S
C970 C971 1.373 . S
C970 C972 1.389 . S
C971 H950 0.950 . S
C971 C970 1.373 . S
C971 C987 1.377 . S
C972 C970 1.389 . S
C972 C973 1.524 . S
C972 C986 1.377 . S
C973 C972 1.524 . S
C973 C974 1.397 . S
C973 C978 1.363 . S
C974 H951 0.950 . S
C974 C973 1.397 . S
C974 C975 1.334 . S
C975 H952 0.950 . S
C975 C974 1.334 . S
C975 C976 1.287 . S
C976 C975 1.287 . S
C976 C977 1.524 . S
C976 H995 0.913 . S
C977 H953 0.950 . S
C977 C976 1.524 . S
C977 C978 1.415 . S
C978 H954 0.950 . S
C978 C973 1.363 . S
C978 C977 1.415 . S
C979 H955 0.951 . S
C979 C980 1.366 . S
C979 C981 1.388 . S
C980 C979 1.366 . S
C980 C984 1.385 . S
C981 H956 0.951 . S
C981 C979 1.388 . S
C981 C982 1.366 . S
C982 C981 1.366 . S
C982 C983 1.414 . S
C982 C985 1.499 . S
C983 H957 0.950 . S
C983 C982 1.414 . S
C983 C984 1.374 . S
C984 H958 0.950 . S
C984 C980 1.385 . S
C984 C983 1.374 . S
C985 C982 1.499 . S
C985 C986 1.373 . S
C985 C987 1.389 . S
C986 H959 0.950 . S
C986 C972 1.377 . S
C986 C985 1.373 . S
C987 C971 1.377 . S
C987 C985 1.389 . S
C987 C988 1.524 . S
C988 C987 1.524 . S
C988 C989 1.397 . S
C988 C993 1.363 . S
C989 H960 0.950 . S
C989 C988 1.397 . S
C989 C990 1.334 . S
C990 H961 0.950 . S
C990 C989 1.334 . S
C990 C991 1.287 . S
C991 C990 1.287 . S
C991 C992 1.524 . S
C991 H994 0.999 . S
C992 H962 0.950 . S
C992 C991 1.524 . S
C992 C993 1.415 . S
C993 H963 0.950 . S
C993 C988 1.363 . S
C993 C992 1.415 . S
H994 C991 0.999 . S
H995 C976 0.913 . S
H996 C1014 0.951 . S
H997 C1016 0.951 . S
H998 C1018 0.950 . S
H999 C1019 0.950 . S
H1000 C1021 0.950 . S
H1001 C1024 0.950 . S
H1002 C1025 0.950 . S
H1003 C1027 0.950 . S
H1004 C1028 0.950 . S
H1005 C1029 0.951 . S
H1006 C1031 0.951 . S
H1007 C1033 0.950 . S
H1008 C1034 0.950 . S
H1009 C1036 0.950 . S
H1010 C1039 0.950 . S
H1011 C1040 0.950 . S
H1012 C1042 0.950 . S
H1013 C1043 0.950 . S
C1014 H996 0.951 . S
C1014 C1015 1.366 . S
C1014 C1016 1.388 . S
C1015 C1014 1.366 . S
C1015 C1019 1.385 . S
C1016 H997 0.951 . S
C1016 C1014 1.388 . S
C1016 C1017 1.366 . S
C1017 C1016 1.366 . S
C1017 C1018 1.414 . S
C1017 C1020 1.499 . S
C1018 H998 0.950 . S
C1018 C1017 1.414 . S
C1018 C1019 1.374 . S
C1019 H999 0.950 . S
C1019 C1015 1.385 . S
C1019 C1018 1.374 . S
C1020 C1017 1.499 . S
C1020 C1021 1.373 . S
C1020 C1022 1.389 . S
C1021 H1000 0.950 . S
C1021 C1020 1.373 . S
C1021 C1037 1.377 . S
C1022 C1020 1.389 . S
C1022 C1023 1.524 . S
C1022 C1036 1.377 . S
C1023 C1022 1.524 . S
C1023 C1024 1.397 . S
C1023 C1028 1.363 . S
C1024 H1001 0.950 . S
C1024 C1023 1.397 . S
C1024 C1025 1.334 . S
C1025 H1002 0.950 . S
C1025 C1024 1.334 . S
C1025 C1026 1.287 . S
C1026 C1025 1.287 . S
C1026 C1027 1.524 . S
C1026 H1045 0.913 . S
C1027 H1003 0.950 . S
C1027 C1026 1.524 . S
C1027 C1028 1.415 . S
C1028 H1004 0.950 . S
C1028 C1023 1.363 . S
C1028 C1027 1.415 . S
C1029 H1005 0.951 . S
C1029 C1030 1.366 . S
C1029 C1031 1.388 . S
C1030 C1029 1.366 . S
C1030 C1034 1.385 . S
C1031 H1006 0.951 . S
C1031 C1029 1.388 . S
C1031 C1032 1.366 . S
C1032 C1031 1.366 . S
C1032 C1033 1.414 . S
C1032 C1035 1.499 . S
C1033 H1007 0.950 . S
C1033 C1032 1.414 . S
C1033 C1034 1.374 . S
C1034 H1008 0.950 . S
C1034 C1030 1.385 . S
C1034 C1033 1.374 . S
C1035 C1032 1.499 . S
C1035 C1036 1.373 . S
C1035 C1037 1.389 . S
C1036 H1009 0.950 . S
C1036 C1022 1.377 . S
C1036 C1035 1.373 . S
C1037 C1021 1.377 . S
C1037 C1035 1.389 . S
C1037 C1038 1.524 . S
C1038 C1037 1.524 . S
C1038 C1039 1.397 . S
C1038 C1043 1.363 . S
C1039 H1010 0.950 . S
C1039 C1038 1.397 . S
C1039 C1040 1.334 . S
C1040 H1011 0.950 . S
C1040 C1039 1.334 . S
C1040 C1041 1.287 . S
C1041 C1040 1.287 . S
C1041 C1042 1.524 . S
C1041 H1044 0.999 . S
C1042 H1012 0.950 . S
C1042 C1041 1.524 . S
C1042 C1043 1.415 . S
C1043 H1013 0.950 . S
C1043 C1038 1.363 . S
C1043 C1042 1.415 . S
H1044 C1041 0.999 . S
H1045 C1026 0.913 . S
H1046 C1064 0.951 . S
H1047 C1066 0.951 . S
H1048 C1068 0.950 . S
H1049 C1069 0.950 . S
H1050 C1071 0.950 . S
H1051 C1074 0.950 . S
H1052 C1075 0.950 . S
H1053 C1077 0.950 . S
H1054 C1078 0.950 . S
H1055 C1079 0.951 . S
H1056 C1081 0.951 . S
H1057 C1083 0.950 . S
H1058 C1084 0.950 . S
H1059 C1086 0.950 . S
H1060 C1089 0.950 . S
H1061 C1090 0.950 . S
H1062 C1092 0.950 . S
H1063 C1093 0.950 . S
C1064 H1046 0.951 . S
C1064 C1065 1.366 . S
C1064 C1066 1.388 . S
C1065 C1064 1.366 . S
C1065 C1069 1.385 . S
C1066 H1047 0.951 . S
C1066 C1064 1.388 . S
C1066 C1067 1.366 . S
C1067 C1066 1.366 . S
C1067 C1068 1.414 . S
C1067 C1070 1.499 . S
C1068 H1048 0.950 . S
C1068 C1067 1.414 . S
C1068 C1069 1.374 . S
C1069 H1049 0.950 . S
C1069 C1065 1.385 . S
C1069 C1068 1.374 . S
C1070 C1067 1.499 . S
C1070 C1071 1.373 . S
C1070 C1072 1.389 . S
C1071 H1050 0.950 . S
C1071 C1070 1.373 . S
C1071 C1087 1.377 . S
C1072 C1070 1.389 . S
C1072 C1073 1.524 . S
C1072 C1086 1.377 . S
C1073 C1072 1.524 . S
C1073 C1074 1.397 . S
C1073 C1078 1.363 . S
C1074 H1051 0.950 . S
C1074 C1073 1.397 . S
C1074 C1075 1.334 . S
C1075 H1052 0.950 . S
C1075 C1074 1.334 . S
C1075 C1076 1.287 . S
C1076 C1075 1.287 . S
C1076 C1077 1.524 . S
C1076 H1095 0.913 . S
C1077 H1053 0.950 . S
C1077 C1076 1.524 . S
C1077 C1078 1.415 . S
C1078 H1054 0.950 . S
C1078 C1073 1.363 . S
C1078 C1077 1.415 . S
C1079 H1055 0.951 . S
C1079 C1080 1.366 . S
C1079 C1081 1.388 . S
C1080 C1079 1.366 . S
C1080 C1084 1.385 . S
C1081 H1056 0.951 . S
C1081 C1079 1.388 . S
C1081 C1082 1.366 . S
C1082 C1081 1.366 . S
C1082 C1083 1.414 . S
C1082 C1085 1.499 . S
C1083 H1057 0.950 . S
C1083 C1082 1.414 . S
C1083 C1084 1.374 . S
C1084 H1058 0.950 . S
C1084 C1080 1.385 . S
C1084 C1083 1.374 . S
C1085 C1082 1.499 . S
C1085 C1086 1.373 . S
C1085 C1087 1.389 . S
C1086 H1059 0.950 . S
C1086 C1072 1.377 . S
C1086 C1085 1.373 . S
C1087 C1071 1.377 . S
C1087 C1085 1.389 . S
C1087 C1088 1.524 . S
C1088 C1087 1.524 . S
C1088 C1089 1.397 . S
C1088 C1093 1.363 . S
C1089 H1060 0.950 . S
C1089 C1088 1.397 . S
C1089 C1090 1.334 . S
C1090 H1061 0.950 . S
C1090 C1089 1.334 . S
C1090 C1091 1.287 . S
C1091 C1090 1.287 . S
C1091 C1092 1.524 . S
C1091 H1094 0.999 . S
C1092 H1062 0.950 . S
C1092 C1091 1.524 . S
C1092 C1093 1.415 . S
C1093 H1063 0.950 . S
C1093 C1088 1.363 . S
C1093 C1092 1.415 . S
H1094 C1091 0.999 . S
H1095 C1076 0.913 . S
H1096 C1114 0.951 . S
H1097 C1116 0.951 . S
H1098 C1118 0.950 . S
H1099 C1119 0.950 . S
H1100 C1121 0.950 . S
H1101 C1124 0.950 . S
H1102 C1125 0.950 . S
H1103 C1127 0.950 . S
H1104 C1128 0.950 . S
H1105 C1129 0.951 . S
H1106 C1131 0.951 . S
H1107 C1133 0.950 . S
H1108 C1134 0.950 . S
H1109 C1136 0.950 . S
H1110 C1139 0.950 . S
H1111 C1140 0.950 . S
H1112 C1142 0.950 . S
H1113 C1143 0.950 . S
C1114 H1096 0.951 . S
C1114 C1115 1.366 . S
C1114 C1116 1.388 . S
C1115 C1114 1.366 . S
C1115 C1119 1.385 . S
C1116 H1097 0.951 . S
C1116 C1114 1.388 . S
C1116 C1117 1.366 . S
C1117 C1116 1.366 . S
C1117 C1118 1.414 . S
C1117 C1120 1.499 . S
C1118 H1098 0.950 . S
C1118 C1117 1.414 . S
C1118 C1119 1.374 . S
C1119 H1099 0.950 . S
C1119 C1115 1.385 . S
C1119 C1118 1.374 . S
C1120 C1117 1.499 . S
C1120 C1121 1.373 . S
C1120 C1122 1.389 . S
C1121 H1100 0.950 . S
C1121 C1120 1.373 . S
C1121 C1137 1.377 . S
C1122 C1120 1.389 . S
C1122 C1123 1.524 . S
C1122 C1136 1.377 . S
C1123 C1122 1.524 . S
C1123 C1124 1.397 . S
C1123 C1128 1.363 . S
C1124 H1101 0.950 . S
C1124 C1123 1.397 . S
C1124 C1125 1.334 . S
C1125 H1102 0.950 . S
C1125 C1124 1.334 . S
C1125 C1126 1.287 . S
C1126 C1125 1.287 . S
C1126 C1127 1.524 . S
C1126 H1145 0.913 . S
C1127 H1103 0.950 . S
C1127 C1126 1.524 . S
C1127 C1128 1.415 . S
C1128 H1104 0.950 . S
C1128 C1123 1.363 . S
C1128 C1127 1.415 . S
C1129 H1105 0.951 . S
C1129 C1130 1.366 . S
C1129 C1131 1.388 . S
C1130 C1129 1.366 . S
C1130 C1134 1.385 . S
C1131 H1106 0.951 . S
C1131 C1129 1.388 . S
C1131 C1132 1.366 . S
C1132 C1131 1.366 . S
C1132 C1133 1.414 . S
C1132 C1135 1.499 . S
C1133 H1107 0.950 . S
C1133 C1132 1.414 . S
C1133 C1134 1.374 . S
C1134 H1108 0.950 . S
C1134 C1130 1.385 . S
C1134 C1133 1.374 . S
C1135 C1132 1.499 . S
C1135 C1136 1.373 . S
C1135 C1137 1.389 . S
C1136 H1109 0.950 . S
C1136 C1122 1.377 . S
C1136 C1135 1.373 . S
C1137 C1121 1.377 . S
C1137 C1135 1.389 . S
C1137 C1138 1.524 . S
C1138 C1137 1.524 . S
C1138 C1139 1.397 . S
C1138 C1143 1.363 . S
C1139 H1110 0.950 . S
C1139 C1138 1.397 . S
C1139 C1140 1.334 . S
C1140 H1111 0.950 . S
C1140 C1139 1.334 . S
C1140 C1141 1.287 . S
C1141 C1140 1.287 . S
C1141 C1142 1.524 . S
C1141 H1144 0.999 . S
C1142 H1112 0.950 . S
C1142 C1141 1.524 . S
C1142 C1143 1.415 . S
C1143 H1113 0.950 . S
C1143 C1138 1.363 . S
C1143 C1142 1.415 . S
H1144 C1141 0.999 . S
H1145 C1126 0.913 . S
H1146 C1164 0.951 . S
H1147 C1166 0.951 . S
H1148 C1168 0.950 . S
H1149 C1169 0.950 . S
H1150 C1171 0.950 . S
H1151 C1174 0.950 . S
H1152 C1175 0.950 . S
H1153 C1177 0.950 . S
H1154 C1178 0.950 . S
H1155 C1179 0.951 . S
H1156 C1181 0.951 . S
H1157 C1183 0.950 . S
H1158 C1184 0.950 . S
H1159 C1186 0.950 . S
H1160 C1189 0.950 . S
H1161 C1190 0.950 . S
H1162 C1192 0.950 . S
H1163 C1193 0.950 . S
C1164 H1146 0.951 . S
C1164 C1165 1.366 . S
C1164 C1166 1.388 . S
C1165 C1164 1.366 . S
C1165 C1169 1.385 . S
C1166 H1147 0.951 . S
C1166 C1164 1.388 . S
C1166 C1167 1.366 . S
C1167 C1166 1.366 . S
C1167 C1168 1.414 . S
C1167 C1170 1.499 . S
C1168 H1148 0.950 . S
C1168 C1167 1.414 . S
C1168 C1169 1.374 . S
C1169 H1149 0.950 . S
C1169 C1165 1.385 . S
C1169 C1168 1.374 . S
C1170 C1167 1.499 . S
C1170 C1171 1.373 . S
C1170 C1172 1.389 . S
C1171 H1150 0.950 . S
C1171 C1170 1.373 . S
C1171 C1187 1.377 . S
C1172 C1170 1.389 . S
C1172 C1173 1.524 . S
C1172 C1186 1.377 . S
C1173 C1172 1.524 . S
C1173 C1174 1.397 . S
C1173 C1178 1.363 . S
C1174 H1151 0.950 . S
C1174 C1173 1.397 . S
C1174 C1175 1.334 . S
C1175 H1152 0.950 . S
C1175 C1174 1.334 . S
C1175 C1176 1.287 . S
C1176 C1175 1.287 . S
C1176 C1177 1.524 . S
C1176 H1195 0.913 . S
C1177 H1153 0.950 . S
C1177 C1176 1.524 . S
C1177 C1178 1.415 . S
C1178 H1154 0.950 . S
C1178 C1173 1.363 . S
C1178 C1177 1.415 . S
C1179 H1155 0.951 . S
C1179 C1180 1.366 . S
C1179 C1181 1.388 . S
C1180 C1179 1.366 . S
C1180 C1184 1.385 . S
C1181 H1156 0.951 . S
C1181 C1179 1.388 . S
C1181 C1182 1.366 . S
C1182 C1181 1.366 . S
C1182 C1183 1.414 . S
C1182 C1185 1.499 . S
C1183 H1157 0.950 . S
C1183 C1182 1.414 . S
C1183 C1184 1.374 . S
C1184 H1158 0.950 . S
C1184 C1180 1.385 . S
C1184 C1183 1.374 . S
C1185 C1182 1.499 . S
C1185 C1186 1.373 . S
C1185 C1187 1.389 . S
C1186 H1159 0.950 . S
C1186 C1172 1.377 . S
C1186 C1185 1.373 . S
C1187 C1171 1.377 . S
C1187 C1185 1.389 . S
C1187 C1188 1.524 . S
C1188 C1187 1.524 . S
C1188 C1189 1.397 . S
C1188 C1193 1.363 . S
C1189 H1160 0.950 . S
C1189 C1188 1.397 . S
C1189 C1190 1.334 . S
C1190 H1161 0.950 . S
C1190 C1189 1.334 . S
C1190 C1191 1.287 . S
C1191 C1190 1.287 . S
C1191 C1192 1.524 . S
C1191 H1194 0.999 . S
C1192 H1162 0.950 . S
C1192 C1191 1.524 . S
C1192 C1193 1.415 . S
C1193 H1163 0.950 . S
C1193 C1188 1.363 . S
C1193 C1192 1.415 . S
H1194 C1191 0.999 . S
H1195 C1176 0.913 . S
H1196 C1214 0.951 . S
H1197 C1216 0.951 . S
H1198 C1218 0.950 . S
H1199 C1219 0.950 . S
H1200 C1221 0.950 . S
H1201 C1224 0.950 . S
H1202 C1225 0.950 . S
H1203 C1227 0.950 . S
H1204 C1228 0.950 . S
H1205 C1229 0.951 . S
H1206 C1231 0.951 . S
H1207 C1233 0.950 . S
H1208 C1234 0.950 . S
H1209 C1236 0.950 . S
H1210 C1239 0.950 . S
H1211 C1240 0.950 . S
H1212 C1242 0.950 . S
H1213 C1243 0.950 . S
C1214 H1196 0.951 . S
C1214 C1215 1.366 . S
C1214 C1216 1.388 . S
C1215 C1214 1.366 . S
C1215 C1219 1.385 . S
C1216 H1197 0.951 . S
C1216 C1214 1.388 . S
C1216 C1217 1.366 . S
C1217 C1216 1.366 . S
C1217 C1218 1.414 . S
C1217 C1220 1.499 . S
C1218 H1198 0.950 . S
C1218 C1217 1.414 . S
C1218 C1219 1.374 . S
C1219 H1199 0.950 . S
C1219 C1215 1.385 . S
C1219 C1218 1.374 . S
C1220 C1217 1.499 . S
C1220 C1221 1.373 . S
C1220 C1222 1.389 . S
C1221 H1200 0.950 . S
C1221 C1220 1.373 . S
C1221 C1237 1.377 . S
C1222 C1220 1.389 . S
C1222 C1223 1.524 . S
C1222 C1236 1.377 . S
C1223 C1222 1.524 . S
C1223 C1224 1.397 . S
C1223 C1228 1.363 . S
C1224 H1201 0.950 . S
C1224 C1223 1.397 . S
C1224 C1225 1.334 . S
C1225 H1202 0.950 . S
C1225 C1224 1.334 . S
C1225 C1226 1.287 . S
C1226 C1225 1.287 . S
C1226 C1227 1.524 . S
C1226 H1245 0.913 . S
C1227 H1203 0.950 . S
C1227 C1226 1.524 . S
C1227 C1228 1.415 . S
C1228 H1204 0.950 . S
C1228 C1223 1.363 . S
C1228 C1227 1.415 . S
C1229 H1205 0.951 . S
C1229 C1230 1.366 . S
C1229 C1231 1.388 . S
C1230 C1229 1.366 . S
C1230 C1234 1.385 . S
C1231 H1206 0.951 . S
C1231 C1229 1.388 . S
C1231 C1232 1.366 . S
C1232 C1231 1.366 . S
C1232 C1233 1.414 . S
C1232 C1235 1.499 . S
C1233 H1207 0.950 . S
C1233 C1232 1.414 . S
C1233 C1234 1.374 . S
C1234 H1208 0.950 . S
C1234 C1230 1.385 . S
C1234 C1233 1.374 . S
C1235 C1232 1.499 . S
C1235 C1236 1.373 . S
C1235 C1237 1.389 . S
C1236 H1209 0.950 . S
C1236 C1222 1.377 . S
C1236 C1235 1.373 . S
C1237 C1221 1.377 . S
C1237 C1235 1.389 . S
C1237 C1238 1.524 . S
C1238 C1237 1.524 . S
C1238 C1239 1.397 . S
C1238 C1243 1.363 . S
C1239 H1210 0.950 . S
C1239 C1238 1.397 . S
C1239 C1240 1.334 . S
C1240 H1211 0.950 . S
C1240 C1239 1.334 . S
C1240 C1241 1.287 . S
C1241 C1240 1.287 . S
C1241 C1242 1.524 . S
C1241 H1244 0.999 . S
C1242 H1212 0.950 . S
C1242 C1241 1.524 . S
C1242 C1243 1.415 . S
C1243 H1213 0.950 . S
C1243 C1238 1.363 . S
C1243 C1242 1.415 . S
H1244 C1241 0.999 . S
H1245 C1226 0.913 . S
H1246 C1264 0.951 . S
H1247 C1266 0.951 . S
H1248 C1268 0.950 . S
H1249 C1269 0.950 . S
H1250 C1271 0.950 . S
H1251 C1274 0.950 . S
H1252 C1275 0.950 . S
H1253 C1277 0.950 . S
H1254 C1278 0.950 . S
H1255 C1279 0.951 . S
H1256 C1281 0.951 . S
H1257 C1283 0.950 . S
H1258 C1284 0.950 . S
H1259 C1286 0.950 . S
H1260 C1289 0.950 . S
H1261 C1290 0.950 . S
H1262 C1292 0.950 . S
H1263 C1293 0.950 . S
C1264 H1246 0.951 . S
C1264 C1265 1.366 . S
C1264 C1266 1.388 . S
C1265 C1264 1.366 . S
C1265 C1269 1.385 . S
C1266 H1247 0.951 . S
C1266 C1264 1.388 . S
C1266 C1267 1.366 . S
C1267 C1266 1.366 . S
C1267 C1268 1.414 . S
C1267 C1270 1.499 . S
C1268 H1248 0.950 . S
C1268 C1267 1.414 . S
C1268 C1269 1.374 . S
C1269 H1249 0.950 . S
C1269 C1265 1.385 . S
C1269 C1268 1.374 . S
C1270 C1267 1.499 . S
C1270 C1271 1.373 . S
C1270 C1272 1.389 . S
C1271 H1250 0.950 . S
C1271 C1270 1.373 . S
C1271 C1287 1.377 . S
C1272 C1270 1.389 . S
C1272 C1273 1.524 . S
C1272 C1286 1.377 . S
C1273 C1272 1.524 . S
C1273 C1274 1.397 . S
C1273 C1278 1.363 . S
C1274 H1251 0.950 . S
C1274 C1273 1.397 . S
C1274 C1275 1.334 . S
C1275 H1252 0.950 . S
C1275 C1274 1.334 . S
C1275 C1276 1.287 . S
C1276 C1275 1.287 . S
C1276 C1277 1.524 . S
C1276 H1295 0.913 . S
C1277 H1253 0.950 . S
C1277 C1276 1.524 . S
C1277 C1278 1.415 . S
C1278 H1254 0.950 . S
C1278 C1273 1.363 . S
C1278 C1277 1.415 . S
C1279 H1255 0.951 . S
C1279 C1280 1.366 . S
C1279 C1281 1.388 . S
C1280 C1279 1.366 . S
C1280 C1284 1.385 . S
C1281 H1256 0.951 . S
C1281 C1279 1.388 . S
C1281 C1282 1.366 . S
C1282 C1281 1.366 . S
C1282 C1283 1.414 . S
C1282 C1285 1.499 . S
C1283 H1257 0.950 . S
C1283 C1282 1.414 . S
C1283 C1284 1.374 . S
C1284 H1258 0.950 . S
C1284 C1280 1.385 . S
C1284 C1283 1.374 . S
C1285 C1282 1.499 . S
C1285 C1286 1.373 . S
C1285 C1287 1.389 . S
C1286 H1259 0.950 . S
C1286 C1272 1.377 . S
C1286 C1285 1.373 . S
C1287 C1271 1.377 . S
C1287 C1285 1.389 . S
C1287 C1288 1.524 . S
C1288 C1287 1.524 . S
C1288 C1289 1.397 . S
C1288 C1293 1.363 . S
C1289 H1260 0.950 . S
C1289 C1288 1.397 . S
C1289 C1290 1.334 . S
C1290 H1261 0.950 . S
C1290 C1289 1.334 . S
C1290 C1291 1.287 . S
C1291 C1290 1.287 . S
C1291 C1292 1.524 . S
C1291 H1294 0.999 . S
C1292 H1262 0.950 . S
C1292 C1291 1.524 . S
C1292 C1293 1.415 . S
C1293 H1263 0.950 . S
C1293 C1288 1.363 . S
C1293 C1292 1.415 . S
H1294 C1291 0.999 . S
H1295 C1276 0.913 . S
H1296 C1314 0.951 . S
H1297 C1316 0.951 . S
H1298 C1318 0.950 . S
H1299 C1319 0.950 . S
H1300 C1321 0.950 . S
H1301 C1324 0.950 . S
H1302 C1325 0.950 . S
H1303 C1327 0.950 . S
H1304 C1328 0.950 . S
H1305 C1329 0.951 . S
H1306 C1331 0.951 . S
H1307 C1333 0.950 . S
H1308 C1334 0.950 . S
H1309 C1336 0.950 . S
H1310 C1339 0.950 . S
H1311 C1340 0.950 . S
H1312 C1342 0.950 . S
H1313 C1343 0.950 . S
C1314 H1296 0.951 . S
C1314 C1315 1.366 . S
C1314 C1316 1.388 . S
C1315 C1314 1.366 . S
C1315 C1319 1.385 . S
C1316 H1297 0.951 . S
C1316 C1314 1.388 . S
C1316 C1317 1.366 . S
C1317 C1316 1.366 . S
C1317 C1318 1.414 . S
C1317 C1320 1.499 . S
C1318 H1298 0.950 . S
C1318 C1317 1.414 . S
C1318 C1319 1.374 . S
C1319 H1299 0.950 . S
C1319 C1315 1.385 . S
C1319 C1318 1.374 . S
C1320 C1317 1.499 . S
C1320 C1321 1.373 . S
C1320 C1322 1.389 . S
C1321 H1300 0.950 . S
C1321 C1320 1.373 . S
C1321 C1337 1.377 . S
C1322 C1320 1.389 . S
C1322 C1323 1.524 . S
C1322 C1336 1.377 . S
C1323 C1322 1.524 . S
C1323 C1324 1.397 . S
C1323 C1328 1.363 . S
C1324 H1301 0.950 . S
C1324 C1323 1.397 . S
C1324 C1325 1.334 . S
C1325 H1302 0.950 . S
C1325 C1324 1.334 . S
C1325 C1326 1.287 . S
C1326 C1325 1.287 . S
C1326 C1327 1.524 . S
C1326 H1345 0.913 . S
C1327 H1303 0.950 . S
C1327 C1326 1.524 . S
C1327 C1328 1.415 . S
C1328 H1304 0.950 . S
C1328 C1323 1.363 . S
C1328 C1327 1.415 . S
C1329 H1305 0.951 . S
C1329 C1330 1.366 . S
C1329 C1331 1.388 . S
C1330 C1329 1.366 . S
C1330 C1334 1.385 . S
C1331 H1306 0.951 . S
C1331 C1329 1.388 . S
C1331 C1332 1.366 . S
C1332 C1331 1.366 . S
C1332 C1333 1.414 . S
C1332 C1335 1.499 . S
C1333 H1307 0.950 . S
C1333 C1332 1.414 . S
C1333 C1334 1.374 . S
C1334 H1308 0.950 . S
C1334 C1330 1.385 . S
C1334 C1333 1.374 . S
C1335 C1332 1.499 . S
C1335 C1336 1.373 . S
C1335 C1337 1.389 . S
C1336 H1309 0.950 . S
C1336 C1322 1.377 . S
C1336 C1335 1.373 . S
C1337 C1321 1.377 . S
C1337 C1335 1.389 . S
C1337 C1338 1.524 . S
C1338 C1337 1.524 . S
C1338 C1339 1.397 . S
C1338 C1343 1.363 . S
C1339 H1310 0.950 . S
C1339 C1338 1.397 . S
C1339 C1340 1.334 . S
C1340 H1311 0.950 . S
C1340 C1339 1.334 . S
C1340 C1341 1.287 . S
C1341 C1340 1.287 . S
C1341 C1342 1.524 . S
C1341 H1344 0.999 . S
C1342 H1312 0.950 . S
C1342 C1341 1.524 . S
C1342 C1343 1.415 . S
C1343 H1313 0.950 . S
C1343 C1338 1.363 . S
C1343 C1342 1.415 . S
H1344 C1341 0.999 . S
H1345 C1326 0.913 . S
H1346 C1364 0.951 . S
H1347 C1366 0.951 . S
H1348 C1368 0.950 . S
H1349 C1369 0.950 . S
H1350 C1371 0.950 . S
H1351 C1374 0.950 . S
H1352 C1375 0.950 . S
H1353 C1377 0.950 . S
H1354 C1378 0.950 . S
H1355 C1379 0.951 . S
H1356 C1381 0.951 . S
H1357 C1383 0.950 . S
H1358 C1384 0.950 . S
H1359 C1386 0.950 . S
H1360 C1389 0.950 . S
H1361 C1390 0.950 . S
H1362 C1392 0.950 . S
H1363 C1393 0.950 . S
C1364 H1346 0.951 . S
C1364 C1365 1.366 . S
C1364 C1366 1.388 . S
C1365 C1364 1.366 . S
C1365 C1369 1.385 . S
C1366 H1347 0.951 . S
C1366 C1364 1.388 . S
C1366 C1367 1.366 . S
C1367 C1366 1.366 . S
C1367 C1368 1.414 . S
C1367 C1370 1.499 . S
C1368 H1348 0.950 . S
C1368 C1367 1.414 . S
C1368 C1369 1.374 . S
C1369 H1349 0.950 . S
C1369 C1365 1.385 . S
C1369 C1368 1.374 . S
C1370 C1367 1.499 . S
C1370 C1371 1.373 . S
C1370 C1372 1.389 . S
C1371 H1350 0.950 . S
C1371 C1370 1.373 . S
C1371 C1387 1.377 . S
C1372 C1370 1.389 . S
C1372 C1373 1.524 . S
C1372 C1386 1.377 . S
C1373 C1372 1.524 . S
C1373 C1374 1.397 . S
C1373 C1378 1.363 . S
C1374 H1351 0.950 . S
C1374 C1373 1.397 . S
C1374 C1375 1.334 . S
C1375 H1352 0.950 . S
C1375 C1374 1.334 . S
C1375 C1376 1.287 . S
C1376 C1375 1.287 . S
C1376 C1377 1.524 . S
C1376 H1395 0.913 . S
C1377 H1353 0.950 . S
C1377 C1376 1.524 . S
C1377 C1378 1.415 . S
C1378 H1354 0.950 . S
C1378 C1373 1.363 . S
C1378 C1377 1.415 . S
C1379 H1355 0.951 . S
C1379 C1380 1.366 . S
C1379 C1381 1.388 . S
C1380 C1379 1.366 . S
C1380 C1384 1.385 . S
C1381 H1356 0.951 . S
C1381 C1379 1.388 . S
C1381 C1382 1.366 . S
C1382 C1381 1.366 . S
C1382 C1383 1.414 . S
C1382 C1385 1.499 . S
C1383 H1357 0.950 . S
C1383 C1382 1.414 . S
C1383 C1384 1.374 . S
C1384 H1358 0.950 . S
C1384 C1380 1.385 . S
C1384 C1383 1.374 . S
C1385 C1382 1.499 . S
C1385 C1386 1.373 . S
C1385 C1387 1.389 . S
C1386 H1359 0.950 . S
C1386 C1372 1.377 . S
C1386 C1385 1.373 . S
C1387 C1371 1.377 . S
C1387 C1385 1.389 . S
C1387 C1388 1.524 . S
C1388 C1387 1.524 . S
C1388 C1389 1.397 . S
C1388 C1393 1.363 . S
C1389 H1360 0.950 . S
C1389 C1388 1.397 . S
C1389 C1390 1.334 . S
C1390 H1361 0.950 . S
C1390 C1389 1.334 . S
C1390 C1391 1.287 . S
C1391 C1390 1.287 . S
C1391 C1392 1.524 . S
C1391 H1394 0.999 . S
C1392 H1362 0.950 . S
C1392 C1391 1.524 . S
C1392 C1393 1.415 . S
C1393 H1363 0.950 . S
C1393 C1388 1.363 . S
C1393 C1392 1.415 . S
H1394 C1391 0.999 . S
H1395 C1376 0.913 . S
H1396 C1414 0.951 . S
H1397 C1416 0.951 . S
H1398 C1418 0.950 . S
H1399 C1419 0.950 . S
H1400 C1421 0.950 . S
H1401 C1424 0.950 . S
H1402 C1425 0.950 . S
H1403 C1427 0.950 . S
H1404 C1428 0.950 . S
H1405 C1429 0.951 . S
H1406 C1431 0.951 . S
H1407 C1433 0.950 . S
H1408 C1434 0.950 . S
H1409 C1436 0.950 . S
H1410 C1439 0.950 . S
H1411 C1440 0.950 . S
H1412 C1442 0.950 . S
H1413 C1443 0.950 . S
C1414 H1396 0.951 . S
C1414 C1415 1.366 . S
C1414 C1416 1.388 . S
C1415 C1414 1.366 . S
C1415 C1419 1.385 . S
C1416 H1397 0.951 . S
C1416 C1414 1.388 . S
C1416 C1417 1.366 . S
C1417 C1416 1.366 . S
C1417 C1418 1.414 . S
C1417 C1420 1.499 . S
C1418 H1398 0.950 . S
C1418 C1417 1.414 . S
C1418 C1419 1.374 . S
C1419 H1399 0.950 . S
C1419 C1415 1.385 . S
C1419 C1418 1.374 . S
C1420 C1417 1.499 . S
C1420 C1421 1.373 . S
C1420 C1422 1.389 . S
C1421 H1400 0.950 . S
C1421 C1420 1.373 . S
C1421 C1437 1.377 . S
C1422 C1420 1.389 . S
C1422 C1423 1.524 . S
C1422 C1436 1.377 . S
C1423 C1422 1.524 . S
C1423 C1424 1.397 . S
C1423 C1428 1.363 . S
C1424 H1401 0.950 . S
C1424 C1423 1.397 . S
C1424 C1425 1.334 . S
C1425 H1402 0.950 . S
C1425 C1424 1.334 . S
C1425 C1426 1.287 . S
C1426 C1425 1.287 . S
C1426 C1427 1.524 . S
C1426 H1445 0.913 . S
C1427 H1403 0.950 . S
C1427 C1426 1.524 . S
C1427 C1428 1.415 . S
C1428 H1404 0.950 . S
C1428 C1423 1.363 . S
C1428 C1427 1.415 . S
C1429 H1405 0.951 . S
C1429 C1430 1.366 . S
C1429 C1431 1.388 . S
C1430 C1429 1.366 . S
C1430 C1434 1.385 . S
C1431 H1406 0.951 . S
C1431 C1429 1.388 . S
C1431 C1432 1.366 . S
C1432 C1431 1.366 . S
C1432 C1433 1.414 . S
C1432 C1435 1.499 . S
C1433 H1407 0.950 . S
C1433 C1432 1.414 . S
C1433 C1434 1.374 . S
C1434 H1408 0.950 . S
C1434 C1430 1.385 . S
C1434 C1433 1.374 . S
C1435 C1432 1.499 . S
C1435 C1436 1.373 . S
C1435 C1437 1.389 . S
C1436 H1409 0.950 . S
C1436 C1422 1.377 . S
C1436 C1435 1.373 . S
C1437 C1421 1.377 . S
C1437 C1435 1.389 . S
C1437 C1438 1.524 . S
C1438 C1437 1.524 . S
C1438 C1439 1.397 . S
C1438 C1443 1.363 . S
C1439 H1410 0.950 . S
C1439 C1438 1.397 . S
C1439 C1440 1.334 . S
C1440 H1411 0.950 . S
C1440 C1439 1.334 . S
C1440 C1441 1.287 . S
C1441 C1440 1.287 . S
C1441 C1442 1.524 . S
C1441 H1444 0.999 . S
C1442 H1412 0.950 . S
C1442 C1441 1.524 . S
C1442 C1443 1.415 . S
C1443 H1413 0.950 . S
C1443 C1438 1.363 . S
C1443 C1442 1.415 . S
H1444 C1441 0.999 . S
H1445 C1426 0.913 . S
H1446 C1464 0.951 . S
H1447 C1466 0.951 . S
H1448 C1468 0.950 . S
H1449 C1469 0.950 . S
H1450 C1471 0.950 . S
H1451 C1474 0.950 . S
H1452 C1475 0.950 . S
H1453 C1477 0.950 . S
H1454 C1478 0.950 . S
H1455 C1479 0.951 . S
H1456 C1481 0.951 . S
H1457 C1483 0.950 . S
H1458 C1484 0.950 . S
H1459 C1486 0.950 . S
H1460 C1489 0.950 . S
H1461 C1490 0.950 . S
H1462 C1492 0.950 . S
H1463 C1493 0.950 . S
C1464 H1446 0.951 . S
C1464 C1465 1.366 . S
C1464 C1466 1.388 . S
C1465 C1464 1.366 . S
C1465 C1469 1.385 . S
C1466 H1447 0.951 . S
C1466 C1464 1.388 . S
C1466 C1467 1.366 . S
C1467 C1466 1.366 . S
C1467 C1468 1.414 . S
C1467 C1470 1.499 . S
C1468 H1448 0.950 . S
C1468 C1467 1.414 . S
C1468 C1469 1.374 . S
C1469 H1449 0.950 . S
C1469 C1465 1.385 . S
C1469 C1468 1.374 . S
C1470 C1467 1.499 . S
C1470 C1471 1.373 . S
C1470 C1472 1.389 . S
C1471 H1450 0.950 . S
C1471 C1470 1.373 . S
C1471 C1487 1.377 . S
C1472 C1470 1.389 . S
C1472 C1473 1.524 . S
C1472 C1486 1.377 . S
C1473 C1472 1.524 . S
C1473 C1474 1.397 . S
C1473 C1478 1.363 . S
C1474 H1451 0.950 . S
C1474 C1473 1.397 . S
C1474 C1475 1.334 . S
C1475 H1452 0.950 . S
C1475 C1474 1.334 . S
C1475 C1476 1.287 . S
C1476 C1475 1.287 . S
C1476 C1477 1.524 . S
C1476 H1495 0.913 . S
C1477 H1453 0.950 . S
C1477 C1476 1.524 . S
C1477 C1478 1.415 . S
C1478 H1454 0.950 . S
C1478 C1473 1.363 . S
C1478 C1477 1.415 . S
C1479 H1455 0.951 . S
C1479 C1480 1.366 . S
C1479 C1481 1.388 . S
C1480 C1479 1.366 . S
C1480 C1484 1.385 . S
C1481 H1456 0.951 . S
C1481 C1479 1.388 . S
C1481 C1482 1.366 . S
C1482 C1481 1.366 . S
C1482 C1483 1.414 . S
C1482 C1485 1.499 . S
C1483 H1457 0.950 . S
C1483 C1482 1.414 . S
C1483 C1484 1.374 . S
C1484 H1458 0.950 . S
C1484 C1480 1.385 . S
C1484 C1483 1.374 . S
C1485 C1482 1.499 . S
C1485 C1486 1.373 . S
C1485 C1487 1.389 . S
C1486 H1459 0.950 . S
C1486 C1472 1.377 . S
C1486 C1485 1.373 . S
C1487 C1471 1.377 . S
C1487 C1485 1.389 . S
C1487 C1488 1.524 . S
C1488 C1487 1.524 . S
C1488 C1489 1.397 . S
C1488 C1493 1.363 . S
C1489 H1460 0.950 . S
C1489 C1488 1.397 . S
C1489 C1490 1.334 . S
C1490 H1461 0.950 . S
C1490 C1489 1.334 . S
C1490 C1491 1.287 . S
C1491 C1490 1.287 . S
C1491 C1492 1.524 . S
C1491 H1494 0.999 . S
C1492 H1462 0.950 . S
C1492 C1491 1.524 . S
C1492 C1493 1.415 . S
C1493 H1463 0.950 . S
C1493 C1488 1.363 . S
C1493 C1492 1.415 . S
H1494 C1491 0.999 . S
H1495 C1476 0.913 . S
H1496 C1514 0.951 . S
H1497 C1516 0.951 . S
H1498 C1518 0.950 . S
H1499 C1519 0.950 . S
H1500 C1521 0.950 . S
H1501 C1524 0.950 . S
H1502 C1525 0.950 . S
H1503 C1527 0.950 . S
H1504 C1528 0.950 . S
H1505 C1529 0.951 . S
H1506 C1531 0.951 . S
H1507 C1533 0.950 . S
H1508 C1534 0.950 . S
H1509 C1536 0.950 . S
H1510 C1539 0.950 . S
H1511 C1540 0.950 . S
H1512 C1542 0.950 . S
H1513 C1543 0.950 . S
C1514 H1496 0.951 . S
C1514 C1515 1.366 . S
C1514 C1516 1.388 . S
C1515 C1514 1.366 . S
C1515 C1519 1.385 . S
C1516 H1497 0.951 . S
C1516 C1514 1.388 . S
C1516 C1517 1.366 . S
C1517 C1516 1.366 . S
C1517 C1518 1.414 . S
C1517 C1520 1.499 . S
C1518 H1498 0.950 . S
C1518 C1517 1.414 . S
C1518 C1519 1.374 . S
C1519 H1499 0.950 . S
C1519 C1515 1.385 . S
C1519 C1518 1.374 . S
C1520 C1517 1.499 . S
C1520 C1521 1.373 . S
C1520 C1522 1.389 . S
C1521 H1500 0.950 . S
C1521 C1520 1.373 . S
C1521 C1537 1.377 . S
C1522 C1520 1.389 . S
C1522 C1523 1.524 . S
C1522 C1536 1.377 . S
C1523 C1522 1.524 . S
C1523 C1524 1.397 . S
C1523 C1528 1.363 . S
C1524 H1501 0.950 . S
C1524 C1523 1.397 . S
C1524 C1525 1.334 . S
C1525 H1502 0.950 . S
C1525 C1524 1.334 . S
C1525 C1526 1.287 . S
C1526 C1525 1.287 . S
C1526 C1527 1.524 . S
C1526 H1545 0.913 . S
C1527 H1503 0.950 . S
C1527 C1526 1.524 . S
C1527 C1528 1.415 . S
C1528 H1504 0.950 . S
C1528 C1523 1.363 . S
C1528 C1527 1.415 . S
C1529 H1505 0.951 . S
C1529 C1530 1.366 . S
C1529 C1531 1.388 . S
C1530 C1529 1.366 . S
C1530 C1534 1.385 . S
C1531 H1506 0.951 . S
C1531 C1529 1.388 . S
C1531 C1532 1.366 . S
C1532 C1531 1.366 . S
C1532 C1533 1.414 . S
C1532 C1535 1.499 . S
C1533 H1507 0.950 . S
C1533 C1532 1.414 . S
C1533 C1534 1.374 . S
C1534 H1508 0.950 . S
C1534 C1530 1.385 . S
C1534 C1533 1.374 . S
C1535 C1532 1.499 . S
C1535 C1536 1.373 . S
C1535 C1537 1.389 . S
C1536 H1509 0.950 . S
C1536 C1522 1.377 . S
C1536 C1535 1.373 . S
C1537 C1521 1.377 . S
C1537 C1535 1.389 . S
C1537 C1538 1.524 . S
C1538 C1537 1.524 . S
C1538 C1539 1.397 . S
C1538 C1543 1.363 . S
C1539 H1510 0.950 . S
C1539 C1538 1.397 . S
C1539 C1540 1.334 . S
C1540 H1511 0.950 . S
C1540 C1539 1.334 . S
C1540 C1541 1.287 . S
C1541 C1540 1.287 . S
C1541 C1542 1.524 . S
C1541 H1544 0.999 . S
C1542 H1512 0.950 . S
C1542 C1541 1.524 . S
C1542 C1543 1.415 . S
C1543 H1513 0.950 . S
C1543 C1538 1.363 . S
C1543 C1542 1.415 . S
H1544 C1541 0.999 . S
H1545 C1526 0.913 . S
H1546 C1564 0.951 . S
H1547 C1566 0.951 . S
H1548 C1568 0.950 . S
H1549 C1569 0.950 . S
H1550 C1571 0.950 . S
H1551 C1574 0.950 . S
H1552 C1575 0.950 . S
H1553 C1577 0.950 . S
H1554 C1578 0.950 . S
H1555 C1579 0.951 . S
H1556 C1581 0.951 . S
H1557 C1583 0.950 . S
H1558 C1584 0.950 . S
H1559 C1586 0.950 . S
H1560 C1589 0.950 . S
H1561 C1590 0.950 . S
H1562 C1592 0.950 . S
H1563 C1593 0.950 . S
C1564 H1546 0.951 . S
C1564 C1565 1.366 . S
C1564 C1566 1.388 . S
C1565 C1564 1.366 . S
C1565 C1569 1.385 . S
C1566 H1547 0.951 . S
C1566 C1564 1.388 . S
C1566 C1567 1.366 . S
C1567 C1566 1.366 . S
C1567 C1568 1.414 . S
C1567 C1570 1.499 . S
C1568 H1548 0.950 . S
C1568 C1567 1.414 . S
C1568 C1569 1.374 . S
C1569 H1549 0.950 . S
C1569 C1565 1.385 . S
C1569 C1568 1.374 . S
C1570 C1567 1.499 . S
C1570 C1571 1.373 . S
C1570 C1572 1.389 . S
C1571 H1550 0.950 . S
C1571 C1570 1.373 . S
C1571 C1587 1.377 . S
C1572 C1570 1.389 . S
C1572 C1573 1.524 . S
C1572 C1586 1.377 . S
C1573 C1572 1.524 . S
C1573 C1574 1.397 . S
C1573 C1578 1.363 . S
C1574 H1551 0.950 . S
C1574 C1573 1.397 . S
C1574 C1575 1.334 . S
C1575 H1552 0.950 . S
C1575 C1574 1.334 . S
C1575 C1576 1.287 . S
C1576 C1575 1.287 . S
C1576 C1577 1.524 . S
C1576 H1595 0.913 . S
C1577 H1553 0.950 . S
C1577 C1576 1.524 . S
C1577 C1578 1.415 . S
C1578 H1554 0.950 . S
C1578 C1573 1.363 . S
C1578 C1577 1.415 . S
C1579 H1555 0.951 . S
C1579 C1580 1.366 . S
C1579 C1581 1.388 . S
C1580 C1579 1.366 . S
C1580 C1584 1.385 . S
C1581 H1556 0.951 . S
C1581 C1579 1.388 . S
C1581 C1582 1.366 . S
C1582 C1581 1.366 . S
C1582 C1583 1.414 . S
C1582 C1585 1.499 . S
C1583 H1557 0.950 . S
C1583 C1582 1.414 . S
C1583 C1584 1.374 . S
C1584 H1558 0.950 . S
C1584 C1580 1.385 . S
C1584 C1583 1.374 . S
C1585 C1582 1.499 . S
C1585 C1586 1.373 . S
C1585 C1587 1.389 . S
C1586 H1559 0.950 . S
C1586 C1572 1.377 . S
C1586 C1585 1.373 . S
C1587 C1571 1.377 . S
C1587 C1585 1.389 . S
C1587 C1588 1.524 . S
C1588 C1587 1.524 . S
C1588 C1589 1.397 . S
C1588 C1593 1.363 . S
C1589 H1560 0.950 . S
C1589 C1588 1.397 . S
C1589 C1590 1.334 . S
C1590 H1561 0.950 . S
C1590 C1589 1.334 . S
C1590 C1591 1.287 . S
C1591 C1590 1.287 . S
C1591 C1592 1.524 . S
C1591 H1594 0.999 . S
C1592 H1562 0.950 . S
C1592 C1591 1.524 . S
C1592 C1593 1.415 . S
C1593 H1563 0.950 . S
C1593 C1588 1.363 . S
C1593 C1592 1.415 . S
H1594 C1591 0.999 . S
H1595 C1576 0.913 . S
H1596 C1614 0.951 . S
H1597 C1616 0.951 . S
H1598 C1618 0.950 . S
H1599 C1619 0.950 . S
H1600 C1621 0.950 . S
H1601 C1624 0.950 . S
H1602 C1625 0.950 . S
H1603 C1627 0.950 . S
H1604 C1628 0.950 . S
H1605 C1629 0.951 . S
H1606 C1631 0.951 . S
H1607 C1633 0.950 . S
H1608 C1634 0.950 . S
H1609 C1636 0.950 . S
H1610 C1639 0.950 . S
H1611 C1640 0.950 . S
H1612 C1642 0.950 . S
H1613 C1643 0.950 . S
C1614 H1596 0.951 . S
C1614 C1615 1.366 . S
C1614 C1616 1.388 . S
C1615 C1614 1.366 . S
C1615 C1619 1.385 . S
C1616 H1597 0.951 . S
C1616 C1614 1.388 . S
C1616 C1617 1.366 . S
C1617 C1616 1.366 . S
C1617 C1618 1.414 . S
C1617 C1620 1.499 . S
C1618 H1598 0.950 . S
C1618 C1617 1.414 . S
C1618 C1619 1.374 . S
C1619 H1599 0.950 . S
C1619 C1615 1.385 . S
C1619 C1618 1.374 . S
C1620 C1617 1.499 . S
C1620 C1621 1.373 . S
C1620 C1622 1.389 . S
C1621 H1600 0.950 . S
C1621 C1620 1.373 . S
C1621 C1637 1.377 . S
C1622 C1620 1.389 . S
C1622 C1623 1.524 . S
C1622 C1636 1.377 . S
C1623 C1622 1.524 . S
C1623 C1624 1.397 . S
C1623 C1628 1.363 . S
C1624 H1601 0.950 . S
C1624 C1623 1.397 . S
C1624 C1625 1.334 . S
C1625 H1602 0.950 . S
C1625 C1624 1.334 . S
C1625 C1626 1.287 . S
C1626 C1625 1.287 . S
C1626 C1627 1.524 . S
C1626 H1645 0.913 . S
C1627 H1603 0.950 . S
C1627 C1626 1.524 . S
C1627 C1628 1.415 . S
C1628 H1604 0.950 . S
C1628 C1623 1.363 . S
C1628 C1627 1.415 . S
C1629 H1605 0.951 . S
C1629 C1630 1.366 . S
C1629 C1631 1.388 . S
C1630 C1629 1.366 . S
C1630 C1634 1.385 . S
C1631 H1606 0.951 . S
C1631 C1629 1.388 . S
C1631 C1632 1.366 . S
C1632 C1631 1.366 . S
C1632 C1633 1.414 . S
C1632 C1635 1.499 . S
C1633 H1607 0.950 . S
C1633 C1632 1.414 . S
C1633 C1634 1.374 . S
C1634 H1608 0.950 . S
C1634 C1630 1.385 . S
C1634 C1633 1.374 . S
C1635 C1632 1.499 . S
C1635 C1636 1.373 . S
C1635 C1637 1.389 . S
C1636 H1609 0.950 . S
C1636 C1622 1.377 . S
C1636 C1635 1.373 . S
C1637 C1621 1.377 . S
C1637 C1635 1.389 . S
C1637 C1638 1.524 . S
C1638 C1637 1.524 . S
C1638 C1639 1.397 . S
C1638 C1643 1.363 . S
C1639 H1610 0.950 . S
C1639 C1638 1.397 . S
C1639 C1640 1.334 . S
C1640 H1611 0.950 . S
C1640 C1639 1.334 . S
C1640 C1641 1.287 . S
C1641 C1640 1.287 . S
C1641 C1642 1.524 . S
C1641 H1644 0.999 . S
C1642 H1612 0.950 . S
C1642 C1641 1.524 . S
C1642 C1643 1.415 . S
C1643 H1613 0.950 . S
C1643 C1638 1.363 . S
C1643 C1642 1.415 . S
H1644 C1641 0.999 . S
H1645 C1626 0.913 . S
H1646 C1664 0.951 . S
H1647 C1666 0.951 . S
H1648 C1668 0.950 . S
H1649 C1669 0.950 . S
H1650 C1671 0.950 . S
H1651 C1674 0.950 . S
H1652 C1675 0.950 . S
H1653 C1677 0.950 . S
H1654 C1678 0.950 . S
H1655 C1679 0.951 . S
H1656 C1681 0.951 . S
H1657 C1683 0.950 . S
H1658 C1684 0.950 . S
H1659 C1686 0.950 . S
H1660 C1689 0.950 . S
H1661 C1690 0.950 . S
H1662 C1692 0.950 . S
H1663 C1693 0.950 . S
C1664 H1646 0.951 . S
C1664 C1665 1.366 . S
C1664 C1666 1.388 . S
C1665 C1664 1.366 . S
C1665 C1669 1.385 . S
C1666 H1647 0.951 . S
C1666 C1664 1.388 . S
C1666 C1667 1.366 . S
C1667 C1666 1.366 . S
C1667 C1668 1.414 . S
C1667 C1670 1.499 . S
C1668 H1648 0.950 . S
C1668 C1667 1.414 . S
C1668 C1669 1.374 . S
C1669 H1649 0.950 . S
C1669 C1665 1.385 . S
C1669 C1668 1.374 . S
C1670 C1667 1.499 . S
C1670 C1671 1.373 . S
C1670 C1672 1.389 . S
C1671 H1650 0.950 . S
C1671 C1670 1.373 . S
C1671 C1687 1.377 . S
C1672 C1670 1.389 . S
C1672 C1673 1.524 . S
C1672 C1686 1.377 . S
C1673 C1672 1.524 . S
C1673 C1674 1.397 . S
C1673 C1678 1.363 . S
C1674 H1651 0.950 . S
C1674 C1673 1.397 . S
C1674 C1675 1.334 . S
C1675 H1652 0.950 . S
C1675 C1674 1.334 . S
C1675 C1676 1.287 . S
C1676 C1675 1.287 . S
C1676 C1677 1.524 . S
C1676 H1695 0.913 . S
C1677 H1653 0.950 . S
C1677 C1676 1.524 . S
C1677 C1678 1.415 . S
C1678 H1654 0.950 . S
C1678 C1673 1.363 . S
C1678 C1677 1.415 . S
C1679 H1655 0.951 . S
C1679 C1680 1.366 . S
C1679 C1681 1.388 . S
C1680 C1679 1.366 . S
C1680 C1684 1.385 . S
C1681 H1656 0.951 . S
C1681 C1679 1.388 . S
C1681 C1682 1.366 . S
C1682 C1681 1.366 . S
C1682 C1683 1.414 . S
C1682 C1685 1.499 . S
C1683 H1657 0.950 . S
C1683 C1682 1.414 . S
C1683 C1684 1.374 . S
C1684 H1658 0.950 . S
C1684 C1680 1.385 . S
C1684 C1683 1.374 . S
C1685 C1682 1.499 . S
C1685 C1686 1.373 . S
C1685 C1687 1.389 . S
C1686 H1659 0.950 . S
C1686 C1672 1.377 . S
C1686 C1685 1.373 . S
C1687 C1671 1.377 . S
C1687 C1685 1.389 . S
C1687 C1688 1.524 . S
C1688 C1687 1.524 . S
C1688 C1689 1.397 . S
C1688 C1693 1.363 . S
C1689 H1660 0.950 . S
C1689 C1688 1.397 . S
C1689 C1690 1.334 . S
C1690 H1661 0.950 . S
C1690 C1689 1.334 . S
C1690 C1691 1.287 . S
C1691 C1690 1.287 . S
C1691 C1692 1.524 . S
C1691 H1694 0.999 . S
C1692 H1662 0.950 . S
C1692 C1691 1.524 . S
C1692 C1693 1.415 . S
C1693 H1663 0.950 . S
C1693 C1688 1.363 . S
C1693 C1692 1.415 . S
H1694 C1691 0.999 . S
H1695 C1676 0.913 . S
H1696 C1714 0.951 . S
H1697 C1716 0.951 . S
H1698 C1718 0.950 . S
H1699 C1719 0.950 . S
H1700 C1721 0.950 . S
H1701 C1724 0.950 . S
H1702 C1725 0.950 . S
H1703 C1727 0.950 1_545 S
H1704 C1728 0.950 . S
H1705 C1729 0.951 . S
H1706 C1731 0.951 . S
H1707 C1733 0.950 . S
H1708 C1734 0.950 . S
H1709 C1736 0.950 . S
H1710 C1739 0.950 . S
H1711 C1740 0.950 . S
H1712 C1742 0.950 . S
H1713 C1743 0.950 . S
C1714 H1696 0.951 . S
C1714 C1715 1.366 . S
C1714 C1716 1.388 . S
C1715 C1714 1.366 . S
C1715 C1719 1.385 . S
C1716 H1697 0.951 . S
C1716 C1714 1.388 . S
C1716 C1717 1.366 . S
C1717 C1716 1.366 . S
C1717 C1718 1.414 . S
C1717 C1720 1.499 . S
C1718 H1698 0.950 . S
C1718 C1717 1.414 . S
C1718 C1719 1.374 . S
C1719 H1699 0.950 . S
C1719 C1715 1.385 . S
C1719 C1718 1.374 . S
C1720 C1717 1.499 . S
C1720 C1721 1.373 . S
C1720 C1722 1.389 . S
C1721 H1700 0.950 . S
C1721 C1720 1.373 . S
C1721 C1737 1.377 . S
C1722 C1720 1.389 . S
C1722 C1723 1.524 . S
C1722 C1736 1.377 . S
C1723 C1722 1.524 . S
C1723 C1724 1.397 . S
C1723 C1728 1.363 . S
C1724 H1701 0.950 . S
C1724 C1723 1.397 . S
C1724 C1725 1.334 . S
C1725 H1702 0.950 . S
C1725 C1724 1.334 . S
C1725 C1726 1.287 . S
C1726 C1725 1.287 . S
C1726 C1727 1.524 . S
C1726 H1745 0.913 . S
C1727 H1703 0.950 1_565 S
C1727 C1726 1.524 . S
C1727 C1728 1.415 . S
C1728 H1704 0.950 . S
C1728 C1723 1.363 . S
C1728 C1727 1.415 . S
C1729 H1705 0.951 . S
C1729 C1730 1.366 . S
C1729 C1731 1.388 . S
C1730 C1729 1.366 . S
C1730 C1734 1.385 . S
C1731 H1706 0.951 . S
C1731 C1729 1.388 . S
C1731 C1732 1.366 . S
C1732 C1731 1.366 . S
C1732 C1733 1.414 . S
C1732 C1735 1.499 . S
C1733 H1707 0.950 . S
C1733 C1732 1.414 . S
C1733 C1734 1.374 . S
C1734 H1708 0.950 . S
C1734 C1730 1.385 . S
C1734 C1733 1.374 . S
C1735 C1732 1.499 . S
C1735 C1736 1.373 . S
C1735 C1737 1.389 . S
C1736 H1709 0.950 . S
C1736 C1722 1.377 . S
C1736 C1735 1.373 . S
C1737 C1721 1.377 . S
C1737 C1735 1.389 . S
C1737 C1738 1.524 . S
C1738 C1737 1.524 . S
C1738 C1739 1.397 . S
C1738 C1743 1.363 . S
C1739 H1710 0.950 . S
C1739 C1738 1.397 . S
C1739 C1740 1.334 . S
C1740 H1711 0.950 . S
C1740 C1739 1.334 . S
C1740 C1741 1.287 . S
C1741 C1740 1.287 . S
C1741 C1742 1.524 . S
C1741 H1744 0.999 . S
C1742 H1712 0.950 . S
C1742 C1741 1.524 . S
C1742 C1743 1.415 . S
C1743 H1713 0.950 . S
C1743 C1738 1.363 . S
C1743 C1742 1.415 . S
H1744 C1741 0.999 . S
H1745 C1726 0.913 . S
H1746 C1764 0.951 . S
H1747 C1766 0.951 . S
H1748 C1768 0.950 . S
H1749 C1769 0.950 . S
H1750 C1771 0.950 . S
H1751 C1774 0.950 . S
H1752 C1775 0.950 . S
H1753 C1777 0.950 . S
H1754 C1778 0.950 . S
H1755 C1779 0.951 . S
H1756 C1781 0.951 . S
H1757 C1783 0.950 . S
H1758 C1784 0.950 . S
H1759 C1786 0.950 . S
H1760 C1789 0.950 . S
H1761 C1790 0.950 . S
H1762 C1792 0.950 . S
H1763 C1793 0.950 . S
C1764 H1746 0.951 . S
C1764 C1765 1.366 . S
C1764 C1766 1.388 . S
C1765 C1764 1.366 . S
C1765 C1769 1.385 . S
C1766 H1747 0.951 . S
C1766 C1764 1.388 . S
C1766 C1767 1.366 . S
C1767 C1766 1.366 . S
C1767 C1768 1.414 . S
C1767 C1770 1.499 . S
C1768 H1748 0.950 . S
C1768 C1767 1.414 . S
C1768 C1769 1.374 . S
C1769 H1749 0.950 . S
C1769 C1765 1.385 . S
C1769 C1768 1.374 . S
C1770 C1767 1.499 . S
C1770 C1771 1.373 . S
C1770 C1772 1.389 . S
C1771 H1750 0.950 . S
C1771 C1770 1.373 . S
C1771 C1787 1.377 . S
C1772 C1770 1.389 . S
C1772 C1773 1.524 . S
C1772 C1786 1.377 . S
C1773 C1772 1.524 . S
C1773 C1774 1.397 . S
C1773 C1778 1.363 . S
C1774 H1751 0.950 . S
C1774 C1773 1.397 . S
C1774 C1775 1.334 . S
C1775 H1752 0.950 . S
C1775 C1774 1.334 . S
C1775 C1776 1.287 . S
C1776 C1775 1.287 . S
C1776 C1777 1.524 . S
C1776 H1795 0.913 . S
C1777 H1753 0.950 . S
C1777 C1776 1.524 . S
C1777 C1778 1.415 . S
C1778 H1754 0.950 . S
C1778 C1773 1.363 . S
C1778 C1777 1.415 . S
C1779 H1755 0.951 . S
C1779 C1780 1.366 . S
C1779 C1781 1.388 . S
C1780 C1779 1.366 . S
C1780 C1784 1.385 . S
C1781 H1756 0.951 . S
C1781 C1779 1.388 . S
C1781 C1782 1.366 . S
C1782 C1781 1.366 . S
C1782 C1783 1.414 . S
C1782 C1785 1.499 . S
C1783 H1757 0.950 . S
C1783 C1782 1.414 . S
C1783 C1784 1.374 . S
C1784 H1758 0.950 . S
C1784 C1780 1.385 . S
C1784 C1783 1.374 . S
C1785 C1782 1.499 . S
C1785 C1786 1.373 . S
C1785 C1787 1.389 . S
C1786 H1759 0.950 . S
C1786 C1772 1.377 . S
C1786 C1785 1.373 . S
C1787 C1771 1.377 . S
C1787 C1785 1.389 . S
C1787 C1788 1.524 . S
C1788 C1787 1.524 . S
C1788 C1789 1.397 . S
C1788 C1793 1.363 . S
C1789 H1760 0.950 . S
C1789 C1788 1.397 . S
C1789 C1790 1.334 . S
C1790 H1761 0.950 . S
C1790 C1789 1.334 . S
C1790 C1791 1.287 . S
C1791 C1790 1.287 . S
C1791 C1792 1.524 . S
C1791 H1794 0.999 . S
C1792 H1762 0.950 . S
C1792 C1791 1.524 . S
C1792 C1793 1.415 . S
C1793 H1763 0.950 . S
C1793 C1788 1.363 . S
C1793 C1792 1.415 . S
H1794 C1791 0.999 . S
H1795 C1776 0.913 . S
H1796 C1814 0.951 . S
H1797 C1816 0.951 . S
H1798 C1818 0.950 . S
H1799 C1819 0.950 . S
H1800 C1821 0.950 . S
H1801 C1824 0.950 . S
H1802 C1825 0.950 . S
H1803 C1827 0.950 . S
H1804 C1828 0.950 . S
H1805 C1829 0.951 . S
H1806 C1831 0.951 . S
H1807 C1833 0.950 . S
H1808 C1834 0.950 . S
H1809 C1836 0.950 . S
H1810 C1839 0.950 . S
H1811 C1840 0.950 . S
H1812 C1842 0.950 1_655 S
H1813 C1843 0.950 . S
C1814 H1796 0.951 . S
C1814 C1815 1.366 . S
C1814 C1816 1.388 . S
C1815 C1814 1.366 . S
C1815 C1819 1.385 . S
C1816 H1797 0.951 . S
C1816 C1814 1.388 . S
C1816 C1817 1.366 . S
C1817 C1816 1.366 . S
C1817 C1818 1.414 . S
C1817 C1820 1.499 . S
C1818 H1798 0.950 . S
C1818 C1817 1.414 . S
C1818 C1819 1.374 . S
C1819 H1799 0.950 . S
C1819 C1815 1.385 . S
C1819 C1818 1.374 . S
C1820 C1817 1.499 . S
C1820 C1821 1.373 . S
C1820 C1822 1.389 . S
C1821 H1800 0.950 . S
C1821 C1820 1.373 . S
C1821 C1837 1.377 . S
C1822 C1820 1.389 . S
C1822 C1823 1.524 . S
C1822 C1836 1.377 . S
C1823 C1822 1.524 . S
C1823 C1824 1.397 . S
C1823 C1828 1.363 . S
C1824 H1801 0.950 . S
C1824 C1823 1.397 . S
C1824 C1825 1.334 . S
C1825 H1802 0.950 . S
C1825 C1824 1.334 . S
C1825 C1826 1.287 . S
C1826 C1825 1.287 . S
C1826 C1827 1.524 . S
C1826 H1845 0.913 . S
C1827 H1803 0.950 . S
C1827 C1826 1.524 . S
C1827 C1828 1.415 . S
C1828 H1804 0.950 . S
C1828 C1823 1.363 . S
C1828 C1827 1.415 . S
C1829 H1805 0.951 . S
C1829 C1830 1.366 . S
C1829 C1831 1.388 . S
C1830 C1829 1.366 . S
C1830 C1834 1.385 . S
C1831 H1806 0.951 . S
C1831 C1829 1.388 . S
C1831 C1832 1.366 . S
C1832 C1831 1.366 . S
C1832 C1833 1.414 . S
C1832 C1835 1.499 . S
C1833 H1807 0.950 . S
C1833 C1832 1.414 . S
C1833 C1834 1.374 . S
C1834 H1808 0.950 . S
C1834 C1830 1.385 . S
C1834 C1833 1.374 . S
C1835 C1832 1.499 . S
C1835 C1836 1.373 . S
C1835 C1837 1.389 . S
C1836 H1809 0.950 . S
C1836 C1822 1.377 . S
C1836 C1835 1.373 . S
C1837 C1821 1.377 . S
C1837 C1835 1.389 . S
C1837 C1838 1.524 . S
C1838 C1837 1.524 . S
C1838 C1839 1.397 . S
C1838 C1843 1.363 . S
C1839 H1810 0.950 . S
C1839 C1838 1.397 . S
C1839 C1840 1.334 . S
C1840 H1811 0.950 . S
C1840 C1839 1.334 . S
C1840 C1841 1.287 . S
C1841 C1840 1.287 . S
C1841 C1842 1.524 . S
C1841 H1844 0.999 1_455 S
C1842 H1812 0.950 1_455 S
C1842 C1841 1.524 . S
C1842 C1843 1.415 . S
C1843 H1813 0.950 . S
C1843 C1838 1.363 . S
C1843 C1842 1.415 . S
H1844 C1841 0.999 1_655 S
H1845 C1826 0.913 . S
H1846 C1864 0.951 . S
H1847 C1866 0.951 . S
H1848 C1868 0.950 . S
H1849 C1869 0.950 . S
H1850 C1871 0.950 . S
H1851 C1874 0.950 . S
H1852 C1875 0.950 . S
H1853 C1877 0.950 1_565 S
H1854 C1878 0.950 . S
H1855 C1879 0.951 . S
H1856 C1881 0.951 . S
H1857 C1883 0.950 . S
H1858 C1884 0.950 . S
H1859 C1886 0.950 . S
H1860 C1889 0.950 . S
H1861 C1890 0.950 . S
H1862 C1892 0.950 . S
H1863 C1893 0.950 . S
C1864 H1846 0.951 . S
C1864 C1865 1.366 . S
C1864 C1866 1.388 . S
C1865 C1864 1.366 . S
C1865 C1869 1.385 . S
C1866 H1847 0.951 . S
C1866 C1864 1.388 . S
C1866 C1867 1.366 . S
C1867 C1866 1.366 . S
C1867 C1868 1.414 . S
C1867 C1870 1.499 . S
C1868 H1848 0.950 . S
C1868 C1867 1.414 . S
C1868 C1869 1.374 . S
C1869 H1849 0.950 . S
C1869 C1865 1.385 . S
C1869 C1868 1.374 . S
C1870 C1867 1.499 . S
C1870 C1871 1.373 . S
C1870 C1872 1.389 . S
C1871 H1850 0.950 . S
C1871 C1870 1.373 . S
C1871 C1887 1.377 . S
C1872 C1870 1.389 . S
C1872 C1873 1.524 . S
C1872 C1886 1.377 . S
C1873 C1872 1.524 . S
C1873 C1874 1.397 . S
C1873 C1878 1.363 . S
C1874 H1851 0.950 . S
C1874 C1873 1.397 . S
C1874 C1875 1.334 . S
C1875 H1852 0.950 . S
C1875 C1874 1.334 . S
C1875 C1876 1.287 . S
C1876 C1875 1.287 . S
C1876 C1877 1.524 . S
C1876 H1895 0.913 . S
C1877 H1853 0.950 1_545 S
C1877 C1876 1.524 . S
C1877 C1878 1.415 . S
C1878 H1854 0.950 . S
C1878 C1873 1.363 . S
C1878 C1877 1.415 . S
C1879 H1855 0.951 . S
C1879 C1880 1.366 . S
C1879 C1881 1.388 . S
C1880 C1879 1.366 . S
C1880 C1884 1.385 . S
C1881 H1856 0.951 . S
C1881 C1879 1.388 . S
C1881 C1882 1.366 . S
C1882 C1881 1.366 . S
C1882 C1883 1.414 . S
C1882 C1885 1.499 . S
C1883 H1857 0.950 . S
C1883 C1882 1.414 . S
C1883 C1884 1.374 . S
C1884 H1858 0.950 . S
C1884 C1880 1.385 . S
C1884 C1883 1.374 . S
C1885 C1882 1.499 . S
C1885 C1886 1.373 . S
C1885 C1887 1.389 . S
C1886 H1859 0.950 . S
C1886 C1872 1.377 . S
C1886 C1885 1.373 . S
C1887 C1871 1.377 . S
C1887 C1885 1.389 . S
C1887 C1888 1.524 . S
C1888 C1887 1.524 . S
C1888 C1889 1.397 . S
C1888 C1893 1.363 . S
C1889 H1860 0.950 . S
C1889 C1888 1.397 . S
C1889 C1890 1.334 . S
C1890 H1861 0.950 . S
C1890 C1889 1.334 . S
C1890 C1891 1.287 . S
C1891 C1890 1.287 . S
C1891 C1892 1.524 . S
C1891 H1894 0.999 . S
C1892 H1862 0.950 . S
C1892 C1891 1.524 . S
C1892 C1893 1.415 . S
C1893 H1863 0.950 . S
C1893 C1888 1.363 . S
C1893 C1892 1.415 . S
H1894 C1891 0.999 . S
H1895 C1876 0.913 . S
C415 C318 0.495 . S
C430 C21 0.494 . S
C465 C54 0.495 . S
C480 C351 0.496 . S
C515 C384 0.494 . S
C530 C87 0.495 . S
C565 C120 0.496 . S
C580 C219 0.496 . S
C615 C153 0.494 . S
C630 C252 0.494 . S
C665 C285 0.495 . S
C680 C186 0.495 . S
C715 C18 1.092 . S
C730 N134 1.005 . S
C765 N167 1.005 . S
C780 C51 1.092 . S
C815 C84 1.092 . S
C830 N2 1.004 . S
C865 C117 1.092 . S
C880 N35 1.005 . S
C915 N68 1.004 . S
C930 C150 1.093 . S
C965 N101 1.003 . S
C980 C183 1.092 . S
C1015 N266 1.004 . S
C1030 C216 1.092 . S
C1065 C249 1.092 . S
C1080 N299 1.003 . S
C1115 N332 1.004 . S
C1130 C282 1.092 . S
C1165 N365 1.004 . S
C1180 C315 1.093 . S
C1215 N200 1.003 . S
C1230 C348 1.092 . S
C1265 C381 1.092 . S
C1280 N233 1.006 . S
C1315 N343 0.620 . S
C1330 N13 0.623 . S
C1365 N376 0.620 . S
C1380 N46 0.624 . S
C1415 N79 0.623 . S
C1430 N211 0.620 . S
C1465 N112 0.620 . S
C1480 N244 0.624 . S
C1515 N277 0.620 . S
C1530 N145 0.624 . S
C1565 N178 0.623 . S
C1580 N310 0.624 . S
C1615 C205 0.728 . S
C1630 C7 0.729 . S
C1665 C238 0.727 . S
C1680 C40 0.726 . S
C1715 C73 0.726 . S
C1730 C271 0.727 . S
C1765 C304 0.727 . S
C1780 C106 0.728 . S
C1815 C139 0.728 . S
C1830 C337 0.728 . S
C1865 C370 0.726 . S
C1880 C172 0.727 . S
