# Generated by pormake.
# Topology umf, (4)-cn, num edge types: 1
# Building blocks:
#     Node 0, Type 0, BuildingBlock: NAWXER_clean_sbu_0, # of connection points: 4
#     Node 1, Type 0, BuildingBlock: NAWXER_clean_sbu_0, # of connection points: 4
#     Node 2, Type 0, BuildingBlock: NAWXER_clean_sbu_0, # of connection points: 4
#     Node 3, Type 0, BuildingBlock: NAWXER_clean_sbu_0, # of connection points: 4
#     Node 4, Type 0, BuildingBlock: NAWXER_clean_sbu_0, # of connection points: 4
#     Node 5, Type 0, BuildingBlock: NAWXER_clean_sbu_0, # of connection points: 4
#     Node 6, Type 0, BuildingBlock: NAWXER_clean_sbu_0, # of connection points: 4
#     Node 7, Type 0, BuildingBlock: NAWXER_clean_sbu_0, # of connection points: 4
#     Edge 8, Type (0, 0), BuildingBlock: FUNLAD_clean_linker_1, # of connection points: 2
#     Edge 9, Type (0, 0), BuildingBlock: FUNLAD_clean_linker_1, # of connection points: 2
#     Edge 10, Type (0, 0), BuildingBlock: FUNLAD_clean_linker_1, # of connection points: 2
#     Edge 11, Type (0, 0), BuildingBlock: FUNLAD_clean_linker_1, # of connection points: 2
#     Edge 12, Type (0, 0), BuildingBlock: FUNLAD_clean_linker_1, # of connection points: 2
#     Edge 13, Type (0, 0), BuildingBlock: FUNLAD_clean_linker_1, # of connection points: 2
#     Edge 14, Type (0, 0), BuildingBlock: FUNLAD_clean_linker_1, # of connection points: 2
#     Edge 15, Type (0, 0), BuildingBlock: FUNLAD_clean_linker_1, # of connection points: 2
#     Edge 16, Type (0, 0), BuildingBlock: FUNLAD_clean_linker_1, # of connection points: 2
#     Edge 17, Type (0, 0), BuildingBlock: FUNLAD_clean_linker_1, # of connection points: 2
#     Edge 18, Type (0, 0), BuildingBlock: FUNLAD_clean_linker_1, # of connection points: 2
#     Edge 19, Type (0, 0), BuildingBlock: FUNLAD_clean_linker_1, # of connection points: 2
#     Edge 20, Type (0, 0), BuildingBlock: FUNLAD_clean_linker_1, # of connection points: 2
#     Edge 21, Type (0, 0), BuildingBlock: FUNLAD_clean_linker_1, # of connection points: 2
#     Edge 22, Type (0, 0), BuildingBlock: FUNLAD_clean_linker_1, # of connection points: 2
#     Edge 23, Type (0, 0), BuildingBlock: FUNLAD_clean_linker_1, # of connection points: 2
# Relax obj value: 0.064
# Max RMSD: 0.167
# Mean RMSD: 0.166
data_MOF--net-umf--node1-NAWXER_clean_sbu_0--edge1-FUNLAD_clean_linker_1
_symmetry_space_group_name_H-M    P1
_symmetry_Int_Tables_number       1
_symmetry_cell_setting            triclinic
loop_
_symmetry_equiv_pos_as_xyz
'x, y, z'
_cell_length_a     30.0109
_cell_length_b     30.15848
_cell_length_c     55.147959
_cell_angle_alpha  89.740741
_cell_angle_beta   89.984254
_cell_angle_gamma 90.147213
loop_
_atom_site_label
_atom_site_type_symbol
_atom_site_fract_x
_atom_site_fract_y
_atom_site_fract_z
_atom_type_partial_charge
C0 C 0.10406 0.23959 0.20244 0.0
C1 C 0.05836 0.26184 0.11804 0.0
O2 O 0.06187 0.23644 0.19937 0.0
Zn3 Zn 0.01463 0.24254 0.17033 0.0
O4 O 0.12898 0.25011 0.18466 0.0
Zn5 Zn 0.08208 0.25338 0.16035 0.0
O6 O 0.04586 0.31215 0.16994 0.0
O7 O 0.97765 0.29141 0.17992 0.0
O8 O 0.09751 0.26433 0.12671 0.0
O9 O 0.02537 0.25407 0.13225 0.0
O10 O 0.98893 0.18414 0.1706 0.0
O11 O 0.05977 0.18542 0.1595 0.0
C12 C 0.00635 0.32191 0.177 0.0
C13 C 0.02391 0.16375 0.16402 0.0
C14 C 0.75511 0.10342 0.70299 0.0
C15 C 0.74497 0.0635 0.61747 0.0
O16 O 0.75685 0.06139 0.69982 0.0
Zn17 Zn 0.7551 0.01619 0.6697 0.0
O18 O 0.75006 0.12902 0.68485 0.0
Zn19 Zn 0.74866 0.0835 0.66021 0.0
O20 O 0.6865 0.04858 0.66657 0.0
O21 O 0.70442 0.97984 0.67648 0.0
O22 O 0.74316 0.10188 0.62678 0.0
O23 O 0.74923 0.02936 0.63127 0.0
O24 O 0.812 0.98806 0.67198 0.0
O25 O 0.81616 0.05869 0.6614 0.0
C26 C 0.67491 0.00899 0.6726 0.0
C27 C 0.83527 0.02173 0.66626 0.0
C28 C 0.98264 0.66577 0.18278 0.0
C29 C 0.97768 0.8252 0.16975 0.0
O30 O 0.94799 0.67768 0.17081 0.0
Zn31 Zn 0.91928 0.73843 0.15776 0.0
O32 O 0.01002 0.69484 0.19017 0.0
Zn33 Zn 0.98048 0.74586 0.1767 0.0
O34 O 0.92179 0.75298 0.1986 0.0
O35 O 0.86316 0.74299 0.17511 0.0
O36 O 0.00785 0.8033 0.18065 0.0
O37 O 0.94402 0.80512 0.16063 0.0
O38 O 0.91911 0.72998 0.12289 0.0
O39 O 0.98682 0.73596 0.13825 0.0
C40 C 0.87937 0.75162 0.19584 0.0
C41 C 0.96115 0.73063 0.11993 0.0
C42 C 0.33197 0.96681 0.67493 0.0
C43 C 0.17239 0.94693 0.66848 0.0
O44 O 0.32243 0.92843 0.6664 0.0
Zn45 Zn 0.2625 0.89154 0.65864 0.0
O46 O 0.30096 0.9928 0.68114 0.0
Zn47 Zn 0.25195 0.95545 0.67216 0.0
O48 O 0.25123 0.90341 0.6993 0.0
O49 O 0.26616 0.84112 0.68017 0.0
O50 O 0.19412 0.98039 0.67591 0.0
O51 O 0.19319 0.91201 0.66161 0.0
O52 O 0.26829 0.8804 0.62447 0.0
O53 O 0.25759 0.95104 0.63299 0.0
C54 C 0.25723 0.86128 0.69969 0.0
C55 C 0.26371 0.9202 0.61735 0.0
C56 C 0.01308 0.83062 0.88625 0.0
C57 C 0.00379 0.67105 0.87603 0.0
O58 O 0.04798 0.81059 0.89391 0.0
Zn59 Zn 0.07251 0.74375 0.89634 0.0
O60 O 0.98104 0.80867 0.8771 0.0
Zn61 Zn 0.00807 0.75126 0.88053 0.0
O62 O 0.00855 0.74307 0.91913 0.0
O63 O 0.07835 0.7361 0.93129 0.0
O64 O 0.97554 0.70005 0.86963 0.0
O65 O 0.04058 0.68307 0.88588 0.0
O66 O 0.12526 0.74668 0.87567 0.0
O67 O 0.06238 0.75664 0.85561 0.0
C68 C 0.03694 0.73775 0.93621 0.0
C69 C 0.10497 0.75465 0.85588 0.0
C70 C 0.16785 0.02101 0.39031 0.0
C71 C 0.32893 0.03315 0.3881 0.0
O72 O 0.18086 0.05896 0.39818 0.0
Zn73 Zn 0.24469 0.09213 0.40355 0.0
O74 O 0.19629 0.99289 0.38321 0.0
Zn75 Zn 0.24796 0.02839 0.38895 0.0
O76 O 0.24948 0.03135 0.42831 0.0
O77 O 0.24509 0.10218 0.4379 0.0
O78 O 0.30409 0.00177 0.38093 0.0
O79 O 0.31137 0.06838 0.39679 0.0
O80 O 0.24085 0.14379 0.38312 0.0
O81 O 0.23996 0.08129 0.36247 0.0
C82 C 0.24805 0.06193 0.44444 0.0
C83 C 0.23797 0.12382 0.36301 0.0
C84 C 0.96361 0.16827 0.89286 0.0
C85 C 0.98112 0.32743 0.88403 0.0
O86 O 0.9278 0.18916 0.89806 0.0
Zn87 Zn 0.90544 0.25668 0.89909 0.0
O88 O 0.99845 0.18958 0.88673 0.0
Zn89 Zn 0.97288 0.24785 0.88878 0.0
O90 O 0.96234 0.25574 0.92713 0.0
O91 O 0.89007 0.26394 0.93293 0.0
O92 O 0.01 0.29749 0.88057 0.0
O93 O 0.94154 0.31678 0.89079 0.0
O94 O 0.85835 0.25505 0.87492 0.0
O95 O 0.92568 0.24616 0.85952 0.0
C96 C 0.92927 0.26156 0.94151 0.0
C97 C 0.88339 0.24856 0.85668 0.0
C98 C 0.82407 0.98273 0.38855 0.0
C99 C 0.66532 0.9526 0.38554 0.0
O100 O 0.81492 0.94393 0.39691 0.0
Zn101 Zn 0.75551 0.90369 0.40191 0.0
O102 O 0.79304 0.00724 0.38056 0.0
Zn103 Zn 0.74521 0.96641 0.38658 0.0
O104 O 0.7436 0.96399 0.42598 0.0
O105 O 0.755 0.89414 0.43635 0.0
O106 O 0.68664 0.98653 0.37831 0.0
O107 O 0.68657 0.91949 0.39447 0.0
O108 O 0.76756 0.85292 0.38203 0.0
O109 O 0.75882 0.91427 0.36066 0.0
C110 C 0.7479 0.93401 0.44243 0.0
C111 C 0.76694 0.8725 0.36164 0.0
H112 H 0.95945 0.37567 0.18614 0.0
C113 C 0.99352 0.36854 0.18074 0.0
H114 H 0.05563 0.39549 0.17015 0.0
H115 H 0.97751 0.57629 0.13227 0.0
H116 H 0.99452 0.53961 0.0944 0.0
H117 H 0.01722 0.46106 0.09382 0.0
H118 H 0.02319 0.41878 0.13117 0.0
C119 C 0.02202 0.40212 0.17649 0.0
C120 C 0.00715 0.44907 0.17713 0.0
C121 C 0.00358 0.47322 0.15511 0.0
C122 C 0.98987 0.51828 0.15541 0.0
C123 C 0.98716 0.54178 0.13313 0.0
C124 C 0.99696 0.52117 0.11123 0.0
C125 C 0.00978 0.47697 0.11091 0.0
C126 C 0.01313 0.45311 0.13251 0.0
H127 H 0.02334 0.60938 0.19555 0.0
C128 C 0.9924 0.61835 0.18655 0.0
H129 H 0.93562 0.59507 0.16786 0.0
H130 H 0.0135 0.41314 0.22271 0.0
H131 H 0.99375 0.44891 0.26052 0.0
H132 H 0.96591 0.52581 0.26084 0.0
H133 H 0.9583 0.56761 0.22339 0.0
C134 C 0.96577 0.58639 0.1777 0.0
C135 C 0.97962 0.53908 0.17774 0.0
C136 C 0.98255 0.51474 0.19975 0.0
C137 C 0.99703 0.46985 0.19948 0.0
C138 C 0.00142 0.44685 0.22179 0.0
C139 C 0.99038 0.46706 0.24364 0.0
C140 C 0.97483 0.5104 0.24383 0.0
C141 C 0.97085 0.53411 0.2222 0.0
H142 H 0.38507 0.01442 0.68431 0.0
C143 C 0.37859 0.98174 0.67683 0.0
H144 H 0.40667 0.92514 0.66043 0.0
H145 H 0.57947 0.02237 0.62274 0.0
H146 H 0.53985 0.00949 0.58508 0.0
H147 H 0.46266 0.98112 0.58534 0.0
H148 H 0.42477 0.9651 0.62323 0.0
C149 C 0.41275 0.95707 0.66888 0.0
C150 C 0.45911 0.97457 0.66898 0.0
C151 C 0.48057 0.98417 0.64665 0.0
C152 C 0.52482 0.00113 0.6465 0.0
C153 C 0.54572 0.00984 0.62392 0.0
C154 C 0.52338 0.00256 0.60216 0.0
C155 C 0.47994 0.98655 0.6023 0.0
C156 C 0.45861 0.97742 0.62421 0.0
H157 H 0.61969 0.963 0.68066 0.0
C158 C 0.62762 -0.00355 0.67456 0.0
H159 H 0.60171 0.05689 0.66115 0.0
H160 H 0.42924 0.9559 0.71494 0.0
H161 H 0.46792 0.97124 0.75258 0.0
H162 H 0.54274 0.00532 0.75233 0.0
H163 H 0.5796 0.02354 0.71441 0.0
C164 C 0.59448 0.02403 0.66831 0.0
C165 C 0.54742 0.00856 0.66868 0.0
C166 C 0.52568 -0.00026 0.69103 0.0
C167 C 0.4818 0.98186 0.69119 0.0
C168 C 0.46184 0.9711 0.71375 0.0
C169 C 0.4838 0.97947 0.73551 0.0
C170 C 0.52598 -0.0015 0.73537 0.0
C171 C 0.54685 0.00858 0.71346 0.0
H172 H 0.02728 0.38204 0.87474 0.0
C173 C 0.99363 0.37432 0.88078 0.0
H174 H 0.93211 0.40032 0.89273 0.0
H175 H 0.01611 0.58151 0.92735 0.0
H176 H 0.00468 0.54457 0.966 0.0
H177 H 0.98196 0.46593 0.96781 0.0
H178 H 0.97029 0.42387 0.93096 0.0
C179 C 0.96526 0.4074 0.88576 0.0
C180 C 0.97968 0.45447 0.88438 0.0
C181 C 0.9865 0.47849 0.90609 0.0
C182 C 0.00019 0.52359 0.90504 0.0
C183 C 0.00627 0.54698 0.92704 0.0
C184 C -0.00027 0.52621 0.94938 0.0
C185 C 0.98689 0.48196 0.9504 0.0
C186 C 0.98026 0.45823 0.92909 0.0
H187 H 0.96084 0.61446 0.86596 0.0
C188 C 0.99306 0.6236 0.87346 0.0
H189 H 0.05239 0.60072 0.88985 0.0
H190 H 0.96691 0.41856 0.83936 0.0
H191 H 0.98132 0.45447 0.80068 0.0
H192 H 0.00912 0.53147 0.79887 0.0
H193 H 0.02203 0.57322 0.8357 0.0
C194 C 0.02083 0.59187 0.88147 0.0
C195 C 0.0071 0.54451 0.88225 0.0
C196 C 0.00102 0.52024 0.86052 0.0
C197 C 0.98658 0.47533 0.86159 0.0
C198 C 0.97907 0.45234 0.83963 0.0
C199 C 0.98704 0.47261 0.81729 0.0
C200 C 0.00257 0.51601 0.81627 0.0
C201 C 0.00959 0.53969 0.83756 0.0
H202 H 0.39769 0.05719 0.39343 0.0
C203 C 0.37787 0.02923 0.38722 0.0
H204 H 0.37926 0.96426 0.37297 0.0
H205 H 0.57607 0.98333 0.33243 0.0
H206 H 0.53345 0.98359 0.29504 0.0
H207 H 0.45132 0.98655 0.29584 0.0
H208 H 0.41127 0.9891 0.33403 0.0
C209 C 0.39844 0.99217 0.37978 0.0
C210 C 0.44792 0.98901 0.37948 0.0
C211 C 0.47078 0.98753 0.35701 0.0
C212 C 0.51815 0.98629 0.35654 0.0
C213 C 0.54014 0.98473 0.33383 0.0
C214 C 0.51609 0.98478 0.31223 0.0
C215 C 0.46984 0.98641 0.31268 0.0
C216 C 0.44727 0.98782 0.33474 0.0
H217 H 0.59923 0.92194 0.39134 0.0
C218 C 0.61619 0.95162 0.38489 0.0
H219 H 0.60849 0.01649 0.37084 0.0
H220 H 0.41437 0.9856 0.42571 0.0
H221 H 0.45689 0.98676 0.46307 0.0
H222 H 0.53906 0.98937 0.46226 0.0
H223 H 0.57912 0.99012 0.42411 0.0
C224 C 0.59212 0.98689 0.37781 0.0
C225 C 0.54256 0.98645 0.37854 0.0
C226 C 0.51969 0.98754 0.40106 0.0
C227 C 0.47229 0.98793 0.40153 0.0
C228 C 0.45028 0.98695 0.42426 0.0
C229 C 0.4743 0.98732 0.44587 0.0
C230 C 0.52055 0.98865 0.44541 0.0
C231 C 0.54315 0.98883 0.42334 0.0
H232 H 0.90765 0.26511 0.97984 0.0
C233 C 0.93656 0.26412 0.96798 0.0
H234 H 0.00699 0.26436 0.96608 0.0
H235 H 0.02464 0.34622 0.07221 0.0
H236 H 0.03242 0.41371 0.04848 0.0
H237 H 0.0191 0.41355 1.00433 0.0
H238 H 0.99747 0.3459 0.98366 0.0
C239 C 0.97772 0.26419 0.97768 0.0
C240 C 0.98505 0.26431 1.00439 0.0
C241 C 0.99859 0.30383 1.01613 0.0
C242 C 0.00697 0.30375 0.04155 0.0
C243 C 0.01886 0.34412 0.0529 0.0
C244 C 0.02324 0.38317 0.0395 0.0
C245 C 0.01569 0.3831 1.01464 0.0
C246 C 0.0034 0.34403 1.003 0.0
H247 H 0.07963 0.27215 0.07994 0.0
C248 C 0.05096 0.26673 0.09164 0.0
H249 H 0.98136 0.25644 0.09332 0.0
H250 H 0.9617 0.18231 0.98734 0.0
H251 H 0.95419 0.11472 1.01097 0.0
H252 H 0.96859 0.1145 0.05502 0.0
H253 H 0.99078 0.18183 0.07567 0.0
C254 C 0.01 0.26335 0.08183 0.0
C255 C 0.00253 0.26388 0.05511 0.0
C256 C 0.98899 0.22434 0.04334 0.0
C257 C 0.98044 0.22449 1.01795 0.0
C258 C 0.96803 0.18425 1.00661 0.0
C259 C 0.96373 0.14514 1.01995 0.0
C260 C 0.97184 0.14502 0.04475 0.0
C261 C 0.98443 0.18398 0.05639 0.0
H262 H 0.7413 0.08813 0.57966 0.0
C263 C 0.74306 0.05843 0.59086 0.0
H264 H 0.74451 0.98835 0.59121 0.0
H265 H 0.66021 0.96686 0.4869 0.0
H266 H 0.59517 0.95158 0.51178 0.0
H267 H 0.59689 0.96421 0.55595 0.0
H268 H 0.66357 0.99245 0.5755 0.0
C269 C 0.74413 0.01838 0.58025 0.0
C270 C 0.74263 0.01319 0.55342 0.0
C271 C 0.70357 -0.00373 0.54231 0.0
C272 C 0.70269 0.98862 0.51688 0.0
C273 C 0.66292 0.97256 0.5062 0.0
C274 C 0.6253 0.96383 0.52025 0.0
C275 C 0.62625 0.97098 0.54512 0.0
C276 C 0.66479 0.98707 0.55612 0.0
H277 H 0.74685 0.91845 0.48157 0.0
C278 C 0.74501 0.94532 0.4684 0.0
H279 H 0.74107 0.0148 0.46345 0.0
H280 H 0.82353 0.04447 0.569 0.0
H281 H 0.88807 0.06063 0.54399 0.0
H282 H 0.886 0.04861 0.49979 0.0
H283 H 0.81943 0.01997 0.48034 0.0
C284 C 0.74126 0.98728 0.47623 0.0
C285 C 0.74107 -0.00254 0.50263 0.0
C286 C 0.7798 0.01533 0.51363 0.0
C287 C 0.78076 0.02284 0.53909 0.0
C288 C 0.82057 0.03898 0.5497 0.0
C289 C 0.85797 0.04822 0.53557 0.0
C290 C 0.85683 0.0414 0.51068 0.0
C291 C 0.81837 0.02502 0.49975 0.0
H292 H 0.01777 0.72533 0.09473 0.0
C293 C 0.98159 0.72647 0.0957 0.0
H294 H 0.92193 0.72953 0.07546 0.0
H295 H 0.02646 0.81371 0.98567 0.0
H296 H 0.99071 0.87919 1.0019 0.0
H297 H 0.95003 0.87598 0.04075 0.0
H298 H 0.94497 0.80726 0.06363 0.0
C299 C 0.95797 0.72631 0.07504 0.0
C300 C 0.98102 0.72729 0.0511 0.0
C301 C 0.98288 0.76748 0.03769 0.0
C302 C 0.00573 0.76915 1.01509 0.0
C303 C 0.00845 0.81019 1.00256 0.0
C304 C 0.98837 0.84816 1.01177 0.0
C305 C 0.96551 0.84636 0.03365 0.0
C306 C 0.96281 0.80665 0.04658 0.0
H307 H 0.9842 0.7378 0.96379 0.0
C308 C 0.02004 0.73507 0.96129 0.0
H309 H 0.08192 0.72689 0.97909 0.0
H310 H 0.98284 0.6447 0.07187 0.0
H311 H 0.01862 0.57916 0.05557 0.0
H312 H 0.05799 0.58203 1.01634 0.0
H313 H 0.06203 0.65052 0.99313 0.0
C314 C 0.04612 0.73094 0.98093 0.0
C315 C 0.0258 0.73032 1.00563 0.0
C316 C 0.02447 0.69029 1.01919 0.0
C317 C 0.00191 0.68871 0.0419 0.0
C318 C 0.0001 0.64796 0.05472 0.0
C319 C 0.02031 0.61003 0.04553 0.0
C320 C 0.04247 0.61164 1.02342 0.0
C321 C 0.04455 0.65117 1.01029 0.0
H322 H 0.24574 0.07779 0.48345 0.0
C323 C 0.24918 0.05087 0.47054 0.0
H324 H 0.25899 0.98196 0.4662 0.0
H325 H 0.34247 0.96256 0.57187 0.0
H326 H 0.40921 0.95788 0.54724 0.0
H327 H 0.40625 0.97165 0.50314 0.0
H328 H 0.33651 0.99052 0.48342 0.0
C329 C 0.25399 0.00914 0.47876 0.0
C330 C 0.25514 -0.00081 0.50525 0.0
C331 C 0.29593 0.98712 0.51641 0.0
C332 C 0.29749 0.97846 0.54179 0.0
C333 C 0.33908 0.9683 0.55259 0.0
C334 C 0.37774 0.96579 0.53868 0.0
C335 C 0.37609 0.97359 0.51385 0.0
C336 C 0.33581 0.9843 0.50276 0.0
H337 H 0.27064 0.90334 0.57859 0.0
C338 C 0.26507 0.93045 0.59115 0.0
H339 H 0.25188 -0.0011 0.59471 0.0
H340 H 0.17081 0.01811 0.48927 0.0
H341 H 0.10401 0.02271 0.51384 0.0
H342 H 0.10682 0.00848 0.5579 0.0
H343 H 0.1764 0.98924 0.57762 0.0
C344 C 0.25906 0.97173 0.58245 0.0
C345 C 0.258 0.98099 0.55589 0.0
C346 C 0.21718 0.99295 0.5447 0.0
C347 C 0.21566 0.00171 0.51933 0.0
C348 C 0.17413 0.01213 0.50853 0.0
C349 C 0.13543 0.01463 0.52241 0.0
C350 C 0.137 0.00656 0.54721 0.0
C351 C 0.17723 0.99568 0.55831 0.0
H352 H 0.09873 0.21559 0.23992 0.0
C353 C 0.12241 0.22708 0.22632 0.0
H354 H 0.1904 0.23574 0.2178 0.0
H355 H 0.15754 0.19426 0.3376 0.0
H356 H 0.11706 0.26344 0.33843 0.0
H357 H 0.10866 0.3088 0.30139 0.0
H358 H 0.1394 0.28407 0.26306 0.0
C359 C 0.16618 0.22592 0.23146 0.0
C360 C 0.18207 0.20557 0.25471 0.0
C361 C 0.16741 0.22231 0.27736 0.0
C362 C 0.17553 0.19798 0.2991 0.0
C363 C 0.15554 0.21287 0.32087 0.0
C364 C 0.13163 0.25238 0.32156 0.0
C365 C 0.12667 0.27777 0.30068 0.0
C366 C 0.14417 0.26303 0.27878 0.0
H367 H 0.24059 0.18466 0.34063 0.0
C368 C 0.23123 0.14982 0.34057 0.0
H369 H 0.2014 0.09778 0.32104 0.0
H370 H 0.21713 0.16503 0.21461 0.0
H371 H 0.263 0.09915 0.21411 0.0
H372 H 0.28297 0.06075 0.25214 0.0
H373 H 0.25658 0.08762 0.29087 0.0
C374 C 0.21091 0.13259 0.32101 0.0
C375 C 0.20215 0.15903 0.2985 0.0
C376 C 0.21925 0.14392 0.276 0.0
C377 C 0.20874 0.16682 0.25409 0.0
C378 C 0.22465 0.1496 0.23185 0.0
C379 C 0.25104 0.1117 0.23128 0.0
C380 C 0.26222 0.09004 0.25268 0.0
C381 C 0.24667 0.10579 0.27481 0.0
H382 H 0.8881 0.24201 0.81712 0.0
C383 C 0.8651 0.24006 0.83233 0.0
H384 H 0.80056 0.22076 0.84362 0.0
H385 H 0.71705 0.22383 0.73775 0.0
H386 H 0.67714 0.28419 0.75684 0.0
H387 H 0.69804 0.31016 0.79764 0.0
H388 H 0.75876 0.27564 0.81974 0.0
C389 C 0.82402 0.22357 0.82867 0.0
C390 C 0.81044 0.2068 0.8043 0.0
C391 C 0.77515 0.22751 0.79152 0.0
C392 C 0.76355 0.21295 0.76779 0.0
C393 C 0.72767 0.23388 0.75565 0.0
C394 C 0.70442 0.26853 0.76642 0.0
C395 C 0.71616 0.28313 0.7894 0.0
C396 C 0.75107 0.26301 0.80189 0.0
H397 H 0.75979 0.09771 0.74272 0.0
C398 C 0.7618 0.12101 0.72765 0.0
H399 H 0.77735 0.18659 0.717 0.0
H400 H 0.87365 0.15343 0.82544 0.0
H401 H 0.91644 0.09604 0.80569 0.0
H402 H 0.90336 0.07767 0.76273 0.0
H403 H 0.84629 0.11553 0.73961 0.0
C404 C 0.77513 0.16288 0.73185 0.0
C405 C 0.7876 0.178 0.75673 0.0
C406 C 0.82345 0.1577 0.76942 0.0
C407 C 0.83348 0.17073 0.79358 0.0
C408 C 0.86652 0.14694 0.80657 0.0
C409 C 0.89111 0.11355 0.79552 0.0
C410 C 0.88355 0.10304 0.77139 0.0
C411 C 0.85026 0.12478 0.7584 0.0
H412 H 0.79264 0.81448 0.34192 0.0
C413 C 0.77907 0.84761 0.3396 0.0
H414 H 0.76383 0.89879 0.31484 0.0
H415 H 0.90568 0.84937 0.23592 0.0
H416 H 0.9298 0.92225 0.24861 0.0
H417 H 0.89462 0.9593 0.28345 0.0
H418 H 0.83436 0.92402 0.30547 0.0
C419 C 0.77653 0.86534 0.31722 0.0
C420 C 0.79679 0.84285 0.29579 0.0
C421 C 0.83265 0.86369 0.28338 0.0
C422 C 0.854 0.84173 0.26379 0.0
C423 C 0.88897 0.8639 0.25134 0.0
C424 C 0.90315 0.90589 0.25838 0.0
C425 C 0.88322 0.92678 0.27794 0.0
C426 C 0.84846 0.90611 0.29037 0.0
H427 H 0.81471 0.77016 0.21233 0.0
C428 C 0.84986 0.76483 0.21606 0.0
H429 H 0.90191 0.77045 0.24151 0.0
H430 H 0.72411 0.79689 0.31253 0.0
H431 H 0.70109 0.72302 0.30052 0.0
H432 H 0.74261 0.68207 0.2692 0.0
H433 H 0.8067 0.71513 0.2493 0.0
C434 C 0.86648 0.77453 0.23809 0.0
C435 C 0.84035 0.79844 0.25696 0.0
C436 C 0.80399 0.77789 0.26905 0.0
C437 C 0.78144 0.80061 0.28805 0.0
C438 C 0.74368 0.78035 0.29883 0.0
C439 C 0.7299 0.73809 0.29197 0.0
C440 C 0.75317 0.7151 0.27427 0.0
C441 C 0.78981 0.73458 0.2629 0.0
H442 H 0.26385 0.80185 0.72306 0.0
C443 C 0.25159 0.83572 0.72241 0.0
H444 H 0.21636 0.88583 0.7407 0.0
H445 H 0.15341 0.70283 0.80005 0.0
H446 H 0.12826 0.67408 0.76132 0.0
H447 H 0.14162 0.71603 0.72349 0.0
H448 H 0.18139 0.78578 0.72401 0.0
C449 C 0.2285 0.85191 0.7413 0.0
C450 C 0.21949 0.82573 0.76387 0.0
C451 C 0.19374 0.7861 0.76321 0.0
C452 C 0.18292 0.76356 0.7852 0.0
C453 C 0.16021 0.72243 0.78398 0.0
C454 C 0.14591 0.70541 0.76188 0.0
C455 C 0.15365 0.7289 0.74058 0.0
C456 C 0.17707 0.76883 0.74113 0.0
H457 H 0.10848 0.77508 0.81779 0.0
C458 C 0.12887 0.76506 0.83317 0.0
H459 H 0.19447 0.75686 0.84613 0.0
H460 H 0.27315 0.89779 0.77158 0.0
H461 H 0.29566 0.92749 0.8105 0.0
H462 H 0.27164 0.8917 0.84863 0.0
H463 H 0.22551 0.82571 0.84812 0.0
C464 C 0.17344 0.76539 0.83079 0.0
C465 C 0.19417 0.7826 0.80789 0.0
C466 C 0.22122 0.82121 0.80853 0.0
C467 C 0.23423 0.84248 0.78651 0.0
C468 C 0.26154 0.8808 0.78772 0.0
C469 C 0.27485 0.89814 0.80994 0.0
C470 C 0.26137 0.87795 0.83141 0.0
C471 C 0.23484 0.84001 0.83083 0.0
H472 H 0.05542 0.09981 0.15595 0.0
C473 C 0.02506 0.11512 0.16264 0.0
H474 H 0.9621 0.10391 0.1787 0.0
H475 H 0.024 0.91036 0.12983 0.0
H476 H 0.01602 0.94725 0.0909 0.0
H477 H 0.99749 0.02683 0.08857 0.0
H478 H 0.98775 0.07007 0.12514 0.0
C479 C 0.99174 0.08931 0.17075 0.0
C480 C 0.99734 0.04041 0.17194 0.0
C481 C 0.00093 0.01529 0.15035 0.0
C482 C 0.00926 0.96899 0.15169 0.0
C483 C 0.01551 0.94519 0.12986 0.0
C484 C 0.01141 0.96604 0.10739 0.0
C485 C 0.00117 0.01086 0.10607 0.0
C486 C 0.99595 0.03537 0.12723 0.0
H487 H 0.95145 0.89022 0.15914 0.0
C488 C 0.97957 0.87375 0.16773 0.0
H489 H 0.04132 0.88272 0.18546 0.0
H490 H 0.99363 0.07918 0.21675 0.0
H491 H -4e-05 0.0419 0.25565 0.0
H492 H 0.01114 0.96102 0.25798 0.0
H493 H 0.01622 0.9169 0.22143 0.0
C494 C 0.01352 0.89825 0.17613 0.0
C495 C 0.01141 0.94748 0.17461 0.0
C496 C 0.00821 0.97265 0.19619 0.0
C497 C 0.00121 0.0192 0.19485 0.0
C498 C 0.99852 0.04366 0.21668 0.0
C499 C 0.00215 0.02269 0.23915 0.0
C500 C 0.00851 0.97716 0.24047 0.0
C501 C 0.01137 0.95223 0.21931 0.0
H502 H 0.10601 0.91842 0.66114 0.0
C503 C 0.12338 0.94781 0.66754 0.0
H504 H 0.1167 0.01282 0.68122 0.0
H505 H 0.92227 0.97462 0.62658 0.0
H506 H 0.96466 0.97416 0.58912 0.0
H507 H 0.04669 0.97965 0.5897 0.0
H508 H 0.0868 0.98502 0.62771 0.0
C509 C 0.09992 0.98367 0.67411 0.0
C510 C 0.05044 0.98369 0.67341 0.0
C511 C 0.02755 0.98194 0.65091 0.0
C512 C 0.98021 0.98049 0.65051 0.0
C513 C 0.95816 0.97704 0.62789 0.0
C514 C 0.98209 0.97658 0.60625 0.0
C515 C 0.02827 0.97954 0.60658 0.0
C516 C 0.05091 0.98228 0.62857 0.0
H517 H 0.90255 0.04838 0.65939 0.0
C518 C 0.88418 0.01919 0.66538 0.0
H519 H 0.88894 0.95386 0.67923 0.0
H520 H 0.08402 0.98824 0.71957 0.0
H521 H 0.0413 0.99296 0.75685 0.0
H522 H 0.95909 0.99331 0.75595 0.0
H523 H 0.91913 0.98827 0.71784 0.0
C524 C 0.90651 0.98276 0.67224 0.0
C525 C 0.95594 0.98249 0.67254 0.0
C526 C 0.97875 0.98528 0.69497 0.0
C527 C 0.02609 0.98581 0.69542 0.0
C528 C 0.04807 0.98825 0.71812 0.0
C529 C 0.02396 0.9909 0.73967 0.0
C530 C 0.97769 0.99101 0.73918 0.0
C531 C 0.95517 0.98811 0.71717 0.0
H532 H 0.9324 0.10344 0.89967 0.0
C533 C 0.96273 0.11957 0.89333 0.0
H534 H 0.02637 0.11013 0.87783 0.0
H535 H 0.96648 0.91461 0.92633 0.0
H536 H 0.97264 0.95124 0.96526 0.0
H537 H 0.9896 0.03122 0.96759 0.0
H538 H -0.00028 0.07507 0.93104 0.0
C539 C 0.99662 0.09472 0.88534 0.0
C540 C 0.99197 0.04572 0.88418 0.0
C541 C 0.9881 0.02032 0.9058 0.0
C542 C 0.98051 0.97389 0.90449 0.0
C543 C 0.9742 0.94966 0.9263 0.0
C544 C 0.97731 0.97034 0.94877 0.0
C545 C 0.9867 0.01538 0.95009 0.0
C546 C 0.99211 0.04023 0.92893 0.0
H547 H 0.04021 0.89571 0.89608 0.0
C548 C 0.01155 0.87915 0.88809 0.0
H549 H 0.9488 0.88794 0.87134 0.0
H550 H 0.9969 0.08493 0.8393 0.0
H551 H 0.99332 0.04766 0.80043 0.0
H552 H 0.98383 0.9665 0.79826 0.0
H553 H 0.9772 0.92219 0.83488 0.0
C554 C 0.97713 0.90348 0.88019 0.0
C555 C 0.97923 0.95263 0.8816 0.0
C556 C 0.98315 0.97798 0.86 0.0
C557 C 0.9894 0.02465 0.86129 0.0
C558 C 0.99268 0.04929 0.83941 0.0
C559 C 0.99064 0.02834 0.81696 0.0
C560 C 0.98522 0.98266 0.81573 0.0
C561 C 0.98149 0.95761 0.83692 0.0
H562 H 0.8767 0.03187 0.38044 0.0
C563 C 0.87038 -0.00092 0.38799 0.0
H564 H 0.8987 0.94256 0.40466 0.0
H565 H 0.07293 0.03611 0.34989 0.0
H566 H 0.03606 0.01659 0.31226 0.0
H567 H 0.96059 0.98405 0.31251 0.0
H568 H 0.92115 0.97171 0.35032 0.0
C569 C 0.90459 0.97476 0.39631 0.0
C570 C 0.951 0.99216 0.39598 0.0
C571 C 0.97411 -0.00235 0.37371 0.0
C572 C 0.01845 0.01444 0.37363 0.0
C573 C 0.03993 0.02176 0.35108 0.0
C574 C 0.01904 0.01099 0.32932 0.0
C575 C 0.97647 0.99283 0.32946 0.0
C576 C 0.95411 0.98615 0.35132 0.0
H577 H 0.11114 0.97648 0.3831 0.0
C578 C 0.12016 0.00939 0.38944 0.0
H579 H 0.0963 0.07016 0.4032 0.0
H580 H 0.91567 0.98668 0.44169 0.0
H581 H 0.95341 0.00405 0.47939 0.0
H582 H 0.03136 0.03024 0.47936 0.0
H583 H 0.07196 0.03954 0.44164 0.0
C584 C 0.08792 0.03762 0.39612 0.0
C585 C 0.04028 0.02373 0.39587 0.0
C586 C 0.01709 0.01843 0.41811 0.0
C587 C 0.97237 0.00271 0.41815 0.0
C588 C 0.94986 -0.00199 0.44061 0.0
C589 C 0.97109 0.00794 0.46239 0.0
C590 C 0.01496 0.02272 0.46237 0.0
C591 C 0.03787 0.02795 0.44057 0.0
loop_
_geom_bond_atom_site_label_1
_geom_bond_atom_site_label_2
_geom_bond_distance
_geom_bond_site_symmetry_2
_ccdc_geom_bond_type
C0 O2 1.247 . S
C0 O4 1.258 . S
C1 O8 1.247 . S
C1 O9 1.258 . S
O2 C0 1.247 . S
O2 Zn3 2.028 . S
Zn3 O2 2.028 . S
Zn3 O7 2.035 . S
Zn3 O9 2.035 . S
Zn3 O10 2.028 . S
O4 C0 1.258 . S
O4 Zn5 2.035 . S
Zn5 O4 2.035 . S
Zn5 O6 2.028 . S
Zn5 O8 2.028 . S
Zn5 O11 2.035 . S
O6 Zn5 2.028 . S
O6 C12 1.247 . S
O7 Zn3 2.035 . S
O7 C12 1.258 . S
O8 C1 1.247 . S
O8 Zn5 2.028 . S
O9 C1 1.258 . S
O9 Zn3 2.035 . S
O10 Zn3 2.028 . S
O10 C13 1.247 . S
O11 Zn5 2.035 . S
O11 C13 1.258 . S
C12 O6 1.247 . S
C12 O7 1.258 . S
C13 O10 1.247 . S
C13 O11 1.258 . S
C14 O16 1.247 . S
C14 O18 1.258 . S
C15 O22 1.247 . S
C15 O23 1.258 . S
O16 C14 1.247 . S
O16 Zn17 2.028 . S
Zn17 O16 2.028 . S
Zn17 O21 2.035 . S
Zn17 O23 2.035 . S
Zn17 O24 2.028 . S
O18 C14 1.258 . S
O18 Zn19 2.035 . S
Zn19 O18 2.035 . S
Zn19 O20 2.028 . S
Zn19 O22 2.028 . S
Zn19 O25 2.035 . S
O20 Zn19 2.028 . S
O20 C26 1.247 . S
O21 Zn17 2.035 . S
O21 C26 1.258 . S
O22 C15 1.247 . S
O22 Zn19 2.028 . S
O23 C15 1.258 . S
O23 Zn17 2.035 . S
O24 Zn17 2.028 . S
O24 C27 1.247 . S
O25 Zn19 2.035 . S
O25 C27 1.258 . S
C26 O20 1.247 . S
C26 O21 1.258 . S
C27 O24 1.247 . S
C27 O25 1.258 . S
C28 O30 1.247 . S
C28 O32 1.258 . S
C29 O36 1.247 . S
C29 O37 1.258 . S
O30 C28 1.247 . S
O30 Zn31 2.028 . S
Zn31 O30 2.028 . S
Zn31 O35 2.035 . S
Zn31 O37 2.035 . S
Zn31 O38 2.028 . S
O32 C28 1.258 . S
O32 Zn33 2.035 . S
Zn33 O32 2.035 . S
Zn33 O34 2.028 . S
Zn33 O36 2.028 . S
Zn33 O39 2.035 . S
O34 Zn33 2.028 . S
O34 C40 1.247 . S
O35 Zn31 2.035 . S
O35 C40 1.258 . S
O36 C29 1.247 . S
O36 Zn33 2.028 . S
O37 C29 1.258 . S
O37 Zn31 2.035 . S
O38 Zn31 2.028 . S
O38 C41 1.247 . S
O39 Zn33 2.035 . S
O39 C41 1.258 . S
C40 O34 1.247 . S
C40 O35 1.258 . S
C41 O38 1.247 . S
C41 O39 1.258 . S
C42 O44 1.247 . S
C42 O46 1.258 . S
C43 O50 1.247 . S
C43 O51 1.258 . S
O44 C42 1.247 . S
O44 Zn45 2.028 . S
Zn45 O44 2.028 . S
Zn45 O49 2.035 . S
Zn45 O51 2.035 . S
Zn45 O52 2.028 . S
O46 C42 1.258 . S
O46 Zn47 2.035 . S
Zn47 O46 2.035 . S
Zn47 O48 2.028 . S
Zn47 O50 2.028 . S
Zn47 O53 2.035 . S
O48 Zn47 2.028 . S
O48 C54 1.247 . S
O49 Zn45 2.035 . S
O49 C54 1.258 . S
O50 C43 1.247 . S
O50 Zn47 2.028 . S
O51 C43 1.258 . S
O51 Zn45 2.035 . S
O52 Zn45 2.028 . S
O52 C55 1.247 . S
O53 Zn47 2.035 . S
O53 C55 1.258 . S
C54 O48 1.247 . S
C54 O49 1.258 . S
C55 O52 1.247 . S
C55 O53 1.258 . S
C56 O58 1.247 . S
C56 O60 1.258 . S
C57 O64 1.247 . S
C57 O65 1.258 . S
O58 C56 1.247 . S
O58 Zn59 2.028 . S
Zn59 O58 2.028 . S
Zn59 O63 2.035 . S
Zn59 O65 2.035 . S
Zn59 O66 2.028 . S
O60 C56 1.258 . S
O60 Zn61 2.035 . S
Zn61 O60 2.035 . S
Zn61 O62 2.028 . S
Zn61 O64 2.028 . S
Zn61 O67 2.035 . S
O62 Zn61 2.028 . S
O62 C68 1.247 . S
O63 Zn59 2.035 . S
O63 C68 1.258 . S
O64 C57 1.247 . S
O64 Zn61 2.028 . S
O65 C57 1.258 . S
O65 Zn59 2.035 . S
O66 Zn59 2.028 . S
O66 C69 1.247 . S
O67 Zn61 2.035 . S
O67 C69 1.258 . S
C68 O62 1.247 . S
C68 O63 1.258 . S
C69 O66 1.247 . S
C69 O67 1.258 . S
C70 O72 1.247 . S
C70 O74 1.258 . S
C71 O78 1.247 . S
C71 O79 1.258 . S
O72 C70 1.247 . S
O72 Zn73 2.028 . S
Zn73 O72 2.028 . S
Zn73 O77 2.035 . S
Zn73 O79 2.035 . S
Zn73 O80 2.028 . S
O74 C70 1.258 . S
O74 Zn75 2.035 . S
Zn75 O74 2.035 . S
Zn75 O76 2.028 . S
Zn75 O78 2.028 . S
Zn75 O81 2.035 . S
O76 Zn75 2.028 . S
O76 C82 1.247 . S
O77 Zn73 2.035 . S
O77 C82 1.258 . S
O78 C71 1.247 . S
O78 Zn75 2.028 . S
O79 C71 1.258 . S
O79 Zn73 2.035 . S
O80 Zn73 2.028 . S
O80 C83 1.247 . S
O81 Zn75 2.035 . S
O81 C83 1.258 . S
C82 O76 1.247 . S
C82 O77 1.258 . S
C83 O80 1.247 . S
C83 O81 1.258 . S
C84 O86 1.247 . S
C84 O88 1.258 . S
C85 O92 1.247 . S
C85 O93 1.258 . S
O86 C84 1.247 . S
O86 Zn87 2.028 . S
Zn87 O86 2.028 . S
Zn87 O91 2.035 . S
Zn87 O93 2.035 . S
Zn87 O94 2.028 . S
O88 C84 1.258 . S
O88 Zn89 2.035 . S
Zn89 O88 2.035 . S
Zn89 O90 2.028 . S
Zn89 O92 2.028 . S
Zn89 O95 2.035 . S
O90 Zn89 2.028 . S
O90 C96 1.247 . S
O91 Zn87 2.035 . S
O91 C96 1.258 . S
O92 C85 1.247 . S
O92 Zn89 2.028 . S
O93 C85 1.258 . S
O93 Zn87 2.035 . S
O94 Zn87 2.028 . S
O94 C97 1.247 . S
O95 Zn89 2.035 . S
O95 C97 1.258 . S
C96 O90 1.247 . S
C96 O91 1.258 . S
C97 O94 1.247 . S
C97 O95 1.258 . S
C98 O100 1.247 . S
C98 O102 1.258 . S
C99 O106 1.247 . S
C99 O107 1.258 . S
O100 C98 1.247 . S
O100 Zn101 2.028 . S
Zn101 O100 2.028 . S
Zn101 O105 2.035 . S
Zn101 O107 2.035 . S
Zn101 O108 2.028 . S
O102 C98 1.258 . S
O102 Zn103 2.035 . S
Zn103 O102 2.035 . S
Zn103 O104 2.028 . S
Zn103 O106 2.028 . S
Zn103 O109 2.035 . S
O104 Zn103 2.028 . S
O104 C110 1.247 . S
O105 Zn101 2.035 . S
O105 C110 1.258 . S
O106 C99 1.247 . S
O106 Zn103 2.028 . S
O107 C99 1.258 . S
O107 Zn101 2.035 . S
O108 Zn101 2.028 . S
O108 C111 1.247 . S
O109 Zn103 2.035 . S
O109 C111 1.258 . S
C110 O104 1.247 . S
C110 O105 1.258 . S
C111 O108 1.247 . S
C111 O109 1.258 . S
H112 C113 0.951 . S
C113 H112 0.951 . S
C113 C119 1.265 . S
H114 C119 0.950 . S
H115 C123 0.949 . S
H116 C124 0.950 . S
H117 C125 0.951 . S
H118 C126 0.951 . S
C119 C113 1.265 . S
C119 H114 0.950 . S
C119 C120 1.478 . S
C120 C119 1.478 . S
C120 C121 1.397 . S
C120 C137 1.394 . S
C121 C120 1.397 . S
C121 C122 1.438 1_455 S
C121 C126 1.429 . S
C122 C121 1.438 1_655 S
C122 C123 1.428 . S
C122 C135 1.394 . S
C123 H115 0.949 . S
C123 C122 1.428 . S
C123 C124 1.345 1_655 S
C124 H116 0.950 . S
C124 C123 1.345 1_455 S
C124 C125 1.424 . S
C125 H117 0.951 . S
C125 C124 1.424 . S
C125 C126 1.347 . S
C126 H118 0.951 . S
C126 C121 1.429 . S
C126 C125 1.347 . S
H127 C128 0.951 . S
C128 H127 0.951 . S
C128 C134 1.265 . S
H129 C134 0.950 . S
H130 C138 0.949 . S
H131 C139 0.950 . S
H132 C140 0.951 . S
H133 C141 0.951 . S
C134 C128 1.265 . S
C134 H129 0.950 . S
C134 C135 1.478 . S
C135 C122 1.394 . S
C135 C134 1.478 . S
C135 C136 1.397 . S
C136 C135 1.397 . S
C136 C137 1.438 1_655 S
C136 C141 1.429 . S
C137 C120 1.394 . S
C137 C136 1.438 1_455 S
C137 C138 1.428 . S
C138 H130 0.949 . S
C138 C137 1.428 . S
C138 C139 1.345 1_455 S
C139 H131 0.950 . S
C139 C138 1.345 1_655 S
C139 C140 1.424 . S
C140 H132 0.951 . S
C140 C139 1.424 . S
C140 C141 1.347 . S
C141 H133 0.951 . S
C141 C136 1.429 . S
C141 C140 1.347 . S
H142 C143 0.951 . S
C143 H142 0.951 . S
C143 C149 1.265 . S
H144 C149 0.950 . S
H145 C153 0.966 . S
H146 C154 0.950 . S
H147 C155 0.951 . S
H148 C156 0.951 . S
C149 C143 1.265 . S
C149 H144 0.950 . S
C149 C150 1.478 . S
C150 C149 1.478 . S
C150 C151 1.397 . S
C150 C167 1.394 . S
C151 C150 1.397 . S
C151 C152 1.438 1_565 S
C151 C156 1.429 . S
C152 C151 1.438 1_545 S
C152 C153 1.428 . S
C152 C165 1.394 . S
C153 H145 0.966 . S
C153 C152 1.428 . S
C153 C154 1.328 1_545 S
C154 H146 0.950 . S
C154 C153 1.328 1_565 S
C154 C155 1.424 . S
C155 H147 0.951 . S
C155 C154 1.424 . S
C155 C156 1.347 . S
C156 H148 0.951 . S
C156 C151 1.429 . S
C156 C155 1.347 . S
H157 C158 0.951 . S
C158 H157 0.951 . S
C158 C164 1.265 . S
H159 C164 0.950 . S
H160 C168 0.965 . S
H161 C169 0.950 . S
H162 C170 0.951 . S
H163 C171 0.951 . S
C164 C158 1.265 . S
C164 H159 0.950 . S
C164 C165 1.478 . S
C165 C152 1.394 . S
C165 C164 1.478 . S
C165 C166 1.397 . S
C166 C165 1.397 . S
C166 C167 1.438 1_545 S
C166 C171 1.429 . S
C167 C150 1.394 . S
C167 C166 1.438 1_565 S
C167 C168 1.428 . S
C168 H160 0.965 . S
C168 C167 1.428 . S
C168 C169 1.329 1_565 S
C169 H161 0.950 . S
C169 C168 1.329 1_545 S
C169 C170 1.424 . S
C170 H162 0.951 . S
C170 C169 1.424 . S
C170 C171 1.347 . S
C171 H163 0.951 . S
C171 C166 1.429 . S
C171 C170 1.347 . S
H172 C173 0.951 . S
C173 H172 0.951 . S
C173 C179 1.265 . S
H174 C179 0.950 . S
H175 C183 0.949 . S
H176 C184 0.950 . S
H177 C185 0.951 . S
H178 C186 0.951 . S
C179 C173 1.265 . S
C179 H174 0.950 . S
C179 C180 1.478 . S
C180 C179 1.478 . S
C180 C181 1.397 . S
C180 C197 1.394 . S
C181 C180 1.397 . S
C181 C182 1.438 1_655 S
C181 C186 1.429 . S
C182 C181 1.438 1_455 S
C182 C183 1.428 . S
C182 C195 1.394 . S
C183 H175 0.949 . S
C183 C182 1.428 . S
C183 C184 1.345 1_455 S
C184 H176 0.950 . S
C184 C183 1.345 1_655 S
C184 C185 1.424 . S
C185 H177 0.951 . S
C185 C184 1.424 . S
C185 C186 1.347 . S
C186 H178 0.951 . S
C186 C181 1.429 . S
C186 C185 1.347 . S
H187 C188 0.951 . S
C188 H187 0.951 . S
C188 C194 1.265 . S
H189 C194 0.950 . S
H190 C198 0.949 . S
H191 C199 0.950 . S
H192 C200 0.951 . S
H193 C201 0.951 . S
C194 C188 1.265 . S
C194 H189 0.950 . S
C194 C195 1.478 . S
C195 C182 1.394 . S
C195 C194 1.478 . S
C195 C196 1.397 . S
C196 C195 1.397 . S
C196 C197 1.438 1_455 S
C196 C201 1.429 . S
C197 C180 1.394 . S
C197 C196 1.438 1_655 S
C197 C198 1.428 . S
C198 H190 0.949 . S
C198 C197 1.428 . S
C198 C199 1.345 1_655 S
C199 H191 0.950 . S
C199 C198 1.345 1_455 S
C199 C200 1.424 . S
C200 H192 0.951 . S
C200 C199 1.424 . S
C200 C201 1.347 . S
C201 H193 0.951 . S
C201 C196 1.429 . S
C201 C200 1.347 . S
H202 C203 0.951 . S
C203 H202 0.951 . S
C203 C209 1.265 . S
H204 C209 0.950 1_565 S
H205 C213 0.949 . S
H206 C214 0.950 . S
H207 C215 0.951 . S
H208 C216 0.951 . S
C209 C203 1.265 . S
C209 H204 0.950 1_545 S
C209 C210 1.478 . S
C210 C209 1.478 . S
C210 C211 1.397 1_545 S
C210 C227 1.394 . S
C211 C210 1.397 1_565 S
C211 C212 1.438 . S
C211 C216 1.429 . S
C212 C211 1.438 . S
C212 C213 1.428 . S
C212 C225 1.394 . S
C213 H205 0.949 . S
C213 C212 1.428 . S
C213 C214 1.345 . S
C214 H206 0.950 . S
C214 C213 1.345 . S
C214 C215 1.424 . S
C215 H207 0.951 . S
C215 C214 1.424 . S
C215 C216 1.347 . S
C216 H208 0.951 . S
C216 C211 1.429 . S
C216 C215 1.347 . S
H217 C218 0.951 . S
C218 H217 0.951 . S
C218 C224 1.265 . S
H219 C224 0.950 1_545 S
H220 C228 0.949 . S
H221 C229 0.950 . S
H222 C230 0.951 . S
H223 C231 0.951 . S
C224 C218 1.265 . S
C224 H219 0.950 1_565 S
C224 C225 1.478 . S
C225 C212 1.394 . S
C225 C224 1.478 . S
C225 C226 1.397 1_565 S
C226 C225 1.397 1_545 S
C226 C227 1.438 . S
C226 C231 1.429 . S
C227 C210 1.394 . S
C227 C226 1.438 . S
C227 C228 1.428 . S
C228 H220 0.949 . S
C228 C227 1.428 . S
C228 C229 1.345 . S
C229 H221 0.950 . S
C229 C228 1.345 . S
C229 C230 1.424 . S
C230 H222 0.951 . S
C230 C229 1.424 . S
C230 C231 1.347 . S
C231 H223 0.951 . S
C231 C226 1.429 . S
C231 C230 1.347 . S
H232 C233 0.951 . S
C233 H232 0.951 . S
C233 C239 1.265 . S
H234 C239 0.950 1_455 S
H235 C243 0.949 . S
H236 C244 0.950 . S
H237 C245 0.951 . S
H238 C246 0.951 . S
C239 C233 1.265 . S
C239 H234 0.950 1_655 S
C239 C240 1.478 . S
C240 C239 1.478 . S
C240 C241 1.397 1_655 S
C240 C257 1.394 . S
C241 C240 1.397 1_455 S
C241 C242 1.438 1_556 S
C241 C246 1.429 . S
C242 C241 1.438 1_554 S
C242 C243 1.428 . S
C242 C255 1.394 . S
C243 H235 0.949 . S
C243 C242 1.428 . S
C243 C244 1.345 . S
C244 H236 0.950 . S
C244 C243 1.345 . S
C244 C245 1.424 1_554 S
C245 H237 0.951 . S
C245 C244 1.424 1_556 S
C245 C246 1.347 . S
C246 H238 0.951 . S
C246 C241 1.429 . S
C246 C245 1.347 . S
H247 C248 0.951 . S
C248 H247 0.951 . S
C248 C254 1.265 . S
H249 C254 0.950 1_655 S
H250 C258 0.949 . S
H251 C259 0.950 . S
H252 C260 0.951 . S
H253 C261 0.951 . S
C254 C248 1.265 . S
C254 H249 0.950 1_455 S
C254 C255 1.478 . S
C255 C242 1.394 . S
C255 C254 1.478 . S
C255 C256 1.397 1_455 S
C256 C255 1.397 1_655 S
C256 C257 1.438 1_554 S
C256 C261 1.429 . S
C257 C240 1.394 . S
C257 C256 1.438 1_556 S
C257 C258 1.428 . S
C258 H250 0.949 . S
C258 C257 1.428 . S
C258 C259 1.345 . S
C259 H251 0.950 . S
C259 C258 1.345 . S
C259 C260 1.424 1_556 S
C260 H252 0.951 . S
C260 C259 1.424 1_554 S
C260 C261 1.347 . S
C261 H253 0.951 . S
C261 C256 1.429 . S
C261 C260 1.347 . S
H262 C263 0.951 . S
C263 H262 0.951 . S
C263 C269 1.265 . S
H264 C269 0.950 . S
H265 C273 0.949 . S
H266 C274 0.950 . S
H267 C275 0.951 . S
H268 C276 0.951 . S
C269 C263 1.265 . S
C269 H264 0.950 . S
C269 C270 1.478 . S
C270 C269 1.478 . S
C270 C271 1.397 1_545 S
C270 C287 1.394 . S
C271 C270 1.397 1_565 S
C271 C272 1.438 . S
C271 C276 1.429 . S
C272 C271 1.438 . S
C272 C273 1.428 . S
C272 C285 1.394 . S
C273 H265 0.949 . S
C273 C272 1.428 . S
C273 C274 1.345 . S
C274 H266 0.950 . S
C274 C273 1.345 . S
C274 C275 1.424 . S
C275 H267 0.951 . S
C275 C274 1.424 . S
C275 C276 1.347 . S
C276 H268 0.951 . S
C276 C271 1.429 . S
C276 C275 1.347 . S
H277 C278 0.951 . S
C278 H277 0.951 . S
C278 C284 1.265 . S
H279 C284 0.950 . S
H280 C288 0.949 . S
H281 C289 0.950 . S
H282 C290 0.951 . S
H283 C291 0.951 . S
C284 C278 1.265 . S
C284 H279 0.950 . S
C284 C285 1.478 . S
C285 C272 1.394 . S
C285 C284 1.478 . S
C285 C286 1.397 1_565 S
C286 C285 1.397 1_545 S
C286 C287 1.438 . S
C286 C291 1.429 . S
C287 C270 1.394 . S
C287 C286 1.438 . S
C287 C288 1.428 . S
C288 H280 0.949 . S
C288 C287 1.428 . S
C288 C289 1.345 . S
C289 H281 0.950 . S
C289 C288 1.345 . S
C289 C290 1.424 . S
C290 H282 0.951 . S
C290 C289 1.424 . S
C290 C291 1.347 . S
C291 H283 0.951 . S
C291 C286 1.429 . S
C291 C290 1.347 . S
H292 C293 0.951 1_455 S
C293 H292 0.951 1_655 S
C293 C299 1.265 . S
H294 C299 0.950 . S
H295 C303 0.954 . S
H296 C304 0.950 . S
H297 C305 0.966 . S
H298 C306 0.951 . S
C299 C293 1.265 . S
C299 H294 0.950 . S
C299 C300 1.478 . S
C300 C299 1.478 . S
C300 C301 1.397 . S
C300 C317 1.398 . S
C301 C300 1.397 . S
C301 C302 1.434 1_654 S
C301 C306 1.429 . S
C302 C301 1.434 1_456 S
C302 C303 1.428 . S
C302 C315 1.398 . S
C303 H295 0.954 . S
C303 C302 1.428 . S
C303 C304 1.340 1_455 S
C304 H296 0.950 . S
C304 C303 1.340 1_655 S
C304 C305 1.381 1_556 S
C305 H297 0.966 . S
C305 C304 1.381 1_554 S
C305 C306 1.376 . S
C306 H298 0.951 . S
C306 C301 1.429 . S
C306 C305 1.376 . S
H307 C308 0.951 1_655 S
C308 H307 0.951 1_455 S
C308 C314 1.265 . S
H309 C314 0.950 . S
H310 C318 0.955 . S
H311 C319 0.950 . S
H312 C320 0.966 . S
H313 C321 0.951 . S
C314 C308 1.265 . S
C314 H309 0.950 . S
C314 C315 1.478 . S
C315 C302 1.398 . S
C315 C314 1.478 . S
C315 C316 1.397 . S
C316 C315 1.397 . S
C316 C317 1.434 1_456 S
C316 C321 1.429 . S
C317 C300 1.398 . S
C317 C316 1.434 1_654 S
C317 C318 1.428 . S
C318 H310 0.955 . S
C318 C317 1.428 . S
C318 C319 1.339 1_655 S
C319 H311 0.950 . S
C319 C318 1.339 1_455 S
C319 C320 1.381 1_554 S
C320 H312 0.966 . S
C320 C319 1.381 1_556 S
C320 C321 1.376 . S
C321 H313 0.951 . S
C321 C316 1.429 . S
C321 C320 1.376 . S
H322 C323 0.951 . S
C323 H322 0.951 . S
C323 C329 1.265 . S
H324 C329 0.950 . S
H325 C333 0.949 . S
H326 C334 0.950 . S
H327 C335 0.951 . S
H328 C336 0.951 . S
C329 C323 1.265 . S
C329 H324 0.950 . S
C329 C330 1.478 . S
C330 C329 1.478 . S
C330 C331 1.397 1_545 S
C330 C347 1.394 . S
C331 C330 1.397 1_565 S
C331 C332 1.438 . S
C331 C336 1.429 . S
C332 C331 1.438 . S
C332 C333 1.428 . S
C332 C345 1.394 . S
C333 H325 0.949 . S
C333 C332 1.428 . S
C333 C334 1.345 . S
C334 H326 0.950 . S
C334 C333 1.345 . S
C334 C335 1.424 . S
C335 H327 0.951 . S
C335 C334 1.424 . S
C335 C336 1.347 . S
C336 H328 0.951 . S
C336 C331 1.429 . S
C336 C335 1.347 . S
H337 C338 0.951 . S
C338 H337 0.951 . S
C338 C344 1.265 . S
H339 C344 0.950 . S
H340 C348 0.949 . S
H341 C349 0.950 . S
H342 C350 0.951 . S
H343 C351 0.951 . S
C344 C338 1.265 . S
C344 H339 0.950 . S
C344 C345 1.478 . S
C345 C332 1.394 . S
C345 C344 1.478 . S
C345 C346 1.397 1_565 S
C346 C345 1.397 1_545 S
C346 C347 1.438 . S
C346 C351 1.429 . S
C347 C330 1.394 . S
C347 C346 1.438 . S
C347 C348 1.428 . S
C348 H340 0.949 . S
C348 C347 1.428 . S
C348 C349 1.345 . S
C349 H341 0.950 . S
C349 C348 1.345 . S
C349 C350 1.424 . S
C350 H342 0.951 . S
C350 C349 1.424 . S
C350 C351 1.347 . S
C351 H343 0.951 . S
C351 C346 1.429 . S
C351 C350 1.347 . S
H352 C353 0.951 . S
C353 H352 0.951 . S
C353 C359 1.265 . S
H354 C359 0.950 . S
H355 C363 0.949 . S
H356 C364 0.950 . S
H357 C365 0.951 . S
H358 C366 0.951 . S
C359 C353 1.265 . S
C359 H354 0.950 . S
C359 C360 1.478 . S
C360 C359 1.478 . S
C360 C361 1.397 . S
C360 C377 1.394 . S
C361 C360 1.397 . S
C361 C362 1.438 . S
C361 C366 1.429 . S
C362 C361 1.438 . S
C362 C363 1.428 . S
C362 C375 1.394 . S
C363 H355 0.949 . S
C363 C362 1.428 . S
C363 C364 1.345 . S
C364 H356 0.950 . S
C364 C363 1.345 . S
C364 C365 1.424 . S
C365 H357 0.951 . S
C365 C364 1.424 . S
C365 C366 1.347 . S
C366 H358 0.951 . S
C366 C361 1.429 . S
C366 C365 1.347 . S
H367 C368 0.951 . S
C368 H367 0.951 . S
C368 C374 1.265 . S
H369 C374 0.950 . S
H370 C378 0.949 . S
H371 C379 0.950 . S
H372 C380 0.951 . S
H373 C381 0.951 . S
C374 C368 1.265 . S
C374 H369 0.950 . S
C374 C375 1.478 . S
C375 C362 1.394 . S
C375 C374 1.478 . S
C375 C376 1.397 . S
C376 C375 1.397 . S
C376 C377 1.438 . S
C376 C381 1.429 . S
C377 C360 1.394 . S
C377 C376 1.438 . S
C377 C378 1.428 . S
C378 H370 0.949 . S
C378 C377 1.428 . S
C378 C379 1.345 . S
C379 H371 0.950 . S
C379 C378 1.345 . S
C379 C380 1.424 . S
C380 H372 0.951 . S
C380 C379 1.424 . S
C380 C381 1.347 . S
C381 H373 0.951 . S
C381 C376 1.429 . S
C381 C380 1.347 . S
H382 C383 0.951 . S
C383 H382 0.951 . S
C383 C389 1.265 . S
H384 C389 0.950 . S
H385 C393 0.949 . S
H386 C394 0.950 . S
H387 C395 0.951 . S
H388 C396 0.951 . S
C389 C383 1.265 . S
C389 H384 0.950 . S
C389 C390 1.478 . S
C390 C389 1.478 . S
C390 C391 1.397 . S
C390 C407 1.394 . S
C391 C390 1.397 . S
C391 C392 1.438 . S
C391 C396 1.429 . S
C392 C391 1.438 . S
C392 C393 1.428 . S
C392 C405 1.394 . S
C393 H385 0.949 . S
C393 C392 1.428 . S
C393 C394 1.345 . S
C394 H386 0.950 . S
C394 C393 1.345 . S
C394 C395 1.424 . S
C395 H387 0.951 . S
C395 C394 1.424 . S
C395 C396 1.347 . S
C396 H388 0.951 . S
C396 C391 1.429 . S
C396 C395 1.347 . S
H397 C398 0.951 . S
C398 H397 0.951 . S
C398 C404 1.265 . S
H399 C404 0.950 . S
H400 C408 0.949 . S
H401 C409 0.950 . S
H402 C410 0.951 . S
H403 C411 0.951 . S
C404 C398 1.265 . S
C404 H399 0.950 . S
C404 C405 1.478 . S
C405 C392 1.394 . S
C405 C404 1.478 . S
C405 C406 1.397 . S
C406 C405 1.397 . S
C406 C407 1.438 . S
C406 C411 1.429 . S
C407 C390 1.394 . S
C407 C406 1.438 . S
C407 C408 1.428 . S
C408 H400 0.949 . S
C408 C407 1.428 . S
C408 C409 1.345 . S
C409 H401 0.950 . S
C409 C408 1.345 . S
C409 C410 1.424 . S
C410 H402 0.951 . S
C410 C409 1.424 . S
C410 C411 1.347 . S
C411 H403 0.951 . S
C411 C406 1.429 . S
C411 C410 1.347 . S
H412 C413 0.951 . S
C413 H412 0.951 . S
C413 C419 1.265 . S
H414 C419 0.950 . S
H415 C423 0.949 . S
H416 C424 0.950 . S
H417 C425 0.951 . S
H418 C426 0.951 . S
C419 C413 1.265 . S
C419 H414 0.950 . S
C419 C420 1.478 . S
C420 C419 1.478 . S
C420 C421 1.397 . S
C420 C437 1.394 . S
C421 C420 1.397 . S
C421 C422 1.438 . S
C421 C426 1.429 . S
C422 C421 1.438 . S
C422 C423 1.428 . S
C422 C435 1.394 . S
C423 H415 0.949 . S
C423 C422 1.428 . S
C423 C424 1.345 . S
C424 H416 0.950 . S
C424 C423 1.345 . S
C424 C425 1.424 . S
C425 H417 0.951 . S
C425 C424 1.424 . S
C425 C426 1.347 . S
C426 H418 0.951 . S
C426 C421 1.429 . S
C426 C425 1.347 . S
H427 C428 0.951 . S
C428 H427 0.951 . S
C428 C434 1.265 . S
H429 C434 0.950 . S
H430 C438 0.949 . S
H431 C439 0.950 . S
H432 C440 0.951 . S
H433 C441 0.951 . S
C434 C428 1.265 . S
C434 H429 0.950 . S
C434 C435 1.478 . S
C435 C422 1.394 . S
C435 C434 1.478 . S
C435 C436 1.397 . S
C436 C435 1.397 . S
C436 C437 1.438 . S
C436 C441 1.429 . S
C437 C420 1.394 . S
C437 C436 1.438 . S
C437 C438 1.428 . S
C438 H430 0.949 . S
C438 C437 1.428 . S
C438 C439 1.345 . S
C439 H431 0.950 . S
C439 C438 1.345 . S
C439 C440 1.424 . S
C440 H432 0.951 . S
C440 C439 1.424 . S
C440 C441 1.347 . S
C441 H433 0.951 . S
C441 C436 1.429 . S
C441 C440 1.347 . S
H442 C443 0.951 . S
C443 H442 0.951 . S
C443 C449 1.265 . S
H444 C449 0.950 . S
H445 C453 0.949 . S
H446 C454 0.950 . S
H447 C455 0.951 . S
H448 C456 0.951 . S
C449 C443 1.265 . S
C449 H444 0.950 . S
C449 C450 1.478 . S
C450 C449 1.478 . S
C450 C451 1.397 . S
C450 C467 1.394 . S
C451 C450 1.397 . S
C451 C452 1.438 . S
C451 C456 1.429 . S
C452 C451 1.438 . S
C452 C453 1.428 . S
C452 C465 1.394 . S
C453 H445 0.949 . S
C453 C452 1.428 . S
C453 C454 1.345 . S
C454 H446 0.950 . S
C454 C453 1.345 . S
C454 C455 1.424 . S
C455 H447 0.951 . S
C455 C454 1.424 . S
C455 C456 1.347 . S
C456 H448 0.951 . S
C456 C451 1.429 . S
C456 C455 1.347 . S
H457 C458 0.951 . S
C458 H457 0.951 . S
C458 C464 1.265 . S
H459 C464 0.950 . S
H460 C468 0.949 . S
H461 C469 0.950 . S
H462 C470 0.951 . S
H463 C471 0.951 . S
C464 C458 1.265 . S
C464 H459 0.950 . S
C464 C465 1.478 . S
C465 C452 1.394 . S
C465 C464 1.478 . S
C465 C466 1.397 . S
C466 C465 1.397 . S
C466 C467 1.438 . S
C466 C471 1.429 . S
C467 C450 1.394 . S
C467 C466 1.438 . S
C467 C468 1.428 . S
C468 H460 0.949 . S
C468 C467 1.428 . S
C468 C469 1.345 . S
C469 H461 0.950 . S
C469 C468 1.345 . S
C469 C470 1.424 . S
C470 H462 0.951 . S
C470 C469 1.424 . S
C470 C471 1.347 . S
C471 H463 0.951 . S
C471 C466 1.429 . S
C471 C470 1.347 . S
H472 C473 0.951 . S
C473 H472 0.951 . S
C473 C479 1.265 . S
H474 C479 0.950 . S
H475 C483 0.949 . S
H476 C484 0.950 . S
H477 C485 0.951 . S
H478 C486 0.951 . S
C479 C473 1.265 . S
C479 H474 0.950 . S
C479 C480 1.478 . S
C480 C479 1.478 . S
C480 C481 1.397 . S
C480 C497 1.394 . S
C481 C480 1.397 . S
C481 C482 1.438 1_445 S
C481 C486 1.429 . S
C482 C481 1.438 1_665 S
C482 C483 1.428 . S
C482 C495 1.394 . S
C483 H475 0.949 . S
C483 C482 1.428 . S
C483 C484 1.345 . S
C484 H476 0.950 . S
C484 C483 1.345 . S
C484 C485 1.424 1_665 S
C485 H477 0.951 . S
C485 C484 1.424 1_445 S
C485 C486 1.347 . S
C486 H478 0.951 . S
C486 C481 1.429 . S
C486 C485 1.347 . S
H487 C488 0.951 . S
C488 H487 0.951 . S
C488 C494 1.265 . S
H489 C494 0.950 . S
H490 C498 0.949 . S
H491 C499 0.950 . S
H492 C500 0.951 . S
H493 C501 0.951 . S
C494 C488 1.265 . S
C494 H489 0.950 . S
C494 C495 1.478 . S
C495 C482 1.394 . S
C495 C494 1.478 . S
C495 C496 1.397 . S
C496 C495 1.397 . S
C496 C497 1.438 1_665 S
C496 C501 1.429 . S
C497 C480 1.394 . S
C497 C496 1.438 1_445 S
C497 C498 1.428 . S
C498 H490 0.949 . S
C498 C497 1.428 . S
C498 C499 1.345 . S
C499 H491 0.950 . S
C499 C498 1.345 . S
C499 C500 1.424 1_445 S
C500 H492 0.951 . S
C500 C499 1.424 1_665 S
C500 C501 1.347 . S
C501 H493 0.951 . S
C501 C496 1.429 . S
C501 C500 1.347 . S
H502 C503 0.951 . S
C503 H502 0.951 . S
C503 C509 1.265 . S
H504 C509 0.945 1_545 S
H505 C513 0.949 . S
H506 C514 0.950 . S
H507 C515 0.951 . S
H508 C516 0.951 . S
C509 C503 1.265 . S
C509 H504 0.945 1_565 S
C509 C510 1.478 . S
C510 C509 1.478 . S
C510 C511 1.397 1_565 S
C510 C527 1.394 . S
C511 C510 1.397 1_545 S
C511 C512 1.438 1_455 S
C511 C516 1.429 . S
C512 C511 1.438 1_655 S
C512 C513 1.428 . S
C512 C525 1.394 . S
C513 H505 0.949 . S
C513 C512 1.428 . S
C513 C514 1.345 . S
C514 H506 0.950 . S
C514 C513 1.345 . S
C514 C515 1.424 1_655 S
C515 H507 0.951 . S
C515 C514 1.424 1_455 S
C515 C516 1.347 . S
C516 H508 0.951 . S
C516 C511 1.429 . S
C516 C515 1.347 . S
H517 C518 0.951 . S
C518 H517 0.951 . S
C518 C524 1.265 . S
H519 C524 0.946 1_565 S
H520 C528 0.949 . S
H521 C529 0.950 . S
H522 C530 0.951 . S
H523 C531 0.951 . S
C524 C518 1.265 . S
C524 H519 0.946 1_545 S
C524 C525 1.478 . S
C525 C512 1.394 . S
C525 C524 1.478 . S
C525 C526 1.397 1_545 S
C526 C525 1.397 1_565 S
C526 C527 1.438 1_655 S
C526 C531 1.429 . S
C527 C510 1.394 . S
C527 C526 1.438 1_455 S
C527 C528 1.428 . S
C528 H520 0.949 . S
C528 C527 1.428 . S
C528 C529 1.345 . S
C529 H521 0.950 . S
C529 C528 1.345 . S
C529 C530 1.424 1_455 S
C530 H522 0.951 . S
C530 C529 1.424 1_655 S
C530 C531 1.347 . S
C531 H523 0.951 . S
C531 C526 1.429 . S
C531 C530 1.347 . S
H532 C533 0.951 . S
C533 H532 0.951 . S
C533 C539 1.265 . S
H534 C539 0.946 1_455 S
H535 C543 0.949 . S
H536 C544 0.950 . S
H537 C545 0.951 . S
H538 C546 0.951 . S
C539 C533 1.265 . S
C539 H534 0.946 1_655 S
C539 C540 1.478 . S
C540 C539 1.478 . S
C540 C541 1.397 1_655 S
C540 C557 1.394 . S
C541 C540 1.397 1_455 S
C541 C542 1.438 1_545 S
C541 C546 1.429 . S
C542 C541 1.438 1_565 S
C542 C543 1.428 . S
C542 C555 1.394 . S
C543 H535 0.949 . S
C543 C542 1.428 . S
C543 C544 1.345 . S
C544 H536 0.950 . S
C544 C543 1.345 . S
C544 C545 1.424 1_565 S
C545 H537 0.951 . S
C545 C544 1.424 1_545 S
C545 C546 1.347 . S
C546 H538 0.951 . S
C546 C541 1.429 . S
C546 C545 1.347 . S
H547 C548 0.951 . S
C548 H547 0.951 . S
C548 C554 1.265 . S
H549 C554 0.945 1_655 S
H550 C558 0.949 . S
H551 C559 0.950 . S
H552 C560 0.951 . S
H553 C561 0.951 . S
C554 C548 1.265 . S
C554 H549 0.945 1_455 S
C554 C555 1.478 . S
C555 C542 1.394 . S
C555 C554 1.478 . S
C555 C556 1.397 1_455 S
C556 C555 1.397 1_655 S
C556 C557 1.438 1_565 S
C556 C561 1.429 . S
C557 C540 1.394 . S
C557 C556 1.438 1_545 S
C557 C558 1.428 . S
C558 H550 0.949 . S
C558 C557 1.428 . S
C558 C559 1.345 . S
C559 H551 0.950 . S
C559 C558 1.345 . S
C559 C560 1.424 1_545 S
C560 H552 0.951 . S
C560 C559 1.424 1_565 S
C560 C561 1.347 . S
C561 H553 0.951 . S
C561 C556 1.429 . S
C561 C560 1.347 . S
H562 C563 0.951 . S
C563 H562 0.951 . S
C563 C569 1.265 . S
H564 C569 0.950 . S
H565 C573 0.949 . S
H566 C574 0.950 . S
H567 C575 0.951 . S
H568 C576 0.951 . S
C569 C563 1.265 . S
C569 H564 0.950 . S
C569 C570 1.478 . S
C570 C569 1.478 . S
C570 C571 1.397 . S
C570 C587 1.394 . S
C571 C570 1.397 . S
C571 C572 1.438 1_665 S
C571 C576 1.429 . S
C572 C571 1.438 1_445 S
C572 C573 1.428 . S
C572 C585 1.394 . S
C573 H565 0.949 . S
C573 C572 1.428 . S
C573 C574 1.345 1_545 S
C574 H566 0.950 . S
C574 C573 1.345 1_565 S
C574 C575 1.424 . S
C575 H567 0.951 . S
C575 C574 1.424 . S
C575 C576 1.347 1_455 S
C576 H568 0.951 . S
C576 C571 1.429 . S
C576 C575 1.347 1_655 S
H577 C578 0.951 . S
C578 H577 0.951 . S
C578 C584 1.265 . S
H579 C584 0.950 . S
H580 C588 0.949 . S
H581 C589 0.950 . S
H582 C590 0.951 . S
H583 C591 0.951 . S
C584 C578 1.265 . S
C584 H579 0.950 . S
C584 C585 1.478 . S
C585 C572 1.394 . S
C585 C584 1.478 . S
C585 C586 1.397 . S
C586 C585 1.397 . S
C586 C587 1.438 1_445 S
C586 C591 1.429 . S
C587 C570 1.394 . S
C587 C586 1.438 1_665 S
C587 C588 1.428 . S
C588 H580 0.949 . S
C588 C587 1.428 . S
C588 C589 1.345 1_565 S
C589 H581 0.950 . S
C589 C588 1.345 1_545 S
C589 C590 1.424 . S
C590 H582 0.951 . S
C590 C589 1.424 . S
C590 C591 1.347 1_655 S
C591 H583 0.951 . S
C591 C586 1.429 . S
C591 C590 1.347 1_455 S
C113 C12 1.747 . S
C128 C28 1.748 . S
C143 C42 1.748 . S
C158 C26 1.747 . S
C173 C85 1.744 . S
C188 C57 1.744 . S
C203 C71 1.810 . S
C218 C99 1.811 . S
C233 C96 1.588 . S
C248 C1 1.582 . S
C263 C15 1.606 . S
C278 C110 1.569 . S
C293 C41 1.597 . S
C308 C68 1.591 . S
C323 C82 1.609 . S
C338 C55 1.569 . S
C353 C0 1.663 . S
C368 C83 1.667 . S
C383 C97 1.666 . S
C398 C14 1.670 . S
C413 C111 1.644 . S
C428 C40 1.641 . S
C443 C54 1.668 . S
C458 C69 1.663 . S
C473 C13 1.490 . S
C488 C29 1.485 . S
C503 C43 1.492 . S
C518 C27 1.492 . S
C533 C84 1.493 . S
C548 C56 1.493 . S
C563 C98 1.409 . S
C578 C70 1.410 . S
