# Generated by pormake.
# Topology yfl, (5)-cn, num edge types: 1
# Building blocks:
#     Node 0, Type 0, BuildingBlock: XOMCOT_clean_sbu_0, # of connection points: 5
#     Node 1, Type 0, BuildingBlock: XOMCOT_clean_sbu_0, # of connection points: 5
#     Node 2, Type 0, BuildingBlock: XOMCOT_clean_sbu_0, # of connection points: 5
#     Node 3, Type 0, BuildingBlock: XOMCOT_clean_sbu_0, # of connection points: 5
#     Node 4, Type 0, BuildingBlock: XOMCOT_clean_sbu_0, # of connection points: 5
#     Node 5, Type 0, BuildingBlock: XOMCOT_clean_sbu_0, # of connection points: 5
#     Node 6, Type 0, BuildingBlock: XOMCOT_clean_sbu_0, # of connection points: 5
#     Node 7, Type 0, BuildingBlock: XOMCOT_clean_sbu_0, # of connection points: 5
#     Node 8, Type 0, BuildingBlock: XOMCOT_clean_sbu_0, # of connection points: 5
#     Node 9, Type 0, BuildingBlock: XOMCOT_clean_sbu_0, # of connection points: 5
#     Node 10, Type 0, BuildingBlock: XOMCOT_clean_sbu_0, # of connection points: 5
#     Node 11, Type 0, BuildingBlock: XOMCOT_clean_sbu_0, # of connection points: 5
#     Node 12, Type 0, BuildingBlock: XOMCOT_clean_sbu_0, # of connection points: 5
#     Node 13, Type 0, BuildingBlock: XOMCOT_clean_sbu_0, # of connection points: 5
#     Node 14, Type 0, BuildingBlock: XOMCOT_clean_sbu_0, # of connection points: 5
#     Node 15, Type 0, BuildingBlock: XOMCOT_clean_sbu_0, # of connection points: 5
#     Edge 16, Type (0, 0), BuildingBlock: UVAHIK_clean_linker_0, # of connection points: 2
#     Edge 17, Type (0, 0), BuildingBlock: UVAHIK_clean_linker_0, # of connection points: 2
#     Edge 18, Type (0, 0), BuildingBlock: UVAHIK_clean_linker_0, # of connection points: 2
#     Edge 19, Type (0, 0), BuildingBlock: UVAHIK_clean_linker_0, # of connection points: 2
#     Edge 20, Type (0, 0), BuildingBlock: UVAHIK_clean_linker_0, # of connection points: 2
#     Edge 21, Type (0, 0), BuildingBlock: UVAHIK_clean_linker_0, # of connection points: 2
#     Edge 22, Type (0, 0), BuildingBlock: UVAHIK_clean_linker_0, # of connection points: 2
#     Edge 23, Type (0, 0), BuildingBlock: UVAHIK_clean_linker_0, # of connection points: 2
#     Edge 24, Type (0, 0), BuildingBlock: UVAHIK_clean_linker_0, # of connection points: 2
#     Edge 25, Type (0, 0), BuildingBlock: UVAHIK_clean_linker_0, # of connection points: 2
#     Edge 26, Type (0, 0), BuildingBlock: UVAHIK_clean_linker_0, # of connection points: 2
#     Edge 27, Type (0, 0), BuildingBlock: UVAHIK_clean_linker_0, # of connection points: 2
#     Edge 28, Type (0, 0), BuildingBlock: UVAHIK_clean_linker_0, # of connection points: 2
#     Edge 29, Type (0, 0), BuildingBlock: UVAHIK_clean_linker_0, # of connection points: 2
#     Edge 30, Type (0, 0), BuildingBlock: UVAHIK_clean_linker_0, # of connection points: 2
#     Edge 31, Type (0, 0), BuildingBlock: UVAHIK_clean_linker_0, # of connection points: 2
#     Edge 32, Type (0, 0), BuildingBlock: UVAHIK_clean_linker_0, # of connection points: 2
#     Edge 33, Type (0, 0), BuildingBlock: UVAHIK_clean_linker_0, # of connection points: 2
#     Edge 34, Type (0, 0), BuildingBlock: UVAHIK_clean_linker_0, # of connection points: 2
#     Edge 35, Type (0, 0), BuildingBlock: UVAHIK_clean_linker_0, # of connection points: 2
#     Edge 36, Type (0, 0), BuildingBlock: UVAHIK_clean_linker_0, # of connection points: 2
#     Edge 37, Type (0, 0), BuildingBlock: UVAHIK_clean_linker_0, # of connection points: 2
#     Edge 38, Type (0, 0), BuildingBlock: UVAHIK_clean_linker_0, # of connection points: 2
#     Edge 39, Type (0, 0), BuildingBlock: UVAHIK_clean_linker_0, # of connection points: 2
#     Edge 40, Type (0, 0), BuildingBlock: UVAHIK_clean_linker_0, # of connection points: 2
#     Edge 41, Type (0, 0), BuildingBlock: UVAHIK_clean_linker_0, # of connection points: 2
#     Edge 42, Type (0, 0), BuildingBlock: UVAHIK_clean_linker_0, # of connection points: 2
#     Edge 43, Type (0, 0), BuildingBlock: UVAHIK_clean_linker_0, # of connection points: 2
#     Edge 44, Type (0, 0), BuildingBlock: UVAHIK_clean_linker_0, # of connection points: 2
#     Edge 45, Type (0, 0), BuildingBlock: UVAHIK_clean_linker_0, # of connection points: 2
#     Edge 46, Type (0, 0), BuildingBlock: UVAHIK_clean_linker_0, # of connection points: 2
#     Edge 47, Type (0, 0), BuildingBlock: UVAHIK_clean_linker_0, # of connection points: 2
#     Edge 48, Type (0, 0), BuildingBlock: UVAHIK_clean_linker_0, # of connection points: 2
#     Edge 49, Type (0, 0), BuildingBlock: UVAHIK_clean_linker_0, # of connection points: 2
#     Edge 50, Type (0, 0), BuildingBlock: UVAHIK_clean_linker_0, # of connection points: 2
#     Edge 51, Type (0, 0), BuildingBlock: UVAHIK_clean_linker_0, # of connection points: 2
#     Edge 52, Type (0, 0), BuildingBlock: UVAHIK_clean_linker_0, # of connection points: 2
#     Edge 53, Type (0, 0), BuildingBlock: UVAHIK_clean_linker_0, # of connection points: 2
#     Edge 54, Type (0, 0), BuildingBlock: UVAHIK_clean_linker_0, # of connection points: 2
#     Edge 55, Type (0, 0), BuildingBlock: UVAHIK_clean_linker_0, # of connection points: 2
# Relax obj value: 0.359
# Max RMSD: 0.251
# Mean RMSD: 0.251
data_MOF--net-yfl--node1-XOMCOT_clean_sbu_0--edge1-UVAHIK_clean_linker_0
_symmetry_space_group_name_H-M    P1
_symmetry_Int_Tables_number       1
_symmetry_cell_setting            triclinic
loop_
_symmetry_equiv_pos_as_xyz
'x, y, z'
_cell_length_a     37.613507
_cell_length_b     37.648828
_cell_length_c     127.77412
_cell_angle_alpha  90.022714
_cell_angle_beta   89.993914
_cell_angle_gamma 90.023191
loop_
_atom_site_label
_atom_site_type_symbol
_atom_site_fract_x
_atom_site_fract_y
_atom_site_fract_z
_atom_type_partial_charge
Co0 Co 0.04869 0.31303 0.31906 0.0
C1 C 0.10985 0.28732 0.33119 0.0
C2 C 0.1266 0.31558 0.31745 0.0
C3 C 0.1563 0.30595 0.32307 0.0
N4 N 0.09761 0.30386 0.32257 0.0
N5 N 0.14569 0.28832 0.33173 0.0
H6 H 0.09272 0.27635 0.33718 0.0
H7 H 0.12621 0.33103 0.31032 0.0
C8 C 0.04997 0.30054 0.2956 0.0
O9 O 0.02264 0.27887 0.29622 0.0
N10 N -0.0008 0.3233 0.31557 0.0
C11 C 0.97026 0.31876 0.3217 0.0
C12 C 0.94051 0.32969 0.31634 0.0
C13 C 0.98658 0.33914 0.30684 0.0
N14 N 0.9508 0.34225 0.30695 0.0
C15 C 0.01679 0.24721 0.32535 0.0
C16 C 0.05342 0.20464 0.31143 0.0
C17 C 0.02662 0.18944 0.31761 0.0
C18 C 0.00911 0.21105 0.32491 0.0
C19 C 0.06055 0.24089 0.31225 0.0
N20 N 0.04044 0.26214 0.31858 0.0
H21 H 0.00413 0.26296 0.33129 0.0
H22 H 0.08196 0.25194 0.30765 0.0
H23 H 0.9704 0.30928 0.32966 0.0
H24 H 0.00309 0.3483 0.30049 0.0
O25 O 0.03833 0.32174 0.3337 0.0
O26 O 0.05593 0.36229 0.32216 0.0
O27 O 0.06259 0.31516 0.30383 0.0
C28 C 0.04689 0.35456 0.33172 0.0
H29 H 0.18352 0.31216 0.32103 0.0
H30 H 0.91344 0.32891 0.31921 0.0
H31 H 0.06833 0.18898 0.30584 0.0
H32 H 0.98978 0.20014 0.33031 0.0
Co33 Co 0.3045 0.95907 0.68423 0.0
C34 C 0.27668 0.89499 0.67361 0.0
C35 C 0.30212 0.88187 0.68805 0.0
C36 C 0.294 0.85082 0.68289 0.0
N37 N 0.29051 0.90973 0.68234 0.0
N38 N 0.27811 0.85919 0.67377 0.0
H39 H 0.26963 0.90986 0.66671 0.0
H40 H 0.3181 0.8838 0.69505 0.0
C41 C 0.28739 0.93638 0.70635 0.0
O42 O 0.25746 0.92188 0.7032 0.0
N43 N 0.31935 0.00764 0.68601 0.0
C44 C 0.30858 0.03601 0.68043 0.0
C45 C 0.32173 0.06627 0.68513 0.0
C46 C 0.33926 0.02072 0.69385 0.0
N47 N 0.3409 0.0565 0.69359 0.0
C48 C 0.23435 0.97145 0.67641 0.0
C49 C 0.20836 0.00566 0.69396 0.0
C50 C 0.18573 0.00019 0.6854 0.0
C51 C 0.19937 0.98341 0.67648 0.0
C52 C 0.24333 0.99325 0.69354 0.0
N53 N 0.25541 0.97483 0.68503 0.0
H54 H 0.24474 0.96063 0.66926 0.0
H55 H 0.26081 -0.00092 0.70002 0.0
H56 H 0.29109 0.03486 0.67372 0.0
H57 H 0.35066 0.00451 0.69997 0.0
O58 O 0.31233 0.96365 0.66929 0.0
O59 O 0.35231 0.94559 0.68093 0.0
O60 O 0.3078 0.95204 0.69983 0.0
C61 C 0.34433 0.95226 0.67123 0.0
H62 H 0.30129 0.82432 0.68537 0.0
H63 H 0.31661 0.09332 0.68271 0.0
H64 H 0.19916 0.01921 0.70093 0.0
H65 H 0.18336 0.98021 0.66949 0.0
Co66 Co 0.95967 0.69325 0.31647 0.0
C67 C 0.89442 0.69358 0.32968 0.0
C68 C 0.89005 0.65845 0.31658 0.0
C69 C 0.86097 0.6534 0.32291 0.0
N70 N 0.91078 0.68429 0.32066 0.0
N71 N 0.86384 0.67552 0.33114 0.0
H72 H 0.90614 0.71006 0.33566 0.0
H73 H 0.89684 0.64231 0.30988 0.0
C74 C 0.92088 0.69272 0.29606 0.0
O75 O 0.8971 0.71408 0.3002 0.0
N76 N 0.0084 0.70023 0.3123 0.0
C77 C 0.0318 0.72464 0.31576 0.0
C78 C 0.06246 0.72187 0.30986 0.0
C79 C 0.02507 0.68263 0.30457 0.0
N80 N 0.05805 0.69541 0.30284 0.0
C81 C 0.94167 0.76478 0.32244 0.0
C82 C 0.96041 0.79535 0.30356 0.0
C83 C 0.95038 0.81726 0.31189 0.0
C84 C 0.94036 0.80164 0.32137 0.0
C85 C 0.96101 0.75869 0.30493 0.0
N86 N 0.95122 0.74364 0.31424 0.0
H87 H 0.93736 0.75369 0.33008 0.0
H88 H 0.97135 0.74258 0.29864 0.0
H89 H 0.02648 0.74383 0.32186 0.0
H90 H 0.01264 0.6619 0.29999 0.0
O91 O 0.97386 0.69441 0.33102 0.0
O92 O 0.97155 0.64615 0.32095 0.0
O93 O 0.94724 0.68191 0.30149 0.0
C94 C 0.97828 0.66031 0.33002 0.0
H95 H 0.8403 0.63371 0.32184 0.0
H96 H 0.08584 0.73846 0.31056 0.0
H97 H 0.96897 0.80652 0.29616 0.0
H98 H 0.93377 0.81784 0.32811 0.0
Co99 Co 0.68955 0.02075 0.68285 0.0
C100 C 0.6917 0.08562 0.67022 0.0
C101 C 0.65419 0.09022 0.68282 0.0
C102 C 0.65284 0.1208 0.67692 0.0
N103 N 0.67857 0.06837 0.67858 0.0
N104 N 0.67645 0.11778 0.66901 0.0
H105 H 0.71097 0.07423 0.6649 0.0
H106 H 0.63796 0.08401 0.68957 0.0
C107 C 0.69735 0.02456 0.70626 0.0
O108 O 0.72511 0.00345 0.70579 0.0
N109 N 0.6995 0.97243 0.68723 0.0
C110 C 0.72727 0.95076 0.68518 0.0
C111 C 0.72297 0.91974 0.69077 0.0
C112 C 0.67831 0.95377 0.69371 0.0
N113 N 0.69217 0.92182 0.69611 0.0
C114 C 0.76033 0.02158 0.67495 0.0
C115 C 0.79019 0.06367 0.69032 0.0
C116 C 0.81234 0.04825 0.68275 0.0
C117 C 0.79662 0.02834 0.67473 0.0
C118 C 0.75367 0.05668 0.69013 0.0
N119 N 0.73967 0.03356 0.68297 0.0
H120 H 0.74908 0.00561 0.66877 0.0
H121 H 0.73693 0.06987 0.69576 0.0
H122 H 0.7496 0.95667 0.68022 0.0
H123 H 0.65421 0.96439 0.69713 0.0
O124 O 0.68534 0.00517 0.66844 0.0
O125 O 0.64137 0.00663 0.68003 0.0
O126 O 0.68201 0.03501 0.69789 0.0
C127 C 0.65209 -0.00055 0.67059 0.0
H128 H 0.63557 0.14332 0.67828 0.0
H129 H 0.74142 0.8977 0.69107 0.0
H130 H 0.80095 0.08023 0.69649 0.0
H131 H 0.81231 0.01747 0.66838 0.0
Co132 Co 0.05817 0.19423 0.93642 0.0
C133 C 0.12253 0.21292 0.92488 0.0
C134 C 0.13527 0.18256 0.9386 0.0
C135 C 0.16623 0.18922 0.93315 0.0
N136 N 0.10807 0.19744 0.93335 0.0
N137 N 0.15807 0.2083 0.92453 0.0
H138 H 0.10702 0.22581 0.91885 0.0
H139 H 0.13268 0.16712 0.94569 0.0
C140 C 0.05194 0.20599 0.95948 0.0
O141 O 0.02439 0.22658 0.95772 0.0
N142 N 0.00771 0.18992 0.93947 0.0
C143 C 0.97956 0.20664 0.93515 0.0
C144 C 0.949 0.19508 0.94001 0.0
C145 C 0.99359 0.16728 0.94652 0.0
N146 N 0.95793 0.17052 0.94721 0.0
C147 C 0.04059 0.26284 0.92817 0.0
C148 C 0.07528 0.30201 0.94335 0.0
C149 C 0.05678 0.3198 0.93544 0.0
C150 C 0.03991 0.29981 0.92764 0.0
C151 C 0.07554 0.26501 0.94351 0.0
N152 N 0.0564 0.24584 0.93638 0.0
H153 H 0.0289 0.24791 0.92184 0.0
H154 H 0.09203 0.25199 0.94924 0.0
H155 H 0.98045 0.22581 0.92892 0.0
H156 H 0.00946 0.15 0.95141 0.0
O157 O 0.04826 0.18514 0.92179 0.0
O158 O 0.05969 0.14403 0.93377 0.0
O159 O 0.06926 0.1923 0.95187 0.0
C160 C 0.05215 0.15171 0.9241 0.0
H161 H 0.19255 0.18009 0.93527 0.0
H162 H 0.9223 0.20428 0.9384 0.0
H163 H 0.09009 0.31656 0.94922 0.0
H164 H 0.02611 0.31259 0.92123 0.0
Co165 Co 0.18338 0.93613 0.06259 0.0
C166 C 0.19795 0.86774 0.07271 0.0
C167 C 0.16603 0.86141 0.05889 0.0
C168 C 0.16891 0.82894 0.06377 0.0
N169 N 0.18413 0.88558 0.06455 0.0
N170 N 0.18894 0.83309 0.07244 0.0
H171 H 0.21207 0.88033 0.07909 0.0
H172 H 0.1502 0.86733 0.05205 0.0
C173 C 0.1953 0.94627 0.03955 0.0
O174 O 0.21741 0.97246 0.04153 0.0
N175 N 0.18129 0.98719 0.06045 0.0
C176 C 0.20194 0.01358 0.06425 0.0
C177 C 0.19202 0.04508 0.05963 0.0
C178 C 0.15822 0.00339 0.05393 0.0
N179 N 0.16463 0.03849 0.05313 0.0
C180 C 0.25174 0.94903 0.07153 0.0
C181 C 0.29155 0.9204 0.05544 0.0
C182 C 0.30902 0.93736 0.06375 0.0
C183 C 0.28864 0.95059 0.07205 0.0
C184 C 0.25446 0.91922 0.0553 0.0
N185 N 0.23503 0.93593 0.06288 0.0
H186 H 0.23658 0.95909 0.07806 0.0
H187 H 0.2416 0.90474 0.04908 0.0
H188 H 0.22328 0.01082 0.06979 0.0
H189 H 0.13869 0.98927 0.04929 0.0
O190 O 0.17412 0.94285 0.07736 0.0
O191 O 0.13299 0.93594 0.06508 0.0
O192 O 0.18131 0.92859 0.04702 0.0
C193 C 0.14066 0.94048 0.07492 0.0
H194 H 0.156 0.80453 0.06139 0.0
H195 H 0.20458 0.07069 0.06073 0.0
H196 H 0.30625 0.90878 0.04901 0.0
H197 H 0.30106 0.96227 0.07888 0.0
Co198 Co 0.9371 0.8095 0.93369 0.0
C199 C 0.87445 0.78046 0.92247 0.0
C200 C 0.85946 0.807 0.93659 0.0
C201 C 0.82902 0.79724 0.93135 0.0
N202 N 0.88808 0.79562 0.93116 0.0
N203 N 0.8386 0.78051 0.92247 0.0
H204 H 0.88998 0.77294 0.91574 0.0
H205 H 0.86048 0.82328 0.94355 0.0
C206 C 0.91155 0.78945 0.95517 0.0
O207 O 0.89793 0.76009 0.9513 0.0
N208 N 0.98535 0.82444 0.93614 0.0
C209 C 0.01459 0.81446 0.93081 0.0
C210 C 0.04389 0.82961 0.93551 0.0
C211 C 0.99695 0.84578 0.94385 0.0
N212 N 0.03266 0.84927 0.94371 0.0
C213 C 0.9512 0.73972 0.92564 0.0
C214 C 0.98454 0.714 0.94334 0.0
C215 C 0.98079 0.69166 0.93464 0.0
C216 C 0.9641 0.70505 0.92567 0.0
C217 C 0.97107 0.74848 0.94297 0.0
N218 N 0.95314 0.76047 0.93436 0.0
H219 H 0.94101 0.75016 0.91842 0.0
H220 H 0.97607 0.76586 0.94953 0.0
H221 H 0.01464 0.79673 0.92414 0.0
H222 H 0.97969 0.85741 0.94969 0.0
O223 O 0.94385 0.81828 0.9189 0.0
O224 O 0.92423 0.85761 0.9305 0.0
O225 O 0.9279 0.81129 0.94922 0.0
C226 C 0.93312 0.85047 0.92088 0.0
H227 H 0.80205 0.80349 0.93366 0.0
H228 H 0.07131 0.82601 0.93317 0.0
H229 H -0.00139 0.7053 0.95028 0.0
H230 H 0.96116 0.68901 0.91869 0.0
Co231 Co 0.80388 0.04558 0.0641 0.0
C232 C 0.78396 0.11038 0.07592 0.0
C233 C 0.81085 0.12315 0.06167 0.0
C234 C 0.80606 0.15398 0.06728 0.0
N235 N 0.79613 0.09576 0.06695 0.0
N236 N 0.78917 0.14581 0.07625 0.0
H237 H 0.77518 0.09524 0.08259 0.0
H238 H 0.82648 0.12074 0.05461 0.0
C239 C 0.78934 0.07461 0.0426 0.0
O240 O 0.76128 0.09141 0.04622 0.0
N241 N 0.81276 0.996 0.06135 0.0
C242 C 0.79936 0.96799 0.06658 0.0
C243 C 0.80943 0.93734 0.06148 0.0
C244 C 0.83113 0.9822 0.05327 0.0
N245 N 0.8293 0.94638 0.05308 0.0
C246 C 0.73185 0.04129 0.07133 0.0
C247 C 0.70426 0.01077 0.0534 0.0
C248 C 0.68161 0.01761 0.06186 0.0
C249 C 0.69584 0.03284 0.07093 0.0
C250 C 0.74014 0.01981 0.05412 0.0
N251 N 0.75329 0.03616 0.06286 0.0
H252 H 0.74261 0.05044 0.07863 0.0
H253 H 0.7575 0.01278 0.04772 0.0
H254 H 0.78245 0.96981 0.07341 0.0
H255 H 0.84424 -0.00184 0.0474 0.0
O256 O 0.81003 0.03658 0.0789 0.0
O257 O 0.85284 0.05205 0.06781 0.0
O258 O 0.80847 0.05571 0.04868 0.0
C259 C 0.84344 0.04383 0.07731 0.0
H260 H 0.81605 0.17997 0.06517 0.0
H261 H 0.80207 0.91057 0.06367 0.0
H262 H 0.69445 -0.00162 0.04632 0.0
H263 H 0.67956 0.03705 0.07781 0.0
Co264 Co 0.55211 0.80344 0.81442 0.0
C265 C 0.61208 0.77874 0.82714 0.0
C266 C 0.63018 0.8052 0.81324 0.0
C267 C 0.65934 0.79586 0.81915 0.0
N268 N 0.6007 0.79442 0.81829 0.0
N269 N 0.64786 0.77939 0.82791 0.0
H270 H 0.59434 0.76873 0.83312 0.0
H271 H 0.63049 0.81986 0.80597 0.0
C272 C 0.55162 0.79078 0.79128 0.0
O273 O 0.52192 0.77271 0.79231 0.0
N274 N 0.50306 0.81382 0.81053 0.0
C275 C 0.47274 0.8056 0.81565 0.0
C276 C 0.44428 0.81938 0.81025 0.0
C277 C 0.49249 0.83442 0.80245 0.0
N278 N 0.45675 0.83727 0.80189 0.0
C279 C 0.52219 0.73735 0.82118 0.0
C280 C 0.55977 0.69475 0.80749 0.0
C281 C 0.53475 0.67921 0.81418 0.0
C282 C 0.51636 0.70085 0.82124 0.0
C283 C 0.56468 0.73142 0.80769 0.0
N284 N 0.54434 0.75251 0.81402 0.0
H285 H 0.50985 0.7531 0.82718 0.0
H286 H 0.58531 0.74268 0.80285 0.0
H287 H 0.47084 0.79181 0.823 0.0
H288 H 0.51063 0.84659 0.79695 0.0
O289 O 0.54042 0.81196 0.82889 0.0
O290 O 0.55876 0.85291 0.8176 0.0
O291 O 0.56685 0.80453 0.79925 0.0
C292 C 0.54866 0.8449 0.82707 0.0
H293 H 0.68677 0.8016 0.81723 0.0
H294 H 0.41656 0.81685 0.8124 0.0
H295 H 0.57531 0.67881 0.80211 0.0
H296 H 0.49828 0.68959 0.82695 0.0
Co297 Co 0.80749 0.42889 0.18654 0.0
C298 C 0.78241 0.36796 0.17392 0.0
C299 C 0.80441 0.35093 0.1885 0.0
C300 C 0.79752 0.32139 0.1825 0.0
N301 N 0.79421 0.38026 0.18322 0.0
N302 N 0.78383 0.33222 0.1733 0.0
H303 H 0.77678 0.38467 0.16726 0.0
H304 H 0.81874 0.35087 0.19583 0.0
C305 C 0.78884 0.40073 0.20809 0.0
O306 O 0.75886 0.38721 0.20461 0.0
N307 N 0.82169 0.4768 0.18981 0.0
C308 C 0.81054 0.50706 0.18524 0.0
C309 C 0.82303 0.53541 0.19103 0.0
C310 C 0.84118 0.48695 0.1981 0.0
N311 N 0.84196 0.52258 0.19917 0.0
C312 C 0.73749 0.44218 0.17871 0.0
C313 C 0.71058 0.4722 0.19679 0.0
C314 C 0.68844 0.46915 0.18801 0.0
C315 C 0.70255 0.45436 0.17884 0.0
C316 C 0.74555 0.45999 0.19627 0.0
N317 N 0.75816 0.44376 0.18745 0.0
H318 H 0.74822 0.43279 0.17142 0.0
H319 H 0.76268 0.46435 0.20293 0.0
H320 H 0.79299 0.50834 0.17855 0.0
H321 H 0.85365 0.46853 0.20343 0.0
O322 O 0.81623 0.43849 0.17187 0.0
O323 O 0.85572 0.41718 0.18317 0.0
O324 O 0.80979 0.41717 0.2019 0.0
C325 C 0.84837 0.42724 0.17368 0.0
H326 H 0.80423 0.29428 0.1845 0.0
H327 H 0.8168 0.56311 0.18971 0.0
H328 H 0.70109 0.48393 0.20401 0.0
H329 H 0.68708 0.45303 0.1717 0.0
Co330 Co 0.43859 0.18233 0.81458 0.0
C331 C 0.38088 0.20826 0.828 0.0
C332 C 0.36045 0.18576 0.81377 0.0
C333 C 0.33224 0.19558 0.82001 0.0
N334 N 0.39081 0.19374 0.81882 0.0
N335 N 0.34517 0.20955 0.82898 0.0
H336 H 0.39951 0.216 0.83403 0.0
H337 H 0.35886 0.17269 0.80625 0.0
C338 C 0.43953 0.19926 0.79183 0.0
O339 O 0.46864 0.21764 0.79361 0.0
N340 N 0.48658 0.16919 0.81026 0.0
C341 C 0.51794 0.17303 0.8153 0.0
C342 C 0.54456 0.15797 0.80934 0.0
C343 C 0.49454 0.14978 0.80168 0.0
N344 N 0.52971 0.14376 0.80071 0.0
C345 C 0.47448 0.24576 0.82125 0.0
C346 C 0.43483 0.292 0.80919 0.0
C347 C 0.46254 0.30542 0.81534 0.0
C348 C 0.48212 0.28194 0.82157 0.0
C349 C 0.42818 0.25564 0.80911 0.0
N350 N 0.44928 0.23274 0.81461 0.0
H351 H 0.48795 0.22854 0.82665 0.0
H352 H 0.40593 0.2459 0.8046 0.0
H353 H 0.52166 0.18459 0.82293 0.0
H354 H 0.47483 0.13962 0.7963 0.0
O355 O 0.45058 0.17187 0.8289 0.0
O356 O 0.42924 0.13301 0.81741 0.0
O357 O 0.42349 0.18378 0.7994 0.0
C358 C 0.44031 0.13963 0.82688 0.0
H359 H 0.30441 0.19186 0.81817 0.0
H360 H 0.57263 0.15777 0.81119 0.0
H361 H 0.41855 0.30935 0.80443 0.0
H362 H 0.50254 0.29154 0.82684 0.0
Co363 Co 0.19246 0.54946 0.18552 0.0
C364 C 0.19929 0.60921 0.17033 0.0
C365 C 0.15953 0.61849 0.18201 0.0
C366 C 0.15747 0.64521 0.17471 0.0
N367 N 0.18603 0.59605 0.17934 0.0
N368 N 0.18257 0.63925 0.16741 0.0
H369 H 0.21828 0.59587 0.16541 0.0
H370 H 0.14144 0.61446 0.18848 0.0
C371 C 0.1982 0.59973 0.20353 0.0
O372 O 0.21848 0.62012 0.19769 0.0
N373 N 0.19696 0.50315 0.19172 0.0
C374 C 0.21805 0.47599 0.18882 0.0
C375 C 0.21056 0.44722 0.19516 0.0
C376 C 0.17687 0.49074 0.19961 0.0
N377 N 0.18451 0.4566 0.20189 0.0
C378 C 0.26261 0.55328 0.17693 0.0
C379 C 0.29871 0.55329 0.19576 0.0
C380 C 0.3181 0.55344 0.18642 0.0
C381 C 0.29961 0.55348 0.17692 0.0
C382 C 0.26162 0.55297 0.19542 0.0
N383 N 0.24391 0.55448 0.18608 0.0
H384 H 0.24921 0.55019 0.16955 0.0
H385 H 0.24739 0.54974 0.20268 0.0
H386 H 0.23708 0.4769 0.18248 0.0
H387 H 0.15705 0.50659 0.20358 0.0
O388 O 0.18819 0.528 0.17182 0.0
O389 O 0.14324 0.53944 0.18263 0.0
O390 O 0.1862 0.57044 0.19991 0.0
C391 C 0.15428 0.52702 0.17371 0.0
H392 H 0.13803 0.6664 0.17449 0.0
H393 H 0.22283 0.42128 0.19468 0.0
H394 H 0.31204 0.55162 0.20326 0.0
H395 H 0.3136 0.55266 0.16951 0.0
Co396 Co 0.53948 0.68793 0.43441 0.0
C397 C 0.60667 0.68605 0.42188 0.0
C398 C 0.60648 0.64867 0.43449 0.0
C399 C 0.63684 0.64348 0.4287 0.0
N400 N 0.58777 0.67585 0.43035 0.0
N401 N 0.63686 0.66709 0.4208 0.0
H402 H 0.59761 0.70465 0.41607 0.0
H403 H 0.59779 0.63251 0.44101 0.0
C404 C 0.57975 0.68981 0.45459 0.0
O405 O 0.60436 0.70898 0.44996 0.0
N406 N 0.49135 0.69804 0.43855 0.0
C407 C 0.46841 0.72181 0.43452 0.0
C408 C 0.43692 0.71967 0.44005 0.0
C409 C 0.47372 0.68159 0.44631 0.0
N410 N 0.4404 0.69425 0.44744 0.0
C411 C 0.55718 0.75674 0.42628 0.0
C412 C 0.54674 0.79349 0.44474 0.0
C413 C 0.55547 0.81252 0.43567 0.0
C414 C 0.56106 0.79354 0.42637 0.0
C415 C 0.54366 0.75661 0.44432 0.0
N416 N 0.54997 0.73844 0.43525 0.0
H417 H 0.55778 0.74342 0.41885 0.0
H418 H 0.53419 0.74297 0.45121 0.0
H419 H 0.47424 0.73951 0.42807 0.0
H420 H 0.48546 0.66117 0.45115 0.0
O421 O 0.52462 0.68522 0.41992 0.0
O422 O 0.52534 0.64022 0.43121 0.0
O423 O 0.55214 0.68001 0.44954 0.0
C424 C 0.51845 0.65188 0.42185 0.0
H425 H 0.65678 0.62323 0.43001 0.0
H426 H 0.41334 0.73547 0.4387 0.0
H427 H 0.54048 0.80701 0.45199 0.0
H428 H 0.56721 0.80703 0.41911 0.0
Co429 Co 0.68479 0.43871 0.56581 0.0
C430 C 0.70223 0.37559 0.57806 0.0
C431 C 0.67254 0.36187 0.5643 0.0
C432 C 0.67685 0.33179 0.5703 0.0
N433 N 0.6884 0.38917 0.56922 0.0
N434 N 0.6953 0.34053 0.57901 0.0
H435 H 0.71567 0.39161 0.58386 0.0
H436 H 0.65713 0.36408 0.55718 0.0
C437 C 0.69816 0.44302 0.54277 0.0
O438 O 0.71935 0.47017 0.54451 0.0
N439 N 0.67989 0.48877 0.56236 0.0
C440 C 0.69613 0.51758 0.56646 0.0
C441 C 0.68521 0.54728 0.56105 0.0
C442 C 0.65805 0.5017 0.55491 0.0
N443 N 0.66149 0.53714 0.55373 0.0
C444 C 0.7522 0.45863 0.57434 0.0
C445 C 0.79375 0.42554 0.55943 0.0
C446 C 0.81027 0.44623 0.56714 0.0
C447 C 0.78902 0.46184 0.57489 0.0
C448 C 0.75677 0.42272 0.55927 0.0
N449 N 0.73637 0.44149 0.56618 0.0
H450 H 0.73646 0.46991 0.58056 0.0
H451 H 0.74474 0.4053 0.55358 0.0
H452 H 0.71474 0.51772 0.57284 0.0
H453 H 0.64145 0.48507 0.55002 0.0
O454 O 0.67471 0.44953 0.58031 0.0
O455 O 0.63441 0.43655 0.56821 0.0
O456 O 0.68389 0.42643 0.55043 0.0
C457 C 0.64149 0.44474 0.57789 0.0
H458 H 0.66518 0.30611 0.56868 0.0
H459 H 0.69448 0.57416 0.5623 0.0
H460 H 0.80907 0.41208 0.55345 0.0
H461 H 0.80068 0.47633 0.58136 0.0
Co462 Co 0.44319 0.30446 0.43564 0.0
C463 C 0.38259 0.27399 0.42428 0.0
C464 C 0.36633 0.29571 0.43906 0.0
C465 C 0.33654 0.28447 0.43374 0.0
N466 N 0.39508 0.28918 0.43309 0.0
N467 N 0.34682 0.27103 0.42442 0.0
H468 H 0.39918 0.26739 0.41764 0.0
H469 H 0.3667 0.3092 0.44653 0.0
C470 C 0.45236 0.29579 0.45892 0.0
O471 O 0.48368 0.28119 0.45741 0.0
N472 N 0.49155 0.32095 0.43814 0.0
C473 C 0.52116 0.31455 0.43248 0.0
C474 C 0.54957 0.33106 0.4372 0.0
C475 C 0.5022 0.34322 0.44581 0.0
N476 N 0.53769 0.34868 0.44569 0.0
C477 C 0.47767 0.24187 0.42786 0.0
C478 C 0.45527 0.19673 0.44358 0.0
C479 C 0.47841 0.18385 0.43588 0.0
C480 C 0.48891 0.20661 0.4278 0.0
C481 C 0.44438 0.23212 0.44326 0.0
N482 N 0.4576 0.25488 0.43589 0.0
H483 H 0.48459 0.25843 0.42131 0.0
H484 H 0.42488 0.2409 0.44888 0.0
H485 H 0.52254 0.29946 0.42534 0.0
H486 H 0.48445 0.35409 0.45164 0.0
O487 O 0.44937 0.31421 0.42087 0.0
O488 O 0.42939 0.35254 0.43269 0.0
O489 O 0.43306 0.30517 0.45117 0.0
C490 C 0.43765 0.3459 0.423 0.0
H491 H 0.30934 0.28721 0.43638 0.0
H492 H 0.57691 0.32985 0.4346 0.0
H493 H 0.4451 0.17943 0.44965 0.0
H494 H 0.50584 0.19733 0.42151 0.0
Co495 Co 0.30197 0.56754 0.56414 0.0
C496 C 0.28242 0.62862 0.57766 0.0
C497 C 0.30698 0.64576 0.56345 0.0
C498 C 0.30163 0.675 0.56971 0.0
N499 N 0.29388 0.61666 0.56828 0.0
N500 N 0.28617 0.66409 0.57867 0.0
H501 H 0.27495 0.61161 0.58407 0.0
H502 H 0.32151 0.64566 0.55615 0.0
C503 C 0.28221 0.60203 0.54387 0.0
O504 O 0.25487 0.61672 0.5486 0.0
N505 N 0.31124 0.51902 0.56016 0.0
C506 C 0.29736 0.48972 0.56463 0.0
C507 C 0.30788 0.4605 0.55893 0.0
C508 C 0.33051 0.50738 0.55195 0.0
N509 N 0.3287 0.47172 0.551 0.0
C510 C 0.23128 0.55977 0.5723 0.0
C511 C 0.20146 0.53255 0.55422 0.0
C512 C 0.18017 0.53676 0.56311 0.0
C513 C 0.19548 0.5504 0.57225 0.0
C514 C 0.23712 0.54262 0.55459 0.0
N515 N 0.25136 0.5573 0.56344 0.0
H516 H 0.24305 0.56729 0.57962 0.0
H517 H 0.25352 0.5376 0.54781 0.0
H518 H 0.27987 0.48976 0.57134 0.0
H519 H 0.34432 0.52469 0.54655 0.0
O520 O 0.31068 0.55491 0.57856 0.0
O521 O 0.35145 0.57402 0.56731 0.0
O522 O 0.30337 0.58181 0.54894 0.0
C523 C 0.34367 0.56323 0.57672 0.0
H524 H 0.30991 0.70188 0.56798 0.0
H525 H 0.30037 0.43319 0.56039 0.0
H526 H 0.19074 0.52135 0.54707 0.0
H527 H 0.18026 0.55252 0.57942 0.0
C528 C 0.05239 0.29533 0.27597 0.0
C529 C 0.06432 0.31126 0.28529 0.0
C530 C 0.0647 0.30744 0.26625 0.0
C531 C 0.09864 0.38791 0.25398 0.0
H532 H 0.13565 0.32693 0.23206 0.0
C533 C 0.13397 0.44354 0.21363 0.0
C534 C 0.16822 0.43526 0.20995 0.0
C535 C 0.11927 0.4251 0.22205 0.0
C536 C 0.12533 0.34419 0.23812 0.0
H537 H 0.09927 0.35179 0.29169 0.0
H538 H 0.12021 0.37291 0.27483 0.0
H539 H 0.11433 0.30066 0.24851 0.0
H540 H 0.21316 0.39985 0.21198 0.0
H541 H 0.18725 0.36737 0.22669 0.0
H542 H 0.10976 0.43142 0.24376 0.0
C543 C 0.1013 0.3512 0.27503 0.0
C544 C 0.11295 0.32918 0.24747 0.0
C545 C 0.08936 0.33894 0.28469 0.0
C546 C 0.1867 0.40684 0.21458 0.0
C547 C 0.17186 0.38821 0.223 0.0
C548 C 0.11055 0.40281 0.24463 0.0
C549 C 0.08877 0.33595 0.26571 0.0
C550 C 0.09995 0.35102 0.25553 0.0
C551 C 0.13835 0.39776 0.22696 0.0
C552 C 0.1243 0.38118 0.23664 0.0
H553 H 0.03319 0.27389 0.27617 0.0
H554 H 0.0546 0.2953 0.25916 0.0
H555 H 0.08846 0.40532 0.26003 0.0
H556 H 0.11852 0.46455 0.21008 0.0
H557 H 0.0931 0.43259 0.22482 0.0
C558 C 0.45061 0.88062 0.78745 0.0
C559 C 0.43629 0.85309 0.79356 0.0
C560 C 0.43202 0.89375 0.77881 0.0
C561 C 0.34328 0.89503 0.76592 0.0
H562 H 0.39933 0.91015 0.74086 0.0
C563 C 0.2832 0.90804 0.72414 0.0
C564 C 0.29959 0.93229 0.71731 0.0
C565 C 0.29754 0.90166 0.73408 0.0
C566 C 0.3833 0.90656 0.74782 0.0
H567 H 0.3908 0.81826 0.79547 0.0
H568 H 0.35854 0.84092 0.78038 0.0
H569 H 0.42881 0.89358 0.75705 0.0
H570 H 0.3426 0.97044 0.71583 0.0
H571 H 0.36715 0.95965 0.7331 0.0
H572 H 0.29763 0.90738 0.75654 0.0
C573 C 0.38389 0.85281 0.78236 0.0
C574 C 0.40023 0.89711 0.75712 0.0
C575 C 0.40243 0.83978 0.79102 0.0
C576 C 0.32955 0.95121 0.72082 0.0
C577 C 0.34376 0.94492 0.73072 0.0
C578 C 0.32627 0.90442 0.75658 0.0
C579 C 0.39872 0.87954 0.77604 0.0
C580 C 0.38048 0.89114 0.76629 0.0
C581 C 0.32849 0.91947 0.73737 0.0
C582 C 0.34613 0.91026 0.74742 0.0
H583 H 0.47633 0.8919 0.7893 0.0
H584 H 0.44392 0.91486 0.77424 0.0
H585 H 0.32729 0.89097 0.77287 0.0
H586 H 0.26009 0.89304 0.72167 0.0
H587 H 0.28523 0.88177 0.73902 0.0
C588 C 0.86509 0.57799 0.20712 0.0
C589 C 0.85519 0.54212 0.20806 0.0
C590 C 0.87642 0.59714 0.21591 0.0
C591 C 0.90999 0.58485 0.24295 0.0
H592 H 0.87264 0.67951 0.24762 0.0
C593 C 0.88501 0.68536 0.27968 0.0
C594 C 0.91708 0.68052 0.28512 0.0
C595 C 0.88088 0.67187 0.26956 0.0
C596 C 0.88322 0.65306 0.24644 0.0
H597 H 0.84877 0.49856 0.21903 0.0
H598 H 0.86842 0.53164 0.2342 0.0
H599 H 0.85925 0.64859 0.23129 0.0
H600 H 0.9706 0.65929 0.28403 0.0
H601 H 0.96362 0.63639 0.26635 0.0
H602 H 0.93255 0.58844 0.25824 0.0
C603 C 0.8683 0.54487 0.22668 0.0
C604 C 0.87592 0.63553 0.23702 0.0
C605 C 0.85704 0.52582 0.21794 0.0
C606 C 0.94535 0.66303 0.28011 0.0
C607 C 0.94132 0.6498 0.26997 0.0
C608 C 0.91718 0.60227 0.25235 0.0
C609 C 0.87805 0.58076 0.22579 0.0
C610 C 0.88869 0.60095 0.23527 0.0
C611 C 0.90883 0.65348 0.26464 0.0
C612 C 0.90344 0.63638 0.25428 0.0
H613 H 0.86416 0.5912 0.19961 0.0
H614 H 0.88405 0.62469 0.21496 0.0
H615 H 0.92066 0.55842 0.24178 0.0
H616 H 0.86273 0.69871 0.28334 0.0
H617 H 0.85535 0.67481 0.26574 0.0
C618 C 0.58062 0.11122 0.79295 0.0
C619 C 0.54748 0.12805 0.79184 0.0
C620 C 0.59809 0.097 0.78422 0.0
C621 C 0.58188 0.06859 0.75678 0.0
H622 H 0.68334 0.08298 0.7534 0.0
C623 C 0.65058 0.05464 0.71697 0.0
C624 C 0.68271 0.03563 0.71652 0.0
C625 C 0.63546 0.06363 0.72658 0.0
C626 C 0.65508 0.07839 0.7543 0.0
H627 H 0.50719 0.14391 0.78063 0.0
H628 H 0.53749 0.11947 0.7655 0.0
H629 H 0.65407 0.10235 0.76951 0.0
H630 H 0.72449 0.01173 0.72587 0.0
H631 H 0.69804 0.02786 0.74273 0.0
H632 H 0.58271 0.04547 0.74148 0.0
C633 C 0.54969 0.11634 0.77312 0.0
C634 C 0.6383 0.0894 0.76353 0.0
C635 C 0.53225 0.13038 0.78182 0.0
C636 C 0.69973 0.02639 0.72594 0.0
C637 C 0.68467 0.03569 0.73559 0.0
C638 C 0.59857 0.05782 0.74755 0.0
C639 C 0.58281 0.09943 0.77419 0.0
C640 C 0.60136 0.08517 0.7648 0.0
C641 C 0.65215 0.05403 0.73599 0.0
C642 C 0.63523 0.06312 0.74614 0.0
H643 H 0.59291 0.10879 0.80058 0.0
H644 H 0.6234 0.08384 0.78534 0.0
H645 H 0.55356 0.06414 0.75758 0.0
H646 H 0.63673 0.06224 0.70988 0.0
H647 H 0.61066 0.07825 0.72663 0.0
C648 C 0.11357 0.0605 0.04293 0.0
C649 C 0.14981 0.06213 0.04546 0.0
C650 C 0.09982 0.08128 0.03482 0.0
C651 C 0.12348 0.15574 0.01651 0.0
H652 H 0.05127 0.11198 0.99908 0.0
C653 C 0.09669 0.18777 0.97286 0.0
C654 C 0.06142 0.19628 0.97029 0.0
C655 C 0.10524 0.1761 0.98292 0.0
C656 C 0.07116 0.12463 0.00396 0.0
H657 H 0.20016 0.08653 0.04156 0.0
H658 H 0.17688 0.12154 0.02715 0.0
H659 H 0.07022 0.08242 0.01508 0.0
H660 H 0.0074 0.19931 0.97615 0.0
H661 H 0.02231 0.1776 0.99371 0.0
H662 H 0.1258 0.19675 0.00486 0.0
C663 C 0.15848 0.10548 0.03162 0.0
C664 C 0.08192 0.10787 0.01318 0.0
C665 C 0.17198 0.08529 0.03987 0.0
C666 C 0.03487 0.19327 0.97798 0.0
C667 C 0.0433 0.18074 0.98797 0.0
C668 C 0.11325 0.17204 0.00716 0.0
C669 C 0.12225 0.10351 0.02889 0.0
C670 C 0.10859 0.12295 0.01954 0.0
C671 C 0.07852 0.17194 0.99049 0.0
C672 C 0.08727 0.15642 0.00078 0.0
H673 H 0.09598 0.04294 0.0472 0.0
H674 H 0.07167 0.07955 0.03314 0.0
H675 H 0.14339 0.1687 0.02128 0.0
H676 H 0.11759 0.18985 0.96705 0.0
H677 H 0.13254 0.16918 0.9847 0.0
C678 C 0.08808 0.85404 0.95402 0.0
C679 C 0.05409 0.86691 0.95147 0.0
C680 C 0.10687 0.86827 0.96248 0.0
C681 C 0.08832 0.91062 0.98753 0.0
H682 H 0.19071 0.92177 0.98925 0.0
C683 C 0.1963 0.95911 0.02023 0.0
C684 C 0.18441 0.93828 0.02868 0.0
C685 C 0.18315 0.95313 0.01013 0.0
C686 C 0.16207 0.91906 0.98884 0.0
H687 H 0.01446 0.90667 0.95524 0.0
H688 H 0.04718 0.9315 0.96999 0.0
H689 H 0.1628 0.90896 0.97231 0.0
H690 H 0.15055 0.89393 0.03304 0.0
H691 H 0.1278 0.88373 0.01553 0.0
H692 H 0.08747 0.92008 0.00402 0.0
C693 C 0.05899 0.90992 0.96559 0.0
C694 C 0.14615 0.91152 0.97918 0.0
C695 C 0.04022 0.89567 0.95716 0.0
C696 C 0.1601 0.91069 0.02675 0.0
C697 C 0.14689 0.90491 0.01672 0.0
C698 C 0.1042 0.91786 0.99714 0.0
C699 C 0.09203 0.89568 0.96854 0.0
C700 C 0.10912 0.90684 0.97847 0.0
C701 C 0.15773 0.92645 0.00835 0.0
C702 C 0.14124 0.92156 0.99793 0.0
H703 H 0.0994 0.83174 0.94984 0.0
H704 H 0.13213 0.85651 0.96461 0.0
H705 H 0.0598 0.90672 0.98728 0.0
H706 H 0.21503 0.98057 0.02146 0.0
H707 H 0.1919 0.97011 0.00379 0.0
C708 C 0.88383 0.7786 0.97276 0.0
C709 C 0.90711 0.7982 0.96638 0.0
C710 C 0.87811 0.78859 0.98318 0.0
C711 C 0.91524 0.84313 0.00475 0.0
H712 H 0.81704 0.85084 0.01369 0.0
C713 C 0.87074 0.93402 0.03851 0.0
C714 C 0.8422 0.92338 0.04489 0.0
C715 C 0.88106 0.9135 0.02993 0.0
C716 C 0.84466 0.84823 0.01142 0.0
H717 H 0.94359 0.8429 0.96606 0.0
H718 H 0.9335 0.86029 0.98413 0.0
H719 H 0.83081 0.82389 0.99684 0.0
H720 H 0.80296 0.88199 0.0474 0.0
H721 H 0.82145 0.84584 0.03255 0.0
H722 H 0.92904 0.86819 0.01923 0.0
C723 C 0.9198 0.8371 0.98113 0.0
C724 C 0.85254 0.83278 0.00175 0.0
C725 C 0.92535 0.82728 0.97073 0.0
C726 C 0.82516 0.89095 0.04271 0.0
C727 C 0.8355 0.87039 0.03412 0.0
C728 C 0.90737 0.8585 0.01443 0.0
C729 C 0.89578 0.81818 0.98744 0.0
C730 C 0.88785 0.83074 0.99821 0.0
C731 C 0.86316 0.88175 0.02752 0.0
C732 C 0.87193 0.8619 0.01779 0.0
H733 H 0.86944 0.75602 0.96966 0.0
H734 H 0.85966 0.77331 0.98788 0.0
H735 H 0.94276 0.84141 0.00231 0.0
H736 H 0.8848 0.95856 0.04004 0.0
H737 H 0.90227 0.92324 0.02496 0.0
C738 C 0.78679 0.10651 0.02536 0.0
C739 C 0.80049 0.07896 0.03158 0.0
C740 C 0.80013 0.11237 0.01528 0.0
C741 C 0.88133 0.09643 0.99992 0.0
H742 H 0.82411 0.12763 0.97642 0.0
C743 C 0.94478 0.12265 0.95986 0.0
C744 C 0.93529 0.15483 0.95505 0.0
C745 C 0.92521 0.10959 0.96832 0.0
C746 C 0.84042 0.11906 0.98293 0.0
H747 H 0.83731 0.03459 0.03185 0.0
H748 H 0.86 0.04441 0.0143 0.0
H749 H 0.79521 0.11191 0.99294 0.0
H750 H 0.89692 0.19785 0.95515 0.0
H751 H 0.86285 0.17511 0.96988 0.0
H752 H 0.92653 0.1041 0.99006 0.0
C753 C 0.83968 0.06211 0.01728 0.0
C754 C 0.82389 0.11011 0.99238 0.0
C755 C 0.82655 0.05641 0.02734 0.0
C756 C 0.90478 0.1728 0.95858 0.0
C757 C 0.88521 0.15975 0.96705 0.0
C758 C 0.89779 0.1053 0.9905 0.0
C759 C 0.82728 0.09066 0.01122 0.0
C760 C 0.84422 0.09886 0.001 0.0
C761 C 0.89571 0.12843 0.97216 0.0
C762 C 0.87759 0.11692 0.98191 0.0
H763 H 0.76669 0.12433 0.02841 0.0
H764 H 0.79016 0.13474 0.01084 0.0
H765 H 0.89788 0.08859 0.00646 0.0
H766 H 0.96771 0.10781 0.95721 0.0
H767 H 0.93357 0.085 0.97197 0.0
C768 C 0.54586 0.79746 0.7719 0.0
C769 C 0.56741 0.79598 0.78085 0.0
C770 C 0.56076 0.80517 0.76214 0.0
C771 C 0.64143 0.84647 0.75063 0.0
H772 H 0.60196 0.81106 0.7246 0.0
C773 C 0.70338 0.88165 0.71096 0.0
C774 C 0.6794 0.89822 0.7041 0.0
C775 C 0.6909 0.86324 0.71971 0.0
C776 C 0.61324 0.821 0.73183 0.0
H777 H 0.62147 0.79929 0.7866 0.0
H778 H 0.64774 0.81109 0.76956 0.0
H779 H 0.57835 0.78954 0.74126 0.0
H780 H 0.62376 0.90665 0.70057 0.0
H781 H 0.60182 0.87394 0.71582 0.0
H782 H 0.67646 0.87764 0.74117 0.0
C783 C 0.61919 0.80782 0.77006 0.0
C784 C 0.59962 0.80892 0.74137 0.0
C785 C 0.60421 0.80085 0.77983 0.0
C786 C 0.64272 0.89427 0.7058 0.0
C787 C 0.63021 0.87541 0.71446 0.0
C788 C 0.65536 0.85803 0.74112 0.0
C789 C 0.5976 0.8109 0.76111 0.0
C790 C 0.61328 0.82184 0.75091 0.0
C791 C 0.65423 0.86064 0.72165 0.0
C792 C 0.64117 0.84573 0.73163 0.0
H793 H 0.51734 0.79399 0.77251 0.0
H794 H 0.54317 0.8078 0.75548 0.0
H795 H 0.65212 0.85776 0.75776 0.0
H796 H 0.73177 0.88457 0.70988 0.0
H797 H 0.70991 0.85192 0.72513 0.0
C798 C 0.77788 0.37866 0.22644 0.0
C799 C 0.79903 0.39746 0.21925 0.0
C800 C 0.78854 0.37544 0.23691 0.0
C801 C 0.84914 0.41534 0.25661 0.0
H802 H 0.8483 0.32179 0.26926 0.0
C803 C 0.94117 0.37655 0.29068 0.0
C804 C 0.92827 0.35342 0.29843 0.0
C805 C 0.92045 0.38479 0.28194 0.0
C806 C 0.84816 0.34824 0.26593 0.0
H807 H 0.84793 0.42762 0.2175 0.0
H808 H 0.86617 0.42209 0.23556 0.0
H809 H 0.82013 0.33078 0.25227 0.0
H810 H 0.88302 0.32145 0.30315 0.0
H811 H 0.8467 0.33623 0.28797 0.0
H812 H 0.87801 0.43261 0.27012 0.0
C813 C 0.84118 0.41021 0.2332 0.0
C814 C 0.83198 0.35337 0.25619 0.0
C815 C 0.83074 0.4132 0.22279 0.0
C816 C 0.89369 0.3396 0.29739 0.0
C817 C 0.873 0.34775 0.28862 0.0
C818 C 0.86531 0.41021 0.26633 0.0
C819 C 0.82035 0.39122 0.24039 0.0
C820 C 0.83307 0.38679 0.25131 0.0
C821 C 0.88634 0.37004 0.28073 0.0
C822 C 0.86573 0.37642 0.27099 0.0
H823 H 0.7533 0.36624 0.22397 0.0
H824 H 0.77186 0.36072 0.24229 0.0
H825 H 0.84984 0.44157 0.25314 0.0
H826 H 0.96748 0.388 0.2913 0.0
H827 H 0.93167 0.4018 0.27596 0.0
C828 C 0.38333 0.06711 0.70796 0.0
C829 C 0.35512 0.07903 0.70168 0.0
C830 C 0.39414 0.08663 0.71668 0.0
C831 C 0.421 0.13962 0.73271 0.0
H832 H 0.34425 0.17192 0.75062 0.0
C833 C 0.44811 0.20613 0.77253 0.0
C834 C 0.42784 0.19311 0.78094 0.0
C835 C 0.43896 0.19771 0.76223 0.0
C836 C 0.36596 0.16307 0.7457 0.0
H837 H 0.31716 0.12165 0.69937 0.0
H838 H 0.33642 0.15607 0.71452 0.0
H839 H 0.33065 0.1472 0.73345 0.0
H840 H 0.3814 0.16202 0.78513 0.0
H841 H 0.36559 0.14713 0.76717 0.0
H842 H 0.45619 0.15405 0.74516 0.0
C843 C 0.34987 0.13135 0.71275 0.0
C844 C 0.35822 0.14931 0.73581 0.0
C845 C 0.3391 0.11182 0.70401 0.0
C846 C 0.39756 0.17247 0.77883 0.0
C847 C 0.38838 0.16411 0.76852 0.0
C848 C 0.42874 0.15342 0.7426 0.0
C849 C 0.37697 0.11855 0.71932 0.0
C850 C 0.38561 0.13683 0.72929 0.0
C851 C 0.4093 0.17618 0.76013 0.0
C852 C 0.40125 0.1647 0.74927 0.0
H853 H 0.39649 0.04218 0.70629 0.0
H854 H 0.41493 0.07588 0.72162 0.0
H855 H 0.44269 0.13052 0.72782 0.0
H856 H 0.47156 0.22218 0.77388 0.0
H857 H 0.45533 0.20776 0.75592 0.0
C858 C 0.20082 0.64314 0.21841 0.0
C859 C 0.19008 0.60999 0.21445 0.0
C860 C 0.19243 0.65297 0.22867 0.0
C861 C 0.16485 0.61625 0.25428 0.0
H862 H 0.12501 0.70993 0.25888 0.0
C863 C 0.07951 0.65093 0.29015 0.0
C864 C 0.08129 0.68534 0.29438 0.0
C865 C 0.0987 0.64215 0.28117 0.0
C866 C 0.13673 0.68392 0.25779 0.0
H867 H 0.16256 0.56093 0.21822 0.0
H868 H 0.14778 0.57818 0.23605 0.0
H869 H 0.14724 0.69396 0.2416 0.0
H870 H 0.10587 0.73712 0.29273 0.0
H871 H 0.13997 0.72162 0.27711 0.0
H872 H 0.1537 0.60596 0.27042 0.0
C873 C 0.16298 0.59646 0.23127 0.0
C874 C 0.14941 0.67475 0.24787 0.0
C875 C 0.17121 0.5867 0.22101 0.0
C876 C 0.10404 0.71034 0.2897 0.0
C877 C 0.12326 0.70157 0.28069 0.0
C878 C 0.15225 0.62544 0.2642 0.0
C879 C 0.17332 0.62977 0.2352 0.0
C880 C 0.16297 0.64058 0.24596 0.0
C881 C 0.12024 0.66757 0.2762 0.0
C882 C 0.1374 0.65915 0.26602 0.0
H883 H 0.21546 0.66166 0.21356 0.0
H884 H 0.201 0.6787 0.23151 0.0
H885 H 0.17573 0.58992 0.25309 0.0
H886 H 0.06263 0.63091 0.29366 0.0
H887 H 0.09549 0.61581 0.27789 0.0
C888 C 0.61545 0.54858 0.54036 0.0
C889 C 0.64751 0.55814 0.54525 0.0
C890 C 0.60405 0.56625 0.53136 0.0
C891 C 0.61976 0.6464 0.51493 0.0
H892 H 0.58501 0.58563 0.49265 0.0
C893 C 0.61402 0.68918 0.47144 0.0
C894 C 0.5841 0.67868 0.46562 0.0
C895 C 0.61876 0.67712 0.48169 0.0
C896 C 0.59419 0.60306 0.49884 0.0
H897 H 0.69224 0.59442 0.54467 0.0
H898 H 0.67262 0.62501 0.52894 0.0
H899 H 0.59791 0.56021 0.50973 0.0
H900 H 0.53518 0.64804 0.46612 0.0
H901 H 0.54355 0.62708 0.48397 0.0
H902 H 0.6169 0.68908 0.50386 0.0
C903 C 0.6559 0.60426 0.53214 0.0
C904 C 0.6015 0.58851 0.50865 0.0
C905 C 0.66719 0.5867 0.54118 0.0
C906 C 0.55866 0.6565 0.47035 0.0
C907 C 0.56349 0.64434 0.48057 0.0
C908 C 0.61261 0.66093 0.50508 0.0
C909 C 0.62457 0.59377 0.527 0.0
C910 C 0.61462 0.60993 0.5168 0.0
C911 C 0.59377 0.65419 0.48631 0.0
C912 C 0.59998 0.63934 0.49691 0.0
H913 H 0.59944 0.52705 0.54342 0.0
H914 H 0.57941 0.55797 0.52771 0.0
H915 H 0.62938 0.66374 0.52107 0.0
H916 H 0.63407 0.70628 0.46803 0.0
H917 H 0.64252 0.68491 0.4859 0.0
C918 C 0.5941 0.3533 0.45555 0.0
C919 C 0.55881 0.36438 0.45392 0.0
C920 C 0.6131 0.36475 0.46431 0.0
C921 C 0.615 0.43093 0.48571 0.0
H922 H 0.66305 0.35583 0.50094 0.0
C923 C 0.66885 0.40236 0.52993 0.0
C924 C 0.68796 0.43369 0.53195 0.0
C925 C 0.65659 0.39488 0.51985 0.0
C926 C 0.64976 0.37709 0.49678 0.0
H927 H 0.51674 0.39806 0.45996 0.0
H928 H 0.54974 0.41758 0.47534 0.0
H929 H 0.63487 0.34267 0.48421 0.0
H930 H 0.70962 0.48155 0.52495 0.0
H931 H 0.68817 0.46838 0.50732 0.0
H932 H 0.62911 0.4651 0.49847 0.0
C933 C 0.5627 0.40007 0.46979 0.0
C934 C 0.63394 0.36966 0.48714 0.0
C935 C 0.54364 0.38858 0.46103 0.0
C936 C 0.69513 0.45708 0.52364 0.0
C937 C 0.6826 0.44972 0.51356 0.0
C938 C 0.63102 0.43842 0.49534 0.0
C939 C 0.59734 0.38759 0.47165 0.0
C940 C 0.61606 0.39639 0.48155 0.0
C941 C 0.66297 0.41867 0.51159 0.0
C942 C 0.64817 0.41144 0.50103 0.0
H943 H 0.60667 0.3345 0.45033 0.0
H944 H 0.63993 0.35506 0.46545 0.0
H945 H 0.60161 0.45212 0.48155 0.0
H946 H 0.66283 0.38382 0.53616 0.0
H947 H 0.64121 0.37093 0.5186 0.0
C948 C 0.37643 0.45814 0.53835 0.0
C949 C 0.34289 0.4505 0.54263 0.0
C950 C 0.38965 0.43808 0.52999 0.0
C951 C 0.36078 0.38994 0.50727 0.0
H952 H 0.45152 0.34116 0.50792 0.0
C953 C 0.40503 0.30596 0.47219 0.0
C954 C 0.44116 0.30622 0.46952 0.0
C955 C 0.39371 0.31995 0.48175 0.0
C956 C 0.42635 0.35502 0.50752 0.0
H957 H 0.29677 0.41624 0.54152 0.0
H958 H 0.31946 0.3818 0.5267 0.0
H959 H 0.43127 0.37396 0.52332 0.0
H960 H 0.49398 0.32089 0.47467 0.0
H961 H 0.47428 0.34693 0.49115 0.0
H962 H 0.35619 0.37302 0.49142 0.0
C963 C 0.3357 0.40289 0.52994 0.0
C964 C 0.41475 0.37361 0.51638 0.0
C965 C 0.32285 0.42242 0.53843 0.0
C966 C 0.46597 0.31992 0.47665 0.0
C967 C 0.45459 0.33478 0.48611 0.0
C968 C 0.37264 0.37208 0.49836 0.0
C969 C 0.36915 0.41062 0.52563 0.0
C970 C 0.38179 0.39104 0.51633 0.0
C971 C 0.41818 0.33558 0.48872 0.0
C972 C 0.40552 0.35414 0.49836 0.0
H973 H 0.39238 0.47957 0.5415 0.0
H974 H 0.41545 0.4446 0.52674 0.0
H975 H 0.33544 0.4036 0.50702 0.0
H976 H 0.38544 0.29531 0.46682 0.0
H977 H 0.36562 0.31899 0.48356 0.0
C978 C 0.31375 0.58896 0.52709 0.0
C979 C 0.28958 0.60995 0.53275 0.0
C980 C 0.32236 0.59746 0.51677 0.0
C981 C 0.32911 0.67314 0.49925 0.0
H982 H 0.34075 0.60115 0.47782 0.0
C983 C 0.38906 0.70758 0.45895 0.0
C984 C 0.41508 0.68375 0.45534 0.0
C985 C 0.36688 0.69836 0.46732 0.0
C986 C 0.33779 0.62157 0.48372 0.0
H987 H 0.25487 0.65586 0.53196 0.0
H988 H 0.27038 0.67101 0.51391 0.0
H989 H 0.31476 0.5851 0.49466 0.0
H990 H 0.43654 0.63068 0.45727 0.0
H991 H 0.39904 0.61514 0.47198 0.0
H992 H 0.35365 0.70929 0.48857 0.0
C993 C 0.28255 0.64795 0.51749 0.0
C994 C 0.32281 0.61236 0.49335 0.0
C995 C 0.27359 0.63919 0.5278 0.0
C996 C 0.41733 0.64998 0.45997 0.0
C997 C 0.39535 0.64083 0.46834 0.0
C998 C 0.3444 0.6823 0.48966 0.0
C999 C 0.30725 0.62732 0.51191 0.0
C1000 C 0.31902 0.63789 0.50129 0.0
C1001 C 0.37025 0.66511 0.47225 0.0
C1002 C 0.34969 0.65644 0.48186 0.0
H1003 H 0.32638 0.56615 0.53067 0.0
H1004 H 0.34176 0.58129 0.5127 0.0
H1005 H 0.32682 0.6933 0.50527 0.0
H1006 H 0.38663 0.73382 0.45557 0.0
H1007 H 0.3475 0.71752 0.47004 0.0
C1008 C 0.98105 0.14082 0.31743 0.0
C1009 C 0.01678 0.15146 0.31646 0.0
C1010 C 0.97155 0.10522 0.31631 0.0
C1011 C -0.00082 0.0222 0.30428 0.0
H1012 H 0.94371 0.97689 0.3261 0.0
C1013 C 0.98591 0.87075 0.30719 0.0
C1014 C 0.95418 0.85618 0.31106 0.0
C1015 C 0.99098 0.9074 0.3071 0.0
C1016 C 0.95858 0.98924 0.31982 0.0
H1017 H 0.07054 0.13271 0.31363 0.0
H1018 H 0.05362 0.07063 0.31137 0.0
H1019 H 0.95758 0.03998 0.3274 0.0
H1020 H 0.90245 0.86822 0.31758 0.0
H1021 H 0.91075 0.93261 0.31714 0.0
H1022 H -0.00011 0.97181 0.29659 0.0
C1023 C 0.03311 0.09007 0.31299 0.0
C1024 C 0.96667 0.0253 0.32062 0.0
C1025 C 0.04272 0.12562 0.31425 0.0
C1026 C 0.92722 0.87892 0.31461 0.0
C1027 C 0.9321 0.9157 0.31441 0.0
C1028 C 0.99069 0.98625 0.3034 0.0
C1029 C -0.00253 0.07961 0.31404 0.0
C1030 C 0.98745 0.04192 0.31293 0.0
C1031 C 0.96426 0.93034 0.31078 0.0
C1032 C 0.97076 0.9692 0.31125 0.0
H1033 H 0.96026 0.16006 0.31891 0.0
H1034 H 0.94384 0.09776 0.31706 0.0
H1035 H 0.01485 0.03464 0.29818 0.0
H1036 H 0.00737 0.85373 0.30458 0.0
H1037 H 0.01635 0.91763 0.30446 0.0
C1038 C 0.1217 0.9901 0.68132 0.0
C1039 C 0.14818 0.01198 0.68562 0.0
C1040 C 0.08654 0.00143 0.68096 0.0
C1041 C 0.02163 0.06064 0.69292 0.0
H1042 H 0.96947 0.03941 0.66748 0.0
C1043 C 0.8685 0.08286 0.68653 0.0
C1044 C 0.85164 0.05128 0.68332 0.0
C1045 C 0.9057 0.08503 0.68678 0.0
C1046 C 0.98379 0.0458 0.67459 0.0
H1047 H 0.15839 0.06265 0.69314 0.0
H1048 H 0.09629 0.08237 0.69261 0.0
H1049 H 0.03359 0.03046 0.66797 0.0
H1050 H 0.86071 -0.00326 0.67843 0.0
H1051 H 0.92498 0.00102 0.67855 0.0
H1052 H 0.97119 0.07491 0.69959 0.0
C1053 C 0.10307 0.05647 0.6895 0.0
C1054 C 0.02038 0.04055 0.6749 0.0
C1055 C 0.1385 0.04513 0.68983 0.0
C1056 C 0.87269 0.02184 0.6806 0.0
C1057 C 0.90954 0.02418 0.68072 0.0
C1058 C 0.98482 0.06606 0.69259 0.0
C1059 C 0.07691 0.03489 0.6849 0.0
C1060 C 0.03944 0.04654 0.68418 0.0
C1061 C 0.92638 0.05581 0.6837 0.0
C1062 C 0.96555 0.05735 0.68354 0.0
H1063 H 0.12816 0.96408 0.67824 0.0
H1064 H 0.06676 0.98382 0.67762 0.0
H1065 H 0.03575 0.06547 0.70017 0.0
H1066 H 0.85306 0.10602 0.68865 0.0
H1067 H 0.91827 0.10964 0.68915 0.0
C1068 C 0.991 0.63376 0.94384 0.0
C1069 C 0.99474 0.65486 0.93483 0.0
C1070 C 0.0027 0.59858 0.94386 0.0
C1071 C 0.01806 0.52445 0.92613 0.0
H1072 H 0.06837 0.48301 0.94964 0.0
C1073 C 0.06072 0.37785 0.92597 0.0
C1074 C 0.0552 0.359 0.9353 0.0
C1075 C 0.05775 0.4148 0.92581 0.0
C1076 C 0.05408 0.49414 0.94305 0.0
H1077 H 0.01516 0.65604 0.91894 0.0
H1078 H 0.03495 0.59438 0.91894 0.0
H1079 H 0.05492 0.54646 0.94965 0.0
H1080 H 0.0425 0.36377 0.95179 0.0
H1081 H 0.03656 0.42818 0.95149 0.0
H1082 H 0.01608 0.47219 0.91966 0.0
C1083 C 0.02263 0.60504 0.92593 0.0
C1084 C 0.04649 0.53043 0.94305 0.0
C1085 C 0.01116 0.64026 0.92593 0.0
C1086 C 0.04725 0.37774 0.94451 0.0
C1087 C 0.04399 0.41463 0.94433 0.0
C1088 C 0.02539 0.48816 0.92616 0.0
C1089 C 0.01819 0.58379 0.93486 0.0
C1090 C 0.02815 0.54583 0.93463 0.0
C1091 C 0.0489 0.43356 0.93496 0.0
C1092 C 0.0432 0.47252 0.93466 0.0
H1093 H 0.97811 0.64408 0.95078 0.0
H1094 H -0.00142 0.58262 0.95081 0.0
H1095 H 0.00344 0.53558 0.91961 0.0
H1096 H 0.06742 0.36403 0.9188 0.0
H1097 H 0.06231 0.42864 0.9185 0.0
C1098 C 0.61773 0.03083 0.06546 0.0
C1099 C 0.64361 0.00765 0.06146 0.0
C1100 C 0.58206 0.02086 0.06562 0.0
C1101 C 0.51732 0.95929 0.05392 0.0
H1102 H 0.4628 0.98216 0.0788 0.0
C1103 C 0.37095 0.91546 0.06005 0.0
C1104 C 0.34808 0.94232 0.06368 0.0
C1105 C 0.40771 0.92088 0.05989 0.0
C1106 C 0.47767 0.97575 0.07179 0.0
H1107 H 0.65252 0.95601 0.05441 0.0
H1108 H 0.58998 0.93851 0.0547 0.0
H1109 H 0.52583 -0.00321 0.07812 0.0
H1110 H 0.34579 0.99617 0.06972 0.0
H1111 H 0.4097 0.00537 0.06954 0.0
H1112 H 0.46887 0.93843 0.04759 0.0
C1113 C 0.5973 0.96454 0.05761 0.0
C1114 C 0.51369 0.9842 0.07139 0.0
C1115 C 0.63305 0.97456 0.05743 0.0
C1116 C 0.3627 0.97464 0.06711 0.0
C1117 C 0.39931 0.97996 0.06699 0.0
C1118 C 0.4812 0.95074 0.05434 0.0
C1119 C 0.57153 0.98745 0.06181 0.0
C1120 C 0.53376 0.97659 0.06239 0.0
C1121 C 0.42218 0.95316 0.0634 0.0
C1122 C 0.46096 0.95943 0.06322 0.0
H1123 H 0.62507 0.05673 0.06846 0.0
H1124 H 0.56269 0.03939 0.0687 0.0
H1125 H 0.53209 0.95333 0.04686 0.0
H1126 H 0.36049 0.89015 0.05745 0.0
H1127 H 0.42484 0.89971 0.05715 0.0
C1128 C 0.50608 0.3555 0.81495 0.0
C1129 C 0.47066 0.34377 0.81537 0.0
C1130 C 0.51377 0.39171 0.81471 0.0
C1131 C 0.47394 0.47779 0.8081 0.0
H1132 H 0.55039 0.51621 0.82505 0.0
C1133 C 0.49337 0.62746 0.81448 0.0
C1134 C 0.52828 0.64056 0.81398 0.0
C1135 C 0.48705 0.59102 0.8144 0.0
C1136 C 0.52925 0.50575 0.82018 0.0
H1137 H 0.41556 0.36055 0.81615 0.0
H1138 H 0.42901 0.42388 0.81575 0.0
H1139 H 0.53784 0.45264 0.82555 0.0
H1140 H 0.58398 0.62599 0.81307 0.0
H1141 H 0.57286 0.56209 0.81279 0.0
H1142 H 0.4652 0.53091 0.80278 0.0
C1143 C 0.45077 0.40507 0.81542 0.0
C1144 C 0.52207 0.46944 0.82047 0.0
C1145 C 0.44308 0.36888 0.81565 0.0
C1146 C 0.55679 0.61657 0.81336 0.0
C1147 C 0.55046 0.58007 0.81331 0.0
C1148 C 0.4811 0.51408 0.80782 0.0
C1149 C 0.48617 0.41681 0.81489 0.0
C1150 C 0.49422 0.45517 0.81447 0.0
C1151 C 0.51553 0.567 0.81383 0.0
C1152 C 0.50869 0.5284 0.8139 0.0
H1153 H 0.52781 0.33666 0.8146 0.0
H1154 H 0.54128 0.40004 0.81417 0.0
H1155 H 0.45271 0.46739 0.80325 0.0
H1156 H 0.47091 0.64542 0.81487 0.0
H1157 H 0.45988 0.58163 0.81492 0.0
C1158 C 0.62452 0.46328 0.18283 0.0
C1159 C 0.65114 0.48196 0.18825 0.0
C1160 C 0.58968 0.47579 0.18268 0.0
C1161 C 0.52537 0.52818 0.19701 0.0
H1162 H 0.47653 0.5324 0.17031 0.0
C1163 C 0.37798 0.57099 0.19337 0.0
C1164 C 0.35728 0.55034 0.18653 0.0
C1165 C 0.41497 0.5673 0.19351 0.0
C1166 C 0.48971 0.53115 0.17783 0.0
H1167 H 0.66177 0.52839 0.19786 0.0
H1168 H 0.60033 0.54958 0.19783 0.0
H1169 H 0.53931 0.51656 0.17086 0.0
H1170 H 0.35878 0.50906 0.1747 0.0
H1171 H 0.42293 0.50226 0.17504 0.0
H1172 H 0.47544 0.54133 0.20405 0.0
C1173 C 0.6068 0.52536 0.19367 0.0
C1174 C 0.52562 0.52221 0.17813 0.0
C1175 C 0.64187 0.51308 0.19372 0.0
C1176 C 0.37413 0.52589 0.17989 0.0
C1177 C 0.41093 0.52206 0.18007 0.0
C1178 C 0.48925 0.53679 0.19673 0.0
C1179 C 0.58056 0.50699 0.18804 0.0
C1180 C 0.54356 0.51995 0.18773 0.0
C1181 C 0.43181 0.54275 0.18686 0.0
C1182 C 0.47087 0.53759 0.18715 0.0
H1183 H 0.63051 0.43881 0.17874 0.0
H1184 H 0.56972 0.46081 0.17844 0.0
H1185 H 0.53869 0.52644 0.20451 0.0
H1186 H 0.36559 0.59016 0.19853 0.0
H1187 H 0.43036 0.5838 0.19877 0.0
C1188 C 0.54136 0.8708 0.42714 0.0
C1189 C 0.55537 0.85197 0.4357 0.0
C1190 C 0.5389 0.90772 0.42741 0.0
C1191 C 0.5273 0.98049 0.44554 0.0
H1192 H 0.55242 0.03933 0.42176 0.0
C1193 C 0.50364 0.13187 0.44552 0.0
C1194 C 0.49085 0.14664 0.43616 0.0
C1195 C 0.51574 0.09683 0.44577 0.0
C1196 C 0.54497 0.02323 0.42843 0.0
H1197 H 0.57881 0.85748 0.45115 0.0
H1198 H 0.57348 0.92217 0.4517 0.0
H1199 H 0.56697 0.97619 0.42158 0.0
H1200 H 0.48007 0.13639 0.41978 0.0
H1201 H 0.50031 0.07498 0.42024 0.0
H1202 H 0.50397 0.02697 0.45224 0.0
C1203 C 0.56452 0.90807 0.44479 0.0
C1204 C 0.5535 0.98717 0.42834 0.0
C1205 C 0.56742 0.87109 0.44448 0.0
C1206 C 0.49025 0.12576 0.42706 0.0
C1207 C 0.50202 0.09065 0.42733 0.0
C1208 C 0.51844 0.01648 0.4456 0.0
C1209 C 0.54997 0.92663 0.43629 0.0
C1210 C 0.54429 0.96541 0.43683 0.0
C1211 C 0.51497 0.07577 0.43668 0.0
C1212 C 0.52669 0.03815 0.43696 0.0
H1213 H 0.53103 0.85704 0.42035 0.0
H1214 H 0.52705 0.92139 0.42081 0.0
H1215 H 0.51954 0.96414 0.45214 0.0
H1216 H 0.50476 0.14761 0.45261 0.0
H1217 H 0.52599 0.08637 0.45306 0.0
C1218 C 0.11652 0.54772 0.5675 0.0
C1219 C 0.14253 0.52563 0.56309 0.0
C1220 C 0.08121 0.53667 0.56797 0.0
C1221 C 0.01739 0.47277 0.55668 0.0
H1222 H 0.9634 0.49613 0.58162 0.0
C1223 C 0.87289 0.42504 0.56409 0.0
C1224 C 0.84924 0.45217 0.56707 0.0
C1225 C 0.90948 0.43137 0.56381 0.0
C1226 C 0.97818 0.4895 0.57461 0.0
H1227 H 0.15224 0.47477 0.55567 0.0
H1228 H 0.09041 0.45514 0.5566 0.0
H1229 H 0.02605 0.51219 0.58062 0.0
H1230 H 0.84556 0.50738 0.57189 0.0
H1231 H 0.90928 0.51801 0.57163 0.0
H1232 H 0.96924 0.44995 0.55074 0.0
C1233 C 0.09721 0.48125 0.55954 0.0
C1234 C 0.01396 0.49883 0.574 0.0
C1235 C 0.13255 0.49246 0.55901 0.0
C1236 C 0.86301 0.48564 0.5698 0.0
C1237 C 0.8995 0.49181 0.56962 0.0
C1238 C 0.98159 0.46318 0.55734 0.0
C1239 C 0.07122 0.50314 0.56412 0.0
C1240 C 0.0338 0.49116 0.56496 0.0
C1241 C 0.92304 0.4648 0.5666 0.0
C1242 C 0.96158 0.47203 0.56624 0.0
H1243 H 0.12351 0.57363 0.57058 0.0
H1244 H 0.06169 0.55451 0.57132 0.0
H1245 H 0.03187 0.46676 0.54958 0.0
H1246 H 0.86321 0.39883 0.56208 0.0
H1247 H 0.92721 0.41007 0.56152 0.0
C1248 C 0.02273 0.61987 0.33759 0.0
C1249 C 0.99062 0.63817 0.33867 0.0
C1250 C 0.03162 0.5931 0.34463 0.0
C1251 C 0.04679 0.53662 0.36051 0.0
H1252 H 0.97154 0.46877 0.35506 0.0
C1253 C 0.02164 0.38093 0.34811 0.0
C1254 C 0.0461 0.38228 0.33982 0.0
C1255 C 0.01735 0.41036 0.35471 0.0
C1256 C 0.99259 0.4872 0.35708 0.0
H1257 H 0.94326 0.64489 0.34806 0.0
H1258 H 0.9582 0.59666 0.36029 0.0
H1259 H 0.95831 0.53174 0.35488 0.0
H1260 H 0.08758 0.41343 0.33248 0.0
H1261 H 0.08045 0.46431 0.34391 0.0
H1262 H 0.08175 0.49194 0.36161 0.0
C1263 C 0.97691 0.60364 0.35418 0.0
C1264 C 0.98497 0.52348 0.35697 0.0
C1265 C 0.96837 0.63107 0.34722 0.0
C1266 C 0.06823 0.41197 0.33875 0.0
C1267 C 0.06446 0.44094 0.34542 0.0
C1268 C 0.05439 0.50032 0.36064 0.0
C1269 C 0.00806 0.58356 0.35271 0.0
C1270 C 0.01264 0.54844 0.35775 0.0
C1271 C 0.03802 0.44109 0.3532 0.0
C1272 C 0.02794 0.47554 0.35797 0.0
H1273 H 0.04003 0.62499 0.33097 0.0
H1274 H 0.05547 0.57778 0.34314 0.0
H1275 H 0.06845 0.55537 0.36136 0.0
H1276 H 0.00436 0.35814 0.34908 0.0
H1277 H 0.99671 0.40982 0.36062 0.0
C1278 C 0.39854 0.92291 0.66452 0.0
C1279 C 0.37089 0.94719 0.66293 0.0
C1280 C 0.42704 0.92149 0.6576 0.0
C1281 C 0.48676 0.92122 0.64236 0.0
H1282 H 0.52466 0.01666 0.64442 0.0
C1283 C 0.62438 0.00095 0.65286 0.0
C1284 C 0.62729 0.98537 0.6628 0.0
C1285 C 0.59639 0.99128 0.64621 0.0
C1286 C 0.51453 0.98994 0.64335 0.0
H1287 H 0.34948 0.98701 0.65245 0.0
H1288 H 0.40035 0.9854 0.6404 0.0
H1289 H 0.46082 0.00775 0.64437 0.0
H1290 H 0.6059 0.94587 0.67335 0.0
H1291 H 0.55792 0.92809 0.66168 0.0
H1292 H 0.54078 0.90337 0.6428 0.0
C1293 C 0.39973 0.96722 0.64696 0.0
C1294 C 0.47777 0.98478 0.64332 0.0
C1295 C 0.37075 0.96822 0.65385 0.0
C1296 C 0.60393 0.9582 0.6657 0.0
C1297 C 0.5768 0.9478 0.65897 0.0
C1298 C 0.52351 0.92638 0.64251 0.0
C1299 C 0.42879 0.94472 0.64899 0.0
C1300 C 0.46372 0.95021 0.64384 0.0
C1301 C 0.57193 0.96512 0.64933 0.0
C1302 C 0.53747 0.96061 0.64395 0.0
H1303 H 0.39896 0.90605 0.67139 0.0
H1304 H 0.44907 0.90419 0.65954 0.0
H1305 H 0.47657 0.89429 0.64244 0.0
H1306 H 0.64219 0.02217 0.65055 0.0
H1307 H 0.59281 0.00531 0.63888 0.0
C1308 C 0.0577 0.08883 0.9185 0.0
C1309 C 0.04624 0.12345 0.91633 0.0
C1310 C 0.04773 0.06077 0.91204 0.0
C1311 C 0.97118 0.03553 0.89702 0.0
H1312 H 0.02402 0.94724 0.89672 0.0
C1313 C 0.95613 0.8748 0.90397 0.0
C1314 C 0.93512 0.87889 0.91298 0.0
C1315 C 0.96519 0.90443 0.89792 0.0
C1316 C 0.00874 0.97157 0.89636 0.0
H1317 H 0.01757 0.15651 0.9053 0.0
H1318 H -0.00057 0.10702 0.89403 0.0
H1319 H 0.05577 0.00321 0.8976 0.0
H1320 H 0.90345 0.91595 0.922 0.0
H1321 H 0.9194 0.96732 0.91166 0.0
H1322 H 0.92406 0.00377 0.89638 0.0
C1323 C 0.01624 0.10168 0.90073 0.0
C1324 C 0.02705 0.00374 0.89698 0.0
C1325 C 0.02661 0.12994 0.90717 0.0
C1326 C 0.92012 0.91214 0.91517 0.0
C1327 C 0.929 0.94161 0.90913 0.0
C1328 C 0.95285 0.00335 0.89629 0.0
C1329 C 0.02579 0.06664 0.90329 0.0
C1330 C 0.00832 0.03573 0.89824 0.0
C1331 C 0.95325 0.93849 0.90079 0.0
C1332 C 0.97138 0.97098 0.89689 0.0
H1333 H 0.07313 0.08312 0.92546 0.0
H1334 H 0.05515 0.03413 0.91437 0.0
H1335 H 0.9559 0.05975 0.89784 0.0
H1336 H 0.96779 0.84932 0.90205 0.0
H1337 H 0.9835 0.90106 0.89145 0.0
C1338 C 0.86405 0.01892 0.09442 0.0
C1339 C 0.87016 0.04061 0.08566 0.0
C1340 C 0.89217 0.01003 0.1011 0.0
C1341 C 0.96021 0.96813 0.10363 0.0
H1342 H 0.04661 0.02417 0.10407 0.0
C1343 C 0.07805 0.9317 0.08042 0.0
C1344 C 0.11243 0.94343 0.08284 0.0
C1345 C 0.05006 0.93811 0.08728 0.0
C1346 C 0.02288 0.0079 0.10439 0.0
H1347 H 0.90888 0.07351 0.0777 0.0
H1348 H 0.95764 0.05805 0.08915 0.0
H1349 H 0.98936 0.0536 0.10554 0.0
H1350 H 0.14524 0.9688 0.09462 0.0
H1351 H 0.09572 0.98101 0.10659 0.0
H1352 H 0.99368 0.92269 0.10175 0.0
C1353 C 0.93151 0.04772 0.09101 0.0
C1354 C 0.98997 0.02486 0.10514 0.0
C1355 C 0.90363 0.05626 0.08431 0.0
C1356 C 0.11882 0.95972 0.09256 0.0
C1357 C 0.09058 0.9666 0.09941 0.0
C1358 C 0.9931 0.95115 0.10301 0.0
C1359 C 0.92662 0.02302 0.09915 0.0
C1360 C 0.95842 0.00544 0.10368 0.0
C1361 C 0.05573 0.95674 0.09669 0.0
C1362 C 0.02448 0.97127 0.10232 0.0
H1363 H 0.83829 0.00678 0.09568 0.0
H1364 H 0.8875 0.99119 0.10736 0.0
H1365 H 0.93648 0.95218 0.10265 0.0
H1366 H 0.07247 0.9187 0.07304 0.0
H1367 H 0.02353 0.93066 0.08482 0.0
C1368 C 0.42983 0.07745 0.83269 0.0
C1369 C 0.44292 0.1115 0.83483 0.0
C1370 C 0.437 0.04945 0.83948 0.0
C1371 C 0.51095 0.02302 0.85518 0.0
H1372 H 0.45729 0.93533 0.85381 0.0
C1373 C 0.52531 0.86536 0.84436 0.0
C1374 C 0.5448 0.87229 0.8352 0.0
C1375 C 0.51659 0.89304 0.85119 0.0
C1376 C 0.47273 0.95944 0.85466 0.0
H1377 H 0.47079 0.14393 0.84624 0.0
H1378 H 0.48386 0.09466 0.85807 0.0
H1379 H 0.42605 0.99169 0.85383 0.0
H1380 H 0.5737 0.91245 0.82654 0.0
H1381 H 0.55833 0.96058 0.83826 0.0
H1382 H 0.55773 0.99077 0.85522 0.0
C1383 C 0.46816 0.08962 0.85112 0.0
C1384 C 0.45474 0.99182 0.85458 0.0
C1385 C 0.46078 0.11774 0.84433 0.0
C1386 C 0.5582 0.90649 0.83347 0.0
C1387 C 0.54979 0.934 0.84031 0.0
C1388 C 0.52893 0.99063 0.85537 0.0
C1389 C 0.45759 0.05491 0.84855 0.0
C1390 C 0.47389 0.02374 0.85375 0.0
C1391 C 0.52752 0.92793 0.84899 0.0
C1392 C 0.51005 0.95875 0.85403 0.0
H1393 H 0.4156 0.07198 0.82549 0.0
H1394 H 0.42883 0.02302 0.83715 0.0
H1395 H 0.52657 0.04714 0.85474 0.0
H1396 H 0.51497 0.83904 0.84593 0.0
H1397 H 0.49956 0.88755 0.85783 0.0
C1398 C 0.90694 0.40727 0.16703 0.0
C1399 C 0.87613 0.42755 0.16557 0.0
C1400 C 0.93629 0.41216 0.16057 0.0
C1401 C -0.00215 0.42622 0.14647 0.0
H1402 H 0.01779 0.52648 0.15004 0.0
C1403 C 0.1196 0.52914 0.15715 0.0
C1404 C 0.12944 0.51109 0.1663 0.0
C1405 C 0.09209 0.51588 0.15089 0.0
C1406 C 0.01273 0.49857 0.1486 0.0
H1407 H 0.85027 0.46632 0.15562 0.0
H1408 H 0.90218 0.47549 0.14434 0.0
H1409 H 0.95668 0.50627 0.14956 0.0
H1410 H 0.12074 0.46462 0.17588 0.0
H1411 H 0.07316 0.44102 0.16493 0.0
H1412 H 0.05423 0.41838 0.14677 0.0
C1413 C 0.90359 0.45579 0.1505 0.0
C1414 C 0.97753 0.48689 0.14831 0.0
C1415 C 0.87394 0.45057 0.15695 0.0
C1416 C 0.11335 0.47875 0.16882 0.0
C1417 C 0.08648 0.46515 0.16248 0.0
C1418 C 0.03306 0.43788 0.14686 0.0
C1419 C 0.9356 0.43774 0.15255 0.0
C1420 C 0.96987 0.45033 0.14815 0.0
C1421 C 0.07478 0.48411 0.15364 0.0
C1422 C 0.04064 0.47384 0.14877 0.0
H1423 H 0.90911 0.38895 0.17354 0.0
H1424 H 0.96051 0.39803 0.16248 0.0
H1425 H 0.99269 0.39795 0.14604 0.0
H1426 H 0.13188 0.5543 0.15517 0.0
H1427 H 0.08331 0.53111 0.14418 0.0
C1428 C 0.51931 0.62111 0.40455 0.0
C1429 C 0.5023 0.62837 0.41408 0.0
C1430 C 0.50675 0.59363 0.39814 0.0
C1431 C 0.49472 0.51322 0.39585 0.0
H1432 H 0.39532 0.48613 0.39512 0.0
C1433 C 0.41471 0.40401 0.41683 0.0
C1434 C 0.43555 0.37383 0.41497 0.0
C1435 C 0.41678 0.43315 0.41015 0.0
C1436 C 0.42323 0.49325 0.39501 0.0
H1437 H 0.45781 0.61554 0.4241 0.0
H1438 H 0.43531 0.56844 0.41288 0.0
H1439 H 0.41154 0.54889 0.39494 0.0
H1440 H 0.47277 0.34905 0.40428 0.0
H1441 H 0.47718 0.40074 0.39268 0.0
H1442 H 0.5064 0.45795 0.39717 0.0
C1443 C 0.45819 0.5835 0.41026 0.0
C1444 C 0.4325 0.52916 0.39486 0.0
C1445 C 0.47122 0.61014 0.41676 0.0
C1446 C 0.45656 0.37219 0.40589 0.0
C1447 C 0.45904 0.40167 0.39926 0.0
C1448 C 0.48546 0.47731 0.39604 0.0
C1449 C 0.47656 0.57397 0.4011 0.0
C1450 C 0.46813 0.53936 0.39621 0.0
C1451 C 0.4401 0.43292 0.40154 0.0
C1452 C 0.44951 0.46724 0.39657 0.0
H1453 H 0.54352 0.63496 0.40243 0.0
H1454 H 0.52155 0.58653 0.39117 0.0
H1455 H 0.52244 0.5203 0.39685 0.0
H1456 H 0.39799 0.40578 0.42371 0.0
H1457 H 0.40219 0.4569 0.41226 0.0
C1458 C 0.365 0.53897 0.59384 0.0
C1459 C 0.37147 0.55882 0.58472 0.0
C1460 C 0.39309 0.52984 0.60049 0.0
C1461 C 0.45945 0.48599 0.60405 0.0
H1462 H 0.54787 0.53876 0.60368 0.0
C1463 C 0.57854 0.43765 0.5833 0.0
C1464 C 0.61285 0.4499 0.58558 0.0
C1465 C 0.55009 0.44686 0.58971 0.0
C1466 C 0.52352 0.52352 0.60423 0.0
H1467 H 0.41137 0.58782 0.57596 0.0
H1468 H 0.46014 0.57166 0.58734 0.0
H1469 H 0.49174 0.57058 0.6038 0.0
H1470 H 0.64507 0.47885 0.59677 0.0
H1471 H 0.59486 0.49574 0.60793 0.0
H1472 H 0.49126 0.43894 0.6038 0.0
C1473 C 0.43363 0.56317 0.58951 0.0
C1474 C 0.49127 0.54183 0.6042 0.0
C1475 C 0.40571 0.57206 0.58286 0.0
C1476 C 0.61872 0.46932 0.59481 0.0
C1477 C 0.59006 0.47892 0.6012 0.0
C1478 C 0.49169 0.46768 0.60421 0.0
C1479 C 0.42798 0.54066 0.59814 0.0
C1480 C 0.45911 0.52319 0.60308 0.0
C1481 C 0.55526 0.46882 0.5985 0.0
C1482 C 0.5239 0.48633 0.60327 0.0
H1483 H 0.33868 0.52875 0.59551 0.0
H1484 H 0.38786 0.51271 0.60712 0.0
H1485 H 0.43517 0.47069 0.60335 0.0
H1486 H 0.57336 0.42226 0.5763 0.0
H1487 H 0.52366 0.439 0.58727 0.0
C1488 C 0.33699 0.23872 0.40781 0.0
C1489 C 0.32442 0.26153 0.4157 0.0
C1490 C 0.31695 0.23281 0.39876 0.0
C1491 C 0.28302 0.24944 0.37778 0.0
H1492 H 0.17995 0.24768 0.3778 0.0
C1493 C 0.19994 0.29403 0.3425 0.0
C1494 C 0.16751 0.27693 0.34037 0.0
C1495 C 0.21974 0.28503 0.35135 0.0
C1496 C 0.20873 0.24755 0.37763 0.0
H1497 H 0.28031 0.29509 0.42038 0.0
H1498 H 0.24558 0.28498 0.40466 0.0
H1499 H 0.21207 0.24301 0.3943 0.0
H1500 H 0.13139 0.23571 0.3456 0.0
H1501 H 0.16603 0.21996 0.36108 0.0
H1502 H 0.27968 0.25425 0.36113 0.0
C1503 C 0.27067 0.27118 0.4055 0.0
C1504 C 0.22714 0.24529 0.38711 0.0
C1505 C 0.29066 0.27702 0.41454 0.0
C1506 C 0.15594 0.2498 0.34712 0.0
C1507 C 0.17579 0.24075 0.35598 0.0
C1508 C 0.26462 0.25165 0.36831 0.0
C1509 C 0.28389 0.2496 0.39741 0.0
C1510 C 0.26446 0.24709 0.38731 0.0
C1511 C 0.20767 0.25864 0.35827 0.0
C1512 C 0.22726 0.25163 0.36815 0.0
H1513 H 0.36262 0.2259 0.40856 0.0
H1514 H 0.32762 0.21557 0.39275 0.0
H1515 H 0.31175 0.25119 0.37765 0.0
H1516 H 0.20943 0.31538 0.33758 0.0
H1517 H 0.24384 0.29979 0.35296 0.0
C1518 C 0.24602 0.84598 0.65738 0.0
C1519 C 0.27093 0.83604 0.66504 0.0
C1520 C 0.24214 0.82604 0.64823 0.0
C1521 C 0.2623 0.73935 0.63601 0.0
H1522 H 0.26407 0.79384 0.61025 0.0
C1523 C 0.29842 0.71601 0.59001 0.0
C1524 C 0.27928 0.6847 0.58796 0.0
C1525 C 0.29319 0.73465 0.59934 0.0
C1526 C 0.26356 0.77829 0.61738 0.0
H1527 H 0.31024 0.79638 0.66925 0.0
H1528 H 0.30326 0.76147 0.65335 0.0
H1529 H 0.26195 0.82467 0.62703 0.0
H1530 H 0.23843 0.6494 0.59393 0.0
H1531 H 0.22961 0.68176 0.61026 0.0
H1532 H 0.26494 0.69297 0.62635 0.0
C1533 C 0.2866 0.78464 0.65445 0.0
C1534 C 0.26195 0.7959 0.62698 0.0
C1535 C 0.29057 0.80466 0.66358 0.0
C1536 C 0.25414 0.673 0.59535 0.0
C1537 C 0.24902 0.69155 0.6047 0.0
C1538 C 0.2637 0.72172 0.6264 0.0
C1539 C 0.26295 0.79559 0.64657 0.0
C1540 C 0.26176 0.77664 0.6364 0.0
C1541 C 0.26875 0.72237 0.60683 0.0
C1542 C 0.26483 0.74103 0.61699 0.0
H1543 H 0.23 0.86962 0.65836 0.0
H1544 H 0.22323 0.83477 0.64238 0.0
H1545 H 0.26193 0.72382 0.64315 0.0
H1546 H 0.31828 0.72561 0.58458 0.0
H1547 H 0.3091 0.75811 0.60083 0.0
C1548 C 0.8271 0.64445 0.34424 0.0
C1549 C 0.84189 0.67605 0.34034 0.0
C1550 C 0.80647 0.64483 0.35332 0.0
C1551 C 0.74901 0.70085 0.36906 0.0
H1552 H 0.76892 0.63369 0.3913 0.0
C1553 C 0.66988 0.70224 0.40775 0.0
C1554 C 0.66182 0.6693 0.41231 0.0
C1555 C 0.69351 0.70437 0.39934 0.0
C1556 C 0.76264 0.65231 0.38512 0.0
H1557 H 0.84655 0.73275 0.34276 0.0
H1558 H 0.80966 0.73358 0.3586 0.0
H1559 H 0.80651 0.6347 0.37576 0.0
H1560 H 0.67165 0.6127 0.41158 0.0
H1561 H 0.71198 0.61606 0.39671 0.0
H1562 H 0.70441 0.71767 0.37815 0.0
C1563 C 0.81432 0.70856 0.35464 0.0
C1564 C 0.78432 0.65297 0.37625 0.0
C1565 C 0.83548 0.70808 0.34565 0.0
C1566 C 0.67784 0.63849 0.40831 0.0
C1567 C 0.70106 0.64051 0.39981 0.0
C1568 C 0.72698 0.69986 0.37786 0.0
C1569 C 0.79981 0.67688 0.35858 0.0
C1570 C 0.77759 0.67712 0.36813 0.0
C1571 C 0.70921 0.67347 0.39519 0.0
C1572 C 0.73339 0.67543 0.38599 0.0
H1573 H 0.83201 0.61935 0.34037 0.0
H1574 H 0.79539 0.62009 0.35617 0.0
H1575 H 0.74311 0.7195 0.36284 0.0
H1576 H 0.65814 0.7264 0.41078 0.0
H1577 H 0.69962 0.73028 0.39613 0.0
C1578 C 0.7154 0.14369 0.65545 0.0
C1579 C 0.68232 0.14232 0.66055 0.0
C1580 C 0.72063 0.16638 0.64694 0.0
C1581 C 0.68272 0.24541 0.63379 0.0
H1582 H 0.73433 0.21013 0.60965 0.0
C1583 C 0.70692 0.33407 0.59801 0.0
C1584 C 0.70104 0.31858 0.58813 0.0
C1585 C 0.70914 0.31306 0.60697 0.0
C1586 C 0.71973 0.22031 0.61631 0.0
H1587 H 0.6288 0.16361 0.66071 0.0
H1588 H 0.63773 0.20293 0.64584 0.0
H1589 H 0.72833 0.17282 0.62515 0.0
H1590 H 0.69487 0.26839 0.57997 0.0
H1591 H 0.6975 0.23188 0.59564 0.0
H1592 H 0.67277 0.29224 0.62484 0.0
C1593 C 0.6599 0.18701 0.64852 0.0
C1594 C 0.71666 0.19911 0.62524 0.0
C1595 C 0.65474 0.16445 0.65705 0.0
C1596 C 0.6988 0.28136 0.58743 0.0
C1597 C 0.70077 0.26033 0.59643 0.0
C1598 C 0.68565 0.26652 0.62486 0.0
C1599 C 0.69285 0.18811 0.64333 0.0
C1600 C 0.6978 0.2113 0.63405 0.0
C1601 C 0.70527 0.27602 0.60632 0.0
C1602 C 0.70396 0.25413 0.61599 0.0
H1603 H 0.73731 0.12732 0.65807 0.0
H1604 H 0.7465 0.16702 0.64322 0.0
H1605 H 0.66842 0.2558 0.64048 0.0
H1606 H 0.70863 0.36254 0.59896 0.0
H1607 H 0.7133 0.32596 0.61445 0.0
C1608 C 0.21124 0.19726 0.91363 0.0
C1609 C 0.18115 0.21788 0.91599 0.0
C1610 C 0.23108 0.20398 0.9046 0.0
C1611 C 0.27663 0.23208 0.88676 0.0
H1612 H 0.22002 0.24415 0.86163 0.0
C1613 C 0.34068 0.24169 0.84583 0.0
C1614 C 0.32554 0.21914 0.83826 0.0
C1615 C 0.32326 0.24804 0.85531 0.0
C1616 C 0.23618 0.24091 0.86858 0.0
H1617 H 0.14988 0.26335 0.91112 0.0
H1618 H 0.18444 0.27499 0.89534 0.0
H1619 H 0.19092 0.24325 0.87867 0.0
H1620 H 0.27955 0.18651 0.83465 0.0
H1621 H 0.24917 0.19782 0.85109 0.0
H1622 H 0.32173 0.22826 0.87661 0.0
C1623 C 0.19225 0.2532 0.90037 0.0
C1624 C 0.21958 0.24077 0.87835 0.0
C1625 C 0.17244 0.2465 0.9094 0.0
C1626 C 0.29187 0.20433 0.84021 0.0
C1627 C 0.27441 0.2108 0.84966 0.0
C1628 C 0.29326 0.23235 0.87698 0.0
C1629 C 0.22127 0.23149 0.89775 0.0
C1630 C 0.23954 0.23565 0.88753 0.0
C1631 C 0.29021 0.23219 0.85738 0.0
C1632 C 0.2731 0.23603 0.86778 0.0
H1633 H 0.2185 0.17484 0.91847 0.0
H1634 H 0.25307 0.18653 0.90274 0.0
H1635 H 0.29273 0.22841 0.8937 0.0
H1636 H 0.36622 0.25412 0.8445 0.0
H1637 H 0.33582 0.26507 0.86105 0.0
C1638 C 0.15699 0.66799 0.15186 0.0
C1639 C 0.18688 0.65742 0.15763 0.0
C1640 C 0.16114 0.68389 0.14207 0.0
C1641 C 0.21847 0.73898 0.12677 0.0
H1642 H 0.17128 0.69817 0.10261 0.0
C1643 C 0.22535 0.80766 0.08659 0.0
C1644 C 0.19379 0.80792 0.08075 0.0
C1645 C 0.22871 0.78552 0.09531 0.0
C1646 C 0.18434 0.71017 0.10928 0.0
H1647 H 0.24436 0.65549 0.15793 0.0
H1648 H 0.25174 0.68471 0.14086 0.0
H1649 H 0.16808 0.66793 0.11946 0.0
H1650 H 0.14113 0.78525 0.07931 0.0
H1651 H 0.14622 0.74767 0.09467 0.0
H1652 H 0.23301 0.78229 0.11689 0.0
C1653 C 0.2252 0.68013 0.14387 0.0
C1654 C 0.18265 0.69269 0.11889 0.0
C1655 C 0.22102 0.66348 0.15356 0.0
C1656 C 0.16596 0.7851 0.0836 0.0
C1657 C 0.16902 0.76346 0.0924 0.0
C1658 C 0.21958 0.75688 0.11721 0.0
C1659 C 0.19526 0.69009 0.13802 0.0
C1660 C 0.19933 0.7072 0.12772 0.0
C1661 C 0.20026 0.7637 0.09847 0.0
C1662 C 0.20207 0.74296 0.10836 0.0
H1663 H 0.13044 0.66314 0.1548 0.0
H1664 H 0.13771 0.69159 0.13769 0.0
H1665 H 0.23135 0.75068 0.13353 0.0
H1666 H 0.24724 0.82488 0.08446 0.0
H1667 H 0.25344 0.78591 0.09964 0.0
C1668 C 0.82719 0.74336 0.90693 0.0
C1669 C 0.81613 0.7701 0.91388 0.0
C1670 C 0.80761 0.73593 0.89791 0.0
C1671 C 0.77802 0.74835 0.87617 0.0
H1672 H 0.67512 0.75275 0.87493 0.0
C1673 C 0.70142 0.7858 0.83896 0.0
C1674 C 0.66868 0.7692 0.83689 0.0
C1675 C 0.71984 0.77866 0.84819 0.0
C1676 C 0.70384 0.75088 0.87515 0.0
H1677 H 0.77502 0.80903 0.91702 0.0
H1678 H 0.74088 0.79619 0.90129 0.0
H1679 H 0.70485 0.75239 0.8919 0.0
H1680 H 0.63079 0.73039 0.84266 0.0
H1681 H 0.6629 0.71818 0.85886 0.0
H1682 H 0.77707 0.7474 0.85943 0.0
C1683 C 0.76452 0.78066 0.90286 0.0
C1684 C 0.72086 0.75106 0.88487 0.0
C1685 C 0.78411 0.78806 0.91189 0.0
C1686 C 0.65555 0.74418 0.8441 0.0
C1687 C 0.67395 0.73712 0.85337 0.0
C1688 C 0.76102 0.74825 0.86647 0.0
C1689 C 0.7765 0.75508 0.89566 0.0
C1690 C 0.75816 0.75055 0.88547 0.0
C1691 C 0.70598 0.75476 0.85559 0.0
C1692 C 0.7238 0.7503 0.86585 0.0
H1693 H 0.8514 0.72861 0.90837 0.0
H1694 H 0.81718 0.71564 0.8926 0.0
H1695 H 0.80681 0.74825 0.87636 0.0
H1696 H 0.71217 0.80551 0.83368 0.0
H1697 H 0.74422 0.79306 0.84974 0.0
C1698 C 0.80646 0.19712 0.08723 0.0
C1699 C 0.78363 0.16835 0.08522 0.0
C1700 C 0.80336 0.21652 0.0965 0.0
C1701 C 0.74385 0.23558 0.11886 0.0
H1702 H 0.83245 0.25361 0.13345 0.0
C1703 C 0.75516 0.32282 0.15613 0.0
C1704 C 0.77883 0.3114 0.16395 0.0
C1705 C 0.75308 0.30491 0.14657 0.0
C1706 C 0.80746 0.24853 0.12951 0.0
H1707 H 0.73838 0.13874 0.09106 0.0
H1708 H 0.73325 0.17231 0.10733 0.0
H1709 H 0.83354 0.22503 0.11637 0.0
H1710 H 0.81804 0.27139 0.16796 0.0
H1711 H 0.81394 0.23981 0.15139 0.0
H1712 H 0.71779 0.25863 0.13215 0.0
C1713 C 0.7535 0.17989 0.10173 0.0
C1714 C 0.80811 0.23262 0.11966 0.0
C1715 C 0.75666 0.16045 0.09247 0.0
C1716 C 0.79935 0.2808 0.16216 0.0
C1717 C 0.79733 0.26295 0.1526 0.0
C1718 C 0.7432 0.25166 0.12873 0.0
C1719 C 0.77731 0.20765 0.10394 0.0
C1720 C 0.77634 0.22588 0.11423 0.0
C1721 C 0.77471 0.27522 0.14463 0.0
C1722 C 0.77502 0.2581 0.13418 0.0
H1723 H 0.82764 0.20381 0.08185 0.0
H1724 H 0.82178 0.23811 0.09792 0.0
H1725 H 0.71894 0.23089 0.11483 0.0
H1726 H 0.73871 0.34606 0.15734 0.0
H1727 H 0.73547 0.31507 0.14057 0.0
loop_
_geom_bond_atom_site_label_1
_geom_bond_atom_site_label_2
_geom_bond_distance
_geom_bond_site_symmetry_2
_ccdc_geom_bond_type
Co0 N4 2.148 . S
Co0 N10 2.128 1_455 S
Co0 N20 2.194 . S
Co0 O25 2.351 1_455 S
Co0 O26 2.155 . S
Co0 O27 2.096 . S
C1 N4 1.301 . S
C1 N5 1.328 . S
C1 H6 0.930 . S
C2 C3 1.333 . S
C2 N4 1.317 . S
C2 H7 0.930 . S
C3 C2 1.333 . S
C3 N5 1.350 . S
C3 H29 0.931 . S
N4 Co0 2.148 . S
N4 C1 1.301 . S
N4 C2 1.317 . S
N5 C1 1.328 . S
N5 C3 1.350 . S
H6 C1 0.930 . S
H7 C2 0.930 . S
C8 O9 1.224 . S
C8 O27 1.247 . S
O9 C8 1.224 . S
N10 Co0 2.128 1_655 S
N10 C11 1.355 . S
N10 C13 1.311 . S
C11 N10 1.355 . S
C11 C12 1.363 . S
C11 H23 0.929 . S
C12 C11 1.363 . S
C12 N14 1.375 . S
C12 H30 0.931 . S
C13 N10 1.311 . S
C13 N14 1.347 . S
C13 H24 0.929 . S
N14 C12 1.375 . S
N14 C13 1.347 . S
C15 C18 1.364 1_455 S
C15 N20 1.332 . S
C15 H21 0.928 1_455 S
C16 C17 1.362 1_455 S
C16 C19 1.378 . S
C16 H31 0.929 . S
C17 C16 1.362 1_655 S
C17 C18 1.366 . S
C18 C15 1.364 1_655 S
C18 C17 1.366 . S
C18 H32 0.930 . S
C19 C16 1.378 . S
C19 N20 1.315 . S
C19 H22 0.930 . S
N20 Co0 2.194 . S
N20 C15 1.332 . S
N20 C19 1.315 . S
H21 C15 0.928 1_655 S
H22 C19 0.930 . S
H23 C11 0.929 . S
H24 C13 0.929 . S
O25 Co0 2.351 1_655 S
O25 C28 1.249 . S
O26 Co0 2.155 . S
O26 C28 1.226 1_455 S
O27 Co0 2.096 . S
O27 C8 1.247 . S
C28 O25 1.249 . S
C28 O26 1.226 1_655 S
H29 C3 0.931 . S
H30 C12 0.931 . S
H31 C16 0.929 . S
H32 C18 0.930 . S
Co33 N37 2.148 . S
Co33 N43 2.128 1_565 S
Co33 N53 2.194 . S
Co33 O58 2.351 1_565 S
Co33 O59 2.155 . S
Co33 O60 2.096 . S
C34 N37 1.301 . S
C34 N38 1.328 . S
C34 H39 0.930 . S
C35 C36 1.333 . S
C35 N37 1.317 . S
C35 H40 0.930 . S
C36 C35 1.333 . S
C36 N38 1.350 . S
C36 H62 0.931 . S
N37 Co33 2.148 . S
N37 C34 1.301 . S
N37 C35 1.317 . S
N38 C34 1.328 . S
N38 C36 1.350 . S
H39 C34 0.930 . S
H40 C35 0.930 . S
C41 O42 1.224 . S
C41 O60 1.247 . S
O42 C41 1.224 . S
N43 Co33 2.128 1_545 S
N43 C44 1.355 . S
N43 C46 1.311 . S
C44 N43 1.355 . S
C44 C45 1.363 . S
C44 H56 0.929 . S
C45 C44 1.363 . S
C45 N47 1.375 . S
C45 H63 0.931 . S
C46 N43 1.311 . S
C46 N47 1.347 . S
C46 H57 0.929 . S
N47 C45 1.375 . S
N47 C46 1.347 . S
C48 C51 1.364 1_565 S
C48 N53 1.332 . S
C48 H54 0.928 1_565 S
C49 C50 1.362 1_565 S
C49 C52 1.378 . S
C49 H64 0.929 . S
C50 C49 1.362 1_545 S
C50 C51 1.366 . S
C51 C48 1.364 1_545 S
C51 C50 1.366 . S
C51 H65 0.930 . S
C52 C49 1.378 . S
C52 N53 1.315 . S
C52 H55 0.930 . S
N53 Co33 2.194 . S
N53 C48 1.332 . S
N53 C52 1.315 . S
H54 C48 0.928 1_545 S
H55 C52 0.930 . S
H56 C44 0.929 . S
H57 C46 0.929 . S
O58 Co33 2.351 1_545 S
O58 C61 1.249 . S
O59 Co33 2.155 . S
O59 C61 1.226 1_565 S
O60 Co33 2.096 . S
O60 C41 1.247 . S
C61 O58 1.249 . S
C61 O59 1.226 1_545 S
H62 C36 0.931 . S
H63 C45 0.931 . S
H64 C49 0.929 . S
H65 C51 0.930 . S
Co66 N70 2.148 . S
Co66 N76 2.128 1_655 S
Co66 N86 2.194 . S
Co66 O91 2.351 1_655 S
Co66 O92 2.155 . S
Co66 O93 2.096 . S
C67 N70 1.301 . S
C67 N71 1.328 . S
C67 H72 0.930 . S
C68 C69 1.333 . S
C68 N70 1.317 . S
C68 H73 0.930 . S
C69 C68 1.333 . S
C69 N71 1.350 . S
C69 H95 0.931 . S
N70 Co66 2.148 . S
N70 C67 1.301 . S
N70 C68 1.317 . S
N71 C67 1.328 . S
N71 C69 1.350 . S
H72 C67 0.930 . S
H73 C68 0.930 . S
C74 O75 1.224 . S
C74 O93 1.247 . S
O75 C74 1.224 . S
N76 Co66 2.128 1_455 S
N76 C77 1.355 . S
N76 C79 1.311 . S
C77 N76 1.355 . S
C77 C78 1.363 . S
C77 H89 0.929 . S
C78 C77 1.363 . S
C78 N80 1.375 . S
C78 H96 0.931 . S
C79 N76 1.311 . S
C79 N80 1.347 . S
C79 H90 0.929 . S
N80 C78 1.375 . S
N80 C79 1.347 . S
C81 C84 1.364 1_655 S
C81 N86 1.332 . S
C81 H87 0.928 1_655 S
C82 C83 1.362 1_655 S
C82 C85 1.378 . S
C82 H97 0.929 . S
C83 C82 1.362 1_455 S
C83 C84 1.366 . S
C84 C81 1.364 1_455 S
C84 C83 1.366 . S
C84 H98 0.930 . S
C85 C82 1.378 . S
C85 N86 1.315 . S
C85 H88 0.930 . S
N86 Co66 2.194 . S
N86 C81 1.332 . S
N86 C85 1.315 . S
H87 C81 0.928 1_455 S
H88 C85 0.930 . S
H89 C77 0.929 . S
H90 C79 0.929 . S
O91 Co66 2.351 1_455 S
O91 C94 1.249 . S
O92 Co66 2.155 . S
O92 C94 1.226 1_655 S
O93 Co66 2.096 . S
O93 C74 1.247 . S
C94 O91 1.249 . S
C94 O92 1.226 1_455 S
H95 C69 0.931 . S
H96 C78 0.931 . S
H97 C82 0.929 . S
H98 C84 0.930 . S
Co99 N103 2.148 . S
Co99 N109 2.128 1_545 S
Co99 N119 2.194 . S
Co99 O124 2.351 1_545 S
Co99 O125 2.155 . S
Co99 O126 2.096 . S
C100 N103 1.301 . S
C100 N104 1.328 . S
C100 H105 0.930 . S
C101 C102 1.333 . S
C101 N103 1.317 . S
C101 H106 0.930 . S
C102 C101 1.333 . S
C102 N104 1.350 . S
C102 H128 0.931 . S
N103 Co99 2.148 . S
N103 C100 1.301 . S
N103 C101 1.317 . S
N104 C100 1.328 . S
N104 C102 1.350 . S
H105 C100 0.930 . S
H106 C101 0.930 . S
C107 O108 1.224 . S
C107 O126 1.247 . S
O108 C107 1.224 . S
N109 Co99 2.128 1_565 S
N109 C110 1.355 . S
N109 C112 1.311 . S
C110 N109 1.355 . S
C110 C111 1.363 . S
C110 H122 0.929 . S
C111 C110 1.363 . S
C111 N113 1.375 . S
C111 H129 0.931 . S
C112 N109 1.311 . S
C112 N113 1.347 . S
C112 H123 0.929 . S
N113 C111 1.375 . S
N113 C112 1.347 . S
C114 C117 1.364 1_545 S
C114 N119 1.332 . S
C114 H120 0.928 1_545 S
C115 C116 1.362 1_545 S
C115 C118 1.378 . S
C115 H130 0.929 . S
C116 C115 1.362 1_565 S
C116 C117 1.366 . S
C117 C114 1.364 1_565 S
C117 C116 1.366 . S
C117 H131 0.930 . S
C118 C115 1.378 . S
C118 N119 1.315 . S
C118 H121 0.930 . S
N119 Co99 2.194 . S
N119 C114 1.332 . S
N119 C118 1.315 . S
H120 C114 0.928 1_565 S
H121 C118 0.930 . S
H122 C110 0.929 . S
H123 C112 0.929 . S
O124 Co99 2.351 1_565 S
O124 C127 1.249 . S
O125 Co99 2.155 . S
O125 C127 1.226 1_545 S
O126 Co99 2.096 . S
O126 C107 1.247 . S
C127 O124 1.249 . S
C127 O125 1.226 1_565 S
H128 C102 0.931 . S
H129 C111 0.931 . S
H130 C115 0.929 . S
H131 C117 0.930 . S
Co132 N136 2.148 . S
Co132 N142 2.128 1_455 S
Co132 N152 2.194 . S
Co132 O157 2.351 1_455 S
Co132 O158 2.155 . S
Co132 O159 2.096 . S
C133 N136 1.301 . S
C133 N137 1.328 . S
C133 H138 0.930 . S
C134 C135 1.333 . S
C134 N136 1.317 . S
C134 H139 0.930 . S
C135 C134 1.333 . S
C135 N137 1.350 . S
C135 H161 0.931 . S
N136 Co132 2.148 . S
N136 C133 1.301 . S
N136 C134 1.317 . S
N137 C133 1.328 . S
N137 C135 1.350 . S
H138 C133 0.930 . S
H139 C134 0.930 . S
C140 O141 1.224 . S
C140 O159 1.247 . S
O141 C140 1.224 . S
N142 Co132 2.128 1_655 S
N142 C143 1.355 . S
N142 C145 1.311 . S
C143 N142 1.355 . S
C143 C144 1.363 . S
C143 H155 0.929 . S
C144 C143 1.363 . S
C144 N146 1.375 . S
C144 H162 0.931 . S
C145 N142 1.311 . S
C145 N146 1.347 . S
C145 H156 0.929 . S
N146 C144 1.375 . S
N146 C145 1.347 . S
C147 C150 1.364 1_455 S
C147 N152 1.332 . S
C147 H153 0.928 1_455 S
C148 C149 1.362 1_455 S
C148 C151 1.378 . S
C148 H163 0.929 . S
C149 C148 1.362 1_655 S
C149 C150 1.366 . S
C150 C147 1.364 1_655 S
C150 C149 1.366 . S
C150 H164 0.930 . S
C151 C148 1.378 . S
C151 N152 1.315 . S
C151 H154 0.930 . S
N152 Co132 2.194 . S
N152 C147 1.332 . S
N152 C151 1.315 . S
H153 C147 0.928 1_655 S
H154 C151 0.930 . S
H155 C143 0.929 . S
H156 C145 0.929 . S
O157 Co132 2.351 1_655 S
O157 C160 1.249 . S
O158 Co132 2.155 . S
O158 C160 1.226 1_455 S
O159 Co132 2.096 . S
O159 C140 1.247 . S
C160 O157 1.249 . S
C160 O158 1.226 1_655 S
H161 C135 0.931 . S
H162 C144 0.931 . S
H163 C148 0.929 . S
H164 C150 0.930 . S
Co165 N169 2.148 . S
Co165 N175 2.128 1_565 S
Co165 N185 2.194 . S
Co165 O190 2.351 1_565 S
Co165 O191 2.155 . S
Co165 O192 2.096 . S
C166 N169 1.301 . S
C166 N170 1.328 . S
C166 H171 0.930 . S
C167 C168 1.333 . S
C167 N169 1.317 . S
C167 H172 0.930 . S
C168 C167 1.333 . S
C168 N170 1.350 . S
C168 H194 0.931 . S
N169 Co165 2.148 . S
N169 C166 1.301 . S
N169 C167 1.317 . S
N170 C166 1.328 . S
N170 C168 1.350 . S
H171 C166 0.930 . S
H172 C167 0.930 . S
C173 O174 1.224 . S
C173 O192 1.247 . S
O174 C173 1.224 . S
N175 Co165 2.128 1_545 S
N175 C176 1.355 . S
N175 C178 1.311 . S
C176 N175 1.355 . S
C176 C177 1.363 . S
C176 H188 0.929 . S
C177 C176 1.363 . S
C177 N179 1.375 . S
C177 H195 0.931 . S
C178 N175 1.311 . S
C178 N179 1.347 . S
C178 H189 0.929 . S
N179 C177 1.375 . S
N179 C178 1.347 . S
C180 C183 1.364 1_565 S
C180 N185 1.332 . S
C180 H186 0.928 1_565 S
C181 C182 1.362 1_565 S
C181 C184 1.378 . S
C181 H196 0.929 . S
C182 C181 1.362 1_545 S
C182 C183 1.366 . S
C183 C180 1.364 1_545 S
C183 C182 1.366 . S
C183 H197 0.930 . S
C184 C181 1.378 . S
C184 N185 1.315 . S
C184 H187 0.930 . S
N185 Co165 2.194 . S
N185 C180 1.332 . S
N185 C184 1.315 . S
H186 C180 0.928 1_545 S
H187 C184 0.930 . S
H188 C176 0.929 . S
H189 C178 0.929 . S
O190 Co165 2.351 1_545 S
O190 C193 1.249 . S
O191 Co165 2.155 . S
O191 C193 1.226 1_565 S
O192 Co165 2.096 . S
O192 C173 1.247 . S
C193 O190 1.249 . S
C193 O191 1.226 1_545 S
H194 C168 0.931 . S
H195 C177 0.931 . S
H196 C181 0.929 . S
H197 C183 0.930 . S
Co198 N202 2.148 . S
Co198 N208 2.128 1_655 S
Co198 N218 2.194 . S
Co198 O223 2.351 1_655 S
Co198 O224 2.155 . S
Co198 O225 2.096 . S
C199 N202 1.301 . S
C199 N203 1.328 . S
C199 H204 0.930 . S
C200 C201 1.333 . S
C200 N202 1.317 . S
C200 H205 0.930 . S
C201 C200 1.333 . S
C201 N203 1.350 . S
C201 H227 0.931 . S
N202 Co198 2.148 . S
N202 C199 1.301 . S
N202 C200 1.317 . S
N203 C199 1.328 . S
N203 C201 1.350 . S
H204 C199 0.930 . S
H205 C200 0.930 . S
C206 O207 1.224 . S
C206 O225 1.247 . S
O207 C206 1.224 . S
N208 Co198 2.128 1_455 S
N208 C209 1.355 . S
N208 C211 1.311 . S
C209 N208 1.355 . S
C209 C210 1.363 . S
C209 H221 0.929 . S
C210 C209 1.363 . S
C210 N212 1.375 . S
C210 H228 0.931 . S
C211 N208 1.311 . S
C211 N212 1.347 . S
C211 H222 0.929 . S
N212 C210 1.375 . S
N212 C211 1.347 . S
C213 C216 1.364 1_655 S
C213 N218 1.332 . S
C213 H219 0.928 1_655 S
C214 C215 1.362 1_655 S
C214 C217 1.378 . S
C214 H229 0.929 . S
C215 C214 1.362 1_455 S
C215 C216 1.366 . S
C216 C213 1.364 1_455 S
C216 C215 1.366 . S
C216 H230 0.930 . S
C217 C214 1.378 . S
C217 N218 1.315 . S
C217 H220 0.930 . S
N218 Co198 2.194 . S
N218 C213 1.332 . S
N218 C217 1.315 . S
H219 C213 0.928 1_455 S
H220 C217 0.930 . S
H221 C209 0.929 . S
H222 C211 0.929 . S
O223 Co198 2.351 1_455 S
O223 C226 1.249 . S
O224 Co198 2.155 . S
O224 C226 1.226 1_655 S
O225 Co198 2.096 . S
O225 C206 1.247 . S
C226 O223 1.249 . S
C226 O224 1.226 1_455 S
H227 C201 0.931 . S
H228 C210 0.931 . S
H229 C214 0.929 . S
H230 C216 0.930 . S
Co231 N235 2.148 . S
Co231 N241 2.128 1_545 S
Co231 N251 2.194 . S
Co231 O256 2.351 1_545 S
Co231 O257 2.155 . S
Co231 O258 2.096 . S
C232 N235 1.301 . S
C232 N236 1.328 . S
C232 H237 0.930 . S
C233 C234 1.333 . S
C233 N235 1.317 . S
C233 H238 0.930 . S
C234 C233 1.333 . S
C234 N236 1.350 . S
C234 H260 0.931 . S
N235 Co231 2.148 . S
N235 C232 1.301 . S
N235 C233 1.317 . S
N236 C232 1.328 . S
N236 C234 1.350 . S
H237 C232 0.930 . S
H238 C233 0.930 . S
C239 O240 1.224 . S
C239 O258 1.247 . S
O240 C239 1.224 . S
N241 Co231 2.128 1_565 S
N241 C242 1.355 . S
N241 C244 1.311 . S
C242 N241 1.355 . S
C242 C243 1.363 . S
C242 H254 0.929 . S
C243 C242 1.363 . S
C243 N245 1.375 . S
C243 H261 0.931 . S
C244 N241 1.311 . S
C244 N245 1.347 . S
C244 H255 0.929 . S
N245 C243 1.375 . S
N245 C244 1.347 . S
C246 C249 1.364 1_545 S
C246 N251 1.332 . S
C246 H252 0.928 1_545 S
C247 C248 1.362 1_545 S
C247 C250 1.378 . S
C247 H262 0.929 . S
C248 C247 1.362 1_565 S
C248 C249 1.366 . S
C249 C246 1.364 1_565 S
C249 C248 1.366 . S
C249 H263 0.930 . S
C250 C247 1.378 . S
C250 N251 1.315 . S
C250 H253 0.930 . S
N251 Co231 2.194 . S
N251 C246 1.332 . S
N251 C250 1.315 . S
H252 C246 0.928 1_565 S
H253 C250 0.930 . S
H254 C242 0.929 . S
H255 C244 0.929 . S
O256 Co231 2.351 1_565 S
O256 C259 1.249 . S
O257 Co231 2.155 . S
O257 C259 1.226 1_545 S
O258 Co231 2.096 . S
O258 C239 1.247 . S
C259 O256 1.249 . S
C259 O257 1.226 1_565 S
H260 C234 0.931 . S
H261 C243 0.931 . S
H262 C247 0.929 . S
H263 C249 0.930 . S
Co264 N268 2.148 . S
Co264 N274 2.128 . S
Co264 N284 2.194 . S
Co264 O289 2.351 . S
Co264 O290 2.155 . S
Co264 O291 2.096 . S
C265 N268 1.301 . S
C265 N269 1.328 . S
C265 H270 0.930 . S
C266 C267 1.333 . S
C266 N268 1.317 . S
C266 H271 0.930 . S
C267 C266 1.333 . S
C267 N269 1.350 . S
C267 H293 0.931 . S
N268 Co264 2.148 . S
N268 C265 1.301 . S
N268 C266 1.317 . S
N269 C265 1.328 . S
N269 C267 1.350 . S
H270 C265 0.930 . S
H271 C266 0.930 . S
C272 O273 1.224 . S
C272 O291 1.247 . S
O273 C272 1.224 . S
N274 Co264 2.128 . S
N274 C275 1.355 . S
N274 C277 1.311 . S
C275 N274 1.355 . S
C275 C276 1.363 . S
C275 H287 0.929 . S
C276 C275 1.363 . S
C276 N278 1.375 . S
C276 H294 0.931 . S
C277 N274 1.311 . S
C277 N278 1.347 . S
C277 H288 0.929 . S
N278 C276 1.375 . S
N278 C277 1.347 . S
C279 C282 1.365 . S
C279 N284 1.328 . S
C279 H285 0.929 . S
C280 C281 1.362 . S
C280 C283 1.378 . S
C280 H295 0.929 . S
C281 C280 1.362 . S
C281 C282 1.366 . S
C282 C279 1.365 . S
C282 C281 1.366 . S
C282 H296 0.930 . S
C283 C280 1.378 . S
C283 N284 1.315 . S
C283 H286 0.930 . S
N284 Co264 2.194 . S
N284 C279 1.328 . S
N284 C283 1.315 . S
H285 C279 0.929 . S
H286 C283 0.930 . S
H287 C275 0.929 . S
H288 C277 0.929 . S
O289 Co264 2.351 . S
O289 C292 1.244 . S
O290 Co264 2.155 . S
O290 C292 1.240 . S
O291 Co264 2.096 . S
O291 C272 1.247 . S
C292 O289 1.244 . S
C292 O290 1.240 . S
H293 C267 0.931 . S
H294 C276 0.931 . S
H295 C280 0.929 . S
H296 C282 0.930 . S
Co297 N301 2.148 . S
Co297 N307 2.128 . S
Co297 N317 2.194 . S
Co297 O322 2.351 . S
Co297 O323 2.155 . S
Co297 O324 2.096 . S
C298 N301 1.301 . S
C298 N302 1.328 . S
C298 H303 0.930 . S
C299 C300 1.333 . S
C299 N301 1.317 . S
C299 H304 0.930 . S
C300 C299 1.333 . S
C300 N302 1.350 . S
C300 H326 0.931 . S
N301 Co297 2.148 . S
N301 C298 1.301 . S
N301 C299 1.317 . S
N302 C298 1.328 . S
N302 C300 1.350 . S
H303 C298 0.930 . S
H304 C299 0.930 . S
C305 O306 1.224 . S
C305 O324 1.247 . S
O306 C305 1.224 . S
N307 Co297 2.128 . S
N307 C308 1.355 . S
N307 C310 1.311 . S
C308 N307 1.355 . S
C308 C309 1.363 . S
C308 H320 0.929 . S
C309 C308 1.363 . S
C309 N311 1.375 . S
C309 H327 0.931 . S
C310 N307 1.311 . S
C310 N311 1.347 . S
C310 H321 0.929 . S
N311 C309 1.375 . S
N311 C310 1.347 . S
C312 C315 1.365 . S
C312 N317 1.328 . S
C312 H318 0.929 . S
C313 C314 1.362 . S
C313 C316 1.378 . S
C313 H328 0.929 . S
C314 C313 1.362 . S
C314 C315 1.366 . S
C315 C312 1.365 . S
C315 C314 1.366 . S
C315 H329 0.930 . S
C316 C313 1.378 . S
C316 N317 1.315 . S
C316 H319 0.930 . S
N317 Co297 2.194 . S
N317 C312 1.328 . S
N317 C316 1.315 . S
H318 C312 0.929 . S
H319 C316 0.930 . S
H320 C308 0.929 . S
H321 C310 0.929 . S
O322 Co297 2.351 . S
O322 C325 1.244 . S
O323 Co297 2.155 . S
O323 C325 1.240 . S
O324 Co297 2.096 . S
O324 C305 1.247 . S
C325 O322 1.244 . S
C325 O323 1.240 . S
H326 C300 0.931 . S
H327 C309 0.931 . S
H328 C313 0.929 . S
H329 C315 0.930 . S
Co330 N334 2.148 . S
Co330 N340 2.128 . S
Co330 N350 2.194 . S
Co330 O355 2.351 . S
Co330 O356 2.155 . S
Co330 O357 2.096 . S
C331 N334 1.301 . S
C331 N335 1.328 . S
C331 H336 0.930 . S
C332 C333 1.333 . S
C332 N334 1.317 . S
C332 H337 0.930 . S
C333 C332 1.333 . S
C333 N335 1.350 . S
C333 H359 0.931 . S
N334 Co330 2.148 . S
N334 C331 1.301 . S
N334 C332 1.317 . S
N335 C331 1.328 . S
N335 C333 1.350 . S
H336 C331 0.930 . S
H337 C332 0.930 . S
C338 O339 1.224 . S
C338 O357 1.247 . S
O339 C338 1.224 . S
N340 Co330 2.128 . S
N340 C341 1.355 . S
N340 C343 1.311 . S
C341 N340 1.355 . S
C341 C342 1.363 . S
C341 H353 0.929 . S
C342 C341 1.363 . S
C342 N344 1.375 . S
C342 H360 0.931 . S
C343 N340 1.311 . S
C343 N344 1.347 . S
C343 H354 0.929 . S
N344 C342 1.375 . S
N344 C343 1.347 . S
C345 C348 1.365 . S
C345 N350 1.328 . S
C345 H351 0.929 . S
C346 C347 1.362 . S
C346 C349 1.378 . S
C346 H361 0.929 . S
C347 C346 1.362 . S
C347 C348 1.366 . S
C348 C345 1.365 . S
C348 C347 1.366 . S
C348 H362 0.930 . S
C349 C346 1.378 . S
C349 N350 1.315 . S
C349 H352 0.930 . S
N350 Co330 2.194 . S
N350 C345 1.328 . S
N350 C349 1.315 . S
H351 C345 0.929 . S
H352 C349 0.930 . S
H353 C341 0.929 . S
H354 C343 0.929 . S
O355 Co330 2.351 . S
O355 C358 1.244 . S
O356 Co330 2.155 . S
O356 C358 1.240 . S
O357 Co330 2.096 . S
O357 C338 1.247 . S
C358 O355 1.244 . S
C358 O356 1.240 . S
H359 C333 0.931 . S
H360 C342 0.931 . S
H361 C346 0.929 . S
H362 C348 0.930 . S
Co363 N367 2.148 . S
Co363 N373 2.128 . S
Co363 N383 2.194 . S
Co363 O388 2.351 . S
Co363 O389 2.155 . S
Co363 O390 2.096 . S
C364 N367 1.301 . S
C364 N368 1.328 . S
C364 H369 0.930 . S
C365 C366 1.333 . S
C365 N367 1.317 . S
C365 H370 0.930 . S
C366 C365 1.333 . S
C366 N368 1.350 . S
C366 H392 0.931 . S
N367 Co363 2.148 . S
N367 C364 1.301 . S
N367 C365 1.317 . S
N368 C364 1.328 . S
N368 C366 1.350 . S
H369 C364 0.930 . S
H370 C365 0.930 . S
C371 O372 1.224 . S
C371 O390 1.247 . S
O372 C371 1.224 . S
N373 Co363 2.128 . S
N373 C374 1.355 . S
N373 C376 1.311 . S
C374 N373 1.355 . S
C374 C375 1.363 . S
C374 H386 0.929 . S
C375 C374 1.363 . S
C375 N377 1.375 . S
C375 H393 0.931 . S
C376 N373 1.311 . S
C376 N377 1.347 . S
C376 H387 0.929 . S
N377 C375 1.375 . S
N377 C376 1.347 . S
C378 C381 1.365 . S
C378 N383 1.328 . S
C378 H384 0.929 . S
C379 C380 1.362 . S
C379 C382 1.378 . S
C379 H394 0.929 . S
C380 C379 1.362 . S
C380 C381 1.366 . S
C381 C378 1.365 . S
C381 C380 1.366 . S
C381 H395 0.930 . S
C382 C379 1.378 . S
C382 N383 1.315 . S
C382 H385 0.930 . S
N383 Co363 2.194 . S
N383 C378 1.328 . S
N383 C382 1.315 . S
H384 C378 0.929 . S
H385 C382 0.930 . S
H386 C374 0.929 . S
H387 C376 0.929 . S
O388 Co363 2.351 . S
O388 C391 1.244 . S
O389 Co363 2.155 . S
O389 C391 1.240 . S
O390 Co363 2.096 . S
O390 C371 1.247 . S
C391 O388 1.244 . S
C391 O389 1.240 . S
H392 C366 0.931 . S
H393 C375 0.931 . S
H394 C379 0.929 . S
H395 C381 0.930 . S
Co396 N400 2.148 . S
Co396 N406 2.128 . S
Co396 N416 2.194 . S
Co396 O421 2.351 . S
Co396 O422 2.155 . S
Co396 O423 2.096 . S
C397 N400 1.301 . S
C397 N401 1.328 . S
C397 H402 0.930 . S
C398 C399 1.333 . S
C398 N400 1.317 . S
C398 H403 0.930 . S
C399 C398 1.333 . S
C399 N401 1.350 . S
C399 H425 0.931 . S
N400 Co396 2.148 . S
N400 C397 1.301 . S
N400 C398 1.317 . S
N401 C397 1.328 . S
N401 C399 1.350 . S
H402 C397 0.930 . S
H403 C398 0.930 . S
C404 O405 1.224 . S
C404 O423 1.247 . S
O405 C404 1.224 . S
N406 Co396 2.128 . S
N406 C407 1.355 . S
N406 C409 1.311 . S
C407 N406 1.355 . S
C407 C408 1.363 . S
C407 H419 0.929 . S
C408 C407 1.363 . S
C408 N410 1.375 . S
C408 H426 0.931 . S
C409 N406 1.311 . S
C409 N410 1.347 . S
C409 H420 0.929 . S
N410 C408 1.375 . S
N410 C409 1.347 . S
C411 C414 1.365 . S
C411 N416 1.328 . S
C411 H417 0.929 . S
C412 C413 1.362 . S
C412 C415 1.378 . S
C412 H427 0.929 . S
C413 C412 1.362 . S
C413 C414 1.366 . S
C414 C411 1.365 . S
C414 C413 1.366 . S
C414 H428 0.930 . S
C415 C412 1.378 . S
C415 N416 1.315 . S
C415 H418 0.930 . S
N416 Co396 2.194 . S
N416 C411 1.328 . S
N416 C415 1.315 . S
H417 C411 0.929 . S
H418 C415 0.930 . S
H419 C407 0.929 . S
H420 C409 0.929 . S
O421 Co396 2.351 . S
O421 C424 1.244 . S
O422 Co396 2.155 . S
O422 C424 1.240 . S
O423 Co396 2.096 . S
O423 C404 1.247 . S
C424 O421 1.244 . S
C424 O422 1.240 . S
H425 C399 0.931 . S
H426 C408 0.931 . S
H427 C412 0.929 . S
H428 C414 0.930 . S
Co429 N433 2.148 . S
Co429 N439 2.128 . S
Co429 N449 2.194 . S
Co429 O454 2.351 . S
Co429 O455 2.155 . S
Co429 O456 2.096 . S
C430 N433 1.301 . S
C430 N434 1.328 . S
C430 H435 0.930 . S
C431 C432 1.333 . S
C431 N433 1.317 . S
C431 H436 0.930 . S
C432 C431 1.333 . S
C432 N434 1.350 . S
C432 H458 0.931 . S
N433 Co429 2.148 . S
N433 C430 1.301 . S
N433 C431 1.317 . S
N434 C430 1.328 . S
N434 C432 1.350 . S
H435 C430 0.930 . S
H436 C431 0.930 . S
C437 O438 1.224 . S
C437 O456 1.247 . S
O438 C437 1.224 . S
N439 Co429 2.128 . S
N439 C440 1.355 . S
N439 C442 1.311 . S
C440 N439 1.355 . S
C440 C441 1.363 . S
C440 H452 0.929 . S
C441 C440 1.363 . S
C441 N443 1.375 . S
C441 H459 0.931 . S
C442 N439 1.311 . S
C442 N443 1.347 . S
C442 H453 0.929 . S
N443 C441 1.375 . S
N443 C442 1.347 . S
C444 C447 1.365 . S
C444 N449 1.328 . S
C444 H450 0.929 . S
C445 C446 1.362 . S
C445 C448 1.378 . S
C445 H460 0.929 . S
C446 C445 1.362 . S
C446 C447 1.366 . S
C447 C444 1.365 . S
C447 C446 1.366 . S
C447 H461 0.930 . S
C448 C445 1.378 . S
C448 N449 1.315 . S
C448 H451 0.930 . S
N449 Co429 2.194 . S
N449 C444 1.328 . S
N449 C448 1.315 . S
H450 C444 0.929 . S
H451 C448 0.930 . S
H452 C440 0.929 . S
H453 C442 0.929 . S
O454 Co429 2.351 . S
O454 C457 1.244 . S
O455 Co429 2.155 . S
O455 C457 1.240 . S
O456 Co429 2.096 . S
O456 C437 1.247 . S
C457 O454 1.244 . S
C457 O455 1.240 . S
H458 C432 0.931 . S
H459 C441 0.931 . S
H460 C445 0.929 . S
H461 C447 0.930 . S
Co462 N466 2.148 . S
Co462 N472 2.128 . S
Co462 N482 2.194 . S
Co462 O487 2.351 . S
Co462 O488 2.155 . S
Co462 O489 2.096 . S
C463 N466 1.301 . S
C463 N467 1.328 . S
C463 H468 0.930 . S
C464 C465 1.333 . S
C464 N466 1.317 . S
C464 H469 0.930 . S
C465 C464 1.333 . S
C465 N467 1.350 . S
C465 H491 0.931 . S
N466 Co462 2.148 . S
N466 C463 1.301 . S
N466 C464 1.317 . S
N467 C463 1.328 . S
N467 C465 1.350 . S
H468 C463 0.930 . S
H469 C464 0.930 . S
C470 O471 1.224 . S
C470 O489 1.247 . S
O471 C470 1.224 . S
N472 Co462 2.128 . S
N472 C473 1.355 . S
N472 C475 1.311 . S
C473 N472 1.355 . S
C473 C474 1.363 . S
C473 H485 0.929 . S
C474 C473 1.363 . S
C474 N476 1.375 . S
C474 H492 0.931 . S
C475 N472 1.311 . S
C475 N476 1.347 . S
C475 H486 0.929 . S
N476 C474 1.375 . S
N476 C475 1.347 . S
C477 C480 1.365 . S
C477 N482 1.328 . S
C477 H483 0.929 . S
C478 C479 1.362 . S
C478 C481 1.378 . S
C478 H493 0.929 . S
C479 C478 1.362 . S
C479 C480 1.366 . S
C480 C477 1.365 . S
C480 C479 1.366 . S
C480 H494 0.930 . S
C481 C478 1.378 . S
C481 N482 1.315 . S
C481 H484 0.930 . S
N482 Co462 2.194 . S
N482 C477 1.328 . S
N482 C481 1.315 . S
H483 C477 0.929 . S
H484 C481 0.930 . S
H485 C473 0.929 . S
H486 C475 0.929 . S
O487 Co462 2.351 . S
O487 C490 1.244 . S
O488 Co462 2.155 . S
O488 C490 1.240 . S
O489 Co462 2.096 . S
O489 C470 1.247 . S
C490 O487 1.244 . S
C490 O488 1.240 . S
H491 C465 0.931 . S
H492 C474 0.931 . S
H493 C478 0.929 . S
H494 C480 0.930 . S
Co495 N499 2.148 . S
Co495 N505 2.128 . S
Co495 N515 2.194 . S
Co495 O520 2.351 . S
Co495 O521 2.155 . S
Co495 O522 2.096 . S
C496 N499 1.301 . S
C496 N500 1.328 . S
C496 H501 0.930 . S
C497 C498 1.333 . S
C497 N499 1.317 . S
C497 H502 0.930 . S
C498 C497 1.333 . S
C498 N500 1.350 . S
C498 H524 0.931 . S
N499 Co495 2.148 . S
N499 C496 1.301 . S
N499 C497 1.317 . S
N500 C496 1.328 . S
N500 C498 1.350 . S
H501 C496 0.930 . S
H502 C497 0.930 . S
C503 O504 1.224 . S
C503 O522 1.247 . S
O504 C503 1.224 . S
N505 Co495 2.128 . S
N505 C506 1.355 . S
N505 C508 1.311 . S
C506 N505 1.355 . S
C506 C507 1.363 . S
C506 H518 0.929 . S
C507 C506 1.363 . S
C507 N509 1.375 . S
C507 H525 0.931 . S
C508 N505 1.311 . S
C508 N509 1.347 . S
C508 H519 0.929 . S
N509 C507 1.375 . S
N509 C508 1.347 . S
C510 C513 1.365 . S
C510 N515 1.328 . S
C510 H516 0.929 . S
C511 C512 1.362 . S
C511 C514 1.378 . S
C511 H526 0.929 . S
C512 C511 1.362 . S
C512 C513 1.366 . S
C513 C510 1.365 . S
C513 C512 1.366 . S
C513 H527 0.930 . S
C514 C511 1.378 . S
C514 N515 1.315 . S
C514 H517 0.930 . S
N515 Co495 2.194 . S
N515 C510 1.328 . S
N515 C514 1.315 . S
H516 C510 0.929 . S
H517 C514 0.930 . S
H518 C506 0.929 . S
H519 C508 0.929 . S
O520 Co495 2.351 . S
O520 C523 1.244 . S
O521 Co495 2.155 . S
O521 C523 1.240 . S
O522 Co495 2.096 . S
O522 C503 1.247 . S
C523 O520 1.244 . S
C523 O521 1.240 . S
H524 C498 0.931 . S
H525 C507 0.931 . S
H526 C511 0.929 . S
H527 C513 0.930 . S
C528 C529 1.349 . S
C528 C530 1.327 . S
C528 H553 0.950 . S
C529 C528 1.349 . S
C529 C545 1.349 . S
C530 C528 1.327 . S
C530 C549 1.429 . S
C530 H554 0.950 . S
C531 C548 1.574 . S
C531 C550 1.368 . S
C531 H555 0.949 . S
H532 C536 0.949 . S
C533 C534 1.349 . S
C533 C535 1.327 . S
C533 H556 0.950 . S
C534 C533 1.349 . S
C534 C546 1.349 . S
C535 C533 1.327 . S
C535 C551 1.429 . S
C535 H557 0.950 . S
C536 H532 0.949 . S
C536 C544 1.574 . S
C536 C552 1.368 . S
H537 C545 0.950 . S
H538 C543 0.950 . S
H539 C544 0.949 . S
H540 C546 0.950 . S
H541 C547 0.950 . S
H542 C548 0.949 . S
C543 H538 0.950 . S
C543 C545 1.327 . S
C543 C549 1.429 . S
C544 C536 1.574 . S
C544 H539 0.949 . S
C544 C550 1.368 . S
C545 C529 1.349 . S
C545 H537 0.950 . S
C545 C543 1.327 . S
C546 C534 1.349 . S
C546 H540 0.950 . S
C546 C547 1.327 . S
C547 H541 0.950 . S
C547 C546 1.327 . S
C547 C551 1.429 . S
C548 C531 1.574 . S
C548 H542 0.949 . S
C548 C552 1.368 . S
C549 C530 1.429 . S
C549 C543 1.429 . S
C549 C550 1.523 . S
C550 C531 1.368 . S
C550 C544 1.368 . S
C550 C549 1.523 . S
C551 C535 1.429 . S
C551 C547 1.429 . S
C551 C552 1.523 . S
C552 C536 1.368 . S
C552 C548 1.368 . S
C552 C551 1.523 . S
H553 C528 0.950 . S
H554 C530 0.950 . S
H555 C531 0.949 . S
H556 C533 0.950 . S
H557 C535 0.950 . S
C558 C559 1.349 . S
C558 C560 1.327 . S
C558 H583 0.950 . S
C559 C558 1.349 . S
C559 C575 1.349 . S
C560 C558 1.327 . S
C560 C579 1.429 . S
C560 H584 0.950 . S
C561 C578 1.574 . S
C561 C580 1.368 . S
C561 H585 0.949 . S
H562 C566 0.949 . S
C563 C564 1.349 . S
C563 C565 1.327 . S
C563 H586 0.950 . S
C564 C563 1.349 . S
C564 C576 1.349 . S
C565 C563 1.327 . S
C565 C581 1.429 . S
C565 H587 0.950 . S
C566 H562 0.949 . S
C566 C574 1.574 . S
C566 C582 1.368 . S
H567 C575 0.950 . S
H568 C573 0.950 . S
H569 C574 0.949 . S
H570 C576 0.950 . S
H571 C577 0.950 . S
H572 C578 0.949 . S
C573 H568 0.950 . S
C573 C575 1.327 . S
C573 C579 1.429 . S
C574 C566 1.574 . S
C574 H569 0.949 . S
C574 C580 1.368 . S
C575 C559 1.349 . S
C575 H567 0.950 . S
C575 C573 1.327 . S
C576 C564 1.349 . S
C576 H570 0.950 . S
C576 C577 1.327 . S
C577 H571 0.950 . S
C577 C576 1.327 . S
C577 C581 1.429 . S
C578 C561 1.574 . S
C578 H572 0.949 . S
C578 C582 1.368 . S
C579 C560 1.429 . S
C579 C573 1.429 . S
C579 C580 1.523 . S
C580 C561 1.368 . S
C580 C574 1.368 . S
C580 C579 1.523 . S
C581 C565 1.429 . S
C581 C577 1.429 . S
C581 C582 1.523 . S
C582 C566 1.368 . S
C582 C578 1.368 . S
C582 C581 1.523 . S
H583 C558 0.950 . S
H584 C560 0.950 . S
H585 C561 0.949 . S
H586 C563 0.950 . S
H587 C565 0.950 . S
C588 C589 1.349 . S
C588 C590 1.327 . S
C588 H613 0.950 . S
C589 C588 1.349 . S
C589 C605 1.349 . S
C590 C588 1.327 . S
C590 C609 1.429 . S
C590 H614 0.950 . S
C591 C608 1.574 . S
C591 C610 1.368 . S
C591 H615 0.949 . S
H592 C596 0.949 . S
C593 C594 1.349 . S
C593 C595 1.327 . S
C593 H616 0.950 . S
C594 C593 1.349 . S
C594 C606 1.349 . S
C595 C593 1.327 . S
C595 C611 1.429 . S
C595 H617 0.950 . S
C596 H592 0.949 . S
C596 C604 1.574 . S
C596 C612 1.368 . S
H597 C605 0.950 . S
H598 C603 0.950 . S
H599 C604 0.949 . S
H600 C606 0.950 . S
H601 C607 0.950 . S
H602 C608 0.949 . S
C603 H598 0.950 . S
C603 C605 1.327 . S
C603 C609 1.429 . S
C604 C596 1.574 . S
C604 H599 0.949 . S
C604 C610 1.368 . S
C605 C589 1.349 . S
C605 H597 0.950 . S
C605 C603 1.327 . S
C606 C594 1.349 . S
C606 H600 0.950 . S
C606 C607 1.327 . S
C607 H601 0.950 . S
C607 C606 1.327 . S
C607 C611 1.429 . S
C608 C591 1.574 . S
C608 H602 0.949 . S
C608 C612 1.368 . S
C609 C590 1.429 . S
C609 C603 1.429 . S
C609 C610 1.523 . S
C610 C591 1.368 . S
C610 C604 1.368 . S
C610 C609 1.523 . S
C611 C595 1.429 . S
C611 C607 1.429 . S
C611 C612 1.523 . S
C612 C596 1.368 . S
C612 C608 1.368 . S
C612 C611 1.523 . S
H613 C588 0.950 . S
H614 C590 0.950 . S
H615 C591 0.949 . S
H616 C593 0.950 . S
H617 C595 0.950 . S
C618 C619 1.349 . S
C618 C620 1.327 . S
C618 H643 0.950 . S
C619 C618 1.349 . S
C619 C635 1.349 . S
C620 C618 1.327 . S
C620 C639 1.429 . S
C620 H644 0.950 . S
C621 C638 1.574 . S
C621 C640 1.368 . S
C621 H645 0.949 . S
H622 C626 0.949 . S
C623 C624 1.349 . S
C623 C625 1.327 . S
C623 H646 0.950 . S
C624 C623 1.349 . S
C624 C636 1.349 . S
C625 C623 1.327 . S
C625 C641 1.429 . S
C625 H647 0.950 . S
C626 H622 0.949 . S
C626 C634 1.574 . S
C626 C642 1.368 . S
H627 C635 0.950 . S
H628 C633 0.950 . S
H629 C634 0.949 . S
H630 C636 0.950 . S
H631 C637 0.950 . S
H632 C638 0.949 . S
C633 H628 0.950 . S
C633 C635 1.327 . S
C633 C639 1.429 . S
C634 C626 1.574 . S
C634 H629 0.949 . S
C634 C640 1.368 . S
C635 C619 1.349 . S
C635 H627 0.950 . S
C635 C633 1.327 . S
C636 C624 1.349 . S
C636 H630 0.950 . S
C636 C637 1.327 . S
C637 H631 0.950 . S
C637 C636 1.327 . S
C637 C641 1.429 . S
C638 C621 1.574 . S
C638 H632 0.949 . S
C638 C642 1.368 . S
C639 C620 1.429 . S
C639 C633 1.429 . S
C639 C640 1.523 . S
C640 C621 1.368 . S
C640 C634 1.368 . S
C640 C639 1.523 . S
C641 C625 1.429 . S
C641 C637 1.429 . S
C641 C642 1.523 . S
C642 C626 1.368 . S
C642 C638 1.368 . S
C642 C641 1.523 . S
H643 C618 0.950 . S
H644 C620 0.950 . S
H645 C621 0.949 . S
H646 C623 0.950 . S
H647 C625 0.950 . S
C648 C649 1.349 . S
C648 C650 1.327 . S
C648 H673 0.950 . S
C649 C648 1.349 . S
C649 C665 1.349 . S
C650 C648 1.327 . S
C650 C669 1.429 . S
C650 H674 0.950 . S
C651 C668 1.574 1_554 S
C651 C670 1.368 . S
C651 H675 0.949 . S
H652 C656 0.949 . S
C653 C654 1.349 . S
C653 C655 1.327 . S
C653 H676 0.950 . S
C654 C653 1.349 . S
C654 C666 1.349 . S
C655 C653 1.327 . S
C655 C671 1.429 . S
C655 H677 0.950 . S
C656 H652 0.949 . S
C656 C664 1.574 1_556 S
C656 C672 1.368 . S
H657 C665 0.950 . S
H658 C663 0.950 . S
H659 C664 0.949 . S
H660 C666 0.950 . S
H661 C667 0.950 . S
H662 C668 0.949 . S
C663 H658 0.950 . S
C663 C665 1.327 . S
C663 C669 1.429 . S
C664 C656 1.574 1_554 S
C664 H659 0.949 . S
C664 C670 1.368 . S
C665 C649 1.349 . S
C665 H657 0.950 . S
C665 C663 1.327 . S
C666 C654 1.349 . S
C666 H660 0.950 . S
C666 C667 1.327 . S
C667 H661 0.950 . S
C667 C666 1.327 . S
C667 C671 1.429 . S
C668 C651 1.574 1_556 S
C668 H662 0.949 . S
C668 C672 1.368 . S
C669 C650 1.429 . S
C669 C663 1.429 . S
C669 C670 1.523 . S
C670 C651 1.368 . S
C670 C664 1.368 . S
C670 C669 1.523 . S
C671 C655 1.429 . S
C671 C667 1.429 . S
C671 C672 1.523 . S
C672 C656 1.368 . S
C672 C668 1.368 . S
C672 C671 1.523 . S
H673 C648 0.950 . S
H674 C650 0.950 . S
H675 C651 0.949 . S
H676 C653 0.950 . S
H677 C655 0.950 . S
C678 C679 1.349 . S
C678 C680 1.327 . S
C678 H703 0.950 . S
C679 C678 1.349 . S
C679 C695 1.349 . S
C680 C678 1.327 . S
C680 C699 1.429 . S
C680 H704 0.950 . S
C681 C698 1.574 1_556 S
C681 C700 1.368 . S
C681 H705 0.949 . S
H682 C686 0.949 . S
C683 C684 1.349 . S
C683 C685 1.327 . S
C683 H706 0.950 . S
C684 C683 1.349 . S
C684 C696 1.349 . S
C685 C683 1.327 . S
C685 C701 1.429 . S
C685 H707 0.950 . S
C686 H682 0.949 . S
C686 C694 1.574 1_554 S
C686 C702 1.368 . S
H687 C695 0.950 . S
H688 C693 0.950 . S
H689 C694 0.949 . S
H690 C696 0.950 . S
H691 C697 0.950 . S
H692 C698 0.949 . S
C693 H688 0.950 . S
C693 C695 1.327 . S
C693 C699 1.429 . S
C694 C686 1.574 1_556 S
C694 H689 0.949 . S
C694 C700 1.368 . S
C695 C679 1.349 . S
C695 H687 0.950 . S
C695 C693 1.327 . S
C696 C684 1.349 . S
C696 H690 0.950 . S
C696 C697 1.327 . S
C697 H691 0.950 . S
C697 C696 1.327 . S
C697 C701 1.429 . S
C698 C681 1.574 1_554 S
C698 H692 0.949 . S
C698 C702 1.368 . S
C699 C680 1.429 . S
C699 C693 1.429 . S
C699 C700 1.523 . S
C700 C681 1.368 . S
C700 C694 1.368 . S
C700 C699 1.523 . S
C701 C685 1.429 . S
C701 C697 1.429 . S
C701 C702 1.523 . S
C702 C686 1.368 . S
C702 C698 1.368 . S
C702 C701 1.523 . S
H703 C678 0.950 . S
H704 C680 0.950 . S
H705 C681 0.949 . S
H706 C683 0.950 . S
H707 C685 0.950 . S
C708 C709 1.349 . S
C708 C710 1.327 . S
C708 H733 0.950 . S
C709 C708 1.349 . S
C709 C725 1.349 . S
C710 C708 1.327 . S
C710 C729 1.429 . S
C710 H734 0.950 . S
C711 C728 1.574 1_556 S
C711 C730 1.368 . S
C711 H735 0.949 . S
H712 C716 0.949 . S
C713 C714 1.349 . S
C713 C715 1.327 . S
C713 H736 0.950 . S
C714 C713 1.349 . S
C714 C726 1.349 . S
C715 C713 1.327 . S
C715 C731 1.429 . S
C715 H737 0.950 . S
C716 H712 0.949 . S
C716 C724 1.574 . S
C716 C732 1.368 1_556 S
H717 C725 0.950 . S
H718 C723 0.950 . S
H719 C724 0.949 . S
H720 C726 0.950 . S
H721 C727 0.950 . S
H722 C728 0.949 . S
C723 H718 0.950 . S
C723 C725 1.327 . S
C723 C729 1.429 . S
C724 C716 1.574 . S
C724 H719 0.949 . S
C724 C730 1.368 . S
C725 C709 1.349 . S
C725 H717 0.950 . S
C725 C723 1.327 . S
C726 C714 1.349 . S
C726 H720 0.950 . S
C726 C727 1.327 . S
C727 H721 0.950 . S
C727 C726 1.327 . S
C727 C731 1.429 . S
C728 C711 1.574 1_554 S
C728 H722 0.949 . S
C728 C732 1.368 . S
C729 C710 1.429 . S
C729 C723 1.429 . S
C729 C730 1.523 . S
C730 C711 1.368 . S
C730 C724 1.368 . S
C730 C729 1.523 . S
C731 C715 1.429 . S
C731 C727 1.429 . S
C731 C732 1.523 . S
C732 C716 1.368 1_554 S
C732 C728 1.368 . S
C732 C731 1.523 . S
H733 C708 0.950 . S
H734 C710 0.950 . S
H735 C711 0.949 . S
H736 C713 0.950 . S
H737 C715 0.950 . S
C738 C739 1.349 . S
C738 C740 1.327 . S
C738 H763 0.950 . S
C739 C738 1.349 . S
C739 C755 1.349 . S
C740 C738 1.327 . S
C740 C759 1.429 . S
C740 H764 0.950 . S
C741 C758 1.574 1_554 S
C741 C760 1.368 . S
C741 H765 0.949 . S
H742 C746 0.959 . S
C743 C744 1.349 . S
C743 C745 1.327 . S
C743 H766 0.950 . S
C744 C743 1.349 . S
C744 C756 1.349 . S
C745 C743 1.327 . S
C745 C761 1.429 . S
C745 H767 0.950 . S
C746 H742 0.959 . S
C746 C754 1.574 . S
C746 C762 1.368 1_554 S
H747 C755 0.950 . S
H748 C753 0.950 . S
H749 C754 0.949 . S
H750 C756 0.950 . S
H751 C757 0.950 . S
H752 C758 0.949 . S
C753 H748 0.950 . S
C753 C755 1.327 . S
C753 C759 1.429 . S
C754 C746 1.574 . S
C754 H749 0.949 . S
C754 C760 1.368 . S
C755 C739 1.349 . S
C755 H747 0.950 . S
C755 C753 1.327 . S
C756 C744 1.349 . S
C756 H750 0.950 . S
C756 C757 1.327 . S
C757 H751 0.950 . S
C757 C756 1.327 . S
C757 C761 1.429 . S
C758 C741 1.574 1_556 S
C758 H752 0.949 . S
C758 C762 1.368 . S
C759 C740 1.429 . S
C759 C753 1.429 . S
C759 C760 1.523 . S
C760 C741 1.368 . S
C760 C754 1.368 . S
C760 C759 1.523 . S
C761 C745 1.429 . S
C761 C757 1.429 . S
C761 C762 1.523 . S
C762 C746 1.368 1_556 S
C762 C758 1.368 . S
C762 C761 1.523 . S
H763 C738 0.950 . S
H764 C740 0.950 . S
H765 C741 0.949 . S
H766 C743 0.950 . S
H767 C745 0.950 . S
C768 C769 1.349 . S
C768 C770 1.327 . S
C768 H793 0.950 . S
C769 C768 1.349 . S
C769 C785 1.349 . S
C770 C768 1.327 . S
C770 C789 1.429 . S
C770 H794 0.950 . S
C771 C788 1.574 . S
C771 C790 1.368 . S
C771 H795 0.949 . S
H772 C776 0.949 . S
C773 C774 1.349 . S
C773 C775 1.327 . S
C773 H796 0.950 . S
C774 C773 1.349 . S
C774 C786 1.349 . S
C775 C773 1.327 . S
C775 C791 1.429 . S
C775 H797 0.950 . S
C776 H772 0.949 . S
C776 C784 1.574 . S
C776 C792 1.368 . S
H777 C785 0.950 . S
H778 C783 0.950 . S
H779 C784 0.949 . S
H780 C786 0.950 . S
H781 C787 0.950 . S
H782 C788 0.949 . S
C783 H778 0.950 . S
C783 C785 1.327 . S
C783 C789 1.429 . S
C784 C776 1.574 . S
C784 H779 0.949 . S
C784 C790 1.368 . S
C785 C769 1.349 . S
C785 H777 0.950 . S
C785 C783 1.327 . S
C786 C774 1.349 . S
C786 H780 0.950 . S
C786 C787 1.327 . S
C787 H781 0.950 . S
C787 C786 1.327 . S
C787 C791 1.429 . S
C788 C771 1.574 . S
C788 H782 0.949 . S
C788 C792 1.368 . S
C789 C770 1.429 . S
C789 C783 1.429 . S
C789 C790 1.523 . S
C790 C771 1.368 . S
C790 C784 1.368 . S
C790 C789 1.523 . S
C791 C775 1.429 . S
C791 C787 1.429 . S
C791 C792 1.523 . S
C792 C776 1.368 . S
C792 C788 1.368 . S
C792 C791 1.523 . S
H793 C768 0.950 . S
H794 C770 0.950 . S
H795 C771 0.949 . S
H796 C773 0.950 . S
H797 C775 0.950 . S
C798 C799 1.349 . S
C798 C800 1.327 . S
C798 H823 0.950 . S
C799 C798 1.349 . S
C799 C815 1.349 . S
C800 C798 1.327 . S
C800 C819 1.429 . S
C800 H824 0.950 . S
C801 C818 1.574 . S
C801 C820 1.368 . S
C801 H825 0.949 . S
H802 C806 0.949 . S
C803 C804 1.349 . S
C803 C805 1.327 . S
C803 H826 0.950 . S
C804 C803 1.349 . S
C804 C816 1.349 . S
C805 C803 1.327 . S
C805 C821 1.429 . S
C805 H827 0.950 . S
C806 H802 0.949 . S
C806 C814 1.574 . S
C806 C822 1.368 . S
H807 C815 0.950 . S
H808 C813 0.950 . S
H809 C814 0.949 . S
H810 C816 0.950 . S
H811 C817 0.950 . S
H812 C818 0.949 . S
C813 H808 0.950 . S
C813 C815 1.327 . S
C813 C819 1.429 . S
C814 C806 1.574 . S
C814 H809 0.949 . S
C814 C820 1.368 . S
C815 C799 1.349 . S
C815 H807 0.950 . S
C815 C813 1.327 . S
C816 C804 1.349 . S
C816 H810 0.950 . S
C816 C817 1.327 . S
C817 H811 0.950 . S
C817 C816 1.327 . S
C817 C821 1.429 . S
C818 C801 1.574 . S
C818 H812 0.949 . S
C818 C822 1.368 . S
C819 C800 1.429 . S
C819 C813 1.429 . S
C819 C820 1.523 . S
C820 C801 1.368 . S
C820 C814 1.368 . S
C820 C819 1.523 . S
C821 C805 1.429 . S
C821 C817 1.429 . S
C821 C822 1.523 . S
C822 C806 1.368 . S
C822 C818 1.368 . S
C822 C821 1.523 . S
H823 C798 0.950 . S
H824 C800 0.950 . S
H825 C801 0.949 . S
H826 C803 0.950 . S
H827 C805 0.950 . S
C828 C829 1.349 . S
C828 C830 1.327 . S
C828 H853 0.950 . S
C829 C828 1.349 . S
C829 C845 1.349 . S
C830 C828 1.327 . S
C830 C849 1.429 . S
C830 H854 0.950 . S
C831 C848 1.574 . S
C831 C850 1.368 . S
C831 H855 0.949 . S
H832 C836 0.949 . S
C833 C834 1.349 . S
C833 C835 1.327 . S
C833 H856 0.950 . S
C834 C833 1.349 . S
C834 C846 1.349 . S
C835 C833 1.327 . S
C835 C851 1.429 . S
C835 H857 0.950 . S
C836 H832 0.949 . S
C836 C844 1.574 . S
C836 C852 1.368 . S
H837 C845 0.950 . S
H838 C843 0.950 . S
H839 C844 0.949 . S
H840 C846 0.950 . S
H841 C847 0.950 . S
H842 C848 0.949 . S
C843 H838 0.950 . S
C843 C845 1.327 . S
C843 C849 1.429 . S
C844 C836 1.574 . S
C844 H839 0.949 . S
C844 C850 1.368 . S
C845 C829 1.349 . S
C845 H837 0.950 . S
C845 C843 1.327 . S
C846 C834 1.349 . S
C846 H840 0.950 . S
C846 C847 1.327 . S
C847 H841 0.950 . S
C847 C846 1.327 . S
C847 C851 1.429 . S
C848 C831 1.574 . S
C848 H842 0.949 . S
C848 C852 1.368 . S
C849 C830 1.429 . S
C849 C843 1.429 . S
C849 C850 1.523 . S
C850 C831 1.368 . S
C850 C844 1.368 . S
C850 C849 1.523 . S
C851 C835 1.429 . S
C851 C847 1.429 . S
C851 C852 1.523 . S
C852 C836 1.368 . S
C852 C848 1.368 . S
C852 C851 1.523 . S
H853 C828 0.950 . S
H854 C830 0.950 . S
H855 C831 0.949 . S
H856 C833 0.950 . S
H857 C835 0.950 . S
C858 C859 1.349 . S
C858 C860 1.327 . S
C858 H883 0.950 . S
C859 C858 1.349 . S
C859 C875 1.349 . S
C860 C858 1.327 . S
C860 C879 1.429 . S
C860 H884 0.950 . S
C861 C878 1.574 . S
C861 C880 1.368 . S
C861 H885 0.949 . S
H862 C866 0.949 . S
C863 C864 1.349 . S
C863 C865 1.327 . S
C863 H886 0.950 . S
C864 C863 1.349 . S
C864 C876 1.349 . S
C865 C863 1.327 . S
C865 C881 1.429 . S
C865 H887 0.950 . S
C866 H862 0.949 . S
C866 C874 1.574 . S
C866 C882 1.368 . S
H867 C875 0.950 . S
H868 C873 0.950 . S
H869 C874 0.949 . S
H870 C876 0.950 . S
H871 C877 0.950 . S
H872 C878 0.949 . S
C873 H868 0.950 . S
C873 C875 1.327 . S
C873 C879 1.429 . S
C874 C866 1.574 . S
C874 H869 0.949 . S
C874 C880 1.368 . S
C875 C859 1.349 . S
C875 H867 0.950 . S
C875 C873 1.327 . S
C876 C864 1.349 . S
C876 H870 0.950 . S
C876 C877 1.327 . S
C877 H871 0.950 . S
C877 C876 1.327 . S
C877 C881 1.429 . S
C878 C861 1.574 . S
C878 H872 0.949 . S
C878 C882 1.368 . S
C879 C860 1.429 . S
C879 C873 1.429 . S
C879 C880 1.523 . S
C880 C861 1.368 . S
C880 C874 1.368 . S
C880 C879 1.523 . S
C881 C865 1.429 . S
C881 C877 1.429 . S
C881 C882 1.523 . S
C882 C866 1.368 . S
C882 C878 1.368 . S
C882 C881 1.523 . S
H883 C858 0.950 . S
H884 C860 0.950 . S
H885 C861 0.949 . S
H886 C863 0.950 . S
H887 C865 0.950 . S
C888 C889 1.349 . S
C888 C890 1.327 . S
C888 H913 0.950 . S
C889 C888 1.349 . S
C889 C905 1.349 . S
C890 C888 1.327 . S
C890 C909 1.429 . S
C890 H914 0.950 . S
C891 C908 1.574 . S
C891 C910 1.368 . S
C891 H915 0.949 . S
H892 C896 0.949 . S
C893 C894 1.349 . S
C893 C895 1.327 . S
C893 H916 0.950 . S
C894 C893 1.349 . S
C894 C906 1.349 . S
C895 C893 1.327 . S
C895 C911 1.429 . S
C895 H917 0.950 . S
C896 H892 0.949 . S
C896 C904 1.574 . S
C896 C912 1.368 . S
H897 C905 0.950 . S
H898 C903 0.950 . S
H899 C904 0.949 . S
H900 C906 0.950 . S
H901 C907 0.950 . S
H902 C908 0.949 . S
C903 H898 0.950 . S
C903 C905 1.327 . S
C903 C909 1.429 . S
C904 C896 1.574 . S
C904 H899 0.949 . S
C904 C910 1.368 . S
C905 C889 1.349 . S
C905 H897 0.950 . S
C905 C903 1.327 . S
C906 C894 1.349 . S
C906 H900 0.950 . S
C906 C907 1.327 . S
C907 H901 0.950 . S
C907 C906 1.327 . S
C907 C911 1.429 . S
C908 C891 1.574 . S
C908 H902 0.949 . S
C908 C912 1.368 . S
C909 C890 1.429 . S
C909 C903 1.429 . S
C909 C910 1.523 . S
C910 C891 1.368 . S
C910 C904 1.368 . S
C910 C909 1.523 . S
C911 C895 1.429 . S
C911 C907 1.429 . S
C911 C912 1.523 . S
C912 C896 1.368 . S
C912 C908 1.368 . S
C912 C911 1.523 . S
H913 C888 0.950 . S
H914 C890 0.950 . S
H915 C891 0.949 . S
H916 C893 0.950 . S
H917 C895 0.950 . S
C918 C919 1.349 . S
C918 C920 1.327 . S
C918 H943 0.950 . S
C919 C918 1.349 . S
C919 C935 1.349 . S
C920 C918 1.327 . S
C920 C939 1.429 . S
C920 H944 0.950 . S
C921 C938 1.574 . S
C921 C940 1.368 . S
C921 H945 0.949 . S
H922 C926 0.949 . S
C923 C924 1.349 . S
C923 C925 1.327 . S
C923 H946 0.950 . S
C924 C923 1.349 . S
C924 C936 1.349 . S
C925 C923 1.327 . S
C925 C941 1.429 . S
C925 H947 0.950 . S
C926 H922 0.949 . S
C926 C934 1.574 . S
C926 C942 1.368 . S
H927 C935 0.950 . S
H928 C933 0.950 . S
H929 C934 0.949 . S
H930 C936 0.950 . S
H931 C937 0.950 . S
H932 C938 0.949 . S
C933 H928 0.950 . S
C933 C935 1.327 . S
C933 C939 1.429 . S
C934 C926 1.574 . S
C934 H929 0.949 . S
C934 C940 1.368 . S
C935 C919 1.349 . S
C935 H927 0.950 . S
C935 C933 1.327 . S
C936 C924 1.349 . S
C936 H930 0.950 . S
C936 C937 1.327 . S
C937 H931 0.950 . S
C937 C936 1.327 . S
C937 C941 1.429 . S
C938 C921 1.574 . S
C938 H932 0.949 . S
C938 C942 1.368 . S
C939 C920 1.429 . S
C939 C933 1.429 . S
C939 C940 1.523 . S
C940 C921 1.368 . S
C940 C934 1.368 . S
C940 C939 1.523 . S
C941 C925 1.429 . S
C941 C937 1.429 . S
C941 C942 1.523 . S
C942 C926 1.368 . S
C942 C938 1.368 . S
C942 C941 1.523 . S
H943 C918 0.950 . S
H944 C920 0.950 . S
H945 C921 0.949 . S
H946 C923 0.950 . S
H947 C925 0.950 . S
C948 C949 1.349 . S
C948 C950 1.327 . S
C948 H973 0.950 . S
C949 C948 1.349 . S
C949 C965 1.349 . S
C950 C948 1.327 . S
C950 C969 1.429 . S
C950 H974 0.950 . S
C951 C968 1.574 . S
C951 C970 1.368 . S
C951 H975 0.949 . S
H952 C956 0.949 . S
C953 C954 1.349 . S
C953 C955 1.327 . S
C953 H976 0.950 . S
C954 C953 1.349 . S
C954 C966 1.349 . S
C955 C953 1.327 . S
C955 C971 1.429 . S
C955 H977 0.950 . S
C956 H952 0.949 . S
C956 C964 1.574 . S
C956 C972 1.368 . S
H957 C965 0.950 . S
H958 C963 0.950 . S
H959 C964 0.949 . S
H960 C966 0.950 . S
H961 C967 0.950 . S
H962 C968 0.949 . S
C963 H958 0.950 . S
C963 C965 1.327 . S
C963 C969 1.429 . S
C964 C956 1.574 . S
C964 H959 0.949 . S
C964 C970 1.368 . S
C965 C949 1.349 . S
C965 H957 0.950 . S
C965 C963 1.327 . S
C966 C954 1.349 . S
C966 H960 0.950 . S
C966 C967 1.327 . S
C967 H961 0.950 . S
C967 C966 1.327 . S
C967 C971 1.429 . S
C968 C951 1.574 . S
C968 H962 0.949 . S
C968 C972 1.368 . S
C969 C950 1.429 . S
C969 C963 1.429 . S
C969 C970 1.523 . S
C970 C951 1.368 . S
C970 C964 1.368 . S
C970 C969 1.523 . S
C971 C955 1.429 . S
C971 C967 1.429 . S
C971 C972 1.523 . S
C972 C956 1.368 . S
C972 C968 1.368 . S
C972 C971 1.523 . S
H973 C948 0.950 . S
H974 C950 0.950 . S
H975 C951 0.949 . S
H976 C953 0.950 . S
H977 C955 0.950 . S
C978 C979 1.349 . S
C978 C980 1.327 . S
C978 H1003 0.950 . S
C979 C978 1.349 . S
C979 C995 1.349 . S
C980 C978 1.327 . S
C980 C999 1.429 . S
C980 H1004 0.950 . S
C981 C998 1.574 . S
C981 C1000 1.368 . S
C981 H1005 0.949 . S
H982 C986 0.949 . S
C983 C984 1.349 . S
C983 C985 1.327 . S
C983 H1006 0.950 . S
C984 C983 1.349 . S
C984 C996 1.349 . S
C985 C983 1.327 . S
C985 C1001 1.429 . S
C985 H1007 0.950 . S
C986 H982 0.949 . S
C986 C994 1.574 . S
C986 C1002 1.368 . S
H987 C995 0.950 . S
H988 C993 0.950 . S
H989 C994 0.949 . S
H990 C996 0.950 . S
H991 C997 0.950 . S
H992 C998 0.949 . S
C993 H988 0.950 . S
C993 C995 1.327 . S
C993 C999 1.429 . S
C994 C986 1.574 . S
C994 H989 0.949 . S
C994 C1000 1.368 . S
C995 C979 1.349 . S
C995 H987 0.950 . S
C995 C993 1.327 . S
C996 C984 1.349 . S
C996 H990 0.950 . S
C996 C997 1.327 . S
C997 H991 0.950 . S
C997 C996 1.327 . S
C997 C1001 1.429 . S
C998 C981 1.574 . S
C998 H992 0.949 . S
C998 C1002 1.368 . S
C999 C980 1.429 . S
C999 C993 1.429 . S
C999 C1000 1.523 . S
C1000 C981 1.368 . S
C1000 C994 1.368 . S
C1000 C999 1.523 . S
C1001 C985 1.429 . S
C1001 C997 1.429 . S
C1001 C1002 1.523 . S
C1002 C986 1.368 . S
C1002 C998 1.368 . S
C1002 C1001 1.523 . S
H1003 C978 0.950 . S
H1004 C980 0.950 . S
H1005 C981 0.949 . S
H1006 C983 0.950 . S
H1007 C985 0.950 . S
C1008 C1009 1.349 . S
C1008 C1010 1.327 . S
C1008 H1033 0.950 . S
C1009 C1008 1.349 . S
C1009 C1025 1.349 1_655 S
C1010 C1008 1.327 . S
C1010 C1029 1.429 . S
C1010 H1034 0.950 . S
C1011 C1028 1.574 1_545 S
C1011 C1030 1.368 1_455 S
C1011 H1035 0.949 . S
H1012 C1016 0.949 . S
C1013 C1014 1.349 . S
C1013 C1015 1.327 . S
C1013 H1036 0.950 . S
C1014 C1013 1.349 . S
C1014 C1026 1.349 1_455 S
C1015 C1013 1.327 . S
C1015 C1031 1.429 . S
C1015 H1037 0.950 . S
C1016 H1012 0.949 . S
C1016 C1024 1.574 1_565 S
C1016 C1032 1.368 1_655 S
H1017 C1025 0.950 . S
H1018 C1023 0.950 . S
H1019 C1024 0.949 . S
H1020 C1026 0.950 . S
H1021 C1027 0.950 . S
H1022 C1028 0.949 . S
C1023 H1018 0.950 . S
C1023 C1025 1.327 . S
C1023 C1029 1.429 1_455 S
C1024 C1016 1.574 1_545 S
C1024 H1019 0.949 . S
C1024 C1030 1.368 . S
C1025 C1009 1.349 1_455 S
C1025 H1017 0.950 . S
C1025 C1023 1.327 . S
C1026 C1014 1.349 1_655 S
C1026 H1020 0.950 . S
C1026 C1027 1.327 . S
C1027 H1021 0.950 . S
C1027 C1026 1.327 . S
C1027 C1031 1.429 1_655 S
C1028 C1011 1.574 1_565 S
C1028 H1022 0.949 . S
C1028 C1032 1.368 . S
C1029 C1010 1.429 . S
C1029 C1023 1.429 1_655 S
C1029 C1030 1.523 . S
C1030 C1011 1.368 1_655 S
C1030 C1024 1.368 . S
C1030 C1029 1.523 . S
C1031 C1015 1.429 . S
C1031 C1027 1.429 1_455 S
C1031 C1032 1.523 . S
C1032 C1016 1.368 1_455 S
C1032 C1028 1.368 . S
C1032 C1031 1.523 . S
H1033 C1008 0.950 . S
H1034 C1010 0.950 . S
H1035 C1011 0.949 . S
H1036 C1013 0.950 . S
H1037 C1015 0.950 . S
C1038 C1039 1.349 1_565 S
C1038 C1040 1.327 . S
C1038 H1063 0.950 . S
C1039 C1038 1.349 1_545 S
C1039 C1055 1.349 . S
C1040 C1038 1.327 . S
C1040 C1059 1.429 1_565 S
C1040 H1064 0.950 . S
C1041 C1058 1.574 1_455 S
C1041 C1060 1.368 . S
C1041 H1065 0.949 . S
H1042 C1046 0.949 . S
C1043 C1044 1.349 1_545 S
C1043 C1045 1.327 . S
C1043 H1066 0.950 . S
C1044 C1043 1.349 1_565 S
C1044 C1056 1.349 . S
C1045 C1043 1.327 . S
C1045 C1061 1.429 1_545 S
C1045 H1067 0.950 . S
C1046 H1042 0.949 . S
C1046 C1054 1.574 1_655 S
C1046 C1062 1.368 . S
H1047 C1055 0.950 . S
H1048 C1053 0.950 . S
H1049 C1054 0.949 . S
H1050 C1056 0.950 . S
H1051 C1057 0.950 . S
H1052 C1058 0.949 . S
C1053 H1048 0.950 . S
C1053 C1055 1.327 . S
C1053 C1059 1.429 . S
C1054 C1046 1.574 1_455 S
C1054 H1049 0.949 . S
C1054 C1060 1.368 1_565 S
C1055 C1039 1.349 . S
C1055 H1047 0.950 . S
C1055 C1053 1.327 . S
C1056 C1044 1.349 . S
C1056 H1050 0.950 . S
C1056 C1057 1.327 . S
C1057 H1051 0.950 . S
C1057 C1056 1.327 . S
C1057 C1061 1.429 . S
C1058 C1041 1.574 1_655 S
C1058 H1052 0.949 . S
C1058 C1062 1.368 1_545 S
C1059 C1040 1.429 1_545 S
C1059 C1053 1.429 . S
C1059 C1060 1.523 . S
C1060 C1041 1.368 . S
C1060 C1054 1.368 1_545 S
C1060 C1059 1.523 . S
C1061 C1045 1.429 1_565 S
C1061 C1057 1.429 . S
C1061 C1062 1.523 . S
C1062 C1046 1.368 . S
C1062 C1058 1.368 1_565 S
C1062 C1061 1.523 . S
H1063 C1038 0.950 . S
H1064 C1040 0.950 . S
H1065 C1041 0.949 . S
H1066 C1043 0.950 . S
H1067 C1045 0.950 . S
C1068 C1069 1.349 1_655 S
C1068 C1070 1.327 . S
C1068 H1093 0.950 . S
C1069 C1068 1.349 1_455 S
C1069 C1085 1.349 . S
C1070 C1068 1.327 . S
C1070 C1089 1.429 1_655 S
C1070 H1094 0.950 . S
C1071 C1088 1.574 . S
C1071 C1090 1.368 . S
C1071 H1095 0.949 . S
H1072 C1076 0.949 . S
C1073 C1074 1.349 1_455 S
C1073 C1075 1.327 . S
C1073 H1096 0.950 . S
C1074 C1073 1.349 1_655 S
C1074 C1086 1.349 . S
C1075 C1073 1.327 . S
C1075 C1091 1.429 1_455 S
C1075 H1097 0.950 . S
C1076 H1072 0.949 . S
C1076 C1084 1.574 . S
C1076 C1092 1.368 . S
H1077 C1085 0.950 . S
H1078 C1083 0.950 . S
H1079 C1084 0.949 . S
H1080 C1086 0.950 . S
H1081 C1087 0.950 . S
H1082 C1088 0.949 . S
C1083 H1078 0.950 . S
C1083 C1085 1.327 . S
C1083 C1089 1.429 . S
C1084 C1076 1.574 . S
C1084 H1079 0.949 . S
C1084 C1090 1.368 1_655 S
C1085 C1069 1.349 . S
C1085 H1077 0.950 . S
C1085 C1083 1.327 . S
C1086 C1074 1.349 . S
C1086 H1080 0.950 . S
C1086 C1087 1.327 . S
C1087 H1081 0.950 . S
C1087 C1086 1.327 . S
C1087 C1091 1.429 . S
C1088 C1071 1.574 . S
C1088 H1082 0.949 . S
C1088 C1092 1.368 1_455 S
C1089 C1070 1.429 1_455 S
C1089 C1083 1.429 . S
C1089 C1090 1.523 . S
C1090 C1071 1.368 . S
C1090 C1084 1.368 1_455 S
C1090 C1089 1.523 . S
C1091 C1075 1.429 1_655 S
C1091 C1087 1.429 . S
C1091 C1092 1.523 . S
C1092 C1076 1.368 . S
C1092 C1088 1.368 1_655 S
C1092 C1091 1.523 . S
H1093 C1068 0.950 . S
H1094 C1070 0.950 . S
H1095 C1071 0.949 . S
H1096 C1073 0.950 . S
H1097 C1075 0.950 . S
C1098 C1099 1.349 1_545 S
C1098 C1100 1.327 . S
C1098 H1123 0.950 . S
C1099 C1098 1.349 1_565 S
C1099 C1115 1.349 . S
C1100 C1098 1.327 . S
C1100 C1119 1.429 1_545 S
C1100 H1124 0.950 . S
C1101 C1118 1.574 . S
C1101 C1120 1.368 . S
C1101 H1125 0.949 . S
H1102 C1106 0.949 . S
C1103 C1104 1.349 1_565 S
C1103 C1105 1.327 . S
C1103 H1126 0.950 . S
C1104 C1103 1.349 1_545 S
C1104 C1116 1.349 . S
C1105 C1103 1.327 . S
C1105 C1121 1.429 1_565 S
C1105 H1127 0.950 . S
C1106 H1102 0.949 . S
C1106 C1114 1.574 . S
C1106 C1122 1.368 . S
H1107 C1115 0.950 . S
H1108 C1113 0.950 . S
H1109 C1114 0.949 . S
H1110 C1116 0.950 . S
H1111 C1117 0.950 . S
H1112 C1118 0.949 . S
C1113 H1108 0.950 . S
C1113 C1115 1.327 . S
C1113 C1119 1.429 . S
C1114 C1106 1.574 . S
C1114 H1109 0.949 . S
C1114 C1120 1.368 1_545 S
C1115 C1099 1.349 . S
C1115 H1107 0.950 . S
C1115 C1113 1.327 . S
C1116 C1104 1.349 . S
C1116 H1110 0.950 . S
C1116 C1117 1.327 . S
C1117 H1111 0.950 . S
C1117 C1116 1.327 . S
C1117 C1121 1.429 . S
C1118 C1101 1.574 . S
C1118 H1112 0.949 . S
C1118 C1122 1.368 1_565 S
C1119 C1100 1.429 1_565 S
C1119 C1113 1.429 . S
C1119 C1120 1.523 . S
C1120 C1101 1.368 . S
C1120 C1114 1.368 1_565 S
C1120 C1119 1.523 . S
C1121 C1105 1.429 1_545 S
C1121 C1117 1.429 . S
C1121 C1122 1.523 . S
C1122 C1106 1.368 . S
C1122 C1118 1.368 1_545 S
C1122 C1121 1.523 . S
H1123 C1098 0.950 . S
H1124 C1100 0.950 . S
H1125 C1101 0.949 . S
H1126 C1103 0.950 . S
H1127 C1105 0.950 . S
C1128 C1129 1.349 . S
C1128 C1130 1.327 . S
C1128 H1153 0.950 . S
C1129 C1128 1.349 . S
C1129 C1145 1.349 . S
C1130 C1128 1.327 . S
C1130 C1149 1.429 . S
C1130 H1154 0.950 . S
C1131 C1148 1.574 . S
C1131 C1150 1.368 . S
C1131 H1155 0.949 . S
H1132 C1136 0.949 . S
C1133 C1134 1.349 . S
C1133 C1135 1.327 . S
C1133 H1156 0.950 . S
C1134 C1133 1.349 . S
C1134 C1146 1.349 . S
C1135 C1133 1.327 . S
C1135 C1151 1.429 . S
C1135 H1157 0.950 . S
C1136 H1132 0.949 . S
C1136 C1144 1.574 . S
C1136 C1152 1.368 . S
H1137 C1145 0.950 . S
H1138 C1143 0.950 . S
H1139 C1144 0.949 . S
H1140 C1146 0.950 . S
H1141 C1147 0.950 . S
H1142 C1148 0.949 . S
C1143 H1138 0.950 . S
C1143 C1145 1.327 . S
C1143 C1149 1.429 . S
C1144 C1136 1.574 . S
C1144 H1139 0.949 . S
C1144 C1150 1.368 . S
C1145 C1129 1.349 . S
C1145 H1137 0.950 . S
C1145 C1143 1.327 . S
C1146 C1134 1.349 . S
C1146 H1140 0.950 . S
C1146 C1147 1.327 . S
C1147 H1141 0.950 . S
C1147 C1146 1.327 . S
C1147 C1151 1.429 . S
C1148 C1131 1.574 . S
C1148 H1142 0.949 . S
C1148 C1152 1.368 . S
C1149 C1130 1.429 . S
C1149 C1143 1.429 . S
C1149 C1150 1.523 . S
C1150 C1131 1.368 . S
C1150 C1144 1.368 . S
C1150 C1149 1.523 . S
C1151 C1135 1.429 . S
C1151 C1147 1.429 . S
C1151 C1152 1.523 . S
C1152 C1136 1.368 . S
C1152 C1148 1.368 . S
C1152 C1151 1.523 . S
H1153 C1128 0.950 . S
H1154 C1130 0.950 . S
H1155 C1131 0.949 . S
H1156 C1133 0.950 . S
H1157 C1135 0.950 . S
C1158 C1159 1.349 . S
C1158 C1160 1.327 . S
C1158 H1183 0.950 . S
C1159 C1158 1.349 . S
C1159 C1175 1.349 . S
C1160 C1158 1.327 . S
C1160 C1179 1.429 . S
C1160 H1184 0.950 . S
C1161 C1178 1.574 . S
C1161 C1180 1.368 . S
C1161 H1185 0.949 . S
H1162 C1166 0.949 . S
C1163 C1164 1.349 . S
C1163 C1165 1.327 . S
C1163 H1186 0.950 . S
C1164 C1163 1.349 . S
C1164 C1176 1.349 . S
C1165 C1163 1.327 . S
C1165 C1181 1.429 . S
C1165 H1187 0.950 . S
C1166 H1162 0.949 . S
C1166 C1174 1.574 . S
C1166 C1182 1.368 . S
H1167 C1175 0.950 . S
H1168 C1173 0.950 . S
H1169 C1174 0.949 . S
H1170 C1176 0.950 . S
H1171 C1177 0.950 . S
H1172 C1178 0.949 . S
C1173 H1168 0.950 . S
C1173 C1175 1.327 . S
C1173 C1179 1.429 . S
C1174 C1166 1.574 . S
C1174 H1169 0.949 . S
C1174 C1180 1.368 . S
C1175 C1159 1.349 . S
C1175 H1167 0.950 . S
C1175 C1173 1.327 . S
C1176 C1164 1.349 . S
C1176 H1170 0.950 . S
C1176 C1177 1.327 . S
C1177 H1171 0.950 . S
C1177 C1176 1.327 . S
C1177 C1181 1.429 . S
C1178 C1161 1.574 . S
C1178 H1172 0.949 . S
C1178 C1182 1.368 . S
C1179 C1160 1.429 . S
C1179 C1173 1.429 . S
C1179 C1180 1.523 . S
C1180 C1161 1.368 . S
C1180 C1174 1.368 . S
C1180 C1179 1.523 . S
C1181 C1165 1.429 . S
C1181 C1177 1.429 . S
C1181 C1182 1.523 . S
C1182 C1166 1.368 . S
C1182 C1178 1.368 . S
C1182 C1181 1.523 . S
H1183 C1158 0.950 . S
H1184 C1160 0.950 . S
H1185 C1161 0.949 . S
H1186 C1163 0.950 . S
H1187 C1165 0.950 . S
C1188 C1189 1.349 . S
C1188 C1190 1.327 . S
C1188 H1213 0.950 . S
C1189 C1188 1.349 . S
C1189 C1205 1.349 . S
C1190 C1188 1.327 . S
C1190 C1209 1.429 . S
C1190 H1214 0.950 . S
C1191 C1208 1.574 1_565 S
C1191 C1210 1.368 . S
C1191 H1215 0.949 . S
H1192 C1196 0.949 . S
C1193 C1194 1.349 . S
C1193 C1195 1.327 . S
C1193 H1216 0.950 . S
C1194 C1193 1.349 . S
C1194 C1206 1.349 . S
C1195 C1193 1.327 . S
C1195 C1211 1.429 . S
C1195 H1217 0.950 . S
C1196 H1192 0.949 . S
C1196 C1204 1.574 1_545 S
C1196 C1212 1.368 . S
H1197 C1205 0.950 . S
H1198 C1203 0.950 . S
H1199 C1204 0.949 . S
H1200 C1206 0.950 . S
H1201 C1207 0.950 . S
H1202 C1208 0.949 . S
C1203 H1198 0.950 . S
C1203 C1205 1.327 . S
C1203 C1209 1.429 . S
C1204 C1196 1.574 1_565 S
C1204 H1199 0.949 . S
C1204 C1210 1.368 . S
C1205 C1189 1.349 . S
C1205 H1197 0.950 . S
C1205 C1203 1.327 . S
C1206 C1194 1.349 . S
C1206 H1200 0.950 . S
C1206 C1207 1.327 . S
C1207 H1201 0.950 . S
C1207 C1206 1.327 . S
C1207 C1211 1.429 . S
C1208 C1191 1.574 1_545 S
C1208 H1202 0.949 . S
C1208 C1212 1.368 . S
C1209 C1190 1.429 . S
C1209 C1203 1.429 . S
C1209 C1210 1.523 . S
C1210 C1191 1.368 . S
C1210 C1204 1.368 . S
C1210 C1209 1.523 . S
C1211 C1195 1.429 . S
C1211 C1207 1.429 . S
C1211 C1212 1.523 . S
C1212 C1196 1.368 . S
C1212 C1208 1.368 . S
C1212 C1211 1.523 . S
H1213 C1188 0.950 . S
H1214 C1190 0.950 . S
H1215 C1191 0.949 . S
H1216 C1193 0.950 . S
H1217 C1195 0.950 . S
C1218 C1219 1.349 . S
C1218 C1220 1.327 . S
C1218 H1243 0.950 . S
C1219 C1218 1.349 . S
C1219 C1235 1.349 . S
C1220 C1218 1.327 . S
C1220 C1239 1.429 . S
C1220 H1244 0.950 . S
C1221 C1238 1.574 1_455 S
C1221 C1240 1.368 . S
C1221 H1245 0.949 . S
H1222 C1226 0.949 . S
C1223 C1224 1.349 . S
C1223 C1225 1.327 . S
C1223 H1246 0.950 . S
C1224 C1223 1.349 . S
C1224 C1236 1.349 . S
C1225 C1223 1.327 . S
C1225 C1241 1.429 . S
C1225 H1247 0.950 . S
C1226 H1222 0.949 . S
C1226 C1234 1.574 1_655 S
C1226 C1242 1.368 . S
H1227 C1235 0.950 . S
H1228 C1233 0.950 . S
H1229 C1234 0.949 . S
H1230 C1236 0.950 . S
H1231 C1237 0.950 . S
H1232 C1238 0.949 . S
C1233 H1228 0.950 . S
C1233 C1235 1.327 . S
C1233 C1239 1.429 . S
C1234 C1226 1.574 1_455 S
C1234 H1229 0.949 . S
C1234 C1240 1.368 . S
C1235 C1219 1.349 . S
C1235 H1227 0.950 . S
C1235 C1233 1.327 . S
C1236 C1224 1.349 . S
C1236 H1230 0.950 . S
C1236 C1237 1.327 . S
C1237 H1231 0.950 . S
C1237 C1236 1.327 . S
C1237 C1241 1.429 . S
C1238 C1221 1.574 1_655 S
C1238 H1232 0.949 . S
C1238 C1242 1.368 . S
C1239 C1220 1.429 . S
C1239 C1233 1.429 . S
C1239 C1240 1.523 . S
C1240 C1221 1.368 . S
C1240 C1234 1.368 . S
C1240 C1239 1.523 . S
C1241 C1225 1.429 . S
C1241 C1237 1.429 . S
C1241 C1242 1.523 . S
C1242 C1226 1.368 . S
C1242 C1238 1.368 . S
C1242 C1241 1.523 . S
H1243 C1218 0.950 . S
H1244 C1220 0.950 . S
H1245 C1221 0.949 . S
H1246 C1223 0.950 . S
H1247 C1225 0.950 . S
C1248 C1249 1.349 . S
C1248 C1250 1.327 . S
C1248 H1273 0.950 . S
C1249 C1248 1.349 . S
C1249 C1265 1.349 1_455 S
C1250 C1248 1.327 . S
C1250 C1269 1.429 . S
C1250 H1274 0.950 . S
C1251 C1268 1.574 . S
C1251 C1270 1.368 1_655 S
C1251 H1275 0.949 . S
H1252 C1256 0.949 . S
C1253 C1254 1.349 . S
C1253 C1255 1.327 . S
C1253 H1276 0.950 . S
C1254 C1253 1.349 . S
C1254 C1266 1.349 1_655 S
C1255 C1253 1.327 . S
C1255 C1271 1.429 . S
C1255 H1277 0.950 . S
C1256 H1252 0.949 . S
C1256 C1264 1.574 . S
C1256 C1272 1.368 1_455 S
H1257 C1265 0.950 . S
H1258 C1263 0.950 . S
H1259 C1264 0.949 . S
H1260 C1266 0.950 . S
H1261 C1267 0.950 . S
H1262 C1268 0.949 . S
C1263 H1258 0.950 . S
C1263 C1265 1.327 . S
C1263 C1269 1.429 1_655 S
C1264 C1256 1.574 . S
C1264 H1259 0.949 . S
C1264 C1270 1.368 . S
C1265 C1249 1.349 1_655 S
C1265 H1257 0.950 . S
C1265 C1263 1.327 . S
C1266 C1254 1.349 1_455 S
C1266 H1260 0.950 . S
C1266 C1267 1.327 . S
C1267 H1261 0.950 . S
C1267 C1266 1.327 . S
C1267 C1271 1.429 1_455 S
C1268 C1251 1.574 . S
C1268 H1262 0.949 . S
C1268 C1272 1.368 . S
C1269 C1250 1.429 . S
C1269 C1263 1.429 1_455 S
C1269 C1270 1.523 . S
C1270 C1251 1.368 1_455 S
C1270 C1264 1.368 . S
C1270 C1269 1.523 . S
C1271 C1255 1.429 . S
C1271 C1267 1.429 1_655 S
C1271 C1272 1.523 . S
C1272 C1256 1.368 1_655 S
C1272 C1268 1.368 . S
C1272 C1271 1.523 . S
H1273 C1248 0.950 . S
H1274 C1250 0.950 . S
H1275 C1251 0.949 . S
H1276 C1253 0.950 . S
H1277 C1255 0.950 . S
C1278 C1279 1.349 1_565 S
C1278 C1280 1.327 . S
C1278 H1303 0.950 . S
C1279 C1278 1.349 1_545 S
C1279 C1295 1.349 . S
C1280 C1278 1.327 . S
C1280 C1299 1.429 1_565 S
C1280 H1304 0.950 . S
C1281 C1298 1.574 . S
C1281 C1300 1.368 . S
C1281 H1305 0.949 . S
H1282 C1286 0.949 . S
C1283 C1284 1.349 1_545 S
C1283 C1285 1.327 . S
C1283 H1306 0.950 . S
C1284 C1283 1.349 1_565 S
C1284 C1296 1.349 . S
C1285 C1283 1.327 . S
C1285 C1301 1.429 1_545 S
C1285 H1307 0.950 . S
C1286 H1282 0.949 . S
C1286 C1294 1.574 . S
C1286 C1302 1.368 . S
H1287 C1295 0.950 . S
H1288 C1293 0.950 . S
H1289 C1294 0.949 . S
H1290 C1296 0.950 . S
H1291 C1297 0.950 . S
H1292 C1298 0.949 . S
C1293 H1288 0.950 . S
C1293 C1295 1.327 . S
C1293 C1299 1.429 . S
C1294 C1286 1.574 . S
C1294 H1289 0.949 . S
C1294 C1300 1.368 1_565 S
C1295 C1279 1.349 . S
C1295 H1287 0.950 . S
C1295 C1293 1.327 . S
C1296 C1284 1.349 . S
C1296 H1290 0.950 . S
C1296 C1297 1.327 . S
C1297 H1291 0.950 . S
C1297 C1296 1.327 . S
C1297 C1301 1.429 . S
C1298 C1281 1.574 . S
C1298 H1292 0.949 . S
C1298 C1302 1.368 1_545 S
C1299 C1280 1.429 1_545 S
C1299 C1293 1.429 . S
C1299 C1300 1.523 . S
C1300 C1281 1.368 . S
C1300 C1294 1.368 1_545 S
C1300 C1299 1.523 . S
C1301 C1285 1.429 1_565 S
C1301 C1297 1.429 . S
C1301 C1302 1.523 . S
C1302 C1286 1.368 . S
C1302 C1298 1.368 1_565 S
C1302 C1301 1.523 . S
H1303 C1278 0.950 . S
H1304 C1280 0.950 . S
H1305 C1281 0.949 . S
H1306 C1283 0.950 . S
H1307 C1285 0.950 . S
C1308 C1309 1.349 . S
C1308 C1310 1.327 . S
C1308 H1333 0.950 . S
C1309 C1308 1.349 . S
C1309 C1325 1.349 1_655 S
C1310 C1308 1.327 . S
C1310 C1329 1.429 . S
C1310 H1334 0.950 . S
C1311 C1328 1.574 1_545 S
C1311 C1330 1.368 1_455 S
C1311 H1335 0.949 . S
H1312 C1316 0.949 . S
C1313 C1314 1.349 . S
C1313 C1315 1.327 . S
C1313 H1336 0.950 . S
C1314 C1313 1.349 . S
C1314 C1326 1.349 1_455 S
C1315 C1313 1.327 . S
C1315 C1331 1.429 . S
C1315 H1337 0.950 . S
C1316 H1312 0.949 . S
C1316 C1324 1.574 1_565 S
C1316 C1332 1.368 1_655 S
H1317 C1325 0.950 . S
H1318 C1323 0.950 . S
H1319 C1324 0.949 . S
H1320 C1326 0.950 . S
H1321 C1327 0.950 . S
H1322 C1328 0.949 . S
C1323 H1318 0.950 . S
C1323 C1325 1.327 . S
C1323 C1329 1.429 1_455 S
C1324 C1316 1.574 1_545 S
C1324 H1319 0.949 . S
C1324 C1330 1.368 . S
C1325 C1309 1.349 1_455 S
C1325 H1317 0.950 . S
C1325 C1323 1.327 . S
C1326 C1314 1.349 1_655 S
C1326 H1320 0.950 . S
C1326 C1327 1.327 . S
C1327 H1321 0.950 . S
C1327 C1326 1.327 . S
C1327 C1331 1.429 1_655 S
C1328 C1311 1.574 1_565 S
C1328 H1322 0.949 . S
C1328 C1332 1.368 . S
C1329 C1310 1.429 . S
C1329 C1323 1.429 1_655 S
C1329 C1330 1.523 . S
C1330 C1311 1.368 1_655 S
C1330 C1324 1.368 . S
C1330 C1329 1.523 . S
C1331 C1315 1.429 . S
C1331 C1327 1.429 1_455 S
C1331 C1332 1.523 . S
C1332 C1316 1.368 1_455 S
C1332 C1328 1.368 . S
C1332 C1331 1.523 . S
H1333 C1308 0.950 . S
H1334 C1310 0.950 . S
H1335 C1311 0.949 . S
H1336 C1313 0.950 . S
H1337 C1315 0.950 . S
C1338 C1339 1.349 . S
C1338 C1340 1.327 . S
C1338 H1363 0.950 . S
C1339 C1338 1.349 . S
C1339 C1355 1.349 1_565 S
C1340 C1338 1.327 . S
C1340 C1359 1.429 . S
C1340 H1364 0.950 . S
C1341 C1358 1.574 1_655 S
C1341 C1360 1.368 1_545 S
C1341 H1365 0.949 . S
H1342 C1346 0.949 . S
C1343 C1344 1.349 . S
C1343 C1345 1.327 . S
C1343 H1366 0.950 . S
C1344 C1343 1.349 . S
C1344 C1356 1.349 1_545 S
C1345 C1343 1.327 . S
C1345 C1361 1.429 . S
C1345 H1367 0.950 . S
C1346 H1342 0.949 . S
C1346 C1354 1.574 1_455 S
C1346 C1362 1.368 1_565 S
H1347 C1355 0.950 . S
H1348 C1353 0.950 . S
H1349 C1354 0.949 . S
H1350 C1356 0.950 . S
H1351 C1357 0.950 . S
H1352 C1358 0.949 . S
C1353 H1348 0.950 . S
C1353 C1355 1.327 . S
C1353 C1359 1.429 1_545 S
C1354 C1346 1.574 1_655 S
C1354 H1349 0.949 . S
C1354 C1360 1.368 . S
C1355 C1339 1.349 1_545 S
C1355 H1347 0.950 . S
C1355 C1353 1.327 . S
C1356 C1344 1.349 1_565 S
C1356 H1350 0.950 . S
C1356 C1357 1.327 . S
C1357 H1351 0.950 . S
C1357 C1356 1.327 . S
C1357 C1361 1.429 1_565 S
C1358 C1341 1.574 1_455 S
C1358 H1352 0.949 . S
C1358 C1362 1.368 . S
C1359 C1340 1.429 . S
C1359 C1353 1.429 1_565 S
C1359 C1360 1.523 . S
C1360 C1341 1.368 1_565 S
C1360 C1354 1.368 . S
C1360 C1359 1.523 . S
C1361 C1345 1.429 . S
C1361 C1357 1.429 1_545 S
C1361 C1362 1.523 . S
C1362 C1346 1.368 1_545 S
C1362 C1358 1.368 . S
C1362 C1361 1.523 . S
H1363 C1338 0.950 . S
H1364 C1340 0.950 . S
H1365 C1341 0.949 . S
H1366 C1343 0.950 . S
H1367 C1345 0.950 . S
C1368 C1369 1.349 . S
C1368 C1370 1.327 . S
C1368 H1393 0.950 . S
C1369 C1368 1.349 . S
C1369 C1385 1.349 . S
C1370 C1368 1.327 . S
C1370 C1389 1.429 . S
C1370 H1394 0.950 . S
C1371 C1388 1.574 1_545 S
C1371 C1390 1.368 . S
C1371 H1395 0.949 . S
H1372 C1376 0.949 . S
C1373 C1374 1.349 . S
C1373 C1375 1.327 . S
C1373 H1396 0.950 . S
C1374 C1373 1.349 . S
C1374 C1386 1.349 . S
C1375 C1373 1.327 . S
C1375 C1391 1.429 . S
C1375 H1397 0.950 . S
C1376 H1372 0.949 . S
C1376 C1384 1.574 1_565 S
C1376 C1392 1.368 . S
H1377 C1385 0.950 . S
H1378 C1383 0.950 . S
H1379 C1384 0.949 . S
H1380 C1386 0.950 . S
H1381 C1387 0.950 . S
H1382 C1388 0.949 . S
C1383 H1378 0.950 . S
C1383 C1385 1.327 . S
C1383 C1389 1.429 . S
C1384 C1376 1.574 1_545 S
C1384 H1379 0.949 . S
C1384 C1390 1.368 . S
C1385 C1369 1.349 . S
C1385 H1377 0.950 . S
C1385 C1383 1.327 . S
C1386 C1374 1.349 . S
C1386 H1380 0.950 . S
C1386 C1387 1.327 . S
C1387 H1381 0.950 . S
C1387 C1386 1.327 . S
C1387 C1391 1.429 . S
C1388 C1371 1.574 1_565 S
C1388 H1382 0.949 . S
C1388 C1392 1.368 . S
C1389 C1370 1.429 . S
C1389 C1383 1.429 . S
C1389 C1390 1.523 . S
C1390 C1371 1.368 . S
C1390 C1384 1.368 . S
C1390 C1389 1.523 . S
C1391 C1375 1.429 . S
C1391 C1387 1.429 . S
C1391 C1392 1.523 . S
C1392 C1376 1.368 . S
C1392 C1388 1.368 . S
C1392 C1391 1.523 . S
H1393 C1368 0.950 . S
H1394 C1370 0.950 . S
H1395 C1371 0.949 . S
H1396 C1373 0.950 . S
H1397 C1375 0.950 . S
C1398 C1399 1.349 . S
C1398 C1400 1.327 . S
C1398 H1423 0.950 . S
C1399 C1398 1.349 . S
C1399 C1415 1.349 . S
C1400 C1398 1.327 . S
C1400 C1419 1.429 . S
C1400 H1424 0.950 . S
C1401 C1418 1.574 1_655 S
C1401 C1420 1.368 . S
C1401 H1425 0.949 . S
H1402 C1406 0.949 . S
C1403 C1404 1.349 . S
C1403 C1405 1.327 . S
C1403 H1426 0.950 . S
C1404 C1403 1.349 . S
C1404 C1416 1.349 . S
C1405 C1403 1.327 . S
C1405 C1421 1.429 . S
C1405 H1427 0.950 . S
C1406 H1402 0.949 . S
C1406 C1414 1.574 1_455 S
C1406 C1422 1.368 . S
H1407 C1415 0.950 . S
H1408 C1413 0.950 . S
H1409 C1414 0.949 . S
H1410 C1416 0.950 . S
H1411 C1417 0.950 . S
H1412 C1418 0.949 . S
C1413 H1408 0.950 . S
C1413 C1415 1.327 . S
C1413 C1419 1.429 . S
C1414 C1406 1.574 1_655 S
C1414 H1409 0.949 . S
C1414 C1420 1.368 . S
C1415 C1399 1.349 . S
C1415 H1407 0.950 . S
C1415 C1413 1.327 . S
C1416 C1404 1.349 . S
C1416 H1410 0.950 . S
C1416 C1417 1.327 . S
C1417 H1411 0.950 . S
C1417 C1416 1.327 . S
C1417 C1421 1.429 . S
C1418 C1401 1.574 1_455 S
C1418 H1412 0.949 . S
C1418 C1422 1.368 . S
C1419 C1400 1.429 . S
C1419 C1413 1.429 . S
C1419 C1420 1.523 . S
C1420 C1401 1.368 . S
C1420 C1414 1.368 . S
C1420 C1419 1.523 . S
C1421 C1405 1.429 . S
C1421 C1417 1.429 . S
C1421 C1422 1.523 . S
C1422 C1406 1.368 . S
C1422 C1418 1.368 . S
C1422 C1421 1.523 . S
H1423 C1398 0.950 . S
H1424 C1400 0.950 . S
H1425 C1401 0.949 . S
H1426 C1403 0.950 . S
H1427 C1405 0.950 . S
C1428 C1429 1.349 . S
C1428 C1430 1.327 . S
C1428 H1453 0.950 . S
C1429 C1428 1.349 . S
C1429 C1445 1.349 . S
C1430 C1428 1.327 . S
C1430 C1449 1.429 . S
C1430 H1454 0.950 . S
C1431 C1448 1.574 . S
C1431 C1450 1.368 . S
C1431 H1455 0.949 . S
H1432 C1436 0.949 . S
C1433 C1434 1.349 . S
C1433 C1435 1.327 . S
C1433 H1456 0.950 . S
C1434 C1433 1.349 . S
C1434 C1446 1.349 . S
C1435 C1433 1.327 . S
C1435 C1451 1.429 . S
C1435 H1457 0.950 . S
C1436 H1432 0.949 . S
C1436 C1444 1.574 . S
C1436 C1452 1.368 . S
H1437 C1445 0.950 . S
H1438 C1443 0.950 . S
H1439 C1444 0.949 . S
H1440 C1446 0.950 . S
H1441 C1447 0.950 . S
H1442 C1448 0.949 . S
C1443 H1438 0.950 . S
C1443 C1445 1.327 . S
C1443 C1449 1.429 . S
C1444 C1436 1.574 . S
C1444 H1439 0.949 . S
C1444 C1450 1.368 . S
C1445 C1429 1.349 . S
C1445 H1437 0.950 . S
C1445 C1443 1.327 . S
C1446 C1434 1.349 . S
C1446 H1440 0.950 . S
C1446 C1447 1.327 . S
C1447 H1441 0.950 . S
C1447 C1446 1.327 . S
C1447 C1451 1.429 . S
C1448 C1431 1.574 . S
C1448 H1442 0.949 . S
C1448 C1452 1.368 . S
C1449 C1430 1.429 . S
C1449 C1443 1.429 . S
C1449 C1450 1.523 . S
C1450 C1431 1.368 . S
C1450 C1444 1.368 . S
C1450 C1449 1.523 . S
C1451 C1435 1.429 . S
C1451 C1447 1.429 . S
C1451 C1452 1.523 . S
C1452 C1436 1.368 . S
C1452 C1448 1.368 . S
C1452 C1451 1.523 . S
H1453 C1428 0.950 . S
H1454 C1430 0.950 . S
H1455 C1431 0.949 . S
H1456 C1433 0.950 . S
H1457 C1435 0.950 . S
C1458 C1459 1.349 . S
C1458 C1460 1.327 . S
C1458 H1483 0.950 . S
C1459 C1458 1.349 . S
C1459 C1475 1.349 . S
C1460 C1458 1.327 . S
C1460 C1479 1.429 . S
C1460 H1484 0.950 . S
C1461 C1478 1.574 . S
C1461 C1480 1.368 . S
C1461 H1485 0.949 . S
H1462 C1466 0.949 . S
C1463 C1464 1.349 . S
C1463 C1465 1.327 . S
C1463 H1486 0.950 . S
C1464 C1463 1.349 . S
C1464 C1476 1.349 . S
C1465 C1463 1.327 . S
C1465 C1481 1.429 . S
C1465 H1487 0.950 . S
C1466 H1462 0.949 . S
C1466 C1474 1.574 . S
C1466 C1482 1.368 . S
H1467 C1475 0.950 . S
H1468 C1473 0.950 . S
H1469 C1474 0.949 . S
H1470 C1476 0.950 . S
H1471 C1477 0.950 . S
H1472 C1478 0.949 . S
C1473 H1468 0.950 . S
C1473 C1475 1.327 . S
C1473 C1479 1.429 . S
C1474 C1466 1.574 . S
C1474 H1469 0.949 . S
C1474 C1480 1.368 . S
C1475 C1459 1.349 . S
C1475 H1467 0.950 . S
C1475 C1473 1.327 . S
C1476 C1464 1.349 . S
C1476 H1470 0.950 . S
C1476 C1477 1.327 . S
C1477 H1471 0.950 . S
C1477 C1476 1.327 . S
C1477 C1481 1.429 . S
C1478 C1461 1.574 . S
C1478 H1472 0.949 . S
C1478 C1482 1.368 . S
C1479 C1460 1.429 . S
C1479 C1473 1.429 . S
C1479 C1480 1.523 . S
C1480 C1461 1.368 . S
C1480 C1474 1.368 . S
C1480 C1479 1.523 . S
C1481 C1465 1.429 . S
C1481 C1477 1.429 . S
C1481 C1482 1.523 . S
C1482 C1466 1.368 . S
C1482 C1478 1.368 . S
C1482 C1481 1.523 . S
H1483 C1458 0.950 . S
H1484 C1460 0.950 . S
H1485 C1461 0.949 . S
H1486 C1463 0.950 . S
H1487 C1465 0.950 . S
C1488 C1489 1.349 . S
C1488 C1490 1.327 . S
C1488 H1513 0.950 . S
C1489 C1488 1.349 . S
C1489 C1505 1.349 . S
C1490 C1488 1.327 . S
C1490 C1509 1.429 . S
C1490 H1514 0.950 . S
C1491 C1508 1.574 . S
C1491 C1510 1.368 . S
C1491 H1515 0.949 . S
H1492 C1496 0.949 . S
C1493 C1494 1.349 . S
C1493 C1495 1.327 . S
C1493 H1516 0.950 . S
C1494 C1493 1.349 . S
C1494 C1506 1.349 . S
C1495 C1493 1.327 . S
C1495 C1511 1.429 . S
C1495 H1517 0.950 . S
C1496 H1492 0.949 . S
C1496 C1504 1.574 . S
C1496 C1512 1.368 . S
H1497 C1505 0.950 . S
H1498 C1503 0.950 . S
H1499 C1504 0.949 . S
H1500 C1506 0.950 . S
H1501 C1507 0.950 . S
H1502 C1508 0.949 . S
C1503 H1498 0.950 . S
C1503 C1505 1.327 . S
C1503 C1509 1.429 . S
C1504 C1496 1.574 . S
C1504 H1499 0.949 . S
C1504 C1510 1.368 . S
C1505 C1489 1.349 . S
C1505 H1497 0.950 . S
C1505 C1503 1.327 . S
C1506 C1494 1.349 . S
C1506 H1500 0.950 . S
C1506 C1507 1.327 . S
C1507 H1501 0.950 . S
C1507 C1506 1.327 . S
C1507 C1511 1.429 . S
C1508 C1491 1.574 . S
C1508 H1502 0.949 . S
C1508 C1512 1.368 . S
C1509 C1490 1.429 . S
C1509 C1503 1.429 . S
C1509 C1510 1.523 . S
C1510 C1491 1.368 . S
C1510 C1504 1.368 . S
C1510 C1509 1.523 . S
C1511 C1495 1.429 . S
C1511 C1507 1.429 . S
C1511 C1512 1.523 . S
C1512 C1496 1.368 . S
C1512 C1508 1.368 . S
C1512 C1511 1.523 . S
H1513 C1488 0.950 . S
H1514 C1490 0.950 . S
H1515 C1491 0.949 . S
H1516 C1493 0.950 . S
H1517 C1495 0.950 . S
C1518 C1519 1.349 . S
C1518 C1520 1.327 . S
C1518 H1543 0.950 . S
C1519 C1518 1.349 . S
C1519 C1535 1.349 . S
C1520 C1518 1.327 . S
C1520 C1539 1.429 . S
C1520 H1544 0.950 . S
C1521 C1538 1.574 . S
C1521 C1540 1.368 . S
C1521 H1545 0.949 . S
H1522 C1526 0.949 . S
C1523 C1524 1.349 . S
C1523 C1525 1.327 . S
C1523 H1546 0.950 . S
C1524 C1523 1.349 . S
C1524 C1536 1.349 . S
C1525 C1523 1.327 . S
C1525 C1541 1.429 . S
C1525 H1547 0.950 . S
C1526 H1522 0.949 . S
C1526 C1534 1.574 . S
C1526 C1542 1.368 . S
H1527 C1535 0.950 . S
H1528 C1533 0.950 . S
H1529 C1534 0.949 . S
H1530 C1536 0.950 . S
H1531 C1537 0.950 . S
H1532 C1538 0.949 . S
C1533 H1528 0.950 . S
C1533 C1535 1.327 . S
C1533 C1539 1.429 . S
C1534 C1526 1.574 . S
C1534 H1529 0.949 . S
C1534 C1540 1.368 . S
C1535 C1519 1.349 . S
C1535 H1527 0.950 . S
C1535 C1533 1.327 . S
C1536 C1524 1.349 . S
C1536 H1530 0.950 . S
C1536 C1537 1.327 . S
C1537 H1531 0.950 . S
C1537 C1536 1.327 . S
C1537 C1541 1.429 . S
C1538 C1521 1.574 . S
C1538 H1532 0.949 . S
C1538 C1542 1.368 . S
C1539 C1520 1.429 . S
C1539 C1533 1.429 . S
C1539 C1540 1.523 . S
C1540 C1521 1.368 . S
C1540 C1534 1.368 . S
C1540 C1539 1.523 . S
C1541 C1525 1.429 . S
C1541 C1537 1.429 . S
C1541 C1542 1.523 . S
C1542 C1526 1.368 . S
C1542 C1538 1.368 . S
C1542 C1541 1.523 . S
H1543 C1518 0.950 . S
H1544 C1520 0.950 . S
H1545 C1521 0.949 . S
H1546 C1523 0.950 . S
H1547 C1525 0.950 . S
C1548 C1549 1.349 . S
C1548 C1550 1.327 . S
C1548 H1573 0.950 . S
C1549 C1548 1.349 . S
C1549 C1565 1.349 . S
C1550 C1548 1.327 . S
C1550 C1569 1.429 . S
C1550 H1574 0.950 . S
C1551 C1568 1.574 . S
C1551 C1570 1.368 . S
C1551 H1575 0.949 . S
H1552 C1556 0.949 . S
C1553 C1554 1.349 . S
C1553 C1555 1.327 . S
C1553 H1576 0.950 . S
C1554 C1553 1.349 . S
C1554 C1566 1.349 . S
C1555 C1553 1.327 . S
C1555 C1571 1.429 . S
C1555 H1577 0.950 . S
C1556 H1552 0.949 . S
C1556 C1564 1.574 . S
C1556 C1572 1.368 . S
H1557 C1565 0.950 . S
H1558 C1563 0.950 . S
H1559 C1564 0.949 . S
H1560 C1566 0.950 . S
H1561 C1567 0.950 . S
H1562 C1568 0.949 . S
C1563 H1558 0.950 . S
C1563 C1565 1.327 . S
C1563 C1569 1.429 . S
C1564 C1556 1.574 . S
C1564 H1559 0.949 . S
C1564 C1570 1.368 . S
C1565 C1549 1.349 . S
C1565 H1557 0.950 . S
C1565 C1563 1.327 . S
C1566 C1554 1.349 . S
C1566 H1560 0.950 . S
C1566 C1567 1.327 . S
C1567 H1561 0.950 . S
C1567 C1566 1.327 . S
C1567 C1571 1.429 . S
C1568 C1551 1.574 . S
C1568 H1562 0.949 . S
C1568 C1572 1.368 . S
C1569 C1550 1.429 . S
C1569 C1563 1.429 . S
C1569 C1570 1.523 . S
C1570 C1551 1.368 . S
C1570 C1564 1.368 . S
C1570 C1569 1.523 . S
C1571 C1555 1.429 . S
C1571 C1567 1.429 . S
C1571 C1572 1.523 . S
C1572 C1556 1.368 . S
C1572 C1568 1.368 . S
C1572 C1571 1.523 . S
H1573 C1548 0.950 . S
H1574 C1550 0.950 . S
H1575 C1551 0.949 . S
H1576 C1553 0.950 . S
H1577 C1555 0.950 . S
C1578 C1579 1.349 . S
C1578 C1580 1.327 . S
C1578 H1603 0.950 . S
C1579 C1578 1.349 . S
C1579 C1595 1.349 . S
C1580 C1578 1.327 . S
C1580 C1599 1.429 . S
C1580 H1604 0.950 . S
C1581 C1598 1.574 . S
C1581 C1600 1.368 . S
C1581 H1605 0.949 . S
H1582 C1586 0.949 . S
C1583 C1584 1.349 . S
C1583 C1585 1.327 . S
C1583 H1606 0.950 . S
C1584 C1583 1.349 . S
C1584 C1596 1.349 . S
C1585 C1583 1.327 . S
C1585 C1601 1.429 . S
C1585 H1607 0.950 . S
C1586 H1582 0.949 . S
C1586 C1594 1.574 . S
C1586 C1602 1.368 . S
H1587 C1595 0.950 . S
H1588 C1593 0.950 . S
H1589 C1594 0.949 . S
H1590 C1596 0.950 . S
H1591 C1597 0.950 . S
H1592 C1598 0.949 . S
C1593 H1588 0.950 . S
C1593 C1595 1.327 . S
C1593 C1599 1.429 . S
C1594 C1586 1.574 . S
C1594 H1589 0.949 . S
C1594 C1600 1.368 . S
C1595 C1579 1.349 . S
C1595 H1587 0.950 . S
C1595 C1593 1.327 . S
C1596 C1584 1.349 . S
C1596 H1590 0.950 . S
C1596 C1597 1.327 . S
C1597 H1591 0.950 . S
C1597 C1596 1.327 . S
C1597 C1601 1.429 . S
C1598 C1581 1.574 . S
C1598 H1592 0.949 . S
C1598 C1602 1.368 . S
C1599 C1580 1.429 . S
C1599 C1593 1.429 . S
C1599 C1600 1.523 . S
C1600 C1581 1.368 . S
C1600 C1594 1.368 . S
C1600 C1599 1.523 . S
C1601 C1585 1.429 . S
C1601 C1597 1.429 . S
C1601 C1602 1.523 . S
C1602 C1586 1.368 . S
C1602 C1598 1.368 . S
C1602 C1601 1.523 . S
H1603 C1578 0.950 . S
H1604 C1580 0.950 . S
H1605 C1581 0.949 . S
H1606 C1583 0.950 . S
H1607 C1585 0.950 . S
C1608 C1609 1.349 . S
C1608 C1610 1.327 . S
C1608 H1633 0.950 . S
C1609 C1608 1.349 . S
C1609 C1625 1.349 . S
C1610 C1608 1.327 . S
C1610 C1629 1.429 . S
C1610 H1634 0.950 . S
C1611 C1628 1.574 . S
C1611 C1630 1.368 . S
C1611 H1635 0.949 . S
H1612 C1616 0.949 . S
C1613 C1614 1.349 . S
C1613 C1615 1.327 . S
C1613 H1636 0.950 . S
C1614 C1613 1.349 . S
C1614 C1626 1.349 . S
C1615 C1613 1.327 . S
C1615 C1631 1.429 . S
C1615 H1637 0.950 . S
C1616 H1612 0.949 . S
C1616 C1624 1.574 . S
C1616 C1632 1.368 . S
H1617 C1625 0.950 . S
H1618 C1623 0.950 . S
H1619 C1624 0.949 . S
H1620 C1626 0.950 . S
H1621 C1627 0.950 . S
H1622 C1628 0.949 . S
C1623 H1618 0.950 . S
C1623 C1625 1.327 . S
C1623 C1629 1.429 . S
C1624 C1616 1.574 . S
C1624 H1619 0.949 . S
C1624 C1630 1.368 . S
C1625 C1609 1.349 . S
C1625 H1617 0.950 . S
C1625 C1623 1.327 . S
C1626 C1614 1.349 . S
C1626 H1620 0.950 . S
C1626 C1627 1.327 . S
C1627 H1621 0.950 . S
C1627 C1626 1.327 . S
C1627 C1631 1.429 . S
C1628 C1611 1.574 . S
C1628 H1622 0.949 . S
C1628 C1632 1.368 . S
C1629 C1610 1.429 . S
C1629 C1623 1.429 . S
C1629 C1630 1.523 . S
C1630 C1611 1.368 . S
C1630 C1624 1.368 . S
C1630 C1629 1.523 . S
C1631 C1615 1.429 . S
C1631 C1627 1.429 . S
C1631 C1632 1.523 . S
C1632 C1616 1.368 . S
C1632 C1628 1.368 . S
C1632 C1631 1.523 . S
H1633 C1608 0.950 . S
H1634 C1610 0.950 . S
H1635 C1611 0.949 . S
H1636 C1613 0.950 . S
H1637 C1615 0.950 . S
C1638 C1639 1.349 . S
C1638 C1640 1.327 . S
C1638 H1663 0.950 . S
C1639 C1638 1.349 . S
C1639 C1655 1.349 . S
C1640 C1638 1.327 . S
C1640 C1659 1.429 . S
C1640 H1664 0.950 . S
C1641 C1658 1.574 . S
C1641 C1660 1.368 . S
C1641 H1665 0.949 . S
H1642 C1646 0.949 . S
C1643 C1644 1.349 . S
C1643 C1645 1.327 . S
C1643 H1666 0.950 . S
C1644 C1643 1.349 . S
C1644 C1656 1.349 . S
C1645 C1643 1.327 . S
C1645 C1661 1.429 . S
C1645 H1667 0.950 . S
C1646 H1642 0.949 . S
C1646 C1654 1.574 . S
C1646 C1662 1.368 . S
H1647 C1655 0.950 . S
H1648 C1653 0.950 . S
H1649 C1654 0.949 . S
H1650 C1656 0.950 . S
H1651 C1657 0.950 . S
H1652 C1658 0.949 . S
C1653 H1648 0.950 . S
C1653 C1655 1.327 . S
C1653 C1659 1.429 . S
C1654 C1646 1.574 . S
C1654 H1649 0.949 . S
C1654 C1660 1.368 . S
C1655 C1639 1.349 . S
C1655 H1647 0.950 . S
C1655 C1653 1.327 . S
C1656 C1644 1.349 . S
C1656 H1650 0.950 . S
C1656 C1657 1.327 . S
C1657 H1651 0.950 . S
C1657 C1656 1.327 . S
C1657 C1661 1.429 . S
C1658 C1641 1.574 . S
C1658 H1652 0.949 . S
C1658 C1662 1.368 . S
C1659 C1640 1.429 . S
C1659 C1653 1.429 . S
C1659 C1660 1.523 . S
C1660 C1641 1.368 . S
C1660 C1654 1.368 . S
C1660 C1659 1.523 . S
C1661 C1645 1.429 . S
C1661 C1657 1.429 . S
C1661 C1662 1.523 . S
C1662 C1646 1.368 . S
C1662 C1658 1.368 . S
C1662 C1661 1.523 . S
H1663 C1638 0.950 . S
H1664 C1640 0.950 . S
H1665 C1641 0.949 . S
H1666 C1643 0.950 . S
H1667 C1645 0.950 . S
C1668 C1669 1.349 . S
C1668 C1670 1.327 . S
C1668 H1693 0.950 . S
C1669 C1668 1.349 . S
C1669 C1685 1.349 . S
C1670 C1668 1.327 . S
C1670 C1689 1.429 . S
C1670 H1694 0.950 . S
C1671 C1688 1.574 . S
C1671 C1690 1.368 . S
C1671 H1695 0.949 . S
H1672 C1676 0.949 . S
C1673 C1674 1.349 . S
C1673 C1675 1.327 . S
C1673 H1696 0.950 . S
C1674 C1673 1.349 . S
C1674 C1686 1.349 . S
C1675 C1673 1.327 . S
C1675 C1691 1.429 . S
C1675 H1697 0.950 . S
C1676 H1672 0.949 . S
C1676 C1684 1.574 . S
C1676 C1692 1.368 . S
H1677 C1685 0.950 . S
H1678 C1683 0.950 . S
H1679 C1684 0.949 . S
H1680 C1686 0.950 . S
H1681 C1687 0.950 . S
H1682 C1688 0.949 . S
C1683 H1678 0.950 . S
C1683 C1685 1.327 . S
C1683 C1689 1.429 . S
C1684 C1676 1.574 . S
C1684 H1679 0.949 . S
C1684 C1690 1.368 . S
C1685 C1669 1.349 . S
C1685 H1677 0.950 . S
C1685 C1683 1.327 . S
C1686 C1674 1.349 . S
C1686 H1680 0.950 . S
C1686 C1687 1.327 . S
C1687 H1681 0.950 . S
C1687 C1686 1.327 . S
C1687 C1691 1.429 . S
C1688 C1671 1.574 . S
C1688 H1682 0.949 . S
C1688 C1692 1.368 . S
C1689 C1670 1.429 . S
C1689 C1683 1.429 . S
C1689 C1690 1.523 . S
C1690 C1671 1.368 . S
C1690 C1684 1.368 . S
C1690 C1689 1.523 . S
C1691 C1675 1.429 . S
C1691 C1687 1.429 . S
C1691 C1692 1.523 . S
C1692 C1676 1.368 . S
C1692 C1688 1.368 . S
C1692 C1691 1.523 . S
H1693 C1668 0.950 . S
H1694 C1670 0.950 . S
H1695 C1671 0.949 . S
H1696 C1673 0.950 . S
H1697 C1675 0.950 . S
C1698 C1699 1.349 . S
C1698 C1700 1.327 . S
C1698 H1723 0.950 . S
C1699 C1698 1.349 . S
C1699 C1715 1.349 . S
C1700 C1698 1.327 . S
C1700 C1719 1.429 . S
C1700 H1724 0.950 . S
C1701 C1718 1.574 . S
C1701 C1720 1.368 . S
C1701 H1725 0.949 . S
H1702 C1706 0.949 . S
C1703 C1704 1.349 . S
C1703 C1705 1.327 . S
C1703 H1726 0.950 . S
C1704 C1703 1.349 . S
C1704 C1716 1.349 . S
C1705 C1703 1.327 . S
C1705 C1721 1.429 . S
C1705 H1727 0.950 . S
C1706 H1702 0.949 . S
C1706 C1714 1.574 . S
C1706 C1722 1.368 . S
H1707 C1715 0.950 . S
H1708 C1713 0.950 . S
H1709 C1714 0.949 . S
H1710 C1716 0.950 . S
H1711 C1717 0.950 . S
H1712 C1718 0.949 . S
C1713 H1708 0.950 . S
C1713 C1715 1.327 . S
C1713 C1719 1.429 . S
C1714 C1706 1.574 . S
C1714 H1709 0.949 . S
C1714 C1720 1.368 . S
C1715 C1699 1.349 . S
C1715 H1707 0.950 . S
C1715 C1713 1.327 . S
C1716 C1704 1.349 . S
C1716 H1710 0.950 . S
C1716 C1717 1.327 . S
C1717 H1711 0.950 . S
C1717 C1716 1.327 . S
C1717 C1721 1.429 . S
C1718 C1701 1.574 . S
C1718 H1712 0.949 . S
C1718 C1722 1.368 . S
C1719 C1700 1.429 . S
C1719 C1713 1.429 . S
C1719 C1720 1.523 . S
C1720 C1701 1.368 . S
C1720 C1714 1.368 . S
C1720 C1719 1.523 . S
C1721 C1705 1.429 . S
C1721 C1717 1.429 . S
C1721 C1722 1.523 . S
C1722 C1706 1.368 . S
C1722 C1718 1.368 . S
C1722 C1721 1.523 . S
H1723 C1698 0.950 . S
H1724 C1700 0.950 . S
H1725 C1701 0.949 . S
H1726 C1703 0.950 . S
H1727 C1705 0.950 . S
C529 C8 0.833 . S
C534 N377 0.834 . S
C559 N278 0.834 . S
C564 C41 0.833 . S
C589 N311 0.834 . S
C594 C74 0.833 . S
C619 N344 0.834 . S
C624 C107 0.833 . S
C649 N179 0.834 . S
C654 C140 0.833 . S
C679 N212 0.834 . S
C684 C173 0.833 . S
C709 C206 0.833 . S
C714 N245 0.834 . S
C739 C239 0.833 . S
C744 N146 0.834 . S
C769 C272 0.833 . S
C774 N113 0.834 . S
C799 C305 0.833 . S
C804 N14 0.834 . S
C829 N47 0.834 . S
C834 C338 0.833 . S
C859 C371 0.833 . S
C864 N80 0.834 . S
C889 N443 0.834 . S
C894 C404 0.833 . S
C919 N476 0.834 . S
C924 C437 0.833 . S
C949 N509 0.834 . S
C954 C470 0.833 . S
C979 C503 0.833 . S
C984 N410 0.834 . S
C1009 C17 1.434 . S
C1014 C83 1.434 . S
C1039 C50 1.434 . S
C1044 C116 1.434 . S
C1069 C215 1.434 . S
C1074 C149 1.434 . S
C1099 C248 1.434 . S
C1104 C182 1.434 . S
C1129 C347 1.434 . S
C1134 C281 1.434 . S
C1159 C314 1.434 . S
C1164 C380 1.434 . S
C1189 C413 1.434 . S
C1194 C479 1.434 . S
C1219 C512 1.434 . S
C1224 C446 1.434 . S
C1249 C94 0.694 . S
C1254 C28 0.694 . S
C1279 C61 0.694 . S
C1284 C127 0.694 . S
C1309 C160 0.694 . S
C1314 C226 0.694 . S
C1339 C259 0.694 . S
C1344 C193 0.694 . S
C1369 C358 0.682 . S
C1374 C292 0.682 . S
C1399 C325 0.682 . S
C1404 C391 0.682 . S
C1429 C424 0.682 . S
C1434 C490 0.682 . S
C1459 C523 0.682 . S
C1464 C457 0.682 . S
C1489 N467 1.529 . S
C1494 N5 1.529 . S
C1519 N38 1.529 . S
C1524 N500 1.529 . S
C1549 N71 1.529 . S
C1554 N401 1.529 . S
C1579 N104 1.529 . S
C1584 N434 1.529 . S
C1609 N137 1.529 . S
C1614 N335 1.529 . S
C1639 N368 1.529 . S
C1644 N170 1.529 . S
C1669 N203 1.529 . S
C1674 N269 1.529 . S
C1699 N236 1.529 . S
C1704 N302 1.529 . S
